# Generated by pormake.
# Topology ocu, (6,8)-cn, num edge types: 1
# Building blocks:
#     Node 0, Type 0, BuildingBlock: PAMTOO_clean_sbu_0, # of connection points: 6
#     Node 1, Type 0, BuildingBlock: PAMTOO_clean_sbu_0, # of connection points: 6
#     Node 2, Type 0, BuildingBlock: PAMTOO_clean_sbu_0, # of connection points: 6
#     Node 3, Type 0, BuildingBlock: PAMTOO_clean_sbu_0, # of connection points: 6
#     Node 4, Type 0, BuildingBlock: PAMTOO_clean_sbu_0, # of connection points: 6
#     Node 5, Type 0, BuildingBlock: PAMTOO_clean_sbu_0, # of connection points: 6
#     Node 6, Type 0, BuildingBlock: PAMTOO_clean_sbu_0, # of connection points: 6
#     Node 7, Type 0, BuildingBlock: PAMTOO_clean_sbu_0, # of connection points: 6
#     Node 8, Type 1, BuildingBlock: AJUNOK_clean_sbu_0, # of connection points: 8
#     Node 9, Type 1, BuildingBlock: AJUNOK_clean_sbu_0, # of connection points: 8
#     Node 10, Type 1, BuildingBlock: AJUNOK_clean_sbu_0, # of connection points: 8
#     Node 11, Type 1, BuildingBlock: AJUNOK_clean_sbu_0, # of connection points: 8
#     Node 12, Type 1, BuildingBlock: AJUNOK_clean_sbu_0, # of connection points: 8
#     Node 13, Type 1, BuildingBlock: AJUNOK_clean_sbu_0, # of connection points: 8
#     Edge 14, Type (0, 1), BuildingBlock: TEMPAE_clean_linker_10, # of connection points: 2
#     Edge 15, Type (0, 1), BuildingBlock: TEMPAE_clean_linker_10, # of connection points: 2
#     Edge 16, Type (0, 1), BuildingBlock: TEMPAE_clean_linker_10, # of connection points: 2
#     Edge 17, Type (0, 1), BuildingBlock: TEMPAE_clean_linker_10, # of connection points: 2
#     Edge 18, Type (0, 1), BuildingBlock: TEMPAE_clean_linker_10, # of connection points: 2
#     Edge 19, Type (0, 1), BuildingBlock: TEMPAE_clean_linker_10, # of connection points: 2
#     Edge 20, Type (0, 1), BuildingBlock: TEMPAE_clean_linker_10, # of connection points: 2
#     Edge 21, Type (0, 1), BuildingBlock: TEMPAE_clean_linker_10, # of connection points: 2
#     Edge 22, Type (0, 1), BuildingBlock: TEMPAE_clean_linker_10, # of connection points: 2
#     Edge 23, Type (0, 1), BuildingBlock: TEMPAE_clean_linker_10, # of connection points: 2
#     Edge 24, Type (0, 1), BuildingBlock: TEMPAE_clean_linker_10, # of connection points: 2
#     Edge 25, Type (0, 1), BuildingBlock: TEMPAE_clean_linker_10, # of connection points: 2
#     Edge 26, Type (0, 1), BuildingBlock: TEMPAE_clean_linker_10, # of connection points: 2
#     Edge 27, Type (0, 1), BuildingBlock: TEMPAE_clean_linker_10, # of connection points: 2
#     Edge 28, Type (0, 1), BuildingBlock: TEMPAE_clean_linker_10, # of connection points: 2
#     Edge 29, Type (0, 1), BuildingBlock: TEMPAE_clean_linker_10, # of connection points: 2
#     Edge 30, Type (0, 1), BuildingBlock: TEMPAE_clean_linker_10, # of connection points: 2
#     Edge 31, Type (0, 1), BuildingBlock: TEMPAE_clean_linker_10, # of connection points: 2
#     Edge 32, Type (0, 1), BuildingBlock: TEMPAE_clean_linker_10, # of connection points: 2
#     Edge 33, Type (0, 1), BuildingBlock: TEMPAE_clean_linker_10, # of connection points: 2
#     Edge 34, Type (0, 1), BuildingBlock: TEMPAE_clean_linker_10, # of connection points: 2
#     Edge 35, Type (0, 1), BuildingBlock: TEMPAE_clean_linker_10, # of connection points: 2
#     Edge 36, Type (0, 1), BuildingBlock: TEMPAE_clean_linker_10, # of connection points: 2
#     Edge 37, Type (0, 1), BuildingBlock: TEMPAE_clean_linker_10, # of connection points: 2
#     Edge 38, Type (0, 1), BuildingBlock: TEMPAE_clean_linker_10, # of connection points: 2
#     Edge 39, Type (0, 1), BuildingBlock: TEMPAE_clean_linker_10, # of connection points: 2
#     Edge 40, Type (0, 1), BuildingBlock: TEMPAE_clean_linker_10, # of connection points: 2
#     Edge 41, Type (0, 1), BuildingBlock: TEMPAE_clean_linker_10, # of connection points: 2
#     Edge 42, Type (0, 1), BuildingBlock: TEMPAE_clean_linker_10, # of connection points: 2
#     Edge 43, Type (0, 1), BuildingBlock: TEMPAE_clean_linker_10, # of connection points: 2
#     Edge 44, Type (0, 1), BuildingBlock: TEMPAE_clean_linker_10, # of connection points: 2
#     Edge 45, Type (0, 1), BuildingBlock: TEMPAE_clean_linker_10, # of connection points: 2
#     Edge 46, Type (0, 1), BuildingBlock: TEMPAE_clean_linker_10, # of connection points: 2
#     Edge 47, Type (0, 1), BuildingBlock: TEMPAE_clean_linker_10, # of connection points: 2
#     Edge 48, Type (0, 1), BuildingBlock: TEMPAE_clean_linker_10, # of connection points: 2
#     Edge 49, Type (0, 1), BuildingBlock: TEMPAE_clean_linker_10, # of connection points: 2
#     Edge 50, Type (0, 1), BuildingBlock: TEMPAE_clean_linker_10, # of connection points: 2
#     Edge 51, Type (0, 1), BuildingBlock: TEMPAE_clean_linker_10, # of connection points: 2
#     Edge 52, Type (0, 1), BuildingBlock: TEMPAE_clean_linker_10, # of connection points: 2
#     Edge 53, Type (0, 1), BuildingBlock: TEMPAE_clean_linker_10, # of connection points: 2
#     Edge 54, Type (0, 1), BuildingBlock: TEMPAE_clean_linker_10, # of connection points: 2
#     Edge 55, Type (0, 1), BuildingBlock: TEMPAE_clean_linker_10, # of connection points: 2
#     Edge 56, Type (0, 1), BuildingBlock: TEMPAE_clean_linker_10, # of connection points: 2
#     Edge 57, Type (0, 1), BuildingBlock: TEMPAE_clean_linker_10, # of connection points: 2
#     Edge 58, Type (0, 1), BuildingBlock: TEMPAE_clean_linker_10, # of connection points: 2
#     Edge 59, Type (0, 1), BuildingBlock: TEMPAE_clean_linker_10, # of connection points: 2
#     Edge 60, Type (0, 1), BuildingBlock: TEMPAE_clean_linker_10, # of connection points: 2
#     Edge 61, Type (0, 1), BuildingBlock: TEMPAE_clean_linker_10, # of connection points: 2
# Relax obj value: 0.260
# Max RMSD: 0.324
# Mean RMSD: 0.193
data_MOF--net-ocu--node1-PAMTOO_clean_sbu_0--node2-AJUNOK_clean_sbu_0--edge1-TEMPAE_clean_linker_10
_symmetry_space_group_name_H-M    P1
_symmetry_Int_Tables_number       1
_symmetry_cell_setting            triclinic
loop_
_symmetry_equiv_pos_as_xyz
'x, y, z'
_cell_length_a     43.602173
_cell_length_b     46.435499
_cell_length_c     38.387685
_cell_angle_alpha  100.10063
_cell_angle_beta   100.49566
_cell_angle_gamma 107.57442
loop_
_atom_site_label
_atom_site_type_symbol
_atom_site_fract_x
_atom_site_fract_y
_atom_site_fract_z
_atom_type_partial_charge
Dy0 Dy 0.31064 0.28967 0.30586 0.0
Dy1 Dy 0.24999 0.27426 0.23435 0.0
C2 C 0.30148 0.23588 0.23462 0.0
O3 O 0.33425 0.32194 0.27303 0.0
O4 O 0.29068 0.31224 0.22349 0.0
O5 O 0.36254 0.30457 0.33366 0.0
O6 O 0.32509 0.29511 0.3641 0.0
O7 O 0.24803 0.31777 0.26874 0.0
O8 O 0.28161 0.31957 0.32306 0.0
O9 O 0.2269 0.25092 0.27472 0.0
O10 O 0.27248 0.24495 0.30803 0.0
O11 O 0.19741 0.25813 0.20909 0.0
O12 O 0.23276 0.26739 0.17607 0.0
C13 C 0.32209 0.3264 0.2412 0.0
O14 O 0.32002 0.25374 0.26657 0.0
O15 O 0.27261 0.23767 0.22 0.0
C16 C 0.36898 0.27749 0.37832 0.0
C17 C 0.39148 0.23303 0.40423 0.0
C18 C 0.37057 0.22522 0.36903 0.0
C19 C 0.35923 0.24723 0.3563 0.0
C20 C 0.38973 0.28554 0.41348 0.0
C21 C 0.40098 0.26334 0.42645 0.0
C22 C 0.3561 0.29979 0.3644 0.0
C23 C 0.25955 0.32866 0.30433 0.0
C24 C 0.2401 0.2385 0.29901 0.0
C25 C 0.18803 0.28439 0.16385 0.0
C26 C 0.16685 0.32968 0.1383 0.0
C27 C 0.17941 0.33382 0.17581 0.0
C28 C 0.18985 0.31136 0.18846 0.0
C29 C 0.17597 0.28028 0.12625 0.0
C30 C 0.16534 0.30291 0.11345 0.0
C31 C 0.20213 0.26262 0.17762 0.0
H32 H 0.36344 0.20227 0.351 0.0
H33 H 0.34291 0.24065 0.32915 0.0
H34 H 0.39709 0.30881 0.4308 0.0
H35 H 0.417 0.2698 0.45376 0.0
H36 H 0.18128 0.35456 0.1954 0.0
H37 H 0.19965 0.31525 0.21751 0.0
H38 H 0.17508 0.25983 0.10693 0.0
H39 H 0.15563 0.29937 0.08437 0.0
Dy40 Dy 0.79962 0.27863 0.23723 0.0
Dy41 Dy 0.75785 0.27748 0.2973 0.0
C42 C 0.83045 0.32836 0.31426 0.0
O43 O 0.82692 0.26106 0.27951 0.0
O44 O 0.78378 0.24209 0.30503 0.0
O45 O 0.84031 0.29046 0.21159 0.0
O46 O 0.7949 0.252 0.18342 0.0
O47 O 0.72194 0.25093 0.24358 0.0
O48 O 0.76031 0.2323 0.22778 0.0
O49 O 0.74507 0.31261 0.2691 0.0
O50 O 0.76477 0.3038 0.21824 0.0
O51 O 0.72059 0.25363 0.32193 0.0
O52 O 0.74844 0.30329 0.34422 0.0
C53 C 0.81369 0.24398 0.30053 0.0
O54 O 0.82919 0.32412 0.27905 0.0
O55 O 0.80895 0.30885 0.32634 0.0
C56 C 0.8229 0.28091 0.14794 0.0
C57 C 0.84515 0.31908 0.10353 0.0
C58 C 0.82014 0.32313 0.12034 0.0
C59 C 0.80996 0.30465 0.14387 0.0
C60 C 0.83998 0.27163 0.12311 0.0
C61 C 0.85002 0.29022 0.0995 0.0
C62 C 0.82349 0.26964 0.18105 0.0
C63 C 0.72942 0.2308 0.22164 0.0
C64 C 0.74708 0.31647 0.23628 0.0
C65 C 0.73365 0.27306 0.38566 0.0
C66 C 0.71642 0.24413 0.43978 0.0
C67 C 0.73863 0.23589 0.42105 0.0
C68 C 0.74637 0.24977 0.39292 0.0
C69 C 0.72048 0.2872 0.41161 0.0
C70 C 0.71323 0.27341 0.44005 0.0
C71 C 0.72786 0.27815 0.34886 0.0
H72 H 0.81432 0.34437 0.12218 0.0
H73 H 0.79552 0.31127 0.16195 0.0
H74 H 0.84896 0.25246 0.12501 0.0
H75 H 0.86792 0.28583 0.08503 0.0
H76 H 0.7436 0.21449 0.422 0.0
H77 H 0.75822 0.23956 0.37413 0.0
H78 H 0.71188 0.30618 0.40727 0.0
H79 H 0.69791 0.28134 0.45599 0.0
Dy80 Dy 0.77886 0.75438 0.30246 0.0
Dy81 Dy 0.77985 0.79832 0.2408 0.0
C82 C 0.84384 0.80742 0.30229 0.0
O83 O 0.75851 0.79107 0.32052 0.0
O84 O 0.77132 0.82794 0.28702 0.0
O85 O 0.79207 0.75839 0.36011 0.0
O86 O 0.76377 0.71307 0.32255 0.0
O87 O 0.72941 0.77532 0.24646 0.0
O88 O 0.73372 0.73052 0.25805 0.0
O89 O 0.79747 0.76047 0.2199 0.0
O90 O 0.79846 0.73026 0.26179 0.0
O91 O 0.75879 0.79349 0.18412 0.0
O92 O 0.79439 0.83792 0.21764 0.0
C93 C 0.76125 0.81855 0.3146 0.0
O94 O 0.83131 0.77859 0.30394 0.0
O95 O 0.82824 0.82037 0.28092 0.0
C96 C 0.80252 0.71462 0.37509 0.0
C97 C 0.84478 0.68714 0.40861 0.0
C98 C 0.85601 0.71939 0.41213 0.0
C99 C 0.83505 0.73309 0.39535 0.0
C100 C 0.79114 0.68253 0.37254 0.0
C101 C 0.81219 0.66883 0.38904 0.0
C102 C 0.78032 0.72826 0.35609 0.0
C103 C 0.71773 0.7452 0.24013 0.0
C104 C 0.80289 0.73685 0.23077 0.0
C105 C 0.75123 0.83884 0.1707 0.0
C106 C 0.70932 0.86886 0.14171 0.0
C107 C 0.70036 0.83642 0.1301 0.0
C108 C 0.72119 0.82151 0.14441 0.0
C109 C 0.76039 0.87134 0.18178 0.0
C110 C 0.73953 0.88621 0.16753 0.0
C111 C 0.773 0.82306 0.18622 0.0
H112 H 0.88129 0.73377 0.42678 0.0
H113 H 0.84456 0.75797 0.3978 0.0
H114 H 0.76612 0.66796 0.35725 0.0
H115 H 0.80318 0.64387 0.38618 0.0
H116 H 0.6773 0.82261 0.10994 0.0
H117 H 0.71364 0.79642 0.13498 0.0
H118 H 0.7835 0.8853 0.20175 0.0
H119 H 0.74674 0.91123 0.17731 0.0
Dy120 Dy 0.24328 0.78615 0.25843 0.0
Dy121 Dy 0.3104 0.76776 0.27419 0.0
C122 C 0.29927 0.81848 0.33148 0.0
O123 O 0.27943 0.82006 0.2358 0.0
O124 O 0.31945 0.79768 0.23362 0.0
O125 O 0.22422 0.82376 0.25794 0.0
O126 O 0.19016 0.77658 0.24855 0.0
O127 O 0.27782 0.73381 0.2236 0.0
O128 O 0.2376 0.75442 0.20509 0.0
O129 O 0.27947 0.74421 0.31022 0.0
O130 O 0.22809 0.74404 0.28233 0.0
O131 O 0.33305 0.73272 0.27873 0.0
O132 O 0.36383 0.78076 0.28645 0.0
C133 C 0.30635 0.81858 0.22551 0.0
O134 O 0.2675 0.80483 0.31768 0.0
O135 O 0.32075 0.81106 0.31556 0.0
C136 C 0.18134 0.81678 0.28786 0.0
C137 C 0.1583 0.84046 0.34654 0.0
C138 C 0.19137 0.84167 0.3521 0.0
C139 C 0.20278 0.83006 0.32304 0.0
C140 C 0.14795 0.81429 0.28247 0.0
C141 C 0.13647 0.8261 0.31162 0.0
C142 C 0.19429 0.80621 0.25707 0.0
C143 C 0.25274 0.73417 0.19942 0.0
C144 C 0.24672 0.73434 0.30547 0.0
C145 C 0.37546 0.74219 0.24866 0.0
C146 C 0.3929 0.71684 0.1864 0.0
C147 C 0.37246 0.73494 0.18368 0.0
C148 C 0.36377 0.74744 0.21455 0.0
C149 C 0.39661 0.72489 0.25175 0.0
C150 C 0.40534 0.71233 0.22082 0.0
C151 C 0.36219 0.75176 0.27939 0.0
H152 H 0.20893 0.85313 0.37843 0.0
H153 H 0.22874 0.83262 0.32794 0.0
H154 H 0.131 0.80397 0.25562 0.0
H155 H 0.11077 0.8248 0.30666 0.0
H156 H 0.36251 0.73874 0.15757 0.0
H157 H 0.3469 0.76024 0.21142 0.0
H158 H 0.40531 0.72014 0.27768 0.0
H159 H 0.42056 0.69784 0.22355 0.0
Dy160 Dy 0.31937 0.81366 0.76998 0.0
Dy161 Dy 0.25631 0.77939 0.79441 0.0
C162 C 0.31413 0.83283 0.84713 0.0
O163 O 0.33945 0.78847 0.80853 0.0
O164 O 0.28991 0.75062 0.80343 0.0
O165 O 0.35252 0.85882 0.7707 0.0
O166 O 0.36326 0.81722 0.75016 0.0
O167 O 0.24468 0.75769 0.73506 0.0
O168 O 0.29789 0.76833 0.72893 0.0
O169 O 0.24448 0.81834 0.77326 0.0
O170 O 0.27711 0.82137 0.73303 0.0
O171 O 0.21108 0.74148 0.78749 0.0
O172 O 0.22731 0.78182 0.83408 0.0
C173 C 0.32281 0.76129 0.81346 0.0
O174 O 0.31073 0.84209 0.81714 0.0
O175 O 0.29612 0.8045 0.84504 0.0
C176 C 0.36375 0.8529 0.71431 0.0
C177 C 0.34156 0.86903 0.65009 0.0
C178 C 0.36528 0.89171 0.68011 0.0
C179 C 0.37627 0.88367 0.71197 0.0
C180 C 0.34031 0.83006 0.68429 0.0
C181 C 0.32945 0.83806 0.65227 0.0
C182 C 0.36806 0.84631 0.75005 0.0
C183 C 0.26608 0.75303 0.71685 0.0
C184 C 0.25168 0.82651 0.74368 0.0
C185 C 0.21457 0.73248 0.84576 0.0
C186 C 0.21691 0.69103 0.88928 0.0
C187 C 0.22804 0.68759 0.85747 0.0
C188 C 0.22676 0.70822 0.83564 0.0
C189 C 0.20892 0.73882 0.88053 0.0
C190 C 0.2107 0.71834 0.90264 0.0
C191 C 0.2101 0.75217 0.82096 0.0
H192 H 0.37595 0.91567 0.6788 0.0
H193 H 0.39353 0.90165 0.73524 0.0
H194 H 0.32945 0.80622 0.68595 0.0
H195 H 0.31177 0.82016 0.62923 0.0
H196 H 0.23297 0.66665 0.84695 0.0
H197 H 0.23318 0.7038 0.80974 0.0
H198 H 0.20123 0.75839 0.88956 0.0
H199 H 0.20218 0.72129 0.92743 0.0
Dy200 Dy 0.30147 0.28628 0.74283 0.0
Dy201 Dy 0.26608 0.28143 0.80996 0.0
C202 C 0.23787 0.23274 0.73562 0.0
O203 O 0.25827 0.30395 0.72754 0.0
O204 O 0.25067 0.31787 0.78495 0.0
O205 O 0.29666 0.27321 0.68489 0.0
O206 O 0.34498 0.30038 0.72219 0.0
O207 O 0.31737 0.31449 0.82727 0.0
O208 O 0.31988 0.33414 0.77767 0.0
O209 O 0.29244 0.2457 0.81238 0.0
O210 O 0.33073 0.26542 0.78089 0.0
O211 O 0.27237 0.29814 0.86764 0.0
O212 O 0.22488 0.26565 0.83438 0.0
C213 C 0.24523 0.31888 0.75011 0.0
O214 O 0.26908 0.23828 0.73675 0.0
O215 O 0.22926 0.25019 0.75966 0.0
C216 C 0.34243 0.25974 0.67534 0.0
C217 C 0.36982 0.2151 0.65064 0.0
C218 C 0.35151 0.2109 0.67695 0.0
C219 C 0.33781 0.23307 0.68917 0.0
C220 C 0.36093 0.26417 0.64938 0.0
C221 C 0.37452 0.24192 0.63701 0.0
C222 C 0.32887 0.28326 0.68929 0.0
C223 C 0.32669 0.33801 0.81289 0.0
C224 C 0.32028 0.24688 0.80224 0.0
C225 C 0.22464 0.30737 0.88 0.0
C226 C 0.19363 0.34985 0.90314 0.0
C227 C 0.22837 0.3593 0.91071 0.0
C228 C 0.24373 0.33822 0.8996 0.0
C229 C 0.18986 0.29786 0.87287 0.0
C230 C 0.17449 0.31889 0.88441 0.0
C231 C 0.24085 0.28574 0.86562 0.0
H232 H 0.34743 0.19032 0.68764 0.0
H233 H 0.32366 0.22945 0.70945 0.0
H234 H 0.36495 0.28481 0.63885 0.0
H235 H 0.38893 0.24576 0.61699 0.0
H236 H 0.24367 0.3829 0.92569 0.0
H237 H 0.27058 0.34621 0.90631 0.0
H238 H 0.17453 0.27425 0.858 0.0
H239 H 0.14761 0.31108 0.87822 0.0
Dy240 Dy 0.75773 0.30038 0.771 0.0
Dy241 Dy 0.80991 0.26401 0.78112 0.0
C242 C 0.81466 0.31926 0.8454 0.0
O243 O 0.79043 0.31619 0.73452 0.0
O244 O 0.83559 0.3061 0.76301 0.0
O245 O 0.74599 0.34248 0.77358 0.0
O246 O 0.70673 0.29725 0.75429 0.0
O247 O 0.78546 0.25144 0.72176 0.0
O248 O 0.73635 0.25552 0.72885 0.0
O249 O 0.76427 0.2352 0.7945 0.0
O250 O 0.74485 0.2742 0.81292 0.0
O251 O 0.81822 0.22021 0.77289 0.0
O252 O 0.85967 0.26343 0.79766 0.0
C253 C 0.82207 0.31956 0.74031 0.0
O254 O 0.79654 0.3287 0.82189 0.0
O255 O 0.81925 0.29254 0.83734 0.0
C256 C 0.69884 0.33484 0.79606 0.0
C257 C 0.66874 0.34703 0.8525 0.0
C258 C 0.69706 0.33857 0.85935 0.0
C259 C 0.71202 0.33252 0.83126 0.0
C260 C 0.67018 0.34251 0.78881 0.0
C261 C 0.65522 0.34872 0.81697 0.0
C262 C 0.71422 0.3271 0.76692 0.0
C263 C 0.75341 0.24391 0.70939 0.0
C264 C 0.74512 0.24593 0.81179 0.0
C265 C 0.86671 0.2273 0.75152 0.0
C266 C 0.89707 0.21805 0.69397 0.0
C267 C 0.86317 0.20174 0.68937 0.0
C268 C 0.84812 0.20634 0.71781 0.0
C269 C 0.90042 0.2441 0.75585 0.0
C270 C 0.91546 0.2396 0.72726 0.0
C271 C 0.85038 0.23409 0.78069 0.0
H272 H 0.70797 0.33733 0.88652 0.0
H273 H 0.73409 0.3263 0.8371 0.0
H274 H 0.65966 0.34401 0.76163 0.0
H275 H 0.63383 0.35601 0.81127 0.0
H276 H 0.84856 0.18441 0.66431 0.0
H277 H 0.82194 0.1933 0.7133 0.0
H278 H 0.91513 0.26079 0.78133 0.0
H279 H 0.94166 0.2524 0.73146 0.0
Dy280 Dy 0.81106 0.79969 0.80556 0.0
Dy281 Dy 0.75251 0.75959 0.73612 0.0
C282 C 0.8186 0.73814 0.7498 0.0
O283 O 0.82918 0.82288 0.76338 0.0
O284 O 0.78369 0.79805 0.71459 0.0
O285 O 0.85924 0.80732 0.8397 0.0
O286 O 0.83127 0.8361 0.85582 0.0
O287 O 0.731 0.79531 0.76395 0.0
O288 O 0.77743 0.82974 0.80603 0.0
O289 O 0.74543 0.72982 0.77628 0.0
O290 O 0.77168 0.76925 0.82712 0.0
O291 O 0.70005 0.7347 0.71294 0.0
O292 O 0.73468 0.73621 0.67891 0.0
C293 C 0.81385 0.81867 0.72924 0.0
O294 O 0.83085 0.76142 0.77999 0.0
O295 O 0.78855 0.73299 0.72964 0.0
C296 C 0.85994 0.81935 0.90108 0.0
C297 C 0.87358 0.79766 0.96369 0.0
C298 C 0.84676 0.77918 0.93388 0.0
C299 C 0.83999 0.79 0.90292 0.0
C300 C 0.88496 0.83898 0.93165 0.0
C301 C 0.89162 0.82825 0.96302 0.0
C302 C 0.85652 0.82752 0.86594 0.0
C303 C 0.74536 0.82176 0.79003 0.0
C304 C 0.7505 0.74112 0.81136 0.0
C305 C 0.68465 0.7409 0.65378 0.0
C306 C 0.66251 0.77091 0.6027 0.0
C307 C 0.6699 0.78453 0.64027 0.0
C308 C 0.68088 0.76965 0.6656 0.0
C309 C 0.67578 0.72643 0.61641 0.0
C310 C 0.66469 0.74139 0.59088 0.0
C311 C 0.70364 0.72936 0.6797 0.0
H312 H 0.83273 0.75531 0.93298 0.0
H313 H 0.82069 0.77448 0.87943 0.0
H314 H 0.90039 0.86182 0.93059 0.0
H315 H 0.9122 0.84309 0.98577 0.0
H316 H 0.66906 0.80755 0.65015 0.0
H317 H 0.6883 0.78154 0.69432 0.0
H318 H 0.67912 0.70444 0.60697 0.0
H319 H 0.6589 0.73043 0.56201 0.0
Cd320 Cd 0.01577 0.98126 0.56089 0.0
Cd321 Cd 0.04049 0.07448 0.47025 0.0
C322 C 0.0791 0.97242 0.61629 0.0
N323 N 0.06045 0.96081 0.58105 0.0
C324 C 0.08595 0.92116 0.57378 0.0
C325 C 0.10515 0.93222 0.61044 0.0
C326 C 0.10141 0.95861 0.6314 0.0
C327 C 0.06371 0.93558 0.5598 0.0
H328 H 0.07582 0.99188 0.63336 0.0
H329 H 0.04831 0.92592 0.53215 0.0
C330 C 0.99644 0.99635 0.46927 0.0
C331 C 0.97723 0.0842 0.41516 0.0
C332 C 0.95597 0.09894 0.39988 0.0
C333 C 0.95461 0.12689 0.42006 0.0
C334 C 0.9747 0.13831 0.45632 0.0
C335 C 0.9956 0.12277 0.47059 0.0
N336 N 0.99685 0.09621 0.44997 0.0
H337 H 0.97877 0.06353 0.39859 0.0
H338 H 1.01184 0.13275 0.49781 0.0
C339 C 0.06296 0.01761 0.43843 0.0
N340 N 0.07374 0.0444 0.46511 0.0
C341 C 0.11529 0.0289 0.49832 0.0
C342 C 0.10199 0.99969 0.47347 0.0
C343 C 0.07652 0.99452 0.4424 0.0
C344 C 0.10059 0.0512 0.49348 0.0
H345 H 0.04226 0.01323 0.41547 0.0
H346 H 0.10939 0.07326 0.5134 0.0
C347 C 0.06076 0.05924 0.56125 0.0
C348 C 0.96711 0.94265 0.59304 0.0
N349 N 0.98827 0.01445 0.57519 0.0
C350 C 1.00002 0.03851 0.60546 0.0
C351 C 0.98724 0.06262 0.60717 0.0
C352 C 0.96198 0.06112 0.5778 0.0
C353 C 0.94852 0.03495 0.54835 0.0
C354 C 0.96227 0.01157 0.5476 0.0
C355 C 0.08747 0.1116 0.43521 0.0
O356 O 1.01209 1.00138 0.50239 0.0
O357 O 1.00087 0.01828 0.45211 0.0
O358 O 0.04239 0.05691 0.53018 0.0
O359 O 0.05543 0.0363 0.57672 0.0
O360 O 0.96411 0.93618 0.55846 0.0
O361 O 0.99222 0.96622 0.61179 0.0
O362 O 0.08945 0.1206 0.46937 0.0
O363 O 0.06413 0.08604 0.41806 0.0
H364 H 0.02077 0.04001 0.62689 0.0
H365 H 0.9535 0.99191 0.5241 0.0
H366 H 0.08777 0.9013 0.55587 0.0
H367 H 0.11468 0.96806 0.65988 0.0
H368 H 0.94089 0.08841 0.37218 0.0
H369 H 0.97541 0.15983 0.47333 0.0
H370 H 0.13569 0.03387 0.5219 0.0
H371 H 0.06668 0.97256 0.4219 0.0
H372 H 0.99753 0.08259 0.63049 0.0
H373 H 0.92859 0.03323 0.52574 0.0
Cd374 Cd 0.46048 0.02046 0.04849 0.0
Cd375 Cd 0.53636 0.04227 0.9239 0.0
C376 C 0.52807 0.02121 0.1026 0.0
N377 N 0.50031 1.00368 0.07593 0.0
C378 C 0.51919 0.96073 0.06756 0.0
C379 C 0.54991 0.97944 0.09142 0.0
C380 C 0.55393 0.00966 0.11042 0.0
C381 C 0.49462 0.97344 0.06026 0.0
H382 H 0.53029 0.04418 0.11688 0.0
H383 H 0.47121 0.95942 0.04131 0.0
C384 C 0.47744 0.99732 0.96605 0.0
C385 C 0.4751 0.06078 0.86539 0.0
C386 C 0.45577 0.0792 0.85461 0.0
C387 C 0.45572 0.10575 0.87946 0.0
C388 C 0.47561 0.11192 0.91531 0.0
C389 C 0.49442 0.09297 0.92495 0.0
N390 N 0.49428 0.06769 0.90031 0.0
H391 H 0.47524 0.04138 0.84525 0.0
H392 H 0.50987 0.09908 0.95248 0.0
C393 C 0.56445 0.99053 0.86407 0.0
N394 N 0.56663 1.00183 0.90044 0.0
C395 C 0.60622 0.97426 0.91411 0.0
C396 C 0.60484 0.96259 0.87683 0.0
C397 C 0.58308 0.97149 0.85201 0.0
C398 C 0.58764 0.99367 0.9251 0.0
H399 H 0.54851 0.99657 0.84369 0.0
H400 H 0.59069 1.00256 0.95399 0.0
C401 C 0.54064 0.06925 0.02758 0.0
C402 C 0.42024 0.97338 0.08265 0.0
N403 N 0.43857 0.05994 0.06806 0.0
C404 C 0.45724 0.08919 0.08872 0.0
C405 C 0.44186 0.10943 0.10336 0.0
C406 C 0.40696 0.09939 0.09709 0.0
C407 C 0.3885 0.06936 0.07476 0.0
C408 C 0.40481 0.05003 0.06063 0.0
C409 C 0.58416 0.09224 0.90807 0.0
O410 O 0.473 0.02023 0.98546 0.0
O411 O 0.49521 1.00065 0.94275 0.0
O412 O 0.53844 0.05979 0.99322 0.0
O413 O 0.51712 0.05703 0.04252 0.0
O414 O 0.41514 0.96855 0.04776 0.0
O415 O 0.44258 0.99926 0.10058 0.0
O416 O 0.58876 0.0876 0.94023 0.0
O417 O 0.55818 0.07345 0.88435 0.0
H418 H 0.48406 0.09646 0.0949 0.0
H419 H 0.39049 0.02657 0.04455 0.0
H420 H 0.51443 0.93673 0.05394 0.0
H421 H 0.57698 0.02446 0.12995 0.0
H422 H 0.4417 0.07297 0.82646 0.0
H423 H 0.47678 0.13137 0.93631 0.0
H424 H 0.62242 0.96908 0.93515 0.0
H425 H 0.58014 0.96356 0.82295 0.0
H426 H 0.45722 0.13221 0.12066 0.0
H427 H 0.36162 0.06062 0.06864 0.0
Cd428 Cd 0.98828 0.54658 0.1401 0.0
Cd429 Cd 1.01124 0.55817 0.03783 0.0
C430 C 0.05065 0.52303 0.14808 0.0
N431 N 0.02055 0.51614 0.1247 0.0
C432 C 0.03007 0.47602 0.08491 0.0
C433 C 0.06175 0.48304 0.10766 0.0
C434 C 0.07166 0.50669 0.14021 0.0
C435 C 1.00987 0.49251 0.09411 0.0
H436 H 0.05832 0.54116 0.17304 0.0
H437 H 0.98573 0.48584 0.0764 0.0
C438 C 0.94045 0.50454 0.04492 0.0
C439 C 0.95463 0.58527 0.01252 0.0
C440 C 0.93993 0.60783 0.01038 0.0
C441 C 0.95642 0.63808 0.03294 0.0
C442 C 0.98717 0.64482 0.05752 0.0
C443 C 1.00073 0.62148 0.05898 0.0
N444 N 0.98432 0.59258 0.03666 0.0
H445 H 0.94266 0.56208 0.99478 0.0
H446 H 0.02467 0.62648 0.07733 0.0
C447 C 0.02456 0.49424 0.0094 0.0
N448 N 0.04061 0.52506 0.02539 0.0
C449 C 0.092 0.52137 0.01568 0.0
C450 C 0.07631 0.48947 -0.00032 0.0
C451 C 0.04216 0.47576 0.99668 0.0
C452 C 0.07349 0.53882 0.02791 0.0
H453 H 0.99805 0.48414 0.00603 0.0
H454 H 0.08514 0.5637 0.0377 0.0
C455 C 0.04672 0.58791 0.12751 0.0
C456 C 0.97107 0.52701 0.20128 0.0
N457 N 0.97049 0.58642 0.1301 0.0
C458 C 0.9804 0.61189 0.15843 0.0
C459 C 0.96495 0.63397 0.15749 0.0
C460 C 0.93902 0.62955 0.12706 0.0
C461 C 0.931 0.60402 0.09724 0.0
C462 C 0.94686 0.5824 0.09955 0.0
C463 C 0.04281 0.58741 0.99199 0.0
O464 O 0.94782 0.51163 0.08002 0.0
O465 O 0.95936 0.51815 0.02672 0.0
O466 O 0.0234 0.57002 0.10097 0.0
O467 O 0.04207 0.58887 0.15906 0.0
O468 O 0.94924 0.52384 0.17274 0.0
O469 O 1.00009 0.54503 0.20378 0.0
O470 O 0.0525 0.59915 0.02641 0.0
O471 O 0.0171 0.56295 0.97928 0.0
H472 H 0.99864 0.61389 0.18278 0.0
H473 H 0.93921 0.56183 0.0776 0.0
H474 H 0.02036 0.45809 0.05975 0.0
H475 H 0.09492 0.51228 0.16008 0.0
H476 H 0.91601 0.60169 0.99135 0.0
H477 H 1.00097 0.66798 0.07482 0.0
H478 H 0.11797 0.53301 0.01716 0.0
H479 H 0.02918 0.45116 0.98425 0.0
H480 H 0.97149 0.65278 0.18161 0.0
H481 H 0.91157 0.59993 0.07303 0.0
Cd482 Cd 0.52088 0.48799 0.06808 0.0
Cd483 Cd 0.54263 0.5853 0.97824 0.0
C484 C 0.58503 0.47823 0.12276 0.0
N485 N 0.5643 0.46582 0.08851 0.0
C486 C 0.58476 0.42257 0.08228 0.0
C487 C 0.60615 0.43451 0.11784 0.0
C488 C 0.60609 0.46315 0.13776 0.0
C489 C 0.56412 0.43844 0.06828 0.0
H490 H 0.58442 0.4994 0.13923 0.0
H491 H 0.54715 0.42822 0.04148 0.0
C492 C 0.49837 0.50746 0.98274 0.0
C493 C 0.47544 0.5937 0.92824 0.0
C494 C 0.45414 0.6088 0.91396 0.0
C495 C 0.45718 0.6391 0.93227 0.0
C496 C 0.48152 0.65259 0.96584 0.0
C497 C 0.5023 0.63665 0.97917 0.0
N498 N 0.49934 0.60776 0.96023 0.0
H499 H 0.47355 0.57105 0.91295 0.0
H500 H 0.5218 0.64805 0.00406 0.0
C501 C 0.55021 0.52765 0.92301 0.0
N502 N 0.56353 0.54975 0.95507 0.0
C503 C 0.60259 0.52641 0.97559 0.0
C504 C 0.58841 0.50245 0.94374 0.0
C505 C 0.56265 0.50345 0.91659 0.0
C506 C 0.58977 0.5502 0.98058 0.0
H507 H 0.52901 0.52797 0.90361 0.0
H508 H 0.59962 0.56836 0.00565 0.0
C509 C 0.56237 0.56732 0.06829 0.0
C510 C 0.47562 0.45 0.10379 0.0
N511 N 0.48417 0.51406 0.07524 0.0
C512 C 0.49404 0.54148 0.10074 0.0
C513 C 0.47445 0.56012 0.10007 0.0
C514 C 0.4444 0.54999 0.07333 0.0
C515 C 0.43337 0.52057 0.04932 0.0
C516 C 0.4537 0.50252 0.0513 0.0
C517 C 0.59174 0.62245 0.94589 0.0
O518 O 0.52092 0.50504 0.00749 0.0
O519 O 0.50317 0.53152 0.96927 0.0
O520 O 0.54646 0.56262 0.03534 0.0
O521 O 0.55842 0.54515 0.08511 0.0
O522 O 0.47303 0.44107 0.06943 0.0
O523 O 0.49895 0.47566 0.12073 0.0
O524 O 0.59719 0.62632 0.98061 0.0
O525 O 0.56405 0.6021 0.92709 0.0
H526 H 0.51756 0.54937 0.12087 0.0
H527 H 0.44562 0.47965 0.03315 0.0
H528 H 0.58371 0.40095 0.0652 0.0
H529 H 0.62129 0.47345 0.16544 0.0
H530 H 0.43566 0.59679 0.88841 0.0
H531 H 0.48555 0.67588 0.98116 0.0
H532 H 0.6228 0.5263 0.99665 0.0
H533 H 0.55141 0.48505 0.8917 0.0
H534 H 0.48297 0.58254 0.1196 0.0
H535 H 0.40969 0.51191 0.0292 0.0
Cd536 Cd 0.0243 0.5151 0.61263 0.0
Cd537 Cd 0.09914 0.54131 0.49667 0.0
C538 C 0.07618 0.49034 0.6738 0.0
N539 N 0.06353 0.48722 0.63739 0.0
C540 C 0.08933 0.44798 0.62366 0.0
C541 C 0.10265 0.45045 0.66105 0.0
C542 C 0.09552 0.47244 0.68601 0.0
C543 C 0.07007 0.46623 0.61261 0.0
H544 H 0.07101 0.50653 0.69384 0.0
H545 H 0.05982 0.46307 0.58376 0.0
C546 C 0.01929 0.49251 0.50824 0.0
C547 C 0.03379 0.54994 0.45172 0.0
C548 C 1.00937 0.56349 0.44751 0.0
C549 C 1.01219 0.5892 0.47476 0.0
C550 C 0.03909 0.6011 0.50545 0.0
C551 C 0.0626 0.58665 0.50872 0.0
N552 N 0.05931 0.56159 0.48225 0.0
H553 H 0.03214 0.52987 0.4313 0.0
H554 H 0.08347 0.59516 0.53248 0.0
C555 C 0.10208 0.47626 0.44782 0.0
N556 N 0.12079 0.50165 0.47562 0.0
C557 C 0.16963 0.48845 0.47245 0.0
C558 C 0.15123 0.46247 0.44297 0.0
C559 C 0.11678 0.45625 0.43124 0.0
C560 C 0.15394 0.50778 0.48825 0.0
H561 H 0.07596 0.47221 0.43742 0.0
H562 H 0.16854 0.52845 0.50979 0.0
C563 C 0.09831 0.55912 0.59334 0.0
C564 C 0.97726 0.46723 0.6325 0.0
N565 N 0.99451 0.55637 0.63468 0.0
C566 C 0.99196 0.56282 0.67023 0.0
C567 C 0.97375 0.58207 0.6827 0.0
C568 C 0.9567 0.59596 0.6592 0.0
C569 C 0.95997 0.58894 0.62264 0.0
C570 C 0.97841 0.56948 0.61119 0.0
C571 C 0.1345 0.58653 0.45691 0.0
O572 O 0.0247 0.5024 0.54313 0.0
O573 O 0.04129 0.50248 0.49065 0.0
O574 O 0.08867 0.54283 0.56045 0.0
O575 O 0.08018 0.55334 0.61598 0.0
O576 O 0.97509 0.46683 0.5987 0.0
O577 O 1.00083 0.48954 0.65569 0.0
O578 O 0.14119 0.5929 0.49194 0.0
O579 O 0.1123 0.56001 0.44096 0.0
H580 H 1.00378 0.55265 0.68957 0.0
H581 H 0.97911 0.56454 0.58278 0.0
H582 H 0.09298 0.43142 0.60265 0.0
H583 H 0.10501 0.47617 0.71512 0.0
H584 H 0.98871 0.55423 0.42343 0.0
H585 H 0.04169 0.62114 0.52657 0.0
H586 H 0.19609 0.49416 0.48294 0.0
H587 H 0.10148 0.43689 0.40836 0.0
H588 H 0.97338 0.58601 0.7112 0.0
H589 H 0.94769 0.59782 0.60217 0.0
Cd590 Cd 0.54064 0.99821 0.51132 0.0
Cd591 Cd 0.57487 0.01358 0.41982 0.0
C592 C 0.60012 0.97284 0.53668 0.0
N593 N 0.5726 0.96773 0.51008 0.0
C594 C 0.57887 0.92286 0.47609 0.0
C595 C 0.60733 0.92689 0.5031 0.0
C596 C 0.61778 0.9524 0.53394 0.0
C597 C 0.56154 0.94319 0.48053 0.0
H598 H 0.60786 0.99231 0.5603 0.0
H599 H 0.53923 0.93939 0.46011 0.0
C600 C 0.50274 0.97002 0.41393 0.0
C601 C 0.51439 0.03527 0.40304 0.0
C602 C 0.49267 0.05155 0.4038 0.0
C603 C 0.49883 0.07592 0.43409 0.0
C604 C 0.52563 0.0822 0.46407 0.0
C605 C 0.54637 0.06462 0.46249 0.0
N606 N 0.54044 0.0416 0.43219 0.0
H607 H 0.51112 0.01836 0.37825 0.0
H608 H 0.56766 0.07049 0.48488 0.0
C609 C 0.58325 0.94864 0.4017 0.0
N610 N 0.59711 0.97631 0.42701 0.0
C611 C 0.64652 0.96556 0.44677 0.0
C612 C 0.63358 0.93774 0.41933 0.0
C613 C 0.60096 0.92854 0.39785 0.0
C614 C 0.62767 0.98478 0.45006 0.0
H615 H 0.55946 0.94305 0.38287 0.0
H616 H 0.63853 0.00743 0.46897 0.0
C617 C 0.61544 0.05306 0.51499 0.0
C618 C 0.49384 0.96523 0.54187 0.0
N619 N 0.52057 0.03816 0.5257 0.0
C620 C 0.53787 0.06483 0.55209 0.0
C621 C 0.52146 0.08442 0.56509 0.0
C622 C 0.48698 0.07612 0.55104 0.0
C623 C 0.47016 0.04882 0.52311 0.0
C624 C 0.48746 0.02994 0.51125 0.0
C625 C 0.59343 0.03783 0.36142 0.0
O626 O 0.51586 0.9798 0.4478 0.0
O627 O 0.5213 0.97241 0.39221 0.0
O628 O 0.61147 0.04774 0.48036 0.0
O629 O 0.59386 0.038 0.52941 0.0
O630 O 0.49228 0.95871 0.50801 0.0
O631 O 0.52064 0.98488 0.56349 0.0
O632 O 0.6141 0.0434 0.39174 0.0
O633 O 0.56579 0.01663 0.35645 0.0
H634 H 0.56391 0.07012 0.56439 0.0
H635 H 0.47418 0.00773 0.49206 0.0
H636 H 0.56968 0.90436 0.45141 0.0
H637 H 0.63857 0.95621 0.55653 0.0
H638 H 0.47222 0.04615 0.38012 0.0
H639 H 0.53146 0.10141 0.48761 0.0
H640 H 0.67176 0.97356 0.46348 0.0
H641 H 0.59008 0.90697 0.37673 0.0
H642 H 0.53532 0.10495 0.58711 0.0
H643 H 0.44373 0.04163 0.51111 0.0
C644 C 0.18546 0.21851 0.31636 0.0
C645 C 0.21794 0.21835 0.31796 0.0
C646 C 0.16479 0.20124 0.33549 0.0
C647 C 0.17625 0.18255 0.35655 0.0
C648 C 0.20877 0.18177 0.35767 0.0
C649 C 0.22921 0.19981 0.33884 0.0
C650 C 0.13071 0.20343 0.3336 0.0
C651 C 0.22206 0.16178 0.37882 0.0
C652 C 0.13409 0.15973 0.43291 0.0
C653 C 0.11093 0.12974 0.41574 0.0
C654 C 0.15544 0.17696 0.41421 0.0
C655 C 0.15423 0.16401 0.37732 0.0
C656 C 0.13124 0.13355 0.36007 0.0
C657 C 0.10995 0.11704 0.37923 0.0
C658 C 0.17906 0.20936 0.43384 0.0
C659 C 0.12894 0.11834 0.32111 0.0
H660 H 0.17628 0.23279 0.30068 0.0
H661 H 0.25409 0.19926 0.34039 0.0
H662 H 0.11141 0.18 0.32208 0.0
H663 H 0.12843 0.21205 0.36153 0.0
H664 H 0.12549 0.21925 0.31657 0.0
H665 H 0.24734 0.16288 0.37627 0.0
H666 H 0.22301 0.16938 0.40817 0.0
H667 H 0.20514 0.13716 0.36892 0.0
H668 H 0.13528 0.17 0.46097 0.0
H669 H 0.0924 0.09393 0.36543 0.0
H670 H 0.17366 0.22643 0.41897 0.0
H671 H 0.205 0.21082 0.43425 0.0
H672 H 0.1773 0.21623 0.46241 0.0
H673 H 0.12056 0.13176 0.30251 0.0
H674 H 0.11138 0.09391 0.31221 0.0
H675 H 0.1538 0.11846 0.31803 0.0
C676 C 0.81824 0.19736 0.32497 0.0
C677 C 0.83349 0.22701 0.3196 0.0
C678 C 0.83719 0.18084 0.34117 0.0
C679 C 0.87241 0.19452 0.35379 0.0
C680 C 0.88775 0.22487 0.34931 0.0
C681 C 0.86834 0.24033 0.33182 0.0
C682 C 0.81947 0.14835 0.3441 0.0
C683 C 0.92484 0.24117 0.36308 0.0
C684 C 0.9195 0.16246 0.4245 0.0
C685 C 0.93326 0.14419 0.40315 0.0
C686 C 0.89994 0.17881 0.40903 0.0
C687 C 0.89322 0.17698 0.37089 0.0
C688 C 0.90692 0.15863 0.34916 0.0
C689 C 0.92667 0.14281 0.36536 0.0
C690 C 0.88655 0.19827 0.43373 0.0
C691 C 0.90078 0.15573 0.3085 0.0
H692 H 0.79146 0.18662 0.31547 0.0
H693 H 0.88054 0.26328 0.32818 0.0
H694 H 0.82919 0.13168 0.32932 0.0
H695 H 0.82432 0.14726 0.37313 0.0
H696 H 0.79218 0.14067 0.33263 0.0
H697 H 0.93287 0.26535 0.35955 0.0
H698 H 0.93286 0.24201 0.3925 0.0
H699 H 0.93788 0.22795 0.34825 0.0
H700 H 0.92365 0.16382 0.45351 0.0
H701 H 0.93741 0.12967 0.34816 0.0
H702 H 0.85902 0.18966 0.42498 0.0
H703 H 0.8954 0.22279 0.43156 0.0
H704 H 0.89424 0.19785 0.46281 0.0
H705 H 0.87367 0.14704 0.29575 0.0
H706 H 0.91193 0.13971 0.29496 0.0
H707 H 0.91138 0.17896 0.30316 0.0
C708 C 0.85387 0.84595 0.35809 0.0
C709 C 0.86659 0.8282 0.33533 0.0
C710 C 0.87482 0.86859 0.38866 0.0
C711 C 0.9091 0.87366 0.39547 0.0
C712 C 0.92135 0.85289 0.37552 0.0
C713 C 0.89958 0.82999 0.34505 0.0
C714 C 0.86086 0.88949 0.41067 0.0
C715 C 0.95781 0.8571 0.38405 0.0
C716 C 0.95857 0.95821 0.41362 0.0
C717 C 0.97281 0.96535 0.45104 0.0
C718 C 0.9382 0.928 0.39519 0.0
C719 C 0.93185 0.90476 0.41504 0.0
C720 C 0.94579 0.91183 0.45292 0.0
C721 C 0.96637 0.94224 0.47052 0.0
C722 C 0.92341 0.92109 0.3545 0.0
C723 C 0.93873 0.88797 0.47528 0.0
H724 H 0.82774 0.84309 0.35103 0.0
H725 H 0.90858 0.81494 0.32786 0.0
H726 H 0.87296 0.89499 0.44024 0.0
H727 H 0.86584 0.91177 0.40216 0.0
H728 H 0.83355 0.87868 0.40642 0.0
H729 H 0.96228 0.83599 0.3708 0.0
H730 H 0.97137 0.87704 0.37402 0.0
H731 H 0.96822 0.86254 0.41402 0.0
H732 H 0.96382 0.97605 0.39854 0.0
H733 H 0.97767 0.94778 0.49946 0.0
H734 H 0.89592 0.91364 0.34878 0.0
H735 H 0.92975 0.90177 0.33976 0.0
H736 H 0.93235 0.94164 0.34317 0.0
H737 H 0.91921 0.89085 0.4891 0.0
H738 H 0.96128 0.89174 0.4969 0.0
H739 H 0.93003 0.86364 0.45856 0.0
C740 C 0.1316 0.87825 0.36695 0.0
C741 C 0.14817 0.85799 0.3757 0.0
C742 C 0.12586 0.89863 0.39422 0.0
C743 C 0.13691 0.89871 0.43138 0.0
C744 C 0.1524 0.87738 0.44047 0.0
C745 C 0.15795 0.85722 0.41239 0.0
C746 C 0.10908 0.92096 0.38308 0.0
C747 C 0.16306 0.87576 0.47956 0.0
C748 C 0.14816 0.97888 0.47881 0.0
C749 C 0.11497 0.97459 0.47838 0.0
C750 C 0.15789 0.95303 0.46964 0.0
C751 C 0.13359 0.92278 0.45982 0.0
C752 C 0.10202 0.91863 0.46678 0.0
C753 C 0.09277 0.9448 0.47543 0.0
C754 C 0.1925 0.95837 0.46457 0.0
C755 C 0.07632 0.88666 0.45934 0.0
H756 H 0.12451 0.87928 0.33875 0.0
H757 H 0.17044 0.84122 0.41913 0.0
H758 H 0.08605 0.91743 0.39273 0.0
H759 H 0.12574 0.94538 0.39575 0.0
H760 H 0.10233 0.91786 0.35299 0.0
H761 H 0.18149 0.86371 0.48288 0.0
H762 H 0.17382 0.89929 0.49852 0.0
H763 H 0.14097 0.86254 0.48789 0.0
H764 H 0.16546 1.00212 0.48202 0.0
H765 H 0.06728 0.94178 0.47633 0.0
H766 H 0.19192 0.95713 0.4353 0.0
H767 H 0.20202 0.94023 0.4725 0.0
H768 H 0.21001 0.98167 0.48091 0.0
H769 H 0.064 0.87833 0.42967 0.0
H770 H 0.05693 0.88703 0.47444 0.0
H771 H 0.08804 0.86982 0.46715 0.0
C772 C 0.20213 0.84482 0.73203 0.0
C773 C 0.23051 0.84116 0.72205 0.0
C774 C 0.18199 0.85851 0.71233 0.0
C775 C 0.19001 0.86918 0.6815 0.0
C776 C 0.2184 0.86518 0.67094 0.0
C777 C 0.23811 0.85131 0.69113 0.0
C778 C 0.1521 0.86185 0.72486 0.0
C779 C 0.22821 0.8758 0.63834 0.0
C780 C 0.12076 0.88366 0.61548 0.0
C781 C 0.12795 0.9161 0.62712 0.0
C782 C 0.14098 0.86832 0.63201 0.0
C783 C 0.16937 0.88542 0.66145 0.0
C784 C 0.17718 0.91815 0.67283 0.0
C785 C 0.15673 0.93293 0.65566 0.0
C786 C 0.13146 0.83352 0.61833 0.0
C787 C 0.20708 0.9377 0.70377 0.0
H788 H 0.19553 0.83699 0.75552 0.0
H789 H 0.2597 0.84859 0.68271 0.0
H790 H 0.15492 0.88686 0.73254 0.0
H791 H 0.12934 0.8501 0.70221 0.0
H792 H 0.14854 0.8518 0.74865 0.0
H793 H 0.25021 0.87027 0.63281 0.0
H794 H 0.20718 0.86457 0.61367 0.0
H795 H 0.234 0.90134 0.64301 0.0
H796 H 0.09871 0.86986 0.59393 0.0
H797 H 0.16356 0.95795 0.66478 0.0
H798 H 0.12454 0.82193 0.6401 0.0
H799 H 0.15292 0.8277 0.61163 0.0
H800 H 0.11023 0.82376 0.59369 0.0
H801 H 0.2043 0.93008 0.7292 0.0
H802 H 0.2106 0.96292 0.70889 0.0
H803 H 0.22985 0.93436 0.69763 0.0
C804 C 0.22368 0.19845 0.67382 0.0
C805 C 0.21321 0.21093 0.70359 0.0
C806 C 0.20063 0.17745 0.64295 0.0
C807 C 0.16666 0.16849 0.64251 0.0
C808 C 0.15578 0.18255 0.67136 0.0
C809 C 0.17938 0.2038 0.70176 0.0
C810 C 0.21279 0.16309 0.61222 0.0
C811 C 0.11948 0.17317 0.67157 0.0
C812 C 0.09553 0.11374 0.56585 0.0
C813 C 0.09075 0.08625 0.57776 0.0
C814 C 0.12227 0.14068 0.585 0.0
C815 C 0.14352 0.13976 0.61696 0.0
C816 C 0.14001 0.11154 0.62756 0.0
C817 C 0.11378 0.08497 0.60746 0.0
C818 C 0.12643 0.17036 0.57246 0.0
C819 C 0.16223 0.1098 0.66179 0.0
H820 H 0.24992 0.20461 0.67477 0.0
H821 H 0.17136 0.21399 0.72452 0.0
H822 H 0.21235 0.13949 0.61455 0.0
H823 H 0.19638 0.16047 0.58527 0.0
H824 H 0.23864 0.17722 0.61306 0.0
H825 H 0.11496 0.18908 0.69369 0.0
H826 H 0.10415 0.17291 0.64501 0.0
H827 H 0.11089 0.14922 0.67565 0.0
H828 H 0.07785 0.11449 0.54248 0.0
H829 H 0.11049 0.06351 0.61622 0.0
H830 H 0.15308 0.18375 0.57608 0.0
H831 H 0.11611 0.18525 0.58918 0.0
H832 H 0.11318 0.16557 0.54332 0.0
H833 H 0.18873 0.11967 0.66166 0.0
H834 H 0.15706 0.08553 0.66476 0.0
H835 H 0.15849 0.12378 0.68619 0.0
C836 C 0.89867 0.20081 0.62907 0.0
C837 C 0.91393 0.20828 0.66654 0.0
C838 C 0.90858 0.18212 0.60386 0.0
C839 C 0.93354 0.1703 0.61692 0.0
C840 C 0.95202 0.18144 0.6539 0.0
C841 C 0.94204 0.20054 0.67829 0.0
C842 C 0.88977 0.17225 0.56418 0.0
C843 C 0.97914 0.16964 0.66901 0.0
C844 C 0.92167 0.08568 0.59145 0.0
C845 C 0.94971 0.08701 0.57845 0.0
C846 C 0.91377 0.11254 0.60045 0.0
C847 C 0.93452 0.141 0.59584 0.0
C848 C 0.96046 0.14137 0.57838 0.0
C849 C 0.96824 0.11423 0.57042 0.0
C850 C 0.88544 0.11099 0.61847 0.0
C851 C 0.98162 0.17085 0.57097 0.0
H852 H 0.87741 0.20754 0.61985 0.0
H853 H 0.95397 0.20637 0.70721 0.0
H854 H 0.90524 0.16647 0.54595 0.0
H855 H 0.86754 0.15125 0.55976 0.0
H856 H 0.88106 0.19088 0.55627 0.0
H857 H 0.99331 0.18319 0.69725 0.0
H858 H 0.96792 0.14488 0.66952 0.0
H859 H 0.99682 0.17077 0.65149 0.0
H860 H 0.90745 0.06422 0.59712 0.0
H861 H 0.98971 0.11466 0.55973 0.0
H862 H 0.86857 0.12156 0.60473 0.0
H863 H 0.89537 0.12439 0.64746 0.0
H864 H 0.87062 0.08667 0.61774 0.0
H865 H 0.96634 0.18483 0.56234 0.0
H866 H 0.99451 0.16568 0.5495 0.0
H867 H 1.00079 0.18531 0.59628 0.0
C868 C 0.85981 0.82757 0.69715 0.0
C869 C 0.8331 0.8356 0.70594 0.0
C870 C 0.88009 0.84413 0.67725 0.0
C871 C 0.8743 0.87014 0.6664 0.0
C872 C 0.84722 0.87832 0.67527 0.0
C873 C 0.82684 0.86085 0.6946 0.0
C874 C 0.90811 0.83399 0.66827 0.0
C875 C 0.84021 0.90602 0.66503 0.0
C876 C 0.94865 0.93133 0.64959 0.0
C877 C 0.94279 0.92405 0.61123 0.0
C878 C 0.92656 0.91438 0.66762 0.0
C879 C 0.89738 0.88927 0.64713 0.0
C880 C 0.89109 0.88193 0.60836 0.0
C881 C 0.91374 0.89925 0.59097 0.0
C882 C 0.93471 0.92329 0.70885 0.0
C883 C 0.86046 0.85551 0.58519 0.0
H884 H 0.86493 0.8082 0.70604 0.0
H885 H 0.80655 0.86748 0.70173 0.0
H886 H 0.90591 0.82971 0.63841 0.0
H887 H 0.93227 0.8528 0.68197 0.0
H888 H 0.90842 0.81246 0.67697 0.0
H889 H 0.81803 0.90914 0.67321 0.0
H890 H 0.86198 0.92752 0.6784 0.0
H891 H 0.83622 0.9033 0.63509 0.0
H892 H 0.97082 0.95035 0.66579 0.0
H893 H 0.90867 0.89331 0.56141 0.0
H894 H 0.9379 0.90348 0.71972 0.0
H895 H 0.91388 0.92854 0.71811 0.0
H896 H 0.95776 0.9439 0.7209 0.0
H897 H 0.86078 0.83329 0.59191 0.0
H898 H 0.85854 0.85301 0.55548 0.0
H899 H 0.83787 0.85932 0.59128 0.0
C900 C 0.3008 0.20078 0.1759 0.0
C901 C 0.31462 0.21407 0.21357 0.0
C902 C 0.31485 0.18228 0.15532 0.0
C903 C 0.34324 0.17651 0.17276 0.0
C904 C 0.35694 0.18948 0.21081 0.0
C905 C 0.34265 0.20813 0.2306 0.0
C906 C 0.29961 0.16926 0.11478 0.0
C907 C 0.38693 0.18381 0.23074 0.0
C908 C 0.36315 0.1058 0.12959 0.0
C909 C 0.3899 0.11925 0.1151 0.0
C910 C 0.34743 0.124 0.14769 0.0
C911 C 0.35849 0.15665 0.15151 0.0
C912 C 0.385 0.17036 0.1363 0.0
C913 C 0.40045 0.15159 0.11851 0.0
C914 C 0.31942 0.10831 0.16351 0.0
C915 C 0.39722 0.20495 0.13906 0.0
H916 H 0.27941 0.20543 0.16224 0.0
H917 H 0.35364 0.21822 0.25959 0.0
H918 H 0.31838 0.17765 0.09945 0.0
H919 H 0.29167 0.14346 0.10796 0.0
H920 H 0.27779 0.17604 0.10518 0.0
H921 H 0.39423 0.19502 0.26047 0.0
H922 H 0.38172 0.15841 0.22706 0.0
H923 H 0.40831 0.193 0.21907 0.0
H924 H 0.35496 0.08097 0.12766 0.0
H925 H 0.42072 0.16225 0.10703 0.0
H926 H 0.29692 0.11365 0.1527 0.0
H927 H 0.32653 0.11746 0.19364 0.0
H928 H 0.31296 0.0826 0.1572 0.0
H929 H 0.3763 0.21216 0.12744 0.0
H930 H 0.41706 0.21188 0.12451 0.0
H931 H 0.4071 0.21794 0.16818 0.0
C932 C 0.87247 0.3745 0.10353 0.0
C933 C 0.87498 0.34722 0.11234 0.0
C934 C 0.89476 0.40366 0.12448 0.0
C935 C 0.91899 0.40525 0.15573 0.0
C936 C 0.92311 0.37771 0.16294 0.0
C937 C 0.90191 0.34911 0.14019 0.0
C938 C 0.89055 0.43259 0.11472 0.0
C939 C 0.94739 0.37735 0.19633 0.0
C940 C 0.98694 0.48212 0.2014 0.0
C941 C 0.96772 0.49891 0.21436 0.0
C942 C 0.97152 0.45103 0.18195 0.0
C943 C 0.93818 0.43556 0.18185 0.0
C944 C 0.9222 0.45058 0.20424 0.0
C945 C 0.93681 0.48272 0.21933 0.0
C946 C 0.98946 0.43631 0.15803 0.0
C947 C 0.8884 0.43381 0.20923 0.0
H948 H 0.85158 0.37309 0.08223 0.0
H949 H 0.90395 0.32816 0.1476 0.0
H950 H 0.91501 0.45118 0.11955 0.0
H951 H 0.87661 0.42756 0.08582 0.0
H952 H 0.87612 0.44168 0.13197 0.0
H953 H 0.93412 0.36116 0.21121 0.0
H954 H 0.96615 0.36809 0.18746 0.0
H955 H 0.96046 0.40044 0.2158 0.0
H956 H 1.01159 0.49465 0.19907 0.0
H957 H 0.92233 0.49558 0.23056 0.0
H958 H 0.97436 0.4279 0.12926 0.0
H959 H 0.99313 0.41596 0.1671 0.0
H960 H 0.01421 0.4528 0.15872 0.0
H961 H 0.86894 0.43771 0.18958 0.0
H962 H 0.88652 0.44328 0.23711 0.0
H963 H 0.88317 0.40836 0.205 0.0
C964 C 0.65285 0.8723 0.1268 0.0
C965 C 0.68671 0.88464 0.12821 0.0
C966 C 0.63168 0.88864 0.11764 0.0
C967 C 0.64496 0.91796 0.11003 0.0
C968 C 0.67878 0.92991 0.10984 0.0
C969 C 0.69934 0.91299 0.1189 0.0
C970 C 0.59549 0.87517 0.11761 0.0
C971 C 0.69345 0.96103 0.10145 0.0
C972 C 0.58182 0.94886 0.06526 0.0
C973 C 0.57722 0.96697 0.09587 0.0
C974 C 0.60473 0.93348 0.06924 0.0
C975 C 0.62376 0.9369 0.1046 0.0
C976 C 0.62078 0.95671 0.13534 0.0
C977 C 0.59728 0.97145 0.13061 0.0
C978 C 0.60726 0.91238 0.03593 0.0
C979 C 0.64116 0.96107 0.17342 0.0
H980 H 0.64315 0.85048 0.13428 0.0
H981 H 0.72546 0.9222 0.11939 0.0
H982 H 0.58998 0.89023 0.13966 0.0
H983 H 0.57937 0.87455 0.09134 0.0
H984 H 0.58876 0.8512 0.12183 0.0
H985 H 0.71969 0.96592 0.1 0.0
H986 H 0.67869 0.96186 0.0751 0.0
H987 H 0.69248 0.97988 0.12296 0.0
H988 H 0.56682 0.94603 0.0382 0.0
H989 H 0.59365 0.98536 0.15425 0.0
H990 H 0.5966 0.88773 0.03705 0.0
H991 H 0.63362 0.91691 0.03538 0.0
H992 H 0.5937 0.91529 0.01008 0.0
H993 H 0.63354 0.93888 0.18196 0.0
H994 H 0.63807 0.97952 0.19374 0.0
H995 H 0.6679 0.96727 0.17387 0.0
C996 C 0.22052 0.70307 0.13606 0.0
C997 C 0.23412 0.70474 0.1726 0.0
C998 C 0.19433 0.67616 0.11487 0.0
C999 C 0.17984 0.65302 0.13231 0.0
C1000 C 0.19674 0.65286 0.16741 0.0
C1001 C 0.2246 0.6785 0.18663 0.0
C1002 C 0.17944 0.67422 0.07555 0.0
C1003 C 0.18226 0.6289 0.18758 0.0
C1004 C 0.09079 0.63727 0.1331 0.0
C1005 C 0.07854 0.60495 0.12222 0.0
C1006 C 0.12334 0.65368 0.13302 0.0
C1007 C 0.14362 0.63694 0.12131 0.0
C1008 C 0.13025 0.60422 0.10776 0.0
C1009 C 0.09784 0.5885 0.10925 0.0
C1010 C 0.13665 0.6886 0.14865 0.0
C1011 C 0.15024 0.58576 0.09278 0.0
H1012 H 0.2289 0.72308 0.12484 0.0
H1013 H 0.23579 0.67983 0.21481 0.0
H1014 H 0.16621 0.64958 0.05999 0.0
H1015 H 0.16137 0.68667 0.074 0.0
H1016 H 0.19906 0.68542 0.06247 0.0
H1017 H 0.19957 0.63159 0.21401 0.0
H1018 H 0.159 0.63134 0.19337 0.0
H1019 H 0.17601 0.60497 0.17081 0.0
H1020 H 0.07535 0.64954 0.1432 0.0
H1021 H 0.08798 0.56325 0.10175 0.0
H1022 H 0.14512 0.70065 0.12785 0.0
H1023 H 0.15825 0.69513 0.17248 0.0
H1024 H 0.1177 0.6975 0.15769 0.0
H1025 H 0.15057 0.58816 0.06459 0.0
H1026 H 0.13926 0.56059 0.09174 0.0
H1027 H 0.17646 0.59455 0.10889 0.0
C1028 C 0.3523 0.83669 0.90635 0.0
C1029 C 0.34588 0.84736 0.87474 0.0
C1030 C 0.3825 0.8518 0.93292 0.0
C1031 C 0.40611 0.87804 0.92749 0.0
C1032 C 0.40157 0.88545 0.89298 0.0
C1033 C 0.37115 0.87059 0.86762 0.0
C1034 C 0.3878 0.84091 0.96755 0.0
C1035 C 0.42686 0.91158 0.88385 0.0
C1036 C 0.43085 0.95735 0.97607 0.0
C1037 C 0.46315 0.96648 0.97168 0.0
C1038 C 0.41289 0.92588 0.97091 0.0
C1039 C 0.42748 0.90371 0.95908 0.0
C1040 C 0.4622 0.91328 0.96356 0.0
C1041 C 0.47977 0.94499 0.96853 0.0
C1042 C 0.3765 0.91645 0.97062 0.0
C1043 C 0.47946 0.89004 0.95668 0.0
H1044 H 0.33343 0.81742 0.91102 0.0
H1045 H 0.36698 0.87799 0.84249 0.0
H1046 H 0.41352 0.85259 0.985 0.0
H1047 H 0.37005 0.84529 0.98337 0.0
H1048 H 0.38241 0.81534 0.9606 0.0
H1049 H 0.42123 0.91063 0.85416 0.0
H1050 H 0.42687 0.93437 0.89853 0.0
H1051 H 0.45212 0.91051 0.89177 0.0
H1052 H 0.41855 0.97436 0.9799 0.0
H1053 H 0.50556 0.95254 0.96731 0.0
H1054 H 0.36974 0.89722 0.9844 0.0
H1055 H 0.36112 0.90812 0.942 0.0
H1056 H 0.37015 0.93615 0.98448 0.0
H1057 H 0.46516 0.86712 0.96057 0.0
H1058 H 0.50477 0.89883 0.97534 0.0
H1059 H 0.48229 0.88675 0.92827 0.0
C1060 C 0.15262 0.36329 0.93413 0.0
C1061 C 0.17746 0.37206 0.91565 0.0
C1062 C 0.13751 0.38416 0.94704 0.0
C1063 C 0.14717 0.41441 0.94075 0.0
C1064 C 0.17188 0.42327 0.92153 0.0
C1065 C 0.18703 0.40203 0.90951 0.0
C1066 C 0.11065 0.37321 0.96657 0.0
C1067 C 0.18219 0.45502 0.91353 0.0
C1068 C 0.08189 0.45132 0.94906 0.0
C1069 C 0.0952 0.47119 0.98416 0.0
C1070 C 0.09958 0.43408 0.93369 0.0
C1071 C 0.13103 0.43641 0.95423 0.0
C1072 C 0.14524 0.45744 0.98916 0.0
C1073 C 0.12707 0.47461 0.00371 0.0
C1074 C 0.0845 0.41318 0.89559 0.0
C1075 C 0.17963 0.46234 0.01127 0.0
H1076 H 0.14531 0.34016 0.93901 0.0
H1077 H 0.20604 0.40868 0.89485 0.0
H1078 H 0.10948 0.39249 0.98724 0.0
H1079 H 0.08622 0.36295 0.94626 0.0
H1080 H 0.11432 0.35487 0.98023 0.0
H1081 H 0.1979 0.45651 0.89368 0.0
H1082 H 0.16001 0.46078 0.90248 0.0
H1083 H 0.19654 0.47293 0.93922 0.0
H1084 H 0.05772 0.44949 0.93343 0.0
H1085 H 0.13761 0.49037 0.03068 0.0
H1086 H 0.07713 0.38844 0.89694 0.0
H1087 H 0.10302 0.41691 0.87893 0.0
H1088 H 0.0622 0.41731 0.88145 0.0
H1089 H 0.18635 0.44105 0.00617 0.0
H1090 H 0.18202 0.47012 0.04102 0.0
H1091 H 0.19799 0.48096 0.00364 0.0
C1092 C 0.70427 0.23724 0.85078 0.0
C1093 C 0.72265 0.22544 0.82923 0.0
C1094 C 0.68205 0.21778 0.86632 0.0
C1095 C 0.67793 0.18568 0.86006 0.0
C1096 C 0.69662 0.17374 0.83858 0.0
C1097 C 0.71876 0.19373 0.82357 0.0
C1098 C 0.66262 0.2315 0.88896 0.0
C1099 C 0.69278 0.13964 0.83087 0.0
C1100 C 0.63975 0.13493 0.92024 0.0
C1101 C 0.60774 0.11804 0.89778 0.0
C1102 C 0.6626 0.15778 0.90888 0.0
C1103 C 0.65311 0.16409 0.87446 0.0
C1104 C 0.62036 0.14805 0.85248 0.0
C1105 C 0.59823 0.12521 0.8643 0.0
C1106 C 0.69726 0.17442 0.93312 0.0
C1107 C 0.60893 0.15431 0.81588 0.0
H1108 H 0.70708 0.26171 0.85539 0.0
H1109 H 0.73266 0.1843 0.80684 0.0
H1110 H 0.63561 0.21995 0.87625 0.0
H1111 H 0.6674 0.22722 0.91664 0.0
H1112 H 0.6691 0.25699 0.89178 0.0
H1113 H 0.7098 0.13417 0.81457 0.0
H1114 H 0.69774 0.13262 0.85692 0.0
H1115 H 0.66685 0.12528 0.81566 0.0
H1116 H 0.64726 0.1297 0.94622 0.0
H1117 H 0.57342 0.11264 0.84693 0.0
H1118 H 0.70366 0.20001 0.93756 0.0
H1119 H 0.71543 0.16794 0.91949 0.0
H1120 H 0.7001 0.16859 0.96011 0.0
H1121 H 0.61397 0.17962 0.81883 0.0
H1122 H 0.58198 0.14166 0.80343 0.0
H1123 H 0.62301 0.14702 0.7968 0.0
C1124 C 0.92048 0.78671 -0.00088 0.0
C1125 C 0.88648 0.78245 0.9908 0.0
C1126 C 0.932 0.76529 0.01366 0.0
C1127 C 0.90886 0.73906 0.01964 0.0
C1128 C 0.87527 0.73667 0.01563 0.0
C1129 C 0.86447 0.7587 0.0015 0.0
C1130 C 0.96825 0.76884 0.01854 0.0
C1131 C 0.84992 0.70909 0.02203 0.0
C1132 C 0.92746 0.66513 0.99555 0.0
C1133 C 0.94225 0.66284 0.03 0.0
C1134 C 0.9156 0.68946 0.992 0.0
C1135 C 0.91878 0.71201 0.02374 0.0
C1136 C 0.93315 0.70959 0.05865 0.0
C1137 C 0.94478 0.68494 0.06136 0.0
C1138 C 0.9007 0.69158 0.95417 0.0
C1139 C 0.93614 0.73286 0.09301 0.0
H1140 H 0.93772 0.80491 0.99091 0.0
H1141 H 0.83826 0.75571 0.99586 0.0
H1142 H 0.97827 0.76455 0.04509 0.0
H1143 H 0.97081 0.75132 0.9966 0.0
H1144 H 0.98361 0.7924 0.01733 0.0
H1145 H 0.82943 0.71565 0.03059 0.0
H1146 H 0.83891 0.69064 0.99613 0.0
H1147 H 0.86124 0.6991 0.04297 0.0
H1148 H 0.92612 0.64847 0.9712 0.0
H1149 H 0.95621 0.68316 0.088 0.0
H1150 H 0.91569 0.71356 0.94879 0.0
H1151 H 0.87517 0.69204 0.95221 0.0
H1152 H 0.89957 0.67173 0.93246 0.0
H1153 H 0.94395 0.75703 0.08959 0.0
H1154 H 0.95417 0.73176 0.11678 0.0
H1155 H 0.91145 0.72771 0.09918 0.0
C1156 C 0.16469 0.36596 0.09787 0.0
C1157 C 0.15437 0.35309 0.1259 0.0
C1158 C 0.15404 0.38955 0.08765 0.0
C1159 C 0.13291 0.40033 0.10622 0.0
C1160 C 0.12242 0.38719 0.13452 0.0
C1161 C 0.13311 0.36354 0.14376 0.0
C1162 C 0.16613 0.40301 0.05766 0.0
C1163 C 0.09974 0.39792 0.15504 0.0
C1164 C 0.11733 0.47566 0.11521 0.0
C1165 C 0.08297 0.46424 0.09896 0.0
C1166 C 0.13571 0.45561 0.11452 0.0
C1167 C 0.11967 0.42403 0.09556 0.0
C1168 C 0.08703 0.41392 0.07351 0.0
C1169 C 0.06864 0.4337 0.07644 0.0
C1170 C 0.17117 0.46735 0.13708 0.0
C1171 C 0.07003 0.38091 0.05047 0.0
H1172 H 0.18154 0.35803 0.08443 0.0
H1173 H 0.12489 0.35318 0.16516 0.0
H1174 H 0.1496 0.41421 0.04465 0.0
H1175 H 0.19128 0.42082 0.06941 0.0
H1176 H 0.16827 0.38471 0.03632 0.0
H1177 H 0.09624 0.38691 0.17817 0.0
H1178 H 0.10998 0.4236 0.16598 0.0
H1179 H 0.07498 0.39203 0.13621 0.0
H1180 H 0.12962 0.49971 0.13037 0.0
H1181 H 0.04249 0.42383 0.06297 0.0
H1182 H 0.18717 0.4596 0.12095 0.0
H1183 H 0.1724 0.45738 0.16134 0.0
H1184 H 0.18127 0.49317 0.14666 0.0
H1185 H 0.08788 0.37177 0.0392 0.0
H1186 H 0.04957 0.37944 0.02748 0.0
H1187 H 0.05921 0.36571 0.06766 0.0
C1188 C 0.16472 0.6483 0.87248 0.0
C1189 C 0.19627 0.66294 0.8966 0.0
C1190 C 0.13834 0.63104 0.8842 0.0
C1191 C 0.14459 0.62687 0.91998 0.0
C1192 C 0.17742 0.63769 0.9424 0.0
C1193 C 0.20306 0.65671 0.93079 0.0
C1194 C 0.10348 0.62165 0.8604 0.0
C1195 C 0.18473 0.63204 0.98003 0.0
C1196 C 0.0813 0.62936 0.97379 0.0
C1197 C 0.06474 0.59765 0.96914 0.0
C1198 C 0.10674 0.63922 0.95661 0.0
C1199 C 0.11653 0.61656 0.93613 0.0
C1200 C 0.09951 0.58446 0.93107 0.0
C1201 C 0.07316 0.57532 0.9472 0.0
C1202 C 0.1236 0.67377 0.96118 0.0
C1203 C 0.11019 0.55996 0.91033 0.0
H1204 H 0.15972 0.65393 0.84621 0.0
H1205 H 0.22753 0.66847 0.94924 0.0
H1206 H 0.08797 0.59801 0.86092 0.0
H1207 H 0.09154 0.63813 0.87108 0.0
H1208 H 0.10341 0.62222 0.83157 0.0
H1209 H 0.21177 0.63774 0.99145 0.0
H1210 H 0.17576 0.64681 -0.00136 0.0
H1211 H 0.1714 0.60738 0.97934 0.0
H1212 H 0.07468 0.64632 0.99129 0.0
H1213 H 0.06061 0.55073 0.94469 0.0
H1214 H 0.1255 0.6789 0.93432 0.0
H1215 H 0.14921 0.6815 0.97876 0.0
H1216 H 0.11009 0.68777 0.97394 0.0
H1217 H 0.11087 0.56311 0.88247 0.0
H1218 H 0.09345 0.53593 0.90794 0.0
H1219 H 0.13577 0.56251 0.92455 0.0
C1220 C 0.33342 0.20981 0.84105 0.0
C1221 C 0.34031 0.22656 0.81435 0.0
C1222 C 0.35186 0.19077 0.85217 0.0
C1223 C 0.37819 0.18754 0.83632 0.0
C1224 C 0.38519 0.20438 0.80933 0.0
C1225 C 0.36658 0.22346 0.79897 0.0
C1226 C 0.34311 0.17407 0.88124 0.0
C1227 C 0.4125 0.20218 0.79103 0.0
C1228 C 0.44571 0.15875 0.88636 0.0
C1229 C 0.43574 0.12679 0.86835 0.0
C1230 C 0.42754 0.17837 0.87654 0.0
C1231 C 0.39804 0.16654 0.84758 0.0
C1232 C 0.38778 0.13444 0.82924 0.0
C1233 C 0.40638 0.11531 0.83964 0.0
C1234 C 0.4402 0.21212 0.89731 0.0
C1235 C 0.35676 0.12007 0.79836 0.0
H1236 H 0.31353 0.21168 0.85359 0.0
H1237 H 0.37256 0.23584 0.77828 0.0
H1238 H 0.33725 0.14867 0.87087 0.0
H1239 H 0.36476 0.1823 0.90531 0.0
H1240 H 0.32156 0.1779 0.89029 0.0
H1241 H 0.41488 0.21614 0.7703 0.0
H1242 H 0.43657 0.21045 0.81183 0.0
H1243 H 0.40761 0.17752 0.77745 0.0
H1244 H 0.46831 0.16892 0.90809 0.0
H1245 H 0.39736 0.09095 0.82531 0.0
H1246 H 0.42084 0.21748 0.90968 0.0
H1247 H 0.44555 0.22736 0.8783 0.0
H1248 H 0.46312 0.21806 0.91934 0.0
H1249 H 0.33505 0.12245 0.80824 0.0
H1250 H 0.35173 0.095 0.78654 0.0
H1251 H 0.35911 0.13263 0.77636 0.0
C1252 C 0.81216 0.34881 0.90434 0.0
C1253 C 0.8312 0.34024 0.88156 0.0
C1254 C 0.82725 0.37261 0.93647 0.0
C1255 C 0.86188 0.38881 0.94491 0.0
C1256 C 0.88138 0.37915 0.92269 0.0
C1257 C 0.86572 0.35454 0.89138 0.0
C1258 C 0.80589 0.3817 0.96008 0.0
C1259 C 0.91829 0.39635 0.9303 0.0
C1260 C 0.89559 0.47498 0.98963 0.0
C1261 C 0.91356 0.47572 0.02409 0.0
C1262 C 0.87736 0.44663 0.96414 0.0
C1263 C 0.87701 0.41841 0.97361 0.0
C1264 C 0.89359 0.419 0.00917 0.0
C1265 C 0.91189 0.44781 0.03403 0.0
C1266 C 0.86079 0.44704 0.92615 0.0
C1267 C 0.89363 0.38935 0.02016 0.0
H1268 H 0.78537 0.33747 0.89643 0.0
H1269 H 0.88017 0.34786 0.8733 0.0
H1270 H 0.81752 0.38482 0.98935 0.0
H1271 H 0.8037 0.40431 0.95674 0.0
H1272 H 0.7805 0.36405 0.95278 0.0
H1273 H 0.93025 0.38415 0.91245 0.0
H1274 H 0.92256 0.42002 0.92564 0.0
H1275 H 0.93074 0.39928 0.95923 0.0
H1276 H 0.89765 0.49669 0.98179 0.0
H1277 H 0.92702 0.4485 0.06009 0.0
H1278 H 0.83438 0.43163 0.91822 0.0
H1279 H 0.87321 0.43798 0.9062 0.0
H1280 H 0.86191 0.47084 0.9239 0.0
H1281 H 0.86779 0.37463 0.0183 0.0
H1282 H 0.90891 0.39397 0.04839 0.0
H1283 H 0.90345 0.37572 0.00119 0.0
C1284 C 0.6911 0.83656 0.78477 0.0
C1285 C 0.72486 0.84281 0.80236 0.0
C1286 C 0.67193 0.85533 0.79637 0.0
C1287 C 0.68573 0.88193 0.82706 0.0
C1288 C 0.71978 0.88831 0.84498 0.0
C1289 C 0.73841 0.86922 0.83274 0.0
C1290 C 0.63628 0.84633 0.77552 0.0
C1291 C 0.73689 0.91569 0.87761 0.0
C1292 C 0.64311 0.94695 0.83669 0.0
C1293 C 0.62568 0.94194 0.8642 0.0
C1294 C 0.66271 0.92859 0.82528 0.0
C1295 C 0.66497 0.9028 0.84008 0.0
C1296 C 0.64707 0.89737 0.86754 0.0
C1297 C 0.62866 0.91683 0.87942 0.0
C1298 C 0.68163 0.93726 0.79731 0.0
C1299 C 0.64688 0.87034 0.88431 0.0
H1300 H 0.6793 0.81665 0.76149 0.0
H1301 H 0.76401 0.87508 0.8475 0.0
H1302 H 0.61975 0.84154 0.7942 0.0
H1303 H 0.63258 0.86594 0.76456 0.0
H1304 H 0.62863 0.82541 0.75244 0.0
H1305 H 0.76341 0.9187 0.88826 0.0
H1306 H 0.73545 0.93738 0.87019 0.0
H1307 H 0.72404 0.91254 0.89982 0.0
H1308 H 0.64211 0.96602 0.82435 0.0
H1309 H 0.61575 0.91175 0.90041 0.0
H1310 H 0.67284 0.91757 0.77267 0.0
H1311 H 0.70844 0.94179 0.80852 0.0
H1312 H 0.67882 0.95825 0.78902 0.0
H1313 H 0.63647 0.84829 0.86259 0.0
H1314 H 0.63201 0.86855 0.90497 0.0
H1315 H 0.67266 0.87274 0.89753 0.0
C1316 C 0.82034 0.72465 0.17358 0.0
C1317 C 0.81714 0.71866 0.20762 0.0
C1318 C 0.83787 0.71086 0.15325 0.0
C1319 C 0.85236 0.69066 0.16739 0.0
C1320 C 0.84759 0.68306 0.20062 0.0
C1321 C 0.82991 0.6972 0.22041 0.0
C1322 C 0.84223 0.71931 0.1178 0.0
C1323 C 0.8624 0.66108 0.21611 0.0
C1324 C 0.88265 0.63383 0.11523 0.0
C1325 C 0.91716 0.6483 0.12927 0.0
C1326 C 0.86095 0.64885 0.12448 0.0
C1327 C 0.87417 0.67858 0.1489 0.0
C1328 C 0.90882 0.69463 0.16011 0.0
C1329 C 0.93001 0.6793 0.14985 0.0
C1330 C 0.82394 0.63169 0.11102 0.0
C1331 C 0.92355 0.72695 0.18525 0.0
H1332 H 0.8101 0.74094 0.16319 0.0
H1333 H 0.82727 0.69235 0.24654 0.0
H1334 H 0.86608 0.73878 0.12318 0.0
H1335 H 0.84289 0.69939 0.09767 0.0
H1336 H 0.82197 0.72709 0.10551 0.0
H1337 H 0.85488 0.65649 0.24131 0.0
H1338 H 0.85461 0.63853 0.19559 0.0
H1339 H 0.88992 0.67114 0.22272 0.0
H1340 H 0.87223 0.60984 0.09943 0.0
H1341 H 0.95665 0.69108 0.1595 0.0
H1342 H 0.81092 0.64744 0.1025 0.0
H1343 H 0.81423 0.62324 0.13353 0.0
H1344 H 0.81777 0.61132 0.08762 0.0
H1345 H 0.91129 0.74254 0.17473 0.0
H1346 H 0.95073 0.73733 0.18833 0.0
H1347 H 0.91918 0.72595 0.21267 0.0
C1348 C 0.35536 0.84598 0.20087 0.0
C1349 C 0.32253 0.84114 0.20403 0.0
C1350 C 0.37086 0.86704 0.18116 0.0
C1351 C 0.35336 0.88383 0.16306 0.0
C1352 C 0.32015 0.87891 0.16601 0.0
C1353 C 0.30543 0.85811 0.18644 0.0
C1354 C 0.40633 0.87147 0.17991 0.0
C1355 C 0.29995 0.8957 0.14743 0.0
C1356 C 0.40384 0.95965 0.13991 0.0
C1357 C 0.40199 0.95025 0.10233 0.0
C1358 C 0.38803 0.93872 0.15952 0.0
C1359 C 0.3699 0.90681 0.14183 0.0
C1360 C 0.368 0.8971 0.10387 0.0
C1361 C 0.38367 0.91872 0.08472 0.0
C1362 C 0.39095 0.9509 0.19954 0.0
C1363 C 0.34962 0.86356 0.08341 0.0
H1364 H 0.3693 0.8335 0.21431 0.0
H1365 H 0.28015 0.85487 0.18824 0.0
H1366 H 0.40787 0.86586 0.15111 0.0
H1367 H 0.42215 0.89621 0.19217 0.0
H1368 H 0.41665 0.85664 0.19479 0.0
H1369 H 0.27448 0.88936 0.15175 0.0
H1370 H 0.31258 0.92126 0.15794 0.0
H1371 H 0.29802 0.89011 0.11762 0.0
H1372 H 0.41772 0.98373 0.15426 0.0
H1373 H 0.38204 0.9107 0.05597 0.0
H1374 H 0.40374 0.93859 0.21605 0.0
H1375 H 0.36585 0.94622 0.2046 0.0
H1376 H 0.40494 0.97634 0.2093 0.0
H1377 H 0.36081 0.84824 0.09623 0.0
H1378 H 0.35013 0.85937 0.05416 0.0
H1379 H 0.32336 0.85665 0.08512 0.0
C1380 C 0.67535 0.21499 0.17492 0.0
C1381 C 0.7047 0.20947 0.1881 0.0
C1382 C 0.6515 0.19489 0.14343 0.0
C1383 C 0.6567 0.16818 0.12509 0.0
C1384 C 0.68713 0.16347 0.13706 0.0
C1385 C 0.71086 0.18429 0.16828 0.0
C1386 C 0.61984 0.2013 0.13107 0.0
C1387 C 0.69367 0.13526 0.11847 0.0
C1388 C 0.57789 0.09795 0.08921 0.0
C1389 C 0.57108 0.09451 0.05136 0.0
C1390 C 0.60622 0.12096 0.11294 0.0
C1391 C 0.62801 0.14243 0.09882 0.0
C1392 C 0.62135 0.1396 0.06053 0.0
C1393 C 0.59309 0.11537 0.03715 0.0
C1394 C 0.61251 0.12239 0.15339 0.0
C1395 C 0.64348 0.16251 0.04439 0.0
H1396 H 0.67082 0.23493 0.18941 0.0
H1397 H 0.73378 0.18021 0.17788 0.0
H1398 H 0.6129 0.19736 0.1009 0.0
H1399 H 0.59927 0.18504 0.13884 0.0
H1400 H 0.62211 0.22553 0.1437 0.0
H1401 H 0.72026 0.13764 0.12686 0.0
H1402 H 0.67857 0.11433 0.12575 0.0
H1403 H 0.68622 0.13119 0.08833 0.0
H1404 H 0.56102 0.08258 0.10058 0.0
H1405 H 0.58778 0.11331 0.00797 0.0
H1406 H 0.6109 0.14436 0.16843 0.0
H1407 H 0.63791 0.1223 0.16403 0.0
H1408 H 0.59441 0.10252 0.15954 0.0
H1409 H 0.6422 0.18599 0.05395 0.0
H1410 H 0.6362 0.15589 0.01401 0.0
H1411 H 0.66974 0.16429 0.05384 0.0
C1412 C 0.72082 0.69107 0.82743 0.0
C1413 C 0.72943 0.72349 0.8328 0.0
C1414 C 0.70028 0.67451 0.84723 0.0
C1415 C 0.68644 0.69036 0.87173 0.0
C1416 C 0.69478 0.72309 0.87675 0.0
C1417 C 0.71662 0.73922 0.85795 0.0
C1418 C 0.69334 0.63995 0.84173 0.0
C1419 C 0.67978 0.74103 0.90115 0.0
C1420 C 0.60563 0.64235 0.89154 0.0
C1421 C 0.61625 0.64033 0.92761 0.0
C1422 C 0.62798 0.65866 0.87337 0.0
C1423 C 0.66234 0.67275 0.89102 0.0
C1424 C 0.67335 0.67038 0.92728 0.0
C1425 C 0.65022 0.65469 0.94526 0.0
C1426 C 0.61461 0.66106 0.83525 0.0
C1427 C 0.70976 0.68395 0.94688 0.0
H1428 H 0.73058 0.67868 0.80811 0.0
H1429 H 0.7227 0.76419 0.86193 0.0
H1430 H 0.69609 0.63365 0.86843 0.0
H1431 H 0.66739 0.62698 0.8256 0.0
H1432 H 0.71021 0.63212 0.82698 0.0
H1433 H 0.68812 0.76622 0.90161 0.0
H1434 H 0.65226 0.73128 0.89158 0.0
H1435 H 0.68651 0.73863 0.9295 0.0
H1436 H 0.57952 0.63147 0.87753 0.0
H1437 H 0.65888 0.65307 0.97292 0.0
H1438 H 0.62512 0.64891 0.81563 0.0
H1439 H 0.62227 0.68586 0.83403 0.0
H1440 H 0.58707 0.65071 0.8262 0.0
H1441 H 0.72431 0.67419 0.9303 0.0
H1442 H 0.71466 0.67908 0.97428 0.0
H1443 H 0.71898 0.70954 0.95024 0.0
C1444 C 0.37666 0.75503 0.84335 0.0
C1445 C 0.34167 0.74333 0.83212 0.0
C1446 C 0.39496 0.73868 0.86075 0.0
C1447 C 0.37823 0.70962 0.86753 0.0
C1448 C 0.34288 0.69795 0.85687 0.0
C1449 C 0.32517 0.71478 0.83939 0.0
C1450 C 0.43241 0.75248 0.87155 0.0
C1451 C 0.32362 0.66743 0.8637 0.0
C1452 C 0.42618 0.65266 0.87771 0.0
C1453 C 0.43618 0.65678 0.91587 0.0
C1454 C 0.40725 0.66928 0.86191 0.0
C1455 C 0.39774 0.69105 0.8844 0.0
C1456 C 0.4076 0.69536 0.9229 0.0
C1457 C 0.42648 0.67834 0.93802 0.0
C1458 C 0.39776 0.66378 0.82085 0.0
C1459 C 0.3983 0.71816 0.94829 0.0
H1460 H 0.38999 0.77711 0.83839 0.0
H1461 H 0.29827 0.70542 0.83132 0.0
H1462 H 0.44184 0.75496 0.90117 0.0
H1463 H 0.44289 0.7366 0.85664 0.0
H1464 H 0.44179 0.77568 0.8656 0.0
H1465 H 0.29632 0.66201 0.85523 0.0
H1466 H 0.32983 0.64824 0.84846 0.0
H1467 H 0.33074 0.66807 0.89316 0.0
H1468 H 0.43374 0.6368 0.85988 0.0
H1469 H 0.43336 0.68181 0.96741 0.0
H1470 H 0.40878 0.68578 0.81296 0.0
H1471 H 0.37038 0.65649 0.81078 0.0
H1472 H 0.40623 0.64565 0.8069 0.0
H1473 H 0.40945 0.74203 0.94487 0.0
H1474 H 0.40679 0.71828 0.97743 0.0
H1475 H 0.37094 0.71236 0.94132 0.0
C1476 C 0.37367 0.38753 0.83422 0.0
C1477 C 0.34339 0.36846 0.83742 0.0
C1478 C 0.3937 0.41269 0.8633 0.0
C1479 C 0.38257 0.41827 0.89555 0.0
C1480 C 0.35044 0.40083 0.89706 0.0
C1481 C 0.33111 0.37594 0.86764 0.0
C1482 C 0.42774 0.43163 0.86062 0.0
C1483 C 0.33714 0.40624 0.93037 0.0
C1484 C 0.45973 0.45343 0.97019 0.0
C1485 C 0.46496 0.4848 0.9714 0.0
C1486 C 0.42988 0.43083 0.94905 0.0
C1487 C 0.40614 0.44037 0.92829 0.0
C1488 C 0.40944 0.47203 0.93384 0.0
C1489 C 0.43891 0.49407 0.95599 0.0
C1490 C 0.4255 0.39685 0.9454 0.0
C1491 C 0.38404 0.48274 0.91271 0.0
H1492 H 0.3827 0.3814 0.81045 0.0
H1493 H 0.30708 0.36115 0.86912 0.0
H1494 H 0.43242 0.45692 0.87006 0.0
H1495 H 0.447 0.42601 0.87855 0.0
H1496 H 0.4307 0.42676 0.83228 0.0
H1497 H 0.33785 0.38766 0.94487 0.0
H1498 H 0.35137 0.42916 0.94981 0.0
H1499 H 0.31074 0.40448 0.92196 0.0
H1500 H 0.4797 0.44649 0.98313 0.0
H1501 H 0.44265 0.5186 0.95847 0.0
H1502 H 0.43118 0.38753 0.91962 0.0
H1503 H 0.39943 0.38316 0.94419 0.0
H1504 H 0.44234 0.39343 0.96852 0.0
H1505 H 0.38577 0.47975 0.88388 0.0
H1506 H 0.38805 0.50767 0.92415 0.0
H1507 H 0.35852 0.46845 0.91263 0.0
C1508 C 0.67817 0.3824 0.91261 0.0
C1509 C 0.65605 0.35866 0.88287 0.0
C1510 C 0.66651 0.40224 0.93396 0.0
C1511 C 0.63232 0.39801 0.92463 0.0
C1512 C 0.60951 0.37065 0.89943 0.0
C1513 C 0.62177 0.35115 0.87846 0.0
C1514 C 0.69125 0.4305 0.9621 0.0
C1515 C 0.57266 0.36475 0.89038 0.0
C1516 C 0.59962 0.45888 0.96608 0.0
C1517 C 0.60007 0.47608 0.93953 0.0
C1518 C 0.61068 0.43349 0.96228 0.0
C1519 C 0.62233 0.42557 0.93123 0.0
C1520 C 0.6236 0.44359 0.90487 0.0
C1521 C 0.6121 0.46857 0.90927 0.0
C1522 C 0.60883 0.41501 0.99096 0.0
C1523 C 0.63683 0.43645 0.8718 0.0
H1524 H 0.70475 0.38791 0.91647 0.0
H1525 H 0.60472 0.33207 0.85612 0.0
H1526 H 0.6969 0.45067 0.94954 0.0
H1527 H 0.68098 0.43662 0.98564 0.0
H1528 H 0.71488 0.42665 0.97224 0.0
H1529 H 0.55813 0.33991 0.87658 0.0
H1530 H 0.56459 0.37135 0.91548 0.0
H1531 H 0.56695 0.37923 0.87171 0.0
H1532 H 0.59013 0.465 0.98951 0.0
H1533 H 0.61275 0.48245 0.88926 0.0
H1534 H 0.62676 0.40239 0.9922 0.0
H1535 H 0.5834 0.39765 0.98459 0.0
H1536 H 0.61356 0.43051 0.01837 0.0
H1537 H 0.66249 0.43635 0.88049 0.0
H1538 H 0.63726 0.45368 0.85497 0.0
H1539 H 0.62117 0.413 0.85429 0.0
C1540 C 0.73103 0.34212 0.18538 0.0
C1541 C 0.72735 0.33437 0.21862 0.0
C1542 C 0.71198 0.35819 0.16838 0.0
C1543 C 0.68801 0.36669 0.18442 0.0
C1544 C 0.68404 0.35872 0.21783 0.0
C1545 C 0.70365 0.34298 0.23443 0.0
C1546 C 0.7176 0.36614 0.13309 0.0
C1547 C 0.6588 0.36669 0.23611 0.0
C1548 C 0.65855 0.43306 0.15977 0.0
C1549 C 0.62754 0.41705 0.1343 0.0
C1550 C 0.67831 0.41715 0.17584 0.0
C1551 C 0.66733 0.38405 0.16661 0.0
C1552 C 0.63624 0.36769 0.1408 0.0
C1553 C 0.61695 0.38418 0.12516 0.0
C1554 C 0.71113 0.43593 0.20294 0.0
C1555 C 0.623 0.33253 0.12997 0.0
H1556 H 0.74898 0.33569 0.17255 0.0
H1557 H 0.70002 0.33706 0.25982 0.0
H1558 H 0.69417 0.3552 0.11122 0.0
H1559 H 0.72499 0.39172 0.13643 0.0
H1560 H 0.73716 0.35823 0.12406 0.0
H1561 H 0.6583 0.35872 0.26172 0.0
H1562 H 0.66441 0.39226 0.24266 0.0
H1563 H 0.63365 0.35578 0.21722 0.0
H1564 H 0.66778 0.45829 0.16703 0.0
H1565 H 0.59304 0.37104 0.1062 0.0
H1566 H 0.73152 0.42996 0.19345 0.0
H1567 H 0.71102 0.43006 0.22972 0.0
H1568 H 0.71664 0.46143 0.20701 0.0
H1569 H 0.64114 0.32367 0.11895 0.0
H1570 H 0.59886 0.32306 0.10908 0.0
H1571 H 0.61964 0.32338 0.15437 0.0
C1572 C 0.66761 0.73175 0.19032 0.0
C1573 C 0.69795 0.72848 0.20381 0.0
C1574 C 0.64637 0.71126 0.1579 0.0
C1575 C 0.65642 0.68773 0.13997 0.0
C1576 C 0.6895 0.6887 0.14981 0.0
C1577 C 0.70994 0.70891 0.18241 0.0
C1578 C 0.61175 0.71186 0.14578 0.0
C1579 C 0.70158 0.66528 0.12926 0.0
C1580 C 0.59878 0.60607 0.12423 0.0
C1581 C 0.58645 0.59811 0.08644 0.0
C1582 C 0.6209 0.6358 0.14204 0.0
C1583 C 0.63117 0.65761 0.12111 0.0
C1584 C 0.61872 0.64979 0.08296 0.0
C1585 C 0.59604 0.62003 0.06609 0.0
C1586 C 0.63359 0.64357 0.18316 0.0
C1587 C 0.62953 0.672 0.05951 0.0
H1588 H 0.6595 0.74832 0.2064 0.0
H1589 H 0.73449 0.708 0.1922 0.0
H1590 H 0.60367 0.70637 0.11551 0.0
H1591 H 0.59426 0.69387 0.1552 0.0
H1592 H 0.61021 0.73491 0.15734 0.0
H1593 H 0.72915 0.67364 0.13508 0.0
H1594 H 0.69328 0.64311 0.13777 0.0
H1595 H 0.69104 0.66031 0.09937 0.0
H1596 H 0.59085 0.58921 0.13997 0.0
H1597 H 0.58594 0.61385 0.03695 0.0
H1598 H 0.62973 0.66512 0.19594 0.0
H1599 H 0.66064 0.6477 0.19051 0.0
H1600 H 0.62101 0.62457 0.19519 0.0
H1601 H 0.60743 0.67218 0.04 0.0
H1602 H 0.6451 0.66365 0.04319 0.0
H1603 H 0.64399 0.69627 0.07539 0.0
C1604 C 0.43002 0.69764 0.15398 0.0
C1605 C 0.39868 0.69995 0.15326 0.0
C1606 C 0.43388 0.6749 0.12779 0.0
C1607 C 0.40562 0.65417 0.10041 0.0
C1608 C 0.37528 0.65985 0.09603 0.0
C1609 C 0.37194 0.68256 0.12293 0.0
C1610 C 0.46719 0.67048 0.13243 0.0
C1611 C 0.34537 0.63952 0.06553 0.0
C1612 C 0.42901 0.59082 0.04859 0.0
C1613 C 0.42495 0.57055 0.07175 0.0
C1614 C 0.4191 0.61693 0.05468 0.0
C1615 C 0.40568 0.62271 0.085 0.0
C1616 C 0.39826 0.60017 0.10575 0.0
C1617 C 0.40812 0.57428 0.09879 0.0
C1618 C 0.42589 0.63938 0.03065 0.0
C1619 C 0.38335 0.605 0.13797 0.0
H1620 H 0.45096 0.71197 0.17669 0.0
H1621 H 0.34771 0.68468 0.12179 0.0
H1622 H 0.46595 0.64944 0.14289 0.0
H1623 H 0.47371 0.66688 0.1058 0.0
H1624 H 0.48736 0.69079 0.15193 0.0
H1625 H 0.32748 0.65178 0.05959 0.0
H1626 H 0.35286 0.63221 0.04022 0.0
H1627 H 0.33245 0.61817 0.07361 0.0
H1628 H 0.44213 0.58759 0.02759 0.0
H1629 H 0.4052 0.5583 0.11645 0.0
H1630 H 0.45239 0.65463 0.03982 0.0
H1631 H 0.41024 0.65429 0.03149 0.0
H1632 H 0.42146 0.62651 0.00189 0.0
H1633 H 0.40117 0.6251 0.15991 0.0
H1634 H 0.3772 0.58421 0.14946 0.0
H1635 H 0.36033 0.61032 0.12983 0.0
C1636 C 0.37757 0.3462 0.22583 0.0
C1637 C 0.34508 0.34653 0.22319 0.0
C1638 C 0.39846 0.36249 0.20613 0.0
C1639 C 0.38733 0.3807 0.18401 0.0
C1640 C 0.35487 0.38185 0.18221 0.0
C1641 C 0.33404 0.36434 0.20107 0.0
C1642 C 0.43225 0.35955 0.20829 0.0
C1643 C 0.34203 0.40162 0.16029 0.0
C1644 C 0.454 0.44503 0.16028 0.0
C1645 C 0.45258 0.432 0.12373 0.0
C1646 C 0.43287 0.42891 0.17983 0.0
C1647 C 0.40962 0.39851 0.16297 0.0
C1648 C 0.40804 0.38516 0.12609 0.0
C1649 C 0.42921 0.40203 0.10695 0.0
C1650 C 0.43538 0.44461 0.21869 0.0
C1651 C 0.38416 0.35276 0.10689 0.0
H1652 H 0.38628 0.33215 0.24228 0.0
H1653 H 0.30905 0.36482 0.19873 0.0
H1654 H 0.43431 0.3502 0.18048 0.0
H1655 H 0.45192 0.38281 0.21927 0.0
H1656 H 0.43707 0.34397 0.22587 0.0
H1657 H 0.31725 0.40174 0.1635 0.0
H1658 H 0.35971 0.42597 0.16886 0.0
H1659 H 0.34006 0.39277 0.1309 0.0
H1660 H 0.47166 0.46815 0.17376 0.0
H1661 H 0.42767 0.39154 0.07886 0.0
H1662 H 0.44276 0.43091 0.23751 0.0
H1663 H 0.41077 0.44553 0.22145 0.0
H1664 H 0.45375 0.46869 0.22757 0.0
H1665 H 0.38905 0.33587 0.12237 0.0
H1666 H 0.38613 0.34533 0.07851 0.0
H1667 H 0.35827 0.35172 0.10598 0.0
C1668 C 0.87405 0.72629 0.74966 0.0
C1669 C 0.83899 0.71712 0.7374 0.0
C1670 C 0.89292 0.70761 0.73701 0.0
C1671 C 0.87729 0.67771 0.71151 0.0
C1672 C 0.84184 0.66818 0.69944 0.0
C1673 C 0.82369 0.68767 0.71179 0.0
C1674 C 0.93019 0.72034 0.75083 0.0
C1675 C 0.82265 0.63687 0.67325 0.0
C1676 C 0.92756 0.63816 0.65325 0.0
C1677 C 0.93608 0.61693 0.67246 0.0
C1678 C 0.90911 0.65753 0.66528 0.0
C1679 C 0.89761 0.65666 0.69789 0.0
C1680 C 0.90572 0.63516 0.71723 0.0
C1681 C 0.92438 0.61621 0.70474 0.0
C1682 C 0.90203 0.67935 0.64273 0.0
C1683 C 0.89428 0.63185 0.75153 0.0
H1684 H 0.88715 0.74871 0.76891 0.0
H1685 H 0.79693 0.67942 0.7014 0.0
H1686 H 0.93864 0.70454 0.76564 0.0
H1687 H 0.94178 0.72139 0.72741 0.0
H1688 H 0.93925 0.74401 0.76945 0.0
H1689 H 0.79537 0.63166 0.66746 0.0
H1690 H 0.83014 0.63612 0.6471 0.0
H1691 H 0.82856 0.61825 0.68465 0.0
H1692 H 0.93576 0.64024 0.62856 0.0
H1693 H 0.9293 0.60024 0.72054 0.0
H1694 H 0.91148 0.70355 0.66003 0.0
H1695 H 0.8748 0.67292 0.63223 0.0
H1696 H 0.91348 0.67887 0.61915 0.0
H1697 H 0.90509 0.6545 0.77223 0.0
H1698 H 0.90143 0.614 0.76351 0.0
H1699 H 0.86684 0.62536 0.7455 0.0
C1700 C 0.34571 0.86207 0.58707 0.0
C1701 C 0.33528 0.87721 0.61498 0.0
C1702 C 0.3643 0.87958 0.56725 0.0
C1703 C 0.37141 0.91219 0.57581 0.0
C1704 C 0.35351 0.92549 0.5969 0.0
C1705 C 0.33412 0.90706 0.61538 0.0
C1706 C 0.3816 0.86428 0.54308 0.0
C1707 C 0.35927 0.95995 0.60566 0.0
C1708 C 0.46312 0.94973 0.58804 0.0
C1709 C 0.46323 0.95506 0.55345 0.0
C1710 C 0.43285 0.93791 0.59704 0.0
C1711 C 0.40272 0.93193 0.57076 0.0
C1712 C 0.40313 0.94046 0.53749 0.0
C1713 C 0.4335 0.95169 0.52901 0.0
C1714 C 0.43304 0.93042 0.6338 0.0
C1715 C 0.37148 0.93602 0.5101 0.0
H1716 H 0.34513 0.83835 0.58551 0.0
H1717 H 0.32423 0.91801 0.63584 0.0
H1718 H 0.38387 0.87453 0.5193 0.0
H1719 H 0.40707 0.86808 0.55899 0.0
H1720 H 0.36818 0.83876 0.53303 0.0
H1721 H 0.33539 0.96389 0.60569 0.0
H1722 H 0.37582 0.97091 0.63357 0.0
H1723 H 0.3709 0.97177 0.58623 0.0
H1724 H 0.48636 0.9535 0.60724 0.0
H1725 H 0.43391 0.95747 0.50289 0.0
H1726 H 0.42175 0.90487 0.63008 0.0
H1727 H 0.41792 0.94166 0.64771 0.0
H1728 H 0.45855 0.93845 0.65186 0.0
H1729 H 0.35895 0.91092 0.49635 0.0
H1730 H 0.37639 0.94917 0.48905 0.0
H1731 H 0.35399 0.94368 0.5238 0.0
C1732 C 0.19186 0.32302 0.71331 0.0
C1733 C 0.22428 0.33766 0.73618 0.0
C1734 C 0.17169 0.34033 0.70108 0.0
C1735 C 0.18407 0.37361 0.71069 0.0
C1736 C 0.21713 0.3884 0.73326 0.0
C1737 C 0.23634 0.37051 0.746 0.0
C1738 C 0.13679 0.32278 0.67798 0.0
C1739 C 0.2325 0.42343 0.74386 0.0
C1740 C 0.14254 0.41942 0.65209 0.0
C1741 C 0.12336 0.43043 0.67365 0.0
C1742 C 0.16191 0.40118 0.66349 0.0
C1743 C 0.16269 0.39287 0.69759 0.0
C1744 C 0.14316 0.40351 0.71931 0.0
C1745 C 0.12419 0.4219 0.70739 0.0
C1746 C 0.18196 0.39101 0.63888 0.0
C1747 C 0.14203 0.39517 0.75542 0.0
H1748 H 0.1819 0.29777 0.70544 0.0
H1749 H 0.26123 0.38237 0.76344 0.0
H1750 H 0.11888 0.33122 0.69007 0.0
H1751 H 0.13456 0.32709 0.65028 0.0
H1752 H 0.12962 0.29725 0.67527 0.0
H1753 H 0.25869 0.43164 0.76016 0.0
H1754 H 0.23177 0.43251 0.71894 0.0
H1755 H 0.21797 0.43354 0.76007 0.0
H1756 H 0.14309 0.42556 0.62622 0.0
H1757 H 0.10945 0.42917 0.7246 0.0
H1758 H 0.17331 0.3652 0.63041 0.0
H1759 H 0.20851 0.39915 0.65392 0.0
H1760 H 0.18003 0.40006 0.61394 0.0
H1761 H 0.1335 0.36947 0.75123 0.0
H1762 H 0.12521 0.40425 0.76897 0.0
H1763 H 0.16731 0.40474 0.77406 0.0
C1764 C 0.7533 0.20378 0.65683 0.0
C1765 C 0.73587 0.21951 0.67535 0.0
C1766 C 0.73634 0.1777 0.62747 0.0
C1767 C 0.70126 0.16727 0.61653 0.0
C1768 C 0.68368 0.18418 0.63361 0.0
C1769 C 0.70123 0.21018 0.66288 0.0
C1770 C 0.7558 0.16049 0.60926 0.0
C1771 C 0.64622 0.17404 0.62198 0.0
C1772 C 0.65286 0.10802 0.52706 0.0
C1773 C 0.64221 0.0808 0.53917 0.0
C1774 C 0.67268 0.13647 0.55184 0.0
C1775 C 0.68265 0.13729 0.5893 0.0
C1776 C 0.67309 0.10957 0.6014 0.0
C1777 C 0.65291 0.08164 0.57615 0.0
C1778 C 0.68183 0.16565 0.53799 0.0
C1779 C 0.68258 0.10975 0.64134 0.0
H1780 H 0.78011 0.21109 0.66608 0.0
H1781 H 0.68764 0.22251 0.67675 0.0
H1782 H 0.74996 0.13696 0.61464 0.0
H1783 H 0.74849 0.1573 0.57921 0.0
H1784 H 0.78306 0.17291 0.61924 0.0
H1785 H 0.63655 0.19102 0.63629 0.0
H1786 H 0.63781 0.17107 0.59208 0.0
H1787 H 0.63506 0.15113 0.62787 0.0
H1788 H 0.64389 0.10748 0.49867 0.0
H1789 H 0.6444 0.0606 0.58557 0.0
H1790 H 0.70692 0.17029 0.53292 0.0
H1791 H 0.6826 0.18635 0.55804 0.0
H1792 H 0.66394 0.1631 0.51206 0.0
H1793 H 0.7099 0.12055 0.65236 0.0
H1794 H 0.67445 0.08595 0.64597 0.0
H1795 H 0.67105 0.12401 0.65717 0.0
C1796 C 0.84994 0.36497 0.37601 0.0
C1797 C 0.85669 0.35466 0.34247 0.0
C1798 C 0.8746 0.38747 0.40509 0.0
C1799 C 0.90715 0.40001 0.40088 0.0
C1800 C 0.91415 0.39006 0.36697 0.0
C1801 C 0.88874 0.36767 0.338 0.0
C1802 C 0.86582 0.39764 0.44043 0.0
C1803 C 0.9487 0.40263 0.36161 0.0
C1804 C 0.9666 0.47829 0.46144 0.0
C1805 C 0.98723 0.46928 0.48642 0.0
C1806 C 0.93972 0.45602 0.43435 0.0
C1807 C 0.93373 0.42389 0.43174 0.0
C1808 C 0.95375 0.41474 0.45807 0.0
C1809 C 0.98032 0.43763 0.4852 0.0
C1810 C 0.91857 0.46693 0.40764 0.0
C1811 C 0.94814 0.38078 0.45648 0.0
H1812 H 0.82515 0.35519 0.3797 0.0
H1813 H 0.89424 0.3596 0.3124 0.0
H1814 H 0.88152 0.39289 0.46334 0.0
H1815 H 0.87092 0.42314 0.4468 0.0
H1816 H 0.83931 0.38558 0.43932 0.0
H1817 H 0.9503 0.39232 0.3339 0.0
H1818 H 0.95655 0.42831 0.36586 0.0
H1819 H 0.96656 0.3977 0.38222 0.0
H1820 H 0.97224 0.50284 0.46235 0.0
H1821 H 0.99674 0.43076 0.50421 0.0
H1822 H 0.89191 0.45592 0.40657 0.0
H1823 H 0.92178 0.45971 0.37981 0.0
H1824 H 0.9251 0.49266 0.41492 0.0
H1825 H 0.92192 0.3683 0.45592 0.0
H1826 H 0.96457 0.37754 0.48011 0.0
H1827 H 0.95291 0.36975 0.43092 0.0
C1828 C 0.72021 0.82264 0.34937 0.0
C1829 C 0.74805 0.83755 0.33761 0.0
C1830 C 0.70497 0.83989 0.36879 0.0
C1831 C 0.71848 0.87272 0.37705 0.0
C1832 C 0.74812 0.88791 0.36772 0.0
C1833 C 0.76241 0.86999 0.34738 0.0
C1834 C 0.6728 0.82296 0.37737 0.0
C1835 C 0.7634 0.92298 0.37709 0.0
C1836 C 0.65431 0.91114 0.3723 0.0
C1837 C 0.65543 0.92085 0.4093 0.0
C1838 C 0.67526 0.89588 0.36162 0.0
C1839 C 0.69812 0.89062 0.38875 0.0
C1840 C 0.69992 0.90079 0.42621 0.0
C1841 C 0.67854 0.91608 0.43609 0.0
C1842 C 0.67253 0.88504 0.32126 0.0
C1843 C 0.72409 0.89528 0.4556 0.0
H1844 H 0.70919 0.79742 0.34162 0.0
H1845 H 0.7844 0.88124 0.33875 0.0
H1846 H 0.67278 0.83281 0.40584 0.0
H1847 H 0.65178 0.82592 0.35897 0.0
H1848 H 0.66824 0.79761 0.37356 0.0
H1849 H 0.78925 0.93081 0.37395 0.0
H1850 H 0.74834 0.93238 0.35872 0.0
H1851 H 0.76352 0.9331 0.40556 0.0
H1852 H 0.63731 0.91587 0.35158 0.0
H1853 H 0.67987 0.92427 0.46465 0.0
H1854 H 0.66629 0.85939 0.31354 0.0
H1855 H 0.69669 0.89577 0.31508 0.0
H1856 H 0.65324 0.89104 0.30384 0.0
H1857 H 0.71827 0.8699 0.45279 0.0
H1858 H 0.72333 0.90604 0.48352 0.0
H1859 H 0.74975 0.90489 0.45249 0.0
C1860 C 0.24791 0.69795 0.3488 0.0
C1861 C 0.23017 0.71233 0.32742 0.0
C1862 C 0.23278 0.67766 0.36953 0.0
C1863 C 0.19878 0.67135 0.36994 0.0
C1864 C 0.18074 0.68584 0.34844 0.0
C1865 C 0.19636 0.70569 0.32756 0.0
C1866 C 0.25334 0.6627 0.39099 0.0
C1867 C 0.14474 0.68061 0.34774 0.0
C1868 C 0.14969 0.59742 0.39791 0.0
C1869 C 0.15136 0.6085 0.43515 0.0
C1870 C 0.16502 0.61721 0.37684 0.0
C1871 C 0.18221 0.64964 0.39252 0.0
C1872 C 0.18353 0.66108 0.42996 0.0
C1873 C 0.16867 0.64058 0.4507 0.0
C1874 C 0.16294 0.60318 0.33756 0.0
C1875 C 0.20044 0.69531 0.44817 0.0
H1876 H 0.27385 0.7024 0.3492 0.0
H1877 H 0.18195 0.71639 0.31154 0.0
H1878 H 0.25456 0.66985 0.42048 0.0
H1879 H 0.24143 0.63696 0.38225 0.0
H1880 H 0.27907 0.66911 0.38745 0.0
H1881 H 0.13406 0.69375 0.33038 0.0
H1882 H 0.12983 0.65546 0.33726 0.0
H1883 H 0.14225 0.68784 0.37592 0.0
H1884 H 0.13659 0.57289 0.38512 0.0
H1885 H 0.17015 0.64987 0.47914 0.0
H1886 H 0.1883 0.60813 0.33317 0.0
H1887 H 0.14968 0.61393 0.31919 0.0
H1888 H 0.1498 0.57755 0.32948 0.0
H1889 H 0.22714 0.7025 0.44827 0.0
H1890 H 0.19835 0.70107 0.47678 0.0
H1891 H 0.18935 0.70922 0.43251 0.0
C1892 C 0.38401 0.17858 0.40829 0.0
C1893 C 0.40466 0.20985 0.41644 0.0
C1894 C 0.39729 0.15547 0.41408 0.0
C1895 C 0.43183 0.16413 0.42868 0.0
C1896 C 0.45241 0.19582 0.43949 0.0
C1897 C 0.43855 0.21842 0.43302 0.0
C1898 C 0.3747 0.12177 0.40304 0.0
C1899 C 0.48931 0.20565 0.45597 0.0
C1900 C 0.46873 0.1074 0.46231 0.0
C1901 C 0.47983 0.09698 0.43228 0.0
C1902 C 0.45191 0.12854 0.46107 0.0
C1903 C 0.447 0.13993 0.4295 0.0
C1904 C 0.45774 0.1291 0.39884 0.0
C1905 C 0.47399 0.1076 0.40057 0.0
C1906 C 0.43993 0.13892 0.4937 0.0
C1907 C 0.45278 0.14072 0.36457 0.0
H1908 H 0.35764 0.17207 0.39621 0.0
H1909 H 0.45455 0.24257 0.43915 0.0
H1910 H 0.38112 0.10891 0.37988 0.0
H1911 H 0.37827 0.11057 0.42601 0.0
H1912 H 0.34807 0.11924 0.39463 0.0
H1913 H 0.50139 0.23139 0.46499 0.0
H1914 H 0.49393 0.19565 0.4798 0.0
H1915 H 0.50129 0.19651 0.43558 0.0
H1916 H 0.47316 0.09903 0.48669 0.0
H1917 H 0.48297 0.09976 0.37742 0.0
H1918 H 0.41645 0.14328 0.48508 0.0
H1919 H 0.45888 0.16086 0.51155 0.0
H1920 H 0.43562 0.12107 0.50977 0.0
H1921 H 0.42605 0.13671 0.35375 0.0
H1922 H 0.46178 0.12908 0.34279 0.0
H1923 H 0.46627 0.16621 0.37104 0.0
C1924 C 0.67152 0.79165 0.54828 0.0
C1925 C 0.65525 0.78902 0.57653 0.0
C1926 C 0.66843 0.81251 0.52671 0.0
C1927 C 0.64941 0.83147 0.53455 0.0
C1928 C 0.63212 0.82813 0.56233 0.0
C1929 C 0.63483 0.80651 0.58251 0.0
C1930 C 0.68654 0.81495 0.49676 0.0
C1931 C 0.61134 0.8479 0.57153 0.0
C1932 C 0.65612 0.91008 0.52231 0.0
C1933 C 0.62374 0.90302 0.50106 0.0
C1934 C 0.66776 0.8863 0.52962 0.0
C1935 C 0.64683 0.85504 0.51426 0.0
C1936 C 0.61749 0.84798 0.48697 0.0
C1937 C 0.60572 0.87197 0.48134 0.0
C1938 C 0.70012 0.89465 0.55775 0.0
C1939 C 0.59578 0.81473 0.46811 0.0
H1940 H 0.68767 0.77834 0.54392 0.0
H1941 H 0.62181 0.80398 0.60394 0.0
H1942 H 0.67289 0.821 0.47342 0.0
H1943 H 0.71128 0.83352 0.50778 0.0
H1944 H 0.69055 0.7928 0.48652 0.0
H1945 H 0.60097 0.84322 0.59517 0.0
H1946 H 0.62655 0.873 0.57813 0.0
H1947 H 0.59033 0.84327 0.54769 0.0
H1948 H 0.67167 0.93402 0.53531 0.0
H1949 H 0.58098 0.86539 0.46409 0.0
H1950 H 0.71359 0.87866 0.55031 0.0
H1951 H 0.69484 0.89239 0.58456 0.0
H1952 H 0.71649 0.91899 0.56094 0.0
H1953 H 0.61103 0.79985 0.46321 0.0
H1954 H 0.5794 0.81331 0.44159 0.0
H1955 H 0.57977 0.80521 0.48575 0.0
C1956 C 0.68862 0.19111 0.44757 0.0
C1957 C 0.68602 0.21787 0.43718 0.0
C1958 C 0.66493 0.16178 0.42932 0.0
C1959 C 0.63889 0.15948 0.39956 0.0
C1960 C 0.63399 0.18667 0.39213 0.0
C1961 C 0.6569 0.21559 0.41221 0.0
C1962 C 0.66954 0.13311 0.43954 0.0
C1963 C 0.60697 0.18613 0.36083 0.0
C1964 C 0.6233 0.08166 0.33925 0.0
C1965 C 0.59395 0.0647 0.34669 0.0
C1966 C 0.6356 0.11417 0.3513 0.0
C1967 C 0.61969 0.1288 0.37421 0.0
C1968 C 0.58752 0.1121 0.37656 0.0
C1969 C 0.57374 0.08037 0.35943 0.0
C1970 C 0.66759 0.13211 0.34336 0.0
C1971 C 0.56993 0.12598 0.40164 0.0
H1972 H 0.71082 0.19277 0.46713 0.0
H1973 H 0.65418 0.23611 0.40416 0.0
H1974 H 0.64527 0.11621 0.43947 0.0
H1975 H 0.67981 0.1214 0.41929 0.0
H1976 H 0.68712 0.13886 0.46665 0.0
H1977 H 0.6181 0.20099 0.34345 0.0
H1978 H 0.5922 0.16256 0.34318 0.0
H1979 H 0.58986 0.19646 0.37206 0.0
H1980 H 0.63846 0.06957 0.32815 0.0
H1981 H 0.5502 0.06704 0.36346 0.0
H1982 H 0.68906 0.13281 0.36444 0.0
H1983 H 0.66917 0.15643 0.34334 0.0
H1984 H 0.66971 0.12056 0.31644 0.0
H1985 H 0.58141 0.12676 0.43026 0.0
H1986 H 0.54318 0.11181 0.39517 0.0
H1987 H 0.57217 0.15008 0.40014 0.0
C1988 C 0.88699 0.68333 0.45898 0.0
C1989 C 0.86782 0.67223 0.42281 0.0
C1990 C 0.9102 0.67002 0.47189 0.0
C1991 C 0.91439 0.64566 0.44763 0.0
C1992 C 0.89473 0.63414 0.41123 0.0
C1993 C 0.87147 0.64755 0.39929 0.0
C1994 C 0.93059 0.6823 0.51104 0.0
C1995 C 0.89905 0.60844 0.38454 0.0
C1996 C 0.99601 0.63256 0.45979 0.0
C1997 C 0.98788 0.60462 0.47054 0.0
C1998 C 0.97255 0.64708 0.45375 0.0
C1999 C 0.9407 0.63326 0.45925 0.0
C2000 C 0.93305 0.60577 0.47196 0.0
C2001 C 0.95687 0.59143 0.47711 0.0
C2002 C 0.98127 0.6762 0.43971 0.0
C2003 C 0.89945 0.59093 0.47871 0.0
H2004 H 0.88385 0.70241 0.47701 0.0
H2005 H 0.85683 0.63942 0.37116 0.0
H2006 H 0.92892 0.66284 0.52459 0.0
H2007 H 0.95714 0.69348 0.51177 0.0
H2008 H 0.9224 0.69966 0.52704 0.0
H2009 H 0.88115 0.60183 0.35742 0.0
H2010 H 0.92464 0.61605 0.38068 0.0
H2011 H 0.89569 0.58744 0.39549 0.0
H2012 H 0.02038 0.64245 0.45509 0.0
H2013 H 0.95126 0.56986 0.48589 0.0
H2014 H 0.97572 0.69492 0.45682 0.0
H2015 H 0.96589 0.67122 0.41148 0.0
H2016 H 1.00789 0.685 0.43939 0.0
H2017 H 0.89211 0.60869 0.49516 0.0
H2018 H 0.89913 0.57211 0.4931 0.0
H2019 H 0.88044 0.58082 0.45224 0.0
C2020 C 0.31074 0.8736 0.3392 0.0
C2021 C 0.31105 0.84923 0.35596 0.0
C2022 C 0.33776 0.90151 0.35049 0.0
C2023 C 0.36403 0.90503 0.38035 0.0
C2024 C 0.3602 0.88318 0.40219 0.0
C2025 C 0.33383 0.85484 0.38911 0.0
C2026 C 0.34077 0.92404 0.32635 0.0
C2027 C 0.38707 0.88701 0.43534 0.0
C2028 C 0.45277 0.92698 0.3748 0.0
C2029 C 0.46676 0.95558 0.4005 0.0
C2030 C 0.41841 0.91146 0.36534 0.0
C2031 C 0.39808 0.92503 0.38247 0.0
C2032 C 0.41196 0.95533 0.40572 0.0
C2033 C 0.44634 0.97043 0.41412 0.0
C2034 C 0.40426 0.87958 0.33908 0.0
C2035 C 0.39096 0.97166 0.42227 0.0
H2036 H 0.29269 0.86891 0.31349 0.0
H2037 H 0.33366 0.83584 0.40205 0.0
H2038 H 0.35585 0.9482 0.3421 0.0
H2039 H 0.35316 0.91716 0.30508 0.0
H2040 H 0.31589 0.92348 0.31223 0.0
H2041 H 0.4065 0.87882 0.42649 0.0
H2042 H 0.39901 0.91182 0.45046 0.0
H2043 H 0.37698 0.87303 0.45398 0.0
H2044 H 0.46879 0.9161 0.36354 0.0
H2045 H 0.45734 0.99375 0.43162 0.0
H2046 H 0.38154 0.87744 0.31877 0.0
H2047 H 0.39723 0.86147 0.35443 0.0
H2048 H 0.42241 0.87464 0.32419 0.0
H2049 H 0.38084 0.98325 0.4024 0.0
H2050 H 0.40585 0.98989 0.44764 0.0
H2051 H 0.36958 0.95513 0.4285 0.0
C2052 C 0.25224 0.35648 0.36323 0.0
C2053 C 0.24569 0.35022 0.32484 0.0
C2054 C 0.23751 0.37474 0.38302 0.0
C2055 C 0.21581 0.38754 0.36425 0.0
C2056 C 0.20957 0.3818 0.3256 0.0
C2057 C 0.22438 0.36316 0.30643 0.0
C2058 C 0.24467 0.37979 0.42406 0.0
C2059 C 0.18694 0.39516 0.30437 0.0
C2060 C 0.15257 0.41055 0.41007 0.0
C2061 C 0.16809 0.44299 0.4236 0.0
C2062 C 0.16783 0.3923 0.39103 0.0
C2063 C 0.19944 0.40664 0.38499 0.0
C2064 C 0.21538 0.43929 0.39884 0.0
C2065 C 0.19962 0.45695 0.41786 0.0
C2066 C 0.1501 0.35754 0.37741 0.0
C2067 C 0.24906 0.45569 0.39325 0.0
H2068 H 0.26839 0.34649 0.37796 0.0
H2069 H 0.21906 0.3586 0.27691 0.0
H2070 H 0.2547 0.40508 0.43743 0.0
H2071 H 0.22128 0.36972 0.43209 0.0
H2072 H 0.26273 0.36897 0.43475 0.0
H2073 H 0.18519 0.38922 0.27458 0.0
H2074 H 0.16164 0.38619 0.30864 0.0
H2075 H 0.19611 0.42089 0.31448 0.0
H2076 H 0.12851 0.39927 0.41466 0.0
H2077 H 0.21182 0.48196 0.42756 0.0
H2078 H 0.16589 0.34507 0.38912 0.0
H2079 H 0.14561 0.35055 0.34726 0.0
H2080 H 0.12589 0.34979 0.38467 0.0
H2081 H 0.26741 0.44572 0.40523 0.0
H2082 H 0.2583 0.48114 0.40584 0.0
H2083 H 0.24775 0.452 0.36359 0.0
C2084 C 0.37853 0.18088 0.59905 0.0
C2085 C 0.38353 0.19136 0.6367 0.0
C2086 C 0.3928 0.15977 0.58494 0.0
C2087 C 0.41325 0.14942 0.60918 0.0
C2088 C 0.41713 0.15884 0.64734 0.0
C2089 C 0.40208 0.17973 0.66072 0.0
C2090 C 0.38714 0.15034 0.54413 0.0
C2091 C 0.43802 0.14768 0.67402 0.0
C2092 C 0.43641 0.08026 0.57068 0.0
C2093 C 0.46829 0.09496 0.56641 0.0
C2094 C 0.41815 0.09767 0.58454 0.0
C2095 C 0.43228 0.13053 0.59486 0.0
C2096 C 0.4645 0.14554 0.59094 0.0
C2097 C 0.48212 0.12757 0.57673 0.0
C2098 C 0.38356 0.08095 0.58759 0.0
C2099 C 0.48001 0.18062 0.60092 0.0
H2100 H 0.36362 0.18947 0.58048 0.0
H2101 H 0.40574 0.18778 0.68995 0.0
H2102 H 0.4059 0.16832 0.53614 0.0
H2103 H 0.38922 0.12722 0.53469 0.0
H2104 H 0.36225 0.1497 0.52997 0.0
H2105 H 0.43642 0.15527 0.70254 0.0
H2106 H 0.43003 0.12187 0.66632 0.0
H2107 H 0.4644 0.15689 0.67306 0.0
H2108 H 0.42572 0.05505 0.56344 0.0
H2109 H 0.50642 0.13913 0.57286 0.0
H2110 H 0.36534 0.08822 0.57034 0.0
H2111 H 0.38184 0.08745 0.61621 0.0
H2112 H 0.37635 0.0552 0.57888 0.0
H2113 H 0.46448 0.19049 0.58379 0.0
H2114 H 0.50558 0.18865 0.59702 0.0
H2115 H 0.48096 0.19011 0.62987 0.0
C2116 C 0.8342 0.36173 0.70671 0.0
C2117 C 0.84313 0.33859 0.72053 0.0
C2118 C 0.85487 0.3809 0.68953 0.0
C2119 C 0.8849 0.37643 0.68541 0.0
C2120 C 0.89328 0.35217 0.6979 0.0
C2121 C 0.87251 0.33379 0.71566 0.0
C2122 C 0.84518 0.40671 0.67703 0.0
C2123 C 0.92462 0.34609 0.69336 0.0
C2124 C 0.92927 0.41672 0.62063 0.0
C2125 C 0.95359 0.44329 0.64518 0.0
C2126 C 0.90701 0.39439 0.63325 0.0
C2127 C 0.9089 0.39895 0.67121 0.0
C2128 C 0.93354 0.42559 0.696 0.0
C2129 C 0.95554 0.44726 0.68273 0.0
C2130 C 0.88146 0.36596 0.60606 0.0
C2131 C 0.93647 0.43148 0.73666 0.0
H2132 H 0.81152 0.36553 0.71035 0.0
H2133 H 0.87931 0.3156 0.72574 0.0
H2134 H 0.86378 0.42962 0.69288 0.0
H2135 H 0.84507 0.40499 0.64782 0.0
H2136 H 0.82029 0.40614 0.68055 0.0
H2137 H 0.9258 0.32441 0.70108 0.0
H2138 H 0.92632 0.34421 0.66461 0.0
H2139 H 0.94663 0.36592 0.7107 0.0
H2140 H 0.92769 0.41333 0.59161 0.0
H2141 H 0.97422 0.46762 0.70201 0.0
H2142 H 0.85609 0.3657 0.607 0.0
H2143 H 0.88384 0.3445 0.61334 0.0
H2144 H 0.88397 0.36518 0.57766 0.0
H2145 H 0.91287 0.43296 0.74237 0.0
H2146 H 0.957 0.45335 0.75229 0.0
H2147 H 0.94089 0.41181 0.74689 0.0
C2148 C 0.26266 0.70117 0.68498 0.0
C2149 C 0.2537 0.72754 0.6843 0.0
C2150 C 0.24213 0.67236 0.66173 0.0
C2151 C 0.21269 0.67069 0.63743 0.0
C2152 C 0.20676 0.69824 0.63276 0.0
C2153 C 0.2272 0.72655 0.65695 0.0
C2154 C 0.24913 0.64335 0.66722 0.0
C2155 C 0.17604 0.69728 0.60637 0.0
C2156 C 0.14988 0.59301 0.58162 0.0
C2157 C 0.12839 0.58686 0.6046 0.0
C2158 C 0.178 0.62009 0.59197 0.0
C2159 C 0.18438 0.64121 0.62593 0.0
C2160 C 0.16307 0.63474 0.64952 0.0
C2161 C 0.13534 0.6076 0.63852 0.0
C2162 C 0.20018 0.62636 0.5662 0.0
C2163 C 0.16922 0.65662 0.6863 0.0
H2164 H 0.28328 0.70229 0.70646 0.0
H2165 H 0.22072 0.74732 0.65663 0.0
H2166 H 0.2336 0.63245 0.68456 0.0
H2167 H 0.24267 0.62605 0.64074 0.0
H2168 H 0.27562 0.6487 0.68103 0.0
H2169 H 0.17892 0.72028 0.6001 0.0
H2170 H 0.17025 0.67945 0.58049 0.0
H2171 H 0.15455 0.69097 0.61871 0.0
H2172 H 0.14472 0.57671 0.55558 0.0
H2173 H 0.11887 0.60288 0.65644 0.0
H2174 H 0.2267 0.63779 0.58121 0.0
H2175 H 0.19326 0.64228 0.55039 0.0
H2176 H 0.19742 0.60456 0.54654 0.0
H2177 H 0.19397 0.65999 0.7036 0.0
H2178 H 0.15018 0.64782 0.70123 0.0
H2179 H 0.16911 0.67978 0.68269 0.0
loop_
_geom_bond_atom_site_label_1
_geom_bond_atom_site_label_2
_geom_bond_distance
_geom_bond_site_symmetry_2
_ccdc_geom_bond_type
Dy0 O3 2.307 . S
Dy0 O5 2.395 . S
Dy0 O6 2.379 . S
Dy0 O8 2.339 . S
Dy0 O10 2.298 . S
Dy0 O14 2.275 . S
Dy0 C22 2.738 . S
Dy1 O4 2.298 . S
Dy1 O7 2.275 . S
Dy1 O9 2.307 . S
Dy1 O11 2.395 . S
Dy1 O12 2.379 . S
Dy1 O15 2.339 . S
Dy1 C31 2.738 . S
C2 O14 1.254 . S
C2 O15 1.257 . S
O3 Dy0 2.307 . S
O3 C13 1.266 . S
O4 Dy1 2.298 . S
O4 C13 1.236 . S
O5 Dy0 2.395 . S
O5 C22 1.255 . S
O6 Dy0 2.379 . S
O6 C22 1.249 . S
O7 Dy1 2.275 . S
O7 C23 1.254 . S
O8 Dy0 2.339 . S
O8 C23 1.257 . S
O9 Dy1 2.307 . S
O9 C24 1.266 . S
O10 Dy0 2.298 . S
O10 C24 1.236 . S
O11 Dy1 2.395 . S
O11 C31 1.255 . S
O12 Dy1 2.379 . S
O12 C31 1.249 . S
C13 O3 1.266 . S
C13 O4 1.236 . S
O14 Dy0 2.275 . S
O14 C2 1.254 . S
O15 Dy1 2.339 . S
O15 C2 1.257 . S
C16 C19 1.344 . S
C16 C20 1.328 . S
C16 C22 1.516 . S
C17 C18 1.304 . S
C17 C21 1.323 . S
C18 C17 1.304 . S
C18 C19 1.371 . S
C18 H32 0.930 . S
C19 C16 1.344 . S
C19 C18 1.371 . S
C19 H33 0.931 . S
C20 C16 1.328 . S
C20 C21 1.433 . S
C20 H34 0.931 . S
C21 C17 1.323 . S
C21 C20 1.433 . S
C21 H35 0.933 . S
C22 Dy0 2.738 . S
C22 O5 1.255 . S
C22 O6 1.249 . S
C22 C16 1.516 . S
C23 O7 1.254 . S
C23 O8 1.257 . S
C24 O9 1.266 . S
C24 O10 1.236 . S
C25 C28 1.344 . S
C25 C29 1.328 . S
C25 C31 1.516 . S
C26 C27 1.304 . S
C26 C30 1.323 . S
C27 C26 1.304 . S
C27 C28 1.371 . S
C27 H36 0.930 . S
C28 C25 1.344 . S
C28 C27 1.371 . S
C28 H37 0.931 . S
C29 C25 1.328 . S
C29 C30 1.433 . S
C29 H38 0.931 . S
C30 C26 1.323 . S
C30 C29 1.433 . S
C30 H39 0.933 . S
C31 Dy1 2.738 . S
C31 O11 1.255 . S
C31 O12 1.249 . S
C31 C25 1.516 . S
H32 C18 0.930 . S
H33 C19 0.931 . S
H34 C20 0.931 . S
H35 C21 0.933 . S
H36 C27 0.930 . S
H37 C28 0.931 . S
H38 C29 0.931 . S
H39 C30 0.933 . S
Dy40 O43 2.307 . S
Dy40 O45 2.395 . S
Dy40 O46 2.379 . S
Dy40 O48 2.339 . S
Dy40 O50 2.298 . S
Dy40 O54 2.275 . S
Dy40 C62 2.738 . S
Dy41 O44 2.298 . S
Dy41 O47 2.275 . S
Dy41 O49 2.307 . S
Dy41 O51 2.395 . S
Dy41 O52 2.379 . S
Dy41 O55 2.339 . S
Dy41 C71 2.738 . S
C42 O54 1.254 . S
C42 O55 1.257 . S
O43 Dy40 2.307 . S
O43 C53 1.266 . S
O44 Dy41 2.298 . S
O44 C53 1.236 . S
O45 Dy40 2.395 . S
O45 C62 1.255 . S
O46 Dy40 2.379 . S
O46 C62 1.249 . S
O47 Dy41 2.275 . S
O47 C63 1.254 . S
O48 Dy40 2.339 . S
O48 C63 1.257 . S
O49 Dy41 2.307 . S
O49 C64 1.266 . S
O50 Dy40 2.298 . S
O50 C64 1.236 . S
O51 Dy41 2.395 . S
O51 C71 1.255 . S
O52 Dy41 2.379 . S
O52 C71 1.249 . S
C53 O43 1.266 . S
C53 O44 1.236 . S
O54 Dy40 2.275 . S
O54 C42 1.254 . S
O55 Dy41 2.339 . S
O55 C42 1.257 . S
C56 C59 1.344 . S
C56 C60 1.328 . S
C56 C62 1.516 . S
C57 C58 1.304 . S
C57 C61 1.323 . S
C58 C57 1.304 . S
C58 C59 1.371 . S
C58 H72 0.930 . S
C59 C56 1.344 . S
C59 C58 1.371 . S
C59 H73 0.931 . S
C60 C56 1.328 . S
C60 C61 1.433 . S
C60 H74 0.931 . S
C61 C57 1.323 . S
C61 C60 1.433 . S
C61 H75 0.933 . S
C62 Dy40 2.738 . S
C62 O45 1.255 . S
C62 O46 1.249 . S
C62 C56 1.516 . S
C63 O47 1.254 . S
C63 O48 1.257 . S
C64 O49 1.266 . S
C64 O50 1.236 . S
C65 C68 1.344 . S
C65 C69 1.328 . S
C65 C71 1.516 . S
C66 C67 1.304 . S
C66 C70 1.323 . S
C67 C66 1.304 . S
C67 C68 1.371 . S
C67 H76 0.930 . S
C68 C65 1.344 . S
C68 C67 1.371 . S
C68 H77 0.931 . S
C69 C65 1.328 . S
C69 C70 1.433 . S
C69 H78 0.931 . S
C70 C66 1.323 . S
C70 C69 1.433 . S
C70 H79 0.933 . S
C71 Dy41 2.738 . S
C71 O51 1.255 . S
C71 O52 1.249 . S
C71 C65 1.516 . S
H72 C58 0.930 . S
H73 C59 0.931 . S
H74 C60 0.931 . S
H75 C61 0.933 . S
H76 C67 0.930 . S
H77 C68 0.931 . S
H78 C69 0.931 . S
H79 C70 0.933 . S
Dy80 O83 2.307 . S
Dy80 O85 2.395 . S
Dy80 O86 2.379 . S
Dy80 O88 2.339 . S
Dy80 O90 2.298 . S
Dy80 O94 2.275 . S
Dy80 C102 2.738 . S
Dy81 O84 2.298 . S
Dy81 O87 2.275 . S
Dy81 O89 2.307 . S
Dy81 O91 2.395 . S
Dy81 O92 2.379 . S
Dy81 O95 2.339 . S
Dy81 C111 2.738 . S
C82 O94 1.254 . S
C82 O95 1.257 . S
O83 Dy80 2.307 . S
O83 C93 1.266 . S
O84 Dy81 2.298 . S
O84 C93 1.236 . S
O85 Dy80 2.395 . S
O85 C102 1.255 . S
O86 Dy80 2.379 . S
O86 C102 1.249 . S
O87 Dy81 2.275 . S
O87 C103 1.254 . S
O88 Dy80 2.339 . S
O88 C103 1.257 . S
O89 Dy81 2.307 . S
O89 C104 1.266 . S
O90 Dy80 2.298 . S
O90 C104 1.236 . S
O91 Dy81 2.395 . S
O91 C111 1.255 . S
O92 Dy81 2.379 . S
O92 C111 1.249 . S
C93 O83 1.266 . S
C93 O84 1.236 . S
O94 Dy80 2.275 . S
O94 C82 1.254 . S
O95 Dy81 2.339 . S
O95 C82 1.257 . S
C96 C99 1.344 . S
C96 C100 1.328 . S
C96 C102 1.516 . S
C97 C98 1.304 . S
C97 C101 1.323 . S
C98 C97 1.304 . S
C98 C99 1.371 . S
C98 H112 0.930 . S
C99 C96 1.344 . S
C99 C98 1.371 . S
C99 H113 0.931 . S
C100 C96 1.328 . S
C100 C101 1.433 . S
C100 H114 0.931 . S
C101 C97 1.323 . S
C101 C100 1.433 . S
C101 H115 0.933 . S
C102 Dy80 2.738 . S
C102 O85 1.255 . S
C102 O86 1.249 . S
C102 C96 1.516 . S
C103 O87 1.254 . S
C103 O88 1.257 . S
C104 O89 1.266 . S
C104 O90 1.236 . S
C105 C108 1.344 . S
C105 C109 1.328 . S
C105 C111 1.516 . S
C106 C107 1.304 . S
C106 C110 1.323 . S
C107 C106 1.304 . S
C107 C108 1.371 . S
C107 H116 0.930 . S
C108 C105 1.344 . S
C108 C107 1.371 . S
C108 H117 0.931 . S
C109 C105 1.328 . S
C109 C110 1.433 . S
C109 H118 0.931 . S
C110 C106 1.323 . S
C110 C109 1.433 . S
C110 H119 0.933 . S
C111 Dy81 2.738 . S
C111 O91 1.255 . S
C111 O92 1.249 . S
C111 C105 1.516 . S
H112 C98 0.930 . S
H113 C99 0.931 . S
H114 C100 0.931 . S
H115 C101 0.933 . S
H116 C107 0.930 . S
H117 C108 0.931 . S
H118 C109 0.931 . S
H119 C110 0.933 . S
Dy120 O123 2.307 . S
Dy120 O125 2.395 . S
Dy120 O126 2.379 . S
Dy120 O128 2.339 . S
Dy120 O130 2.298 . S
Dy120 O134 2.275 . S
Dy120 C142 2.738 . S
Dy121 O124 2.298 . S
Dy121 O127 2.275 . S
Dy121 O129 2.307 . S
Dy121 O131 2.395 . S
Dy121 O132 2.379 . S
Dy121 O135 2.339 . S
Dy121 C151 2.738 . S
C122 O134 1.254 . S
C122 O135 1.257 . S
O123 Dy120 2.307 . S
O123 C133 1.266 . S
O124 Dy121 2.298 . S
O124 C133 1.236 . S
O125 Dy120 2.395 . S
O125 C142 1.255 . S
O126 Dy120 2.379 . S
O126 C142 1.249 . S
O127 Dy121 2.275 . S
O127 C143 1.254 . S
O128 Dy120 2.339 . S
O128 C143 1.257 . S
O129 Dy121 2.307 . S
O129 C144 1.266 . S
O130 Dy120 2.298 . S
O130 C144 1.236 . S
O131 Dy121 2.395 . S
O131 C151 1.255 . S
O132 Dy121 2.379 . S
O132 C151 1.249 . S
C133 O123 1.266 . S
C133 O124 1.236 . S
O134 Dy120 2.275 . S
O134 C122 1.254 . S
O135 Dy121 2.339 . S
O135 C122 1.257 . S
C136 C139 1.344 . S
C136 C140 1.328 . S
C136 C142 1.516 . S
C137 C138 1.304 . S
C137 C141 1.323 . S
C138 C137 1.304 . S
C138 C139 1.371 . S
C138 H152 0.930 . S
C139 C136 1.344 . S
C139 C138 1.371 . S
C139 H153 0.931 . S
C140 C136 1.328 . S
C140 C141 1.433 . S
C140 H154 0.931 . S
C141 C137 1.323 . S
C141 C140 1.433 . S
C141 H155 0.933 . S
C142 Dy120 2.738 . S
C142 O125 1.255 . S
C142 O126 1.249 . S
C142 C136 1.516 . S
C143 O127 1.254 . S
C143 O128 1.257 . S
C144 O129 1.266 . S
C144 O130 1.236 . S
C145 C148 1.344 . S
C145 C149 1.328 . S
C145 C151 1.516 . S
C146 C147 1.304 . S
C146 C150 1.323 . S
C147 C146 1.304 . S
C147 C148 1.371 . S
C147 H156 0.930 . S
C148 C145 1.344 . S
C148 C147 1.371 . S
C148 H157 0.931 . S
C149 C145 1.328 . S
C149 C150 1.433 . S
C149 H158 0.931 . S
C150 C146 1.323 . S
C150 C149 1.433 . S
C150 H159 0.933 . S
C151 Dy121 2.738 . S
C151 O131 1.255 . S
C151 O132 1.249 . S
C151 C145 1.516 . S
H152 C138 0.930 . S
H153 C139 0.931 . S
H154 C140 0.931 . S
H155 C141 0.933 . S
H156 C147 0.930 . S
H157 C148 0.931 . S
H158 C149 0.931 . S
H159 C150 0.933 . S
Dy160 O163 2.307 . S
Dy160 O165 2.395 . S
Dy160 O166 2.379 . S
Dy160 O168 2.339 . S
Dy160 O170 2.298 . S
Dy160 O174 2.275 . S
Dy160 C182 2.738 . S
Dy161 O164 2.298 . S
Dy161 O167 2.275 . S
Dy161 O169 2.307 . S
Dy161 O171 2.395 . S
Dy161 O172 2.379 . S
Dy161 O175 2.339 . S
Dy161 C191 2.738 . S
C162 O174 1.254 . S
C162 O175 1.257 . S
O163 Dy160 2.307 . S
O163 C173 1.266 . S
O164 Dy161 2.298 . S
O164 C173 1.236 . S
O165 Dy160 2.395 . S
O165 C182 1.255 . S
O166 Dy160 2.379 . S
O166 C182 1.249 . S
O167 Dy161 2.275 . S
O167 C183 1.254 . S
O168 Dy160 2.339 . S
O168 C183 1.257 . S
O169 Dy161 2.307 . S
O169 C184 1.266 . S
O170 Dy160 2.298 . S
O170 C184 1.236 . S
O171 Dy161 2.395 . S
O171 C191 1.255 . S
O172 Dy161 2.379 . S
O172 C191 1.249 . S
C173 O163 1.266 . S
C173 O164 1.236 . S
O174 Dy160 2.275 . S
O174 C162 1.254 . S
O175 Dy161 2.339 . S
O175 C162 1.257 . S
C176 C179 1.344 . S
C176 C180 1.328 . S
C176 C182 1.516 . S
C177 C178 1.304 . S
C177 C181 1.323 . S
C178 C177 1.304 . S
C178 C179 1.371 . S
C178 H192 0.930 . S
C179 C176 1.344 . S
C179 C178 1.371 . S
C179 H193 0.931 . S
C180 C176 1.328 . S
C180 C181 1.433 . S
C180 H194 0.931 . S
C181 C177 1.323 . S
C181 C180 1.433 . S
C181 H195 0.933 . S
C182 Dy160 2.738 . S
C182 O165 1.255 . S
C182 O166 1.249 . S
C182 C176 1.516 . S
C183 O167 1.254 . S
C183 O168 1.257 . S
C184 O169 1.266 . S
C184 O170 1.236 . S
C185 C188 1.344 . S
C185 C189 1.328 . S
C185 C191 1.516 . S
C186 C187 1.304 . S
C186 C190 1.323 . S
C187 C186 1.304 . S
C187 C188 1.371 . S
C187 H196 0.930 . S
C188 C185 1.344 . S
C188 C187 1.371 . S
C188 H197 0.931 . S
C189 C185 1.328 . S
C189 C190 1.433 . S
C189 H198 0.931 . S
C190 C186 1.323 . S
C190 C189 1.433 . S
C190 H199 0.933 . S
C191 Dy161 2.738 . S
C191 O171 1.255 . S
C191 O172 1.249 . S
C191 C185 1.516 . S
H192 C178 0.930 . S
H193 C179 0.931 . S
H194 C180 0.931 . S
H195 C181 0.933 . S
H196 C187 0.930 . S
H197 C188 0.931 . S
H198 C189 0.931 . S
H199 C190 0.933 . S
Dy200 O203 2.307 . S
Dy200 O205 2.395 . S
Dy200 O206 2.379 . S
Dy200 O208 2.339 . S
Dy200 O210 2.298 . S
Dy200 O214 2.275 . S
Dy200 C222 2.738 . S
Dy201 O204 2.298 . S
Dy201 O207 2.275 . S
Dy201 O209 2.307 . S
Dy201 O211 2.395 . S
Dy201 O212 2.379 . S
Dy201 O215 2.339 . S
Dy201 C231 2.738 . S
C202 O214 1.254 . S
C202 O215 1.257 . S
O203 Dy200 2.307 . S
O203 C213 1.266 . S
O204 Dy201 2.298 . S
O204 C213 1.236 . S
O205 Dy200 2.395 . S
O205 C222 1.255 . S
O206 Dy200 2.379 . S
O206 C222 1.249 . S
O207 Dy201 2.275 . S
O207 C223 1.254 . S
O208 Dy200 2.339 . S
O208 C223 1.257 . S
O209 Dy201 2.307 . S
O209 C224 1.266 . S
O210 Dy200 2.298 . S
O210 C224 1.236 . S
O211 Dy201 2.395 . S
O211 C231 1.255 . S
O212 Dy201 2.379 . S
O212 C231 1.249 . S
C213 O203 1.266 . S
C213 O204 1.236 . S
O214 Dy200 2.275 . S
O214 C202 1.254 . S
O215 Dy201 2.339 . S
O215 C202 1.257 . S
C216 C219 1.344 . S
C216 C220 1.328 . S
C216 C222 1.516 . S
C217 C218 1.304 . S
C217 C221 1.323 . S
C218 C217 1.304 . S
C218 C219 1.371 . S
C218 H232 0.930 . S
C219 C216 1.344 . S
C219 C218 1.371 . S
C219 H233 0.931 . S
C220 C216 1.328 . S
C220 C221 1.433 . S
C220 H234 0.931 . S
C221 C217 1.323 . S
C221 C220 1.433 . S
C221 H235 0.933 . S
C222 Dy200 2.738 . S
C222 O205 1.255 . S
C222 O206 1.249 . S
C222 C216 1.516 . S
C223 O207 1.254 . S
C223 O208 1.257 . S
C224 O209 1.266 . S
C224 O210 1.236 . S
C225 C228 1.344 . S
C225 C229 1.328 . S
C225 C231 1.516 . S
C226 C227 1.304 . S
C226 C230 1.323 . S
C227 C226 1.304 . S
C227 C228 1.371 . S
C227 H236 0.930 . S
C228 C225 1.344 . S
C228 C227 1.371 . S
C228 H237 0.931 . S
C229 C225 1.328 . S
C229 C230 1.433 . S
C229 H238 0.931 . S
C230 C226 1.323 . S
C230 C229 1.433 . S
C230 H239 0.933 . S
C231 Dy201 2.738 . S
C231 O211 1.255 . S
C231 O212 1.249 . S
C231 C225 1.516 . S
H232 C218 0.930 . S
H233 C219 0.931 . S
H234 C220 0.931 . S
H235 C221 0.933 . S
H236 C227 0.930 . S
H237 C228 0.931 . S
H238 C229 0.931 . S
H239 C230 0.933 . S
Dy240 O243 2.307 . S
Dy240 O245 2.395 . S
Dy240 O246 2.379 . S
Dy240 O248 2.339 . S
Dy240 O250 2.298 . S
Dy240 O254 2.275 . S
Dy240 C262 2.738 . S
Dy241 O244 2.298 . S
Dy241 O247 2.275 . S
Dy241 O249 2.307 . S
Dy241 O251 2.395 . S
Dy241 O252 2.379 . S
Dy241 O255 2.339 . S
Dy241 C271 2.738 . S
C242 O254 1.254 . S
C242 O255 1.257 . S
O243 Dy240 2.307 . S
O243 C253 1.266 . S
O244 Dy241 2.298 . S
O244 C253 1.236 . S
O245 Dy240 2.395 . S
O245 C262 1.255 . S
O246 Dy240 2.379 . S
O246 C262 1.249 . S
O247 Dy241 2.275 . S
O247 C263 1.254 . S
O248 Dy240 2.339 . S
O248 C263 1.257 . S
O249 Dy241 2.307 . S
O249 C264 1.266 . S
O250 Dy240 2.298 . S
O250 C264 1.236 . S
O251 Dy241 2.395 . S
O251 C271 1.255 . S
O252 Dy241 2.379 . S
O252 C271 1.249 . S
C253 O243 1.266 . S
C253 O244 1.236 . S
O254 Dy240 2.275 . S
O254 C242 1.254 . S
O255 Dy241 2.339 . S
O255 C242 1.257 . S
C256 C259 1.344 . S
C256 C260 1.328 . S
C256 C262 1.516 . S
C257 C258 1.304 . S
C257 C261 1.323 . S
C258 C257 1.304 . S
C258 C259 1.371 . S
C258 H272 0.930 . S
C259 C256 1.344 . S
C259 C258 1.371 . S
C259 H273 0.931 . S
C260 C256 1.328 . S
C260 C261 1.433 . S
C260 H274 0.931 . S
C261 C257 1.323 . S
C261 C260 1.433 . S
C261 H275 0.933 . S
C262 Dy240 2.738 . S
C262 O245 1.255 . S
C262 O246 1.249 . S
C262 C256 1.516 . S
C263 O247 1.254 . S
C263 O248 1.257 . S
C264 O249 1.266 . S
C264 O250 1.236 . S
C265 C268 1.344 . S
C265 C269 1.328 . S
C265 C271 1.516 . S
C266 C267 1.304 . S
C266 C270 1.323 . S
C267 C266 1.304 . S
C267 C268 1.371 . S
C267 H276 0.930 . S
C268 C265 1.344 . S
C268 C267 1.371 . S
C268 H277 0.931 . S
C269 C265 1.328 . S
C269 C270 1.433 . S
C269 H278 0.931 . S
C270 C266 1.323 . S
C270 C269 1.433 . S
C270 H279 0.933 . S
C271 Dy241 2.738 . S
C271 O251 1.255 . S
C271 O252 1.249 . S
C271 C265 1.516 . S
H272 C258 0.930 . S
H273 C259 0.931 . S
H274 C260 0.931 . S
H275 C261 0.933 . S
H276 C267 0.930 . S
H277 C268 0.931 . S
H278 C269 0.931 . S
H279 C270 0.933 . S
Dy280 O283 2.307 . S
Dy280 O285 2.395 . S
Dy280 O286 2.379 . S
Dy280 O288 2.339 . S
Dy280 O290 2.298 . S
Dy280 O294 2.275 . S
Dy280 C302 2.738 . S
Dy281 O284 2.298 . S
Dy281 O287 2.275 . S
Dy281 O289 2.307 . S
Dy281 O291 2.395 . S
Dy281 O292 2.379 . S
Dy281 O295 2.339 . S
Dy281 C311 2.738 . S
C282 O294 1.254 . S
C282 O295 1.257 . S
O283 Dy280 2.307 . S
O283 C293 1.266 . S
O284 Dy281 2.298 . S
O284 C293 1.236 . S
O285 Dy280 2.395 . S
O285 C302 1.255 . S
O286 Dy280 2.379 . S
O286 C302 1.249 . S
O287 Dy281 2.275 . S
O287 C303 1.254 . S
O288 Dy280 2.339 . S
O288 C303 1.257 . S
O289 Dy281 2.307 . S
O289 C304 1.266 . S
O290 Dy280 2.298 . S
O290 C304 1.236 . S
O291 Dy281 2.395 . S
O291 C311 1.255 . S
O292 Dy281 2.379 . S
O292 C311 1.249 . S
C293 O283 1.266 . S
C293 O284 1.236 . S
O294 Dy280 2.275 . S
O294 C282 1.254 . S
O295 Dy281 2.339 . S
O295 C282 1.257 . S
C296 C299 1.344 . S
C296 C300 1.328 . S
C296 C302 1.516 . S
C297 C298 1.304 . S
C297 C301 1.323 . S
C298 C297 1.304 . S
C298 C299 1.371 . S
C298 H312 0.930 . S
C299 C296 1.344 . S
C299 C298 1.371 . S
C299 H313 0.931 . S
C300 C296 1.328 . S
C300 C301 1.433 . S
C300 H314 0.931 . S
C301 C297 1.323 . S
C301 C300 1.433 . S
C301 H315 0.933 . S
C302 Dy280 2.738 . S
C302 O285 1.255 . S
C302 O286 1.249 . S
C302 C296 1.516 . S
C303 O287 1.254 . S
C303 O288 1.257 . S
C304 O289 1.266 . S
C304 O290 1.236 . S
C305 C308 1.344 . S
C305 C309 1.328 . S
C305 C311 1.516 . S
C306 C307 1.304 . S
C306 C310 1.323 . S
C307 C306 1.304 . S
C307 C308 1.371 . S
C307 H316 0.930 . S
C308 C305 1.344 . S
C308 C307 1.371 . S
C308 H317 0.931 . S
C309 C305 1.328 . S
C309 C310 1.433 . S
C309 H318 0.931 . S
C310 C306 1.323 . S
C310 C309 1.433 . S
C310 H319 0.933 . S
C311 Dy281 2.738 . S
C311 O291 1.255 . S
C311 O292 1.249 . S
C311 C305 1.516 . S
H312 C298 0.930 . S
H313 C299 0.931 . S
H314 C300 0.931 . S
H315 C301 0.933 . S
H316 C307 0.930 . S
H317 C308 0.931 . S
H318 C309 0.931 . S
H319 C310 0.933 . S
Cd320 N323 2.334 1_545 S
Cd320 N349 2.304 1_455 S
Cd320 O356 2.268 1_445 S
Cd320 O359 2.273 . S
Cd320 O360 2.417 1_445 S
Cd320 O361 2.330 1_455 S
Cd321 N336 2.304 . S
Cd321 N340 2.334 . S
Cd321 O357 2.273 1_445 S
Cd321 O358 2.268 . S
Cd321 O362 2.417 . S
Cd321 O363 2.330 . S
C322 N323 1.332 . S
C322 C326 1.381 . S
C322 H328 0.931 1_565 S
N323 Cd320 2.334 1_565 S
N323 C322 1.332 . S
N323 C327 1.328 . S
C324 C325 1.396 . S
C324 C327 1.378 . S
C324 H366 0.931 . S
C325 C324 1.396 . S
C325 C326 1.382 . S
C326 C322 1.381 . S
C326 C325 1.382 . S
C326 H367 0.930 . S
C327 N323 1.328 . S
C327 C324 1.378 . S
C327 H329 0.930 . S
H328 C322 0.931 1_545 S
H329 C327 0.930 . S
C330 O356 1.238 . S
C330 O357 1.253 . S
C331 C332 1.379 . S
C331 N336 1.337 1_655 S
C331 H337 0.929 . S
C332 C331 1.379 . S
C332 C333 1.380 . S
C332 H368 0.929 . S
C333 C332 1.380 . S
C333 C334 1.399 . S
C334 C333 1.399 . S
C334 C335 1.376 1_655 S
C334 H369 0.931 . S
C335 C334 1.376 1_455 S
C335 N336 1.338 . S
C335 H338 0.930 . S
N336 Cd321 2.304 . S
N336 C331 1.337 1_455 S
N336 C335 1.338 . S
H337 C331 0.929 . S
H338 C335 0.930 . S
C339 N340 1.332 1_565 S
C339 C343 1.381 . S
C339 H345 0.931 . S
N340 Cd321 2.334 . S
N340 C339 1.332 1_545 S
N340 C344 1.328 . S
C341 C342 1.415 . S
C341 C344 1.354 1_565 S
C341 H370 0.937 1_565 S
C342 C341 1.415 . S
C342 C343 1.382 . S
C343 C339 1.381 . S
C343 C342 1.382 . S
C343 H371 0.930 . S
C344 N340 1.328 . S
C344 C341 1.354 1_545 S
C344 H346 0.930 . S
H345 C339 0.931 . S
H346 C344 0.930 . S
C347 O358 1.238 . S
C347 O359 1.253 . S
C348 O360 1.239 . S
C348 O361 1.230 1_565 S
N349 Cd320 2.304 1_655 S
N349 C350 1.337 . S
N349 C354 1.338 . S
C350 N349 1.337 . S
C350 C351 1.379 . S
C350 H364 0.939 . S
C351 C350 1.379 . S
C351 C352 1.380 . S
C351 H372 0.929 . S
C352 C351 1.380 . S
C352 C353 1.399 . S
C353 C352 1.399 . S
C353 C354 1.376 . S
C353 H373 0.931 . S
C354 N349 1.338 . S
C354 C353 1.376 . S
C354 H365 0.930 . S
C355 O362 1.239 . S
C355 O363 1.230 . S
O356 Cd320 2.268 1_665 S
O356 C330 1.238 . S
O357 Cd321 2.273 1_665 S
O357 C330 1.253 . S
O358 Cd321 2.268 . S
O358 C347 1.238 . S
O359 Cd320 2.273 . S
O359 C347 1.253 . S
O360 Cd320 2.417 1_665 S
O360 C348 1.239 . S
O361 Cd320 2.330 1_655 S
O361 C348 1.230 1_545 S
O362 Cd321 2.417 . S
O362 C355 1.239 . S
O363 Cd321 2.330 . S
O363 C355 1.230 . S
H364 C350 0.939 . S
H365 C354 0.930 . S
H366 C324 0.931 . S
H367 C326 0.930 . S
H368 C332 0.929 . S
H369 C334 0.931 . S
H370 C341 0.937 1_545 S
H371 C343 0.930 . S
H372 C351 0.929 . S
H373 C353 0.931 . S
Cd374 N377 2.334 1_545 S
Cd374 N403 2.304 . S
Cd374 O410 2.266 1_544 S
Cd374 O413 2.273 . S
Cd374 O414 2.417 1_545 S
Cd374 O415 2.330 . S
Cd375 N390 2.304 . S
Cd375 N394 2.334 . S
Cd375 O411 2.273 . S
Cd375 O412 2.268 1_556 S
Cd375 O416 2.417 . S
Cd375 O417 2.330 . S
C376 N377 1.332 1_545 S
C376 C380 1.381 1_545 S
C376 H382 0.931 . S
N377 Cd374 2.334 1_565 S
N377 C376 1.332 1_565 S
N377 C381 1.328 . S
C378 C379 1.396 . S
C378 C381 1.378 . S
C378 H420 0.931 1_554 S
C379 C378 1.396 . S
C379 C380 1.382 . S
C380 C376 1.381 1_565 S
C380 C379 1.382 . S
C380 H421 0.930 . S
C381 N377 1.328 . S
C381 C378 1.378 . S
C381 H383 0.930 1_554 S
H382 C376 0.931 . S
H383 C381 0.930 1_556 S
C384 O410 1.238 . S
C384 O411 1.253 1_565 S
C385 C386 1.379 . S
C385 N390 1.337 . S
C385 H391 0.929 . S
C386 C385 1.379 . S
C386 C387 1.380 . S
C386 H422 0.929 . S
C387 C386 1.380 . S
C387 C388 1.399 . S
C388 C387 1.399 . S
C388 C389 1.376 . S
C388 H423 0.931 1_556 S
C389 C388 1.376 . S
C389 N390 1.338 . S
C389 H392 0.930 1_556 S
N390 Cd375 2.304 . S
N390 C385 1.337 . S
N390 C389 1.338 . S
H391 C385 0.929 . S
H392 C389 0.930 1_554 S
C393 N394 1.332 1_565 S
C393 C397 1.381 . S
C393 H399 0.931 . S
N394 Cd375 2.334 . S
N394 C393 1.332 1_545 S
N394 C398 1.328 . S
C395 C396 1.396 1_545 S
C395 C398 1.378 . S
C395 H424 0.931 1_556 S
C396 C395 1.396 1_565 S
C396 C397 1.382 . S
C397 C393 1.381 . S
C397 C396 1.382 . S
C397 H425 0.930 . S
C398 N394 1.328 . S
C398 C395 1.378 . S
C398 H400 0.930 1_556 S
H399 C393 0.931 . S
H400 C398 0.930 1_554 S
C401 O412 1.238 . S
C401 O413 1.253 . S
C402 O414 1.239 . S
C402 O415 1.230 1_565 S
N403 Cd374 2.304 . S
N403 C404 1.337 . S
N403 C408 1.338 . S
C404 N403 1.337 . S
C404 C405 1.379 . S
C404 H418 0.929 . S
C405 C404 1.379 . S
C405 C406 1.380 . S
C405 H426 0.929 . S
C406 C405 1.380 . S
C406 C407 1.399 . S
C407 C406 1.399 . S
C407 C408 1.376 . S
C407 H427 0.931 1_554 S
C408 N403 1.338 . S
C408 C407 1.376 . S
C408 H419 0.930 1_554 S
C409 O416 1.239 . S
C409 O417 1.230 . S
O410 Cd374 2.266 1_566 S
O410 C384 1.238 . S
O411 Cd375 2.273 . S
O411 C384 1.253 1_545 S
O412 Cd375 2.268 1_554 S
O412 C401 1.238 . S
O413 Cd374 2.273 . S
O413 C401 1.253 . S
O414 Cd374 2.417 1_565 S
O414 C402 1.239 . S
O415 Cd374 2.330 . S
O415 C402 1.230 1_545 S
O416 Cd375 2.417 . S
O416 C409 1.239 . S
O417 Cd375 2.330 . S
O417 C409 1.230 . S
H418 C404 0.929 . S
H419 C408 0.930 1_556 S
H420 C378 0.931 1_556 S
H421 C380 0.930 . S
H422 C386 0.929 . S
H423 C388 0.931 1_554 S
H424 C395 0.931 1_554 S
H425 C397 0.930 . S
H426 C405 0.929 . S
H427 C407 0.931 1_556 S
Cd428 N431 2.334 1_655 S
Cd428 N457 2.304 . S
Cd428 O464 2.268 . S
Cd428 O467 2.273 1_655 S
Cd428 O468 2.417 . S
Cd428 O469 2.330 . S
Cd429 N444 2.304 1_455 S
Cd429 N448 2.334 . S
Cd429 O465 2.273 1_454 S
Cd429 O466 2.268 . S
Cd429 O470 2.417 . S
Cd429 O471 2.330 1_554 S
C430 N431 1.332 . S
C430 C434 1.381 . S
C430 H436 0.931 . S
N431 Cd428 2.334 1_455 S
N431 C430 1.332 . S
N431 C435 1.328 . S
C432 C433 1.396 . S
C432 C435 1.378 . S
C432 H474 0.931 . S
C433 C432 1.396 . S
C433 C434 1.382 . S
C434 C430 1.381 . S
C434 C433 1.382 . S
C434 H475 0.930 . S
C435 N431 1.328 . S
C435 C432 1.378 . S
C435 H437 0.926 1_455 S
H436 C430 0.931 . S
H437 C435 0.926 1_655 S
C438 O464 1.238 1_556 S
C438 O465 1.253 . S
C439 C440 1.379 . S
C439 N444 1.337 1_556 S
C439 H445 0.929 . S
C440 C439 1.379 . S
C440 C441 1.380 1_556 S
C440 H476 0.929 . S
C441 C440 1.380 1_554 S
C441 C442 1.399 . S
C442 C441 1.399 . S
C442 C443 1.376 1_655 S
C442 H477 0.931 . S
C443 C442 1.376 1_455 S
C443 N444 1.338 1_455 S
C443 H446 0.930 . S
N444 Cd429 2.304 1_655 S
N444 C439 1.337 1_554 S
N444 C443 1.338 1_655 S
H445 C439 0.929 . S
H446 C443 0.930 . S
C447 N448 1.332 1_556 S
C447 C451 1.381 . S
C447 H453 0.931 . S
N448 Cd429 2.334 . S
N448 C447 1.332 1_554 S
N448 C452 1.328 . S
C449 C450 1.396 . S
C449 C452 1.378 . S
C449 H478 0.931 . S
C450 C449 1.396 . S
C450 C451 1.382 1_554 S
C451 C447 1.381 . S
C451 C450 1.382 1_556 S
C451 H479 0.930 . S
C452 N448 1.328 . S
C452 C449 1.378 . S
C452 H454 0.930 . S
H453 C447 0.931 . S
H454 C452 0.930 . S
C455 O466 1.238 . S
C455 O467 1.253 . S
C456 O468 1.239 . S
C456 O469 1.230 . S
N457 Cd428 2.304 . S
N457 C458 1.337 . S
N457 C462 1.338 . S
C458 N457 1.337 . S
C458 C459 1.379 . S
C458 H472 0.929 . S
C459 C458 1.379 . S
C459 C460 1.380 . S
C459 H480 0.929 . S
C460 C459 1.380 . S
C460 C461 1.399 . S
C461 C460 1.399 . S
C461 C462 1.376 . S
C461 H481 0.931 . S
C462 N457 1.338 . S
C462 C461 1.376 . S
C462 H473 0.930 . S
C463 O470 1.239 1_556 S
C463 O471 1.230 . S
O464 Cd428 2.268 . S
O464 C438 1.238 1_554 S
O465 Cd429 2.273 1_656 S
O465 C438 1.253 . S
O466 Cd429 2.268 . S
O466 C455 1.238 . S
O467 Cd428 2.273 1_455 S
O467 C455 1.253 . S
O468 Cd428 2.417 . S
O468 C456 1.239 . S
O469 Cd428 2.330 . S
O469 C456 1.230 . S
O470 Cd429 2.417 . S
O470 C463 1.239 1_554 S
O471 Cd429 2.330 1_556 S
O471 C463 1.230 . S
H472 C458 0.929 . S
H473 C462 0.930 . S
H474 C432 0.931 . S
H475 C434 0.930 . S
H476 C440 0.929 . S
H477 C442 0.931 . S
H478 C449 0.931 . S
H479 C451 0.930 . S
H480 C459 0.929 . S
H481 C461 0.931 . S
Cd482 N485 2.334 . S
Cd482 N511 2.304 . S
Cd482 O518 2.268 . S
Cd482 O521 2.273 . S
Cd482 O522 2.417 . S
Cd482 O523 2.330 . S
Cd483 N498 2.304 . S
Cd483 N502 2.334 . S
Cd483 O519 2.273 . S
Cd483 O520 2.268 1_556 S
Cd483 O524 2.417 . S
Cd483 O525 2.330 . S
C484 N485 1.332 . S
C484 C488 1.381 . S
C484 H490 0.931 . S
N485 Cd482 2.334 . S
N485 C484 1.332 . S
N485 C489 1.328 . S
C486 C487 1.396 . S
C486 C489 1.378 . S
C486 H528 0.931 . S
C487 C486 1.396 . S
C487 C488 1.382 . S
C488 C484 1.381 . S
C488 C487 1.382 . S
C488 H529 0.930 . S
C489 N485 1.328 . S
C489 C486 1.378 . S
C489 H491 0.930 . S
H490 C484 0.931 . S
H491 C489 0.930 . S
C492 O518 1.238 1_556 S
C492 O519 1.253 . S
C493 C494 1.379 . S
C493 N498 1.337 . S
C493 H499 0.929 . S
C494 C493 1.379 . S
C494 C495 1.380 . S
C494 H530 0.929 . S
C495 C494 1.380 . S
C495 C496 1.399 1_556 S
C496 C495 1.399 1_554 S
C496 C497 1.376 . S
C496 H531 0.931 . S
C497 C496 1.376 . S
C497 N498 1.338 1_554 S
C497 H500 0.930 . S
N498 Cd483 2.304 . S
N498 C493 1.337 . S
N498 C497 1.338 1_556 S
H499 C493 0.929 . S
H500 C497 0.930 . S
C501 N502 1.332 . S
C501 C505 1.381 . S
C501 H507 0.931 . S
N502 Cd483 2.334 . S
N502 C501 1.332 . S
N502 C506 1.328 1_556 S
C503 C504 1.396 1_554 S
C503 C506 1.378 . S
C503 H532 0.931 . S
C504 C503 1.396 1_556 S
C504 C505 1.382 . S
C505 C501 1.381 . S
C505 C504 1.382 . S
C505 H533 0.930 . S
C506 N502 1.328 1_554 S
C506 C503 1.378 . S
C506 H508 0.930 . S
H507 C501 0.931 . S
H508 C506 0.930 . S
C509 O520 1.238 . S
C509 O521 1.253 . S
C510 O522 1.239 . S
C510 O523 1.230 . S
N511 Cd482 2.304 . S
N511 C512 1.337 . S
N511 C516 1.338 . S
C512 N511 1.337 . S
C512 C513 1.379 . S
C512 H526 0.929 . S
C513 C512 1.379 . S
C513 C514 1.380 . S
C513 H534 0.929 . S
C514 C513 1.380 . S
C514 C515 1.399 . S
C515 C514 1.399 . S
C515 C516 1.376 . S
C515 H535 0.931 . S
C516 N511 1.338 . S
C516 C515 1.376 . S
C516 H527 0.930 . S
C517 O524 1.239 . S
C517 O525 1.230 . S
O518 Cd482 2.268 . S
O518 C492 1.238 1_554 S
O519 Cd483 2.273 . S
O519 C492 1.253 . S
O520 Cd483 2.268 1_554 S
O520 C509 1.238 . S
O521 Cd482 2.273 . S
O521 C509 1.253 . S
O522 Cd482 2.417 . S
O522 C510 1.239 . S
O523 Cd482 2.330 . S
O523 C510 1.230 . S
O524 Cd483 2.417 . S
O524 C517 1.239 . S
O525 Cd483 2.330 . S
O525 C517 1.230 . S
H526 C512 0.929 . S
H527 C516 0.930 . S
H528 C486 0.931 . S
H529 C488 0.930 . S
H530 C494 0.929 . S
H531 C496 0.931 . S
H532 C503 0.931 . S
H533 C505 0.930 . S
H534 C513 0.929 . S
H535 C515 0.931 . S
Cd536 N539 2.334 . S
Cd536 N565 2.304 1_455 S
Cd536 O572 2.268 . S
Cd536 O575 2.273 . S
Cd536 O576 2.417 1_455 S
Cd536 O577 2.330 . S
Cd537 N552 2.304 . S
Cd537 N556 2.334 . S
Cd537 O573 2.273 . S
Cd537 O574 2.268 . S
Cd537 O578 2.417 . S
Cd537 O579 2.330 . S
C538 N539 1.332 . S
C538 C542 1.381 . S
C538 H544 0.931 . S
N539 Cd536 2.334 . S
N539 C538 1.332 . S
N539 C543 1.328 . S
C540 C541 1.396 . S
C540 C543 1.378 . S
C540 H582 0.931 . S
C541 C540 1.396 . S
C541 C542 1.382 . S
C542 C538 1.381 . S
C542 C541 1.382 . S
C542 H583 0.930 . S
C543 N539 1.328 . S
C543 C540 1.378 . S
C543 H545 0.930 . S
H544 C538 0.931 . S
H545 C543 0.930 . S
C546 O572 1.238 1_655 S
C546 O573 1.253 1_655 S
C547 C548 1.379 . S
C547 N552 1.337 1_655 S
C547 H553 0.929 . S
C548 C547 1.379 . S
C548 C549 1.380 . S
C548 H584 0.929 . S
C549 C548 1.380 . S
C549 C550 1.399 1_655 S
C550 C549 1.399 1_455 S
C550 C551 1.376 . S
C550 H585 0.931 . S
C551 C550 1.376 . S
C551 N552 1.338 . S
C551 H554 0.930 . S
N552 Cd537 2.304 . S
N552 C547 1.337 1_455 S
N552 C551 1.338 . S
H553 C547 0.929 . S
H554 C551 0.930 . S
C555 N556 1.332 . S
C555 C559 1.381 . S
C555 H561 0.931 . S
N556 Cd537 2.334 . S
N556 C555 1.332 . S
N556 C560 1.328 . S
C557 C558 1.396 . S
C557 C560 1.378 . S
C557 H586 0.931 . S
C558 C557 1.396 . S
C558 C559 1.382 . S
C559 C555 1.381 . S
C559 C558 1.382 . S
C559 H587 0.930 . S
C560 N556 1.328 . S
C560 C557 1.378 . S
C560 H562 0.930 . S
H561 C555 0.931 . S
H562 C560 0.930 . S
C563 O574 1.238 . S
C563 O575 1.253 . S
C564 O576 1.239 . S
C564 O577 1.230 1_655 S
N565 Cd536 2.304 1_655 S
N565 C566 1.333 . S
N565 C570 1.338 . S
C566 N565 1.333 . S
C566 C567 1.398 . S
C566 H580 0.914 1_655 S
C567 C566 1.398 . S
C567 C568 1.380 . S
C567 H588 0.929 . S
C568 C567 1.380 . S
C568 C569 1.399 . S
C569 C568 1.399 . S
C569 C570 1.376 . S
C569 H589 0.931 . S
C570 N565 1.338 . S
C570 C569 1.376 . S
C570 H581 0.930 . S
C571 O578 1.239 . S
C571 O579 1.230 . S
O572 Cd536 2.268 . S
O572 C546 1.238 1_455 S
O573 Cd537 2.273 . S
O573 C546 1.253 1_455 S
O574 Cd537 2.268 . S
O574 C563 1.238 . S
O575 Cd536 2.273 . S
O575 C563 1.253 . S
O576 Cd536 2.417 1_655 S
O576 C564 1.239 . S
O577 Cd536 2.330 . S
O577 C564 1.230 1_455 S
O578 Cd537 2.417 . S
O578 C571 1.239 . S
O579 Cd537 2.330 . S
O579 C571 1.230 . S
H580 C566 0.914 1_455 S
H581 C570 0.930 . S
H582 C540 0.931 . S
H583 C542 0.930 . S
H584 C548 0.929 . S
H585 C550 0.931 . S
H586 C557 0.931 . S
H587 C559 0.930 . S
H588 C567 0.929 . S
H589 C569 0.931 . S
Cd590 N593 2.334 . S
Cd590 N619 2.304 1_565 S
Cd590 O626 2.268 . S
Cd590 O629 2.273 1_565 S
Cd590 O630 2.417 . S
Cd590 O631 2.330 . S
Cd591 N606 2.304 . S
Cd591 N610 2.334 1_545 S
Cd591 O627 2.273 1_545 S
Cd591 O628 2.268 . S
Cd591 O632 2.417 . S
Cd591 O633 2.330 . S
C592 N593 1.332 . S
C592 C596 1.381 . S
C592 H598 0.931 . S
N593 Cd590 2.334 . S
N593 C592 1.332 . S
N593 C597 1.328 . S
C594 C595 1.396 . S
C594 C597 1.378 . S
C594 H636 0.931 . S
C595 C594 1.396 . S
C595 C596 1.382 . S
C596 C592 1.381 . S
C596 C595 1.382 . S
C596 H637 0.930 . S
C597 N593 1.328 . S
C597 C594 1.378 . S
C597 H599 0.930 . S
H598 C592 0.931 . S
H599 C597 0.930 . S
C600 O626 1.238 . S
C600 O627 1.253 . S
C601 C602 1.379 . S
C601 N606 1.337 . S
C601 H607 0.929 . S
C602 C601 1.379 . S
C602 C603 1.380 . S
C602 H638 0.929 . S
C603 C602 1.380 . S
C603 C604 1.399 . S
C604 C603 1.399 . S
C604 C605 1.376 . S
C604 H639 0.931 . S
C605 C604 1.376 . S
C605 N606 1.338 . S
C605 H608 0.930 . S
N606 Cd591 2.304 . S
N606 C601 1.337 . S
N606 C605 1.338 . S
H607 C601 0.929 . S
H608 C605 0.930 . S
C609 N610 1.332 . S
C609 C613 1.381 . S
C609 H615 0.931 . S
N610 Cd591 2.334 1_565 S
N610 C609 1.332 . S
N610 C614 1.328 . S
C611 C612 1.396 . S
C611 C614 1.378 . S
C611 H640 0.931 . S
C612 C611 1.396 . S
C612 C613 1.382 . S
C613 C609 1.381 . S
C613 C612 1.382 . S
C613 H641 0.930 . S
C614 N610 1.328 . S
C614 C611 1.378 . S
C614 H616 0.930 1_565 S
H615 C609 0.931 . S
H616 C614 0.930 1_545 S
C617 O628 1.238 . S
C617 O629 1.253 . S
C618 O630 1.239 . S
C618 O631 1.230 . S
N619 Cd590 2.304 1_545 S
N619 C620 1.337 . S
N619 C624 1.338 . S
C620 N619 1.337 . S
C620 C621 1.379 . S
C620 H634 0.929 . S
C621 C620 1.379 . S
C621 C622 1.380 . S
C621 H642 0.929 . S
C622 C621 1.380 . S
C622 C623 1.399 . S
C623 C622 1.399 . S
C623 C624 1.376 . S
C623 H643 0.931 . S
C624 N619 1.338 . S
C624 C623 1.376 . S
C624 H635 0.930 1_545 S
C625 O632 1.239 . S
C625 O633 1.230 . S
O626 Cd590 2.268 . S
O626 C600 1.238 . S
O627 Cd591 2.273 1_565 S
O627 C600 1.253 . S
O628 Cd591 2.268 . S
O628 C617 1.238 . S
O629 Cd590 2.273 1_545 S
O629 C617 1.253 . S
O630 Cd590 2.417 . S
O630 C618 1.239 . S
O631 Cd590 2.330 . S
O631 C618 1.230 . S
O632 Cd591 2.417 . S
O632 C625 1.239 . S
O633 Cd591 2.330 . S
O633 C625 1.230 . S
H634 C620 0.929 . S
H635 C624 0.930 1_565 S
H636 C594 0.931 . S
H637 C596 0.930 . S
H638 C602 0.929 . S
H639 C604 0.931 . S
H640 C611 0.931 . S
H641 C613 0.930 . S
H642 C621 0.929 . S
H643 C623 0.931 . S
C644 C645 1.391 . S
C644 C646 1.394 . S
C644 H660 0.931 . S
C645 C644 1.391 . S
C645 C649 1.376 . S
C646 C644 1.394 . S
C646 C647 1.369 . S
C646 C650 1.531 . S
C647 C646 1.369 . S
C647 C648 1.410 . S
C647 C655 1.503 . S
C648 C647 1.410 . S
C648 C649 1.392 . S
C648 C651 1.511 . S
C649 C645 1.376 . S
C649 C648 1.392 . S
C649 H661 0.929 . S
C650 C646 1.531 . S
C650 H662 0.960 . S
C650 H663 0.962 . S
C650 H664 0.960 . S
C651 C648 1.511 . S
C651 H665 0.961 . S
C651 H666 0.961 . S
C651 H667 0.961 . S
C652 C653 1.370 . S
C652 C654 1.363 . S
C652 H668 0.931 . S
C653 C652 1.370 . S
C653 C657 1.408 . S
C654 C652 1.363 . S
C654 C655 1.370 . S
C654 C658 1.524 . S
C655 C647 1.503 . S
C655 C654 1.370 . S
C655 C656 1.403 . S
C656 C655 1.403 . S
C656 C657 1.404 . S
C656 C659 1.539 . S
C657 C653 1.408 . S
C657 C656 1.404 . S
C657 H669 0.930 . S
C658 C654 1.524 . S
C658 H670 0.956 . S
C658 H671 0.961 . S
C658 H672 0.961 . S
C659 C656 1.539 . S
C659 H673 0.958 . S
C659 H674 0.961 . S
C659 H675 0.960 . S
H660 C644 0.931 . S
H661 C649 0.929 . S
H662 C650 0.960 . S
H663 C650 0.962 . S
H664 C650 0.960 . S
H665 C651 0.961 . S
H666 C651 0.961 . S
H667 C651 0.961 . S
H668 C652 0.931 . S
H669 C657 0.930 . S
H670 C658 0.956 . S
H671 C658 0.961 . S
H672 C658 0.961 . S
H673 C659 0.958 . S
H674 C659 0.961 . S
H675 C659 0.960 . S
C676 C677 1.391 . S
C676 C678 1.394 . S
C676 H692 0.931 . S
C677 C676 1.391 . S
C677 C681 1.376 . S
C678 C676 1.394 . S
C678 C679 1.369 . S
C678 C682 1.531 . S
C679 C678 1.369 . S
C679 C680 1.410 . S
C679 C687 1.503 . S
C680 C679 1.410 . S
C680 C681 1.392 . S
C680 C683 1.511 . S
C681 C677 1.376 . S
C681 C680 1.392 . S
C681 H693 0.929 . S
C682 C678 1.531 . S
C682 H694 0.960 . S
C682 H695 0.962 . S
C682 H696 0.960 . S
C683 C680 1.511 . S
C683 H697 0.961 . S
C683 H698 0.961 . S
C683 H699 0.961 . S
C684 C685 1.370 . S
C684 C686 1.363 . S
C684 H700 0.931 . S
C685 C684 1.370 . S
C685 C689 1.408 . S
C686 C684 1.363 . S
C686 C687 1.370 . S
C686 C690 1.524 . S
C687 C679 1.503 . S
C687 C686 1.370 . S
C687 C688 1.403 . S
C688 C687 1.403 . S
C688 C689 1.404 . S
C688 C691 1.539 . S
C689 C685 1.408 . S
C689 C688 1.404 . S
C689 H701 0.930 . S
C690 C686 1.524 . S
C690 H702 0.956 . S
C690 H703 0.961 . S
C690 H704 0.961 . S
C691 C688 1.539 . S
C691 H705 0.958 . S
C691 H706 0.961 . S
C691 H707 0.960 . S
H692 C676 0.931 . S
H693 C681 0.929 . S
H694 C682 0.960 . S
H695 C682 0.962 . S
H696 C682 0.960 . S
H697 C683 0.961 . S
H698 C683 0.961 . S
H699 C683 0.961 . S
H700 C684 0.931 . S
H701 C689 0.930 . S
H702 C690 0.956 . S
H703 C690 0.961 . S
H704 C690 0.961 . S
H705 C691 0.958 . S
H706 C691 0.961 . S
H707 C691 0.960 . S
C708 C709 1.391 . S
C708 C710 1.394 . S
C708 H724 0.931 . S
C709 C708 1.391 . S
C709 C713 1.376 . S
C710 C708 1.394 . S
C710 C711 1.369 . S
C710 C714 1.531 . S
C711 C710 1.369 . S
C711 C712 1.410 . S
C711 C719 1.503 . S
C712 C711 1.410 . S
C712 C713 1.392 . S
C712 C715 1.511 . S
C713 C709 1.376 . S
C713 C712 1.392 . S
C713 H725 0.929 . S
C714 C710 1.531 . S
C714 H726 0.960 . S
C714 H727 0.962 . S
C714 H728 0.960 . S
C715 C712 1.511 . S
C715 H729 0.961 . S
C715 H730 0.961 . S
C715 H731 0.961 . S
C716 C717 1.370 . S
C716 C718 1.363 . S
C716 H732 0.931 . S
C717 C716 1.370 . S
C717 C721 1.408 . S
C718 C716 1.363 . S
C718 C719 1.370 . S
C718 C722 1.524 . S
C719 C711 1.503 . S
C719 C718 1.370 . S
C719 C720 1.403 . S
C720 C719 1.403 . S
C720 C721 1.404 . S
C720 C723 1.539 . S
C721 C717 1.408 . S
C721 C720 1.404 . S
C721 H733 0.930 . S
C722 C718 1.524 . S
C722 H734 0.956 . S
C722 H735 0.961 . S
C722 H736 0.961 . S
C723 C720 1.539 . S
C723 H737 0.958 . S
C723 H738 0.961 . S
C723 H739 0.960 . S
H724 C708 0.931 . S
H725 C713 0.929 . S
H726 C714 0.960 . S
H727 C714 0.962 . S
H728 C714 0.960 . S
H729 C715 0.961 . S
H730 C715 0.961 . S
H731 C715 0.961 . S
H732 C716 0.931 . S
H733 C721 0.930 . S
H734 C722 0.956 . S
H735 C722 0.961 . S
H736 C722 0.961 . S
H737 C723 0.958 . S
H738 C723 0.961 . S
H739 C723 0.960 . S
C740 C741 1.391 . S
C740 C742 1.394 . S
C740 H756 0.931 . S
C741 C740 1.391 . S
C741 C745 1.376 . S
C742 C740 1.394 . S
C742 C743 1.369 . S
C742 C746 1.531 . S
C743 C742 1.369 . S
C743 C744 1.410 . S
C743 C751 1.503 . S
C744 C743 1.410 . S
C744 C745 1.392 . S
C744 C747 1.511 . S
C745 C741 1.376 . S
C745 C744 1.392 . S
C745 H757 0.929 . S
C746 C742 1.531 . S
C746 H758 0.960 . S
C746 H759 0.962 . S
C746 H760 0.960 . S
C747 C744 1.511 . S
C747 H761 0.961 . S
C747 H762 0.961 . S
C747 H763 0.961 . S
C748 C749 1.370 . S
C748 C750 1.363 . S
C748 H764 0.931 . S
C749 C748 1.370 . S
C749 C753 1.408 . S
C750 C748 1.363 . S
C750 C751 1.370 . S
C750 C754 1.524 . S
C751 C743 1.503 . S
C751 C750 1.370 . S
C751 C752 1.403 . S
C752 C751 1.403 . S
C752 C753 1.404 . S
C752 C755 1.539 . S
C753 C749 1.408 . S
C753 C752 1.404 . S
C753 H765 0.930 . S
C754 C750 1.524 . S
C754 H766 0.956 . S
C754 H767 0.961 . S
C754 H768 0.961 . S
C755 C752 1.539 . S
C755 H769 0.958 . S
C755 H770 0.961 . S
C755 H771 0.960 . S
H756 C740 0.931 . S
H757 C745 0.929 . S
H758 C746 0.960 . S
H759 C746 0.962 . S
H760 C746 0.960 . S
H761 C747 0.961 . S
H762 C747 0.961 . S
H763 C747 0.961 . S
H764 C748 0.931 . S
H765 C753 0.930 . S
H766 C754 0.956 . S
H767 C754 0.961 . S
H768 C754 0.961 . S
H769 C755 0.958 . S
H770 C755 0.961 . S
H771 C755 0.960 . S
C772 C773 1.391 . S
C772 C774 1.394 . S
C772 H788 0.931 . S
C773 C772 1.391 . S
C773 C777 1.376 . S
C774 C772 1.394 . S
C774 C775 1.369 . S
C774 C778 1.531 . S
C775 C774 1.369 . S
C775 C776 1.410 . S
C775 C783 1.503 . S
C776 C775 1.410 . S
C776 C777 1.392 . S
C776 C779 1.511 . S
C777 C773 1.376 . S
C777 C776 1.392 . S
C777 H789 0.929 . S
C778 C774 1.531 . S
C778 H790 0.960 . S
C778 H791 0.962 . S
C778 H792 0.960 . S
C779 C776 1.511 . S
C779 H793 0.961 . S
C779 H794 0.961 . S
C779 H795 0.961 . S
C780 C781 1.370 . S
C780 C782 1.363 . S
C780 H796 0.931 . S
C781 C780 1.370 . S
C781 C785 1.408 . S
C782 C780 1.363 . S
C782 C783 1.370 . S
C782 C786 1.524 . S
C783 C775 1.503 . S
C783 C782 1.370 . S
C783 C784 1.403 . S
C784 C783 1.403 . S
C784 C785 1.404 . S
C784 C787 1.539 . S
C785 C781 1.408 . S
C785 C784 1.404 . S
C785 H797 0.930 . S
C786 C782 1.524 . S
C786 H798 0.956 . S
C786 H799 0.961 . S
C786 H800 0.961 . S
C787 C784 1.539 . S
C787 H801 0.958 . S
C787 H802 0.961 . S
C787 H803 0.960 . S
H788 C772 0.931 . S
H789 C777 0.929 . S
H790 C778 0.960 . S
H791 C778 0.962 . S
H792 C778 0.960 . S
H793 C779 0.961 . S
H794 C779 0.961 . S
H795 C779 0.961 . S
H796 C780 0.931 . S
H797 C785 0.930 . S
H798 C786 0.956 . S
H799 C786 0.961 . S
H800 C786 0.961 . S
H801 C787 0.958 . S
H802 C787 0.961 . S
H803 C787 0.960 . S
C804 C805 1.391 . S
C804 C806 1.394 . S
C804 H820 0.931 . S
C805 C804 1.391 . S
C805 C809 1.376 . S
C806 C804 1.394 . S
C806 C807 1.369 . S
C806 C810 1.531 . S
C807 C806 1.369 . S
C807 C808 1.410 . S
C807 C815 1.503 . S
C808 C807 1.410 . S
C808 C809 1.392 . S
C808 C811 1.511 . S
C809 C805 1.376 . S
C809 C808 1.392 . S
C809 H821 0.929 . S
C810 C806 1.531 . S
C810 H822 0.960 . S
C810 H823 0.962 . S
C810 H824 0.960 . S
C811 C808 1.511 . S
C811 H825 0.961 . S
C811 H826 0.961 . S
C811 H827 0.961 . S
C812 C813 1.370 . S
C812 C814 1.363 . S
C812 H828 0.931 . S
C813 C812 1.370 . S
C813 C817 1.408 . S
C814 C812 1.363 . S
C814 C815 1.370 . S
C814 C818 1.524 . S
C815 C807 1.503 . S
C815 C814 1.370 . S
C815 C816 1.403 . S
C816 C815 1.403 . S
C816 C817 1.404 . S
C816 C819 1.539 . S
C817 C813 1.408 . S
C817 C816 1.404 . S
C817 H829 0.930 . S
C818 C814 1.524 . S
C818 H830 0.956 . S
C818 H831 0.961 . S
C818 H832 0.961 . S
C819 C816 1.539 . S
C819 H833 0.958 . S
C819 H834 0.961 . S
C819 H835 0.960 . S
H820 C804 0.931 . S
H821 C809 0.929 . S
H822 C810 0.960 . S
H823 C810 0.962 . S
H824 C810 0.960 . S
H825 C811 0.961 . S
H826 C811 0.961 . S
H827 C811 0.961 . S
H828 C812 0.931 . S
H829 C817 0.930 . S
H830 C818 0.956 . S
H831 C818 0.961 . S
H832 C818 0.961 . S
H833 C819 0.958 . S
H834 C819 0.961 . S
H835 C819 0.960 . S
C836 C837 1.391 . S
C836 C838 1.394 . S
C836 H852 0.931 . S
C837 C836 1.391 . S
C837 C841 1.376 . S
C838 C836 1.394 . S
C838 C839 1.369 . S
C838 C842 1.531 . S
C839 C838 1.369 . S
C839 C840 1.410 . S
C839 C847 1.503 . S
C840 C839 1.410 . S
C840 C841 1.392 . S
C840 C843 1.511 . S
C841 C837 1.376 . S
C841 C840 1.392 . S
C841 H853 0.929 . S
C842 C838 1.531 . S
C842 H854 0.960 . S
C842 H855 0.962 . S
C842 H856 0.960 . S
C843 C840 1.511 . S
C843 H857 0.961 . S
C843 H858 0.961 . S
C843 H859 0.961 . S
C844 C845 1.370 . S
C844 C846 1.363 . S
C844 H860 0.931 . S
C845 C844 1.370 . S
C845 C849 1.408 . S
C846 C844 1.363 . S
C846 C847 1.370 . S
C846 C850 1.524 . S
C847 C839 1.503 . S
C847 C846 1.370 . S
C847 C848 1.403 . S
C848 C847 1.403 . S
C848 C849 1.404 . S
C848 C851 1.539 . S
C849 C845 1.408 . S
C849 C848 1.404 . S
C849 H861 0.930 . S
C850 C846 1.524 . S
C850 H862 0.956 . S
C850 H863 0.961 . S
C850 H864 0.961 . S
C851 C848 1.539 . S
C851 H865 0.958 . S
C851 H866 0.961 . S
C851 H867 0.960 . S
H852 C836 0.931 . S
H853 C841 0.929 . S
H854 C842 0.960 . S
H855 C842 0.962 . S
H856 C842 0.960 . S
H857 C843 0.961 . S
H858 C843 0.961 . S
H859 C843 0.961 . S
H860 C844 0.931 . S
H861 C849 0.930 . S
H862 C850 0.956 . S
H863 C850 0.961 . S
H864 C850 0.961 . S
H865 C851 0.958 . S
H866 C851 0.961 . S
H867 C851 0.960 . S
C868 C869 1.391 . S
C868 C870 1.394 . S
C868 H884 0.931 . S
C869 C868 1.391 . S
C869 C873 1.376 . S
C870 C868 1.394 . S
C870 C871 1.369 . S
C870 C874 1.531 . S
C871 C870 1.369 . S
C871 C872 1.410 . S
C871 C879 1.503 . S
C872 C871 1.410 . S
C872 C873 1.392 . S
C872 C875 1.511 . S
C873 C869 1.376 . S
C873 C872 1.392 . S
C873 H885 0.929 . S
C874 C870 1.531 . S
C874 H886 0.960 . S
C874 H887 0.962 . S
C874 H888 0.960 . S
C875 C872 1.511 . S
C875 H889 0.961 . S
C875 H890 0.961 . S
C875 H891 0.961 . S
C876 C877 1.370 . S
C876 C878 1.363 . S
C876 H892 0.931 . S
C877 C876 1.370 . S
C877 C881 1.408 . S
C878 C876 1.363 . S
C878 C879 1.370 . S
C878 C882 1.524 . S
C879 C871 1.503 . S
C879 C878 1.370 . S
C879 C880 1.403 . S
C880 C879 1.403 . S
C880 C881 1.404 . S
C880 C883 1.539 . S
C881 C877 1.408 . S
C881 C880 1.404 . S
C881 H893 0.930 . S
C882 C878 1.524 . S
C882 H894 0.956 . S
C882 H895 0.961 . S
C882 H896 0.961 . S
C883 C880 1.539 . S
C883 H897 0.958 . S
C883 H898 0.961 . S
C883 H899 0.960 . S
H884 C868 0.931 . S
H885 C873 0.929 . S
H886 C874 0.960 . S
H887 C874 0.962 . S
H888 C874 0.960 . S
H889 C875 0.961 . S
H890 C875 0.961 . S
H891 C875 0.961 . S
H892 C876 0.931 . S
H893 C881 0.930 . S
H894 C882 0.956 . S
H895 C882 0.961 . S
H896 C882 0.961 . S
H897 C883 0.958 . S
H898 C883 0.961 . S
H899 C883 0.960 . S
C900 C901 1.391 . S
C900 C902 1.394 . S
C900 H916 0.931 . S
C901 C900 1.391 . S
C901 C905 1.376 . S
C902 C900 1.394 . S
C902 C903 1.369 . S
C902 C906 1.531 . S
C903 C902 1.369 . S
C903 C904 1.410 . S
C903 C911 1.503 . S
C904 C903 1.410 . S
C904 C905 1.392 . S
C904 C907 1.511 . S
C905 C901 1.376 . S
C905 C904 1.392 . S
C905 H917 0.929 . S
C906 C902 1.531 . S
C906 H918 0.960 . S
C906 H919 0.962 . S
C906 H920 0.960 . S
C907 C904 1.511 . S
C907 H921 0.961 . S
C907 H922 0.961 . S
C907 H923 0.961 . S
C908 C909 1.370 . S
C908 C910 1.363 . S
C908 H924 0.931 . S
C909 C908 1.370 . S
C909 C913 1.408 . S
C910 C908 1.363 . S
C910 C911 1.370 . S
C910 C914 1.524 . S
C911 C903 1.503 . S
C911 C910 1.370 . S
C911 C912 1.403 . S
C912 C911 1.403 . S
C912 C913 1.404 . S
C912 C915 1.539 . S
C913 C909 1.408 . S
C913 C912 1.404 . S
C913 H925 0.930 . S
C914 C910 1.524 . S
C914 H926 0.956 . S
C914 H927 0.961 . S
C914 H928 0.961 . S
C915 C912 1.539 . S
C915 H929 0.958 . S
C915 H930 0.961 . S
C915 H931 0.960 . S
H916 C900 0.931 . S
H917 C905 0.929 . S
H918 C906 0.960 . S
H919 C906 0.962 . S
H920 C906 0.960 . S
H921 C907 0.961 . S
H922 C907 0.961 . S
H923 C907 0.961 . S
H924 C908 0.931 . S
H925 C913 0.930 . S
H926 C914 0.956 . S
H927 C914 0.961 . S
H928 C914 0.961 . S
H929 C915 0.958 . S
H930 C915 0.961 . S
H931 C915 0.960 . S
C932 C933 1.391 . S
C932 C934 1.394 . S
C932 H948 0.931 . S
C933 C932 1.391 . S
C933 C937 1.376 . S
C934 C932 1.394 . S
C934 C935 1.369 . S
C934 C938 1.531 . S
C935 C934 1.369 . S
C935 C936 1.410 . S
C935 C943 1.503 . S
C936 C935 1.410 . S
C936 C937 1.392 . S
C936 C939 1.511 . S
C937 C933 1.376 . S
C937 C936 1.392 . S
C937 H949 0.929 . S
C938 C934 1.531 . S
C938 H950 0.960 . S
C938 H951 0.962 . S
C938 H952 0.960 . S
C939 C936 1.511 . S
C939 H953 0.961 . S
C939 H954 0.961 . S
C939 H955 0.961 . S
C940 C941 1.370 . S
C940 C942 1.363 . S
C940 H956 0.931 . S
C941 C940 1.370 . S
C941 C945 1.408 . S
C942 C940 1.363 . S
C942 C943 1.370 . S
C942 C946 1.524 . S
C943 C935 1.503 . S
C943 C942 1.370 . S
C943 C944 1.403 . S
C944 C943 1.403 . S
C944 C945 1.404 . S
C944 C947 1.539 . S
C945 C941 1.408 . S
C945 C944 1.404 . S
C945 H957 0.930 . S
C946 C942 1.524 . S
C946 H958 0.956 . S
C946 H959 0.961 . S
C946 H960 0.961 . S
C947 C944 1.539 . S
C947 H961 0.958 . S
C947 H962 0.961 . S
C947 H963 0.960 . S
H948 C932 0.931 . S
H949 C937 0.929 . S
H950 C938 0.960 . S
H951 C938 0.962 . S
H952 C938 0.960 . S
H953 C939 0.961 . S
H954 C939 0.961 . S
H955 C939 0.961 . S
H956 C940 0.931 . S
H957 C945 0.930 . S
H958 C946 0.956 . S
H959 C946 0.961 . S
H960 C946 0.961 . S
H961 C947 0.958 . S
H962 C947 0.961 . S
H963 C947 0.960 . S
C964 C965 1.391 . S
C964 C966 1.394 . S
C964 H980 0.931 . S
C965 C964 1.391 . S
C965 C969 1.376 . S
C966 C964 1.394 . S
C966 C967 1.369 . S
C966 C970 1.531 . S
C967 C966 1.369 . S
C967 C968 1.410 . S
C967 C975 1.503 . S
C968 C967 1.410 . S
C968 C969 1.392 . S
C968 C971 1.511 . S
C969 C965 1.376 . S
C969 C968 1.392 . S
C969 H981 0.929 . S
C970 C966 1.531 . S
C970 H982 0.960 . S
C970 H983 0.962 . S
C970 H984 0.960 . S
C971 C968 1.511 . S
C971 H985 0.961 . S
C971 H986 0.961 . S
C971 H987 0.961 . S
C972 C973 1.370 . S
C972 C974 1.363 . S
C972 H988 0.931 . S
C973 C972 1.370 . S
C973 C977 1.408 . S
C974 C972 1.363 . S
C974 C975 1.370 . S
C974 C978 1.524 . S
C975 C967 1.503 . S
C975 C974 1.370 . S
C975 C976 1.403 . S
C976 C975 1.403 . S
C976 C977 1.404 . S
C976 C979 1.539 . S
C977 C973 1.408 . S
C977 C976 1.404 . S
C977 H989 0.930 . S
C978 C974 1.524 . S
C978 H990 0.956 . S
C978 H991 0.961 . S
C978 H992 0.961 . S
C979 C976 1.539 . S
C979 H993 0.958 . S
C979 H994 0.961 . S
C979 H995 0.960 . S
H980 C964 0.931 . S
H981 C969 0.929 . S
H982 C970 0.960 . S
H983 C970 0.962 . S
H984 C970 0.960 . S
H985 C971 0.961 . S
H986 C971 0.961 . S
H987 C971 0.961 . S
H988 C972 0.931 . S
H989 C977 0.930 . S
H990 C978 0.956 . S
H991 C978 0.961 . S
H992 C978 0.961 . S
H993 C979 0.958 . S
H994 C979 0.961 . S
H995 C979 0.960 . S
C996 C997 1.391 . S
C996 C998 1.394 . S
C996 H1012 0.931 . S
C997 C996 1.391 . S
C997 C1001 1.376 . S
C998 C996 1.394 . S
C998 C999 1.369 . S
C998 C1002 1.531 . S
C999 C998 1.369 . S
C999 C1000 1.410 . S
C999 C1007 1.503 . S
C1000 C999 1.410 . S
C1000 C1001 1.392 . S
C1000 C1003 1.511 . S
C1001 C997 1.376 . S
C1001 C1000 1.392 . S
C1001 H1013 0.929 . S
C1002 C998 1.531 . S
C1002 H1014 0.960 . S
C1002 H1015 0.962 . S
C1002 H1016 0.960 . S
C1003 C1000 1.511 . S
C1003 H1017 0.961 . S
C1003 H1018 0.961 . S
C1003 H1019 0.961 . S
C1004 C1005 1.370 . S
C1004 C1006 1.363 . S
C1004 H1020 0.931 . S
C1005 C1004 1.370 . S
C1005 C1009 1.408 . S
C1006 C1004 1.363 . S
C1006 C1007 1.370 . S
C1006 C1010 1.524 . S
C1007 C999 1.503 . S
C1007 C1006 1.370 . S
C1007 C1008 1.403 . S
C1008 C1007 1.403 . S
C1008 C1009 1.404 . S
C1008 C1011 1.539 . S
C1009 C1005 1.408 . S
C1009 C1008 1.404 . S
C1009 H1021 0.930 . S
C1010 C1006 1.524 . S
C1010 H1022 0.956 . S
C1010 H1023 0.961 . S
C1010 H1024 0.961 . S
C1011 C1008 1.539 . S
C1011 H1025 0.958 . S
C1011 H1026 0.961 . S
C1011 H1027 0.960 . S
H1012 C996 0.931 . S
H1013 C1001 0.929 . S
H1014 C1002 0.960 . S
H1015 C1002 0.962 . S
H1016 C1002 0.960 . S
H1017 C1003 0.961 . S
H1018 C1003 0.961 . S
H1019 C1003 0.961 . S
H1020 C1004 0.931 . S
H1021 C1009 0.930 . S
H1022 C1010 0.956 . S
H1023 C1010 0.961 . S
H1024 C1010 0.961 . S
H1025 C1011 0.958 . S
H1026 C1011 0.961 . S
H1027 C1011 0.960 . S
C1028 C1029 1.391 . S
C1028 C1030 1.394 . S
C1028 H1044 0.931 . S
C1029 C1028 1.391 . S
C1029 C1033 1.376 . S
C1030 C1028 1.394 . S
C1030 C1031 1.369 . S
C1030 C1034 1.531 . S
C1031 C1030 1.369 . S
C1031 C1032 1.410 . S
C1031 C1039 1.503 . S
C1032 C1031 1.410 . S
C1032 C1033 1.392 . S
C1032 C1035 1.511 . S
C1033 C1029 1.376 . S
C1033 C1032 1.392 . S
C1033 H1045 0.929 . S
C1034 C1030 1.531 . S
C1034 H1046 0.960 . S
C1034 H1047 0.962 . S
C1034 H1048 0.960 . S
C1035 C1032 1.511 . S
C1035 H1049 0.961 . S
C1035 H1050 0.961 . S
C1035 H1051 0.961 . S
C1036 C1037 1.370 . S
C1036 C1038 1.363 . S
C1036 H1052 0.931 . S
C1037 C1036 1.370 . S
C1037 C1041 1.408 . S
C1038 C1036 1.363 . S
C1038 C1039 1.370 . S
C1038 C1042 1.524 . S
C1039 C1031 1.503 . S
C1039 C1038 1.370 . S
C1039 C1040 1.403 . S
C1040 C1039 1.403 . S
C1040 C1041 1.404 . S
C1040 C1043 1.539 . S
C1041 C1037 1.408 . S
C1041 C1040 1.404 . S
C1041 H1053 0.930 . S
C1042 C1038 1.524 . S
C1042 H1054 0.956 . S
C1042 H1055 0.961 . S
C1042 H1056 0.961 . S
C1043 C1040 1.539 . S
C1043 H1057 0.958 . S
C1043 H1058 0.961 . S
C1043 H1059 0.960 . S
H1044 C1028 0.931 . S
H1045 C1033 0.929 . S
H1046 C1034 0.960 . S
H1047 C1034 0.962 . S
H1048 C1034 0.960 . S
H1049 C1035 0.961 . S
H1050 C1035 0.961 . S
H1051 C1035 0.961 . S
H1052 C1036 0.931 . S
H1053 C1041 0.930 . S
H1054 C1042 0.956 . S
H1055 C1042 0.961 . S
H1056 C1042 0.961 . S
H1057 C1043 0.958 . S
H1058 C1043 0.961 . S
H1059 C1043 0.960 . S
C1060 C1061 1.391 . S
C1060 C1062 1.394 . S
C1060 H1076 0.931 . S
C1061 C1060 1.391 . S
C1061 C1065 1.376 . S
C1062 C1060 1.394 . S
C1062 C1063 1.369 . S
C1062 C1066 1.531 . S
C1063 C1062 1.369 . S
C1063 C1064 1.410 . S
C1063 C1071 1.503 . S
C1064 C1063 1.410 . S
C1064 C1065 1.392 . S
C1064 C1067 1.511 . S
C1065 C1061 1.376 . S
C1065 C1064 1.392 . S
C1065 H1077 0.929 . S
C1066 C1062 1.531 . S
C1066 H1078 0.960 . S
C1066 H1079 0.962 . S
C1066 H1080 0.960 . S
C1067 C1064 1.511 . S
C1067 H1081 0.961 . S
C1067 H1082 0.961 . S
C1067 H1083 0.961 . S
C1068 C1069 1.370 1_556 S
C1068 C1070 1.363 . S
C1068 H1084 0.931 . S
C1069 C1068 1.370 1_554 S
C1069 C1073 1.408 . S
C1070 C1068 1.363 . S
C1070 C1071 1.370 . S
C1070 C1074 1.524 . S
C1071 C1063 1.503 . S
C1071 C1070 1.370 . S
C1071 C1072 1.403 1_556 S
C1072 C1071 1.403 1_554 S
C1072 C1073 1.404 . S
C1072 C1075 1.539 . S
C1073 C1069 1.408 . S
C1073 C1072 1.404 . S
C1073 H1085 0.930 . S
C1074 C1070 1.524 . S
C1074 H1086 0.956 . S
C1074 H1087 0.961 . S
C1074 H1088 0.961 . S
C1075 C1072 1.539 . S
C1075 H1089 0.958 . S
C1075 H1090 0.961 . S
C1075 H1091 0.960 . S
H1076 C1060 0.931 . S
H1077 C1065 0.929 . S
H1078 C1066 0.960 . S
H1079 C1066 0.962 . S
H1080 C1066 0.960 . S
H1081 C1067 0.961 . S
H1082 C1067 0.961 . S
H1083 C1067 0.961 . S
H1084 C1068 0.931 . S
H1085 C1073 0.930 . S
H1086 C1074 0.956 . S
H1087 C1074 0.961 . S
H1088 C1074 0.961 . S
H1089 C1075 0.958 . S
H1090 C1075 0.961 . S
H1091 C1075 0.960 . S
C1092 C1093 1.391 . S
C1092 C1094 1.394 . S
C1092 H1108 0.931 . S
C1093 C1092 1.391 . S
C1093 C1097 1.376 . S
C1094 C1092 1.394 . S
C1094 C1095 1.369 . S
C1094 C1098 1.531 . S
C1095 C1094 1.369 . S
C1095 C1096 1.410 . S
C1095 C1103 1.503 . S
C1096 C1095 1.410 . S
C1096 C1097 1.392 . S
C1096 C1099 1.511 . S
C1097 C1093 1.376 . S
C1097 C1096 1.392 . S
C1097 H1109 0.929 . S
C1098 C1094 1.531 . S
C1098 H1110 0.960 . S
C1098 H1111 0.962 . S
C1098 H1112 0.960 . S
C1099 C1096 1.511 . S
C1099 H1113 0.961 . S
C1099 H1114 0.961 . S
C1099 H1115 0.961 . S
C1100 C1101 1.370 . S
C1100 C1102 1.363 . S
C1100 H1116 0.931 . S
C1101 C1100 1.370 . S
C1101 C1105 1.408 . S
C1102 C1100 1.363 . S
C1102 C1103 1.370 . S
C1102 C1106 1.524 . S
C1103 C1095 1.503 . S
C1103 C1102 1.370 . S
C1103 C1104 1.403 . S
C1104 C1103 1.403 . S
C1104 C1105 1.404 . S
C1104 C1107 1.539 . S
C1105 C1101 1.408 . S
C1105 C1104 1.404 . S
C1105 H1117 0.930 . S
C1106 C1102 1.524 . S
C1106 H1118 0.956 . S
C1106 H1119 0.961 . S
C1106 H1120 0.961 . S
C1107 C1104 1.539 . S
C1107 H1121 0.958 . S
C1107 H1122 0.961 . S
C1107 H1123 0.960 . S
H1108 C1092 0.931 . S
H1109 C1097 0.929 . S
H1110 C1098 0.960 . S
H1111 C1098 0.962 . S
H1112 C1098 0.960 . S
H1113 C1099 0.961 . S
H1114 C1099 0.961 . S
H1115 C1099 0.961 . S
H1116 C1100 0.931 . S
H1117 C1105 0.930 . S
H1118 C1106 0.956 . S
H1119 C1106 0.961 . S
H1120 C1106 0.961 . S
H1121 C1107 0.958 . S
H1122 C1107 0.961 . S
H1123 C1107 0.960 . S
C1124 C1125 1.391 . S
C1124 C1126 1.394 . S
C1124 H1140 0.931 . S
C1125 C1124 1.391 . S
C1125 C1129 1.376 . S
C1126 C1124 1.394 . S
C1126 C1127 1.369 . S
C1126 C1130 1.531 . S
C1127 C1126 1.369 . S
C1127 C1128 1.410 . S
C1127 C1135 1.503 1_556 S
C1128 C1127 1.410 . S
C1128 C1129 1.392 . S
C1128 C1131 1.511 . S
C1129 C1125 1.376 . S
C1129 C1128 1.392 . S
C1129 H1141 0.929 . S
C1130 C1126 1.531 . S
C1130 H1142 0.960 1_556 S
C1130 H1143 0.962 . S
C1130 H1144 0.960 . S
C1131 C1128 1.511 . S
C1131 H1145 0.961 . S
C1131 H1146 0.961 . S
C1131 H1147 0.961 1_556 S
C1132 C1133 1.370 1_556 S
C1132 C1134 1.363 . S
C1132 H1148 0.931 . S
C1133 C1132 1.370 1_554 S
C1133 C1137 1.408 . S
C1134 C1132 1.363 . S
C1134 C1135 1.370 1_556 S
C1134 C1138 1.524 . S
C1135 C1127 1.503 1_554 S
C1135 C1134 1.370 1_554 S
C1135 C1136 1.403 . S
C1136 C1135 1.403 . S
C1136 C1137 1.404 . S
C1136 C1139 1.539 . S
C1137 C1133 1.408 . S
C1137 C1136 1.404 . S
C1137 H1149 0.930 . S
C1138 C1134 1.524 . S
C1138 H1150 0.956 . S
C1138 H1151 0.961 . S
C1138 H1152 0.961 . S
C1139 C1136 1.539 . S
C1139 H1153 0.958 . S
C1139 H1154 0.961 . S
C1139 H1155 0.960 . S
H1140 C1124 0.931 . S
H1141 C1129 0.929 . S
H1142 C1130 0.960 1_554 S
H1143 C1130 0.962 . S
H1144 C1130 0.960 . S
H1145 C1131 0.961 . S
H1146 C1131 0.961 . S
H1147 C1131 0.961 1_554 S
H1148 C1132 0.931 . S
H1149 C1137 0.930 . S
H1150 C1138 0.956 . S
H1151 C1138 0.961 . S
H1152 C1138 0.961 . S
H1153 C1139 0.958 . S
H1154 C1139 0.961 . S
H1155 C1139 0.960 . S
C1156 C1157 1.391 . S
C1156 C1158 1.394 . S
C1156 H1172 0.931 . S
C1157 C1156 1.391 . S
C1157 C1161 1.376 . S
C1158 C1156 1.394 . S
C1158 C1159 1.369 . S
C1158 C1162 1.531 . S
C1159 C1158 1.369 . S
C1159 C1160 1.410 . S
C1159 C1167 1.503 . S
C1160 C1159 1.410 . S
C1160 C1161 1.392 . S
C1160 C1163 1.511 . S
C1161 C1157 1.376 . S
C1161 C1160 1.392 . S
C1161 H1173 0.929 . S
C1162 C1158 1.531 . S
C1162 H1174 0.960 . S
C1162 H1175 0.962 . S
C1162 H1176 0.960 . S
C1163 C1160 1.511 . S
C1163 H1177 0.961 . S
C1163 H1178 0.961 . S
C1163 H1179 0.961 . S
C1164 C1165 1.370 . S
C1164 C1166 1.363 . S
C1164 H1180 0.931 . S
C1165 C1164 1.370 . S
C1165 C1169 1.408 . S
C1166 C1164 1.363 . S
C1166 C1167 1.370 . S
C1166 C1170 1.524 . S
C1167 C1159 1.503 . S
C1167 C1166 1.370 . S
C1167 C1168 1.403 . S
C1168 C1167 1.403 . S
C1168 C1169 1.404 . S
C1168 C1171 1.539 . S
C1169 C1165 1.408 . S
C1169 C1168 1.404 . S
C1169 H1181 0.930 . S
C1170 C1166 1.524 . S
C1170 H1182 0.956 . S
C1170 H1183 0.961 . S
C1170 H1184 0.961 . S
C1171 C1168 1.539 . S
C1171 H1185 0.958 . S
C1171 H1186 0.961 . S
C1171 H1187 0.960 . S
H1172 C1156 0.931 . S
H1173 C1161 0.929 . S
H1174 C1162 0.960 . S
H1175 C1162 0.962 . S
H1176 C1162 0.960 . S
H1177 C1163 0.961 . S
H1178 C1163 0.961 . S
H1179 C1163 0.961 . S
H1180 C1164 0.931 . S
H1181 C1169 0.930 . S
H1182 C1170 0.956 . S
H1183 C1170 0.961 . S
H1184 C1170 0.961 . S
H1185 C1171 0.958 . S
H1186 C1171 0.961 . S
H1187 C1171 0.960 . S
C1188 C1189 1.391 . S
C1188 C1190 1.394 . S
C1188 H1204 0.931 . S
C1189 C1188 1.391 . S
C1189 C1193 1.376 . S
C1190 C1188 1.394 . S
C1190 C1191 1.369 . S
C1190 C1194 1.531 . S
C1191 C1190 1.369 . S
C1191 C1192 1.410 . S
C1191 C1199 1.503 . S
C1192 C1191 1.410 . S
C1192 C1193 1.392 . S
C1192 C1195 1.511 . S
C1193 C1189 1.376 . S
C1193 C1192 1.392 . S
C1193 H1205 0.929 . S
C1194 C1190 1.531 . S
C1194 H1206 0.960 . S
C1194 H1207 0.962 . S
C1194 H1208 0.960 . S
C1195 C1192 1.511 . S
C1195 H1209 0.961 1_556 S
C1195 H1210 0.961 . S
C1195 H1211 0.961 . S
C1196 C1197 1.370 . S
C1196 C1198 1.363 . S
C1196 H1212 0.931 . S
C1197 C1196 1.370 . S
C1197 C1201 1.408 . S
C1198 C1196 1.363 . S
C1198 C1199 1.370 . S
C1198 C1202 1.524 . S
C1199 C1191 1.503 . S
C1199 C1198 1.370 . S
C1199 C1200 1.403 . S
C1200 C1199 1.403 . S
C1200 C1201 1.404 . S
C1200 C1203 1.539 . S
C1201 C1197 1.408 . S
C1201 C1200 1.404 . S
C1201 H1213 0.930 . S
C1202 C1198 1.524 . S
C1202 H1214 0.956 . S
C1202 H1215 0.961 . S
C1202 H1216 0.961 1_556 S
C1203 C1200 1.539 . S
C1203 H1217 0.958 . S
C1203 H1218 0.961 . S
C1203 H1219 0.960 . S
H1204 C1188 0.931 . S
H1205 C1193 0.929 . S
H1206 C1194 0.960 . S
H1207 C1194 0.962 . S
H1208 C1194 0.960 . S
H1209 C1195 0.961 1_554 S
H1210 C1195 0.961 . S
H1211 C1195 0.961 . S
H1212 C1196 0.931 . S
H1213 C1201 0.930 . S
H1214 C1202 0.956 . S
H1215 C1202 0.961 . S
H1216 C1202 0.961 1_554 S
H1217 C1203 0.958 . S
H1218 C1203 0.961 . S
H1219 C1203 0.960 . S
C1220 C1221 1.391 . S
C1220 C1222 1.394 . S
C1220 H1236 0.931 . S
C1221 C1220 1.391 . S
C1221 C1225 1.376 . S
C1222 C1220 1.394 . S
C1222 C1223 1.369 . S
C1222 C1226 1.531 . S
C1223 C1222 1.369 . S
C1223 C1224 1.410 . S
C1223 C1231 1.503 . S
C1224 C1223 1.410 . S
C1224 C1225 1.392 . S
C1224 C1227 1.511 . S
C1225 C1221 1.376 . S
C1225 C1224 1.392 . S
C1225 H1237 0.929 . S
C1226 C1222 1.531 . S
C1226 H1238 0.960 . S
C1226 H1239 0.962 . S
C1226 H1240 0.960 . S
C1227 C1224 1.511 . S
C1227 H1241 0.961 . S
C1227 H1242 0.961 . S
C1227 H1243 0.961 . S
C1228 C1229 1.370 . S
C1228 C1230 1.363 . S
C1228 H1244 0.931 . S
C1229 C1228 1.370 . S
C1229 C1233 1.408 . S
C1230 C1228 1.363 . S
C1230 C1231 1.370 . S
C1230 C1234 1.524 . S
C1231 C1223 1.503 . S
C1231 C1230 1.370 . S
C1231 C1232 1.403 . S
C1232 C1231 1.403 . S
C1232 C1233 1.404 . S
C1232 C1235 1.539 . S
C1233 C1229 1.408 . S
C1233 C1232 1.404 . S
C1233 H1245 0.930 . S
C1234 C1230 1.524 . S
C1234 H1246 0.956 . S
C1234 H1247 0.961 . S
C1234 H1248 0.961 . S
C1235 C1232 1.539 . S
C1235 H1249 0.958 . S
C1235 H1250 0.961 . S
C1235 H1251 0.960 . S
H1236 C1220 0.931 . S
H1237 C1225 0.929 . S
H1238 C1226 0.960 . S
H1239 C1226 0.962 . S
H1240 C1226 0.960 . S
H1241 C1227 0.961 . S
H1242 C1227 0.961 . S
H1243 C1227 0.961 . S
H1244 C1228 0.931 . S
H1245 C1233 0.930 . S
H1246 C1234 0.956 . S
H1247 C1234 0.961 . S
H1248 C1234 0.961 . S
H1249 C1235 0.958 . S
H1250 C1235 0.961 . S
H1251 C1235 0.960 . S
C1252 C1253 1.391 . S
C1252 C1254 1.394 . S
C1252 H1268 0.931 . S
C1253 C1252 1.391 . S
C1253 C1257 1.376 . S
C1254 C1252 1.394 . S
C1254 C1255 1.369 . S
C1254 C1258 1.531 . S
C1255 C1254 1.369 . S
C1255 C1256 1.410 . S
C1255 C1263 1.503 . S
C1256 C1255 1.410 . S
C1256 C1257 1.392 . S
C1256 C1259 1.511 . S
C1257 C1253 1.376 . S
C1257 C1256 1.392 . S
C1257 H1269 0.929 . S
C1258 C1254 1.531 . S
C1258 H1270 0.960 . S
C1258 H1271 0.962 . S
C1258 H1272 0.960 . S
C1259 C1256 1.511 . S
C1259 H1273 0.961 . S
C1259 H1274 0.961 . S
C1259 H1275 0.961 . S
C1260 C1261 1.370 . S
C1260 C1262 1.363 . S
C1260 H1276 0.931 . S
C1261 C1260 1.370 . S
C1261 C1265 1.408 . S
C1262 C1260 1.363 . S
C1262 C1263 1.370 . S
C1262 C1266 1.524 . S
C1263 C1255 1.503 . S
C1263 C1262 1.370 . S
C1263 C1264 1.403 . S
C1264 C1263 1.403 . S
C1264 C1265 1.404 . S
C1264 C1267 1.539 . S
C1265 C1261 1.408 . S
C1265 C1264 1.404 . S
C1265 H1277 0.930 1_556 S
C1266 C1262 1.524 . S
C1266 H1278 0.956 . S
C1266 H1279 0.961 . S
C1266 H1280 0.961 . S
C1267 C1264 1.539 . S
C1267 H1281 0.958 . S
C1267 H1282 0.961 . S
C1267 H1283 0.960 . S
H1268 C1252 0.931 . S
H1269 C1257 0.929 . S
H1270 C1258 0.960 . S
H1271 C1258 0.962 . S
H1272 C1258 0.960 . S
H1273 C1259 0.961 . S
H1274 C1259 0.961 . S
H1275 C1259 0.961 . S
H1276 C1260 0.931 . S
H1277 C1265 0.930 1_554 S
H1278 C1266 0.956 . S
H1279 C1266 0.961 . S
H1280 C1266 0.961 . S
H1281 C1267 0.958 . S
H1282 C1267 0.961 . S
H1283 C1267 0.960 . S
C1284 C1285 1.391 . S
C1284 C1286 1.394 . S
C1284 H1300 0.931 . S
C1285 C1284 1.391 . S
C1285 C1289 1.376 . S
C1286 C1284 1.394 . S
C1286 C1287 1.369 . S
C1286 C1290 1.531 . S
C1287 C1286 1.369 . S
C1287 C1288 1.410 . S
C1287 C1295 1.503 . S
C1288 C1287 1.410 . S
C1288 C1289 1.392 . S
C1288 C1291 1.511 . S
C1289 C1285 1.376 . S
C1289 C1288 1.392 . S
C1289 H1301 0.929 . S
C1290 C1286 1.531 . S
C1290 H1302 0.960 . S
C1290 H1303 0.962 . S
C1290 H1304 0.960 . S
C1291 C1288 1.511 . S
C1291 H1305 0.961 . S
C1291 H1306 0.961 . S
C1291 H1307 0.961 . S
C1292 C1293 1.370 . S
C1292 C1294 1.363 . S
C1292 H1308 0.931 . S
C1293 C1292 1.370 . S
C1293 C1297 1.408 . S
C1294 C1292 1.363 . S
C1294 C1295 1.370 . S
C1294 C1298 1.524 . S
C1295 C1287 1.503 . S
C1295 C1294 1.370 . S
C1295 C1296 1.403 . S
C1296 C1295 1.403 . S
C1296 C1297 1.404 . S
C1296 C1299 1.539 . S
C1297 C1293 1.408 . S
C1297 C1296 1.404 . S
C1297 H1309 0.930 . S
C1298 C1294 1.524 . S
C1298 H1310 0.956 . S
C1298 H1311 0.961 . S
C1298 H1312 0.961 . S
C1299 C1296 1.539 . S
C1299 H1313 0.958 . S
C1299 H1314 0.961 . S
C1299 H1315 0.960 . S
H1300 C1284 0.931 . S
H1301 C1289 0.929 . S
H1302 C1290 0.960 . S
H1303 C1290 0.962 . S
H1304 C1290 0.960 . S
H1305 C1291 0.961 . S
H1306 C1291 0.961 . S
H1307 C1291 0.961 . S
H1308 C1292 0.931 . S
H1309 C1297 0.930 . S
H1310 C1298 0.956 . S
H1311 C1298 0.961 . S
H1312 C1298 0.961 . S
H1313 C1299 0.958 . S
H1314 C1299 0.961 . S
H1315 C1299 0.960 . S
C1316 C1317 1.391 . S
C1316 C1318 1.394 . S
C1316 H1332 0.931 . S
C1317 C1316 1.391 . S
C1317 C1321 1.376 . S
C1318 C1316 1.394 . S
C1318 C1319 1.369 . S
C1318 C1322 1.531 . S
C1319 C1318 1.369 . S
C1319 C1320 1.410 . S
C1319 C1327 1.503 . S
C1320 C1319 1.410 . S
C1320 C1321 1.392 . S
C1320 C1323 1.511 . S
C1321 C1317 1.376 . S
C1321 C1320 1.392 . S
C1321 H1333 0.929 . S
C1322 C1318 1.531 . S
C1322 H1334 0.960 . S
C1322 H1335 0.962 . S
C1322 H1336 0.960 . S
C1323 C1320 1.511 . S
C1323 H1337 0.961 . S
C1323 H1338 0.961 . S
C1323 H1339 0.961 . S
C1324 C1325 1.370 . S
C1324 C1326 1.363 . S
C1324 H1340 0.931 . S
C1325 C1324 1.370 . S
C1325 C1329 1.408 . S
C1326 C1324 1.363 . S
C1326 C1327 1.370 . S
C1326 C1330 1.524 . S
C1327 C1319 1.503 . S
C1327 C1326 1.370 . S
C1327 C1328 1.403 . S
C1328 C1327 1.403 . S
C1328 C1329 1.404 . S
C1328 C1331 1.539 . S
C1329 C1325 1.408 . S
C1329 C1328 1.404 . S
C1329 H1341 0.930 . S
C1330 C1326 1.524 . S
C1330 H1342 0.956 . S
C1330 H1343 0.961 . S
C1330 H1344 0.961 . S
C1331 C1328 1.539 . S
C1331 H1345 0.958 . S
C1331 H1346 0.961 . S
C1331 H1347 0.960 . S
H1332 C1316 0.931 . S
H1333 C1321 0.929 . S
H1334 C1322 0.960 . S
H1335 C1322 0.962 . S
H1336 C1322 0.960 . S
H1337 C1323 0.961 . S
H1338 C1323 0.961 . S
H1339 C1323 0.961 . S
H1340 C1324 0.931 . S
H1341 C1329 0.930 . S
H1342 C1330 0.956 . S
H1343 C1330 0.961 . S
H1344 C1330 0.961 . S
H1345 C1331 0.958 . S
H1346 C1331 0.961 . S
H1347 C1331 0.960 . S
C1348 C1349 1.391 . S
C1348 C1350 1.394 . S
C1348 H1364 0.931 . S
C1349 C1348 1.391 . S
C1349 C1353 1.376 . S
C1350 C1348 1.394 . S
C1350 C1351 1.369 . S
C1350 C1354 1.531 . S
C1351 C1350 1.369 . S
C1351 C1352 1.410 . S
C1351 C1359 1.503 . S
C1352 C1351 1.410 . S
C1352 C1353 1.392 . S
C1352 C1355 1.511 . S
C1353 C1349 1.376 . S
C1353 C1352 1.392 . S
C1353 H1365 0.929 . S
C1354 C1350 1.531 . S
C1354 H1366 0.960 . S
C1354 H1367 0.962 . S
C1354 H1368 0.960 . S
C1355 C1352 1.511 . S
C1355 H1369 0.961 . S
C1355 H1370 0.961 . S
C1355 H1371 0.961 . S
C1356 C1357 1.370 . S
C1356 C1358 1.363 . S
C1356 H1372 0.931 . S
C1357 C1356 1.370 . S
C1357 C1361 1.408 . S
C1358 C1356 1.363 . S
C1358 C1359 1.370 . S
C1358 C1362 1.524 . S
C1359 C1351 1.503 . S
C1359 C1358 1.370 . S
C1359 C1360 1.403 . S
C1360 C1359 1.403 . S
C1360 C1361 1.404 . S
C1360 C1363 1.539 . S
C1361 C1357 1.408 . S
C1361 C1360 1.404 . S
C1361 H1373 0.930 . S
C1362 C1358 1.524 . S
C1362 H1374 0.956 . S
C1362 H1375 0.961 . S
C1362 H1376 0.961 . S
C1363 C1360 1.539 . S
C1363 H1377 0.958 . S
C1363 H1378 0.961 . S
C1363 H1379 0.960 . S
H1364 C1348 0.931 . S
H1365 C1353 0.929 . S
H1366 C1354 0.960 . S
H1367 C1354 0.962 . S
H1368 C1354 0.960 . S
H1369 C1355 0.961 . S
H1370 C1355 0.961 . S
H1371 C1355 0.961 . S
H1372 C1356 0.931 . S
H1373 C1361 0.930 . S
H1374 C1362 0.956 . S
H1375 C1362 0.961 . S
H1376 C1362 0.961 . S
H1377 C1363 0.958 . S
H1378 C1363 0.961 . S
H1379 C1363 0.960 . S
C1380 C1381 1.391 . S
C1380 C1382 1.394 . S
C1380 H1396 0.931 . S
C1381 C1380 1.391 . S
C1381 C1385 1.376 . S
C1382 C1380 1.394 . S
C1382 C1383 1.369 . S
C1382 C1386 1.531 . S
C1383 C1382 1.369 . S
C1383 C1384 1.410 . S
C1383 C1391 1.503 . S
C1384 C1383 1.410 . S
C1384 C1385 1.392 . S
C1384 C1387 1.511 . S
C1385 C1381 1.376 . S
C1385 C1384 1.392 . S
C1385 H1397 0.929 . S
C1386 C1382 1.531 . S
C1386 H1398 0.960 . S
C1386 H1399 0.962 . S
C1386 H1400 0.960 . S
C1387 C1384 1.511 . S
C1387 H1401 0.961 . S
C1387 H1402 0.961 . S
C1387 H1403 0.961 . S
C1388 C1389 1.370 . S
C1388 C1390 1.363 . S
C1388 H1404 0.931 . S
C1389 C1388 1.370 . S
C1389 C1393 1.408 . S
C1390 C1388 1.363 . S
C1390 C1391 1.370 . S
C1390 C1394 1.524 . S
C1391 C1383 1.503 . S
C1391 C1390 1.370 . S
C1391 C1392 1.403 . S
C1392 C1391 1.403 . S
C1392 C1393 1.404 . S
C1392 C1395 1.539 . S
C1393 C1389 1.408 . S
C1393 C1392 1.404 . S
C1393 H1405 0.930 . S
C1394 C1390 1.524 . S
C1394 H1406 0.956 . S
C1394 H1407 0.961 . S
C1394 H1408 0.961 . S
C1395 C1392 1.539 . S
C1395 H1409 0.958 . S
C1395 H1410 0.961 . S
C1395 H1411 0.960 . S
H1396 C1380 0.931 . S
H1397 C1385 0.929 . S
H1398 C1386 0.960 . S
H1399 C1386 0.962 . S
H1400 C1386 0.960 . S
H1401 C1387 0.961 . S
H1402 C1387 0.961 . S
H1403 C1387 0.961 . S
H1404 C1388 0.931 . S
H1405 C1393 0.930 . S
H1406 C1394 0.956 . S
H1407 C1394 0.961 . S
H1408 C1394 0.961 . S
H1409 C1395 0.958 . S
H1410 C1395 0.961 . S
H1411 C1395 0.960 . S
C1412 C1413 1.391 . S
C1412 C1414 1.394 . S
C1412 H1428 0.931 . S
C1413 C1412 1.391 . S
C1413 C1417 1.376 . S
C1414 C1412 1.394 . S
C1414 C1415 1.369 . S
C1414 C1418 1.531 . S
C1415 C1414 1.369 . S
C1415 C1416 1.410 . S
C1415 C1423 1.503 . S
C1416 C1415 1.410 . S
C1416 C1417 1.392 . S
C1416 C1419 1.511 . S
C1417 C1413 1.376 . S
C1417 C1416 1.392 . S
C1417 H1429 0.929 . S
C1418 C1414 1.531 . S
C1418 H1430 0.960 . S
C1418 H1431 0.962 . S
C1418 H1432 0.960 . S
C1419 C1416 1.511 . S
C1419 H1433 0.961 . S
C1419 H1434 0.961 . S
C1419 H1435 0.961 . S
C1420 C1421 1.370 . S
C1420 C1422 1.363 . S
C1420 H1436 0.931 . S
C1421 C1420 1.370 . S
C1421 C1425 1.408 . S
C1422 C1420 1.363 . S
C1422 C1423 1.370 . S
C1422 C1426 1.524 . S
C1423 C1415 1.503 . S
C1423 C1422 1.370 . S
C1423 C1424 1.403 . S
C1424 C1423 1.403 . S
C1424 C1425 1.404 . S
C1424 C1427 1.539 . S
C1425 C1421 1.408 . S
C1425 C1424 1.404 . S
C1425 H1437 0.930 . S
C1426 C1422 1.524 . S
C1426 H1438 0.956 . S
C1426 H1439 0.961 . S
C1426 H1440 0.961 . S
C1427 C1424 1.539 . S
C1427 H1441 0.958 . S
C1427 H1442 0.961 . S
C1427 H1443 0.960 . S
H1428 C1412 0.931 . S
H1429 C1417 0.929 . S
H1430 C1418 0.960 . S
H1431 C1418 0.962 . S
H1432 C1418 0.960 . S
H1433 C1419 0.961 . S
H1434 C1419 0.961 . S
H1435 C1419 0.961 . S
H1436 C1420 0.931 . S
H1437 C1425 0.930 . S
H1438 C1426 0.956 . S
H1439 C1426 0.961 . S
H1440 C1426 0.961 . S
H1441 C1427 0.958 . S
H1442 C1427 0.961 . S
H1443 C1427 0.960 . S
C1444 C1445 1.391 . S
C1444 C1446 1.394 . S
C1444 H1460 0.931 . S
C1445 C1444 1.391 . S
C1445 C1449 1.376 . S
C1446 C1444 1.394 . S
C1446 C1447 1.369 . S
C1446 C1450 1.531 . S
C1447 C1446 1.369 . S
C1447 C1448 1.410 . S
C1447 C1455 1.503 . S
C1448 C1447 1.410 . S
C1448 C1449 1.392 . S
C1448 C1451 1.511 . S
C1449 C1445 1.376 . S
C1449 C1448 1.392 . S
C1449 H1461 0.929 . S
C1450 C1446 1.531 . S
C1450 H1462 0.960 . S
C1450 H1463 0.962 . S
C1450 H1464 0.960 . S
C1451 C1448 1.511 . S
C1451 H1465 0.961 . S
C1451 H1466 0.961 . S
C1451 H1467 0.961 . S
C1452 C1453 1.370 . S
C1452 C1454 1.363 . S
C1452 H1468 0.931 . S
C1453 C1452 1.370 . S
C1453 C1457 1.408 . S
C1454 C1452 1.363 . S
C1454 C1455 1.370 . S
C1454 C1458 1.524 . S
C1455 C1447 1.503 . S
C1455 C1454 1.370 . S
C1455 C1456 1.403 . S
C1456 C1455 1.403 . S
C1456 C1457 1.404 . S
C1456 C1459 1.539 . S
C1457 C1453 1.408 . S
C1457 C1456 1.404 . S
C1457 H1469 0.930 . S
C1458 C1454 1.524 . S
C1458 H1470 0.956 . S
C1458 H1471 0.961 . S
C1458 H1472 0.961 . S
C1459 C1456 1.539 . S
C1459 H1473 0.958 . S
C1459 H1474 0.961 . S
C1459 H1475 0.960 . S
H1460 C1444 0.931 . S
H1461 C1449 0.929 . S
H1462 C1450 0.960 . S
H1463 C1450 0.962 . S
H1464 C1450 0.960 . S
H1465 C1451 0.961 . S
H1466 C1451 0.961 . S
H1467 C1451 0.961 . S
H1468 C1452 0.931 . S
H1469 C1457 0.930 . S
H1470 C1458 0.956 . S
H1471 C1458 0.961 . S
H1472 C1458 0.961 . S
H1473 C1459 0.958 . S
H1474 C1459 0.961 . S
H1475 C1459 0.960 . S
C1476 C1477 1.391 . S
C1476 C1478 1.394 . S
C1476 H1492 0.931 . S
C1477 C1476 1.391 . S
C1477 C1481 1.376 . S
C1478 C1476 1.394 . S
C1478 C1479 1.369 . S
C1478 C1482 1.531 . S
C1479 C1478 1.369 . S
C1479 C1480 1.410 . S
C1479 C1487 1.503 . S
C1480 C1479 1.410 . S
C1480 C1481 1.392 . S
C1480 C1483 1.511 . S
C1481 C1477 1.376 . S
C1481 C1480 1.392 . S
C1481 H1493 0.929 . S
C1482 C1478 1.531 . S
C1482 H1494 0.960 . S
C1482 H1495 0.962 . S
C1482 H1496 0.960 . S
C1483 C1480 1.511 . S
C1483 H1497 0.961 . S
C1483 H1498 0.961 . S
C1483 H1499 0.961 . S
C1484 C1485 1.370 . S
C1484 C1486 1.363 . S
C1484 H1500 0.931 . S
C1485 C1484 1.370 . S
C1485 C1489 1.408 . S
C1486 C1484 1.363 . S
C1486 C1487 1.370 . S
C1486 C1490 1.524 . S
C1487 C1479 1.503 . S
C1487 C1486 1.370 . S
C1487 C1488 1.403 . S
C1488 C1487 1.403 . S
C1488 C1489 1.404 . S
C1488 C1491 1.539 . S
C1489 C1485 1.408 . S
C1489 C1488 1.404 . S
C1489 H1501 0.930 . S
C1490 C1486 1.524 . S
C1490 H1502 0.956 . S
C1490 H1503 0.961 . S
C1490 H1504 0.961 . S
C1491 C1488 1.539 . S
C1491 H1505 0.958 . S
C1491 H1506 0.961 . S
C1491 H1507 0.960 . S
H1492 C1476 0.931 . S
H1493 C1481 0.929 . S
H1494 C1482 0.960 . S
H1495 C1482 0.962 . S
H1496 C1482 0.960 . S
H1497 C1483 0.961 . S
H1498 C1483 0.961 . S
H1499 C1483 0.961 . S
H1500 C1484 0.931 . S
H1501 C1489 0.930 . S
H1502 C1490 0.956 . S
H1503 C1490 0.961 . S
H1504 C1490 0.961 . S
H1505 C1491 0.958 . S
H1506 C1491 0.961 . S
H1507 C1491 0.960 . S
C1508 C1509 1.391 . S
C1508 C1510 1.394 . S
C1508 H1524 0.931 . S
C1509 C1508 1.391 . S
C1509 C1513 1.376 . S
C1510 C1508 1.394 . S
C1510 C1511 1.369 . S
C1510 C1514 1.531 . S
C1511 C1510 1.369 . S
C1511 C1512 1.410 . S
C1511 C1519 1.503 . S
C1512 C1511 1.410 . S
C1512 C1513 1.392 . S
C1512 C1515 1.511 . S
C1513 C1509 1.376 . S
C1513 C1512 1.392 . S
C1513 H1525 0.929 . S
C1514 C1510 1.531 . S
C1514 H1526 0.960 . S
C1514 H1527 0.962 . S
C1514 H1528 0.960 . S
C1515 C1512 1.511 . S
C1515 H1529 0.961 . S
C1515 H1530 0.961 . S
C1515 H1531 0.961 . S
C1516 C1517 1.370 . S
C1516 C1518 1.363 . S
C1516 H1532 0.931 1_556 S
C1517 C1516 1.370 . S
C1517 C1521 1.408 . S
C1518 C1516 1.363 . S
C1518 C1519 1.370 . S
C1518 C1522 1.524 . S
C1519 C1511 1.503 . S
C1519 C1518 1.370 . S
C1519 C1520 1.403 . S
C1520 C1519 1.403 . S
C1520 C1521 1.404 . S
C1520 C1523 1.539 . S
C1521 C1517 1.408 . S
C1521 C1520 1.404 . S
C1521 H1533 0.930 . S
C1522 C1518 1.524 . S
C1522 H1534 0.956 . S
C1522 H1535 0.961 . S
C1522 H1536 0.961 . S
C1523 C1520 1.539 . S
C1523 H1537 0.958 . S
C1523 H1538 0.961 . S
C1523 H1539 0.960 . S
H1524 C1508 0.931 . S
H1525 C1513 0.929 . S
H1526 C1514 0.960 . S
H1527 C1514 0.962 . S
H1528 C1514 0.960 . S
H1529 C1515 0.961 . S
H1530 C1515 0.961 . S
H1531 C1515 0.961 . S
H1532 C1516 0.931 1_554 S
H1533 C1521 0.930 . S
H1534 C1522 0.956 . S
H1535 C1522 0.961 . S
H1536 C1522 0.961 . S
H1537 C1523 0.958 . S
H1538 C1523 0.961 . S
H1539 C1523 0.960 . S
C1540 C1541 1.391 . S
C1540 C1542 1.394 . S
C1540 H1556 0.931 . S
C1541 C1540 1.391 . S
C1541 C1545 1.376 . S
C1542 C1540 1.394 . S
C1542 C1543 1.369 . S
C1542 C1546 1.531 . S
C1543 C1542 1.369 . S
C1543 C1544 1.410 . S
C1543 C1551 1.503 . S
C1544 C1543 1.410 . S
C1544 C1545 1.392 . S
C1544 C1547 1.511 . S
C1545 C1541 1.376 . S
C1545 C1544 1.392 . S
C1545 H1557 0.929 . S
C1546 C1542 1.531 . S
C1546 H1558 0.960 . S
C1546 H1559 0.962 . S
C1546 H1560 0.960 . S
C1547 C1544 1.511 . S
C1547 H1561 0.961 . S
C1547 H1562 0.961 . S
C1547 H1563 0.961 . S
C1548 C1549 1.370 . S
C1548 C1550 1.363 . S
C1548 H1564 0.931 . S
C1549 C1548 1.370 . S
C1549 C1553 1.408 . S
C1550 C1548 1.363 . S
C1550 C1551 1.370 . S
C1550 C1554 1.524 . S
C1551 C1543 1.503 . S
C1551 C1550 1.370 . S
C1551 C1552 1.403 . S
C1552 C1551 1.403 . S
C1552 C1553 1.404 . S
C1552 C1555 1.539 . S
C1553 C1549 1.408 . S
C1553 C1552 1.404 . S
C1553 H1565 0.930 . S
C1554 C1550 1.524 . S
C1554 H1566 0.956 . S
C1554 H1567 0.961 . S
C1554 H1568 0.961 . S
C1555 C1552 1.539 . S
C1555 H1569 0.958 . S
C1555 H1570 0.961 . S
C1555 H1571 0.960 . S
H1556 C1540 0.931 . S
H1557 C1545 0.929 . S
H1558 C1546 0.960 . S
H1559 C1546 0.962 . S
H1560 C1546 0.960 . S
H1561 C1547 0.961 . S
H1562 C1547 0.961 . S
H1563 C1547 0.961 . S
H1564 C1548 0.931 . S
H1565 C1553 0.930 . S
H1566 C1554 0.956 . S
H1567 C1554 0.961 . S
H1568 C1554 0.961 . S
H1569 C1555 0.958 . S
H1570 C1555 0.961 . S
H1571 C1555 0.960 . S
C1572 C1573 1.391 . S
C1572 C1574 1.394 . S
C1572 H1588 0.931 . S
C1573 C1572 1.391 . S
C1573 C1577 1.376 . S
C1574 C1572 1.394 . S
C1574 C1575 1.369 . S
C1574 C1578 1.531 . S
C1575 C1574 1.369 . S
C1575 C1576 1.410 . S
C1575 C1583 1.503 . S
C1576 C1575 1.410 . S
C1576 C1577 1.392 . S
C1576 C1579 1.511 . S
C1577 C1573 1.376 . S
C1577 C1576 1.392 . S
C1577 H1589 0.929 . S
C1578 C1574 1.531 . S
C1578 H1590 0.960 . S
C1578 H1591 0.962 . S
C1578 H1592 0.960 . S
C1579 C1576 1.511 . S
C1579 H1593 0.961 . S
C1579 H1594 0.961 . S
C1579 H1595 0.961 . S
C1580 C1581 1.370 . S
C1580 C1582 1.363 . S
C1580 H1596 0.931 . S
C1581 C1580 1.370 . S
C1581 C1585 1.408 . S
C1582 C1580 1.363 . S
C1582 C1583 1.370 . S
C1582 C1586 1.524 . S
C1583 C1575 1.503 . S
C1583 C1582 1.370 . S
C1583 C1584 1.403 . S
C1584 C1583 1.403 . S
C1584 C1585 1.404 . S
C1584 C1587 1.539 . S
C1585 C1581 1.408 . S
C1585 C1584 1.404 . S
C1585 H1597 0.930 . S
C1586 C1582 1.524 . S
C1586 H1598 0.956 . S
C1586 H1599 0.961 . S
C1586 H1600 0.961 . S
C1587 C1584 1.539 . S
C1587 H1601 0.958 . S
C1587 H1602 0.961 . S
C1587 H1603 0.960 . S
H1588 C1572 0.931 . S
H1589 C1577 0.929 . S
H1590 C1578 0.960 . S
H1591 C1578 0.962 . S
H1592 C1578 0.960 . S
H1593 C1579 0.961 . S
H1594 C1579 0.961 . S
H1595 C1579 0.961 . S
H1596 C1580 0.931 . S
H1597 C1585 0.930 . S
H1598 C1586 0.956 . S
H1599 C1586 0.961 . S
H1600 C1586 0.961 . S
H1601 C1587 0.958 . S
H1602 C1587 0.961 . S
H1603 C1587 0.960 . S
C1604 C1605 1.391 . S
C1604 C1606 1.394 . S
C1604 H1620 0.931 . S
C1605 C1604 1.391 . S
C1605 C1609 1.376 . S
C1606 C1604 1.394 . S
C1606 C1607 1.369 . S
C1606 C1610 1.531 . S
C1607 C1606 1.369 . S
C1607 C1608 1.410 . S
C1607 C1615 1.503 . S
C1608 C1607 1.410 . S
C1608 C1609 1.392 . S
C1608 C1611 1.511 . S
C1609 C1605 1.376 . S
C1609 C1608 1.392 . S
C1609 H1621 0.929 . S
C1610 C1606 1.531 . S
C1610 H1622 0.960 . S
C1610 H1623 0.962 . S
C1610 H1624 0.960 . S
C1611 C1608 1.511 . S
C1611 H1625 0.961 . S
C1611 H1626 0.961 . S
C1611 H1627 0.961 . S
C1612 C1613 1.370 . S
C1612 C1614 1.363 . S
C1612 H1628 0.931 . S
C1613 C1612 1.370 . S
C1613 C1617 1.408 . S
C1614 C1612 1.363 . S
C1614 C1615 1.370 . S
C1614 C1618 1.524 . S
C1615 C1607 1.503 . S
C1615 C1614 1.370 . S
C1615 C1616 1.403 . S
C1616 C1615 1.403 . S
C1616 C1617 1.404 . S
C1616 C1619 1.539 . S
C1617 C1613 1.408 . S
C1617 C1616 1.404 . S
C1617 H1629 0.930 . S
C1618 C1614 1.524 . S
C1618 H1630 0.956 . S
C1618 H1631 0.961 . S
C1618 H1632 0.961 . S
C1619 C1616 1.539 . S
C1619 H1633 0.958 . S
C1619 H1634 0.961 . S
C1619 H1635 0.960 . S
H1620 C1604 0.931 . S
H1621 C1609 0.929 . S
H1622 C1610 0.960 . S
H1623 C1610 0.962 . S
H1624 C1610 0.960 . S
H1625 C1611 0.961 . S
H1626 C1611 0.961 . S
H1627 C1611 0.961 . S
H1628 C1612 0.931 . S
H1629 C1617 0.930 . S
H1630 C1618 0.956 . S
H1631 C1618 0.961 . S
H1632 C1618 0.961 . S
H1633 C1619 0.958 . S
H1634 C1619 0.961 . S
H1635 C1619 0.960 . S
C1636 C1637 1.391 . S
C1636 C1638 1.394 . S
C1636 H1652 0.931 . S
C1637 C1636 1.391 . S
C1637 C1641 1.376 . S
C1638 C1636 1.394 . S
C1638 C1639 1.369 . S
C1638 C1642 1.531 . S
C1639 C1638 1.369 . S
C1639 C1640 1.410 . S
C1639 C1647 1.503 . S
C1640 C1639 1.410 . S
C1640 C1641 1.392 . S
C1640 C1643 1.511 . S
C1641 C1637 1.376 . S
C1641 C1640 1.392 . S
C1641 H1653 0.929 . S
C1642 C1638 1.531 . S
C1642 H1654 0.960 . S
C1642 H1655 0.962 . S
C1642 H1656 0.960 . S
C1643 C1640 1.511 . S
C1643 H1657 0.961 . S
C1643 H1658 0.961 . S
C1643 H1659 0.961 . S
C1644 C1645 1.370 . S
C1644 C1646 1.363 . S
C1644 H1660 0.931 . S
C1645 C1644 1.370 . S
C1645 C1649 1.408 . S
C1646 C1644 1.363 . S
C1646 C1647 1.370 . S
C1646 C1650 1.524 . S
C1647 C1639 1.503 . S
C1647 C1646 1.370 . S
C1647 C1648 1.403 . S
C1648 C1647 1.403 . S
C1648 C1649 1.404 . S
C1648 C1651 1.539 . S
C1649 C1645 1.408 . S
C1649 C1648 1.404 . S
C1649 H1661 0.930 . S
C1650 C1646 1.524 . S
C1650 H1662 0.956 . S
C1650 H1663 0.961 . S
C1650 H1664 0.961 . S
C1651 C1648 1.539 . S
C1651 H1665 0.958 . S
C1651 H1666 0.961 . S
C1651 H1667 0.960 . S
H1652 C1636 0.931 . S
H1653 C1641 0.929 . S
H1654 C1642 0.960 . S
H1655 C1642 0.962 . S
H1656 C1642 0.960 . S
H1657 C1643 0.961 . S
H1658 C1643 0.961 . S
H1659 C1643 0.961 . S
H1660 C1644 0.931 . S
H1661 C1649 0.930 . S
H1662 C1650 0.956 . S
H1663 C1650 0.961 . S
H1664 C1650 0.961 . S
H1665 C1651 0.958 . S
H1666 C1651 0.961 . S
H1667 C1651 0.960 . S
C1668 C1669 1.391 . S
C1668 C1670 1.394 . S
C1668 H1684 0.931 . S
C1669 C1668 1.391 . S
C1669 C1673 1.376 . S
C1670 C1668 1.394 . S
C1670 C1671 1.369 . S
C1670 C1674 1.531 . S
C1671 C1670 1.369 . S
C1671 C1672 1.410 . S
C1671 C1679 1.503 . S
C1672 C1671 1.410 . S
C1672 C1673 1.392 . S
C1672 C1675 1.511 . S
C1673 C1669 1.376 . S
C1673 C1672 1.392 . S
C1673 H1685 0.929 . S
C1674 C1670 1.531 . S
C1674 H1686 0.960 . S
C1674 H1687 0.962 . S
C1674 H1688 0.960 . S
C1675 C1672 1.511 . S
C1675 H1689 0.961 . S
C1675 H1690 0.961 . S
C1675 H1691 0.961 . S
C1676 C1677 1.370 . S
C1676 C1678 1.363 . S
C1676 H1692 0.931 . S
C1677 C1676 1.370 . S
C1677 C1681 1.408 . S
C1678 C1676 1.363 . S
C1678 C1679 1.370 . S
C1678 C1682 1.524 . S
C1679 C1671 1.503 . S
C1679 C1678 1.370 . S
C1679 C1680 1.403 . S
C1680 C1679 1.403 . S
C1680 C1681 1.404 . S
C1680 C1683 1.539 . S
C1681 C1677 1.408 . S
C1681 C1680 1.404 . S
C1681 H1693 0.930 . S
C1682 C1678 1.524 . S
C1682 H1694 0.956 . S
C1682 H1695 0.961 . S
C1682 H1696 0.961 . S
C1683 C1680 1.539 . S
C1683 H1697 0.958 . S
C1683 H1698 0.961 . S
C1683 H1699 0.960 . S
H1684 C1668 0.931 . S
H1685 C1673 0.929 . S
H1686 C1674 0.960 . S
H1687 C1674 0.962 . S
H1688 C1674 0.960 . S
H1689 C1675 0.961 . S
H1690 C1675 0.961 . S
H1691 C1675 0.961 . S
H1692 C1676 0.931 . S
H1693 C1681 0.930 . S
H1694 C1682 0.956 . S
H1695 C1682 0.961 . S
H1696 C1682 0.961 . S
H1697 C1683 0.958 . S
H1698 C1683 0.961 . S
H1699 C1683 0.960 . S
C1700 C1701 1.391 . S
C1700 C1702 1.394 . S
C1700 H1716 0.931 . S
C1701 C1700 1.391 . S
C1701 C1705 1.376 . S
C1702 C1700 1.394 . S
C1702 C1703 1.369 . S
C1702 C1706 1.531 . S
C1703 C1702 1.369 . S
C1703 C1704 1.410 . S
C1703 C1711 1.503 . S
C1704 C1703 1.410 . S
C1704 C1705 1.392 . S
C1704 C1707 1.511 . S
C1705 C1701 1.376 . S
C1705 C1704 1.392 . S
C1705 H1717 0.929 . S
C1706 C1702 1.531 . S
C1706 H1718 0.960 . S
C1706 H1719 0.962 . S
C1706 H1720 0.960 . S
C1707 C1704 1.511 . S
C1707 H1721 0.961 . S
C1707 H1722 0.961 . S
C1707 H1723 0.961 . S
C1708 C1709 1.370 . S
C1708 C1710 1.363 . S
C1708 H1724 0.931 . S
C1709 C1708 1.370 . S
C1709 C1713 1.408 . S
C1710 C1708 1.363 . S
C1710 C1711 1.370 . S
C1710 C1714 1.524 . S
C1711 C1703 1.503 . S
C1711 C1710 1.370 . S
C1711 C1712 1.403 . S
C1712 C1711 1.403 . S
C1712 C1713 1.404 . S
C1712 C1715 1.539 . S
C1713 C1709 1.408 . S
C1713 C1712 1.404 . S
C1713 H1725 0.930 . S
C1714 C1710 1.524 . S
C1714 H1726 0.956 . S
C1714 H1727 0.961 . S
C1714 H1728 0.961 . S
C1715 C1712 1.539 . S
C1715 H1729 0.958 . S
C1715 H1730 0.961 . S
C1715 H1731 0.960 . S
H1716 C1700 0.931 . S
H1717 C1705 0.929 . S
H1718 C1706 0.960 . S
H1719 C1706 0.962 . S
H1720 C1706 0.960 . S
H1721 C1707 0.961 . S
H1722 C1707 0.961 . S
H1723 C1707 0.961 . S
H1724 C1708 0.931 . S
H1725 C1713 0.930 . S
H1726 C1714 0.956 . S
H1727 C1714 0.961 . S
H1728 C1714 0.961 . S
H1729 C1715 0.958 . S
H1730 C1715 0.961 . S
H1731 C1715 0.960 . S
C1732 C1733 1.391 . S
C1732 C1734 1.394 . S
C1732 H1748 0.931 . S
C1733 C1732 1.391 . S
C1733 C1737 1.376 . S
C1734 C1732 1.394 . S
C1734 C1735 1.369 . S
C1734 C1738 1.531 . S
C1735 C1734 1.369 . S
C1735 C1736 1.410 . S
C1735 C1743 1.503 . S
C1736 C1735 1.410 . S
C1736 C1737 1.392 . S
C1736 C1739 1.511 . S
C1737 C1733 1.376 . S
C1737 C1736 1.392 . S
C1737 H1749 0.929 . S
C1738 C1734 1.531 . S
C1738 H1750 0.960 . S
C1738 H1751 0.962 . S
C1738 H1752 0.960 . S
C1739 C1736 1.511 . S
C1739 H1753 0.961 . S
C1739 H1754 0.961 . S
C1739 H1755 0.961 . S
C1740 C1741 1.370 . S
C1740 C1742 1.363 . S
C1740 H1756 0.931 . S
C1741 C1740 1.370 . S
C1741 C1745 1.408 . S
C1742 C1740 1.363 . S
C1742 C1743 1.370 . S
C1742 C1746 1.524 . S
C1743 C1735 1.503 . S
C1743 C1742 1.370 . S
C1743 C1744 1.403 . S
C1744 C1743 1.403 . S
C1744 C1745 1.404 . S
C1744 C1747 1.539 . S
C1745 C1741 1.408 . S
C1745 C1744 1.404 . S
C1745 H1757 0.930 . S
C1746 C1742 1.524 . S
C1746 H1758 0.956 . S
C1746 H1759 0.961 . S
C1746 H1760 0.961 . S
C1747 C1744 1.539 . S
C1747 H1761 0.958 . S
C1747 H1762 0.961 . S
C1747 H1763 0.960 . S
H1748 C1732 0.931 . S
H1749 C1737 0.929 . S
H1750 C1738 0.960 . S
H1751 C1738 0.962 . S
H1752 C1738 0.960 . S
H1753 C1739 0.961 . S
H1754 C1739 0.961 . S
H1755 C1739 0.961 . S
H1756 C1740 0.931 . S
H1757 C1745 0.930 . S
H1758 C1746 0.956 . S
H1759 C1746 0.961 . S
H1760 C1746 0.961 . S
H1761 C1747 0.958 . S
H1762 C1747 0.961 . S
H1763 C1747 0.960 . S
C1764 C1765 1.391 . S
C1764 C1766 1.394 . S
C1764 H1780 0.931 . S
C1765 C1764 1.391 . S
C1765 C1769 1.376 . S
C1766 C1764 1.394 . S
C1766 C1767 1.369 . S
C1766 C1770 1.531 . S
C1767 C1766 1.369 . S
C1767 C1768 1.410 . S
C1767 C1775 1.503 . S
C1768 C1767 1.410 . S
C1768 C1769 1.392 . S
C1768 C1771 1.511 . S
C1769 C1765 1.376 . S
C1769 C1768 1.392 . S
C1769 H1781 0.929 . S
C1770 C1766 1.531 . S
C1770 H1782 0.960 . S
C1770 H1783 0.962 . S
C1770 H1784 0.960 . S
C1771 C1768 1.511 . S
C1771 H1785 0.961 . S
C1771 H1786 0.961 . S
C1771 H1787 0.961 . S
C1772 C1773 1.370 . S
C1772 C1774 1.363 . S
C1772 H1788 0.931 . S
C1773 C1772 1.370 . S
C1773 C1777 1.408 . S
C1774 C1772 1.363 . S
C1774 C1775 1.370 . S
C1774 C1778 1.524 . S
C1775 C1767 1.503 . S
C1775 C1774 1.370 . S
C1775 C1776 1.403 . S
C1776 C1775 1.403 . S
C1776 C1777 1.404 . S
C1776 C1779 1.539 . S
C1777 C1773 1.408 . S
C1777 C1776 1.404 . S
C1777 H1789 0.930 . S
C1778 C1774 1.524 . S
C1778 H1790 0.956 . S
C1778 H1791 0.961 . S
C1778 H1792 0.961 . S
C1779 C1776 1.539 . S
C1779 H1793 0.958 . S
C1779 H1794 0.961 . S
C1779 H1795 0.960 . S
H1780 C1764 0.931 . S
H1781 C1769 0.929 . S
H1782 C1770 0.960 . S
H1783 C1770 0.962 . S
H1784 C1770 0.960 . S
H1785 C1771 0.961 . S
H1786 C1771 0.961 . S
H1787 C1771 0.961 . S
H1788 C1772 0.931 . S
H1789 C1777 0.930 . S
H1790 C1778 0.956 . S
H1791 C1778 0.961 . S
H1792 C1778 0.961 . S
H1793 C1779 0.958 . S
H1794 C1779 0.961 . S
H1795 C1779 0.960 . S
C1796 C1797 1.391 . S
C1796 C1798 1.394 . S
C1796 H1812 0.931 . S
C1797 C1796 1.391 . S
C1797 C1801 1.376 . S
C1798 C1796 1.394 . S
C1798 C1799 1.369 . S
C1798 C1802 1.531 . S
C1799 C1798 1.369 . S
C1799 C1800 1.410 . S
C1799 C1807 1.503 . S
C1800 C1799 1.410 . S
C1800 C1801 1.392 . S
C1800 C1803 1.511 . S
C1801 C1797 1.376 . S
C1801 C1800 1.392 . S
C1801 H1813 0.929 . S
C1802 C1798 1.531 . S
C1802 H1814 0.960 . S
C1802 H1815 0.962 . S
C1802 H1816 0.960 . S
C1803 C1800 1.511 . S
C1803 H1817 0.961 . S
C1803 H1818 0.961 . S
C1803 H1819 0.961 . S
C1804 C1805 1.370 . S
C1804 C1806 1.363 . S
C1804 H1820 0.931 . S
C1805 C1804 1.370 . S
C1805 C1809 1.408 . S
C1806 C1804 1.363 . S
C1806 C1807 1.370 . S
C1806 C1810 1.524 . S
C1807 C1799 1.503 . S
C1807 C1806 1.370 . S
C1807 C1808 1.403 . S
C1808 C1807 1.403 . S
C1808 C1809 1.404 . S
C1808 C1811 1.539 . S
C1809 C1805 1.408 . S
C1809 C1808 1.404 . S
C1809 H1821 0.930 . S
C1810 C1806 1.524 . S
C1810 H1822 0.956 . S
C1810 H1823 0.961 . S
C1810 H1824 0.961 . S
C1811 C1808 1.539 . S
C1811 H1825 0.958 . S
C1811 H1826 0.961 . S
C1811 H1827 0.960 . S
H1812 C1796 0.931 . S
H1813 C1801 0.929 . S
H1814 C1802 0.960 . S
H1815 C1802 0.962 . S
H1816 C1802 0.960 . S
H1817 C1803 0.961 . S
H1818 C1803 0.961 . S
H1819 C1803 0.961 . S
H1820 C1804 0.931 . S
H1821 C1809 0.930 . S
H1822 C1810 0.956 . S
H1823 C1810 0.961 . S
H1824 C1810 0.961 . S
H1825 C1811 0.958 . S
H1826 C1811 0.961 . S
H1827 C1811 0.960 . S
C1828 C1829 1.391 . S
C1828 C1830 1.394 . S
C1828 H1844 0.931 . S
C1829 C1828 1.391 . S
C1829 C1833 1.376 . S
C1830 C1828 1.394 . S
C1830 C1831 1.369 . S
C1830 C1834 1.531 . S
C1831 C1830 1.369 . S
C1831 C1832 1.410 . S
C1831 C1839 1.503 . S
C1832 C1831 1.410 . S
C1832 C1833 1.392 . S
C1832 C1835 1.511 . S
C1833 C1829 1.376 . S
C1833 C1832 1.392 . S
C1833 H1845 0.929 . S
C1834 C1830 1.531 . S
C1834 H1846 0.960 . S
C1834 H1847 0.962 . S
C1834 H1848 0.960 . S
C1835 C1832 1.511 . S
C1835 H1849 0.961 . S
C1835 H1850 0.961 . S
C1835 H1851 0.961 . S
C1836 C1837 1.370 . S
C1836 C1838 1.363 . S
C1836 H1852 0.931 . S
C1837 C1836 1.370 . S
C1837 C1841 1.408 . S
C1838 C1836 1.363 . S
C1838 C1839 1.370 . S
C1838 C1842 1.524 . S
C1839 C1831 1.503 . S
C1839 C1838 1.370 . S
C1839 C1840 1.403 . S
C1840 C1839 1.403 . S
C1840 C1841 1.404 . S
C1840 C1843 1.539 . S
C1841 C1837 1.408 . S
C1841 C1840 1.404 . S
C1841 H1853 0.930 . S
C1842 C1838 1.524 . S
C1842 H1854 0.956 . S
C1842 H1855 0.961 . S
C1842 H1856 0.961 . S
C1843 C1840 1.539 . S
C1843 H1857 0.958 . S
C1843 H1858 0.961 . S
C1843 H1859 0.960 . S
H1844 C1828 0.931 . S
H1845 C1833 0.929 . S
H1846 C1834 0.960 . S
H1847 C1834 0.962 . S
H1848 C1834 0.960 . S
H1849 C1835 0.961 . S
H1850 C1835 0.961 . S
H1851 C1835 0.961 . S
H1852 C1836 0.931 . S
H1853 C1841 0.930 . S
H1854 C1842 0.956 . S
H1855 C1842 0.961 . S
H1856 C1842 0.961 . S
H1857 C1843 0.958 . S
H1858 C1843 0.961 . S
H1859 C1843 0.960 . S
C1860 C1861 1.391 . S
C1860 C1862 1.394 . S
C1860 H1876 0.931 . S
C1861 C1860 1.391 . S
C1861 C1865 1.376 . S
C1862 C1860 1.394 . S
C1862 C1863 1.369 . S
C1862 C1866 1.531 . S
C1863 C1862 1.369 . S
C1863 C1864 1.410 . S
C1863 C1871 1.503 . S
C1864 C1863 1.410 . S
C1864 C1865 1.392 . S
C1864 C1867 1.511 . S
C1865 C1861 1.376 . S
C1865 C1864 1.392 . S
C1865 H1877 0.929 . S
C1866 C1862 1.531 . S
C1866 H1878 0.960 . S
C1866 H1879 0.962 . S
C1866 H1880 0.960 . S
C1867 C1864 1.511 . S
C1867 H1881 0.961 . S
C1867 H1882 0.961 . S
C1867 H1883 0.961 . S
C1868 C1869 1.370 . S
C1868 C1870 1.363 . S
C1868 H1884 0.931 . S
C1869 C1868 1.370 . S
C1869 C1873 1.408 . S
C1870 C1868 1.363 . S
C1870 C1871 1.370 . S
C1870 C1874 1.524 . S
C1871 C1863 1.503 . S
C1871 C1870 1.370 . S
C1871 C1872 1.403 . S
C1872 C1871 1.403 . S
C1872 C1873 1.404 . S
C1872 C1875 1.539 . S
C1873 C1869 1.408 . S
C1873 C1872 1.404 . S
C1873 H1885 0.930 . S
C1874 C1870 1.524 . S
C1874 H1886 0.956 . S
C1874 H1887 0.961 . S
C1874 H1888 0.961 . S
C1875 C1872 1.539 . S
C1875 H1889 0.958 . S
C1875 H1890 0.961 . S
C1875 H1891 0.960 . S
H1876 C1860 0.931 . S
H1877 C1865 0.929 . S
H1878 C1866 0.960 . S
H1879 C1866 0.962 . S
H1880 C1866 0.960 . S
H1881 C1867 0.961 . S
H1882 C1867 0.961 . S
H1883 C1867 0.961 . S
H1884 C1868 0.931 . S
H1885 C1873 0.930 . S
H1886 C1874 0.956 . S
H1887 C1874 0.961 . S
H1888 C1874 0.961 . S
H1889 C1875 0.958 . S
H1890 C1875 0.961 . S
H1891 C1875 0.960 . S
C1892 C1893 1.391 . S
C1892 C1894 1.394 . S
C1892 H1908 0.931 . S
C1893 C1892 1.391 . S
C1893 C1897 1.376 . S
C1894 C1892 1.394 . S
C1894 C1895 1.369 . S
C1894 C1898 1.531 . S
C1895 C1894 1.369 . S
C1895 C1896 1.410 . S
C1895 C1903 1.503 . S
C1896 C1895 1.410 . S
C1896 C1897 1.392 . S
C1896 C1899 1.511 . S
C1897 C1893 1.376 . S
C1897 C1896 1.392 . S
C1897 H1909 0.929 . S
C1898 C1894 1.531 . S
C1898 H1910 0.960 . S
C1898 H1911 0.962 . S
C1898 H1912 0.960 . S
C1899 C1896 1.511 . S
C1899 H1913 0.961 . S
C1899 H1914 0.961 . S
C1899 H1915 0.961 . S
C1900 C1901 1.370 . S
C1900 C1902 1.363 . S
C1900 H1916 0.931 . S
C1901 C1900 1.370 . S
C1901 C1905 1.408 . S
C1902 C1900 1.363 . S
C1902 C1903 1.370 . S
C1902 C1906 1.524 . S
C1903 C1895 1.503 . S
C1903 C1902 1.370 . S
C1903 C1904 1.403 . S
C1904 C1903 1.403 . S
C1904 C1905 1.404 . S
C1904 C1907 1.539 . S
C1905 C1901 1.408 . S
C1905 C1904 1.404 . S
C1905 H1917 0.930 . S
C1906 C1902 1.524 . S
C1906 H1918 0.956 . S
C1906 H1919 0.961 . S
C1906 H1920 0.961 . S
C1907 C1904 1.539 . S
C1907 H1921 0.958 . S
C1907 H1922 0.961 . S
C1907 H1923 0.960 . S
H1908 C1892 0.931 . S
H1909 C1897 0.929 . S
H1910 C1898 0.960 . S
H1911 C1898 0.962 . S
H1912 C1898 0.960 . S
H1913 C1899 0.961 . S
H1914 C1899 0.961 . S
H1915 C1899 0.961 . S
H1916 C1900 0.931 . S
H1917 C1905 0.930 . S
H1918 C1906 0.956 . S
H1919 C1906 0.961 . S
H1920 C1906 0.961 . S
H1921 C1907 0.958 . S
H1922 C1907 0.961 . S
H1923 C1907 0.960 . S
C1924 C1925 1.391 . S
C1924 C1926 1.394 . S
C1924 H1940 0.931 . S
C1925 C1924 1.391 . S
C1925 C1929 1.376 . S
C1926 C1924 1.394 . S
C1926 C1927 1.369 . S
C1926 C1930 1.531 . S
C1927 C1926 1.369 . S
C1927 C1928 1.410 . S
C1927 C1935 1.503 . S
C1928 C1927 1.410 . S
C1928 C1929 1.392 . S
C1928 C1931 1.511 . S
C1929 C1925 1.376 . S
C1929 C1928 1.392 . S
C1929 H1941 0.929 . S
C1930 C1926 1.531 . S
C1930 H1942 0.960 . S
C1930 H1943 0.962 . S
C1930 H1944 0.960 . S
C1931 C1928 1.511 . S
C1931 H1945 0.961 . S
C1931 H1946 0.961 . S
C1931 H1947 0.961 . S
C1932 C1933 1.370 . S
C1932 C1934 1.363 . S
C1932 H1948 0.931 . S
C1933 C1932 1.370 . S
C1933 C1937 1.408 . S
C1934 C1932 1.363 . S
C1934 C1935 1.370 . S
C1934 C1938 1.524 . S
C1935 C1927 1.503 . S
C1935 C1934 1.370 . S
C1935 C1936 1.403 . S
C1936 C1935 1.403 . S
C1936 C1937 1.404 . S
C1936 C1939 1.539 . S
C1937 C1933 1.408 . S
C1937 C1936 1.404 . S
C1937 H1949 0.930 . S
C1938 C1934 1.524 . S
C1938 H1950 0.956 . S
C1938 H1951 0.961 . S
C1938 H1952 0.961 . S
C1939 C1936 1.539 . S
C1939 H1953 0.958 . S
C1939 H1954 0.961 . S
C1939 H1955 0.960 . S
H1940 C1924 0.931 . S
H1941 C1929 0.929 . S
H1942 C1930 0.960 . S
H1943 C1930 0.962 . S
H1944 C1930 0.960 . S
H1945 C1931 0.961 . S
H1946 C1931 0.961 . S
H1947 C1931 0.961 . S
H1948 C1932 0.931 . S
H1949 C1937 0.930 . S
H1950 C1938 0.956 . S
H1951 C1938 0.961 . S
H1952 C1938 0.961 . S
H1953 C1939 0.958 . S
H1954 C1939 0.961 . S
H1955 C1939 0.960 . S
C1956 C1957 1.391 . S
C1956 C1958 1.394 . S
C1956 H1972 0.931 . S
C1957 C1956 1.391 . S
C1957 C1961 1.376 . S
C1958 C1956 1.394 . S
C1958 C1959 1.369 . S
C1958 C1962 1.531 . S
C1959 C1958 1.369 . S
C1959 C1960 1.410 . S
C1959 C1967 1.503 . S
C1960 C1959 1.410 . S
C1960 C1961 1.392 . S
C1960 C1963 1.511 . S
C1961 C1957 1.376 . S
C1961 C1960 1.392 . S
C1961 H1973 0.929 . S
C1962 C1958 1.531 . S
C1962 H1974 0.960 . S
C1962 H1975 0.962 . S
C1962 H1976 0.960 . S
C1963 C1960 1.511 . S
C1963 H1977 0.961 . S
C1963 H1978 0.961 . S
C1963 H1979 0.961 . S
C1964 C1965 1.370 . S
C1964 C1966 1.363 . S
C1964 H1980 0.931 . S
C1965 C1964 1.370 . S
C1965 C1969 1.408 . S
C1966 C1964 1.363 . S
C1966 C1967 1.370 . S
C1966 C1970 1.524 . S
C1967 C1959 1.503 . S
C1967 C1966 1.370 . S
C1967 C1968 1.403 . S
C1968 C1967 1.403 . S
C1968 C1969 1.404 . S
C1968 C1971 1.539 . S
C1969 C1965 1.408 . S
C1969 C1968 1.404 . S
C1969 H1981 0.930 . S
C1970 C1966 1.524 . S
C1970 H1982 0.956 . S
C1970 H1983 0.961 . S
C1970 H1984 0.961 . S
C1971 C1968 1.539 . S
C1971 H1985 0.958 . S
C1971 H1986 0.961 . S
C1971 H1987 0.960 . S
H1972 C1956 0.931 . S
H1973 C1961 0.929 . S
H1974 C1962 0.960 . S
H1975 C1962 0.962 . S
H1976 C1962 0.960 . S
H1977 C1963 0.961 . S
H1978 C1963 0.961 . S
H1979 C1963 0.961 . S
H1980 C1964 0.931 . S
H1981 C1969 0.930 . S
H1982 C1970 0.956 . S
H1983 C1970 0.961 . S
H1984 C1970 0.961 . S
H1985 C1971 0.958 . S
H1986 C1971 0.961 . S
H1987 C1971 0.960 . S
C1988 C1989 1.391 . S
C1988 C1990 1.394 . S
C1988 H2004 0.931 . S
C1989 C1988 1.391 . S
C1989 C1993 1.376 . S
C1990 C1988 1.394 . S
C1990 C1991 1.369 . S
C1990 C1994 1.531 . S
C1991 C1990 1.369 . S
C1991 C1992 1.410 . S
C1991 C1999 1.503 . S
C1992 C1991 1.410 . S
C1992 C1993 1.392 . S
C1992 C1995 1.511 . S
C1993 C1989 1.376 . S
C1993 C1992 1.392 . S
C1993 H2005 0.929 . S
C1994 C1990 1.531 . S
C1994 H2006 0.960 . S
C1994 H2007 0.962 . S
C1994 H2008 0.960 . S
C1995 C1992 1.511 . S
C1995 H2009 0.961 . S
C1995 H2010 0.961 . S
C1995 H2011 0.961 . S
C1996 C1997 1.370 . S
C1996 C1998 1.363 . S
C1996 H2012 0.916 1_655 S
C1997 C1996 1.370 . S
C1997 C2001 1.408 . S
C1998 C1996 1.363 . S
C1998 C1999 1.370 . S
C1998 C2002 1.524 . S
C1999 C1991 1.503 . S
C1999 C1998 1.370 . S
C1999 C2000 1.403 . S
C2000 C1999 1.403 . S
C2000 C2001 1.404 . S
C2000 C2003 1.539 . S
C2001 C1997 1.408 . S
C2001 C2000 1.404 . S
C2001 H2013 0.930 . S
C2002 C1998 1.524 . S
C2002 H2014 0.956 . S
C2002 H2015 0.961 . S
C2002 H2016 0.961 . S
C2003 C2000 1.539 . S
C2003 H2017 0.958 . S
C2003 H2018 0.961 . S
C2003 H2019 0.960 . S
H2004 C1988 0.931 . S
H2005 C1993 0.929 . S
H2006 C1994 0.960 . S
H2007 C1994 0.962 . S
H2008 C1994 0.960 . S
H2009 C1995 0.961 . S
H2010 C1995 0.961 . S
H2011 C1995 0.961 . S
H2012 C1996 0.916 1_455 S
H2013 C2001 0.930 . S
H2014 C2002 0.956 . S
H2015 C2002 0.961 . S
H2016 C2002 0.961 . S
H2017 C2003 0.958 . S
H2018 C2003 0.961 . S
H2019 C2003 0.960 . S
C2020 C2021 1.391 . S
C2020 C2022 1.394 . S
C2020 H2036 0.931 . S
C2021 C2020 1.391 . S
C2021 C2025 1.376 . S
C2022 C2020 1.394 . S
C2022 C2023 1.369 . S
C2022 C2026 1.531 . S
C2023 C2022 1.369 . S
C2023 C2024 1.410 . S
C2023 C2031 1.503 . S
C2024 C2023 1.410 . S
C2024 C2025 1.392 . S
C2024 C2027 1.511 . S
C2025 C2021 1.376 . S
C2025 C2024 1.392 . S
C2025 H2037 0.929 . S
C2026 C2022 1.531 . S
C2026 H2038 0.960 . S
C2026 H2039 0.962 . S
C2026 H2040 0.960 . S
C2027 C2024 1.511 . S
C2027 H2041 0.961 . S
C2027 H2042 0.961 . S
C2027 H2043 0.961 . S
C2028 C2029 1.370 . S
C2028 C2030 1.363 . S
C2028 H2044 0.931 . S
C2029 C2028 1.370 . S
C2029 C2033 1.408 . S
C2030 C2028 1.363 . S
C2030 C2031 1.370 . S
C2030 C2034 1.524 . S
C2031 C2023 1.503 . S
C2031 C2030 1.370 . S
C2031 C2032 1.403 . S
C2032 C2031 1.403 . S
C2032 C2033 1.404 . S
C2032 C2035 1.539 . S
C2033 C2029 1.408 . S
C2033 C2032 1.404 . S
C2033 H2045 0.930 . S
C2034 C2030 1.524 . S
C2034 H2046 0.956 . S
C2034 H2047 0.961 . S
C2034 H2048 0.961 . S
C2035 C2032 1.539 . S
C2035 H2049 0.958 . S
C2035 H2050 0.961 . S
C2035 H2051 0.960 . S
H2036 C2020 0.931 . S
H2037 C2025 0.929 . S
H2038 C2026 0.960 . S
H2039 C2026 0.962 . S
H2040 C2026 0.960 . S
H2041 C2027 0.961 . S
H2042 C2027 0.961 . S
H2043 C2027 0.961 . S
H2044 C2028 0.931 . S
H2045 C2033 0.930 . S
H2046 C2034 0.956 . S
H2047 C2034 0.961 . S
H2048 C2034 0.961 . S
H2049 C2035 0.958 . S
H2050 C2035 0.961 . S
H2051 C2035 0.960 . S
C2052 C2053 1.391 . S
C2052 C2054 1.394 . S
C2052 H2068 0.931 . S
C2053 C2052 1.391 . S
C2053 C2057 1.376 . S
C2054 C2052 1.394 . S
C2054 C2055 1.369 . S
C2054 C2058 1.531 . S
C2055 C2054 1.369 . S
C2055 C2056 1.410 . S
C2055 C2063 1.503 . S
C2056 C2055 1.410 . S
C2056 C2057 1.392 . S
C2056 C2059 1.511 . S
C2057 C2053 1.376 . S
C2057 C2056 1.392 . S
C2057 H2069 0.929 . S
C2058 C2054 1.531 . S
C2058 H2070 0.960 . S
C2058 H2071 0.962 . S
C2058 H2072 0.960 . S
C2059 C2056 1.511 . S
C2059 H2073 0.961 . S
C2059 H2074 0.961 . S
C2059 H2075 0.961 . S
C2060 C2061 1.370 . S
C2060 C2062 1.363 . S
C2060 H2076 0.931 . S
C2061 C2060 1.370 . S
C2061 C2065 1.408 . S
C2062 C2060 1.363 . S
C2062 C2063 1.370 . S
C2062 C2066 1.524 . S
C2063 C2055 1.503 . S
C2063 C2062 1.370 . S
C2063 C2064 1.403 . S
C2064 C2063 1.403 . S
C2064 C2065 1.404 . S
C2064 C2067 1.539 . S
C2065 C2061 1.408 . S
C2065 C2064 1.404 . S
C2065 H2077 0.930 . S
C2066 C2062 1.524 . S
C2066 H2078 0.956 . S
C2066 H2079 0.961 . S
C2066 H2080 0.961 . S
C2067 C2064 1.539 . S
C2067 H2081 0.958 . S
C2067 H2082 0.961 . S
C2067 H2083 0.960 . S
H2068 C2052 0.931 . S
H2069 C2057 0.929 . S
H2070 C2058 0.960 . S
H2071 C2058 0.962 . S
H2072 C2058 0.960 . S
H2073 C2059 0.961 . S
H2074 C2059 0.961 . S
H2075 C2059 0.961 . S
H2076 C2060 0.931 . S
H2077 C2065 0.930 . S
H2078 C2066 0.956 . S
H2079 C2066 0.961 . S
H2080 C2066 0.961 . S
H2081 C2067 0.958 . S
H2082 C2067 0.961 . S
H2083 C2067 0.960 . S
C2084 C2085 1.391 . S
C2084 C2086 1.394 . S
C2084 H2100 0.931 . S
C2085 C2084 1.391 . S
C2085 C2089 1.376 . S
C2086 C2084 1.394 . S
C2086 C2087 1.369 . S
C2086 C2090 1.531 . S
C2087 C2086 1.369 . S
C2087 C2088 1.410 . S
C2087 C2095 1.503 . S
C2088 C2087 1.410 . S
C2088 C2089 1.392 . S
C2088 C2091 1.511 . S
C2089 C2085 1.376 . S
C2089 C2088 1.392 . S
C2089 H2101 0.929 . S
C2090 C2086 1.531 . S
C2090 H2102 0.960 . S
C2090 H2103 0.962 . S
C2090 H2104 0.960 . S
C2091 C2088 1.511 . S
C2091 H2105 0.961 . S
C2091 H2106 0.961 . S
C2091 H2107 0.961 . S
C2092 C2093 1.370 . S
C2092 C2094 1.363 . S
C2092 H2108 0.931 . S
C2093 C2092 1.370 . S
C2093 C2097 1.408 . S
C2094 C2092 1.363 . S
C2094 C2095 1.370 . S
C2094 C2098 1.524 . S
C2095 C2087 1.503 . S
C2095 C2094 1.370 . S
C2095 C2096 1.403 . S
C2096 C2095 1.403 . S
C2096 C2097 1.404 . S
C2096 C2099 1.539 . S
C2097 C2093 1.408 . S
C2097 C2096 1.404 . S
C2097 H2109 0.930 . S
C2098 C2094 1.524 . S
C2098 H2110 0.956 . S
C2098 H2111 0.961 . S
C2098 H2112 0.961 . S
C2099 C2096 1.539 . S
C2099 H2113 0.958 . S
C2099 H2114 0.961 . S
C2099 H2115 0.960 . S
H2100 C2084 0.931 . S
H2101 C2089 0.929 . S
H2102 C2090 0.960 . S
H2103 C2090 0.962 . S
H2104 C2090 0.960 . S
H2105 C2091 0.961 . S
H2106 C2091 0.961 . S
H2107 C2091 0.961 . S
H2108 C2092 0.931 . S
H2109 C2097 0.930 . S
H2110 C2098 0.956 . S
H2111 C2098 0.961 . S
H2112 C2098 0.961 . S
H2113 C2099 0.958 . S
H2114 C2099 0.961 . S
H2115 C2099 0.960 . S
C2116 C2117 1.391 . S
C2116 C2118 1.394 . S
C2116 H2132 0.931 . S
C2117 C2116 1.391 . S
C2117 C2121 1.376 . S
C2118 C2116 1.394 . S
C2118 C2119 1.369 . S
C2118 C2122 1.531 . S
C2119 C2118 1.369 . S
C2119 C2120 1.410 . S
C2119 C2127 1.503 . S
C2120 C2119 1.410 . S
C2120 C2121 1.392 . S
C2120 C2123 1.511 . S
C2121 C2117 1.376 . S
C2121 C2120 1.392 . S
C2121 H2133 0.929 . S
C2122 C2118 1.531 . S
C2122 H2134 0.960 . S
C2122 H2135 0.962 . S
C2122 H2136 0.960 . S
C2123 C2120 1.511 . S
C2123 H2137 0.961 . S
C2123 H2138 0.961 . S
C2123 H2139 0.961 . S
C2124 C2125 1.370 . S
C2124 C2126 1.363 . S
C2124 H2140 0.931 . S
C2125 C2124 1.370 . S
C2125 C2129 1.408 . S
C2126 C2124 1.363 . S
C2126 C2127 1.370 . S
C2126 C2130 1.524 . S
C2127 C2119 1.503 . S
C2127 C2126 1.370 . S
C2127 C2128 1.403 . S
C2128 C2127 1.403 . S
C2128 C2129 1.404 . S
C2128 C2131 1.539 . S
C2129 C2125 1.408 . S
C2129 C2128 1.404 . S
C2129 H2141 0.930 . S
C2130 C2126 1.524 . S
C2130 H2142 0.956 . S
C2130 H2143 0.961 . S
C2130 H2144 0.961 . S
C2131 C2128 1.539 . S
C2131 H2145 0.958 . S
C2131 H2146 0.961 . S
C2131 H2147 0.960 . S
H2132 C2116 0.931 . S
H2133 C2121 0.929 . S
H2134 C2122 0.960 . S
H2135 C2122 0.962 . S
H2136 C2122 0.960 . S
H2137 C2123 0.961 . S
H2138 C2123 0.961 . S
H2139 C2123 0.961 . S
H2140 C2124 0.931 . S
H2141 C2129 0.930 . S
H2142 C2130 0.956 . S
H2143 C2130 0.961 . S
H2144 C2130 0.961 . S
H2145 C2131 0.958 . S
H2146 C2131 0.961 . S
H2147 C2131 0.960 . S
C2148 C2149 1.391 . S
C2148 C2150 1.394 . S
C2148 H2164 0.931 . S
C2149 C2148 1.391 . S
C2149 C2153 1.376 . S
C2150 C2148 1.394 . S
C2150 C2151 1.369 . S
C2150 C2154 1.531 . S
C2151 C2150 1.369 . S
C2151 C2152 1.410 . S
C2151 C2159 1.503 . S
C2152 C2151 1.410 . S
C2152 C2153 1.392 . S
C2152 C2155 1.511 . S
C2153 C2149 1.376 . S
C2153 C2152 1.392 . S
C2153 H2165 0.929 . S
C2154 C2150 1.531 . S
C2154 H2166 0.960 . S
C2154 H2167 0.962 . S
C2154 H2168 0.960 . S
C2155 C2152 1.511 . S
C2155 H2169 0.961 . S
C2155 H2170 0.961 . S
C2155 H2171 0.961 . S
C2156 C2157 1.370 . S
C2156 C2158 1.363 . S
C2156 H2172 0.931 . S
C2157 C2156 1.370 . S
C2157 C2161 1.408 . S
C2158 C2156 1.363 . S
C2158 C2159 1.370 . S
C2158 C2162 1.524 . S
C2159 C2151 1.503 . S
C2159 C2158 1.370 . S
C2159 C2160 1.403 . S
C2160 C2159 1.403 . S
C2160 C2161 1.404 . S
C2160 C2163 1.539 . S
C2161 C2157 1.408 . S
C2161 C2160 1.404 . S
C2161 H2173 0.930 . S
C2162 C2158 1.524 . S
C2162 H2174 0.956 . S
C2162 H2175 0.961 . S
C2162 H2176 0.961 . S
C2163 C2160 1.539 . S
C2163 H2177 0.958 . S
C2163 H2178 0.961 . S
C2163 H2179 0.960 . S
H2164 C2148 0.931 . S
H2165 C2153 0.929 . S
H2166 C2154 0.960 . S
H2167 C2154 0.962 . S
H2168 C2154 0.960 . S
H2169 C2155 0.961 . S
H2170 C2155 0.961 . S
H2171 C2155 0.961 . S
H2172 C2156 0.931 . S
H2173 C2161 0.930 . S
H2174 C2162 0.956 . S
H2175 C2162 0.961 . S
H2176 C2162 0.961 . S
H2177 C2163 0.958 . S
H2178 C2163 0.961 . S
H2179 C2163 0.960 . S
C653 C355 2.455 . S
C645 C24 2.411 . S
C685 C333 3.364 . S
C677 C53 3.412 . S
C717 C330 0.670 . S
C709 C82 0.711 . S
C741 C137 0.396 . S
C749 C342 0.418 . S
C773 C184 3.227 . S
C781 C325 3.151 . S
C813 C347 0.644 . S
C805 C202 0.672 . S
C837 C266 0.619 . S
C845 C352 0.619 . S
C869 C293 2.398 . S
C877 C348 2.453 . S
C909 C406 2.978 . S
C901 C2 3.025 . S
C933 C57 0.746 . S
C941 C456 0.816 . S
C973 C379 0.961 . S
C965 C106 1.012 . S
C1005 C455 0.336 . S
C997 C143 0.553 . S
C1029 C162 0.454 . S
C1037 C384 0.417 . S
C1069 C450 1.081 . S
C1061 C226 1.064 . S
C1093 C264 2.260 . S
C1101 C409 2.335 . S
C1125 C297 0.567 . S
C1133 C441 0.434 . S
C1157 C26 1.017 . S
C1165 C433 1.007 . S
C1189 C186 0.455 . S
C1197 C463 0.429 . S
C1229 C387 2.594 . S
C1221 C224 2.661 . S
C1261 C438 1.177 . S
C1253 C242 1.169 . S
C1285 C303 3.553 . S
C1293 C396 3.542 . S
C1317 C104 2.372 . S
C1325 C460 2.325 . S
C1357 C402 2.688 . S
C1349 C133 2.645 . S
C1381 C63 0.942 . S
C1389 C401 0.992 . S
C1413 C304 2.405 . S
C1421 C517 2.454 . S
C1445 C173 3.212 . S
C1453 C495 3.161 . S
C1485 C492 0.661 . S
C1477 C223 0.691 . S
C1517 C504 0.575 . S
C1509 C257 0.618 . S
C1541 C64 3.399 . S
C1549 C487 3.369 . S
C1581 C509 0.673 . S
C1573 C103 0.699 . S
C1605 C146 0.273 . S
C1613 C514 0.397 . S
C1637 C13 2.384 . S
C1645 C510 2.448 . S
C1669 C282 3.564 . S
C1677 C568 3.529 . S
C1709 C618 0.385 . S
C1701 C177 0.582 . S
C1733 C213 2.642 . S
C1741 C541 2.579 . S
C1765 C263 1.136 . S
C1773 C617 1.162 . S
C1805 C546 0.980 . S
C1797 C42 0.933 . S
C1829 C93 2.341 . S
C1837 C612 2.324 . S
C1869 C571 2.687 . S
C1861 C144 2.644 . S
C1901 C603 0.990 . S
C1893 C17 0.902 . S
C1933 C595 0.412 . S
C1925 C306 0.566 . S
C1957 C66 0.873 . S
C1965 C625 0.742 . S
C1989 C97 1.036 . S
C1997 C549 0.997 . S
C2029 C600 0.349 . S
C2021 C122 0.586 . S
C2053 C23 3.043 . S
C2061 C558 2.971 . S
C2085 C217 1.136 . S
C2093 C622 1.070 . S
C2125 C564 2.340 . S
C2117 C253 2.262 . S
C2157 C563 0.425 . S
C2149 C183 0.507 . S
