# Generated by pormake.
# Topology anh, (6,3)-cn, num edge types: 1
# Building blocks:
#     Node 0, Type 0, BuildingBlock: BETDIP_clean_sbu_0, # of connection points: 6
#     Node 1, Type 0, BuildingBlock: BETDIP_clean_sbu_0, # of connection points: 6
#     Node 2, Type 0, BuildingBlock: BETDIP_clean_sbu_0, # of connection points: 6
#     Node 3, Type 1, BuildingBlock: OLANEW_clean_sbu_2, # of connection points: 3
#     Node 4, Type 1, BuildingBlock: OLANEW_clean_sbu_2, # of connection points: 3
#     Node 5, Type 1, BuildingBlock: OLANEW_clean_sbu_2, # of connection points: 3
#     Node 6, Type 1, BuildingBlock: OLANEW_clean_sbu_2, # of connection points: 3
#     Node 7, Type 1, BuildingBlock: OLANEW_clean_sbu_2, # of connection points: 3
#     Node 8, Type 1, BuildingBlock: OLANEW_clean_sbu_2, # of connection points: 3
#     Edge 9, Type (0, 1), BuildingBlock: ZUJKAS_clean_linker_0, # of connection points: 2
#     Edge 10, Type (0, 1), BuildingBlock: ZUJKAS_clean_linker_0, # of connection points: 2
#     Edge 11, Type (0, 1), BuildingBlock: ZUJKAS_clean_linker_0, # of connection points: 2
#     Edge 12, Type (0, 1), BuildingBlock: ZUJKAS_clean_linker_0, # of connection points: 2
#     Edge 13, Type (0, 1), BuildingBlock: ZUJKAS_clean_linker_0, # of connection points: 2
#     Edge 14, Type (0, 1), BuildingBlock: ZUJKAS_clean_linker_0, # of connection points: 2
#     Edge 15, Type (0, 1), BuildingBlock: ZUJKAS_clean_linker_0, # of connection points: 2
#     Edge 16, Type (0, 1), BuildingBlock: ZUJKAS_clean_linker_0, # of connection points: 2
#     Edge 17, Type (0, 1), BuildingBlock: ZUJKAS_clean_linker_0, # of connection points: 2
#     Edge 18, Type (0, 1), BuildingBlock: ZUJKAS_clean_linker_0, # of connection points: 2
#     Edge 19, Type (0, 1), BuildingBlock: ZUJKAS_clean_linker_0, # of connection points: 2
#     Edge 20, Type (0, 1), BuildingBlock: ZUJKAS_clean_linker_0, # of connection points: 2
#     Edge 21, Type (0, 1), BuildingBlock: ZUJKAS_clean_linker_0, # of connection points: 2
#     Edge 22, Type (0, 1), BuildingBlock: ZUJKAS_clean_linker_0, # of connection points: 2
#     Edge 23, Type (0, 1), BuildingBlock: ZUJKAS_clean_linker_0, # of connection points: 2
#     Edge 24, Type (0, 1), BuildingBlock: ZUJKAS_clean_linker_0, # of connection points: 2
#     Edge 25, Type (0, 1), BuildingBlock: ZUJKAS_clean_linker_0, # of connection points: 2
#     Edge 26, Type (0, 1), BuildingBlock: ZUJKAS_clean_linker_0, # of connection points: 2
# Relax obj value: 0.169
# Max RMSD: 0.122
# Mean RMSD: 0.109
data_MOF--net-anh--node1-BETDIP_clean_sbu_0--node2-OLANEW_clean_sbu_2--edge1-ZUJKAS_clean_linker_0
_symmetry_space_group_name_H-M    P1
_symmetry_Int_Tables_number       1
_symmetry_cell_setting            triclinic
loop_
_symmetry_equiv_pos_as_xyz
'x, y, z'
_cell_length_a     44.975601
_cell_length_b     45.075587
_cell_length_c     64.036109
_cell_angle_alpha  90.388445
_cell_angle_beta   89.176289
_cell_angle_gamma 119.59277
loop_
_atom_site_label
_atom_site_type_symbol
_atom_site_fract_x
_atom_site_fract_y
_atom_site_fract_z
_atom_type_partial_charge
Tb0 Tb 0.06022 0.57441 0.189 0.0
Tb1 Tb 0.02772 0.50362 0.17146 0.0
C2 C 0.09199 0.62577 0.2121 0.0
C3 C 0.12755 0.64977 0.21781 0.0
C4 C 0.15247 0.63968 0.21828 0.0
C5 C 0.18618 0.66316 0.22355 0.0
C6 C 0.19547 0.69708 0.22855 0.0
C7 C 0.17032 0.70697 0.2281 0.0
C8 C 0.13671 0.68353 0.22274 0.0
C9 C 0.05286 0.57102 0.1484 0.0
C10 C 0.10694 0.54121 0.17539 0.0
C11 C 0.99322 0.44965 0.15099 0.0
C12 C 0.95696 0.42346 0.151 0.0
C13 C 0.9454 0.3958 0.13724 0.0
C14 C 0.91115 0.37003 0.13777 0.0
C15 C 0.88791 0.37158 0.15208 0.0
C16 C 0.89962 0.39973 0.16565 0.0
C17 C 0.93387 0.42541 0.16514 0.0
C18 C 0.03239 0.50812 0.21262 0.0
C19 C 0.98202 0.53924 0.18021 0.0
O20 O 0.0792 0.59425 0.2186 0.0
O21 O 0.08384 0.6275 0.1928 0.0
O22 O 0.06111 0.55301 0.1592 0.0
O23 O 0.05171 0.59403 0.16008 0.0
O24 O 0.1039 0.56435 0.18686 0.0
O25 O 0.0805 0.51726 0.16522 0.0
O26 O 1.00022 0.47987 0.14442 0.0
O27 O 1.0097 0.45125 0.16799 0.0
O28 O 1.02508 0.52541 0.20068 0.0
O29 O 0.03521 0.48541 0.20168 0.0
O30 O 0.98561 0.51514 0.17048 0.0
O31 O 1.00715 0.56321 0.19131 0.0
H32 H 0.14587 0.61366 0.21469 0.0
H33 H 0.20486 0.65464 0.22398 0.0
H34 H 0.17672 0.73299 0.2316 0.0
H35 H 0.11782 0.6918 0.22239 0.0
H36 H 0.96294 0.39397 0.12622 0.0
H37 H 0.90284 0.3489 0.12696 0.0
H38 H 0.88254 0.4015 0.17705 0.0
H39 H 0.94245 0.44651 0.17599 0.0
Tb40 Tb 0.56277 0.0398 0.51142 0.0
Tb41 Tb 0.52122 0.07258 0.50095 0.0
C42 C 0.58578 1.00557 0.52859 0.0
C43 C 0.57763 0.96974 0.5274 0.0
C44 C 0.5437 0.94284 0.52834 0.0
C45 C 0.5364 0.90924 0.52508 0.0
C46 C 0.56291 0.90199 0.52083 0.0
C47 C 0.59689 0.92892 0.52049 0.0
C48 C 0.60415 0.96247 0.52373 0.0
C49 C 0.55724 0.04726 0.47118 0.0
C50 C 0.48093 0.99325 0.50478 0.0
C51 C 0.49916 0.10812 0.48434 0.0
C52 C 0.51469 0.14476 0.48004 0.0
C53 C 0.5039 0.15603 0.46293 0.0
C54 C 0.51858 0.19092 0.45878 0.0
C55 C 0.54428 0.21507 0.47174 0.0
C56 C 0.55544 0.20347 0.48864 0.0
C57 C 0.54088 0.16866 0.4927 0.0
C58 C 0.52586 0.06339 0.5411 0.0
C59 C 0.60288 0.11794 0.50416 0.0
O60 O 0.56285 1.01173 0.53738 0.0
O61 O 0.59874 0.02315 0.51144 0.0
O62 O 0.53449 0.03944 0.48496 0.0
O63 O 0.58367 0.04798 0.47947 0.0
O64 O 0.50983 0.9956 0.51168 0.0
O65 O 0.48012 0.02032 0.49763 0.0
O66 O 0.51208 0.09223 0.47368 0.0
O67 O 0.49439 0.09936 0.50406 0.0
O68 O 0.54958 0.07294 0.52768 0.0
O69 O 0.49881 0.0607 0.53239 0.0
O70 O 0.57417 0.11435 0.49634 0.0
O71 O 0.60318 0.09264 0.5143 0.0
H72 H 0.52279 0.9478 0.53122 0.0
H73 H 0.50995 0.88907 0.52536 0.0
H74 H 0.61792 0.92407 0.51767 0.0
H75 H 0.6305 0.98286 0.52297 0.0
H76 H 0.48402 0.13785 0.45284 0.0
H77 H 0.50972 0.19897 0.44548 0.0
H78 H 0.57477 0.22128 0.49915 0.0
H79 H 0.54982 0.16044 0.5059 0.0
Tb80 Tb 0.49456 0.48718 0.84776 0.0
Tb81 Tb 0.56973 0.52691 0.83984 0.0
C82 C 0.43596 0.46742 0.86289 0.0
C83 C 0.41236 0.48098 0.86179 0.0
C84 C 0.38688 0.47219 0.87712 0.0
C85 C 0.36473 0.48557 0.87633 0.0
C86 C 0.36779 0.50798 0.86017 0.0
C87 C 0.39349 0.51669 0.84484 0.0
C88 C 0.41561 0.50335 0.84567 0.0
C89 C 0.51299 0.48984 0.80848 0.0
C90 C 0.53137 0.56839 0.83846 0.0
C91 C 0.62972 0.54669 0.82718 0.0
C92 C 0.65322 0.53292 0.82981 0.0
C93 C 0.64655 0.50173 0.82071 0.0
C94 C 0.66696 0.48729 0.82538 0.0
C95 C 0.69434 0.50375 0.83922 0.0
C96 C 0.70184 0.5356 0.84755 0.0
C97 C 0.68158 0.55007 0.84283 0.0
C98 C 0.5506 0.52378 0.87926 0.0
C99 C 0.532 0.4451 0.84449 0.0
O100 O 0.46412 0.48622 0.87319 0.0
O101 O 0.4416 0.45611 0.84525 0.0
O102 O 0.52614 0.51363 0.82156 0.0
O103 O 0.48626 0.46415 0.81668 0.0
O104 O 0.50449 0.54062 0.84622 0.0
O105 O 0.55909 0.56761 0.83208 0.0
O106 O 0.60271 0.52892 0.8157 0.0
O107 O 0.62239 0.55801 0.84424 0.0
O108 O 0.5381 0.49975 0.86622 0.0
O109 O 0.57617 0.55005 0.8707 0.0
O110 O 0.55897 0.47371 0.83797 0.0
O111 O 0.50456 0.44506 0.85228 0.0
H112 H 0.38425 0.45516 0.88976 0.0
H113 H 0.34557 0.47878 0.88856 0.0
H114 H 0.39632 0.53356 0.83207 0.0
H115 H 0.43525 0.51049 0.83371 0.0
H116 H 0.62503 0.48798 0.81045 0.0
H117 H 0.66064 0.46275 0.81871 0.0
H118 H 0.72327 0.54924 0.8579 0.0
H119 H 0.68754 0.5743 0.84985 0.0
O120 O 0.48353 0.0482 0.24299 0.0
Cd121 Cd 0.48082 0.05162 0.2051 0.0
O122 O 0.51175 0.02053 0.23813 0.0
Cd123 Cd 0.53698 0.99319 0.24983 0.0
O124 O 0.56139 0.96922 0.26685 0.0
C125 C 0.54557 0.93921 0.27441 0.0
O126 O 0.56246 0.92859 0.28588 0.0
C127 C 0.49959 0.03421 0.25048 0.0
C128 C 0.54454 0.10187 0.19034 0.0
O129 O 0.5212 0.10911 0.19545 0.0
O130 O 0.53746 0.0707 0.19178 0.0
O131 O 0.61991 0.5724 0.58524 0.0
Cd132 Cd 0.63919 0.59886 0.55045 0.0
O133 O 0.57151 0.5254 0.5783 0.0
Cd134 Cd 0.56731 0.5422 0.54748 0.0
O135 O 0.55795 0.57496 0.52711 0.0
C136 C 0.53105 0.5767 0.53086 0.0
O137 O 0.50969 0.55693 0.54543 0.0
C138 C 0.59459 0.54412 0.59115 0.0
C139 C 0.63979 0.55264 0.52147 0.0
O140 O 0.61636 0.56088 0.52144 0.0
O141 O 0.66392 0.56734 0.53469 0.0
O142 O 0.09453 0.66275 0.92546 0.0
Cd143 Cd 0.1108 0.68295 0.88965 0.0
O144 O 0.07624 0.61103 0.91359 0.0
Cd145 Cd 0.04689 0.55532 0.91482 0.0
O146 O 0.99787 0.51134 0.90708 0.0
C147 C 0.97259 0.50495 0.919 0.0
O148 O 0.97817 0.52241 0.93642 0.0
C149 C 0.0812 0.63095 0.92893 0.0
C150 C 0.15338 0.65868 0.87533 0.0
O151 O 0.16554 0.68764 0.88451 0.0
O152 O 0.12109 0.64173 0.87223 0.0
O153 O 0.08491 0.58402 0.44008 0.0
Cd154 Cd 0.10779 0.60823 0.47492 0.0
O155 O 0.03721 0.53801 0.44971 0.0
Cd156 Cd 0.98625 0.4906 0.4487 0.0
O157 O 0.93501 0.44608 0.45618 0.0
C158 C 0.92642 0.41563 0.4508 0.0
O159 O 0.94841 0.41025 0.44004 0.0
C160 C 0.05736 0.55694 0.43521 0.0
C161 C 0.1708 0.67029 0.47607 0.0
O162 O 0.16981 0.64137 0.47622 0.0
O163 O 0.14225 0.67004 0.4748 0.0
O164 O 0.53073 0.97283 0.76473 0.0
Cd165 Cd 0.53142 0.94795 0.79917 0.0
O166 O 0.53457 0.02088 0.77618 0.0
Cd167 Cd 0.53625 0.07126 0.77714 0.0
O168 O 0.53961 0.12036 0.78723 0.0
C169 C 0.51989 0.13082 0.78043 0.0
O170 O 0.49685 0.11224 0.76653 0.0
C171 C 0.53253 1.0015 0.76094 0.0
C172 C 0.52857 0.88366 0.80057 0.0
O173 O 0.50126 0.88595 0.80124 0.0
O174 O 0.5571 0.91147 0.7985 0.0
O175 O 0.58036 0.53669 0.10714 0.0
Cd176 Cd 0.60429 0.54387 0.1426 0.0
O177 O 0.53292 0.5375 0.11504 0.0
Cd178 Cd 0.48362 0.53791 0.1133 0.0
O179 O 0.43397 0.53677 0.11869 0.0
C180 C 0.43201 0.55864 0.13052 0.0
O181 O 0.46006 0.58239 0.13922 0.0
C182 C 0.55264 0.53529 0.10129 0.0
C183 C 0.66637 0.54265 0.14608 0.0
O184 O 0.63735 0.51535 0.14801 0.0
O185 O 0.6662 0.57037 0.14199 0.0
H186 H 0.12117 0.49681 0.15413 0.0
H187 H 0.17668 0.50109 0.14747 0.0
H188 H 0.22591 0.59535 0.18206 0.0
H189 H 0.1702 0.59116 0.18896 0.0
H190 H 0.23265 0.55187 0.12643 0.0
H191 H 0.26682 0.54102 0.20792 0.0
H192 H 0.22398 0.5302 0.20067 0.0
H193 H 0.25628 0.5741 0.20375 0.0
C194 C 0.14369 0.51842 0.16049 0.0
C195 C 0.141 0.54358 0.1722 0.0
C196 C 0.17552 0.52082 0.15662 0.0
C197 C 0.20557 0.54831 0.16443 0.0
C198 C 0.20308 0.57351 0.17619 0.0
H199 H 0.42046 0.60312 0.15388 0.0
H200 H 0.36604 0.60101 0.16145 0.0
C201 C 0.17114 0.57113 0.18008 0.0
C202 C 0.23936 0.55088 0.15959 0.0
H203 H 0.30908 0.55298 0.18184 0.0
C204 C 0.24933 0.55205 0.13856 0.0
C205 C 0.26125 0.55121 0.17537 0.0
C206 C 0.25153 0.54877 0.1982 0.0
C207 C 0.28058 0.5539 0.13291 0.0
C208 C 0.30232 0.55384 0.14868 0.0
C209 C 0.29247 0.55294 0.16972 0.0
C210 C 0.33546 0.55499 0.14372 0.0
C211 C 0.29032 0.55669 0.11007 0.0
C212 C 0.33662 0.52966 0.13134 0.0
C213 C 0.36786 0.53087 0.12687 0.0
C214 C 0.39867 0.55729 0.13485 0.0
C215 C 0.39735 0.58242 0.1474 0.0
C216 C 0.36616 0.58123 0.1518 0.0
H217 H 0.27611 0.56609 0.10063 0.0
H218 H 0.31816 0.57413 0.10767 0.0
H219 H 0.28398 0.5311 0.10409 0.0
H220 H 0.31328 0.50868 0.1253 0.0
H221 H 0.36781 0.51094 0.11731 0.0
H222 H 0.61201 0.17602 0.4847 0.0
H223 H 0.66578 0.22801 0.47687 0.0
H224 H 0.72161 0.18609 0.50743 0.0
H225 H 0.66785 0.13413 0.51565 0.0
H226 H 0.74631 0.25441 0.51717 0.0
H227 H 0.73331 0.23486 0.43142 0.0
H228 H 0.69779 0.23571 0.44398 0.0
H229 H 0.70666 0.2019 0.44981 0.0
C230 C 0.63565 0.17784 0.48991 0.0
C231 C 0.63545 0.15063 0.50074 0.0
C232 C 0.66649 0.20759 0.48527 0.0
C233 C 0.69793 0.21082 0.49117 0.0
C234 C 0.69775 0.1842 0.50258 0.0
H235 H 0.90026 0.34822 0.44073 0.0
H236 H 0.84513 0.29986 0.45106 0.0
C237 C 0.66691 0.15444 0.50727 0.0
C238 C 0.73098 0.24161 0.4852 0.0
H239 H 0.77961 0.28697 0.44312 0.0
C240 C 0.75356 0.26155 0.50098 0.0
C241 C 0.74076 0.25078 0.46405 0.0
C242 C 0.71856 0.22957 0.44631 0.0
C243 C 0.78536 0.29045 0.49622 0.0
C244 C 0.79479 0.30002 0.47508 0.0
C245 C 0.77232 0.27992 0.45932 0.0
C246 C 0.82839 0.32995 0.46893 0.0
C247 C 0.80897 0.30997 0.51385 0.0
C248 C 0.8374 0.36324 0.47528 0.0
C249 C 0.86906 0.39112 0.46936 0.0
C250 C 0.89241 0.38634 0.45688 0.0
C251 C 0.88308 0.35298 0.45037 0.0
C252 C 0.85146 0.32521 0.45626 0.0
H253 H 0.80178 0.29481 0.52852 0.0
H254 H 0.83587 0.31756 0.50974 0.0
H255 H 0.80757 0.33351 0.5169 0.0
H256 H 0.81984 0.36774 0.48471 0.0
H257 H 0.87525 0.4164 0.4746 0.0
H258 H 0.58268 0.63101 0.82577 0.0
H259 H 0.57967 0.68282 0.81951 0.0
H260 H 0.47265 0.62977 0.83657 0.0
H261 H 0.47568 0.57795 0.84343 0.0
H262 H 0.54316 0.69545 0.79183 0.0
H263 H 0.50583 0.71439 0.87161 0.0
H264 H 0.52033 0.68427 0.86611 0.0
H265 H 0.47702 0.67352 0.86062 0.0
C266 C 0.55849 0.63031 0.82837 0.0
C267 C 0.52945 0.60017 0.8352 0.0
C268 C 0.55681 0.66006 0.82473 0.0
C269 C 0.52608 0.66058 0.82782 0.0
C270 C 0.49693 0.63046 0.83454 0.0
H271 H 0.47256 0.82102 0.80868 0.0
H272 H 0.47111 0.76661 0.81442 0.0
C273 C 0.49864 0.60068 0.83833 0.0
C274 C 0.52462 0.69241 0.82338 0.0
H275 H 0.50579 0.7509 0.84513 0.0
C276 C 0.53506 0.70756 0.80354 0.0
C277 C 0.51397 0.70838 0.83857 0.0
C278 C 0.50395 0.69453 0.86048 0.0
C279 C 0.53499 0.73789 0.79846 0.0
C280 C 0.52459 0.75394 0.81369 0.0
C281 C 0.51373 0.73862 0.83343 0.0
C282 C 0.52544 0.78695 0.80957 0.0
C283 C 0.54562 0.75224 0.7767 0.0
C284 C 0.55648 0.81667 0.805 0.0
C285 C 0.55741 0.84787 0.80174 0.0
C286 C 0.52731 0.85014 0.803 0.0
C287 C 0.49622 0.82027 0.80747 0.0
C288 C 0.49535 0.7891 0.81083 0.0
H289 H 0.54411 0.73267 0.76546 0.0
H290 H 0.52937 0.76263 0.77103 0.0
H291 H 0.57251 0.77335 0.7769 0.0
H292 H 0.58015 0.81589 0.80431 0.0
H293 H 0.58184 0.87032 0.79847 0.0
H294 H 0.926 0.49497 0.15776 0.0
H295 H 0.87322 0.49666 0.15247 0.0
H296 H 0.90993 0.585 0.19229 0.0
H297 H 0.96312 0.58357 0.19775 0.0
H298 H 0.8397 0.53302 0.19992 0.0
H299 H 0.86592 0.56862 0.11612 0.0
H300 H 0.86925 0.53193 0.12337 0.0
H301 H 0.8988 0.57308 0.13381 0.0
C302 C 0.92297 0.51478 0.1655 0.0
C303 C 0.94906 0.53928 0.17813 0.0
C304 C 0.89274 0.51578 0.16234 0.0
C305 C 0.88778 0.54127 0.1717 0.0
C306 C 0.91328 0.56521 0.18479 0.0
H307 H 0.73194 0.5954 0.14054 0.0
H308 H 0.78553 0.59543 0.14701 0.0
C309 C 0.94368 0.56434 0.1879 0.0
C310 C 0.856 0.54284 0.16774 0.0
H311 H 0.81045 0.55346 0.12901 0.0
C312 C 0.83335 0.53759 0.18444 0.0
C313 C 0.84785 0.54916 0.14757 0.0
C314 C 0.87181 0.55633 0.12918 0.0
C315 C 0.80246 0.53774 0.18142 0.0
C316 C 0.79384 0.54305 0.16113 0.0
C317 C 0.81687 0.54907 0.14452 0.0
C318 C 0.76115 0.54269 0.15686 0.0
C319 C 0.77942 0.53256 0.20001 0.0
C320 C 0.72954 0.51286 0.15986 0.0
C321 C 0.69883 0.51269 0.15606 0.0
C322 C 0.69903 0.54239 0.14918 0.0
C323 C 0.73077 0.57209 0.14587 0.0
C324 C 0.76148 0.57216 0.14957 0.0
H325 H 0.79313 0.53677 0.21499 0.0
H326 H 0.76872 0.55007 0.19931 0.0
H327 H 0.75777 0.50599 0.19993 0.0
H328 H 0.72862 0.48963 0.16514 0.0
H329 H 0.67492 0.48934 0.15873 0.0
H330 H 0.47467 0.92946 0.50824 0.0
H331 H 0.42335 0.87397 0.50296 0.0
H332 H 0.36479 0.92433 0.4918 0.0
H333 H 0.41585 0.97971 0.49682 0.0
H334 H 0.36071 0.84204 0.52308 0.0
H335 H 0.34347 0.86483 0.4404 0.0
H336 H 0.38218 0.89195 0.45439 0.0
H337 H 0.34523 0.8972 0.45761 0.0
C338 C 0.45085 0.92876 0.50483 0.0
C339 C 0.44955 0.95921 0.50292 0.0
C340 C 0.42149 0.89695 0.50172 0.0
C341 C 0.39024 0.89487 0.49652 0.0
C342 C 0.38871 0.92518 0.49522 0.0
H343 H 0.18128 0.73563 0.47523 0.0
H344 H 0.23501 0.78904 0.48009 0.0
C345 C 0.41799 0.95691 0.49824 0.0
C346 C 0.35915 0.86115 0.49264 0.0
H347 H 0.29689 0.81659 0.45677 0.0
C348 C 0.34693 0.83637 0.50851 0.0
C349 C 0.3411 0.85359 0.47361 0.0
C350 C 0.35382 0.87815 0.45545 0.0
C351 C 0.31672 0.80484 0.50613 0.0
C352 C 0.29836 0.79758 0.48724 0.0
C353 C 0.31081 0.82216 0.47128 0.0
C354 C 0.2659 0.7649 0.48387 0.0
C355 C 0.30413 0.77993 0.5241 0.0
C356 C 0.26536 0.73346 0.48396 0.0
C357 C 0.23464 0.70282 0.48111 0.0
C358 C 0.20374 0.70292 0.47806 0.0
C359 C 0.20451 0.73451 0.47758 0.0
C360 C 0.23525 0.76513 0.48036 0.0
H361 H 0.31645 0.79235 0.53901 0.0
H362 H 0.27597 0.76805 0.52609 0.0
H363 H 0.31025 0.75932 0.52082 0.0
H364 H 0.28874 0.7326 0.48622 0.0
H365 H 0.23509 0.67903 0.4815 0.0
H366 H 0.58566 0.43605 0.8324 0.0
H367 H 0.58458 0.38282 0.82342 0.0
H368 H 0.47774 0.32615 0.84047 0.0
H369 H 0.4786 0.37951 0.84962 0.0
H370 H 0.51596 0.29528 0.85409 0.0
H371 H 0.53959 0.32927 0.77001 0.0
H372 H 0.57079 0.36046 0.78716 0.0
H373 H 0.52733 0.35199 0.78837 0.0
C374 C 0.56192 0.41233 0.83439 0.0
C375 C 0.53213 0.41228 0.84156 0.0
C376 C 0.56133 0.38183 0.82914 0.0
C377 C 0.53091 0.35043 0.83083 0.0
C378 C 0.50148 0.35005 0.83889 0.0
H379 H 0.48287 0.16072 0.7679 0.0
H380 H 0.48582 0.21322 0.78082 0.0
C381 C 0.50204 0.38063 0.84416 0.0
C382 C 0.52962 0.31823 0.82359 0.0
H383 H 0.5402 0.27923 0.78033 0.0
C384 C 0.52126 0.29176 0.83797 0.0
C385 C 0.53613 0.31339 0.80248 0.0
C386 C 0.54366 0.3401 0.78603 0.0
C387 C 0.51968 0.26089 0.83189 0.0
C388 C 0.52698 0.25638 0.81088 0.0
C389 C 0.53493 0.28271 0.79647 0.0
C390 C 0.52536 0.22416 0.8033 0.0
C391 C 0.50947 0.23304 0.84793 0.0
C392 C 0.54691 0.21281 0.81141 0.0
C393 C 0.54533 0.18266 0.804 0.0
C394 C 0.52222 0.1632 0.78825 0.0
C395 C 0.50093 0.17487 0.78005 0.0
C396 C 0.50259 0.20499 0.78743 0.0
H397 H 0.4968 0.23714 0.86179 0.0
H398 H 0.49189 0.20766 0.84113 0.0
H399 H 0.53267 0.23275 0.85328 0.0
H400 H 0.56519 0.22743 0.82337 0.0
H401 H 0.56222 0.1746 0.81063 0.0
H402 H 0.51701 0.84371 0.54131 0.0
H403 H 0.50725 0.7858 0.53566 0.0
H404 H 0.58176 0.82226 0.48546 0.0
H405 H 0.59145 0.88015 0.49081 0.0
H406 H 0.48904 0.74278 0.49761 0.0
H407 H 0.61731 0.77933 0.52937 0.0
H408 H 0.59717 0.80505 0.53341 0.0
H409 H 0.61625 0.80533 0.50854 0.0
C410 C 0.53094 0.83931 0.52886 0.0
C411 C 0.55532 0.86655 0.51667 0.0
C412 C 0.52534 0.80627 0.52567 0.0
C413 C 0.54406 0.79998 0.5103 0.0
C414 C 0.56742 0.82679 0.49757 0.0
H415 H 0.57024 0.62185 0.50033 0.0
H416 H 0.57013 0.67404 0.49034 0.0
C417 C 0.57305 0.85982 0.50075 0.0
C418 C 0.54078 0.76583 0.50857 0.0
H419 H 0.58333 0.72263 0.51865 0.0
C420 C 0.50968 0.73828 0.50204 0.0
C421 C 0.56786 0.76027 0.51428 0.0
C422 C 0.6015 0.78892 0.52195 0.0
C423 C 0.50481 0.70503 0.50129 0.0
C424 C 0.53155 0.69931 0.50766 0.0
C425 C 0.56294 0.72709 0.51363 0.0
C426 C 0.52697 0.66466 0.51017 0.0
C427 C 0.47114 0.67643 0.49372 0.0
C428 C 0.5021 0.64159 0.52415 0.0
C429 C 0.50197 0.61167 0.52979 0.0
C430 C 0.52708 0.60459 0.52181 0.0
C431 C 0.55069 0.62671 0.50686 0.0
C432 C 0.55064 0.65651 0.50111 0.0
H433 H 0.45875 0.68602 0.48286 0.0
H434 H 0.47446 0.65634 0.48567 0.0
H435 H 0.45361 0.66473 0.50729 0.0
H436 H 0.48408 0.64768 0.53171 0.0
H437 H 0.48343 0.59518 0.54135 0.0
H438 H 0.72114 0.47306 0.8141 0.0
H439 H 0.75958 0.45176 0.82443 0.0
H440 H 0.75245 0.4779 0.88853 0.0
H441 H 0.71375 0.49847 0.87842 0.0
H442 H 0.82161 0.4936 0.84185 0.0
H443 H 0.74641 0.38553 0.89513 0.0
H444 H 0.72667 0.4011 0.87711 0.0
H445 H 0.74183 0.42173 0.90196 0.0
C446 C 0.72717 0.47346 0.83045 0.0
C447 C 0.71478 0.48773 0.84544 0.0
C448 C 0.74907 0.46128 0.83632 0.0
C449 C 0.75843 0.46273 0.85729 0.0
C450 C 0.74494 0.47574 0.87235 0.0
H451 H 0.91371 0.49727 0.93682 0.0
H452 H 0.85887 0.47645 0.91975 0.0
C453 C 0.72327 0.48802 0.8665 0.0
C454 C 0.78602 0.45565 0.86322 0.0
H455 H 0.80794 0.41697 0.90087 0.0
C456 C 0.81854 0.47611 0.85433 0.0
C457 C 0.78185 0.43282 0.8795 0.0
C458 C 0.74718 0.40881 0.88881 0.0
C459 C 0.84754 0.47667 0.86252 0.0
C460 C 0.84371 0.45551 0.87978 0.0
C461 C 0.81083 0.43321 0.88769 0.0
C462 C 0.8738 0.46013 0.89157 0.0
C463 C 0.88226 0.50197 0.85369 0.0
C464 C 0.89971 0.45601 0.88188 0.0
C465 C 0.93137 0.46833 0.89151 0.0
C466 C 0.93736 0.48458 0.91108 0.0
C467 C 0.91011 0.48528 0.92164 0.0
C468 C 0.87864 0.47326 0.91193 0.0
H469 H 0.88096 0.5203 0.84274 0.0
H470 H 0.90008 0.51667 0.86642 0.0
H471 H 0.89313 0.48806 0.84502 0.0
H472 H 0.89616 0.44517 0.86636 0.0
H473 H 0.95169 0.4669 0.8831 0.0
H474 H 0.25461 0.70649 0.20982 0.0
H475 H 0.31341 0.74828 0.21887 0.0
H476 H 0.27608 0.78624 0.26885 0.0
H477 H 0.2172 0.74459 0.25986 0.0
H478 H 0.3262 0.83778 0.24518 0.0
H479 H 0.36714 0.74536 0.26864 0.0
H480 H 0.34976 0.738 0.24286 0.0
H481 H 0.32283 0.7332 0.26509 0.0
C482 C 0.25893 0.72347 0.22289 0.0
C483 C 0.23124 0.72213 0.23418 0.0
C484 C 0.29255 0.74732 0.22805 0.0
C485 C 0.29914 0.77003 0.24473 0.0
C486 C 0.27157 0.76891 0.25594 0.0
H487 H 0.4991 0.89141 0.3009 0.0
H488 H 0.43847 0.85182 0.29455 0.0
C489 C 0.23795 0.74517 0.25075 0.0
C490 C 0.33477 0.79541 0.25023 0.0
H491 H 0.41107 0.80314 0.26462 0.0
C492 C 0.34474 0.83024 0.24953 0.0
C493 C 0.35876 0.7855 0.25623 0.0
C494 C 0.34906 0.74848 0.25847 0.0
C495 C 0.37829 0.85545 0.25422 0.0
C496 C 0.40264 0.84555 0.25935 0.0
C497 C 0.39245 0.81071 0.26049 0.0
C498 C 0.43889 0.87083 0.26354 0.0
C499 C 0.38719 0.89241 0.2539 0.0
C500 C 0.45932 0.89452 0.24817 0.0
C501 C 0.49389 0.91723 0.25181 0.0
C502 C 0.50868 0.91655 0.27084 0.0
C503 C 0.48828 0.89265 0.28614 0.0
C504 C 0.45368 0.87006 0.28254 0.0
H505 H 0.36404 0.89513 0.25567 0.0
H506 H 0.40526 0.90707 0.26654 0.0
H507 H 0.39956 0.9039 0.23871 0.0
H508 H 0.44875 0.89486 0.23314 0.0
H509 H 0.50927 0.93436 0.2394 0.0
H510 H 0.50891 0.24729 0.46057 0.0
H511 H 0.52947 0.30847 0.46012 0.0
H512 H 0.63017 0.32819 0.47688 0.0
H513 H 0.6103 0.26706 0.47627 0.0
H514 H 0.55162 0.34534 0.49509 0.0
H515 H 0.65353 0.40277 0.43448 0.0
H516 H 0.62333 0.35759 0.43549 0.0
H517 H 0.6599 0.37588 0.45227 0.0
C518 C 0.53573 0.26461 0.46342 0.0
C519 C 0.55789 0.25222 0.46861 0.0
C520 C 0.5474 0.29961 0.46327 0.0
C521 C 0.5814 0.32292 0.46831 0.0
C522 C 0.604 0.31076 0.47254 0.0
H523 H 0.68037 0.52317 0.5215 0.0
H524 H 0.66803 0.46927 0.50487 0.0
C525 C 0.59243 0.27574 0.47253 0.0
C526 C 0.59174 0.35917 0.47208 0.0
H527 H 0.65197 0.44122 0.46017 0.0
C528 C 0.57323 0.36627 0.4872 0.0
C529 C 0.62019 0.38643 0.46193 0.0
C530 C 0.64019 0.38033 0.44499 0.0
C531 C 0.58282 0.39982 0.49283 0.0
C532 C 0.61149 0.42705 0.48292 0.0
C533 C 0.62994 0.42016 0.46765 0.0
C534 C 0.623 0.46266 0.48906 0.0
C535 C 0.56282 0.40591 0.50984 0.0
C536 C 0.60251 0.47728 0.48489 0.0
C537 C 0.60935 0.5079 0.49442 0.0
C538 C 0.63684 0.52437 0.50823 0.0
C539 C 0.65892 0.51101 0.51103 0.0
C540 C 0.65199 0.4803 0.5015 0.0
H541 H 0.54524 0.38212 0.51841 0.0
H542 H 0.58039 0.42504 0.52122 0.0
H543 H 0.5473 0.41611 0.50279 0.0
H544 H 0.58012 0.46402 0.47521 0.0
H545 H 0.59202 0.51768 0.49181 0.0
H546 H 0.29894 0.47548 0.86846 0.0
H547 H 0.26097 0.49989 0.868 0.0
H548 H 0.3456 0.59718 0.84943 0.0
H549 H 0.38394 0.57327 0.85024 0.0
H550 H 0.26953 0.55714 0.89221 0.0
H551 H 0.26921 0.57876 0.80689 0.0
H552 H 0.28206 0.54992 0.81765 0.0
H553 H 0.31084 0.59514 0.8181 0.0
C554 C 0.30953 0.50211 0.86436 0.0
C555 C 0.34448 0.52243 0.85938 0.0
C556 C 0.28775 0.51591 0.86396 0.0
C557 C 0.30045 0.55014 0.85839 0.0
C558 C 0.33522 0.57049 0.85333 0.0
H559 H 0.22129 0.68573 0.88349 0.0
H560 H 0.25647 0.65878 0.878 0.0
C561 C 0.35706 0.55677 0.8538 0.0
C562 C 0.27774 0.56512 0.85903 0.0
H563 H 0.2443 0.60356 0.82898 0.0
C564 C 0.26384 0.56711 0.87838 0.0
C565 C 0.27025 0.57785 0.84091 0.0
C566 C 0.28359 0.57513 0.81965 0.0
C567 C 0.24327 0.58233 0.88018 0.0
C568 C 0.23664 0.59597 0.86219 0.0
C569 C 0.24979 0.59326 0.84274 0.0
C570 C 0.2163 0.61344 0.86354 0.0
C571 C 0.22877 0.58387 0.90131 0.0
C572 C 0.18242 0.59707 0.8567 0.0
C573 C 0.16216 0.61231 0.85988 0.0
C574 C 0.17565 0.64422 0.86982 0.0
C575 C 0.21011 0.66112 0.87582 0.0
C576 C 0.23024 0.64579 0.87274 0.0
H577 H 0.23174 0.56741 0.91297 0.0
H578 H 0.24226 0.61056 0.90709 0.0
H579 H 0.20121 0.57588 0.90009 0.0
H580 H 0.17135 0.57206 0.84955 0.0
H581 H 0.13572 0.59868 0.85505 0.0
H582 H 0.86442 0.3029 0.15041 0.0
H583 H 0.80535 0.25658 0.15402 0.0
H584 H 0.77105 0.33012 0.16125 0.0
H585 H 0.82995 0.37664 0.15705 0.0
H586 H 0.76263 0.24496 0.18875 0.0
H587 H 0.70608 0.26446 0.11722 0.0
H588 H 0.75166 0.28333 0.1206 0.0
H589 H 0.72869 0.30193 0.13307 0.0
C590 C 0.84425 0.30924 0.15235 0.0
C591 C 0.85188 0.34347 0.15337 0.0
C592 C 0.81054 0.28274 0.15455 0.0
C593 C 0.7838 0.28992 0.15764 0.0
C594 C 0.79124 0.32402 0.1585 0.0
H595 H 0.56775 0.17032 0.18679 0.0
H596 H 0.62588 0.21531 0.1782 0.0
C597 C 0.82495 0.35056 0.15634 0.0
C598 C 0.74841 0.26175 0.16115 0.0
H599 H 0.66724 0.22524 0.14227 0.0
C600 C 0.7418 0.24046 0.17851 0.0
C601 C 0.72132 0.25611 0.14781 0.0
C602 C 0.72722 0.27745 0.12851 0.0
C603 C 0.70865 0.21404 0.18315 0.0
C604 C 0.68152 0.2084 0.16982 0.0
C605 C 0.68813 0.22963 0.15242 0.0
C606 C 0.64602 0.18088 0.17394 0.0
C607 C 0.70278 0.19297 0.20258 0.0
C608 C 0.63797 0.14658 0.17391 0.0
C609 C 0.60481 0.12081 0.17885 0.0
C610 C 0.57906 0.1289 0.18377 0.0
C611 C 0.587 0.16323 0.18314 0.0
C612 C 0.62018 0.18897 0.17821 0.0
H613 H 0.72428 0.20573 0.21366 0.0
H614 H 0.67875 0.18788 0.21072 0.0
H615 H 0.70049 0.16809 0.19814 0.0
H616 H 0.65742 0.13976 0.17026 0.0
H617 H 0.5995 0.09462 0.17907 0.0
H618 H 0.06423 0.53074 0.12086 0.0
H619 H 0.06537 0.53406 0.08248 0.0
H620 H 0.03856 0.61354 0.08614 0.0
H621 H 0.03742 0.61044 0.12425 0.0
H622 H 1.01168 0.53043 0.0526 0.0
H623 H 0.13298 0.65433 0.05361 0.0
H624 H 0.1185 0.62512 0.07543 0.0
H625 H 0.09995 0.65178 0.0709 0.0
C626 C 0.05831 0.54867 0.11341 0.0
C627 C 0.05114 0.57063 0.12544 0.0
C628 C 0.05889 0.55048 0.09156 0.0
C629 C 0.05243 0.57432 0.08159 0.0
C630 C 0.04397 0.59526 0.09361 0.0
H631 H 0.06294 0.6588 0.96093 0.0
H632 H 0.05331 0.64106 0.99755 0.0
C633 C 0.04336 0.59346 0.11535 0.0
C634 C 0.0562 0.57895 0.0587 0.0
H635 H 0.10358 0.63784 0.02147 0.0
C636 C 0.03192 0.55369 0.04569 0.0
C637 C 0.08274 0.60931 0.04986 0.0
C638 C 0.11025 0.63663 0.06311 0.0
C639 C 0.03274 0.55872 0.02398 0.0
C640 C 0.05872 0.5896 0.01525 0.0
C641 C 0.08351 0.61433 0.02826 0.0
C642 C 0.06054 0.59747 0.99271 0.0
C643 C 1.00522 0.53161 0.01067 0.0
C644 C 0.06753 0.57866 0.97784 0.0
C645 C 0.07307 0.58878 0.95689 0.0
C646 C 0.0717 0.61786 0.9505 0.0
C647 C 0.06402 0.6362 0.96538 0.0
C648 C 0.05846 0.62607 0.98628 0.0
H649 H 0.9833 0.51264 0.02022 0.0
H650 H 0.99566 0.54326 0.99924 0.0
H651 H 1.01607 0.51789 1.00176 0.0
H652 H 0.07014 0.55704 0.98258 0.0
H653 H 0.0802 0.57488 0.94597 0.0
H654 H 0.49829 0.03401 0.45205 0.0
H655 H 0.4881 0.03238 0.41454 0.0
H656 H 0.59235 0.05733 0.40179 0.0
H657 H 0.60297 0.05992 0.43941 0.0
H658 H 0.57147 0.09442 0.37775 0.0
H659 H 0.47608 0.95635 0.37497 0.0
H660 H 0.4656 0.97996 0.39347 0.0
H661 H 0.50301 0.97595 0.39724 0.0
C662 C 0.51911 0.03938 0.44125 0.0
C663 C 0.55143 0.0471 0.44858 0.0
C664 C 0.51315 0.0381 0.41983 0.0
C665 C 0.53928 0.04408 0.40539 0.0
C666 C 0.57178 0.0524 0.41269 0.0
H667 H 0.5567 0.04388 0.27052 0.0
H668 H 0.56574 0.04575 0.30817 0.0
C669 C 0.5778 0.05383 0.43414 0.0
C670 C 0.53281 0.04204 0.38266 0.0
H671 H 0.48308 0.98833 0.34415 0.0
C672 C 0.55226 0.0712 0.37038 0.0
C673 C 0.50768 1.01169 0.3731 0.0
C674 C 0.48709 0.9791 0.38532 0.0
C675 C 0.54692 0.07097 0.34882 0.0
C676 C 0.52177 0.04066 0.33931 0.0
C677 C 0.50224 1.01154 0.35156 0.0
C678 C 0.51582 0.03852 0.31655 0.0
C679 C 0.56787 0.10328 0.33644 0.0
C680 C 0.48446 0.03306 0.30883 0.0
C681 C 0.47905 0.03147 0.2873 0.0
C682 C 0.50472 0.0347 0.27321 0.0
C683 C 0.53602 0.04005 0.28101 0.0
C684 C 0.54145 0.04174 0.3025 0.0
H685 H 0.58012 0.12611 0.34668 0.0
H686 H 0.58838 0.1014 0.32773 0.0
H687 H 0.55177 0.10698 0.32491 0.0
H688 H 0.46436 0.03046 0.31947 0.0
H689 H 0.45479 0.02759 0.28165 0.0
H690 H 0.48585 0.44056 0.77869 0.0
H691 H 0.50285 0.44548 0.74175 0.0
H692 H 0.58145 0.54968 0.75188 0.0
H693 H 0.56446 0.545 0.78874 0.0
H694 H 0.50343 0.49555 0.71367 0.0
H695 H 0.63108 0.50534 0.7199 0.0
H696 H 0.59916 0.48789 0.74052 0.0
H697 H 0.62384 0.53323 0.7368 0.0
C698 C 0.5069 0.46441 0.77303 0.0
C699 C 0.52393 0.49238 0.7865 0.0
C700 C 0.51661 0.46715 0.752 0.0
C701 C 0.54369 0.49776 0.74423 0.0
C702 C 0.56093 0.52563 0.75771 0.0
H703 H 0.63155 0.58281 0.62426 0.0
H704 H 0.61963 0.56894 0.66136 0.0
C705 C 0.55112 0.52297 0.7787 0.0
C706 C 0.55233 0.50142 0.72171 0.0
H707 H 0.61652 0.51753 0.68672 0.0
C708 C 0.528 0.5 0.70771 0.0
C709 C 0.58451 0.50748 0.71412 0.0
C710 C 0.61113 0.50833 0.72855 0.0
C711 C 0.53532 0.50547 0.68628 0.0
C712 C 0.56757 0.51162 0.67863 0.0
C713 C 0.5918 0.51266 0.69263 0.0
C714 C 0.57692 0.51833 0.65622 0.0
C715 C 0.50892 0.50588 0.67216 0.0
C716 C 0.55763 0.494 0.64107 0.0
C717 C 0.56417 0.50192 0.61986 0.0
C718 C 0.59044 0.53421 0.61343 0.0
C719 C 0.61105 0.55777 0.62867 0.0
C720 C 0.60429 0.5499 0.64989 0.0
H721 H 0.48951 0.50938 0.6811 0.0
H722 H 0.52112 0.52658 0.66038 0.0
H723 H 0.49538 0.48118 0.66376 0.0
H724 H 0.53691 0.46918 0.64566 0.0
H725 H 0.54809 0.48303 0.60853 0.0
H726 H 0.47511 0.03914 0.57044 0.0
H727 H 0.4798 0.03315 0.60797 0.0
H728 H 0.58858 0.07366 0.60068 0.0
H729 H 0.58377 0.07875 0.56287 0.0
H730 H 0.56183 0.01977 0.62585 0.0
H731 H 0.51411 0.10596 0.6519 0.0
H732 H 0.48402 0.07278 0.63535 0.0
H733 H 0.5253 0.10362 0.62501 0.0
C734 C 0.50006 0.04688 0.57685 0.0
C735 C 0.52912 0.05963 0.56377 0.0
C736 C 0.50276 0.04374 0.59835 0.0
C737 C 0.53468 0.05379 0.60733 0.0
C738 C 0.56372 0.06606 0.5942 0.0
H739 H 0.56049 0.06599 0.74387 0.0
H740 H 0.56311 0.08081 0.70683 0.0
C741 C 0.56097 0.06896 0.5726 0.0
C742 C 0.53735 0.05013 0.63025 0.0
H743 H 0.51478 0.06815 0.67793 0.0
C744 C 0.55185 0.03066 0.63722 0.0
C745 C 0.525 0.06488 0.64523 0.0
C746 C 0.51159 0.08828 0.639 0.0
C747 C 0.55306 0.02441 0.65858 0.0
C748 C 0.53855 0.03717 0.67345 0.0
C749 C 0.52538 0.05785 0.66657 0.0
C750 C 0.53592 0.02848 0.69607 0.0
C751 C 0.57014 1.00433 0.66498 0.0
C752 C 0.51893 0.99423 0.70246 0.0
C753 C 0.51739 0.98575 0.72355 0.0
C754 C 0.53224 1.01132 0.73886 0.0
C755 C 0.54825 0.04568 0.73256 0.0
C756 C 0.55002 0.05417 0.71135 0.0
H757 H 0.58924 1.00626 0.65308 0.0
H758 H 0.58317 1.0133 0.68019 0.0
H759 H 0.55053 0.977 0.66651 0.0
H760 H 0.50694 0.97392 0.6911 0.0
H761 H 0.5046 0.95903 0.72786 0.0
H762 H 0.50434 0.46743 0.90149 0.0
H763 H 0.4926 0.46394 0.93931 0.0
H764 H 0.56585 0.57101 0.94537 0.0
H765 H 0.5772 0.57468 0.90784 0.0
H766 H 0.53791 0.47639 0.97057 0.0
H767 H 0.48585 0.56415 0.97913 0.0
H768 H 0.4893 0.54721 0.95414 0.0
H769 H 0.5258 0.58373 0.96508 0.0
C770 C 0.51752 0.49026 0.91091 0.0
C771 C 0.54165 0.52133 0.90175 0.0
C772 C 0.51082 0.48826 0.93248 0.0
C773 C 0.52788 0.51736 0.94517 0.0
C774 C 0.55168 0.54841 0.9359 0.0
H775 H 0.59724 0.54768 0.06915 0.0
H776 H 0.58575 0.53959 0.03194 0.0
C777 C 0.55839 0.5504 0.91444 0.0
C778 C 0.52323 0.51506 0.96828 0.0
H779 H 0.50968 0.55437 0.01029 0.0
C780 C 0.53111 0.493 0.97922 0.0
C781 C 0.51386 0.53633 0.97966 0.0
C782 C 0.50286 0.55891 0.96888 0.0
C783 C 0.532 0.4932 1.00115 0.0
C784 C 0.52531 0.51642 0.01245 0.0
C785 C 0.51526 0.53691 1.00161 0.0
C786 C 0.53161 0.52178 0.03526 0.0
C787 C 0.54087 0.46905 0.01202 0.0
C788 C 0.50513 0.51544 0.04956 0.0
C789 C 0.51164 0.5201 0.07108 0.0
C790 C 0.54484 0.53158 0.07859 0.0
C791 C 0.57129 0.53856 0.06405 0.0
C792 C 0.56477 0.53383 0.0427 0.0
H793 H 0.535 0.4465 1.00213 0.0
H794 H 0.56868 0.48248 0.01525 0.0
H795 H 0.52676 0.4601 0.0271 0.0
H796 H 0.47935 0.50624 0.04412 0.0
H797 H 0.49054 0.51385 0.08174 0.0
H798 H 1.01534 0.54728 0.23714 0.0
H799 H 1.01673 0.55146 0.27533 0.0
H800 H 0.05067 0.4773 0.27837 0.0
H801 H 0.04976 0.47338 0.24011 0.0
H802 H 0.98182 0.49997 0.30601 0.0
H803 H 0.12302 0.55917 0.31172 0.0
H804 H 0.10203 0.55693 0.28748 0.0
H805 H 0.1023 0.51985 0.29734 0.0
C806 C 1.02325 0.53199 0.24596 0.0
C807 C 0.0328 0.51027 0.23568 0.0
C808 C 1.02386 0.53427 0.26776 0.0
C809 C 0.03415 0.51497 0.27969 0.0
C810 C 0.04314 0.49281 0.26946 0.0
H811 H 1.01666 0.49421 0.41671 0.0
H812 H 1.0084 0.48175 0.37923 0.0
C813 C 0.0425 0.4905 0.24763 0.0
C814 C 0.03588 0.51851 0.3028 0.0
H815 H 0.09165 0.54574 0.34341 0.0
C816 C 1.00578 0.50983 0.31424 0.0
C817 C 0.06723 0.53168 0.31345 0.0
C818 C 0.10058 0.54275 0.30192 0.0
C819 C 1.00623 0.51409 0.33604 0.0
C820 C 0.03757 0.52708 0.34669 0.0
C821 C 0.0676 0.53554 0.33524 0.0
C822 C 0.04037 0.53422 0.36949 0.0
C823 C 0.97341 0.50568 0.34744 0.0
C824 C 0.06111 0.56775 0.37649 0.0
C825 C 0.06573 0.57491 0.39782 0.0
C826 C 0.04973 0.54871 0.41274 0.0
C827 C 0.02858 0.51511 0.40574 0.0
C828 C 1.02398 0.50793 0.38428 0.0
H829 H 0.95303 0.50252 0.33656 0.0
H830 H 0.96418 0.48145 0.35616 0.0
H831 H 0.97769 0.52598 0.3589 0.0
H832 H 0.07404 0.58844 0.3654 0.0
H833 H 0.08219 0.60109 0.40261 0.0
loop_
_geom_bond_atom_site_label_1
_geom_bond_atom_site_label_2
_geom_bond_distance
_geom_bond_site_symmetry_2
_ccdc_geom_bond_type
Tb0 C2 2.809 . S
Tb0 O20 2.484 . S
Tb0 O21 2.440 . S
Tb0 O22 2.658 . S
Tb0 O23 2.409 . S
Tb0 O24 2.378 . S
Tb0 O28 2.325 . S
Tb0 O31 2.341 1_455 S
Tb1 C11 2.809 . S
Tb1 O22 2.325 1_655 S
Tb1 O25 2.341 1_655 S
Tb1 O26 2.484 . S
Tb1 O27 2.440 . S
Tb1 O28 2.658 1_655 S
Tb1 O29 2.409 . S
Tb1 O30 2.378 . S
C2 Tb0 2.809 . S
C2 C3 1.514 . S
C2 O20 1.248 . S
C2 O21 1.266 . S
C3 C2 1.514 . S
C3 C4 1.359 . S
C3 C8 1.348 . S
C4 C3 1.359 . S
C4 C5 1.380 . S
C4 H32 0.929 . S
C5 C4 1.380 . S
C5 C6 1.347 . S
C5 H33 0.931 . S
C6 C5 1.347 . S
C6 C7 1.369 . S
C7 C6 1.369 . S
C7 C8 1.408 . S
C7 H34 0.930 . S
C8 C3 1.348 . S
C8 C7 1.408 . S
C8 H35 0.930 . S
C9 O22 1.281 . S
C9 O23 1.254 . S
C10 O24 1.236 . S
C10 O25 1.266 . S
C11 Tb1 2.809 . S
C11 C12 1.514 . S
C11 O26 1.248 . S
C11 O27 1.266 . S
C12 C11 1.514 . S
C12 C13 1.359 . S
C12 C17 1.348 . S
C13 C12 1.359 . S
C13 C14 1.380 . S
C13 H36 0.929 . S
C14 C13 1.380 . S
C14 C15 1.347 . S
C14 H37 0.931 . S
C15 C14 1.347 . S
C15 C16 1.369 . S
C16 C15 1.369 . S
C16 C17 1.408 . S
C16 H38 0.930 . S
C17 C12 1.348 . S
C17 C16 1.408 . S
C17 H39 0.930 . S
C18 O28 1.281 . S
C18 O29 1.254 1_455 S
C19 O30 1.236 . S
C19 O31 1.266 . S
O20 Tb0 2.484 . S
O20 C2 1.248 . S
O21 Tb0 2.440 . S
O21 C2 1.266 . S
O22 Tb0 2.658 . S
O22 Tb1 2.325 1_455 S
O22 C9 1.281 . S
O23 Tb0 2.409 . S
O23 C9 1.254 . S
O24 Tb0 2.378 . S
O24 C10 1.236 . S
O25 Tb1 2.341 1_455 S
O25 C10 1.266 . S
O26 Tb1 2.484 . S
O26 C11 1.248 . S
O27 Tb1 2.440 . S
O27 C11 1.266 . S
O28 Tb0 2.325 . S
O28 Tb1 2.658 1_455 S
O28 C18 1.281 . S
O29 Tb1 2.409 . S
O29 C18 1.254 1_655 S
O30 Tb1 2.378 . S
O30 C19 1.236 . S
O31 Tb0 2.341 1_655 S
O31 C19 1.266 . S
H32 C4 0.929 . S
H33 C5 0.931 . S
H34 C7 0.930 . S
H35 C8 0.930 . S
H36 C13 0.929 . S
H37 C14 0.931 . S
H38 C16 0.930 . S
H39 C17 0.930 . S
Tb40 C42 2.809 1_545 S
Tb40 O60 2.484 1_545 S
Tb40 O61 2.440 1_545 S
Tb40 O62 2.658 . S
Tb40 O63 2.409 . S
Tb40 O64 2.378 1_545 S
Tb40 O68 2.325 . S
Tb40 O71 2.341 . S
Tb41 C51 2.809 . S
Tb41 O62 2.325 . S
Tb41 O65 2.341 1_545 S
Tb41 O66 2.484 . S
Tb41 O67 2.440 . S
Tb41 O68 2.658 . S
Tb41 O69 2.409 . S
Tb41 O70 2.378 . S
C42 Tb40 2.809 1_565 S
C42 C43 1.514 . S
C42 O60 1.248 . S
C42 O61 1.266 . S
C43 C42 1.514 . S
C43 C44 1.359 . S
C43 C48 1.348 . S
C44 C43 1.359 . S
C44 C45 1.380 . S
C44 H72 0.929 . S
C45 C44 1.380 . S
C45 C46 1.347 . S
C45 H73 0.931 . S
C46 C45 1.347 . S
C46 C47 1.369 . S
C47 C46 1.369 . S
C47 C48 1.408 . S
C47 H74 0.930 . S
C48 C43 1.348 . S
C48 C47 1.408 . S
C48 H75 0.930 . S
C49 O62 1.281 . S
C49 O63 1.254 . S
C50 O64 1.236 . S
C50 O65 1.266 . S
C51 Tb41 2.809 . S
C51 C52 1.514 . S
C51 O66 1.248 . S
C51 O67 1.266 . S
C52 C51 1.514 . S
C52 C53 1.359 . S
C52 C57 1.348 . S
C53 C52 1.359 . S
C53 C54 1.380 . S
C53 H76 0.929 . S
C54 C53 1.380 . S
C54 C55 1.347 . S
C54 H77 0.931 . S
C55 C54 1.347 . S
C55 C56 1.369 . S
C56 C55 1.369 . S
C56 C57 1.408 . S
C56 H78 0.930 . S
C57 C52 1.348 . S
C57 C56 1.408 . S
C57 H79 0.930 . S
C58 O68 1.281 . S
C58 O69 1.254 . S
C59 O70 1.236 . S
C59 O71 1.266 . S
O60 Tb40 2.484 1_565 S
O60 C42 1.248 . S
O61 Tb40 2.440 1_565 S
O61 C42 1.266 . S
O62 Tb40 2.658 . S
O62 Tb41 2.325 . S
O62 C49 1.281 . S
O63 Tb40 2.409 . S
O63 C49 1.254 . S
O64 Tb40 2.378 1_565 S
O64 C50 1.236 . S
O65 Tb41 2.341 1_565 S
O65 C50 1.266 . S
O66 Tb41 2.484 . S
O66 C51 1.248 . S
O67 Tb41 2.440 . S
O67 C51 1.266 . S
O68 Tb40 2.325 . S
O68 Tb41 2.658 . S
O68 C58 1.281 . S
O69 Tb41 2.409 . S
O69 C58 1.254 . S
O70 Tb41 2.378 . S
O70 C59 1.236 . S
O71 Tb40 2.341 . S
O71 C59 1.266 . S
H72 C44 0.929 . S
H73 C45 0.931 . S
H74 C47 0.930 . S
H75 C48 0.930 . S
H76 C53 0.929 . S
H77 C54 0.931 . S
H78 C56 0.930 . S
H79 C57 0.930 . S
Tb80 C82 2.809 . S
Tb80 O100 2.484 . S
Tb80 O101 2.440 . S
Tb80 O102 2.658 . S
Tb80 O103 2.409 . S
Tb80 O104 2.378 . S
Tb80 O108 2.325 . S
Tb80 O111 2.341 . S
Tb81 C91 2.809 . S
Tb81 O102 2.325 . S
Tb81 O105 2.341 . S
Tb81 O106 2.484 . S
Tb81 O107 2.440 . S
Tb81 O108 2.658 . S
Tb81 O109 2.409 . S
Tb81 O110 2.378 . S
C82 Tb80 2.809 . S
C82 C83 1.514 . S
C82 O100 1.248 . S
C82 O101 1.266 . S
C83 C82 1.514 . S
C83 C84 1.359 . S
C83 C88 1.348 . S
C84 C83 1.359 . S
C84 C85 1.380 . S
C84 H112 0.929 . S
C85 C84 1.380 . S
C85 C86 1.347 . S
C85 H113 0.931 . S
C86 C85 1.347 . S
C86 C87 1.369 . S
C87 C86 1.369 . S
C87 C88 1.408 . S
C87 H114 0.930 . S
C88 C83 1.348 . S
C88 C87 1.408 . S
C88 H115 0.930 . S
C89 O102 1.281 . S
C89 O103 1.254 . S
C90 O104 1.236 . S
C90 O105 1.266 . S
C91 Tb81 2.809 . S
C91 C92 1.514 . S
C91 O106 1.248 . S
C91 O107 1.266 . S
C92 C91 1.514 . S
C92 C93 1.359 . S
C92 C97 1.348 . S
C93 C92 1.359 . S
C93 C94 1.380 . S
C93 H116 0.929 . S
C94 C93 1.380 . S
C94 C95 1.347 . S
C94 H117 0.931 . S
C95 C94 1.347 . S
C95 C96 1.369 . S
C96 C95 1.369 . S
C96 C97 1.408 . S
C96 H118 0.930 . S
C97 C92 1.348 . S
C97 C96 1.408 . S
C97 H119 0.930 . S
C98 O108 1.281 . S
C98 O109 1.254 . S
C99 O110 1.236 . S
C99 O111 1.266 . S
O100 Tb80 2.484 . S
O100 C82 1.248 . S
O101 Tb80 2.440 . S
O101 C82 1.266 . S
O102 Tb80 2.658 . S
O102 Tb81 2.325 . S
O102 C89 1.281 . S
O103 Tb80 2.409 . S
O103 C89 1.254 . S
O104 Tb80 2.378 . S
O104 C90 1.236 . S
O105 Tb81 2.341 . S
O105 C90 1.266 . S
O106 Tb81 2.484 . S
O106 C91 1.248 . S
O107 Tb81 2.440 . S
O107 C91 1.266 . S
O108 Tb80 2.325 . S
O108 Tb81 2.658 . S
O108 C98 1.281 . S
O109 Tb81 2.409 . S
O109 C98 1.254 . S
O110 Tb81 2.378 . S
O110 C99 1.236 . S
O111 Tb80 2.341 . S
O111 C99 1.266 . S
H112 C84 0.929 . S
H113 C85 0.931 . S
H114 C87 0.930 . S
H115 C88 0.930 . S
H116 C93 0.929 . S
H117 C94 0.931 . S
H118 C96 0.930 . S
H119 C97 0.930 . S
O120 Cd121 2.300 . S
O120 C127 1.275 . S
Cd121 O120 2.300 . S
Cd121 O129 2.381 . S
Cd121 O130 2.378 . S
O122 Cd123 2.385 1_545 S
O122 C127 1.255 . S
Cd123 O122 2.385 1_565 S
Cd123 O124 2.317 . S
O124 Cd123 2.317 . S
O124 C125 1.232 . S
C125 O124 1.232 . S
C125 O126 1.218 . S
O126 C125 1.218 . S
C127 O120 1.275 . S
C127 O122 1.255 . S
C128 O129 1.258 . S
C128 O130 1.256 . S
O129 Cd121 2.381 . S
O129 C128 1.258 . S
O130 Cd121 2.378 . S
O130 C128 1.256 . S
O131 Cd132 2.300 . S
O131 C138 1.275 . S
Cd132 O131 2.300 . S
Cd132 O140 2.381 . S
Cd132 O141 2.378 . S
O133 Cd134 2.385 . S
O133 C138 1.255 . S
Cd134 O133 2.385 . S
Cd134 O135 2.317 . S
O135 Cd134 2.317 . S
O135 C136 1.232 . S
C136 O135 1.232 . S
C136 O137 1.218 . S
O137 C136 1.218 . S
C138 O131 1.275 . S
C138 O133 1.255 . S
C139 O140 1.258 . S
C139 O141 1.256 . S
O140 Cd132 2.381 . S
O140 C139 1.258 . S
O141 Cd132 2.378 . S
O141 C139 1.256 . S
O142 Cd143 2.300 . S
O142 C149 1.282 . S
Cd143 O142 2.300 . S
Cd143 O151 2.381 . S
Cd143 O152 2.378 . S
O144 Cd145 2.385 . S
O144 C149 1.252 1_655 S
Cd145 O144 2.385 . S
Cd145 O146 2.317 . S
O146 Cd145 2.317 . S
O146 C147 1.232 . S
C147 O146 1.232 . S
C147 O148 1.218 . S
O148 C147 1.218 . S
C149 O142 1.282 . S
C149 O144 1.252 1_455 S
C150 O151 1.258 . S
C150 O152 1.256 . S
O151 Cd143 2.381 . S
O151 C150 1.258 . S
O152 Cd143 2.378 . S
O152 C150 1.256 . S
O153 Cd154 2.300 . S
O153 C160 1.275 . S
Cd154 O153 2.300 . S
Cd154 O162 2.381 . S
Cd154 O163 2.378 . S
O155 Cd156 2.385 1_455 S
O155 C160 1.255 . S
Cd156 O155 2.385 1_655 S
Cd156 O157 2.317 . S
O157 Cd156 2.317 . S
O157 C158 1.232 . S
C158 O157 1.232 . S
C158 O159 1.218 . S
O159 C158 1.218 . S
C160 O153 1.275 . S
C160 O155 1.255 . S
C161 O162 1.258 . S
C161 O163 1.256 . S
O162 Cd154 2.381 . S
O162 C161 1.258 . S
O163 Cd154 2.378 . S
O163 C161 1.256 . S
O164 Cd165 2.300 . S
O164 C171 1.275 1_565 S
Cd165 O164 2.300 . S
Cd165 O173 2.381 . S
Cd165 O174 2.378 . S
O166 Cd167 2.385 . S
O166 C171 1.255 . S
Cd167 O166 2.385 . S
Cd167 O168 2.317 . S
O168 Cd167 2.317 . S
O168 C169 1.232 . S
C169 O168 1.232 . S
C169 O170 1.218 . S
O170 C169 1.218 . S
C171 O164 1.275 1_545 S
C171 O166 1.255 . S
C172 O173 1.258 . S
C172 O174 1.256 . S
O173 Cd165 2.381 . S
O173 C172 1.258 . S
O174 Cd165 2.378 . S
O174 C172 1.256 . S
O175 Cd176 2.300 . S
O175 C182 1.275 . S
Cd176 O175 2.300 . S
Cd176 O184 2.381 . S
Cd176 O185 2.378 . S
O177 Cd178 2.385 . S
O177 C182 1.255 . S
Cd178 O177 2.385 . S
Cd178 O179 2.317 . S
O179 Cd178 2.317 . S
O179 C180 1.232 . S
C180 O179 1.232 . S
C180 O181 1.218 . S
O181 C180 1.218 . S
C182 O175 1.275 . S
C182 O177 1.255 . S
C183 O184 1.258 . S
C183 O185 1.256 . S
O184 Cd176 2.381 . S
O184 C183 1.258 . S
O185 Cd176 2.378 . S
O185 C183 1.256 . S
H186 C194 0.929 . S
H187 C196 0.930 . S
H188 C198 0.930 . S
H189 C201 0.929 . S
H190 C204 0.930 . S
H191 C206 0.960 . S
H192 C206 0.960 . S
H193 C206 0.960 . S
C194 H186 0.929 . S
C194 C195 1.377 . S
C194 C196 1.384 . S
C195 C194 1.377 . S
C195 C201 1.390 . S
C196 H187 0.930 . S
C196 C194 1.384 . S
C196 C197 1.372 . S
C197 C196 1.372 . S
C197 C198 1.400 . S
C197 C202 1.490 . S
C198 H188 0.930 . S
C198 C197 1.400 . S
C198 C201 1.386 . S
H199 C215 0.930 . S
H200 C216 0.931 . S
C201 H189 0.929 . S
C201 C195 1.390 . S
C201 C198 1.386 . S
C202 C197 1.490 . S
C202 C204 1.395 . S
C202 C205 1.403 . S
H203 C209 0.930 . S
C204 H190 0.930 . S
C204 C202 1.395 . S
C204 C207 1.403 . S
C205 C202 1.403 . S
C205 C206 1.524 . S
C205 C209 1.400 . S
C206 H191 0.960 . S
C206 H192 0.960 . S
C206 H193 0.960 . S
C206 C205 1.524 . S
C207 C204 1.403 . S
C207 C208 1.392 . S
C207 C211 1.495 . S
C208 C207 1.392 . S
C208 C209 1.385 . S
C208 C210 1.478 . S
C209 H203 0.930 . S
C209 C205 1.400 . S
C209 C208 1.385 . S
C210 C208 1.478 . S
C210 C212 1.381 . S
C210 C216 1.383 . S
C211 C207 1.495 . S
C211 H217 0.959 . S
C211 H218 0.961 . S
C211 H219 0.960 . S
C212 C210 1.381 . S
C212 C213 1.394 . S
C212 H220 0.930 . S
C213 C212 1.394 . S
C213 C214 1.383 . S
C213 H221 0.929 . S
C214 C213 1.383 . S
C214 C215 1.377 . S
C215 H199 0.930 . S
C215 C214 1.377 . S
C215 C216 1.379 . S
C216 H200 0.931 . S
C216 C210 1.383 . S
C216 C215 1.379 . S
H217 C211 0.959 . S
H218 C211 0.961 . S
H219 C211 0.960 . S
H220 C212 0.930 . S
H221 C213 0.929 . S
H222 C230 0.929 . S
H223 C232 0.930 . S
H224 C234 0.930 . S
H225 C237 0.929 . S
H226 C240 0.930 . S
H227 C242 0.960 . S
H228 C242 0.960 . S
H229 C242 0.960 . S
C230 H222 0.929 . S
C230 C231 1.377 . S
C230 C232 1.384 . S
C231 C230 1.377 . S
C231 C237 1.390 . S
C232 H223 0.930 . S
C232 C230 1.384 . S
C232 C233 1.372 . S
C233 C232 1.372 . S
C233 C234 1.400 . S
C233 C238 1.490 . S
C234 H224 0.930 . S
C234 C233 1.400 . S
C234 C237 1.386 . S
H235 C251 0.930 . S
H236 C252 0.931 . S
C237 H225 0.929 . S
C237 C231 1.390 . S
C237 C234 1.386 . S
C238 C233 1.490 . S
C238 C240 1.395 . S
C238 C241 1.403 . S
H239 C245 0.930 . S
C240 H226 0.930 . S
C240 C238 1.395 . S
C240 C243 1.403 . S
C241 C238 1.403 . S
C241 C242 1.524 . S
C241 C245 1.400 . S
C242 H227 0.960 . S
C242 H228 0.960 . S
C242 H229 0.960 . S
C242 C241 1.524 . S
C243 C240 1.403 . S
C243 C244 1.392 . S
C243 C247 1.495 . S
C244 C243 1.392 . S
C244 C245 1.385 . S
C244 C246 1.478 . S
C245 H239 0.930 . S
C245 C241 1.400 . S
C245 C244 1.385 . S
C246 C244 1.478 . S
C246 C248 1.381 . S
C246 C252 1.383 . S
C247 C243 1.495 . S
C247 H253 0.959 . S
C247 H254 0.961 . S
C247 H255 0.960 . S
C248 C246 1.381 . S
C248 C249 1.394 . S
C248 H256 0.930 . S
C249 C248 1.394 . S
C249 C250 1.383 . S
C249 H257 0.929 . S
C250 C249 1.383 . S
C250 C251 1.377 . S
C251 H235 0.930 . S
C251 C250 1.377 . S
C251 C252 1.379 . S
C252 H236 0.931 . S
C252 C246 1.383 . S
C252 C251 1.379 . S
H253 C247 0.959 . S
H254 C247 0.961 . S
H255 C247 0.960 . S
H256 C248 0.930 . S
H257 C249 0.929 . S
H258 C266 0.929 . S
H259 C268 0.930 . S
H260 C270 0.930 . S
H261 C273 0.929 . S
H262 C276 0.930 . S
H263 C278 0.960 . S
H264 C278 0.960 . S
H265 C278 0.960 . S
C266 H258 0.929 . S
C266 C267 1.377 . S
C266 C268 1.384 . S
C267 C266 1.377 . S
C267 C273 1.390 . S
C268 H259 0.930 . S
C268 C266 1.384 . S
C268 C269 1.372 . S
C269 C268 1.372 . S
C269 C270 1.400 . S
C269 C274 1.490 . S
C270 H260 0.930 . S
C270 C269 1.400 . S
C270 C273 1.386 . S
H271 C287 0.930 . S
H272 C288 0.931 . S
C273 H261 0.929 . S
C273 C267 1.390 . S
C273 C270 1.386 . S
C274 C269 1.490 . S
C274 C276 1.395 . S
C274 C277 1.403 . S
H275 C281 0.930 . S
C276 H262 0.930 . S
C276 C274 1.395 . S
C276 C279 1.403 . S
C277 C274 1.403 . S
C277 C278 1.524 . S
C277 C281 1.400 . S
C278 H263 0.960 . S
C278 H264 0.960 . S
C278 H265 0.960 . S
C278 C277 1.524 . S
C279 C276 1.403 . S
C279 C280 1.392 . S
C279 C283 1.495 . S
C280 C279 1.392 . S
C280 C281 1.385 . S
C280 C282 1.478 . S
C281 H275 0.930 . S
C281 C277 1.400 . S
C281 C280 1.385 . S
C282 C280 1.478 . S
C282 C284 1.381 . S
C282 C288 1.383 . S
C283 C279 1.495 . S
C283 H289 0.959 . S
C283 H290 0.961 . S
C283 H291 0.960 . S
C284 C282 1.381 . S
C284 C285 1.394 . S
C284 H292 0.930 . S
C285 C284 1.394 . S
C285 C286 1.383 . S
C285 H293 0.929 . S
C286 C285 1.383 . S
C286 C287 1.377 . S
C287 H271 0.930 . S
C287 C286 1.377 . S
C287 C288 1.379 . S
C288 H272 0.931 . S
C288 C282 1.383 . S
C288 C287 1.379 . S
H289 C283 0.959 . S
H290 C283 0.961 . S
H291 C283 0.960 . S
H292 C284 0.930 . S
H293 C285 0.929 . S
H294 C302 0.929 . S
H295 C304 0.930 . S
H296 C306 0.930 . S
H297 C309 0.929 . S
H298 C312 0.930 . S
H299 C314 0.960 . S
H300 C314 0.960 . S
H301 C314 0.960 . S
C302 H294 0.929 . S
C302 C303 1.377 . S
C302 C304 1.384 . S
C303 C302 1.377 . S
C303 C309 1.390 . S
C304 H295 0.930 . S
C304 C302 1.384 . S
C304 C305 1.372 . S
C305 C304 1.372 . S
C305 C306 1.400 . S
C305 C310 1.490 . S
C306 H296 0.930 . S
C306 C305 1.400 . S
C306 C309 1.386 . S
H307 C323 0.930 . S
H308 C324 0.931 . S
C309 H297 0.929 . S
C309 C303 1.390 . S
C309 C306 1.386 . S
C310 C305 1.490 . S
C310 C312 1.395 . S
C310 C313 1.403 . S
H311 C317 0.930 . S
C312 H298 0.930 . S
C312 C310 1.395 . S
C312 C315 1.403 . S
C313 C310 1.403 . S
C313 C314 1.524 . S
C313 C317 1.400 . S
C314 H299 0.960 . S
C314 H300 0.960 . S
C314 H301 0.960 . S
C314 C313 1.524 . S
C315 C312 1.403 . S
C315 C316 1.392 . S
C315 C319 1.495 . S
C316 C315 1.392 . S
C316 C317 1.385 . S
C316 C318 1.478 . S
C317 H311 0.930 . S
C317 C313 1.400 . S
C317 C316 1.385 . S
C318 C316 1.478 . S
C318 C320 1.381 . S
C318 C324 1.383 . S
C319 C315 1.495 . S
C319 H325 0.959 . S
C319 H326 0.961 . S
C319 H327 0.960 . S
C320 C318 1.381 . S
C320 C321 1.394 . S
C320 H328 0.930 . S
C321 C320 1.394 . S
C321 C322 1.383 . S
C321 H329 0.929 . S
C322 C321 1.383 . S
C322 C323 1.377 . S
C323 H307 0.930 . S
C323 C322 1.377 . S
C323 C324 1.379 . S
C324 H308 0.931 . S
C324 C318 1.383 . S
C324 C323 1.379 . S
H325 C319 0.959 . S
H326 C319 0.961 . S
H327 C319 0.960 . S
H328 C320 0.930 . S
H329 C321 0.929 . S
H330 C338 0.929 . S
H331 C340 0.930 . S
H332 C342 0.930 . S
H333 C345 0.929 . S
H334 C348 0.930 . S
H335 C350 0.960 . S
H336 C350 0.960 . S
H337 C350 0.960 . S
C338 H330 0.929 . S
C338 C339 1.377 . S
C338 C340 1.384 . S
C339 C338 1.377 . S
C339 C345 1.390 . S
C340 H331 0.930 . S
C340 C338 1.384 . S
C340 C341 1.372 . S
C341 C340 1.372 . S
C341 C342 1.400 . S
C341 C346 1.490 . S
C342 H332 0.930 . S
C342 C341 1.400 . S
C342 C345 1.386 . S
H343 C359 0.930 . S
H344 C360 0.931 . S
C345 H333 0.929 . S
C345 C339 1.390 . S
C345 C342 1.386 . S
C346 C341 1.490 . S
C346 C348 1.395 . S
C346 C349 1.403 . S
H347 C353 0.930 . S
C348 H334 0.930 . S
C348 C346 1.395 . S
C348 C351 1.403 . S
C349 C346 1.403 . S
C349 C350 1.524 . S
C349 C353 1.400 . S
C350 H335 0.960 . S
C350 H336 0.960 . S
C350 H337 0.960 . S
C350 C349 1.524 . S
C351 C348 1.403 . S
C351 C352 1.392 . S
C351 C355 1.495 . S
C352 C351 1.392 . S
C352 C353 1.385 . S
C352 C354 1.478 . S
C353 H347 0.930 . S
C353 C349 1.400 . S
C353 C352 1.385 . S
C354 C352 1.478 . S
C354 C356 1.381 . S
C354 C360 1.383 . S
C355 C351 1.495 . S
C355 H361 0.959 . S
C355 H362 0.961 . S
C355 H363 0.960 . S
C356 C354 1.381 . S
C356 C357 1.394 . S
C356 H364 0.930 . S
C357 C356 1.394 . S
C357 C358 1.383 . S
C357 H365 0.929 . S
C358 C357 1.383 . S
C358 C359 1.377 . S
C359 H343 0.930 . S
C359 C358 1.377 . S
C359 C360 1.379 . S
C360 H344 0.931 . S
C360 C354 1.383 . S
C360 C359 1.379 . S
H361 C355 0.959 . S
H362 C355 0.961 . S
H363 C355 0.960 . S
H364 C356 0.930 . S
H365 C357 0.929 . S
H366 C374 0.929 . S
H367 C376 0.930 . S
H368 C378 0.930 . S
H369 C381 0.929 . S
H370 C384 0.930 . S
H371 C386 0.960 . S
H372 C386 0.960 . S
H373 C386 0.960 . S
C374 H366 0.929 . S
C374 C375 1.377 . S
C374 C376 1.384 . S
C375 C374 1.377 . S
C375 C381 1.390 . S
C376 H367 0.930 . S
C376 C374 1.384 . S
C376 C377 1.372 . S
C377 C376 1.372 . S
C377 C378 1.400 . S
C377 C382 1.490 . S
C378 H368 0.930 . S
C378 C377 1.400 . S
C378 C381 1.386 . S
H379 C395 0.930 . S
H380 C396 0.931 . S
C381 H369 0.929 . S
C381 C375 1.390 . S
C381 C378 1.386 . S
C382 C377 1.490 . S
C382 C384 1.395 . S
C382 C385 1.403 . S
H383 C389 0.930 . S
C384 H370 0.930 . S
C384 C382 1.395 . S
C384 C387 1.403 . S
C385 C382 1.403 . S
C385 C386 1.524 . S
C385 C389 1.400 . S
C386 H371 0.960 . S
C386 H372 0.960 . S
C386 H373 0.960 . S
C386 C385 1.524 . S
C387 C384 1.403 . S
C387 C388 1.392 . S
C387 C391 1.495 . S
C388 C387 1.392 . S
C388 C389 1.385 . S
C388 C390 1.478 . S
C389 H383 0.930 . S
C389 C385 1.400 . S
C389 C388 1.385 . S
C390 C388 1.478 . S
C390 C392 1.381 . S
C390 C396 1.383 . S
C391 C387 1.495 . S
C391 H397 0.959 . S
C391 H398 0.961 . S
C391 H399 0.960 . S
C392 C390 1.381 . S
C392 C393 1.394 . S
C392 H400 0.930 . S
C393 C392 1.394 . S
C393 C394 1.383 . S
C393 H401 0.929 . S
C394 C393 1.383 . S
C394 C395 1.377 . S
C395 H379 0.930 . S
C395 C394 1.377 . S
C395 C396 1.379 . S
C396 H380 0.931 . S
C396 C390 1.383 . S
C396 C395 1.379 . S
H397 C391 0.959 . S
H398 C391 0.961 . S
H399 C391 0.960 . S
H400 C392 0.930 . S
H401 C393 0.929 . S
H402 C410 0.929 . S
H403 C412 0.930 . S
H404 C414 0.930 . S
H405 C417 0.929 . S
H406 C420 0.930 . S
H407 C422 0.960 . S
H408 C422 0.960 . S
H409 C422 0.960 . S
C410 H402 0.929 . S
C410 C411 1.377 . S
C410 C412 1.384 . S
C411 C410 1.377 . S
C411 C417 1.390 . S
C412 H403 0.930 . S
C412 C410 1.384 . S
C412 C413 1.372 . S
C413 C412 1.372 . S
C413 C414 1.400 . S
C413 C418 1.490 . S
C414 H404 0.930 . S
C414 C413 1.400 . S
C414 C417 1.386 . S
H415 C431 0.930 . S
H416 C432 0.931 . S
C417 H405 0.929 . S
C417 C411 1.390 . S
C417 C414 1.386 . S
C418 C413 1.490 . S
C418 C420 1.395 . S
C418 C421 1.403 . S
H419 C425 0.930 . S
C420 H406 0.930 . S
C420 C418 1.395 . S
C420 C423 1.403 . S
C421 C418 1.403 . S
C421 C422 1.524 . S
C421 C425 1.400 . S
C422 H407 0.960 . S
C422 H408 0.960 . S
C422 H409 0.960 . S
C422 C421 1.524 . S
C423 C420 1.403 . S
C423 C424 1.392 . S
C423 C427 1.495 . S
C424 C423 1.392 . S
C424 C425 1.385 . S
C424 C426 1.478 . S
C425 H419 0.930 . S
C425 C421 1.400 . S
C425 C424 1.385 . S
C426 C424 1.478 . S
C426 C428 1.381 . S
C426 C432 1.383 . S
C427 C423 1.495 . S
C427 H433 0.959 . S
C427 H434 0.961 . S
C427 H435 0.960 . S
C428 C426 1.381 . S
C428 C429 1.394 . S
C428 H436 0.930 . S
C429 C428 1.394 . S
C429 C430 1.383 . S
C429 H437 0.929 . S
C430 C429 1.383 . S
C430 C431 1.377 . S
C431 H415 0.930 . S
C431 C430 1.377 . S
C431 C432 1.379 . S
C432 H416 0.931 . S
C432 C426 1.383 . S
C432 C431 1.379 . S
H433 C427 0.959 . S
H434 C427 0.961 . S
H435 C427 0.960 . S
H436 C428 0.930 . S
H437 C429 0.929 . S
H438 C446 0.929 . S
H439 C448 0.930 . S
H440 C450 0.930 . S
H441 C453 0.929 . S
H442 C456 0.930 . S
H443 C458 0.960 . S
H444 C458 0.960 . S
H445 C458 0.960 . S
C446 H438 0.929 . S
C446 C447 1.377 . S
C446 C448 1.384 . S
C447 C446 1.377 . S
C447 C453 1.390 . S
C448 H439 0.930 . S
C448 C446 1.384 . S
C448 C449 1.372 . S
C449 C448 1.372 . S
C449 C450 1.400 . S
C449 C454 1.490 . S
C450 H440 0.930 . S
C450 C449 1.400 . S
C450 C453 1.386 . S
H451 C467 0.930 . S
H452 C468 0.931 . S
C453 H441 0.929 . S
C453 C447 1.390 . S
C453 C450 1.386 . S
C454 C449 1.490 . S
C454 C456 1.395 . S
C454 C457 1.403 . S
H455 C461 0.930 . S
C456 H442 0.930 . S
C456 C454 1.395 . S
C456 C459 1.403 . S
C457 C454 1.403 . S
C457 C458 1.524 . S
C457 C461 1.400 . S
C458 H443 0.960 . S
C458 H444 0.960 . S
C458 H445 0.960 . S
C458 C457 1.524 . S
C459 C456 1.403 . S
C459 C460 1.392 . S
C459 C463 1.495 . S
C460 C459 1.392 . S
C460 C461 1.385 . S
C460 C462 1.478 . S
C461 H455 0.930 . S
C461 C457 1.400 . S
C461 C460 1.385 . S
C462 C460 1.478 . S
C462 C464 1.381 . S
C462 C468 1.383 . S
C463 C459 1.495 . S
C463 H469 0.959 . S
C463 H470 0.961 . S
C463 H471 0.960 . S
C464 C462 1.381 . S
C464 C465 1.394 . S
C464 H472 0.930 . S
C465 C464 1.394 . S
C465 C466 1.383 . S
C465 H473 0.929 . S
C466 C465 1.383 . S
C466 C467 1.377 . S
C467 H451 0.930 . S
C467 C466 1.377 . S
C467 C468 1.379 . S
C468 H452 0.931 . S
C468 C462 1.383 . S
C468 C467 1.379 . S
H469 C463 0.959 . S
H470 C463 0.961 . S
H471 C463 0.960 . S
H472 C464 0.930 . S
H473 C465 0.929 . S
H474 C482 0.929 . S
H475 C484 0.930 . S
H476 C486 0.930 . S
H477 C489 0.929 . S
H478 C492 0.930 . S
H479 C494 0.960 . S
H480 C494 0.960 . S
H481 C494 0.960 . S
C482 H474 0.929 . S
C482 C483 1.377 . S
C482 C484 1.384 . S
C483 C482 1.377 . S
C483 C489 1.390 . S
C484 H475 0.930 . S
C484 C482 1.384 . S
C484 C485 1.372 . S
C485 C484 1.372 . S
C485 C486 1.400 . S
C485 C490 1.490 . S
C486 H476 0.930 . S
C486 C485 1.400 . S
C486 C489 1.386 . S
H487 C503 0.930 . S
H488 C504 0.931 . S
C489 H477 0.929 . S
C489 C483 1.390 . S
C489 C486 1.386 . S
C490 C485 1.490 . S
C490 C492 1.395 . S
C490 C493 1.403 . S
H491 C497 0.930 . S
C492 H478 0.930 . S
C492 C490 1.395 . S
C492 C495 1.403 . S
C493 C490 1.403 . S
C493 C494 1.524 . S
C493 C497 1.400 . S
C494 H479 0.960 . S
C494 H480 0.960 . S
C494 H481 0.960 . S
C494 C493 1.524 . S
C495 C492 1.403 . S
C495 C496 1.392 . S
C495 C499 1.495 . S
C496 C495 1.392 . S
C496 C497 1.385 . S
C496 C498 1.478 . S
C497 H491 0.930 . S
C497 C493 1.400 . S
C497 C496 1.385 . S
C498 C496 1.478 . S
C498 C500 1.381 . S
C498 C504 1.383 . S
C499 C495 1.495 . S
C499 H505 0.959 . S
C499 H506 0.961 . S
C499 H507 0.960 . S
C500 C498 1.381 . S
C500 C501 1.394 . S
C500 H508 0.930 . S
C501 C500 1.394 . S
C501 C502 1.383 . S
C501 H509 0.929 . S
C502 C501 1.383 . S
C502 C503 1.377 . S
C503 H487 0.930 . S
C503 C502 1.377 . S
C503 C504 1.379 . S
C504 H488 0.931 . S
C504 C498 1.383 . S
C504 C503 1.379 . S
H505 C499 0.959 . S
H506 C499 0.961 . S
H507 C499 0.960 . S
H508 C500 0.930 . S
H509 C501 0.929 . S
H510 C518 0.929 . S
H511 C520 0.930 . S
H512 C522 0.930 . S
H513 C525 0.929 . S
H514 C528 0.930 . S
H515 C530 0.960 . S
H516 C530 0.960 . S
H517 C530 0.960 . S
C518 H510 0.929 . S
C518 C519 1.377 . S
C518 C520 1.384 . S
C519 C518 1.377 . S
C519 C525 1.390 . S
C520 H511 0.930 . S
C520 C518 1.384 . S
C520 C521 1.372 . S
C521 C520 1.372 . S
C521 C522 1.400 . S
C521 C526 1.490 . S
C522 H512 0.930 . S
C522 C521 1.400 . S
C522 C525 1.386 . S
H523 C539 0.930 . S
H524 C540 0.931 . S
C525 H513 0.929 . S
C525 C519 1.390 . S
C525 C522 1.386 . S
C526 C521 1.490 . S
C526 C528 1.395 . S
C526 C529 1.403 . S
H527 C533 0.930 . S
C528 H514 0.930 . S
C528 C526 1.395 . S
C528 C531 1.403 . S
C529 C526 1.403 . S
C529 C530 1.524 . S
C529 C533 1.400 . S
C530 H515 0.960 . S
C530 H516 0.960 . S
C530 H517 0.960 . S
C530 C529 1.524 . S
C531 C528 1.403 . S
C531 C532 1.392 . S
C531 C535 1.495 . S
C532 C531 1.392 . S
C532 C533 1.385 . S
C532 C534 1.478 . S
C533 H527 0.930 . S
C533 C529 1.400 . S
C533 C532 1.385 . S
C534 C532 1.478 . S
C534 C536 1.381 . S
C534 C540 1.383 . S
C535 C531 1.495 . S
C535 H541 0.959 . S
C535 H542 0.961 . S
C535 H543 0.960 . S
C536 C534 1.381 . S
C536 C537 1.394 . S
C536 H544 0.930 . S
C537 C536 1.394 . S
C537 C538 1.383 . S
C537 H545 0.929 . S
C538 C537 1.383 . S
C538 C539 1.377 . S
C539 H523 0.930 . S
C539 C538 1.377 . S
C539 C540 1.379 . S
C540 H524 0.931 . S
C540 C534 1.383 . S
C540 C539 1.379 . S
H541 C535 0.959 . S
H542 C535 0.961 . S
H543 C535 0.960 . S
H544 C536 0.930 . S
H545 C537 0.929 . S
H546 C554 0.929 . S
H547 C556 0.930 . S
H548 C558 0.930 . S
H549 C561 0.929 . S
H550 C564 0.930 . S
H551 C566 0.960 . S
H552 C566 0.960 . S
H553 C566 0.960 . S
C554 H546 0.929 . S
C554 C555 1.377 . S
C554 C556 1.384 . S
C555 C554 1.377 . S
C555 C561 1.390 . S
C556 H547 0.930 . S
C556 C554 1.384 . S
C556 C557 1.372 . S
C557 C556 1.372 . S
C557 C558 1.400 . S
C557 C562 1.490 . S
C558 H548 0.930 . S
C558 C557 1.400 . S
C558 C561 1.386 . S
H559 C575 0.930 . S
H560 C576 0.931 . S
C561 H549 0.929 . S
C561 C555 1.390 . S
C561 C558 1.386 . S
C562 C557 1.490 . S
C562 C564 1.395 . S
C562 C565 1.403 . S
H563 C569 0.930 . S
C564 H550 0.930 . S
C564 C562 1.395 . S
C564 C567 1.403 . S
C565 C562 1.403 . S
C565 C566 1.524 . S
C565 C569 1.400 . S
C566 H551 0.960 . S
C566 H552 0.960 . S
C566 H553 0.960 . S
C566 C565 1.524 . S
C567 C564 1.403 . S
C567 C568 1.392 . S
C567 C571 1.495 . S
C568 C567 1.392 . S
C568 C569 1.385 . S
C568 C570 1.478 . S
C569 H563 0.930 . S
C569 C565 1.400 . S
C569 C568 1.385 . S
C570 C568 1.478 . S
C570 C572 1.381 . S
C570 C576 1.383 . S
C571 C567 1.495 . S
C571 H577 0.959 . S
C571 H578 0.961 . S
C571 H579 0.960 . S
C572 C570 1.381 . S
C572 C573 1.394 . S
C572 H580 0.930 . S
C573 C572 1.394 . S
C573 C574 1.383 . S
C573 H581 0.929 . S
C574 C573 1.383 . S
C574 C575 1.377 . S
C575 H559 0.930 . S
C575 C574 1.377 . S
C575 C576 1.379 . S
C576 H560 0.931 . S
C576 C570 1.383 . S
C576 C575 1.379 . S
H577 C571 0.959 . S
H578 C571 0.961 . S
H579 C571 0.960 . S
H580 C572 0.930 . S
H581 C573 0.929 . S
H582 C590 0.929 . S
H583 C592 0.930 . S
H584 C594 0.930 . S
H585 C597 0.929 . S
H586 C600 0.930 . S
H587 C602 0.960 . S
H588 C602 0.960 . S
H589 C602 0.960 . S
C590 H582 0.929 . S
C590 C591 1.377 . S
C590 C592 1.384 . S
C591 C590 1.377 . S
C591 C597 1.390 . S
C592 H583 0.930 . S
C592 C590 1.384 . S
C592 C593 1.372 . S
C593 C592 1.372 . S
C593 C594 1.400 . S
C593 C598 1.490 . S
C594 H584 0.930 . S
C594 C593 1.400 . S
C594 C597 1.386 . S
H595 C611 0.930 . S
H596 C612 0.931 . S
C597 H585 0.929 . S
C597 C591 1.390 . S
C597 C594 1.386 . S
C598 C593 1.490 . S
C598 C600 1.395 . S
C598 C601 1.403 . S
H599 C605 0.930 . S
C600 H586 0.930 . S
C600 C598 1.395 . S
C600 C603 1.403 . S
C601 C598 1.403 . S
C601 C602 1.524 . S
C601 C605 1.400 . S
C602 H587 0.960 . S
C602 H588 0.960 . S
C602 H589 0.960 . S
C602 C601 1.524 . S
C603 C600 1.403 . S
C603 C604 1.392 . S
C603 C607 1.495 . S
C604 C603 1.392 . S
C604 C605 1.385 . S
C604 C606 1.478 . S
C605 H599 0.930 . S
C605 C601 1.400 . S
C605 C604 1.385 . S
C606 C604 1.478 . S
C606 C608 1.381 . S
C606 C612 1.383 . S
C607 C603 1.495 . S
C607 H613 0.959 . S
C607 H614 0.961 . S
C607 H615 0.960 . S
C608 C606 1.381 . S
C608 C609 1.394 . S
C608 H616 0.930 . S
C609 C608 1.394 . S
C609 C610 1.383 . S
C609 H617 0.929 . S
C610 C609 1.383 . S
C610 C611 1.377 . S
C611 H595 0.930 . S
C611 C610 1.377 . S
C611 C612 1.379 . S
C612 H596 0.931 . S
C612 C606 1.383 . S
C612 C611 1.379 . S
H613 C607 0.959 . S
H614 C607 0.961 . S
H615 C607 0.960 . S
H616 C608 0.930 . S
H617 C609 0.929 . S
H618 C626 0.929 . S
H619 C628 0.930 . S
H620 C630 0.930 1_655 S
H621 C633 0.927 . S
H622 C636 0.930 . S
H623 C638 0.960 . S
H624 C638 0.960 . S
H625 C638 0.960 . S
C626 H618 0.929 . S
C626 C627 1.377 . S
C626 C628 1.384 . S
C627 C626 1.377 . S
C627 C633 1.390 . S
C628 H619 0.930 . S
C628 C626 1.384 . S
C628 C629 1.372 . S
C629 C628 1.372 . S
C629 C630 1.400 . S
C629 C634 1.490 . S
C630 H620 0.930 1_455 S
C630 C629 1.400 . S
C630 C633 1.386 . S
H631 C647 0.930 . S
H632 C648 0.931 . S
C633 H621 0.927 . S
C633 C627 1.390 . S
C633 C630 1.386 . S
C634 C629 1.490 . S
C634 C636 1.395 1_455 S
C634 C637 1.403 . S
H635 C641 0.930 1_556 S
C636 H622 0.930 . S
C636 C634 1.395 1_655 S
C636 C639 1.403 . S
C637 C634 1.403 . S
C637 C638 1.524 . S
C637 C641 1.400 . S
C638 H623 0.960 . S
C638 H624 0.960 . S
C638 H625 0.960 . S
C638 C637 1.524 . S
C639 C636 1.403 . S
C639 C640 1.392 1_554 S
C639 C643 1.495 . S
C640 C639 1.392 1_556 S
C640 C641 1.385 1_656 S
C640 C642 1.478 . S
C641 H635 0.930 1_554 S
C641 C637 1.400 . S
C641 C640 1.385 1_454 S
C642 C640 1.478 . S
C642 C644 1.381 1_655 S
C642 C648 1.383 . S
C643 C639 1.495 . S
C643 H649 0.959 . S
C643 H650 0.961 1_554 S
C643 H651 0.960 1_554 S
C644 C642 1.381 1_455 S
C644 C645 1.394 . S
C644 H652 0.930 . S
C645 C644 1.394 . S
C645 C646 1.383 1_455 S
C645 H653 0.929 . S
C646 C645 1.383 1_655 S
C646 C647 1.377 . S
C647 H631 0.930 . S
C647 C646 1.377 . S
C647 C648 1.379 . S
C648 H632 0.931 . S
C648 C642 1.383 . S
C648 C647 1.379 . S
H649 C643 0.959 . S
H650 C643 0.961 1_556 S
H651 C643 0.960 1_556 S
H652 C644 0.930 . S
H653 C645 0.929 . S
H654 C662 0.929 . S
H655 C664 0.930 . S
H656 C666 0.930 . S
H657 C669 0.929 . S
H658 C672 0.930 . S
H659 C674 0.960 . S
H660 C674 0.960 . S
H661 C674 0.960 . S
C662 H654 0.929 . S
C662 C663 1.377 . S
C662 C664 1.384 . S
C663 C662 1.377 . S
C663 C669 1.390 . S
C664 H655 0.930 . S
C664 C662 1.384 . S
C664 C665 1.372 . S
C665 C664 1.372 . S
C665 C666 1.400 . S
C665 C670 1.490 . S
C666 H656 0.930 . S
C666 C665 1.400 . S
C666 C669 1.386 . S
H667 C683 0.930 . S
H668 C684 0.931 . S
C669 H657 0.929 . S
C669 C663 1.390 . S
C669 C666 1.386 . S
C670 C665 1.490 . S
C670 C672 1.395 . S
C670 C673 1.403 . S
H671 C677 0.930 1_565 S
C672 H658 0.930 . S
C672 C670 1.395 . S
C672 C675 1.403 . S
C673 C670 1.403 . S
C673 C674 1.524 1_545 S
C673 C677 1.400 . S
C674 H659 0.960 . S
C674 H660 0.960 . S
C674 H661 0.960 . S
C674 C673 1.524 1_565 S
C675 C672 1.403 . S
C675 C676 1.392 . S
C675 C679 1.495 . S
C676 C675 1.392 . S
C676 C677 1.385 . S
C676 C678 1.478 . S
C677 H671 0.930 1_545 S
C677 C673 1.400 . S
C677 C676 1.385 . S
C678 C676 1.478 . S
C678 C680 1.381 . S
C678 C684 1.383 . S
C679 C675 1.495 . S
C679 H685 0.959 . S
C679 H686 0.961 . S
C679 H687 0.960 . S
C680 C678 1.381 . S
C680 C681 1.394 . S
C680 H688 0.930 . S
C681 C680 1.394 . S
C681 C682 1.383 . S
C681 H689 0.929 . S
C682 C681 1.383 . S
C682 C683 1.377 . S
C683 H667 0.930 . S
C683 C682 1.377 . S
C683 C684 1.379 . S
C684 H668 0.931 . S
C684 C678 1.383 . S
C684 C683 1.379 . S
H685 C679 0.959 . S
H686 C679 0.961 . S
H687 C679 0.960 . S
H688 C680 0.930 . S
H689 C681 0.929 . S
H690 C698 0.929 . S
H691 C700 0.930 . S
H692 C702 0.930 . S
H693 C705 0.929 . S
H694 C708 0.930 . S
H695 C710 0.960 . S
H696 C710 0.960 . S
H697 C710 0.960 . S
C698 H690 0.929 . S
C698 C699 1.377 . S
C698 C700 1.384 . S
C699 C698 1.377 . S
C699 C705 1.390 . S
C700 H691 0.930 . S
C700 C698 1.384 . S
C700 C701 1.372 . S
C701 C700 1.372 . S
C701 C702 1.400 . S
C701 C706 1.490 . S
C702 H692 0.930 . S
C702 C701 1.400 . S
C702 C705 1.386 . S
H703 C719 0.930 . S
H704 C720 0.931 . S
C705 H693 0.929 . S
C705 C699 1.390 . S
C705 C702 1.386 . S
C706 C701 1.490 . S
C706 C708 1.395 . S
C706 C709 1.403 . S
H707 C713 0.930 . S
C708 H694 0.930 . S
C708 C706 1.395 . S
C708 C711 1.403 . S
C709 C706 1.403 . S
C709 C710 1.524 . S
C709 C713 1.400 . S
C710 H695 0.960 . S
C710 H696 0.960 . S
C710 H697 0.960 . S
C710 C709 1.524 . S
C711 C708 1.403 . S
C711 C712 1.392 . S
C711 C715 1.495 . S
C712 C711 1.392 . S
C712 C713 1.385 . S
C712 C714 1.478 . S
C713 H707 0.930 . S
C713 C709 1.400 . S
C713 C712 1.385 . S
C714 C712 1.478 . S
C714 C716 1.381 . S
C714 C720 1.383 . S
C715 C711 1.495 . S
C715 H721 0.959 . S
C715 H722 0.961 . S
C715 H723 0.960 . S
C716 C714 1.381 . S
C716 C717 1.394 . S
C716 H724 0.930 . S
C717 C716 1.394 . S
C717 C718 1.383 . S
C717 H725 0.929 . S
C718 C717 1.383 . S
C718 C719 1.377 . S
C719 H703 0.930 . S
C719 C718 1.377 . S
C719 C720 1.379 . S
C720 H704 0.931 . S
C720 C714 1.383 . S
C720 C719 1.379 . S
H721 C715 0.959 . S
H722 C715 0.961 . S
H723 C715 0.960 . S
H724 C716 0.930 . S
H725 C717 0.929 . S
H726 C734 0.929 . S
H727 C736 0.930 . S
H728 C738 0.930 . S
H729 C741 0.929 . S
H730 C744 0.930 . S
H731 C746 0.960 . S
H732 C746 0.960 . S
H733 C746 0.960 . S
C734 H726 0.929 . S
C734 C735 1.377 1_565 S
C734 C736 1.384 . S
C735 C734 1.377 1_545 S
C735 C741 1.390 . S
C736 H727 0.930 . S
C736 C734 1.384 . S
C736 C737 1.372 1_565 S
C737 C736 1.372 1_545 S
C737 C738 1.400 . S
C737 C742 1.490 . S
C738 H728 0.930 . S
C738 C737 1.400 . S
C738 C741 1.386 . S
H739 C755 0.930 . S
H740 C756 0.931 . S
C741 H729 0.929 . S
C741 C735 1.390 . S
C741 C738 1.386 . S
C742 C737 1.490 . S
C742 C744 1.395 1_545 S
C742 C745 1.403 . S
H743 C749 0.930 . S
C744 H730 0.930 . S
C744 C742 1.395 1_565 S
C744 C747 1.403 . S
C745 C742 1.403 . S
C745 C746 1.524 . S
C745 C749 1.400 . S
C746 H731 0.960 . S
C746 H732 0.960 . S
C746 H733 0.960 . S
C746 C745 1.524 . S
C747 C744 1.403 . S
C747 C748 1.392 1_565 S
C747 C751 1.495 . S
C748 C747 1.392 1_545 S
C748 C749 1.385 . S
C748 C750 1.478 . S
C749 H743 0.930 . S
C749 C745 1.400 . S
C749 C748 1.385 . S
C750 C748 1.478 . S
C750 C752 1.381 1_545 S
C750 C756 1.383 . S
C751 C747 1.495 . S
C751 H757 0.959 . S
C751 H758 0.961 . S
C751 H759 0.960 . S
C752 C750 1.381 1_565 S
C752 C753 1.394 . S
C752 H760 0.930 . S
C753 C752 1.394 . S
C753 C754 1.383 1_565 S
C753 H761 0.929 . S
C754 C753 1.383 1_545 S
C754 C755 1.377 . S
C755 H739 0.930 . S
C755 C754 1.377 . S
C755 C756 1.379 . S
C756 H740 0.931 . S
C756 C750 1.383 . S
C756 C755 1.379 . S
H757 C751 0.959 . S
H758 C751 0.961 . S
H759 C751 0.960 . S
H760 C752 0.930 . S
H761 C753 0.929 . S
H762 C770 0.929 . S
H763 C772 0.930 . S
H764 C774 0.930 . S
H765 C777 0.929 . S
H766 C780 0.930 . S
H767 C782 0.960 . S
H768 C782 0.960 . S
H769 C782 0.960 . S
C770 H762 0.929 . S
C770 C771 1.377 . S
C770 C772 1.384 . S
C771 C770 1.377 . S
C771 C777 1.390 . S
C772 H763 0.930 . S
C772 C770 1.384 . S
C772 C773 1.372 . S
C773 C772 1.372 . S
C773 C774 1.400 . S
C773 C778 1.490 . S
C774 H764 0.930 . S
C774 C773 1.400 . S
C774 C777 1.386 . S
H775 C791 0.930 . S
H776 C792 0.931 . S
C777 H765 0.929 . S
C777 C771 1.390 . S
C777 C774 1.386 . S
C778 C773 1.490 . S
C778 C780 1.395 . S
C778 C781 1.403 . S
H779 C785 0.930 . S
C780 H766 0.930 . S
C780 C778 1.395 . S
C780 C783 1.403 . S
C781 C778 1.403 . S
C781 C782 1.524 . S
C781 C785 1.400 . S
C782 H767 0.960 . S
C782 H768 0.960 . S
C782 H769 0.960 . S
C782 C781 1.524 . S
C783 C780 1.403 . S
C783 C784 1.374 1_556 S
C783 C787 1.495 1_556 S
C784 C783 1.374 1_554 S
C784 C785 1.367 1_554 S
C784 C786 1.515 . S
C785 H779 0.930 . S
C785 C781 1.400 . S
C785 C784 1.367 1_556 S
C786 C784 1.515 . S
C786 C788 1.381 . S
C786 C792 1.383 . S
C787 C783 1.495 1_554 S
C787 H793 0.959 1_554 S
C787 H794 0.961 . S
C787 H795 0.960 . S
C788 C786 1.381 . S
C788 C789 1.394 . S
C788 H796 0.930 . S
C789 C788 1.394 . S
C789 C790 1.383 . S
C789 H797 0.929 . S
C790 C789 1.383 . S
C790 C791 1.377 . S
C791 H775 0.930 . S
C791 C790 1.377 . S
C791 C792 1.379 . S
C792 H776 0.931 . S
C792 C786 1.383 . S
C792 C791 1.379 . S
H793 C787 0.959 1_556 S
H794 C787 0.961 . S
H795 C787 0.960 . S
H796 C788 0.930 . S
H797 C789 0.929 . S
H798 C806 0.929 . S
H799 C808 0.930 . S
H800 C810 0.930 . S
H801 C813 0.929 . S
H802 C816 0.930 . S
H803 C818 0.960 . S
H804 C818 0.960 . S
H805 C818 0.960 . S
C806 H798 0.929 . S
C806 C807 1.377 . S
C806 C808 1.384 . S
C807 C806 1.377 . S
C807 C813 1.390 1_455 S
C808 H799 0.930 . S
C808 C806 1.384 . S
C808 C809 1.372 . S
C809 C808 1.372 . S
C809 C810 1.400 1_455 S
C809 C814 1.490 . S
C810 H800 0.930 . S
C810 C809 1.400 1_655 S
C810 C813 1.386 . S
H811 C827 0.930 . S
H812 C828 0.931 . S
C813 H801 0.929 . S
C813 C807 1.390 1_655 S
C813 C810 1.386 . S
C814 C809 1.490 . S
C814 C816 1.395 . S
C814 C817 1.403 . S
H815 C821 0.930 . S
C816 H802 0.930 . S
C816 C814 1.395 . S
C816 C819 1.403 . S
C817 C814 1.403 . S
C817 C818 1.524 . S
C817 C821 1.400 . S
C818 H803 0.960 . S
C818 H804 0.960 . S
C818 H805 0.960 . S
C818 C817 1.524 . S
C819 C816 1.403 . S
C819 C820 1.392 . S
C819 C823 1.495 . S
C820 C819 1.392 . S
C820 C821 1.385 . S
C820 C822 1.478 . S
C821 H815 0.930 . S
C821 C817 1.400 . S
C821 C820 1.385 . S
C822 C820 1.478 . S
C822 C824 1.381 . S
C822 C828 1.383 1_455 S
C823 C819 1.495 . S
C823 H829 0.959 . S
C823 H830 0.961 1_455 S
C823 H831 0.960 . S
C824 C822 1.381 . S
C824 C825 1.394 . S
C824 H832 0.930 . S
C825 C824 1.394 . S
C825 C826 1.383 . S
C825 H833 0.929 . S
C826 C825 1.383 . S
C826 C827 1.377 1_455 S
C827 H811 0.930 . S
C827 C826 1.377 1_655 S
C827 C828 1.379 . S
C828 H812 0.931 . S
C828 C822 1.383 1_655 S
C828 C827 1.379 . S
H829 C823 0.959 . S
H830 C823 0.961 1_655 S
H831 C823 0.960 . S
H832 C824 0.930 . S
H833 C825 0.929 . S
C195 C10 3.183 . S
C214 C180 2.853 . S
C231 C59 3.271 . S
C250 C158 2.934 . S
C267 C90 2.816 . S
C286 C172 2.760 . S
C303 C19 2.898 . S
C322 C183 2.837 . S
C358 C161 2.766 . S
C339 C50 2.810 . S
C394 C169 2.937 . S
C375 C99 3.268 . S
C411 C46 0.494 . S
C430 C136 0.604 . S
C447 C95 0.394 . S
C466 C147 0.752 . S
C483 C6 0.485 . S
C502 C125 0.649 . S
C538 C139 0.221 . S
C519 C55 0.214 . S
C574 C150 0.285 . S
C555 C86 0.175 . S
C591 C15 0.218 . S
C610 C128 0.236 . S
C646 C149 1.212 1_655 S
C627 C9 1.233 . S
C663 C49 1.248 . S
C682 C127 1.208 . S
C699 C89 1.249 . S
C718 C138 1.187 . S
C754 C171 1.626 . S
C735 C58 1.636 . S
C790 C182 1.657 . S
C771 C98 1.668 . S
C807 C18 1.644 . S
C826 C160 1.628 . S
