# Generated by pormake.
# Topology pyr, (3,6)-cn, num edge types: 1
# Building blocks:
#     Node 0, Type 0, BuildingBlock: OLANEW_clean_sbu_2, # of connection points: 3
#     Node 1, Type 0, BuildingBlock: OLANEW_clean_sbu_2, # of connection points: 3
#     Node 2, Type 0, BuildingBlock: OLANEW_clean_sbu_2, # of connection points: 3
#     Node 3, Type 0, BuildingBlock: OLANEW_clean_sbu_2, # of connection points: 3
#     Node 4, Type 0, BuildingBlock: OLANEW_clean_sbu_2, # of connection points: 3
#     Node 5, Type 0, BuildingBlock: OLANEW_clean_sbu_2, # of connection points: 3
#     Node 6, Type 0, BuildingBlock: OLANEW_clean_sbu_2, # of connection points: 3
#     Node 7, Type 0, BuildingBlock: OLANEW_clean_sbu_2, # of connection points: 3
#     Node 8, Type 1, BuildingBlock: PAMTOO_clean_sbu_0, # of connection points: 6
#     Node 9, Type 1, BuildingBlock: PAMTOO_clean_sbu_0, # of connection points: 6
#     Node 10, Type 1, BuildingBlock: PAMTOO_clean_sbu_0, # of connection points: 6
#     Node 11, Type 1, BuildingBlock: PAMTOO_clean_sbu_0, # of connection points: 6
#     Edge 12, Type (0, 1), BuildingBlock: EYOCIG_clean_linker_4, # of connection points: 2
#     Edge 13, Type (0, 1), BuildingBlock: EYOCIG_clean_linker_4, # of connection points: 2
#     Edge 14, Type (0, 1), BuildingBlock: EYOCIG_clean_linker_4, # of connection points: 2
#     Edge 15, Type (0, 1), BuildingBlock: EYOCIG_clean_linker_4, # of connection points: 2
#     Edge 16, Type (0, 1), BuildingBlock: EYOCIG_clean_linker_4, # of connection points: 2
#     Edge 17, Type (0, 1), BuildingBlock: EYOCIG_clean_linker_4, # of connection points: 2
#     Edge 18, Type (0, 1), BuildingBlock: EYOCIG_clean_linker_4, # of connection points: 2
#     Edge 19, Type (0, 1), BuildingBlock: EYOCIG_clean_linker_4, # of connection points: 2
#     Edge 20, Type (0, 1), BuildingBlock: EYOCIG_clean_linker_4, # of connection points: 2
#     Edge 21, Type (0, 1), BuildingBlock: EYOCIG_clean_linker_4, # of connection points: 2
#     Edge 22, Type (0, 1), BuildingBlock: EYOCIG_clean_linker_4, # of connection points: 2
#     Edge 23, Type (0, 1), BuildingBlock: EYOCIG_clean_linker_4, # of connection points: 2
#     Edge 24, Type (0, 1), BuildingBlock: EYOCIG_clean_linker_4, # of connection points: 2
#     Edge 25, Type (0, 1), BuildingBlock: EYOCIG_clean_linker_4, # of connection points: 2
#     Edge 26, Type (0, 1), BuildingBlock: EYOCIG_clean_linker_4, # of connection points: 2
#     Edge 27, Type (0, 1), BuildingBlock: EYOCIG_clean_linker_4, # of connection points: 2
#     Edge 28, Type (0, 1), BuildingBlock: EYOCIG_clean_linker_4, # of connection points: 2
#     Edge 29, Type (0, 1), BuildingBlock: EYOCIG_clean_linker_4, # of connection points: 2
#     Edge 30, Type (0, 1), BuildingBlock: EYOCIG_clean_linker_4, # of connection points: 2
#     Edge 31, Type (0, 1), BuildingBlock: EYOCIG_clean_linker_4, # of connection points: 2
#     Edge 32, Type (0, 1), BuildingBlock: EYOCIG_clean_linker_4, # of connection points: 2
#     Edge 33, Type (0, 1), BuildingBlock: EYOCIG_clean_linker_4, # of connection points: 2
#     Edge 34, Type (0, 1), BuildingBlock: EYOCIG_clean_linker_4, # of connection points: 2
#     Edge 35, Type (0, 1), BuildingBlock: EYOCIG_clean_linker_4, # of connection points: 2
# Relax obj value: 0.167
# Max RMSD: 0.222
# Mean RMSD: 0.129
data_MOF--net-pyr--node1-OLANEW_clean_sbu_2--node2-PAMTOO_clean_sbu_0--edge1-EYOCIG_clean_linker_4
_symmetry_space_group_name_H-M    P1
_symmetry_Int_Tables_number       1
_symmetry_cell_setting            triclinic
loop_
_symmetry_equiv_pos_as_xyz
'x, y, z'
_cell_length_a     32.156031
_cell_length_b     34.708096
_cell_length_c     33.283828
_cell_angle_alpha  93.243079
_cell_angle_beta   90.138665
_cell_angle_gamma 105.67098
loop_
_atom_site_label
_atom_site_type_symbol
_atom_site_fract_x
_atom_site_fract_y
_atom_site_fract_z
_atom_type_partial_charge
O0 O 0.41462 0.28617 0.22683 0.0
Cd1 Cd 0.37348 0.32585 0.26137 0.0
O2 O 0.35125 0.24544 0.23653 0.0
Cd3 Cd 0.30853 0.18581 0.23775 0.0
O4 O 0.28819 0.19938 0.29689 0.0
C5 C 0.31487 0.20746 0.32627 0.0
O6 O 0.3543 0.20411 0.32177 0.0
C7 C 0.38958 0.25114 0.22463 0.0
C8 C 0.31795 0.35195 0.21334 0.0
O9 O 0.35703 0.37289 0.2194 0.0
O10 O 0.30541 0.3175 0.22807 0.0
O11 O 0.14036 0.7757 0.80564 0.0
Cd12 Cd 0.10709 0.72918 0.75113 0.0
O13 O 0.08997 0.80016 0.83336 0.0
Cd14 Cd 0.04161 0.76346 0.79123 0.0
O15 O 0.03274 0.7988 0.74261 0.0
C16 C 0.02871 0.83284 0.75468 0.0
O17 O 0.02425 0.841 0.79314 0.0
C18 C 0.12898 0.79911 0.83109 0.0
C19 C 0.17938 0.70556 0.72712 0.0
O20 O 0.1775 0.74162 0.72499 0.0
O21 O 0.14593 0.67918 0.73818 0.0
O22 O 0.72392 0.4399 0.89604 0.0
Cd23 Cd 0.65255 0.41536 0.85906 0.0
O24 O 0.72267 0.38429 0.92683 0.0
Cd25 Cd 0.66297 0.339 0.90767 0.0
O26 O 0.61419 0.28523 0.92604 0.0
C27 C 0.6215 0.27114 0.959 0.0
O28 O 0.65736 0.28813 0.97942 0.0
C29 C 0.74078 0.42068 0.92017 0.0
C30 C 0.62899 0.4521 0.79179 0.0
O31 O 0.63147 0.46884 0.8273 0.0
O32 O 0.63938 0.41903 0.78712 0.0
O33 O 0.93024 0.76384 0.40504 0.0
Cd34 Cd 0.90682 0.69596 0.36494 0.0
O35 O 0.9054 0.74233 0.46405 0.0
Cd36 Cd 0.87792 0.67954 0.44393 0.0
O37 O 0.81204 0.64204 0.45037 0.0
C38 C 0.79398 0.65722 0.47864 0.0
O39 O 0.81634 0.6893 0.49954 0.0
C40 C 0.92355 0.77087 0.44238 0.0
C41 C 0.93555 0.66086 0.29357 0.0
O42 O 0.92595 0.69436 0.29308 0.0
O43 O 0.93439 0.64498 0.32748 0.0
O44 O 0.63663 0.77072 0.84803 0.0
Cd45 Cd 0.61304 0.73907 0.90993 0.0
O46 O 0.64191 0.81909 0.89337 0.0
Cd47 Cd 0.66335 0.87807 0.92087 0.0
O48 O 0.60742 0.87756 0.9557 0.0
C49 C 0.57192 0.87508 0.93782 0.0
O50 O 0.56953 0.87234 0.89836 0.0
C51 C 0.65058 0.80745 0.85857 0.0
C52 C 0.68442 0.71334 0.92674 0.0
O53 O 0.65247 0.69088 0.9062 0.0
O54 O 0.68158 0.74704 0.94253 0.0
O55 O 0.87244 0.24467 0.3639 0.0
Cd56 Cd 0.94653 0.26704 0.38996 0.0
O57 O 0.87018 0.30355 0.34375 0.0
Cd58 Cd 0.9207 0.34052 0.38366 0.0
O59 O 0.87423 0.36089 0.42185 0.0
C60 C 0.84535 0.37172 0.4028 0.0
O61 O 0.84813 0.3746 0.36372 0.0
C62 C 0.85361 0.26616 0.34516 0.0
C63 C 0.95903 0.21714 0.44885 0.0
O64 O 0.93331 0.20407 0.41905 0.0
O65 O 0.98 0.25407 0.45153 0.0
O66 O 0.42432 0.78403 0.25214 0.0
Cd67 Cd 0.40451 0.71429 0.28187 0.0
O68 O 0.36052 0.78218 0.22525 0.0
Cd69 Cd 0.32364 0.72292 0.24259 0.0
O70 O 0.27626 0.67169 0.21294 0.0
C71 C 0.25912 0.68247 0.18264 0.0
O72 O 0.26937 0.72046 0.17488 0.0
C73 C 0.40025 0.80004 0.2315 0.0
C74 C 0.43183 0.67695 0.34864 0.0
O75 O 0.45753 0.68984 0.31999 0.0
O76 O 0.39466 0.68386 0.34787 0.0
O77 O 0.15648 0.44581 0.80444 0.0
Cd78 Cd 0.18489 0.41463 0.74528 0.0
O79 O 0.11554 0.3898 0.82798 0.0
Cd80 Cd 0.13187 0.34768 0.78385 0.0
O81 O 0.11743 0.29365 0.74374 0.0
C82 C 0.08036 0.26934 0.7469 0.0
O83 O 0.05344 0.27723 0.77366 0.0
C84 C 0.12936 0.42779 0.82974 0.0
C85 C 0.2612 0.44919 0.70348 0.0
O86 O 0.22795 0.46253 0.70022 0.0
O87 O 0.25994 0.42226 0.72855 0.0
Dy88 Dy 0.03781 0.03489 0.56866 0.0
Dy89 Dy 0.94993 1.00592 0.62585 0.0
C90 C 0.01674 0.0926 0.64276 0.0
O91 O 0.05623 0.99409 0.60936 0.0
O92 O 0.00121 0.986 0.65554 0.0
O93 O 0.09984 0.07768 0.56382 0.0
O94 O 0.07413 0.03446 0.51419 0.0
O95 O 0.94122 0.95929 0.57388 0.0
O96 O 0.00881 0.9718 0.54537 0.0
O97 O 0.93769 0.05329 0.58946 0.0
O98 O 0.98282 0.04769 0.53753 0.0
O99 O 0.88638 0.96638 0.63491 0.0
O100 O 0.9176 1.01131 0.68146 0.0
C101 C 0.03738 0.98023 0.64228 0.0
O102 O 0.04309 0.08441 0.6158 0.0
O103 O 0.97931 0.0682 0.65043 0.0
C104 C 0.12022 0.09702 0.49781 0.0
C105 C 0.17122 0.15495 0.4506 0.0
C106 C 0.15172 0.16696 0.48476 0.0
C107 C 0.12635 0.13805 0.50856 0.0
C108 C 0.13563 0.08555 0.46094 0.0
C109 C 0.1612 0.11442 0.43741 0.0
C110 C 0.10452 0.06599 0.52663 0.0
C111 C 0.96911 0.94942 0.54903 0.0
C112 C 0.95437 0.06344 0.55463 0.0
C113 C 0.87062 0.95262 0.70363 0.0
C114 C 0.81792 0.90184 0.75555 0.0
C115 C 0.83568 0.88532 0.72265 0.0
C116 C 0.86221 0.91087 0.69646 0.0
C117 C 0.85849 0.9682 0.74016 0.0
C118 C 0.83223 0.9428 0.76616 0.0
C119 C 0.88517 0.98061 0.67191 0.0
H120 H 0.1591 0.19835 0.49487 0.0
H121 H 0.11429 0.14777 0.53661 0.0
H122 H 0.13086 0.05413 0.45194 0.0
H123 H 0.17591 0.10482 0.41075 0.0
H124 H 0.82553 0.85337 0.71491 0.0
H125 H 0.87265 0.89819 0.66908 0.0
H126 H 0.86562 1.00029 0.74671 0.0
H127 H 0.81932 0.95567 0.7921 0.0
Dy128 Dy 0.43404 0.03075 0.06761 0.0
Dy129 Dy 0.52168 0.06371 0.12841 0.0
C130 C 0.45816 0.97547 0.1383 0.0
O131 O 0.41903 0.07745 0.1082 0.0
O132 O 0.46842 0.08089 0.15945 0.0
O133 O 0.37053 0.98961 0.05732 0.0
O134 O 0.40013 0.02985 1.01158 0.0
O135 O 0.53191 0.1026 0.07585 0.0
O136 O 0.46456 0.09181 0.04643 0.0
O137 O 0.5349 0.01493 0.08893 0.0
O138 O 0.48853 0.0162 0.03647 0.0
O139 O 0.58135 0.11067 0.13687 0.0
O140 O 0.56094 0.06715 0.182 0.0
C141 C 0.436 0.09082 0.14365 0.0
O142 O 0.43123 0.98203 0.11113 0.0
O143 O 0.49508 1.0016 0.14856 0.0
C144 C 0.35159 0.96883 0.98831 0.0
C145 C 0.30089 0.91239 0.93246 0.0
C146 C 0.31794 0.89941 0.96636 0.0
C147 C 0.34326 0.92766 0.99447 0.0
C148 C 0.33875 0.9809 0.95186 0.0
C149 C 0.31351 0.95281 0.92403 0.0
C150 C 0.36791 1.00011 1.02058 0.0
C151 C 0.50516 0.11227 0.05108 0.0
C152 C 0.51797 1.0026 0.05312 0.0
C153 C 0.60492 0.13172 0.20482 0.0
C154 C 0.66148 0.18793 0.25728 0.0
C155 C 0.64335 0.20106 0.22408 0.0
C156 C 0.61513 0.17291 0.19766 0.0
C157 C 0.61859 0.12009 0.24113 0.0
C158 C 0.64676 0.148 0.26714 0.0
C159 C 0.58874 0.10007 0.17252 0.0
H160 H 0.30862 0.868 0.97285 0.0
H161 H 0.35358 0.91753 1.02203 0.0
H162 H 0.3453 1.01243 0.94631 0.0
H163 H 0.30071 0.96312 0.89776 0.0
H164 H 0.65421 0.23208 0.21639 0.0
H165 H 0.6045 0.18294 0.17018 0.0
H166 H 0.61098 0.08873 0.24756 0.0
H167 H 0.66033 0.13755 0.29289 0.0
Dy168 Dy 0.52525 0.50996 0.54221 0.0
Dy169 Dy 0.50834 0.59178 0.5947 0.0
C170 C 0.55025 0.53114 0.63834 0.0
O171 O 0.457 0.48628 0.56383 0.0
O172 O 0.45264 0.54023 0.60673 0.0
O173 O 0.55932 0.4653 0.54875 0.0
O174 O 0.53138 0.46941 0.49074 0.0
O175 O 0.49621 0.59829 0.52953 0.0
O176 O 0.49291 0.53739 0.49568 0.0
O177 O 0.57696 0.61434 0.57668 0.0
O178 O 0.58039 0.56224 0.53116 0.0
O179 O 0.48009 0.6408 0.58977 0.0
O180 O 0.50429 0.63058 0.6476 0.0
C181 C 0.43715 0.50355 0.59137 0.0
O182 O 0.53929 0.50526 0.60736 0.0
O183 O 0.54575 0.56765 0.63892 0.0
C184 C 0.59672 0.44663 0.49252 0.0
C185 C 0.66715 0.4193 0.46318 0.0
C186 C 0.66925 0.43818 0.50166 0.0
C187 C 0.63459 0.45179 0.51619 0.0
C188 C 0.59577 0.42942 0.45305 0.0
C189 C 0.63072 0.41585 0.43846 0.0
C190 C 0.55648 0.45316 0.51094 0.0
C191 C 0.48829 0.57409 0.49704 0.0
C192 C 0.5965 0.59786 0.5487 0.0
C193 C 0.44269 0.65694 0.64682 0.0
C194 C 0.36996 0.67613 0.6805 0.0
C195 C 0.36851 0.66099 0.64057 0.0
C196 C 0.4044 0.65129 0.62384 0.0
C197 C 0.44388 0.6721 0.68703 0.0
C198 C 0.4077 0.68169 0.70382 0.0
C199 C 0.48233 0.6504 0.62821 0.0
H200 H 0.69735 0.44152 0.52098 0.0
H201 H 0.63695 0.4649 0.54669 0.0
H202 H 0.56728 0.42496 0.43406 0.0
H203 H 0.62877 0.4018 0.40835 0.0
H204 H 0.33947 0.65653 0.62225 0.0
H205 H 0.40219 0.63984 0.59274 0.0
H206 H 0.47299 0.677 0.70528 0.0
H207 H 0.40921 0.69332 0.73486 0.0
Dy208 Dy 0.00281 0.58085 1.02631 0.0
Dy209 Dy 0.01684 0.50144 0.06991 0.0
C210 C 0.98398 0.5676 0.1224 0.0
O211 O 0.07255 0.60185 0.04328 0.0
O212 O 0.07456 0.55214 0.0858 0.0
O213 O 0.98176 0.63439 0.03521 0.0
O214 O -0.00156 0.61609 0.97559 0.0
O215 O 0.02859 0.49285 1.00437 0.0
O216 O 0.04 0.55551 0.98024 0.0
O217 O 0.94791 0.47807 0.04818 0.0
O218 O 0.94358 0.53125 1.01088 0.0
O219 O 0.04778 0.45444 0.05913 0.0
O220 O 0.02082 0.46189 0.11754 0.0
C221 C 0.09218 0.58617 0.06986 0.0
O222 O 0.99293 0.59131 0.0924 0.0
O223 O 0.98636 0.53029 0.11951 0.0
C224 C 0.94106 0.6466 0.98046 0.0
C225 C 0.86776 0.66474 0.94998 0.0
C226 C 0.86772 0.65157 0.98889 0.0
C227 C 0.90402 0.64233 1.00407 0.0
C228 C 0.94053 0.65899 0.94106 0.0
C229 C 0.90398 0.66808 0.92582 0.0
C230 C 0.98096 0.63999 0.9969 0.0
C231 C 0.04209 0.51832 0.97666 0.0
C232 C 0.92743 0.49509 1.02315 0.0
C233 C 0.08559 0.44 0.11475 0.0
C234 C 0.15796 0.42032 0.14623 0.0
C235 C 0.15906 0.43409 0.10754 0.0
C236 C 0.12326 0.44399 0.09187 0.0
C237 C 0.08552 0.42779 0.15429 0.0
C238 C 0.12153 0.41796 0.16998 0.0
C239 C 0.04519 0.44428 0.09621 0.0
H240 H 0.83975 0.64893 1.00776 0.0
H241 H 0.90323 0.63256 0.03446 0.0
H242 H 0.96868 0.66232 0.92238 0.0
H243 H 0.90429 0.67828 0.89562 0.0
H244 H 0.18713 0.43606 0.08896 0.0
H245 H 0.12471 0.45338 0.0613 0.0
H246 H 0.05704 0.42446 0.17251 0.0
H247 H 0.12038 0.40737 0.20007 0.0
C248 C 0.27407 0.21329 0.39208 0.0
C249 C 0.29845 0.21232 0.36521 0.0
C250 C 0.23791 0.20142 0.41625 0.0
C251 C 0.20714 0.18265 0.43364 0.0
C252 C 0.19418 0.84567 0.87286 0.0
C253 C 0.16205 0.8259 0.8555 0.0
C254 C 0.23298 0.86708 0.89234 0.0
C255 C 0.26402 0.88669 0.91135 0.0
C256 C 0.59942 0.48488 0.73138 0.0
C257 C 0.613 0.4693 0.75837 0.0
C258 C 0.58254 0.50323 0.70037 0.0
C259 C 0.56806 0.51778 0.67317 0.0
C260 C 0.95361 0.62274 0.22632 0.0
C261 C 0.94533 0.64046 0.25666 0.0
C262 C 0.96326 0.60154 0.19085 0.0
C263 C 0.97249 0.58461 0.16043 0.0
C264 C 0.41168 0.1878 0.19733 0.0
C265 C 0.40381 0.21803 0.20946 0.0
C266 C 0.41779 0.15224 0.18033 0.0
C267 C 0.42522 0.12407 0.16269 0.0
C268 C 0.04637 0.89199 0.70666 0.0
C269 C 0.03837 0.86458 0.72817 0.0
C270 C 0.05382 0.92454 0.68239 0.0
C271 C 0.05164 0.95069 0.6614 0.0
C272 C 0.81301 0.45104 0.96327 0.0
C273 C 0.78048 0.43995 0.94234 0.0
C274 C 0.85135 0.46205 0.98775 0.0
C275 C 0.8856 0.47363 1.00602 0.0
C276 C 0.71326 0.63383 0.50056 0.0
C277 C 0.7493 0.64137 0.4876 0.0
C278 C 0.67306 0.62748 0.5196 0.0
C279 C 0.63866 0.61828 0.53581 0.0
C280 C 0.25939 0.38184 0.18168 0.0
C281 C 0.28711 0.36924 0.19591 0.0
C282 C 0.22437 0.3959 0.16993 0.0
C283 C 0.19352 0.40675 0.16021 0.0
C284 C 0.56667 0.20905 0.99018 0.0
C285 C 0.59062 0.23725 0.97474 0.0
C286 C 0.54114 0.17554 1.0097 0.0
C287 C 0.5224 0.14648 1.02741 0.0
C288 C 0.94022 0.84385 0.47956 0.0
C289 C 0.93362 0.81161 0.46061 0.0
C290 C 0.94776 0.8807 0.50368 0.0
C291 C 0.95607 0.9117 0.52487 0.0
C292 C 0.25493 0.69207 0.71347 0.0
C293 C 0.21953 0.69617 0.72005 0.0
C294 C 0.29702 0.68885 0.70601 0.0
C295 C 0.33163 0.68405 0.69711 0.0
C296 C 0.70932 0.85006 0.81278 0.0
C297 C 0.6826 0.83273 0.83525 0.0
C298 C 0.74617 0.86552 0.79028 0.0
C299 C 0.77889 0.87966 0.77297 0.0
C300 C 0.77581 0.2383 0.31276 0.0
C301 C 0.8113 0.24919 0.32807 0.0
C302 C 0.73462 0.2262 0.29407 0.0
C303 C 0.70124 0.2117 0.27573 0.0
C304 C 0.4527 0.63281 0.40512 0.0
C305 C 0.44323 0.6529 0.37941 0.0
C306 C 0.46407 0.60883 0.43487 0.0
C307 C 0.4748 0.59038 0.46137 0.0
C308 C 0.09564 0.46833 0.88447 0.0
C309 C 0.11152 0.45054 0.85923 0.0
C310 C 0.07659 0.48845 0.91438 0.0
C311 C 0.06129 0.50423 0.94171 0.0
C312 C 0.52746 0.90776 0.98584 0.0
C313 C 0.54207 0.89079 0.95971 0.0
C314 C 0.52444 0.93787 1.01408 0.0
C315 C 0.52419 0.96717 0.03445 0.0
C316 C 0.95981 0.16387 0.50072 0.0
C317 C 0.9622 0.19072 0.47908 0.0
C318 C 0.9532 0.12964 0.52257 0.0
C319 C 0.95095 0.09979 0.53961 0.0
C320 C 0.20185 0.63678 0.1318 0.0
C321 C 0.2282 0.65442 0.15688 0.0
C322 C 0.1672 0.62121 0.10432 0.0
C323 C 0.13352 0.60823 0.08605 0.0
C324 C 0.32764 0.46735 0.65382 0.0
C325 C 0.29679 0.45992 0.67588 0.0
C326 C 0.3637 0.47378 0.62768 0.0
C327 C 0.39632 0.48246 0.60797 0.0
C328 C 0.75746 0.69324 0.92905 0.0
C329 C 0.72424 0.70271 0.92818 0.0
C330 C 0.79704 0.68356 0.93048 0.0
C331 C 0.83065 0.67579 0.93619 0.0
C332 C 0.42788 0.86925 0.19528 0.0
C333 C 0.41769 0.83804 0.21266 0.0
C334 C 0.43811 0.90584 0.17457 0.0
C335 C 0.44673 0.93738 0.15777 0.0
C336 C 0.05598 0.20141 0.70255 0.0
C337 C 0.0681 0.23266 0.72232 0.0
C338 C 0.04139 0.16371 0.68147 0.0
C339 C 0.02947 0.13109 0.66417 0.0
C340 C 0.77358 0.38281 0.43338 0.0
C341 C 0.80735 0.37715 0.42241 0.0
C342 C 0.73428 0.39228 0.44232 0.0
C343 C 0.70271 0.40382 0.44991 0.0
loop_
_geom_bond_atom_site_label_1
_geom_bond_atom_site_label_2
_geom_bond_distance
_geom_bond_site_symmetry_2
_ccdc_geom_bond_type
O0 Cd1 2.300 . S
O0 C7 1.275 . S
Cd1 O0 2.300 . S
Cd1 O9 2.381 . S
Cd1 O10 2.378 . S
O2 Cd3 2.385 . S
O2 C7 1.255 . S
Cd3 O2 2.385 . S
Cd3 O4 2.317 . S
O4 Cd3 2.317 . S
O4 C5 1.232 . S
C5 O4 1.232 . S
C5 O6 1.218 . S
O6 C5 1.218 . S
C7 O0 1.275 . S
C7 O2 1.255 . S
C8 O9 1.258 . S
C8 O10 1.256 . S
O9 Cd1 2.381 . S
O9 C8 1.258 . S
O10 Cd1 2.378 . S
O10 C8 1.256 . S
O11 Cd12 2.300 . S
O11 C18 1.275 . S
Cd12 O11 2.300 . S
Cd12 O20 2.381 . S
Cd12 O21 2.378 . S
O13 Cd14 2.385 . S
O13 C18 1.255 . S
Cd14 O13 2.385 . S
Cd14 O15 2.317 . S
O15 Cd14 2.317 . S
O15 C16 1.232 . S
C16 O15 1.232 . S
C16 O17 1.218 . S
O17 C16 1.218 . S
C18 O11 1.275 . S
C18 O13 1.255 . S
C19 O20 1.258 . S
C19 O21 1.256 . S
O20 Cd12 2.381 . S
O20 C19 1.258 . S
O21 Cd12 2.378 . S
O21 C19 1.256 . S
O22 Cd23 2.300 . S
O22 C29 1.275 . S
Cd23 O22 2.300 . S
Cd23 O31 2.381 . S
Cd23 O32 2.378 . S
O24 Cd25 2.385 . S
O24 C29 1.255 . S
Cd25 O24 2.385 . S
Cd25 O26 2.317 . S
O26 Cd25 2.317 . S
O26 C27 1.232 . S
C27 O26 1.232 . S
C27 O28 1.218 . S
O28 C27 1.218 . S
C29 O22 1.275 . S
C29 O24 1.255 . S
C30 O31 1.258 . S
C30 O32 1.256 . S
O31 Cd23 2.381 . S
O31 C30 1.258 . S
O32 Cd23 2.378 . S
O32 C30 1.256 . S
O33 Cd34 2.300 . S
O33 C40 1.275 . S
Cd34 O33 2.300 . S
Cd34 O42 2.381 . S
Cd34 O43 2.378 . S
O35 Cd36 2.385 . S
O35 C40 1.255 . S
Cd36 O35 2.385 . S
Cd36 O37 2.317 . S
O37 Cd36 2.317 . S
O37 C38 1.232 . S
C38 O37 1.232 . S
C38 O39 1.218 . S
O39 C38 1.218 . S
C40 O33 1.275 . S
C40 O35 1.255 . S
C41 O42 1.258 . S
C41 O43 1.256 . S
O42 Cd34 2.381 . S
O42 C41 1.258 . S
O43 Cd34 2.378 . S
O43 C41 1.256 . S
O44 Cd45 2.300 . S
O44 C51 1.275 . S
Cd45 O44 2.300 . S
Cd45 O53 2.381 . S
Cd45 O54 2.378 . S
O46 Cd47 2.385 . S
O46 C51 1.255 . S
Cd47 O46 2.385 . S
Cd47 O48 2.317 . S
O48 Cd47 2.317 . S
O48 C49 1.232 . S
C49 O48 1.232 . S
C49 O50 1.218 . S
O50 C49 1.218 . S
C51 O44 1.275 . S
C51 O46 1.255 . S
C52 O53 1.258 . S
C52 O54 1.256 . S
O53 Cd45 2.381 . S
O53 C52 1.258 . S
O54 Cd45 2.378 . S
O54 C52 1.256 . S
O55 Cd56 2.300 . S
O55 C62 1.275 . S
Cd56 O55 2.300 . S
Cd56 O64 2.381 . S
Cd56 O65 2.378 . S
O57 Cd58 2.385 . S
O57 C62 1.255 . S
Cd58 O57 2.385 . S
Cd58 O59 2.317 . S
O59 Cd58 2.317 . S
O59 C60 1.232 . S
C60 O59 1.232 . S
C60 O61 1.218 . S
O61 C60 1.218 . S
C62 O55 1.275 . S
C62 O57 1.255 . S
C63 O64 1.258 . S
C63 O65 1.256 . S
O64 Cd56 2.381 . S
O64 C63 1.258 . S
O65 Cd56 2.378 . S
O65 C63 1.256 . S
O66 Cd67 2.300 . S
O66 C73 1.275 . S
Cd67 O66 2.300 . S
Cd67 O75 2.381 . S
Cd67 O76 2.378 . S
O68 Cd69 2.385 . S
O68 C73 1.255 . S
Cd69 O68 2.385 . S
Cd69 O70 2.317 . S
O70 Cd69 2.317 . S
O70 C71 1.232 . S
C71 O70 1.232 . S
C71 O72 1.218 . S
O72 C71 1.218 . S
C73 O66 1.275 . S
C73 O68 1.255 . S
C74 O75 1.258 . S
C74 O76 1.256 . S
O75 Cd67 2.381 . S
O75 C74 1.258 . S
O76 Cd67 2.378 . S
O76 C74 1.256 . S
O77 Cd78 2.300 . S
O77 C84 1.275 . S
Cd78 O77 2.300 . S
Cd78 O86 2.381 . S
Cd78 O87 2.378 . S
O79 Cd80 2.385 . S
O79 C84 1.255 . S
Cd80 O79 2.385 . S
Cd80 O81 2.317 . S
O81 Cd80 2.317 . S
O81 C82 1.232 . S
C82 O81 1.232 . S
C82 O83 1.218 . S
O83 C82 1.218 . S
C84 O77 1.275 . S
C84 O79 1.255 . S
C85 O86 1.258 . S
C85 O87 1.256 . S
O86 Cd78 2.381 . S
O86 C85 1.258 . S
O87 Cd78 2.378 . S
O87 C85 1.256 . S
Dy88 O91 2.307 1_545 S
Dy88 O93 2.395 . S
Dy88 O94 2.379 . S
Dy88 O96 2.339 1_545 S
Dy88 O98 2.298 . S
Dy88 O102 2.275 . S
Dy88 C110 2.738 . S
Dy89 O92 2.298 1_545 S
Dy89 O95 2.275 1_545 S
Dy89 O97 2.307 . S
Dy89 O99 2.395 1_545 S
Dy89 O100 2.379 1_545 S
Dy89 O103 2.339 . S
Dy89 C119 2.738 1_545 S
C90 O102 1.254 . S
C90 O103 1.257 1_455 S
O91 Dy88 2.307 1_565 S
O91 C101 1.266 . S
O92 Dy89 2.298 1_565 S
O92 C101 1.236 1_655 S
O93 Dy88 2.395 . S
O93 C110 1.255 . S
O94 Dy88 2.379 . S
O94 C110 1.249 . S
O95 Dy89 2.275 1_565 S
O95 C111 1.254 . S
O96 Dy88 2.339 1_565 S
O96 C111 1.257 1_455 S
O97 Dy89 2.307 . S
O97 C112 1.266 . S
O98 Dy88 2.298 . S
O98 C112 1.236 1_455 S
O99 Dy89 2.395 1_565 S
O99 C119 1.255 . S
O100 Dy89 2.379 1_565 S
O100 C119 1.249 . S
C101 O91 1.266 . S
C101 O92 1.236 1_455 S
O102 Dy88 2.275 . S
O102 C90 1.254 . S
O103 Dy89 2.339 . S
O103 C90 1.257 1_655 S
C104 C107 1.344 . S
C104 C108 1.328 . S
C104 C110 1.516 . S
C105 C106 1.304 . S
C105 C109 1.323 . S
C106 C105 1.304 . S
C106 C107 1.371 . S
C106 H120 0.930 . S
C107 C104 1.344 . S
C107 C106 1.371 . S
C107 H121 0.931 . S
C108 C104 1.328 . S
C108 C109 1.433 . S
C108 H122 0.931 . S
C109 C105 1.323 . S
C109 C108 1.433 . S
C109 H123 0.933 . S
C110 Dy88 2.738 . S
C110 O93 1.255 . S
C110 O94 1.249 . S
C110 C104 1.516 . S
C111 O95 1.254 . S
C111 O96 1.257 1_655 S
C112 O97 1.266 . S
C112 O98 1.236 1_655 S
C113 C116 1.344 . S
C113 C117 1.328 . S
C113 C119 1.516 . S
C114 C115 1.304 . S
C114 C118 1.323 . S
C115 C114 1.304 . S
C115 C116 1.371 . S
C115 H124 0.930 . S
C116 C113 1.344 . S
C116 C115 1.371 . S
C116 H125 0.931 . S
C117 C113 1.328 . S
C117 C118 1.433 . S
C117 H126 0.931 . S
C118 C114 1.323 . S
C118 C117 1.433 . S
C118 H127 0.933 . S
C119 Dy89 2.738 1_565 S
C119 O99 1.255 . S
C119 O100 1.249 . S
C119 C113 1.516 . S
H120 C106 0.930 . S
H121 C107 0.931 . S
H122 C108 0.931 . S
H123 C109 0.933 . S
H124 C115 0.930 . S
H125 C116 0.931 . S
H126 C117 0.931 . S
H127 C118 0.933 . S
Dy128 O131 2.307 . S
Dy128 O133 2.395 1_545 S
Dy128 O134 2.379 1_554 S
Dy128 O136 2.353 . S
Dy128 O138 2.293 1_545 S
Dy128 O142 2.275 1_545 S
Dy128 C150 2.738 1_544 S
Dy129 O132 2.298 . S
Dy129 O135 2.275 . S
Dy129 O137 2.325 . S
Dy129 O139 2.395 . S
Dy129 O140 2.379 . S
Dy129 O143 2.339 1_545 S
Dy129 C159 2.738 . S
C130 O142 1.254 . S
C130 O143 1.257 . S
O131 Dy128 2.307 . S
O131 C141 1.266 . S
O132 Dy129 2.298 . S
O132 C141 1.236 . S
O133 Dy128 2.395 1_565 S
O133 C150 1.255 1_554 S
O134 Dy128 2.379 1_556 S
O134 C150 1.249 1_545 S
O135 Dy129 2.275 . S
O135 C151 1.254 . S
O136 Dy128 2.353 . S
O136 C151 1.272 . S
O137 Dy129 2.325 . S
O137 C152 1.263 1_545 S
O138 Dy128 2.293 1_565 S
O138 C152 1.252 . S
O139 Dy129 2.395 . S
O139 C159 1.255 . S
O140 Dy129 2.379 . S
O140 C159 1.249 . S
C141 O131 1.266 . S
C141 O132 1.236 . S
O142 Dy128 2.275 1_565 S
O142 C130 1.254 . S
O143 Dy129 2.339 1_565 S
O143 C130 1.257 . S
C144 C147 1.344 . S
C144 C148 1.328 . S
C144 C150 1.516 . S
C145 C146 1.304 . S
C145 C149 1.323 . S
C146 C145 1.304 . S
C146 C147 1.371 . S
C146 H160 0.930 . S
C147 C144 1.344 . S
C147 C146 1.371 . S
C147 H161 0.931 . S
C148 C144 1.328 . S
C148 C149 1.433 . S
C148 H162 0.931 . S
C149 C145 1.323 . S
C149 C148 1.433 . S
C149 H163 0.933 . S
C150 Dy128 2.738 1_566 S
C150 O133 1.255 1_556 S
C150 O134 1.249 1_565 S
C150 C144 1.516 . S
C151 O135 1.254 . S
C151 O136 1.272 . S
C152 O137 1.263 1_565 S
C152 O138 1.252 . S
C153 C156 1.344 . S
C153 C157 1.328 . S
C153 C159 1.516 . S
C154 C155 1.304 . S
C154 C158 1.323 . S
C155 C154 1.304 . S
C155 C156 1.371 . S
C155 H164 0.930 . S
C156 C153 1.344 . S
C156 C155 1.371 . S
C156 H165 0.931 . S
C157 C153 1.328 . S
C157 C158 1.433 . S
C157 H166 0.931 . S
C158 C154 1.323 . S
C158 C157 1.433 . S
C158 H167 0.933 . S
C159 Dy129 2.738 . S
C159 O139 1.255 . S
C159 O140 1.249 . S
C159 C153 1.516 . S
H160 C146 0.930 . S
H161 C147 0.931 . S
H162 C148 0.931 . S
H163 C149 0.933 . S
H164 C155 0.930 . S
H165 C156 0.931 . S
H166 C157 0.931 . S
H167 C158 0.933 . S
Dy168 O171 2.307 . S
Dy168 O173 2.395 . S
Dy168 O174 2.379 . S
Dy168 O176 2.339 . S
Dy168 O178 2.298 . S
Dy168 O182 2.275 . S
Dy168 C190 2.738 . S
Dy169 O172 2.298 . S
Dy169 O175 2.275 . S
Dy169 O177 2.307 . S
Dy169 O179 2.395 . S
Dy169 O180 2.379 . S
Dy169 O183 2.339 . S
Dy169 C199 2.738 . S
C170 O182 1.254 . S
C170 O183 1.257 . S
O171 Dy168 2.307 . S
O171 C181 1.266 . S
O172 Dy169 2.298 . S
O172 C181 1.236 . S
O173 Dy168 2.395 . S
O173 C190 1.255 . S
O174 Dy168 2.379 . S
O174 C190 1.249 . S
O175 Dy169 2.275 . S
O175 C191 1.254 . S
O176 Dy168 2.339 . S
O176 C191 1.257 . S
O177 Dy169 2.307 . S
O177 C192 1.266 . S
O178 Dy168 2.298 . S
O178 C192 1.236 . S
O179 Dy169 2.395 . S
O179 C199 1.255 . S
O180 Dy169 2.379 . S
O180 C199 1.249 . S
C181 O171 1.266 . S
C181 O172 1.236 . S
O182 Dy168 2.275 . S
O182 C170 1.254 . S
O183 Dy169 2.339 . S
O183 C170 1.257 . S
C184 C187 1.344 . S
C184 C188 1.328 . S
C184 C190 1.516 . S
C185 C186 1.304 . S
C185 C189 1.323 . S
C186 C185 1.304 . S
C186 C187 1.371 . S
C186 H200 0.930 . S
C187 C184 1.344 . S
C187 C186 1.371 . S
C187 H201 0.931 . S
C188 C184 1.328 . S
C188 C189 1.433 . S
C188 H202 0.931 . S
C189 C185 1.323 . S
C189 C188 1.433 . S
C189 H203 0.933 . S
C190 Dy168 2.738 . S
C190 O173 1.255 . S
C190 O174 1.249 . S
C190 C184 1.516 . S
C191 O175 1.254 . S
C191 O176 1.257 . S
C192 O177 1.266 . S
C192 O178 1.236 . S
C193 C196 1.344 . S
C193 C197 1.328 . S
C193 C199 1.516 . S
C194 C195 1.304 . S
C194 C198 1.323 . S
C195 C194 1.304 . S
C195 C196 1.371 . S
C195 H204 0.930 . S
C196 C193 1.344 . S
C196 C195 1.371 . S
C196 H205 0.931 . S
C197 C193 1.328 . S
C197 C198 1.433 . S
C197 H206 0.931 . S
C198 C194 1.323 . S
C198 C197 1.433 . S
C198 H207 0.933 . S
C199 Dy169 2.738 . S
C199 O179 1.255 . S
C199 O180 1.249 . S
C199 C193 1.516 . S
H200 C186 0.930 . S
H201 C187 0.931 . S
H202 C188 0.931 . S
H203 C189 0.933 . S
H204 C195 0.930 . S
H205 C196 0.931 . S
H206 C197 0.931 . S
H207 C198 0.933 . S
Dy208 O211 2.307 1_556 S
Dy208 O213 2.395 1_455 S
Dy208 O214 2.379 1_455 S
Dy208 O216 2.339 . S
Dy208 O218 2.298 1_455 S
Dy208 O222 2.275 1_456 S
Dy208 C230 2.738 1_455 S
Dy209 O212 2.298 . S
Dy209 O215 2.275 1_554 S
Dy209 O217 2.307 1_455 S
Dy209 O219 2.395 . S
Dy209 O220 2.379 . S
Dy209 O223 2.339 1_455 S
Dy209 C239 2.738 . S
C210 O222 1.254 . S
C210 O223 1.257 . S
O211 Dy208 2.307 1_554 S
O211 C221 1.266 . S
O212 Dy209 2.298 . S
O212 C221 1.236 . S
O213 Dy208 2.395 1_655 S
O213 C230 1.255 . S
O214 Dy208 2.379 1_655 S
O214 C230 1.249 . S
O215 Dy209 2.275 1_556 S
O215 C231 1.254 . S
O216 Dy208 2.339 . S
O216 C231 1.257 . S
O217 Dy209 2.307 1_655 S
O217 C232 1.266 1_554 S
O218 Dy208 2.298 1_655 S
O218 C232 1.236 . S
O219 Dy209 2.395 . S
O219 C239 1.255 . S
O220 Dy209 2.379 . S
O220 C239 1.249 . S
C221 O211 1.266 . S
C221 O212 1.236 . S
O222 Dy208 2.275 1_654 S
O222 C210 1.254 . S
O223 Dy209 2.339 1_655 S
O223 C210 1.257 . S
C224 C227 1.344 . S
C224 C228 1.328 . S
C224 C230 1.516 . S
C225 C226 1.304 . S
C225 C229 1.323 . S
C226 C225 1.304 . S
C226 C227 1.371 . S
C226 H240 0.930 . S
C227 C224 1.344 . S
C227 C226 1.371 . S
C227 H241 0.931 . S
C228 C224 1.328 . S
C228 C229 1.433 . S
C228 H242 0.931 . S
C229 C225 1.323 . S
C229 C228 1.433 . S
C229 H243 0.933 . S
C230 Dy208 2.738 1_655 S
C230 O213 1.255 . S
C230 O214 1.249 . S
C230 C224 1.516 . S
C231 O215 1.254 . S
C231 O216 1.257 . S
C232 O217 1.266 1_556 S
C232 O218 1.236 . S
C233 C236 1.344 . S
C233 C237 1.328 . S
C233 C239 1.516 . S
C234 C235 1.304 . S
C234 C238 1.323 . S
C235 C234 1.304 . S
C235 C236 1.371 . S
C235 H244 0.930 . S
C236 C233 1.344 . S
C236 C235 1.371 . S
C236 H245 0.931 . S
C237 C233 1.328 . S
C237 C238 1.433 . S
C237 H246 0.931 . S
C238 C234 1.323 . S
C238 C237 1.433 . S
C238 H247 0.933 . S
C239 Dy209 2.738 . S
C239 O219 1.255 . S
C239 O220 1.249 . S
C239 C233 1.516 . S
H240 C226 0.930 . S
H241 C227 0.931 . S
H242 C228 0.931 . S
H243 C229 0.933 . S
H244 C235 0.930 . S
H245 C236 0.931 . S
H246 C237 0.931 . S
H247 C238 0.933 . S
C248 C249 1.170 . S
C248 C250 1.380 . S
C249 C248 1.170 . S
C250 C248 1.380 . S
C250 C251 1.170 . S
C251 C250 1.170 . S
C252 C253 1.170 . S
C252 C254 1.380 . S
C253 C252 1.170 . S
C254 C252 1.380 . S
C254 C255 1.170 . S
C255 C254 1.170 . S
C256 C257 1.170 . S
C256 C258 1.380 . S
C257 C256 1.170 . S
C258 C256 1.380 . S
C258 C259 1.170 . S
C259 C258 1.170 . S
C260 C261 1.170 . S
C260 C262 1.380 . S
C261 C260 1.170 . S
C262 C260 1.380 . S
C262 C263 1.170 . S
C263 C262 1.170 . S
C264 C265 1.170 . S
C264 C266 1.380 . S
C265 C264 1.170 . S
C266 C264 1.380 . S
C266 C267 1.170 . S
C267 C266 1.170 . S
C268 C269 1.170 . S
C268 C270 1.380 . S
C269 C268 1.170 . S
C270 C268 1.380 . S
C270 C271 1.170 . S
C271 C270 1.170 . S
C272 C273 1.170 . S
C272 C274 1.380 . S
C273 C272 1.170 . S
C274 C272 1.380 . S
C274 C275 1.170 . S
C275 C274 1.170 . S
C276 C277 1.170 . S
C276 C278 1.380 . S
C277 C276 1.170 . S
C278 C276 1.380 . S
C278 C279 1.170 . S
C279 C278 1.170 . S
C280 C281 1.170 . S
C280 C282 1.380 . S
C281 C280 1.170 . S
C282 C280 1.380 . S
C282 C283 1.170 . S
C283 C282 1.170 . S
C284 C285 1.170 . S
C284 C286 1.380 . S
C285 C284 1.170 . S
C286 C284 1.380 . S
C286 C287 1.170 . S
C287 C286 1.170 . S
C288 C289 1.170 . S
C288 C290 1.380 . S
C289 C288 1.170 . S
C290 C288 1.380 . S
C290 C291 1.170 . S
C291 C290 1.170 . S
C292 C293 1.170 . S
C292 C294 1.380 . S
C293 C292 1.170 . S
C294 C292 1.380 . S
C294 C295 1.170 . S
C295 C294 1.170 . S
C296 C297 1.170 . S
C296 C298 1.380 . S
C297 C296 1.170 . S
C298 C296 1.380 . S
C298 C299 1.170 . S
C299 C298 1.170 . S
C300 C301 1.170 . S
C300 C302 1.380 . S
C301 C300 1.170 . S
C302 C300 1.380 . S
C302 C303 1.170 . S
C303 C302 1.170 . S
C304 C305 1.170 . S
C304 C306 1.380 . S
C305 C304 1.170 . S
C306 C304 1.380 . S
C306 C307 1.170 . S
C307 C306 1.170 . S
C308 C309 1.170 . S
C308 C310 1.380 . S
C309 C308 1.170 . S
C310 C308 1.380 . S
C310 C311 1.170 . S
C311 C310 1.170 . S
C312 C313 1.170 . S
C312 C314 1.380 . S
C313 C312 1.170 . S
C314 C312 1.380 . S
C314 C315 1.170 . S
C315 C314 1.170 . S
C316 C317 1.170 . S
C316 C318 1.380 . S
C317 C316 1.170 . S
C318 C316 1.380 . S
C318 C319 1.170 . S
C319 C318 1.170 . S
C320 C321 1.170 . S
C320 C322 1.380 . S
C321 C320 1.170 . S
C322 C320 1.380 . S
C322 C323 1.170 . S
C323 C322 1.170 . S
C324 C325 1.170 . S
C324 C326 1.380 . S
C325 C324 1.170 . S
C326 C324 1.380 . S
C326 C327 1.170 . S
C327 C326 1.170 . S
C328 C329 1.170 . S
C328 C330 1.380 . S
C329 C328 1.170 . S
C330 C328 1.380 . S
C330 C331 1.170 . S
C331 C330 1.170 . S
C332 C333 1.170 . S
C332 C334 1.380 . S
C333 C332 1.170 . S
C334 C332 1.380 . S
C334 C335 1.170 . S
C335 C334 1.170 . S
C336 C337 1.170 . S
C336 C338 1.380 . S
C337 C336 1.170 . S
C338 C336 1.380 . S
C338 C339 1.170 . S
C339 C338 1.170 . S
C340 C341 1.170 . S
C340 C342 1.380 . S
C341 C340 1.170 . S
C342 C340 1.380 . S
C342 C343 1.170 . S
C343 C342 1.170 . S
C249 C5 0.956 . S
C251 C105 1.184 . S
C253 C18 1.038 . S
C255 C145 1.145 . S
C259 C170 2.325 . S
C257 C30 2.343 . S
C261 C41 2.262 . S
C263 C210 2.194 . S
C267 C141 1.748 . S
C265 C7 1.585 . S
C271 C101 1.834 . S
C269 C16 1.813 . S
C275 C232 1.813 . S
C273 C29 1.798 . S
C279 C192 1.419 . S
C277 C38 1.202 . S
C281 C8 1.278 . S
C283 C234 1.419 . S
C287 C151 2.366 1_556 S
C285 C27 2.132 . S
C289 C40 2.344 . S
C291 C111 2.279 . S
C293 C19 1.417 . S
C295 C194 1.407 . S
C299 C114 1.220 . S
C297 C51 1.055 . S
C301 C62 1.497 . S
C303 C154 1.443 . S
C305 C74 2.454 . S
C307 C191 2.452 . S
C309 C84 2.208 . S
C311 C231 2.308 . S
C313 C49 1.510 . S
C315 C152 2.048 1_556 S
C319 C112 1.902 . S
C317 C63 1.877 . S
C323 C221 1.647 . S
C321 C71 1.501 . S
C327 C181 1.595 . S
C325 C85 1.634 . S
C329 C52 1.456 . S
C331 C225 1.531 . S
C335 C130 2.498 . S
C333 C73 2.525 . S
C339 C90 1.938 . S
C337 C82 1.768 . S
C341 C60 1.350 . S
C343 C185 1.430 . S
