# Generated by pormake.
# Topology anh, (6,3)-cn, num edge types: 1
# Building blocks:
#     Node 0, Type 0, BuildingBlock: BETDAH_clean_sbu_0, # of connection points: 6
#     Node 1, Type 0, BuildingBlock: BETDAH_clean_sbu_0, # of connection points: 6
#     Node 2, Type 0, BuildingBlock: BETDAH_clean_sbu_0, # of connection points: 6
#     Node 3, Type 1, BuildingBlock: WUSLED_clean_sbu_0, # of connection points: 3
#     Node 4, Type 1, BuildingBlock: WUSLED_clean_sbu_0, # of connection points: 3
#     Node 5, Type 1, BuildingBlock: WUSLED_clean_sbu_0, # of connection points: 3
#     Node 6, Type 1, BuildingBlock: WUSLED_clean_sbu_0, # of connection points: 3
#     Node 7, Type 1, BuildingBlock: WUSLED_clean_sbu_0, # of connection points: 3
#     Node 8, Type 1, BuildingBlock: WUSLED_clean_sbu_0, # of connection points: 3
#     Edge 9, Type (0, 1), BuildingBlock: MIFKUJ_clean_linker_0, # of connection points: 2
#     Edge 10, Type (0, 1), BuildingBlock: MIFKUJ_clean_linker_0, # of connection points: 2
#     Edge 11, Type (0, 1), BuildingBlock: MIFKUJ_clean_linker_0, # of connection points: 2
#     Edge 12, Type (0, 1), BuildingBlock: MIFKUJ_clean_linker_0, # of connection points: 2
#     Edge 13, Type (0, 1), BuildingBlock: MIFKUJ_clean_linker_0, # of connection points: 2
#     Edge 14, Type (0, 1), BuildingBlock: MIFKUJ_clean_linker_0, # of connection points: 2
#     Edge 15, Type (0, 1), BuildingBlock: MIFKUJ_clean_linker_0, # of connection points: 2
#     Edge 16, Type (0, 1), BuildingBlock: MIFKUJ_clean_linker_0, # of connection points: 2
#     Edge 17, Type (0, 1), BuildingBlock: MIFKUJ_clean_linker_0, # of connection points: 2
#     Edge 18, Type (0, 1), BuildingBlock: MIFKUJ_clean_linker_0, # of connection points: 2
#     Edge 19, Type (0, 1), BuildingBlock: MIFKUJ_clean_linker_0, # of connection points: 2
#     Edge 20, Type (0, 1), BuildingBlock: MIFKUJ_clean_linker_0, # of connection points: 2
#     Edge 21, Type (0, 1), BuildingBlock: MIFKUJ_clean_linker_0, # of connection points: 2
#     Edge 22, Type (0, 1), BuildingBlock: MIFKUJ_clean_linker_0, # of connection points: 2
#     Edge 23, Type (0, 1), BuildingBlock: MIFKUJ_clean_linker_0, # of connection points: 2
#     Edge 24, Type (0, 1), BuildingBlock: MIFKUJ_clean_linker_0, # of connection points: 2
#     Edge 25, Type (0, 1), BuildingBlock: MIFKUJ_clean_linker_0, # of connection points: 2
#     Edge 26, Type (0, 1), BuildingBlock: MIFKUJ_clean_linker_0, # of connection points: 2
# Relax obj value: 0.154
# Max RMSD: 0.194
# Mean RMSD: 0.144
data_MOF--net-anh--node1-BETDAH_clean_sbu_0--node2-WUSLED_clean_sbu_0--edge1-MIFKUJ_clean_linker_0
_symmetry_space_group_name_H-M    P1
_symmetry_Int_Tables_number       1
_symmetry_cell_setting            triclinic
loop_
_symmetry_equiv_pos_as_xyz
'x, y, z'
_cell_length_a     49.878364
_cell_length_b     55.072792
_cell_length_c     85.639395
_cell_angle_alpha  91.956943
_cell_angle_beta   90.306219
_cell_angle_gamma 126.72464
loop_
_atom_site_label
_atom_site_type_symbol
_atom_site_fract_x
_atom_site_fract_y
_atom_site_fract_z
_atom_type_partial_charge
Ho0 Ho 0.07457 0.52751 0.16271 0.0
Ho1 Ho 0.03762 0.55231 0.17297 0.0
C2 C 0.11639 0.60056 0.17157 0.0
C3 C 0.11245 0.51747 0.14818 0.0
C4 C 0.14781 0.52932 0.14941 0.0
C5 C 0.16602 0.53607 0.13578 0.0
C6 C 0.19891 0.54535 0.13658 0.0
C7 C 0.21399 0.54777 0.15104 0.0
C8 C 0.1961 0.542 0.16475 0.0
C9 C 0.16335 0.53305 0.16396 0.0
C10 C 0.06747 0.52803 0.19391 0.0
C11 C 0.99689 0.47923 0.1672 0.0
C12 C 0.9974 0.56026 0.18677 0.0
C13 C 0.96059 0.5412 0.18705 0.0
C14 C 0.94461 0.53328 0.20141 0.0
C15 C 0.9097 0.51321 0.20184 0.0
C16 C 0.89018 0.50076 0.18789 0.0
C17 C 0.90634 0.50911 0.17353 0.0
C18 C 0.94114 0.52891 0.17311 0.0
C19 C 0.04459 0.55083 0.14157 0.0
O20 O 0.11599 0.57854 0.16445 0.0
O21 O 0.08907 0.59519 0.17759 0.0
O22 O 0.0937 0.50151 0.15972 0.0
O23 O 0.10654 0.53618 0.14333 0.0
O24 O 0.06812 0.50777 0.18617 0.0
O25 O 0.07372 0.54843 0.18498 0.0
O26 O 0.99848 0.50173 0.17433 0.0
O27 O 1.02242 0.48435 0.15934 0.0
O28 O 1.01103 0.57209 0.17348 0.0
O29 O 1.01111 0.54915 0.19363 0.0
O30 O 0.04553 0.57201 0.14928 0.0
O31 O 0.03784 0.53052 0.15072 0.0
H32 H 0.15451 0.53344 0.12447 0.0
H33 H 0.21201 0.54934 0.12582 0.0
H34 H 0.20728 0.54391 0.17604 0.0
H35 H 0.14996 0.52838 0.17469 0.0
H36 H 0.95919 0.54221 0.2123 0.0
H37 H 0.89806 0.50707 0.21309 0.0
H38 H 0.89211 0.5005 0.16255 0.0
H39 H 0.95275 0.53433 0.16185 0.0
Ho40 Ho 0.55621 1.00269 0.49192 0.0
Ho41 Ho 0.51891 0.02917 0.48683 0.0
C42 C 0.47616 0.9578 0.48357 0.0
C43 C 0.57681 0.97249 0.50235 0.0
C44 C 0.56542 0.94099 0.5047 0.0
C45 C 0.55665 0.92907 0.51963 0.0
C46 C 0.55009 0.90107 0.52247 0.0
C47 C 0.55245 0.88439 0.51047 0.0
C48 C 0.56016 0.89586 0.49541 0.0
C49 C 0.56663 0.92381 0.49256 0.0
C50 C 0.55411 0.01534 0.46191 0.0
C51 C 0.6008 0.07425 0.49009 0.0
C52 C 0.49776 0.06072 0.47984 0.0
C53 C 0.50302 0.08906 0.48588 0.0
C54 C 0.52539 0.11667 0.47868 0.0
C55 C 0.52944 0.14312 0.48395 0.0
C56 C 0.51107 0.14267 0.49651 0.0
C57 C 0.48876 0.11504 0.50374 0.0
C58 C 0.48473 0.08862 0.49848 0.0
C59 C 0.5237 0.01801 0.51699 0.0
O60 O 0.50137 0.96156 0.49153 0.0
O61 O 0.4793 0.98133 0.47777 0.0
O62 O 0.58059 0.98122 0.48802 0.0
O63 O 0.56442 0.98313 0.51125 0.0
O64 O 0.57921 0.01788 0.46849 0.0
O65 O 0.53027 1.00416 0.47121 0.0
O66 O 0.57297 0.06995 0.4852 0.0
O67 O 0.60034 0.05176 0.49549 0.0
O68 O 0.48164 0.03736 0.48867 0.0
O69 O 0.52285 0.06351 0.47306 0.0
O70 O 0.49766 0.01401 0.5107 0.0
O71 O 0.54656 0.02924 0.50724 0.0
H72 H 0.55594 0.94189 0.52927 0.0
H73 H 0.54454 0.89314 0.53424 0.0
H74 H 0.56172 0.88345 0.48582 0.0
H75 H 0.57351 0.93231 0.48093 0.0
H76 H 0.53957 0.11779 0.46882 0.0
H77 H 0.5465 0.16381 0.47793 0.0
H78 H 0.47449 0.11381 0.51356 0.0
H79 H 0.46709 0.0678 0.50428 0.0
Ho80 Ho 0.58566 0.56075 0.85471 0.0
Ho81 Ho 0.54196 0.49265 0.85849 0.0
C82 C 0.50339 0.52411 0.86001 0.0
C83 C 0.61106 0.61417 0.84444 0.0
C84 C 0.60171 0.63466 0.84099 0.0
C85 C 0.58485 0.63129 0.82691 0.0
C86 C 0.57905 0.65244 0.82314 0.0
C87 C 0.58996 0.67757 0.83332 0.0
C88 C 0.60628 0.6806 0.84752 0.0
C89 C 0.6122 0.65954 0.85126 0.0
C90 C 0.58027 0.54377 0.88417 0.0
C91 C 0.62545 0.53061 0.85787 0.0
C92 C 0.51645 0.43737 0.86567 0.0
C93 C 0.52213 0.41461 0.86113 0.0
C94 C 0.50243 0.38579 0.86735 0.0
C95 C 0.50642 0.3635 0.86263 0.0
C96 C 0.53018 0.36944 0.8515 0.0
C97 C 0.55028 0.39866 0.8455 0.0
C98 C 0.5463 0.42097 0.85026 0.0
C99 C 0.54872 0.50979 0.82867 0.0
O100 O 0.53195 0.54824 0.8546 0.0
O101 O 0.50237 0.50044 0.86435 0.0
O102 O 0.61288 0.60925 0.85911 0.0
O103 O 0.59829 0.5898 0.83533 0.0
O104 O 0.60728 0.56794 0.87897 0.0
O105 O 0.55697 0.5313 0.87391 0.0
O106 O 0.5953 0.50518 0.86064 0.0
O107 O 0.62809 0.55523 0.85386 0.0
O108 O 0.50409 0.44426 0.85469 0.0
O109 O 0.5404 0.46135 0.87391 0.0
O110 O 0.52168 0.48617 0.83403 0.0
O111 O 0.57167 0.5221 0.83912 0.0
H112 H 0.57656 0.61255 0.81867 0.0
H113 H 0.56605 0.64913 0.8122 0.0
H114 H 0.61545 0.69981 0.85558 0.0
H115 H 0.62572 0.66316 0.86208 0.0
H116 H 0.48376 0.38044 0.87582 0.0
H117 H 0.49091 0.34161 0.86779 0.0
H118 H 0.56858 0.40413 0.8368 0.0
H119 H 0.56175 0.44305 0.84527 0.0
C120 C 0.64447 0.11554 0.19784 0.0
C121 C 0.65428 0.13821 0.20949 0.0
C122 C 0.70454 0.17493 0.19522 0.0
C123 C 0.68403 0.16764 0.20819 0.0
C124 C 0.69464 0.15188 0.18374 0.0
C125 C 0.66506 0.12262 0.18506 0.0
U126 U 0.56782 0.04341 0.21682 0.0
O127 O 0.54299 0.9961 0.20832 0.0
O128 O 0.5156 0.01581 0.20767 0.0
C129 C 0.51457 0.99163 0.20486 0.0
C130 C 0.61227 0.08484 0.19802 0.0
C131 C 0.48268 0.96139 0.20746 0.0
C132 C 0.42269 0.92583 0.20146 0.0
C133 C 0.4524 0.95544 0.20228 0.0
C134 C 0.45244 0.90735 0.21159 0.0
C135 C 0.42237 0.90121 0.20575 0.0
C136 C 0.48224 0.93704 0.21239 0.0
C137 C 0.56254 0.04103 0.26261 0.0
C138 C 0.55904 0.01309 0.28498 0.0
C139 C 0.54108 0.04523 0.28729 0.0
C140 C 0.54895 0.05277 0.27168 0.0
C141 C 0.54691 0.02597 0.29427 0.0
C142 C 0.56682 0.02056 0.26935 0.0
C143 C 0.57694 0.05402 0.24729 0.0
O144 O 0.61325 0.06311 0.20306 0.0
O145 O 0.58602 0.08291 0.20269 0.0
O146 O 0.56141 0.06164 0.23863 0.0
O147 O 0.58918 0.04228 0.23907 0.0
H148 H 0.63881 0.13329 0.21948 0.0
H149 H 0.69097 0.18464 0.21736 0.0
H150 H 0.70929 0.15657 0.17346 0.0
H151 H 0.65787 0.10557 0.17586 0.0
H152 H 0.40032 0.92215 0.19669 0.0
H153 H 0.45197 0.97354 0.19807 0.0
H154 H 0.45314 0.88911 0.21525 0.0
H155 H 0.50513 0.94068 0.21629 0.0
H156 H 0.56342 0.99786 0.28992 0.0
H157 H 0.53216 0.05586 0.29411 0.0
H158 H 0.54588 0.06899 0.26695 0.0
H159 H 0.57749 0.01124 0.26279 0.0
C160 C 0.54621 0.5771 0.55654 0.0
C161 C 0.54083 0.59196 0.56834 0.0
C162 C 0.54558 0.62673 0.54956 0.0
C163 C 0.54043 0.61647 0.56488 0.0
C164 C 0.55104 0.61171 0.53781 0.0
C165 C 0.55133 0.58718 0.54128 0.0
U166 U 0.5494 0.52702 0.58529 0.0
O167 O 0.52214 0.47751 0.58503 0.0
O168 O 0.57702 0.50724 0.58458 0.0
C169 C 0.54951 0.4792 0.58401 0.0
C170 C 0.54664 0.55117 0.55991 0.0
C171 C 0.54859 0.45692 0.57326 0.0
C172 C 0.51909 0.41352 0.55451 0.0
C173 C 0.52137 0.43716 0.56282 0.0
C174 C 0.57155 0.42944 0.56657 0.0
C175 C 0.54389 0.40901 0.55647 0.0
C176 C 0.57379 0.45299 0.57485 0.0
C177 C 0.55384 0.54666 0.6296 0.0
C178 C 0.58195 0.54447 0.65229 0.0
C179 C 0.53151 0.54084 0.65555 0.0
C180 C 0.52965 0.5435 0.63947 0.0
C181 C 0.55781 0.5415 0.6622 0.0
C182 C 0.57996 0.54695 0.63615 0.0
C183 C 0.5522 0.55139 0.61278 0.0
O184 O 0.57475 0.5582 0.56612 0.0
O185 O 0.51997 0.5284 0.56657 0.0
O186 O 0.52394 0.53081 0.60515 0.0
O187 O 0.57877 0.56069 0.60462 0.0
H188 H 0.537 0.58463 0.58023 0.0
H189 H 0.53655 0.62766 0.57426 0.0
H190 H 0.55465 0.61864 0.52586 0.0
H191 H 0.55547 0.576 0.532 0.0
H192 H 0.49765 0.39854 0.54669 0.0
H193 H 0.5014 0.43944 0.56135 0.0
H194 H 0.59091 0.42655 0.5686 0.0
H195 H 0.59479 0.46755 0.58299 0.0
H196 H 0.60231 0.54472 0.65701 0.0
H197 H 0.51273 0.53896 0.66284 0.0
H198 H 0.50947 0.54354 0.63475 0.0
H199 H 0.59904 0.54937 0.62887 0.0
C200 C 0.98641 0.52979 0.88081 0.0
C201 C 0.95339 0.50297 0.87803 0.0
C202 C 0.92744 0.53036 0.87811 0.0
C203 C 0.9249 0.50321 0.87679 0.0
C204 C 0.96059 0.55718 0.88109 0.0
C205 C 0.98908 0.55691 0.88231 0.0
U206 U 0.06742 0.53001 0.89231 0.0
O207 O 0.08411 0.50509 0.87975 0.0
O208 O 0.11668 0.55424 0.88062 0.0
C209 C 0.11388 0.52953 0.87651 0.0
C210 C 1.01754 0.52978 0.87954 0.0
C211 C 0.145 0.52946 0.87774 0.0
C212 C 0.20653 0.55603 0.8755 0.0
C213 C 0.17806 0.55629 0.87648 0.0
C214 C 0.17075 0.50201 0.87706 0.0
C215 C 0.20392 0.52884 0.87561 0.0
C216 C 0.14227 0.5023 0.878 0.0
C217 C 0.06689 0.53098 0.93967 0.0
C218 C 0.07995 0.52693 0.96648 0.0
C219 C 0.04251 0.54025 0.96159 0.0
C220 C 0.04622 0.53851 0.94535 0.0
C221 C 0.05979 0.53491 0.97238 0.0
C222 C 0.08336 0.52496 0.95039 0.0
C223 C 0.0738 0.53053 0.92289 0.0
O224 O 0.04777 0.55445 0.88325 0.0
O225 O 1.01524 0.5052 0.88224 0.0
O226 O 0.05483 0.50535 0.91418 0.0
O227 O 0.08758 0.55533 0.9151 0.0
H228 H 0.94949 0.48148 0.87633 0.0
H229 H 0.9008 0.48175 0.87428 0.0
H230 H 0.96495 0.57888 0.88248 0.0
H231 H 1.01356 0.57837 0.88412 0.0
H232 H 0.23084 0.57757 0.87465 0.0
H233 H 0.18205 0.57784 0.87591 0.0
H234 H 0.16632 0.48024 0.87701 0.0
H235 H 0.11774 0.48082 0.87856 0.0
H236 H 0.09317 0.52214 0.97434 0.0
H237 H 1.02683 0.54652 0.96571 0.0
H238 H 0.03335 0.54337 0.9373 0.0
H239 H 0.09945 0.51911 0.9463 0.0
C240 C 0.96638 0.43155 0.45984 0.0
C241 C 0.93976 0.41803 0.44874 0.0
C242 C 0.90795 0.3713 0.46313 0.0
C243 C 0.91086 0.38823 0.45037 0.0
C244 C 0.935 0.38493 0.47403 0.0
C245 C 0.96375 0.4146 0.47239 0.0
U246 U 0.03636 0.50565 0.43959 0.0
O247 O 0.05698 0.55262 0.44752 0.0
O248 O 0.08929 0.53773 0.44739 0.0
C249 C 0.08676 0.55975 0.45077 0.0
C250 C 0.99629 0.46365 0.4593 0.0
C251 C 0.11671 0.59163 0.44966 0.0
C252 C 0.1529 0.64177 0.46272 0.0
C253 C 0.12292 0.61242 0.46174 0.0
C254 C 0.17079 0.63091 0.43901 0.0
C255 C 0.1775 0.65131 0.45155 0.0
C256 C 0.14074 0.60116 0.43815 0.0
C257 C 0.0329 0.49965 0.39324 0.0
C258 C 0.05998 0.53643 0.37297 0.0
C259 C 1.02496 0.48266 0.36593 0.0
C260 C 1.0188 0.47624 0.38167 0.0
C261 C 0.04566 0.5128 0.36129 0.0
C262 C 0.05364 0.52989 0.38885 0.0
C263 C 1.02375 0.49095 0.40952 0.0
O264 O 1.02402 0.46847 0.45451 0.0
O265 O 0.99175 0.48313 0.45405 0.0
O266 O 1.0116 0.50298 0.41753 0.0
O267 O 0.04313 0.48731 0.41793 0.0
H268 H 0.94113 0.43057 0.43892 0.0
H269 H 0.89081 0.37845 0.44162 0.0
H270 H 0.93367 0.37298 0.48413 0.0
H271 H 0.98381 0.42459 0.48117 0.0
H272 H 0.15702 0.65697 0.47239 0.0
H273 H 0.10491 0.6056 0.47081 0.0
H274 H 0.18927 0.63758 0.43022 0.0
H275 H 0.13668 0.58549 0.42878 0.0
H276 H 0.07621 0.5599 0.36985 0.0
H277 H 1.0128 0.46384 0.35736 0.0
H278 H 1.00244 0.45275 0.38481 0.0
H279 H 0.06469 0.54831 0.39764 0.0
C280 C 0.56283 0.96814 0.78929 0.0
C281 C 0.55286 0.94535 0.77768 0.0
C282 C 0.56471 0.91875 0.79553 0.0
C283 C 0.55376 0.92093 0.78077 0.0
C284 C 0.5749 0.94188 0.80704 0.0
C285 C 0.57393 0.9662 0.80396 0.0
U286 U 0.55765 0.01933 0.76189 0.0
O287 O 0.58486 0.06906 0.76285 0.0
O288 O 0.53006 0.03895 0.76395 0.0
C289 C 0.55738 0.06709 0.76429 0.0
C290 C 0.56177 0.99398 0.78643 0.0
C291 C 0.5589 0.08998 0.77482 0.0
C292 C 0.53529 0.10415 0.79488 0.0
C293 C 0.53609 0.08192 0.78678 0.0
C294 C 0.58042 0.14284 0.77945 0.0
C295 C 0.5571 0.13493 0.79116 0.0
C296 C 0.58127 0.12071 0.77144 0.0
C297 C 0.55195 1.0016 0.71707 0.0
C298 C 0.57645 0.03097 0.69382 0.0
C299 C 0.52309 0.98133 0.69162 0.0
C300 C 0.52453 0.97839 0.70772 0.0
C301 C 0.5492 0.00751 0.68441 0.0
C302 C 0.57781 0.02809 0.70996 0.0
C303 C 0.55419 0.99646 0.73379 0.0
O304 O 0.58805 0.01722 0.77982 0.0
O305 O 0.53336 0.98702 0.78066 0.0
O306 O 0.52774 0.98678 0.74212 0.0
O307 O 0.58253 0.01659 0.7415 0.0
H308 H 0.54423 0.94636 0.76626 0.0
H309 H 0.54538 0.90352 0.77163 0.0
H310 H 0.58407 0.94146 0.81844 0.0
H311 H 0.58192 0.98358 0.81307 0.0
H312 H 0.51729 0.0971 0.80396 0.0
H313 H 0.51833 0.05841 0.78962 0.0
H314 H 0.59727 0.16604 0.77598 0.0
H315 H 0.59874 0.12756 0.76211 0.0
H316 H 0.5968 0.0516 0.6887 0.0
H317 H 0.50192 0.96265 0.68474 0.0
H318 H 0.50446 0.95757 0.71282 0.0
H319 H 0.59939 0.04641 0.71678 0.0
C320 C 0.51822 0.39848 0.13974 0.0
C321 C 0.51705 0.37318 0.13504 0.0
C322 C 0.55868 0.38636 0.15536 0.0
C323 C 0.53686 0.367 0.14289 0.0
C324 C 0.55807 0.41055 0.16058 0.0
C325 C 0.53793 0.41643 0.15288 0.0
U326 U 0.49807 0.41349 0.10001 0.0
O327 O 0.45502 0.41125 0.09127 0.0
O328 O 0.50532 0.45457 0.09226 0.0
C329 C 0.47312 0.44078 0.08993 0.0
C330 C 0.50274 0.40888 0.1301 0.0
C331 C 0.46041 0.45594 0.09774 0.0
C332 C 0.44559 0.47031 0.12142 0.0
C333 C 0.45645 0.45478 0.11397 0.0
C334 C 0.44287 0.48846 0.09648 0.0
C335 C 0.43874 0.48737 0.11275 0.0
C336 C 0.45364 0.47285 0.08905 0.0
C337 C 0.52495 0.39655 0.06262 0.0
C338 C 0.50147 0.39223 0.03682 0.0
C339 C 0.56097 0.41734 0.04031 0.0
C340 C 0.55666 0.41127 0.05619 0.0
C341 C 0.53353 0.40859 0.03052 0.0
C342 C 0.49723 0.38644 0.05272 0.0
C343 C 0.52189 0.3947 0.07976 0.0
O344 O 0.52431 0.4336 0.12271 0.0
O345 O 0.47631 0.38813 0.12136 0.0
O346 O 0.49136 0.37686 0.085 0.0
O347 O 0.54072 0.42097 0.08758 0.0
H348 H 0.50204 0.359 0.12489 0.0
H349 H 0.53617 0.34784 0.13873 0.0
H350 H 0.57478 0.42628 0.16996 0.0
H351 H 0.53926 0.43613 0.15663 0.0
H352 H 0.44287 0.46924 0.13396 0.0
H353 H 0.46198 0.44205 0.12086 0.0
H354 H 0.43727 0.50099 0.08946 0.0
H355 H 0.45677 0.47406 0.07652 0.0
H356 H 0.4797 0.38463 0.02956 0.0
H357 H 0.58606 0.43025 0.03593 0.0
H358 H 0.57841 0.41932 0.0636 0.0
H359 H 0.47241 0.37499 0.0573 0.0
H360 H 0.23082 0.51605 0.16636 0.0
H361 H 0.28156 0.51948 0.1638 0.0
H362 H 0.32246 0.59554 0.13431 0.0
H363 H 0.27096 0.5915 0.1365 0.0
H364 H 0.32577 0.55577 0.12047 0.0
H365 H 0.35874 0.60191 0.17141 0.0
H366 H 0.35322 0.60943 0.19942 0.0
H367 H 0.33417 0.52431 0.20861 0.0
H368 H 0.33907 0.51602 0.18063 0.0
H369 H 0.4577 0.54448 0.10798 0.0
H370 H 0.43206 0.56783 0.11845 0.0
H371 H 0.36589 0.48923 0.14534 0.0
H372 H 0.39135 0.46578 0.13494 0.0
H373 H 0.38645 0.54268 0.16136 0.0
H374 H 0.34153 0.49348 0.10955 0.0
H375 H 0.34683 0.48601 0.08148 0.0
H376 H 0.3894 0.57929 0.07443 0.0
H377 H 0.38475 0.58738 0.10252 0.0
C378 C 0.25101 0.53404 0.15969 0.0
C379 C 0.24697 0.55344 0.15157 0.0
C380 C 0.28015 0.53611 0.15829 0.0
C381 C 0.30609 0.55799 0.14898 0.0
C382 C 0.30281 0.57849 0.14156 0.0
C383 C 0.27342 0.57615 0.14278 0.0
C384 C 0.33413 0.55648 0.14529 0.0
C385 C 0.33971 0.55385 0.12948 0.0
C386 C 0.35201 0.55341 0.15697 0.0
C387 C 0.34913 0.55829 0.17387 0.0
C388 C 0.35315 0.58469 0.17938 0.0
C389 C 0.35017 0.5891 0.19526 0.0
C390 C 0.34332 0.56735 0.20579 0.0
C391 C 0.33949 0.54115 0.20045 0.0
C392 C 0.34244 0.53661 0.18458 0.0
C393 C 0.43788 0.53231 0.11623 0.0
C394 C 0.42618 0.50311 0.12047 0.0
C395 C 0.42343 0.54575 0.12227 0.0
C396 C 0.39684 0.53008 0.13252 0.0
C397 C 0.38648 0.50173 0.13749 0.0
C398 C 0.401 0.48834 0.13151 0.0
C399 C 0.37718 0.54135 0.13667 0.0
C400 C 0.37313 0.54561 0.15249 0.0
C401 C 0.36074 0.54609 0.12503 0.0
C402 C 0.36316 0.54111 0.10813 0.0
C403 C 0.35221 0.51243 0.10202 0.0
C404 C 0.35508 0.50808 0.08611 0.0
C405 C 0.36854 0.53219 0.07618 0.0
C406 C 0.37905 0.56066 0.08214 0.0
C407 C 0.3763 0.56514 0.09805 0.0
H408 H 0.37074 0.52878 0.06387 0.0
H409 H 0.34101 0.5708 0.21808 0.0
H410 H 0.66503 0.09297 0.49667 0.0
H411 H 0.71778 0.14271 0.49241 0.0
H412 H 0.6627 0.17474 0.47586 0.0
H413 H 0.61019 0.12533 0.47992 0.0
H414 H 0.71182 0.19061 0.45672 0.0
H415 H 0.7027 0.19684 0.51231 0.0
H416 H 0.69634 0.18036 0.53932 0.0
H417 H 0.78649 0.18713 0.53631 0.0
H418 H 0.79314 0.20327 0.50919 0.0
H419 H 0.84239 0.34933 0.45768 0.0
H420 H 0.79159 0.29878 0.46229 0.0
H421 H 0.85147 0.27148 0.47854 0.0
H422 H 0.9024 0.32191 0.47385 0.0
H423 H 0.80108 0.25236 0.49766 0.0
H424 H 0.81099 0.24726 0.4423 0.0
H425 H 0.81735 0.2636 0.41527 0.0
H426 H 0.72571 0.25438 0.41774 0.0
H427 H 0.71903 0.23838 0.44488 0.0
C428 C 0.66412 0.11067 0.49226 0.0
C429 C 0.63318 0.10496 0.48867 0.0
C430 C 0.69438 0.13919 0.48984 0.0
C431 C 0.6944 0.16271 0.48385 0.0
C432 C 0.66352 0.15708 0.48043 0.0
C433 C 0.63339 0.1287 0.48284 0.0
C434 C 0.72637 0.19296 0.48076 0.0
C435 C 0.73113 0.20424 0.46575 0.0
C436 C 0.75213 0.21059 0.49236 0.0
C437 C 0.74821 0.20094 0.50867 0.0
C438 C 0.72101 0.19457 0.51737 0.0
C439 C 0.71738 0.18534 0.5327 0.0
C440 C 0.74094 0.18261 0.53951 0.0
C441 C 0.76823 0.1892 0.53101 0.0
C442 C 0.77196 0.19841 0.51566 0.0
C443 C 0.84486 0.3325 0.46201 0.0
C444 C 0.87673 0.33992 0.46534 0.0
C445 C 0.81568 0.30351 0.4647 0.0
C446 C 0.8175 0.28103 0.47068 0.0
C447 C 0.84924 0.28834 0.47399 0.0
C448 C 0.87843 0.31731 0.47132 0.0
C449 C 0.78639 0.25011 0.47364 0.0
C450 C 0.7818 0.2387 0.48862 0.0
C451 C 0.76077 0.23231 0.462 0.0
C452 C 0.76469 0.24191 0.44568 0.0
C453 C 0.79233 0.24895 0.43712 0.0
C454 C 0.79597 0.25811 0.42177 0.0
C455 C 0.77199 0.26011 0.4148 0.0
C456 C 0.74428 0.25287 0.42316 0.0
C457 C 0.74054 0.24373 0.43852 0.0
H458 H 0.77485 0.2672 0.40291 0.0
H459 H 0.73809 0.17547 0.55139 0.0
H460 H 0.57196 0.70686 0.85215 0.0
H461 H 0.56627 0.74635 0.84523 0.0
H462 H 0.5913 0.7409 0.79777 0.0
H463 H 0.59769 0.7018 0.80468 0.0
H464 H 0.62487 0.79931 0.80829 0.0
H465 H 0.51088 0.71067 0.8071 0.0
H466 H 0.46077 0.66448 0.81746 0.0
H467 H 0.46065 0.71752 0.85535 0.0
H468 H 0.51107 0.76403 0.84532 0.0
H469 H 0.58145 0.88915 0.77596 0.0
H470 H 0.58354 0.84716 0.78177 0.0
H471 H 0.55335 0.84759 0.82879 0.0
H472 H 0.5498 0.88869 0.82289 0.0
H473 H 0.52179 0.79101 0.81808 0.0
H474 H 0.63627 0.87931 0.81984 0.0
H475 H 0.68706 0.92558 0.80993 0.0
H476 H 0.68686 0.87331 0.7715 0.0
H477 H 0.63579 0.82676 0.78107 0.0
C478 C 0.57638 0.71409 0.84024 0.0
C479 C 0.58525 0.70098 0.82899 0.0
C480 C 0.57283 0.73656 0.83626 0.0
C481 C 0.57805 0.74656 0.82092 0.0
C482 C 0.58702 0.7336 0.80967 0.0
C483 C 0.59039 0.711 0.81362 0.0
C484 C 0.57475 0.77085 0.81668 0.0
C485 C 0.60213 0.79726 0.81021 0.0
C486 C 0.54542 0.76868 0.81953 0.0
C487 C 0.51495 0.74081 0.82553 0.0
C488 C 0.50032 0.71247 0.8177 0.0
C489 C 0.47184 0.68624 0.82351 0.0
C490 C 0.45759 0.68806 0.83708 0.0
C491 C 0.47175 0.71615 0.84485 0.0
C492 C 0.50026 0.74246 0.8391 0.0
C493 C 0.57484 0.88014 0.7875 0.0
C494 C 0.56563 0.89266 0.79896 0.0
C495 C 0.57642 0.85625 0.79087 0.0
C496 C 0.56913 0.84433 0.80583 0.0
C497 C 0.55929 0.85635 0.81719 0.0
C498 C 0.55761 0.88018 0.81382 0.0
C499 C 0.57196 0.81955 0.80968 0.0
C500 C 0.54451 0.79305 0.81611 0.0
C501 C 0.60128 0.82167 0.80685 0.0
C502 C 0.63201 0.84961 0.80108 0.0
C503 C 0.64691 0.87772 0.80921 0.0
C504 C 0.67577 0.90399 0.80367 0.0
C505 C 0.69012 0.9024 0.79007 0.0
C506 C 0.67569 0.87452 0.78201 0.0
C507 C 0.6468 0.84818 0.7875 0.0
H508 H 0.71247 0.92277 0.7858 0.0
H509 H 0.43554 0.66771 0.84154 0.0
H510 H 0.84774 0.45012 0.16894 0.0
H511 H 0.78692 0.42059 0.16644 0.0
H512 H 0.78742 0.47309 0.20509 0.0
H513 H 0.8485 0.50368 0.20733 0.0
H514 H 0.72989 0.40498 0.20246 0.0
H515 H 0.78853 0.49836 0.17454 0.0
H516 H 0.83108 0.53508 0.15655 0.0
H517 H 0.7869 0.46612 0.1195 0.0
H518 H 0.74442 0.42883 0.13738 0.0
H519 H 0.58483 0.39809 0.18545 0.0
H520 H 0.63706 0.40684 0.19348 0.0
H521 H 0.64424 0.37741 0.14738 0.0
H522 H 0.59355 0.37066 0.13895 0.0
H523 H 0.69778 0.43078 0.15433 0.0
H524 H 0.63437 0.33844 0.18105 0.0
H525 H 0.59213 0.30099 0.19888 0.0
H526 H 0.64356 0.36536 0.23771 0.0
H527 H 0.68589 0.40337 0.22008 0.0
C528 C 0.83497 0.45534 0.17699 0.0
C529 C 0.85307 0.47972 0.18811 0.0
C530 C 0.8002 0.43817 0.17566 0.0
C531 C 0.78288 0.44483 0.18555 0.0
C532 C 0.80046 0.46755 0.19745 0.0
C533 C 0.83536 0.48501 0.19868 0.0
C534 C 0.74745 0.43122 0.18192 0.0
C535 C 0.72265 0.41064 0.19202 0.0
C536 C 0.73829 0.4383 0.16813 0.0
C537 C 0.7636 0.46074 0.15734 0.0
C538 C 0.78811 0.49096 0.1626 0.0
C539 C 0.81217 0.51188 0.15242 0.0
C540 C 0.81177 0.50291 0.13691 0.0
C541 C 0.78723 0.47301 0.13153 0.0
C542 C 0.76316 0.45198 0.14168 0.0
C543 C 0.5973 0.39314 0.17705 0.0
C544 C 0.58518 0.38422 0.16145 0.0
C545 C 0.62697 0.39775 0.18174 0.0
C546 C 0.6447 0.3929 0.17101 0.0
C547 C 0.63108 0.38144 0.15585 0.0
C548 C 0.60176 0.37727 0.15108 0.0
C549 C 0.67948 0.40396 0.17477 0.0
C550 C 0.70451 0.4245 0.1647 0.0
C551 C 0.68859 0.39664 0.18855 0.0
C552 C 0.66316 0.37386 0.1992 0.0
C553 C 0.63653 0.34471 0.19337 0.0
C554 C 0.6126 0.32336 0.20344 0.0
C555 C 0.61512 0.33081 0.21941 0.0
C556 C 0.64163 0.35963 0.22534 0.0
C557 C 0.66562 0.38108 0.21531 0.0
H558 H 0.59657 0.31425 0.22719 0.0
H559 H 0.83041 0.51915 0.12904 0.0
H560 H 0.44972 0.90759 0.50069 0.0
H561 H 0.40001 0.85594 0.49442 0.0
H562 H 0.38464 0.88518 0.45135 0.0
H563 H 0.43317 0.93728 0.45814 0.0
H564 H 0.32768 0.84739 0.46195 0.0
H565 H 0.41988 0.84334 0.45443 0.0
H566 H 0.47265 0.85147 0.46185 0.0
H567 H 0.42451 0.79197 0.49974 0.0
H568 H 0.37154 0.78381 0.49269 0.0
H569 H 0.21141 0.69489 0.42975 0.0
H570 H 0.26334 0.74669 0.4339 0.0
H571 H 0.26951 0.72887 0.4819 0.0
H572 H 0.2177 0.67742 0.47787 0.0
H573 H 0.33182 0.76023 0.46709 0.0
H574 H 0.24016 0.7669 0.47429 0.0
H575 H 0.18824 0.75973 0.4662 0.0
H576 H 0.23736 0.81479 0.42687 0.0
H577 H 0.28947 0.82193 0.43462 0.0
C578 C 0.43563 0.903 0.48992 0.0
C579 C 0.44542 0.92655 0.47992 0.0
C580 C 0.4073 0.87332 0.48623 0.0
C581 C 0.38872 0.86613 0.47216 0.0
C582 C 0.39834 0.88983 0.46226 0.0
C583 C 0.42618 0.91969 0.46615 0.0
C584 C 0.35918 0.83411 0.46785 0.0
C585 C 0.32895 0.8285 0.46282 0.0
C586 C 0.36023 0.80902 0.46911 0.0
C587 C 0.39179 0.81315 0.4731 0.0
C588 C 0.42056 0.83206 0.46438 0.0
C589 C 0.45052 0.83669 0.46852 0.0
C590 C 0.45196 0.82232 0.48128 0.0
C591 C 0.42337 0.80312 0.48987 0.0
C592 C 0.39336 0.79845 0.48579 0.0
C593 C 0.22405 0.70196 0.44113 0.0
C594 C 0.21027 0.68209 0.4535 0.0
C595 C 0.25365 0.7316 0.44351 0.0
C596 C 0.27032 0.74182 0.45826 0.0
C597 C 0.25719 0.72162 0.47044 0.0
C598 C 0.22743 0.69224 0.46813 0.0
C599 C 0.30068 0.77381 0.46125 0.0
C600 C 0.33091 0.77931 0.46606 0.0
C601 C 0.29983 0.79883 0.45955 0.0
C602 C 0.26858 0.79465 0.45493 0.0
C603 C 0.2398 0.77726 0.46384 0.0
C604 C 0.21036 0.77324 0.45933 0.0
C605 C 0.20947 0.78672 0.446 0.0
C606 C 0.23807 0.80431 0.43718 0.0
C607 C 0.26756 0.80836 0.44163 0.0
H608 H 0.18666 0.78359 0.44253 0.0
H609 H 0.47521 0.82602 0.48451 0.0
H610 H 0.58746 0.37513 0.84413 0.0
H611 H 0.59232 0.33559 0.83459 0.0
H612 H 0.4855 0.26889 0.83695 0.0
H613 H 0.48031 0.30829 0.84627 0.0
H614 H 0.51692 0.2469 0.84821 0.0
H615 H 0.52315 0.29628 0.80194 0.0
H616 H 0.54462 0.33951 0.78517 0.0
H617 H 0.64203 0.35944 0.78695 0.0
H618 H 0.62124 0.31655 0.80393 0.0
H619 H 0.50074 0.12921 0.80049 0.0
H620 H 0.49697 0.16845 0.81169 0.0
H621 H 0.6041 0.23399 0.81011 0.0
H622 H 0.60825 0.19479 0.79925 0.0
H623 H 0.57299 0.25669 0.79866 0.0
H624 H 0.56613 0.20644 0.84467 0.0
H625 H 0.54415 0.16291 0.86128 0.0
H626 H 0.44731 0.14418 0.85975 0.0
H627 H 0.4686 0.18738 0.84294 0.0
C628 C 0.56489 0.35213 0.8425 0.0
C629 C 0.53345 0.34514 0.84598 0.0
C630 C 0.56774 0.32944 0.83706 0.0
C631 C 0.53925 0.29913 0.83487 0.0
C632 C 0.50792 0.29199 0.83855 0.0
C633 C 0.50503 0.31465 0.84397 0.0
C634 C 0.54202 0.27493 0.82868 0.0
C635 C 0.52882 0.24891 0.83727 0.0
C636 C 0.55814 0.27762 0.81456 0.0
C637 C 0.57072 0.30341 0.80434 0.0
C638 C 0.54922 0.31004 0.79886 0.0
C639 C 0.56125 0.33445 0.7893 0.0
C640 C 0.59469 0.35227 0.78503 0.0
C641 C 0.61615 0.34565 0.79029 0.0
C642 C 0.60425 0.32128 0.79987 0.0
C643 C 0.52365 0.15179 0.80277 0.0
C644 C 0.55483 0.15858 0.79888 0.0
C645 C 0.5214 0.17434 0.80914 0.0
C646 C 0.55025 0.20432 0.81183 0.0
C647 C 0.58141 0.21114 0.80809 0.0
C648 C 0.58371 0.1886 0.8018 0.0
C649 C 0.54792 0.22867 0.8182 0.0
C650 C 0.56116 0.2547 0.80962 0.0
C651 C 0.53176 0.22594 0.83231 0.0
C652 C 0.51888 0.19996 0.84241 0.0
C653 C 0.54007 0.19289 0.84777 0.0
C654 C 0.52775 0.1683 0.85724 0.0
C655 C 0.49433 0.15074 0.86153 0.0
C656 C 0.47318 0.15778 0.8564 0.0
C657 C 0.48537 0.18233 0.84691 0.0
H658 H 0.48485 0.13172 0.86887 0.0
H659 H 0.60396 0.37115 0.77762 0.0
H660 H 0.50686 0.83814 0.52907 0.0
H661 H 0.50334 0.79337 0.53559 0.0
H662 H 0.58661 0.82201 0.50625 0.0
H663 H 0.5902 0.86665 0.49967 0.0
H664 H 0.54024 0.76275 0.50211 0.0
H665 H 0.59549 0.83243 0.54673 0.0
H666 H 0.60141 0.86617 0.56839 0.0
H667 H 0.51195 0.79106 0.58837 0.0
H668 H 0.50523 0.75695 0.56669 0.0
H669 H 0.58709 0.67313 0.53028 0.0
H670 H 0.58584 0.71523 0.52363 0.0
H671 H 0.50238 0.68213 0.5536 0.0
H672 H 0.50351 0.63989 0.56033 0.0
H673 H 0.54607 0.74215 0.55749 0.0
H674 H 0.49188 0.67209 0.51327 0.0
H675 H 0.48601 0.63848 0.49156 0.0
H676 H 0.57346 0.71431 0.47078 0.0
H677 H 0.58013 0.74831 0.49249 0.0
C678 C 0.52448 0.83495 0.52403 0.0
C679 C 0.54888 0.85613 0.51386 0.0
C680 C 0.52245 0.80931 0.52778 0.0
C681 C 0.54501 0.80441 0.5216 0.0
C682 C 0.56887 0.82516 0.51118 0.0
C683 C 0.57081 0.85069 0.50737 0.0
C684 C 0.54417 0.77796 0.52608 0.0
C685 C 0.54189 0.75848 0.51422 0.0
C686 C 0.54551 0.77179 0.54189 0.0
C687 C 0.54967 0.79221 0.555 0.0
C688 C 0.57695 0.82315 0.55568 0.0
C689 C 0.58047 0.84234 0.56797 0.0
C690 C 0.55702 0.83078 0.57972 0.0
C691 C 0.53006 0.79999 0.57924 0.0
C692 C 0.5264 0.78072 0.56696 0.0
C693 C 0.56825 0.6746 0.53537 0.0
C694 C 0.54525 0.65289 0.54578 0.0
C695 C 0.56758 0.69877 0.53156 0.0
C696 C 0.54367 0.70172 0.5379 0.0
C697 C 0.52106 0.68041 0.54851 0.0
C698 C 0.5218 0.65627 0.55239 0.0
C699 C 0.5424 0.72707 0.53351 0.0
C700 C 0.54428 0.74634 0.54538 0.0
C701 C 0.54071 0.73307 0.5177 0.0
C702 C 0.53667 0.7127 0.50459 0.0
C703 C 0.51 0.68156 0.50413 0.0
C704 C 0.5065 0.66244 0.49181 0.0
C705 C 0.52939 0.67424 0.47981 0.0
C706 C 0.55577 0.70519 0.48009 0.0
C707 C 0.5594 0.72441 0.49239 0.0
H708 H 0.52665 0.6594 0.47029 0.0
H709 H 0.55978 0.84567 0.58922 0.0
H710 H 0.62943 0.4837 0.86508 0.0
H711 H 0.67811 0.48357 0.86813 0.0
H712 H 0.7431 0.57818 0.85815 0.0
H713 H 0.69403 0.57812 0.85466 0.0
H714 H 0.7714 0.55603 0.84579 0.0
H715 H 0.73019 0.54369 0.89759 0.0
H716 H 0.68781 0.5197 0.91787 0.0
H717 H 0.67432 0.43579 0.90888 0.0
H718 H 0.71627 0.45915 0.88837 0.0
H719 H 0.9236 0.57777 0.87007 0.0
H720 H 0.87536 0.57836 0.8672 0.0
H721 H 0.80986 0.4843 0.87806 0.0
H722 H 0.85821 0.48387 0.8817 0.0
H723 H 0.7818 0.50635 0.89009 0.0
H724 H 0.82165 0.51773 0.83819 0.0
H725 H 0.86254 0.5406 0.81725 0.0
H726 H 0.87752 0.62524 0.826 0.0
H727 H 0.83699 0.60297 0.84712 0.0
C728 C 0.65397 0.50469 0.8635 0.0
C729 C 0.65677 0.53096 0.85959 0.0
C730 C 0.68243 0.50467 0.86543 0.0
C731 C 0.71572 0.53105 0.86381 0.0
C732 C 0.71851 0.55723 0.85965 0.0
C733 C 0.68995 0.55722 0.85765 0.0
C734 C 0.74704 0.53127 0.8663 0.0
C735 C 0.77355 0.54547 0.85569 0.0
C736 C 0.75101 0.51707 0.87888 0.0
C737 C 0.72619 0.50311 0.89136 0.0
C738 C 0.71809 0.52008 0.89989 0.0
C739 C 0.69415 0.5066 0.91143 0.0
C740 C 0.6784 0.47625 0.91466 0.0
C741 C 0.68656 0.45931 0.90636 0.0
C742 C 0.71043 0.47266 0.89479 0.0
C743 C 0.89921 0.55701 0.87205 0.0
C744 C 0.89631 0.53072 0.87617 0.0
C745 C 0.87085 0.55727 0.87011 0.0
C746 C 0.83747 0.53119 0.87198 0.0
C747 C 0.8345 0.50505 0.87633 0.0
C748 C 0.86286 0.50477 0.8783 0.0
C749 C 0.80623 0.53116 0.86958 0.0
C750 C 0.77971 0.51698 0.88021 0.0
C751 C 0.80219 0.54531 0.857 0.0
C752 C 0.82657 0.55878 0.84434 0.0
C753 C 0.83385 0.54128 0.83572 0.0
C754 C 0.85693 0.55413 0.82381 0.0
C755 C 0.87269 0.58438 0.82033 0.0
C756 C 0.86534 0.60183 0.82872 0.0
C757 C 0.8423 0.5891 0.84066 0.0
H758 H 0.89055 0.59428 0.8111 0.0
H759 H 0.65988 0.46585 0.92359 0.0
H760 H 0.12583 0.65254 0.18248 0.0
H761 H 0.17863 0.70266 0.18762 0.0
H762 H 0.23308 0.66895 0.17165 0.0
H763 H 0.18017 0.6185 0.16645 0.0
H764 H 0.26033 0.70349 0.19915 0.0
H765 H 0.2271 0.71356 0.14898 0.0
H766 H 0.18886 0.71004 0.12909 0.0
H767 H 0.1819 0.77235 0.15689 0.0
H768 H 0.21973 0.77589 0.17707 0.0
H769 H 0.41723 0.85063 0.19548 0.0
H770 H 0.36647 0.79937 0.18969 0.0
H771 H 0.30616 0.82804 0.20378 0.0
H772 H 0.35681 0.87928 0.20986 0.0
H773 H 0.28305 0.79545 0.17626 0.0
H774 H 0.31546 0.78396 0.22682 0.0
H775 H 0.35359 0.78691 0.24656 0.0
H776 H 0.3625 0.72698 0.21763 0.0
H777 H 0.32477 0.724 0.1976 0.0
C778 C 0.14897 0.65571 0.17997 0.0
C779 C 0.14863 0.63139 0.174 0.0
C780 C 0.17921 0.68449 0.18289 0.0
C781 C 0.20991 0.68973 0.17994 0.0
C782 C 0.20974 0.66551 0.17401 0.0
C783 C 0.17942 0.6367 0.17097 0.0
C784 C 0.24206 0.7204 0.18328 0.0
C785 C 0.26555 0.72354 0.19395 0.0
C786 C 0.24867 0.74671 0.17675 0.0
C787 C 0.22601 0.74476 0.16461 0.0
C788 C 0.2172 0.72632 0.15092 0.0
C789 C 0.19564 0.72436 0.13958 0.0
C790 C 0.1829 0.74091 0.14174 0.0
C791 C 0.19176 0.75952 0.15524 0.0
C792 C 0.21329 0.76153 0.16663 0.0
C793 C 0.39324 0.846 0.19766 0.0
C794 C 0.39133 0.86931 0.20319 0.0
C795 C 0.36414 0.8166 0.19425 0.0
C796 C 0.33236 0.80968 0.19634 0.0
C797 C 0.33033 0.83277 0.20199 0.0
C798 C 0.35941 0.86215 0.20544 0.0
C799 C 0.30124 0.77863 0.19228 0.0
C800 C 0.27792 0.77541 0.18144 0.0
C801 C 0.29487 0.75226 0.19862 0.0
C802 C 0.31758 0.75403 0.21063 0.0
C803 C 0.32578 0.77162 0.2246 0.0
C804 C 0.34728 0.77326 0.23586 0.0
C805 C 0.36054 0.75722 0.23333 0.0
C806 C 0.35226 0.73944 0.21956 0.0
C807 C 0.3308 0.73775 0.20826 0.0
H808 H 0.37717 0.7585 0.24206 0.0
H809 H 0.16621 0.73937 0.13295 0.0
H810 H 0.46204 0.14776 0.50611 0.0
H811 H 0.4682 0.19335 0.51534 0.0
H812 H 0.57434 0.24708 0.50811 0.0
H813 H 0.56856 0.20134 0.49936 0.0
H814 H 0.56287 0.26356 0.53531 0.0
H815 H 0.52051 0.2477 0.48277 0.0
H816 H 0.48171 0.21897 0.46018 0.0
H817 H 0.40097 0.20631 0.486 0.0
H818 H 0.4392 0.23461 0.50884 0.0
H819 H 0.59294 0.40688 0.54359 0.0
H820 H 0.58769 0.3626 0.53262 0.0
H821 H 0.48177 0.30647 0.54059 0.0
H822 H 0.48683 0.35058 0.55172 0.0
H823 H 0.49401 0.29194 0.51249 0.0
H824 H 0.53633 0.30685 0.5652 0.0
H825 H 0.57528 0.33572 0.58773 0.0
H826 H 0.65639 0.35032 0.56139 0.0
H827 H 0.61799 0.32188 0.53861 0.0
C828 C 0.48679 0.1692 0.5066 0.0
C829 C 0.5148 0.17072 0.50196 0.0
C830 C 0.49021 0.19539 0.51173 0.0
C831 C 0.52169 0.22386 0.51226 0.0
C832 C 0.54975 0.22546 0.50775 0.0
C833 C 0.54635 0.19926 0.50262 0.0
C834 C 0.52538 0.25183 0.51774 0.0
C835 C 0.54816 0.26998 0.53014 0.0
C836 C 0.50571 0.26001 0.51128 0.0
C837 C 0.48266 0.24303 0.49756 0.0
C838 C 0.49442 0.23858 0.48367 0.0
C839 C 0.47254 0.22241 0.47082 0.0
C840 C 0.43888 0.21075 0.47167 0.0
C841 C 0.42704 0.21531 0.48537 0.0
C842 C 0.44881 0.23144 0.49827 0.0
C843 C 0.5685 0.38512 0.54308 0.0
C844 C 0.54035 0.38242 0.54867 0.0
C845 C 0.56554 0.35977 0.53677 0.0
C846 C 0.5344 0.331 0.53596 0.0
C847 C 0.50608 0.32836 0.54107 0.0
C848 C 0.50901 0.35371 0.54739 0.0
C849 C 0.53145 0.30359 0.53007 0.0
C850 C 0.50879 0.28555 0.51761 0.0
C851 C 0.55125 0.29551 0.53646 0.0
C852 C 0.57435 0.31251 0.55015 0.0
C853 C 0.56252 0.31642 0.56418 0.0
C854 C 0.58449 0.33267 0.57699 0.0
C855 C 0.61831 0.34492 0.57598 0.0
C856 C 0.6302 0.34087 0.56215 0.0
C857 C 0.60835 0.32466 0.54928 0.0
H858 H 0.63527 0.35749 0.58592 0.0
H859 H 0.42198 0.19825 0.4617 0.0
H860 H 0.44079 0.48145 0.87284 0.0
H861 H 0.39238 0.48219 0.87567 0.0
H862 H 0.44541 0.56762 0.85346 0.0
H863 H 0.49423 0.56732 0.8511 0.0
H864 H 0.41167 0.57233 0.87325 0.0
H865 H 0.3717 0.48927 0.83647 0.0
H866 H 0.35882 0.44077 0.82633 0.0
H867 H 0.29465 0.39516 0.86475 0.0
H868 H 0.30747 0.44348 0.87522 0.0
H869 H 0.26632 0.57034 0.86186 0.0
H870 H 0.31456 0.56967 0.85927 0.0
H871 H 0.26277 0.48586 0.88286 0.0
H872 H 0.21423 0.48629 0.88546 0.0
H873 H 0.29585 0.48041 0.86232 0.0
H874 H 0.33602 0.56449 0.89876 0.0
H875 H 0.34912 0.61335 0.90835 0.0
H876 H 0.41323 0.65754 0.86975 0.0
H877 H 0.40014 0.60884 0.85978 0.0
C878 C 0.44239 0.50048 0.86847 0.0
C879 C 0.47238 0.52423 0.86162 0.0
C880 C 0.41403 0.5008 0.86998 0.0
C881 C 0.41358 0.52469 0.86454 0.0
C882 C 0.44376 0.54858 0.85786 0.0
C883 C 0.47219 0.54834 0.85642 0.0
C884 C 0.38248 0.52508 0.86595 0.0
C885 C 0.38652 0.5521 0.87059 0.0
C886 C 0.34856 0.49909 0.86294 0.0
C887 C 0.34083 0.47004 0.85671 0.0
C888 C 0.35502 0.46893 0.84281 0.0
C889 C 0.34771 0.44147 0.837 0.0
C890 C 0.32601 0.41492 0.84492 0.0
C891 C 0.3115 0.41576 0.85864 0.0
C892 C 0.31877 0.44317 0.86452 0.0
C893 C 0.26484 0.55176 0.86678 0.0
C894 C 0.23504 0.52849 0.87404 0.0
C895 C 0.29318 0.55143 0.86527 0.0
C896 C 0.29395 0.52799 0.87108 0.0
C897 C 0.26411 0.50453 0.87815 0.0
C898 C 0.23569 0.5048 0.87963 0.0
C899 C 0.32506 0.52763 0.86964 0.0
C900 C 0.32101 0.50062 0.86499 0.0
C901 C 0.35899 0.55369 0.87254 0.0
C902 C 0.3668 0.58295 0.87844 0.0
C903 C 0.35271 0.58458 0.89225 0.0
C904 C 0.36016 0.61225 0.89776 0.0
C905 C 0.3819 0.63851 0.88963 0.0
C906 C 0.39632 0.63716 0.876 0.0
C907 C 0.3889 0.60954 0.87042 0.0
H908 H 0.38765 0.65991 0.89392 0.0
H909 H 0.32037 0.39368 0.8404 0.0
H910 H 0.98633 0.42549 0.15845 0.0
H911 H 0.9371 0.37395 0.1631 0.0
H912 H 0.88849 0.40995 0.18414 0.0
H913 H 0.93768 0.46138 0.17982 0.0
H914 H 0.88063 0.36811 0.20164 0.0
H915 H 0.86571 0.37391 0.14685 0.0
H916 H 0.88184 0.38278 0.1193 0.0
H917 H 0.89463 0.31228 0.119 0.0
H918 H 0.879 0.30326 0.14662 0.0
H919 H 0.71502 0.22925 0.2023 0.0
H920 H 0.76483 0.28049 0.19779 0.0
H921 H 0.81417 0.24359 0.17897 0.0
H922 H 0.76475 0.19237 0.18365 0.0
H923 H 0.82193 0.28558 0.16038 0.0
H924 H 0.83567 0.27936 0.21519 0.0
H925 H 0.81953 0.27081 0.24274 0.0
H926 H 0.80865 0.34249 0.24295 0.0
H927 H 0.82424 0.35118 0.21531 0.0
C928 C 0.96504 0.42243 0.16392 0.0
C929 C 0.96608 0.44768 0.16872 0.0
C930 C 0.9368 0.39288 0.16656 0.0
C931 C 0.9088 0.38787 0.1739 0.0
C932 C 0.90969 0.41307 0.17851 0.0
C933 C 0.9379 0.44256 0.17595 0.0
C934 C 0.87895 0.35653 0.17719 0.0
C935 C 0.86753 0.35021 0.19255 0.0
C936 C 0.86219 0.3328 0.16547 0.0
C937 C 0.87152 0.33813 0.14885 0.0
C938 C 0.87222 0.36046 0.14095 0.0
C939 C 0.88122 0.36549 0.12531 0.0
C940 C 0.88934 0.34817 0.11742 0.0
C941 C 0.88839 0.32572 0.12513 0.0
C942 C 0.87943 0.32062 0.14077 0.0
C943 C 0.73663 0.23199 0.19745 0.0
C944 C 0.73564 0.20647 0.19333 0.0
C945 C 0.76514 0.26139 0.19481 0.0
C946 C 0.79344 0.26605 0.18807 0.0
C947 C 0.79266 0.24067 0.1841 0.0
C948 C 0.76424 0.21131 0.18675 0.0
C949 C 0.82355 0.29724 0.18481 0.0
C950 C 0.83502 0.30351 0.16946 0.0
C951 C 0.84029 0.32095 0.19652 0.0
C952 C 0.83076 0.31568 0.21312 0.0
C953 C 0.82952 0.29311 0.22106 0.0
C954 C 0.82054 0.28828 0.23671 0.0
C955 C 0.81297 0.30604 0.24458 0.0
C956 C 0.81446 0.32872 0.23683 0.0
C957 C 0.82338 0.33361 0.22118 0.0
H958 H 0.80604 0.30227 0.25669 0.0
H959 H 0.89631 0.35209 0.10531 0.0
H960 H 0.04867 0.51107 0.12342 0.0
H961 H 0.05156 0.5088 0.09485 0.0
H962 H 0.04246 0.58169 0.09198 0.0
H963 H 0.04147 0.58505 0.12045 0.0
H964 H 1.0131 0.49613 0.07129 0.0
H965 H 0.07994 0.62361 0.0612 0.0
H966 H 0.11974 0.67321 0.07511 0.0
H967 H 0.15959 0.6359 0.10151 0.0
H968 H 0.12035 0.5862 0.08762 0.0
H969 H 1.00403 0.51479 0.98967 0.0
H970 H 1.00087 0.5175 0.01822 0.0
H971 H 0.10745 0.5642 0.02289 0.0
H972 H 0.11081 0.56202 0.99449 0.0
H973 H 0.08986 0.58966 0.04261 0.0
H974 H 0.05251 0.4889 0.02987 0.0
H975 H 1.01823 0.43824 0.01648 0.0
H976 H 0.9296 0.42076 0.03625 0.0
H977 H 0.96333 0.47154 0.0496 0.0
C978 C 0.04755 0.52674 0.11667 0.0
C979 C 0.04527 0.54849 0.12422 0.0
C980 C 0.04901 0.52534 0.10029 0.0
C981 C 0.04787 0.54545 0.09108 0.0
C982 C 0.04443 0.56647 0.09868 0.0
C983 C 0.04364 0.56826 0.11502 0.0
C984 C 0.05041 0.54458 0.07361 0.0
C985 C 1.02986 0.51666 0.06507 0.0
C986 C 0.07272 0.57115 0.0653 0.0
C987 C 0.09699 0.60112 0.07346 0.0
C988 C 0.09733 0.62604 0.06991 0.0
C989 C 0.11976 0.65416 0.07781 0.0
C990 C 0.14211 0.65768 0.08923 0.0
C991 C 0.1422 0.63312 0.09271 0.0
C992 C 0.11985 0.60497 0.08483 0.0
C993 C 1.02683 0.52592 0.99677 0.0
C994 C 0.05763 0.53796 0.98972 0.0
C995 C 1.02497 0.52724 0.01313 0.0
C996 C 0.05388 0.54074 0.02284 0.0
C997 C 0.08473 0.55355 0.01577 0.0
C998 C 0.08657 0.55209 0.99947 0.0
C999 C 0.05216 0.54133 0.04032 0.0
C1000 C 0.07293 0.5692 0.04885 0.0
C1001 C 0.03081 0.51463 0.04864 0.0
C1002 C 1.01039 0.48416 0.04058 0.0
C1003 C 1.02566 0.47437 0.03125 0.0
C1004 C 1.00635 0.44561 0.02369 0.0
C1005 C 0.97174 0.42633 0.02547 0.0
C1006 C 0.9564 0.43575 0.03485 0.0
C1007 C 0.9756 0.46451 0.04242 0.0
H1008 H 0.95683 0.40406 0.01962 0.0
H1009 H 0.15938 0.67944 0.09536 0.0
H1010 H 0.50181 0.00715 0.44535 0.0
H1011 H 0.49682 0.00908 0.41695 0.0
H1012 H 0.59433 0.02949 0.41184 0.0
H1013 H 0.59977 0.02852 0.4401 0.0
H1014 H 0.5889 0.06335 0.39379 0.0
H1015 H 0.51856 0.95667 0.40407 0.0
H1016 H 0.47244 0.91125 0.41688 0.0
H1017 H 0.40197 0.92305 0.39694 0.0
H1018 H 0.44777 0.96882 0.38419 0.0
H1019 H 0.58904 0.02588 0.31478 0.0
H1020 H 0.58584 0.02304 0.34315 0.0
H1021 H 0.49406 0.01438 0.34129 0.0
H1022 H 0.49672 0.01663 0.31272 0.0
H1023 H 0.49271 0.97605 0.36271 0.0
H1024 H 0.56365 0.08117 0.35102 0.0
H1025 H 0.61037 0.12646 0.3384 0.0
H1026 H 0.68036 0.11699 0.36118 0.0
H1027 H 0.634 0.07135 0.37376 0.0
C1028 C 0.52218 0.01218 0.43813 0.0
C1029 C 0.55109 0.01752 0.44491 0.0
C1030 C 0.51926 0.01312 0.4219 0.0
C1031 C 0.545 0.01899 0.41216 0.0
C1032 C 0.5741 0.02489 0.41904 0.0
C1033 C 0.57715 0.02424 0.43521 0.0
C1034 C 0.54196 0.01892 0.39482 0.0
C1035 C 0.56798 0.0441 0.38703 0.0
C1036 C 0.51426 0.9942 0.38592 0.0
C1037 C 0.48663 0.96634 0.39331 0.0
C1038 C 0.49325 0.94967 0.40249 0.0
C1039 C 0.46717 0.92386 0.40973 0.0
C1040 C 0.43431 0.91433 0.40777 0.0
C1041 C 0.42745 0.9305 0.39848 0.0
C1042 C 0.45345 0.95636 0.39123 0.0
C1043 C 0.56778 0.02276 0.32032 0.0
C1044 C 0.54315 0.02153 0.31143 0.0
C1045 C 0.56616 0.02142 0.33659 0.0
C1046 C 0.53994 0.01888 0.34438 0.0
C1047 C 0.51459 0.01646 0.33554 0.0
C1048 C 0.51627 0.01795 0.31922 0.0
C1049 C 0.54004 0.02014 0.36177 0.0
C1050 C 0.51348 0.9953 0.36953 0.0
C1051 C 0.56734 0.04509 0.37068 0.0
C1052 C 0.59531 0.07269 0.36323 0.0
C1053 C 0.58898 0.08861 0.35325 0.0
C1054 C 0.6154 0.11437 0.34612 0.0
C1055 C 0.64831 0.12456 0.34896 0.0
C1056 C 0.65486 0.10906 0.35898 0.0
C1057 C 0.62852 0.08326 0.36612 0.0
H1058 H 0.66873 0.14451 0.34343 0.0
H1059 H 0.41416 0.89437 0.41341 0.0
H1060 H 0.60614 0.55308 0.81378 0.0
H1061 H 0.61223 0.56148 0.78558 0.0
H1062 H 0.50691 0.48983 0.77772 0.0
H1063 H 0.50077 0.48143 0.80565 0.0
H1064 H 0.54336 0.48325 0.75766 0.0
H1065 H 0.53678 0.56372 0.77497 0.0
H1066 H 0.55306 0.60916 0.79074 0.0
H1067 H 0.65254 0.65855 0.77337 0.0
H1068 H 0.63672 0.61331 0.75743 0.0
H1069 H 0.50711 0.50372 0.68167 0.0
H1070 H 0.51046 0.50115 0.70997 0.0
H1071 H 0.61686 0.57167 0.7101 0.0
H1072 H 0.61359 0.57476 0.68172 0.0
H1073 H 0.58633 0.58087 0.734 0.0
H1074 H 0.58897 0.5001 0.71406 0.0
H1075 H 0.5699 0.4543 0.69782 0.0
H1076 H 0.47554 0.4045 0.7204 0.0
H1077 H 0.49386 0.45014 0.73663 0.0
C1078 C 0.58431 0.53936 0.80601 0.0
C1079 C 0.55301 0.51656 0.8119 0.0
C1080 C 0.58778 0.54418 0.78992 0.0
C1081 C 0.56 0.52626 0.7795 0.0
C1082 C 0.52873 0.50382 0.78548 0.0
C1083 C 0.52526 0.49909 0.80147 0.0
C1084 C 0.56323 0.52998 0.76231 0.0
C1085 C 0.55253 0.50456 0.7525 0.0
C1086 C 0.576 0.55793 0.75554 0.0
C1087 C 0.58569 0.58507 0.76516 0.0
C1088 C 0.56219 0.58421 0.77461 0.0
C1089 C 0.57131 0.60995 0.78354 0.0
C1090 C 0.60389 0.6367 0.78314 0.0
C1091 C 0.62734 0.6378 0.77371 0.0
C1092 C 0.61829 0.61214 0.76468 0.0
C1093 C 0.53122 0.5188 0.68771 0.0
C1094 C 0.56009 0.53941 0.67941 0.0
C1095 C 0.53314 0.51716 0.70389 0.0
C1096 C 0.56397 0.53604 0.71216 0.0
C1097 C 0.59283 0.55683 0.70396 0.0
C1098 C 0.59096 0.55838 0.68773 0.0
C1099 C 0.56581 0.53396 0.72937 0.0
C1100 C 0.57752 0.55966 0.73918 0.0
C1101 C 0.55376 0.50618 0.73616 0.0
C1102 C 0.54271 0.47862 0.72648 0.0
C1103 C 0.56406 0.47945 0.71548 0.0
C1104 C 0.5534 0.4535 0.70629 0.0
C1105 C 0.5215 0.42652 0.70806 0.0
C1106 C 0.50023 0.42542 0.71904 0.0
C1107 C 0.51076 0.45131 0.72826 0.0
H1108 H 0.51329 0.40646 0.70093 0.0
H1109 H 0.61092 0.6566 0.79009 0.0
H1110 H 0.5799 0.03342 0.53327 0.0
H1111 H 0.58639 0.03184 0.56159 0.0
H1112 H 0.48299 0.99586 0.56711 0.0
H1113 H 0.47657 0.99769 0.53897 0.0
H1114 H 0.52133 0.04064 0.58809 0.0
H1115 H 0.50965 0.95074 0.57055 0.0
H1116 H 0.52298 0.92055 0.55536 0.0
H1117 H 0.62291 0.97565 0.57532 0.0
H1118 H 0.61018 1.00625 0.5906 0.0
H1119 H 0.49558 0.99057 0.66543 0.0
H1120 H 0.49374 0.99304 0.63703 0.0
H1121 H 0.5988 0.03255 0.63573 0.0
H1122 H 0.60067 0.02952 0.66415 0.0
H1123 H 0.56309 0.98838 0.61271 0.0
H1124 H 0.57285 0.07636 0.63148 0.0
H1125 H 0.55794 0.10479 0.64721 0.0
H1126 H 0.46027 0.0523 0.62484 0.0
H1127 H 0.47444 0.02325 0.60912 0.0
C1128 C 0.55854 0.02498 0.54054 0.0
C1129 C 0.52775 0.01575 0.53392 0.0
C1130 C 0.56222 0.02398 0.55672 0.0
C1131 C 0.53513 0.01361 0.56654 0.0
C1132 C 0.50431 1.00406 0.55984 0.0
C1133 C 0.50064 1.00504 0.54373 0.0
C1134 C 0.53891 0.01362 0.58385 0.0
C1135 C 0.5301 0.02889 0.59345 0.0
C1136 C 0.5512 0.99903 0.59092 0.0
C1137 C 0.55907 0.98098 0.58158 0.0
C1138 C 0.53455 0.95658 0.57159 0.0
C1139 C 0.54197 0.93933 0.56301 0.0
C1140 C 0.57381 0.94624 0.56434 0.0
C1141 C 0.59827 0.97036 0.57429 0.0
C1142 C 0.59095 0.98761 0.58294 0.0
C1143 C 0.51829 0.99967 0.65911 0.0
C1144 C 0.5483 0.00992 0.66712 0.0
C1145 C 0.51726 1.00128 0.64286 0.0
C1146 C 0.54621 0.01324 0.63421 0.0
C1147 C 0.57616 0.02331 0.64214 0.0
C1148 C 0.57725 0.02182 0.65841 0.0
C1149 C 0.54508 0.01504 0.61691 0.0
C1150 C 0.55446 1.00022 0.60732 0.0
C1151 C 0.53318 0.02994 0.60983 0.0
C1152 C 0.52462 0.04745 0.61922 0.0
C1153 C 0.5481 0.07072 0.63 0.0
C1154 C 0.5398 0.08698 0.6389 0.0
C1155 C 0.50815 0.08031 0.63705 0.0
C1156 C 0.48476 0.05742 0.62627 0.0
C1157 C 0.49293 0.04107 0.61735 0.0
H1158 H 0.50177 0.09293 0.64395 0.0
H1159 H 0.57952 0.93288 0.55768 0.0
H1160 H 0.62972 0.56671 0.90654 0.0
H1161 H 0.62734 0.54373 0.93102 0.0
H1162 H 0.52485 0.46816 0.91979 0.0
H1163 H 0.52683 0.49129 0.8955 0.0
H1164 H 0.58436 0.52793 0.95585 0.0
H1165 H 0.51685 0.40416 0.93029 0.0
H1166 H 0.51527 0.37899 0.90551 0.0
H1167 H 0.61356 0.45747 0.89536 0.0
H1168 H 0.61599 0.48288 0.92015 0.0
H1169 H 0.50265 0.4288 0.01522 0.0
H1170 H 0.51462 0.45032 0.98962 0.0
H1171 H 0.58962 0.43543 0.98353 0.0
H1172 H 0.57672 0.41245 0.00903 0.0
H1173 H 0.55496 0.4244 0.95611 0.0
H1174 H 0.61402 0.50407 0.99533 0.0
H1175 H 0.62151 0.53256 0.01986 0.0
H1176 H 0.55202 0.54791 1.00263 0.0
H1177 H 0.54372 0.5191 0.97808 0.0
C1178 C 0.60665 0.54528 0.90936 0.0
C1179 C 0.57848 0.53065 0.89915 0.0
C1180 C 0.60536 0.53221 0.9233 0.0
C1181 C 0.57606 0.50415 0.92707 0.0
C1182 C 0.54782 0.48966 0.91695 0.0
C1183 C 0.54895 0.5029 0.90313 0.0
C1184 C 0.57452 0.49014 0.94176 0.0
C1185 C 0.57807 0.50536 0.95594 0.0
C1186 C 0.5674 0.46113 0.94178 0.0
C1187 C 0.56646 0.4455 0.92706 0.0
C1188 C 0.53822 0.41595 0.92283 0.0
C1189 C 0.53716 0.40166 0.90876 0.0
C1190 C 0.56428 0.41664 0.89887 0.0
C1191 C 0.59254 0.44591 0.90301 0.0
C1192 C 0.59374 0.46027 0.91706 0.0
C1193 C 0.52109 0.4293 0.00833 0.0
C1194 C 0.53879 0.41894 0.01425 0.0
C1195 C 0.52817 0.44195 0.99374 0.0
C1196 C 0.55343 0.44497 0.98481 0.0
C1197 C 0.57017 0.43347 0.9903 0.0
C1198 C 0.56297 0.42061 0.00492 0.0
C1199 C 0.56335 0.4617 0.97021 0.0
C1200 C 0.56148 0.44705 0.95604 0.0
C1201 C 0.57299 0.49168 0.9702 0.0
C1202 C 0.57808 0.50924 0.9849 0.0
C1203 C 0.60016 0.51334 0.99681 0.0
C1204 C 0.60457 0.52957 0.01071 0.0
C1205 C 0.58721 0.54199 0.01281 0.0
C1206 C 0.56545 0.53826 1.00099 0.0
C1207 C 0.5609 0.52201 0.98707 0.0
H1208 H 0.59066 0.55455 0.02358 0.0
H1209 H 0.56345 0.40554 0.888 0.0
H1210 H 0.05956 0.48752 0.21417 0.0
H1211 H 0.05582 0.48884 0.24254 0.0
H1212 H 0.06567 0.57207 0.24102 0.0
H1213 H 0.07036 0.57123 0.21248 0.0
H1214 H 0.10259 0.5754 0.26482 0.0
H1215 H 0.98977 0.50458 0.2469 0.0
H1216 H 0.94225 0.46062 0.23163 0.0
H1217 H 0.95629 0.40119 0.25514 0.0
H1218 H 1.0043 0.44486 0.27038 0.0
H1219 H 0.04966 0.55746 0.34526 0.0
H1220 H 0.05401 0.56411 0.31697 0.0
H1221 H 0.0577 0.48821 0.31052 0.0
H1222 H 0.05447 0.48199 0.33865 0.0
H1223 H 1.01018 0.48423 0.29083 0.0
H1224 H 0.12663 0.55782 0.30717 0.0
H1225 H 0.17336 0.60277 0.32227 0.0
H1226 H 0.14954 0.65805 0.30175 0.0
H1227 H 0.10235 0.6133 0.28668 0.0
C1228 C 0.06093 0.50612 0.21986 0.0
C1229 C 0.06508 0.52919 0.2111 0.0
C1230 C 0.05861 0.50678 0.2361 0.0
C1231 C 0.05989 0.53029 0.24396 0.0
C1232 C 0.06447 0.55363 0.23524 0.0
C1233 C 0.06699 0.55306 0.21894 0.0
C1234 C 0.05666 0.53031 0.26126 0.0
C1235 C 0.08203 0.55566 0.27049 0.0
C1236 C 1.02996 0.50453 0.26874 0.0
C1237 C 1.00083 0.47807 0.25971 0.0
C1238 C 0.98289 0.48217 0.24875 0.0
C1239 C 0.95584 0.45729 0.2401 0.0
C1240 C 0.94629 0.42813 0.24239 0.0
C1241 C 0.96373 0.42379 0.25337 0.0
C1242 C 0.99085 0.4486 0.26203 0.0
C1243 C 0.05204 0.54254 0.33786 0.0
C1244 C 0.05135 0.51896 0.34429 0.0
C1245 C 0.05433 0.54627 0.32167 0.0
C1246 C 0.05592 0.5265 0.31161 0.0
C1247 C 0.0561 0.50351 0.31803 0.0
C1248 C 0.05412 0.49994 0.33415 0.0
C1249 C 0.05651 0.52896 0.29433 0.0
C1250 C 1.03051 0.50406 0.28513 0.0
C1251 C 0.08235 0.55528 0.28691 0.0
C1252 C 0.11073 0.58216 0.29595 0.0
C1253 C 0.13117 0.5795 0.30599 0.0
C1254 C 0.15778 0.60495 0.31452 0.0
C1255 C 0.16435 0.63323 0.31301 0.0
C1256 C 0.14438 0.63612 0.30293 0.0
C1257 C 0.11771 0.61073 0.29439 0.0
H1258 H 0.18497 0.65291 0.31962 0.0
H1259 H 0.92535 0.4089 0.23569 0.0
loop_
_geom_bond_atom_site_label_1
_geom_bond_atom_site_label_2
_geom_bond_distance
_geom_bond_site_symmetry_2
_ccdc_geom_bond_type
Ho0 C3 2.811 . S
Ho0 O20 2.322 . S
Ho0 O22 2.378 . S
Ho0 O23 2.524 . S
Ho0 O24 2.381 . S
Ho0 O25 2.669 . S
Ho0 O27 2.346 1_455 S
Ho0 O31 2.305 . S
Ho1 C12 2.811 . S
Ho1 O21 2.346 1_655 S
Ho1 O25 2.305 1_655 S
Ho1 O26 2.322 . S
Ho1 O28 2.378 . S
Ho1 O29 2.524 . S
Ho1 O30 2.382 . S
Ho1 O31 2.669 1_655 S
C2 O20 1.259 . S
C2 O21 1.268 . S
C3 Ho0 2.811 . S
C3 C4 1.488 . S
C3 O22 1.215 . S
C3 O23 1.289 . S
C4 C3 1.488 . S
C4 C5 1.348 . S
C4 C9 1.413 . S
C5 C4 1.348 . S
C5 C6 1.442 . S
C5 H32 0.930 . S
C6 C5 1.442 . S
C6 C7 1.381 . S
C6 H33 0.931 . S
C7 C6 1.381 . S
C7 C8 1.321 . S
C8 C7 1.321 . S
C8 C9 1.403 . S
C8 H34 0.934 . S
C9 C4 1.413 . S
C9 C8 1.403 . S
C9 H35 0.930 . S
C10 O24 1.275 . S
C10 O25 1.256 . S
C11 O26 1.259 . S
C11 O27 1.268 . S
C12 Ho1 2.811 . S
C12 C13 1.488 . S
C12 O28 1.215 . S
C12 O29 1.289 . S
C13 C12 1.488 . S
C13 C14 1.348 . S
C13 C18 1.413 . S
C14 C13 1.348 . S
C14 C15 1.442 . S
C14 H36 0.930 . S
C15 C14 1.442 . S
C15 C16 1.381 . S
C15 H37 0.931 . S
C16 C15 1.381 . S
C16 C17 1.321 . S
C17 C16 1.321 . S
C17 C18 1.403 . S
C17 H38 0.934 . S
C18 C13 1.413 . S
C18 C17 1.403 . S
C18 H39 0.930 . S
C19 O30 1.267 1_455 S
C19 O31 1.256 . S
O20 Ho0 2.322 . S
O20 C2 1.259 . S
O21 Ho1 2.346 1_455 S
O21 C2 1.268 . S
O22 Ho0 2.378 . S
O22 C3 1.215 . S
O23 Ho0 2.524 . S
O23 C3 1.289 . S
O24 Ho0 2.381 . S
O24 C10 1.275 . S
O25 Ho0 2.669 . S
O25 Ho1 2.305 1_455 S
O25 C10 1.256 . S
O26 Ho1 2.322 . S
O26 C11 1.259 . S
O27 Ho0 2.346 1_655 S
O27 C11 1.268 . S
O28 Ho1 2.378 . S
O28 C12 1.215 . S
O29 Ho1 2.524 . S
O29 C12 1.289 . S
O30 Ho1 2.382 . S
O30 C19 1.267 1_655 S
O31 Ho0 2.305 . S
O31 Ho1 2.669 1_455 S
O31 C19 1.256 . S
H32 C5 0.930 . S
H33 C6 0.931 . S
H34 C8 0.934 . S
H35 C9 0.930 . S
H36 C14 0.930 . S
H37 C15 0.931 . S
H38 C17 0.934 . S
H39 C18 0.930 . S
Ho40 C43 2.811 . S
Ho40 O60 2.322 . S
Ho40 O62 2.378 . S
Ho40 O63 2.524 . S
Ho40 O64 2.381 . S
Ho40 O65 2.669 1_565 S
Ho40 O67 2.346 1_565 S
Ho40 O71 2.305 1_565 S
Ho41 C52 2.811 . S
Ho41 O61 2.346 1_545 S
Ho41 O65 2.305 . S
Ho41 O66 2.322 . S
Ho41 O68 2.378 . S
Ho41 O69 2.524 . S
Ho41 O70 2.381 . S
Ho41 O71 2.669 . S
C42 O60 1.259 . S
C42 O61 1.268 . S
C43 Ho40 2.811 . S
C43 C44 1.488 . S
C43 O62 1.215 . S
C43 O63 1.289 . S
C44 C43 1.488 . S
C44 C45 1.348 . S
C44 C49 1.413 . S
C45 C44 1.348 . S
C45 C46 1.442 . S
C45 H72 0.930 . S
C46 C45 1.442 . S
C46 C47 1.381 . S
C46 H73 0.931 . S
C47 C46 1.381 . S
C47 C48 1.321 . S
C48 C47 1.321 . S
C48 C49 1.403 . S
C48 H74 0.934 . S
C49 C44 1.413 . S
C49 C48 1.403 . S
C49 H75 0.930 . S
C50 O64 1.275 1_545 S
C50 O65 1.256 . S
C51 O66 1.259 . S
C51 O67 1.268 . S
C52 Ho41 2.811 . S
C52 C53 1.488 . S
C52 O68 1.215 . S
C52 O69 1.289 . S
C53 C52 1.488 . S
C53 C54 1.348 . S
C53 C58 1.413 . S
C54 C53 1.348 . S
C54 C55 1.442 . S
C54 H76 0.930 . S
C55 C54 1.442 . S
C55 C56 1.381 . S
C55 H77 0.931 . S
C56 C55 1.381 . S
C56 C57 1.321 . S
C57 C56 1.321 . S
C57 C58 1.403 . S
C57 H78 0.934 . S
C58 C53 1.413 . S
C58 C57 1.403 . S
C58 H79 0.930 . S
C59 O70 1.275 . S
C59 O71 1.256 . S
O60 Ho40 2.322 . S
O60 C42 1.259 . S
O61 Ho41 2.346 1_565 S
O61 C42 1.268 . S
O62 Ho40 2.378 . S
O62 C43 1.215 . S
O63 Ho40 2.524 . S
O63 C43 1.289 . S
O64 Ho40 2.381 . S
O64 C50 1.275 1_565 S
O65 Ho40 2.669 1_545 S
O65 Ho41 2.305 . S
O65 C50 1.256 . S
O66 Ho41 2.322 . S
O66 C51 1.259 . S
O67 Ho40 2.346 1_545 S
O67 C51 1.268 . S
O68 Ho41 2.378 . S
O68 C52 1.215 . S
O69 Ho41 2.524 . S
O69 C52 1.289 . S
O70 Ho41 2.381 . S
O70 C59 1.275 . S
O71 Ho40 2.305 1_545 S
O71 Ho41 2.669 . S
O71 C59 1.256 . S
H72 C45 0.930 . S
H73 C46 0.931 . S
H74 C48 0.934 . S
H75 C49 0.930 . S
H76 C54 0.930 . S
H77 C55 0.931 . S
H78 C57 0.934 . S
H79 C58 0.930 . S
Ho80 C83 2.811 . S
Ho80 O100 2.322 . S
Ho80 O102 2.378 . S
Ho80 O103 2.524 . S
Ho80 O104 2.381 . S
Ho80 O105 2.669 . S
Ho80 O107 2.346 . S
Ho80 O111 2.305 . S
Ho81 C92 2.811 . S
Ho81 O101 2.346 . S
Ho81 O105 2.305 . S
Ho81 O106 2.322 . S
Ho81 O108 2.378 . S
Ho81 O109 2.524 . S
Ho81 O110 2.381 . S
Ho81 O111 2.669 . S
C82 O100 1.259 . S
C82 O101 1.268 . S
C83 Ho80 2.811 . S
C83 C84 1.488 . S
C83 O102 1.215 . S
C83 O103 1.289 . S
C84 C83 1.488 . S
C84 C85 1.348 . S
C84 C89 1.413 . S
C85 C84 1.348 . S
C85 C86 1.442 . S
C85 H112 0.930 . S
C86 C85 1.442 . S
C86 C87 1.381 . S
C86 H113 0.931 . S
C87 C86 1.381 . S
C87 C88 1.321 . S
C88 C87 1.321 . S
C88 C89 1.403 . S
C88 H114 0.934 . S
C89 C84 1.413 . S
C89 C88 1.403 . S
C89 H115 0.930 . S
C90 O104 1.275 . S
C90 O105 1.256 . S
C91 O106 1.259 . S
C91 O107 1.268 . S
C92 Ho81 2.811 . S
C92 C93 1.488 . S
C92 O108 1.215 . S
C92 O109 1.289 . S
C93 C92 1.488 . S
C93 C94 1.348 . S
C93 C98 1.413 . S
C94 C93 1.348 . S
C94 C95 1.442 . S
C94 H116 0.930 . S
C95 C94 1.442 . S
C95 C96 1.381 . S
C95 H117 0.931 . S
C96 C95 1.381 . S
C96 C97 1.321 . S
C97 C96 1.321 . S
C97 C98 1.403 . S
C97 H118 0.934 . S
C98 C93 1.413 . S
C98 C97 1.403 . S
C98 H119 0.930 . S
C99 O110 1.275 . S
C99 O111 1.256 . S
O100 Ho80 2.322 . S
O100 C82 1.259 . S
O101 Ho81 2.346 . S
O101 C82 1.268 . S
O102 Ho80 2.378 . S
O102 C83 1.215 . S
O103 Ho80 2.524 . S
O103 C83 1.289 . S
O104 Ho80 2.381 . S
O104 C90 1.275 . S
O105 Ho80 2.669 . S
O105 Ho81 2.305 . S
O105 C90 1.256 . S
O106 Ho81 2.322 . S
O106 C91 1.259 . S
O107 Ho80 2.346 . S
O107 C91 1.268 . S
O108 Ho81 2.378 . S
O108 C92 1.215 . S
O109 Ho81 2.524 . S
O109 C92 1.289 . S
O110 Ho81 2.381 . S
O110 C99 1.275 . S
O111 Ho80 2.305 . S
O111 Ho81 2.669 . S
O111 C99 1.256 . S
H112 C85 0.930 . S
H113 C86 0.931 . S
H114 C88 0.934 . S
H115 C89 0.930 . S
H116 C94 0.930 . S
H117 C95 0.931 . S
H118 C97 0.934 . S
H119 C98 0.930 . S
C120 C121 1.264 . S
C120 C125 1.479 . S
C120 C130 1.465 . S
C121 C120 1.264 . S
C121 C123 1.339 . S
C121 H148 0.931 . S
C122 C123 1.395 . S
C122 C124 1.320 . S
C123 C121 1.339 . S
C123 C122 1.395 . S
C123 H149 0.929 . S
C124 C122 1.320 . S
C124 C125 1.405 . S
C124 H150 0.930 . S
C125 C120 1.479 . S
C125 C124 1.405 . S
C125 H151 0.931 . S
U126 O127 2.454 1_545 S
U126 O128 2.458 1_545 S
U126 C129 2.984 1_545 S
U126 C130 2.847 . S
U126 C143 2.882 . S
U126 O144 2.441 . S
U126 O145 2.420 . S
U126 O146 2.449 1_545 S
U126 O147 2.449 . S
O127 U126 2.454 1_565 S
O127 C129 1.353 . S
O128 U126 2.458 1_565 S
O128 C129 1.286 . S
C129 U126 2.984 1_565 S
C129 O127 1.353 . S
C129 O128 1.286 . S
C129 C131 1.363 . S
C130 C120 1.465 . S
C130 U126 2.847 . S
C130 O144 1.249 . S
C130 O145 1.202 . S
C131 C129 1.363 . S
C131 C133 1.408 . S
C131 C136 1.342 . S
C132 C133 1.310 . S
C132 C135 1.461 . S
C132 H152 0.932 . S
C133 C131 1.408 . S
C133 C132 1.310 . S
C133 H153 0.930 . S
C134 C135 1.474 . S
C134 C136 1.285 . S
C134 H154 0.929 . S
C135 C132 1.461 . S
C135 C134 1.474 . S
C136 C131 1.342 . S
C136 C134 1.285 . S
C136 H155 0.930 . S
C137 C140 1.424 . S
C137 C142 1.225 1_545 S
C137 C143 1.428 . S
C138 C141 1.260 . S
C138 C142 1.479 1_545 S
C138 H156 0.932 1_545 S
C139 C140 1.384 . S
C139 C141 1.479 . S
C139 H157 0.929 . S
C140 C137 1.424 . S
C140 C139 1.384 . S
C140 H158 0.928 . S
C141 C138 1.260 . S
C141 C139 1.479 . S
C142 C137 1.225 1_565 S
C142 C138 1.479 1_565 S
C142 H159 0.951 . S
C143 U126 2.882 . S
C143 C137 1.428 . S
C143 O146 1.288 1_545 S
C143 O147 1.282 . S
O144 U126 2.441 . S
O144 C130 1.249 . S
O145 U126 2.420 . S
O145 C130 1.202 . S
O146 U126 2.449 1_565 S
O146 C143 1.288 1_565 S
O147 U126 2.449 . S
O147 C143 1.282 . S
H148 C121 0.931 . S
H149 C123 0.929 . S
H150 C124 0.930 . S
H151 C125 0.931 . S
H152 C132 0.932 . S
H153 C133 0.930 . S
H154 C134 0.929 . S
H155 C136 0.930 . S
H156 C138 0.932 1_565 S
H157 C139 0.929 . S
H158 C140 0.928 . S
H159 C142 0.951 . S
C160 C161 1.264 . S
C160 C165 1.479 . S
C160 C170 1.465 . S
C161 C160 1.264 . S
C161 C163 1.339 . S
C161 H188 0.931 . S
C162 C163 1.395 . S
C162 C164 1.320 . S
C163 C161 1.339 . S
C163 C162 1.395 . S
C163 H189 0.929 . S
C164 C162 1.320 . S
C164 C165 1.405 . S
C164 H190 0.930 . S
C165 C160 1.479 . S
C165 C164 1.405 . S
C165 H191 0.931 . S
U166 O167 2.454 . S
U166 O168 2.458 . S
U166 C169 2.984 . S
U166 C170 2.847 . S
U166 C183 2.882 . S
U166 O184 2.441 . S
U166 O185 2.420 . S
U166 O186 2.455 . S
U166 O187 2.449 . S
O167 U166 2.454 . S
O167 C169 1.353 . S
O168 U166 2.458 . S
O168 C169 1.286 . S
C169 U166 2.984 . S
C169 O167 1.353 . S
C169 O168 1.286 . S
C169 C171 1.363 . S
C170 C160 1.465 . S
C170 U166 2.847 . S
C170 O184 1.249 . S
C170 O185 1.202 . S
C171 C169 1.363 . S
C171 C173 1.408 . S
C171 C176 1.342 . S
C172 C173 1.310 . S
C172 C175 1.461 . S
C172 H192 0.932 . S
C173 C171 1.408 . S
C173 C172 1.310 . S
C173 H193 0.930 . S
C174 C175 1.474 . S
C174 C176 1.285 . S
C174 H194 0.929 . S
C175 C172 1.461 . S
C175 C174 1.474 . S
C176 C171 1.342 . S
C176 C174 1.285 . S
C176 H195 0.930 . S
C177 C180 1.424 . S
C177 C182 1.245 . S
C177 C183 1.428 . S
C178 C181 1.260 . S
C178 C182 1.477 . S
C178 H196 0.932 . S
C179 C180 1.384 . S
C179 C181 1.479 . S
C179 H197 0.929 . S
C180 C177 1.424 . S
C180 C179 1.384 . S
C180 H198 0.928 . S
C181 C178 1.260 . S
C181 C179 1.479 . S
C182 C177 1.245 . S
C182 C178 1.477 . S
C182 H199 0.932 . S
C183 U166 2.882 . S
C183 C177 1.428 . S
C183 O186 1.301 . S
C183 O187 1.282 . S
O184 U166 2.441 . S
O184 C170 1.249 . S
O185 U166 2.420 . S
O185 C170 1.202 . S
O186 U166 2.455 . S
O186 C183 1.301 . S
O187 U166 2.449 . S
O187 C183 1.282 . S
H188 C161 0.931 . S
H189 C163 0.929 . S
H190 C164 0.930 . S
H191 C165 0.931 . S
H192 C172 0.932 . S
H193 C173 0.930 . S
H194 C174 0.929 . S
H195 C176 0.930 . S
H196 C178 0.932 . S
H197 C179 0.929 . S
H198 C180 0.928 . S
H199 C182 0.932 . S
C200 C201 1.264 . S
C200 C205 1.479 . S
C200 C210 1.465 . S
C201 C200 1.264 . S
C201 C203 1.339 . S
C201 H228 0.931 . S
C202 C203 1.395 . S
C202 C204 1.320 . S
C203 C201 1.339 . S
C203 C202 1.395 . S
C203 H229 0.929 . S
C204 C202 1.320 . S
C204 C205 1.405 . S
C204 H230 0.930 . S
C205 C200 1.479 . S
C205 C204 1.405 . S
C205 H231 0.931 . S
U206 O207 2.454 . S
U206 O208 2.458 . S
U206 C209 2.984 . S
U206 C210 2.847 1_455 S
U206 C223 2.882 . S
U206 O224 2.441 . S
U206 O225 2.420 1_455 S
U206 O226 2.455 . S
U206 O227 2.449 . S
O207 U206 2.454 . S
O207 C209 1.353 . S
O208 U206 2.458 . S
O208 C209 1.286 . S
C209 U206 2.984 . S
C209 O207 1.353 . S
C209 O208 1.286 . S
C209 C211 1.363 . S
C210 C200 1.465 . S
C210 U206 2.847 1_655 S
C210 O224 1.249 1_655 S
C210 O225 1.202 . S
C211 C209 1.363 . S
C211 C213 1.408 . S
C211 C216 1.342 . S
C212 C213 1.310 . S
C212 C215 1.461 . S
C212 H232 0.932 . S
C213 C211 1.408 . S
C213 C212 1.310 . S
C213 H233 0.930 . S
C214 C215 1.474 . S
C214 C216 1.285 . S
C214 H234 0.929 . S
C215 C212 1.461 . S
C215 C214 1.474 . S
C216 C211 1.342 . S
C216 C214 1.285 . S
C216 H235 0.930 . S
C217 C220 1.424 . S
C217 C222 1.245 . S
C217 C223 1.428 . S
C218 C221 1.260 . S
C218 C222 1.477 . S
C218 H236 0.932 . S
C219 C220 1.384 . S
C219 C221 1.479 . S
C219 H237 0.929 1_455 S
C220 C217 1.424 . S
C220 C219 1.384 . S
C220 H238 0.928 1_455 S
C221 C218 1.260 . S
C221 C219 1.479 . S
C222 C217 1.245 . S
C222 C218 1.477 . S
C222 H239 0.932 . S
C223 U206 2.882 . S
C223 C217 1.428 . S
C223 O226 1.301 . S
C223 O227 1.282 . S
O224 U206 2.441 . S
O224 C210 1.249 1_455 S
O225 U206 2.420 1_655 S
O225 C210 1.202 . S
O226 U206 2.455 . S
O226 C223 1.301 . S
O227 U206 2.449 . S
O227 C223 1.282 . S
H228 C201 0.931 . S
H229 C203 0.929 . S
H230 C204 0.930 . S
H231 C205 0.931 . S
H232 C212 0.932 . S
H233 C213 0.930 . S
H234 C214 0.929 . S
H235 C216 0.930 . S
H236 C218 0.932 . S
H237 C219 0.929 1_655 S
H238 C220 0.928 1_655 S
H239 C222 0.932 . S
C240 C241 1.264 . S
C240 C245 1.479 . S
C240 C250 1.465 . S
C241 C240 1.264 . S
C241 C243 1.339 . S
C241 H268 0.931 . S
C242 C243 1.395 . S
C242 C244 1.320 . S
C243 C241 1.339 . S
C243 C242 1.395 . S
C243 H269 0.929 . S
C244 C242 1.320 . S
C244 C245 1.405 . S
C244 H270 0.930 . S
C245 C240 1.479 . S
C245 C244 1.405 . S
C245 H271 0.931 . S
U246 O247 2.454 1_655 S
U246 O248 2.458 1_655 S
U246 C249 2.984 1_655 S
U246 C250 2.847 . S
U246 C263 2.882 . S
U246 O264 2.441 . S
U246 O265 2.420 . S
U246 O266 2.455 1_655 S
U246 O267 2.449 . S
O247 U246 2.454 1_455 S
O247 C249 1.353 . S
O248 U246 2.458 1_455 S
O248 C249 1.286 . S
C249 U246 2.984 1_455 S
C249 O247 1.353 . S
C249 O248 1.286 . S
C249 C251 1.363 . S
C250 C240 1.465 . S
C250 U246 2.847 . S
C250 O264 1.249 . S
C250 O265 1.202 . S
C251 C249 1.363 . S
C251 C253 1.408 . S
C251 C256 1.342 . S
C252 C253 1.310 . S
C252 C255 1.461 . S
C252 H272 0.932 . S
C253 C251 1.408 . S
C253 C252 1.310 . S
C253 H273 0.930 . S
C254 C255 1.474 . S
C254 C256 1.285 . S
C254 H274 0.929 . S
C255 C252 1.461 . S
C255 C254 1.474 . S
C256 C251 1.342 . S
C256 C254 1.285 . S
C256 H275 0.930 . S
C257 C260 1.424 . S
C257 C262 1.245 1_655 S
C257 C263 1.428 . S
C258 C261 1.260 1_455 S
C258 C262 1.477 . S
C258 H276 0.932 . S
C259 C260 1.384 . S
C259 C261 1.479 . S
C259 H277 0.929 . S
C260 C257 1.424 . S
C260 C259 1.384 . S
C260 H278 0.928 . S
C261 C258 1.260 1_655 S
C261 C259 1.479 . S
C262 C257 1.245 1_455 S
C262 C258 1.477 . S
C262 H279 0.932 . S
C263 U246 2.882 . S
C263 C257 1.428 . S
C263 O266 1.301 1_655 S
C263 O267 1.282 . S
O264 U246 2.441 . S
O264 C250 1.249 . S
O265 U246 2.420 . S
O265 C250 1.202 . S
O266 U246 2.455 1_455 S
O266 C263 1.301 1_455 S
O267 U246 2.449 . S
O267 C263 1.282 . S
H268 C241 0.931 . S
H269 C243 0.929 . S
H270 C244 0.930 . S
H271 C245 0.931 . S
H272 C252 0.932 . S
H273 C253 0.930 . S
H274 C254 0.929 . S
H275 C256 0.930 . S
H276 C258 0.932 . S
H277 C259 0.929 . S
H278 C260 0.928 . S
H279 C262 0.932 . S
C280 C281 1.264 . S
C280 C285 1.479 . S
C280 C290 1.465 . S
C281 C280 1.264 . S
C281 C283 1.339 . S
C281 H308 0.931 . S
C282 C283 1.395 . S
C282 C284 1.320 . S
C283 C281 1.339 . S
C283 C282 1.395 . S
C283 H309 0.929 . S
C284 C282 1.320 . S
C284 C285 1.405 . S
C284 H310 0.930 . S
C285 C280 1.479 . S
C285 C284 1.405 . S
C285 H311 0.931 . S
U286 O287 2.454 1_565 S
U286 O288 2.458 1_565 S
U286 C289 2.984 1_565 S
U286 C290 2.847 . S
U286 C303 2.882 . S
U286 O304 2.441 . S
U286 O305 2.420 . S
U286 O306 2.455 1_565 S
U286 O307 2.449 . S
O287 U286 2.454 1_545 S
O287 C289 1.353 . S
O288 U286 2.458 1_545 S
O288 C289 1.286 . S
C289 U286 2.984 1_545 S
C289 O287 1.353 . S
C289 O288 1.286 . S
C289 C291 1.363 . S
C290 C280 1.465 . S
C290 U286 2.847 . S
C290 O304 1.249 . S
C290 O305 1.202 . S
C291 C289 1.363 . S
C291 C293 1.408 . S
C291 C296 1.342 . S
C292 C293 1.310 . S
C292 C295 1.461 . S
C292 H312 0.932 . S
C293 C291 1.408 . S
C293 C292 1.310 . S
C293 H313 0.930 . S
C294 C295 1.474 . S
C294 C296 1.285 . S
C294 H314 0.929 . S
C295 C292 1.461 . S
C295 C294 1.474 . S
C296 C291 1.342 . S
C296 C294 1.285 . S
C296 H315 0.930 . S
C297 C300 1.424 . S
C297 C302 1.245 1_565 S
C297 C303 1.428 . S
C298 C301 1.260 1_545 S
C298 C302 1.477 . S
C298 H316 0.932 . S
C299 C300 1.384 . S
C299 C301 1.479 . S
C299 H317 0.929 . S
C300 C297 1.424 . S
C300 C299 1.384 . S
C300 H318 0.928 . S
C301 C298 1.260 1_565 S
C301 C299 1.479 . S
C302 C297 1.245 1_545 S
C302 C298 1.477 . S
C302 H319 0.932 . S
C303 U286 2.882 . S
C303 C297 1.428 . S
C303 O306 1.301 1_565 S
C303 O307 1.282 . S
O304 U286 2.441 . S
O304 C290 1.249 . S
O305 U286 2.420 . S
O305 C290 1.202 . S
O306 U286 2.455 1_545 S
O306 C303 1.301 1_545 S
O307 U286 2.449 . S
O307 C303 1.282 . S
H308 C281 0.931 . S
H309 C283 0.929 . S
H310 C284 0.930 . S
H311 C285 0.931 . S
H312 C292 0.932 . S
H313 C293 0.930 . S
H314 C294 0.929 . S
H315 C296 0.930 . S
H316 C298 0.932 . S
H317 C299 0.929 . S
H318 C300 0.928 . S
H319 C302 0.932 . S
C320 C321 1.264 . S
C320 C325 1.479 . S
C320 C330 1.465 . S
C321 C320 1.264 . S
C321 C323 1.339 . S
C321 H348 0.931 . S
C322 C323 1.395 . S
C322 C324 1.320 . S
C323 C321 1.339 . S
C323 C322 1.395 . S
C323 H349 0.929 . S
C324 C322 1.320 . S
C324 C325 1.405 . S
C324 H350 0.930 . S
C325 C320 1.479 . S
C325 C324 1.405 . S
C325 H351 0.931 . S
U326 O327 2.454 . S
U326 O328 2.458 . S
U326 C329 2.984 . S
U326 C330 2.847 . S
U326 C343 2.882 . S
U326 O344 2.441 . S
U326 O345 2.420 . S
U326 O346 2.455 . S
U326 O347 2.449 . S
O327 U326 2.454 . S
O327 C329 1.353 . S
O328 U326 2.458 . S
O328 C329 1.286 . S
C329 U326 2.984 . S
C329 O327 1.353 . S
C329 O328 1.286 . S
C329 C331 1.363 . S
C330 C320 1.465 . S
C330 U326 2.847 . S
C330 O344 1.249 . S
C330 O345 1.202 . S
C331 C329 1.363 . S
C331 C333 1.408 . S
C331 C336 1.342 . S
C332 C333 1.310 . S
C332 C335 1.461 . S
C332 H352 0.932 . S
C333 C331 1.408 . S
C333 C332 1.310 . S
C333 H353 0.930 . S
C334 C335 1.474 . S
C334 C336 1.285 . S
C334 H354 0.929 . S
C335 C332 1.461 . S
C335 C334 1.474 . S
C336 C331 1.342 . S
C336 C334 1.285 . S
C336 H355 0.930 . S
C337 C340 1.424 . S
C337 C342 1.245 . S
C337 C343 1.428 . S
C338 C341 1.260 . S
C338 C342 1.477 . S
C338 H356 0.932 . S
C339 C340 1.384 . S
C339 C341 1.479 . S
C339 H357 0.929 . S
C340 C337 1.424 . S
C340 C339 1.384 . S
C340 H358 0.928 . S
C341 C338 1.260 . S
C341 C339 1.479 . S
C342 C337 1.245 . S
C342 C338 1.477 . S
C342 H359 0.932 . S
C343 U326 2.882 . S
C343 C337 1.428 . S
C343 O346 1.301 . S
C343 O347 1.282 . S
O344 U326 2.441 . S
O344 C330 1.249 . S
O345 U326 2.420 . S
O345 C330 1.202 . S
O346 U326 2.455 . S
O346 C343 1.301 . S
O347 U326 2.449 . S
O347 C343 1.282 . S
H348 C321 0.931 . S
H349 C323 0.929 . S
H350 C324 0.930 . S
H351 C325 0.931 . S
H352 C332 0.932 . S
H353 C333 0.930 . S
H354 C334 0.929 . S
H355 C336 0.930 . S
H356 C338 0.932 . S
H357 C339 0.929 . S
H358 C340 0.928 . S
H359 C342 0.932 . S
H360 C378 0.951 . S
H361 C380 0.951 . S
H362 C382 0.950 . S
H363 C383 0.950 . S
H364 C385 0.950 . S
H365 C388 0.950 . S
H366 C389 0.950 . S
H367 C391 0.950 . S
H368 C392 0.950 . S
H369 C393 0.951 . S
H370 C395 0.951 . S
H371 C397 0.950 . S
H372 C398 0.950 . S
H373 C400 0.950 . S
H374 C403 0.950 . S
H375 C404 0.950 . S
H376 C406 0.950 . S
H377 C407 0.950 . S
C378 H360 0.951 . S
C378 C379 1.366 . S
C378 C380 1.388 . S
C379 C378 1.366 . S
C379 C383 1.385 . S
C380 H361 0.951 . S
C380 C378 1.388 . S
C380 C381 1.366 . S
C381 C380 1.366 . S
C381 C382 1.414 . S
C381 C384 1.499 . S
C382 H362 0.950 . S
C382 C381 1.414 . S
C382 C383 1.374 . S
C383 H363 0.950 . S
C383 C379 1.385 . S
C383 C382 1.374 . S
C384 C381 1.499 . S
C384 C385 1.373 . S
C384 C386 1.389 . S
C385 H364 0.950 . S
C385 C384 1.373 . S
C385 C401 1.377 . S
C386 C384 1.389 . S
C386 C387 1.524 . S
C386 C400 1.377 . S
C387 C386 1.524 . S
C387 C388 1.397 . S
C387 C392 1.363 . S
C388 H365 0.950 . S
C388 C387 1.397 . S
C388 C389 1.334 . S
C389 H366 0.950 . S
C389 C388 1.334 . S
C389 C390 1.287 . S
C390 C389 1.287 . S
C390 C391 1.524 . S
C390 H409 0.913 . S
C391 H367 0.950 . S
C391 C390 1.524 . S
C391 C392 1.415 . S
C392 H368 0.950 . S
C392 C387 1.363 . S
C392 C391 1.415 . S
C393 H369 0.951 . S
C393 C394 1.366 . S
C393 C395 1.388 . S
C394 C393 1.366 . S
C394 C398 1.385 . S
C395 H370 0.951 . S
C395 C393 1.388 . S
C395 C396 1.366 . S
C396 C395 1.366 . S
C396 C397 1.414 . S
C396 C399 1.499 . S
C397 H371 0.950 . S
C397 C396 1.414 . S
C397 C398 1.374 . S
C398 H372 0.950 . S
C398 C394 1.385 . S
C398 C397 1.374 . S
C399 C396 1.499 . S
C399 C400 1.373 . S
C399 C401 1.389 . S
C400 H373 0.950 . S
C400 C386 1.377 . S
C400 C399 1.373 . S
C401 C385 1.377 . S
C401 C399 1.389 . S
C401 C402 1.524 . S
C402 C401 1.524 . S
C402 C403 1.397 . S
C402 C407 1.363 . S
C403 H374 0.950 . S
C403 C402 1.397 . S
C403 C404 1.334 . S
C404 H375 0.950 . S
C404 C403 1.334 . S
C404 C405 1.287 . S
C405 C404 1.287 . S
C405 C406 1.524 . S
C405 H408 0.999 . S
C406 H376 0.950 . S
C406 C405 1.524 . S
C406 C407 1.415 . S
C407 H377 0.950 . S
C407 C402 1.363 . S
C407 C406 1.415 . S
H408 C405 0.999 . S
H409 C390 0.913 . S
H410 C428 0.951 . S
H411 C430 0.951 . S
H412 C432 0.950 . S
H413 C433 0.950 . S
H414 C435 0.950 . S
H415 C438 0.950 . S
H416 C439 0.950 . S
H417 C441 0.950 . S
H418 C442 0.950 . S
H419 C443 0.951 . S
H420 C445 0.951 . S
H421 C447 0.950 . S
H422 C448 0.950 . S
H423 C450 0.950 . S
H424 C453 0.950 . S
H425 C454 0.950 . S
H426 C456 0.950 . S
H427 C457 0.950 . S
C428 H410 0.951 . S
C428 C429 1.366 . S
C428 C430 1.388 . S
C429 C428 1.366 . S
C429 C433 1.385 . S
C430 H411 0.951 . S
C430 C428 1.388 . S
C430 C431 1.366 . S
C431 C430 1.366 . S
C431 C432 1.414 . S
C431 C434 1.499 . S
C432 H412 0.950 . S
C432 C431 1.414 . S
C432 C433 1.374 . S
C433 H413 0.950 . S
C433 C429 1.385 . S
C433 C432 1.374 . S
C434 C431 1.499 . S
C434 C435 1.373 . S
C434 C436 1.389 . S
C435 H414 0.950 . S
C435 C434 1.373 . S
C435 C451 1.377 . S
C436 C434 1.389 . S
C436 C437 1.524 . S
C436 C450 1.377 . S
C437 C436 1.524 . S
C437 C438 1.397 . S
C437 C442 1.363 . S
C438 H415 0.950 . S
C438 C437 1.397 . S
C438 C439 1.334 . S
C439 H416 0.950 . S
C439 C438 1.334 . S
C439 C440 1.287 . S
C440 C439 1.287 . S
C440 C441 1.524 . S
C440 H459 0.913 . S
C441 H417 0.950 . S
C441 C440 1.524 . S
C441 C442 1.415 . S
C442 H418 0.950 . S
C442 C437 1.363 . S
C442 C441 1.415 . S
C443 H419 0.951 . S
C443 C444 1.366 . S
C443 C445 1.388 . S
C444 C443 1.366 . S
C444 C448 1.385 . S
C445 H420 0.951 . S
C445 C443 1.388 . S
C445 C446 1.366 . S
C446 C445 1.366 . S
C446 C447 1.414 . S
C446 C449 1.499 . S
C447 H421 0.950 . S
C447 C446 1.414 . S
C447 C448 1.374 . S
C448 H422 0.950 . S
C448 C444 1.385 . S
C448 C447 1.374 . S
C449 C446 1.499 . S
C449 C450 1.373 . S
C449 C451 1.389 . S
C450 H423 0.950 . S
C450 C436 1.377 . S
C450 C449 1.373 . S
C451 C435 1.377 . S
C451 C449 1.389 . S
C451 C452 1.524 . S
C452 C451 1.524 . S
C452 C453 1.397 . S
C452 C457 1.363 . S
C453 H424 0.950 . S
C453 C452 1.397 . S
C453 C454 1.334 . S
C454 H425 0.950 . S
C454 C453 1.334 . S
C454 C455 1.287 . S
C455 C454 1.287 . S
C455 C456 1.524 . S
C455 H458 0.999 . S
C456 H426 0.950 . S
C456 C455 1.524 . S
C456 C457 1.415 . S
C457 H427 0.950 . S
C457 C452 1.363 . S
C457 C456 1.415 . S
H458 C455 0.999 . S
H459 C440 0.913 . S
H460 C478 0.951 . S
H461 C480 0.951 . S
H462 C482 0.950 . S
H463 C483 0.950 . S
H464 C485 0.950 . S
H465 C488 0.950 . S
H466 C489 0.950 . S
H467 C491 0.950 . S
H468 C492 0.950 . S
H469 C493 0.951 . S
H470 C495 0.951 . S
H471 C497 0.950 . S
H472 C498 0.950 . S
H473 C500 0.950 . S
H474 C503 0.950 . S
H475 C504 0.950 . S
H476 C506 0.950 . S
H477 C507 0.950 . S
C478 H460 0.951 . S
C478 C479 1.366 . S
C478 C480 1.388 . S
C479 C478 1.366 . S
C479 C483 1.385 . S
C480 H461 0.951 . S
C480 C478 1.388 . S
C480 C481 1.366 . S
C481 C480 1.366 . S
C481 C482 1.414 . S
C481 C484 1.499 . S
C482 H462 0.950 . S
C482 C481 1.414 . S
C482 C483 1.374 . S
C483 H463 0.950 . S
C483 C479 1.385 . S
C483 C482 1.374 . S
C484 C481 1.499 . S
C484 C485 1.373 . S
C484 C486 1.389 . S
C485 H464 0.950 . S
C485 C484 1.373 . S
C485 C501 1.377 . S
C486 C484 1.389 . S
C486 C487 1.524 . S
C486 C500 1.377 . S
C487 C486 1.524 . S
C487 C488 1.397 . S
C487 C492 1.363 . S
C488 H465 0.950 . S
C488 C487 1.397 . S
C488 C489 1.334 . S
C489 H466 0.950 . S
C489 C488 1.334 . S
C489 C490 1.287 . S
C490 C489 1.287 . S
C490 C491 1.524 . S
C490 H509 0.913 . S
C491 H467 0.950 . S
C491 C490 1.524 . S
C491 C492 1.415 . S
C492 H468 0.950 . S
C492 C487 1.363 . S
C492 C491 1.415 . S
C493 H469 0.951 . S
C493 C494 1.366 . S
C493 C495 1.388 . S
C494 C493 1.366 . S
C494 C498 1.385 . S
C495 H470 0.951 . S
C495 C493 1.388 . S
C495 C496 1.366 . S
C496 C495 1.366 . S
C496 C497 1.414 . S
C496 C499 1.499 . S
C497 H471 0.950 . S
C497 C496 1.414 . S
C497 C498 1.374 . S
C498 H472 0.950 . S
C498 C494 1.385 . S
C498 C497 1.374 . S
C499 C496 1.499 . S
C499 C500 1.373 . S
C499 C501 1.389 . S
C500 H473 0.950 . S
C500 C486 1.377 . S
C500 C499 1.373 . S
C501 C485 1.377 . S
C501 C499 1.389 . S
C501 C502 1.524 . S
C502 C501 1.524 . S
C502 C503 1.397 . S
C502 C507 1.363 . S
C503 H474 0.950 . S
C503 C502 1.397 . S
C503 C504 1.334 . S
C504 H475 0.950 . S
C504 C503 1.334 . S
C504 C505 1.287 . S
C505 C504 1.287 . S
C505 C506 1.524 . S
C505 H508 0.999 . S
C506 H476 0.950 . S
C506 C505 1.524 . S
C506 C507 1.415 . S
C507 H477 0.950 . S
C507 C502 1.363 . S
C507 C506 1.415 . S
H508 C505 0.999 . S
H509 C490 0.913 . S
H510 C528 0.951 . S
H511 C530 0.951 . S
H512 C532 0.950 . S
H513 C533 0.950 . S
H514 C535 0.950 . S
H515 C538 0.950 . S
H516 C539 0.950 . S
H517 C541 0.950 . S
H518 C542 0.950 . S
H519 C543 0.951 . S
H520 C545 0.951 . S
H521 C547 0.950 . S
H522 C548 0.950 . S
H523 C550 0.950 . S
H524 C553 0.950 . S
H525 C554 0.950 . S
H526 C556 0.950 . S
H527 C557 0.950 . S
C528 H510 0.951 . S
C528 C529 1.366 . S
C528 C530 1.388 . S
C529 C528 1.366 . S
C529 C533 1.385 . S
C530 H511 0.951 . S
C530 C528 1.388 . S
C530 C531 1.366 . S
C531 C530 1.366 . S
C531 C532 1.414 . S
C531 C534 1.499 . S
C532 H512 0.950 . S
C532 C531 1.414 . S
C532 C533 1.374 . S
C533 H513 0.950 . S
C533 C529 1.385 . S
C533 C532 1.374 . S
C534 C531 1.499 . S
C534 C535 1.373 . S
C534 C536 1.389 . S
C535 H514 0.950 . S
C535 C534 1.373 . S
C535 C551 1.377 . S
C536 C534 1.389 . S
C536 C537 1.524 . S
C536 C550 1.377 . S
C537 C536 1.524 . S
C537 C538 1.397 . S
C537 C542 1.363 . S
C538 H515 0.950 . S
C538 C537 1.397 . S
C538 C539 1.334 . S
C539 H516 0.950 . S
C539 C538 1.334 . S
C539 C540 1.287 . S
C540 C539 1.287 . S
C540 C541 1.524 . S
C540 H559 0.913 . S
C541 H517 0.950 . S
C541 C540 1.524 . S
C541 C542 1.415 . S
C542 H518 0.950 . S
C542 C537 1.363 . S
C542 C541 1.415 . S
C543 H519 0.951 . S
C543 C544 1.366 . S
C543 C545 1.388 . S
C544 C543 1.366 . S
C544 C548 1.385 . S
C545 H520 0.951 . S
C545 C543 1.388 . S
C545 C546 1.366 . S
C546 C545 1.366 . S
C546 C547 1.414 . S
C546 C549 1.499 . S
C547 H521 0.950 . S
C547 C546 1.414 . S
C547 C548 1.374 . S
C548 H522 0.950 . S
C548 C544 1.385 . S
C548 C547 1.374 . S
C549 C546 1.499 . S
C549 C550 1.373 . S
C549 C551 1.389 . S
C550 H523 0.950 . S
C550 C536 1.377 . S
C550 C549 1.373 . S
C551 C535 1.377 . S
C551 C549 1.389 . S
C551 C552 1.524 . S
C552 C551 1.524 . S
C552 C553 1.397 . S
C552 C557 1.363 . S
C553 H524 0.950 . S
C553 C552 1.397 . S
C553 C554 1.334 . S
C554 H525 0.950 . S
C554 C553 1.334 . S
C554 C555 1.287 . S
C555 C554 1.287 . S
C555 C556 1.524 . S
C555 H558 0.999 . S
C556 H526 0.950 . S
C556 C555 1.524 . S
C556 C557 1.415 . S
C557 H527 0.950 . S
C557 C552 1.363 . S
C557 C556 1.415 . S
H558 C555 0.999 . S
H559 C540 0.913 . S
H560 C578 0.951 . S
H561 C580 0.951 . S
H562 C582 0.950 . S
H563 C583 0.950 . S
H564 C585 0.950 . S
H565 C588 0.950 . S
H566 C589 0.950 . S
H567 C591 0.950 . S
H568 C592 0.950 . S
H569 C593 0.951 . S
H570 C595 0.951 . S
H571 C597 0.950 . S
H572 C598 0.950 . S
H573 C600 0.950 . S
H574 C603 0.950 . S
H575 C604 0.950 . S
H576 C606 0.950 . S
H577 C607 0.950 . S
C578 H560 0.951 . S
C578 C579 1.366 . S
C578 C580 1.388 . S
C579 C578 1.366 . S
C579 C583 1.385 . S
C580 H561 0.951 . S
C580 C578 1.388 . S
C580 C581 1.366 . S
C581 C580 1.366 . S
C581 C582 1.414 . S
C581 C584 1.499 . S
C582 H562 0.950 . S
C582 C581 1.414 . S
C582 C583 1.374 . S
C583 H563 0.950 . S
C583 C579 1.385 . S
C583 C582 1.374 . S
C584 C581 1.499 . S
C584 C585 1.373 . S
C584 C586 1.389 . S
C585 H564 0.950 . S
C585 C584 1.373 . S
C585 C601 1.377 . S
C586 C584 1.389 . S
C586 C587 1.524 . S
C586 C600 1.377 . S
C587 C586 1.524 . S
C587 C588 1.397 . S
C587 C592 1.363 . S
C588 H565 0.950 . S
C588 C587 1.397 . S
C588 C589 1.334 . S
C589 H566 0.950 . S
C589 C588 1.334 . S
C589 C590 1.287 . S
C590 C589 1.287 . S
C590 C591 1.524 . S
C590 H609 0.913 . S
C591 H567 0.950 . S
C591 C590 1.524 . S
C591 C592 1.415 . S
C592 H568 0.950 . S
C592 C587 1.363 . S
C592 C591 1.415 . S
C593 H569 0.951 . S
C593 C594 1.366 . S
C593 C595 1.388 . S
C594 C593 1.366 . S
C594 C598 1.385 . S
C595 H570 0.951 . S
C595 C593 1.388 . S
C595 C596 1.366 . S
C596 C595 1.366 . S
C596 C597 1.414 . S
C596 C599 1.499 . S
C597 H571 0.950 . S
C597 C596 1.414 . S
C597 C598 1.374 . S
C598 H572 0.950 . S
C598 C594 1.385 . S
C598 C597 1.374 . S
C599 C596 1.499 . S
C599 C600 1.373 . S
C599 C601 1.389 . S
C600 H573 0.950 . S
C600 C586 1.377 . S
C600 C599 1.373 . S
C601 C585 1.377 . S
C601 C599 1.389 . S
C601 C602 1.524 . S
C602 C601 1.524 . S
C602 C603 1.397 . S
C602 C607 1.363 . S
C603 H574 0.950 . S
C603 C602 1.397 . S
C603 C604 1.334 . S
C604 H575 0.950 . S
C604 C603 1.334 . S
C604 C605 1.287 . S
C605 C604 1.287 . S
C605 C606 1.524 . S
C605 H608 0.999 . S
C606 H576 0.950 . S
C606 C605 1.524 . S
C606 C607 1.415 . S
C607 H577 0.950 . S
C607 C602 1.363 . S
C607 C606 1.415 . S
H608 C605 0.999 . S
H609 C590 0.913 . S
H610 C628 0.951 . S
H611 C630 0.951 . S
H612 C632 0.950 . S
H613 C633 0.950 . S
H614 C635 0.950 . S
H615 C638 0.950 . S
H616 C639 0.950 . S
H617 C641 0.950 . S
H618 C642 0.950 . S
H619 C643 0.951 . S
H620 C645 0.951 . S
H621 C647 0.950 . S
H622 C648 0.950 . S
H623 C650 0.950 . S
H624 C653 0.950 . S
H625 C654 0.950 . S
H626 C656 0.950 . S
H627 C657 0.950 . S
C628 H610 0.951 . S
C628 C629 1.366 . S
C628 C630 1.388 . S
C629 C628 1.366 . S
C629 C633 1.385 . S
C630 H611 0.951 . S
C630 C628 1.388 . S
C630 C631 1.366 . S
C631 C630 1.366 . S
C631 C632 1.414 . S
C631 C634 1.499 . S
C632 H612 0.950 . S
C632 C631 1.414 . S
C632 C633 1.374 . S
C633 H613 0.950 . S
C633 C629 1.385 . S
C633 C632 1.374 . S
C634 C631 1.499 . S
C634 C635 1.373 . S
C634 C636 1.389 . S
C635 H614 0.950 . S
C635 C634 1.373 . S
C635 C651 1.377 . S
C636 C634 1.389 . S
C636 C637 1.524 . S
C636 C650 1.377 . S
C637 C636 1.524 . S
C637 C638 1.397 . S
C637 C642 1.363 . S
C638 H615 0.950 . S
C638 C637 1.397 . S
C638 C639 1.334 . S
C639 H616 0.950 . S
C639 C638 1.334 . S
C639 C640 1.287 . S
C640 C639 1.287 . S
C640 C641 1.524 . S
C640 H659 0.913 . S
C641 H617 0.950 . S
C641 C640 1.524 . S
C641 C642 1.415 . S
C642 H618 0.950 . S
C642 C637 1.363 . S
C642 C641 1.415 . S
C643 H619 0.951 . S
C643 C644 1.366 . S
C643 C645 1.388 . S
C644 C643 1.366 . S
C644 C648 1.385 . S
C645 H620 0.951 . S
C645 C643 1.388 . S
C645 C646 1.366 . S
C646 C645 1.366 . S
C646 C647 1.414 . S
C646 C649 1.499 . S
C647 H621 0.950 . S
C647 C646 1.414 . S
C647 C648 1.374 . S
C648 H622 0.950 . S
C648 C644 1.385 . S
C648 C647 1.374 . S
C649 C646 1.499 . S
C649 C650 1.373 . S
C649 C651 1.389 . S
C650 H623 0.950 . S
C650 C636 1.377 . S
C650 C649 1.373 . S
C651 C635 1.377 . S
C651 C649 1.389 . S
C651 C652 1.524 . S
C652 C651 1.524 . S
C652 C653 1.397 . S
C652 C657 1.363 . S
C653 H624 0.950 . S
C653 C652 1.397 . S
C653 C654 1.334 . S
C654 H625 0.950 . S
C654 C653 1.334 . S
C654 C655 1.287 . S
C655 C654 1.287 . S
C655 C656 1.524 . S
C655 H658 0.999 . S
C656 H626 0.950 . S
C656 C655 1.524 . S
C656 C657 1.415 . S
C657 H627 0.950 . S
C657 C652 1.363 . S
C657 C656 1.415 . S
H658 C655 0.999 . S
H659 C640 0.913 . S
H660 C678 0.951 . S
H661 C680 0.951 . S
H662 C682 0.950 . S
H663 C683 0.950 . S
H664 C685 0.950 . S
H665 C688 0.950 . S
H666 C689 0.950 . S
H667 C691 0.950 . S
H668 C692 0.950 . S
H669 C693 0.951 . S
H670 C695 0.951 . S
H671 C697 0.950 . S
H672 C698 0.950 . S
H673 C700 0.950 . S
H674 C703 0.950 . S
H675 C704 0.950 . S
H676 C706 0.950 . S
H677 C707 0.950 . S
C678 H660 0.951 . S
C678 C679 1.366 . S
C678 C680 1.388 . S
C679 C678 1.366 . S
C679 C683 1.385 . S
C680 H661 0.951 . S
C680 C678 1.388 . S
C680 C681 1.366 . S
C681 C680 1.366 . S
C681 C682 1.414 . S
C681 C684 1.499 . S
C682 H662 0.950 . S
C682 C681 1.414 . S
C682 C683 1.374 . S
C683 H663 0.950 . S
C683 C679 1.385 . S
C683 C682 1.374 . S
C684 C681 1.499 . S
C684 C685 1.373 . S
C684 C686 1.389 . S
C685 H664 0.950 . S
C685 C684 1.373 . S
C685 C701 1.377 . S
C686 C684 1.389 . S
C686 C687 1.524 . S
C686 C700 1.377 . S
C687 C686 1.524 . S
C687 C688 1.397 . S
C687 C692 1.363 . S
C688 H665 0.950 . S
C688 C687 1.397 . S
C688 C689 1.334 . S
C689 H666 0.950 . S
C689 C688 1.334 . S
C689 C690 1.287 . S
C690 C689 1.287 . S
C690 C691 1.524 . S
C690 H709 0.913 . S
C691 H667 0.950 . S
C691 C690 1.524 . S
C691 C692 1.415 . S
C692 H668 0.950 . S
C692 C687 1.363 . S
C692 C691 1.415 . S
C693 H669 0.951 . S
C693 C694 1.366 . S
C693 C695 1.388 . S
C694 C693 1.366 . S
C694 C698 1.385 . S
C695 H670 0.951 . S
C695 C693 1.388 . S
C695 C696 1.366 . S
C696 C695 1.366 . S
C696 C697 1.414 . S
C696 C699 1.499 . S
C697 H671 0.950 . S
C697 C696 1.414 . S
C697 C698 1.374 . S
C698 H672 0.950 . S
C698 C694 1.385 . S
C698 C697 1.374 . S
C699 C696 1.499 . S
C699 C700 1.373 . S
C699 C701 1.389 . S
C700 H673 0.950 . S
C700 C686 1.377 . S
C700 C699 1.373 . S
C701 C685 1.377 . S
C701 C699 1.389 . S
C701 C702 1.524 . S
C702 C701 1.524 . S
C702 C703 1.397 . S
C702 C707 1.363 . S
C703 H674 0.950 . S
C703 C702 1.397 . S
C703 C704 1.334 . S
C704 H675 0.950 . S
C704 C703 1.334 . S
C704 C705 1.287 . S
C705 C704 1.287 . S
C705 C706 1.524 . S
C705 H708 0.999 . S
C706 H676 0.950 . S
C706 C705 1.524 . S
C706 C707 1.415 . S
C707 H677 0.950 . S
C707 C702 1.363 . S
C707 C706 1.415 . S
H708 C705 0.999 . S
H709 C690 0.913 . S
H710 C728 0.951 . S
H711 C730 0.951 . S
H712 C732 0.950 . S
H713 C733 0.950 . S
H714 C735 0.950 . S
H715 C738 0.950 . S
H716 C739 0.950 . S
H717 C741 0.950 . S
H718 C742 0.950 . S
H719 C743 0.951 . S
H720 C745 0.951 . S
H721 C747 0.950 . S
H722 C748 0.950 . S
H723 C750 0.950 . S
H724 C753 0.950 . S
H725 C754 0.950 . S
H726 C756 0.950 . S
H727 C757 0.950 . S
C728 H710 0.951 . S
C728 C729 1.366 . S
C728 C730 1.388 . S
C729 C728 1.366 . S
C729 C733 1.385 . S
C730 H711 0.951 . S
C730 C728 1.388 . S
C730 C731 1.366 . S
C731 C730 1.366 . S
C731 C732 1.414 . S
C731 C734 1.499 . S
C732 H712 0.950 . S
C732 C731 1.414 . S
C732 C733 1.374 . S
C733 H713 0.950 . S
C733 C729 1.385 . S
C733 C732 1.374 . S
C734 C731 1.499 . S
C734 C735 1.373 . S
C734 C736 1.389 . S
C735 H714 0.950 . S
C735 C734 1.373 . S
C735 C751 1.377 . S
C736 C734 1.389 . S
C736 C737 1.524 . S
C736 C750 1.377 . S
C737 C736 1.524 . S
C737 C738 1.397 . S
C737 C742 1.363 . S
C738 H715 0.950 . S
C738 C737 1.397 . S
C738 C739 1.334 . S
C739 H716 0.950 . S
C739 C738 1.334 . S
C739 C740 1.287 . S
C740 C739 1.287 . S
C740 C741 1.524 . S
C740 H759 0.913 . S
C741 H717 0.950 . S
C741 C740 1.524 . S
C741 C742 1.415 . S
C742 H718 0.950 . S
C742 C737 1.363 . S
C742 C741 1.415 . S
C743 H719 0.951 . S
C743 C744 1.366 . S
C743 C745 1.388 . S
C744 C743 1.366 . S
C744 C748 1.385 . S
C745 H720 0.951 . S
C745 C743 1.388 . S
C745 C746 1.366 . S
C746 C745 1.366 . S
C746 C747 1.414 . S
C746 C749 1.499 . S
C747 H721 0.950 . S
C747 C746 1.414 . S
C747 C748 1.374 . S
C748 H722 0.950 . S
C748 C744 1.385 . S
C748 C747 1.374 . S
C749 C746 1.499 . S
C749 C750 1.373 . S
C749 C751 1.389 . S
C750 H723 0.950 . S
C750 C736 1.377 . S
C750 C749 1.373 . S
C751 C735 1.377 . S
C751 C749 1.389 . S
C751 C752 1.524 . S
C752 C751 1.524 . S
C752 C753 1.397 . S
C752 C757 1.363 . S
C753 H724 0.950 . S
C753 C752 1.397 . S
C753 C754 1.334 . S
C754 H725 0.950 . S
C754 C753 1.334 . S
C754 C755 1.287 . S
C755 C754 1.287 . S
C755 C756 1.524 . S
C755 H758 0.999 . S
C756 H726 0.950 . S
C756 C755 1.524 . S
C756 C757 1.415 . S
C757 H727 0.950 . S
C757 C752 1.363 . S
C757 C756 1.415 . S
H758 C755 0.999 . S
H759 C740 0.913 . S
H760 C778 0.951 . S
H761 C780 0.951 . S
H762 C782 0.950 . S
H763 C783 0.950 . S
H764 C785 0.950 . S
H765 C788 0.950 . S
H766 C789 0.950 . S
H767 C791 0.950 . S
H768 C792 0.950 . S
H769 C793 0.951 . S
H770 C795 0.951 . S
H771 C797 0.950 . S
H772 C798 0.950 . S
H773 C800 0.950 . S
H774 C803 0.950 . S
H775 C804 0.950 . S
H776 C806 0.950 . S
H777 C807 0.950 . S
C778 H760 0.951 . S
C778 C779 1.366 . S
C778 C780 1.388 . S
C779 C778 1.366 . S
C779 C783 1.385 . S
C780 H761 0.951 . S
C780 C778 1.388 . S
C780 C781 1.366 . S
C781 C780 1.366 . S
C781 C782 1.414 . S
C781 C784 1.499 . S
C782 H762 0.950 . S
C782 C781 1.414 . S
C782 C783 1.374 . S
C783 H763 0.950 . S
C783 C779 1.385 . S
C783 C782 1.374 . S
C784 C781 1.499 . S
C784 C785 1.373 . S
C784 C786 1.389 . S
C785 H764 0.950 . S
C785 C784 1.373 . S
C785 C801 1.377 . S
C786 C784 1.389 . S
C786 C787 1.524 . S
C786 C800 1.377 . S
C787 C786 1.524 . S
C787 C788 1.397 . S
C787 C792 1.363 . S
C788 H765 0.950 . S
C788 C787 1.397 . S
C788 C789 1.334 . S
C789 H766 0.950 . S
C789 C788 1.334 . S
C789 C790 1.287 . S
C790 C789 1.287 . S
C790 C791 1.524 . S
C790 H809 0.913 . S
C791 H767 0.950 . S
C791 C790 1.524 . S
C791 C792 1.415 . S
C792 H768 0.950 . S
C792 C787 1.363 . S
C792 C791 1.415 . S
C793 H769 0.951 . S
C793 C794 1.366 . S
C793 C795 1.388 . S
C794 C793 1.366 . S
C794 C798 1.385 . S
C795 H770 0.951 . S
C795 C793 1.388 . S
C795 C796 1.366 . S
C796 C795 1.366 . S
C796 C797 1.414 . S
C796 C799 1.499 . S
C797 H771 0.950 . S
C797 C796 1.414 . S
C797 C798 1.374 . S
C798 H772 0.950 . S
C798 C794 1.385 . S
C798 C797 1.374 . S
C799 C796 1.499 . S
C799 C800 1.373 . S
C799 C801 1.389 . S
C800 H773 0.950 . S
C800 C786 1.377 . S
C800 C799 1.373 . S
C801 C785 1.377 . S
C801 C799 1.389 . S
C801 C802 1.524 . S
C802 C801 1.524 . S
C802 C803 1.397 . S
C802 C807 1.363 . S
C803 H774 0.950 . S
C803 C802 1.397 . S
C803 C804 1.334 . S
C804 H775 0.950 . S
C804 C803 1.334 . S
C804 C805 1.287 . S
C805 C804 1.287 . S
C805 C806 1.524 . S
C805 H808 0.999 . S
C806 H776 0.950 . S
C806 C805 1.524 . S
C806 C807 1.415 . S
C807 H777 0.950 . S
C807 C802 1.363 . S
C807 C806 1.415 . S
H808 C805 0.999 . S
H809 C790 0.913 . S
H810 C828 0.951 . S
H811 C830 0.951 . S
H812 C832 0.950 . S
H813 C833 0.950 . S
H814 C835 0.950 . S
H815 C838 0.950 . S
H816 C839 0.950 . S
H817 C841 0.950 . S
H818 C842 0.950 . S
H819 C843 0.951 . S
H820 C845 0.951 . S
H821 C847 0.950 . S
H822 C848 0.950 . S
H823 C850 0.950 . S
H824 C853 0.950 . S
H825 C854 0.950 . S
H826 C856 0.950 . S
H827 C857 0.950 . S
C828 H810 0.951 . S
C828 C829 1.366 . S
C828 C830 1.388 . S
C829 C828 1.366 . S
C829 C833 1.385 . S
C830 H811 0.951 . S
C830 C828 1.388 . S
C830 C831 1.366 . S
C831 C830 1.366 . S
C831 C832 1.414 . S
C831 C834 1.499 . S
C832 H812 0.950 . S
C832 C831 1.414 . S
C832 C833 1.374 . S
C833 H813 0.950 . S
C833 C829 1.385 . S
C833 C832 1.374 . S
C834 C831 1.499 . S
C834 C835 1.373 . S
C834 C836 1.389 . S
C835 H814 0.950 . S
C835 C834 1.373 . S
C835 C851 1.377 . S
C836 C834 1.389 . S
C836 C837 1.524 . S
C836 C850 1.377 . S
C837 C836 1.524 . S
C837 C838 1.397 . S
C837 C842 1.363 . S
C838 H815 0.950 . S
C838 C837 1.397 . S
C838 C839 1.334 . S
C839 H816 0.950 . S
C839 C838 1.334 . S
C839 C840 1.287 . S
C840 C839 1.287 . S
C840 C841 1.524 . S
C840 H859 0.913 . S
C841 H817 0.950 . S
C841 C840 1.524 . S
C841 C842 1.415 . S
C842 H818 0.950 . S
C842 C837 1.363 . S
C842 C841 1.415 . S
C843 H819 0.951 . S
C843 C844 1.366 . S
C843 C845 1.388 . S
C844 C843 1.366 . S
C844 C848 1.385 . S
C845 H820 0.951 . S
C845 C843 1.388 . S
C845 C846 1.366 . S
C846 C845 1.366 . S
C846 C847 1.414 . S
C846 C849 1.499 . S
C847 H821 0.950 . S
C847 C846 1.414 . S
C847 C848 1.374 . S
C848 H822 0.950 . S
C848 C844 1.385 . S
C848 C847 1.374 . S
C849 C846 1.499 . S
C849 C850 1.373 . S
C849 C851 1.389 . S
C850 H823 0.950 . S
C850 C836 1.377 . S
C850 C849 1.373 . S
C851 C835 1.377 . S
C851 C849 1.389 . S
C851 C852 1.524 . S
C852 C851 1.524 . S
C852 C853 1.397 . S
C852 C857 1.363 . S
C853 H824 0.950 . S
C853 C852 1.397 . S
C853 C854 1.334 . S
C854 H825 0.950 . S
C854 C853 1.334 . S
C854 C855 1.287 . S
C855 C854 1.287 . S
C855 C856 1.524 . S
C855 H858 0.999 . S
C856 H826 0.950 . S
C856 C855 1.524 . S
C856 C857 1.415 . S
C857 H827 0.950 . S
C857 C852 1.363 . S
C857 C856 1.415 . S
H858 C855 0.999 . S
H859 C840 0.913 . S
H860 C878 0.951 . S
H861 C880 0.951 . S
H862 C882 0.950 . S
H863 C883 0.950 . S
H864 C885 0.950 . S
H865 C888 0.950 . S
H866 C889 0.950 . S
H867 C891 0.950 . S
H868 C892 0.950 . S
H869 C893 0.951 . S
H870 C895 0.951 . S
H871 C897 0.950 . S
H872 C898 0.950 . S
H873 C900 0.950 . S
H874 C903 0.950 . S
H875 C904 0.950 . S
H876 C906 0.950 . S
H877 C907 0.950 . S
C878 H860 0.951 . S
C878 C879 1.366 . S
C878 C880 1.388 . S
C879 C878 1.366 . S
C879 C883 1.385 . S
C880 H861 0.951 . S
C880 C878 1.388 . S
C880 C881 1.366 . S
C881 C880 1.366 . S
C881 C882 1.414 . S
C881 C884 1.499 . S
C882 H862 0.950 . S
C882 C881 1.414 . S
C882 C883 1.374 . S
C883 H863 0.950 . S
C883 C879 1.385 . S
C883 C882 1.374 . S
C884 C881 1.499 . S
C884 C885 1.373 . S
C884 C886 1.389 . S
C885 H864 0.950 . S
C885 C884 1.373 . S
C885 C901 1.377 . S
C886 C884 1.389 . S
C886 C887 1.524 . S
C886 C900 1.377 . S
C887 C886 1.524 . S
C887 C888 1.397 . S
C887 C892 1.363 . S
C888 H865 0.950 . S
C888 C887 1.397 . S
C888 C889 1.334 . S
C889 H866 0.950 . S
C889 C888 1.334 . S
C889 C890 1.287 . S
C890 C889 1.287 . S
C890 C891 1.524 . S
C890 H909 0.913 . S
C891 H867 0.950 . S
C891 C890 1.524 . S
C891 C892 1.415 . S
C892 H868 0.950 . S
C892 C887 1.363 . S
C892 C891 1.415 . S
C893 H869 0.951 . S
C893 C894 1.366 . S
C893 C895 1.388 . S
C894 C893 1.366 . S
C894 C898 1.385 . S
C895 H870 0.951 . S
C895 C893 1.388 . S
C895 C896 1.366 . S
C896 C895 1.366 . S
C896 C897 1.414 . S
C896 C899 1.499 . S
C897 H871 0.950 . S
C897 C896 1.414 . S
C897 C898 1.374 . S
C898 H872 0.950 . S
C898 C894 1.385 . S
C898 C897 1.374 . S
C899 C896 1.499 . S
C899 C900 1.373 . S
C899 C901 1.389 . S
C900 H873 0.950 . S
C900 C886 1.377 . S
C900 C899 1.373 . S
C901 C885 1.377 . S
C901 C899 1.389 . S
C901 C902 1.524 . S
C902 C901 1.524 . S
C902 C903 1.397 . S
C902 C907 1.363 . S
C903 H874 0.950 . S
C903 C902 1.397 . S
C903 C904 1.334 . S
C904 H875 0.950 . S
C904 C903 1.334 . S
C904 C905 1.287 . S
C905 C904 1.287 . S
C905 C906 1.524 . S
C905 H908 0.999 . S
C906 H876 0.950 . S
C906 C905 1.524 . S
C906 C907 1.415 . S
C907 H877 0.950 . S
C907 C902 1.363 . S
C907 C906 1.415 . S
H908 C905 0.999 . S
H909 C890 0.913 . S
H910 C928 0.951 . S
H911 C930 0.951 . S
H912 C932 0.950 . S
H913 C933 0.950 . S
H914 C935 0.950 . S
H915 C938 0.950 . S
H916 C939 0.950 . S
H917 C941 0.950 . S
H918 C942 0.950 . S
H919 C943 0.951 . S
H920 C945 0.951 . S
H921 C947 0.950 . S
H922 C948 0.950 . S
H923 C950 0.950 . S
H924 C953 0.950 . S
H925 C954 0.950 . S
H926 C956 0.950 . S
H927 C957 0.950 . S
C928 H910 0.951 . S
C928 C929 1.366 . S
C928 C930 1.388 . S
C929 C928 1.366 . S
C929 C933 1.385 . S
C930 H911 0.951 . S
C930 C928 1.388 . S
C930 C931 1.366 . S
C931 C930 1.366 . S
C931 C932 1.414 . S
C931 C934 1.499 . S
C932 H912 0.950 . S
C932 C931 1.414 . S
C932 C933 1.374 . S
C933 H913 0.950 . S
C933 C929 1.385 . S
C933 C932 1.374 . S
C934 C931 1.499 . S
C934 C935 1.373 . S
C934 C936 1.389 . S
C935 H914 0.950 . S
C935 C934 1.373 . S
C935 C951 1.377 . S
C936 C934 1.389 . S
C936 C937 1.524 . S
C936 C950 1.377 . S
C937 C936 1.524 . S
C937 C938 1.397 . S
C937 C942 1.363 . S
C938 H915 0.950 . S
C938 C937 1.397 . S
C938 C939 1.334 . S
C939 H916 0.950 . S
C939 C938 1.334 . S
C939 C940 1.287 . S
C940 C939 1.287 . S
C940 C941 1.524 . S
C940 H959 0.913 . S
C941 H917 0.950 . S
C941 C940 1.524 . S
C941 C942 1.415 . S
C942 H918 0.950 . S
C942 C937 1.363 . S
C942 C941 1.415 . S
C943 H919 0.951 . S
C943 C944 1.366 . S
C943 C945 1.388 . S
C944 C943 1.366 . S
C944 C948 1.385 . S
C945 H920 0.951 . S
C945 C943 1.388 . S
C945 C946 1.366 . S
C946 C945 1.366 . S
C946 C947 1.414 . S
C946 C949 1.499 . S
C947 H921 0.950 . S
C947 C946 1.414 . S
C947 C948 1.374 . S
C948 H922 0.950 . S
C948 C944 1.385 . S
C948 C947 1.374 . S
C949 C946 1.499 . S
C949 C950 1.373 . S
C949 C951 1.389 . S
C950 H923 0.950 . S
C950 C936 1.377 . S
C950 C949 1.373 . S
C951 C935 1.377 . S
C951 C949 1.389 . S
C951 C952 1.524 . S
C952 C951 1.524 . S
C952 C953 1.397 . S
C952 C957 1.363 . S
C953 H924 0.950 . S
C953 C952 1.397 . S
C953 C954 1.334 . S
C954 H925 0.950 . S
C954 C953 1.334 . S
C954 C955 1.287 . S
C955 C954 1.287 . S
C955 C956 1.524 . S
C955 H958 0.999 . S
C956 H926 0.950 . S
C956 C955 1.524 . S
C956 C957 1.415 . S
C957 H927 0.950 . S
C957 C952 1.363 . S
C957 C956 1.415 . S
H958 C955 0.999 . S
H959 C940 0.913 . S
H960 C978 0.951 . S
H961 C980 0.951 . S
H962 C982 0.950 . S
H963 C983 0.950 . S
H964 C985 0.950 1_655 S
H965 C988 0.950 . S
H966 C989 0.950 . S
H967 C991 0.950 . S
H968 C992 0.950 . S
H969 C993 0.963 1_655 S
H970 C995 0.951 1_655 S
H971 C997 0.950 . S
H972 C998 0.950 1_556 S
H973 C1000 0.950 . S
H974 C1003 0.950 . S
H975 C1004 0.950 . S
H976 C1006 0.950 . S
H977 C1007 0.950 . S
C978 H960 0.951 . S
C978 C979 1.366 . S
C978 C980 1.388 . S
C979 C978 1.366 . S
C979 C983 1.385 1_455 S
C980 H961 0.951 . S
C980 C978 1.388 . S
C980 C981 1.366 . S
C981 C980 1.366 . S
C981 C982 1.414 1_455 S
C981 C984 1.499 . S
C982 H962 0.950 . S
C982 C981 1.414 1_655 S
C982 C983 1.374 . S
C983 H963 0.950 . S
C983 C979 1.385 1_655 S
C983 C982 1.374 . S
C984 C981 1.499 . S
C984 C985 1.373 . S
C984 C986 1.389 . S
C985 H964 0.950 1_455 S
C985 C984 1.373 . S
C985 C1001 1.377 . S
C986 C984 1.389 . S
C986 C987 1.524 . S
C986 C1000 1.377 . S
C987 C986 1.524 . S
C987 C988 1.397 . S
C987 C992 1.363 . S
C988 H965 0.950 . S
C988 C987 1.397 . S
C988 C989 1.334 . S
C989 H966 0.950 . S
C989 C988 1.334 . S
C989 C990 1.287 . S
C990 C989 1.287 . S
C990 C991 1.524 . S
C990 H1009 0.913 . S
C991 H967 0.950 . S
C991 C990 1.524 . S
C991 C992 1.415 . S
C992 H968 0.950 . S
C992 C987 1.363 . S
C992 C991 1.415 . S
C993 H969 0.963 1_455 S
C993 C994 1.377 . S
C993 C995 1.365 1_556 S
C994 C993 1.377 . S
C994 C998 1.385 1_556 S
C995 H970 0.951 1_455 S
C995 C993 1.365 1_554 S
C995 C996 1.366 . S
C996 C995 1.366 . S
C996 C997 1.414 . S
C996 C999 1.499 . S
C997 H971 0.950 . S
C997 C996 1.414 . S
C997 C998 1.374 . S
C998 H972 0.950 1_554 S
C998 C994 1.385 1_554 S
C998 C997 1.374 . S
C999 C996 1.499 . S
C999 C1000 1.373 . S
C999 C1001 1.389 . S
C1000 H973 0.950 . S
C1000 C986 1.377 . S
C1000 C999 1.373 . S
C1001 C985 1.377 . S
C1001 C999 1.389 . S
C1001 C1002 1.524 1_455 S
C1002 C1001 1.524 1_655 S
C1002 C1003 1.397 1_655 S
C1002 C1007 1.363 . S
C1003 H974 0.950 . S
C1003 C1002 1.397 1_455 S
C1003 C1004 1.334 . S
C1004 H975 0.950 . S
C1004 C1003 1.334 . S
C1004 C1005 1.287 1_455 S
C1005 C1004 1.287 1_655 S
C1005 C1006 1.524 . S
C1005 H1008 0.999 . S
C1006 H976 0.950 . S
C1006 C1005 1.524 . S
C1006 C1007 1.415 . S
C1007 H977 0.950 . S
C1007 C1002 1.363 . S
C1007 C1006 1.415 . S
H1008 C1005 0.999 . S
H1009 C990 0.913 . S
H1010 C1028 0.951 . S
H1011 C1030 0.951 . S
H1012 C1032 0.950 . S
H1013 C1033 0.950 . S
H1014 C1035 0.950 . S
H1015 C1038 0.950 . S
H1016 C1039 0.950 . S
H1017 C1041 0.950 . S
H1018 C1042 0.950 . S
H1019 C1043 0.951 1_565 S
H1020 C1045 0.931 1_565 S
H1021 C1047 0.950 . S
H1022 C1048 0.950 . S
H1023 C1050 0.950 . S
H1024 C1053 0.950 . S
H1025 C1054 0.950 . S
H1026 C1056 0.950 1_565 S
H1027 C1057 0.950 1_565 S
C1028 H1010 0.951 . S
C1028 C1029 1.366 . S
C1028 C1030 1.388 . S
C1029 C1028 1.366 . S
C1029 C1033 1.385 1_545 S
C1030 H1011 0.951 . S
C1030 C1028 1.388 . S
C1030 C1031 1.366 . S
C1031 C1030 1.366 . S
C1031 C1032 1.414 1_545 S
C1031 C1034 1.499 . S
C1032 H1012 0.950 . S
C1032 C1031 1.414 1_565 S
C1032 C1033 1.374 . S
C1033 H1013 0.950 . S
C1033 C1029 1.385 1_565 S
C1033 C1032 1.374 . S
C1034 C1031 1.499 . S
C1034 C1035 1.373 . S
C1034 C1036 1.389 . S
C1035 H1014 0.950 . S
C1035 C1034 1.373 . S
C1035 C1051 1.377 . S
C1036 C1034 1.389 . S
C1036 C1037 1.524 . S
C1036 C1050 1.377 . S
C1037 C1036 1.524 . S
C1037 C1038 1.397 1_545 S
C1037 C1042 1.363 . S
C1038 H1015 0.950 . S
C1038 C1037 1.397 1_565 S
C1038 C1039 1.334 . S
C1039 H1016 0.950 . S
C1039 C1038 1.334 . S
C1039 C1040 1.287 . S
C1040 C1039 1.287 . S
C1040 C1041 1.524 1_565 S
C1040 H1059 0.913 . S
C1041 H1017 0.950 . S
C1041 C1040 1.524 1_545 S
C1041 C1042 1.415 . S
C1042 H1018 0.950 . S
C1042 C1037 1.363 . S
C1042 C1041 1.415 . S
C1043 H1019 0.951 1_545 S
C1043 C1044 1.366 . S
C1043 C1045 1.389 . S
C1044 C1043 1.366 . S
C1044 C1048 1.385 . S
C1045 H1020 0.931 1_545 S
C1045 C1043 1.389 . S
C1045 C1046 1.384 . S
C1046 C1045 1.384 . S
C1046 C1047 1.414 . S
C1046 C1049 1.499 . S
C1047 H1021 0.950 . S
C1047 C1046 1.414 . S
C1047 C1048 1.374 . S
C1048 H1022 0.950 . S
C1048 C1044 1.385 . S
C1048 C1047 1.374 . S
C1049 C1046 1.499 . S
C1049 C1050 1.373 . S
C1049 C1051 1.389 . S
C1050 H1023 0.950 . S
C1050 C1036 1.377 . S
C1050 C1049 1.373 . S
C1051 C1035 1.377 . S
C1051 C1049 1.389 . S
C1051 C1052 1.524 . S
C1052 C1051 1.524 . S
C1052 C1053 1.397 . S
C1052 C1057 1.363 . S
C1053 H1024 0.950 . S
C1053 C1052 1.397 . S
C1053 C1054 1.334 . S
C1054 H1025 0.950 . S
C1054 C1053 1.334 . S
C1054 C1055 1.287 . S
C1055 C1054 1.287 . S
C1055 C1056 1.524 . S
C1055 H1058 0.999 . S
C1056 H1026 0.950 1_545 S
C1056 C1055 1.524 . S
C1056 C1057 1.415 . S
C1057 H1027 0.950 1_545 S
C1057 C1052 1.363 . S
C1057 C1056 1.415 . S
H1058 C1055 0.999 . S
H1059 C1040 0.913 . S
H1060 C1078 0.951 . S
H1061 C1080 0.951 . S
H1062 C1082 0.950 . S
H1063 C1083 0.950 . S
H1064 C1085 0.950 . S
H1065 C1088 0.950 . S
H1066 C1089 0.950 . S
H1067 C1091 0.950 . S
H1068 C1092 0.950 . S
H1069 C1093 0.951 . S
H1070 C1095 0.951 . S
H1071 C1097 0.950 . S
H1072 C1098 0.950 . S
H1073 C1100 0.950 . S
H1074 C1103 0.950 . S
H1075 C1104 0.950 . S
H1076 C1106 0.950 . S
H1077 C1107 0.950 . S
C1078 H1060 0.951 . S
C1078 C1079 1.366 . S
C1078 C1080 1.388 . S
C1079 C1078 1.366 . S
C1079 C1083 1.385 . S
C1080 H1061 0.951 . S
C1080 C1078 1.388 . S
C1080 C1081 1.366 . S
C1081 C1080 1.366 . S
C1081 C1082 1.414 . S
C1081 C1084 1.499 . S
C1082 H1062 0.950 . S
C1082 C1081 1.414 . S
C1082 C1083 1.374 . S
C1083 H1063 0.950 . S
C1083 C1079 1.385 . S
C1083 C1082 1.374 . S
C1084 C1081 1.499 . S
C1084 C1085 1.373 . S
C1084 C1086 1.389 . S
C1085 H1064 0.950 . S
C1085 C1084 1.373 . S
C1085 C1101 1.377 . S
C1086 C1084 1.389 . S
C1086 C1087 1.524 . S
C1086 C1100 1.377 . S
C1087 C1086 1.524 . S
C1087 C1088 1.397 . S
C1087 C1092 1.363 . S
C1088 H1065 0.950 . S
C1088 C1087 1.397 . S
C1088 C1089 1.334 . S
C1089 H1066 0.950 . S
C1089 C1088 1.334 . S
C1089 C1090 1.287 . S
C1090 C1089 1.287 . S
C1090 C1091 1.524 . S
C1090 H1109 0.913 . S
C1091 H1067 0.950 . S
C1091 C1090 1.524 . S
C1091 C1092 1.415 . S
C1092 H1068 0.950 . S
C1092 C1087 1.363 . S
C1092 C1091 1.415 . S
C1093 H1069 0.951 . S
C1093 C1094 1.366 . S
C1093 C1095 1.388 . S
C1094 C1093 1.366 . S
C1094 C1098 1.385 . S
C1095 H1070 0.951 . S
C1095 C1093 1.388 . S
C1095 C1096 1.366 . S
C1096 C1095 1.366 . S
C1096 C1097 1.414 . S
C1096 C1099 1.499 . S
C1097 H1071 0.950 . S
C1097 C1096 1.414 . S
C1097 C1098 1.374 . S
C1098 H1072 0.950 . S
C1098 C1094 1.385 . S
C1098 C1097 1.374 . S
C1099 C1096 1.499 . S
C1099 C1100 1.373 . S
C1099 C1101 1.389 . S
C1100 H1073 0.950 . S
C1100 C1086 1.377 . S
C1100 C1099 1.373 . S
C1101 C1085 1.377 . S
C1101 C1099 1.389 . S
C1101 C1102 1.524 . S
C1102 C1101 1.524 . S
C1102 C1103 1.397 . S
C1102 C1107 1.363 . S
C1103 H1074 0.950 . S
C1103 C1102 1.397 . S
C1103 C1104 1.334 . S
C1104 H1075 0.950 . S
C1104 C1103 1.334 . S
C1104 C1105 1.287 . S
C1105 C1104 1.287 . S
C1105 C1106 1.524 . S
C1105 H1108 0.999 . S
C1106 H1076 0.950 . S
C1106 C1105 1.524 . S
C1106 C1107 1.415 . S
C1107 H1077 0.950 . S
C1107 C1102 1.363 . S
C1107 C1106 1.415 . S
H1108 C1105 0.999 . S
H1109 C1090 0.913 . S
H1110 C1128 0.951 . S
H1111 C1130 0.951 . S
H1112 C1132 0.950 . S
H1113 C1133 0.950 . S
H1114 C1135 0.932 . S
H1115 C1138 0.950 . S
H1116 C1139 0.950 . S
H1117 C1141 0.950 . S
H1118 C1142 0.950 . S
H1119 C1143 0.951 . S
H1120 C1145 0.951 . S
H1121 C1147 0.950 . S
H1122 C1148 0.950 . S
H1123 C1150 0.950 . S
H1124 C1153 0.950 . S
H1125 C1154 0.950 . S
H1126 C1156 0.950 . S
H1127 C1157 0.950 . S
C1128 H1110 0.951 . S
C1128 C1129 1.366 . S
C1128 C1130 1.388 . S
C1129 C1128 1.366 . S
C1129 C1133 1.385 1_545 S
C1130 H1111 0.951 . S
C1130 C1128 1.388 . S
C1130 C1131 1.366 . S
C1131 C1130 1.366 . S
C1131 C1132 1.414 1_545 S
C1131 C1134 1.503 . S
C1132 H1112 0.950 . S
C1132 C1131 1.414 1_565 S
C1132 C1133 1.374 . S
C1133 H1113 0.950 . S
C1133 C1129 1.385 1_565 S
C1133 C1132 1.374 . S
C1134 C1131 1.503 . S
C1134 C1135 1.412 1_545 S
C1134 C1136 1.371 . S
C1135 H1114 0.932 . S
C1135 C1134 1.412 1_565 S
C1135 C1151 1.377 1_565 S
C1136 C1134 1.371 . S
C1136 C1137 1.524 . S
C1136 C1150 1.377 . S
C1137 C1136 1.524 . S
C1137 C1138 1.397 1_545 S
C1137 C1142 1.363 . S
C1138 H1115 0.950 . S
C1138 C1137 1.397 1_565 S
C1138 C1139 1.334 . S
C1139 H1116 0.950 . S
C1139 C1138 1.334 . S
C1139 C1140 1.287 . S
C1140 C1139 1.287 . S
C1140 C1141 1.524 1_565 S
C1140 H1159 0.913 . S
C1141 H1117 0.950 . S
C1141 C1140 1.524 1_545 S
C1141 C1142 1.415 . S
C1142 H1118 0.950 . S
C1142 C1137 1.363 . S
C1142 C1141 1.415 . S
C1143 H1119 0.951 . S
C1143 C1144 1.366 . S
C1143 C1145 1.388 . S
C1144 C1143 1.366 . S
C1144 C1148 1.385 1_565 S
C1145 H1120 0.951 . S
C1145 C1143 1.388 . S
C1145 C1146 1.367 1_565 S
C1146 C1145 1.367 1_545 S
C1146 C1147 1.413 . S
C1146 C1149 1.498 . S
C1147 H1121 0.950 . S
C1147 C1146 1.413 . S
C1147 C1148 1.374 . S
C1148 H1122 0.950 . S
C1148 C1144 1.385 1_545 S
C1148 C1147 1.374 . S
C1149 C1146 1.498 . S
C1149 C1150 1.373 . S
C1149 C1151 1.391 . S
C1150 H1123 0.950 . S
C1150 C1136 1.377 . S
C1150 C1149 1.373 . S
C1151 C1135 1.377 1_545 S
C1151 C1149 1.391 . S
C1151 C1152 1.504 . S
C1152 C1151 1.504 . S
C1152 C1153 1.421 . S
C1152 C1157 1.360 1_545 S
C1153 H1124 0.950 . S
C1153 C1152 1.421 . S
C1153 C1154 1.334 . S
C1154 H1125 0.950 . S
C1154 C1153 1.334 . S
C1154 C1155 1.287 . S
C1155 C1154 1.287 . S
C1155 C1156 1.524 1_545 S
C1155 H1158 0.999 . S
C1156 H1126 0.950 . S
C1156 C1155 1.524 1_565 S
C1156 C1157 1.415 . S
C1157 H1127 0.950 . S
C1157 C1152 1.360 1_565 S
C1157 C1156 1.415 . S
H1158 C1155 0.999 . S
H1159 C1140 0.913 . S
H1160 C1178 0.951 . S
H1161 C1180 0.951 . S
H1162 C1182 0.950 . S
H1163 C1183 0.950 . S
H1164 C1185 0.950 . S
H1165 C1188 0.950 . S
H1166 C1189 0.950 . S
H1167 C1191 0.950 . S
H1168 C1192 0.950 . S
H1169 C1193 0.951 . S
H1170 C1195 0.951 . S
H1171 C1197 0.950 . S
H1172 C1198 0.950 . S
H1173 C1200 0.950 . S
H1174 C1203 0.950 . S
H1175 C1204 0.950 . S
H1176 C1206 0.950 . S
H1177 C1207 0.950 . S
C1178 H1160 0.951 . S
C1178 C1179 1.366 . S
C1178 C1180 1.388 . S
C1179 C1178 1.366 . S
C1179 C1183 1.385 . S
C1180 H1161 0.951 . S
C1180 C1178 1.388 . S
C1180 C1181 1.366 . S
C1181 C1180 1.366 . S
C1181 C1182 1.414 . S
C1181 C1184 1.499 . S
C1182 H1162 0.950 . S
C1182 C1181 1.414 . S
C1182 C1183 1.374 . S
C1183 H1163 0.950 . S
C1183 C1179 1.385 . S
C1183 C1182 1.374 . S
C1184 C1181 1.499 . S
C1184 C1185 1.373 . S
C1184 C1186 1.389 . S
C1185 H1164 0.950 . S
C1185 C1184 1.373 . S
C1185 C1201 1.377 . S
C1186 C1184 1.389 . S
C1186 C1187 1.524 . S
C1186 C1200 1.377 . S
C1187 C1186 1.524 . S
C1187 C1188 1.397 . S
C1187 C1192 1.363 . S
C1188 H1165 0.950 . S
C1188 C1187 1.397 . S
C1188 C1189 1.334 . S
C1189 H1166 0.950 . S
C1189 C1188 1.334 . S
C1189 C1190 1.287 . S
C1190 C1189 1.287 . S
C1190 C1191 1.524 . S
C1190 H1209 0.913 . S
C1191 H1167 0.950 . S
C1191 C1190 1.524 . S
C1191 C1192 1.415 . S
C1192 H1168 0.950 . S
C1192 C1187 1.363 . S
C1192 C1191 1.415 . S
C1193 H1169 0.951 . S
C1193 C1194 1.366 . S
C1193 C1195 1.388 1_554 S
C1194 C1193 1.366 . S
C1194 C1198 1.385 . S
C1195 H1170 0.951 . S
C1195 C1193 1.388 1_556 S
C1195 C1196 1.366 . S
C1196 C1195 1.366 . S
C1196 C1197 1.414 . S
C1196 C1199 1.499 . S
C1197 H1171 0.950 . S
C1197 C1196 1.414 . S
C1197 C1198 1.374 1_556 S
C1198 H1172 0.950 . S
C1198 C1194 1.385 . S
C1198 C1197 1.374 1_554 S
C1199 C1196 1.499 . S
C1199 C1200 1.373 . S
C1199 C1201 1.389 . S
C1200 H1173 0.950 . S
C1200 C1186 1.377 . S
C1200 C1199 1.373 . S
C1201 C1185 1.377 . S
C1201 C1199 1.389 . S
C1201 C1202 1.524 . S
C1202 C1201 1.524 . S
C1202 C1203 1.397 . S
C1202 C1207 1.363 . S
C1203 H1174 0.950 . S
C1203 C1202 1.397 . S
C1203 C1204 1.334 . S
C1204 H1175 0.950 . S
C1204 C1203 1.334 . S
C1204 C1205 1.287 . S
C1205 C1204 1.287 . S
C1205 C1206 1.524 . S
C1205 H1208 0.999 . S
C1206 H1176 0.950 . S
C1206 C1205 1.524 . S
C1206 C1207 1.415 . S
C1207 H1177 0.950 . S
C1207 C1202 1.363 . S
C1207 C1206 1.415 . S
H1208 C1205 0.999 . S
H1209 C1190 0.913 . S
H1210 C1228 0.951 . S
H1211 C1230 0.951 . S
H1212 C1232 0.950 1_655 S
H1213 C1233 0.958 . S
H1214 C1235 0.950 . S
H1215 C1238 0.950 . S
H1216 C1239 0.950 . S
H1217 C1241 0.950 . S
H1218 C1242 0.950 . S
H1219 C1243 0.951 . S
H1220 C1245 0.951 . S
H1221 C1247 0.950 . S
H1222 C1248 0.950 . S
H1223 C1250 0.950 . S
H1224 C1253 0.950 . S
H1225 C1254 0.950 . S
H1226 C1256 0.950 . S
H1227 C1257 0.950 . S
C1228 H1210 0.951 . S
C1228 C1229 1.366 . S
C1228 C1230 1.388 . S
C1229 C1228 1.366 . S
C1229 C1233 1.385 . S
C1230 H1211 0.951 . S
C1230 C1228 1.388 . S
C1230 C1231 1.366 . S
C1231 C1230 1.366 . S
C1231 C1232 1.414 . S
C1231 C1234 1.499 . S
C1232 H1212 0.950 1_455 S
C1232 C1231 1.414 . S
C1232 C1233 1.374 . S
C1233 H1213 0.958 . S
C1233 C1229 1.385 . S
C1233 C1232 1.374 . S
C1234 C1231 1.499 . S
C1234 C1235 1.373 . S
C1234 C1236 1.389 1_455 S
C1235 H1214 0.950 . S
C1235 C1234 1.373 . S
C1235 C1251 1.377 . S
C1236 C1234 1.389 1_655 S
C1236 C1237 1.524 . S
C1236 C1250 1.377 . S
C1237 C1236 1.524 . S
C1237 C1238 1.397 . S
C1237 C1242 1.363 . S
C1238 H1215 0.950 . S
C1238 C1237 1.397 . S
C1238 C1239 1.334 . S
C1239 H1216 0.950 . S
C1239 C1238 1.334 . S
C1239 C1240 1.287 . S
C1240 C1239 1.287 . S
C1240 C1241 1.524 . S
C1240 H1259 0.913 . S
C1241 H1217 0.950 . S
C1241 C1240 1.524 . S
C1241 C1242 1.415 . S
C1242 H1218 0.950 . S
C1242 C1237 1.363 . S
C1242 C1241 1.415 . S
C1243 H1219 0.951 . S
C1243 C1244 1.366 . S
C1243 C1245 1.388 . S
C1244 C1243 1.366 . S
C1244 C1248 1.385 1_655 S
C1245 H1220 0.951 . S
C1245 C1243 1.388 . S
C1245 C1246 1.366 1_655 S
C1246 C1245 1.366 1_455 S
C1246 C1247 1.414 . S
C1246 C1249 1.499 . S
C1247 H1221 0.950 . S
C1247 C1246 1.414 . S
C1247 C1248 1.374 . S
C1248 H1222 0.950 . S
C1248 C1244 1.385 1_455 S
C1248 C1247 1.374 . S
C1249 C1246 1.499 . S
C1249 C1250 1.373 1_455 S
C1249 C1251 1.389 . S
C1250 H1223 0.950 . S
C1250 C1236 1.377 . S
C1250 C1249 1.373 1_655 S
C1251 C1235 1.377 . S
C1251 C1249 1.389 . S
C1251 C1252 1.524 . S
C1252 C1251 1.524 . S
C1252 C1253 1.397 . S
C1252 C1257 1.363 . S
C1253 H1224 0.950 . S
C1253 C1252 1.397 . S
C1253 C1254 1.334 . S
C1254 H1225 0.950 . S
C1254 C1253 1.334 . S
C1254 C1255 1.287 . S
C1255 C1254 1.287 . S
C1255 C1256 1.524 . S
C1255 H1258 0.999 . S
C1256 H1226 0.950 . S
C1256 C1255 1.524 . S
C1256 C1257 1.415 . S
C1257 H1227 0.950 . S
C1257 C1252 1.363 . S
C1257 C1256 1.415 . S
H1258 C1255 0.999 . S
H1259 C1240 0.913 . S
C379 C7 0.470 . S
C394 C335 0.470 . S
C429 C51 1.896 . S
C444 C242 1.875 . S
C479 C87 1.146 . S
C494 C282 1.146 . S
C529 C16 0.300 . S
C544 C322 0.249 . S
C594 C255 2.018 . S
C579 C42 2.058 . S
C644 C295 1.301 . S
C629 C96 1.309 . S
C679 C47 1.148 . S
C694 C162 1.141 . S
C729 C91 3.113 . S
C744 C202 3.078 . S
C779 C2 2.085 . S
C794 C135 2.052 . S
C844 C175 1.280 . S
C829 C56 1.282 . S
C894 C215 2.956 . S
C879 C82 2.988 . S
C929 C11 1.887 . S
C944 C122 1.869 . S
C994 C221 1.741 . S
C979 C19 1.697 . S
C1029 C50 1.354 . S
C1044 C141 1.385 . S
C1079 C99 1.468 . S
C1094 C181 1.507 . S
C1144 C301 1.490 . S
C1129 C59 1.456 . S
C1194 C341 1.135 . S
C1179 C90 1.120 . S
C1229 C10 1.350 . S
C1244 C261 1.377 . S
