# Generated by pormake.
# Topology pth, (4,4)-cn, num edge types: 1
# Building blocks:
#     Node 0, Type 0, BuildingBlock: NAHDIM_clean_sbu_0, # of connection points: 4
#     Node 1, Type 0, BuildingBlock: NAHDIM_clean_sbu_0, # of connection points: 4
#     Node 2, Type 0, BuildingBlock: NAHDIM_clean_sbu_0, # of connection points: 4
#     Node 3, Type 1, BuildingBlock: NAWXER_clean_sbu_0, # of connection points: 4
#     Node 4, Type 1, BuildingBlock: NAWXER_clean_sbu_0, # of connection points: 4
#     Node 5, Type 1, BuildingBlock: NAWXER_clean_sbu_0, # of connection points: 4
#     Edge 6, Type (0, 1), BuildingBlock: XUDNAN_clean_linker_2, # of connection points: 2
#     Edge 7, Type (0, 1), BuildingBlock: XUDNAN_clean_linker_2, # of connection points: 2
#     Edge 8, Type (0, 1), BuildingBlock: XUDNAN_clean_linker_2, # of connection points: 2
#     Edge 9, Type (0, 1), BuildingBlock: XUDNAN_clean_linker_2, # of connection points: 2
#     Edge 10, Type (0, 1), BuildingBlock: XUDNAN_clean_linker_2, # of connection points: 2
#     Edge 11, Type (0, 1), BuildingBlock: XUDNAN_clean_linker_2, # of connection points: 2
#     Edge 12, Type (0, 1), BuildingBlock: XUDNAN_clean_linker_2, # of connection points: 2
#     Edge 13, Type (0, 1), BuildingBlock: XUDNAN_clean_linker_2, # of connection points: 2
#     Edge 14, Type (0, 1), BuildingBlock: XUDNAN_clean_linker_2, # of connection points: 2
#     Edge 15, Type (0, 1), BuildingBlock: XUDNAN_clean_linker_2, # of connection points: 2
#     Edge 16, Type (0, 1), BuildingBlock: XUDNAN_clean_linker_2, # of connection points: 2
#     Edge 17, Type (0, 1), BuildingBlock: XUDNAN_clean_linker_2, # of connection points: 2
# Relax obj value: 0.052
# Max RMSD: 0.176
# Mean RMSD: 0.101
data_MOF--net-pth--node1-NAHDIM_clean_sbu_0--node2-NAWXER_clean_sbu_0--edge1-XUDNAN_clean_linker_2
_symmetry_space_group_name_H-M    P1
_symmetry_Int_Tables_number       1
_symmetry_cell_setting            triclinic
loop_
_symmetry_equiv_pos_as_xyz
'x, y, z'
_cell_length_a     22.825421
_cell_length_b     22.990312
_cell_length_c     56.321072
_cell_angle_alpha  92.188156
_cell_angle_beta   89.835643
_cell_angle_gamma 120.62506
loop_
_atom_site_label
_atom_site_type_symbol
_atom_site_fract_x
_atom_site_fract_y
_atom_site_fract_z
_atom_type_partial_charge
C0 C 0.02191 0.96999 0.10861 0.0
O1 O 0.97283 0.94594 0.09248 0.0
O2 O 0.04813 0.15382 0.09626 0.0
Zn3 Zn 0.0731 0.08877 0.08095 0.0
O4 O 0.01208 0.02681 0.05396 0.0
C5 C 0.16489 0.18813 0.05184 0.0
O6 O 0.10672 0.18416 0.04692 0.0
O7 O 0.07233 0.03002 0.10715 0.0
C8 C 0.03765 0.99495 0.04352 0.0
O9 O 0.09829 0.00812 0.05045 0.0
C10 C 0.00988 0.17496 0.08906 0.0
O11 O 0.97471 0.14946 0.06911 0.0
O12 O 0.16584 0.14896 0.06703 0.0
C13 C 0.04139 0.20249 0.38621 0.0
O14 O 0.00598 0.19933 0.40504 0.0
O15 O 0.06931 0.02979 0.39612 0.0
Zn16 Zn 0.06263 0.10702 0.41154 0.0
O17 O 0.97239 0.07955 0.42692 0.0
C18 C 0.13673 0.10536 0.45006 0.0
O19 O 0.08658 0.04241 0.44718 0.0
O20 O 0.07358 0.17065 0.38568 0.0
C21 C 0.92759 0.0271 0.43704 0.0
O22 O 0.93598 0.97502 0.43891 0.0
C23 C 0.03878 0.9978 0.37697 0.0
O24 O 0.99502 0.01087 0.36698 0.0
O25 O 0.13831 0.1492 0.43653 0.0
C26 C 0.07307 0.9452 0.71285 0.0
O27 O 0.00657 0.91071 0.70988 0.0
O28 O 1.00317 0.05886 0.71507 0.0
Zn29 Zn 0.05466 0.04578 0.74138 0.0
O30 O 0.13339 0.13204 0.75595 0.0
C31 C 0.94216 0.00479 0.77249 0.0
O32 O 0.94492 0.05817 0.76369 0.0
O33 O 0.10055 0.99909 0.72597 0.0
C34 C 0.13715 0.15545 0.77707 0.0
O35 O 0.0833 0.1273 0.79051 0.0
C36 C 0.98929 0.10494 0.71166 0.0
O37 O 0.01309 0.15775 0.72655 0.0
O38 O 0.98597 0.98896 0.76603 0.0
C39 C 0.08551 0.67142 0.27341 0.0
C40 C 0.06011 0.53186 0.20159 0.0
O41 O 0.13504 0.67359 0.26213 0.0
Zn42 Zn 0.07917 0.60094 0.23836 0.0
O43 O 0.02436 0.6263 0.26753 0.0
Zn44 Zn 0.96874 0.54613 0.2422 0.0
O45 O 0.92918 0.46561 0.26153 0.0
O46 O 0.04042 0.51286 0.25782 0.0
O47 O 1.00416 0.51757 0.21159 0.0
O48 O 0.11676 0.57677 0.21104 0.0
O49 O 0.02635 0.64387 0.22222 0.0
O50 O 0.91511 0.58018 0.22742 0.0
C51 C 0.98409 0.4658 0.26561 0.0
C52 C 0.96587 0.63279 0.21929 0.0
C53 C 0.62481 0.06548 0.60733 0.0
C54 C 0.47147 0.10104 0.55755 0.0
O55 O 0.57905 0.01143 0.59633 0.0
Zn56 Zn 0.49423 0.97985 0.57272 0.0
O57 O 0.62449 0.12025 0.60547 0.0
Zn58 Zn 0.54721 0.08462 0.58333 0.0
O59 O 0.46114 0.02121 0.60464 0.0
O60 O 0.41647 0.91614 0.59042 0.0
O61 O 0.52092 0.14537 0.57047 0.0
O62 O 0.45747 0.03939 0.55703 0.0
O63 O 0.52269 0.94689 0.5455 0.0
O64 O 0.58463 0.05773 0.55211 0.0
C65 C 0.4155 0.95833 0.60542 0.0
C66 C 0.57149 0.00421 0.53977 0.0
C67 C 0.5044 0.51512 0.94578 0.0
C68 C 0.62176 0.67615 0.88335 0.0
O69 O 0.49254 0.56071 0.93936 0.0
Zn70 Zn 0.5591 0.5956 0.91428 0.0
O71 O 0.54948 0.50702 0.93503 0.0
Zn72 Zn 0.61921 0.54964 0.90664 0.0
O73 O 0.7063 0.58367 0.92277 0.0
O74 O 0.65363 0.63835 0.93366 0.0
O75 O 0.64111 0.63335 0.88589 0.0
O76 O 0.57386 0.67254 0.89605 0.0
O77 O 0.51528 0.5137 0.88846 0.0
O78 O 0.58608 0.47595 0.88273 0.0
C79 C 0.70505 0.63031 0.9353 0.0
C80 C 0.52999 0.47257 0.8779 0.0
H81 H 0.09136 0.24964 0.12723 0.0
H82 H 0.93123 0.23128 0.08051 0.0
H83 H 0.93545 0.32918 0.10204 0.0
H84 H 0.03472 0.29191 0.1802 0.0
H85 H 0.11919 0.35069 0.1917 0.0
H86 H 0.10516 0.28126 0.17191 0.0
H87 H 0.19638 0.36575 0.14376 0.0
H88 H 0.21012 0.43559 0.16335 0.0
H89 H 0.18783 0.4335 0.13253 0.0
H90 H 0.95164 0.42349 0.13028 0.0
H91 H 0.97654 0.5058 0.1638 0.0
H92 H 0.12994 0.46661 0.19101 0.0
C93 C 0.05716 0.26615 0.12143 0.0
C94 C 0.01075 0.23257 0.10216 0.0
C95 C 0.96711 0.25607 0.0952 0.0
C96 C 0.96939 0.31182 0.10726 0.0
C97 C 0.01605 0.3439 0.12606 0.0
C98 C 0.05915 0.32192 0.13312 0.0
C99 C 0.103 0.36373 0.15439 0.0
C100 C 0.08969 0.31925 0.17581 0.0
C101 C 0.17883 0.40191 0.14812 0.0
C102 C 0.07692 0.412 0.15855 0.0
C103 C 0.02696 0.39982 0.14192 0.0
C104 C 0.99145 0.43427 0.14312 0.0
C105 C 0.00604 0.48099 0.16215 0.0
C106 C 0.05616 0.49341 0.17955 0.0
C107 C 0.09311 0.45963 0.17744 0.0
H108 H 0.82992 0.93399 0.46634 0.0
H109 H 0.89142 0.12219 0.43198 0.0
H110 H 0.79935 0.12985 0.45167 0.0
H111 H 0.64399 0.87027 0.46446 0.0
H112 H 0.63092 0.83453 0.49329 0.0
H113 H 0.69774 0.83965 0.47472 0.0
H114 H 0.78611 0.90608 0.50864 0.0
H115 H 0.7197 0.90121 0.52727 0.0
H116 H 0.79298 0.98239 0.52151 0.0
H117 H 0.71081 0.12531 0.47812 0.0
H118 H 0.62711 0.10609 0.50921 0.0
H119 H 0.61718 0.91861 0.52574 0.0
C120 C 0.82317 0.97609 0.46263 0.0
C121 C 0.86815 0.02749 0.44758 0.0
C122 C 0.85799 0.08222 0.44344 0.0
C123 C 0.80554 0.08697 0.45448 0.0
C124 C 0.76301 0.03633 0.46951 0.0
C125 C 0.77066 0.9816 0.47351 0.0
C126 C 0.72002 0.93634 0.49161 0.0
C127 C 0.6702 0.86602 0.48034 0.0
C128 C 0.75692 0.93124 0.51355 0.0
C129 C 0.68424 0.97533 0.49758 0.0
C130 C 0.70982 0.03269 0.48449 0.0
C131 C 0.6893 0.07989 0.48815 0.0
C132 C 0.64194 0.06868 0.50585 0.0
C133 C 0.61509 0.01045 0.51952 0.0
C134 C 0.63563 0.96258 0.51505 0.0
H135 H 0.91614 0.88676 0.79241 0.0
H136 H 0.84491 0.0293 0.79055 0.0
H137 H 0.75299 0.95998 0.81798 0.0
H138 H 0.75082 0.73636 0.79371 0.0
H139 H 0.77765 0.69446 0.81363 0.0
H140 H 0.83786 0.75549 0.79386 0.0
H141 H 0.91749 0.82396 0.82973 0.0
H142 H 0.85765 0.76296 0.84957 0.0
H143 H 0.88467 0.8512 0.85414 0.0
H144 H 0.66853 0.87446 0.84626 0.0
H145 H 0.6008 0.78096 0.87315 0.0
H146 H 0.72761 0.69544 0.85556 0.0
C147 C 0.88134 0.90353 0.79778 0.0
C148 C 0.88788 0.96353 0.78932 0.0
C149 C 0.84104 0.98351 0.79678 0.0
C150 C 0.78852 0.94444 0.81235 0.0
C151 C 0.78332 0.88539 0.82029 0.0
C152 C 0.82855 0.8651 0.81326 0.0
C153 C 0.8122 0.7998 0.82438 0.0
C154 C 0.79351 0.74319 0.80525 0.0
C155 C 0.87152 0.81013 0.84041 0.0
C156 C 0.75095 0.78666 0.83882 0.0
C157 C 0.73482 0.83638 0.83628 0.0
C158 C 0.6806 0.8351 0.84832 0.0
C159 C 0.64234 0.7818 0.86352 0.0
C160 C 0.65861 0.7307 0.86646 0.0
C161 C 0.71339 0.73338 0.85372 0.0
H162 H 0.95062 0.83199 0.11021 0.0
H163 H 0.07838 0.01519 0.15309 0.0
H164 H 0.06226 0.94641 0.18787 0.0
H165 H 0.83175 0.73364 0.15619 0.0
H166 H 0.82699 0.65576 0.14639 0.0
H167 H 0.84325 0.71912 0.1253 0.0
H168 H 0.95373 0.72185 0.11246 0.0
H169 H 0.93712 0.65776 0.13318 0.0
H170 H 0.01709 0.73675 0.1347 0.0
H171 H 0.03622 0.85893 0.21731 0.0
H172 H 0.01629 0.7582 0.23817 0.0
H173 H 0.90828 0.63044 0.17624 0.0
C174 C 0.97472 0.85758 0.12699 0.0
C175 C 0.01535 0.92891 0.12908 0.0
C176 C 0.04719 0.96061 0.15114 0.0
C177 C 0.03773 0.922 0.17102 0.0
C178 C 0.99677 0.8518 0.16845 0.0
C179 C 0.96672 0.81973 0.14691 0.0
C180 C 0.93049 0.7434 0.1484 0.0
C181 C 0.85354 0.71109 0.1438 0.0
C182 C 0.96148 0.71318 0.13117 0.0
C183 C 0.9457 0.73751 0.17409 0.0
C184 C 0.98282 0.8008 0.18541 0.0
C185 C 0.0065 0.80915 0.20875 0.0
C186 C 0.99452 0.7517 0.22051 0.0
C187 C 0.95927 0.68684 0.20895 0.0
C188 C 0.93307 0.6793 0.18568 0.0
H189 H 0.15398 0.01695 0.47555 0.0
H190 H 0.24608 0.23111 0.46344 0.0
H191 H 0.34092 0.25554 0.49121 0.0
H192 H 0.19971 0.03217 0.53784 0.0
H193 H 0.21562 0.96302 0.53548 0.0
H194 H 0.15386 0.96416 0.51597 0.0
H195 H 0.21745 0.95317 0.47941 0.0
H196 H 0.27945 0.95219 0.49878 0.0
H197 H 0.30668 0.01397 0.47624 0.0
H198 H 0.42777 0.25452 0.52012 0.0
H199 H 0.49864 0.22785 0.54571 0.0
H200 H 0.34818 0.01408 0.53677 0.0
C201 C 0.19353 0.06922 0.47887 0.0
C202 C 0.19236 0.12219 0.46742 0.0
C203 C 0.2458 0.18972 0.4721 0.0
C204 C 0.29978 0.20402 0.48786 0.0
C205 C 0.29951 0.15021 0.49866 0.0
C206 C 0.24762 0.08417 0.49426 0.0
C207 C 0.25998 0.03472 0.50705 0.0
C208 C 0.20397 0.99628 0.52516 0.0
C209 C 0.26628 0.98565 0.48931 0.0
C210 C 0.3273 0.08297 0.51928 0.0
C211 C 0.34935 0.14948 0.51451 0.0
C212 C 0.41079 0.20256 0.52396 0.0
C213 C 0.45067 0.187 0.53848 0.0
C214 C 0.42914 0.1189 0.54315 0.0
C215 C 0.36643 0.06666 0.53346 0.0
H216 H 0.16342 0.23554 0.81764 0.0
H217 H 0.26279 0.18871 0.76051 0.0
H218 H 0.37444 0.26344 0.78026 0.0
H219 H 0.29615 0.41346 0.82576 0.0
H220 H 0.28628 0.41416 0.85751 0.0
H221 H 0.21459 0.35796 0.8385 0.0
H222 H 0.19807 0.25611 0.86205 0.0
H223 H 0.2702 0.31189 0.88094 0.0
H224 H 0.26796 0.24125 0.86502 0.0
H225 H 0.47478 0.33656 0.80809 0.0
H226 H 0.55712 0.41429 0.83919 0.0
H227 H 0.39259 0.41815 0.87654 0.0
C228 C 0.20873 0.24159 0.80916 0.0
C229 C 0.20434 0.2062 0.78756 0.0
C230 C 0.26488 0.21563 0.77699 0.0
C231 C 0.32856 0.25765 0.78814 0.0
C232 C 0.33099 0.29072 0.80968 0.0
C233 C 0.27281 0.28421 0.81984 0.0
C234 C 0.28942 0.32616 0.84287 0.0
C235 C 0.27051 0.38121 0.84104 0.0
C236 C 0.25433 0.28115 0.86396 0.0
C237 C 0.36584 0.35652 0.84423 0.0
C238 C 0.38889 0.33496 0.82508 0.0
C239 C 0.45742 0.35443 0.82302 0.0
C240 C 0.50371 0.39815 0.8408 0.0
C241 C 0.48123 0.4225 0.86011 0.0
C242 C 0.41134 0.40092 0.86181 0.0
H243 H 0.93109 0.18199 0.70203 0.0
H244 H 0.9347 1.00192 0.67802 0.0
H245 H 0.84477 0.97551 0.64845 0.0
H246 H 0.75275 0.11081 0.69717 0.0
H247 H 0.75598 0.18512 0.68632 0.0
H248 H 0.82428 0.1936 0.70486 0.0
H249 H 0.91141 0.26095 0.67261 0.0
H250 H 0.84341 0.2532 0.65403 0.0
H251 H 0.89898 0.22469 0.64279 0.0
H252 H 0.74963 0.96261 0.62389 0.0
H253 H 0.65826 0.96807 0.60312 0.0
H254 H 0.71559 0.15799 0.64131 0.0
C255 C 0.9137 0.13763 0.69029 0.0
C256 C 0.94007 0.09402 0.69243 0.0
C257 C 0.91545 0.03615 0.67683 0.0
C258 C 0.86426 0.0206 0.65993 0.0
C259 C 0.83837 0.06361 0.65864 0.0
C260 C 0.86252 0.12135 0.67314 0.0
C261 C 0.8242 0.1578 0.66822 0.0
C262 C 0.78711 0.16206 0.69047 0.0
C263 C 0.87238 0.22835 0.65885 0.0
C264 C 0.77412 0.11071 0.64901 0.0
C265 C 0.78345 0.05675 0.64388 0.0
C266 C 0.74217 0.00493 0.62754 0.0
C267 C 0.69007 0.00837 0.61593 0.0
C268 C 0.67969 0.06349 0.62055 0.0
C269 C 0.72257 0.1155 0.63729 0.0
H270 H 0.90492 0.94286 0.02815 0.0
H271 H 0.08163 0.92092 0.01845 0.0
H272 H 0.01563 0.82395 0.99035 0.0
H273 H 0.78087 0.76604 0.02645 0.0
H274 H 0.71774 0.77465 0.01036 0.0
H275 H 0.77917 0.84352 0.02943 0.0
H276 H 0.81693 0.9237 0.99423 0.0
H277 H 0.7552 0.8552 0.97511 0.0
H278 H 0.84359 0.90056 0.96709 0.0
H279 H 0.9295 0.7272 0.96382 0.0
H280 H 0.83077 0.64186 0.93939 0.0
H281 H 0.71121 0.72748 0.96643 0.0
C282 C 0.92989 0.91802 0.01997 0.0
C283 C 0.99848 0.9396 0.02553 0.0
C284 C 0.02913 0.90541 0.01451 0.0
C285 C 0.99205 0.8501 0.99853 0.0
C286 C 0.92432 0.82951 0.99369 0.0
C287 C 0.89362 0.86264 0.00395 0.0
C288 C 0.82009 0.83023 0.99573 0.0
C289 C 0.77163 0.80193 0.01675 0.0
C290 C 0.80829 0.88041 0.98223 0.0
C291 C 0.81442 0.77389 0.97925 0.0
C292 C 0.87493 0.77406 0.97837 0.0
C293 C 0.8818 0.72659 0.96433 0.0
C294 C 0.82544 0.67818 0.95059 0.0
C295 C 0.76327 0.67791 0.95095 0.0
C296 C 0.75796 0.72622 0.96568 0.0
H297 H 0.96983 0.90472 0.34064 0.0
H298 H 0.15025 0.98589 0.38597 0.0
H299 H 0.18484 0.91304 0.3642 0.0
H300 H 0.93554 0.73343 0.33725 0.0
H301 H 0.90589 0.71894 0.30677 0.0
H302 H 0.89663 0.77828 0.32585 0.0
H303 H 0.96191 0.87181 0.29567 0.0
H304 H 0.9717 0.81277 0.2766 0.0
H305 H 0.04561 0.89121 0.28665 0.0
H306 H 0.20226 0.83369 0.33536 0.0
H307 H 0.19343 0.7475 0.30511 0.0
H308 H 0.9986 0.71635 0.28128 0.0
C309 C 0.01651 0.90709 0.34606 0.0
C310 C 0.05737 0.95114 0.36495 0.0
C311 C 0.11793 0.95234 0.37157 0.0
C312 C 0.13823 0.91139 0.35924 0.0
C313 C 0.09707 0.86898 0.34049 0.0
C314 C 0.03701 0.86606 0.33418 0.0
C315 C 1.00075 0.81522 0.31384 0.0
C316 C 0.93056 0.75808 0.32139 0.0
C317 C 0.99467 0.84984 0.2919 0.0
C318 C 0.04961 0.78999 0.30968 0.0
C319 C 0.10548 0.82194 0.32491 0.0
C320 C 0.15829 0.80784 0.32352 0.0
C321 C 0.15312 0.75916 0.3063 0.0
C322 C 0.095 0.72469 0.29115 0.0
C323 C 0.04318 0.74095 0.29291 0.0
H324 H 0.21003 0.02378 0.70624 0.0
H325 H 0.03481 0.82786 0.68631 0.0
H326 H 0.1069 0.80434 0.65937 0.0
H327 H 0.27431 0.06254 0.64945 0.0
H328 H 0.36267 0.10597 0.65867 0.0
H329 H 0.29977 0.10305 0.67867 0.0
H330 H 0.33866 0.05044 0.71044 0.0
H331 H 0.40197 0.05339 0.69052 0.0
H332 H 0.3404 0.97442 0.7029 0.0
H333 H 0.19715 0.80664 0.63216 0.0
H334 H 0.29513 0.83645 0.60609 0.0
H335 H 0.40872 0.03248 0.64332 0.0
C336 C 0.18696 0.97517 0.69668 0.0
C337 C 0.11682 0.92734 0.69858 0.0
C338 C 0.08851 0.86509 0.68527 0.0
C339 C 0.12911 0.85124 0.66996 0.0
C340 C 0.19785 0.90022 0.66816 0.0
C341 C 0.22643 0.96095 0.68119 0.0
C342 C 0.29978 0.00774 0.6746 0.0
C343 C 0.30966 0.07368 0.66476 0.0
C344 C 0.34805 0.02233 0.69588 0.0
C345 C 0.30779 0.96456 0.65543 0.0
C346 C 0.24891 0.90229 0.65218 0.0
C347 C 0.24368 0.85503 0.63474 0.0
C348 C 0.29965 0.87237 0.62003 0.0
C349 C 0.35967 0.93677 0.62266 0.0
C350 C 0.36375 0.98275 0.64088 0.0
H351 H 0.17925 0.28753 0.02313 0.0
H352 H 0.2908 0.19947 0.05252 0.0
H353 H 0.39251 0.27906 0.03034 0.0
H354 H 0.24653 0.31022 0.96556 0.0
H355 H 0.25014 0.38944 0.96171 0.0
H356 H 0.18782 0.32832 0.98091 0.0
H357 H 0.23217 0.41831 0.01572 0.0
H358 H 0.29474 0.4798 0.99661 0.0
H359 H 0.32114 0.4618 0.02416 0.0
H360 H 0.47873 0.36247 1.00278 0.0
H361 H 0.54456 0.44519 0.97261 0.0
H362 H 0.37758 0.48127 0.96215 0.0
C363 C 0.22517 0.28516 0.02508 0.0
C364 C 0.2271 0.23716 0.03954 0.0
C365 C 0.28823 0.2359 0.04159 0.0
C366 C 0.34619 0.28091 0.02908 0.0
C367 C 0.34224 0.32718 0.01482 0.0
C368 C 0.28341 0.32989 0.01289 0.0
C369 C 0.29172 0.38303 0.99589 0.0
C370 C 0.24106 0.35081 0.97477 0.0
C371 C 0.28453 0.43906 0.00888 0.0
C372 C 0.36418 0.4091 0.98816 0.0
C373 C 0.3924 0.37627 0.99933 0.0
C374 C 0.45744 0.38901 0.99414 0.0
C375 C 0.49432 0.43596 0.97693 0.0
C376 C 0.46632 0.46997 0.96516 0.0
C377 C 0.40072 0.45692 0.97114 0.0
H378 H 0.97177 0.2699 0.38082 0.0
H379 H 0.10255 0.21234 0.34344 0.0
H380 H 0.09226 0.26457 0.30743 0.0
H381 H 0.85862 0.24153 0.33094 0.0
H382 H 0.85015 0.31361 0.3388 0.0
H383 H 0.86587 0.27012 0.36163 0.0
H384 H 0.97275 0.38234 0.37614 0.0
H385 H 0.95685 0.42626 0.35358 0.0
H386 H 0.03807 0.43108 0.35525 0.0
H387 H 0.07209 0.32627 0.27622 0.0
H388 H 0.04856 0.39976 0.25215 0.0
H389 H 0.92819 0.41574 0.30891 0.0
C390 C 0.99831 0.26826 0.36507 0.0
C391 C 0.03806 0.23695 0.36498 0.0
C392 C 0.07196 0.23606 0.34399 0.0
C393 C 0.06609 0.26526 0.3234 0.0
C394 C 0.02593 0.29494 0.32403 0.0
C395 C 0.99289 0.29706 0.34432 0.0
C396 C 0.9549 0.33432 0.34043 0.0
C397 C 0.8778 0.28705 0.34311 0.0
C398 C 0.9823 0.39723 0.35735 0.0
C399 C 0.97257 0.35368 0.31484 0.0
C400 C 0.01325 0.32991 0.30574 0.0
C401 C 0.03966 0.34445 0.28303 0.0
C402 C 0.02588 0.38601 0.26949 0.0
C403 C 0.98565 0.41218 0.27858 0.0
C404 C 0.95737 0.39463 0.30134 0.0
loop_
_geom_bond_atom_site_label_1
_geom_bond_atom_site_label_2
_geom_bond_distance
_geom_bond_site_symmetry_2
_ccdc_geom_bond_type
C0 O1 1.160 . S
C0 O7 1.185 1_565 S
O1 C0 1.160 . S
O2 Zn3 1.899 . S
O2 C10 1.284 . S
Zn3 O2 1.899 . S
Zn3 O4 2.032 1_445 S
Zn3 O7 2.086 . S
Zn3 O12 1.977 . S
O4 Zn3 2.032 1_665 S
O4 C8 1.278 . S
C5 O6 1.203 . S
C5 O12 1.267 . S
O6 C5 1.203 . S
O7 C0 1.185 1_545 S
O7 Zn3 2.086 . S
C8 O4 1.278 . S
C8 O9 1.211 1_565 S
O9 C8 1.211 1_545 S
C10 O2 1.284 . S
C10 O11 1.273 1_455 S
O11 C10 1.273 1_655 S
O12 Zn3 1.977 . S
O12 C5 1.267 . S
C13 O14 1.160 . S
C13 O20 1.185 . S
O14 C13 1.160 . S
O15 Zn16 1.899 . S
O15 C23 1.284 1_545 S
Zn16 O15 1.899 . S
Zn16 O17 2.032 1_455 S
Zn16 O20 2.086 . S
Zn16 O25 1.977 . S
O17 Zn16 2.032 1_655 S
O17 C21 1.278 . S
C18 O19 1.203 . S
C18 O25 1.267 . S
O19 C18 1.203 . S
O20 C13 1.185 . S
O20 Zn16 2.086 . S
C21 O17 1.278 . S
C21 O22 1.211 . S
O22 C21 1.211 . S
C23 O15 1.284 1_565 S
C23 O24 1.273 1_455 S
O24 C23 1.273 1_655 S
O25 Zn16 1.977 . S
O25 C18 1.267 . S
C26 O27 1.160 . S
C26 O33 1.185 1_545 S
O27 C26 1.160 . S
O28 Zn29 1.899 1_655 S
O28 C36 1.284 . S
Zn29 O28 1.899 1_455 S
Zn29 O30 2.032 . S
Zn29 O33 2.086 1_545 S
Zn29 O38 1.977 1_445 S
O30 Zn29 2.032 . S
O30 C34 1.278 . S
C31 O32 1.203 . S
C31 O38 1.267 . S
O32 C31 1.203 . S
O33 C26 1.185 1_565 S
O33 Zn29 2.086 1_565 S
C34 O30 1.278 . S
C34 O35 1.211 . S
O35 C34 1.211 . S
C36 O28 1.284 . S
C36 O37 1.273 . S
O37 C36 1.273 . S
O38 Zn29 1.977 1_665 S
O38 C31 1.267 . S
C39 O41 1.247 . S
C39 O43 1.258 1_455 S
C40 O47 1.247 1_455 S
C40 O48 1.258 . S
O41 C39 1.247 . S
O41 Zn42 2.028 . S
Zn42 O41 2.028 . S
Zn42 O46 2.035 . S
Zn42 O48 2.035 . S
Zn42 O49 2.028 . S
O43 C39 1.258 1_655 S
O43 Zn44 2.035 . S
Zn44 O43 2.035 . S
Zn44 O45 2.028 . S
Zn44 O47 2.028 . S
Zn44 O50 2.035 . S
O45 Zn44 2.028 . S
O45 C51 1.247 1_655 S
O46 Zn42 2.035 . S
O46 C51 1.258 . S
O47 C40 1.247 1_655 S
O47 Zn44 2.028 . S
O48 C40 1.258 . S
O48 Zn42 2.035 . S
O49 Zn42 2.028 . S
O49 C52 1.247 . S
O50 Zn44 2.035 . S
O50 C52 1.258 1_655 S
C51 O45 1.247 1_455 S
C51 O46 1.258 . S
C52 O49 1.247 . S
C52 O50 1.258 1_455 S
C53 O55 1.247 1_545 S
C53 O57 1.258 . S
C54 O61 1.247 . S
C54 O62 1.258 1_545 S
O55 C53 1.247 1_565 S
O55 Zn56 2.028 . S
Zn56 O55 2.028 . S
Zn56 O60 2.035 . S
Zn56 O62 2.035 . S
Zn56 O63 2.028 . S
O57 C53 1.258 . S
O57 Zn58 2.035 . S
Zn58 O57 2.035 . S
Zn58 O59 2.028 . S
Zn58 O61 2.028 . S
Zn58 O64 2.035 . S
O59 Zn58 2.028 . S
O59 C65 1.247 . S
O60 Zn56 2.035 . S
O60 C65 1.258 1_565 S
O61 C54 1.247 . S
O61 Zn58 2.028 . S
O62 C54 1.258 1_565 S
O62 Zn56 2.035 . S
O63 Zn56 2.028 . S
O63 C66 1.247 1_565 S
O64 Zn58 2.035 . S
O64 C66 1.258 . S
C65 O59 1.247 . S
C65 O60 1.258 1_545 S
C66 O63 1.247 1_545 S
C66 O64 1.258 . S
C67 O69 1.247 . S
C67 O71 1.258 . S
C68 O75 1.247 . S
C68 O76 1.258 . S
O69 C67 1.247 . S
O69 Zn70 2.028 . S
Zn70 O69 2.028 . S
Zn70 O74 2.035 . S
Zn70 O76 2.035 . S
Zn70 O77 2.028 . S
O71 C67 1.258 . S
O71 Zn72 2.035 . S
Zn72 O71 2.035 . S
Zn72 O73 2.028 . S
Zn72 O75 2.028 . S
Zn72 O78 2.035 . S
O73 Zn72 2.028 . S
O73 C79 1.247 . S
O74 Zn70 2.035 . S
O74 C79 1.258 . S
O75 C68 1.247 . S
O75 Zn72 2.028 . S
O76 C68 1.258 . S
O76 Zn70 2.035 . S
O77 Zn70 2.028 . S
O77 C80 1.247 . S
O78 Zn72 2.035 . S
O78 C80 1.258 . S
C79 O73 1.247 . S
C79 O74 1.258 . S
C80 O77 1.247 . S
C80 O78 1.258 . S
H81 C93 0.930 . S
H82 C95 0.930 . S
H83 C96 0.930 . S
H84 C100 0.959 . S
H85 C100 0.959 . S
H86 C100 0.961 . S
H87 C101 0.960 . S
H88 C101 0.961 . S
H89 C101 0.959 . S
H90 C104 0.929 . S
H91 C105 0.931 . S
H92 C107 0.930 . S
C93 H81 0.930 . S
C93 C94 1.399 . S
C93 C98 1.399 . S
C94 C93 1.399 . S
C94 C95 1.376 1_455 S
C95 H82 0.930 . S
C95 C94 1.376 1_655 S
C95 C96 1.388 . S
C96 H83 0.930 . S
C96 C95 1.388 . S
C96 C97 1.390 . S
C97 C96 1.390 . S
C97 C98 1.394 1_655 S
C97 C103 1.465 . S
C98 C93 1.399 . S
C98 C97 1.394 1_455 S
C98 C99 1.516 . S
C99 C98 1.516 . S
C99 C100 1.502 . S
C99 C101 1.561 . S
C99 C102 1.526 . S
C100 H84 0.959 . S
C100 H85 0.959 . S
C100 H86 0.961 . S
C100 C99 1.502 . S
C101 H87 0.960 . S
C101 H88 0.961 . S
C101 H89 0.959 . S
C101 C99 1.561 . S
C102 C99 1.526 . S
C102 C103 1.396 1_455 S
C102 C107 1.390 . S
C103 C97 1.465 . S
C103 C102 1.396 1_655 S
C103 C104 1.399 . S
C104 H90 0.929 . S
C104 C103 1.399 . S
C104 C105 1.385 . S
C105 H91 0.931 . S
C105 C104 1.385 . S
C105 C106 1.389 1_655 S
C106 C105 1.389 1_455 S
C106 C107 1.387 . S
C107 H92 0.930 . S
C107 C102 1.390 . S
C107 C106 1.387 . S
H108 C120 0.930 1_565 S
H109 C122 0.930 . S
H110 C123 0.930 . S
H111 C127 0.959 . S
H112 C127 0.959 . S
H113 C127 0.961 . S
H114 C128 0.960 . S
H115 C128 0.961 . S
H116 C128 0.959 1_545 S
H117 C131 0.929 . S
H118 C132 0.931 . S
H119 C134 0.930 1_565 S
C120 H108 0.930 1_545 S
C120 C121 1.399 . S
C120 C125 1.399 . S
C121 C120 1.399 . S
C121 C122 1.376 . S
C122 H109 0.930 . S
C122 C121 1.376 . S
C122 C123 1.388 . S
C123 H110 0.930 . S
C123 C122 1.388 . S
C123 C124 1.390 . S
C124 C123 1.390 . S
C124 C125 1.394 . S
C124 C130 1.465 . S
C125 C120 1.399 . S
C125 C124 1.394 . S
C125 C126 1.516 1_545 S
C126 C125 1.516 1_565 S
C126 C127 1.502 . S
C126 C128 1.561 . S
C126 C129 1.526 1_565 S
C127 H111 0.959 . S
C127 H112 0.959 . S
C127 H113 0.961 . S
C127 C126 1.502 . S
C128 H114 0.960 . S
C128 H115 0.961 . S
C128 H116 0.959 1_565 S
C128 C126 1.561 . S
C129 C126 1.526 1_545 S
C129 C130 1.396 . S
C129 C134 1.390 . S
C130 C124 1.465 . S
C130 C129 1.396 . S
C130 C131 1.399 . S
C131 H117 0.929 . S
C131 C130 1.399 . S
C131 C132 1.385 . S
C132 H118 0.931 . S
C132 C131 1.385 . S
C132 C133 1.389 . S
C133 C132 1.389 . S
C133 C134 1.387 . S
C134 H119 0.930 1_545 S
C134 C129 1.390 . S
C134 C133 1.387 . S
H135 C147 0.930 . S
H136 C149 0.930 . S
H137 C150 0.930 . S
H138 C154 0.959 . S
H139 C154 0.959 . S
H140 C154 0.961 . S
H141 C155 0.960 . S
H142 C155 0.961 . S
H143 C155 0.959 . S
H144 C158 0.929 . S
H145 C159 0.931 . S
H146 C161 0.930 . S
C147 H135 0.930 . S
C147 C148 1.399 . S
C147 C152 1.399 . S
C148 C147 1.399 . S
C148 C149 1.376 . S
C149 H136 0.930 . S
C149 C148 1.376 . S
C149 C150 1.388 . S
C150 H137 0.930 . S
C150 C149 1.388 . S
C150 C151 1.390 . S
C151 C150 1.390 . S
C151 C152 1.394 . S
C151 C157 1.465 . S
C152 C147 1.399 . S
C152 C151 1.394 . S
C152 C153 1.516 . S
C153 C152 1.516 . S
C153 C154 1.502 . S
C153 C155 1.561 . S
C153 C156 1.526 . S
C154 H138 0.959 . S
C154 H139 0.959 . S
C154 H140 0.961 . S
C154 C153 1.502 . S
C155 H141 0.960 . S
C155 H142 0.961 . S
C155 H143 0.959 . S
C155 C153 1.561 . S
C156 C153 1.526 . S
C156 C157 1.396 . S
C156 C161 1.390 . S
C157 C151 1.465 . S
C157 C156 1.396 . S
C157 C158 1.399 . S
C158 H144 0.929 . S
C158 C157 1.399 . S
C158 C159 1.385 . S
C159 H145 0.931 . S
C159 C158 1.385 . S
C159 C160 1.389 . S
C160 C159 1.389 . S
C160 C161 1.387 . S
C161 H146 0.930 . S
C161 C156 1.390 . S
C161 C160 1.387 . S
H162 C174 0.930 1_655 S
H163 C176 0.930 1_545 S
H164 C177 0.930 . S
H165 C181 0.959 . S
H166 C181 0.959 . S
H167 C181 0.961 . S
H168 C182 0.960 . S
H169 C182 0.961 1_655 S
H170 C182 0.959 . S
H171 C185 0.929 . S
H172 C186 0.931 . S
H173 C188 0.934 . S
C174 H162 0.930 1_455 S
C174 C175 1.399 . S
C174 C179 1.399 . S
C175 C174 1.399 . S
C175 C176 1.376 . S
C176 H163 0.930 1_565 S
C176 C175 1.376 . S
C176 C177 1.388 . S
C177 H164 0.930 . S
C177 C176 1.388 . S
C177 C178 1.390 . S
C178 C177 1.390 . S
C178 C179 1.394 . S
C178 C184 1.465 . S
C179 C174 1.399 . S
C179 C178 1.394 . S
C179 C180 1.516 1_455 S
C180 C179 1.516 1_655 S
C180 C181 1.502 . S
C180 C182 1.561 1_655 S
C180 C183 1.526 1_655 S
C181 H165 0.959 . S
C181 H166 0.959 . S
C181 H167 0.961 . S
C181 C180 1.502 . S
C182 H168 0.960 . S
C182 H169 0.961 1_455 S
C182 H170 0.959 . S
C182 C180 1.561 1_455 S
C183 C180 1.526 1_455 S
C183 C184 1.396 . S
C183 C188 1.392 1_455 S
C184 C178 1.465 . S
C184 C183 1.396 . S
C184 C185 1.399 . S
C185 H171 0.929 . S
C185 C184 1.399 . S
C185 C186 1.385 . S
C186 H172 0.931 . S
C186 C185 1.385 . S
C186 C187 1.389 . S
C187 C186 1.389 . S
C187 C188 1.381 1_455 S
C188 H173 0.934 . S
C188 C183 1.392 1_655 S
C188 C187 1.381 1_655 S
H189 C201 0.930 . S
H190 C203 0.930 . S
H191 C204 0.930 . S
H192 C208 0.959 1_545 S
H193 C208 0.959 . S
H194 C208 0.961 . S
H195 C209 0.960 . S
H196 C209 0.961 . S
H197 C209 0.959 . S
H198 C212 0.929 . S
H199 C213 0.931 . S
H200 C215 0.930 1_565 S
C201 H189 0.930 . S
C201 C202 1.399 . S
C201 C206 1.399 . S
C202 C201 1.399 . S
C202 C203 1.376 . S
C203 H190 0.930 . S
C203 C202 1.376 . S
C203 C204 1.388 . S
C204 H191 0.930 . S
C204 C203 1.388 . S
C204 C205 1.390 . S
C205 C204 1.390 . S
C205 C206 1.394 . S
C205 C211 1.465 . S
C206 C201 1.399 . S
C206 C205 1.394 . S
C206 C207 1.516 . S
C207 C206 1.516 . S
C207 C208 1.502 1_545 S
C207 C209 1.561 1_545 S
C207 C210 1.526 . S
C208 H192 0.959 1_565 S
C208 H193 0.959 . S
C208 H194 0.961 . S
C208 C207 1.502 1_565 S
C209 H195 0.960 . S
C209 H196 0.961 . S
C209 H197 0.959 . S
C209 C207 1.561 1_565 S
C210 C207 1.526 . S
C210 C211 1.396 . S
C210 C215 1.390 . S
C211 C205 1.465 . S
C211 C210 1.396 . S
C211 C212 1.399 . S
C212 H198 0.929 . S
C212 C211 1.399 . S
C212 C213 1.385 . S
C213 H199 0.931 . S
C213 C212 1.385 . S
C213 C214 1.389 . S
C214 C213 1.389 . S
C214 C215 1.387 . S
C215 H200 0.930 1_545 S
C215 C210 1.390 . S
C215 C214 1.387 . S
H216 C228 0.930 . S
H217 C230 0.930 . S
H218 C231 0.930 . S
H219 C235 0.959 . S
H220 C235 0.959 . S
H221 C235 0.961 . S
H222 C236 0.960 . S
H223 C236 0.961 . S
H224 C236 0.959 . S
H225 C239 0.929 . S
H226 C240 0.931 . S
H227 C242 0.930 . S
C228 H216 0.930 . S
C228 C229 1.399 . S
C228 C233 1.399 . S
C229 C228 1.399 . S
C229 C230 1.376 . S
C230 H217 0.930 . S
C230 C229 1.376 . S
C230 C231 1.388 . S
C231 H218 0.930 . S
C231 C230 1.388 . S
C231 C232 1.390 . S
C232 C231 1.390 . S
C232 C233 1.394 . S
C232 C238 1.465 . S
C233 C228 1.399 . S
C233 C232 1.394 . S
C233 C234 1.516 . S
C234 C233 1.516 . S
C234 C235 1.502 . S
C234 C236 1.561 . S
C234 C237 1.526 . S
C235 H219 0.959 . S
C235 H220 0.959 . S
C235 H221 0.961 . S
C235 C234 1.502 . S
C236 H222 0.960 . S
C236 H223 0.961 . S
C236 H224 0.959 . S
C236 C234 1.561 . S
C237 C234 1.526 . S
C237 C238 1.396 . S
C237 C242 1.390 . S
C238 C232 1.465 . S
C238 C237 1.396 . S
C238 C239 1.399 . S
C239 H225 0.929 . S
C239 C238 1.399 . S
C239 C240 1.385 . S
C240 H226 0.931 . S
C240 C239 1.385 . S
C240 C241 1.389 . S
C241 C240 1.389 . S
C241 C242 1.387 . S
C242 H227 0.930 . S
C242 C237 1.390 . S
C242 C241 1.387 . S
H243 C255 0.930 . S
H244 C257 0.930 . S
H245 C258 0.930 . S
H246 C262 0.959 . S
H247 C262 0.959 . S
H248 C262 0.961 . S
H249 C263 0.960 . S
H250 C263 0.961 . S
H251 C263 0.959 . S
H252 C266 0.929 . S
H253 C267 0.931 . S
H254 C269 0.930 . S
C255 H243 0.930 . S
C255 C256 1.399 . S
C255 C260 1.399 . S
C256 C255 1.399 . S
C256 C257 1.376 1_545 S
C257 H244 0.930 . S
C257 C256 1.376 1_565 S
C257 C258 1.388 . S
C258 H245 0.930 . S
C258 C257 1.388 . S
C258 C259 1.390 1_565 S
C259 C258 1.390 1_545 S
C259 C260 1.394 . S
C259 C265 1.465 . S
C260 C255 1.399 . S
C260 C259 1.394 . S
C260 C261 1.516 . S
C261 C260 1.516 . S
C261 C262 1.502 . S
C261 C263 1.561 . S
C261 C264 1.526 . S
C262 H246 0.959 . S
C262 H247 0.959 . S
C262 H248 0.961 . S
C262 C261 1.502 . S
C263 H249 0.960 . S
C263 H250 0.961 . S
C263 H251 0.959 . S
C263 C261 1.561 . S
C264 C261 1.526 . S
C264 C265 1.396 . S
C264 C269 1.390 . S
C265 C259 1.465 . S
C265 C264 1.396 . S
C265 C266 1.399 1_545 S
C266 H252 0.929 . S
C266 C265 1.399 1_565 S
C266 C267 1.385 . S
C267 H253 0.931 . S
C267 C266 1.385 . S
C267 C268 1.389 1_565 S
C268 C267 1.389 1_545 S
C268 C269 1.387 . S
C269 H254 0.930 . S
C269 C264 1.390 . S
C269 C268 1.387 . S
H270 C282 0.930 . S
H271 C284 0.930 1_545 S
H272 C285 0.930 . S
H273 C289 0.959 . S
H274 C289 0.959 . S
H275 C289 0.961 . S
H276 C290 0.960 . S
H277 C290 0.961 . S
H278 C290 0.959 . S
H279 C293 0.929 . S
H280 C294 0.931 . S
H281 C296 0.930 . S
C282 H270 0.930 . S
C282 C283 1.399 . S
C282 C287 1.399 . S
C283 C282 1.399 . S
C283 C284 1.376 . S
C284 H271 0.930 1_565 S
C284 C283 1.376 . S
C284 C285 1.388 1_554 S
C285 H272 0.930 . S
C285 C284 1.388 1_556 S
C285 C286 1.390 . S
C286 C285 1.390 . S
C286 C287 1.394 1_556 S
C286 C292 1.465 . S
C287 C282 1.399 . S
C287 C286 1.394 1_554 S
C287 C288 1.516 . S
C288 C287 1.516 . S
C288 C289 1.502 . S
C288 C290 1.561 . S
C288 C291 1.526 1_554 S
C289 H273 0.959 . S
C289 H274 0.959 . S
C289 H275 0.961 . S
C289 C288 1.502 . S
C290 H276 0.960 . S
C290 H277 0.961 . S
C290 H278 0.959 . S
C290 C288 1.561 . S
C291 C288 1.526 1_556 S
C291 C292 1.396 . S
C291 C296 1.390 . S
C292 C286 1.465 . S
C292 C291 1.396 . S
C292 C293 1.399 . S
C293 H279 0.929 . S
C293 C292 1.399 . S
C293 C294 1.385 . S
C294 H280 0.931 . S
C294 C293 1.385 . S
C294 C295 1.389 . S
C295 C294 1.389 . S
C295 C296 1.387 . S
C296 H281 0.930 . S
C296 C291 1.390 . S
C296 C295 1.387 . S
H297 C309 0.930 . S
H298 C311 0.930 . S
H299 C312 0.930 . S
H300 C316 0.959 . S
H301 C316 0.959 . S
H302 C316 0.961 . S
H303 C317 0.960 . S
H304 C317 0.961 . S
H305 C317 0.959 1_455 S
H306 C320 0.929 . S
H307 C321 0.931 . S
H308 C323 0.930 . S
C309 H297 0.930 . S
C309 C310 1.399 1_655 S
C309 C314 1.399 1_655 S
C310 C309 1.399 1_455 S
C310 C311 1.376 . S
C311 H298 0.930 . S
C311 C310 1.376 . S
C311 C312 1.388 . S
C312 H299 0.930 . S
C312 C311 1.388 . S
C312 C313 1.390 . S
C313 C312 1.390 . S
C313 C314 1.394 . S
C313 C319 1.465 . S
C314 C309 1.399 1_455 S
C314 C313 1.394 . S
C314 C315 1.516 1_455 S
C315 C314 1.516 1_655 S
C315 C316 1.502 . S
C315 C317 1.561 . S
C315 C318 1.526 1_655 S
C316 H300 0.959 . S
C316 H301 0.959 . S
C316 H302 0.961 . S
C316 C315 1.502 . S
C317 H303 0.960 . S
C317 H304 0.961 . S
C317 H305 0.959 1_655 S
C317 C315 1.561 . S
C318 C315 1.526 1_455 S
C318 C319 1.396 . S
C318 C323 1.390 1_455 S
C319 C313 1.465 . S
C319 C318 1.396 . S
C319 C320 1.399 . S
C320 H306 0.929 . S
C320 C319 1.399 . S
C320 C321 1.385 . S
C321 H307 0.931 . S
C321 C320 1.385 . S
C321 C322 1.389 . S
C322 C321 1.389 . S
C322 C323 1.387 1_455 S
C323 H308 0.930 . S
C323 C318 1.390 1_655 S
C323 C322 1.387 1_655 S
H324 C336 0.930 . S
H325 C338 0.930 . S
H326 C339 0.930 . S
H327 C343 0.959 . S
H328 C343 0.959 . S
H329 C343 0.961 . S
H330 C344 0.960 . S
H331 C344 0.961 . S
H332 C344 0.959 . S
H333 C347 0.929 . S
H334 C348 0.931 . S
H335 C350 0.930 . S
C336 H324 0.930 . S
C336 C337 1.399 . S
C336 C341 1.399 . S
C337 C336 1.399 . S
C337 C338 1.376 . S
C338 H325 0.930 . S
C338 C337 1.376 . S
C338 C339 1.388 . S
C339 H326 0.930 . S
C339 C338 1.388 . S
C339 C340 1.390 . S
C340 C339 1.390 . S
C340 C341 1.394 . S
C340 C346 1.465 . S
C341 C336 1.399 . S
C341 C340 1.394 . S
C341 C342 1.516 . S
C342 C341 1.516 . S
C342 C343 1.502 . S
C342 C344 1.561 1_545 S
C342 C345 1.526 . S
C343 H327 0.959 . S
C343 H328 0.959 . S
C343 H329 0.961 . S
C343 C342 1.502 . S
C344 H330 0.960 . S
C344 H331 0.961 . S
C344 H332 0.959 . S
C344 C342 1.561 1_565 S
C345 C342 1.526 . S
C345 C346 1.396 . S
C345 C350 1.390 . S
C346 C340 1.465 . S
C346 C345 1.396 . S
C346 C347 1.399 . S
C347 H333 0.929 . S
C347 C346 1.399 . S
C347 C348 1.385 . S
C348 H334 0.931 . S
C348 C347 1.385 . S
C348 C349 1.389 . S
C349 C348 1.389 . S
C349 C350 1.387 . S
C350 H335 0.930 . S
C350 C345 1.390 . S
C350 C349 1.387 . S
H351 C363 0.930 . S
H352 C365 0.930 . S
H353 C366 0.930 1_556 S
H354 C370 0.959 . S
H355 C370 0.959 . S
H356 C370 0.961 . S
H357 C371 0.960 . S
H358 C371 0.961 . S
H359 C371 0.959 . S
H360 C374 0.929 . S
H361 C375 0.931 . S
H362 C377 0.930 . S
C363 H351 0.930 . S
C363 C364 1.399 . S
C363 C368 1.399 . S
C364 C363 1.399 . S
C364 C365 1.376 . S
C365 H352 0.930 . S
C365 C364 1.376 . S
C365 C366 1.388 . S
C366 H353 0.930 1_554 S
C366 C365 1.388 . S
C366 C367 1.390 1_554 S
C367 C366 1.390 1_556 S
C367 C368 1.394 1_556 S
C367 C373 1.465 . S
C368 C363 1.399 . S
C368 C367 1.394 1_554 S
C368 C369 1.516 1_554 S
C369 C368 1.516 1_556 S
C369 C370 1.502 . S
C369 C371 1.561 1_556 S
C369 C372 1.526 . S
C370 H354 0.959 . S
C370 H355 0.959 . S
C370 H356 0.961 . S
C370 C369 1.502 . S
C371 H357 0.960 . S
C371 H358 0.961 . S
C371 H359 0.959 . S
C371 C369 1.561 1_554 S
C372 C369 1.526 . S
C372 C373 1.396 . S
C372 C377 1.390 . S
C373 C367 1.465 . S
C373 C372 1.396 . S
C373 C374 1.399 . S
C374 H360 0.929 . S
C374 C373 1.399 . S
C374 C375 1.385 . S
C375 H361 0.931 . S
C375 C374 1.385 . S
C375 C376 1.389 . S
C376 C375 1.389 . S
C376 C377 1.387 . S
C377 H362 0.930 . S
C377 C372 1.390 . S
C377 C376 1.387 . S
H378 C390 0.930 . S
H379 C392 0.930 . S
H380 C393 0.930 . S
H381 C397 0.959 . S
H382 C397 0.959 . S
H383 C397 0.961 . S
H384 C398 0.960 . S
H385 C398 0.961 . S
H386 C398 0.959 . S
H387 C401 0.929 . S
H388 C402 0.931 . S
H389 C404 0.930 1_655 S
C390 H378 0.930 . S
C390 C391 1.399 . S
C390 C395 1.399 . S
C391 C390 1.399 . S
C391 C392 1.376 . S
C392 H379 0.930 . S
C392 C391 1.376 . S
C392 C393 1.388 . S
C393 H380 0.930 . S
C393 C392 1.388 . S
C393 C394 1.390 . S
C394 C393 1.390 . S
C394 C395 1.394 . S
C394 C400 1.465 . S
C395 C390 1.399 . S
C395 C394 1.394 . S
C395 C396 1.516 . S
C396 C395 1.516 . S
C396 C397 1.502 1_455 S
C396 C398 1.561 . S
C396 C399 1.526 . S
C397 H381 0.959 . S
C397 H382 0.959 . S
C397 H383 0.961 . S
C397 C396 1.502 1_655 S
C398 H384 0.960 . S
C398 H385 0.961 . S
C398 H386 0.959 . S
C398 C396 1.561 . S
C399 C396 1.526 . S
C399 C400 1.396 . S
C399 C404 1.390 . S
C400 C394 1.465 . S
C400 C399 1.396 . S
C400 C401 1.399 . S
C401 H387 0.929 . S
C401 C400 1.399 . S
C401 C402 1.385 . S
C402 H388 0.931 . S
C402 C401 1.385 . S
C402 C403 1.389 . S
C403 C402 1.389 . S
C403 C404 1.387 . S
C404 H389 0.930 1_455 S
C404 C399 1.390 . S
C404 C403 1.387 . S
C106 C40 1.400 . S
C94 C10 1.399 . S
C121 C21 1.400 . S
C133 C66 1.457 . S
C148 C31 1.333 . S
C160 C68 1.424 . S
C175 C0 1.367 . S
C187 C52 1.406 . S
C214 C54 1.415 . S
C202 C18 1.386 . S
C229 C34 1.358 . S
C241 C80 1.407 . S
C268 C53 1.406 . S
C256 C36 1.403 . S
C283 C8 1.361 . S
C295 C79 1.416 . S
C322 C39 1.403 . S
C310 C23 1.407 . S
C349 C65 1.366 . S
C337 C26 1.279 . S
C376 C67 1.416 . S
C364 C5 1.408 . S
C391 C13 1.364 . S
C403 C51 1.415 . S
