# Generated by pormake.
# Topology gar, (4,6)-cn, num edge types: 1
# Building blocks:
#     Node 0, Type 0, BuildingBlock: TATPOV_clean_sbu_0, # of connection points: 4
#     Node 1, Type 0, BuildingBlock: TATPOV_clean_sbu_0, # of connection points: 4
#     Node 2, Type 0, BuildingBlock: TATPOV_clean_sbu_0, # of connection points: 4
#     Node 3, Type 0, BuildingBlock: TATPOV_clean_sbu_0, # of connection points: 4
#     Node 4, Type 0, BuildingBlock: TATPOV_clean_sbu_0, # of connection points: 4
#     Node 5, Type 0, BuildingBlock: TATPOV_clean_sbu_0, # of connection points: 4
#     Node 6, Type 0, BuildingBlock: TATPOV_clean_sbu_0, # of connection points: 4
#     Node 7, Type 0, BuildingBlock: TATPOV_clean_sbu_0, # of connection points: 4
#     Node 8, Type 0, BuildingBlock: TATPOV_clean_sbu_0, # of connection points: 4
#     Node 9, Type 0, BuildingBlock: TATPOV_clean_sbu_0, # of connection points: 4
#     Node 10, Type 0, BuildingBlock: TATPOV_clean_sbu_0, # of connection points: 4
#     Node 11, Type 0, BuildingBlock: TATPOV_clean_sbu_0, # of connection points: 4
#     Node 12, Type 0, BuildingBlock: TATPOV_clean_sbu_0, # of connection points: 4
#     Node 13, Type 0, BuildingBlock: TATPOV_clean_sbu_0, # of connection points: 4
#     Node 14, Type 0, BuildingBlock: TATPOV_clean_sbu_0, # of connection points: 4
#     Node 15, Type 0, BuildingBlock: TATPOV_clean_sbu_0, # of connection points: 4
#     Node 16, Type 0, BuildingBlock: TATPOV_clean_sbu_0, # of connection points: 4
#     Node 17, Type 0, BuildingBlock: TATPOV_clean_sbu_0, # of connection points: 4
#     Node 18, Type 0, BuildingBlock: TATPOV_clean_sbu_0, # of connection points: 4
#     Node 19, Type 0, BuildingBlock: TATPOV_clean_sbu_0, # of connection points: 4
#     Node 20, Type 0, BuildingBlock: TATPOV_clean_sbu_0, # of connection points: 4
#     Node 21, Type 0, BuildingBlock: TATPOV_clean_sbu_0, # of connection points: 4
#     Node 22, Type 0, BuildingBlock: TATPOV_clean_sbu_0, # of connection points: 4
#     Node 23, Type 0, BuildingBlock: TATPOV_clean_sbu_0, # of connection points: 4
#     Node 24, Type 1, BuildingBlock: KUMJIN_clean_sbu_0, # of connection points: 6
#     Node 25, Type 1, BuildingBlock: KUMJIN_clean_sbu_0, # of connection points: 6
#     Node 26, Type 1, BuildingBlock: KUMJIN_clean_sbu_0, # of connection points: 6
#     Node 27, Type 1, BuildingBlock: KUMJIN_clean_sbu_0, # of connection points: 6
#     Node 28, Type 1, BuildingBlock: KUMJIN_clean_sbu_0, # of connection points: 6
#     Node 29, Type 1, BuildingBlock: KUMJIN_clean_sbu_0, # of connection points: 6
#     Node 30, Type 1, BuildingBlock: KUMJIN_clean_sbu_0, # of connection points: 6
#     Node 31, Type 1, BuildingBlock: KUMJIN_clean_sbu_0, # of connection points: 6
#     Node 32, Type 1, BuildingBlock: KUMJIN_clean_sbu_0, # of connection points: 6
#     Node 33, Type 1, BuildingBlock: KUMJIN_clean_sbu_0, # of connection points: 6
#     Node 34, Type 1, BuildingBlock: KUMJIN_clean_sbu_0, # of connection points: 6
#     Node 35, Type 1, BuildingBlock: KUMJIN_clean_sbu_0, # of connection points: 6
#     Node 36, Type 1, BuildingBlock: KUMJIN_clean_sbu_0, # of connection points: 6
#     Node 37, Type 1, BuildingBlock: KUMJIN_clean_sbu_0, # of connection points: 6
#     Node 38, Type 1, BuildingBlock: KUMJIN_clean_sbu_0, # of connection points: 6
#     Node 39, Type 1, BuildingBlock: KUMJIN_clean_sbu_0, # of connection points: 6
#     Edge 40, Type (0, 1), BuildingBlock: CIFDUS_clean_linker_0, # of connection points: 2
#     Edge 41, Type (0, 1), BuildingBlock: CIFDUS_clean_linker_0, # of connection points: 2
#     Edge 42, Type (0, 1), BuildingBlock: CIFDUS_clean_linker_0, # of connection points: 2
#     Edge 43, Type (0, 1), BuildingBlock: CIFDUS_clean_linker_0, # of connection points: 2
#     Edge 44, Type (0, 1), BuildingBlock: CIFDUS_clean_linker_0, # of connection points: 2
#     Edge 45, Type (0, 1), BuildingBlock: CIFDUS_clean_linker_0, # of connection points: 2
#     Edge 46, Type (0, 1), BuildingBlock: CIFDUS_clean_linker_0, # of connection points: 2
#     Edge 47, Type (0, 1), BuildingBlock: CIFDUS_clean_linker_0, # of connection points: 2
#     Edge 48, Type (0, 1), BuildingBlock: CIFDUS_clean_linker_0, # of connection points: 2
#     Edge 49, Type (0, 1), BuildingBlock: CIFDUS_clean_linker_0, # of connection points: 2
#     Edge 50, Type (0, 1), BuildingBlock: CIFDUS_clean_linker_0, # of connection points: 2
#     Edge 51, Type (0, 1), BuildingBlock: CIFDUS_clean_linker_0, # of connection points: 2
#     Edge 52, Type (0, 1), BuildingBlock: CIFDUS_clean_linker_0, # of connection points: 2
#     Edge 53, Type (0, 1), BuildingBlock: CIFDUS_clean_linker_0, # of connection points: 2
#     Edge 54, Type (0, 1), BuildingBlock: CIFDUS_clean_linker_0, # of connection points: 2
#     Edge 55, Type (0, 1), BuildingBlock: CIFDUS_clean_linker_0, # of connection points: 2
#     Edge 56, Type (0, 1), BuildingBlock: CIFDUS_clean_linker_0, # of connection points: 2
#     Edge 57, Type (0, 1), BuildingBlock: CIFDUS_clean_linker_0, # of connection points: 2
#     Edge 58, Type (0, 1), BuildingBlock: CIFDUS_clean_linker_0, # of connection points: 2
#     Edge 59, Type (0, 1), BuildingBlock: CIFDUS_clean_linker_0, # of connection points: 2
#     Edge 60, Type (0, 1), BuildingBlock: CIFDUS_clean_linker_0, # of connection points: 2
#     Edge 61, Type (0, 1), BuildingBlock: CIFDUS_clean_linker_0, # of connection points: 2
#     Edge 62, Type (0, 1), BuildingBlock: CIFDUS_clean_linker_0, # of connection points: 2
#     Edge 63, Type (0, 1), BuildingBlock: CIFDUS_clean_linker_0, # of connection points: 2
#     Edge 64, Type (0, 1), BuildingBlock: CIFDUS_clean_linker_0, # of connection points: 2
#     Edge 65, Type (0, 1), BuildingBlock: CIFDUS_clean_linker_0, # of connection points: 2
#     Edge 66, Type (0, 1), BuildingBlock: CIFDUS_clean_linker_0, # of connection points: 2
#     Edge 67, Type (0, 1), BuildingBlock: CIFDUS_clean_linker_0, # of connection points: 2
#     Edge 68, Type (0, 1), BuildingBlock: CIFDUS_clean_linker_0, # of connection points: 2
#     Edge 69, Type (0, 1), BuildingBlock: CIFDUS_clean_linker_0, # of connection points: 2
#     Edge 70, Type (0, 1), BuildingBlock: CIFDUS_clean_linker_0, # of connection points: 2
#     Edge 71, Type (0, 1), BuildingBlock: CIFDUS_clean_linker_0, # of connection points: 2
#     Edge 72, Type (0, 1), BuildingBlock: CIFDUS_clean_linker_0, # of connection points: 2
#     Edge 73, Type (0, 1), BuildingBlock: CIFDUS_clean_linker_0, # of connection points: 2
#     Edge 74, Type (0, 1), BuildingBlock: CIFDUS_clean_linker_0, # of connection points: 2
#     Edge 75, Type (0, 1), BuildingBlock: CIFDUS_clean_linker_0, # of connection points: 2
#     Edge 76, Type (0, 1), BuildingBlock: CIFDUS_clean_linker_0, # of connection points: 2
#     Edge 77, Type (0, 1), BuildingBlock: CIFDUS_clean_linker_0, # of connection points: 2
#     Edge 78, Type (0, 1), BuildingBlock: CIFDUS_clean_linker_0, # of connection points: 2
#     Edge 79, Type (0, 1), BuildingBlock: CIFDUS_clean_linker_0, # of connection points: 2
#     Edge 80, Type (0, 1), BuildingBlock: CIFDUS_clean_linker_0, # of connection points: 2
#     Edge 81, Type (0, 1), BuildingBlock: CIFDUS_clean_linker_0, # of connection points: 2
#     Edge 82, Type (0, 1), BuildingBlock: CIFDUS_clean_linker_0, # of connection points: 2
#     Edge 83, Type (0, 1), BuildingBlock: CIFDUS_clean_linker_0, # of connection points: 2
#     Edge 84, Type (0, 1), BuildingBlock: CIFDUS_clean_linker_0, # of connection points: 2
#     Edge 85, Type (0, 1), BuildingBlock: CIFDUS_clean_linker_0, # of connection points: 2
#     Edge 86, Type (0, 1), BuildingBlock: CIFDUS_clean_linker_0, # of connection points: 2
#     Edge 87, Type (0, 1), BuildingBlock: CIFDUS_clean_linker_0, # of connection points: 2
#     Edge 88, Type (0, 1), BuildingBlock: CIFDUS_clean_linker_0, # of connection points: 2
#     Edge 89, Type (0, 1), BuildingBlock: CIFDUS_clean_linker_0, # of connection points: 2
#     Edge 90, Type (0, 1), BuildingBlock: CIFDUS_clean_linker_0, # of connection points: 2
#     Edge 91, Type (0, 1), BuildingBlock: CIFDUS_clean_linker_0, # of connection points: 2
#     Edge 92, Type (0, 1), BuildingBlock: CIFDUS_clean_linker_0, # of connection points: 2
#     Edge 93, Type (0, 1), BuildingBlock: CIFDUS_clean_linker_0, # of connection points: 2
#     Edge 94, Type (0, 1), BuildingBlock: CIFDUS_clean_linker_0, # of connection points: 2
#     Edge 95, Type (0, 1), BuildingBlock: CIFDUS_clean_linker_0, # of connection points: 2
#     Edge 96, Type (0, 1), BuildingBlock: CIFDUS_clean_linker_0, # of connection points: 2
#     Edge 97, Type (0, 1), BuildingBlock: CIFDUS_clean_linker_0, # of connection points: 2
#     Edge 98, Type (0, 1), BuildingBlock: CIFDUS_clean_linker_0, # of connection points: 2
#     Edge 99, Type (0, 1), BuildingBlock: CIFDUS_clean_linker_0, # of connection points: 2
#     Edge 100, Type (0, 1), BuildingBlock: CIFDUS_clean_linker_0, # of connection points: 2
#     Edge 101, Type (0, 1), BuildingBlock: CIFDUS_clean_linker_0, # of connection points: 2
#     Edge 102, Type (0, 1), BuildingBlock: CIFDUS_clean_linker_0, # of connection points: 2
#     Edge 103, Type (0, 1), BuildingBlock: CIFDUS_clean_linker_0, # of connection points: 2
#     Edge 104, Type (0, 1), BuildingBlock: CIFDUS_clean_linker_0, # of connection points: 2
#     Edge 105, Type (0, 1), BuildingBlock: CIFDUS_clean_linker_0, # of connection points: 2
#     Edge 106, Type (0, 1), BuildingBlock: CIFDUS_clean_linker_0, # of connection points: 2
#     Edge 107, Type (0, 1), BuildingBlock: CIFDUS_clean_linker_0, # of connection points: 2
#     Edge 108, Type (0, 1), BuildingBlock: CIFDUS_clean_linker_0, # of connection points: 2
#     Edge 109, Type (0, 1), BuildingBlock: CIFDUS_clean_linker_0, # of connection points: 2
#     Edge 110, Type (0, 1), BuildingBlock: CIFDUS_clean_linker_0, # of connection points: 2
#     Edge 111, Type (0, 1), BuildingBlock: CIFDUS_clean_linker_0, # of connection points: 2
#     Edge 112, Type (0, 1), BuildingBlock: CIFDUS_clean_linker_0, # of connection points: 2
#     Edge 113, Type (0, 1), BuildingBlock: CIFDUS_clean_linker_0, # of connection points: 2
#     Edge 114, Type (0, 1), BuildingBlock: CIFDUS_clean_linker_0, # of connection points: 2
#     Edge 115, Type (0, 1), BuildingBlock: CIFDUS_clean_linker_0, # of connection points: 2
#     Edge 116, Type (0, 1), BuildingBlock: CIFDUS_clean_linker_0, # of connection points: 2
#     Edge 117, Type (0, 1), BuildingBlock: CIFDUS_clean_linker_0, # of connection points: 2
#     Edge 118, Type (0, 1), BuildingBlock: CIFDUS_clean_linker_0, # of connection points: 2
#     Edge 119, Type (0, 1), BuildingBlock: CIFDUS_clean_linker_0, # of connection points: 2
#     Edge 120, Type (0, 1), BuildingBlock: CIFDUS_clean_linker_0, # of connection points: 2
#     Edge 121, Type (0, 1), BuildingBlock: CIFDUS_clean_linker_0, # of connection points: 2
#     Edge 122, Type (0, 1), BuildingBlock: CIFDUS_clean_linker_0, # of connection points: 2
#     Edge 123, Type (0, 1), BuildingBlock: CIFDUS_clean_linker_0, # of connection points: 2
#     Edge 124, Type (0, 1), BuildingBlock: CIFDUS_clean_linker_0, # of connection points: 2
#     Edge 125, Type (0, 1), BuildingBlock: CIFDUS_clean_linker_0, # of connection points: 2
#     Edge 126, Type (0, 1), BuildingBlock: CIFDUS_clean_linker_0, # of connection points: 2
#     Edge 127, Type (0, 1), BuildingBlock: CIFDUS_clean_linker_0, # of connection points: 2
#     Edge 128, Type (0, 1), BuildingBlock: CIFDUS_clean_linker_0, # of connection points: 2
#     Edge 129, Type (0, 1), BuildingBlock: CIFDUS_clean_linker_0, # of connection points: 2
#     Edge 130, Type (0, 1), BuildingBlock: CIFDUS_clean_linker_0, # of connection points: 2
#     Edge 131, Type (0, 1), BuildingBlock: CIFDUS_clean_linker_0, # of connection points: 2
#     Edge 132, Type (0, 1), BuildingBlock: CIFDUS_clean_linker_0, # of connection points: 2
#     Edge 133, Type (0, 1), BuildingBlock: CIFDUS_clean_linker_0, # of connection points: 2
#     Edge 134, Type (0, 1), BuildingBlock: CIFDUS_clean_linker_0, # of connection points: 2
#     Edge 135, Type (0, 1), BuildingBlock: CIFDUS_clean_linker_0, # of connection points: 2
# Relax obj value: 0.147
# Max RMSD: 0.342
# Mean RMSD: 0.173
data_MOF--net-gar--node1-TATPOV_clean_sbu_0--node2-KUMJIN_clean_sbu_0--edge1-CIFDUS_clean_linker_0
_symmetry_space_group_name_H-M    P1
_symmetry_Int_Tables_number       1
_symmetry_cell_setting            triclinic
loop_
_symmetry_equiv_pos_as_xyz
'x, y, z'
_cell_length_a     54.84364
_cell_length_b     49.539684
_cell_length_c     49.769992
_cell_angle_alpha  100.90701
_cell_angle_beta   94.516566
_cell_angle_gamma 104.57899
loop_
_atom_site_label
_atom_site_type_symbol
_atom_site_fract_x
_atom_site_fract_y
_atom_site_fract_z
_atom_type_partial_charge
Zn0 Zn 0.1187 0.34935 0.42888 0.0
Zn1 Zn 0.14303 0.34423 0.39219 0.0
O2 O 0.15059 0.38688 0.4085 0.0
O3 O 0.14427 0.38432 0.45068 0.0
O4 O 0.16594 0.34166 0.3639 0.0
O5 O 0.11711 0.31315 0.43868 0.0
O6 O 0.15087 0.31708 0.41703 0.0
C7 C 0.15157 0.39932 0.43346 0.0
C8 C 0.08939 0.33996 0.37772 0.0
O9 O 0.10799 0.33123 0.3695 0.0
O10 O 0.09057 0.35187 0.40279 0.0
C11 C 0.17771 0.36066 0.35204 0.0
O12 O 0.1761 0.38703 0.35894 0.0
C13 C 0.13648 0.30522 0.43281 0.0
Zn14 Zn 0.99171 0.70094 0.67814 0.0
Zn15 Zn 1.00038 0.74939 0.66297 0.0
O16 O 0.97297 0.74925 0.68881 0.0
O17 O 0.97211 0.71217 0.70767 0.0
O18 O 0.00601 0.78531 0.64785 0.0
O19 O 0.02947 0.70771 0.68506 0.0
O20 O 0.03576 0.75226 0.68089 0.0
C21 C 0.96484 0.73406 0.70596 0.0
C22 C 0.97922 0.69107 0.6225 0.0
O23 O 0.99111 0.71746 0.62852 0.0
O24 O 0.97277 0.67835 0.64162 0.0
C25 C 0.99706 0.78434 0.6232 0.0
O26 O 0.98129 0.76053 0.60874 0.0
C27 C 0.04443 0.73209 0.68625 0.0
Zn28 Zn 0.61588 0.84787 0.93327 0.0
Zn29 Zn 0.64339 0.84365 0.90075 0.0
O30 O 0.65191 0.88603 0.91897 0.0
O31 O 0.64173 0.88014 0.95936 0.0
O32 O 0.66864 0.8409 0.87511 0.0
O33 O 0.60995 0.80862 0.93839 0.0
O34 O 0.64835 0.81646 0.92667 0.0
C35 C 0.6517 0.89653 0.94428 0.0
C36 C 0.59177 0.84402 0.88154 0.0
O37 O 0.60969 0.83298 0.87525 0.0
O38 O 0.59176 0.85603 0.90631 0.0
C39 C 0.66729 0.84686 0.8514 0.0
O40 O 0.64835 0.8562 0.84278 0.0
C41 C 0.63076 0.80226 0.93775 0.0
Zn42 Zn 0.49307 0.21651 0.18566 0.0
Zn43 Zn 0.5047 0.25691 0.1602 0.0
O44 O 0.47933 0.26867 0.18511 0.0
O45 O 0.4781 0.23954 0.21365 0.0
O46 O 0.5138 0.28669 0.13825 0.0
O47 O 0.5297 0.2175 0.19238 0.0
O48 O 0.53956 0.25826 0.17904 0.0
C49 C 0.47248 0.26077 0.2069 0.0
C50 C 0.478 0.19554 0.12985 0.0
O51 O 0.49125 0.22073 0.13031 0.0
O52 O 0.47185 0.18882 0.15217 0.0
C53 C 0.49764 0.29477 0.1244 0.0
O54 O 0.47329 0.2844 0.12548 0.0
C55 C 0.54632 0.239 0.18894 0.0
Zn56 Zn 0.14013 0.82031 0.07749 0.0
Zn57 Zn 0.11696 0.82547 0.1216 0.0
O58 O 0.11216 0.85991 0.10352 0.0
O59 O 0.12879 0.85538 0.06496 0.0
O60 O 0.09216 0.82511 0.14967 0.0
O61 O 0.12166 0.77678 0.06195 0.0
O62 O 0.10684 0.78186 0.10167 0.0
C63 C 0.11706 0.86882 0.08147 0.0
C64 C 0.17184 0.8285 0.13394 0.0
O65 O 0.15217 0.83243 0.14439 0.0
O66 O 0.17137 0.82409 0.10774 0.0
C67 C 0.0691 0.8247 0.14321 0.0
O68 O 0.06132 0.82537 0.11775 0.0
C69 C 0.10976 0.76544 0.07969 0.0
Zn70 Zn 0.49208 0.76575 0.47159 0.0
Zn71 Zn 0.5249 0.77245 0.43491 0.0
O72 O 0.53386 0.81398 0.45909 0.0
O73 O 0.50817 0.80916 0.49072 0.0
O74 O 0.55085 0.77632 0.40772 0.0
O75 O 0.50508 0.73151 0.48281 0.0
O76 O 0.53156 0.73841 0.45249 0.0
C77 C 0.52492 0.82509 0.48004 0.0
C78 C 0.46729 0.762 0.4153 0.0
O79 O 0.49026 0.76562 0.41016 0.0
O80 O 0.46246 0.75985 0.43953 0.0
C81 C 0.57343 0.77423 0.41243 0.0
O82 O 0.58088 0.76878 0.43608 0.0
C83 C 0.52284 0.72455 0.47058 0.0
Zn84 Zn 0.64417 0.32686 0.58456 0.0
Zn85 Zn 0.60864 0.3198 0.61623 0.0
O86 O 0.60576 0.35605 0.60017 0.0
O87 O 0.63346 0.36128 0.57096 0.0
O88 O 0.57679 0.31309 0.63409 0.0
O89 O 0.63103 0.28426 0.56264 0.0
O90 O 0.60366 0.27834 0.59224 0.0
C91 C 0.61592 0.36951 0.58251 0.0
C92 C 0.66181 0.33065 0.64506 0.0
O93 O 0.63831 0.32725 0.6476 0.0
O94 O 0.66893 0.33209 0.62143 0.0
C95 C 0.57172 0.33079 0.65337 0.0
O96 O 0.58876 0.35515 0.66417 0.0
C97 C 0.61396 0.2676 0.57225 0.0
Zn98 Zn 0.99821 0.27191 0.97442 0.0
Zn99 Zn 0.02229 0.26557 0.93106 0.0
O100 O 0.03405 0.309 0.95129 0.0
O101 O 0.01702 0.31475 0.98963 0.0
O102 O 0.04921 0.26575 0.90406 0.0
O103 O 0.00853 0.23811 0.98825 0.0
O104 O 0.02792 0.23202 0.95171 0.0
C105 C 0.03065 0.3256 0.97286 0.0
C106 C 0.96587 0.26445 0.92008 0.0
O107 O 0.98563 0.26097 0.9091 0.0
O108 O 0.96654 0.26752 0.94615 0.0
C109 C 0.07198 0.27324 0.91641 0.0
O110 O 0.07531 0.27932 0.94355 0.0
C111 C 0.02161 0.22439 0.97406 0.0
Zn112 Zn 0.45907 0.98874 0.31528 0.0
Zn113 Zn 0.43395 0.05933 0.31634 0.0
O114 O 0.44497 0.06258 0.35694 0.0
O115 O 0.44778 0.02259 0.33384 0.0
O116 O 0.42789 0.09546 0.31321 0.0
O117 O 0.46124 1.00595 0.28037 0.0
O118 O 0.46273 0.05257 0.29363 0.0
C119 C 0.45194 0.04017 0.35662 0.0
C120 C 0.4069 1.0049 0.30038 0.0
O121 O 0.40023 0.02764 0.3014 0.0
O122 O 0.4302 1.00818 0.30851 0.0
C123 C 0.41061 0.09989 0.32739 0.0
O124 O 0.4026 0.08288 0.34406 0.0
C125 C 0.46271 0.03071 0.27522 0.0
Zn126 Zn 0.28052 0.24665 0.51566 0.0
Zn127 Zn 0.30459 0.20859 0.51771 0.0
O128 O 0.31479 0.2244 0.48276 0.0
O129 O 0.29549 0.25813 0.48249 0.0
O130 O 0.33139 0.1881 0.5237 0.0
O131 O 0.2919 0.27009 0.55465 0.0
O132 O 0.30917 0.23507 0.55706 0.0
C133 C 0.30967 0.24382 0.47155 0.0
C134 C 0.24819 0.18709 0.50936 0.0
O135 O 0.26878 0.17954 0.51087 0.0
O136 O 0.24911 0.21314 0.51041 0.0
C137 C 0.33598 0.16719 0.50777 0.0
O138 O 0.32105 0.15475 0.48443 0.0
C139 C 0.30362 0.25759 0.56895 0.0
Zn140 Zn 0.15392 0.03644 0.77625 0.0
Zn141 Zn 0.19002 0.01237 0.77493 0.0
O142 O 0.17088 0.01452 0.81551 0.0
O143 O 0.13599 0.028 0.80954 0.0
O144 O 0.2107 0.97509 0.77475 0.0
O145 O 0.13546 0.02725 0.73732 0.0
O146 O 0.16868 1.0106 0.73099 0.0
C147 C 0.15071 0.02 0.82526 0.0
C148 C 0.20702 0.07743 0.78315 0.0
O149 O 0.21594 0.05541 0.78089 0.0
O150 O 0.18313 0.07337 0.78268 0.0
C151 C 0.23325 0.97046 0.77277 0.0
O152 O 0.25157 0.99182 0.76919 0.0
C153 C 0.14897 0.01766 0.72048 0.0
Zn154 Zn 0.38618 0.94655 0.02901 0.0
Zn155 Zn 0.34617 0.95939 0.02293 0.0
O156 O 0.34267 0.93009 0.98861 0.0
O157 O 0.38331 0.93319 0.98767 0.0
O158 O 0.31547 0.97181 0.01837 0.0
O159 O 0.37017 0.91722 0.04866 0.0
O160 O 0.34296 0.94241 0.05739 0.0
C161 C 0.36055 0.92443 0.97594 0.0
C162 C 0.39585 1.00358 0.03609 0.0
O163 O 0.3744 0.99456 0.02132 0.0
O164 O 0.40244 0.98732 0.05017 0.0
C165 C 0.31283 0.98645 1.0006 0.0
O166 O 0.33045 0.99234 0.98454 0.0
C167 C 0.35224 0.92221 0.0614 0.0
Zn168 Zn 0.36008 0.35153 0.03791 0.0
Zn169 Zn 0.33838 0.39471 0.04158 0.0
O170 O 0.33136 0.373 1.00123 0.0
O171 O 0.34765 0.33642 0.99664 0.0
O172 O 0.31747 0.42239 0.04126 0.0
O173 O 0.34078 0.33725 0.06818 0.0
O174 O 0.32813 0.3765 0.07416 0.0
C175 C 0.3361 0.35174 0.98592 0.0
C176 C 0.39471 0.41052 0.05165 0.0
O177 O 0.37467 0.41878 0.04917 0.0
O178 O 0.39329 0.38411 0.04888 0.0
C179 C 0.29335 0.41408 0.03889 0.0
O180 O 0.28212 0.38703 0.03767 0.0
C181 C 0.32976 0.35386 0.08179 0.0
Zn182 Zn 0.7495 0.14309 0.02178 0.0
Zn183 Zn 0.7935 0.14004 0.03912 0.0
O184 O 0.79477 0.14629 0.99917 0.0
O185 O 0.76112 0.16215 0.99276 0.0
O186 O 0.82488 0.1279 0.04642 0.0
O187 O 0.75454 0.16825 0.06095 0.0
O188 O 0.79628 0.17673 0.0646 0.0
C189 C 0.78125 0.15734 0.98493 0.0
C190 C 0.74613 0.0957 0.03517 0.0
O191 O 0.7645 0.11238 0.05211 0.0
O192 O 0.74486 0.09997 0.01109 0.0
C193 C 0.82304 0.10285 0.0501 0.0
O194 O 0.80067 0.08635 0.05187 0.0
C195 C 0.77652 0.18241 0.07324 0.0
Zn196 Zn 0.20595 0.59586 0.23229 0.0
Zn197 Zn 0.21781 0.54979 0.22383 0.0
O198 O 0.20535 0.55122 0.2609 0.0
O199 O 0.21897 0.59775 0.2726 0.0
O200 O 0.22827 0.51471 0.21456 0.0
O201 O 0.16994 0.57358 0.22148 0.0
O202 O 0.18756 0.54422 0.19637 0.0
C203 C 0.20986 0.57409 0.27924 0.0
C204 C 0.24868 0.60108 0.21295 0.0
O205 O 0.24973 0.58224 0.22644 0.0
O206 O 0.22727 0.59841 0.20001 0.0
C207 C 0.24702 0.5181 0.23238 0.0
O208 O 0.25435 0.54142 0.25196 0.0
C209 C 0.16793 0.5521 0.20236 0.0
Zn210 Zn 0.86148 0.85463 0.53678 0.0
Zn211 Zn 0.83346 0.89213 0.54051 0.0
O212 O 0.82842 0.87138 0.49974 0.0
O213 O 0.84968 0.83898 0.49546 0.0
O214 O 0.81116 0.91831 0.53946 0.0
O215 O 0.84263 0.83731 0.56602 0.0
O216 O 0.82236 0.8707 0.57133 0.0
C217 C 0.83573 0.85192 0.48458 0.0
C218 C 0.8904 0.91564 0.55146 0.0
O219 O 0.86853 0.92002 0.54976 0.0
O220 O 0.89243 0.89024 0.5478 0.0
C221 C 0.78703 0.91063 0.53653 0.0
O222 O 0.77507 0.88381 0.53545 0.0
C223 C 0.82742 0.8491 0.57842 0.0
Zn224 Zn 0.98204 0.04778 0.27358 0.0
Zn225 Zn 0.95156 0.08111 0.27766 0.0
O226 O 0.97342 0.0818 0.32088 0.0
O227 O 1.00098 0.05669 0.31255 0.0
O228 O 0.9327 0.11941 0.27896 0.0
O229 O 0.99973 0.05617 0.23998 0.0
O230 O 0.97114 0.08001 0.23747 0.0
C231 C 0.99107 0.07091 0.33029 0.0
C232 C 0.92716 0.01523 0.26832 0.0
O233 O 0.9227 0.04 0.27157 0.0
O234 O 0.94996 0.01397 0.26754 0.0
C235 C 0.91033 0.12439 0.281 0.0
O236 O 0.89165 0.10315 0.28409 0.0
C237 C 0.98897 0.07018 0.22644 0.0
Zn238 Zn 0.24855 0.64174 0.53985 0.0
Zn239 Zn 0.29547 0.64135 0.53313 0.0
O240 O 0.29625 0.66197 0.50285 0.0
O241 O 0.25447 0.65089 0.50203 0.0
O242 O 0.32674 0.6284 0.53737 0.0
O243 O 0.25622 0.67649 0.56788 0.0
O244 O 0.29501 0.67092 0.56871 0.0
C245 C 0.27424 0.65991 0.49104 0.0
C246 C 0.25062 0.59286 0.5274 0.0
O247 O 0.26763 0.60494 0.51464 0.0
O248 O 0.25132 0.60517 0.55212 0.0
C249 C 0.32438 0.60538 0.54589 0.0
O250 O 0.30266 0.59316 0.5535 0.0
C251 C 0.2793 0.68434 0.57806 0.0
Zn252 Zn 0.48233 0.54993 0.77239 0.0
Zn253 Zn 0.44878 0.57751 0.77715 0.0
O254 O 0.47309 0.58235 0.82056 0.0
O255 O 0.50183 0.55933 0.81054 0.0
O256 O 0.42445 0.61133 0.77667 0.0
O257 O 0.49942 0.55918 0.73912 0.0
O258 O 0.46703 0.57743 0.73591 0.0
C259 C 0.49206 0.5728 0.82896 0.0
C260 C 0.43069 0.51021 0.76752 0.0
O261 O 0.42312 0.53325 0.77193 0.0
O262 O 0.45413 0.51296 0.76587 0.0
C263 C 0.4243 0.63688 0.7903 0.0
O264 O 0.44185 0.64896 0.81167 0.0
C265 C 0.48603 0.57017 0.72492 0.0
Zn266 Zn 0.70201 0.08066 0.73136 0.0
Zn267 Zn 0.72076 0.04333 0.73329 0.0
O268 O 0.70074 0.04593 0.76564 0.0
O269 O 0.71062 0.09228 0.773 0.0
O270 O 0.73304 1.01009 0.73291 0.0
O271 O 0.66908 0.05105 0.71493 0.0
O272 O 0.69797 0.03248 0.69745 0.0
C273 C 0.70153 0.06965 0.78121 0.0
C274 C 0.74931 0.09503 0.72065 0.0
O275 O 0.75051 0.07835 0.73685 0.0
O276 O 0.72841 0.09064 0.70571 0.0
C277 C 0.7479 1.00253 0.71668 0.0
O278 O 0.75833 0.01925 0.70072 0.0
C279 C 0.67528 0.03428 0.69597 0.0
Zn280 Zn 0.77542 0.73654 0.01217 0.0
Zn281 Zn 0.80452 0.70156 0.0113 0.0
O282 O 0.8111 0.7183 0.97666 0.0
O283 O 0.78934 0.75017 0.97857 0.0
O284 O 0.83338 0.6851 0.01812 0.0
O285 O 0.78635 0.75807 0.05295 0.0
O286 O 0.80545 0.72403 0.05056 0.0
C287 C 0.80397 0.73722 0.96648 0.0
C288 C 0.75006 0.67301 1.00163 0.0
O289 O 0.77219 0.66923 1.00322 0.0
O290 O 0.74738 0.69815 1.00456 0.0
C291 C 0.84351 0.67025 1.00117 0.0
O292 O 0.83432 0.66302 0.97485 0.0
C293 C 0.79874 0.74436 0.06497 0.0
Zn294 Zn 0.97091 0.52604 0.82712 0.0
Zn295 Zn 0.93541 0.55687 0.81472 0.0
O296 O 0.94964 0.56559 0.85413 0.0
O297 O 0.9398 0.5202 0.84901 0.0
O298 O 0.91054 0.57772 0.81561 0.0
O299 O 0.9768 0.53667 0.79044 0.0
O300 O 0.958 0.57064 0.78808 0.0
C301 C 0.94512 0.54423 0.86515 0.0
C302 C 0.92108 0.49258 0.79761 0.0
O303 O 0.9155 0.51593 0.79739 0.0
O304 O 0.94159 0.49191 0.81094 0.0
C305 C 0.88968 0.56883 0.82455 0.0
O306 O 0.88506 0.54513 0.83378 0.0
C307 C 0.97133 0.55483 0.77799 0.0
Zn308 Zn 0.8875 0.39269 0.51321 0.0
Zn309 Zn 0.83633 0.4513 0.51917 0.0
O310 O 0.8277 0.42521 0.48181 0.0
O311 O 0.85701 0.40762 0.49755 0.0
O312 O 0.81392 0.47557 0.52038 0.0
O313 O 0.85868 0.41124 0.52956 0.0
O314 O 0.83096 0.42957 0.54983 0.0
C315 C 0.84143 0.4082 0.47721 0.0
C316 C 0.88826 0.45946 0.52092 0.0
O317 O 0.87313 0.47514 0.52286 0.0
O318 O 0.87855 0.43267 0.51851 0.0
C319 C 0.81689 0.49651 0.50866 0.0
O320 O 0.83684 0.50378 0.49593 0.0
C321 C 0.84531 0.41314 0.5495 0.0
Zn322 Zn 0.66041 0.54547 0.27883 0.0
Zn323 Zn 0.69046 0.5112 0.27461 0.0
O324 O 0.66831 0.50914 0.31298 0.0
O325 O 0.64387 0.53828 0.31324 0.0
O326 O 0.71564 0.47869 0.27576 0.0
O327 O 0.64148 0.53463 0.23958 0.0
O328 O 0.66898 0.50941 0.23099 0.0
C329 C 0.65198 0.52105 0.32492 0.0
C330 C 0.71369 0.57856 0.2838 0.0
O331 O 0.71803 0.55376 0.28123 0.0
O332 O 0.69095 0.57995 0.28409 0.0
C333 C 0.71439 0.45164 0.26616 0.0
O334 O 0.6935 0.43589 0.2502 0.0
C335 C 0.65122 0.52025 0.22174 0.0
Eu336 Eu 0.04082 0.02847 0.01009 0.0
C337 C 0.12499 0.13328 0.07494 0.0
C338 C 0.13423 0.16262 0.04127 0.0
C339 C 0.14463 0.18449 0.09013 0.0
C340 C 0.12428 0.13572 0.04772 0.0
C341 C 0.13577 0.15758 0.09645 0.0
C342 C 0.14384 0.18701 0.06258 0.0
C343 C 0.1317 0.12649 0.12869 0.0
N344 N 0.11721 0.10688 0.08037 0.0
C345 C 0.12165 0.10308 0.10667 0.0
C346 C 0.13852 0.15394 0.12361 0.0
Eu347 Eu 0.10205 0.06741 0.04219 0.0
N348 N 0.11576 0.11157 0.02759 0.0
C349 C 0.11819 0.11299 1.00065 0.0
C350 C 0.13537 0.16412 0.01364 0.0
C351 C 0.12761 0.13913 0.99329 0.0
H352 H 0.11749 0.08179 0.11059 0.0
H353 H 0.12886 0.13991 0.97184 0.0
H354 H 0.1515 0.20777 0.05796 0.0
H355 H 0.13465 0.12328 0.14949 0.0
H356 H 0.11228 0.09432 0.98421 0.0
H357 H 0.02065 0.95975 0.0854 0.0
H358 H 0.14292 0.18433 0.00788 0.0
H359 H 0.02733 1.01061 0.94139 0.0
H360 H 0.038 1.00375 0.0706 0.0
H361 H 0.00652 0.96818 0.90454 0.0
H362 H 0.15291 0.20335 0.10636 0.0
H363 H 0.99956 0.91528 0.05109 0.0
H364 H 0.985 0.89058 1.00174 0.0
H365 H 0.14679 0.17204 0.14063 0.0
H366 H 0.98139 0.89271 0.95271 0.0
N367 N 0.02717 0.98571 0.02731 0.0
C368 C 0.02864 0.98515 0.05485 0.0
C369 C 0.00721 0.93482 0.04421 0.0
C370 C 0.00532 0.93531 0.01617 0.0
C371 C 0.01899 0.95986 0.0636 0.0
C372 C 0.01568 0.96133 0.00822 0.0
H373 H 0.98949 0.92136 0.91636 0.0
N374 N 0.02353 0.98776 0.9737 0.0
C375 C 0.00858 0.96618 0.92582 0.0
C376 C 0.01384 0.96241 0.98064 0.0
C377 C 0.02049 0.99011 0.94675 0.0
C378 C 0.999 0.93982 0.93258 0.0
C379 C 1.00134 0.9377 0.96024 0.0
O380 O 0.01306 0.04003 0.98423 0.0
O381 O 0.06553 0.07417 0.02435 0.0
O382 O 0.0766 0.07425 0.07685 0.0
O383 O 0.0368 0.04523 0.0566 0.0
O384 O 0.05044 0.06026 0.98297 0.0
O385 O 0.0046 0.0316 0.0242 0.0
O386 O 0.1308 0.05508 0.06577 0.0
O387 O 0.07785 0.02212 0.02622 0.0
O388 O 0.06658 0.01756 0.97689 0.0
O389 O 0.10512 0.05052 0.99533 0.0
O390 O 0.09443 0.03286 0.06683 0.0
O391 O 0.13917 0.06953 0.0281 0.0
C392 C 0.06234 0.08242 1.00169 0.0
C393 C 0.97012 0.02858 0.99077 0.0
C394 C 0.92896 0.03795 0.98881 0.0
C395 C 0.95449 0.0457 0.99987 0.0
C396 C 0.91894 0.01295 0.9683 0.0
C397 C 0.96026 1.00362 0.97016 0.0
C398 C 0.93467 0.99592 0.95889 0.0
C399 C 0.05225 0.06232 0.07871 0.0
C400 C 0.9969 0.03899 1.00192 0.0
C401 C 0.99111 0.91184 0.96806 0.0
C402 C 0.99313 0.91064 0.99597 0.0
C403 C 0.08214 1.01171 0.0472 0.0
C404 C 0.17378 0.07135 0.06078 0.0
C405 C 0.18986 0.05505 0.05153 0.0
C406 C 0.21502 0.06239 0.06365 0.0
C407 C 0.22443 0.08666 0.08511 0.0
C408 C 0.18284 0.09553 0.08241 0.0
C409 C 0.20824 0.10316 0.09452 0.0
C410 C 0.09035 0.03101 0.97414 0.0
C411 C 0.1473 0.06014 0.04884 0.0
H412 H 0.96217 0.06504 0.01578 0.0
H413 H 0.89907 1.00668 0.95969 0.0
H414 H 0.97223 0.99032 0.9627 0.0
H415 H 0.92701 0.97675 0.94292 0.0
H416 H 0.18266 0.03623 0.0349 0.0
H417 H 0.24401 0.09255 0.09465 0.0
H418 H 0.17041 0.10819 0.09004 0.0
H419 H 0.21533 0.1217 0.11132 0.0
Eu420 Eu 0.3287 0.78562 0.25528 0.0
C421 C 0.30198 0.88227 0.33299 0.0
C422 C 0.3426 0.90896 0.35999 0.0
C423 C 0.30858 0.93185 0.35675 0.0
C424 C 0.32651 0.88322 0.34352 0.0
C425 C 0.29269 0.90653 0.34007 0.0
C426 C 0.3335 0.93313 0.36653 0.0
C427 C 0.25154 0.87831 0.31648 0.0
N428 N 0.2867 0.85738 0.31725 0.0
C429 C 0.2614 0.85486 0.31029 0.0
C430 C 0.26731 0.90437 0.33122 0.0
Eu431 Eu 0.30248 0.81671 0.31521 0.0
N432 N 0.33458 0.85912 0.33804 0.0
C433 C 0.35917 0.86023 0.34704 0.0
C434 C 0.3674 0.90974 0.36975 0.0
C435 C 0.37579 0.88538 0.36292 0.0
H436 H 0.24839 0.83451 0.30017 0.0
H437 H 0.39515 0.88593 0.36985 0.0
H438 H 0.34552 0.95285 0.37945 0.0
H439 H 0.23161 0.87605 0.31042 0.0
H440 H 0.36681 0.84235 0.34152 0.0
H441 H 0.23717 0.71807 0.19552 0.0
H442 H 0.38028 0.92911 0.38234 0.0
H443 H 0.38107 0.76503 0.27141 0.0
H444 H 0.26364 0.75756 0.23104 0.0
H445 H 0.39897 0.72505 0.25703 0.0
H446 H 0.30165 0.95051 0.3625 0.0
H447 H 0.25471 0.67944 0.17345 0.0
H448 H 0.29092 0.65735 0.1714 0.0
H449 H 0.25949 0.92241 0.33648 0.0
H450 H 0.33424 0.65839 0.18934 0.0
N451 N 0.2977 0.74424 0.22763 0.0
C452 C 0.2725 0.7422 0.22078 0.0
C453 C 0.26686 0.69738 0.18864 0.0
C454 C 0.29193 0.69819 0.19724 0.0
C455 C 0.25695 0.71918 0.20095 0.0
C456 C 0.30693 0.72194 0.21733 0.0
H457 H 0.37407 0.68279 0.22196 0.0
N458 N 0.34449 0.74458 0.24818 0.0
C459 C 0.37962 0.72359 0.24908 0.0
C460 C 0.33099 0.72206 0.22804 0.0
C461 C 0.36897 0.74598 0.2579 0.0
C462 C 0.36562 0.69995 0.22912 0.0
C463 C 0.34113 0.69908 0.2181 0.0
O464 O 0.3688 0.80434 0.25351 0.0
O465 O 0.33307 0.8238 0.28911 0.0
O466 O 0.28021 0.81971 0.27439 0.0
O467 O 0.29617 0.79959 0.23522 0.0
O468 O 0.33235 0.82996 0.2487 0.0
O469 O 0.34279 0.784 0.21559 0.0
O470 O 0.26399 0.80181 0.32487 0.0
O471 O 0.29857 0.77885 0.2818 0.0
O472 O 0.34939 0.78005 0.29587 0.0
O473 O 0.33366 0.80102 0.33476 0.0
O474 O 0.29383 0.77104 0.32084 0.0
O475 O 0.29487 0.82625 0.35759 0.0
C476 C 0.33467 0.84209 0.27441 0.0
C477 C 0.37845 0.8222 0.21384 0.0
C478 C 0.37891 0.84872 0.17769 0.0
C479 C 0.36641 0.82715 0.19008 0.0
C480 C 0.40349 0.86558 0.18886 0.0
C481 C 0.40317 0.83906 0.22493 0.0
C482 C 0.41558 0.86073 0.21248 0.0
C483 C 0.27987 0.81252 0.247 0.0
C484 C 0.36588 0.79891 0.22657 0.0
C485 C 0.3267 0.67609 0.19729 0.0
C486 C 0.30211 0.67559 0.18695 0.0
C487 C 0.29479 0.75982 0.2956 0.0
C488 C 0.25844 0.7977 0.37036 0.0
C489 C 0.26855 0.77733 0.37949 0.0
C490 C 0.25672 0.76263 0.39832 0.0
C491 C 0.23494 0.76874 0.40829 0.0
C492 C 0.23668 0.80364 0.3802 0.0
C493 C 0.225 0.7892 0.39922 0.0
C494 C 0.34948 0.78734 0.32316 0.0
C495 C 0.27054 0.81359 0.35111 0.0
H496 H 0.34745 0.81425 0.18101 0.0
H497 H 0.41334 0.88223 0.17912 0.0
H498 H 0.41292 0.83537 0.2431 0.0
H499 H 0.43463 0.8736 0.22101 0.0
H500 H 0.28547 0.77288 0.372 0.0
H501 H 0.22582 0.75795 0.42336 0.0
H502 H 0.22889 0.8196 0.37331 0.0
H503 H 0.20833 0.79394 0.40703 0.0
Eu504 Eu 0.59831 0.05091 0.52086 0.0
C505 C 0.50157 0.99239 0.5607 0.0
C506 C 0.47633 0.95465 0.523 0.0
C507 C 0.4754 0.94852 0.57018 0.0
C508 C 0.494 0.98175 0.53254 0.0
C509 C 0.49121 0.9764 0.57978 0.0
C510 C 0.46804 0.93763 0.54184 0.0
C511 C 0.50895 0.01833 0.61621 0.0
N512 N 0.51676 0.0195 0.56953 0.0
C513 C 0.51904 0.03324 0.59664 0.0
C514 C 0.49569 0.98951 0.60787 0.0
Eu515 Eu 0.53328 0.04241 0.53437 0.0
N516 N 0.50162 0.99902 0.51481 0.0
C517 C 0.48993 0.99187 0.48811 0.0
C518 C 0.46625 0.94615 0.49506 0.0
C519 C 0.47255 0.96518 0.47773 0.0
H520 H 0.52981 0.05543 0.60326 0.0
H521 H 0.46389 0.9594 0.4564 0.0
H522 H 0.45483 0.9166 0.5348 0.0
H523 H 0.51167 0.02901 0.63775 0.0
H524 H 0.49378 1.00657 0.47452 0.0
H525 H 0.65584 0.14856 0.59223 0.0
H526 H 0.4526 0.92558 0.48701 0.0
H527 H 0.59956 0.0301 0.452 0.0
H528 H 0.62898 0.0994 0.57951 0.0
H529 H 0.61568 0.05195 0.41376 0.0
H530 H 0.46772 0.93575 0.58456 0.0
H531 H 0.66962 0.17476 0.55609 0.0
H532 H 0.67058 0.17472 0.50602 0.0
H533 H 0.48794 0.97798 0.6231 0.0
H534 H 0.65948 0.1487 0.45764 0.0
N535 N 0.62587 0.09754 0.53606 0.0
C536 C 0.6341 0.11041 0.56324 0.0
C537 C 0.65741 0.1531 0.55021 0.0
C538 C 0.64995 0.13943 0.52241 0.0
C539 C 0.64967 0.1384 0.57067 0.0
C540 C 0.63395 0.1112 0.51577 0.0
H541 H 0.63924 0.10307 0.42317 0.0
N542 N 0.61255 0.06908 0.48225 0.0
C543 C 0.61882 0.06478 0.43453 0.0
C544 C 0.62727 0.09661 0.48825 0.0
C545 C 0.60978 0.05251 0.45614 0.0
C546 C 0.63209 0.09366 0.43994 0.0
C547 C 0.637 0.10977 0.46708 0.0
O548 O 0.61459 0.01771 0.50147 0.0
O549 O 0.55876 0.01907 0.51243 0.0
O550 O 0.55561 0.02953 0.56786 0.0
O551 O 0.59446 0.05938 0.56585 0.0
O552 O 0.58852 1.00528 0.52695 0.0
O553 O 0.63655 0.0504 0.53672 0.0
O554 O 0.52036 0.07574 0.55925 0.0
O555 O 0.57302 0.07373 0.5433 0.0
O556 O 0.57577 0.06171 0.48665 0.0
O557 O 0.53635 0.0325 0.48914 0.0
O558 O 0.54445 0.0871 0.52557 0.0
O559 O 0.49763 0.051 0.52027 0.0
C560 C 0.56461 0.99754 0.51865 0.0
C561 C 0.6589 0.02543 0.50612 0.0
C562 C 0.69258 1.0016 0.50094 0.0
C563 C 0.67196 1.00672 0.51411 0.0
C564 C 0.69991 0.01549 0.47949 0.0
C565 C 0.66668 0.0395 0.48505 0.0
C566 C 0.68705 0.03439 0.47171 0.0
C567 C 0.57975 0.0409 0.57744 0.0
C568 C 0.63582 0.0274 0.51835 0.0
C569 C 0.65209 0.13819 0.47368 0.0
C570 C 0.65847 0.15299 0.50124 0.0
C571 C 0.56804 0.09494 0.53549 0.0
C572 C 0.47639 0.07373 0.55419 0.0
C573 C 0.45796 0.08226 0.53916 0.0
C574 C 0.43741 0.08873 0.55155 0.0
C575 C 0.435 0.08601 0.57883 0.0
C576 C 0.47365 0.07109 0.5815 0.0
C577 C 0.45294 0.07697 0.59361 0.0
C578 C 0.55222 0.04851 0.47624 0.0
C579 C 0.49964 0.0712 0.54215 0.0
H580 H 0.66594 0.99604 0.53055 0.0
H581 H 0.7154 1.01153 0.46856 0.0
H582 H 0.65697 0.05412 0.47871 0.0
H583 H 0.69277 0.04493 0.45515 0.0
H584 H 0.46018 0.0851 0.51832 0.0
H585 H 0.41934 0.09115 0.58872 0.0
H586 H 0.48778 0.0654 0.59386 0.0
H587 H 0.45111 0.07514 0.61474 0.0
Eu588 Eu 0.28678 0.29993 0.77337 0.0
C589 C 0.37782 0.27221 0.83279 0.0
C590 C 0.39432 0.3153 0.8684 0.0
C591 C 0.39964 0.27023 0.8766 0.0
C592 C 0.38134 0.30122 0.8418 0.0
C593 C 0.38756 0.25652 0.84981 0.0
C594 C 0.40296 0.29956 0.8859 0.0
C595 C 0.37493 0.21551 0.81175 0.0
N596 N 0.36609 0.25954 0.80684 0.0
C597 C 0.36565 0.23197 0.79573 0.0
C598 C 0.38557 0.22771 0.8391 0.0
Eu599 Eu 0.35021 0.28816 0.78059 0.0
N600 N 0.37272 0.31583 0.82436 0.0
C601 C 0.37798 0.345 0.83192 0.0
C602 C 0.39865 0.34487 0.87649 0.0
C603 C 0.39072 0.35981 0.85803 0.0
H604 H 0.35777 0.22261 0.77438 0.0
H605 H 0.39427 0.38277 0.86394 0.0
H606 H 0.41274 0.30999 0.90644 0.0
H607 H 0.37398 0.19349 0.80294 0.0
H608 H 0.37186 0.35735 0.81856 0.0
H609 H 0.24449 0.20869 0.68648 0.0
H610 H 0.40848 0.35642 0.89674 0.0
H611 H 0.2806 0.36659 0.78249 0.0
H612 H 0.26738 0.23241 0.73215 0.0
H613 H 0.26326 0.39667 0.75615 0.0
H614 H 0.40699 0.25847 0.89006 0.0
H615 H 0.22821 0.23633 0.65641 0.0
H616 H 0.22196 0.28302 0.64997 0.0
H617 H 0.39287 0.21498 0.85149 0.0
H618 H 0.22721 0.33401 0.6687 0.0
N619 N 0.26525 0.27424 0.72881 0.0
C620 C 0.26058 0.24527 0.7198 0.0
C621 C 0.23846 0.24715 0.67666 0.0
C622 C 0.24222 0.27648 0.68628 0.0
C623 C 0.24755 0.23148 0.69358 0.0
C624 C 0.25582 0.28964 0.71281 0.0
H625 H 0.24249 0.37643 0.70809 0.0
N626 N 0.27159 0.33049 0.74902 0.0
C627 C 0.26224 0.37486 0.74646 0.0
C628 C 0.25913 0.31853 0.72318 0.0
C629 C 0.27227 0.35789 0.76118 0.0
C630 C 0.25052 0.36334 0.71939 0.0
C631 C 0.24847 0.33476 0.70755 0.0
O632 O 0.26771 0.31297 0.8086 0.0
O633 O 0.31818 0.29612 0.80232 0.0
O634 O 0.32316 0.24749 0.78907 0.0
O635 O 0.2829 0.25336 0.77796 0.0
O636 O 0.30473 0.33189 0.81292 0.0
O637 O 0.24648 0.27871 0.77577 0.0
O638 O 0.36917 0.2695 0.74802 0.0
O639 O 0.31876 0.29103 0.75009 0.0
O640 O 0.31393 0.34181 0.76757 0.0
O641 O 0.35411 0.33421 0.77408 0.0
O642 O 0.33098 0.25402 0.744 0.0
O643 O 0.38851 0.31077 0.77348 0.0
C644 C 0.31971 0.31778 0.82109 0.0
C645 C 0.22315 0.30575 0.80383 0.0
C646 C 0.18169 0.30241 0.82062 0.0
C647 C 0.20204 0.29037 0.81459 0.0
C648 C 0.18266 0.32961 0.81575 0.0
C649 C 0.22362 0.33321 0.80002 0.0
C650 C 0.20352 0.3449 0.80564 0.0
C651 C 0.29789 0.23752 0.78454 0.0
C652 C 0.24579 0.29475 0.79951 0.0
C653 C 0.23543 0.32184 0.68099 0.0
C654 C 0.23239 0.2928 0.67036 0.0
C655 C 0.31746 0.26793 0.73289 0.0
C656 C 0.41396 0.2824 0.75182 0.0
C657 C 0.43395 0.2991 0.74097 0.0
C658 C 0.45567 0.28968 0.73612 0.0
C659 C 0.45758 0.26389 0.7426 0.0
C660 C 0.41627 0.25654 0.75801 0.0
C661 C 0.43801 0.24751 0.75364 0.0
C662 C 0.33918 0.35092 0.76987 0.0
C663 C 0.38982 0.29038 0.75334 0.0
H664 H 0.20166 0.26956 0.81868 0.0
H665 H 0.16744 0.33934 0.82043 0.0
H666 H 0.23987 0.34616 0.79354 0.0
H667 H 0.20435 0.36618 0.80266 0.0
H668 H 0.4322 0.3187 0.73534 0.0
H669 H 0.47414 0.25629 0.73877 0.0
H670 H 0.40103 0.24276 0.76533 0.0
H671 H 0.43943 0.22742 0.75826 0.0
Eu672 Eu 0.06529 0.07534 0.53958 0.0
C673 C 0.08425 0.98388 0.44802 0.0
C674 C 0.04351 0.97003 0.41916 0.0
C675 C 0.08096 0.96304 0.39903 0.0
C676 C 0.05849 0.98171 0.4452 0.0
C677 C 0.09565 0.97398 0.42505 0.0
C678 C 0.05496 0.96115 0.39608 0.0
C679 C 0.13487 0.98428 0.45556 0.0
N680 N 0.09798 0.99444 0.4734 0.0
C681 C 0.12272 0.99372 0.47767 0.0
C682 C 0.12136 0.97465 0.42905 0.0
Eu683 Eu 0.07623 1.00955 0.51015 0.0
N684 N 0.04793 0.99031 0.46795 0.0
C685 C 0.02214 0.98636 0.46611 0.0
C686 C 0.01739 0.96719 0.41711 0.0
C687 C 0.00665 0.97519 0.44075 0.0
H688 H 0.1332 1.00095 0.49823 0.0
H689 H 0.9864 0.97284 0.43947 0.0
H690 H 0.04377 0.95229 0.37594 0.0
H691 H 0.15461 0.98431 0.45899 0.0
H692 H 0.01317 0.99268 0.48379 0.0
H693 H 0.15341 0.11593 0.6131 0.0
H694 H 0.0053 0.95846 0.39749 0.0
H695 H 0.00698 0.08113 0.54894 0.0
H696 H 0.12795 0.09356 0.56857 0.0
H697 H 0.98428 0.09894 0.58646 0.0
H698 H 0.08943 0.95552 0.38114 0.0
H699 H 0.13314 0.1319 0.65345 0.0
H700 H 0.09383 0.13826 0.67285 0.0
H701 H 0.13077 0.96719 0.41195 0.0
H702 H 0.04799 0.13366 0.66572 0.0
N703 N 0.09238 0.09588 0.58249 0.0
C704 C 0.11826 0.10036 0.58544 0.0
C705 C 0.12156 0.12192 0.6337 0.0
C706 C 0.09532 0.11834 0.63055 0.0
C707 C 0.13307 0.11302 0.61098 0.0
C708 C 0.08102 0.10512 0.60437 0.0
H709 H 0.00716 0.11925 0.63368 0.0
N710 N 0.04203 0.09022 0.57496 0.0
C711 C 1.00415 0.09981 0.59075 0.0
C712 C 0.05515 0.10225 0.60047 0.0
C713 C 0.01704 0.08972 0.56961 0.0
C714 C 0.01713 0.11124 0.61736 0.0
C715 C 0.04297 0.11288 0.62245 0.0
O716 O 0.04637 0.10461 0.52516 0.0
O717 O 0.06478 0.0473 0.49759 0.0
O718 O 0.10967 0.04135 0.49955 0.0
O719 O 0.10441 0.08294 0.52569 0.0
O720 O 0.0328 0.06107 0.50397 0.0
O721 O 0.08768 0.11721 0.53578 0.0
O722 O 0.09518 0.98089 0.52563 0.0
O723 O 0.07696 0.03804 0.55173 0.0
O724 O 0.03336 0.0433 0.5521 0.0
O725 O 0.03818 1.0013 0.5261 0.0
O726 O 0.10888 0.02423 0.5458 0.0
O727 O 0.05436 0.96682 0.51302 0.0
C728 C 0.04375 0.04889 0.48508 0.0
C729 C 0.06775 0.15364 0.53093 0.0
C730 C 0.07992 0.19746 0.51477 0.0
C731 C 0.08045 0.16934 0.51342 0.0
C732 C 0.06691 0.21031 0.5344 0.0
C733 C 0.05439 0.16604 0.55038 0.0
C734 C 0.05411 0.19452 0.55214 0.0
C735 C 0.11769 0.06902 0.51013 0.0
C736 C 0.06769 0.12386 0.52617 0.0
C737 C 0.05704 0.12548 0.6486 0.0
C738 C 0.08314 0.12813 0.65265 0.0
C739 C 0.09806 0.03708 0.5644 0.0
C740 C 0.07573 0.93117 0.51691 0.0
C741 C 0.06127 0.91162 0.53042 0.0
C742 C 0.06346 0.88362 0.52656 0.0
C743 C 0.08042 0.87537 0.50906 0.0
C744 C 0.09261 0.92276 0.4995 0.0
C745 C 0.09494 0.8949 0.49567 0.0
C746 C 0.02574 0.01548 0.54247 0.0
C747 C 0.07427 0.96067 0.52355 0.0
H748 H 0.09053 0.15942 0.49822 0.0
H749 H 0.06623 0.23217 0.53559 0.0
H750 H 0.04413 0.15377 0.5638 0.0
H751 H 0.04374 0.20425 0.56699 0.0
H752 H 0.04834 0.91826 0.54402 0.0
H753 H 0.08265 0.85393 0.50602 0.0
H754 H 0.10419 0.93773 0.48925 0.0
H755 H 0.10816 0.88849 0.48245 0.0
Eu756 Eu 0.35298 0.81852 0.77185 0.0
C757 C 0.28645 0.73352 0.82773 0.0
C758 C 0.29008 0.68796 0.80267 0.0
C759 C 0.28201 0.69332 0.85034 0.0
C760 C 0.29064 0.71687 0.80376 0.0
C761 C 0.28146 0.72163 0.85104 0.0
C762 C 0.28633 0.67655 0.82622 0.0
C763 C 0.27311 0.76555 0.87323 0.0
N764 N 0.28572 0.76076 0.8278 0.0
C765 C 0.27803 0.77638 0.84964 0.0
C766 C 0.27518 0.73821 0.87409 0.0
Eu767 Eu 0.29482 0.77771 0.78709 0.0
N768 N 0.29361 0.72824 0.78104 0.0
C769 C 0.29456 0.71107 0.75624 0.0
C770 C 0.29235 0.67097 0.77768 0.0
C771 C 0.2942 0.68249 0.75429 0.0
H772 H 0.27629 0.79751 0.84894 0.0
H773 H 0.29527 0.66934 0.73463 0.0
H774 H 0.28601 0.65449 0.82575 0.0
H775 H 0.26761 0.77823 0.89069 0.0
H776 H 0.29551 0.71874 0.73748 0.0
H777 H 0.36041 0.9262 0.83161 0.0
H778 H 0.29192 0.64872 0.77602 0.0
H779 H 0.36435 0.79793 0.70706 0.0
H780 H 0.34915 0.87428 0.82295 0.0
H781 H 0.3766 0.81951 0.66752 0.0
H782 H 0.27842 0.68395 0.86812 0.0
H783 H 0.37555 0.95124 0.79514 0.0
H784 H 0.38541 0.94855 0.74671 0.0
H785 H 0.27118 0.72979 0.89232 0.0
H786 H 0.38826 0.91963 0.70176 0.0
N787 N 0.3587 0.8687 0.78172 0.0
C788 C 0.35617 0.88429 0.80668 0.0
C789 C 0.37089 0.92813 0.79113 0.0
C790 C 0.37292 0.91221 0.76543 0.0
C791 C 0.36235 0.91408 0.81176 0.0
C792 C 0.36677 0.88212 0.76126 0.0
H793 H 0.38444 0.87165 0.67191 0.0
N794 N 0.36272 0.83698 0.73239 0.0
C795 C 0.37403 0.83274 0.68646 0.0
C796 C 0.3681 0.86579 0.73574 0.0
C797 C 0.3668 0.82054 0.7087 0.0
C798 C 0.37847 0.86216 0.68904 0.0
C799 C 0.37606 0.87916 0.71405 0.0
O800 O 0.38824 0.80965 0.76102 0.0
O801 O 0.33643 0.7773 0.78612 0.0
O802 O 0.31977 0.79269 0.82775 0.0
O803 O 0.35196 0.82815 0.81752 0.0
O804 O 0.35772 0.77388 0.75474 0.0
O805 O 0.38867 0.84034 0.79889 0.0
O806 O 0.25872 0.78789 0.78924 0.0
O807 O 0.31125 0.81955 0.7731 0.0
O808 O 0.32509 0.80775 0.73357 0.0
O809 O 0.30098 0.76643 0.74266 0.0
O810 O 0.28848 0.82169 0.80361 0.0
O811 O 0.25997 0.74945 0.76115 0.0
C812 C 0.34623 0.7594 0.77127 0.0
C813 C 0.42678 0.84523 0.7784 0.0
C814 C 0.47228 0.86126 0.79317 0.0
C815 C 0.44776 0.84671 0.79685 0.0
C816 C 0.47571 0.87462 0.77075 0.0
C817 C 0.43028 0.85853 0.75593 0.0
C818 C 0.45468 0.87337 0.7523 0.0
C819 C 0.33991 0.81467 0.83492 0.0
C820 C 0.40203 0.82792 0.78254 0.0
C821 C 0.38211 0.90903 0.71818 0.0
C822 C 0.38061 0.9255 0.74382 0.0
C823 C 0.30026 0.83672 0.78758 0.0
C824 C 0.22064 0.75138 0.7778 0.0
C825 C 0.19973 0.74425 0.75726 0.0
C826 C 0.17508 0.73499 0.76381 0.0
C827 C 0.1713 0.73287 0.79097 0.0
C828 C 0.21668 0.74892 0.80489 0.0
C829 C 0.19208 0.73979 0.81143 0.0
C830 C 0.31017 0.78183 0.72522 0.0
C831 C 0.24575 0.76525 0.77129 0.0
H832 H 0.44505 0.83573 0.81376 0.0
H833 H 0.49453 0.88603 0.76763 0.0
H834 H 0.41448 0.85707 0.74098 0.0
H835 H 0.45731 0.88362 0.73496 0.0
H836 H 0.20254 0.74666 0.73642 0.0
H837 H 0.15225 0.72637 0.79638 0.0
H838 H 0.23242 0.75483 0.82116 0.0
H839 H 0.1891 0.73856 0.83246 0.0
Eu840 Eu 0.5763 0.04299 0.05038 0.0
C841 C 0.50072 0.06626 0.96252 0.0
C842 C 0.48056 0.01908 0.93414 0.0
C843 C 0.4573 0.05498 0.93959 0.0
C844 C 0.50177 0.03872 0.95159 0.0
C845 C 0.47869 0.07485 0.95584 0.0
C846 C 0.45824 0.02717 0.92875 0.0
C847 C 0.50167 0.12322 0.978 0.0
N848 N 0.52173 0.08527 0.97791 0.0
C849 C 0.52304 0.11379 0.98376 0.0
C850 C 0.47919 0.10355 0.96449 0.0
Eu851 Eu 0.55784 0.06813 0.98581 0.0
N852 N 0.52361 0.03133 0.95722 0.0
C853 C 0.52531 1.00459 0.94545 0.0
C854 C 0.48239 0.99187 0.92232 0.0
C855 C 0.50491 0.98469 0.92788 0.0
H856 H 0.5406 0.12934 0.99361 0.0
H857 H 0.50649 0.9636 0.91894 0.0
H858 H 0.44177 0.01224 0.91571 0.0
H859 H 0.50267 0.14571 0.9837 0.0
H860 H 0.54193 0.99766 0.94959 0.0
H861 H 0.63109 0.14177 0.12278 0.0
H862 H 0.46654 0.97627 0.90888 0.0
H863 H 0.58751 0.97885 0.03835 0.0
H864 H 0.59631 0.11221 0.08774 0.0
H865 H 0.62098 0.95643 0.05099 0.0
H866 H 0.4402 0.06118 0.93454 0.0
H867 H 0.66654 0.1229 0.13684 0.0
H868 H 0.68677 0.08266 0.13163 0.0
H869 H 0.4627 0.11094 0.95971 0.0
H870 H 0.68485 0.03295 0.11085 0.0
N871 N 0.61113 0.07573 0.0812 0.0
C872 C 0.6112 0.103 0.09339 0.0
C873 C 0.65109 0.10948 0.12134 0.0
C874 C 0.65098 0.08162 0.10906 0.0
C875 C 0.63112 0.12018 0.11346 0.0
C876 C 0.63044 0.06496 0.08887 0.0
H877 H 0.66048 0.98582 0.08088 0.0
N878 N 0.60882 0.02087 0.05896 0.0
C879 C 0.62378 0.97916 0.05819 0.0
C880 C 0.62945 0.03695 0.07706 0.0
C881 C 0.60499 0.99194 0.05095 0.0
C882 C 0.64604 0.99583 0.07503 0.0
C883 C 0.64882 0.0249 0.0853 0.0
O884 O 0.55888 1.00681 0.06751 0.0
O885 O 0.54891 0.03959 0.01421 0.0
O886 O 0.5425 0.09116 0.02141 0.0
O887 O 0.56056 0.08096 0.06144 0.0
O888 O 0.53875 1.00805 0.03471 0.0
O889 O 0.56333 0.05118 0.0905 0.0
O890 O 0.57143 0.10601 0.96934 0.0
O891 O 0.58527 0.07355 0.02324 0.0
O892 O 0.59417 0.02318 0.01605 0.0
O893 O 0.57596 0.03133 0.97491 0.0
O894 O 0.59799 0.09829 0.99685 0.0
O895 O 0.56805 0.06265 0.94424 0.0
C896 C 0.53116 0.01834 0.01479 0.0
C897 C 0.54367 0.01255 0.11155 0.0
C898 C 0.51545 0.0157 0.14586 0.0
C899 C 0.52895 0.02746 0.12649 0.0
C900 C 0.51723 0.98916 0.15085 0.0
C901 C 0.54547 0.98608 0.11638 0.0
C902 C 0.53232 0.97449 0.13618 0.0
C903 C 0.54697 0.09444 0.04853 0.0
C904 C 0.55539 0.02371 0.0895 0.0
C905 C 0.66973 0.04179 0.1045 0.0
C906 C 0.67074 0.07003 0.11644 0.0
C907 C 0.60507 0.09033 0.01858 0.0
C908 C 0.58313 0.10291 0.9235 0.0
C909 C 0.60044 0.09211 0.90878 0.0
C910 C 0.61066 0.10495 0.8881 0.0
C911 C 0.60318 0.12845 0.88186 0.0
C912 C 0.57587 0.12656 0.91758 0.0
C913 C 0.58582 0.1392 0.89661 0.0
C914 C 0.5898 0.01872 0.98889 0.0
C915 C 0.57398 0.09035 0.94603 0.0
H916 H 0.52738 0.04781 0.12258 0.0
H917 H 0.50734 0.98006 0.16643 0.0
H918 H 0.55689 0.97438 0.10478 0.0
H919 H 0.53376 0.95416 0.14011 0.0
H920 H 0.60611 0.0739 0.91357 0.0
H921 H 0.61098 0.13863 0.8658 0.0
H922 H 0.56257 0.13517 0.92914 0.0
H923 H 0.58022 0.15741 0.89191 0.0
Eu924 Eu 0.33042 0.31708 0.2826 0.0
C925 C 0.2296 0.22793 0.23609 0.0
C926 C 0.20901 0.21223 0.27392 0.0
C927 C 0.18332 0.21159 0.23179 0.0
C928 C 0.23145 0.22314 0.26267 0.0
C929 C 0.20547 0.2203 0.21985 0.0
C930 C 0.18509 0.20782 0.25888 0.0
C931 C 0.2266 0.22193 0.17944 0.0
N932 N 0.25124 0.23508 0.22451 0.0
C933 C 0.24977 0.22885 0.19631 0.0
C934 C 0.20428 0.21867 0.1914 0.0
Eu935 Eu 0.29048 0.24377 0.25313 0.0
N936 N 0.2549 0.22587 0.27623 0.0
C937 C 0.25646 0.21435 0.29917 0.0
C938 C 0.21112 0.2042 0.29924 0.0
C939 C 0.2349 0.20464 0.31157 0.0
H940 H 0.26641 0.22767 0.18665 0.0
H941 H 0.23659 0.19669 0.33025 0.0
H942 H 0.16781 0.19967 0.26736 0.0
H943 H 0.22593 0.21787 0.1572 0.0
H944 H 0.27409 0.21174 0.30801 0.0
H945 H 0.39309 0.32841 0.20257 0.0
H946 H 0.19438 0.19594 0.30855 0.0
H947 H 0.34488 0.33581 0.35114 0.0
H948 H 0.35306 0.31249 0.2206 0.0
H949 H 0.38238 0.36022 0.38611 0.0
H950 H 0.16475 0.20597 0.21968 0.0
H951 H 0.43274 0.35211 0.23455 0.0
H952 H 0.45431 0.37097 0.28317 0.0
H953 H 0.1862 0.21234 0.17823 0.0
H954 H 0.4515 0.3793 0.33298 0.0
N955 N 0.36911 0.32675 0.26299 0.0
C956 C 0.36985 0.32296 0.23514 0.0
C957 C 0.41505 0.3451 0.24275 0.0
C958 C 0.41427 0.34927 0.2712 0.0
C959 C 0.39273 0.33184 0.22465 0.0
C960 C 0.39074 0.33959 0.28083 0.0
H961 H 0.42488 0.37526 0.37148 0.0
N962 N 0.36626 0.33469 0.31728 0.0
C963 C 0.38467 0.35532 0.36448 0.0
C964 C 0.38926 0.34372 0.30882 0.0
C965 C 0.36355 0.34116 0.34467 0.0
C966 C 0.4086 0.36386 0.35614 0.0
C967 C 0.41111 0.35838 0.32802 0.0
O968 O 0.31888 0.3511 0.30772 0.0
O969 O 0.29009 0.28862 0.27017 0.0
O970 O 0.29105 0.27032 0.22004 0.0
O971 O 0.31559 0.3169 0.23897 0.0
O972 O 0.29998 0.31351 0.30996 0.0
O973 O 0.33536 0.35812 0.27033 0.0
O974 O 0.30014 0.218 0.21661 0.0
O975 O 0.32785 0.27517 0.2559 0.0
O976 O 0.33771 0.29 0.31288 0.0
O977 O 0.30194 0.25068 0.29983 0.0
O978 O 0.32883 0.23572 0.26303 0.0
O979 O 0.27689 0.19771 0.24453 0.0
C980 C 0.28161 0.29609 0.29247 0.0
C981 C 0.33612 0.39866 0.30509 0.0
C982 C 0.32722 0.44422 0.30943 0.0
C983 C 0.32469 0.41684 0.29435 0.0
C984 C 0.34264 0.45438 0.33498 0.0
C985 C 0.35202 0.40853 0.33048 0.0
C986 C 0.35558 0.43664 0.34518 0.0
C987 C 0.30155 0.297 0.21818 0.0
C988 C 0.32597 0.36873 0.29182 0.0
C989 C 0.43456 0.36794 0.31856 0.0
C990 C 0.43615 0.36328 0.2902 0.0
C991 C 0.34252 0.26034 0.26067 0.0
C992 C 0.29373 0.16803 0.21309 0.0
C993 C 0.30721 0.15836 0.23233 0.0
C994 C 0.31117 0.13123 0.22551 0.0
C995 C 0.30151 0.11373 0.19926 0.0
C996 C 0.28437 0.15076 0.18673 0.0
C997 C 0.28828 0.12364 0.17985 0.0
C998 C 0.32122 0.26768 0.31813 0.0
C999 C 0.28632 0.19423 0.22129 0.0
H1000 H 0.31166 0.40872 0.27519 0.0
H1001 H 0.34427 0.47555 0.34701 0.0
H1002 H 0.36076 0.39444 0.33935 0.0
H1003 H 0.36745 0.44423 0.36497 0.0
H1004 H 0.31397 0.17161 0.25288 0.0
H1005 H 0.30451 0.0927 0.19372 0.0
H1006 H 0.27346 0.15794 0.1718 0.0
H1007 H 0.28084 0.11021 0.15958 0.0
Eu1008 Eu 0.56424 0.582 0.0413 0.0
C1009 C 0.5852 0.49489 0.95303 0.0
C1010 C 0.54548 0.4809 0.92224 0.0
C1011 C 0.58415 0.47516 0.90415 0.0
C1012 C 0.55939 0.4925 0.94882 0.0
C1013 C 0.5977 0.48552 0.93082 0.0
C1014 C 0.55812 0.47292 0.89986 0.0
C1015 C 0.63527 0.49386 0.96342 0.0
N1016 N 0.59766 0.50422 0.97914 0.0
C1017 C 0.62201 0.50258 0.98479 0.0
C1018 C 0.62316 0.48562 0.93626 0.0
Eu1019 Eu 0.5733 0.51647 0.01436 0.0
N1020 N 0.54749 0.49938 0.97099 0.0
C1021 C 0.5216 0.49334 0.96831 0.0
C1022 C 0.51908 0.47636 0.91915 0.0
C1023 C 0.50705 0.48214 0.94238 0.0
H1024 H 0.63125 0.50847 0.00589 0.0
H1025 H 0.48658 0.47797 0.94036 0.0
H1026 H 0.54775 0.46406 0.87931 0.0
H1027 H 0.6547 0.49318 0.96795 0.0
H1028 H 0.51205 0.4973 0.98611 0.0
H1029 H 0.65978 0.62351 0.10241 0.0
H1030 H 0.50775 0.46749 0.8991 0.0
H1031 H 0.50617 0.57328 0.06434 0.0
H1032 H 0.63009 0.60023 0.06107 0.0
H1033 H 0.48916 0.58437 0.10732 0.0
H1034 H 0.59347 0.46799 0.88684 0.0
H1035 H 0.64431 0.63757 0.14668 0.0
H1036 H 0.60805 0.63969 0.1731 0.0
H1037 H 0.63337 0.47848 0.91977 0.0
H1038 H 0.56212 0.62857 0.17455 0.0
N1039 N 0.59652 0.60037 0.08048 0.0
C1040 C 0.62224 0.60616 0.07961 0.0
C1041 C 0.63077 0.62712 0.12834 0.0
C1042 C 0.60465 0.62115 0.12944 0.0
C1043 C 0.63956 0.6193 0.1034 0.0
C1044 C 0.58765 0.60723 0.10501 0.0
H1045 H 0.51805 0.60757 0.15057 0.0
N1046 N 0.54521 0.58617 0.08263 0.0
C1047 C 0.50951 0.58837 0.10743 0.0
C1048 C 0.56149 0.60014 0.10604 0.0
C1049 C 0.51947 0.58124 0.08298 0.0
C1050 C 0.52587 0.60165 0.13171 0.0
C1051 C 0.55211 0.60793 0.13125 0.0
O1052 O 0.5345 0.60344 0.03542 0.0
O1053 O 0.5518 0.54758 1.00173 0.0
O1054 O 0.60647 0.54869 1.00318 0.0
O1055 O 0.60063 0.59276 0.02296 0.0
O1056 O 0.56729 0.58876 0.99734 0.0
O1057 O 0.57292 0.62818 0.05277 0.0
O1058 O 0.58902 0.48536 0.02983 0.0
O1059 O 0.57487 0.54485 0.05655 0.0
O1060 O 0.526 0.54902 0.03266 0.0
O1061 O 0.53949 0.51012 0.03781 0.0
O1062 O 0.60684 0.53097 0.04865 0.0
O1063 O 0.55012 0.47237 0.00989 0.0
C1064 C 0.55609 0.56316 0.98344 0.0
C1065 C 0.54735 0.65124 0.03038 0.0
C1066 C 0.56539 0.68836 0.00649 0.0
C1067 C 0.56694 0.66434 0.0167 0.0
C1068 C 0.54393 0.69875 0.00923 0.0
C1069 C 0.52583 0.66149 0.03266 0.0
C1070 C 0.52409 0.68511 0.02199 0.0
C1071 C 0.61343 0.57688 0.00904 0.0
C1072 C 0.54991 0.62881 0.04479 0.0
C1073 C 0.56907 0.6223 0.15519 0.0
C1074 C 0.59522 0.62873 0.15433 0.0
C1075 C 0.59625 0.54294 0.06812 0.0
C1076 C 0.57054 0.43604 0.01373 0.0
C1077 C 0.56106 0.41645 0.02969 0.0
C1078 C 0.56553 0.38949 0.02485 0.0
C1079 C 0.57947 0.38209 1.00345 0.0
C1080 C 0.58412 0.42853 0.99213 0.0
C1081 C 0.58848 0.40149 0.98699 0.0
C1082 C 0.52171 0.5235 0.03818 0.0
C1083 C 0.56814 0.46489 0.02258 0.0
H1084 H 0.5837 0.65661 0.01487 0.0
H1085 H 0.54253 0.71736 1.0014 0.0
H1086 H 0.51064 0.65161 0.04328 0.0
H1087 H 0.50756 0.69314 0.02404 0.0
H1088 H 0.55106 0.42271 0.04678 0.0
H1089 H 0.58326 0.36137 0.99944 0.0
H1090 H 0.59171 0.44361 0.97973 0.0
H1091 H 0.59918 0.39571 0.9705 0.0
Eu1092 Eu 0.85427 0.32276 0.27029 0.0
C1093 C 0.77979 0.23634 0.32461 0.0
C1094 C 0.7722 0.18815 0.29751 0.0
C1095 C 0.76579 0.19559 0.34578 0.0
C1096 C 0.77937 0.21803 0.29968 0.0
C1097 C 0.77262 0.22526 0.34781 0.0
C1098 C 0.76557 0.17709 0.32069 0.0
C1099 C 0.77725 0.27349 0.37276 0.0
N1100 N 0.7862 0.26492 0.32595 0.0
C1101 C 0.78381 0.28341 0.34912 0.0
C1102 C 0.77187 0.24429 0.3722 0.0
Eu1103 Eu 0.79536 0.27983 0.28456 0.0
N1104 N 0.7861 0.22931 0.27761 0.0
C1105 C 0.78575 0.21168 0.25269 0.0
C1106 C 0.77184 0.17019 0.27208 0.0
C1107 C 0.77861 0.18203 0.2496 0.0
H1108 H 0.78722 0.3059 0.34936 0.0
H1109 H 0.77832 0.16831 0.22979 0.0
H1110 H 0.76007 0.15423 0.31937 0.0
H1111 H 0.77604 0.28831 0.39128 0.0
H1112 H 0.79079 0.21992 0.23481 0.0
H1113 H 0.85248 0.42993 0.32217 0.0
H1114 H 0.76634 0.14717 0.26958 0.0
H1115 H 0.87758 0.30468 0.21149 0.0
H1116 H 0.85107 0.37962 0.31854 0.0
H1117 H 0.88771 0.32368 0.16996 0.0
H1118 H 0.76032 0.18671 0.3634 0.0
H1119 H 0.85752 0.45125 0.28122 0.0
H1120 H 0.86499 0.44595 0.23179 0.0
H1121 H 0.76651 0.2366 0.39045 0.0
H1122 H 0.87414 0.41683 0.19007 0.0
N1123 N 0.85409 0.37137 0.2755 0.0
C1124 C 0.85272 0.38813 0.30025 0.0
C1125 C 0.85653 0.42883 0.27935 0.0
C1126 C 0.85913 0.41201 0.25437 0.0
C1127 C 0.85375 0.41693 0.30251 0.0
C1128 C 0.85795 0.38297 0.25307 0.0
H1129 H 0.88277 0.37131 0.16685 0.0
N1130 N 0.86422 0.33956 0.22991 0.0
C1131 C 0.88043 0.33579 0.18635 0.0
C1132 C 0.86306 0.36654 0.22953 0.0
C1133 C 0.87437 0.3249 0.20963 0.0
C1134 C 0.87759 0.36266 0.18467 0.0
C1135 C 0.86958 0.37877 0.20677 0.0
O1136 O 0.89204 0.31771 0.26747 0.0
O1137 O 0.83545 0.27859 0.2772 0.0
O1138 O 0.8247 0.28722 0.32146 0.0
O1139 O 0.84782 0.33042 0.31479 0.0
O1140 O 0.8689 0.28279 0.26183 0.0
O1141 O 0.88642 0.351 0.29991 0.0
O1142 O 0.76067 0.29254 0.29033 0.0
O1143 O 0.81222 0.32169 0.27144 0.0
O1144 O 0.83089 0.30575 0.2292 0.0
O1145 O 0.80031 0.26851 0.23947 0.0
O1146 O 0.79277 0.32487 0.30427 0.0
O1147 O 0.76008 0.25758 0.25657 0.0
C1148 C 0.85235 0.26473 0.2712 0.0
C1149 C 0.927 0.35712 0.28435 0.0
C1150 C 0.97264 0.36942 0.29634 0.0
C1151 C 0.94816 0.35684 0.30147 0.0
C1152 C 0.97596 0.38273 0.27389 0.0
C1153 C 0.93018 0.37081 0.26212 0.0
C1154 C 0.95468 0.3837 0.25701 0.0
C1155 C 0.84079 0.31251 0.33093 0.0
C1156 C 0.90263 0.33904 0.28807 0.0
C1157 C 0.86933 0.40715 0.20742 0.0
C1158 C 0.86414 0.42375 0.23118 0.0
C1159 C 0.80282 0.33946 0.28702 0.0
C1160 C 0.72233 0.25652 0.27701 0.0
C1161 C 0.7006 0.24934 0.25753 0.0
C1162 C 0.67681 0.23585 0.26417 0.0
C1163 C 0.67498 0.22954 0.29043 0.0
C1164 C 0.72012 0.25029 0.30324 0.0
C1165 C 0.69657 0.23676 0.30984 0.0
C1166 C 0.81258 0.28193 0.222 0.0
C1167 C 0.74673 0.27233 0.27038 0.0
H1168 H 0.9456 0.34554 0.31818 0.0
H1169 H 0.99486 0.39239 0.26957 0.0
H1170 H 0.91397 0.3709 0.2484 0.0
H1171 H 0.95717 0.39398 0.23968 0.0
H1172 H 0.70214 0.25458 0.23742 0.0
H1173 H 0.65674 0.21973 0.29621 0.0
H1174 H 0.73638 0.25639 0.31889 0.0
H1175 H 0.69498 0.23231 0.3302 0.0
Eu1176 Eu 0.07298 0.55183 0.55563 0.0
C1177 C 0.01209 0.56917 0.45629 0.0
C1178 C 0.98557 0.52058 0.43913 0.0
C1179 C 0.96933 0.56049 0.4326 0.0
C1180 C 0.00882 0.5399 0.45252 0.0
C1181 C 0.99244 0.57968 0.4459 0.0
C1182 C 0.96587 0.53104 0.42933 0.0
C1183 C 0.0202 0.62747 0.46121 0.0
N1184 N 0.03445 0.58735 0.46973 0.0
C1185 C 0.03908 0.61614 0.47115 0.0
C1186 C 0.99666 0.60919 0.4488 0.0
Eu1187 Eu 0.06555 0.56542 0.48467 0.0
N1188 N 0.02805 0.53025 0.46241 0.0
C1189 C 0.0254 0.5016 0.45929 0.0
C1190 C 0.98269 0.49125 0.43613 0.0
C1191 C 1.00272 0.48174 0.44622 0.0
H1192 H 0.05749 0.63045 0.48019 0.0
H1193 H 1.00065 0.4591 0.4441 0.0
H1194 H 0.94791 0.51652 0.41905 0.0
H1195 H 0.0239 0.65028 0.46294 0.0
H1196 H 0.04046 0.49379 0.46728 0.0
H1197 H 0.14404 0.65424 0.6039 0.0
H1198 H 0.9651 0.47579 0.42612 0.0
H1199 H 0.07567 0.48474 0.55782 0.0
H1200 H 0.10667 0.62406 0.57335 0.0
H1201 H 0.10326 0.46101 0.58017 0.0
H1202 H 0.95404 0.56822 0.42464 0.0
H1203 H 0.17122 0.63322 0.63064 0.0
H1204 H 0.18093 0.58989 0.64178 0.0
H1205 H 0.98207 0.61803 0.44103 0.0
H1206 H 0.17044 0.53771 0.63474 0.0
N1207 N 0.10999 0.58488 0.58381 0.0
C1208 C 0.117 0.61384 0.58557 0.0
C1209 C 0.1541 0.6195 0.61774 0.0
C1210 C 0.14766 0.58994 0.61525 0.0
C1211 C 0.1388 0.63143 0.6027 0.0
C1212 C 0.12515 0.57287 0.5981 0.0
H1213 H 0.14201 0.48978 0.61158 0.0
N1214 N 0.09892 0.52698 0.57563 0.0
C1215 C 0.10816 0.4841 0.58406 0.0
C1216 C 0.11945 0.54321 0.5939 0.0
C1217 C 0.09264 0.49774 0.57132 0.0
C1218 C 0.1299 0.50042 0.60188 0.0
C1219 C 0.13577 0.53025 0.60706 0.0
O1220 O 0.04543 0.5153 0.56416 0.0
O1221 O 0.04786 0.54099 0.51474 0.0
O1222 O 0.05469 0.59951 0.51401 0.0
O1223 O 0.06643 0.59575 0.55947 0.0
O1224 O 0.03352 0.55589 0.55063 0.0
O1225 O 0.05998 0.55481 0.59594 0.0
O1226 O 0.09396 0.58981 0.46434 0.0
O1227 O 0.09106 0.56573 0.52094 0.0
O1228 O 0.08495 0.518 0.52605 0.0
O1229 O 0.08163 0.52739 0.4817 0.0
O1230 O 0.10201 0.60014 0.50331 0.0
O1231 O 0.06937 0.54942 0.44126 0.0
C1232 C 0.02852 0.54641 0.52441 0.0
C1233 C 0.04045 0.51258 0.61058 0.0
C1234 C 0.01234 0.49531 0.64235 0.0
C1235 C 0.01678 0.50827 0.61996 0.0
C1236 C 0.0308 0.48381 0.65342 0.0
C1237 C 0.05964 0.50345 0.62345 0.0
C1238 C 0.05443 0.48794 0.64394 0.0
C1239 C 0.05808 0.60871 0.54105 0.0
C1240 C 0.0446 0.52895 0.58912 0.0
C1241 C 0.15769 0.54732 0.62457 0.0
C1242 C 0.16363 0.57704 0.62863 0.0
C1243 C 0.10928 0.587 0.52124 0.0
C1244 C 0.08701 0.58497 0.41669 0.0
C1245 C 0.09966 0.57621 0.39477 0.0
C1246 C 0.10337 0.59157 0.37377 0.0
C1247 C 0.09347 0.61525 0.37449 0.0
C1248 C 0.07757 0.60886 0.41727 0.0
C1249 C 0.08052 0.62371 0.3961 0.0
C1250 C 0.0881 0.51297 0.49961 0.0
C1251 C 0.08761 0.57191 0.44066 0.0
H1252 H 1.00257 0.51731 0.61153 0.0
H1253 H 0.02789 0.4741 0.6711 0.0
H1254 H 0.07876 0.50916 0.61876 0.0
H1255 H 0.06922 0.4807 0.65367 0.0
H1256 H 0.10748 0.55813 0.39466 0.0
H1257 H 0.09656 0.62789 0.35891 0.0
H1258 H 0.06893 0.61684 0.43453 0.0
H1259 H 0.07353 0.64239 0.39696 0.0
Eu1260 Eu 0.79037 0.80744 0.27313 0.0
C1261 C 0.87507 0.76518 0.32771 0.0
C1262 C 0.89486 0.80688 0.3641 0.0
C1263 C 0.89589 0.75986 0.37068 0.0
C1264 C 0.88115 0.79441 0.3375 0.0
C1265 C 0.88303 0.74767 0.34391 0.0
C1266 C 0.90173 0.7894 0.38079 0.0
C1267 C 0.86724 0.70773 0.30507 0.0
N1268 N 0.86259 0.75398 0.3018 0.0
C1269 C 0.85983 0.72595 0.28982 0.0
C1270 C 0.87853 0.71854 0.33241 0.0
Eu1271 Eu 0.84998 0.7858 0.27707 0.0
N1272 N 0.87423 0.81073 0.32086 0.0
C1273 C 0.88196 0.83995 0.32918 0.0
C1274 C 0.90165 0.83658 0.37302 0.0
C1275 C 0.89541 0.85318 0.35534 0.0
H1276 H 0.85138 0.71758 0.26851 0.0
H1277 H 0.90086 0.87624 0.36188 0.0
H1278 H 0.91205 0.7986 0.40131 0.0
H1279 H 0.86435 0.6854 0.29568 0.0
H1280 H 0.87728 0.85361 0.31644 0.0
H1281 H 0.73863 0.71652 0.18926 0.0
H1282 H 0.91207 0.84692 0.39331 0.0
H1283 H 0.78933 0.87569 0.28119 0.0
H1284 H 0.76242 0.73943 0.23456 0.0
H1285 H 0.77661 0.90771 0.25363 0.0
H1286 H 0.90191 0.7467 0.38352 0.0
H1287 H 0.72792 0.74561 0.15734 0.0
H1288 H 0.72846 0.79386 0.14875 0.0
H1289 H 0.88439 0.70442 0.34417 0.0
H1290 H 0.73892 0.84584 0.16609 0.0
N1291 N 0.76601 0.78222 0.22956 0.0
C1292 C 0.75796 0.75299 0.22158 0.0
C1293 C 0.73843 0.75607 0.17755 0.0
C1294 C 0.74559 0.78582 0.18612 0.0
C1295 C 0.74437 0.7396 0.19552 0.0
C1296 C 0.75939 0.79845 0.21264 0.0
H1297 H 0.75657 0.88837 0.20517 0.0
N1298 N 0.77799 0.8391 0.24812 0.0
C1299 C 0.77366 0.88534 0.24441 0.0
C1300 C 0.76561 0.82774 0.2222 0.0
C1301 C 0.78094 0.86722 0.25987 0.0
C1302 C 0.76236 0.87433 0.21708 0.0
C1303 C 0.75777 0.84514 0.2058 0.0
O1304 O 0.77273 0.82804 0.30592 0.0
O1305 O 0.82019 0.79853 0.30072 0.0
O1306 O 0.81994 0.74628 0.28334 0.0
O1307 O 0.7829 0.76086 0.27835 0.0
O1308 O 0.81137 0.83727 0.31236 0.0
O1309 O 0.7519 0.78688 0.28116 0.0
O1310 O 0.86895 0.76458 0.24602 0.0
O1311 O 0.82019 0.79486 0.24982 0.0
O1312 O 0.82057 0.84678 0.26646 0.0
O1313 O 0.85773 0.8325 0.27223 0.0
O1314 O 0.82964 0.75695 0.23661 0.0
O1315 O 0.88747 0.80777 0.26808 0.0
C1316 C 0.82388 0.82049 0.31993 0.0
C1317 C 0.72802 0.81648 0.3038 0.0
C1318 C 0.68865 0.8142 0.32471 0.0
C1319 C 0.71003 0.80382 0.31971 0.0
C1320 C 0.68589 0.83756 0.31358 0.0
C1321 C 0.72431 0.8392 0.2925 0.0
C1322 C 0.70344 0.84971 0.29747 0.0
C1323 C 0.79484 0.74117 0.28188 0.0
C1324 C 0.75168 0.80765 0.30146 0.0
C1325 C 0.74487 0.83278 0.17907 0.0
C1326 C 0.73887 0.80318 0.16921 0.0
C1327 C 0.81665 0.77366 0.22994 0.0
C1328 C 0.91374 0.77954 0.24923 0.0
C1329 C 0.93084 0.79093 0.23193 0.0
C1330 C 0.95393 0.78348 0.22999 0.0
C1331 C 0.95939 0.76421 0.24552 0.0
C1332 C 0.91992 0.7609 0.26489 0.0
C1333 C 0.94257 0.75319 0.2629 0.0
C1334 C 0.84575 0.85206 0.26835 0.0
C1335 C 0.88905 0.78614 0.24948 0.0
H1336 H 0.71288 0.78616 0.32833 0.0
H1337 H 0.67038 0.84694 0.31772 0.0
H1338 H 0.73782 0.84929 0.28036 0.0
H1339 H 0.70106 0.8677 0.28916 0.0
H1340 H 0.9261 0.80555 0.22004 0.0
H1341 H 0.97654 0.75727 0.24398 0.0
H1342 H 0.90715 0.75202 0.27838 0.0
H1343 H 0.94703 0.7384 0.2747 0.0
Eu1344 Eu 0.82651 0.28713 0.75135 0.0
C1345 C 0.79909 0.37659 0.83994 0.0
C1346 C 0.84095 0.40383 0.86341 0.0
C1347 C 0.80501 0.42361 0.86942 0.0
C1348 C 0.82462 0.37856 0.84651 0.0
C1349 C 0.78908 0.39922 0.85132 0.0
C1350 C 0.83091 0.426 0.8753 0.0
C1351 C 0.74808 0.37203 0.82647 0.0
N1352 N 0.78416 0.35285 0.82208 0.0
C1353 C 0.75873 0.35016 0.81578 0.0
C1354 C 0.76328 0.39665 0.84438 0.0
Eu1355 Eu 0.80181 0.31329 0.81421 0.0
N1356 N 0.83372 0.35643 0.83529 0.0
C1357 C 0.85939 0.35963 0.83786 0.0
C1358 C 0.867 0.40636 0.86742 0.0
C1359 C 0.8763 0.38445 0.85403 0.0
H1360 H 0.74603 0.33051 0.80373 0.0
H1361 H 0.89653 0.38663 0.8562 0.0
H1362 H 0.8431 0.44528 0.88877 0.0
H1363 H 0.72794 0.3695 0.82149 0.0
H1364 H 0.86724 0.34347 0.82723 0.0
H1365 H 0.74123 0.20395 0.69395 0.0
H1366 H 0.88015 0.42548 0.88012 0.0
H1367 H 0.88635 0.28243 0.76177 0.0
H1368 H 0.76321 0.2479 0.7263 0.0
H1369 H 0.9114 0.24915 0.74665 0.0
H1370 H 0.79754 0.44097 0.87863 0.0
H1371 H 0.76457 0.16983 0.67486 0.0
H1372 H 0.80529 0.15644 0.6735 0.0
H1373 H 0.75486 0.41342 0.85293 0.0
H1374 H 0.85104 0.16791 0.68891 0.0
N1375 N 0.80057 0.24179 0.72456 0.0
C1376 C 0.77467 0.23475 0.71747 0.0
C1377 C 0.77482 0.18984 0.68872 0.0
C1378 C 0.80091 0.19614 0.6969 0.0
C1379 C 0.76163 0.20909 0.69933 0.0
C1380 C 0.81344 0.22245 0.71523 0.0
H1381 H 0.89048 0.20197 0.71635 0.0
N1382 N 0.85074 0.25371 0.74229 0.0
C1383 C 0.89105 0.24284 0.74054 0.0
C1384 C 0.83913 0.22852 0.72448 0.0
C1385 C 0.87659 0.26155 0.74928 0.0
C1386 C 0.87919 0.21632 0.7234 0.0
C1387 C 0.85303 0.20899 0.71485 0.0
O1388 O 0.86277 0.31343 0.74471 0.0
O1389 O 0.82886 0.32507 0.78534 0.0
O1390 O 0.77463 0.31472 0.77537 0.0
O1391 O 0.78895 0.29288 0.73602 0.0
O1392 O 0.82255 0.32947 0.74498 0.0
O1393 O 0.83309 0.29116 0.70942 0.0
O1394 O 0.76453 0.29701 0.82625 0.0
O1395 O 0.79821 0.27694 0.77934 0.0
O1396 O 0.85044 0.2814 0.78955 0.0
O1397 O 0.8368 0.30036 0.8308 0.0
O1398 O 0.7974 0.2676 0.8182 0.0
O1399 O 0.79725 0.31859 0.85779 0.0
C1400 C 0.82561 0.34227 0.77049 0.0
C1401 C 0.8741 0.31499 0.69947 0.0
C1402 C 0.89034 0.34314 0.66661 0.0
C1403 C 0.87445 0.33786 0.68678 0.0
C1404 C 0.9072 0.32631 0.6606 0.0
C1405 C 0.89051 0.29788 0.69303 0.0
C1406 C 0.90733 0.30388 0.6739 0.0
C1407 C 0.77261 0.30534 0.74791 0.0
C1408 C 0.85542 0.3093 0.71829 0.0
C1409 C 0.84064 0.18308 0.69647 0.0
C1410 C 0.81464 0.17664 0.68756 0.0
C1411 C 0.79692 0.25743 0.79237 0.0
C1412 C 0.76073 0.29052 0.87166 0.0
C1413 C 0.76748 0.26622 0.87626 0.0
C1414 C 0.75479 0.25059 0.89406 0.0
C1415 C 0.73583 0.25968 0.90769 0.0
C1416 C 0.74184 0.29956 0.88532 0.0
C1417 C 0.72949 0.28421 0.9034 0.0
C1418 C 0.85239 0.28766 0.81713 0.0
C1419 C 0.7727 0.30687 0.85256 0.0
H1420 H 0.86152 0.35087 0.69182 0.0
H1421 H 0.91937 0.32958 0.64473 0.0
H1422 H 0.89011 0.27982 0.70234 0.0
H1423 H 0.91992 0.29058 0.66872 0.0
H1424 H 0.78221 0.2593 0.86591 0.0
H1425 H 0.72615 0.24794 0.92184 0.0
H1426 H 0.73662 0.31847 0.88193 0.0
H1427 H 0.71498 0.29128 0.91401 0.0
Eu1428 Eu 0.83848 0.83252 0.79038 0.0
C1429 C 0.73641 0.74174 0.73074 0.0
C1430 C 0.71105 0.73404 0.76765 0.0
C1431 C 0.69077 0.71949 0.72012 0.0
C1432 C 0.73481 0.74389 0.75851 0.0
C1433 C 0.71443 0.72903 0.71115 0.0
C1434 C 0.68907 0.72207 0.74834 0.0
C1435 C 0.74122 0.73239 0.67511 0.0
N1436 N 0.7597 0.75004 0.72274 0.0
C1437 C 0.76239 0.74425 0.6953 0.0
C1438 C 0.71706 0.72493 0.68306 0.0
Eu1439 Eu 0.79571 0.76264 0.75717 0.0
N1440 N 0.75661 0.75411 0.77648 0.0
C1441 C 0.7557 0.75501 0.80402 0.0
C1442 C 0.71017 0.73555 0.79585 0.0
C1443 C 0.73261 0.74618 0.81411 0.0
H1444 H 0.7811 0.74772 0.68901 0.0
H1445 H 0.73223 0.74733 0.83601 0.0
H1446 H 0.67077 0.71415 0.75499 0.0
H1447 H 0.74365 0.72815 0.65349 0.0
H1448 H 0.77256 0.76306 0.81877 0.0
H1449 H 0.88839 0.84312 0.69786 0.0
H1450 H 0.69234 0.7282 0.80367 0.0
H1451 H 0.8655 0.8426 0.8553 0.0
H1452 H 0.85392 0.82236 0.72161 0.0
H1453 H 0.90659 0.86637 0.88381 0.0
H1454 H 0.67377 0.70949 0.70539 0.0
H1455 H 0.92864 0.87486 0.72423 0.0
H1456 H 0.95545 0.89653 0.76984 0.0
H1457 H 0.7007 0.71503 0.66742 0.0
H1458 H 0.96096 0.90135 0.82013 0.0
N1459 N 0.87241 0.84416 0.76242 0.0
C1460 C 0.87049 0.83713 0.7341 0.0
C1461 C 0.91317 0.8662 0.73512 0.0
C1462 C 0.91616 0.87123 0.76388 0.0
C1463 C 0.89048 0.84841 0.72019 0.0
C1464 C 0.89541 0.85937 0.77709 0.0
H1465 H 0.94331 0.88917 0.86248 0.0
N1466 N 0.87919 0.84806 0.81726 0.0
C1467 C 0.9049 0.86463 0.86169 0.0
C1468 C 0.89891 0.86125 0.80532 0.0
C1469 C 0.88176 0.85027 0.84523 0.0
C1470 C 0.92547 0.87769 0.84962 0.0
C1471 C 0.92264 0.87623 0.82117 0.0
O1472 O 0.82712 0.8519 0.8293 0.0
O1473 O 0.79977 0.8031 0.78674 0.0
O1474 O 0.79381 0.79321 0.72805 0.0
O1475 O 0.82408 0.83718 0.74786 0.0
O1476 O 0.80167 0.84357 0.7804 0.0
O1477 O 0.85262 0.87786 0.80711 0.0
O1478 O 0.80113 0.72791 0.72637 0.0
O1479 O 0.83635 0.78752 0.77239 0.0
O1480 O 0.84159 0.80177 0.81869 0.0
O1481 O 0.80947 0.7596 0.80082 0.0
O1482 O 0.82741 0.76712 0.73119 0.0
O1483 O 0.79102 0.72018 0.7666 0.0
C1484 C 0.78656 0.81974 0.78275 0.0
C1485 C 0.82802 0.90071 0.83423 0.0
C1486 C 0.81272 0.93682 0.81747 0.0
C1487 C 0.81862 0.91081 0.81239 0.0
C1488 C 0.8148 0.95231 0.84459 0.0
C1489 C 0.82993 0.9159 0.86146 0.0
C1490 C 0.82305 0.94157 0.86661 0.0
C1491 C 0.80718 0.8195 0.72727 0.0
C1492 C 0.84003 0.87757 0.82825 0.0
C1493 C 0.94273 0.88947 0.80825 0.0
C1494 C 0.93953 0.88688 0.77965 0.0
C1495 C 0.84561 0.78053 0.75077 0.0
C1496 C 0.79448 0.67999 0.73224 0.0
C1497 C 0.80857 0.66809 0.74852 0.0
C1498 C 0.81165 0.64114 0.73849 0.0
C1499 C 0.79921 0.6251 0.71252 0.0
C1500 C 0.78247 0.66455 0.70588 0.0
C1501 C 0.78452 0.63686 0.69625 0.0
C1502 C 0.8272 0.77654 0.82086 0.0
C1503 C 0.79535 0.70973 0.74194 0.0
H1504 H 0.81757 0.89952 0.79122 0.0
H1505 H 0.81031 0.97266 0.8486 0.0
H1506 H 0.83764 0.90853 0.87854 0.0
H1507 H 0.8249 0.95356 0.88758 0.0
H1508 H 0.81821 0.68045 0.76867 0.0
H1509 H 0.80143 0.60404 0.70465 0.0
H1510 H 0.77181 0.67394 0.6928 0.0
H1511 H 0.77523 0.62482 0.67598 0.0
Eu1512 Eu 0.54245 0.528 0.5085 0.0
C1513 C 0.62646 0.63464 0.576 0.0
C1514 C 0.6379 0.66241 0.54151 0.0
C1515 C 0.64978 0.685 0.59008 0.0
C1516 C 0.62612 0.63629 0.5486 0.0
C1517 C 0.63853 0.65896 0.59707 0.0
C1518 C 0.64952 0.6867 0.56236 0.0
C1519 C 0.63037 0.62937 0.63041 0.0
N1520 N 0.61645 0.60893 0.58211 0.0
C1521 C 0.61934 0.60581 0.60879 0.0
C1522 C 0.63988 0.65615 0.62454 0.0
Eu1523 Eu 0.60165 0.56861 0.54478 0.0
N1524 N 0.61533 0.61221 0.52888 0.0
C1525 C 0.6158 0.61326 0.50158 0.0
C1526 C 0.63836 0.66325 0.51367 0.0
C1527 C 0.62726 0.63854 0.49365 0.0
H1528 H 0.61402 0.5848 0.61329 0.0
H1529 H 0.62734 0.63892 0.47198 0.0
H1530 H 0.65872 0.7068 0.55723 0.0
H1531 H 0.6323 0.62665 0.65147 0.0
H1532 H 0.60671 0.59506 0.48531 0.0
H1533 H 0.52066 0.46189 0.58591 0.0
H1534 H 0.64734 0.68279 0.50743 0.0
H1535 H 0.5339 0.50677 0.43913 0.0
H1536 H 0.53751 0.50539 0.57031 0.0
H1537 H 0.51705 0.46272 0.40343 0.0
H1538 H 0.65924 0.70379 0.60596 0.0
H1539 H 0.50337 0.41606 0.55231 0.0
H1540 H 0.4929 0.38944 0.50334 0.0
H1541 H 0.64906 0.67428 0.64124 0.0
H1542 H 0.49232 0.38952 0.454 0.0
N1543 N 0.52999 0.48589 0.52711 0.0
C1544 C 0.52967 0.48625 0.55474 0.0
C1545 C 0.5108 0.43542 0.54503 0.0
C1546 C 0.51083 0.43487 0.51689 0.0
C1547 C 0.52038 0.46121 0.56402 0.0
C1548 C 0.52083 0.46069 0.50839 0.0
H1549 H 0.50147 0.41647 0.41676 0.0
N1550 N 0.53016 0.48571 0.47287 0.0
C1551 C 0.51828 0.46172 0.42502 0.0
C1552 C 0.5209 0.46062 0.48057 0.0
C1553 C 0.52814 0.48662 0.44543 0.0
C1554 C 0.50948 0.43571 0.43262 0.0
C1555 C 0.51042 0.43491 0.4606 0.0
O1556 O 0.51459 0.53296 0.47795 0.0
O1557 O 0.56438 0.57363 0.52718 0.0
O1558 O 0.57428 0.57439 0.57724 0.0
O1559 O 0.53519 0.54534 0.55438 0.0
O1560 O 0.55074 0.56432 0.48581 0.0
O1561 O 0.50331 0.52553 0.51792 0.0
O1562 O 0.62947 0.55845 0.57184 0.0
O1563 O 0.57945 0.52292 0.52616 0.0
O1564 O 0.57053 0.52234 0.47564 0.0
O1565 O 0.60798 0.55379 0.49917 0.0
O1566 O 0.59303 0.53288 0.56788 0.0
O1567 O 0.63932 0.56945 0.53299 0.0
C1568 C 0.56122 0.58494 0.5066 0.0
C1569 C 0.47091 0.52838 0.48275 0.0
C1570 C 0.43222 0.54249 0.48871 0.0
C1571 C 0.45672 0.54286 0.49923 0.0
C1572 C 0.42189 0.52743 0.4617 0.0
C1573 C 0.46067 0.51367 0.45563 0.0
C1574 C 0.43615 0.51316 0.4452 0.0
C1575 C 0.54965 0.56222 0.5775 0.0
C1576 C 0.49668 0.5295 0.49353 0.0
C1577 C 0.50052 0.40935 0.46905 0.0
C1578 C 0.50079 0.40931 0.49712 0.0
C1579 C 0.58276 0.51212 0.54709 0.0
C1580 C 0.67303 0.57405 0.56793 0.0
C1581 C 0.69003 0.55991 0.55706 0.0
C1582 C 0.71505 0.56713 0.56965 0.0
C1583 C 0.72348 0.58962 0.59296 0.0
C1584 C 0.68116 0.59645 0.59137 0.0
C1585 C 0.70647 0.60428 0.60376 0.0
C1586 C 0.59487 0.53622 0.47598 0.0
C1587 C 0.6467 0.56219 0.55546 0.0
H1588 H 0.46477 0.55457 0.52006 0.0
H1589 H 0.40297 0.52714 0.45328 0.0
H1590 H 0.47161 0.50257 0.44261 0.0
H1591 H 0.42825 0.50182 0.42429 0.0
H1592 H 0.68354 0.54256 0.53893 0.0
H1593 H 0.7429 0.59538 0.60299 0.0
H1594 H 0.66812 0.60753 0.60022 0.0
H1595 H 0.7128 0.6214 0.62196 0.0
Eu1596 Eu 0.09958 0.54767 0.01356 0.0
C1597 C 1.00202 0.49647 0.06612 0.0
C1598 C 0.97668 0.45756 0.02957 0.0
C1599 C 0.97166 0.45653 0.07747 0.0
C1600 C 0.99529 0.48406 0.03824 0.0
C1601 C 0.98997 0.48305 0.086 0.0
C1602 C 0.96508 0.44379 0.04933 0.0
C1603 C 0.01396 0.52382 0.12127 0.0
N1604 N 0.01989 0.52201 0.07381 0.0
C1605 C 0.0253 0.53633 0.10079 0.0
C1606 C 0.99639 0.49693 0.11387 0.0
Eu1607 Eu 0.03741 0.54234 0.03808 0.0
N1608 N 0.00686 0.49787 0.01959 0.0
C1609 C 1.0 0.48669 0.9919 0.0
C1610 C 0.97014 0.44573 1.00129 0.0
C1611 C 0.98178 0.46044 0.98239 0.0
H1612 H 0.03855 0.55736 0.1064 0.0
H1613 H 0.97671 0.45158 0.96045 0.0
H1614 H 0.95079 0.42341 0.04304 0.0
H1615 H 0.01864 0.53499 0.14269 0.0
H1616 H 0.00865 0.49754 0.97681 0.0
H1617 H 0.15645 0.63921 0.0925 0.0
H1618 H 0.95598 0.4254 0.99383 0.0
H1619 H 0.1024 0.53328 0.94553 0.0
H1620 H 0.12886 0.59044 0.0749 0.0
H1621 H 0.11964 0.55872 0.90985 0.0
H1622 H 0.96229 0.44584 0.09245 0.0
H1623 H 0.17181 0.66974 0.05997 0.0
H1624 H 0.17434 0.67482 0.01091 0.0
H1625 H 0.98753 0.48732 0.12976 0.0
H1626 H 0.16433 0.65299 0.96124 0.0
N1627 N 0.12807 0.59319 0.03264 0.0
C1628 C 0.13549 0.60331 0.06036 0.0
C1629 C 0.15973 0.64823 0.05206 0.0
C1630 C 0.15318 0.63718 0.02363 0.0
C1631 C 0.15114 0.63105 0.07048 0.0
C1632 C 0.13726 0.60912 0.01442 0.0
H1633 H 0.14431 0.60958 0.92339 0.0
N1634 N 0.11657 0.5697 0.97841 0.0
C1635 C 0.1229 0.56981 0.93129 0.0
C1636 C 0.13137 0.597 0.98647 0.0
C1637 C 0.11319 0.55549 0.95144 0.0
C1638 C 0.1368 0.59852 0.93902 0.0
C1639 C 0.14155 0.61236 0.96695 0.0
O1640 O 0.11535 0.51397 0.99406 0.0
O1641 O 0.0636 0.51778 0.01993 0.0
O1642 O 0.05811 0.52258 0.06551 0.0
O1643 O 0.09951 0.54384 0.05829 0.0
O1644 O 0.07705 0.50676 0.98335 0.0
O1645 O 0.13451 0.54172 0.03302 0.0
O1646 O 0.02256 0.57679 0.05749 0.0
O1647 O 0.07312 0.57217 0.03092 0.0
O1648 O 0.07741 0.56339 0.98345 0.0
O1649 O 0.03665 0.54326 0.99323 0.0
O1650 O 0.06079 0.58328 0.06811 0.0
O1651 O 1.00305 0.54934 0.01838 0.0
C1652 C 0.06003 0.4979 0.99861 0.0
C1653 C 0.15924 0.52031 1.0032 0.0
C1654 C 0.19519 0.49984 1.00149 0.0
C1655 C 0.17264 0.50226 0.01203 0.0
C1656 C 0.20404 0.51565 0.98182 0.0
C1657 C 0.16848 0.53623 0.98388 0.0
C1658 C 0.19077 0.53378 0.97317 0.0
C1659 C 0.0829 0.52856 0.07127 0.0
C1660 C 0.13485 0.52059 0.01306 0.0
C1661 C 0.1566 0.64069 0.97595 0.0
C1662 C 0.16234 0.65311 1.00423 0.0
C1663 C 0.0772 0.59209 0.05222 0.0
C1664 C 0.97859 0.57077 0.04864 0.0
C1665 C 0.96235 0.58299 0.03494 0.0
C1666 C 0.94042 0.58698 0.04585 0.0
C1667 C 0.93456 0.57821 0.07037 0.0
C1668 C 0.97235 0.56167 0.07292 0.0
C1669 C 0.95039 0.56535 0.08367 0.0
C1670 C 0.05254 0.55605 0.97809 0.0
C1671 C 1.00292 0.57032 0.03863 0.0
H1672 H 0.16549 0.49016 0.02712 0.0
H1673 H 0.22109 0.51377 0.97289 0.0
H1674 H 0.15841 0.55025 0.97685 0.0
H1675 H 0.19768 0.5458 0.95799 0.0
H1676 H 0.9673 0.59042 0.01641 0.0
H1677 H 0.91772 0.58122 0.07912 0.0
H1678 H 0.98463 0.55235 0.08391 0.0
H1679 H 0.94582 0.55861 0.10256 0.0
H1680 H 0.04708 0.18604 0.94848 0.0
H1681 H 0.014 0.20669 0.02277 0.0
H1682 H 0.02564 0.16785 0.03975 0.0
H1683 H 0.04392 0.12551 0.03309 0.0
H1684 H 0.07385 0.10342 0.957 0.0
H1685 H 0.06543 0.14461 0.94204 0.0
C1686 C 0.04246 0.18225 0.96846 0.0
C1687 C 0.02949 0.19992 0.98405 0.0
C1688 C 0.04907 0.15928 0.97826 0.0
C1689 C 0.02383 0.19392 0.00993 0.0
C1690 C 0.03059 0.17149 0.01984 0.0
C1691 C 0.0493 0.13017 0.01362 0.0
C1692 C 0.06069 0.11149 0.99684 0.0
C1693 C 0.0432 0.15376 1.00425 0.0
C1694 C 0.06599 0.11756 0.97097 0.0
C1695 C 0.06087 0.14115 0.96213 0.0
H1696 H 0.19381 0.85622 0.18758 0.0
H1697 H 0.19809 0.78928 0.12033 0.0
H1698 H 0.23086 0.77779 0.14871 0.0
H1699 H 0.2587 0.78641 0.19297 0.0
H1700 H 0.25765 0.85651 0.25839 0.0
H1701 H 0.22387 0.86694 0.23092 0.0
C1702 C 0.2021 0.83933 0.17904 0.0
C1703 C 0.19349 0.82392 0.15153 0.0
C1704 C 0.22162 0.83314 0.19543 0.0
C1705 C 0.20454 0.80198 0.1411 0.0
C1706 C 0.22327 0.79521 0.15745 0.0
C1707 C 0.25113 0.80399 0.2013 0.0
C1708 C 0.2602 0.81975 0.22863 0.0
C1709 C 0.23208 0.81065 0.18468 0.0
C1710 C 0.25023 0.84278 0.23841 0.0
C1711 C 0.23107 0.84916 0.22233 0.0
H1712 H 0.51 0.86729 0.45995 0.0
H1713 H 0.55901 0.85417 0.52538 0.0
H1714 H 0.57358 0.90588 0.54408 0.0
H1715 H 0.57328 0.95501 0.54147 0.0
H1716 H 0.5277 0.96915 0.47394 0.0
H1717 H 0.50983 0.91734 0.45735 0.0
C1718 C 0.5238 0.87582 0.47838 0.0
C1719 C 0.53339 0.85676 0.49131 0.0
C1720 C 0.53211 0.90585 0.48909 0.0
C1721 C 0.55125 0.86821 0.51513 0.0
C1722 C 0.55955 0.89783 0.52584 0.0
C1723 C 0.55903 0.94679 0.52339 0.0
C1724 C 0.55075 0.96629 0.50994 0.0
C1725 C 0.55014 0.91688 0.51305 0.0
C1726 C 0.53307 0.955 0.48591 0.0
C1727 C 0.52341 0.9252 0.47597 0.0
H1728 H 0.55897 0.35364 0.70278 0.0
H1729 H 0.52847 0.29162 0.62654 0.0
H1730 H 0.48827 0.27612 0.6443 0.0
H1731 H 0.46345 0.27651 0.68327 0.0
H1732 H 0.49403 0.33679 0.76016 0.0
H1733 H 0.53248 0.35686 0.74049 0.0
C1734 C 0.54341 0.33696 0.68998 0.0
C1735 C 0.54683 0.32348 0.66358 0.0
C1736 C 0.52042 0.32778 0.70052 0.0
C1737 C 0.52648 0.30197 0.64716 0.0
C1738 C 0.50345 0.29314 0.65724 0.0
C1739 C 0.47834 0.2945 0.69538 0.0
C1740 C 0.4761 0.30545 0.72291 0.0
C1741 C 0.50045 0.30535 0.68413 0.0
C1742 C 0.49543 0.32844 0.73876 0.0
C1743 C 0.51742 0.33968 0.72759 0.0
H1744 H 0.99622 0.78097 0.56832 0.0
H1745 H 0.02294 0.83976 0.64707 0.0
H1746 H 0.04475 0.87657 0.6239 0.0
H1747 H 0.05845 0.89082 0.58126 0.0
H1748 H 0.03376 0.8304 0.50325 0.0
H1749 H 0.00895 0.79533 0.52613 0.0
C1750 C 0.00648 0.80197 0.58044 0.0
C1751 C 0.00786 0.80768 0.60936 0.0
C1752 C 0.01958 0.82259 0.56709 0.0
C1753 C 0.02157 0.83487 0.62475 0.0
C1754 C 0.0341 0.85587 0.61153 0.0
C1755 C 0.04745 0.87002 0.56934 0.0
C1756 C 0.04798 0.863 0.54067 0.0
C1757 C 0.03361 0.84978 0.58273 0.0
C1758 C 0.03383 0.83602 0.52539 0.0
C1759 C 0.01959 0.81606 0.53843 0.0
H1760 H 0.5485 0.85718 0.89129 0.0
H1761 H 0.58982 0.83191 0.82499 0.0
H1762 H 0.55682 0.83665 0.79129 0.0
H1763 H 0.51603 0.84815 0.78124 0.0
H1764 H 0.47638 0.87428 0.84883 0.0
H1765 H 0.50937 0.86937 0.88176 0.0
C1766 C 0.55039 0.85268 0.86947 0.0
C1767 C 0.5715 0.84427 0.86058 0.0
C1768 C 0.5318 0.85586 0.85058 0.0
C1769 C 0.57355 0.83824 0.83225 0.0
C1770 C 0.55483 0.84116 0.81306 0.0
C1771 C 0.51495 0.85321 0.80322 0.0
C1772 C 0.49394 0.86155 0.81273 0.0
C1773 C 0.53394 0.85015 0.82207 0.0
C1774 C 0.4924 0.86769 0.84116 0.0
C1775 C 0.51116 0.86483 0.85994 0.0
H1776 H 0.48278 0.14401 0.13351 0.0
H1777 H 0.47834 0.19741 0.07518 0.0
H1778 H 0.499 0.16912 0.04331 0.0
H1779 H 0.52565 0.13589 0.03698 0.0
H1780 H 0.53403 0.08714 0.09865 0.0
H1781 H 0.50609 0.10857 0.12545 0.0
C1782 C 0.48543 0.14887 0.1134 0.0
C1783 C 0.47924 0.17283 0.10673 0.0
C1784 C 0.49939 0.13447 0.09661 0.0
C1785 C 0.48296 0.17897 0.08068 0.0
C1786 C 0.49525 0.16322 0.06278 0.0
C1787 C 0.52098 0.12953 0.0559 0.0
C1788 C 0.53192 0.10986 0.0656 0.0
C1789 C 0.50486 0.14207 0.07133 0.0
C1790 C 0.52626 0.10256 0.0908 0.0
C1791 C 0.50992 0.11447 0.106 0.0
H1792 H 0.17975 0.30771 0.33121 0.0
H1793 H 0.21444 0.39577 0.32962 0.0
H1794 H 0.24699 0.38121 0.30363 0.0
H1795 H 0.26861 0.34384 0.28763 0.0
H1796 H 0.2418 0.26284 0.30919 0.0
H1797 H 0.20198 0.2725 0.31855 0.0
C1798 C 0.19422 0.32384 0.32497 0.0
C1799 C 0.19488 0.35275 0.33256 0.0
C1800 C 0.2137 0.31571 0.31229 0.0
C1801 C 0.21357 0.3733 0.32398 0.0
C1802 C 0.2322 0.36498 0.30926 0.0
C1803 C 0.25352 0.3281 0.29347 0.0
C1804 C 0.25644 0.30072 0.294 0.0
C1805 C 0.23289 0.33628 0.30414 0.0
C1806 C 0.23808 0.2816 0.30407 0.0
C1807 C 0.21592 0.28804 0.31101 0.0
H1808 H 0.03602 0.07293 0.20783 0.0
H1809 H 0.95977 0.07096 0.17757 0.0
H1810 H 0.97125 0.06756 0.13037 0.0
H1811 H 1.0033 0.06333 0.09605 0.0
H1812 H 0.07991 0.06872 0.12882 0.0
H1813 H 0.06812 0.07271 0.17515 0.0
C1814 C 0.0218 0.07221 0.19112 0.0
C1815 C 0.99678 0.07251 0.19732 0.0
C1816 C 0.02876 0.07071 0.16364 0.0
C1817 C 0.97916 0.07133 0.17447 0.0
C1818 C 0.98579 0.0691 0.14706 0.0
C1819 C 0.01758 0.06558 0.11326 0.0
C1820 C 0.04305 0.06594 0.1078 0.0
C1821 C 0.01057 0.06848 0.14106 0.0
C1822 C 0.06058 0.06891 0.13129 0.0
C1823 C 0.05368 0.07099 0.15827 0.0
H1824 H 0.30833 0.6987 0.47109 0.0
H1825 H 0.23179 0.64307 0.45423 0.0
H1826 H 0.22112 0.6674 0.41899 0.0
H1827 H 0.2309 0.70969 0.39984 0.0
H1828 H 0.30595 0.76811 0.41856 0.0
H1829 H 0.32032 0.73684 0.44519 0.0
C1830 C 0.28964 0.69141 0.45901 0.0
C1831 C 0.27071 0.66968 0.46551 0.0
C1832 C 0.28333 0.70609 0.43927 0.0
C1833 C 0.24653 0.66017 0.44981 0.0
C1834 C 0.24037 0.67404 0.42967 0.0
C1835 C 0.2505 0.71523 0.40941 0.0
C1836 C 0.26714 0.74131 0.40828 0.0
C1837 C 0.25819 0.6979 0.42535 0.0
C1838 C 0.29274 0.74816 0.41976 0.0
C1839 C 0.30088 0.73044 0.43508 0.0
H1840 H 0.62408 0.01555 0.68607 0.0
H1841 H 0.69208 0.03596 0.64717 0.0
H1842 H 0.66709 0.03693 0.60513 0.0
H1843 H 0.62766 0.03938 0.58287 0.0
H1844 H 0.55872 0.01816 0.61949 0.0
H1845 H 0.58224 1.00902 0.6591 0.0
C1846 C 0.63312 0.01907 0.66793 0.0
C1847 C 0.65963 0.02567 0.66938 0.0
C1848 C 0.61867 0.01983 0.64388 0.0
C1849 C 0.67155 0.03038 0.64613 0.0
C1850 C 0.65737 0.03129 0.62226 0.0
C1851 C 0.61767 0.03262 0.59939 0.0
C1852 C 0.59187 0.03095 0.59922 0.0
C1853 C 0.63118 0.02727 0.62148 0.0
C1854 C 0.57884 0.02074 0.61993 0.0
C1855 C 0.59227 0.0154 0.64243 0.0
H1856 H 0.33412 0.30471 0.94518 0.0
H1857 H 0.33027 0.3922 0.95826 0.0
H1858 H 0.32761 0.38995 0.90896 0.0
H1859 H 0.32546 0.36343 0.86198 0.0
H1860 H 0.3255 0.27492 0.84708 0.0
H1861 H 0.33099 0.27734 0.89698 0.0
C1862 C 0.33245 0.32314 0.93715 0.0
C1863 C 0.33207 0.34846 0.9555 0.0
C1864 C 0.33053 0.32165 0.90843 0.0
C1865 C 0.3301 0.37223 0.94473 0.0
C1866 C 0.3288 0.37111 0.91648 0.0
C1867 C 0.32682 0.34471 0.86969 0.0
C1868 C 0.32558 0.31925 0.85097 0.0
C1869 C 0.32891 0.34598 0.89817 0.0
C1870 C 0.32701 0.295 0.86115 0.0
C1871 C 0.32989 0.29632 0.88967 0.0
H1872 H 0.03131 0.05383 0.35445 0.0
H1873 H 0.9689 0.08744 0.37769 0.0
H1874 H 0.97901 0.0828 0.42535 0.0
H1875 H 0.00482 0.06785 0.46124 0.0
H1876 H 0.06923 0.03792 0.43882 0.0
H1877 H 0.05879 0.04177 0.39101 0.0
C1878 C 0.01986 0.06051 0.36981 0.0
C1879 C 0.99904 0.07129 0.36133 0.0
C1880 C 0.02598 0.05782 0.39784 0.0
C1881 C 0.98497 0.07943 0.38255 0.0
C1882 C 0.99077 0.07652 0.41016 0.0
C1883 C 0.01673 0.062 0.44603 0.0
C1884 C 0.03765 0.05146 0.45454 0.0
C1885 C 0.01107 0.06549 0.41819 0.0
C1886 C 0.05266 0.04498 0.43374 0.0
C1887 C 0.04675 0.04759 0.40607 0.0
H1888 H 0.31384 0.69144 0.62171 0.0
H1889 H 0.26238 0.73169 0.58557 0.0
H1890 H 0.27093 0.76942 0.62738 0.0
H1891 H 0.28855 0.78686 0.67654 0.0
H1892 H 0.33359 0.74039 0.71366 0.0
H1893 H 0.3328 0.70988 0.66948 0.0
C1894 C 0.30502 0.70887 0.62288 0.0
C1895 C 0.2875 0.70896 0.60109 0.0
C1896 C 0.30892 0.72941 0.6473 0.0
C1897 C 0.27581 0.7313 0.60257 0.0
C1898 C 0.28065 0.75279 0.62636 0.0
C1899 C 0.29849 0.77036 0.67457 0.0
C1900 C 0.31144 0.76607 0.69794 0.0
C1901 C 0.29645 0.75145 0.64924 0.0
C1902 C 0.32397 0.74445 0.69575 0.0
C1903 C 0.32335 0.72675 0.67049 0.0
H1904 H 0.70319 0.07255 0.83671 0.0
H1905 H 0.65485 0.06865 0.76263 0.0
H1906 H 0.62101 0.07632 0.78924 0.0
H1907 H 0.60695 0.08925 0.8335 0.0
H1908 H 0.65423 0.09431 0.9086 0.0
H1909 H 0.68655 0.08032 0.88187 0.0
C1910 C 0.68503 0.0729 0.82664 0.0
C1911 C 0.6812 0.07018 0.79803 0.0
C1912 C 0.66566 0.07767 0.84218 0.0
C1913 C 0.65785 0.07062 0.78476 0.0
C1914 C 0.6386 0.07511 0.7999 0.0
C1915 C 0.62434 0.08718 0.84391 0.0
C1916 C 0.6288 0.09352 0.87264 0.0
C1917 C 0.6426 0.0795 0.8286 0.0
C1918 C 0.65082 0.08991 0.88625 0.0
C1919 C 0.66924 0.08202 0.87106 0.0
H1920 H 0.30396 0.304 0.0932 0.0
H1921 H 0.33891 0.39278 0.13026 0.0
H1922 H 0.33162 0.38372 0.17607 0.0
H1923 H 0.31817 0.34959 0.20574 0.0
H1924 H 0.28324 0.26096 0.16753 0.0
H1925 H 0.28646 0.27112 0.12238 0.0
C1926 C 0.30955 0.32139 0.1113 0.0
C1927 C 0.32194 0.34892 0.10851 0.0
C1928 C 0.30503 0.31611 0.13746 0.0
C1929 C 0.32909 0.37141 0.13199 0.0
C1930 C 0.32505 0.36621 0.15818 0.0
C1931 C 0.31088 0.33251 0.18758 0.0
C1932 C 0.3002 0.30435 0.19051 0.0
C1933 C 0.31342 0.33849 0.16122 0.0
C1934 C 0.29099 0.28277 0.16649 0.0
C1935 C 0.29319 0.28854 0.14034 0.0
H1936 H 0.2671 0.96833 0.01618 0.0
H1937 H 0.31683 0.04027 0.99315 0.0
H1938 H 0.29085 0.07099 0.0119 0.0
H1939 H 0.25658 0.07815 0.03918 0.0
H1940 H 0.20722 1.00608 0.06228 0.0
H1941 H 0.23082 0.97445 0.03963 0.0
C1942 C 0.27183 0.99061 0.01474 0.0
C1943 C 0.29377 1.00228 1.00367 0.0
C1944 C 0.25743 1.00815 0.02632 0.0
C1945 C 0.29981 0.03094 1.00148 0.0
C1946 C 0.28525 0.04856 0.0126 0.0
C1947 C 0.2514 0.0556 0.03952 0.0
C1948 C 0.23096 0.04437 0.05291 0.0
C1949 C 0.26464 0.0376 0.026 0.0
C1950 C 0.22348 0.01503 0.05258 0.0
C1951 C 0.2367 0.997 0.03942 0.0
H1952 H 0.70193 0.67149 0.98393 0.0
H1953 H 0.74681 0.61978 0.01217 0.0
H1954 H 0.70793 0.58269 0.01337 0.0
H1955 H 0.66079 0.56793 0.01182 0.0
H1956 H 0.61721 0.62169 0.98517 0.0
H1957 H 0.65582 0.6547 0.97748 0.0
C1958 C 0.70326 0.65196 0.99003 0.0
C1959 C 0.72717 0.64859 0.99831 0.0
C1960 C 0.68095 0.63106 0.991 0.0
C1961 C 0.72858 0.62294 1.00576 0.0
C1962 C 0.70634 0.60178 0.00657 0.0
C1963 C 0.65984 0.58649 1.00364 0.0
C1964 C 0.63631 0.59256 0.99918 0.0
C1965 C 0.68236 0.60597 0.99998 0.0
C1966 C 0.6352 0.61678 0.98889 0.0
C1967 C 0.65725 0.63571 0.98459 0.0
H1968 H 0.71901 0.39774 0.24048 0.0
H1969 H 0.75796 0.46895 0.30667 0.0
H1970 H 0.78828 0.44228 0.31815 0.0
H1971 H 0.80267 0.3965 0.31162 0.0
H1972 H 0.76582 0.32787 0.24236 0.0
H1973 H 0.7361 0.35486 0.23088 0.0
C1974 C 0.73418 0.40789 0.2574 0.0
C1975 C 0.73531 0.43613 0.2726 0.0
C1976 C 0.75226 0.39233 0.26365 0.0
C1977 C 0.75577 0.44781 0.29429 0.0
C1978 C 0.77334 0.43223 0.30098 0.0
C1979 C 0.78892 0.38775 0.29324 0.0
C1980 C 0.78788 0.35981 0.27735 0.0
C1981 C 0.7718 0.40424 0.28604 0.0
C1982 C 0.76841 0.34918 0.25462 0.0
C1983 C 0.75099 0.36477 0.24814 0.0
H1984 H 0.91127 0.51133 0.51187 0.0
H1985 H 0.92577 0.43348 0.52712 0.0
H1986 H 0.97067 0.45195 0.52328 0.0
H1987 H 0.00607 0.49136 0.51876 0.0
H1988 H 0.99258 0.57111 0.50916 0.0
H1989 H 0.94671 0.55042 0.50613 0.0
C1990 C 0.92428 0.49842 0.51426 0.0
C1991 C 0.91535 0.47108 0.5196 0.0
C1992 C 0.95002 0.50923 0.51222 0.0
C1993 C 0.93227 0.4545 0.52271 0.0
C1994 C 0.95788 0.46499 0.52045 0.0
C1995 C 0.99289 0.50371 0.51493 0.0
C1996 C 1.00223 0.53219 0.51314 0.0
C1997 C 0.96694 0.49232 0.51528 0.0
C1998 C 0.98543 0.54876 0.50964 0.0
C1999 C 0.95936 0.5371 0.50839 0.0
H2000 H 0.36188 0.07555 0.30936 0.0
H2001 H 0.42196 0.15283 0.3167 0.0
H2002 H 0.39515 0.17012 0.28598 0.0
H2003 H 0.35657 0.16063 0.25375 0.0
H2004 H 0.29822 0.08117 0.24282 0.0
H2005 H 0.32283 0.06657 0.27798 0.0
C2006 C 0.36862 0.09664 0.30499 0.0
C2007 C 0.39326 0.11354 0.31568 0.0
C2008 C 0.35384 0.10539 0.28614 0.0
C2009 C 0.40262 0.14013 0.30908 0.0
C2010 C 0.38751 0.1497 0.29131 0.0
C2011 C 0.34921 0.14025 0.25933 0.0
C2012 C 0.32584 0.12188 0.24598 0.0
C2013 C 0.36342 0.1321 0.27917 0.0
C2014 C 0.31641 0.09536 0.25283 0.0
C2015 C 0.33029 0.08721 0.273 0.0
H2016 H 0.34441 0.11511 0.48971 0.0
H2017 H 0.37812 0.19782 0.54353 0.0
H2018 H 0.41388 0.18154 0.55975 0.0
H2019 H 0.43367 0.14259 0.56187 0.0
H2020 H 0.40012 0.05958 0.5092 0.0
H2021 H 0.36617 0.07699 0.48926 0.0
C2022 C 0.35969 0.12959 0.50481 0.0
C2023 C 0.35837 0.15746 0.51575 0.0
C2024 C 0.3801 0.11994 0.5144 0.0
C2025 C 0.3784 0.17606 0.5352 0.0
C2026 C 0.39891 0.16682 0.54444 0.0
C2027 C 0.41905 0.12854 0.54574 0.0
C2028 C 0.4191 0.09996 0.53693 0.0
C2029 C 0.39964 0.13864 0.53471 0.0
C2030 C 0.4003 0.08174 0.51606 0.0
C2031 C 0.38091 0.09165 0.50482 0.0
H2032 H 0.70684 0.63177 0.28868 0.0
H2033 H 0.76638 0.58931 0.28104 0.0
H2034 H 0.79699 0.63523 0.28056 0.0
H2035 H 0.80655 0.68829 0.28096 0.0
H2036 H 0.74466 0.72763 0.28785 0.0
H2037 H 0.71586 0.68246 0.28974 0.0
C2038 C 0.72652 0.63218 0.28702 0.0
C2039 C 0.73392 0.60647 0.28498 0.0
C2040 C 0.74388 0.65855 0.28645 0.0
C2041 C 0.75976 0.60832 0.28278 0.0
C2042 C 0.77735 0.63477 0.28242 0.0
C2043 C 0.78683 0.68709 0.28308 0.0
C2044 C 0.77825 0.71217 0.28424 0.0
C2045 C 0.76965 0.66021 0.28407 0.0
C2046 C 0.75234 0.70941 0.28679 0.0
C2047 C 0.73559 0.68329 0.28792 0.0
H2048 H 0.87081 0.47534 0.80167 0.0
H2049 H 0.93249 0.44993 0.76483 0.0
H2050 H 0.90771 0.40013 0.75405 0.0
H2051 H 0.87202 0.36443 0.76158 0.0
H2052 H 0.8064 0.38724 0.78981 0.0
H2053 H 0.82994 0.43818 0.79993 0.0
C2054 C 0.87832 0.45884 0.79056 0.0
C2055 C 0.90335 0.46557 0.78443 0.0
C2056 C 0.86408 0.43024 0.78472 0.0
C2057 C 0.91325 0.44459 0.76996 0.0
C2058 C 0.89929 0.41631 0.76409 0.0
C2059 C 0.86282 0.38045 0.76994 0.0
C2060 C 0.83852 0.37249 0.77737 0.0
C2061 C 0.87534 0.40894 0.77267 0.0
C2062 C 0.82611 0.39329 0.78659 0.0
C2063 C 0.83924 0.42222 0.79142 0.0
H2064 H 0.09514 0.88326 0.03431 0.0
H2065 H 0.12681 0.91814 0.11969 0.0
H2066 H 0.11887 0.96373 0.1164 0.0
H2067 H 0.10243 0.9942 0.09042 0.0
H2068 H 0.06993 0.96153 1.00521 0.0
H2069 H 0.07768 0.91501 0.00759 0.0
C2070 C 0.10032 0.90084 0.0522 0.0
C2071 C 0.11169 0.89672 0.07743 0.0
C2072 C 0.09505 0.92754 0.05035 0.0
C2073 C 0.11794 0.92009 0.10017 0.0
C2074 C 0.11337 0.9464 0.09829 0.0
C2075 C 0.09687 0.97701 0.07219 0.0
C2076 C 0.08531 0.98191 0.04764 0.0
C2077 C 0.10177 0.9504 0.07367 0.0
C2078 C 0.07859 0.95886 0.02449 0.0
C2079 C 0.08323 0.93211 0.02587 0.0
H2080 H 0.94726 0.24739 0.86342 0.0
H2081 H 0.93299 0.29357 0.94047 0.0
H2082 H 0.89789 0.30531 0.91663 0.0
H2083 H 0.87086 0.30365 0.87349 0.0
H2084 H 0.88116 0.25183 0.79781 0.0
H2085 H 0.91755 0.24204 0.82086 0.0
C2086 C 0.93643 0.25988 0.87506 0.0
C2087 C 0.94322 0.2694 0.904 0.0
C2088 C 0.91538 0.26618 0.86117 0.0
C2089 C 0.92849 0.28553 0.91835 0.0
C2090 C 0.90826 0.29249 0.90465 0.0
C2091 C 0.88094 0.29014 0.86195 0.0
C2092 C 0.87356 0.27988 0.83313 0.0
C2093 C 0.90144 0.28306 0.87599 0.0
C2094 C 0.88696 0.26183 0.81925 0.0
C2095 C 0.90773 0.25561 0.83274 0.0
H2096 H 0.59583 0.22453 0.59949 0.0
H2097 H 0.61831 0.23825 0.521 0.0
H2098 H 0.60807 0.18652 0.50323 0.0
H2099 H 0.58998 0.13677 0.50894 0.0
H2100 H 0.57169 0.1231 0.58868 0.0
H2101 H 0.58277 0.17488 0.60683 0.0
C2102 C 0.59837 0.21626 0.57843 0.0
C2103 C 0.6073 0.23564 0.56146 0.0
C2104 C 0.59323 0.18624 0.56854 0.0
C2105 C 0.61111 0.22417 0.53448 0.0
C2106 C 0.6053 0.19445 0.52428 0.0
C2107 C 0.58918 0.14517 0.53052 0.0
C2108 C 0.58055 0.12592 0.5476 0.0
C2109 C 0.59609 0.1752 0.54099 0.0
C2110 C 0.57896 0.13728 0.5753 0.0
C2111 C 0.58503 0.16699 0.58559 0.0
H2112 H 0.62301 0.77198 0.41587 0.0
H2113 H 0.56458 0.78822 0.36282 0.0
H2114 H 0.59448 0.79955 0.33025 0.0
H2115 H 0.63738 0.80689 0.31759 0.0
H2116 H 0.69684 0.79345 0.37139 0.0
H2117 H 0.66614 0.77792 0.40219 0.0
C2118 C 0.61676 0.77786 0.39712 0.0
C2119 C 0.59151 0.77941 0.39198 0.0
C2120 C 0.6342 0.78465 0.37843 0.0
C2121 C 0.58382 0.78691 0.36745 0.0
C2122 C 0.60094 0.79342 0.34875 0.0
C2123 C 0.6438 0.80082 0.33616 0.0
C2124 C 0.66962 0.80186 0.34221 0.0
C2125 C 0.62624 0.79274 0.35421 0.0
C2126 C 0.67717 0.79284 0.36596 0.0
C2127 C 0.65963 0.78419 0.3838 0.0
H2128 H 0.1183 0.24896 0.41557 0.0
H2129 H 0.16428 0.31506 0.48218 0.0
H2130 H 0.15031 0.28588 0.51542 0.0
H2131 H 0.11809 0.24608 0.52593 0.0
H2132 H 0.07068 0.18094 0.45916 0.0
H2133 H 0.09168 0.20525 0.42538 0.0
C2134 C 0.12642 0.25607 0.43716 0.0
C2135 C 0.1422 0.28384 0.44663 0.0
C2136 C 0.11696 0.23998 0.45616 0.0
C2137 C 0.15242 0.29338 0.47457 0.0
C2138 C 0.14383 0.27707 0.49363 0.0
C2139 C 0.1125 0.23737 0.50397 0.0
C2140 C 0.09254 0.21248 0.49481 0.0
C2141 C 0.12485 0.25121 0.48477 0.0
C2142 C 0.08573 0.20059 0.46643 0.0
C2143 C 0.09785 0.21426 0.4472 0.0
H2144 H 0.56598 0.19842 0.20348 0.0
H2145 H 0.58739 0.28508 0.19195 0.0
H2146 H 0.63138 0.29037 0.21071 0.0
H2147 H 0.66205 0.27224 0.23615 0.0
H2148 H 0.63937 0.18619 0.24898 0.0
H2149 H 0.5974 0.17867 0.22369 0.0
C2150 C 0.58025 0.21847 0.20492 0.0
C2151 C 0.57335 0.24159 0.19711 0.0
C2152 C 0.60518 0.22146 0.21607 0.0
C2153 C 0.59219 0.26713 0.19835 0.0
C2154 C 0.6173 0.27016 0.20906 0.0
C2155 C 0.64807 0.25166 0.2328 0.0
C2156 C 0.6535 0.22988 0.24465 0.0
C2157 C 0.6238 0.24776 0.21884 0.0
C2158 C 0.63533 0.20333 0.24033 0.0
C2159 C 0.6114 0.19905 0.22594 0.0
H2160 H 0.62822 0.92478 0.91521 0.0
H2161 H 0.67304 0.9332 0.99304 0.0
H2162 H 0.65993 0.97569 0.01252 0.0
H2163 H 0.63101 1.00498 0.00917 0.0
H2164 H 0.58067 0.99178 0.93385 0.0
H2165 H 0.60102 0.95663 0.91112 0.0
C2166 C 0.63596 0.93671 0.93606 0.0
C2167 C 0.65194 0.92646 0.95265 0.0
C2168 C 0.62673 0.95953 0.94763 0.0
C2169 C 0.66118 0.94127 0.9799 0.0
C2170 C 0.65335 0.96517 0.99107 0.0
C2171 C 0.62403 0.9941 0.98794 0.0
C2172 C 0.60348 0.99997 0.97363 0.0
C2173 C 0.63519 0.97349 0.97548 0.0
C2174 C 0.596 0.98711 0.94556 0.0
C2175 C 0.60769 0.96711 0.93256 0.0
H2176 H 0.95832 0.77567 0.74683 0.0
H2177 H 0.91972 0.69678 0.68928 0.0
H2178 H 0.87858 0.70317 0.69969 0.0
H2179 H 0.85433 0.73466 0.71958 0.0
H2180 H 0.89055 0.80664 0.7853 0.0
H2181 H 0.93251 0.80051 0.77694 0.0
C2182 C 0.94082 0.75983 0.73706 0.0
C2183 C 0.94155 0.73628 0.71688 0.0
C2184 C 0.91726 0.76315 0.74373 0.0
C2185 C 0.91916 0.71525 0.70464 0.0
C2186 C 0.89576 0.71892 0.71045 0.0
C2187 C 0.87139 0.74911 0.7321 0.0
C2188 C 0.87006 0.77355 0.75066 0.0
C2189 C 0.89468 0.74341 0.72901 0.0
C2190 C 0.89183 0.7902 0.76854 0.0
C2191 C 0.9156 0.78598 0.7643 0.0
H2192 H 0.11003 0.98833 0.84758 0.0
H2193 H 0.17766 0.05841 0.87216 0.0
H2194 H 0.16578 0.06862 0.91883 0.0
H2195 H 0.1351 0.05889 0.95363 0.0
H2196 H 0.06856 0.98708 0.92894 0.0
H2197 H 0.08121 0.97642 0.88308 0.0
C2198 C 0.12269 1.00536 0.86327 0.0
C2199 C 0.14553 0.02181 0.85569 0.0
C2200 C 0.1157 1.01111 0.89078 0.0
C2201 C 0.16068 0.0444 0.87685 0.0
C2202 C 0.15361 0.05054 0.90381 0.0
C2203 C 0.12332 0.04072 0.93842 0.0
C2204 C 0.10031 0.02418 0.94577 0.0
C2205 C 0.13103 0.03421 0.91125 0.0
C2206 C 0.08593 1.00081 0.92481 0.0
C2207 C 0.09331 0.99451 0.89814 0.0
H2208 H 0.89011 0.41594 0.57664 0.0
H2209 H 0.80922 0.38385 0.57522 0.0
H2210 H 0.81622 0.36196 0.61437 0.0
H2211 H 0.84543 0.34844 0.64539 0.0
H2212 H 0.92651 0.38217 0.64843 0.0
H2213 H 0.91941 0.40792 0.61242 0.0
C2214 C 0.87413 0.40405 0.585 0.0
C2215 C 0.84927 0.40051 0.57296 0.0
C2216 C 0.87835 0.39225 0.6077 0.0
C2217 C 0.82849 0.38615 0.58417 0.0
C2218 C 0.8325 0.37384 0.60649 0.0
C2219 C 0.8616 0.36199 0.63875 0.0
C2220 C 0.88649 0.36304 0.6491 0.0
C2221 C 0.85737 0.37632 0.61801 0.0
C2222 C 0.9072 0.38058 0.6402 0.0
C2223 C 0.90315 0.39522 0.61966 0.0
H2224 H 0.48432 0.08265 0.39348 0.0
H2225 H 0.45777 0.9908 0.36715 0.0
H2226 H 0.49179 0.98554 0.39864 0.0
H2227 H 0.5275 1.00718 0.43466 0.0
H2228 H 0.55317 0.09865 0.46271 0.0
H2229 H 0.52169 0.1044 0.42805 0.0
C2230 C 0.48585 0.06157 0.39509 0.0
C2231 C 0.46883 0.03714 0.37867 0.0
C2232 C 0.50566 0.05881 0.41247 0.0
C2233 C 0.47087 1.00979 0.38011 0.0
C2234 C 0.49037 1.00679 0.39768 0.0
C2235 C 0.52666 0.02831 0.43227 0.0
C2236 C 0.54215 0.05249 0.45043 0.0
C2237 C 0.50787 0.03117 0.41374 0.0
C2238 C 0.54138 0.07995 0.44808 0.0
C2239 C 0.52311 0.08314 0.4289 0.0
H2240 H 0.80663 0.79261 0.10714 0.0
H2241 H 0.79403 0.70106 0.09102 0.0
H2242 H 0.79589 0.702 0.14004 0.0
H2243 H 0.80319 0.72835 0.18769 0.0
H2244 H 0.81829 0.81994 0.20602 0.0
H2245 H 0.81338 0.81957 0.15641 0.0
C2246 C 0.80437 0.77298 0.11448 0.0
C2247 C 0.80063 0.74686 0.09535 0.0
C2248 C 0.80591 0.77364 0.14317 0.0
C2249 C 0.79755 0.72155 0.10521 0.0
C2250 C 0.79843 0.72198 0.1333 0.0
C2251 C 0.80516 0.74822 0.1808 0.0
C2252 C 0.81072 0.77402 0.20042 0.0
C2253 C 0.80292 0.74784 0.15246 0.0
C2254 C 0.8135 0.79968 0.19127 0.0
C2255 C 0.81089 0.79948 0.16289 0.0
H2256 H 0.1071 0.0303 0.69428 0.0
H2257 H 0.17585 1.00796 0.67533 0.0
H2258 H 0.16682 0.01311 0.62765 0.0
H2259 H 0.1396 0.02431 0.59036 0.0
H2260 H 0.07028 0.04525 0.60894 0.0
H2261 H 0.07951 0.04079 0.65681 0.0
C2262 C 0.12021 0.02621 0.67985 0.0
C2263 C 0.14236 0.01824 0.68946 0.0
C2264 C 0.11483 0.02938 0.65189 0.0
C2265 C 0.15865 0.0136 0.6695 0.0
C2266 C 0.15346 0.01678 0.64191 0.0
C2267 C 0.12639 0.02807 0.60479 0.0
C2268 C 0.10416 0.0357 0.59516 0.0
C2269 C 0.13167 0.02476 0.6327 0.0
C2270 C 0.08762 0.03997 0.61493 0.0
C2271 C 0.09291 0.03714 0.64261 0.0
H2272 H 0.85599 0.35952 0.45983 0.0
H2273 H 0.827 0.42407 0.43132 0.0
H2274 H 0.82463 0.39974 0.38379 0.0
H2275 H 0.82866 0.35976 0.35067 0.0
H2276 H 0.85667 0.29356 0.37616 0.0
H2277 H 0.86087 0.31839 0.42494 0.0
C2278 C 0.84924 0.3681 0.4431 0.0
C2279 C 0.84133 0.39321 0.44892 0.0
C2280 C 0.84747 0.35366 0.41555 0.0
C2281 C 0.83274 0.40445 0.42728 0.0
C2282 C 0.83141 0.39064 0.40011 0.0
C2283 C 0.83623 0.35105 0.36685 0.0
C2284 C 0.84299 0.32548 0.36019 0.0
C2285 C 0.83843 0.36519 0.39412 0.0
C2286 C 0.85155 0.31349 0.38118 0.0
C2287 C 0.854 0.3277 0.40886 0.0
H2288 H 0.49078 0.07221 0.25364 0.0
H2289 H 0.43021 0.994 0.23334 0.0
H2290 H 0.43564 0.98845 0.18471 0.0
H2291 H 0.46686 0.99688 0.15318 0.0
H2292 H 0.53174 0.07061 0.17532 0.0
H2293 H 0.51488 0.08807 0.21716 0.0
C2294 C 0.47827 0.05465 0.23826 0.0
C2295 C 0.46105 0.03279 0.24655 0.0
C2296 C 0.48252 0.05078 0.21068 0.0
C2297 C 0.44431 1.01035 0.22696 0.0
C2298 C 0.44733 1.00726 0.19928 0.0
C2299 C 0.47665 0.01732 0.16672 0.0
C2300 C 0.50085 0.03179 0.16244 0.0
C2301 C 0.46786 0.02589 0.19149 0.0
C2302 C 0.51328 0.05879 0.17904 0.0
C2303 C 0.50379 0.06859 0.20304 0.0
H2304 H 0.84245 0.77245 0.9472 0.0
H2305 H 0.77281 0.7052 0.92129 0.0
H2306 H 0.77507 0.70886 0.87314 0.0
H2307 H 0.79494 0.73383 0.83897 0.0
H2308 H 0.8657 0.79965 0.86423 0.0
H2309 H 0.86502 0.7939 0.9117 0.0
C2310 C 0.82796 0.75854 0.93089 0.0
C2311 C 0.80733 0.73884 0.93763 0.0
C2312 C 0.82943 0.76071 0.90314 0.0
C2313 C 0.78873 0.72069 0.91644 0.0
C2314 C 0.79002 0.72276 0.88895 0.0
C2315 C 0.81039 0.74677 0.85471 0.0
C2316 C 0.82971 0.76824 0.84805 0.0
C2317 C 0.81002 0.74307 0.88208 0.0
C2318 C 0.84987 0.78407 0.86882 0.0
C2319 C 0.84963 0.78058 0.89607 0.0
H2320 H 0.8659 0.12395 0.02841 0.0
H2321 H 0.82751 0.05305 0.06217 0.0
H2322 H 0.85783 0.02698 0.04663 0.0
H2323 H 0.89217 0.02222 0.01916 0.0
H2324 H 0.93075 0.09248 0.98518 0.0
H2325 H 0.90319 0.12107 1.00484 0.0
C2326 C 0.86449 0.10305 0.03286 0.0
C2327 C 0.84433 0.0902 0.04606 0.0
C2328 C 0.88156 0.08789 0.02324 0.0
C2329 C 0.84274 0.06318 0.05177 0.0
C2330 C 0.85994 0.04821 0.04276 0.0
C2331 C 0.89433 0.04376 0.01605 0.0
C2332 C 0.91262 0.05517 1.00026 0.0
C2333 C 0.87878 0.05993 0.02763 0.0
C2334 C 0.91618 0.08332 0.99689 0.0
C2335 C 0.90062 0.0996 0.00822 0.0
H2336 H 0.40605 0.46171 0.03666 0.0
H2337 H 0.43973 0.40574 0.07442 0.0
H2338 H 0.48206 0.43741 0.07562 0.0
H2339 H 0.50949 0.47857 0.06252 0.0
H2340 H 0.47638 0.53359 0.02273 0.0
H2341 H 0.43372 0.50474 0.0258 0.0
C2342 C 0.42265 0.45672 0.04556 0.0
C2343 C 0.41985 0.4314 0.05535 0.0
C2344 C 0.44696 0.47465 0.04554 0.0
C2345 C 0.44147 0.42501 0.06657 0.0
C2346 C 0.46565 0.44307 0.06724 0.0
C2347 C 0.49294 0.48438 0.05469 0.0
C2348 C 0.49602 0.50806 0.04232 0.0
C2349 C 0.46862 0.46754 0.05619 0.0
C2350 C 0.47445 0.51552 0.0325 0.0
C2351 C 0.45009 0.49896 0.03413 0.0
H2352 H 0.41673 0.6875 0.82107 0.0
H2353 H 0.38879 0.62868 0.74269 0.0
H2354 H 0.36229 0.65928 0.73078 0.0
H2355 H 0.3483 0.70522 0.74114 0.0
H2356 H 0.37408 0.76154 0.82107 0.0
H2357 H 0.39971 0.73038 0.83312 0.0
C2358 C 0.40479 0.68089 0.8013 0.0
C2359 C 0.40562 0.65487 0.78292 0.0
C2360 C 0.38889 0.69877 0.79462 0.0
C2361 C 0.38934 0.64787 0.75762 0.0
C2362 C 0.37398 0.66575 0.7507 0.0
C2363 C 0.3589 0.71045 0.76159 0.0
C2364 C 0.35809 0.73624 0.78032 0.0
C2365 C 0.37364 0.69155 0.76882 0.0
C2366 C 0.37305 0.74207 0.80627 0.0
C2367 C 0.38815 0.72408 0.81312 0.0
H2368 H 0.21173 0.55552 0.54143 0.0
H2369 H 0.23111 0.60209 0.47796 0.0
H2370 H 0.18883 0.60996 0.47362 0.0
H2371 H 0.14855 0.6094 0.49381 0.0
H2372 H 0.12631 0.55105 0.54611 0.0
H2373 H 0.16759 0.54254 0.55028 0.0
C2374 C 0.20634 0.5662 0.5257 0.0
C2375 C 0.22496 0.58055 0.51197 0.0
C2376 C 0.182 0.56996 0.52285 0.0
C2377 C 0.21747 0.59292 0.49054 0.0
C2378 C 0.19338 0.5976 0.48813 0.0
C2379 C 0.15297 0.59529 0.50652 0.0
C2380 C 0.13528 0.5835 0.52302 0.0
C2381 C 0.17602 0.58775 0.50563 0.0
C2382 C 0.14066 0.56335 0.53702 0.0
C2383 C 0.16397 0.55742 0.53807 0.0
H2384 H 0.79681 1.00376 0.72661 0.0
H2385 H 0.72033 0.95085 0.72111 0.0
H2386 H 0.73485 0.92272 0.75101 0.0
H2387 H 0.76758 0.92038 0.78624 0.0
H2388 H 0.84313 0.97654 0.79559 0.0
H2389 H 0.83103 0.9964 0.75662 0.0
C2390 C 0.78369 0.98512 0.73085 0.0
C2391 C 0.75771 0.9792 0.72203 0.0
C2392 C 0.7919 0.9705 0.74959 0.0
C2393 C 0.74052 0.9554 0.72776 0.0
C2394 C 0.74872 0.93973 0.74523 0.0
C2395 C 0.78125 0.9369 0.7795 0.0
C2396 C 0.80572 0.94808 0.79394 0.0
C2397 C 0.77403 0.94835 0.75762 0.0
C2398 C 0.82385 0.96872 0.78503 0.0
C2399 C 0.81704 0.97973 0.7627 0.0
H2400 H 0.73585 0.90386 0.53401 0.0
H2401 H 0.80644 0.96412 0.52819 0.0
H2402 H 0.78343 0.99754 0.5173 0.0
H2403 H 0.74346 1.00935 0.50814 0.0
H2404 H 0.67257 0.94953 0.51332 0.0
H2405 H 0.69555 0.91657 0.52631 0.0
C2406 C 0.74619 0.92436 0.5305 0.0
C2407 C 0.77281 0.93138 0.53181 0.0
C2408 C 0.73283 0.94362 0.52419 0.0
C2409 C 0.78594 0.95812 0.52737 0.0
C2410 C 0.77281 0.97728 0.52105 0.0
C2411 C 0.73302 0.989 0.51188 0.0
C2412 C 0.70639 0.98179 0.50948 0.0
C2413 C 0.74628 0.97014 0.51912 0.0
C2414 C 0.69313 0.95565 0.51512 0.0
C2415 C 0.70624 0.93672 0.52241 0.0
H2416 H 0.37886 0.48728 0.77637 0.0
H2417 H 0.44537 0.46175 0.75295 0.0
H2418 H 0.42429 0.41265 0.75197 0.0
H2419 H 0.38759 0.37523 0.75855 0.0
H2420 H 0.31981 0.39805 0.77993 0.0
H2421 H 0.34024 0.44813 0.78054 0.0
C2422 C 0.3887 0.47105 0.77077 0.0
C2423 C 0.41425 0.47943 0.765 0.0
C2424 C 0.37608 0.44149 0.76981 0.0
C2425 C 0.42607 0.45714 0.75784 0.0
C2426 C 0.41393 0.42847 0.7572 0.0
C2427 C 0.37707 0.391 0.76319 0.0
C2428 C 0.35173 0.382 0.76887 0.0
C2429 C 0.38903 0.42021 0.76334 0.0
C2430 C 0.33896 0.40348 0.77488 0.0
C2431 C 0.35086 0.43256 0.77545 0.0
H2432 H 0.22936 0.64522 0.22508 0.0
H2433 H 0.29934 0.62102 0.23442 0.0
H2434 H 0.32011 0.66832 0.26438 0.0
H2435 H 0.31762 0.71702 0.28664 0.0
H2436 H 0.24566 0.73701 0.27868 0.0
H2437 H 0.22555 0.68944 0.25048 0.0
C2438 C 0.24929 0.6502 0.23323 0.0
C2439 C 0.26311 0.63013 0.22687 0.0
C2440 C 0.26028 0.67608 0.25139 0.0
C2441 C 0.28863 0.63663 0.23852 0.0
C2442 C 0.30027 0.66332 0.25595 0.0
C2443 C 0.29751 0.71051 0.27889 0.0
C2444 C 0.28298 0.73007 0.2836 0.0
C2445 C 0.28619 0.68323 0.26246 0.0
C2446 C 0.25691 0.72192 0.2746 0.0
C2447 C 0.24556 0.695 0.25842 0.0
H2448 H 0.51072 0.68917 0.50874 0.0
H2449 H 0.5597 0.70454 0.44628 0.0
H2450 H 0.57635 0.66478 0.45279 0.0
H2451 H 0.57477 0.62264 0.47295 0.0
H2452 H 0.53022 0.60909 0.53896 0.0
H2453 H 0.51341 0.64965 0.53348 0.0
C2454 C 0.52512 0.68398 0.4966 0.0
C2455 C 0.53344 0.7002 0.47656 0.0
C2456 C 0.53532 0.66089 0.50087 0.0
C2457 C 0.5524 0.69275 0.46149 0.0
C2458 C 0.56207 0.66979 0.46523 0.0
C2459 C 0.56248 0.62936 0.48725 0.0
C2460 C 0.55497 0.61327 0.50738 0.0
C2461 C 0.55352 0.65343 0.48455 0.0
C2462 C 0.53739 0.62153 0.52415 0.0
C2463 C 0.52751 0.6447 0.52075 0.0
H2464 H 0.70985 0.32456 0.64366 0.0
H2465 H 0.65549 0.33394 0.70021 0.0
H2466 H 0.68448 0.32825 0.73763 0.0
H2467 H 0.72542 0.31821 0.75413 0.0
H2468 H 0.77781 0.30788 0.69487 0.0
H2469 H 0.74972 0.31603 0.65962 0.0
C2470 C 0.70432 0.32572 0.6642 0.0
C2471 C 0.68037 0.32987 0.66882 0.0
C2472 C 0.72086 0.32184 0.68554 0.0
C2473 C 0.67375 0.33088 0.69577 0.0
C2474 C 0.69037 0.32751 0.7173 0.0
C2475 C 0.73074 0.31789 0.7336 0.0
C2476 C 0.75397 0.31193 0.72768 0.0
C2477 C 0.71402 0.32259 0.71245 0.0
C2478 C 0.76014 0.31177 0.70059 0.0
C2479 C 0.74403 0.31664 0.68005 0.0
H2480 H 0.02601 0.3691 0.01503 0.0
H2481 H 0.05451 0.35462 0.93661 0.0
H2482 H 0.06383 0.40536 0.9369 0.0
H2483 H 0.06301 0.45395 0.95824 0.0
H2484 H 0.0405 0.47046 0.03935 0.0
H2485 H 0.02886 0.41933 0.03865 0.0
C2486 C 0.03453 0.37703 0.99813 0.0
C2487 C 0.03937 0.35754 0.97573 0.0
C2488 C 0.04025 0.40676 0.99848 0.0
C2489 C 0.05048 0.36866 0.95416 0.0
C2490 C 0.05571 0.39785 0.95418 0.0
C2491 C 0.05535 0.44646 0.97576 0.0
C2492 C 0.05146 0.46638 0.99826 0.0
C2493 C 0.05039 0.41707 0.976 0.0
C2494 C 0.0424 0.45593 0.02106 0.0
C2495 C 0.03622 0.42651 0.02088 0.0
H2496 H 0.01776 0.81797 0.13506 0.0
H2497 H 0.07932 0.82347 0.19737 0.0
H2498 H 0.04926 0.81356 0.23011 0.0
H2499 H 0.00557 0.80047 0.24038 0.0
H2500 H 0.94347 0.79258 0.1779 0.0
H2501 H 0.9737 0.80713 0.14629 0.0
C2502 C 0.02464 0.81723 0.15587 0.0
C2503 C 0.05081 0.82118 0.1636 0.0
C2504 C 0.00715 0.81114 0.17463 0.0
C2505 C 0.05932 0.82031 0.19073 0.0
C2506 C 0.04213 0.81462 0.20951 0.0
C2507 C 0.99856 0.80176 0.2198 0.0
C2508 C 0.9722 0.79497 0.2115 0.0
C2509 C 0.01599 0.80945 0.20153 0.0
C2510 C 0.96361 0.79771 0.18499 0.0
C2511 C 0.98091 0.80582 0.16678 0.0
H2512 H 0.54493 0.31013 0.11002 0.0
H2513 H 0.46991 0.32191 0.09633 0.0
H2514 H 0.48437 0.35212 0.06395 0.0
H2515 H 0.51823 0.37455 0.03916 0.0
H2516 H 0.5928 0.36172 0.05217 0.0
H2517 H 0.57851 0.33214 0.08516 0.0
C2518 C 0.53172 0.31939 0.10008 0.0
C2519 C 0.50638 0.31387 0.10562 0.0
C2520 C 0.54003 0.33624 0.08121 0.0
C2521 C 0.4895 0.32585 0.0924 0.0
C2522 C 0.49774 0.34306 0.07386 0.0
C2523 C 0.53126 0.36513 0.04918 0.0
C2524 C 0.55642 0.36997 0.04317 0.0
C2525 C 0.52291 0.34823 0.06801 0.0
C2526 C 0.57322 0.35777 0.05617 0.0
C2527 C 0.56512 0.34111 0.07515 0.0
H2528 H 0.0492 0.35879 0.39038 0.0
H2529 H 0.0813 0.32088 0.32122 0.0
H2530 H 0.04807 0.32762 0.28924 0.0
H2531 H 0.01092 0.34661 0.28143 0.0
H2532 H 0.98126 0.3862 0.35165 0.0
H2533 H 0.01319 0.37714 0.383 0.0
C2534 C 0.04898 0.35182 0.36832 0.0
C2535 C 0.06778 0.33964 0.35814 0.0
C2536 C 0.03063 0.35666 0.35034 0.0
C2537 C 0.06699 0.33041 0.32951 0.0
C2538 C 0.04817 0.33449 0.31127 0.0
C2539 C 0.01192 0.35368 0.30359 0.0
C2540 C 0.99419 0.36735 0.31442 0.0
C2541 C 0.03024 0.3482 0.3215 0.0
C2542 C 0.99501 0.37588 0.34308 0.0
C2543 C 0.01305 0.37052 0.36092 0.0
H2544 H 0.011 0.70732 0.58619 0.0
H2545 H 0.9535 0.63551 0.59979 0.0
H2546 H 0.97341 0.60263 0.57284 0.0
H2547 H 0.01245 0.59536 0.55673 0.0
H2548 H 0.07146 0.6663 0.54483 0.0
H2549 H 0.04623 0.6992 0.5615 0.0
C2550 C 1.00222 0.68449 0.58239 0.0
C2551 C 0.98155 0.67372 0.59597 0.0
C2552 C 0.01487 0.66587 0.5688 0.0
C2553 C 0.96984 0.6442 0.59008 0.0
C2554 C 0.98149 0.62543 0.57518 0.0
C2555 C 0.01971 0.61798 0.55761 0.0
C2556 C 0.044 0.6289 0.55087 0.0
C2557 C 0.00502 0.63619 0.56652 0.0
C2558 C 0.05306 0.65796 0.55108 0.0
C2559 C 0.03854 0.67651 0.56017 0.0
H2560 H 0.70937 0.83216 0.86608 0.0
H2561 H 0.66908 0.85148 0.79729 0.0
H2562 H 0.70193 0.84274 0.76868 0.0
H2563 H 0.7429 0.8304 0.76401 0.0
H2564 H 0.78311 0.81464 0.83488 0.0
H2565 H 0.74912 0.82065 0.86188 0.0
C2566 C 0.7076 0.8344 0.8448 0.0
C2567 C 0.68684 0.84236 0.83378 0.0
C2568 C 0.72638 0.8296 0.8288 0.0
C2569 C 0.68499 0.84538 0.80623 0.0
C2570 C 0.70368 0.84032 0.78988 0.0
C2571 C 0.74381 0.82793 0.78523 0.0
C2572 C 0.76472 0.82096 0.79727 0.0
C2573 C 0.72451 0.83243 0.80101 0.0
C2574 C 0.76657 0.81893 0.82503 0.0
C2575 C 0.74732 0.82262 0.84053 0.0
H2576 H 0.53323 0.5814 0.7067 0.0
H2577 H 0.45407 0.56064 0.67467 0.0
H2578 H 0.46527 0.5555 0.62722 0.0
H2579 H 0.4985 0.55498 0.59332 0.0
H2580 H 0.57714 0.57809 0.62873 0.0
H2581 H 0.56535 0.58434 0.67454 0.0
C2582 C 0.51822 0.57625 0.68951 0.0
C2583 C 0.49258 0.57189 0.69529 0.0
C2584 C 0.5249 0.57352 0.66194 0.0
C2585 C 0.47395 0.56487 0.67185 0.0
C2586 C 0.48046 0.5616 0.64431 0.0
C2587 C 0.51318 0.56155 0.61095 0.0
C2588 C 0.53937 0.56625 0.60613 0.0
C2589 C 0.50601 0.56554 0.63876 0.0
C2590 C 0.55725 0.57472 0.63031 0.0
C2591 C 0.55037 0.57815 0.65719 0.0
H2592 H 0.75343 0.14152 0.93596 0.0
H2593 H 0.8249 0.19574 0.97996 0.0
H2594 H 0.82553 0.22873 0.94888 0.0
H2595 H 0.79933 0.24815 0.91899 0.0
H2596 H 0.72451 0.19668 0.88132 0.0
H2597 H 0.73117 0.15651 0.89994 0.0
C2598 C 0.76975 0.1598 0.93764 0.0
C2599 C 0.78889 0.16665 0.96007 0.0
C2600 C 0.76872 0.17965 0.92143 0.0
C2601 C 0.81005 0.1902 0.96257 0.0
C2602 C 0.81007 0.20933 0.94521 0.0
C2603 C 0.785 0.22771 0.91414 0.0
C2604 C 0.76143 0.22505 0.89921 0.0
C2605 C 0.78855 0.2053 0.92606 0.0
C2606 C 0.74269 0.19888 0.89302 0.0
C2607 C 0.7465 0.17604 0.90364 0.0
H2608 H 0.15951 0.51136 0.15626 0.0
H2609 H 0.12246 0.56372 0.20903 0.0
H2610 H 0.08689 0.55286 0.17256 0.0
H2611 H 0.07374 0.54044 0.12304 0.0
H2612 H 0.11501 0.49567 0.0689 0.0
H2613 H 0.14173 0.49119 0.10858 0.0
C2614 C 0.14333 0.51977 0.16003 0.0
C2615 C 0.14388 0.5392 0.18456 0.0
C2616 C 0.12399 0.51499 0.13859 0.0
C2617 C 0.12262 0.54934 0.18975 0.0
C2618 C 0.10236 0.54321 0.16897 0.0
C2619 C 0.08774 0.52853 0.12019 0.0
C2620 C 0.09293 0.51857 0.09378 0.0
C2621 C 0.10385 0.52782 0.14281 0.0
C2622 C 0.11129 0.50364 0.08957 0.0
C2623 C 0.12647 0.50119 0.1121 0.0
H2624 H 0.83452 0.80513 0.44379 0.0
H2625 H 0.82965 0.89224 0.45708 0.0
H2626 H 0.82861 0.89075 0.40796 0.0
H2627 H 0.82911 0.8654 0.36136 0.0
H2628 H 0.82749 0.77637 0.34548 0.0
H2629 H 0.83184 0.77805 0.39534 0.0
C2630 C 0.83296 0.82362 0.43581 0.0
C2631 C 0.83203 0.84872 0.45417 0.0
C2632 C 0.83173 0.82246 0.40714 0.0
C2633 C 0.83002 0.87251 0.4435 0.0
C2634 C 0.82967 0.87181 0.41538 0.0
C2635 C 0.82983 0.84634 0.36877 0.0
C2636 C 0.82878 0.82105 0.34981 0.0
C2637 C 0.8306 0.84702 0.39708 0.0
C2638 C 0.82917 0.79639 0.35972 0.0
C2639 C 0.83129 0.79727 0.38821 0.0
H2640 H 0.47338 0.55499 0.87745 0.0
H2641 H 0.5419 0.59679 0.84847 0.0
H2642 H 0.56707 0.59527 0.89051 0.0
H2643 H 0.57107 0.58187 0.93632 0.0
H2644 H 0.50337 0.54181 0.96738 0.0
H2645 H 0.47748 0.54272 0.92508 0.0
C2646 C 0.4937 0.56472 0.88059 0.0
C2647 C 0.50508 0.57727 0.85915 0.0
C2648 C 0.50877 0.56337 0.90554 0.0
C2649 C 0.5319 0.58806 0.86417 0.0
C2650 C 0.5466 0.58682 0.88842 0.0
C2651 C 0.55065 0.57278 0.9338 0.0
C2652 C 0.53984 0.56024 0.95531 0.0
C2653 C 0.53548 0.57434 0.90931 0.0
C2654 C 0.51299 0.55001 0.95123 0.0
C2655 C 0.49792 0.55109 0.92688 0.0
H2656 H 0.81894 0.20664 0.10925 0.0
H2657 H 0.74003 0.20568 0.09479 0.0
H2658 H 0.74446 0.23831 0.13959 0.0
H2659 H 0.77052 0.26476 0.18418 0.0
H2660 H 0.84817 0.26178 0.19854 0.0
H2661 H 0.84464 0.23307 0.15227 0.0
C2662 C 0.80274 0.21379 0.11567 0.0
C2663 C 0.77923 0.20382 0.09886 0.0
C2664 C 0.80527 0.23185 0.14139 0.0
C2665 C 0.75835 0.21308 0.10755 0.0
C2666 C 0.76084 0.23165 0.13311 0.0
C2667 C 0.78661 0.25804 0.17677 0.0
C2668 C 0.80989 0.26613 0.19382 0.0
C2669 C 0.78413 0.2408 0.15039 0.0
C2670 C 0.83059 0.25695 0.18486 0.0
C2671 C 0.82843 0.24018 0.15867 0.0
H2672 H 0.16369 0.58011 0.27265 0.0
H2673 H 0.21831 0.56741 0.3326 0.0
H2674 H 0.1886 0.56916 0.36723 0.0
H2675 H 0.14828 0.57799 0.38052 0.0
H2676 H 0.09399 0.58959 0.31898 0.0
H2677 H 0.12254 0.58446 0.28441 0.0
C2678 C 0.169 0.57761 0.29329 0.0
C2679 C 0.19303 0.57414 0.30051 0.0
C2680 C 0.15199 0.57851 0.31255 0.0
C2681 C 0.19989 0.57055 0.32702 0.0
C2682 C 0.18293 0.57147 0.34661 0.0
C2683 C 0.1425 0.57878 0.3594 0.0
C2684 C 0.1192 0.5845 0.3523 0.0
C2685 C 0.15906 0.5759 0.33965 0.0
C2686 C 0.11201 0.58571 0.32496 0.0
C2687 C 0.12827 0.58274 0.30523 0.0
H2688 H 0.82218 0.88104 0.62738 0.0
H2689 H 0.81089 0.7941 0.5836 0.0
H2690 H 0.79988 0.77689 0.62522 0.0
H2691 H 0.79906 0.78712 0.67515 0.0
H2692 H 0.81338 0.87402 0.72017 0.0
H2693 H 0.81803 0.89086 0.6772 0.0
C2694 C 0.81678 0.85831 0.62688 0.0
C2695 C 0.8173 0.83882 0.60248 0.0
C2696 C 0.81143 0.84866 0.65124 0.0
C2697 C 0.81072 0.80947 0.60219 0.0
C2698 C 0.80448 0.79965 0.62599 0.0
C2699 C 0.80209 0.80957 0.67551 0.0
C2700 C 0.80526 0.82914 0.70086 0.0
C2701 C 0.80547 0.8191 0.65081 0.0
C2702 C 0.81059 0.85844 0.70093 0.0
C2703 C 0.81335 0.86809 0.67635 0.0
H2704 H 0.76839 0.47765 0.51491 0.0
H2705 H 0.82622 0.55409 0.51251 0.0
H2706 H 0.79916 0.58348 0.53176 0.0
H2707 H 0.76089 0.58693 0.55372 0.0
H2708 H 0.70513 0.50968 0.55854 0.0
H2709 H 0.73 0.48078 0.53448 0.0
C2710 C 0.77491 0.50078 0.51828 0.0
C2711 C 0.7992 0.51394 0.51289 0.0
C2712 C 0.76 0.51721 0.53045 0.0
C2713 C 0.80743 0.54372 0.51661 0.0
C2714 C 0.79219 0.56042 0.52797 0.0
C2715 C 0.75453 0.5638 0.54977 0.0
C2716 C 0.73161 0.5503 0.55804 0.0
C2717 C 0.76888 0.54736 0.53593 0.0
C2718 C 0.72296 0.52034 0.55243 0.0
C2719 C 0.73698 0.50387 0.53855 0.0
H2720 H 0.23114 0.12771 0.49157 0.0
H2721 H 0.20825 0.20199 0.52905 0.0
H2722 H 0.16658 0.17235 0.53158 0.0
H2723 H 0.13651 0.12632 0.52405 0.0
H2724 H 0.1564 0.05038 0.48621 0.0
H2725 H 0.19892 0.0796 0.48252 0.0
C2726 C 0.21697 0.13727 0.50022 0.0
C2727 C 0.22296 0.1672 0.50991 0.0
C2728 C 0.19237 0.11988 0.50145 0.0
C2729 C 0.20428 0.17919 0.52104 0.0
C2730 C 0.18032 0.16223 0.52263 0.0
C2731 C 0.14995 0.11587 0.5149 0.0
C2732 C 0.14309 0.08601 0.50563 0.0
C2733 C 0.17415 0.13267 0.51294 0.0
C2734 C 0.16102 0.07328 0.49361 0.0
C2735 C 0.18544 0.09003 0.49159 0.0
H2736 H 0.27758 0.95379 0.76067 0.0
H2737 H 0.20651 0.92093 0.78994 0.0
H2738 H 0.22022 0.87867 0.79664 0.0
H2739 H 0.25397 0.85121 0.79705 0.0
H2740 H 0.31992 0.87944 0.75801 0.0
H2741 H 0.30779 0.92279 0.75409 0.0
C2742 C 0.26474 0.93752 0.76849 0.0
C2743 C 0.24065 0.94201 0.77511 0.0
C2744 C 0.27263 0.91225 0.77165 0.0
C2745 C 0.225 0.91942 0.78479 0.0
C2746 C 0.23306 0.89487 0.78875 0.0
C2747 C 0.26593 0.86666 0.78754 0.0
C2748 C 0.2898 0.86192 0.78002 0.0
C2749 C 0.25709 0.89102 0.78272 0.0
C2750 C 0.30326 0.88246 0.76649 0.0
C2751 C 0.29564 0.90738 0.76348 0.0
H2752 H 0.41304 0.98698 0.99007 0.0
H2753 H 0.42599 0.05747 0.05977 0.0
H2754 H 0.47116 0.0719 0.05418 0.0
H2755 H 0.5068 0.05435 0.03969 0.0
H2756 H 0.49438 0.97561 0.98062 0.0
H2757 H 0.44886 0.97198 0.9733 0.0
C2758 C 0.42567 1.00626 1.00319 0.0
C2759 C 0.41659 0.02119 0.02529 0.0
C2760 C 0.4518 1.01142 1.00265 0.0
C2761 C 0.43276 0.0459 0.04254 0.0
C2762 C 0.4586 0.05359 0.03974 0.0
C2763 C 0.49452 0.03781 0.02373 0.0
C2764 C 0.50419 0.01686 0.00863 0.0
C2765 C 0.46846 0.03511 0.02133 0.0
C2766 C 0.48744 0.99286 0.99103 0.0
C2767 C 0.4615 0.99078 0.98704 0.0
H2768 H 0.89575 0.6219 0.81805 0.0
H2769 H 0.83871 0.54257 0.81296 0.0
H2770 H 0.80858 0.5584 0.78488 0.0
H2771 H 0.80081 0.59237 0.757 0.0
H2772 H 0.86047 0.6686 0.75833 0.0
H2773 H 0.88804 0.65574 0.79169 0.0
C2774 C 0.87651 0.60834 0.81125 0.0
C2775 C 0.86936 0.5811 0.81703 0.0
C2776 C 0.86031 0.6165 0.79356 0.0
C2777 C 0.84443 0.56375 0.80871 0.0
C2778 C 0.82746 0.57252 0.79222 0.0
C2779 C 0.81997 0.60579 0.76443 0.0
C2780 C 0.82889 0.63109 0.75538 0.0
C2781 C 0.83565 0.59826 0.78351 0.0
C2782 C 0.85351 0.64888 0.76518 0.0
C2783 C 0.86908 0.64175 0.78436 0.0
H2784 H 0.86322 0.62879 0.97468 0.0
H2785 H 0.87146 0.68938 0.0519 0.0
H2786 H 0.90326 0.66988 0.07199 0.0
H2787 H 0.9263 0.63331 0.06893 0.0
H2788 H 0.91865 0.57262 0.99222 0.0
H2789 H 0.88912 0.59449 0.97052 0.0
C2790 C 0.87217 0.63789 0.99579 0.0
C2791 C 0.86466 0.66014 0.01188 0.0
C2792 C 0.89035 0.62639 0.00739 0.0
C2793 C 0.87657 0.67188 0.03918 0.0
C2794 C 0.89479 0.66079 0.05073 0.0
C2795 C 0.91813 0.62498 0.04746 0.0
C2796 C 0.92409 0.60123 0.03222 0.0
C2797 C 0.90133 0.63762 0.03526 0.0
C2798 C 0.91403 0.59086 1.00427 0.0
C2799 C 0.89718 0.6033 0.99193 0.0
H2800 H 0.26027 0.10236 0.78329 0.0
H2801 H 0.18874 0.12386 0.78695 0.0
H2802 H 0.20948 0.17299 0.78761 0.0
H2803 H 0.24743 0.21136 0.78653 0.0
H2804 H 0.31975 0.19249 0.78423 0.0
H2805 H 0.2996 0.14248 0.78388 0.0
C2806 C 0.24921 0.11774 0.78442 0.0
C2807 C 0.22254 0.10832 0.78501 0.0
C2808 C 0.26152 0.14722 0.78508 0.0
C2809 C 0.20907 0.12941 0.78642 0.0
C2810 C 0.22098 0.15804 0.78679 0.0
C2811 C 0.25898 0.19649 0.78611 0.0
C2812 C 0.28546 0.20654 0.78565 0.0
C2813 C 0.24714 0.16736 0.78603 0.0
C2814 C 0.29958 0.18622 0.78502 0.0
C2815 C 0.28789 0.15719 0.78465 0.0
H2816 H 0.41855 0.95642 0.30355 0.0
H2817 H 0.35547 0.98964 0.28335 0.0
H2818 H 0.32641 0.94136 0.27531 0.0
H2819 H 0.31978 0.88952 0.27302 0.0
H2820 H 0.38386 0.85835 0.29392 0.0
H2821 H 0.41212 0.90665 0.30327 0.0
C2822 C 0.39849 0.9533 0.29733 0.0
C2823 C 0.3891 0.97638 0.29386 0.0
C2824 C 0.38223 0.92607 0.29328 0.0
C2825 C 0.36304 0.97195 0.28593 0.0
C2826 C 0.3465 0.94451 0.28149 0.0
C2827 C 0.33988 0.89371 0.28009 0.0
C2828 C 0.34999 0.87119 0.28359 0.0
C2829 C 0.35596 0.92143 0.28508 0.0
C2830 C 0.37594 0.87597 0.29195 0.0
C2831 C 0.39201 0.90335 0.29701 0.0
H2832 H 0.60228 0.38704 0.53393 0.0
H2833 H 0.61486 0.41411 0.62267 0.0
H2834 H 0.6055 0.45908 0.61937 0.0
H2835 H 0.59389 0.4914 0.59203 0.0
H2836 H 0.57912 0.46552 0.50338 0.0
H2837 H 0.58817 0.41965 0.50589 0.0
C2838 C 0.60294 0.40278 0.55253 0.0
C2839 C 0.60948 0.39682 0.5787 0.0
C2840 C 0.59672 0.42888 0.55051 0.0
C2841 C 0.60987 0.41766 0.60238 0.0
C2842 C 0.60448 0.44356 0.60049 0.0
C2843 C 0.59248 0.47576 0.5731 0.0
C2844 C 0.58579 0.48241 0.54748 0.0
C2845 C 0.59783 0.44947 0.57477 0.0
C2846 C 0.58411 0.46141 0.52342 0.0
C2847 C 0.58947 0.43509 0.52491 0.0
H2848 H 0.41715 0.76099 0.42013 0.0
H2849 H 0.47142 0.76762 0.36183 0.0
H2850 H 0.44023 0.7752 0.32827 0.0
H2851 H 0.39808 0.78275 0.31606 0.0
H2852 H 0.34387 0.77619 0.3743 0.0
H2853 H 0.37433 0.76627 0.40699 0.0
C2854 C 0.42214 0.76371 0.39997 0.0
C2855 C 0.44689 0.76354 0.39379 0.0
C2856 C 0.40402 0.7684 0.38061 0.0
C2857 C 0.4527 0.76743 0.36744 0.0
C2858 C 0.4348 0.77192 0.34813 0.0
C2859 C 0.3926 0.77842 0.33554 0.0
C2860 C 0.36829 0.77985 0.34225 0.0
C2861 C 0.41044 0.77275 0.35452 0.0
C2862 C 0.36227 0.7753 0.36833 0.0
C2863 C 0.37976 0.76953 0.38713 0.0
H2864 H 0.10447 0.72064 0.03376 0.0
H2865 H 0.10067 0.7375 0.12145 0.0
H2866 H 0.09275 0.68688 0.12099 0.0
H2867 H 0.08581 0.63706 0.09616 0.0
H2868 H 0.08636 0.61853 0.00818 0.0
H2869 H 0.09668 0.66966 0.00837 0.0
C2870 C 0.10168 0.71324 0.05273 0.0
C2871 C 0.10289 0.73342 0.07759 0.0
C2872 C 0.09669 0.68344 0.05237 0.0
C2873 C 0.09941 0.72294 0.10186 0.0
C2874 C 0.09503 0.69377 0.10171 0.0
C2875 C 0.08841 0.64418 0.07701 0.0
C2876 C 0.08586 0.62361 0.0523 0.0
C2877 C 0.09351 0.67375 0.07715 0.0
C2878 C 0.08887 0.63355 0.0277 0.0
C2879 C 0.09453 0.66298 0.02776 0.0
H2880 H 0.07427 0.2643 0.86015 0.0
H2881 H 0.12157 0.28879 0.93909 0.0
H2882 H 0.15957 0.29614 0.91635 0.0
H2883 H 0.17996 0.29935 0.87426 0.0
H2884 H 0.13345 0.27676 0.79536 0.0
H2885 H 0.09497 0.26446 0.81753 0.0
C2886 C 0.09287 0.27101 0.87234 0.0
C2887 C 0.0948 0.27608 0.9014 0.0
C2888 C 0.11501 0.27536 0.85905 0.0
C2889 C 0.11923 0.28478 0.91675 0.0
C2890 C 0.14115 0.28898 0.90375 0.0
C2891 C 0.16142 0.29082 0.86191 0.0
C2892 C 0.15955 0.28826 0.83316 0.0
C2893 C 0.13934 0.28469 0.87495 0.0
C2894 C 0.13536 0.2782 0.81745 0.0
C2895 C 0.11334 0.27152 0.83019 0.0
H2896 H 0.62672 0.74579 0.92377 0.0
H2897 H 0.64221 0.81791 0.9923 0.0
H2898 H 0.62507 0.78673 0.02264 0.0
H2899 H 0.59617 0.74115 0.02592 0.0
H2900 H 0.58087 0.66844 0.95799 0.0
H2901 H 0.60811 0.69726 0.93115 0.0
C2902 C 0.62784 0.75426 0.94573 0.0
C2903 C 0.63545 0.78385 0.95596 0.0
C2904 C 0.61731 0.73619 0.96286 0.0
C2905 C 0.63662 0.79499 0.98428 0.0
C2906 C 0.62634 0.77725 1.00148 0.0
C2907 C 0.59951 0.73155 1.00555 0.0
C2908 C 0.58625 0.70323 0.9934 0.0
C2909 C 0.6151 0.74816 0.99046 0.0
C2910 C 0.59074 0.6905 0.96731 0.0
C2911 C 0.60623 0.70694 0.95203 0.0
H2912 H 0.06795 0.69242 0.69517 0.0
H2913 H 0.08238 0.78236 0.6958 0.0
H2914 H 0.12649 0.79048 0.71596 0.0
H2915 H 0.15867 0.77282 0.73982 0.0
H2916 H 0.14215 0.68357 0.74204 0.0
H2917 H 0.10105 0.67414 0.71393 0.0
C2918 C 0.08074 0.71382 0.69953 0.0
C2919 C 0.07176 0.7369 0.69484 0.0
C2920 C 0.10562 0.71838 0.71169 0.0
C2921 C 0.08875 0.76433 0.69983 0.0
C2922 C 0.11393 0.76898 0.71134 0.0
C2923 C 0.14618 0.75128 0.73351 0.0
C2924 C 0.15297 0.72883 0.74287 0.0
C2925 C 0.12225 0.74632 0.71834 0.0
C2926 C 0.13694 0.70099 0.73497 0.0
C2927 C 0.11353 0.69569 0.71907 0.0
H2928 H 0.16159 0.43474 0.48334 0.0
H2929 H 0.13589 0.42888 0.39774 0.0
H2930 H 0.11323 0.46477 0.411 0.0
H2931 H 0.09438 0.49062 0.44721 0.0
H2932 H 0.12115 0.49672 0.53255 0.0
H2933 H 0.14862 0.46683 0.51918 0.0
C2934 C 0.15191 0.44224 0.46758 0.0
C2935 C 0.14991 0.42885 0.43979 0.0
C2936 C 0.13782 0.46157 0.47534 0.0
C2937 C 0.13764 0.43887 0.4194 0.0
C2938 C 0.12416 0.4589 0.42697 0.0
C2939 C 0.10615 0.4853 0.46286 0.0
C2940 C 0.10429 0.49425 0.49094 0.0
C2941 C 0.12289 0.46902 0.45493 0.0
C2942 C 0.12047 0.48817 0.5109 0.0
C2943 C 0.13691 0.4718 0.50324 0.0
H2944 H 0.42693 0.25951 0.18353 0.0
H2945 H 0.47493 0.28307 0.26162 0.0
H2946 H 0.43837 0.28685 0.28611 0.0
H2947 H 0.39159 0.27652 0.28502 0.0
H2948 H 0.344 0.24921 0.20636 0.0
H2949 H 0.38127 0.2526 0.18222 0.0
C2950 C 0.42941 0.26636 0.20586 0.0
C2951 C 0.4533 0.27137 0.22092 0.0
C2952 C 0.4082 0.26645 0.21963 0.0
C2953 C 0.45651 0.27947 0.24982 0.0
C2954 C 0.43562 0.28116 0.26375 0.0
C2955 C 0.38962 0.27125 0.26264 0.0
C2956 C 0.3654 0.2622 0.24731 0.0
C2957 C 0.41119 0.27339 0.24889 0.0
C2958 C 0.36266 0.25572 0.21837 0.0
C2959 C 0.3839 0.25796 0.2046 0.0
H2960 H 0.66588 0.55495 0.37848 0.0
H2961 H 0.61192 0.47762 0.3333 0.0
H2962 H 0.58918 0.47495 0.37384 0.0
H2963 H 0.58277 0.49612 0.42291 0.0
H2964 H 0.63941 0.57202 0.46785 0.0
H2965 H 0.66187 0.57339 0.42783 0.0
C2966 C 0.6496 0.53692 0.37756 0.0
C2967 C 0.64159 0.51594 0.35226 0.0
C2968 C 0.63634 0.53547 0.40145 0.0
C2969 C 0.61956 0.49365 0.35212 0.0
C2970 C 0.60617 0.49233 0.37554 0.0
C2971 C 0.60008 0.51296 0.4242 0.0
C2972 C 0.60861 0.53425 0.4495 0.0
C2973 C 0.61404 0.51333 0.40049 0.0
C2974 C 0.63153 0.55535 0.44956 0.0
C2975 C 0.64476 0.55619 0.42628 0.0
H2976 H 0.35444 0.86905 0.06123 0.0
H2977 H 0.33375 0.94 0.10917 0.0
H2978 H 0.33562 0.9194 0.15009 0.0
H2979 H 0.35321 0.88754 0.17373 0.0
H2980 H 0.37768 0.81954 0.12593 0.0
H2981 H 0.36456 0.83267 0.08315 0.0
C2982 C 0.34974 0.87961 0.08052 0.0
C2983 C 0.34483 0.90633 0.08273 0.0
C2984 C 0.3522 0.86851 0.10395 0.0
C2985 C 0.33795 0.91955 0.10733 0.0
C2986 C 0.33931 0.90796 0.1307 0.0
C2987 C 0.35502 0.87535 0.15379 0.0
C2988 C 0.36666 0.85313 0.15246 0.0
C2989 C 0.34804 0.8835 0.12957 0.0
C2990 C 0.3689 0.83695 0.12695 0.0
C2991 C 0.36144 0.84444 0.10268 0.0
H2992 H 0.98282 0.5204 0.87017 0.0
H2993 H 0.94425 0.57652 0.91548 0.0
H2994 H 0.97833 0.58975 0.95466 0.0
H2995 H 0.01911 0.5854 0.97448 0.0
H2996 H 0.05811 0.53149 0.92699 0.0
H2997 H 0.02461 0.51942 0.8879 0.0
C2998 C 0.9818 0.53554 0.88858 0.0
C2999 C 0.96134 0.54757 0.89042 0.0
C3000 C 1.00205 0.54461 0.90942 0.0
C3001 C 0.95998 0.56698 0.91422 0.0
C3002 C 0.97953 0.57486 0.93613 0.0
C3003 C 0.02063 0.57206 0.95502 0.0
C3004 C 0.04075 0.55955 0.95286 0.0
C3005 C 1.00088 0.56429 0.93353 0.0
C3006 C 0.04291 0.54183 0.92829 0.0
C3007 C 0.02348 0.53432 0.90646 0.0
H3008 H 0.3235 0.23208 0.60552 0.0
H3009 H 0.29146 0.30254 0.60182 0.0
H3010 H 0.29328 0.31316 0.65222 0.0
H3011 H 0.30385 0.30171 0.698 0.0
H3012 H 0.32956 0.2261 0.69822 0.0
H3013 H 0.33158 0.21944 0.64936 0.0
C3014 C 0.31717 0.25001 0.61564 0.0
C3015 C 0.3076 0.26656 0.59972 0.0
C3016 C 0.3173 0.25531 0.64441 0.0
C3017 C 0.29926 0.28956 0.61346 0.0
C3018 C 0.30015 0.29558 0.64236 0.0
C3019 C 0.30904 0.28329 0.68722 0.0
C3020 C 0.31591 0.26418 0.70217 0.0
C3021 C 0.30887 0.27835 0.65815 0.0
C3022 C 0.32376 0.24114 0.68767 0.0
C3023 C 0.32501 0.23717 0.65947 0.0
H3024 H 0.6105 0.53676 0.19818 0.0
H3025 H 0.67304 0.504 0.17383 0.0
H3026 H 0.6624 0.50898 0.12635 0.0
H3027 H 0.63611 0.52436 0.091 0.0
H3028 H 0.57077 0.55155 0.11457 0.0
H3029 H 0.58219 0.54817 0.16216 0.0
C3030 C 0.62189 0.53034 0.18263 0.0
C3031 C 0.64292 0.51977 0.19075 0.0
C3032 C 0.61542 0.53314 0.15474 0.0
C3033 C 0.65684 0.51191 0.16926 0.0
C3034 C 0.65074 0.51502 0.14176 0.0
C3035 C 0.62425 0.52975 0.10644 0.0
C3036 C 0.60297 0.53996 0.09841 0.0
C3037 C 0.63024 0.52594 0.13412 0.0
C3038 C 0.58789 0.54549 0.11941 0.0
C3039 C 0.59428 0.5429 0.14693 0.0
H3040 H 0.38591 0.88795 0.95253 0.0
H3041 H 0.32079 0.91994 0.9383 0.0
H3042 H 0.3074 0.88613 0.89395 0.0
H3043 H 0.31406 0.84756 0.85966 0.0
H3044 H 0.37979 0.81656 0.8719 0.0
H3045 H 0.39292 0.84935 0.91744 0.0
C3046 C 0.36896 0.8876 0.93952 0.0
C3047 C 0.35425 0.90613 0.94839 0.0
C3048 C 0.3612 0.86788 0.91433 0.0
C3049 C 0.33221 0.90557 0.93172 0.0
C3050 C 0.3245 0.88625 0.90653 0.0
C3051 C 0.33089 0.84762 0.87276 0.0
C3052 C 0.34565 0.82948 0.86349 0.0
C3053 C 0.33866 0.86712 0.89789 0.0
C3054 C 0.36798 0.8301 0.87953 0.0
C3055 C 0.37557 0.84899 0.90517 0.0
H3056 H 0.95494 0.50512 0.74253 0.0
H3057 H 0.9913 0.59428 0.74809 0.0
H3058 H 1.00093 0.58313 0.70048 0.0
H3059 H 0.00708 0.54694 0.66275 0.0
H3060 H 0.9754 0.45741 0.6605 0.0
H3061 H 0.95471 0.46962 0.70119 0.0
C3062 C 0.9647 0.52212 0.73306 0.0
C3063 C 0.97337 0.55028 0.74861 0.0
C3064 C 0.97073 0.51535 0.70645 0.0
C3065 C 0.98507 0.57244 0.73633 0.0
C3066 C 0.99051 0.56601 0.70928 0.0
C3067 C 0.99475 0.53016 0.67053 0.0
C3068 C 0.9928 0.50136 0.65913 0.0
C3069 C 0.98458 0.53738 0.69482 0.0
C3070 C 0.9771 0.47966 0.66928 0.0
C3071 C 0.96558 0.48667 0.69259 0.0
H3072 H 0.29306 0.27462 0.43853 0.0
H3073 H 0.34433 0.22193 0.44312 0.0
H3074 H 0.35416 0.226 0.39648 0.0
H3075 H 0.34579 0.24245 0.35277 0.0
H3076 H 0.29106 0.29119 0.34918 0.0
H3077 H 0.28526 0.29099 0.39676 0.0
C3078 C 0.30662 0.2642 0.42958 0.0
C3079 C 0.31789 0.24799 0.44443 0.0
C3080 C 0.31153 0.26589 0.40265 0.0
C3081 C 0.3353 0.23453 0.4322 0.0
C3082 C 0.34087 0.23679 0.40546 0.0
C3083 C 0.33277 0.25309 0.36261 0.0
C3084 C 0.31916 0.26719 0.34748 0.0
C3085 C 0.32874 0.25203 0.39021 0.0
C3086 C 0.30215 0.28067 0.36031 0.0
C3087 C 0.29864 0.28042 0.38763 0.0
H3088 H 0.37426 0.62756 0.54319 0.0
H3089 H 0.31754 0.54813 0.53907 0.0
H3090 H 0.34735 0.52133 0.52343 0.0
H3091 H 0.38746 0.52056 0.50513 0.0
H3092 H 0.4445 0.5996 0.50969 0.0
H3093 H 0.41678 0.62668 0.53137 0.0
C3094 C 0.36865 0.60441 0.53934 0.0
C3095 C 0.34376 0.5898 0.54186 0.0
C3096 C 0.38581 0.58915 0.53023 0.0
C3097 C 0.33667 0.55983 0.53722 0.0
C3098 C 0.35361 0.54448 0.5281 0.0
C3099 C 0.39382 0.54369 0.5113 0.0
C3100 C 0.41749 0.55831 0.50553 0.0
C3101 C 0.37788 0.55892 0.52364 0.0
C3102 C 0.42609 0.58815 0.51388 0.0
C3103 C 0.41027 0.60355 0.52613 0.0
H3104 H 0.93942 0.91604 0.56484 0.0
H3105 H 0.89309 0.9698 0.54446 0.0
H3106 H 0.93122 1.00746 0.5429 0.0
H3107 H 0.978 0.02318 0.54267 0.0
H3108 H 0.02334 0.96793 0.56153 0.0
H3109 H 0.9856 0.93322 0.56885 0.0
C3110 C 0.93765 0.93614 0.56045 0.0
C3111 C 0.91343 0.93995 0.55461 0.0
C3112 C 0.95961 0.95755 0.55928 0.0
C3113 C 0.91151 0.96626 0.54912 0.0
C3114 C 0.93334 0.98781 0.54809 0.0
C3115 C 0.97953 1.00383 0.54901 0.0
C3116 C 1.00328 0.99797 0.5515 0.0
C3117 C 0.95752 0.98347 0.55252 0.0
C3118 C 0.00515 0.97272 0.55937 0.0
C3119 C 0.98359 0.95283 0.56348 0.0
H3120 H 0.86583 0.14148 0.29142 0.0
H3121 H 0.9391 0.17406 0.26637 0.0
H3122 H 0.92726 0.21759 0.26081 0.0
H3123 H 0.89561 0.24674 0.26137 0.0
H3124 H 0.82592 0.21817 0.29405 0.0
H3125 H 0.83597 0.17328 0.29683 0.0
C3126 C 0.87949 0.15797 0.28474 0.0
C3127 C 0.90372 0.15319 0.2791 0.0
C3128 C 0.87258 0.18384 0.28199 0.0
C3129 C 0.92051 0.17592 0.27082 0.0
C3130 C 0.91356 0.20116 0.26752 0.0
C3131 C 0.8822 0.23074 0.26892 0.0
C3132 C 0.85829 0.23607 0.27523 0.0
C3133 C 0.88951 0.2054 0.27269 0.0
C3134 C 0.84278 0.21478 0.28638 0.0
C3135 C 0.84923 0.18901 0.28881 0.0
H3136 H 0.70599 0.05453 0.0076 0.0
H3137 H 0.73083 0.11769 0.0837 0.0
H3138 H 0.68794 0.1227 0.08521 0.0
H3139 H 0.6452 0.11559 0.05991 0.0
H3140 H 0.62483 0.06069 0.9795 0.0
H3141 H 0.66423 0.04709 0.98348 0.0
C3142 C 0.70162 0.06819 0.02529 0.0
C3143 C 0.72151 0.08616 0.04501 0.0
C3144 C 0.67754 0.07282 0.02473 0.0
C3145 C 0.71582 0.1037 0.06802 0.0
C3146 C 0.69134 0.1071 0.06857 0.0
C3147 C 0.64878 0.0992 0.04434 0.0
C3148 C 0.63041 0.08535 0.02146 0.0
C3149 C 0.67232 0.09277 0.04632 0.0
C3150 C 0.63716 0.06828 0.99898 0.0
C3151 C 0.65992 0.06094 1.00102 0.0
H3152 H 0.23693 0.48748 0.2696 0.0
H3153 H 0.28129 0.49959 0.20308 0.0
H3154 H 0.31195 0.47767 0.22263 0.0
H3155 H 0.32915 0.46288 0.26275 0.0
H3156 H 0.28635 0.45482 0.33118 0.0
H3157 H 0.25217 0.46885 0.30756 0.0
C3158 C 0.25286 0.48416 0.25899 0.0
C3159 C 0.25732 0.49478 0.23531 0.0
C3160 C 0.27119 0.47408 0.27155 0.0
C3161 C 0.27773 0.49097 0.2213 0.0
C3162 C 0.29544 0.4792 0.23281 0.0
C3163 C 0.31259 0.46507 0.27265 0.0
C3164 C 0.31049 0.45946 0.29902 0.0
C3165 C 0.29308 0.47242 0.25877 0.0
C3166 C 0.28866 0.46074 0.31147 0.0
C3167 C 0.26897 0.46792 0.29771 0.0
H3168 H 0.24169 0.40366 0.03262 0.0
H3169 H 0.31115 0.46994 0.03659 0.0
H3170 H 0.28675 0.50247 0.02666 0.0
H3171 H 0.24604 0.51161 0.01477 0.0
H3172 H 0.17633 0.4456 0.00957 0.0
H3173 H 0.20047 0.41368 0.02267 0.0
C3174 C 0.25148 0.42528 0.0315 0.0
C3175 C 0.27823 0.43425 0.03514 0.0
C3176 C 0.23732 0.44395 0.02559 0.0
C3177 C 0.2906 0.4624 0.03379 0.0
C3178 C 0.27667 0.48106 0.02806 0.0
C3179 C 0.23613 0.49018 0.01634 0.0
C3180 C 0.20951 0.48087 0.01085 0.0
C3181 C 0.25009 0.47192 0.02351 0.0
C3182 C 0.19686 0.4533 0.01373 0.0
C3183 C 0.21065 0.43499 0.02107 0.0
H3184 H 0.93396 0.96179 0.26233 0.0
H3185 H 0.87466 1.0044 0.27174 0.0
H3186 H 0.84402 0.9584 0.27176 0.0
H3187 H 0.8343 0.90519 0.2704 0.0
H3188 H 0.89581 0.86548 0.26175 0.0
H3189 H 0.92474 0.91077 0.26034 0.0
C3190 C 0.91433 0.96137 0.26427 0.0
C3191 C 0.907 0.98719 0.26694 0.0
C3192 C 0.89691 0.9349 0.26455 0.0
C3193 C 0.88122 0.98533 0.2695 0.0
C3194 C 0.86361 0.95882 0.2696 0.0
C3195 C 0.85396 0.90634 0.26797 0.0
C3196 C 0.86239 0.88112 0.26618 0.0
C3197 C 0.8712 0.93328 0.26729 0.0
C3198 C 0.88824 0.88381 0.26329 0.0
C3199 C 0.90507 0.91001 0.26244 0.0
H3200 H 0.72923 0.13833 0.73161 0.0
H3201 H 0.80106 0.11758 0.73401 0.0
H3202 H 0.82288 0.16719 0.75797 0.0
H3203 H 0.82047 0.21593 0.77943 0.0
H3204 H 0.74739 0.23358 0.77867 0.0
H3205 H 0.72649 0.18469 0.75376 0.0
C3206 C 0.74977 0.14472 0.73684 0.0
C3207 C 0.76379 0.12484 0.73054 0.0
C3208 C 0.76159 0.17218 0.7517 0.0
C3209 C 0.79016 0.13297 0.73832 0.0
C3210 C 0.80245 0.16104 0.75229 0.0
C3211 C 0.79999 0.20869 0.77386 0.0
C3212 C 0.78522 0.22773 0.78007 0.0
C3213 C 0.78823 0.18068 0.75941 0.0
C3214 C 0.75877 0.2188 0.77355 0.0
C3215 C 0.74696 0.19111 0.75928 0.0
loop_
_geom_bond_atom_site_label_1
_geom_bond_atom_site_label_2
_geom_bond_distance
_geom_bond_site_symmetry_2
_ccdc_geom_bond_type
Zn0 O3 2.031 . S
Zn0 O5 2.049 . S
Zn0 O10 2.067 . S
Zn1 O2 1.962 . S
Zn1 O4 1.986 . S
Zn1 O6 1.996 . S
Zn1 O9 1.943 . S
O2 Zn1 1.962 . S
O2 C7 1.254 . S
O3 Zn0 2.031 . S
O3 C7 1.269 . S
O4 Zn1 1.986 . S
O4 C11 1.262 . S
O5 Zn0 2.049 . S
O5 C13 1.260 . S
O6 Zn1 1.996 . S
O6 C13 1.257 . S
C7 O2 1.254 . S
C7 O3 1.269 . S
C8 O9 1.249 . S
C8 O10 1.270 . S
O9 Zn1 1.943 . S
O9 C8 1.249 . S
O10 Zn0 2.067 . S
O10 C8 1.270 . S
C11 O4 1.262 . S
C11 O12 1.232 . S
O12 C11 1.232 . S
C13 O5 1.260 . S
C13 O6 1.257 . S
Zn14 O17 2.031 1_455 S
Zn14 O19 2.049 . S
Zn14 O24 2.067 . S
Zn15 O16 1.937 1_455 S
Zn15 O18 1.996 . S
Zn15 O20 2.016 . S
Zn15 O23 1.948 1_455 S
O16 Zn15 1.937 1_655 S
O16 C21 1.254 . S
O17 Zn14 2.031 1_655 S
O17 C21 1.269 . S
O18 Zn15 1.996 . S
O18 C25 1.262 . S
O19 Zn14 2.049 . S
O19 C27 1.260 . S
O20 Zn15 2.016 . S
O20 C27 1.257 . S
C21 O16 1.254 . S
C21 O17 1.269 . S
C22 O23 1.249 . S
C22 O24 1.270 1_655 S
O23 Zn15 1.948 1_655 S
O23 C22 1.249 . S
O24 Zn14 2.067 . S
O24 C22 1.270 1_455 S
C25 O18 1.262 . S
C25 O26 1.232 1_455 S
O26 C25 1.232 1_655 S
C27 O19 1.260 . S
C27 O20 1.257 . S
Zn28 O31 2.031 . S
Zn28 O33 2.049 . S
Zn28 O38 2.067 . S
Zn29 O30 1.962 . S
Zn29 O32 1.986 . S
Zn29 O34 1.996 . S
Zn29 O37 1.943 . S
O30 Zn29 1.962 . S
O30 C35 1.254 . S
O31 Zn28 2.031 . S
O31 C35 1.269 . S
O32 Zn29 1.986 . S
O32 C39 1.262 . S
O33 Zn28 2.049 . S
O33 C41 1.260 . S
O34 Zn29 1.996 . S
O34 C41 1.257 . S
C35 O30 1.254 . S
C35 O31 1.269 . S
C36 O37 1.249 . S
C36 O38 1.270 . S
O37 Zn29 1.943 . S
O37 C36 1.249 . S
O38 Zn28 2.067 . S
O38 C36 1.270 . S
C39 O32 1.262 . S
C39 O40 1.232 . S
O40 C39 1.232 . S
C41 O33 1.260 . S
C41 O34 1.257 . S
Zn42 O45 2.031 . S
Zn42 O47 2.049 . S
Zn42 O52 2.067 . S
Zn43 O44 1.962 . S
Zn43 O46 1.986 . S
Zn43 O48 1.996 . S
Zn43 O51 1.943 . S
O44 Zn43 1.962 . S
O44 C49 1.254 . S
O45 Zn42 2.031 . S
O45 C49 1.269 . S
O46 Zn43 1.986 . S
O46 C53 1.262 . S
O47 Zn42 2.049 . S
O47 C55 1.260 . S
O48 Zn43 1.996 . S
O48 C55 1.257 . S
C49 O44 1.254 . S
C49 O45 1.269 . S
C50 O51 1.249 . S
C50 O52 1.270 . S
O51 Zn43 1.943 . S
O51 C50 1.249 . S
O52 Zn42 2.067 . S
O52 C50 1.270 . S
C53 O46 1.262 . S
C53 O54 1.232 . S
O54 C53 1.232 . S
C55 O47 1.260 . S
C55 O48 1.257 . S
Zn56 O59 2.031 . S
Zn56 O61 2.049 . S
Zn56 O66 2.067 . S
Zn57 O58 1.962 . S
Zn57 O60 1.986 . S
Zn57 O62 1.996 . S
Zn57 O65 1.943 . S
O58 Zn57 1.962 . S
O58 C63 1.254 . S
O59 Zn56 2.031 . S
O59 C63 1.269 . S
O60 Zn57 1.986 . S
O60 C67 1.262 . S
O61 Zn56 2.049 . S
O61 C69 1.260 . S
O62 Zn57 1.996 . S
O62 C69 1.257 . S
C63 O58 1.254 . S
C63 O59 1.269 . S
C64 O65 1.249 . S
C64 O66 1.270 . S
O65 Zn57 1.943 . S
O65 C64 1.249 . S
O66 Zn56 2.067 . S
O66 C64 1.270 . S
C67 O60 1.262 . S
C67 O68 1.232 . S
O68 C67 1.232 . S
C69 O61 1.260 . S
C69 O62 1.257 . S
Zn70 O73 2.031 . S
Zn70 O75 2.049 . S
Zn70 O80 2.067 . S
Zn71 O72 1.962 . S
Zn71 O74 1.986 . S
Zn71 O76 1.996 . S
Zn71 O79 1.943 . S
O72 Zn71 1.962 . S
O72 C77 1.254 . S
O73 Zn70 2.031 . S
O73 C77 1.269 . S
O74 Zn71 1.986 . S
O74 C81 1.262 . S
O75 Zn70 2.049 . S
O75 C83 1.260 . S
O76 Zn71 1.996 . S
O76 C83 1.257 . S
C77 O72 1.254 . S
C77 O73 1.269 . S
C78 O79 1.249 . S
C78 O80 1.270 . S
O79 Zn71 1.943 . S
O79 C78 1.249 . S
O80 Zn70 2.067 . S
O80 C78 1.270 . S
C81 O74 1.262 . S
C81 O82 1.232 . S
O82 C81 1.232 . S
C83 O75 1.260 . S
C83 O76 1.257 . S
Zn84 O87 2.031 . S
Zn84 O89 2.049 . S
Zn84 O94 2.067 . S
Zn85 O86 1.962 . S
Zn85 O88 1.986 . S
Zn85 O90 1.996 . S
Zn85 O93 1.943 . S
O86 Zn85 1.962 . S
O86 C91 1.254 . S
O87 Zn84 2.031 . S
O87 C91 1.269 . S
O88 Zn85 1.986 . S
O88 C95 1.262 . S
O89 Zn84 2.049 . S
O89 C97 1.260 . S
O90 Zn85 1.996 . S
O90 C97 1.257 . S
C91 O86 1.254 . S
C91 O87 1.269 . S
C92 O93 1.249 . S
C92 O94 1.270 . S
O93 Zn85 1.943 . S
O93 C92 1.249 . S
O94 Zn84 2.067 . S
O94 C92 1.270 . S
C95 O88 1.262 . S
C95 O96 1.232 . S
O96 C95 1.232 . S
C97 O89 1.260 . S
C97 O90 1.257 . S
Zn98 O101 2.031 1_655 S
Zn98 O103 2.049 . S
Zn98 O108 2.067 . S
Zn99 O100 1.962 . S
Zn99 O102 1.986 . S
Zn99 O104 1.996 . S
Zn99 O107 1.943 . S
O100 Zn99 1.962 . S
O100 C105 1.254 . S
O101 Zn98 2.031 1_455 S
O101 C105 1.269 . S
O102 Zn99 1.986 . S
O102 C109 1.262 . S
O103 Zn98 2.049 . S
O103 C111 1.260 1_655 S
O104 Zn99 1.996 . S
O104 C111 1.257 . S
C105 O100 1.254 . S
C105 O101 1.269 . S
C106 O107 1.249 1_655 S
C106 O108 1.270 . S
O107 Zn99 1.943 . S
O107 C106 1.249 1_455 S
O108 Zn98 2.067 . S
O108 C106 1.270 . S
C109 O102 1.262 . S
C109 O110 1.232 . S
O110 C109 1.232 . S
C111 O103 1.260 1_455 S
C111 O104 1.257 . S
Zn112 O115 2.031 . S
Zn112 O117 2.049 . S
Zn112 O122 2.067 . S
Zn113 O114 1.962 . S
Zn113 O116 1.986 . S
Zn113 O118 1.996 . S
Zn113 O121 1.943 1_545 S
O114 Zn113 1.962 . S
O114 C119 1.254 . S
O115 Zn112 2.031 . S
O115 C119 1.269 1_565 S
O116 Zn113 1.986 . S
O116 C123 1.262 . S
O117 Zn112 2.049 . S
O117 C125 1.260 1_565 S
O118 Zn113 1.996 . S
O118 C125 1.257 . S
C119 O114 1.254 . S
C119 O115 1.269 1_545 S
C120 O121 1.249 . S
C120 O122 1.270 . S
O121 Zn113 1.943 1_565 S
O121 C120 1.249 . S
O122 Zn112 2.067 . S
O122 C120 1.270 . S
C123 O116 1.262 . S
C123 O124 1.232 . S
O124 C123 1.232 . S
C125 O117 1.260 1_545 S
C125 O118 1.257 . S
Zn126 O129 2.031 . S
Zn126 O131 2.049 . S
Zn126 O136 2.067 . S
Zn127 O128 1.962 . S
Zn127 O130 1.986 . S
Zn127 O132 1.996 . S
Zn127 O135 1.943 . S
O128 Zn127 1.962 . S
O128 C133 1.254 . S
O129 Zn126 2.031 . S
O129 C133 1.269 . S
O130 Zn127 1.986 . S
O130 C137 1.262 . S
O131 Zn126 2.049 . S
O131 C139 1.260 . S
O132 Zn127 1.996 . S
O132 C139 1.257 . S
C133 O128 1.254 . S
C133 O129 1.269 . S
C134 O135 1.249 . S
C134 O136 1.270 . S
O135 Zn127 1.943 . S
O135 C134 1.249 . S
O136 Zn126 2.067 . S
O136 C134 1.270 . S
C137 O130 1.262 . S
C137 O138 1.232 . S
O138 C137 1.232 . S
C139 O131 1.260 . S
C139 O132 1.257 . S
Zn140 O143 2.031 . S
Zn140 O145 2.049 . S
Zn140 O150 2.067 . S
Zn141 O142 1.962 . S
Zn141 O144 1.986 . S
Zn141 O146 1.996 . S
Zn141 O149 1.943 1_565 S
O142 Zn141 1.962 . S
O142 C147 1.254 1_565 S
O143 Zn140 2.031 . S
O143 C147 1.269 . S
O144 Zn141 1.986 . S
O144 C151 1.262 . S
O145 Zn140 2.049 . S
O145 C153 1.260 1_545 S
O146 Zn141 1.996 . S
O146 C153 1.257 . S
C147 O142 1.254 1_545 S
C147 O143 1.269 . S
C148 O149 1.249 . S
C148 O150 1.270 . S
O149 Zn141 1.943 1_545 S
O149 C148 1.249 . S
O150 Zn140 2.067 . S
O150 C148 1.270 . S
C151 O144 1.262 . S
C151 O152 1.232 . S
O152 C151 1.232 . S
C153 O145 1.260 1_565 S
C153 O146 1.257 . S
Zn154 O157 2.031 1_554 S
Zn154 O159 2.049 . S
Zn154 O164 2.067 . S
Zn155 O156 1.962 1_554 S
Zn155 O158 1.986 . S
Zn155 O160 1.996 . S
Zn155 O163 1.943 . S
O156 Zn155 1.962 1_556 S
O156 C161 1.254 . S
O157 Zn154 2.031 1_556 S
O157 C161 1.269 . S
O158 Zn155 1.986 . S
O158 C165 1.262 . S
O159 Zn154 2.049 . S
O159 C167 1.260 . S
O160 Zn155 1.996 . S
O160 C167 1.257 . S
C161 O156 1.254 . S
C161 O157 1.269 . S
C162 O163 1.249 . S
C162 O164 1.270 . S
O163 Zn155 1.943 . S
O163 C162 1.249 . S
O164 Zn154 2.067 . S
O164 C162 1.270 . S
C165 O158 1.262 . S
C165 O166 1.232 1_554 S
O166 C165 1.232 1_556 S
C167 O159 1.260 . S
C167 O160 1.257 . S
Zn168 O171 2.031 . S
Zn168 O173 2.049 . S
Zn168 O178 2.067 . S
Zn169 O170 1.960 1_554 S
Zn169 O172 1.986 . S
Zn169 O174 1.996 . S
Zn169 O177 1.943 . S
O170 Zn169 1.960 1_556 S
O170 C175 1.255 . S
O171 Zn168 2.031 . S
O171 C175 1.269 1_554 S
O172 Zn169 1.986 . S
O172 C179 1.262 . S
O173 Zn168 2.049 . S
O173 C181 1.260 . S
O174 Zn169 1.996 . S
O174 C181 1.257 . S
C175 O170 1.255 . S
C175 O171 1.269 1_556 S
C176 O177 1.249 . S
C176 O178 1.270 . S
O177 Zn169 1.943 . S
O177 C176 1.249 . S
O178 Zn168 2.067 . S
O178 C176 1.270 . S
C179 O172 1.262 . S
C179 O180 1.232 . S
O180 C179 1.232 . S
C181 O173 1.260 . S
C181 O174 1.257 . S
Zn182 O185 2.031 . S
Zn182 O187 2.049 . S
Zn182 O192 2.067 . S
Zn183 O184 1.962 . S
Zn183 O186 1.986 . S
Zn183 O188 1.996 . S
Zn183 O191 1.943 . S
O184 Zn183 1.962 . S
O184 C189 1.254 1_554 S
O185 Zn182 2.031 . S
O185 C189 1.269 1_554 S
O186 Zn183 1.986 . S
O186 C193 1.262 . S
O187 Zn182 2.049 . S
O187 C195 1.260 . S
O188 Zn183 1.996 . S
O188 C195 1.257 . S
C189 O184 1.254 1_556 S
C189 O185 1.269 1_556 S
C190 O191 1.249 . S
C190 O192 1.270 . S
O191 Zn183 1.943 . S
O191 C190 1.249 . S
O192 Zn182 2.067 . S
O192 C190 1.270 . S
C193 O186 1.262 . S
C193 O194 1.232 . S
O194 C193 1.232 . S
C195 O187 1.260 . S
C195 O188 1.257 . S
Zn196 O199 2.031 . S
Zn196 O201 2.049 . S
Zn196 O206 2.067 . S
Zn197 O198 1.962 . S
Zn197 O200 1.986 . S
Zn197 O202 1.996 . S
Zn197 O205 1.943 . S
O198 Zn197 1.962 . S
O198 C203 1.254 . S
O199 Zn196 2.031 . S
O199 C203 1.269 . S
O200 Zn197 1.986 . S
O200 C207 1.262 . S
O201 Zn196 2.049 . S
O201 C209 1.260 . S
O202 Zn197 1.996 . S
O202 C209 1.257 . S
C203 O198 1.254 . S
C203 O199 1.269 . S
C204 O205 1.249 . S
C204 O206 1.270 . S
O205 Zn197 1.943 . S
O205 C204 1.249 . S
O206 Zn196 2.067 . S
O206 C204 1.270 . S
C207 O200 1.262 . S
C207 O208 1.232 . S
O208 C207 1.232 . S
C209 O201 1.260 . S
C209 O202 1.257 . S
Zn210 O213 2.031 . S
Zn210 O215 2.049 . S
Zn210 O220 2.067 . S
Zn211 O212 1.962 . S
Zn211 O214 1.986 . S
Zn211 O216 1.996 . S
Zn211 O219 1.943 . S
O212 Zn211 1.962 . S
O212 C217 1.254 . S
O213 Zn210 2.031 . S
O213 C217 1.269 . S
O214 Zn211 1.986 . S
O214 C221 1.262 . S
O215 Zn210 2.049 . S
O215 C223 1.260 . S
O216 Zn211 1.996 . S
O216 C223 1.257 . S
C217 O212 1.254 . S
C217 O213 1.269 . S
C218 O219 1.249 . S
C218 O220 1.270 . S
O219 Zn211 1.943 . S
O219 C218 1.249 . S
O220 Zn210 2.067 . S
O220 C218 1.270 . S
C221 O214 1.262 . S
C221 O222 1.232 . S
O222 C221 1.232 . S
C223 O215 1.260 . S
C223 O216 1.257 . S
Zn224 O227 2.031 . S
Zn224 O229 2.049 . S
Zn224 O234 2.067 . S
Zn225 O226 1.962 . S
Zn225 O228 1.986 . S
Zn225 O230 1.996 . S
Zn225 O233 1.943 . S
O226 Zn225 1.962 . S
O226 C231 1.254 . S
O227 Zn224 2.031 . S
O227 C231 1.269 . S
O228 Zn225 1.986 . S
O228 C235 1.262 . S
O229 Zn224 2.049 . S
O229 C237 1.260 . S
O230 Zn225 1.996 . S
O230 C237 1.257 . S
C231 O226 1.254 . S
C231 O227 1.269 . S
C232 O233 1.249 . S
C232 O234 1.270 . S
O233 Zn225 1.943 . S
O233 C232 1.249 . S
O234 Zn224 2.067 . S
O234 C232 1.270 . S
C235 O228 1.262 . S
C235 O236 1.232 . S
O236 C235 1.232 . S
C237 O229 1.260 . S
C237 O230 1.257 . S
Zn238 O241 2.031 . S
Zn238 O243 2.049 . S
Zn238 O248 2.067 . S
Zn239 O240 1.962 . S
Zn239 O242 1.986 . S
Zn239 O244 1.996 . S
Zn239 O247 1.943 . S
O240 Zn239 1.962 . S
O240 C245 1.254 . S
O241 Zn238 2.031 . S
O241 C245 1.269 . S
O242 Zn239 1.986 . S
O242 C249 1.262 . S
O243 Zn238 2.049 . S
O243 C251 1.260 . S
O244 Zn239 1.996 . S
O244 C251 1.257 . S
C245 O240 1.254 . S
C245 O241 1.269 . S
C246 O247 1.249 . S
C246 O248 1.270 . S
O247 Zn239 1.943 . S
O247 C246 1.249 . S
O248 Zn238 2.067 . S
O248 C246 1.270 . S
C249 O242 1.262 . S
C249 O250 1.232 . S
O250 C249 1.232 . S
C251 O243 1.260 . S
C251 O244 1.257 . S
Zn252 O255 2.031 . S
Zn252 O257 2.049 . S
Zn252 O262 2.067 . S
Zn253 O254 1.962 . S
Zn253 O256 1.986 . S
Zn253 O258 1.996 . S
Zn253 O261 1.943 . S
O254 Zn253 1.962 . S
O254 C259 1.254 . S
O255 Zn252 2.031 . S
O255 C259 1.269 . S
O256 Zn253 1.986 . S
O256 C263 1.262 . S
O257 Zn252 2.049 . S
O257 C265 1.260 . S
O258 Zn253 1.996 . S
O258 C265 1.257 . S
C259 O254 1.254 . S
C259 O255 1.269 . S
C260 O261 1.249 . S
C260 O262 1.270 . S
O261 Zn253 1.943 . S
O261 C260 1.249 . S
O262 Zn252 2.067 . S
O262 C260 1.270 . S
C263 O256 1.262 . S
C263 O264 1.232 . S
O264 C263 1.232 . S
C265 O257 1.260 . S
C265 O258 1.257 . S
Zn266 O269 2.031 . S
Zn266 O271 2.049 . S
Zn266 O276 2.067 . S
Zn267 O268 1.962 . S
Zn267 O270 1.986 . S
Zn267 O272 1.996 . S
Zn267 O275 1.943 . S
O268 Zn267 1.962 . S
O268 C273 1.254 . S
O269 Zn266 2.031 . S
O269 C273 1.269 . S
O270 Zn267 1.986 . S
O270 C277 1.262 . S
O271 Zn266 2.049 . S
O271 C279 1.260 . S
O272 Zn267 1.996 . S
O272 C279 1.257 . S
C273 O268 1.254 . S
C273 O269 1.269 . S
C274 O275 1.249 . S
C274 O276 1.270 . S
O275 Zn267 1.943 . S
O275 C274 1.249 . S
O276 Zn266 2.067 . S
O276 C274 1.270 . S
C277 O270 1.262 . S
C277 O278 1.232 . S
O278 C277 1.232 . S
C279 O271 1.260 . S
C279 O272 1.257 . S
Zn280 O283 2.031 1_554 S
Zn280 O285 2.049 . S
Zn280 O290 2.067 . S
Zn281 O282 1.988 . S
Zn281 O284 1.972 1_556 S
Zn281 O286 1.977 1_556 S
Zn281 O289 1.940 . S
O282 Zn281 1.988 . S
O282 C287 1.254 . S
O283 Zn280 2.031 1_556 S
O283 C287 1.269 . S
O284 Zn281 1.972 1_554 S
O284 C291 1.262 1_554 S
O285 Zn280 2.049 . S
O285 C293 1.260 . S
O286 Zn281 1.977 1_554 S
O286 C293 1.257 . S
C287 O282 1.254 . S
C287 O283 1.269 . S
C288 O289 1.249 . S
C288 O290 1.270 1_556 S
O289 Zn281 1.940 . S
O289 C288 1.249 . S
O290 Zn280 2.067 . S
O290 C288 1.270 1_554 S
C291 O284 1.262 1_556 S
C291 O292 1.232 . S
O292 C291 1.232 . S
C293 O285 1.260 . S
C293 O286 1.257 . S
Zn294 O297 2.031 . S
Zn294 O299 2.049 . S
Zn294 O304 2.067 . S
Zn295 O296 1.962 . S
Zn295 O298 1.986 . S
Zn295 O300 1.996 . S
Zn295 O303 1.943 . S
O296 Zn295 1.962 . S
O296 C301 1.254 . S
O297 Zn294 2.031 . S
O297 C301 1.269 . S
O298 Zn295 1.986 . S
O298 C305 1.262 . S
O299 Zn294 2.049 . S
O299 C307 1.260 . S
O300 Zn295 1.996 . S
O300 C307 1.257 . S
C301 O296 1.254 . S
C301 O297 1.269 . S
C302 O303 1.249 . S
C302 O304 1.270 . S
O303 Zn295 1.943 . S
O303 C302 1.249 . S
O304 Zn294 2.067 . S
O304 C302 1.270 . S
C305 O298 1.262 . S
C305 O306 1.232 . S
O306 C305 1.232 . S
C307 O299 1.260 . S
C307 O300 1.257 . S
Zn308 O311 2.031 . S
Zn308 O313 2.049 . S
Zn308 O318 2.067 . S
Zn309 O310 1.962 . S
Zn309 O312 1.986 . S
Zn309 O314 1.996 . S
Zn309 O317 1.943 . S
O310 Zn309 1.962 . S
O310 C315 1.254 . S
O311 Zn308 2.031 . S
O311 C315 1.269 . S
O312 Zn309 1.986 . S
O312 C319 1.262 . S
O313 Zn308 2.049 . S
O313 C321 1.260 . S
O314 Zn309 1.996 . S
O314 C321 1.257 . S
C315 O310 1.254 . S
C315 O311 1.269 . S
C316 O317 1.249 . S
C316 O318 1.270 . S
O317 Zn309 1.943 . S
O317 C316 1.249 . S
O318 Zn308 2.067 . S
O318 C316 1.270 . S
C319 O312 1.262 . S
C319 O320 1.232 . S
O320 C319 1.232 . S
C321 O313 1.260 . S
C321 O314 1.257 . S
Zn322 O325 2.031 . S
Zn322 O327 2.049 . S
Zn322 O332 2.067 . S
Zn323 O324 1.962 . S
Zn323 O326 1.986 . S
Zn323 O328 1.996 . S
Zn323 O331 1.943 . S
O324 Zn323 1.962 . S
O324 C329 1.254 . S
O325 Zn322 2.031 . S
O325 C329 1.269 . S
O326 Zn323 1.986 . S
O326 C333 1.262 . S
O327 Zn322 2.049 . S
O327 C335 1.260 . S
O328 Zn323 1.996 . S
O328 C335 1.257 . S
C329 O324 1.254 . S
C329 O325 1.269 . S
C330 O331 1.249 . S
C330 O332 1.270 . S
O331 Zn323 1.943 . S
O331 C330 1.249 . S
O332 Zn322 2.067 . S
O332 C330 1.270 . S
C333 O326 1.262 . S
C333 O334 1.232 . S
O334 C333 1.232 . S
C335 O327 1.260 . S
C335 O328 1.257 . S
Eu336 N367 2.657 1_545 S
Eu336 N374 2.609 1_544 S
Eu336 O380 2.558 1_454 S
Eu336 O381 2.612 . S
Eu336 O383 2.339 . S
Eu336 O384 2.563 . S
Eu336 O385 2.419 1_455 S
Eu336 O387 2.380 . S
Eu336 O388 2.432 1_554 S
Eu336 C400 2.848 1_454 S
C337 C340 1.429 . S
C337 C341 1.411 . S
C337 N344 1.377 . S
C338 C340 1.420 . S
C338 C342 1.423 . S
C338 C350 1.418 . S
C339 C341 1.420 . S
C339 C342 1.351 . S
C339 H362 0.931 . S
C340 C337 1.429 . S
C340 C338 1.420 . S
C340 N348 1.362 . S
C341 C337 1.411 . S
C341 C339 1.420 . S
C341 C346 1.395 . S
C342 C338 1.423 . S
C342 C339 1.351 . S
C342 H354 0.930 . S
C343 C345 1.400 . S
C343 C346 1.386 . S
C343 H355 0.930 . S
N344 C337 1.377 . S
N344 C345 1.321 . S
N344 Eu347 2.609 . S
C345 C343 1.400 . S
C345 N344 1.321 . S
C345 H352 0.930 . S
C346 C341 1.395 . S
C346 C343 1.386 . S
C346 H365 0.930 . S
Eu347 N344 2.609 . S
Eu347 N348 2.657 . S
Eu347 O381 2.380 . S
Eu347 O382 2.432 . S
Eu347 O386 2.558 . S
Eu347 O387 2.612 . S
Eu347 O389 2.339 1_554 S
Eu347 O390 2.563 . S
Eu347 O391 2.419 . S
Eu347 C411 2.848 . S
N348 C340 1.362 . S
N348 Eu347 2.657 . S
N348 C349 1.334 1_554 S
C349 N348 1.334 1_556 S
C349 C351 1.413 . S
C349 H356 0.929 . S
C350 C338 1.418 . S
C350 C351 1.356 1_554 S
C350 H358 0.915 1_554 S
C351 C349 1.413 . S
C351 C350 1.356 1_556 S
C351 H353 0.930 . S
H352 C345 0.930 . S
H353 C351 0.930 . S
H354 C342 0.930 . S
H355 C343 0.930 . S
H356 C349 0.929 . S
H357 C371 0.930 . S
H358 C350 0.915 1_556 S
H359 C377 0.930 . S
H360 C368 0.929 . S
H361 C375 0.930 . S
H362 C339 0.931 . S
H363 C369 0.930 . S
H364 C402 0.930 1_554 S
H365 C346 0.930 . S
H366 C401 0.931 . S
N367 Eu336 2.657 1_565 S
N367 C368 1.334 . S
N367 C372 1.362 . S
C368 H360 0.929 . S
C368 N367 1.334 . S
C368 C371 1.413 . S
C369 H363 0.930 . S
C369 C370 1.392 . S
C369 C371 1.367 1_655 S
C370 C369 1.392 . S
C370 C372 1.420 1_655 S
C370 C402 1.423 1_554 S
C371 H357 0.930 . S
C371 C368 1.413 . S
C371 C369 1.367 1_455 S
C372 N367 1.362 . S
C372 C370 1.420 1_455 S
C372 C376 1.429 1_554 S
H373 C378 0.930 . S
N374 Eu336 2.609 1_566 S
N374 C376 1.377 . S
N374 C377 1.321 . S
C375 H361 0.930 . S
C375 C377 1.400 1_655 S
C375 C378 1.386 . S
C376 C372 1.429 1_556 S
C376 N374 1.377 . S
C376 C379 1.411 1_455 S
C377 H359 0.930 . S
C377 N374 1.321 . S
C377 C375 1.400 1_455 S
C378 H373 0.930 . S
C378 C375 1.386 . S
C378 C379 1.395 . S
C379 C376 1.411 1_655 S
C379 C378 1.395 . S
C379 C401 1.420 . S
O380 Eu336 2.558 1_656 S
O380 C400 1.257 . S
O381 Eu336 2.612 . S
O381 Eu347 2.380 . S
O381 C392 1.276 . S
O382 Eu347 2.432 . S
O382 C399 1.264 . S
O383 Eu336 2.339 . S
O383 C399 1.254 . S
O384 Eu336 2.563 . S
O384 C392 1.235 . S
O385 Eu336 2.419 1_655 S
O385 C400 1.249 1_554 S
O386 Eu347 2.558 . S
O386 C411 1.257 . S
O387 Eu336 2.380 . S
O387 Eu347 2.612 . S
O387 C403 1.276 1_545 S
O388 Eu336 2.432 1_556 S
O388 C410 1.264 . S
O389 Eu347 2.339 1_556 S
O389 C410 1.254 . S
O390 Eu347 2.563 . S
O390 C403 1.235 1_545 S
O391 Eu347 2.419 . S
O391 C411 1.249 . S
C392 O381 1.276 . S
C392 O384 1.235 . S
C393 C395 1.393 1_556 S
C393 C397 1.395 . S
C393 C400 1.492 . S
C394 C395 1.392 1_556 S
C394 C396 1.386 . S
C395 C393 1.393 1_554 S
C395 C394 1.392 1_554 S
C395 H412 0.930 . S
C396 C394 1.386 . S
C396 C398 1.395 . S
C396 H413 0.930 . S
C397 C393 1.395 . S
C397 C398 1.379 . S
C397 H414 0.930 . S
C398 C396 1.395 . S
C398 C397 1.379 . S
C398 H415 0.930 . S
C399 O382 1.264 . S
C399 O383 1.254 . S
C400 Eu336 2.848 1_656 S
C400 O380 1.257 . S
C400 O385 1.249 1_556 S
C400 C393 1.492 . S
C401 H366 0.931 . S
C401 C379 1.420 . S
C401 C402 1.351 . S
C402 H364 0.930 1_556 S
C402 C370 1.423 1_556 S
C402 C401 1.351 . S
C403 O387 1.276 1_565 S
C403 O390 1.235 1_565 S
C404 C405 1.393 . S
C404 C408 1.395 . S
C404 C411 1.492 . S
C405 C404 1.393 . S
C405 C406 1.392 . S
C405 H416 0.930 . S
C406 C405 1.392 . S
C406 C407 1.386 . S
C407 C406 1.386 . S
C407 C409 1.395 . S
C407 H417 0.930 . S
C408 C404 1.395 . S
C408 C409 1.379 . S
C408 H418 0.930 . S
C409 C407 1.395 . S
C409 C408 1.379 . S
C409 H419 0.930 . S
C410 O388 1.264 . S
C410 O389 1.254 . S
C411 Eu347 2.848 . S
C411 O386 1.257 . S
C411 O391 1.249 . S
C411 C404 1.492 . S
H412 C395 0.930 . S
H413 C396 0.930 . S
H414 C397 0.930 . S
H415 C398 0.930 . S
H416 C405 0.930 . S
H417 C407 0.930 . S
H418 C408 0.930 . S
H419 C409 0.930 . S
Eu420 N451 2.657 . S
Eu420 N458 2.609 . S
Eu420 O464 2.558 . S
Eu420 O465 2.612 . S
Eu420 O467 2.339 . S
Eu420 O468 2.563 . S
Eu420 O469 2.419 . S
Eu420 O471 2.380 . S
Eu420 O472 2.432 . S
Eu420 C484 2.848 . S
C421 C424 1.429 . S
C421 C425 1.411 . S
C421 N428 1.377 . S
C422 C424 1.420 . S
C422 C426 1.423 . S
C422 C434 1.392 . S
C423 C425 1.420 . S
C423 C426 1.351 . S
C423 H446 0.931 . S
C424 C421 1.429 . S
C424 C422 1.420 . S
C424 N432 1.362 . S
C425 C421 1.411 . S
C425 C423 1.420 . S
C425 C430 1.395 . S
C426 C422 1.423 . S
C426 C423 1.351 . S
C426 H438 0.930 . S
C427 C429 1.400 . S
C427 C430 1.386 . S
C427 H439 0.930 . S
N428 C421 1.377 . S
N428 C429 1.321 . S
N428 Eu431 2.609 . S
C429 C427 1.400 . S
C429 N428 1.321 . S
C429 H436 0.930 . S
C430 C425 1.395 . S
C430 C427 1.386 . S
C430 H449 0.930 . S
Eu431 N428 2.609 . S
Eu431 N432 2.657 . S
Eu431 O465 2.380 . S
Eu431 O466 2.432 . S
Eu431 O470 2.558 . S
Eu431 O471 2.612 . S
Eu431 O473 2.339 . S
Eu431 O474 2.563 . S
Eu431 O475 2.419 . S
Eu431 C495 2.848 . S
N432 C424 1.362 . S
N432 Eu431 2.657 . S
N432 C433 1.334 . S
C433 N432 1.334 . S
C433 C435 1.413 . S
C433 H440 0.929 . S
C434 C422 1.392 . S
C434 C435 1.367 . S
C434 H442 0.930 . S
C435 C433 1.413 . S
C435 C434 1.367 . S
C435 H437 0.930 . S
H436 C429 0.930 . S
H437 C435 0.930 . S
H438 C426 0.930 . S
H439 C427 0.930 . S
H440 C433 0.929 . S
H441 C455 0.930 . S
H442 C434 0.930 . S
H443 C461 0.930 . S
H444 C452 0.929 . S
H445 C459 0.930 . S
H446 C423 0.931 . S
H447 C453 0.930 . S
H448 C486 0.930 . S
H449 C430 0.930 . S
H450 C485 0.931 . S
N451 Eu420 2.657 . S
N451 C452 1.334 . S
N451 C456 1.362 . S
C452 H444 0.929 . S
C452 N451 1.334 . S
C452 C455 1.413 . S
C453 H447 0.930 . S
C453 C454 1.392 . S
C453 C455 1.367 . S
C454 C453 1.392 . S
C454 C456 1.420 . S
C454 C486 1.423 . S
C455 H441 0.930 . S
C455 C452 1.413 . S
C455 C453 1.367 . S
C456 N451 1.362 . S
C456 C454 1.420 . S
C456 C460 1.429 . S
H457 C462 0.930 . S
N458 Eu420 2.609 . S
N458 C460 1.377 . S
N458 C461 1.321 . S
C459 H445 0.930 . S
C459 C461 1.400 . S
C459 C462 1.386 . S
C460 C456 1.429 . S
C460 N458 1.377 . S
C460 C463 1.411 . S
C461 H443 0.930 . S
C461 N458 1.321 . S
C461 C459 1.400 . S
C462 H457 0.930 . S
C462 C459 1.386 . S
C462 C463 1.395 . S
C463 C460 1.411 . S
C463 C462 1.395 . S
C463 C485 1.420 . S
O464 Eu420 2.558 . S
O464 C484 1.257 . S
O465 Eu420 2.612 . S
O465 Eu431 2.380 . S
O465 C476 1.276 . S
O466 Eu431 2.432 . S
O466 C483 1.264 . S
O467 Eu420 2.339 . S
O467 C483 1.254 . S
O468 Eu420 2.563 . S
O468 C476 1.235 . S
O469 Eu420 2.419 . S
O469 C484 1.249 . S
O470 Eu431 2.558 . S
O470 C495 1.257 . S
O471 Eu420 2.380 . S
O471 Eu431 2.612 . S
O471 C487 1.276 . S
O472 Eu420 2.432 . S
O472 C494 1.264 . S
O473 Eu431 2.339 . S
O473 C494 1.254 . S
O474 Eu431 2.563 . S
O474 C487 1.235 . S
O475 Eu431 2.419 . S
O475 C495 1.249 . S
C476 O465 1.276 . S
C476 O468 1.235 . S
C477 C479 1.393 . S
C477 C481 1.395 . S
C477 C484 1.492 . S
C478 C479 1.392 . S
C478 C480 1.386 . S
C479 C477 1.393 . S
C479 C478 1.392 . S
C479 H496 0.930 . S
C480 C478 1.386 . S
C480 C482 1.395 . S
C480 H497 0.930 . S
C481 C477 1.395 . S
C481 C482 1.379 . S
C481 H498 0.930 . S
C482 C480 1.395 . S
C482 C481 1.379 . S
C482 H499 0.930 . S
C483 O466 1.264 . S
C483 O467 1.254 . S
C484 Eu420 2.848 . S
C484 O464 1.257 . S
C484 O469 1.249 . S
C484 C477 1.492 . S
C485 H450 0.931 . S
C485 C463 1.420 . S
C485 C486 1.351 . S
C486 H448 0.930 . S
C486 C454 1.423 . S
C486 C485 1.351 . S
C487 O471 1.276 . S
C487 O474 1.235 . S
C488 C489 1.393 . S
C488 C492 1.395 . S
C488 C495 1.492 . S
C489 C488 1.393 . S
C489 C490 1.392 . S
C489 H500 0.930 . S
C490 C489 1.392 . S
C490 C491 1.386 . S
C491 C490 1.386 . S
C491 C493 1.395 . S
C491 H501 0.930 . S
C492 C488 1.395 . S
C492 C493 1.379 . S
C492 H502 0.930 . S
C493 C491 1.395 . S
C493 C492 1.379 . S
C493 H503 0.930 . S
C494 O472 1.264 . S
C494 O473 1.254 . S
C495 Eu431 2.848 . S
C495 O470 1.257 . S
C495 O475 1.249 . S
C495 C488 1.492 . S
H496 C479 0.930 . S
H497 C480 0.930 . S
H498 C481 0.930 . S
H499 C482 0.930 . S
H500 C489 0.930 . S
H501 C491 0.930 . S
H502 C492 0.930 . S
H503 C493 0.930 . S
Eu504 N535 2.657 . S
Eu504 N542 2.609 . S
Eu504 O548 2.558 . S
Eu504 O549 2.628 . S
Eu504 O551 2.339 . S
Eu504 O552 2.563 1_545 S
Eu504 O553 2.419 . S
Eu504 O555 2.380 . S
Eu504 O556 2.432 . S
Eu504 C568 2.848 . S
C505 C508 1.429 . S
C505 C509 1.411 . S
C505 N512 1.377 . S
C506 C508 1.420 . S
C506 C510 1.423 . S
C506 C518 1.392 . S
C507 C509 1.420 . S
C507 C510 1.351 . S
C507 H530 0.931 . S
C508 C505 1.429 . S
C508 C506 1.420 . S
C508 N516 1.362 . S
C509 C505 1.411 . S
C509 C507 1.420 . S
C509 C514 1.395 . S
C510 C506 1.423 . S
C510 C507 1.351 . S
C510 H522 0.930 . S
C511 C513 1.400 1_565 S
C511 C514 1.386 . S
C511 H523 0.927 1_565 S
N512 C505 1.377 . S
N512 C513 1.321 1_565 S
N512 Eu515 2.609 1_565 S
C513 C511 1.400 1_545 S
C513 N512 1.321 1_545 S
C513 H520 0.930 . S
C514 C509 1.395 . S
C514 C511 1.386 . S
C514 H533 0.930 . S
Eu515 N512 2.609 1_545 S
Eu515 N516 2.657 1_545 S
Eu515 O549 2.405 . S
Eu515 O550 2.432 . S
Eu515 O554 2.558 . S
Eu515 O555 2.612 . S
Eu515 O557 2.339 . S
Eu515 O558 2.563 . S
Eu515 O559 2.419 . S
Eu515 C579 2.848 . S
N516 C508 1.362 . S
N516 Eu515 2.657 1_565 S
N516 C517 1.334 . S
C517 N516 1.334 . S
C517 C519 1.413 . S
C517 H524 0.929 . S
C518 C506 1.392 . S
C518 C519 1.367 . S
C518 H526 0.930 . S
C519 C517 1.413 . S
C519 C518 1.367 . S
C519 H521 0.930 . S
H520 C513 0.930 . S
H521 C519 0.930 . S
H522 C510 0.930 . S
H523 C511 0.927 1_545 S
H524 C517 0.929 . S
H525 C539 0.930 . S
H526 C518 0.930 . S
H527 C545 0.930 . S
H528 C536 0.929 . S
H529 C543 0.930 . S
H530 C507 0.931 . S
H531 C537 0.930 . S
H532 C570 0.930 . S
H533 C514 0.930 . S
H534 C569 0.931 . S
N535 Eu504 2.657 . S
N535 C536 1.334 . S
N535 C540 1.362 . S
C536 H528 0.929 . S
C536 N535 1.334 . S
C536 C539 1.413 . S
C537 H531 0.930 . S
C537 C538 1.392 . S
C537 C539 1.367 . S
C538 C537 1.392 . S
C538 C540 1.420 . S
C538 C570 1.423 . S
C539 H525 0.930 . S
C539 C536 1.413 . S
C539 C537 1.367 . S
C540 N535 1.362 . S
C540 C538 1.420 . S
C540 C544 1.429 . S
H541 C546 0.930 . S
N542 Eu504 2.609 . S
N542 C544 1.377 . S
N542 C545 1.321 . S
C543 H529 0.930 . S
C543 C545 1.400 . S
C543 C546 1.386 . S
C544 C540 1.429 . S
C544 N542 1.377 . S
C544 C547 1.411 . S
C545 H527 0.930 . S
C545 N542 1.321 . S
C545 C543 1.400 . S
C546 H541 0.930 . S
C546 C543 1.386 . S
C546 C547 1.395 . S
C547 C544 1.411 . S
C547 C546 1.395 . S
C547 C569 1.420 . S
O548 Eu504 2.558 . S
O548 C568 1.257 . S
O549 Eu504 2.628 . S
O549 Eu515 2.405 . S
O549 C560 1.245 1_545 S
O550 Eu515 2.432 . S
O550 C567 1.264 . S
O551 Eu504 2.339 . S
O551 C567 1.254 . S
O552 Eu504 2.563 1_565 S
O552 C560 1.235 . S
O553 Eu504 2.419 . S
O553 C568 1.249 . S
O554 Eu515 2.558 . S
O554 C579 1.257 . S
O555 Eu504 2.380 . S
O555 Eu515 2.612 . S
O555 C571 1.276 . S
O556 Eu504 2.432 . S
O556 C578 1.264 . S
O557 Eu515 2.339 . S
O557 C578 1.254 . S
O558 Eu515 2.563 . S
O558 C571 1.235 . S
O559 Eu515 2.419 . S
O559 C579 1.249 . S
C560 O549 1.245 1_565 S
C560 O552 1.235 . S
C561 C563 1.422 . S
C561 C565 1.393 . S
C561 C568 1.467 1_565 S
C562 C563 1.392 . S
C562 C564 1.386 . S
C563 C561 1.422 . S
C563 C562 1.392 . S
C563 H580 0.930 . S
C564 C562 1.386 . S
C564 C566 1.395 . S
C564 H581 0.930 . S
C565 C561 1.393 . S
C565 C566 1.379 . S
C565 H582 0.930 1_565 S
C566 C564 1.395 . S
C566 C565 1.379 . S
C566 H583 0.930 . S
C567 O550 1.264 . S
C567 O551 1.254 . S
C568 Eu504 2.848 . S
C568 O548 1.257 . S
C568 O553 1.249 . S
C568 C561 1.467 1_545 S
C569 H534 0.931 . S
C569 C547 1.420 . S
C569 C570 1.351 . S
C570 H532 0.930 . S
C570 C538 1.423 . S
C570 C569 1.351 . S
C571 O555 1.276 . S
C571 O558 1.235 . S
C572 C573 1.393 . S
C572 C576 1.395 . S
C572 C579 1.492 . S
C573 C572 1.393 . S
C573 C574 1.392 . S
C573 H584 0.930 . S
C574 C573 1.392 . S
C574 C575 1.386 . S
C575 C574 1.386 . S
C575 C577 1.395 . S
C575 H585 0.930 . S
C576 C572 1.395 . S
C576 C577 1.379 . S
C576 H586 0.930 . S
C577 C575 1.395 . S
C577 C576 1.379 . S
C577 H587 0.930 . S
C578 O556 1.264 . S
C578 O557 1.254 . S
C579 Eu515 2.848 . S
C579 O554 1.257 . S
C579 O559 1.249 . S
C579 C572 1.492 . S
H580 C563 0.930 . S
H581 C564 0.930 . S
H582 C565 0.930 1_545 S
H583 C566 0.930 . S
H584 C573 0.930 . S
H585 C575 0.930 . S
H586 C576 0.930 . S
H587 C577 0.930 . S
Eu588 N619 2.657 . S
Eu588 N626 2.609 . S
Eu588 O632 2.558 . S
Eu588 O633 2.612 . S
Eu588 O635 2.339 . S
Eu588 O636 2.563 . S
Eu588 O637 2.419 . S
Eu588 O639 2.380 . S
Eu588 O640 2.432 . S
Eu588 C652 2.848 . S
C589 C592 1.429 . S
C589 C593 1.411 . S
C589 N596 1.377 . S
C590 C592 1.420 . S
C590 C594 1.423 . S
C590 C602 1.392 . S
C591 C593 1.420 . S
C591 C594 1.351 . S
C591 H614 0.931 . S
C592 C589 1.429 . S
C592 C590 1.420 . S
C592 N600 1.362 . S
C593 C589 1.411 . S
C593 C591 1.420 . S
C593 C598 1.395 . S
C594 C590 1.423 . S
C594 C591 1.351 . S
C594 H606 0.930 . S
C595 C597 1.400 . S
C595 C598 1.386 . S
C595 H607 0.930 . S
N596 C589 1.377 . S
N596 C597 1.321 . S
N596 Eu599 2.609 . S
C597 C595 1.400 . S
C597 N596 1.321 . S
C597 H604 0.930 . S
C598 C593 1.395 . S
C598 C595 1.386 . S
C598 H617 0.930 . S
Eu599 N596 2.609 . S
Eu599 N600 2.657 . S
Eu599 O633 2.380 . S
Eu599 O634 2.432 . S
Eu599 O638 2.558 . S
Eu599 O639 2.612 . S
Eu599 O641 2.339 . S
Eu599 O642 2.563 . S
Eu599 O643 2.419 . S
Eu599 C663 2.848 . S
N600 C592 1.362 . S
N600 Eu599 2.657 . S
N600 C601 1.334 . S
C601 N600 1.334 . S
C601 C603 1.413 . S
C601 H608 0.929 . S
C602 C590 1.392 . S
C602 C603 1.367 . S
C602 H610 0.930 . S
C603 C601 1.413 . S
C603 C602 1.367 . S
C603 H605 0.930 . S
H604 C597 0.930 . S
H605 C603 0.930 . S
H606 C594 0.930 . S
H607 C595 0.930 . S
H608 C601 0.929 . S
H609 C623 0.930 . S
H610 C602 0.930 . S
H611 C629 0.930 . S
H612 C620 0.929 . S
H613 C627 0.930 . S
H614 C591 0.931 . S
H615 C621 0.930 . S
H616 C654 0.930 . S
H617 C598 0.930 . S
H618 C653 0.931 . S
N619 Eu588 2.657 . S
N619 C620 1.334 . S
N619 C624 1.362 . S
C620 H612 0.929 . S
C620 N619 1.334 . S
C620 C623 1.413 . S
C621 H615 0.930 . S
C621 C622 1.392 . S
C621 C623 1.367 . S
C622 C621 1.392 . S
C622 C624 1.420 . S
C622 C654 1.423 . S
C623 H609 0.930 . S
C623 C620 1.413 . S
C623 C621 1.367 . S
C624 N619 1.362 . S
C624 C622 1.420 . S
C624 C628 1.429 . S
H625 C630 0.930 . S
N626 Eu588 2.609 . S
N626 C628 1.377 . S
N626 C629 1.321 . S
C627 H613 0.930 . S
C627 C629 1.400 . S
C627 C630 1.386 . S
C628 C624 1.429 . S
C628 N626 1.377 . S
C628 C631 1.411 . S
C629 H611 0.930 . S
C629 N626 1.321 . S
C629 C627 1.400 . S
C630 H625 0.930 . S
C630 C627 1.386 . S
C630 C631 1.395 . S
C631 C628 1.411 . S
C631 C630 1.395 . S
C631 C653 1.420 . S
O632 Eu588 2.558 . S
O632 C652 1.257 . S
O633 Eu588 2.612 . S
O633 Eu599 2.380 . S
O633 C644 1.276 . S
O634 Eu599 2.432 . S
O634 C651 1.264 . S
O635 Eu588 2.339 . S
O635 C651 1.254 . S
O636 Eu588 2.563 . S
O636 C644 1.235 . S
O637 Eu588 2.419 . S
O637 C652 1.249 . S
O638 Eu599 2.558 . S
O638 C663 1.257 . S
O639 Eu588 2.380 . S
O639 Eu599 2.612 . S
O639 C655 1.276 . S
O640 Eu588 2.432 . S
O640 C662 1.264 . S
O641 Eu599 2.339 . S
O641 C662 1.254 . S
O642 Eu599 2.563 . S
O642 C655 1.235 . S
O643 Eu599 2.419 . S
O643 C663 1.249 . S
C644 O633 1.276 . S
C644 O636 1.235 . S
C645 C647 1.393 . S
C645 C649 1.395 . S
C645 C652 1.492 . S
C646 C647 1.392 . S
C646 C648 1.386 . S
C647 C645 1.393 . S
C647 C646 1.392 . S
C647 H664 0.930 . S
C648 C646 1.386 . S
C648 C650 1.395 . S
C648 H665 0.930 . S
C649 C645 1.395 . S
C649 C650 1.379 . S
C649 H666 0.930 . S
C650 C648 1.395 . S
C650 C649 1.379 . S
C650 H667 0.930 . S
C651 O634 1.264 . S
C651 O635 1.254 . S
C652 Eu588 2.848 . S
C652 O632 1.257 . S
C652 O637 1.249 . S
C652 C645 1.492 . S
C653 H618 0.931 . S
C653 C631 1.420 . S
C653 C654 1.351 . S
C654 H616 0.930 . S
C654 C622 1.423 . S
C654 C653 1.351 . S
C655 O639 1.276 . S
C655 O642 1.235 . S
C656 C657 1.393 . S
C656 C660 1.395 . S
C656 C663 1.492 . S
C657 C656 1.393 . S
C657 C658 1.392 . S
C657 H668 0.930 . S
C658 C657 1.392 . S
C658 C659 1.386 . S
C659 C658 1.386 . S
C659 C661 1.395 . S
C659 H669 0.930 . S
C660 C656 1.395 . S
C660 C661 1.379 . S
C660 H670 0.930 . S
C661 C659 1.395 . S
C661 C660 1.379 . S
C661 H671 0.930 . S
C662 O640 1.264 . S
C662 O641 1.254 . S
C663 Eu599 2.848 . S
C663 O638 1.257 . S
C663 O643 1.249 . S
C663 C656 1.492 . S
H664 C647 0.930 . S
H665 C648 0.930 . S
H666 C649 0.930 . S
H667 C650 0.930 . S
H668 C657 0.930 . S
H669 C659 0.930 . S
H670 C660 0.930 . S
H671 C661 0.930 . S
Eu672 N703 2.657 . S
Eu672 N710 2.609 . S
Eu672 O716 2.558 . S
Eu672 O717 2.612 . S
Eu672 O719 2.339 . S
Eu672 O720 2.563 . S
Eu672 O721 2.419 . S
Eu672 O723 2.380 . S
Eu672 O724 2.432 . S
Eu672 C736 2.848 . S
C673 C676 1.429 . S
C673 C677 1.411 . S
C673 N680 1.377 . S
C674 C676 1.420 . S
C674 C678 1.423 . S
C674 C686 1.392 . S
C675 C677 1.420 . S
C675 C678 1.351 . S
C675 H698 0.931 . S
C676 C673 1.429 . S
C676 C674 1.420 . S
C676 N684 1.362 . S
C677 C673 1.411 . S
C677 C675 1.420 . S
C677 C682 1.395 . S
C678 C674 1.423 . S
C678 C675 1.351 . S
C678 H690 0.930 . S
C679 C681 1.400 . S
C679 C682 1.386 . S
C679 H691 0.930 . S
N680 C673 1.377 . S
N680 C681 1.321 . S
N680 Eu683 2.609 . S
C681 C679 1.400 . S
C681 N680 1.321 . S
C681 H688 0.930 . S
C682 C677 1.395 . S
C682 C679 1.386 . S
C682 H701 0.930 . S
Eu683 N680 2.609 . S
Eu683 N684 2.657 . S
Eu683 O717 2.380 1_565 S
Eu683 O718 2.432 1_565 S
Eu683 O722 2.558 . S
Eu683 O723 2.612 1_565 S
Eu683 O725 2.339 . S
Eu683 O726 2.563 1_565 S
Eu683 O727 2.419 . S
Eu683 C747 2.848 . S
N684 C676 1.362 . S
N684 Eu683 2.657 . S
N684 C685 1.334 . S
C685 N684 1.334 . S
C685 C687 1.413 1_455 S
C685 H692 0.929 . S
C686 C674 1.392 . S
C686 C687 1.367 1_455 S
C686 H694 0.930 1_455 S
C687 C685 1.413 1_655 S
C687 C686 1.367 1_655 S
C687 H689 0.930 . S
H688 C681 0.930 . S
H689 C687 0.930 . S
H690 C678 0.930 . S
H691 C679 0.930 . S
H692 C685 0.929 . S
H693 C707 0.930 . S
H694 C686 0.930 1_655 S
H695 C713 0.930 . S
H696 C704 0.929 . S
H697 C711 0.930 1_655 S
H698 C675 0.931 . S
H699 C705 0.930 . S
H700 C738 0.930 . S
H701 C682 0.930 . S
H702 C737 0.931 . S
N703 Eu672 2.657 . S
N703 C704 1.334 . S
N703 C708 1.362 . S
C704 H696 0.929 . S
C704 N703 1.334 . S
C704 C707 1.413 . S
C705 H699 0.930 . S
C705 C706 1.392 . S
C705 C707 1.367 . S
C706 C705 1.392 . S
C706 C708 1.420 . S
C706 C738 1.423 . S
C707 H693 0.930 . S
C707 C704 1.413 . S
C707 C705 1.367 . S
C708 N703 1.362 . S
C708 C706 1.420 . S
C708 C712 1.429 . S
H709 C714 0.930 . S
N710 Eu672 2.609 . S
N710 C712 1.377 . S
N710 C713 1.321 . S
C711 H697 0.930 1_455 S
C711 C713 1.400 . S
C711 C714 1.386 . S
C712 C708 1.429 . S
C712 N710 1.377 . S
C712 C715 1.411 . S
C713 H695 0.930 . S
C713 N710 1.321 . S
C713 C711 1.400 . S
C714 H709 0.930 . S
C714 C711 1.386 . S
C714 C715 1.395 . S
C715 C712 1.411 . S
C715 C714 1.395 . S
C715 C737 1.420 . S
O716 Eu672 2.558 . S
O716 C736 1.257 . S
O717 Eu672 2.612 . S
O717 Eu683 2.380 1_545 S
O717 C728 1.276 . S
O718 Eu683 2.432 1_545 S
O718 C735 1.264 . S
O719 Eu672 2.339 . S
O719 C735 1.254 . S
O720 Eu672 2.563 . S
O720 C728 1.235 . S
O721 Eu672 2.419 . S
O721 C736 1.249 . S
O722 Eu683 2.558 . S
O722 C747 1.257 . S
O723 Eu672 2.380 . S
O723 Eu683 2.612 1_545 S
O723 C739 1.276 . S
O724 Eu672 2.432 . S
O724 C746 1.264 . S
O725 Eu683 2.339 . S
O725 C746 1.254 1_565 S
O726 Eu683 2.563 1_545 S
O726 C739 1.235 . S
O727 Eu683 2.419 . S
O727 C747 1.249 . S
C728 O717 1.276 . S
C728 O720 1.235 . S
C729 C731 1.393 . S
C729 C733 1.395 . S
C729 C736 1.492 . S
C730 C731 1.392 . S
C730 C732 1.386 . S
C731 C729 1.393 . S
C731 C730 1.392 . S
C731 H748 0.930 . S
C732 C730 1.386 . S
C732 C734 1.395 . S
C732 H749 0.930 . S
C733 C729 1.395 . S
C733 C734 1.379 . S
C733 H750 0.930 . S
C734 C732 1.395 . S
C734 C733 1.379 . S
C734 H751 0.930 . S
C735 O718 1.264 . S
C735 O719 1.254 . S
C736 Eu672 2.848 . S
C736 O716 1.257 . S
C736 O721 1.249 . S
C736 C729 1.492 . S
C737 H702 0.931 . S
C737 C715 1.420 . S
C737 C738 1.351 . S
C738 H700 0.930 . S
C738 C706 1.423 . S
C738 C737 1.351 . S
C739 O723 1.276 . S
C739 O726 1.235 . S
C740 C741 1.393 . S
C740 C744 1.395 . S
C740 C747 1.492 . S
C741 C740 1.393 . S
C741 C742 1.392 . S
C741 H752 0.930 . S
C742 C741 1.392 . S
C742 C743 1.386 . S
C743 C742 1.386 . S
C743 C745 1.395 . S
C743 H753 0.930 . S
C744 C740 1.395 . S
C744 C745 1.379 . S
C744 H754 0.930 . S
C745 C743 1.395 . S
C745 C744 1.379 . S
C745 H755 0.930 . S
C746 O724 1.264 . S
C746 O725 1.254 1_545 S
C747 Eu683 2.848 . S
C747 O722 1.257 . S
C747 O727 1.249 . S
C747 C740 1.492 . S
H748 C731 0.930 . S
H749 C732 0.930 . S
H750 C733 0.930 . S
H751 C734 0.930 . S
H752 C741 0.930 . S
H753 C743 0.930 . S
H754 C744 0.930 . S
H755 C745 0.930 . S
Eu756 N787 2.657 . S
Eu756 N794 2.609 . S
Eu756 O800 2.558 . S
Eu756 O801 2.612 . S
Eu756 O803 2.339 . S
Eu756 O804 2.563 . S
Eu756 O805 2.419 . S
Eu756 O807 2.380 . S
Eu756 O808 2.432 . S
Eu756 C820 2.848 . S
C757 C760 1.429 . S
C757 C761 1.411 . S
C757 N764 1.377 . S
C758 C760 1.420 . S
C758 C762 1.423 . S
C758 C770 1.392 . S
C759 C761 1.420 . S
C759 C762 1.351 . S
C759 H782 0.931 . S
C760 C757 1.429 . S
C760 C758 1.420 . S
C760 N768 1.362 . S
C761 C757 1.411 . S
C761 C759 1.420 . S
C761 C766 1.395 . S
C762 C758 1.423 . S
C762 C759 1.351 . S
C762 H774 0.930 . S
C763 C765 1.400 . S
C763 C766 1.386 . S
C763 H775 0.930 . S
N764 C757 1.377 . S
N764 C765 1.321 . S
N764 Eu767 2.609 . S
C765 C763 1.400 . S
C765 N764 1.321 . S
C765 H772 0.930 . S
C766 C761 1.395 . S
C766 C763 1.386 . S
C766 H785 0.930 . S
Eu767 N764 2.609 . S
Eu767 N768 2.657 . S
Eu767 O801 2.380 . S
Eu767 O802 2.432 . S
Eu767 O806 2.558 . S
Eu767 O807 2.612 . S
Eu767 O809 2.339 . S
Eu767 O810 2.563 . S
Eu767 O811 2.419 . S
Eu767 C831 2.848 . S
N768 C760 1.362 . S
N768 Eu767 2.657 . S
N768 C769 1.334 . S
C769 N768 1.334 . S
C769 C771 1.413 . S
C769 H776 0.929 . S
C770 C758 1.392 . S
C770 C771 1.367 . S
C770 H778 0.930 . S
C771 C769 1.413 . S
C771 C770 1.367 . S
C771 H773 0.930 . S
H772 C765 0.930 . S
H773 C771 0.930 . S
H774 C762 0.930 . S
H775 C763 0.930 . S
H776 C769 0.929 . S
H777 C791 0.930 . S
H778 C770 0.930 . S
H779 C797 0.930 . S
H780 C788 0.929 . S
H781 C795 0.930 . S
H782 C759 0.931 . S
H783 C789 0.930 . S
H784 C822 0.930 . S
H785 C766 0.930 . S
H786 C821 0.931 . S
N787 Eu756 2.657 . S
N787 C788 1.334 . S
N787 C792 1.362 . S
C788 H780 0.929 . S
C788 N787 1.334 . S
C788 C791 1.413 . S
C789 H783 0.930 . S
C789 C790 1.392 . S
C789 C791 1.367 . S
C790 C789 1.392 . S
C790 C792 1.420 . S
C790 C822 1.423 . S
C791 H777 0.930 . S
C791 C788 1.413 . S
C791 C789 1.367 . S
C792 N787 1.362 . S
C792 C790 1.420 . S
C792 C796 1.429 . S
H793 C798 0.930 . S
N794 Eu756 2.609 . S
N794 C796 1.377 . S
N794 C797 1.321 . S
C795 H781 0.930 . S
C795 C797 1.400 . S
C795 C798 1.386 . S
C796 C792 1.429 . S
C796 N794 1.377 . S
C796 C799 1.411 . S
C797 H779 0.930 . S
C797 N794 1.321 . S
C797 C795 1.400 . S
C798 H793 0.930 . S
C798 C795 1.386 . S
C798 C799 1.395 . S
C799 C796 1.411 . S
C799 C798 1.395 . S
C799 C821 1.420 . S
O800 Eu756 2.558 . S
O800 C820 1.257 . S
O801 Eu756 2.612 . S
O801 Eu767 2.380 . S
O801 C812 1.276 . S
O802 Eu767 2.432 . S
O802 C819 1.264 . S
O803 Eu756 2.339 . S
O803 C819 1.254 . S
O804 Eu756 2.563 . S
O804 C812 1.235 . S
O805 Eu756 2.419 . S
O805 C820 1.249 . S
O806 Eu767 2.558 . S
O806 C831 1.257 . S
O807 Eu756 2.380 . S
O807 Eu767 2.612 . S
O807 C823 1.276 . S
O808 Eu756 2.432 . S
O808 C830 1.264 . S
O809 Eu767 2.339 . S
O809 C830 1.254 . S
O810 Eu767 2.563 . S
O810 C823 1.235 . S
O811 Eu767 2.419 . S
O811 C831 1.249 . S
C812 O801 1.276 . S
C812 O804 1.235 . S
C813 C815 1.393 . S
C813 C817 1.395 . S
C813 C820 1.492 . S
C814 C815 1.392 . S
C814 C816 1.386 . S
C815 C813 1.393 . S
C815 C814 1.392 . S
C815 H832 0.930 . S
C816 C814 1.386 . S
C816 C818 1.395 . S
C816 H833 0.930 . S
C817 C813 1.395 . S
C817 C818 1.379 . S
C817 H834 0.930 . S
C818 C816 1.395 . S
C818 C817 1.379 . S
C818 H835 0.930 . S
C819 O802 1.264 . S
C819 O803 1.254 . S
C820 Eu756 2.848 . S
C820 O800 1.257 . S
C820 O805 1.249 . S
C820 C813 1.492 . S
C821 H786 0.931 . S
C821 C799 1.420 . S
C821 C822 1.351 . S
C822 H784 0.930 . S
C822 C790 1.423 . S
C822 C821 1.351 . S
C823 O807 1.276 . S
C823 O810 1.235 . S
C824 C825 1.393 . S
C824 C828 1.395 . S
C824 C831 1.492 . S
C825 C824 1.393 . S
C825 C826 1.392 . S
C825 H836 0.930 . S
C826 C825 1.392 . S
C826 C827 1.386 . S
C827 C826 1.386 . S
C827 C829 1.395 . S
C827 H837 0.930 . S
C828 C824 1.395 . S
C828 C829 1.379 . S
C828 H838 0.930 . S
C829 C827 1.395 . S
C829 C828 1.379 . S
C829 H839 0.930 . S
C830 O808 1.264 . S
C830 O809 1.254 . S
C831 Eu767 2.848 . S
C831 O806 1.257 . S
C831 O811 1.249 . S
C831 C824 1.492 . S
H832 C815 0.930 . S
H833 C816 0.930 . S
H834 C817 0.930 . S
H835 C818 0.930 . S
H836 C825 0.930 . S
H837 C827 0.930 . S
H838 C828 0.930 . S
H839 C829 0.930 . S
Eu840 N871 2.657 . S
Eu840 N878 2.609 . S
Eu840 O884 2.558 1_545 S
Eu840 O885 2.612 . S
Eu840 O887 2.339 . S
Eu840 O888 2.563 . S
Eu840 O889 2.419 . S
Eu840 O891 2.380 . S
Eu840 O892 2.432 1_545 S
Eu840 C904 2.848 . S
C841 C844 1.429 . S
C841 C845 1.411 . S
C841 N848 1.377 . S
C842 C844 1.420 . S
C842 C846 1.423 . S
C842 C854 1.392 1_545 S
C843 C845 1.420 . S
C843 C846 1.351 . S
C843 H866 0.931 . S
C844 C841 1.429 . S
C844 C842 1.420 . S
C844 N852 1.362 . S
C845 C841 1.411 . S
C845 C843 1.420 . S
C845 C850 1.395 . S
C846 C842 1.423 . S
C846 C843 1.351 . S
C846 H858 0.930 . S
C847 C849 1.400 . S
C847 C850 1.386 . S
C847 H859 0.930 . S
N848 C841 1.377 . S
N848 C849 1.321 . S
N848 Eu851 2.609 . S
C849 C847 1.400 . S
C849 N848 1.321 . S
C849 H856 0.930 . S
C850 C845 1.395 . S
C850 C847 1.386 . S
C850 H869 0.930 . S
Eu851 N848 2.609 . S
Eu851 N852 2.657 . S
Eu851 O885 2.380 1_556 S
Eu851 O886 2.432 1_556 S
Eu851 O890 2.558 . S
Eu851 O891 2.612 1_556 S
Eu851 O893 2.339 . S
Eu851 O894 2.563 . S
Eu851 O895 2.419 . S
Eu851 C915 2.848 . S
N852 C844 1.362 . S
N852 Eu851 2.657 . S
N852 C853 1.334 1_545 S
C853 N852 1.334 1_565 S
C853 C855 1.413 . S
C853 H860 0.929 . S
C854 C842 1.392 1_565 S
C854 C855 1.367 . S
C854 H862 0.930 . S
C855 C853 1.413 . S
C855 C854 1.367 . S
C855 H857 0.930 . S
H856 C849 0.930 . S
H857 C855 0.930 . S
H858 C846 0.930 . S
H859 C847 0.930 . S
H860 C853 0.929 . S
H861 C875 0.930 . S
H862 C854 0.930 . S
H863 C881 0.930 . S
H864 C872 0.929 . S
H865 C879 0.930 . S
H866 C843 0.931 . S
H867 C873 0.930 . S
H868 C906 0.930 . S
H869 C850 0.930 . S
H870 C905 0.931 . S
N871 Eu840 2.657 . S
N871 C872 1.334 . S
N871 C876 1.362 . S
C872 H864 0.929 . S
C872 N871 1.334 . S
C872 C875 1.413 . S
C873 H867 0.930 . S
C873 C874 1.392 . S
C873 C875 1.367 . S
C874 C873 1.392 . S
C874 C876 1.420 . S
C874 C906 1.423 . S
C875 H861 0.930 . S
C875 C872 1.413 . S
C875 C873 1.367 . S
C876 N871 1.362 . S
C876 C874 1.420 . S
C876 C880 1.429 . S
H877 C882 0.930 . S
N878 Eu840 2.609 . S
N878 C880 1.377 . S
N878 C881 1.321 1_545 S
C879 H865 0.930 . S
C879 C881 1.400 . S
C879 C882 1.386 . S
C880 C876 1.429 . S
C880 N878 1.377 . S
C880 C883 1.411 . S
C881 H863 0.930 . S
C881 N878 1.321 1_565 S
C881 C879 1.400 . S
C882 H877 0.930 . S
C882 C879 1.386 . S
C882 C883 1.395 1_565 S
C883 C880 1.411 . S
C883 C882 1.395 1_545 S
C883 C905 1.420 . S
O884 Eu840 2.558 1_565 S
O884 C904 1.257 1_565 S
O885 Eu840 2.612 . S
O885 Eu851 2.380 1_554 S
O885 C896 1.276 . S
O886 Eu851 2.432 1_554 S
O886 C903 1.264 . S
O887 Eu840 2.339 . S
O887 C903 1.254 . S
O888 Eu840 2.563 . S
O888 C896 1.235 . S
O889 Eu840 2.419 . S
O889 C904 1.249 . S
O890 Eu851 2.558 . S
O890 C915 1.257 . S
O891 Eu840 2.380 . S
O891 Eu851 2.612 1_554 S
O891 C907 1.276 . S
O892 Eu840 2.432 1_565 S
O892 C914 1.264 1_554 S
O893 Eu851 2.339 . S
O893 C914 1.254 1_545 S
O894 Eu851 2.563 . S
O894 C907 1.235 1_556 S
O895 Eu851 2.419 . S
O895 C915 1.249 . S
C896 O885 1.276 . S
C896 O888 1.235 . S
C897 C899 1.393 . S
C897 C901 1.395 1_545 S
C897 C904 1.492 . S
C898 C899 1.392 . S
C898 C900 1.386 1_545 S
C899 C897 1.393 . S
C899 C898 1.392 . S
C899 H916 0.930 . S
C900 C898 1.386 1_565 S
C900 C902 1.395 . S
C900 H917 0.930 . S
C901 C897 1.395 1_565 S
C901 C902 1.379 . S
C901 H918 0.930 . S
C902 C900 1.395 . S
C902 C901 1.379 . S
C902 H919 0.930 . S
C903 O886 1.264 . S
C903 O887 1.254 . S
C904 Eu840 2.848 . S
C904 O884 1.257 1_545 S
C904 O889 1.249 . S
C904 C897 1.492 . S
C905 H870 0.931 . S
C905 C883 1.420 . S
C905 C906 1.351 . S
C906 H868 0.930 . S
C906 C874 1.423 . S
C906 C905 1.351 . S
C907 O891 1.276 . S
C907 O894 1.235 1_554 S
C908 C909 1.393 . S
C908 C912 1.395 . S
C908 C915 1.492 . S
C909 C908 1.393 . S
C909 C910 1.392 . S
C909 H920 0.930 . S
C910 C909 1.392 . S
C910 C911 1.386 . S
C911 C910 1.386 . S
C911 C913 1.395 . S
C911 H921 0.930 . S
C912 C908 1.395 . S
C912 C913 1.379 . S
C912 H922 0.930 . S
C913 C911 1.395 . S
C913 C912 1.379 . S
C913 H923 0.930 . S
C914 O892 1.264 1_556 S
C914 O893 1.254 1_565 S
C915 Eu851 2.848 . S
C915 O890 1.257 . S
C915 O895 1.249 . S
C915 C908 1.492 . S
H916 C899 0.930 . S
H917 C900 0.930 . S
H918 C901 0.930 . S
H919 C902 0.930 . S
H920 C909 0.930 . S
H921 C911 0.930 . S
H922 C912 0.930 . S
H923 C913 0.930 . S
Eu924 N955 2.657 . S
Eu924 N962 2.609 . S
Eu924 O968 2.558 . S
Eu924 O969 2.612 . S
Eu924 O971 2.339 . S
Eu924 O972 2.563 . S
Eu924 O973 2.419 . S
Eu924 O975 2.380 . S
Eu924 O976 2.432 . S
Eu924 C988 2.848 . S
C925 C928 1.429 . S
C925 C929 1.411 . S
C925 N932 1.377 . S
C926 C928 1.420 . S
C926 C930 1.423 . S
C926 C938 1.392 . S
C927 C929 1.420 . S
C927 C930 1.351 . S
C927 H950 0.931 . S
C928 C925 1.429 . S
C928 C926 1.420 . S
C928 N936 1.362 . S
C929 C925 1.411 . S
C929 C927 1.420 . S
C929 C934 1.395 . S
C930 C926 1.423 . S
C930 C927 1.351 . S
C930 H942 0.930 . S
C931 C933 1.400 . S
C931 C934 1.386 . S
C931 H943 0.930 . S
N932 C925 1.377 . S
N932 C933 1.321 . S
N932 Eu935 2.609 . S
C933 C931 1.400 . S
C933 N932 1.321 . S
C933 H940 0.930 . S
C934 C929 1.395 . S
C934 C931 1.386 . S
C934 H953 0.930 . S
Eu935 N932 2.609 . S
Eu935 N936 2.657 . S
Eu935 O969 2.380 . S
Eu935 O970 2.432 . S
Eu935 O974 2.558 . S
Eu935 O975 2.612 . S
Eu935 O977 2.339 . S
Eu935 O978 2.563 . S
Eu935 O979 2.419 . S
Eu935 C999 2.848 . S
N936 C928 1.362 . S
N936 Eu935 2.657 . S
N936 C937 1.334 . S
C937 N936 1.334 . S
C937 C939 1.413 . S
C937 H944 0.929 . S
C938 C926 1.392 . S
C938 C939 1.367 . S
C938 H946 0.930 . S
C939 C937 1.413 . S
C939 C938 1.367 . S
C939 H941 0.930 . S
H940 C933 0.930 . S
H941 C939 0.930 . S
H942 C930 0.930 . S
H943 C931 0.930 . S
H944 C937 0.929 . S
H945 C959 0.930 . S
H946 C938 0.930 . S
H947 C965 0.930 . S
H948 C956 0.929 . S
H949 C963 0.930 . S
H950 C927 0.931 . S
H951 C957 0.930 . S
H952 C990 0.930 . S
H953 C934 0.930 . S
H954 C989 0.931 . S
N955 Eu924 2.657 . S
N955 C956 1.334 . S
N955 C960 1.362 . S
C956 H948 0.929 . S
C956 N955 1.334 . S
C956 C959 1.413 . S
C957 H951 0.930 . S
C957 C958 1.392 . S
C957 C959 1.367 . S
C958 C957 1.392 . S
C958 C960 1.420 . S
C958 C990 1.423 . S
C959 H945 0.930 . S
C959 C956 1.413 . S
C959 C957 1.367 . S
C960 N955 1.362 . S
C960 C958 1.420 . S
C960 C964 1.429 . S
H961 C966 0.930 . S
N962 Eu924 2.609 . S
N962 C964 1.377 . S
N962 C965 1.321 . S
C963 H949 0.930 . S
C963 C965 1.400 . S
C963 C966 1.386 . S
C964 C960 1.429 . S
C964 N962 1.377 . S
C964 C967 1.411 . S
C965 H947 0.930 . S
C965 N962 1.321 . S
C965 C963 1.400 . S
C966 H961 0.930 . S
C966 C963 1.386 . S
C966 C967 1.395 . S
C967 C964 1.411 . S
C967 C966 1.395 . S
C967 C989 1.420 . S
O968 Eu924 2.558 . S
O968 C988 1.257 . S
O969 Eu924 2.612 . S
O969 Eu935 2.380 . S
O969 C980 1.276 . S
O970 Eu935 2.432 . S
O970 C987 1.264 . S
O971 Eu924 2.339 . S
O971 C987 1.254 . S
O972 Eu924 2.563 . S
O972 C980 1.235 . S
O973 Eu924 2.419 . S
O973 C988 1.249 . S
O974 Eu935 2.558 . S
O974 C999 1.257 . S
O975 Eu924 2.380 . S
O975 Eu935 2.612 . S
O975 C991 1.276 . S
O976 Eu924 2.432 . S
O976 C998 1.264 . S
O977 Eu935 2.339 . S
O977 C998 1.254 . S
O978 Eu935 2.563 . S
O978 C991 1.235 . S
O979 Eu935 2.419 . S
O979 C999 1.249 . S
C980 O969 1.276 . S
C980 O972 1.235 . S
C981 C983 1.393 . S
C981 C985 1.395 . S
C981 C988 1.492 . S
C982 C983 1.392 . S
C982 C984 1.386 . S
C983 C981 1.393 . S
C983 C982 1.392 . S
C983 H1000 0.930 . S
C984 C982 1.386 . S
C984 C986 1.395 . S
C984 H1001 0.930 . S
C985 C981 1.395 . S
C985 C986 1.379 . S
C985 H1002 0.930 . S
C986 C984 1.395 . S
C986 C985 1.379 . S
C986 H1003 0.930 . S
C987 O970 1.264 . S
C987 O971 1.254 . S
C988 Eu924 2.848 . S
C988 O968 1.257 . S
C988 O973 1.249 . S
C988 C981 1.492 . S
C989 H954 0.931 . S
C989 C967 1.420 . S
C989 C990 1.351 . S
C990 H952 0.930 . S
C990 C958 1.423 . S
C990 C989 1.351 . S
C991 O975 1.276 . S
C991 O978 1.235 . S
C992 C993 1.393 . S
C992 C996 1.395 . S
C992 C999 1.492 . S
C993 C992 1.393 . S
C993 C994 1.392 . S
C993 H1004 0.930 . S
C994 C993 1.392 . S
C994 C995 1.386 . S
C995 C994 1.386 . S
C995 C997 1.395 . S
C995 H1005 0.930 . S
C996 C992 1.395 . S
C996 C997 1.379 . S
C996 H1006 0.930 . S
C997 C995 1.395 . S
C997 C996 1.379 . S
C997 H1007 0.930 . S
C998 O976 1.264 . S
C998 O977 1.254 . S
C999 Eu935 2.848 . S
C999 O974 1.257 . S
C999 O979 1.249 . S
C999 C992 1.492 . S
H1000 C983 0.930 . S
H1001 C984 0.930 . S
H1002 C985 0.930 . S
H1003 C986 0.930 . S
H1004 C993 0.930 . S
H1005 C995 0.930 . S
H1006 C996 0.930 . S
H1007 C997 0.930 . S
Eu1008 N1039 2.657 . S
Eu1008 N1046 2.609 . S
Eu1008 O1052 2.558 . S
Eu1008 O1053 2.612 1_554 S
Eu1008 O1055 2.339 . S
Eu1008 O1056 2.563 1_554 S
Eu1008 O1057 2.419 . S
Eu1008 O1059 2.380 . S
Eu1008 O1060 2.432 . S
Eu1008 C1072 2.848 . S
C1009 C1012 1.429 . S
C1009 C1013 1.411 . S
C1009 N1016 1.377 . S
C1010 C1012 1.420 . S
C1010 C1014 1.423 . S
C1010 C1022 1.392 . S
C1011 C1013 1.420 . S
C1011 C1014 1.351 . S
C1011 H1034 0.931 . S
C1012 C1009 1.429 . S
C1012 C1010 1.420 . S
C1012 N1020 1.362 . S
C1013 C1009 1.411 . S
C1013 C1011 1.420 . S
C1013 C1018 1.395 . S
C1014 C1010 1.423 . S
C1014 C1011 1.351 . S
C1014 H1026 0.930 . S
C1015 C1017 1.400 . S
C1015 C1018 1.386 . S
C1015 H1027 0.930 . S
N1016 C1009 1.377 . S
N1016 C1017 1.321 . S
N1016 Eu1019 2.609 1_556 S
C1017 C1015 1.400 . S
C1017 N1016 1.321 . S
C1017 H1024 0.930 . S
C1018 C1013 1.395 . S
C1018 C1015 1.386 . S
C1018 H1037 0.930 . S
Eu1019 N1016 2.609 1_554 S
Eu1019 N1020 2.657 1_554 S
Eu1019 O1053 2.380 1_554 S
Eu1019 O1054 2.432 . S
Eu1019 O1058 2.558 . S
Eu1019 O1059 2.612 . S
Eu1019 O1061 2.339 . S
Eu1019 O1062 2.563 . S
Eu1019 O1063 2.419 . S
Eu1019 C1083 2.848 . S
N1020 C1012 1.362 . S
N1020 Eu1019 2.657 1_556 S
N1020 C1021 1.334 . S
C1021 N1020 1.334 . S
C1021 C1023 1.413 . S
C1021 H1028 0.929 . S
C1022 C1010 1.392 . S
C1022 C1023 1.367 . S
C1022 H1030 0.930 . S
C1023 C1021 1.413 . S
C1023 C1022 1.367 . S
C1023 H1025 0.930 . S
H1024 C1017 0.930 . S
H1025 C1023 0.930 . S
H1026 C1014 0.930 . S
H1027 C1015 0.930 . S
H1028 C1021 0.929 . S
H1029 C1043 0.930 . S
H1030 C1022 0.930 . S
H1031 C1049 0.930 . S
H1032 C1040 0.929 . S
H1033 C1047 0.930 . S
H1034 C1011 0.931 . S
H1035 C1041 0.930 . S
H1036 C1074 0.930 . S
H1037 C1018 0.930 . S
H1038 C1073 0.931 . S
N1039 Eu1008 2.657 . S
N1039 C1040 1.334 . S
N1039 C1044 1.362 . S
C1040 H1032 0.929 . S
C1040 N1039 1.334 . S
C1040 C1043 1.413 . S
C1041 H1035 0.930 . S
C1041 C1042 1.392 . S
C1041 C1043 1.367 . S
C1042 C1041 1.392 . S
C1042 C1044 1.420 . S
C1042 C1074 1.423 . S
C1043 H1029 0.930 . S
C1043 C1040 1.413 . S
C1043 C1041 1.367 . S
C1044 N1039 1.362 . S
C1044 C1042 1.420 . S
C1044 C1048 1.429 . S
H1045 C1050 0.930 . S
N1046 Eu1008 2.609 . S
N1046 C1048 1.377 . S
N1046 C1049 1.321 . S
C1047 H1033 0.930 . S
C1047 C1049 1.400 . S
C1047 C1050 1.386 . S
C1048 C1044 1.429 . S
C1048 N1046 1.377 . S
C1048 C1051 1.411 . S
C1049 H1031 0.930 . S
C1049 N1046 1.321 . S
C1049 C1047 1.400 . S
C1050 H1045 0.930 . S
C1050 C1047 1.386 . S
C1050 C1051 1.395 . S
C1051 C1048 1.411 . S
C1051 C1050 1.395 . S
C1051 C1073 1.420 . S
O1052 Eu1008 2.558 . S
O1052 C1072 1.257 . S
O1053 Eu1008 2.612 1_556 S
O1053 Eu1019 2.380 1_556 S
O1053 C1064 1.276 . S
O1054 Eu1019 2.432 . S
O1054 C1071 1.264 . S
O1055 Eu1008 2.339 . S
O1055 C1071 1.254 . S
O1056 Eu1008 2.563 1_556 S
O1056 C1064 1.235 . S
O1057 Eu1008 2.419 . S
O1057 C1072 1.249 . S
O1058 Eu1019 2.558 . S
O1058 C1083 1.257 . S
O1059 Eu1008 2.380 . S
O1059 Eu1019 2.612 . S
O1059 C1075 1.276 . S
O1060 Eu1008 2.432 . S
O1060 C1082 1.264 . S
O1061 Eu1019 2.339 . S
O1061 C1082 1.254 . S
O1062 Eu1019 2.563 . S
O1062 C1075 1.235 . S
O1063 Eu1019 2.419 . S
O1063 C1083 1.249 . S
C1064 O1053 1.276 . S
C1064 O1056 1.235 . S
C1065 C1067 1.393 . S
C1065 C1069 1.395 . S
C1065 C1072 1.492 . S
C1066 C1067 1.392 1_556 S
C1066 C1068 1.386 1_556 S
C1067 C1065 1.393 . S
C1067 C1066 1.392 1_554 S
C1067 H1084 0.930 1_554 S
C1068 C1066 1.386 1_554 S
C1068 C1070 1.395 . S
C1068 H1085 0.924 1_554 S
C1069 C1065 1.395 . S
C1069 C1070 1.379 . S
C1069 H1086 0.930 . S
C1070 C1068 1.395 . S
C1070 C1069 1.379 . S
C1070 H1087 0.930 . S
C1071 O1054 1.264 . S
C1071 O1055 1.254 . S
C1072 Eu1008 2.848 . S
C1072 O1052 1.257 . S
C1072 O1057 1.249 . S
C1072 C1065 1.492 . S
C1073 H1038 0.931 . S
C1073 C1051 1.420 . S
C1073 C1074 1.351 . S
C1074 H1036 0.930 . S
C1074 C1042 1.423 . S
C1074 C1073 1.351 . S
C1075 O1059 1.276 . S
C1075 O1062 1.235 . S
C1076 C1077 1.393 . S
C1076 C1080 1.395 . S
C1076 C1083 1.492 . S
C1077 C1076 1.393 . S
C1077 C1078 1.392 . S
C1077 H1088 0.930 . S
C1078 C1077 1.392 . S
C1078 C1079 1.386 . S
C1079 C1078 1.386 . S
C1079 C1081 1.395 . S
C1079 H1089 0.930 . S
C1080 C1076 1.395 . S
C1080 C1081 1.379 . S
C1080 H1090 0.930 1_554 S
C1081 C1079 1.395 . S
C1081 C1080 1.379 . S
C1081 H1091 0.930 . S
C1082 O1060 1.264 . S
C1082 O1061 1.254 . S
C1083 Eu1019 2.848 . S
C1083 O1058 1.257 . S
C1083 O1063 1.249 . S
C1083 C1076 1.492 . S
H1084 C1067 0.930 1_556 S
H1085 C1068 0.924 1_556 S
H1086 C1069 0.930 . S
H1087 C1070 0.930 . S
H1088 C1077 0.930 . S
H1089 C1079 0.930 . S
H1090 C1080 0.930 1_556 S
H1091 C1081 0.930 . S
Eu1092 N1123 2.657 . S
Eu1092 N1130 2.609 . S
Eu1092 O1136 2.558 . S
Eu1092 O1137 2.612 . S
Eu1092 O1139 2.339 . S
Eu1092 O1140 2.563 . S
Eu1092 O1141 2.419 . S
Eu1092 O1143 2.380 . S
Eu1092 O1144 2.432 . S
Eu1092 C1156 2.848 . S
C1093 C1096 1.429 . S
C1093 C1097 1.411 . S
C1093 N1100 1.377 . S
C1094 C1096 1.420 . S
C1094 C1098 1.423 . S
C1094 C1106 1.392 . S
C1095 C1097 1.420 . S
C1095 C1098 1.351 . S
C1095 H1118 0.931 . S
C1096 C1093 1.429 . S
C1096 C1094 1.420 . S
C1096 N1104 1.362 . S
C1097 C1093 1.411 . S
C1097 C1095 1.420 . S
C1097 C1102 1.395 . S
C1098 C1094 1.423 . S
C1098 C1095 1.351 . S
C1098 H1110 0.930 . S
C1099 C1101 1.400 . S
C1099 C1102 1.386 . S
C1099 H1111 0.930 . S
N1100 C1093 1.377 . S
N1100 C1101 1.321 . S
N1100 Eu1103 2.609 . S
C1101 C1099 1.400 . S
C1101 N1100 1.321 . S
C1101 H1108 0.930 . S
C1102 C1097 1.395 . S
C1102 C1099 1.386 . S
C1102 H1121 0.930 . S
Eu1103 N1100 2.609 . S
Eu1103 N1104 2.657 . S
Eu1103 O1137 2.380 . S
Eu1103 O1138 2.432 . S
Eu1103 O1142 2.558 . S
Eu1103 O1143 2.612 . S
Eu1103 O1145 2.339 . S
Eu1103 O1146 2.563 . S
Eu1103 O1147 2.419 . S
Eu1103 C1167 2.848 . S
N1104 C1096 1.362 . S
N1104 Eu1103 2.657 . S
N1104 C1105 1.334 . S
C1105 N1104 1.334 . S
C1105 C1107 1.413 . S
C1105 H1112 0.929 . S
C1106 C1094 1.392 . S
C1106 C1107 1.367 . S
C1106 H1114 0.930 . S
C1107 C1105 1.413 . S
C1107 C1106 1.367 . S
C1107 H1109 0.930 . S
H1108 C1101 0.930 . S
H1109 C1107 0.930 . S
H1110 C1098 0.930 . S
H1111 C1099 0.930 . S
H1112 C1105 0.929 . S
H1113 C1127 0.930 . S
H1114 C1106 0.930 . S
H1115 C1133 0.930 . S
H1116 C1124 0.929 . S
H1117 C1131 0.930 . S
H1118 C1095 0.931 . S
H1119 C1125 0.930 . S
H1120 C1158 0.930 . S
H1121 C1102 0.930 . S
H1122 C1157 0.931 . S
N1123 Eu1092 2.657 . S
N1123 C1124 1.334 . S
N1123 C1128 1.362 . S
C1124 H1116 0.929 . S
C1124 N1123 1.334 . S
C1124 C1127 1.413 . S
C1125 H1119 0.930 . S
C1125 C1126 1.392 . S
C1125 C1127 1.367 . S
C1126 C1125 1.392 . S
C1126 C1128 1.420 . S
C1126 C1158 1.423 . S
C1127 H1113 0.930 . S
C1127 C1124 1.413 . S
C1127 C1125 1.367 . S
C1128 N1123 1.362 . S
C1128 C1126 1.420 . S
C1128 C1132 1.429 . S
H1129 C1134 0.930 . S
N1130 Eu1092 2.609 . S
N1130 C1132 1.377 . S
N1130 C1133 1.321 . S
C1131 H1117 0.930 . S
C1131 C1133 1.400 . S
C1131 C1134 1.386 . S
C1132 C1128 1.429 . S
C1132 N1130 1.377 . S
C1132 C1135 1.411 . S
C1133 H1115 0.930 . S
C1133 N1130 1.321 . S
C1133 C1131 1.400 . S
C1134 H1129 0.930 . S
C1134 C1131 1.386 . S
C1134 C1135 1.395 . S
C1135 C1132 1.411 . S
C1135 C1134 1.395 . S
C1135 C1157 1.420 . S
O1136 Eu1092 2.558 . S
O1136 C1156 1.257 . S
O1137 Eu1092 2.612 . S
O1137 Eu1103 2.380 . S
O1137 C1148 1.276 . S
O1138 Eu1103 2.432 . S
O1138 C1155 1.264 . S
O1139 Eu1092 2.339 . S
O1139 C1155 1.254 . S
O1140 Eu1092 2.563 . S
O1140 C1148 1.235 . S
O1141 Eu1092 2.419 . S
O1141 C1156 1.249 . S
O1142 Eu1103 2.558 . S
O1142 C1167 1.257 . S
O1143 Eu1092 2.380 . S
O1143 Eu1103 2.612 . S
O1143 C1159 1.276 . S
O1144 Eu1092 2.432 . S
O1144 C1166 1.264 . S
O1145 Eu1103 2.339 . S
O1145 C1166 1.254 . S
O1146 Eu1103 2.563 . S
O1146 C1159 1.235 . S
O1147 Eu1103 2.419 . S
O1147 C1167 1.249 . S
C1148 O1137 1.276 . S
C1148 O1140 1.235 . S
C1149 C1151 1.393 . S
C1149 C1153 1.395 . S
C1149 C1156 1.492 . S
C1150 C1151 1.392 . S
C1150 C1152 1.386 . S
C1151 C1149 1.393 . S
C1151 C1150 1.392 . S
C1151 H1168 0.930 . S
C1152 C1150 1.386 . S
C1152 C1154 1.395 . S
C1152 H1169 0.930 1_655 S
C1153 C1149 1.395 . S
C1153 C1154 1.379 . S
C1153 H1170 0.930 . S
C1154 C1152 1.395 . S
C1154 C1153 1.379 . S
C1154 H1171 0.930 . S
C1155 O1138 1.264 . S
C1155 O1139 1.254 . S
C1156 Eu1092 2.848 . S
C1156 O1136 1.257 . S
C1156 O1141 1.249 . S
C1156 C1149 1.492 . S
C1157 H1122 0.931 . S
C1157 C1135 1.420 . S
C1157 C1158 1.351 . S
C1158 H1120 0.930 . S
C1158 C1126 1.423 . S
C1158 C1157 1.351 . S
C1159 O1143 1.276 . S
C1159 O1146 1.235 . S
C1160 C1161 1.393 . S
C1160 C1164 1.395 . S
C1160 C1167 1.492 . S
C1161 C1160 1.393 . S
C1161 C1162 1.392 . S
C1161 H1172 0.930 . S
C1162 C1161 1.392 . S
C1162 C1163 1.386 . S
C1163 C1162 1.386 . S
C1163 C1165 1.395 . S
C1163 H1173 0.930 . S
C1164 C1160 1.395 . S
C1164 C1165 1.379 . S
C1164 H1174 0.930 . S
C1165 C1163 1.395 . S
C1165 C1164 1.379 . S
C1165 H1175 0.930 . S
C1166 O1144 1.264 . S
C1166 O1145 1.254 . S
C1167 Eu1103 2.848 . S
C1167 O1142 1.257 . S
C1167 O1147 1.249 . S
C1167 C1160 1.492 . S
H1168 C1151 0.930 . S
H1169 C1152 0.930 1_455 S
H1170 C1153 0.930 . S
H1171 C1154 0.930 . S
H1172 C1161 0.930 . S
H1173 C1163 0.930 . S
H1174 C1164 0.930 . S
H1175 C1165 0.930 . S
Eu1176 N1207 2.657 . S
Eu1176 N1214 2.609 . S
Eu1176 O1220 2.558 . S
Eu1176 O1221 2.612 . S
Eu1176 O1223 2.339 . S
Eu1176 O1224 2.563 . S
Eu1176 O1225 2.419 . S
Eu1176 O1227 2.380 . S
Eu1176 O1228 2.432 . S
Eu1176 C1240 2.848 . S
C1177 C1180 1.429 . S
C1177 C1181 1.410 . S
C1177 N1184 1.378 1_655 S
C1178 C1180 1.420 . S
C1178 C1182 1.423 . S
C1178 C1190 1.392 . S
C1179 C1181 1.420 . S
C1179 C1182 1.351 . S
C1179 H1202 0.931 . S
C1180 C1177 1.429 . S
C1180 C1178 1.420 . S
C1180 N1188 1.362 1_655 S
C1181 C1177 1.410 . S
C1181 C1179 1.420 . S
C1181 C1186 1.395 . S
C1182 C1178 1.423 . S
C1182 C1179 1.351 . S
C1182 H1194 0.930 . S
C1183 C1185 1.400 . S
C1183 C1186 1.386 1_455 S
C1183 H1195 0.930 . S
N1184 C1177 1.378 1_455 S
N1184 C1185 1.321 . S
N1184 Eu1187 2.609 . S
C1185 C1183 1.400 . S
C1185 N1184 1.321 . S
C1185 H1192 0.930 . S
C1186 C1181 1.395 . S
C1186 C1183 1.386 1_655 S
C1186 H1205 0.930 . S
Eu1187 N1184 2.609 . S
Eu1187 N1188 2.657 . S
Eu1187 O1221 2.380 . S
Eu1187 O1222 2.432 . S
Eu1187 O1226 2.558 . S
Eu1187 O1227 2.612 . S
Eu1187 O1229 2.339 . S
Eu1187 O1230 2.563 . S
Eu1187 O1231 2.419 . S
Eu1187 C1251 2.848 . S
N1188 C1180 1.362 1_455 S
N1188 Eu1187 2.657 . S
N1188 C1189 1.334 . S
C1189 N1188 1.334 . S
C1189 C1191 1.413 1_455 S
C1189 H1196 0.929 . S
C1190 C1178 1.392 . S
C1190 C1191 1.367 . S
C1190 H1198 0.930 . S
C1191 C1189 1.413 1_655 S
C1191 C1190 1.367 . S
C1191 H1193 0.930 . S
H1192 C1185 0.930 . S
H1193 C1191 0.930 . S
H1194 C1182 0.930 . S
H1195 C1183 0.930 . S
H1196 C1189 0.929 . S
H1197 C1211 0.930 . S
H1198 C1190 0.930 . S
H1199 C1217 0.930 . S
H1200 C1208 0.929 . S
H1201 C1215 0.930 . S
H1202 C1179 0.931 . S
H1203 C1209 0.930 . S
H1204 C1242 0.930 . S
H1205 C1186 0.930 . S
H1206 C1241 0.931 . S
N1207 Eu1176 2.657 . S
N1207 C1208 1.334 . S
N1207 C1212 1.362 . S
C1208 H1200 0.929 . S
C1208 N1207 1.334 . S
C1208 C1211 1.413 . S
C1209 H1203 0.930 . S
C1209 C1210 1.392 . S
C1209 C1211 1.367 . S
C1210 C1209 1.392 . S
C1210 C1212 1.420 . S
C1210 C1242 1.423 . S
C1211 H1197 0.930 . S
C1211 C1208 1.413 . S
C1211 C1209 1.367 . S
C1212 N1207 1.362 . S
C1212 C1210 1.420 . S
C1212 C1216 1.429 . S
H1213 C1218 0.930 . S
N1214 Eu1176 2.609 . S
N1214 C1216 1.377 . S
N1214 C1217 1.321 . S
C1215 H1201 0.930 . S
C1215 C1217 1.400 . S
C1215 C1218 1.386 . S
C1216 C1212 1.429 . S
C1216 N1214 1.377 . S
C1216 C1219 1.411 . S
C1217 H1199 0.930 . S
C1217 N1214 1.321 . S
C1217 C1215 1.400 . S
C1218 H1213 0.930 . S
C1218 C1215 1.386 . S
C1218 C1219 1.395 . S
C1219 C1216 1.411 . S
C1219 C1218 1.395 . S
C1219 C1241 1.420 . S
O1220 Eu1176 2.558 . S
O1220 C1240 1.257 . S
O1221 Eu1176 2.612 . S
O1221 Eu1187 2.380 . S
O1221 C1232 1.276 . S
O1222 Eu1187 2.432 . S
O1222 C1239 1.264 . S
O1223 Eu1176 2.339 . S
O1223 C1239 1.254 . S
O1224 Eu1176 2.563 . S
O1224 C1232 1.235 . S
O1225 Eu1176 2.419 . S
O1225 C1240 1.249 . S
O1226 Eu1187 2.558 . S
O1226 C1251 1.257 . S
O1227 Eu1176 2.380 . S
O1227 Eu1187 2.612 . S
O1227 C1243 1.276 . S
O1228 Eu1176 2.432 . S
O1228 C1250 1.264 . S
O1229 Eu1187 2.339 . S
O1229 C1250 1.254 . S
O1230 Eu1187 2.563 . S
O1230 C1243 1.235 . S
O1231 Eu1187 2.419 . S
O1231 C1251 1.249 . S
C1232 O1221 1.276 . S
C1232 O1224 1.235 . S
C1233 C1235 1.393 . S
C1233 C1237 1.395 . S
C1233 C1240 1.492 . S
C1234 C1235 1.392 . S
C1234 C1236 1.386 . S
C1235 C1233 1.393 . S
C1235 C1234 1.392 . S
C1235 H1252 0.930 . S
C1236 C1234 1.386 . S
C1236 C1238 1.395 . S
C1236 H1253 0.930 . S
C1237 C1233 1.395 . S
C1237 C1238 1.379 . S
C1237 H1254 0.930 . S
C1238 C1236 1.395 . S
C1238 C1237 1.379 . S
C1238 H1255 0.930 . S
C1239 O1222 1.264 . S
C1239 O1223 1.254 . S
C1240 Eu1176 2.848 . S
C1240 O1220 1.257 . S
C1240 O1225 1.249 . S
C1240 C1233 1.492 . S
C1241 H1206 0.931 . S
C1241 C1219 1.420 . S
C1241 C1242 1.351 . S
C1242 H1204 0.930 . S
C1242 C1210 1.423 . S
C1242 C1241 1.351 . S
C1243 O1227 1.276 . S
C1243 O1230 1.235 . S
C1244 C1245 1.393 . S
C1244 C1248 1.395 . S
C1244 C1251 1.492 . S
C1245 C1244 1.393 . S
C1245 C1246 1.392 . S
C1245 H1256 0.930 . S
C1246 C1245 1.392 . S
C1246 C1247 1.386 . S
C1247 C1246 1.386 . S
C1247 C1249 1.395 . S
C1247 H1257 0.930 . S
C1248 C1244 1.395 . S
C1248 C1249 1.379 . S
C1248 H1258 0.930 . S
C1249 C1247 1.395 . S
C1249 C1248 1.379 . S
C1249 H1259 0.930 . S
C1250 O1228 1.264 . S
C1250 O1229 1.254 . S
C1251 Eu1187 2.848 . S
C1251 O1226 1.257 . S
C1251 O1231 1.249 . S
C1251 C1244 1.492 . S
H1252 C1235 0.930 . S
H1253 C1236 0.930 . S
H1254 C1237 0.930 . S
H1255 C1238 0.930 . S
H1256 C1245 0.930 . S
H1257 C1247 0.930 . S
H1258 C1248 0.930 . S
H1259 C1249 0.930 . S
Eu1260 N1291 2.657 . S
Eu1260 N1298 2.609 . S
Eu1260 O1304 2.558 . S
Eu1260 O1305 2.612 . S
Eu1260 O1307 2.339 . S
Eu1260 O1308 2.563 . S
Eu1260 O1309 2.419 . S
Eu1260 O1311 2.380 . S
Eu1260 O1312 2.432 . S
Eu1260 C1324 2.848 . S
C1261 C1264 1.429 . S
C1261 C1265 1.411 . S
C1261 N1268 1.377 . S
C1262 C1264 1.420 . S
C1262 C1266 1.423 . S
C1262 C1274 1.392 . S
C1263 C1265 1.420 . S
C1263 C1266 1.351 . S
C1263 H1286 0.931 . S
C1264 C1261 1.429 . S
C1264 C1262 1.420 . S
C1264 N1272 1.362 . S
C1265 C1261 1.411 . S
C1265 C1263 1.420 . S
C1265 C1270 1.395 . S
C1266 C1262 1.423 . S
C1266 C1263 1.351 . S
C1266 H1278 0.930 . S
C1267 C1269 1.400 . S
C1267 C1270 1.386 . S
C1267 H1279 0.930 . S
N1268 C1261 1.377 . S
N1268 C1269 1.321 . S
N1268 Eu1271 2.609 . S
C1269 C1267 1.400 . S
C1269 N1268 1.321 . S
C1269 H1276 0.930 . S
C1270 C1265 1.395 . S
C1270 C1267 1.386 . S
C1270 H1289 0.930 . S
Eu1271 N1268 2.609 . S
Eu1271 N1272 2.657 . S
Eu1271 O1305 2.380 . S
Eu1271 O1306 2.432 . S
Eu1271 O1310 2.558 . S
Eu1271 O1311 2.612 . S
Eu1271 O1313 2.339 . S
Eu1271 O1314 2.563 . S
Eu1271 O1315 2.419 . S
Eu1271 C1335 2.848 . S
N1272 C1264 1.362 . S
N1272 Eu1271 2.657 . S
N1272 C1273 1.334 . S
C1273 N1272 1.334 . S
C1273 C1275 1.413 . S
C1273 H1280 0.929 . S
C1274 C1262 1.392 . S
C1274 C1275 1.367 . S
C1274 H1282 0.930 . S
C1275 C1273 1.413 . S
C1275 C1274 1.367 . S
C1275 H1277 0.930 . S
H1276 C1269 0.930 . S
H1277 C1275 0.930 . S
H1278 C1266 0.930 . S
H1279 C1267 0.930 . S
H1280 C1273 0.929 . S
H1281 C1295 0.930 . S
H1282 C1274 0.930 . S
H1283 C1301 0.930 . S
H1284 C1292 0.929 . S
H1285 C1299 0.930 . S
H1286 C1263 0.931 . S
H1287 C1293 0.930 . S
H1288 C1326 0.930 . S
H1289 C1270 0.930 . S
H1290 C1325 0.931 . S
N1291 Eu1260 2.657 . S
N1291 C1292 1.334 . S
N1291 C1296 1.362 . S
C1292 H1284 0.929 . S
C1292 N1291 1.334 . S
C1292 C1295 1.413 . S
C1293 H1287 0.930 . S
C1293 C1294 1.392 . S
C1293 C1295 1.367 . S
C1294 C1293 1.392 . S
C1294 C1296 1.420 . S
C1294 C1326 1.423 . S
C1295 H1281 0.930 . S
C1295 C1292 1.413 . S
C1295 C1293 1.367 . S
C1296 N1291 1.362 . S
C1296 C1294 1.420 . S
C1296 C1300 1.429 . S
H1297 C1302 0.930 . S
N1298 Eu1260 2.609 . S
N1298 C1300 1.377 . S
N1298 C1301 1.321 . S
C1299 H1285 0.930 . S
C1299 C1301 1.400 . S
C1299 C1302 1.386 . S
C1300 C1296 1.429 . S
C1300 N1298 1.377 . S
C1300 C1303 1.411 . S
C1301 H1283 0.930 . S
C1301 N1298 1.321 . S
C1301 C1299 1.400 . S
C1302 H1297 0.930 . S
C1302 C1299 1.386 . S
C1302 C1303 1.395 . S
C1303 C1300 1.411 . S
C1303 C1302 1.395 . S
C1303 C1325 1.420 . S
O1304 Eu1260 2.558 . S
O1304 C1324 1.257 . S
O1305 Eu1260 2.612 . S
O1305 Eu1271 2.380 . S
O1305 C1316 1.276 . S
O1306 Eu1271 2.432 . S
O1306 C1323 1.264 . S
O1307 Eu1260 2.339 . S
O1307 C1323 1.254 . S
O1308 Eu1260 2.563 . S
O1308 C1316 1.235 . S
O1309 Eu1260 2.419 . S
O1309 C1324 1.249 . S
O1310 Eu1271 2.558 . S
O1310 C1335 1.257 . S
O1311 Eu1260 2.380 . S
O1311 Eu1271 2.612 . S
O1311 C1327 1.276 . S
O1312 Eu1260 2.432 . S
O1312 C1334 1.264 . S
O1313 Eu1271 2.339 . S
O1313 C1334 1.254 . S
O1314 Eu1271 2.563 . S
O1314 C1327 1.235 . S
O1315 Eu1271 2.419 . S
O1315 C1335 1.249 . S
C1316 O1305 1.276 . S
C1316 O1308 1.235 . S
C1317 C1319 1.393 . S
C1317 C1321 1.395 . S
C1317 C1324 1.492 . S
C1318 C1319 1.392 . S
C1318 C1320 1.386 . S
C1319 C1317 1.393 . S
C1319 C1318 1.392 . S
C1319 H1336 0.930 . S
C1320 C1318 1.386 . S
C1320 C1322 1.395 . S
C1320 H1337 0.930 . S
C1321 C1317 1.395 . S
C1321 C1322 1.379 . S
C1321 H1338 0.930 . S
C1322 C1320 1.395 . S
C1322 C1321 1.379 . S
C1322 H1339 0.930 . S
C1323 O1306 1.264 . S
C1323 O1307 1.254 . S
C1324 Eu1260 2.848 . S
C1324 O1304 1.257 . S
C1324 O1309 1.249 . S
C1324 C1317 1.492 . S
C1325 H1290 0.931 . S
C1325 C1303 1.420 . S
C1325 C1326 1.351 . S
C1326 H1288 0.930 . S
C1326 C1294 1.423 . S
C1326 C1325 1.351 . S
C1327 O1311 1.276 . S
C1327 O1314 1.235 . S
C1328 C1329 1.393 . S
C1328 C1332 1.395 . S
C1328 C1335 1.492 . S
C1329 C1328 1.393 . S
C1329 C1330 1.392 . S
C1329 H1340 0.930 . S
C1330 C1329 1.392 . S
C1330 C1331 1.386 . S
C1331 C1330 1.386 . S
C1331 C1333 1.395 . S
C1331 H1341 0.930 . S
C1332 C1328 1.395 . S
C1332 C1333 1.379 . S
C1332 H1342 0.930 . S
C1333 C1331 1.395 . S
C1333 C1332 1.379 . S
C1333 H1343 0.930 . S
C1334 O1312 1.264 . S
C1334 O1313 1.254 . S
C1335 Eu1271 2.848 . S
C1335 O1310 1.257 . S
C1335 O1315 1.249 . S
C1335 C1328 1.492 . S
H1336 C1319 0.930 . S
H1337 C1320 0.930 . S
H1338 C1321 0.930 . S
H1339 C1322 0.930 . S
H1340 C1329 0.930 . S
H1341 C1331 0.930 . S
H1342 C1332 0.930 . S
H1343 C1333 0.930 . S
Eu1344 N1375 2.657 . S
Eu1344 N1382 2.609 . S
Eu1344 O1388 2.558 . S
Eu1344 O1389 2.612 . S
Eu1344 O1391 2.339 . S
Eu1344 O1392 2.563 . S
Eu1344 O1393 2.419 . S
Eu1344 O1395 2.380 . S
Eu1344 O1396 2.432 . S
Eu1344 C1408 2.848 . S
C1345 C1348 1.429 . S
C1345 C1349 1.411 . S
C1345 N1352 1.377 . S
C1346 C1348 1.420 . S
C1346 C1350 1.423 . S
C1346 C1358 1.392 . S
C1347 C1349 1.420 . S
C1347 C1350 1.351 . S
C1347 H1370 0.931 . S
C1348 C1345 1.429 . S
C1348 C1346 1.420 . S
C1348 N1356 1.362 . S
C1349 C1345 1.411 . S
C1349 C1347 1.420 . S
C1349 C1354 1.395 . S
C1350 C1346 1.423 . S
C1350 C1347 1.351 . S
C1350 H1362 0.930 . S
C1351 C1353 1.400 . S
C1351 C1354 1.386 . S
C1351 H1363 0.930 . S
N1352 C1345 1.377 . S
N1352 C1353 1.321 . S
N1352 Eu1355 2.609 . S
C1353 C1351 1.400 . S
C1353 N1352 1.321 . S
C1353 H1360 0.930 . S
C1354 C1349 1.395 . S
C1354 C1351 1.386 . S
C1354 H1373 0.930 . S
Eu1355 N1352 2.609 . S
Eu1355 N1356 2.657 . S
Eu1355 O1389 2.380 . S
Eu1355 O1390 2.432 . S
Eu1355 O1394 2.558 . S
Eu1355 O1395 2.612 . S
Eu1355 O1397 2.339 . S
Eu1355 O1398 2.563 . S
Eu1355 O1399 2.419 . S
Eu1355 C1419 2.848 . S
N1356 C1348 1.362 . S
N1356 Eu1355 2.657 . S
N1356 C1357 1.334 . S
C1357 N1356 1.334 . S
C1357 C1359 1.413 . S
C1357 H1364 0.929 . S
C1358 C1346 1.392 . S
C1358 C1359 1.367 . S
C1358 H1366 0.930 . S
C1359 C1357 1.413 . S
C1359 C1358 1.367 . S
C1359 H1361 0.930 . S
H1360 C1353 0.930 . S
H1361 C1359 0.930 . S
H1362 C1350 0.930 . S
H1363 C1351 0.930 . S
H1364 C1357 0.929 . S
H1365 C1379 0.930 . S
H1366 C1358 0.930 . S
H1367 C1385 0.930 . S
H1368 C1376 0.929 . S
H1369 C1383 0.930 . S
H1370 C1347 0.931 . S
H1371 C1377 0.930 . S
H1372 C1410 0.930 . S
H1373 C1354 0.930 . S
H1374 C1409 0.931 . S
N1375 Eu1344 2.657 . S
N1375 C1376 1.334 . S
N1375 C1380 1.362 . S
C1376 H1368 0.929 . S
C1376 N1375 1.334 . S
C1376 C1379 1.413 . S
C1377 H1371 0.930 . S
C1377 C1378 1.392 . S
C1377 C1379 1.367 . S
C1378 C1377 1.392 . S
C1378 C1380 1.420 . S
C1378 C1410 1.423 . S
C1379 H1365 0.930 . S
C1379 C1376 1.413 . S
C1379 C1377 1.367 . S
C1380 N1375 1.362 . S
C1380 C1378 1.420 . S
C1380 C1384 1.429 . S
H1381 C1386 0.930 . S
N1382 Eu1344 2.609 . S
N1382 C1384 1.377 . S
N1382 C1385 1.321 . S
C1383 H1369 0.930 . S
C1383 C1385 1.400 . S
C1383 C1386 1.386 . S
C1384 C1380 1.429 . S
C1384 N1382 1.377 . S
C1384 C1387 1.411 . S
C1385 H1367 0.930 . S
C1385 N1382 1.321 . S
C1385 C1383 1.400 . S
C1386 H1381 0.930 . S
C1386 C1383 1.386 . S
C1386 C1387 1.395 . S
C1387 C1384 1.411 . S
C1387 C1386 1.395 . S
C1387 C1409 1.420 . S
O1388 Eu1344 2.558 . S
O1388 C1408 1.257 . S
O1389 Eu1344 2.612 . S
O1389 Eu1355 2.380 . S
O1389 C1400 1.276 . S
O1390 Eu1355 2.432 . S
O1390 C1407 1.264 . S
O1391 Eu1344 2.339 . S
O1391 C1407 1.254 . S
O1392 Eu1344 2.563 . S
O1392 C1400 1.235 . S
O1393 Eu1344 2.419 . S
O1393 C1408 1.249 . S
O1394 Eu1355 2.558 . S
O1394 C1419 1.257 . S
O1395 Eu1344 2.380 . S
O1395 Eu1355 2.612 . S
O1395 C1411 1.276 . S
O1396 Eu1344 2.432 . S
O1396 C1418 1.264 . S
O1397 Eu1355 2.339 . S
O1397 C1418 1.254 . S
O1398 Eu1355 2.563 . S
O1398 C1411 1.235 . S
O1399 Eu1355 2.419 . S
O1399 C1419 1.249 . S
C1400 O1389 1.276 . S
C1400 O1392 1.235 . S
C1401 C1403 1.393 . S
C1401 C1405 1.395 . S
C1401 C1408 1.492 . S
C1402 C1403 1.392 . S
C1402 C1404 1.386 . S
C1403 C1401 1.393 . S
C1403 C1402 1.392 . S
C1403 H1420 0.930 . S
C1404 C1402 1.386 . S
C1404 C1406 1.395 . S
C1404 H1421 0.930 . S
C1405 C1401 1.395 . S
C1405 C1406 1.379 . S
C1405 H1422 0.930 . S
C1406 C1404 1.395 . S
C1406 C1405 1.379 . S
C1406 H1423 0.930 . S
C1407 O1390 1.264 . S
C1407 O1391 1.254 . S
C1408 Eu1344 2.848 . S
C1408 O1388 1.257 . S
C1408 O1393 1.249 . S
C1408 C1401 1.492 . S
C1409 H1374 0.931 . S
C1409 C1387 1.420 . S
C1409 C1410 1.351 . S
C1410 H1372 0.930 . S
C1410 C1378 1.423 . S
C1410 C1409 1.351 . S
C1411 O1395 1.276 . S
C1411 O1398 1.235 . S
C1412 C1413 1.393 . S
C1412 C1416 1.395 . S
C1412 C1419 1.492 . S
C1413 C1412 1.393 . S
C1413 C1414 1.392 . S
C1413 H1424 0.930 . S
C1414 C1413 1.392 . S
C1414 C1415 1.386 . S
C1415 C1414 1.386 . S
C1415 C1417 1.395 . S
C1415 H1425 0.930 . S
C1416 C1412 1.395 . S
C1416 C1417 1.379 . S
C1416 H1426 0.930 . S
C1417 C1415 1.395 . S
C1417 C1416 1.379 . S
C1417 H1427 0.930 . S
C1418 O1396 1.264 . S
C1418 O1397 1.254 . S
C1419 Eu1355 2.848 . S
C1419 O1394 1.257 . S
C1419 O1399 1.249 . S
C1419 C1412 1.492 . S
H1420 C1403 0.930 . S
H1421 C1404 0.930 . S
H1422 C1405 0.930 . S
H1423 C1406 0.930 . S
H1424 C1413 0.930 . S
H1425 C1415 0.930 . S
H1426 C1416 0.930 . S
H1427 C1417 0.930 . S
Eu1428 N1459 2.657 . S
Eu1428 N1466 2.609 . S
Eu1428 O1472 2.558 . S
Eu1428 O1473 2.612 . S
Eu1428 O1475 2.339 . S
Eu1428 O1476 2.563 . S
Eu1428 O1477 2.419 . S
Eu1428 O1479 2.380 . S
Eu1428 O1480 2.432 . S
Eu1428 C1492 2.848 . S
C1429 C1432 1.429 . S
C1429 C1433 1.411 . S
C1429 N1436 1.377 . S
C1430 C1432 1.420 . S
C1430 C1434 1.423 . S
C1430 C1442 1.392 . S
C1431 C1433 1.420 . S
C1431 C1434 1.351 . S
C1431 H1454 0.931 . S
C1432 C1429 1.429 . S
C1432 C1430 1.420 . S
C1432 N1440 1.362 . S
C1433 C1429 1.411 . S
C1433 C1431 1.420 . S
C1433 C1438 1.395 . S
C1434 C1430 1.423 . S
C1434 C1431 1.351 . S
C1434 H1446 0.930 . S
C1435 C1437 1.400 . S
C1435 C1438 1.386 . S
C1435 H1447 0.930 . S
N1436 C1429 1.377 . S
N1436 C1437 1.321 . S
N1436 Eu1439 2.609 . S
C1437 C1435 1.400 . S
C1437 N1436 1.321 . S
C1437 H1444 0.930 . S
C1438 C1433 1.395 . S
C1438 C1435 1.386 . S
C1438 H1457 0.930 . S
Eu1439 N1436 2.609 . S
Eu1439 N1440 2.657 . S
Eu1439 O1473 2.380 . S
Eu1439 O1474 2.432 . S
Eu1439 O1478 2.558 . S
Eu1439 O1479 2.612 . S
Eu1439 O1481 2.339 . S
Eu1439 O1482 2.563 . S
Eu1439 O1483 2.419 . S
Eu1439 C1503 2.848 . S
N1440 C1432 1.362 . S
N1440 Eu1439 2.657 . S
N1440 C1441 1.334 . S
C1441 N1440 1.334 . S
C1441 C1443 1.413 . S
C1441 H1448 0.929 . S
C1442 C1430 1.392 . S
C1442 C1443 1.367 . S
C1442 H1450 0.930 . S
C1443 C1441 1.413 . S
C1443 C1442 1.367 . S
C1443 H1445 0.930 . S
H1444 C1437 0.930 . S
H1445 C1443 0.930 . S
H1446 C1434 0.930 . S
H1447 C1435 0.930 . S
H1448 C1441 0.929 . S
H1449 C1463 0.930 . S
H1450 C1442 0.930 . S
H1451 C1469 0.930 . S
H1452 C1460 0.929 . S
H1453 C1467 0.930 . S
H1454 C1431 0.931 . S
H1455 C1461 0.930 . S
H1456 C1494 0.930 . S
H1457 C1438 0.930 . S
H1458 C1493 0.931 . S
N1459 Eu1428 2.657 . S
N1459 C1460 1.334 . S
N1459 C1464 1.362 . S
C1460 H1452 0.929 . S
C1460 N1459 1.334 . S
C1460 C1463 1.413 . S
C1461 H1455 0.930 . S
C1461 C1462 1.392 . S
C1461 C1463 1.367 . S
C1462 C1461 1.392 . S
C1462 C1464 1.420 . S
C1462 C1494 1.423 . S
C1463 H1449 0.930 . S
C1463 C1460 1.413 . S
C1463 C1461 1.367 . S
C1464 N1459 1.362 . S
C1464 C1462 1.420 . S
C1464 C1468 1.429 . S
H1465 C1470 0.930 . S
N1466 Eu1428 2.609 . S
N1466 C1468 1.377 . S
N1466 C1469 1.321 . S
C1467 H1453 0.930 . S
C1467 C1469 1.400 . S
C1467 C1470 1.386 . S
C1468 C1464 1.429 . S
C1468 N1466 1.377 . S
C1468 C1471 1.411 . S
C1469 H1451 0.930 . S
C1469 N1466 1.321 . S
C1469 C1467 1.400 . S
C1470 H1465 0.930 . S
C1470 C1467 1.386 . S
C1470 C1471 1.395 . S
C1471 C1468 1.411 . S
C1471 C1470 1.395 . S
C1471 C1493 1.420 . S
O1472 Eu1428 2.558 . S
O1472 C1492 1.257 . S
O1473 Eu1428 2.612 . S
O1473 Eu1439 2.380 . S
O1473 C1484 1.276 . S
O1474 Eu1439 2.432 . S
O1474 C1491 1.264 . S
O1475 Eu1428 2.339 . S
O1475 C1491 1.254 . S
O1476 Eu1428 2.563 . S
O1476 C1484 1.235 . S
O1477 Eu1428 2.419 . S
O1477 C1492 1.249 . S
O1478 Eu1439 2.558 . S
O1478 C1503 1.257 . S
O1479 Eu1428 2.380 . S
O1479 Eu1439 2.612 . S
O1479 C1495 1.276 . S
O1480 Eu1428 2.432 . S
O1480 C1502 1.264 . S
O1481 Eu1439 2.339 . S
O1481 C1502 1.254 . S
O1482 Eu1439 2.563 . S
O1482 C1495 1.235 . S
O1483 Eu1439 2.419 . S
O1483 C1503 1.249 . S
C1484 O1473 1.276 . S
C1484 O1476 1.235 . S
C1485 C1487 1.393 . S
C1485 C1489 1.395 . S
C1485 C1492 1.492 . S
C1486 C1487 1.392 . S
C1486 C1488 1.386 . S
C1487 C1485 1.393 . S
C1487 C1486 1.392 . S
C1487 H1504 0.930 . S
C1488 C1486 1.386 . S
C1488 C1490 1.395 . S
C1488 H1505 0.930 . S
C1489 C1485 1.395 . S
C1489 C1490 1.379 . S
C1489 H1506 0.930 . S
C1490 C1488 1.395 . S
C1490 C1489 1.379 . S
C1490 H1507 0.930 . S
C1491 O1474 1.264 . S
C1491 O1475 1.254 . S
C1492 Eu1428 2.848 . S
C1492 O1472 1.257 . S
C1492 O1477 1.249 . S
C1492 C1485 1.492 . S
C1493 H1458 0.931 . S
C1493 C1471 1.420 . S
C1493 C1494 1.351 . S
C1494 H1456 0.930 . S
C1494 C1462 1.423 . S
C1494 C1493 1.351 . S
C1495 O1479 1.276 . S
C1495 O1482 1.235 . S
C1496 C1497 1.393 . S
C1496 C1500 1.395 . S
C1496 C1503 1.492 . S
C1497 C1496 1.393 . S
C1497 C1498 1.392 . S
C1497 H1508 0.930 . S
C1498 C1497 1.392 . S
C1498 C1499 1.386 . S
C1499 C1498 1.386 . S
C1499 C1501 1.395 . S
C1499 H1509 0.930 . S
C1500 C1496 1.395 . S
C1500 C1501 1.379 . S
C1500 H1510 0.930 . S
C1501 C1499 1.395 . S
C1501 C1500 1.379 . S
C1501 H1511 0.930 . S
C1502 O1480 1.264 . S
C1502 O1481 1.254 . S
C1503 Eu1439 2.848 . S
C1503 O1478 1.257 . S
C1503 O1483 1.249 . S
C1503 C1496 1.492 . S
H1504 C1487 0.930 . S
H1505 C1488 0.930 . S
H1506 C1489 0.930 . S
H1507 C1490 0.930 . S
H1508 C1497 0.930 . S
H1509 C1499 0.930 . S
H1510 C1500 0.930 . S
H1511 C1501 0.930 . S
Eu1512 N1543 2.657 . S
Eu1512 N1550 2.609 . S
Eu1512 O1556 2.558 . S
Eu1512 O1557 2.612 . S
Eu1512 O1559 2.339 . S
Eu1512 O1560 2.563 . S
Eu1512 O1561 2.419 . S
Eu1512 O1563 2.380 . S
Eu1512 O1564 2.432 . S
Eu1512 C1576 2.848 . S
C1513 C1516 1.429 . S
C1513 C1517 1.411 . S
C1513 N1520 1.377 . S
C1514 C1516 1.420 . S
C1514 C1518 1.423 . S
C1514 C1526 1.392 . S
C1515 C1517 1.420 . S
C1515 C1518 1.351 . S
C1515 H1538 0.931 . S
C1516 C1513 1.429 . S
C1516 C1514 1.420 . S
C1516 N1524 1.362 . S
C1517 C1513 1.411 . S
C1517 C1515 1.420 . S
C1517 C1522 1.395 . S
C1518 C1514 1.423 . S
C1518 C1515 1.351 . S
C1518 H1530 0.930 . S
C1519 C1521 1.400 . S
C1519 C1522 1.386 . S
C1519 H1531 0.930 . S
N1520 C1513 1.377 . S
N1520 C1521 1.321 . S
N1520 Eu1523 2.609 . S
C1521 C1519 1.400 . S
C1521 N1520 1.321 . S
C1521 H1528 0.930 . S
C1522 C1517 1.395 . S
C1522 C1519 1.386 . S
C1522 H1541 0.930 . S
Eu1523 N1520 2.609 . S
Eu1523 N1524 2.657 . S
Eu1523 O1557 2.380 . S
Eu1523 O1558 2.432 . S
Eu1523 O1562 2.558 . S
Eu1523 O1563 2.612 . S
Eu1523 O1565 2.339 . S
Eu1523 O1566 2.563 . S
Eu1523 O1567 2.419 . S
Eu1523 C1587 2.848 . S
N1524 C1516 1.362 . S
N1524 Eu1523 2.657 . S
N1524 C1525 1.334 . S
C1525 N1524 1.334 . S
C1525 C1527 1.413 . S
C1525 H1532 0.929 . S
C1526 C1514 1.392 . S
C1526 C1527 1.367 . S
C1526 H1534 0.930 . S
C1527 C1525 1.413 . S
C1527 C1526 1.367 . S
C1527 H1529 0.930 . S
H1528 C1521 0.930 . S
H1529 C1527 0.930 . S
H1530 C1518 0.930 . S
H1531 C1519 0.930 . S
H1532 C1525 0.929 . S
H1533 C1547 0.930 . S
H1534 C1526 0.930 . S
H1535 C1553 0.930 . S
H1536 C1544 0.929 . S
H1537 C1551 0.930 . S
H1538 C1515 0.931 . S
H1539 C1545 0.930 . S
H1540 C1578 0.930 . S
H1541 C1522 0.930 . S
H1542 C1577 0.931 . S
N1543 Eu1512 2.657 . S
N1543 C1544 1.334 . S
N1543 C1548 1.362 . S
C1544 H1536 0.929 . S
C1544 N1543 1.334 . S
C1544 C1547 1.413 . S
C1545 H1539 0.930 . S
C1545 C1546 1.392 . S
C1545 C1547 1.367 . S
C1546 C1545 1.392 . S
C1546 C1548 1.420 . S
C1546 C1578 1.423 . S
C1547 H1533 0.930 . S
C1547 C1544 1.413 . S
C1547 C1545 1.367 . S
C1548 N1543 1.362 . S
C1548 C1546 1.420 . S
C1548 C1552 1.429 . S
H1549 C1554 0.930 . S
N1550 Eu1512 2.609 . S
N1550 C1552 1.377 . S
N1550 C1553 1.321 . S
C1551 H1537 0.930 . S
C1551 C1553 1.400 . S
C1551 C1554 1.386 . S
C1552 C1548 1.429 . S
C1552 N1550 1.377 . S
C1552 C1555 1.411 . S
C1553 H1535 0.930 . S
C1553 N1550 1.321 . S
C1553 C1551 1.400 . S
C1554 H1549 0.930 . S
C1554 C1551 1.386 . S
C1554 C1555 1.395 . S
C1555 C1552 1.411 . S
C1555 C1554 1.395 . S
C1555 C1577 1.420 . S
O1556 Eu1512 2.558 . S
O1556 C1576 1.257 . S
O1557 Eu1512 2.612 . S
O1557 Eu1523 2.380 . S
O1557 C1568 1.276 . S
O1558 Eu1523 2.432 . S
O1558 C1575 1.264 . S
O1559 Eu1512 2.339 . S
O1559 C1575 1.254 . S
O1560 Eu1512 2.563 . S
O1560 C1568 1.235 . S
O1561 Eu1512 2.419 . S
O1561 C1576 1.249 . S
O1562 Eu1523 2.558 . S
O1562 C1587 1.257 . S
O1563 Eu1512 2.380 . S
O1563 Eu1523 2.612 . S
O1563 C1579 1.276 . S
O1564 Eu1512 2.432 . S
O1564 C1586 1.264 . S
O1565 Eu1523 2.339 . S
O1565 C1586 1.254 . S
O1566 Eu1523 2.563 . S
O1566 C1579 1.235 . S
O1567 Eu1523 2.419 . S
O1567 C1587 1.249 . S
C1568 O1557 1.276 . S
C1568 O1560 1.235 . S
C1569 C1571 1.393 . S
C1569 C1573 1.395 . S
C1569 C1576 1.492 . S
C1570 C1571 1.392 . S
C1570 C1572 1.386 . S
C1571 C1569 1.393 . S
C1571 C1570 1.392 . S
C1571 H1588 0.930 . S
C1572 C1570 1.386 . S
C1572 C1574 1.395 . S
C1572 H1589 0.930 . S
C1573 C1569 1.395 . S
C1573 C1574 1.379 . S
C1573 H1590 0.930 . S
C1574 C1572 1.395 . S
C1574 C1573 1.379 . S
C1574 H1591 0.930 . S
C1575 O1558 1.264 . S
C1575 O1559 1.254 . S
C1576 Eu1512 2.848 . S
C1576 O1556 1.257 . S
C1576 O1561 1.249 . S
C1576 C1569 1.492 . S
C1577 H1542 0.931 . S
C1577 C1555 1.420 . S
C1577 C1578 1.351 . S
C1578 H1540 0.930 . S
C1578 C1546 1.423 . S
C1578 C1577 1.351 . S
C1579 O1563 1.276 . S
C1579 O1566 1.235 . S
C1580 C1581 1.393 . S
C1580 C1584 1.395 . S
C1580 C1587 1.492 . S
C1581 C1580 1.393 . S
C1581 C1582 1.392 . S
C1581 H1592 0.930 . S
C1582 C1581 1.392 . S
C1582 C1583 1.386 . S
C1583 C1582 1.386 . S
C1583 C1585 1.395 . S
C1583 H1593 0.930 . S
C1584 C1580 1.395 . S
C1584 C1585 1.379 . S
C1584 H1594 0.930 . S
C1585 C1583 1.395 . S
C1585 C1584 1.379 . S
C1585 H1595 0.930 . S
C1586 O1564 1.264 . S
C1586 O1565 1.254 . S
C1587 Eu1523 2.848 . S
C1587 O1562 1.257 . S
C1587 O1567 1.249 . S
C1587 C1580 1.492 . S
H1588 C1571 0.930 . S
H1589 C1572 0.930 . S
H1590 C1573 0.930 . S
H1591 C1574 0.930 . S
H1592 C1581 0.930 . S
H1593 C1583 0.930 . S
H1594 C1584 0.930 . S
H1595 C1585 0.930 . S
Eu1596 N1627 2.657 . S
Eu1596 N1634 2.609 1_554 S
Eu1596 O1640 2.558 1_554 S
Eu1596 O1641 2.612 . S
Eu1596 O1643 2.339 . S
Eu1596 O1644 2.563 1_554 S
Eu1596 O1645 2.419 . S
Eu1596 O1647 2.380 . S
Eu1596 O1648 2.432 1_554 S
Eu1596 C1660 2.848 1_554 S
C1597 C1600 1.429 . S
C1597 C1601 1.411 . S
C1597 N1604 1.377 1_655 S
C1598 C1600 1.420 . S
C1598 C1602 1.423 . S
C1598 C1610 1.392 1_554 S
C1599 C1601 1.420 . S
C1599 C1602 1.351 . S
C1599 H1622 0.931 . S
C1600 C1597 1.429 . S
C1600 C1598 1.420 . S
C1600 N1608 1.362 . S
C1601 C1597 1.411 . S
C1601 C1599 1.420 . S
C1601 C1606 1.395 . S
C1602 C1598 1.423 . S
C1602 C1599 1.351 . S
C1602 H1614 0.930 . S
C1603 C1605 1.400 . S
C1603 C1606 1.386 1_455 S
C1603 H1615 0.930 . S
N1604 C1597 1.377 1_455 S
N1604 C1605 1.321 . S
N1604 Eu1607 2.609 . S
C1605 C1603 1.400 . S
C1605 N1604 1.321 . S
C1605 H1612 0.930 . S
C1606 C1601 1.395 . S
C1606 C1603 1.386 1_655 S
C1606 H1625 0.930 . S
Eu1607 N1604 2.609 . S
Eu1607 N1608 2.657 1_455 S
Eu1607 O1641 2.380 . S
Eu1607 O1642 2.432 . S
Eu1607 O1646 2.558 . S
Eu1607 O1647 2.612 . S
Eu1607 O1649 2.339 1_554 S
Eu1607 O1650 2.563 . S
Eu1607 O1651 2.419 1_455 S
Eu1607 C1671 2.848 1_455 S
N1608 C1600 1.362 . S
N1608 Eu1607 2.657 1_655 S
N1608 C1609 1.334 1_554 S
C1609 N1608 1.334 1_556 S
C1609 C1611 1.413 . S
C1609 H1616 0.929 . S
C1610 C1598 1.392 1_556 S
C1610 C1611 1.367 . S
C1610 H1618 0.930 . S
C1611 C1609 1.413 . S
C1611 C1610 1.367 . S
C1611 H1613 0.930 . S
H1612 C1605 0.930 . S
H1613 C1611 0.930 . S
H1614 C1602 0.930 . S
H1615 C1603 0.930 . S
H1616 C1609 0.929 . S
H1617 C1631 0.930 . S
H1618 C1610 0.930 . S
H1619 C1637 0.930 . S
H1620 C1628 0.929 . S
H1621 C1635 0.930 . S
H1622 C1599 0.931 . S
H1623 C1629 0.930 . S
H1624 C1662 0.930 . S
H1625 C1606 0.930 . S
H1626 C1661 0.931 . S
N1627 Eu1596 2.657 . S
N1627 C1628 1.334 . S
N1627 C1632 1.362 . S
C1628 H1620 0.929 . S
C1628 N1627 1.334 . S
C1628 C1631 1.413 . S
C1629 H1623 0.930 . S
C1629 C1630 1.392 . S
C1629 C1631 1.367 . S
C1630 C1629 1.392 . S
C1630 C1632 1.420 . S
C1630 C1662 1.423 . S
C1631 H1617 0.930 . S
C1631 C1628 1.413 . S
C1631 C1629 1.367 . S
C1632 N1627 1.362 . S
C1632 C1630 1.420 . S
C1632 C1636 1.429 1_554 S
H1633 C1638 0.930 . S
N1634 Eu1596 2.609 1_556 S
N1634 C1636 1.377 . S
N1634 C1637 1.321 . S
C1635 H1621 0.930 . S
C1635 C1637 1.400 . S
C1635 C1638 1.386 . S
C1636 C1632 1.429 1_556 S
C1636 N1634 1.377 . S
C1636 C1639 1.411 . S
C1637 H1619 0.930 . S
C1637 N1634 1.321 . S
C1637 C1635 1.400 . S
C1638 H1633 0.930 . S
C1638 C1635 1.386 . S
C1638 C1639 1.395 . S
C1639 C1636 1.411 . S
C1639 C1638 1.395 . S
C1639 C1661 1.420 . S
O1640 Eu1596 2.558 1_556 S
O1640 C1660 1.257 . S
O1641 Eu1596 2.612 . S
O1641 Eu1607 2.380 . S
O1641 C1652 1.276 . S
O1642 Eu1607 2.432 . S
O1642 C1659 1.264 . S
O1643 Eu1596 2.339 . S
O1643 C1659 1.254 . S
O1644 Eu1596 2.563 1_556 S
O1644 C1652 1.235 1_556 S
O1645 Eu1596 2.419 . S
O1645 C1660 1.249 1_554 S
O1646 Eu1607 2.558 . S
O1646 C1671 1.257 1_455 S
O1647 Eu1596 2.380 . S
O1647 Eu1607 2.612 . S
O1647 C1663 1.276 . S
O1648 Eu1596 2.432 1_556 S
O1648 C1670 1.264 . S
O1649 Eu1607 2.339 1_556 S
O1649 C1670 1.254 . S
O1650 Eu1607 2.563 . S
O1650 C1663 1.235 . S
O1651 Eu1607 2.419 1_655 S
O1651 C1671 1.249 . S
C1652 O1641 1.276 . S
C1652 O1644 1.235 1_554 S
C1653 C1655 1.382 1_556 S
C1653 C1657 1.395 . S
C1653 C1660 1.492 . S
C1654 C1655 1.390 1_556 S
C1654 C1656 1.386 . S
C1655 C1653 1.382 1_554 S
C1655 C1654 1.390 1_554 S
C1655 H1672 0.943 . S
C1656 C1654 1.386 . S
C1656 C1658 1.395 . S
C1656 H1673 0.930 . S
C1657 C1653 1.395 . S
C1657 C1658 1.379 . S
C1657 H1674 0.930 . S
C1658 C1656 1.395 . S
C1658 C1657 1.379 . S
C1658 H1675 0.930 . S
C1659 O1642 1.264 . S
C1659 O1643 1.254 . S
C1660 Eu1596 2.848 1_556 S
C1660 O1640 1.257 . S
C1660 O1645 1.249 1_556 S
C1660 C1653 1.492 . S
C1661 H1626 0.931 . S
C1661 C1639 1.420 . S
C1661 C1662 1.351 1_556 S
C1662 H1624 0.930 . S
C1662 C1630 1.423 . S
C1662 C1661 1.351 1_554 S
C1663 O1647 1.276 . S
C1663 O1650 1.235 . S
C1664 C1665 1.393 . S
C1664 C1668 1.395 . S
C1664 C1671 1.492 . S
C1665 C1664 1.393 . S
C1665 C1666 1.392 . S
C1665 H1676 0.930 . S
C1666 C1665 1.392 . S
C1666 C1667 1.386 . S
C1667 C1666 1.386 . S
C1667 C1669 1.395 . S
C1667 H1677 0.930 . S
C1668 C1664 1.395 . S
C1668 C1669 1.379 . S
C1668 H1678 0.930 . S
C1669 C1667 1.395 . S
C1669 C1668 1.379 . S
C1669 H1679 0.930 . S
C1670 O1648 1.264 . S
C1670 O1649 1.254 . S
C1671 Eu1607 2.848 1_655 S
C1671 O1646 1.257 1_655 S
C1671 O1651 1.249 . S
C1671 C1664 1.492 . S
H1672 C1655 0.943 . S
H1673 C1656 0.930 . S
H1674 C1657 0.930 . S
H1675 C1658 0.930 . S
H1676 C1665 0.930 . S
H1677 C1667 0.930 . S
H1678 C1668 0.930 . S
H1679 C1669 0.930 . S
H1680 C1686 0.930 . S
H1681 C1689 0.930 . S
H1682 C1690 0.930 . S
H1683 C1691 0.930 . S
H1684 C1694 0.930 . S
H1685 C1695 0.930 . S
C1686 H1680 0.930 . S
C1686 C1687 1.355 . S
C1686 C1688 1.415 . S
C1687 C1686 1.355 . S
C1687 C1689 1.419 1_556 S
C1688 C1686 1.415 . S
C1688 C1693 1.425 1_556 S
C1688 C1695 1.409 . S
C1689 H1681 0.930 . S
C1689 C1687 1.419 1_554 S
C1689 C1690 1.362 . S
C1690 H1682 0.930 . S
C1690 C1689 1.362 . S
C1690 C1693 1.409 . S
C1691 H1683 0.930 . S
C1691 C1692 1.355 . S
C1691 C1693 1.415 . S
C1692 C1691 1.355 . S
C1692 C1694 1.419 1_554 S
C1693 C1688 1.425 1_554 S
C1693 C1690 1.409 . S
C1693 C1691 1.415 . S
C1694 H1684 0.930 . S
C1694 C1692 1.419 1_556 S
C1694 C1695 1.362 . S
C1695 H1685 0.930 . S
C1695 C1688 1.409 . S
C1695 C1694 1.362 . S
H1696 C1702 0.930 . S
H1697 C1705 0.930 . S
H1698 C1706 0.930 . S
H1699 C1707 0.930 . S
H1700 C1710 0.930 . S
H1701 C1711 0.930 . S
C1702 H1696 0.930 . S
C1702 C1703 1.355 . S
C1702 C1704 1.415 . S
C1703 C1702 1.355 . S
C1703 C1705 1.419 . S
C1704 C1702 1.415 . S
C1704 C1709 1.425 . S
C1704 C1711 1.409 . S
C1705 H1697 0.930 . S
C1705 C1703 1.419 . S
C1705 C1706 1.362 . S
C1706 H1698 0.930 . S
C1706 C1705 1.362 . S
C1706 C1709 1.409 . S
C1707 H1699 0.930 . S
C1707 C1708 1.355 . S
C1707 C1709 1.415 . S
C1708 C1707 1.355 . S
C1708 C1710 1.419 . S
C1709 C1704 1.425 . S
C1709 C1706 1.409 . S
C1709 C1707 1.415 . S
C1710 H1700 0.930 . S
C1710 C1708 1.419 . S
C1710 C1711 1.362 . S
C1711 H1701 0.930 . S
C1711 C1704 1.409 . S
C1711 C1710 1.362 . S
H1712 C1718 0.930 . S
H1713 C1721 0.930 . S
H1714 C1722 0.930 . S
H1715 C1723 0.930 . S
H1716 C1726 0.930 . S
H1717 C1727 0.930 . S
C1718 H1712 0.930 . S
C1718 C1719 1.355 . S
C1718 C1720 1.415 . S
C1719 C1718 1.355 . S
C1719 C1721 1.419 . S
C1720 C1718 1.415 . S
C1720 C1725 1.425 . S
C1720 C1727 1.409 . S
C1721 H1713 0.930 . S
C1721 C1719 1.419 . S
C1721 C1722 1.362 . S
C1722 H1714 0.930 . S
C1722 C1721 1.362 . S
C1722 C1725 1.409 . S
C1723 H1715 0.930 . S
C1723 C1724 1.355 . S
C1723 C1725 1.415 . S
C1724 C1723 1.355 . S
C1724 C1726 1.419 . S
C1725 C1720 1.425 . S
C1725 C1722 1.409 . S
C1725 C1723 1.415 . S
C1726 H1716 0.930 . S
C1726 C1724 1.419 . S
C1726 C1727 1.362 . S
C1727 H1717 0.930 . S
C1727 C1720 1.409 . S
C1727 C1726 1.362 . S
H1728 C1734 0.930 . S
H1729 C1737 0.930 . S
H1730 C1738 0.930 . S
H1731 C1739 0.930 . S
H1732 C1742 0.930 . S
H1733 C1743 0.930 . S
C1734 H1728 0.930 . S
C1734 C1735 1.355 . S
C1734 C1736 1.415 . S
C1735 C1734 1.355 . S
C1735 C1737 1.419 . S
C1736 C1734 1.415 . S
C1736 C1741 1.425 . S
C1736 C1743 1.409 . S
C1737 H1729 0.930 . S
C1737 C1735 1.419 . S
C1737 C1738 1.362 . S
C1738 H1730 0.930 . S
C1738 C1737 1.362 . S
C1738 C1741 1.409 . S
C1739 H1731 0.930 . S
C1739 C1740 1.355 . S
C1739 C1741 1.415 . S
C1740 C1739 1.355 . S
C1740 C1742 1.419 . S
C1741 C1736 1.425 . S
C1741 C1738 1.409 . S
C1741 C1739 1.415 . S
C1742 H1732 0.930 . S
C1742 C1740 1.419 . S
C1742 C1743 1.362 . S
C1743 H1733 0.930 . S
C1743 C1736 1.409 . S
C1743 C1742 1.362 . S
H1744 C1750 0.930 . S
H1745 C1753 0.930 . S
H1746 C1754 0.930 . S
H1747 C1755 0.930 . S
H1748 C1758 0.930 . S
H1749 C1759 0.930 . S
C1750 H1744 0.930 . S
C1750 C1751 1.355 . S
C1750 C1752 1.415 . S
C1751 C1750 1.355 . S
C1751 C1753 1.419 . S
C1752 C1750 1.415 . S
C1752 C1757 1.425 . S
C1752 C1759 1.409 . S
C1753 H1745 0.930 . S
C1753 C1751 1.419 . S
C1753 C1754 1.362 . S
C1754 H1746 0.930 . S
C1754 C1753 1.362 . S
C1754 C1757 1.409 . S
C1755 H1747 0.930 . S
C1755 C1756 1.355 . S
C1755 C1757 1.415 . S
C1756 C1755 1.355 . S
C1756 C1758 1.419 . S
C1757 C1752 1.425 . S
C1757 C1754 1.409 . S
C1757 C1755 1.415 . S
C1758 H1748 0.930 . S
C1758 C1756 1.419 . S
C1758 C1759 1.362 . S
C1759 H1749 0.930 . S
C1759 C1752 1.409 . S
C1759 C1758 1.362 . S
H1760 C1766 0.930 . S
H1761 C1769 0.930 . S
H1762 C1770 0.930 . S
H1763 C1771 0.930 . S
H1764 C1774 0.930 . S
H1765 C1775 0.930 . S
C1766 H1760 0.930 . S
C1766 C1767 1.355 . S
C1766 C1768 1.415 . S
C1767 C1766 1.355 . S
C1767 C1769 1.419 . S
C1768 C1766 1.415 . S
C1768 C1773 1.425 . S
C1768 C1775 1.409 . S
C1769 H1761 0.930 . S
C1769 C1767 1.419 . S
C1769 C1770 1.362 . S
C1770 H1762 0.930 . S
C1770 C1769 1.362 . S
C1770 C1773 1.409 . S
C1771 H1763 0.930 . S
C1771 C1772 1.355 . S
C1771 C1773 1.415 . S
C1772 C1771 1.355 . S
C1772 C1774 1.419 . S
C1773 C1768 1.425 . S
C1773 C1770 1.409 . S
C1773 C1771 1.415 . S
C1774 H1764 0.930 . S
C1774 C1772 1.419 . S
C1774 C1775 1.362 . S
C1775 H1765 0.930 . S
C1775 C1768 1.409 . S
C1775 C1774 1.362 . S
H1776 C1782 0.930 . S
H1777 C1785 0.930 . S
H1778 C1786 0.930 . S
H1779 C1787 0.930 . S
H1780 C1790 0.930 . S
H1781 C1791 0.930 . S
C1782 H1776 0.930 . S
C1782 C1783 1.355 . S
C1782 C1784 1.415 . S
C1783 C1782 1.355 . S
C1783 C1785 1.419 . S
C1784 C1782 1.415 . S
C1784 C1789 1.425 . S
C1784 C1791 1.409 . S
C1785 H1777 0.930 . S
C1785 C1783 1.419 . S
C1785 C1786 1.362 . S
C1786 H1778 0.930 . S
C1786 C1785 1.362 . S
C1786 C1789 1.409 . S
C1787 H1779 0.930 . S
C1787 C1788 1.355 . S
C1787 C1789 1.415 . S
C1788 C1787 1.355 . S
C1788 C1790 1.419 . S
C1789 C1784 1.425 . S
C1789 C1786 1.409 . S
C1789 C1787 1.415 . S
C1790 H1780 0.930 . S
C1790 C1788 1.419 . S
C1790 C1791 1.362 . S
C1791 H1781 0.930 . S
C1791 C1784 1.409 . S
C1791 C1790 1.362 . S
H1792 C1798 0.930 . S
H1793 C1801 0.930 . S
H1794 C1802 0.930 . S
H1795 C1803 0.930 . S
H1796 C1806 0.930 . S
H1797 C1807 0.930 . S
C1798 H1792 0.930 . S
C1798 C1799 1.355 . S
C1798 C1800 1.415 . S
C1799 C1798 1.355 . S
C1799 C1801 1.419 . S
C1800 C1798 1.415 . S
C1800 C1805 1.425 . S
C1800 C1807 1.409 . S
C1801 H1793 0.930 . S
C1801 C1799 1.419 . S
C1801 C1802 1.362 . S
C1802 H1794 0.930 . S
C1802 C1801 1.362 . S
C1802 C1805 1.409 . S
C1803 H1795 0.930 . S
C1803 C1804 1.355 . S
C1803 C1805 1.415 . S
C1804 C1803 1.355 . S
C1804 C1806 1.419 . S
C1805 C1800 1.425 . S
C1805 C1802 1.409 . S
C1805 C1803 1.415 . S
C1806 H1796 0.930 . S
C1806 C1804 1.419 . S
C1806 C1807 1.362 . S
C1807 H1797 0.930 . S
C1807 C1800 1.409 . S
C1807 C1806 1.362 . S
H1808 C1814 0.930 . S
H1809 C1817 0.930 . S
H1810 C1818 0.930 . S
H1811 C1819 0.930 . S
H1812 C1822 0.930 . S
H1813 C1823 0.930 . S
C1814 H1808 0.930 . S
C1814 C1815 1.355 1_455 S
C1814 C1816 1.415 . S
C1815 C1814 1.355 1_655 S
C1815 C1817 1.419 . S
C1816 C1814 1.415 . S
C1816 C1821 1.425 . S
C1816 C1823 1.409 . S
C1817 H1809 0.930 . S
C1817 C1815 1.419 . S
C1817 C1818 1.362 . S
C1818 H1810 0.930 . S
C1818 C1817 1.362 . S
C1818 C1821 1.409 1_655 S
C1819 H1811 0.930 . S
C1819 C1820 1.355 . S
C1819 C1821 1.415 . S
C1820 C1819 1.355 . S
C1820 C1822 1.419 . S
C1821 C1816 1.425 . S
C1821 C1818 1.409 1_455 S
C1821 C1819 1.415 . S
C1822 H1812 0.930 . S
C1822 C1820 1.419 . S
C1822 C1823 1.362 . S
C1823 H1813 0.930 . S
C1823 C1816 1.409 . S
C1823 C1822 1.362 . S
H1824 C1830 0.930 . S
H1825 C1833 0.930 . S
H1826 C1834 0.930 . S
H1827 C1835 0.930 . S
H1828 C1838 0.930 . S
H1829 C1839 0.930 . S
C1830 H1824 0.930 . S
C1830 C1831 1.355 . S
C1830 C1832 1.415 . S
C1831 C1830 1.355 . S
C1831 C1833 1.419 . S
C1832 C1830 1.415 . S
C1832 C1837 1.425 . S
C1832 C1839 1.409 . S
C1833 H1825 0.930 . S
C1833 C1831 1.419 . S
C1833 C1834 1.362 . S
C1834 H1826 0.930 . S
C1834 C1833 1.362 . S
C1834 C1837 1.409 . S
C1835 H1827 0.930 . S
C1835 C1836 1.355 . S
C1835 C1837 1.415 . S
C1836 C1835 1.355 . S
C1836 C1838 1.419 . S
C1837 C1832 1.425 . S
C1837 C1834 1.409 . S
C1837 C1835 1.415 . S
C1838 H1828 0.930 . S
C1838 C1836 1.419 . S
C1838 C1839 1.362 . S
C1839 H1829 0.930 . S
C1839 C1832 1.409 . S
C1839 C1838 1.362 . S
H1840 C1846 0.930 . S
H1841 C1849 0.930 . S
H1842 C1850 0.930 . S
H1843 C1851 0.930 . S
H1844 C1854 0.930 . S
H1845 C1855 0.930 . S
C1846 H1840 0.930 . S
C1846 C1847 1.355 . S
C1846 C1848 1.415 . S
C1847 C1846 1.355 . S
C1847 C1849 1.419 . S
C1848 C1846 1.415 . S
C1848 C1853 1.425 . S
C1848 C1855 1.409 . S
C1849 H1841 0.930 . S
C1849 C1847 1.419 . S
C1849 C1850 1.362 . S
C1850 H1842 0.930 . S
C1850 C1849 1.362 . S
C1850 C1853 1.409 . S
C1851 H1843 0.930 . S
C1851 C1852 1.355 . S
C1851 C1853 1.415 . S
C1852 C1851 1.355 . S
C1852 C1854 1.419 . S
C1853 C1848 1.425 . S
C1853 C1850 1.409 . S
C1853 C1851 1.415 . S
C1854 H1844 0.930 . S
C1854 C1852 1.419 . S
C1854 C1855 1.362 . S
C1855 H1845 0.930 . S
C1855 C1848 1.409 . S
C1855 C1854 1.362 . S
H1856 C1862 0.930 . S
H1857 C1865 0.930 . S
H1858 C1866 0.930 . S
H1859 C1867 0.930 . S
H1860 C1870 0.930 . S
H1861 C1871 0.930 . S
C1862 H1856 0.930 . S
C1862 C1863 1.355 . S
C1862 C1864 1.415 . S
C1863 C1862 1.355 . S
C1863 C1865 1.419 . S
C1864 C1862 1.415 . S
C1864 C1869 1.425 . S
C1864 C1871 1.409 . S
C1865 H1857 0.930 . S
C1865 C1863 1.419 . S
C1865 C1866 1.362 . S
C1866 H1858 0.930 . S
C1866 C1865 1.362 . S
C1866 C1869 1.409 . S
C1867 H1859 0.930 . S
C1867 C1868 1.355 . S
C1867 C1869 1.415 . S
C1868 C1867 1.355 . S
C1868 C1870 1.419 . S
C1869 C1864 1.425 . S
C1869 C1866 1.409 . S
C1869 C1867 1.415 . S
C1870 H1860 0.930 . S
C1870 C1868 1.419 . S
C1870 C1871 1.362 . S
C1871 H1861 0.930 . S
C1871 C1864 1.409 . S
C1871 C1870 1.362 . S
H1872 C1878 0.930 . S
H1873 C1881 0.930 . S
H1874 C1882 0.930 . S
H1875 C1883 0.930 . S
H1876 C1886 0.930 . S
H1877 C1887 0.930 . S
C1878 H1872 0.930 . S
C1878 C1879 1.328 1_455 S
C1878 C1880 1.415 . S
C1879 C1878 1.328 1_655 S
C1879 C1881 1.436 . S
C1880 C1878 1.415 . S
C1880 C1885 1.425 . S
C1880 C1887 1.409 . S
C1881 H1873 0.930 . S
C1881 C1879 1.436 . S
C1881 C1882 1.362 . S
C1882 H1874 0.930 . S
C1882 C1881 1.362 . S
C1882 C1885 1.409 1_655 S
C1883 H1875 0.930 . S
C1883 C1884 1.355 . S
C1883 C1885 1.415 . S
C1884 C1883 1.355 . S
C1884 C1886 1.419 . S
C1885 C1880 1.425 . S
C1885 C1882 1.409 1_455 S
C1885 C1883 1.415 . S
C1886 H1876 0.930 . S
C1886 C1884 1.419 . S
C1886 C1887 1.362 . S
C1887 H1877 0.930 . S
C1887 C1880 1.409 . S
C1887 C1886 1.362 . S
H1888 C1894 0.930 . S
H1889 C1897 0.930 . S
H1890 C1898 0.930 . S
H1891 C1899 0.930 . S
H1892 C1902 0.930 . S
H1893 C1903 0.930 . S
C1894 H1888 0.930 . S
C1894 C1895 1.355 . S
C1894 C1896 1.415 . S
C1895 C1894 1.355 . S
C1895 C1897 1.419 . S
C1896 C1894 1.415 . S
C1896 C1901 1.425 . S
C1896 C1903 1.409 . S
C1897 H1889 0.930 . S
C1897 C1895 1.419 . S
C1897 C1898 1.362 . S
C1898 H1890 0.930 . S
C1898 C1897 1.362 . S
C1898 C1901 1.409 . S
C1899 H1891 0.930 . S
C1899 C1900 1.355 . S
C1899 C1901 1.415 . S
C1900 C1899 1.355 . S
C1900 C1902 1.419 . S
C1901 C1896 1.425 . S
C1901 C1898 1.409 . S
C1901 C1899 1.415 . S
C1902 H1892 0.930 . S
C1902 C1900 1.419 . S
C1902 C1903 1.362 . S
C1903 H1893 0.930 . S
C1903 C1896 1.409 . S
C1903 C1902 1.362 . S
H1904 C1910 0.930 . S
H1905 C1913 0.930 . S
H1906 C1914 0.930 . S
H1907 C1915 0.930 . S
H1908 C1918 0.930 . S
H1909 C1919 0.930 . S
C1910 H1904 0.930 . S
C1910 C1911 1.355 . S
C1910 C1912 1.415 . S
C1911 C1910 1.355 . S
C1911 C1913 1.419 . S
C1912 C1910 1.415 . S
C1912 C1917 1.425 . S
C1912 C1919 1.409 . S
C1913 H1905 0.930 . S
C1913 C1911 1.419 . S
C1913 C1914 1.362 . S
C1914 H1906 0.930 . S
C1914 C1913 1.362 . S
C1914 C1917 1.409 . S
C1915 H1907 0.930 . S
C1915 C1916 1.355 . S
C1915 C1917 1.415 . S
C1916 C1915 1.355 . S
C1916 C1918 1.419 . S
C1917 C1912 1.425 . S
C1917 C1914 1.409 . S
C1917 C1915 1.415 . S
C1918 H1908 0.930 . S
C1918 C1916 1.419 . S
C1918 C1919 1.362 . S
C1919 H1909 0.930 . S
C1919 C1912 1.409 . S
C1919 C1918 1.362 . S
H1920 C1926 0.930 . S
H1921 C1929 0.930 . S
H1922 C1930 0.930 . S
H1923 C1931 0.930 . S
H1924 C1934 0.930 . S
H1925 C1935 0.930 . S
C1926 H1920 0.930 . S
C1926 C1927 1.355 . S
C1926 C1928 1.415 . S
C1927 C1926 1.355 . S
C1927 C1929 1.419 . S
C1928 C1926 1.415 . S
C1928 C1933 1.425 . S
C1928 C1935 1.409 . S
C1929 H1921 0.930 . S
C1929 C1927 1.419 . S
C1929 C1930 1.362 . S
C1930 H1922 0.930 . S
C1930 C1929 1.362 . S
C1930 C1933 1.409 . S
C1931 H1923 0.930 . S
C1931 C1932 1.355 . S
C1931 C1933 1.415 . S
C1932 C1931 1.355 . S
C1932 C1934 1.419 . S
C1933 C1928 1.425 . S
C1933 C1930 1.409 . S
C1933 C1931 1.415 . S
C1934 H1924 0.930 . S
C1934 C1932 1.419 . S
C1934 C1935 1.362 . S
C1935 H1925 0.930 . S
C1935 C1928 1.409 . S
C1935 C1934 1.362 . S
H1936 C1942 0.930 . S
H1937 C1945 0.930 . S
H1938 C1946 0.930 . S
H1939 C1947 0.930 . S
H1940 C1950 0.930 . S
H1941 C1951 0.930 . S
C1942 H1936 0.930 . S
C1942 C1943 1.355 . S
C1942 C1944 1.415 . S
C1943 C1942 1.355 . S
C1943 C1945 1.419 1_565 S
C1944 C1942 1.415 . S
C1944 C1949 1.425 1_565 S
C1944 C1951 1.409 . S
C1945 H1937 0.930 . S
C1945 C1943 1.419 1_545 S
C1945 C1946 1.362 . S
C1946 H1938 0.930 . S
C1946 C1945 1.362 . S
C1946 C1949 1.409 . S
C1947 H1939 0.930 . S
C1947 C1948 1.355 . S
C1947 C1949 1.415 . S
C1948 C1947 1.355 . S
C1948 C1950 1.419 1_545 S
C1949 C1944 1.425 1_545 S
C1949 C1946 1.409 . S
C1949 C1947 1.415 . S
C1950 H1940 0.930 . S
C1950 C1948 1.419 1_565 S
C1950 C1951 1.362 . S
C1951 H1941 0.930 . S
C1951 C1944 1.409 . S
C1951 C1950 1.362 . S
H1952 C1958 0.930 . S
H1953 C1961 0.930 . S
H1954 C1962 0.930 . S
H1955 C1963 0.930 . S
H1956 C1966 0.930 . S
H1957 C1967 0.930 . S
C1958 H1952 0.930 . S
C1958 C1959 1.355 . S
C1958 C1960 1.415 . S
C1959 C1958 1.355 . S
C1959 C1961 1.419 . S
C1960 C1958 1.415 . S
C1960 C1965 1.425 . S
C1960 C1967 1.409 . S
C1961 H1953 0.930 . S
C1961 C1959 1.419 . S
C1961 C1962 1.362 . S
C1962 H1954 0.930 . S
C1962 C1961 1.362 . S
C1962 C1965 1.409 . S
C1963 H1955 0.930 . S
C1963 C1964 1.355 . S
C1963 C1965 1.415 . S
C1964 C1963 1.355 . S
C1964 C1966 1.419 . S
C1965 C1960 1.425 . S
C1965 C1962 1.409 . S
C1965 C1963 1.415 . S
C1966 H1956 0.930 . S
C1966 C1964 1.419 . S
C1966 C1967 1.362 . S
C1967 H1957 0.930 . S
C1967 C1960 1.409 . S
C1967 C1966 1.362 . S
H1968 C1974 0.930 . S
H1969 C1977 0.930 . S
H1970 C1978 0.930 . S
H1971 C1979 0.930 . S
H1972 C1982 0.930 . S
H1973 C1983 0.930 . S
C1974 H1968 0.930 . S
C1974 C1975 1.355 . S
C1974 C1976 1.415 . S
C1975 C1974 1.355 . S
C1975 C1977 1.419 . S
C1976 C1974 1.415 . S
C1976 C1981 1.425 . S
C1976 C1983 1.409 . S
C1977 H1969 0.930 . S
C1977 C1975 1.419 . S
C1977 C1978 1.362 . S
C1978 H1970 0.930 . S
C1978 C1977 1.362 . S
C1978 C1981 1.409 . S
C1979 H1971 0.930 . S
C1979 C1980 1.355 . S
C1979 C1981 1.415 . S
C1980 C1979 1.355 . S
C1980 C1982 1.419 . S
C1981 C1976 1.425 . S
C1981 C1978 1.409 . S
C1981 C1979 1.415 . S
C1982 H1972 0.930 . S
C1982 C1980 1.419 . S
C1982 C1983 1.362 . S
C1983 H1973 0.930 . S
C1983 C1976 1.409 . S
C1983 C1982 1.362 . S
H1984 C1990 0.930 . S
H1985 C1993 0.930 . S
H1986 C1994 0.930 . S
H1987 C1995 0.930 1_455 S
H1988 C1998 0.930 . S
H1989 C1999 0.930 . S
C1990 H1984 0.930 . S
C1990 C1991 1.355 . S
C1990 C1992 1.415 . S
C1991 C1990 1.355 . S
C1991 C1993 1.419 . S
C1992 C1990 1.415 . S
C1992 C1997 1.425 . S
C1992 C1999 1.409 . S
C1993 H1985 0.930 . S
C1993 C1991 1.419 . S
C1993 C1994 1.362 . S
C1994 H1986 0.930 . S
C1994 C1993 1.362 . S
C1994 C1997 1.409 . S
C1995 H1987 0.930 1_655 S
C1995 C1996 1.355 1_655 S
C1995 C1997 1.415 . S
C1996 C1995 1.355 1_455 S
C1996 C1998 1.419 1_455 S
C1997 C1992 1.425 . S
C1997 C1994 1.409 . S
C1997 C1995 1.415 . S
C1998 H1988 0.930 . S
C1998 C1996 1.419 1_655 S
C1998 C1999 1.362 . S
C1999 H1989 0.930 . S
C1999 C1992 1.409 . S
C1999 C1998 1.362 . S
H2000 C2006 0.930 . S
H2001 C2009 0.930 . S
H2002 C2010 0.930 . S
H2003 C2011 0.930 . S
H2004 C2014 0.930 . S
H2005 C2015 0.930 . S
C2006 H2000 0.930 . S
C2006 C2007 1.355 . S
C2006 C2008 1.415 . S
C2007 C2006 1.355 . S
C2007 C2009 1.419 . S
C2008 C2006 1.415 . S
C2008 C2013 1.425 . S
C2008 C2015 1.409 . S
C2009 H2001 0.930 . S
C2009 C2007 1.419 . S
C2009 C2010 1.362 . S
C2010 H2002 0.930 . S
C2010 C2009 1.362 . S
C2010 C2013 1.409 . S
C2011 H2003 0.930 . S
C2011 C2012 1.355 . S
C2011 C2013 1.415 . S
C2012 C2011 1.355 . S
C2012 C2014 1.419 . S
C2013 C2008 1.425 . S
C2013 C2010 1.409 . S
C2013 C2011 1.415 . S
C2014 H2004 0.930 . S
C2014 C2012 1.419 . S
C2014 C2015 1.362 . S
C2015 H2005 0.930 . S
C2015 C2008 1.409 . S
C2015 C2014 1.362 . S
H2016 C2022 0.930 . S
H2017 C2025 0.930 . S
H2018 C2026 0.930 . S
H2019 C2027 0.930 . S
H2020 C2030 0.930 . S
H2021 C2031 0.930 . S
C2022 H2016 0.930 . S
C2022 C2023 1.355 . S
C2022 C2024 1.415 . S
C2023 C2022 1.355 . S
C2023 C2025 1.419 . S
C2024 C2022 1.415 . S
C2024 C2029 1.425 . S
C2024 C2031 1.409 . S
C2025 H2017 0.930 . S
C2025 C2023 1.419 . S
C2025 C2026 1.362 . S
C2026 H2018 0.930 . S
C2026 C2025 1.362 . S
C2026 C2029 1.409 . S
C2027 H2019 0.930 . S
C2027 C2028 1.355 . S
C2027 C2029 1.415 . S
C2028 C2027 1.355 . S
C2028 C2030 1.419 . S
C2029 C2024 1.425 . S
C2029 C2026 1.409 . S
C2029 C2027 1.415 . S
C2030 H2020 0.930 . S
C2030 C2028 1.419 . S
C2030 C2031 1.362 . S
C2031 H2021 0.930 . S
C2031 C2024 1.409 . S
C2031 C2030 1.362 . S
H2032 C2038 0.930 . S
H2033 C2041 0.930 . S
H2034 C2042 0.930 . S
H2035 C2043 0.930 . S
H2036 C2046 0.930 . S
H2037 C2047 0.930 . S
C2038 H2032 0.930 . S
C2038 C2039 1.355 . S
C2038 C2040 1.415 . S
C2039 C2038 1.355 . S
C2039 C2041 1.419 . S
C2040 C2038 1.415 . S
C2040 C2045 1.425 . S
C2040 C2047 1.409 . S
C2041 H2033 0.930 . S
C2041 C2039 1.419 . S
C2041 C2042 1.362 . S
C2042 H2034 0.930 . S
C2042 C2041 1.362 . S
C2042 C2045 1.409 . S
C2043 H2035 0.930 . S
C2043 C2044 1.355 . S
C2043 C2045 1.415 . S
C2044 C2043 1.355 . S
C2044 C2046 1.419 . S
C2045 C2040 1.425 . S
C2045 C2042 1.409 . S
C2045 C2043 1.415 . S
C2046 H2036 0.930 . S
C2046 C2044 1.419 . S
C2046 C2047 1.362 . S
C2047 H2037 0.930 . S
C2047 C2040 1.409 . S
C2047 C2046 1.362 . S
H2048 C2054 0.930 . S
H2049 C2057 0.930 . S
H2050 C2058 0.930 . S
H2051 C2059 0.930 . S
H2052 C2062 0.930 . S
H2053 C2063 0.930 . S
C2054 H2048 0.930 . S
C2054 C2055 1.355 . S
C2054 C2056 1.415 . S
C2055 C2054 1.355 . S
C2055 C2057 1.419 . S
C2056 C2054 1.415 . S
C2056 C2061 1.425 . S
C2056 C2063 1.409 . S
C2057 H2049 0.930 . S
C2057 C2055 1.419 . S
C2057 C2058 1.362 . S
C2058 H2050 0.930 . S
C2058 C2057 1.362 . S
C2058 C2061 1.409 . S
C2059 H2051 0.930 . S
C2059 C2060 1.355 . S
C2059 C2061 1.415 . S
C2060 C2059 1.355 . S
C2060 C2062 1.419 . S
C2061 C2056 1.425 . S
C2061 C2058 1.409 . S
C2061 C2059 1.415 . S
C2062 H2052 0.930 . S
C2062 C2060 1.419 . S
C2062 C2063 1.362 . S
C2063 H2053 0.930 . S
C2063 C2056 1.409 . S
C2063 C2062 1.362 . S
H2064 C2070 0.930 . S
H2065 C2073 0.930 . S
H2066 C2074 0.930 . S
H2067 C2075 0.930 . S
H2068 C2078 0.930 . S
H2069 C2079 0.930 . S
C2070 H2064 0.930 . S
C2070 C2071 1.355 . S
C2070 C2072 1.415 . S
C2071 C2070 1.355 . S
C2071 C2073 1.419 . S
C2072 C2070 1.415 . S
C2072 C2077 1.425 . S
C2072 C2079 1.409 . S
C2073 H2065 0.930 . S
C2073 C2071 1.419 . S
C2073 C2074 1.362 . S
C2074 H2066 0.930 . S
C2074 C2073 1.362 . S
C2074 C2077 1.409 . S
C2075 H2067 0.930 . S
C2075 C2076 1.355 . S
C2075 C2077 1.415 . S
C2076 C2075 1.355 . S
C2076 C2078 1.419 . S
C2077 C2072 1.425 . S
C2077 C2074 1.409 . S
C2077 C2075 1.415 . S
C2078 H2068 0.930 . S
C2078 C2076 1.419 . S
C2078 C2079 1.362 . S
C2079 H2069 0.930 . S
C2079 C2072 1.409 . S
C2079 C2078 1.362 . S
H2080 C2086 0.930 . S
H2081 C2089 0.930 . S
H2082 C2090 0.930 . S
H2083 C2091 0.930 . S
H2084 C2094 0.930 . S
H2085 C2095 0.930 . S
C2086 H2080 0.930 . S
C2086 C2087 1.355 . S
C2086 C2088 1.415 . S
C2087 C2086 1.355 . S
C2087 C2089 1.419 . S
C2088 C2086 1.415 . S
C2088 C2093 1.425 . S
C2088 C2095 1.409 . S
C2089 H2081 0.930 . S
C2089 C2087 1.419 . S
C2089 C2090 1.362 . S
C2090 H2082 0.930 . S
C2090 C2089 1.362 . S
C2090 C2093 1.409 . S
C2091 H2083 0.930 . S
C2091 C2092 1.355 . S
C2091 C2093 1.415 . S
C2092 C2091 1.355 . S
C2092 C2094 1.419 . S
C2093 C2088 1.425 . S
C2093 C2090 1.409 . S
C2093 C2091 1.415 . S
C2094 H2084 0.930 . S
C2094 C2092 1.419 . S
C2094 C2095 1.362 . S
C2095 H2085 0.930 . S
C2095 C2088 1.409 . S
C2095 C2094 1.362 . S
H2096 C2102 0.930 . S
H2097 C2105 0.930 . S
H2098 C2106 0.930 . S
H2099 C2107 0.930 . S
H2100 C2110 0.930 . S
H2101 C2111 0.930 . S
C2102 H2096 0.930 . S
C2102 C2103 1.355 . S
C2102 C2104 1.415 . S
C2103 C2102 1.355 . S
C2103 C2105 1.419 . S
C2104 C2102 1.415 . S
C2104 C2109 1.425 . S
C2104 C2111 1.409 . S
C2105 H2097 0.930 . S
C2105 C2103 1.419 . S
C2105 C2106 1.362 . S
C2106 H2098 0.930 . S
C2106 C2105 1.362 . S
C2106 C2109 1.409 . S
C2107 H2099 0.930 . S
C2107 C2108 1.355 . S
C2107 C2109 1.415 . S
C2108 C2107 1.355 . S
C2108 C2110 1.419 . S
C2109 C2104 1.425 . S
C2109 C2106 1.409 . S
C2109 C2107 1.415 . S
C2110 H2100 0.930 . S
C2110 C2108 1.419 . S
C2110 C2111 1.362 . S
C2111 H2101 0.930 . S
C2111 C2104 1.409 . S
C2111 C2110 1.362 . S
H2112 C2118 0.930 . S
H2113 C2121 0.930 . S
H2114 C2122 0.930 . S
H2115 C2123 0.930 . S
H2116 C2126 0.930 . S
H2117 C2127 0.930 . S
C2118 H2112 0.930 . S
C2118 C2119 1.355 . S
C2118 C2120 1.415 . S
C2119 C2118 1.355 . S
C2119 C2121 1.419 . S
C2120 C2118 1.415 . S
C2120 C2125 1.425 . S
C2120 C2127 1.409 . S
C2121 H2113 0.930 . S
C2121 C2119 1.419 . S
C2121 C2122 1.362 . S
C2122 H2114 0.930 . S
C2122 C2121 1.362 . S
C2122 C2125 1.409 . S
C2123 H2115 0.930 . S
C2123 C2124 1.355 . S
C2123 C2125 1.415 . S
C2124 C2123 1.355 . S
C2124 C2126 1.419 . S
C2125 C2120 1.425 . S
C2125 C2122 1.409 . S
C2125 C2123 1.415 . S
C2126 H2116 0.930 . S
C2126 C2124 1.419 . S
C2126 C2127 1.362 . S
C2127 H2117 0.930 . S
C2127 C2120 1.409 . S
C2127 C2126 1.362 . S
H2128 C2134 0.930 . S
H2129 C2137 0.930 . S
H2130 C2138 0.930 . S
H2131 C2139 0.930 . S
H2132 C2142 0.930 . S
H2133 C2143 0.930 . S
C2134 H2128 0.930 . S
C2134 C2135 1.355 . S
C2134 C2136 1.415 . S
C2135 C2134 1.355 . S
C2135 C2137 1.419 . S
C2136 C2134 1.415 . S
C2136 C2141 1.425 . S
C2136 C2143 1.409 . S
C2137 H2129 0.930 . S
C2137 C2135 1.419 . S
C2137 C2138 1.362 . S
C2138 H2130 0.930 . S
C2138 C2137 1.362 . S
C2138 C2141 1.409 . S
C2139 H2131 0.930 . S
C2139 C2140 1.355 . S
C2139 C2141 1.415 . S
C2140 C2139 1.355 . S
C2140 C2142 1.419 . S
C2141 C2136 1.425 . S
C2141 C2138 1.409 . S
C2141 C2139 1.415 . S
C2142 H2132 0.930 . S
C2142 C2140 1.419 . S
C2142 C2143 1.362 . S
C2143 H2133 0.930 . S
C2143 C2136 1.409 . S
C2143 C2142 1.362 . S
H2144 C2150 0.930 . S
H2145 C2153 0.930 . S
H2146 C2154 0.930 . S
H2147 C2155 0.930 . S
H2148 C2158 0.930 . S
H2149 C2159 0.930 . S
C2150 H2144 0.930 . S
C2150 C2151 1.355 . S
C2150 C2152 1.415 . S
C2151 C2150 1.355 . S
C2151 C2153 1.419 . S
C2152 C2150 1.415 . S
C2152 C2157 1.425 . S
C2152 C2159 1.409 . S
C2153 H2145 0.930 . S
C2153 C2151 1.419 . S
C2153 C2154 1.362 . S
C2154 H2146 0.930 . S
C2154 C2153 1.362 . S
C2154 C2157 1.409 . S
C2155 H2147 0.930 . S
C2155 C2156 1.355 . S
C2155 C2157 1.415 . S
C2156 C2155 1.355 . S
C2156 C2158 1.419 . S
C2157 C2152 1.425 . S
C2157 C2154 1.409 . S
C2157 C2155 1.415 . S
C2158 H2148 0.930 . S
C2158 C2156 1.419 . S
C2158 C2159 1.362 . S
C2159 H2149 0.930 . S
C2159 C2152 1.409 . S
C2159 C2158 1.362 . S
H2160 C2166 0.930 . S
H2161 C2169 0.930 . S
H2162 C2170 0.930 . S
H2163 C2171 0.930 1_554 S
H2164 C2174 0.930 . S
H2165 C2175 0.930 . S
C2166 H2160 0.930 . S
C2166 C2167 1.355 . S
C2166 C2168 1.415 . S
C2167 C2166 1.355 . S
C2167 C2169 1.419 . S
C2168 C2166 1.415 . S
C2168 C2173 1.425 . S
C2168 C2175 1.409 . S
C2169 H2161 0.930 . S
C2169 C2167 1.419 . S
C2169 C2170 1.362 . S
C2170 H2162 0.930 . S
C2170 C2169 1.362 . S
C2170 C2173 1.409 . S
C2171 H2163 0.930 1_556 S
C2171 C2172 1.355 . S
C2171 C2173 1.415 . S
C2172 C2171 1.355 . S
C2172 C2174 1.419 . S
C2173 C2168 1.425 . S
C2173 C2170 1.409 . S
C2173 C2171 1.415 . S
C2174 H2164 0.930 . S
C2174 C2172 1.419 . S
C2174 C2175 1.362 . S
C2175 H2165 0.930 . S
C2175 C2168 1.409 . S
C2175 C2174 1.362 . S
H2176 C2182 0.930 . S
H2177 C2185 0.930 . S
H2178 C2186 0.930 . S
H2179 C2187 0.930 . S
H2180 C2190 0.930 . S
H2181 C2191 0.930 . S
C2182 H2176 0.930 . S
C2182 C2183 1.355 . S
C2182 C2184 1.415 . S
C2183 C2182 1.355 . S
C2183 C2185 1.419 . S
C2184 C2182 1.415 . S
C2184 C2189 1.425 . S
C2184 C2191 1.409 . S
C2185 H2177 0.930 . S
C2185 C2183 1.419 . S
C2185 C2186 1.362 . S
C2186 H2178 0.930 . S
C2186 C2185 1.362 . S
C2186 C2189 1.409 . S
C2187 H2179 0.930 . S
C2187 C2188 1.355 . S
C2187 C2189 1.415 . S
C2188 C2187 1.355 . S
C2188 C2190 1.419 . S
C2189 C2184 1.425 . S
C2189 C2186 1.409 . S
C2189 C2187 1.415 . S
C2190 H2180 0.930 . S
C2190 C2188 1.419 . S
C2190 C2191 1.362 . S
C2191 H2181 0.930 . S
C2191 C2184 1.409 . S
C2191 C2190 1.362 . S
H2192 C2198 0.930 . S
H2193 C2201 0.930 . S
H2194 C2202 0.930 . S
H2195 C2203 0.930 . S
H2196 C2206 0.930 . S
H2197 C2207 0.930 . S
C2198 H2192 0.930 . S
C2198 C2199 1.355 1_565 S
C2198 C2200 1.415 . S
C2199 C2198 1.355 1_545 S
C2199 C2201 1.419 . S
C2200 C2198 1.415 . S
C2200 C2205 1.425 1_565 S
C2200 C2207 1.409 . S
C2201 H2193 0.930 . S
C2201 C2199 1.419 . S
C2201 C2202 1.362 . S
C2202 H2194 0.930 . S
C2202 C2201 1.362 . S
C2202 C2205 1.409 . S
C2203 H2195 0.930 . S
C2203 C2204 1.355 . S
C2203 C2205 1.415 . S
C2204 C2203 1.355 . S
C2204 C2206 1.419 1_545 S
C2205 C2200 1.425 1_545 S
C2205 C2202 1.409 . S
C2205 C2203 1.415 . S
C2206 H2196 0.930 . S
C2206 C2204 1.419 1_565 S
C2206 C2207 1.362 . S
C2207 H2197 0.930 . S
C2207 C2200 1.409 . S
C2207 C2206 1.362 . S
H2208 C2214 0.930 . S
H2209 C2217 0.930 . S
H2210 C2218 0.930 . S
H2211 C2219 0.930 . S
H2212 C2222 0.930 . S
H2213 C2223 0.930 . S
C2214 H2208 0.930 . S
C2214 C2215 1.355 . S
C2214 C2216 1.415 . S
C2215 C2214 1.355 . S
C2215 C2217 1.419 . S
C2216 C2214 1.415 . S
C2216 C2221 1.425 . S
C2216 C2223 1.409 . S
C2217 H2209 0.930 . S
C2217 C2215 1.419 . S
C2217 C2218 1.362 . S
C2218 H2210 0.930 . S
C2218 C2217 1.362 . S
C2218 C2221 1.409 . S
C2219 H2211 0.930 . S
C2219 C2220 1.355 . S
C2219 C2221 1.415 . S
C2220 C2219 1.355 . S
C2220 C2222 1.419 . S
C2221 C2216 1.425 . S
C2221 C2218 1.409 . S
C2221 C2219 1.415 . S
C2222 H2212 0.930 . S
C2222 C2220 1.419 . S
C2222 C2223 1.362 . S
C2223 H2213 0.930 . S
C2223 C2216 1.409 . S
C2223 C2222 1.362 . S
H2224 C2230 0.930 . S
H2225 C2233 0.930 . S
H2226 C2234 0.930 . S
H2227 C2235 0.930 . S
H2228 C2238 0.930 . S
H2229 C2239 0.930 . S
C2230 H2224 0.930 . S
C2230 C2231 1.355 . S
C2230 C2232 1.415 . S
C2231 C2230 1.355 . S
C2231 C2233 1.419 1_545 S
C2232 C2230 1.415 . S
C2232 C2237 1.425 . S
C2232 C2239 1.409 . S
C2233 H2225 0.930 . S
C2233 C2231 1.419 1_565 S
C2233 C2234 1.362 . S
C2234 H2226 0.930 . S
C2234 C2233 1.362 . S
C2234 C2237 1.409 1_565 S
C2235 H2227 0.930 . S
C2235 C2236 1.355 . S
C2235 C2237 1.415 . S
C2236 C2235 1.355 . S
C2236 C2238 1.419 . S
C2237 C2232 1.425 . S
C2237 C2234 1.409 1_545 S
C2237 C2235 1.415 . S
C2238 H2228 0.930 . S
C2238 C2236 1.419 . S
C2238 C2239 1.362 . S
C2239 H2229 0.930 . S
C2239 C2232 1.409 . S
C2239 C2238 1.362 . S
H2240 C2246 0.930 . S
H2241 C2249 0.930 . S
H2242 C2250 0.930 . S
H2243 C2251 0.930 . S
H2244 C2254 0.930 . S
H2245 C2255 0.930 . S
C2246 H2240 0.930 . S
C2246 C2247 1.355 . S
C2246 C2248 1.415 . S
C2247 C2246 1.355 . S
C2247 C2249 1.419 . S
C2248 C2246 1.415 . S
C2248 C2253 1.425 . S
C2248 C2255 1.409 . S
C2249 H2241 0.930 . S
C2249 C2247 1.419 . S
C2249 C2250 1.362 . S
C2250 H2242 0.930 . S
C2250 C2249 1.362 . S
C2250 C2253 1.409 . S
C2251 H2243 0.930 . S
C2251 C2252 1.355 . S
C2251 C2253 1.415 . S
C2252 C2251 1.355 . S
C2252 C2254 1.419 . S
C2253 C2248 1.425 . S
C2253 C2250 1.409 . S
C2253 C2251 1.415 . S
C2254 H2244 0.930 . S
C2254 C2252 1.419 . S
C2254 C2255 1.362 . S
C2255 H2245 0.930 . S
C2255 C2248 1.409 . S
C2255 C2254 1.362 . S
H2256 C2262 0.930 . S
H2257 C2265 0.930 . S
H2258 C2266 0.930 . S
H2259 C2267 0.930 . S
H2260 C2270 0.930 . S
H2261 C2271 0.930 1_565 S
C2262 H2256 0.930 . S
C2262 C2263 1.355 . S
C2262 C2264 1.415 1_565 S
C2263 C2262 1.355 . S
C2263 C2265 1.419 1_565 S
C2264 C2262 1.415 1_545 S
C2264 C2269 1.425 . S
C2264 C2271 1.409 . S
C2265 H2257 0.930 . S
C2265 C2263 1.419 1_545 S
C2265 C2266 1.362 . S
C2266 H2258 0.930 . S
C2266 C2265 1.362 . S
C2266 C2269 1.409 . S
C2267 H2259 0.930 . S
C2267 C2268 1.355 . S
C2267 C2269 1.415 . S
C2268 C2267 1.355 . S
C2268 C2270 1.419 . S
C2269 C2264 1.425 . S
C2269 C2266 1.409 . S
C2269 C2267 1.415 . S
C2270 H2260 0.930 . S
C2270 C2268 1.419 . S
C2270 C2271 1.362 . S
C2271 H2261 0.930 1_545 S
C2271 C2264 1.409 . S
C2271 C2270 1.362 . S
H2272 C2278 0.930 . S
H2273 C2281 0.930 . S
H2274 C2282 0.930 . S
H2275 C2283 0.930 . S
H2276 C2286 0.930 . S
H2277 C2287 0.930 . S
C2278 H2272 0.930 . S
C2278 C2279 1.355 . S
C2278 C2280 1.415 . S
C2279 C2278 1.355 . S
C2279 C2281 1.419 . S
C2280 C2278 1.415 . S
C2280 C2285 1.425 . S
C2280 C2287 1.409 . S
C2281 H2273 0.930 . S
C2281 C2279 1.419 . S
C2281 C2282 1.362 . S
C2282 H2274 0.930 . S
C2282 C2281 1.362 . S
C2282 C2285 1.409 . S
C2283 H2275 0.930 . S
C2283 C2284 1.355 . S
C2283 C2285 1.415 . S
C2284 C2283 1.355 . S
C2284 C2286 1.419 . S
C2285 C2280 1.425 . S
C2285 C2282 1.409 . S
C2285 C2283 1.415 . S
C2286 H2276 0.930 . S
C2286 C2284 1.419 . S
C2286 C2287 1.362 . S
C2287 H2277 0.930 . S
C2287 C2280 1.409 . S
C2287 C2286 1.362 . S
H2288 C2294 0.930 . S
H2289 C2297 0.930 . S
H2290 C2298 0.930 . S
H2291 C2299 0.930 . S
H2292 C2302 0.930 . S
H2293 C2303 0.930 . S
C2294 H2288 0.930 . S
C2294 C2295 1.355 . S
C2294 C2296 1.415 . S
C2295 C2294 1.355 . S
C2295 C2297 1.419 1_545 S
C2296 C2294 1.415 . S
C2296 C2301 1.425 . S
C2296 C2303 1.409 . S
C2297 H2289 0.930 . S
C2297 C2295 1.419 1_565 S
C2297 C2298 1.362 . S
C2298 H2290 0.930 . S
C2298 C2297 1.362 . S
C2298 C2301 1.409 1_565 S
C2299 H2291 0.930 . S
C2299 C2300 1.355 1_565 S
C2299 C2301 1.415 1_565 S
C2300 C2299 1.355 1_545 S
C2300 C2302 1.419 . S
C2301 C2296 1.425 . S
C2301 C2298 1.409 1_545 S
C2301 C2299 1.415 1_545 S
C2302 H2292 0.930 . S
C2302 C2300 1.419 . S
C2302 C2303 1.362 . S
C2303 H2293 0.930 . S
C2303 C2296 1.409 . S
C2303 C2302 1.362 . S
H2304 C2310 0.930 . S
H2305 C2313 0.930 . S
H2306 C2314 0.930 . S
H2307 C2315 0.930 . S
H2308 C2318 0.930 . S
H2309 C2319 0.930 . S
C2310 H2304 0.930 . S
C2310 C2311 1.355 . S
C2310 C2312 1.415 . S
C2311 C2310 1.355 . S
C2311 C2313 1.419 . S
C2312 C2310 1.415 . S
C2312 C2317 1.425 . S
C2312 C2319 1.409 . S
C2313 H2305 0.930 . S
C2313 C2311 1.419 . S
C2313 C2314 1.362 . S
C2314 H2306 0.930 . S
C2314 C2313 1.362 . S
C2314 C2317 1.409 . S
C2315 H2307 0.930 . S
C2315 C2316 1.355 . S
C2315 C2317 1.415 . S
C2316 C2315 1.355 . S
C2316 C2318 1.419 . S
C2317 C2312 1.425 . S
C2317 C2314 1.409 . S
C2317 C2315 1.415 . S
C2318 H2308 0.930 . S
C2318 C2316 1.419 . S
C2318 C2319 1.362 . S
C2319 H2309 0.930 . S
C2319 C2312 1.409 . S
C2319 C2318 1.362 . S
H2320 C2326 0.930 . S
H2321 C2329 0.930 . S
H2322 C2330 0.930 . S
H2323 C2331 0.930 . S
H2324 C2334 0.930 . S
H2325 C2335 0.930 . S
C2326 H2320 0.930 . S
C2326 C2327 1.355 . S
C2326 C2328 1.415 . S
C2327 C2326 1.355 . S
C2327 C2329 1.419 . S
C2328 C2326 1.415 . S
C2328 C2333 1.425 . S
C2328 C2335 1.409 1_554 S
C2329 H2321 0.930 . S
C2329 C2327 1.419 . S
C2329 C2330 1.362 . S
C2330 H2322 0.930 . S
C2330 C2329 1.362 . S
C2330 C2333 1.409 . S
C2331 H2323 0.930 . S
C2331 C2332 1.355 . S
C2331 C2333 1.415 . S
C2332 C2331 1.355 . S
C2332 C2334 1.419 1_554 S
C2333 C2328 1.425 . S
C2333 C2330 1.409 . S
C2333 C2331 1.415 . S
C2334 H2324 0.930 . S
C2334 C2332 1.419 1_556 S
C2334 C2335 1.362 . S
C2335 H2325 0.930 . S
C2335 C2328 1.409 1_556 S
C2335 C2334 1.362 . S
H2336 C2342 0.930 . S
H2337 C2345 0.930 . S
H2338 C2346 0.930 . S
H2339 C2347 0.930 . S
H2340 C2350 0.930 . S
H2341 C2351 0.929 . S
C2342 H2336 0.930 . S
C2342 C2343 1.355 . S
C2342 C2344 1.415 . S
C2343 C2342 1.355 . S
C2343 C2345 1.419 . S
C2344 C2342 1.415 . S
C2344 C2349 1.425 . S
C2344 C2351 1.409 . S
C2345 H2337 0.930 . S
C2345 C2343 1.419 . S
C2345 C2346 1.362 . S
C2346 H2338 0.930 . S
C2346 C2345 1.362 . S
C2346 C2349 1.409 . S
C2347 H2339 0.930 . S
C2347 C2348 1.355 . S
C2347 C2349 1.415 . S
C2348 C2347 1.355 . S
C2348 C2350 1.419 . S
C2349 C2344 1.425 . S
C2349 C2346 1.409 . S
C2349 C2347 1.415 . S
C2350 H2340 0.930 . S
C2350 C2348 1.419 . S
C2350 C2351 1.362 . S
C2351 H2341 0.929 . S
C2351 C2344 1.409 . S
C2351 C2350 1.362 . S
H2352 C2358 0.930 . S
H2353 C2361 0.930 . S
H2354 C2362 0.930 . S
H2355 C2363 0.930 . S
H2356 C2366 0.930 . S
H2357 C2367 0.930 . S
C2358 H2352 0.930 . S
C2358 C2359 1.355 . S
C2358 C2360 1.415 . S
C2359 C2358 1.355 . S
C2359 C2361 1.419 . S
C2360 C2358 1.415 . S
C2360 C2365 1.425 . S
C2360 C2367 1.409 . S
C2361 H2353 0.930 . S
C2361 C2359 1.419 . S
C2361 C2362 1.362 . S
C2362 H2354 0.930 . S
C2362 C2361 1.362 . S
C2362 C2365 1.409 . S
C2363 H2355 0.930 . S
C2363 C2364 1.355 . S
C2363 C2365 1.415 . S
C2364 C2363 1.355 . S
C2364 C2366 1.419 . S
C2365 C2360 1.425 . S
C2365 C2362 1.409 . S
C2365 C2363 1.415 . S
C2366 H2356 0.930 . S
C2366 C2364 1.419 . S
C2366 C2367 1.362 . S
C2367 H2357 0.930 . S
C2367 C2360 1.409 . S
C2367 C2366 1.362 . S
H2368 C2374 0.930 . S
H2369 C2377 0.930 . S
H2370 C2378 0.930 . S
H2371 C2379 0.930 . S
H2372 C2382 0.930 . S
H2373 C2383 0.930 . S
C2374 H2368 0.930 . S
C2374 C2375 1.355 . S
C2374 C2376 1.415 . S
C2375 C2374 1.355 . S
C2375 C2377 1.419 . S
C2376 C2374 1.415 . S
C2376 C2381 1.425 . S
C2376 C2383 1.409 . S
C2377 H2369 0.930 . S
C2377 C2375 1.419 . S
C2377 C2378 1.362 . S
C2378 H2370 0.930 . S
C2378 C2377 1.362 . S
C2378 C2381 1.409 . S
C2379 H2371 0.930 . S
C2379 C2380 1.355 . S
C2379 C2381 1.415 . S
C2380 C2379 1.355 . S
C2380 C2382 1.419 . S
C2381 C2376 1.425 . S
C2381 C2378 1.409 . S
C2381 C2379 1.415 . S
C2382 H2372 0.930 . S
C2382 C2380 1.419 . S
C2382 C2383 1.362 . S
C2383 H2373 0.930 . S
C2383 C2376 1.409 . S
C2383 C2382 1.362 . S
H2384 C2390 0.922 1_545 S
H2385 C2393 0.930 . S
H2386 C2394 0.930 . S
H2387 C2395 0.930 . S
H2388 C2398 0.930 . S
H2389 C2399 0.930 . S
C2390 H2384 0.922 1_565 S
C2390 C2391 1.355 . S
C2390 C2392 1.415 . S
C2391 C2390 1.355 . S
C2391 C2393 1.419 . S
C2392 C2390 1.415 . S
C2392 C2397 1.425 . S
C2392 C2399 1.409 . S
C2393 H2385 0.930 . S
C2393 C2391 1.419 . S
C2393 C2394 1.362 . S
C2394 H2386 0.930 . S
C2394 C2393 1.362 . S
C2394 C2397 1.409 . S
C2395 H2387 0.930 . S
C2395 C2396 1.355 . S
C2395 C2397 1.415 . S
C2396 C2395 1.355 . S
C2396 C2398 1.419 . S
C2397 C2392 1.425 . S
C2397 C2394 1.409 . S
C2397 C2395 1.415 . S
C2398 H2388 0.930 . S
C2398 C2396 1.419 . S
C2398 C2399 1.362 . S
C2399 H2389 0.930 . S
C2399 C2392 1.409 . S
C2399 C2398 1.362 . S
H2400 C2406 0.930 . S
H2401 C2409 0.930 . S
H2402 C2410 0.930 . S
H2403 C2411 0.930 . S
H2404 C2414 0.930 . S
H2405 C2415 0.930 . S
C2406 H2400 0.930 . S
C2406 C2407 1.355 . S
C2406 C2408 1.415 . S
C2407 C2406 1.355 . S
C2407 C2409 1.419 . S
C2408 C2406 1.415 . S
C2408 C2413 1.425 . S
C2408 C2415 1.409 . S
C2409 H2401 0.930 . S
C2409 C2407 1.419 . S
C2409 C2410 1.362 . S
C2410 H2402 0.930 . S
C2410 C2409 1.362 . S
C2410 C2413 1.409 . S
C2411 H2403 0.930 . S
C2411 C2412 1.355 . S
C2411 C2413 1.415 . S
C2412 C2411 1.355 . S
C2412 C2414 1.419 . S
C2413 C2408 1.425 . S
C2413 C2410 1.409 . S
C2413 C2411 1.415 . S
C2414 H2404 0.930 . S
C2414 C2412 1.419 . S
C2414 C2415 1.362 . S
C2415 H2405 0.930 . S
C2415 C2408 1.409 . S
C2415 C2414 1.362 . S
H2416 C2422 0.930 . S
H2417 C2425 0.930 . S
H2418 C2426 0.930 . S
H2419 C2427 0.930 . S
H2420 C2430 0.930 . S
H2421 C2431 0.930 . S
C2422 H2416 0.930 . S
C2422 C2423 1.355 . S
C2422 C2424 1.415 . S
C2423 C2422 1.355 . S
C2423 C2425 1.419 . S
C2424 C2422 1.415 . S
C2424 C2429 1.425 . S
C2424 C2431 1.409 . S
C2425 H2417 0.930 . S
C2425 C2423 1.419 . S
C2425 C2426 1.362 . S
C2426 H2418 0.930 . S
C2426 C2425 1.362 . S
C2426 C2429 1.409 . S
C2427 H2419 0.930 . S
C2427 C2428 1.355 . S
C2427 C2429 1.415 . S
C2428 C2427 1.355 . S
C2428 C2430 1.419 . S
C2429 C2424 1.425 . S
C2429 C2426 1.409 . S
C2429 C2427 1.415 . S
C2430 H2420 0.930 . S
C2430 C2428 1.419 . S
C2430 C2431 1.362 . S
C2431 H2421 0.930 . S
C2431 C2424 1.409 . S
C2431 C2430 1.362 . S
H2432 C2438 0.930 . S
H2433 C2441 0.930 . S
H2434 C2442 0.930 . S
H2435 C2443 0.930 . S
H2436 C2446 0.930 . S
H2437 C2447 0.930 . S
C2438 H2432 0.930 . S
C2438 C2439 1.355 . S
C2438 C2440 1.415 . S
C2439 C2438 1.355 . S
C2439 C2441 1.419 . S
C2440 C2438 1.415 . S
C2440 C2445 1.425 . S
C2440 C2447 1.409 . S
C2441 H2433 0.930 . S
C2441 C2439 1.419 . S
C2441 C2442 1.362 . S
C2442 H2434 0.930 . S
C2442 C2441 1.362 . S
C2442 C2445 1.409 . S
C2443 H2435 0.930 . S
C2443 C2444 1.355 . S
C2443 C2445 1.415 . S
C2444 C2443 1.355 . S
C2444 C2446 1.419 . S
C2445 C2440 1.425 . S
C2445 C2442 1.409 . S
C2445 C2443 1.415 . S
C2446 H2436 0.930 . S
C2446 C2444 1.419 . S
C2446 C2447 1.362 . S
C2447 H2437 0.930 . S
C2447 C2440 1.409 . S
C2447 C2446 1.362 . S
H2448 C2454 0.930 . S
H2449 C2457 0.930 . S
H2450 C2458 0.930 . S
H2451 C2459 0.930 . S
H2452 C2462 0.930 . S
H2453 C2463 0.930 . S
C2454 H2448 0.930 . S
C2454 C2455 1.355 . S
C2454 C2456 1.415 . S
C2455 C2454 1.355 . S
C2455 C2457 1.419 . S
C2456 C2454 1.415 . S
C2456 C2461 1.425 . S
C2456 C2463 1.409 . S
C2457 H2449 0.930 . S
C2457 C2455 1.419 . S
C2457 C2458 1.362 . S
C2458 H2450 0.930 . S
C2458 C2457 1.362 . S
C2458 C2461 1.409 . S
C2459 H2451 0.930 . S
C2459 C2460 1.355 . S
C2459 C2461 1.415 . S
C2460 C2459 1.355 . S
C2460 C2462 1.419 . S
C2461 C2456 1.425 . S
C2461 C2458 1.409 . S
C2461 C2459 1.415 . S
C2462 H2452 0.930 . S
C2462 C2460 1.419 . S
C2462 C2463 1.362 . S
C2463 H2453 0.930 . S
C2463 C2456 1.409 . S
C2463 C2462 1.362 . S
H2464 C2470 0.930 . S
H2465 C2473 0.930 . S
H2466 C2474 0.930 . S
H2467 C2475 0.930 . S
H2468 C2478 0.930 . S
H2469 C2479 0.930 . S
C2470 H2464 0.930 . S
C2470 C2471 1.355 . S
C2470 C2472 1.415 . S
C2471 C2470 1.355 . S
C2471 C2473 1.419 . S
C2472 C2470 1.415 . S
C2472 C2477 1.425 . S
C2472 C2479 1.409 . S
C2473 H2465 0.930 . S
C2473 C2471 1.419 . S
C2473 C2474 1.362 . S
C2474 H2466 0.930 . S
C2474 C2473 1.362 . S
C2474 C2477 1.409 . S
C2475 H2467 0.930 . S
C2475 C2476 1.355 . S
C2475 C2477 1.415 . S
C2476 C2475 1.355 . S
C2476 C2478 1.419 . S
C2477 C2472 1.425 . S
C2477 C2474 1.409 . S
C2477 C2475 1.415 . S
C2478 H2468 0.930 . S
C2478 C2476 1.419 . S
C2478 C2479 1.362 . S
C2479 H2469 0.930 . S
C2479 C2472 1.409 . S
C2479 C2478 1.362 . S
H2480 C2486 0.930 1_554 S
H2481 C2489 0.930 . S
H2482 C2490 0.930 . S
H2483 C2491 0.930 . S
H2484 C2494 0.930 . S
H2485 C2495 0.930 . S
C2486 H2480 0.930 1_556 S
C2486 C2487 1.355 . S
C2486 C2488 1.415 1_556 S
C2487 C2486 1.355 . S
C2487 C2489 1.419 . S
C2488 C2486 1.415 1_554 S
C2488 C2493 1.425 1_554 S
C2488 C2495 1.409 . S
C2489 H2481 0.930 . S
C2489 C2487 1.419 . S
C2489 C2490 1.362 . S
C2490 H2482 0.930 . S
C2490 C2489 1.362 . S
C2490 C2493 1.409 . S
C2491 H2483 0.930 . S
C2491 C2492 1.355 1_556 S
C2491 C2493 1.415 . S
C2492 C2491 1.355 1_554 S
C2492 C2494 1.419 . S
C2493 C2488 1.425 1_556 S
C2493 C2490 1.409 . S
C2493 C2491 1.415 . S
C2494 H2484 0.930 . S
C2494 C2492 1.419 . S
C2494 C2495 1.362 . S
C2495 H2485 0.930 . S
C2495 C2488 1.409 . S
C2495 C2494 1.362 . S
H2496 C2502 0.930 . S
H2497 C2505 0.930 . S
H2498 C2506 0.930 . S
H2499 C2507 0.930 . S
H2500 C2510 0.930 . S
H2501 C2511 0.930 . S
C2502 H2496 0.930 . S
C2502 C2503 1.355 . S
C2502 C2504 1.415 1_455 S
C2503 C2502 1.355 . S
C2503 C2505 1.419 . S
C2504 C2502 1.415 1_655 S
C2504 C2509 1.425 1_655 S
C2504 C2511 1.409 . S
C2505 H2497 0.930 . S
C2505 C2503 1.419 . S
C2505 C2506 1.362 . S
C2506 H2498 0.930 . S
C2506 C2505 1.362 . S
C2506 C2509 1.409 . S
C2507 H2499 0.930 . S
C2507 C2508 1.355 . S
C2507 C2509 1.415 1_655 S
C2508 C2507 1.355 . S
C2508 C2510 1.419 . S
C2509 C2504 1.425 1_455 S
C2509 C2506 1.409 . S
C2509 C2507 1.415 1_455 S
C2510 H2500 0.930 . S
C2510 C2508 1.419 . S
C2510 C2511 1.362 . S
C2511 H2501 0.930 . S
C2511 C2504 1.409 . S
C2511 C2510 1.362 . S
H2512 C2518 0.930 . S
H2513 C2521 0.930 . S
H2514 C2522 0.930 . S
H2515 C2523 0.930 . S
H2516 C2526 0.930 . S
H2517 C2527 0.930 . S
C2518 H2512 0.930 . S
C2518 C2519 1.355 . S
C2518 C2520 1.415 . S
C2519 C2518 1.355 . S
C2519 C2521 1.419 . S
C2520 C2518 1.415 . S
C2520 C2525 1.425 . S
C2520 C2527 1.409 . S
C2521 H2513 0.930 . S
C2521 C2519 1.419 . S
C2521 C2522 1.362 . S
C2522 H2514 0.930 . S
C2522 C2521 1.362 . S
C2522 C2525 1.409 . S
C2523 H2515 0.930 . S
C2523 C2524 1.355 . S
C2523 C2525 1.415 . S
C2524 C2523 1.355 . S
C2524 C2526 1.419 . S
C2525 C2520 1.425 . S
C2525 C2522 1.409 . S
C2525 C2523 1.415 . S
C2526 H2516 0.930 . S
C2526 C2524 1.419 . S
C2526 C2527 1.362 . S
C2527 H2517 0.930 . S
C2527 C2520 1.409 . S
C2527 C2526 1.362 . S
H2528 C2534 0.930 . S
H2529 C2537 0.930 . S
H2530 C2538 0.930 . S
H2531 C2539 0.928 1_655 S
H2532 C2542 0.930 . S
H2533 C2543 0.930 . S
C2534 H2528 0.930 . S
C2534 C2535 1.355 . S
C2534 C2536 1.415 . S
C2535 C2534 1.355 . S
C2535 C2537 1.419 . S
C2536 C2534 1.415 . S
C2536 C2541 1.425 . S
C2536 C2543 1.409 . S
C2537 H2529 0.930 . S
C2537 C2535 1.419 . S
C2537 C2538 1.362 . S
C2538 H2530 0.930 . S
C2538 C2537 1.362 . S
C2538 C2541 1.409 . S
C2539 H2531 0.928 1_455 S
C2539 C2540 1.355 1_455 S
C2539 C2541 1.415 . S
C2540 C2539 1.355 1_655 S
C2540 C2542 1.419 . S
C2541 C2536 1.425 . S
C2541 C2538 1.409 . S
C2541 C2539 1.415 . S
C2542 H2532 0.930 . S
C2542 C2540 1.419 . S
C2542 C2543 1.362 1_655 S
C2543 H2533 0.930 . S
C2543 C2536 1.409 . S
C2543 C2542 1.362 1_455 S
H2544 C2550 0.930 . S
H2545 C2553 0.930 . S
H2546 C2554 0.930 . S
H2547 C2555 0.930 . S
H2548 C2558 0.930 . S
H2549 C2559 0.930 . S
C2550 H2544 0.930 . S
C2550 C2551 1.355 1_455 S
C2550 C2552 1.415 . S
C2551 C2550 1.355 1_655 S
C2551 C2553 1.419 . S
C2552 C2550 1.415 . S
C2552 C2557 1.425 . S
C2552 C2559 1.409 . S
C2553 H2545 0.930 . S
C2553 C2551 1.419 . S
C2553 C2554 1.362 . S
C2554 H2546 0.930 . S
C2554 C2553 1.362 . S
C2554 C2557 1.409 1_655 S
C2555 H2547 0.930 . S
C2555 C2556 1.355 . S
C2555 C2557 1.415 . S
C2556 C2555 1.355 . S
C2556 C2558 1.419 . S
C2557 C2552 1.425 . S
C2557 C2554 1.409 1_455 S
C2557 C2555 1.415 . S
C2558 H2548 0.930 . S
C2558 C2556 1.419 . S
C2558 C2559 1.362 . S
C2559 H2549 0.930 . S
C2559 C2552 1.409 . S
C2559 C2558 1.362 . S
H2560 C2566 0.930 . S
H2561 C2569 0.930 . S
H2562 C2570 0.930 . S
H2563 C2571 0.930 . S
H2564 C2574 0.930 . S
H2565 C2575 0.930 . S
C2566 H2560 0.930 . S
C2566 C2567 1.355 . S
C2566 C2568 1.415 . S
C2567 C2566 1.355 . S
C2567 C2569 1.419 . S
C2568 C2566 1.415 . S
C2568 C2573 1.425 . S
C2568 C2575 1.409 . S
C2569 H2561 0.930 . S
C2569 C2567 1.419 . S
C2569 C2570 1.362 . S
C2570 H2562 0.930 . S
C2570 C2569 1.362 . S
C2570 C2573 1.409 . S
C2571 H2563 0.930 . S
C2571 C2572 1.355 . S
C2571 C2573 1.415 . S
C2572 C2571 1.355 . S
C2572 C2574 1.419 . S
C2573 C2568 1.425 . S
C2573 C2570 1.409 . S
C2573 C2571 1.415 . S
C2574 H2564 0.930 . S
C2574 C2572 1.419 . S
C2574 C2575 1.362 . S
C2575 H2565 0.930 . S
C2575 C2568 1.409 . S
C2575 C2574 1.362 . S
H2576 C2582 0.930 . S
H2577 C2585 0.930 . S
H2578 C2586 0.930 . S
H2579 C2587 0.930 . S
H2580 C2590 0.930 . S
H2581 C2591 0.930 . S
C2582 H2576 0.930 . S
C2582 C2583 1.355 . S
C2582 C2584 1.415 . S
C2583 C2582 1.355 . S
C2583 C2585 1.419 . S
C2584 C2582 1.415 . S
C2584 C2589 1.425 . S
C2584 C2591 1.409 . S
C2585 H2577 0.930 . S
C2585 C2583 1.419 . S
C2585 C2586 1.362 . S
C2586 H2578 0.930 . S
C2586 C2585 1.362 . S
C2586 C2589 1.409 . S
C2587 H2579 0.930 . S
C2587 C2588 1.355 . S
C2587 C2589 1.415 . S
C2588 C2587 1.355 . S
C2588 C2590 1.419 . S
C2589 C2584 1.425 . S
C2589 C2586 1.409 . S
C2589 C2587 1.415 . S
C2590 H2580 0.930 . S
C2590 C2588 1.419 . S
C2590 C2591 1.362 . S
C2591 H2581 0.930 . S
C2591 C2584 1.409 . S
C2591 C2590 1.362 . S
H2592 C2598 0.930 . S
H2593 C2601 0.930 . S
H2594 C2602 0.930 . S
H2595 C2603 0.930 . S
H2596 C2606 0.930 . S
H2597 C2607 0.930 . S
C2598 H2592 0.930 . S
C2598 C2599 1.355 . S
C2598 C2600 1.415 . S
C2599 C2598 1.355 . S
C2599 C2601 1.419 . S
C2600 C2598 1.415 . S
C2600 C2605 1.425 . S
C2600 C2607 1.409 . S
C2601 H2593 0.930 . S
C2601 C2599 1.419 . S
C2601 C2602 1.362 . S
C2602 H2594 0.930 . S
C2602 C2601 1.362 . S
C2602 C2605 1.409 . S
C2603 H2595 0.930 . S
C2603 C2604 1.355 . S
C2603 C2605 1.415 . S
C2604 C2603 1.355 . S
C2604 C2606 1.419 . S
C2605 C2600 1.425 . S
C2605 C2602 1.409 . S
C2605 C2603 1.415 . S
C2606 H2596 0.930 . S
C2606 C2604 1.419 . S
C2606 C2607 1.362 . S
C2607 H2597 0.930 . S
C2607 C2600 1.409 . S
C2607 C2606 1.362 . S
H2608 C2614 0.930 . S
H2609 C2617 0.930 . S
H2610 C2618 0.930 . S
H2611 C2619 0.930 . S
H2612 C2622 0.930 . S
H2613 C2623 0.930 . S
C2614 H2608 0.930 . S
C2614 C2615 1.355 . S
C2614 C2616 1.415 . S
C2615 C2614 1.355 . S
C2615 C2617 1.419 . S
C2616 C2614 1.415 . S
C2616 C2621 1.425 . S
C2616 C2623 1.409 . S
C2617 H2609 0.930 . S
C2617 C2615 1.419 . S
C2617 C2618 1.362 . S
C2618 H2610 0.930 . S
C2618 C2617 1.362 . S
C2618 C2621 1.409 . S
C2619 H2611 0.930 . S
C2619 C2620 1.355 . S
C2619 C2621 1.415 . S
C2620 C2619 1.355 . S
C2620 C2622 1.419 . S
C2621 C2616 1.425 . S
C2621 C2618 1.409 . S
C2621 C2619 1.415 . S
C2622 H2612 0.930 . S
C2622 C2620 1.419 . S
C2622 C2623 1.362 . S
C2623 H2613 0.930 . S
C2623 C2616 1.409 . S
C2623 C2622 1.362 . S
H2624 C2630 0.930 . S
H2625 C2633 0.930 . S
H2626 C2634 0.930 . S
H2627 C2635 0.930 . S
H2628 C2638 0.930 . S
H2629 C2639 0.930 . S
C2630 H2624 0.930 . S
C2630 C2631 1.355 . S
C2630 C2632 1.415 . S
C2631 C2630 1.355 . S
C2631 C2633 1.419 . S
C2632 C2630 1.415 . S
C2632 C2637 1.425 . S
C2632 C2639 1.409 . S
C2633 H2625 0.930 . S
C2633 C2631 1.419 . S
C2633 C2634 1.362 . S
C2634 H2626 0.930 . S
C2634 C2633 1.362 . S
C2634 C2637 1.409 . S
C2635 H2627 0.930 . S
C2635 C2636 1.355 . S
C2635 C2637 1.415 . S
C2636 C2635 1.355 . S
C2636 C2638 1.419 . S
C2637 C2632 1.425 . S
C2637 C2634 1.409 . S
C2637 C2635 1.415 . S
C2638 H2628 0.930 . S
C2638 C2636 1.419 . S
C2638 C2639 1.362 . S
C2639 H2629 0.930 . S
C2639 C2632 1.409 . S
C2639 C2638 1.362 . S
H2640 C2646 0.930 . S
H2641 C2649 0.930 . S
H2642 C2650 0.930 . S
H2643 C2651 0.930 . S
H2644 C2654 0.930 . S
H2645 C2655 0.930 . S
C2646 H2640 0.930 . S
C2646 C2647 1.355 . S
C2646 C2648 1.415 . S
C2647 C2646 1.355 . S
C2647 C2649 1.419 . S
C2648 C2646 1.415 . S
C2648 C2653 1.425 . S
C2648 C2655 1.409 . S
C2649 H2641 0.930 . S
C2649 C2647 1.419 . S
C2649 C2650 1.362 . S
C2650 H2642 0.930 . S
C2650 C2649 1.362 . S
C2650 C2653 1.409 . S
C2651 H2643 0.930 . S
C2651 C2652 1.355 . S
C2651 C2653 1.415 . S
C2652 C2651 1.355 . S
C2652 C2654 1.419 . S
C2653 C2648 1.425 . S
C2653 C2650 1.409 . S
C2653 C2651 1.415 . S
C2654 H2644 0.930 . S
C2654 C2652 1.419 . S
C2654 C2655 1.362 . S
C2655 H2645 0.930 . S
C2655 C2648 1.409 . S
C2655 C2654 1.362 . S
H2656 C2662 0.930 . S
H2657 C2665 0.930 . S
H2658 C2666 0.930 . S
H2659 C2667 0.930 . S
H2660 C2670 0.930 . S
H2661 C2671 0.930 . S
C2662 H2656 0.930 . S
C2662 C2663 1.355 . S
C2662 C2664 1.415 . S
C2663 C2662 1.355 . S
C2663 C2665 1.419 . S
C2664 C2662 1.415 . S
C2664 C2669 1.425 . S
C2664 C2671 1.409 . S
C2665 H2657 0.930 . S
C2665 C2663 1.419 . S
C2665 C2666 1.362 . S
C2666 H2658 0.930 . S
C2666 C2665 1.362 . S
C2666 C2669 1.409 . S
C2667 H2659 0.930 . S
C2667 C2668 1.355 . S
C2667 C2669 1.415 . S
C2668 C2667 1.355 . S
C2668 C2670 1.419 . S
C2669 C2664 1.425 . S
C2669 C2666 1.409 . S
C2669 C2667 1.415 . S
C2670 H2660 0.930 . S
C2670 C2668 1.419 . S
C2670 C2671 1.362 . S
C2671 H2661 0.930 . S
C2671 C2664 1.409 . S
C2671 C2670 1.362 . S
H2672 C2678 0.930 . S
H2673 C2681 0.930 . S
H2674 C2682 0.930 . S
H2675 C2683 0.930 . S
H2676 C2686 0.930 . S
H2677 C2687 0.930 . S
C2678 H2672 0.930 . S
C2678 C2679 1.355 . S
C2678 C2680 1.415 . S
C2679 C2678 1.355 . S
C2679 C2681 1.419 . S
C2680 C2678 1.415 . S
C2680 C2685 1.425 . S
C2680 C2687 1.409 . S
C2681 H2673 0.930 . S
C2681 C2679 1.419 . S
C2681 C2682 1.362 . S
C2682 H2674 0.930 . S
C2682 C2681 1.362 . S
C2682 C2685 1.409 . S
C2683 H2675 0.930 . S
C2683 C2684 1.355 . S
C2683 C2685 1.415 . S
C2684 C2683 1.355 . S
C2684 C2686 1.419 . S
C2685 C2680 1.425 . S
C2685 C2682 1.409 . S
C2685 C2683 1.415 . S
C2686 H2676 0.930 . S
C2686 C2684 1.419 . S
C2686 C2687 1.362 . S
C2687 H2677 0.930 . S
C2687 C2680 1.409 . S
C2687 C2686 1.362 . S
H2688 C2694 0.930 . S
H2689 C2697 0.930 . S
H2690 C2698 0.930 . S
H2691 C2699 0.930 . S
H2692 C2702 0.930 . S
H2693 C2703 0.930 . S
C2694 H2688 0.930 . S
C2694 C2695 1.355 . S
C2694 C2696 1.415 . S
C2695 C2694 1.355 . S
C2695 C2697 1.419 . S
C2696 C2694 1.415 . S
C2696 C2701 1.425 . S
C2696 C2703 1.409 . S
C2697 H2689 0.930 . S
C2697 C2695 1.419 . S
C2697 C2698 1.362 . S
C2698 H2690 0.930 . S
C2698 C2697 1.362 . S
C2698 C2701 1.409 . S
C2699 H2691 0.930 . S
C2699 C2700 1.355 . S
C2699 C2701 1.415 . S
C2700 C2699 1.355 . S
C2700 C2702 1.419 . S
C2701 C2696 1.425 . S
C2701 C2698 1.409 . S
C2701 C2699 1.415 . S
C2702 H2692 0.930 . S
C2702 C2700 1.419 . S
C2702 C2703 1.362 . S
C2703 H2693 0.930 . S
C2703 C2696 1.409 . S
C2703 C2702 1.362 . S
H2704 C2710 0.930 . S
H2705 C2713 0.930 . S
H2706 C2714 0.930 . S
H2707 C2715 0.930 . S
H2708 C2718 0.930 . S
H2709 C2719 0.930 . S
C2710 H2704 0.930 . S
C2710 C2711 1.355 . S
C2710 C2712 1.415 . S
C2711 C2710 1.355 . S
C2711 C2713 1.419 . S
C2712 C2710 1.415 . S
C2712 C2717 1.425 . S
C2712 C2719 1.409 . S
C2713 H2705 0.930 . S
C2713 C2711 1.419 . S
C2713 C2714 1.362 . S
C2714 H2706 0.930 . S
C2714 C2713 1.362 . S
C2714 C2717 1.409 . S
C2715 H2707 0.930 . S
C2715 C2716 1.355 . S
C2715 C2717 1.415 . S
C2716 C2715 1.355 . S
C2716 C2718 1.419 . S
C2717 C2712 1.425 . S
C2717 C2714 1.409 . S
C2717 C2715 1.415 . S
C2718 H2708 0.930 . S
C2718 C2716 1.419 . S
C2718 C2719 1.362 . S
C2719 H2709 0.930 . S
C2719 C2712 1.409 . S
C2719 C2718 1.362 . S
H2720 C2726 0.930 . S
H2721 C2729 0.930 . S
H2722 C2730 0.930 . S
H2723 C2731 0.930 . S
H2724 C2734 0.930 . S
H2725 C2735 0.930 . S
C2726 H2720 0.930 . S
C2726 C2727 1.355 . S
C2726 C2728 1.415 . S
C2727 C2726 1.355 . S
C2727 C2729 1.419 . S
C2728 C2726 1.415 . S
C2728 C2733 1.425 . S
C2728 C2735 1.409 . S
C2729 H2721 0.930 . S
C2729 C2727 1.419 . S
C2729 C2730 1.362 . S
C2730 H2722 0.930 . S
C2730 C2729 1.362 . S
C2730 C2733 1.409 . S
C2731 H2723 0.930 . S
C2731 C2732 1.355 . S
C2731 C2733 1.415 . S
C2732 C2731 1.355 . S
C2732 C2734 1.419 . S
C2733 C2728 1.425 . S
C2733 C2730 1.409 . S
C2733 C2731 1.415 . S
C2734 H2724 0.930 . S
C2734 C2732 1.419 . S
C2734 C2735 1.362 . S
C2735 H2725 0.930 . S
C2735 C2728 1.409 . S
C2735 C2734 1.362 . S
H2736 C2742 0.930 . S
H2737 C2745 0.930 . S
H2738 C2746 0.930 . S
H2739 C2747 0.930 . S
H2740 C2750 0.930 . S
H2741 C2751 0.930 . S
C2742 H2736 0.930 . S
C2742 C2743 1.355 . S
C2742 C2744 1.415 . S
C2743 C2742 1.355 . S
C2743 C2745 1.419 . S
C2744 C2742 1.415 . S
C2744 C2749 1.425 . S
C2744 C2751 1.409 . S
C2745 H2737 0.930 . S
C2745 C2743 1.419 . S
C2745 C2746 1.362 . S
C2746 H2738 0.930 . S
C2746 C2745 1.362 . S
C2746 C2749 1.409 . S
C2747 H2739 0.930 . S
C2747 C2748 1.355 . S
C2747 C2749 1.415 . S
C2748 C2747 1.355 . S
C2748 C2750 1.419 . S
C2749 C2744 1.425 . S
C2749 C2746 1.409 . S
C2749 C2747 1.415 . S
C2750 H2740 0.930 . S
C2750 C2748 1.419 . S
C2750 C2751 1.362 . S
C2751 H2741 0.930 . S
C2751 C2744 1.409 . S
C2751 C2750 1.362 . S
H2752 C2758 0.927 1_556 S
H2753 C2761 0.930 . S
H2754 C2762 0.930 . S
H2755 C2763 0.930 . S
H2756 C2766 0.930 . S
H2757 C2767 0.930 . S
C2758 H2752 0.927 1_554 S
C2758 C2759 1.355 . S
C2758 C2760 1.415 . S
C2759 C2758 1.355 . S
C2759 C2761 1.419 1_565 S
C2760 C2758 1.415 . S
C2760 C2765 1.425 1_565 S
C2760 C2767 1.409 1_554 S
C2761 H2753 0.930 . S
C2761 C2759 1.419 1_545 S
C2761 C2762 1.362 . S
C2762 H2754 0.930 . S
C2762 C2761 1.362 . S
C2762 C2765 1.409 . S
C2763 H2755 0.930 . S
C2763 C2764 1.355 . S
C2763 C2765 1.415 . S
C2764 C2763 1.355 . S
C2764 C2766 1.419 1_544 S
C2765 C2760 1.425 1_545 S
C2765 C2762 1.409 . S
C2765 C2763 1.415 . S
C2766 H2756 0.930 . S
C2766 C2764 1.419 1_566 S
C2766 C2767 1.362 . S
C2767 H2757 0.930 . S
C2767 C2760 1.409 1_556 S
C2767 C2766 1.362 . S
H2768 C2774 0.930 . S
H2769 C2777 0.930 . S
H2770 C2778 0.930 . S
H2771 C2779 0.930 . S
H2772 C2782 0.930 . S
H2773 C2783 0.930 . S
C2774 H2768 0.930 . S
C2774 C2775 1.355 . S
C2774 C2776 1.415 . S
C2775 C2774 1.355 . S
C2775 C2777 1.419 . S
C2776 C2774 1.415 . S
C2776 C2781 1.425 . S
C2776 C2783 1.409 . S
C2777 H2769 0.930 . S
C2777 C2775 1.419 . S
C2777 C2778 1.362 . S
C2778 H2770 0.930 . S
C2778 C2777 1.362 . S
C2778 C2781 1.409 . S
C2779 H2771 0.930 . S
C2779 C2780 1.355 . S
C2779 C2781 1.415 . S
C2780 C2779 1.355 . S
C2780 C2782 1.419 . S
C2781 C2776 1.425 . S
C2781 C2778 1.409 . S
C2781 C2779 1.415 . S
C2782 H2772 0.930 . S
C2782 C2780 1.419 . S
C2782 C2783 1.362 . S
C2783 H2773 0.930 . S
C2783 C2776 1.409 . S
C2783 C2782 1.362 . S
H2784 C2790 0.930 . S
H2785 C2793 0.930 . S
H2786 C2794 0.930 . S
H2787 C2795 0.930 . S
H2788 C2798 0.930 1_556 S
H2789 C2799 0.930 . S
C2790 H2784 0.930 . S
C2790 C2791 1.355 1_556 S
C2790 C2792 1.415 1_556 S
C2791 C2790 1.355 1_554 S
C2791 C2793 1.419 . S
C2792 C2790 1.415 1_554 S
C2792 C2797 1.425 . S
C2792 C2799 1.409 1_554 S
C2793 H2785 0.930 . S
C2793 C2791 1.419 . S
C2793 C2794 1.362 . S
C2794 H2786 0.930 . S
C2794 C2793 1.362 . S
C2794 C2797 1.409 . S
C2795 H2787 0.930 . S
C2795 C2796 1.355 . S
C2795 C2797 1.415 . S
C2796 C2795 1.355 . S
C2796 C2798 1.419 . S
C2797 C2792 1.425 . S
C2797 C2794 1.409 . S
C2797 C2795 1.415 . S
C2798 H2788 0.930 1_554 S
C2798 C2796 1.419 . S
C2798 C2799 1.362 1_554 S
C2799 H2789 0.930 . S
C2799 C2792 1.409 1_556 S
C2799 C2798 1.362 1_556 S
H2800 C2806 0.930 . S
H2801 C2809 0.930 . S
H2802 C2810 0.930 . S
H2803 C2811 0.930 . S
H2804 C2814 0.930 . S
H2805 C2815 0.930 . S
C2806 H2800 0.930 . S
C2806 C2807 1.355 . S
C2806 C2808 1.415 . S
C2807 C2806 1.355 . S
C2807 C2809 1.419 . S
C2808 C2806 1.415 . S
C2808 C2813 1.425 . S
C2808 C2815 1.409 . S
C2809 H2801 0.930 . S
C2809 C2807 1.419 . S
C2809 C2810 1.362 . S
C2810 H2802 0.930 . S
C2810 C2809 1.362 . S
C2810 C2813 1.409 . S
C2811 H2803 0.930 . S
C2811 C2812 1.355 . S
C2811 C2813 1.415 . S
C2812 C2811 1.355 . S
C2812 C2814 1.419 . S
C2813 C2808 1.425 . S
C2813 C2810 1.409 . S
C2813 C2811 1.415 . S
C2814 H2804 0.930 . S
C2814 C2812 1.419 . S
C2814 C2815 1.362 . S
C2815 H2805 0.930 . S
C2815 C2808 1.409 . S
C2815 C2814 1.362 . S
H2816 C2822 0.930 . S
H2817 C2825 0.930 . S
H2818 C2826 0.930 . S
H2819 C2827 0.930 . S
H2820 C2830 0.930 . S
H2821 C2831 0.930 . S
C2822 H2816 0.930 . S
C2822 C2823 1.355 . S
C2822 C2824 1.415 . S
C2823 C2822 1.355 . S
C2823 C2825 1.419 . S
C2824 C2822 1.415 . S
C2824 C2829 1.425 . S
C2824 C2831 1.409 . S
C2825 H2817 0.930 . S
C2825 C2823 1.419 . S
C2825 C2826 1.362 . S
C2826 H2818 0.930 . S
C2826 C2825 1.362 . S
C2826 C2829 1.409 . S
C2827 H2819 0.930 . S
C2827 C2828 1.355 . S
C2827 C2829 1.415 . S
C2828 C2827 1.355 . S
C2828 C2830 1.419 . S
C2829 C2824 1.425 . S
C2829 C2826 1.409 . S
C2829 C2827 1.415 . S
C2830 H2820 0.930 . S
C2830 C2828 1.419 . S
C2830 C2831 1.362 . S
C2831 H2821 0.930 . S
C2831 C2824 1.409 . S
C2831 C2830 1.362 . S
H2832 C2838 0.930 . S
H2833 C2841 0.930 . S
H2834 C2842 0.930 . S
H2835 C2843 0.930 . S
H2836 C2846 0.930 . S
H2837 C2847 0.930 . S
C2838 H2832 0.930 . S
C2838 C2839 1.355 . S
C2838 C2840 1.415 . S
C2839 C2838 1.355 . S
C2839 C2841 1.419 . S
C2840 C2838 1.415 . S
C2840 C2845 1.425 . S
C2840 C2847 1.409 . S
C2841 H2833 0.930 . S
C2841 C2839 1.419 . S
C2841 C2842 1.362 . S
C2842 H2834 0.930 . S
C2842 C2841 1.362 . S
C2842 C2845 1.409 . S
C2843 H2835 0.930 . S
C2843 C2844 1.355 . S
C2843 C2845 1.415 . S
C2844 C2843 1.355 . S
C2844 C2846 1.419 . S
C2845 C2840 1.425 . S
C2845 C2842 1.409 . S
C2845 C2843 1.415 . S
C2846 H2836 0.930 . S
C2846 C2844 1.419 . S
C2846 C2847 1.362 . S
C2847 H2837 0.930 . S
C2847 C2840 1.409 . S
C2847 C2846 1.362 . S
H2848 C2854 0.930 . S
H2849 C2857 0.930 . S
H2850 C2858 0.930 . S
H2851 C2859 0.930 . S
H2852 C2862 0.930 . S
H2853 C2863 0.930 . S
C2854 H2848 0.930 . S
C2854 C2855 1.355 . S
C2854 C2856 1.415 . S
C2855 C2854 1.355 . S
C2855 C2857 1.419 . S
C2856 C2854 1.415 . S
C2856 C2861 1.425 . S
C2856 C2863 1.409 . S
C2857 H2849 0.930 . S
C2857 C2855 1.419 . S
C2857 C2858 1.362 . S
C2858 H2850 0.930 . S
C2858 C2857 1.362 . S
C2858 C2861 1.409 . S
C2859 H2851 0.930 . S
C2859 C2860 1.355 . S
C2859 C2861 1.415 . S
C2860 C2859 1.355 . S
C2860 C2862 1.419 . S
C2861 C2856 1.425 . S
C2861 C2858 1.409 . S
C2861 C2859 1.415 . S
C2862 H2852 0.930 . S
C2862 C2860 1.419 . S
C2862 C2863 1.362 . S
C2863 H2853 0.930 . S
C2863 C2856 1.409 . S
C2863 C2862 1.362 . S
H2864 C2870 0.930 . S
H2865 C2873 0.930 . S
H2866 C2874 0.930 . S
H2867 C2875 0.930 . S
H2868 C2878 0.930 1_556 S
H2869 C2879 0.930 1_556 S
C2870 H2864 0.930 . S
C2870 C2871 1.355 . S
C2870 C2872 1.415 . S
C2871 C2870 1.355 . S
C2871 C2873 1.419 . S
C2872 C2870 1.415 . S
C2872 C2877 1.425 . S
C2872 C2879 1.409 . S
C2873 H2865 0.930 . S
C2873 C2871 1.419 . S
C2873 C2874 1.362 . S
C2874 H2866 0.930 . S
C2874 C2873 1.362 . S
C2874 C2877 1.409 . S
C2875 H2867 0.930 . S
C2875 C2876 1.355 . S
C2875 C2877 1.415 . S
C2876 C2875 1.355 . S
C2876 C2878 1.419 . S
C2877 C2872 1.425 . S
C2877 C2874 1.409 . S
C2877 C2875 1.415 . S
C2878 H2868 0.930 1_554 S
C2878 C2876 1.419 . S
C2878 C2879 1.362 . S
C2879 H2869 0.930 1_554 S
C2879 C2872 1.409 . S
C2879 C2878 1.362 . S
H2880 C2886 0.930 . S
H2881 C2889 0.930 . S
H2882 C2890 0.930 . S
H2883 C2891 0.930 . S
H2884 C2894 0.930 . S
H2885 C2895 0.930 . S
C2886 H2880 0.930 . S
C2886 C2887 1.355 . S
C2886 C2888 1.415 . S
C2887 C2886 1.355 . S
C2887 C2889 1.419 . S
C2888 C2886 1.415 . S
C2888 C2893 1.425 . S
C2888 C2895 1.409 . S
C2889 H2881 0.930 . S
C2889 C2887 1.419 . S
C2889 C2890 1.362 . S
C2890 H2882 0.930 . S
C2890 C2889 1.362 . S
C2890 C2893 1.409 . S
C2891 H2883 0.930 . S
C2891 C2892 1.355 . S
C2891 C2893 1.415 . S
C2892 C2891 1.355 . S
C2892 C2894 1.419 . S
C2893 C2888 1.425 . S
C2893 C2890 1.409 . S
C2893 C2891 1.415 . S
C2894 H2884 0.930 . S
C2894 C2892 1.419 . S
C2894 C2895 1.362 . S
C2895 H2885 0.930 . S
C2895 C2888 1.409 . S
C2895 C2894 1.362 . S
H2896 C2902 0.930 . S
H2897 C2905 0.930 . S
H2898 C2906 0.930 . S
H2899 C2907 0.930 . S
H2900 C2910 0.930 . S
H2901 C2911 0.930 . S
C2902 H2896 0.930 . S
C2902 C2903 1.355 . S
C2902 C2904 1.415 . S
C2903 C2902 1.355 . S
C2903 C2905 1.419 . S
C2904 C2902 1.415 . S
C2904 C2909 1.425 . S
C2904 C2911 1.409 . S
C2905 H2897 0.930 . S
C2905 C2903 1.419 . S
C2905 C2906 1.362 . S
C2906 H2898 0.930 . S
C2906 C2905 1.362 . S
C2906 C2909 1.409 . S
C2907 H2899 0.930 . S
C2907 C2908 1.355 . S
C2907 C2909 1.415 . S
C2908 C2907 1.355 . S
C2908 C2910 1.419 . S
C2909 C2904 1.425 . S
C2909 C2906 1.409 . S
C2909 C2907 1.415 . S
C2910 H2900 0.930 . S
C2910 C2908 1.419 . S
C2910 C2911 1.362 . S
C2911 H2901 0.930 . S
C2911 C2904 1.409 . S
C2911 C2910 1.362 . S
H2912 C2918 0.930 . S
H2913 C2921 0.930 . S
H2914 C2922 0.930 . S
H2915 C2923 0.930 . S
H2916 C2926 0.930 . S
H2917 C2927 0.930 . S
C2918 H2912 0.930 . S
C2918 C2919 1.355 . S
C2918 C2920 1.415 . S
C2919 C2918 1.355 . S
C2919 C2921 1.419 . S
C2920 C2918 1.415 . S
C2920 C2925 1.425 . S
C2920 C2927 1.409 . S
C2921 H2913 0.930 . S
C2921 C2919 1.419 . S
C2921 C2922 1.362 . S
C2922 H2914 0.930 . S
C2922 C2921 1.362 . S
C2922 C2925 1.409 . S
C2923 H2915 0.930 . S
C2923 C2924 1.355 . S
C2923 C2925 1.415 . S
C2924 C2923 1.355 . S
C2924 C2926 1.419 . S
C2925 C2920 1.425 . S
C2925 C2922 1.409 . S
C2925 C2923 1.415 . S
C2926 H2916 0.930 . S
C2926 C2924 1.419 . S
C2926 C2927 1.362 . S
C2927 H2917 0.930 . S
C2927 C2920 1.409 . S
C2927 C2926 1.362 . S
H2928 C2934 0.930 . S
H2929 C2937 0.930 . S
H2930 C2938 0.930 . S
H2931 C2939 0.930 . S
H2932 C2942 0.930 . S
H2933 C2943 0.930 . S
C2934 H2928 0.930 . S
C2934 C2935 1.355 . S
C2934 C2936 1.415 . S
C2935 C2934 1.355 . S
C2935 C2937 1.419 . S
C2936 C2934 1.415 . S
C2936 C2941 1.425 . S
C2936 C2943 1.409 . S
C2937 H2929 0.930 . S
C2937 C2935 1.419 . S
C2937 C2938 1.362 . S
C2938 H2930 0.930 . S
C2938 C2937 1.362 . S
C2938 C2941 1.409 . S
C2939 H2931 0.930 . S
C2939 C2940 1.355 . S
C2939 C2941 1.415 . S
C2940 C2939 1.355 . S
C2940 C2942 1.419 . S
C2941 C2936 1.425 . S
C2941 C2938 1.409 . S
C2941 C2939 1.415 . S
C2942 H2932 0.930 . S
C2942 C2940 1.419 . S
C2942 C2943 1.362 . S
C2943 H2933 0.930 . S
C2943 C2936 1.409 . S
C2943 C2942 1.362 . S
H2944 C2950 0.930 . S
H2945 C2953 0.930 . S
H2946 C2954 0.930 . S
H2947 C2955 0.930 . S
H2948 C2958 0.930 . S
H2949 C2959 0.930 . S
C2950 H2944 0.930 . S
C2950 C2951 1.355 . S
C2950 C2952 1.415 . S
C2951 C2950 1.355 . S
C2951 C2953 1.419 . S
C2952 C2950 1.415 . S
C2952 C2957 1.425 . S
C2952 C2959 1.409 . S
C2953 H2945 0.930 . S
C2953 C2951 1.419 . S
C2953 C2954 1.362 . S
C2954 H2946 0.930 . S
C2954 C2953 1.362 . S
C2954 C2957 1.409 . S
C2955 H2947 0.930 . S
C2955 C2956 1.355 . S
C2955 C2957 1.415 . S
C2956 C2955 1.355 . S
C2956 C2958 1.419 . S
C2957 C2952 1.425 . S
C2957 C2954 1.409 . S
C2957 C2955 1.415 . S
C2958 H2948 0.930 . S
C2958 C2956 1.419 . S
C2958 C2959 1.362 . S
C2959 H2949 0.930 . S
C2959 C2952 1.409 . S
C2959 C2958 1.362 . S
H2960 C2966 0.930 . S
H2961 C2969 0.930 . S
H2962 C2970 0.930 . S
H2963 C2971 0.930 . S
H2964 C2974 0.930 . S
H2965 C2975 0.930 . S
C2966 H2960 0.930 . S
C2966 C2967 1.355 . S
C2966 C2968 1.415 . S
C2967 C2966 1.355 . S
C2967 C2969 1.419 . S
C2968 C2966 1.415 . S
C2968 C2973 1.425 . S
C2968 C2975 1.409 . S
C2969 H2961 0.930 . S
C2969 C2967 1.419 . S
C2969 C2970 1.362 . S
C2970 H2962 0.930 . S
C2970 C2969 1.362 . S
C2970 C2973 1.409 . S
C2971 H2963 0.930 . S
C2971 C2972 1.355 . S
C2971 C2973 1.415 . S
C2972 C2971 1.355 . S
C2972 C2974 1.419 . S
C2973 C2968 1.425 . S
C2973 C2970 1.409 . S
C2973 C2971 1.415 . S
C2974 H2964 0.930 . S
C2974 C2972 1.419 . S
C2974 C2975 1.362 . S
C2975 H2965 0.930 . S
C2975 C2968 1.409 . S
C2975 C2974 1.362 . S
H2976 C2982 0.930 . S
H2977 C2985 0.930 . S
H2978 C2986 0.930 . S
H2979 C2987 0.930 . S
H2980 C2990 0.930 . S
H2981 C2991 0.930 . S
C2982 H2976 0.930 . S
C2982 C2983 1.355 . S
C2982 C2984 1.415 . S
C2983 C2982 1.355 . S
C2983 C2985 1.419 . S
C2984 C2982 1.415 . S
C2984 C2989 1.425 . S
C2984 C2991 1.409 . S
C2985 H2977 0.930 . S
C2985 C2983 1.419 . S
C2985 C2986 1.362 . S
C2986 H2978 0.930 . S
C2986 C2985 1.362 . S
C2986 C2989 1.409 . S
C2987 H2979 0.930 . S
C2987 C2988 1.355 . S
C2987 C2989 1.415 . S
C2988 C2987 1.355 . S
C2988 C2990 1.419 . S
C2989 C2984 1.425 . S
C2989 C2986 1.409 . S
C2989 C2987 1.415 . S
C2990 H2980 0.930 . S
C2990 C2988 1.419 . S
C2990 C2991 1.362 . S
C2991 H2981 0.930 . S
C2991 C2984 1.409 . S
C2991 C2990 1.362 . S
H2992 C2998 0.930 . S
H2993 C3001 0.930 . S
H2994 C3002 0.930 . S
H2995 C3003 0.930 . S
H2996 C3006 0.930 . S
H2997 C3007 0.930 . S
C2998 H2992 0.930 . S
C2998 C2999 1.355 . S
C2998 C3000 1.415 1_655 S
C2999 C2998 1.355 . S
C2999 C3001 1.419 . S
C3000 C2998 1.415 1_455 S
C3000 C3005 1.425 1_455 S
C3000 C3007 1.409 . S
C3001 H2993 0.930 . S
C3001 C2999 1.419 . S
C3001 C3002 1.362 . S
C3002 H2994 0.930 . S
C3002 C3001 1.362 . S
C3002 C3005 1.409 . S
C3003 H2995 0.930 . S
C3003 C3004 1.355 . S
C3003 C3005 1.415 1_455 S
C3004 C3003 1.355 . S
C3004 C3006 1.419 . S
C3005 C3000 1.425 1_655 S
C3005 C3002 1.409 . S
C3005 C3003 1.415 1_655 S
C3006 H2996 0.930 . S
C3006 C3004 1.419 . S
C3006 C3007 1.362 . S
C3007 H2997 0.930 . S
C3007 C3000 1.409 . S
C3007 C3006 1.362 . S
H3008 C3014 0.930 . S
H3009 C3017 0.930 . S
H3010 C3018 0.930 . S
H3011 C3019 0.930 . S
H3012 C3022 0.930 . S
H3013 C3023 0.930 . S
C3014 H3008 0.930 . S
C3014 C3015 1.355 . S
C3014 C3016 1.415 . S
C3015 C3014 1.355 . S
C3015 C3017 1.419 . S
C3016 C3014 1.415 . S
C3016 C3021 1.425 . S
C3016 C3023 1.409 . S
C3017 H3009 0.930 . S
C3017 C3015 1.419 . S
C3017 C3018 1.362 . S
C3018 H3010 0.930 . S
C3018 C3017 1.362 . S
C3018 C3021 1.409 . S
C3019 H3011 0.930 . S
C3019 C3020 1.355 . S
C3019 C3021 1.415 . S
C3020 C3019 1.355 . S
C3020 C3022 1.419 . S
C3021 C3016 1.425 . S
C3021 C3018 1.409 . S
C3021 C3019 1.415 . S
C3022 H3012 0.930 . S
C3022 C3020 1.419 . S
C3022 C3023 1.362 . S
C3023 H3013 0.930 . S
C3023 C3016 1.409 . S
C3023 C3022 1.362 . S
H3024 C3030 0.930 . S
H3025 C3033 0.930 . S
H3026 C3034 0.930 . S
H3027 C3035 0.930 . S
H3028 C3038 0.930 . S
H3029 C3039 0.930 . S
C3030 H3024 0.930 . S
C3030 C3031 1.355 . S
C3030 C3032 1.415 . S
C3031 C3030 1.355 . S
C3031 C3033 1.419 . S
C3032 C3030 1.415 . S
C3032 C3037 1.425 . S
C3032 C3039 1.409 . S
C3033 H3025 0.930 . S
C3033 C3031 1.419 . S
C3033 C3034 1.362 . S
C3034 H3026 0.930 . S
C3034 C3033 1.362 . S
C3034 C3037 1.409 . S
C3035 H3027 0.930 . S
C3035 C3036 1.355 . S
C3035 C3037 1.415 . S
C3036 C3035 1.355 . S
C3036 C3038 1.419 . S
C3037 C3032 1.425 . S
C3037 C3034 1.409 . S
C3037 C3035 1.415 . S
C3038 H3028 0.930 . S
C3038 C3036 1.419 . S
C3038 C3039 1.362 . S
C3039 H3029 0.930 . S
C3039 C3032 1.409 . S
C3039 C3038 1.362 . S
H3040 C3046 0.930 . S
H3041 C3049 0.930 . S
H3042 C3050 0.930 . S
H3043 C3051 0.930 . S
H3044 C3054 0.930 . S
H3045 C3055 0.930 . S
C3046 H3040 0.930 . S
C3046 C3047 1.355 . S
C3046 C3048 1.415 . S
C3047 C3046 1.355 . S
C3047 C3049 1.419 . S
C3048 C3046 1.415 . S
C3048 C3053 1.425 . S
C3048 C3055 1.409 . S
C3049 H3041 0.930 . S
C3049 C3047 1.419 . S
C3049 C3050 1.362 . S
C3050 H3042 0.930 . S
C3050 C3049 1.362 . S
C3050 C3053 1.409 . S
C3051 H3043 0.930 . S
C3051 C3052 1.355 . S
C3051 C3053 1.415 . S
C3052 C3051 1.355 . S
C3052 C3054 1.419 . S
C3053 C3048 1.425 . S
C3053 C3050 1.409 . S
C3053 C3051 1.415 . S
C3054 H3044 0.930 . S
C3054 C3052 1.419 . S
C3054 C3055 1.362 . S
C3055 H3045 0.930 . S
C3055 C3048 1.409 . S
C3055 C3054 1.362 . S
H3056 C3062 0.930 . S
H3057 C3065 0.930 . S
H3058 C3066 0.930 . S
H3059 C3067 0.930 . S
H3060 C3070 0.931 . S
H3061 C3071 0.930 . S
C3062 H3056 0.930 . S
C3062 C3063 1.355 . S
C3062 C3064 1.415 . S
C3063 C3062 1.355 . S
C3063 C3065 1.419 . S
C3064 C3062 1.415 . S
C3064 C3069 1.425 . S
C3064 C3071 1.409 . S
C3065 H3057 0.930 . S
C3065 C3063 1.419 . S
C3065 C3066 1.362 . S
C3066 H3058 0.930 . S
C3066 C3065 1.362 . S
C3066 C3069 1.409 . S
C3067 H3059 0.930 . S
C3067 C3068 1.355 . S
C3067 C3069 1.415 . S
C3068 C3067 1.355 . S
C3068 C3070 1.419 . S
C3069 C3064 1.425 . S
C3069 C3066 1.409 . S
C3069 C3067 1.415 . S
C3070 H3060 0.931 . S
C3070 C3068 1.419 . S
C3070 C3071 1.362 . S
C3071 H3061 0.930 . S
C3071 C3064 1.409 . S
C3071 C3070 1.362 . S
H3072 C3078 0.930 . S
H3073 C3081 0.930 . S
H3074 C3082 0.930 . S
H3075 C3083 0.930 . S
H3076 C3086 0.930 . S
H3077 C3087 0.930 . S
C3078 H3072 0.930 . S
C3078 C3079 1.355 . S
C3078 C3080 1.415 . S
C3079 C3078 1.355 . S
C3079 C3081 1.419 . S
C3080 C3078 1.415 . S
C3080 C3085 1.425 . S
C3080 C3087 1.409 . S
C3081 H3073 0.930 . S
C3081 C3079 1.419 . S
C3081 C3082 1.362 . S
C3082 H3074 0.930 . S
C3082 C3081 1.362 . S
C3082 C3085 1.409 . S
C3083 H3075 0.930 . S
C3083 C3084 1.355 . S
C3083 C3085 1.415 . S
C3084 C3083 1.355 . S
C3084 C3086 1.419 . S
C3085 C3080 1.425 . S
C3085 C3082 1.409 . S
C3085 C3083 1.415 . S
C3086 H3076 0.930 . S
C3086 C3084 1.419 . S
C3086 C3087 1.362 . S
C3087 H3077 0.930 . S
C3087 C3080 1.409 . S
C3087 C3086 1.362 . S
H3088 C3094 0.930 . S
H3089 C3097 0.930 . S
H3090 C3098 0.930 . S
H3091 C3099 0.930 . S
H3092 C3102 0.930 . S
H3093 C3103 0.930 . S
C3094 H3088 0.930 . S
C3094 C3095 1.355 . S
C3094 C3096 1.415 . S
C3095 C3094 1.355 . S
C3095 C3097 1.419 . S
C3096 C3094 1.415 . S
C3096 C3101 1.425 . S
C3096 C3103 1.409 . S
C3097 H3089 0.930 . S
C3097 C3095 1.419 . S
C3097 C3098 1.362 . S
C3098 H3090 0.930 . S
C3098 C3097 1.362 . S
C3098 C3101 1.409 . S
C3099 H3091 0.930 . S
C3099 C3100 1.355 . S
C3099 C3101 1.415 . S
C3100 C3099 1.355 . S
C3100 C3102 1.419 . S
C3101 C3096 1.425 . S
C3101 C3098 1.409 . S
C3101 C3099 1.415 . S
C3102 H3092 0.930 . S
C3102 C3100 1.419 . S
C3102 C3103 1.362 . S
C3103 H3093 0.930 . S
C3103 C3096 1.409 . S
C3103 C3102 1.362 . S
H3104 C3110 0.930 . S
H3105 C3113 0.930 . S
H3106 C3114 0.930 . S
H3107 C3115 0.930 1_545 S
H3108 C3118 0.930 1_455 S
H3109 C3119 0.930 . S
C3110 H3104 0.930 . S
C3110 C3111 1.355 . S
C3110 C3112 1.415 . S
C3111 C3110 1.355 . S
C3111 C3113 1.419 . S
C3112 C3110 1.415 . S
C3112 C3117 1.425 . S
C3112 C3119 1.409 . S
C3113 H3105 0.930 . S
C3113 C3111 1.419 . S
C3113 C3114 1.362 . S
C3114 H3106 0.930 . S
C3114 C3113 1.362 . S
C3114 C3117 1.409 . S
C3115 H3107 0.930 1_565 S
C3115 C3116 1.355 . S
C3115 C3117 1.415 . S
C3116 C3115 1.355 . S
C3116 C3118 1.419 . S
C3117 C3112 1.425 . S
C3117 C3114 1.409 . S
C3117 C3115 1.415 . S
C3118 H3108 0.930 1_655 S
C3118 C3116 1.419 . S
C3118 C3119 1.362 . S
C3119 H3109 0.930 . S
C3119 C3112 1.409 . S
C3119 C3118 1.362 . S
H3120 C3126 0.930 . S
H3121 C3129 0.930 . S
H3122 C3130 0.930 . S
H3123 C3131 0.930 . S
H3124 C3134 0.930 . S
H3125 C3135 0.930 . S
C3126 H3120 0.930 . S
C3126 C3127 1.355 . S
C3126 C3128 1.415 . S
C3127 C3126 1.355 . S
C3127 C3129 1.419 . S
C3128 C3126 1.415 . S
C3128 C3133 1.425 . S
C3128 C3135 1.409 . S
C3129 H3121 0.930 . S
C3129 C3127 1.419 . S
C3129 C3130 1.362 . S
C3130 H3122 0.930 . S
C3130 C3129 1.362 . S
C3130 C3133 1.409 . S
C3131 H3123 0.930 . S
C3131 C3132 1.355 . S
C3131 C3133 1.415 . S
C3132 C3131 1.355 . S
C3132 C3134 1.419 . S
C3133 C3128 1.425 . S
C3133 C3130 1.409 . S
C3133 C3131 1.415 . S
C3134 H3124 0.930 . S
C3134 C3132 1.419 . S
C3134 C3135 1.362 . S
C3135 H3125 0.930 . S
C3135 C3128 1.409 . S
C3135 C3134 1.362 . S
H3136 C3142 0.930 1_556 S
H3137 C3145 0.930 . S
H3138 C3146 0.930 . S
H3139 C3147 0.930 . S
H3140 C3150 0.930 . S
H3141 C3151 0.930 . S
C3142 H3136 0.930 1_554 S
C3142 C3143 1.355 . S
C3142 C3144 1.415 . S
C3143 C3142 1.355 . S
C3143 C3145 1.419 . S
C3144 C3142 1.415 . S
C3144 C3149 1.425 . S
C3144 C3151 1.409 1_554 S
C3145 H3137 0.930 . S
C3145 C3143 1.419 . S
C3145 C3146 1.362 . S
C3146 H3138 0.930 . S
C3146 C3145 1.362 . S
C3146 C3149 1.409 . S
C3147 H3139 0.930 . S
C3147 C3148 1.355 . S
C3147 C3149 1.415 . S
C3148 C3147 1.355 . S
C3148 C3150 1.419 1_554 S
C3149 C3144 1.425 . S
C3149 C3146 1.409 . S
C3149 C3147 1.415 . S
C3150 H3140 0.930 . S
C3150 C3148 1.419 1_556 S
C3150 C3151 1.362 . S
C3151 H3141 0.930 . S
C3151 C3144 1.409 1_556 S
C3151 C3150 1.362 . S
H3152 C3158 0.930 . S
H3153 C3161 0.930 . S
H3154 C3162 0.930 . S
H3155 C3163 0.930 . S
H3156 C3166 0.930 . S
H3157 C3167 0.930 . S
C3158 H3152 0.930 . S
C3158 C3159 1.355 . S
C3158 C3160 1.415 . S
C3159 C3158 1.355 . S
C3159 C3161 1.419 . S
C3160 C3158 1.415 . S
C3160 C3165 1.425 . S
C3160 C3167 1.409 . S
C3161 H3153 0.930 . S
C3161 C3159 1.419 . S
C3161 C3162 1.362 . S
C3162 H3154 0.930 . S
C3162 C3161 1.362 . S
C3162 C3165 1.409 . S
C3163 H3155 0.930 . S
C3163 C3164 1.355 . S
C3163 C3165 1.415 . S
C3164 C3163 1.355 . S
C3164 C3166 1.419 . S
C3165 C3160 1.425 . S
C3165 C3162 1.409 . S
C3165 C3163 1.415 . S
C3166 H3156 0.930 . S
C3166 C3164 1.419 . S
C3166 C3167 1.362 . S
C3167 H3157 0.930 . S
C3167 C3160 1.409 . S
C3167 C3166 1.362 . S
H3168 C3174 0.930 . S
H3169 C3177 0.930 . S
H3170 C3178 0.930 . S
H3171 C3179 0.930 . S
H3172 C3182 0.930 . S
H3173 C3183 0.930 . S
C3174 H3168 0.930 . S
C3174 C3175 1.355 . S
C3174 C3176 1.415 . S
C3175 C3174 1.355 . S
C3175 C3177 1.419 . S
C3176 C3174 1.415 . S
C3176 C3181 1.425 . S
C3176 C3183 1.409 . S
C3177 H3169 0.930 . S
C3177 C3175 1.419 . S
C3177 C3178 1.362 . S
C3178 H3170 0.930 . S
C3178 C3177 1.362 . S
C3178 C3181 1.409 . S
C3179 H3171 0.930 . S
C3179 C3180 1.355 . S
C3179 C3181 1.415 . S
C3180 C3179 1.355 . S
C3180 C3182 1.419 . S
C3181 C3176 1.425 . S
C3181 C3178 1.409 . S
C3181 C3179 1.415 . S
C3182 H3172 0.930 . S
C3182 C3180 1.419 . S
C3182 C3183 1.362 . S
C3183 H3173 0.930 . S
C3183 C3176 1.409 . S
C3183 C3182 1.362 . S
H3184 C3190 0.930 . S
H3185 C3193 0.930 . S
H3186 C3194 0.930 . S
H3187 C3195 0.930 . S
H3188 C3198 0.930 . S
H3189 C3199 0.930 . S
C3190 H3184 0.930 . S
C3190 C3191 1.355 . S
C3190 C3192 1.415 . S
C3191 C3190 1.355 . S
C3191 C3193 1.419 . S
C3192 C3190 1.415 . S
C3192 C3197 1.425 . S
C3192 C3199 1.409 . S
C3193 H3185 0.930 . S
C3193 C3191 1.419 . S
C3193 C3194 1.362 . S
C3194 H3186 0.930 . S
C3194 C3193 1.362 . S
C3194 C3197 1.409 . S
C3195 H3187 0.930 . S
C3195 C3196 1.355 . S
C3195 C3197 1.415 . S
C3196 C3195 1.355 . S
C3196 C3198 1.419 . S
C3197 C3192 1.425 . S
C3197 C3194 1.409 . S
C3197 C3195 1.415 . S
C3198 H3188 0.930 . S
C3198 C3196 1.419 . S
C3198 C3199 1.362 . S
C3199 H3189 0.930 . S
C3199 C3192 1.409 . S
C3199 C3198 1.362 . S
H3200 C3206 0.930 . S
H3201 C3209 0.930 . S
H3202 C3210 0.930 . S
H3203 C3211 0.930 . S
H3204 C3214 0.930 . S
H3205 C3215 0.930 . S
C3206 H3200 0.930 . S
C3206 C3207 1.355 . S
C3206 C3208 1.415 . S
C3207 C3206 1.355 . S
C3207 C3209 1.419 . S
C3208 C3206 1.415 . S
C3208 C3213 1.425 . S
C3208 C3215 1.409 . S
C3209 H3201 0.930 . S
C3209 C3207 1.419 . S
C3209 C3210 1.362 . S
C3210 H3202 0.930 . S
C3210 C3209 1.362 . S
C3210 C3213 1.409 . S
C3211 H3203 0.930 . S
C3211 C3212 1.355 . S
C3211 C3213 1.415 . S
C3212 C3211 1.355 . S
C3212 C3214 1.419 . S
C3213 C3208 1.425 . S
C3213 C3210 1.409 . S
C3213 C3211 1.415 . S
C3214 H3204 0.930 . S
C3214 C3212 1.419 . S
C3214 C3215 1.362 . S
C3215 H3205 0.930 . S
C3215 C3208 1.409 . S
C3215 C3214 1.362 . S
C1687 C111 1.884 . S
C1692 C392 1.754 . S
C1703 C64 2.174 . S
C1708 C483 2.250 . S
C1719 C77 1.583 . S
C1724 C560 1.533 . S
C1740 C658 1.236 . S
C1735 C95 1.360 . S
C1751 C25 1.385 . S
C1756 C742 1.339 . S
C1772 C814 1.061 . S
C1767 C36 1.080 . S
C1788 C903 1.078 . S
C1783 C50 0.987 . S
C1799 C11 1.597 . S
C1804 C980 1.413 . S
C1820 C399 1.983 . S
C1815 C237 2.033 . S
C1831 C245 0.690 . S
C1836 C490 0.810 . S
C1852 C567 1.081 . S
C1847 C279 1.081 . S
C1868 C644 1.540 . S
C1863 C175 1.622 . S
C1879 C231 2.026 . S
C1884 C728 1.905 . S
C1900 C830 1.025 . S
C1895 C251 1.034 . S
C1916 C910 0.841 . S
C1911 C273 0.763 . S
C1932 C987 1.550 . S
C1927 C181 1.690 . S
C1948 C406 1.327 . S
C1943 C165 1.398 . S
C1959 C288 1.859 . S
C1964 C1071 1.871 1_556 S
C1980 C1159 2.204 . S
C1975 C333 2.388 . S
C1996 C1232 0.649 . S
C1991 C316 0.433 . S
C2007 C123 1.073 . S
C2012 C994 1.074 . S
C2023 C137 1.399 . S
C2028 C574 1.363 . S
C2039 C330 2.152 . S
C2044 C1323 2.155 . S
C2060 C1400 0.835 . S
C2055 C302 0.677 . S
C2076 C403 1.905 . S
C2071 C63 2.023 . S
C2092 C1418 2.257 . S
C2087 C106 2.289 . S
C2103 C97 1.599 . S
C2108 C571 1.555 . S
C2119 C81 1.398 . S
C2124 C1318 1.349 . S
C2140 C730 1.445 . S
C2135 C13 1.268 . S
C2151 C55 1.063 . S
C2156 C1162 0.919 . S
C2172 C914 1.120 . S
C2167 C35 1.074 . S
C2188 C1495 1.534 . S
C2183 C21 1.712 . S
C2204 C410 2.131 . S
C2199 C147 2.213 . S
C2220 C1402 0.645 . S
C2215 C321 0.775 . S
C2231 C119 1.104 . S
C2236 C578 1.125 . S
C2247 C293 1.672 . S
C2252 C1327 1.665 . S
C2263 C153 1.999 . S
C2268 C739 2.057 . S
C2284 C1155 1.177 . S
C2279 C315 1.231 . S
C2295 C125 0.803 . S
C2300 C898 0.794 . S
C2311 C287 1.819 . S
C2316 C1502 1.684 . S
C2327 C193 1.432 . S
C2332 C394 1.371 1_554 S
C2343 C176 1.896 . S
C2348 C1082 1.847 . S
C2359 C263 2.349 . S
C2364 C812 2.146 . S
C2375 C246 0.667 . S
C2380 C1243 0.767 . S
C2396 C1486 1.018 . S
C2391 C277 0.975 1_565 S
C2407 C221 1.350 . S
C2412 C562 1.408 . S
C2428 C662 2.186 . S
C2423 C260 2.190 . S
C2444 C487 0.781 . S
C2439 C204 0.902 . S
C2455 C83 1.898 . S
C2460 C1568 1.711 . S
C2476 C1407 2.226 . S
C2471 C92 2.208 . S
C2487 C105 1.570 . S
C2492 C1652 1.550 . S
C2503 C67 1.363 . S
C2508 C1330 1.261 . S
C2519 C53 1.394 . S
C2524 C1078 1.311 . S
C2540 C1150 1.047 . S
C2535 C8 1.065 . S
C2556 C1239 1.064 . S
C2551 C22 1.044 . S
C2572 C1484 1.331 . S
C2567 C39 1.588 . S
C2588 C1575 1.991 . S
C2583 C265 2.028 . S
C2599 C189 0.735 . S
C2604 C1414 0.635 . S
C2620 C1659 1.096 . S
C2615 C209 0.946 . S
C2636 C1316 1.550 . S
C2631 C217 1.621 . S
C2652 C1064 1.839 . S
C2647 C259 1.996 . S
C2663 C195 1.051 . S
C2668 C1166 1.048 . S
C2684 C1246 0.694 . S
C2679 C203 0.816 . S
C2695 C223 1.664 . S
C2700 C1491 1.523 . S
C2716 C1582 1.336 . S
C2711 C319 1.399 . S
C2727 C134 1.838 . S
C2732 C735 1.854 . S
C2748 C823 2.219 . S
C2743 C151 2.401 . S
C2764 C896 0.576 . S
C2759 C162 0.588 . S
C2780 C1498 1.089 . S
C2775 C305 1.050 . S
C2791 C291 1.392 1_554 S
C2796 C1666 1.388 . S
C2812 C651 2.130 . S
C2807 C148 2.118 . S
C2828 C476 0.666 . S
C2823 C120 0.775 . S
C2839 C91 2.018 . S
C2844 C1579 1.908 . S
C2860 C494 2.237 . S
C2855 C78 2.303 . S
C2871 C69 1.627 . S
C2876 C1663 1.612 . S
C2887 C109 1.415 . S
C2892 C646 1.236 . S
C2903 C41 1.248 . S
C2908 C1066 1.455 . S
C2924 C826 0.915 . S
C2919 C27 1.061 . S
C2935 C7 1.018 . S
C2940 C1250 1.133 . S
C2951 C49 1.673 . S
C2956 C991 1.475 . S
C2972 C1586 2.072 . S
C2967 C329 2.217 . S
C2983 C167 0.789 . S
C2988 C478 0.632 . S
C3004 C1670 1.099 . S
C2999 C301 1.158 . S
C3015 C139 1.649 . S
C3020 C655 1.636 . S
C3031 C335 2.016 . S
C3036 C1075 2.064 . S
C3052 C819 1.192 . S
C3047 C161 1.228 . S
C3063 C307 0.842 . S
C3068 C1234 0.714 1_655 S
C3084 C998 1.601 . S
C3079 C133 1.805 . S
C3100 C1570 1.400 . S
C3095 C249 1.413 . S
C3116 C746 1.877 1_665 S
C3111 C218 1.933 . S
C3127 C235 2.348 . S
C3132 C1148 2.193 . S
C3148 C907 0.726 . S
C3143 C190 0.621 . S
C3159 C207 1.022 . S
C3164 C982 1.035 . S
C3175 C179 1.358 . S
C3180 C1654 1.405 1_554 S
C3196 C1334 2.186 . S
C3191 C232 2.227 1_565 S
C3212 C1411 0.780 . S
C3207 C274 0.902 . S
