# Generated by pormake.
# Topology myd, (4,6)-cn, num edge types: 1
# Building blocks:
#     Node 0, Type 0, BuildingBlock: NAWXER_clean_sbu_0, # of connection points: 4
#     Node 1, Type 0, BuildingBlock: NAWXER_clean_sbu_0, # of connection points: 4
#     Node 2, Type 0, BuildingBlock: NAWXER_clean_sbu_0, # of connection points: 4
#     Node 3, Type 0, BuildingBlock: NAWXER_clean_sbu_0, # of connection points: 4
#     Node 4, Type 0, BuildingBlock: NAWXER_clean_sbu_0, # of connection points: 4
#     Node 5, Type 0, BuildingBlock: NAWXER_clean_sbu_0, # of connection points: 4
#     Node 6, Type 0, BuildingBlock: NAWXER_clean_sbu_0, # of connection points: 4
#     Node 7, Type 0, BuildingBlock: NAWXER_clean_sbu_0, # of connection points: 4
#     Node 8, Type 0, BuildingBlock: NAWXER_clean_sbu_0, # of connection points: 4
#     Node 9, Type 0, BuildingBlock: NAWXER_clean_sbu_0, # of connection points: 4
#     Node 10, Type 0, BuildingBlock: NAWXER_clean_sbu_0, # of connection points: 4
#     Node 11, Type 0, BuildingBlock: NAWXER_clean_sbu_0, # of connection points: 4
#     Node 12, Type 1, BuildingBlock: CIFDUS_clean_sbu_1, # of connection points: 6
#     Node 13, Type 1, BuildingBlock: CIFDUS_clean_sbu_1, # of connection points: 6
#     Node 14, Type 1, BuildingBlock: CIFDUS_clean_sbu_1, # of connection points: 6
#     Node 15, Type 1, BuildingBlock: CIFDUS_clean_sbu_1, # of connection points: 6
#     Node 16, Type 1, BuildingBlock: CIFDUS_clean_sbu_1, # of connection points: 6
#     Node 17, Type 1, BuildingBlock: CIFDUS_clean_sbu_1, # of connection points: 6
#     Node 18, Type 1, BuildingBlock: CIFDUS_clean_sbu_1, # of connection points: 6
#     Node 19, Type 1, BuildingBlock: CIFDUS_clean_sbu_1, # of connection points: 6
#     Edge 20, Type (0, 1), BuildingBlock: XIVTED_clean_linker_0, # of connection points: 2
#     Edge 21, Type (0, 1), BuildingBlock: XIVTED_clean_linker_0, # of connection points: 2
#     Edge 22, Type (0, 1), BuildingBlock: XIVTED_clean_linker_0, # of connection points: 2
#     Edge 23, Type (0, 1), BuildingBlock: XIVTED_clean_linker_0, # of connection points: 2
#     Edge 24, Type (0, 1), BuildingBlock: XIVTED_clean_linker_0, # of connection points: 2
#     Edge 25, Type (0, 1), BuildingBlock: XIVTED_clean_linker_0, # of connection points: 2
#     Edge 26, Type (0, 1), BuildingBlock: XIVTED_clean_linker_0, # of connection points: 2
#     Edge 27, Type (0, 1), BuildingBlock: XIVTED_clean_linker_0, # of connection points: 2
#     Edge 28, Type (0, 1), BuildingBlock: XIVTED_clean_linker_0, # of connection points: 2
#     Edge 29, Type (0, 1), BuildingBlock: XIVTED_clean_linker_0, # of connection points: 2
#     Edge 30, Type (0, 1), BuildingBlock: XIVTED_clean_linker_0, # of connection points: 2
#     Edge 31, Type (0, 1), BuildingBlock: XIVTED_clean_linker_0, # of connection points: 2
#     Edge 32, Type (0, 1), BuildingBlock: XIVTED_clean_linker_0, # of connection points: 2
#     Edge 33, Type (0, 1), BuildingBlock: XIVTED_clean_linker_0, # of connection points: 2
#     Edge 34, Type (0, 1), BuildingBlock: XIVTED_clean_linker_0, # of connection points: 2
#     Edge 35, Type (0, 1), BuildingBlock: XIVTED_clean_linker_0, # of connection points: 2
#     Edge 36, Type (0, 1), BuildingBlock: XIVTED_clean_linker_0, # of connection points: 2
#     Edge 37, Type (0, 1), BuildingBlock: XIVTED_clean_linker_0, # of connection points: 2
#     Edge 38, Type (0, 1), BuildingBlock: XIVTED_clean_linker_0, # of connection points: 2
#     Edge 39, Type (0, 1), BuildingBlock: XIVTED_clean_linker_0, # of connection points: 2
#     Edge 40, Type (0, 1), BuildingBlock: XIVTED_clean_linker_0, # of connection points: 2
#     Edge 41, Type (0, 1), BuildingBlock: XIVTED_clean_linker_0, # of connection points: 2
#     Edge 42, Type (0, 1), BuildingBlock: XIVTED_clean_linker_0, # of connection points: 2
#     Edge 43, Type (0, 1), BuildingBlock: XIVTED_clean_linker_0, # of connection points: 2
#     Edge 44, Type (0, 1), BuildingBlock: XIVTED_clean_linker_0, # of connection points: 2
#     Edge 45, Type (0, 1), BuildingBlock: XIVTED_clean_linker_0, # of connection points: 2
#     Edge 46, Type (0, 1), BuildingBlock: XIVTED_clean_linker_0, # of connection points: 2
#     Edge 47, Type (0, 1), BuildingBlock: XIVTED_clean_linker_0, # of connection points: 2
#     Edge 48, Type (0, 1), BuildingBlock: XIVTED_clean_linker_0, # of connection points: 2
#     Edge 49, Type (0, 1), BuildingBlock: XIVTED_clean_linker_0, # of connection points: 2
#     Edge 50, Type (0, 1), BuildingBlock: XIVTED_clean_linker_0, # of connection points: 2
#     Edge 51, Type (0, 1), BuildingBlock: XIVTED_clean_linker_0, # of connection points: 2
#     Edge 52, Type (0, 1), BuildingBlock: XIVTED_clean_linker_0, # of connection points: 2
#     Edge 53, Type (0, 1), BuildingBlock: XIVTED_clean_linker_0, # of connection points: 2
#     Edge 54, Type (0, 1), BuildingBlock: XIVTED_clean_linker_0, # of connection points: 2
#     Edge 55, Type (0, 1), BuildingBlock: XIVTED_clean_linker_0, # of connection points: 2
#     Edge 56, Type (0, 1), BuildingBlock: XIVTED_clean_linker_0, # of connection points: 2
#     Edge 57, Type (0, 1), BuildingBlock: XIVTED_clean_linker_0, # of connection points: 2
#     Edge 58, Type (0, 1), BuildingBlock: XIVTED_clean_linker_0, # of connection points: 2
#     Edge 59, Type (0, 1), BuildingBlock: XIVTED_clean_linker_0, # of connection points: 2
#     Edge 60, Type (0, 1), BuildingBlock: XIVTED_clean_linker_0, # of connection points: 2
#     Edge 61, Type (0, 1), BuildingBlock: XIVTED_clean_linker_0, # of connection points: 2
#     Edge 62, Type (0, 1), BuildingBlock: XIVTED_clean_linker_0, # of connection points: 2
#     Edge 63, Type (0, 1), BuildingBlock: XIVTED_clean_linker_0, # of connection points: 2
#     Edge 64, Type (0, 1), BuildingBlock: XIVTED_clean_linker_0, # of connection points: 2
#     Edge 65, Type (0, 1), BuildingBlock: XIVTED_clean_linker_0, # of connection points: 2
#     Edge 66, Type (0, 1), BuildingBlock: XIVTED_clean_linker_0, # of connection points: 2
#     Edge 67, Type (0, 1), BuildingBlock: XIVTED_clean_linker_0, # of connection points: 2
# Relax obj value: 0.215
# Max RMSD: 0.185
# Mean RMSD: 0.133
data_MOF--net-myd--node1-NAWXER_clean_sbu_0--node2-CIFDUS_clean_sbu_1--edge1-XIVTED_clean_linker_0
_symmetry_space_group_name_H-M    P1
_symmetry_Int_Tables_number       1
_symmetry_cell_setting            triclinic
loop_
_symmetry_equiv_pos_as_xyz
'x, y, z'
_cell_length_a     45.039855
_cell_length_b     45.676339
_cell_length_c     44.817342
_cell_angle_alpha  90.313564
_cell_angle_beta   91.608016
_cell_angle_gamma 91.995657
loop_
_atom_site_label
_atom_site_type_symbol
_atom_site_fract_x
_atom_site_fract_y
_atom_site_fract_z
_atom_type_partial_charge
C0 C 0.04846 0.23279 0.26667 0.0
C1 C 0.04433 0.31329 0.341 0.0
O2 O 0.07197 0.24715 0.27571 0.0
Zn3 Zn 0.05176 0.27007 0.30687 0.0
O4 O 0.02363 0.23785 0.27827 0.0
Zn5 Zn 0.00297 0.26358 0.30977 0.0
O6 O 0.97753 0.28504 0.28149 0.0
O7 O 0.02584 0.29377 0.27659 0.0
O8 O 0.01974 0.29961 0.33474 0.0
O9 O 0.06852 0.30318 0.33185 0.0
O10 O 0.03884 0.23516 0.33511 0.0
O11 O 0.98996 0.23222 0.33684 0.0
C12 C 0.99903 0.29802 0.26829 0.0
C13 C 0.01516 0.22196 0.34392 0.0
C14 C 0.99188 0.79976 0.22088 0.0
C15 C 0.99291 0.72169 0.147 0.0
O16 O 0.01781 0.79044 0.21618 0.0
Zn17 Zn 0.03874 0.76062 0.18777 0.0
O18 O 0.96927 0.78937 0.20621 0.0
Zn19 Zn 0.99072 0.76148 0.18321 0.0
O20 O 0.00713 0.73301 0.21734 0.0
O21 O 0.05625 0.73387 0.21702 0.0
O22 O 0.97005 0.73452 0.15569 0.0
O23 O 0.01873 0.73002 0.15711 0.0
O24 O 0.06226 0.78809 0.16323 0.0
O25 O 0.0139 0.79058 0.15502 0.0
C26 C 0.03198 0.72414 0.22783 0.0
C27 C 0.04039 0.79945 0.1495 0.0
C28 C 0.3346 1.00081 0.19765 0.0
C29 C 0.2573 0.98526 0.27148 0.0
O30 O 0.32427 0.97577 0.20556 0.0
Zn31 Zn 0.29864 0.98893 0.23716 0.0
O32 O 0.32751 0.0238 0.21183 0.0
Zn33 Zn 0.29877 0.03657 0.24548 0.0
O34 O 0.32368 0.05079 0.2799 0.0
O35 O 0.32667 1.00311 0.27322 0.0
O36 O 0.26684 0.01156 0.26787 0.0
O37 O 0.26962 0.96411 0.25849 0.0
O38 O 0.26892 0.0124 0.21036 0.0
O39 O 0.27126 0.05988 0.221 0.0
C40 C 0.33385 0.02634 0.28819 0.0
C41 C 0.2602 0.03825 0.2057 0.0
C42 C 0.73324 0.52194 0.2107 0.0
C43 C 0.65881 0.52766 0.28847 0.0
O44 O 0.72292 0.49701 0.21935 0.0
Zn45 Zn 0.69227 0.47921 0.25052 0.0
O46 O 0.72405 0.54531 0.22232 0.0
Zn47 Zn 0.69501 0.52666 0.2486 0.0
O48 O 0.72252 0.50717 0.28095 0.0
O49 O 0.71835 0.45879 0.2786 0.0
O50 O 0.67053 0.54923 0.27468 0.0
O51 O 0.66484 0.50139 0.28128 0.0
O52 O 0.66403 0.45806 0.22411 0.0
O53 O 0.66362 0.50612 0.21862 0.0
C54 C 0.72949 0.48205 0.29082 0.0
C55 C 0.65384 0.48041 0.21105 0.0
C56 C 0.20347 0.34681 0.00776 0.0
C57 C 0.27915 0.27259 0.99533 0.0
O58 O 0.21151 0.33645 0.98289 0.0
Zn59 Zn 0.24314 0.31191 0.99798 0.0
O60 O 0.21787 0.34041 0.03177 0.0
Zn61 Zn 0.25281 0.31309 0.04621 0.0
O62 O 0.28668 0.33953 0.05948 0.0
O63 O 0.27813 0.34101 0.01086 0.0
O64 O 0.2761 0.28179 0.02201 0.0
O65 O 0.26449 0.28406 0.97388 0.0
O66 O 0.21762 0.28262 0.02333 0.0
O67 O 0.22936 0.28607 0.07158 0.0
C68 C 0.29348 0.34942 0.03392 0.0
C69 C 0.21364 0.27455 0.05014 0.0
C70 C 0.21089 0.74785 0.49685 0.0
C71 C 0.28999 0.67643 0.50431 0.0
O72 O 0.22502 0.73822 0.47478 0.0
Zn73 Zn 0.24943 0.71086 0.49698 0.0
O74 O 0.21633 0.73847 0.52322 0.0
Zn75 Zn 0.24435 0.70864 0.54598 0.0
O76 O 0.27017 0.7359 0.57088 0.0
O77 O 0.27552 0.74012 0.52218 0.0
O78 O 0.27764 0.68235 0.52887 0.0
O79 O 0.28027 0.68746 0.48001 0.0
O80 O 0.2173 0.68087 0.51112 0.0
O81 O 0.21426 0.68001 0.56017 0.0
C82 C 0.28248 0.74832 0.54872 0.0
C83 C 0.205 0.67094 0.53447 0.0
C84 C 0.7064 0.85014 0.50519 0.0
C85 C 0.78216 0.77542 0.49415 0.0
O86 O 0.71537 0.84019 0.48052 0.0
Zn87 Zn 0.74671 0.815 0.49581 0.0
O88 O 0.71955 0.84309 0.52962 0.0
Zn89 Zn 0.75285 0.81481 0.54466 0.0
O90 O 0.78563 0.84012 0.56113 0.0
O91 O 0.78295 0.8417 0.51182 0.0
O92 O 0.77796 0.7845 0.5207 0.0
O93 O 0.76799 0.78657 0.47214 0.0
O94 O 0.72021 0.78485 0.51837 0.0
O95 O 0.72747 0.78674 0.56732 0.0
C96 C 0.79605 0.8491 0.53652 0.0
C97 C 0.71412 0.77548 0.54426 0.0
C98 C 0.50242 0.79903 0.76349 0.0
C99 C 0.51549 0.72238 0.83958 0.0
O100 O 0.48056 0.78412 0.77393 0.0
Zn101 Zn 0.50463 0.76347 0.80409 0.0
O102 O 0.52881 0.79528 0.77342 0.0
Zn103 Zn 0.55342 0.77074 0.80407 0.0
O104 O 0.57547 0.74805 0.77397 0.0
O105 O 0.52719 0.73756 0.77425 0.0
O106 O 0.53954 0.73555 0.83171 0.0
O107 O 0.49058 0.73245 0.83111 0.0
O108 O 0.51947 0.79973 0.83039 0.0
O109 O 0.56843 0.80359 0.83054 0.0
C110 C 0.55275 0.733 0.76409 0.0
C111 C 0.54361 0.8134 0.83841 0.0
C112 C 0.49432 0.22537 0.72763 0.0
C113 C 0.49536 0.30083 0.65022 0.0
O114 O 0.47104 0.23579 0.71547 0.0
Zn115 Zn 0.49143 0.26096 0.68696 0.0
O116 O 0.5201 0.233 0.71846 0.0
Zn117 Zn 0.54035 0.26025 0.6857 0.0
O118 O 0.56374 0.2878 0.71234 0.0
O119 O 0.51493 0.28964 0.71639 0.0
O120 O 0.5209 0.29159 0.65779 0.0
O121 O 0.47196 0.28874 0.6606 0.0
O122 O 0.50718 0.22892 0.65936 0.0
O123 O 0.55614 0.23063 0.65823 0.0
C124 C 0.54113 0.29852 0.72446 0.0
C125 C 0.53122 0.21859 0.65016 0.0
C126 C 0.75899 0.53391 0.70516 0.0
C127 C 0.83631 0.52595 0.78494 0.0
O128 O 0.77053 0.5563 0.7189 0.0
Zn129 Zn 0.79957 0.53445 0.74338 0.0
O130 O 0.76874 0.50851 0.71025 0.0
Zn131 Zn 0.80058 0.48671 0.73581 0.0
O132 O 0.7736 0.46118 0.75856 0.0
O133 O 0.76951 0.50861 0.76767 0.0
O134 O 0.82925 0.50239 0.7705 0.0
O135 O 0.82519 0.55002 0.77677 0.0
O136 O 0.82782 0.52209 0.70916 0.0
O137 O 0.82547 0.47398 0.70355 0.0
C138 C 0.76132 0.48202 0.77209 0.0
C139 C 0.83508 0.49909 0.69512 0.0
C140 C 0.2357 0.02151 0.71182 0.0
C141 C 0.15848 0.02667 0.78769 0.0
O142 O 0.22505 0.99682 0.72077 0.0
Zn143 Zn 0.19303 0.97901 0.75024 0.0
O144 O 0.22631 0.0451 0.72297 0.0
Zn145 Zn 0.19642 0.02705 0.74919 0.0
O146 O 0.22258 0.00703 0.78247 0.0
O147 O 0.21781 0.95871 0.77971 0.0
O148 O 0.16989 0.04887 0.77454 0.0
O149 O 0.16518 1.00084 0.77976 0.0
O150 O 0.1649 0.95909 0.72192 0.0
O151 O 0.16717 0.00723 0.7175 0.0
C152 C 0.22872 0.98177 0.79261 0.0
C153 C 0.15702 0.98217 0.70843 0.0
C154 C 0.70365 0.17353 0.04434 0.0
C155 C 0.785 0.24792 0.0515 0.0
O156 O 0.71451 0.18425 0.06872 0.0
Zn157 Zn 0.74574 0.20978 0.05164 0.0
O158 O 0.71498 0.18075 0.01958 0.0
Zn159 Zn 0.74831 0.2083 0.00291 0.0
O160 O 0.77724 0.18235 0.98622 0.0
O161 O 0.7783 0.18186 0.03547 0.0
O162 O 0.77717 0.23883 0.02536 0.0
O163 O 0.77271 0.23708 0.07449 0.0
O164 O 0.71965 0.24054 0.02822 0.0
O165 O 0.72401 0.23492 0.97942 0.0
C166 C 0.78897 0.17377 0.01071 0.0
C167 C 0.71293 0.24802 0.00149 0.0
O168 O 0.02538 0.07983 0.07989 0.0
Mn169 Mn 0.0422 0.05823 0.0421 0.0
O170 O 0.06262 0.08152 0.11295 0.0
Mn171 Mn 0.0879 0.08666 0.08225 0.0
O172 O 0.05915 0.04011 0.003 0.0
O173 O 0.99958 0.05973 0.0241 0.0
Mn174 Mn 0.99517 0.02514 0.00552 0.0
O175 O 0.03359 0.01653 0.06041 0.0
O176 O 0.02013 0.02566 0.97396 0.0
O177 O 0.05272 0.09975 0.02416 0.0
O178 O 0.08406 0.11936 0.05937 0.0
O179 O 0.95984 0.04122 0.99892 0.0
O180 O 0.99809 0.99432 0.03172 0.0
C181 C 0.11147 0.05124 0.07109 0.0
C182 C 0.03581 0.08579 0.10628 0.0
C183 C 0.04761 0.03172 0.9777 0.0
C184 C 0.97245 0.06304 0.0136 0.0
C185 C 0.01652 0.99417 0.05368 0.0
C186 C 0.06918 0.12105 0.03504 0.0
O187 O 0.08456 0.05481 0.0601 0.0
O188 O 0.12399 0.07244 0.08684 0.0
O189 O 0.97343 0.44818 0.08374 0.0
Mn190 Mn 0.95252 0.46126 0.04451 0.0
O191 O 0.93935 0.41418 0.09637 0.0
Mn192 Mn 0.90899 0.42856 0.07246 0.0
O193 O 0.93051 0.47385 0.00459 0.0
O194 O 0.99246 0.45886 0.02407 0.0
Mn195 Mn 0.99617 0.49118 0.00264 0.0
O196 O 0.9607 0.50487 0.05674 0.0
O197 O 0.96607 0.49016 0.97397 0.0
O198 O 0.94635 0.41675 0.03107 0.0
O199 O 0.89908 0.41053 0.03711 0.0
O200 O 0.02986 0.47182 0.99576 0.0
O201 O 0.99752 0.52265 0.02857 0.0
C202 C 0.88796 0.46484 0.08289 0.0
C203 C 0.96464 0.42704 0.10024 0.0
C204 C 0.93913 0.48336 0.97915 0.0
C205 C 0.0183 0.45272 0.01367 0.0
C206 C 0.97937 0.52523 0.04953 0.0
C207 C 0.922 0.40276 0.02463 0.0
O208 O 0.9126 0.46702 0.06743 0.0
O209 O 0.87807 0.43955 0.09208 0.0
O210 O 0.08134 0.98324 0.42331 0.0
Mn211 Mn 0.04408 0.96338 0.4448 0.0
O212 O 0.11475 0.9498 0.42581 0.0
Mn213 Mn 0.08241 0.92611 0.41775 0.0
O214 O 0.00486 0.94642 0.46608 0.0
O215 O 0.02502 1.00326 0.43978 0.0
Mn216 Mn 0.00918 0.00952 0.47525 0.0
O217 O 0.06463 0.97418 0.48518 0.0
O218 O 0.97627 0.9854 0.47173 0.0
O219 O 0.02351 0.95018 0.40465 0.0
O220 O 0.06181 0.93189 0.38219 0.0
O221 O 0.01767 0.04562 0.46042 0.0
O222 O 0.03232 1.00121 0.5087 0.0
C223 C 0.07485 0.89614 0.44903 0.0
C224 C 0.10864 0.97615 0.42265 0.0
C225 C 0.97961 0.95782 0.47208 0.0
C226 C 0.03014 0.03153 0.43931 0.0
C227 C 0.05575 0.98682 0.50845 0.0
C228 C 0.03511 0.93941 0.3816 0.0
O229 O 0.06257 0.922 0.45156 0.0
O230 O 0.0879 0.88897 0.42475 0.0
O231 O 0.92708 0.59125 0.46627 0.0
Mn232 Mn 0.95242 0.55778 0.44685 0.0
O233 O 0.92398 0.62565 0.43224 0.0
Mn234 Mn 0.92476 0.59565 0.40554 0.0
O235 O 0.97649 0.52284 0.4284 0.0
O236 O 0.94484 0.53601 0.48561 0.0
Mn237 Mn 0.97743 0.51773 0.49507 0.0
O238 O 0.99161 0.57733 0.4655 0.0
O239 O 0.98448 0.49123 0.46565 0.0
O240 O 0.91424 0.5362 0.43009 0.0
O241 O 0.8916 0.57088 0.40485 0.0
O242 O 0.95239 0.50815 0.5248 0.0
O243 O 0.00631 0.54657 0.50187 0.0
C244 C 0.961 0.59489 0.38079 0.0
C245 C 0.92064 0.6174 0.45865 0.0
C246 C 0.98551 0.49805 0.43831 0.0
C247 C 0.93482 0.52533 0.51042 0.0
C248 C 0.00933 0.57024 0.4872 0.0
C249 C 0.89172 0.54551 0.41583 0.0
O250 O 0.961 0.58055 0.4066 0.0
O251 O 0.93676 0.60585 0.37009 0.0
O252 O 0.4838 0.95257 0.58313 0.0
Mn253 Mn 0.45771 0.96526 0.5464 0.0
O254 O 0.45113 0.92556 0.60808 0.0
Mn255 Mn 0.41903 0.93755 0.58629 0.0
O256 O 0.43246 0.97697 0.50767 0.0
O257 O 0.49519 0.96007 0.52298 0.0
Mn258 Mn 0.49774 0.98881 0.49693 0.0
O259 O 0.4705 0.00902 0.55525 0.0
O260 O 0.46543 0.98398 0.47136 0.0
O261 O 0.44712 0.92065 0.53597 0.0
O262 O 0.40494 0.91155 0.5584 0.0
O263 O 0.53081 0.96751 0.49144 0.0
O264 O 0.50081 0.02342 0.51864 0.0
C265 C 0.39709 0.97388 0.59082 0.0
C266 C 0.47738 0.93468 0.60394 0.0
C267 C 0.43891 0.98106 0.48006 0.0
C268 C 0.52036 0.95179 0.51293 0.0
C269 C 0.48758 0.02831 0.54285 0.0
C270 C 0.42387 0.9044 0.53994 0.0
O271 O 0.41937 0.97376 0.57177 0.0
O272 O 0.39177 0.95181 0.60826 0.0
O273 O 0.52139 0.57844 0.58206 0.0
Mn274 Mn 0.53945 0.55914 0.54333 0.0
O275 O 0.55589 0.5735 0.61678 0.0
Mn276 Mn 0.58155 0.58382 0.58762 0.0
O277 O 0.5567 0.54305 0.50301 0.0
O278 O 0.49791 0.56149 0.52487 0.0
Mn279 Mn 0.49144 0.52915 0.5034 0.0
O280 O 0.5296 0.51648 0.5587 0.0
O281 O 0.5176 0.53054 0.47304 0.0
O282 O 0.55042 0.60148 0.52874 0.0
O283 O 0.57615 0.6191 0.56893 0.0
O284 O 0.45713 0.54856 0.49906 0.0
O285 O 0.49385 0.49711 0.52787 0.0
C286 C 0.60851 0.55241 0.57301 0.0
C287 C 0.5299 0.58021 0.60963 0.0
C288 C 0.54528 0.5355 0.47725 0.0
C289 C 0.47121 0.56782 0.51599 0.0
C290 C 0.51196 0.49516 0.54997 0.0
C291 C 0.56384 0.62253 0.54339 0.0
O292 O 0.58168 0.55485 0.56138 0.0
O293 O 0.61847 0.57197 0.59228 0.0
O294 O 0.58486 0.47945 0.93037 0.0
Mn295 Mn 0.54512 0.46125 0.94494 0.0
O296 O 0.58969 0.44817 0.8932 0.0
Mn297 Mn 0.56992 0.41714 0.91151 0.0
O298 O 0.50509 0.44175 0.96003 0.0
O299 O 0.52777 0.50303 0.94062 0.0
Mn300 Mn 0.5096 0.50474 0.97556 0.0
O301 O 0.56097 0.4684 0.98872 0.0
O302 O 0.47837 0.47796 0.97755 0.0
O303 O 0.52883 0.45339 0.89995 0.0
O304 O 0.53444 0.40606 0.8946 0.0
O305 O 0.5014 0.5392 0.95961 0.0
O306 O 0.53619 0.50533 0.00733 0.0
C307 C 0.58721 0.40471 0.95189 0.0
C308 C 0.59724 0.4718 0.90656 0.0
C309 C 0.48127 0.45122 0.97119 0.0
C310 C 0.5168 0.52938 0.93793 0.0
C311 C 0.55616 0.48659 0.0097 0.0
C312 C 0.52218 0.42906 0.88615 0.0
O313 O 0.56287 0.41986 0.95037 0.0
O314 O 0.59699 0.39427 0.9272 0.0
O315 O 0.43257 0.09609 0.96474 0.0
Mn316 Mn 0.45235 0.05809 0.94832 0.0
O317 O 0.40668 0.11195 0.92497 0.0
Mn318 Mn 0.41927 0.08385 0.89939 0.0
O319 O 0.47196 0.01967 0.93095 0.0
O320 O 0.44796 0.04077 0.98979 0.0
Mn321 Mn 0.48038 0.02137 0.99711 0.0
O322 O 0.49485 0.07672 0.96039 0.0
O323 O 0.48153 0.99126 0.97028 0.0
O324 O 0.41018 0.03742 0.93929 0.0
O325 O 0.39564 0.05115 0.8942 0.0
O326 O 0.45926 0.01639 0.03066 0.0
O327 O 0.5122 0.04755 0.99688 0.0
C328 C 0.45875 0.08933 0.87951 0.0
C329 C 0.41526 0.11442 0.95207 0.0
C330 C 0.48041 0.99526 0.94232 0.0
C331 C 0.44036 0.03217 0.01625 0.0
C332 C 0.51513 0.06947 0.9797 0.0
C333 C 0.39275 0.03471 0.91634 0.0
O334 O 0.45764 0.07723 0.90623 0.0
O335 O 0.43436 0.09702 0.86611 0.0
H336 H 0.97081 0.18064 0.35566 0.0
H337 H 0.07936 0.06361 0.42438 0.0
H338 H 0.06608 0.19476 0.36075 0.0
H339 H 0.98932 0.04172 0.39571 0.0
H340 H 0.07647 0.11021 0.39784 0.0
H341 H 0.97728 0.12958 0.37057 0.0
C342 C 0.99303 0.17319 0.36027 0.0
C343 C 0.01786 0.19227 0.35719 0.0
C344 C 0.05759 0.09487 0.39653 0.0
C345 C 0.02552 0.13352 0.37353 0.0
C346 C 0.05952 0.06792 0.41112 0.0
C347 C 0.03469 0.04859 0.41194 0.0
C348 C 0.03033 0.10282 0.38336 0.0
C349 C 0.00917 0.05578 0.39517 0.0
C350 C 0.99675 0.14389 0.36835 0.0
C351 C 0.04618 0.18108 0.36307 0.0
N352 N 0.00732 0.08263 0.3823 0.0
N353 N 0.0492 0.1526 0.37097 0.0
H354 H 0.06935 0.33819 0.39266 0.0
H355 H 0.97048 0.48135 0.37984 0.0
H356 H 0.01343 0.35653 0.31594 0.0
H357 H 0.03112 0.46397 0.45329 0.0
H358 H 0.98879 0.43819 0.35354 0.0
H359 H 0.05829 0.38646 0.41349 0.0
C360 C 0.05535 0.35268 0.37995 0.0
C361 C 0.04244 0.34356 0.35256 0.0
C362 C 0.99833 0.44414 0.37526 0.0
C363 C 0.0293 0.39855 0.37614 0.0
C364 C 0.98805 0.46891 0.3901 0.0
C365 C 0.99918 0.47617 0.41883 0.0
C366 C 0.01985 0.42671 0.38934 0.0
C367 C 0.02168 0.45902 0.43128 0.0
C368 C 0.04881 0.38015 0.39184 0.0
C369 C 0.02383 0.36288 0.3372 0.0
N370 N 0.03102 0.43511 0.41666 0.0
N371 N 0.01772 0.38933 0.3492 0.0
H372 H 0.08161 0.84539 0.15459 0.0
H373 H 0.98047 0.94483 0.04932 0.0
H374 H 0.00544 0.81355 0.10205 0.0
H375 H 0.06087 0.97855 0.09336 0.0
H376 H 0.98991 0.89666 0.0694 0.0
H377 H 0.07689 0.89373 0.13124 0.0
C378 C 0.06451 0.84831 0.1375 0.0
C379 C 0.0438 0.82551 0.13031 0.0
C380 C 0.0056 0.91454 0.07479 0.0
C381 C 0.03771 0.88069 0.1043 0.0
C382 C 1.00009 0.94223 0.06347 0.0
C383 C 0.02008 0.96595 0.06954 0.0
C384 C 0.03132 0.91025 0.09246 0.0
C385 C 0.04496 0.96101 0.08818 0.0
C386 C 0.06154 0.87599 0.1245 0.0
C387 C 0.02176 0.8306 0.10839 0.0
N388 N 0.04999 0.93371 0.09891 0.0
N389 N 0.01912 0.85763 0.09645 0.0
H390 H 0.03767 0.68736 0.13055 0.0
H391 H 0.93206 0.55854 0.06171 0.0
H392 H 0.94239 0.69444 0.12198 0.0
H393 H 0.02737 0.55565 0.07183 0.0
H394 H 0.93433 0.6084 0.08292 0.0
H395 H 0.03347 0.63966 0.10701 0.0
C396 C 0.01579 0.67907 0.12332 0.0
C397 C 0.99027 0.69488 0.12852 0.0
C398 C 0.95467 0.59672 0.08074 0.0
C399 C 0.9853 0.63972 0.10153 0.0
C400 C 0.95334 0.56831 0.06895 0.0
C401 C 0.97959 0.5533 0.06527 0.0
C402 C 0.98242 0.60971 0.08911 0.0
C403 C 0.00671 0.56676 0.0743 0.0
C404 C 0.01341 0.65163 0.10996 0.0
C405 C 0.9626 0.68287 0.11858 0.0
N406 N 0.00741 0.59419 0.08588 0.0
N407 N 0.9608 0.65581 0.10566 0.0
H408 H 0.32957 0.967 0.14677 0.0
H409 H 0.43185 0.07731 0.0537 0.0
H410 H 0.37219 0.04597 0.18293 0.0
H411 H 0.38926 0.99941 0.01582 0.0
H412 H 0.40258 0.07087 0.0984 0.0
H413 H 0.347 0.98063 0.09717 0.0
C414 C 0.34322 0.98681 0.14441 0.0
C415 C 0.34986 0.00513 0.16911 0.0
C416 C 0.39882 0.05564 0.07997 0.0
C417 C 0.369 0.0214 0.11233 0.0
C418 C 0.41499 0.05981 0.05409 0.0
C419 C 0.41284 0.03891 0.03106 0.0
C420 C 0.38062 0.03022 0.08282 0.0
C421 C 0.39133 0.01613 0.03306 0.0
C422 C 0.35268 0.99488 0.11601 0.0
C423 C 0.3668 0.03105 0.16456 0.0
N424 N 0.37658 0.0119 0.05884 0.0
N425 N 0.37578 0.03836 0.13682 0.0
H426 H 0.6176 0.52166 0.18914 0.0
H427 H 0.58518 0.43957 0.03303 0.0
H428 H 0.64493 0.43356 0.17256 0.0
H429 H 0.56273 0.52866 0.05262 0.0
H430 H 0.60555 0.43528 0.08416 0.0
H431 H 0.59328 0.52206 0.14018 0.0
C432 C 0.61804 0.50216 0.17531 0.0
C433 C 0.63362 0.47767 0.18472 0.0
C434 C 0.59623 0.45575 0.07714 0.0
C435 C 0.60625 0.47815 0.12818 0.0
C436 C 0.5849 0.45831 0.04794 0.0
C437 C 0.57214 0.48447 0.03868 0.0
C438 C 0.59482 0.47957 0.09697 0.0
C439 C 0.5721 0.50799 0.0589 0.0
C440 C 0.6043 0.50245 0.14722 0.0
C441 C 0.63321 0.4529 0.16604 0.0
N442 N 0.58317 0.50493 0.08704 0.0
N443 N 0.62006 0.45389 0.13835 0.0
H444 H 0.33143 0.05891 0.34023 0.0
H445 H 0.43324 0.94721 0.43096 0.0
H446 H 0.37291 0.98431 0.30201 0.0
H447 H 0.39473 0.02096 0.47363 0.0
H448 H 0.40717 0.95902 0.38452 0.0
H449 H 0.35253 0.0458 0.38954 0.0
C450 C 0.34551 0.04022 0.34207 0.0
C451 C 0.35061 0.02281 0.31689 0.0
C452 C 0.40381 0.97244 0.40405 0.0
C453 C 0.37406 0.00727 0.37319 0.0
C454 C 0.41838 0.96538 0.43072 0.0
C455 C 0.41578 0.98289 0.45623 0.0
C456 C 0.38671 0.99756 0.40252 0.0
C457 C 0.39685 0.00663 0.45455 0.0
C458 C 0.35718 0.03251 0.37026 0.0
C459 C 0.36841 0.99842 0.32072 0.0
N460 N 0.38325 0.01353 0.42799 0.0
N461 N 0.37936 0.99141 0.34819 0.0
H462 H 0.59958 0.53723 0.29385 0.0
H463 H 0.60677 0.53578 0.47339 0.0
H464 H 0.68057 0.52617 0.34504 0.0
H465 H 0.52562 0.53143 0.4195 0.0
H466 H 0.63513 0.53479 0.42722 0.0
H467 H 0.57238 0.53874 0.34059 0.0
C468 C 0.61164 0.53566 0.31501 0.0
C469 C 0.64235 0.53217 0.31586 0.0
C470 C 0.61109 0.53404 0.42569 0.0
C471 C 0.6117 0.53326 0.36918 0.0
C472 C 0.59495 0.5346 0.45202 0.0
C473 C 0.56377 0.53374 0.45046 0.0
C474 C 0.59586 0.53304 0.39777 0.0
C475 C 0.54961 0.53207 0.42205 0.0
C476 C 0.59621 0.53624 0.34164 0.0
C477 C 0.657 0.52942 0.34365 0.0
N478 N 0.5657 0.53193 0.397 0.0
N479 N 0.64161 0.53006 0.36926 0.0
H480 H 0.18127 0.3722 0.05757 0.0
H481 H 0.02571 0.40683 0.97724 0.0
H482 H 0.16022 0.35538 0.96435 0.0
H483 H 0.05269 0.44253 0.06322 0.0
H484 H 0.07079 0.37858 0.97695 0.0
H485 H 0.13182 0.39151 0.06334 0.0
C486 C 0.16641 0.37286 0.03818 0.0
C487 C 0.17512 0.36226 0.01031 0.0
C488 C 0.06654 0.39192 0.99631 0.0
C489 C 0.11802 0.3838 0.01709 0.0
C490 C 0.04043 0.40749 0.99681 0.0
C491 C 0.03523 0.42658 0.02053 0.0
C492 C 0.08779 0.39566 0.01966 0.0
C493 C 0.05559 0.42753 0.04481 0.0
C494 C 0.13806 0.38371 0.04161 0.0
C495 C 0.15468 0.36349 0.98617 0.0
N496 N 0.08126 0.41265 0.04358 0.0
N497 N 0.12711 0.37394 0.99015 0.0
H498 H 0.16844 0.64464 0.57626 0.0
H499 H 0.04109 0.6079 0.4517 0.0
H500 H 0.17797 0.65684 0.48136 0.0
H501 H 0.03778 0.57404 0.54135 0.0
H502 H 0.08938 0.6317 0.46452 0.0
H503 H 0.11902 0.62141 0.56578 0.0
C504 C 0.16035 0.64224 0.55336 0.0
C505 C 0.17733 0.65293 0.52978 0.0
C506 C 0.07795 0.61918 0.48143 0.0
C507 C 0.12093 0.62746 0.51775 0.0
C508 C 0.05028 0.60594 0.47417 0.0
C509 C 0.03564 0.58887 0.49539 0.0
C510 C 0.09079 0.61546 0.51014 0.0
C511 C 0.04859 0.5868 0.52421 0.0
C512 C 0.13216 0.6292 0.54739 0.0
C513 C 0.16579 0.64914 0.50043 0.0
N514 N 0.07552 0.59981 0.53072 0.0
N515 N 0.13829 0.63708 0.49535 0.0
H516 H 0.84673 0.8238 0.52129 0.0
H517 H 0.9286 0.97832 0.49389 0.0
H518 H 0.81173 0.90705 0.54488 0.0
H519 H 0.97131 0.89693 0.47639 0.0
H520 H 0.88684 0.95146 0.51365 0.0
H521 H 0.89343 0.84875 0.50722 0.0
C522 C 0.84931 0.84732 0.5243 0.0
C523 C 0.82574 0.86345 0.53487 0.0
C524 C 0.90522 0.93926 0.50559 0.0
C525 C 0.87851 0.89218 0.51782 0.0
C526 C 0.92932 0.95464 0.494 0.0
C527 C 0.95386 0.93998 0.48316 0.0
C528 C 0.90498 0.90866 0.50638 0.0
C529 C 0.95298 0.90922 0.48438 0.0
C530 C 0.87582 0.86153 0.51601 0.0
C531 C 0.82966 0.89383 0.5375 0.0
N532 N 0.92882 0.89453 0.49567 0.0
N533 N 0.85546 0.90722 0.52885 0.0
H534 H 0.33473 0.6762 0.46387 0.0
H535 H 0.4377 0.57531 0.56417 0.0
H536 H 0.30983 0.64212 0.54961 0.0
H537 H 0.46644 0.61675 0.48346 0.0
H538 H 0.39328 0.60462 0.56272 0.0
H539 H 0.38425 0.65656 0.47182 0.0
C540 C 0.3395 0.66416 0.48409 0.0
C541 C 0.31807 0.66064 0.50599 0.0
C542 C 0.40973 0.60809 0.54582 0.0
C543 C 0.37482 0.63884 0.51565 0.0
C544 C 0.43542 0.59187 0.5471 0.0
C545 C 0.45581 0.59409 0.52416 0.0
C546 C 0.40437 0.62624 0.52112 0.0
C547 C 0.45137 0.61491 0.50182 0.0
C548 C 0.3679 0.65336 0.48887 0.0
C549 C 0.32566 0.64531 0.53207 0.0
N550 N 0.42578 0.62979 0.50047 0.0
N551 N 0.35335 0.63499 0.53616 0.0
H552 H 0.56484 0.68944 0.84741 0.0
H553 H 0.47226 0.5488 0.90353 0.0
H554 H 0.47066 0.68757 0.86298 0.0
H555 H 0.56718 0.55738 0.9169 0.0
H556 H 0.4726 0.5959 0.87821 0.0
H557 H 0.56707 0.63894 0.86504 0.0
C558 C 0.54465 0.67865 0.85499 0.0
C559 C 0.51744 0.69305 0.85385 0.0
C560 C 0.49352 0.58724 0.88591 0.0
C561 C 0.51996 0.63473 0.8735 0.0
C562 C 0.49344 0.55998 0.89978 0.0
C563 C 0.51979 0.54886 0.9119 0.0
C564 C 0.52022 0.60375 0.884 0.0
C565 C 0.54646 0.56483 0.90732 0.0
C566 C 0.546 0.64967 0.86483 0.0
C567 C 0.49208 0.67753 0.86345 0.0
N568 N 0.54599 0.59169 0.894 0.0
N569 N 0.49396 0.64928 0.87277 0.0
H570 H 0.56043 0.83255 0.89499 0.0
H571 H 0.47451 0.98439 0.88068 0.0
H572 H 0.51825 0.86017 0.81301 0.0
H573 H 0.5129 0.95015 0.96216 0.0
H574 H 0.49342 0.94183 0.85359 0.0
H575 H 0.54676 0.87869 0.91853 0.0
C576 C 0.54909 0.84873 0.88175 0.0
C577 C 0.54098 0.84285 0.85191 0.0
C578 C 0.49768 0.94388 0.87742 0.0
C579 C 0.52461 0.89551 0.87863 0.0
C580 C 0.4869 0.96817 0.89284 0.0
C581 C 0.49174 0.97091 0.92386 0.0
C582 C 0.5136 0.92246 0.89316 0.0
C583 C 0.50808 0.94909 0.93837 0.0
C584 C 0.54096 0.87498 0.89517 0.0
C585 C 0.52535 0.86418 0.83596 0.0
N586 N 0.51823 0.92604 0.92302 0.0
N587 N 0.51764 0.88949 0.84945 0.0
H588 H 0.50871 0.35252 0.67651 0.0
H589 H 0.50039 0.44219 0.52417 0.0
H590 H 0.48367 0.31353 0.59138 0.0
H591 H 0.52564 0.48237 0.6089 0.0
H592 H 0.49665 0.39472 0.54823 0.0
H593 H 0.51588 0.40006 0.65235 0.0
C594 C 0.50409 0.35427 0.65273 0.0
C595 C 0.49473 0.32953 0.6359 0.0
C596 C 0.50301 0.41381 0.56167 0.0
C597 C 0.50379 0.38343 0.60797 0.0
C598 C 0.50514 0.44099 0.54796 0.0
C599 C 0.5128 0.46636 0.56471 0.0
C600 C 0.50828 0.41183 0.59252 0.0
C601 C 0.51945 0.46338 0.59525 0.0
C602 C 0.5085 0.38127 0.63893 0.0
C603 C 0.49004 0.33241 0.60512 0.0
N604 N 0.5167 0.43657 0.60829 0.0
N605 N 0.49462 0.35898 0.59209 0.0
H606 H 0.49576 0.17368 0.66622 0.0
H607 H 0.52032 0.07532 0.52212 0.0
H608 H 0.55922 0.19843 0.59979 0.0
H609 H 0.46871 0.04719 0.59725 0.0
H610 H 0.53285 0.1214 0.5481 0.0
H611 H 0.48472 0.12803 0.63972 0.0
C612 C 0.50761 0.1693 0.64603 0.0
C613 C 0.52846 0.18982 0.63513 0.0
C614 C 0.51885 0.10512 0.55888 0.0
C615 C 0.51561 0.13737 0.60431 0.0
C616 C 0.51153 0.07878 0.54406 0.0
C617 C 0.49353 0.05712 0.5576 0.0
C618 C 0.50808 0.10993 0.58745 0.0
C619 C 0.48269 0.0631 0.58592 0.0
C620 C 0.50123 0.14318 0.63088 0.0
C621 C 0.54321 0.18301 0.60901 0.0
N622 N 0.4902 0.08888 0.59989 0.0
N623 N 0.5363 0.15732 0.59425 0.0
H624 H 0.82588 0.46682 0.64394 0.0
H625 H 0.93108 0.57127 0.54779 0.0
H626 H 0.87459 0.54258 0.67982 0.0
H627 H 0.88105 0.49695 0.51116 0.0
H628 H 0.90367 0.56658 0.59388 0.0
H629 H 0.84185 0.48033 0.59389 0.0
C630 C 0.84062 0.48583 0.64137 0.0
C631 C 0.84943 0.50327 0.66612 0.0
C632 C 0.89784 0.55188 0.57543 0.0
C633 C 0.86705 0.51943 0.60882 0.0
C634 C 0.91295 0.55509 0.54874 0.0
C635 C 0.9083 0.53443 0.52566 0.0
C636 C 0.87792 0.52783 0.57887 0.0
C637 C 0.88518 0.51338 0.52842 0.0
C638 C 0.84927 0.49388 0.61273 0.0
C639 C 0.86761 0.52833 0.66135 0.0
N640 N 0.87136 0.5101 0.55486 0.0
N641 N 0.87591 0.53559 0.63333 0.0
H642 H 0.15441 0.02566 0.66818 0.0
H643 H 0.04466 0.94573 0.55011 0.0
H644 H 0.12196 0.93685 0.68268 0.0
H645 H 0.10229 0.01996 0.53054 0.0
H646 H 0.06886 0.94245 0.59988 0.0
H647 H 0.13062 0.02488 0.61945 0.0
C648 C 0.14194 0.00595 0.66128 0.0
C649 C 0.14015 0.98122 0.67972 0.0
C650 C 0.07643 0.95918 0.58455 0.0
C651 C 0.11282 0.98025 0.62311 0.0
C652 C 0.06274 0.96102 0.55633 0.0
C653 C 0.07191 0.98301 0.53662 0.0
C654 C 0.09899 0.97979 0.59287 0.0
C655 C 0.09494 1.00264 0.5453 0.0
C656 C 0.12855 0.00549 0.63316 0.0
C657 C 0.12392 0.95633 0.66913 0.0
N658 N 0.10764 1.00066 0.57295 0.0
N659 N 0.11067 0.95648 0.64138 0.0
H660 H 0.87634 0.48469 0.79754 0.0
H661 H 0.89332 0.52117 0.97262 0.0
H662 H 0.83511 0.55884 0.83698 0.0
H663 H 0.93928 0.45363 0.92729 0.0
H664 H 0.86809 0.53348 0.92492 0.0
H665 H 0.89773 0.47253 0.846 0.0
C666 C 0.87224 0.49881 0.81639 0.0
C667 C 0.85407 0.52298 0.81307 0.0
C668 C 0.88333 0.51567 0.92557 0.0
C669 C 0.87814 0.50869 0.86934 0.0
C670 C 0.89731 0.50837 0.95281 0.0
C671 C 0.91799 0.48611 0.95377 0.0
C672 C 0.89029 0.50056 0.89934 0.0
C673 C 0.92318 0.47071 0.92745 0.0
C674 C 0.88429 0.49168 0.84422 0.0
C675 C 0.84936 0.54027 0.83844 0.0
N676 N 0.90956 0.47828 0.90139 0.0
N677 N 0.86116 0.53268 0.86562 0.0
H678 H 0.11835 0.06842 0.80322 0.0
H679 H 0.10096 0.00609 0.96892 0.0
H680 H 0.16137 0.99129 0.83541 0.0
H681 H 0.03462 0.05833 0.92579 0.0
H682 H 0.12842 0.00591 0.92218 0.0
H683 H 0.09166 0.07066 0.85049 0.0
C684 C 0.12221 0.05211 0.82021 0.0
C685 C 0.14181 0.02953 0.81538 0.0
C686 C 0.10792 0.01756 0.92306 0.0
C687 C 0.1122 0.03224 0.86927 0.0
C688 C 0.09245 0.01774 0.94969 0.0
C689 C 0.06565 0.03217 0.95093 0.0
C690 C 0.09675 0.03252 0.89797 0.0
C691 C 0.05522 0.04679 0.92545 0.0
C692 C 0.10701 0.05331 0.84705 0.0
C693 C 0.14609 0.00885 0.83807 0.0
N694 N 0.07086 0.04675 0.90002 0.0
N695 N 0.13157 0.01079 0.86403 0.0
H696 H 0.65447 0.83706 0.47445 0.0
H697 H 0.56274 0.95861 0.55651 0.0
H698 H 0.69271 0.89467 0.54275 0.0
H699 H 0.52328 0.89545 0.49443 0.0
H700 H 0.60864 0.93141 0.55742 0.0
H701 H 0.60533 0.85569 0.48447 0.0
C702 C 0.65261 0.85427 0.49095 0.0
C703 C 0.6778 0.86497 0.50719 0.0
C704 C 0.58967 0.92286 0.54434 0.0
C705 C 0.62148 0.88594 0.51939 0.0
C706 C 0.5632 0.93804 0.54438 0.0
C707 C 0.53906 0.92901 0.52567 0.0
C708 C 0.59207 0.89867 0.52511 0.0
C709 C 0.54124 0.90287 0.50949 0.0
C710 C 0.62448 0.86453 0.49708 0.0
C711 C 0.67391 0.88627 0.52933 0.0
N712 N 0.56745 0.88893 0.5091 0.0
N713 N 0.64637 0.89624 0.5346 0.0
H714 H 0.69472 0.11461 0.03882 0.0
H715 H 0.52622 0.12954 0.97835 0.0
H716 H 0.64908 0.19579 0.041 0.0
H717 H 0.56881 0.04727 0.99135 0.0
H718 H 0.57236 0.15523 0.99665 0.0
H719 H 0.64891 0.08968 0.01978 0.0
C720 C 0.67464 0.12688 0.03637 0.0
C721 C 0.67518 0.15694 0.04253 0.0
C722 C 0.57155 0.13155 0.99525 0.0
C723 C 0.62325 0.12923 0.01897 0.0
C724 C 0.54541 0.11698 0.98439 0.0
C725 C 0.54366 0.08629 0.98356 0.0
C726 C 0.59588 0.11519 0.00514 0.0
C727 C 0.56911 0.07099 0.99191 0.0
C728 C 0.64865 0.11285 0.02498 0.0
C729 C 0.64908 0.1723 0.03753 0.0
N730 N 0.59397 0.08553 0.00252 0.0
N731 N 0.62419 0.15834 0.02582 0.0
H732 H 0.30142 0.38877 0.98989 0.0
H733 H 0.47816 0.40848 0.01373 0.0
H734 H 0.34788 0.35038 0.0646 0.0
H735 H 0.4265 0.45096 0.9454 0.0
H736 H 0.43219 0.38443 0.03176 0.0
H737 H 0.34793 0.41085 0.9736 0.0
C738 C 0.32143 0.38547 0.00327 0.0
C739 C 0.32065 0.3678 0.02877 0.0
C740 C 0.43101 0.39864 0.01254 0.0
C741 C 0.37469 0.39268 0.00969 0.0
C742 C 0.45723 0.41196 0.00199 0.0
C743 C 0.45599 0.43121 0.97773 0.0
C744 C 0.40353 0.40477 0.99863 0.0
C745 C 0.42836 0.4359 0.96389 0.0
C746 C 0.34814 0.39792 0.99378 0.0
C747 C 0.3474 0.36416 0.04504 0.0
N748 N 0.40331 0.42283 0.97453 0.0
N749 N 0.37345 0.3763 0.03507 0.0
H750 H 0.81656 0.14646 0.96467 0.0
H751 H 0.95131 0.0885 0.06396 0.0
H752 H 0.82664 0.16668 0.05871 0.0
H753 H 0.95211 0.09488 0.96817 0.0
H754 H 0.90658 0.11803 0.0639 0.0
H755 H 0.86573 0.12511 0.96654 0.0
C756 C 0.82903 0.14632 0.98568 0.0
C757 C 0.81735 0.15825 0.01152 0.0
C758 C 0.91707 0.11365 0.04297 0.0
C759 C 0.87389 0.13449 0.01379 0.0
C760 C 0.9429 0.09734 0.04312 0.0
C761 C 0.95552 0.08973 0.01607 0.0
C762 C 0.90375 0.12172 0.01554 0.0
C763 C 0.94318 0.10072 0.98951 0.0
C764 C 0.8572 0.13438 0.98674 0.0
C765 C 0.83455 0.15743 0.03824 0.0
N766 N 0.91771 0.11566 0.98983 0.0
N767 N 0.86192 0.14579 0.03868 0.0
H768 H 0.08561 0.22674 0.21849 0.0
H769 H 1.00078 0.08342 0.15526 0.0
H770 H 0.00781 0.18863 0.25946 0.0
H771 H 0.04839 0.14277 0.09787 0.0
H772 H 0.00315 0.12123 0.19445 0.0
H773 H 0.07622 0.19317 0.1755 0.0
C774 C 0.06691 0.21118 0.21863 0.0
C775 C 0.04749 0.21054 0.24252 0.0
C776 C 0.01257 0.12618 0.17302 0.0
C777 C 0.03624 0.17292 0.19366 0.0
C778 C 0.01057 0.10482 0.15051 0.0
C779 C 0.02408 0.11013 0.12329 0.0
C780 C 0.02931 0.15235 0.16856 0.0
C781 C 0.03736 0.13801 0.11851 0.0
C782 C 0.06126 0.19242 0.194 0.0
C783 C 0.02335 0.19008 0.24148 0.0
N784 N 0.04048 0.15779 0.14121 0.0
N785 N 0.01843 0.17222 0.21755 0.0
H786 H 0.03396 0.30237 0.22079 0.0
H787 H 0.95685 0.44393 0.15677 0.0
H788 H 0.95662 0.33933 0.2589 0.0
H789 H 0.00837 0.3876 0.10269 0.0
H790 H 0.96809 0.41372 0.20034 0.0
H791 H 0.03354 0.33974 0.18222 0.0
C792 C 0.0166 0.31822 0.22076 0.0
C793 C 0.995 0.31766 0.2428 0.0
C794 C 0.97762 0.40845 0.17913 0.0
C795 C 0.99496 0.36085 0.19916 0.0
C796 C 0.97175 0.42597 0.15449 0.0
C797 C 0.98195 0.41818 0.12641 0.0
C798 C 0.99368 0.38303 0.17542 0.0
C799 C 1.00047 0.39437 0.12418 0.0
C800 C 0.01657 0.33961 0.19888 0.0
C801 C 0.97325 0.33876 0.24195 0.0
N802 N 0.00546 0.37727 0.14839 0.0
N803 N 0.97385 0.3597 0.22045 0.0
H804 H 0.97217 0.85555 0.21602 0.0
H805 H 0.00375 0.88975 0.38831 0.0
H806 H 0.008 0.79364 0.27842 0.0
H807 H 0.02789 0.95412 0.32259 0.0
H808 H 0.98746 0.85588 0.3483 0.0
H809 H 0.97622 0.8937 0.25547 0.0
C810 C 0.98003 0.84991 0.23825 0.0
C811 C 0.98916 0.82153 0.24451 0.0
C812 C 0.99524 0.87782 0.34266 0.0
C813 C 0.99371 0.8643 0.28895 0.0
C814 C 0.00403 0.89728 0.36541 0.0
C815 C 0.01621 0.92496 0.35857 0.0
C816 C 0.99818 0.88631 0.31288 0.0
C817 C 0.01778 0.93319 0.32856 0.0
C818 C 0.98262 0.87158 0.26047 0.0
C819 C 1.00021 0.81524 0.27313 0.0
N820 N 0.00885 0.91383 0.3066 0.0
N821 N 1.00203 0.83644 0.2944 0.0
H822 H 0.05275 0.66831 0.23093 0.0
H823 H 0.99432 0.64266 0.39602 0.0
H824 H 0.00809 0.73305 0.28161 0.0
H825 H 0.98435 0.57464 0.32933 0.0
H826 H 0.01797 0.6747 0.35935 0.0
H827 H 0.04433 0.63275 0.27154 0.0
C828 C 0.04192 0.6752 0.25094 0.0
C829 C 0.03146 0.70368 0.25327 0.0
C830 C 0.01179 0.65232 0.3531 0.0
C831 C 0.02216 0.66357 0.29955 0.0
C832 C 0.99896 0.63374 0.37424 0.0
C833 C 0.98809 0.60557 0.36603 0.0
C834 C 0.01438 0.64252 0.32358 0.0
C835 C 0.99322 0.59584 0.33686 0.0
C836 C 0.03695 0.65493 0.2739 0.0
C837 C 0.01681 0.71139 0.27921 0.0
N838 N 0.00573 0.61435 0.31657 0.0
N839 N 0.01274 0.69155 0.30138 0.0
H840 H 0.26735 0.04842 0.14688 0.0
H841 H 0.09803 0.00853 0.10959 0.0
H842 H 0.20146 0.02849 0.21213 0.0
H843 H 0.16021 0.03204 0.04231 0.0
H844 H 0.13866 1.00116 0.14474 0.0
H845 H 0.23072 0.03531 0.107 0.0
C846 C 0.24474 0.04248 0.15267 0.0
C847 C 0.23684 0.04093 0.18265 0.0
C848 C 0.1437 0.00701 0.122 0.0
C849 C 0.19555 0.0238 0.13753 0.0
C850 C 0.12031 0.00975 0.10121 0.0
C851 C 0.1257 0.02309 0.07365 0.0
C852 C 0.17252 0.01614 0.11415 0.0
C853 C 0.15514 0.02374 0.06425 0.0
C854 C 0.22411 0.0342 0.13003 0.0
C855 C 0.20791 0.03124 0.18919 0.0
N856 N 0.17768 0.02242 0.08501 0.0
N857 N 0.1883 0.02308 0.16684 0.0
H858 H 0.73272 0.48741 0.1616 0.0
H859 H 0.89977 0.50411 0.12816 0.0
H860 H 0.78415 0.55687 0.20615 0.0
H861 H 0.8345 0.47818 0.06029 0.0
H862 H 0.86034 0.5259 0.15705 0.0
H863 H 0.77143 0.48362 0.12492 0.0
C864 C 0.75209 0.50214 0.16339 0.0
C865 C 0.75526 0.52253 0.18683 0.0
C866 C 0.85489 0.51657 0.13523 0.0
C867 C 0.80007 0.51796 0.14517 0.0
C868 C 0.87747 0.50462 0.11849 0.0
C869 C 0.87043 0.48992 0.09148 0.0
C870 C 0.82516 0.513 0.12508 0.0
C871 C 0.84093 0.48991 0.08066 0.0
C872 C 0.77413 0.50008 0.14237 0.0
C873 C 0.78085 0.54103 0.1882 0.0
N874 N 0.8193 0.50052 0.0978 0.0
N875 N 0.80265 0.53793 0.16795 0.0
H876 H 0.25312 0.9501 0.32047 0.0
H877 H 0.1003 0.00931 0.37281 0.0
H878 H 0.2065 0.01431 0.26893 0.0
H879 H 0.16791 0.97943 0.43427 0.0
H880 H 0.13724 0.01232 0.33377 0.0
H881 H 0.21797 0.95643 0.36085 0.0
C882 C 0.23488 0.96473 0.31732 0.0
C883 C 0.23226 0.98137 0.29137 0.0
C884 C 0.14416 0.0059 0.35606 0.0
C885 C 0.19309 0.98971 0.33746 0.0
C886 C 0.12324 0.00486 0.37852 0.0
C887 C 0.13101 0.99353 0.40656 0.0
C888 C 0.17266 0.9953 0.3619 0.0
C889 C 0.16102 0.98788 0.41271 0.0
C890 C 0.21532 0.96891 0.34053 0.0
C891 C 0.20886 1.0008 0.28859 0.0
N892 N 0.18058 0.98782 0.39027 0.0
N893 N 0.19015 0.0045 0.31138 0.0
H894 H 0.72827 0.52058 0.33568 0.0
H895 H 0.88891 0.48965 0.39363 0.0
H896 H 0.77355 0.444 0.30769 0.0
H897 H 0.83495 0.55901 0.42475 0.0
H898 H 0.84411 0.46493 0.3715 0.0
H899 H 0.76253 0.52678 0.37747 0.0
C900 C 0.74508 0.50451 0.33887 0.0
C901 C 0.74805 0.48174 0.31826 0.0
C902 C 0.84197 0.48506 0.384 0.0
C903 C 0.7891 0.48977 0.36542 0.0
C904 C 0.86744 0.49904 0.39669 0.0
C905 C 0.86536 0.52649 0.41039 0.0
C906 C 0.81461 0.49883 0.38527 0.0
C907 C 0.83734 0.53803 0.41383 0.0
C908 C 0.76495 0.50818 0.36274 0.0
C909 C 0.77067 0.46191 0.32314 0.0
N910 N 0.8131 0.52433 0.40098 0.0
N911 N 0.791 0.46686 0.34591 0.0
H912 H 0.21888 0.217 0.04018 0.0
H913 H 0.04786 0.17496 0.04453 0.0
H914 H 0.15574 0.28138 0.0633 0.0
H915 H 0.10949 0.1282 0.99221 0.0
H916 H 0.08424 0.21579 0.04976 0.0
H917 H 0.17781 0.18286 0.026 0.0
C918 C 0.19626 0.22339 0.04356 0.0
C919 C 0.19061 0.25154 0.05402 0.0
C920 C 0.08947 0.19704 0.03624 0.0
C921 C 0.14343 0.2134 0.03602 0.0
C922 C 0.06831 0.17408 0.03242 0.0
C923 C 0.07598 0.14787 0.01853 0.0
C924 C 0.11825 0.1936 0.02583 0.0
C925 C 0.10283 0.14789 0.00344 0.0
C926 C 0.17283 0.20427 0.03463 0.0
C927 C 0.16093 0.2594 0.05647 0.0
N928 N 0.12359 0.16979 0.00859 0.0
N929 N 0.13836 0.24042 0.04751 0.0
H930 H 0.15127 0.73786 0.49649 0.0
H931 H 0.11714 0.9085 0.49125 0.0
H932 H 0.21847 0.80693 0.49178 0.0
H933 H 0.05397 0.84114 0.46115 0.0
H934 H 0.15096 0.87067 0.50785 0.0
H935 H 0.11281 0.77481 0.49648 0.0
C936 C 0.15778 0.76086 0.49496 0.0
C937 C 0.18779 0.76954 0.49304 0.0
C938 C 0.12921 0.86415 0.49866 0.0
C939 C 0.14435 0.81177 0.49455 0.0
C940 C 0.10949 0.88574 0.48999 0.0
C941 C 0.08268 0.87792 0.47475 0.0
C942 C 0.12165 0.83458 0.49265 0.0
C943 C 0.07433 0.84808 0.47297 0.0
C944 C 0.13595 0.78188 0.49533 0.0
C945 C 0.19539 0.79951 0.4923 0.0
N946 N 0.09401 0.82744 0.48111 0.0
N947 N 0.17378 0.81961 0.49302 0.0
H948 H 0.82625 0.76043 0.53305 0.0
H949 H 0.8621 0.61315 0.44861 0.0
H950 H 0.78552 0.73565 0.44786 0.0
H951 H 0.92939 0.66077 0.50118 0.0
H952 H 0.8272 0.65169 0.45821 0.0
H953 H 0.85846 0.7187 0.52998 0.0
C954 C 0.82415 0.74627 0.51358 0.0
C955 C 0.80315 0.75157 0.49056 0.0
C956 C 0.84932 0.65331 0.46835 0.0
C957 C 0.83971 0.7035 0.48738 0.0
C958 C 0.86902 0.6311 0.46344 0.0
C959 C 0.89842 0.63362 0.47464 0.0
C960 C 0.85893 0.67803 0.48503 0.0
C961 C 0.90673 0.6578 0.49271 0.0
C962 C 0.84257 0.72249 0.51194 0.0
C963 C 0.8015 0.73249 0.46595 0.0
N964 N 0.88702 0.67924 0.49734 0.0
N965 N 0.81942 0.7091 0.4651 0.0
H966 H 0.2852 0.79544 0.51427 0.0
H967 H 0.44111 0.85788 0.57161 0.0
H968 H 0.33265 0.75328 0.58606 0.0
H969 H 0.3975 0.88225 0.48928 0.0
H970 H 0.40737 0.81498 0.57461 0.0
H971 H 0.32876 0.82583 0.50481 0.0
C972 C 0.30471 0.79326 0.52871 0.0
C973 C 0.30528 0.77201 0.55114 0.0
C974 C 0.40598 0.82894 0.5552 0.0
C975 C 0.35593 0.80666 0.54005 0.0
C976 C 0.42574 0.85304 0.55304 0.0
C977 C 0.42153 0.87382 0.53042 0.0
C978 C 0.3824 0.82572 0.53425 0.0
C979 C 0.4012 0.86687 0.50721 0.0
C980 C 0.32986 0.81024 0.52289 0.0
C981 C 0.33122 0.76981 0.56891 0.0
N982 N 0.38173 0.84383 0.51016 0.0
N983 N 0.35571 0.78706 0.563 0.0
H984 H 0.53077 0.67856 0.77136 0.0
H985 H 0.52743 0.63814 0.59761 0.0
H986 H 0.57331 0.73378 0.70643 0.0
H987 H 0.51182 0.57497 0.66683 0.0
H988 H 0.53553 0.6765 0.63577 0.0
H989 H 0.51764 0.64274 0.73236 0.0
C990 C 0.5383 0.68261 0.74893 0.0
C991 C 0.55384 0.70882 0.74224 0.0
C992 C 0.52949 0.65441 0.64256 0.0
C993 C 0.53776 0.66822 0.69699 0.0
C994 C 0.52414 0.63261 0.62076 0.0
C995 C 0.51871 0.60328 0.62906 0.0
C996 C 0.52869 0.6469 0.67286 0.0
C997 C 0.51549 0.5973 0.65944 0.0
C998 C 0.53038 0.66234 0.72658 0.0
C999 C 0.56206 0.71348 0.71264 0.0
N1000 N 0.52079 0.61881 0.68021 0.0
N1001 N 0.55375 0.6934 0.69096 0.0
H1002 H 0.47028 0.79484 0.71049 0.0
H1003 H 0.50453 0.95341 0.65586 0.0
H1004 H 0.53003 0.85203 0.76249 0.0
H1005 H 0.49705 0.88115 0.59374 0.0
H1006 H 0.51409 0.91879 0.69631 0.0
H1007 H 0.47501 0.82887 0.66819 0.0
C1008 C 0.48365 0.8149 0.71321 0.0
C1009 C 0.49923 0.8211 0.74006 0.0
C1010 C 0.51136 0.91062 0.67364 0.0
C1011 C 0.50541 0.85929 0.69216 0.0
C1012 C 0.50667 0.93043 0.65051 0.0
C1013 C 0.50003 0.92 0.62161 0.0
C1014 C 0.50843 0.88042 0.66762 0.0
C1015 C 0.50225 0.88992 0.61586 0.0
C1016 C 0.48689 0.83391 0.68903 0.0
C1017 C 0.51713 0.84688 0.7423 0.0
N1018 N 0.50507 0.87096 0.63887 0.0
N1019 N 0.51958 0.86517 0.71875 0.0
H1020 H 0.57445 0.35075 0.72738 0.0
H1021 H 0.47344 0.40248 0.86033 0.0
H1022 H 0.50944 0.29812 0.77382 0.0
H1023 H 0.55466 0.44984 0.84031 0.0
H1024 H 0.47895 0.37231 0.81602 0.0
H1025 H 0.56431 0.39243 0.76078 0.0
C1026 C 0.55875 0.34777 0.74507 0.0
C1027 C 0.54291 0.32101 0.74813 0.0
C1028 C 0.49522 0.38986 0.82075 0.0
C1029 C 0.52998 0.36847 0.78466 0.0
C1030 C 0.4915 0.40772 0.84557 0.0
C1031 C 0.51389 0.42824 0.85431 0.0
C1032 C 0.52155 0.3926 0.80467 0.0
C1033 C 0.53703 0.43393 0.83444 0.0
C1034 C 0.55251 0.37161 0.76362 0.0
C1035 C 0.52219 0.3184 0.7708 0.0
N1036 N 0.54101 0.41538 0.81109 0.0
N1037 N 0.51615 0.34181 0.78789 0.0
H1038 H 0.46321 0.17306 0.72853 0.0
H1039 H 0.49567 0.13549 0.89506 0.0
H1040 H 0.52379 0.22881 0.78105 0.0
H1041 H 0.4798 0.06832 0.82833 0.0
H1042 H 0.50915 0.1701 0.85575 0.0
H1043 H 0.46717 0.13507 0.76697 0.0
C1044 C 0.47685 0.17742 0.74846 0.0
C1045 C 0.49279 0.20409 0.75206 0.0
C1046 C 0.50382 0.14748 0.84979 0.0
C1047 C 0.49793 0.1609 0.79565 0.0
C1048 C 0.49696 0.12744 0.87236 0.0
C1049 C 0.48599 0.09913 0.86486 0.0
C1050 C 0.49957 0.13887 0.81978 0.0
C1051 C 0.48784 0.09007 0.835 0.0
C1052 C 0.47958 0.15565 0.77009 0.0
C1053 C 0.51091 0.20852 0.7778 0.0
N1054 N 0.49299 0.11019 0.81335 0.0
N1055 N 0.51273 0.18728 0.79886 0.0
H1056 H 0.75666 0.56681 0.65427 0.0
H1057 H 0.60106 0.49946 0.59943 0.0
H1058 H 0.70813 0.50129 0.70385 0.0
H1059 H 0.65957 0.54726 0.542 0.0
H1060 H 0.64256 0.49203 0.63432 0.0
H1061 H 0.72187 0.55799 0.61162 0.0
C1062 C 0.73813 0.55127 0.65642 0.0
C1063 C 0.73468 0.5353 0.68272 0.0
C1064 C 0.64671 0.50348 0.61367 0.0
C1065 C 0.69585 0.52398 0.63389 0.0
C1066 C 0.62313 0.50687 0.59313 0.0
C1067 C 0.62657 0.52674 0.56962 0.0
C1068 C 0.67396 0.5185 0.60894 0.0
C1069 C 0.65575 0.5338 0.56143 0.0
C1070 C 0.71876 0.54565 0.63191 0.0
C1071 C 0.71107 0.51448 0.68407 0.0
N1072 N 0.67823 0.5316 0.58209 0.0
N1073 N 0.6925 0.50949 0.66008 0.0
H1074 H 0.26979 0.06789 0.6895 0.0
H1075 H 0.34223 0.96734 0.5674 0.0
H1076 H 0.25236 0.97477 0.67912 0.0
H1077 H 0.39848 0.0269 0.62012 0.0
H1078 H 0.29914 0.98395 0.59372 0.0
H1079 H 0.30792 0.06508 0.65102 0.0
C1080 C 0.27382 0.04698 0.67916 0.0
C1081 C 0.25807 0.02149 0.68795 0.0
C1082 C 0.3207 0.99448 0.59849 0.0
C1083 C 0.30074 0.01844 0.64359 0.0
C1084 C 0.34528 0.98555 0.58296 0.0
C1085 C 0.37407 0.99597 0.59131 0.0
C1086 C 0.3247 0.01481 0.62192 0.0
C1087 C 0.3767 0.01862 0.61265 0.0
C1088 C 0.29548 0.04545 0.65724 0.0
C1089 C 0.26402 0.99502 0.67343 0.0
N1090 N 0.35237 0.02698 0.62766 0.0
N1091 N 0.28475 0.99422 0.65205 0.0
H1092 H 0.70694 0.50174 0.76209 0.0
H1093 H 0.65392 0.46856 0.92711 0.0
H1094 H 0.7601 0.45629 0.82708 0.0
H1095 H 0.59923 0.50659 0.85829 0.0
H1096 H 0.69656 0.47236 0.89437 0.0
H1097 H 0.66928 0.5085 0.79918 0.0
C1098 C 0.71007 0.49224 0.78402 0.0
C1099 C 0.73601 0.47755 0.7914 0.0
C1100 C 0.67547 0.48071 0.88676 0.0
C1101 C 0.69375 0.48639 0.83449 0.0
C1102 C 0.65136 0.47921 0.90568 0.0
C1103 C 0.62327 0.48751 0.89527 0.0
C1104 C 0.6711 0.4904 0.85733 0.0
C1105 C 0.62071 0.5003 0.86711 0.0
C1106 C 0.68889 0.49661 0.80537 0.0
C1107 C 0.73981 0.46679 0.82038 0.0
N1108 N 0.64421 0.50087 0.84885 0.0
N1109 N 0.71882 0.47146 0.84103 0.0
H1110 H 0.26755 0.93969 0.81158 0.0
H1111 H 0.33885 0.05194 0.93161 0.0
H1112 H 0.23146 0.02223 0.83674 0.0
H1113 H 0.38465 0.97841 0.89718 0.0
H1114 H 0.29235 0.0318 0.90949 0.0
H1115 H 0.3035 0.94472 0.85393 0.0
C1116 C 0.26685 0.95851 0.82631 0.0
C1117 C 0.24716 0.98092 0.82027 0.0
C1118 C 0.31227 0.01936 0.9077 0.0
C1119 C 0.28769 0.98675 0.86849 0.0
C1120 C 0.33871 0.03063 0.92081 0.0
C1121 C 0.36538 0.01653 0.91645 0.0
C1122 C 0.3127 0.99402 0.88978 0.0
C1123 C 0.36435 0.98961 0.90131 0.0
C1124 C 0.28731 0.96142 0.85039 0.0
C1125 C 0.24688 0.00478 0.84015 0.0
N1126 N 0.33849 0.97945 0.88795 0.0
N1127 N 0.26705 0.00724 0.86308 0.0
H1128 H 0.70851 0.72979 0.50666 0.0
H1129 H 0.55024 0.67618 0.56363 0.0
H1130 H 0.6665 0.76902 0.58157 0.0
H1131 H 0.59729 0.6324 0.49506 0.0
H1132 H 0.58699 0.71673 0.56291 0.0
H1133 H 0.66482 0.69792 0.49791 0.0
C1134 C 0.69022 0.73114 0.52177 0.0
C1135 C 0.6912 0.7518 0.54513 0.0
C1136 C 0.58881 0.69872 0.54734 0.0
C1137 C 0.64055 0.71577 0.53468 0.0
C1138 C 0.56738 0.67593 0.54715 0.0
C1139 C 0.57109 0.65077 0.5297 0.0
C1140 C 0.61386 0.69624 0.52975 0.0
C1141 C 0.59371 0.65139 0.50892 0.0
C1142 C 0.6651 0.71322 0.51647 0.0
C1143 C 0.66681 0.75298 0.56373 0.0
N1144 N 0.61484 0.67336 0.51014 0.0
N1145 N 0.64231 0.7352 0.55804 0.0
H1146 H 0.72222 0.3029 0.02289 0.0
H1147 H 0.56139 0.35411 0.97027 0.0
H1148 H 0.65806 0.24814 0.97368 0.0
H1149 H 0.6352 0.41442 0.98879 0.0
H1150 H 0.59191 0.31368 0.98686 0.0
H1151 H 0.687 0.34266 0.0223 0.0
C1152 C 0.70075 0.29948 0.01163 0.0
C1153 C 0.69317 0.27269 0.99756 0.0
C1154 C 0.6011 0.33589 0.98836 0.0
C1155 C 0.65236 0.31736 0.99805 0.0
C1156 C 0.58341 0.3591 0.97975 0.0
C1157 C 0.59585 0.38764 0.97811 0.0
C1158 C 0.6312 0.3415 0.99596 0.0
C1159 C 0.62475 0.39275 0.98985 0.0
C1160 C 0.68061 0.32198 0.0116 0.0
C1161 C 0.66493 0.26888 0.98396 0.0
N1162 N 0.64174 0.36981 0.99764 0.0
N1163 N 0.64544 0.29101 0.98459 0.0
H1164 H 0.30749 0.25866 0.94395 0.0
H1165 H 0.38437 0.11697 0.00428 0.0
H1166 H 0.29977 0.23377 0.03625 0.0
H1167 H 0.41973 0.16999 0.93347 0.0
H1168 H 0.35218 0.15742 0.01758 0.0
H1169 H 0.3458 0.22232 0.93852 0.0
C1170 C 0.31368 0.24541 0.96295 0.0
C1171 C 0.30049 0.24927 0.99053 0.0
C1172 C 0.36757 0.16036 0.99962 0.0
C1173 C 0.34429 0.20784 0.98463 0.0
C1174 C 0.38619 0.1375 0.99237 0.0
C1175 C 0.40458 0.14027 0.96775 0.0
C1176 C 0.36719 0.18558 0.98166 0.0
C1177 C 0.40573 0.16705 0.95256 0.0
C1178 C 0.33574 0.22492 0.95999 0.0
C1179 C 0.3095 0.23159 0.01457 0.0
N1180 N 0.38685 0.18841 0.95933 0.0
N1181 N 0.33072 0.2115 0.01104 0.0
H1182 H 0.78228 0.29939 0.02417 0.0
H1183 H 0.94491 0.35761 0.05558 0.0
H1184 H 0.84071 0.24759 0.07835 0.0
H1185 H 0.89309 0.37786 0.97676 0.0
H1186 H 0.9118 0.31498 0.06397 0.0
H1187 H 0.82446 0.33043 0.01018 0.0
C1188 C 0.80401 0.29525 0.03395 0.0
C1189 C 0.80805 0.27134 0.05283 0.0
C1190 C 0.9084 0.32804 0.04415 0.0
C1191 C 0.85686 0.30593 0.03581 0.0
C1192 C 0.92779 0.35195 0.03884 0.0
C1193 C 0.92096 0.37181 0.016 0.0
C1194 C 0.88262 0.32414 0.02608 0.0
C1195 C 0.89867 0.36341 0.995 0.0
C1196 C 0.82822 0.31248 0.02536 0.0
C1197 C 0.83672 0.26634 0.0643 0.0
N1198 N 0.87944 0.34091 0.00122 0.0
N1199 N 0.86025 0.28357 0.05557 0.0
loop_
_geom_bond_atom_site_label_1
_geom_bond_atom_site_label_2
_geom_bond_distance
_geom_bond_site_symmetry_2
_ccdc_geom_bond_type
C0 O2 1.247 . S
C0 O4 1.258 . S
C1 O8 1.247 . S
C1 O9 1.258 . S
O2 C0 1.247 . S
O2 Zn3 2.028 . S
Zn3 O2 2.028 . S
Zn3 O7 2.035 . S
Zn3 O9 2.035 . S
Zn3 O10 2.028 . S
O4 C0 1.258 . S
O4 Zn5 2.041 . S
Zn5 O4 2.041 . S
Zn5 O6 2.028 . S
Zn5 O8 2.028 . S
Zn5 O11 2.040 . S
O6 Zn5 2.028 . S
O6 C12 1.247 . S
O7 Zn3 2.035 . S
O7 C12 1.258 . S
O8 C1 1.247 . S
O8 Zn5 2.028 . S
O9 C1 1.258 . S
O9 Zn3 2.035 . S
O10 Zn3 2.028 . S
O10 C13 1.247 . S
O11 Zn5 2.040 . S
O11 C13 1.258 . S
C12 O6 1.247 . S
C12 O7 1.258 . S
C13 O10 1.247 . S
C13 O11 1.258 . S
C14 O16 1.247 . S
C14 O18 1.258 1_455 S
C15 O22 1.247 1_455 S
C15 O23 1.258 . S
O16 C14 1.247 . S
O16 Zn17 2.028 . S
Zn17 O16 2.028 . S
Zn17 O21 2.035 . S
Zn17 O23 2.035 . S
Zn17 O24 2.028 . S
O18 C14 1.258 1_655 S
O18 Zn19 2.035 . S
Zn19 O18 2.035 . S
Zn19 O20 2.028 . S
Zn19 O22 2.028 . S
Zn19 O25 2.035 . S
O20 Zn19 2.028 . S
O20 C26 1.247 1_655 S
O21 Zn17 2.035 . S
O21 C26 1.258 . S
O22 C15 1.247 1_655 S
O22 Zn19 2.028 . S
O23 C15 1.258 . S
O23 Zn17 2.035 . S
O24 Zn17 2.028 . S
O24 C27 1.247 . S
O25 Zn19 2.035 . S
O25 C27 1.258 1_655 S
C26 O20 1.247 1_455 S
C26 O21 1.258 . S
C27 O24 1.247 . S
C27 O25 1.258 1_455 S
C28 O30 1.247 1_545 S
C28 O32 1.258 . S
C29 O36 1.247 1_565 S
C29 O37 1.258 . S
O30 C28 1.247 1_565 S
O30 Zn31 2.028 . S
Zn31 O30 2.028 . S
Zn31 O35 2.035 . S
Zn31 O37 2.035 . S
Zn31 O38 2.028 . S
O32 C28 1.258 . S
O32 Zn33 2.035 . S
Zn33 O32 2.035 . S
Zn33 O34 2.028 . S
Zn33 O36 2.028 . S
Zn33 O39 2.035 . S
O34 Zn33 2.028 . S
O34 C40 1.247 1_545 S
O35 Zn31 2.035 . S
O35 C40 1.258 . S
O36 C29 1.247 1_545 S
O36 Zn33 2.028 . S
O37 C29 1.258 . S
O37 Zn31 2.035 . S
O38 Zn31 2.028 . S
O38 C41 1.247 1_565 S
O39 Zn33 2.035 . S
O39 C41 1.258 . S
C40 O34 1.247 1_565 S
C40 O35 1.258 . S
C41 O38 1.247 1_545 S
C41 O39 1.258 . S
C42 O44 1.247 . S
C42 O46 1.258 . S
C43 O50 1.247 . S
C43 O51 1.258 . S
O44 C42 1.247 . S
O44 Zn45 2.028 . S
Zn45 O44 2.028 . S
Zn45 O49 2.035 . S
Zn45 O51 2.035 . S
Zn45 O52 2.028 . S
O46 C42 1.258 . S
O46 Zn47 2.035 . S
Zn47 O46 2.035 . S
Zn47 O48 2.028 . S
Zn47 O50 2.028 . S
Zn47 O53 2.035 . S
O48 Zn47 2.028 . S
O48 C54 1.247 . S
O49 Zn45 2.035 . S
O49 C54 1.258 . S
O50 C43 1.247 . S
O50 Zn47 2.028 . S
O51 C43 1.258 . S
O51 Zn45 2.035 . S
O52 Zn45 2.028 . S
O52 C55 1.247 . S
O53 Zn47 2.035 . S
O53 C55 1.258 . S
C54 O48 1.247 . S
C54 O49 1.258 . S
C55 O52 1.247 . S
C55 O53 1.258 . S
C56 O58 1.247 . S
C56 O60 1.258 . S
C57 O64 1.247 . S
C57 O65 1.258 1_554 S
O58 C56 1.247 . S
O58 Zn59 2.028 1_554 S
Zn59 O58 2.028 1_556 S
Zn59 O63 2.035 . S
Zn59 O65 2.035 . S
Zn59 O66 2.028 1_556 S
O60 C56 1.258 . S
O60 Zn61 2.035 . S
Zn61 O60 2.035 . S
Zn61 O62 2.028 . S
Zn61 O64 2.028 . S
Zn61 O67 2.035 . S
O62 Zn61 2.028 . S
O62 C68 1.247 . S
O63 Zn59 2.035 . S
O63 C68 1.258 1_556 S
O64 C57 1.247 . S
O64 Zn61 2.028 . S
O65 C57 1.258 1_556 S
O65 Zn59 2.035 . S
O66 Zn59 2.028 1_554 S
O66 C69 1.247 . S
O67 Zn61 2.035 . S
O67 C69 1.258 . S
C68 O62 1.247 . S
C68 O63 1.258 1_554 S
C69 O66 1.247 . S
C69 O67 1.258 . S
C70 O72 1.247 . S
C70 O74 1.258 . S
C71 O78 1.247 . S
C71 O79 1.258 . S
O72 C70 1.247 . S
O72 Zn73 2.028 . S
Zn73 O72 2.028 . S
Zn73 O77 2.035 . S
Zn73 O79 2.035 . S
Zn73 O80 2.028 . S
O74 C70 1.258 . S
O74 Zn75 2.035 . S
Zn75 O74 2.035 . S
Zn75 O76 2.028 . S
Zn75 O78 2.028 . S
Zn75 O81 2.035 . S
O76 Zn75 2.028 . S
O76 C82 1.247 . S
O77 Zn73 2.035 . S
O77 C82 1.258 . S
O78 C71 1.247 . S
O78 Zn75 2.028 . S
O79 C71 1.258 . S
O79 Zn73 2.035 . S
O80 Zn73 2.028 . S
O80 C83 1.247 . S
O81 Zn75 2.035 . S
O81 C83 1.258 . S
C82 O76 1.247 . S
C82 O77 1.258 . S
C83 O80 1.247 . S
C83 O81 1.258 . S
C84 O86 1.247 . S
C84 O88 1.258 . S
C85 O92 1.247 . S
C85 O93 1.258 . S
O86 C84 1.247 . S
O86 Zn87 2.028 . S
Zn87 O86 2.028 . S
Zn87 O91 2.035 . S
Zn87 O93 2.035 . S
Zn87 O94 2.028 . S
O88 C84 1.258 . S
O88 Zn89 2.035 . S
Zn89 O88 2.035 . S
Zn89 O90 2.028 . S
Zn89 O92 2.028 . S
Zn89 O95 2.035 . S
O90 Zn89 2.028 . S
O90 C96 1.247 . S
O91 Zn87 2.035 . S
O91 C96 1.258 . S
O92 C85 1.247 . S
O92 Zn89 2.028 . S
O93 C85 1.258 . S
O93 Zn87 2.035 . S
O94 Zn87 2.028 . S
O94 C97 1.247 . S
O95 Zn89 2.035 . S
O95 C97 1.258 . S
C96 O90 1.247 . S
C96 O91 1.258 . S
C97 O94 1.247 . S
C97 O95 1.258 . S
C98 O100 1.247 . S
C98 O102 1.258 . S
C99 O106 1.247 . S
C99 O107 1.258 . S
O100 C98 1.247 . S
O100 Zn101 2.028 . S
Zn101 O100 2.028 . S
Zn101 O105 2.035 . S
Zn101 O107 2.035 . S
Zn101 O108 2.028 . S
O102 C98 1.258 . S
O102 Zn103 2.035 . S
Zn103 O102 2.035 . S
Zn103 O104 2.028 . S
Zn103 O106 2.028 . S
Zn103 O109 2.035 . S
O104 Zn103 2.028 . S
O104 C110 1.247 . S
O105 Zn101 2.035 . S
O105 C110 1.258 . S
O106 C99 1.247 . S
O106 Zn103 2.028 . S
O107 C99 1.258 . S
O107 Zn101 2.035 . S
O108 Zn101 2.028 . S
O108 C111 1.247 . S
O109 Zn103 2.035 . S
O109 C111 1.258 . S
C110 O104 1.247 . S
C110 O105 1.258 . S
C111 O108 1.247 . S
C111 O109 1.258 . S
C112 O114 1.247 . S
C112 O116 1.258 . S
C113 O120 1.247 . S
C113 O121 1.258 . S
O114 C112 1.247 . S
O114 Zn115 2.028 . S
Zn115 O114 2.028 . S
Zn115 O119 2.035 . S
Zn115 O121 2.035 . S
Zn115 O122 2.028 . S
O116 C112 1.258 . S
O116 Zn117 2.035 . S
Zn117 O116 2.035 . S
Zn117 O118 2.028 . S
Zn117 O120 2.028 . S
Zn117 O123 2.035 . S
O118 Zn117 2.028 . S
O118 C124 1.247 . S
O119 Zn115 2.035 . S
O119 C124 1.258 . S
O120 C113 1.247 . S
O120 Zn117 2.028 . S
O121 C113 1.258 . S
O121 Zn115 2.035 . S
O122 Zn115 2.028 . S
O122 C125 1.247 . S
O123 Zn117 2.035 . S
O123 C125 1.258 . S
C124 O118 1.247 . S
C124 O119 1.258 . S
C125 O122 1.247 . S
C125 O123 1.258 . S
C126 O128 1.247 . S
C126 O130 1.258 . S
C127 O134 1.247 . S
C127 O135 1.258 . S
O128 C126 1.247 . S
O128 Zn129 2.028 . S
Zn129 O128 2.028 . S
Zn129 O133 2.035 . S
Zn129 O135 2.035 . S
Zn129 O136 2.028 . S
O130 C126 1.258 . S
O130 Zn131 2.035 . S
Zn131 O130 2.035 . S
Zn131 O132 2.028 . S
Zn131 O134 2.028 . S
Zn131 O137 2.035 . S
O132 Zn131 2.028 . S
O132 C138 1.247 . S
O133 Zn129 2.035 . S
O133 C138 1.258 . S
O134 C127 1.247 . S
O134 Zn131 2.028 . S
O135 C127 1.258 . S
O135 Zn129 2.035 . S
O136 Zn129 2.028 . S
O136 C139 1.247 . S
O137 Zn131 2.035 . S
O137 C139 1.258 . S
C138 O132 1.247 . S
C138 O133 1.258 . S
C139 O136 1.247 . S
C139 O137 1.258 . S
C140 O142 1.247 . S
C140 O144 1.258 1_565 S
C141 O148 1.247 . S
C141 O149 1.258 1_545 S
O142 C140 1.247 . S
O142 Zn143 2.028 . S
Zn143 O142 2.028 . S
Zn143 O147 2.035 . S
Zn143 O149 2.035 . S
Zn143 O150 2.028 . S
O144 C140 1.258 1_545 S
O144 Zn145 2.035 . S
Zn145 O144 2.035 . S
Zn145 O146 2.028 . S
Zn145 O148 2.028 . S
Zn145 O151 2.035 . S
O146 Zn145 2.028 . S
O146 C152 1.247 . S
O147 Zn143 2.035 . S
O147 C152 1.258 1_565 S
O148 C141 1.247 . S
O148 Zn145 2.028 . S
O149 C141 1.258 1_565 S
O149 Zn143 2.035 . S
O150 Zn143 2.028 . S
O150 C153 1.247 . S
O151 Zn145 2.035 . S
O151 C153 1.258 1_545 S
C152 O146 1.247 . S
C152 O147 1.258 1_545 S
C153 O150 1.247 . S
C153 O151 1.258 1_565 S
C154 O156 1.247 . S
C154 O158 1.258 1_554 S
C155 O162 1.247 . S
C155 O163 1.258 . S
O156 C154 1.247 . S
O156 Zn157 2.028 . S
Zn157 O156 2.028 . S
Zn157 O161 2.035 . S
Zn157 O163 2.035 . S
Zn157 O164 2.028 . S
O158 C154 1.258 1_556 S
O158 Zn159 2.035 . S
Zn159 O158 2.035 . S
Zn159 O160 2.028 1_556 S
Zn159 O162 2.028 1_556 S
Zn159 O165 2.035 . S
O160 Zn159 2.028 1_554 S
O160 C166 1.247 . S
O161 Zn157 2.035 . S
O161 C166 1.258 . S
O162 C155 1.247 . S
O162 Zn159 2.028 1_554 S
O163 C155 1.258 . S
O163 Zn157 2.035 . S
O164 Zn157 2.028 . S
O164 C167 1.247 . S
O165 Zn159 2.035 . S
O165 C167 1.258 1_556 S
C166 O160 1.247 . S
C166 O161 1.258 . S
C167 O164 1.247 . S
C167 O165 1.258 1_554 S
O168 Mn169 2.163 . S
O168 C182 1.244 . S
Mn169 O168 2.163 . S
Mn169 O172 2.130 1_554 S
Mn169 O173 2.218 1_455 S
Mn169 O175 2.163 . S
Mn169 O177 2.160 . S
Mn169 O187 2.221 . S
O170 Mn171 2.087 . S
O170 C182 1.256 . S
Mn171 O170 2.087 . S
Mn171 O178 2.089 . S
Mn171 O187 2.290 . S
Mn171 O188 2.251 . S
O172 Mn169 2.130 1_556 S
O172 C183 1.262 . S
O173 Mn169 2.218 1_655 S
O173 Mn174 2.291 1_554 S
O173 C184 1.281 . S
Mn174 O173 2.291 1_556 S
Mn174 O176 2.089 1_655 S
Mn174 O179 2.251 1_556 S
Mn174 O180 2.087 1_546 S
O175 Mn169 2.163 . S
O175 C185 1.244 1_545 S
O176 Mn174 2.089 1_455 S
O176 C183 1.256 . S
O177 Mn169 2.160 . S
O177 C186 1.239 . S
O178 Mn171 2.089 . S
O178 C186 1.256 . S
O179 Mn174 2.251 1_554 S
O179 C184 1.241 . S
O180 Mn174 2.087 1_564 S
O180 C185 1.256 1_655 S
C181 O187 1.278 . S
C181 O188 1.241 . S
C182 O168 1.244 . S
C182 O170 1.256 . S
C183 O172 1.262 . S
C183 O176 1.256 . S
C184 O173 1.281 . S
C184 O179 1.241 . S
C185 O175 1.244 1_565 S
C185 O180 1.256 1_455 S
C186 O177 1.239 . S
C186 O178 1.256 . S
O187 Mn169 2.221 . S
O187 Mn171 2.290 . S
O187 C181 1.278 . S
O188 Mn171 2.251 . S
O188 C181 1.241 . S
O189 Mn190 2.163 . S
O189 C203 1.244 . S
Mn190 O189 2.163 . S
Mn190 O193 2.160 . S
Mn190 O194 2.221 . S
Mn190 O196 2.163 . S
Mn190 O198 2.160 . S
Mn190 O208 2.221 . S
O191 Mn192 2.087 . S
O191 C203 1.256 . S
Mn192 O191 2.087 . S
Mn192 O199 2.089 . S
Mn192 O208 2.290 . S
Mn192 O209 2.251 . S
O193 Mn190 2.160 . S
O193 C204 1.239 1_554 S
O194 Mn190 2.221 . S
O194 Mn195 2.290 1_654 S
O194 C205 1.278 1_655 S
Mn195 O194 2.290 1_456 S
Mn195 O197 2.089 1_455 S
Mn195 O200 2.251 1_556 S
Mn195 O201 2.086 1_456 S
O196 Mn190 2.163 . S
O196 C206 1.244 . S
O197 Mn195 2.089 1_655 S
O197 C204 1.256 . S
O198 Mn190 2.160 . S
O198 C207 1.239 . S
O199 Mn192 2.089 . S
O199 C207 1.256 . S
O200 Mn195 2.251 1_554 S
O200 C205 1.241 . S
O201 Mn195 2.086 1_654 S
O201 C206 1.269 . S
C202 O208 1.278 . S
C202 O209 1.241 . S
C203 O189 1.244 . S
C203 O191 1.256 . S
C204 O193 1.239 1_556 S
C204 O197 1.256 . S
C205 O194 1.278 1_455 S
C205 O200 1.241 . S
C206 O196 1.244 . S
C206 O201 1.269 . S
C207 O198 1.239 . S
C207 O199 1.256 . S
O208 Mn190 2.221 . S
O208 Mn192 2.290 . S
O208 C202 1.278 . S
O209 Mn192 2.251 . S
O209 C202 1.241 . S
O210 Mn211 2.163 . S
O210 C224 1.244 . S
Mn211 O210 2.163 . S
Mn211 O214 2.160 . S
Mn211 O215 2.221 . S
Mn211 O217 2.163 . S
Mn211 O219 2.160 . S
Mn211 O229 2.221 . S
O212 Mn213 2.087 . S
O212 C224 1.256 . S
Mn213 O212 2.087 . S
Mn213 O220 2.089 . S
Mn213 O229 2.290 . S
Mn213 O230 2.251 . S
O214 Mn211 2.160 . S
O214 C225 1.239 1_455 S
O215 Mn211 2.221 . S
O215 Mn216 2.290 1_565 S
O215 C226 1.278 1_565 S
Mn216 O215 2.290 1_545 S
Mn216 O218 2.089 1_445 S
Mn216 O221 2.251 . S
Mn216 O222 2.087 . S
O217 Mn211 2.163 . S
O217 C227 1.244 . S
O218 Mn216 2.089 1_665 S
O218 C225 1.256 . S
O219 Mn211 2.160 . S
O219 C228 1.239 . S
O220 Mn213 2.089 . S
O220 C228 1.256 . S
O221 Mn216 2.251 . S
O221 C226 1.241 . S
O222 Mn216 2.087 . S
O222 C227 1.256 1_545 S
C223 O229 1.278 . S
C223 O230 1.241 . S
C224 O210 1.244 . S
C224 O212 1.256 . S
C225 O214 1.239 1_655 S
C225 O218 1.256 . S
C226 O215 1.278 1_545 S
C226 O221 1.241 . S
C227 O217 1.244 . S
C227 O222 1.256 1_565 S
C228 O219 1.239 . S
C228 O220 1.256 . S
O229 Mn211 2.221 . S
O229 Mn213 2.290 . S
O229 C223 1.278 . S
O230 Mn213 2.251 . S
O230 C223 1.241 . S
O231 Mn232 2.163 . S
O231 C245 1.244 . S
Mn232 O231 2.163 . S
Mn232 O235 2.160 . S
Mn232 O236 2.221 . S
Mn232 O238 2.163 . S
Mn232 O240 2.160 . S
Mn232 O250 2.221 . S
O233 Mn234 2.087 . S
O233 C245 1.256 . S
Mn234 O233 2.087 . S
Mn234 O241 2.089 . S
Mn234 O250 2.290 . S
Mn234 O251 2.251 . S
O235 Mn232 2.160 . S
O235 C246 1.239 . S
O236 Mn232 2.221 . S
O236 Mn237 2.290 . S
O236 C247 1.278 . S
Mn237 O236 2.290 . S
Mn237 O239 2.089 . S
Mn237 O242 2.251 . S
Mn237 O243 2.087 1_655 S
O238 Mn232 2.163 . S
O238 C248 1.244 1_655 S
O239 Mn237 2.089 . S
O239 C246 1.256 . S
O240 Mn232 2.160 . S
O240 C249 1.239 . S
O241 Mn234 2.089 . S
O241 C249 1.256 . S
O242 Mn237 2.251 . S
O242 C247 1.241 . S
O243 Mn237 2.087 1_455 S
O243 C248 1.256 . S
C244 O250 1.278 . S
C244 O251 1.241 . S
C245 O231 1.244 . S
C245 O233 1.256 . S
C246 O235 1.239 . S
C246 O239 1.256 . S
C247 O236 1.278 . S
C247 O242 1.241 . S
C248 O238 1.244 1_455 S
C248 O243 1.256 . S
C249 O240 1.239 . S
C249 O241 1.256 . S
O250 Mn232 2.221 . S
O250 Mn234 2.290 . S
O250 C244 1.278 . S
O251 Mn234 2.251 . S
O251 C244 1.241 . S
O252 Mn253 2.163 . S
O252 C266 1.244 . S
Mn253 O252 2.163 . S
Mn253 O256 2.160 . S
Mn253 O257 2.221 . S
Mn253 O259 2.163 . S
Mn253 O261 2.160 . S
Mn253 O271 2.221 . S
O254 Mn255 2.087 . S
O254 C266 1.256 . S
Mn255 O254 2.087 . S
Mn255 O262 2.089 . S
Mn255 O271 2.290 . S
Mn255 O272 2.251 . S
O256 Mn253 2.160 . S
O256 C267 1.239 . S
O257 Mn253 2.221 . S
O257 Mn258 2.290 . S
O257 C268 1.278 . S
Mn258 O257 2.290 . S
Mn258 O260 2.089 1_565 S
Mn258 O263 2.251 . S
Mn258 O264 2.087 1_565 S
O259 Mn253 2.163 . S
O259 C269 1.244 1_565 S
O260 Mn258 2.089 1_545 S
O260 C267 1.256 1_545 S
O261 Mn253 2.160 . S
O261 C270 1.239 . S
O262 Mn255 2.089 . S
O262 C270 1.256 . S
O263 Mn258 2.251 . S
O263 C268 1.241 . S
O264 Mn258 2.087 1_545 S
O264 C269 1.256 . S
C265 O271 1.278 . S
C265 O272 1.241 . S
C266 O252 1.244 . S
C266 O254 1.256 . S
C267 O256 1.239 . S
C267 O260 1.256 1_565 S
C268 O257 1.278 . S
C268 O263 1.241 . S
C269 O259 1.244 1_545 S
C269 O264 1.256 . S
C270 O261 1.239 . S
C270 O262 1.256 . S
O271 Mn253 2.221 . S
O271 Mn255 2.290 . S
O271 C265 1.278 . S
O272 Mn255 2.251 . S
O272 C265 1.241 . S
O273 Mn274 2.163 . S
O273 C287 1.244 . S
Mn274 O273 2.163 . S
Mn274 O277 2.160 . S
Mn274 O278 2.221 . S
Mn274 O280 2.163 . S
Mn274 O282 2.160 . S
Mn274 O292 2.221 . S
O275 Mn276 2.087 . S
O275 C287 1.256 . S
Mn276 O275 2.087 . S
Mn276 O283 2.089 . S
Mn276 O292 2.290 . S
Mn276 O293 2.251 . S
O277 Mn274 2.160 . S
O277 C288 1.239 . S
O278 Mn274 2.221 . S
O278 Mn279 2.290 . S
O278 C289 1.278 . S
Mn279 O278 2.290 . S
Mn279 O281 2.089 . S
Mn279 O284 2.251 . S
Mn279 O285 2.087 . S
O280 Mn274 2.163 . S
O280 C290 1.244 . S
O281 Mn279 2.089 . S
O281 C288 1.256 . S
O282 Mn274 2.160 . S
O282 C291 1.239 . S
O283 Mn276 2.089 . S
O283 C291 1.256 . S
O284 Mn279 2.251 . S
O284 C289 1.241 . S
O285 Mn279 2.087 . S
O285 C290 1.256 . S
C286 O292 1.278 . S
C286 O293 1.241 . S
C287 O273 1.244 . S
C287 O275 1.256 . S
C288 O277 1.239 . S
C288 O281 1.256 . S
C289 O278 1.278 . S
C289 O284 1.241 . S
C290 O280 1.244 . S
C290 O285 1.256 . S
C291 O282 1.239 . S
C291 O283 1.256 . S
O292 Mn274 2.221 . S
O292 Mn276 2.290 . S
O292 C286 1.278 . S
O293 Mn276 2.251 . S
O293 C286 1.241 . S
O294 Mn295 2.163 . S
O294 C308 1.244 . S
Mn295 O294 2.163 . S
Mn295 O298 2.160 . S
Mn295 O299 2.221 . S
Mn295 O301 2.163 . S
Mn295 O303 2.160 . S
Mn295 O313 2.221 . S
O296 Mn297 2.087 . S
O296 C308 1.256 . S
Mn297 O296 2.087 . S
Mn297 O304 2.089 . S
Mn297 O313 2.290 . S
Mn297 O314 2.251 . S
O298 Mn295 2.160 . S
O298 C309 1.239 . S
O299 Mn295 2.221 . S
O299 Mn300 2.290 . S
O299 C310 1.278 . S
Mn300 O299 2.290 . S
Mn300 O302 2.089 . S
Mn300 O305 2.251 . S
Mn300 O306 2.087 1_556 S
O301 Mn295 2.163 . S
O301 C311 1.244 1_556 S
O302 Mn300 2.089 . S
O302 C309 1.256 . S
O303 Mn295 2.160 . S
O303 C312 1.239 . S
O304 Mn297 2.089 . S
O304 C312 1.256 . S
O305 Mn300 2.251 . S
O305 C310 1.241 . S
O306 Mn300 2.087 1_554 S
O306 C311 1.256 . S
C307 O313 1.278 . S
C307 O314 1.241 . S
C308 O294 1.244 . S
C308 O296 1.256 . S
C309 O298 1.239 . S
C309 O302 1.256 . S
C310 O299 1.278 . S
C310 O305 1.241 . S
C311 O301 1.244 1_554 S
C311 O306 1.256 . S
C312 O303 1.239 . S
C312 O304 1.256 . S
O313 Mn295 2.221 . S
O313 Mn297 2.290 . S
O313 C307 1.278 . S
O314 Mn297 2.251 . S
O314 C307 1.241 . S
O315 Mn316 2.163 . S
O315 C329 1.244 . S
Mn316 O315 2.163 . S
Mn316 O319 2.160 . S
Mn316 O320 2.221 . S
Mn316 O322 2.163 . S
Mn316 O324 2.160 . S
Mn316 O334 2.221 . S
O317 Mn318 2.087 . S
O317 C329 1.256 . S
Mn318 O317 2.087 . S
Mn318 O325 2.089 . S
Mn318 O334 2.290 . S
Mn318 O335 2.251 . S
O319 Mn316 2.160 . S
O319 C330 1.239 . S
O320 Mn316 2.221 . S
O320 Mn321 2.290 1_556 S
O320 C331 1.278 1_556 S
Mn321 O320 2.290 1_554 S
Mn321 O323 2.089 1_544 S
Mn321 O326 2.251 . S
Mn321 O327 2.086 1_554 S
O322 Mn316 2.163 . S
O322 C332 1.244 . S
O323 Mn321 2.089 1_566 S
O323 C330 1.256 1_565 S
O324 Mn316 2.160 . S
O324 C333 1.239 . S
O325 Mn318 2.089 . S
O325 C333 1.256 . S
O326 Mn321 2.251 . S
O326 C331 1.241 . S
O327 Mn321 2.086 1_556 S
O327 C332 1.275 . S
C328 O334 1.278 . S
C328 O335 1.241 . S
C329 O315 1.244 . S
C329 O317 1.256 . S
C330 O319 1.239 . S
C330 O323 1.256 1_545 S
C331 O320 1.278 1_554 S
C331 O326 1.241 . S
C332 O322 1.244 . S
C332 O327 1.275 . S
C333 O324 1.239 . S
C333 O325 1.256 . S
O334 Mn316 2.221 . S
O334 Mn318 2.290 . S
O334 C328 1.278 . S
O335 Mn318 2.251 . S
O335 C328 1.241 . S
H336 C342 0.930 1_655 S
H337 C346 0.930 . S
H338 C351 0.929 . S
H339 C349 0.929 1_655 S
H340 C344 0.929 . S
H341 C350 0.929 1_655 S
C342 H336 0.930 1_455 S
C342 C343 1.367 . S
C342 C350 1.378 . S
C343 C342 1.367 . S
C343 C351 1.433 . S
C344 H340 0.929 . S
C344 C346 1.378 . S
C344 C348 1.350 . S
C345 C348 1.463 . S
C345 C350 1.350 . S
C345 N353 1.427 . S
C346 H337 0.930 . S
C346 C344 1.378 . S
C346 C347 1.367 . S
C347 C346 1.367 . S
C347 C349 1.433 . S
C348 C344 1.350 . S
C348 C345 1.463 . S
C348 N352 1.427 . S
C349 H339 0.929 1_455 S
C349 C347 1.433 . S
C349 N352 1.384 . S
C350 H341 0.929 1_455 S
C350 C342 1.378 . S
C350 C345 1.350 . S
C351 H338 0.929 . S
C351 C343 1.433 . S
C351 N353 1.384 . S
N352 C348 1.427 . S
N352 C349 1.384 . S
N353 C345 1.427 . S
N353 C351 1.384 . S
H354 C360 0.930 . S
H355 C364 0.930 . S
H356 C369 0.929 . S
H357 C367 0.929 . S
H358 C362 0.929 . S
H359 C368 0.929 . S
C360 H354 0.930 . S
C360 C361 1.367 . S
C360 C368 1.378 . S
C361 C360 1.367 . S
C361 C369 1.433 . S
C362 H358 0.929 . S
C362 C364 1.378 . S
C362 C366 1.350 1_655 S
C363 C366 1.463 . S
C363 C368 1.350 . S
C363 N371 1.429 . S
C364 H355 0.930 . S
C364 C362 1.378 . S
C364 C365 1.367 . S
C365 C364 1.367 . S
C365 C367 1.433 1_655 S
C366 C362 1.350 1_455 S
C366 C363 1.463 . S
C366 N370 1.427 . S
C367 H357 0.929 . S
C367 C365 1.433 1_455 S
C367 N370 1.384 . S
C368 H359 0.929 . S
C368 C360 1.378 . S
C368 C363 1.350 . S
C369 H356 0.929 . S
C369 C361 1.433 . S
C369 N371 1.385 . S
N370 C366 1.427 . S
N370 C367 1.384 . S
N371 C363 1.429 . S
N371 C369 1.385 . S
H372 C378 0.930 . S
H373 C382 0.930 . S
H374 C387 0.929 1_655 S
H375 C385 0.929 . S
H376 C380 0.929 . S
H377 C386 0.929 . S
C378 H372 0.930 . S
C378 C379 1.367 . S
C378 C386 1.378 . S
C379 C378 1.367 . S
C379 C387 1.433 . S
C380 H376 0.929 . S
C380 C382 1.378 . S
C380 C384 1.350 1_655 S
C381 C384 1.463 . S
C381 C386 1.350 . S
C381 N389 1.416 1_455 S
C382 H373 0.930 . S
C382 C380 1.378 . S
C382 C383 1.367 1_655 S
C383 C382 1.367 1_455 S
C383 C385 1.433 . S
C384 C380 1.350 1_455 S
C384 C381 1.463 . S
C384 N388 1.427 . S
C385 H375 0.929 . S
C385 C383 1.433 . S
C385 N388 1.384 . S
C386 H377 0.929 . S
C386 C378 1.378 . S
C386 C381 1.350 . S
C387 H374 0.929 1_455 S
C387 C379 1.433 . S
C387 N389 1.382 1_455 S
N388 C384 1.427 . S
N388 C385 1.384 . S
N389 C381 1.416 1_655 S
N389 C387 1.382 1_655 S
H390 C396 0.930 . S
H391 C400 0.930 . S
H392 C405 0.929 . S
H393 C403 0.929 . S
H394 C398 0.929 . S
H395 C404 0.929 . S
C396 H390 0.930 . S
C396 C397 1.367 . S
C396 C404 1.378 . S
C397 C396 1.367 . S
C397 C405 1.433 1_455 S
C398 H394 0.929 . S
C398 C400 1.378 . S
C398 C402 1.350 . S
C399 C402 1.463 . S
C399 C404 1.350 1_655 S
C399 N407 1.427 . S
C400 H391 0.930 . S
C400 C398 1.378 . S
C400 C401 1.367 . S
C401 C400 1.367 . S
C401 C403 1.433 1_655 S
C402 C398 1.350 . S
C402 C399 1.463 . S
C402 N406 1.427 1_655 S
C403 H393 0.929 . S
C403 C401 1.433 1_455 S
C403 N406 1.384 . S
C404 H395 0.929 . S
C404 C396 1.378 . S
C404 C399 1.350 1_455 S
C405 H392 0.929 . S
C405 C397 1.433 1_655 S
C405 N407 1.384 . S
N406 C402 1.427 1_455 S
N406 C403 1.384 . S
N407 C399 1.427 . S
N407 C405 1.384 . S
H408 C414 0.930 1_565 S
H409 C418 0.930 . S
H410 C423 0.929 . S
H411 C421 0.907 1_565 S
H412 C416 0.929 . S
H413 C422 0.929 1_565 S
C414 H408 0.930 1_545 S
C414 C415 1.367 . S
C414 C422 1.378 . S
C415 C414 1.367 . S
C415 C423 1.433 . S
C416 H412 0.929 . S
C416 C418 1.378 . S
C416 C420 1.350 . S
C417 C420 1.463 . S
C417 C422 1.350 . S
C417 N425 1.427 . S
C418 H409 0.930 . S
C418 C416 1.378 . S
C418 C419 1.367 . S
C419 C418 1.367 . S
C419 C421 1.433 . S
C420 C416 1.350 . S
C420 C417 1.463 . S
C420 N424 1.427 . S
C421 H411 0.907 1_545 S
C421 C419 1.433 . S
C421 N424 1.384 . S
C422 H413 0.929 1_545 S
C422 C414 1.378 . S
C422 C417 1.350 . S
C423 H410 0.929 . S
C423 C415 1.433 . S
C423 N425 1.384 . S
N424 C420 1.427 . S
N424 C421 1.384 . S
N425 C417 1.427 . S
N425 C423 1.384 . S
H426 C432 0.930 . S
H427 C436 0.930 . S
H428 C441 0.929 . S
H429 C439 0.929 . S
H430 C434 0.929 . S
H431 C440 0.929 . S
C432 H426 0.930 . S
C432 C433 1.367 . S
C432 C440 1.378 . S
C433 C432 1.367 . S
C433 C441 1.433 . S
C434 H430 0.929 . S
C434 C436 1.378 . S
C434 C438 1.350 . S
C435 C438 1.463 . S
C435 C440 1.350 . S
C435 N443 1.427 . S
C436 H427 0.930 . S
C436 C434 1.378 . S
C436 C437 1.367 . S
C437 C436 1.367 . S
C437 C439 1.433 . S
C438 C434 1.350 . S
C438 C435 1.463 . S
C438 N442 1.427 . S
C439 H429 0.929 . S
C439 C437 1.433 . S
C439 N442 1.384 . S
C440 H431 0.929 . S
C440 C432 1.378 . S
C440 C435 1.350 . S
C441 H428 0.929 . S
C441 C433 1.433 . S
C441 N443 1.384 . S
N442 C438 1.427 . S
N442 C439 1.384 . S
N443 C435 1.427 . S
N443 C441 1.384 . S
H444 C450 0.930 . S
H445 C454 0.930 . S
H446 C459 0.929 . S
H447 C457 0.929 . S
H448 C452 0.929 . S
H449 C458 0.929 . S
C450 H444 0.930 . S
C450 C451 1.367 1_545 S
C450 C458 1.378 . S
C451 C450 1.367 1_565 S
C451 C459 1.433 . S
C452 H448 0.929 . S
C452 C454 1.378 . S
C452 C456 1.350 . S
C453 C456 1.463 . S
C453 C458 1.350 1_565 S
C453 N461 1.427 . S
C454 H445 0.930 . S
C454 C452 1.378 . S
C454 C455 1.367 . S
C455 C454 1.367 . S
C455 C457 1.433 1_565 S
C456 C452 1.350 . S
C456 C453 1.463 . S
C456 N460 1.427 1_565 S
C457 H447 0.929 . S
C457 C455 1.433 1_545 S
C457 N460 1.384 . S
C458 H449 0.929 . S
C458 C450 1.378 . S
C458 C453 1.350 1_545 S
C459 H446 0.929 . S
C459 C451 1.433 . S
C459 N461 1.384 . S
N460 C456 1.427 1_545 S
N460 C457 1.384 . S
N461 C453 1.427 . S
N461 C459 1.384 . S
H462 C468 0.930 . S
H463 C472 0.930 . S
H464 C477 0.929 . S
H465 C475 0.929 . S
H466 C470 0.929 . S
H467 C476 0.929 . S
C468 H462 0.930 . S
C468 C469 1.367 . S
C468 C476 1.378 . S
C469 C468 1.367 . S
C469 C477 1.433 . S
C470 H466 0.929 . S
C470 C472 1.378 . S
C470 C474 1.350 . S
C471 C474 1.463 . S
C471 C476 1.350 . S
C471 N479 1.427 . S
C472 H463 0.930 . S
C472 C470 1.378 . S
C472 C473 1.367 . S
C473 C472 1.367 . S
C473 C475 1.433 . S
C474 C470 1.350 . S
C474 C471 1.463 . S
C474 N478 1.427 . S
C475 H465 0.929 . S
C475 C473 1.433 . S
C475 N478 1.384 . S
C476 H467 0.929 . S
C476 C468 1.378 . S
C476 C471 1.350 . S
C477 H464 0.929 . S
C477 C469 1.433 . S
C477 N479 1.384 . S
N478 C474 1.427 . S
N478 C475 1.384 . S
N479 C471 1.427 . S
N479 C477 1.384 . S
H480 C486 0.930 . S
H481 C490 0.930 . S
H482 C495 0.929 1_556 S
H483 C493 0.929 . S
H484 C488 0.922 1_556 S
H485 C494 0.929 . S
C486 H480 0.930 . S
C486 C487 1.367 . S
C486 C494 1.378 . S
C487 C486 1.367 . S
C487 C495 1.433 . S
C488 H484 0.922 1_554 S
C488 C490 1.378 1_554 S
C488 C492 1.356 . S
C489 C492 1.463 . S
C489 C494 1.350 . S
C489 N497 1.427 . S
C490 H481 0.930 . S
C490 C488 1.378 1_556 S
C490 C491 1.367 1_556 S
C491 C490 1.367 1_554 S
C491 C493 1.433 . S
C492 C488 1.356 . S
C492 C489 1.463 . S
C492 N496 1.427 . S
C493 H483 0.929 . S
C493 C491 1.433 . S
C493 N496 1.384 . S
C494 H485 0.929 . S
C494 C486 1.378 . S
C494 C489 1.350 . S
C495 H482 0.929 1_554 S
C495 C487 1.433 . S
C495 N497 1.384 . S
N496 C492 1.427 . S
N496 C493 1.384 . S
N497 C489 1.427 . S
N497 C495 1.384 . S
H498 C504 0.930 . S
H499 C508 0.930 . S
H500 C513 0.929 . S
H501 C511 0.929 . S
H502 C506 0.929 . S
H503 C512 0.929 . S
C504 H498 0.930 . S
C504 C505 1.367 . S
C504 C512 1.378 . S
C505 C504 1.367 . S
C505 C513 1.433 . S
C506 H502 0.929 . S
C506 C508 1.378 . S
C506 C510 1.350 . S
C507 C510 1.463 . S
C507 C512 1.350 . S
C507 N515 1.427 . S
C508 H499 0.930 . S
C508 C506 1.378 . S
C508 C509 1.367 . S
C509 C508 1.367 . S
C509 C511 1.433 . S
C510 C506 1.350 . S
C510 C507 1.463 . S
C510 N514 1.427 . S
C511 H501 0.929 . S
C511 C509 1.433 . S
C511 N514 1.384 . S
C512 H503 0.929 . S
C512 C504 1.378 . S
C512 C507 1.350 . S
C513 H500 0.929 . S
C513 C505 1.433 . S
C513 N515 1.384 . S
N514 C510 1.427 . S
N514 C511 1.384 . S
N515 C507 1.427 . S
N515 C513 1.384 . S
H516 C522 0.930 . S
H517 C526 0.930 . S
H518 C531 0.929 . S
H519 C529 0.929 . S
H520 C524 0.929 . S
H521 C530 0.929 . S
C522 H516 0.930 . S
C522 C523 1.367 . S
C522 C530 1.378 . S
C523 C522 1.367 . S
C523 C531 1.433 . S
C524 H520 0.929 . S
C524 C526 1.378 . S
C524 C528 1.350 . S
C525 C528 1.463 . S
C525 C530 1.350 . S
C525 N533 1.427 . S
C526 H517 0.930 . S
C526 C524 1.378 . S
C526 C527 1.367 . S
C527 C526 1.367 . S
C527 C529 1.433 . S
C528 C524 1.350 . S
C528 C525 1.463 . S
C528 N532 1.427 . S
C529 H519 0.929 . S
C529 C527 1.433 . S
C529 N532 1.384 . S
C530 H521 0.929 . S
C530 C522 1.378 . S
C530 C525 1.350 . S
C531 H518 0.929 . S
C531 C523 1.433 . S
C531 N533 1.384 . S
N532 C528 1.427 . S
N532 C529 1.384 . S
N533 C525 1.427 . S
N533 C531 1.384 . S
H534 C540 0.930 . S
H535 C544 0.930 . S
H536 C549 0.929 . S
H537 C547 0.929 . S
H538 C542 0.929 . S
H539 C548 0.929 . S
C540 H534 0.930 . S
C540 C541 1.367 . S
C540 C548 1.378 . S
C541 C540 1.367 . S
C541 C549 1.433 . S
C542 H538 0.929 . S
C542 C544 1.378 . S
C542 C546 1.350 . S
C543 C546 1.463 . S
C543 C548 1.350 . S
C543 N551 1.427 . S
C544 H535 0.930 . S
C544 C542 1.378 . S
C544 C545 1.367 . S
C545 C544 1.367 . S
C545 C547 1.433 . S
C546 C542 1.350 . S
C546 C543 1.463 . S
C546 N550 1.427 . S
C547 H537 0.929 . S
C547 C545 1.433 . S
C547 N550 1.384 . S
C548 H539 0.929 . S
C548 C540 1.378 . S
C548 C543 1.350 . S
C549 H536 0.929 . S
C549 C541 1.433 . S
C549 N551 1.384 . S
N550 C546 1.427 . S
N550 C547 1.384 . S
N551 C543 1.427 . S
N551 C549 1.384 . S
H552 C558 0.930 . S
H553 C562 0.930 . S
H554 C567 0.929 . S
H555 C565 0.929 . S
H556 C560 0.929 . S
H557 C566 0.929 . S
C558 H552 0.930 . S
C558 C559 1.367 . S
C558 C566 1.378 . S
C559 C558 1.367 . S
C559 C567 1.433 . S
C560 H556 0.929 . S
C560 C562 1.378 . S
C560 C564 1.350 . S
C561 C564 1.463 . S
C561 C566 1.350 . S
C561 N569 1.427 . S
C562 H553 0.930 . S
C562 C560 1.378 . S
C562 C563 1.367 . S
C563 C562 1.367 . S
C563 C565 1.433 . S
C564 C560 1.350 . S
C564 C561 1.463 . S
C564 N568 1.427 . S
C565 H555 0.929 . S
C565 C563 1.433 . S
C565 N568 1.384 . S
C566 H557 0.929 . S
C566 C558 1.378 . S
C566 C561 1.350 . S
C567 H554 0.929 . S
C567 C559 1.433 . S
C567 N569 1.384 . S
N568 C564 1.427 . S
N568 C565 1.384 . S
N569 C561 1.427 . S
N569 C567 1.384 . S
H570 C576 0.930 . S
H571 C580 0.930 . S
H572 C585 0.929 . S
H573 C583 0.929 . S
H574 C578 0.929 . S
H575 C584 0.929 . S
C576 H570 0.930 . S
C576 C577 1.367 . S
C576 C584 1.378 . S
C577 C576 1.367 . S
C577 C585 1.433 . S
C578 H574 0.929 . S
C578 C580 1.378 . S
C578 C582 1.350 . S
C579 C582 1.463 . S
C579 C584 1.350 . S
C579 N587 1.427 . S
C580 H571 0.930 . S
C580 C578 1.378 . S
C580 C581 1.367 . S
C581 C580 1.367 . S
C581 C583 1.433 . S
C582 C578 1.350 . S
C582 C579 1.463 . S
C582 N586 1.427 . S
C583 H573 0.929 . S
C583 C581 1.433 . S
C583 N586 1.384 . S
C584 H575 0.929 . S
C584 C576 1.378 . S
C584 C579 1.350 . S
C585 H572 0.929 . S
C585 C577 1.433 . S
C585 N587 1.384 . S
N586 C582 1.427 . S
N586 C583 1.384 . S
N587 C579 1.427 . S
N587 C585 1.384 . S
H588 C594 0.930 . S
H589 C598 0.930 . S
H590 C603 0.929 . S
H591 C601 0.929 . S
H592 C596 0.929 . S
H593 C602 0.929 . S
C594 H588 0.930 . S
C594 C595 1.367 . S
C594 C602 1.378 . S
C595 C594 1.367 . S
C595 C603 1.433 . S
C596 H592 0.929 . S
C596 C598 1.378 . S
C596 C600 1.350 . S
C597 C600 1.463 . S
C597 C602 1.350 . S
C597 N605 1.427 . S
C598 H589 0.930 . S
C598 C596 1.378 . S
C598 C599 1.367 . S
C599 C598 1.367 . S
C599 C601 1.433 . S
C600 C596 1.350 . S
C600 C597 1.463 . S
C600 N604 1.427 . S
C601 H591 0.929 . S
C601 C599 1.433 . S
C601 N604 1.384 . S
C602 H593 0.929 . S
C602 C594 1.378 . S
C602 C597 1.350 . S
C603 H590 0.929 . S
C603 C595 1.433 . S
C603 N605 1.384 . S
N604 C600 1.427 . S
N604 C601 1.384 . S
N605 C597 1.427 . S
N605 C603 1.384 . S
H606 C612 0.930 . S
H607 C616 0.930 . S
H608 C621 0.929 . S
H609 C619 0.929 . S
H610 C614 0.929 . S
H611 C620 0.929 . S
C612 H606 0.930 . S
C612 C613 1.367 . S
C612 C620 1.378 . S
C613 C612 1.367 . S
C613 C621 1.433 . S
C614 H610 0.929 . S
C614 C616 1.378 . S
C614 C618 1.350 . S
C615 C618 1.463 . S
C615 C620 1.350 . S
C615 N623 1.427 . S
C616 H607 0.930 . S
C616 C614 1.378 . S
C616 C617 1.367 . S
C617 C616 1.367 . S
C617 C619 1.433 . S
C618 C614 1.350 . S
C618 C615 1.463 . S
C618 N622 1.427 . S
C619 H609 0.929 . S
C619 C617 1.433 . S
C619 N622 1.384 . S
C620 H611 0.929 . S
C620 C612 1.378 . S
C620 C615 1.350 . S
C621 H608 0.929 . S
C621 C613 1.433 . S
C621 N623 1.384 . S
N622 C618 1.427 . S
N622 C619 1.384 . S
N623 C615 1.427 . S
N623 C621 1.384 . S
H624 C630 0.930 . S
H625 C634 0.930 . S
H626 C639 0.929 . S
H627 C637 0.929 . S
H628 C632 0.929 . S
H629 C638 0.929 . S
C630 H624 0.930 . S
C630 C631 1.367 . S
C630 C638 1.378 . S
C631 C630 1.367 . S
C631 C639 1.433 . S
C632 H628 0.929 . S
C632 C634 1.378 . S
C632 C636 1.350 . S
C633 C636 1.463 . S
C633 C638 1.350 . S
C633 N641 1.427 . S
C634 H625 0.930 . S
C634 C632 1.378 . S
C634 C635 1.367 . S
C635 C634 1.367 . S
C635 C637 1.433 . S
C636 C632 1.350 . S
C636 C633 1.463 . S
C636 N640 1.427 . S
C637 H627 0.929 . S
C637 C635 1.433 . S
C637 N640 1.384 . S
C638 H629 0.929 . S
C638 C630 1.378 . S
C638 C633 1.350 . S
C639 H626 0.929 . S
C639 C631 1.433 . S
C639 N641 1.384 . S
N640 C636 1.427 . S
N640 C637 1.384 . S
N641 C633 1.427 . S
N641 C639 1.384 . S
H642 C648 0.930 . S
H643 C652 0.930 . S
H644 C657 0.929 . S
H645 C655 0.929 . S
H646 C650 0.929 . S
H647 C656 0.929 . S
C648 H642 0.930 . S
C648 C649 1.367 1_545 S
C648 C656 1.378 . S
C649 C648 1.367 1_565 S
C649 C657 1.433 . S
C650 H646 0.929 . S
C650 C652 1.378 . S
C650 C654 1.350 . S
C651 C654 1.463 . S
C651 C656 1.350 1_565 S
C651 N659 1.427 . S
C652 H643 0.930 . S
C652 C650 1.378 . S
C652 C653 1.367 . S
C653 C652 1.367 . S
C653 C655 1.433 1_565 S
C654 C650 1.350 . S
C654 C651 1.463 . S
C654 N658 1.427 1_565 S
C655 H645 0.929 . S
C655 C653 1.433 1_545 S
C655 N658 1.384 . S
C656 H647 0.929 . S
C656 C648 1.378 . S
C656 C651 1.350 1_545 S
C657 H644 0.929 . S
C657 C649 1.433 . S
C657 N659 1.384 . S
N658 C654 1.427 1_545 S
N658 C655 1.384 . S
N659 C651 1.427 . S
N659 C657 1.384 . S
H660 C666 0.930 . S
H661 C670 0.930 . S
H662 C675 0.929 . S
H663 C673 0.929 . S
H664 C668 0.929 . S
H665 C674 0.929 . S
C666 H660 0.930 . S
C666 C667 1.367 . S
C666 C674 1.378 . S
C667 C666 1.367 . S
C667 C675 1.433 . S
C668 H664 0.929 . S
C668 C670 1.378 . S
C668 C672 1.350 . S
C669 C672 1.463 . S
C669 C674 1.350 . S
C669 N677 1.427 . S
C670 H661 0.930 . S
C670 C668 1.378 . S
C670 C671 1.367 . S
C671 C670 1.367 . S
C671 C673 1.433 . S
C672 C668 1.350 . S
C672 C669 1.463 . S
C672 N676 1.427 . S
C673 H663 0.929 . S
C673 C671 1.433 . S
C673 N676 1.384 . S
C674 H665 0.929 . S
C674 C666 1.378 . S
C674 C669 1.350 . S
C675 H662 0.929 . S
C675 C667 1.433 . S
C675 N677 1.384 . S
N676 C672 1.427 . S
N676 C673 1.384 . S
N677 C669 1.427 . S
N677 C675 1.384 . S
H678 C684 0.930 . S
H679 C688 0.930 . S
H680 C693 0.929 . S
H681 C691 0.929 . S
H682 C686 0.929 . S
H683 C692 0.929 . S
C684 H678 0.930 . S
C684 C685 1.367 . S
C684 C692 1.378 . S
C685 C684 1.367 . S
C685 C693 1.433 1_545 S
C686 H682 0.929 . S
C686 C688 1.378 . S
C686 C690 1.350 1_565 S
C687 C690 1.463 . S
C687 C692 1.350 . S
C687 N695 1.427 1_545 S
C688 H679 0.930 . S
C688 C686 1.378 . S
C688 C689 1.367 1_565 S
C689 C688 1.367 1_545 S
C689 C691 1.433 . S
C690 C686 1.350 1_545 S
C690 C687 1.463 . S
C690 N694 1.427 . S
C691 H681 0.929 . S
C691 C689 1.433 . S
C691 N694 1.384 . S
C692 H683 0.929 . S
C692 C684 1.378 . S
C692 C687 1.350 . S
C693 H680 0.929 . S
C693 C685 1.433 1_565 S
C693 N695 1.384 . S
N694 C690 1.427 . S
N694 C691 1.384 . S
N695 C687 1.427 1_565 S
N695 C693 1.384 . S
H696 C702 0.930 . S
H697 C706 0.930 . S
H698 C711 0.929 . S
H699 C709 0.929 . S
H700 C704 0.929 . S
H701 C710 0.929 . S
C702 H696 0.930 . S
C702 C703 1.367 . S
C702 C710 1.378 . S
C703 C702 1.367 . S
C703 C711 1.433 . S
C704 H700 0.929 . S
C704 C706 1.378 . S
C704 C708 1.350 . S
C705 C708 1.463 . S
C705 C710 1.350 . S
C705 N713 1.427 . S
C706 H697 0.930 . S
C706 C704 1.378 . S
C706 C707 1.367 . S
C707 C706 1.367 . S
C707 C709 1.433 . S
C708 C704 1.350 . S
C708 C705 1.463 . S
C708 N712 1.427 . S
C709 H699 0.929 . S
C709 C707 1.433 . S
C709 N712 1.384 . S
C710 H701 0.929 . S
C710 C702 1.378 . S
C710 C705 1.350 . S
C711 H698 0.929 . S
C711 C703 1.433 . S
C711 N713 1.384 . S
N712 C708 1.427 . S
N712 C709 1.384 . S
N713 C705 1.427 . S
N713 C711 1.384 . S
H714 C720 0.930 . S
H715 C724 0.930 . S
H716 C729 0.929 . S
H717 C727 0.929 . S
H718 C722 0.929 . S
H719 C728 0.929 . S
C720 H714 0.930 . S
C720 C721 1.367 . S
C720 C728 1.378 . S
C721 C720 1.367 . S
C721 C729 1.433 . S
C722 H718 0.929 . S
C722 C724 1.378 . S
C722 C726 1.350 . S
C723 C726 1.463 . S
C723 C728 1.350 1_556 S
C723 N731 1.427 . S
C724 H715 0.930 . S
C724 C722 1.378 . S
C724 C725 1.367 . S
C725 C724 1.367 . S
C725 C727 1.433 . S
C726 C722 1.350 . S
C726 C723 1.463 . S
C726 N730 1.427 . S
C727 H717 0.929 . S
C727 C725 1.433 . S
C727 N730 1.384 . S
C728 H719 0.929 . S
C728 C720 1.378 . S
C728 C723 1.350 1_554 S
C729 H716 0.929 . S
C729 C721 1.433 . S
C729 N731 1.384 1_554 S
N730 C726 1.427 . S
N730 C727 1.384 . S
N731 C723 1.427 . S
N731 C729 1.384 1_556 S
H732 C738 0.930 . S
H733 C742 0.930 . S
H734 C747 0.929 . S
H735 C745 0.929 . S
H736 C740 0.929 . S
H737 C746 0.929 . S
C738 H732 0.930 . S
C738 C739 1.367 1_556 S
C738 C746 1.378 . S
C739 C738 1.367 1_554 S
C739 C747 1.433 . S
C740 H736 0.929 . S
C740 C742 1.378 . S
C740 C744 1.350 1_554 S
C741 C744 1.458 1_554 S
C741 C746 1.329 1_554 S
C741 N749 1.455 . S
C742 H733 0.930 . S
C742 C740 1.378 . S
C742 C743 1.367 1_554 S
C743 C742 1.367 1_556 S
C743 C745 1.433 . S
C744 C740 1.350 1_556 S
C744 C741 1.458 1_556 S
C744 N748 1.427 . S
C745 H735 0.929 . S
C745 C743 1.433 . S
C745 N748 1.384 . S
C746 H737 0.929 . S
C746 C738 1.378 . S
C746 C741 1.329 1_556 S
C747 H734 0.929 . S
C747 C739 1.433 . S
C747 N749 1.384 . S
N748 C744 1.427 . S
N748 C745 1.384 . S
N749 C741 1.455 . S
N749 C747 1.384 . S
H750 C756 0.930 1_556 S
H751 C760 0.930 . S
H752 C765 0.929 . S
H753 C763 0.919 1_556 S
H754 C758 0.929 . S
H755 C764 0.929 1_556 S
C756 H750 0.930 1_554 S
C756 C757 1.367 . S
C756 C764 1.378 . S
C757 C756 1.367 . S
C757 C765 1.433 . S
C758 H754 0.929 . S
C758 C760 1.378 . S
C758 C762 1.350 . S
C759 C762 1.463 . S
C759 C764 1.350 . S
C759 N767 1.427 . S
C760 H751 0.930 . S
C760 C758 1.378 . S
C760 C761 1.367 . S
C761 C760 1.367 . S
C761 C763 1.442 . S
C762 C758 1.350 . S
C762 C759 1.463 . S
C762 N766 1.427 . S
C763 H753 0.919 1_554 S
C763 C761 1.442 . S
C763 N766 1.385 . S
C764 H755 0.929 1_554 S
C764 C756 1.378 . S
C764 C759 1.350 . S
C765 H752 0.929 . S
C765 C757 1.433 . S
C765 N767 1.384 . S
N766 C762 1.427 . S
N766 C763 1.385 . S
N767 C759 1.427 . S
N767 C765 1.384 . S
H768 C774 0.930 . S
H769 C778 0.930 . S
H770 C783 0.929 1_655 S
H771 C781 0.929 . S
H772 C776 0.929 1_655 S
H773 C782 0.929 . S
C774 H768 0.930 . S
C774 C775 1.367 . S
C774 C782 1.378 . S
C775 C774 1.367 . S
C775 C783 1.433 . S
C776 H772 0.929 1_455 S
C776 C778 1.378 1_455 S
C776 C780 1.350 . S
C777 C780 1.463 . S
C777 C782 1.350 . S
C777 N785 1.427 . S
C778 H769 0.930 . S
C778 C776 1.378 1_655 S
C778 C779 1.367 1_655 S
C779 C778 1.367 1_455 S
C779 C781 1.433 . S
C780 C776 1.350 . S
C780 C777 1.463 . S
C780 N784 1.427 . S
C781 H771 0.929 . S
C781 C779 1.433 . S
C781 N784 1.384 . S
C782 H773 0.929 . S
C782 C774 1.378 . S
C782 C777 1.350 . S
C783 H770 0.929 1_455 S
C783 C775 1.433 . S
C783 N785 1.384 . S
N784 C780 1.427 . S
N784 C781 1.384 . S
N785 C777 1.427 . S
N785 C783 1.384 . S
H786 C792 0.930 . S
H787 C796 0.930 . S
H788 C801 0.929 . S
H789 C799 0.929 . S
H790 C794 0.929 . S
H791 C800 0.929 . S
C792 H786 0.930 . S
C792 C793 1.367 . S
C792 C800 1.378 . S
C793 C792 1.367 . S
C793 C801 1.433 1_455 S
C794 H790 0.929 . S
C794 C796 1.378 . S
C794 C798 1.350 . S
C795 C798 1.463 1_455 S
C795 C800 1.350 . S
C795 N803 1.427 1_455 S
C796 H787 0.930 . S
C796 C794 1.378 . S
C796 C797 1.367 . S
C797 C796 1.367 . S
C797 C799 1.433 1_655 S
C798 C794 1.350 . S
C798 C795 1.463 1_655 S
C798 N802 1.427 1_655 S
C799 H789 0.929 . S
C799 C797 1.433 1_455 S
C799 N802 1.384 . S
C800 H791 0.929 . S
C800 C792 1.378 . S
C800 C795 1.350 . S
C801 H788 0.929 . S
C801 C793 1.433 1_655 S
C801 N803 1.384 . S
N802 C798 1.427 1_455 S
N802 C799 1.384 . S
N803 C795 1.427 1_655 S
N803 C801 1.384 . S
H804 C810 0.930 . S
H805 C814 0.930 . S
H806 C819 0.929 . S
H807 C817 0.929 . S
H808 C812 0.929 . S
H809 C818 0.929 . S
C810 H804 0.930 . S
C810 C811 1.367 . S
C810 C818 1.378 . S
C811 C810 1.367 . S
C811 C819 1.433 . S
C812 H808 0.929 . S
C812 C814 1.378 . S
C812 C816 1.350 . S
C813 C816 1.463 . S
C813 C818 1.350 . S
C813 N821 1.427 . S
C814 H805 0.930 . S
C814 C812 1.378 . S
C814 C815 1.367 . S
C815 C814 1.367 . S
C815 C817 1.433 . S
C816 C812 1.350 . S
C816 C813 1.463 . S
C816 N820 1.427 . S
C817 H807 0.929 . S
C817 C815 1.433 . S
C817 N820 1.384 . S
C818 H809 0.929 . S
C818 C810 1.378 . S
C818 C813 1.350 . S
C819 H806 0.929 . S
C819 C811 1.433 . S
C819 N821 1.384 . S
N820 C816 1.427 . S
N820 C817 1.384 . S
N821 C813 1.427 . S
N821 C819 1.384 . S
H822 C828 0.930 . S
H823 C832 0.930 . S
H824 C837 0.929 . S
H825 C835 0.929 1_455 S
H826 C830 0.929 . S
H827 C836 0.929 . S
C828 H822 0.930 . S
C828 C829 1.367 . S
C828 C836 1.378 . S
C829 C828 1.367 . S
C829 C837 1.433 1_455 S
C830 H826 0.929 . S
C830 C832 1.378 . S
C830 C834 1.350 . S
C831 C834 1.463 . S
C831 C836 1.350 1_655 S
C831 N839 1.427 . S
C832 H823 0.930 . S
C832 C830 1.378 . S
C832 C833 1.367 . S
C833 C832 1.367 . S
C833 C835 1.433 . S
C834 C830 1.350 . S
C834 C831 1.463 . S
C834 N838 1.427 1_655 S
C835 H825 0.929 1_655 S
C835 C833 1.433 . S
C835 N838 1.384 1_655 S
C836 H827 0.929 . S
C836 C828 1.378 . S
C836 C831 1.350 1_455 S
C837 H824 0.929 . S
C837 C829 1.433 1_655 S
C837 N839 1.384 . S
N838 C834 1.427 1_455 S
N838 C835 1.384 1_455 S
N839 C831 1.427 . S
N839 C837 1.384 . S
H840 C846 0.930 . S
H841 C850 0.930 . S
H842 C855 0.929 . S
H843 C853 0.929 . S
H844 C848 0.929 . S
H845 C854 0.929 . S
C846 H840 0.930 . S
C846 C847 1.367 . S
C846 C854 1.378 . S
C847 C846 1.367 . S
C847 C855 1.433 . S
C848 H844 0.929 . S
C848 C850 1.378 . S
C848 C852 1.350 . S
C849 C852 1.463 . S
C849 C854 1.350 . S
C849 N857 1.427 . S
C850 H841 0.930 . S
C850 C848 1.378 . S
C850 C851 1.367 . S
C851 C850 1.367 . S
C851 C853 1.433 . S
C852 C848 1.350 . S
C852 C849 1.463 . S
C852 N856 1.427 . S
C853 H843 0.929 . S
C853 C851 1.433 . S
C853 N856 1.384 . S
C854 H845 0.929 . S
C854 C846 1.378 . S
C854 C849 1.350 . S
C855 H842 0.929 . S
C855 C847 1.433 . S
C855 N857 1.384 . S
N856 C852 1.427 . S
N856 C853 1.384 . S
N857 C849 1.427 . S
N857 C855 1.384 . S
H858 C864 0.930 . S
H859 C868 0.930 . S
H860 C873 0.929 . S
H861 C871 0.929 . S
H862 C866 0.929 . S
H863 C872 0.929 . S
C864 H858 0.930 . S
C864 C865 1.367 . S
C864 C872 1.378 . S
C865 C864 1.367 . S
C865 C873 1.433 . S
C866 H862 0.929 . S
C866 C868 1.378 . S
C866 C870 1.350 . S
C867 C870 1.463 . S
C867 C872 1.350 . S
C867 N875 1.427 . S
C868 H859 0.930 . S
C868 C866 1.378 . S
C868 C869 1.367 . S
C869 C868 1.367 . S
C869 C871 1.433 . S
C870 C866 1.350 . S
C870 C867 1.463 . S
C870 N874 1.427 . S
C871 H861 0.929 . S
C871 C869 1.433 . S
C871 N874 1.384 . S
C872 H863 0.929 . S
C872 C864 1.378 . S
C872 C867 1.350 . S
C873 H860 0.929 . S
C873 C865 1.433 . S
C873 N875 1.384 . S
N874 C870 1.427 . S
N874 C871 1.384 . S
N875 C867 1.427 . S
N875 C873 1.384 . S
H876 C882 0.930 . S
H877 C886 0.930 . S
H878 C891 0.929 . S
H879 C889 0.929 . S
H880 C884 0.929 . S
H881 C890 0.929 . S
C882 H876 0.930 . S
C882 C883 1.367 . S
C882 C890 1.378 . S
C883 C882 1.367 . S
C883 C891 1.433 1_565 S
C884 H880 0.929 . S
C884 C886 1.378 . S
C884 C888 1.350 1_545 S
C885 C888 1.463 . S
C885 C890 1.350 . S
C885 N893 1.427 1_565 S
C886 H877 0.930 . S
C886 C884 1.378 . S
C886 C887 1.367 1_545 S
C887 C886 1.367 1_565 S
C887 C889 1.433 . S
C888 C884 1.350 1_565 S
C888 C885 1.463 . S
C888 N892 1.427 . S
C889 H879 0.929 . S
C889 C887 1.433 . S
C889 N892 1.384 . S
C890 H881 0.929 . S
C890 C882 1.378 . S
C890 C885 1.350 . S
C891 H878 0.929 . S
C891 C883 1.433 1_545 S
C891 N893 1.384 . S
N892 C888 1.427 . S
N892 C889 1.384 . S
N893 C885 1.427 1_545 S
N893 C891 1.384 . S
H894 C900 0.930 . S
H895 C904 0.930 . S
H896 C909 0.929 . S
H897 C907 0.929 . S
H898 C902 0.929 . S
H899 C908 0.929 . S
C900 H894 0.930 . S
C900 C901 1.367 . S
C900 C908 1.378 . S
C901 C900 1.367 . S
C901 C909 1.433 . S
C902 H898 0.929 . S
C902 C904 1.378 . S
C902 C906 1.350 . S
C903 C906 1.463 . S
C903 C908 1.350 . S
C903 N911 1.427 . S
C904 H895 0.930 . S
C904 C902 1.378 . S
C904 C905 1.367 . S
C905 C904 1.367 . S
C905 C907 1.433 . S
C906 C902 1.350 . S
C906 C903 1.463 . S
C906 N910 1.427 . S
C907 H897 0.929 . S
C907 C905 1.433 . S
C907 N910 1.384 . S
C908 H899 0.929 . S
C908 C900 1.378 . S
C908 C903 1.350 . S
C909 H896 0.929 . S
C909 C901 1.433 . S
C909 N911 1.384 . S
N910 C906 1.427 . S
N910 C907 1.384 . S
N911 C903 1.427 . S
N911 C909 1.384 . S
H912 C918 0.930 . S
H913 C922 0.930 . S
H914 C927 0.929 . S
H915 C925 0.929 . S
H916 C920 0.929 . S
H917 C926 0.929 . S
C918 H912 0.930 . S
C918 C919 1.367 . S
C918 C926 1.378 . S
C919 C918 1.367 . S
C919 C927 1.433 . S
C920 H916 0.929 . S
C920 C922 1.378 . S
C920 C924 1.350 . S
C921 C924 1.463 . S
C921 C926 1.350 . S
C921 N929 1.427 . S
C922 H913 0.930 . S
C922 C920 1.378 . S
C922 C923 1.367 . S
C923 C922 1.367 . S
C923 C925 1.433 . S
C924 C920 1.350 . S
C924 C921 1.463 . S
C924 N928 1.427 . S
C925 H915 0.929 . S
C925 C923 1.433 . S
C925 N928 1.384 . S
C926 H917 0.929 . S
C926 C918 1.378 . S
C926 C921 1.350 . S
C927 H914 0.929 . S
C927 C919 1.433 . S
C927 N929 1.384 . S
N928 C924 1.427 . S
N928 C925 1.384 . S
N929 C921 1.427 . S
N929 C927 1.384 . S
H930 C936 0.930 . S
H931 C940 0.930 . S
H932 C945 0.929 . S
H933 C943 0.929 . S
H934 C938 0.929 . S
H935 C944 0.929 . S
C936 H930 0.930 . S
C936 C937 1.367 . S
C936 C944 1.378 . S
C937 C936 1.367 . S
C937 C945 1.433 . S
C938 H934 0.929 . S
C938 C940 1.378 . S
C938 C942 1.350 . S
C939 C942 1.463 . S
C939 C944 1.350 . S
C939 N947 1.427 . S
C940 H931 0.930 . S
C940 C938 1.378 . S
C940 C941 1.367 . S
C941 C940 1.367 . S
C941 C943 1.433 . S
C942 C938 1.350 . S
C942 C939 1.463 . S
C942 N946 1.427 . S
C943 H933 0.929 . S
C943 C941 1.433 . S
C943 N946 1.384 . S
C944 H935 0.929 . S
C944 C936 1.378 . S
C944 C939 1.350 . S
C945 H932 0.929 . S
C945 C937 1.433 . S
C945 N947 1.384 . S
N946 C942 1.427 . S
N946 C943 1.384 . S
N947 C939 1.427 . S
N947 C945 1.384 . S
H948 C954 0.930 . S
H949 C958 0.930 . S
H950 C963 0.929 . S
H951 C961 0.929 . S
H952 C956 0.929 . S
H953 C962 0.929 . S
C954 H948 0.930 . S
C954 C955 1.367 . S
C954 C962 1.378 . S
C955 C954 1.367 . S
C955 C963 1.433 . S
C956 H952 0.929 . S
C956 C958 1.378 . S
C956 C960 1.350 . S
C957 C960 1.463 . S
C957 C962 1.350 . S
C957 N965 1.427 . S
C958 H949 0.930 . S
C958 C956 1.378 . S
C958 C959 1.367 . S
C959 C958 1.367 . S
C959 C961 1.433 . S
C960 C956 1.350 . S
C960 C957 1.463 . S
C960 N964 1.427 . S
C961 H951 0.929 . S
C961 C959 1.433 . S
C961 N964 1.384 . S
C962 H953 0.929 . S
C962 C954 1.378 . S
C962 C957 1.350 . S
C963 H950 0.929 . S
C963 C955 1.433 . S
C963 N965 1.384 . S
N964 C960 1.427 . S
N964 C961 1.384 . S
N965 C957 1.427 . S
N965 C963 1.384 . S
H966 C972 0.930 . S
H967 C976 0.930 . S
H968 C981 0.929 . S
H969 C979 0.929 . S
H970 C974 0.929 . S
H971 C980 0.929 . S
C972 H966 0.930 . S
C972 C973 1.367 . S
C972 C980 1.378 . S
C973 C972 1.367 . S
C973 C981 1.433 . S
C974 H970 0.929 . S
C974 C976 1.378 . S
C974 C978 1.350 . S
C975 C978 1.463 . S
C975 C980 1.350 . S
C975 N983 1.427 . S
C976 H967 0.930 . S
C976 C974 1.378 . S
C976 C977 1.367 . S
C977 C976 1.367 . S
C977 C979 1.433 . S
C978 C974 1.350 . S
C978 C975 1.463 . S
C978 N982 1.427 . S
C979 H969 0.929 . S
C979 C977 1.433 . S
C979 N982 1.384 . S
C980 H971 0.929 . S
C980 C972 1.378 . S
C980 C975 1.350 . S
C981 H968 0.929 . S
C981 C973 1.433 . S
C981 N983 1.384 . S
N982 C978 1.427 . S
N982 C979 1.384 . S
N983 C975 1.427 . S
N983 C981 1.384 . S
H984 C990 0.930 . S
H985 C994 0.930 . S
H986 C999 0.929 . S
H987 C997 0.929 . S
H988 C992 0.929 . S
H989 C998 0.929 . S
C990 H984 0.930 . S
C990 C991 1.367 . S
C990 C998 1.378 . S
C991 C990 1.367 . S
C991 C999 1.433 . S
C992 H988 0.929 . S
C992 C994 1.378 . S
C992 C996 1.350 . S
C993 C996 1.463 . S
C993 C998 1.350 . S
C993 N1001 1.427 . S
C994 H985 0.930 . S
C994 C992 1.378 . S
C994 C995 1.367 . S
C995 C994 1.367 . S
C995 C997 1.433 . S
C996 C992 1.350 . S
C996 C993 1.463 . S
C996 N1000 1.427 . S
C997 H987 0.929 . S
C997 C995 1.433 . S
C997 N1000 1.384 . S
C998 H989 0.929 . S
C998 C990 1.378 . S
C998 C993 1.350 . S
C999 H986 0.929 . S
C999 C991 1.433 . S
C999 N1001 1.384 . S
N1000 C996 1.427 . S
N1000 C997 1.384 . S
N1001 C993 1.427 . S
N1001 C999 1.384 . S
H1002 C1008 0.930 . S
H1003 C1012 0.930 . S
H1004 C1017 0.929 . S
H1005 C1015 0.929 . S
H1006 C1010 0.929 . S
H1007 C1016 0.929 . S
C1008 H1002 0.930 . S
C1008 C1009 1.367 . S
C1008 C1016 1.378 . S
C1009 C1008 1.367 . S
C1009 C1017 1.433 . S
C1010 H1006 0.929 . S
C1010 C1012 1.378 . S
C1010 C1014 1.350 . S
C1011 C1014 1.463 . S
C1011 C1016 1.350 . S
C1011 N1019 1.427 . S
C1012 H1003 0.930 . S
C1012 C1010 1.378 . S
C1012 C1013 1.367 . S
C1013 C1012 1.367 . S
C1013 C1015 1.433 . S
C1014 C1010 1.350 . S
C1014 C1011 1.463 . S
C1014 N1018 1.427 . S
C1015 H1005 0.929 . S
C1015 C1013 1.433 . S
C1015 N1018 1.384 . S
C1016 H1007 0.929 . S
C1016 C1008 1.378 . S
C1016 C1011 1.350 . S
C1017 H1004 0.929 . S
C1017 C1009 1.433 . S
C1017 N1019 1.384 . S
N1018 C1014 1.427 . S
N1018 C1015 1.384 . S
N1019 C1011 1.427 . S
N1019 C1017 1.384 . S
H1020 C1026 0.930 . S
H1021 C1030 0.930 . S
H1022 C1035 0.929 . S
H1023 C1033 0.929 . S
H1024 C1028 0.929 . S
H1025 C1034 0.929 . S
C1026 H1020 0.930 . S
C1026 C1027 1.367 . S
C1026 C1034 1.378 . S
C1027 C1026 1.367 . S
C1027 C1035 1.433 . S
C1028 H1024 0.929 . S
C1028 C1030 1.378 . S
C1028 C1032 1.350 . S
C1029 C1032 1.463 . S
C1029 C1034 1.350 . S
C1029 N1037 1.427 . S
C1030 H1021 0.930 . S
C1030 C1028 1.378 . S
C1030 C1031 1.367 . S
C1031 C1030 1.367 . S
C1031 C1033 1.433 . S
C1032 C1028 1.350 . S
C1032 C1029 1.463 . S
C1032 N1036 1.427 . S
C1033 H1023 0.929 . S
C1033 C1031 1.433 . S
C1033 N1036 1.384 . S
C1034 H1025 0.929 . S
C1034 C1026 1.378 . S
C1034 C1029 1.350 . S
C1035 H1022 0.929 . S
C1035 C1027 1.433 . S
C1035 N1037 1.384 . S
N1036 C1032 1.427 . S
N1036 C1033 1.384 . S
N1037 C1029 1.427 . S
N1037 C1035 1.384 . S
H1038 C1044 0.930 . S
H1039 C1048 0.930 . S
H1040 C1053 0.929 . S
H1041 C1051 0.929 . S
H1042 C1046 0.929 . S
H1043 C1052 0.929 . S
C1044 H1038 0.930 . S
C1044 C1045 1.367 . S
C1044 C1052 1.378 . S
C1045 C1044 1.367 . S
C1045 C1053 1.433 . S
C1046 H1042 0.929 . S
C1046 C1048 1.378 . S
C1046 C1050 1.350 . S
C1047 C1050 1.463 . S
C1047 C1052 1.350 . S
C1047 N1055 1.427 . S
C1048 H1039 0.930 . S
C1048 C1046 1.378 . S
C1048 C1049 1.367 . S
C1049 C1048 1.367 . S
C1049 C1051 1.433 . S
C1050 C1046 1.350 . S
C1050 C1047 1.463 . S
C1050 N1054 1.427 . S
C1051 H1041 0.929 . S
C1051 C1049 1.433 . S
C1051 N1054 1.384 . S
C1052 H1043 0.929 . S
C1052 C1044 1.378 . S
C1052 C1047 1.350 . S
C1053 H1040 0.929 . S
C1053 C1045 1.433 . S
C1053 N1055 1.384 . S
N1054 C1050 1.427 . S
N1054 C1051 1.384 . S
N1055 C1047 1.427 . S
N1055 C1053 1.384 . S
H1056 C1062 0.930 . S
H1057 C1066 0.930 . S
H1058 C1071 0.929 . S
H1059 C1069 0.929 . S
H1060 C1064 0.929 . S
H1061 C1070 0.929 . S
C1062 H1056 0.930 . S
C1062 C1063 1.367 . S
C1062 C1070 1.378 . S
C1063 C1062 1.367 . S
C1063 C1071 1.433 . S
C1064 H1060 0.929 . S
C1064 C1066 1.378 . S
C1064 C1068 1.350 . S
C1065 C1068 1.463 . S
C1065 C1070 1.350 . S
C1065 N1073 1.427 . S
C1066 H1057 0.930 . S
C1066 C1064 1.378 . S
C1066 C1067 1.367 . S
C1067 C1066 1.367 . S
C1067 C1069 1.433 . S
C1068 C1064 1.350 . S
C1068 C1065 1.463 . S
C1068 N1072 1.427 . S
C1069 H1059 0.929 . S
C1069 C1067 1.433 . S
C1069 N1072 1.384 . S
C1070 H1061 0.929 . S
C1070 C1062 1.378 . S
C1070 C1065 1.350 . S
C1071 H1058 0.929 . S
C1071 C1063 1.433 . S
C1071 N1073 1.384 . S
N1072 C1068 1.427 . S
N1072 C1069 1.384 . S
N1073 C1065 1.427 . S
N1073 C1071 1.384 . S
H1074 C1080 0.930 . S
H1075 C1084 0.930 . S
H1076 C1089 0.929 . S
H1077 C1087 0.929 . S
H1078 C1082 0.929 . S
H1079 C1088 0.929 . S
C1080 H1074 0.930 . S
C1080 C1081 1.367 1_545 S
C1080 C1088 1.378 . S
C1081 C1080 1.367 1_565 S
C1081 C1089 1.433 . S
C1082 H1078 0.929 . S
C1082 C1084 1.378 . S
C1082 C1086 1.350 . S
C1083 C1086 1.463 . S
C1083 C1088 1.350 1_565 S
C1083 N1091 1.427 . S
C1084 H1075 0.930 . S
C1084 C1082 1.378 . S
C1084 C1085 1.367 . S
C1085 C1084 1.367 . S
C1085 C1087 1.433 1_565 S
C1086 C1082 1.350 . S
C1086 C1083 1.463 . S
C1086 N1090 1.427 1_565 S
C1087 H1077 0.929 . S
C1087 C1085 1.433 1_545 S
C1087 N1090 1.384 . S
C1088 H1079 0.929 . S
C1088 C1080 1.378 . S
C1088 C1083 1.350 1_545 S
C1089 H1076 0.929 . S
C1089 C1081 1.433 . S
C1089 N1091 1.384 . S
N1090 C1086 1.427 1_545 S
N1090 C1087 1.384 . S
N1091 C1083 1.427 . S
N1091 C1089 1.384 . S
H1092 C1098 0.930 . S
H1093 C1102 0.930 . S
H1094 C1107 0.929 . S
H1095 C1105 0.929 . S
H1096 C1100 0.929 . S
H1097 C1106 0.929 . S
C1098 H1092 0.930 . S
C1098 C1099 1.367 . S
C1098 C1106 1.378 . S
C1099 C1098 1.367 . S
C1099 C1107 1.433 . S
C1100 H1096 0.929 . S
C1100 C1102 1.378 . S
C1100 C1104 1.350 . S
C1101 C1104 1.463 . S
C1101 C1106 1.350 . S
C1101 N1109 1.427 . S
C1102 H1093 0.930 . S
C1102 C1100 1.378 . S
C1102 C1103 1.367 . S
C1103 C1102 1.367 . S
C1103 C1105 1.433 . S
C1104 C1100 1.350 . S
C1104 C1101 1.463 . S
C1104 N1108 1.427 . S
C1105 H1095 0.929 . S
C1105 C1103 1.433 . S
C1105 N1108 1.384 . S
C1106 H1097 0.929 . S
C1106 C1098 1.378 . S
C1106 C1101 1.350 . S
C1107 H1094 0.929 . S
C1107 C1099 1.433 . S
C1107 N1109 1.384 . S
N1108 C1104 1.427 . S
N1108 C1105 1.384 . S
N1109 C1101 1.427 . S
N1109 C1107 1.384 . S
H1110 C1116 0.930 . S
H1111 C1120 0.930 . S
H1112 C1125 0.929 . S
H1113 C1123 0.929 1_565 S
H1114 C1118 0.929 . S
H1115 C1124 0.929 . S
C1116 H1110 0.930 . S
C1116 C1117 1.367 1_565 S
C1116 C1124 1.378 . S
C1117 C1116 1.367 1_545 S
C1117 C1125 1.433 . S
C1118 H1114 0.929 . S
C1118 C1120 1.378 . S
C1118 C1122 1.350 . S
C1119 C1122 1.463 . S
C1119 C1124 1.350 1_545 S
C1119 N1127 1.427 . S
C1120 H1111 0.930 . S
C1120 C1118 1.378 . S
C1120 C1121 1.367 . S
C1121 C1120 1.367 . S
C1121 C1123 1.433 . S
C1122 C1118 1.350 . S
C1122 C1119 1.463 . S
C1122 N1126 1.427 . S
C1123 H1113 0.929 1_545 S
C1123 C1121 1.433 . S
C1123 N1126 1.384 . S
C1124 H1115 0.929 . S
C1124 C1116 1.378 . S
C1124 C1119 1.350 1_565 S
C1125 H1112 0.929 . S
C1125 C1117 1.433 . S
C1125 N1127 1.384 . S
N1126 C1122 1.427 . S
N1126 C1123 1.384 . S
N1127 C1119 1.427 . S
N1127 C1125 1.384 . S
H1128 C1134 0.930 . S
H1129 C1138 0.930 . S
H1130 C1143 0.929 . S
H1131 C1141 0.929 . S
H1132 C1136 0.929 . S
H1133 C1142 0.929 . S
C1134 H1128 0.930 . S
C1134 C1135 1.367 . S
C1134 C1142 1.378 . S
C1135 C1134 1.367 . S
C1135 C1143 1.433 . S
C1136 H1132 0.929 . S
C1136 C1138 1.378 . S
C1136 C1140 1.350 . S
C1137 C1140 1.463 . S
C1137 C1142 1.350 . S
C1137 N1145 1.427 . S
C1138 H1129 0.930 . S
C1138 C1136 1.378 . S
C1138 C1139 1.367 . S
C1139 C1138 1.367 . S
C1139 C1141 1.433 . S
C1140 C1136 1.350 . S
C1140 C1137 1.463 . S
C1140 N1144 1.427 . S
C1141 H1131 0.929 . S
C1141 C1139 1.433 . S
C1141 N1144 1.384 . S
C1142 H1133 0.929 . S
C1142 C1134 1.378 . S
C1142 C1137 1.350 . S
C1143 H1130 0.929 . S
C1143 C1135 1.433 . S
C1143 N1145 1.384 . S
N1144 C1140 1.427 . S
N1144 C1141 1.384 . S
N1145 C1137 1.427 . S
N1145 C1143 1.384 . S
H1146 C1152 0.930 . S
H1147 C1156 0.930 . S
H1148 C1161 0.926 1_556 S
H1149 C1159 0.929 . S
H1150 C1154 0.929 . S
H1151 C1160 0.929 . S
C1152 H1146 0.930 . S
C1152 C1153 1.367 . S
C1152 C1160 1.378 . S
C1153 C1152 1.367 . S
C1153 C1161 1.443 . S
C1154 H1150 0.929 . S
C1154 C1156 1.378 . S
C1154 C1158 1.350 . S
C1155 C1158 1.458 1_554 S
C1155 C1160 1.357 . S
C1155 N1163 1.424 1_554 S
C1156 H1147 0.930 . S
C1156 C1154 1.378 . S
C1156 C1157 1.367 . S
C1157 C1156 1.367 . S
C1157 C1159 1.433 . S
C1158 C1154 1.350 . S
C1158 C1155 1.458 1_556 S
C1158 N1162 1.431 . S
C1159 H1149 0.929 . S
C1159 C1157 1.433 . S
C1159 N1162 1.387 . S
C1160 H1151 0.929 . S
C1160 C1152 1.378 . S
C1160 C1155 1.357 . S
C1161 H1148 0.926 1_554 S
C1161 C1153 1.443 . S
C1161 N1163 1.379 1_554 S
N1162 C1158 1.431 . S
N1162 C1159 1.387 . S
N1163 C1155 1.424 1_556 S
N1163 C1161 1.379 1_556 S
H1164 C1170 0.930 . S
H1165 C1174 0.930 . S
H1166 C1179 0.929 . S
H1167 C1177 0.929 . S
H1168 C1172 0.929 . S
H1169 C1178 0.929 . S
C1170 H1164 0.930 . S
C1170 C1171 1.367 1_556 S
C1170 C1178 1.378 . S
C1171 C1170 1.367 1_554 S
C1171 C1179 1.433 . S
C1172 H1168 0.929 . S
C1172 C1174 1.378 . S
C1172 C1176 1.350 1_554 S
C1173 C1176 1.463 . S
C1173 C1178 1.350 . S
C1173 N1181 1.427 1_556 S
C1174 H1165 0.930 . S
C1174 C1172 1.378 . S
C1174 C1175 1.367 1_554 S
C1175 C1174 1.367 1_556 S
C1175 C1177 1.433 . S
C1176 C1172 1.350 1_556 S
C1176 C1173 1.463 . S
C1176 N1180 1.427 . S
C1177 H1167 0.929 . S
C1177 C1175 1.433 . S
C1177 N1180 1.384 . S
C1178 H1169 0.929 . S
C1178 C1170 1.378 . S
C1178 C1173 1.350 . S
C1179 H1166 0.929 . S
C1179 C1171 1.433 . S
C1179 N1181 1.384 . S
N1180 C1176 1.427 . S
N1180 C1177 1.384 . S
N1181 C1173 1.427 1_554 S
N1181 C1179 1.384 . S
H1182 C1188 0.930 . S
H1183 C1192 0.930 . S
H1184 C1197 0.929 . S
H1185 C1195 0.929 1_556 S
H1186 C1190 0.929 . S
H1187 C1196 0.929 . S
C1188 H1182 0.930 . S
C1188 C1189 1.367 . S
C1188 C1196 1.378 . S
C1189 C1188 1.367 . S
C1189 C1197 1.433 . S
C1190 H1186 0.929 . S
C1190 C1192 1.378 . S
C1190 C1194 1.350 . S
C1191 C1194 1.463 . S
C1191 C1196 1.350 . S
C1191 N1199 1.427 . S
C1192 H1183 0.930 . S
C1192 C1190 1.378 . S
C1192 C1193 1.367 . S
C1193 C1192 1.367 . S
C1193 C1195 1.433 . S
C1194 C1190 1.350 . S
C1194 C1191 1.463 . S
C1194 N1198 1.427 . S
C1195 H1185 0.929 1_554 S
C1195 C1193 1.433 . S
C1195 N1198 1.384 . S
C1196 H1187 0.929 . S
C1196 C1188 1.378 . S
C1196 C1191 1.350 . S
C1197 H1184 0.929 . S
C1197 C1189 1.433 . S
C1197 N1199 1.384 . S
N1198 C1194 1.427 . S
N1198 C1195 1.384 . S
N1199 C1191 1.427 . S
N1199 C1197 1.384 . S
C343 C13 1.853 . S
C347 C226 1.694 . S
C365 C246 1.738 . S
C361 C1 1.776 . S
C383 C185 1.582 . S
C379 C27 1.564 . S
C397 C15 1.502 . S
C401 C206 1.508 . S
C415 C28 1.494 . S
C419 C331 1.355 . S
C433 C55 1.414 . S
C437 C311 1.426 . S
C455 C267 1.672 . S
C451 C40 1.721 . S
C469 C43 1.490 . S
C473 C288 1.461 . S
C491 C205 1.442 . S
C487 C56 1.565 . S
C509 C248 1.475 . S
C505 C83 1.479 . S
C523 C96 1.681 . S
C527 C225 1.643 . S
C541 C71 1.534 . S
C545 C289 1.410 . S
C563 C310 1.684 . S
C559 C99 1.856 . S
C581 C330 1.738 1_565 S
C577 C111 1.776 . S
C595 C113 1.560 . S
C599 C290 1.582 . S
C617 C269 1.503 . S
C613 C125 1.501 . S
C631 C139 1.495 . S
C635 C247 1.353 . S
C649 C153 1.412 . S
C653 C227 1.424 . S
C671 C204 1.685 . S
C667 C127 1.729 . S
C685 C141 1.490 . S
C689 C183 1.461 . S
C707 C268 1.434 . S
C703 C84 1.558 . S
C725 C332 1.474 . S
C721 C154 1.481 . S
C739 C68 1.686 . S
C743 C309 1.653 . S
C757 C166 1.535 . S
C761 C184 1.421 . S
C779 C182 1.173 . S
C775 C0 1.258 . S
C793 C12 1.200 . S
C797 C203 1.156 . S
C815 C228 1.189 . S
C811 C14 1.326 . S
C833 C244 1.403 . S
C829 C26 1.761 . S
C847 C41 1.152 . S
C851 C181 0.899 . S
C865 C42 1.732 . S
C869 C202 1.330 . S
C887 C224 1.149 . S
C883 C29 1.207 . S
C901 C54 1.107 . S
C905 C249 1.040 . S
C919 C69 1.073 . S
C923 C186 0.993 . S
C941 C223 1.375 . S
C937 C70 1.722 . S
C955 C85 1.551 . S
C959 C245 1.487 . S
C973 C82 1.112 . S
C977 C270 1.011 . S
C995 C287 1.149 . S
C991 C110 1.253 . S
C1009 C98 1.196 . S
C1013 C266 1.170 . S
C1027 C124 1.328 . S
C1031 C312 1.205 . S
C1045 C112 1.762 . S
C1049 C328 1.417 . S
C1063 C126 1.152 . S
C1067 C286 0.911 . S
C1085 C265 1.310 . S
C1081 C140 1.728 . S
C1099 C138 1.199 . S
C1103 C308 1.133 . S
C1121 C333 1.029 . S
C1117 C152 1.100 . S
C1139 C291 0.975 . S
C1135 C97 1.072 . S
C1157 C307 1.380 . S
C1153 C167 1.716 . S
C1175 C329 1.502 . S
C1171 C57 1.550 . S
C1189 C155 1.111 . S
C1193 C207 1.019 . S
