# Generated by pormake.
# Topology pto, (3,4)-cn, num edge types: 1
# Building blocks:
#     Node 0, Type 0, BuildingBlock: OLANEW_clean_sbu_2, # of connection points: 3
#     Node 1, Type 0, BuildingBlock: OLANEW_clean_sbu_2, # of connection points: 3
#     Node 2, Type 0, BuildingBlock: OLANEW_clean_sbu_2, # of connection points: 3
#     Node 3, Type 0, BuildingBlock: OLANEW_clean_sbu_2, # of connection points: 3
#     Node 4, Type 0, BuildingBlock: OLANEW_clean_sbu_2, # of connection points: 3
#     Node 5, Type 0, BuildingBlock: OLANEW_clean_sbu_2, # of connection points: 3
#     Node 6, Type 0, BuildingBlock: OLANEW_clean_sbu_2, # of connection points: 3
#     Node 7, Type 0, BuildingBlock: OLANEW_clean_sbu_2, # of connection points: 3
#     Node 8, Type 1, BuildingBlock: NAWXER_clean_sbu_0, # of connection points: 4
#     Node 9, Type 1, BuildingBlock: NAWXER_clean_sbu_0, # of connection points: 4
#     Node 10, Type 1, BuildingBlock: NAWXER_clean_sbu_0, # of connection points: 4
#     Node 11, Type 1, BuildingBlock: NAWXER_clean_sbu_0, # of connection points: 4
#     Node 12, Type 1, BuildingBlock: NAWXER_clean_sbu_0, # of connection points: 4
#     Node 13, Type 1, BuildingBlock: NAWXER_clean_sbu_0, # of connection points: 4
#     Edge 14, Type (0, 1), BuildingBlock: AJUNOK_clean_linker_0, # of connection points: 2
#     Edge 15, Type (0, 1), BuildingBlock: AJUNOK_clean_linker_0, # of connection points: 2
#     Edge 16, Type (0, 1), BuildingBlock: AJUNOK_clean_linker_0, # of connection points: 2
#     Edge 17, Type (0, 1), BuildingBlock: AJUNOK_clean_linker_0, # of connection points: 2
#     Edge 18, Type (0, 1), BuildingBlock: AJUNOK_clean_linker_0, # of connection points: 2
#     Edge 19, Type (0, 1), BuildingBlock: AJUNOK_clean_linker_0, # of connection points: 2
#     Edge 20, Type (0, 1), BuildingBlock: AJUNOK_clean_linker_0, # of connection points: 2
#     Edge 21, Type (0, 1), BuildingBlock: AJUNOK_clean_linker_0, # of connection points: 2
#     Edge 22, Type (0, 1), BuildingBlock: AJUNOK_clean_linker_0, # of connection points: 2
#     Edge 23, Type (0, 1), BuildingBlock: AJUNOK_clean_linker_0, # of connection points: 2
#     Edge 24, Type (0, 1), BuildingBlock: AJUNOK_clean_linker_0, # of connection points: 2
#     Edge 25, Type (0, 1), BuildingBlock: AJUNOK_clean_linker_0, # of connection points: 2
#     Edge 26, Type (0, 1), BuildingBlock: AJUNOK_clean_linker_0, # of connection points: 2
#     Edge 27, Type (0, 1), BuildingBlock: AJUNOK_clean_linker_0, # of connection points: 2
#     Edge 28, Type (0, 1), BuildingBlock: AJUNOK_clean_linker_0, # of connection points: 2
#     Edge 29, Type (0, 1), BuildingBlock: AJUNOK_clean_linker_0, # of connection points: 2
#     Edge 30, Type (0, 1), BuildingBlock: AJUNOK_clean_linker_0, # of connection points: 2
#     Edge 31, Type (0, 1), BuildingBlock: AJUNOK_clean_linker_0, # of connection points: 2
#     Edge 32, Type (0, 1), BuildingBlock: AJUNOK_clean_linker_0, # of connection points: 2
#     Edge 33, Type (0, 1), BuildingBlock: AJUNOK_clean_linker_0, # of connection points: 2
#     Edge 34, Type (0, 1), BuildingBlock: AJUNOK_clean_linker_0, # of connection points: 2
#     Edge 35, Type (0, 1), BuildingBlock: AJUNOK_clean_linker_0, # of connection points: 2
#     Edge 36, Type (0, 1), BuildingBlock: AJUNOK_clean_linker_0, # of connection points: 2
#     Edge 37, Type (0, 1), BuildingBlock: AJUNOK_clean_linker_0, # of connection points: 2
# Relax obj value: 0.014
# Max RMSD: 0.127
# Mean RMSD: 0.054
data_MOF--net-pto--node1-OLANEW_clean_sbu_2--node2-NAWXER_clean_sbu_0--edge1-AJUNOK_clean_linker_0
_symmetry_space_group_name_H-M    P1
_symmetry_Int_Tables_number       1
_symmetry_cell_setting            triclinic
loop_
_symmetry_equiv_pos_as_xyz
'x, y, z'
_cell_length_a     33.236835
_cell_length_b     32.997077
_cell_length_c     30.109841
_cell_angle_alpha  93.263999
_cell_angle_beta   90.388671
_cell_angle_gamma 104.20752
loop_
_atom_site_label
_atom_site_type_symbol
_atom_site_fract_x
_atom_site_fract_y
_atom_site_fract_z
_atom_type_partial_charge
O0 O 0.35218 0.41263 0.25484 0.0
Cd1 Cd 0.3173 0.40642 0.3253 0.0
O2 O 0.32987 0.46057 0.22069 0.0
Cd3 Cd 0.28559 0.47095 0.27113 0.0
O4 O 0.22802 0.48821 0.28996 0.0
C5 C 0.19975 0.47986 0.25981 0.0
O6 O 0.20701 0.46091 0.22221 0.0
C7 C 0.35231 0.43444 0.22145 0.0
C8 C 0.32895 0.33157 0.35555 0.0
O9 O 0.2967 0.33245 0.33243 0.0
O10 O 0.35494 0.36654 0.36603 0.0
O11 O 0.42493 0.99663 0.8444 0.0
Cd12 Cd 0.38326 0.03895 0.81173 0.0
O13 O 0.36922 0.94582 0.85108 0.0
Cd14 Cd 0.32729 0.8862 0.86867 0.0
O15 O 0.27368 0.83164 0.85951 0.0
C16 C 0.24919 0.81496 0.88939 0.0
O17 O 0.25626 0.8297 0.93092 0.0
C18 C 0.40834 0.96009 0.85641 0.0
C19 C 0.39103 0.04352 0.71973 0.0
O20 O 0.41555 0.06996 0.74664 0.0
O21 O 0.36345 0.01451 0.73652 0.0
O22 O 0.73975 0.78719 0.37233 0.0
Cd23 Cd 0.7268 0.71882 0.33084 0.0
O24 O 0.67629 0.79299 0.35951 0.0
Cd25 Cd 0.66358 0.74422 0.30596 0.0
O26 O 0.64915 0.74563 0.23549 0.0
C27 C 0.66521 0.7803 0.21874 0.0
O28 O 0.69031 0.80978 0.24392 0.0
C29 C 0.71148 0.80674 0.37883 0.0
C30 C 0.79671 0.68701 0.31591 0.0
O31 O 0.78484 0.70984 0.288 0.0
O32 O 0.77604 0.68 0.35164 0.0
O33 O 0.85836 0.37012 0.75993 0.0
Cd34 Cd 0.79187 0.32184 0.7366 0.0
O35 O 0.81747 0.40234 0.79501 0.0
Cd36 Cd 0.78786 0.44444 0.83356 0.0
O37 O 0.72934 0.43802 0.86778 0.0
C38 C 0.69929 0.45148 0.85346 0.0
O39 O 0.70431 0.47409 0.81847 0.0
C40 C 0.85423 0.40146 0.78442 0.0
C41 C 0.79485 0.25084 0.68296 0.0
O42 O 0.79966 0.28666 0.66653 0.0
O43 O 0.78956 0.24865 0.72497 0.0
O44 O 0.83753 0.82777 0.64929 0.0
Cd45 Cd 0.816 0.75857 0.67834 0.0
O46 O 0.80087 0.85611 0.69691 0.0
Cd47 Cd 0.77066 0.80166 0.73351 0.0
O48 O 0.72856 0.78219 0.78845 0.0
C49 C 0.68979 0.76619 0.783 0.0
O50 O 0.67434 0.75733 0.74232 0.0
C51 C 0.82601 0.85962 0.66484 0.0
C52 C 0.88516 0.72901 0.69926 0.0
O53 O 0.86785 0.72095 0.66051 0.0
O54 O 0.86944 0.75068 0.72778 0.0
O55 O 0.828 0.30215 0.22401 0.0
Cd56 Cd 0.78209 0.23179 0.22151 0.0
O57 O 0.79422 0.32183 0.16931 0.0
Cd58 Cd 0.73963 0.26942 0.16315 0.0
O59 O 0.67767 0.26868 0.13799 0.0
C60 C 0.6711 0.30499 0.13685 0.0
O61 O 0.70047 0.33736 0.15196 0.0
C62 C 0.82461 0.32933 0.19688 0.0
C63 C 0.79767 0.1866 0.29273 0.0
O64 O 0.81789 0.18657 0.25666 0.0
O65 O 0.77026 0.20799 0.29494 0.0
O66 O 0.22854 0.33765 0.89068 0.0
Cd67 Cd 0.15986 0.33674 0.86142 0.0
O68 O 0.24713 0.33475 0.82139 0.0
Cd69 Cd 0.28653 0.32404 0.76695 0.0
O70 O 0.29758 0.29111 0.7053 0.0
C71 C 0.26858 0.26078 0.68973 0.0
O72 O 0.23377 0.25077 0.71155 0.0
C73 C 0.25649 0.33653 0.86251 0.0
C74 C 0.15745 0.41443 0.83144 0.0
O75 O 0.15307 0.40654 0.87255 0.0
O76 O 0.16283 0.38529 0.80385 0.0
O77 O 0.345 0.82478 0.19355 0.0
Cd78 Cd 0.28894 0.83117 0.24439 0.0
O79 O 0.30541 0.81558 0.13316 0.0
Cd80 Cd 0.25076 0.82191 0.16925 0.0
O81 O 0.18894 0.79091 0.18946 0.0
C82 C 0.16368 0.77346 0.15819 0.0
O83 O 0.17554 0.77865 0.11693 0.0
C84 C 0.34038 0.81758 0.1516 0.0
C85 C 0.30145 0.9053 0.2983 0.0
O86 O 0.31779 0.87562 0.30852 0.0
O87 O 0.27986 0.90041 0.26207 0.0
C88 C 0.93581 0.4962 0.20987 0.0
C89 C 0.02835 0.63364 0.19885 0.0
O90 O 0.94948 0.51258 0.24848 0.0
Zn91 Zn 0.98929 0.57122 0.27491 0.0
O92 O 0.94627 0.51697 0.17587 0.0
Zn93 Zn 0.98116 0.56579 0.20516 0.0
O94 O 0.032 0.54341 0.23027 0.0
O95 O 0.03399 0.5531 0.30338 0.0
O96 O 0.00862 0.60858 0.16808 0.0
O97 O 0.02394 0.62359 0.23945 0.0
O98 O 0.95256 0.59618 0.31143 0.0
O99 O 0.93891 0.59526 0.2397 0.0
C100 C 0.04898 0.54048 0.26796 0.0
C101 C 0.93131 0.60527 0.27994 0.0
C102 C 0.99189 0.54771 0.82019 0.0
C103 C 0.10735 0.67355 0.84389 0.0
O104 O 1.00031 0.56991 0.85666 0.0
Zn105 Zn 0.04774 0.61179 0.83474 0.0
O106 O 0.01285 0.55915 0.78564 0.0
Zn107 Zn 0.06348 0.60669 0.76526 0.0
O108 O 0.1011 0.57233 0.74669 0.0
O109 O 0.08973 0.57396 0.81897 0.0
O110 O 0.10297 0.6574 0.80388 0.0
O111 O 0.08213 0.65695 0.87324 0.0
O112 O 0.01786 0.64431 0.79143 0.0
O113 O 0.03687 0.63429 0.72241 0.0
C114 C 0.10749 0.56102 0.78532 0.0
C115 C 0.01578 0.65069 0.75003 0.0
C116 C 0.37651 0.0866 0.53885 0.0
C117 C 0.35316 0.17896 0.4259 0.0
O118 O 0.33834 0.07978 0.52641 0.0
Zn119 Zn 0.30159 0.10247 0.47935 0.0
O120 O 0.40406 0.11295 0.51923 0.0
Zn121 Zn 0.36675 0.12941 0.47824 0.0
O122 O 0.33234 0.15868 0.5247 0.0
O123 O 0.26617 0.12486 0.52004 0.0
O124 O 0.38798 0.1754 0.44067 0.0
O125 O 0.31975 0.15342 0.4373 0.0
O126 O 0.27776 0.05472 0.43929 0.0
O127 O 0.34581 0.07489 0.43389 0.0
C128 C 0.29493 0.15455 0.53743 0.0
C129 C 0.31107 0.04948 0.4222 0.0
C130 C 0.59443 0.81833 0.05382 0.0
C131 C 0.5143 0.87136 0.94457 0.0
O132 O 0.56705 0.78915 0.03275 0.0
Zn133 Zn 0.52176 0.78342 0.97947 0.0
O134 O 0.59965 0.85596 0.04305 0.0
Zn135 Zn 0.55759 0.84544 0.997 0.0
O136 O 0.50303 0.82473 0.03481 0.0
O137 O 0.47046 0.76062 0.01002 0.0
O138 O 0.54528 0.89193 0.96812 0.0
O139 O 0.50341 0.83144 0.94577 0.0
O140 O 0.54122 0.75073 0.9318 0.0
O141 O 0.58374 0.81285 0.94664 0.0
C142 C 0.47265 0.79245 0.0368 0.0
C143 C 0.57499 0.7773 0.92472 0.0
C144 C 0.84079 0.00494 0.56508 0.0
C145 C 0.8173 0.08697 0.44152 0.0
O146 O 0.80346 0.00856 0.5615 0.0
Zn147 Zn 0.76699 0.03648 0.52023 0.0
O148 O 0.86817 0.02312 0.53861 0.0
Zn149 Zn 0.83114 0.04719 0.50384 0.0
O150 O 0.81601 0.09402 0.54894 0.0
O151 O 0.74886 0.07437 0.56203 0.0
O152 O 0.85122 0.0785 0.45245 0.0
O153 O 0.78476 0.07324 0.46414 0.0
O154 O 0.72737 0.98703 0.49486 0.0
O155 O 0.79165 0.99081 0.47434 0.0
C156 C 0.78376 0.10058 0.56838 0.0
C157 C 0.7533 0.97103 0.47375 0.0
C158 C 0.52884 0.33792 0.04436 0.0
C159 C 0.41676 0.34757 0.94436 0.0
O160 O 0.50109 0.30874 0.02494 0.0
Zn161 Zn 0.47379 0.34398 0.99461 0.0
O162 O 0.52871 0.37629 0.03882 0.0
Zn163 Zn 0.49113 0.40934 0.00108 0.0
O164 O 0.46948 0.44047 0.04685 0.0
O165 O 0.44657 0.37203 0.04945 0.0
O166 O 0.43788 0.38426 0.95776 0.0
O167 O 0.42727 0.31569 0.95719 0.0
O168 O 0.52276 0.37351 0.95133 0.0
O169 O 0.53136 0.44172 0.96345 0.0
C170 C 0.44774 0.40918 0.06551 0.0
C171 C 0.54198 0.41113 0.94362 0.0
C172 C 0.13245 0.48736 0.22839 0.0
C173 C 0.16043 0.49349 0.26486 0.0
C174 C 0.09635 0.50194 0.23033 0.0
C175 C 0.08626 0.52315 0.26893 0.0
H176 H 0.13869 0.47178 0.1975 0.0
H177 H 0.07637 0.49679 0.20091 0.0
S178 S 0.14788 0.54566 0.37471 0.0
N179 N 0.17477 0.52106 0.3416 0.0
N180 N 0.10659 0.54834 0.34529 0.0
C181 C 0.11326 0.52853 0.30623 0.0
C182 C 0.15038 0.5138 0.30418 0.0
C183 C 0.18908 0.75679 0.91054 0.0
C184 C 0.21255 0.77962 0.87724 0.0
C185 C 0.1547 0.72304 0.89973 0.0
C186 C 0.14237 0.71073 0.85517 0.0
H187 H 0.19755 0.76469 0.94532 0.0
H188 H 0.13813 0.7061 0.92653 0.0
S189 S 0.19123 0.76219 0.75541 0.0
N190 N 0.21941 0.78863 0.79775 0.0
N191 N 0.15516 0.72578 0.77753 0.0
C192 C 0.16501 0.73394 0.8216 0.0
C193 C 0.19995 0.76816 0.83258 0.0
C194 C 0.84753 0.64675 0.33964 0.0
C195 C 0.83233 0.66809 0.3066 0.0
C196 C 0.87997 0.62713 0.33112 0.0
C197 C 0.89817 0.62759 0.28904 0.0
H198 H 0.83413 0.64492 0.37237 0.0
H199 H 0.89028 0.61081 0.35749 0.0
S200 S 0.87124 0.68071 0.19154 0.0
N201 N 0.83926 0.68965 0.23047 0.0
N202 N 0.89974 0.65268 0.21445 0.0
C203 C 0.88374 0.64936 0.25591 0.0
C204 C 0.85101 0.66963 0.26469 0.0
C205 C 0.88794 0.46859 0.82942 0.0
C206 C 0.89096 0.43648 0.79749 0.0
C207 C 0.92133 0.50379 0.83865 0.0
C208 C 0.95888 0.50819 0.81611 0.0
H209 H 0.85954 0.46702 0.84711 0.0
H210 H 0.91712 0.52842 0.86217 0.0
S211 S 0.98539 0.43074 0.73433 0.0
N212 N 0.9367 0.40998 0.74677 0.0
N213 N 0.99893 0.47559 0.76425 0.0
C214 C 0.96319 0.47528 0.78615 0.0
C215 C 0.92945 0.43957 0.77687 0.0
C216 C 0.37254 0.29136 0.394 0.0
C217 C 0.33619 0.29145 0.36966 0.0
C218 C 0.37929 0.25424 0.40957 0.0
C219 C 0.34982 0.21581 0.40163 0.0
H220 H 0.39565 0.32033 0.40206 0.0
H221 H 0.40682 0.25608 0.42982 0.0
S222 S 0.25174 0.19793 0.3355 0.0
N223 N 0.27202 0.24885 0.33521 0.0
N224 N 0.28465 0.17938 0.36474 0.0
C225 C 0.31433 0.21508 0.37558 0.0
C226 C 0.30752 0.25279 0.35955 0.0
C227 C 0.46854 0.95802 0.90502 0.0
C228 C 0.4348 0.93629 0.87758 0.0
C229 C 0.49472 0.93694 0.92553 0.0
C230 C 0.48838 0.89325 0.91921 0.0
H231 H 0.47441 0.99164 0.91133 0.0
H232 H 0.51962 0.95507 0.94719 0.0
S233 S 0.40725 0.82254 0.84588 0.0
N234 N 0.39868 0.86939 0.84174 0.0
N235 N 0.44726 0.82931 0.8807 0.0
C236 C 0.45542 0.87128 0.89061 0.0
C237 C 0.42875 0.89288 0.86974 0.0
C238 C 0.76183 0.86799 0.41683 0.0
C239 C 0.72047 0.84725 0.4057 0.0
C240 C 0.77179 0.90786 0.43865 0.0
C241 C 0.74086 0.92873 0.45071 0.0
H242 H 0.78697 0.85379 0.40779 0.0
H243 H 0.80425 0.92239 0.44612 0.0
S244 S 0.62746 0.88732 0.43139 0.0
N245 N 0.64799 0.85004 0.40987 0.0
N246 N 0.66691 0.92499 0.45123 0.0
C247 C 0.69924 0.90802 0.44085 0.0
C248 C 0.68904 0.86736 0.41827 0.0
C249 C 0.6307 0.46576 0.87285 0.0
C250 C 0.65839 0.43975 0.87474 0.0
C251 C 0.59242 0.45581 0.89422 0.0
C252 C 0.58004 0.41892 0.9171 0.0
H253 H 0.63912 0.49458 0.85579 0.0
H254 H 0.57255 0.47733 0.89319 0.0
S255 S 0.64047 0.33937 0.93026 0.0
N256 N 0.67026 0.37496 0.90048 0.0
N257 N 0.59816 0.35593 0.93972 0.0
C258 C 0.6069 0.39203 0.91806 0.0
C259 C 0.64614 0.40255 0.89716 0.0
C260 C 0.42062 0.08314 0.65399 0.0
C261 C 0.39226 0.04873 0.67101 0.0
C262 C 0.41781 0.09315 0.6096 0.0
C263 C 0.38637 0.06928 0.58068 0.0
H264 H 0.44388 0.10386 0.67563 0.0
H265 H 0.43854 0.12148 0.5989 0.0
S266 S 0.30936 0.97171 0.606 0.0
N267 N 0.33549 0.98735 0.65327 0.0
N268 N 0.33009 0.00654 0.57013 0.0
C269 C 0.36012 0.03285 0.5961 0.0
C270 C 0.36309 0.02247 0.64119 0.0
C271 C 0.62067 0.75915 0.1499 0.0
C272 C 0.65169 0.78922 0.17398 0.0
C273 C 0.60365 0.7684 0.11018 0.0
C274 C 0.61682 0.80816 0.09285 0.0
H275 H 0.60836 0.72854 0.16246 0.0
H276 H 0.57888 0.74449 0.09385 0.0
S277 S 0.70079 0.89644 0.1401 0.0
N278 N 0.69762 0.85931 0.17534 0.0
N279 N 0.66544 0.87666 0.1008 0.0
C280 C 0.64931 0.83786 0.11532 0.0
C281 C 0.66679 0.82839 0.15579 0.0
C282 C 0.76814 0.17396 0.66482 0.0
C283 C 0.7936 0.21277 0.65398 0.0
C284 C 0.76462 0.1378 0.63667 0.0
C285 C 0.78736 0.139 0.59737 0.0
H286 H 0.75007 0.17166 0.6948 0.0
H287 H 0.74436 0.10863 0.64599 0.0
S288 S 0.85891 0.23254 0.55431 0.0
N289 N 0.84182 0.25016 0.60113 0.0
N290 N 0.8363 0.18197 0.54906 0.0
C291 C 0.8134 0.17742 0.5865 0.0
C292 C 0.81622 0.21439 0.61457 0.0
C293 C 0.38778 0.4585 0.15094 0.0
C294 C 0.37761 0.42794 0.18251 0.0
C295 C 0.41099 0.45249 0.11347 0.0
C296 C 0.42419 0.41537 0.10576 0.0
H297 H 0.37789 0.48738 0.15523 0.0
H298 H 0.41802 0.47683 0.09 0.0
S299 S 0.40642 0.32581 0.17846 0.0
N300 N 0.3833 0.35934 0.20374 0.0
N301 N 0.42634 0.34803 0.13318 0.0
C302 C 0.41442 0.38464 0.13708 0.0
C303 C 0.39132 0.39094 0.17549 0.0
C304 C 0.93531 0.68488 0.68106 0.0
C305 C 0.92142 0.71262 0.71112 0.0
C306 C 0.96742 0.66645 0.69289 0.0
C307 C 0.98662 0.67494 0.73528 0.0
H308 H 0.92055 0.67636 0.64854 0.0
H309 H 0.97598 0.64409 0.66936 0.0
S310 S 0.9657 0.74935 0.82416 0.0
N311 N 0.93234 0.75055 0.78371 0.0
N312 N 0.99233 0.71592 0.8058 0.0
C313 C 0.97449 0.70417 0.76478 0.0
C314 C 0.94199 0.723 0.75276 0.0
C315 C 0.87793 0.3865 0.23767 0.0
C316 C 0.8547 0.37081 0.19847 0.0
C317 C 0.90405 0.42704 0.24103 0.0
C318 C 0.90836 0.45327 0.20516 0.0
H319 H 0.87517 0.36777 0.26639 0.0
H320 H 0.92093 0.43787 0.27211 0.0
S321 S 0.8561 0.42604 0.09417 0.0
N322 N 0.83896 0.38401 0.12237 0.0
N323 N 0.88812 0.45991 0.12856 0.0
C324 C 0.88608 0.43752 0.16536 0.0
C325 C 0.85926 0.3964 0.16208 0.0
C326 C 0.13749 0.45786 0.77339 0.0
C327 C 0.15343 0.45515 0.8163 0.0
C328 C 0.12603 0.49415 0.76156 0.0
C329 C 0.13043 0.52878 0.79226 0.0
H330 H 0.1312 0.43088 0.74985 0.0
H331 H 0.1108 0.49381 0.72957 0.0
S332 S 0.17891 0.54062 0.9051 0.0
N333 N 0.17897 0.4925 0.88681 0.0
N334 N 0.15778 0.56056 0.86453 0.0
C335 C 0.15001 0.5278 0.83357 0.0
C336 C 0.16139 0.49097 0.84565 0.0
C337 C 0.11741 0.73059 0.21221 0.0
C338 C 0.12504 0.74213 0.16819 0.0
C339 C 0.08492 0.6966 0.22194 0.0
C340 C 0.05867 0.67272 0.18808 0.0
H341 H 0.1377 0.74678 0.23934 0.0
H342 H 0.08149 0.68811 0.25618 0.0
S343 S 0.06147 0.69383 0.0681 0.0
N344 N 0.10074 0.72985 0.09097 0.0
N345 N 0.03966 0.66592 0.10926 0.0
C346 C 0.06422 0.68558 0.14426 0.0
C347 C 0.09737 0.72029 0.13433 0.0
C348 C 0.8225 0.93395 0.6595 0.0
C349 C 0.83868 0.90034 0.6436 0.0
C350 C 0.82708 0.97 0.63584 0.0
C351 C 0.84856 0.97427 0.5957 0.0
H352 H 0.80395 0.93158 0.68912 0.0
H353 H 0.81143 0.99363 0.64764 0.0
S354 S 0.90231 0.89866 0.54281 0.0
N355 N 0.88138 0.87603 0.58754 0.0
N356 N 0.88999 0.94422 0.54328 0.0
C357 C 0.86818 0.94284 0.58141 0.0
C358 C 0.86321 0.90573 0.6053 0.0
C359 C 0.62901 0.35292 0.11157 0.0
C360 C 0.63277 0.31174 0.11605 0.0
C361 C 0.59483 0.36089 0.08946 0.0
C362 C 0.56277 0.32807 0.07086 0.0
H363 H 0.65309 0.3795 0.12445 0.0
H364 H 0.5941 0.39323 0.08621 0.0
S365 S 0.55603 0.2143 0.07604 0.0
N366 N 0.60031 0.23754 0.10195 0.0
N367 N 0.53595 0.25243 0.06045 0.0
C368 C 0.56539 0.28661 0.0763 0.0
C369 C 0.60036 0.27848 0.09884 0.0
C370 C 0.24542 0.19761 0.63689 0.0
C371 C 0.27436 0.23577 0.64879 0.0
C372 C 0.25138 0.17207 0.59988 0.0
C373 C 0.28654 0.1837 0.57343 0.0
H374 H 0.21837 0.18677 0.6569 0.0
H375 H 0.22896 0.14243 0.59285 0.0
S376 S 0.36903 0.28285 0.58695 0.0
N377 N 0.3377 0.28547 0.62871 0.0
N378 N 0.34883 0.23773 0.55929 0.0
C379 C 0.31479 0.22261 0.58381 0.0
C380 C 0.30874 0.24856 0.62143 0.0
C381 C 0.36588 0.78649 0.08285 0.0
C382 C 0.3748 0.80952 0.12418 0.0
C383 C 0.39767 0.77879 0.05571 0.0
C384 C 0.43951 0.79451 0.06858 0.0
H385 H 0.33405 0.77443 0.07117 0.0
H386 H 0.38947 0.762 0.02366 0.0
S387 S 0.47967 0.8546 0.1743 0.0
N388 N 0.42872 0.84606 0.17743 0.0
N389 N 0.4884 0.83236 0.12601 0.0
C390 C 0.44889 0.81663 0.1102 0.0
C391 C 0.41657 0.82392 0.13813 0.0
C392 C 0.77611 0.15572 0.36521 0.0
C393 C 0.8047 0.16194 0.33054 0.0
C394 C 0.78079 0.13166 0.40079 0.0
C395 C 0.81451 0.11306 0.40361 0.0
H396 H 0.74942 0.16907 0.36473 0.0
H397 H 0.75763 0.12774 0.42639 0.0
S398 S 0.89894 0.12061 0.32217 0.0
N399 N 0.86855 0.14804 0.3016 0.0
N400 N 0.8775 0.10307 0.36891 0.0
C401 C 0.84382 0.11953 0.36961 0.0
C402 C 0.83884 0.14381 0.33297 0.0
C403 C 0.30358 0.30874 0.9102 0.0
C404 C 0.29857 0.33641 0.87805 0.0
C405 C 0.34259 0.31119 0.92964 0.0
C406 C 0.37763 0.34236 0.91869 0.0
H407 H 0.27698 0.28549 0.92098 0.0
H408 H 0.34488 0.28982 0.95502 0.0
S409 S 0.38095 0.42159 0.83544 0.0
N410 N 0.33194 0.39462 0.83453 0.0
N411 N 0.40514 0.40052 0.87259 0.0
C412 C 0.37318 0.36972 0.88594 0.0
C413 C 0.33363 0.36638 0.86517 0.0
C414 C 0.27375 0.96447 0.33022 0.0
C415 C 0.30569 0.94323 0.32854 0.0
C416 C 0.27563 0.99875 0.36069 0.0
C417 C 0.31003 0.01374 0.38979 0.0
H418 H 0.24655 0.95387 0.30863 0.0
H419 H 0.25005 0.01374 0.36131 0.0
S420 S 0.40247 0.9701 0.3977 0.0
N421 N 0.37295 0.94003 0.35828 0.0
N422 N 0.37706 0.00514 0.41457 0.0
C423 C 0.3426 0.9934 0.38775 0.0
C424 C 0.34027 0.95796 0.35742 0.0
C425 C 0.61848 0.74622 0.81527 0.0
C426 C 0.66156 0.76343 0.82155 0.0
C427 C 0.5905 0.74848 0.84962 0.0
C428 C 0.60457 0.76855 0.89123 0.0
H429 H 0.60602 0.7321 0.78314 0.0
H430 H 0.55755 0.7364 0.84281 0.0
S431 S 0.71415 0.81374 0.92718 0.0
N432 N 0.71688 0.79729 0.87474 0.0
N433 N 0.66427 0.80211 0.93852 0.0
C434 C 0.64754 0.78377 0.89879 0.0
C435 C 0.67604 0.78102 0.8642 0.0
loop_
_geom_bond_atom_site_label_1
_geom_bond_atom_site_label_2
_geom_bond_distance
_geom_bond_site_symmetry_2
_ccdc_geom_bond_type
O0 Cd1 2.300 . S
O0 C7 1.275 . S
Cd1 O0 2.300 . S
Cd1 O9 2.381 . S
Cd1 O10 2.378 . S
O2 Cd3 2.385 . S
O2 C7 1.255 . S
Cd3 O2 2.385 . S
Cd3 O4 2.317 . S
O4 Cd3 2.317 . S
O4 C5 1.232 . S
C5 O4 1.232 . S
C5 O6 1.218 . S
O6 C5 1.218 . S
C7 O0 1.275 . S
C7 O2 1.255 . S
C8 O9 1.258 . S
C8 O10 1.256 . S
O9 Cd1 2.381 . S
O9 C8 1.258 . S
O10 Cd1 2.378 . S
O10 C8 1.256 . S
O11 Cd12 2.300 . S
O11 C18 1.275 . S
Cd12 O11 2.300 . S
Cd12 O20 2.381 . S
Cd12 O21 2.378 . S
O13 Cd14 2.385 . S
O13 C18 1.255 . S
Cd14 O13 2.385 . S
Cd14 O15 2.317 . S
O15 Cd14 2.317 . S
O15 C16 1.232 . S
C16 O15 1.232 . S
C16 O17 1.218 . S
O17 C16 1.218 . S
C18 O11 1.275 . S
C18 O13 1.255 . S
C19 O20 1.258 . S
C19 O21 1.256 . S
O20 Cd12 2.381 . S
O20 C19 1.258 . S
O21 Cd12 2.378 . S
O21 C19 1.256 . S
O22 Cd23 2.300 . S
O22 C29 1.275 . S
Cd23 O22 2.300 . S
Cd23 O31 2.381 . S
Cd23 O32 2.378 . S
O24 Cd25 2.385 . S
O24 C29 1.255 . S
Cd25 O24 2.385 . S
Cd25 O26 2.317 . S
O26 Cd25 2.317 . S
O26 C27 1.232 . S
C27 O26 1.232 . S
C27 O28 1.218 . S
O28 C27 1.218 . S
C29 O22 1.275 . S
C29 O24 1.255 . S
C30 O31 1.258 . S
C30 O32 1.256 . S
O31 Cd23 2.381 . S
O31 C30 1.258 . S
O32 Cd23 2.378 . S
O32 C30 1.256 . S
O33 Cd34 2.300 . S
O33 C40 1.275 . S
Cd34 O33 2.300 . S
Cd34 O42 2.381 . S
Cd34 O43 2.378 . S
O35 Cd36 2.385 . S
O35 C40 1.255 . S
Cd36 O35 2.385 . S
Cd36 O37 2.317 . S
O37 Cd36 2.317 . S
O37 C38 1.232 . S
C38 O37 1.232 . S
C38 O39 1.218 . S
O39 C38 1.218 . S
C40 O33 1.275 . S
C40 O35 1.255 . S
C41 O42 1.258 . S
C41 O43 1.256 . S
O42 Cd34 2.381 . S
O42 C41 1.258 . S
O43 Cd34 2.378 . S
O43 C41 1.256 . S
O44 Cd45 2.300 . S
O44 C51 1.275 . S
Cd45 O44 2.300 . S
Cd45 O53 2.381 . S
Cd45 O54 2.378 . S
O46 Cd47 2.385 . S
O46 C51 1.255 . S
Cd47 O46 2.385 . S
Cd47 O48 2.317 . S
O48 Cd47 2.317 . S
O48 C49 1.232 . S
C49 O48 1.232 . S
C49 O50 1.218 . S
O50 C49 1.218 . S
C51 O44 1.275 . S
C51 O46 1.255 . S
C52 O53 1.258 . S
C52 O54 1.256 . S
O53 Cd45 2.381 . S
O53 C52 1.258 . S
O54 Cd45 2.378 . S
O54 C52 1.256 . S
O55 Cd56 2.300 . S
O55 C62 1.275 . S
Cd56 O55 2.300 . S
Cd56 O64 2.381 . S
Cd56 O65 2.378 . S
O57 Cd58 2.385 . S
O57 C62 1.255 . S
Cd58 O57 2.385 . S
Cd58 O59 2.317 . S
O59 Cd58 2.317 . S
O59 C60 1.232 . S
C60 O59 1.232 . S
C60 O61 1.218 . S
O61 C60 1.218 . S
C62 O55 1.275 . S
C62 O57 1.255 . S
C63 O64 1.258 . S
C63 O65 1.256 . S
O64 Cd56 2.381 . S
O64 C63 1.258 . S
O65 Cd56 2.378 . S
O65 C63 1.256 . S
O66 Cd67 2.300 . S
O66 C73 1.275 . S
Cd67 O66 2.300 . S
Cd67 O75 2.381 . S
Cd67 O76 2.378 . S
O68 Cd69 2.385 . S
O68 C73 1.255 . S
Cd69 O68 2.385 . S
Cd69 O70 2.317 . S
O70 Cd69 2.317 . S
O70 C71 1.232 . S
C71 O70 1.232 . S
C71 O72 1.218 . S
O72 C71 1.218 . S
C73 O66 1.275 . S
C73 O68 1.255 . S
C74 O75 1.258 . S
C74 O76 1.256 . S
O75 Cd67 2.381 . S
O75 C74 1.258 . S
O76 Cd67 2.378 . S
O76 C74 1.256 . S
O77 Cd78 2.300 . S
O77 C84 1.275 . S
Cd78 O77 2.300 . S
Cd78 O86 2.381 . S
Cd78 O87 2.378 . S
O79 Cd80 2.385 . S
O79 C84 1.255 . S
Cd80 O79 2.385 . S
Cd80 O81 2.317 . S
O81 Cd80 2.317 . S
O81 C82 1.232 . S
C82 O81 1.232 . S
C82 O83 1.218 . S
O83 C82 1.218 . S
C84 O77 1.275 . S
C84 O79 1.255 . S
C85 O86 1.258 . S
C85 O87 1.256 . S
O86 Cd78 2.381 . S
O86 C85 1.258 . S
O87 Cd78 2.378 . S
O87 C85 1.256 . S
C88 O90 1.247 . S
C88 O92 1.258 . S
C89 O96 1.247 . S
C89 O97 1.258 . S
O90 C88 1.247 . S
O90 Zn91 2.028 1_655 S
Zn91 O90 2.028 1_455 S
Zn91 O95 2.035 . S
Zn91 O97 2.035 . S
Zn91 O98 2.028 1_455 S
O92 C88 1.258 . S
O92 Zn93 2.035 1_655 S
Zn93 O92 2.035 1_455 S
Zn93 O94 2.028 . S
Zn93 O96 2.028 . S
Zn93 O99 2.035 1_455 S
O94 Zn93 2.028 . S
O94 C100 1.247 . S
O95 Zn91 2.035 . S
O95 C100 1.258 . S
O96 C89 1.247 . S
O96 Zn93 2.028 . S
O97 C89 1.258 . S
O97 Zn91 2.035 . S
O98 Zn91 2.028 1_655 S
O98 C101 1.247 . S
O99 Zn93 2.035 1_655 S
O99 C101 1.258 . S
C100 O94 1.247 . S
C100 O95 1.258 . S
C101 O98 1.247 . S
C101 O99 1.258 . S
C102 O104 1.247 . S
C102 O106 1.258 . S
C103 O110 1.247 . S
C103 O111 1.258 . S
O104 C102 1.247 . S
O104 Zn105 2.028 1_655 S
Zn105 O104 2.028 1_455 S
Zn105 O109 2.035 . S
Zn105 O111 2.035 . S
Zn105 O112 2.028 1_455 S
O106 C102 1.258 . S
O106 Zn107 2.035 1_655 S
Zn107 O106 2.035 1_455 S
Zn107 O108 2.028 . S
Zn107 O110 2.028 . S
Zn107 O113 2.035 1_455 S
O108 Zn107 2.028 . S
O108 C114 1.247 . S
O109 Zn105 2.035 . S
O109 C114 1.258 . S
O110 C103 1.247 . S
O110 Zn107 2.028 . S
O111 C103 1.258 . S
O111 Zn105 2.035 . S
O112 Zn105 2.028 1_655 S
O112 C115 1.247 . S
O113 Zn107 2.035 1_655 S
O113 C115 1.258 . S
C114 O108 1.247 . S
C114 O109 1.258 . S
C115 O112 1.247 . S
C115 O113 1.258 . S
C116 O118 1.247 . S
C116 O120 1.258 . S
C117 O124 1.247 . S
C117 O125 1.258 . S
O118 C116 1.247 . S
O118 Zn119 2.028 . S
Zn119 O118 2.028 . S
Zn119 O123 2.035 . S
Zn119 O125 2.035 . S
Zn119 O126 2.028 . S
O120 C116 1.258 . S
O120 Zn121 2.035 . S
Zn121 O120 2.035 . S
Zn121 O122 2.028 . S
Zn121 O124 2.028 . S
Zn121 O127 2.035 . S
O122 Zn121 2.028 . S
O122 C128 1.247 . S
O123 Zn119 2.035 . S
O123 C128 1.258 . S
O124 C117 1.247 . S
O124 Zn121 2.028 . S
O125 C117 1.258 . S
O125 Zn119 2.035 . S
O126 Zn119 2.028 . S
O126 C129 1.247 . S
O127 Zn121 2.035 . S
O127 C129 1.258 . S
C128 O122 1.247 . S
C128 O123 1.258 . S
C129 O126 1.247 . S
C129 O127 1.258 . S
C130 O132 1.247 . S
C130 O134 1.258 . S
C131 O138 1.247 . S
C131 O139 1.258 . S
O132 C130 1.247 . S
O132 Zn133 2.028 . S
Zn133 O132 2.028 . S
Zn133 O137 2.035 . S
Zn133 O139 2.035 1_554 S
Zn133 O140 2.028 1_554 S
O134 C130 1.258 . S
O134 Zn135 2.035 . S
Zn135 O134 2.035 . S
Zn135 O136 2.028 . S
Zn135 O138 2.028 1_554 S
Zn135 O141 2.035 1_554 S
O136 Zn135 2.028 . S
O136 C142 1.247 . S
O137 Zn133 2.035 . S
O137 C142 1.258 . S
O138 C131 1.247 . S
O138 Zn135 2.028 1_556 S
O139 C131 1.258 . S
O139 Zn133 2.035 1_556 S
O140 Zn133 2.028 1_556 S
O140 C143 1.247 . S
O141 Zn135 2.035 1_556 S
O141 C143 1.258 . S
C142 O136 1.247 . S
C142 O137 1.258 . S
C143 O140 1.247 . S
C143 O141 1.258 . S
C144 O146 1.247 . S
C144 O148 1.258 . S
C145 O152 1.247 . S
C145 O153 1.258 . S
O146 C144 1.247 . S
O146 Zn147 2.028 . S
Zn147 O146 2.028 . S
Zn147 O151 2.035 1_565 S
Zn147 O153 2.035 1_565 S
Zn147 O154 2.028 . S
O148 C144 1.258 . S
O148 Zn149 2.035 1_565 S
Zn149 O148 2.035 1_545 S
Zn149 O150 2.028 . S
Zn149 O152 2.028 . S
Zn149 O155 2.035 1_545 S
O150 Zn149 2.028 . S
O150 C156 1.247 . S
O151 Zn147 2.035 1_545 S
O151 C156 1.258 . S
O152 C145 1.247 . S
O152 Zn149 2.028 . S
O153 C145 1.258 . S
O153 Zn147 2.035 1_545 S
O154 Zn147 2.028 . S
O154 C157 1.247 . S
O155 Zn149 2.035 1_565 S
O155 C157 1.258 . S
C156 O150 1.247 . S
C156 O151 1.258 . S
C157 O154 1.247 . S
C157 O155 1.258 . S
C158 O160 1.247 . S
C158 O162 1.258 . S
C159 O166 1.247 . S
C159 O167 1.258 . S
O160 C158 1.247 . S
O160 Zn161 2.028 . S
Zn161 O160 2.028 . S
Zn161 O165 2.035 . S
Zn161 O167 2.035 1_554 S
Zn161 O168 2.028 1_554 S
O162 C158 1.258 . S
O162 Zn163 2.035 . S
Zn163 O162 2.035 . S
Zn163 O164 2.028 . S
Zn163 O166 2.028 1_554 S
Zn163 O169 2.035 1_554 S
O164 Zn163 2.028 . S
O164 C170 1.247 . S
O165 Zn161 2.035 . S
O165 C170 1.258 . S
O166 C159 1.247 . S
O166 Zn163 2.028 1_556 S
O167 C159 1.258 . S
O167 Zn161 2.035 1_556 S
O168 Zn161 2.028 1_556 S
O168 C171 1.247 . S
O169 Zn163 2.035 1_556 S
O169 C171 1.258 . S
C170 O164 1.247 . S
C170 O165 1.258 . S
C171 O168 1.247 . S
C171 O169 1.258 . S
C172 C173 1.369 . S
C172 C174 1.419 . S
C172 H176 0.930 . S
C173 C172 1.369 . S
C173 C182 1.429 . S
C174 C172 1.419 . S
C174 C175 1.363 . S
C174 H177 0.929 . S
C175 C174 1.363 . S
C175 C181 1.428 . S
H176 C172 0.930 . S
H177 C174 0.929 . S
S178 N179 1.613 . S
S178 N180 1.610 . S
N179 S178 1.613 . S
N179 C182 1.350 . S
N180 S178 1.610 . S
N180 C181 1.351 . S
C181 C175 1.428 . S
C181 N180 1.351 . S
C181 C182 1.434 . S
C182 C173 1.429 . S
C182 N179 1.350 . S
C182 C181 1.434 . S
C183 C184 1.369 . S
C183 C185 1.419 . S
C183 H187 0.930 . S
C184 C183 1.369 . S
C184 C193 1.429 . S
C185 C183 1.419 . S
C185 C186 1.363 . S
C185 H188 0.929 . S
C186 C185 1.363 . S
C186 C192 1.428 . S
H187 C183 0.930 . S
H188 C185 0.929 . S
S189 N190 1.613 . S
S189 N191 1.610 . S
N190 S189 1.613 . S
N190 C193 1.350 . S
N191 S189 1.610 . S
N191 C192 1.351 . S
C192 C186 1.428 . S
C192 N191 1.351 . S
C192 C193 1.434 . S
C193 C184 1.429 . S
C193 N190 1.350 . S
C193 C192 1.434 . S
C194 C195 1.369 . S
C194 C196 1.419 . S
C194 H198 0.930 . S
C195 C194 1.369 . S
C195 C204 1.429 . S
C196 C194 1.419 . S
C196 C197 1.363 . S
C196 H199 0.929 . S
C197 C196 1.363 . S
C197 C203 1.428 . S
H198 C194 0.930 . S
H199 C196 0.929 . S
S200 N201 1.613 . S
S200 N202 1.610 . S
N201 S200 1.613 . S
N201 C204 1.350 . S
N202 S200 1.610 . S
N202 C203 1.351 . S
C203 C197 1.428 . S
C203 N202 1.351 . S
C203 C204 1.434 . S
C204 C195 1.429 . S
C204 N201 1.350 . S
C204 C203 1.434 . S
C205 C206 1.369 . S
C205 C207 1.419 . S
C205 H209 0.930 . S
C206 C205 1.369 . S
C206 C215 1.429 . S
C207 C205 1.419 . S
C207 C208 1.363 . S
C207 H210 0.929 . S
C208 C207 1.363 . S
C208 C214 1.428 . S
H209 C205 0.930 . S
H210 C207 0.929 . S
S211 N212 1.613 . S
S211 N213 1.610 . S
N212 S211 1.613 . S
N212 C215 1.350 . S
N213 S211 1.610 . S
N213 C214 1.351 . S
C214 C208 1.428 . S
C214 N213 1.351 . S
C214 C215 1.434 . S
C215 C206 1.429 . S
C215 N212 1.350 . S
C215 C214 1.434 . S
C216 C217 1.369 . S
C216 C218 1.419 . S
C216 H220 0.930 . S
C217 C216 1.369 . S
C217 C226 1.429 . S
C218 C216 1.419 . S
C218 C219 1.363 . S
C218 H221 0.929 . S
C219 C218 1.363 . S
C219 C225 1.428 . S
H220 C216 0.930 . S
H221 C218 0.929 . S
S222 N223 1.613 . S
S222 N224 1.610 . S
N223 S222 1.613 . S
N223 C226 1.350 . S
N224 S222 1.610 . S
N224 C225 1.351 . S
C225 C219 1.428 . S
C225 N224 1.351 . S
C225 C226 1.434 . S
C226 C217 1.429 . S
C226 N223 1.350 . S
C226 C225 1.434 . S
C227 C228 1.369 . S
C227 C229 1.419 . S
C227 H231 0.930 . S
C228 C227 1.369 . S
C228 C237 1.429 . S
C229 C227 1.419 . S
C229 C230 1.363 . S
C229 H232 0.929 . S
C230 C229 1.363 . S
C230 C236 1.428 . S
H231 C227 0.930 . S
H232 C229 0.929 . S
S233 N234 1.613 . S
S233 N235 1.610 . S
N234 S233 1.613 . S
N234 C237 1.350 . S
N235 S233 1.610 . S
N235 C236 1.351 . S
C236 C230 1.428 . S
C236 N235 1.351 . S
C236 C237 1.434 . S
C237 C228 1.429 . S
C237 N234 1.350 . S
C237 C236 1.434 . S
C238 C239 1.369 . S
C238 C240 1.419 . S
C238 H242 0.930 . S
C239 C238 1.369 . S
C239 C248 1.429 . S
C240 C238 1.419 . S
C240 C241 1.363 . S
C240 H243 0.929 . S
C241 C240 1.363 . S
C241 C247 1.428 . S
H242 C238 0.930 . S
H243 C240 0.929 . S
S244 N245 1.613 . S
S244 N246 1.610 . S
N245 S244 1.613 . S
N245 C248 1.350 . S
N246 S244 1.610 . S
N246 C247 1.351 . S
C247 C241 1.428 . S
C247 N246 1.351 . S
C247 C248 1.434 . S
C248 C239 1.429 . S
C248 N245 1.350 . S
C248 C247 1.434 . S
C249 C250 1.369 . S
C249 C251 1.419 . S
C249 H253 0.930 . S
C250 C249 1.369 . S
C250 C259 1.429 . S
C251 C249 1.419 . S
C251 C252 1.363 . S
C251 H254 0.929 . S
C252 C251 1.363 . S
C252 C258 1.428 . S
H253 C249 0.930 . S
H254 C251 0.929 . S
S255 N256 1.613 . S
S255 N257 1.610 . S
N256 S255 1.613 . S
N256 C259 1.350 . S
N257 S255 1.610 . S
N257 C258 1.351 . S
C258 C252 1.428 . S
C258 N257 1.351 . S
C258 C259 1.434 . S
C259 C250 1.429 . S
C259 N256 1.350 . S
C259 C258 1.434 . S
C260 C261 1.369 . S
C260 C262 1.419 . S
C260 H264 0.930 . S
C261 C260 1.369 . S
C261 C270 1.429 . S
C262 C260 1.419 . S
C262 C263 1.363 . S
C262 H265 0.929 . S
C263 C262 1.363 . S
C263 C269 1.428 . S
H264 C260 0.930 . S
H265 C262 0.929 . S
S266 N267 1.613 . S
S266 N268 1.610 . S
N267 S266 1.613 . S
N267 C270 1.350 . S
N268 S266 1.610 . S
N268 C269 1.351 . S
C269 C263 1.428 . S
C269 N268 1.351 . S
C269 C270 1.434 . S
C270 C261 1.429 . S
C270 N267 1.350 . S
C270 C269 1.434 . S
C271 C272 1.369 . S
C271 C273 1.419 . S
C271 H275 0.930 . S
C272 C271 1.369 . S
C272 C281 1.429 . S
C273 C271 1.419 . S
C273 C274 1.363 . S
C273 H276 0.929 . S
C274 C273 1.363 . S
C274 C280 1.428 . S
H275 C271 0.930 . S
H276 C273 0.929 . S
S277 N278 1.613 . S
S277 N279 1.610 . S
N278 S277 1.613 . S
N278 C281 1.350 . S
N279 S277 1.610 . S
N279 C280 1.351 . S
C280 C274 1.428 . S
C280 N279 1.351 . S
C280 C281 1.434 . S
C281 C272 1.429 . S
C281 N278 1.350 . S
C281 C280 1.434 . S
C282 C283 1.369 . S
C282 C284 1.419 . S
C282 H286 0.930 . S
C283 C282 1.369 . S
C283 C292 1.429 . S
C284 C282 1.419 . S
C284 C285 1.363 . S
C284 H287 0.929 . S
C285 C284 1.363 . S
C285 C291 1.428 . S
H286 C282 0.930 . S
H287 C284 0.929 . S
S288 N289 1.613 . S
S288 N290 1.610 . S
N289 S288 1.613 . S
N289 C292 1.350 . S
N290 S288 1.610 . S
N290 C291 1.351 . S
C291 C285 1.428 . S
C291 N290 1.351 . S
C291 C292 1.434 . S
C292 C283 1.429 . S
C292 N289 1.350 . S
C292 C291 1.434 . S
C293 C294 1.369 . S
C293 C295 1.419 . S
C293 H297 0.930 . S
C294 C293 1.369 . S
C294 C303 1.429 . S
C295 C293 1.419 . S
C295 C296 1.363 . S
C295 H298 0.929 . S
C296 C295 1.363 . S
C296 C302 1.428 . S
H297 C293 0.930 . S
H298 C295 0.929 . S
S299 N300 1.613 . S
S299 N301 1.610 . S
N300 S299 1.613 . S
N300 C303 1.350 . S
N301 S299 1.610 . S
N301 C302 1.351 . S
C302 C296 1.428 . S
C302 N301 1.351 . S
C302 C303 1.434 . S
C303 C294 1.429 . S
C303 N300 1.350 . S
C303 C302 1.434 . S
C304 C305 1.369 . S
C304 C306 1.419 . S
C304 H308 0.930 . S
C305 C304 1.369 . S
C305 C314 1.429 . S
C306 C304 1.419 . S
C306 C307 1.363 . S
C306 H309 0.929 . S
C307 C306 1.363 . S
C307 C313 1.428 . S
H308 C304 0.930 . S
H309 C306 0.929 . S
S310 N311 1.613 . S
S310 N312 1.610 . S
N311 S310 1.613 . S
N311 C314 1.350 . S
N312 S310 1.610 . S
N312 C313 1.351 . S
C313 C307 1.428 . S
C313 N312 1.351 . S
C313 C314 1.434 . S
C314 C305 1.429 . S
C314 N311 1.350 . S
C314 C313 1.434 . S
C315 C316 1.369 . S
C315 C317 1.419 . S
C315 H319 0.930 . S
C316 C315 1.369 . S
C316 C325 1.429 . S
C317 C315 1.419 . S
C317 C318 1.363 . S
C317 H320 0.929 . S
C318 C317 1.363 . S
C318 C324 1.428 . S
H319 C315 0.930 . S
H320 C317 0.929 . S
S321 N322 1.613 . S
S321 N323 1.610 . S
N322 S321 1.613 . S
N322 C325 1.350 . S
N323 S321 1.610 . S
N323 C324 1.351 . S
C324 C318 1.428 . S
C324 N323 1.351 . S
C324 C325 1.434 . S
C325 C316 1.429 . S
C325 N322 1.350 . S
C325 C324 1.434 . S
C326 C327 1.369 . S
C326 C328 1.419 . S
C326 H330 0.930 . S
C327 C326 1.369 . S
C327 C336 1.429 . S
C328 C326 1.419 . S
C328 C329 1.363 . S
C328 H331 0.929 . S
C329 C328 1.363 . S
C329 C335 1.428 . S
H330 C326 0.930 . S
H331 C328 0.929 . S
S332 N333 1.613 . S
S332 N334 1.610 . S
N333 S332 1.613 . S
N333 C336 1.350 . S
N334 S332 1.610 . S
N334 C335 1.351 . S
C335 C329 1.428 . S
C335 N334 1.351 . S
C335 C336 1.434 . S
C336 C327 1.429 . S
C336 N333 1.350 . S
C336 C335 1.434 . S
C337 C338 1.369 . S
C337 C339 1.419 . S
C337 H341 0.930 . S
C338 C337 1.369 . S
C338 C347 1.429 . S
C339 C337 1.419 . S
C339 C340 1.363 . S
C339 H342 0.929 . S
C340 C339 1.363 . S
C340 C346 1.428 . S
H341 C337 0.930 . S
H342 C339 0.929 . S
S343 N344 1.613 . S
S343 N345 1.610 . S
N344 S343 1.613 . S
N344 C347 1.350 . S
N345 S343 1.610 . S
N345 C346 1.351 . S
C346 C340 1.428 . S
C346 N345 1.351 . S
C346 C347 1.434 . S
C347 C338 1.429 . S
C347 N344 1.350 . S
C347 C346 1.434 . S
C348 C349 1.369 . S
C348 C350 1.419 . S
C348 H352 0.930 . S
C349 C348 1.369 . S
C349 C358 1.429 . S
C350 C348 1.419 . S
C350 C351 1.363 . S
C350 H353 0.929 . S
C351 C350 1.363 . S
C351 C357 1.428 . S
H352 C348 0.930 . S
H353 C350 0.929 . S
S354 N355 1.613 . S
S354 N356 1.610 . S
N355 S354 1.613 . S
N355 C358 1.350 . S
N356 S354 1.610 . S
N356 C357 1.351 . S
C357 C351 1.428 . S
C357 N356 1.351 . S
C357 C358 1.434 . S
C358 C349 1.429 . S
C358 N355 1.350 . S
C358 C357 1.434 . S
C359 C360 1.369 . S
C359 C361 1.419 . S
C359 H363 0.930 . S
C360 C359 1.369 . S
C360 C369 1.429 . S
C361 C359 1.419 . S
C361 C362 1.363 . S
C361 H364 0.929 . S
C362 C361 1.363 . S
C362 C368 1.428 . S
H363 C359 0.930 . S
H364 C361 0.929 . S
S365 N366 1.613 . S
S365 N367 1.610 . S
N366 S365 1.613 . S
N366 C369 1.350 . S
N367 S365 1.610 . S
N367 C368 1.351 . S
C368 C362 1.428 . S
C368 N367 1.351 . S
C368 C369 1.434 . S
C369 C360 1.429 . S
C369 N366 1.350 . S
C369 C368 1.434 . S
C370 C371 1.369 . S
C370 C372 1.419 . S
C370 H374 0.930 . S
C371 C370 1.369 . S
C371 C380 1.429 . S
C372 C370 1.419 . S
C372 C373 1.363 . S
C372 H375 0.929 . S
C373 C372 1.363 . S
C373 C379 1.428 . S
H374 C370 0.930 . S
H375 C372 0.929 . S
S376 N377 1.613 . S
S376 N378 1.610 . S
N377 S376 1.613 . S
N377 C380 1.350 . S
N378 S376 1.610 . S
N378 C379 1.351 . S
C379 C373 1.428 . S
C379 N378 1.351 . S
C379 C380 1.434 . S
C380 C371 1.429 . S
C380 N377 1.350 . S
C380 C379 1.434 . S
C381 C382 1.369 . S
C381 C383 1.419 . S
C381 H385 0.930 . S
C382 C381 1.369 . S
C382 C391 1.429 . S
C383 C381 1.419 . S
C383 C384 1.363 . S
C383 H386 0.929 . S
C384 C383 1.363 . S
C384 C390 1.428 . S
H385 C381 0.930 . S
H386 C383 0.929 . S
S387 N388 1.613 . S
S387 N389 1.610 . S
N388 S387 1.613 . S
N388 C391 1.350 . S
N389 S387 1.610 . S
N389 C390 1.351 . S
C390 C384 1.428 . S
C390 N389 1.351 . S
C390 C391 1.434 . S
C391 C382 1.429 . S
C391 N388 1.350 . S
C391 C390 1.434 . S
C392 C393 1.369 . S
C392 C394 1.419 . S
C392 H396 0.930 . S
C393 C392 1.369 . S
C393 C402 1.429 . S
C394 C392 1.419 . S
C394 C395 1.363 . S
C394 H397 0.929 . S
C395 C394 1.363 . S
C395 C401 1.428 . S
H396 C392 0.930 . S
H397 C394 0.929 . S
S398 N399 1.613 . S
S398 N400 1.610 . S
N399 S398 1.613 . S
N399 C402 1.350 . S
N400 S398 1.610 . S
N400 C401 1.351 . S
C401 C395 1.428 . S
C401 N400 1.351 . S
C401 C402 1.434 . S
C402 C393 1.429 . S
C402 N399 1.350 . S
C402 C401 1.434 . S
C403 C404 1.369 . S
C403 C405 1.419 . S
C403 H407 0.930 . S
C404 C403 1.369 . S
C404 C413 1.429 . S
C405 C403 1.419 . S
C405 C406 1.363 . S
C405 H408 0.929 . S
C406 C405 1.363 . S
C406 C412 1.428 . S
H407 C403 0.930 . S
H408 C405 0.929 . S
S409 N410 1.613 . S
S409 N411 1.610 . S
N410 S409 1.613 . S
N410 C413 1.350 . S
N411 S409 1.610 . S
N411 C412 1.351 . S
C412 C406 1.428 . S
C412 N411 1.351 . S
C412 C413 1.434 . S
C413 C404 1.429 . S
C413 N410 1.350 . S
C413 C412 1.434 . S
C414 C415 1.369 1_545 S
C414 C416 1.419 . S
C414 H418 0.930 . S
C415 C414 1.369 1_565 S
C415 C424 1.429 . S
C416 C414 1.419 . S
C416 C417 1.363 . S
C416 H419 0.929 . S
C417 C416 1.363 . S
C417 C423 1.428 . S
H418 C414 0.930 . S
H419 C416 0.929 . S
S420 N421 1.613 . S
S420 N422 1.610 1_565 S
N421 S420 1.613 . S
N421 C424 1.350 . S
N422 S420 1.610 1_545 S
N422 C423 1.351 . S
C423 C417 1.428 . S
C423 N422 1.351 . S
C423 C424 1.434 1_545 S
C424 C415 1.429 . S
C424 N421 1.350 . S
C424 C423 1.434 1_565 S
C425 C426 1.369 . S
C425 C427 1.419 . S
C425 H429 0.930 . S
C426 C425 1.369 . S
C426 C435 1.429 . S
C427 C425 1.419 . S
C427 C428 1.363 . S
C427 H430 0.929 . S
C428 C427 1.363 . S
C428 C434 1.428 . S
H429 C425 0.930 . S
H430 C427 0.929 . S
S431 N432 1.613 . S
S431 N433 1.610 . S
N432 S431 1.613 . S
N432 C435 1.350 . S
N433 S431 1.610 . S
N433 C434 1.351 . S
C434 C428 1.428 . S
C434 N433 1.351 . S
C434 C435 1.434 . S
C435 C426 1.429 . S
C435 N432 1.350 . S
C435 C434 1.434 . S
C175 C100 1.647 . S
C173 C5 1.521 . S
C186 C103 1.461 . S
C184 C16 1.236 . S
C197 C101 1.699 . S
C195 C30 1.728 . S
C208 C102 1.572 . S
C206 C40 1.536 . S
C219 C117 1.470 . S
C217 C8 1.468 . S
C230 C131 1.399 . S
C228 C18 1.325 . S
C239 C29 1.682 . S
C241 C157 1.704 . S
C252 C171 1.551 . S
C250 C38 1.361 . S
C263 C116 1.451 . S
C261 C19 1.445 1_545 S
C272 C27 1.444 . S
C274 C130 1.573 . S
C285 C156 1.530 . S
C283 C41 1.516 . S
C296 C170 1.620 . S
C294 C7 1.560 . S
C305 C52 1.578 . S
C307 C115 1.619 . S
C318 C88 1.684 . S
C316 C62 1.675 . S
C327 C74 1.440 . S
C329 C114 1.435 . S
C338 C82 1.240 . S
C340 C89 1.482 . S
C351 C144 1.774 . S
C349 C51 1.655 . S
C362 C158 1.651 . S
C360 C60 1.365 . S
C373 C128 1.467 . S
C371 C71 1.273 . S
C382 C84 1.393 . S
C384 C142 1.449 . S
C395 C145 1.626 . S
C393 C63 1.614 . S
C406 C159 1.503 . S
C404 C73 1.478 . S
C417 C129 1.501 . S
C415 C85 1.510 . S
C426 C49 1.298 . S
C428 C143 1.608 . S
