# Generated by pormake.
# Topology gar, (4,6)-cn, num edge types: 1
# Building blocks:
#     Node 0, Type 0, BuildingBlock: QUQFOY_clean_sbu_1, # of connection points: 4
#     Node 1, Type 0, BuildingBlock: QUQFOY_clean_sbu_1, # of connection points: 4
#     Node 2, Type 0, BuildingBlock: QUQFOY_clean_sbu_1, # of connection points: 4
#     Node 3, Type 0, BuildingBlock: QUQFOY_clean_sbu_1, # of connection points: 4
#     Node 4, Type 0, BuildingBlock: QUQFOY_clean_sbu_1, # of connection points: 4
#     Node 5, Type 0, BuildingBlock: QUQFOY_clean_sbu_1, # of connection points: 4
#     Node 6, Type 0, BuildingBlock: QUQFOY_clean_sbu_1, # of connection points: 4
#     Node 7, Type 0, BuildingBlock: QUQFOY_clean_sbu_1, # of connection points: 4
#     Node 8, Type 0, BuildingBlock: QUQFOY_clean_sbu_1, # of connection points: 4
#     Node 9, Type 0, BuildingBlock: QUQFOY_clean_sbu_1, # of connection points: 4
#     Node 10, Type 0, BuildingBlock: QUQFOY_clean_sbu_1, # of connection points: 4
#     Node 11, Type 0, BuildingBlock: QUQFOY_clean_sbu_1, # of connection points: 4
#     Node 12, Type 0, BuildingBlock: QUQFOY_clean_sbu_1, # of connection points: 4
#     Node 13, Type 0, BuildingBlock: QUQFOY_clean_sbu_1, # of connection points: 4
#     Node 14, Type 0, BuildingBlock: QUQFOY_clean_sbu_1, # of connection points: 4
#     Node 15, Type 0, BuildingBlock: QUQFOY_clean_sbu_1, # of connection points: 4
#     Node 16, Type 0, BuildingBlock: QUQFOY_clean_sbu_1, # of connection points: 4
#     Node 17, Type 0, BuildingBlock: QUQFOY_clean_sbu_1, # of connection points: 4
#     Node 18, Type 0, BuildingBlock: QUQFOY_clean_sbu_1, # of connection points: 4
#     Node 19, Type 0, BuildingBlock: QUQFOY_clean_sbu_1, # of connection points: 4
#     Node 20, Type 0, BuildingBlock: QUQFOY_clean_sbu_1, # of connection points: 4
#     Node 21, Type 0, BuildingBlock: QUQFOY_clean_sbu_1, # of connection points: 4
#     Node 22, Type 0, BuildingBlock: QUQFOY_clean_sbu_1, # of connection points: 4
#     Node 23, Type 0, BuildingBlock: QUQFOY_clean_sbu_1, # of connection points: 4
#     Node 24, Type 1, BuildingBlock: BETDIP_clean_sbu_0, # of connection points: 6
#     Node 25, Type 1, BuildingBlock: BETDIP_clean_sbu_0, # of connection points: 6
#     Node 26, Type 1, BuildingBlock: BETDIP_clean_sbu_0, # of connection points: 6
#     Node 27, Type 1, BuildingBlock: BETDIP_clean_sbu_0, # of connection points: 6
#     Node 28, Type 1, BuildingBlock: BETDIP_clean_sbu_0, # of connection points: 6
#     Node 29, Type 1, BuildingBlock: BETDIP_clean_sbu_0, # of connection points: 6
#     Node 30, Type 1, BuildingBlock: BETDIP_clean_sbu_0, # of connection points: 6
#     Node 31, Type 1, BuildingBlock: BETDIP_clean_sbu_0, # of connection points: 6
#     Node 32, Type 1, BuildingBlock: BETDIP_clean_sbu_0, # of connection points: 6
#     Node 33, Type 1, BuildingBlock: BETDIP_clean_sbu_0, # of connection points: 6
#     Node 34, Type 1, BuildingBlock: BETDIP_clean_sbu_0, # of connection points: 6
#     Node 35, Type 1, BuildingBlock: BETDIP_clean_sbu_0, # of connection points: 6
#     Node 36, Type 1, BuildingBlock: BETDIP_clean_sbu_0, # of connection points: 6
#     Node 37, Type 1, BuildingBlock: BETDIP_clean_sbu_0, # of connection points: 6
#     Node 38, Type 1, BuildingBlock: BETDIP_clean_sbu_0, # of connection points: 6
#     Node 39, Type 1, BuildingBlock: BETDIP_clean_sbu_0, # of connection points: 6
#     Edge 40, Type (0, 1), BuildingBlock: UVAHIK_clean_linker_0, # of connection points: 2
#     Edge 41, Type (0, 1), BuildingBlock: UVAHIK_clean_linker_0, # of connection points: 2
#     Edge 42, Type (0, 1), BuildingBlock: UVAHIK_clean_linker_0, # of connection points: 2
#     Edge 43, Type (0, 1), BuildingBlock: UVAHIK_clean_linker_0, # of connection points: 2
#     Edge 44, Type (0, 1), BuildingBlock: UVAHIK_clean_linker_0, # of connection points: 2
#     Edge 45, Type (0, 1), BuildingBlock: UVAHIK_clean_linker_0, # of connection points: 2
#     Edge 46, Type (0, 1), BuildingBlock: UVAHIK_clean_linker_0, # of connection points: 2
#     Edge 47, Type (0, 1), BuildingBlock: UVAHIK_clean_linker_0, # of connection points: 2
#     Edge 48, Type (0, 1), BuildingBlock: UVAHIK_clean_linker_0, # of connection points: 2
#     Edge 49, Type (0, 1), BuildingBlock: UVAHIK_clean_linker_0, # of connection points: 2
#     Edge 50, Type (0, 1), BuildingBlock: UVAHIK_clean_linker_0, # of connection points: 2
#     Edge 51, Type (0, 1), BuildingBlock: UVAHIK_clean_linker_0, # of connection points: 2
#     Edge 52, Type (0, 1), BuildingBlock: UVAHIK_clean_linker_0, # of connection points: 2
#     Edge 53, Type (0, 1), BuildingBlock: UVAHIK_clean_linker_0, # of connection points: 2
#     Edge 54, Type (0, 1), BuildingBlock: UVAHIK_clean_linker_0, # of connection points: 2
#     Edge 55, Type (0, 1), BuildingBlock: UVAHIK_clean_linker_0, # of connection points: 2
#     Edge 56, Type (0, 1), BuildingBlock: UVAHIK_clean_linker_0, # of connection points: 2
#     Edge 57, Type (0, 1), BuildingBlock: UVAHIK_clean_linker_0, # of connection points: 2
#     Edge 58, Type (0, 1), BuildingBlock: UVAHIK_clean_linker_0, # of connection points: 2
#     Edge 59, Type (0, 1), BuildingBlock: UVAHIK_clean_linker_0, # of connection points: 2
#     Edge 60, Type (0, 1), BuildingBlock: UVAHIK_clean_linker_0, # of connection points: 2
#     Edge 61, Type (0, 1), BuildingBlock: UVAHIK_clean_linker_0, # of connection points: 2
#     Edge 62, Type (0, 1), BuildingBlock: UVAHIK_clean_linker_0, # of connection points: 2
#     Edge 63, Type (0, 1), BuildingBlock: UVAHIK_clean_linker_0, # of connection points: 2
#     Edge 64, Type (0, 1), BuildingBlock: UVAHIK_clean_linker_0, # of connection points: 2
#     Edge 65, Type (0, 1), BuildingBlock: UVAHIK_clean_linker_0, # of connection points: 2
#     Edge 66, Type (0, 1), BuildingBlock: UVAHIK_clean_linker_0, # of connection points: 2
#     Edge 67, Type (0, 1), BuildingBlock: UVAHIK_clean_linker_0, # of connection points: 2
#     Edge 68, Type (0, 1), BuildingBlock: UVAHIK_clean_linker_0, # of connection points: 2
#     Edge 69, Type (0, 1), BuildingBlock: UVAHIK_clean_linker_0, # of connection points: 2
#     Edge 70, Type (0, 1), BuildingBlock: UVAHIK_clean_linker_0, # of connection points: 2
#     Edge 71, Type (0, 1), BuildingBlock: UVAHIK_clean_linker_0, # of connection points: 2
#     Edge 72, Type (0, 1), BuildingBlock: UVAHIK_clean_linker_0, # of connection points: 2
#     Edge 73, Type (0, 1), BuildingBlock: UVAHIK_clean_linker_0, # of connection points: 2
#     Edge 74, Type (0, 1), BuildingBlock: UVAHIK_clean_linker_0, # of connection points: 2
#     Edge 75, Type (0, 1), BuildingBlock: UVAHIK_clean_linker_0, # of connection points: 2
#     Edge 76, Type (0, 1), BuildingBlock: UVAHIK_clean_linker_0, # of connection points: 2
#     Edge 77, Type (0, 1), BuildingBlock: UVAHIK_clean_linker_0, # of connection points: 2
#     Edge 78, Type (0, 1), BuildingBlock: UVAHIK_clean_linker_0, # of connection points: 2
#     Edge 79, Type (0, 1), BuildingBlock: UVAHIK_clean_linker_0, # of connection points: 2
#     Edge 80, Type (0, 1), BuildingBlock: UVAHIK_clean_linker_0, # of connection points: 2
#     Edge 81, Type (0, 1), BuildingBlock: UVAHIK_clean_linker_0, # of connection points: 2
#     Edge 82, Type (0, 1), BuildingBlock: UVAHIK_clean_linker_0, # of connection points: 2
#     Edge 83, Type (0, 1), BuildingBlock: UVAHIK_clean_linker_0, # of connection points: 2
#     Edge 84, Type (0, 1), BuildingBlock: UVAHIK_clean_linker_0, # of connection points: 2
#     Edge 85, Type (0, 1), BuildingBlock: UVAHIK_clean_linker_0, # of connection points: 2
#     Edge 86, Type (0, 1), BuildingBlock: UVAHIK_clean_linker_0, # of connection points: 2
#     Edge 87, Type (0, 1), BuildingBlock: UVAHIK_clean_linker_0, # of connection points: 2
#     Edge 88, Type (0, 1), BuildingBlock: UVAHIK_clean_linker_0, # of connection points: 2
#     Edge 89, Type (0, 1), BuildingBlock: UVAHIK_clean_linker_0, # of connection points: 2
#     Edge 90, Type (0, 1), BuildingBlock: UVAHIK_clean_linker_0, # of connection points: 2
#     Edge 91, Type (0, 1), BuildingBlock: UVAHIK_clean_linker_0, # of connection points: 2
#     Edge 92, Type (0, 1), BuildingBlock: UVAHIK_clean_linker_0, # of connection points: 2
#     Edge 93, Type (0, 1), BuildingBlock: UVAHIK_clean_linker_0, # of connection points: 2
#     Edge 94, Type (0, 1), BuildingBlock: UVAHIK_clean_linker_0, # of connection points: 2
#     Edge 95, Type (0, 1), BuildingBlock: UVAHIK_clean_linker_0, # of connection points: 2
#     Edge 96, Type (0, 1), BuildingBlock: UVAHIK_clean_linker_0, # of connection points: 2
#     Edge 97, Type (0, 1), BuildingBlock: UVAHIK_clean_linker_0, # of connection points: 2
#     Edge 98, Type (0, 1), BuildingBlock: UVAHIK_clean_linker_0, # of connection points: 2
#     Edge 99, Type (0, 1), BuildingBlock: UVAHIK_clean_linker_0, # of connection points: 2
#     Edge 100, Type (0, 1), BuildingBlock: UVAHIK_clean_linker_0, # of connection points: 2
#     Edge 101, Type (0, 1), BuildingBlock: UVAHIK_clean_linker_0, # of connection points: 2
#     Edge 102, Type (0, 1), BuildingBlock: UVAHIK_clean_linker_0, # of connection points: 2
#     Edge 103, Type (0, 1), BuildingBlock: UVAHIK_clean_linker_0, # of connection points: 2
#     Edge 104, Type (0, 1), BuildingBlock: UVAHIK_clean_linker_0, # of connection points: 2
#     Edge 105, Type (0, 1), BuildingBlock: UVAHIK_clean_linker_0, # of connection points: 2
#     Edge 106, Type (0, 1), BuildingBlock: UVAHIK_clean_linker_0, # of connection points: 2
#     Edge 107, Type (0, 1), BuildingBlock: UVAHIK_clean_linker_0, # of connection points: 2
#     Edge 108, Type (0, 1), BuildingBlock: UVAHIK_clean_linker_0, # of connection points: 2
#     Edge 109, Type (0, 1), BuildingBlock: UVAHIK_clean_linker_0, # of connection points: 2
#     Edge 110, Type (0, 1), BuildingBlock: UVAHIK_clean_linker_0, # of connection points: 2
#     Edge 111, Type (0, 1), BuildingBlock: UVAHIK_clean_linker_0, # of connection points: 2
#     Edge 112, Type (0, 1), BuildingBlock: UVAHIK_clean_linker_0, # of connection points: 2
#     Edge 113, Type (0, 1), BuildingBlock: UVAHIK_clean_linker_0, # of connection points: 2
#     Edge 114, Type (0, 1), BuildingBlock: UVAHIK_clean_linker_0, # of connection points: 2
#     Edge 115, Type (0, 1), BuildingBlock: UVAHIK_clean_linker_0, # of connection points: 2
#     Edge 116, Type (0, 1), BuildingBlock: UVAHIK_clean_linker_0, # of connection points: 2
#     Edge 117, Type (0, 1), BuildingBlock: UVAHIK_clean_linker_0, # of connection points: 2
#     Edge 118, Type (0, 1), BuildingBlock: UVAHIK_clean_linker_0, # of connection points: 2
#     Edge 119, Type (0, 1), BuildingBlock: UVAHIK_clean_linker_0, # of connection points: 2
#     Edge 120, Type (0, 1), BuildingBlock: UVAHIK_clean_linker_0, # of connection points: 2
#     Edge 121, Type (0, 1), BuildingBlock: UVAHIK_clean_linker_0, # of connection points: 2
#     Edge 122, Type (0, 1), BuildingBlock: UVAHIK_clean_linker_0, # of connection points: 2
#     Edge 123, Type (0, 1), BuildingBlock: UVAHIK_clean_linker_0, # of connection points: 2
#     Edge 124, Type (0, 1), BuildingBlock: UVAHIK_clean_linker_0, # of connection points: 2
#     Edge 125, Type (0, 1), BuildingBlock: UVAHIK_clean_linker_0, # of connection points: 2
#     Edge 126, Type (0, 1), BuildingBlock: UVAHIK_clean_linker_0, # of connection points: 2
#     Edge 127, Type (0, 1), BuildingBlock: UVAHIK_clean_linker_0, # of connection points: 2
#     Edge 128, Type (0, 1), BuildingBlock: UVAHIK_clean_linker_0, # of connection points: 2
#     Edge 129, Type (0, 1), BuildingBlock: UVAHIK_clean_linker_0, # of connection points: 2
#     Edge 130, Type (0, 1), BuildingBlock: UVAHIK_clean_linker_0, # of connection points: 2
#     Edge 131, Type (0, 1), BuildingBlock: UVAHIK_clean_linker_0, # of connection points: 2
#     Edge 132, Type (0, 1), BuildingBlock: UVAHIK_clean_linker_0, # of connection points: 2
#     Edge 133, Type (0, 1), BuildingBlock: UVAHIK_clean_linker_0, # of connection points: 2
#     Edge 134, Type (0, 1), BuildingBlock: UVAHIK_clean_linker_0, # of connection points: 2
#     Edge 135, Type (0, 1), BuildingBlock: UVAHIK_clean_linker_0, # of connection points: 2
# Relax obj value: 0.167
# Max RMSD: 0.280
# Mean RMSD: 0.171
data_MOF--net-gar--node1-QUQFOY_clean_sbu_1--node2-BETDIP_clean_sbu_0--edge1-UVAHIK_clean_linker_0
_symmetry_space_group_name_H-M    P1
_symmetry_Int_Tables_number       1
_symmetry_cell_setting            triclinic
loop_
_symmetry_equiv_pos_as_xyz
'x, y, z'
_cell_length_a     81.04538
_cell_length_b     73.891536
_cell_length_c     71.192349
_cell_angle_alpha  97.205946
_cell_angle_beta   97.92691
_cell_angle_gamma 102.79063
loop_
_atom_site_label
_atom_site_type_symbol
_atom_site_fract_x
_atom_site_fract_y
_atom_site_fract_z
_atom_type_partial_charge
O0 O 0.03485 0.26205 0.38999 0.0
Cd1 Cd 0.02688 0.28272 0.3769 0.0
Cd2 Cd 0.03062 0.29971 0.41307 0.0
O3 O 0.04633 0.28159 0.41691 0.0
O4 O 0.03274 0.28018 0.35071 0.0
O5 O 0.04582 0.30408 0.37392 0.0
C6 C 0.04476 0.29534 0.3567 0.0
C7 C 0.03821 0.32917 0.4324 0.0
C8 C 0.0445 0.26587 0.40632 0.0
C9 C 0.9949 0.28535 0.39046 0.0
O10 O 1.0043 0.28938 0.40695 0.0
O11 O 1.00168 0.284 0.37545 0.0
O12 O 0.03362 0.31395 0.43937 0.0
O13 O 0.03933 0.32769 0.41438 0.0
O14 O 0.05459 0.7311 0.7073 0.0
Cd15 Cd 0.05983 0.75422 0.72851 0.0
Cd16 Cd 0.06409 0.77488 0.70003 0.0
O17 O 0.05708 0.74826 0.68418 0.0
O18 O 0.04568 0.74992 0.74899 0.0
O19 O 0.04307 0.77018 0.72886 0.0
C20 C 0.03811 0.76234 0.74304 0.0
C21 C 0.05495 0.79741 0.6837 0.0
C22 C 0.05409 0.73229 0.6896 0.0
C23 C 0.09459 0.77852 0.73151 0.0
O24 O 0.08833 0.7837 0.71631 0.0
O25 O 0.08525 0.76651 0.73934 0.0
O26 O 0.06708 0.79005 0.67912 0.0
O27 O 0.04791 0.79215 0.69794 0.0
O28 O 0.57128 0.82485 0.88745 0.0
Cd29 Cd 0.55307 0.81699 0.90433 0.0
Cd30 Cd 0.53402 0.82917 0.87751 0.0
O31 O 0.55419 0.8296 0.86269 0.0
O32 O 0.56381 0.80245 0.92193 0.0
O33 O 0.54027 0.78983 0.90047 0.0
C34 C 0.55183 0.78784 0.91394 0.0
C35 C 0.50641 0.81166 0.86495 0.0
C36 C 0.5689 0.82838 0.87041 0.0
C37 C 0.53923 0.84992 0.91712 0.0
O38 O 0.53505 0.85066 0.89942 0.0
O39 O 0.54583 0.83684 0.92215 0.0
O40 O 0.51272 0.82724 0.85921 0.0
O41 O 0.51627 0.80545 0.87711 0.0
O42 O 0.54922 0.23129 0.20549 0.0
Cd43 Cd 0.557 0.25458 0.22659 0.0
Cd44 Cd 0.56152 0.27389 0.19736 0.0
O45 O 0.55008 0.24774 0.18167 0.0
O46 O 0.54324 0.25281 0.2477 0.0
O47 O 0.54229 0.27268 0.22682 0.0
C48 C 0.53682 0.26585 0.24129 0.0
C49 C 0.55552 0.29944 0.18388 0.0
C50 C 0.54687 0.23202 0.1876 0.0
C51 C 0.59278 0.27333 0.22611 0.0
O52 O 0.58654 0.27816 0.21071 0.0
O53 O 0.58297 0.26414 0.23592 0.0
O54 O 0.56505 0.2895 0.17684 0.0
O55 O 0.54904 0.29476 0.19863 0.0
O56 O 0.05444 0.75938 0.14972 0.0
Cd57 Cd 0.05978 0.7829 0.17073 0.0
Cd58 Cd 0.07696 0.79897 0.1428 0.0
O59 O 0.06794 0.77165 0.12764 0.0
O60 O 0.04461 0.77459 0.18966 0.0
O61 O 0.04169 0.79776 0.17381 0.0
C62 C 0.03633 0.78705 0.18585 0.0
C63 C 0.07198 0.82498 0.12851 0.0
C64 C 0.05914 0.75753 0.13341 0.0
C65 C 0.0987 0.79791 0.18071 0.0
O66 O 0.09834 0.80268 0.16408 0.0
O67 O 0.08477 0.79055 0.18622 0.0
O68 O 0.08316 0.81612 0.1236 0.0
O69 O 0.06349 0.81906 0.14155 0.0
O70 O 0.54629 0.75588 0.42746 0.0
Cd71 Cd 0.5288 0.75349 0.44637 0.0
Cd72 Cd 0.5101 0.76653 0.41327 0.0
O73 O 0.53125 0.7617 0.40142 0.0
O74 O 0.53799 0.73975 0.46663 0.0
O75 O 0.51385 0.72742 0.44625 0.0
C76 C 0.52507 0.72561 0.4602 0.0
C77 C 0.48275 0.76257 0.39421 0.0
C78 C 0.54498 0.75856 0.41003 0.0
C79 C 0.52026 0.79129 0.45343 0.0
O80 O 0.51471 0.7888 0.43547 0.0
O81 O 0.52554 0.77846 0.46109 0.0
O82 O 0.49566 0.77593 0.39315 0.0
O83 O 0.48553 0.75052 0.40518 0.0
O84 O 0.55524 0.25576 0.65215 0.0
Cd85 Cd 0.56085 0.27923 0.67327 0.0
Cd86 Cd 0.57777 0.29524 0.6457 0.0
O87 O 0.56893 0.26811 0.63026 0.0
O88 O 0.54532 0.27119 0.69191 0.0
O89 O 0.54329 0.29476 0.6763 0.0
C90 C 0.5375 0.28404 0.68813 0.0
C91 C 0.57237 0.3212 0.63179 0.0
C92 C 0.56001 0.25398 0.63587 0.0
C93 C 0.59968 0.29391 0.6833 0.0
O94 O 0.59922 0.29893 0.66678 0.0
O95 O 0.5858 0.28643 0.68882 0.0
O96 O 0.58377 0.3127 0.62681 0.0
O97 O 0.56392 0.31495 0.64474 0.0
O98 O 0.01304 0.22062 0.92765 0.0
Cd99 Cd 0.01266 0.24145 0.91054 0.0
Cd100 Cd 1.00415 0.25944 0.94448 0.0
O101 O 1.00941 0.2357 0.95503 0.0
O102 O 0.0249 0.23485 0.88892 0.0
O103 O 0.03516 0.26028 0.91081 0.0
C104 C 0.03703 0.24969 0.89574 0.0
C105 C 0.01362 0.28974 0.96289 0.0
C106 C 0.0121 0.22117 0.94542 0.0
C107 C 0.97819 0.25143 0.9071 0.0
O108 O 0.98174 0.25676 0.9252 0.0
O109 O 0.98896 0.2453 0.8982 0.0
O110 O 1.00128 0.27722 0.96677 0.0
O111 O 0.0214 0.28472 0.94918 0.0
O112 O 0.41185 0.05189 0.25393 0.0
Cd113 Cd 0.39263 0.05291 0.27236 0.0
Cd114 Cd 0.425 0.03756 0.29675 0.0
O115 O 0.43393 0.04383 0.27059 0.0
O116 O 0.37461 0.06691 0.26062 0.0
O117 O 0.39119 0.0786 0.28813 0.0
C118 C 0.37922 0.08049 0.27504 0.0
C119 C 0.44299 0.03933 0.32801 0.0
C120 C 0.42678 0.04822 0.25502 0.0
C121 C 0.38658 0.01257 0.28539 0.0
O122 O 0.40261 0.01601 0.29211 0.0
O123 O 0.38012 0.02524 0.27827 0.0
O124 O 0.44251 0.0269 0.31338 0.0
O125 O 0.4342 0.05158 0.32481 0.0
O126 O 0.28 0.15659 0.55845 0.0
Cd127 Cd 0.275 0.1348 0.53545 0.0
Cd128 Cd 0.2603 0.16255 0.5173 0.0
O129 O 0.26952 0.17784 0.54466 0.0
O130 O 0.2878 0.11665 0.54569 0.0
O131 O 0.29448 0.13076 0.52135 0.0
C132 C 0.29777 0.11963 0.53321 0.0
C133 C 0.26421 0.17821 0.49056 0.0
C134 C 0.27676 0.17274 0.55944 0.0
C135 C 0.23633 0.12511 0.52014 0.0
O136 O 0.23823 0.14132 0.51514 0.0
O137 O 0.24931 0.11966 0.52749 0.0
O138 O 0.25358 0.18151 0.50167 0.0
O139 O 0.27272 0.16591 0.49453 0.0
O140 O 0.14268 0.0199 0.77114 0.0
Cd141 Cd 0.16046 0.02499 0.79611 0.0
Cd142 Cd 0.13768 0.04151 0.81091 0.0
O143 O 0.12354 0.03254 0.78348 0.0
O144 O 0.17659 1.00879 0.79141 0.0
O145 O 0.16009 1.00554 0.81365 0.0
C146 C 0.17163 1.00016 0.80505 0.0
C147 C 0.12536 0.03354 0.83745 0.0
C148 C 0.12827 0.02424 0.76916 0.0
C149 C 0.17218 0.06659 0.81111 0.0
O150 O 0.15723 0.06571 0.81506 0.0
O151 O 0.17611 0.05182 0.80389 0.0
O152 O 0.12129 0.04634 0.82827 0.0
O153 O 0.13639 0.02501 0.83139 0.0
O154 O 0.26858 0.86344 0.02795 0.0
Cd155 Cd 0.25483 0.86624 1.00233 0.0
Cd156 Cd 0.26079 0.83259 0.99204 0.0
O157 O 0.26758 0.83335 0.02091 0.0
O158 O 0.24784 0.88957 0.01059 0.0
O159 O 0.22906 0.86252 0.99913 0.0
C160 C 0.23211 0.88008 1.00639 0.0
C161 C 0.24393 0.80523 0.97288 0.0
C162 C 0.27165 0.84847 0.03293 0.0
C163 C 0.27897 0.86458 0.97496 0.0
O164 O 0.2789 0.84831 0.979 0.0
O165 O 0.26862 0.87354 0.98115 0.0
O166 O 0.25932 0.80618 0.98119 0.0
O167 O 0.23771 0.81977 0.97604 0.0
O168 O 0.30569 0.39779 0.10298 0.0
Cd169 Cd 0.30697 0.41576 0.08265 0.0
Cd170 Cd 0.31436 0.38521 0.06083 0.0
O171 O 0.30874 0.37276 0.08461 0.0
O172 O 0.2944 0.43526 0.09035 0.0
O173 O 0.28552 0.41449 0.06369 0.0
C174 C 0.28316 0.42849 0.07496 0.0
C175 C 0.3046 0.36801 0.02973 0.0
C176 C 0.30625 0.38058 0.10061 0.0
C177 C 0.34156 0.42231 0.0701 0.0
O178 O 0.33737 0.40493 0.06301 0.0
O179 O 0.33112 0.42975 0.07832 0.0
O180 O 0.31649 0.36421 0.04143 0.0
O181 O 0.2976 0.38117 0.03595 0.0
O182 O 0.83695 0.1537 0.13629 0.0
Cd183 Cd 0.83122 0.13161 0.11391 0.0
Cd184 Cd 0.81204 0.15216 0.0954 0.0
O185 O 0.8218 0.17036 0.12088 0.0
O186 O 0.85123 0.12083 0.11049 0.0
O187 O 0.83949 0.13625 0.08961 0.0
C188 C 0.85089 0.12716 0.09434 0.0
C189 C 0.80971 0.16592 0.0677 0.0
C190 C 0.83157 0.16854 0.13574 0.0
C191 C 0.79468 0.11272 0.10161 0.0
O192 O 0.79384 0.12757 0.09462 0.0
O193 O 0.80875 0.11122 0.11087 0.0
O194 O 0.79938 0.16696 0.07979 0.0
O195 O 0.82153 0.1571 0.07138 0.0
O196 O 0.15608 0.5002 0.2763 0.0
Cd197 Cd 0.17787 0.50201 0.29799 0.0
Cd198 Cd 0.15009 0.52153 0.32012 0.0
O199 O 0.13706 0.51191 0.29101 0.0
O200 O 0.19402 0.48619 0.28685 0.0
O201 O 0.18182 0.47886 0.31112 0.0
C202 C 0.19168 0.47488 0.29921 0.0
C203 C 0.13536 0.52199 0.3485 0.0
C204 C 0.14167 0.50496 0.2756 0.0
C205 C 0.18655 0.54558 0.31499 0.0
O206 O 0.17198 0.54348 0.32069 0.0
O207 O 0.19137 0.53127 0.30729 0.0
O208 O 0.13415 0.53321 0.33615 0.0
O209 O 0.14449 0.51012 0.34476 0.0
O210 O 0.80537 0.89647 0.60211 0.0
Cd211 Cd 0.807 0.91468 0.58183 0.0
Cd212 Cd 0.81656 0.88469 0.56167 0.0
O213 O 0.81127 0.87221 0.58525 0.0
O214 O 0.79423 0.9338 0.59024 0.0
O215 O 0.78536 0.91361 0.5632 0.0
C216 C 0.78283 0.92713 0.57498 0.0
C217 C 0.80656 0.86762 0.53057 0.0
C218 C 0.80732 0.87973 0.60052 0.0
C219 C 0.84262 0.92217 0.57103 0.0
O220 O 0.83937 0.90464 0.56481 0.0
O221 O 0.83123 0.92933 0.57764 0.0
O222 O 0.81869 0.86392 0.54202 0.0
O223 O 0.79962 0.88078 0.53696 0.0
O224 O 0.93736 0.0172 0.23085 0.0
Cd225 Cd 0.92182 0.01468 0.2514 0.0
Cd226 Cd 0.94837 1.00228 0.26971 0.0
O227 O 0.95911 1.00802 0.24559 0.0
O228 O 0.90414 0.02825 0.24324 0.0
O229 O 0.92243 0.03746 0.27063 0.0
C230 C 0.90983 0.0401 0.25892 0.0
C231 C 0.96445 0.01361 0.30046 0.0
C232 C 0.95214 0.01394 0.23121 0.0
C233 C 0.91326 0.97548 0.26072 0.0
O234 O 0.92906 0.97817 0.26776 0.0
O235 O 0.90773 0.98834 0.25351 0.0
O236 O 0.96705 0.99951 0.28964 0.0
O237 O 0.953 0.02182 0.29352 0.0
O238 O 0.3509 0.6789 0.64162 0.0
Cd239 Cd 0.34091 0.65511 0.62159 0.0
Cd240 Cd 0.3247 0.67722 0.60215 0.0
O241 O 0.33883 0.6972 0.62492 0.0
O242 O 0.35806 0.63985 0.61973 0.0
O243 O 0.34881 0.65441 0.59644 0.0
C244 C 0.35845 0.64393 0.60264 0.0
C245 C 0.32195 0.6854 0.57151 0.0
C246 C 0.34854 0.69504 0.63967 0.0
C247 C 0.30329 0.64233 0.61382 0.0
O248 O 0.30405 0.65692 0.60592 0.0
O249 O 0.31693 0.63865 0.62172 0.0
O250 O 0.314 0.69176 0.58434 0.0
O251 O 0.332 0.67483 0.57628 0.0
O252 O 0.42834 0.5131 0.72562 0.0
Cd253 Cd 0.4126 0.51291 0.74625 0.0
Cd254 Cd 0.43983 0.50055 0.76589 0.0
O255 O 0.45078 0.5063 0.74193 0.0
O256 O 0.39461 0.5251 0.73541 0.0
O257 O 0.41274 0.53752 0.76239 0.0
C258 C 0.40011 0.53863 0.74972 0.0
C259 C 0.45594 0.51108 0.79687 0.0
C260 C 0.44349 0.51068 0.72673 0.0
C261 C 0.40431 0.4745 0.75826 0.0
O262 O 0.42033 0.47653 0.76357 0.0
O263 O 0.39865 0.48763 0.75178 0.0
O264 O 0.45832 0.49706 0.78573 0.0
O265 O 0.44475 0.51969 0.79013 0.0
O266 O 0.6548 0.99515 0.77574 0.0
Cd267 Cd 0.67678 0.99658 0.79697 0.0
Cd268 Cd 0.64971 0.01804 0.82004 0.0
O269 O 0.63691 1.00881 0.7906 0.0
O270 O 0.69265 0.98063 0.78524 0.0
O271 O 0.68113 0.9734 0.80994 0.0
C272 C 0.6907 0.96937 0.7977 0.0
C273 C 0.6345 0.01908 0.84816 0.0
C274 C 0.64092 1.001 0.77517 0.0
C275 C 0.6867 0.04041 0.81463 0.0
O276 O 0.67258 0.03911 0.82125 0.0
O277 O 0.69041 0.02578 0.80594 0.0
O278 O 0.63414 0.0306 0.83599 0.0
O279 O 0.64304 1.00661 0.84439 0.0
O280 O 0.77974 0.65833 0.05872 0.0
Cd281 Cd 0.77456 0.63657 0.03569 0.0
Cd282 Cd 0.76057 0.66395 0.01737 0.0
O283 O 0.7697 0.67963 0.04456 0.0
O284 O 0.78758 0.61841 0.04542 0.0
O285 O 0.79382 0.63283 0.02111 0.0
C286 C 0.79734 0.6216 0.03276 0.0
C287 C 0.76524 0.67878 0.99033 0.0
C288 C 0.77672 0.67457 0.05949 0.0
C289 C 0.73599 0.62713 0.02036 0.0
O290 O 0.73816 0.64326 0.01518 0.0
O291 O 0.74883 0.62154 0.02788 0.0
O292 O 0.75456 0.68271 1.0011 0.0
O293 O 0.7734 0.66634 0.99484 0.0
O294 O 0.9131 0.54778 0.75464 0.0
Cd295 Cd 0.89384 0.5483 0.77297 0.0
Cd296 Cd 0.92617 0.53359 0.79749 0.0
O297 O 0.93533 0.54029 0.77162 0.0
O298 O 0.87573 0.56213 0.76117 0.0
O299 O 0.89224 0.57391 0.78871 0.0
C300 C 0.8803 0.57575 0.77555 0.0
C301 C 0.94409 0.53598 0.82889 0.0
C302 C 0.92818 0.54451 0.75596 0.0
C303 C 0.88824 0.50769 0.78557 0.0
O304 O 0.90427 0.51132 0.79243 0.0
O305 O 0.88163 0.52036 0.77862 0.0
O306 O 0.9445 0.52408 0.81417 0.0
O307 O 0.93435 0.54734 0.82577 0.0
O308 O 0.7726 0.36912 0.56471 0.0
Cd309 Cd 0.7596 0.38876 0.55792 0.0
Cd310 Cd 0.7585 0.37229 0.52081 0.0
O311 O 0.77157 0.35546 0.53503 0.0
O312 O 0.74941 0.39634 0.58045 0.0
O313 O 0.73401 0.38312 0.5518 0.0
C314 C 0.73462 0.39056 0.56941 0.0
C315 C 0.74266 0.35766 0.49074 0.0
C316 C 0.77628 0.35679 0.55302 0.0
C317 C 0.7762 0.41405 0.53377 0.0
O318 O 0.77085 0.3999 0.5205 0.0
O319 O 0.77349 0.41275 0.55072 0.0
O320 O 0.75913 0.36266 0.49385 0.0
O321 O 0.73476 0.36056 0.50494 0.0
O322 O 0.63845 0.52709 0.27135 0.0
Cd323 Cd 0.65655 0.53183 0.29603 0.0
Cd324 Cd 0.63387 0.54871 0.31095 0.0
O325 O 0.6195 0.5402 0.28352 0.0
O326 O 0.67263 0.51609 0.28946 0.0
O327 O 0.6576 0.51184 0.31283 0.0
C328 C 0.66865 0.50693 0.30309 0.0
C329 C 0.62267 0.53974 0.33786 0.0
C330 C 0.6242 0.53177 0.26924 0.0
C331 C 0.66848 0.57348 0.31104 0.0
O332 O 0.65356 0.5728 0.31504 0.0
O333 O 0.67226 0.55861 0.30384 0.0
O334 O 0.6181 0.55276 0.3294 0.0
O335 O 0.63347 0.5315 0.33076 0.0
Tb336 Tb 0.02402 0.012 0.02672 0.0
Tb337 Tb 0.05984 0.03254 0.04526 0.0
C338 C 0.99199 1.0032 0.01696 0.0
C339 C 0.97979 0.01507 0.01437 0.0
C340 C 0.98325 0.03293 0.0256 0.0
C341 C 0.97234 0.04477 0.02247 0.0
C342 C 0.95763 0.03895 0.00815 0.0
C343 C 0.95404 0.02099 0.99701 0.0
C344 C 0.96515 1.00916 1.00002 0.0
C345 C 0.04755 1.00944 1.00515 0.0
C346 C 0.03729 0.05678 0.0271 0.0
C347 C 0.09185 0.04036 0.05377 0.0
C348 C 0.1035 0.02803 0.05029 0.0
C349 C 0.10187 0.01744 0.032 0.0
C350 C 0.11131 1.00404 0.02913 0.0
C351 C 0.12252 1.0008 0.04449 0.0
C352 C 0.12439 0.01156 0.06276 0.0
C353 C 0.11496 0.02511 0.06561 0.0
C354 C 0.03644 0.03492 0.06705 0.0
C355 C 0.04659 0.98794 0.04481 0.0
O356 O 0.99979 1.00439 0.03462 0.0
O357 O 1.00256 1.00369 1.00461 0.0
O358 O 0.04686 0.02368 0.01646 0.0
O359 O 0.03401 0.99608 1.00475 0.0
O360 O 0.02427 0.04182 0.02533 0.0
O361 O 0.05322 0.05621 0.03354 0.0
O362 O 0.08369 0.04469 0.03843 0.0
O363 O 0.08175 0.03572 0.06614 0.0
O364 O 0.03708 0.0208 0.05554 0.0
O365 O 0.05016 0.04815 0.06774 0.0
O366 O 0.05968 1.00251 0.04514 0.0
O367 O 0.03056 0.98886 0.03952 0.0
H368 H 0.99443 0.0378 0.03682 0.0
H369 H 0.97522 0.05835 0.03158 0.0
H370 H 0.94273 0.01616 0.98595 0.0
H371 H 0.96235 0.99547 0.99114 0.0
H372 H 0.09289 0.01903 0.01995 0.0
H373 H 0.10938 0.99577 0.01497 0.0
H374 H 0.13306 1.00943 0.07483 0.0
H375 H 0.11627 0.03296 0.07988 0.0
Tb376 Tb 0.28718 0.77209 0.27961 0.0
Tb377 Tb 0.28449 0.78532 0.31862 0.0
C378 C 0.2871 0.76798 0.24413 0.0
C379 C 0.2956 0.78015 0.23165 0.0
C380 C 0.29201 0.79767 0.22988 0.0
C381 C 0.30008 0.80893 0.21787 0.0
C382 C 0.31201 0.80299 0.20748 0.0
C383 C 0.31604 0.78576 0.20983 0.0
C384 C 0.30783 0.7744 0.2217 0.0
C385 C 0.31236 0.76806 0.30533 0.0
C386 C 0.30111 0.81677 0.29653 0.0
C387 C 0.28585 0.78988 0.3544 0.0
C388 C 0.28676 0.77768 0.36906 0.0
C389 C 0.29693 0.78516 0.38706 0.0
C390 C 0.29917 0.77352 0.40068 0.0
C391 C 0.29138 0.75413 0.39646 0.0
C392 C 0.28089 0.74674 0.3785 0.0
C393 C 0.27856 0.75844 0.36492 0.0
C394 C 0.25947 0.78958 0.29286 0.0
C395 C 0.27048 0.74114 0.30141 0.0
O396 O 0.27503 0.77348 0.25209 0.0
O397 O 0.29733 0.76173 0.25614 0.0
O398 O 0.30595 0.78216 0.30541 0.0
O399 O 0.30492 0.75584 0.29023 0.0
O400 O 0.29713 0.80311 0.28139 0.0
O401 O 0.29829 0.81284 0.31361 0.0
O402 O 0.29939 0.79342 0.34613 0.0
O403 O 0.27151 0.78609 0.3421 0.0
O404 O 0.26581 0.77544 0.29276 0.0
O405 O 0.26657 0.80151 0.3083 0.0
O406 O 0.27784 0.754 0.31683 0.0
O407 O 0.27027 0.74606 0.28417 0.0
H408 H 0.28278 0.80261 0.23754 0.0
H409 H 0.29642 0.82194 0.21619 0.0
H410 H 0.32534 0.78088 0.20224 0.0
H411 H 0.31095 0.76105 0.22303 0.0
H412 H 0.30334 0.79998 0.39048 0.0
H413 H 0.30702 0.77973 0.41454 0.0
H414 H 0.27478 0.73187 0.37476 0.0
H415 H 0.27056 0.75238 0.35113 0.0
Tb416 Tb 0.55635 0.02418 0.54896 0.0
Tb417 Tb 0.52151 0.01646 0.55699 0.0
C418 C 0.5875 0.02533 0.54707 0.0
C419 C 0.60041 0.01387 0.54889 0.0
C420 C 0.6062 1.00868 0.56652 0.0
C421 C 0.61987 0.99987 0.56836 0.0
C422 C 0.62808 0.99602 0.55264 0.0
C423 C 0.6219 1.00074 0.53489 0.0
C424 C 0.6083 1.0096 0.53308 0.0
C425 C 0.53354 0.02958 0.52033 0.0
C426 C 0.53445 0.98178 0.54274 0.0
C427 C 0.4903 0.01553 0.55851 0.0
C428 C 0.47741 0.02701 0.55603 0.0
C429 C 0.47051 0.03007 0.53775 0.0
C430 C 0.45685 0.03888 0.53548 0.0
C431 C 0.44965 0.04481 0.5514 0.0
C432 C 0.45695 0.04225 0.56971 0.0
C433 C 0.47057 0.03342 0.57197 0.0
C434 C 0.5444 0.01106 0.58568 0.0
C435 C 0.54332 0.05886 0.56288 0.0
O436 O 0.58209 0.03125 0.56264 0.0
O437 O 0.57512 0.02014 0.53221 0.0
O438 O 0.53133 0.01645 0.53037 0.0
O439 O 0.54913 0.0396 0.52595 0.0
O440 O 0.54988 0.99342 0.54667 0.0
O441 O 0.52056 0.98806 0.5439 0.0
O442 O 0.49578 1.00906 0.54321 0.0
O443 O 0.50264 0.02102 0.57342 0.0
O444 O 0.54656 0.02417 0.5756 0.0
O445 O 0.52874 1.00116 0.58016 0.0
O446 O 0.52794 0.04716 0.5591 0.0
O447 O 0.55727 0.05268 0.56177 0.0
H448 H 0.60045 0.01178 0.57903 0.0
H449 H 0.62411 0.99622 0.58218 0.0
H450 H 0.628 0.99823 0.52253 0.0
H451 H 0.60427 0.01363 0.51939 0.0
H452 H 0.47533 0.02519 0.52509 0.0
H453 H 0.45153 0.04042 0.52113 0.0
H454 H 0.45202 0.0469 0.58238 0.0
H455 H 0.47548 0.03118 0.58621 0.0
Tb456 Tb 0.26756 0.27222 0.78833 0.0
Tb457 Tb 0.30763 0.27337 0.7972 0.0
C458 C 0.23585 0.25928 0.78677 0.0
C459 C 0.2208 0.26181 0.79547 0.0
C460 C 0.20771 0.24582 0.79538 0.0
C461 C 0.1932 0.24727 0.80347 0.0
C462 C 0.19133 0.26483 0.81187 0.0
C463 C 0.20463 0.28091 0.81216 0.0
C464 C 0.21924 0.27942 0.80402 0.0
C465 C 0.28757 0.30519 0.78539 0.0
C466 C 0.28995 0.28937 0.83015 0.0
C467 C 0.33937 0.27746 0.7977 0.0
C468 C 0.35254 0.27976 0.78497 0.0
C469 C 0.36486 0.29693 0.78711 0.0
C470 C 0.37887 0.29848 0.77732 0.0
C471 C 0.38099 0.28282 0.7653 0.0
C472 C 0.36829 0.26586 0.76258 0.0
C473 C 0.35426 0.26434 0.77227 0.0
C474 C 0.28558 0.24433 0.80468 0.0
C475 C 0.2864 0.26128 0.75411 0.0
O476 O 0.24778 0.25412 0.79773 0.0
O477 O 0.24221 0.27147 0.7761 0.0
O478 O 0.2914 0.29055 0.78962 0.0
O479 O 0.27088 0.30181 0.78301 0.0
O480 O 0.27456 0.28185 0.8194 0.0
O481 O 0.30463 0.28955 0.82372 0.0
O482 O 0.33235 0.29154 0.80183 0.0
O483 O 0.32831 0.26107 0.79515 0.0
O484 O 0.28366 0.25304 0.79079 0.0
O485 O 0.30084 0.25125 0.81468 0.0
O486 O 0.30152 0.26746 0.7657 0.0
O487 O 0.27146 0.26029 0.76015 0.0
H488 H 0.20873 0.23207 0.78905 0.0
H489 H 0.18351 0.23452 0.80332 0.0
H490 H 0.20363 0.29468 0.81841 0.0
H491 H 0.22926 0.29195 0.80438 0.0
H492 H 0.36401 0.30901 0.79693 0.0
H493 H 0.38844 0.31173 0.77985 0.0
H494 H 0.36936 0.25361 0.7532 0.0
H495 H 0.34508 0.25086 0.77025 0.0
Tb496 Tb 0.03946 0.05079 0.54505 0.0
Tb497 Tb 0.03184 1.00665 0.53345 0.0
C498 C 0.0503 0.08571 0.54819 0.0
C499 C 0.05709 0.09877 0.53567 0.0
C500 C 0.05931 0.09213 0.51707 0.0
C501 C 0.06483 0.10478 0.5049 0.0
C502 C 0.06822 0.12426 0.51117 0.0
C503 C 0.06641 0.13081 0.53003 0.0
C504 C 0.06087 0.11814 0.54216 0.0
C505 C 0.00986 0.0308 0.55067 0.0
C506 C 0.02785 0.03104 0.50082 0.0
C507 C 0.01578 0.97294 0.52948 0.0
C508 C 0.01756 0.95734 0.53972 0.0
C509 C 1.00336 0.94221 0.53844 0.0
C510 C 1.00415 0.92841 0.55003 0.0
C511 C 0.01918 0.92958 0.56311 0.0
C512 C 0.03354 0.94461 0.56399 0.0
C513 C 0.0327 0.95843 0.55246 0.0
C514 C 0.0645 0.0237 0.53319 0.0
C515 C 0.04834 0.02638 0.57649 0.0
O516 O 0.05999 0.07456 0.55349 0.0
O517 O 0.03403 0.07694 0.54306 0.0
O518 O 0.01753 0.0276 0.53684 0.0
O519 O 0.01835 0.04645 0.56153 0.0
O520 O 0.03492 0.04659 0.51348 0.0
O521 O 0.02405 0.01407 0.50568 0.0
O522 O 0.01166 0.98673 0.53976 0.0
O523 O 0.02792 0.97888 0.51963 0.0
O524 O 0.05217 0.03037 0.53676 0.0
O525 O 0.05853 1.00553 0.52979 0.0
O526 O 0.03961 0.01084 0.56465 0.0
O527 O 0.05137 0.04326 0.57125 0.0
H528 H 0.05655 0.07722 0.51184 0.0
H529 H 0.06624 0.09933 0.49052 0.0
H530 H 0.06867 0.14572 0.53519 0.0
H531 H 0.05919 0.12347 0.55649 0.0
H532 H 0.99148 0.94138 0.52891 0.0
H533 H 0.9928 0.91717 0.54917 0.0
H534 H 0.04539 0.94578 0.5737 0.0
H535 H 0.04371 0.97021 0.5538 0.0
Tb536 Tb 0.29926 0.76778 0.78043 0.0
Tb537 Tb 0.3033 0.80153 0.81192 0.0
C538 C 0.30116 0.74507 0.75204 0.0
C539 C 0.30866 0.72865 0.75133 0.0
C540 C 0.31098 0.71942 0.73381 0.0
C541 C 0.31883 0.7043 0.73347 0.0
C542 C 0.32456 0.69827 0.75067 0.0
C543 C 0.32217 0.70764 0.76817 0.0
C544 C 0.31433 0.72267 0.76848 0.0
C545 C 0.28511 0.76049 0.81067 0.0
C546 C 0.32741 0.7746 0.81742 0.0
C547 C 0.29907 0.82668 0.8366 0.0
C548 C 0.28553 0.83667 0.83914 0.0
C549 C 0.26833 0.82861 0.8307 0.0
C550 C 0.25606 0.83927 0.83138 0.0
C551 C 0.26082 0.85819 0.84042 0.0
C552 C 0.27803 0.86596 0.84925 0.0
C553 C 0.29022 0.85529 0.84863 0.0
C554 C 0.32531 0.80533 0.78793 0.0
C555 C 0.27346 0.79381 0.77538 0.0
O556 O 0.31232 0.76126 0.75808 0.0
O557 O 0.2874 0.74368 0.76011 0.0
O558 O 0.28584 0.77484 0.80283 0.0
O559 O 0.29172 0.74878 0.80087 0.0
O560 O 0.32324 0.76849 0.79871 0.0
O561 O 0.31901 0.78541 0.82656 0.0
O562 O 0.29566 0.80878 0.83827 0.0
O563 O 0.30672 0.83015 0.82193 0.0
O564 O 0.30961 0.79729 0.78403 0.0
O565 O 0.32935 0.81198 0.80611 0.0
O566 O 0.28111 0.80403 0.79223 0.0
O567 O 0.27873 0.77933 0.76752 0.0
H568 H 0.30688 0.72401 0.72045 0.0
H569 H 0.32067 0.69755 0.71977 0.0
H570 H 0.3262 0.70324 0.78165 0.0
H571 H 0.31278 0.72972 0.78218 0.0
H572 H 0.26446 0.81427 0.82317 0.0
H573 H 0.24292 0.83276 0.82458 0.0
H574 H 0.2823 0.88055 0.85601 0.0
H575 H 0.30348 0.86181 0.85501 0.0
Tb576 Tb 0.51482 0.03538 0.03826 0.0
Tb577 Tb 0.54542 0.03264 0.065 0.0
C578 C 0.48606 0.02942 0.0169 0.0
C579 C 0.46934 0.01556 0.01261 0.0
C580 C 0.46818 0.9964 1.00654 0.0
C581 C 0.45222 0.98387 0.99998 0.0
C582 C 0.43704 0.99016 0.99952 0.0
C583 C 0.43821 1.0092 1.00637 0.0
C584 C 0.45423 0.02179 0.01275 0.0
C585 C 0.53587 0.06809 0.05406 0.0
C586 C 0.51202 0.0332 0.08273 0.0
C587 C 0.57416 0.03867 0.08614 0.0
C588 C 0.59098 0.03433 0.08612 0.0
C589 C 0.59877 0.03414 0.0697 0.0
C590 C 0.61536 0.03136 0.07069 0.0
C591 C 0.62436 0.0287 0.08811 0.0
C592 C 0.61614 0.02807 0.10424 0.0
C593 C 0.59962 0.0309 0.10324 0.0
C594 C 0.52412 0.99988 0.04951 0.0
C595 C 0.54847 0.0339 0.01996 0.0
O596 O 0.4991 0.02347 0.01195 0.0
O597 O 0.49007 0.04043 0.03357 0.0
O598 O 0.53187 0.05374 0.06171 0.0
O599 O 0.52667 0.06482 0.03706 0.0
O600 O 0.5038 0.02817 0.06454 0.0
O601 O 0.52904 0.0385 0.08609 0.0
O602 O 0.57004 0.05016 0.07469 0.0
O603 O 0.56134 0.02444 0.08637 0.0
O604 O 0.52818 0.01412 0.04168 0.0
O605 O 0.53346 1.00329 0.06644 0.0
O606 O 0.55638 0.03394 0.03774 0.0
O607 O 0.53193 0.03395 0.0168 0.0
H608 H 0.4796 0.99115 1.00621 0.0
H609 H 0.45186 0.96939 0.99463 0.0
H610 H 0.42677 0.01445 1.00659 0.0
H611 H 0.45482 0.0365 0.01733 0.0
H612 H 0.59224 0.03663 0.05629 0.0
H613 H 0.62141 0.03209 0.05807 0.0
H614 H 0.62263 0.02579 0.11777 0.0
H615 H 0.59371 0.03083 0.11601 0.0
Tb616 Tb 0.26827 0.26472 0.28618 0.0
Tb617 Tb 0.30205 0.29053 0.30188 0.0
C618 C 0.23738 0.24789 0.28414 0.0
C619 C 0.22193 0.25475 0.28657 0.0
C620 C 0.22313 0.27112 0.29957 0.0
C621 C 0.20864 0.2779 0.3016 0.0
C622 C 0.19243 0.26823 0.29104 0.0
C623 C 0.19124 0.25173 0.27807 0.0
C624 C 0.20588 0.24513 0.27579 0.0
C625 C 0.28479 0.27858 0.25986 0.0
C626 C 0.27084 0.30989 0.29883 0.0
C627 C 0.33275 0.30884 0.3063 0.0
C628 C 0.34919 0.30469 0.30313 0.0
C629 C 0.35068 0.29448 0.28567 0.0
C630 C 0.36661 0.29181 0.2824 0.0
C631 C 0.38128 0.29905 0.29659 0.0
C632 C 0.37968 0.30864 0.31431 0.0
C633 C 0.36375 0.31154 0.3175 0.0
C634 C 0.28522 0.2761 0.32794 0.0
C635 C 0.29977 0.24584 0.28761 0.0
O636 O 0.24897 0.25081 0.29966 0.0
O637 O 0.2442 0.25181 0.26905 0.0
O638 O 0.28419 0.2871 0.27615 0.0
O639 O 0.27506 0.26161 0.25744 0.0
O640 O 0.26118 0.29229 0.29378 0.0
O641 O 0.28784 0.31285 0.30205 0.0
O642 O 0.3214 0.3075 0.29089 0.0
O643 O 0.32586 0.30166 0.32011 0.0
O644 O 0.28628 0.2679 0.31171 0.0
O645 O 0.29436 0.2933 0.33032 0.0
O646 O 0.30937 0.26356 0.29196 0.0
O647 O 0.28276 0.24263 0.28576 0.0
H648 H 0.23529 0.27872 0.30828 0.0
H649 H 0.21022 0.29083 0.31144 0.0
H650 H 0.17896 0.24371 0.26991 0.0
H651 H 0.20466 0.23243 0.26574 0.0
H652 H 0.33961 0.28882 0.27441 0.0
H653 H 0.3675 0.28415 0.26871 0.0
H654 H 0.39083 0.31439 0.32544 0.0
H655 H 0.36285 0.3194 0.33108 0.0
Tb656 Tb 0.53634 0.55243 0.04119 0.0
Tb657 Tb 0.53092 0.5085 0.03139 0.0
C658 C 0.5449 0.58747 0.04315 0.0
C659 C 0.54854 0.60092 0.02991 0.0
C660 C 0.54768 0.59478 0.01025 0.0
C661 C 0.54963 0.6078 0.99759 0.0
C662 C 0.55267 0.62712 1.00447 0.0
C663 C 0.55405 0.6332 0.02428 0.0
C664 C 0.55194 0.62017 0.03688 0.0
C665 C 0.50755 0.53136 0.04764 0.0
C666 C 0.52429 0.53095 0.99754 0.0
C667 C 0.51711 0.47432 0.02917 0.0
C668 C 0.52097 0.45974 0.03995 0.0
C669 C 0.50785 0.44402 0.04053 0.0
C670 C 0.51057 0.43152 0.05312 0.0
C671 C 0.52648 0.43461 0.06529 0.0
C672 C 0.53977 0.4501 0.06422 0.0
C673 C 0.53701 0.46265 0.0517 0.0
C674 C 0.56317 0.52683 0.03097 0.0
C675 C 0.54671 0.53023 0.07402 0.0
O676 O 0.55596 0.57719 0.04625 0.0
O677 O 0.52892 0.57773 0.04062 0.0
O678 O 0.51526 0.52818 0.03382 0.0
O679 O 0.51557 0.54742 0.05802 0.0
O680 O 0.5306 0.54705 0.00961 0.0
O681 O 0.52196 0.51427 1.00315 0.0
O682 O 0.51258 0.48777 0.03951 0.0
O683 O 0.52809 0.48072 0.01817 0.0
O684 O 0.5504 0.53298 0.03395 0.0
O685 O 0.55792 0.50861 0.0283 0.0
O686 O 0.53855 0.51418 0.06266 0.0
O687 O 0.54905 0.54677 0.06803 0.0
H688 H 0.54523 0.57998 1.00465 0.0
H689 H 0.54867 0.60276 0.98242 0.0
H690 H 0.5562 0.64799 0.02995 0.0
H691 H 0.55257 0.6251 0.05201 0.0
H692 H 0.49533 0.44177 0.03172 0.0
H693 H 0.50017 0.41959 0.05354 0.0
H694 H 0.55208 0.45294 0.0736 0.0
H695 H 0.54716 0.47497 0.05171 0.0
Tb696 Tb 0.78933 0.25626 0.30976 0.0
Tb697 Tb 0.796 0.29844 0.32316 0.0
C698 C 0.78827 0.22511 0.29038 0.0
C699 C 0.80008 0.21266 0.28883 0.0
C700 C 0.80201 0.20473 0.27058 0.0
C701 C 0.81291 0.19263 0.26866 0.0
C702 C 0.82204 0.1881 0.285 0.0
C703 C 0.82033 0.19642 0.30331 0.0
C704 C 0.80952 0.20865 0.30521 0.0
C705 C 0.77124 0.26621 0.33532 0.0
C706 C 0.81814 0.27403 0.34541 0.0
C707 C 0.79667 0.32997 0.34145 0.0
C708 C 0.78474 0.34237 0.34063 0.0
C709 C 0.767 0.33492 0.33471 0.0
C710 C 0.75584 0.34685 0.33333 0.0
C711 C 0.76223 0.36651 0.33764 0.0
C712 C 0.78003 0.37386 0.34364 0.0
C713 C 0.79116 0.36189 0.34514 0.0
C714 C 0.81359 0.28798 0.29721 0.0
C715 C 0.76752 0.2809 0.28735 0.0
O716 O 0.79284 0.24116 0.28425 0.0
O717 O 0.78212 0.22687 0.30644 0.0
O718 O 0.77538 0.27459 0.3218 0.0
O719 O 0.77597 0.25051 0.33396 0.0
O720 O 0.81193 0.25964 0.33127 0.0
O721 O 0.81299 0.28993 0.34562 0.0
O722 O 0.79127 0.31405 0.3476 0.0
O723 O 0.80406 0.32784 0.32634 0.0
O724 O 0.80968 0.28007 0.31105 0.0
O725 O 0.80856 0.30352 0.29805 0.0
O726 O 0.77356 0.29516 0.30161 0.0
O727 O 0.77263 0.26499 0.28719 0.0
H728 H 0.79504 0.20788 0.25777 0.0
H729 H 0.8142 0.18687 0.25434 0.0
H730 H 0.82703 0.19315 0.31621 0.0
H731 H 0.80841 0.21479 0.31948 0.0
H732 H 0.76177 0.31987 0.33101 0.0
H733 H 0.74222 0.34065 0.3289 0.0
H734 H 0.78546 0.3889 0.34674 0.0
H735 H 0.80482 0.3679 0.34957 0.0
Tb736 Tb 0.01674 0.53129 0.53919 0.0
Tb737 Tb 0.04838 0.53205 0.56645 0.0
C738 C 0.98759 0.52166 0.51854 0.0
C739 C 0.96972 0.52186 0.51997 0.0
C740 C 0.96008 0.52841 0.50558 0.0
C741 C 0.94268 0.52736 0.50562 0.0
C742 C 0.93455 0.51957 0.51998 0.0
C743 C 0.94443 0.51366 0.53481 0.0
C744 C 0.96188 0.51486 0.53485 0.0
C745 C 0.03476 0.56508 0.55574 0.0
C746 C 0.01422 0.53058 0.5845 0.0
C747 C 0.07732 0.54176 0.58765 0.0
C748 C 0.09524 0.54148 0.58705 0.0
C749 C 0.10124 0.53892 0.5696 0.0
C750 C 0.11868 0.54001 0.56957 0.0
C751 C 0.13028 0.54357 0.58702 0.0
C752 C 0.12401 0.54546 0.60443 0.0
C753 C 0.10663 0.54443 0.60442 0.0
C754 C 0.03066 0.49805 0.5496 0.0
C755 C 0.05082 0.53311 0.52111 0.0
O756 O 0.99442 0.51023 0.52803 0.0
O757 O 0.9982 0.53807 0.51956 0.0
O758 O 0.03206 0.55042 0.56315 0.0
O759 O 0.02584 0.56145 0.53854 0.0
O760 O 1.00588 0.52792 0.56641 0.0
O761 O 0.03128 0.53414 0.58788 0.0
O762 O 0.07095 0.55288 0.57729 0.0
O763 O 0.06662 0.52541 0.58655 0.0
O764 O 0.0332 0.51284 0.54235 0.0
O765 O 0.03931 0.50194 0.56694 0.0
O766 O 0.05919 0.53576 0.53921 0.0
O767 O 0.03377 0.52937 0.51773 0.0
H768 H 0.96594 0.53398 0.49405 0.0
H769 H 0.93553 0.53232 0.49418 0.0
H770 H 0.93857 0.50738 0.54597 0.0
H771 H 0.96907 0.50983 0.5462 0.0
H772 H 0.09253 0.53646 0.55606 0.0
H773 H 0.12313 0.53834 0.55594 0.0
H774 H 0.13264 0.5485 0.61809 0.0
H775 H 0.10214 0.54641 0.61801 0.0
Tb776 Tb 0.76885 0.77861 0.28723 0.0
Tb777 Tb 0.80688 0.77825 0.29639 0.0
C778 C 0.73676 0.77324 0.28534 0.0
C779 C 0.72283 0.77106 0.29692 0.0
C780 C 0.7064 0.7605 0.28805 0.0
C781 C 0.69248 0.75922 0.29786 0.0
C782 C 0.69463 0.76849 0.31687 0.0
C783 C 0.71126 0.77866 0.32597 0.0
C784 C 0.72524 0.77999 0.31607 0.0
C785 C 0.79091 0.80818 0.28091 0.0
C786 C 0.78956 0.79097 0.33043 0.0
C787 C 0.83892 0.78361 0.29756 0.0
C788 C 0.85213 0.78358 0.28496 0.0
C789 C 0.86252 0.80073 0.28234 0.0
C790 C 0.87639 0.80108 0.2725 0.0
C791 C 0.88035 0.78427 0.26512 0.0
C792 C 0.86966 0.76709 0.2673 0.0
C793 C 0.85576 0.76674 0.27711 0.0
C794 C 0.78471 0.74883 0.30281 0.0
C795 C 0.78625 0.76582 0.25303 0.0
O796 O 0.74466 0.75962 0.2835 0.0
O797 O 0.74728 0.78988 0.28745 0.0
O798 O 0.79274 0.79915 0.29458 0.0
O799 O 0.77568 0.80153 0.27079 0.0
O800 O 0.77451 0.78395 0.31891 0.0
O801 O 0.80431 0.79233 0.32405 0.0
O802 O 0.83068 0.79695 0.29715 0.0
O803 O 0.82887 0.76747 0.29895 0.0
O804 O 0.78302 0.75774 0.28903 0.0
O805 O 0.79989 0.75555 0.31309 0.0
O806 O 0.80123 0.77146 0.26486 0.0
O807 O 0.77145 0.76579 0.25895 0.0
H808 H 0.70425 0.75345 0.27331 0.0
H809 H 0.67999 0.75096 0.29049 0.0
H810 H 0.7134 0.78605 0.34056 0.0
H811 H 0.7378 0.78825 0.32322 0.0
H812 H 0.86024 0.81397 0.28843 0.0
H813 H 0.88441 0.81458 0.27134 0.0
H814 H 0.87214 0.75385 0.26157 0.0
H815 H 0.84813 0.75327 0.27893 0.0
Tb816 Tb 0.7885 0.26624 0.77821 0.0
Tb817 Tb 0.78663 0.28006 0.81752 0.0
C818 C 0.78583 0.25911 0.74228 0.0
C819 C 0.79547 0.26396 0.72676 0.0
C820 C 0.79728 0.28158 0.72079 0.0
C821 C 0.80471 0.28501 0.70461 0.0
C822 C 0.81051 0.2709 0.69411 0.0
C823 C 0.80933 0.25356 0.70062 0.0
C824 C 0.80182 0.25011 0.71672 0.0
C825 C 0.81448 0.26249 0.80318 0.0
C826 C 0.80343 0.31089 0.7945 0.0
C827 C 0.78866 0.28567 0.85338 0.0
C828 C 0.78946 0.27425 0.86892 0.0
C829 C 0.80482 0.26963 0.87595 0.0
C830 C 0.80555 0.25928 0.89102 0.0
C831 C 0.79096 0.25334 0.89937 0.0
C832 C 0.77557 0.25783 0.89221 0.0
C833 C 0.77486 0.26826 0.87721 0.0
C834 C 0.76134 0.28422 0.79206 0.0
C835 C 0.77175 0.23613 0.80136 0.0
O836 O 0.77947 0.27199 0.75105 0.0
O837 O 0.79233 0.24938 0.75414 0.0
O838 O 0.80772 0.27633 0.8038 0.0
O839 O 0.80754 0.25103 0.78746 0.0
O840 O 0.79965 0.29704 0.77949 0.0
O841 O 0.80032 0.30725 0.8116 0.0
O842 O 0.80197 0.28882 0.84468 0.0
O843 O 0.77414 0.28179 0.84135 0.0
O844 O 0.76754 0.26998 0.79195 0.0
O845 O 0.76879 0.29631 0.80727 0.0
O846 O 0.77947 0.24897 0.81663 0.0
O847 O 0.7711 0.24107 0.7841 0.0
H848 H 0.79245 0.29252 0.72818 0.0
H849 H 0.80514 0.29842 0.69983 0.0
H850 H 0.81383 0.24249 0.69298 0.0
H851 H 0.80053 0.23637 0.721 0.0
H852 H 0.81637 0.27415 0.87 0.0
H853 H 0.81768 0.25633 0.89641 0.0
H854 H 0.76405 0.25328 0.8982 0.0
H855 H 0.76288 0.27171 0.87214 0.0
Tb856 Tb 0.77022 0.76064 0.78412 0.0
Tb857 Tb 0.80391 0.78682 0.7984 0.0
C858 C 0.73957 0.74343 0.78237 0.0
C859 C 0.7238 0.75018 0.78219 0.0
C860 C 0.71238 0.74376 0.79436 0.0
C861 C 0.69913 0.75249 0.79728 0.0
C862 C 0.69703 0.76772 0.78796 0.0
C863 C 0.70784 0.77343 0.7749 0.0
C864 C 0.72123 0.76482 0.77214 0.0
C865 C 0.78522 0.77499 0.75692 0.0
C866 C 0.772 0.8055 0.79588 0.0
C867 C 0.83416 0.80629 0.80146 0.0
C868 C 0.85172 0.80381 0.80312 0.0
C869 C 0.85508 0.78603 0.80347 0.0
C870 C 0.87166 0.78368 0.80282 0.0
C871 C 0.88512 0.79912 0.80188 0.0
C872 C 0.88175 0.81704 0.80244 0.0
C873 C 0.86517 0.81933 0.80297 0.0
C874 C 0.78849 0.77236 0.8254 0.0
C875 C 0.80191 0.74185 0.78585 0.0
O876 O 0.75054 0.74909 0.79847 0.0
O877 O 0.74702 0.74473 0.76723 0.0
O878 O 0.7852 0.78337 0.77345 0.0
O879 O 0.77567 0.75801 0.75478 0.0
O880 O 0.76253 0.78777 0.79222 0.0
O881 O 0.78898 0.80862 0.79741 0.0
O882 O 0.82415 0.79873 0.78503 0.0
O883 O 0.82636 0.80353 0.81614 0.0
O884 O 0.78902 0.76405 0.80904 0.0
O885 O 0.79755 0.78954 0.82746 0.0
O886 O 0.8115 0.7596 0.78999 0.0
O887 O 0.78492 0.73871 0.78416 0.0
H888 H 0.71423 0.73259 0.80234 0.0
H889 H 0.69083 0.74773 0.80729 0.0
H890 H 0.70657 0.78524 0.76768 0.0
H891 H 0.73005 0.77023 0.76288 0.0
H892 H 0.84482 0.77394 0.80373 0.0
H893 H 0.87377 0.76967 0.80228 0.0
H894 H 0.89187 0.82928 0.80213 0.0
H895 H 0.86278 0.83317 0.80279 0.0
Tb896 Tb 0.52619 0.50881 0.52824 0.0
Tb897 Tb 0.56125 0.5292 0.54862 0.0
C898 C 0.49434 0.50014 0.51715 0.0
C899 C 0.48208 0.51175 0.51965 0.0
C900 C 0.48634 0.52701 0.53473 0.0
C901 C 0.47533 0.53879 0.53694 0.0
C902 C 0.45971 0.53547 0.52423 0.0
C903 C 0.45547 0.52027 0.50898 0.0
C904 C 0.46664 0.50845 0.5067 0.0
C905 C 0.55073 0.50703 0.5078 0.0
C906 C 0.53967 0.55334 0.52948 0.0
C907 C 0.59303 0.53739 0.56018 0.0
C908 C 0.60407 0.52547 0.56726 0.0
C909 C 0.60116 0.50669 0.55839 0.0
C910 C 0.6102 0.4947 0.56627 0.0
C911 C 0.62251 0.50127 0.58302 0.0
C912 C 0.62587 0.5202 0.59161 0.0
C913 C 0.61658 0.5322 0.58385 0.0
C914 C 0.53657 0.53133 0.56873 0.0
C915 C 0.54751 0.48456 0.54862 0.0
O916 O 0.50174 0.4961 0.53309 0.0
O917 O 0.50536 0.50572 0.506 0.0
O918 O 0.54959 0.52097 0.51924 0.0
O919 O 0.53705 0.49364 0.50658 0.0
O920 O 0.52641 0.53903 0.52936 0.0
O921 O 0.55558 0.55194 0.53449 0.0
O922 O 0.58604 0.53292 0.54199 0.0
O923 O 0.58204 0.54086 0.57114 0.0
O924 O 0.53779 0.5172 0.55761 0.0
O925 O 0.55016 0.54484 0.56972 0.0
O926 O 0.56046 0.49973 0.55194 0.0
O927 O 0.53205 0.48484 0.54009 0.0
H928 H 0.49828 0.52993 0.54479 0.0
H929 H 0.47916 0.55062 0.54857 0.0
H930 H 0.44349 0.51739 0.49902 0.0
H931 H 0.46328 0.49682 0.49487 0.0
H932 H 0.59167 0.5011 0.54552 0.0
H933 H 0.60762 0.48026 0.55915 0.0
H934 H 0.63541 0.52558 0.60449 0.0
H935 H 0.61895 0.54661 0.59095 0.0
Tb936 Tb 0.05914 0.52751 0.05255 0.0
Tb937 Tb 0.0209 0.51936 0.05798 0.0
C938 C 0.0909 0.53054 0.06183 0.0
C939 C 0.10517 0.52145 0.05924 0.0
C940 C 0.11571 0.5194 0.0758 0.0
C941 C 0.12982 0.51167 0.07445 0.0
C942 C 0.13387 0.50581 0.05645 0.0
C943 C 0.12309 0.50751 0.03976 0.0
C944 C 0.10887 0.51532 0.04114 0.0
C945 C 0.03846 0.5266 0.01905 0.0
C946 C 0.03563 0.4857 0.0414 0.0
C947 C 0.98931 0.51719 0.05734 0.0
C948 C 0.97539 0.52696 0.0537 0.0
C949 C 0.97849 0.54592 0.05122 0.0
C950 C 0.96476 0.55469 0.04859 0.0
C951 C 0.94776 0.54467 0.04852 0.0
C952 C 0.94485 0.52561 0.05067 0.0
C953 C 0.95847 0.51691 0.05323 0.0
C954 C 0.04339 0.51465 0.08727 0.0
C955 C 0.04312 0.56185 0.06286 0.0
O956 O 0.07923 0.52187 0.0708 0.0
O957 O 0.08435 0.53824 0.04786 0.0
O958 O 0.03467 0.52444 0.03542 0.0
O959 O 0.05506 0.52903 0.02127 0.0
O960 O 0.05134 0.49686 0.04573 0.0
O961 O 0.02167 0.49182 0.04344 0.0
O962 O 0.99568 0.51106 0.04253 0.0
O963 O 1.00111 0.52413 0.07262 0.0
O964 O 0.04564 0.52729 0.07665 0.0
O965 O 0.02771 0.50473 0.08192 0.0
O966 O 0.02775 0.55002 0.06006 0.0
O967 O 0.05744 0.55612 0.06209 0.0
H968 H 0.1131 0.52395 0.08993 0.0
H969 H 0.13756 0.51025 0.0876 0.0
H970 H 0.12586 0.50321 0.02566 0.0
H971 H 0.10092 0.51671 0.02812 0.0
H972 H 0.99147 0.55395 0.05152 0.0
H973 H 0.96751 0.5694 0.04705 0.0
H974 H 0.93196 0.5173 0.05031 0.0
H975 H 0.95578 0.50225 0.05503 0.0
C976 C 0.01435 0.20502 0.97471 0.0
C977 C 0.01415 0.20462 0.95485 0.0
C978 C 0.01634 0.18939 0.9834 0.0
C979 C 0.01195 0.13773 0.9721 0.0
H980 H 0.04123 0.14463 0.02163 0.0
C981 C 0.0174 0.07485 0.01196 0.0
C982 C 0.03392 0.07437 0.02078 0.0
C983 C 0.01444 0.09098 1.00494 0.0
C984 C 0.03305 0.14242 0.00775 0.0
H985 H 0.01593 0.18722 0.92864 0.0
H986 H 0.01942 0.16019 0.9437 0.0
H987 H 0.03729 0.17206 1.00727 0.0
H988 H 0.06022 0.09084 0.02937 0.0
H989 H 0.0551 0.11883 0.01709 0.0
H990 H 1.00795 0.10812 0.97237 0.0
C991 C 0.01786 0.1725 0.95259 0.0
C992 C 0.03064 0.15819 0.99959 0.0
C993 C 0.01597 0.18812 0.94395 0.0
C994 C 0.04732 0.09063 0.02271 0.0
C995 C 0.04435 0.10678 0.01574 0.0
C996 C 0.01428 0.12198 0.9803 0.0
C997 C 0.01808 0.17286 0.97244 0.0
C998 C 0.02017 0.15608 0.98156 0.0
C999 C 0.02791 0.10714 1.00655 0.0
C1000 C 0.02496 0.12406 0.99819 0.0
H1001 H 0.01298 0.21744 0.9836 0.0
H1002 H 0.01628 0.19017 0.99868 0.0
H1003 H 1.00363 0.13549 0.95832 0.0
H1004 H 1.00674 0.06265 0.01015 0.0
H1005 H 1.00155 0.09076 0.99822 0.0
C1006 C 0.13112 0.80707 0.18713 0.0
C1007 C 0.11556 0.79926 0.19301 0.0
C1008 C 0.14693 0.80659 0.19769 0.0
C1009 C 0.17908 0.81187 0.22805 0.0
H1010 H 0.18233 0.76616 0.24822 0.0
C1011 C 0.23794 0.80733 0.28201 0.0
C1012 C 0.24376 0.79074 0.28006 0.0
C1013 C 0.22275 0.80847 0.2707 0.0
C1014 C 0.18171 0.77898 0.24256 0.0
H1015 H 0.10463 0.78521 0.21506 0.0
H1016 H 0.13212 0.78451 0.23347 0.0
H1017 H 0.15507 0.76833 0.23031 0.0
H1018 H 0.23834 0.7624 0.26444 0.0
H1019 H 0.2117 0.76434 0.24461 0.0
H1020 H 0.20575 0.82247 0.24019 0.0
C1021 C 0.13209 0.79081 0.22052 0.0
C1022 C 0.166 0.78032 0.23248 0.0
C1023 C 0.1163 0.79138 0.21003 0.0
C1024 C 0.23416 0.77536 0.2663 0.0
C1025 C 0.21885 0.77645 0.25504 0.0
C1026 C 0.19477 0.81057 0.23823 0.0
C1027 C 0.14763 0.79819 0.21438 0.0
C1028 C 0.16443 0.7968 0.22512 0.0
C1029 C 0.21289 0.79301 0.25716 0.0
C1030 C 0.1963 0.79413 0.24569 0.0
H1031 H 0.13111 0.8132 0.17408 0.0
H1032 H 0.15859 0.8123 0.19242 0.0
H1033 H 0.17838 0.82482 0.22271 0.0
H1034 H 0.24506 0.81943 0.29247 0.0
H1035 H 0.21852 0.82137 0.27292 0.0
C1036 C 0.51481 0.82353 0.45612 0.0
C1037 C 0.52084 0.80973 0.46508 0.0
C1038 C 0.51577 0.84119 0.46646 0.0
C1039 C 0.53854 0.87442 0.51043 0.0
H1040 H 0.50224 0.89944 0.49732 0.0
C1041 C 0.5471 0.95466 0.53265 0.0
C1042 C 0.53278 0.96135 0.53662 0.0
C1043 C 0.54536 0.93557 0.5259 0.0
C1044 C 0.51242 0.89265 0.50142 0.0
H1045 H 0.53251 0.80386 0.4922 0.0
H1046 H 0.53401 0.83479 0.51041 0.0
H1047 H 0.49923 0.86718 0.48255 0.0
H1048 H 0.50549 0.95297 0.53719 0.0
H1049 H 0.50253 0.91972 0.52585 0.0
H1050 H 0.55162 0.89989 0.52954 0.0
C1051 C 0.52869 0.83189 0.49523 0.0
C1052 C 0.51079 0.87415 0.49271 0.0
C1053 C 0.52774 0.8141 0.48482 0.0
C1054 C 0.51677 0.94837 0.53414 0.0
C1055 C 0.51506 0.92927 0.52751 0.0
C1056 C 0.54015 0.89296 0.51922 0.0
C1057 C 0.52272 0.84569 0.48615 0.0
C1058 C 0.52394 0.86485 0.49681 0.0
C1059 C 0.52928 0.92261 0.52303 0.0
C1060 C 0.52721 0.90244 0.51465 0.0
H1061 H 0.50947 0.82081 0.44094 0.0
H1062 H 0.51135 0.85148 0.45882 0.0
H1063 H 0.54898 0.86779 0.51389 0.0
H1064 H 0.55963 0.96424 0.53434 0.0
H1065 H 0.55658 0.9311 0.52239 0.0
C1066 C 0.51478 0.27209 0.70722 0.0
C1067 C 0.52191 0.28563 0.69646 0.0
C1068 C 0.49955 0.27266 0.71416 0.0
C1069 C 0.47124 0.3035 0.72658 0.0
H1070 H 0.437 0.25637 0.72055 0.0
C1071 C 0.40394 0.29948 0.74837 0.0
C1072 C 0.39682 0.28378 0.75652 0.0
C1073 C 0.41895 0.30028 0.7404 0.0
C1074 C 0.44647 0.26964 0.72262 0.0
H1075 H 0.51871 0.31069 0.68498 0.0
H1076 H 0.4921 0.31181 0.69735 0.0
H1077 H 0.46369 0.25697 0.70838 0.0
H1078 H 0.40029 0.25689 0.76317 0.0
H1079 H 0.42641 0.25837 0.74967 0.0
H1080 H 0.45416 0.31612 0.74119 0.0
C1081 C 0.49837 0.30072 0.70035 0.0
C1082 C 0.46179 0.26998 0.71556 0.0
C1083 C 0.51358 0.30005 0.69321 0.0
C1084 C 0.40517 0.26901 0.75664 0.0
C1085 C 0.4202 0.26987 0.74884 0.0
C1086 C 0.45593 0.30314 0.73382 0.0
C1087 C 0.49104 0.28687 0.71069 0.0
C1088 C 0.47446 0.28686 0.71759 0.0
C1089 C 0.42731 0.28546 0.74051 0.0
C1090 C 0.44337 0.28616 0.73211 0.0
H1091 H 0.52082 0.26079 0.71005 0.0
H1092 H 0.49443 0.26194 0.72231 0.0
H1093 H 0.48077 0.31672 0.7285 0.0
H1094 H 0.39778 0.31105 0.74791 0.0
H1095 H 0.42386 0.31243 0.73393 0.0
C1096 C 0.05797 0.81685 0.65772 0.0
C1097 C 0.04923 0.81107 0.67248 0.0
C1098 C 0.05239 0.82903 0.64633 0.0
C1099 C 0.03196 0.84472 0.61685 0.0
H1100 H 0.02023 0.8899 0.63894 0.0
C1101 C 0.01213 0.89626 0.56933 0.0
C1102 C 0.01979 0.9154 0.57606 0.0
C1103 C 0.01308 0.88291 0.58142 0.0
C1104 C 0.02349 0.87734 0.63258 0.0
H1105 H 0.02795 0.81381 0.68714 0.0
H1106 H 0.01809 0.83524 0.66701 0.0
H1107 H 0.0273 0.86774 0.65967 0.0
H1108 H 0.03388 0.9356 0.60103 0.0
H1109 H 0.0361 0.91225 0.62189 0.0
H1110 H 0.02896 0.85457 0.58997 0.0
C1111 C 0.02932 0.83031 0.66438 0.0
C1112 C 0.02735 0.86457 0.64441 0.0
C1113 C 0.03493 0.81804 0.67586 0.0
C1114 C 0.02811 0.92093 0.59528 0.0
C1115 C 0.02913 0.90757 0.60734 0.0
C1116 C 0.02815 0.85746 0.60506 0.0
C1117 C 0.0379 0.83573 0.64935 0.0
C1118 C 0.032 0.84834 0.63671 0.0
C1119 C 0.02179 0.88839 0.60049 0.0
C1120 C 0.02418 0.87408 0.61283 0.0
H1121 H 0.06912 0.81188 0.65483 0.0
H1122 H 0.05952 0.83329 0.63516 0.0
H1123 H 0.03522 0.83217 0.61045 0.0
H1124 H 1.0057 0.89152 0.55458 0.0
H1125 H 1.00712 0.86826 0.57576 0.0
C1126 C 0.47744 0.81026 0.84688 0.0
C1127 C 0.48792 0.80248 0.85931 0.0
C1128 C 0.45963 0.8039 0.84407 0.0
C1129 C 0.42341 0.76596 0.84821 0.0
H1130 H 0.40042 0.80665 0.85382 0.0
C1131 C 0.35155 0.78242 0.84543 0.0
C1132 C 0.34361 0.7717 0.82746 0.0
C1133 C 0.36858 0.78288 0.85276 0.0
C1134 C 0.4066 0.79508 0.85255 0.0
H1135 H 0.488 0.78103 0.87752 0.0
H1136 H 0.45668 0.76977 0.87239 0.0
H1137 H 0.43158 0.81378 0.85841 0.0
H1138 H 0.34669 0.75155 0.80401 0.0
H1139 H 0.37633 0.75254 0.81669 0.0
H1140 H 0.39826 0.74729 0.8419 0.0
C1141 C 0.46235 0.78088 0.86496 0.0
C1142 C 0.42445 0.79919 0.8549 0.0
C1143 C 0.48025 0.78733 0.86788 0.0
C1144 C 0.35249 0.76013 0.81783 0.0
C1145 C 0.36948 0.76058 0.82516 0.0
C1146 C 0.40545 0.76183 0.84569 0.0
C1147 C 0.4519 0.78957 0.85355 0.0
C1148 C 0.43302 0.78473 0.85236 0.0
C1149 C 0.37793 0.77259 0.84227 0.0
C1150 C 0.39687 0.77639 0.84755 0.0
H1151 H 0.48293 0.82183 0.83992 0.0
H1152 H 0.45185 0.81057 0.83486 0.0
H1153 H 0.42974 0.75457 0.84624 0.0
H1154 H 0.34504 0.79139 0.85328 0.0
H1155 H 0.3747 0.79203 0.86617 0.0
C1156 C 0.54427 0.19754 0.17914 0.0
C1157 C 0.54239 0.21458 0.17343 0.0
C1158 C 0.543 0.18183 0.16541 0.0
C1159 C 0.54801 0.17006 0.11497 0.0
H1160 H 0.52991 0.11902 0.12297 0.0
C1161 C 0.53777 0.10262 0.05858 0.0
C1162 C 0.54158 0.0869 0.06578 0.0
C1163 C 0.53926 0.11928 0.07112 0.0
C1164 C 0.53517 0.13321 0.12066 0.0
H1165 H 0.53639 0.22815 0.1489 0.0
H1166 H 0.53367 0.20059 0.12497 0.0
H1167 H 0.52732 0.14525 0.14581 0.0
H1168 H 0.55153 0.07673 0.09121 0.0
H1169 H 0.55423 0.1058 0.11302 0.0
H1170 H 0.5556 0.15784 0.0896 0.0
C1171 C 0.53669 0.19952 0.14003 0.0
C1172 C 0.53367 0.14823 0.13372 0.0
C1173 C 0.5381 0.21526 0.15375 0.0
C1174 C 0.54834 0.0886 0.08534 0.0
C1175 C 0.54976 0.10516 0.09783 0.0
C1176 C 0.54937 0.155 0.1018 0.0
C1177 C 0.53964 0.18281 0.14568 0.0
C1178 C 0.54022 0.16683 0.13114 0.0
C1179 C 0.54455 0.12035 0.09096 0.0
C1180 C 0.54315 0.13646 0.10468 0.0
H1181 H 0.54764 0.19658 0.19419 0.0
H1182 H 0.54547 0.16922 0.17027 0.0
H1183 H 0.55344 0.18422 0.11272 0.0
H1184 H 0.53257 0.10167 0.04353 0.0
H1185 H 0.53522 0.13085 0.06547 0.0
C1186 C 0.07488 0.31075 0.35431 0.0
C1187 C 0.05833 0.30074 0.34517 0.0
C1188 C 0.08877 0.31172 0.3445 0.0
C1189 C 0.10067 0.28346 0.30433 0.0
H1190 H 0.144 0.32082 0.31935 0.0
C1191 C 0.16329 0.27321 0.27869 0.0
C1192 C 0.17689 0.27515 0.294 0.0
C1193 C 0.14856 0.2793 0.28177 0.0
C1194 C 0.13193 0.31034 0.31492 0.0
H1195 H 0.04296 0.28572 0.31807 0.0
H1196 H 0.06702 0.2882 0.30066 0.0
H1197 H 0.11813 0.32759 0.32953 0.0
H1198 H 0.18543 0.28501 0.32463 0.0
H1199 H 0.16009 0.29607 0.32974 0.0
H1200 H 0.1146 0.26618 0.28991 0.0
C1201 C 0.06947 0.29459 0.31563 0.0
C1202 C 0.11712 0.31416 0.32082 0.0
C1203 C 0.05564 0.29333 0.32554 0.0
C1204 C 0.17548 0.28364 0.31236 0.0
C1205 C 0.16092 0.28998 0.31535 0.0
C1206 C 0.11542 0.27979 0.29821 0.0
C1207 C 0.08634 0.30296 0.32524 0.0
C1208 C 0.1014 0.3005 0.31615 0.0
C1209 C 0.14726 0.28772 0.30014 0.0
C1210 C 0.13128 0.29294 0.30396 0.0
H1211 H 0.07736 0.31656 0.36946 0.0
H1212 H 0.10152 0.31818 0.35251 0.0
H1213 H 0.08895 0.27242 0.30067 0.0
H1214 H 0.164 0.26704 0.2643 0.0
H1215 H 0.13819 0.27743 0.2698 0.0
C1216 C 0.95366 0.02441 0.1992 0.0
C1217 C 0.96107 0.01694 0.21458 0.0
C1218 C 0.96176 0.02698 0.18331 0.0
C1219 C 0.98617 0.04059 0.15641 0.0
H1220 H 1.00621 1.0014 0.13486 0.0
C1221 C 0.02808 0.04948 0.09682 0.0
C1222 C 0.02602 0.03385 0.08252 0.0
C1223 C 0.0196 0.04788 0.1126 0.0
C1224 C 1.00056 0.01241 0.14061 0.0
H1225 H 0.98294 1.00647 0.2253 0.0
H1226 H 0.99713 0.01103 0.19752 0.0
H1227 H 0.99292 0.99777 0.16331 0.0
H1228 H 0.01307 1.00445 0.07315 0.0
H1229 H 0.9981 1.00171 0.10053 0.0
H1230 H 0.99361 0.0551 0.13353 0.0
C1231 C 0.98494 0.01473 0.19774 0.0
C1232 C 0.99313 1.01044 0.15707 0.0
C1233 C 0.97686 0.01222 0.21371 0.0
C1234 C 0.01489 0.01675 0.08395 0.0
C1235 C 1.00645 0.01514 0.09973 0.0
C1236 C 0.99366 0.04259 0.13998 0.0
C1237 C 0.97746 0.02211 0.18233 0.0
C1238 C 0.9858 0.02447 0.16513 0.0
C1239 C 1.00893 0.03059 0.11442 0.0
C1240 C 1.00088 0.02849 0.13184 0.0
H1241 H 0.94151 0.0282 0.19934 0.0
H1242 H 0.95554 0.03246 0.1716 0.0
H1243 H 0.98078 0.05174 0.16236 0.0
H1244 H 0.0366 0.06282 0.09608 0.0
H1245 H 0.02187 0.06003 0.1237 0.0
C1246 C 0.32479 0.67965 0.53683 0.0
C1247 C 0.31897 0.68947 0.55175 0.0
C1248 C 0.32102 0.68282 0.51793 0.0
C1249 C 0.29157 0.70315 0.48698 0.0
H1250 H 0.32704 0.70802 0.45527 0.0
C1251 C 0.28067 0.72757 0.41393 0.0
C1252 C 0.29425 0.74178 0.41084 0.0
C1253 C 0.28317 0.71701 0.42856 0.0
C1254 C 0.31699 0.70669 0.46394 0.0
H1255 H 0.30496 0.71054 0.55872 0.0
H1256 H 0.29885 0.71648 0.52601 0.0
H1257 H 0.33244 0.69836 0.48656 0.0
H1258 H 0.32136 0.75518 0.41981 0.0
H1259 H 0.32554 0.73743 0.44577 0.0
H1260 H 0.27653 0.71264 0.46502 0.0
C1261 C 0.30589 0.70594 0.5287 0.0
C1262 C 0.32001 0.70095 0.48179 0.0
C1263 C 0.30954 0.70268 0.54751 0.0
C1264 C 0.31054 0.74462 0.4221 0.0
C1265 C 0.31301 0.73418 0.43679 0.0
C1266 C 0.28861 0.70904 0.46924 0.0
C1267 C 0.31143 0.69593 0.51366 0.0
C1268 C 0.30752 0.69966 0.49374 0.0
C1269 C 0.29927 0.72052 0.44047 0.0
C1270 C 0.30146 0.71139 0.45775 0.0
H1271 H 0.332 0.66928 0.53967 0.0
H1272 H 0.32539 0.6748 0.50666 0.0
H1273 H 0.28152 0.70186 0.49566 0.0
H1274 H 0.26795 0.72504 0.40551 0.0
H1275 H 0.27238 0.7064 0.43084 0.0
C1276 C 0.61499 1.0071 0.75393 0.0
C1277 C 0.63016 1.00053 0.75565 0.0
C1278 C 0.60592 1.00822 0.73576 0.0
C1279 C 0.61092 1.00944 0.68357 0.0
H1280 H 0.56136 1.00034 0.67479 0.0
C1281 C 0.57139 0.02264 0.61198 0.0
C1282 C 0.55513 1.01034 0.60473 0.0
C1283 C 0.58079 0.0217 0.6301 0.0
C1284 C 0.57521 1.00286 0.67678 0.0
H1285 H 0.64729 0.98991 0.73872 0.0
H1286 H 0.63162 0.99175 0.70744 0.0
H1287 H 0.57657 0.99768 0.70595 0.0
H1288 H 0.53641 0.98718 0.61127 0.0
H1289 H 0.55247 0.98558 0.6423 0.0
H1290 H 0.60949 0.01446 0.65428 0.0
C1291 C 0.62672 0.99623 0.72018 0.0
C1292 C 0.58405 1.00152 0.69496 0.0
C1293 C 0.6357 0.99497 0.73832 0.0
C1294 C 0.54877 0.99704 0.61622 0.0
C1295 C 0.55803 0.9962 0.63428 0.0
C1296 C 0.60207 0.01094 0.66541 0.0
C1297 C 0.61166 1.00301 0.71843 0.0
C1298 C 0.60213 1.00467 0.6988 0.0
C1299 C 0.57423 1.00854 0.64176 0.0
C1300 C 0.58397 1.00755 0.66152 0.0
H1301 H 0.61022 0.01172 0.76671 0.0
H1302 H 0.59457 0.0137 0.73539 0.0
H1303 H 0.62479 0.01225 0.68569 0.0
H1304 H 0.57683 0.03308 0.6037 0.0
H1305 H 0.5931 0.03159 0.63512 0.0
C1306 C 0.30609 0.34236 1.00398 0.0
C1307 C 0.30021 0.35843 0.00946 0.0
C1308 C 0.30376 0.33442 0.98464 0.0
C1309 C 0.28012 0.33435 0.93578 0.0
H1310 H 0.31802 0.31597 0.91962 0.0
C1311 C 0.30621 0.30855 0.86162 0.0
C1312 C 0.29067 0.29776 0.85043 0.0
C1313 C 0.3069 0.31616 0.88082 0.0
C1314 C 0.30737 0.32121 0.92378 0.0
H1315 H 0.28681 0.37844 0.99893 0.0
H1316 H 0.28305 0.36484 0.96507 0.0
H1317 H 0.31972 0.32873 0.95313 0.0
H1318 H 0.26361 0.28654 0.8508 0.0
H1319 H 0.26489 0.29939 0.88428 0.0
H1320 H 0.26806 0.32743 0.90622 0.0
C1321 C 0.28922 0.35815 0.97575 0.0
C1322 C 0.30822 0.32827 0.94314 0.0
C1323 C 0.29141 0.366 0.99518 0.0
C1324 C 0.27581 0.29486 0.85892 0.0
C1325 C 0.27652 0.30235 0.87815 0.0
C1326 C 0.27932 0.32739 0.91635 0.0
C1327 C 0.29567 0.34245 0.97019 0.0
C1328 C 0.29459 0.33488 0.94946 0.0
C1329 C 0.29208 0.31306 0.88941 0.0
C1330 C 0.29293 0.32069 0.91008 0.0
H1331 H 0.31279 0.33607 0.01464 0.0
H1332 H 0.3085 0.32205 0.98101 0.0
H1333 H 0.26931 0.33915 0.94007 0.0
H1334 H 0.31789 0.31121 0.85555 0.0
H1335 H 0.31906 0.32462 0.88888 0.0
C1336 C 0.9721 0.03551 0.33214 0.0
C1337 C 0.9737 0.01934 0.32054 0.0
C1338 C 0.98005 0.04002 0.35147 0.0
C1339 C 0.01273 0.02756 0.38698 0.0
H1340 H 0.98725 0.04592 0.42437 0.0
C1341 C 0.02201 0.01692 0.46606 0.0
C1342 C 0.02384 0.03261 0.48024 0.0
C1343 C 0.01778 0.01805 0.44663 0.0
C1344 C 0.99461 0.04104 0.41406 0.0
H1345 H 0.98505 0.99535 0.32014 0.0
H1346 H 0.99833 1.00277 0.35367 0.0
H1347 H 0.9763 0.04287 0.39011 0.0
H1348 H 0.02275 0.06187 0.48514 0.0
H1349 H 0.01479 0.06363 0.451 0.0
H1350 H 0.03049 0.02474 0.41107 0.0
C1351 C 0.9914 0.01236 0.3479 0.0
C1352 C 0.98839 0.03935 0.3944 0.0
C1353 C 0.98364 1.00799 0.3286 0.0
C1354 C 0.02144 0.04954 0.47454 0.0
C1355 C 0.01684 0.05055 0.45505 0.0
C1356 C 0.01876 0.02896 0.4066 0.0
C1357 C 0.98965 0.02836 0.35968 0.0
C1358 C 0.99719 0.0322 0.38058 0.0
C1359 C 0.01498 0.03479 0.44094 0.0
C1360 C 0.0096 0.03539 0.42031 0.0
H1361 H 0.96458 0.04458 0.32633 0.0
H1362 H 0.9786 0.0526 0.35999 0.0
H1363 H 0.02014 0.0225 0.37685 0.0
H1364 H 0.02387 1.00371 0.46996 0.0
H1365 H 0.01629 1.00566 0.43604 0.0
C1366 C 0.35172 0.7284 0.65432 0.0
C1367 C 0.35625 0.71121 0.65516 0.0
C1368 C 0.35709 0.74292 0.66997 0.0
C1369 C 0.36753 0.74819 0.7221 0.0
H1370 H 0.36926 0.80031 0.71755 0.0
C1371 C 0.35299 0.79805 0.78234 0.0
C1372 C 0.33756 0.80243 0.77523 0.0
C1373 C 0.36281 0.79147 0.76957 0.0
C1374 C 0.36919 0.7859 0.71913 0.0
H1375 H 0.37123 0.69635 0.67244 0.0
H1376 H 0.38083 0.72187 0.69973 0.0
H1377 H 0.37375 0.77917 0.6905 0.0
H1378 H 0.32092 0.80505 0.74974 0.0
H1379 H 0.33835 0.79424 0.72745 0.0
H1380 H 0.36214 0.75475 0.75039 0.0
C1381 C 0.37279 0.72394 0.68711 0.0
C1382 C 0.37161 0.77376 0.70364 0.0
C1383 C 0.3673 0.70933 0.67146 0.0
C1384 C 0.33281 0.80174 0.75544 0.0
C1385 C 0.34283 0.79568 0.74275 0.0
C1386 C 0.36536 0.7604 0.73766 0.0
C1387 C 0.36725 0.74066 0.68679 0.0
C1388 C 0.36979 0.75452 0.70458 0.0
C1389 C 0.35754 0.78981 0.74966 0.0
C1390 C 0.36526 0.77907 0.73591 0.0
H1391 H 0.34332 0.73037 0.64193 0.0
H1392 H 0.35235 0.75545 0.66925 0.0
H1393 H 0.3659 0.73347 0.72334 0.0
H1394 H 0.35679 0.79842 0.79761 0.0
H1395 H 0.37404 0.78687 0.77517 0.0
C1396 C 0.61724 0.03481 0.87011 0.0
C1397 C 0.62573 0.02041 0.86587 0.0
C1398 C 0.60932 0.03632 0.88664 0.0
C1399 C 0.60637 0.01856 0.93483 0.0
H1400 H 0.56789 0.04166 0.93396 0.0
C1401 C 0.57548 0.03261 1.00469 0.0
C1402 C 0.55791 0.03278 1.00275 0.0
C1403 C 0.58388 0.03121 0.98846 0.0
C1404 C 0.5785 0.03496 0.93467 0.0
H1405 H 0.63219 0.99621 0.87648 0.0
H1406 H 0.6183 0.99855 0.9048 0.0
H1407 H 0.58131 0.03849 0.90569 0.0
H1408 H 0.53569 0.03133 0.98134 0.0
H1409 H 0.54993 0.02865 0.95357 0.0
H1410 H 0.60321 0.01459 0.9637 0.0
C1411 C 0.61793 1.00903 0.89553 0.0
C1412 C 0.58652 0.03337 0.91823 0.0
C1413 C 0.62589 1.00756 0.87899 0.0
C1414 C 0.54919 0.03144 0.98381 0.0
C1415 C 0.55754 0.03 0.96763 0.0
C1416 C 0.59832 0.02013 0.9513 0.0
C1417 C 0.6094 0.02347 0.89985 0.0
C1418 C 0.6007 0.02513 0.91779 0.0
C1419 C 0.57514 0.02988 0.96943 0.0
C1420 C 0.58411 0.02834 0.95169 0.0
H1421 H 0.6168 0.04514 0.86065 0.0
H1422 H 0.60334 0.04791 0.88914 0.0
H1423 H 0.61727 0.01232 0.93566 0.0
H1424 H 0.58284 0.03359 0.01883 0.0
H1425 H 0.5974 0.03144 0.99097 0.0
C1426 C 0.30467 0.37875 0.13545 0.0
C1427 C 0.30438 0.36966 0.11677 0.0
C1428 C 0.30342 0.36857 0.15076 0.0
C1429 C 0.28829 0.32086 0.16203 0.0
H1430 H 0.31839 0.34099 0.21091 0.0
C1431 C 0.28785 0.2784 0.22519 0.0
C1432 C 0.28955 0.28843 0.24374 0.0
C1433 C 0.29078 0.28791 0.20965 0.0
C1434 C 0.30971 0.33522 0.19746 0.0
H1435 H 0.30236 0.34258 0.09962 0.0
H1436 H 0.3 0.32485 0.12628 0.0
H1437 H 0.32072 0.35837 0.18408 0.0
H1438 H 0.29605 0.31633 0.26063 0.0
H1439 H 0.3008 0.33291 0.23365 0.0
H1440 H 0.27696 0.29795 0.17543 0.0
C1441 C 0.3012 0.33987 0.12907 0.0
C1442 C 0.31109 0.34521 0.18203 0.0
C1443 C 0.30263 0.35007 0.11379 0.0
C1444 C 0.29471 0.30817 0.24652 0.0
C1445 C 0.29751 0.31768 0.23099 0.0
C1446 C 0.28679 0.31094 0.1775 0.0
C1447 C 0.30168 0.34901 0.14778 0.0
C1448 C 0.30036 0.3382 0.16413 0.0
C1449 C 0.29539 0.30773 0.21225 0.0
C1450 C 0.29744 0.31799 0.1955 0.0
H1451 H 0.30602 0.39379 0.13833 0.0
H1452 H 0.30364 0.37603 0.16493 0.0
H1453 H 0.27969 0.31515 0.14851 0.0
H1454 H 0.28396 0.26317 0.22261 0.0
H1455 H 0.28935 0.27969 0.19556 0.0
C1456 C 0.22257 0.90699 0.02214 0.0
C1457 C 0.21828 0.88919 0.0106 0.0
C1458 C 0.20983 0.91583 0.02664 0.0
C1459 C 0.16689 0.91944 0.00905 0.0
H1460 H 0.1711 0.94634 0.06061 0.0
C1461 C 0.13927 0.98363 0.02481 0.0
C1462 C 0.13182 0.98584 0.04138 0.0
C1463 C 0.14745 0.96912 0.02139 0.0
C1464 C 0.16954 0.93868 0.04622 0.0
H1465 H 0.19723 0.86667 0.99468 0.0
H1466 H 0.17474 0.88248 1.00231 0.0
H1467 H 0.18951 0.92506 0.05435 0.0
H1468 H 0.12691 0.97444 0.06725 0.0
H1469 H 0.14144 0.94912 0.06136 0.0
H1470 H 0.14721 0.93345 1.00081 0.0
C1471 C 0.18807 0.88941 0.00793 0.0
C1472 C 0.18017 0.92662 0.04261 0.0
C1473 C 0.20089 0.88039 1.00359 0.0
C1474 C 0.13278 0.97325 0.05451 0.0
C1475 C 0.141 0.95871 0.05109 0.0
C1476 C 0.15629 0.93158 0.01264 0.0
C1477 C 0.19247 0.90718 0.01959 0.0
C1478 C 0.17928 0.91732 0.0239 0.0
C1479 C 0.14838 0.95649 0.03447 0.0
C1480 C 0.15786 0.94172 0.03115 0.0
H1481 H 0.23584 0.91414 0.02783 0.0
H1482 H 0.21361 0.92966 0.03536 0.0
H1483 H 0.16598 0.91247 0.99449 0.0
H1484 H 0.13892 0.99326 0.01456 0.0
H1485 H 0.15335 0.96803 0.00868 0.0
C1486 C 0.70394 0.62295 0.0137 0.0
C1487 C 0.71815 0.61558 0.01921 0.0
C1488 C 0.68722 0.6131 0.01446 0.0
C1489 C 0.66338 0.57506 0.03741 0.0
H1490 H 0.62454 0.57837 1.0007 0.0
C1491 C 0.5946 0.52906 0.03343 0.0
C1492 C 0.58084 0.53766 0.03064 0.0
C1493 C 0.61129 0.53869 0.03227 0.0
C1494 C 0.63522 0.57746 0.0112 0.0
H1495 H 0.72564 0.59159 0.02927 0.0
H1496 H 0.69648 0.57416 0.03008 0.0
H1497 H 0.65355 0.59398 0.99729 0.0
H1498 H 0.57364 0.56286 0.02378 0.0
H1499 H 0.60285 0.57987 0.02192 0.0
H1500 H 0.64499 0.55828 0.05112 0.0
C1501 C 0.6983 0.58783 0.02561 0.0
C1502 C 0.65192 0.58644 0.00926 0.0
C1503 C 0.71507 0.59776 0.02496 0.0
C1504 C 0.58407 0.55609 0.02653 0.0
C1505 C 0.60077 0.5657 0.02518 0.0
C1506 C 0.6467 0.56597 0.03925 0.0
C1507 C 0.68413 0.59548 0.02064 0.0
C1508 C 0.66628 0.58543 0.02236 0.0
C1509 C 0.61461 0.5571 0.02801 0.0
C1510 C 0.63238 0.56707 0.0262 0.0
H1511 H 0.70574 0.63667 0.0093 0.0
H1512 H 0.67678 0.61966 0.01076 0.0
H1513 H 0.67399 0.57422 0.04804 0.0
H1514 H 0.59245 0.51479 0.03644 0.0
H1515 H 0.62154 0.53152 0.03428 0.0
C1516 C 0.68951 0.48742 0.29714 0.0
C1517 C 0.67671 0.49141 0.3073 0.0
C1518 C 0.69729 0.47289 0.30091 0.0
C1519 C 0.70543 0.44321 0.33758 0.0
H1520 H 0.71737 0.4135 0.29498 0.0
C1521 C 0.75322 0.39617 0.34823 0.0
C1522 C 0.75048 0.37931 0.33532 0.0
C1523 C 0.74278 0.40867 0.34542 0.0
C1524 C 0.71395 0.42145 0.30705 0.0
H1525 H 0.66203 0.48323 0.32942 0.0
H1526 H 0.67549 0.45757 0.33585 0.0
H1527 H 0.70148 0.437 0.28875 0.0
H1528 H 0.73428 0.36231 0.30948 0.0
H1529 H 0.71577 0.38376 0.30496 0.0
H1530 H 0.71769 0.42738 0.35585 0.0
C1531 C 0.67965 0.46588 0.32511 0.0
C1532 C 0.70502 0.43515 0.30349 0.0
C1533 C 0.67187 0.48052 0.32136 0.0
C1534 C 0.73672 0.37506 0.31983 0.0
C1535 C 0.72621 0.3875 0.31708 0.0
C1536 C 0.71431 0.42942 0.34115 0.0
C1537 C 0.69243 0.46186 0.31487 0.0
C1538 C 0.70087 0.44641 0.31871 0.0
C1539 C 0.72925 0.40461 0.32968 0.0
C1540 C 0.71887 0.41851 0.32594 0.0
H1541 H 0.69365 0.4956 0.28629 0.0
H1542 H 0.70732 0.47049 0.29301 0.0
H1543 H 0.70254 0.45168 0.34966 0.0
H1544 H 0.76353 0.3998 0.36049 0.0
H1545 H 0.74562 0.42177 0.35533 0.0
C1546 C 0.79734 0.44513 0.54477 0.0
C1547 C 0.78716 0.43142 0.52968 0.0
C1548 C 0.81008 0.45967 0.54099 0.0
C1549 C 0.83825 0.46656 0.50555 0.0
H1550 H 0.8564 0.51579 0.53676 0.0
C1551 C 0.9048 0.50939 0.50077 0.0
C1552 C 0.91564 0.51609 0.51865 0.0
C1553 C 0.88706 0.50359 0.49969 0.0
C1554 C 0.85144 0.5021 0.5279 0.0
H1555 H 0.78109 0.42332 0.49868 0.0
H1556 H 0.80311 0.44887 0.49209 0.0
H1557 H 0.82789 0.49739 0.53909 0.0
H1558 H 0.91619 0.52331 0.54926 0.0
H1559 H 0.88528 0.51252 0.54746 0.0
H1560 H 0.86195 0.47071 0.49501 0.0
C1561 C 0.80158 0.44809 0.50687 0.0
C1562 C 0.83514 0.49159 0.52921 0.0
C1563 C 0.78894 0.43348 0.51065 0.0
C1564 C 0.90822 0.51789 0.5353 0.0
C1565 C 0.89047 0.51196 0.53423 0.0
C1566 C 0.85448 0.47702 0.50425 0.0
C1567 C 0.81278 0.46084 0.52205 0.0
C1568 C 0.82857 0.47349 0.51842 0.0
C1569 C 0.87975 0.50419 0.51647 0.0
C1570 C 0.86147 0.49469 0.51577 0.0
H1571 H 0.79623 0.44398 0.55959 0.0
H1572 H 0.81855 0.46919 0.55303 0.0
H1573 H 0.83376 0.45254 0.49729 0.0
H1574 H 0.91004 0.50768 0.48765 0.0
H1575 H 0.87912 0.49793 0.48576 0.0
C1576 C 0.37621 0.11232 0.29227 0.0
C1577 C 0.37118 0.09756 0.27637 0.0
C1578 C 0.36881 0.12814 0.29339 0.0
C1579 C 0.33099 0.14628 0.27024 0.0
H1580 H 0.3567 0.19405 0.30018 0.0
C1581 C 0.29836 0.21027 0.2823 0.0
C1582 C 0.30824 0.2291 0.28571 0.0
C1583 C 0.30602 0.19469 0.2811 0.0
C1584 C 0.34918 0.18097 0.29154 0.0
H1585 H 0.354 0.08871 0.24903 0.0
H1586 H 0.34142 0.11589 0.25074 0.0
H1587 H 0.36965 0.16725 0.29803 0.0
H1588 H 0.33455 0.24554 0.29046 0.0
H1589 H 0.34779 0.21878 0.28813 0.0
H1590 H 0.31068 0.16006 0.26337 0.0
C1591 C 0.35095 0.11529 0.26273 0.0
C1592 C 0.35667 0.16521 0.2905 0.0
C1593 C 0.35835 0.09948 0.26164 0.0
C1594 C 0.32626 0.23149 0.28782 0.0
C1595 C 0.33395 0.21587 0.28661 0.0
C1596 C 0.3235 0.16201 0.27129 0.0
C1597 C 0.35593 0.13014 0.27864 0.0
C1598 C 0.34781 0.14734 0.27982 0.0
C1599 C 0.32406 0.19696 0.28323 0.0
C1600 C 0.33234 0.17987 0.28199 0.0
H1601 H 0.38595 0.11167 0.30405 0.0
H1602 H 0.37313 0.13873 0.30612 0.0
H1603 H 0.32329 0.13309 0.26198 0.0
H1604 H 0.2845 0.20746 0.2807 0.0
H1605 H 0.29759 0.18075 0.27882 0.0
C1606 C 0.3158 0.09892 0.54629 0.0
C1607 C 0.31289 0.1112 0.53329 0.0
C1608 C 0.33052 0.09187 0.54748 0.0
C1609 C 0.36614 0.08463 0.52161 0.0
H1610 H 0.38811 0.08064 0.57235 0.0
C1611 C 0.4322 0.065 0.53536 0.0
C1612 C 0.43422 0.05293 0.54889 0.0
C1613 C 0.41763 0.07238 0.53302 0.0
C1614 C 0.38207 0.08144 0.55803 0.0
H1615 H 0.32322 0.12538 0.51106 0.0
H1616 H 0.34902 0.11318 0.51321 0.0
H1617 H 0.36244 0.09269 0.56885 0.0
H1618 H 0.42199 0.03886 0.57016 0.0
H1619 H 0.39682 0.05172 0.56616 0.0
H1620 H 0.38588 0.07338 0.51085 0.0
C1621 C 0.33979 0.10886 0.5224 0.0
C1622 C 0.36728 0.08836 0.55601 0.0
C1623 C 0.32499 0.11592 0.5212 0.0
C1624 C 0.42117 0.04842 0.55991 0.0
C1625 C 0.40665 0.0558 0.55759 0.0
C1626 C 0.38099 0.0777 0.52365 0.0
C1627 C 0.34288 0.0969 0.53574 0.0
C1628 C 0.35897 0.08993 0.53777 0.0
C1629 C 0.40465 0.06794 0.54415 0.0
C1630 C 0.3891 0.07586 0.54189 0.0
H1631 H 0.30675 0.09487 0.55578 0.0
H1632 H 0.3322 0.08242 0.55765 0.0
H1633 H 0.36006 0.08543 0.50731 0.0
H1634 H 0.44202 0.06899 0.52675 0.0
H1635 H 0.41668 0.08184 0.52269 0.0
C1636 C 0.69709 0.59272 0.30733 0.0
C1637 C 0.68121 0.59181 0.31348 0.0
C1638 C 0.70849 0.61004 0.30781 0.0
C1639 C 0.72291 0.6479 0.29674 0.0
H1640 H 0.73353 0.68887 0.33967 0.0
C1641 C 0.75862 0.72274 0.2904 0.0
C1642 C 0.77226 0.73183 0.30531 0.0
C1643 C 0.74724 0.70615 0.29235 0.0
C1644 C 0.73071 0.67751 0.32761 0.0
H1645 H 0.66521 0.60847 0.32576 0.0
H1646 H 0.68522 0.63878 0.32665 0.0
H1647 H 0.71464 0.65862 0.34195 0.0
H1648 H 0.78458 0.73101 0.33409 0.0
H1649 H 0.76461 0.70191 0.33755 0.0
H1650 H 0.73894 0.66664 0.28239 0.0
C1651 C 0.68879 0.62602 0.32145 0.0
C1652 C 0.71982 0.66028 0.32887 0.0
C1653 C 0.67731 0.60865 0.32087 0.0
C1654 C 0.77415 0.72423 0.32237 0.0
C1655 C 0.76268 0.70767 0.32439 0.0
C1656 C 0.73364 0.66513 0.29543 0.0
C1657 C 0.70435 0.62689 0.31455 0.0
C1658 C 0.71587 0.64526 0.31346 0.0
C1659 C 0.74923 0.69833 0.30929 0.0
C1660 C 0.73768 0.68013 0.31084 0.0
H1661 H 0.70059 0.58006 0.30166 0.0
H1662 H 0.7205 0.61025 0.30269 0.0
H1663 H 0.71995 0.63668 0.28454 0.0
H1664 H 0.75695 0.72822 0.27703 0.0
H1665 H 0.7369 0.69938 0.28054 0.0
C1666 C 0.85969 0.48229 0.78186 0.0
C1667 C 0.87783 0.48772 0.78528 0.0
C1668 C 0.85072 0.46343 0.78202 0.0
C1669 C 0.85663 0.41371 0.77741 0.0
H1670 H 0.81656 0.40241 0.80184 0.0
C1671 C 0.81749 0.33574 0.77555 0.0
C1672 C 0.8113 0.33107 0.79235 0.0
C1673 C 0.82486 0.35463 0.77388 0.0
C1674 C 0.82777 0.4052 0.79497 0.0
H1675 H 0.9004 0.47672 0.79131 0.0
H1676 H 0.88508 0.44461 0.79131 0.0
H1677 H 0.83024 0.43515 0.80028 0.0
H1678 H 0.80804 0.34337 0.82049 0.0
H1679 H 0.82057 0.3759 0.81752 0.0
H1680 H 0.85426 0.38385 0.77217 0.0
C1681 C 0.87763 0.45476 0.7885 0.0
C1682 C 0.83557 0.42413 0.7939 0.0
C1683 C 0.8865 0.47348 0.78863 0.0
C1684 C 0.81262 0.34612 0.80729 0.0
C1685 C 0.81976 0.36499 0.80552 0.0
C1686 C 0.8487 0.3948 0.77823 0.0
C1687 C 0.85955 0.44923 0.78522 0.0
C1688 C 0.85032 0.42883 0.78531 0.0
C1689 C 0.82612 0.36971 0.78883 0.0
C1690 C 0.8342 0.3901 0.78722 0.0
H1691 H 0.8524 0.49262 0.77922 0.0
H1692 H 0.83682 0.45992 0.77934 0.0
H1693 H 0.8678 0.41646 0.77046 0.0
H1694 H 0.81674 0.32475 0.76365 0.0
H1695 H 0.82939 0.35744 0.76068 0.0
C1696 C 0.07505 0.84467 0.10219 0.0
C1697 C 0.06916 0.84146 0.11947 0.0
C1698 C 0.07259 0.86021 0.09367 0.0
C1699 C 0.06654 0.908 0.10445 0.0
H1700 H 0.04825 0.90157 0.05008 0.0
C1701 C 0.06583 0.97096 0.06281 0.0
C1702 C 0.04995 0.9706 0.05165 0.0
C1703 C 0.06844 0.95512 0.07071 0.0
C1704 C 0.05338 0.9036 0.06527 0.0
H1705 H 0.05617 0.85228 0.14139 0.0
H1706 H 0.05226 0.8797 0.12674 0.0
H1707 H 0.05204 0.87418 0.06481 0.0
H1708 H 0.0246 0.95298 0.03961 0.0
H1709 H 0.02936 0.92525 0.05293 0.0
H1710 H 0.0681 0.93745 0.10486 0.0
C1711 C 0.05867 0.87005 0.11973 0.0
C1712 C 0.05563 0.88792 0.07369 0.0
C1713 C 0.06083 0.85428 0.12807 0.0
C1714 C 0.03698 0.9538 0.04812 0.0
C1715 C 0.03971 0.93787 0.05572 0.0
C1716 C 0.06461 0.92372 0.09595 0.0
C1717 C 0.06447 0.87317 0.10238 0.0
C1718 C 0.06214 0.8899 0.09341 0.0
C1719 C 0.05538 0.9384 0.06736 0.0
C1720 C 0.05791 0.92171 0.07627 0.0
H1721 H 0.0815 0.83509 0.09515 0.0
H1722 H 0.07731 0.86225 0.0804 0.0
H1723 H 0.0717 0.91003 0.11964 0.0
H1724 H 0.07611 0.98364 0.06589 0.0
H1725 H 0.08071 0.95595 0.07945 0.0
C1726 C 0.95481 0.24285 0.87779 0.0
C1727 C 0.96141 0.25278 0.89648 0.0
C1728 C 0.93886 0.24403 0.86811 0.0
C1729 C 0.90809 0.27412 0.86608 0.0
H1730 H 0.87465 0.22834 0.84145 0.0
C1731 C 0.83883 0.27506 0.83135 0.0
C1732 C 0.83097 0.2618 0.81485 0.0
C1733 C 0.85451 0.27407 0.84194 0.0
C1734 C 0.88387 0.24136 0.84793 0.0
H1735 H 0.95643 0.27204 0.91943 0.0
H1736 H 0.92888 0.27434 0.90242 0.0
H1737 H 0.90257 0.2266 0.85773 0.0
H1738 H 0.83352 0.23725 0.79644 0.0
H1739 H 0.86088 0.23597 0.81416 0.0
H1740 H 0.88969 0.28899 0.85586 0.0
C1741 C 0.93598 0.26555 0.8953 0.0
C1742 C 0.89991 0.2403 0.85736 0.0
C1743 C 0.95175 0.26412 0.90509 0.0
C1744 C 0.83915 0.24764 0.80915 0.0
C1745 C 0.85486 0.24681 0.8195 0.0
C1746 C 0.89213 0.27522 0.85638 0.0
C1747 C 0.92926 0.25544 0.87674 0.0
C1748 C 0.91224 0.25665 0.86654 0.0
C1749 C 0.86283 0.25993 0.83613 0.0
C1750 C 0.87975 0.25885 0.84707 0.0
H1751 H 0.96187 0.23399 0.87072 0.0
H1752 H 0.9341 0.23616 0.85377 0.0
H1753 H 0.91735 0.28701 0.8729 0.0
H1754 H 0.83287 0.28616 0.83609 0.0
H1755 H 0.86001 0.28433 0.85477 0.0
C1756 C 0.54333 0.22028 0.62764 0.0
C1757 C 0.55648 0.2349 0.62438 0.0
C1758 C 0.54128 0.20178 0.61859 0.0
C1759 C 0.56601 0.17021 0.60017 0.0
H1760 H 0.52185 0.13762 0.57596 0.0
C1761 C 0.55972 0.09268 0.56713 0.0
C1762 C 0.54476 0.07929 0.5683 0.0
C1763 C 0.56097 0.11194 0.5723 0.0
C1764 C 0.53427 0.14638 0.58292 0.0
H1765 H 0.57758 0.24156 0.6087 0.0
H1766 H 0.57418 0.20912 0.5932 0.0
H1767 H 0.524 0.17063 0.58777 0.0
H1768 H 0.51942 0.07567 0.57606 0.0
H1769 H 0.52181 0.10897 0.58582 0.0
H1770 H 0.57625 0.14599 0.59625 0.0
C1771 C 0.5654 0.21207 0.60267 0.0
C1772 C 0.53549 0.16537 0.58955 0.0
C1773 C 0.56725 0.23065 0.61143 0.0
C1774 C 0.53109 0.0856 0.57483 0.0
C1775 C 0.53244 0.10481 0.58029 0.0
C1776 C 0.56476 0.15115 0.59385 0.0
C1777 C 0.55253 0.1974 0.60635 0.0
C1778 C 0.55135 0.17748 0.59831 0.0
C1779 C 0.54738 0.11832 0.57909 0.0
C1780 C 0.54885 0.13888 0.58521 0.0
H1781 H 0.53482 0.22306 0.63753 0.0
H1782 H 0.5313 0.19076 0.62178 0.0
H1783 H 0.57838 0.17915 0.6071 0.0
H1784 H 0.57043 0.08829 0.56201 0.0
H1785 H 0.57257 0.1218 0.57078 0.0
C1786 C 0.57552 0.75632 0.40982 0.0
C1787 C 0.56001 0.75868 0.39998 0.0
C1788 C 0.58994 0.75722 0.40082 0.0
C1789 C 0.60348 0.75358 0.35304 0.0
H1790 H 0.64823 0.78001 0.38212 0.0
C1791 C 0.66364 0.76912 0.31672 0.0
C1792 C 0.67943 0.7678 0.3268 0.0
C1793 C 0.64921 0.76806 0.32572 0.0
C1794 C 0.6359 0.77236 0.37383 0.0
H1795 H 0.5476 0.76362 0.37274 0.0
H1796 H 0.57279 0.76518 0.3571 0.0
H1797 H 0.62287 0.77785 0.39736 0.0
H1798 H 0.69231 0.76437 0.35442 0.0
H1799 H 0.66713 0.76237 0.37011 0.0
H1800 H 0.61648 0.74798 0.32954 0.0
C1801 C 0.57373 0.76252 0.37176 0.0
C1802 C 0.6213 0.77113 0.38258 0.0
C1803 C 0.5593 0.76169 0.38079 0.0
C1804 C 0.68043 0.76562 0.34625 0.0
C1805 C 0.66595 0.7645 0.35525 0.0
C1806 C 0.61808 0.75475 0.3443 0.0
C1807 C 0.58931 0.76043 0.38171 0.0
C1808 C 0.60487 0.76174 0.37231 0.0
C1809 C 0.65009 0.76561 0.34509 0.0
C1810 C 0.63452 0.76419 0.35454 0.0
H1811 H 0.57661 0.75393 0.42455 0.0
H1812 H 0.60159 0.75525 0.40888 0.0
H1813 H 0.59111 0.746 0.34475 0.0
H1814 H 0.66244 0.7712 0.30185 0.0
H1815 H 0.6374 0.76941 0.31749 0.0
C1816 C 0.06626 0.25718 0.42957 0.0
C1817 C 0.05287 0.25174 0.41368 0.0
C1818 C 0.07291 0.24369 0.43801 0.0
C1819 C 0.07242 0.19269 0.43241 0.0
H1820 H 0.0764 0.20155 0.48789 0.0
C1821 C 0.06297 0.1342 0.47899 0.0
C1822 C 0.07235 0.13774 0.49775 0.0
C1823 C 0.06503 0.14801 0.46722 0.0
C1824 C 0.07575 0.19897 0.47245 0.0
H1825 H 0.03658 0.22801 0.39351 0.0
H1826 H 0.04778 0.20437 0.40864 0.0
H1827 H 0.07185 0.22619 0.46982 0.0
H1828 H 0.09223 0.15788 0.51835 0.0
H1829 H 0.09581 0.18206 0.49778 0.0
H1830 H 0.07551 0.16502 0.43519 0.0
C1831 C 0.0534 0.21907 0.41438 0.0
C1832 C 0.07314 0.21314 0.46205 0.0
C1833 C 0.04688 0.23261 0.40578 0.0
C1834 C 0.08459 0.15491 0.50408 0.0
C1835 C 0.08666 0.16872 0.49231 0.0
C1836 C 0.07496 0.17844 0.44286 0.0
C1837 C 0.06616 0.22445 0.43093 0.0
C1838 C 0.07109 0.21007 0.44188 0.0
C1839 C 0.0765 0.16563 0.474 0.0
C1840 C 0.0763 0.18133 0.46297 0.0
H1841 H 0.07135 0.27186 0.43578 0.0
H1842 H 0.08302 0.24833 0.45046 0.0
H1843 H 0.07114 0.18998 0.41691 0.0
H1844 H 0.05332 0.12118 0.47376 0.0
H1845 H 0.05687 0.14528 0.45328 0.0
C1846 C 0.62228 0.28484 0.21903 0.0
C1847 C 0.61162 0.27674 0.23131 0.0
C1848 C 0.63984 0.28587 0.22237 0.0
C1849 C 0.67103 0.26348 0.24702 0.0
H1850 H 0.70466 0.30678 0.23888 0.0
C1851 C 0.74238 0.26511 0.26151 0.0
C1852 C 0.75228 0.28148 0.27368 0.0
C1853 C 0.72602 0.26474 0.25195 0.0
C1854 C 0.69541 0.29456 0.24115 0.0
H1855 H 0.6112 0.26422 0.25728 0.0
H1856 H 0.642 0.26651 0.26342 0.0
H1857 H 0.67425 0.3065 0.23315 0.0
H1858 H 0.75356 0.31083 0.2838 0.0
H1859 H 0.72511 0.31006 0.26752 0.0
H1860 H 0.69217 0.25193 0.25596 0.0
C1861 C 0.63665 0.27158 0.25089 0.0
C1862 C 0.67799 0.29435 0.23776 0.0
C1863 C 0.61904 0.27046 0.2475 0.0
C1864 C 0.74619 0.2979 0.2747 0.0
C1865 C 0.72986 0.29751 0.26522 0.0
C1866 C 0.68844 0.26373 0.2505 0.0
C1867 C 0.64717 0.27894 0.23814 0.0
C1868 C 0.66563 0.27894 0.24099 0.0
C1869 C 0.71932 0.28072 0.25441 0.0
C1870 C 0.70085 0.27941 0.24793 0.0
H1871 H 0.61699 0.28981 0.2064 0.0
H1872 H 0.64755 0.29151 0.21221 0.0
H1873 H 0.6618 0.25123 0.24924 0.0
H1874 H 0.74679 0.25227 0.26026 0.0
H1875 H 0.71831 0.2517 0.24336 0.0
C1876 C 0.52816 0.8782 0.92676 0.0
C1877 C 0.53539 0.86354 0.93195 0.0
C1878 C 0.52372 0.89042 0.94072 0.0
C1879 C 0.53327 0.90831 0.99263 0.0
H1880 H 0.49252 0.92711 0.9815 0.0
C1881 C 0.52007 0.96508 0.04651 0.0
C1882 C 0.51799 0.98086 0.03822 0.0
C1883 C 0.51807 0.94778 0.03484 0.0
C1884 C 0.50389 0.9219 0.98483 0.0
H1885 H 0.54357 0.85019 0.95589 0.0
H1886 H 0.53571 0.87141 0.98016 0.0
H1887 H 0.49803 0.90287 0.95821 0.0
H1888 H 0.51075 0.99068 0.01157 0.0
H1889 H 0.50714 0.96061 0.99128 0.0
H1890 H 0.53942 0.92767 0.01895 0.0
C1891 C 0.53366 0.8736 0.96534 0.0
C1892 C 0.50711 0.90812 0.97147 0.0
C1893 C 0.53815 0.86143 0.9514 0.0
C1894 C 0.51238 0.97871 0.01834 0.0
C1895 C 0.51029 0.96144 1.00671 0.0
C1896 C 0.53004 0.92203 1.00599 0.0
C1897 C 0.52636 0.88822 0.96016 0.0
C1898 C 0.52205 0.9015 0.97504 0.0
C1899 C 0.51385 0.94603 0.01475 0.0
C1900 C 0.51553 0.92928 1.00204 0.0
H1901 H 0.52587 0.88021 0.9119 0.0
H1902 H 0.51843 0.90176 0.93631 0.0
H1903 H 0.54499 0.90369 0.99574 0.0
H1904 H 0.52429 0.96635 0.06183 0.0
H1905 H 0.52064 0.93603 0.04144 0.0
C1906 C 0.01798 0.75798 0.76677 0.0
C1907 C 0.02392 0.76721 0.752 0.0
C1908 C 1.00418 0.76215 0.77475 0.0
C1909 C 0.97907 0.79812 0.77965 0.0
H1910 H 0.94283 0.7566 0.78642 0.0
C1911 C 0.91117 0.80604 0.78626 0.0
C1912 C 0.90231 0.79643 0.79912 0.0
C1913 C 0.92701 0.80312 0.78293 0.0
C1914 C 0.95296 0.76837 0.78493 0.0
H1915 H 0.02018 0.78824 0.73421 0.0
H1916 H 0.99605 0.7954 0.74803 0.0
H1917 H 0.9688 0.75035 0.77614 0.0
H1918 H 0.90334 0.77643 0.81883 0.0
H1919 H 0.93109 0.77124 0.81291 0.0
H1920 H 0.9631 0.8161 0.78809 0.0
C1921 C 1.00217 0.78509 0.7536 0.0
C1922 C 0.96784 0.76479 0.77903 0.0
C1923 C 0.01594 0.78089 0.74559 0.0
C1924 C 0.90976 0.78391 0.80869 0.0
C1925 C 0.92564 0.78095 0.80532 0.0
C1926 C 0.96421 0.80169 0.78556 0.0
C1927 C 0.99606 0.77568 0.76818 0.0
C1928 C 0.98092 0.7796 0.776 0.0
C1929 C 0.9344 0.79048 0.79234 0.0
C1930 C 0.95085 0.78683 0.78792 0.0
H1931 H 0.02389 0.74739 0.77207 0.0
H1932 H 0.99987 0.7548 0.7861 0.0
H1933 H 0.98906 0.80986 0.7778 0.0
H1934 H 0.90565 0.81547 0.77831 0.0
H1935 H 0.93324 0.8104 0.77255 0.0
C1936 C 0.12451 0.01819 0.86702 0.0
C1937 C 0.11783 0.02923 0.85467 0.0
C1938 C 0.1179 0.01514 0.88385 0.0
C1939 C 0.09287 0.03544 0.91725 0.0
H1940 H 0.08796 0.98779 0.93595 0.0
C1941 C 0.0702 0.027 0.9892 0.0
C1942 C 0.05821 1.01028 0.98989 0.0
C1943 C 0.0791 0.02855 0.97379 0.0
C1944 C 0.08916 1.00116 0.93087 0.0
H1945 H 0.09855 0.04514 0.84993 0.0
H1946 H 0.08677 0.03944 0.87881 0.0
H1947 H 0.09941 0.9916 0.90633 0.0
H1948 H 0.04646 0.98187 0.97529 0.0
H1949 H 0.06157 0.98471 0.94799 0.0
H1950 H 0.082 0.04482 0.94119 0.0
C1951 C 0.09744 0.03356 0.8759 0.0
C1952 C 0.09592 1.00342 0.91399 0.0
C1953 C 0.10412 0.03673 0.85923 0.0
C1954 C 0.05566 0.99493 0.97513 0.0
C1955 C 0.06442 0.99653 0.95955 0.0
C1956 C 0.08604 0.03315 0.93399 0.0
C1957 C 0.10439 0.02298 0.88861 0.0
C1958 C 0.09772 0.02055 0.90687 0.0
C1959 C 0.07601 0.01351 0.95849 0.0
C1960 C 0.08401 0.01598 0.94103 0.0
H1961 H 0.13511 0.01225 0.86392 0.0
H1962 H 0.12367 1.00705 0.89335 0.0
H1963 H 0.09435 0.04895 0.91245 0.0
H1964 H 0.07243 0.03909 1.00035 0.0
H1965 H 0.0882 0.04169 0.97372 0.0
C1966 C 0.78443 0.32586 0.55093 0.0
C1967 C 0.78633 0.34417 0.56063 0.0
C1968 C 0.79282 0.31349 0.5594 0.0
C1969 C 0.82652 0.31088 0.59919 0.0
H1970 H 0.79214 0.26967 0.60978 0.0
C1971 C 0.8254 0.2914 0.67295 0.0
C1972 C 0.81603 0.27371 0.67543 0.0
C1973 C 0.82742 0.29522 0.6546 0.0
C1974 C 0.80217 0.28064 0.60663 0.0
H1975 H 0.79937 0.36439 0.58595 0.0
H1976 H 0.81406 0.34302 0.60056 0.0
H1977 H 0.78512 0.28593 0.5834 0.0
H1978 H 0.80296 0.24556 0.66074 0.0
H1979 H 0.80694 0.2521 0.6288 0.0
H1980 H 0.84326 0.30633 0.62318 0.0
C1981 C 0.80613 0.33811 0.58651 0.0
C1982 C 0.79809 0.28999 0.59144 0.0
C1983 C 0.79753 0.35028 0.57827 0.0
C1984 C 0.81023 0.25937 0.65937 0.0
C1985 C 0.81237 0.26315 0.641 0.0
C1986 C 0.83068 0.30141 0.61428 0.0
C1987 C 0.80352 0.31946 0.57743 0.0
C1988 C 0.80985 0.30594 0.58842 0.0
C1989 C 0.82021 0.28139 0.63831 0.0
C1990 C 0.81815 0.28702 0.61897 0.0
H1991 H 0.77589 0.32085 0.53726 0.0
H1992 H 0.79053 0.29913 0.5522 0.0
H1993 H 0.8359 0.32299 0.59691 0.0
H1994 H 0.83037 0.30262 0.68509 0.0
H1995 H 0.83347 0.30947 0.65316 0.0
C1996 C 0.45258 0.05216 0.36397 0.0
C1997 C 0.45249 0.03886 0.34786 0.0
C1998 C 0.46076 0.05111 0.38258 0.0
C1999 C 0.47855 0.01794 0.41201 0.0
H2000 H 0.49978 0.06359 0.44814 0.0
C2001 C 0.50799 0.01637 0.49257 0.0
C2002 C 0.5229 0.03034 0.50128 0.0
C2003 C 0.4989 0.0172 0.47427 0.0
C2004 C 0.49406 0.05059 0.43832 0.0
H2005 H 0.46131 0.01394 0.3393 0.0
H2006 H 0.47559 0.01222 0.37134 0.0
H2007 H 0.4859 0.06548 0.41612 0.0
H2008 H 0.53959 0.05628 0.49719 0.0
H2009 H 0.5241 0.0577 0.46582 0.0
H2010 H 0.48702 1.00308 0.43417 0.0
C2011 C 0.46914 0.02344 0.36976 0.0
C2012 C 0.4858 0.05169 0.41979 0.0
C2013 C 0.46101 0.02453 0.35116 0.0
C2014 C 0.52819 0.04522 0.49114 0.0
C2015 C 0.51914 0.04611 0.473 0.0
C2016 C 0.48676 0.01683 0.4306 0.0
C2017 C 0.46918 0.03666 0.38597 0.0
C2018 C 0.47791 0.03541 0.40611 0.0
C2019 C 0.5043 0.03211 0.46403 0.0
C2020 C 0.49483 0.03314 0.44418 0.0
H2021 H 0.44612 0.06335 0.36226 0.0
H2022 H 0.46014 0.06152 0.39443 0.0
H2023 H 0.47254 1.00495 0.40229 0.0
H2024 H 0.50342 1.00467 0.49981 0.0
H2025 H 0.48751 1.00617 0.46823 0.0
C2026 C 0.77066 0.70073 0.08145 0.0
C2027 C 0.77999 0.687 0.07837 0.0
C2028 C 0.77214 0.71089 0.09982 0.0
C2029 C 0.79963 0.72702 0.14679 0.0
H2030 H 0.75724 0.72402 0.16699 0.0
C2031 C 0.79988 0.75162 0.22725 0.0
C2032 C 0.78612 0.75856 0.23261 0.0
C2033 C 0.79952 0.74402 0.20813 0.0
C2034 C 0.76921 0.72542 0.16156 0.0
H2035 H 0.79877 0.67379 0.09203 0.0
H2036 H 0.80174 0.69202 0.12403 0.0
H2037 H 0.75638 0.70964 0.13407 0.0
H2038 H 0.76143 0.76355 0.22199 0.0
H2039 H 0.7611 0.75118 0.18855 0.0
H2040 H 0.81252 0.74323 0.17393 0.0
C2041 C 0.79314 0.6947 0.11222 0.0
C2042 C 0.76868 0.71704 0.14267 0.0
C2043 C 0.79139 0.68425 0.09392 0.0
C2044 C 0.77216 0.75812 0.21835 0.0
C2045 C 0.77194 0.75087 0.19914 0.0
C2046 C 0.80016 0.73575 0.16558 0.0
C2047 C 0.78325 0.70783 0.11543 0.0
C2048 C 0.78388 0.71759 0.13516 0.0
C2049 C 0.78553 0.74349 0.19374 0.0
C2050 C 0.78496 0.73491 0.17336 0.0
H2051 H 0.76169 0.70313 0.06981 0.0
H2052 H 0.76445 0.72101 0.1019 0.0
H2053 H 0.81153 0.72777 0.14129 0.0
H2054 H 0.81079 0.7516 0.23792 0.0
H2055 H 0.81009 0.73817 0.20479 0.0
C2056 C 0.12364 0.01378 0.7335 0.0
C2057 C 0.1176 0.02091 0.74978 0.0
C2058 C 0.11448 0.01248 0.71505 0.0
C2059 C 0.08929 1.00401 0.67744 0.0
H2060 H 0.07034 0.0464 0.66767 0.0
C2061 C 0.05172 1.00732 0.60302 0.0
C2062 C 0.05508 0.02478 0.59653 0.0
C2063 C 0.05815 1.00585 0.62191 0.0
C2064 C 0.07563 0.03449 0.67012 0.0
H2065 H 0.09672 0.03147 0.75939 0.0
H2066 H 0.08061 0.02891 0.72721 0.0
H2067 H 0.08359 0.04508 0.70013 0.0
H2068 H 0.06794 0.05436 0.60489 0.0
H2069 H 0.07931 0.05173 0.6376 0.0
H2070 H 0.08188 0.99378 0.64726 0.0
C2071 C 0.09263 0.02468 0.72871 0.0
C2072 C 0.08303 0.0336 0.6888 0.0
C2073 C 0.10182 0.02602 0.74718 0.0
C2074 C 0.06501 0.0407 0.60938 0.0
C2075 C 0.07145 0.03922 0.62822 0.0
C2076 C 0.08191 1.00491 0.65872 0.0
C2077 C 0.09901 0.01823 0.71239 0.0
C2078 C 0.09011 0.01845 0.69269 0.0
C2079 C 0.0681 0.02178 0.63474 0.0
C2080 C 0.07516 0.02028 0.65479 0.0
H2081 H 0.13575 1.00972 0.73495 0.0
H2082 H 0.11989 1.00764 0.70284 0.0
H2083 H 0.09444 0.99203 0.67993 0.0
H2084 H 0.04409 0.99475 0.59356 0.0
H2085 H 0.05516 0.99224 0.6265 0.0
C2086 C 0.74079 0.35483 0.45565 0.0
C2087 C 0.73365 0.34885 0.4713 0.0
C2088 C 0.73513 0.34439 0.43736 0.0
C2089 C 0.7198 0.29536 0.41652 0.0
H2090 H 0.72917 0.31744 0.37139 0.0
C2091 C 0.74714 0.28095 0.34038 0.0
C2092 C 0.75897 0.27103 0.34724 0.0
C2093 C 0.73617 0.2867 0.35208 0.0
C2094 C 0.72603 0.31067 0.3835 0.0
H2095 H 0.71405 0.32821 0.4801 0.0
H2096 H 0.70408 0.30953 0.44777 0.0
H2097 H 0.72141 0.33581 0.39776 0.0
H2098 H 0.7683 0.2586 0.37118 0.0
H2099 H 0.75012 0.26968 0.39222 0.0
H2100 H 0.72442 0.2702 0.40228 0.0
C2101 C 0.71412 0.32235 0.44972 0.0
C2102 C 0.72173 0.32138 0.39879 0.0
C2103 C 0.71972 0.33305 0.46816 0.0
C2104 C 0.75927 0.26629 0.36567 0.0
C2105 C 0.74863 0.27247 0.3776 0.0
C2106 C 0.72369 0.28446 0.40101 0.0
C2107 C 0.72225 0.32756 0.43427 0.0
C2108 C 0.71992 0.31435 0.41603 0.0
C2109 C 0.73717 0.28313 0.37112 0.0
C2110 C 0.72811 0.29243 0.38488 0.0
H2111 H 0.75149 0.36707 0.45774 0.0
H2112 H 0.74192 0.34879 0.42599 0.0
H2113 H 0.7183 0.28938 0.42949 0.0
H2114 H 0.74645 0.2844 0.32598 0.0
H2115 H 0.72726 0.29438 0.34631 0.0
C2116 C 0.45263 0.04571 0.23826 0.0
C2117 C 0.43562 0.04783 0.23728 0.0
C2118 C 0.46052 0.04439 0.22167 0.0
C2119 C 0.45081 0.03373 0.16696 0.0
H2120 H 0.4994 0.05559 0.17096 0.0
C2121 C 0.48462 0.03266 0.09783 0.0
C2122 C 0.50245 0.03395 0.09984 0.0
C2123 C 0.47629 0.03436 0.11412 0.0
C2124 C 0.48587 0.04899 0.16932 0.0
H2125 H 0.41382 0.05009 0.21714 0.0
H2126 H 0.42737 0.0477 0.18853 0.0
H2127 H 0.48586 0.0583 0.19922 0.0
H2128 H 0.52514 0.03773 0.12135 0.0
H2129 H 0.51093 0.03995 0.14908 0.0
H2130 H 0.45081 0.02411 0.13715 0.0
C2131 C 0.43472 0.04702 0.20221 0.0
C2132 C 0.47797 0.05066 0.18584 0.0
C2133 C 0.42691 0.04858 0.21885 0.0
C2134 C 0.51146 0.03673 0.11886 0.0
C2135 C 0.50317 0.03823 0.13505 0.0
C2136 C 0.45875 0.03186 0.15043 0.0
C2137 C 0.45174 0.04487 0.20316 0.0
C2138 C 0.46023 0.04309 0.18514 0.0
C2139 C 0.48536 0.03729 0.13325 0.0
C2140 C 0.47655 0.03941 0.15111 0.0
H2141 H 0.45994 0.04493 0.25193 0.0
H2142 H 0.4735 0.04257 0.22337 0.0
H2143 H 0.43721 0.02741 0.16548 0.0
H2144 H 0.47706 0.03066 0.08362 0.0
H2145 H 0.46269 0.03371 0.11155 0.0
C2146 C 0.77464 0.6803 0.95812 0.0
C2147 C 0.76789 0.68832 0.9734 0.0
C2148 C 0.77651 0.68914 0.94192 0.0
C2149 C 0.78272 0.73492 0.92596 0.0
H2150 H 0.76249 0.70725 0.87507 0.0
C2151 C 0.78324 0.77262 0.85936 0.0
C2152 C 0.78443 0.76252 0.84174 0.0
C2153 C 0.78054 0.76345 0.87517 0.0
C2154 C 0.76853 0.7152 0.88908 0.0
H2155 H 0.75817 0.71209 0.98378 0.0
H2156 H 0.76199 0.72776 0.95584 0.0
H2157 H 0.76014 0.69147 0.90302 0.0
H2158 H 0.78364 0.73485 0.82683 0.0
H2159 H 0.77977 0.71901 0.85441 0.0
H2160 H 0.79176 0.75843 0.91228 0.0
C2161 C 0.7656 0.71453 0.95629 0.0
C2162 C 0.76707 0.70609 0.90514 0.0
C2163 C 0.76337 0.70551 0.97225 0.0
C2164 C 0.78265 0.74302 0.84019 0.0
C2165 C 0.78031 0.7339 0.85608 0.0
C2166 C 0.78451 0.74393 0.9099 0.0
C2167 C 0.77207 0.70639 0.94087 0.0
C2168 C 0.77406 0.71588 0.92376 0.0
C2169 C 0.77931 0.74396 0.87392 0.0
C2170 C 0.77736 0.73427 0.89115 0.0
H2171 H 0.77819 0.66705 0.95853 0.0
H2172 H 0.78161 0.68258 0.93029 0.0
H2173 H 0.78837 0.74278 0.94013 0.0
H2174 H 0.78446 0.78765 0.86093 0.0
H2175 H 0.77941 0.77174 0.88838 0.0
C2176 C 0.85966 0.12601 0.06195 0.0
C2177 C 0.86281 0.12349 0.08126 0.0
C2178 C 0.87023 0.12114 0.04922 0.0
C2179 C 0.91265 0.11157 0.04721 0.0
H2180 H 0.88988 0.07483 1.00209 0.0
C2181 C 0.92806 0.04406 1.00634 0.0
C2182 C 0.94557 0.05125 1.00621 0.0
C2183 C 0.9174 0.05626 0.00924 0.0
C2184 C 0.89642 0.08527 0.01447 0.0
H2185 H 0.8798 0.11463 0.10258 0.0
H2186 H 0.89834 0.10634 0.08044 0.0
H2187 H 0.87288 0.09098 0.02107 0.0
H2188 H 0.96527 0.07655 1.0066 0.0
H2189 H 0.94662 0.09791 0.0116 0.0
H2190 H 0.93602 0.10512 0.04148 0.0
C2191 C 0.88772 0.11207 0.07514 0.0
C2192 C 0.88672 0.09459 0.02525 0.0
C2193 C 0.87704 0.11668 0.08777 0.0
C2194 C 0.95186 0.0707 1.00704 0.0
C2195 C 0.9412 0.0829 0.00989 0.0
C2196 C 0.92234 0.10237 0.03641 0.0
C2197 C 0.88428 0.114 0.05569 0.0
C2198 C 0.89471 0.10723 0.04216 0.0
C2199 C 0.9241 0.07585 0.01201 0.0
C2200 C 0.91426 0.08857 0.02037 0.0
H2201 H 0.84875 0.13123 0.05653 0.0
H2202 H 0.86734 0.12277 0.0343 0.0
H2203 H 0.91911 0.12141 0.06007 0.0
H2204 H 0.92289 0.02913 1.00579 0.0
H2205 H 0.90431 0.05037 0.01093 0.0
C2206 C 0.36807 0.42716 0.05499 0.0
C2207 C 0.35862 0.43389 0.06829 0.0
C2208 C 0.38403 0.43797 0.05292 0.0
C2209 C 0.42088 0.47538 0.07813 0.0
H2210 H 0.43012 0.48163 0.02703 0.0
C2211 C 0.48354 0.52493 0.0664 0.0
C2212 C 0.49073 0.52 0.05024 0.0
C2213 C 0.46744 0.51461 0.06874 0.0
C2214 C 0.42795 0.47981 0.04142 0.0
H2215 H 0.35874 0.45728 0.09003 0.0
H2216 H 0.38688 0.47605 0.08668 0.0
H2217 H 0.40223 0.46335 0.03098 0.0
H2218 H 0.48657 0.50056 0.02365 0.0
H2219 H 0.45897 0.48194 0.02811 0.0
H2220 H 0.44669 0.49129 0.08863 0.0
C2221 C 0.38179 0.46239 0.07778 0.0
C2222 C 0.41187 0.4694 0.04366 0.0
C2223 C 0.36565 0.45168 0.07963 0.0
C2224 C 0.48148 0.50453 0.03642 0.0
C2225 C 0.46549 0.49402 0.03888 0.0
C2226 C 0.43707 0.48557 0.07589 0.0
C2227 C 0.3911 0.45569 0.06431 0.0
C2228 C 0.40813 0.46707 0.06203 0.0
C2229 C 0.45815 0.49895 0.05504 0.0
C2230 C 0.44087 0.48797 0.05748 0.0
H2231 H 0.36306 0.41355 0.04597 0.0
H2232 H 0.39095 0.43235 0.04254 0.0
H2233 H 0.41845 0.47365 0.09247 0.0
H2234 H 0.49029 0.53691 0.07721 0.0
H2235 H 0.46219 0.51917 0.08118 0.0
C2236 C 0.39893 0.57056 0.76578 0.0
C2237 C 0.39225 0.55495 0.75114 0.0
C2238 C 0.3917 0.58615 0.76651 0.0
C2239 C 0.35211 0.60066 0.74891 0.0
H2240 H 0.38203 0.65088 0.75906 0.0
C2241 C 0.3265 0.66596 0.73662 0.0
C2242 C 0.33291 0.68222 0.75051 0.0
C2243 C 0.33392 0.65058 0.73703 0.0
C2244 C 0.37348 0.63696 0.75641 0.0
H2245 H 0.37262 0.54342 0.72591 0.0
H2246 H 0.36015 0.57048 0.72714 0.0
H2247 H 0.39445 0.62371 0.75988 0.0
H2248 H 0.35252 0.69526 0.77539 0.0
H2249 H 0.36524 0.66837 0.7763 0.0
H2250 H 0.33115 0.61386 0.7454 0.0
C2251 C 0.37084 0.57068 0.73818 0.0
C2252 C 0.38061 0.62138 0.75691 0.0
C2253 C 0.37808 0.55518 0.73742 0.0
C2254 C 0.34711 0.68286 0.76462 0.0
C2255 C 0.35453 0.6675 0.76501 0.0
C2256 C 0.34499 0.61622 0.74843 0.0
C2257 C 0.37758 0.5864 0.75267 0.0
C2258 C 0.37001 0.60303 0.75304 0.0
C2259 C 0.34796 0.65111 0.75132 0.0
C2260 C 0.35558 0.63457 0.75205 0.0
H2261 H 0.40983 0.57082 0.77658 0.0
H2262 H 0.39709 0.59796 0.77798 0.0
H2263 H 0.34356 0.58674 0.74617 0.0
H2264 H 0.31552 0.66494 0.72564 0.0
H2265 H 0.32867 0.63828 0.7261 0.0
C2266 C 0.27227 0.63099 0.59962 0.0
C2267 C 0.28648 0.62892 0.61217 0.0
C2268 C 0.25667 0.61767 0.59657 0.0
C2269 C 0.22976 0.58327 0.61781 0.0
H2270 H 0.20647 0.56547 0.56514 0.0
C2271 C 0.15952 0.54027 0.60073 0.0
C2272 C 0.14903 0.54703 0.58724 0.0
C2273 C 0.17739 0.54587 0.60275 0.0
C2274 C 0.21279 0.57029 0.57992 0.0
H2275 H 0.29528 0.61146 0.6318 0.0
H2276 H 0.26757 0.58825 0.62675 0.0
H2277 H 0.23601 0.58437 0.57153 0.0
H2278 H 0.14903 0.56439 0.56484 0.0
H2279 H 0.18006 0.57421 0.56839 0.0
H2280 H 0.20626 0.57017 0.62626 0.0
C2281 C 0.26878 0.60016 0.61915 0.0
C2282 C 0.22969 0.58104 0.58356 0.0
C2283 C 0.28457 0.61343 0.62203 0.0
C2284 C 0.15674 0.55872 0.57517 0.0
C2285 C 0.17457 0.56434 0.57722 0.0
C2286 C 0.21276 0.57264 0.61417 0.0
C2287 C 0.25482 0.60205 0.60613 0.0
C2288 C 0.23812 0.58811 0.60251 0.0
C2289 C 0.18511 0.55835 0.59134 0.0
C2290 C 0.20392 0.56657 0.59517 0.0
H2291 H 0.27327 0.64272 0.59177 0.0
H2292 H 0.24599 0.61961 0.58672 0.0
H2293 H 0.236 0.58865 0.63254 0.0
H2294 H 0.1539 0.53103 0.61005 0.0
H2295 H 0.18517 0.54079 0.61356 0.0
C2296 C 0.70962 0.94858 0.7844 0.0
C2297 C 0.69897 0.95249 0.79779 0.0
C2298 C 0.71722 0.93294 0.78435 0.0
C2299 C 0.71534 0.88641 0.80409 0.0
H2300 H 0.75829 0.88893 0.78541 0.0
C2301 C 0.74541 0.81971 0.79521 0.0
C2302 C 0.76341 0.82218 0.79679 0.0
C2303 C 0.73755 0.83519 0.79549 0.0
C2304 C 0.74636 0.88776 0.79088 0.0
H2305 H 0.68832 0.9421 0.82175 0.0
H2306 H 0.70146 0.91528 0.82181 0.0
H2307 H 0.74538 0.9157 0.78597 0.0
H2308 H 0.78695 0.84385 0.80007 0.0
H2309 H 0.77359 0.8704 0.80078 0.0
H2310 H 0.7165 0.85856 0.80929 0.0
C2311 C 0.70389 0.92418 0.81104 0.0
C2312 C 0.73868 0.90334 0.79096 0.0
C2313 C 0.69632 0.93987 0.81111 0.0
C2314 C 0.77312 0.84097 0.79877 0.0
C2315 C 0.76528 0.85643 0.79901 0.0
C2316 C 0.72299 0.87079 0.80394 0.0
C2317 C 0.7146 0.92022 0.79766 0.0
C2318 C 0.72293 0.90319 0.79758 0.0
C2319 C 0.74725 0.85405 0.79731 0.0
C2320 C 0.73878 0.87098 0.79737 0.0
H2321 H 0.7121 0.95765 0.77377 0.0
H2322 H 0.72501 0.93072 0.77351 0.0
H2323 H 0.70321 0.88512 0.80916 0.0
H2324 H 0.73726 0.80568 0.79365 0.0
H2325 H 0.7237 0.83219 0.79392 0.0
C2326 C 0.76441 0.9485 0.58522 0.0
C2327 C 0.76714 0.93443 0.57159 0.0
C2328 C 0.74941 0.95498 0.58259 0.0
C2329 C 0.70453 0.94193 0.5559 0.0
H2330 H 0.7067 0.99463 0.57203 0.0
C2331 C 0.64588 0.97451 0.5403 0.0
C2332 C 0.64349 0.98795 0.55488 0.0
C2333 C 0.66074 0.96765 0.54206 0.0
C2334 C 0.70581 0.97982 0.56764 0.0
H2335 H 0.75615 0.91627 0.54434 0.0
H2336 H 0.73006 0.92777 0.53957 0.0
H2337 H 0.73299 0.98365 0.5751 0.0
H2338 H 0.65501 1.00463 0.58279 0.0
H2339 H 0.68072 0.9925 0.58596 0.0
H2340 H 0.6773 0.93819 0.54836 0.0
C2341 C 0.73945 0.93363 0.55248 0.0
C2342 C 0.72093 0.9735 0.5694 0.0
C2343 C 0.75449 0.92711 0.55514 0.0
C2344 C 0.65629 0.99416 0.57136 0.0
C2345 C 0.67117 0.98737 0.57307 0.0
C2346 C 0.68939 0.94828 0.55408 0.0
C2347 C 0.73666 0.94762 0.56621 0.0
C2348 C 0.72053 0.95443 0.56368 0.0
C2349 C 0.67367 0.97411 0.55839 0.0
C2350 C 0.6898 0.9673 0.56004 0.0
H2351 H 0.77381 0.95441 0.59812 0.0
H2352 H 0.74767 0.96553 0.59365 0.0
H2353 H 0.70362 0.92712 0.55159 0.0
H2354 H 0.63625 0.96927 0.52749 0.0
H2355 H 0.66225 0.95755 0.53041 0.0
C2356 C 0.37444 0.45594 0.75882 0.0
C2357 C 0.3921 0.45686 0.76014 0.0
C2358 C 0.36302 0.43954 0.76131 0.0
C2359 C 0.35741 0.38855 0.75841 0.0
H2360 H 0.32467 0.39227 0.79275 0.0
C2361 C 0.3162 0.32247 0.77976 0.0
C2362 C 0.29945 0.32255 0.78261 0.0
C2363 C 0.32743 0.33886 0.777 0.0
C2364 C 0.33352 0.39094 0.78286 0.0
H2365 H 0.41152 0.4411 0.76479 0.0
H2366 H 0.39151 0.41239 0.76882 0.0
H2367 H 0.34416 0.42073 0.78752 0.0
H2368 H 0.28095 0.33957 0.784 0.0
H2369 H 0.30029 0.36812 0.77856 0.0
H2370 H 0.34662 0.35887 0.75334 0.0
C2371 C 0.38655 0.42441 0.76593 0.0
C2372 C 0.34474 0.40728 0.77994 0.0
C2373 C 0.39801 0.44089 0.7637 0.0
C2374 C 0.29392 0.33921 0.78212 0.0
C2375 C 0.30508 0.3556 0.77915 0.0
C2376 C 0.34605 0.37221 0.76114 0.0
C2377 C 0.36896 0.42361 0.7649 0.0
C2378 C 0.35686 0.40626 0.76775 0.0
C2379 C 0.32204 0.35569 0.77663 0.0
C2380 C 0.33399 0.37315 0.77349 0.0
H2381 H 0.36945 0.46798 0.75614 0.0
H2382 H 0.34951 0.43928 0.76028 0.0
H2383 H 0.36647 0.38734 0.74875 0.0
H2384 H 0.3205 0.30964 0.77918 0.0
H2385 H 0.34038 0.3383 0.77524 0.0
C2386 C 0.21351 0.56975 0.31055 0.0
C2387 C 0.19694 0.56559 0.31552 0.0
C2388 C 0.22221 0.58849 0.30967 0.0
C2389 C 0.21376 0.6354 0.30278 0.0
H2390 H 0.26214 0.65614 0.32287 0.0
C2391 C 0.2509 0.70866 0.2881 0.0
C2392 C 0.26255 0.72097 0.30339 0.0
C2393 C 0.24336 0.68988 0.28978 0.0
C2394 C 0.24859 0.65065 0.31719 0.0
H2395 H 0.17689 0.57867 0.32353 0.0
H2396 H 0.19172 0.61067 0.32172 0.0
H2397 H 0.24863 0.6235 0.32535 0.0
H2398 H 0.27549 0.72249 0.33248 0.0
H2399 H 0.26265 0.68978 0.33529 0.0
H2400 H 0.21368 0.66237 0.29442 0.0
C2401 C 0.19809 0.59952 0.31851 0.0
C2402 C 0.24084 0.63177 0.31848 0.0
C2403 C 0.18958 0.58096 0.31972 0.0
C2404 C 0.26653 0.71365 0.32038 0.0
C2405 C 0.25922 0.69472 0.32195 0.0
C2406 C 0.22156 0.65411 0.30116 0.0
C2407 C 0.21453 0.60372 0.31333 0.0
C2408 C 0.22321 0.62379 0.31144 0.0
C2409 C 0.24738 0.68246 0.30671 0.0
C2410 C 0.23912 0.66221 0.30842 0.0
H2411 H 0.21971 0.55849 0.30708 0.0
H2412 H 0.23479 0.59096 0.30556 0.0
H2413 H 0.20023 0.62994 0.297 0.0
H2414 H 0.24742 0.71358 0.27475 0.0
H2415 H 0.23449 0.68105 0.27761 0.0
C2416 C 0.51436 0.69044 0.45693 0.0
C2417 C 0.52377 0.70767 0.46804 0.0
C2418 C 0.51451 0.6734 0.46368 0.0
C2419 C 0.52139 0.65199 0.50706 0.0
H2420 H 0.53568 0.61411 0.47468 0.0
C2421 C 0.52091 0.57587 0.52341 0.0
C2422 C 0.53671 0.57097 0.52309 0.0
C2423 C 0.51824 0.59239 0.51697 0.0
C2424 C 0.53159 0.62452 0.48384 0.0
H2425 H 0.54021 0.72049 0.49527 0.0
H2426 H 0.53996 0.69081 0.50729 0.0
H2427 H 0.53238 0.64312 0.46293 0.0
H2428 H 0.56196 0.57953 0.51547 0.0
H2429 H 0.55709 0.60792 0.50374 0.0
H2430 H 0.52046 0.63324 0.52791 0.0
C2431 C 0.53265 0.69049 0.49326 0.0
C2432 C 0.52961 0.64107 0.47708 0.0
C2433 C 0.53283 0.70748 0.48633 0.0
C2434 C 0.54969 0.58291 0.51605 0.0
C2435 C 0.54687 0.59913 0.50922 0.0
C2436 C 0.52297 0.63521 0.51366 0.0
C2437 C 0.52373 0.67322 0.48189 0.0
C2438 C 0.52471 0.65512 0.4887 0.0
C2439 C 0.53114 0.6041 0.50961 0.0
C2440 C 0.52833 0.6214 0.50222 0.0
H2441 H 0.50733 0.69007 0.44274 0.0
H2442 H 0.50747 0.66032 0.45462 0.0
H2443 H 0.51755 0.66253 0.51632 0.0
H2444 H 0.51064 0.567 0.52874 0.0
H2445 H 0.50597 0.59584 0.5174 0.0
C2446 C 0.61747 0.28702 0.71225 0.0
C2447 C 0.61659 0.29511 0.69537 0.0
C2448 C 0.63334 0.28628 0.72246 0.0
C2449 C 0.68033 0.30714 0.7293 0.0
H2450 H 0.68372 0.26118 0.74885 0.0
C2451 C 0.73976 0.30207 0.78181 0.0
C2452 C 0.74549 0.28544 0.77959 0.0
C2453 C 0.72444 0.3033 0.77087 0.0
C2454 C 0.68305 0.27406 0.74335 0.0
H2455 H 0.63193 0.30925 0.67639 0.0
H2456 H 0.6595 0.30804 0.69419 0.0
H2457 H 0.6563 0.26361 0.73157 0.0
H2458 H 0.7398 0.25712 0.76386 0.0
H2459 H 0.71292 0.25922 0.74464 0.0
H2460 H 0.7071 0.31754 0.74093 0.0
C2461 C 0.64792 0.3023 0.69959 0.0
C2462 C 0.66725 0.27555 0.73364 0.0
C2463 C 0.63206 0.30296 0.68934 0.0
C2464 C 0.73567 0.27011 0.76593 0.0
C2465 C 0.72023 0.27129 0.75501 0.0
C2466 C 0.6961 0.30569 0.73909 0.0
C2467 C 0.64878 0.29369 0.71614 0.0
C2468 C 0.66564 0.29214 0.72653 0.0
C2469 C 0.71436 0.28789 0.75742 0.0
C2470 C 0.69768 0.28915 0.74632 0.0
H2471 H 0.60587 0.28081 0.71738 0.0
H2472 H 0.63349 0.27982 0.7353 0.0
H2473 H 0.67959 0.32017 0.72415 0.0
H2474 H 0.74705 0.31414 0.79222 0.0
H2475 H 0.72028 0.31622 0.77331 0.0
C2476 C 1.00649 0.31528 0.98461 0.0
C2477 C 0.0176 0.30953 0.97285 0.0
C2478 C 1.00903 0.33421 0.99251 0.0
C2479 C 0.04095 0.37954 1.006 0.0
H2480 H 1.0013 0.40088 0.99973 0.0
C2481 C 0.04728 0.4595 0.02661 0.0
C2482 C 0.03373 0.46551 0.0338 0.0
C2483 C 0.04556 0.44055 0.01933 0.0
C2484 C 0.01249 0.39517 1.00196 0.0
H2485 H 0.04046 0.3192 0.96072 0.0
H2486 H 0.04512 0.35231 0.97493 0.0
H2487 H 0.99824 0.36783 0.98747 0.0
H2488 H 1.00779 0.4561 0.03922 0.0
H2489 H 1.00496 0.42302 0.02721 0.0
H2490 H 0.05516 0.40666 0.02092 0.0
C2491 C 0.03436 0.34209 0.97788 0.0
C2492 C 0.01072 0.37618 0.9948 0.0
C2493 C 0.03168 0.32314 0.96973 0.0
C2494 C 0.01844 0.45202 0.03365 0.0
C2495 C 0.0168 0.433 0.02662 0.0
C2496 C 0.04269 0.39849 0.01341 0.0
C2497 C 0.02287 0.34788 0.98908 0.0
C2498 C 0.02492 0.36813 0.99672 0.0
C2499 C 0.03031 0.42695 0.01927 0.0
C2500 C 0.02848 0.40664 0.01148 0.0
H2501 H 0.99549 0.30523 0.98731 0.0
H2502 H 1.00007 0.33817 1.00126 0.0
H2503 H 0.05209 0.3737 0.00786 0.0
H2504 H 0.0592 0.46951 0.02633 0.0
H2505 H 0.05615 0.43665 0.01349 0.0
C2506 C 0.01516 0.77595 0.20705 0.0
C2507 C 0.02077 0.78827 0.19442 0.0
C2508 C 1.0 0.77608 0.21432 0.0
C2509 C 0.96856 0.80472 0.22245 0.0
H2510 H 0.93895 0.75656 0.22557 0.0
C2511 C 0.90099 0.79794 0.24399 0.0
C2512 C 0.89598 0.78469 0.25599 0.0
C2513 C 0.91594 0.79862 0.23596 0.0
C2514 C 0.94713 0.77016 0.22503 0.0
H2515 H 0.01486 0.81068 0.17983 0.0
H2516 H 0.9883 0.81092 0.19252 0.0
H2517 H 0.96549 0.75762 0.21292 0.0
H2518 H 0.90312 0.76197 0.26913 0.0
H2519 H 0.92905 0.76315 0.25522 0.0
H2520 H 0.9502 0.81725 0.23469 0.0
C2521 C 0.99575 0.8012 0.19689 0.0
C2522 C 0.9624 0.77077 0.21775 0.0
C2523 C 0.01095 0.80103 0.18956 0.0
C2524 C 0.90633 0.77212 0.25967 0.0
C2525 C 0.92127 0.77281 0.25167 0.0
C2526 C 0.95327 0.80411 0.22979 0.0
C2527 C 0.98995 0.78855 0.20919 0.0
C2528 C 0.97342 0.78805 0.21648 0.0
C2529 C 0.92632 0.78608 0.23971 0.0
C2530 C 0.94239 0.78682 0.23132 0.0
H2531 H 0.0224 0.76597 0.21121 0.0
H2532 H 0.99616 0.76639 0.22403 0.0
H2533 H 0.97678 0.81829 0.22188 0.0
H2534 H 0.89326 0.80771 0.24063 0.0
H2535 H 0.91925 0.80885 0.2266 0.0
C2536 C 0.53884 0.32381 0.17906 0.0
C2537 C 0.55238 0.31569 0.17517 0.0
C2538 C 0.53566 0.33872 0.16995 0.0
C2539 C 0.55595 0.37602 0.14494 0.0
H2540 H 0.51036 0.37002 0.11601 0.0
C2541 C 0.54411 0.41587 0.08237 0.0
C2542 C 0.52899 0.42219 0.07964 0.0
C2543 C 0.54661 0.40444 0.09615 0.0
C2544 C 0.52308 0.37212 0.12428 0.0
H2545 H 0.57349 0.31708 0.15924 0.0
H2546 H 0.56804 0.34309 0.1436 0.0
H2547 H 0.51544 0.34771 0.13738 0.0
H2548 H 0.50475 0.42185 0.08939 0.0
H2549 H 0.50915 0.40198 0.11362 0.0
H2550 H 0.56371 0.40024 0.13176 0.0
C2551 C 0.55989 0.33799 0.15361 0.0
C2552 C 0.52597 0.35935 0.13652 0.0
C2553 C 0.56291 0.323 0.16245 0.0
C2554 C 0.51642 0.41692 0.091 0.0
C2555 C 0.51895 0.40557 0.10488 0.0
C2556 C 0.55305 0.38886 0.13285 0.0
C2557 C 0.54616 0.34589 0.15712 0.0
C2558 C 0.54252 0.36092 0.14655 0.0
C2559 C 0.53408 0.3992 0.10761 0.0
C2560 C 0.53669 0.38676 0.12198 0.0
H2561 H 0.53053 0.31842 0.18881 0.0
H2562 H 0.525 0.34462 0.17288 0.0
H2563 H 0.56878 0.37766 0.15274 0.0
H2564 H 0.55392 0.41957 0.07366 0.0
H2565 H 0.55825 0.39946 0.0976 0.0
C2566 C 0.96547 0.27882 0.37082 0.0
C2567 C 0.97608 0.28246 0.38889 0.0
C2568 C 0.94775 0.27646 0.36942 0.0
C2569 C 0.91002 0.26184 0.37021 0.0
H2570 H 0.89235 0.2959 0.40353 0.0
C2571 C 0.8382 0.25655 0.36008 0.0
C2572 C 0.83379 0.27371 0.35855 0.0
C2573 C 0.85478 0.25629 0.3683 0.0
C2574 C 0.89709 0.28625 0.39416 0.0
H2575 H 0.97634 0.28632 0.41969 0.0
H2576 H 0.94539 0.28198 0.41719 0.0
H2577 H 0.92319 0.29818 0.40773 0.0
H2578 H 0.84279 0.30403 0.36599 0.0
H2579 H 0.8718 0.30361 0.37997 0.0
H2580 H 0.88415 0.25052 0.35599 0.0
C2581 C 0.95081 0.28119 0.40412 0.0
C2582 C 0.91473 0.28745 0.39666 0.0
C2583 C 0.96855 0.28357 0.40553 0.0
C2584 C 0.84579 0.29057 0.36697 0.0
C2585 C 0.86246 0.29032 0.37502 0.0
C2586 C 0.89243 0.26067 0.36768 0.0
C2587 C 0.94022 0.27764 0.38605 0.0
C2588 C 0.92141 0.27547 0.38446 0.0
C2589 C 0.86734 0.27319 0.37496 0.0
C2590 C 0.88576 0.27305 0.37942 0.0
H2591 H 0.97086 0.27796 0.35773 0.0
H2592 H 0.93997 0.27404 0.35528 0.0
H2593 H 0.91472 0.25221 0.36077 0.0
H2594 H 0.82914 0.24331 0.35394 0.0
H2595 H 0.85801 0.24284 0.36852 0.0
C2596 C 0.04784 0.71631 0.65544 0.0
C2597 C 0.05114 0.71522 0.67513 0.0
C2598 C 0.04667 0.70071 0.64162 0.0
C2599 C 0.0616 0.65763 0.6349 0.0
H2600 H 0.02515 0.64227 0.59052 0.0
C2601 C 0.04702 0.58565 0.5871 0.0
C2602 C 0.04057 0.58391 0.56745 0.0
C2603 C 0.05011 0.60284 0.59914 0.0
C2604 C 0.03562 0.6466 0.60261 0.0
H2605 H 0.05534 0.69677 0.69578 0.0
H2606 H 0.05334 0.66947 0.67155 0.0
H2607 H 0.02586 0.66954 0.61409 0.0
H2608 H 0.03322 0.59894 0.54469 0.0
H2609 H 0.03893 0.62929 0.56576 0.0
H2610 H 0.07143 0.63481 0.62348 0.0
C2611 C 0.05178 0.68248 0.66688 0.0
C2612 C 0.03594 0.66213 0.61617 0.0
C2613 C 0.05277 0.69804 0.68072 0.0
C2614 C 0.03814 0.59993 0.55982 0.0
C2615 C 0.04127 0.61722 0.57191 0.0
C2616 C 0.06137 0.64221 0.62128 0.0
C2617 C 0.04894 0.68376 0.64722 0.0
C2618 C 0.04879 0.66761 0.63258 0.0
C2619 C 0.04689 0.61874 0.59178 0.0
C2620 C 0.04822 0.63633 0.60513 0.0
H2621 H 0.04647 0.72933 0.65066 0.0
H2622 H 0.04453 0.70209 0.62657 0.0
H2623 H 0.07185 0.6618 0.64723 0.0
H2624 H 0.04899 0.57352 0.59337 0.0
H2625 H 0.05422 0.60341 0.61438 0.0
C2626 C 0.59967 0.82987 0.86847 0.0
C2627 C 0.58311 0.82959 0.85926 0.0
C2628 C 0.61267 0.82854 0.85783 0.0
C2629 C 0.61797 0.80814 0.81042 0.0
H2630 H 0.66609 0.83041 0.83098 0.0
C2631 C 0.67318 0.78339 0.77907 0.0
C2632 C 0.68462 0.77861 0.79321 0.0
C2633 C 0.66138 0.7935 0.78438 0.0
C2634 C 0.65269 0.82419 0.82498 0.0
H2635 H 0.56746 0.82877 0.83171 0.0
H2636 H 0.5903 0.82645 0.81305 0.0
H2637 H 0.6441 0.84237 0.84525 0.0
H2638 H 0.69327 0.78128 0.82384 0.0
H2639 H 0.67276 0.79887 0.8331 0.0
H2640 H 0.62662 0.78949 0.79061 0.0
C2641 C 0.59312 0.82753 0.82853 0.0
C2642 C 0.64012 0.831 0.83315 0.0
C2643 C 0.58007 0.82895 0.83923 0.0
C2644 C 0.68441 0.78455 0.81267 0.0
C2645 C 0.67283 0.79482 0.81795 0.0
C2646 C 0.63057 0.80139 0.80217 0.0
C2647 C 0.60945 0.82688 0.8377 0.0
C2648 C 0.62262 0.82253 0.82648 0.0
C2649 C 0.66111 0.79928 0.80389 0.0
C2650 C 0.64802 0.80886 0.8099 0.0
H2651 H 0.60248 0.83045 0.88388 0.0
H2652 H 0.62501 0.82783 0.86535 0.0
H2653 H 0.6046 0.8012 0.80502 0.0
H2654 H 0.67315 0.77899 0.76396 0.0
H2655 H 0.65246 0.79677 0.77327 0.0
C2656 C 0.46968 0.51136 0.71115 0.0
C2657 C 0.45265 0.5131 0.71014 0.0
C2658 C 0.47825 0.51378 0.69551 0.0
C2659 C 0.47053 0.51308 0.64284 0.0
H2660 H 0.51835 0.54037 0.65164 0.0
C2661 C 0.52703 0.54584 0.59777 0.0
C2662 C 0.52516 0.53038 0.58331 0.0
C2663 C 0.51746 0.54433 0.61269 0.0
C2664 C 0.50495 0.53286 0.6489 0.0
H2665 H 0.43133 0.51878 0.69172 0.0
H2666 H 0.44628 0.52307 0.66459 0.0
H2667 H 0.50335 0.53657 0.67886 0.0
H2668 H 0.51143 0.50142 0.57278 0.0
H2669 H 0.4947 0.49877 0.59873 0.0
H2670 H 0.4721 0.50952 0.61285 0.0
C2671 C 0.45297 0.51964 0.67741 0.0
C2672 C 0.4964 0.53047 0.66455 0.0
C2673 C 0.44442 0.51728 0.69305 0.0
C2674 C 0.5131 0.5136 0.58368 0.0
C2675 C 0.50348 0.5121 0.59855 0.0
C2676 C 0.4791 0.51541 0.62719 0.0
C2677 C 0.46999 0.51794 0.67842 0.0
C2678 C 0.47909 0.52053 0.66174 0.0
C2679 C 0.50575 0.52735 0.61344 0.0
C2680 C 0.49643 0.5253 0.63002 0.0
H2681 H 0.47642 0.50812 0.72405 0.0
H2682 H 0.49129 0.51215 0.69672 0.0
H2683 H 0.45724 0.5052 0.64014 0.0
H2684 H 0.53618 0.55898 0.5978 0.0
H2685 H 0.51932 0.55644 0.62373 0.0
C2686 C 0.79656 0.18623 0.04781 0.0
C2687 C 0.80792 0.17452 0.05017 0.0
C2688 C 0.79474 0.19437 0.03125 0.0
C2689 C 0.79996 0.18878 0.98085 0.0
H2690 H 0.80058 0.24181 0.98586 0.0
C2691 C 0.80155 0.22939 0.9166 0.0
C2692 C 0.79199 0.24308 0.91594 0.0
C2693 C 0.80324 0.22047 0.93267 0.0
C2694 C 0.80013 0.22693 0.98419 0.0
H2695 H 0.82623 0.16201 0.037 0.0
H2696 H 0.82295 0.17621 0.00789 0.0
H2697 H 0.80421 0.22736 0.01459 0.0
H2698 H 0.77651 0.25797 0.93158 0.0
H2699 H 0.77897 0.24197 0.9593 0.0
H2700 H 0.79564 0.18826 0.95043 0.0
C2701 C 0.81545 0.17903 0.0189 0.0
C2702 C 0.80227 0.21869 1.00065 0.0
C2703 C 0.81739 0.17101 0.03558 0.0
C2704 C 0.78384 0.24736 0.93153 0.0
C2705 C 0.78544 0.23837 0.94754 0.0
C2706 C 0.79769 0.197 0.96435 0.0
C2707 C 0.80415 0.19083 0.01663 0.0
C2708 C 0.80218 0.19955 0.99913 0.0
C2709 C 0.79533 0.225 0.9484 0.0
C2710 C 0.79771 0.21616 0.96585 0.0
H2711 H 0.78907 0.18918 0.0588 0.0
H2712 H 0.78581 0.20326 0.02976 0.0
H2713 H 0.79965 0.17393 0.97931 0.0
H2714 H 0.80781 0.22561 0.90471 0.0
H2715 H 0.81105 0.21033 0.93293 0.0
C2716 C 0.11506 0.50952 0.25438 0.0
C2717 C 0.13089 0.50429 0.25607 0.0
C2718 C 0.10585 0.51054 0.23627 0.0
C2719 C 0.11105 0.51431 0.1846 0.0
H2720 H 0.06134 0.50119 0.17509 0.0
C2721 C 0.0701 0.52711 0.11384 0.0
C2722 C 0.0545 0.51382 0.10603 0.0
C2723 C 0.0797 0.52614 0.13181 0.0
C2724 C 0.07523 0.50484 0.17729 0.0
H2725 H 0.14908 0.49596 0.23919 0.0
H2726 H 0.13316 0.49762 0.20797 0.0
H2727 H 0.07688 0.49858 0.20608 0.0
H2728 H 0.03711 0.48895 0.11143 0.0
H2729 H 0.05353 0.48727 0.14222 0.0
H2730 H 0.10934 0.52043 0.15568 0.0
C2731 C 0.12784 0.50111 0.2207 0.0
C2732 C 0.08425 0.50353 0.19537 0.0
C2733 C 0.13697 0.49995 0.23878 0.0
C2734 C 0.04897 0.49954 0.11681 0.0
C2735 C 0.05843 0.49865 0.13473 0.0
C2736 C 0.10202 0.51578 0.16655 0.0
C2737 C 0.11211 0.50655 0.21899 0.0
C2738 C 0.10238 0.50814 0.19946 0.0
C2739 C 0.07397 0.51196 0.14277 0.0
C2740 C 0.08387 0.51096 0.16241 0.0
H2741 H 0.10985 0.51317 0.26714 0.0
H2742 H 0.09396 0.51497 0.23592 0.0
H2743 H 0.12495 0.51826 0.18695 0.0
H2744 H 0.0748 0.53845 0.10621 0.0
H2745 H 0.09147 0.53682 0.13732 0.0
C2746 C 0.807 0.84129 0.50504 0.0
C2747 C 0.80159 0.85769 0.51045 0.0
C2748 C 0.80396 0.83283 0.4858 0.0
C2749 C 0.77943 0.83229 0.43719 0.0
H2750 H 0.81674 0.81321 0.42035 0.0
C2751 C 0.8054 0.80838 0.36266 0.0
C2752 C 0.78995 0.79793 0.35103 0.0
C2753 C 0.80591 0.81511 0.38202 0.0
C2754 C 0.80623 0.8186 0.42471 0.0
H2755 H 0.78826 0.87776 0.49993 0.0
H2756 H 0.78332 0.86331 0.4662 0.0
H2757 H 0.81895 0.82603 0.4539 0.0
H2758 H 0.76286 0.78634 0.35075 0.0
H2759 H 0.76381 0.79775 0.38468 0.0
H2760 H 0.76707 0.82552 0.40771 0.0
C2761 C 0.78966 0.85674 0.47688 0.0
C2762 C 0.80738 0.82571 0.4441 0.0
C2763 C 0.79253 0.86509 0.49623 0.0
C2764 C 0.77498 0.7944 0.35926 0.0
C2765 C 0.77551 0.80104 0.37872 0.0
C2766 C 0.77834 0.82526 0.41771 0.0
C2767 C 0.79564 0.84069 0.47136 0.0
C2768 C 0.79402 0.83269 0.45065 0.0
C2769 C 0.791 0.81145 0.39038 0.0
C2770 C 0.79178 0.81843 0.41119 0.0
H2771 H 0.81385 0.8351 0.51567 0.0
H2772 H 0.80836 0.82022 0.48223 0.0
H2773 H 0.76881 0.83735 0.44169 0.0
H2774 H 0.81716 0.81155 0.35679 0.0
H2775 H 0.81801 0.8234 0.39037 0.0
C2776 C 0.47481 0.50452 0.82479 0.0
C2777 C 0.46516 0.51628 0.81702 0.0
C2778 C 0.48262 0.50848 0.84409 0.0
C2779 C 0.48064 0.5355 0.89113 0.0
H2780 H 0.52275 0.52055 0.90681 0.0
C2781 C 0.51563 0.54784 0.97062 0.0
C2782 C 0.51923 0.53156 0.97683 0.0
C2783 C 0.51015 0.54796 0.95108 0.0
C2784 C 0.51098 0.5248 0.90263 0.0
H2785 H 0.45653 0.54176 0.8234 0.0
H2786 H 0.47063 0.54905 0.85703 0.0
H2787 H 0.51158 0.51783 0.87273 0.0
H2788 H 0.52032 0.50285 0.96732 0.0
H2789 H 0.51113 0.50324 0.93332 0.0
H2790 H 0.48029 0.54266 0.92123 0.0
C2791 C 0.47183 0.53647 0.84829 0.0
C2792 C 0.50449 0.52315 0.88309 0.0
C2793 C 0.46383 0.53238 0.82895 0.0
C2794 C 0.51759 0.51559 0.96305 0.0
C2795 C 0.51242 0.51583 0.94355 0.0
C2796 C 0.48729 0.53741 0.91071 0.0
C2797 C 0.48121 0.52446 0.85618 0.0
C2798 C 0.489 0.52805 0.87702 0.0
C2799 C 0.50851 0.53195 0.93736 0.0
C2800 C 0.50234 0.53171 0.91666 0.0
H2801 H 0.47599 0.49191 0.81608 0.0
H2802 H 0.48937 0.49863 0.84961 0.0
H2803 H 0.46859 0.53923 0.88712 0.0
H2804 H 0.51671 0.56036 0.98087 0.0
H2805 H 0.50728 0.5606 0.94669 0.0
C2806 C 0.83088 0.20045 0.15161 0.0
C2807 C 0.83587 0.18351 0.15274 0.0
C2808 C 0.83327 0.21385 0.16801 0.0
C2809 C 0.83521 0.21618 0.21957 0.0
H2810 H 0.84601 0.2701 0.22014 0.0
C2811 C 0.83002 0.26561 0.28558 0.0
C2812 C 0.82152 0.27975 0.282 0.0
C2813 C 0.83577 0.25588 0.27079 0.0
C2814 C 0.84291 0.25508 0.22017 0.0
H2815 H 0.84816 0.16782 0.17179 0.0
H2816 H 0.8523 0.19129 0.20051 0.0
H2817 H 0.84934 0.24918 0.1922 0.0
H2818 H 0.81304 0.29555 0.26055 0.0
H2819 H 0.82271 0.27817 0.23434 0.0
H2820 H 0.82813 0.22183 0.24703 0.0
C2821 C 0.84638 0.19407 0.18691 0.0
C2822 C 0.84487 0.24312 0.20422 0.0
C2823 C 0.84406 0.18066 0.17046 0.0
C2824 C 0.8196 0.2847 0.2636 0.0
C2825 C 0.82521 0.27479 0.24866 0.0
C2826 C 0.83319 0.22808 0.23542 0.0
C2827 C 0.84065 0.2106 0.18592 0.0
C2828 C 0.84075 0.22353 0.20364 0.0
C2829 C 0.83296 0.25993 0.25201 0.0
C2830 C 0.83674 0.24765 0.23581 0.0
H2831 H 0.82464 0.20316 0.13815 0.0
H2832 H 0.82856 0.22635 0.1668 0.0
H2833 H 0.83163 0.20113 0.21944 0.0
H2834 H 0.8318 0.2617 0.29976 0.0
H2835 H 0.84201 0.24482 0.27398 0.0
C2836 C 0.11725 0.53643 0.37022 0.0
C2837 C 0.12686 0.52302 0.36638 0.0
C2838 C 0.10953 0.53767 0.3869 0.0
C2839 C 0.10953 0.52207 0.4362 0.0
H2840 H 0.06775 0.53946 0.43431 0.0
C2841 C 0.07831 0.53539 0.50593 0.0
C2842 C 0.06028 0.53259 0.50393 0.0
C2843 C 0.08668 0.53439 0.48965 0.0
C2844 C 0.07933 0.53439 0.4353 0.0
H2845 H 0.13562 0.50034 0.37783 0.0
H2846 H 0.12215 0.50227 0.40651 0.0
H2847 H 0.08102 0.53684 0.40584 0.0
H2848 H 0.03722 0.52634 0.48244 0.0
H2849 H 0.05146 0.52444 0.45463 0.0
H2850 H 0.10756 0.51924 0.46562 0.0
C2851 C 0.12068 0.51214 0.39676 0.0
C2852 C 0.08721 0.53313 0.41876 0.0
C2853 C 0.1284 0.5109 0.38004 0.0
C2854 C 0.05107 0.52876 0.48493 0.0
C2855 C 0.05939 0.52778 0.46873 0.0
C2856 C 0.10164 0.52337 0.4528 0.0
C2857 C 0.11101 0.52556 0.40065 0.0
C2858 C 0.10252 0.52691 0.41871 0.0
C2859 C 0.07742 0.53059 0.47058 0.0
C2860 C 0.08627 0.5295 0.45279 0.0
H2861 H 0.11572 0.54616 0.36032 0.0
H2862 H 0.10259 0.54848 0.3891 0.0
H2863 H 0.12133 0.51743 0.43727 0.0
H2864 H 0.08604 0.53836 0.52013 0.0
H2865 H 0.10053 0.53688 0.49211 0.0
C2866 C 0.81363 0.8543 0.6186 0.0
C2867 C 0.80531 0.86895 0.61668 0.0
C2868 C 0.812 0.84424 0.63393 0.0
C2869 C 0.78341 0.82834 0.66652 0.0
H2870 H 0.82393 0.82449 0.70032 0.0
C2871 C 0.78225 0.77638 0.7216 0.0
C2872 C 0.78915 0.785 0.74067 0.0
C2873 C 0.78459 0.78649 0.70638 0.0
C2874 C 0.81253 0.82543 0.69096 0.0
H2875 H 0.78855 0.88432 0.62924 0.0
H2876 H 0.78521 0.86621 0.6557 0.0
H2877 H 0.82709 0.84258 0.6738 0.0
H2878 H 0.80415 0.81085 0.75866 0.0
H2879 H 0.8089 0.8282 0.73196 0.0
H2880 H 0.76886 0.81081 0.68337 0.0
C2881 C 0.79319 0.86277 0.64543 0.0
C2882 C 0.81433 0.83571 0.67579 0.0
C2883 C 0.79516 0.87316 0.63035 0.0
C2884 C 0.79886 0.80375 0.74413 0.0
C2885 C 0.80154 0.8137 0.72887 0.0
C2886 C 0.78162 0.81768 0.6814 0.0
C2887 C 0.80169 0.84829 0.64743 0.0
C2888 C 0.79978 0.83736 0.6635 0.0
C2889 C 0.7942 0.80527 0.70987 0.0
C2890 C 0.79616 0.8162 0.69382 0.0
H2891 H 0.82161 0.85075 0.60838 0.0
H2892 H 0.81862 0.83309 0.63509 0.0
H2893 H 0.772 0.82932 0.65719 0.0
H2894 H 0.77463 0.762 0.71847 0.0
H2895 H 0.77886 0.77964 0.69185 0.0
C2896 C 0.70459 0.39426 0.56316 0.0
C2897 C 0.71917 0.39428 0.57631 0.0
C2898 C 0.69145 0.40162 0.56934 0.0
C2899 C 0.68695 0.43734 0.60761 0.0
H2900 H 0.64039 0.42518 0.57956 0.0
C2901 C 0.65014 0.4932 0.59427 0.0
C2902 C 0.63214 0.48831 0.59083 0.0
C2903 C 0.65923 0.47976 0.59828 0.0
C2904 C 0.65321 0.42863 0.58793 0.0
H2905 H 0.73066 0.40008 0.60648 0.0
H2906 H 0.70748 0.4124 0.61736 0.0
H2907 H 0.65796 0.40272 0.57571 0.0
H2908 H 0.6095 0.46621 0.59056 0.0
H2909 H 0.62536 0.44281 0.59809 0.0
H2910 H 0.68225 0.46331 0.61971 0.0
C2911 C 0.70643 0.40732 0.60219 0.0
C2912 C 0.66337 0.41581 0.5855 0.0
C2913 C 0.71967 0.40018 0.59597 0.0
C2914 C 0.6234 0.4702 0.5929 0.0
C2915 C 0.63248 0.45681 0.59713 0.0
C2916 C 0.67674 0.45006 0.6102 0.0
C2917 C 0.69255 0.40893 0.58885 0.0
C2918 C 0.6806 0.42037 0.59464 0.0
C2919 C 0.65049 0.46123 0.59914 0.0
C2920 C 0.66 0.44622 0.59974 0.0
H2921 H 0.70384 0.38979 0.54792 0.0
H2922 H 0.68105 0.40275 0.5586 0.0
H2923 H 0.70019 0.44142 0.61485 0.0
H2924 H 0.65715 0.50705 0.59263 0.0
H2925 H 0.67307 0.48364 0.59949 0.0
C2926 C 0.21582 0.09507 0.52385 0.0
C2927 C 0.2186 0.11327 0.51904 0.0
C2928 C 0.19919 0.08477 0.52456 0.0
C2929 C 0.15253 0.08366 0.51024 0.0
H2930 H 0.14672 0.05267 0.55007 0.0
C2931 C 0.08578 0.05297 0.52974 0.0
C2932 C 0.08222 0.03408 0.5324 0.0
C2933 C 0.10239 0.0624 0.52794 0.0
C2934 C 0.14812 0.06115 0.53877 0.0
H2935 H 0.20581 0.13471 0.51091 0.0
H2936 H 0.17712 0.1171 0.51256 0.0
H2937 H 0.1755 0.06907 0.54669 0.0
H2938 H 0.09322 1.01021 0.53526 0.0
H2939 H 0.12228 0.02668 0.53243 0.0
H2940 H 0.12506 0.07601 0.50266 0.0
C2941 C 0.18767 0.11049 0.51541 0.0
C2942 C 0.16467 0.07052 0.53674 0.0
C2943 C 0.20424 0.1207 0.51454 0.0
C2944 C 0.09563 0.02482 0.53336 0.0
C2945 C 0.11228 0.03429 0.53181 0.0
C2946 C 0.13597 0.07445 0.51241 0.0
C2947 C 0.18486 0.09243 0.52063 0.0
C2948 C 0.16717 0.08196 0.52245 0.0
C2949 C 0.11588 0.05317 0.52894 0.0
C2950 C 0.13354 0.06308 0.52671 0.0
H2951 H 0.22653 0.08884 0.52736 0.0
H2952 H 0.19761 0.07079 0.52826 0.0
H2953 H 0.15381 0.09199 0.49882 0.0
H2954 H 0.07564 0.0603 0.52851 0.0
H2955 H 0.10469 0.07695 0.52583 0.0
C2956 C 0.19471 0.98274 0.80493 0.0
C2957 C 0.17922 0.98476 0.81066 0.0
C2958 C 0.20213 0.96838 0.81018 0.0
C2959 C 0.19281 0.92145 0.82231 0.0
H2960 H 0.2412 0.93403 0.84454 0.0
C2961 C 0.23632 0.86869 0.82287 0.0
C2962 C 0.24832 0.87026 0.83966 0.0
C2963 C 0.22602 0.88151 0.82134 0.0
C2964 C 0.22764 0.9303 0.83853 0.0
H2965 H 0.15923 0.97318 0.8262 0.0
H2966 H 0.1721 0.94764 0.83503 0.0
H2967 H 0.22705 0.95908 0.83805 0.0
H2968 H 0.25793 0.88583 0.8685 0.0
H2969 H 0.24029 0.90846 0.86556 0.0
H2970 H 0.1936 0.89258 0.8222 0.0
C2971 C 0.1785 0.95736 0.82661 0.0
C2972 C 0.21959 0.94462 0.8347 0.0
C2973 C 0.1712 0.97199 0.82163 0.0
C2974 C 0.24915 0.88445 0.85518 0.0
C2975 C 0.239 0.89737 0.85356 0.0
C2976 C 0.20095 0.90706 0.82586 0.0
C2977 C 0.1941 0.95554 0.82103 0.0
C2978 C 0.20215 0.94034 0.82638 0.0
C2979 C 0.2276 0.89628 0.83648 0.0
C2980 C 0.21848 0.91136 0.83388 0.0
H2981 H 0.20123 0.99237 0.7965 0.0
H2982 H 0.21409 0.96718 0.80556 0.0
H2983 H 0.17937 0.9178 0.81579 0.0
H2984 H 0.23543 0.85811 0.81053 0.0
H2985 H 0.21743 0.88043 0.80794 0.0
C2986 C 0.30843 0.86881 0.96696 0.0
C2987 C 0.29295 0.8745 0.96599 0.0
C2988 C 0.32317 0.88075 0.96335 0.0
C2989 C 0.34042 0.93165 0.96764 0.0
H2990 H 0.3809 0.91613 0.95547 0.0
C2991 C 0.40733 0.98311 0.98014 0.0
C2992 C 0.42013 0.97702 0.99131 0.0
C2993 C 0.39151 0.97071 0.97229 0.0
C2994 C 0.36964 0.92065 0.95879 0.0
H2995 H 0.28017 0.89597 0.95805 0.0
H2996 H 0.30573 0.91646 0.95092 0.0
H2997 H 0.35294 0.89357 0.94757 0.0
H2998 H 0.42622 0.95304 1.00298 0.0
H2999 H 0.39872 0.93137 0.98894 0.0
H3000 H 0.3572 0.95863 0.97911 0.0
C3001 C 0.30671 0.90318 0.95531 0.0
C3002 C 0.35365 0.90775 0.95432 0.0
C3003 C 0.29202 0.89137 0.95925 0.0
C3004 C 0.41679 0.95816 0.99421 0.0
C3005 C 0.40106 0.94572 0.98616 0.0
C3006 C 0.35634 0.94458 0.97184 0.0
C3007 C 0.32266 0.89849 0.95838 0.0
C3008 C 0.33893 0.91291 0.95932 0.0
C3009 C 0.38825 0.95191 0.97522 0.0
C3010 C 0.37117 0.93902 0.96804 0.0
H3011 H 0.30955 0.85586 0.97207 0.0
H3012 H 0.33519 0.87662 0.96597 0.0
H3013 H 0.3295 0.93614 0.97204 0.0
H3014 H 0.40957 0.99742 0.97726 0.0
H3015 H 0.38183 0.97579 0.96385 0.0
C3016 C 0.85943 0.59466 0.76198 0.0
C3017 C 0.87231 0.59286 0.77672 0.0
C3018 C 0.85213 0.61053 0.76288 0.0
C3019 C 0.85833 0.66083 0.78982 0.0
H3020 H 0.8121 0.65558 0.76332 0.0
C3021 C 0.82827 0.72725 0.78597 0.0
C3022 C 0.8103 0.72504 0.78432 0.0
C3023 C 0.83585 0.71155 0.78501 0.0
C3024 C 0.82499 0.65756 0.77105 0.0
H3025 H 0.88728 0.60725 0.8042 0.0
H3026 H 0.87463 0.63445 0.80595 0.0
H3027 H 0.82454 0.62848 0.76226 0.0
H3028 H 0.78652 0.70359 0.78037 0.0
H3029 H 0.79942 0.67673 0.77889 0.0
H3030 H 0.85862 0.68985 0.79895 0.0
C3031 C 0.8702 0.6237 0.79336 0.0
C3032 C 0.83237 0.64175 0.77019 0.0
C3033 C 0.87749 0.6078 0.79244 0.0
C3034 C 0.80034 0.70628 0.78161 0.0
C3035 C 0.80788 0.6906 0.78064 0.0
C3036 C 0.85095 0.67667 0.79065 0.0
C3037 C 0.85727 0.62557 0.7786 0.0
C3038 C 0.84927 0.64286 0.77956 0.0
C3039 C 0.82588 0.69271 0.78232 0.0
C3040 C 0.83403 0.67554 0.78131 0.0
H3041 H 0.85497 0.58374 0.74951 0.0
H3042 H 0.84254 0.61103 0.75091 0.0
H3043 H 0.87137 0.66289 0.79717 0.0
H3044 H 0.83662 0.74121 0.78798 0.0
H3045 H 0.84966 0.71431 0.78614 0.0
C3046 C 0.82436 0.61818 0.02011 0.0
C3047 C 0.81244 0.6132 0.03234 0.0
C3048 C 0.83904 0.61093 0.02067 0.0
C3049 C 0.85693 0.57209 0.03703 0.0
H3050 H 0.90106 0.60469 0.03502 0.0
C3051 C 0.91986 0.54959 0.05746 0.0
C3052 C 0.933 0.55385 0.04651 0.0
C3053 C 0.90549 0.55718 0.05499 0.0
C3054 C 0.88882 0.59531 0.03537 0.0
H3055 H 0.80667 0.59652 0.05466 0.0
H3056 H 0.83206 0.58402 0.05567 0.0
H3057 H 0.87527 0.61683 0.03156 0.0
H3058 H 0.94132 0.5699 0.02459 0.0
H3059 H 0.91618 0.58317 0.02025 0.0
H3060 H 0.87036 0.55059 0.0409 0.0
C3061 C 0.83006 0.59335 0.04546 0.0
C3062 C 0.87399 0.60228 0.03337 0.0
C3063 C 0.81548 0.60063 0.04495 0.0
C3064 C 0.93154 0.56638 0.03336 0.0
C3065 C 0.91709 0.57399 0.03087 0.0
C3066 C 0.8717 0.56513 0.03901 0.0
C3067 C 0.84212 0.59844 0.03341 0.0
C3068 C 0.85785 0.59083 0.03441 0.0
C3069 C 0.90373 0.56929 0.04148 0.0
C3070 C 0.88792 0.57668 0.03847 0.0
H3071 H 0.82247 0.62786 0.01025 0.0
H3072 H 0.84792 0.61504 0.01104 0.0
H3073 H 0.84472 0.56269 0.0375 0.0
H3074 H 0.92069 0.54037 0.06805 0.0
H3075 H 0.89576 0.55359 0.06381 0.0
C3076 C 0.20067 0.08625 0.8075 0.0
C3077 C 0.18478 0.08503 0.81372 0.0
C3078 C 0.21195 0.10371 0.80824 0.0
C3079 C 0.22608 0.14199 0.79786 0.0
H3080 H 0.23598 0.18245 0.84121 0.0
C3081 C 0.25999 0.21765 0.79224 0.0
C3082 C 0.27351 0.22703 0.80719 0.0
C3083 C 0.24904 0.20073 0.79408 0.0
C3084 C 0.23338 0.17125 0.82904 0.0
H3085 H 0.16864 0.10127 0.82634 0.0
H3086 H 0.18841 0.13181 0.82766 0.0
H3087 H 0.2176 0.1518 0.84313 0.0
H3088 H 0.2861 0.2263 0.83586 0.0
H3089 H 0.26689 0.1966 0.83913 0.0
H3090 H 0.2418 0.1613 0.78376 0.0
C3091 C 0.1921 0.11919 0.82223 0.0
C3092 C 0.22277 0.15377 0.83008 0.0
C3093 C 0.18075 0.10169 0.82139 0.0
C3094 C 0.27574 0.21934 0.82414 0.0
C3095 C 0.2647 0.20242 0.82604 0.0
C3096 C 0.23653 0.15946 0.79677 0.0
C3097 C 0.20767 0.12039 0.8153 0.0
C3098 C 0.21905 0.13895 0.8145 0.0
C3099 C 0.25137 0.19282 0.81091 0.0
C3100 C 0.24028 0.17429 0.81231 0.0
H3101 H 0.20427 0.07372 0.8016 0.0
H3102 H 0.22397 0.10416 0.80307 0.0
H3103 H 0.2233 0.13093 0.78553 0.0
H3104 H 0.25802 0.22323 0.77897 0.0
H3105 H 0.23877 0.19378 0.78227 0.0
C3106 C 0.38454 0.97837 0.28861 0.0
C3107 C 0.376 0.99275 0.2854 0.0
C3108 C 0.37552 0.95979 0.28877 0.0
C3109 C 0.33369 0.92988 0.29552 0.0
H3110 H 0.35123 0.88907 0.27283 0.0
C3111 C 0.31074 0.85199 0.30947 0.0
C3112 C 0.30888 0.83695 0.29437 0.0
C3113 C 0.31789 0.87082 0.30757 0.0
C3114 C 0.346 0.90017 0.27918 0.0
H3115 H 0.3507 0.99808 0.27992 0.0
H3116 H 0.33487 0.96557 0.28057 0.0
H3117 H 0.36488 0.92151 0.27069 0.0
H3118 H 0.31334 0.83056 0.26522 0.0
H3119 H 0.32594 0.86313 0.26201 0.0
H3120 H 0.3149 0.90846 0.3042 0.0
C3121 C 0.34877 0.96888 0.2829 0.0
C3122 C 0.35399 0.91898 0.27809 0.0
C3123 C 0.35787 0.98761 0.28243 0.0
C3124 C 0.31451 0.84155 0.27726 0.0
C3125 C 0.32186 0.86038 0.27545 0.0
C3126 C 0.32583 0.91104 0.29686 0.0
C3127 C 0.35745 0.95455 0.28595 0.0
C3128 C 0.3481 0.93428 0.28632 0.0
C3129 C 0.3237 0.87546 0.29056 0.0
C3130 C 0.33185 0.89576 0.28877 0.0
H3131 H 0.39843 0.9814 0.29093 0.0
H3132 H 0.38286 0.9495 0.29144 0.0
H3133 H 0.32871 0.94107 0.30217 0.0
H3134 H 0.30661 0.84925 0.32289 0.0
H3135 H 0.31914 0.88176 0.31968 0.0
C3136 C 0.55953 0.3493 0.63083 0.0
C3137 C 0.56923 0.33763 0.62292 0.0
C3138 C 0.55698 0.365 0.62262 0.0
C3139 C 0.55671 0.38464 0.57734 0.0
H3140 H 0.56328 0.43264 0.61004 0.0
C3141 C 0.53831 0.44983 0.5498 0.0
C3142 C 0.55026 0.46727 0.55603 0.0
C3143 C 0.54059 0.4338 0.55753 0.0
C3144 C 0.56144 0.41935 0.60069 0.0
H3145 H 0.58366 0.33326 0.59996 0.0
H3146 H 0.57897 0.36039 0.58552 0.0
H3147 H 0.56708 0.40512 0.62439 0.0
H3148 H 0.57394 0.48143 0.57546 0.0
H3149 H 0.57776 0.4536 0.58901 0.0
H3150 H 0.55102 0.39887 0.55364 0.0
C3151 C 0.57337 0.35744 0.59811 0.0
C3152 C 0.56347 0.40354 0.60894 0.0
C3153 C 0.57613 0.34193 0.60646 0.0
C3154 C 0.56456 0.46823 0.57015 0.0
C3155 C 0.56669 0.45229 0.57807 0.0
C3156 C 0.55444 0.4004 0.56911 0.0
C3157 C 0.56384 0.36925 0.60612 0.0
C3158 C 0.56123 0.38599 0.59737 0.0
C3159 C 0.55472 0.43488 0.57192 0.0
C3160 C 0.55687 0.41799 0.58067 0.0
H3161 H 0.55404 0.34643 0.6435 0.0
H3162 H 0.54946 0.37371 0.62907 0.0
H3163 H 0.55477 0.37132 0.56801 0.0
H3164 H 0.52714 0.44856 0.53898 0.0
H3165 H 0.53106 0.42065 0.55255 0.0
C3166 C 0.46179 0.77845 0.37795 0.0
C3167 C 0.46519 0.76219 0.38436 0.0
C3168 C 0.44513 0.77892 0.36999 0.0
C3169 C 0.39884 0.75288 0.36511 0.0
H3170 H 0.39237 0.78577 0.3278 0.0
C3171 C 0.33336 0.75035 0.31774 0.0
C3172 C 0.32896 0.76762 0.31681 0.0
C3173 C 0.34955 0.74973 0.32711 0.0
C3174 C 0.39398 0.77664 0.33834 0.0
H3175 H 0.45366 0.73346 0.38698 0.0
H3176 H 0.42472 0.73383 0.37214 0.0
H3177 H 0.42125 0.78376 0.34048 0.0
H3178 H 0.338 0.7978 0.32523 0.0
H3179 H 0.3666 0.79676 0.34115 0.0
H3180 H 0.37131 0.74519 0.36206 0.0
C3181 C 0.43481 0.74655 0.37386 0.0
C3182 C 0.41061 0.77551 0.34575 0.0
C3183 C 0.45149 0.74622 0.38221 0.0
C3184 C 0.34101 0.78429 0.32577 0.0
C3185 C 0.35739 0.78369 0.33478 0.0
C3186 C 0.38218 0.75373 0.35737 0.0
C3187 C 0.4313 0.76299 0.36777 0.0
C3188 C 0.41338 0.76372 0.3594 0.0
C3189 C 0.36189 0.7664 0.33542 0.0
C3190 C 0.37957 0.76571 0.34399 0.0
H3191 H 0.47196 0.79112 0.37961 0.0
H3192 H 0.44312 0.79203 0.36602 0.0
H3193 H 0.40024 0.74389 0.37581 0.0
H3194 H 0.32431 0.73729 0.31098 0.0
H3195 H 0.35265 0.73621 0.32729 0.0
C3196 C 0.06634 0.73403 0.10905 0.0
C3197 C 0.05564 0.73836 0.12204 0.0
C3198 C 0.06451 0.71539 0.10042 0.0
C3199 C 0.03464 0.66851 0.08797 0.0
H3200 H 0.07559 0.64941 0.09403 0.0
C3201 C 0.03063 0.58869 0.07412 0.0
C3202 C 0.04427 0.58235 0.06756 0.0
C3203 C 0.03186 0.60793 0.07923 0.0
C3204 C 0.06403 0.65448 0.0918 0.0
H3205 H 0.03411 0.72659 0.13542 0.0
H3206 H 0.03063 0.69422 0.11993 0.0
H3207 H 0.07767 0.6826 0.10463 0.0
H3208 H 0.06975 0.5914 0.06072 0.0
H3209 H 0.07166 0.62491 0.06885 0.0
H3210 H 0.02098 0.64061 0.07483 0.0
C3211 C 0.04054 0.7052 0.11658 0.0
C3212 C 0.06526 0.67357 0.09798 0.0
C3213 C 0.04257 0.72375 0.12549 0.0
C3214 C 0.05906 0.59577 0.06589 0.0
C3215 C 0.06018 0.61505 0.0707 0.0
C3216 C 0.03344 0.64948 0.08149 0.0
C3217 C 0.05172 0.70074 0.10429 0.0
C3218 C 0.05055 0.68075 0.09637 0.0
C3219 C 0.04666 0.62147 0.07763 0.0
C3220 C 0.04808 0.64206 0.08355 0.0
H3221 H 0.07661 0.74492 0.10617 0.0
H3222 H 0.07324 0.7124 0.0909 0.0
H3223 H 0.0231 0.67368 0.08637 0.0
H3224 H 0.01909 0.57877 0.07575 0.0
H3225 H 0.02128 0.61211 0.08485 0.0
C3226 C 0.05365 0.2431 0.86946 0.0
C3227 C 0.05276 0.25393 0.88684 0.0
C3228 C 0.06863 0.24635 0.86138 0.0
C3229 C 0.11552 0.26636 0.87372 0.0
H3230 H 0.11247 0.26332 0.81855 0.0
C3231 C 0.17642 0.27815 0.83746 0.0
C3232 C 0.17553 0.2661 0.82018 0.0
C3233 C 0.16163 0.27845 0.84561 0.0
C3234 C 0.1136 0.26403 0.83397 0.0
H3235 H 0.06703 0.27685 0.90927 0.0
H3236 H 0.09325 0.28251 0.89516 0.0
H3237 H 0.08649 0.26051 0.83266 0.0
H3238 H 0.15808 0.24543 0.79766 0.0
H3239 H 0.13261 0.24559 0.81199 0.0
H3240 H 0.14261 0.26947 0.875 0.0
C3241 C 0.08232 0.27142 0.88783 0.0
C3242 C 0.09865 0.26245 0.84208 0.0
C3243 C 0.06724 0.26826 0.89585 0.0
C3244 C 0.15938 0.25469 0.81112 0.0
C3245 C 0.14465 0.25498 0.81924 0.0
C3246 C 0.1305 0.26784 0.86559 0.0
C3247 C 0.08323 0.26047 0.87049 0.0
C3248 C 0.09936 0.26336 0.86205 0.0
C3249 C 0.14553 0.26677 0.83667 0.0
C3250 C 0.12974 0.26645 0.84556 0.0
H3251 H 0.04279 0.23192 0.86212 0.0
H3252 H 0.0689 0.23747 0.84817 0.0
H3253 H 0.11656 0.26695 0.88913 0.0
H3254 H 0.18861 0.28705 0.84495 0.0
H3255 H 0.16283 0.28789 0.85892 0.0
C3256 C 0.56468 0.76786 0.9345 0.0
C3257 C 0.55166 0.76943 0.92003 0.0
C3258 C 0.5648 0.75059 0.94036 0.0
C3259 C 0.53675 0.70483 0.94219 0.0
H3260 H 0.58017 0.69163 0.95541 0.0
C3261 C 0.54128 0.63774 0.97432 0.0
C3262 C 0.55364 0.64094 0.99106 0.0
C3263 C 0.54124 0.65158 0.96262 0.0
C3264 C 0.56795 0.69513 0.95177 0.0
H3265 H 0.52854 0.75408 0.90029 0.0
H3266 H 0.52878 0.72373 0.91057 0.0
H3267 H 0.5794 0.71936 0.94031 0.0
H3268 H 0.57609 0.66067 0.00824 0.0
H3269 H 0.57601 0.68485 0.98788 0.0
H3270 H 0.52538 0.6808 0.95406 0.0
C3271 C 0.53884 0.73596 0.91742 0.0
C3272 C 0.56751 0.71101 0.94317 0.0
C3273 C 0.53873 0.75331 0.91151 0.0
C3274 C 0.56633 0.65791 0.9955 0.0
C3275 C 0.56638 0.67166 0.98375 0.0
C3276 C 0.53719 0.68889 0.95076 0.0
C3277 C 0.55191 0.73444 0.93189 0.0
C3278 C 0.55198 0.71631 0.93875 0.0
C3279 C 0.55366 0.66877 0.96737 0.0
C3280 C 0.55287 0.68417 0.95606 0.0
H3281 H 0.57481 0.78001 0.94141 0.0
H3282 H 0.57486 0.74998 0.95181 0.0
H3283 H 0.52461 0.70863 0.9391 0.0
H3284 H 0.53127 0.62483 0.97064 0.0
H3285 H 0.53137 0.64894 0.95001 0.0
C3286 C 0.1212 0.77672 0.75299 0.0
C3287 C 0.11327 0.78497 0.73866 0.0
C3288 C 0.13908 0.78047 0.75733 0.0
C3289 C 0.17969 0.81191 0.75099 0.0
H3290 H 0.19675 0.767 0.75292 0.0
C3291 C 0.2508 0.81189 0.77527 0.0
C3292 C 0.25694 0.79705 0.76668 0.0
C3293 C 0.23373 0.81256 0.7701 0.0
C3294 C 0.1922 0.77965 0.75217 0.0
H3295 H 0.11792 0.8047 0.71866 0.0
H3296 H 0.14906 0.81111 0.7262 0.0
H3297 H 0.16605 0.76455 0.74948 0.0
H3298 H 0.25041 0.77236 0.74457 0.0
H3299 H 0.22069 0.77376 0.7353 0.0
H3300 H 0.20595 0.82696 0.75349 0.0
C3301 C 0.14148 0.80177 0.73407 0.0
C3302 C 0.17462 0.77829 0.75054 0.0
C3303 C 0.12361 0.798 0.7297 0.0
C3304 C 0.24607 0.78387 0.75161 0.0
C3305 C 0.229 0.78457 0.74641 0.0
C3306 C 0.19734 0.81329 0.75268 0.0
C3307 C 0.14938 0.79257 0.74748 0.0
C3308 C 0.16817 0.79439 0.74998 0.0
C3309 C 0.22248 0.79847 0.75616 0.0
C3310 C 0.20376 0.79715 0.75326 0.0
H3311 H 0.11362 0.76672 0.76025 0.0
H3312 H 0.14485 0.77346 0.76801 0.0
H3313 H 0.17507 0.82457 0.75062 0.0
H3314 H 0.25887 0.82243 0.78678 0.0
H3315 H 0.22911 0.82345 0.77789 0.0
C3316 C 0.04195 0.34876 0.46453 0.0
C3317 C 0.04038 0.34756 0.44449 0.0
C3318 C 0.04118 0.36524 0.47593 0.0
C3319 C 0.04267 0.41582 0.47602 0.0
H3320 H 0.01584 0.40879 0.51684 0.0
C3321 C 0.02353 0.47751 0.51763 0.0
C3322 C 0.02742 0.47937 0.53774 0.0
C3323 C 0.02384 0.46093 0.50605 0.0
C3324 C 0.02343 0.41096 0.50556 0.0
H3325 H 0.03754 0.36293 0.42072 0.0
H3326 H 0.03588 0.39169 0.4406 0.0
H3327 H 0.02037 0.38147 0.49713 0.0
H3328 H 0.03346 0.46499 0.56154 0.0
H3329 H 0.03379 0.43585 0.54126 0.0
H3330 H 0.04552 0.44535 0.48439 0.0
C3331 C 0.03794 0.37997 0.44756 0.0
C3332 C 0.02613 0.39534 0.49432 0.0
C3333 C 0.03888 0.36349 0.43615 0.0
C3334 C 0.03043 0.46391 0.54608 0.0
C3335 C 0.03062 0.44726 0.53447 0.0
C3336 C 0.03986 0.43144 0.48718 0.0
C3337 C 0.03862 0.38085 0.46753 0.0
C3338 C 0.03587 0.39757 0.47948 0.0
C3339 C 0.02788 0.44584 0.51434 0.0
C3340 C 0.03025 0.42917 0.50209 0.0
H3341 H 0.04328 0.33676 0.47139 0.0
H3342 H 0.04224 0.3656 0.49131 0.0
H3343 H 0.0504 0.41808 0.46489 0.0
H3344 H 0.02105 0.48917 0.51081 0.0
H3345 H 0.02136 0.46009 0.49058 0.0
C3346 C 0.51746 0.26544 0.2659 0.0
C3347 C 0.52285 0.27205 0.24953 0.0
C3348 C 0.50319 0.26997 0.27254 0.0
C3349 C 0.46309 0.28098 0.25439 0.0
H3350 H 0.46123 0.29784 0.3077 0.0
C3351 C 0.40357 0.30224 0.27556 0.0
C3352 C 0.39827 0.29719 0.29252 0.0
C3353 C 0.41942 0.30023 0.27134 0.0
C3354 C 0.46147 0.2929 0.29279 0.0
H3355 H 0.51794 0.28917 0.22773 0.0
H3356 H 0.49297 0.29688 0.23923 0.0
H3357 H 0.4881 0.29262 0.29879 0.0
H3358 H 0.40533 0.28628 0.31851 0.0
H3359 H 0.43291 0.28213 0.31088 0.0
H3360 H 0.4365 0.28062 0.24829 0.0
C3361 C 0.49974 0.28815 0.24685 0.0
C3362 C 0.47687 0.29001 0.28771 0.0
C3363 C 0.51407 0.28379 0.24033 0.0
C3364 C 0.4092 0.29032 0.30536 0.0
C3365 C 0.42501 0.28805 0.30101 0.0
C3366 C 0.44769 0.28364 0.25946 0.0
C3367 C 0.49399 0.28102 0.2628 0.0
C3368 C 0.47782 0.28416 0.26844 0.0
C3369 C 0.43025 0.29284 0.28386 0.0
C3370 C 0.4467 0.28978 0.2787 0.0
H3371 H 0.524 0.25642 0.27332 0.0
H3372 H 0.49896 0.26424 0.28483 0.0
H3373 H 0.4634 0.2761 0.23947 0.0
H3374 H 0.39548 0.30789 0.2656 0.0
H3375 H 0.4232 0.30452 0.25825 0.0
C3376 C 0.60297 0.54263 0.36164 0.0
C3377 C 0.61602 0.53488 0.35545 0.0
C3378 C 0.59713 0.53884 0.37864 0.0
C3379 C 0.59647 0.5062 0.4144 0.0
H3380 H 0.58455 0.54664 0.44569 0.0
C3381 C 0.55821 0.49421 0.47668 0.0
C3382 C 0.56132 0.50869 0.49246 0.0
C3383 C 0.56659 0.49679 0.46093 0.0
C3384 C 0.58804 0.53522 0.43733 0.0
H3385 H 0.63305 0.51687 0.36222 0.0
H3386 H 0.62307 0.51051 0.39214 0.0
H3387 H 0.5958 0.55238 0.41656 0.0
H3388 H 0.57626 0.53689 0.50457 0.0
H3389 H 0.59132 0.54118 0.47749 0.0
H3390 H 0.58905 0.48916 0.4355 0.0
C3391 C 0.61715 0.51931 0.38368 0.0
C3392 C 0.59425 0.53844 0.42038 0.0
C3393 C 0.62294 0.52302 0.36656 0.0
C3394 C 0.57359 0.52546 0.49261 0.0
C3395 C 0.58207 0.52799 0.47696 0.0
C3396 C 0.59034 0.50299 0.43146 0.0
C3397 C 0.60427 0.52732 0.39004 0.0
C3398 C 0.59835 0.52393 0.40854 0.0
C3399 C 0.57836 0.51388 0.46067 0.0
C3400 C 0.58589 0.51742 0.44308 0.0
H3401 H 0.59726 0.55172 0.35337 0.0
H3402 H 0.58692 0.54493 0.3828 0.0
H3403 H 0.59939 0.49464 0.40562 0.0
H3404 H 0.5488 0.48113 0.47615 0.0
H3405 H 0.56325 0.48565 0.44863 0.0
C3406 C 0.28559 0.86552 0.06593 0.0
C3407 C 0.2811 0.84895 0.05232 0.0
C3408 C 0.29524 0.86614 0.08395 0.0
C3409 C 0.32325 0.84104 0.11044 0.0
H3410 H 0.30347 0.85712 0.15429 0.0
C3411 C 0.3195 0.80407 0.17471 0.0
C3412 C 0.31862 0.81372 0.1927 0.0
C3413 C 0.32215 0.81373 0.15939 0.0
C3414 C 0.30957 0.8531 0.14234 0.0
H3415 H 0.28329 0.82007 0.04692 0.0
H3416 H 0.29983 0.82107 0.07836 0.0
H3417 H 0.29324 0.86405 0.12291 0.0
H3418 H 0.32179 0.84137 0.20929 0.0
H3419 H 0.32598 0.85825 0.18223 0.0
H3420 H 0.3388 0.82903 0.1297 0.0
C3421 C 0.29618 0.83369 0.075 0.0
C3422 C 0.30364 0.85702 0.12432 0.0
C3423 C 0.28649 0.83304 0.05707 0.0
C3424 C 0.32196 0.83348 0.19546 0.0
C3425 C 0.32447 0.84316 0.18004 0.0
C3426 C 0.32919 0.83714 0.12846 0.0
C3427 C 0.30066 0.85023 0.08861 0.0
C3428 C 0.30979 0.85016 0.10806 0.0
C3429 C 0.32385 0.83326 0.16168 0.0
C3430 C 0.32175 0.84226 0.14437 0.0
H3431 H 0.2817 0.87805 0.06267 0.0
H3432 H 0.29849 0.87904 0.09421 0.0
H3433 H 0.32848 0.83598 0.09817 0.0
H3434 H 0.31682 0.78886 0.17195 0.0
H3435 H 0.32137 0.80564 0.14538 0.0
C3436 C 0.94961 0.54468 0.86557 0.0
C3437 C 0.95378 0.53585 0.84872 0.0
C3438 C 0.95792 0.54348 0.88408 0.0
C3439 C 0.98798 0.5172 0.90962 0.0
H3440 H 0.98936 0.55437 0.9537 0.0
C3441 C 0.03324 0.52323 0.98287 0.0
C3442 C 0.02702 0.5263 1.00025 0.0
C3443 C 0.02357 0.52387 0.96503 0.0
C3444 C 0.989 0.54372 0.94161 0.0
H3445 H 0.97058 0.51916 0.83867 0.0
H3446 H 0.98554 0.51785 0.87032 0.0
H3447 H 0.97502 0.55712 0.92208 0.0
H3448 H 1.00543 0.5328 0.01212 0.0
H3449 H 0.98861 0.53439 0.98093 0.0
H3450 H 1.00257 0.50429 0.92919 0.0
C3451 C 0.97537 0.52518 0.8696 0.0
C3452 C 0.98063 0.54524 0.92323 0.0
C3453 C 0.96684 0.5261 0.85114 0.0
C3454 C 0.01064 0.53015 0.99911 0.0
C3455 C 1.00105 0.53121 0.98117 0.0
C3456 C 0.9966 0.51591 0.92789 0.0
C3457 C 0.97101 0.53362 0.88663 0.0
C3458 C 0.97993 0.53203 0.90667 0.0
C3459 C 1.00733 0.52804 0.96374 0.0
C3460 C 0.99734 0.52915 0.94429 0.0
H3461 H 0.93955 0.55219 0.86449 0.0
H3462 H 0.95369 0.55003 0.89638 0.0
H3463 H 0.98757 0.50626 0.89784 0.0
H3464 H 0.04579 0.52034 0.98304 0.0
H3465 H 0.02907 0.52152 0.95218 0.0
C3466 C 0.2704 0.19836 0.58186 0.0
C3467 C 0.28001 0.18496 0.57844 0.0
C3468 C 0.27187 0.20826 0.60036 0.0
C3469 C 0.29961 0.22444 0.64716 0.0
H3470 H 0.25737 0.21987 0.66793 0.0
C3471 C 0.30023 0.24806 0.72794 0.0
C3472 C 0.28626 0.25437 0.73358 0.0
C3473 C 0.29985 0.24071 0.70874 0.0
C3474 C 0.26929 0.22171 0.66235 0.0
H3475 H 0.29928 0.17209 0.59165 0.0
H3476 H 0.30224 0.18989 0.62386 0.0
H3477 H 0.25647 0.20597 0.63484 0.0
H3478 H 0.26114 0.25852 0.72336 0.0
H3479 H 0.26075 0.24664 0.68978 0.0
H3480 H 0.31247 0.24063 0.67432 0.0
C3481 C 0.29342 0.1925 0.61222 0.0
C3482 C 0.26874 0.2136 0.64335 0.0
C3483 C 0.29169 0.1823 0.5938 0.0
C3484 C 0.27205 0.25359 0.7195 0.0
C3485 C 0.2718 0.24661 0.70022 0.0
C3486 C 0.30015 0.2329 0.66606 0.0
C3487 C 0.28326 0.20528 0.61576 0.0
C3488 C 0.2839 0.21473 0.63563 0.0
C3489 C 0.2856 0.23983 0.69453 0.0
C3490 C 0.28501 0.23151 0.67405 0.0
H3491 H 0.26122 0.20068 0.57039 0.0
H3492 H 0.26396 0.2181 0.60269 0.0
H3493 H 0.31147 0.22563 0.64149 0.0
H3494 H 0.31133 0.24831 0.73846 0.0
H3495 H 0.3106 0.23534 0.70519 0.0
C3496 C 0.61976 0.52081 0.23369 0.0
C3497 C 0.61382 0.52871 0.24969 0.0
C3498 C 0.61103 0.51964 0.21506 0.0
C3499 C 0.58648 0.51126 0.17712 0.0
H3500 H 0.56904 0.55407 0.1653 0.0
C3501 C 0.55001 0.5125 0.10165 0.0
C3502 C 0.55343 0.52954 0.09435 0.0
C3503 C 0.5563 0.51178 0.12079 0.0
C3504 C 0.57394 0.54205 0.16831 0.0
H3505 H 0.59358 0.54095 0.25856 0.0
H3506 H 0.57816 0.53859 0.22603 0.0
H3507 H 0.58178 0.55345 0.19819 0.0
H3508 H 0.56624 0.55919 0.1016 0.0
H3509 H 0.57745 0.55787 0.13481 0.0
H3510 H 0.57924 0.50019 0.14713 0.0
C3511 C 0.58979 0.53363 0.22791 0.0
C3512 C 0.58103 0.54156 0.18726 0.0
C3513 C 0.59857 0.53484 0.24659 0.0
C3514 C 0.56329 0.54584 0.10671 0.0
C3515 C 0.56963 0.5451 0.12584 0.0
C3516 C 0.57944 0.51177 0.15817 0.0
C3517 C 0.59607 0.52628 0.21188 0.0
C3518 C 0.58753 0.52624 0.1919 0.0
C3519 C 0.56622 0.52806 0.13314 0.0
C3520 C 0.5732 0.52724 0.15347 0.0
H3521 H 0.63148 0.51598 0.23549 0.0
H3522 H 0.61639 0.51412 0.20311 0.0
H3523 H 0.59116 0.49913 0.18017 0.0
H3524 H 0.54241 0.49965 0.09261 0.0
H3525 H 0.5532 0.49847 0.12594 0.0
C3526 C 0.22631 0.7923 0.94068 0.0
C3527 C 0.23523 0.78915 0.95779 0.0
C3528 C 0.22388 0.7794 0.92382 0.0
C3529 C 0.24945 0.74848 0.90572 0.0
H3530 H 0.22157 0.7502 0.8575 0.0
C3531 C 0.27496 0.74029 0.83451 0.0
C3532 C 0.27452 0.756 0.82542 0.0
C3533 C 0.26508 0.73657 0.84888 0.0
C3534 C 0.22934 0.74934 0.87087 0.0
H3535 H 0.2459 0.76885 0.97168 0.0
H3536 H 0.24077 0.74582 0.94254 0.0
H3537 H 0.21077 0.75593 0.88752 0.0
H3538 H 0.263 0.77967 0.82346 0.0
H3539 H 0.24594 0.77333 0.84848 0.0
H3540 H 0.26835 0.74284 0.88919 0.0
C3541 C 0.23644 0.7586 0.94177 0.0
C3542 C 0.22319 0.75267 0.88806 0.0
C3543 C 0.23926 0.77171 0.95851 0.0
C3544 C 0.26368 0.76755 0.83038 0.0
C3545 C 0.2537 0.76374 0.84451 0.0
C3546 C 0.25549 0.74496 0.88855 0.0
C3547 C 0.2301 0.76303 0.92396 0.0
C3548 C 0.23364 0.75345 0.90579 0.0
C3549 C 0.25447 0.74839 0.85411 0.0
C3550 C 0.24593 0.74646 0.87109 0.0
H3551 H 0.22304 0.80565 0.93977 0.0
H3552 H 0.21887 0.78338 0.91047 0.0
H3553 H 0.25803 0.74906 0.91898 0.0
H3554 H 0.28317 0.73113 0.83081 0.0
H3555 H 0.26595 0.72469 0.85613 0.0
C3556 C 0.92872 0.54554 0.71999 0.0
C3557 C 0.9372 0.54434 0.73838 0.0
C3558 C 0.93668 0.54416 0.70346 0.0
C3559 C 0.98006 0.54706 0.68755 0.0
H3560 H 0.95284 0.52228 0.63829 0.0
C3561 C 0.01346 0.53287 0.62056 0.0
C3562 C 1.0047 0.53137 0.60162 0.0
C3563 C 1.00513 0.53432 0.63673 0.0
C3564 C 0.96079 0.52953 0.65175 0.0
H3565 H 0.96125 0.54081 0.7531 0.0
H3566 H 0.97503 0.53865 0.72472 0.0
H3567 H 0.93908 0.52535 0.66651 0.0
H3568 H 0.97974 0.53029 0.58548 0.0
H3569 H 0.96534 0.5332 0.61337 0.0
H3570 H 1.00171 0.5516 0.67292 0.0
C3571 C 0.96215 0.54075 0.72296 0.0
C3572 C 0.95277 0.53128 0.6682 0.0
C3573 C 0.95413 0.54195 0.73945 0.0
C3574 C 0.98709 0.53129 0.59963 0.0
C3575 C 0.97874 0.5329 0.61588 0.0
C3576 C 0.98806 0.54546 0.6711 0.0
C3577 C 0.9536 0.54168 0.70449 0.0
C3578 C 0.96221 0.54001 0.68657 0.0
C3579 C 0.98755 0.53455 0.63493 0.0
C3580 C 0.9787 0.53654 0.65271 0.0
H3581 H 0.91571 0.54729 0.71823 0.0
H3582 H 0.92951 0.54521 0.68981 0.0
H3583 H 0.98798 0.55422 0.70108 0.0
H3584 H 0.02696 0.5329 0.62301 0.0
H3585 H 0.01263 0.53506 0.65072 0.0
C3586 C 0.26157 0.20538 0.47338 0.0
C3587 C 0.26645 0.18829 0.4739 0.0
C3588 C 0.26345 0.21493 0.45769 0.0
C3589 C 0.26449 0.20798 0.40633 0.0
H3590 H 0.28842 0.26063 0.41446 0.0
C3591 C 0.27935 0.24646 0.34222 0.0
C3592 C 0.28106 0.26598 0.3441 0.0
C3593 C 0.27708 0.23703 0.35791 0.0
C3594 C 0.28136 0.24605 0.41181 0.0
H3595 H 0.277 0.16778 0.45819 0.0
H3596 H 0.27977 0.1842 0.43044 0.0
H3597 H 0.28548 0.24424 0.44191 0.0
H3598 H 0.28104 0.29079 0.36374 0.0
H3599 H 0.27611 0.27432 0.39087 0.0
H3600 H 0.25965 0.20975 0.37643 0.0
C3601 C 0.27468 0.19028 0.44235 0.0
C3602 C 0.27984 0.23661 0.42764 0.0
C3603 C 0.27317 0.18093 0.45826 0.0
C3604 C 0.27986 0.27576 0.36188 0.0
C3605 C 0.27723 0.26626 0.37752 0.0
C3606 C 0.26568 0.21749 0.39053 0.0
C3607 C 0.26989 0.20742 0.44192 0.0
C3608 C 0.27149 0.21744 0.42507 0.0
C3609 C 0.27608 0.24676 0.37592 0.0
C3610 C 0.27426 0.23669 0.39294 0.0
H3611 H 0.25638 0.21148 0.48519 0.0
H3612 H 0.25957 0.22805 0.45774 0.0
H3613 H 0.25778 0.19326 0.40393 0.0
H3614 H 0.28036 0.23851 0.32874 0.0
H3615 H 0.27663 0.22216 0.35595 0.0
C3616 C 0.367 0.63686 0.57056 0.0
C3617 C 0.36961 0.63671 0.59048 0.0
C3618 C 0.37727 0.62929 0.55904 0.0
C3619 C 0.41869 0.61661 0.56144 0.0
H3620 H 0.39578 0.57469 0.52103 0.0
C3621 C 0.4458 0.55384 0.54617 0.0
C3622 C 0.44803 0.54794 0.52736 0.0
C3623 C 0.43647 0.56717 0.54976 0.0
C3624 C 0.40235 0.58667 0.53192 0.0
H3625 H 0.38519 0.62905 0.61406 0.0
H3626 H 0.40316 0.61609 0.59407 0.0
H3627 H 0.3791 0.59508 0.5353 0.0
H3628 H 0.44144 0.5506 0.49741 0.0
H3629 H 0.42447 0.57379 0.50381 0.0
H3630 H 0.44169 0.60754 0.559 0.0
C3631 C 0.39323 0.62204 0.58733 0.0
C3632 C 0.39286 0.59831 0.54006 0.0
C3633 C 0.38286 0.62931 0.59875 0.0
C3634 C 0.4399 0.55491 0.51205 0.0
C3635 C 0.43032 0.5682 0.51567 0.0
C3636 C 0.42812 0.60504 0.55336 0.0
C3637 C 0.39047 0.62185 0.56739 0.0
C3638 C 0.40086 0.61277 0.55553 0.0
C3639 C 0.42897 0.57474 0.53463 0.0
C3640 C 0.41987 0.58946 0.53922 0.0
H3641 H 0.35683 0.64247 0.56382 0.0
H3642 H 0.37489 0.62923 0.54368 0.0
H3643 H 0.42516 0.62788 0.57315 0.0
H3644 H 0.4515 0.54835 0.5582 0.0
H3645 H 0.43519 0.57167 0.56447 0.0
C3646 C 0.87351 0.92562 0.56773 0.0
C3647 C 0.85986 0.93407 0.57024 0.0
C3648 C 0.88963 0.9364 0.56616 0.0
C3649 C 0.91951 0.95953 0.55193 0.0
H3650 H 0.93745 1.01029 0.57955 0.0
C3651 C 0.98205 1.00703 0.53756 0.0
C3652 C 0.99287 0.0197 0.55303 0.0
C3653 C 0.96579 0.99694 0.53968 0.0
C3654 C 0.93277 0.99606 0.57187 0.0
H3655 H 0.85261 0.96066 0.57325 0.0
H3656 H 0.88062 0.97949 0.56992 0.0
H3657 H 0.90967 0.99217 0.5839 0.0
H3658 H 0.99523 0.0317 0.58289 0.0
H3659 H 0.96717 0.0137 0.58689 0.0
H3660 H 0.94286 0.96304 0.54054 0.0
C3661 C 0.87898 0.96451 0.56957 0.0
C3662 C 0.91663 0.98572 0.57414 0.0
C3663 C 0.86285 0.9537 0.5714 0.0
C3664 C 0.98713 0.02205 0.5707 0.0
C3665 C 0.97095 0.01181 0.57292 0.0
C3666 C 0.9357 0.96977 0.54982 0.0
C3667 C 0.8926 0.95598 0.56676 0.0
C3668 C 0.90975 0.96726 0.56424 0.0
C3669 C 0.95997 0.99913 0.55742 0.0
C3670 C 0.94261 0.98821 0.55974 0.0
H3671 H 0.87178 0.91057 0.567 0.0
H3672 H 0.8998 0.92928 0.56457 0.0
H3673 H 0.91463 0.94552 0.54373 0.0
H3674 H 0.98606 1.00511 0.52369 0.0
H3675 H 0.95769 0.98765 0.52727 0.0
C3676 C 0.88774 0.05779 0.25038 0.0
C3677 C 0.90218 0.05629 0.26293 0.0
C3678 C 0.88064 0.07322 0.25353 0.0
C3679 C 0.87818 0.11174 0.29057 0.0
H3680 H 0.86117 0.13185 0.24602 0.0
C3681 C 0.84845 0.17667 0.2955 0.0
C3682 C 0.83286 0.17434 0.28289 0.0
C3683 C 0.85833 0.16343 0.29362 0.0
C3684 C 0.8658 0.12635 0.25859 0.0
H3685 H 0.92039 0.06975 0.2888 0.0
H3686 H 0.90803 0.09696 0.29423 0.0
H3687 H 0.876 0.10672 0.24193 0.0
H3688 H 0.81538 0.15597 0.25864 0.0
H3689 H 0.83276 0.13324 0.25517 0.0
H3690 H 0.86785 0.13147 0.30718 0.0
C3691 C 0.90213 0.08605 0.28202 0.0
C3692 C 0.87426 0.11192 0.25626 0.0
C3693 C 0.90925 0.07051 0.27889 0.0
C3694 C 0.82747 0.1585 0.26834 0.0
C3695 C 0.83741 0.14541 0.26637 0.0
C3696 C 0.86977 0.12631 0.29291 0.0
C3697 C 0.88782 0.08764 0.26926 0.0
C3698 C 0.88023 0.10414 0.27215 0.0
C3699 C 0.85292 0.1477 0.27899 0.0
C3700 C 0.8632 0.13348 0.27688 0.0
H3701 H 0.88188 0.04703 0.23803 0.0
H3702 H 0.86939 0.07375 0.24365 0.0
H3703 H 0.88251 0.106 0.30309 0.0
H3704 H 0.85312 0.18882 0.30671 0.0
H3705 H 0.87031 0.16563 0.30346 0.0
C3706 C 0.77856 0.08142 0.10792 0.0
C3707 C 0.77904 0.09721 0.09865 0.0
C3708 C 0.76336 0.0673 0.10547 0.0
C3709 C 0.72015 0.04972 0.07483 0.0
H3710 H 0.70506 0.03705 0.12191 0.0
C3711 C 0.65444 0.0391 0.10603 0.0
C3712 C 0.64275 0.02842 0.08997 0.0
C3713 C 0.67202 0.04088 0.10697 0.0
C3714 C 0.70912 0.04033 0.1086 0.0
H3715 H 0.76411 0.11022 0.07907 0.0
H3716 H 0.73783 0.08598 0.07508 0.0
H3717 H 0.73488 0.05321 0.12271 0.0
H3718 H 0.64021 1.01021 0.06285 0.0
H3719 H 0.67108 0.01324 0.06451 0.0
H3720 H 0.69416 0.03837 0.06098 0.0
C3721 C 0.74914 0.08425 0.08401 0.0
C3722 C 0.72626 0.0494 0.10902 0.0
C3723 C 0.76421 0.09832 0.08651 0.0
C3724 C 0.64896 0.01876 0.07528 0.0
C3725 C 0.66661 0.02047 0.07625 0.0
C3726 C 0.703 0.04081 0.07443 0.0
C3727 C 0.74846 0.06867 0.09358 0.0
C3728 C 0.73173 0.05502 0.09231 0.0
C3729 C 0.67837 0.03198 0.09188 0.0
C3730 C 0.69711 0.03685 0.09149 0.0
H3731 H 0.7898 0.08013 0.11731 0.0
H3732 H 0.76321 0.05542 0.113 0.0
H3733 H 0.7241 0.05351 0.06163 0.0
H3734 H 0.65011 0.04696 0.11746 0.0
H3735 H 0.68065 0.05018 0.11903 0.0
C3736 C 0.19635 0.44496 0.31233 0.0
C3737 C 0.19984 0.45796 0.29953 0.0
C3738 C 0.20376 0.42918 0.31241 0.0
C3739 C 0.23965 0.40888 0.29473 0.0
H3740 H 0.21513 0.36295 0.30921 0.0
C3741 C 0.2725 0.34551 0.30369 0.0
C3742 C 0.2625 0.32672 0.29966 0.0
C3743 C 0.26492 0.36115 0.30381 0.0
C3744 C 0.22229 0.37552 0.30497 0.0
H3745 H 0.2143 0.46377 0.27666 0.0
H3746 H 0.22703 0.4367 0.27674 0.0
H3747 H 0.20221 0.3898 0.30888 0.0
H3748 H 0.23612 0.31043 0.29248 0.0
H3749 H 0.22303 0.33727 0.29278 0.0
H3750 H 0.25961 0.39456 0.29057 0.0
C3751 C 0.21865 0.43867 0.287 0.0
C3752 C 0.21484 0.39127 0.305 0.0
C3753 C 0.21117 0.45438 0.28686 0.0
C3754 C 0.24448 0.32443 0.29586 0.0
C3755 C 0.23688 0.34008 0.29609 0.0
C3756 C 0.24714 0.39319 0.29482 0.0
C3757 C 0.21516 0.42556 0.29976 0.0
C3758 C 0.22328 0.40843 0.29985 0.0
C3759 C 0.24688 0.35893 0.29997 0.0
C3760 C 0.23869 0.37601 0.29992 0.0
H3761 H 0.18779 0.44694 0.32239 0.0
H3762 H 0.20066 0.41993 0.32273 0.0
H3763 H 0.24695 0.42156 0.29084 0.0
H3764 H 0.28637 0.34824 0.3067 0.0
H3765 H 0.27338 0.3751 0.30718 0.0
C3766 C 0.25472 0.42805 0.05507 0.0
C3767 C 0.268 0.43649 0.07067 0.0
C3768 C 0.24027 0.43548 0.0515 0.0
C3769 C 0.2253 0.47913 0.06205 0.0
H3770 H 0.17968 0.44582 0.05002 0.0
C3771 C 0.16473 0.50655 0.06855 0.0
C3772 C 0.14947 0.49829 0.05541 0.0
C3773 C 0.17915 0.49909 0.06849 0.0
C3774 C 0.19232 0.45534 0.05306 0.0
H3775 H 0.27648 0.45948 0.09466 0.0
H3776 H 0.25146 0.47235 0.08846 0.0
H3777 H 0.20483 0.43262 0.05341 0.0
H3778 H 0.13766 0.47579 0.03159 0.0
H3779 H 0.16299 0.46291 0.03124 0.0
H3780 H 0.2129 0.50184 0.06182 0.0
C3781 C 0.2522 0.46008 0.07885 0.0
C3782 C 0.20677 0.44775 0.05503 0.0
C3783 C 0.26654 0.45261 0.08248 0.0
C3784 C 0.14919 0.48257 0.04186 0.0
C3785 C 0.16368 0.47506 0.04181 0.0
C3786 C 0.2109 0.4867 0.06002 0.0
C3787 C 0.23884 0.45161 0.06335 0.0
C3788 C 0.22345 0.45955 0.05987 0.0
C3789 C 0.17884 0.48317 0.05522 0.0
C3790 C 0.19418 0.47495 0.05581 0.0
H3791 H 0.25541 0.41562 0.04568 0.0
H3792 H 0.2303 0.42867 0.03935 0.0
H3793 H 0.23794 0.48865 0.06538 0.0
H3794 H 0.16555 0.51882 0.07902 0.0
H3795 H 0.19046 0.50563 0.07919 0.0
C3796 C 0.88492 0.95217 0.24947 0.0
C3797 C 0.90111 0.95745 0.26135 0.0
C3798 C 0.87323 0.93543 0.25048 0.0
C3799 C 0.86988 0.89015 0.26966 0.0
H3800 H 0.82144 0.88954 0.26316 0.0
C3801 C 0.81831 0.83292 0.2918 0.0
C3802 C 0.80354 0.82485 0.27795 0.0
C3803 C 0.83039 0.84856 0.2889 0.0
C3804 C 0.83492 0.88948 0.26484 0.0
H3805 H 0.91772 0.94933 0.28364 0.0
H3806 H 0.89716 0.92056 0.28596 0.0
H3807 H 0.84223 0.91786 0.25996 0.0
H3808 H 0.78951 0.82708 0.25048 0.0
H3809 H 0.81045 0.85486 0.24565 0.0
H3810 H 0.86242 0.8619 0.2753 0.0
C3811 C 0.8936 0.92899 0.27542 0.0
C3812 C 0.84687 0.90567 0.26292 0.0
C3813 C 0.90539 0.94558 0.27418 0.0
C3814 C 0.80084 0.83298 0.26135 0.0
C3815 C 0.81279 0.84885 0.25859 0.0
C3816 C 0.85793 0.87406 0.27189 0.0
C3817 C 0.87731 0.9237 0.26363 0.0
C3818 C 0.86454 0.90626 0.26531 0.0
C3819 C 0.82772 0.85671 0.27229 0.0
C3820 C 0.84035 0.87359 0.26951 0.0
H3821 H 0.88128 0.96093 0.2393 0.0
H3822 H 0.861 0.93169 0.24086 0.0
H3823 H 0.88329 0.88987 0.27124 0.0
H3824 H 0.82044 0.82729 0.30501 0.0
H3825 H 0.84166 0.85454 0.29983 0.0
C3826 C 0.70835 0.06398 0.80116 0.0
C3827 C 0.69793 0.05998 0.81519 0.0
C3828 C 0.71686 0.08267 0.80008 0.0
C3829 C 0.73276 0.13162 0.82801 0.0
H3830 H 0.72961 0.1475 0.77816 0.0
C3831 C 0.75964 0.2111 0.82105 0.0
C3832 C 0.76372 0.21601 0.80343 0.0
C3833 C 0.75192 0.19231 0.8227 0.0
C3834 C 0.7311 0.14353 0.79228 0.0
H3835 H 0.68893 0.07313 0.83944 0.0
H3836 H 0.70421 0.10535 0.83804 0.0
H3837 H 0.71694 0.1151 0.78081 0.0
H3838 H 0.76308 0.20431 0.77384 0.0
H3839 H 0.7507 0.17196 0.77677 0.0
H3840 H 0.74739 0.15966 0.83957 0.0
C3841 C 0.70568 0.09403 0.82768 0.0
C3842 C 0.7236 0.12467 0.79377 0.0
C3843 C 0.69686 0.07541 0.82848 0.0
C3844 C 0.76002 0.20133 0.78764 0.0
C3845 C 0.75266 0.18251 0.78936 0.0
C3846 C 0.74059 0.15041 0.82651 0.0
C3847 C 0.71561 0.09812 0.81324 0.0
C3848 C 0.72418 0.11832 0.81166 0.0
C3849 C 0.74824 0.17743 0.8069 0.0
C3850 C 0.73992 0.15696 0.80859 0.0
H3851 H 0.70944 0.0527 0.79048 0.0
H3852 H 0.72443 0.08504 0.78883 0.0
H3853 H 0.73371 0.12743 0.84208 0.0
H3854 H 0.76215 0.22189 0.83359 0.0
H3855 H 0.74864 0.18966 0.83648 0.0
loop_
_geom_bond_atom_site_label_1
_geom_bond_atom_site_label_2
_geom_bond_distance
_geom_bond_site_symmetry_2
_ccdc_geom_bond_type
O0 Cd1 2.223 1_655 S
O0 C8 1.315 1_655 S
Cd1 O0 2.223 1_455 S
Cd1 O4 2.297 . S
Cd1 O5 2.439 . S
Cd1 O11 2.240 1_455 S
Cd2 O3 2.240 1_655 S
Cd2 O10 2.223 . S
Cd2 O12 2.297 . S
Cd2 O13 2.439 1_655 S
O3 Cd2 2.240 1_455 S
O3 C8 1.279 . S
O4 Cd1 2.297 . S
O4 C6 1.247 . S
O5 Cd1 2.439 . S
O5 C6 1.208 . S
C6 O4 1.247 . S
C6 O5 1.208 . S
C7 O12 1.247 1_455 S
C7 O13 1.208 . S
C8 O0 1.315 1_455 S
C8 O3 1.279 . S
C9 O10 1.315 . S
C9 O11 1.279 . S
O10 Cd2 2.223 . S
O10 C9 1.315 . S
O11 Cd1 2.240 1_655 S
O11 C9 1.279 . S
O12 Cd2 2.297 . S
O12 C7 1.247 1_655 S
O13 Cd2 2.439 1_455 S
O13 C7 1.208 . S
O14 Cd15 2.223 . S
O14 C22 1.315 . S
Cd15 O14 2.223 . S
Cd15 O18 2.297 . S
Cd15 O19 2.439 . S
Cd15 O25 2.240 . S
Cd16 O17 2.240 . S
Cd16 O24 2.223 . S
Cd16 O26 2.297 . S
Cd16 O27 2.439 . S
O17 Cd16 2.240 . S
O17 C22 1.279 . S
O18 Cd15 2.297 . S
O18 C20 1.247 . S
O19 Cd15 2.439 . S
O19 C20 1.208 . S
C20 O18 1.247 . S
C20 O19 1.208 . S
C21 O26 1.247 . S
C21 O27 1.208 . S
C22 O14 1.315 . S
C22 O17 1.279 . S
C23 O24 1.315 . S
C23 O25 1.279 . S
O24 Cd16 2.223 . S
O24 C23 1.315 . S
O25 Cd15 2.240 . S
O25 C23 1.279 . S
O26 Cd16 2.297 . S
O26 C21 1.247 . S
O27 Cd16 2.439 . S
O27 C21 1.208 . S
O28 Cd29 2.223 . S
O28 C36 1.315 . S
Cd29 O28 2.223 . S
Cd29 O32 2.297 . S
Cd29 O33 2.439 . S
Cd29 O39 2.240 . S
Cd30 O31 2.240 . S
Cd30 O38 2.223 . S
Cd30 O40 2.297 . S
Cd30 O41 2.439 . S
O31 Cd30 2.240 . S
O31 C36 1.279 . S
O32 Cd29 2.297 . S
O32 C34 1.247 . S
O33 Cd29 2.439 . S
O33 C34 1.208 . S
C34 O32 1.247 . S
C34 O33 1.208 . S
C35 O40 1.247 . S
C35 O41 1.208 . S
C36 O28 1.315 . S
C36 O31 1.279 . S
C37 O38 1.315 . S
C37 O39 1.279 . S
O38 Cd30 2.223 . S
O38 C37 1.315 . S
O39 Cd29 2.240 . S
O39 C37 1.279 . S
O40 Cd30 2.297 . S
O40 C35 1.247 . S
O41 Cd30 2.439 . S
O41 C35 1.208 . S
O42 Cd43 2.223 . S
O42 C50 1.315 . S
Cd43 O42 2.223 . S
Cd43 O46 2.297 . S
Cd43 O47 2.439 . S
Cd43 O53 2.240 . S
Cd44 O45 2.240 . S
Cd44 O52 2.223 . S
Cd44 O54 2.297 . S
Cd44 O55 2.439 . S
O45 Cd44 2.240 . S
O45 C50 1.279 . S
O46 Cd43 2.297 . S
O46 C48 1.247 . S
O47 Cd43 2.439 . S
O47 C48 1.208 . S
C48 O46 1.247 . S
C48 O47 1.208 . S
C49 O54 1.247 . S
C49 O55 1.208 . S
C50 O42 1.315 . S
C50 O45 1.279 . S
C51 O52 1.315 . S
C51 O53 1.279 . S
O52 Cd44 2.223 . S
O52 C51 1.315 . S
O53 Cd43 2.240 . S
O53 C51 1.279 . S
O54 Cd44 2.297 . S
O54 C49 1.247 . S
O55 Cd44 2.439 . S
O55 C49 1.208 . S
O56 Cd57 2.223 . S
O56 C64 1.315 . S
Cd57 O56 2.223 . S
Cd57 O60 2.297 . S
Cd57 O61 2.439 . S
Cd57 O67 2.240 . S
Cd58 O59 2.240 . S
Cd58 O66 2.223 . S
Cd58 O68 2.297 . S
Cd58 O69 2.439 . S
O59 Cd58 2.240 . S
O59 C64 1.279 . S
O60 Cd57 2.297 . S
O60 C62 1.247 . S
O61 Cd57 2.439 . S
O61 C62 1.208 . S
C62 O60 1.247 . S
C62 O61 1.208 . S
C63 O68 1.247 . S
C63 O69 1.208 . S
C64 O56 1.315 . S
C64 O59 1.279 . S
C65 O66 1.315 . S
C65 O67 1.279 . S
O66 Cd58 2.223 . S
O66 C65 1.315 . S
O67 Cd57 2.240 . S
O67 C65 1.279 . S
O68 Cd58 2.297 . S
O68 C63 1.247 . S
O69 Cd58 2.439 . S
O69 C63 1.208 . S
O70 Cd71 2.223 . S
O70 C78 1.315 . S
Cd71 O70 2.223 . S
Cd71 O74 2.297 . S
Cd71 O75 2.439 . S
Cd71 O81 2.240 . S
Cd72 O73 2.240 . S
Cd72 O80 2.223 . S
Cd72 O82 2.297 . S
Cd72 O83 2.439 . S
O73 Cd72 2.240 . S
O73 C78 1.279 . S
O74 Cd71 2.297 . S
O74 C76 1.247 . S
O75 Cd71 2.439 . S
O75 C76 1.208 . S
C76 O74 1.247 . S
C76 O75 1.208 . S
C77 O82 1.247 . S
C77 O83 1.208 . S
C78 O70 1.315 . S
C78 O73 1.279 . S
C79 O80 1.315 . S
C79 O81 1.279 . S
O80 Cd72 2.223 . S
O80 C79 1.315 . S
O81 Cd71 2.240 . S
O81 C79 1.279 . S
O82 Cd72 2.297 . S
O82 C77 1.247 . S
O83 Cd72 2.439 . S
O83 C77 1.208 . S
O84 Cd85 2.223 . S
O84 C92 1.315 . S
Cd85 O84 2.223 . S
Cd85 O88 2.297 . S
Cd85 O89 2.439 . S
Cd85 O95 2.240 . S
Cd86 O87 2.240 . S
Cd86 O94 2.223 . S
Cd86 O96 2.297 . S
Cd86 O97 2.439 . S
O87 Cd86 2.240 . S
O87 C92 1.279 . S
O88 Cd85 2.297 . S
O88 C90 1.247 . S
O89 Cd85 2.439 . S
O89 C90 1.208 . S
C90 O88 1.247 . S
C90 O89 1.208 . S
C91 O96 1.247 . S
C91 O97 1.208 . S
C92 O84 1.315 . S
C92 O87 1.279 . S
C93 O94 1.315 . S
C93 O95 1.279 . S
O94 Cd86 2.223 . S
O94 C93 1.315 . S
O95 Cd85 2.240 . S
O95 C93 1.279 . S
O96 Cd86 2.297 . S
O96 C91 1.247 . S
O97 Cd86 2.439 . S
O97 C91 1.208 . S
O98 Cd99 2.223 . S
O98 C106 1.315 . S
Cd99 O98 2.223 . S
Cd99 O102 2.297 . S
Cd99 O103 2.439 . S
Cd99 O109 2.240 1_455 S
Cd100 O101 2.240 . S
Cd100 O108 2.223 1_455 S
Cd100 O110 2.297 . S
Cd100 O111 2.439 . S
O101 Cd100 2.240 . S
O101 C106 1.279 . S
O102 Cd99 2.297 . S
O102 C104 1.247 . S
O103 Cd99 2.439 . S
O103 C104 1.208 . S
C104 O102 1.247 . S
C104 O103 1.208 . S
C105 O110 1.247 . S
C105 O111 1.208 . S
C106 O98 1.315 . S
C106 O101 1.279 . S
C107 O108 1.315 . S
C107 O109 1.279 . S
O108 Cd100 2.223 1_655 S
O108 C107 1.315 . S
O109 Cd99 2.240 1_655 S
O109 C107 1.279 . S
O110 Cd100 2.297 . S
O110 C105 1.247 . S
O111 Cd100 2.439 . S
O111 C105 1.208 . S
O112 Cd113 2.223 . S
O112 C120 1.315 . S
Cd113 O112 2.223 . S
Cd113 O116 2.297 . S
Cd113 O117 2.439 . S
Cd113 O123 2.240 . S
Cd114 O115 2.240 . S
Cd114 O122 2.223 1_545 S
Cd114 O124 2.297 . S
Cd114 O125 2.439 . S
O115 Cd114 2.240 . S
O115 C120 1.279 . S
O116 Cd113 2.297 . S
O116 C118 1.247 . S
O117 Cd113 2.439 . S
O117 C118 1.208 . S
C118 O116 1.247 . S
C118 O117 1.208 . S
C119 O124 1.247 . S
C119 O125 1.208 . S
C120 O112 1.315 . S
C120 O115 1.279 . S
C121 O122 1.315 . S
C121 O123 1.279 1_565 S
O122 Cd114 2.223 1_565 S
O122 C121 1.315 . S
O123 Cd113 2.240 . S
O123 C121 1.279 1_545 S
O124 Cd114 2.297 . S
O124 C119 1.247 . S
O125 Cd114 2.439 . S
O125 C119 1.208 . S
O126 Cd127 2.223 . S
O126 C134 1.315 . S
Cd127 O126 2.223 . S
Cd127 O130 2.297 . S
Cd127 O131 2.439 . S
Cd127 O137 2.240 . S
Cd128 O129 2.240 . S
Cd128 O136 2.223 . S
Cd128 O138 2.297 . S
Cd128 O139 2.439 . S
O129 Cd128 2.240 . S
O129 C134 1.279 . S
O130 Cd127 2.297 . S
O130 C132 1.247 . S
O131 Cd127 2.439 . S
O131 C132 1.208 . S
C132 O130 1.247 . S
C132 O131 1.208 . S
C133 O138 1.247 . S
C133 O139 1.208 . S
C134 O126 1.315 . S
C134 O129 1.279 . S
C135 O136 1.315 . S
C135 O137 1.279 . S
O136 Cd128 2.223 . S
O136 C135 1.315 . S
O137 Cd127 2.240 . S
O137 C135 1.279 . S
O138 Cd128 2.297 . S
O138 C133 1.247 . S
O139 Cd128 2.439 . S
O139 C133 1.208 . S
O140 Cd141 2.223 . S
O140 C148 1.315 . S
Cd141 O140 2.223 . S
Cd141 O144 2.297 1_545 S
Cd141 O145 2.439 1_545 S
Cd141 O151 2.240 . S
Cd142 O143 2.240 . S
Cd142 O150 2.223 . S
Cd142 O152 2.297 . S
Cd142 O153 2.439 . S
O143 Cd142 2.240 . S
O143 C148 1.279 . S
O144 Cd141 2.297 1_565 S
O144 C146 1.247 . S
O145 Cd141 2.439 1_565 S
O145 C146 1.208 . S
C146 O144 1.247 . S
C146 O145 1.208 . S
C147 O152 1.247 . S
C147 O153 1.208 . S
C148 O140 1.315 . S
C148 O143 1.279 . S
C149 O150 1.315 . S
C149 O151 1.279 . S
O150 Cd142 2.223 . S
O150 C149 1.315 . S
O151 Cd141 2.240 . S
O151 C149 1.279 . S
O152 Cd142 2.297 . S
O152 C147 1.247 . S
O153 Cd142 2.439 . S
O153 C147 1.208 . S
O154 Cd155 2.223 . S
O154 C162 1.315 . S
Cd155 O154 2.223 . S
Cd155 O158 2.297 . S
Cd155 O159 2.439 1_554 S
Cd155 O165 2.240 1_554 S
Cd156 O157 2.240 1_556 S
Cd156 O164 2.223 1_556 S
Cd156 O166 2.297 . S
Cd156 O167 2.439 . S
O157 Cd156 2.240 1_554 S
O157 C162 1.279 . S
O158 Cd155 2.297 . S
O158 C160 1.247 . S
O159 Cd155 2.439 1_556 S
O159 C160 1.208 1_556 S
C160 O158 1.247 . S
C160 O159 1.208 1_554 S
C161 O166 1.247 . S
C161 O167 1.208 . S
C162 O154 1.315 . S
C162 O157 1.279 . S
C163 O164 1.315 . S
C163 O165 1.279 1_554 S
O164 Cd156 2.223 1_554 S
O164 C163 1.315 . S
O165 Cd155 2.240 1_556 S
O165 C163 1.279 1_556 S
O166 Cd156 2.297 . S
O166 C161 1.247 . S
O167 Cd156 2.439 . S
O167 C161 1.208 . S
O168 Cd169 2.223 . S
O168 C176 1.315 . S
Cd169 O168 2.223 . S
Cd169 O172 2.297 . S
Cd169 O173 2.439 . S
Cd169 O179 2.240 . S
Cd170 O171 2.240 . S
Cd170 O178 2.223 . S
Cd170 O180 2.297 . S
Cd170 O181 2.439 . S
O171 Cd170 2.240 . S
O171 C176 1.279 . S
O172 Cd169 2.297 . S
O172 C174 1.247 . S
O173 Cd169 2.439 . S
O173 C174 1.208 . S
C174 O172 1.247 . S
C174 O173 1.208 . S
C175 O180 1.247 1_556 S
C175 O181 1.208 1_556 S
C176 O168 1.315 . S
C176 O171 1.279 . S
C177 O178 1.315 . S
C177 O179 1.279 . S
O178 Cd170 2.223 . S
O178 C177 1.315 . S
O179 Cd169 2.240 . S
O179 C177 1.279 . S
O180 Cd170 2.297 . S
O180 C175 1.247 1_554 S
O181 Cd170 2.439 . S
O181 C175 1.208 1_554 S
O182 Cd183 2.223 . S
O182 C190 1.315 . S
Cd183 O182 2.223 . S
Cd183 O186 2.297 . S
Cd183 O187 2.439 . S
Cd183 O193 2.240 . S
Cd184 O185 2.240 . S
Cd184 O192 2.223 . S
Cd184 O194 2.297 . S
Cd184 O195 2.439 . S
O185 Cd184 2.240 . S
O185 C190 1.279 . S
O186 Cd183 2.297 . S
O186 C188 1.247 . S
O187 Cd183 2.439 . S
O187 C188 1.208 . S
C188 O186 1.247 . S
C188 O187 1.208 . S
C189 O194 1.247 . S
C189 O195 1.208 . S
C190 O182 1.315 . S
C190 O185 1.279 . S
C191 O192 1.315 . S
C191 O193 1.279 . S
O192 Cd184 2.223 . S
O192 C191 1.315 . S
O193 Cd183 2.240 . S
O193 C191 1.279 . S
O194 Cd184 2.297 . S
O194 C189 1.247 . S
O195 Cd184 2.439 . S
O195 C189 1.208 . S
O196 Cd197 2.223 . S
O196 C204 1.315 . S
Cd197 O196 2.223 . S
Cd197 O200 2.297 . S
Cd197 O201 2.439 . S
Cd197 O207 2.240 . S
Cd198 O199 2.240 . S
Cd198 O206 2.223 . S
Cd198 O208 2.297 . S
Cd198 O209 2.439 . S
O199 Cd198 2.240 . S
O199 C204 1.279 . S
O200 Cd197 2.297 . S
O200 C202 1.247 . S
O201 Cd197 2.439 . S
O201 C202 1.208 . S
C202 O200 1.247 . S
C202 O201 1.208 . S
C203 O208 1.247 . S
C203 O209 1.208 . S
C204 O196 1.315 . S
C204 O199 1.279 . S
C205 O206 1.315 . S
C205 O207 1.279 . S
O206 Cd198 2.223 . S
O206 C205 1.315 . S
O207 Cd197 2.240 . S
O207 C205 1.279 . S
O208 Cd198 2.297 . S
O208 C203 1.247 . S
O209 Cd198 2.439 . S
O209 C203 1.208 . S
O210 Cd211 2.223 . S
O210 C218 1.315 . S
Cd211 O210 2.223 . S
Cd211 O214 2.297 . S
Cd211 O215 2.439 . S
Cd211 O221 2.240 . S
Cd212 O213 2.240 . S
Cd212 O220 2.223 . S
Cd212 O222 2.297 . S
Cd212 O223 2.439 . S
O213 Cd212 2.240 . S
O213 C218 1.279 . S
O214 Cd211 2.297 . S
O214 C216 1.247 . S
O215 Cd211 2.439 . S
O215 C216 1.208 . S
C216 O214 1.247 . S
C216 O215 1.208 . S
C217 O222 1.247 . S
C217 O223 1.208 . S
C218 O210 1.315 . S
C218 O213 1.279 . S
C219 O220 1.315 . S
C219 O221 1.279 . S
O220 Cd212 2.223 . S
O220 C219 1.315 . S
O221 Cd211 2.240 . S
O221 C219 1.279 . S
O222 Cd212 2.297 . S
O222 C217 1.247 . S
O223 Cd212 2.439 . S
O223 C217 1.208 . S
O224 Cd225 2.223 1_565 S
O224 C232 1.315 1_565 S
Cd225 O224 2.223 1_545 S
Cd225 O228 2.297 . S
Cd225 O229 2.439 . S
Cd225 O235 2.240 1_545 S
Cd226 O227 2.240 1_565 S
Cd226 O234 2.223 . S
Cd226 O236 2.297 . S
Cd226 O237 2.439 1_565 S
O227 Cd226 2.240 1_545 S
O227 C232 1.279 . S
O228 Cd225 2.297 . S
O228 C230 1.247 . S
O229 Cd225 2.439 . S
O229 C230 1.208 . S
C230 O228 1.247 . S
C230 O229 1.208 . S
C231 O236 1.247 1_545 S
C231 O237 1.208 . S
C232 O224 1.315 1_545 S
C232 O227 1.279 . S
C233 O234 1.315 . S
C233 O235 1.279 . S
O234 Cd226 2.223 . S
O234 C233 1.315 . S
O235 Cd225 2.240 1_565 S
O235 C233 1.279 . S
O236 Cd226 2.297 . S
O236 C231 1.247 1_565 S
O237 Cd226 2.439 1_545 S
O237 C231 1.208 . S
O238 Cd239 2.223 . S
O238 C246 1.315 . S
Cd239 O238 2.223 . S
Cd239 O242 2.297 . S
Cd239 O243 2.439 . S
Cd239 O249 2.240 . S
Cd240 O241 2.240 . S
Cd240 O248 2.223 . S
Cd240 O250 2.297 . S
Cd240 O251 2.439 . S
O241 Cd240 2.240 . S
O241 C246 1.279 . S
O242 Cd239 2.297 . S
O242 C244 1.247 . S
O243 Cd239 2.439 . S
O243 C244 1.208 . S
C244 O242 1.247 . S
C244 O243 1.208 . S
C245 O250 1.247 . S
C245 O251 1.208 . S
C246 O238 1.315 . S
C246 O241 1.279 . S
C247 O248 1.315 . S
C247 O249 1.279 . S
O248 Cd240 2.223 . S
O248 C247 1.315 . S
O249 Cd239 2.240 . S
O249 C247 1.279 . S
O250 Cd240 2.297 . S
O250 C245 1.247 . S
O251 Cd240 2.439 . S
O251 C245 1.208 . S
O252 Cd253 2.223 . S
O252 C260 1.315 . S
Cd253 O252 2.223 . S
Cd253 O256 2.297 . S
Cd253 O257 2.439 . S
Cd253 O263 2.240 . S
Cd254 O255 2.240 . S
Cd254 O262 2.223 . S
Cd254 O264 2.297 . S
Cd254 O265 2.439 . S
O255 Cd254 2.240 . S
O255 C260 1.279 . S
O256 Cd253 2.297 . S
O256 C258 1.247 . S
O257 Cd253 2.439 . S
O257 C258 1.208 . S
C258 O256 1.247 . S
C258 O257 1.208 . S
C259 O264 1.247 . S
C259 O265 1.208 . S
C260 O252 1.315 . S
C260 O255 1.279 . S
C261 O262 1.315 . S
C261 O263 1.279 . S
O262 Cd254 2.223 . S
O262 C261 1.315 . S
O263 Cd253 2.240 . S
O263 C261 1.279 . S
O264 Cd254 2.297 . S
O264 C259 1.247 . S
O265 Cd254 2.439 . S
O265 C259 1.208 . S
O266 Cd267 2.223 . S
O266 C274 1.315 . S
Cd267 O266 2.223 . S
Cd267 O270 2.297 1_545 S
Cd267 O271 2.439 1_545 S
Cd267 O277 2.240 . S
Cd268 O269 2.240 . S
Cd268 O276 2.223 . S
Cd268 O278 2.297 . S
Cd268 O279 2.439 . S
O269 Cd268 2.240 . S
O269 C274 1.279 . S
O270 Cd267 2.297 1_565 S
O270 C272 1.247 . S
O271 Cd267 2.439 1_565 S
O271 C272 1.208 . S
C272 O270 1.247 . S
C272 O271 1.208 . S
C273 O278 1.247 . S
C273 O279 1.208 . S
C274 O266 1.315 . S
C274 O269 1.279 . S
C275 O276 1.315 . S
C275 O277 1.279 . S
O276 Cd268 2.223 . S
O276 C275 1.315 . S
O277 Cd267 2.240 . S
O277 C275 1.279 . S
O278 Cd268 2.297 . S
O278 C273 1.247 . S
O279 Cd268 2.439 . S
O279 C273 1.208 . S
O280 Cd281 2.223 . S
O280 C288 1.315 . S
Cd281 O280 2.223 . S
Cd281 O284 2.297 . S
Cd281 O285 2.439 . S
Cd281 O291 2.240 . S
Cd282 O283 2.240 . S
Cd282 O290 2.223 . S
Cd282 O292 2.297 . S
Cd282 O293 2.439 . S
O283 Cd282 2.240 . S
O283 C288 1.279 . S
O284 Cd281 2.297 . S
O284 C286 1.247 . S
O285 Cd281 2.439 . S
O285 C286 1.208 . S
C286 O284 1.247 . S
C286 O285 1.208 . S
C287 O292 1.229 1_556 S
C287 O293 1.188 1_556 S
C288 O280 1.315 . S
C288 O283 1.279 . S
C289 O290 1.315 . S
C289 O291 1.279 . S
O290 Cd282 2.223 . S
O290 C289 1.315 . S
O291 Cd281 2.240 . S
O291 C289 1.279 . S
O292 Cd282 2.297 . S
O292 C287 1.229 1_554 S
O293 Cd282 2.439 . S
O293 C287 1.188 1_554 S
O294 Cd295 2.223 . S
O294 C302 1.315 . S
Cd295 O294 2.223 . S
Cd295 O298 2.297 . S
Cd295 O299 2.439 . S
Cd295 O305 2.240 . S
Cd296 O297 2.240 . S
Cd296 O304 2.223 . S
Cd296 O306 2.297 . S
Cd296 O307 2.439 . S
O297 Cd296 2.240 . S
O297 C302 1.279 . S
O298 Cd295 2.297 . S
O298 C300 1.247 . S
O299 Cd295 2.439 . S
O299 C300 1.208 . S
C300 O298 1.247 . S
C300 O299 1.208 . S
C301 O306 1.247 . S
C301 O307 1.208 . S
C302 O294 1.315 . S
C302 O297 1.279 . S
C303 O304 1.315 . S
C303 O305 1.279 . S
O304 Cd296 2.223 . S
O304 C303 1.315 . S
O305 Cd295 2.240 . S
O305 C303 1.279 . S
O306 Cd296 2.297 . S
O306 C301 1.247 . S
O307 Cd296 2.439 . S
O307 C301 1.208 . S
O308 Cd309 2.223 . S
O308 C316 1.315 . S
Cd309 O308 2.223 . S
Cd309 O312 2.297 . S
Cd309 O313 2.439 . S
Cd309 O319 2.240 . S
Cd310 O311 2.240 . S
Cd310 O318 2.223 . S
Cd310 O320 2.297 . S
Cd310 O321 2.439 . S
O311 Cd310 2.240 . S
O311 C316 1.279 . S
O312 Cd309 2.297 . S
O312 C314 1.247 . S
O313 Cd309 2.439 . S
O313 C314 1.208 . S
C314 O312 1.247 . S
C314 O313 1.208 . S
C315 O320 1.247 . S
C315 O321 1.208 . S
C316 O308 1.315 . S
C316 O311 1.279 . S
C317 O318 1.315 . S
C317 O319 1.279 . S
O318 Cd310 2.223 . S
O318 C317 1.315 . S
O319 Cd309 2.240 . S
O319 C317 1.279 . S
O320 Cd310 2.297 . S
O320 C315 1.247 . S
O321 Cd310 2.439 . S
O321 C315 1.208 . S
O322 Cd323 2.223 . S
O322 C330 1.315 . S
Cd323 O322 2.223 . S
Cd323 O326 2.297 . S
Cd323 O327 2.439 . S
Cd323 O333 2.240 . S
Cd324 O325 2.240 . S
Cd324 O332 2.223 . S
Cd324 O334 2.297 . S
Cd324 O335 2.439 . S
O325 Cd324 2.240 . S
O325 C330 1.279 . S
O326 Cd323 2.297 . S
O326 C328 1.247 . S
O327 Cd323 2.439 . S
O327 C328 1.208 . S
C328 O326 1.247 . S
C328 O327 1.208 . S
C329 O334 1.247 . S
C329 O335 1.208 . S
C330 O322 1.315 . S
C330 O325 1.279 . S
C331 O332 1.315 . S
C331 O333 1.279 . S
O332 Cd324 2.223 . S
O332 C331 1.315 . S
O333 Cd323 2.240 . S
O333 C331 1.279 . S
O334 Cd324 2.297 . S
O334 C329 1.247 . S
O335 Cd324 2.439 . S
O335 C329 1.208 . S
Tb336 C338 2.809 1_455 S
Tb336 O356 2.484 1_455 S
Tb336 O357 2.440 1_455 S
Tb336 O358 2.658 . S
Tb336 O359 2.409 . S
Tb336 O360 2.378 . S
Tb336 O364 2.325 . S
Tb336 O367 2.341 1_545 S
Tb337 C347 2.809 . S
Tb337 O358 2.325 . S
Tb337 O361 2.341 . S
Tb337 O362 2.484 . S
Tb337 O363 2.440 . S
Tb337 O364 2.658 . S
Tb337 O365 2.409 . S
Tb337 O366 2.371 1_545 S
C338 Tb336 2.809 1_655 S
C338 C339 1.514 . S
C338 O356 1.248 . S
C338 O357 1.266 . S
C339 C338 1.514 . S
C339 C340 1.359 . S
C339 C344 1.348 . S
C340 C339 1.359 . S
C340 C341 1.380 . S
C340 H368 0.929 . S
C341 C340 1.380 . S
C341 C342 1.347 . S
C341 H369 0.931 . S
C342 C341 1.347 . S
C342 C343 1.369 . S
C343 C342 1.369 . S
C343 C344 1.408 . S
C343 H370 0.930 1_554 S
C344 C339 1.348 . S
C344 C343 1.408 . S
C344 H371 0.930 1_554 S
C345 O358 1.281 . S
C345 O359 1.254 . S
C346 O360 1.236 . S
C346 O361 1.266 . S
C347 Tb337 2.809 . S
C347 C348 1.480 1_545 S
C347 O362 1.248 . S
C347 O363 1.266 . S
C348 C347 1.480 1_565 S
C348 C349 1.383 . S
C348 C353 1.355 . S
C349 C348 1.383 . S
C349 C350 1.380 . S
C349 H372 0.929 . S
C350 C349 1.380 . S
C350 C351 1.347 . S
C350 H373 0.931 . S
C351 C350 1.347 . S
C351 C352 1.369 . S
C352 C351 1.369 . S
C352 C353 1.421 . S
C352 H374 0.930 . S
C353 C348 1.355 . S
C353 C352 1.421 . S
C353 H375 0.922 1_565 S
C354 O364 1.281 . S
C354 O365 1.254 . S
C355 O366 1.240 . S
C355 O367 1.266 . S
O356 Tb336 2.484 1_655 S
O356 C338 1.248 . S
O357 Tb336 2.440 1_655 S
O357 C338 1.266 . S
O358 Tb336 2.658 . S
O358 Tb337 2.325 . S
O358 C345 1.281 . S
O359 Tb336 2.409 . S
O359 C345 1.254 . S
O360 Tb336 2.378 . S
O360 C346 1.236 . S
O361 Tb337 2.341 . S
O361 C346 1.266 . S
O362 Tb337 2.484 . S
O362 C347 1.248 . S
O363 Tb337 2.440 . S
O363 C347 1.266 . S
O364 Tb336 2.325 . S
O364 Tb337 2.658 . S
O364 C354 1.281 . S
O365 Tb337 2.409 . S
O365 C354 1.254 . S
O366 Tb337 2.371 1_565 S
O366 C355 1.240 . S
O367 Tb336 2.341 1_565 S
O367 C355 1.266 . S
H368 C340 0.929 . S
H369 C341 0.931 . S
H370 C343 0.930 1_556 S
H371 C344 0.930 1_556 S
H372 C349 0.929 . S
H373 C350 0.931 . S
H374 C352 0.930 . S
H375 C353 0.922 1_545 S
Tb376 C378 2.809 . S
Tb376 O396 2.484 . S
Tb376 O397 2.440 . S
Tb376 O398 2.658 . S
Tb376 O399 2.409 . S
Tb376 O400 2.378 . S
Tb376 O404 2.325 . S
Tb376 O407 2.341 . S
Tb377 C387 2.809 . S
Tb377 O398 2.325 . S
Tb377 O401 2.341 . S
Tb377 O402 2.484 . S
Tb377 O403 2.440 . S
Tb377 O404 2.658 . S
Tb377 O405 2.409 . S
Tb377 O406 2.378 . S
C378 Tb376 2.809 . S
C378 C379 1.514 . S
C378 O396 1.248 . S
C378 O397 1.266 . S
C379 C378 1.514 . S
C379 C380 1.359 . S
C379 C384 1.348 . S
C380 C379 1.359 . S
C380 C381 1.380 . S
C380 H408 0.929 . S
C381 C380 1.380 . S
C381 C382 1.347 . S
C381 H409 0.931 . S
C382 C381 1.347 . S
C382 C383 1.369 . S
C383 C382 1.369 . S
C383 C384 1.408 . S
C383 H410 0.930 . S
C384 C379 1.348 . S
C384 C383 1.408 . S
C384 H411 0.930 . S
C385 O398 1.281 . S
C385 O399 1.254 . S
C386 O400 1.236 . S
C386 O401 1.266 . S
C387 Tb377 2.809 . S
C387 C388 1.514 . S
C387 O402 1.248 . S
C387 O403 1.266 . S
C388 C387 1.514 . S
C388 C389 1.359 . S
C388 C393 1.348 . S
C389 C388 1.359 . S
C389 C390 1.380 . S
C389 H412 0.929 . S
C390 C389 1.380 . S
C390 C391 1.347 . S
C390 H413 0.931 . S
C391 C390 1.347 . S
C391 C392 1.369 . S
C392 C391 1.369 . S
C392 C393 1.408 . S
C392 H414 0.930 . S
C393 C388 1.348 . S
C393 C392 1.408 . S
C393 H415 0.930 . S
C394 O404 1.281 . S
C394 O405 1.254 . S
C395 O406 1.236 . S
C395 O407 1.266 . S
O396 Tb376 2.484 . S
O396 C378 1.248 . S
O397 Tb376 2.440 . S
O397 C378 1.266 . S
O398 Tb376 2.658 . S
O398 Tb377 2.325 . S
O398 C385 1.281 . S
O399 Tb376 2.409 . S
O399 C385 1.254 . S
O400 Tb376 2.378 . S
O400 C386 1.236 . S
O401 Tb377 2.341 . S
O401 C386 1.266 . S
O402 Tb377 2.484 . S
O402 C387 1.248 . S
O403 Tb377 2.440 . S
O403 C387 1.266 . S
O404 Tb376 2.325 . S
O404 Tb377 2.658 . S
O404 C394 1.281 . S
O405 Tb377 2.409 . S
O405 C394 1.254 . S
O406 Tb377 2.378 . S
O406 C395 1.236 . S
O407 Tb376 2.341 . S
O407 C395 1.266 . S
H408 C380 0.929 . S
H409 C381 0.931 . S
H410 C383 0.930 . S
H411 C384 0.930 . S
H412 C389 0.929 . S
H413 C390 0.931 . S
H414 C392 0.930 . S
H415 C393 0.930 . S
Tb416 C418 2.823 . S
Tb416 O436 2.531 . S
Tb416 O437 2.440 . S
Tb416 O438 2.658 . S
Tb416 O439 2.409 . S
Tb416 O440 2.378 1_545 S
Tb416 O444 2.325 . S
Tb416 O447 2.341 . S
Tb417 C427 2.809 . S
Tb417 O438 2.325 . S
Tb417 O441 2.341 1_545 S
Tb417 O442 2.484 . S
Tb417 O443 2.440 . S
Tb417 O444 2.658 . S
Tb417 O445 2.409 . S
Tb417 O446 2.378 . S
C418 Tb416 2.823 . S
C418 C419 1.499 1_545 S
C418 O436 1.249 . S
C418 O437 1.280 . S
C419 C418 1.499 1_565 S
C419 C420 1.359 . S
C419 C424 1.348 . S
C420 C419 1.359 . S
C420 C421 1.380 . S
C420 H448 0.929 . S
C421 C420 1.380 . S
C421 C422 1.347 . S
C421 H449 0.931 . S
C422 C421 1.347 . S
C422 C423 1.369 . S
C423 C422 1.369 . S
C423 C424 1.408 . S
C423 H450 0.930 . S
C424 C419 1.348 . S
C424 C423 1.408 . S
C424 H451 0.930 . S
C425 O438 1.281 . S
C425 O439 1.254 . S
C426 O440 1.236 . S
C426 O441 1.266 . S
C427 Tb417 2.809 . S
C427 C428 1.514 . S
C427 O442 1.248 . S
C427 O443 1.266 . S
C428 C427 1.514 . S
C428 C429 1.359 . S
C428 C433 1.348 . S
C429 C428 1.359 . S
C429 C430 1.380 . S
C429 H452 0.929 . S
C430 C429 1.380 . S
C430 C431 1.347 . S
C430 H453 0.931 . S
C431 C430 1.347 . S
C431 C432 1.369 . S
C432 C431 1.369 . S
C432 C433 1.408 . S
C432 H454 0.930 . S
C433 C428 1.348 . S
C433 C432 1.408 . S
C433 H455 0.930 . S
C434 O444 1.281 . S
C434 O445 1.254 . S
C435 O446 1.236 . S
C435 O447 1.266 . S
O436 Tb416 2.531 . S
O436 C418 1.249 . S
O437 Tb416 2.440 . S
O437 C418 1.280 . S
O438 Tb416 2.658 . S
O438 Tb417 2.325 . S
O438 C425 1.281 . S
O439 Tb416 2.409 . S
O439 C425 1.254 . S
O440 Tb416 2.378 1_565 S
O440 C426 1.236 . S
O441 Tb417 2.341 1_565 S
O441 C426 1.266 . S
O442 Tb417 2.484 . S
O442 C427 1.248 . S
O443 Tb417 2.440 . S
O443 C427 1.266 . S
O444 Tb416 2.325 . S
O444 Tb417 2.658 . S
O444 C434 1.281 . S
O445 Tb417 2.409 . S
O445 C434 1.254 . S
O446 Tb417 2.378 . S
O446 C435 1.236 . S
O447 Tb416 2.341 . S
O447 C435 1.266 . S
H448 C420 0.929 . S
H449 C421 0.931 . S
H450 C423 0.930 . S
H451 C424 0.930 . S
H452 C429 0.929 . S
H453 C430 0.931 . S
H454 C432 0.930 . S
H455 C433 0.930 . S
Tb456 C458 2.809 . S
Tb456 O476 2.484 . S
Tb456 O477 2.440 . S
Tb456 O478 2.658 . S
Tb456 O479 2.409 . S
Tb456 O480 2.378 . S
Tb456 O484 2.325 . S
Tb456 O487 2.341 . S
Tb457 C467 2.809 . S
Tb457 O478 2.325 . S
Tb457 O481 2.341 . S
Tb457 O482 2.484 . S
Tb457 O483 2.440 . S
Tb457 O484 2.658 . S
Tb457 O485 2.409 . S
Tb457 O486 2.378 . S
C458 Tb456 2.809 . S
C458 C459 1.514 . S
C458 O476 1.248 . S
C458 O477 1.266 . S
C459 C458 1.514 . S
C459 C460 1.359 . S
C459 C464 1.348 . S
C460 C459 1.359 . S
C460 C461 1.380 . S
C460 H488 0.929 . S
C461 C460 1.380 . S
C461 C462 1.347 . S
C461 H489 0.931 . S
C462 C461 1.347 . S
C462 C463 1.369 . S
C463 C462 1.369 . S
C463 C464 1.408 . S
C463 H490 0.930 . S
C464 C459 1.348 . S
C464 C463 1.408 . S
C464 H491 0.930 . S
C465 O478 1.281 . S
C465 O479 1.254 . S
C466 O480 1.236 . S
C466 O481 1.266 . S
C467 Tb457 2.809 . S
C467 C468 1.514 . S
C467 O482 1.248 . S
C467 O483 1.266 . S
C468 C467 1.514 . S
C468 C469 1.359 . S
C468 C473 1.348 . S
C469 C468 1.359 . S
C469 C470 1.380 . S
C469 H492 0.929 . S
C470 C469 1.380 . S
C470 C471 1.347 . S
C470 H493 0.931 . S
C471 C470 1.347 . S
C471 C472 1.369 . S
C472 C471 1.369 . S
C472 C473 1.408 . S
C472 H494 0.930 . S
C473 C468 1.348 . S
C473 C472 1.408 . S
C473 H495 0.930 . S
C474 O484 1.281 . S
C474 O485 1.254 . S
C475 O486 1.236 . S
C475 O487 1.266 . S
O476 Tb456 2.484 . S
O476 C458 1.248 . S
O477 Tb456 2.440 . S
O477 C458 1.266 . S
O478 Tb456 2.658 . S
O478 Tb457 2.325 . S
O478 C465 1.281 . S
O479 Tb456 2.409 . S
O479 C465 1.254 . S
O480 Tb456 2.378 . S
O480 C466 1.236 . S
O481 Tb457 2.341 . S
O481 C466 1.266 . S
O482 Tb457 2.484 . S
O482 C467 1.248 . S
O483 Tb457 2.440 . S
O483 C467 1.266 . S
O484 Tb456 2.325 . S
O484 Tb457 2.658 . S
O484 C474 1.281 . S
O485 Tb457 2.409 . S
O485 C474 1.254 . S
O486 Tb457 2.378 . S
O486 C475 1.236 . S
O487 Tb456 2.341 . S
O487 C475 1.266 . S
H488 C460 0.929 . S
H489 C461 0.931 . S
H490 C463 0.930 . S
H491 C464 0.930 . S
H492 C469 0.929 . S
H493 C470 0.931 . S
H494 C472 0.930 . S
H495 C473 0.930 . S
Tb496 C498 2.809 . S
Tb496 O516 2.484 . S
Tb496 O517 2.440 . S
Tb496 O518 2.658 . S
Tb496 O519 2.409 . S
Tb496 O520 2.378 . S
Tb496 O524 2.325 . S
Tb496 O527 2.341 . S
Tb497 C507 2.809 . S
Tb497 O518 2.325 1_565 S
Tb497 O521 2.341 1_565 S
Tb497 O522 2.484 . S
Tb497 O523 2.440 . S
Tb497 O524 2.658 1_565 S
Tb497 O525 2.409 1_565 S
Tb497 O526 2.378 1_565 S
C498 Tb496 2.809 . S
C498 C499 1.514 . S
C498 O516 1.248 . S
C498 O517 1.266 . S
C499 C498 1.514 . S
C499 C500 1.359 . S
C499 C504 1.348 . S
C500 C499 1.359 . S
C500 C501 1.380 . S
C500 H528 0.929 . S
C501 C500 1.380 . S
C501 C502 1.347 . S
C501 H529 0.931 . S
C502 C501 1.347 . S
C502 C503 1.369 . S
C503 C502 1.369 . S
C503 C504 1.408 . S
C503 H530 0.930 1_455 S
C504 C499 1.348 . S
C504 C503 1.408 . S
C504 H531 0.930 1_455 S
C505 O518 1.281 . S
C505 O519 1.254 . S
C506 O520 1.236 . S
C506 O521 1.266 . S
C507 Tb497 2.809 . S
C507 C508 1.514 . S
C507 O522 1.248 . S
C507 O523 1.266 . S
C508 C507 1.514 . S
C508 C509 1.359 . S
C508 C513 1.348 . S
C509 C508 1.359 . S
C509 C510 1.380 . S
C509 H532 0.929 . S
C510 C509 1.380 . S
C510 C511 1.347 . S
C510 H533 0.931 . S
C511 C510 1.347 . S
C511 C512 1.369 . S
C512 C511 1.369 . S
C512 C513 1.408 . S
C512 H534 0.930 . S
C513 C508 1.348 . S
C513 C512 1.408 . S
C513 H535 0.930 . S
C514 O524 1.281 . S
C514 O525 1.254 . S
C515 O526 1.236 . S
C515 O527 1.266 . S
O516 Tb496 2.484 . S
O516 C498 1.248 . S
O517 Tb496 2.440 . S
O517 C498 1.266 . S
O518 Tb496 2.658 . S
O518 Tb497 2.325 1_545 S
O518 C505 1.281 . S
O519 Tb496 2.409 . S
O519 C505 1.254 . S
O520 Tb496 2.378 . S
O520 C506 1.236 . S
O521 Tb497 2.341 1_545 S
O521 C506 1.266 . S
O522 Tb497 2.484 . S
O522 C507 1.248 . S
O523 Tb497 2.440 . S
O523 C507 1.266 . S
O524 Tb496 2.325 . S
O524 Tb497 2.658 1_545 S
O524 C514 1.281 . S
O525 Tb497 2.409 1_545 S
O525 C514 1.254 . S
O526 Tb497 2.378 1_545 S
O526 C515 1.236 . S
O527 Tb496 2.341 . S
O527 C515 1.266 . S
H528 C500 0.929 . S
H529 C501 0.931 . S
H530 C503 0.930 1_655 S
H531 C504 0.930 1_655 S
H532 C509 0.929 . S
H533 C510 0.931 . S
H534 C512 0.930 . S
H535 C513 0.930 . S
Tb536 C538 2.809 . S
Tb536 O556 2.484 . S
Tb536 O557 2.440 . S
Tb536 O558 2.658 . S
Tb536 O559 2.409 . S
Tb536 O560 2.378 . S
Tb536 O564 2.325 . S
Tb536 O567 2.341 . S
Tb537 C547 2.809 . S
Tb537 O558 2.325 . S
Tb537 O561 2.341 . S
Tb537 O562 2.484 . S
Tb537 O563 2.440 . S
Tb537 O564 2.658 . S
Tb537 O565 2.409 . S
Tb537 O566 2.378 . S
C538 Tb536 2.809 . S
C538 C539 1.514 . S
C538 O556 1.248 . S
C538 O557 1.266 . S
C539 C538 1.514 . S
C539 C540 1.359 . S
C539 C544 1.348 . S
C540 C539 1.359 . S
C540 C541 1.380 . S
C540 H568 0.929 . S
C541 C540 1.380 . S
C541 C542 1.347 . S
C541 H569 0.931 . S
C542 C541 1.347 . S
C542 C543 1.369 . S
C543 C542 1.369 . S
C543 C544 1.408 . S
C543 H570 0.930 . S
C544 C539 1.348 . S
C544 C543 1.408 . S
C544 H571 0.930 . S
C545 O558 1.281 . S
C545 O559 1.254 . S
C546 O560 1.236 . S
C546 O561 1.266 . S
C547 Tb537 2.809 . S
C547 C548 1.514 . S
C547 O562 1.248 . S
C547 O563 1.266 . S
C548 C547 1.514 . S
C548 C549 1.359 . S
C548 C553 1.348 . S
C549 C548 1.359 . S
C549 C550 1.380 . S
C549 H572 0.929 . S
C550 C549 1.380 . S
C550 C551 1.347 . S
C550 H573 0.931 . S
C551 C550 1.347 . S
C551 C552 1.369 . S
C552 C551 1.369 . S
C552 C553 1.408 . S
C552 H574 0.930 . S
C553 C548 1.348 . S
C553 C552 1.408 . S
C553 H575 0.930 . S
C554 O564 1.281 . S
C554 O565 1.254 . S
C555 O566 1.236 . S
C555 O567 1.266 . S
O556 Tb536 2.484 . S
O556 C538 1.248 . S
O557 Tb536 2.440 . S
O557 C538 1.266 . S
O558 Tb536 2.658 . S
O558 Tb537 2.325 . S
O558 C545 1.281 . S
O559 Tb536 2.409 . S
O559 C545 1.254 . S
O560 Tb536 2.378 . S
O560 C546 1.236 . S
O561 Tb537 2.341 . S
O561 C546 1.266 . S
O562 Tb537 2.484 . S
O562 C547 1.248 . S
O563 Tb537 2.440 . S
O563 C547 1.266 . S
O564 Tb536 2.325 . S
O564 Tb537 2.658 . S
O564 C554 1.281 . S
O565 Tb537 2.409 . S
O565 C554 1.254 . S
O566 Tb537 2.378 . S
O566 C555 1.236 . S
O567 Tb536 2.341 . S
O567 C555 1.266 . S
H568 C540 0.929 . S
H569 C541 0.931 . S
H570 C543 0.930 . S
H571 C544 0.930 . S
H572 C549 0.929 . S
H573 C550 0.931 . S
H574 C552 0.930 . S
H575 C553 0.930 . S
Tb576 C578 2.809 1_545 S
Tb576 O596 2.484 1_545 S
Tb576 O597 2.440 . S
Tb576 O598 2.658 . S
Tb576 O599 2.409 . S
Tb576 O600 2.378 . S
Tb576 O604 2.325 1_545 S
Tb576 O607 2.341 . S
Tb577 C587 2.809 . S
Tb577 O598 2.325 . S
Tb577 O601 2.341 . S
Tb577 O602 2.484 . S
Tb577 O603 2.440 . S
Tb577 O604 2.658 1_545 S
Tb577 O605 2.409 1_545 S
Tb577 O606 2.378 . S
C578 Tb576 2.809 1_565 S
C578 C579 1.514 . S
C578 O596 1.248 . S
C578 O597 1.266 1_565 S
C579 C578 1.514 . S
C579 C580 1.359 . S
C579 C584 1.391 . S
C580 C579 1.359 . S
C580 C581 1.380 . S
C580 H608 0.929 . S
C581 C580 1.380 . S
C581 C582 1.347 . S
C581 H609 0.931 . S
C582 C581 1.347 . S
C582 C583 1.369 . S
C583 C582 1.369 . S
C583 C584 1.418 . S
C583 H610 0.941 . S
C584 C579 1.391 . S
C584 C583 1.418 . S
C584 H611 0.879 1_565 S
C585 O598 1.281 . S
C585 O599 1.254 . S
C586 O600 1.236 . S
C586 O601 1.266 . S
C587 Tb577 2.809 . S
C587 C588 1.514 . S
C587 O602 1.248 . S
C587 O603 1.266 . S
C588 C587 1.514 . S
C588 C589 1.359 . S
C588 C593 1.348 . S
C589 C588 1.359 . S
C589 C590 1.380 . S
C589 H612 0.929 . S
C590 C589 1.380 . S
C590 C591 1.347 . S
C590 H613 0.931 . S
C591 C590 1.347 . S
C591 C592 1.369 . S
C592 C591 1.369 . S
C592 C593 1.408 . S
C592 H614 0.930 . S
C593 C588 1.348 . S
C593 C592 1.408 . S
C593 H615 0.930 . S
C594 O604 1.281 . S
C594 O605 1.254 . S
C595 O606 1.236 . S
C595 O607 1.266 . S
O596 Tb576 2.484 1_565 S
O596 C578 1.248 . S
O597 Tb576 2.440 . S
O597 C578 1.266 1_545 S
O598 Tb576 2.658 . S
O598 Tb577 2.325 . S
O598 C585 1.281 . S
O599 Tb576 2.409 . S
O599 C585 1.254 . S
O600 Tb576 2.378 . S
O600 C586 1.236 . S
O601 Tb577 2.341 . S
O601 C586 1.266 . S
O602 Tb577 2.484 . S
O602 C587 1.248 . S
O603 Tb577 2.440 . S
O603 C587 1.266 . S
O604 Tb576 2.325 1_565 S
O604 Tb577 2.658 1_565 S
O604 C594 1.281 . S
O605 Tb577 2.409 1_565 S
O605 C594 1.254 . S
O606 Tb577 2.378 . S
O606 C595 1.236 . S
O607 Tb576 2.341 . S
O607 C595 1.266 . S
H608 C580 0.929 . S
H609 C581 0.931 . S
H610 C583 0.941 . S
H611 C584 0.879 1_545 S
H612 C589 0.929 . S
H613 C590 0.931 . S
H614 C592 0.930 . S
H615 C593 0.930 . S
Tb616 C618 2.809 . S
Tb616 O636 2.484 . S
Tb616 O637 2.440 . S
Tb616 O638 2.658 . S
Tb616 O639 2.409 . S
Tb616 O640 2.378 . S
Tb616 O644 2.325 . S
Tb616 O647 2.341 . S
Tb617 C627 2.809 . S
Tb617 O638 2.325 . S
Tb617 O641 2.341 . S
Tb617 O642 2.484 . S
Tb617 O643 2.440 . S
Tb617 O644 2.658 . S
Tb617 O645 2.409 . S
Tb617 O646 2.378 . S
C618 Tb616 2.809 . S
C618 C619 1.514 . S
C618 O636 1.248 . S
C618 O637 1.266 . S
C619 C618 1.514 . S
C619 C620 1.359 . S
C619 C624 1.348 . S
C620 C619 1.359 . S
C620 C621 1.380 . S
C620 H648 0.929 . S
C621 C620 1.380 . S
C621 C622 1.347 . S
C621 H649 0.931 . S
C622 C621 1.347 . S
C622 C623 1.369 . S
C623 C622 1.369 . S
C623 C624 1.408 . S
C623 H650 0.930 . S
C624 C619 1.348 . S
C624 C623 1.408 . S
C624 H651 0.930 . S
C625 O638 1.281 . S
C625 O639 1.254 . S
C626 O640 1.236 . S
C626 O641 1.266 . S
C627 Tb617 2.809 . S
C627 C628 1.514 . S
C627 O642 1.248 . S
C627 O643 1.266 . S
C628 C627 1.514 . S
C628 C629 1.359 . S
C628 C633 1.348 . S
C629 C628 1.359 . S
C629 C630 1.380 . S
C629 H652 0.929 . S
C630 C629 1.380 . S
C630 C631 1.347 . S
C630 H653 0.931 . S
C631 C630 1.347 . S
C631 C632 1.369 . S
C632 C631 1.369 . S
C632 C633 1.408 . S
C632 H654 0.930 . S
C633 C628 1.348 . S
C633 C632 1.408 . S
C633 H655 0.930 . S
C634 O644 1.281 . S
C634 O645 1.254 . S
C635 O646 1.236 . S
C635 O647 1.266 . S
O636 Tb616 2.484 . S
O636 C618 1.248 . S
O637 Tb616 2.440 . S
O637 C618 1.266 . S
O638 Tb616 2.658 . S
O638 Tb617 2.325 . S
O638 C625 1.281 . S
O639 Tb616 2.409 . S
O639 C625 1.254 . S
O640 Tb616 2.378 . S
O640 C626 1.236 . S
O641 Tb617 2.341 . S
O641 C626 1.266 . S
O642 Tb617 2.484 . S
O642 C627 1.248 . S
O643 Tb617 2.440 . S
O643 C627 1.266 . S
O644 Tb616 2.325 . S
O644 Tb617 2.658 . S
O644 C634 1.281 . S
O645 Tb617 2.409 . S
O645 C634 1.254 . S
O646 Tb617 2.378 . S
O646 C635 1.236 . S
O647 Tb616 2.341 . S
O647 C635 1.266 . S
H648 C620 0.929 . S
H649 C621 0.931 . S
H650 C623 0.930 . S
H651 C624 0.930 . S
H652 C629 0.929 . S
H653 C630 0.931 . S
H654 C632 0.930 . S
H655 C633 0.930 . S
Tb656 C658 2.809 . S
Tb656 O676 2.484 . S
Tb656 O677 2.440 . S
Tb656 O678 2.658 . S
Tb656 O679 2.409 . S
Tb656 O680 2.378 . S
Tb656 O684 2.325 . S
Tb656 O687 2.341 . S
Tb657 C667 2.809 . S
Tb657 O678 2.325 . S
Tb657 O681 2.341 . S
Tb657 O682 2.484 . S
Tb657 O683 2.440 . S
Tb657 O684 2.658 . S
Tb657 O685 2.409 . S
Tb657 O686 2.378 . S
C658 Tb656 2.809 . S
C658 C659 1.514 . S
C658 O676 1.248 . S
C658 O677 1.266 . S
C659 C658 1.514 . S
C659 C660 1.359 . S
C659 C664 1.348 . S
C660 C659 1.359 . S
C660 C661 1.380 1_554 S
C660 H688 0.929 . S
C661 C660 1.380 1_556 S
C661 C662 1.347 . S
C661 H689 0.931 . S
C662 C661 1.347 . S
C662 C663 1.369 1_556 S
C663 C662 1.369 1_554 S
C663 C664 1.408 . S
C663 H690 0.930 . S
C664 C659 1.348 . S
C664 C663 1.408 . S
C664 H691 0.930 . S
C665 O678 1.281 . S
C665 O679 1.254 . S
C666 O680 1.236 . S
C666 O681 1.266 . S
C667 Tb657 2.809 . S
C667 C668 1.514 . S
C667 O682 1.248 . S
C667 O683 1.266 . S
C668 C667 1.514 . S
C668 C669 1.359 . S
C668 C673 1.348 . S
C669 C668 1.359 . S
C669 C670 1.380 . S
C669 H692 0.929 . S
C670 C669 1.380 . S
C670 C671 1.347 . S
C670 H693 0.931 . S
C671 C670 1.347 . S
C671 C672 1.369 . S
C672 C671 1.369 . S
C672 C673 1.408 . S
C672 H694 0.930 . S
C673 C668 1.348 . S
C673 C672 1.408 . S
C673 H695 0.930 . S
C674 O684 1.281 . S
C674 O685 1.254 . S
C675 O686 1.236 . S
C675 O687 1.266 . S
O676 Tb656 2.484 . S
O676 C658 1.248 . S
O677 Tb656 2.440 . S
O677 C658 1.266 . S
O678 Tb656 2.658 . S
O678 Tb657 2.325 . S
O678 C665 1.281 . S
O679 Tb656 2.409 . S
O679 C665 1.254 . S
O680 Tb656 2.378 . S
O680 C666 1.236 . S
O681 Tb657 2.341 . S
O681 C666 1.266 . S
O682 Tb657 2.484 . S
O682 C667 1.248 . S
O683 Tb657 2.440 . S
O683 C667 1.266 . S
O684 Tb656 2.325 . S
O684 Tb657 2.658 . S
O684 C674 1.281 . S
O685 Tb657 2.409 . S
O685 C674 1.254 . S
O686 Tb657 2.378 . S
O686 C675 1.236 . S
O687 Tb656 2.341 . S
O687 C675 1.266 . S
H688 C660 0.929 . S
H689 C661 0.931 . S
H690 C663 0.930 . S
H691 C664 0.930 . S
H692 C669 0.929 . S
H693 C670 0.931 . S
H694 C672 0.930 . S
H695 C673 0.930 . S
Tb696 C698 2.809 . S
Tb696 O716 2.484 . S
Tb696 O717 2.440 . S
Tb696 O718 2.658 . S
Tb696 O719 2.409 . S
Tb696 O720 2.378 . S
Tb696 O724 2.325 . S
Tb696 O727 2.341 . S
Tb697 C707 2.809 . S
Tb697 O718 2.325 . S
Tb697 O721 2.341 . S
Tb697 O722 2.484 . S
Tb697 O723 2.440 . S
Tb697 O724 2.658 . S
Tb697 O725 2.409 . S
Tb697 O726 2.378 . S
C698 Tb696 2.809 . S
C698 C699 1.514 . S
C698 O716 1.248 . S
C698 O717 1.266 . S
C699 C698 1.514 . S
C699 C700 1.359 . S
C699 C704 1.348 . S
C700 C699 1.359 . S
C700 C701 1.380 . S
C700 H728 0.929 . S
C701 C700 1.380 . S
C701 C702 1.347 . S
C701 H729 0.931 . S
C702 C701 1.347 . S
C702 C703 1.369 . S
C703 C702 1.369 . S
C703 C704 1.408 . S
C703 H730 0.930 . S
C704 C699 1.348 . S
C704 C703 1.408 . S
C704 H731 0.930 . S
C705 O718 1.281 . S
C705 O719 1.254 . S
C706 O720 1.236 . S
C706 O721 1.266 . S
C707 Tb697 2.809 . S
C707 C708 1.514 . S
C707 O722 1.248 . S
C707 O723 1.266 . S
C708 C707 1.514 . S
C708 C709 1.359 . S
C708 C713 1.348 . S
C709 C708 1.359 . S
C709 C710 1.380 . S
C709 H732 0.929 . S
C710 C709 1.380 . S
C710 C711 1.347 . S
C710 H733 0.931 . S
C711 C710 1.347 . S
C711 C712 1.369 . S
C712 C711 1.369 . S
C712 C713 1.408 . S
C712 H734 0.930 . S
C713 C708 1.348 . S
C713 C712 1.408 . S
C713 H735 0.930 . S
C714 O724 1.281 . S
C714 O725 1.254 . S
C715 O726 1.236 . S
C715 O727 1.266 . S
O716 Tb696 2.484 . S
O716 C698 1.248 . S
O717 Tb696 2.440 . S
O717 C698 1.266 . S
O718 Tb696 2.658 . S
O718 Tb697 2.325 . S
O718 C705 1.281 . S
O719 Tb696 2.409 . S
O719 C705 1.254 . S
O720 Tb696 2.378 . S
O720 C706 1.236 . S
O721 Tb697 2.341 . S
O721 C706 1.266 . S
O722 Tb697 2.484 . S
O722 C707 1.248 . S
O723 Tb697 2.440 . S
O723 C707 1.266 . S
O724 Tb696 2.325 . S
O724 Tb697 2.658 . S
O724 C714 1.281 . S
O725 Tb697 2.409 . S
O725 C714 1.254 . S
O726 Tb697 2.378 . S
O726 C715 1.236 . S
O727 Tb696 2.341 . S
O727 C715 1.266 . S
H728 C700 0.929 . S
H729 C701 0.931 . S
H730 C703 0.930 . S
H731 C704 0.930 . S
H732 C709 0.929 . S
H733 C710 0.931 . S
H734 C712 0.930 . S
H735 C713 0.930 . S
Tb736 C738 2.809 1_455 S
Tb736 O756 2.484 1_455 S
Tb736 O757 2.440 1_455 S
Tb736 O758 2.658 . S
Tb736 O759 2.409 . S
Tb736 O760 2.378 . S
Tb736 O764 2.325 . S
Tb736 O767 2.341 . S
Tb737 C747 2.809 . S
Tb737 O758 2.325 . S
Tb737 O761 2.341 . S
Tb737 O762 2.484 . S
Tb737 O763 2.440 . S
Tb737 O764 2.658 . S
Tb737 O765 2.409 . S
Tb737 O766 2.378 . S
C738 Tb736 2.809 1_655 S
C738 C739 1.514 . S
C738 O756 1.248 . S
C738 O757 1.266 . S
C739 C738 1.514 . S
C739 C740 1.359 . S
C739 C744 1.348 . S
C740 C739 1.359 . S
C740 C741 1.380 . S
C740 H768 0.929 . S
C741 C740 1.380 . S
C741 C742 1.347 . S
C741 H769 0.931 . S
C742 C741 1.347 . S
C742 C743 1.369 . S
C743 C742 1.369 . S
C743 C744 1.408 . S
C743 H770 0.930 . S
C744 C739 1.348 . S
C744 C743 1.408 . S
C744 H771 0.930 . S
C745 O758 1.281 . S
C745 O759 1.254 . S
C746 O760 1.236 . S
C746 O761 1.266 . S
C747 Tb737 2.809 . S
C747 C748 1.514 . S
C747 O762 1.248 . S
C747 O763 1.266 . S
C748 C747 1.514 . S
C748 C749 1.359 . S
C748 C753 1.348 . S
C749 C748 1.359 . S
C749 C750 1.380 . S
C749 H772 0.929 . S
C750 C749 1.380 . S
C750 C751 1.347 . S
C750 H773 0.931 . S
C751 C750 1.347 . S
C751 C752 1.369 . S
C752 C751 1.369 . S
C752 C753 1.408 . S
C752 H774 0.930 . S
C753 C748 1.348 . S
C753 C752 1.408 . S
C753 H775 0.930 . S
C754 O764 1.281 . S
C754 O765 1.254 . S
C755 O766 1.236 . S
C755 O767 1.266 . S
O756 Tb736 2.484 1_655 S
O756 C738 1.248 . S
O757 Tb736 2.440 1_655 S
O757 C738 1.266 . S
O758 Tb736 2.658 . S
O758 Tb737 2.325 . S
O758 C745 1.281 . S
O759 Tb736 2.409 . S
O759 C745 1.254 . S
O760 Tb736 2.378 . S
O760 C746 1.236 . S
O761 Tb737 2.341 . S
O761 C746 1.266 . S
O762 Tb737 2.484 . S
O762 C747 1.248 . S
O763 Tb737 2.440 . S
O763 C747 1.266 . S
O764 Tb736 2.325 . S
O764 Tb737 2.658 . S
O764 C754 1.281 . S
O765 Tb737 2.409 . S
O765 C754 1.254 . S
O766 Tb737 2.378 . S
O766 C755 1.236 . S
O767 Tb736 2.341 . S
O767 C755 1.266 . S
H768 C740 0.929 . S
H769 C741 0.931 . S
H770 C743 0.930 . S
H771 C744 0.930 . S
H772 C749 0.929 . S
H773 C750 0.931 . S
H774 C752 0.930 . S
H775 C753 0.930 . S
Tb776 C778 2.809 . S
Tb776 O796 2.484 . S
Tb776 O797 2.440 . S
Tb776 O798 2.658 . S
Tb776 O799 2.409 . S
Tb776 O800 2.378 . S
Tb776 O804 2.325 . S
Tb776 O807 2.341 . S
Tb777 C787 2.809 . S
Tb777 O798 2.325 . S
Tb777 O801 2.341 . S
Tb777 O802 2.484 . S
Tb777 O803 2.440 . S
Tb777 O804 2.658 . S
Tb777 O805 2.409 . S
Tb777 O806 2.378 . S
C778 Tb776 2.809 . S
C778 C779 1.514 . S
C778 O796 1.248 . S
C778 O797 1.266 . S
C779 C778 1.514 . S
C779 C780 1.359 . S
C779 C784 1.348 . S
C780 C779 1.359 . S
C780 C781 1.380 . S
C780 H808 0.929 . S
C781 C780 1.380 . S
C781 C782 1.347 . S
C781 H809 0.931 . S
C782 C781 1.347 . S
C782 C783 1.369 . S
C783 C782 1.369 . S
C783 C784 1.408 . S
C783 H810 0.930 . S
C784 C779 1.348 . S
C784 C783 1.408 . S
C784 H811 0.930 . S
C785 O798 1.281 . S
C785 O799 1.254 . S
C786 O800 1.236 . S
C786 O801 1.266 . S
C787 Tb777 2.809 . S
C787 C788 1.514 . S
C787 O802 1.248 . S
C787 O803 1.266 . S
C788 C787 1.514 . S
C788 C789 1.359 . S
C788 C793 1.348 . S
C789 C788 1.359 . S
C789 C790 1.380 . S
C789 H812 0.929 . S
C790 C789 1.380 . S
C790 C791 1.347 . S
C790 H813 0.931 . S
C791 C790 1.347 . S
C791 C792 1.369 . S
C792 C791 1.369 . S
C792 C793 1.408 . S
C792 H814 0.930 . S
C793 C788 1.348 . S
C793 C792 1.408 . S
C793 H815 0.930 . S
C794 O804 1.281 . S
C794 O805 1.254 . S
C795 O806 1.236 . S
C795 O807 1.266 . S
O796 Tb776 2.484 . S
O796 C778 1.248 . S
O797 Tb776 2.440 . S
O797 C778 1.266 . S
O798 Tb776 2.658 . S
O798 Tb777 2.325 . S
O798 C785 1.281 . S
O799 Tb776 2.409 . S
O799 C785 1.254 . S
O800 Tb776 2.378 . S
O800 C786 1.236 . S
O801 Tb777 2.341 . S
O801 C786 1.266 . S
O802 Tb777 2.484 . S
O802 C787 1.248 . S
O803 Tb777 2.440 . S
O803 C787 1.266 . S
O804 Tb776 2.325 . S
O804 Tb777 2.658 . S
O804 C794 1.281 . S
O805 Tb777 2.409 . S
O805 C794 1.254 . S
O806 Tb777 2.378 . S
O806 C795 1.236 . S
O807 Tb776 2.341 . S
O807 C795 1.266 . S
H808 C780 0.929 . S
H809 C781 0.931 . S
H810 C783 0.930 . S
H811 C784 0.930 . S
H812 C789 0.929 . S
H813 C790 0.931 . S
H814 C792 0.930 . S
H815 C793 0.930 . S
Tb816 C818 2.809 . S
Tb816 O836 2.484 . S
Tb816 O837 2.440 . S
Tb816 O838 2.658 . S
Tb816 O839 2.409 . S
Tb816 O840 2.378 . S
Tb816 O844 2.325 . S
Tb816 O847 2.341 . S
Tb817 C827 2.809 . S
Tb817 O838 2.325 . S
Tb817 O841 2.341 . S
Tb817 O842 2.484 . S
Tb817 O843 2.440 . S
Tb817 O844 2.658 . S
Tb817 O845 2.409 . S
Tb817 O846 2.378 . S
C818 Tb816 2.809 . S
C818 C819 1.514 . S
C818 O836 1.248 . S
C818 O837 1.266 . S
C819 C818 1.514 . S
C819 C820 1.359 . S
C819 C824 1.348 . S
C820 C819 1.359 . S
C820 C821 1.380 . S
C820 H848 0.929 . S
C821 C820 1.380 . S
C821 C822 1.347 . S
C821 H849 0.931 . S
C822 C821 1.347 . S
C822 C823 1.369 . S
C823 C822 1.369 . S
C823 C824 1.408 . S
C823 H850 0.930 . S
C824 C819 1.348 . S
C824 C823 1.408 . S
C824 H851 0.930 . S
C825 O838 1.281 . S
C825 O839 1.254 . S
C826 O840 1.236 . S
C826 O841 1.266 . S
C827 Tb817 2.809 . S
C827 C828 1.514 . S
C827 O842 1.248 . S
C827 O843 1.266 . S
C828 C827 1.514 . S
C828 C829 1.359 . S
C828 C833 1.348 . S
C829 C828 1.359 . S
C829 C830 1.380 . S
C829 H852 0.929 . S
C830 C829 1.380 . S
C830 C831 1.347 . S
C830 H853 0.931 . S
C831 C830 1.347 . S
C831 C832 1.369 . S
C832 C831 1.369 . S
C832 C833 1.408 . S
C832 H854 0.930 . S
C833 C828 1.348 . S
C833 C832 1.408 . S
C833 H855 0.930 . S
C834 O844 1.281 . S
C834 O845 1.254 . S
C835 O846 1.236 . S
C835 O847 1.266 . S
O836 Tb816 2.484 . S
O836 C818 1.248 . S
O837 Tb816 2.440 . S
O837 C818 1.266 . S
O838 Tb816 2.658 . S
O838 Tb817 2.325 . S
O838 C825 1.281 . S
O839 Tb816 2.409 . S
O839 C825 1.254 . S
O840 Tb816 2.378 . S
O840 C826 1.236 . S
O841 Tb817 2.341 . S
O841 C826 1.266 . S
O842 Tb817 2.484 . S
O842 C827 1.248 . S
O843 Tb817 2.440 . S
O843 C827 1.266 . S
O844 Tb816 2.325 . S
O844 Tb817 2.658 . S
O844 C834 1.281 . S
O845 Tb817 2.409 . S
O845 C834 1.254 . S
O846 Tb817 2.378 . S
O846 C835 1.236 . S
O847 Tb816 2.341 . S
O847 C835 1.266 . S
H848 C820 0.929 . S
H849 C821 0.931 . S
H850 C823 0.930 . S
H851 C824 0.930 . S
H852 C829 0.929 . S
H853 C830 0.931 . S
H854 C832 0.930 . S
H855 C833 0.930 . S
Tb856 C858 2.809 . S
Tb856 O876 2.484 . S
Tb856 O877 2.440 . S
Tb856 O878 2.658 . S
Tb856 O879 2.409 . S
Tb856 O880 2.378 . S
Tb856 O884 2.325 . S
Tb856 O887 2.341 . S
Tb857 C867 2.809 . S
Tb857 O878 2.325 . S
Tb857 O881 2.341 . S
Tb857 O882 2.484 . S
Tb857 O883 2.440 . S
Tb857 O884 2.658 . S
Tb857 O885 2.409 . S
Tb857 O886 2.378 . S
C858 Tb856 2.809 . S
C858 C859 1.514 . S
C858 O876 1.248 . S
C858 O877 1.266 . S
C859 C858 1.514 . S
C859 C860 1.359 . S
C859 C864 1.348 . S
C860 C859 1.359 . S
C860 C861 1.380 . S
C860 H888 0.929 . S
C861 C860 1.380 . S
C861 C862 1.347 . S
C861 H889 0.931 . S
C862 C861 1.347 . S
C862 C863 1.369 . S
C863 C862 1.369 . S
C863 C864 1.408 . S
C863 H890 0.930 . S
C864 C859 1.348 . S
C864 C863 1.408 . S
C864 H891 0.930 . S
C865 O878 1.281 . S
C865 O879 1.254 . S
C866 O880 1.236 . S
C866 O881 1.266 . S
C867 Tb857 2.809 . S
C867 C868 1.514 . S
C867 O882 1.248 . S
C867 O883 1.266 . S
C868 C867 1.514 . S
C868 C869 1.359 . S
C868 C873 1.348 . S
C869 C868 1.359 . S
C869 C870 1.380 . S
C869 H892 0.929 . S
C870 C869 1.380 . S
C870 C871 1.347 . S
C870 H893 0.931 . S
C871 C870 1.347 . S
C871 C872 1.369 . S
C872 C871 1.369 . S
C872 C873 1.408 . S
C872 H894 0.930 . S
C873 C868 1.348 . S
C873 C872 1.408 . S
C873 H895 0.930 . S
C874 O884 1.281 . S
C874 O885 1.254 . S
C875 O886 1.236 . S
C875 O887 1.266 . S
O876 Tb856 2.484 . S
O876 C858 1.248 . S
O877 Tb856 2.440 . S
O877 C858 1.266 . S
O878 Tb856 2.658 . S
O878 Tb857 2.325 . S
O878 C865 1.281 . S
O879 Tb856 2.409 . S
O879 C865 1.254 . S
O880 Tb856 2.378 . S
O880 C866 1.236 . S
O881 Tb857 2.341 . S
O881 C866 1.266 . S
O882 Tb857 2.484 . S
O882 C867 1.248 . S
O883 Tb857 2.440 . S
O883 C867 1.266 . S
O884 Tb856 2.325 . S
O884 Tb857 2.658 . S
O884 C874 1.281 . S
O885 Tb857 2.409 . S
O885 C874 1.254 . S
O886 Tb857 2.378 . S
O886 C875 1.236 . S
O887 Tb856 2.341 . S
O887 C875 1.266 . S
H888 C860 0.929 . S
H889 C861 0.931 . S
H890 C863 0.930 . S
H891 C864 0.930 . S
H892 C869 0.929 . S
H893 C870 0.931 . S
H894 C872 0.930 . S
H895 C873 0.930 . S
Tb896 C898 2.809 . S
Tb896 O916 2.484 . S
Tb896 O917 2.440 . S
Tb896 O918 2.658 . S
Tb896 O919 2.409 . S
Tb896 O920 2.378 . S
Tb896 O924 2.325 . S
Tb896 O927 2.341 . S
Tb897 C907 2.809 . S
Tb897 O918 2.325 . S
Tb897 O921 2.341 . S
Tb897 O922 2.484 . S
Tb897 O923 2.440 . S
Tb897 O924 2.658 . S
Tb897 O925 2.409 . S
Tb897 O926 2.378 . S
C898 Tb896 2.809 . S
C898 C899 1.514 . S
C898 O916 1.248 . S
C898 O917 1.266 . S
C899 C898 1.514 . S
C899 C900 1.359 . S
C899 C904 1.348 . S
C900 C899 1.359 . S
C900 C901 1.380 . S
C900 H928 0.929 . S
C901 C900 1.380 . S
C901 C902 1.347 . S
C901 H929 0.931 . S
C902 C901 1.347 . S
C902 C903 1.369 . S
C903 C902 1.369 . S
C903 C904 1.408 . S
C903 H930 0.930 . S
C904 C899 1.348 . S
C904 C903 1.408 . S
C904 H931 0.930 . S
C905 O918 1.281 . S
C905 O919 1.254 . S
C906 O920 1.236 . S
C906 O921 1.266 . S
C907 Tb897 2.809 . S
C907 C908 1.514 . S
C907 O922 1.248 . S
C907 O923 1.266 . S
C908 C907 1.514 . S
C908 C909 1.359 . S
C908 C913 1.348 . S
C909 C908 1.359 . S
C909 C910 1.380 . S
C909 H932 0.929 . S
C910 C909 1.380 . S
C910 C911 1.347 . S
C910 H933 0.931 . S
C911 C910 1.347 . S
C911 C912 1.369 . S
C912 C911 1.369 . S
C912 C913 1.408 . S
C912 H934 0.930 . S
C913 C908 1.348 . S
C913 C912 1.408 . S
C913 H935 0.930 . S
C914 O924 1.281 . S
C914 O925 1.254 . S
C915 O926 1.236 . S
C915 O927 1.266 . S
O916 Tb896 2.484 . S
O916 C898 1.248 . S
O917 Tb896 2.440 . S
O917 C898 1.266 . S
O918 Tb896 2.658 . S
O918 Tb897 2.325 . S
O918 C905 1.281 . S
O919 Tb896 2.409 . S
O919 C905 1.254 . S
O920 Tb896 2.378 . S
O920 C906 1.236 . S
O921 Tb897 2.341 . S
O921 C906 1.266 . S
O922 Tb897 2.484 . S
O922 C907 1.248 . S
O923 Tb897 2.440 . S
O923 C907 1.266 . S
O924 Tb896 2.325 . S
O924 Tb897 2.658 . S
O924 C914 1.281 . S
O925 Tb897 2.409 . S
O925 C914 1.254 . S
O926 Tb897 2.378 . S
O926 C915 1.236 . S
O927 Tb896 2.341 . S
O927 C915 1.266 . S
H928 C900 0.929 . S
H929 C901 0.931 . S
H930 C903 0.930 . S
H931 C904 0.930 . S
H932 C909 0.929 . S
H933 C910 0.931 . S
H934 C912 0.930 . S
H935 C913 0.930 . S
Tb936 C938 2.809 . S
Tb936 O956 2.484 . S
Tb936 O957 2.440 . S
Tb936 O958 2.658 . S
Tb936 O959 2.409 . S
Tb936 O960 2.378 . S
Tb936 O964 2.325 . S
Tb936 O967 2.341 . S
Tb937 C947 2.809 1_455 S
Tb937 O958 2.325 . S
Tb937 O961 2.341 . S
Tb937 O962 2.484 1_455 S
Tb937 O963 2.440 1_455 S
Tb937 O964 2.658 . S
Tb937 O965 2.409 . S
Tb937 O966 2.378 . S
C938 Tb936 2.809 . S
C938 C939 1.514 . S
C938 O956 1.248 . S
C938 O957 1.266 . S
C939 C938 1.514 . S
C939 C940 1.359 . S
C939 C944 1.348 . S
C940 C939 1.359 . S
C940 C941 1.380 . S
C940 H968 0.929 . S
C941 C940 1.380 . S
C941 C942 1.347 . S
C941 H969 0.931 . S
C942 C941 1.347 . S
C942 C943 1.369 . S
C943 C942 1.369 . S
C943 C944 1.408 . S
C943 H970 0.930 . S
C944 C939 1.348 . S
C944 C943 1.408 . S
C944 H971 0.930 . S
C945 O958 1.281 . S
C945 O959 1.254 . S
C946 O960 1.236 . S
C946 O961 1.266 . S
C947 Tb937 2.809 1_655 S
C947 C948 1.514 . S
C947 O962 1.248 . S
C947 O963 1.266 . S
C948 C947 1.514 . S
C948 C949 1.359 . S
C948 C953 1.348 . S
C949 C948 1.359 . S
C949 C950 1.380 . S
C949 H972 0.929 . S
C950 C949 1.380 . S
C950 C951 1.347 . S
C950 H973 0.931 . S
C951 C950 1.347 . S
C951 C952 1.369 . S
C952 C951 1.369 . S
C952 C953 1.408 . S
C952 H974 0.930 . S
C953 C948 1.348 . S
C953 C952 1.408 . S
C953 H975 0.930 . S
C954 O964 1.281 . S
C954 O965 1.254 . S
C955 O966 1.236 . S
C955 O967 1.266 . S
O956 Tb936 2.484 . S
O956 C938 1.248 . S
O957 Tb936 2.440 . S
O957 C938 1.266 . S
O958 Tb936 2.658 . S
O958 Tb937 2.325 . S
O958 C945 1.281 . S
O959 Tb936 2.409 . S
O959 C945 1.254 . S
O960 Tb936 2.378 . S
O960 C946 1.236 . S
O961 Tb937 2.341 . S
O961 C946 1.266 . S
O962 Tb937 2.484 1_655 S
O962 C947 1.248 . S
O963 Tb937 2.440 1_655 S
O963 C947 1.266 . S
O964 Tb936 2.325 . S
O964 Tb937 2.658 . S
O964 C954 1.281 . S
O965 Tb937 2.409 . S
O965 C954 1.254 . S
O966 Tb937 2.378 . S
O966 C955 1.236 . S
O967 Tb936 2.341 . S
O967 C955 1.266 . S
H968 C940 0.929 . S
H969 C941 0.931 . S
H970 C943 0.930 . S
H971 C944 0.930 . S
H972 C949 0.929 . S
H973 C950 0.931 . S
H974 C952 0.930 . S
H975 C953 0.930 . S
C976 C977 1.349 . S
C976 C978 1.327 . S
C976 H1001 0.950 . S
C977 C976 1.349 . S
C977 C993 1.349 . S
C978 C976 1.327 . S
C978 C997 1.429 . S
C978 H1002 0.950 . S
C979 C996 1.574 . S
C979 C998 1.368 . S
C979 H1003 0.949 . S
H980 C984 0.949 . S
C981 C982 1.349 . S
C981 C983 1.327 . S
C981 H1004 0.950 . S
C982 C981 1.349 . S
C982 C994 1.349 . S
C983 C981 1.327 . S
C983 C999 1.429 . S
C983 H1005 0.950 1_554 S
C984 H980 0.949 . S
C984 C992 1.574 . S
C984 C1000 1.368 . S
H985 C993 0.950 1_655 S
H986 C991 0.958 . S
H987 C992 0.949 . S
H988 C994 0.950 . S
H989 C995 0.950 . S
H990 C996 0.949 . S
C991 H986 0.958 . S
C991 C993 1.327 . S
C991 C997 1.429 . S
C992 C984 1.574 . S
C992 H987 0.949 . S
C992 C998 1.368 1_554 S
C993 C977 1.349 . S
C993 H985 0.950 1_455 S
C993 C991 1.327 . S
C994 C982 1.349 . S
C994 H988 0.950 . S
C994 C995 1.327 . S
C995 H989 0.950 . S
C995 C994 1.327 . S
C995 C999 1.429 . S
C996 C979 1.574 . S
C996 H990 0.949 . S
C996 C1000 1.368 1_556 S
C997 C978 1.429 . S
C997 C991 1.429 . S
C997 C998 1.523 . S
C998 C979 1.368 . S
C998 C992 1.368 1_556 S
C998 C997 1.523 . S
C999 C983 1.429 . S
C999 C995 1.429 . S
C999 C1000 1.523 . S
C1000 C984 1.368 . S
C1000 C996 1.368 1_554 S
C1000 C999 1.523 . S
H1001 C976 0.950 . S
H1002 C978 0.950 . S
H1003 C979 0.949 . S
H1004 C981 0.950 . S
H1005 C983 0.950 1_556 S
C1006 C1007 1.349 . S
C1006 C1008 1.327 . S
C1006 H1031 0.950 . S
C1007 C1006 1.349 . S
C1007 C1023 1.349 . S
C1008 C1006 1.327 . S
C1008 C1027 1.429 . S
C1008 H1032 0.950 . S
C1009 C1026 1.574 . S
C1009 C1028 1.368 . S
C1009 H1033 0.949 . S
H1010 C1014 0.949 . S
C1011 C1012 1.349 . S
C1011 C1013 1.327 . S
C1011 H1034 0.950 . S
C1012 C1011 1.349 . S
C1012 C1024 1.349 . S
C1013 C1011 1.327 . S
C1013 C1029 1.429 . S
C1013 H1035 0.950 . S
C1014 H1010 0.949 . S
C1014 C1022 1.574 . S
C1014 C1030 1.368 . S
H1015 C1023 0.950 . S
H1016 C1021 0.950 . S
H1017 C1022 0.949 . S
H1018 C1024 0.950 . S
H1019 C1025 0.950 . S
H1020 C1026 0.949 . S
C1021 H1016 0.950 . S
C1021 C1023 1.327 . S
C1021 C1027 1.429 . S
C1022 C1014 1.574 . S
C1022 H1017 0.949 . S
C1022 C1028 1.368 . S
C1023 C1007 1.349 . S
C1023 H1015 0.950 . S
C1023 C1021 1.327 . S
C1024 C1012 1.349 . S
C1024 H1018 0.950 . S
C1024 C1025 1.327 . S
C1025 H1019 0.950 . S
C1025 C1024 1.327 . S
C1025 C1029 1.429 . S
C1026 C1009 1.574 . S
C1026 H1020 0.949 . S
C1026 C1030 1.368 . S
C1027 C1008 1.429 . S
C1027 C1021 1.429 . S
C1027 C1028 1.523 . S
C1028 C1009 1.368 . S
C1028 C1022 1.368 . S
C1028 C1027 1.523 . S
C1029 C1013 1.429 . S
C1029 C1025 1.429 . S
C1029 C1030 1.523 . S
C1030 C1014 1.368 . S
C1030 C1026 1.368 . S
C1030 C1029 1.523 . S
H1031 C1006 0.950 . S
H1032 C1008 0.950 . S
H1033 C1009 0.949 . S
H1034 C1011 0.950 . S
H1035 C1013 0.950 . S
C1036 C1037 1.349 . S
C1036 C1038 1.327 . S
C1036 H1061 0.950 . S
C1037 C1036 1.349 . S
C1037 C1053 1.349 . S
C1038 C1036 1.327 . S
C1038 C1057 1.429 . S
C1038 H1062 0.950 . S
C1039 C1056 1.574 . S
C1039 C1058 1.368 . S
C1039 H1063 0.949 . S
H1040 C1044 0.949 . S
C1041 C1042 1.349 . S
C1041 C1043 1.327 . S
C1041 H1064 0.950 . S
C1042 C1041 1.349 . S
C1042 C1054 1.349 . S
C1043 C1041 1.327 . S
C1043 C1059 1.429 . S
C1043 H1065 0.950 . S
C1044 H1040 0.949 . S
C1044 C1052 1.574 . S
C1044 C1060 1.368 . S
H1045 C1053 0.950 . S
H1046 C1051 0.950 . S
H1047 C1052 0.949 . S
H1048 C1054 0.950 . S
H1049 C1055 0.950 . S
H1050 C1056 0.949 . S
C1051 H1046 0.950 . S
C1051 C1053 1.327 . S
C1051 C1057 1.429 . S
C1052 C1044 1.574 . S
C1052 H1047 0.949 . S
C1052 C1058 1.368 . S
C1053 C1037 1.349 . S
C1053 H1045 0.950 . S
C1053 C1051 1.327 . S
C1054 C1042 1.349 . S
C1054 H1048 0.950 . S
C1054 C1055 1.327 . S
C1055 H1049 0.950 . S
C1055 C1054 1.327 . S
C1055 C1059 1.429 . S
C1056 C1039 1.574 . S
C1056 H1050 0.949 . S
C1056 C1060 1.368 . S
C1057 C1038 1.429 . S
C1057 C1051 1.429 . S
C1057 C1058 1.523 . S
C1058 C1039 1.368 . S
C1058 C1052 1.368 . S
C1058 C1057 1.523 . S
C1059 C1043 1.429 . S
C1059 C1055 1.429 . S
C1059 C1060 1.523 . S
C1060 C1044 1.368 . S
C1060 C1056 1.368 . S
C1060 C1059 1.523 . S
H1061 C1036 0.950 . S
H1062 C1038 0.950 . S
H1063 C1039 0.949 . S
H1064 C1041 0.950 . S
H1065 C1043 0.950 . S
C1066 C1067 1.349 . S
C1066 C1068 1.327 . S
C1066 H1091 0.950 . S
C1067 C1066 1.349 . S
C1067 C1083 1.349 . S
C1068 C1066 1.327 . S
C1068 C1087 1.429 . S
C1068 H1092 0.950 . S
C1069 C1086 1.574 . S
C1069 C1088 1.368 . S
C1069 H1093 0.949 . S
H1070 C1074 0.949 . S
C1071 C1072 1.349 . S
C1071 C1073 1.327 . S
C1071 H1094 0.950 . S
C1072 C1071 1.349 . S
C1072 C1084 1.349 . S
C1073 C1071 1.327 . S
C1073 C1089 1.429 . S
C1073 H1095 0.950 . S
C1074 H1070 0.949 . S
C1074 C1082 1.574 . S
C1074 C1090 1.368 . S
H1075 C1083 0.950 . S
H1076 C1081 0.950 . S
H1077 C1082 0.949 . S
H1078 C1084 0.950 . S
H1079 C1085 0.950 . S
H1080 C1086 0.949 . S
C1081 H1076 0.950 . S
C1081 C1083 1.327 . S
C1081 C1087 1.429 . S
C1082 C1074 1.574 . S
C1082 H1077 0.949 . S
C1082 C1088 1.368 . S
C1083 C1067 1.349 . S
C1083 H1075 0.950 . S
C1083 C1081 1.327 . S
C1084 C1072 1.349 . S
C1084 H1078 0.950 . S
C1084 C1085 1.327 . S
C1085 H1079 0.950 . S
C1085 C1084 1.327 . S
C1085 C1089 1.429 . S
C1086 C1069 1.574 . S
C1086 H1080 0.949 . S
C1086 C1090 1.368 . S
C1087 C1068 1.429 . S
C1087 C1081 1.429 . S
C1087 C1088 1.523 . S
C1088 C1069 1.368 . S
C1088 C1082 1.368 . S
C1088 C1087 1.523 . S
C1089 C1073 1.429 . S
C1089 C1085 1.429 . S
C1089 C1090 1.523 . S
C1090 C1074 1.368 . S
C1090 C1086 1.368 . S
C1090 C1089 1.523 . S
H1091 C1066 0.950 . S
H1092 C1068 0.950 . S
H1093 C1069 0.949 . S
H1094 C1071 0.950 . S
H1095 C1073 0.950 . S
C1096 C1097 1.349 . S
C1096 C1098 1.327 . S
C1096 H1121 0.950 . S
C1097 C1096 1.349 . S
C1097 C1113 1.349 . S
C1098 C1096 1.327 . S
C1098 C1117 1.429 . S
C1098 H1122 0.950 . S
C1099 C1116 1.574 . S
C1099 C1118 1.368 . S
C1099 H1123 0.949 . S
H1100 C1104 0.949 . S
C1101 C1102 1.349 . S
C1101 C1103 1.327 . S
C1101 H1124 0.950 . S
C1102 C1101 1.349 . S
C1102 C1114 1.349 . S
C1103 C1101 1.327 . S
C1103 C1119 1.429 . S
C1103 H1125 0.950 . S
C1104 H1100 0.949 . S
C1104 C1112 1.574 . S
C1104 C1120 1.368 . S
H1105 C1113 0.950 . S
H1106 C1111 0.950 . S
H1107 C1112 0.949 . S
H1108 C1114 0.950 . S
H1109 C1115 0.950 . S
H1110 C1116 0.949 . S
C1111 H1106 0.950 . S
C1111 C1113 1.327 . S
C1111 C1117 1.429 . S
C1112 C1104 1.574 . S
C1112 H1107 0.949 . S
C1112 C1118 1.368 . S
C1113 C1097 1.349 . S
C1113 H1105 0.950 . S
C1113 C1111 1.327 . S
C1114 C1102 1.349 . S
C1114 H1108 0.950 . S
C1114 C1115 1.327 . S
C1115 H1109 0.950 . S
C1115 C1114 1.327 . S
C1115 C1119 1.429 . S
C1116 C1099 1.574 . S
C1116 H1110 0.949 . S
C1116 C1120 1.368 . S
C1117 C1098 1.429 . S
C1117 C1111 1.429 . S
C1117 C1118 1.523 . S
C1118 C1099 1.368 . S
C1118 C1112 1.368 . S
C1118 C1117 1.523 . S
C1119 C1103 1.429 . S
C1119 C1115 1.429 . S
C1119 C1120 1.523 . S
C1120 C1104 1.368 . S
C1120 C1116 1.368 . S
C1120 C1119 1.523 . S
H1121 C1096 0.950 . S
H1122 C1098 0.950 . S
H1123 C1099 0.949 . S
H1124 C1101 0.950 . S
H1125 C1103 0.950 . S
C1126 C1127 1.349 . S
C1126 C1128 1.327 . S
C1126 H1151 0.950 . S
C1127 C1126 1.349 . S
C1127 C1143 1.349 . S
C1128 C1126 1.327 . S
C1128 C1147 1.429 . S
C1128 H1152 0.950 . S
C1129 C1146 1.574 . S
C1129 C1148 1.368 . S
C1129 H1153 0.949 . S
H1130 C1134 0.949 . S
C1131 C1132 1.349 . S
C1131 C1133 1.327 . S
C1131 H1154 0.950 . S
C1132 C1131 1.349 . S
C1132 C1144 1.349 . S
C1133 C1131 1.327 . S
C1133 C1149 1.429 . S
C1133 H1155 0.950 . S
C1134 H1130 0.949 . S
C1134 C1142 1.574 . S
C1134 C1150 1.368 . S
H1135 C1143 0.950 . S
H1136 C1141 0.950 . S
H1137 C1142 0.949 . S
H1138 C1144 0.950 . S
H1139 C1145 0.950 . S
H1140 C1146 0.949 . S
C1141 H1136 0.950 . S
C1141 C1143 1.327 . S
C1141 C1147 1.429 . S
C1142 C1134 1.574 . S
C1142 H1137 0.949 . S
C1142 C1148 1.368 . S
C1143 C1127 1.349 . S
C1143 H1135 0.950 . S
C1143 C1141 1.327 . S
C1144 C1132 1.349 . S
C1144 H1138 0.950 . S
C1144 C1145 1.327 . S
C1145 H1139 0.950 . S
C1145 C1144 1.327 . S
C1145 C1149 1.429 . S
C1146 C1129 1.574 . S
C1146 H1140 0.949 . S
C1146 C1150 1.368 . S
C1147 C1128 1.429 . S
C1147 C1141 1.429 . S
C1147 C1148 1.523 . S
C1148 C1129 1.368 . S
C1148 C1142 1.368 . S
C1148 C1147 1.523 . S
C1149 C1133 1.429 . S
C1149 C1145 1.429 . S
C1149 C1150 1.523 . S
C1150 C1134 1.368 . S
C1150 C1146 1.368 . S
C1150 C1149 1.523 . S
H1151 C1126 0.950 . S
H1152 C1128 0.950 . S
H1153 C1129 0.949 . S
H1154 C1131 0.950 . S
H1155 C1133 0.950 . S
C1156 C1157 1.349 . S
C1156 C1158 1.327 . S
C1156 H1181 0.950 . S
C1157 C1156 1.349 . S
C1157 C1173 1.349 . S
C1158 C1156 1.327 . S
C1158 C1177 1.429 . S
C1158 H1182 0.950 . S
C1159 C1176 1.574 . S
C1159 C1178 1.368 . S
C1159 H1183 0.949 . S
H1160 C1164 0.949 . S
C1161 C1162 1.349 . S
C1161 C1163 1.327 . S
C1161 H1184 0.950 . S
C1162 C1161 1.349 . S
C1162 C1174 1.349 . S
C1163 C1161 1.327 . S
C1163 C1179 1.429 . S
C1163 H1185 0.950 . S
C1164 H1160 0.949 . S
C1164 C1172 1.574 . S
C1164 C1180 1.368 . S
H1165 C1173 0.950 . S
H1166 C1171 0.950 . S
H1167 C1172 0.949 . S
H1168 C1174 0.950 . S
H1169 C1175 0.950 . S
H1170 C1176 0.949 . S
C1171 H1166 0.950 . S
C1171 C1173 1.327 . S
C1171 C1177 1.429 . S
C1172 C1164 1.574 . S
C1172 H1167 0.949 . S
C1172 C1178 1.368 . S
C1173 C1157 1.349 . S
C1173 H1165 0.950 . S
C1173 C1171 1.327 . S
C1174 C1162 1.349 . S
C1174 H1168 0.950 . S
C1174 C1175 1.327 . S
C1175 H1169 0.950 . S
C1175 C1174 1.327 . S
C1175 C1179 1.429 . S
C1176 C1159 1.574 . S
C1176 H1170 0.949 . S
C1176 C1180 1.368 . S
C1177 C1158 1.429 . S
C1177 C1171 1.429 . S
C1177 C1178 1.523 . S
C1178 C1159 1.368 . S
C1178 C1172 1.368 . S
C1178 C1177 1.523 . S
C1179 C1163 1.429 . S
C1179 C1175 1.429 . S
C1179 C1180 1.523 . S
C1180 C1164 1.368 . S
C1180 C1176 1.368 . S
C1180 C1179 1.523 . S
H1181 C1156 0.950 . S
H1182 C1158 0.950 . S
H1183 C1159 0.949 . S
H1184 C1161 0.950 . S
H1185 C1163 0.950 . S
C1186 C1187 1.349 . S
C1186 C1188 1.327 . S
C1186 H1211 0.950 . S
C1187 C1186 1.349 . S
C1187 C1203 1.349 . S
C1188 C1186 1.327 . S
C1188 C1207 1.429 . S
C1188 H1212 0.950 . S
C1189 C1206 1.574 . S
C1189 C1208 1.368 . S
C1189 H1213 0.949 . S
H1190 C1194 0.949 . S
C1191 C1192 1.349 . S
C1191 C1193 1.327 . S
C1191 H1214 0.950 . S
C1192 C1191 1.349 . S
C1192 C1204 1.349 . S
C1193 C1191 1.327 . S
C1193 C1209 1.429 . S
C1193 H1215 0.950 . S
C1194 H1190 0.949 . S
C1194 C1202 1.574 . S
C1194 C1210 1.368 . S
H1195 C1203 0.950 . S
H1196 C1201 0.950 . S
H1197 C1202 0.949 . S
H1198 C1204 0.950 . S
H1199 C1205 0.950 . S
H1200 C1206 0.949 . S
C1201 H1196 0.950 . S
C1201 C1203 1.327 . S
C1201 C1207 1.429 . S
C1202 C1194 1.574 . S
C1202 H1197 0.949 . S
C1202 C1208 1.368 . S
C1203 C1187 1.349 . S
C1203 H1195 0.950 . S
C1203 C1201 1.327 . S
C1204 C1192 1.349 . S
C1204 H1198 0.950 . S
C1204 C1205 1.327 . S
C1205 H1199 0.950 . S
C1205 C1204 1.327 . S
C1205 C1209 1.429 . S
C1206 C1189 1.574 . S
C1206 H1200 0.949 . S
C1206 C1210 1.368 . S
C1207 C1188 1.429 . S
C1207 C1201 1.429 . S
C1207 C1208 1.523 . S
C1208 C1189 1.368 . S
C1208 C1202 1.368 . S
C1208 C1207 1.523 . S
C1209 C1193 1.429 . S
C1209 C1205 1.429 . S
C1209 C1210 1.523 . S
C1210 C1194 1.368 . S
C1210 C1206 1.368 . S
C1210 C1209 1.523 . S
H1211 C1186 0.950 . S
H1212 C1188 0.950 . S
H1213 C1189 0.949 . S
H1214 C1191 0.950 . S
H1215 C1193 0.950 . S
C1216 C1217 1.349 1_565 S
C1216 C1218 1.327 . S
C1216 H1241 0.950 . S
C1217 C1216 1.349 1_545 S
C1217 C1233 1.349 . S
C1218 C1216 1.327 . S
C1218 C1237 1.429 1_565 S
C1218 H1242 0.950 . S
C1219 C1236 1.607 . S
C1219 C1238 1.368 . S
C1219 H1243 0.949 . S
H1220 C1224 0.949 1_565 S
C1221 C1222 1.349 . S
C1221 C1223 1.327 . S
C1221 H1244 0.950 . S
C1222 C1221 1.349 . S
C1222 C1234 1.349 . S
C1223 C1221 1.327 . S
C1223 C1239 1.439 . S
C1223 H1245 0.950 . S
C1224 H1220 0.949 1_545 S
C1224 C1232 1.578 . S
C1224 C1240 1.368 . S
H1225 C1233 0.950 . S
H1226 C1231 0.950 . S
H1227 C1232 0.935 1_565 S
H1228 C1234 0.950 1_655 S
H1229 C1235 0.977 . S
H1230 C1236 0.909 1_455 S
C1231 H1226 0.950 . S
C1231 C1233 1.327 . S
C1231 C1237 1.429 . S
C1232 C1224 1.578 . S
C1232 H1227 0.935 1_545 S
C1232 C1238 1.380 . S
C1233 C1217 1.349 . S
C1233 H1225 0.950 . S
C1233 C1231 1.327 . S
C1234 C1222 1.349 . S
C1234 H1228 0.950 1_455 S
C1234 C1235 1.327 1_455 S
C1235 H1229 0.977 . S
C1235 C1234 1.327 1_655 S
C1235 C1239 1.427 1_655 S
C1236 C1219 1.607 . S
C1236 H1230 0.909 1_655 S
C1236 C1240 1.382 . S
C1237 C1218 1.429 1_545 S
C1237 C1231 1.429 . S
C1237 C1238 1.523 . S
C1238 C1219 1.368 . S
C1238 C1232 1.380 . S
C1238 C1237 1.523 . S
C1239 C1223 1.439 . S
C1239 C1235 1.427 1_455 S
C1239 C1240 1.515 1_455 S
C1240 C1224 1.368 . S
C1240 C1236 1.382 . S
C1240 C1239 1.515 1_655 S
H1241 C1216 0.950 . S
H1242 C1218 0.950 . S
H1243 C1219 0.949 . S
H1244 C1221 0.950 . S
H1245 C1223 0.950 . S
C1246 C1247 1.349 . S
C1246 C1248 1.327 . S
C1246 H1271 0.950 . S
C1247 C1246 1.349 . S
C1247 C1263 1.349 . S
C1248 C1246 1.327 . S
C1248 C1267 1.429 . S
C1248 H1272 0.950 . S
C1249 C1266 1.574 . S
C1249 C1268 1.368 . S
C1249 H1273 0.949 . S
H1250 C1254 0.949 . S
C1251 C1252 1.349 . S
C1251 C1253 1.327 . S
C1251 H1274 0.950 . S
C1252 C1251 1.349 . S
C1252 C1264 1.349 . S
C1253 C1251 1.327 . S
C1253 C1269 1.429 . S
C1253 H1275 0.950 . S
C1254 H1250 0.949 . S
C1254 C1262 1.574 . S
C1254 C1270 1.368 . S
H1255 C1263 0.950 . S
H1256 C1261 0.950 . S
H1257 C1262 0.949 . S
H1258 C1264 0.950 . S
H1259 C1265 0.950 . S
H1260 C1266 0.949 . S
C1261 H1256 0.950 . S
C1261 C1263 1.327 . S
C1261 C1267 1.429 . S
C1262 C1254 1.574 . S
C1262 H1257 0.949 . S
C1262 C1268 1.368 . S
C1263 C1247 1.349 . S
C1263 H1255 0.950 . S
C1263 C1261 1.327 . S
C1264 C1252 1.349 . S
C1264 H1258 0.950 . S
C1264 C1265 1.327 . S
C1265 H1259 0.950 . S
C1265 C1264 1.327 . S
C1265 C1269 1.429 . S
C1266 C1249 1.574 . S
C1266 H1260 0.949 . S
C1266 C1270 1.368 . S
C1267 C1248 1.429 . S
C1267 C1261 1.429 . S
C1267 C1268 1.523 . S
C1268 C1249 1.368 . S
C1268 C1262 1.368 . S
C1268 C1267 1.523 . S
C1269 C1253 1.429 . S
C1269 C1265 1.429 . S
C1269 C1270 1.523 . S
C1270 C1254 1.368 . S
C1270 C1266 1.368 . S
C1270 C1269 1.523 . S
H1271 C1246 0.950 . S
H1272 C1248 0.950 . S
H1273 C1249 0.949 . S
H1274 C1251 0.950 . S
H1275 C1253 0.950 . S
C1276 C1277 1.349 1_565 S
C1276 C1278 1.327 . S
C1276 H1301 0.950 . S
C1277 C1276 1.349 1_545 S
C1277 C1293 1.349 . S
C1278 C1276 1.327 . S
C1278 C1297 1.429 1_565 S
C1278 H1302 0.950 . S
C1279 C1296 1.574 . S
C1279 C1298 1.368 . S
C1279 H1303 0.949 . S
H1280 C1284 0.949 . S
C1281 C1282 1.349 . S
C1281 C1283 1.327 . S
C1281 H1304 0.950 . S
C1282 C1281 1.349 . S
C1282 C1294 1.349 1_545 S
C1283 C1281 1.327 . S
C1283 C1299 1.429 . S
C1283 H1305 0.950 . S
C1284 H1280 0.949 . S
C1284 C1292 1.574 . S
C1284 C1300 1.368 1_565 S
H1285 C1293 0.950 . S
H1286 C1291 0.950 . S
H1287 C1292 0.949 . S
H1288 C1294 0.950 . S
H1289 C1295 0.950 . S
H1290 C1296 0.949 . S
C1291 H1286 0.950 . S
C1291 C1293 1.327 . S
C1291 C1297 1.429 . S
C1292 C1284 1.574 . S
C1292 H1287 0.949 . S
C1292 C1298 1.368 1_565 S
C1293 C1277 1.349 . S
C1293 H1285 0.950 . S
C1293 C1291 1.327 . S
C1294 C1282 1.349 1_565 S
C1294 H1288 0.950 . S
C1294 C1295 1.327 . S
C1295 H1289 0.950 . S
C1295 C1294 1.327 . S
C1295 C1299 1.429 1_565 S
C1296 C1279 1.574 . S
C1296 H1290 0.949 . S
C1296 C1300 1.368 . S
C1297 C1278 1.429 1_545 S
C1297 C1291 1.429 . S
C1297 C1298 1.523 . S
C1298 C1279 1.368 . S
C1298 C1292 1.368 1_545 S
C1298 C1297 1.523 . S
C1299 C1283 1.429 . S
C1299 C1295 1.429 1_545 S
C1299 C1300 1.523 . S
C1300 C1284 1.368 1_545 S
C1300 C1296 1.368 . S
C1300 C1299 1.523 . S
H1301 C1276 0.950 . S
H1302 C1278 0.950 . S
H1303 C1279 0.949 . S
H1304 C1281 0.950 . S
H1305 C1283 0.950 . S
C1306 C1307 1.349 . S
C1306 C1308 1.327 . S
C1306 H1331 0.950 . S
C1307 C1306 1.349 . S
C1307 C1323 1.349 . S
C1308 C1306 1.327 . S
C1308 C1327 1.429 . S
C1308 H1332 0.950 . S
C1309 C1326 1.574 . S
C1309 C1328 1.368 . S
C1309 H1333 0.949 . S
H1310 C1314 0.949 . S
C1311 C1312 1.349 . S
C1311 C1313 1.327 . S
C1311 H1334 0.950 . S
C1312 C1311 1.349 . S
C1312 C1324 1.349 . S
C1313 C1311 1.327 . S
C1313 C1329 1.429 . S
C1313 H1335 0.950 . S
C1314 H1310 0.949 . S
C1314 C1322 1.574 . S
C1314 C1330 1.368 . S
H1315 C1323 0.950 . S
H1316 C1321 0.950 . S
H1317 C1322 0.949 . S
H1318 C1324 0.950 . S
H1319 C1325 0.950 . S
H1320 C1326 0.949 . S
C1321 H1316 0.950 . S
C1321 C1323 1.327 . S
C1321 C1327 1.429 . S
C1322 C1314 1.574 . S
C1322 H1317 0.949 . S
C1322 C1328 1.368 . S
C1323 C1307 1.349 . S
C1323 H1315 0.950 . S
C1323 C1321 1.327 . S
C1324 C1312 1.349 . S
C1324 H1318 0.950 . S
C1324 C1325 1.327 . S
C1325 H1319 0.950 . S
C1325 C1324 1.327 . S
C1325 C1329 1.429 . S
C1326 C1309 1.574 . S
C1326 H1320 0.949 . S
C1326 C1330 1.368 . S
C1327 C1308 1.429 . S
C1327 C1321 1.429 . S
C1327 C1328 1.523 . S
C1328 C1309 1.368 . S
C1328 C1322 1.368 . S
C1328 C1327 1.523 . S
C1329 C1313 1.429 . S
C1329 C1325 1.429 . S
C1329 C1330 1.523 . S
C1330 C1314 1.368 . S
C1330 C1326 1.368 . S
C1330 C1329 1.523 . S
H1331 C1306 0.950 . S
H1332 C1308 0.950 . S
H1333 C1309 0.949 . S
H1334 C1311 0.950 . S
H1335 C1313 0.950 . S
C1336 C1337 1.349 . S
C1336 C1338 1.327 . S
C1336 H1361 0.950 . S
C1337 C1336 1.349 . S
C1337 C1353 1.349 1_545 S
C1338 C1336 1.327 . S
C1338 C1357 1.429 . S
C1338 H1362 0.950 . S
C1339 C1356 1.566 1_655 S
C1339 C1358 1.368 1_565 S
C1339 H1363 0.949 . S
H1340 C1344 0.949 . S
C1341 C1342 1.349 . S
C1341 C1343 1.327 . S
C1341 H1364 0.950 1_545 S
C1342 C1341 1.349 . S
C1342 C1354 1.349 . S
C1343 C1341 1.327 . S
C1343 C1359 1.429 . S
C1343 H1365 0.950 1_545 S
C1344 H1340 0.949 . S
C1344 C1352 1.574 . S
C1344 C1360 1.368 . S
H1345 C1353 0.950 . S
H1346 C1351 0.950 . S
H1347 C1352 0.949 . S
H1348 C1354 0.950 . S
H1349 C1355 0.950 1_655 S
H1350 C1356 0.976 . S
C1351 H1346 0.950 . S
C1351 C1353 1.327 . S
C1351 C1357 1.429 1_565 S
C1352 C1344 1.574 . S
C1352 H1347 0.949 . S
C1352 C1358 1.368 . S
C1353 C1337 1.349 1_565 S
C1353 H1345 0.950 . S
C1353 C1351 1.327 . S
C1354 C1342 1.349 . S
C1354 H1348 0.950 . S
C1354 C1355 1.327 . S
C1355 H1349 0.950 1_455 S
C1355 C1354 1.327 . S
C1355 C1359 1.429 . S
C1356 C1339 1.566 1_455 S
C1356 H1350 0.976 . S
C1356 C1360 1.346 1_465 S
C1357 C1338 1.429 . S
C1357 C1351 1.429 1_545 S
C1357 C1358 1.523 . S
C1358 C1339 1.368 1_545 S
C1358 C1352 1.368 . S
C1358 C1357 1.523 . S
C1359 C1343 1.429 . S
C1359 C1355 1.429 . S
C1359 C1360 1.523 1_455 S
C1360 C1344 1.368 . S
C1360 C1356 1.346 1_645 S
C1360 C1359 1.523 1_655 S
H1361 C1336 0.950 . S
H1362 C1338 0.950 . S
H1363 C1339 0.949 . S
H1364 C1341 0.950 1_565 S
H1365 C1343 0.950 1_565 S
C1366 C1367 1.349 . S
C1366 C1368 1.327 . S
C1366 H1391 0.950 . S
C1367 C1366 1.349 . S
C1367 C1383 1.349 . S
C1368 C1366 1.327 . S
C1368 C1387 1.429 . S
C1368 H1392 0.950 . S
C1369 C1386 1.574 . S
C1369 C1388 1.368 . S
C1369 H1393 0.949 . S
H1370 C1374 0.949 . S
C1371 C1372 1.349 . S
C1371 C1373 1.327 . S
C1371 H1394 0.950 . S
C1372 C1371 1.349 . S
C1372 C1384 1.349 . S
C1373 C1371 1.327 . S
C1373 C1389 1.429 . S
C1373 H1395 0.950 . S
C1374 H1370 0.949 . S
C1374 C1382 1.574 . S
C1374 C1390 1.368 . S
H1375 C1383 0.950 . S
H1376 C1381 0.950 . S
H1377 C1382 0.949 . S
H1378 C1384 0.950 . S
H1379 C1385 0.950 . S
H1380 C1386 0.949 . S
C1381 H1376 0.950 . S
C1381 C1383 1.327 . S
C1381 C1387 1.429 . S
C1382 C1374 1.574 . S
C1382 H1377 0.949 . S
C1382 C1388 1.368 . S
C1383 C1367 1.349 . S
C1383 H1375 0.950 . S
C1383 C1381 1.327 . S
C1384 C1372 1.349 . S
C1384 H1378 0.950 . S
C1384 C1385 1.327 . S
C1385 H1379 0.950 . S
C1385 C1384 1.327 . S
C1385 C1389 1.429 . S
C1386 C1369 1.574 . S
C1386 H1380 0.949 . S
C1386 C1390 1.368 . S
C1387 C1368 1.429 . S
C1387 C1381 1.429 . S
C1387 C1388 1.523 . S
C1388 C1369 1.368 . S
C1388 C1382 1.368 . S
C1388 C1387 1.523 . S
C1389 C1373 1.429 . S
C1389 C1385 1.429 . S
C1389 C1390 1.523 . S
C1390 C1374 1.368 . S
C1390 C1386 1.368 . S
C1390 C1389 1.523 . S
H1391 C1366 0.950 . S
H1392 C1368 0.950 . S
H1393 C1369 0.949 . S
H1394 C1371 0.950 . S
H1395 C1373 0.950 . S
C1396 C1397 1.349 . S
C1396 C1398 1.327 . S
C1396 H1421 0.950 . S
C1397 C1396 1.349 . S
C1397 C1413 1.349 . S
C1398 C1396 1.327 . S
C1398 C1417 1.429 . S
C1398 H1422 0.950 . S
C1399 C1416 1.574 . S
C1399 C1418 1.368 . S
C1399 H1423 0.949 . S
H1400 C1404 0.949 . S
C1401 C1402 1.349 . S
C1401 C1403 1.327 . S
C1401 H1424 0.950 1_556 S
C1402 C1401 1.349 . S
C1402 C1414 1.349 . S
C1403 C1401 1.327 . S
C1403 C1419 1.429 . S
C1403 H1425 0.950 . S
C1404 H1400 0.949 . S
C1404 C1412 1.574 . S
C1404 C1420 1.368 . S
H1405 C1413 0.950 . S
H1406 C1411 0.950 . S
H1407 C1412 0.949 . S
H1408 C1414 0.950 . S
H1409 C1415 0.950 . S
H1410 C1416 0.949 . S
C1411 H1406 0.950 . S
C1411 C1413 1.327 . S
C1411 C1417 1.429 . S
C1412 C1404 1.574 . S
C1412 H1407 0.949 . S
C1412 C1418 1.368 . S
C1413 C1397 1.349 . S
C1413 H1405 0.950 . S
C1413 C1411 1.327 . S
C1414 C1402 1.349 . S
C1414 H1408 0.950 . S
C1414 C1415 1.327 . S
C1415 H1409 0.950 . S
C1415 C1414 1.327 . S
C1415 C1419 1.429 . S
C1416 C1399 1.574 . S
C1416 H1410 0.949 . S
C1416 C1420 1.368 . S
C1417 C1398 1.429 . S
C1417 C1411 1.429 . S
C1417 C1418 1.523 . S
C1418 C1399 1.368 . S
C1418 C1412 1.368 . S
C1418 C1417 1.523 . S
C1419 C1403 1.429 . S
C1419 C1415 1.429 . S
C1419 C1420 1.523 . S
C1420 C1404 1.368 . S
C1420 C1416 1.368 . S
C1420 C1419 1.523 . S
H1421 C1396 0.950 . S
H1422 C1398 0.950 . S
H1423 C1399 0.949 . S
H1424 C1401 0.950 1_554 S
H1425 C1403 0.950 . S
C1426 C1427 1.349 . S
C1426 C1428 1.327 . S
C1426 H1451 0.950 . S
C1427 C1426 1.349 . S
C1427 C1443 1.349 . S
C1428 C1426 1.327 . S
C1428 C1447 1.429 . S
C1428 H1452 0.950 . S
C1429 C1446 1.574 . S
C1429 C1448 1.368 . S
C1429 H1453 0.949 . S
H1430 C1434 0.949 . S
C1431 C1432 1.349 . S
C1431 C1433 1.327 . S
C1431 H1454 0.950 . S
C1432 C1431 1.349 . S
C1432 C1444 1.349 . S
C1433 C1431 1.327 . S
C1433 C1449 1.429 . S
C1433 H1455 0.950 . S
C1434 H1430 0.949 . S
C1434 C1442 1.574 . S
C1434 C1450 1.368 . S
H1435 C1443 0.950 . S
H1436 C1441 0.950 . S
H1437 C1442 0.949 . S
H1438 C1444 0.950 . S
H1439 C1445 0.950 . S
H1440 C1446 0.949 . S
C1441 H1436 0.950 . S
C1441 C1443 1.327 . S
C1441 C1447 1.429 . S
C1442 C1434 1.574 . S
C1442 H1437 0.949 . S
C1442 C1448 1.368 . S
C1443 C1427 1.349 . S
C1443 H1435 0.950 . S
C1443 C1441 1.327 . S
C1444 C1432 1.349 . S
C1444 H1438 0.950 . S
C1444 C1445 1.327 . S
C1445 H1439 0.950 . S
C1445 C1444 1.327 . S
C1445 C1449 1.429 . S
C1446 C1429 1.574 . S
C1446 H1440 0.949 . S
C1446 C1450 1.368 . S
C1447 C1428 1.429 . S
C1447 C1441 1.429 . S
C1447 C1448 1.523 . S
C1448 C1429 1.368 . S
C1448 C1442 1.368 . S
C1448 C1447 1.523 . S
C1449 C1433 1.429 . S
C1449 C1445 1.429 . S
C1449 C1450 1.523 . S
C1450 C1434 1.368 . S
C1450 C1446 1.368 . S
C1450 C1449 1.523 . S
H1451 C1426 0.950 . S
H1452 C1428 0.950 . S
H1453 C1429 0.949 . S
H1454 C1431 0.950 . S
H1455 C1433 0.950 . S
C1456 C1457 1.349 . S
C1456 C1458 1.327 . S
C1456 H1481 0.950 . S
C1457 C1456 1.349 . S
C1457 C1473 1.349 1_554 S
C1458 C1456 1.327 . S
C1458 C1477 1.429 . S
C1458 H1482 0.950 . S
C1459 C1476 1.574 . S
C1459 C1478 1.368 . S
C1459 H1483 0.949 . S
H1460 C1464 0.949 . S
C1461 C1462 1.349 . S
C1461 C1463 1.327 . S
C1461 H1484 0.950 . S
C1462 C1461 1.349 . S
C1462 C1474 1.349 . S
C1463 C1461 1.327 . S
C1463 C1479 1.429 . S
C1463 H1485 0.950 . S
C1464 H1460 0.949 . S
C1464 C1472 1.574 . S
C1464 C1480 1.368 . S
H1465 C1473 0.950 . S
H1466 C1471 0.950 1_556 S
H1467 C1472 0.949 . S
H1468 C1474 0.950 . S
H1469 C1475 0.950 . S
H1470 C1476 0.949 . S
C1471 H1466 0.950 1_554 S
C1471 C1473 1.327 1_554 S
C1471 C1477 1.429 . S
C1472 C1464 1.574 . S
C1472 H1467 0.949 . S
C1472 C1478 1.368 . S
C1473 C1457 1.349 1_556 S
C1473 H1465 0.950 . S
C1473 C1471 1.327 1_556 S
C1474 C1462 1.349 . S
C1474 H1468 0.950 . S
C1474 C1475 1.327 . S
C1475 H1469 0.950 . S
C1475 C1474 1.327 . S
C1475 C1479 1.429 . S
C1476 C1459 1.574 . S
C1476 H1470 0.949 . S
C1476 C1480 1.368 . S
C1477 C1458 1.429 . S
C1477 C1471 1.429 . S
C1477 C1478 1.523 . S
C1478 C1459 1.368 . S
C1478 C1472 1.368 . S
C1478 C1477 1.523 . S
C1479 C1463 1.429 . S
C1479 C1475 1.429 . S
C1479 C1480 1.523 . S
C1480 C1464 1.368 . S
C1480 C1476 1.368 . S
C1480 C1479 1.523 . S
H1481 C1456 0.950 . S
H1482 C1458 0.950 . S
H1483 C1459 0.949 . S
H1484 C1461 0.950 . S
H1485 C1463 0.950 . S
C1486 C1487 1.349 . S
C1486 C1488 1.327 . S
C1486 H1511 0.950 . S
C1487 C1486 1.349 . S
C1487 C1503 1.349 . S
C1488 C1486 1.327 . S
C1488 C1507 1.429 . S
C1488 H1512 0.950 . S
C1489 C1506 1.574 . S
C1489 C1508 1.368 . S
C1489 H1513 0.949 . S
H1490 C1494 0.949 . S
C1491 C1492 1.349 . S
C1491 C1493 1.327 . S
C1491 H1514 0.950 . S
C1492 C1491 1.349 . S
C1492 C1504 1.349 . S
C1493 C1491 1.327 . S
C1493 C1509 1.429 . S
C1493 H1515 0.950 . S
C1494 H1490 0.949 . S
C1494 C1502 1.574 . S
C1494 C1510 1.368 . S
H1495 C1503 0.950 . S
H1496 C1501 0.950 . S
H1497 C1502 0.949 . S
H1498 C1504 0.950 . S
H1499 C1505 0.950 . S
H1500 C1506 0.949 . S
C1501 H1496 0.950 . S
C1501 C1503 1.327 . S
C1501 C1507 1.429 . S
C1502 C1494 1.574 . S
C1502 H1497 0.949 . S
C1502 C1508 1.368 . S
C1503 C1487 1.349 . S
C1503 H1495 0.950 . S
C1503 C1501 1.327 . S
C1504 C1492 1.349 . S
C1504 H1498 0.950 . S
C1504 C1505 1.327 . S
C1505 H1499 0.950 . S
C1505 C1504 1.327 . S
C1505 C1509 1.429 . S
C1506 C1489 1.574 . S
C1506 H1500 0.949 . S
C1506 C1510 1.368 . S
C1507 C1488 1.429 . S
C1507 C1501 1.429 . S
C1507 C1508 1.523 . S
C1508 C1489 1.368 . S
C1508 C1502 1.368 . S
C1508 C1507 1.523 . S
C1509 C1493 1.429 . S
C1509 C1505 1.429 . S
C1509 C1510 1.523 . S
C1510 C1494 1.368 . S
C1510 C1506 1.368 . S
C1510 C1509 1.523 . S
H1511 C1486 0.950 . S
H1512 C1488 0.950 . S
H1513 C1489 0.949 . S
H1514 C1491 0.950 . S
H1515 C1493 0.950 . S
C1516 C1517 1.349 . S
C1516 C1518 1.327 . S
C1516 H1541 0.950 . S
C1517 C1516 1.349 . S
C1517 C1533 1.349 . S
C1518 C1516 1.327 . S
C1518 C1537 1.429 . S
C1518 H1542 0.950 . S
C1519 C1536 1.574 . S
C1519 C1538 1.368 . S
C1519 H1543 0.949 . S
H1520 C1524 0.949 . S
C1521 C1522 1.349 . S
C1521 C1523 1.327 . S
C1521 H1544 0.950 . S
C1522 C1521 1.349 . S
C1522 C1534 1.349 . S
C1523 C1521 1.327 . S
C1523 C1539 1.429 . S
C1523 H1545 0.950 . S
C1524 H1520 0.949 . S
C1524 C1532 1.574 . S
C1524 C1540 1.368 . S
H1525 C1533 0.950 . S
H1526 C1531 0.950 . S
H1527 C1532 0.949 . S
H1528 C1534 0.950 . S
H1529 C1535 0.950 . S
H1530 C1536 0.949 . S
C1531 H1526 0.950 . S
C1531 C1533 1.327 . S
C1531 C1537 1.429 . S
C1532 C1524 1.574 . S
C1532 H1527 0.949 . S
C1532 C1538 1.368 . S
C1533 C1517 1.349 . S
C1533 H1525 0.950 . S
C1533 C1531 1.327 . S
C1534 C1522 1.349 . S
C1534 H1528 0.950 . S
C1534 C1535 1.327 . S
C1535 H1529 0.950 . S
C1535 C1534 1.327 . S
C1535 C1539 1.429 . S
C1536 C1519 1.574 . S
C1536 H1530 0.949 . S
C1536 C1540 1.368 . S
C1537 C1518 1.429 . S
C1537 C1531 1.429 . S
C1537 C1538 1.523 . S
C1538 C1519 1.368 . S
C1538 C1532 1.368 . S
C1538 C1537 1.523 . S
C1539 C1523 1.429 . S
C1539 C1535 1.429 . S
C1539 C1540 1.523 . S
C1540 C1524 1.368 . S
C1540 C1536 1.368 . S
C1540 C1539 1.523 . S
H1541 C1516 0.950 . S
H1542 C1518 0.950 . S
H1543 C1519 0.949 . S
H1544 C1521 0.950 . S
H1545 C1523 0.950 . S
C1546 C1547 1.349 . S
C1546 C1548 1.327 . S
C1546 H1571 0.950 . S
C1547 C1546 1.349 . S
C1547 C1563 1.349 . S
C1548 C1546 1.327 . S
C1548 C1567 1.429 . S
C1548 H1572 0.950 . S
C1549 C1566 1.574 . S
C1549 C1568 1.368 . S
C1549 H1573 0.949 . S
H1550 C1554 0.949 . S
C1551 C1552 1.349 . S
C1551 C1553 1.327 . S
C1551 H1574 0.950 . S
C1552 C1551 1.349 . S
C1552 C1564 1.349 . S
C1553 C1551 1.327 . S
C1553 C1569 1.429 . S
C1553 H1575 0.950 . S
C1554 H1550 0.949 . S
C1554 C1562 1.574 . S
C1554 C1570 1.368 . S
H1555 C1563 0.950 . S
H1556 C1561 0.950 . S
H1557 C1562 0.949 . S
H1558 C1564 0.950 . S
H1559 C1565 0.950 . S
H1560 C1566 0.949 . S
C1561 H1556 0.950 . S
C1561 C1563 1.327 . S
C1561 C1567 1.429 . S
C1562 C1554 1.574 . S
C1562 H1557 0.949 . S
C1562 C1568 1.368 . S
C1563 C1547 1.349 . S
C1563 H1555 0.950 . S
C1563 C1561 1.327 . S
C1564 C1552 1.349 . S
C1564 H1558 0.950 . S
C1564 C1565 1.327 . S
C1565 H1559 0.950 . S
C1565 C1564 1.327 . S
C1565 C1569 1.429 . S
C1566 C1549 1.574 . S
C1566 H1560 0.949 . S
C1566 C1570 1.368 . S
C1567 C1548 1.429 . S
C1567 C1561 1.429 . S
C1567 C1568 1.523 . S
C1568 C1549 1.368 . S
C1568 C1562 1.368 . S
C1568 C1567 1.523 . S
C1569 C1553 1.429 . S
C1569 C1565 1.429 . S
C1569 C1570 1.523 . S
C1570 C1554 1.368 . S
C1570 C1566 1.368 . S
C1570 C1569 1.523 . S
H1571 C1546 0.950 . S
H1572 C1548 0.950 . S
H1573 C1549 0.949 . S
H1574 C1551 0.950 . S
H1575 C1553 0.950 . S
C1576 C1577 1.349 . S
C1576 C1578 1.327 . S
C1576 H1601 0.950 . S
C1577 C1576 1.349 . S
C1577 C1593 1.349 . S
C1578 C1576 1.327 . S
C1578 C1597 1.429 . S
C1578 H1602 0.950 . S
C1579 C1596 1.574 . S
C1579 C1598 1.368 . S
C1579 H1603 0.949 . S
H1580 C1584 0.949 . S
C1581 C1582 1.349 . S
C1581 C1583 1.327 . S
C1581 H1604 0.950 . S
C1582 C1581 1.349 . S
C1582 C1594 1.349 . S
C1583 C1581 1.327 . S
C1583 C1599 1.429 . S
C1583 H1605 0.950 . S
C1584 H1580 0.949 . S
C1584 C1592 1.574 . S
C1584 C1600 1.368 . S
H1585 C1593 0.950 . S
H1586 C1591 0.950 . S
H1587 C1592 0.949 . S
H1588 C1594 0.950 . S
H1589 C1595 0.950 . S
H1590 C1596 0.949 . S
C1591 H1586 0.950 . S
C1591 C1593 1.327 . S
C1591 C1597 1.429 . S
C1592 C1584 1.574 . S
C1592 H1587 0.949 . S
C1592 C1598 1.368 . S
C1593 C1577 1.349 . S
C1593 H1585 0.950 . S
C1593 C1591 1.327 . S
C1594 C1582 1.349 . S
C1594 H1588 0.950 . S
C1594 C1595 1.327 . S
C1595 H1589 0.950 . S
C1595 C1594 1.327 . S
C1595 C1599 1.429 . S
C1596 C1579 1.574 . S
C1596 H1590 0.949 . S
C1596 C1600 1.368 . S
C1597 C1578 1.429 . S
C1597 C1591 1.429 . S
C1597 C1598 1.523 . S
C1598 C1579 1.368 . S
C1598 C1592 1.368 . S
C1598 C1597 1.523 . S
C1599 C1583 1.429 . S
C1599 C1595 1.429 . S
C1599 C1600 1.523 . S
C1600 C1584 1.368 . S
C1600 C1596 1.368 . S
C1600 C1599 1.523 . S
H1601 C1576 0.950 . S
H1602 C1578 0.950 . S
H1603 C1579 0.949 . S
H1604 C1581 0.950 . S
H1605 C1583 0.950 . S
C1606 C1607 1.349 . S
C1606 C1608 1.327 . S
C1606 H1631 0.950 . S
C1607 C1606 1.349 . S
C1607 C1623 1.349 . S
C1608 C1606 1.327 . S
C1608 C1627 1.429 . S
C1608 H1632 0.950 . S
C1609 C1626 1.574 . S
C1609 C1628 1.368 . S
C1609 H1633 0.949 . S
H1610 C1614 0.949 . S
C1611 C1612 1.349 . S
C1611 C1613 1.327 . S
C1611 H1634 0.950 . S
C1612 C1611 1.349 . S
C1612 C1624 1.349 . S
C1613 C1611 1.327 . S
C1613 C1629 1.429 . S
C1613 H1635 0.950 . S
C1614 H1610 0.949 . S
C1614 C1622 1.574 . S
C1614 C1630 1.368 . S
H1615 C1623 0.950 . S
H1616 C1621 0.950 . S
H1617 C1622 0.949 . S
H1618 C1624 0.950 . S
H1619 C1625 0.950 . S
H1620 C1626 0.949 . S
C1621 H1616 0.950 . S
C1621 C1623 1.327 . S
C1621 C1627 1.429 . S
C1622 C1614 1.574 . S
C1622 H1617 0.949 . S
C1622 C1628 1.368 . S
C1623 C1607 1.349 . S
C1623 H1615 0.950 . S
C1623 C1621 1.327 . S
C1624 C1612 1.349 . S
C1624 H1618 0.950 . S
C1624 C1625 1.327 . S
C1625 H1619 0.950 . S
C1625 C1624 1.327 . S
C1625 C1629 1.429 . S
C1626 C1609 1.574 . S
C1626 H1620 0.949 . S
C1626 C1630 1.368 . S
C1627 C1608 1.429 . S
C1627 C1621 1.429 . S
C1627 C1628 1.523 . S
C1628 C1609 1.368 . S
C1628 C1622 1.368 . S
C1628 C1627 1.523 . S
C1629 C1613 1.429 . S
C1629 C1625 1.429 . S
C1629 C1630 1.523 . S
C1630 C1614 1.368 . S
C1630 C1626 1.368 . S
C1630 C1629 1.523 . S
H1631 C1606 0.950 . S
H1632 C1608 0.950 . S
H1633 C1609 0.949 . S
H1634 C1611 0.950 . S
H1635 C1613 0.950 . S
C1636 C1637 1.349 . S
C1636 C1638 1.327 . S
C1636 H1661 0.950 . S
C1637 C1636 1.349 . S
C1637 C1653 1.349 . S
C1638 C1636 1.327 . S
C1638 C1657 1.429 . S
C1638 H1662 0.950 . S
C1639 C1656 1.574 . S
C1639 C1658 1.368 . S
C1639 H1663 0.949 . S
H1640 C1644 0.949 . S
C1641 C1642 1.349 . S
C1641 C1643 1.327 . S
C1641 H1664 0.950 . S
C1642 C1641 1.349 . S
C1642 C1654 1.349 . S
C1643 C1641 1.327 . S
C1643 C1659 1.429 . S
C1643 H1665 0.950 . S
C1644 H1640 0.949 . S
C1644 C1652 1.574 . S
C1644 C1660 1.368 . S
H1645 C1653 0.950 . S
H1646 C1651 0.950 . S
H1647 C1652 0.949 . S
H1648 C1654 0.950 . S
H1649 C1655 0.950 . S
H1650 C1656 0.949 . S
C1651 H1646 0.950 . S
C1651 C1653 1.327 . S
C1651 C1657 1.429 . S
C1652 C1644 1.574 . S
C1652 H1647 0.949 . S
C1652 C1658 1.368 . S
C1653 C1637 1.349 . S
C1653 H1645 0.950 . S
C1653 C1651 1.327 . S
C1654 C1642 1.349 . S
C1654 H1648 0.950 . S
C1654 C1655 1.327 . S
C1655 H1649 0.950 . S
C1655 C1654 1.327 . S
C1655 C1659 1.429 . S
C1656 C1639 1.574 . S
C1656 H1650 0.949 . S
C1656 C1660 1.368 . S
C1657 C1638 1.429 . S
C1657 C1651 1.429 . S
C1657 C1658 1.523 . S
C1658 C1639 1.368 . S
C1658 C1652 1.368 . S
C1658 C1657 1.523 . S
C1659 C1643 1.429 . S
C1659 C1655 1.429 . S
C1659 C1660 1.523 . S
C1660 C1644 1.368 . S
C1660 C1656 1.368 . S
C1660 C1659 1.523 . S
H1661 C1636 0.950 . S
H1662 C1638 0.950 . S
H1663 C1639 0.949 . S
H1664 C1641 0.950 . S
H1665 C1643 0.950 . S
C1666 C1667 1.349 . S
C1666 C1668 1.327 . S
C1666 H1691 0.950 . S
C1667 C1666 1.349 . S
C1667 C1683 1.349 . S
C1668 C1666 1.327 . S
C1668 C1687 1.429 . S
C1668 H1692 0.950 . S
C1669 C1686 1.574 . S
C1669 C1688 1.368 . S
C1669 H1693 0.949 . S
H1670 C1674 0.949 . S
C1671 C1672 1.349 . S
C1671 C1673 1.327 . S
C1671 H1694 0.950 . S
C1672 C1671 1.349 . S
C1672 C1684 1.349 . S
C1673 C1671 1.327 . S
C1673 C1689 1.429 . S
C1673 H1695 0.950 . S
C1674 H1670 0.949 . S
C1674 C1682 1.574 . S
C1674 C1690 1.368 . S
H1675 C1683 0.950 . S
H1676 C1681 0.950 . S
H1677 C1682 0.949 . S
H1678 C1684 0.950 . S
H1679 C1685 0.950 . S
H1680 C1686 0.949 . S
C1681 H1676 0.950 . S
C1681 C1683 1.327 . S
C1681 C1687 1.429 . S
C1682 C1674 1.574 . S
C1682 H1677 0.949 . S
C1682 C1688 1.368 . S
C1683 C1667 1.349 . S
C1683 H1675 0.950 . S
C1683 C1681 1.327 . S
C1684 C1672 1.349 . S
C1684 H1678 0.950 . S
C1684 C1685 1.327 . S
C1685 H1679 0.950 . S
C1685 C1684 1.327 . S
C1685 C1689 1.429 . S
C1686 C1669 1.574 . S
C1686 H1680 0.949 . S
C1686 C1690 1.368 . S
C1687 C1668 1.429 . S
C1687 C1681 1.429 . S
C1687 C1688 1.523 . S
C1688 C1669 1.368 . S
C1688 C1682 1.368 . S
C1688 C1687 1.523 . S
C1689 C1673 1.429 . S
C1689 C1685 1.429 . S
C1689 C1690 1.523 . S
C1690 C1674 1.368 . S
C1690 C1686 1.368 . S
C1690 C1689 1.523 . S
H1691 C1666 0.950 . S
H1692 C1668 0.950 . S
H1693 C1669 0.949 . S
H1694 C1671 0.950 . S
H1695 C1673 0.950 . S
C1696 C1697 1.349 . S
C1696 C1698 1.327 . S
C1696 H1721 0.950 . S
C1697 C1696 1.349 . S
C1697 C1713 1.349 . S
C1698 C1696 1.327 . S
C1698 C1717 1.429 . S
C1698 H1722 0.950 . S
C1699 C1716 1.574 . S
C1699 C1718 1.368 . S
C1699 H1723 0.949 . S
H1700 C1704 0.949 . S
C1701 C1702 1.349 . S
C1701 C1703 1.327 . S
C1701 H1724 0.950 . S
C1702 C1701 1.349 . S
C1702 C1714 1.349 . S
C1703 C1701 1.327 . S
C1703 C1719 1.429 . S
C1703 H1725 0.950 . S
C1704 H1700 0.949 . S
C1704 C1712 1.574 . S
C1704 C1720 1.368 . S
H1705 C1713 0.950 . S
H1706 C1711 0.950 . S
H1707 C1712 0.949 . S
H1708 C1714 0.950 . S
H1709 C1715 0.950 . S
H1710 C1716 0.949 . S
C1711 H1706 0.950 . S
C1711 C1713 1.327 . S
C1711 C1717 1.429 . S
C1712 C1704 1.574 . S
C1712 H1707 0.949 . S
C1712 C1718 1.368 . S
C1713 C1697 1.349 . S
C1713 H1705 0.950 . S
C1713 C1711 1.327 . S
C1714 C1702 1.349 . S
C1714 H1708 0.950 . S
C1714 C1715 1.327 . S
C1715 H1709 0.950 . S
C1715 C1714 1.327 . S
C1715 C1719 1.429 . S
C1716 C1699 1.574 . S
C1716 H1710 0.949 . S
C1716 C1720 1.368 . S
C1717 C1698 1.429 . S
C1717 C1711 1.429 . S
C1717 C1718 1.523 . S
C1718 C1699 1.368 . S
C1718 C1712 1.368 . S
C1718 C1717 1.523 . S
C1719 C1703 1.429 . S
C1719 C1715 1.429 . S
C1719 C1720 1.523 . S
C1720 C1704 1.368 . S
C1720 C1716 1.368 . S
C1720 C1719 1.523 . S
H1721 C1696 0.950 . S
H1722 C1698 0.950 . S
H1723 C1699 0.949 . S
H1724 C1701 0.950 . S
H1725 C1703 0.950 . S
C1726 C1727 1.349 . S
C1726 C1728 1.327 . S
C1726 H1751 0.950 . S
C1727 C1726 1.349 . S
C1727 C1743 1.349 . S
C1728 C1726 1.327 . S
C1728 C1747 1.429 . S
C1728 H1752 0.950 . S
C1729 C1746 1.574 . S
C1729 C1748 1.368 . S
C1729 H1753 0.949 . S
H1730 C1734 0.949 . S
C1731 C1732 1.349 . S
C1731 C1733 1.327 . S
C1731 H1754 0.950 . S
C1732 C1731 1.349 . S
C1732 C1744 1.349 . S
C1733 C1731 1.327 . S
C1733 C1749 1.429 . S
C1733 H1755 0.950 . S
C1734 H1730 0.949 . S
C1734 C1742 1.574 . S
C1734 C1750 1.368 . S
H1735 C1743 0.950 . S
H1736 C1741 0.950 . S
H1737 C1742 0.949 . S
H1738 C1744 0.950 . S
H1739 C1745 0.950 . S
H1740 C1746 0.949 . S
C1741 H1736 0.950 . S
C1741 C1743 1.327 . S
C1741 C1747 1.429 . S
C1742 C1734 1.574 . S
C1742 H1737 0.949 . S
C1742 C1748 1.368 . S
C1743 C1727 1.349 . S
C1743 H1735 0.950 . S
C1743 C1741 1.327 . S
C1744 C1732 1.349 . S
C1744 H1738 0.950 . S
C1744 C1745 1.327 . S
C1745 H1739 0.950 . S
C1745 C1744 1.327 . S
C1745 C1749 1.429 . S
C1746 C1729 1.574 . S
C1746 H1740 0.949 . S
C1746 C1750 1.368 . S
C1747 C1728 1.429 . S
C1747 C1741 1.429 . S
C1747 C1748 1.523 . S
C1748 C1729 1.368 . S
C1748 C1742 1.368 . S
C1748 C1747 1.523 . S
C1749 C1733 1.429 . S
C1749 C1745 1.429 . S
C1749 C1750 1.523 . S
C1750 C1734 1.368 . S
C1750 C1746 1.368 . S
C1750 C1749 1.523 . S
H1751 C1726 0.950 . S
H1752 C1728 0.950 . S
H1753 C1729 0.949 . S
H1754 C1731 0.950 . S
H1755 C1733 0.950 . S
C1756 C1757 1.349 . S
C1756 C1758 1.327 . S
C1756 H1781 0.950 . S
C1757 C1756 1.349 . S
C1757 C1773 1.349 . S
C1758 C1756 1.327 . S
C1758 C1777 1.429 . S
C1758 H1782 0.950 . S
C1759 C1776 1.574 . S
C1759 C1778 1.368 . S
C1759 H1783 0.949 . S
H1760 C1764 0.949 . S
C1761 C1762 1.349 . S
C1761 C1763 1.327 . S
C1761 H1784 0.950 . S
C1762 C1761 1.349 . S
C1762 C1774 1.349 . S
C1763 C1761 1.327 . S
C1763 C1779 1.429 . S
C1763 H1785 0.950 . S
C1764 H1760 0.949 . S
C1764 C1772 1.574 . S
C1764 C1780 1.368 . S
H1765 C1773 0.950 . S
H1766 C1771 0.950 . S
H1767 C1772 0.949 . S
H1768 C1774 0.950 . S
H1769 C1775 0.950 . S
H1770 C1776 0.949 . S
C1771 H1766 0.950 . S
C1771 C1773 1.327 . S
C1771 C1777 1.429 . S
C1772 C1764 1.574 . S
C1772 H1767 0.949 . S
C1772 C1778 1.368 . S
C1773 C1757 1.349 . S
C1773 H1765 0.950 . S
C1773 C1771 1.327 . S
C1774 C1762 1.349 . S
C1774 H1768 0.950 . S
C1774 C1775 1.327 . S
C1775 H1769 0.950 . S
C1775 C1774 1.327 . S
C1775 C1779 1.429 . S
C1776 C1759 1.574 . S
C1776 H1770 0.949 . S
C1776 C1780 1.368 . S
C1777 C1758 1.429 . S
C1777 C1771 1.429 . S
C1777 C1778 1.523 . S
C1778 C1759 1.368 . S
C1778 C1772 1.368 . S
C1778 C1777 1.523 . S
C1779 C1763 1.429 . S
C1779 C1775 1.429 . S
C1779 C1780 1.523 . S
C1780 C1764 1.368 . S
C1780 C1776 1.368 . S
C1780 C1779 1.523 . S
H1781 C1756 0.950 . S
H1782 C1758 0.950 . S
H1783 C1759 0.949 . S
H1784 C1761 0.950 . S
H1785 C1763 0.950 . S
C1786 C1787 1.349 . S
C1786 C1788 1.327 . S
C1786 H1811 0.950 . S
C1787 C1786 1.349 . S
C1787 C1803 1.349 . S
C1788 C1786 1.327 . S
C1788 C1807 1.429 . S
C1788 H1812 0.950 . S
C1789 C1806 1.574 . S
C1789 C1808 1.368 . S
C1789 H1813 0.949 . S
H1790 C1794 0.949 . S
C1791 C1792 1.349 . S
C1791 C1793 1.327 . S
C1791 H1814 0.950 . S
C1792 C1791 1.349 . S
C1792 C1804 1.349 . S
C1793 C1791 1.327 . S
C1793 C1809 1.429 . S
C1793 H1815 0.950 . S
C1794 H1790 0.949 . S
C1794 C1802 1.574 . S
C1794 C1810 1.368 . S
H1795 C1803 0.950 . S
H1796 C1801 0.950 . S
H1797 C1802 0.949 . S
H1798 C1804 0.950 . S
H1799 C1805 0.950 . S
H1800 C1806 0.949 . S
C1801 H1796 0.950 . S
C1801 C1803 1.327 . S
C1801 C1807 1.429 . S
C1802 C1794 1.574 . S
C1802 H1797 0.949 . S
C1802 C1808 1.368 . S
C1803 C1787 1.349 . S
C1803 H1795 0.950 . S
C1803 C1801 1.327 . S
C1804 C1792 1.349 . S
C1804 H1798 0.950 . S
C1804 C1805 1.327 . S
C1805 H1799 0.950 . S
C1805 C1804 1.327 . S
C1805 C1809 1.429 . S
C1806 C1789 1.574 . S
C1806 H1800 0.949 . S
C1806 C1810 1.368 . S
C1807 C1788 1.429 . S
C1807 C1801 1.429 . S
C1807 C1808 1.523 . S
C1808 C1789 1.368 . S
C1808 C1802 1.368 . S
C1808 C1807 1.523 . S
C1809 C1793 1.429 . S
C1809 C1805 1.429 . S
C1809 C1810 1.523 . S
C1810 C1794 1.368 . S
C1810 C1806 1.368 . S
C1810 C1809 1.523 . S
H1811 C1786 0.950 . S
H1812 C1788 0.950 . S
H1813 C1789 0.949 . S
H1814 C1791 0.950 . S
H1815 C1793 0.950 . S
C1816 C1817 1.353 1_655 S
C1816 C1818 1.327 . S
C1816 H1841 0.950 . S
C1817 C1816 1.353 1_455 S
C1817 C1833 1.343 . S
C1818 C1816 1.327 . S
C1818 C1837 1.429 1_655 S
C1818 H1842 0.950 . S
C1819 C1836 1.574 . S
C1819 C1838 1.368 . S
C1819 H1843 0.949 . S
H1820 C1824 0.969 . S
C1821 C1822 1.349 . S
C1821 C1823 1.327 . S
C1821 H1844 0.950 . S
C1822 C1821 1.349 . S
C1822 C1834 1.349 . S
C1823 C1821 1.327 . S
C1823 C1839 1.429 . S
C1823 H1845 0.950 . S
C1824 H1820 0.969 . S
C1824 C1832 1.583 . S
C1824 C1840 1.338 1_655 S
H1825 C1833 0.950 . S
H1826 C1831 0.950 . S
H1827 C1832 0.949 . S
H1828 C1834 0.953 . S
H1829 C1835 0.950 1_655 S
H1830 C1836 0.949 . S
C1831 H1826 0.950 . S
C1831 C1833 1.327 . S
C1831 C1837 1.429 . S
C1832 C1824 1.583 . S
C1832 H1827 0.949 . S
C1832 C1838 1.368 1_655 S
C1833 C1817 1.343 . S
C1833 H1825 0.950 . S
C1833 C1831 1.327 . S
C1834 C1822 1.349 . S
C1834 H1828 0.953 . S
C1834 C1835 1.327 . S
C1835 H1829 0.950 1_455 S
C1835 C1834 1.327 . S
C1835 C1839 1.429 . S
C1836 C1819 1.574 . S
C1836 H1830 0.949 . S
C1836 C1840 1.368 . S
C1837 C1818 1.429 1_455 S
C1837 C1831 1.429 . S
C1837 C1838 1.523 . S
C1838 C1819 1.368 . S
C1838 C1832 1.368 1_455 S
C1838 C1837 1.523 . S
C1839 C1823 1.429 . S
C1839 C1835 1.429 . S
C1839 C1840 1.523 . S
C1840 C1824 1.338 1_455 S
C1840 C1836 1.368 . S
C1840 C1839 1.523 . S
H1841 C1816 0.950 . S
H1842 C1818 0.950 . S
H1843 C1819 0.949 . S
H1844 C1821 0.950 . S
H1845 C1823 0.950 . S
C1846 C1847 1.349 . S
C1846 C1848 1.327 . S
C1846 H1871 0.950 . S
C1847 C1846 1.349 . S
C1847 C1863 1.349 . S
C1848 C1846 1.327 . S
C1848 C1867 1.429 . S
C1848 H1872 0.950 . S
C1849 C1866 1.574 . S
C1849 C1868 1.368 . S
C1849 H1873 0.949 . S
H1850 C1854 0.949 . S
C1851 C1852 1.349 . S
C1851 C1853 1.327 . S
C1851 H1874 0.950 . S
C1852 C1851 1.349 . S
C1852 C1864 1.349 . S
C1853 C1851 1.327 . S
C1853 C1869 1.429 . S
C1853 H1875 0.950 . S
C1854 H1850 0.949 . S
C1854 C1862 1.574 . S
C1854 C1870 1.368 . S
H1855 C1863 0.950 . S
H1856 C1861 0.950 . S
H1857 C1862 0.949 . S
H1858 C1864 0.950 . S
H1859 C1865 0.950 . S
H1860 C1866 0.949 . S
C1861 H1856 0.950 . S
C1861 C1863 1.327 . S
C1861 C1867 1.429 . S
C1862 C1854 1.574 . S
C1862 H1857 0.949 . S
C1862 C1868 1.368 . S
C1863 C1847 1.349 . S
C1863 H1855 0.950 . S
C1863 C1861 1.327 . S
C1864 C1852 1.349 . S
C1864 H1858 0.950 . S
C1864 C1865 1.327 . S
C1865 H1859 0.950 . S
C1865 C1864 1.327 . S
C1865 C1869 1.429 . S
C1866 C1849 1.574 . S
C1866 H1860 0.949 . S
C1866 C1870 1.368 . S
C1867 C1848 1.429 . S
C1867 C1861 1.429 . S
C1867 C1868 1.523 . S
C1868 C1849 1.368 . S
C1868 C1862 1.368 . S
C1868 C1867 1.523 . S
C1869 C1853 1.429 . S
C1869 C1865 1.429 . S
C1869 C1870 1.523 . S
C1870 C1854 1.368 . S
C1870 C1866 1.368 . S
C1870 C1869 1.523 . S
H1871 C1846 0.950 . S
H1872 C1848 0.950 . S
H1873 C1849 0.949 . S
H1874 C1851 0.950 . S
H1875 C1853 0.950 . S
C1876 C1877 1.349 . S
C1876 C1878 1.327 . S
C1876 H1901 0.950 . S
C1877 C1876 1.349 . S
C1877 C1893 1.349 . S
C1878 C1876 1.327 . S
C1878 C1897 1.429 . S
C1878 H1902 0.950 . S
C1879 C1896 1.574 . S
C1879 C1898 1.368 . S
C1879 H1903 0.949 . S
H1880 C1884 0.949 . S
C1881 C1882 1.349 . S
C1881 C1883 1.327 . S
C1881 H1904 0.950 . S
C1882 C1881 1.349 . S
C1882 C1894 1.349 . S
C1883 C1881 1.327 . S
C1883 C1899 1.429 1_554 S
C1883 H1905 0.950 . S
C1884 H1880 0.949 . S
C1884 C1892 1.574 . S
C1884 C1900 1.368 . S
H1885 C1893 0.950 . S
H1886 C1891 0.950 . S
H1887 C1892 0.949 . S
H1888 C1894 0.960 . S
H1889 C1895 0.950 . S
H1890 C1896 0.945 1_554 S
C1891 H1886 0.950 . S
C1891 C1893 1.327 . S
C1891 C1897 1.429 . S
C1892 C1884 1.574 . S
C1892 H1887 0.949 . S
C1892 C1898 1.368 . S
C1893 C1877 1.349 . S
C1893 H1885 0.950 . S
C1893 C1891 1.327 . S
C1894 C1882 1.349 . S
C1894 H1888 0.960 . S
C1894 C1895 1.327 1_554 S
C1895 H1889 0.950 . S
C1895 C1894 1.327 1_556 S
C1895 C1899 1.429 . S
C1896 C1879 1.574 . S
C1896 H1890 0.945 1_556 S
C1896 C1900 1.368 . S
C1897 C1878 1.429 . S
C1897 C1891 1.429 . S
C1897 C1898 1.523 . S
C1898 C1879 1.368 . S
C1898 C1892 1.368 . S
C1898 C1897 1.523 . S
C1899 C1883 1.429 1_556 S
C1899 C1895 1.429 . S
C1899 C1900 1.523 . S
C1900 C1884 1.368 . S
C1900 C1896 1.368 . S
C1900 C1899 1.523 . S
H1901 C1876 0.950 . S
H1902 C1878 0.950 . S
H1903 C1879 0.949 . S
H1904 C1881 0.950 . S
H1905 C1883 0.950 . S
C1906 C1907 1.349 1_655 S
C1906 C1908 1.327 . S
C1906 H1931 0.950 . S
C1907 C1906 1.349 1_455 S
C1907 C1923 1.349 . S
C1908 C1906 1.327 . S
C1908 C1927 1.429 . S
C1908 H1932 0.950 . S
C1909 C1926 1.574 . S
C1909 C1928 1.368 . S
C1909 H1933 0.949 . S
H1910 C1914 0.949 . S
C1911 C1912 1.349 . S
C1911 C1913 1.327 . S
C1911 H1934 0.950 . S
C1912 C1911 1.349 . S
C1912 C1924 1.349 . S
C1913 C1911 1.327 . S
C1913 C1929 1.429 . S
C1913 H1935 0.950 . S
C1914 H1910 0.949 . S
C1914 C1922 1.574 . S
C1914 C1930 1.368 . S
H1915 C1923 0.950 . S
H1916 C1921 0.950 . S
H1917 C1922 0.949 . S
H1918 C1924 0.950 . S
H1919 C1925 0.950 . S
H1920 C1926 0.949 . S
C1921 H1916 0.950 . S
C1921 C1923 1.327 1_655 S
C1921 C1927 1.429 . S
C1922 C1914 1.574 . S
C1922 H1917 0.949 . S
C1922 C1928 1.368 . S
C1923 C1907 1.349 . S
C1923 H1915 0.950 . S
C1923 C1921 1.327 1_455 S
C1924 C1912 1.349 . S
C1924 H1918 0.950 . S
C1924 C1925 1.327 . S
C1925 H1919 0.950 . S
C1925 C1924 1.327 . S
C1925 C1929 1.429 . S
C1926 C1909 1.574 . S
C1926 H1920 0.949 . S
C1926 C1930 1.368 . S
C1927 C1908 1.429 . S
C1927 C1921 1.429 . S
C1927 C1928 1.523 . S
C1928 C1909 1.368 . S
C1928 C1922 1.368 . S
C1928 C1927 1.523 . S
C1929 C1913 1.429 . S
C1929 C1925 1.429 . S
C1929 C1930 1.523 . S
C1930 C1914 1.368 . S
C1930 C1926 1.368 . S
C1930 C1929 1.523 . S
H1931 C1906 0.950 . S
H1932 C1908 0.950 . S
H1933 C1909 0.949 . S
H1934 C1911 0.950 . S
H1935 C1913 0.950 . S
C1936 C1937 1.349 . S
C1936 C1938 1.327 . S
C1936 H1961 0.950 1_545 S
C1937 C1936 1.349 . S
C1937 C1953 1.349 . S
C1938 C1936 1.327 . S
C1938 C1957 1.429 . S
C1938 H1962 0.950 1_545 S
C1939 C1956 1.574 . S
C1939 C1958 1.368 . S
C1939 H1963 0.949 . S
H1940 C1944 0.949 1_565 S
C1941 C1942 1.349 . S
C1941 C1943 1.327 . S
C1941 H1964 0.950 . S
C1942 C1941 1.349 . S
C1942 C1954 1.349 . S
C1943 C1941 1.327 . S
C1943 C1959 1.429 . S
C1943 H1965 0.950 . S
C1944 H1940 0.949 1_545 S
C1944 C1952 1.574 . S
C1944 C1960 1.368 . S
H1945 C1953 0.950 . S
H1946 C1951 0.950 . S
H1947 C1952 0.949 1_565 S
H1948 C1954 0.950 1_565 S
H1949 C1955 0.950 1_565 S
H1950 C1956 0.949 . S
C1951 H1946 0.950 . S
C1951 C1953 1.327 . S
C1951 C1957 1.429 . S
C1952 C1944 1.574 . S
C1952 H1947 0.949 1_545 S
C1952 C1958 1.368 . S
C1953 C1937 1.349 . S
C1953 H1945 0.950 . S
C1953 C1951 1.327 . S
C1954 C1942 1.349 . S
C1954 H1948 0.950 1_545 S
C1954 C1955 1.327 . S
C1955 H1949 0.950 1_545 S
C1955 C1954 1.327 . S
C1955 C1959 1.429 . S
C1956 C1939 1.574 . S
C1956 H1950 0.949 . S
C1956 C1960 1.368 . S
C1957 C1938 1.429 . S
C1957 C1951 1.429 . S
C1957 C1958 1.523 . S
C1958 C1939 1.368 . S
C1958 C1952 1.368 . S
C1958 C1957 1.523 . S
C1959 C1943 1.429 . S
C1959 C1955 1.429 . S
C1959 C1960 1.523 . S
C1960 C1944 1.368 . S
C1960 C1956 1.368 . S
C1960 C1959 1.523 . S
H1961 C1936 0.950 1_565 S
H1962 C1938 0.950 1_565 S
H1963 C1939 0.949 . S
H1964 C1941 0.950 . S
H1965 C1943 0.950 . S
C1966 C1967 1.349 . S
C1966 C1968 1.327 . S
C1966 H1991 0.950 . S
C1967 C1966 1.349 . S
C1967 C1983 1.349 . S
C1968 C1966 1.327 . S
C1968 C1987 1.429 . S
C1968 H1992 0.950 . S
C1969 C1986 1.574 . S
C1969 C1988 1.368 . S
C1969 H1993 0.949 . S
H1970 C1974 0.949 . S
C1971 C1972 1.349 . S
C1971 C1973 1.327 . S
C1971 H1994 0.950 . S
C1972 C1971 1.349 . S
C1972 C1984 1.349 . S
C1973 C1971 1.327 . S
C1973 C1989 1.429 . S
C1973 H1995 0.950 . S
C1974 H1970 0.949 . S
C1974 C1982 1.574 . S
C1974 C1990 1.368 . S
H1975 C1983 0.950 . S
H1976 C1981 0.950 . S
H1977 C1982 0.949 . S
H1978 C1984 0.950 . S
H1979 C1985 0.950 . S
H1980 C1986 0.949 . S
C1981 H1976 0.950 . S
C1981 C1983 1.327 . S
C1981 C1987 1.429 . S
C1982 C1974 1.574 . S
C1982 H1977 0.949 . S
C1982 C1988 1.368 . S
C1983 C1967 1.349 . S
C1983 H1975 0.950 . S
C1983 C1981 1.327 . S
C1984 C1972 1.349 . S
C1984 H1978 0.950 . S
C1984 C1985 1.327 . S
C1985 H1979 0.950 . S
C1985 C1984 1.327 . S
C1985 C1989 1.429 . S
C1986 C1969 1.574 . S
C1986 H1980 0.949 . S
C1986 C1990 1.368 . S
C1987 C1968 1.429 . S
C1987 C1981 1.429 . S
C1987 C1988 1.523 . S
C1988 C1969 1.368 . S
C1988 C1982 1.368 . S
C1988 C1987 1.523 . S
C1989 C1973 1.429 . S
C1989 C1985 1.429 . S
C1989 C1990 1.523 . S
C1990 C1974 1.368 . S
C1990 C1986 1.368 . S
C1990 C1989 1.523 . S
H1991 C1966 0.950 . S
H1992 C1968 0.950 . S
H1993 C1969 0.949 . S
H1994 C1971 0.950 . S
H1995 C1973 0.950 . S
C1996 C1997 1.349 . S
C1996 C1998 1.327 . S
C1996 H2021 0.950 . S
C1997 C1996 1.349 . S
C1997 C2013 1.349 . S
C1998 C1996 1.327 . S
C1998 C2017 1.429 . S
C1998 H2022 0.950 . S
C1999 C2016 1.574 . S
C1999 C2018 1.368 . S
C1999 H2023 0.949 1_545 S
H2000 C2004 0.949 . S
C2001 C2002 1.349 . S
C2001 C2003 1.327 . S
C2001 H2024 0.950 1_545 S
C2002 C2001 1.349 . S
C2002 C2014 1.349 . S
C2003 C2001 1.327 . S
C2003 C2019 1.429 . S
C2003 H2025 0.950 1_545 S
C2004 H2000 0.949 . S
C2004 C2012 1.574 . S
C2004 C2020 1.368 . S
H2005 C2013 0.950 1_565 S
H2006 C2011 0.950 1_565 S
H2007 C2012 0.949 . S
H2008 C2014 0.950 . S
H2009 C2015 0.950 . S
H2010 C2016 0.949 1_565 S
C2011 H2006 0.950 1_545 S
C2011 C2013 1.327 . S
C2011 C2017 1.429 . S
C2012 C2004 1.574 . S
C2012 H2007 0.949 . S
C2012 C2018 1.368 . S
C2013 C1997 1.349 . S
C2013 H2005 0.950 1_545 S
C2013 C2011 1.327 . S
C2014 C2002 1.349 . S
C2014 H2008 0.950 . S
C2014 C2015 1.327 . S
C2015 H2009 0.950 . S
C2015 C2014 1.327 . S
C2015 C2019 1.429 . S
C2016 C1999 1.574 . S
C2016 H2010 0.949 1_545 S
C2016 C2020 1.368 . S
C2017 C1998 1.429 . S
C2017 C2011 1.429 . S
C2017 C2018 1.523 . S
C2018 C1999 1.368 . S
C2018 C2012 1.368 . S
C2018 C2017 1.523 . S
C2019 C2003 1.429 . S
C2019 C2015 1.429 . S
C2019 C2020 1.523 . S
C2020 C2004 1.368 . S
C2020 C2016 1.368 . S
C2020 C2019 1.523 . S
H2021 C1996 0.950 . S
H2022 C1998 0.950 . S
H2023 C1999 0.949 1_565 S
H2024 C2001 0.950 1_565 S
H2025 C2003 0.950 1_565 S
C2026 C2027 1.349 . S
C2026 C2028 1.327 . S
C2026 H2051 0.950 . S
C2027 C2026 1.349 . S
C2027 C2043 1.349 . S
C2028 C2026 1.327 . S
C2028 C2047 1.429 . S
C2028 H2052 0.950 . S
C2029 C2046 1.574 . S
C2029 C2048 1.368 . S
C2029 H2053 0.949 . S
H2030 C2034 0.949 . S
C2031 C2032 1.349 . S
C2031 C2033 1.327 . S
C2031 H2054 0.950 . S
C2032 C2031 1.349 . S
C2032 C2044 1.349 . S
C2033 C2031 1.327 . S
C2033 C2049 1.429 . S
C2033 H2055 0.950 . S
C2034 H2030 0.949 . S
C2034 C2042 1.574 . S
C2034 C2050 1.368 . S
H2035 C2043 0.950 . S
H2036 C2041 0.950 . S
H2037 C2042 0.949 . S
H2038 C2044 0.950 . S
H2039 C2045 0.950 . S
H2040 C2046 0.949 . S
C2041 H2036 0.950 . S
C2041 C2043 1.327 . S
C2041 C2047 1.429 . S
C2042 C2034 1.574 . S
C2042 H2037 0.949 . S
C2042 C2048 1.368 . S
C2043 C2027 1.349 . S
C2043 H2035 0.950 . S
C2043 C2041 1.327 . S
C2044 C2032 1.349 . S
C2044 H2038 0.950 . S
C2044 C2045 1.327 . S
C2045 H2039 0.950 . S
C2045 C2044 1.327 . S
C2045 C2049 1.429 . S
C2046 C2029 1.574 . S
C2046 H2040 0.949 . S
C2046 C2050 1.368 . S
C2047 C2028 1.429 . S
C2047 C2041 1.429 . S
C2047 C2048 1.523 . S
C2048 C2029 1.368 . S
C2048 C2042 1.368 . S
C2048 C2047 1.523 . S
C2049 C2033 1.429 . S
C2049 C2045 1.429 . S
C2049 C2050 1.523 . S
C2050 C2034 1.368 . S
C2050 C2046 1.368 . S
C2050 C2049 1.523 . S
H2051 C2026 0.950 . S
H2052 C2028 0.950 . S
H2053 C2029 0.949 . S
H2054 C2031 0.950 . S
H2055 C2033 0.950 . S
C2056 C2057 1.349 . S
C2056 C2058 1.327 . S
C2056 H2081 0.950 . S
C2057 C2056 1.349 . S
C2057 C2073 1.349 . S
C2058 C2056 1.327 . S
C2058 C2077 1.429 . S
C2058 H2082 0.950 . S
C2059 C2076 1.574 . S
C2059 C2078 1.368 . S
C2059 H2083 0.949 1_545 S
H2060 C2064 0.949 . S
C2061 C2062 1.349 . S
C2061 C2063 1.327 . S
C2061 H2084 0.950 1_545 S
C2062 C2061 1.349 . S
C2062 C2074 1.349 . S
C2063 C2061 1.327 . S
C2063 C2079 1.429 . S
C2063 H2085 0.950 1_545 S
C2064 H2060 0.949 . S
C2064 C2072 1.574 . S
C2064 C2080 1.368 . S
H2065 C2073 0.950 1_565 S
H2066 C2071 0.950 1_565 S
H2067 C2072 0.949 . S
H2068 C2074 0.950 . S
H2069 C2075 0.950 . S
H2070 C2076 0.949 1_565 S
C2071 H2066 0.950 1_545 S
C2071 C2073 1.327 . S
C2071 C2077 1.429 . S
C2072 C2064 1.574 . S
C2072 H2067 0.949 . S
C2072 C2078 1.368 . S
C2073 C2057 1.349 . S
C2073 H2065 0.950 1_545 S
C2073 C2071 1.327 . S
C2074 C2062 1.349 . S
C2074 H2068 0.950 . S
C2074 C2075 1.327 . S
C2075 H2069 0.950 . S
C2075 C2074 1.327 . S
C2075 C2079 1.429 . S
C2076 C2059 1.574 . S
C2076 H2070 0.949 1_545 S
C2076 C2080 1.368 . S
C2077 C2058 1.429 . S
C2077 C2071 1.429 . S
C2077 C2078 1.523 . S
C2078 C2059 1.368 . S
C2078 C2072 1.368 . S
C2078 C2077 1.523 . S
C2079 C2063 1.429 . S
C2079 C2075 1.429 . S
C2079 C2080 1.523 . S
C2080 C2064 1.368 . S
C2080 C2076 1.368 . S
C2080 C2079 1.523 . S
H2081 C2056 0.950 . S
H2082 C2058 0.950 . S
H2083 C2059 0.949 1_565 S
H2084 C2061 0.950 1_565 S
H2085 C2063 0.950 1_565 S
C2086 C2087 1.349 . S
C2086 C2088 1.327 . S
C2086 H2111 0.950 . S
C2087 C2086 1.349 . S
C2087 C2103 1.349 . S
C2088 C2086 1.327 . S
C2088 C2107 1.429 . S
C2088 H2112 0.950 . S
C2089 C2106 1.574 . S
C2089 C2108 1.368 . S
C2089 H2113 0.949 . S
H2090 C2094 0.949 . S
C2091 C2092 1.349 . S
C2091 C2093 1.327 . S
C2091 H2114 0.950 . S
C2092 C2091 1.349 . S
C2092 C2104 1.349 . S
C2093 C2091 1.327 . S
C2093 C2109 1.429 . S
C2093 H2115 0.950 . S
C2094 H2090 0.949 . S
C2094 C2102 1.574 . S
C2094 C2110 1.368 . S
H2095 C2103 0.950 . S
H2096 C2101 0.950 . S
H2097 C2102 0.949 . S
H2098 C2104 0.950 . S
H2099 C2105 0.950 . S
H2100 C2106 0.949 . S
C2101 H2096 0.950 . S
C2101 C2103 1.327 . S
C2101 C2107 1.429 . S
C2102 C2094 1.574 . S
C2102 H2097 0.949 . S
C2102 C2108 1.368 . S
C2103 C2087 1.349 . S
C2103 H2095 0.950 . S
C2103 C2101 1.327 . S
C2104 C2092 1.349 . S
C2104 H2098 0.950 . S
C2104 C2105 1.327 . S
C2105 H2099 0.950 . S
C2105 C2104 1.327 . S
C2105 C2109 1.429 . S
C2106 C2089 1.574 . S
C2106 H2100 0.949 . S
C2106 C2110 1.368 . S
C2107 C2088 1.429 . S
C2107 C2101 1.429 . S
C2107 C2108 1.523 . S
C2108 C2089 1.368 . S
C2108 C2102 1.368 . S
C2108 C2107 1.523 . S
C2109 C2093 1.429 . S
C2109 C2105 1.429 . S
C2109 C2110 1.523 . S
C2110 C2094 1.368 . S
C2110 C2106 1.368 . S
C2110 C2109 1.523 . S
H2111 C2086 0.950 . S
H2112 C2088 0.950 . S
H2113 C2089 0.949 . S
H2114 C2091 0.950 . S
H2115 C2093 0.950 . S
C2116 C2117 1.349 . S
C2116 C2118 1.327 . S
C2116 H2141 0.950 . S
C2117 C2116 1.349 . S
C2117 C2133 1.349 . S
C2118 C2116 1.327 . S
C2118 C2137 1.429 . S
C2118 H2142 0.950 . S
C2119 C2136 1.574 . S
C2119 C2138 1.368 1_565 S
C2119 H2143 0.949 . S
H2120 C2124 0.949 . S
C2121 C2122 1.325 1_565 S
C2121 C2123 1.327 . S
C2121 H2144 0.950 . S
C2122 C2121 1.325 1_545 S
C2122 C2134 1.380 . S
C2123 C2121 1.327 . S
C2123 C2139 1.429 1_565 S
C2123 H2145 0.950 . S
C2124 H2120 0.949 . S
C2124 C2132 1.574 . S
C2124 C2140 1.368 . S
H2125 C2133 0.950 1_565 S
H2126 C2131 0.987 . S
H2127 C2132 0.949 . S
H2128 C2134 0.950 . S
H2129 C2135 0.950 . S
H2130 C2136 0.949 . S
C2131 H2126 0.987 . S
C2131 C2133 1.320 1_565 S
C2131 C2137 1.401 1_565 S
C2132 C2124 1.574 . S
C2132 H2127 0.949 . S
C2132 C2138 1.368 . S
C2133 C2117 1.349 . S
C2133 H2125 0.950 1_545 S
C2133 C2131 1.320 1_545 S
C2134 C2122 1.380 . S
C2134 H2128 0.950 . S
C2134 C2135 1.327 . S
C2135 H2129 0.950 . S
C2135 C2134 1.327 . S
C2135 C2139 1.429 . S
C2136 C2119 1.574 . S
C2136 H2130 0.949 . S
C2136 C2140 1.368 1_565 S
C2137 C2118 1.429 . S
C2137 C2131 1.401 1_545 S
C2137 C2138 1.523 . S
C2138 C2119 1.368 1_545 S
C2138 C2132 1.368 . S
C2138 C2137 1.523 . S
C2139 C2123 1.429 1_545 S
C2139 C2135 1.429 . S
C2139 C2140 1.523 . S
C2140 C2124 1.368 . S
C2140 C2136 1.368 1_545 S
C2140 C2139 1.523 . S
H2141 C2116 0.950 . S
H2142 C2118 0.950 . S
H2143 C2119 0.949 . S
H2144 C2121 0.950 . S
H2145 C2123 0.950 . S
C2146 C2147 1.349 . S
C2146 C2148 1.327 . S
C2146 H2171 0.950 . S
C2147 C2146 1.349 . S
C2147 C2163 1.349 . S
C2148 C2146 1.327 . S
C2148 C2167 1.429 . S
C2148 H2172 0.950 . S
C2149 C2166 1.574 . S
C2149 C2168 1.368 . S
C2149 H2173 0.949 . S
H2150 C2154 0.949 . S
C2151 C2152 1.349 . S
C2151 C2153 1.327 . S
C2151 H2174 0.950 . S
C2152 C2151 1.349 . S
C2152 C2164 1.349 . S
C2153 C2151 1.327 . S
C2153 C2169 1.429 . S
C2153 H2175 0.950 . S
C2154 H2150 0.949 . S
C2154 C2162 1.574 . S
C2154 C2170 1.368 . S
H2155 C2163 0.950 . S
H2156 C2161 0.950 . S
H2157 C2162 0.949 . S
H2158 C2164 0.950 . S
H2159 C2165 0.950 . S
H2160 C2166 0.949 . S
C2161 H2156 0.950 . S
C2161 C2163 1.327 . S
C2161 C2167 1.429 . S
C2162 C2154 1.574 . S
C2162 H2157 0.949 . S
C2162 C2168 1.368 . S
C2163 C2147 1.349 . S
C2163 H2155 0.950 . S
C2163 C2161 1.327 . S
C2164 C2152 1.349 . S
C2164 H2158 0.950 . S
C2164 C2165 1.327 . S
C2165 H2159 0.950 . S
C2165 C2164 1.327 . S
C2165 C2169 1.429 . S
C2166 C2149 1.574 . S
C2166 H2160 0.949 . S
C2166 C2170 1.368 . S
C2167 C2148 1.429 . S
C2167 C2161 1.429 . S
C2167 C2168 1.523 . S
C2168 C2149 1.368 . S
C2168 C2162 1.368 . S
C2168 C2167 1.523 . S
C2169 C2153 1.429 . S
C2169 C2165 1.429 . S
C2169 C2170 1.523 . S
C2170 C2154 1.368 . S
C2170 C2166 1.368 . S
C2170 C2169 1.523 . S
H2171 C2146 0.950 . S
H2172 C2148 0.950 . S
H2173 C2149 0.949 . S
H2174 C2151 0.950 . S
H2175 C2153 0.950 . S
C2176 C2177 1.349 . S
C2176 C2178 1.327 . S
C2176 H2201 0.950 . S
C2177 C2176 1.349 . S
C2177 C2193 1.349 . S
C2178 C2176 1.327 . S
C2178 C2197 1.429 . S
C2178 H2202 0.950 . S
C2179 C2196 1.574 . S
C2179 C2198 1.368 . S
C2179 H2203 0.949 . S
H2180 C2184 0.949 . S
C2181 C2182 1.349 . S
C2181 C2183 1.327 . S
C2181 H2204 0.950 . S
C2182 C2181 1.349 . S
C2182 C2194 1.349 . S
C2183 C2181 1.327 . S
C2183 C2199 1.429 . S
C2183 H2205 0.950 . S
C2184 H2180 0.949 . S
C2184 C2192 1.574 . S
C2184 C2200 1.368 . S
H2185 C2193 0.950 . S
H2186 C2191 0.950 . S
H2187 C2192 0.949 . S
H2188 C2194 0.919 1_556 S
H2189 C2195 0.950 . S
H2190 C2196 0.949 . S
C2191 H2186 0.950 . S
C2191 C2193 1.327 . S
C2191 C2197 1.429 . S
C2192 C2184 1.574 . S
C2192 H2187 0.949 . S
C2192 C2198 1.368 . S
C2193 C2177 1.349 . S
C2193 H2185 0.950 . S
C2193 C2191 1.327 . S
C2194 C2182 1.349 . S
C2194 H2188 0.919 1_554 S
C2194 C2195 1.327 . S
C2195 H2189 0.950 . S
C2195 C2194 1.327 . S
C2195 C2199 1.429 . S
C2196 C2179 1.574 . S
C2196 H2190 0.949 . S
C2196 C2200 1.368 . S
C2197 C2178 1.429 . S
C2197 C2191 1.429 . S
C2197 C2198 1.523 . S
C2198 C2179 1.368 . S
C2198 C2192 1.368 . S
C2198 C2197 1.523 . S
C2199 C2183 1.429 . S
C2199 C2195 1.429 . S
C2199 C2200 1.523 . S
C2200 C2184 1.368 . S
C2200 C2196 1.368 . S
C2200 C2199 1.523 . S
H2201 C2176 0.950 . S
H2202 C2178 0.950 . S
H2203 C2179 0.949 . S
H2204 C2181 0.950 . S
H2205 C2183 0.950 . S
C2206 C2207 1.349 . S
C2206 C2208 1.327 . S
C2206 H2231 0.950 . S
C2207 C2206 1.349 . S
C2207 C2223 1.349 . S
C2208 C2206 1.327 . S
C2208 C2227 1.429 . S
C2208 H2232 0.950 . S
C2209 C2226 1.574 . S
C2209 C2228 1.368 . S
C2209 H2233 0.949 . S
H2210 C2214 0.949 . S
C2211 C2212 1.349 . S
C2211 C2213 1.327 . S
C2211 H2234 0.950 . S
C2212 C2211 1.349 . S
C2212 C2224 1.349 . S
C2213 C2211 1.327 . S
C2213 C2229 1.429 . S
C2213 H2235 0.950 . S
C2214 H2210 0.949 . S
C2214 C2222 1.574 . S
C2214 C2230 1.368 . S
H2215 C2223 0.950 . S
H2216 C2221 0.950 . S
H2217 C2222 0.949 . S
H2218 C2224 0.950 . S
H2219 C2225 0.950 . S
H2220 C2226 0.949 . S
C2221 H2216 0.950 . S
C2221 C2223 1.327 . S
C2221 C2227 1.429 . S
C2222 C2214 1.574 . S
C2222 H2217 0.949 . S
C2222 C2228 1.368 . S
C2223 C2207 1.349 . S
C2223 H2215 0.950 . S
C2223 C2221 1.327 . S
C2224 C2212 1.349 . S
C2224 H2218 0.950 . S
C2224 C2225 1.327 . S
C2225 H2219 0.950 . S
C2225 C2224 1.327 . S
C2225 C2229 1.429 . S
C2226 C2209 1.574 . S
C2226 H2220 0.949 . S
C2226 C2230 1.368 . S
C2227 C2208 1.429 . S
C2227 C2221 1.429 . S
C2227 C2228 1.523 . S
C2228 C2209 1.368 . S
C2228 C2222 1.368 . S
C2228 C2227 1.523 . S
C2229 C2213 1.429 . S
C2229 C2225 1.429 . S
C2229 C2230 1.523 . S
C2230 C2214 1.368 . S
C2230 C2226 1.368 . S
C2230 C2229 1.523 . S
H2231 C2206 0.950 . S
H2232 C2208 0.950 . S
H2233 C2209 0.949 . S
H2234 C2211 0.950 . S
H2235 C2213 0.950 . S
C2236 C2237 1.349 . S
C2236 C2238 1.327 . S
C2236 H2261 0.950 . S
C2237 C2236 1.349 . S
C2237 C2253 1.349 . S
C2238 C2236 1.327 . S
C2238 C2257 1.429 . S
C2238 H2262 0.950 . S
C2239 C2256 1.574 . S
C2239 C2258 1.368 . S
C2239 H2263 0.949 . S
H2240 C2244 0.949 . S
C2241 C2242 1.349 . S
C2241 C2243 1.327 . S
C2241 H2264 0.950 . S
C2242 C2241 1.349 . S
C2242 C2254 1.349 . S
C2243 C2241 1.327 . S
C2243 C2259 1.429 . S
C2243 H2265 0.950 . S
C2244 H2240 0.949 . S
C2244 C2252 1.574 . S
C2244 C2260 1.368 . S
H2245 C2253 0.950 . S
H2246 C2251 0.950 . S
H2247 C2252 0.949 . S
H2248 C2254 0.950 . S
H2249 C2255 0.950 . S
H2250 C2256 0.949 . S
C2251 H2246 0.950 . S
C2251 C2253 1.327 . S
C2251 C2257 1.429 . S
C2252 C2244 1.574 . S
C2252 H2247 0.949 . S
C2252 C2258 1.368 . S
C2253 C2237 1.349 . S
C2253 H2245 0.950 . S
C2253 C2251 1.327 . S
C2254 C2242 1.349 . S
C2254 H2248 0.950 . S
C2254 C2255 1.327 . S
C2255 H2249 0.950 . S
C2255 C2254 1.327 . S
C2255 C2259 1.429 . S
C2256 C2239 1.574 . S
C2256 H2250 0.949 . S
C2256 C2260 1.368 . S
C2257 C2238 1.429 . S
C2257 C2251 1.429 . S
C2257 C2258 1.523 . S
C2258 C2239 1.368 . S
C2258 C2252 1.368 . S
C2258 C2257 1.523 . S
C2259 C2243 1.429 . S
C2259 C2255 1.429 . S
C2259 C2260 1.523 . S
C2260 C2244 1.368 . S
C2260 C2256 1.368 . S
C2260 C2259 1.523 . S
H2261 C2236 0.950 . S
H2262 C2238 0.950 . S
H2263 C2239 0.949 . S
H2264 C2241 0.950 . S
H2265 C2243 0.950 . S
C2266 C2267 1.349 . S
C2266 C2268 1.327 . S
C2266 H2291 0.950 . S
C2267 C2266 1.349 . S
C2267 C2283 1.349 . S
C2268 C2266 1.327 . S
C2268 C2287 1.429 . S
C2268 H2292 0.950 . S
C2269 C2286 1.574 . S
C2269 C2288 1.368 . S
C2269 H2293 0.949 . S
H2270 C2274 0.949 . S
C2271 C2272 1.349 . S
C2271 C2273 1.327 . S
C2271 H2294 0.950 . S
C2272 C2271 1.349 . S
C2272 C2284 1.349 . S
C2273 C2271 1.327 . S
C2273 C2289 1.429 . S
C2273 H2295 0.950 . S
C2274 H2270 0.949 . S
C2274 C2282 1.574 . S
C2274 C2290 1.368 . S
H2275 C2283 0.950 . S
H2276 C2281 0.950 . S
H2277 C2282 0.949 . S
H2278 C2284 0.950 . S
H2279 C2285 0.950 . S
H2280 C2286 0.949 . S
C2281 H2276 0.950 . S
C2281 C2283 1.327 . S
C2281 C2287 1.429 . S
C2282 C2274 1.574 . S
C2282 H2277 0.949 . S
C2282 C2288 1.368 . S
C2283 C2267 1.349 . S
C2283 H2275 0.950 . S
C2283 C2281 1.327 . S
C2284 C2272 1.349 . S
C2284 H2278 0.950 . S
C2284 C2285 1.327 . S
C2285 H2279 0.950 . S
C2285 C2284 1.327 . S
C2285 C2289 1.429 . S
C2286 C2269 1.574 . S
C2286 H2280 0.949 . S
C2286 C2290 1.368 . S
C2287 C2268 1.429 . S
C2287 C2281 1.429 . S
C2287 C2288 1.523 . S
C2288 C2269 1.368 . S
C2288 C2282 1.368 . S
C2288 C2287 1.523 . S
C2289 C2273 1.429 . S
C2289 C2285 1.429 . S
C2289 C2290 1.523 . S
C2290 C2274 1.368 . S
C2290 C2286 1.368 . S
C2290 C2289 1.523 . S
H2291 C2266 0.950 . S
H2292 C2268 0.950 . S
H2293 C2269 0.949 . S
H2294 C2271 0.950 . S
H2295 C2273 0.950 . S
C2296 C2297 1.349 . S
C2296 C2298 1.327 . S
C2296 H2321 0.950 . S
C2297 C2296 1.349 . S
C2297 C2313 1.349 . S
C2298 C2296 1.327 . S
C2298 C2317 1.429 . S
C2298 H2322 0.950 . S
C2299 C2316 1.574 . S
C2299 C2318 1.368 . S
C2299 H2323 0.949 . S
H2300 C2304 0.949 . S
C2301 C2302 1.349 . S
C2301 C2303 1.327 . S
C2301 H2324 0.950 . S
C2302 C2301 1.349 . S
C2302 C2314 1.349 . S
C2303 C2301 1.327 . S
C2303 C2319 1.429 . S
C2303 H2325 0.950 . S
C2304 H2300 0.949 . S
C2304 C2312 1.574 . S
C2304 C2320 1.368 . S
H2305 C2313 0.950 . S
H2306 C2311 0.950 . S
H2307 C2312 0.949 . S
H2308 C2314 0.950 . S
H2309 C2315 0.950 . S
H2310 C2316 0.949 . S
C2311 H2306 0.950 . S
C2311 C2313 1.327 . S
C2311 C2317 1.429 . S
C2312 C2304 1.574 . S
C2312 H2307 0.949 . S
C2312 C2318 1.368 . S
C2313 C2297 1.349 . S
C2313 H2305 0.950 . S
C2313 C2311 1.327 . S
C2314 C2302 1.349 . S
C2314 H2308 0.950 . S
C2314 C2315 1.327 . S
C2315 H2309 0.950 . S
C2315 C2314 1.327 . S
C2315 C2319 1.429 . S
C2316 C2299 1.574 . S
C2316 H2310 0.949 . S
C2316 C2320 1.368 . S
C2317 C2298 1.429 . S
C2317 C2311 1.429 . S
C2317 C2318 1.523 . S
C2318 C2299 1.368 . S
C2318 C2312 1.368 . S
C2318 C2317 1.523 . S
C2319 C2303 1.429 . S
C2319 C2315 1.429 . S
C2319 C2320 1.523 . S
C2320 C2304 1.368 . S
C2320 C2316 1.368 . S
C2320 C2319 1.523 . S
H2321 C2296 0.950 . S
H2322 C2298 0.950 . S
H2323 C2299 0.949 . S
H2324 C2301 0.950 . S
H2325 C2303 0.950 . S
C2326 C2327 1.349 . S
C2326 C2328 1.327 . S
C2326 H2351 0.950 . S
C2327 C2326 1.349 . S
C2327 C2343 1.349 . S
C2328 C2326 1.327 . S
C2328 C2347 1.429 . S
C2328 H2352 0.950 . S
C2329 C2346 1.574 . S
C2329 C2348 1.368 . S
C2329 H2353 0.949 . S
H2330 C2334 0.949 . S
C2331 C2332 1.349 . S
C2331 C2333 1.327 . S
C2331 H2354 0.950 . S
C2332 C2331 1.349 . S
C2332 C2344 1.349 . S
C2333 C2331 1.327 . S
C2333 C2349 1.429 . S
C2333 H2355 0.950 . S
C2334 H2330 0.949 . S
C2334 C2342 1.574 . S
C2334 C2350 1.368 . S
H2335 C2343 0.950 . S
H2336 C2341 0.950 . S
H2337 C2342 0.949 . S
H2338 C2344 0.950 . S
H2339 C2345 0.950 . S
H2340 C2346 0.949 . S
C2341 H2336 0.950 . S
C2341 C2343 1.327 . S
C2341 C2347 1.429 . S
C2342 C2334 1.574 . S
C2342 H2337 0.949 . S
C2342 C2348 1.368 . S
C2343 C2327 1.349 . S
C2343 H2335 0.950 . S
C2343 C2341 1.327 . S
C2344 C2332 1.349 . S
C2344 H2338 0.950 . S
C2344 C2345 1.327 . S
C2345 H2339 0.950 . S
C2345 C2344 1.327 . S
C2345 C2349 1.429 . S
C2346 C2329 1.574 . S
C2346 H2340 0.949 . S
C2346 C2350 1.368 . S
C2347 C2328 1.429 . S
C2347 C2341 1.429 . S
C2347 C2348 1.523 . S
C2348 C2329 1.368 . S
C2348 C2342 1.368 . S
C2348 C2347 1.523 . S
C2349 C2333 1.429 . S
C2349 C2345 1.429 . S
C2349 C2350 1.523 . S
C2350 C2334 1.368 . S
C2350 C2346 1.368 . S
C2350 C2349 1.523 . S
H2351 C2326 0.950 . S
H2352 C2328 0.950 . S
H2353 C2329 0.949 . S
H2354 C2331 0.950 . S
H2355 C2333 0.950 . S
C2356 C2357 1.349 . S
C2356 C2358 1.327 . S
C2356 H2381 0.950 . S
C2357 C2356 1.349 . S
C2357 C2373 1.349 . S
C2358 C2356 1.327 . S
C2358 C2377 1.429 . S
C2358 H2382 0.950 . S
C2359 C2376 1.574 . S
C2359 C2378 1.368 . S
C2359 H2383 0.949 . S
H2360 C2364 0.949 . S
C2361 C2362 1.349 . S
C2361 C2363 1.327 . S
C2361 H2384 0.950 . S
C2362 C2361 1.349 . S
C2362 C2374 1.349 . S
C2363 C2361 1.327 . S
C2363 C2379 1.429 . S
C2363 H2385 0.950 . S
C2364 H2360 0.949 . S
C2364 C2372 1.574 . S
C2364 C2380 1.368 . S
H2365 C2373 0.950 . S
H2366 C2371 0.950 . S
H2367 C2372 0.949 . S
H2368 C2374 0.950 . S
H2369 C2375 0.950 . S
H2370 C2376 0.949 . S
C2371 H2366 0.950 . S
C2371 C2373 1.327 . S
C2371 C2377 1.429 . S
C2372 C2364 1.574 . S
C2372 H2367 0.949 . S
C2372 C2378 1.368 . S
C2373 C2357 1.349 . S
C2373 H2365 0.950 . S
C2373 C2371 1.327 . S
C2374 C2362 1.349 . S
C2374 H2368 0.950 . S
C2374 C2375 1.327 . S
C2375 H2369 0.950 . S
C2375 C2374 1.327 . S
C2375 C2379 1.429 . S
C2376 C2359 1.574 . S
C2376 H2370 0.949 . S
C2376 C2380 1.368 . S
C2377 C2358 1.429 . S
C2377 C2371 1.429 . S
C2377 C2378 1.523 . S
C2378 C2359 1.368 . S
C2378 C2372 1.368 . S
C2378 C2377 1.523 . S
C2379 C2363 1.429 . S
C2379 C2375 1.429 . S
C2379 C2380 1.523 . S
C2380 C2364 1.368 . S
C2380 C2376 1.368 . S
C2380 C2379 1.523 . S
H2381 C2356 0.950 . S
H2382 C2358 0.950 . S
H2383 C2359 0.949 . S
H2384 C2361 0.950 . S
H2385 C2363 0.950 . S
C2386 C2387 1.349 . S
C2386 C2388 1.327 . S
C2386 H2411 0.950 . S
C2387 C2386 1.349 . S
C2387 C2403 1.349 . S
C2388 C2386 1.327 . S
C2388 C2407 1.429 . S
C2388 H2412 0.950 . S
C2389 C2406 1.574 . S
C2389 C2408 1.368 . S
C2389 H2413 0.949 . S
H2390 C2394 0.949 . S
C2391 C2392 1.349 . S
C2391 C2393 1.327 . S
C2391 H2414 0.950 . S
C2392 C2391 1.349 . S
C2392 C2404 1.349 . S
C2393 C2391 1.327 . S
C2393 C2409 1.429 . S
C2393 H2415 0.950 . S
C2394 H2390 0.949 . S
C2394 C2402 1.574 . S
C2394 C2410 1.368 . S
H2395 C2403 0.950 . S
H2396 C2401 0.950 . S
H2397 C2402 0.949 . S
H2398 C2404 0.950 . S
H2399 C2405 0.950 . S
H2400 C2406 0.949 . S
C2401 H2396 0.950 . S
C2401 C2403 1.327 . S
C2401 C2407 1.429 . S
C2402 C2394 1.574 . S
C2402 H2397 0.949 . S
C2402 C2408 1.368 . S
C2403 C2387 1.349 . S
C2403 H2395 0.950 . S
C2403 C2401 1.327 . S
C2404 C2392 1.349 . S
C2404 H2398 0.950 . S
C2404 C2405 1.327 . S
C2405 H2399 0.950 . S
C2405 C2404 1.327 . S
C2405 C2409 1.429 . S
C2406 C2389 1.574 . S
C2406 H2400 0.949 . S
C2406 C2410 1.368 . S
C2407 C2388 1.429 . S
C2407 C2401 1.429 . S
C2407 C2408 1.523 . S
C2408 C2389 1.368 . S
C2408 C2402 1.368 . S
C2408 C2407 1.523 . S
C2409 C2393 1.429 . S
C2409 C2405 1.429 . S
C2409 C2410 1.523 . S
C2410 C2394 1.368 . S
C2410 C2406 1.368 . S
C2410 C2409 1.523 . S
H2411 C2386 0.950 . S
H2412 C2388 0.950 . S
H2413 C2389 0.949 . S
H2414 C2391 0.950 . S
H2415 C2393 0.950 . S
C2416 C2417 1.349 . S
C2416 C2418 1.327 . S
C2416 H2441 0.950 . S
C2417 C2416 1.349 . S
C2417 C2433 1.349 . S
C2418 C2416 1.327 . S
C2418 C2437 1.429 . S
C2418 H2442 0.950 . S
C2419 C2436 1.574 . S
C2419 C2438 1.368 . S
C2419 H2443 0.949 . S
H2420 C2424 0.949 . S
C2421 C2422 1.349 . S
C2421 C2423 1.327 . S
C2421 H2444 0.950 . S
C2422 C2421 1.349 . S
C2422 C2434 1.349 . S
C2423 C2421 1.327 . S
C2423 C2439 1.429 . S
C2423 H2445 0.950 . S
C2424 H2420 0.949 . S
C2424 C2432 1.574 . S
C2424 C2440 1.368 . S
H2425 C2433 0.950 . S
H2426 C2431 0.950 . S
H2427 C2432 0.949 . S
H2428 C2434 0.950 . S
H2429 C2435 0.950 . S
H2430 C2436 0.949 . S
C2431 H2426 0.950 . S
C2431 C2433 1.327 . S
C2431 C2437 1.429 . S
C2432 C2424 1.574 . S
C2432 H2427 0.949 . S
C2432 C2438 1.368 . S
C2433 C2417 1.349 . S
C2433 H2425 0.950 . S
C2433 C2431 1.327 . S
C2434 C2422 1.349 . S
C2434 H2428 0.950 . S
C2434 C2435 1.327 . S
C2435 H2429 0.950 . S
C2435 C2434 1.327 . S
C2435 C2439 1.429 . S
C2436 C2419 1.574 . S
C2436 H2430 0.949 . S
C2436 C2440 1.368 . S
C2437 C2418 1.429 . S
C2437 C2431 1.429 . S
C2437 C2438 1.523 . S
C2438 C2419 1.368 . S
C2438 C2432 1.368 . S
C2438 C2437 1.523 . S
C2439 C2423 1.429 . S
C2439 C2435 1.429 . S
C2439 C2440 1.523 . S
C2440 C2424 1.368 . S
C2440 C2436 1.368 . S
C2440 C2439 1.523 . S
H2441 C2416 0.950 . S
H2442 C2418 0.950 . S
H2443 C2419 0.949 . S
H2444 C2421 0.950 . S
H2445 C2423 0.950 . S
C2446 C2447 1.349 . S
C2446 C2448 1.327 . S
C2446 H2471 0.950 . S
C2447 C2446 1.349 . S
C2447 C2463 1.349 . S
C2448 C2446 1.327 . S
C2448 C2467 1.429 . S
C2448 H2472 0.950 . S
C2449 C2466 1.574 . S
C2449 C2468 1.368 . S
C2449 H2473 0.949 . S
H2450 C2454 0.949 . S
C2451 C2452 1.349 . S
C2451 C2453 1.327 . S
C2451 H2474 0.950 . S
C2452 C2451 1.349 . S
C2452 C2464 1.349 . S
C2453 C2451 1.327 . S
C2453 C2469 1.429 . S
C2453 H2475 0.950 . S
C2454 H2450 0.949 . S
C2454 C2462 1.574 . S
C2454 C2470 1.368 . S
H2455 C2463 0.950 . S
H2456 C2461 0.950 . S
H2457 C2462 0.949 . S
H2458 C2464 0.950 . S
H2459 C2465 0.950 . S
H2460 C2466 0.949 . S
C2461 H2456 0.950 . S
C2461 C2463 1.327 . S
C2461 C2467 1.429 . S
C2462 C2454 1.574 . S
C2462 H2457 0.949 . S
C2462 C2468 1.368 . S
C2463 C2447 1.349 . S
C2463 H2455 0.950 . S
C2463 C2461 1.327 . S
C2464 C2452 1.349 . S
C2464 H2458 0.950 . S
C2464 C2465 1.327 . S
C2465 H2459 0.950 . S
C2465 C2464 1.327 . S
C2465 C2469 1.429 . S
C2466 C2449 1.574 . S
C2466 H2460 0.949 . S
C2466 C2470 1.368 . S
C2467 C2448 1.429 . S
C2467 C2461 1.429 . S
C2467 C2468 1.523 . S
C2468 C2449 1.368 . S
C2468 C2462 1.368 . S
C2468 C2467 1.523 . S
C2469 C2453 1.429 . S
C2469 C2465 1.429 . S
C2469 C2470 1.523 . S
C2470 C2454 1.368 . S
C2470 C2466 1.368 . S
C2470 C2469 1.523 . S
H2471 C2446 0.950 . S
H2472 C2448 0.950 . S
H2473 C2449 0.949 . S
H2474 C2451 0.950 . S
H2475 C2453 0.950 . S
C2476 C2477 1.349 . S
C2476 C2478 1.327 . S
C2476 H2501 0.950 . S
C2477 C2476 1.349 . S
C2477 C2493 1.349 . S
C2478 C2476 1.327 . S
C2478 C2497 1.429 . S
C2478 H2502 0.950 . S
C2479 C2496 1.574 . S
C2479 C2498 1.368 1_554 S
C2479 H2503 0.949 . S
H2480 C2484 0.949 . S
C2481 C2482 1.349 . S
C2481 C2483 1.327 . S
C2481 H2504 0.950 . S
C2482 C2481 1.349 . S
C2482 C2494 1.349 . S
C2483 C2481 1.327 . S
C2483 C2499 1.429 . S
C2483 H2505 0.950 . S
C2484 H2480 0.949 . S
C2484 C2492 1.574 . S
C2484 C2500 1.368 1_556 S
H2485 C2493 0.950 . S
H2486 C2491 0.950 1_554 S
H2487 C2492 0.949 . S
H2488 C2494 0.950 . S
H2489 C2495 0.981 . S
H2490 C2496 0.949 . S
C2491 H2486 0.950 1_556 S
C2491 C2493 1.327 . S
C2491 C2497 1.429 . S
C2492 C2484 1.574 . S
C2492 H2487 0.949 . S
C2492 C2498 1.368 . S
C2493 C2477 1.349 . S
C2493 H2485 0.950 . S
C2493 C2491 1.327 . S
C2494 C2482 1.349 . S
C2494 H2488 0.950 . S
C2494 C2495 1.327 . S
C2495 H2489 0.981 . S
C2495 C2494 1.327 . S
C2495 C2499 1.429 . S
C2496 C2479 1.574 . S
C2496 H2490 0.949 . S
C2496 C2500 1.368 . S
C2497 C2478 1.429 . S
C2497 C2491 1.429 . S
C2497 C2498 1.523 . S
C2498 C2479 1.368 1_556 S
C2498 C2492 1.368 . S
C2498 C2497 1.523 . S
C2499 C2483 1.429 . S
C2499 C2495 1.429 . S
C2499 C2500 1.523 . S
C2500 C2484 1.368 1_554 S
C2500 C2496 1.368 . S
C2500 C2499 1.523 . S
H2501 C2476 0.950 . S
H2502 C2478 0.950 . S
H2503 C2479 0.949 . S
H2504 C2481 0.950 . S
H2505 C2483 0.950 . S
C2506 C2507 1.349 . S
C2506 C2508 1.327 . S
C2506 H2531 0.983 . S
C2507 C2506 1.349 . S
C2507 C2523 1.349 . S
C2508 C2506 1.327 . S
C2508 C2527 1.429 . S
C2508 H2532 0.950 . S
C2509 C2526 1.574 . S
C2509 C2528 1.368 . S
C2509 H2533 0.949 . S
H2510 C2514 0.949 . S
C2511 C2512 1.349 . S
C2511 C2513 1.327 . S
C2511 H2534 0.950 . S
C2512 C2511 1.349 . S
C2512 C2524 1.349 . S
C2513 C2511 1.327 . S
C2513 C2529 1.429 . S
C2513 H2535 0.950 . S
C2514 H2510 0.949 . S
C2514 C2522 1.574 . S
C2514 C2530 1.368 . S
H2515 C2523 0.950 . S
H2516 C2521 0.950 . S
H2517 C2522 0.949 . S
H2518 C2524 0.950 . S
H2519 C2525 0.950 . S
H2520 C2526 0.949 . S
C2521 H2516 0.950 . S
C2521 C2523 1.327 . S
C2521 C2527 1.429 . S
C2522 C2514 1.574 . S
C2522 H2517 0.949 . S
C2522 C2528 1.368 . S
C2523 C2507 1.349 . S
C2523 H2515 0.950 . S
C2523 C2521 1.327 . S
C2524 C2512 1.349 . S
C2524 H2518 0.950 . S
C2524 C2525 1.327 . S
C2525 H2519 0.950 . S
C2525 C2524 1.327 . S
C2525 C2529 1.429 . S
C2526 C2509 1.574 . S
C2526 H2520 0.949 . S
C2526 C2530 1.368 . S
C2527 C2508 1.429 . S
C2527 C2521 1.429 . S
C2527 C2528 1.523 . S
C2528 C2509 1.368 . S
C2528 C2522 1.368 . S
C2528 C2527 1.523 . S
C2529 C2513 1.429 . S
C2529 C2525 1.429 . S
C2529 C2530 1.523 . S
C2530 C2514 1.368 . S
C2530 C2526 1.368 . S
C2530 C2529 1.523 . S
H2531 C2506 0.983 . S
H2532 C2508 0.950 . S
H2533 C2509 0.949 . S
H2534 C2511 0.950 . S
H2535 C2513 0.950 . S
C2536 C2537 1.349 . S
C2536 C2538 1.327 . S
C2536 H2561 0.950 . S
C2537 C2536 1.349 . S
C2537 C2553 1.349 . S
C2538 C2536 1.327 . S
C2538 C2557 1.429 . S
C2538 H2562 0.950 . S
C2539 C2556 1.574 . S
C2539 C2558 1.368 . S
C2539 H2563 0.949 . S
H2540 C2544 0.949 . S
C2541 C2542 1.349 . S
C2541 C2543 1.327 . S
C2541 H2564 0.950 . S
C2542 C2541 1.349 . S
C2542 C2554 1.349 . S
C2543 C2541 1.327 . S
C2543 C2559 1.429 . S
C2543 H2565 0.950 . S
C2544 H2540 0.949 . S
C2544 C2552 1.574 . S
C2544 C2560 1.368 . S
H2545 C2553 0.950 . S
H2546 C2551 0.950 . S
H2547 C2552 0.949 . S
H2548 C2554 0.950 . S
H2549 C2555 0.950 . S
H2550 C2556 0.949 . S
C2551 H2546 0.950 . S
C2551 C2553 1.327 . S
C2551 C2557 1.429 . S
C2552 C2544 1.574 . S
C2552 H2547 0.949 . S
C2552 C2558 1.368 . S
C2553 C2537 1.349 . S
C2553 H2545 0.950 . S
C2553 C2551 1.327 . S
C2554 C2542 1.349 . S
C2554 H2548 0.950 . S
C2554 C2555 1.327 . S
C2555 H2549 0.950 . S
C2555 C2554 1.327 . S
C2555 C2559 1.429 . S
C2556 C2539 1.574 . S
C2556 H2550 0.949 . S
C2556 C2560 1.368 . S
C2557 C2538 1.429 . S
C2557 C2551 1.429 . S
C2557 C2558 1.523 . S
C2558 C2539 1.368 . S
C2558 C2552 1.368 . S
C2558 C2557 1.523 . S
C2559 C2543 1.429 . S
C2559 C2555 1.429 . S
C2559 C2560 1.523 . S
C2560 C2544 1.368 . S
C2560 C2556 1.368 . S
C2560 C2559 1.523 . S
H2561 C2536 0.950 . S
H2562 C2538 0.950 . S
H2563 C2539 0.949 . S
H2564 C2541 0.950 . S
H2565 C2543 0.950 . S
C2566 C2567 1.349 . S
C2566 C2568 1.327 . S
C2566 H2591 0.950 . S
C2567 C2566 1.349 . S
C2567 C2583 1.349 . S
C2568 C2566 1.327 . S
C2568 C2587 1.429 . S
C2568 H2592 0.950 . S
C2569 C2586 1.574 . S
C2569 C2588 1.368 . S
C2569 H2593 0.949 . S
H2570 C2574 0.949 . S
C2571 C2572 1.349 . S
C2571 C2573 1.327 . S
C2571 H2594 0.950 . S
C2572 C2571 1.349 . S
C2572 C2584 1.349 . S
C2573 C2571 1.327 . S
C2573 C2589 1.429 . S
C2573 H2595 0.950 . S
C2574 H2570 0.949 . S
C2574 C2582 1.574 . S
C2574 C2590 1.368 . S
H2575 C2583 0.950 . S
H2576 C2581 0.950 . S
H2577 C2582 0.949 . S
H2578 C2584 0.950 . S
H2579 C2585 0.950 . S
H2580 C2586 0.949 . S
C2581 H2576 0.950 . S
C2581 C2583 1.327 . S
C2581 C2587 1.429 . S
C2582 C2574 1.574 . S
C2582 H2577 0.949 . S
C2582 C2588 1.368 . S
C2583 C2567 1.349 . S
C2583 H2575 0.950 . S
C2583 C2581 1.327 . S
C2584 C2572 1.349 . S
C2584 H2578 0.950 . S
C2584 C2585 1.327 . S
C2585 H2579 0.950 . S
C2585 C2584 1.327 . S
C2585 C2589 1.429 . S
C2586 C2569 1.574 . S
C2586 H2580 0.949 . S
C2586 C2590 1.368 . S
C2587 C2568 1.429 . S
C2587 C2581 1.429 . S
C2587 C2588 1.523 . S
C2588 C2569 1.368 . S
C2588 C2582 1.368 . S
C2588 C2587 1.523 . S
C2589 C2573 1.429 . S
C2589 C2585 1.429 . S
C2589 C2590 1.523 . S
C2590 C2574 1.368 . S
C2590 C2586 1.368 . S
C2590 C2589 1.523 . S
H2591 C2566 0.950 . S
H2592 C2568 0.950 . S
H2593 C2569 0.949 . S
H2594 C2571 0.950 . S
H2595 C2573 0.950 . S
C2596 C2597 1.349 . S
C2596 C2598 1.327 . S
C2596 H2621 0.950 . S
C2597 C2596 1.349 . S
C2597 C2613 1.349 . S
C2598 C2596 1.327 . S
C2598 C2617 1.429 . S
C2598 H2622 0.950 . S
C2599 C2616 1.574 . S
C2599 C2618 1.368 . S
C2599 H2623 0.949 . S
H2600 C2604 0.949 . S
C2601 C2602 1.349 . S
C2601 C2603 1.327 . S
C2601 H2624 0.950 . S
C2602 C2601 1.349 . S
C2602 C2614 1.349 . S
C2603 C2601 1.327 . S
C2603 C2619 1.429 . S
C2603 H2625 0.950 . S
C2604 H2600 0.949 . S
C2604 C2612 1.574 . S
C2604 C2620 1.368 . S
H2605 C2613 0.950 . S
H2606 C2611 0.950 . S
H2607 C2612 0.949 . S
H2608 C2614 0.950 . S
H2609 C2615 0.950 . S
H2610 C2616 0.949 . S
C2611 H2606 0.950 . S
C2611 C2613 1.327 . S
C2611 C2617 1.429 . S
C2612 C2604 1.574 . S
C2612 H2607 0.949 . S
C2612 C2618 1.368 . S
C2613 C2597 1.349 . S
C2613 H2605 0.950 . S
C2613 C2611 1.327 . S
C2614 C2602 1.349 . S
C2614 H2608 0.950 . S
C2614 C2615 1.327 . S
C2615 H2609 0.950 . S
C2615 C2614 1.327 . S
C2615 C2619 1.429 . S
C2616 C2599 1.574 . S
C2616 H2610 0.949 . S
C2616 C2620 1.368 . S
C2617 C2598 1.429 . S
C2617 C2611 1.429 . S
C2617 C2618 1.523 . S
C2618 C2599 1.368 . S
C2618 C2612 1.368 . S
C2618 C2617 1.523 . S
C2619 C2603 1.429 . S
C2619 C2615 1.429 . S
C2619 C2620 1.523 . S
C2620 C2604 1.368 . S
C2620 C2616 1.368 . S
C2620 C2619 1.523 . S
H2621 C2596 0.950 . S
H2622 C2598 0.950 . S
H2623 C2599 0.949 . S
H2624 C2601 0.950 . S
H2625 C2603 0.950 . S
C2626 C2627 1.349 . S
C2626 C2628 1.327 . S
C2626 H2651 0.950 . S
C2627 C2626 1.349 . S
C2627 C2643 1.349 . S
C2628 C2626 1.327 . S
C2628 C2647 1.429 . S
C2628 H2652 0.950 . S
C2629 C2646 1.574 . S
C2629 C2648 1.368 . S
C2629 H2653 0.949 . S
H2630 C2634 0.949 . S
C2631 C2632 1.349 . S
C2631 C2633 1.327 . S
C2631 H2654 0.950 . S
C2632 C2631 1.349 . S
C2632 C2644 1.349 . S
C2633 C2631 1.327 . S
C2633 C2649 1.429 . S
C2633 H2655 0.950 . S
C2634 H2630 0.949 . S
C2634 C2642 1.574 . S
C2634 C2650 1.368 . S
H2635 C2643 0.950 . S
H2636 C2641 0.950 . S
H2637 C2642 0.949 . S
H2638 C2644 0.950 . S
H2639 C2645 0.950 . S
H2640 C2646 0.949 . S
C2641 H2636 0.950 . S
C2641 C2643 1.327 . S
C2641 C2647 1.429 . S
C2642 C2634 1.574 . S
C2642 H2637 0.949 . S
C2642 C2648 1.368 . S
C2643 C2627 1.349 . S
C2643 H2635 0.950 . S
C2643 C2641 1.327 . S
C2644 C2632 1.349 . S
C2644 H2638 0.950 . S
C2644 C2645 1.327 . S
C2645 H2639 0.950 . S
C2645 C2644 1.327 . S
C2645 C2649 1.429 . S
C2646 C2629 1.574 . S
C2646 H2640 0.949 . S
C2646 C2650 1.368 . S
C2647 C2628 1.429 . S
C2647 C2641 1.429 . S
C2647 C2648 1.523 . S
C2648 C2629 1.368 . S
C2648 C2642 1.368 . S
C2648 C2647 1.523 . S
C2649 C2633 1.429 . S
C2649 C2645 1.429 . S
C2649 C2650 1.523 . S
C2650 C2634 1.368 . S
C2650 C2646 1.368 . S
C2650 C2649 1.523 . S
H2651 C2626 0.950 . S
H2652 C2628 0.950 . S
H2653 C2629 0.949 . S
H2654 C2631 0.950 . S
H2655 C2633 0.950 . S
C2656 C2657 1.349 . S
C2656 C2658 1.327 . S
C2656 H2681 0.950 . S
C2657 C2656 1.349 . S
C2657 C2673 1.349 . S
C2658 C2656 1.327 . S
C2658 C2677 1.429 . S
C2658 H2682 0.950 . S
C2659 C2676 1.574 . S
C2659 C2678 1.368 . S
C2659 H2683 0.949 . S
H2660 C2664 0.949 . S
C2661 C2662 1.349 . S
C2661 C2663 1.327 . S
C2661 H2684 0.950 . S
C2662 C2661 1.349 . S
C2662 C2674 1.349 . S
C2663 C2661 1.327 . S
C2663 C2679 1.429 . S
C2663 H2685 0.950 . S
C2664 H2660 0.949 . S
C2664 C2672 1.574 . S
C2664 C2680 1.368 . S
H2665 C2673 0.950 . S
H2666 C2671 0.950 . S
H2667 C2672 0.949 . S
H2668 C2674 0.950 . S
H2669 C2675 0.950 . S
H2670 C2676 0.949 . S
C2671 H2666 0.950 . S
C2671 C2673 1.327 . S
C2671 C2677 1.429 . S
C2672 C2664 1.574 . S
C2672 H2667 0.949 . S
C2672 C2678 1.368 . S
C2673 C2657 1.349 . S
C2673 H2665 0.950 . S
C2673 C2671 1.327 . S
C2674 C2662 1.349 . S
C2674 H2668 0.950 . S
C2674 C2675 1.327 . S
C2675 H2669 0.950 . S
C2675 C2674 1.327 . S
C2675 C2679 1.429 . S
C2676 C2659 1.574 . S
C2676 H2670 0.949 . S
C2676 C2680 1.368 . S
C2677 C2658 1.429 . S
C2677 C2671 1.429 . S
C2677 C2678 1.523 . S
C2678 C2659 1.368 . S
C2678 C2672 1.368 . S
C2678 C2677 1.523 . S
C2679 C2663 1.429 . S
C2679 C2675 1.429 . S
C2679 C2680 1.523 . S
C2680 C2664 1.368 . S
C2680 C2676 1.368 . S
C2680 C2679 1.523 . S
H2681 C2656 0.950 . S
H2682 C2658 0.950 . S
H2683 C2659 0.949 . S
H2684 C2661 0.950 . S
H2685 C2663 0.950 . S
C2686 C2687 1.349 . S
C2686 C2688 1.327 1_554 S
C2686 H2711 0.950 . S
C2687 C2686 1.349 . S
C2687 C2703 1.349 . S
C2688 C2686 1.327 1_556 S
C2688 C2707 1.429 . S
C2688 H2712 0.950 . S
C2689 C2706 1.574 . S
C2689 C2708 1.368 . S
C2689 H2713 0.949 . S
H2690 C2694 0.949 . S
C2691 C2692 1.349 . S
C2691 C2693 1.327 . S
C2691 H2714 0.950 . S
C2692 C2691 1.349 . S
C2692 C2704 1.349 . S
C2693 C2691 1.327 . S
C2693 C2709 1.429 . S
C2693 H2715 0.950 . S
C2694 H2690 0.949 . S
C2694 C2702 1.574 . S
C2694 C2710 1.368 . S
H2695 C2703 0.950 . S
H2696 C2701 0.950 . S
H2697 C2702 0.949 . S
H2698 C2704 0.950 . S
H2699 C2705 0.950 . S
H2700 C2706 0.949 . S
C2701 H2696 0.950 . S
C2701 C2703 1.327 1_556 S
C2701 C2707 1.429 . S
C2702 C2694 1.574 . S
C2702 H2697 0.949 . S
C2702 C2708 1.368 . S
C2703 C2687 1.349 . S
C2703 H2695 0.950 . S
C2703 C2701 1.327 1_554 S
C2704 C2692 1.349 . S
C2704 H2698 0.950 . S
C2704 C2705 1.327 . S
C2705 H2699 0.950 . S
C2705 C2704 1.327 . S
C2705 C2709 1.429 . S
C2706 C2689 1.574 . S
C2706 H2700 0.949 . S
C2706 C2710 1.368 . S
C2707 C2688 1.429 . S
C2707 C2701 1.429 . S
C2707 C2708 1.523 . S
C2708 C2689 1.368 . S
C2708 C2702 1.368 . S
C2708 C2707 1.523 . S
C2709 C2693 1.429 . S
C2709 C2705 1.429 . S
C2709 C2710 1.523 . S
C2710 C2694 1.368 . S
C2710 C2706 1.368 . S
C2710 C2709 1.523 . S
H2711 C2686 0.950 . S
H2712 C2688 0.950 . S
H2713 C2689 0.949 . S
H2714 C2691 0.950 . S
H2715 C2693 0.950 . S
C2716 C2717 1.349 . S
C2716 C2718 1.327 . S
C2716 H2741 0.950 . S
C2717 C2716 1.349 . S
C2717 C2733 1.349 . S
C2718 C2716 1.327 . S
C2718 C2737 1.429 . S
C2718 H2742 0.950 . S
C2719 C2736 1.574 . S
C2719 C2738 1.368 . S
C2719 H2743 0.949 . S
H2720 C2724 0.949 . S
C2721 C2722 1.349 . S
C2721 C2723 1.327 . S
C2721 H2744 0.950 . S
C2722 C2721 1.349 . S
C2722 C2734 1.349 . S
C2723 C2721 1.327 . S
C2723 C2739 1.429 . S
C2723 H2745 0.950 . S
C2724 H2720 0.949 . S
C2724 C2732 1.574 . S
C2724 C2740 1.368 . S
H2725 C2733 0.950 . S
H2726 C2731 0.950 . S
H2727 C2732 0.949 . S
H2728 C2734 0.950 . S
H2729 C2735 0.950 . S
H2730 C2736 0.949 . S
C2731 H2726 0.950 . S
C2731 C2733 1.327 . S
C2731 C2737 1.429 . S
C2732 C2724 1.574 . S
C2732 H2727 0.949 . S
C2732 C2738 1.368 . S
C2733 C2717 1.349 . S
C2733 H2725 0.950 . S
C2733 C2731 1.327 . S
C2734 C2722 1.349 . S
C2734 H2728 0.950 . S
C2734 C2735 1.327 . S
C2735 H2729 0.950 . S
C2735 C2734 1.327 . S
C2735 C2739 1.429 . S
C2736 C2719 1.574 . S
C2736 H2730 0.949 . S
C2736 C2740 1.368 . S
C2737 C2718 1.429 . S
C2737 C2731 1.429 . S
C2737 C2738 1.523 . S
C2738 C2719 1.368 . S
C2738 C2732 1.368 . S
C2738 C2737 1.523 . S
C2739 C2723 1.429 . S
C2739 C2735 1.429 . S
C2739 C2740 1.523 . S
C2740 C2724 1.368 . S
C2740 C2736 1.368 . S
C2740 C2739 1.523 . S
H2741 C2716 0.950 . S
H2742 C2718 0.950 . S
H2743 C2719 0.949 . S
H2744 C2721 0.950 . S
H2745 C2723 0.950 . S
C2746 C2747 1.349 . S
C2746 C2748 1.327 . S
C2746 H2771 0.950 . S
C2747 C2746 1.349 . S
C2747 C2763 1.349 . S
C2748 C2746 1.327 . S
C2748 C2767 1.429 . S
C2748 H2772 0.950 . S
C2749 C2766 1.574 . S
C2749 C2768 1.368 . S
C2749 H2773 0.949 . S
H2750 C2754 0.949 . S
C2751 C2752 1.349 . S
C2751 C2753 1.327 . S
C2751 H2774 0.950 . S
C2752 C2751 1.349 . S
C2752 C2764 1.349 . S
C2753 C2751 1.327 . S
C2753 C2769 1.429 . S
C2753 H2775 0.950 . S
C2754 H2750 0.949 . S
C2754 C2762 1.574 . S
C2754 C2770 1.368 . S
H2755 C2763 0.950 . S
H2756 C2761 0.950 . S
H2757 C2762 0.949 . S
H2758 C2764 0.950 . S
H2759 C2765 0.950 . S
H2760 C2766 0.949 . S
C2761 H2756 0.950 . S
C2761 C2763 1.327 . S
C2761 C2767 1.429 . S
C2762 C2754 1.574 . S
C2762 H2757 0.949 . S
C2762 C2768 1.368 . S
C2763 C2747 1.349 . S
C2763 H2755 0.950 . S
C2763 C2761 1.327 . S
C2764 C2752 1.349 . S
C2764 H2758 0.950 . S
C2764 C2765 1.327 . S
C2765 H2759 0.950 . S
C2765 C2764 1.327 . S
C2765 C2769 1.429 . S
C2766 C2749 1.574 . S
C2766 H2760 0.949 . S
C2766 C2770 1.368 . S
C2767 C2748 1.429 . S
C2767 C2761 1.429 . S
C2767 C2768 1.523 . S
C2768 C2749 1.368 . S
C2768 C2762 1.368 . S
C2768 C2767 1.523 . S
C2769 C2753 1.429 . S
C2769 C2765 1.429 . S
C2769 C2770 1.523 . S
C2770 C2754 1.368 . S
C2770 C2766 1.368 . S
C2770 C2769 1.523 . S
H2771 C2746 0.950 . S
H2772 C2748 0.950 . S
H2773 C2749 0.949 . S
H2774 C2751 0.950 . S
H2775 C2753 0.950 . S
C2776 C2777 1.349 . S
C2776 C2778 1.327 . S
C2776 H2801 0.950 . S
C2777 C2776 1.349 . S
C2777 C2793 1.349 . S
C2778 C2776 1.327 . S
C2778 C2797 1.429 . S
C2778 H2802 0.950 . S
C2779 C2796 1.574 . S
C2779 C2798 1.368 . S
C2779 H2803 0.949 . S
H2780 C2784 0.949 . S
C2781 C2782 1.349 . S
C2781 C2783 1.327 . S
C2781 H2804 0.950 . S
C2782 C2781 1.349 . S
C2782 C2794 1.349 . S
C2783 C2781 1.327 . S
C2783 C2799 1.429 . S
C2783 H2805 0.950 . S
C2784 H2780 0.949 . S
C2784 C2792 1.574 . S
C2784 C2800 1.368 . S
H2785 C2793 0.950 . S
H2786 C2791 0.950 . S
H2787 C2792 0.949 . S
H2788 C2794 0.950 . S
H2789 C2795 0.950 . S
H2790 C2796 0.949 . S
C2791 H2786 0.950 . S
C2791 C2793 1.327 . S
C2791 C2797 1.429 . S
C2792 C2784 1.574 . S
C2792 H2787 0.949 . S
C2792 C2798 1.368 . S
C2793 C2777 1.349 . S
C2793 H2785 0.950 . S
C2793 C2791 1.327 . S
C2794 C2782 1.349 . S
C2794 H2788 0.950 . S
C2794 C2795 1.327 . S
C2795 H2789 0.950 . S
C2795 C2794 1.327 . S
C2795 C2799 1.429 . S
C2796 C2779 1.574 . S
C2796 H2790 0.949 . S
C2796 C2800 1.368 . S
C2797 C2778 1.429 . S
C2797 C2791 1.429 . S
C2797 C2798 1.523 . S
C2798 C2779 1.368 . S
C2798 C2792 1.368 . S
C2798 C2797 1.523 . S
C2799 C2783 1.429 . S
C2799 C2795 1.429 . S
C2799 C2800 1.523 . S
C2800 C2784 1.368 . S
C2800 C2796 1.368 . S
C2800 C2799 1.523 . S
H2801 C2776 0.950 . S
H2802 C2778 0.950 . S
H2803 C2779 0.949 . S
H2804 C2781 0.950 . S
H2805 C2783 0.950 . S
C2806 C2807 1.349 . S
C2806 C2808 1.327 . S
C2806 H2831 0.950 . S
C2807 C2806 1.349 . S
C2807 C2823 1.349 . S
C2808 C2806 1.327 . S
C2808 C2827 1.429 . S
C2808 H2832 0.950 . S
C2809 C2826 1.574 . S
C2809 C2828 1.368 . S
C2809 H2833 0.949 . S
H2810 C2814 0.949 . S
C2811 C2812 1.349 . S
C2811 C2813 1.327 . S
C2811 H2834 0.950 . S
C2812 C2811 1.349 . S
C2812 C2824 1.349 . S
C2813 C2811 1.327 . S
C2813 C2829 1.429 . S
C2813 H2835 0.950 . S
C2814 H2810 0.949 . S
C2814 C2822 1.574 . S
C2814 C2830 1.368 . S
H2815 C2823 0.950 . S
H2816 C2821 0.950 . S
H2817 C2822 0.949 . S
H2818 C2824 0.950 . S
H2819 C2825 0.950 . S
H2820 C2826 0.949 . S
C2821 H2816 0.950 . S
C2821 C2823 1.327 . S
C2821 C2827 1.429 . S
C2822 C2814 1.574 . S
C2822 H2817 0.949 . S
C2822 C2828 1.368 . S
C2823 C2807 1.349 . S
C2823 H2815 0.950 . S
C2823 C2821 1.327 . S
C2824 C2812 1.349 . S
C2824 H2818 0.950 . S
C2824 C2825 1.327 . S
C2825 H2819 0.950 . S
C2825 C2824 1.327 . S
C2825 C2829 1.429 . S
C2826 C2809 1.574 . S
C2826 H2820 0.949 . S
C2826 C2830 1.368 . S
C2827 C2808 1.429 . S
C2827 C2821 1.429 . S
C2827 C2828 1.523 . S
C2828 C2809 1.368 . S
C2828 C2822 1.368 . S
C2828 C2827 1.523 . S
C2829 C2813 1.429 . S
C2829 C2825 1.429 . S
C2829 C2830 1.523 . S
C2830 C2814 1.368 . S
C2830 C2826 1.368 . S
C2830 C2829 1.523 . S
H2831 C2806 0.950 . S
H2832 C2808 0.950 . S
H2833 C2809 0.949 . S
H2834 C2811 0.950 . S
H2835 C2813 0.950 . S
C2836 C2837 1.349 . S
C2836 C2838 1.327 . S
C2836 H2861 0.950 . S
C2837 C2836 1.349 . S
C2837 C2853 1.349 . S
C2838 C2836 1.327 . S
C2838 C2857 1.429 . S
C2838 H2862 0.950 . S
C2839 C2856 1.574 . S
C2839 C2858 1.368 . S
C2839 H2863 0.949 . S
H2840 C2844 0.949 . S
C2841 C2842 1.349 . S
C2841 C2843 1.327 . S
C2841 H2864 0.950 . S
C2842 C2841 1.349 . S
C2842 C2854 1.349 . S
C2843 C2841 1.327 . S
C2843 C2859 1.429 . S
C2843 H2865 0.950 . S
C2844 H2840 0.949 . S
C2844 C2852 1.574 . S
C2844 C2860 1.368 . S
H2845 C2853 0.950 . S
H2846 C2851 0.950 . S
H2847 C2852 0.949 . S
H2848 C2854 0.950 . S
H2849 C2855 0.950 . S
H2850 C2856 0.949 . S
C2851 H2846 0.950 . S
C2851 C2853 1.327 . S
C2851 C2857 1.429 . S
C2852 C2844 1.574 . S
C2852 H2847 0.949 . S
C2852 C2858 1.368 . S
C2853 C2837 1.349 . S
C2853 H2845 0.950 . S
C2853 C2851 1.327 . S
C2854 C2842 1.349 . S
C2854 H2848 0.950 . S
C2854 C2855 1.327 . S
C2855 H2849 0.950 . S
C2855 C2854 1.327 . S
C2855 C2859 1.429 . S
C2856 C2839 1.574 . S
C2856 H2850 0.949 . S
C2856 C2860 1.368 . S
C2857 C2838 1.429 . S
C2857 C2851 1.429 . S
C2857 C2858 1.523 . S
C2858 C2839 1.368 . S
C2858 C2852 1.368 . S
C2858 C2857 1.523 . S
C2859 C2843 1.429 . S
C2859 C2855 1.429 . S
C2859 C2860 1.523 . S
C2860 C2844 1.368 . S
C2860 C2856 1.368 . S
C2860 C2859 1.523 . S
H2861 C2836 0.950 . S
H2862 C2838 0.950 . S
H2863 C2839 0.949 . S
H2864 C2841 0.950 . S
H2865 C2843 0.950 . S
C2866 C2867 1.349 . S
C2866 C2868 1.327 . S
C2866 H2891 0.950 . S
C2867 C2866 1.349 . S
C2867 C2883 1.349 . S
C2868 C2866 1.327 . S
C2868 C2887 1.429 . S
C2868 H2892 0.950 . S
C2869 C2886 1.574 . S
C2869 C2888 1.368 . S
C2869 H2893 0.949 . S
H2870 C2874 0.949 . S
C2871 C2872 1.349 . S
C2871 C2873 1.327 . S
C2871 H2894 0.950 . S
C2872 C2871 1.349 . S
C2872 C2884 1.349 . S
C2873 C2871 1.327 . S
C2873 C2889 1.429 . S
C2873 H2895 0.950 . S
C2874 H2870 0.949 . S
C2874 C2882 1.574 . S
C2874 C2890 1.368 . S
H2875 C2883 0.950 . S
H2876 C2881 0.950 . S
H2877 C2882 0.949 . S
H2878 C2884 0.950 . S
H2879 C2885 0.950 . S
H2880 C2886 0.949 . S
C2881 H2876 0.950 . S
C2881 C2883 1.327 . S
C2881 C2887 1.429 . S
C2882 C2874 1.574 . S
C2882 H2877 0.949 . S
C2882 C2888 1.368 . S
C2883 C2867 1.349 . S
C2883 H2875 0.950 . S
C2883 C2881 1.327 . S
C2884 C2872 1.349 . S
C2884 H2878 0.950 . S
C2884 C2885 1.327 . S
C2885 H2879 0.950 . S
C2885 C2884 1.327 . S
C2885 C2889 1.429 . S
C2886 C2869 1.574 . S
C2886 H2880 0.949 . S
C2886 C2890 1.368 . S
C2887 C2868 1.429 . S
C2887 C2881 1.429 . S
C2887 C2888 1.523 . S
C2888 C2869 1.368 . S
C2888 C2882 1.368 . S
C2888 C2887 1.523 . S
C2889 C2873 1.429 . S
C2889 C2885 1.429 . S
C2889 C2890 1.523 . S
C2890 C2874 1.368 . S
C2890 C2886 1.368 . S
C2890 C2889 1.523 . S
H2891 C2866 0.950 . S
H2892 C2868 0.950 . S
H2893 C2869 0.949 . S
H2894 C2871 0.950 . S
H2895 C2873 0.950 . S
C2896 C2897 1.349 . S
C2896 C2898 1.327 . S
C2896 H2921 0.950 . S
C2897 C2896 1.349 . S
C2897 C2913 1.349 . S
C2898 C2896 1.327 . S
C2898 C2917 1.429 . S
C2898 H2922 0.950 . S
C2899 C2916 1.574 . S
C2899 C2918 1.368 . S
C2899 H2923 0.949 . S
H2900 C2904 0.949 . S
C2901 C2902 1.349 . S
C2901 C2903 1.327 . S
C2901 H2924 0.950 . S
C2902 C2901 1.349 . S
C2902 C2914 1.349 . S
C2903 C2901 1.327 . S
C2903 C2919 1.429 . S
C2903 H2925 0.950 . S
C2904 H2900 0.949 . S
C2904 C2912 1.574 . S
C2904 C2920 1.368 . S
H2905 C2913 0.950 . S
H2906 C2911 0.950 . S
H2907 C2912 0.949 . S
H2908 C2914 0.950 . S
H2909 C2915 0.950 . S
H2910 C2916 0.949 . S
C2911 H2906 0.950 . S
C2911 C2913 1.327 . S
C2911 C2917 1.429 . S
C2912 C2904 1.574 . S
C2912 H2907 0.949 . S
C2912 C2918 1.368 . S
C2913 C2897 1.349 . S
C2913 H2905 0.950 . S
C2913 C2911 1.327 . S
C2914 C2902 1.349 . S
C2914 H2908 0.950 . S
C2914 C2915 1.327 . S
C2915 H2909 0.950 . S
C2915 C2914 1.327 . S
C2915 C2919 1.429 . S
C2916 C2899 1.574 . S
C2916 H2910 0.949 . S
C2916 C2920 1.368 . S
C2917 C2898 1.429 . S
C2917 C2911 1.429 . S
C2917 C2918 1.523 . S
C2918 C2899 1.368 . S
C2918 C2912 1.368 . S
C2918 C2917 1.523 . S
C2919 C2903 1.429 . S
C2919 C2915 1.429 . S
C2919 C2920 1.523 . S
C2920 C2904 1.368 . S
C2920 C2916 1.368 . S
C2920 C2919 1.523 . S
H2921 C2896 0.950 . S
H2922 C2898 0.950 . S
H2923 C2899 0.949 . S
H2924 C2901 0.950 . S
H2925 C2903 0.950 . S
C2926 C2927 1.349 . S
C2926 C2928 1.327 . S
C2926 H2951 0.950 . S
C2927 C2926 1.349 . S
C2927 C2943 1.349 . S
C2928 C2926 1.327 . S
C2928 C2947 1.429 . S
C2928 H2952 0.950 . S
C2929 C2946 1.574 . S
C2929 C2948 1.368 . S
C2929 H2953 0.949 . S
H2930 C2934 0.949 . S
C2931 C2932 1.349 . S
C2931 C2933 1.327 . S
C2931 H2954 0.950 . S
C2932 C2931 1.349 . S
C2932 C2944 1.349 . S
C2933 C2931 1.327 . S
C2933 C2949 1.429 . S
C2933 H2955 0.950 . S
C2934 H2930 0.949 . S
C2934 C2942 1.574 . S
C2934 C2950 1.368 . S
H2935 C2943 0.950 . S
H2936 C2941 0.950 . S
H2937 C2942 0.949 . S
H2938 C2944 0.950 . S
H2939 C2945 0.950 . S
H2940 C2946 0.949 . S
C2941 H2936 0.950 . S
C2941 C2943 1.327 . S
C2941 C2947 1.429 . S
C2942 C2934 1.574 . S
C2942 H2937 0.949 . S
C2942 C2948 1.368 . S
C2943 C2927 1.349 . S
C2943 H2935 0.950 . S
C2943 C2941 1.327 . S
C2944 C2932 1.349 . S
C2944 H2938 0.950 . S
C2944 C2945 1.327 . S
C2945 H2939 0.950 . S
C2945 C2944 1.327 . S
C2945 C2949 1.429 . S
C2946 C2929 1.574 . S
C2946 H2940 0.949 . S
C2946 C2950 1.368 . S
C2947 C2928 1.429 . S
C2947 C2941 1.429 . S
C2947 C2948 1.523 . S
C2948 C2929 1.368 . S
C2948 C2942 1.368 . S
C2948 C2947 1.523 . S
C2949 C2933 1.429 . S
C2949 C2945 1.429 . S
C2949 C2950 1.523 . S
C2950 C2934 1.368 . S
C2950 C2946 1.368 . S
C2950 C2949 1.523 . S
H2951 C2926 0.950 . S
H2952 C2928 0.950 . S
H2953 C2929 0.949 . S
H2954 C2931 0.950 . S
H2955 C2933 0.950 . S
C2956 C2957 1.349 . S
C2956 C2958 1.327 . S
C2956 H2981 0.950 . S
C2957 C2956 1.349 . S
C2957 C2973 1.349 . S
C2958 C2956 1.327 . S
C2958 C2977 1.429 . S
C2958 H2982 0.950 . S
C2959 C2976 1.574 . S
C2959 C2978 1.368 . S
C2959 H2983 0.949 . S
H2960 C2964 0.949 . S
C2961 C2962 1.349 . S
C2961 C2963 1.327 . S
C2961 H2984 0.950 . S
C2962 C2961 1.349 . S
C2962 C2974 1.349 . S
C2963 C2961 1.327 . S
C2963 C2979 1.429 . S
C2963 H2985 0.950 . S
C2964 H2960 0.949 . S
C2964 C2972 1.574 . S
C2964 C2980 1.368 . S
H2965 C2973 0.950 . S
H2966 C2971 0.950 . S
H2967 C2972 0.949 . S
H2968 C2974 0.950 . S
H2969 C2975 0.950 . S
H2970 C2976 0.949 . S
C2971 H2966 0.950 . S
C2971 C2973 1.327 . S
C2971 C2977 1.429 . S
C2972 C2964 1.574 . S
C2972 H2967 0.949 . S
C2972 C2978 1.368 . S
C2973 C2957 1.349 . S
C2973 H2965 0.950 . S
C2973 C2971 1.327 . S
C2974 C2962 1.349 . S
C2974 H2968 0.950 . S
C2974 C2975 1.327 . S
C2975 H2969 0.950 . S
C2975 C2974 1.327 . S
C2975 C2979 1.429 . S
C2976 C2959 1.574 . S
C2976 H2970 0.949 . S
C2976 C2980 1.368 . S
C2977 C2958 1.429 . S
C2977 C2971 1.429 . S
C2977 C2978 1.523 . S
C2978 C2959 1.368 . S
C2978 C2972 1.368 . S
C2978 C2977 1.523 . S
C2979 C2963 1.429 . S
C2979 C2975 1.429 . S
C2979 C2980 1.523 . S
C2980 C2964 1.368 . S
C2980 C2976 1.368 . S
C2980 C2979 1.523 . S
H2981 C2956 0.950 . S
H2982 C2958 0.950 . S
H2983 C2959 0.949 . S
H2984 C2961 0.950 . S
H2985 C2963 0.950 . S
C2986 C2987 1.349 . S
C2986 C2988 1.327 . S
C2986 H3011 0.950 . S
C2987 C2986 1.349 . S
C2987 C3003 1.349 1_554 S
C2988 C2986 1.327 . S
C2988 C3007 1.429 . S
C2988 H3012 0.950 . S
C2989 C3006 1.574 . S
C2989 C3008 1.368 . S
C2989 H3013 0.949 1_554 S
H2990 C2994 0.949 . S
C2991 C2992 1.349 . S
C2991 C2993 1.327 . S
C2991 H3014 0.950 . S
C2992 C2991 1.349 . S
C2992 C3004 1.349 . S
C2993 C2991 1.327 . S
C2993 C3009 1.429 . S
C2993 H3015 0.950 . S
C2994 H2990 0.949 . S
C2994 C3002 1.574 . S
C2994 C3010 1.368 . S
H2995 C3003 0.950 . S
H2996 C3001 0.944 1_556 S
H2997 C3002 0.949 . S
H2998 C3004 0.950 . S
H2999 C3005 0.950 . S
H3000 C3006 0.949 . S
C3001 H2996 0.944 1_554 S
C3001 C3003 1.328 1_554 S
C3001 C3007 1.434 . S
C3002 C2994 1.574 . S
C3002 H2997 0.949 . S
C3002 C3008 1.368 . S
C3003 C2987 1.349 1_556 S
C3003 H2995 0.950 . S
C3003 C3001 1.328 1_556 S
C3004 C2992 1.349 . S
C3004 H2998 0.950 . S
C3004 C3005 1.327 . S
C3005 H2999 0.950 . S
C3005 C3004 1.327 . S
C3005 C3009 1.429 . S
C3006 C2989 1.574 . S
C3006 H3000 0.949 . S
C3006 C3010 1.368 . S
C3007 C2988 1.429 . S
C3007 C3001 1.434 . S
C3007 C3008 1.523 . S
C3008 C2989 1.368 . S
C3008 C3002 1.368 . S
C3008 C3007 1.523 . S
C3009 C2993 1.429 . S
C3009 C3005 1.429 . S
C3009 C3010 1.523 . S
C3010 C2994 1.368 . S
C3010 C3006 1.368 . S
C3010 C3009 1.523 . S
H3011 C2986 0.950 . S
H3012 C2988 0.950 . S
H3013 C2989 0.949 1_556 S
H3014 C2991 0.950 . S
H3015 C2993 0.950 . S
C3016 C3017 1.349 . S
C3016 C3018 1.327 . S
C3016 H3041 0.950 . S
C3017 C3016 1.349 . S
C3017 C3033 1.349 . S
C3018 C3016 1.327 . S
C3018 C3037 1.429 . S
C3018 H3042 0.950 . S
C3019 C3036 1.574 . S
C3019 C3038 1.368 . S
C3019 H3043 0.949 . S
H3020 C3024 0.949 . S
C3021 C3022 1.349 . S
C3021 C3023 1.327 . S
C3021 H3044 0.950 . S
C3022 C3021 1.349 . S
C3022 C3034 1.349 . S
C3023 C3021 1.327 . S
C3023 C3039 1.429 . S
C3023 H3045 0.950 . S
C3024 H3020 0.949 . S
C3024 C3032 1.574 . S
C3024 C3040 1.368 . S
H3025 C3033 0.950 . S
H3026 C3031 0.950 . S
H3027 C3032 0.949 . S
H3028 C3034 0.950 . S
H3029 C3035 0.950 . S
H3030 C3036 0.949 . S
C3031 H3026 0.950 . S
C3031 C3033 1.327 . S
C3031 C3037 1.429 . S
C3032 C3024 1.574 . S
C3032 H3027 0.949 . S
C3032 C3038 1.368 . S
C3033 C3017 1.349 . S
C3033 H3025 0.950 . S
C3033 C3031 1.327 . S
C3034 C3022 1.349 . S
C3034 H3028 0.950 . S
C3034 C3035 1.327 . S
C3035 H3029 0.950 . S
C3035 C3034 1.327 . S
C3035 C3039 1.429 . S
C3036 C3019 1.574 . S
C3036 H3030 0.949 . S
C3036 C3040 1.368 . S
C3037 C3018 1.429 . S
C3037 C3031 1.429 . S
C3037 C3038 1.523 . S
C3038 C3019 1.368 . S
C3038 C3032 1.368 . S
C3038 C3037 1.523 . S
C3039 C3023 1.429 . S
C3039 C3035 1.429 . S
C3039 C3040 1.523 . S
C3040 C3024 1.368 . S
C3040 C3036 1.368 . S
C3040 C3039 1.523 . S
H3041 C3016 0.950 . S
H3042 C3018 0.950 . S
H3043 C3019 0.949 . S
H3044 C3021 0.950 . S
H3045 C3023 0.950 . S
C3046 C3047 1.349 . S
C3046 C3048 1.327 . S
C3046 H3071 0.950 . S
C3047 C3046 1.349 . S
C3047 C3063 1.349 . S
C3048 C3046 1.327 . S
C3048 C3067 1.429 . S
C3048 H3072 0.950 . S
C3049 C3066 1.574 . S
C3049 C3068 1.368 . S
C3049 H3073 0.949 . S
H3050 C3054 0.949 . S
C3051 C3052 1.349 . S
C3051 C3053 1.327 . S
C3051 H3074 0.950 . S
C3052 C3051 1.349 . S
C3052 C3064 1.349 . S
C3053 C3051 1.327 . S
C3053 C3069 1.429 . S
C3053 H3075 0.950 . S
C3054 H3050 0.949 . S
C3054 C3062 1.574 . S
C3054 C3070 1.368 . S
H3055 C3063 0.950 . S
H3056 C3061 0.950 . S
H3057 C3062 0.949 . S
H3058 C3064 0.950 . S
H3059 C3065 0.950 . S
H3060 C3066 0.949 . S
C3061 H3056 0.950 . S
C3061 C3063 1.327 . S
C3061 C3067 1.429 . S
C3062 C3054 1.574 . S
C3062 H3057 0.949 . S
C3062 C3068 1.368 . S
C3063 C3047 1.349 . S
C3063 H3055 0.950 . S
C3063 C3061 1.327 . S
C3064 C3052 1.349 . S
C3064 H3058 0.950 . S
C3064 C3065 1.327 . S
C3065 H3059 0.950 . S
C3065 C3064 1.327 . S
C3065 C3069 1.429 . S
C3066 C3049 1.574 . S
C3066 H3060 0.949 . S
C3066 C3070 1.368 . S
C3067 C3048 1.429 . S
C3067 C3061 1.429 . S
C3067 C3068 1.523 . S
C3068 C3049 1.368 . S
C3068 C3062 1.368 . S
C3068 C3067 1.523 . S
C3069 C3053 1.429 . S
C3069 C3065 1.429 . S
C3069 C3070 1.523 . S
C3070 C3054 1.368 . S
C3070 C3066 1.368 . S
C3070 C3069 1.523 . S
H3071 C3046 0.950 . S
H3072 C3048 0.950 . S
H3073 C3049 0.949 . S
H3074 C3051 0.950 . S
H3075 C3053 0.950 . S
C3076 C3077 1.349 . S
C3076 C3078 1.327 . S
C3076 H3101 0.950 . S
C3077 C3076 1.349 . S
C3077 C3093 1.349 . S
C3078 C3076 1.327 . S
C3078 C3097 1.429 . S
C3078 H3102 0.950 . S
C3079 C3096 1.574 . S
C3079 C3098 1.368 . S
C3079 H3103 0.949 . S
H3080 C3084 0.949 . S
C3081 C3082 1.349 . S
C3081 C3083 1.327 . S
C3081 H3104 0.950 . S
C3082 C3081 1.349 . S
C3082 C3094 1.349 . S
C3083 C3081 1.327 . S
C3083 C3099 1.429 . S
C3083 H3105 0.950 . S
C3084 H3080 0.949 . S
C3084 C3092 1.574 . S
C3084 C3100 1.368 . S
H3085 C3093 0.950 . S
H3086 C3091 0.950 . S
H3087 C3092 0.949 . S
H3088 C3094 0.950 . S
H3089 C3095 0.950 . S
H3090 C3096 0.949 . S
C3091 H3086 0.950 . S
C3091 C3093 1.327 . S
C3091 C3097 1.429 . S
C3092 C3084 1.574 . S
C3092 H3087 0.949 . S
C3092 C3098 1.368 . S
C3093 C3077 1.349 . S
C3093 H3085 0.950 . S
C3093 C3091 1.327 . S
C3094 C3082 1.349 . S
C3094 H3088 0.950 . S
C3094 C3095 1.327 . S
C3095 H3089 0.950 . S
C3095 C3094 1.327 . S
C3095 C3099 1.429 . S
C3096 C3079 1.574 . S
C3096 H3090 0.949 . S
C3096 C3100 1.368 . S
C3097 C3078 1.429 . S
C3097 C3091 1.429 . S
C3097 C3098 1.523 . S
C3098 C3079 1.368 . S
C3098 C3092 1.368 . S
C3098 C3097 1.523 . S
C3099 C3083 1.429 . S
C3099 C3095 1.429 . S
C3099 C3100 1.523 . S
C3100 C3084 1.368 . S
C3100 C3096 1.368 . S
C3100 C3099 1.523 . S
H3101 C3076 0.950 . S
H3102 C3078 0.950 . S
H3103 C3079 0.949 . S
H3104 C3081 0.950 . S
H3105 C3083 0.950 . S
C3106 C3107 1.349 . S
C3106 C3108 1.327 . S
C3106 H3131 0.950 . S
C3107 C3106 1.349 . S
C3107 C3123 1.349 . S
C3108 C3106 1.327 . S
C3108 C3127 1.429 . S
C3108 H3132 0.950 . S
C3109 C3126 1.574 . S
C3109 C3128 1.368 . S
C3109 H3133 0.949 . S
H3110 C3114 0.949 . S
C3111 C3112 1.349 . S
C3111 C3113 1.327 . S
C3111 H3134 0.950 . S
C3112 C3111 1.349 . S
C3112 C3124 1.349 . S
C3113 C3111 1.327 . S
C3113 C3129 1.429 . S
C3113 H3135 0.950 . S
C3114 H3110 0.949 . S
C3114 C3122 1.574 . S
C3114 C3130 1.368 . S
H3115 C3123 0.950 . S
H3116 C3121 0.950 . S
H3117 C3122 0.949 . S
H3118 C3124 0.950 . S
H3119 C3125 0.950 . S
H3120 C3126 0.949 . S
C3121 H3116 0.950 . S
C3121 C3123 1.327 . S
C3121 C3127 1.429 . S
C3122 C3114 1.574 . S
C3122 H3117 0.949 . S
C3122 C3128 1.368 . S
C3123 C3107 1.349 . S
C3123 H3115 0.950 . S
C3123 C3121 1.327 . S
C3124 C3112 1.349 . S
C3124 H3118 0.950 . S
C3124 C3125 1.327 . S
C3125 H3119 0.950 . S
C3125 C3124 1.327 . S
C3125 C3129 1.429 . S
C3126 C3109 1.574 . S
C3126 H3120 0.949 . S
C3126 C3130 1.368 . S
C3127 C3108 1.429 . S
C3127 C3121 1.429 . S
C3127 C3128 1.523 . S
C3128 C3109 1.368 . S
C3128 C3122 1.368 . S
C3128 C3127 1.523 . S
C3129 C3113 1.429 . S
C3129 C3125 1.429 . S
C3129 C3130 1.523 . S
C3130 C3114 1.368 . S
C3130 C3126 1.368 . S
C3130 C3129 1.523 . S
H3131 C3106 0.950 . S
H3132 C3108 0.950 . S
H3133 C3109 0.949 . S
H3134 C3111 0.950 . S
H3135 C3113 0.950 . S
C3136 C3137 1.349 . S
C3136 C3138 1.327 . S
C3136 H3161 0.950 . S
C3137 C3136 1.349 . S
C3137 C3153 1.349 . S
C3138 C3136 1.327 . S
C3138 C3157 1.429 . S
C3138 H3162 0.950 . S
C3139 C3156 1.574 . S
C3139 C3158 1.368 . S
C3139 H3163 0.949 . S
H3140 C3144 0.949 . S
C3141 C3142 1.349 . S
C3141 C3143 1.327 . S
C3141 H3164 0.950 . S
C3142 C3141 1.349 . S
C3142 C3154 1.349 . S
C3143 C3141 1.327 . S
C3143 C3159 1.429 . S
C3143 H3165 0.950 . S
C3144 H3140 0.949 . S
C3144 C3152 1.574 . S
C3144 C3160 1.368 . S
H3145 C3153 0.950 . S
H3146 C3151 0.950 . S
H3147 C3152 0.949 . S
H3148 C3154 0.950 . S
H3149 C3155 0.950 . S
H3150 C3156 0.949 . S
C3151 H3146 0.950 . S
C3151 C3153 1.327 . S
C3151 C3157 1.429 . S
C3152 C3144 1.574 . S
C3152 H3147 0.949 . S
C3152 C3158 1.368 . S
C3153 C3137 1.349 . S
C3153 H3145 0.950 . S
C3153 C3151 1.327 . S
C3154 C3142 1.349 . S
C3154 H3148 0.950 . S
C3154 C3155 1.327 . S
C3155 H3149 0.950 . S
C3155 C3154 1.327 . S
C3155 C3159 1.429 . S
C3156 C3139 1.574 . S
C3156 H3150 0.949 . S
C3156 C3160 1.368 . S
C3157 C3138 1.429 . S
C3157 C3151 1.429 . S
C3157 C3158 1.523 . S
C3158 C3139 1.368 . S
C3158 C3152 1.368 . S
C3158 C3157 1.523 . S
C3159 C3143 1.429 . S
C3159 C3155 1.429 . S
C3159 C3160 1.523 . S
C3160 C3144 1.368 . S
C3160 C3156 1.368 . S
C3160 C3159 1.523 . S
H3161 C3136 0.950 . S
H3162 C3138 0.950 . S
H3163 C3139 0.949 . S
H3164 C3141 0.950 . S
H3165 C3143 0.950 . S
C3166 C3167 1.349 . S
C3166 C3168 1.327 . S
C3166 H3191 0.950 . S
C3167 C3166 1.349 . S
C3167 C3183 1.349 . S
C3168 C3166 1.327 . S
C3168 C3187 1.429 . S
C3168 H3192 0.950 . S
C3169 C3186 1.574 . S
C3169 C3188 1.368 . S
C3169 H3193 0.949 . S
H3170 C3174 0.949 . S
C3171 C3172 1.349 . S
C3171 C3173 1.327 . S
C3171 H3194 0.950 . S
C3172 C3171 1.349 . S
C3172 C3184 1.349 . S
C3173 C3171 1.327 . S
C3173 C3189 1.429 . S
C3173 H3195 0.950 . S
C3174 H3170 0.949 . S
C3174 C3182 1.574 . S
C3174 C3190 1.368 . S
H3175 C3183 0.950 . S
H3176 C3181 0.950 . S
H3177 C3182 0.949 . S
H3178 C3184 0.950 . S
H3179 C3185 0.950 . S
H3180 C3186 0.949 . S
C3181 H3176 0.950 . S
C3181 C3183 1.327 . S
C3181 C3187 1.429 . S
C3182 C3174 1.574 . S
C3182 H3177 0.949 . S
C3182 C3188 1.368 . S
C3183 C3167 1.349 . S
C3183 H3175 0.950 . S
C3183 C3181 1.327 . S
C3184 C3172 1.349 . S
C3184 H3178 0.950 . S
C3184 C3185 1.327 . S
C3185 H3179 0.950 . S
C3185 C3184 1.327 . S
C3185 C3189 1.429 . S
C3186 C3169 1.574 . S
C3186 H3180 0.949 . S
C3186 C3190 1.368 . S
C3187 C3168 1.429 . S
C3187 C3181 1.429 . S
C3187 C3188 1.523 . S
C3188 C3169 1.368 . S
C3188 C3182 1.368 . S
C3188 C3187 1.523 . S
C3189 C3173 1.429 . S
C3189 C3185 1.429 . S
C3189 C3190 1.523 . S
C3190 C3174 1.368 . S
C3190 C3186 1.368 . S
C3190 C3189 1.523 . S
H3191 C3166 0.950 . S
H3192 C3168 0.950 . S
H3193 C3169 0.949 . S
H3194 C3171 0.950 . S
H3195 C3173 0.950 . S
C3196 C3197 1.349 . S
C3196 C3198 1.327 . S
C3196 H3221 0.950 . S
C3197 C3196 1.349 . S
C3197 C3213 1.349 . S
C3198 C3196 1.327 . S
C3198 C3217 1.429 . S
C3198 H3222 0.950 . S
C3199 C3216 1.574 . S
C3199 C3218 1.368 . S
C3199 H3223 0.949 . S
H3200 C3204 0.949 . S
C3201 C3202 1.349 . S
C3201 C3203 1.327 . S
C3201 H3224 0.950 . S
C3202 C3201 1.349 . S
C3202 C3214 1.349 . S
C3203 C3201 1.327 . S
C3203 C3219 1.429 . S
C3203 H3225 0.950 . S
C3204 H3200 0.949 . S
C3204 C3212 1.574 . S
C3204 C3220 1.368 . S
H3205 C3213 0.950 . S
H3206 C3211 0.950 . S
H3207 C3212 0.949 . S
H3208 C3214 0.950 . S
H3209 C3215 0.950 . S
H3210 C3216 0.949 . S
C3211 H3206 0.950 . S
C3211 C3213 1.327 . S
C3211 C3217 1.429 . S
C3212 C3204 1.574 . S
C3212 H3207 0.949 . S
C3212 C3218 1.368 . S
C3213 C3197 1.349 . S
C3213 H3205 0.950 . S
C3213 C3211 1.327 . S
C3214 C3202 1.349 . S
C3214 H3208 0.950 . S
C3214 C3215 1.327 . S
C3215 H3209 0.950 . S
C3215 C3214 1.327 . S
C3215 C3219 1.429 . S
C3216 C3199 1.574 . S
C3216 H3210 0.949 . S
C3216 C3220 1.368 . S
C3217 C3198 1.429 . S
C3217 C3211 1.429 . S
C3217 C3218 1.523 . S
C3218 C3199 1.368 . S
C3218 C3212 1.368 . S
C3218 C3217 1.523 . S
C3219 C3203 1.429 . S
C3219 C3215 1.429 . S
C3219 C3220 1.523 . S
C3220 C3204 1.368 . S
C3220 C3216 1.368 . S
C3220 C3219 1.523 . S
H3221 C3196 0.950 . S
H3222 C3198 0.950 . S
H3223 C3199 0.949 . S
H3224 C3201 0.950 . S
H3225 C3203 0.950 . S
C3226 C3227 1.349 . S
C3226 C3228 1.327 . S
C3226 H3251 0.950 . S
C3227 C3226 1.349 . S
C3227 C3243 1.349 . S
C3228 C3226 1.327 . S
C3228 C3247 1.429 . S
C3228 H3252 0.950 . S
C3229 C3246 1.574 . S
C3229 C3248 1.368 . S
C3229 H3253 0.949 . S
H3230 C3234 0.949 . S
C3231 C3232 1.349 . S
C3231 C3233 1.327 . S
C3231 H3254 0.950 . S
C3232 C3231 1.349 . S
C3232 C3244 1.349 . S
C3233 C3231 1.327 . S
C3233 C3249 1.429 . S
C3233 H3255 0.950 . S
C3234 H3230 0.949 . S
C3234 C3242 1.574 . S
C3234 C3250 1.368 . S
H3235 C3243 0.950 . S
H3236 C3241 0.950 . S
H3237 C3242 0.949 . S
H3238 C3244 0.950 . S
H3239 C3245 0.950 . S
H3240 C3246 0.949 . S
C3241 H3236 0.950 . S
C3241 C3243 1.327 . S
C3241 C3247 1.429 . S
C3242 C3234 1.574 . S
C3242 H3237 0.949 . S
C3242 C3248 1.368 . S
C3243 C3227 1.349 . S
C3243 H3235 0.950 . S
C3243 C3241 1.327 . S
C3244 C3232 1.349 . S
C3244 H3238 0.950 . S
C3244 C3245 1.327 . S
C3245 H3239 0.950 . S
C3245 C3244 1.327 . S
C3245 C3249 1.429 . S
C3246 C3229 1.574 . S
C3246 H3240 0.949 . S
C3246 C3250 1.368 . S
C3247 C3228 1.429 . S
C3247 C3241 1.429 . S
C3247 C3248 1.523 . S
C3248 C3229 1.368 . S
C3248 C3242 1.368 . S
C3248 C3247 1.523 . S
C3249 C3233 1.429 . S
C3249 C3245 1.429 . S
C3249 C3250 1.523 . S
C3250 C3234 1.368 . S
C3250 C3246 1.368 . S
C3250 C3249 1.523 . S
H3251 C3226 0.950 . S
H3252 C3228 0.950 . S
H3253 C3229 0.949 . S
H3254 C3231 0.950 . S
H3255 C3233 0.950 . S
C3256 C3257 1.349 . S
C3256 C3258 1.327 . S
C3256 H3281 0.950 . S
C3257 C3256 1.349 . S
C3257 C3273 1.349 . S
C3258 C3256 1.327 . S
C3258 C3277 1.429 . S
C3258 H3282 0.950 . S
C3259 C3276 1.574 . S
C3259 C3278 1.368 . S
C3259 H3283 0.949 . S
H3260 C3264 0.949 . S
C3261 C3262 1.349 . S
C3261 C3263 1.327 . S
C3261 H3284 0.950 . S
C3262 C3261 1.349 . S
C3262 C3274 1.349 . S
C3263 C3261 1.327 . S
C3263 C3279 1.429 . S
C3263 H3285 0.950 . S
C3264 H3260 0.949 . S
C3264 C3272 1.574 . S
C3264 C3280 1.368 . S
H3265 C3273 0.950 . S
H3266 C3271 0.950 . S
H3267 C3272 0.949 . S
H3268 C3274 0.950 1_554 S
H3269 C3275 0.950 . S
H3270 C3276 0.949 . S
C3271 H3266 0.950 . S
C3271 C3273 1.327 . S
C3271 C3277 1.429 . S
C3272 C3264 1.574 . S
C3272 H3267 0.949 . S
C3272 C3278 1.368 . S
C3273 C3257 1.349 . S
C3273 H3265 0.950 . S
C3273 C3271 1.327 . S
C3274 C3262 1.349 . S
C3274 H3268 0.950 1_556 S
C3274 C3275 1.327 . S
C3275 H3269 0.950 . S
C3275 C3274 1.327 . S
C3275 C3279 1.429 . S
C3276 C3259 1.574 . S
C3276 H3270 0.949 . S
C3276 C3280 1.368 . S
C3277 C3258 1.429 . S
C3277 C3271 1.429 . S
C3277 C3278 1.523 . S
C3278 C3259 1.368 . S
C3278 C3272 1.368 . S
C3278 C3277 1.523 . S
C3279 C3263 1.429 . S
C3279 C3275 1.429 . S
C3279 C3280 1.523 . S
C3280 C3264 1.368 . S
C3280 C3276 1.368 . S
C3280 C3279 1.523 . S
H3281 C3256 0.950 . S
H3282 C3258 0.950 . S
H3283 C3259 0.949 . S
H3284 C3261 0.950 . S
H3285 C3263 0.950 . S
C3286 C3287 1.349 . S
C3286 C3288 1.327 . S
C3286 H3311 0.950 . S
C3287 C3286 1.349 . S
C3287 C3303 1.349 . S
C3288 C3286 1.327 . S
C3288 C3307 1.429 . S
C3288 H3312 0.950 . S
C3289 C3306 1.574 . S
C3289 C3308 1.368 . S
C3289 H3313 0.949 . S
H3290 C3294 0.949 . S
C3291 C3292 1.349 . S
C3291 C3293 1.327 . S
C3291 H3314 0.950 . S
C3292 C3291 1.349 . S
C3292 C3304 1.349 . S
C3293 C3291 1.327 . S
C3293 C3309 1.429 . S
C3293 H3315 0.950 . S
C3294 H3290 0.949 . S
C3294 C3302 1.574 . S
C3294 C3310 1.368 . S
H3295 C3303 0.950 . S
H3296 C3301 0.950 . S
H3297 C3302 0.949 . S
H3298 C3304 0.950 . S
H3299 C3305 0.950 . S
H3300 C3306 0.949 . S
C3301 H3296 0.950 . S
C3301 C3303 1.327 . S
C3301 C3307 1.429 . S
C3302 C3294 1.574 . S
C3302 H3297 0.949 . S
C3302 C3308 1.368 . S
C3303 C3287 1.349 . S
C3303 H3295 0.950 . S
C3303 C3301 1.327 . S
C3304 C3292 1.349 . S
C3304 H3298 0.950 . S
C3304 C3305 1.327 . S
C3305 H3299 0.950 . S
C3305 C3304 1.327 . S
C3305 C3309 1.429 . S
C3306 C3289 1.574 . S
C3306 H3300 0.949 . S
C3306 C3310 1.368 . S
C3307 C3288 1.429 . S
C3307 C3301 1.429 . S
C3307 C3308 1.523 . S
C3308 C3289 1.368 . S
C3308 C3302 1.368 . S
C3308 C3307 1.523 . S
C3309 C3293 1.429 . S
C3309 C3305 1.429 . S
C3309 C3310 1.523 . S
C3310 C3294 1.368 . S
C3310 C3306 1.368 . S
C3310 C3309 1.523 . S
H3311 C3286 0.950 . S
H3312 C3288 0.950 . S
H3313 C3289 0.949 . S
H3314 C3291 0.950 . S
H3315 C3293 0.950 . S
C3316 C3317 1.349 . S
C3316 C3318 1.327 . S
C3316 H3341 0.950 1_455 S
C3317 C3316 1.349 . S
C3317 C3333 1.349 . S
C3318 C3316 1.327 . S
C3318 C3337 1.429 . S
C3318 H3342 0.971 . S
C3319 C3336 1.574 . S
C3319 C3338 1.368 . S
C3319 H3343 0.949 . S
H3320 C3324 0.949 . S
C3321 C3322 1.349 . S
C3321 C3323 1.327 . S
C3321 H3344 0.950 . S
C3322 C3321 1.349 . S
C3322 C3334 1.349 . S
C3323 C3321 1.327 . S
C3323 C3339 1.429 . S
C3323 H3345 0.950 . S
C3324 H3320 0.949 . S
C3324 C3332 1.574 . S
C3324 C3340 1.368 . S
H3325 C3333 0.950 . S
H3326 C3331 0.950 . S
H3327 C3332 0.949 . S
H3328 C3334 0.950 . S
H3329 C3335 0.950 . S
H3330 C3336 0.949 . S
C3331 H3326 0.950 . S
C3331 C3333 1.327 . S
C3331 C3337 1.429 . S
C3332 C3324 1.574 . S
C3332 H3327 0.949 . S
C3332 C3338 1.368 . S
C3333 C3317 1.349 . S
C3333 H3325 0.950 . S
C3333 C3331 1.327 . S
C3334 C3322 1.349 . S
C3334 H3328 0.950 . S
C3334 C3335 1.327 . S
C3335 H3329 0.950 . S
C3335 C3334 1.327 . S
C3335 C3339 1.429 . S
C3336 C3319 1.574 . S
C3336 H3330 0.949 . S
C3336 C3340 1.368 . S
C3337 C3318 1.429 . S
C3337 C3331 1.429 . S
C3337 C3338 1.523 . S
C3338 C3319 1.368 . S
C3338 C3332 1.368 . S
C3338 C3337 1.523 . S
C3339 C3323 1.429 . S
C3339 C3335 1.429 . S
C3339 C3340 1.523 . S
C3340 C3324 1.368 . S
C3340 C3336 1.368 . S
C3340 C3339 1.523 . S
H3341 C3316 0.950 1_655 S
H3342 C3318 0.971 . S
H3343 C3319 0.949 . S
H3344 C3321 0.950 . S
H3345 C3323 0.950 . S
C3346 C3347 1.349 . S
C3346 C3348 1.327 . S
C3346 H3371 0.950 . S
C3347 C3346 1.349 . S
C3347 C3363 1.349 . S
C3348 C3346 1.327 . S
C3348 C3367 1.429 . S
C3348 H3372 0.950 . S
C3349 C3366 1.574 . S
C3349 C3368 1.368 . S
C3349 H3373 0.949 . S
H3350 C3354 0.949 . S
C3351 C3352 1.349 . S
C3351 C3353 1.327 . S
C3351 H3374 0.950 . S
C3352 C3351 1.349 . S
C3352 C3364 1.349 . S
C3353 C3351 1.327 . S
C3353 C3369 1.429 . S
C3353 H3375 0.950 . S
C3354 H3350 0.949 . S
C3354 C3362 1.574 . S
C3354 C3370 1.368 . S
H3355 C3363 0.950 . S
H3356 C3361 0.950 . S
H3357 C3362 0.949 . S
H3358 C3364 0.950 . S
H3359 C3365 0.950 . S
H3360 C3366 0.949 . S
C3361 H3356 0.950 . S
C3361 C3363 1.327 . S
C3361 C3367 1.429 . S
C3362 C3354 1.574 . S
C3362 H3357 0.949 . S
C3362 C3368 1.368 . S
C3363 C3347 1.349 . S
C3363 H3355 0.950 . S
C3363 C3361 1.327 . S
C3364 C3352 1.349 . S
C3364 H3358 0.950 . S
C3364 C3365 1.327 . S
C3365 H3359 0.950 . S
C3365 C3364 1.327 . S
C3365 C3369 1.429 . S
C3366 C3349 1.574 . S
C3366 H3360 0.949 . S
C3366 C3370 1.368 . S
C3367 C3348 1.429 . S
C3367 C3361 1.429 . S
C3367 C3368 1.523 . S
C3368 C3349 1.368 . S
C3368 C3362 1.368 . S
C3368 C3367 1.523 . S
C3369 C3353 1.429 . S
C3369 C3365 1.429 . S
C3369 C3370 1.523 . S
C3370 C3354 1.368 . S
C3370 C3366 1.368 . S
C3370 C3369 1.523 . S
H3371 C3346 0.950 . S
H3372 C3348 0.950 . S
H3373 C3349 0.949 . S
H3374 C3351 0.950 . S
H3375 C3353 0.950 . S
C3376 C3377 1.349 . S
C3376 C3378 1.327 . S
C3376 H3401 0.950 . S
C3377 C3376 1.349 . S
C3377 C3393 1.349 . S
C3378 C3376 1.327 . S
C3378 C3397 1.429 . S
C3378 H3402 0.950 . S
C3379 C3396 1.574 . S
C3379 C3398 1.368 . S
C3379 H3403 0.949 . S
H3380 C3384 0.949 . S
C3381 C3382 1.349 . S
C3381 C3383 1.327 . S
C3381 H3404 0.950 . S
C3382 C3381 1.349 . S
C3382 C3394 1.349 . S
C3383 C3381 1.327 . S
C3383 C3399 1.429 . S
C3383 H3405 0.950 . S
C3384 H3380 0.949 . S
C3384 C3392 1.574 . S
C3384 C3400 1.368 . S
H3385 C3393 0.950 . S
H3386 C3391 0.950 . S
H3387 C3392 0.949 . S
H3388 C3394 0.950 . S
H3389 C3395 0.950 . S
H3390 C3396 0.949 . S
C3391 H3386 0.950 . S
C3391 C3393 1.327 . S
C3391 C3397 1.429 . S
C3392 C3384 1.574 . S
C3392 H3387 0.949 . S
C3392 C3398 1.368 . S
C3393 C3377 1.349 . S
C3393 H3385 0.950 . S
C3393 C3391 1.327 . S
C3394 C3382 1.349 . S
C3394 H3388 0.950 . S
C3394 C3395 1.327 . S
C3395 H3389 0.950 . S
C3395 C3394 1.327 . S
C3395 C3399 1.429 . S
C3396 C3379 1.574 . S
C3396 H3390 0.949 . S
C3396 C3400 1.368 . S
C3397 C3378 1.429 . S
C3397 C3391 1.429 . S
C3397 C3398 1.523 . S
C3398 C3379 1.368 . S
C3398 C3392 1.368 . S
C3398 C3397 1.523 . S
C3399 C3383 1.429 . S
C3399 C3395 1.429 . S
C3399 C3400 1.523 . S
C3400 C3384 1.368 . S
C3400 C3396 1.368 . S
C3400 C3399 1.523 . S
H3401 C3376 0.950 . S
H3402 C3378 0.950 . S
H3403 C3379 0.949 . S
H3404 C3381 0.950 . S
H3405 C3383 0.950 . S
C3406 C3407 1.349 . S
C3406 C3408 1.327 . S
C3406 H3431 0.950 . S
C3407 C3406 1.349 . S
C3407 C3423 1.349 . S
C3408 C3406 1.327 . S
C3408 C3427 1.429 . S
C3408 H3432 0.950 . S
C3409 C3426 1.574 . S
C3409 C3428 1.368 . S
C3409 H3433 0.949 . S
H3410 C3414 0.949 . S
C3411 C3412 1.349 . S
C3411 C3413 1.327 . S
C3411 H3434 0.950 . S
C3412 C3411 1.349 . S
C3412 C3424 1.349 . S
C3413 C3411 1.327 . S
C3413 C3429 1.429 . S
C3413 H3435 0.950 . S
C3414 H3410 0.949 . S
C3414 C3422 1.574 . S
C3414 C3430 1.368 . S
H3415 C3423 0.950 . S
H3416 C3421 0.950 . S
H3417 C3422 0.949 . S
H3418 C3424 0.950 . S
H3419 C3425 0.950 . S
H3420 C3426 0.949 . S
C3421 H3416 0.950 . S
C3421 C3423 1.327 . S
C3421 C3427 1.429 . S
C3422 C3414 1.574 . S
C3422 H3417 0.949 . S
C3422 C3428 1.368 . S
C3423 C3407 1.349 . S
C3423 H3415 0.950 . S
C3423 C3421 1.327 . S
C3424 C3412 1.349 . S
C3424 H3418 0.950 . S
C3424 C3425 1.327 . S
C3425 H3419 0.950 . S
C3425 C3424 1.327 . S
C3425 C3429 1.429 . S
C3426 C3409 1.574 . S
C3426 H3420 0.949 . S
C3426 C3430 1.368 . S
C3427 C3408 1.429 . S
C3427 C3421 1.429 . S
C3427 C3428 1.523 . S
C3428 C3409 1.368 . S
C3428 C3422 1.368 . S
C3428 C3427 1.523 . S
C3429 C3413 1.429 . S
C3429 C3425 1.429 . S
C3429 C3430 1.523 . S
C3430 C3414 1.368 . S
C3430 C3426 1.368 . S
C3430 C3429 1.523 . S
H3431 C3406 0.950 . S
H3432 C3408 0.950 . S
H3433 C3409 0.949 . S
H3434 C3411 0.950 . S
H3435 C3413 0.950 . S
C3436 C3437 1.349 . S
C3436 C3438 1.327 . S
C3436 H3461 0.950 . S
C3437 C3436 1.349 . S
C3437 C3453 1.349 . S
C3438 C3436 1.327 . S
C3438 C3457 1.429 . S
C3438 H3462 0.950 . S
C3439 C3456 1.574 . S
C3439 C3458 1.368 . S
C3439 H3463 0.949 . S
H3440 C3444 0.949 . S
C3441 C3442 1.349 . S
C3441 C3443 1.327 1_455 S
C3441 H3464 0.950 . S
C3442 C3441 1.349 . S
C3442 C3454 1.349 . S
C3443 C3441 1.327 1_655 S
C3443 C3459 1.429 . S
C3443 H3465 0.950 . S
C3444 H3440 0.949 . S
C3444 C3452 1.574 . S
C3444 C3460 1.368 . S
H3445 C3453 0.950 . S
H3446 C3451 0.950 . S
H3447 C3452 0.949 . S
H3448 C3454 0.985 . S
H3449 C3455 0.950 . S
H3450 C3456 0.949 . S
C3451 H3446 0.950 . S
C3451 C3453 1.327 . S
C3451 C3457 1.429 . S
C3452 C3444 1.574 . S
C3452 H3447 0.949 . S
C3452 C3458 1.368 . S
C3453 C3437 1.349 . S
C3453 H3445 0.950 . S
C3453 C3451 1.327 . S
C3454 C3442 1.349 . S
C3454 H3448 0.985 . S
C3454 C3455 1.327 1_455 S
C3455 H3449 0.950 . S
C3455 C3454 1.327 1_655 S
C3455 C3459 1.429 . S
C3456 C3439 1.574 . S
C3456 H3450 0.949 . S
C3456 C3460 1.368 . S
C3457 C3438 1.429 . S
C3457 C3451 1.429 . S
C3457 C3458 1.523 . S
C3458 C3439 1.368 . S
C3458 C3452 1.368 . S
C3458 C3457 1.523 . S
C3459 C3443 1.429 . S
C3459 C3455 1.429 . S
C3459 C3460 1.523 . S
C3460 C3444 1.368 . S
C3460 C3456 1.368 . S
C3460 C3459 1.523 . S
H3461 C3436 0.950 . S
H3462 C3438 0.950 . S
H3463 C3439 0.949 . S
H3464 C3441 0.950 . S
H3465 C3443 0.950 . S
C3466 C3467 1.349 . S
C3466 C3468 1.327 . S
C3466 H3491 0.950 . S
C3467 C3466 1.349 . S
C3467 C3483 1.349 . S
C3468 C3466 1.327 . S
C3468 C3487 1.429 . S
C3468 H3492 0.950 . S
C3469 C3486 1.574 . S
C3469 C3488 1.368 . S
C3469 H3493 0.949 . S
H3470 C3474 0.949 . S
C3471 C3472 1.349 . S
C3471 C3473 1.327 . S
C3471 H3494 0.950 . S
C3472 C3471 1.349 . S
C3472 C3484 1.349 . S
C3473 C3471 1.327 . S
C3473 C3489 1.429 . S
C3473 H3495 0.950 . S
C3474 H3470 0.949 . S
C3474 C3482 1.574 . S
C3474 C3490 1.368 . S
H3475 C3483 0.950 . S
H3476 C3481 0.950 . S
H3477 C3482 0.949 . S
H3478 C3484 0.950 . S
H3479 C3485 0.950 . S
H3480 C3486 0.949 . S
C3481 H3476 0.950 . S
C3481 C3483 1.327 . S
C3481 C3487 1.429 . S
C3482 C3474 1.574 . S
C3482 H3477 0.949 . S
C3482 C3488 1.368 . S
C3483 C3467 1.349 . S
C3483 H3475 0.950 . S
C3483 C3481 1.327 . S
C3484 C3472 1.349 . S
C3484 H3478 0.950 . S
C3484 C3485 1.327 . S
C3485 H3479 0.950 . S
C3485 C3484 1.327 . S
C3485 C3489 1.429 . S
C3486 C3469 1.574 . S
C3486 H3480 0.949 . S
C3486 C3490 1.368 . S
C3487 C3468 1.429 . S
C3487 C3481 1.429 . S
C3487 C3488 1.523 . S
C3488 C3469 1.368 . S
C3488 C3482 1.368 . S
C3488 C3487 1.523 . S
C3489 C3473 1.429 . S
C3489 C3485 1.429 . S
C3489 C3490 1.523 . S
C3490 C3474 1.368 . S
C3490 C3486 1.368 . S
C3490 C3489 1.523 . S
H3491 C3466 0.950 . S
H3492 C3468 0.950 . S
H3493 C3469 0.949 . S
H3494 C3471 0.950 . S
H3495 C3473 0.950 . S
C3496 C3497 1.349 . S
C3496 C3498 1.327 . S
C3496 H3521 0.950 . S
C3497 C3496 1.349 . S
C3497 C3513 1.349 . S
C3498 C3496 1.327 . S
C3498 C3517 1.429 . S
C3498 H3522 0.950 . S
C3499 C3516 1.574 . S
C3499 C3518 1.368 . S
C3499 H3523 0.949 . S
H3500 C3504 0.949 . S
C3501 C3502 1.349 . S
C3501 C3503 1.327 . S
C3501 H3524 0.950 . S
C3502 C3501 1.349 . S
C3502 C3514 1.349 . S
C3503 C3501 1.327 . S
C3503 C3519 1.429 . S
C3503 H3525 0.950 . S
C3504 H3500 0.949 . S
C3504 C3512 1.574 . S
C3504 C3520 1.368 . S
H3505 C3513 0.950 . S
H3506 C3511 0.950 . S
H3507 C3512 0.949 . S
H3508 C3514 0.950 . S
H3509 C3515 0.950 . S
H3510 C3516 0.949 . S
C3511 H3506 0.950 . S
C3511 C3513 1.327 . S
C3511 C3517 1.429 . S
C3512 C3504 1.574 . S
C3512 H3507 0.949 . S
C3512 C3518 1.368 . S
C3513 C3497 1.349 . S
C3513 H3505 0.950 . S
C3513 C3511 1.327 . S
C3514 C3502 1.349 . S
C3514 H3508 0.950 . S
C3514 C3515 1.327 . S
C3515 H3509 0.950 . S
C3515 C3514 1.327 . S
C3515 C3519 1.429 . S
C3516 C3499 1.574 . S
C3516 H3510 0.949 . S
C3516 C3520 1.368 . S
C3517 C3498 1.429 . S
C3517 C3511 1.429 . S
C3517 C3518 1.523 . S
C3518 C3499 1.368 . S
C3518 C3512 1.368 . S
C3518 C3517 1.523 . S
C3519 C3503 1.429 . S
C3519 C3515 1.429 . S
C3519 C3520 1.523 . S
C3520 C3504 1.368 . S
C3520 C3516 1.368 . S
C3520 C3519 1.523 . S
H3521 C3496 0.950 . S
H3522 C3498 0.950 . S
H3523 C3499 0.949 . S
H3524 C3501 0.950 . S
H3525 C3503 0.950 . S
C3526 C3527 1.349 . S
C3526 C3528 1.327 . S
C3526 H3551 0.950 . S
C3527 C3526 1.349 . S
C3527 C3543 1.349 . S
C3528 C3526 1.327 . S
C3528 C3547 1.429 . S
C3528 H3552 0.950 . S
C3529 C3546 1.574 . S
C3529 C3548 1.368 . S
C3529 H3553 0.949 . S
H3530 C3534 0.949 . S
C3531 C3532 1.349 . S
C3531 C3533 1.327 . S
C3531 H3554 0.950 . S
C3532 C3531 1.349 . S
C3532 C3544 1.349 . S
C3533 C3531 1.327 . S
C3533 C3549 1.429 . S
C3533 H3555 0.950 . S
C3534 H3530 0.949 . S
C3534 C3542 1.574 . S
C3534 C3550 1.368 . S
H3535 C3543 0.950 . S
H3536 C3541 0.950 . S
H3537 C3542 0.949 . S
H3538 C3544 0.950 . S
H3539 C3545 0.950 . S
H3540 C3546 0.949 . S
C3541 H3536 0.950 . S
C3541 C3543 1.327 . S
C3541 C3547 1.429 . S
C3542 C3534 1.574 . S
C3542 H3537 0.949 . S
C3542 C3548 1.368 . S
C3543 C3527 1.349 . S
C3543 H3535 0.950 . S
C3543 C3541 1.327 . S
C3544 C3532 1.349 . S
C3544 H3538 0.950 . S
C3544 C3545 1.327 . S
C3545 H3539 0.950 . S
C3545 C3544 1.327 . S
C3545 C3549 1.429 . S
C3546 C3529 1.574 . S
C3546 H3540 0.949 . S
C3546 C3550 1.368 . S
C3547 C3528 1.429 . S
C3547 C3541 1.429 . S
C3547 C3548 1.523 . S
C3548 C3529 1.368 . S
C3548 C3542 1.368 . S
C3548 C3547 1.523 . S
C3549 C3533 1.429 . S
C3549 C3545 1.429 . S
C3549 C3550 1.523 . S
C3550 C3534 1.368 . S
C3550 C3546 1.368 . S
C3550 C3549 1.523 . S
H3551 C3526 0.950 . S
H3552 C3528 0.950 . S
H3553 C3529 0.949 . S
H3554 C3531 0.950 . S
H3555 C3533 0.950 . S
C3556 C3557 1.349 . S
C3556 C3558 1.327 . S
C3556 H3581 0.950 . S
C3557 C3556 1.349 . S
C3557 C3573 1.349 . S
C3558 C3556 1.327 . S
C3558 C3577 1.429 . S
C3558 H3582 0.950 . S
C3559 C3576 1.574 . S
C3559 C3578 1.368 . S
C3559 H3583 0.949 . S
H3560 C3564 0.949 . S
C3561 C3562 1.349 . S
C3561 C3563 1.329 . S
C3561 H3584 0.948 1_655 S
C3562 C3561 1.349 . S
C3562 C3574 1.349 . S
C3563 C3561 1.329 . S
C3563 C3579 1.429 . S
C3563 H3585 0.950 . S
C3564 H3560 0.949 . S
C3564 C3572 1.574 . S
C3564 C3580 1.368 . S
H3565 C3573 0.950 . S
H3566 C3571 0.950 . S
H3567 C3572 0.949 . S
H3568 C3574 0.950 . S
H3569 C3575 0.950 . S
H3570 C3576 0.949 . S
C3571 H3566 0.950 . S
C3571 C3573 1.327 . S
C3571 C3577 1.429 . S
C3572 C3564 1.574 . S
C3572 H3567 0.949 . S
C3572 C3578 1.368 . S
C3573 C3557 1.349 . S
C3573 H3565 0.950 . S
C3573 C3571 1.327 . S
C3574 C3562 1.349 . S
C3574 H3568 0.950 . S
C3574 C3575 1.327 . S
C3575 H3569 0.950 . S
C3575 C3574 1.327 . S
C3575 C3579 1.429 . S
C3576 C3559 1.574 . S
C3576 H3570 0.949 . S
C3576 C3580 1.368 . S
C3577 C3558 1.429 . S
C3577 C3571 1.429 . S
C3577 C3578 1.523 . S
C3578 C3559 1.368 . S
C3578 C3572 1.368 . S
C3578 C3577 1.523 . S
C3579 C3563 1.429 . S
C3579 C3575 1.429 . S
C3579 C3580 1.523 . S
C3580 C3564 1.368 . S
C3580 C3576 1.368 . S
C3580 C3579 1.523 . S
H3581 C3556 0.950 . S
H3582 C3558 0.950 . S
H3583 C3559 0.949 . S
H3584 C3561 0.948 1_455 S
H3585 C3563 0.950 . S
C3586 C3587 1.349 . S
C3586 C3588 1.327 . S
C3586 H3611 0.950 . S
C3587 C3586 1.349 . S
C3587 C3603 1.349 . S
C3588 C3586 1.327 . S
C3588 C3607 1.429 . S
C3588 H3612 0.950 . S
C3589 C3606 1.574 . S
C3589 C3608 1.368 . S
C3589 H3613 0.949 . S
H3590 C3594 0.949 . S
C3591 C3592 1.349 . S
C3591 C3593 1.327 . S
C3591 H3614 0.950 . S
C3592 C3591 1.349 . S
C3592 C3604 1.349 . S
C3593 C3591 1.327 . S
C3593 C3609 1.429 . S
C3593 H3615 0.950 . S
C3594 H3590 0.949 . S
C3594 C3602 1.574 . S
C3594 C3610 1.368 . S
H3595 C3603 0.950 . S
H3596 C3601 0.950 . S
H3597 C3602 0.949 . S
H3598 C3604 0.950 . S
H3599 C3605 0.950 . S
H3600 C3606 0.949 . S
C3601 H3596 0.950 . S
C3601 C3603 1.327 . S
C3601 C3607 1.429 . S
C3602 C3594 1.574 . S
C3602 H3597 0.949 . S
C3602 C3608 1.368 . S
C3603 C3587 1.349 . S
C3603 H3595 0.950 . S
C3603 C3601 1.327 . S
C3604 C3592 1.349 . S
C3604 H3598 0.950 . S
C3604 C3605 1.327 . S
C3605 H3599 0.950 . S
C3605 C3604 1.327 . S
C3605 C3609 1.429 . S
C3606 C3589 1.574 . S
C3606 H3600 0.949 . S
C3606 C3610 1.368 . S
C3607 C3588 1.429 . S
C3607 C3601 1.429 . S
C3607 C3608 1.523 . S
C3608 C3589 1.368 . S
C3608 C3602 1.368 . S
C3608 C3607 1.523 . S
C3609 C3593 1.429 . S
C3609 C3605 1.429 . S
C3609 C3610 1.523 . S
C3610 C3594 1.368 . S
C3610 C3606 1.368 . S
C3610 C3609 1.523 . S
H3611 C3586 0.950 . S
H3612 C3588 0.950 . S
H3613 C3589 0.949 . S
H3614 C3591 0.950 . S
H3615 C3593 0.950 . S
C3616 C3617 1.349 . S
C3616 C3618 1.327 . S
C3616 H3641 0.950 . S
C3617 C3616 1.349 . S
C3617 C3633 1.349 . S
C3618 C3616 1.327 . S
C3618 C3637 1.429 . S
C3618 H3642 0.950 . S
C3619 C3636 1.574 . S
C3619 C3638 1.368 . S
C3619 H3643 0.949 . S
H3620 C3624 0.949 . S
C3621 C3622 1.349 . S
C3621 C3623 1.327 . S
C3621 H3644 0.950 . S
C3622 C3621 1.349 . S
C3622 C3634 1.349 . S
C3623 C3621 1.327 . S
C3623 C3639 1.429 . S
C3623 H3645 0.950 . S
C3624 H3620 0.949 . S
C3624 C3632 1.574 . S
C3624 C3640 1.368 . S
H3625 C3633 0.950 . S
H3626 C3631 0.950 . S
H3627 C3632 0.949 . S
H3628 C3634 0.950 . S
H3629 C3635 0.950 . S
H3630 C3636 0.949 . S
C3631 H3626 0.950 . S
C3631 C3633 1.327 . S
C3631 C3637 1.429 . S
C3632 C3624 1.574 . S
C3632 H3627 0.949 . S
C3632 C3638 1.368 . S
C3633 C3617 1.349 . S
C3633 H3625 0.950 . S
C3633 C3631 1.327 . S
C3634 C3622 1.349 . S
C3634 H3628 0.950 . S
C3634 C3635 1.327 . S
C3635 H3629 0.950 . S
C3635 C3634 1.327 . S
C3635 C3639 1.429 . S
C3636 C3619 1.574 . S
C3636 H3630 0.949 . S
C3636 C3640 1.368 . S
C3637 C3618 1.429 . S
C3637 C3631 1.429 . S
C3637 C3638 1.523 . S
C3638 C3619 1.368 . S
C3638 C3632 1.368 . S
C3638 C3637 1.523 . S
C3639 C3623 1.429 . S
C3639 C3635 1.429 . S
C3639 C3640 1.523 . S
C3640 C3624 1.368 . S
C3640 C3636 1.368 . S
C3640 C3639 1.523 . S
H3641 C3616 0.950 . S
H3642 C3618 0.950 . S
H3643 C3619 0.949 . S
H3644 C3621 0.950 . S
H3645 C3623 0.950 . S
C3646 C3647 1.349 . S
C3646 C3648 1.327 . S
C3646 H3671 0.950 . S
C3647 C3646 1.349 . S
C3647 C3663 1.349 . S
C3648 C3646 1.327 . S
C3648 C3667 1.429 . S
C3648 H3672 0.950 . S
C3649 C3666 1.574 . S
C3649 C3668 1.368 . S
C3649 H3673 0.949 . S
H3650 C3654 0.949 . S
C3651 C3652 1.349 . S
C3651 C3653 1.327 . S
C3651 H3674 0.950 . S
C3652 C3651 1.349 . S
C3652 C3664 1.349 . S
C3653 C3651 1.327 . S
C3653 C3669 1.429 . S
C3653 H3675 0.950 . S
C3654 H3650 0.949 . S
C3654 C3662 1.574 . S
C3654 C3670 1.368 . S
H3655 C3663 0.950 . S
H3656 C3661 0.950 . S
H3657 C3662 0.949 . S
H3658 C3664 0.950 . S
H3659 C3665 0.950 . S
H3660 C3666 0.949 . S
C3661 H3656 0.950 . S
C3661 C3663 1.327 . S
C3661 C3667 1.429 . S
C3662 C3654 1.574 . S
C3662 H3657 0.949 . S
C3662 C3668 1.368 . S
C3663 C3647 1.349 . S
C3663 H3655 0.950 . S
C3663 C3661 1.327 . S
C3664 C3652 1.349 . S
C3664 H3658 0.950 . S
C3664 C3665 1.327 . S
C3665 H3659 0.950 . S
C3665 C3664 1.327 . S
C3665 C3669 1.429 . S
C3666 C3649 1.574 . S
C3666 H3660 0.949 . S
C3666 C3670 1.368 . S
C3667 C3648 1.429 . S
C3667 C3661 1.429 . S
C3667 C3668 1.523 . S
C3668 C3649 1.368 . S
C3668 C3662 1.368 . S
C3668 C3667 1.523 . S
C3669 C3653 1.429 . S
C3669 C3665 1.429 . S
C3669 C3670 1.523 . S
C3670 C3654 1.368 . S
C3670 C3666 1.368 . S
C3670 C3669 1.523 . S
H3671 C3646 0.950 . S
H3672 C3648 0.950 . S
H3673 C3649 0.949 . S
H3674 C3651 0.950 . S
H3675 C3653 0.950 . S
C3676 C3677 1.349 . S
C3676 C3678 1.327 . S
C3676 H3701 0.950 . S
C3677 C3676 1.349 . S
C3677 C3693 1.349 . S
C3678 C3676 1.327 . S
C3678 C3697 1.429 . S
C3678 H3702 0.950 . S
C3679 C3696 1.574 . S
C3679 C3698 1.368 . S
C3679 H3703 0.949 . S
H3680 C3684 0.949 . S
C3681 C3682 1.349 . S
C3681 C3683 1.327 . S
C3681 H3704 0.950 . S
C3682 C3681 1.349 . S
C3682 C3694 1.349 . S
C3683 C3681 1.327 . S
C3683 C3699 1.429 . S
C3683 H3705 0.950 . S
C3684 H3680 0.949 . S
C3684 C3692 1.574 . S
C3684 C3700 1.368 . S
H3685 C3693 0.950 . S
H3686 C3691 0.950 . S
H3687 C3692 0.949 . S
H3688 C3694 0.950 . S
H3689 C3695 0.950 . S
H3690 C3696 0.949 . S
C3691 H3686 0.950 . S
C3691 C3693 1.327 . S
C3691 C3697 1.429 . S
C3692 C3684 1.574 . S
C3692 H3687 0.949 . S
C3692 C3698 1.368 . S
C3693 C3677 1.349 . S
C3693 H3685 0.950 . S
C3693 C3691 1.327 . S
C3694 C3682 1.349 . S
C3694 H3688 0.950 . S
C3694 C3695 1.327 . S
C3695 H3689 0.950 . S
C3695 C3694 1.327 . S
C3695 C3699 1.429 . S
C3696 C3679 1.574 . S
C3696 H3690 0.949 . S
C3696 C3700 1.368 . S
C3697 C3678 1.429 . S
C3697 C3691 1.429 . S
C3697 C3698 1.523 . S
C3698 C3679 1.368 . S
C3698 C3692 1.368 . S
C3698 C3697 1.523 . S
C3699 C3683 1.429 . S
C3699 C3695 1.429 . S
C3699 C3700 1.523 . S
C3700 C3684 1.368 . S
C3700 C3696 1.368 . S
C3700 C3699 1.523 . S
H3701 C3676 0.950 . S
H3702 C3678 0.950 . S
H3703 C3679 0.949 . S
H3704 C3681 0.950 . S
H3705 C3683 0.950 . S
C3706 C3707 1.349 . S
C3706 C3708 1.327 . S
C3706 H3731 0.950 . S
C3707 C3706 1.349 . S
C3707 C3723 1.349 . S
C3708 C3706 1.327 . S
C3708 C3727 1.429 . S
C3708 H3732 0.950 . S
C3709 C3726 1.574 . S
C3709 C3728 1.368 . S
C3709 H3733 0.949 . S
H3710 C3714 0.949 . S
C3711 C3712 1.349 . S
C3711 C3713 1.327 . S
C3711 H3734 0.950 . S
C3712 C3711 1.349 . S
C3712 C3724 1.349 . S
C3713 C3711 1.327 . S
C3713 C3729 1.429 . S
C3713 H3735 0.950 . S
C3714 H3710 0.949 . S
C3714 C3722 1.574 . S
C3714 C3730 1.368 . S
H3715 C3723 0.950 . S
H3716 C3721 0.950 . S
H3717 C3722 0.949 . S
H3718 C3724 0.950 . S
H3719 C3725 0.950 . S
H3720 C3726 0.949 . S
C3721 H3716 0.950 . S
C3721 C3723 1.327 . S
C3721 C3727 1.429 . S
C3722 C3714 1.574 . S
C3722 H3717 0.949 . S
C3722 C3728 1.368 . S
C3723 C3707 1.349 . S
C3723 H3715 0.950 . S
C3723 C3721 1.327 . S
C3724 C3712 1.349 . S
C3724 H3718 0.950 . S
C3724 C3725 1.327 . S
C3725 H3719 0.950 . S
C3725 C3724 1.327 . S
C3725 C3729 1.429 . S
C3726 C3709 1.574 . S
C3726 H3720 0.949 . S
C3726 C3730 1.368 . S
C3727 C3708 1.429 . S
C3727 C3721 1.429 . S
C3727 C3728 1.523 . S
C3728 C3709 1.368 . S
C3728 C3722 1.368 . S
C3728 C3727 1.523 . S
C3729 C3713 1.429 . S
C3729 C3725 1.429 . S
C3729 C3730 1.523 . S
C3730 C3714 1.368 . S
C3730 C3726 1.368 . S
C3730 C3729 1.523 . S
H3731 C3706 0.950 . S
H3732 C3708 0.950 . S
H3733 C3709 0.949 . S
H3734 C3711 0.950 . S
H3735 C3713 0.950 . S
C3736 C3737 1.349 . S
C3736 C3738 1.327 . S
C3736 H3761 0.950 . S
C3737 C3736 1.349 . S
C3737 C3753 1.349 . S
C3738 C3736 1.327 . S
C3738 C3757 1.429 . S
C3738 H3762 0.950 . S
C3739 C3756 1.574 . S
C3739 C3758 1.368 . S
C3739 H3763 0.949 . S
H3740 C3744 0.949 . S
C3741 C3742 1.349 . S
C3741 C3743 1.327 . S
C3741 H3764 0.950 . S
C3742 C3741 1.349 . S
C3742 C3754 1.349 . S
C3743 C3741 1.327 . S
C3743 C3759 1.429 . S
C3743 H3765 0.950 . S
C3744 H3740 0.949 . S
C3744 C3752 1.574 . S
C3744 C3760 1.368 . S
H3745 C3753 0.950 . S
H3746 C3751 0.950 . S
H3747 C3752 0.949 . S
H3748 C3754 0.950 . S
H3749 C3755 0.950 . S
H3750 C3756 0.949 . S
C3751 H3746 0.950 . S
C3751 C3753 1.327 . S
C3751 C3757 1.429 . S
C3752 C3744 1.574 . S
C3752 H3747 0.949 . S
C3752 C3758 1.368 . S
C3753 C3737 1.349 . S
C3753 H3745 0.950 . S
C3753 C3751 1.327 . S
C3754 C3742 1.349 . S
C3754 H3748 0.950 . S
C3754 C3755 1.327 . S
C3755 H3749 0.950 . S
C3755 C3754 1.327 . S
C3755 C3759 1.429 . S
C3756 C3739 1.574 . S
C3756 H3750 0.949 . S
C3756 C3760 1.368 . S
C3757 C3738 1.429 . S
C3757 C3751 1.429 . S
C3757 C3758 1.523 . S
C3758 C3739 1.368 . S
C3758 C3752 1.368 . S
C3758 C3757 1.523 . S
C3759 C3743 1.429 . S
C3759 C3755 1.429 . S
C3759 C3760 1.523 . S
C3760 C3744 1.368 . S
C3760 C3756 1.368 . S
C3760 C3759 1.523 . S
H3761 C3736 0.950 . S
H3762 C3738 0.950 . S
H3763 C3739 0.949 . S
H3764 C3741 0.950 . S
H3765 C3743 0.950 . S
C3766 C3767 1.349 . S
C3766 C3768 1.327 . S
C3766 H3791 0.950 . S
C3767 C3766 1.349 . S
C3767 C3783 1.349 . S
C3768 C3766 1.327 . S
C3768 C3787 1.429 . S
C3768 H3792 0.950 . S
C3769 C3786 1.574 . S
C3769 C3788 1.368 . S
C3769 H3793 0.949 . S
H3770 C3774 0.949 . S
C3771 C3772 1.349 . S
C3771 C3773 1.327 . S
C3771 H3794 0.950 . S
C3772 C3771 1.349 . S
C3772 C3784 1.349 . S
C3773 C3771 1.327 . S
C3773 C3789 1.429 . S
C3773 H3795 0.950 . S
C3774 H3770 0.949 . S
C3774 C3782 1.574 . S
C3774 C3790 1.368 . S
H3775 C3783 0.950 . S
H3776 C3781 0.950 . S
H3777 C3782 0.949 . S
H3778 C3784 0.950 . S
H3779 C3785 0.950 . S
H3780 C3786 0.949 . S
C3781 H3776 0.950 . S
C3781 C3783 1.327 . S
C3781 C3787 1.429 . S
C3782 C3774 1.574 . S
C3782 H3777 0.949 . S
C3782 C3788 1.368 . S
C3783 C3767 1.349 . S
C3783 H3775 0.950 . S
C3783 C3781 1.327 . S
C3784 C3772 1.349 . S
C3784 H3778 0.950 . S
C3784 C3785 1.327 . S
C3785 H3779 0.950 . S
C3785 C3784 1.327 . S
C3785 C3789 1.429 . S
C3786 C3769 1.574 . S
C3786 H3780 0.949 . S
C3786 C3790 1.368 . S
C3787 C3768 1.429 . S
C3787 C3781 1.429 . S
C3787 C3788 1.523 . S
C3788 C3769 1.368 . S
C3788 C3782 1.368 . S
C3788 C3787 1.523 . S
C3789 C3773 1.429 . S
C3789 C3785 1.429 . S
C3789 C3790 1.523 . S
C3790 C3774 1.368 . S
C3790 C3786 1.368 . S
C3790 C3789 1.523 . S
H3791 C3766 0.950 . S
H3792 C3768 0.950 . S
H3793 C3769 0.949 . S
H3794 C3771 0.950 . S
H3795 C3773 0.950 . S
C3796 C3797 1.349 . S
C3796 C3798 1.327 . S
C3796 H3821 0.950 . S
C3797 C3796 1.349 . S
C3797 C3813 1.349 . S
C3798 C3796 1.327 . S
C3798 C3817 1.429 . S
C3798 H3822 0.950 . S
C3799 C3816 1.574 . S
C3799 C3818 1.368 . S
C3799 H3823 0.949 . S
H3800 C3804 0.949 . S
C3801 C3802 1.349 . S
C3801 C3803 1.327 . S
C3801 H3824 0.950 . S
C3802 C3801 1.349 . S
C3802 C3814 1.349 . S
C3803 C3801 1.327 . S
C3803 C3819 1.429 . S
C3803 H3825 0.950 . S
C3804 H3800 0.949 . S
C3804 C3812 1.574 . S
C3804 C3820 1.368 . S
H3805 C3813 0.950 . S
H3806 C3811 0.950 . S
H3807 C3812 0.949 . S
H3808 C3814 0.950 . S
H3809 C3815 0.950 . S
H3810 C3816 0.949 . S
C3811 H3806 0.950 . S
C3811 C3813 1.327 . S
C3811 C3817 1.429 . S
C3812 C3804 1.574 . S
C3812 H3807 0.949 . S
C3812 C3818 1.368 . S
C3813 C3797 1.349 . S
C3813 H3805 0.950 . S
C3813 C3811 1.327 . S
C3814 C3802 1.349 . S
C3814 H3808 0.950 . S
C3814 C3815 1.327 . S
C3815 H3809 0.950 . S
C3815 C3814 1.327 . S
C3815 C3819 1.429 . S
C3816 C3799 1.574 . S
C3816 H3810 0.949 . S
C3816 C3820 1.368 . S
C3817 C3798 1.429 . S
C3817 C3811 1.429 . S
C3817 C3818 1.523 . S
C3818 C3799 1.368 . S
C3818 C3812 1.368 . S
C3818 C3817 1.523 . S
C3819 C3803 1.429 . S
C3819 C3815 1.429 . S
C3819 C3820 1.523 . S
C3820 C3804 1.368 . S
C3820 C3816 1.368 . S
C3820 C3819 1.523 . S
H3821 C3796 0.950 . S
H3822 C3798 0.950 . S
H3823 C3799 0.949 . S
H3824 C3801 0.950 . S
H3825 C3803 0.950 . S
C3826 C3827 1.349 . S
C3826 C3828 1.327 . S
C3826 H3851 0.950 . S
C3827 C3826 1.349 . S
C3827 C3843 1.349 . S
C3828 C3826 1.327 . S
C3828 C3847 1.429 . S
C3828 H3852 0.950 . S
C3829 C3846 1.574 . S
C3829 C3848 1.368 . S
C3829 H3853 0.949 . S
H3830 C3834 0.949 . S
C3831 C3832 1.349 . S
C3831 C3833 1.327 . S
C3831 H3854 0.950 . S
C3832 C3831 1.349 . S
C3832 C3844 1.349 . S
C3833 C3831 1.327 . S
C3833 C3849 1.429 . S
C3833 H3855 0.950 . S
C3834 H3830 0.949 . S
C3834 C3842 1.574 . S
C3834 C3850 1.368 . S
H3835 C3843 0.950 . S
H3836 C3841 0.950 . S
H3837 C3842 0.949 . S
H3838 C3844 0.950 . S
H3839 C3845 0.950 . S
H3840 C3846 0.949 . S
C3841 H3836 0.950 . S
C3841 C3843 1.327 . S
C3841 C3847 1.429 . S
C3842 C3834 1.574 . S
C3842 H3837 0.949 . S
C3842 C3848 1.368 . S
C3843 C3827 1.349 . S
C3843 H3835 0.950 . S
C3843 C3841 1.327 . S
C3844 C3832 1.349 . S
C3844 H3838 0.950 . S
C3844 C3845 1.327 . S
C3845 H3839 0.950 . S
C3845 C3844 1.327 . S
C3845 C3849 1.429 . S
C3846 C3829 1.574 . S
C3846 H3840 0.949 . S
C3846 C3850 1.368 . S
C3847 C3828 1.429 . S
C3847 C3841 1.429 . S
C3847 C3848 1.523 . S
C3848 C3829 1.368 . S
C3848 C3842 1.368 . S
C3848 C3847 1.523 . S
C3849 C3833 1.429 . S
C3849 C3845 1.429 . S
C3849 C3850 1.523 . S
C3850 C3834 1.368 . S
C3850 C3846 1.368 . S
C3850 C3849 1.523 . S
H3851 C3826 0.950 . S
H3852 C3828 0.950 . S
H3853 C3829 0.949 . S
H3854 C3831 0.950 . S
H3855 C3833 0.950 . S
C977 C106 2.615 . S
C982 C346 2.568 . S
C1007 C65 1.969 . S
C1012 C394 1.957 . S
C1037 C79 1.515 . S
C1042 C426 1.504 . S
C1072 C471 1.338 . S
C1067 C90 1.330 . S
C1097 C21 0.644 . S
C1102 C511 0.633 . S
C1132 C546 0.863 . S
C1127 C35 0.863 . S
C1162 C585 1.223 . S
C1157 C50 1.237 . S
C1187 C6 1.186 . S
C1192 C622 1.212 . S
C1222 C354 2.238 . S
C1217 C232 2.220 . S
C1247 C245 0.553 . S
C1252 C391 0.516 . S
C1282 C434 2.505 . S
C1277 C274 2.522 . S
C1312 C466 0.953 . S
C1307 C175 0.951 . S
C1337 C231 0.895 . S
C1342 C506 0.894 . S
C1372 C554 0.339 . S
C1367 C246 0.317 . S
C1402 C595 1.744 1_556 S
C1397 C273 1.730 . S
C1432 C625 2.127 . S
C1427 C176 2.118 . S
C1462 C351 1.224 . S
C1457 C160 1.181 . S
C1487 C289 2.160 . S
C1492 C674 2.141 . S
C1522 C711 1.238 . S
C1517 C328 1.199 . S
C1552 C742 0.577 . S
C1547 C317 0.553 . S
C1577 C118 2.684 . S
C1582 C635 2.698 . S
C1607 C132 1.414 . S
C1612 C431 1.438 . S
C1637 C331 1.834 . S
C1642 C794 1.821 . S
C1672 C826 1.861 . S
C1667 C303 1.855 . S
C1702 C355 2.095 . S
C1697 C63 2.131 . S
C1732 C825 2.466 . S
C1727 C107 2.440 . S
C1757 C92 1.285 . S
C1762 C435 1.288 . S
C1787 C78 1.884 . S
C1792 C782 1.880 . S
C1822 C502 1.223 . S
C1817 C8 1.204 . S
C1847 C51 0.978 . S
C1852 C715 0.983 . S
C1882 C594 1.522 . S
C1877 C37 1.536 . S
C1912 C871 1.173 . S
C1907 C20 1.165 . S
C1942 C345 1.982 1_556 S
C1937 C147 1.958 . S
C1972 C822 0.368 . S
C1967 C316 0.265 . S
C1997 C119 2.414 . S
C2002 C425 2.458 . S
C2027 C288 1.108 . S
C2032 C795 1.106 . S
C2057 C148 1.301 . S
C2062 C515 1.298 . S
C2092 C705 0.506 . S
C2087 C315 0.535 . S
C2117 C120 2.142 . S
C2122 C586 2.058 . S
C2147 C287 1.908 . S
C2152 C874 1.871 . S
C2177 C188 0.905 . S
C2182 C342 0.913 . S
C2207 C177 2.572 . S
C2212 C665 2.569 . S
C2237 C258 1.219 . S
C2242 C542 1.259 . S
C2267 C247 0.468 . S
C2272 C751 0.493 . S
C2302 C866 2.660 . S
C2297 C272 2.659 . S
C2327 C216 1.276 . S
C2332 C422 1.292 . S
C2362 C465 2.118 . S
C2357 C261 2.105 . S
C2392 C395 2.043 . S
C2387 C205 2.059 . S
C2417 C76 2.210 . S
C2422 C906 2.186 . S
C2452 C834 2.035 . S
C2447 C93 2.047 . S
C2477 C105 1.071 . S
C2482 C946 1.068 . S
C2507 C62 1.357 1_655 S
C2512 C791 1.369 . S
C2537 C49 0.627 . S
C2542 C671 0.615 . S
C2572 C706 1.288 . S
C2567 C9 1.299 . S
C2602 C745 1.128 . S
C2597 C22 1.140 . S
C2632 C862 1.560 . S
C2627 C36 1.545 . S
C2662 C914 2.160 . S
C2657 C260 2.143 . S
C2687 C189 0.627 . S
C2692 C831 0.608 . S
C2722 C954 2.397 . S
C2717 C204 2.413 . S
C2752 C786 0.766 . S
C2747 C217 0.766 . S
C2782 C666 1.083 1_556 S
C2777 C259 1.080 . S
C2807 C190 0.434 . S
C2812 C714 0.447 . S
C2842 C755 1.940 . S
C2837 C203 1.925 . S
C2867 C218 2.220 . S
C2872 C865 2.233 . S
C2902 C911 1.212 . S
C2897 C314 1.167 . S
C2927 C135 2.235 . S
C2932 C514 2.211 . S
C2962 C551 1.187 . S
C2957 C146 1.145 . S
C2992 C582 0.563 . S
C2987 C163 0.543 . S
C3022 C875 2.779 . S
C3017 C300 2.770 . S
C3047 C286 1.348 . S
C3052 C951 1.376 . S
C3082 C474 1.742 . S
C3077 C149 1.751 . S
C3112 C386 1.798 . S
C3107 C121 1.803 . S
C3137 C91 2.107 . S
C3142 C915 2.079 . S
C3172 C385 2.029 . S
C3167 C77 1.968 . S
C3197 C64 1.264 . S
C3202 C955 1.272 . S
C3227 C104 1.518 . S
C3232 C462 1.534 . S
C3257 C34 0.842 . S
C3262 C662 0.854 . S
C3292 C555 0.941 . S
C3287 C23 0.933 . S
C3317 C7 1.052 . S
C3322 C754 1.079 . S
C3347 C48 1.148 . S
C3352 C631 1.157 . S
C3382 C905 1.954 . S
C3377 C329 1.935 . S
C3407 C162 0.277 . S
C3412 C382 0.343 . S
C3442 C945 2.447 1_556 S
C3437 C301 2.412 . S
C3467 C134 1.120 . S
C3472 C475 1.120 . S
C3497 C330 1.318 . S
C3502 C675 1.316 . S
C3532 C545 0.541 . S
C3527 C161 0.564 . S
C3557 C302 2.109 . S
C3562 C746 2.030 1_655 S
C3592 C634 1.854 . S
C3587 C133 1.854 . S
C3622 C902 1.099 . S
C3617 C244 1.083 . S
C3652 C505 2.544 1_665 S
C3647 C219 2.537 . S
C3677 C230 0.982 . S
C3682 C702 1.006 . S
C3712 C591 0.539 . S
C3707 C191 0.510 . S
C3737 C202 2.948 . S
C3742 C626 2.958 . S
C3767 C174 1.518 . S
C3772 C942 1.542 . S
C3802 C785 2.089 . S
C3797 C233 2.067 . S
C3832 C835 1.986 . S
C3827 C275 2.014 . S
