# Generated by pormake.
# Topology pth, (4,4)-cn, num edge types: 1
# Building blocks:
#     Node 0, Type 0, BuildingBlock: UXUYUI_clean_sbu_0, # of connection points: 4
#     Node 1, Type 0, BuildingBlock: UXUYUI_clean_sbu_0, # of connection points: 4
#     Node 2, Type 0, BuildingBlock: UXUYUI_clean_sbu_0, # of connection points: 4
#     Node 3, Type 1, BuildingBlock: MUDLON_clean_sbu_0, # of connection points: 4
#     Node 4, Type 1, BuildingBlock: MUDLON_clean_sbu_0, # of connection points: 4
#     Node 5, Type 1, BuildingBlock: MUDLON_clean_sbu_0, # of connection points: 4
#     Edge 6, Type (0, 1), BuildingBlock: KIFKEQ_clean_linker_1, # of connection points: 2
#     Edge 7, Type (0, 1), BuildingBlock: KIFKEQ_clean_linker_1, # of connection points: 2
#     Edge 8, Type (0, 1), BuildingBlock: KIFKEQ_clean_linker_1, # of connection points: 2
#     Edge 9, Type (0, 1), BuildingBlock: KIFKEQ_clean_linker_1, # of connection points: 2
#     Edge 10, Type (0, 1), BuildingBlock: KIFKEQ_clean_linker_1, # of connection points: 2
#     Edge 11, Type (0, 1), BuildingBlock: KIFKEQ_clean_linker_1, # of connection points: 2
#     Edge 12, Type (0, 1), BuildingBlock: KIFKEQ_clean_linker_1, # of connection points: 2
#     Edge 13, Type (0, 1), BuildingBlock: KIFKEQ_clean_linker_1, # of connection points: 2
#     Edge 14, Type (0, 1), BuildingBlock: KIFKEQ_clean_linker_1, # of connection points: 2
#     Edge 15, Type (0, 1), BuildingBlock: KIFKEQ_clean_linker_1, # of connection points: 2
#     Edge 16, Type (0, 1), BuildingBlock: KIFKEQ_clean_linker_1, # of connection points: 2
#     Edge 17, Type (0, 1), BuildingBlock: KIFKEQ_clean_linker_1, # of connection points: 2
# Relax obj value: 0.110
# Max RMSD: 0.229
# Mean RMSD: 0.139
data_MOF--net-pth--node1-UXUYUI_clean_sbu_0--node2-MUDLON_clean_sbu_0--edge1-KIFKEQ_clean_linker_1
_symmetry_space_group_name_H-M    P1
_symmetry_Int_Tables_number       1
_symmetry_cell_setting            triclinic
loop_
_symmetry_equiv_pos_as_xyz
'x, y, z'
_cell_length_a     28.18775
_cell_length_b     28.164329
_cell_length_c     74.209585
_cell_angle_alpha  90.133899
_cell_angle_beta   89.717159
_cell_angle_gamma 120.09337
loop_
_atom_site_label
_atom_site_type_symbol
_atom_site_fract_x
_atom_site_fract_y
_atom_site_fract_z
_atom_type_partial_charge
Li0 Li 0.0657 0.05856 0.09789 0.0
Li1 Li 0.99963 0.05714 0.1196 0.0
Li2 Li 0.02795 0.98438 0.11984 0.0
Li3 Li 0.96543 0.98396 0.0962 0.0
C4 C 0.12732 0.10086 0.12713 0.0
N5 N 0.23797 0.17447 0.13124 0.0
C6 C 0.14529 0.15537 0.13181 0.0
C7 C 0.16559 0.08361 0.12486 0.0
C8 C 0.20141 0.19202 0.13375 0.0
C9 C 0.22135 0.12146 0.12691 0.0
C10 C 0.97484 0.09538 0.08904 0.0
C11 C 0.89337 0.1013 0.08415 0.0
N12 N 0.92507 0.15632 0.08153 0.0
C13 C 1.00659 0.15186 0.08601 0.0
C14 C 0.91777 0.0698 0.08786 0.0
C15 C 0.98069 0.18201 0.08235 0.0
C16 C 0.15292 0.08589 0.07273 0.0
N17 N 0.12979 0.10671 0.08406 0.0
C18 C 0.19588 0.19828 0.07527 0.0
C19 C 0.15073 0.16177 0.08564 0.0
C20 C 0.22022 0.17797 0.06331 0.0
C21 C 0.19873 0.12101 0.06228 0.0
H22 H 0.13533 0.042 0.07157 0.0
H23 H 0.13215 0.1774 0.0949 0.0
C24 C 0.94136 0.07806 0.14719 0.0
N25 N 0.98094 0.10179 0.13433 0.0
C26 C 0.92765 0.11002 0.15806 0.0
C27 C 0.99757 0.19086 0.14291 0.0
C28 C 0.00893 0.15713 0.13204 0.0
C29 C 0.95623 0.16753 0.1562 0.0
H30 H 0.92066 0.03428 0.14924 0.0
H31 H 0.04094 0.17533 0.12197 0.0
C32 C 0.04309 0.93634 0.09 0.0
N33 N 0.06289 0.85084 0.08407 0.0
C34 C 1.00143 0.886 0.0835 0.0
C35 C 0.09507 0.9434 0.0932 0.0
C36 C 0.01218 0.84322 0.08065 0.0
C37 C 0.1042 0.89963 0.0902 0.0
C38 C 0.90112 0.94203 0.1284 0.0
C39 C 0.88759 0.89389 0.13781 0.0
C40 C 0.86026 0.95495 0.12477 0.0
C41 C 0.83331 0.85908 0.14317 0.0
C42 C 0.80647 0.91912 0.13036 0.0
N43 N 0.79418 0.87227 0.13934 0.0
C44 C 0.07472 0.95721 0.14934 0.0
C45 C 0.0122 0.88186 0.13156 0.0
C46 C 0.08011 0.92188 0.16131 0.0
N47 N 0.04072 0.93669 0.13491 0.0
C48 C 0.01634 0.84516 0.14314 0.0
C49 C 0.04976 0.86489 0.15848 0.0
H50 H 0.09622 1.00086 0.15192 0.0
H51 H 0.98436 0.86631 0.1203 0.0
C52 C 0.90133 0.95433 0.0641 0.0
N53 N 0.90474 0.93704 0.0809 0.0
C54 C 0.85763 0.92054 0.05277 0.0
C55 C 0.82181 0.85182 0.0762 0.0
C56 C 0.86639 0.88656 0.08695 0.0
C57 C 0.81693 0.86834 0.05876 0.0
H58 H 0.93276 0.99434 0.05948 0.0
H59 H 0.87066 0.87267 0.10005 0.0
O60 O 0.07259 0.06457 0.12481 0.0
O61 O 0.99953 0.06521 0.09275 0.0
O62 O 0.03313 0.97859 0.09297 0.0
O63 O 0.95401 0.97609 0.12278 0.0
H64 H 0.11634 0.16937 0.13385 0.0
H65 H 0.15238 0.04143 0.1216 0.0
H66 H 0.21588 0.23441 0.13723 0.0
H67 H 0.2514 0.10867 0.12508 0.0
H68 H 0.84922 0.08195 0.08328 0.0
H69 H 0.05076 0.1724 0.08659 0.0
H70 H 0.89247 0.02603 0.08962 0.0
H71 H 1.00484 0.22582 0.08015 0.0
H72 H 0.21156 0.24197 0.07656 0.0
H73 H 0.21605 0.10376 0.05308 0.0
H74 H 0.89494 0.08951 0.16783 0.0
H75 H 0.02201 0.23483 0.14113 0.0
H76 H 0.96116 0.87984 0.08073 0.0
H77 H 0.1281 0.98223 0.0979 0.0
H78 H 0.98019 0.80397 0.07573 0.0
H79 H 0.14417 0.9045 0.09272 0.0
H80 H 0.91858 0.88344 0.14098 0.0
H81 H 0.87008 0.99259 0.11796 0.0
H82 H 0.8223 0.82161 0.15039 0.0
H83 H 0.77452 0.92868 0.12761 0.0
H84 H 0.10571 0.93884 0.1731 0.0
H85 H 0.99243 0.8016 0.14035 0.0
H86 H 0.85642 0.93486 0.03935 0.0
H87 H 0.79143 0.8124 0.08159 0.0
Li88 Li 0.99021 0.95498 0.43221 0.0
Li89 Li 0.05572 0.01848 0.45461 0.0
Li90 Li 0.95588 0.99229 0.45462 0.0
Li91 Li 0.01889 0.05509 0.43158 0.0
C92 C 0.97955 0.89277 0.45978 0.0
N93 N 0.96132 0.78678 0.46063 0.0
C94 C 0.02236 0.88318 0.46389 0.0
C95 C 0.92732 0.84837 0.45628 0.0
C96 C 0.01235 0.82932 0.46423 0.0
C97 C 0.91898 0.79513 0.45671 0.0
C98 C 0.11779 0.04786 0.42203 0.0
C99 C 0.2032 0.13282 0.41812 0.0
N100 N 0.22518 0.10497 0.40994 0.0
C101 C 0.14102 0.02024 0.41333 0.0
C102 C 0.14898 0.10472 0.42424 0.0
C103 C 0.19543 0.04976 0.40742 0.0
C104 C 0.92619 0.8667 0.40803 0.0
N105 N 0.97379 0.89261 0.41749 0.0
C106 C 1.00203 0.83175 0.40551 0.0
C107 C 0.01115 0.87559 0.41662 0.0
C108 C 0.95348 0.80454 0.39549 0.0
C109 C 0.91487 0.82189 0.39701 0.0
H110 H 0.89729 0.88117 0.40884 0.0
H111 H 0.04817 0.89624 0.42453 0.0
C112 C 0.11729 0.05035 0.48678 0.0
N113 N 0.11658 0.03287 0.46963 0.0
C114 C 0.1583 0.05684 0.49874 0.0
C115 C 0.19741 0.02775 0.47513 0.0
C116 C 0.15584 0.02206 0.46362 0.0
C117 C 0.1985 0.04447 0.49306 0.0
H118 H 0.08511 0.05789 0.4913 0.0
H119 H 0.15374 0.00688 0.45011 0.0
C120 C 0.89247 0.98067 0.4271 0.0
N121 N 0.78704 0.96369 0.42615 0.0
C122 C 0.8834 0.02328 0.42212 0.0
C123 C 0.84781 0.92924 0.43142 0.0
C124 C 0.82982 0.01392 0.42175 0.0
C125 C 0.79487 0.92153 0.43093 0.0
C126 C 0.04821 0.12002 0.46347 0.0
C127 C 0.01743 0.14424 0.46865 0.0
C128 C 0.10544 0.15083 0.46428 0.0
C129 C 0.04435 0.19919 0.47402 0.0
C130 C 0.13087 0.20563 0.46974 0.0
N131 N 0.10006 0.22853 0.47443 0.0
C132 C 0.87207 0.93077 0.48034 0.0
C133 C 0.87278 0.01019 0.46963 0.0
C134 C 0.82649 0.91753 0.49124 0.0
N135 N 0.89414 0.97635 0.46978 0.0
C136 C 0.82777 0.99904 0.48052 0.0
C137 C 0.8037 0.95201 0.49155 0.0
H138 H 0.88975 0.90448 0.48028 0.0
H139 H 0.89046 0.04576 0.46096 0.0
C140 C 0.05668 0.11371 0.39917 0.0
N141 N 0.03544 0.11492 0.41554 0.0
C142 C 0.06658 0.15348 0.38621 0.0
C143 C 0.03183 0.19497 0.407 0.0
C144 C 0.02336 0.15475 0.41968 0.0
C145 C 0.05309 0.19434 0.38985 0.0
H146 H 0.06503 0.08109 0.39603 0.0
H147 H 1.00491 0.15404 0.43253 0.0
O148 O 0.98885 0.94533 0.45901 0.0
O149 O 0.06448 0.01944 0.42794 0.0
O150 O 0.94476 0.98937 0.42784 0.0
O151 O 0.02235 0.06598 0.45834 0.0
H152 H 0.06294 0.91689 0.46672 0.0
H153 H 0.89371 0.85495 0.45304 0.0
H154 H 0.04518 0.82136 0.46732 0.0
H155 H 0.87887 0.76045 0.45388 0.0
H156 H 0.22771 0.17683 0.41978 0.0
H157 H 0.11746 0.97646 0.41117 0.0
H158 H 0.13123 0.12716 0.43026 0.0
H159 H 0.21397 0.02877 0.40079 0.0
H160 H 0.03252 0.81913 0.40476 0.0
H161 H 0.87714 0.80203 0.38937 0.0
H162 H 0.15703 0.06898 0.51252 0.0
H163 H 0.22765 0.0179 0.47017 0.0
H164 H 0.91732 0.06322 0.41863 0.0
H165 H 0.85399 0.89583 0.43536 0.0
H166 H 0.82227 0.04663 0.41799 0.0
H167 H 0.76002 0.88208 0.43439 0.0
H168 H 0.97321 0.12111 0.46841 0.0
H169 H 0.13016 0.13266 0.46093 0.0
H170 H 0.02094 0.21848 0.4779 0.0
H171 H 0.17512 0.22989 0.47034 0.0
H172 H 0.80913 0.88034 0.49919 0.0
H173 H 0.81263 0.02755 0.48042 0.0
H174 H 0.08373 0.15152 0.37333 0.0
H175 H 0.0196 0.22474 0.41036 0.0
Li176 Li 0.05233 0.99661 0.76623 0.0
Li177 Li 0.05678 0.06482 0.78786 0.0
Li178 Li 0.98255 0.96461 0.78931 0.0
Li179 Li 0.98144 0.02486 0.76545 0.0
C180 C 0.10599 0.98887 0.79314 0.0
N181 N 0.19303 0.96977 0.79244 0.0
C182 C 0.15976 0.03273 0.79419 0.0
C183 C 0.09645 0.93525 0.79187 0.0
C184 C 0.20323 0.02223 0.7938 0.0
C185 C 0.14101 0.92646 0.79149 0.0
C186 C 0.08233 0.12345 0.75518 0.0
C187 C 0.07532 0.20523 0.75335 0.0
N188 N 0.12187 0.22971 0.74321 0.0
C189 C 0.12977 0.14922 0.74455 0.0
C190 C 0.05465 0.15153 0.75947 0.0
C191 C 0.14923 0.20303 0.73871 0.0
C192 C 0.07723 0.92711 0.74475 0.0
N193 N 0.09719 0.97854 0.75155 0.0
C194 C 0.18331 0.00891 0.73681 0.0
C195 C 0.14935 0.01901 0.74799 0.0
C196 C 0.16366 0.95635 0.7295 0.0
C197 C 0.11017 0.9149 0.73377 0.0
H198 H 0.03561 0.89568 0.74769 0.0
H199 H 0.16452 0.05921 0.75384 0.0
C200 C 0.08993 0.12853 0.81956 0.0
N201 N 0.10423 0.12743 0.8021 0.0
C202 C 0.12509 0.17131 0.83094 0.0
C203 C 0.18893 0.21131 0.80614 0.0
C204 C 0.15251 0.16782 0.79524 0.0
C205 C 0.1758 0.21307 0.82434 0.0
H206 H 0.05164 0.09542 0.82474 0.0
H207 H 0.16371 0.16547 0.78148 0.0
C208 C 0.92881 0.89782 0.76199 0.0
N209 N 0.84063 0.79199 0.76082 0.0
C210 C 0.87809 0.88794 0.7556 0.0
C211 C 0.93478 0.85378 0.76763 0.0
C212 C 0.83399 0.83417 0.75514 0.0
C213 C 0.88969 0.80062 0.767 0.0
C214 C 0.94477 0.05302 0.79813 0.0
C215 C 0.88958 0.01805 0.80246 0.0
C216 C 0.96789 0.10956 0.80074 0.0
C217 C 0.8581 0.04022 0.80885 0.0
C218 C 0.93511 0.13018 0.80718 0.0
N219 N 0.88132 0.09538 0.81104 0.0
C220 C 0.96397 0.8907 0.818 0.0
C221 C 0.88274 0.87864 0.8045 0.0
C222 C 0.93344 0.84732 0.8299 0.0
N223 N 0.93836 0.90535 0.80557 0.0
C224 C 0.85061 0.83544 0.81623 0.0
C225 C 0.87581 0.81897 0.82918 0.0
H226 H 0.00822 0.91264 0.81866 0.0
H227 H 0.86316 0.89057 0.79444 0.0
C228 C 0.95861 0.05927 0.73282 0.0
N229 N 0.93692 0.03931 0.74936 0.0
C230 C 0.92804 0.06781 0.71983 0.0
C231 C 0.85259 0.03421 0.74094 0.0
C232 C 0.88503 0.02709 0.75364 0.0
C233 C 0.87375 0.05422 0.72364 0.0
H234 H 0.9995 0.06763 0.72954 0.0
H235 H 0.86788 0.00964 0.76662 0.0
O236 O 0.06299 0.99847 0.79297 0.0
O237 O 0.06288 0.0708 0.7611 0.0
O238 O 0.97232 0.95029 0.76267 0.0
O239 O 0.97644 0.03182 0.79213 0.0
H240 H 0.16791 0.07447 0.79512 0.0
H241 H 0.05512 0.90084 0.79099 0.0
H242 H 0.24507 0.05582 0.79451 0.0
H243 H 0.13424 0.88521 0.79039 0.0
H244 H 0.05419 0.22734 0.75659 0.0
H245 H 0.15145 0.12804 0.74085 0.0
H246 H 0.01703 0.13169 0.76712 0.0
H247 H 0.18605 0.22353 0.73056 0.0
H248 H 0.22459 0.04176 0.73396 0.0
H249 H 0.09355 0.87395 0.72828 0.0
H250 H 0.11366 0.17043 0.84494 0.0
H251 H 0.22744 0.24269 0.80046 0.0
H252 H 0.87276 0.92137 0.75104 0.0
H253 H 0.97354 0.86063 0.77276 0.0
H254 H 0.79447 0.82597 0.75028 0.0
H255 H 0.89363 0.76625 0.77148 0.0
H256 H 0.87095 0.97428 0.80073 0.0
H257 H 0.01079 0.13742 0.79798 0.0
H258 H 0.81522 0.01355 0.81207 0.0
H259 H 0.95252 0.17385 0.80917 0.0
H260 H 0.95493 0.83589 0.83943 0.0
H261 H 0.80643 0.81571 0.81528 0.0
H262 H 0.94659 0.08402 0.70682 0.0
H263 H 0.81065 0.02193 0.74443 0.0
Mg264 Mg 0.98649 0.50225 0.27645 0.0
C265 C 0.99998 0.42431 0.29768 0.0
O266 O 0.94919 0.39929 0.29185 0.0
C267 C 1.0021 0.59653 0.25589 0.0
O268 O 0.95255 0.57381 0.26284 0.0
C269 C 0.93694 0.43739 0.24127 0.0
O270 O 0.952 0.48577 0.23432 0.0
O271 O 0.94159 0.43315 0.25815 0.0
O272 O 0.03134 0.47436 0.29328 0.0
O273 O 0.9392 0.52385 0.29477 0.0
C274 C 0.93783 0.5179 0.3118 0.0
O275 O 0.95834 0.48946 0.3189 0.0
O276 O 0.03154 0.57513 0.25942 0.0
Mg277 Mg 0.49547 0.9786 0.61087 0.0
C278 C 0.41681 0.99007 0.58938 0.0
O279 O 0.39201 0.9398 0.59578 0.0
C280 C 0.58751 0.99376 0.63193 0.0
O281 O 0.56148 0.94257 0.62638 0.0
C282 C 0.43243 0.93383 0.64644 0.0
O283 O 0.48192 0.95707 0.65331 0.0
O284 O 0.42692 0.93213 0.6294 0.0
O285 O 0.46657 0.02215 0.59382 0.0
O286 O 0.51926 0.93285 0.59262 0.0
C287 C 0.51205 0.93017 0.57565 0.0
O288 O 0.48119 0.94802 0.56866 0.0
O289 O 0.56878 0.02481 0.62737 0.0
Mg290 Mg 0.52539 0.52157 0.94501 0.0
C291 C 0.44523 0.44331 0.92015 0.0
O292 O 0.46738 0.41787 0.92833 0.0
C293 C 0.52754 0.59194 0.97672 0.0
O294 O 0.49095 0.54413 0.98335 0.0
C295 C 0.51133 0.44726 0.97891 0.0
O296 O 0.55786 0.48726 0.98516 0.0
O297 O 0.49457 0.45206 0.96352 0.0
O298 O 0.4613 0.49286 0.92452 0.0
O299 O 0.60313 0.54859 0.93097 0.0
C300 C 0.60658 0.53495 0.91486 0.0
O301 O 0.56263 0.49571 0.90706 0.0
O302 O 0.54302 0.59454 0.96044 0.0
H303 H 0.91961 0.14799 0.19145 0.0
H304 H 0.96563 0.268 0.14885 0.0
H305 H 0.90226 0.20572 0.21127 0.0
H306 H 0.95441 0.32854 0.16936 0.0
H307 H 0.90421 0.42172 0.20601 0.0
H308 H 0.89924 0.35184 0.18538 0.0
H309 H 0.94696 0.28201 0.2287 0.0
H310 H 0.94797 0.34913 0.24932 0.0
C311 C 0.92595 0.18653 0.18618 0.0
C312 C 0.94439 0.20291 0.16838 0.0
C313 C 0.91697 0.22045 0.19779 0.0
C314 C 0.92754 0.2726 0.19218 0.0
C315 C 0.94505 0.28861 0.17428 0.0
C316 C 0.95272 0.25408 0.16252 0.0
C317 C 0.91243 0.39059 0.21113 0.0
C318 C 0.92644 0.39098 0.22929 0.0
C319 C 0.91029 0.3508 0.19926 0.0
C320 C 0.9234 0.31121 0.20516 0.0
C321 C 0.93558 0.3108 0.22353 0.0
C322 C 0.93645 0.3497 0.23545 0.0
H323 H 0.77876 0.90317 0.52505 0.0
H324 H 0.71945 0.97248 0.48521 0.0
H325 H 0.7025 0.88535 0.54466 0.0
H326 H 0.64628 0.95938 0.50548 0.0
H327 H 0.49807 0.90433 0.5398 0.0
H328 H 0.5634 0.89988 0.51923 0.0
H329 H 0.67354 0.93071 0.5638 0.0
H330 H 0.60694 0.9319 0.58434 0.0
C331 C 0.74946 0.91449 0.52037 0.0
C332 C 0.75589 0.93966 0.50346 0.0
C333 C 0.70596 0.90501 0.53182 0.0
C334 C 0.66805 0.92124 0.52685 0.0
C335 C 0.67393 0.9455 0.5098 0.0
C336 C 0.71685 0.9541 0.49824 0.0
C337 C 0.53579 0.90896 0.54522 0.0
C338 C 0.54735 0.91866 0.56368 0.0
C339 C 0.57365 0.90706 0.53339 0.0
C340 C 0.62453 0.91588 0.53969 0.0
C341 C 0.63478 0.92304 0.55835 0.0
C342 C 0.5965 0.92393 0.5702 0.0
H343 H 0.77814 0.72461 0.82264 0.0
H344 H 0.89677 0.80886 0.86474 0.0
H345 H 0.71968 0.65381 0.8439 0.0
H346 H 0.84014 0.73568 0.8857 0.0
H347 H 0.6897 0.63835 0.9228 0.0
H348 H 0.759 0.70367 0.9023 0.0
H349 H 0.70459 0.57817 0.86122 0.0
H350 H 0.6334 0.51353 0.88155 0.0
C351 C 0.79204 0.72798 0.8364 0.0
C352 C 0.84208 0.77313 0.84193 0.0
C353 C 0.75882 0.68661 0.84859 0.0
C354 C 0.77492 0.68868 0.86663 0.0
C355 C 0.82583 0.7329 0.87202 0.0
C356 C 0.8588 0.77466 0.85987 0.0
C357 C 0.69314 0.62435 0.90951 0.0
C358 C 0.65557 0.57083 0.90376 0.0
C359 C 0.73317 0.66191 0.8977 0.0
C360 C 0.73715 0.64671 0.87991 0.0
C361 C 0.70191 0.59195 0.87462 0.0
C362 C 0.66139 0.55461 0.88635 0.0
H363 H 0.96064 0.77195 0.17085 0.0
H364 H 0.13618 0.87019 0.17746 0.0
H365 H 0.95648 0.71051 0.1945 0.0
H366 H 0.13165 0.80845 0.20162 0.0
H367 H 0.08717 0.63774 0.23108 0.0
H368 H 0.10444 0.70514 0.20718 0.0
H369 H 0.97234 0.72536 0.22794 0.0
H370 H 0.95517 0.65905 0.25148 0.0
C371 C 0.99853 0.78006 0.17718 0.0
C372 C 0.04876 0.826 0.17223 0.0
C373 C 0.99604 0.74512 0.19088 0.0
C374 C 0.04367 0.75501 0.20003 0.0
C375 C 0.09433 0.79987 0.19477 0.0
C376 C 0.09681 0.83533 0.18107 0.0
C377 C 0.06256 0.65738 0.23066 0.0
C378 C 0.01929 0.64245 0.243 0.0
C379 C 0.07241 0.69585 0.21701 0.0
C380 C 0.03896 0.71959 0.21552 0.0
C381 C 0.99795 0.70681 0.2285 0.0
C382 C 0.98827 0.66885 0.24204 0.0
H383 H 0.22811 0.96665 0.49659 0.0
H384 H 0.25732 0.12029 0.51937 0.0
H385 H 0.28564 0.9601 0.51964 0.0
H386 H 0.31485 0.11315 0.54275 0.0
H387 H 0.45464 0.08794 0.57089 0.0
H388 H 0.4065 0.10723 0.54692 0.0
H389 H 0.26631 0.94504 0.55361 0.0
H390 H 0.31312 0.92593 0.57729 0.0
C391 C 0.24763 0.99959 0.50632 0.0
C392 C 0.23801 0.04395 0.50616 0.0
C393 C 0.28025 0.99558 0.51961 0.0
C394 C 0.30431 0.03592 0.53305 0.0
C395 C 0.29686 0.08161 0.53251 0.0
C396 C 0.26364 0.0854 0.51924 0.0
C397 C 0.41338 0.05674 0.56732 0.0
C398 C 0.38799 0.00525 0.57591 0.0
C399 C 0.38591 0.06779 0.55364 0.0
C400 C 0.33306 0.02725 0.54826 0.0
C401 C 0.30738 0.97666 0.55725 0.0
C402 C 0.33431 0.96588 0.57091 0.0
H403 H 0.15789 0.26943 0.85137 0.0
H404 H 0.28594 0.25189 0.8255 0.0
H405 H 0.22403 0.33108 0.87371 0.0
H406 H 0.35168 0.31409 0.84744 0.0
H407 H 0.42189 0.34719 0.90444 0.0
H408 H 0.35812 0.29854 0.88034 0.0
H409 H 0.3141 0.42477 0.87797 0.0
H410 H 0.37902 0.47449 0.90246 0.0
C411 C 0.20018 0.2792 0.85032 0.0
C412 C 0.21652 0.25542 0.83671 0.0
C413 C 0.23808 0.3149 0.86299 0.0
C414 C 0.29286 0.32702 0.86238 0.0
C415 C 0.30958 0.30507 0.84834 0.0
C416 C 0.27195 0.26977 0.83566 0.0
C417 C 0.39884 0.36494 0.89886 0.0
C418 C 0.40566 0.41486 0.90539 0.0
C419 C 0.36249 0.3371 0.88491 0.0
C420 C 0.33153 0.35809 0.87714 0.0
C421 C 0.33755 0.40771 0.88374 0.0
C422 C 0.37473 0.43617 0.89768 0.0
H423 H 0.87345 0.0315 0.68773 0.0
H424 H 0.79293 0.08188 0.72676 0.0
H425 H 0.81152 0.02809 0.6646 0.0
H426 H 0.72847 0.07519 0.7036 0.0
H427 H 0.63892 0.08683 0.65318 0.0
H428 H 0.71377 0.11058 0.67465 0.0
H429 H 0.71647 0.96375 0.65946 0.0
H430 H 0.64368 0.94099 0.63813 0.0
C431 C 0.84312 0.04269 0.69139 0.0
C432 C 0.83825 0.0567 0.70924 0.0
C433 C 0.80702 0.04002 0.67811 0.0
C434 C 0.76448 0.05057 0.68229 0.0
C435 C 0.76089 0.06697 0.69991 0.0
C436 C 0.79739 0.07003 0.71324 0.0
C437 C 0.65621 0.06023 0.65432 0.0
C438 C 0.63531 0.01202 0.64398 0.0
C439 C 0.69872 0.07357 0.66668 0.0
C440 C 0.72131 0.0392 0.66872 0.0
C441 C 0.70088 0.99174 0.65806 0.0
C442 C 0.65864 0.97842 0.64588 0.0
H443 H 0.7612 0.89461 0.03389 0.0
H444 H 0.7672 0.75622 0.05641 0.0
H445 H 0.68577 0.83214 0.01436 0.0
H446 H 0.69095 0.69439 0.03747 0.0
H447 H 0.52389 0.59237 0.01352 0.0
H448 H 0.59004 0.66244 0.03372 0.0
H449 H 0.67277 0.76708 0.98818 0.0
H450 H 0.60666 0.69692 0.96785 0.0
C451 C 0.74668 0.85107 0.03471 0.0
C452 C 0.77042 0.83068 0.04688 0.0
C453 C 0.70321 0.81531 0.02358 0.0
C454 C 0.68203 0.75835 0.02454 0.0
C455 C 0.70556 0.73799 0.0367 0.0
C456 C 0.74932 0.77361 0.04761 0.0
C457 C 0.55538 0.63073 1.00779 0.0
C458 C 0.56026 0.63871 0.98902 0.0
C459 C 0.59353 0.67072 0.01938 0.0
C460 C 0.63704 0.71986 1.0125 0.0
C461 C 0.63965 0.72962 0.99387 0.0
C462 C 0.60179 0.68935 0.98223 0.0
H463 H 0.86581 0.70005 0.39425 0.0
H464 H 0.02076 0.80858 0.36853 0.0
H465 H 0.85244 0.6258 0.37362 0.0
H466 H 0.00682 0.73517 0.34772 0.0
H467 H 0.93382 0.60941 0.30225 0.0
H468 H 0.9313 0.67674 0.32241 0.0
H469 H 0.91182 0.574 0.36809 0.0
H470 H 0.91557 0.50678 0.34799 0.0
C471 C 0.89668 0.70799 0.3841 0.0
C472 C 0.94438 0.75979 0.38296 0.0
C473 C 0.88911 0.66567 0.37238 0.0
C474 C 0.92845 0.67505 0.35905 0.0
C475 C 0.97566 0.72712 0.35777 0.0
C476 C 0.98381 0.7689 0.36972 0.0
C477 C 0.92779 0.60045 0.31654 0.0
C478 C 0.92525 0.55285 0.32354 0.0
C479 C 0.92667 0.6392 0.32806 0.0
C480 C 0.92179 0.63062 0.34676 0.0
C481 C 0.91548 0.58141 0.3537 0.0
C482 C 0.9177 0.54307 0.3422 0.0
H483 H 0.18858 0.87427 0.73138 0.0
H484 H 0.21671 0.01408 0.69951 0.0
H485 H 0.24827 0.85851 0.71096 0.0
H486 H 0.27533 0.99787 0.67901 0.0
H487 H 0.33371 0.92215 0.63672 0.0
H488 H 0.26381 0.92051 0.6567 0.0
H489 H 0.35427 0.91734 0.70296 0.0
H490 H 0.42493 0.91987 0.68302 0.0
C491 C 0.20718 0.90124 0.71993 0.0
C492 C 0.19835 0.94551 0.71702 0.0
C493 C 0.24131 0.89233 0.70831 0.0
C494 C 0.26604 0.92677 0.69337 0.0
C495 C 0.25628 0.97035 0.69032 0.0
C496 C 0.22317 0.9799 0.7021 0.0
C497 C 0.3382 0.91986 0.65113 0.0
C498 C 0.38514 0.92156 0.65829 0.0
C499 C 0.29831 0.91928 0.66255 0.0
C500 C 0.30399 0.91934 0.68134 0.0
C501 C 0.34888 0.91716 0.68851 0.0
C502 C 0.38932 0.9187 0.67709 0.0
H503 H 0.31849 0.18245 0.0572 0.0
H504 H 0.22449 0.25882 0.04224 0.0
H505 H 0.39261 0.24472 0.03675 0.0
H506 H 0.29782 0.32014 0.02176 0.0
H507 H 0.40592 0.36862 0.97162 0.0
H508 H 0.3382 0.30197 0.99229 0.0
H509 H 0.46054 0.35455 0.03394 0.0
H510 H 0.52902 0.42265 0.01327 0.0
C511 C 0.31374 0.21248 0.04954 0.0
C512 C 0.26584 0.21593 0.05131 0.0
C513 C 0.35613 0.24816 0.03794 0.0
C514 C 0.35072 0.28696 0.02764 0.0
C515 C 0.30285 0.29032 0.02946 0.0
C516 C 0.26109 0.25551 0.04125 0.0
C517 C 0.41891 0.3658 0.98509 0.0
C518 C 0.47299 0.40151 0.99081 0.0
C519 C 0.37989 0.32767 0.99694 0.0
C520 C 0.39402 0.32358 0.01474 0.0
C521 C 0.44867 0.35694 0.02026 0.0
C522 C 0.48777 0.39589 1.00844 0.0
H523 H 0.08109 0.30301 0.39306 0.0
H524 H 0.0332 0.17333 0.35379 0.0
H525 H 0.07633 0.36184 0.36982 0.0
H526 H 0.03173 0.23291 0.3306 0.0
H527 H 0.94682 0.3149 0.30354 0.0
H528 H 0.96803 0.26394 0.325 0.0
H529 H 0.11369 0.41316 0.3411 0.0
H530 H 0.09151 0.46522 0.31949 0.0
C531 C 0.07021 0.2872 0.37948 0.0
C532 C 0.05697 0.23303 0.37543 0.0
C533 C 0.06827 0.32126 0.3661 0.0
C534 C 0.05309 0.30191 0.34838 0.0
C535 C 0.04271 0.24886 0.34417 0.0
C536 C 0.04427 0.21482 0.3575 0.0
C537 C 0.98367 0.33712 0.31152 0.0
C538 C 0.01739 0.39424 0.30983 0.0
C539 C 0.99611 0.30765 0.32377 0.0
C540 C 0.04277 0.3343 0.33472 0.0
C541 C 0.07727 0.39147 0.3329 0.0
C542 C 0.06484 0.4212 0.32046 0.0
loop_
_geom_bond_atom_site_label_1
_geom_bond_atom_site_label_2
_geom_bond_distance
_geom_bond_site_symmetry_2
_ccdc_geom_bond_type
Li0 N17 1.990 . S
Li0 O60 1.956 . S
Li0 O61 1.970 1_455 S
Li0 O62 1.961 1_545 S
Li1 N25 1.990 . S
Li1 O60 1.970 1_655 S
Li1 O61 1.956 . S
Li1 O63 1.961 1_545 S
Li2 N47 1.990 . S
Li2 O60 1.961 1_565 S
Li2 O62 1.956 . S
Li2 O63 1.970 1_455 S
Li3 N53 1.990 . S
Li3 O61 1.961 1_565 S
Li3 O62 1.970 1_655 S
Li3 O63 1.956 . S
C4 C6 1.348 . S
C4 C7 1.356 . S
C4 O60 1.325 . S
N5 C8 1.314 . S
N5 C9 1.279 . S
C6 C4 1.348 . S
C6 C8 1.353 . S
C6 H64 0.929 . S
C7 C4 1.356 . S
C7 C9 1.358 . S
C7 H65 0.930 . S
C8 N5 1.314 . S
C8 C6 1.353 . S
C8 H66 0.930 . S
C9 N5 1.279 . S
C9 C7 1.358 . S
C9 H67 0.930 . S
C10 C13 1.348 1_655 S
C10 C14 1.356 . S
C10 O61 1.325 . S
C11 N12 1.279 . S
C11 C14 1.358 . S
C11 H68 0.930 . S
N12 C11 1.279 . S
N12 C15 1.314 . S
C13 C10 1.348 1_455 S
C13 C15 1.353 1_455 S
C13 H69 0.929 . S
C14 C10 1.356 . S
C14 C11 1.358 . S
C14 H70 0.930 . S
C15 N12 1.314 . S
C15 C13 1.353 1_655 S
C15 H71 0.930 1_655 S
C16 N17 1.314 . S
C16 C21 1.353 . S
C16 H22 0.930 . S
N17 Li0 1.990 . S
N17 C16 1.314 . S
N17 C19 1.279 . S
C18 C19 1.358 . S
C18 C20 1.356 . S
C18 H72 0.930 . S
C19 N17 1.279 . S
C19 C18 1.358 . S
C19 H23 0.930 . S
C20 C18 1.356 . S
C20 C21 1.348 . S
C21 C16 1.353 . S
C21 C20 1.348 . S
C21 H73 0.929 . S
H22 C16 0.930 . S
H23 C19 0.930 . S
C24 N25 1.314 . S
C24 C26 1.353 . S
C24 H30 0.930 . S
N25 Li1 1.990 . S
N25 C24 1.314 . S
N25 C28 1.279 . S
C26 C24 1.353 . S
C26 C29 1.348 . S
C26 H74 0.929 . S
C27 C28 1.358 . S
C27 C29 1.356 . S
C27 H75 0.930 . S
C28 N25 1.279 . S
C28 C27 1.358 . S
C28 H31 0.930 . S
C29 C26 1.348 . S
C29 C27 1.356 . S
H30 C24 0.930 . S
H31 C28 0.930 . S
C32 C34 1.348 1_455 S
C32 C35 1.356 . S
C32 O62 1.325 . S
N33 C36 1.314 . S
N33 C37 1.279 . S
C34 C32 1.348 1_655 S
C34 C36 1.353 1_655 S
C34 H76 0.929 . S
C35 C32 1.356 . S
C35 C37 1.358 . S
C35 H77 0.930 . S
C36 N33 1.314 . S
C36 C34 1.353 1_455 S
C36 H78 0.930 1_455 S
C37 N33 1.279 . S
C37 C35 1.358 . S
C37 H79 0.930 . S
C38 C39 1.348 . S
C38 C40 1.356 . S
C38 O63 1.325 . S
C39 C38 1.348 . S
C39 C41 1.353 . S
C39 H80 0.929 . S
C40 C38 1.356 . S
C40 C42 1.358 . S
C40 H81 0.930 . S
C41 C39 1.353 . S
C41 N43 1.314 . S
C41 H82 0.930 . S
C42 C40 1.358 . S
C42 N43 1.279 . S
C42 H83 0.930 . S
N43 C41 1.314 . S
N43 C42 1.279 . S
C44 C46 1.353 . S
C44 N47 1.314 . S
C44 H50 0.930 . S
C45 N47 1.279 . S
C45 C48 1.358 . S
C45 H51 0.930 . S
C46 C44 1.353 . S
C46 C49 1.348 . S
C46 H84 0.929 . S
N47 Li2 1.990 . S
N47 C44 1.314 . S
N47 C45 1.279 . S
C48 C45 1.358 . S
C48 C49 1.356 . S
C48 H85 0.930 . S
C49 C46 1.348 . S
C49 C48 1.356 . S
H50 C44 0.930 . S
H51 C45 0.930 . S
C52 N53 1.314 . S
C52 C54 1.353 . S
C52 H58 0.930 . S
N53 Li3 1.990 . S
N53 C52 1.314 . S
N53 C56 1.279 . S
C54 C52 1.353 . S
C54 C57 1.348 . S
C54 H86 0.929 . S
C55 C56 1.358 . S
C55 C57 1.356 . S
C55 H87 0.930 . S
C56 N53 1.279 . S
C56 C55 1.358 . S
C56 H59 0.930 . S
C57 C54 1.348 . S
C57 C55 1.356 . S
H58 C52 0.930 . S
H59 C56 0.930 . S
O60 Li0 1.956 . S
O60 Li1 1.970 1_455 S
O60 Li2 1.961 1_545 S
O60 C4 1.325 . S
O61 Li0 1.970 1_655 S
O61 Li1 1.956 . S
O61 Li3 1.961 1_545 S
O61 C10 1.325 . S
O62 Li0 1.961 1_565 S
O62 Li2 1.956 . S
O62 Li3 1.970 1_455 S
O62 C32 1.325 . S
O63 Li1 1.961 1_565 S
O63 Li2 1.970 1_655 S
O63 Li3 1.956 . S
O63 C38 1.325 . S
H64 C6 0.929 . S
H65 C7 0.930 . S
H66 C8 0.930 . S
H67 C9 0.930 . S
H68 C11 0.930 . S
H69 C13 0.929 . S
H70 C14 0.930 . S
H71 C15 0.930 1_455 S
H72 C18 0.930 . S
H73 C21 0.929 . S
H74 C26 0.929 . S
H75 C27 0.930 . S
H76 C34 0.929 . S
H77 C35 0.930 . S
H78 C36 0.930 1_655 S
H79 C37 0.930 . S
H80 C39 0.929 . S
H81 C40 0.930 . S
H82 C41 0.930 . S
H83 C42 0.930 . S
H84 C46 0.929 . S
H85 C48 0.930 . S
H86 C54 0.929 . S
H87 C55 0.930 . S
Li88 N105 1.990 . S
Li88 O148 1.956 . S
Li88 O149 1.970 1_665 S
Li88 O150 1.961 . S
Li89 N113 1.990 . S
Li89 O148 1.970 1_445 S
Li89 O149 1.956 . S
Li89 O151 1.961 . S
Li90 N135 1.990 . S
Li90 O148 1.961 . S
Li90 O150 1.956 . S
Li90 O151 1.970 1_665 S
Li91 N141 1.990 . S
Li91 O149 1.961 . S
Li91 O150 1.970 1_445 S
Li91 O151 1.956 . S
C92 C94 1.348 1_655 S
C92 C95 1.356 . S
C92 O148 1.325 . S
N93 C96 1.314 . S
N93 C97 1.279 . S
C94 C92 1.348 1_455 S
C94 C96 1.353 1_455 S
C94 H152 0.929 . S
C95 C92 1.356 . S
C95 C97 1.358 . S
C95 H153 0.930 . S
C96 N93 1.314 . S
C96 C94 1.353 1_655 S
C96 H154 0.930 1_655 S
C97 N93 1.279 . S
C97 C95 1.358 . S
C97 H155 0.930 . S
C98 C101 1.348 1_545 S
C98 C102 1.356 . S
C98 O149 1.325 . S
C99 N100 1.279 . S
C99 C102 1.358 . S
C99 H156 0.930 . S
N100 C99 1.279 . S
N100 C103 1.314 . S
C101 C98 1.348 1_565 S
C101 C103 1.353 1_565 S
C101 H157 0.929 . S
C102 C98 1.356 . S
C102 C99 1.358 . S
C102 H158 0.930 . S
C103 N100 1.314 . S
C103 C101 1.353 1_545 S
C103 H159 0.930 1_545 S
C104 N105 1.314 . S
C104 C109 1.353 . S
C104 H110 0.930 . S
N105 Li88 1.990 . S
N105 C104 1.314 . S
N105 C107 1.279 . S
C106 C107 1.358 . S
C106 C108 1.356 . S
C106 H160 0.930 . S
C107 N105 1.279 . S
C107 C106 1.358 . S
C107 H111 0.930 . S
C108 C106 1.356 . S
C108 C109 1.348 . S
C109 C104 1.353 . S
C109 C108 1.348 . S
C109 H161 0.929 . S
H110 C104 0.930 . S
H111 C107 0.930 . S
C112 N113 1.314 . S
C112 C114 1.353 . S
C112 H118 0.930 . S
N113 Li89 1.990 . S
N113 C112 1.314 . S
N113 C116 1.279 . S
C114 C112 1.353 . S
C114 C117 1.348 . S
C114 H162 0.929 . S
C115 C116 1.358 . S
C115 C117 1.356 . S
C115 H163 0.930 . S
C116 N113 1.279 . S
C116 C115 1.358 . S
C116 H119 0.930 . S
C117 C114 1.348 . S
C117 C115 1.356 . S
H118 C112 0.930 . S
H119 C116 0.930 . S
C120 C122 1.348 1_565 S
C120 C123 1.356 . S
C120 O150 1.325 . S
N121 C124 1.314 . S
N121 C125 1.279 . S
C122 C120 1.348 1_545 S
C122 C124 1.353 1_545 S
C122 H164 0.929 . S
C123 C120 1.356 . S
C123 C125 1.358 . S
C123 H165 0.930 . S
C124 N121 1.314 . S
C124 C122 1.353 1_565 S
C124 H166 0.930 1_565 S
C125 N121 1.279 . S
C125 C123 1.358 . S
C125 H167 0.930 . S
C126 C127 1.348 1_455 S
C126 C128 1.356 . S
C126 O151 1.325 . S
C127 C126 1.348 1_655 S
C127 C129 1.353 1_655 S
C127 H168 0.929 . S
C128 C126 1.356 . S
C128 C130 1.358 . S
C128 H169 0.930 . S
C129 C127 1.353 1_455 S
C129 N131 1.314 . S
C129 H170 0.930 1_455 S
C130 C128 1.358 . S
C130 N131 1.279 . S
C130 H171 0.930 . S
N131 C129 1.314 . S
N131 C130 1.279 . S
C132 C134 1.353 . S
C132 N135 1.314 . S
C132 H138 0.930 . S
C133 N135 1.279 . S
C133 C136 1.358 . S
C133 H139 0.930 . S
C134 C132 1.353 . S
C134 C137 1.348 . S
C134 H172 0.929 . S
N135 Li90 1.990 . S
N135 C132 1.314 . S
N135 C133 1.279 . S
C136 C133 1.358 . S
C136 C137 1.356 . S
C136 H173 0.930 . S
C137 C134 1.348 . S
C137 C136 1.356 . S
H138 C132 0.930 . S
H139 C133 0.930 . S
C140 N141 1.314 . S
C140 C142 1.353 . S
C140 H146 0.930 . S
N141 Li91 1.990 . S
N141 C140 1.314 . S
N141 C144 1.279 . S
C142 C140 1.353 . S
C142 C145 1.348 . S
C142 H174 0.929 . S
C143 C144 1.358 . S
C143 C145 1.356 . S
C143 H175 0.930 . S
C144 N141 1.279 . S
C144 C143 1.358 . S
C144 H147 0.930 . S
C145 C142 1.348 . S
C145 C143 1.356 . S
H146 C140 0.930 . S
H147 C144 0.930 . S
O148 Li88 1.956 . S
O148 Li89 1.970 1_665 S
O148 Li90 1.961 . S
O148 C92 1.325 . S
O149 Li88 1.970 1_445 S
O149 Li89 1.956 . S
O149 Li91 1.961 . S
O149 C98 1.325 . S
O150 Li88 1.961 . S
O150 Li90 1.956 . S
O150 Li91 1.970 1_665 S
O150 C120 1.325 . S
O151 Li89 1.961 . S
O151 Li90 1.970 1_445 S
O151 Li91 1.956 . S
O151 C126 1.325 . S
H152 C94 0.929 . S
H153 C95 0.930 . S
H154 C96 0.930 1_455 S
H155 C97 0.930 . S
H156 C99 0.930 . S
H157 C101 0.929 . S
H158 C102 0.930 . S
H159 C103 0.930 1_565 S
H160 C106 0.930 . S
H161 C109 0.929 . S
H162 C114 0.929 . S
H163 C115 0.930 . S
H164 C122 0.929 . S
H165 C123 0.930 . S
H166 C124 0.930 1_545 S
H167 C125 0.930 . S
H168 C127 0.929 . S
H169 C128 0.930 . S
H170 C129 0.930 1_655 S
H171 C130 0.930 . S
H172 C134 0.929 . S
H173 C136 0.930 . S
H174 C142 0.929 . S
H175 C143 0.930 . S
Li176 N193 1.990 . S
Li176 O236 1.956 . S
Li176 O237 1.970 1_565 S
Li176 O238 1.961 1_455 S
Li177 N201 1.990 . S
Li177 O236 1.970 1_545 S
Li177 O237 1.956 . S
Li177 O239 1.961 1_455 S
Li178 N223 1.990 . S
Li178 O236 1.961 1_655 S
Li178 O238 1.956 . S
Li178 O239 1.970 1_565 S
Li179 N229 1.990 . S
Li179 O237 1.961 1_655 S
Li179 O238 1.970 1_545 S
Li179 O239 1.956 . S
C180 C182 1.348 1_565 S
C180 C183 1.356 . S
C180 O236 1.325 . S
N181 C184 1.314 . S
N181 C185 1.279 . S
C182 C180 1.348 1_545 S
C182 C184 1.353 1_545 S
C182 H240 0.929 . S
C183 C180 1.356 . S
C183 C185 1.358 . S
C183 H241 0.930 . S
C184 N181 1.314 . S
C184 C182 1.353 1_565 S
C184 H242 0.930 1_565 S
C185 N181 1.279 . S
C185 C183 1.358 . S
C185 H243 0.930 . S
C186 C189 1.348 . S
C186 C190 1.356 . S
C186 O237 1.325 . S
C187 N188 1.279 . S
C187 C190 1.358 . S
C187 H244 0.930 . S
N188 C187 1.279 . S
N188 C191 1.314 . S
C189 C186 1.348 . S
C189 C191 1.353 . S
C189 H245 0.929 . S
C190 C186 1.356 . S
C190 C187 1.358 . S
C190 H246 0.930 . S
C191 N188 1.314 . S
C191 C189 1.353 . S
C191 H247 0.930 . S
C192 N193 1.314 . S
C192 C197 1.353 . S
C192 H198 0.930 . S
N193 Li176 1.990 . S
N193 C192 1.314 . S
N193 C195 1.279 . S
C194 C195 1.358 . S
C194 C196 1.356 . S
C194 H248 0.930 . S
C195 N193 1.279 . S
C195 C194 1.358 . S
C195 H199 0.930 . S
C196 C194 1.356 . S
C196 C197 1.348 . S
C197 C192 1.353 . S
C197 C196 1.348 . S
C197 H249 0.929 . S
H198 C192 0.930 . S
H199 C195 0.930 . S
C200 N201 1.314 . S
C200 C202 1.353 . S
C200 H206 0.930 . S
N201 Li177 1.990 . S
N201 C200 1.314 . S
N201 C204 1.279 . S
C202 C200 1.353 . S
C202 C205 1.348 . S
C202 H250 0.929 . S
C203 C204 1.358 . S
C203 C205 1.356 . S
C203 H251 0.930 . S
C204 N201 1.279 . S
C204 C203 1.358 . S
C204 H207 0.930 . S
C205 C202 1.348 . S
C205 C203 1.356 . S
H206 C200 0.930 . S
H207 C204 0.930 . S
C208 C210 1.348 . S
C208 C211 1.356 . S
C208 O238 1.325 . S
N209 C212 1.314 . S
N209 C213 1.279 . S
C210 C208 1.348 . S
C210 C212 1.353 . S
C210 H252 0.929 . S
C211 C208 1.356 . S
C211 C213 1.358 . S
C211 H253 0.930 . S
C212 N209 1.314 . S
C212 C210 1.353 . S
C212 H254 0.930 . S
C213 N209 1.279 . S
C213 C211 1.358 . S
C213 H255 0.930 . S
C214 C215 1.348 1_545 S
C214 C216 1.356 . S
C214 O239 1.325 . S
C215 C214 1.348 1_565 S
C215 C217 1.353 1_565 S
C215 H256 0.929 . S
C216 C214 1.356 . S
C216 C218 1.358 . S
C216 H257 0.930 . S
C217 C215 1.353 1_545 S
C217 N219 1.314 . S
C217 H258 0.930 1_545 S
C218 C216 1.358 . S
C218 N219 1.279 . S
C218 H259 0.930 . S
N219 C217 1.314 . S
N219 C218 1.279 . S
C220 C222 1.353 . S
C220 N223 1.314 . S
C220 H226 0.930 . S
C221 N223 1.279 . S
C221 C224 1.358 . S
C221 H227 0.930 . S
C222 C220 1.353 . S
C222 C225 1.348 . S
C222 H260 0.929 . S
N223 Li178 1.990 . S
N223 C220 1.314 . S
N223 C221 1.279 . S
C224 C221 1.358 . S
C224 C225 1.356 . S
C224 H261 0.930 . S
C225 C222 1.348 . S
C225 C224 1.356 . S
H226 C220 0.930 . S
H227 C221 0.930 . S
C228 N229 1.314 . S
C228 C230 1.353 . S
C228 H234 0.930 . S
N229 Li179 1.990 . S
N229 C228 1.314 . S
N229 C232 1.279 . S
C230 C228 1.353 . S
C230 C233 1.348 . S
C230 H262 0.929 . S
C231 C232 1.358 . S
C231 C233 1.356 . S
C231 H263 0.930 . S
C232 N229 1.279 . S
C232 C231 1.358 . S
C232 H235 0.930 . S
C233 C230 1.348 . S
C233 C231 1.356 . S
H234 C228 0.930 . S
H235 C232 0.930 . S
O236 Li176 1.956 . S
O236 Li177 1.970 1_565 S
O236 Li178 1.961 1_455 S
O236 C180 1.325 . S
O237 Li176 1.970 1_545 S
O237 Li177 1.956 . S
O237 Li179 1.961 1_455 S
O237 C186 1.325 . S
O238 Li176 1.961 1_655 S
O238 Li178 1.956 . S
O238 Li179 1.970 1_565 S
O238 C208 1.325 . S
O239 Li177 1.961 1_655 S
O239 Li178 1.970 1_545 S
O239 Li179 1.956 . S
O239 C214 1.325 . S
H240 C182 0.929 . S
H241 C183 0.930 . S
H242 C184 0.930 1_545 S
H243 C185 0.930 . S
H244 C187 0.930 . S
H245 C189 0.929 . S
H246 C190 0.930 . S
H247 C191 0.930 . S
H248 C194 0.930 . S
H249 C197 0.929 . S
H250 C202 0.929 . S
H251 C203 0.930 . S
H252 C210 0.929 . S
H253 C211 0.930 . S
H254 C212 0.930 . S
H255 C213 0.930 . S
H256 C215 0.929 . S
H257 C216 0.930 . S
H258 C217 0.930 1_565 S
H259 C218 0.930 . S
H260 C222 0.929 . S
H261 C224 0.930 . S
H262 C230 0.929 . S
H263 C231 0.930 . S
Mg264 O271 2.141 . S
Mg264 O272 2.048 . S
Mg264 O273 2.048 . S
Mg264 O276 2.141 . S
C265 O266 1.313 . S
C265 O272 1.195 1_655 S
O266 C265 1.313 . S
C267 O268 1.245 . S
C267 O276 1.289 1_655 S
O268 C267 1.245 . S
C269 O270 1.245 . S
C269 O271 1.289 1_655 S
O270 C269 1.245 . S
O271 Mg264 2.141 . S
O271 C269 1.289 1_455 S
O272 Mg264 2.048 . S
O272 C265 1.195 1_455 S
O273 Mg264 2.048 . S
O273 C274 1.195 1_455 S
C274 O273 1.195 1_655 S
C274 O275 1.313 . S
O275 C274 1.313 . S
O276 Mg264 2.141 . S
O276 C267 1.289 1_455 S
Mg277 O284 2.141 . S
Mg277 O285 2.048 . S
Mg277 O286 2.048 . S
Mg277 O289 2.141 . S
C278 O279 1.313 . S
C278 O285 1.195 1_565 S
O279 C278 1.313 . S
C280 O281 1.245 . S
C280 O289 1.289 1_565 S
O281 C280 1.245 . S
C282 O283 1.245 . S
C282 O284 1.289 1_565 S
O283 C282 1.245 . S
O284 Mg277 2.141 . S
O284 C282 1.289 1_545 S
O285 Mg277 2.048 . S
O285 C278 1.195 1_545 S
O286 Mg277 2.048 . S
O286 C287 1.195 1_545 S
C287 O286 1.195 1_565 S
C287 O288 1.313 . S
O288 C287 1.313 . S
O289 Mg277 2.141 . S
O289 C280 1.289 1_545 S
Mg290 O297 2.141 . S
Mg290 O298 2.048 . S
Mg290 O299 2.048 . S
Mg290 O302 2.141 . S
C291 O292 1.313 . S
C291 O298 1.195 . S
O292 C291 1.313 . S
C293 O294 1.245 . S
C293 O302 1.289 . S
O294 C293 1.245 . S
C295 O296 1.245 . S
C295 O297 1.289 . S
O296 C295 1.245 . S
O297 Mg290 2.141 . S
O297 C295 1.289 . S
O298 Mg290 2.048 . S
O298 C291 1.195 . S
O299 Mg290 2.048 . S
O299 C300 1.195 . S
C300 O299 1.195 . S
C300 O301 1.313 . S
O301 C300 1.313 . S
O302 Mg290 2.141 . S
O302 C293 1.289 . S
H303 C311 0.950 1_455 S
H304 C316 0.950 . S
H305 C313 0.950 1_455 S
H306 C315 0.950 . S
H307 C317 0.950 . S
H308 C319 0.950 . S
H309 C321 0.950 . S
H310 C322 0.950 . S
C311 H303 0.950 1_655 S
C311 C312 1.386 . S
C311 C313 1.391 . S
C312 C311 1.386 . S
C312 C316 1.393 . S
C313 H305 0.950 1_655 S
C313 C311 1.391 . S
C313 C314 1.400 . S
C314 C313 1.400 . S
C314 C315 1.398 . S
C314 C320 1.491 . S
C315 H306 0.950 . S
C315 C314 1.398 . S
C315 C316 1.391 . S
C316 H304 0.950 . S
C316 C312 1.393 . S
C316 C315 1.391 . S
C317 H307 0.950 . S
C317 C318 1.386 . S
C317 C319 1.391 . S
C318 C317 1.386 . S
C318 C322 1.393 1_655 S
C319 H308 0.950 . S
C319 C317 1.391 . S
C319 C320 1.400 . S
C320 C314 1.491 . S
C320 C319 1.400 . S
C320 C321 1.398 1_655 S
C321 H309 0.950 . S
C321 C320 1.398 1_455 S
C321 C322 1.391 . S
C322 H310 0.950 . S
C322 C318 1.393 1_455 S
C322 C321 1.391 . S
H323 C331 0.950 . S
H324 C336 0.950 . S
H325 C333 0.950 1_545 S
H326 C335 0.950 . S
H327 C337 0.950 . S
H328 C339 0.950 . S
H329 C341 0.950 . S
H330 C342 0.950 . S
C331 H323 0.950 . S
C331 C332 1.386 . S
C331 C333 1.391 . S
C332 C331 1.386 . S
C332 C336 1.393 . S
C333 H325 0.950 1_565 S
C333 C331 1.391 . S
C333 C334 1.400 . S
C334 C333 1.400 . S
C334 C335 1.398 . S
C334 C340 1.491 . S
C335 H326 0.950 . S
C335 C334 1.398 . S
C335 C336 1.391 . S
C336 H324 0.950 . S
C336 C332 1.393 . S
C336 C335 1.391 . S
C337 H327 0.950 . S
C337 C338 1.386 . S
C337 C339 1.391 . S
C338 C337 1.386 . S
C338 C342 1.393 1_565 S
C339 H328 0.950 . S
C339 C337 1.391 . S
C339 C340 1.400 . S
C340 C334 1.491 . S
C340 C339 1.400 . S
C340 C341 1.398 1_565 S
C341 H329 0.950 . S
C341 C340 1.398 1_545 S
C341 C342 1.391 . S
C342 H330 0.950 . S
C342 C338 1.393 1_545 S
C342 C341 1.391 . S
H343 C351 0.950 . S
H344 C356 0.950 . S
H345 C353 0.950 . S
H346 C355 0.950 . S
H347 C357 0.950 . S
H348 C359 0.950 . S
H349 C361 0.950 . S
H350 C362 0.950 . S
C351 H343 0.950 . S
C351 C352 1.386 . S
C351 C353 1.391 . S
C352 C351 1.386 . S
C352 C356 1.393 . S
C353 H345 0.950 . S
C353 C351 1.391 . S
C353 C354 1.400 . S
C354 C353 1.400 . S
C354 C355 1.398 . S
C354 C360 1.491 . S
C355 H346 0.950 . S
C355 C354 1.398 . S
C355 C356 1.391 . S
C356 H344 0.950 . S
C356 C352 1.393 . S
C356 C355 1.391 . S
C357 H347 0.950 . S
C357 C358 1.386 . S
C357 C359 1.391 . S
C358 C357 1.386 . S
C358 C362 1.393 . S
C359 H348 0.950 . S
C359 C357 1.391 . S
C359 C360 1.400 . S
C360 C354 1.491 . S
C360 C359 1.400 . S
C360 C361 1.398 . S
C361 H349 0.950 . S
C361 C360 1.398 . S
C361 C362 1.391 . S
C362 H350 0.950 . S
C362 C358 1.393 . S
C362 C361 1.391 . S
H363 C371 0.950 1_655 S
H364 C376 0.950 . S
H365 C373 0.950 . S
H366 C375 0.950 . S
H367 C377 0.950 . S
H368 C379 0.950 . S
H369 C381 0.950 . S
H370 C382 0.950 . S
C371 H363 0.950 1_455 S
C371 C372 1.386 . S
C371 C373 1.391 1_455 S
C372 C371 1.386 . S
C372 C376 1.393 . S
C373 H365 0.950 . S
C373 C371 1.391 1_655 S
C373 C374 1.400 1_655 S
C374 C373 1.400 1_455 S
C374 C375 1.398 . S
C374 C380 1.491 . S
C375 H366 0.950 . S
C375 C374 1.398 . S
C375 C376 1.391 . S
C376 H364 0.950 . S
C376 C372 1.393 . S
C376 C375 1.391 . S
C377 H367 0.950 . S
C377 C378 1.386 . S
C377 C379 1.391 . S
C378 C377 1.386 . S
C378 C382 1.393 1_455 S
C379 H368 0.950 . S
C379 C377 1.391 . S
C379 C380 1.400 . S
C380 C374 1.491 . S
C380 C379 1.400 . S
C380 C381 1.398 1_455 S
C381 H369 0.950 . S
C381 C380 1.398 1_655 S
C381 C382 1.391 . S
C382 H370 0.950 . S
C382 C378 1.393 1_655 S
C382 C381 1.391 . S
H383 C391 0.950 1_565 S
H384 C396 0.950 . S
H385 C393 0.950 1_565 S
H386 C395 0.950 . S
H387 C397 0.950 . S
H388 C399 0.950 . S
H389 C401 0.950 . S
H390 C402 0.950 . S
C391 H383 0.950 1_545 S
C391 C392 1.386 . S
C391 C393 1.391 . S
C392 C391 1.386 . S
C392 C396 1.393 . S
C393 H385 0.950 1_545 S
C393 C391 1.391 . S
C393 C394 1.400 . S
C394 C393 1.400 . S
C394 C395 1.398 . S
C394 C400 1.491 . S
C395 H386 0.950 . S
C395 C394 1.398 . S
C395 C396 1.391 . S
C396 H384 0.950 . S
C396 C392 1.393 . S
C396 C395 1.391 . S
C397 H387 0.950 . S
C397 C398 1.386 . S
C397 C399 1.391 . S
C398 C397 1.386 . S
C398 C402 1.393 1_545 S
C399 H388 0.950 . S
C399 C397 1.391 . S
C399 C400 1.400 . S
C400 C394 1.491 . S
C400 C399 1.400 . S
C400 C401 1.398 1_545 S
C401 H389 0.950 . S
C401 C400 1.398 1_565 S
C401 C402 1.391 . S
C402 H390 0.950 . S
C402 C398 1.393 1_565 S
C402 C401 1.391 . S
H403 C411 0.950 . S
H404 C416 0.950 . S
H405 C413 0.950 . S
H406 C415 0.950 . S
H407 C417 0.950 . S
H408 C419 0.950 . S
H409 C421 0.950 . S
H410 C422 0.950 . S
C411 H403 0.950 . S
C411 C412 1.386 . S
C411 C413 1.391 . S
C412 C411 1.386 . S
C412 C416 1.393 . S
C413 H405 0.950 . S
C413 C411 1.391 . S
C413 C414 1.400 . S
C414 C413 1.400 . S
C414 C415 1.398 . S
C414 C420 1.491 . S
C415 H406 0.950 . S
C415 C414 1.398 . S
C415 C416 1.391 . S
C416 H404 0.950 . S
C416 C412 1.393 . S
C416 C415 1.391 . S
C417 H407 0.950 . S
C417 C418 1.386 . S
C417 C419 1.391 . S
C418 C417 1.386 . S
C418 C422 1.393 . S
C419 H408 0.950 . S
C419 C417 1.391 . S
C419 C420 1.400 . S
C420 C414 1.491 . S
C420 C419 1.400 . S
C420 C421 1.398 . S
C421 H409 0.950 . S
C421 C420 1.398 . S
C421 C422 1.391 . S
C422 H410 0.950 . S
C422 C418 1.393 . S
C422 C421 1.391 . S
H423 C431 0.956 . S
H424 C436 0.950 . S
H425 C433 0.950 1_565 S
H426 C435 0.950 . S
H427 C437 0.950 . S
H428 C439 0.950 . S
H429 C441 0.950 . S
H430 C442 0.950 . S
C431 H423 0.956 . S
C431 C432 1.386 . S
C431 C433 1.391 . S
C432 C431 1.386 . S
C432 C436 1.393 . S
C433 H425 0.950 1_545 S
C433 C431 1.391 . S
C433 C434 1.400 . S
C434 C433 1.400 . S
C434 C435 1.398 . S
C434 C440 1.491 . S
C435 H426 0.950 . S
C435 C434 1.398 . S
C435 C436 1.391 . S
C436 H424 0.950 . S
C436 C432 1.393 . S
C436 C435 1.391 . S
C437 H427 0.950 . S
C437 C438 1.386 . S
C437 C439 1.391 . S
C438 C437 1.386 . S
C438 C442 1.393 1_545 S
C439 H428 0.950 . S
C439 C437 1.391 . S
C439 C440 1.400 . S
C440 C434 1.491 . S
C440 C439 1.400 . S
C440 C441 1.398 1_545 S
C441 H429 0.950 . S
C441 C440 1.398 1_565 S
C441 C442 1.391 . S
C442 H430 0.950 . S
C442 C438 1.393 1_565 S
C442 C441 1.391 . S
H443 C451 0.950 . S
H444 C456 0.950 . S
H445 C453 0.950 1_556 S
H446 C455 0.950 . S
H447 C457 0.950 . S
H448 C459 0.950 . S
H449 C461 0.950 . S
H450 C462 0.950 . S
C451 H443 0.950 . S
C451 C452 1.386 . S
C451 C453 1.391 . S
C452 C451 1.386 . S
C452 C456 1.393 . S
C453 H445 0.950 1_554 S
C453 C451 1.391 . S
C453 C454 1.400 . S
C454 C453 1.400 . S
C454 C455 1.398 . S
C454 C460 1.491 1_554 S
C455 H446 0.950 . S
C455 C454 1.398 . S
C455 C456 1.391 . S
C456 H444 0.950 . S
C456 C452 1.393 . S
C456 C455 1.391 . S
C457 H447 0.950 . S
C457 C458 1.386 . S
C457 C459 1.391 1_556 S
C458 C457 1.386 . S
C458 C462 1.393 . S
C459 H448 0.950 . S
C459 C457 1.391 1_554 S
C459 C460 1.400 1_554 S
C460 C454 1.491 1_556 S
C460 C459 1.400 1_556 S
C460 C461 1.398 . S
C461 H449 0.950 . S
C461 C460 1.398 . S
C461 C462 1.391 . S
C462 H450 0.950 . S
C462 C458 1.393 . S
C462 C461 1.391 . S
H463 C471 0.950 . S
H464 C476 0.950 1_455 S
H465 C473 0.950 . S
H466 C475 0.950 1_455 S
H467 C477 0.950 . S
H468 C479 0.950 . S
H469 C481 0.950 . S
H470 C482 0.950 . S
C471 H463 0.950 . S
C471 C472 1.386 . S
C471 C473 1.391 . S
C472 C471 1.386 . S
C472 C476 1.393 . S
C473 H465 0.950 . S
C473 C471 1.391 . S
C473 C474 1.400 . S
C474 C473 1.400 . S
C474 C475 1.398 . S
C474 C480 1.491 . S
C475 H466 0.950 1_655 S
C475 C474 1.398 . S
C475 C476 1.391 . S
C476 H464 0.950 1_655 S
C476 C472 1.393 . S
C476 C475 1.391 . S
C477 H467 0.950 . S
C477 C478 1.386 1_455 S
C477 C479 1.391 . S
C478 C477 1.386 1_655 S
C478 C482 1.393 . S
C479 H468 0.950 . S
C479 C477 1.391 . S
C479 C480 1.400 1_455 S
C480 C474 1.491 . S
C480 C479 1.400 1_655 S
C480 C481 1.398 . S
C481 H469 0.950 . S
C481 C480 1.398 . S
C481 C482 1.391 . S
C482 H470 0.950 . S
C482 C478 1.393 . S
C482 C481 1.391 . S
H483 C491 0.950 . S
H484 C496 0.950 1_545 S
H485 C493 0.950 . S
H486 C495 0.950 . S
H487 C497 0.950 . S
H488 C499 0.950 . S
H489 C501 0.950 . S
H490 C502 0.950 . S
C491 H483 0.950 . S
C491 C492 1.386 . S
C491 C493 1.391 . S
C492 C491 1.386 . S
C492 C496 1.393 . S
C493 H485 0.950 . S
C493 C491 1.391 . S
C493 C494 1.400 . S
C494 C493 1.400 . S
C494 C495 1.398 1_565 S
C494 C500 1.491 . S
C495 H486 0.950 . S
C495 C494 1.398 1_545 S
C495 C496 1.391 1_545 S
C496 H484 0.950 1_565 S
C496 C492 1.393 . S
C496 C495 1.391 1_565 S
C497 H487 0.950 . S
C497 C498 1.386 1_545 S
C497 C499 1.391 . S
C498 C497 1.386 1_565 S
C498 C502 1.393 . S
C499 H488 0.950 . S
C499 C497 1.391 . S
C499 C500 1.400 1_545 S
C500 C494 1.491 . S
C500 C499 1.400 1_565 S
C500 C501 1.398 . S
C501 H489 0.950 . S
C501 C500 1.398 . S
C501 C502 1.391 . S
C502 H490 0.950 . S
C502 C498 1.393 . S
C502 C501 1.391 . S
H503 C511 0.950 . S
H504 C516 0.950 . S
H505 C513 0.950 . S
H506 C515 0.950 . S
H507 C517 0.950 . S
H508 C519 0.950 . S
H509 C521 0.950 . S
H510 C522 0.950 . S
C511 H503 0.950 . S
C511 C512 1.386 . S
C511 C513 1.391 . S
C512 C511 1.386 . S
C512 C516 1.393 . S
C513 H505 0.950 . S
C513 C511 1.391 . S
C513 C514 1.400 . S
C514 C513 1.400 . S
C514 C515 1.398 . S
C514 C520 1.491 1_554 S
C515 H506 0.950 . S
C515 C514 1.398 . S
C515 C516 1.391 . S
C516 H504 0.950 . S
C516 C512 1.393 . S
C516 C515 1.391 . S
C517 H507 0.950 . S
C517 C518 1.386 . S
C517 C519 1.391 . S
C518 C517 1.386 . S
C518 C522 1.393 . S
C519 H508 0.950 . S
C519 C517 1.391 . S
C519 C520 1.400 . S
C520 C514 1.491 1_556 S
C520 C519 1.400 . S
C520 C521 1.398 . S
C521 H509 0.950 . S
C521 C520 1.398 . S
C521 C522 1.391 . S
C522 H510 0.950 . S
C522 C518 1.393 . S
C522 C521 1.391 . S
H523 C531 0.950 . S
H524 C536 0.950 . S
H525 C533 0.950 . S
H526 C535 0.950 1_655 S
H527 C537 0.950 . S
H528 C539 0.950 . S
H529 C541 0.950 . S
H530 C542 0.950 . S
C531 H523 0.950 . S
C531 C532 1.386 . S
C531 C533 1.391 . S
C532 C531 1.386 . S
C532 C536 1.393 . S
C533 H525 0.950 . S
C533 C531 1.391 . S
C533 C534 1.400 . S
C534 C533 1.400 . S
C534 C535 1.398 . S
C534 C540 1.491 . S
C535 H526 0.950 1_455 S
C535 C534 1.398 . S
C535 C536 1.391 . S
C536 H524 0.950 . S
C536 C532 1.393 . S
C536 C535 1.391 . S
C537 H527 0.950 . S
C537 C538 1.386 1_655 S
C537 C539 1.391 . S
C538 C537 1.386 1_455 S
C538 C542 1.393 . S
C539 H528 0.950 . S
C539 C537 1.391 . S
C539 C540 1.400 1_655 S
C540 C534 1.491 . S
C540 C539 1.400 1_455 S
C540 C541 1.398 . S
C541 H529 0.950 . S
C541 C540 1.398 . S
C541 C542 1.391 . S
C542 H530 0.950 . S
C542 C538 1.393 . S
C542 C541 1.391 . S
C318 C269 1.383 . S
C312 C29 1.388 . S
C332 C137 1.458 . S
C338 C287 1.462 . S
C352 C225 1.470 . S
C358 C300 1.476 . S
C372 C49 1.397 . S
C378 C267 1.420 1_455 S
C398 C278 1.489 1_545 S
C392 C117 1.469 . S
C412 C205 1.457 . S
C418 C291 1.490 . S
C438 C280 1.414 1_545 S
C432 C233 1.386 . S
C452 C57 1.382 . S
C458 C293 1.419 . S
C478 C274 1.457 . S
C472 C108 1.455 . S
C498 C282 1.379 . S
C492 C196 1.381 . S
C518 C295 1.385 . S
C512 C20 1.386 . S
C532 C145 1.466 . S
C538 C265 1.485 1_455 S
