# Generated by pormake.
# Topology nia, (6,6)-cn, num edge types: 1
# Building blocks:
#     Node 0, Type 0, BuildingBlock: PAMTUU_clean_sbu_0, # of connection points: 6
#     Node 1, Type 0, BuildingBlock: PAMTUU_clean_sbu_0, # of connection points: 6
#     Node 2, Type 1, BuildingBlock: MIDCAF_clean_sbu_0, # of connection points: 6
#     Node 3, Type 1, BuildingBlock: MIDCAF_clean_sbu_0, # of connection points: 6
#     Edge 4, Type (0, 1), BuildingBlock: FUNLAD_clean_linker_1, # of connection points: 2
#     Edge 5, Type (0, 1), BuildingBlock: FUNLAD_clean_linker_1, # of connection points: 2
#     Edge 6, Type (0, 1), BuildingBlock: FUNLAD_clean_linker_1, # of connection points: 2
#     Edge 7, Type (0, 1), BuildingBlock: FUNLAD_clean_linker_1, # of connection points: 2
#     Edge 8, Type (0, 1), BuildingBlock: FUNLAD_clean_linker_1, # of connection points: 2
#     Edge 9, Type (0, 1), BuildingBlock: FUNLAD_clean_linker_1, # of connection points: 2
#     Edge 10, Type (0, 1), BuildingBlock: FUNLAD_clean_linker_1, # of connection points: 2
#     Edge 11, Type (0, 1), BuildingBlock: FUNLAD_clean_linker_1, # of connection points: 2
#     Edge 12, Type (0, 1), BuildingBlock: FUNLAD_clean_linker_1, # of connection points: 2
#     Edge 13, Type (0, 1), BuildingBlock: FUNLAD_clean_linker_1, # of connection points: 2
#     Edge 14, Type (0, 1), BuildingBlock: FUNLAD_clean_linker_1, # of connection points: 2
#     Edge 15, Type (0, 1), BuildingBlock: FUNLAD_clean_linker_1, # of connection points: 2
# Relax obj value: 0.290
# Max RMSD: 0.264
# Mean RMSD: 0.237
data_MOF--net-nia--node1-PAMTUU_clean_sbu_0--node2-MIDCAF_clean_sbu_0--edge1-FUNLAD_clean_linker_1
_symmetry_space_group_name_H-M    P1
_symmetry_Int_Tables_number       1
_symmetry_cell_setting            triclinic
loop_
_symmetry_equiv_pos_as_xyz
'x, y, z'
_cell_length_a     25.790659
_cell_length_b     29.263167
_cell_length_c     36.361206
_cell_angle_alpha  71.006327
_cell_angle_beta   101.73037
_cell_angle_gamma 127.10787
loop_
_atom_site_label
_atom_site_type_symbol
_atom_site_fract_x
_atom_site_fract_y
_atom_site_fract_z
_atom_type_partial_charge
Tb0 Tb 0.98058 0.9322 1.01414 0.0
Tb1 Tb 0.07964 0.05825 0.03617 0.0
C2 C 0.11395 0.03195 0.97069 0.0
C3 C 0.91144 0.81354 0.96541 0.0
C4 C 0.92433 0.769 0.9125 0.0
C5 C 0.96696 0.82966 0.91108 0.0
C6 C 0.96044 0.85187 0.93726 0.0
C7 C 0.86898 0.75308 0.96706 0.0
C8 C 0.87539 0.73085 0.94096 0.0
C9 C 0.90761 0.83516 0.99517 0.0
O10 O 0.0299 0.91843 0.06856 0.0
O11 O 0.12459 0.01093 0.05576 0.0
O12 O 0.01035 -0.00029 0.08379 0.0
O13 O 0.92493 0.93076 0.05293 0.0
O14 O 0.12245 0.14983 0.02149 0.0
O15 O 0.14823 0.10682 0.07475 0.0
O16 O 0.99586 0.05575 1.00676 0.0
O17 O 0.97557 -0.00052 0.96786 0.0
O18 O 0.07078 0.9748 0.98472 0.0
O19 O 0.117 0.07189 0.98201 0.0
C20 C 0.09277 0.95448 0.07394 0.0
O21 O 0.95236 0.84586 0.02204 0.0
O22 O 0.89928 0.87741 0.9828 0.0
C23 C 0.94868 0.95609 0.08191 0.0
C24 C 0.14494 0.18442 0.07665 0.0
C25 C 0.13776 0.24232 0.1217 0.0
C26 C 0.09796 0.18017 0.13022 0.0
C27 C 0.10148 0.15132 0.10787 0.0
C28 C 0.18202 0.24635 0.06673 0.0
C29 C 0.17811 0.27518 0.0888 0.0
C30 C 0.1532 0.15519 0.05473 0.0
C31 C 0.97164 0.03874 0.97454 0.0
H32 H 1.00547 0.85982 0.88981 0.0
H33 H 0.99424 0.8987 0.93596 0.0
H34 H 0.83179 0.7228 0.98914 0.0
H35 H 0.84311 0.6835 0.94406 0.0
H36 H 0.06561 0.15388 0.15491 0.0
H37 H 0.07139 0.10326 0.1155 0.0
H38 H 0.21471 0.27246 0.0422 0.0
H39 H 0.20718 0.32315 0.08008 0.0
Tb40 Tb 0.10293 0.00386 0.50274 0.0
Tb41 Tb 0.99822 0.00167 0.54347 0.0
C42 C 0.08999 0.10974 0.47743 0.0
C43 C 0.19067 0.9796 0.44823 0.0
C44 C 0.2065 0.93065 0.40012 0.0
C45 C 0.25857 0.96527 0.42312 0.0
C46 C 0.25052 0.98933 0.44702 0.0
C47 C 0.13825 0.94461 0.42571 0.0
C48 C 0.14633 0.92063 0.4016 0.0
C49 C 0.18633 0.01111 0.47024 0.0
O50 O 0.15954 0.06561 0.53861 0.0
O51 O 0.08218 0.02747 0.58285 0.0
O52 O 0.96666 0.90991 0.55889 0.0
O53 O 0.06394 0.92641 0.55284 0.0
O54 O 0.94499 0.97159 0.59301 0.0
O55 O 0.93356 0.02439 0.53905 0.0
O56 O 0.95441 0.97671 0.4888 0.0
O57 O 0.00983 0.94255 0.47926 0.0
O58 O 0.09292 0.07336 0.46594 0.0
O59 O 0.06531 0.09395 0.5113 0.0
C60 C 0.1432 0.05968 0.57251 0.0
O61 O 0.15547 0.03488 0.45309 0.0
O62 O 0.17202 0.98579 0.50698 0.0
C63 C 1.00446 0.89181 0.56637 0.0
C64 C 0.91857 0.03391 0.59801 0.0
C65 C 0.90773 0.09456 0.63927 0.0
C66 C 0.88176 0.03394 0.65455 0.0
C67 C 0.88715 0.00403 0.63405 0.0
C68 C 0.94589 0.09476 0.5831 0.0
C69 C 0.94011 0.12461 0.60347 0.0
C70 C 0.91868 -0.00026 0.57582 0.0
C71 C 0.96102 0.94717 0.4716 0.0
H72 H 0.30626 0.97565 0.4218 0.0
H73 H 0.29171 0.01706 0.46374 0.0
H74 H 0.09171 0.93706 0.42609 0.0
H75 H 0.1057 0.89446 0.38396 0.0
H76 H 0.85489 0.00873 0.68145 0.0
H77 H 0.86522 0.95699 0.64593 0.0
H78 H 0.97049 0.11903 0.55538 0.0
H79 H 0.96015 0.17119 0.59091 0.0
Zn80 Zn 0.39772 0.72375 0.19136 0.0
Zn81 Zn 0.41014 0.66122 0.34155 0.0
Zn82 Zn 0.40038 0.69112 0.26617 0.0
C83 C 0.53613 0.73683 0.31567 0.0
C84 C 0.32834 0.55416 0.32517 0.0
O85 O 0.34588 0.73338 0.2461 0.0
O86 O 0.34093 0.7505 0.1821 0.0
C87 C 0.52691 0.78138 0.20773 0.0
O88 O 0.50567 0.73883 0.28298 0.0
O89 O 0.50475 0.70325 0.34679 0.0
O90 O 0.35765 0.57463 0.35422 0.0
O91 O 0.33811 0.59002 0.29083 0.0
O92 O 0.49047 0.78416 0.17956 0.0
O93 O 0.50241 0.74811 0.24184 0.0
O94 O 0.34522 0.6081 0.24963 0.0
O95 O 0.36054 0.64373 0.18594 0.0
C96 C 0.33849 0.6003 0.21569 0.0
O97 O 0.36131 0.72713 0.28628 0.0
O98 O 0.37075 0.69829 0.35017 0.0
C99 C 0.32607 0.75146 0.21269 0.0
C100 C 0.35457 0.72522 0.32099 0.0
Zn101 Zn 0.67984 0.29523 0.85921 0.0
Zn102 Zn 0.68205 0.32462 0.70716 0.0
Zn103 Zn 0.68403 0.31393 0.78449 0.0
C104 C 0.75278 0.43947 0.71593 0.0
C105 C 0.55244 0.25771 0.73166 0.0
O106 O 0.73234 0.26711 0.81641 0.0
O107 O 0.72281 0.25433 0.87869 0.0
C108 C 0.75161 0.42012 0.8243 0.0
O109 O 0.73821 0.40997 0.75194 0.0
O110 O 0.73506 0.41273 0.68986 0.0
O111 O 0.58533 0.27821 0.70175 0.0
O112 O 0.58126 0.26699 0.76455 0.0
O113 O 0.72925 0.38113 0.85618 0.0
O114 O 0.74153 0.40481 0.79271 0.0
O115 O 0.58079 0.26396 0.80382 0.0
O116 O 0.5855 0.24654 0.86784 0.0
C117 C 0.55234 0.24144 0.8368 0.0
O118 O 0.72723 0.27155 0.77617 0.0
O119 O 0.72419 0.28431 0.71243 0.0
C120 C 0.74214 0.248 0.85276 0.0
C121 C 0.73872 0.26455 0.74622 0.0
H122 H 0.18262 0.96146 0.09696 0.0
C123 C 0.12986 0.93145 0.09818 0.0
H124 H 0.04875 0.84434 0.12057 0.0
H125 H 0.19268 0.72442 0.13761 0.0
H126 H 0.1081 0.68175 0.09016 0.0
H127 H 0.03789 0.71623 0.06396 0.0
H128 H 0.05132 0.79305 0.08524 0.0
C129 C 0.10145 0.87497 0.11978 0.0
C130 C 0.14058 0.85088 0.13848 0.0
C131 C 0.13197 0.80572 0.12574 0.0
C132 C 0.17348 0.78676 0.14018 0.0
C133 C 0.1635 0.74141 0.12699 0.0
C134 C 0.11492 0.71631 0.09989 0.0
C135 C 0.07532 0.73563 0.08521 0.0
C136 C 0.08354 0.7798 0.0978 0.0
H137 H 0.25603 0.7574 0.23446 0.0
C138 C 0.2833 0.77086 0.20934 0.0
H139 H 0.30157 0.81388 0.14965 0.0
H140 H 0.16099 0.92829 0.17544 0.0
H141 H 0.24621 0.97157 0.22262 0.0
H142 H 0.32396 0.94515 0.2434 0.0
H143 H 0.31551 0.87321 0.21859 0.0
C144 C 0.27509 0.80177 0.17484 0.0
C145 C 0.22438 0.81349 0.16688 0.0
C146 C 0.23084 0.85637 0.18124 0.0
C147 C 0.18797 0.87408 0.16764 0.0
C148 C 0.19384 0.91514 0.1836 0.0
C149 C 0.24221 0.93998 0.21087 0.0
C150 C 0.28579 0.92477 0.22278 0.0
C151 C 0.28038 0.88343 0.20829 0.0
H152 H 0.24557 0.1212 0.58663 0.0
C153 C 0.19679 0.09188 0.59857 0.0
H154 H 0.14205 0.05506 0.64929 0.0
H155 H 0.4057 0.10613 0.74163 0.0
H156 H 0.3318 -0.00094 0.764 0.0
H157 H 0.21878 0.94545 0.73949 0.0
H158 H 0.17914 -0.00118 0.69211 0.0
C159 C 0.1896 0.08587 0.6358 0.0
C160 C 0.24884 0.11833 0.65957 0.0
C161 C 0.27028 0.0869 0.68854 0.0
C162 C 0.33532 0.11801 0.70306 0.0
C163 C 0.3567 0.08507 0.73007 0.0
C164 C 0.31476 0.02349 0.74309 0.0
C165 C 0.25111 0.99329 0.72927 0.0
C166 C 0.22898 0.02437 0.70211 0.0
H167 H 0.45265 0.20672 0.75419 0.0
C168 C 0.4806 0.22329 0.7286 0.0
H169 H 0.47768 0.23039 0.66873 0.0
H170 H 0.2168 0.1921 0.61252 0.0
H171 H 0.28805 0.30001 0.59328 0.0
H172 H 0.40085 0.35422 0.61813 0.0
H173 H 0.44306 0.30093 0.66248 0.0
C174 C 0.44969 0.21231 0.69466 0.0
C175 C 0.37804 0.18061 0.689 0.0
C176 C 0.35381 0.21232 0.66372 0.0
C177 C 0.28905 0.18118 0.64916 0.0
C178 C 0.26615 0.21387 0.62373 0.0
C179 C 0.30636 0.27568 0.6127 0.0
C180 C 0.36986 0.30619 0.62671 0.0
C181 C 0.39358 0.27512 0.65195 0.0
H182 H 0.09588 0.24747 0.16668 0.0
C183 C 0.13767 0.27164 0.14811 0.0
H184 H 0.23399 0.34779 0.13623 0.0
H185 H 0.14784 0.47263 0.20411 0.0
H186 H 0.06018 0.4468 0.15607 0.0
H187 H 0.03325 0.37905 0.1178 0.0
H188 H 0.09273 0.33618 0.12757 0.0
C189 C 0.18942 0.32539 0.15162 0.0
C190 C 0.19287 0.35391 0.17989 0.0
C191 C 0.15664 0.37781 0.17373 0.0
C192 C 0.17313 0.41804 0.19497 0.0
C193 C 0.13741 0.44236 0.18825 0.0
C194 C 0.08709 0.42785 0.16088 0.0
C195 C 0.07187 0.38962 0.13938 0.0
C196 C 0.10631 0.36505 0.14543 0.0
H197 H 0.32395 0.53965 0.1857 0.0
C198 C 0.30793 0.54156 0.2103 0.0
H199 H 0.23697 0.49271 0.254 0.0
H200 H 0.26052 0.30469 0.20505 0.0
H201 H 0.34618 0.32925 0.25434 0.0
H202 H 0.37873 0.40367 0.28833 0.0
H203 H 0.32514 0.45333 0.27357 0.0
C204 C 0.25826 0.49172 0.23173 0.0
C205 C 0.22713 0.43589 0.22071 0.0
C206 C 0.259 0.4077 0.22958 0.0
C207 C 0.24107 0.36583 0.20955 0.0
C208 C 0.27329 0.33779 0.21902 0.0
C209 C 0.32226 0.35131 0.2473 0.0
C210 C 0.34058 0.39319 0.26645 0.0
C211 C 0.3097 0.42147 0.25765 0.0
H212 H 0.89747 0.16423 0.63907 0.0
C213 C 0.89674 0.12633 0.65787 0.0
H214 H 0.88432 0.07337 0.71576 0.0
H215 H 0.90652 0.31723 0.71143 0.0
H216 H 0.01904 0.37282 0.69286 0.0
H217 H 0.06256 0.32175 0.68386 0.0
H218 H 0.99362 0.21484 0.69301 0.0
C219 C 0.8844 0.11028 0.69597 0.0
C220 C 0.86444 0.13931 0.71096 0.0
C221 C 0.90585 0.2014 0.7067 0.0
C222 C 0.88107 0.23064 0.71254 0.0
C223 C 0.92291 0.29292 0.70711 0.0
C224 C 0.98761 0.32526 0.69668 0.0
C225 C 0.0121 0.29652 0.69158 0.0
C226 C 0.97195 0.23529 0.69658 0.0
H227 H 0.77295 0.20904 0.77989 0.0
C228 C 0.76782 0.23224 0.75103 0.0
H229 H 0.78311 0.25433 0.69107 0.0
H230 H 0.77679 0.01825 0.73009 0.0
H231 H 0.66769 0.96199 0.75426 0.0
H232 H 0.62448 0.01268 0.76422 0.0
H233 H 0.69003 0.11977 0.75016 0.0
C234 C 0.78616 0.22968 0.72012 0.0
C235 C 0.81545 0.1976 0.72347 0.0
C236 C 0.77639 0.13474 0.73229 0.0
C237 C 0.80117 0.1055 0.72625 0.0
C238 C 0.76064 0.0428 0.73422 0.0
C239 C 0.69783 0.00991 0.74809 0.0
C240 C 0.6735 0.03845 0.7537 0.0
C241 C 0.71186 0.1001 0.74563 0.0
H242 H 0.92872 0.95011 0.14029 0.0
C243 C 0.90588 0.93481 0.11416 0.0
H244 H 0.81776 0.88216 0.08621 0.0
H245 H 0.62333 0.704 0.22081 0.0
H246 H 0.63556 0.6404 0.20001 0.0
H247 H 0.72263 0.68288 0.1549 0.0
H248 H 0.79759 0.7894 0.12991 0.0
C249 C 0.84057 0.89849 0.11199 0.0
C250 C 0.79687 0.87465 0.145 0.0
C251 C 0.75459 0.81227 0.16054 0.0
C252 C 0.70509 0.78773 0.18727 0.0
C253 C 0.66211 0.72522 0.20081 0.0
C254 C 0.66863 0.68807 0.18914 0.0
C255 C 0.71759 0.71198 0.1637 0.0
C256 C 0.76013 0.77324 0.14945 0.0
H257 H 0.61272 0.84923 0.17141 0.0
C258 C 0.59652 0.81538 0.19897 0.0
H259 H 0.62 0.7639 0.2443 0.0
H260 H 0.86941 -0.00327 0.12219 0.0
H261 H 0.86474 0.05973 0.14899 0.0
H262 H 0.78646 0.01659 0.20041 0.0
H263 H 0.71089 0.90956 0.22449 0.0
C264 C 0.63668 0.8004 0.21821 0.0
C265 C 0.69823 0.82561 0.19894 0.0
C266 C 0.74517 0.88791 0.18695 0.0
C267 C 0.79308 0.91265 0.159 0.0
C268 C 0.83459 0.97517 0.14489 0.0
C269 C 0.83202 0.01201 0.15981 0.0
C270 C 0.78774 0.98775 0.18862 0.0
C271 C 0.74445 0.92644 0.20198 0.0
H272 H 0.00939 0.81463 0.59103 0.0
C273 C 0.97893 0.82963 0.58867 0.0
H274 H 0.88793 0.80512 0.60179 0.0
H275 H 0.73084 0.53242 0.61535 0.0
H276 H 0.68287 0.56458 0.55779 0.0
H277 H 0.73003 0.67085 0.52894 0.0
H278 H 0.8251 0.74559 0.55765 0.0
C279 C 0.91937 0.79096 0.60481 0.0
C280 C 0.8913 0.72646 0.62293 0.0
C281 C 0.83614 0.68307 0.6055 0.0
C282 C 0.80976 0.6217 0.62167 0.0
C283 C 0.75382 0.57961 0.60393 0.0
C284 C 0.72555 0.59743 0.57092 0.0
C285 C 0.75203 0.65724 0.55472 0.0
C286 C 0.80664 0.69972 0.57161 0.0
H287 H 0.7834 0.52336 0.72427 0.0
C288 C 0.78563 0.50444 0.70432 0.0
H289 H 0.81336 0.5189 0.64876 0.0
H290 H 0.98862 0.79576 0.66818 0.0
H291 H 0.03715 0.76377 0.7257 0.0
H292 H 0.99897 0.65908 0.7497 0.0
H293 H 0.911 0.58552 0.717 0.0
C294 C 0.81369 0.53903 0.66928 0.0
C295 C 0.83903 0.60335 0.65497 0.0
C296 C 0.89379 0.64671 0.67271 0.0
C297 C 0.91849 0.70792 0.65744 0.0
C298 C 0.96988 0.74931 0.67752 0.0
C299 C 0.99796 0.7315 0.71067 0.0
C300 C 0.97634 0.67252 0.72425 0.0
C301 C 0.92533 0.63057 0.7054 0.0
H302 H 0.18537 0.9006 0.34686 0.0
C303 C 0.2148 0.90679 0.37328 0.0
H304 H 0.28525 0.8962 0.40767 0.0
H305 H 0.20202 0.72141 0.29869 0.0
H306 H 0.09198 0.66224 0.32285 0.0
H307 H 0.06258 0.69753 0.36259 0.0
H308 H 0.14213 0.79234 0.37761 0.0
C309 C 0.25628 0.89142 0.38111 0.0
C310 C 0.26916 0.87216 0.35315 0.0
C311 C 0.22186 0.81587 0.34559 0.0
C312 C 0.23941 0.79422 0.32426 0.0
C313 C 0.19137 0.73877 0.31591 0.0
C314 C 0.12814 0.70462 0.32942 0.0
C315 C 0.11155 0.72459 0.35169 0.0
C316 C 0.15772 0.77938 0.35994 0.0
H317 H 0.30868 0.73876 0.35694 0.0
C318 C 0.32698 0.75318 0.32795 0.0
H319 H 0.35106 0.8165 0.27363 0.0
H320 H 0.36692 0.98641 0.35592 0.0
H321 H 0.47546 0.04622 0.32962 0.0
H322 H 0.50707 0.00638 0.29529 0.0
H323 H 0.43023 0.90677 0.28676 0.0
C324 C 0.32775 0.79789 0.30147 0.0
C325 C 0.30466 0.82734 0.31255 0.0
C326 C 0.35006 0.88571 0.31684 0.0
C327 C 0.33212 0.9083 0.33705 0.0
C328 C 0.37841 0.96674 0.34128 0.0
C329 C 0.44075 0.00159 0.32622 0.0
C330 C 0.45853 0.97917 0.30688 0.0
C331 C 0.414 0.92185 0.30227 0.0
H332 H 0.17133 0.01797 0.94393 0.0
C333 C 0.16516 0.05111 0.94502 0.0
H334 H 0.20159 0.14146 0.92759 0.0
H335 H 0.49472 0.24508 0.91802 0.0
H336 H 0.49499 0.2791 0.97052 0.0
H337 H 0.39219 0.24441 0.99628 0.0
H338 H 0.28873 0.17614 0.96947 0.0
C339 C 0.20735 0.10824 0.92613 0.0
C340 C 0.26902 0.12946 0.90937 0.0
C341 C 0.32935 0.16901 0.92577 0.0
C342 C 0.38859 0.18762 0.91171 0.0
C343 C 0.44809 0.22808 0.92822 0.0
C344 C 0.44905 0.24831 0.95828 0.0
C345 C 0.39122 0.22891 0.9727 0.0
C346 C 0.33202 0.18975 0.95683 0.0
H347 H 0.45866 0.2285 0.81434 0.0
C348 C 0.48207 0.21431 0.83895 0.0
H349 H 0.47464 0.16545 0.89711 0.0
H350 H 0.1635 0.06166 0.86708 0.0
H351 H 0.16331 0.02719 0.81461 0.0
H352 H 0.26535 0.05436 0.7931 0.0
H353 H 0.36849 0.1167 0.82351 0.0
C354 C 0.4499 0.17842 0.87267 0.0
C355 C 0.38782 0.16574 0.88186 0.0
C356 C 0.3278 0.12796 0.86442 0.0
C357 C 0.26843 0.11056 0.87779 0.0
C358 C 0.20956 0.07456 0.85895 0.0
C359 C 0.20884 0.05478 0.82866 0.0
C360 C 0.26637 0.07019 0.81648 0.0
C361 C 0.32528 0.10617 0.83412 0.0
H362 H 0.15068 0.18346 0.4286 0.0
C363 C 0.11997 0.1706 0.45175 0.0
H364 H 0.08237 0.19853 0.47871 0.0
H365 H 0.30778 0.47204 0.42722 0.0
H366 H 0.31152 0.45101 0.4974 0.0
H367 H 0.24264 0.34859 0.53792 0.0
H368 H 0.16905 0.26668 0.50851 0.0
C369 C 0.11233 0.21044 0.45549 0.0
C370 C 0.14996 0.27315 0.4305 0.0
C371 C 0.19378 0.32062 0.44815 0.0
C372 C 0.23533 0.37954 0.42471 0.0
C373 C 0.27696 0.42613 0.44339 0.0
C374 C 0.27928 0.4148 0.48375 0.0
C375 C 0.24041 0.35717 0.50655 0.0
C376 C 0.19817 0.3105 0.48918 0.0
H377 H 0.22914 0.47391 0.32127 0.0
C378 C 0.27761 0.48924 0.33299 0.0
H379 H 0.337 0.46934 0.37234 0.0
H380 H 0.06026 0.19621 0.38695 0.0
H381 H 0.05663 0.21651 0.3166 0.0
H382 H 0.13588 0.31601 0.27619 0.0
H383 H 0.21819 0.39605 0.30588 0.0
C384 C 0.28784 0.45156 0.36081 0.0
C385 C 0.23506 0.39112 0.3835 0.0
C386 C 0.18862 0.34408 0.36575 0.0
C387 C 0.1449 0.28559 0.38923 0.0
C388 C 0.09666 0.24047 0.37064 0.0
C389 C 0.09365 0.25165 0.33028 0.0
C390 C 0.13818 0.30776 0.30753 0.0
C391 C 0.18516 0.35348 0.32493 0.0
H392 H 0.93373 0.05898 0.91563 0.0
C393 C 0.94268 0.06604 0.94446 0.0
H394 H 0.93819 0.10715 0.98043 0.0
H395 H 0.93508 0.31423 0.86553 0.0
H396 H 0.04067 0.36627 0.89652 0.0
H397 H 0.08581 0.31233 0.9381 0.0
H398 H 0.02543 0.20593 0.94926 0.0
C399 C 0.92792 0.09934 0.95173 0.0
C400 C 0.90401 0.1319 0.92121 0.0
C401 C 0.94069 0.1946 0.91382 0.0
C402 C 0.91521 0.22603 0.88912 0.0
C403 C 0.95223 0.28821 0.8836 0.0
C404 C 0.013 0.31871 0.90121 0.0
C405 C 0.03838 0.28833 0.92467 0.0
C406 C 1.00297 0.22711 0.93098 0.0
H407 H 0.7513 0.17908 0.89343 0.0
C408 C 0.77017 0.2135 0.86627 0.0
H409 H 0.84606 0.26467 0.8258 0.0
H410 H 0.81849 0.01172 0.92887 0.0
H411 H 0.71786 0.96165 0.89313 0.0
H412 H 0.67912 0.01773 0.84595 0.0
H413 H 0.7402 0.12427 0.83513 0.0
C414 C 0.82213 0.22671 0.8507 0.0
C415 C 0.85321 0.19508 0.87128 0.0
C416 C 0.81883 0.13317 0.87611 0.0
C417 C 0.84319 0.10125 0.90183 0.0
C418 C 0.80462 0.03882 0.90827 0.0
C419 C 0.74623 0.00932 0.88816 0.0
C420 C 0.72426 0.04084 0.86171 0.0
C421 C 0.75968 0.10195 0.85586 0.0
H422 H 0.91102 0.88363 0.43528 0.0
C423 C 0.9109 0.916 0.44367 0.0
H424 H 0.86296 0.95611 0.43837 0.0
H425 H 0.7268 0.8224 0.29396 0.0
H426 H 0.83125 0.89726 0.26206 0.0
H427 H 0.92529 0.96816 0.29598 0.0
H428 H 0.91589 0.964 0.36235 0.0
C429 C 0.86435 0.92472 0.42962 0.0
C430 C 0.80745 0.88485 0.40765 0.0
C431 C 0.81333 0.88885 0.36854 0.0
C432 C 0.75844 0.84912 0.3485 0.0
C433 C 0.76633 0.85253 0.31008 0.0
C434 C 0.82607 0.89513 0.2915 0.0
C435 C 0.87911 0.93496 0.31065 0.0
C436 C 0.87314 0.93201 0.34875 0.0
H437 H 0.63073 0.82426 0.30182 0.0
C438 C 0.60741 0.77839 0.31872 0.0
H439 H 0.61463 0.71631 0.36414 0.0
H440 H 0.77998 0.86479 0.48258 0.0
H441 H 0.6752 0.79249 0.51385 0.0
H442 H 0.57875 0.72708 0.47829 0.0
H443 H 0.58669 0.73308 0.41163 0.0
C444 C 0.63948 0.76274 0.34804 0.0
C445 C 0.69753 0.80654 0.36735 0.0
C446 C 0.69149 0.8036 0.40622 0.0
C447 C 0.74658 0.84235 0.42643 0.0
C448 C 0.73952 0.83716 0.46557 0.0
C449 C 0.67961 0.79575 0.48397 0.0
C450 C 0.6254 0.75887 0.46399 0.0
C451 C 0.63087 0.76263 0.42563 0.0
H452 H 0.98173 0.77042 0.8735 0.0
C453 C 0.93365 0.74604 0.88537 0.0
H454 H 0.83521 0.67383 0.88396 0.0
H455 H 0.8114 0.59834 0.74107 0.0
H456 H 0.78365 0.6681 0.70973 0.0
H457 H 0.80657 0.74028 0.74273 0.0
H458 H 0.8574 0.7426 0.80705 0.0
C459 C 0.88462 0.6962 0.87516 0.0
C460 C 0.89332 0.67018 0.85014 0.0
C461 C 0.86516 0.6703 0.8125 0.0
C462 C 0.85223 0.629 0.79346 0.0
C463 C 0.82179 0.62852 0.75657 0.0
C464 C 0.80597 0.66858 0.73837 0.0
C465 C 0.81894 0.70923 0.75692 0.0
C466 C 0.84782 0.71 0.79375 0.0
H467 H 0.77207 0.48746 0.84963 0.0
C468 C 0.78455 0.48203 0.82523 0.0
H469 H 0.85021 0.52756 0.77861 0.0
H470 H 0.96095 0.66736 0.9187 0.0
H471 H 1.00104 0.60633 0.94535 0.0
H472 H 0.98301 0.53814 0.91047 0.0
H473 H 0.92367 0.53011 0.84876 0.0
C474 C 0.83275 0.53066 0.80176 0.0
C475 C 0.86807 0.58816 0.81216 0.0
C476 C 0.90633 0.59534 0.84662 0.0
C477 C 0.918 0.63566 0.86617 0.0
C478 C 0.95165 0.63826 0.90225 0.0
C479 C 0.9749 0.60342 0.91788 0.0
C480 C 0.96468 0.56496 0.89827 0.0
C481 C 0.93052 0.56058 0.86309 0.0
loop_
_geom_bond_atom_site_label_1
_geom_bond_atom_site_label_2
_geom_bond_distance
_geom_bond_site_symmetry_2
_ccdc_geom_bond_type
Tb0 C9 2.764 . S
Tb0 O10 2.325 1_656 S
Tb0 O13 2.303 1_556 S
Tb0 O17 2.322 1_565 S
Tb0 O18 2.349 1_665 S
Tb0 O21 2.415 . S
Tb0 O22 2.399 . S
Tb1 O11 2.322 1_545 S
Tb1 O12 2.349 1_445 S
Tb1 O14 2.415 . S
Tb1 O15 2.399 . S
Tb1 O16 2.325 . S
Tb1 O19 2.303 1_554 S
Tb1 C30 2.764 . S
C2 O18 1.261 . S
C2 O19 1.257 . S
C3 C6 1.358 . S
C3 C7 1.332 . S
C3 C9 1.504 . S
C4 C5 1.373 . S
C4 C8 1.308 . S
C5 C4 1.373 . S
C5 C6 1.429 . S
C5 H32 0.932 . S
C6 C3 1.358 . S
C6 C5 1.429 . S
C6 H33 0.930 . S
C7 C3 1.332 . S
C7 C8 1.394 . S
C7 H34 0.932 1_556 S
C8 C4 1.308 . S
C8 C7 1.394 . S
C8 H35 0.929 . S
C9 Tb0 2.764 . S
C9 C3 1.504 . S
C9 O21 1.239 . S
C9 O22 1.263 . S
O10 Tb0 2.325 1_454 S
O10 C20 1.236 . S
O11 Tb1 2.322 1_565 S
O11 C20 1.257 . S
O12 Tb1 2.349 1_665 S
O12 C23 1.261 . S
O13 Tb0 2.303 1_554 S
O13 C23 1.257 . S
O14 Tb1 2.415 . S
O14 C30 1.239 . S
O15 Tb1 2.399 . S
O15 C30 1.263 . S
O16 Tb1 2.325 . S
O16 C31 1.236 1_454 S
O17 Tb0 2.322 1_545 S
O17 C31 1.254 . S
O18 Tb0 2.349 1_445 S
O18 C2 1.261 . S
O19 Tb1 2.303 1_556 S
O19 C2 1.257 . S
C20 O10 1.236 . S
C20 O11 1.257 . S
O21 Tb0 2.415 . S
O21 C9 1.239 . S
O22 Tb0 2.399 . S
O22 C9 1.263 . S
C23 O12 1.261 . S
C23 O13 1.257 . S
C24 C27 1.358 . S
C24 C28 1.332 . S
C24 C30 1.504 . S
C25 C26 1.373 . S
C25 C29 1.308 . S
C26 C25 1.373 . S
C26 C27 1.429 . S
C26 H36 0.932 . S
C27 C24 1.358 . S
C27 C26 1.429 . S
C27 H37 0.930 . S
C28 C24 1.332 . S
C28 C29 1.394 . S
C28 H38 0.932 . S
C29 C25 1.308 . S
C29 C28 1.394 . S
C29 H39 0.929 . S
C30 Tb1 2.764 . S
C30 O14 1.239 . S
C30 O15 1.263 . S
C30 C24 1.504 . S
C31 O16 1.236 1_656 S
C31 O17 1.254 . S
H32 C5 0.932 . S
H33 C6 0.930 . S
H34 C7 0.932 1_554 S
H35 C8 0.929 . S
H36 C26 0.932 . S
H37 C27 0.930 . S
H38 C28 0.932 . S
H39 C29 0.929 . S
Tb40 C49 2.764 . S
Tb40 O50 2.325 1_565 S
Tb40 O53 2.303 . S
Tb40 O57 2.322 1_455 S
Tb40 O58 2.349 1_565 S
Tb40 O61 2.415 . S
Tb40 O62 2.399 1_565 S
Tb41 O51 2.322 . S
Tb41 O52 2.349 1_445 S
Tb41 O54 2.415 1_455 S
Tb41 O55 2.399 1_455 S
Tb41 O56 2.325 1_445 S
Tb41 O59 2.303 . S
Tb41 C70 2.764 1_455 S
C42 O58 1.261 . S
C42 O59 1.257 . S
C43 C46 1.358 . S
C43 C47 1.332 . S
C43 C49 1.504 . S
C44 C45 1.373 . S
C44 C48 1.308 . S
C45 C44 1.373 . S
C45 C46 1.429 . S
C45 H72 0.932 . S
C46 C43 1.358 . S
C46 C45 1.429 . S
C46 H73 0.930 1_565 S
C47 C43 1.332 . S
C47 C48 1.394 . S
C47 H74 0.932 . S
C48 C44 1.308 . S
C48 C47 1.394 . S
C48 H75 0.929 . S
C49 Tb40 2.764 . S
C49 C43 1.504 . S
C49 O61 1.239 . S
C49 O62 1.263 1_565 S
O50 Tb40 2.325 1_545 S
O50 C60 1.236 . S
O51 Tb41 2.322 . S
O51 C60 1.257 . S
O52 Tb41 2.349 1_665 S
O52 C63 1.261 . S
O53 Tb40 2.303 . S
O53 C63 1.257 1_455 S
O54 Tb41 2.415 1_655 S
O54 C70 1.239 . S
O55 Tb41 2.399 1_655 S
O55 C70 1.263 . S
O56 Tb41 2.325 1_665 S
O56 C71 1.236 . S
O57 Tb40 2.322 1_655 S
O57 C71 1.257 . S
O58 Tb40 2.349 1_545 S
O58 C42 1.261 . S
O59 Tb41 2.303 . S
O59 C42 1.257 . S
C60 O50 1.236 . S
C60 O51 1.257 . S
O61 Tb40 2.415 . S
O61 C49 1.239 . S
O62 Tb40 2.399 1_545 S
O62 C49 1.263 1_545 S
C63 O52 1.261 . S
C63 O53 1.257 1_655 S
C64 C67 1.358 . S
C64 C68 1.332 . S
C64 C70 1.504 . S
C65 C66 1.373 . S
C65 C69 1.308 . S
C66 C65 1.373 . S
C66 C67 1.429 . S
C66 H76 0.932 . S
C67 C64 1.358 . S
C67 C66 1.429 . S
C67 H77 0.930 . S
C68 C64 1.332 . S
C68 C69 1.394 . S
C68 H78 0.932 . S
C69 C65 1.308 . S
C69 C68 1.394 . S
C69 H79 0.929 . S
C70 Tb41 2.764 1_655 S
C70 O54 1.239 . S
C70 O55 1.263 . S
C70 C64 1.504 . S
C71 O56 1.236 . S
C71 O57 1.257 . S
H72 C45 0.932 . S
H73 C46 0.930 1_545 S
H74 C47 0.932 . S
H75 C48 0.929 . S
H76 C66 0.932 . S
H77 C67 0.930 . S
H78 C68 0.932 . S
H79 C69 0.929 . S
Zn80 O86 1.920 . S
Zn80 O92 1.898 . S
Zn80 O95 1.905 . S
Zn81 O89 1.905 . S
Zn81 O90 1.898 . S
Zn81 O98 1.920 . S
Zn82 O85 2.080 . S
Zn82 O88 2.114 . S
Zn82 O91 2.120 . S
Zn82 O93 2.120 . S
Zn82 O94 2.114 . S
Zn82 O97 2.080 . S
C83 O88 1.166 . S
C83 O89 1.182 . S
C84 O90 1.167 . S
C84 O91 1.299 . S
O85 Zn82 2.080 . S
O85 C99 1.305 . S
O86 Zn80 1.920 . S
O86 C99 1.234 . S
C87 O92 1.167 . S
C87 O93 1.299 . S
O88 Zn82 2.114 . S
O88 C83 1.166 . S
O89 Zn81 1.905 . S
O89 C83 1.182 . S
O90 Zn81 1.898 . S
O90 C84 1.167 . S
O91 Zn82 2.120 . S
O91 C84 1.299 . S
O92 Zn80 1.898 . S
O92 C87 1.167 . S
O93 Zn82 2.120 . S
O93 C87 1.299 . S
O94 Zn82 2.114 . S
O94 C96 1.166 . S
O95 Zn80 1.905 . S
O95 C96 1.182 . S
C96 O94 1.166 . S
C96 O95 1.182 . S
O97 Zn82 2.080 . S
O97 C100 1.305 . S
O98 Zn81 1.920 . S
O98 C100 1.234 . S
C99 O85 1.305 . S
C99 O86 1.234 . S
C100 O97 1.305 . S
C100 O98 1.234 . S
Zn101 O107 1.920 . S
Zn101 O113 1.898 . S
Zn101 O116 1.905 . S
Zn102 O110 1.905 . S
Zn102 O111 1.898 . S
Zn102 O119 1.920 . S
Zn103 O106 2.080 . S
Zn103 O109 2.114 . S
Zn103 O112 2.120 . S
Zn103 O114 2.120 . S
Zn103 O115 2.114 . S
Zn103 O118 2.080 . S
C104 O109 1.166 . S
C104 O110 1.182 . S
C105 O111 1.167 . S
C105 O112 1.299 . S
O106 Zn103 2.080 . S
O106 C120 1.305 . S
O107 Zn101 1.920 . S
O107 C120 1.234 . S
C108 O113 1.167 . S
C108 O114 1.299 . S
O109 Zn103 2.114 . S
O109 C104 1.166 . S
O110 Zn102 1.905 . S
O110 C104 1.182 . S
O111 Zn102 1.898 . S
O111 C105 1.167 . S
O112 Zn103 2.120 . S
O112 C105 1.299 . S
O113 Zn101 1.898 . S
O113 C108 1.167 . S
O114 Zn103 2.120 . S
O114 C108 1.299 . S
O115 Zn103 2.114 . S
O115 C117 1.166 . S
O116 Zn101 1.905 . S
O116 C117 1.182 . S
C117 O115 1.166 . S
C117 O116 1.182 . S
O118 Zn103 2.080 . S
O118 C121 1.305 . S
O119 Zn102 1.920 . S
O119 C121 1.234 . S
C120 O106 1.305 . S
C120 O107 1.234 . S
C121 O118 1.305 . S
C121 O119 1.234 . S
H122 C123 0.951 . S
C123 H122 0.951 . S
C123 C129 1.265 . S
H124 C129 0.950 . S
H125 C133 0.949 . S
H126 C134 0.950 . S
H127 C135 0.951 . S
H128 C136 0.951 . S
C129 C123 1.265 . S
C129 H124 0.950 . S
C129 C130 1.478 . S
C130 C129 1.478 . S
C130 C131 1.397 . S
C130 C147 1.394 . S
C131 C130 1.397 . S
C131 C132 1.438 . S
C131 C136 1.429 . S
C132 C131 1.438 . S
C132 C133 1.428 . S
C132 C145 1.394 . S
C133 H125 0.949 . S
C133 C132 1.428 . S
C133 C134 1.345 . S
C134 H126 0.950 . S
C134 C133 1.345 . S
C134 C135 1.424 . S
C135 H127 0.951 . S
C135 C134 1.424 . S
C135 C136 1.347 . S
C136 H128 0.951 . S
C136 C131 1.429 . S
C136 C135 1.347 . S
H137 C138 0.951 . S
C138 H137 0.951 . S
C138 C144 1.265 . S
H139 C144 0.950 . S
H140 C148 0.949 . S
H141 C149 0.950 1_545 S
H142 C150 0.951 . S
H143 C151 0.951 . S
C144 C138 1.265 . S
C144 H139 0.950 . S
C144 C145 1.478 . S
C145 C132 1.394 . S
C145 C144 1.478 . S
C145 C146 1.397 . S
C146 C145 1.397 . S
C146 C147 1.438 . S
C146 C151 1.429 . S
C147 C130 1.394 . S
C147 C146 1.438 . S
C147 C148 1.428 . S
C148 H140 0.949 . S
C148 C147 1.428 . S
C148 C149 1.345 . S
C149 H141 0.950 1_565 S
C149 C148 1.345 . S
C149 C150 1.424 . S
C150 H142 0.951 . S
C150 C149 1.424 . S
C150 C151 1.347 . S
C151 H143 0.951 . S
C151 C146 1.429 . S
C151 C150 1.347 . S
H152 C153 0.951 . S
C153 H152 0.951 . S
C153 C159 1.265 . S
H154 C159 0.950 . S
H155 C163 0.949 . S
H156 C164 0.950 . S
H157 C165 0.951 . S
H158 C166 0.951 . S
C159 C153 1.265 . S
C159 H154 0.950 . S
C159 C160 1.478 . S
C160 C159 1.478 . S
C160 C161 1.397 . S
C160 C177 1.394 . S
C161 C160 1.397 . S
C161 C162 1.438 . S
C161 C166 1.429 . S
C162 C161 1.438 . S
C162 C163 1.428 . S
C162 C175 1.394 . S
C163 H155 0.949 . S
C163 C162 1.428 . S
C163 C164 1.345 . S
C164 H156 0.950 . S
C164 C163 1.345 . S
C164 C165 1.424 . S
C165 H157 0.951 . S
C165 C164 1.424 . S
C165 C166 1.347 . S
C166 H158 0.951 . S
C166 C161 1.429 . S
C166 C165 1.347 . S
H167 C168 0.951 . S
C168 H167 0.951 . S
C168 C174 1.265 . S
H169 C174 0.950 . S
H170 C178 0.949 . S
H171 C179 0.950 . S
H172 C180 0.951 . S
H173 C181 0.951 . S
C174 C168 1.265 . S
C174 H169 0.950 . S
C174 C175 1.478 . S
C175 C162 1.394 . S
C175 C174 1.478 . S
C175 C176 1.397 . S
C176 C175 1.397 . S
C176 C177 1.438 . S
C176 C181 1.429 . S
C177 C160 1.394 . S
C177 C176 1.438 . S
C177 C178 1.428 . S
C178 H170 0.949 . S
C178 C177 1.428 . S
C178 C179 1.345 . S
C179 H171 0.950 . S
C179 C178 1.345 . S
C179 C180 1.424 . S
C180 H172 0.951 . S
C180 C179 1.424 . S
C180 C181 1.347 . S
C181 H173 0.951 . S
C181 C176 1.429 . S
C181 C180 1.347 . S
H182 C183 0.951 . S
C183 H182 0.951 . S
C183 C189 1.265 . S
H184 C189 0.950 . S
H185 C193 0.949 . S
H186 C194 0.950 . S
H187 C195 0.951 . S
H188 C196 0.951 . S
C189 C183 1.265 . S
C189 H184 0.950 . S
C189 C190 1.478 . S
C190 C189 1.478 . S
C190 C191 1.397 . S
C190 C207 1.394 . S
C191 C190 1.397 . S
C191 C192 1.438 . S
C191 C196 1.429 . S
C192 C191 1.438 . S
C192 C193 1.428 . S
C192 C205 1.394 . S
C193 H185 0.949 . S
C193 C192 1.428 . S
C193 C194 1.345 . S
C194 H186 0.950 . S
C194 C193 1.345 . S
C194 C195 1.424 . S
C195 H187 0.951 . S
C195 C194 1.424 . S
C195 C196 1.347 . S
C196 H188 0.951 . S
C196 C191 1.429 . S
C196 C195 1.347 . S
H197 C198 0.951 . S
C198 H197 0.951 . S
C198 C204 1.265 . S
H199 C204 0.950 . S
H200 C208 0.949 . S
H201 C209 0.950 . S
H202 C210 0.951 . S
H203 C211 0.951 . S
C204 C198 1.265 . S
C204 H199 0.950 . S
C204 C205 1.478 . S
C205 C192 1.394 . S
C205 C204 1.478 . S
C205 C206 1.397 . S
C206 C205 1.397 . S
C206 C207 1.438 . S
C206 C211 1.429 . S
C207 C190 1.394 . S
C207 C206 1.438 . S
C207 C208 1.428 . S
C208 H200 0.949 . S
C208 C207 1.428 . S
C208 C209 1.345 . S
C209 H201 0.950 . S
C209 C208 1.345 . S
C209 C210 1.424 . S
C210 H202 0.951 . S
C210 C209 1.424 . S
C210 C211 1.347 . S
C211 H203 0.951 . S
C211 C206 1.429 . S
C211 C210 1.347 . S
H212 C213 0.951 . S
C213 H212 0.951 . S
C213 C219 1.265 . S
H214 C219 0.950 . S
H215 C223 0.949 . S
H216 C224 0.950 . S
H217 C225 0.951 . S
H218 C226 0.951 . S
C219 C213 1.265 . S
C219 H214 0.950 . S
C219 C220 1.478 . S
C220 C219 1.478 . S
C220 C221 1.397 . S
C220 C237 1.394 . S
C221 C220 1.397 . S
C221 C222 1.438 . S
C221 C226 1.429 . S
C222 C221 1.438 . S
C222 C223 1.428 . S
C222 C235 1.394 . S
C223 H215 0.949 . S
C223 C222 1.428 . S
C223 C224 1.345 . S
C224 H216 0.950 . S
C224 C223 1.345 . S
C224 C225 1.424 . S
C225 H217 0.951 . S
C225 C224 1.424 . S
C225 C226 1.347 . S
C226 H218 0.951 . S
C226 C221 1.429 . S
C226 C225 1.347 . S
H227 C228 0.951 . S
C228 H227 0.951 . S
C228 C234 1.265 . S
H229 C234 0.950 . S
H230 C238 0.949 . S
H231 C239 0.950 . S
H232 C240 0.951 . S
H233 C241 0.951 . S
C234 C228 1.265 . S
C234 H229 0.950 . S
C234 C235 1.478 . S
C235 C222 1.394 . S
C235 C234 1.478 . S
C235 C236 1.397 . S
C236 C235 1.397 . S
C236 C237 1.438 . S
C236 C241 1.429 . S
C237 C220 1.394 . S
C237 C236 1.438 . S
C237 C238 1.428 . S
C238 H230 0.949 . S
C238 C237 1.428 . S
C238 C239 1.345 . S
C239 H231 0.950 . S
C239 C238 1.345 . S
C239 C240 1.424 . S
C240 H232 0.951 . S
C240 C239 1.424 . S
C240 C241 1.347 . S
C241 H233 0.951 . S
C241 C236 1.429 . S
C241 C240 1.347 . S
H242 C243 0.951 . S
C243 H242 0.951 . S
C243 C249 1.265 . S
H244 C249 0.950 . S
H245 C253 0.949 . S
H246 C254 0.950 . S
H247 C255 0.951 . S
H248 C256 0.951 . S
C249 C243 1.265 . S
C249 H244 0.950 . S
C249 C250 1.478 . S
C250 C249 1.478 . S
C250 C251 1.397 . S
C250 C267 1.394 . S
C251 C250 1.397 . S
C251 C252 1.438 . S
C251 C256 1.429 . S
C252 C251 1.438 . S
C252 C253 1.428 . S
C252 C265 1.394 . S
C253 H245 0.949 . S
C253 C252 1.428 . S
C253 C254 1.345 . S
C254 H246 0.950 . S
C254 C253 1.345 . S
C254 C255 1.424 . S
C255 H247 0.951 . S
C255 C254 1.424 . S
C255 C256 1.347 . S
C256 H248 0.951 . S
C256 C251 1.429 . S
C256 C255 1.347 . S
H257 C258 0.951 . S
C258 H257 0.951 . S
C258 C264 1.265 . S
H259 C264 0.950 . S
H260 C268 0.949 . S
H261 C269 0.950 . S
H262 C270 0.951 . S
H263 C271 0.951 . S
C264 C258 1.265 . S
C264 H259 0.950 . S
C264 C265 1.478 . S
C265 C252 1.394 . S
C265 C264 1.478 . S
C265 C266 1.397 . S
C266 C265 1.397 . S
C266 C267 1.438 . S
C266 C271 1.429 . S
C267 C250 1.394 . S
C267 C266 1.438 . S
C267 C268 1.428 . S
C268 H260 0.949 . S
C268 C267 1.428 . S
C268 C269 1.345 1_565 S
C269 H261 0.950 . S
C269 C268 1.345 1_545 S
C269 C270 1.424 . S
C270 H262 0.951 . S
C270 C269 1.424 . S
C270 C271 1.347 1_545 S
C271 H263 0.951 . S
C271 C266 1.429 . S
C271 C270 1.347 1_565 S
H272 C273 0.951 . S
C273 H272 0.951 . S
C273 C279 1.265 . S
H274 C279 0.950 . S
H275 C283 0.949 . S
H276 C284 0.950 . S
H277 C285 0.951 . S
H278 C286 0.951 . S
C279 C273 1.265 . S
C279 H274 0.950 . S
C279 C280 1.478 . S
C280 C279 1.478 . S
C280 C281 1.397 . S
C280 C297 1.394 . S
C281 C280 1.397 . S
C281 C282 1.438 . S
C281 C286 1.429 . S
C282 C281 1.438 . S
C282 C283 1.428 . S
C282 C295 1.394 . S
C283 H275 0.949 . S
C283 C282 1.428 . S
C283 C284 1.345 . S
C284 H276 0.950 . S
C284 C283 1.345 . S
C284 C285 1.424 . S
C285 H277 0.951 . S
C285 C284 1.424 . S
C285 C286 1.347 . S
C286 H278 0.951 . S
C286 C281 1.429 . S
C286 C285 1.347 . S
H287 C288 0.951 . S
C288 H287 0.951 . S
C288 C294 1.265 . S
H289 C294 0.950 . S
H290 C298 0.949 . S
H291 C299 0.950 . S
H292 C300 0.951 . S
H293 C301 0.951 . S
C294 C288 1.265 . S
C294 H289 0.950 . S
C294 C295 1.478 . S
C295 C282 1.394 . S
C295 C294 1.478 . S
C295 C296 1.397 . S
C296 C295 1.397 . S
C296 C297 1.438 . S
C296 C301 1.429 . S
C297 C280 1.394 . S
C297 C296 1.438 . S
C297 C298 1.428 . S
C298 H290 0.949 . S
C298 C297 1.428 . S
C298 C299 1.345 . S
C299 H291 0.950 . S
C299 C298 1.345 . S
C299 C300 1.424 . S
C300 H292 0.951 . S
C300 C299 1.424 . S
C300 C301 1.347 . S
C301 H293 0.951 . S
C301 C296 1.429 . S
C301 C300 1.347 . S
H302 C303 0.951 . S
C303 H302 0.951 . S
C303 C309 1.265 . S
H304 C309 0.950 . S
H305 C313 0.949 . S
H306 C314 0.950 . S
H307 C315 0.951 . S
H308 C316 0.951 . S
C309 C303 1.265 . S
C309 H304 0.950 . S
C309 C310 1.478 . S
C310 C309 1.478 . S
C310 C311 1.397 . S
C310 C327 1.394 . S
C311 C310 1.397 . S
C311 C312 1.438 . S
C311 C316 1.429 . S
C312 C311 1.438 . S
C312 C313 1.428 . S
C312 C325 1.394 . S
C313 H305 0.949 . S
C313 C312 1.428 . S
C313 C314 1.345 . S
C314 H306 0.950 . S
C314 C313 1.345 . S
C314 C315 1.424 . S
C315 H307 0.951 . S
C315 C314 1.424 . S
C315 C316 1.347 . S
C316 H308 0.951 . S
C316 C311 1.429 . S
C316 C315 1.347 . S
H317 C318 0.951 . S
C318 H317 0.951 . S
C318 C324 1.265 . S
H319 C324 0.950 . S
H320 C328 0.949 . S
H321 C329 0.950 1_545 S
H322 C330 0.951 . S
H323 C331 0.951 . S
C324 C318 1.265 . S
C324 H319 0.950 . S
C324 C325 1.478 . S
C325 C312 1.394 . S
C325 C324 1.478 . S
C325 C326 1.397 . S
C326 C325 1.397 . S
C326 C327 1.438 . S
C326 C331 1.429 . S
C327 C310 1.394 . S
C327 C326 1.438 . S
C327 C328 1.428 . S
C328 H320 0.949 . S
C328 C327 1.428 . S
C328 C329 1.345 . S
C329 H321 0.950 1_565 S
C329 C328 1.345 . S
C329 C330 1.424 . S
C330 H322 0.951 . S
C330 C329 1.424 . S
C330 C331 1.347 . S
C331 H323 0.951 . S
C331 C326 1.429 . S
C331 C330 1.347 . S
H332 C333 0.951 . S
C333 H332 0.951 . S
C333 C339 1.265 . S
H334 C339 0.950 . S
H335 C343 0.949 . S
H336 C344 0.950 . S
H337 C345 0.951 . S
H338 C346 0.951 . S
C339 C333 1.265 . S
C339 H334 0.950 . S
C339 C340 1.478 . S
C340 C339 1.478 . S
C340 C341 1.397 . S
C340 C357 1.394 . S
C341 C340 1.397 . S
C341 C342 1.438 . S
C341 C346 1.429 . S
C342 C341 1.438 . S
C342 C343 1.428 . S
C342 C355 1.394 . S
C343 H335 0.949 . S
C343 C342 1.428 . S
C343 C344 1.345 . S
C344 H336 0.950 . S
C344 C343 1.345 . S
C344 C345 1.424 . S
C345 H337 0.951 . S
C345 C344 1.424 . S
C345 C346 1.347 . S
C346 H338 0.951 . S
C346 C341 1.429 . S
C346 C345 1.347 . S
H347 C348 0.951 . S
C348 H347 0.951 . S
C348 C354 1.265 . S
H349 C354 0.950 . S
H350 C358 0.949 . S
H351 C359 0.950 1_565 S
H352 C360 0.951 . S
H353 C361 0.951 . S
C354 C348 1.265 . S
C354 H349 0.950 . S
C354 C355 1.478 . S
C355 C342 1.394 . S
C355 C354 1.478 . S
C355 C356 1.397 . S
C356 C355 1.397 . S
C356 C357 1.438 . S
C356 C361 1.429 . S
C357 C340 1.394 . S
C357 C356 1.438 . S
C357 C358 1.428 . S
C358 H350 0.949 . S
C358 C357 1.428 . S
C358 C359 1.345 . S
C359 H351 0.950 1_545 S
C359 C358 1.345 . S
C359 C360 1.424 . S
C360 H352 0.951 . S
C360 C359 1.424 . S
C360 C361 1.347 . S
C361 H353 0.951 . S
C361 C356 1.429 . S
C361 C360 1.347 . S
H362 C363 0.951 . S
C363 H362 0.951 . S
C363 C369 1.265 . S
H364 C369 0.950 . S
H365 C373 0.949 . S
H366 C374 0.950 . S
H367 C375 0.951 . S
H368 C376 0.951 . S
C369 C363 1.265 . S
C369 H364 0.950 . S
C369 C370 1.478 . S
C370 C369 1.478 . S
C370 C371 1.397 . S
C370 C387 1.394 . S
C371 C370 1.397 . S
C371 C372 1.438 . S
C371 C376 1.429 . S
C372 C371 1.438 . S
C372 C373 1.428 . S
C372 C385 1.394 . S
C373 H365 0.949 . S
C373 C372 1.428 . S
C373 C374 1.345 . S
C374 H366 0.950 . S
C374 C373 1.345 . S
C374 C375 1.424 . S
C375 H367 0.951 . S
C375 C374 1.424 . S
C375 C376 1.347 . S
C376 H368 0.951 . S
C376 C371 1.429 . S
C376 C375 1.347 . S
H377 C378 0.951 . S
C378 H377 0.951 . S
C378 C384 1.265 . S
H379 C384 0.950 . S
H380 C388 0.949 . S
H381 C389 0.950 . S
H382 C390 0.951 . S
H383 C391 0.951 . S
C384 C378 1.265 . S
C384 H379 0.950 . S
C384 C385 1.478 . S
C385 C372 1.394 . S
C385 C384 1.478 . S
C385 C386 1.397 . S
C386 C385 1.397 . S
C386 C387 1.438 . S
C386 C391 1.429 . S
C387 C370 1.394 . S
C387 C386 1.438 . S
C387 C388 1.428 . S
C388 H380 0.949 . S
C388 C387 1.428 . S
C388 C389 1.345 . S
C389 H381 0.950 . S
C389 C388 1.345 . S
C389 C390 1.424 . S
C390 H382 0.951 . S
C390 C389 1.424 . S
C390 C391 1.347 . S
C391 H383 0.951 . S
C391 C386 1.429 . S
C391 C390 1.347 . S
H392 C393 0.951 . S
C393 H392 0.951 . S
C393 C399 1.265 . S
H394 C399 0.950 . S
H395 C403 0.949 . S
H396 C404 0.950 . S
H397 C405 0.951 . S
H398 C406 0.951 . S
C399 C393 1.265 . S
C399 H394 0.950 . S
C399 C400 1.478 . S
C400 C399 1.478 . S
C400 C401 1.397 . S
C400 C417 1.394 . S
C401 C400 1.397 . S
C401 C402 1.438 . S
C401 C406 1.429 . S
C402 C401 1.438 . S
C402 C403 1.428 . S
C402 C415 1.394 . S
C403 H395 0.949 . S
C403 C402 1.428 . S
C403 C404 1.345 . S
C404 H396 0.950 . S
C404 C403 1.345 . S
C404 C405 1.424 . S
C405 H397 0.951 . S
C405 C404 1.424 . S
C405 C406 1.347 . S
C406 H398 0.951 . S
C406 C401 1.429 . S
C406 C405 1.347 . S
H407 C408 0.951 . S
C408 H407 0.951 . S
C408 C414 1.265 . S
H409 C414 0.950 . S
H410 C418 0.949 . S
H411 C419 0.950 . S
H412 C420 0.951 . S
H413 C421 0.951 . S
C414 C408 1.265 . S
C414 H409 0.950 . S
C414 C415 1.478 . S
C415 C402 1.394 . S
C415 C414 1.478 . S
C415 C416 1.397 . S
C416 C415 1.397 . S
C416 C417 1.438 . S
C416 C421 1.429 . S
C417 C400 1.394 . S
C417 C416 1.438 . S
C417 C418 1.428 . S
C418 H410 0.949 . S
C418 C417 1.428 . S
C418 C419 1.345 . S
C419 H411 0.950 . S
C419 C418 1.345 . S
C419 C420 1.424 . S
C420 H412 0.951 . S
C420 C419 1.424 . S
C420 C421 1.347 . S
C421 H413 0.951 . S
C421 C416 1.429 . S
C421 C420 1.347 . S
H422 C423 0.951 . S
C423 H422 0.951 . S
C423 C429 1.265 . S
H424 C429 0.950 . S
H425 C433 0.949 . S
H426 C434 0.950 . S
H427 C435 0.951 1_545 S
H428 C436 0.951 1_545 S
C429 C423 1.265 . S
C429 H424 0.950 . S
C429 C430 1.478 . S
C430 C429 1.478 . S
C430 C431 1.397 . S
C430 C447 1.394 . S
C431 C430 1.397 . S
C431 C432 1.438 . S
C431 C436 1.429 . S
C432 C431 1.438 . S
C432 C433 1.428 . S
C432 C445 1.394 . S
C433 H425 0.949 . S
C433 C432 1.428 . S
C433 C434 1.345 . S
C434 H426 0.950 . S
C434 C433 1.345 . S
C434 C435 1.424 . S
C435 H427 0.951 1_565 S
C435 C434 1.424 . S
C435 C436 1.347 . S
C436 H428 0.951 1_565 S
C436 C431 1.429 . S
C436 C435 1.347 . S
H437 C438 0.951 . S
C438 H437 0.951 . S
C438 C444 1.265 . S
H439 C444 0.950 . S
H440 C448 0.949 . S
H441 C449 0.950 . S
H442 C450 0.951 . S
H443 C451 0.951 . S
C444 C438 1.265 . S
C444 H439 0.950 . S
C444 C445 1.478 . S
C445 C432 1.394 . S
C445 C444 1.478 . S
C445 C446 1.397 . S
C446 C445 1.397 . S
C446 C447 1.438 . S
C446 C451 1.429 . S
C447 C430 1.394 . S
C447 C446 1.438 . S
C447 C448 1.428 . S
C448 H440 0.949 . S
C448 C447 1.428 . S
C448 C449 1.345 . S
C449 H441 0.950 . S
C449 C448 1.345 . S
C449 C450 1.424 . S
C450 H442 0.951 . S
C450 C449 1.424 . S
C450 C451 1.347 . S
C451 H443 0.951 . S
C451 C446 1.429 . S
C451 C450 1.347 . S
H452 C453 0.951 . S
C453 H452 0.951 . S
C453 C459 1.265 . S
H454 C459 0.950 . S
H455 C463 0.949 . S
H456 C464 0.950 . S
H457 C465 0.951 . S
H458 C466 0.951 . S
C459 C453 1.265 . S
C459 H454 0.950 . S
C459 C460 1.478 . S
C460 C459 1.478 . S
C460 C461 1.397 . S
C460 C477 1.394 . S
C461 C460 1.397 . S
C461 C462 1.438 . S
C461 C466 1.429 . S
C462 C461 1.438 . S
C462 C463 1.428 . S
C462 C475 1.394 . S
C463 H455 0.949 . S
C463 C462 1.428 . S
C463 C464 1.345 . S
C464 H456 0.950 . S
C464 C463 1.345 . S
C464 C465 1.424 . S
C465 H457 0.951 . S
C465 C464 1.424 . S
C465 C466 1.347 . S
C466 H458 0.951 . S
C466 C461 1.429 . S
C466 C465 1.347 . S
H467 C468 0.951 . S
C468 H467 0.951 . S
C468 C474 1.265 . S
H469 C474 0.950 . S
H470 C478 0.949 . S
H471 C479 0.950 . S
H472 C480 0.951 . S
H473 C481 0.951 . S
C474 C468 1.265 . S
C474 H469 0.950 . S
C474 C475 1.478 . S
C475 C462 1.394 . S
C475 C474 1.478 . S
C475 C476 1.397 . S
C476 C475 1.397 . S
C476 C477 1.438 . S
C476 C481 1.429 . S
C477 C460 1.394 . S
C477 C476 1.438 . S
C477 C478 1.428 . S
C478 H470 0.949 . S
C478 C477 1.428 . S
C478 C479 1.345 . S
C479 H471 0.950 . S
C479 C478 1.345 . S
C479 C480 1.424 . S
C480 H472 0.951 . S
C480 C479 1.424 . S
C480 C481 1.347 . S
C481 H473 0.951 . S
C481 C476 1.429 . S
C481 C480 1.347 . S
C123 C20 1.943 . S
C138 C99 1.916 . S
C153 C60 1.334 . S
C168 C105 1.233 . S
C183 C25 0.839 . S
C198 C96 0.741 . S
C213 C65 1.298 . S
C228 C121 1.207 . S
C243 C23 1.964 . S
C258 C87 1.825 . S
C288 C104 2.262 . S
C273 C63 2.333 . S
C303 C44 1.072 . S
C318 C100 0.954 . S
C348 C117 1.678 . S
C333 C2 1.685 . S
C378 C84 2.036 . S
C363 C42 2.129 . S
C408 C120 2.060 . S
C393 C31 2.190 . S
C438 C83 1.379 . S
C423 C71 1.531 . S
C468 C108 0.723 . S
C453 C4 0.856 . S
