# Generated by pormake.
# Topology scu, (8,4)-cn, num edge types: 1
# Building blocks:
#     Node 0, Type 0, BuildingBlock: TAGTUT_clean_sbu_3, # of connection points: 8
#     Node 1, Type 1, BuildingBlock: ESEHIV_clean_sbu_0, # of connection points: 4
#     Node 2, Type 1, BuildingBlock: ESEHIV_clean_sbu_0, # of connection points: 4
#     Edge 3, Type (0, 1), BuildingBlock: FUNLAD_clean_linker_0, # of connection points: 2
#     Edge 4, Type (0, 1), BuildingBlock: FUNLAD_clean_linker_0, # of connection points: 2
#     Edge 5, Type (0, 1), BuildingBlock: FUNLAD_clean_linker_0, # of connection points: 2
#     Edge 6, Type (0, 1), BuildingBlock: FUNLAD_clean_linker_0, # of connection points: 2
#     Edge 7, Type (0, 1), BuildingBlock: FUNLAD_clean_linker_0, # of connection points: 2
#     Edge 8, Type (0, 1), BuildingBlock: FUNLAD_clean_linker_0, # of connection points: 2
#     Edge 9, Type (0, 1), BuildingBlock: FUNLAD_clean_linker_0, # of connection points: 2
#     Edge 10, Type (0, 1), BuildingBlock: FUNLAD_clean_linker_0, # of connection points: 2
# Relax obj value: 0.025
# Max RMSD: 0.105
# Mean RMSD: 0.103
data_MOF--net-scu--node1-TAGTUT_clean_sbu_3--node2-ESEHIV_clean_sbu_0--edge1-FUNLAD_clean_linker_0
_symmetry_space_group_name_H-M    P1
_symmetry_Int_Tables_number       1
_symmetry_cell_setting            triclinic
loop_
_symmetry_equiv_pos_as_xyz
'x, y, z'
_cell_length_a     32.521665
_cell_length_b     27.86553
_cell_length_c     23.303998
_cell_angle_alpha  93.7825
_cell_angle_beta   94.919817
_cell_angle_gamma 89.783085
loop_
_atom_site_label
_atom_site_type_symbol
_atom_site_fract_x
_atom_site_fract_y
_atom_site_fract_z
_atom_type_partial_charge
C0 C 1.00631 0.92897 0.08309 0.0
C1 C 0.85204 0.98739 0.06869 0.0
C2 C 0.87801 0.03196 0.90123 0.0
Mg3 Mg 0.08491 0.96391 0.02291 0.0
Mg4 Mg 0.09826 0.07603 0.99316 0.0
O5 O 0.06312 0.02244 0.98399 0.0
Mg6 Mg 1.0047 0.02354 0.00707 0.0
O7 O 0.94684 0.01686 0.0305 0.0
Mg8 Mg 0.93001 0.95355 0.98801 0.0
Mg9 Mg 0.90761 0.06597 0.02472 0.0
C10 C 0.01439 0.12065 0.93586 0.0
O11 O 0.01284 0.08945 0.07414 0.0
O12 O 0.14226 0.96834 0.97011 0.0
O13 O 0.94863 0.12184 0.06583 0.0
O14 O 0.11965 0.00876 0.09901 0.0
O15 O 0.14709 0.04464 0.9454 0.0
O16 O 0.1224 0.08642 0.08237 0.0
O17 O 0.98947 0.96007 0.9411 0.0
O18 O 0.04909 0.92025 0.94751 0.0
C19 C 0.01204 0.92481 0.92504 0.0
C20 C 0.15968 1.00089 0.94387 0.0
O21 O 0.99143 0.08419 0.94329 0.0
O22 O 0.87278 0.95492 0.04192 0.0
O23 O 0.05257 0.12462 0.95526 0.0
O24 O 0.89109 0.99042 0.91469 0.0
O25 O 0.86043 0.03237 0.06882 0.0
O26 O 0.88435 0.069 0.93597 0.0
O27 O 0.02479 0.96651 0.06956 0.0
O28 O 0.97014 0.91768 0.06003 0.0
C29 C 0.13031 0.05203 0.11511 0.0
C30 C 0.98709 0.12378 0.08429 0.0
Cu31 Cu 0.04274 0.5418 0.51586 0.0
N32 N 0.05921 0.51238 0.58379 0.0
N33 N 0.05813 0.4584 0.65046 0.0
C34 C 0.04551 0.46907 0.59617 0.0
C35 C 0.08074 0.49668 0.67327 0.0
C36 C 0.08138 0.53 0.6319 0.0
O37 O 0.0296 0.49087 0.45602 0.0
C38 C 0.97761 0.58617 0.57475 0.0
O39 O 0.97809 0.54753 0.60416 0.0
H40 H 0.02491 0.44688 0.56669 0.0
H41 H 0.09576 0.56513 0.6371 0.0
N42 N 0.08375 0.57985 0.49045 0.0
N43 N 0.10823 0.63531 0.43725 0.0
C44 C 0.07501 0.61895 0.46078 0.0
C45 C 0.12421 0.57137 0.48622 0.0
C46 C 0.13937 0.60545 0.45289 0.0
C47 C 0.05787 0.4595 0.45043 0.0
O48 O 0.09229 0.46425 0.48416 0.0
H49 H 0.04406 0.63284 0.45274 0.0
H50 H 0.14095 0.54109 0.50323 0.0
O51 O 0.99835 0.58651 0.53087 0.0
H52 H 0.09533 0.50061 0.71684 0.0
H53 H 0.1703 0.60698 0.43924 0.0
Cu54 Cu 0.50206 0.97766 0.48833 0.0
N55 N 0.47323 0.94208 0.53718 0.0
N56 N 0.42792 0.92868 0.60122 0.0
C57 C 0.44784 0.96203 0.57458 0.0
C58 C 0.44191 0.88586 0.58039 0.0
C59 C 0.46981 0.89425 0.54057 0.0
O60 O 0.46376 0.026 0.45768 0.0
C61 C 0.57577 0.96835 0.55085 0.0
O62 O 0.56443 0.9236 0.53681 0.0
H63 H 0.4434 1.00047 0.58089 0.0
H64 H 0.4855 0.86747 0.51475 0.0
N65 N 0.51902 0.94032 0.42515 0.0
N66 N 0.55669 0.91962 0.35168 0.0
C67 C 0.55481 0.94659 0.40157 0.0
C68 C 0.49743 0.9081 0.38901 0.0
C69 C 0.5206 0.89537 0.34337 0.0
C70 C 0.42724 0.01079 0.44226 0.0
O71 O 0.41842 0.9654 0.44719 0.0
H72 H 0.57803 0.97259 0.41898 0.0
H73 H 0.46643 0.89623 0.3942 0.0
O74 O 0.5519 0.00186 0.53356 0.0
H75 H 0.43149 0.85103 0.59131 0.0
H76 H 0.51127 0.87118 0.30632 0.0
C77 C 0.03493 0.16799 0.1605 0.0
C78 C 1.00123 0.16808 0.11858 0.0
C79 C 0.04453 0.20934 0.19674 0.0
C80 C 0.02073 0.25149 0.19109 0.0
C81 C 0.98882 0.25214 0.1468 0.0
C82 C 0.97897 0.21092 0.1113 0.0
C83 C 0.02722 0.29527 0.23078 0.0
C84 C 0.04318 0.29429 0.28587 0.0
C85 C 0.04608 0.33759 0.32675 0.0
C86 C 0.07734 0.33953 0.37208 0.0
C87 C 0.08093 0.37917 0.41196 0.0
C88 C 0.05284 0.41757 0.40807 0.0
H89 H 0.99217 0.37477 0.28977 0.0
C90 C 0.02088 0.41533 0.36348 0.0
C91 C 0.01754 0.37573 0.32305 0.0
H92 H 0.99865 0.44423 0.35962 0.0
H93 H 0.05291 0.13564 0.16659 0.0
H94 H 0.07035 0.208 0.2291 0.0
H95 H 0.97043 0.28423 0.14084 0.0
H96 H 0.95333 0.21248 0.07856 0.0
H97 H 0.01604 0.32909 0.21479 0.0
H98 H 0.05467 0.26072 0.30216 0.0
H99 H 0.09936 0.31042 0.37639 0.0
H100 H 0.10573 0.37951 0.44612 0.0
C101 C 0.78555 0.00445 0.11312 0.0
C102 C 0.81775 0.9724 0.10152 0.0
C103 C 0.7537 0.99082 0.14539 0.0
C104 C 0.75373 0.94505 0.1675 0.0
C105 C 0.78602 0.91317 0.15629 0.0
C106 C 0.81741 0.92641 0.12293 0.0
C107 C 0.72187 0.93106 0.20529 0.0
C108 C 0.68218 0.94491 0.19741 0.0
C109 C 0.65075 0.93387 0.23731 0.0
C110 C 0.60932 0.92789 0.21562 0.0
C111 C 0.5786 0.92112 0.25288 0.0
C112 C 0.58862 0.92149 0.31274 0.0
H113 H 0.69241 0.93841 0.31545 0.0
C114 C 0.63011 0.92703 0.33443 0.0
C115 C 0.66093 0.93285 0.29712 0.0
H116 H 0.63857 0.92746 0.38042 0.0
H117 H 0.78496 0.04015 0.09727 0.0
H118 H 0.72976 0.01666 0.15439 0.0
H119 H 0.78694 0.8779 0.17335 0.0
H120 H 0.84196 0.90105 0.11515 0.0
H121 H 0.73122 0.90762 0.23952 0.0
H122 H 0.67204 0.96422 0.15971 0.0
H123 H 0.60064 0.92899 0.16979 0.0
H124 H 0.54681 0.91755 0.23514 0.0
C125 C 0.01539 0.84965 0.12739 0.0
C126 C 0.02695 0.89809 0.12619 0.0
C127 C 0.03314 0.82122 0.17017 0.0
C128 C 0.06239 0.84088 0.21322 0.0
C129 C 0.07412 0.88919 0.21185 0.0
C130 C 0.05704 0.91735 0.16828 0.0
C131 C 0.07815 0.81283 0.26252 0.0
C132 C 0.08553 0.76524 0.25687 0.0
C133 C 0.09596 0.73567 0.30688 0.0
C134 C 0.12039 0.69437 0.29984 0.0
C135 C 0.1266 0.66279 0.3441 0.0
C136 C 0.10752 0.67131 0.39563 0.0
H137 H 0.05867 0.77619 0.36603 0.0
C138 C 0.08391 0.71319 0.40325 0.0
C139 C 0.07841 0.74527 0.35956 0.0
H140 H 0.06878 0.72033 0.44255 0.0
H141 H 0.99228 0.8338 0.09557 0.0
H142 H 0.02274 0.7844 0.17075 0.0
H143 H 0.0963 0.9053 0.24484 0.0
H144 H 0.06634 0.95467 0.16876 0.0
H145 H 0.0839 0.83206 0.30454 0.0
H146 H 0.08366 0.74704 0.214 0.0
H147 H 0.13391 0.68593 0.25949 0.0
H148 H 0.14444 0.63041 0.33687 0.0
C149 C 0.18318 0.10088 0.17907 0.0
C150 C 0.15679 0.06066 0.16993 0.0
C151 C 0.21348 0.10418 0.22582 0.0
C152 C 0.21774 0.06739 0.26455 0.0
C153 C 0.1894 0.02908 0.25748 0.0
C154 C 0.15954 0.02553 0.21063 0.0
C155 C 0.25186 0.06588 0.31144 0.0
C156 C 0.28862 0.08846 0.31153 0.0
C157 C 0.325 0.07753 0.3523 0.0
C158 C 0.36513 0.08411 0.33567 0.0
C159 C 0.39962 0.06634 0.36802 0.0
C160 C 0.39435 0.04161 0.41738 0.0
H161 H 0.29067 0.05352 0.42141 0.0
C162 C 0.35482 0.03868 0.4367 0.0
C163 C 0.32059 0.05712 0.40515 0.0
H164 H 0.35013 0.02009 0.47505 0.0
H165 H 0.18177 0.12869 0.14861 0.0
H166 H 0.23383 0.13507 0.23072 0.0
H167 H 0.19145 1.0005 0.28696 0.0
H168 H 0.13952 0.99429 0.20527 0.0
H169 H 0.24789 0.04034 0.34369 0.0
H170 H 0.29394 0.11105 0.27669 0.0
H171 H 0.36963 0.10034 0.29569 0.0
H172 H 0.42982 0.06866 0.35207 0.0
C173 C 0.0227 0.85984 0.84884 0.0
C174 C 0.99541 0.88809 0.88027 0.0
C175 C 1.00775 0.82475 0.80683 0.0
C176 C 0.9651 0.81663 0.79562 0.0
C177 C 0.93771 0.84443 0.82731 0.0
C178 C 0.95268 0.8804 0.86867 0.0
C179 C 0.94937 0.77701 0.75383 0.0
C180 C 0.96717 0.76637 0.70447 0.0
C181 C 0.95937 0.72154 0.66691 0.0
C182 C 0.97173 0.71988 0.61057 0.0
C183 C 0.97385 0.67609 0.57812 0.0
C184 C 0.96423 0.63275 0.60173 0.0
H185 H 0.93683 0.67836 0.73203 0.0
C186 C 0.94848 0.63482 0.65621 0.0
C187 C 0.9461 0.67876 0.68857 0.0
H188 H 0.94068 0.60217 0.67566 0.0
H189 H 0.05578 0.86486 0.85663 0.0
H190 H 0.02975 0.80308 0.78424 0.0
H191 H 0.90473 0.83843 0.8199 0.0
H192 H 0.93087 0.9014 0.8923 0.0
H193 H 0.92343 0.75596 0.76462 0.0
H194 H 0.99045 0.79077 0.6922 0.0
H195 H 0.98206 0.75225 0.59275 0.0
H196 H 0.98589 0.67601 0.53619 0.0
C197 C 0.21518 0.02213 0.88134 0.0
C198 C 0.19468 0.98718 0.90921 0.0
C199 C 0.24702 0.00913 0.8468 0.0
C200 C 0.25895 0.96068 0.83877 0.0
C201 C 0.23935 0.92597 0.86798 0.0
C202 C 0.20747 0.93897 0.9026 0.0
C203 C 0.29208 0.94537 0.80113 0.0
C204 C 0.30091 0.96972 0.75553 0.0
C205 C 0.33379 0.95673 0.71635 0.0
C206 C 0.34026 0.98787 0.67297 0.0
C207 C 0.37084 0.97849 0.63532 0.0
C208 C 0.39593 0.93754 0.63982 0.0
H209 H 0.35491 0.88992 0.75284 0.0
C210 C 0.38927 0.90578 0.68251 0.0
C211 C 0.35864 0.91526 0.72056 0.0
H212 H 0.40821 0.87401 0.6871 0.0
H213 H 0.20662 0.05969 0.88602 0.0
H214 H 0.26241 0.03733 0.82705 0.0
H215 H 0.24823 0.8885 0.86321 0.0
H216 H 0.19257 0.91107 0.92362 0.0
H217 H 0.30826 0.91239 0.81064 0.0
H218 H 0.28267 0.00127 0.74552 0.0
H219 H 0.32159 0.01988 0.66814 0.0
H220 H 0.37447 0.0032 0.60217 0.0
C221 C 0.99121 0.15614 0.84335 0.0
C222 C 0.99752 0.16088 0.90373 0.0
C223 C 0.9879 0.19719 0.81157 0.0
C224 C 0.99089 0.24348 0.84 0.0
C225 C 0.99339 0.24772 0.90055 0.0
C226 C 0.99725 0.20682 0.93213 0.0
C227 C 0.9947 0.28795 0.80877 0.0
C228 C 0.01259 0.28861 0.75871 0.0
C229 C 0.023 0.33357 0.73186 0.0
C230 C 0.02756 0.33152 0.67241 0.0
C231 C 0.03917 0.37233 0.6459 0.0
C232 C 0.04712 0.41614 0.67839 0.0
H233 H 0.02949 0.38014 0.81083 0.0
C234 C 0.04323 0.41813 0.73809 0.0
C235 C 0.03126 0.37735 0.76459 0.0
H236 H 0.04899 0.45136 0.76426 0.0
H237 H 0.99183 0.12096 0.82068 0.0
H238 H 0.98456 0.19249 0.76495 0.0
H239 H 0.99527 0.28283 0.92357 0.0
H240 H 1.00258 0.21119 0.97873 0.0
H241 H 0.98597 0.32162 0.83056 0.0
H242 H 0.02133 0.25496 0.73687 0.0
H243 H 0.02209 0.29816 0.64629 0.0
H244 H 0.04246 0.36941 0.59998 0.0
C245 C 0.84375 0.9957 0.80793 0.0
C246 C 0.8504 0.03577 0.84752 0.0
C247 C 0.81262 0.99628 0.76272 0.0
C248 C 0.78695 0.03679 0.75639 0.0
C249 C 0.79565 0.07807 0.79322 0.0
C250 C 0.82696 0.0776 0.8384 0.0
C251 C 0.75008 0.03632 0.7135 0.0
C252 C 0.72884 0.99556 0.69679 0.0
C253 C 0.69042 0.99179 0.6569 0.0
C254 C 0.67712 0.9455 0.63645 0.0
C255 C 0.64039 0.93856 0.60165 0.0
C256 C 0.61546 0.97777 0.58621 0.0
H257 H 0.67461 0.06778 0.65628 0.0
C258 C 0.62874 0.02445 0.60579 0.0
C259 C 0.66592 0.03148 0.64092 0.0
H260 H 0.61019 0.0554 0.59471 0.0
H261 H 0.86169 0.96317 0.81292 0.0
H262 H 0.80834 0.96452 0.73353 0.0
H263 H 0.77693 0.11007 0.78877 0.0
H264 H 0.83139 0.10928 0.86776 0.0
H265 H 0.73917 0.07049 0.69844 0.0
H266 H 0.73973 0.96217 0.71426 0.0
H267 H 0.69512 0.91418 0.64786 0.0
H268 H 0.63141 0.90203 0.58734 0.0
loop_
_geom_bond_atom_site_label_1
_geom_bond_atom_site_label_2
_geom_bond_distance
_geom_bond_site_symmetry_2
_ccdc_geom_bond_type
C0 O27 1.312 1_655 S
C0 O28 1.208 . S
C1 O22 1.331 1_545 S
C1 O25 1.244 . S
C2 O24 1.264 1_545 S
C2 O26 1.273 . S
Mg3 O5 1.936 1_564 S
Mg3 O12 2.081 1_554 S
Mg3 O14 2.023 . S
Mg3 O18 2.031 1_554 S
Mg3 O27 2.291 . S
Mg4 O5 1.963 . S
Mg4 O15 1.942 . S
Mg4 O16 1.955 1_556 S
Mg4 O23 1.986 . S
O5 Mg3 1.936 1_546 S
O5 Mg4 1.963 . S
O5 Mg6 1.915 1_556 S
Mg6 O5 1.915 1_554 S
Mg6 O7 1.915 1_455 S
Mg6 O11 2.013 . S
Mg6 O17 2.114 1_444 S
Mg6 O21 2.013 1_454 S
Mg6 O27 2.114 1_545 S
O7 Mg6 1.915 1_655 S
O7 Mg8 1.932 1_544 S
O7 Mg9 1.963 . S
Mg8 O7 1.932 1_566 S
Mg8 O17 2.303 . S
Mg8 O22 2.067 1_556 S
Mg8 O24 2.038 . S
Mg8 O28 2.017 1_556 S
Mg9 O7 1.963 . S
Mg9 O13 1.986 . S
Mg9 O25 1.942 . S
Mg9 O26 1.955 1_554 S
C10 O21 1.191 1_455 S
C10 O23 1.307 . S
O11 Mg6 2.013 . S
O11 C30 1.191 1_455 S
O12 Mg3 2.081 1_556 S
O12 C20 1.331 . S
O13 Mg9 1.986 . S
O13 C30 1.307 . S
O14 Mg3 2.023 . S
O14 C29 1.264 1_565 S
O15 Mg4 1.942 . S
O15 C20 1.244 1_545 S
O16 Mg4 1.955 1_554 S
O16 C29 1.273 . S
O17 Mg6 2.114 1_666 S
O17 Mg8 2.303 . S
O17 C19 1.312 1_655 S
O18 Mg3 2.031 1_556 S
O18 C19 1.208 . S
C19 O17 1.312 1_455 S
C19 O18 1.208 . S
C20 O12 1.331 . S
C20 O15 1.244 1_565 S
O21 Mg6 2.013 1_656 S
O21 C10 1.191 1_655 S
O22 C1 1.331 1_565 S
O22 Mg8 2.067 1_554 S
O23 Mg4 1.986 . S
O23 C10 1.307 . S
O24 C2 1.264 1_565 S
O24 Mg8 2.038 . S
O25 C1 1.244 . S
O25 Mg9 1.942 . S
O26 C2 1.273 . S
O26 Mg9 1.955 1_556 S
O27 C0 1.312 1_455 S
O27 Mg3 2.291 . S
O27 Mg6 2.114 1_565 S
O28 C0 1.208 . S
O28 Mg8 2.017 1_554 S
C29 O14 1.264 1_545 S
C29 O16 1.273 . S
C30 O11 1.191 1_655 S
C30 O13 1.307 . S
Cu31 N32 1.999 . S
Cu31 O37 1.974 . S
Cu31 N42 1.985 . S
Cu31 O51 1.959 . S
N32 Cu31 1.999 . S
N32 C34 1.263 . S
N32 C36 1.389 . S
N33 C34 1.358 . S
N33 C35 1.400 . S
C34 N32 1.263 . S
C34 N33 1.358 . S
C34 H40 0.930 1_655 S
C35 N33 1.400 . S
C35 C36 1.351 . S
C35 H52 0.930 . S
C36 N32 1.389 . S
C36 C35 1.351 . S
C36 H41 0.930 . S
O37 Cu31 1.974 . S
O37 C47 1.282 1_655 S
C38 O39 1.261 . S
C38 O51 1.251 1_455 S
O39 C38 1.261 . S
H40 C34 0.930 1_455 S
H41 C36 0.930 . S
N42 Cu31 1.985 . S
N42 C44 1.335 . S
N42 C45 1.390 1_655 S
N43 C44 1.345 . S
N43 C46 1.336 1_655 S
C44 N42 1.335 . S
C44 N43 1.345 . S
C44 H49 0.930 . S
C45 N42 1.390 1_455 S
C45 C46 1.346 . S
C45 H50 0.930 . S
C46 N43 1.336 1_455 S
C46 C45 1.346 . S
C46 H53 0.929 . S
C47 O37 1.282 1_455 S
C47 O48 1.216 . S
O48 C47 1.216 . S
H49 C44 0.930 . S
H50 C45 0.930 . S
O51 Cu31 1.959 . S
O51 C38 1.251 1_655 S
H52 C35 0.930 . S
H53 C46 0.929 . S
Cu54 N55 1.999 . S
Cu54 O60 1.974 . S
Cu54 N65 1.985 . S
Cu54 O74 1.959 . S
N55 Cu54 1.999 . S
N55 C57 1.263 . S
N55 C59 1.389 . S
N56 C57 1.358 . S
N56 C58 1.400 . S
C57 N55 1.263 . S
C57 N56 1.358 . S
C57 H63 0.930 1_545 S
C58 N56 1.400 . S
C58 C59 1.351 . S
C58 H75 0.930 . S
C59 N55 1.389 . S
C59 C58 1.351 . S
C59 H64 0.930 . S
O60 Cu54 1.974 . S
O60 C70 1.282 1_545 S
C61 O62 1.261 . S
C61 O74 1.251 1_565 S
O62 C61 1.261 . S
H63 C57 0.930 1_565 S
H64 C59 0.930 . S
N65 Cu54 1.985 . S
N65 C67 1.335 . S
N65 C68 1.390 1_545 S
N66 C67 1.345 . S
N66 C69 1.336 1_545 S
C67 N65 1.335 . S
C67 N66 1.345 . S
C67 H72 0.930 . S
C68 N65 1.390 1_565 S
C68 C69 1.346 . S
C68 H73 0.930 . S
C69 N66 1.336 1_565 S
C69 C68 1.346 . S
C69 H76 0.929 . S
C70 O60 1.282 1_565 S
C70 O71 1.216 . S
O71 C70 1.216 . S
H72 C67 0.930 . S
H73 C68 0.930 . S
O74 Cu54 1.959 . S
O74 C61 1.251 1_545 S
H75 C58 0.930 . S
H76 C69 0.929 . S
C77 C78 1.386 . S
C77 C79 1.383 . S
C77 H93 0.951 . S
C78 C77 1.386 . S
C78 C82 1.383 1_455 S
C79 C77 1.383 . S
C79 C80 1.408 . S
C79 H94 0.951 . S
C80 C79 1.408 . S
C80 C81 1.370 1_455 S
C80 C83 1.480 1_455 S
C81 C80 1.370 1_655 S
C81 C82 1.367 . S
C81 H95 0.951 . S
C82 C78 1.383 1_655 S
C82 C81 1.367 . S
C82 H96 0.950 . S
C83 C80 1.480 1_655 S
C83 C84 1.297 1_655 S
C83 H97 0.950 . S
C84 C83 1.297 1_455 S
C84 C85 1.479 . S
C84 H98 0.950 . S
C85 C84 1.479 . S
C85 C86 1.375 . S
C85 C91 1.404 1_455 S
C86 C85 1.375 . S
C86 C87 1.369 . S
C86 H99 0.950 . S
C87 C86 1.369 . S
C87 C88 1.392 . S
C87 H100 0.951 . S
C88 C87 1.392 . S
C88 C90 1.384 1_455 S
H89 C91 0.949 . S
C90 C88 1.384 1_655 S
C90 C91 1.385 . S
C90 H92 0.950 . S
C91 C85 1.404 1_655 S
C91 H89 0.949 . S
C91 C90 1.385 . S
H92 C90 0.950 . S
H93 C77 0.951 . S
H94 C79 0.951 . S
H95 C81 0.951 . S
H96 C82 0.950 . S
H97 C83 0.950 . S
H98 C84 0.950 . S
H99 C86 0.950 . S
H100 C87 0.951 . S
C101 C102 1.386 1_545 S
C101 C103 1.382 1_545 S
C101 H117 0.951 . S
C102 C101 1.386 1_565 S
C102 C106 1.383 . S
C103 C101 1.382 1_565 S
C103 C104 1.403 . S
C103 H118 0.950 1_565 S
C104 C103 1.403 . S
C104 C105 1.375 . S
C104 C107 1.481 . S
C105 C104 1.375 . S
C105 C106 1.367 . S
C105 H119 0.951 . S
C106 C102 1.383 . S
C106 C105 1.367 . S
C106 H120 0.950 . S
C107 C104 1.481 . S
C107 C108 1.297 . S
C107 H121 0.950 . S
C108 C107 1.297 . S
C108 C109 1.479 . S
C108 H122 0.950 . S
C109 C108 1.479 . S
C109 C110 1.375 1_565 S
C109 C115 1.404 . S
C110 C109 1.375 1_545 S
C110 C111 1.369 . S
C110 H123 0.950 . S
C111 C110 1.369 . S
C111 C112 1.392 . S
C111 H124 0.951 . S
C112 C111 1.392 . S
C112 C114 1.384 1_545 S
H113 C115 0.949 . S
C114 C112 1.384 1_565 S
C114 C115 1.385 . S
C114 H116 0.950 . S
C115 C109 1.404 . S
C115 H113 0.949 . S
C115 C114 1.385 . S
H116 C114 0.950 . S
H117 C101 0.951 . S
H118 C103 0.950 1_545 S
H119 C105 0.951 . S
H120 C106 0.950 . S
H121 C107 0.950 . S
H122 C108 0.950 . S
H123 C110 0.950 . S
H124 C111 0.951 . S
C125 C126 1.386 . S
C125 C127 1.383 . S
C125 H141 0.951 . S
C126 C125 1.386 . S
C126 C130 1.383 1_455 S
C127 C125 1.383 . S
C127 C128 1.402 . S
C127 H142 0.951 . S
C128 C127 1.402 . S
C128 C129 1.375 1_455 S
C128 C131 1.481 . S
C129 C128 1.375 1_655 S
C129 C130 1.367 . S
C129 H143 0.951 . S
C130 C126 1.383 1_655 S
C130 C129 1.367 . S
C130 H144 0.950 . S
C131 C128 1.481 . S
C131 C132 1.297 . S
C131 H145 0.950 1_455 S
C132 C131 1.297 . S
C132 C133 1.479 . S
C132 H146 0.950 . S
C133 C132 1.479 . S
C133 C134 1.375 . S
C133 C139 1.404 . S
C134 C133 1.375 . S
C134 C135 1.369 . S
C134 H147 0.950 . S
C135 C134 1.369 . S
C135 C136 1.392 1_455 S
C135 H148 0.951 . S
C136 C135 1.392 1_655 S
C136 C138 1.384 . S
H137 C139 0.949 . S
C138 C136 1.384 . S
C138 C139 1.385 1_655 S
C138 H140 0.950 . S
C139 C133 1.404 . S
C139 H137 0.949 . S
C139 C138 1.385 1_455 S
H140 C138 0.950 . S
H141 C125 0.951 . S
H142 C127 0.951 . S
H143 C129 0.951 . S
H144 C130 0.950 . S
H145 C131 0.950 1_655 S
H146 C132 0.950 . S
H147 C134 0.950 . S
H148 C135 0.951 . S
C149 C150 1.386 . S
C149 C151 1.383 . S
C149 H165 0.951 . S
C150 C149 1.386 . S
C150 C154 1.383 1_545 S
C151 C149 1.383 . S
C151 C152 1.402 . S
C151 H166 0.951 . S
C152 C151 1.402 . S
C152 C153 1.375 1_545 S
C152 C155 1.481 1_545 S
C153 C152 1.375 1_565 S
C153 C154 1.367 . S
C153 H167 0.951 . S
C154 C150 1.383 1_565 S
C154 C153 1.367 . S
C154 H168 0.950 . S
C155 C152 1.481 1_565 S
C155 C156 1.297 1_565 S
C155 H169 0.950 . S
C156 C155 1.297 1_545 S
C156 C157 1.479 . S
C156 H170 0.950 . S
C157 C156 1.479 . S
C157 C158 1.375 . S
C157 C163 1.404 1_545 S
C158 C157 1.375 . S
C158 C159 1.369 . S
C158 H171 0.950 . S
C159 C158 1.369 . S
C159 C160 1.392 1_545 S
C159 H172 0.951 . S
C160 C159 1.392 1_565 S
C160 C162 1.384 . S
H161 C163 0.949 . S
C162 C160 1.384 . S
C162 C163 1.385 . S
C162 H164 0.950 . S
C163 C157 1.404 1_565 S
C163 H161 0.949 . S
C163 C162 1.385 . S
H164 C162 0.950 . S
H165 C149 0.951 . S
H166 C151 0.951 . S
H167 C153 0.951 . S
H168 C154 0.950 . S
H169 C155 0.950 . S
H170 C156 0.950 . S
H171 C158 0.950 . S
H172 C159 0.951 . S
C173 C174 1.386 1_455 S
C173 C175 1.383 . S
C173 H189 0.951 . S
C174 C173 1.386 1_655 S
C174 C178 1.383 . S
C175 C173 1.383 . S
C175 C176 1.402 . S
C175 H190 0.951 . S
C176 C175 1.402 . S
C176 C177 1.375 1_455 S
C176 C179 1.481 . S
C177 C176 1.375 1_655 S
C177 C178 1.367 . S
C177 H191 0.951 . S
C178 C174 1.383 . S
C178 C177 1.367 . S
C178 H192 0.950 . S
C179 C176 1.481 . S
C179 C180 1.297 . S
C179 H193 0.950 1_455 S
C180 C179 1.297 . S
C180 C181 1.479 . S
C180 H194 0.950 . S
C181 C180 1.479 . S
C181 C182 1.375 . S
C181 C187 1.406 . S
C182 C181 1.375 . S
C182 C183 1.369 . S
C182 H195 0.950 . S
C183 C182 1.369 . S
C183 C184 1.392 . S
C183 H196 0.951 . S
C184 C183 1.392 . S
C184 C186 1.384 1_455 S
H185 C187 0.946 1_655 S
C186 C184 1.384 1_655 S
C186 C187 1.385 1_655 S
C186 H188 0.950 . S
C187 C181 1.406 . S
C187 H185 0.946 1_455 S
C187 C186 1.385 1_455 S
H188 C186 0.950 . S
H189 C173 0.951 . S
H190 C175 0.951 . S
H191 C177 0.951 . S
H192 C178 0.950 . S
H193 C179 0.950 1_655 S
H194 C180 0.950 . S
H195 C182 0.950 . S
H196 C183 0.951 . S
C197 C198 1.386 1_545 S
C197 C199 1.383 . S
C197 H213 0.951 . S
C198 C197 1.386 1_565 S
C198 C202 1.383 . S
C199 C197 1.383 . S
C199 C200 1.402 1_545 S
C199 H214 0.951 . S
C200 C199 1.402 1_565 S
C200 C201 1.375 . S
C200 C203 1.481 . S
C201 C200 1.375 . S
C201 C202 1.367 . S
C201 H215 0.951 . S
C202 C198 1.383 . S
C202 C201 1.367 . S
C202 H216 0.950 . S
C203 C200 1.481 . S
C203 C204 1.297 1_565 S
C203 H217 0.950 . S
C204 C203 1.297 1_545 S
C204 C205 1.479 . S
C204 H218 0.950 . S
C205 C204 1.479 . S
C205 C206 1.375 . S
C205 C211 1.404 1_545 S
C206 C205 1.375 . S
C206 C207 1.369 . S
C206 H219 0.950 . S
C207 C206 1.369 . S
C207 C208 1.392 . S
C207 H220 0.951 . S
C208 C207 1.392 . S
C208 C210 1.384 1_545 S
H209 C211 0.949 . S
C210 C208 1.384 1_565 S
C210 C211 1.385 . S
C210 H212 0.950 . S
C211 C205 1.404 1_565 S
C211 H209 0.949 . S
C211 C210 1.385 . S
H212 C210 0.950 . S
H213 C197 0.951 . S
H214 C199 0.951 . S
H215 C201 0.951 . S
H216 C202 0.950 . S
H217 C203 0.950 . S
H218 C204 0.950 . S
H219 C206 0.950 . S
H220 C207 0.951 . S
C221 C222 1.365 1_455 S
C221 C223 1.383 . S
C221 H237 0.951 . S
C222 C221 1.365 1_655 S
C222 C226 1.404 . S
C223 C221 1.383 . S
C223 C224 1.402 1_455 S
C223 H238 0.951 . S
C224 C223 1.402 1_655 S
C224 C225 1.375 . S
C224 C227 1.481 . S
C225 C224 1.375 . S
C225 C226 1.367 . S
C225 H239 0.951 . S
C226 C222 1.404 . S
C226 C225 1.367 . S
C226 H240 0.950 . S
C227 C224 1.481 . S
C227 C228 1.297 1_655 S
C227 H241 0.950 . S
C228 C227 1.297 1_455 S
C228 C229 1.479 . S
C228 H242 0.950 . S
C229 C228 1.479 . S
C229 C230 1.375 . S
C229 C235 1.404 1_455 S
C230 C229 1.375 . S
C230 C231 1.369 . S
C230 H243 0.950 . S
C231 C230 1.369 . S
C231 C232 1.392 1_455 S
C231 H244 0.951 . S
C232 C231 1.392 1_655 S
C232 C234 1.384 . S
H233 C235 0.949 . S
C234 C232 1.384 . S
C234 C235 1.385 . S
C234 H236 0.950 . S
C235 C229 1.404 1_655 S
C235 H233 0.949 . S
C235 C234 1.385 . S
H236 C234 0.950 . S
H237 C221 0.951 . S
H238 C223 0.951 . S
H239 C225 0.951 . S
H240 C226 0.950 . S
H241 C227 0.950 . S
H242 C228 0.950 . S
H243 C230 0.950 . S
H244 C231 0.951 . S
C245 C246 1.386 1_565 S
C245 C247 1.383 . S
C245 H261 0.951 . S
C246 C245 1.386 1_545 S
C246 C250 1.383 . S
C247 C245 1.383 . S
C247 C248 1.402 1_565 S
C247 H262 0.951 . S
C248 C247 1.402 1_545 S
C248 C249 1.375 . S
C248 C251 1.481 . S
C249 C248 1.375 . S
C249 C250 1.367 . S
C249 H263 0.951 . S
C250 C246 1.383 . S
C250 C249 1.367 . S
C250 H264 0.950 . S
C251 C248 1.481 . S
C251 C252 1.297 . S
C251 H265 0.950 . S
C252 C251 1.297 . S
C252 C253 1.479 . S
C252 H266 0.950 1_545 S
C253 C252 1.479 . S
C253 C254 1.375 1_545 S
C253 C259 1.404 . S
C254 C253 1.375 1_565 S
C254 C255 1.369 . S
C254 H267 0.950 . S
C255 C254 1.369 . S
C255 C256 1.392 . S
C255 H268 0.951 . S
C256 C255 1.392 . S
C256 C258 1.384 1_565 S
H257 C259 0.949 . S
C258 C256 1.384 1_545 S
C258 C259 1.385 . S
C258 H260 0.950 . S
C259 C253 1.404 . S
C259 H257 0.949 . S
C259 C258 1.385 . S
H260 C258 0.950 . S
H261 C245 0.951 . S
H262 C247 0.951 . S
H263 C249 0.951 . S
H264 C250 0.950 . S
H265 C251 0.950 . S
H266 C252 0.950 1_565 S
H267 C254 0.950 . S
H268 C255 0.951 . S
C78 C30 1.320 1_455 S
C88 C47 1.350 . S
C102 C1 1.496 1_565 S
C112 N66 1.435 . S
C126 C0 1.281 1_455 S
C136 N43 1.252 . S
C150 C29 1.649 . S
C160 C70 1.673 . S
C174 C19 1.344 1_655 S
C184 C38 1.432 . S
C198 C20 1.505 . S
C208 N56 1.482 . S
C232 N33 1.328 . S
C222 C10 1.310 1_655 S
C246 C2 1.676 . S
C256 C61 1.695 . S
