# Generated by pormake.
# Topology ssa, (4,4)-cn, num edge types: 1
# Building blocks:
#     Node 0, Type 0, BuildingBlock: NAWXER_clean_sbu_0, # of connection points: 4
#     Node 1, Type 0, BuildingBlock: NAWXER_clean_sbu_0, # of connection points: 4
#     Node 2, Type 0, BuildingBlock: NAWXER_clean_sbu_0, # of connection points: 4
#     Node 3, Type 0, BuildingBlock: NAWXER_clean_sbu_0, # of connection points: 4
#     Node 4, Type 0, BuildingBlock: NAWXER_clean_sbu_0, # of connection points: 4
#     Node 5, Type 0, BuildingBlock: NAWXER_clean_sbu_0, # of connection points: 4
#     Node 6, Type 1, BuildingBlock: KOZSID_clean_sbu_0, # of connection points: 4
#     Node 7, Type 1, BuildingBlock: KOZSID_clean_sbu_0, # of connection points: 4
#     Node 8, Type 1, BuildingBlock: KOZSID_clean_sbu_0, # of connection points: 4
#     Node 9, Type 1, BuildingBlock: KOZSID_clean_sbu_0, # of connection points: 4
#     Node 10, Type 1, BuildingBlock: KOZSID_clean_sbu_0, # of connection points: 4
#     Node 11, Type 1, BuildingBlock: KOZSID_clean_sbu_0, # of connection points: 4
#     Edge 12, Type (0, 1), None
#     Edge 13, Type (0, 1), None
#     Edge 14, Type (0, 1), None
#     Edge 15, Type (0, 1), None
#     Edge 16, Type (0, 1), None
#     Edge 17, Type (0, 1), None
#     Edge 18, Type (0, 1), None
#     Edge 19, Type (0, 1), None
#     Edge 20, Type (0, 1), None
#     Edge 21, Type (0, 1), None
#     Edge 22, Type (0, 1), None
#     Edge 23, Type (0, 1), None
#     Edge 24, Type (0, 1), None
#     Edge 25, Type (0, 1), None
#     Edge 26, Type (0, 1), None
#     Edge 27, Type (0, 1), None
#     Edge 28, Type (0, 1), None
#     Edge 29, Type (0, 1), None
#     Edge 30, Type (0, 1), None
#     Edge 31, Type (0, 1), None
#     Edge 32, Type (0, 1), None
#     Edge 33, Type (0, 1), None
#     Edge 34, Type (0, 1), None
#     Edge 35, Type (0, 1), None
# Relax obj value: 0.034
# Max RMSD: 0.086
# Mean RMSD: 0.039
data_MOF--net-ssa--node1-NAWXER_clean_sbu_0--node2-KOZSID_clean_sbu_0--edge1-none
_symmetry_space_group_name_H-M    P1
_symmetry_Int_Tables_number       1
_symmetry_cell_setting            triclinic
loop_
_symmetry_equiv_pos_as_xyz
'x, y, z'
_cell_length_a     25.982606
_cell_length_b     25.915828
_cell_length_c     18.077395
_cell_angle_alpha  96.613989
_cell_angle_beta   96.615556
_cell_angle_gamma 119.59061
loop_
_atom_site_label
_atom_site_type_symbol
_atom_site_fract_x
_atom_site_fract_y
_atom_site_fract_z
_atom_type_partial_charge
C0 C 0.08917 0.57461 0.03181 0.0
C1 C 0.93711 0.35764 0.94926 0.0
O2 O 0.05567 0.54992 0.07842 0.0
Zn3 Zn 0.98485 0.467 0.08986 0.0
O4 O 0.08895 0.54184 0.97299 0.0
Zn5 Zn 0.02615 0.4643 0.99008 0.0
O6 O 0.96131 0.49179 0.97578 0.0
O7 O 0.9224 0.4957 0.07547 0.0
O8 O 0.98188 0.38588 0.91758 0.0
O9 O 0.93516 0.38376 0.0123 0.0
O10 O 0.03061 0.44926 0.17597 0.0
O11 O 0.07639 0.45085 0.08141 0.0
C12 C 0.92551 0.50322 1.00673 0.0
C13 C 0.07266 0.44482 0.15013 0.0
C14 C 0.4682 0.10355 0.51133 0.0
C15 C 0.54058 0.96759 0.36737 0.0
O16 O 0.4675 0.05937 0.53634 0.0
Zn17 Zn 0.48504 0.9894 0.50958 0.0
O18 O 0.48233 0.11104 0.44595 0.0
Zn19 Zn 0.49789 0.03972 0.41484 0.0
O20 O 0.40948 0.96347 0.39454 0.0
O21 O 0.40155 0.9225 0.49562 0.0
O22 O 0.53533 0.0081 0.33791 0.0
O23 O 0.51993 0.95576 0.42796 0.0
O24 O 0.55667 0.02148 0.59223 0.0
O25 O 0.57297 0.07334 0.50012 0.0
C26 C 0.37746 0.92282 0.43012 0.0
C27 C 0.59232 0.06516 0.56282 0.0
C28 C 0.45718 0.42108 0.89129 0.0
C29 C 0.5452 0.63989 0.02861 0.0
O30 O 0.44586 0.45938 0.86634 0.0
Zn31 Zn 0.48785 0.52963 0.95949 0.0
O32 O 0.48126 0.43388 0.96193 0.0
Zn33 Zn 0.52518 0.51067 0.05792 0.0
O34 O 0.47491 0.48718 0.13663 0.0
O35 O 0.43246 0.5124 0.04641 0.0
O36 O 0.55076 0.60522 0.06992 0.0
O37 O 0.51559 0.61622 0.96026 0.0
O38 O 0.57264 0.53881 0.96114 0.0
O39 O 0.6062 0.51884 0.06509 0.0
C40 C 0.43382 0.49784 0.11196 0.0
C41 C 0.61245 0.53201 0.99941 0.0
C42 C 0.04808 0.59213 0.43056 0.0
C43 C 0.93488 0.42224 0.56792 0.0
O44 O 0.07362 0.60023 0.49942 0.0
Zn45 Zn 0.05665 0.55496 0.59456 0.0
O46 O 0.99522 0.54604 0.4057 0.0
Zn47 Zn 0.98329 0.50793 0.49766 0.0
O48 O 0.97161 0.56506 0.58123 0.0
O49 O 0.05251 0.60904 0.67299 0.0
O50 O 0.91542 0.42569 0.50155 0.0
O51 O 0.98512 0.46726 0.60626 0.0
O52 O 0.12414 0.54092 0.60548 0.0
O53 O 0.05325 0.48803 0.50207 0.0
C54 C 1.001 0.60061 0.64579 0.0
C55 C 0.10332 0.50189 0.54368 0.0
C56 C 0.54783 0.99295 0.07257 0.0
C57 C 0.44479 0.0837 0.93621 0.0
O58 O 0.55306 0.04214 0.10612 0.0
Zn59 Zn 0.49928 0.04651 0.02088 0.0
O60 O 0.51623 0.96796 1.00612 0.0
Zn61 Zn 0.46037 0.96812 0.9186 0.0
O62 O 0.51674 0.98149 0.84369 0.0
O63 O 0.55319 0.05897 0.93907 0.0
O64 O 0.43756 0.03335 0.90411 0.0
O65 O 0.47506 0.10735 1.00428 0.0
O66 O 0.42083 0.97126 0.03694 0.0
O67 O 0.38538 0.89569 0.9398 0.0
C68 C 0.55894 0.03499 0.8772 0.0
C69 C 0.38277 0.916 1.00659 0.0
C70 C 0.66106 0.59852 0.65031 0.0
C71 C 0.44473 0.51338 0.50595 0.0
O72 O 0.62294 0.60786 0.67908 0.0
Zn73 Zn 0.55325 0.57043 0.58412 0.0
O74 O 0.64737 0.57756 0.57883 0.0
Zn75 Zn 0.57463 0.53875 0.48207 0.0
O76 O 0.59539 0.59342 0.40937 0.0
O77 O 0.57056 0.6312 0.50473 0.0
O78 O 0.48161 0.51051 0.46741 0.0
O79 O 0.465 0.54185 0.57536 0.0
O80 O 0.54007 0.48264 0.57111 0.0
O81 O 0.56365 0.45677 0.46468 0.0
C82 C 0.58348 0.63267 0.43826 0.0
C83 C 0.5455 0.44449 0.52662 0.0
C84 C 0.16835 0.50672 0.2557 0.0
C85 C 0.15258 0.54974 0.27213 0.0
C86 C 0.19534 0.59239 0.33079 0.0
C87 C 0.23645 0.57497 0.3444 0.0
N88 N 0.22219 0.52229 0.3003 0.0
Co89 Co 0.2548 0.47132 0.33428 0.0
N90 N 0.32776 0.54296 0.40372 0.0
C91 C 0.3355 0.59836 0.42259 0.0
C92 C 0.38828 0.63923 0.47232 0.0
C93 C 0.41601 0.60772 0.48713 0.0
C94 C 0.37731 0.54868 0.4471 0.0
N95 N 0.28479 0.42042 0.37443 0.0
C96 C 0.33611 0.43603 0.42489 0.0
C97 C 0.33562 0.38485 0.44086 0.0
C98 C 0.28265 0.33575 0.39945 0.0
C99 C 0.25331 0.35946 0.36067 0.0
N100 N 0.18273 0.40128 0.26041 0.0
C101 C 0.16557 0.34266 0.25733 0.0
C102 C 0.11392 0.3037 0.20395 0.0
C103 C 0.09624 0.33968 0.17246 0.0
C104 C 0.1379 0.39893 0.20843 0.0
N105 N 0.30368 0.48195 0.25312 0.0
C106 C 0.38766 0.49308 0.15828 0.0
C107 C 0.3439 0.43672 0.169 0.0
C108 C 0.30262 0.43215 0.21532 0.0
C109 C 0.38736 0.54416 0.1943 0.0
C110 C 0.34505 0.53773 0.24117 0.0
N111 N 0.20713 0.45935 0.41586 0.0
C112 C 0.11045 0.43305 0.44537 0.0
C113 C 0.13838 0.47756 0.51161 0.0
C114 C 0.20047 0.50386 0.53674 0.0
C115 C 0.23376 0.49197 0.4889 0.0
C116 C 0.14534 0.42498 0.39832 0.0
H117 H 0.28133 0.51282 0.51017 0.0
H118 H 0.12046 0.39355 0.34607 0.0
H119 H 0.2715 0.38757 0.22231 0.0
H120 H 0.34723 0.57795 0.26974 0.0
C121 C 0.28955 0.60818 0.39798 0.0
C122 C 0.12643 0.44938 0.20288 0.0
C123 C 0.38454 0.49837 0.4624 0.0
C124 C 0.19871 0.32657 0.30689 0.0
H125 H 0.11254 0.54852 0.24652 0.0
H126 H 0.19724 0.63191 0.36038 0.0
H127 H 0.40345 0.68542 0.49823 0.0
H128 H 0.45777 0.62551 0.52747 0.0
H129 H 0.36946 0.38347 0.47989 0.0
H130 H 0.26751 0.28843 0.39773 0.0
H131 H 0.09059 0.25474 0.19127 0.0
H132 H 0.05518 0.32391 0.13149 0.0
H133 H 0.34199 0.39597 0.14244 0.0
H134 H 0.42109 0.58889 0.18873 0.0
H135 H 0.06187 0.40844 0.42579 0.0
H136 H 0.22365 0.53618 0.58997 0.0
C137 C 0.6667 0.17636 0.61938 0.0
C138 C 0.63742 0.20086 0.58027 0.0
C139 C 0.65907 0.25799 0.62134 0.0
C140 C 0.70137 0.26551 0.68118 0.0
N141 N 0.70882 0.21772 0.67865 0.0
Co142 Co 0.77623 0.21581 0.73766 0.0
N143 N 0.79289 0.28551 0.81587 0.0
C144 C 0.76278 0.31561 0.81468 0.0
C145 C 0.77173 0.34924 0.88442 0.0
C146 C 0.81355 0.3436 0.93077 0.0
C147 C 0.82727 0.30607 0.88662 0.0
N148 N 0.84535 0.21509 0.7973 0.0
C149 C 0.88363 0.25159 0.86353 0.0
C150 C 0.9302 0.24055 0.88091 0.0
C151 C 0.92161 0.19642 0.82279 0.0
C152 C 0.87048 0.18314 0.7733 0.0
N153 N 0.75885 0.14659 0.65785 0.0
C154 C 0.79384 0.12269 0.64844 0.0
C155 C 0.76433 0.06896 0.59605 0.0
C156 C 0.70709 0.05821 0.57228 0.0
C157 C 0.70537 0.10643 0.61075 0.0
N158 N 0.83181 0.2737 0.67951 0.0
C159 C 0.90067 0.36806 0.60321 0.0
C160 C 0.92296 0.36775 0.67769 0.0
C161 C 0.88779 0.32128 0.71481 0.0
C162 C 0.84537 0.31696 0.56553 0.0
C163 C 0.81265 0.26993 0.60389 0.0
N164 N 0.71791 0.15691 0.79423 0.0
C165 C 0.64198 0.05315 0.80008 0.0
C166 C 0.61422 0.07411 0.84727 0.0
C167 C 0.64331 0.13667 0.87303 0.0
C168 C 0.69352 0.17635 0.8461 0.0
C169 C 0.69511 0.09525 0.77704 0.0
H170 H 0.70892 0.22263 0.86617 0.0
H171 H 0.71647 0.07687 0.74442 0.0
H172 H 0.90524 0.32637 0.77333 0.0
H173 H 0.77057 0.2315 0.57257 0.0
C174 C 0.72436 0.30864 0.74841 0.0
C175 C 0.65292 0.11368 0.60412 0.0
C176 C 0.88099 0.30145 0.90682 0.0
C177 C 0.84553 0.14214 0.70349 0.0
H178 H 0.60152 0.1791 0.53066 0.0
H179 H 0.64236 0.28807 0.61202 0.0
H180 H 0.752 0.37637 0.89912 0.0
H181 H 0.83325 0.36677 0.98927 0.0
H182 H 0.96754 0.26363 0.92918 0.0
H183 H 0.9502 0.1775 0.81639 0.0
H184 H 0.78035 0.03827 0.58239 0.0
H185 H 0.66987 0.01814 0.53487 0.0
H186 H 0.96589 0.4053 0.70949 0.0
H187 H 0.82682 0.31361 0.50719 0.0
H188 H 0.62381 1.00503 0.78237 0.0
H189 H 0.6256 0.15611 0.91168 0.0
C190 C 0.49827 0.69712 0.07967 0.0
C191 C 0.44155 0.65245 0.03749 0.0
C192 C 0.40011 0.65014 0.07855 0.0
C193 C 0.43319 0.69364 0.14265 0.0
N194 N 0.49279 0.72515 0.14392 0.0
Co195 Co 0.55394 0.79698 0.22409 0.0
N196 N 0.49148 0.80849 0.26439 0.0
C197 C 0.43174 0.77029 0.24102 0.0
C198 C 0.40103 0.80011 0.23945 0.0
C199 C 0.44035 0.85832 0.27345 0.0
C200 C 0.49555 0.86264 0.28846 0.0
N201 N 0.61263 0.86984 0.30354 0.0
C202 C 0.60672 0.91674 0.33659 0.0
C203 C 0.66156 0.96258 0.37984 0.0
C204 C 0.70256 0.94387 0.37366 0.0
C205 C 0.67094 0.88762 0.32629 0.0
N206 N 0.61648 0.78649 0.18239 0.0
C207 C 0.6743 0.81364 0.219 0.0
C208 C 0.7067 0.79318 0.18335 0.0
C209 C 0.66639 0.74964 0.12132 0.0
C210 C 0.61128 0.74572 0.12203 0.0
N211 N 0.5589 0.85204 0.15621 0.0
C212 C 0.55488 0.94983 0.11219 0.0
C213 C 0.61058 0.95594 0.13919 0.0
C214 C 0.61159 0.90592 0.16083 0.0
C215 C 0.50268 0.89253 0.10136 0.0
C216 C 0.50613 0.84397 0.11924 0.0
N217 N 0.5516 0.74189 0.29427 0.0
C218 C 0.56122 0.65518 0.31119 0.0
C219 C 0.57422 0.67246 0.39032 0.0
C220 C 0.57205 0.72392 0.42063 0.0
C221 C 0.56122 0.75823 0.37178 0.0
C222 C 0.54921 0.68928 0.26508 0.0
H223 H 0.56209 0.79868 0.39672 0.0
H224 H 0.53993 0.67316 0.20516 0.0
H225 H 0.6545 0.91182 0.185 0.0
H226 H 0.4647 0.8013 0.10955 0.0
C227 C 0.40879 0.71578 0.19141 0.0
C228 C 0.55425 0.69937 0.06786 0.0
C229 C 0.55068 0.92034 0.32287 0.0
C230 C 0.69612 0.85881 0.28552 0.0
H231 H 0.43042 0.62253 0.9839 0.0
H232 H 0.35148 0.62171 0.06209 0.0
H233 H 0.35642 0.78204 0.20791 0.0
H234 H 0.43081 0.89452 0.28018 0.0
H235 H 0.67171 1.00665 0.4077 0.0
H236 H 0.75084 0.97084 0.39496 0.0
H237 H 0.75384 0.80759 0.20078 0.0
H238 H 0.67594 0.7227 0.08117 0.0
H239 H 0.65236 0.99809 0.14279 0.0
H240 H 0.45891 0.8844 0.0763 0.0
H241 H 0.55954 0.61466 0.28422 0.0
H242 H 0.57971 0.73824 0.48154 0.0
C243 C 0.75122 0.63924 0.77178 0.0
C244 C 0.75153 0.69185 0.79743 0.0
C245 C 0.79244 0.71954 0.86504 0.0
C246 C 0.81518 0.68264 0.87729 0.0
N247 N 0.79167 0.63341 0.82155 0.0
Co248 Co 0.80937 0.56609 0.82385 0.0
N249 N 0.86062 0.60062 0.93004 0.0
C250 C 0.87579 0.65433 0.97151 0.0
C251 C 0.91041 0.66725 0.04214 0.0
C252 C 0.91785 0.61863 0.04582 0.0
C253 C 0.88714 0.57829 0.97718 0.0
N254 N 0.82689 0.49905 0.82362 0.0
C255 C 0.86319 0.49017 0.87537 0.0
C256 C 0.87801 0.44984 0.83981 0.0
C257 C 0.85 0.43271 0.76608 0.0
C258 C 0.81966 0.46226 0.75931 0.0
N259 N 0.75888 0.53142 0.71689 0.0
C260 C 0.75845 0.48802 0.66786 0.0
C261 C 0.73237 0.48019 0.59453 0.0
C262 C 0.71398 0.52092 0.59592 0.0
C263 C 0.72899 0.55116 0.67129 0.0
N264 N 0.88279 0.60985 0.78058 0.0
C265 C 0.96898 0.61951 0.6948 0.0
C266 C 0.91999 0.62454 0.66406 0.0
C267 C 0.87891 0.62255 0.70937 0.0
C268 C 0.97966 0.62089 0.7726 0.0
C269 C 0.93611 0.61593 0.81428 0.0
N270 N 0.73693 0.52325 0.86928 0.0
C271 C 0.64416 0.52018 0.87729 0.0
C272 C 0.65574 0.52659 0.95671 0.0
C273 C 0.7031 0.52004 0.98923 0.0
C274 C 0.74215 0.51655 0.94366 0.0
C275 C 0.68371 0.51616 0.83486 0.0
H276 H 0.77737 0.51055 0.96995 0.0
H277 H 0.672 0.51082 0.77484 0.0
H278 H 0.84154 0.62608 0.68419 0.0
H279 H 0.94415 0.61101 0.87157 0.0
C280 C 0.85357 0.68924 0.94349 0.0
C281 C 0.71412 0.59792 0.69769 0.0
C282 C 0.88698 0.52079 0.95689 0.0
C283 C 0.7881 0.4595 0.69107 0.0
H284 H 0.72503 0.70849 0.76996 0.0
H285 H 0.80309 0.76092 0.90195 0.0
H286 H 0.92787 0.70715 0.08612 0.0
H287 H 0.94349 0.61372 0.0932 0.0
H288 H 0.90448 0.43181 0.86238 0.0
H289 H 0.8501 0.40132 0.72193 0.0
H290 H 0.72921 0.45002 0.54521 0.0
H291 H 0.69449 0.52779 0.54495 0.0
H292 H 0.91146 0.6263 0.60459 0.0
H293 H 0.01786 0.61875 0.79957 0.0
H294 H 0.6046 0.51837 0.84709 0.0
H295 H 0.71051 0.51853 0.04892 0.0
C296 C 0.26992 0.86878 0.3415 0.0
C297 C 0.25769 0.91469 0.35768 0.0
C298 C 0.20751 0.90003 0.30507 0.0
C299 C 0.19194 0.84616 0.25946 0.0
N300 N 0.22891 0.82575 0.28 0.0
Co301 Co 0.22414 0.75117 0.22558 0.0
N302 N 0.15537 0.73201 0.14385 0.0
C303 C 0.12645 0.76291 0.14005 0.0
C304 C 0.0793 0.73805 0.07862 0.0
C305 C 0.07838 0.68816 0.04148 0.0
C306 C 0.12536 0.68556 0.08212 0.0
N307 N 0.22247 0.67746 0.17288 0.0
C308 C 0.19055 0.63966 0.10533 0.0
C309 C 0.20862 0.59828 0.08649 0.0
C310 C 0.25208 0.60888 0.14547 0.0
C311 C 0.25852 0.65638 0.19553 0.0
N312 N 0.29171 0.7674 0.30914 0.0
C313 C 0.31049 0.72848 0.32172 0.0
C314 C 0.3535 0.74781 0.38582 0.0
C315 C 0.36147 0.80134 0.41875 0.0
C316 C 0.32362 0.81264 0.37117 0.0
N317 N 0.1653 0.70261 0.28866 0.0
C318 C 0.08382 0.63337 0.38009 0.0
C319 C 0.13689 0.6889 0.41179 0.0
C320 C 0.17577 0.72296 0.36558 0.0
C321 C 0.07004 0.61597 0.30063 0.0
C322 C 0.11139 0.65056 0.2565 0.0
N323 N 0.27958 0.80162 0.15878 0.0
C324 C 0.35405 0.8993 0.13504 0.0
C325 C 0.34454 0.87623 0.05697 0.0
C326 C 0.30259 0.81467 0.03167 0.0
C327 C 0.2708 0.77903 0.08243 0.0
C328 C 0.32184 0.86192 0.18405 0.0
H329 H 0.23827 0.73343 0.05706 0.0
H330 H 0.33288 0.88253 0.24267 0.0
H331 H 0.21502 0.76513 0.39365 0.0
H332 H 0.10029 0.63319 0.19674 0.0
C333 C 0.14546 0.81497 0.19489 0.0
C334 C 0.32098 0.86756 0.38576 0.0
C335 C 0.13874 0.63706 0.06125 0.0
C336 C 0.29614 0.68034 0.26553 0.0
H337 H 0.28257 0.9545 0.40273 0.0
H338 H 0.18564 0.92615 0.29997 0.0
H339 H 0.0491 0.75414 0.06273 0.0
H340 H 0.04684 0.65709 0.9905 0.0
H341 H 0.19088 0.56276 0.03654 0.0
H342 H 0.27531 0.58415 0.15193 0.0
H343 H 0.37934 0.72767 0.40359 0.0
H344 H 0.39304 0.82851 0.47107 0.0
H345 H 0.14937 0.70566 0.47266 0.0
H346 H 0.02952 0.57374 0.2727 0.0
H347 H 0.38731 0.9463 0.15929 0.0
H348 H 0.29374 0.79382 0.9726 0.0
C349 C 0.39938 0.32218 0.78152 0.0
C350 C 0.34458 0.31979 0.77661 0.0
C351 C 0.30276 0.26797 0.72534 0.0
C352 C 0.3339 0.24119 0.70158 0.0
N353 N 0.39306 0.27317 0.73387 0.0
Co354 Co 0.45191 0.24684 0.71444 0.0
N355 N 0.39586 0.18218 0.62312 0.0
C356 C 0.3364 0.16128 0.60422 0.0
C357 C 0.30886 0.11823 0.53814 0.0
C358 C 0.35369 0.1111 0.51405 0.0
C359 C 0.40653 0.15047 0.56655 0.0
N360 N 0.50975 0.21977 0.69708 0.0
C361 C 0.50451 0.17525 0.64287 0.0
C362 C 0.54116 0.15406 0.67021 0.0
C363 C 0.57353 0.18923 0.73945 0.0
C364 C 0.55372 0.22835 0.75284 0.0
N365 N 0.50915 0.3124 0.804 0.0
C366 C 0.55852 0.31493 0.84164 0.0
C367 C 0.58612 0.35751 0.90704 0.0
C368 C 0.55166 0.3832 0.91245 0.0
C369 C 0.50496 0.35604 0.84889 0.0
N370 N 0.42173 0.18849 0.78349 0.0
C371 C 0.42667 0.11679 0.88674 0.0
C372 C 0.43384 0.17343 0.91291 0.0
C373 C 0.42877 0.20753 0.86009 0.0
C374 C 0.40803 0.09366 0.80813 0.0
C375 C 0.4063 0.12996 0.75798 0.0
N376 N 0.48318 0.30353 0.64607 0.0
C377 C 0.56693 0.38378 0.60701 0.0
C378 C 0.52744 0.38665 0.55025 0.0
C379 C 0.46576 0.34489 0.53986 0.0
C380 C 0.44445 0.3045 0.58896 0.0
C381 C 0.54403 0.3411 0.65334 0.0
H382 H 0.39641 0.27559 0.58204 0.0
H383 H 0.57533 0.34021 0.69714 0.0
H384 H 0.43523 0.25113 0.88203 0.0
H385 H 0.39813 0.11177 0.6986 0.0
C386 C 0.3107 0.18962 0.64384 0.0
C387 C 0.4542 0.368 0.8384 0.0
C388 C 0.46339 0.14967 0.56726 0.0
C389 C 0.57465 0.27312 0.81735 0.0
H390 H 0.33546 0.35142 0.8083 0.0
H391 H 0.25532 0.25207 0.70701 0.0
H392 H 0.26199 0.09563 0.50976 0.0
H393 H 0.34794 0.07954 0.46457 0.0
H394 H 0.54505 0.11722 0.6441 0.0
H395 H 0.60755 0.18677 0.7755 0.0
H396 H 0.62461 0.36637 0.94836 0.0
H397 H 0.55866 0.41459 0.96185 0.0
H398 H 0.4459 0.19245 0.97316 0.0
H399 H 0.39986 0.04936 0.78422 0.0
H400 H 0.61459 0.417 0.61938 0.0
H401 H 0.43375 0.34687 0.49815 0.0
loop_
_geom_bond_atom_site_label_1
_geom_bond_atom_site_label_2
_geom_bond_distance
_geom_bond_site_symmetry_2
_ccdc_geom_bond_type
C0 O2 1.247 . S
C0 O4 1.258 . S
C1 O8 1.247 . S
C1 O9 1.258 . S
O2 C0 1.247 . S
O2 Zn3 2.028 1_455 S
Zn3 O2 2.028 1_655 S
Zn3 O7 2.035 1_554 S
Zn3 O9 2.035 1_554 S
Zn3 O10 2.028 1_655 S
O4 C0 1.258 . S
O4 Zn5 2.035 1_554 S
Zn5 O4 2.035 1_556 S
Zn5 O6 2.028 1_455 S
Zn5 O8 2.028 1_455 S
Zn5 O11 2.035 1_556 S
O6 Zn5 2.028 1_655 S
O6 C12 1.247 . S
O7 Zn3 2.035 1_556 S
O7 C12 1.258 . S
O8 C1 1.247 . S
O8 Zn5 2.028 1_655 S
O9 C1 1.258 . S
O9 Zn3 2.035 1_556 S
O10 Zn3 2.028 1_455 S
O10 C13 1.247 . S
O11 Zn5 2.035 1_554 S
O11 C13 1.258 . S
C12 O6 1.247 . S
C12 O7 1.258 . S
C13 O10 1.247 . S
C13 O11 1.258 . S
C14 O16 1.247 . S
C14 O18 1.258 . S
C15 O22 1.247 . S
C15 O23 1.258 . S
O16 C14 1.247 . S
O16 Zn17 2.028 1_545 S
Zn17 O16 2.028 1_565 S
Zn17 O21 2.035 . S
Zn17 O23 2.035 . S
Zn17 O24 2.028 1_565 S
O18 C14 1.258 . S
O18 Zn19 2.035 . S
Zn19 O18 2.035 . S
Zn19 O20 2.028 1_545 S
Zn19 O22 2.028 1_545 S
Zn19 O25 2.035 . S
O20 Zn19 2.028 1_565 S
O20 C26 1.247 . S
O21 Zn17 2.035 . S
O21 C26 1.258 . S
O22 C15 1.247 . S
O22 Zn19 2.028 1_565 S
O23 C15 1.258 . S
O23 Zn17 2.035 . S
O24 Zn17 2.028 1_545 S
O24 C27 1.247 . S
O25 Zn19 2.035 . S
O25 C27 1.258 . S
C26 O20 1.247 . S
C26 O21 1.258 . S
C27 O24 1.247 . S
C27 O25 1.258 . S
C28 O30 1.247 . S
C28 O32 1.258 . S
C29 O36 1.247 . S
C29 O37 1.258 . S
O30 C28 1.247 . S
O30 Zn31 2.028 . S
Zn31 O30 2.028 . S
Zn31 O35 2.035 1_556 S
Zn31 O37 2.035 1_556 S
Zn31 O38 2.028 . S
O32 C28 1.258 . S
O32 Zn33 2.035 1_556 S
Zn33 O32 2.035 1_554 S
Zn33 O34 2.028 . S
Zn33 O36 2.028 . S
Zn33 O39 2.035 1_554 S
O34 Zn33 2.028 . S
O34 C40 1.247 . S
O35 Zn31 2.035 1_554 S
O35 C40 1.258 . S
O36 C29 1.247 . S
O36 Zn33 2.028 . S
O37 C29 1.258 . S
O37 Zn31 2.035 1_554 S
O38 Zn31 2.028 . S
O38 C41 1.247 . S
O39 Zn33 2.035 1_556 S
O39 C41 1.258 . S
C40 O34 1.247 . S
C40 O35 1.258 . S
C41 O38 1.247 . S
C41 O39 1.258 . S
C42 O44 1.247 . S
C42 O46 1.258 1_455 S
C43 O50 1.247 . S
C43 O51 1.258 1_655 S
O44 C42 1.247 . S
O44 Zn45 2.028 . S
Zn45 O44 2.028 . S
Zn45 O49 2.039 . S
Zn45 O51 2.035 . S
Zn45 O52 2.028 . S
O46 C42 1.258 1_655 S
O46 Zn47 2.035 . S
Zn47 O46 2.035 . S
Zn47 O48 2.028 . S
Zn47 O50 2.028 . S
Zn47 O53 2.024 1_655 S
O48 Zn47 2.028 . S
O48 C54 1.247 . S
O49 Zn45 2.039 . S
O49 C54 1.254 1_455 S
O50 C43 1.247 . S
O50 Zn47 2.028 . S
O51 C43 1.258 1_455 S
O51 Zn45 2.035 . S
O52 Zn45 2.028 . S
O52 C55 1.247 . S
O53 Zn47 2.024 1_455 S
O53 C55 1.269 . S
C54 O48 1.247 . S
C54 O49 1.254 1_655 S
C55 O52 1.247 . S
C55 O53 1.269 . S
C56 O58 1.247 1_565 S
C56 O60 1.258 . S
C57 O64 1.247 . S
C57 O65 1.258 . S
O58 C56 1.247 1_545 S
O58 Zn59 2.028 . S
Zn59 O58 2.028 . S
Zn59 O63 2.035 . S
Zn59 O65 2.035 1_554 S
Zn59 O66 2.028 . S
O60 C56 1.258 . S
O60 Zn61 2.035 1_554 S
Zn61 O60 2.035 1_556 S
Zn61 O62 2.027 1_565 S
Zn61 O64 2.028 1_565 S
Zn61 O67 2.031 1_556 S
O62 Zn61 2.027 1_545 S
O62 C68 1.250 . S
O63 Zn59 2.035 . S
O63 C68 1.258 1_554 S
O64 C57 1.247 . S
O64 Zn61 2.028 1_545 S
O65 C57 1.258 . S
O65 Zn59 2.035 1_556 S
O66 Zn59 2.028 . S
O66 C69 1.247 1_545 S
O67 Zn61 2.031 1_554 S
O67 C69 1.263 . S
C68 O62 1.250 . S
C68 O63 1.258 1_556 S
C69 O66 1.247 1_565 S
C69 O67 1.263 . S
C70 O72 1.247 . S
C70 O74 1.258 . S
C71 O78 1.247 . S
C71 O79 1.258 . S
O72 C70 1.247 . S
O72 Zn73 2.028 . S
Zn73 O72 2.028 . S
Zn73 O77 2.035 . S
Zn73 O79 2.035 . S
Zn73 O80 2.028 . S
O74 C70 1.258 . S
O74 Zn75 2.035 . S
Zn75 O74 2.035 . S
Zn75 O76 2.028 . S
Zn75 O78 2.028 . S
Zn75 O81 2.035 . S
O76 Zn75 2.028 . S
O76 C82 1.247 . S
O77 Zn73 2.035 . S
O77 C82 1.258 . S
O78 C71 1.247 . S
O78 Zn75 2.028 . S
O79 C71 1.258 . S
O79 Zn73 2.035 . S
O80 Zn73 2.028 . S
O80 C83 1.247 . S
O81 Zn75 2.035 . S
O81 C83 1.258 . S
C82 O76 1.247 . S
C82 O77 1.258 . S
C83 O80 1.247 . S
C83 O81 1.258 . S
C84 C85 1.443 . S
C84 N88 1.376 . S
C84 C122 1.389 . S
C85 C84 1.443 . S
C85 C86 1.340 . S
C85 H125 0.951 . S
C86 C85 1.340 . S
C86 C87 1.439 . S
C86 H126 0.950 . S
C87 C86 1.439 . S
C87 N88 1.374 . S
C87 C121 1.395 . S
N88 C84 1.376 . S
N88 C87 1.374 . S
N88 Co89 2.008 . S
Co89 N88 2.008 . S
Co89 N90 1.995 . S
Co89 N95 2.008 . S
Co89 N100 1.995 . S
Co89 N105 2.282 . S
Co89 N111 2.282 . S
N90 Co89 1.995 . S
N90 C91 1.376 . S
N90 C94 1.383 . S
C91 N90 1.376 . S
C91 C92 1.446 . S
C91 C121 1.391 . S
C92 C91 1.446 . S
C92 C93 1.339 . S
C92 H127 0.949 . S
C93 C92 1.339 . S
C93 C94 1.439 . S
C93 H128 0.950 . S
C94 N90 1.383 . S
C94 C93 1.439 . S
C94 C123 1.392 . S
N95 Co89 2.008 . S
N95 C96 1.376 . S
N95 C99 1.374 . S
C96 N95 1.376 . S
C96 C97 1.443 . S
C96 C123 1.389 . S
C97 C96 1.443 . S
C97 C98 1.340 . S
C97 H129 0.951 . S
C98 C97 1.340 . S
C98 C99 1.439 . S
C98 H130 0.950 . S
C99 N95 1.374 . S
C99 C98 1.439 . S
C99 C124 1.395 . S
N100 Co89 1.995 . S
N100 C101 1.376 . S
N100 C104 1.383 . S
C101 N100 1.376 . S
C101 C102 1.446 . S
C101 C124 1.391 . S
C102 C101 1.446 . S
C102 C103 1.339 . S
C102 H131 0.949 . S
C103 C102 1.339 . S
C103 C104 1.439 . S
C103 H132 0.950 1_455 S
C104 N100 1.383 . S
C104 C103 1.439 . S
C104 C122 1.392 . S
N105 Co89 2.282 . S
N105 C108 1.332 . S
N105 C110 1.332 . S
C106 C107 1.386 . S
C106 C109 1.388 . S
C107 C106 1.386 . S
C107 C108 1.382 . S
C107 H133 0.950 . S
C108 N105 1.332 . S
C108 C107 1.382 . S
C108 H119 0.952 . S
C109 C106 1.388 . S
C109 C110 1.382 . S
C109 H134 0.950 . S
C110 N105 1.332 . S
C110 C109 1.382 . S
C110 H120 0.948 . S
N111 Co89 2.282 . S
N111 C115 1.332 . S
N111 C116 1.332 . S
C112 C113 1.388 . S
C112 C116 1.382 . S
C112 H135 0.937 1_455 S
C113 C112 1.388 . S
C113 C114 1.386 . S
C114 C113 1.386 . S
C114 C115 1.382 . S
C114 H136 0.950 . S
C115 N111 1.332 . S
C115 C114 1.382 . S
C115 H117 0.952 . S
C116 N111 1.332 . S
C116 C112 1.382 . S
C116 H118 0.948 . S
H117 C115 0.952 . S
H118 C116 0.948 . S
H119 C108 0.952 . S
H120 C110 0.948 . S
C121 C87 1.395 . S
C121 C91 1.391 . S
C122 C84 1.389 . S
C122 C104 1.392 . S
C123 C94 1.392 . S
C123 C96 1.389 . S
C124 C99 1.395 . S
C124 C101 1.391 . S
H125 C85 0.951 . S
H126 C86 0.950 . S
H127 C92 0.949 . S
H128 C93 0.950 . S
H129 C97 0.951 . S
H130 C98 0.950 . S
H131 C102 0.949 . S
H132 C103 0.950 1_655 S
H133 C107 0.950 . S
H134 C109 0.950 . S
H135 C112 0.937 1_655 S
H136 C114 0.950 . S
C137 C138 1.443 . S
C137 N141 1.376 . S
C137 C175 1.389 . S
C138 C137 1.443 . S
C138 C139 1.340 . S
C138 H178 0.951 . S
C139 C138 1.340 . S
C139 C140 1.439 . S
C139 H179 0.950 . S
C140 C139 1.439 . S
C140 N141 1.374 . S
C140 C174 1.395 . S
N141 C137 1.376 . S
N141 C140 1.374 . S
N141 Co142 2.008 . S
Co142 N141 2.008 . S
Co142 N143 1.995 . S
Co142 N148 2.008 . S
Co142 N153 1.995 . S
Co142 N158 2.282 . S
Co142 N164 2.282 . S
N143 Co142 1.995 . S
N143 C144 1.376 . S
N143 C147 1.383 . S
C144 N143 1.376 . S
C144 C145 1.446 . S
C144 C174 1.391 . S
C145 C144 1.446 . S
C145 C146 1.339 . S
C145 H180 0.949 . S
C146 C145 1.339 . S
C146 C147 1.439 . S
C146 H181 0.950 . S
C147 N143 1.383 . S
C147 C146 1.439 . S
C147 C176 1.392 . S
N148 Co142 2.008 . S
N148 C149 1.376 . S
N148 C152 1.374 . S
C149 N148 1.376 . S
C149 C150 1.443 . S
C149 C176 1.389 . S
C150 C149 1.443 . S
C150 C151 1.340 . S
C150 H182 0.951 1_655 S
C151 C150 1.340 . S
C151 C152 1.439 . S
C151 H183 0.950 . S
C152 N148 1.374 . S
C152 C151 1.439 . S
C152 C177 1.395 . S
N153 Co142 1.995 . S
N153 C154 1.376 . S
N153 C157 1.383 . S
C154 N153 1.376 . S
C154 C155 1.446 . S
C154 C177 1.391 . S
C155 C154 1.446 . S
C155 C156 1.339 . S
C155 H184 0.949 . S
C156 C155 1.339 . S
C156 C157 1.439 . S
C156 H185 0.950 1_545 S
C157 N153 1.383 . S
C157 C156 1.439 . S
C157 C175 1.392 . S
N158 Co142 2.282 . S
N158 C161 1.332 . S
N158 C163 1.332 . S
C159 C160 1.386 . S
C159 C162 1.388 . S
C160 C159 1.386 . S
C160 C161 1.382 . S
C160 H186 0.950 . S
C161 N158 1.332 . S
C161 C160 1.382 . S
C161 H172 0.952 . S
C162 C159 1.388 . S
C162 C163 1.382 . S
C162 H187 0.950 . S
C163 N158 1.332 . S
C163 C162 1.382 . S
C163 H173 0.948 . S
N164 Co142 2.282 . S
N164 C168 1.332 . S
N164 C169 1.332 . S
C165 C166 1.388 . S
C165 C169 1.382 . S
C165 H188 0.950 . S
C166 C165 1.388 . S
C166 C167 1.386 . S
C167 C166 1.386 . S
C167 C168 1.382 . S
C167 H189 0.950 . S
C168 N164 1.332 . S
C168 C167 1.382 . S
C168 H170 0.952 . S
C169 N164 1.332 . S
C169 C165 1.382 . S
C169 H171 0.948 . S
H170 C168 0.952 . S
H171 C169 0.948 . S
H172 C161 0.952 . S
H173 C163 0.948 . S
C174 C140 1.395 . S
C174 C144 1.391 . S
C175 C137 1.389 . S
C175 C157 1.392 . S
C176 C147 1.392 . S
C176 C149 1.389 . S
C177 C152 1.395 . S
C177 C154 1.391 . S
H178 C138 0.951 . S
H179 C139 0.950 . S
H180 C145 0.949 . S
H181 C146 0.950 . S
H182 C150 0.951 1_455 S
H183 C151 0.950 . S
H184 C155 0.949 . S
H185 C156 0.950 1_565 S
H186 C160 0.950 . S
H187 C162 0.950 . S
H188 C165 0.950 . S
H189 C167 0.950 . S
C190 C191 1.443 . S
C190 N194 1.376 . S
C190 C228 1.389 . S
C191 C190 1.443 . S
C191 C192 1.340 . S
C191 H231 0.951 . S
C192 C191 1.340 . S
C192 C193 1.439 . S
C192 H232 0.950 . S
C193 C192 1.439 . S
C193 N194 1.374 . S
C193 C227 1.395 . S
N194 C190 1.376 . S
N194 C193 1.374 . S
N194 Co195 2.008 . S
Co195 N194 2.008 . S
Co195 N196 1.995 . S
Co195 N201 2.008 . S
Co195 N206 1.995 . S
Co195 N211 2.282 . S
Co195 N217 2.282 . S
N196 Co195 1.995 . S
N196 C197 1.376 . S
N196 C200 1.383 . S
C197 N196 1.376 . S
C197 C198 1.446 . S
C197 C227 1.391 . S
C198 C197 1.446 . S
C198 C199 1.339 . S
C198 H233 0.949 . S
C199 C198 1.339 . S
C199 C200 1.439 . S
C199 H234 0.950 . S
C200 N196 1.383 . S
C200 C199 1.439 . S
C200 C229 1.392 . S
N201 Co195 2.008 . S
N201 C202 1.376 . S
N201 C205 1.374 . S
C202 N201 1.376 . S
C202 C203 1.443 . S
C202 C229 1.389 . S
C203 C202 1.443 . S
C203 C204 1.340 . S
C203 H235 0.951 1_565 S
C204 C203 1.340 . S
C204 C205 1.439 . S
C204 H236 0.950 1_565 S
C205 N201 1.374 . S
C205 C204 1.439 . S
C205 C230 1.395 . S
N206 Co195 1.995 . S
N206 C207 1.376 . S
N206 C210 1.383 . S
C207 N206 1.376 . S
C207 C208 1.446 . S
C207 C230 1.391 . S
C208 C207 1.446 . S
C208 C209 1.339 . S
C208 H237 0.949 . S
C209 C208 1.339 . S
C209 C210 1.439 . S
C209 H238 0.950 . S
C210 N206 1.383 . S
C210 C209 1.439 . S
C210 C228 1.392 . S
N211 Co195 2.282 . S
N211 C214 1.332 . S
N211 C216 1.332 . S
C212 C213 1.386 . S
C212 C215 1.388 . S
C213 C212 1.386 . S
C213 C214 1.382 . S
C213 H239 0.950 . S
C214 N211 1.332 . S
C214 C213 1.382 . S
C214 H225 0.952 . S
C215 C212 1.388 . S
C215 C216 1.382 . S
C215 H240 0.950 . S
C216 N211 1.332 . S
C216 C215 1.382 . S
C216 H226 0.948 . S
N217 Co195 2.282 . S
N217 C221 1.332 . S
N217 C222 1.332 . S
C218 C219 1.388 . S
C218 C222 1.382 . S
C218 H241 0.950 . S
C219 C218 1.388 . S
C219 C220 1.386 . S
C220 C219 1.386 . S
C220 C221 1.382 . S
C220 H242 0.950 . S
C221 N217 1.332 . S
C221 C220 1.382 . S
C221 H223 0.952 . S
C222 N217 1.332 . S
C222 C218 1.382 . S
C222 H224 0.948 . S
H223 C221 0.952 . S
H224 C222 0.948 . S
H225 C214 0.952 . S
H226 C216 0.948 . S
C227 C193 1.395 . S
C227 C197 1.391 . S
C228 C190 1.389 . S
C228 C210 1.392 . S
C229 C200 1.392 . S
C229 C202 1.389 . S
C230 C205 1.395 . S
C230 C207 1.391 . S
H231 C191 0.951 . S
H232 C192 0.950 . S
H233 C198 0.949 . S
H234 C199 0.950 . S
H235 C203 0.951 1_545 S
H236 C204 0.950 1_545 S
H237 C208 0.949 . S
H238 C209 0.950 . S
H239 C213 0.950 . S
H240 C215 0.950 . S
H241 C218 0.950 . S
H242 C220 0.950 . S
C243 C244 1.443 . S
C243 N247 1.376 . S
C243 C281 1.389 . S
C244 C243 1.443 . S
C244 C245 1.340 . S
C244 H284 0.951 . S
C245 C244 1.340 . S
C245 C246 1.439 . S
C245 H285 0.950 . S
C246 C245 1.439 . S
C246 N247 1.374 . S
C246 C280 1.395 . S
N247 C243 1.376 . S
N247 C246 1.374 . S
N247 Co248 2.008 . S
Co248 N247 2.008 . S
Co248 N249 1.995 . S
Co248 N254 2.008 . S
Co248 N259 1.995 . S
Co248 N264 2.282 . S
Co248 N270 2.282 . S
N249 Co248 1.995 . S
N249 C250 1.376 . S
N249 C253 1.383 . S
C250 N249 1.376 . S
C250 C251 1.446 . S
C250 C280 1.391 . S
C251 C250 1.446 . S
C251 C252 1.339 . S
C251 H286 0.949 . S
C252 C251 1.339 . S
C252 C253 1.439 . S
C252 H287 0.950 1_655 S
C253 N249 1.383 . S
C253 C252 1.439 . S
C253 C282 1.392 . S
N254 Co248 2.008 . S
N254 C255 1.376 . S
N254 C258 1.374 . S
C255 N254 1.376 . S
C255 C256 1.443 . S
C255 C282 1.389 . S
C256 C255 1.443 . S
C256 C257 1.340 . S
C256 H288 0.951 . S
C257 C256 1.340 . S
C257 C258 1.439 . S
C257 H289 0.950 . S
C258 N254 1.374 . S
C258 C257 1.439 . S
C258 C283 1.395 . S
N259 Co248 1.995 . S
N259 C260 1.376 . S
N259 C263 1.383 . S
C260 N259 1.376 . S
C260 C261 1.446 . S
C260 C283 1.391 . S
C261 C260 1.446 . S
C261 C262 1.339 . S
C261 H290 0.949 . S
C262 C261 1.339 . S
C262 C263 1.439 . S
C262 H291 0.950 . S
C263 N259 1.383 . S
C263 C262 1.439 . S
C263 C281 1.392 . S
N264 Co248 2.282 . S
N264 C267 1.332 . S
N264 C269 1.332 . S
C265 C266 1.386 . S
C265 C268 1.388 . S
C266 C265 1.386 . S
C266 C267 1.382 . S
C266 H292 0.950 . S
C267 N264 1.332 . S
C267 C266 1.382 . S
C267 H278 0.952 . S
C268 C265 1.388 . S
C268 C269 1.382 . S
C268 H293 0.950 1_655 S
C269 N264 1.332 . S
C269 C268 1.382 . S
C269 H279 0.948 . S
N270 Co248 2.282 . S
N270 C274 1.332 . S
N270 C275 1.332 . S
C271 C272 1.388 . S
C271 C275 1.382 . S
C271 H294 0.950 . S
C272 C271 1.388 . S
C272 C273 1.386 . S
C273 C272 1.386 . S
C273 C274 1.382 . S
C273 H295 0.950 . S
C274 N270 1.332 . S
C274 C273 1.382 . S
C274 H276 0.952 . S
C275 N270 1.332 . S
C275 C271 1.382 . S
C275 H277 0.948 . S
H276 C274 0.952 . S
H277 C275 0.948 . S
H278 C267 0.952 . S
H279 C269 0.948 . S
C280 C246 1.395 . S
C280 C250 1.391 . S
C281 C243 1.389 . S
C281 C263 1.392 . S
C282 C253 1.392 . S
C282 C255 1.389 . S
C283 C258 1.395 . S
C283 C260 1.391 . S
H284 C244 0.951 . S
H285 C245 0.950 . S
H286 C251 0.949 . S
H287 C252 0.950 1_455 S
H288 C256 0.951 . S
H289 C257 0.950 . S
H290 C261 0.949 . S
H291 C262 0.950 . S
H292 C266 0.950 . S
H293 C268 0.950 1_455 S
H294 C271 0.950 . S
H295 C273 0.950 . S
C296 C297 1.443 . S
C296 N300 1.376 . S
C296 C334 1.389 . S
C297 C296 1.443 . S
C297 C298 1.340 . S
C297 H337 0.951 1_565 S
C298 C297 1.340 . S
C298 C299 1.439 . S
C298 H338 0.930 1_565 S
C299 C298 1.439 . S
C299 N300 1.374 . S
C299 C333 1.395 . S
N300 C296 1.376 . S
N300 C299 1.374 . S
N300 Co301 2.008 . S
Co301 N300 2.008 . S
Co301 N302 1.995 . S
Co301 N307 2.008 . S
Co301 N312 1.995 . S
Co301 N317 2.282 . S
Co301 N323 2.282 . S
N302 Co301 1.995 . S
N302 C303 1.376 . S
N302 C306 1.383 . S
C303 N302 1.376 . S
C303 C304 1.446 . S
C303 C333 1.391 . S
C304 C303 1.446 . S
C304 C305 1.339 . S
C304 H339 0.949 . S
C305 C304 1.339 . S
C305 C306 1.439 . S
C305 H340 0.950 1_455 S
C306 N302 1.383 . S
C306 C305 1.439 . S
C306 C335 1.392 . S
N307 Co301 2.008 . S
N307 C308 1.376 . S
N307 C311 1.374 . S
C308 N307 1.376 . S
C308 C309 1.443 . S
C308 C335 1.389 . S
C309 C308 1.443 . S
C309 C310 1.340 . S
C309 H341 0.951 . S
C310 C309 1.340 . S
C310 C311 1.439 . S
C310 H342 0.950 . S
C311 N307 1.374 . S
C311 C310 1.439 . S
C311 C336 1.395 . S
N312 Co301 1.995 . S
N312 C313 1.376 . S
N312 C316 1.383 . S
C313 N312 1.376 . S
C313 C314 1.446 . S
C313 C336 1.391 . S
C314 C313 1.446 . S
C314 C315 1.339 . S
C314 H343 0.949 . S
C315 C314 1.339 . S
C315 C316 1.439 . S
C315 H344 0.950 . S
C316 N312 1.383 . S
C316 C315 1.439 . S
C316 C334 1.392 . S
N317 Co301 2.282 . S
N317 C320 1.332 . S
N317 C322 1.332 . S
C318 C319 1.386 . S
C318 C321 1.388 . S
C319 C318 1.386 . S
C319 C320 1.382 . S
C319 H345 0.950 . S
C320 N317 1.332 . S
C320 C319 1.382 . S
C320 H331 0.952 . S
C321 C318 1.388 . S
C321 C322 1.382 . S
C321 H346 0.950 . S
C322 N317 1.332 . S
C322 C321 1.382 . S
C322 H332 0.948 . S
N323 Co301 2.282 . S
N323 C327 1.332 . S
N323 C328 1.332 . S
C324 C325 1.388 . S
C324 C328 1.382 . S
C324 H347 0.950 . S
C325 C324 1.388 . S
C325 C326 1.386 . S
C326 C325 1.386 . S
C326 C327 1.382 . S
C326 H348 0.950 . S
C327 N323 1.332 . S
C327 C326 1.382 . S
C327 H329 0.952 . S
C328 N323 1.332 . S
C328 C324 1.382 . S
C328 H330 0.948 . S
H329 C327 0.952 . S
H330 C328 0.948 . S
H331 C320 0.952 . S
H332 C322 0.948 . S
C333 C299 1.395 . S
C333 C303 1.391 . S
C334 C296 1.389 . S
C334 C316 1.392 . S
C335 C306 1.392 . S
C335 C308 1.389 . S
C336 C311 1.395 . S
C336 C313 1.391 . S
H337 C297 0.951 1_545 S
H338 C298 0.930 1_545 S
H339 C304 0.949 . S
H340 C305 0.950 1_655 S
H341 C309 0.951 . S
H342 C310 0.950 . S
H343 C314 0.949 . S
H344 C315 0.950 . S
H345 C319 0.950 . S
H346 C321 0.950 . S
H347 C324 0.950 . S
H348 C326 0.950 . S
C349 C350 1.443 . S
C349 N353 1.376 . S
C349 C387 1.389 . S
C350 C349 1.443 . S
C350 C351 1.340 . S
C350 H390 0.951 . S
C351 C350 1.340 . S
C351 C352 1.439 . S
C351 H391 0.950 . S
C352 C351 1.439 . S
C352 N353 1.374 . S
C352 C386 1.395 . S
N353 C349 1.376 . S
N353 C352 1.374 . S
N353 Co354 2.008 . S
Co354 N353 2.008 . S
Co354 N355 1.995 . S
Co354 N360 2.008 . S
Co354 N365 1.995 . S
Co354 N370 2.282 . S
Co354 N376 2.282 . S
N355 Co354 1.995 . S
N355 C356 1.376 . S
N355 C359 1.383 . S
C356 N355 1.376 . S
C356 C357 1.446 . S
C356 C386 1.391 . S
C357 C356 1.446 . S
C357 C358 1.339 . S
C357 H392 0.949 . S
C358 C357 1.339 . S
C358 C359 1.439 . S
C358 H393 0.950 1_545 S
C359 N355 1.383 . S
C359 C358 1.439 . S
C359 C388 1.392 . S
N360 Co354 2.008 . S
N360 C361 1.376 . S
N360 C364 1.374 . S
C361 N360 1.376 . S
C361 C362 1.443 . S
C361 C388 1.389 . S
C362 C361 1.443 . S
C362 C363 1.340 . S
C362 H394 0.951 . S
C363 C362 1.340 . S
C363 C364 1.439 . S
C363 H395 0.950 . S
C364 N360 1.374 . S
C364 C363 1.439 . S
C364 C389 1.395 . S
N365 Co354 1.995 . S
N365 C366 1.376 . S
N365 C369 1.383 . S
C366 N365 1.376 . S
C366 C367 1.446 . S
C366 C389 1.391 . S
C367 C366 1.446 . S
C367 C368 1.339 . S
C367 H396 0.949 . S
C368 C367 1.339 . S
C368 C369 1.439 . S
C368 H397 0.950 . S
C369 N365 1.383 . S
C369 C368 1.439 . S
C369 C387 1.392 . S
N370 Co354 2.282 . S
N370 C373 1.332 . S
N370 C375 1.332 . S
C371 C372 1.386 . S
C371 C374 1.388 . S
C372 C371 1.386 . S
C372 C373 1.382 . S
C372 H398 0.950 . S
C373 N370 1.332 . S
C373 C372 1.382 . S
C373 H384 0.952 . S
C374 C371 1.388 . S
C374 C375 1.382 . S
C374 H399 0.950 . S
C375 N370 1.332 . S
C375 C374 1.382 . S
C375 H385 0.948 . S
N376 Co354 2.282 . S
N376 C380 1.332 . S
N376 C381 1.332 . S
C377 C378 1.388 . S
C377 C381 1.382 . S
C377 H400 0.950 . S
C378 C377 1.388 . S
C378 C379 1.386 . S
C379 C378 1.386 . S
C379 C380 1.382 . S
C379 H401 0.950 . S
C380 N376 1.332 . S
C380 C379 1.382 . S
C380 H382 0.952 . S
C381 N376 1.332 . S
C381 C377 1.382 . S
C381 H383 0.948 . S
H382 C380 0.952 . S
H383 C381 0.948 . S
H384 C373 0.952 . S
H385 C375 0.948 . S
C386 C352 1.395 . S
C386 C356 1.391 . S
C387 C349 1.389 . S
C387 C369 1.392 . S
C388 C359 1.392 . S
C388 C361 1.389 . S
C389 C364 1.395 . S
C389 C366 1.391 . S
H390 C350 0.951 . S
H391 C351 0.950 . S
H392 C357 0.949 . S
H393 C358 0.950 1_565 S
H394 C362 0.951 . S
H395 C363 0.950 . S
H396 C367 0.949 . S
H397 C368 0.950 . S
H398 C372 0.950 . S
H399 C374 0.950 . S
H400 C377 0.950 . S
H401 C379 0.950 . S
C13 C122 2.431 . S
C27 C175 1.968 . S
C228 C29 2.189 . S
C265 C54 1.736 . S
C325 C69 2.074 . S
C378 C83 1.890 . S
C15 C229 2.453 . S
C41 C272 1.890 . S
C318 C42 2.094 . S
C371 C57 1.734 . S
C71 C123 2.211 . S
C176 C1 1.994 . S
C282 C12 2.431 . S
C26 C334 1.994 . S
C387 C28 2.211 . S
C55 C113 1.737 . S
C68 C166 2.092 . S
C82 C219 1.911 . S
C14 C388 2.431 . S
C106 C40 1.890 . S
C43 C159 2.075 . S
C56 C212 1.712 . S
C70 C281 2.211 . S
C0 C335 1.968 . S
