# Generated by pormake.
# Topology pyr, (3,6)-cn, num edge types: 1
# Building blocks:
#     Node 0, Type 0, BuildingBlock: OLANEW_clean_sbu_2, # of connection points: 3
#     Node 1, Type 0, BuildingBlock: OLANEW_clean_sbu_2, # of connection points: 3
#     Node 2, Type 0, BuildingBlock: OLANEW_clean_sbu_2, # of connection points: 3
#     Node 3, Type 0, BuildingBlock: OLANEW_clean_sbu_2, # of connection points: 3
#     Node 4, Type 0, BuildingBlock: OLANEW_clean_sbu_2, # of connection points: 3
#     Node 5, Type 0, BuildingBlock: OLANEW_clean_sbu_2, # of connection points: 3
#     Node 6, Type 0, BuildingBlock: OLANEW_clean_sbu_2, # of connection points: 3
#     Node 7, Type 0, BuildingBlock: OLANEW_clean_sbu_2, # of connection points: 3
#     Node 8, Type 1, BuildingBlock: MIDCAF_clean_sbu_0, # of connection points: 6
#     Node 9, Type 1, BuildingBlock: MIDCAF_clean_sbu_0, # of connection points: 6
#     Node 10, Type 1, BuildingBlock: MIDCAF_clean_sbu_0, # of connection points: 6
#     Node 11, Type 1, BuildingBlock: MIDCAF_clean_sbu_0, # of connection points: 6
#     Edge 12, Type (0, 1), BuildingBlock: XUDNAN_clean_linker_2, # of connection points: 2
#     Edge 13, Type (0, 1), BuildingBlock: XUDNAN_clean_linker_2, # of connection points: 2
#     Edge 14, Type (0, 1), BuildingBlock: XUDNAN_clean_linker_2, # of connection points: 2
#     Edge 15, Type (0, 1), BuildingBlock: XUDNAN_clean_linker_2, # of connection points: 2
#     Edge 16, Type (0, 1), BuildingBlock: XUDNAN_clean_linker_2, # of connection points: 2
#     Edge 17, Type (0, 1), BuildingBlock: XUDNAN_clean_linker_2, # of connection points: 2
#     Edge 18, Type (0, 1), BuildingBlock: XUDNAN_clean_linker_2, # of connection points: 2
#     Edge 19, Type (0, 1), BuildingBlock: XUDNAN_clean_linker_2, # of connection points: 2
#     Edge 20, Type (0, 1), BuildingBlock: XUDNAN_clean_linker_2, # of connection points: 2
#     Edge 21, Type (0, 1), BuildingBlock: XUDNAN_clean_linker_2, # of connection points: 2
#     Edge 22, Type (0, 1), BuildingBlock: XUDNAN_clean_linker_2, # of connection points: 2
#     Edge 23, Type (0, 1), BuildingBlock: XUDNAN_clean_linker_2, # of connection points: 2
#     Edge 24, Type (0, 1), BuildingBlock: XUDNAN_clean_linker_2, # of connection points: 2
#     Edge 25, Type (0, 1), BuildingBlock: XUDNAN_clean_linker_2, # of connection points: 2
#     Edge 26, Type (0, 1), BuildingBlock: XUDNAN_clean_linker_2, # of connection points: 2
#     Edge 27, Type (0, 1), BuildingBlock: XUDNAN_clean_linker_2, # of connection points: 2
#     Edge 28, Type (0, 1), BuildingBlock: XUDNAN_clean_linker_2, # of connection points: 2
#     Edge 29, Type (0, 1), BuildingBlock: XUDNAN_clean_linker_2, # of connection points: 2
#     Edge 30, Type (0, 1), BuildingBlock: XUDNAN_clean_linker_2, # of connection points: 2
#     Edge 31, Type (0, 1), BuildingBlock: XUDNAN_clean_linker_2, # of connection points: 2
#     Edge 32, Type (0, 1), BuildingBlock: XUDNAN_clean_linker_2, # of connection points: 2
#     Edge 33, Type (0, 1), BuildingBlock: XUDNAN_clean_linker_2, # of connection points: 2
#     Edge 34, Type (0, 1), BuildingBlock: XUDNAN_clean_linker_2, # of connection points: 2
#     Edge 35, Type (0, 1), BuildingBlock: XUDNAN_clean_linker_2, # of connection points: 2
# Relax obj value: 0.074
# Max RMSD: 0.157
# Mean RMSD: 0.119
data_MOF--net-pyr--node1-OLANEW_clean_sbu_2--node2-MIDCAF_clean_sbu_0--edge1-XUDNAN_clean_linker_2
_symmetry_space_group_name_H-M    P1
_symmetry_Int_Tables_number       1
_symmetry_cell_setting            triclinic
loop_
_symmetry_equiv_pos_as_xyz
'x, y, z'
_cell_length_a     37.857191
_cell_length_b     37.9481
_cell_length_c     37.230108
_cell_angle_alpha  94.190038
_cell_angle_beta   89.149071
_cell_angle_gamma 95.308373
loop_
_atom_site_label
_atom_site_type_symbol
_atom_site_fract_x
_atom_site_fract_y
_atom_site_fract_z
_atom_type_partial_charge
O0 O 0.30484 0.23188 0.21965 0.0
Cd1 Cd 0.24887 0.25961 0.23072 0.0
O2 O 0.30385 0.20914 0.2726 0.0
Cd3 Cd 0.25803 0.23176 0.2986 0.0
O4 O 0.22187 0.22509 0.34468 0.0
C5 C 0.19728 0.19994 0.34144 0.0
O6 O 0.19318 0.18179 0.31011 0.0
C7 C 0.31807 0.21265 0.24173 0.0
C8 C 0.23334 0.31411 0.18776 0.0
O9 O 0.24271 0.32102 0.22064 0.0
O10 O 0.23231 0.28185 0.17473 0.0
O11 O 0.33207 0.78736 0.83776 0.0
Cd12 Cd 0.29321 0.75846 0.79022 0.0
O13 O 0.29851 0.83067 0.85287 0.0
Cd14 Cd 0.25864 0.81889 0.81081 0.0
O15 O 0.2172 0.8278 0.77297 0.0
C16 C 0.20683 0.85875 0.77269 0.0
O17 O 0.22119 0.88415 0.79521 0.0
C18 C 0.32599 0.81475 0.85784 0.0
C19 C 0.3309 0.71841 0.73945 0.0
O20 O 0.32286 0.74942 0.7331 0.0
O21 O 0.32107 0.7063 0.76961 0.0
O22 O 0.77784 0.34217 0.85427 0.0
Cd23 Cd 0.72065 0.31016 0.83653 0.0
O24 O 0.80873 0.29719 0.8379 0.0
Cd25 Cd 0.76154 0.2593 0.83686 0.0
O26 O 0.72829 0.2204 0.86614 0.0
C27 C 0.73991 0.21485 0.89692 0.0
O28 O 0.76989 0.23221 0.90794 0.0
C29 C 0.80766 0.32953 0.84917 0.0
C30 C 0.68912 0.33998 0.77966 0.0
O31 O 0.6825 0.34993 0.81253 0.0
O32 O 0.71066 0.31602 0.77368 0.0
O33 O 0.83103 0.76669 0.33256 0.0
Cd34 Cd 0.81013 0.71054 0.29903 0.0
O35 O 0.87706 0.74441 0.35476 0.0
Cd36 Cd 0.85132 0.69116 0.34394 0.0
O37 O 0.80553 0.65627 0.3594 0.0
C38 C 0.7889 0.66868 0.38668 0.0
O39 O 0.80069 0.69971 0.40211 0.0
C40 C 0.85985 0.77092 0.35015 0.0
C41 C 0.85389 0.68932 0.2414 0.0
O42 O 0.82804 0.70794 0.23645 0.0
O43 O 0.85944 0.6813 0.27351 0.0
O44 O 0.96877 0.90504 0.90633 0.0
Cd45 Cd 0.94044 0.89851 0.96539 0.0
O46 O 0.96577 0.96284 0.90906 0.0
Cd47 Cd 0.92728 0.96496 0.95319 0.0
O48 O 0.8732 0.97788 0.96617 0.0
C49 C 0.86355 0.99309 0.99576 0.0
O50 O 0.88678 0.00085 0.02167 0.0
C51 C 0.97635 0.93484 0.89319 0.0
C52 C 0.94868 0.83138 0.98857 0.0
O53 O 0.92122 0.83719 0.97094 0.0
O54 O 0.97208 0.85748 0.99572 0.0
O55 O 0.59143 0.0644 0.43715 0.0
Cd56 Cd 0.62979 0.08451 0.48829 0.0
O57 O 0.60255 0.11606 0.41408 0.0
Cd58 Cd 0.6321 0.14245 0.45988 0.0
O59 O 0.64669 0.1917 0.49215 0.0
C60 C 0.62693 0.20177 0.51808 0.0
O61 O 0.59977 0.18022 0.52756 0.0
C62 C 0.5876 0.08459 0.41193 0.0
C63 C 0.69529 0.05586 0.48537 0.0
O64 O 0.66984 0.043 0.50497 0.0
O65 O 0.68967 0.08188 0.46678 0.0
O66 O 0.56067 0.67695 0.13475 0.0
Cd67 Cd 0.58867 0.62879 0.16004 0.0
O68 O 0.5065 0.65164 0.1382 0.0
Cd69 Cd 0.44905 0.64141 0.13143 0.0
O70 O 0.39454 0.61671 0.12784 0.0
C71 C 0.38379 0.60136 0.098 0.0
O72 O 0.40549 0.60158 0.07012 0.0
C73 C 0.52766 0.67763 0.12924 0.0
C74 C 0.57431 0.61975 0.23271 0.0
O75 O 0.59865 0.64309 0.22322 0.0
O76 O 0.55628 0.60133 0.2079 0.0
O77 O 0.10445 0.53594 0.6734 0.0
Cd78 Cd 0.13098 0.55318 0.61643 0.0
O79 O 0.10555 0.48077 0.65242 0.0
Cd80 Cd 0.09696 0.42288 0.64896 0.0
O81 O 0.09035 0.366 0.63385 0.0
C82 C 0.09318 0.35475 0.60099 0.0
O83 O 0.10024 0.37777 0.57658 0.0
C84 C 0.09826 0.50308 0.67803 0.0
C85 C 0.19779 0.52833 0.60712 0.0
O86 O 0.19453 0.55987 0.62077 0.0
O87 O 0.16955 0.5088 0.59767 0.0
Zn88 Zn 0.97556 0.04929 0.61288 0.0
Zn89 Zn 0.0586 0.97966 0.52499 0.0
Zn90 Zn 0.01529 0.01485 0.56632 0.0
C91 C 0.07715 0.05063 0.51533 0.0
C92 C 0.98918 0.95806 0.50133 0.0
O93 O 0.02052 0.99653 0.62181 0.0
O94 O 0.98569 0.02775 0.65734 0.0
C95 C 0.02221 0.10021 0.58273 0.0
O96 O 0.05288 0.05382 0.53973 0.0
O97 O 0.08479 0.02032 0.50325 0.0
O98 O 0.02119 0.95231 0.49589 0.0
O99 O 0.98114 0.9816 0.52616 0.0
O100 O 0.99866 0.09728 0.60693 0.0
O101 O 0.03158 0.07247 0.56425 0.0
O102 O 0.9602 0.00598 0.54601 0.0
O103 O 0.93002 0.03523 0.588 0.0
C104 C 0.93079 0.0169 0.55835 0.0
O105 O 0.04403 0.97954 0.59892 0.0
O106 O 0.08122 0.95376 0.56119 0.0
C107 C 0.00728 0.00439 0.65324 0.0
C108 C 0.06855 0.95837 0.59252 0.0
Zn109 Zn 0.49809 0.03877 0.03993 0.0
Zn110 Zn 0.57535 0.97151 0.12117 0.0
Zn111 Zn 0.53422 0.00384 0.08382 0.0
C112 C 0.6218 0.00804 0.08028 0.0
C113 C 0.53362 0.91854 0.08283 0.0
O114 O 0.50275 0.03981 0.11925 0.0
O115 O 0.47591 0.06777 0.07887 0.0
C116 C 0.568 0.05848 0.02497 0.0
O117 O 0.59148 0.01443 0.06792 0.0
O118 O 0.62309 0.99139 0.10822 0.0
O119 O 0.56131 0.9228 0.10165 0.0
O120 O 0.51845 0.94568 0.07397 0.0
O121 O 0.53785 0.06255 0.01274 0.0
O122 O 0.57088 0.03772 0.05055 0.0
O123 O 0.49913 0.96434 0.05077 0.0
O124 O 0.46947 0.99707 0.01711 0.0
C125 C 0.47572 0.96697 0.02653 0.0
O126 O 0.52285 0.01979 0.14116 0.0
O127 O 0.55602 0.98505 0.16869 0.0
C128 C 0.48177 0.06308 0.11141 0.0
C129 C 0.53366 0.00773 0.17016 0.0
Zn130 Zn 0.56487 0.5562 0.60149 0.0
Zn131 Zn 0.49742 0.46643 0.50459 0.0
Zn132 Zn 0.52744 0.511 0.553 0.0
C133 C 0.54685 0.43072 0.53623 0.0
C134 C 0.52342 0.52329 0.46745 0.0
O135 O 0.4881 0.54046 0.58416 0.0
O136 O 0.52258 0.5813 0.61625 0.0
C137 C 0.57639 0.48803 0.61779 0.0
O138 O 0.54692 0.45855 0.55825 0.0
O139 O 0.52945 0.42842 0.50742 0.0
O140 O 0.50182 0.49601 0.46259 0.0
O141 O 0.53771 0.53105 0.49864 0.0
O142 O 0.57954 0.51925 0.63235 0.0
O143 O 0.56002 0.48107 0.58755 0.0
O144 O 0.56434 0.54492 0.52235 0.0
O145 O 0.59909 0.57472 0.5637 0.0
C146 C 0.5921 0.56592 0.53096 0.0
O147 O 0.46958 0.51019 0.56506 0.0
O148 O 0.45166 0.4619 0.53094 0.0
C149 C 0.49209 0.5684 0.60613 0.0
C150 C 0.44499 0.48587 0.55476 0.0
Zn151 Zn 0.0949 0.56893 0.98019 0.0
Zn152 Zn 0.01832 0.48145 0.06212 0.0
Zn153 Zn 0.05568 0.52276 0.0169 0.0
C154 C 0.08918 0.47114 0.07186 0.0
C155 C 0.9985 0.46154 0.98853 0.0
O156 O 0.03564 0.57621 0.02465 0.0
O157 O 0.07395 0.61311 0.99708 0.0
C158 C 0.14169 0.53967 0.02284 0.0
O159 O 0.09263 0.49594 0.04975 0.0
O160 O 0.05869 0.45854 0.08127 0.0
O161 O 0.98884 0.45793 0.02085 0.0
O162 O 0.02559 0.48293 0.98121 0.0
O163 O 0.14193 0.56058 0.99799 0.0
O164 O 0.11217 0.52376 0.03343 0.0
O165 O 0.0488 0.50373 0.95941 0.0
O166 O 0.07985 0.54675 0.93241 0.0
C167 C 0.06033 0.51785 0.93054 0.0
O168 O 0.01798 0.55389 0.04989 0.0
O169 O 0.99811 0.51965 0.09296 0.0
C170 C 0.04585 0.60767 0.01526 0.0
C171 C 0.99969 0.54905 0.07896 0.0
H172 H 0.14451 0.14599 0.34273 0.0
H173 H 0.2048 0.22565 0.41237 0.0
H174 H 0.17607 0.19964 0.46574 0.0
H175 H 0.06263 0.13934 0.39887 0.0
H176 H 0.05535 0.09215 0.38816 0.0
H177 H 0.07693 0.12031 0.3559 0.0
H178 H 0.13039 0.08208 0.35292 0.0
H179 H 0.10918 0.05407 0.38531 0.0
H180 H 0.15304 0.07555 0.39385 0.0
H181 H 0.14532 0.15986 0.5119 0.0
H182 H 0.11494 0.11098 0.54523 0.0
H183 H 0.07614 0.05852 0.44441 0.0
C184 C 0.15115 0.15855 0.36912 0.0
C185 C 0.17687 0.1879 0.37331 0.0
C186 C 0.18501 0.20324 0.40844 0.0
C187 C 0.16882 0.18865 0.43893 0.0
C188 C 0.14434 0.15895 0.43382 0.0
C189 C 0.13533 0.14436 0.39966 0.0
C190 C 0.11042 0.111 0.4011 0.0
C191 C 0.07418 0.11602 0.38506 0.0
C192 C 0.12676 0.0788 0.38219 0.0
C193 C 0.10774 0.10828 0.44132 0.0
C194 C 0.127 0.13633 0.45999 0.0
C195 C 0.12976 0.13809 0.49751 0.0
C196 C 0.11253 0.11036 0.51623 0.0
C197 C 0.09303 0.0815 0.49723 0.0
C198 C 0.09059 0.08065 0.45947 0.0
H199 H 0.32152 0.87384 0.90362 0.0
H200 H 0.38786 0.78814 0.87682 0.0
H201 H 0.43111 0.81424 0.92277 0.0
H202 H 0.38985 0.94128 0.91294 0.0
H203 H 0.36945 0.96576 0.94971 0.0
H204 H 0.34224 0.93797 0.91789 0.0
H205 H 0.31267 0.90398 0.97009 0.0
H206 H 0.33996 0.93168 0.00213 0.0
H207 H 0.34002 0.88411 0.00076 0.0
H208 H 0.46972 0.85324 0.96828 0.0
H209 H 0.50052 0.90256 0.00648 0.0
H210 H 0.40801 0.96137 0.00309 0.0
C211 C 0.34483 0.86014 0.9077 0.0
C212 C 0.3512 0.82886 0.88664 0.0
C213 C 0.38232 0.81209 0.89269 0.0
C214 C 0.40698 0.82664 0.91884 0.0
C215 C 0.40001 0.85781 0.93883 0.0
C216 C 0.3696 0.87426 0.93352 0.0
C217 C 0.3693 0.90879 0.9564 0.0
C218 C 0.36763 0.94029 0.93282 0.0
C219 C 0.33867 0.90701 0.98398 0.0
C220 C 0.40479 0.90986 0.97465 0.0
C221 C 0.42199 0.88002 0.96475 0.0
C222 C 0.45616 0.87637 0.97673 0.0
C223 C 0.47335 0.9043 0.99874 0.0
C224 C 0.45631 0.93531 0.00832 0.0
C225 C 0.42146 0.93771 0.99652 0.0
H226 H 0.641 0.39011 0.78382 0.0
H227 H 0.70044 0.32632 0.70729 0.0
H228 H 0.67508 0.35469 0.65716 0.0
H229 H 0.56153 0.38911 0.72834 0.0
H230 H 0.55414 0.4342 0.74291 0.0
H231 H 0.57521 0.40724 0.7726 0.0
H232 H 0.62885 0.45486 0.7791 0.0
H233 H 0.60799 0.4819 0.74943 0.0
H234 H 0.65193 0.46914 0.73924 0.0
H235 H 0.64781 0.39415 0.61582 0.0
H236 H 0.61892 0.44048 0.58678 0.0
H237 H 0.57429 0.47568 0.68921 0.0
C238 C 0.64848 0.38186 0.75652 0.0
C239 C 0.67278 0.356 0.74952 0.0
C240 C 0.68189 0.34606 0.71337 0.0
C241 C 0.66759 0.36198 0.68469 0.0
C242 C 0.64402 0.38765 0.69256 0.0
C243 C 0.63434 0.39737 0.72758 0.0
C244 C 0.60938 0.42645 0.72882 0.0
C245 C 0.5729 0.41346 0.74407 0.0
C246 C 0.62552 0.46007 0.75042 0.0
C247 C 0.60724 0.43221 0.68912 0.0
C248 C 0.62723 0.40941 0.66861 0.0
C249 C 0.63117 0.41131 0.63149 0.0
C250 C 0.61412 0.43711 0.615 0.0
C251 C 0.59281 0.46001 0.6353 0.0
C252 C 0.58966 0.45773 0.6729 0.0
H253 H 0.91488 0.65596 0.24448 0.0
H254 H 0.84161 0.69157 0.16926 0.0
H255 H 0.87462 0.66397 0.11855 0.0
H256 H 0.99508 0.66778 0.18644 0.0
H257 H 0.01267 0.62882 0.20131 0.0
H258 H 0.98542 0.65444 0.2313 0.0
H259 H 0.94302 0.59802 0.2401 0.0
H260 H 0.97001 0.57231 0.2101 0.0
H261 H 0.92342 0.57298 0.2012 0.0
H262 H 0.91019 0.62517 0.0771 0.0
H263 H 0.94815 0.58139 0.04812 0.0
H264 H 0.00123 0.57509 0.14908 0.0
C265 C 0.90611 0.6585 0.21731 0.0
C266 C 0.87563 0.67592 0.21084 0.0
C267 C 0.86495 0.67849 0.17488 0.0
C268 C 0.88354 0.6629 0.14589 0.0
C269 C 0.91306 0.6453 0.15327 0.0
C270 C 0.92456 0.64343 0.18808 0.0
C271 C 0.95602 0.62155 0.1889 0.0
C272 C 0.98927 0.64453 0.20281 0.0
C273 C 0.94759 0.58931 0.2114 0.0
C274 C 0.95963 0.61033 0.14925 0.0
C275 C 0.93474 0.62449 0.12909 0.0
C276 C 0.93074 0.61516 0.09235 0.0
C277 C 0.95282 0.59087 0.07587 0.0
C278 C 0.97907 0.57698 0.09578 0.0
C279 C 0.98228 0.5866 0.13299 0.0
H280 H 0.35581 0.21165 0.17766 0.0
H281 H 0.34801 0.16499 0.2809 0.0
H282 H 0.393 0.12477 0.26091 0.0
H283 H 0.3629 0.13333 0.12465 0.0
H284 H 0.39454 0.15195 0.09296 0.0
H285 H 0.36455 0.17975 0.11664 0.0
H286 H 0.41775 0.22247 0.1406 0.0
H287 H 0.44796 0.19483 0.1168 0.0
H288 H 0.45263 0.20525 0.16461 0.0
H289 H 0.43292 0.084 0.22673 0.0
H290 H 0.46667 0.04899 0.18194 0.0
H291 H 0.45221 0.12479 0.10312 0.0
C292 C 0.36407 0.19351 0.19635 0.0
C293 C 0.34825 0.19163 0.23088 0.0
C294 C 0.35968 0.16715 0.25433 0.0
C295 C 0.3853 0.14411 0.24325 0.0
C296 C 0.39972 0.14606 0.20877 0.0
C297 C 0.38987 0.17047 0.18584 0.0
C298 C 0.40816 0.16598 0.14956 0.0
C299 C 0.38091 0.15722 0.11918 0.0
C300 C 0.43311 0.19911 0.14249 0.0
C301 C 0.42885 0.13456 0.15532 0.0
C302 C 0.42383 0.1235 0.18967 0.0
C303 C 0.43796 0.09313 0.20011 0.0
C304 C 0.45762 0.07359 0.17469 0.0
C305 C 0.46344 0.08471 0.13949 0.0
C306 C 0.44891 0.1158 0.13001 0.0
H307 H 0.1833 0.92338 0.76121 0.0
H308 H 0.17003 0.8117 0.72447 0.0
H309 H 0.12781 0.82492 0.67857 0.0
H310 H 0.09196 0.94142 0.74735 0.0
H311 H 0.10264 0.98462 0.73065 0.0
H312 H 0.13105 0.96837 0.76295 0.0
H313 H 0.18571 0.97558 0.72169 0.0
H314 H 0.15922 0.99431 0.68954 0.0
H315 H 0.18338 0.95675 0.67581 0.0
H316 H 0.09269 0.85053 0.63285 0.0
H317 H 0.06618 0.88716 0.59009 0.0
H318 H 0.09999 0.98223 0.65688 0.0
C319 C 0.17112 0.9016 0.74388 0.0
C320 C 0.17996 0.86644 0.74651 0.0
C321 C 0.16369 0.8388 0.72304 0.0
C322 C 0.13955 0.84604 0.69696 0.0
C323 C 0.13178 0.881 0.6948 0.0
C324 C 0.14697 0.90836 0.71765 0.0
C325 C 0.13565 0.94386 0.70818 0.0
C326 C 0.11402 0.96059 0.7391 0.0
C327 C 0.16791 0.96909 0.6982 0.0
C328 C 0.11264 0.93228 0.67567 0.0
C329 C 0.11058 0.89583 0.66869 0.0
C330 C 0.09349 0.87898 0.63841 0.0
C331 C 0.07863 0.89993 0.61427 0.0
C332 C 0.08068 0.93722 0.62069 0.0
C333 C 0.09741 0.95362 0.65201 0.0
H334 H 0.81544 0.38445 0.90069 0.0
H335 H 0.87493 0.3219 0.82334 0.0
H336 H 0.93101 0.35352 0.84667 0.0
H337 H 0.87504 0.46779 0.90287 0.0
H338 H 0.86903 0.47608 0.95076 0.0
H339 H 0.83378 0.45272 0.92402 0.0
H340 H 0.83198 0.40047 0.96534 0.0
H341 H 0.86732 0.42349 0.99198 0.0
H342 H 0.87196 0.37944 0.97196 0.0
H343 H 0.98098 0.38912 0.882 0.0
H344 H 0.01971 0.42257 0.92851 0.0
H345 H 0.92705 0.45851 0.98426 0.0
C346 C 0.8402 0.37816 0.88792 0.0
C347 C 0.84087 0.35116 0.85983 0.0
C348 C 0.87387 0.34277 0.84469 0.0
C349 C 0.90582 0.36064 0.8577 0.0
C350 C 0.90429 0.38657 0.88609 0.0
C351 C 0.87226 0.39519 0.90107 0.0
C352 C 0.87775 0.42108 0.9338 0.0
C353 C 0.86303 0.45652 0.92747 0.0
C354 C 0.86129 0.40515 0.96776 0.0
C355 C 0.91782 0.42513 0.93543 0.0
C356 C 0.93279 0.40567 0.90729 0.0
C357 C 0.9695 0.40474 0.9039 0.0
C358 C 0.99133 0.42393 0.93017 0.0
C359 C 0.97627 0.44323 0.9595 0.0
C360 C 0.93914 0.4439 0.96197 0.0
H361 H 0.75273 0.68548 0.44869 0.0
H362 H 0.75344 0.60677 0.35804 0.0
H363 H 0.70082 0.57347 0.38355 0.0
H364 H 0.73008 0.62519 0.51524 0.0
H365 H 0.70237 0.6541 0.54093 0.0
H366 H 0.73861 0.67266 0.51438 0.0
H367 H 0.69519 0.70758 0.48082 0.0
H368 H 0.65878 0.68909 0.5073 0.0
H369 H 0.657 0.68399 0.45882 0.0
H370 H 0.64965 0.54767 0.42038 0.0
H371 H 0.60497 0.5304 0.46634 0.0
H372 H 0.63789 0.62626 0.53265 0.0
C373 C 0.74171 0.66139 0.43398 0.0
C374 C 0.75713 0.64876 0.4013 0.0
C375 C 0.74205 0.61694 0.38312 0.0
C376 C 0.71212 0.59792 0.39733 0.0
C377 C 0.69769 0.6111 0.42971 0.0
C378 C 0.71204 0.64207 0.44782 0.0
C379 C 0.69249 0.64984 0.48286 0.0
C380 C 0.71738 0.65047 0.51526 0.0
C381 C 0.67482 0.68469 0.4824 0.0
C382 C 0.66515 0.61812 0.48194 0.0
C383 C 0.66836 0.59625 0.45091 0.0
C384 C 0.64666 0.56479 0.44455 0.0
C385 C 0.62123 0.55534 0.47073 0.0
C386 C 0.61751 0.57739 0.5027 0.0
C387 C 0.63985 0.60914 0.50828 0.0
H388 H 0.18678 0.36231 0.20828 0.0
H389 H 0.25138 0.32684 0.1182 0.0
H390 H 0.22749 0.37054 0.0808 0.0
H391 H 0.11146 0.36638 0.15692 0.0
H392 H 0.09585 0.40414 0.18249 0.0
H393 H 0.1229 0.3753 0.20375 0.0
H394 H 0.16772 0.42908 0.22266 0.0
H395 H 0.14073 0.45811 0.2013 0.0
H396 H 0.18682 0.45692 0.18882 0.0
H397 H 0.19387 0.41644 0.05245 0.0
H398 H 0.14734 0.45268 0.03297 0.0
H399 H 0.10037 0.45263 0.13977 0.0
C400 C 0.19661 0.36456 0.18099 0.0
C401 C 0.22153 0.34199 0.16625 0.0
C402 C 0.23268 0.3444 0.13001 0.0
C403 C 0.21938 0.36922 0.1087 0.0
C404 C 0.19441 0.39091 0.12388 0.0
C405 C 0.18274 0.38836 0.15908 0.0
C406 C 0.1522 0.41083 0.1675 0.0
C407 C 0.11863 0.38778 0.17828 0.0
C408 C 0.1625 0.4405 0.19681 0.0
C409 C 0.14791 0.42582 0.13138 0.0
C410 C 0.17321 0.41499 0.10686 0.0
C411 C 0.17402 0.4251 0.0715 0.0
C412 C 0.14764 0.44579 0.06069 0.0
C413 C 0.12042 0.45536 0.08492 0.0
C414 C 0.12102 0.44573 0.1208 0.0
H415 H 0.67715 0.17364 0.8827 0.0
H416 H 0.75749 0.20012 0.96479 0.0
H417 H 0.72384 0.16052 0.00529 0.0
H418 H 0.60286 0.17142 0.94161 0.0
H419 H 0.57846 0.1344 0.91724 0.0
H420 H 0.60982 0.16328 0.89382 0.0
H421 H 0.64287 0.10926 0.87016 0.0
H422 H 0.61154 0.08019 0.89351 0.0
H423 H 0.65836 0.08043 0.90175 0.0
H424 H 0.67958 0.12132 0.03853 0.0
H425 H 0.62808 0.08448 0.06145 0.0
H426 H 0.57773 0.08141 0.95727 0.0
C427 C 0.68782 0.17091 0.90908 0.0
C428 C 0.71999 0.19003 0.92052 0.0
C429 C 0.73294 0.18576 0.95534 0.0
C430 C 0.71404 0.16327 0.97858 0.0
C431 C 0.68233 0.14502 0.96658 0.0
C432 C 0.66936 0.14844 0.93261 0.0
C433 C 0.63409 0.12658 0.92675 0.0
C434 C 0.60457 0.15035 0.91943 0.0
C435 C 0.6369 0.09738 0.89623 0.0
C436 C 0.62896 0.11096 0.96296 0.0
C437 C 0.65718 0.12177 0.9855 0.0
C438 C 0.65765 0.11213 0.0209 0.0
C439 C 0.62845 0.09095 0.0336 0.0
C440 C 0.59951 0.07914 0.0108 0.0
C441 C 0.59982 0.08949 0.9751 0.0
H442 H 0.92692 0.80358 0.35514 0.0
H443 H 0.8183 0.81473 0.38897 0.0
H444 H 0.8385 0.86735 0.4293 0.0
H445 H 0.96738 0.82545 0.43689 0.0
H446 H 0.00588 0.85062 0.41972 0.0
H447 H 0.98248 0.81607 0.39132 0.0
H448 H 0.97392 0.8608 0.34345 0.0
H449 H 0.99769 0.8955 0.37159 0.0
H450 H 0.95369 0.90105 0.35642 0.0
H451 H 0.87259 0.91135 0.47411 0.0
H452 H 0.91649 0.9488 0.51195 0.0
H453 H 0.001 0.91482 0.44168 0.0
C454 C 0.90739 0.81773 0.37039 0.0
C455 C 0.87117 0.80541 0.36906 0.0
C456 C 0.84619 0.82421 0.38944 0.0
C457 C 0.85742 0.85395 0.4125 0.0
C458 C 0.89356 0.865 0.41393 0.0
C459 C 0.91802 0.84805 0.39259 0.0
C460 C 0.95533 0.86472 0.39946 0.0
C461 C 0.97914 0.8376 0.41264 0.0
C462 C 0.97108 0.88152 0.36572 0.0
C463 C 0.94824 0.89274 0.429 0.0
C464 C 0.91256 0.89243 0.43729 0.0
C465 C 0.90043 0.91304 0.46672 0.0
C466 C 0.92546 0.93475 0.48784 0.0
C467 C 0.96197 0.93654 0.4788 0.0
C468 C 0.9732 0.91512 0.44886 0.0
H469 H 0.37463 0.6676 0.75293 0.0
H470 H 0.33343 0.72205 0.66635 0.0
H471 H 0.3676 0.68665 0.62205 0.0
H472 H 0.46277 0.66644 0.71546 0.0
H473 H 0.46954 0.62386 0.7314 0.0
H474 H 0.44043 0.65223 0.75573 0.0
H475 H 0.39013 0.60152 0.75087 0.0
H476 H 0.4183 0.5729 0.72548 0.0
H477 H 0.37644 0.58177 0.7073 0.0
H478 H 0.40642 0.64511 0.5873 0.0
H479 H 0.4503 0.60367 0.56528 0.0
H480 H 0.4684 0.57912 0.6749 0.0
C481 C 0.37258 0.67183 0.72461 0.0
C482 C 0.35119 0.69728 0.71294 0.0
C483 C 0.34969 0.70263 0.67577 0.0
C484 C 0.36888 0.68259 0.65046 0.0
C485 C 0.38987 0.65778 0.66287 0.0
C486 C 0.39214 0.65264 0.69911 0.0
C487 C 0.41814 0.62583 0.70567 0.0
C488 C 0.44958 0.64313 0.7284 0.0
C489 C 0.39965 0.59359 0.72334 0.0
C490 C 0.42965 0.61613 0.6674 0.0
C491 C 0.41305 0.63483 0.64306 0.0
C492 C 0.41958 0.63036 0.60611 0.0
C493 C 0.44416 0.60658 0.5938 0.0
C494 C 0.46181 0.58778 0.61841 0.0
C495 C 0.45447 0.59264 0.65558 0.0
H496 H 0.00195 0.99458 0.86149 0.0
H497 H 0.98864 0.87994 0.84344 0.0
H498 H 0.00659 0.88495 0.77976 0.0
H499 H 0.96281 0.01284 0.78617 0.0
H500 H 0.99157 0.05177 0.77701 0.0
H501 H 0.98618 0.03892 0.82232 0.0
H502 H 0.05408 0.03728 0.82746 0.0
H503 H 0.06001 0.05003 0.78189 0.0
H504 H 0.0774 0.01027 0.79499 0.0
H505 H 0.01459 0.90325 0.71574 0.0
H506 H 0.01174 0.93318 0.65894 0.0
H507 H 0.02017 0.03525 0.71971 0.0
C508 C 0.00394 0.97042 0.84451 0.0
C509 C 0.99387 0.93689 0.85745 0.0
C510 C 0.99648 0.90594 0.8342 0.0
C511 C 0.0067 0.90853 0.79796 0.0
C512 C 0.01478 0.9422 0.78561 0.0
C513 C 0.01409 0.97257 0.80846 0.0
C514 C 0.01965 0.0057 0.78812 0.0
C515 C 0.98818 0.02861 0.79373 0.0
C516 C 0.05489 0.02707 0.79874 0.0
C517 C 0.02128 0.98931 0.75 0.0
C518 C 0.01924 0.95268 0.74894 0.0
C519 C 0.01695 0.93192 0.71632 0.0
C520 C 0.01557 0.94906 0.68418 0.0
C521 C 0.01632 0.98643 0.68515 0.0
C522 C 0.02016 0.00664 0.71835 0.0
H523 H 0.58466 0.11647 0.34863 0.0
H524 H 0.54381 0.02295 0.40183 0.0
H525 H 0.51257 0.99953 0.34617 0.0
H526 H 0.50581 0.12037 0.28757 0.0
H527 H 0.53448 0.13388 0.25104 0.0
H528 H 0.54691 0.14718 0.29697 0.0
H529 H 0.60668 0.1194 0.28666 0.0
H530 H 0.59454 0.10652 0.24086 0.0
H531 H 0.60626 0.07355 0.26995 0.0
H532 H 0.49478 0.98169 0.28343 0.0
H533 H 0.49661 0.96841 0.21759 0.0
H534 H 0.5486 0.07303 0.20412 0.0
C535 C 0.5683 0.09152 0.34892 0.0
C536 C 0.5665 0.07162 0.37966 0.0
C537 C 0.54551 0.03871 0.37866 0.0
C538 C 0.52738 0.02537 0.34725 0.0
C539 C 0.53027 0.04536 0.31717 0.0
C540 C 0.55024 0.07777 0.31774 0.0
C541 C 0.55337 0.09157 0.28051 0.0
C542 C 0.53398 0.12525 0.27895 0.0
C543 C 0.59252 0.0981 0.26882 0.0
C544 C 0.53419 0.06071 0.25846 0.0
C545 C 0.51997 0.03489 0.28034 0.0
C546 C 0.50483 0.00208 0.26609 0.0
C547 C 0.50584 0.99479 0.22871 0.0
C548 C 0.52185 0.02014 0.20612 0.0
C549 C 0.53493 0.05393 0.22096 0.0
H550 H 0.53992 0.56099 0.26002 0.0
H551 H 0.5957 0.66326 0.29201 0.0
H552 H 0.58719 0.65091 0.35611 0.0
H553 H 0.47551 0.55846 0.33259 0.0
H554 H 0.47708 0.51165 0.33703 0.0
H555 H 0.48593 0.52962 0.29401 0.0
H556 H 0.5467 0.50306 0.29058 0.0
H557 H 0.53803 0.48505 0.33358 0.0
H558 H 0.57781 0.51384 0.32681 0.0
H559 H 0.57165 0.62704 0.41714 0.0
H560 H 0.55371 0.59231 0.46916 0.0
H561 H 0.51259 0.50429 0.39606 0.0
C562 C 0.54997 0.58101 0.28049 0.0
C563 C 0.56815 0.61324 0.27109 0.0
C564 C 0.58155 0.63844 0.29866 0.0
C565 C 0.57679 0.63168 0.33511 0.0
C566 C 0.55891 0.59948 0.34345 0.0
C567 C 0.54595 0.57448 0.31685 0.0
C568 C 0.52926 0.54125 0.33269 0.0
C569 C 0.48959 0.53489 0.32354 0.0
C570 C 0.54915 0.5089 0.32017 0.0
C571 C 0.53474 0.55142 0.37237 0.0
C572 C 0.55159 0.58519 0.37817 0.0
C573 C 0.55882 0.60039 0.41283 0.0
C574 C 0.54886 0.58036 0.44224 0.0
C575 C 0.53273 0.54521 0.43673 0.0
C576 C 0.52524 0.53095 0.40127 0.0
H577 H 0.05897 0.54093 0.72563 0.0
H578 H 0.10718 0.44165 0.71076 0.0
H579 H 0.08957 0.428 0.77267 0.0
H580 H 0.09118 0.56422 0.80851 0.0
H581 H 0.05301 0.58491 0.82634 0.0
H582 H 0.06158 0.58245 0.77877 0.0
H583 H 0.99879 0.55039 0.76744 0.0
H584 H 0.99011 0.55264 0.81527 0.0
H585 H 0.98542 0.51045 0.78942 0.0
H586 H 0.07712 0.43081 0.83952 0.0
H587 H 0.07377 0.45136 0.9041 0.0
H588 H 0.03386 0.54854 0.87527 0.0
C589 C 0.0648 0.51576 0.735 0.0
C590 C 0.08367 0.49196 0.713 0.0
C591 C 0.09157 0.45969 0.72652 0.0
C592 C 0.0818 0.4518 0.76183 0.0
C593 C 0.06389 0.47632 0.78317 0.0
C594 C 0.05528 0.50759 0.77005 0.0
C595 C 0.0405 0.53185 0.79943 0.0
C596 C 0.06292 0.56794 0.8035 0.0
C597 C 0.00137 0.5366 0.79247 0.0
C598 C 0.04418 0.51041 0.83162 0.0
C599 C 0.05678 0.47799 0.82172 0.0
C600 C 0.06616 0.45558 0.84747 0.0
C601 C 0.06386 0.46722 0.8841 0.0
C602 C 0.05244 0.50092 0.89442 0.0
C603 C 0.0415 0.52214 0.86791 0.0
H604 H 0.82973 0.012 0.05898 0.0
H605 H 0.81308 0.9929 0.94386 0.0
H606 H 0.75022 0.00407 0.95235 0.0
H607 H 0.75126 0.9667 0.08493 0.0
H608 H 0.74309 0.99639 0.12358 0.0
H609 H 0.78775 0.99245 0.10781 0.0
H610 H 0.7965 0.0604 0.10198 0.0
H611 H 0.75166 0.06446 0.11763 0.0
H612 H 0.76608 0.08104 0.07517 0.0
H613 H 0.68794 0.01089 0.97388 0.0
H614 H 0.63094 0.00853 0.0073 0.0
H615 H 0.68796 0.02298 0.10819 0.0
C616 C 0.81305 0.01091 0.03548 0.0
C617 C 0.82637 0.00174 0.00076 0.0
C618 C 0.80348 -0.00011 0.97075 0.0
C619 C 0.76778 0.00646 0.97525 0.0
C620 C 0.75533 0.01496 0.00991 0.0
C621 C 0.77727 0.01714 0.03953 0.0
C622 C 0.75659 0.02307 0.07421 0.0
C623 C 0.75986 0.99285 0.09907 0.0
C624 C 0.76842 0.05941 0.09337 0.0
C625 C 0.71941 0.02234 0.05958 0.0
C626 C 0.71929 0.01851 0.02239 0.0
C627 C 0.68775 0.01456 0.00297 0.0
C628 C 0.6555 0.01344 0.02214 0.0
C629 C 0.65514 0.01622 0.06025 0.0
C630 C 0.68753 0.02145 0.07903 0.0
H631 H 0.72488 0.02504 0.54006 0.0
H632 H 0.74618 0.05847 0.43241 0.0
H633 H 0.80758 0.04157 0.43578 0.0
H634 H 0.80368 0.06275 0.57556 0.0
H635 H 0.80941 0.02888 0.60595 0.0
H636 H 0.76563 0.03645 0.59219 0.0
H637 H 0.75422 0.97028 0.56912 0.0
H638 H 0.79817 0.96255 0.58281 0.0
H639 H 0.78445 0.95132 0.53692 0.0
H640 H 0.86837 0.02698 0.45343 0.0
H641 H 0.92418 0.02249 0.48607 0.0
H642 H 0.86367 0.00244 0.5833 0.0
C643 C 0.74215 0.02773 0.51678 0.0
C644 C 0.73072 0.0425 0.48576 0.0
C645 C 0.75442 0.04689 0.45631 0.0
C646 C 0.78923 0.03715 0.45791 0.0
C647 C 0.79999 0.02332 0.48926 0.0
C648 C 0.77714 0.01885 0.51827 0.0
C649 C 0.79638 0.00835 0.55063 0.0
C650 C 0.79362 0.03575 0.58296 0.0
C651 C 0.78247 0.97089 0.56043 0.0
C652 C 0.83384 0.00894 0.53581 0.0
C653 C 0.83529 0.01654 0.50003 0.0
C654 C 0.86747 0.02053 0.48128 0.0
C655 C 0.899 0.01784 0.49993 0.0
C656 C 0.898 0.01181 0.53699 0.0
C657 C 0.86499 0.00655 0.5548 0.0
H658 H 0.34837 0.58017 0.03567 0.0
H659 H 0.33601 0.58501 0.1519 0.0
H660 H 0.27371 0.55957 0.14506 0.0
H661 H 0.26753 0.60965 0.01838 0.0
H662 H 0.25942 0.58205 0.97731 0.0
H663 H 0.30416 0.59483 0.99165 0.0
H664 H 0.31638 0.52856 0.98954 0.0
H665 H 0.27142 0.51559 0.9754 0.0
H666 H 0.28827 0.49819 0.01486 0.0
H667 H 0.21091 0.53901 0.1252 0.0
H668 H 0.15288 0.53164 0.09434 0.0
H669 H 0.2068 0.54188 0.99165 0.0
C670 C 0.33284 0.57515 0.05973 0.0
C671 C 0.34711 0.58433 0.0943 0.0
C672 C 0.32563 0.57809 0.1251 0.0
C673 C 0.2903 0.56338 0.12149 0.0
C674 C 0.27689 0.55504 0.08692 0.0
C675 C 0.29755 0.56087 0.05659 0.0
C676 C 0.27601 0.55364 0.02255 0.0
C677 C 0.27682 0.58703 0.00126 0.0
C678 C 0.28879 0.52211 0.99922 0.0
C679 C 0.23968 0.54423 0.03846 0.0
C680 C 0.24075 0.54418 0.07555 0.0
C681 C 0.20987 0.53848 0.09614 0.0
C682 C 0.17704 0.53411 0.07842 0.0
C683 C 0.17553 0.53597 0.04067 0.0
C684 C 0.20731 0.54002 0.02053 0.0
H685 H 0.26317 0.5664 0.61134 0.0
H686 H 0.21208 0.45963 0.59153 0.0
H687 H 0.2707 0.43681 0.58206 0.0
H688 H 0.32875 0.55988 0.54428 0.0
H689 H 0.36384 0.58512 0.56958 0.0
H690 H 0.31844 0.59345 0.57866 0.0
H691 H 0.32693 0.58362 0.64483 0.0
H692 H 0.37162 0.57152 0.63801 0.0
H693 H 0.3389 0.5414 0.65773 0.0
H694 H 0.33402 0.42593 0.57186 0.0
H695 H 0.39778 0.4279 0.55757 0.0
H696 H 0.40836 0.54173 0.58214 0.0
C697 C 0.26433 0.53817 0.60538 0.0
C698 C 0.23305 0.51475 0.6023 0.0
C699 C 0.23568 0.47806 0.59402 0.0
C700 C 0.26886 0.46481 0.58878 0.0
C701 C 0.29915 0.48861 0.59182 0.0
C702 C 0.29723 0.52451 0.5997 0.0
C703 C 0.33377 0.54452 0.5995 0.0
C704 C 0.33634 0.57239 0.57134 0.0
C705 C 0.34328 0.56133 0.63727 0.0
C706 C 0.35644 0.51446 0.58902 0.0
C707 C 0.3359 0.48236 0.58545 0.0
C708 C 0.3504 0.45088 0.57479 0.0
C709 C 0.38668 0.45234 0.56668 0.0
C710 C 0.4082 0.48508 0.56898 0.0
C711 C 0.39289 0.51639 0.58101 0.0
H712 H 0.00744 0.80905 0.0193 0.0
H713 H 0.90224 0.77178 0.97987 0.0
H714 H 0.91316 0.71048 0.99109 0.0
H715 H 0.05065 0.74078 0.97849 0.0
H716 H 0.0811 0.73744 0.01459 0.0
H717 H 0.06316 0.77889 0.00896 0.0
H718 H 0.03946 0.78036 0.07469 0.0
H719 H 0.05743 0.73879 0.08052 0.0
H720 H 0.01103 0.74323 0.08924 0.0
H721 H 0.93854 0.65307 0.99709 0.0
H722 H 0.9765 0.60369 0.99861 0.0
H723 H 0.06422 0.67722 0.03702 0.0
C724 C 0.98636 0.78812 0.01386 0.0
C725 C 0.95392 0.79525 0.99882 0.0
C726 C 0.92726 0.76701 0.99149 0.0
C727 C 0.93316 0.73209 0.99793 0.0
C728 C 0.96572 0.72585 0.012 0.0
C729 C 0.99182 0.75309 0.02015 0.0
C730 C 0.0256 0.73886 0.03195 0.0
C731 C 0.05695 0.74963 0.007 0.0
C732 C 0.03385 0.75104 0.07145 0.0
C733 C 0.01492 0.69932 0.02762 0.0
C734 C 0.98007 0.69242 0.01662 0.0
C735 C 0.96535 0.65805 0.00711 0.0
C736 C 0.98687 0.63009 0.00857 0.0
C737 C 0.02238 0.63648 0.02016 0.0
C738 C 0.03657 0.67155 0.02977 0.0
H739 H 0.56635 0.7217 0.08676 0.0
H740 H 0.46242 0.70519 0.13624 0.0
H741 H 0.44693 0.76216 0.11529 0.0
H742 H 0.58208 0.80703 0.11603 0.0
H743 H 0.60606 0.82146 0.07673 0.0
H744 H 0.60497 0.77606 0.08731 0.0
H745 H 0.57983 0.75582 0.02392 0.0
H746 H 0.58064 0.80149 0.01328 0.0
H747 H 0.53994 0.77286 0.00931 0.0
H748 H 0.4473 0.82611 0.09865 0.0
H749 H 0.46537 0.89006 0.09322 0.0
H750 H 0.5694 0.86434 0.05641 0.0
C751 C 0.53988 0.72949 0.09224 0.0
C752 C 0.5154 0.70865 0.11262 0.0
C753 C 0.48128 0.72009 0.11977 0.0
C754 C 0.4723 0.75256 0.10801 0.0
C755 C 0.49761 0.77304 0.08883 0.0
C756 C 0.5307 0.76166 0.08086 0.0
C757 C 0.55522 0.79025 0.06487 0.0
C758 C 0.58902 0.79923 0.08761 0.0
C759 C 0.56443 0.77945 0.0255 0.0
C760 C 0.53168 0.8204 0.06722 0.0
C761 C 0.4981 0.80985 0.07993 0.0
C762 C 0.47321 0.83439 0.08789 0.0
C763 C 0.48354 0.87064 0.08454 0.0
C764 C 0.5186 0.88178 0.07404 0.0
C765 C 0.54222 0.85622 0.06376 0.0
H766 H 0.08068 0.30042 0.64524 0.0
H767 H 0.09233 0.32216 0.53261 0.0
H768 H 0.07979 0.25814 0.51507 0.0
H769 H 0.12019 0.21576 0.63775 0.0
H770 H 0.08955 0.19648 0.66996 0.0
H771 H 0.10201 0.24358 0.67338 0.0
H772 H 0.03571 0.25546 0.67161 0.0
H773 H 0.02307 0.20847 0.66818 0.0
H774 H 0.00863 0.23581 0.63465 0.0
H775 H 0.06094 0.19174 0.50999 0.0
H776 H 0.03807 0.12941 0.51845 0.0
H777 H 0.04095 0.15217 0.63414 0.0
C778 C 0.08099 0.29177 0.61687 0.0
C779 C 0.08748 0.31632 0.59031 0.0
C780 C 0.08748 0.30382 0.55348 0.0
C781 C 0.08045 0.2675 0.54324 0.0
C782 C 0.07375 0.24405 0.57017 0.0
C783 C 0.07418 0.25575 0.60624 0.0
C784 C 0.06471 0.2256 0.62999 0.0
C785 C 0.09599 0.22003 0.65419 0.0
C786 C 0.03103 0.23171 0.6524 0.0
C787 C 0.05808 0.19519 0.60168 0.0
C788 C 0.06363 0.20614 0.56728 0.0
C789 C 0.05716 0.18279 0.53684 0.0
C790 C 0.04447 0.14745 0.54182 0.0
C791 C 0.03878 0.13598 0.57689 0.0
C792 C 0.04576 0.16019 0.60702 0.0
H793 H 0.58199 0.23532 0.5647 0.0
H794 H 0.67696 0.25414 0.49961 0.0
H795 H 0.67267 0.31841 0.50848 0.0
H796 H 0.53437 0.29158 0.53066 0.0
H797 H 0.51304 0.30889 0.57094 0.0
H798 H 0.52872 0.26563 0.5694 0.0
H799 H 0.5672 0.28397 0.62591 0.0
H800 H 0.55106 0.32735 0.62808 0.0
H801 H 0.59808 0.32314 0.62645 0.0
H802 H 0.64943 0.37663 0.50904 0.0
H803 H 0.61194 0.42645 0.5074 0.0
H804 H 0.53325 0.37239 0.5745 0.0
C805 C 0.60278 0.25305 0.55371 0.0
C806 C 0.62967 0.23968 0.53128 0.0
C807 C 0.65608 0.26369 0.51686 0.0
C808 C 0.65395 0.30034 0.5219 0.0
C809 C 0.62576 0.31264 0.54211 0.0
C810 C 0.60113 0.28982 0.55872 0.0
C811 C 0.57088 0.30947 0.57495 0.0
C812 C 0.53465 0.2929 0.56059 0.0
C813 C 0.57188 0.31107 0.6163 0.0
C814 C 0.58045 0.34586 0.56153 0.0
C815 C 0.61275 0.34737 0.54352 0.0
C816 C 0.62488 0.37635 0.52432 0.0
C817 C 0.60339 0.40433 0.52327 0.0
C818 C 0.5705 0.40329 0.54169 0.0
C819 C 0.55903 0.37404 0.56142 0.0
loop_
_geom_bond_atom_site_label_1
_geom_bond_atom_site_label_2
_geom_bond_distance
_geom_bond_site_symmetry_2
_ccdc_geom_bond_type
O0 Cd1 2.300 . S
O0 C7 1.275 . S
Cd1 O0 2.300 . S
Cd1 O9 2.381 . S
Cd1 O10 2.378 . S
O2 Cd3 2.385 . S
O2 C7 1.255 . S
Cd3 O2 2.385 . S
Cd3 O4 2.317 . S
O4 Cd3 2.317 . S
O4 C5 1.232 . S
C5 O4 1.232 . S
C5 O6 1.218 . S
O6 C5 1.218 . S
C7 O0 1.275 . S
C7 O2 1.255 . S
C8 O9 1.258 . S
C8 O10 1.256 . S
O9 Cd1 2.381 . S
O9 C8 1.258 . S
O10 Cd1 2.378 . S
O10 C8 1.256 . S
O11 Cd12 2.300 . S
O11 C18 1.275 . S
Cd12 O11 2.300 . S
Cd12 O20 2.381 . S
Cd12 O21 2.378 . S
O13 Cd14 2.385 . S
O13 C18 1.255 . S
Cd14 O13 2.385 . S
Cd14 O15 2.317 . S
O15 Cd14 2.317 . S
O15 C16 1.232 . S
C16 O15 1.232 . S
C16 O17 1.218 . S
O17 C16 1.218 . S
C18 O11 1.275 . S
C18 O13 1.255 . S
C19 O20 1.258 . S
C19 O21 1.256 . S
O20 Cd12 2.381 . S
O20 C19 1.258 . S
O21 Cd12 2.378 . S
O21 C19 1.256 . S
O22 Cd23 2.300 . S
O22 C29 1.275 . S
Cd23 O22 2.300 . S
Cd23 O31 2.381 . S
Cd23 O32 2.378 . S
O24 Cd25 2.385 . S
O24 C29 1.255 . S
Cd25 O24 2.385 . S
Cd25 O26 2.317 . S
O26 Cd25 2.317 . S
O26 C27 1.232 . S
C27 O26 1.232 . S
C27 O28 1.218 . S
O28 C27 1.218 . S
C29 O22 1.275 . S
C29 O24 1.255 . S
C30 O31 1.258 . S
C30 O32 1.256 . S
O31 Cd23 2.381 . S
O31 C30 1.258 . S
O32 Cd23 2.378 . S
O32 C30 1.256 . S
O33 Cd34 2.300 . S
O33 C40 1.275 . S
Cd34 O33 2.300 . S
Cd34 O42 2.381 . S
Cd34 O43 2.378 . S
O35 Cd36 2.385 . S
O35 C40 1.255 . S
Cd36 O35 2.385 . S
Cd36 O37 2.317 . S
O37 Cd36 2.317 . S
O37 C38 1.232 . S
C38 O37 1.232 . S
C38 O39 1.218 . S
O39 C38 1.218 . S
C40 O33 1.275 . S
C40 O35 1.255 . S
C41 O42 1.258 . S
C41 O43 1.256 . S
O42 Cd34 2.381 . S
O42 C41 1.258 . S
O43 Cd34 2.378 . S
O43 C41 1.256 . S
O44 Cd45 2.300 . S
O44 C51 1.275 . S
Cd45 O44 2.300 . S
Cd45 O53 2.381 . S
Cd45 O54 2.378 1_556 S
O46 Cd47 2.385 1_566 S
O46 C51 1.255 . S
Cd47 O46 2.385 1_544 S
Cd47 O48 2.317 1_545 S
O48 Cd47 2.317 1_565 S
O48 C49 1.232 . S
C49 O48 1.232 . S
C49 O50 1.218 1_565 S
O50 C49 1.218 1_545 S
C51 O44 1.275 . S
C51 O46 1.255 . S
C52 O53 1.258 1_554 S
C52 O54 1.256 . S
O53 Cd45 2.381 . S
O53 C52 1.258 1_556 S
O54 Cd45 2.378 1_554 S
O54 C52 1.256 . S
O55 Cd56 2.300 . S
O55 C62 1.275 . S
Cd56 O55 2.300 . S
Cd56 O64 2.381 . S
Cd56 O65 2.378 . S
O57 Cd58 2.385 . S
O57 C62 1.255 . S
Cd58 O57 2.385 . S
Cd58 O59 2.317 . S
O59 Cd58 2.317 . S
O59 C60 1.232 . S
C60 O59 1.232 . S
C60 O61 1.218 . S
O61 C60 1.218 . S
C62 O55 1.275 . S
C62 O57 1.255 . S
C63 O64 1.258 . S
C63 O65 1.256 . S
O64 Cd56 2.381 . S
O64 C63 1.258 . S
O65 Cd56 2.378 . S
O65 C63 1.256 . S
O66 Cd67 2.300 . S
O66 C73 1.275 . S
Cd67 O66 2.300 . S
Cd67 O75 2.381 . S
Cd67 O76 2.378 . S
O68 Cd69 2.385 . S
O68 C73 1.255 . S
Cd69 O68 2.385 . S
Cd69 O70 2.317 . S
O70 Cd69 2.317 . S
O70 C71 1.232 . S
C71 O70 1.232 . S
C71 O72 1.218 . S
O72 C71 1.218 . S
C73 O66 1.275 . S
C73 O68 1.255 . S
C74 O75 1.258 . S
C74 O76 1.256 . S
O75 Cd67 2.381 . S
O75 C74 1.258 . S
O76 Cd67 2.378 . S
O76 C74 1.256 . S
O77 Cd78 2.300 . S
O77 C84 1.275 . S
Cd78 O77 2.300 . S
Cd78 O86 2.381 . S
Cd78 O87 2.378 . S
O79 Cd80 2.385 . S
O79 C84 1.255 . S
Cd80 O79 2.385 . S
Cd80 O81 2.317 . S
O81 Cd80 2.317 . S
O81 C82 1.232 . S
C82 O81 1.232 . S
C82 O83 1.218 . S
O83 C82 1.218 . S
C84 O77 1.275 . S
C84 O79 1.255 . S
C85 O86 1.258 . S
C85 O87 1.256 . S
O86 Cd78 2.381 . S
O86 C85 1.258 . S
O87 Cd78 2.378 . S
O87 C85 1.256 . S
Zn88 O94 1.920 . S
Zn88 O100 1.898 . S
Zn88 O103 1.905 . S
Zn89 O97 1.905 1_565 S
Zn89 O98 1.898 . S
Zn89 O106 1.920 . S
Zn90 O93 2.080 1_455 S
Zn90 O96 2.114 . S
Zn90 O99 2.120 1_445 S
Zn90 O101 2.120 . S
Zn90 O102 2.114 1_455 S
Zn90 O105 2.080 . S
C91 O96 1.166 . S
C91 O97 1.182 . S
C92 O98 1.167 1_655 S
C92 O99 1.299 . S
O93 Zn90 2.080 1_655 S
O93 C107 1.305 . S
O94 Zn88 1.920 . S
O94 C107 1.234 . S
C95 O100 1.167 1_455 S
C95 O101 1.299 . S
O96 Zn90 2.114 . S
O96 C91 1.166 . S
O97 Zn89 1.905 1_545 S
O97 C91 1.182 . S
O98 Zn89 1.898 . S
O98 C92 1.167 1_455 S
O99 Zn90 2.120 1_665 S
O99 C92 1.299 . S
O100 Zn88 1.898 . S
O100 C95 1.167 1_655 S
O101 Zn90 2.120 . S
O101 C95 1.299 . S
O102 Zn90 2.114 1_655 S
O102 C104 1.166 . S
O103 Zn88 1.905 . S
O103 C104 1.182 . S
C104 O102 1.166 . S
C104 O103 1.182 . S
O105 Zn90 2.080 . S
O105 C108 1.305 1_545 S
O106 Zn89 1.920 . S
O106 C108 1.234 . S
C107 O93 1.305 . S
C107 O94 1.234 . S
C108 O105 1.305 1_565 S
C108 O106 1.234 . S
Zn109 O115 1.920 . S
Zn109 O121 1.898 . S
Zn109 O124 1.905 . S
Zn110 O118 1.905 . S
Zn110 O119 1.898 . S
Zn110 O127 1.920 . S
Zn111 O114 2.080 . S
Zn111 O117 2.114 1_545 S
Zn111 O120 2.120 1_545 S
Zn111 O122 2.120 . S
Zn111 O123 2.110 1_545 S
Zn111 O126 2.080 . S
C112 O117 1.166 . S
C112 O118 1.182 . S
C113 O119 1.167 . S
C113 O120 1.299 . S
O114 Zn111 2.080 . S
O114 C128 1.305 . S
O115 Zn109 1.920 . S
O115 C128 1.234 . S
C116 O121 1.167 . S
C116 O122 1.299 . S
O117 Zn111 2.114 1_565 S
O117 C112 1.166 . S
O118 Zn110 1.905 . S
O118 C112 1.182 . S
O119 Zn110 1.898 . S
O119 C113 1.167 . S
O120 Zn111 2.120 1_565 S
O120 C113 1.299 . S
O121 Zn109 1.898 . S
O121 C116 1.167 . S
O122 Zn111 2.120 . S
O122 C116 1.299 . S
O123 Zn111 2.110 1_565 S
O123 C125 1.165 . S
O124 Zn109 1.905 . S
O124 C125 1.182 1_545 S
C125 O123 1.165 . S
C125 O124 1.182 1_565 S
O126 Zn111 2.080 . S
O126 C129 1.305 . S
O127 Zn110 1.920 . S
O127 C129 1.234 1_565 S
C128 O114 1.305 . S
C128 O115 1.234 . S
C129 O126 1.305 . S
C129 O127 1.234 1_545 S
Zn130 O136 1.920 . S
Zn130 O142 1.898 . S
Zn130 O145 1.905 . S
Zn131 O139 1.905 . S
Zn131 O140 1.898 . S
Zn131 O148 1.920 . S
Zn132 O135 2.080 . S
Zn132 O138 2.114 . S
Zn132 O141 2.120 . S
Zn132 O143 2.120 . S
Zn132 O144 2.114 . S
Zn132 O147 2.080 . S
C133 O138 1.166 . S
C133 O139 1.182 . S
C134 O140 1.167 . S
C134 O141 1.299 . S
O135 Zn132 2.080 . S
O135 C149 1.305 . S
O136 Zn130 1.920 . S
O136 C149 1.234 . S
C137 O142 1.167 . S
C137 O143 1.299 . S
O138 Zn132 2.114 . S
O138 C133 1.166 . S
O139 Zn131 1.905 . S
O139 C133 1.182 . S
O140 Zn131 1.898 . S
O140 C134 1.167 . S
O141 Zn132 2.120 . S
O141 C134 1.299 . S
O142 Zn130 1.898 . S
O142 C137 1.167 . S
O143 Zn132 2.120 . S
O143 C137 1.299 . S
O144 Zn132 2.114 . S
O144 C146 1.166 . S
O145 Zn130 1.905 . S
O145 C146 1.182 . S
C146 O144 1.166 . S
C146 O145 1.182 . S
O147 Zn132 2.080 . S
O147 C150 1.305 . S
O148 Zn131 1.920 . S
O148 C150 1.234 . S
C149 O135 1.305 . S
C149 O136 1.234 . S
C150 O147 1.305 . S
C150 O148 1.234 . S
Zn151 O157 1.920 . S
Zn151 O163 1.898 . S
Zn151 O166 1.905 . S
Zn152 O160 1.905 1_655 S
Zn152 O161 1.898 . S
Zn152 O169 1.920 . S
Zn153 O156 2.080 1_554 S
Zn153 O159 2.114 . S
Zn153 O162 2.120 1_554 S
Zn153 O164 2.120 . S
Zn153 O165 2.114 1_554 S
Zn153 O168 2.080 . S
C154 O159 1.166 . S
C154 O160 1.182 . S
C155 O161 1.167 1_556 S
C155 O162 1.299 1_655 S
O156 Zn153 2.080 1_556 S
O156 C170 1.305 . S
O157 Zn151 1.920 . S
O157 C170 1.234 . S
C158 O163 1.167 1_554 S
C158 O164 1.299 . S
O159 Zn153 2.114 . S
O159 C154 1.166 . S
O160 Zn152 1.905 1_455 S
O160 C154 1.182 . S
O161 Zn152 1.898 . S
O161 C155 1.167 1_554 S
O162 Zn153 2.120 1_556 S
O162 C155 1.299 1_455 S
O163 Zn151 1.898 . S
O163 C158 1.167 1_556 S
O164 Zn153 2.120 . S
O164 C158 1.299 . S
O165 Zn153 2.114 1_556 S
O165 C167 1.166 . S
O166 Zn151 1.905 . S
O166 C167 1.182 . S
C167 O165 1.166 . S
C167 O166 1.182 . S
O168 Zn153 2.080 . S
O168 C171 1.305 . S
O169 Zn152 1.920 . S
O169 C171 1.234 1_655 S
C170 O156 1.305 . S
C170 O157 1.234 . S
C171 O168 1.305 . S
C171 O169 1.234 1_455 S
H172 C184 0.930 . S
H173 C186 0.930 . S
H174 C187 0.930 . S
H175 C191 0.959 . S
H176 C191 0.959 . S
H177 C191 0.961 . S
H178 C192 0.960 . S
H179 C192 0.961 . S
H180 C192 0.959 . S
H181 C195 0.929 . S
H182 C196 0.931 . S
H183 C198 0.930 . S
C184 H172 0.930 . S
C184 C185 1.399 . S
C184 C189 1.399 . S
C185 C184 1.399 . S
C185 C186 1.376 . S
C186 H173 0.930 . S
C186 C185 1.376 . S
C186 C187 1.388 . S
C187 H174 0.930 . S
C187 C186 1.388 . S
C187 C188 1.390 . S
C188 C187 1.390 . S
C188 C189 1.394 . S
C188 C194 1.465 . S
C189 C184 1.399 . S
C189 C188 1.394 . S
C189 C190 1.516 . S
C190 C189 1.516 . S
C190 C191 1.502 . S
C190 C192 1.561 . S
C190 C193 1.526 . S
C191 H175 0.959 . S
C191 H176 0.959 . S
C191 H177 0.961 . S
C191 C190 1.502 . S
C192 H178 0.960 . S
C192 H179 0.961 . S
C192 H180 0.959 . S
C192 C190 1.561 . S
C193 C190 1.526 . S
C193 C194 1.396 . S
C193 C198 1.390 . S
C194 C188 1.465 . S
C194 C193 1.396 . S
C194 C195 1.399 . S
C195 H181 0.929 . S
C195 C194 1.399 . S
C195 C196 1.385 . S
C196 H182 0.931 . S
C196 C195 1.385 . S
C196 C197 1.389 . S
C197 C196 1.389 . S
C197 C198 1.387 . S
C198 H183 0.930 . S
C198 C193 1.390 . S
C198 C197 1.387 . S
H199 C211 0.930 . S
H200 C213 0.930 . S
H201 C214 0.930 . S
H202 C218 0.959 . S
H203 C218 0.959 . S
H204 C218 0.961 . S
H205 C219 0.960 . S
H206 C219 0.961 . S
H207 C219 0.959 . S
H208 C222 0.929 . S
H209 C223 0.931 1_545 S
H210 C225 0.930 . S
C211 H199 0.930 . S
C211 C212 1.399 . S
C211 C216 1.399 . S
C212 C211 1.399 . S
C212 C213 1.376 . S
C213 H200 0.930 . S
C213 C212 1.376 . S
C213 C214 1.388 . S
C214 H201 0.930 . S
C214 C213 1.388 . S
C214 C215 1.390 . S
C215 C214 1.390 . S
C215 C216 1.394 . S
C215 C221 1.465 . S
C216 C211 1.399 . S
C216 C215 1.394 . S
C216 C217 1.516 . S
C217 C216 1.516 . S
C217 C218 1.502 . S
C217 C219 1.561 . S
C217 C220 1.526 . S
C218 H202 0.959 . S
C218 H203 0.959 . S
C218 H204 0.961 . S
C218 C217 1.502 . S
C219 H205 0.960 . S
C219 H206 0.961 . S
C219 H207 0.959 . S
C219 C217 1.561 . S
C220 C217 1.526 . S
C220 C221 1.396 . S
C220 C225 1.390 . S
C221 C215 1.465 . S
C221 C220 1.396 . S
C221 C222 1.399 . S
C222 H208 0.929 . S
C222 C221 1.399 . S
C222 C223 1.385 . S
C223 H209 0.931 1_565 S
C223 C222 1.385 . S
C223 C224 1.389 . S
C224 C223 1.389 . S
C224 C225 1.387 . S
C225 H210 0.930 . S
C225 C220 1.390 . S
C225 C224 1.387 . S
H226 C238 0.930 . S
H227 C240 0.930 . S
H228 C241 0.930 . S
H229 C245 0.959 . S
H230 C245 0.959 . S
H231 C245 0.961 . S
H232 C246 0.960 . S
H233 C246 0.961 . S
H234 C246 0.959 . S
H235 C249 0.929 . S
H236 C250 0.931 . S
H237 C252 0.930 . S
C238 H226 0.930 . S
C238 C239 1.399 . S
C238 C243 1.399 . S
C239 C238 1.399 . S
C239 C240 1.376 . S
C240 H227 0.930 . S
C240 C239 1.376 . S
C240 C241 1.388 . S
C241 H228 0.930 . S
C241 C240 1.388 . S
C241 C242 1.390 . S
C242 C241 1.390 . S
C242 C243 1.394 . S
C242 C248 1.465 . S
C243 C238 1.399 . S
C243 C242 1.394 . S
C243 C244 1.516 . S
C244 C243 1.516 . S
C244 C245 1.502 . S
C244 C246 1.561 . S
C244 C247 1.526 . S
C245 H229 0.959 . S
C245 H230 0.959 . S
C245 H231 0.961 . S
C245 C244 1.502 . S
C246 H232 0.960 . S
C246 H233 0.961 . S
C246 H234 0.959 . S
C246 C244 1.561 . S
C247 C244 1.526 . S
C247 C248 1.396 . S
C247 C252 1.390 . S
C248 C242 1.465 . S
C248 C247 1.396 . S
C248 C249 1.399 . S
C249 H235 0.929 . S
C249 C248 1.399 . S
C249 C250 1.385 . S
C250 H236 0.931 . S
C250 C249 1.385 . S
C250 C251 1.389 . S
C251 C250 1.389 . S
C251 C252 1.387 . S
C252 H237 0.930 . S
C252 C247 1.390 . S
C252 C251 1.387 . S
H253 C265 0.930 . S
H254 C267 0.930 . S
H255 C268 0.930 . S
H256 C272 0.959 . S
H257 C272 0.959 . S
H258 C272 0.961 . S
H259 C273 0.960 . S
H260 C273 0.950 1_455 S
H261 C273 0.959 . S
H262 C276 0.929 . S
H263 C277 0.931 . S
H264 C279 0.930 . S
C265 H253 0.930 . S
C265 C266 1.399 . S
C265 C270 1.399 . S
C266 C265 1.399 . S
C266 C267 1.376 . S
C267 H254 0.930 . S
C267 C266 1.376 . S
C267 C268 1.388 . S
C268 H255 0.930 . S
C268 C267 1.388 . S
C268 C269 1.390 . S
C269 C268 1.390 . S
C269 C270 1.394 . S
C269 C275 1.465 . S
C270 C265 1.399 . S
C270 C269 1.394 . S
C270 C271 1.516 . S
C271 C270 1.516 . S
C271 C272 1.502 1_655 S
C271 C273 1.561 . S
C271 C274 1.526 . S
C272 H256 0.959 . S
C272 H257 0.959 . S
C272 H258 0.961 . S
C272 C271 1.502 1_455 S
C273 H259 0.960 . S
C273 H260 0.950 1_655 S
C273 H261 0.959 . S
C273 C271 1.561 . S
C274 C271 1.526 . S
C274 C275 1.396 . S
C274 C279 1.390 1_655 S
C275 C269 1.465 . S
C275 C274 1.396 . S
C275 C276 1.399 . S
C276 H262 0.929 . S
C276 C275 1.399 . S
C276 C277 1.385 . S
C277 H263 0.931 . S
C277 C276 1.385 . S
C277 C278 1.389 1_655 S
C278 C277 1.389 1_455 S
C278 C279 1.387 . S
C279 H264 0.930 . S
C279 C274 1.390 1_455 S
C279 C278 1.387 . S
H280 C292 0.930 . S
H281 C294 0.930 . S
H282 C295 0.930 . S
H283 C299 0.959 . S
H284 C299 0.959 . S
H285 C299 0.961 . S
H286 C300 0.960 . S
H287 C300 0.961 . S
H288 C300 0.959 . S
H289 C303 0.929 . S
H290 C304 0.931 . S
H291 C306 0.930 . S
C292 H280 0.930 . S
C292 C293 1.399 . S
C292 C297 1.399 . S
C293 C292 1.399 . S
C293 C294 1.376 . S
C294 H281 0.930 . S
C294 C293 1.376 . S
C294 C295 1.388 . S
C295 H282 0.930 . S
C295 C294 1.388 . S
C295 C296 1.390 . S
C296 C295 1.390 . S
C296 C297 1.394 . S
C296 C302 1.465 . S
C297 C292 1.399 . S
C297 C296 1.394 . S
C297 C298 1.516 . S
C298 C297 1.516 . S
C298 C299 1.502 . S
C298 C300 1.561 . S
C298 C301 1.526 . S
C299 H283 0.959 . S
C299 H284 0.959 . S
C299 H285 0.961 . S
C299 C298 1.502 . S
C300 H286 0.960 . S
C300 H287 0.961 . S
C300 H288 0.959 . S
C300 C298 1.561 . S
C301 C298 1.526 . S
C301 C302 1.396 . S
C301 C306 1.390 . S
C302 C296 1.465 . S
C302 C301 1.396 . S
C302 C303 1.399 . S
C303 H289 0.929 . S
C303 C302 1.399 . S
C303 C304 1.385 . S
C304 H290 0.931 . S
C304 C303 1.385 . S
C304 C305 1.389 . S
C305 C304 1.389 . S
C305 C306 1.387 . S
C306 H291 0.930 . S
C306 C301 1.390 . S
C306 C305 1.387 . S
H307 C319 0.930 . S
H308 C321 0.930 . S
H309 C322 0.930 . S
H310 C326 0.959 . S
H311 C326 0.959 . S
H312 C326 0.961 . S
H313 C327 0.960 . S
H314 C327 0.961 . S
H315 C327 0.959 . S
H316 C330 0.929 . S
H317 C331 0.931 . S
H318 C333 0.930 . S
C319 H307 0.930 . S
C319 C320 1.399 . S
C319 C324 1.399 . S
C320 C319 1.399 . S
C320 C321 1.376 . S
C321 H308 0.930 . S
C321 C320 1.376 . S
C321 C322 1.388 . S
C322 H309 0.930 . S
C322 C321 1.388 . S
C322 C323 1.390 . S
C323 C322 1.390 . S
C323 C324 1.394 . S
C323 C329 1.465 . S
C324 C319 1.399 . S
C324 C323 1.394 . S
C324 C325 1.516 . S
C325 C324 1.516 . S
C325 C326 1.502 . S
C325 C327 1.561 1_565 S
C325 C328 1.526 . S
C326 H310 0.959 . S
C326 H311 0.959 . S
C326 H312 0.961 . S
C326 C325 1.502 . S
C327 H313 0.960 . S
C327 H314 0.961 . S
C327 H315 0.959 . S
C327 C325 1.561 1_545 S
C328 C325 1.526 . S
C328 C329 1.396 . S
C328 C333 1.390 . S
C329 C323 1.465 . S
C329 C328 1.396 . S
C329 C330 1.399 . S
C330 H316 0.929 . S
C330 C329 1.399 . S
C330 C331 1.385 . S
C331 H317 0.931 . S
C331 C330 1.385 . S
C331 C332 1.389 . S
C332 C331 1.389 . S
C332 C333 1.387 . S
C333 H318 0.930 . S
C333 C328 1.390 . S
C333 C332 1.387 . S
H334 C346 0.930 . S
H335 C348 0.930 . S
H336 C349 0.930 . S
H337 C353 0.959 . S
H338 C353 0.959 . S
H339 C353 0.961 . S
H340 C354 0.960 . S
H341 C354 0.961 1_554 S
H342 C354 0.959 . S
H343 C357 0.929 . S
H344 C358 0.931 . S
H345 C360 0.930 1_554 S
C346 H334 0.930 . S
C346 C347 1.399 . S
C346 C351 1.399 . S
C347 C346 1.399 . S
C347 C348 1.376 . S
C348 H335 0.930 . S
C348 C347 1.376 . S
C348 C349 1.388 . S
C349 H336 0.930 . S
C349 C348 1.388 . S
C349 C350 1.390 . S
C350 C349 1.390 . S
C350 C351 1.394 . S
C350 C356 1.465 . S
C351 C346 1.399 . S
C351 C350 1.394 . S
C351 C352 1.516 . S
C352 C351 1.516 . S
C352 C353 1.502 1_556 S
C352 C354 1.561 . S
C352 C355 1.526 . S
C353 H337 0.959 . S
C353 H338 0.959 . S
C353 H339 0.961 . S
C353 C352 1.502 1_554 S
C354 H340 0.960 . S
C354 H341 0.961 1_556 S
C354 H342 0.959 . S
C354 C352 1.561 . S
C355 C352 1.526 . S
C355 C356 1.396 . S
C355 C360 1.390 . S
C356 C350 1.465 . S
C356 C355 1.396 . S
C356 C357 1.399 . S
C357 H343 0.929 . S
C357 C356 1.399 . S
C357 C358 1.385 . S
C358 H344 0.931 . S
C358 C357 1.385 . S
C358 C359 1.389 . S
C359 C358 1.389 . S
C359 C360 1.387 . S
C360 H345 0.930 1_556 S
C360 C355 1.390 . S
C360 C359 1.387 . S
H361 C373 0.930 . S
H362 C375 0.930 . S
H363 C376 0.930 . S
H364 C380 0.959 . S
H365 C380 0.959 . S
H366 C380 0.961 . S
H367 C381 0.960 . S
H368 C381 0.961 . S
H369 C381 0.959 . S
H370 C384 0.929 . S
H371 C385 0.931 . S
H372 C387 0.930 . S
C373 H361 0.930 . S
C373 C374 1.399 . S
C373 C378 1.399 . S
C374 C373 1.399 . S
C374 C375 1.376 . S
C375 H362 0.930 . S
C375 C374 1.376 . S
C375 C376 1.388 . S
C376 H363 0.930 . S
C376 C375 1.388 . S
C376 C377 1.390 . S
C377 C376 1.390 . S
C377 C378 1.394 . S
C377 C383 1.465 . S
C378 C373 1.399 . S
C378 C377 1.394 . S
C378 C379 1.516 . S
C379 C378 1.516 . S
C379 C380 1.502 . S
C379 C381 1.561 . S
C379 C382 1.526 . S
C380 H364 0.959 . S
C380 H365 0.959 . S
C380 H366 0.961 . S
C380 C379 1.502 . S
C381 H367 0.960 . S
C381 H368 0.961 . S
C381 H369 0.959 . S
C381 C379 1.561 . S
C382 C379 1.526 . S
C382 C383 1.396 . S
C382 C387 1.390 . S
C383 C377 1.465 . S
C383 C382 1.396 . S
C383 C384 1.399 . S
C384 H370 0.929 . S
C384 C383 1.399 . S
C384 C385 1.385 . S
C385 H371 0.931 . S
C385 C384 1.385 . S
C385 C386 1.389 . S
C386 C385 1.389 . S
C386 C387 1.387 . S
C387 H372 0.930 . S
C387 C382 1.390 . S
C387 C386 1.387 . S
H388 C400 0.930 . S
H389 C402 0.930 . S
H390 C403 0.930 . S
H391 C407 0.959 . S
H392 C407 0.959 . S
H393 C407 0.961 . S
H394 C408 0.960 . S
H395 C408 0.961 . S
H396 C408 0.959 . S
H397 C411 0.929 . S
H398 C412 0.931 . S
H399 C414 0.930 . S
C400 H388 0.930 . S
C400 C401 1.399 . S
C400 C405 1.399 . S
C401 C400 1.399 . S
C401 C402 1.376 . S
C402 H389 0.930 . S
C402 C401 1.376 . S
C402 C403 1.388 . S
C403 H390 0.930 . S
C403 C402 1.388 . S
C403 C404 1.390 . S
C404 C403 1.390 . S
C404 C405 1.394 . S
C404 C410 1.465 . S
C405 C400 1.399 . S
C405 C404 1.394 . S
C405 C406 1.516 . S
C406 C405 1.516 . S
C406 C407 1.502 . S
C406 C408 1.561 . S
C406 C409 1.526 . S
C407 H391 0.959 . S
C407 H392 0.959 . S
C407 H393 0.961 . S
C407 C406 1.502 . S
C408 H394 0.960 . S
C408 H395 0.961 . S
C408 H396 0.959 . S
C408 C406 1.561 . S
C409 C406 1.526 . S
C409 C410 1.396 . S
C409 C414 1.390 . S
C410 C404 1.465 . S
C410 C409 1.396 . S
C410 C411 1.399 . S
C411 H397 0.929 . S
C411 C410 1.399 . S
C411 C412 1.385 . S
C412 H398 0.931 . S
C412 C411 1.385 . S
C412 C413 1.389 . S
C413 C412 1.389 . S
C413 C414 1.387 . S
C414 H399 0.930 . S
C414 C409 1.390 . S
C414 C413 1.387 . S
H415 C427 0.930 . S
H416 C429 0.930 . S
H417 C430 0.930 . S
H418 C434 0.959 1_554 S
H419 C434 0.959 . S
H420 C434 0.961 . S
H421 C435 0.960 . S
H422 C435 0.961 . S
H423 C435 0.959 . S
H424 C438 0.929 . S
H425 C439 0.931 . S
H426 C441 0.926 1_556 S
C427 H415 0.930 . S
C427 C428 1.399 . S
C427 C432 1.399 . S
C428 C427 1.399 . S
C428 C429 1.376 . S
C429 H416 0.930 . S
C429 C428 1.376 . S
C429 C430 1.388 . S
C430 H417 0.930 . S
C430 C429 1.388 . S
C430 C431 1.390 . S
C431 C430 1.390 . S
C431 C432 1.394 . S
C431 C437 1.465 . S
C432 C427 1.399 . S
C432 C431 1.394 . S
C432 C433 1.516 . S
C433 C432 1.516 . S
C433 C434 1.502 . S
C433 C435 1.561 . S
C433 C436 1.526 . S
C434 H418 0.959 1_556 S
C434 H419 0.959 . S
C434 H420 0.961 . S
C434 C433 1.502 . S
C435 H421 0.960 . S
C435 H422 0.961 . S
C435 H423 0.959 . S
C435 C433 1.561 . S
C436 C433 1.526 . S
C436 C437 1.396 . S
C436 C441 1.390 1_556 S
C437 C431 1.465 . S
C437 C436 1.396 . S
C437 C438 1.399 1_556 S
C438 H424 0.929 . S
C438 C437 1.399 1_554 S
C438 C439 1.385 . S
C439 H425 0.931 . S
C439 C438 1.385 . S
C439 C440 1.389 . S
C440 C439 1.389 . S
C440 C441 1.387 . S
C441 H426 0.926 1_554 S
C441 C436 1.390 1_554 S
C441 C440 1.387 . S
H442 C454 0.930 . S
H443 C456 0.930 . S
H444 C457 0.930 . S
H445 C461 0.959 1_655 S
H446 C461 0.959 . S
H447 C461 0.961 . S
H448 C462 0.960 . S
H449 C462 0.961 1_455 S
H450 C462 0.959 . S
H451 C465 0.929 . S
H452 C466 0.931 . S
H453 C468 0.930 1_455 S
C454 H442 0.930 . S
C454 C455 1.399 . S
C454 C459 1.399 . S
C455 C454 1.399 . S
C455 C456 1.376 . S
C456 H443 0.930 . S
C456 C455 1.376 . S
C456 C457 1.388 . S
C457 H444 0.930 . S
C457 C456 1.388 . S
C457 C458 1.390 . S
C458 C457 1.390 . S
C458 C459 1.394 . S
C458 C464 1.465 . S
C459 C454 1.399 . S
C459 C458 1.394 . S
C459 C460 1.516 . S
C460 C459 1.516 . S
C460 C461 1.502 1_655 S
C460 C462 1.561 . S
C460 C463 1.526 . S
C461 H445 0.959 1_455 S
C461 H446 0.959 . S
C461 H447 0.961 . S
C461 C460 1.502 1_455 S
C462 H448 0.960 . S
C462 H449 0.961 1_655 S
C462 H450 0.959 . S
C462 C460 1.561 . S
C463 C460 1.526 . S
C463 C464 1.396 . S
C463 C468 1.390 . S
C464 C458 1.465 . S
C464 C463 1.396 . S
C464 C465 1.399 . S
C465 H451 0.929 . S
C465 C464 1.399 . S
C465 C466 1.385 . S
C466 H452 0.931 . S
C466 C465 1.385 . S
C466 C467 1.389 . S
C467 C466 1.389 . S
C467 C468 1.387 . S
C468 H453 0.930 1_655 S
C468 C463 1.390 . S
C468 C467 1.387 . S
H469 C481 0.930 . S
H470 C483 0.930 . S
H471 C484 0.930 . S
H472 C488 0.959 . S
H473 C488 0.959 . S
H474 C488 0.961 . S
H475 C489 0.960 . S
H476 C489 0.961 . S
H477 C489 0.959 . S
H478 C492 0.929 . S
H479 C493 0.931 . S
H480 C495 0.930 . S
C481 H469 0.930 . S
C481 C482 1.399 . S
C481 C486 1.399 . S
C482 C481 1.399 . S
C482 C483 1.376 . S
C483 H470 0.930 . S
C483 C482 1.376 . S
C483 C484 1.388 . S
C484 H471 0.930 . S
C484 C483 1.388 . S
C484 C485 1.390 . S
C485 C484 1.390 . S
C485 C486 1.394 . S
C485 C491 1.465 . S
C486 C481 1.399 . S
C486 C485 1.394 . S
C486 C487 1.516 . S
C487 C486 1.516 . S
C487 C488 1.502 . S
C487 C489 1.561 . S
C487 C490 1.526 . S
C488 H472 0.959 . S
C488 H473 0.959 . S
C488 H474 0.961 . S
C488 C487 1.502 . S
C489 H475 0.960 . S
C489 H476 0.961 . S
C489 H477 0.959 . S
C489 C487 1.561 . S
C490 C487 1.526 . S
C490 C491 1.396 . S
C490 C495 1.390 . S
C491 C485 1.465 . S
C491 C490 1.396 . S
C491 C492 1.399 . S
C492 H478 0.929 . S
C492 C491 1.399 . S
C492 C493 1.385 . S
C493 H479 0.931 . S
C493 C492 1.385 . S
C493 C494 1.389 . S
C494 C493 1.389 . S
C494 C495 1.387 . S
C495 H480 0.930 . S
C495 C490 1.390 . S
C495 C494 1.387 . S
H496 C508 0.930 1_545 S
H497 C510 0.930 . S
H498 C511 0.930 1_455 S
H499 C515 0.959 . S
H500 C515 0.959 . S
H501 C515 0.961 . S
H502 C516 0.960 . S
H503 C516 0.961 . S
H504 C516 0.959 1_455 S
H505 C519 0.929 . S
H506 C520 0.931 . S
H507 C522 0.930 . S
C508 H496 0.930 1_565 S
C508 C509 1.399 . S
C508 C513 1.399 . S
C509 C508 1.399 . S
C509 C510 1.376 . S
C510 H497 0.930 . S
C510 C509 1.376 . S
C510 C511 1.388 . S
C511 H498 0.930 1_655 S
C511 C510 1.388 . S
C511 C512 1.390 . S
C512 C511 1.390 . S
C512 C513 1.394 . S
C512 C518 1.465 . S
C513 C508 1.399 . S
C513 C512 1.394 . S
C513 C514 1.516 1_565 S
C514 C513 1.516 1_545 S
C514 C515 1.502 . S
C514 C516 1.561 . S
C514 C517 1.526 . S
C515 H499 0.959 . S
C515 H500 0.959 . S
C515 H501 0.961 . S
C515 C514 1.502 . S
C516 H502 0.960 . S
C516 H503 0.961 . S
C516 H504 0.959 1_655 S
C516 C514 1.561 . S
C517 C514 1.526 . S
C517 C518 1.396 1_545 S
C517 C522 1.390 . S
C518 C512 1.465 . S
C518 C517 1.396 1_565 S
C518 C519 1.399 1_655 S
C519 H505 0.929 . S
C519 C518 1.399 1_455 S
C519 C520 1.385 . S
C520 H506 0.931 . S
C520 C519 1.385 . S
C520 C521 1.389 1_455 S
C521 C520 1.389 1_655 S
C521 C522 1.387 1_565 S
C522 H507 0.930 . S
C522 C517 1.390 . S
C522 C521 1.387 1_545 S
H523 C535 0.930 . S
H524 C537 0.930 . S
H525 C538 0.930 . S
H526 C542 0.959 . S
H527 C542 0.959 . S
H528 C542 0.961 . S
H529 C543 0.960 . S
H530 C543 0.961 . S
H531 C543 0.959 . S
H532 C546 0.929 1_565 S
H533 C547 0.931 1_565 S
H534 C549 0.930 . S
C535 H523 0.930 . S
C535 C536 1.399 . S
C535 C540 1.399 . S
C536 C535 1.399 . S
C536 C537 1.376 . S
C537 H524 0.930 . S
C537 C536 1.376 . S
C537 C538 1.388 . S
C538 H525 0.930 . S
C538 C537 1.388 . S
C538 C539 1.390 . S
C539 C538 1.390 . S
C539 C540 1.394 . S
C539 C545 1.465 . S
C540 C535 1.399 . S
C540 C539 1.394 . S
C540 C541 1.516 . S
C541 C540 1.516 . S
C541 C542 1.502 . S
C541 C543 1.561 . S
C541 C544 1.526 . S
C542 H526 0.959 . S
C542 H527 0.959 . S
C542 H528 0.961 . S
C542 C541 1.502 . S
C543 H529 0.960 . S
C543 H530 0.961 . S
C543 H531 0.959 . S
C543 C541 1.561 . S
C544 C541 1.526 . S
C544 C545 1.396 . S
C544 C549 1.390 . S
C545 C539 1.465 . S
C545 C544 1.396 . S
C545 C546 1.399 . S
C546 H532 0.929 1_545 S
C546 C545 1.399 . S
C546 C547 1.385 . S
C547 H533 0.931 1_545 S
C547 C546 1.385 . S
C547 C548 1.389 . S
C548 C547 1.389 . S
C548 C549 1.387 . S
C549 H534 0.930 . S
C549 C544 1.390 . S
C549 C548 1.387 . S
H550 C562 0.930 . S
H551 C564 0.930 . S
H552 C565 0.930 . S
H553 C569 0.959 . S
H554 C569 0.959 . S
H555 C569 0.961 . S
H556 C570 0.960 . S
H557 C570 0.961 . S
H558 C570 0.959 . S
H559 C573 0.929 . S
H560 C574 0.931 . S
H561 C576 0.930 . S
C562 H550 0.930 . S
C562 C563 1.399 . S
C562 C567 1.399 . S
C563 C562 1.399 . S
C563 C564 1.376 . S
C564 H551 0.930 . S
C564 C563 1.376 . S
C564 C565 1.388 . S
C565 H552 0.930 . S
C565 C564 1.388 . S
C565 C566 1.390 . S
C566 C565 1.390 . S
C566 C567 1.394 . S
C566 C572 1.465 . S
C567 C562 1.399 . S
C567 C566 1.394 . S
C567 C568 1.516 . S
C568 C567 1.516 . S
C568 C569 1.502 . S
C568 C570 1.561 . S
C568 C571 1.526 . S
C569 H553 0.959 . S
C569 H554 0.959 . S
C569 H555 0.961 . S
C569 C568 1.502 . S
C570 H556 0.960 . S
C570 H557 0.961 . S
C570 H558 0.959 . S
C570 C568 1.561 . S
C571 C568 1.526 . S
C571 C572 1.396 . S
C571 C576 1.390 . S
C572 C566 1.465 . S
C572 C571 1.396 . S
C572 C573 1.399 . S
C573 H559 0.929 . S
C573 C572 1.399 . S
C573 C574 1.385 . S
C574 H560 0.931 . S
C574 C573 1.385 . S
C574 C575 1.389 . S
C575 C574 1.389 . S
C575 C576 1.387 . S
C576 H561 0.930 . S
C576 C571 1.390 . S
C576 C575 1.387 . S
H577 C589 0.930 . S
H578 C591 0.930 . S
H579 C592 0.930 . S
H580 C596 0.959 . S
H581 C596 0.959 . S
H582 C596 0.961 . S
H583 C597 0.960 . S
H584 C597 0.961 . S
H585 C597 0.959 . S
H586 C600 0.929 . S
H587 C601 0.931 . S
H588 C603 0.930 . S
C589 H577 0.930 . S
C589 C590 1.399 . S
C589 C594 1.399 . S
C590 C589 1.399 . S
C590 C591 1.376 . S
C591 H578 0.930 . S
C591 C590 1.376 . S
C591 C592 1.388 . S
C592 H579 0.930 . S
C592 C591 1.388 . S
C592 C593 1.390 . S
C593 C592 1.390 . S
C593 C594 1.394 . S
C593 C599 1.465 . S
C594 C589 1.399 . S
C594 C593 1.394 . S
C594 C595 1.516 . S
C595 C594 1.516 . S
C595 C596 1.502 . S
C595 C597 1.561 . S
C595 C598 1.526 . S
C596 H580 0.959 . S
C596 H581 0.959 . S
C596 H582 0.961 . S
C596 C595 1.502 . S
C597 H583 0.960 . S
C597 H584 0.961 . S
C597 H585 0.959 . S
C597 C595 1.561 . S
C598 C595 1.526 . S
C598 C599 1.396 . S
C598 C603 1.390 . S
C599 C593 1.465 . S
C599 C598 1.396 . S
C599 C600 1.399 . S
C600 H586 0.929 . S
C600 C599 1.399 . S
C600 C601 1.385 . S
C601 H587 0.931 . S
C601 C600 1.385 . S
C601 C602 1.389 . S
C602 C601 1.389 . S
C602 C603 1.387 . S
C603 H588 0.930 . S
C603 C598 1.390 . S
C603 C602 1.387 . S
H604 C616 0.930 . S
H605 C618 0.930 . S
H606 C619 0.930 . S
H607 C623 0.959 . S
H608 C623 0.959 . S
H609 C623 0.961 . S
H610 C624 0.960 . S
H611 C624 0.961 . S
H612 C624 0.959 . S
H613 C627 0.929 1_556 S
H614 C628 0.931 . S
H615 C630 0.930 . S
C616 H604 0.930 . S
C616 C617 1.399 1_545 S
C616 C621 1.399 . S
C617 C616 1.399 1_565 S
C617 C618 1.376 1_554 S
C618 H605 0.930 . S
C618 C617 1.376 1_556 S
C618 C619 1.388 . S
C619 H606 0.930 . S
C619 C618 1.388 . S
C619 C620 1.390 1_556 S
C620 C619 1.390 1_554 S
C620 C621 1.394 1_565 S
C620 C626 1.465 . S
C621 C616 1.399 . S
C621 C620 1.394 1_545 S
C621 C622 1.516 . S
C622 C621 1.516 . S
C622 C623 1.502 . S
C622 C624 1.561 . S
C622 C625 1.526 . S
C623 H607 0.959 . S
C623 H608 0.959 . S
C623 H609 0.961 . S
C623 C622 1.502 . S
C624 H610 0.960 . S
C624 H611 0.961 . S
C624 H612 0.959 . S
C624 C622 1.561 . S
C625 C622 1.526 . S
C625 C626 1.396 1_545 S
C625 C630 1.390 . S
C626 C620 1.465 . S
C626 C625 1.396 1_565 S
C626 C627 1.399 . S
C627 H613 0.929 1_554 S
C627 C626 1.399 . S
C627 C628 1.385 . S
C628 H614 0.931 . S
C628 C627 1.385 . S
C628 C629 1.389 . S
C629 C628 1.389 . S
C629 C630 1.387 1_565 S
C630 H615 0.930 . S
C630 C625 1.390 . S
C630 C629 1.387 1_545 S
H631 C643 0.930 . S
H632 C645 0.930 . S
H633 C646 0.930 . S
H634 C650 0.959 . S
H635 C650 0.959 . S
H636 C650 0.961 . S
H637 C651 0.960 . S
H638 C651 0.961 . S
H639 C651 0.959 1_545 S
H640 C654 0.929 . S
H641 C655 0.931 . S
H642 C657 0.930 1_565 S
C643 H631 0.930 . S
C643 C644 1.399 . S
C643 C648 1.399 . S
C644 C643 1.399 . S
C644 C645 1.376 . S
C645 H632 0.930 . S
C645 C644 1.376 . S
C645 C646 1.388 . S
C646 H633 0.930 . S
C646 C645 1.388 . S
C646 C647 1.390 . S
C647 C646 1.390 . S
C647 C648 1.394 . S
C647 C653 1.465 . S
C648 C643 1.399 . S
C648 C647 1.394 . S
C648 C649 1.518 1_545 S
C649 C648 1.518 1_565 S
C649 C650 1.499 . S
C649 C651 1.560 . S
C649 C652 1.527 1_565 S
C650 H634 0.959 . S
C650 H635 0.959 . S
C650 H636 0.961 . S
C650 C649 1.499 . S
C651 H637 0.960 . S
C651 H638 0.961 . S
C651 H639 0.959 1_565 S
C651 C649 1.560 . S
C652 C649 1.527 1_545 S
C652 C653 1.396 . S
C652 C657 1.390 . S
C653 C647 1.465 . S
C653 C652 1.396 . S
C653 C654 1.399 . S
C654 H640 0.929 . S
C654 C653 1.399 . S
C654 C655 1.385 . S
C655 H641 0.931 . S
C655 C654 1.385 . S
C655 C656 1.389 . S
C656 C655 1.389 . S
C656 C657 1.387 . S
C657 H642 0.930 1_545 S
C657 C652 1.390 . S
C657 C656 1.387 . S
H658 C670 0.930 . S
H659 C672 0.930 . S
H660 C673 0.930 . S
H661 C677 0.959 1_554 S
H662 C677 0.959 . S
H663 C677 0.961 . S
H664 C678 0.960 . S
H665 C678 0.961 . S
H666 C678 0.959 . S
H667 C681 0.929 . S
H668 C682 0.931 . S
H669 C684 0.930 1_556 S
C670 H658 0.930 . S
C670 C671 1.399 . S
C670 C675 1.399 . S
C671 C670 1.399 . S
C671 C672 1.376 . S
C672 H659 0.930 . S
C672 C671 1.376 . S
C672 C673 1.388 . S
C673 H660 0.930 . S
C673 C672 1.388 . S
C673 C674 1.390 . S
C674 C673 1.390 . S
C674 C675 1.394 . S
C674 C680 1.465 . S
C675 C670 1.399 . S
C675 C674 1.394 . S
C675 C676 1.516 . S
C676 C675 1.516 . S
C676 C677 1.502 1_554 S
C676 C678 1.561 1_554 S
C676 C679 1.526 . S
C677 H661 0.959 1_556 S
C677 H662 0.959 . S
C677 H663 0.961 . S
C677 C676 1.502 1_556 S
C678 H664 0.960 . S
C678 H665 0.961 . S
C678 H666 0.959 . S
C678 C676 1.561 1_556 S
C679 C676 1.526 . S
C679 C680 1.396 . S
C679 C684 1.390 . S
C680 C674 1.465 . S
C680 C679 1.396 . S
C680 C681 1.399 . S
C681 H667 0.929 . S
C681 C680 1.399 . S
C681 C682 1.385 . S
C682 H668 0.931 . S
C682 C681 1.385 . S
C682 C683 1.389 . S
C683 C682 1.389 . S
C683 C684 1.387 . S
C684 H669 0.930 1_554 S
C684 C679 1.390 . S
C684 C683 1.387 . S
H685 C697 0.930 . S
H686 C699 0.930 . S
H687 C700 0.930 . S
H688 C704 0.959 . S
H689 C704 0.959 . S
H690 C704 0.961 . S
H691 C705 0.960 . S
H692 C705 0.961 . S
H693 C705 0.959 . S
H694 C708 0.929 . S
H695 C709 0.931 . S
H696 C711 0.930 . S
C697 H685 0.930 . S
C697 C698 1.399 . S
C697 C702 1.399 . S
C698 C697 1.399 . S
C698 C699 1.376 . S
C699 H686 0.930 . S
C699 C698 1.376 . S
C699 C700 1.388 . S
C700 H687 0.930 . S
C700 C699 1.388 . S
C700 C701 1.390 . S
C701 C700 1.390 . S
C701 C702 1.394 . S
C701 C707 1.465 . S
C702 C697 1.399 . S
C702 C701 1.394 . S
C702 C703 1.516 . S
C703 C702 1.516 . S
C703 C704 1.502 . S
C703 C705 1.561 . S
C703 C706 1.526 . S
C704 H688 0.959 . S
C704 H689 0.959 . S
C704 H690 0.961 . S
C704 C703 1.502 . S
C705 H691 0.960 . S
C705 H692 0.961 . S
C705 H693 0.959 . S
C705 C703 1.561 . S
C706 C703 1.526 . S
C706 C707 1.396 . S
C706 C711 1.390 . S
C707 C701 1.465 . S
C707 C706 1.396 . S
C707 C708 1.399 . S
C708 H694 0.929 . S
C708 C707 1.399 . S
C708 C709 1.385 . S
C709 H695 0.931 . S
C709 C708 1.385 . S
C709 C710 1.389 . S
C710 C709 1.389 . S
C710 C711 1.387 . S
C711 H696 0.930 . S
C711 C706 1.390 . S
C711 C710 1.387 . S
H712 C724 0.930 . S
H713 C726 0.930 . S
H714 C727 0.930 . S
H715 C731 0.959 . S
H716 C731 0.959 . S
H717 C731 0.961 . S
H718 C732 0.957 1_655 S
H719 C732 0.968 . S
H720 C732 0.943 1_655 S
H721 C735 0.929 . S
H722 C736 0.931 . S
H723 C738 0.930 . S
C724 H712 0.930 . S
C724 C725 1.411 . S
C724 C729 1.399 . S
C725 C724 1.411 . S
C725 C726 1.370 1_454 S
C726 H713 0.930 . S
C726 C725 1.370 1_656 S
C726 C727 1.388 . S
C727 H714 0.930 . S
C727 C726 1.388 . S
C727 C728 1.390 1_655 S
C728 C727 1.390 1_455 S
C728 C729 1.394 1_556 S
C728 C734 1.465 . S
C729 C724 1.399 . S
C729 C728 1.394 1_554 S
C729 C730 1.516 . S
C730 C729 1.516 . S
C730 C731 1.502 . S
C730 C732 1.573 . S
C730 C733 1.526 . S
C731 H715 0.959 . S
C731 H716 0.959 . S
C731 H717 0.961 . S
C731 C730 1.502 . S
C732 H718 0.957 1_455 S
C732 H719 0.968 . S
C732 H720 0.943 1_455 S
C732 C730 1.573 . S
C733 C730 1.526 . S
C733 C734 1.396 1_554 S
C733 C738 1.390 . S
C734 C728 1.465 . S
C734 C733 1.396 1_556 S
C734 C735 1.399 . S
C735 H721 0.929 . S
C735 C734 1.399 . S
C735 C736 1.385 . S
C736 H722 0.931 . S
C736 C735 1.385 . S
C736 C737 1.389 . S
C737 C736 1.389 . S
C737 C738 1.387 1_556 S
C738 H723 0.930 . S
C738 C733 1.390 . S
C738 C737 1.387 1_554 S
H739 C751 0.930 . S
H740 C753 0.930 . S
H741 C754 0.930 . S
H742 C758 0.959 . S
H743 C758 0.959 . S
H744 C758 0.961 . S
H745 C759 0.960 . S
H746 C759 0.961 . S
H747 C759 0.959 . S
H748 C762 0.929 . S
H749 C763 0.931 . S
H750 C765 0.930 . S
C751 H739 0.930 . S
C751 C752 1.399 . S
C751 C756 1.399 . S
C752 C751 1.399 . S
C752 C753 1.376 . S
C753 H740 0.930 . S
C753 C752 1.376 . S
C753 C754 1.388 . S
C754 H741 0.930 . S
C754 C753 1.388 . S
C754 C755 1.390 . S
C755 C754 1.390 . S
C755 C756 1.394 . S
C755 C761 1.465 . S
C756 C751 1.399 . S
C756 C755 1.394 . S
C756 C757 1.516 . S
C757 C756 1.516 . S
C757 C758 1.502 . S
C757 C759 1.561 . S
C757 C760 1.526 . S
C758 H742 0.959 . S
C758 H743 0.959 . S
C758 H744 0.961 . S
C758 C757 1.502 . S
C759 H745 0.960 . S
C759 H746 0.961 . S
C759 H747 0.959 . S
C759 C757 1.561 . S
C760 C757 1.526 . S
C760 C761 1.396 . S
C760 C765 1.390 . S
C761 C755 1.465 . S
C761 C760 1.396 . S
C761 C762 1.399 . S
C762 H748 0.929 . S
C762 C761 1.399 . S
C762 C763 1.385 . S
C763 H749 0.931 . S
C763 C762 1.385 . S
C763 C764 1.389 . S
C764 C763 1.389 . S
C764 C765 1.387 . S
C765 H750 0.930 . S
C765 C760 1.390 . S
C765 C764 1.387 . S
H766 C778 0.930 . S
H767 C780 0.930 . S
H768 C781 0.930 . S
H769 C785 0.959 . S
H770 C785 0.959 . S
H771 C785 0.961 . S
H772 C786 0.960 . S
H773 C786 0.961 . S
H774 C786 0.959 . S
H775 C789 0.929 . S
H776 C790 0.931 . S
H777 C792 0.930 . S
C778 H766 0.930 . S
C778 C779 1.399 . S
C778 C783 1.399 . S
C779 C778 1.399 . S
C779 C780 1.376 . S
C780 H767 0.930 . S
C780 C779 1.376 . S
C780 C781 1.388 . S
C781 H768 0.930 . S
C781 C780 1.388 . S
C781 C782 1.390 . S
C782 C781 1.390 . S
C782 C783 1.394 . S
C782 C788 1.465 . S
C783 C778 1.399 . S
C783 C782 1.394 . S
C783 C784 1.516 . S
C784 C783 1.516 . S
C784 C785 1.502 . S
C784 C786 1.561 . S
C784 C787 1.526 . S
C785 H769 0.959 . S
C785 H770 0.959 . S
C785 H771 0.961 . S
C785 C784 1.502 . S
C786 H772 0.960 . S
C786 H773 0.961 . S
C786 H774 0.959 . S
C786 C784 1.561 . S
C787 C784 1.526 . S
C787 C788 1.396 . S
C787 C792 1.390 . S
C788 C782 1.465 . S
C788 C787 1.396 . S
C788 C789 1.399 . S
C789 H775 0.929 . S
C789 C788 1.399 . S
C789 C790 1.385 . S
C790 H776 0.931 . S
C790 C789 1.385 . S
C790 C791 1.389 . S
C791 C790 1.389 . S
C791 C792 1.387 . S
C792 H777 0.930 . S
C792 C787 1.390 . S
C792 C791 1.387 . S
H793 C805 0.930 . S
H794 C807 0.930 . S
H795 C808 0.930 . S
H796 C812 0.959 . S
H797 C812 0.959 . S
H798 C812 0.961 . S
H799 C813 0.960 . S
H800 C813 0.961 . S
H801 C813 0.959 . S
H802 C816 0.929 . S
H803 C817 0.931 . S
H804 C819 0.930 . S
C805 H793 0.930 . S
C805 C806 1.399 . S
C805 C810 1.399 . S
C806 C805 1.399 . S
C806 C807 1.376 . S
C807 H794 0.930 . S
C807 C806 1.376 . S
C807 C808 1.388 . S
C808 H795 0.930 . S
C808 C807 1.388 . S
C808 C809 1.390 . S
C809 C808 1.390 . S
C809 C810 1.394 . S
C809 C815 1.465 . S
C810 C805 1.399 . S
C810 C809 1.394 . S
C810 C811 1.516 . S
C811 C810 1.516 . S
C811 C812 1.502 . S
C811 C813 1.561 . S
C811 C814 1.526 . S
C812 H796 0.959 . S
C812 H797 0.959 . S
C812 H798 0.961 . S
C812 C811 1.502 . S
C813 H799 0.960 . S
C813 H800 0.961 . S
C813 H801 0.959 . S
C813 C811 1.561 . S
C814 C811 1.526 . S
C814 C815 1.396 . S
C814 C819 1.390 . S
C815 C809 1.465 . S
C815 C814 1.396 . S
C815 C816 1.399 . S
C816 H802 0.929 . S
C816 C815 1.399 . S
C816 C817 1.385 . S
C817 H803 0.931 . S
C817 C816 1.385 . S
C817 C818 1.389 . S
C818 C817 1.389 . S
C818 C819 1.387 . S
C819 H804 0.930 . S
C819 C814 1.390 . S
C819 C818 1.387 . S
C185 C5 1.708 . S
C197 C91 1.759 . S
C212 C18 1.549 . S
C224 C125 1.466 1_556 S
C251 C137 1.266 . S
C239 C30 1.287 . S
C266 C41 1.260 . S
C278 C171 1.210 . S
C305 C128 1.694 . S
C293 C7 1.747 . S
C332 C108 1.604 . S
C320 C16 1.586 . S
C359 C155 1.456 . S
C347 C29 1.434 . S
C386 C146 1.117 . S
C374 C38 1.097 . S
C401 C8 1.670 . S
C413 C154 1.589 . S
C440 C116 1.612 . S
C428 C27 1.444 . S
C455 C40 1.507 . S
C467 C92 1.432 . S
C482 C19 1.243 . S
C494 C149 1.241 . S
C521 C107 1.623 1_565 S
C509 C51 1.634 . S
C536 C62 1.602 . S
C548 C129 1.574 . S
C563 C74 1.483 . S
C575 C134 1.499 . S
C590 C84 1.398 . S
C602 C167 1.454 . S
C617 C49 1.925 . S
C629 C112 1.852 . S
C656 C104 1.484 . S
C644 C63 1.523 . S
C683 C158 1.469 . S
C671 C71 1.186 . S
C710 C150 1.234 . S
C698 C85 1.213 . S
C725 C52 1.673 1_455 S
C737 C170 1.600 . S
C764 C113 1.790 . S
C752 C73 1.740 . S
C791 C95 1.395 . S
C779 C82 1.227 . S
C806 C60 1.289 . S
C818 C133 1.637 . S
