# Generated by pormake.
# Topology pth, (4,4)-cn, num edge types: 1
# Building blocks:
#     Node 0, Type 0, BuildingBlock: KUFVIS_clean_sbu_0, # of connection points: 4
#     Node 1, Type 0, BuildingBlock: KUFVIS_clean_sbu_0, # of connection points: 4
#     Node 2, Type 0, BuildingBlock: KUFVIS_clean_sbu_0, # of connection points: 4
#     Node 3, Type 1, BuildingBlock: KOZSID_clean_sbu_0, # of connection points: 4
#     Node 4, Type 1, BuildingBlock: KOZSID_clean_sbu_0, # of connection points: 4
#     Node 5, Type 1, BuildingBlock: KOZSID_clean_sbu_0, # of connection points: 4
#     Edge 6, Type (0, 1), BuildingBlock: XIVTED_clean_linker_0, # of connection points: 2
#     Edge 7, Type (0, 1), BuildingBlock: XIVTED_clean_linker_0, # of connection points: 2
#     Edge 8, Type (0, 1), BuildingBlock: XIVTED_clean_linker_0, # of connection points: 2
#     Edge 9, Type (0, 1), BuildingBlock: XIVTED_clean_linker_0, # of connection points: 2
#     Edge 10, Type (0, 1), BuildingBlock: XIVTED_clean_linker_0, # of connection points: 2
#     Edge 11, Type (0, 1), BuildingBlock: XIVTED_clean_linker_0, # of connection points: 2
#     Edge 12, Type (0, 1), BuildingBlock: XIVTED_clean_linker_0, # of connection points: 2
#     Edge 13, Type (0, 1), BuildingBlock: XIVTED_clean_linker_0, # of connection points: 2
#     Edge 14, Type (0, 1), BuildingBlock: XIVTED_clean_linker_0, # of connection points: 2
#     Edge 15, Type (0, 1), BuildingBlock: XIVTED_clean_linker_0, # of connection points: 2
#     Edge 16, Type (0, 1), BuildingBlock: XIVTED_clean_linker_0, # of connection points: 2
#     Edge 17, Type (0, 1), BuildingBlock: XIVTED_clean_linker_0, # of connection points: 2
# Relax obj value: 0.010
# Max RMSD: 0.084
# Mean RMSD: 0.052
data_MOF--net-pth--node1-KUFVIS_clean_sbu_0--node2-KOZSID_clean_sbu_0--edge1-XIVTED_clean_linker_0
_symmetry_space_group_name_H-M    P1
_symmetry_Int_Tables_number       1
_symmetry_cell_setting            triclinic
loop_
_symmetry_equiv_pos_as_xyz
'x, y, z'
_cell_length_a     26.405549
_cell_length_b     26.485662
_cell_length_c     61.280845
_cell_angle_alpha  87.657468
_cell_angle_beta   89.245362
_cell_angle_gamma 120.31285
loop_
_atom_site_label
_atom_site_type_symbol
_atom_site_fract_x
_atom_site_fract_y
_atom_site_fract_z
_atom_type_partial_charge
Mn0 Mn 0.0784 0.05146 0.04585 0.0
Mn1 Mn 0.01476 0.10738 0.01321 0.0
C2 C 0.02765 0.00199 0.01589 0.0
C3 C 0.07327 0.99074 0.07565 0.0
C4 C 0.14624 0.15532 0.01238 0.0
O5 O 0.07418 0.11084 0.06497 0.0
O6 O 0.02959 0.1437 0.04196 0.0
C7 C 0.90085 0.05817 0.03766 0.0
N8 N 0.93173 0.0639 0.01884 0.0
C9 C 0.84307 1.00155 1.00048 0.0
C10 C 0.81029 0.99532 0.01963 0.0
C11 C 0.83933 0.02373 0.0383 0.0
C12 C 0.90423 0.03697 1.00075 0.0
H13 H 0.92305 0.07956 0.0521 0.0
C14 C 0.05273 0.1436 0.06023 0.0
O15 O 0.12338 0.03368 0.06792 0.0
O16 O 0.02654 0.98529 0.06686 0.0
N17 N 0.99803 0.07539 0.985 0.0
C18 C 0.03628 0.08288 0.96834 0.0
C19 C 0.01441 0.05577 0.94867 0.0
C20 C 0.95352 0.02134 0.94634 0.0
C21 C 0.91501 0.01454 0.96368 0.0
C22 C 0.93935 0.04319 0.9828 0.0
H23 H 0.08313 0.10897 0.97012 0.0
O24 O 0.06783 0.99305 0.02393 0.0
O25 O 0.01965 0.04059 0.02532 0.0
O26 O 0.14552 0.11881 0.02687 0.0
O27 O 0.09987 0.15434 0.00603 0.0
C28 C 0.85351 0.97938 0.96293 0.0
C29 C 0.81757 0.97288 0.98132 0.0
H30 H 0.76287 0.96835 0.02025 0.0
H31 H 0.81435 0.01884 0.05318 0.0
H32 H 0.0444 0.06106 0.93539 0.0
H33 H 0.93683 0.9999 0.93125 0.0
H34 H 0.83344 0.95644 0.94841 0.0
H35 H 0.7704 0.94505 0.98065 0.0
Mn36 Mn 0.05307 0.07073 0.37785 0.0
Mn37 Mn 0.13091 0.18853 0.40766 0.0
C38 C 0.10877 0.0668 0.40599 0.0
C39 C 0.04784 0.01547 0.34825 0.0
C40 C 0.99939 0.10751 0.41432 0.0
O41 O 0.05534 0.13668 0.35866 0.0
O42 O 0.10839 0.21221 0.37983 0.0
C43 C 0.23654 0.25063 0.37808 0.0
N44 N 0.21167 0.22607 0.39819 0.0
C45 C 0.3055 0.25052 0.41234 0.0
C46 C 0.33216 0.27643 0.39181 0.0
C47 C 0.2975 0.27641 0.37461 0.0
C48 C 0.24461 0.22588 0.41486 0.0
H49 H 0.21004 0.2504 0.36477 0.0
C50 C 0.08015 0.19099 0.3625 0.0
O51 O 1.00052 0.00941 0.35767 0.0
O52 O 0.09744 0.05564 0.35523 0.0
N53 N 0.1561 0.17234 0.43488 0.0
C54 C 0.12329 0.14317 0.45336 0.0
C55 C 0.1512 0.13816 0.47199 0.0
C56 C 0.2125 0.16336 0.47146 0.0
C57 C 0.24539 0.19368 0.45233 0.0
C58 C 0.21523 0.19784 0.43435 0.0
H59 H 0.07613 0.12332 0.45382 0.0
O60 O 0.06529 0.01909 0.39921 0.0
O61 O 0.11825 0.11542 0.39617 0.0
O62 O 0.99341 0.07317 0.39921 0.0
O63 O 0.04877 0.15147 0.41881 0.0
C64 C 0.30679 0.21888 0.45024 0.0
C65 C 0.3368 0.2472 0.43026 0.0
H66 H 0.37911 0.29602 0.38903 0.0
H67 H 0.31771 0.29605 0.35869 0.0
H68 H 0.12548 0.11457 0.48667 0.0
H69 H 0.23379 0.15876 0.48577 0.0
H70 H 0.33125 0.21602 0.46382 0.0
H71 H 0.38391 0.26575 0.42877 0.0
Mn72 Mn 0.09693 0.05398 0.71204 0.0
Mn73 Mn 0.05447 0.13445 0.73998 0.0
C74 C 0.15503 0.11306 0.73887 0.0
C75 C 0.14921 0.04643 0.68249 0.0
C76 C 1.00193 0.00323 0.74883 0.0
O77 O 0.03362 0.05327 0.69311 0.0
O78 O 0.01263 0.11229 0.71203 0.0
C79 C 0.10495 0.23965 0.7096 0.0
N80 N 0.10052 0.21492 0.72998 0.0
C81 C 0.16803 0.30859 0.74377 0.0
C82 C 0.17274 0.33513 0.72299 0.0
C83 C 0.14118 0.30047 0.70582 0.0
C84 C 0.13085 0.24783 0.74661 0.0
H85 H 0.08125 0.21312 0.69631 0.0
C86 C 0.00606 0.08088 0.69572 0.0
O87 O 0.10708 0.99986 0.6928 0.0
O88 O 0.15822 0.09649 0.68854 0.0
N89 N 0.09208 0.15949 0.76715 0.0
C90 C 0.08588 0.12666 0.78579 0.0
C91 C 0.11632 0.15447 0.80431 0.0
C92 C 0.15262 0.21567 0.80352 0.0
C93 C 0.15799 0.24857 0.78421 0.0
C94 C 0.12614 0.2185 0.76633 0.0
H95 H 0.05837 0.07959 0.78646 0.0
O96 O 0.16012 0.06935 0.73294 0.0
O97 O 0.11601 0.12071 0.72897 0.0
O98 O 0.03336 0.99633 0.73456 0.0
O99 O 0.00593 0.05261 0.75183 0.0
C100 C 0.19475 0.30987 0.78185 0.0
C101 C 0.19981 0.33985 0.76165 0.0
H102 H 0.20099 0.38197 0.71996 0.0
H103 H 0.14499 0.32057 0.68969 0.0
H104 H 0.11208 0.12875 0.81913 0.0
H105 H 0.17656 0.23689 0.81776 0.0
H106 H 0.2201 0.33426 0.79537 0.0
H107 H 0.22894 0.38686 0.75993 0.0
C108 C 0.10858 0.66884 0.17711 0.0
C109 C 0.16214 0.71141 0.16754 0.0
C110 C 0.2045 0.7061 0.17807 0.0
C111 C 0.17455 0.66045 0.19324 0.0
N112 N 0.11549 0.63534 0.19276 0.0
Co113 Co 0.05536 0.5676 0.21201 0.0
N114 N 0.11787 0.56402 0.22915 0.0
C115 C 0.17664 0.59936 0.22609 0.0
C116 C 0.20869 0.5851 0.23975 0.0
C117 C 0.1681 0.53741 0.25218 0.0
C118 C 0.11328 0.52538 0.24542 0.0
N119 N 0.99525 0.49961 0.23122 0.0
C120 C 1.00222 0.46687 0.2472 0.0
C121 C 0.94858 0.42274 0.25614 0.0
C122 C 0.90619 0.42688 0.24512 0.0
C123 C 0.93618 0.47325 0.23022 0.0
N124 N 0.99296 0.57169 0.19495 0.0
C125 C 0.93419 0.53621 0.19796 0.0
C126 C 0.90216 0.55248 0.18517 0.0
C127 C 0.94271 0.60186 0.17351 0.0
C128 C 0.9976 0.61272 0.1797 0.0
N129 N 0.05629 0.51148 0.19152 0.0
C130 C 0.0579 0.42896 0.16422 0.0
C131 C 0.00503 0.42115 0.17276 0.0
C132 C 0.00517 0.46298 0.18602 0.0
C133 C 0.10987 0.47893 0.16933 0.0
C134 C 0.10812 0.51894 0.18306 0.0
N135 N 0.0543 0.62364 0.23241 0.0
C136 C 1.0004 0.65725 0.25383 0.0
C137 C 0.05203 0.70907 0.258 0.0
C138 C 0.10501 0.71627 0.24962 0.0
C139 C 0.10518 0.67319 0.23722 0.0
C140 C 1.0025 0.61569 0.24108 0.0
H141 H 0.14698 0.68148 0.23136 0.0
H142 H 0.96148 0.57782 0.23827 0.0
H143 H 0.96335 0.45494 0.19166 0.0
H144 H 0.14941 0.55522 0.1867 0.0
C145 C 0.20056 0.64279 0.20918 0.0
C146 C 0.05277 0.66419 0.17161 0.0
C147 C 0.05839 0.47501 0.25415 0.0
C148 C 0.91031 0.49169 0.2145 0.0
H149 H 0.16992 0.744 0.15466 0.0
H150 H 0.25157 0.73344 0.17545 0.0
H151 H 0.25599 0.60573 0.24013 0.0
H152 H 0.17798 0.51334 0.2644 0.0
H153 H 0.94089 0.39036 0.2691 0.0
H154 H 0.85912 0.39877 0.24742 0.0
H155 H 0.85488 0.53245 0.1851 0.0
H156 H 0.93252 0.62784 0.16233 0.0
H157 H 0.9636 0.38336 0.16893 0.0
H158 H 0.15189 0.48661 0.16308 0.0
H159 H 0.95824 0.64843 0.26036 0.0
H160 H 0.14643 0.75559 0.25211 0.0
C161 C 0.45263 0.9868 0.57886 0.0
C162 C 0.41391 0.93187 0.58857 0.0
C163 C 0.42436 0.89287 0.57846 0.0
C164 C 0.46911 0.92608 0.5634 0.0
N165 N 0.48828 0.98399 0.56341 0.0
Co166 Co 0.55447 0.0477 0.54481 0.0
N167 N 0.56266 0.98953 0.52731 0.0
C168 C 0.52877 0.93054 0.52953 0.0
C169 C 0.54466 0.90178 0.51537 0.0
C170 C 0.59175 0.94495 0.50343 0.0
C171 C 0.60196 0.99785 0.51105 0.0
N172 N 0.62282 0.11152 0.52704 0.0
C173 C 0.65803 0.10839 0.51148 0.0
C174 C 0.70241 0.1637 0.50397 0.0
C175 C 0.69595 0.20308 0.51556 0.0
C176 C 0.64812 0.16978 0.52938 0.0
N177 N 0.54343 0.10575 0.56128 0.0
C178 C 0.5748 0.16475 0.55808 0.0
C179 C 0.55331 0.19328 0.56977 0.0
C180 C 0.50465 0.14994 0.58088 0.0
C181 C 0.49975 0.09711 0.57561 0.0
N182 N 0.6111 0.04881 0.56631 0.0
C183 C 0.69826 0.05428 0.59426 0.0
C184 C 0.68753 0.10081 0.59183 0.0
C185 C 0.64473 0.09744 0.57782 0.0
C186 C 0.66297 0.00418 0.5829 0.0
C187 C 0.61964 0.00208 0.56943 0.0
N188 N 0.49833 0.04685 0.52345 0.0
C189 C 0.46645 0.09916 0.49941 0.0
C190 C 0.41425 0.04751 0.49574 0.0
C191 C 0.40562 0.99519 0.50575 0.0
C192 C 0.44805 0.9958 0.51935 0.0
C193 C 0.50755 0.09786 0.51314 0.0
H194 H 0.439 0.95454 0.52658 0.0
H195 H 0.54601 0.13886 0.51547 0.0
H196 H 0.64027 0.13521 0.57651 0.0
H197 H 0.59427 0.96223 0.56152 0.0
C198 C 0.48802 0.90367 0.54702 0.0
C199 C 0.4523 0.03989 0.58424 0.0
C200 C 0.65222 0.05441 0.50365 0.0
C201 C 0.62374 0.19195 0.54372 0.0
H202 H 0.38049 0.92087 0.60124 0.0
H203 H 0.40045 0.84567 0.58113 0.0
H204 H 0.52604 0.85498 0.51454 0.0
H205 H 0.61699 0.93796 0.49113 0.0
H206 H 0.73619 0.17446 0.49146 0.0
H207 H 0.72272 0.25036 0.51402 0.0
H208 H 0.57017 0.23997 0.56978 0.0
H209 H 0.47565 0.15687 0.59132 0.0
H210 H 0.71193 0.14009 0.6007 0.0
H211 H 0.66919 0.96678 0.58392 0.0
H212 H 0.47509 0.14092 0.49219 0.0
H213 H 0.36639 0.95385 0.50309 0.0
C214 C 0.70988 0.61119 0.85222 0.0
C215 C 0.7587 0.60672 0.84686 0.0
C216 C 0.7497 0.55568 0.85679 0.0
C217 C 0.69639 0.53217 0.86774 0.0
N218 N 0.67056 0.56492 0.86541 0.0
Co219 Co 0.59399 0.54778 0.87951 0.0
N220 N 0.58246 0.47428 0.89528 0.0
C221 C 0.61683 0.45039 0.89278 0.0
C222 C 0.59031 0.39291 0.90006 0.0
C223 C 0.53661 0.3799 0.90825 0.0
C224 C 0.53475 0.43141 0.907 0.0
N225 N 0.51694 0.52998 0.89323 0.0
C226 C 0.47589 0.48083 0.90473 0.0
C227 C 0.42137 0.47688 0.9046 0.0
C228 C 0.42981 0.52811 0.89512 0.0
C229 C 0.48801 0.559 0.88877 0.0
N230 N 0.60558 0.62151 0.86408 0.0
C231 C 0.56897 0.6432 0.86513 0.0
C232 C 0.5885 0.69475 0.85306 0.0
C233 C 0.64112 0.70725 0.84388 0.0
C234 C 0.65088 0.66249 0.85101 0.0
N235 N 0.5509 0.5012 0.85427 0.0
C236 C 0.47424 0.42127 0.82464 0.0
C237 C 0.47057 0.47025 0.82971 0.0
C238 C 0.50943 0.50963 0.84422 0.0
C239 C 0.52027 0.41596 0.83308 0.0
C240 C 0.5584 0.45668 0.8474 0.0
N241 N 0.63689 0.5943 0.90443 0.0
C242 C 0.66444 0.67831 0.9259 0.0
C243 C 0.71489 0.67815 0.93254 0.0
C244 C 0.72239 0.63192 0.92646 0.0
C245 C 0.68272 0.59034 0.91273 0.0
C246 C 0.62591 0.63584 0.9121 0.0
H247 H 0.6909 0.55636 0.90843 0.0
H248 H 0.58862 0.63851 0.90717 0.0
H249 H 0.50407 0.54583 0.84729 0.0
H250 H 0.59302 0.4506 0.85284 0.0
C251 C 0.66955 0.47966 0.88041 0.0
C252 C 0.70355 0.66074 0.84473 0.0
C253 C 0.48784 0.43899 0.91694 0.0
C254 C 0.51487 0.61224 0.87652 0.0
H255 H 0.79715 0.63736 0.83695 0.0
H256 H 0.77878 0.53804 0.85624 0.0
H257 H 0.60612 0.36276 0.89797 0.0
H258 H 0.50153 0.33608 0.91277 0.0
H259 H 0.37969 0.44093 0.91096 0.0
H260 H 0.39691 0.54036 0.89238 0.0
H261 H 0.56665 0.71981 0.85092 0.0
H262 H 0.66886 0.74489 0.83301 0.0
H263 H 0.43647 0.47716 0.8232 0.0
H264 H 0.52665 0.3802 0.8288 0.0
H265 H 0.65593 0.71248 0.93049 0.0
H266 H 0.75933 0.62834 0.93195 0.0
H267 H 0.06467 0.25039 0.0512 0.0
H268 H 0.00571 0.31006 0.17167 0.0
H269 H 0.0485 0.13296 0.10527 0.0
H270 H 0.11223 0.45018 0.12397 0.0
H271 H 0.00724 0.23968 0.14702 0.0
H272 H 0.06829 0.31978 0.07705 0.0
C273 C 0.06174 0.23914 0.06855 0.0
C274 C 0.05617 0.18576 0.07611 0.0
C275 C 0.03047 0.28588 0.14206 0.0
C276 C 0.05961 0.26488 0.10578 0.0
C277 C 0.02931 0.32587 0.156 0.0
C278 C 0.05887 0.38588 0.14977 0.0
C279 C 0.06018 0.30602 0.12159 0.0
C280 C 0.08915 0.4043 0.12939 0.0
C281 C 0.06413 0.27892 0.08327 0.0
C282 C 0.05306 0.17374 0.09878 0.0
N283 N 0.0885 0.36447 0.11593 0.0
N284 N 0.05414 0.21278 0.11288 0.0
H285 H 0.99725 0.15184 0.45357 0.0
H286 H 0.65211 0.0266 0.46097 0.0
H287 H 0.88208 0.03812 0.40566 0.0
H288 H 0.76315 0.08957 0.51603 0.0
H289 H 0.73547 0.03566 0.43906 0.0
H290 H 0.912 0.1355 0.47525 0.0
C291 C 0.95401 0.12331 0.44756 0.0
C292 C 0.94703 0.09631 0.42768 0.0
C293 C 0.74143 0.0471 0.45597 0.0
C294 C 0.84866 0.07774 0.45258 0.0
C295 C 0.69403 0.04193 0.46841 0.0
C296 C 0.70111 0.0572 0.49026 0.0
C297 C 0.79632 0.06861 0.46542 0.0
C298 C 0.75619 0.0774 0.49921 0.0
C299 C 0.90524 0.11386 0.46005 0.0
C300 C 0.88962 0.0597 0.4209 0.0
N301 N 0.80176 0.08286 0.48673 0.0
N302 N 0.84259 0.0518 0.43325 0.0
H303 H 0.94722 0.00395 0.78695 0.0
H304 H 0.73859 0.65761 0.8028 0.0
H305 H 0.95901 0.8857 0.74347 0.0
H306 H 0.77431 0.7745 0.85476 0.0
H307 H 0.81342 0.74015 0.77936 0.0
H308 H 0.87732 0.92024 0.81043 0.0
C309 C 0.93514 0.96038 0.78228 0.0
C310 C 0.95925 0.95205 0.76312 0.0
C311 C 0.80513 0.74765 0.79593 0.0
C312 C 0.8785 0.85557 0.79008 0.0
C313 C 0.76259 0.7007 0.80925 0.0
C314 C 0.75057 0.70962 0.83065 0.0
C315 C 0.83509 0.80395 0.80402 0.0
C316 C 0.78238 0.76611 0.8383 0.0
C317 C 0.8953 0.91254 0.7958 0.0
C318 C 0.94178 0.89432 0.75808 0.0
N319 N 0.82287 0.81124 0.82495 0.0
N320 N 0.90217 0.84824 0.7714 0.0
H321 H 0.15468 0.99971 0.10522 0.0
H322 H 0.00749 0.65937 0.13122 0.0
H323 H 0.98312 0.8787 0.08246 0.0
H324 H 0.10098 0.77911 0.18106 0.0
H325 H 0.01047 0.7404 0.1091 0.0
H326 H 0.14832 0.9205 0.12978 0.0
C327 C 0.11563 0.95671 0.10551 0.0
C328 C 0.06924 0.94579 0.09188 0.0
C329 C 0.02999 0.74876 0.12495 0.0
C330 C 0.06254 0.85525 0.11929 0.0
C331 C 0.02808 0.70265 0.13756 0.0
C332 C 0.05295 0.71252 0.15813 0.0
C333 C 0.0587 0.80548 0.13266 0.0
C334 C 0.0808 0.76979 0.16535 0.0
C335 C 0.11203 0.91172 0.11949 0.0
C336 C 0.01969 0.88919 0.09281 0.0
N337 N 0.08342 0.81434 0.15254 0.0
N338 N 0.01798 0.84587 0.10604 0.0
H339 H 0.08988 0.00494 0.44489 0.0
H340 H 0.43083 0.11206 0.45738 0.0
H341 H 0.22549 0.1168 0.39693 0.0
H342 H 0.29442 0.9861 0.50259 0.0
H343 H 0.3562 0.11645 0.43567 0.0
H344 H 0.16384 0.99823 0.46675 0.0
C345 C 0.13541 0.02836 0.43911 0.0
C346 C 0.15239 0.06338 0.41965 0.0
C347 C 0.3425 0.08759 0.45028 0.0
C348 C 0.23667 0.05492 0.44405 0.0
C349 C 0.38517 0.08533 0.46277 0.0
C350 C 0.36897 0.04866 0.48188 0.0
C351 C 0.28299 0.05296 0.45689 0.0
C352 C 0.30895 0.01442 0.48785 0.0
C353 C 0.17751 0.02447 0.4515 0.0
C354 C 0.21131 0.09134 0.41236 0.0
N355 N 0.26818 0.01753 0.47544 0.0
N356 N 0.25147 0.08689 0.42464 0.0
H357 H 0.22147 0.22884 0.7274 0.0
H358 H 0.42151 0.30246 0.83169 0.0
H359 H 0.19695 0.09936 0.77775 0.0
H360 H 0.42374 0.4349 0.78759 0.0
H361 H 0.34453 0.22684 0.81067 0.0
H362 H 0.30074 0.30442 0.74781 0.0
C363 C 0.23239 0.21668 0.74297 0.0
C364 C 0.20137 0.15858 0.75147 0.0
C365 C 0.36193 0.27243 0.80557 0.0
C366 C 0.29313 0.24396 0.77449 0.0
C367 C 0.40623 0.31564 0.81745 0.0
C368 C 0.42928 0.37515 0.81135 0.0
C369 C 0.34067 0.28872 0.78734 0.0
C370 C 0.40696 0.38961 0.79298 0.0
C371 C 0.27785 0.25961 0.75452 0.0
C372 C 0.21899 0.14417 0.77105 0.0
N373 N 0.36399 0.34671 0.78161 0.0
N374 N 0.2635 0.18672 0.78203 0.0
H375 H 0.93963 0.98944 0.66988 0.0
H376 H 0.80361 0.1525 0.60281 0.0
H377 H 0.97542 0.16231 0.68431 0.0
H378 H 0.70348 0.96554 0.61785 0.0
H379 H 0.87944 0.15878 0.62667 0.0
H380 H 0.86541 0.98205 0.6443 0.0
C381 C 0.93233 0.02599 0.66751 0.0
C382 C 0.96363 0.07652 0.67927 0.0
C383 C 0.84079 0.11645 0.62465 0.0
C384 C 0.87979 0.06859 0.64996 0.0
C385 C 0.79698 0.1127 0.61116 0.0
C386 C 0.74604 0.05839 0.60833 0.0
C387 C 0.83466 0.06549 0.63509 0.0
C388 C 0.74187 0.00835 0.61915 0.0
C389 C 0.88984 0.02158 0.65305 0.0
C390 C 0.95213 0.12245 0.67568 0.0
N391 N 0.78563 0.01309 0.63197 0.0
N392 N 0.91145 0.11755 0.66125 0.0
H393 H 0.04396 0.95917 0.97819 0.0
H394 H 0.6995 0.73627 0.96595 0.0
H395 H 0.91003 0.94101 0.02403 0.0
H396 H 0.83455 0.73193 0.92704 0.0
H397 H 0.77576 0.81744 0.98534 0.0
H398 H 0.96765 0.88114 0.95729 0.0
C399 C 0.99837 0.93906 0.98366 0.0
C400 C 0.98277 0.95771 0.00232 0.0
C401 C 0.78869 0.79854 0.97261 0.0
C402 C 0.89564 0.86792 0.979 0.0
C403 C 0.74513 0.75236 0.96145 0.0
C404 C 0.76049 0.72679 0.94492 0.0
C405 C 0.8482 0.81967 0.96716 0.0
C406 C 0.82053 0.74943 0.93993 0.0
C407 C 0.9549 0.89454 0.97183 0.0
C408 C 0.92344 0.92927 0.00921 0.0
N409 N 0.86208 0.79451 0.95097 0.0
N410 N 0.88199 0.88606 0.9975 0.0
H411 H 0.95209 0.92647 0.32906 0.0
H412 H 0.13402 0.78348 0.28604 0.0
H413 H 0.14061 0.00969 0.33151 0.0
H414 H 0.96696 0.74063 0.2595 0.0
H415 H 0.1326 0.86048 0.30592 0.0
H416 H 0.95202 0.85239 0.30608 0.0
C417 C 0.99342 0.92959 0.32457 0.0
C418 C 0.0464 0.97433 0.33225 0.0
C419 C 0.09633 0.8343 0.29568 0.0
C420 C 0.04647 0.88934 0.30648 0.0
C421 C 0.09718 0.79033 0.28418 0.0
C422 C 0.05074 0.7553 0.27082 0.0
C423 C 0.04833 0.84314 0.29417 0.0
C424 C 0.00345 0.7657 0.26977 0.0
C425 C 0.99334 0.8873 0.31152 0.0
C426 C 0.09867 0.9761 0.326 0.0
N427 N 0.00336 0.80848 0.28134 0.0
N428 N 0.09729 0.93395 0.31372 0.0
H429 H 0.25999 0.13292 0.67107 0.0
H430 H 0.33425 0.98379 0.5774 0.0
H431 H 0.133 0.9543 0.65805 0.0
H432 H 0.4618 0.08554 0.62423 0.0
H433 H 0.2566 0.98131 0.60106 0.0
H434 H 0.33193 0.12758 0.64735 0.0
C435 C 0.24692 0.09274 0.66299 0.0
C436 C 0.19034 0.04391 0.66654 0.0
C437 C 0.30162 0.00394 0.6061 0.0
C438 C 0.27265 0.03792 0.63925 0.0
C439 C 0.34573 0.00544 0.59268 0.0
C440 C 0.40443 0.0357 0.5988 0.0
C441 C 0.3168 0.03406 0.62544 0.0
C442 C 0.4172 0.06273 0.61878 0.0
C443 C 0.28821 0.08968 0.64962 0.0
C444 C 0.1762 0.99286 0.65576 0.0
N445 N 0.37391 0.06213 0.63122 0.0
N446 N 0.21707 0.99124 0.64241 0.0
H447 H 0.1707 0.2603 0.99316 0.0
H448 H 0.48478 0.34595 0.94501 0.0
H449 H 0.25222 0.15824 0.00924 0.0
H450 H 0.4216 0.46651 0.94545 0.0
H451 H 0.40465 0.27926 0.96942 0.0
H452 H 0.26288 0.33626 0.97566 0.0
C453 C 0.20807 0.25382 0.99304 0.0
C454 C 0.20339 0.20238 0.00254 0.0
C455 C 0.40676 0.31928 0.96332 0.0
C456 C 0.30972 0.28979 0.98238 0.0
C457 C 0.45157 0.35681 0.94815 0.0
C458 C 0.45245 0.40637 0.93813 0.0
C459 C 0.36428 0.333 0.96974 0.0
C460 C 0.41649 0.42386 0.94884 0.0
C461 C 0.26094 0.29757 0.98317 0.0
C462 C 0.25373 0.19705 0.00209 0.0
N463 N 0.37248 0.3864 0.96324 0.0
N464 N 0.30459 0.23984 0.9919 0.0
H465 H 0.11891 0.30738 0.3665 0.0
H466 H 0.02786 0.3619 0.24749 0.0
H467 H 0.03256 0.16952 0.32167 0.0
H468 H 0.09128 0.48969 0.29654 0.0
H469 H 0.03163 0.29108 0.27368 0.0
H470 H 0.11226 0.37511 0.34034 0.0
C471 C 0.09853 0.29116 0.35114 0.0
C472 C 0.07623 0.23232 0.34637 0.0
C473 C 0.04466 0.33455 0.27874 0.0
C474 C 0.06854 0.31046 0.31613 0.0
C475 C 0.04251 0.3748 0.26383 0.0
C476 C 0.05965 0.43149 0.26995 0.0
C477 C 0.06431 0.35137 0.29988 0.0
C478 C 0.07812 0.44639 0.29124 0.0
C479 C 0.09464 0.33006 0.33619 0.0
C480 C 0.05029 0.21434 0.32612 0.0
N481 N 0.0802 0.40667 0.30541 0.0
N482 N 0.04728 0.25327 0.31173 0.0
loop_
_geom_bond_atom_site_label_1
_geom_bond_atom_site_label_2
_geom_bond_distance
_geom_bond_site_symmetry_2
_ccdc_geom_bond_type
Mn0 O5 2.095 . S
Mn0 O15 2.167 . S
Mn0 O16 2.297 1_545 S
Mn0 O24 2.385 1_545 S
Mn0 O25 2.209 . S
Mn0 O26 2.094 . S
Mn1 O6 2.121 . S
Mn1 N8 2.257 1_455 S
Mn1 N17 2.282 1_554 S
Mn1 O25 2.215 . S
Mn1 O27 2.117 . S
C2 O24 1.234 . S
C2 O25 1.283 1_565 S
C3 O15 1.279 1_565 S
C3 O16 1.236 . S
C4 O26 1.240 . S
C4 O27 1.264 . S
O5 Mn0 2.095 . S
O5 C14 1.250 . S
O6 Mn1 2.121 . S
O6 C14 1.258 . S
C7 N8 1.326 . S
C7 C11 1.460 . S
C7 H13 0.929 . S
N8 Mn1 2.257 1_655 S
N8 C7 1.326 . S
N8 C12 1.362 1_554 S
C9 C10 1.258 1_556 S
C9 C12 1.431 . S
C9 C29 1.449 . S
C10 C9 1.258 1_554 S
C10 C11 1.477 . S
C10 H30 0.927 1_554 S
C11 C7 1.460 . S
C11 C10 1.477 . S
C11 H31 0.930 . S
C12 N8 1.362 1_556 S
C12 C9 1.431 . S
C12 C22 1.476 . S
H13 C7 0.929 . S
C14 O5 1.250 . S
C14 O6 1.258 . S
O15 Mn0 2.167 . S
O15 C3 1.279 1_545 S
O16 Mn0 2.297 1_565 S
O16 C3 1.236 . S
N17 Mn1 2.282 1_556 S
N17 C18 1.328 . S
N17 C22 1.318 1_455 S
C18 N17 1.328 . S
C18 C19 1.457 . S
C18 H23 0.929 . S
C19 C18 1.457 . S
C19 C20 1.291 1_455 S
C19 H32 0.931 . S
C20 C19 1.291 1_655 S
C20 C21 1.373 . S
C20 H33 0.929 . S
C21 C20 1.373 . S
C21 C22 1.396 . S
C21 C28 1.403 . S
C22 C12 1.476 . S
C22 N17 1.318 1_655 S
C22 C21 1.396 . S
H23 C18 0.929 . S
O24 Mn0 2.385 1_565 S
O24 C2 1.234 . S
O25 Mn0 2.209 . S
O25 Mn1 2.215 . S
O25 C2 1.283 1_545 S
O26 Mn0 2.094 . S
O26 C4 1.240 . S
O27 Mn1 2.117 . S
O27 C4 1.264 . S
C28 C21 1.403 . S
C28 C29 1.399 . S
C28 H34 0.929 . S
C29 C9 1.449 . S
C29 C28 1.399 . S
C29 H35 0.930 . S
H30 C10 0.927 1_556 S
H31 C11 0.930 . S
H32 C19 0.931 . S
H33 C20 0.929 . S
H34 C28 0.929 . S
H35 C29 0.930 . S
Mn36 O41 2.095 . S
Mn36 O51 2.162 1_445 S
Mn36 O52 2.297 . S
Mn36 O60 2.385 . S
Mn36 O61 2.209 . S
Mn36 O62 2.094 1_455 S
Mn37 O42 2.121 . S
Mn37 N44 2.257 . S
Mn37 N53 2.282 . S
Mn37 O61 2.215 . S
Mn37 O63 2.117 . S
C38 O60 1.234 . S
C38 O61 1.283 . S
C39 O51 1.281 1_455 S
C39 O52 1.236 1_565 S
C40 O62 1.240 . S
C40 O63 1.264 1_655 S
O41 Mn36 2.095 . S
O41 C50 1.250 . S
O42 Mn37 2.121 . S
O42 C50 1.258 . S
C43 N44 1.326 . S
C43 C47 1.460 . S
C43 H49 0.929 . S
N44 Mn37 2.257 . S
N44 C43 1.326 . S
N44 C48 1.362 . S
C45 C46 1.258 . S
C45 C48 1.431 . S
C45 C65 1.449 . S
C46 C45 1.258 . S
C46 C47 1.477 . S
C46 H66 0.931 . S
C47 C43 1.460 . S
C47 C46 1.477 . S
C47 H67 0.930 . S
C48 N44 1.362 . S
C48 C45 1.431 . S
C48 C58 1.476 . S
H49 C43 0.929 . S
C50 O41 1.250 . S
C50 O42 1.258 . S
O51 Mn36 2.162 1_665 S
O51 C39 1.281 1_655 S
O52 Mn36 2.297 . S
O52 C39 1.236 1_545 S
N53 Mn37 2.282 . S
N53 C54 1.328 . S
N53 C58 1.318 . S
C54 N53 1.328 . S
C54 C55 1.457 . S
C54 H59 0.929 . S
C55 C54 1.457 . S
C55 C56 1.291 . S
C55 H68 0.931 . S
C56 C55 1.291 . S
C56 C57 1.373 . S
C56 H69 0.929 . S
C57 C56 1.373 . S
C57 C58 1.396 . S
C57 C64 1.403 . S
C58 C48 1.476 . S
C58 N53 1.318 . S
C58 C57 1.396 . S
H59 C54 0.929 . S
O60 Mn36 2.385 . S
O60 C38 1.234 . S
O61 Mn36 2.209 . S
O61 Mn37 2.215 . S
O61 C38 1.283 . S
O62 Mn36 2.094 1_655 S
O62 C40 1.240 . S
O63 Mn37 2.117 . S
O63 C40 1.264 1_455 S
C64 C57 1.403 . S
C64 C65 1.399 . S
C64 H70 0.929 . S
C65 C45 1.449 . S
C65 C64 1.399 . S
C65 H71 0.930 . S
H66 C46 0.931 . S
H67 C47 0.930 . S
H68 C55 0.931 . S
H69 C56 0.929 . S
H70 C64 0.929 . S
H71 C65 0.930 . S
Mn72 O77 2.095 . S
Mn72 O87 2.162 1_545 S
Mn72 O88 2.297 . S
Mn72 O96 2.385 . S
Mn72 O97 2.209 . S
Mn72 O98 2.094 1_545 S
Mn73 O78 2.121 1_455 S
Mn73 N80 2.257 . S
Mn73 N89 2.282 . S
Mn73 O97 2.215 . S
Mn73 O99 2.117 1_445 S
C74 O96 1.234 . S
C74 O97 1.283 . S
C75 O87 1.281 1_545 S
C75 O88 1.236 . S
C76 O98 1.240 1_655 S
C76 O99 1.264 . S
O77 Mn72 2.095 . S
O77 C86 1.250 1_455 S
O78 Mn73 2.121 1_655 S
O78 C86 1.258 . S
C79 N80 1.326 . S
C79 C83 1.460 . S
C79 H85 0.929 . S
N80 Mn73 2.257 . S
N80 C79 1.326 . S
N80 C84 1.362 . S
C81 C82 1.258 . S
C81 C84 1.431 . S
C81 C101 1.449 . S
C82 C81 1.258 . S
C82 C83 1.477 . S
C82 H102 0.931 . S
C83 C79 1.460 . S
C83 C82 1.477 . S
C83 H103 0.930 . S
C84 N80 1.362 . S
C84 C81 1.431 . S
C84 C94 1.476 . S
H85 C79 0.929 . S
C86 O77 1.250 1_655 S
C86 O78 1.258 . S
O87 Mn72 2.162 1_565 S
O87 C75 1.281 1_565 S
O88 Mn72 2.297 . S
O88 C75 1.236 . S
N89 Mn73 2.282 . S
N89 C90 1.328 . S
N89 C94 1.318 . S
C90 N89 1.328 . S
C90 C91 1.457 . S
C90 H95 0.929 . S
C91 C90 1.457 . S
C91 C92 1.291 . S
C91 H104 0.931 . S
C92 C91 1.291 . S
C92 C93 1.373 . S
C92 H105 0.929 . S
C93 C92 1.373 . S
C93 C94 1.396 . S
C93 C100 1.403 . S
C94 C84 1.476 . S
C94 N89 1.318 . S
C94 C93 1.396 . S
H95 C90 0.929 . S
O96 Mn72 2.385 . S
O96 C74 1.234 . S
O97 Mn72 2.209 . S
O97 Mn73 2.215 . S
O97 C74 1.283 . S
O98 Mn72 2.094 1_565 S
O98 C76 1.240 1_455 S
O99 Mn73 2.117 1_665 S
O99 C76 1.264 . S
C100 C93 1.403 . S
C100 C101 1.399 . S
C100 H106 0.929 . S
C101 C81 1.449 . S
C101 C100 1.399 . S
C101 H107 0.930 . S
H102 C82 0.931 . S
H103 C83 0.930 . S
H104 C91 0.931 . S
H105 C92 0.929 . S
H106 C100 0.929 . S
H107 C101 0.930 . S
C108 C109 1.443 . S
C108 N112 1.376 . S
C108 C146 1.389 . S
C109 C108 1.443 . S
C109 C110 1.340 . S
C109 H149 0.951 . S
C110 C109 1.340 . S
C110 C111 1.439 . S
C110 H150 0.950 . S
C111 C110 1.439 . S
C111 N112 1.374 . S
C111 C145 1.395 . S
N112 C108 1.376 . S
N112 C111 1.374 . S
N112 Co113 2.008 . S
Co113 N112 2.008 . S
Co113 N114 1.995 . S
Co113 N119 2.008 1_455 S
Co113 N124 1.995 1_455 S
Co113 N129 2.282 . S
Co113 N135 2.282 . S
N114 Co113 1.995 . S
N114 C115 1.376 . S
N114 C118 1.383 . S
C115 N114 1.376 . S
C115 C116 1.446 . S
C115 C145 1.391 . S
C116 C115 1.446 . S
C116 C117 1.339 . S
C116 H151 0.949 . S
C117 C116 1.339 . S
C117 C118 1.439 . S
C117 H152 0.950 . S
C118 N114 1.383 . S
C118 C117 1.439 . S
C118 C147 1.392 . S
N119 Co113 2.008 1_655 S
N119 C120 1.376 . S
N119 C123 1.374 . S
C120 N119 1.376 . S
C120 C121 1.443 . S
C120 C147 1.389 1_655 S
C121 C120 1.443 . S
C121 C122 1.340 . S
C121 H153 0.951 . S
C122 C121 1.340 . S
C122 C123 1.439 . S
C122 H154 0.950 . S
C123 N119 1.374 . S
C123 C122 1.439 . S
C123 C148 1.395 . S
N124 Co113 1.995 1_655 S
N124 C125 1.376 . S
N124 C128 1.383 1_655 S
C125 N124 1.376 . S
C125 C126 1.446 . S
C125 C148 1.391 . S
C126 C125 1.446 . S
C126 C127 1.339 . S
C126 H155 0.949 . S
C127 C126 1.339 . S
C127 C128 1.439 1_655 S
C127 H156 0.950 . S
C128 N124 1.383 1_455 S
C128 C127 1.439 1_455 S
C128 C146 1.392 . S
N129 Co113 2.282 . S
N129 C132 1.332 . S
N129 C134 1.332 . S
C130 C131 1.386 . S
C130 C133 1.388 . S
C131 C130 1.386 . S
C131 C132 1.382 . S
C131 H157 0.950 1_455 S
C132 N129 1.332 . S
C132 C131 1.382 . S
C132 H143 0.952 1_455 S
C133 C130 1.388 . S
C133 C134 1.382 . S
C133 H158 0.950 . S
C134 N129 1.332 . S
C134 C133 1.382 . S
C134 H144 0.948 . S
N135 Co113 2.282 . S
N135 C139 1.332 . S
N135 C140 1.332 1_455 S
C136 C137 1.388 1_655 S
C136 C140 1.382 . S
C136 H159 0.950 . S
C137 C136 1.388 1_455 S
C137 C138 1.386 . S
C138 C137 1.386 . S
C138 C139 1.382 . S
C138 H160 0.950 . S
C139 N135 1.332 . S
C139 C138 1.382 . S
C139 H141 0.952 . S
C140 N135 1.332 1_655 S
C140 C136 1.382 . S
C140 H142 0.948 . S
H141 C139 0.952 . S
H142 C140 0.948 . S
H143 C132 0.952 1_655 S
H144 C134 0.948 . S
C145 C111 1.395 . S
C145 C115 1.391 . S
C146 C108 1.389 . S
C146 C128 1.392 . S
C147 C118 1.392 . S
C147 C120 1.389 1_455 S
C148 C123 1.395 . S
C148 C125 1.391 . S
H149 C109 0.951 . S
H150 C110 0.950 . S
H151 C116 0.949 . S
H152 C117 0.950 . S
H153 C121 0.951 . S
H154 C122 0.950 . S
H155 C126 0.949 . S
H156 C127 0.950 . S
H157 C131 0.950 1_655 S
H158 C133 0.950 . S
H159 C136 0.950 . S
H160 C138 0.950 . S
C161 C162 1.443 1_545 S
C161 N165 1.376 . S
C161 C199 1.389 . S
C162 C161 1.443 1_565 S
C162 C163 1.340 . S
C162 H202 0.951 . S
C163 C162 1.340 . S
C163 C164 1.439 . S
C163 H203 0.950 . S
C164 C163 1.439 . S
C164 N165 1.374 1_565 S
C164 C198 1.395 . S
N165 C161 1.376 . S
N165 C164 1.374 1_545 S
N165 Co166 2.008 . S
Co166 N165 2.008 . S
Co166 N167 1.995 . S
Co166 N172 2.008 . S
Co166 N177 1.995 . S
Co166 N182 2.282 . S
Co166 N188 2.282 . S
N167 Co166 1.995 . S
N167 C168 1.376 1_545 S
N167 C171 1.383 . S
C168 N167 1.376 1_565 S
C168 C169 1.446 . S
C168 C198 1.391 . S
C169 C168 1.446 . S
C169 C170 1.339 . S
C169 H204 0.949 . S
C170 C169 1.339 . S
C170 C171 1.439 1_565 S
C170 H205 0.950 . S
C171 N167 1.383 . S
C171 C170 1.439 1_545 S
C171 C200 1.392 . S
N172 Co166 2.008 . S
N172 C173 1.376 . S
N172 C176 1.374 . S
C173 N172 1.376 . S
C173 C174 1.443 . S
C173 C200 1.389 . S
C174 C173 1.443 . S
C174 C175 1.340 . S
C174 H206 0.951 . S
C175 C174 1.340 . S
C175 C176 1.439 . S
C175 H207 0.950 . S
C176 N172 1.374 . S
C176 C175 1.439 . S
C176 C201 1.395 . S
N177 Co166 1.995 . S
N177 C178 1.376 . S
N177 C181 1.383 . S
C178 N177 1.376 . S
C178 C179 1.446 . S
C178 C201 1.391 . S
C179 C178 1.446 . S
C179 C180 1.339 . S
C179 H208 0.949 . S
C180 C179 1.339 . S
C180 C181 1.439 . S
C180 H209 0.950 . S
C181 N177 1.383 . S
C181 C180 1.439 . S
C181 C199 1.392 . S
N182 Co166 2.282 . S
N182 C185 1.332 . S
N182 C187 1.332 . S
C183 C184 1.386 . S
C183 C186 1.388 . S
C184 C183 1.386 . S
C184 C185 1.382 . S
C184 H210 0.950 . S
C185 N182 1.332 . S
C185 C184 1.382 . S
C185 H196 0.952 . S
C186 C183 1.388 . S
C186 C187 1.382 . S
C186 H211 0.950 . S
C187 N182 1.332 . S
C187 C186 1.382 . S
C187 H197 0.948 . S
N188 Co166 2.282 . S
N188 C192 1.332 . S
N188 C193 1.332 . S
C189 C190 1.388 . S
C189 C193 1.382 . S
C189 H212 0.950 . S
C190 C189 1.388 . S
C190 C191 1.386 . S
C191 C190 1.386 . S
C191 C192 1.382 . S
C191 H213 0.950 . S
C192 N188 1.332 . S
C192 C191 1.382 . S
C192 H194 0.952 . S
C193 N188 1.332 . S
C193 C189 1.382 . S
C193 H195 0.948 . S
H194 C192 0.952 . S
H195 C193 0.948 . S
H196 C185 0.952 . S
H197 C187 0.948 . S
C198 C164 1.395 . S
C198 C168 1.391 . S
C199 C161 1.389 . S
C199 C181 1.392 . S
C200 C171 1.392 . S
C200 C173 1.389 . S
C201 C176 1.395 . S
C201 C178 1.391 . S
H202 C162 0.951 . S
H203 C163 0.950 . S
H204 C169 0.949 . S
H205 C170 0.950 . S
H206 C174 0.951 . S
H207 C175 0.950 . S
H208 C179 0.949 . S
H209 C180 0.950 . S
H210 C184 0.950 . S
H211 C186 0.950 . S
H212 C189 0.950 . S
H213 C191 0.950 . S
C214 C215 1.443 . S
C214 N218 1.376 . S
C214 C252 1.389 . S
C215 C214 1.443 . S
C215 C216 1.340 . S
C215 H255 0.951 . S
C216 C215 1.340 . S
C216 C217 1.439 . S
C216 H256 0.950 . S
C217 C216 1.439 . S
C217 N218 1.374 . S
C217 C251 1.395 . S
N218 C214 1.376 . S
N218 C217 1.374 . S
N218 Co219 2.008 . S
Co219 N218 2.008 . S
Co219 N220 1.995 . S
Co219 N225 2.008 . S
Co219 N230 1.995 . S
Co219 N235 2.282 . S
Co219 N241 2.282 . S
N220 Co219 1.995 . S
N220 C221 1.376 . S
N220 C224 1.383 . S
C221 N220 1.376 . S
C221 C222 1.446 . S
C221 C251 1.391 . S
C222 C221 1.446 . S
C222 C223 1.339 . S
C222 H257 0.949 . S
C223 C222 1.339 . S
C223 C224 1.439 . S
C223 H258 0.950 . S
C224 N220 1.383 . S
C224 C223 1.439 . S
C224 C253 1.392 . S
N225 Co219 2.008 . S
N225 C226 1.376 . S
N225 C229 1.374 . S
C226 N225 1.376 . S
C226 C227 1.443 . S
C226 C253 1.389 . S
C227 C226 1.443 . S
C227 C228 1.340 . S
C227 H259 0.951 . S
C228 C227 1.340 . S
C228 C229 1.439 . S
C228 H260 0.950 . S
C229 N225 1.374 . S
C229 C228 1.439 . S
C229 C254 1.395 . S
N230 Co219 1.995 . S
N230 C231 1.376 . S
N230 C234 1.383 . S
C231 N230 1.376 . S
C231 C232 1.446 . S
C231 C254 1.391 . S
C232 C231 1.446 . S
C232 C233 1.339 . S
C232 H261 0.949 . S
C233 C232 1.339 . S
C233 C234 1.439 . S
C233 H262 0.950 . S
C234 N230 1.383 . S
C234 C233 1.439 . S
C234 C252 1.392 . S
N235 Co219 2.282 . S
N235 C238 1.332 . S
N235 C240 1.332 . S
C236 C237 1.386 . S
C236 C239 1.388 . S
C237 C236 1.386 . S
C237 C238 1.382 . S
C237 H263 0.950 . S
C238 N235 1.332 . S
C238 C237 1.382 . S
C238 H249 0.952 . S
C239 C236 1.388 . S
C239 C240 1.382 . S
C239 H264 0.950 . S
C240 N235 1.332 . S
C240 C239 1.382 . S
C240 H250 0.948 . S
N241 Co219 2.282 . S
N241 C245 1.332 . S
N241 C246 1.332 . S
C242 C243 1.388 . S
C242 C246 1.382 . S
C242 H265 0.950 . S
C243 C242 1.388 . S
C243 C244 1.386 . S
C244 C243 1.386 . S
C244 C245 1.382 . S
C244 H266 0.950 . S
C245 N241 1.332 . S
C245 C244 1.382 . S
C245 H247 0.952 . S
C246 N241 1.332 . S
C246 C242 1.382 . S
C246 H248 0.948 . S
H247 C245 0.952 . S
H248 C246 0.948 . S
H249 C238 0.952 . S
H250 C240 0.948 . S
C251 C217 1.395 . S
C251 C221 1.391 . S
C252 C214 1.389 . S
C252 C234 1.392 . S
C253 C224 1.392 . S
C253 C226 1.389 . S
C254 C229 1.395 . S
C254 C231 1.391 . S
H255 C215 0.951 . S
H256 C216 0.950 . S
H257 C222 0.949 . S
H258 C223 0.950 . S
H259 C227 0.951 . S
H260 C228 0.950 . S
H261 C232 0.949 . S
H262 C233 0.950 . S
H263 C237 0.950 . S
H264 C239 0.950 . S
H265 C242 0.950 . S
H266 C244 0.950 . S
H267 C273 0.930 . S
H268 C277 0.930 . S
H269 C282 0.929 . S
H270 C280 0.929 . S
H271 C275 0.929 . S
H272 C281 0.929 . S
C273 H267 0.930 . S
C273 C274 1.367 . S
C273 C281 1.378 . S
C274 C273 1.367 . S
C274 C282 1.433 . S
C275 H271 0.929 . S
C275 C277 1.378 . S
C275 C279 1.350 . S
C276 C279 1.463 . S
C276 C281 1.350 . S
C276 N284 1.427 . S
C277 H268 0.930 . S
C277 C275 1.378 . S
C277 C278 1.367 . S
C278 C277 1.367 . S
C278 C280 1.433 . S
C279 C275 1.350 . S
C279 C276 1.463 . S
C279 N283 1.427 . S
C280 H270 0.929 . S
C280 C278 1.433 . S
C280 N283 1.384 . S
C281 H272 0.929 . S
C281 C273 1.378 . S
C281 C276 1.350 . S
C282 H269 0.929 . S
C282 C274 1.433 . S
C282 N284 1.384 . S
N283 C279 1.427 . S
N283 C280 1.384 . S
N284 C276 1.427 . S
N284 C282 1.384 . S
H285 C291 0.930 . S
H286 C295 0.930 . S
H287 C300 0.929 . S
H288 C298 0.929 . S
H289 C293 0.929 . S
H290 C299 0.929 . S
C291 H285 0.930 . S
C291 C292 1.367 . S
C291 C299 1.378 . S
C292 C291 1.367 . S
C292 C300 1.433 . S
C293 H289 0.929 . S
C293 C295 1.378 . S
C293 C297 1.350 . S
C294 C297 1.463 . S
C294 C299 1.350 . S
C294 N302 1.427 . S
C295 H286 0.930 . S
C295 C293 1.378 . S
C295 C296 1.367 . S
C296 C295 1.367 . S
C296 C298 1.433 . S
C297 C293 1.350 . S
C297 C294 1.463 . S
C297 N301 1.427 . S
C298 H288 0.929 . S
C298 C296 1.433 . S
C298 N301 1.384 . S
C299 H290 0.929 . S
C299 C291 1.378 . S
C299 C294 1.350 . S
C300 H287 0.929 . S
C300 C292 1.433 . S
C300 N302 1.384 . S
N301 C297 1.427 . S
N301 C298 1.384 . S
N302 C294 1.427 . S
N302 C300 1.384 . S
H303 C309 0.930 . S
H304 C313 0.930 . S
H305 C318 0.929 . S
H306 C316 0.929 . S
H307 C311 0.929 . S
H308 C317 0.929 . S
C309 H303 0.930 . S
C309 C310 1.367 . S
C309 C317 1.378 . S
C310 C309 1.367 . S
C310 C318 1.433 . S
C311 H307 0.929 . S
C311 C313 1.378 . S
C311 C315 1.350 . S
C312 C315 1.463 . S
C312 C317 1.350 . S
C312 N320 1.427 . S
C313 H304 0.930 . S
C313 C311 1.378 . S
C313 C314 1.367 . S
C314 C313 1.367 . S
C314 C316 1.433 . S
C315 C311 1.350 . S
C315 C312 1.463 . S
C315 N319 1.427 . S
C316 H306 0.929 . S
C316 C314 1.433 . S
C316 N319 1.384 . S
C317 H308 0.929 . S
C317 C309 1.378 . S
C317 C312 1.350 . S
C318 H305 0.929 . S
C318 C310 1.433 . S
C318 N320 1.384 . S
N319 C315 1.427 . S
N319 C316 1.384 . S
N320 C312 1.427 . S
N320 C318 1.384 . S
H321 C327 0.930 . S
H322 C331 0.930 . S
H323 C336 0.929 . S
H324 C334 0.929 . S
H325 C329 0.929 . S
H326 C335 0.929 . S
C327 H321 0.930 . S
C327 C328 1.367 . S
C327 C335 1.378 . S
C328 C327 1.367 . S
C328 C336 1.433 . S
C329 H325 0.929 . S
C329 C331 1.378 . S
C329 C333 1.350 . S
C330 C333 1.463 . S
C330 C335 1.350 . S
C330 N338 1.427 . S
C331 H322 0.930 . S
C331 C329 1.378 . S
C331 C332 1.367 . S
C332 C331 1.367 . S
C332 C334 1.433 . S
C333 C329 1.350 . S
C333 C330 1.463 . S
C333 N337 1.427 . S
C334 H324 0.929 . S
C334 C332 1.433 . S
C334 N337 1.384 . S
C335 H326 0.929 . S
C335 C327 1.378 . S
C335 C330 1.350 . S
C336 H323 0.929 . S
C336 C328 1.433 . S
C336 N338 1.384 . S
N337 C333 1.427 . S
N337 C334 1.384 . S
N338 C330 1.427 . S
N338 C336 1.384 . S
H339 C345 0.930 . S
H340 C349 0.930 . S
H341 C354 0.929 . S
H342 C352 0.929 . S
H343 C347 0.929 . S
H344 C353 0.929 . S
C345 H339 0.930 . S
C345 C346 1.367 . S
C345 C353 1.378 . S
C346 C345 1.367 . S
C346 C354 1.433 . S
C347 H343 0.929 . S
C347 C349 1.378 . S
C347 C351 1.350 . S
C348 C351 1.463 . S
C348 C353 1.350 . S
C348 N356 1.427 . S
C349 H340 0.930 . S
C349 C347 1.378 . S
C349 C350 1.367 . S
C350 C349 1.367 . S
C350 C352 1.433 . S
C351 C347 1.350 . S
C351 C348 1.463 . S
C351 N355 1.427 . S
C352 H342 0.929 . S
C352 C350 1.433 . S
C352 N355 1.384 . S
C353 H344 0.929 . S
C353 C345 1.378 . S
C353 C348 1.350 . S
C354 H341 0.929 . S
C354 C346 1.433 . S
C354 N356 1.384 . S
N355 C351 1.427 . S
N355 C352 1.384 . S
N356 C348 1.427 . S
N356 C354 1.384 . S
H357 C363 0.930 . S
H358 C367 0.930 . S
H359 C372 0.929 . S
H360 C370 0.929 . S
H361 C365 0.929 . S
H362 C371 0.929 . S
C363 H357 0.930 . S
C363 C364 1.367 . S
C363 C371 1.378 . S
C364 C363 1.367 . S
C364 C372 1.433 . S
C365 H361 0.929 . S
C365 C367 1.378 . S
C365 C369 1.350 . S
C366 C369 1.463 . S
C366 C371 1.350 . S
C366 N374 1.427 . S
C367 H358 0.930 . S
C367 C365 1.378 . S
C367 C368 1.367 . S
C368 C367 1.367 . S
C368 C370 1.433 . S
C369 C365 1.350 . S
C369 C366 1.463 . S
C369 N373 1.427 . S
C370 H360 0.929 . S
C370 C368 1.433 . S
C370 N373 1.384 . S
C371 H362 0.929 . S
C371 C363 1.378 . S
C371 C366 1.350 . S
C372 H359 0.929 . S
C372 C364 1.433 . S
C372 N374 1.384 . S
N373 C369 1.427 . S
N373 C370 1.384 . S
N374 C366 1.427 . S
N374 C372 1.384 . S
H375 C381 0.930 1_565 S
H376 C385 0.930 . S
H377 C390 0.929 1_455 S
H378 C388 0.929 . S
H379 C383 0.929 . S
H380 C389 0.929 1_565 S
C381 H375 0.930 1_545 S
C381 C382 1.367 . S
C381 C389 1.378 . S
C382 C381 1.367 . S
C382 C390 1.433 . S
C383 H379 0.929 . S
C383 C385 1.378 . S
C383 C387 1.350 . S
C384 C387 1.463 . S
C384 C389 1.350 . S
C384 N392 1.427 . S
C385 H376 0.930 . S
C385 C383 1.378 . S
C385 C386 1.367 . S
C386 C385 1.367 . S
C386 C388 1.433 . S
C387 C383 1.350 . S
C387 C384 1.463 . S
C387 N391 1.427 . S
C388 H378 0.929 . S
C388 C386 1.433 . S
C388 N391 1.384 . S
C389 H380 0.929 1_545 S
C389 C381 1.378 . S
C389 C384 1.350 . S
C390 H377 0.929 1_655 S
C390 C382 1.433 . S
C390 N392 1.384 . S
N391 C387 1.427 . S
N391 C388 1.384 . S
N392 C384 1.427 . S
N392 C390 1.384 . S
H393 C399 0.930 1_455 S
H394 C403 0.930 . S
H395 C408 0.929 . S
H396 C406 0.929 . S
H397 C401 0.929 . S
H398 C407 0.929 . S
C399 H393 0.930 1_655 S
C399 C400 1.367 1_556 S
C399 C407 1.378 . S
C400 C399 1.367 1_554 S
C400 C408 1.433 . S
C401 H397 0.929 . S
C401 C403 1.378 . S
C401 C405 1.350 . S
C402 C405 1.463 . S
C402 C407 1.350 . S
C402 N410 1.427 . S
C403 H394 0.930 . S
C403 C401 1.378 . S
C403 C404 1.367 . S
C404 C403 1.367 . S
C404 C406 1.433 . S
C405 C401 1.350 . S
C405 C402 1.463 . S
C405 N409 1.427 . S
C406 H396 0.929 . S
C406 C404 1.433 . S
C406 N409 1.384 . S
C407 H398 0.929 . S
C407 C399 1.378 . S
C407 C402 1.350 . S
C408 H395 0.929 . S
C408 C400 1.433 . S
C408 N410 1.384 1_554 S
N409 C405 1.427 . S
N409 C406 1.384 . S
N410 C402 1.427 . S
N410 C408 1.384 1_556 S
H411 C417 0.930 . S
H412 C421 0.930 . S
H413 C426 0.929 . S
H414 C424 0.929 . S
H415 C419 0.929 . S
H416 C425 0.929 . S
C417 H411 0.930 . S
C417 C418 1.367 . S
C417 C425 1.378 . S
C418 C417 1.367 . S
C418 C426 1.433 . S
C419 H415 0.929 . S
C419 C421 1.378 . S
C419 C423 1.350 . S
C420 C423 1.463 . S
C420 C425 1.350 . S
C420 N428 1.427 . S
C421 H412 0.930 . S
C421 C419 1.378 . S
C421 C422 1.367 . S
C422 C421 1.367 . S
C422 C424 1.433 . S
C423 C419 1.350 . S
C423 C420 1.463 . S
C423 N427 1.427 . S
C424 H414 0.929 . S
C424 C422 1.433 . S
C424 N427 1.384 . S
C425 H416 0.929 . S
C425 C417 1.378 . S
C425 C420 1.350 . S
C426 H413 0.929 . S
C426 C418 1.433 . S
C426 N428 1.384 . S
N427 C423 1.427 . S
N427 C424 1.384 . S
N428 C420 1.427 . S
N428 C426 1.384 . S
H429 C435 0.930 . S
H430 C439 0.930 . S
H431 C444 0.929 1_565 S
H432 C442 0.929 . S
H433 C437 0.929 1_565 S
H434 C443 0.929 . S
C435 H429 0.930 . S
C435 C436 1.367 . S
C435 C443 1.378 . S
C436 C435 1.367 . S
C436 C444 1.433 . S
C437 H433 0.929 1_545 S
C437 C439 1.378 . S
C437 C441 1.350 . S
C438 C441 1.463 . S
C438 C443 1.350 . S
C438 N446 1.427 . S
C439 H430 0.930 . S
C439 C437 1.378 . S
C439 C440 1.367 . S
C440 C439 1.367 . S
C440 C442 1.433 . S
C441 C437 1.350 . S
C441 C438 1.463 . S
C441 N445 1.427 . S
C442 H432 0.929 . S
C442 C440 1.433 . S
C442 N445 1.384 . S
C443 H434 0.929 . S
C443 C435 1.378 . S
C443 C438 1.350 . S
C444 H431 0.929 1_545 S
C444 C436 1.433 . S
C444 N446 1.384 . S
N445 C441 1.427 . S
N445 C442 1.384 . S
N446 C438 1.427 . S
N446 C444 1.384 . S
H447 C453 0.930 . S
H448 C457 0.930 . S
H449 C462 0.929 . S
H450 C460 0.929 . S
H451 C455 0.929 . S
H452 C461 0.929 . S
C453 H447 0.930 . S
C453 C454 1.367 . S
C453 C461 1.378 . S
C454 C453 1.367 . S
C454 C462 1.433 . S
C455 H451 0.929 . S
C455 C457 1.378 . S
C455 C459 1.350 . S
C456 C459 1.463 . S
C456 C461 1.350 . S
C456 N464 1.427 . S
C457 H448 0.930 . S
C457 C455 1.378 . S
C457 C458 1.367 . S
C458 C457 1.367 . S
C458 C460 1.433 . S
C459 C455 1.350 . S
C459 C456 1.463 . S
C459 N463 1.427 . S
C460 H450 0.929 . S
C460 C458 1.433 . S
C460 N463 1.384 . S
C461 H452 0.929 . S
C461 C453 1.378 . S
C461 C456 1.350 . S
C462 H449 0.929 . S
C462 C454 1.433 . S
C462 N464 1.384 . S
N463 C459 1.427 . S
N463 C460 1.384 . S
N464 C456 1.427 . S
N464 C462 1.384 . S
H465 C471 0.930 . S
H466 C475 0.930 . S
H467 C480 0.929 . S
H468 C478 0.929 . S
H469 C473 0.929 . S
H470 C479 0.929 . S
C471 H465 0.930 . S
C471 C472 1.367 1_655 S
C471 C479 1.378 . S
C472 C471 1.367 1_455 S
C472 C480 1.433 . S
C473 H469 0.929 . S
C473 C475 1.378 . S
C473 C477 1.350 . S
C474 C477 1.463 . S
C474 C479 1.350 1_455 S
C474 N482 1.427 . S
C475 H466 0.930 . S
C475 C473 1.378 . S
C475 C476 1.367 . S
C476 C475 1.367 . S
C476 C478 1.433 1_455 S
C477 C473 1.350 . S
C477 C474 1.463 . S
C477 N481 1.427 1_455 S
C478 H468 0.929 . S
C478 C476 1.433 1_655 S
C478 N481 1.384 . S
C479 H470 0.929 . S
C479 C471 1.378 . S
C479 C474 1.350 1_655 S
C480 H467 0.929 . S
C480 C472 1.433 . S
C480 N482 1.384 . S
N481 C477 1.427 1_655 S
N481 C478 1.384 . S
N482 C474 1.427 . S
N482 C480 1.384 . S
C278 C130 1.484 . S
C274 C14 1.430 . S
C292 C40 1.490 . S
C296 C200 1.507 . S
C310 C76 1.465 . S
C314 C252 1.479 . S
C328 C3 1.469 . S
C332 C146 1.466 . S
C350 C190 1.503 . S
C346 C38 1.493 . S
C364 C74 1.458 . S
C368 C236 1.476 . S
C386 C183 1.464 . S
C382 C86 1.418 . S
C400 C2 1.456 1_655 S
C404 C243 1.475 . S
C422 C137 1.462 . S
C418 C39 1.463 . S
C440 C199 1.471 . S
C436 C75 1.476 . S
C458 C253 1.483 . S
C454 C4 1.466 1_556 S
C472 C50 1.430 . S
C476 C147 1.481 . S
