# Generated by pormake.
# Topology pyr, (3,6)-cn, num edge types: 1
# Building blocks:
#     Node 0, Type 0, BuildingBlock: OLANEW_clean_sbu_2, # of connection points: 3
#     Node 1, Type 0, BuildingBlock: OLANEW_clean_sbu_2, # of connection points: 3
#     Node 2, Type 0, BuildingBlock: OLANEW_clean_sbu_2, # of connection points: 3
#     Node 3, Type 0, BuildingBlock: OLANEW_clean_sbu_2, # of connection points: 3
#     Node 4, Type 0, BuildingBlock: OLANEW_clean_sbu_2, # of connection points: 3
#     Node 5, Type 0, BuildingBlock: OLANEW_clean_sbu_2, # of connection points: 3
#     Node 6, Type 0, BuildingBlock: OLANEW_clean_sbu_2, # of connection points: 3
#     Node 7, Type 0, BuildingBlock: OLANEW_clean_sbu_2, # of connection points: 3
#     Node 8, Type 1, BuildingBlock: BETGAK_clean_sbu_0, # of connection points: 6
#     Node 9, Type 1, BuildingBlock: BETGAK_clean_sbu_0, # of connection points: 6
#     Node 10, Type 1, BuildingBlock: BETGAK_clean_sbu_0, # of connection points: 6
#     Node 11, Type 1, BuildingBlock: BETGAK_clean_sbu_0, # of connection points: 6
#     Edge 12, Type (0, 1), BuildingBlock: EYOCIG_clean_linker_4, # of connection points: 2
#     Edge 13, Type (0, 1), BuildingBlock: EYOCIG_clean_linker_4, # of connection points: 2
#     Edge 14, Type (0, 1), BuildingBlock: EYOCIG_clean_linker_4, # of connection points: 2
#     Edge 15, Type (0, 1), BuildingBlock: EYOCIG_clean_linker_4, # of connection points: 2
#     Edge 16, Type (0, 1), BuildingBlock: EYOCIG_clean_linker_4, # of connection points: 2
#     Edge 17, Type (0, 1), BuildingBlock: EYOCIG_clean_linker_4, # of connection points: 2
#     Edge 18, Type (0, 1), BuildingBlock: EYOCIG_clean_linker_4, # of connection points: 2
#     Edge 19, Type (0, 1), BuildingBlock: EYOCIG_clean_linker_4, # of connection points: 2
#     Edge 20, Type (0, 1), BuildingBlock: EYOCIG_clean_linker_4, # of connection points: 2
#     Edge 21, Type (0, 1), BuildingBlock: EYOCIG_clean_linker_4, # of connection points: 2
#     Edge 22, Type (0, 1), BuildingBlock: EYOCIG_clean_linker_4, # of connection points: 2
#     Edge 23, Type (0, 1), BuildingBlock: EYOCIG_clean_linker_4, # of connection points: 2
#     Edge 24, Type (0, 1), BuildingBlock: EYOCIG_clean_linker_4, # of connection points: 2
#     Edge 25, Type (0, 1), BuildingBlock: EYOCIG_clean_linker_4, # of connection points: 2
#     Edge 26, Type (0, 1), BuildingBlock: EYOCIG_clean_linker_4, # of connection points: 2
#     Edge 27, Type (0, 1), BuildingBlock: EYOCIG_clean_linker_4, # of connection points: 2
#     Edge 28, Type (0, 1), BuildingBlock: EYOCIG_clean_linker_4, # of connection points: 2
#     Edge 29, Type (0, 1), BuildingBlock: EYOCIG_clean_linker_4, # of connection points: 2
#     Edge 30, Type (0, 1), BuildingBlock: EYOCIG_clean_linker_4, # of connection points: 2
#     Edge 31, Type (0, 1), BuildingBlock: EYOCIG_clean_linker_4, # of connection points: 2
#     Edge 32, Type (0, 1), BuildingBlock: EYOCIG_clean_linker_4, # of connection points: 2
#     Edge 33, Type (0, 1), BuildingBlock: EYOCIG_clean_linker_4, # of connection points: 2
#     Edge 34, Type (0, 1), BuildingBlock: EYOCIG_clean_linker_4, # of connection points: 2
#     Edge 35, Type (0, 1), BuildingBlock: EYOCIG_clean_linker_4, # of connection points: 2
# Relax obj value: 0.172
# Max RMSD: 0.176
# Mean RMSD: 0.123
data_MOF--net-pyr--node1-OLANEW_clean_sbu_2--node2-BETGAK_clean_sbu_0--edge1-EYOCIG_clean_linker_4
_symmetry_space_group_name_H-M    P1
_symmetry_Int_Tables_number       1
_symmetry_cell_setting            triclinic
loop_
_symmetry_equiv_pos_as_xyz
'x, y, z'
_cell_length_a     33.241954
_cell_length_b     36.347955
_cell_length_c     31.705774
_cell_angle_alpha  94.87279
_cell_angle_beta   87.214969
_cell_angle_gamma 104.2587
loop_
_atom_site_label
_atom_site_type_symbol
_atom_site_fract_x
_atom_site_fract_y
_atom_site_fract_z
_atom_type_partial_charge
O0 O 0.41927 0.3096 0.22553 0.0
Cd1 Cd 0.38524 0.35532 0.26845 0.0
O2 O 0.36977 0.27433 0.26147 0.0
Cd3 Cd 0.32966 0.22396 0.28385 0.0
O4 O 0.30092 0.23763 0.34312 0.0
C5 C 0.32425 0.25103 0.37404 0.0
O6 O 0.36436 0.25395 0.37011 0.0
C7 C 0.40047 0.2767 0.23593 0.0
C8 C 0.32624 0.38945 0.23706 0.0
O9 O 0.36487 0.40647 0.23759 0.0
O10 O 0.3152 0.35567 0.24945 0.0
O11 O 0.26238 0.91413 0.707 0.0
Cd12 Cd 0.23073 0.86653 0.65355 0.0
O13 O 0.22262 0.89138 0.76125 0.0
Cd14 Cd 0.17671 0.85747 0.71887 0.0
O15 O 0.1658 0.88983 0.66932 0.0
C16 C 0.16893 0.92322 0.68584 0.0
O17 O 0.1711 0.93015 0.727 0.0
C18 C 0.25422 0.91429 0.74632 0.0
C19 C 0.29221 0.82883 0.63232 0.0
O20 O 0.29855 0.86474 0.63139 0.0
O21 O 0.25604 0.8094 0.64276 0.0
O22 O 0.75449 0.44485 0.89452 0.0
Cd23 Cd 0.68685 0.43366 0.8506 0.0
O24 O 0.74948 0.39567 0.93486 0.0
Cd25 Cd 0.6932 0.34586 0.93151 0.0
O26 O 0.6459 0.29263 0.9488 0.0
C27 C 0.65334 0.27322 0.97796 0.0
O28 O 0.68894 0.28412 0.99696 0.0
C29 C 0.7693 0.42807 0.92239 0.0
C30 C 0.65629 0.47142 0.78602 0.0
O31 O 0.66338 0.48708 0.82356 0.0
O32 O 0.66558 0.43938 0.77731 0.0
O33 O 0.94272 0.78983 0.4223 0.0
Cd34 Cd 0.92299 0.7249 0.37425 0.0
O35 O 0.9104 0.77843 0.48491 0.0
Cd36 Cd 0.87909 0.71935 0.47113 0.0
O37 O 0.82015 0.67738 0.47137 0.0
C38 C 0.79401 0.6842 0.49954 0.0
O39 O 0.80433 0.71395 0.52683 0.0
C40 C 0.93343 0.80121 0.46045 0.0
C41 C 0.94882 0.68526 0.2965 0.0
O42 O 0.94065 0.71796 0.29624 0.0
O43 O 0.94721 0.67171 0.33278 0.0
O44 O 0.67516 0.77771 0.81423 0.0
Cd45 Cd 0.64671 0.74453 0.87493 0.0
O46 O 0.66004 0.81946 0.86107 0.0
Cd47 Cd 0.66297 0.87334 0.89389 0.0
O48 O 0.62462 0.89697 0.93808 0.0
C49 C 0.59008 0.90049 0.9263 0.0
O50 O 0.57817 0.88989 0.88736 0.0
C51 C 0.67865 0.81205 0.82695 0.0
C52 C 0.71428 0.72044 0.89687 0.0
O53 O 0.68755 0.70016 0.87134 0.0
O54 O 0.70832 0.75182 0.91438 0.0
O55 O 0.76738 0.18793 0.46489 0.0
Cd56 Cd 0.80421 0.21963 0.52442 0.0
O57 O 0.78916 0.2405 0.4312 0.0
Cd58 Cd 0.83579 0.27757 0.47112 0.0
O59 O 0.79786 0.30379 0.51611 0.0
C60 C 0.76417 0.30707 0.50138 0.0
O61 O 0.75695 0.29908 0.46091 0.0
C62 C 0.76591 0.20737 0.43413 0.0
C63 C 0.868 0.1884 0.53645 0.0
O64 O 0.83094 0.1712 0.54707 0.0
O65 O 0.87492 0.22022 0.51972 0.0
O66 O 0.43343 0.82775 0.26045 0.0
Cd67 Cd 0.42829 0.764 0.30145 0.0
O68 O 0.37588 0.82316 0.22401 0.0
Cd69 Cd 0.33234 0.76735 0.23194 0.0
O70 O 0.28167 0.71838 0.20954 0.0
C71 C 0.25847 0.72476 0.18162 0.0
O72 O 0.26462 0.75925 0.16919 0.0
C73 C 0.41195 0.8417 0.23555 0.0
C74 C 0.45174 0.71431 0.36073 0.0
O75 O 0.47802 0.73172 0.33356 0.0
O76 O 0.41555 0.72104 0.36201 0.0
O77 O 0.1804 0.47128 0.80254 0.0
Cd78 Cd 0.21137 0.44449 0.736 0.0
O79 O 0.13552 0.41771 0.81848 0.0
Cd80 Cd 0.15054 0.37554 0.7692 0.0
O81 O 0.1448 0.31956 0.73296 0.0
C82 C 0.11031 0.29527 0.73718 0.0
O83 O 0.08071 0.30456 0.7614 0.0
C84 C 0.15098 0.45329 0.82616 0.0
C85 C 0.28839 0.47864 0.69588 0.0
O86 O 0.25573 0.49033 0.69074 0.0
O87 O 0.28572 0.45243 0.72119 0.0
La88 La 0.03922 0.06083 0.57157 0.0
La89 La 0.98698 0.03389 0.64742 0.0
C90 C 0.08041 0.09716 0.51381 0.0
C91 C 0.11585 0.13074 0.51255 0.0
C92 C 0.15653 0.1259 0.50668 0.0
C93 C 0.18947 0.15697 0.49932 0.0
C94 C 0.18218 0.19318 0.49824 0.0
C95 C 0.14233 0.19867 0.50648 0.0
C96 C 0.10926 0.16757 0.51376 0.0
C97 C 0.07399 0.02892 0.62444 0.0
C98 C 0.03992 0.11788 0.65364 0.0
C99 C 0.95196 1.00176 0.71059 0.0
C100 C 0.9147 0.97164 0.71824 0.0
C101 C 0.87612 0.98082 0.7252 0.0
C102 C 0.84121 0.953 0.73538 0.0
C103 C 0.84438 0.91586 0.73873 0.0
C104 C 0.8823 0.90598 0.73102 0.0
C105 C 0.91753 0.93394 0.72074 0.0
C106 C 0.95158 0.06642 0.59523 0.0
C107 C 0.98643 0.97708 0.563 0.0
O108 O 0.08837 0.06673 0.5272 0.0
O109 O 0.04459 0.10266 0.52858 0.0
O110 O 0.07938 1.02516 0.58407 0.0
O111 O 0.05158 0.05118 0.63482 0.0
O112 O 0.04588 0.11386 0.61224 0.0
O113 O 0.02291 0.08841 0.67574 0.0
O114 O 0.94523 0.03315 0.69838 0.0
O115 O 0.98314 0.99175 0.68971 0.0
O116 O 0.9429 0.0667 0.63523 0.0
O117 O 0.97519 0.04508 0.58541 0.0
O118 O 0.97893 0.98074 0.60466 0.0
O119 O 0.00452 1.00682 0.54159 0.0
H120 H 0.1627 0.09793 0.50584 0.0
H121 H 0.22027 0.15245 0.49266 0.0
H122 H 0.13643 0.22657 0.50524 0.0
H123 H 0.07834 0.17219 0.51847 0.0
H124 H 0.87291 1.00963 0.7238 0.0
H125 H 0.81187 0.96073 0.74174 0.0
H126 H 0.88488 0.87719 0.73408 0.0
H127 H 0.947 0.92631 0.71573 0.0
La128 La 0.52987 0.07982 0.13913 0.0
La129 La 0.4588 0.06155 0.07306 0.0
C130 C 0.59195 0.1162 0.17762 0.0
C131 C 0.59753 0.13513 0.22003 0.0
C132 C 0.59799 0.11419 0.25513 0.0
C133 C 0.61089 0.13321 0.2937 0.0
C134 C 0.62271 0.17295 0.29727 0.0
C135 C 0.61799 0.19399 0.26392 0.0
C136 C 0.60544 0.17502 0.22513 0.0
C137 C 0.47471 1.01599 0.15812 0.0
C138 C 0.45409 0.11899 0.15243 0.0
C139 C 0.39871 0.02937 1.02896 0.0
C140 C 0.39548 1.01249 0.98531 0.0
C141 C 0.39672 0.03546 0.95154 0.0
C142 C 0.38597 1.0187 0.91147 0.0
C143 C 0.37427 0.97916 0.90498 0.0
C144 C 0.37686 0.95601 0.93718 0.0
C145 C 0.38765 0.97276 0.97745 0.0
C146 C 0.52161 0.11862 0.05097 0.0
C147 C 0.5372 1.02807 0.05687 0.0
O148 O 0.58069 0.07884 0.17473 0.0
O149 O 0.57209 0.13165 0.15215 0.0
O150 O 0.50694 0.03274 0.17984 0.0
O151 O 0.473 0.03753 0.12871 0.0
O152 O 0.48982 0.11543 0.16595 0.0
O153 O 0.43435 0.09831 0.1199 0.0
O154 O 0.41212 0.0665 0.03388 0.0
O155 O 0.41459 1.01162 0.05573 0.0
O156 O 0.48909 0.10511 1.02861 0.0
O157 O 0.51698 0.09883 0.08219 0.0
O158 O 0.49903 1.02702 0.0465 0.0
O159 O 0.55733 0.04963 0.08846 0.0
H160 H 0.59116 0.08338 0.25228 0.0
H161 H 0.61489 0.11692 0.31963 0.0
H162 H 0.62769 0.22482 0.26659 0.0
H163 H 0.60461 0.19162 0.19852 0.0
H164 H 0.40341 0.06619 0.95642 0.0
H165 H 0.38389 0.03657 0.88634 0.0
H166 H 0.36764 0.92526 0.93209 0.0
H167 H 0.38727 0.95457 1.00289 0.0
La168 La 0.53923 0.53891 0.54182 0.0
La169 La 0.53128 0.60759 0.59711 0.0
C170 C 0.57416 0.48929 0.50757 0.0
C171 C 0.59202 0.45877 0.52145 0.0
C172 C 0.56797 0.42102 0.52183 0.0
C173 C 0.58606 0.39166 0.53065 0.0
C174 C 0.62836 0.39974 0.53919 0.0
C175 C 0.65234 0.43724 0.53976 0.0
C176 C 0.63436 0.46657 0.53112 0.0
C177 C 0.46695 0.532 0.58201 0.0
C178 C 0.56867 0.55026 0.63945 0.0
C179 C 0.50036 0.65772 0.63476 0.0
C180 C 0.48239 0.6879 0.62158 0.0
C181 C 0.50615 0.72579 0.62195 0.0
C182 C 0.48734 0.755 0.6147 0.0
C183 C 0.44482 0.74621 0.60709 0.0
C184 C 0.42171 0.70846 0.60431 0.0
C185 C 0.44029 0.67944 0.61142 0.0
C186 C 0.60335 0.61298 0.55886 0.0
C187 C 0.50563 0.60057 0.4988 0.0
O188 O 0.53373 0.48448 0.51049 0.0
O189 O 0.59382 0.52436 0.51878 0.0
O190 O 0.47187 0.51508 0.54505 0.0
O191 O 0.50192 0.54867 0.59638 0.0
O192 O 0.56835 0.53224 0.60127 0.0
O193 O 0.55175 0.57952 0.64719 0.0
O194 O 0.54042 0.6621 0.62823 0.0
O195 O 0.47922 0.62261 0.62556 0.0
O196 O 0.59855 0.62978 0.59579 0.0
O197 O 0.56871 0.59741 0.54344 0.0
O198 O 0.5044 0.61725 0.53757 0.0
O199 O 0.52141 0.57016 0.49139 0.0
H200 H 0.53545 0.41398 0.51414 0.0
H201 H 0.56736 0.36262 0.52946 0.0
H202 H 0.68528 0.44373 0.54579 0.0
H203 H 0.65398 0.49517 0.53078 0.0
H204 H 0.53872 0.73301 0.62954 0.0
H205 H 0.50535 0.78429 0.61717 0.0
H206 H 0.38869 0.70154 0.59859 0.0
H207 H 0.42112 0.65061 0.6107 0.0
La208 La 0.03536 0.52703 0.07659 0.0
La209 La 0.01731 0.59374 1.02477 0.0
C210 C 0.07757 0.4818 0.09439 0.0
C211 C 0.11366 0.48107 0.12065 0.0
C212 C 0.10851 0.47325 0.16366 0.0
C213 C 0.14103 0.4653 0.18535 0.0
C214 C 0.17925 0.46509 0.16446 0.0
C215 C 0.18545 0.47546 0.12265 0.0
C216 C 0.15312 0.4834 0.10101 0.0
C217 C 1.00298 0.57686 0.12693 0.0
C218 C 0.09814 0.61069 0.07861 0.0
C219 C 0.98228 0.64354 1.0065 0.0
C220 C 0.94595 0.64548 0.98257 0.0
C221 C 0.95001 0.65403 0.93984 0.0
C222 C 0.91667 0.66172 0.91981 0.0
C223 C 0.87922 0.66087 0.9424 0.0
C224 C 0.87434 0.65035 0.98402 0.0
C225 C 0.90738 0.64268 1.00398 0.0
C226 C 0.05582 0.54705 0.97756 0.0
C227 C 0.9524 0.51111 1.02107 0.0
O228 O 0.04171 0.4831 0.11331 0.0
O229 O 0.08573 0.50271 0.06183 0.0
O230 O 0.01142 0.54648 0.13931 0.0
O231 O 0.01196 0.57635 0.08759 0.0
O232 O 0.09024 0.57438 0.08665 0.0
O233 O 0.07355 0.62538 0.05679 0.0
O234 O 0.0148 0.63656 0.9851 0.0
O235 O 0.97406 0.62553 0.04125 0.0
O236 O 0.04795 0.57731 0.96428 0.0
O237 O 0.04106 0.54524 1.01492 0.0
O238 O 0.96141 0.54761 1.01311 0.0
O239 O 0.97709 0.49607 0.04346 0.0
H240 H 0.07881 0.47146 0.18 0.0
H241 H 0.13564 0.45762 0.21778 0.0
H242 H 0.21476 0.4757 0.10598 0.0
H243 H 0.15845 0.48944 0.06805 0.0
H244 H 0.97931 0.65633 0.92252 0.0
H245 H 0.9207 0.66983 0.88748 0.0
H246 H 0.84546 0.6496 1.00175 0.0
H247 H 0.90313 0.63622 0.03687 0.0
C248 C 0.28085 0.25604 0.44355 0.0
C249 C 0.3053 0.25588 0.4146 0.0
C250 C 0.24576 0.24336 0.46945 0.0
C251 C 0.21471 0.22318 0.4833 0.0
C252 C 0.30961 0.94748 0.80085 0.0
C253 C 0.28583 0.93349 0.77386 0.0
C254 C 0.33493 0.95595 0.83548 0.0
C255 C 0.35261 0.96355 0.86793 0.0
C256 C 0.62083 0.50383 0.72976 0.0
C257 C 0.63697 0.48879 0.75504 0.0
C258 C 0.60191 0.52153 0.70007 0.0
C259 C 0.58639 0.53575 0.67363 0.0
C260 C 0.96731 0.64655 0.22398 0.0
C261 C 0.95892 0.66407 0.25696 0.0
C262 C 0.97819 0.6254 0.18579 0.0
C263 C 0.98913 0.60576 0.15586 0.0
C264 C 0.42046 0.21318 0.20495 0.0
C265 C 0.41221 0.2427 0.21845 0.0
C266 C 0.42936 0.17867 0.18761 0.0
C267 C 0.43936 0.15108 0.17063 0.0
C268 C 0.15291 0.98038 0.65654 0.0
C269 C 0.1614 0.95155 0.66242 0.0
C270 C 0.12944 1.00678 0.65819 0.0
C271 C 0.10207 1.02053 0.65103 0.0
C272 C 0.84233 0.45871 0.9611 0.0
C273 C 0.80945 0.44629 0.94239 0.0
C274 C 0.88081 0.47318 0.98393 0.0
C275 C 0.91362 0.48745 1.0022 0.0
C276 C 0.71729 0.64363 0.50653 0.0
C277 C 0.75281 0.6605 0.50102 0.0
C278 C 0.67587 0.62849 0.51918 0.0
C279 C 0.64164 0.62001 0.53503 0.0
C280 C 0.26969 0.42329 0.21245 0.0
C281 C 0.29576 0.40818 0.22359 0.0
C282 C 0.23819 0.43945 0.19828 0.0
C283 C 0.21069 0.45095 0.18399 0.0
C284 C 0.60116 0.21225 1.00735 0.0
C285 C 0.62295 0.24017 0.99201 0.0
C286 C 0.5769 0.17967 1.02688 0.0
C287 C 0.55411 0.15182 0.04139 0.0
C288 C 0.95567 0.87258 0.49573 0.0
C289 C 0.94715 0.84095 0.47702 0.0
C290 C 0.96512 0.90895 0.51957 0.0
C291 C 0.97455 0.93969 0.54 0.0
C292 C 0.35737 0.80182 0.61398 0.0
C293 C 0.32595 0.81166 0.6227 0.0
C294 C 0.39466 0.79057 0.60791 0.0
C295 C 0.42245 0.77497 0.60751 0.0
C296 C 0.73771 0.85754 0.78693 0.0
C297 C 0.70957 0.84028 0.80773 0.0
C298 C 0.77534 0.87327 0.76661 0.0
C299 C 0.80867 0.88952 0.75352 0.0
C300 C 0.70181 0.19606 0.38762 0.0
C301 C 0.72984 0.19793 0.4102 0.0
C302 C 0.67113 0.19635 0.35983 0.0
C303 C 0.64899 0.19059 0.33051 0.0
C304 C 0.47134 0.66487 0.41131 0.0
C305 C 0.46228 0.68728 0.38843 0.0
C306 C 0.48284 0.63928 0.43883 0.0
C307 C 0.49372 0.61981 0.46394 0.0
C308 C 0.11722 0.48802 0.89182 0.0
C309 C 0.13345 0.47328 0.86168 0.0
C310 C 0.09652 0.50544 0.92603 0.0
C311 C 0.07791 0.52206 0.95247 0.0
C312 C 0.56303 0.94689 0.97945 0.0
C313 C 0.57092 0.92504 0.95214 0.0
C314 C 0.56111 0.97606 1.00997 0.0
C315 C 0.55545 1.00129 0.03404 0.0
C316 C 0.92461 0.15336 0.55002 0.0
C317 C 0.90108 0.1717 0.54262 0.0
C318 C 0.94264 0.12478 0.55968 0.0
C319 C 0.94913 0.09697 0.57212 0.0
C320 C 0.19831 0.67416 0.1421 0.0
C321 C 0.22636 0.69485 0.16206 0.0
C322 C 0.16429 0.65332 0.11761 0.0
C323 C 0.1338 0.63562 0.09887 0.0
C324 C 0.35902 0.50454 0.65247 0.0
C325 C 0.32661 0.49305 0.672 0.0
C326 C 0.39684 0.51575 0.62846 0.0
C327 C 0.429 0.52338 0.60762 0.0
C328 C 0.78126 0.69708 0.90919 0.0
C329 C 0.75099 0.70851 0.90422 0.0
C330 C 0.81666 0.68392 0.91565 0.0
C331 C 0.84662 0.67385 0.92506 0.0
C332 C 0.43546 0.90915 0.19991 0.0
C333 C 0.42792 0.8792 0.21778 0.0
C334 C 0.4431 0.94456 0.17894 0.0
C335 C 0.45297 0.97611 0.16446 0.0
C336 C 0.09125 0.22463 0.70311 0.0
C337 C 0.10314 0.25731 0.71702 0.0
C338 C 0.07328 0.18646 0.68866 0.0
C339 C 0.05736 0.15447 0.67484 0.0
C340 C 0.70447 0.33138 0.54193 0.0
C341 C 0.73403 0.32051 0.52779 0.0
C342 C 0.67158 0.3494 0.54724 0.0
C343 C 0.64865 0.36976 0.54353 0.0
loop_
_geom_bond_atom_site_label_1
_geom_bond_atom_site_label_2
_geom_bond_distance
_geom_bond_site_symmetry_2
_ccdc_geom_bond_type
O0 Cd1 2.300 . S
O0 C7 1.275 . S
Cd1 O0 2.300 . S
Cd1 O9 2.381 . S
Cd1 O10 2.378 . S
O2 Cd3 2.385 . S
O2 C7 1.255 . S
Cd3 O2 2.385 . S
Cd3 O4 2.317 . S
O4 Cd3 2.317 . S
O4 C5 1.232 . S
C5 O4 1.232 . S
C5 O6 1.218 . S
O6 C5 1.218 . S
C7 O0 1.275 . S
C7 O2 1.255 . S
C8 O9 1.258 . S
C8 O10 1.256 . S
O9 Cd1 2.381 . S
O9 C8 1.258 . S
O10 Cd1 2.378 . S
O10 C8 1.256 . S
O11 Cd12 2.300 . S
O11 C18 1.275 . S
Cd12 O11 2.300 . S
Cd12 O20 2.381 . S
Cd12 O21 2.378 . S
O13 Cd14 2.385 . S
O13 C18 1.255 . S
Cd14 O13 2.385 . S
Cd14 O15 2.317 . S
O15 Cd14 2.317 . S
O15 C16 1.232 . S
C16 O15 1.232 . S
C16 O17 1.218 . S
O17 C16 1.218 . S
C18 O11 1.275 . S
C18 O13 1.255 . S
C19 O20 1.258 . S
C19 O21 1.256 . S
O20 Cd12 2.381 . S
O20 C19 1.258 . S
O21 Cd12 2.378 . S
O21 C19 1.256 . S
O22 Cd23 2.300 . S
O22 C29 1.275 . S
Cd23 O22 2.300 . S
Cd23 O31 2.381 . S
Cd23 O32 2.378 . S
O24 Cd25 2.385 . S
O24 C29 1.255 . S
Cd25 O24 2.385 . S
Cd25 O26 2.317 . S
O26 Cd25 2.317 . S
O26 C27 1.232 . S
C27 O26 1.232 . S
C27 O28 1.218 . S
O28 C27 1.218 . S
C29 O22 1.275 . S
C29 O24 1.255 . S
C30 O31 1.258 . S
C30 O32 1.256 . S
O31 Cd23 2.381 . S
O31 C30 1.258 . S
O32 Cd23 2.378 . S
O32 C30 1.256 . S
O33 Cd34 2.300 . S
O33 C40 1.275 . S
Cd34 O33 2.300 . S
Cd34 O42 2.381 . S
Cd34 O43 2.378 . S
O35 Cd36 2.385 . S
O35 C40 1.255 . S
Cd36 O35 2.385 . S
Cd36 O37 2.317 . S
O37 Cd36 2.317 . S
O37 C38 1.232 . S
C38 O37 1.232 . S
C38 O39 1.218 . S
O39 C38 1.218 . S
C40 O33 1.275 . S
C40 O35 1.255 . S
C41 O42 1.258 . S
C41 O43 1.256 . S
O42 Cd34 2.381 . S
O42 C41 1.258 . S
O43 Cd34 2.378 . S
O43 C41 1.256 . S
O44 Cd45 2.300 . S
O44 C51 1.275 . S
Cd45 O44 2.300 . S
Cd45 O53 2.381 . S
Cd45 O54 2.378 . S
O46 Cd47 2.385 . S
O46 C51 1.255 . S
Cd47 O46 2.385 . S
Cd47 O48 2.317 . S
O48 Cd47 2.317 . S
O48 C49 1.232 . S
C49 O48 1.232 . S
C49 O50 1.218 . S
O50 C49 1.218 . S
C51 O44 1.275 . S
C51 O46 1.255 . S
C52 O53 1.258 . S
C52 O54 1.256 . S
O53 Cd45 2.381 . S
O53 C52 1.258 . S
O54 Cd45 2.378 . S
O54 C52 1.256 . S
O55 Cd56 2.300 . S
O55 C62 1.275 . S
Cd56 O55 2.300 . S
Cd56 O64 2.381 . S
Cd56 O65 2.378 . S
O57 Cd58 2.385 . S
O57 C62 1.255 . S
Cd58 O57 2.385 . S
Cd58 O59 2.317 . S
O59 Cd58 2.317 . S
O59 C60 1.232 . S
C60 O59 1.232 . S
C60 O61 1.218 . S
O61 C60 1.218 . S
C62 O55 1.275 . S
C62 O57 1.255 . S
C63 O64 1.258 . S
C63 O65 1.256 . S
O64 Cd56 2.381 . S
O64 C63 1.258 . S
O65 Cd56 2.378 . S
O65 C63 1.256 . S
O66 Cd67 2.300 . S
O66 C73 1.275 . S
Cd67 O66 2.300 . S
Cd67 O75 2.381 . S
Cd67 O76 2.378 . S
O68 Cd69 2.385 . S
O68 C73 1.255 . S
Cd69 O68 2.385 . S
Cd69 O70 2.317 . S
O70 Cd69 2.317 . S
O70 C71 1.232 . S
C71 O70 1.232 . S
C71 O72 1.218 . S
O72 C71 1.218 . S
C73 O66 1.275 . S
C73 O68 1.255 . S
C74 O75 1.258 . S
C74 O76 1.256 . S
O75 Cd67 2.381 . S
O75 C74 1.258 . S
O76 Cd67 2.378 . S
O76 C74 1.256 . S
O77 Cd78 2.300 . S
O77 C84 1.275 . S
Cd78 O77 2.300 . S
Cd78 O86 2.381 . S
Cd78 O87 2.378 . S
O79 Cd80 2.385 . S
O79 C84 1.255 . S
Cd80 O79 2.385 . S
Cd80 O81 2.317 . S
O81 Cd80 2.317 . S
O81 C82 1.232 . S
C82 O81 1.232 . S
C82 O83 1.218 . S
O83 C82 1.218 . S
C84 O77 1.275 . S
C84 O79 1.255 . S
C85 O86 1.258 . S
C85 O87 1.256 . S
O86 Cd78 2.381 . S
O86 C85 1.258 . S
O87 Cd78 2.378 . S
O87 C85 1.256 . S
La88 C90 2.928 . S
La88 O108 2.521 . S
La88 O109 2.628 . S
La88 O110 2.554 . S
La88 O111 2.741 1_545 S
La88 O112 2.470 . S
La88 O117 2.482 1_455 S
La88 O119 2.503 1_445 S
La89 C99 2.928 1_545 S
La89 O111 2.468 1_645 S
La89 O113 2.503 1_655 S
La89 O114 2.521 1_545 S
La89 O115 2.628 1_545 S
La89 O116 2.554 . S
La89 O117 2.757 . S
La89 O118 2.470 1_545 S
C90 La88 2.928 . S
C90 C91 1.503 . S
C90 O108 1.261 . S
C90 O109 1.243 . S
C91 C90 1.503 . S
C91 C92 1.394 . S
C91 C96 1.373 . S
C92 C91 1.394 . S
C92 C93 1.380 . S
C92 H120 0.930 . S
C93 C92 1.380 . S
C93 C94 1.376 . S
C93 H121 0.930 . S
C94 C93 1.376 . S
C94 C95 1.370 . S
C95 C94 1.370 . S
C95 C96 1.396 . S
C95 H122 0.929 . S
C96 C91 1.373 . S
C96 C95 1.396 . S
C96 H123 0.929 . S
C97 O110 1.240 1_565 S
C97 O111 1.301 . S
C98 O112 1.258 . S
C98 O113 1.256 . S
C99 La89 2.928 1_565 S
C99 C100 1.503 . S
C99 O114 1.261 . S
C99 O115 1.243 . S
C100 C99 1.503 . S
C100 C101 1.394 . S
C100 C105 1.373 . S
C101 C100 1.394 . S
C101 C102 1.380 . S
C101 H124 0.930 . S
C102 C101 1.380 . S
C102 C103 1.376 . S
C102 H125 0.930 . S
C103 C102 1.376 . S
C103 C104 1.370 . S
C104 C103 1.370 . S
C104 C105 1.396 . S
C104 H126 0.929 . S
C105 C100 1.373 . S
C105 C104 1.396 . S
C105 H127 0.929 . S
C106 O116 1.240 . S
C106 O117 1.289 . S
C107 O118 1.258 . S
C107 O119 1.256 . S
O108 La88 2.521 . S
O108 C90 1.261 . S
O109 La88 2.628 . S
O109 C90 1.243 . S
O110 La88 2.554 . S
O110 C97 1.240 1_545 S
O111 La88 2.741 1_565 S
O111 La89 2.468 1_465 S
O111 C97 1.301 . S
O112 La88 2.470 . S
O112 C98 1.258 . S
O113 La89 2.503 1_455 S
O113 C98 1.256 . S
O114 La89 2.521 1_565 S
O114 C99 1.261 . S
O115 La89 2.628 1_565 S
O115 C99 1.243 . S
O116 La89 2.554 . S
O116 C106 1.240 . S
O117 La88 2.482 1_655 S
O117 La89 2.757 . S
O117 C106 1.289 . S
O118 La89 2.470 1_565 S
O118 C107 1.258 . S
O119 La88 2.503 1_665 S
O119 C107 1.256 . S
H120 C92 0.930 . S
H121 C93 0.930 . S
H122 C95 0.929 . S
H123 C96 0.929 . S
H124 C101 0.930 . S
H125 C102 0.930 . S
H126 C104 0.929 . S
H127 C105 0.929 . S
La128 C130 2.928 . S
La128 O148 2.521 . S
La128 O149 2.628 . S
La128 O150 2.554 1_545 S
La128 O151 2.757 . S
La128 O152 2.470 . S
La128 O157 2.482 . S
La128 O159 2.503 . S
La129 C139 2.928 1_544 S
La129 O151 2.482 . S
La129 O153 2.503 . S
La129 O154 2.521 1_554 S
La129 O155 2.628 1_544 S
La129 O156 2.554 . S
La129 O157 2.757 . S
La129 O158 2.466 1_554 S
C130 La128 2.928 . S
C130 C131 1.503 . S
C130 O148 1.261 . S
C130 O149 1.243 . S
C131 C130 1.503 . S
C131 C132 1.394 . S
C131 C136 1.373 . S
C132 C131 1.394 . S
C132 C133 1.380 . S
C132 H160 0.930 . S
C133 C132 1.380 . S
C133 C134 1.376 . S
C133 H161 0.930 . S
C134 C133 1.376 . S
C134 C135 1.370 . S
C135 C134 1.370 . S
C135 C136 1.396 . S
C135 H162 0.929 . S
C136 C131 1.373 . S
C136 C135 1.396 . S
C136 H163 0.929 . S
C137 O150 1.240 . S
C137 O151 1.289 1_565 S
C138 O152 1.258 . S
C138 O153 1.256 . S
C139 La129 2.928 1_566 S
C139 C140 1.503 . S
C139 O154 1.261 1_565 S
C139 O155 1.243 . S
C140 C139 1.503 . S
C140 C141 1.394 . S
C140 C145 1.373 . S
C141 C140 1.394 . S
C141 C142 1.380 . S
C141 H164 0.930 1_565 S
C142 C141 1.380 . S
C142 C143 1.376 . S
C142 H165 0.930 . S
C143 C142 1.376 . S
C143 C144 1.370 . S
C144 C143 1.370 . S
C144 C145 1.396 . S
C144 H166 0.929 . S
C145 C140 1.373 . S
C145 C144 1.396 . S
C145 H167 0.929 . S
C146 O156 1.240 . S
C146 O157 1.289 . S
C147 O158 1.254 1_554 S
C147 O159 1.256 . S
O148 La128 2.521 . S
O148 C130 1.261 . S
O149 La128 2.628 . S
O149 C130 1.243 . S
O150 La128 2.554 1_565 S
O150 C137 1.240 . S
O151 La128 2.757 . S
O151 La129 2.482 . S
O151 C137 1.289 1_545 S
O152 La128 2.470 . S
O152 C138 1.258 . S
O153 La129 2.503 . S
O153 C138 1.256 . S
O154 La129 2.521 1_556 S
O154 C139 1.261 1_545 S
O155 La129 2.628 1_566 S
O155 C139 1.243 . S
O156 La129 2.554 . S
O156 C146 1.240 . S
O157 La128 2.482 . S
O157 La129 2.757 . S
O157 C146 1.289 . S
O158 La129 2.466 1_556 S
O158 C147 1.254 1_556 S
O159 La128 2.503 . S
O159 C147 1.256 . S
H160 C132 0.930 . S
H161 C133 0.930 . S
H162 C135 0.929 . S
H163 C136 0.929 . S
H164 C141 0.930 1_545 S
H165 C142 0.930 . S
H166 C144 0.929 . S
H167 C145 0.929 . S
La168 C170 2.928 . S
La168 O188 2.521 . S
La168 O189 2.628 . S
La168 O190 2.554 . S
La168 O191 2.757 . S
La168 O192 2.470 . S
La168 O197 2.482 . S
La168 O199 2.503 . S
La169 C179 2.928 . S
La169 O191 2.482 . S
La169 O193 2.503 . S
La169 O194 2.521 . S
La169 O195 2.628 . S
La169 O196 2.554 . S
La169 O197 2.757 . S
La169 O198 2.470 . S
C170 La168 2.928 . S
C170 C171 1.503 . S
C170 O188 1.261 . S
C170 O189 1.243 . S
C171 C170 1.503 . S
C171 C172 1.394 . S
C171 C176 1.373 . S
C172 C171 1.394 . S
C172 C173 1.380 . S
C172 H200 0.930 . S
C173 C172 1.380 . S
C173 C174 1.376 . S
C173 H201 0.930 . S
C174 C173 1.376 . S
C174 C175 1.370 . S
C175 C174 1.370 . S
C175 C176 1.396 . S
C175 H202 0.929 . S
C176 C171 1.373 . S
C176 C175 1.396 . S
C176 H203 0.929 . S
C177 O190 1.240 . S
C177 O191 1.289 . S
C178 O192 1.258 . S
C178 O193 1.256 . S
C179 La169 2.928 . S
C179 C180 1.503 . S
C179 O194 1.261 . S
C179 O195 1.243 . S
C180 C179 1.503 . S
C180 C181 1.394 . S
C180 C185 1.373 . S
C181 C180 1.394 . S
C181 C182 1.380 . S
C181 H204 0.930 . S
C182 C181 1.380 . S
C182 C183 1.376 . S
C182 H205 0.930 . S
C183 C182 1.376 . S
C183 C184 1.370 . S
C184 C183 1.370 . S
C184 C185 1.396 . S
C184 H206 0.929 . S
C185 C180 1.373 . S
C185 C184 1.396 . S
C185 H207 0.929 . S
C186 O196 1.240 . S
C186 O197 1.289 . S
C187 O198 1.258 . S
C187 O199 1.256 . S
O188 La168 2.521 . S
O188 C170 1.261 . S
O189 La168 2.628 . S
O189 C170 1.243 . S
O190 La168 2.554 . S
O190 C177 1.240 . S
O191 La168 2.757 . S
O191 La169 2.482 . S
O191 C177 1.289 . S
O192 La168 2.470 . S
O192 C178 1.258 . S
O193 La169 2.503 . S
O193 C178 1.256 . S
O194 La169 2.521 . S
O194 C179 1.261 . S
O195 La169 2.628 . S
O195 C179 1.243 . S
O196 La169 2.554 . S
O196 C186 1.240 . S
O197 La168 2.482 . S
O197 La169 2.757 . S
O197 C186 1.289 . S
O198 La169 2.470 . S
O198 C187 1.258 . S
O199 La168 2.503 . S
O199 C187 1.256 . S
H200 C172 0.930 . S
H201 C173 0.930 . S
H202 C175 0.929 . S
H203 C176 0.929 . S
H204 C181 0.930 . S
H205 C182 0.930 . S
H206 C184 0.929 . S
H207 C185 0.929 . S
La208 C210 2.928 . S
La208 O228 2.521 . S
La208 O229 2.628 . S
La208 O230 2.554 1_455 S
La208 O231 2.757 1_455 S
La208 O232 2.470 . S
La208 O237 2.482 1_554 S
La208 O239 2.503 1_455 S
La209 C219 2.928 1_455 S
La209 O231 2.482 1_456 S
La209 O233 2.503 1_556 S
La209 O234 2.521 1_455 S
La209 O235 2.628 1_455 S
La209 O236 2.554 . S
La209 O237 2.757 . S
La209 O238 2.470 1_455 S
C210 La208 2.928 . S
C210 C211 1.503 . S
C210 O228 1.261 . S
C210 O229 1.243 . S
C211 C210 1.503 . S
C211 C212 1.394 . S
C211 C216 1.373 . S
C212 C211 1.394 . S
C212 C213 1.380 . S
C212 H240 0.930 . S
C213 C212 1.380 . S
C213 C214 1.376 . S
C213 H241 0.930 . S
C214 C213 1.376 . S
C214 C215 1.370 . S
C215 C214 1.370 . S
C215 C216 1.396 . S
C215 H242 0.929 . S
C216 C211 1.373 . S
C216 C215 1.396 . S
C216 H243 0.929 . S
C217 O230 1.240 . S
C217 O231 1.289 . S
C218 O232 1.258 . S
C218 O233 1.256 . S
C219 La209 2.928 1_655 S
C219 C220 1.503 . S
C219 O234 1.261 . S
C219 O235 1.243 . S
C220 C219 1.503 . S
C220 C221 1.394 . S
C220 C225 1.373 . S
C221 C220 1.394 . S
C221 C222 1.380 . S
C221 H244 0.930 . S
C222 C221 1.380 . S
C222 C223 1.376 . S
C222 H245 0.930 . S
C223 C222 1.376 . S
C223 C224 1.370 . S
C224 C223 1.370 . S
C224 C225 1.396 . S
C224 H246 0.929 . S
C225 C220 1.373 . S
C225 C224 1.396 . S
C225 H247 0.929 . S
C226 O236 1.240 . S
C226 O237 1.289 . S
C227 O238 1.258 . S
C227 O239 1.256 1_556 S
O228 La208 2.521 . S
O228 C210 1.261 . S
O229 La208 2.628 . S
O229 C210 1.243 . S
O230 La208 2.554 1_655 S
O230 C217 1.240 . S
O231 La208 2.757 1_655 S
O231 La209 2.482 1_654 S
O231 C217 1.289 . S
O232 La208 2.470 . S
O232 C218 1.258 . S
O233 La209 2.503 1_554 S
O233 C218 1.256 . S
O234 La209 2.521 1_655 S
O234 C219 1.261 . S
O235 La209 2.628 1_655 S
O235 C219 1.243 . S
O236 La209 2.554 . S
O236 C226 1.240 . S
O237 La208 2.482 1_556 S
O237 La209 2.757 . S
O237 C226 1.289 . S
O238 La209 2.470 1_655 S
O238 C227 1.258 . S
O239 La208 2.503 1_655 S
O239 C227 1.256 1_554 S
H240 C212 0.930 . S
H241 C213 0.930 . S
H242 C215 0.929 . S
H243 C216 0.929 . S
H244 C221 0.930 . S
H245 C222 0.930 . S
H246 C224 0.929 . S
H247 C225 0.929 . S
C248 C249 1.170 . S
C248 C250 1.380 . S
C249 C248 1.170 . S
C250 C248 1.380 . S
C250 C251 1.170 . S
C251 C250 1.170 . S
C252 C253 1.170 . S
C252 C254 1.380 . S
C253 C252 1.170 . S
C254 C252 1.380 . S
C254 C255 1.170 . S
C255 C254 1.170 . S
C256 C257 1.170 . S
C256 C258 1.380 . S
C257 C256 1.170 . S
C258 C256 1.380 . S
C258 C259 1.170 . S
C259 C258 1.170 . S
C260 C261 1.170 . S
C260 C262 1.380 . S
C261 C260 1.170 . S
C262 C260 1.380 . S
C262 C263 1.170 . S
C263 C262 1.170 . S
C264 C265 1.170 . S
C264 C266 1.380 . S
C265 C264 1.170 . S
C266 C264 1.380 . S
C266 C267 1.170 . S
C267 C266 1.170 . S
C268 C269 1.170 . S
C268 C270 1.380 . S
C269 C268 1.170 . S
C270 C268 1.380 . S
C270 C271 1.170 . S
C271 C270 1.170 . S
C272 C273 1.170 . S
C272 C274 1.380 . S
C273 C272 1.170 . S
C274 C272 1.380 . S
C274 C275 1.170 . S
C275 C274 1.170 . S
C276 C277 1.170 . S
C276 C278 1.380 . S
C277 C276 1.170 . S
C278 C276 1.380 . S
C278 C279 1.170 . S
C279 C278 1.170 . S
C280 C281 1.170 . S
C280 C282 1.380 . S
C281 C280 1.170 . S
C282 C280 1.380 . S
C282 C283 1.170 . S
C283 C282 1.170 . S
C284 C285 1.170 . S
C284 C286 1.380 . S
C285 C284 1.170 . S
C286 C284 1.380 . S
C286 C287 1.172 . S
C287 C286 1.172 . S
C288 C289 1.170 . S
C288 C290 1.380 . S
C289 C288 1.170 . S
C290 C288 1.380 . S
C290 C291 1.170 . S
C291 C290 1.170 . S
C292 C293 1.170 . S
C292 C294 1.380 . S
C293 C292 1.170 . S
C294 C292 1.380 . S
C294 C295 1.170 . S
C295 C294 1.170 . S
C296 C297 1.170 . S
C296 C298 1.380 . S
C297 C296 1.170 . S
C298 C296 1.380 . S
C298 C299 1.170 . S
C299 C298 1.170 . S
C300 C301 1.170 . S
C300 C302 1.380 . S
C301 C300 1.170 . S
C302 C300 1.380 . S
C302 C303 1.170 . S
C303 C302 1.170 . S
C304 C305 1.170 . S
C304 C306 1.380 . S
C305 C304 1.170 . S
C306 C304 1.380 . S
C306 C307 1.170 . S
C307 C306 1.170 . S
C308 C309 1.170 . S
C308 C310 1.380 . S
C309 C308 1.170 . S
C310 C308 1.380 . S
C310 C311 1.170 . S
C311 C310 1.170 . S
C312 C313 1.170 . S
C312 C314 1.380 . S
C313 C312 1.170 . S
C314 C312 1.380 . S
C314 C315 1.170 . S
C315 C314 1.170 . S
C316 C317 1.170 . S
C316 C318 1.380 . S
C317 C316 1.170 . S
C318 C316 1.380 . S
C318 C319 1.170 . S
C319 C318 1.170 . S
C320 C321 1.170 . S
C320 C322 1.380 . S
C321 C320 1.170 . S
C322 C320 1.380 . S
C322 C323 1.170 . S
C323 C322 1.170 . S
C324 C325 1.170 . S
C324 C326 1.380 . S
C325 C324 1.170 . S
C326 C324 1.380 . S
C326 C327 1.170 . S
C327 C326 1.170 . S
C328 C329 1.170 . S
C328 C330 1.380 . S
C329 C328 1.170 . S
C330 C328 1.380 . S
C330 C331 1.170 . S
C331 C330 1.170 . S
C332 C333 1.170 . S
C332 C334 1.380 . S
C333 C332 1.170 . S
C334 C332 1.380 . S
C334 C335 1.170 . S
C335 C334 1.170 . S
C336 C337 1.170 . S
C336 C338 1.380 . S
C337 C336 1.170 . S
C338 C336 1.380 . S
C338 C339 1.170 . S
C339 C338 1.170 . S
C340 C341 1.170 . S
C340 C342 1.380 . S
C341 C340 1.170 . S
C342 C340 1.380 . S
C342 C343 1.170 . S
C343 C342 1.170 . S
C249 C5 1.033 . S
C251 C94 1.224 . S
C253 C18 1.049 . S
C255 C143 1.107 . S
C259 C178 2.384 . S
C257 C30 2.424 . S
C261 C41 2.195 . S
C263 C217 2.148 . S
C267 C138 2.281 . S
C265 C7 2.053 . S
C271 C97 0.874 . S
C269 C16 0.811 . S
C275 C227 1.975 . S
C273 C29 1.956 . S
C279 C186 1.363 . S
C277 C38 1.282 . S
C281 C8 1.432 . S
C283 C214 1.578 . S
C287 C146 2.538 1_556 S
C285 C27 2.365 . S
C289 C40 2.464 . S
C291 C107 2.470 . S
C293 C19 0.920 . S
C295 C183 0.984 . S
C299 C103 1.214 . S
C297 C51 1.028 . S
C301 C62 1.428 . S
C303 C134 1.365 . S
C305 C74 2.525 . S
C307 C187 2.462 . S
C309 C84 2.255 . S
C311 C226 2.363 . S
C313 C49 1.769 . S
C315 C147 2.488 1_566 S
C319 C106 0.915 . S
C317 C63 0.948 . S
C323 C218 1.848 . S
C321 C71 1.769 . S
C327 C177 1.524 . S
C325 C85 1.508 . S
C329 C52 1.537 . S
C331 C223 1.632 . S
C335 C137 2.642 . S
C333 C73 2.717 . S
C339 C98 2.090 . S
C337 C82 1.792 . S
C341 C60 0.934 . S
C343 C174 0.972 . S
