# Generated by pormake.
# Topology nia, (6,6)-cn, num edge types: 1
# Building blocks:
#     Node 0, Type 0, BuildingBlock: FUNLAD_clean_sbu_0, # of connection points: 6
#     Node 1, Type 0, BuildingBlock: FUNLAD_clean_sbu_0, # of connection points: 6
#     Node 2, Type 1, BuildingBlock: MIDCAF_clean_sbu_0, # of connection points: 6
#     Node 3, Type 1, BuildingBlock: MIDCAF_clean_sbu_0, # of connection points: 6
#     Edge 4, Type (0, 1), BuildingBlock: EZIPEK_clean_linker_0, # of connection points: 2
#     Edge 5, Type (0, 1), BuildingBlock: EZIPEK_clean_linker_0, # of connection points: 2
#     Edge 6, Type (0, 1), BuildingBlock: EZIPEK_clean_linker_0, # of connection points: 2
#     Edge 7, Type (0, 1), BuildingBlock: EZIPEK_clean_linker_0, # of connection points: 2
#     Edge 8, Type (0, 1), BuildingBlock: EZIPEK_clean_linker_0, # of connection points: 2
#     Edge 9, Type (0, 1), BuildingBlock: EZIPEK_clean_linker_0, # of connection points: 2
#     Edge 10, Type (0, 1), BuildingBlock: EZIPEK_clean_linker_0, # of connection points: 2
#     Edge 11, Type (0, 1), BuildingBlock: EZIPEK_clean_linker_0, # of connection points: 2
#     Edge 12, Type (0, 1), BuildingBlock: EZIPEK_clean_linker_0, # of connection points: 2
#     Edge 13, Type (0, 1), BuildingBlock: EZIPEK_clean_linker_0, # of connection points: 2
#     Edge 14, Type (0, 1), BuildingBlock: EZIPEK_clean_linker_0, # of connection points: 2
#     Edge 15, Type (0, 1), BuildingBlock: EZIPEK_clean_linker_0, # of connection points: 2
# Relax obj value: 0.171
# Max RMSD: 0.251
# Mean RMSD: 0.156
data_MOF--net-nia--node1-FUNLAD_clean_sbu_0--node2-MIDCAF_clean_sbu_0--edge1-EZIPEK_clean_linker_0
_symmetry_space_group_name_H-M    P1
_symmetry_Int_Tables_number       1
_symmetry_cell_setting            triclinic
loop_
_symmetry_equiv_pos_as_xyz
'x, y, z'
_cell_length_a     18.179023
_cell_length_b     18.072286
_cell_length_c     26.198806
_cell_angle_alpha  98.826942
_cell_angle_beta   99.018589
_cell_angle_gamma 115.41667
loop_
_atom_site_label
_atom_site_type_symbol
_atom_site_fract_x
_atom_site_fract_y
_atom_site_fract_z
_atom_type_partial_charge
C0 C 0.1057 0.96991 0.11844 0.0
N1 N 0.17299 0.04312 0.97978 0.0
C2 C 0.25643 0.09344 1.0022 0.0
C3 C 0.31283 0.11239 0.96989 0.0
C4 C 0.28239 0.07872 0.91455 0.0
C5 C 0.19709 0.0237 0.89271 0.0
C6 C 0.143 0.00684 0.92631 0.0
Zn7 Zn 0.08616 0.03168 1.02196 0.0
C8 C 0.94399 0.85509 0.98481 0.0
N9 N 0.89331 0.0011 0.10086 0.0
C10 C 0.92275 0.0378 0.15428 0.0
C11 C 0.80996 0.95077 0.07813 0.0
C12 C 0.75301 0.9325 0.11006 0.0
C13 C 0.78282 0.96694 0.16533 0.0
C14 C 0.86805 0.02195 0.18747 0.0
Zn15 Zn 0.98039 0.01268 0.05894 0.0
O16 O 0.14423 0.99296 0.08256 0.0
C17 C 0.12268 0.18923 0.09646 0.0
O18 O 0.03849 0.97517 0.1185 0.0
H19 H 0.78827 0.92203 0.03571 0.0
H20 H 0.27853 0.12196 0.04464 0.0
H21 H -0.01059 0.07626 0.17182 0.0
O22 O 0.15678 0.16133 0.06505 0.0
O23 O 0.05102 0.13971 0.10141 0.0
H24 H 0.07627 0.96833 0.90902 0.0
O25 O 0.92218 0.05136 0.99826 0.0
O26 O 0.0281 0.06934 0.96246 0.0
O27 O 0.9098 0.8833 1.01594 0.0
O28 O 0.01567 0.90432 0.97973 0.0
C29 C 0.96073 0.0743 0.96238 0.0
H30 H 0.37884 0.15555 0.98748 0.0
H31 H 0.17225 -0.0024 0.85002 0.0
H32 H 0.68698 0.88971 0.09223 0.0
H33 H 0.89229 0.04891 0.23011 0.0
C34 C 0.0723 0.91643 0.47544 0.0
N35 N 0.95975 0.88333 0.60547 0.0
C36 C -0.00647 0.83181 0.61664 0.0
C37 C 0.96208 0.77743 0.64921 0.0
C38 C 0.89802 0.77917 0.67239 0.0
C39 C 0.8677 0.83618 0.66267 0.0
C40 C 0.89704 0.8852 0.62726 0.0
Zn41 Zn 0.00794 0.96897 0.56151 0.0
C42 C 0.19045 0.08433 0.60923 0.0
N43 N 0.10338 0.15973 0.47847 0.0
C44 C 0.07946 0.12887 0.4245 0.0
C45 C 0.15316 0.24363 0.50122 0.0
C46 C 0.18028 0.29996 0.46903 0.0
C47 C 0.15596 0.26898 0.41338 0.0
C48 C 0.10591 0.18247 0.39101 0.0
Zn49 Zn 0.05863 0.07394 0.52241 0.0
O50 O 0.0285 0.88434 0.50709 0.0
C51 C 0.87719 0.95759 0.47378 0.0
O52 O 0.0941 0.99341 0.47554 0.0
H53 H 0.17109 0.26676 0.54416 0.0
H54 H 0.04511 0.83326 0.60068 0.0
H55 H 0.03864 0.06251 0.40717 0.0
O56 O 0.88658 0.9232 0.51139 0.0
O57 O 0.93976 0.02026 0.46794 0.0
H58 H 0.86973 0.92527 0.6177 0.0
O59 O 0.02224 0.15331 0.57054 0.0
O60 O -0.01247 0.05414 0.61411 0.0
O61 O 0.1775 0.12631 0.57726 0.0
O62 O 0.13053 0.01502 0.61081 0.0
C63 C -0.00654 0.12457 0.60845 0.0
H64 H -0.01244 0.73461 0.65638 0.0
H65 H 0.81888 0.83972 0.68033 0.0
H66 H 0.21934 0.36688 0.48719 0.0
H67 H 0.08627 0.1571 0.34816 0.0
Zn68 Zn 0.32481 0.7058 0.18562 0.0
Zn69 Zn 0.3798 0.73049 0.39034 0.0
Zn70 Zn 0.34418 0.71802 0.2891 0.0
C71 C 0.5314 0.81146 0.37487 0.0
C72 C 0.29367 0.55914 0.33973 0.0
O73 O 0.2686 0.78233 0.26828 0.0
O74 O 0.25357 0.76164 0.18077 0.0
C75 C 0.49319 0.80702 0.23302 0.0
O76 O 0.48239 0.78846 0.32785 0.0
O77 O 0.50167 0.79489 0.41434 0.0
O78 O 0.32944 0.6082 0.38565 0.0
O79 O 0.2929 0.58835 0.298 0.0
O80 O 0.44328 0.7761 0.18734 0.0
O81 O 0.46715 0.79096 0.27487 0.0
O82 O 0.28669 0.58368 0.2438 0.0
O83 O 0.27493 0.58313 0.15819 0.0
C84 C 0.26579 0.54386 0.19441 0.0
O85 O 0.26703 0.77152 0.32198 0.0
O86 O 0.31177 0.78513 0.40813 0.0
C87 C 0.24082 0.79256 0.22293 0.0
C88 C 0.2638 0.79158 0.37067 0.0
Zn89 Zn 0.73941 0.33598 0.89706 0.0
Zn90 Zn 0.69881 0.31898 0.69108 0.0
Zn91 Zn 0.72281 0.32789 0.79322 0.0
C92 C 0.76855 0.48887 0.74521 0.0
C93 C 0.54212 0.22897 0.70283 0.0
O94 O 0.7983 0.26346 0.8144 0.0
O95 O 0.80661 0.27557 0.90097 0.0
C96 C 0.80177 0.49929 0.89003 0.0
O97 O 0.77019 0.45879 0.78651 0.0
O98 O 0.73758 0.44033 0.69896 0.0
O99 O 0.57679 0.24324 0.66487 0.0
O100 O 0.58675 0.2559 0.75142 0.0
O101 O 0.79347 0.45893 0.92572 0.0
O102 O 0.77943 0.46056 0.84032 0.0
O103 O 0.59814 0.2551 0.80497 0.0
O104 O 0.61906 0.2699 0.89246 0.0
C105 C 0.57034 0.23989 0.84636 0.0
O106 O 0.80106 0.27421 0.76239 0.0
O107 O 0.77916 0.27806 0.67741 0.0
C108 C 0.82251 0.24873 0.85891 0.0
C109 C 0.8166 0.26349 0.71625 0.0
C110 C 0.08201 0.84915 0.16229 0.0
C111 C 0.13564 0.93202 0.15805 0.0
C112 C 0.255 0.93317 0.21681 0.0
C113 C 0.20254 0.84903 0.21813 0.0
N114 N 0.06454 0.73827 0.2088 0.0
N115 N 0.26414 0.06201 0.19511 0.0
C116 C 0.11507 0.81143 0.19689 0.0
C117 C 0.21942 0.97713 0.18996 0.0
N118 N 0.00203 0.80369 0.13038 0.0
N119 N 0.33954 0.96901 0.23876 0.0
H120 H 0.2381 0.09575 0.17708 0.0
H121 H 0.32316 0.09998 0.22125 0.0
H122 H 0.36628 0.93952 0.26103 0.0
H123 H 0.38304 0.02584 0.23329 0.0
H124 H 0.96414 0.73999 0.12769 0.0
H125 H 0.97512 0.82673 0.10304 0.0
H126 H -0.00088 0.71052 0.19837 0.0
H127 H 0.08914 0.71049 0.23407 0.0
C128 C 0.31685 0.1932 0.67989 0.0
C129 C 0.27645 0.11397 0.64203 0.0
C130 C 0.4057 0.10016 0.66078 0.0
C131 C 0.44938 0.18545 0.6905 0.0
N132 N 0.44879 0.31637 0.72646 0.0
N133 N 0.2831 0.99294 0.59327 0.0
C134 C 0.40545 0.23261 0.70041 0.0
C135 C 0.32054 0.06677 0.63223 0.0
N136 N 0.27018 0.23004 0.6966 0.0
N137 N 0.44603 0.05142 0.65996 0.0
H138 H 0.2212 0.96657 0.57085 0.0
H139 H 0.3153 0.96101 0.58023 0.0
H140 H 0.50844 0.07471 0.68096 0.0
H141 H 0.41562 0.98652 0.64307 0.0
H142 H 0.29484 0.28392 0.72785 0.0
H143 H 0.20488 0.20158 0.68274 0.0
H144 H 0.42121 0.35633 0.72932 0.0
H145 H 0.51371 0.34752 0.74244 0.0
C146 C 0.24502 0.32341 0.15622 0.0
C147 C 0.16111 0.28011 0.12392 0.0
C148 C 0.14213 0.40502 0.1523 0.0
C149 C 0.22842 0.45116 0.17841 0.0
N150 N 0.36533 0.45869 0.20224 0.0
N151 N 0.03562 0.28641 0.08256 0.0
C152 C 0.28085 0.41151 0.17996 0.0
C153 C 0.11089 0.32249 0.11987 0.0
N154 N 0.28965 0.28025 0.16548 0.0
N155 N 0.09 0.44033 0.15862 0.0
H156 H 0.01184 0.22803 0.05553 0.0
H157 H 0.00106 0.31846 0.07432 0.0
H158 H 0.11139 0.50093 0.18252 0.0
H159 H 0.02478 0.40658 0.14477 0.0
H160 H 0.34714 0.30628 0.19352 0.0
H161 H 0.26641 0.21627 0.14805 0.0
H162 H 0.40847 0.43572 0.19899 0.0
H163 H 0.39307 0.52275 0.2215 0.0
C164 C -0.00119 0.24512 0.67521 0.0
C165 C 0.95262 0.16284 0.64056 0.0
C166 C 0.8308 0.14014 0.67706 0.0
C167 C 0.8715 0.22588 0.70476 0.0
N168 N -0.00676 0.36235 0.73116 0.0
N169 N 0.81792 0.03971 0.60005 0.0
C170 C 0.95583 0.27901 0.70467 0.0
C171 C 0.86694 0.11193 0.63957 0.0
N172 N 0.08325 0.29002 0.68037 0.0
N173 N 0.75611 0.08637 0.68555 0.0
H174 H 0.84001 0.01996 0.5691 0.0
H175 H 0.75319 0.00472 0.59457 0.0
H176 H 0.72854 0.10642 0.71305 0.0
H177 H 0.72679 0.02117 0.66972 0.0
H178 H 0.12192 0.34678 0.70882 0.0
H179 H 0.11568 0.26767 0.65822 0.0
H180 H 0.05098 0.40713 0.7279 0.0
H181 H 0.9642 0.38702 0.75509 0.0
C182 C 0.677 0.98256 0.2101 0.0
C183 C 0.72485 0.93996 0.19996 0.0
C184 C 0.63505 0.82201 0.2326 0.0
C185 C 0.5823 0.86042 0.23705 0.0
N186 N 0.56364 0.98499 0.24762 0.0
N187 N 0.76714 0.83446 0.21623 0.0
C188 C 0.60752 0.94402 0.23209 0.0
C189 C 0.71015 0.86495 0.21671 0.0
N190 N 0.69565 0.05725 0.19615 0.0
N191 N 0.6101 0.74236 0.24001 0.0
H192 H 0.82206 0.86412 0.20375 0.0
H193 H 0.76378 0.78407 0.23211 0.0
H194 H 0.55619 0.71078 0.25309 0.0
H195 H 0.64059 0.70637 0.23161 0.0
H196 H 0.65795 0.0872 0.19706 0.0
H197 H 0.74827 0.08822 0.18174 0.0
H198 H 0.58136 0.04817 0.24843 0.0
H199 H 0.51294 0.95696 0.26428 0.0
C200 C 0.91348 0.71324 0.74846 0.0
C201 C 0.8605 0.71841 0.70458 0.0
C202 C 0.74117 0.59977 0.71853 0.0
C203 C 0.79744 0.57961 0.74934 0.0
N204 N 0.93858 0.61965 0.79756 0.0
N205 N 0.72175 0.6578 0.64401 0.0
C206 C 0.884 0.63817 0.76686 0.0
C207 C 0.77301 0.66082 0.6893 0.0
N208 N -0.00853 0.77942 0.77194 0.0
N209 N 0.65703 0.55589 0.71448 0.0
H210 H 0.74297 0.69507 0.61765 0.0
H211 H 0.65938 0.61125 0.62938 0.0
H212 H 0.63339 0.50978 0.73556 0.0
H213 H 0.61314 0.57164 0.69513 0.0
H214 H 0.03004 0.78151 0.80663 0.0
H215 H 0.01355 0.83576 0.75972 0.0
H216 H 0.00368 0.65585 0.80632 0.0
H217 H 0.91864 0.56569 0.81222 0.0
C218 C 0.12245 0.89329 0.39305 0.0
C219 C 0.10236 0.86797 0.44007 0.0
C220 C 0.15316 0.76453 0.41987 0.0
C221 C 0.1961 0.80893 0.38489 0.0
N222 N 0.22817 0.92521 0.34293 0.0
N223 N 0.11474 0.78371 0.5023 0.0
C224 C 0.18197 0.87554 0.372 0.0
C225 C 0.12041 0.80341 0.45435 0.0
N226 N 0.08299 0.93158 0.36761 0.0
N227 N 0.14606 0.68656 0.42136 0.0
H228 H 0.10172 0.81642 0.53259 0.0
H229 H 0.13452 0.74165 0.51477 0.0
H230 H 0.16796 0.65563 0.39545 0.0
H231 H 0.11007 0.6495 0.44382 0.0
H232 H 0.09326 0.94742 0.3318 0.0
H233 H 0.03148 0.93509 0.37829 0.0
H234 H 0.22338 0.97858 0.33621 0.0
H235 H 0.27659 0.91762 0.33031 0.0
C236 C 0.35802 0.18826 0.86871 0.0
C237 C 0.33914 0.10849 0.87952 0.0
C238 C 0.45015 0.10261 0.8402 0.0
C239 C 0.48051 0.18929 0.84161 0.0
N240 N 0.46295 0.31479 0.85202 0.0
N241 N 0.35933 0.98429 0.87137 0.0
C242 C 0.433 0.23162 0.85291 0.0
C243 C 0.38161 0.06295 0.8628 0.0
N244 N 0.30495 0.22254 0.87457 0.0
N245 N 0.48869 0.05983 0.81852 0.0
H246 H 0.30774 0.95302 0.88657 0.0
H247 H 0.39337 0.95126 0.86537 0.0
H248 H 0.53906 0.0889 0.80177 0.0
H249 H 0.46673 -0.00505 0.81291 0.0
H250 H 0.31146 0.27725 0.86312 0.0
H251 H 0.24981 0.192 0.88669 0.0
H252 H 0.43667 0.35257 0.86579 0.0
H253 H 0.51691 0.34708 0.83914 0.0
C254 C 0.12893 0.35998 0.35794 0.0
C255 C 0.18286 0.3278 0.3787 0.0
C256 C 0.29671 0.42588 0.34671 0.0
C257 C 0.24854 0.46819 0.33608 0.0
N258 N 0.11713 0.47306 0.3235 0.0
N259 N 0.31276 0.31941 0.38697 0.0
C260 C 0.16312 0.43295 0.33779 0.0
C261 C 0.26483 0.35647 0.37028 0.0
N262 N 0.04597 0.32168 0.35866 0.0
N263 N 0.3734 0.45402 0.33508 0.0
H264 H 0.28948 0.26626 0.4024 0.0
H265 H 0.37574 0.3416 0.3867 0.0
H266 H 0.39681 0.50521 0.31787 0.0
H267 H 0.41095 0.42405 0.33867 0.0
H268 H 0.00148 0.33749 0.34052 0.0
H269 H 0.01981 0.26971 0.37474 0.0
H270 H 0.0575 0.45745 0.32937 0.0
H271 H 0.14007 0.52425 0.30628 0.0
C272 C 0.98356 0.19761 0.92163 0.0
C273 C 0.93133 0.1127 0.92296 0.0
C274 C 0.81389 0.10878 0.86034 0.0
C275 C 0.86415 0.19507 0.8627 0.0
N276 N 0.00061 0.31224 0.87869 0.0
N277 N 0.80791 0.98012 0.88076 0.0
C278 C 0.95082 0.2358 0.88727 0.0
C279 C 0.84986 0.06572 0.88797 0.0
N280 N 0.06164 0.24389 0.95587 0.0
N281 N 0.73068 0.06994 0.83421 0.0
H282 H 0.83467 0.94747 0.89942 0.0
H283 H 0.75098 0.94104 0.85275 0.0
H284 H 0.70439 0.09948 0.81163 0.0
H285 H 0.68758 0.01036 0.8363 0.0
H286 H 0.0981 0.30853 0.96076 0.0
H287 H 0.0882 0.21975 0.98262 0.0
H288 H 0.06594 0.34311 0.89179 0.0
H289 H 0.97613 0.34026 0.85355 0.0
C290 C 0.75309 0.97652 0.43415 0.0
C291 C 0.79353 0.92463 0.43716 0.0
C292 C 0.66425 0.80049 0.38437 0.0
C293 C 0.62327 0.85169 0.38346 0.0
N294 N 0.63149 0.98921 0.39194 0.0
N295 N 0.79664 0.79507 0.4018 0.0
C296 C 0.66912 0.94033 0.40287 0.0
C297 C 0.75193 0.83895 0.40777 0.0
N298 N 0.79231 0.05827 0.46404 0.0
N299 N 0.61843 0.71475 0.3653 0.0
H300 H 0.86142 0.82233 0.41785 0.0
H301 H 0.77139 0.73474 0.37686 0.0
H302 H 0.55458 0.68511 0.34594 0.0
H303 H 0.64255 0.67286 0.37073 0.0
H304 H 0.76218 0.09572 0.46812 0.0
H305 H 0.85342 0.08733 0.48809 0.0
H306 H 0.66353 0.05498 0.40087 0.0
H307 H 0.56971 0.96312 0.36906 0.0
C308 C 0.95487 0.7209 0.96687 0.0
C309 C 0.90607 0.76394 0.95856 0.0
C310 C 0.78879 0.63292 0.90016 0.0
C311 C 0.83969 0.59201 0.90672 0.0
N312 N 0.97614 0.60045 0.93478 0.0
N313 N 0.78148 0.76506 0.91141 0.0
C314 C 0.92441 0.63728 0.93641 0.0
C315 C 0.8243 0.72115 0.92345 0.0
N316 N 0.0281 0.7579 1.0061 0.0
N317 N 0.70575 0.58678 0.87361 0.0
H318 H 0.8039 0.82873 0.92933 0.0
H319 H 0.72641 0.74003 0.88129 0.0
H320 H 0.67834 0.52264 0.85469 0.0
H321 H 0.66272 0.61057 0.87281 0.0
H322 H 0.06096 0.72571 1.01781 0.0
H323 H 0.0519 0.81803 0.031 0.0
H324 H 0.04089 0.63336 0.95108 0.0
H325 H 0.95565 0.53913 0.91232 0.0
loop_
_geom_bond_atom_site_label_1
_geom_bond_atom_site_label_2
_geom_bond_distance
_geom_bond_site_symmetry_2
_ccdc_geom_bond_type
C0 O16 1.251 1_565 S
C0 O18 1.254 . S
N1 C2 1.333 . S
N1 C6 1.307 . S
N1 Zn7 2.020 . S
C2 N1 1.333 . S
C2 C3 1.379 . S
C2 H20 0.952 1_556 S
C3 C2 1.379 . S
C3 C4 1.390 . S
C3 H30 0.949 . S
C4 C3 1.390 . S
C4 C5 1.357 . S
C5 C4 1.357 . S
C5 C6 1.370 . S
C5 H31 0.950 . S
C6 N1 1.307 . S
C6 C5 1.370 . S
C6 H24 0.948 . S
Zn7 N1 2.020 . S
Zn7 O16 2.039 1_556 S
Zn7 O22 2.034 1_556 S
Zn7 O26 2.025 . S
Zn7 O28 2.024 1_545 S
C8 O27 1.246 . S
C8 O28 1.249 1_655 S
N9 C10 1.307 . S
N9 C11 1.333 . S
N9 Zn15 2.020 1_565 S
C10 N9 1.307 . S
C10 C14 1.370 . S
C10 H21 0.948 . S
C11 N9 1.333 . S
C11 C12 1.379 . S
C11 H19 0.952 . S
C12 C11 1.379 . S
C12 C13 1.390 . S
C12 H32 0.949 . S
C13 C12 1.390 . S
C13 C14 1.357 . S
C14 C10 1.370 . S
C14 C13 1.357 . S
C14 H33 0.950 . S
Zn15 N9 2.020 1_545 S
Zn15 O18 2.025 1_645 S
Zn15 O23 2.024 1_655 S
Zn15 O25 2.039 1_554 S
Zn15 O27 2.034 1_544 S
O16 C0 1.251 1_545 S
O16 Zn7 2.039 1_554 S
C17 O22 1.246 . S
C17 O23 1.249 . S
O18 C0 1.254 . S
O18 Zn15 2.025 1_465 S
H19 C11 0.952 . S
H20 C2 0.952 1_554 S
H21 C10 0.948 . S
O22 Zn7 2.034 1_554 S
O22 C17 1.246 . S
O23 Zn15 2.024 1_455 S
O23 C17 1.249 . S
H24 C6 0.948 . S
O25 Zn15 2.039 1_556 S
O25 C29 1.251 . S
O26 Zn7 2.025 . S
O26 C29 1.254 1_455 S
O27 C8 1.246 . S
O27 Zn15 2.034 1_566 S
O28 Zn7 2.024 1_565 S
O28 C8 1.249 1_455 S
C29 O25 1.251 . S
C29 O26 1.254 1_655 S
H30 C3 0.949 . S
H31 C5 0.950 . S
H32 C12 0.949 . S
H33 C14 0.950 . S
C34 O50 1.251 . S
C34 O52 1.254 1_565 S
N35 C36 1.333 . S
N35 C40 1.307 . S
N35 Zn41 2.020 1_655 S
C36 N35 1.333 . S
C36 C37 1.379 . S
C36 H54 0.952 . S
C37 C36 1.379 . S
C37 C38 1.390 . S
C37 H64 0.949 . S
C38 C37 1.390 . S
C38 C39 1.357 . S
C39 C38 1.357 . S
C39 C40 1.370 . S
C39 H65 0.950 . S
C40 N35 1.307 . S
C40 C39 1.370 . S
C40 H58 0.948 . S
Zn41 N35 2.020 1_455 S
Zn41 O50 2.039 . S
Zn41 O56 2.034 1_455 S
Zn41 O60 2.025 1_465 S
Zn41 O62 2.024 1_565 S
C42 O61 1.246 . S
C42 O62 1.249 . S
N43 C44 1.307 . S
N43 C45 1.333 . S
N43 Zn49 2.020 . S
C44 N43 1.307 . S
C44 C48 1.370 . S
C44 H55 0.948 . S
C45 N43 1.333 . S
C45 C46 1.379 . S
C45 H53 0.952 . S
C46 C45 1.379 . S
C46 C47 1.390 . S
C46 H66 0.949 . S
C47 C46 1.390 . S
C47 C48 1.357 . S
C48 C44 1.370 . S
C48 C47 1.357 . S
C48 H67 0.950 . S
Zn49 N43 2.020 . S
Zn49 O52 2.025 . S
Zn49 O57 2.024 1_455 S
Zn49 O59 2.039 . S
Zn49 O61 2.034 . S
O50 C34 1.251 . S
O50 Zn41 2.039 . S
C51 O56 1.246 . S
C51 O57 1.249 1_565 S
O52 C34 1.254 1_545 S
O52 Zn49 2.025 . S
H53 C45 0.952 . S
H54 C36 0.952 . S
H55 C44 0.948 . S
O56 Zn41 2.034 1_655 S
O56 C51 1.246 . S
O57 Zn49 2.024 1_655 S
O57 C51 1.249 1_545 S
H58 C40 0.948 . S
O59 Zn49 2.039 . S
O59 C63 1.251 1_455 S
O60 Zn41 2.025 1_645 S
O60 C63 1.254 . S
O61 C42 1.246 . S
O61 Zn49 2.034 . S
O62 Zn41 2.024 1_545 S
O62 C42 1.249 . S
C63 O59 1.251 1_655 S
C63 O60 1.254 . S
H64 C37 0.949 . S
H65 C39 0.950 . S
H66 C46 0.949 . S
H67 C48 0.950 . S
Zn68 O74 1.920 . S
Zn68 O80 1.898 . S
Zn68 O83 1.905 . S
Zn69 O77 1.905 . S
Zn69 O78 1.898 . S
Zn69 O86 1.920 . S
Zn70 O73 2.080 . S
Zn70 O76 2.114 . S
Zn70 O79 2.120 . S
Zn70 O81 2.120 . S
Zn70 O82 2.114 . S
Zn70 O85 2.080 . S
C71 O76 1.166 . S
C71 O77 1.182 . S
C72 O78 1.167 . S
C72 O79 1.299 . S
O73 Zn70 2.080 . S
O73 C87 1.305 . S
O74 Zn68 1.920 . S
O74 C87 1.234 . S
C75 O80 1.167 . S
C75 O81 1.299 . S
O76 Zn70 2.114 . S
O76 C71 1.166 . S
O77 Zn69 1.905 . S
O77 C71 1.182 . S
O78 Zn69 1.898 . S
O78 C72 1.167 . S
O79 Zn70 2.120 . S
O79 C72 1.299 . S
O80 Zn68 1.898 . S
O80 C75 1.167 . S
O81 Zn70 2.120 . S
O81 C75 1.299 . S
O82 Zn70 2.114 . S
O82 C84 1.166 . S
O83 Zn68 1.905 . S
O83 C84 1.182 . S
C84 O82 1.166 . S
C84 O83 1.182 . S
O85 Zn70 2.080 . S
O85 C88 1.305 . S
O86 Zn69 1.920 . S
O86 C88 1.234 . S
C87 O73 1.305 . S
C87 O74 1.234 . S
C88 O85 1.305 . S
C88 O86 1.234 . S
Zn89 O95 1.920 . S
Zn89 O101 1.898 . S
Zn89 O104 1.905 . S
Zn90 O98 1.905 . S
Zn90 O99 1.898 . S
Zn90 O107 1.920 . S
Zn91 O94 2.080 . S
Zn91 O97 2.114 . S
Zn91 O100 2.120 . S
Zn91 O102 2.120 . S
Zn91 O103 2.114 . S
Zn91 O106 2.080 . S
C92 O97 1.166 . S
C92 O98 1.182 . S
C93 O99 1.167 . S
C93 O100 1.299 . S
O94 Zn91 2.080 . S
O94 C108 1.305 . S
O95 Zn89 1.920 . S
O95 C108 1.234 . S
C96 O101 1.167 . S
C96 O102 1.299 . S
O97 Zn91 2.114 . S
O97 C92 1.166 . S
O98 Zn90 1.905 . S
O98 C92 1.182 . S
O99 Zn90 1.898 . S
O99 C93 1.167 . S
O100 Zn91 2.120 . S
O100 C93 1.299 . S
O101 Zn89 1.898 . S
O101 C96 1.167 . S
O102 Zn91 2.120 . S
O102 C96 1.299 . S
O103 Zn91 2.114 . S
O103 C105 1.166 . S
O104 Zn89 1.905 . S
O104 C105 1.182 . S
C105 O103 1.166 . S
C105 O104 1.182 . S
O106 Zn91 2.080 . S
O106 C109 1.305 . S
O107 Zn90 1.920 . S
O107 C109 1.234 . S
C108 O94 1.305 . S
C108 O95 1.234 . S
C109 O106 1.305 . S
C109 O107 1.234 . S
C110 C111 1.363 . S
C110 C116 1.379 . S
C110 N118 1.356 . S
C111 C110 1.363 . S
C111 C117 1.363 . S
C112 C113 1.363 . S
C112 C117 1.379 . S
C112 N119 1.356 . S
C113 C112 1.363 . S
C113 C116 1.363 . S
N114 C116 1.356 . S
N114 H126 0.984 . S
N114 H127 0.985 . S
N115 C117 1.356 1_545 S
N115 H120 0.984 . S
N115 H121 0.985 . S
C116 C110 1.379 . S
C116 C113 1.363 . S
C116 N114 1.356 . S
C117 C111 1.363 . S
C117 C112 1.379 . S
C117 N115 1.356 1_565 S
N118 C110 1.356 . S
N118 H124 0.984 . S
N118 H125 0.984 . S
N119 C112 1.356 . S
N119 H122 0.984 . S
N119 H123 0.985 . S
H120 N115 0.984 . S
H121 N115 0.985 . S
H122 N119 0.984 . S
H123 N119 0.985 . S
H124 N118 0.984 . S
H125 N118 0.984 . S
H126 N114 0.984 . S
H127 N114 0.985 . S
C128 C129 1.363 . S
C128 C134 1.379 . S
C128 N136 1.356 . S
C129 C128 1.363 . S
C129 C135 1.363 . S
C130 C131 1.363 . S
C130 C135 1.379 . S
C130 N137 1.356 . S
C131 C130 1.363 . S
C131 C134 1.363 . S
N132 C134 1.356 . S
N132 H144 0.984 . S
N132 H145 0.985 . S
N133 C135 1.356 . S
N133 H138 0.984 . S
N133 H139 0.985 1_545 S
C134 C128 1.379 . S
C134 C131 1.363 . S
C134 N132 1.356 . S
C135 C129 1.363 . S
C135 C130 1.379 . S
C135 N133 1.356 . S
N136 C128 1.356 . S
N136 H142 0.984 . S
N136 H143 0.984 . S
N137 C130 1.356 . S
N137 H140 0.984 . S
N137 H141 0.985 . S
H138 N133 0.984 . S
H139 N133 0.985 1_565 S
H140 N137 0.984 . S
H141 N137 0.985 . S
H142 N136 0.984 . S
H143 N136 0.984 . S
H144 N132 0.984 . S
H145 N132 0.985 . S
C146 C147 1.363 . S
C146 C152 1.379 . S
C146 N154 1.356 . S
C147 C146 1.363 . S
C147 C153 1.363 . S
C148 C149 1.363 . S
C148 C153 1.379 . S
C148 N155 1.356 . S
C149 C148 1.363 . S
C149 C152 1.363 . S
N150 C152 1.356 . S
N150 H162 0.984 . S
N150 H163 0.985 . S
N151 C153 1.356 . S
N151 H156 0.984 . S
N151 H157 0.985 . S
C152 C146 1.379 . S
C152 C149 1.363 . S
C152 N150 1.356 . S
C153 C147 1.363 . S
C153 C148 1.379 . S
C153 N151 1.356 . S
N154 C146 1.356 . S
N154 H160 0.984 . S
N154 H161 0.984 . S
N155 C148 1.356 . S
N155 H158 0.984 . S
N155 H159 0.985 . S
H156 N151 0.984 . S
H157 N151 0.985 . S
H158 N155 0.984 . S
H159 N155 0.985 . S
H160 N154 0.984 . S
H161 N154 0.984 . S
H162 N150 0.984 . S
H163 N150 0.985 . S
C164 C165 1.363 1_455 S
C164 C170 1.379 1_455 S
C164 N172 1.356 . S
C165 C164 1.363 1_655 S
C165 C171 1.363 . S
C166 C167 1.363 . S
C166 C171 1.379 . S
C166 N173 1.356 . S
C167 C166 1.363 . S
C167 C170 1.363 . S
N168 C170 1.356 1_455 S
N168 H180 0.984 . S
N168 H181 0.985 1_455 S
N169 C171 1.356 . S
N169 H174 0.984 . S
N169 H175 0.985 1_545 S
C170 C164 1.379 1_655 S
C170 C167 1.363 . S
C170 N168 1.356 1_655 S
C171 C165 1.363 . S
C171 C166 1.379 . S
C171 N169 1.356 . S
N172 C164 1.356 . S
N172 H178 0.984 . S
N172 H179 0.984 . S
N173 C166 1.356 . S
N173 H176 0.984 . S
N173 H177 0.985 . S
H174 N169 0.984 . S
H175 N169 0.985 1_565 S
H176 N173 0.984 . S
H177 N173 0.985 . S
H178 N172 0.984 . S
H179 N172 0.984 . S
H180 N168 0.984 . S
H181 N168 0.985 1_655 S
C182 C183 1.363 . S
C182 C188 1.379 . S
C182 N190 1.356 . S
C183 C182 1.363 . S
C183 C189 1.363 . S
C184 C185 1.363 . S
C184 C189 1.379 . S
C184 N191 1.356 . S
C185 C184 1.363 . S
C185 C188 1.363 . S
N186 C188 1.356 . S
N186 H198 0.984 . S
N186 H199 0.985 . S
N187 C189 1.356 . S
N187 H192 0.984 . S
N187 H193 0.985 . S
C188 C182 1.379 . S
C188 C185 1.363 . S
C188 N186 1.356 . S
C189 C183 1.363 . S
C189 C184 1.379 . S
C189 N187 1.356 . S
N190 C182 1.356 . S
N190 H196 0.984 1_565 S
N190 H197 0.984 . S
N191 C184 1.356 . S
N191 H194 0.984 . S
N191 H195 0.985 . S
H192 N187 0.984 . S
H193 N187 0.985 . S
H194 N191 0.984 . S
H195 N191 0.985 . S
H196 N190 0.984 1_545 S
H197 N190 0.984 . S
H198 N186 0.984 . S
H199 N186 0.985 . S
C200 C201 1.363 . S
C200 C206 1.379 . S
C200 N208 1.356 . S
C201 C200 1.363 . S
C201 C207 1.363 . S
C202 C203 1.363 . S
C202 C207 1.379 . S
C202 N209 1.356 . S
C203 C202 1.363 . S
C203 C206 1.363 . S
N204 C206 1.356 . S
N204 H216 0.984 . S
N204 H217 0.985 . S
N205 C207 1.356 . S
N205 H210 0.984 . S
N205 H211 0.985 . S
C206 C200 1.379 . S
C206 C203 1.363 . S
C206 N204 1.356 . S
C207 C201 1.363 . S
C207 C202 1.379 . S
C207 N205 1.356 . S
N208 C200 1.356 . S
N208 H214 0.984 . S
N208 H215 0.984 . S
N209 C202 1.356 . S
N209 H212 0.984 . S
N209 H213 0.985 . S
H210 N205 0.984 . S
H211 N205 0.985 . S
H212 N209 0.984 . S
H213 N209 0.985 . S
H214 N208 0.984 . S
H215 N208 0.984 . S
H216 N204 0.984 . S
H217 N204 0.985 . S
C218 C219 1.363 . S
C218 C224 1.379 . S
C218 N226 1.356 1_565 S
C219 C218 1.363 . S
C219 C225 1.363 . S
C220 C221 1.363 . S
C220 C225 1.379 . S
C220 N227 1.356 . S
C221 C220 1.363 . S
C221 C224 1.363 . S
N222 C224 1.356 . S
N222 H234 0.984 1_565 S
N222 H235 0.985 . S
N223 C225 1.356 . S
N223 H228 0.984 . S
N223 H229 0.985 . S
C224 C218 1.379 . S
C224 C221 1.363 . S
C224 N222 1.356 . S
C225 C219 1.363 . S
C225 C220 1.379 . S
C225 N223 1.356 . S
N226 C218 1.356 1_545 S
N226 H232 0.984 . S
N226 H233 0.984 1_545 S
N227 C220 1.356 . S
N227 H230 0.984 . S
N227 H231 0.985 . S
H228 N223 0.984 . S
H229 N223 0.985 . S
H230 N227 0.984 . S
H231 N227 0.985 . S
H232 N226 0.984 . S
H233 N226 0.984 1_565 S
H234 N222 0.984 1_545 S
H235 N222 0.985 . S
C236 C237 1.363 . S
C236 C242 1.379 . S
C236 N244 1.356 . S
C237 C236 1.363 . S
C237 C243 1.363 . S
C238 C239 1.363 . S
C238 C243 1.379 . S
C238 N245 1.356 . S
C239 C238 1.363 . S
C239 C242 1.363 . S
N240 C242 1.356 . S
N240 H252 0.984 . S
N240 H253 0.985 . S
N241 C243 1.356 . S
N241 H246 0.984 . S
N241 H247 0.985 . S
C242 C236 1.379 . S
C242 C239 1.363 . S
C242 N240 1.356 . S
C243 C237 1.363 . S
C243 C238 1.379 . S
C243 N241 1.356 . S
N244 C236 1.356 . S
N244 H250 0.984 . S
N244 H251 0.984 . S
N245 C238 1.356 . S
N245 H248 0.984 . S
N245 H249 0.985 . S
H246 N241 0.984 . S
H247 N241 0.985 . S
H248 N245 0.984 . S
H249 N245 0.985 . S
H250 N244 0.984 . S
H251 N244 0.984 . S
H252 N240 0.984 . S
H253 N240 0.985 . S
C254 C255 1.363 . S
C254 C260 1.379 . S
C254 N262 1.356 . S
C255 C254 1.363 . S
C255 C261 1.363 . S
C256 C257 1.363 . S
C256 C261 1.379 . S
C256 N263 1.356 . S
C257 C256 1.363 . S
C257 C260 1.363 . S
N258 C260 1.356 . S
N258 H270 0.984 . S
N258 H271 0.985 . S
N259 C261 1.356 . S
N259 H264 0.984 . S
N259 H265 0.985 . S
C260 C254 1.379 . S
C260 C257 1.363 . S
C260 N258 1.356 . S
C261 C255 1.363 . S
C261 C256 1.379 . S
C261 N259 1.356 . S
N262 C254 1.356 . S
N262 H268 0.984 . S
N262 H269 0.984 . S
N263 C256 1.356 . S
N263 H266 0.984 . S
N263 H267 0.985 . S
H264 N259 0.984 . S
H265 N259 0.985 . S
H266 N263 0.984 . S
H267 N263 0.985 . S
H268 N262 0.984 . S
H269 N262 0.984 . S
H270 N258 0.984 . S
H271 N258 0.985 . S
C272 C273 1.363 . S
C272 C278 1.379 . S
C272 N280 1.356 1_655 S
C273 C272 1.363 . S
C273 C279 1.363 . S
C274 C275 1.363 . S
C274 C279 1.379 . S
C274 N281 1.356 . S
C275 C274 1.363 . S
C275 C278 1.363 . S
N276 C278 1.356 . S
N276 H288 0.984 . S
N276 H289 0.985 . S
N277 C279 1.356 1_565 S
N277 H282 0.984 . S
N277 H283 0.985 . S
C278 C272 1.379 . S
C278 C275 1.363 . S
C278 N276 1.356 . S
C279 C273 1.363 . S
C279 C274 1.379 . S
C279 N277 1.356 1_545 S
N280 C272 1.356 1_455 S
N280 H286 0.984 . S
N280 H287 0.984 . S
N281 C274 1.356 . S
N281 H284 0.984 . S
N281 H285 0.990 . S
H282 N277 0.984 . S
H283 N277 0.985 . S
H284 N281 0.984 . S
H285 N281 0.990 . S
H286 N280 0.984 . S
H287 N280 0.984 . S
H288 N276 0.984 . S
H289 N276 0.985 . S
C290 C291 1.363 . S
C290 C296 1.379 . S
C290 N298 1.356 1_565 S
C291 C290 1.363 . S
C291 C297 1.363 . S
C292 C293 1.363 . S
C292 C297 1.379 . S
C292 N299 1.356 . S
C293 C292 1.363 . S
C293 C296 1.363 . S
N294 C296 1.356 . S
N294 H306 0.984 . S
N294 H307 0.985 . S
N295 C297 1.356 . S
N295 H300 0.984 . S
N295 H301 0.985 . S
C296 C290 1.379 . S
C296 C293 1.363 . S
C296 N294 1.356 . S
C297 C291 1.363 . S
C297 C292 1.379 . S
C297 N295 1.356 . S
N298 C290 1.356 1_545 S
N298 H304 0.984 . S
N298 H305 0.984 . S
N299 C292 1.356 . S
N299 H302 0.984 . S
N299 H303 0.985 . S
H300 N295 0.984 . S
H301 N295 0.985 . S
H302 N299 0.984 . S
H303 N299 0.985 . S
H304 N298 0.984 . S
H305 N298 0.984 . S
H306 N294 0.984 . S
H307 N294 0.985 . S
C308 C309 1.363 . S
C308 C314 1.379 . S
C308 N316 1.356 1_655 S
C309 C308 1.363 . S
C309 C315 1.363 . S
C310 C311 1.363 . S
C310 C315 1.379 . S
C310 N317 1.356 . S
C311 C310 1.363 . S
C311 C314 1.363 . S
N312 C314 1.356 1_455 S
N312 H324 0.984 . S
N312 H325 0.985 1_455 S
N313 C315 1.356 . S
N313 H318 0.984 . S
N313 H319 0.985 . S
C314 C308 1.379 . S
C314 C311 1.363 . S
C314 N312 1.356 1_655 S
C315 C309 1.363 . S
C315 C310 1.379 . S
C315 N313 1.356 . S
N316 C308 1.356 1_455 S
N316 H322 0.984 . S
N316 H323 0.984 . S
N317 C310 1.356 . S
N317 H320 0.984 . S
N317 H321 0.985 . S
H318 N313 0.984 . S
H319 N313 0.985 . S
H320 N317 0.984 . S
H321 N317 0.985 . S
H322 N316 0.984 . S
H323 N316 0.984 . S
H324 N312 0.984 . S
H325 N312 0.985 1_655 S
C111 C0 1.758 . S
C113 C87 1.524 . S
C129 C42 1.879 . S
C131 C93 1.721 . S
C147 C17 1.692 . S
C149 C84 1.593 . S
C165 C63 1.519 . S
C167 C109 1.340 . S
C183 C13 1.247 . S
C185 C75 1.106 . S
C203 C92 1.170 . S
C201 C38 1.308 . S
C219 C34 1.759 . S
C221 C88 1.524 . S
C239 C105 1.170 . S
C237 C4 1.308 . S
C257 C72 1.106 . S
C255 C47 1.247 . S
C275 C108 1.340 . S
C273 C29 1.519 . S
C293 C71 1.593 . S
C291 C51 1.692 . S
C311 C96 1.721 . S
C309 C8 1.879 . S
