# Generated by pormake.
# Topology nia, (6,6)-cn, num edge types: 1
# Building blocks:
#     Node 0, Type 0, BuildingBlock: PAMTOO_clean_sbu_0, # of connection points: 6
#     Node 1, Type 0, BuildingBlock: PAMTOO_clean_sbu_0, # of connection points: 6
#     Node 2, Type 1, BuildingBlock: MIDCAF_clean_sbu_0, # of connection points: 6
#     Node 3, Type 1, BuildingBlock: MIDCAF_clean_sbu_0, # of connection points: 6
#     Edge 4, Type (0, 1), BuildingBlock: EZIPEK_clean_linker_0, # of connection points: 2
#     Edge 5, Type (0, 1), BuildingBlock: EZIPEK_clean_linker_0, # of connection points: 2
#     Edge 6, Type (0, 1), BuildingBlock: EZIPEK_clean_linker_0, # of connection points: 2
#     Edge 7, Type (0, 1), BuildingBlock: EZIPEK_clean_linker_0, # of connection points: 2
#     Edge 8, Type (0, 1), BuildingBlock: EZIPEK_clean_linker_0, # of connection points: 2
#     Edge 9, Type (0, 1), BuildingBlock: EZIPEK_clean_linker_0, # of connection points: 2
#     Edge 10, Type (0, 1), BuildingBlock: EZIPEK_clean_linker_0, # of connection points: 2
#     Edge 11, Type (0, 1), BuildingBlock: EZIPEK_clean_linker_0, # of connection points: 2
#     Edge 12, Type (0, 1), BuildingBlock: EZIPEK_clean_linker_0, # of connection points: 2
#     Edge 13, Type (0, 1), BuildingBlock: EZIPEK_clean_linker_0, # of connection points: 2
#     Edge 14, Type (0, 1), BuildingBlock: EZIPEK_clean_linker_0, # of connection points: 2
#     Edge 15, Type (0, 1), BuildingBlock: EZIPEK_clean_linker_0, # of connection points: 2
# Relax obj value: 0.190
# Max RMSD: 0.291
# Mean RMSD: 0.203
data_MOF--net-nia--node1-PAMTOO_clean_sbu_0--node2-MIDCAF_clean_sbu_0--edge1-EZIPEK_clean_linker_0
_symmetry_space_group_name_H-M    P1
_symmetry_Int_Tables_number       1
_symmetry_cell_setting            triclinic
loop_
_symmetry_equiv_pos_as_xyz
'x, y, z'
_cell_length_a     22.716615
_cell_length_b     22.633593
_cell_length_c     25.389676
_cell_angle_alpha  90.302763
_cell_angle_beta   90.828159
_cell_angle_gamma 140.41191
loop_
_atom_site_label
_atom_site_type_symbol
_atom_site_fract_x
_atom_site_fract_y
_atom_site_fract_z
_atom_type_partial_charge
Dy0 Dy 0.00402 0.9558 0.07199 0.0
Dy1 Dy -0.00299 0.06495 0.99098 0.0
C2 C 0.15159 0.08528 0.98379 0.0
O3 O 0.0984 0.09785 0.10576 0.0
O4 O 0.03001 0.12779 0.07082 0.0
O5 O 0.08343 0.96632 0.12808 0.0
O6 O 0.93786 0.83375 0.1141 0.0
O7 O 0.85945 0.95851 0.02989 0.0
O8 O 0.90075 0.93774 0.10425 0.0
O9 O 0.96146 0.9587 0.94149 0.0
O10 O 0.90751 0.85536 1.00543 0.0
O11 O 0.936 0.06141 0.92334 0.0
O12 O 0.06017 0.19328 0.96126 0.0
C13 C 0.08284 0.1428 0.10672 0.0
O14 O 0.09722 0.00525 1.00646 0.0
O15 O 0.1371 0.13119 0.98803 0.0
C16 C 0.03528 0.83267 0.14755 0.0
C17 C 0.09619 0.76577 0.17335 0.0
C18 C 0.12482 0.81479 0.12685 0.0
C19 C 0.09446 0.84814 0.11394 0.0
C20 C 0.00405 0.78072 0.19293 0.0
C21 C 0.03416 0.74719 0.20573 0.0
C22 C 0.01411 0.87892 0.13984 0.0
C23 C 0.84414 0.92919 0.07828 0.0
C24 C 0.91566 0.87645 0.95577 0.0
C25 C 0.96359 0.18448 0.91248 0.0
C26 C 0.89268 0.2411 0.88476 0.0
C27 C 0.86075 0.18709 0.92939 0.0
C28 C 0.89605 0.15885 0.94322 0.0
C29 C -0.00402 0.23907 0.86823 0.0
C30 C 0.9609 0.2674 0.85448 0.0
C31 C -0.00228 0.1511 0.92358 0.0
H32 H 0.17265 0.8294 0.10147 0.0
H33 H 0.11963 0.88864 0.0789 0.0
H34 H 0.95902 0.76899 0.21948 0.0
H35 H 0.01135 0.7092 0.24161 0.0
H36 H 0.80818 0.16645 0.9532 0.0
H37 H 0.87001 0.11626 0.97734 0.0
H38 H 0.04765 0.25882 0.8439 0.0
H39 H -0.01366 0.30919 0.82004 0.0
Dy40 Dy 0.02568 0.97467 0.48473 0.0
Dy41 Dy 0.96851 0.03876 0.56892 0.0
C42 C 0.88801 0.84349 0.58156 0.0
O43 O 0.92508 0.95606 0.44269 0.0
O44 O 0.85824 0.96169 0.50664 0.0
O45 O 0.97691 0.87188 0.42796 0.0
O46 O 0.12317 0.00634 0.43528 0.0
O47 O 0.03884 0.13676 0.5016 0.0
O48 O 0.12358 0.12422 0.47093 0.0
O49 O 0.08388 0.07818 0.60752 0.0
O50 O 0.11317 0.01939 0.55518 0.0
O51 O 0.02066 0.15126 0.61706 0.0
O52 O 0.8776 0.01233 0.62237 0.0
C53 C 0.86208 0.94478 0.4581 0.0
O54 O 0.93423 0.85851 0.54155 0.0
O55 O 0.88923 0.90006 0.59617 0.0
C56 C 0.08358 0.88325 0.3986 0.0
C57 C 0.14421 0.81643 0.37338 0.0
C58 C 0.11688 0.80832 0.42477 0.0
C59 C 0.0868 0.84195 0.43746 0.0
C60 C 0.10832 0.88874 0.34701 0.0
C61 C 0.13893 0.85589 0.33452 0.0
C62 C 0.05959 0.92572 0.41085 0.0
C63 C 0.10453 0.16599 0.47242 0.0
C64 C 0.12685 0.06165 0.59821 0.0
C65 C 0.91463 0.13674 0.65337 0.0
C66 C 0.85444 0.20294 0.68196 0.0
C67 C 0.87524 0.2067 0.62933 0.0
C68 C 0.90517 0.17344 0.61497 0.0
C69 C 0.89554 0.1348 0.706 0.0
C70 C 0.8652 0.16739 0.7202 0.0
C71 C 0.94216 0.09786 0.64025 0.0
H72 H 0.12153 0.77861 0.45522 0.0
H73 H 0.06816 0.83771 0.47751 0.0
H74 H 0.10624 0.92067 0.31668 0.0
H75 H 0.16076 0.86338 0.29502 0.0
H76 H 0.86616 0.23326 0.59938 0.0
H77 H 0.91954 0.17503 0.57415 0.0
H78 H 0.9026 0.10653 0.73601 0.0
H79 H 0.84815 0.16302 0.76066 0.0
Zn80 Zn 0.33085 0.61896 0.17602 0.0
Zn81 Zn 0.387 0.67589 0.37955 0.0
Zn82 Zn 0.3679 0.64392 0.27774 0.0
C83 C 0.56241 0.7912 0.33744 0.0
C84 C 0.28875 0.49561 0.36667 0.0
O85 O 0.29601 0.67055 0.25084 0.0
O86 O 0.264 0.64131 0.16499 0.0
C87 C 0.52076 0.75053 0.18815 0.0
O88 O 0.51712 0.75078 0.29332 0.0
O89 O 0.52152 0.77267 0.37911 0.0
O90 O 0.32002 0.55378 0.40242 0.0
O91 O 0.29851 0.51573 0.31761 0.0
O92 O 0.45901 0.71201 0.15312 0.0
O93 O 0.50068 0.7339 0.23732 0.0
O94 O 0.28294 0.50001 0.26235 0.0
O95 O 0.25912 0.48995 0.17601 0.0
C96 C 0.24843 0.45396 0.21834 0.0
O97 O 0.31408 0.6889 0.30479 0.0
O98 O 0.33362 0.71286 0.39142 0.0
C99 C 0.26084 0.66611 0.20824 0.0
C100 C 0.30535 0.71173 0.34795 0.0
Zn101 Zn 0.66113 0.39148 0.88128 0.0
Zn102 Zn 0.61026 0.33736 0.6853 0.0
Zn103 Zn 0.62688 0.37279 0.78159 0.0
C104 C 0.68874 0.51147 0.6921 0.0
C105 C 0.43349 0.21978 0.71964 0.0
O106 O 0.70039 0.34641 0.80847 0.0
O107 O 0.7214 0.36261 0.8953 0.0
C108 C 0.7463 0.55938 0.84475 0.0
O109 O 0.68756 0.50004 0.74214 0.0
O110 O 0.66541 0.45284 0.66025 0.0
O111 O 0.47539 0.23331 0.68016 0.0
O112 O 0.47777 0.26448 0.76343 0.0
O113 O 0.73834 0.52141 0.88489 0.0
O114 O 0.7088 0.51526 0.80005 0.0
O115 O 0.49079 0.27618 0.82006 0.0
O116 O 0.53433 0.30416 0.90416 0.0
C117 C 0.4714 0.26242 0.86937 0.0
O118 O 0.68736 0.33331 0.75437 0.0
O119 O 0.67126 0.31115 0.6677 0.0
C120 C 0.73018 0.34431 0.85141 0.0
C121 C 0.69995 0.3136 0.71136 0.0
C122 C 0.08062 0.64406 0.18379 0.0
C123 C 0.13516 0.73807 0.18934 0.0
C124 C 0.27084 0.78393 0.21476 0.0
C125 C 0.21617 0.68996 0.20913 0.0
N126 N 0.06616 0.52828 0.20216 0.0
N127 N 0.2748 0.89377 0.22176 0.0
C128 C 0.11992 0.61919 0.19807 0.0
C129 C 0.22802 0.80686 0.20871 0.0
N130 N -0.00711 0.57948 0.16255 0.0
N131 N 0.36429 0.85166 0.22321 0.0
H132 H 0.24654 0.91391 0.21639 0.0
H133 H 0.33843 0.94344 0.24196 0.0
H134 H 0.39798 0.83746 0.22904 0.0
H135 H 0.40939 0.92226 0.22148 0.0
H136 H 0.95355 0.51212 0.15198 0.0
H137 H 0.96143 0.59493 0.15182 0.0
H138 H -0.00574 0.47344 0.19978 0.0
H139 H 0.09326 0.50822 0.21314 0.0
C140 C 0.19254 0.0379 0.66256 0.0
C141 C 0.19822 0.09829 0.63775 0.0
C142 C 0.33763 0.22935 0.69095 0.0
C143 C 0.34088 0.17255 0.70828 0.0
N144 N 0.27254 0.02354 0.71342 0.0
N145 N 0.28116 0.25385 0.62473 0.0
C146 C 0.26758 0.07648 0.69562 0.0
C147 C 0.27094 0.19435 0.65184 0.0
N148 N 0.11525 0.94408 0.65506 0.0
N149 N 0.40159 0.31863 0.70987 0.0
H150 H 0.23602 0.23257 0.59457 0.0
H151 H 0.33911 0.32576 0.62856 0.0
H152 H 0.45575 0.34901 0.73568 0.0
H153 H 0.39662 0.36011 0.70358 0.0
H154 H 0.10292 0.89608 0.67603 0.0
H155 H 0.05977 0.91366 0.63051 0.0
H156 H 0.22775 0.95539 0.7008 0.0
H157 H 0.32457 0.05005 0.73998 0.0
C158 C 0.06623 0.2046 0.17858 0.0
C159 C 0.12417 0.21104 0.15002 0.0
C160 C 0.25829 0.35616 0.19786 0.0
C161 C 0.20285 0.36105 0.21377 0.0
N162 N 0.0532 0.29037 0.22027 0.0
N163 N 0.27864 0.29584 0.13206 0.0
C164 C 0.10608 0.28441 0.20554 0.0
C165 C 0.22119 0.28634 0.16053 0.0
N166 N 0.97377 0.12219 0.18045 0.0
N167 N 0.34749 0.42132 0.21644 0.0
H168 H 0.25539 0.2488 0.10265 0.0
H169 H 0.35038 0.35473 0.13456 0.0
H170 H 0.37503 0.47311 0.24364 0.0
H171 H 0.39007 0.41818 0.20922 0.0
H172 H 0.9294 0.11206 0.20392 0.0
H173 H 0.94407 0.06162 0.16332 0.0
H174 H -0.01667 0.24035 0.20982 0.0
H175 H 0.08116 0.34842 0.24044 0.0
C176 C 0.87255 0.32133 0.71337 0.0
C177 C 0.81403 0.22918 0.69635 0.0
C178 C 0.67872 0.18881 0.70227 0.0
C179 C 0.73872 0.28359 0.71294 0.0
N180 N 0.89355 0.43985 0.73303 0.0
N181 N 0.66208 0.07399 0.67363 0.0
C182 C 0.8351 0.34931 0.72025 0.0
C183 C 0.717 0.16216 0.69107 0.0
N184 N 0.96501 0.38364 0.72192 0.0
N185 N 0.58518 0.12426 0.70452 0.0
H186 H 0.68714 0.05083 0.66713 0.0
H187 H 0.59261 0.02488 0.66279 0.0
H188 H 0.55518 0.1417 0.7134 0.0
H189 H 0.53747 0.053 0.70244 0.0
H190 H 0.00995 0.45205 0.73447 0.0
H191 H -0.00395 0.36639 0.71741 0.0
H192 H 0.87225 0.46687 0.73915 0.0
H193 H 0.87225 0.46687 0.73915 0.0
C194 C 0.6973 0.79081 0.12272 0.0
C195 C 0.76009 0.88328 0.10585 0.0
C196 C 0.67794 0.89522 0.15641 0.0
C197 C 0.61154 0.80103 0.16962 0.0
N198 N 0.55325 0.65638 0.16488 0.0
N199 N 0.80668 0.02165 0.10222 0.0
C200 C 0.62065 0.7484 0.15318 0.0
C201 C 0.7494 0.93505 0.12141 0.0
N202 N 0.7107 0.74328 0.10905 0.0
N203 N 0.67309 0.94662 0.17838 0.0
H204 H 0.86173 0.05458 0.0781 0.0
H205 H 0.79691 0.05924 0.10754 0.0
H206 H 0.62171 0.91857 0.20451 0.0
H207 H 0.7236 0.01798 0.17467 0.0
H208 H 0.6758 0.68106 0.12555 0.0
H209 H 0.75938 0.76747 0.08198 0.0
H210 H 0.54823 0.61023 0.14878 0.0
H211 H 0.49917 0.62459 0.1897 0.0
C212 C 0.83823 0.76072 0.66722 0.0
C213 C 0.8283 0.75666 0.61132 0.0
C214 C 0.69783 0.58672 0.6139 0.0
C215 C 0.7197 0.59256 0.66793 0.0
N216 N 0.75807 0.67622 0.7465 0.0
N217 N 0.74173 0.66463 0.53144 0.0
C218 C 0.77545 0.67709 0.69541 0.0
C219 C 0.75573 0.66918 0.5846 0.0
N220 N 0.9092 0.84373 0.69362 0.0
N221 N 0.6159 0.50307 0.59257 0.0
H222 H 0.7755 0.72238 0.50939 0.0
H223 H 0.69901 0.60392 0.50868 0.0
H224 H 0.5664 0.44439 0.61543 0.0
H225 H 0.59121 0.4941 0.55479 0.0
H226 H 0.92351 0.84822 0.73367 0.0
H227 H 0.95841 0.90723 0.67497 0.0
H228 H 0.79057 0.73581 0.76723 0.0
H229 H 0.69933 0.61411 0.76397 0.0
C230 C 0.12917 0.69957 0.34342 0.0
C231 C 0.18603 0.79097 0.36128 0.0
C232 C 0.32304 0.83409 0.35713 0.0
C233 C 0.26469 0.7398 0.34694 0.0
N234 N 0.11263 0.58077 0.33218 0.0
N235 N 0.33609 0.94561 0.38725 0.0
C236 C 0.16782 0.67195 0.33993 0.0
C237 C 0.28292 0.85866 0.36835 0.0
N238 N 0.03874 0.63982 0.32936 0.0
N239 N 0.41678 0.90021 0.35466 0.0
H240 H 0.30985 0.96746 0.39423 0.0
H241 H 0.4051 -0.00554 0.39923 0.0
H242 H 0.44822 0.88426 0.34602 0.0
H243 H 0.46291 0.97117 0.35625 0.0
H244 H -0.0035 0.57599 0.31032 0.0
H245 H 0.00772 0.6572 0.33297 0.0
H246 H 0.04079 0.52662 0.33261 0.0
H247 H 0.13882 0.55836 0.32816 0.0
C248 C 0.28004 0.11229 0.96486 0.0
C249 C 0.22705 0.1217 0.94994 0.0
C250 C 0.32889 0.21622 0.87571 0.0
C251 C 0.37698 0.2006 0.88841 0.0
N252 N 0.37792 0.10874 0.93478 0.0
N253 N 0.18292 0.15433 0.87906 0.0
C254 C 0.34495 0.13948 0.92935 0.0
C255 C 0.24553 0.16468 0.90153 0.0
N256 N 0.27416 0.08423 1.01412 0.0
N257 N 0.36518 0.28435 0.84206 0.0
H258 H 0.11796 0.11177 0.8943 0.0
H259 H 0.19113 0.17866 0.84176 0.0
H260 H 0.4289 0.32785 0.82486 0.0
H261 H 0.3363 0.30366 0.83575 0.0
H262 H 0.31746 0.084 0.02779 0.0
H263 H 0.23472 0.07234 0.04359 0.0
H264 H 0.35134 0.0582 0.96145 0.0
H265 H 0.42441 0.1264 0.90857 0.0
C266 C 0.25248 0.33038 0.44666 0.0
C267 C 0.15628 0.24665 0.43813 0.0
C268 C 0.14952 0.32279 0.37489 0.0
C269 C 0.24531 0.40638 0.38339 0.0
N270 N 0.39273 0.48367 0.41512 0.0
N271 N 0.02473 0.15595 0.37864 0.0
C272 C 0.29839 0.40803 0.41533 0.0
C273 C 0.10815 0.24053 0.39745 0.0
N274 N 0.29927 0.33707 0.48592 0.0
N275 N 0.0968 0.3225 0.34803 0.0
H276 H -0.00415 0.09461 0.39204 0.0
H277 H -0.00962 0.14736 0.34581 0.0
H278 H 0.12442 0.38198 0.33183 0.0
H279 H 0.02486 0.26487 0.34566 0.0
H280 H 0.36668 0.3994 0.49822 0.0
H281 H 0.26881 0.28097 0.50843 0.0
H282 H 0.43565 0.48605 0.43383 0.0
H283 H 0.42802 0.5408 0.39176 0.0
C284 C 0.90783 0.36317 0.8788 0.0
C285 C 0.85429 0.26997 0.86972 0.0
C286 C 0.72086 0.22692 0.84204 0.0
C287 C 0.77497 0.32036 0.85033 0.0
N288 N 0.92427 0.48107 0.8637 0.0
N289 N 0.71812 0.11832 0.83126 0.0
C290 C 0.87004 0.38971 0.86456 0.0
C291 C 0.76332 0.20343 0.84759 0.0
N292 N -0.0071 0.42518 0.90339 0.0
N293 N 0.62806 0.15995 0.83138 0.0
H294 H 0.74649 0.09815 0.83565 0.0
H295 H 0.6562 0.07085 0.80934 0.0
H296 H 0.59489 0.17477 0.82577 0.0
H297 H 0.58296 0.08922 0.83103 0.0
H298 H 0.03065 0.49105 0.91644 0.0
H299 H 0.02311 0.40853 0.91459 0.0
H300 H -0.00407 0.53553 0.86848 0.0
H301 H 0.89837 0.50245 0.85299 0.0
C302 C 0.78778 0.97126 0.40746 0.0
C303 C 0.79547 0.91546 0.41734 0.0
C304 C 0.68312 0.80876 0.34525 0.0
C305 C 0.66102 0.85228 0.34407 0.0
N306 N 0.69859 0.98148 0.36595 0.0
N307 N 0.74588 0.77704 0.39741 0.0
C308 C 0.71737 0.93721 0.37181 0.0
C309 C 0.74346 0.83413 0.38588 0.0
N310 N 0.84774 0.05645 0.43173 0.0
N311 N 0.64376 0.7411 0.30859 0.0
H312 H 0.78535 0.78999 0.42849 0.0
H313 H 0.70204 0.71213 0.37939 0.0
H314 H 0.59986 0.72242 0.27843 0.0
H315 H 0.66257 0.71147 0.30453 0.0
H316 H 0.8513 0.10388 0.42258 0.0
H317 H 0.8994 0.0834 0.45856 0.0
H318 H 0.72819 0.03771 0.38921 0.0
H319 H 0.65014 0.95897 0.33775 0.0
C320 C 0.92527 0.80963 0.88202 0.0
C321 C 0.871 0.80452 0.91457 0.0
C322 C 0.72966 0.64673 0.88214 0.0
C323 C 0.7848 0.64831 0.85475 0.0
N324 N 0.92769 0.73382 0.81515 0.0
N325 N 0.72301 0.73175 0.93434 0.0
C326 C 0.88055 0.73126 0.85003 0.0
C327 C 0.77329 0.72726 0.91075 0.0
N328 N 0.01935 0.88725 0.8839 0.0
N329 N 0.63602 0.56635 0.88258 0.0
H330 H 0.75385 0.79061 0.95519 0.0
H331 H 0.65164 0.68074 0.93012 0.0
H332 H 0.60226 0.50831 0.85925 0.0
H333 H 0.59193 0.55589 0.9065 0.0
H334 H 0.06381 0.89224 0.86582 0.0
H335 H 0.05376 0.94702 0.90503 0.0
H336 H -0.00328 0.79357 0.80639 0.0
H337 H 0.89452 0.67638 0.79139 0.0
loop_
_geom_bond_atom_site_label_1
_geom_bond_atom_site_label_2
_geom_bond_distance
_geom_bond_site_symmetry_2
_ccdc_geom_bond_type
Dy0 O3 2.307 1_565 S
Dy0 O5 2.395 . S
Dy0 O6 2.379 . S
Dy0 O8 2.339 1_455 S
Dy0 O10 2.298 1_454 S
Dy0 O14 2.275 1_564 S
Dy0 C22 2.738 . S
Dy1 O4 2.298 1_656 S
Dy1 O7 2.275 1_546 S
Dy1 O9 2.307 1_545 S
Dy1 O11 2.395 . S
Dy1 O12 2.379 . S
Dy1 O15 2.339 1_655 S
Dy1 C31 2.738 . S
C2 O14 1.254 . S
C2 O15 1.257 . S
O3 Dy0 2.307 1_545 S
O3 C13 1.266 . S
O4 Dy1 2.298 1_454 S
O4 C13 1.236 . S
O5 Dy0 2.395 . S
O5 C22 1.255 . S
O6 Dy0 2.379 . S
O6 C22 1.249 . S
O7 Dy1 2.275 1_564 S
O7 C23 1.254 . S
O8 Dy0 2.339 1_655 S
O8 C23 1.257 . S
O9 Dy1 2.307 1_565 S
O9 C24 1.266 . S
O10 Dy0 2.298 1_656 S
O10 C24 1.236 . S
O11 Dy1 2.395 . S
O11 C31 1.255 . S
O12 Dy1 2.379 . S
O12 C31 1.249 . S
C13 O3 1.266 . S
C13 O4 1.236 . S
O14 Dy0 2.275 1_546 S
O14 C2 1.254 . S
O15 Dy1 2.339 1_455 S
O15 C2 1.257 . S
C16 C19 1.344 . S
C16 C20 1.328 . S
C16 C22 1.516 . S
C17 C18 1.304 . S
C17 C21 1.323 . S
C18 C17 1.304 . S
C18 C19 1.371 . S
C18 H32 0.930 . S
C19 C16 1.344 . S
C19 C18 1.371 . S
C19 H33 0.931 . S
C20 C16 1.328 . S
C20 C21 1.433 . S
C20 H34 0.931 . S
C21 C17 1.323 . S
C21 C20 1.433 . S
C21 H35 0.933 . S
C22 Dy0 2.738 . S
C22 O5 1.255 . S
C22 O6 1.249 . S
C22 C16 1.516 . S
C23 O7 1.254 . S
C23 O8 1.257 . S
C24 O9 1.266 . S
C24 O10 1.236 . S
C25 C28 1.344 . S
C25 C29 1.328 . S
C25 C31 1.516 . S
C26 C27 1.304 . S
C26 C30 1.323 . S
C27 C26 1.304 . S
C27 C28 1.371 . S
C27 H36 0.930 . S
C28 C25 1.344 . S
C28 C27 1.371 . S
C28 H37 0.931 . S
C29 C25 1.328 . S
C29 C30 1.433 . S
C29 H38 0.931 . S
C30 C26 1.323 . S
C30 C29 1.433 . S
C30 H39 0.933 . S
C31 Dy1 2.738 . S
C31 O11 1.255 . S
C31 O12 1.249 . S
C31 C25 1.516 . S
H32 C18 0.930 . S
H33 C19 0.931 . S
H34 C20 0.931 . S
H35 C21 0.933 . S
H36 C27 0.930 . S
H37 C28 0.931 . S
H38 C29 0.931 . S
H39 C30 0.933 . S
Dy40 O43 2.307 1_455 S
Dy40 O45 2.395 . S
Dy40 O46 2.379 1_565 S
Dy40 O48 2.339 1_565 S
Dy40 O50 2.298 1_565 S
Dy40 O54 2.275 1_455 S
Dy40 C62 2.738 . S
Dy41 O44 2.298 1_445 S
Dy41 O47 2.275 . S
Dy41 O49 2.307 . S
Dy41 O51 2.395 1_455 S
Dy41 O52 2.379 1_455 S
Dy41 O55 2.339 1_445 S
Dy41 C71 2.738 1_455 S
C42 O54 1.254 . S
C42 O55 1.257 . S
O43 Dy40 2.307 1_655 S
O43 C53 1.266 . S
O44 Dy41 2.298 1_665 S
O44 C53 1.236 . S
O45 Dy40 2.395 . S
O45 C62 1.255 . S
O46 Dy40 2.379 1_545 S
O46 C62 1.249 1_545 S
O47 Dy41 2.275 . S
O47 C63 1.254 . S
O48 Dy40 2.339 1_545 S
O48 C63 1.257 . S
O49 Dy41 2.307 . S
O49 C64 1.266 . S
O50 Dy40 2.298 1_545 S
O50 C64 1.236 . S
O51 Dy41 2.395 1_655 S
O51 C71 1.255 . S
O52 Dy41 2.379 1_655 S
O52 C71 1.249 . S
C53 O43 1.266 . S
C53 O44 1.236 . S
O54 Dy40 2.275 1_655 S
O54 C42 1.254 . S
O55 Dy41 2.339 1_665 S
O55 C42 1.257 . S
C56 C59 1.344 . S
C56 C60 1.328 . S
C56 C62 1.516 . S
C57 C58 1.304 . S
C57 C61 1.323 . S
C58 C57 1.304 . S
C58 C59 1.371 . S
C58 H72 0.930 . S
C59 C56 1.344 . S
C59 C58 1.371 . S
C59 H73 0.931 . S
C60 C56 1.328 . S
C60 C61 1.433 . S
C60 H74 0.931 1_565 S
C61 C57 1.323 . S
C61 C60 1.433 . S
C61 H75 0.933 . S
C62 Dy40 2.738 . S
C62 O45 1.255 . S
C62 O46 1.249 1_565 S
C62 C56 1.516 . S
C63 O47 1.254 . S
C63 O48 1.257 . S
C64 O49 1.266 . S
C64 O50 1.236 . S
C65 C68 1.344 . S
C65 C69 1.328 . S
C65 C71 1.516 . S
C66 C67 1.304 . S
C66 C70 1.323 . S
C67 C66 1.304 . S
C67 C68 1.371 . S
C67 H76 0.930 . S
C68 C65 1.344 . S
C68 C67 1.371 . S
C68 H77 0.931 . S
C69 C65 1.328 . S
C69 C70 1.433 . S
C69 H78 0.931 . S
C70 C66 1.323 . S
C70 C69 1.433 . S
C70 H79 0.933 . S
C71 Dy41 2.738 1_655 S
C71 O51 1.255 . S
C71 O52 1.249 . S
C71 C65 1.516 . S
H72 C58 0.930 . S
H73 C59 0.931 . S
H74 C60 0.931 1_545 S
H75 C61 0.933 . S
H76 C67 0.930 . S
H77 C68 0.931 . S
H78 C69 0.931 . S
H79 C70 0.933 . S
Zn80 O86 1.920 . S
Zn80 O92 1.898 . S
Zn80 O95 1.905 . S
Zn81 O89 1.905 . S
Zn81 O90 1.898 . S
Zn81 O98 1.920 . S
Zn82 O85 2.080 . S
Zn82 O88 2.114 . S
Zn82 O91 2.120 . S
Zn82 O93 2.120 . S
Zn82 O94 2.114 . S
Zn82 O97 2.080 . S
C83 O88 1.166 . S
C83 O89 1.182 . S
C84 O90 1.167 . S
C84 O91 1.299 . S
O85 Zn82 2.080 . S
O85 C99 1.305 . S
O86 Zn80 1.920 . S
O86 C99 1.234 . S
C87 O92 1.167 . S
C87 O93 1.299 . S
O88 Zn82 2.114 . S
O88 C83 1.166 . S
O89 Zn81 1.905 . S
O89 C83 1.182 . S
O90 Zn81 1.898 . S
O90 C84 1.167 . S
O91 Zn82 2.120 . S
O91 C84 1.299 . S
O92 Zn80 1.898 . S
O92 C87 1.167 . S
O93 Zn82 2.120 . S
O93 C87 1.299 . S
O94 Zn82 2.114 . S
O94 C96 1.166 . S
O95 Zn80 1.905 . S
O95 C96 1.182 . S
C96 O94 1.166 . S
C96 O95 1.182 . S
O97 Zn82 2.080 . S
O97 C100 1.305 . S
O98 Zn81 1.920 . S
O98 C100 1.234 . S
C99 O85 1.305 . S
C99 O86 1.234 . S
C100 O97 1.305 . S
C100 O98 1.234 . S
Zn101 O107 1.920 . S
Zn101 O113 1.898 . S
Zn101 O116 1.905 . S
Zn102 O110 1.905 . S
Zn102 O111 1.898 . S
Zn102 O119 1.920 . S
Zn103 O106 2.080 . S
Zn103 O109 2.114 . S
Zn103 O112 2.120 . S
Zn103 O114 2.120 . S
Zn103 O115 2.114 . S
Zn103 O118 2.080 . S
C104 O109 1.166 . S
C104 O110 1.182 . S
C105 O111 1.167 . S
C105 O112 1.299 . S
O106 Zn103 2.080 . S
O106 C120 1.305 . S
O107 Zn101 1.920 . S
O107 C120 1.234 . S
C108 O113 1.167 . S
C108 O114 1.299 . S
O109 Zn103 2.114 . S
O109 C104 1.166 . S
O110 Zn102 1.905 . S
O110 C104 1.182 . S
O111 Zn102 1.898 . S
O111 C105 1.167 . S
O112 Zn103 2.120 . S
O112 C105 1.299 . S
O113 Zn101 1.898 . S
O113 C108 1.167 . S
O114 Zn103 2.120 . S
O114 C108 1.299 . S
O115 Zn103 2.114 . S
O115 C117 1.166 . S
O116 Zn101 1.905 . S
O116 C117 1.182 . S
C117 O115 1.166 . S
C117 O116 1.182 . S
O118 Zn103 2.080 . S
O118 C121 1.305 . S
O119 Zn102 1.920 . S
O119 C121 1.234 . S
C120 O106 1.305 . S
C120 O107 1.234 . S
C121 O118 1.305 . S
C121 O119 1.234 . S
C122 C123 1.363 . S
C122 C128 1.379 . S
C122 N130 1.356 . S
C123 C122 1.363 . S
C123 C129 1.363 . S
C124 C125 1.363 . S
C124 C129 1.379 . S
C124 N131 1.356 . S
C125 C124 1.363 . S
C125 C128 1.363 . S
N126 C128 1.356 . S
N126 H138 0.984 . S
N126 H139 0.985 . S
N127 C129 1.356 . S
N127 H132 0.984 . S
N127 H133 0.985 . S
C128 C122 1.379 . S
C128 C125 1.363 . S
C128 N126 1.356 . S
C129 C123 1.363 . S
C129 C124 1.379 . S
C129 N127 1.356 . S
N130 C122 1.356 . S
N130 H136 0.984 . S
N130 H137 0.984 . S
N131 C124 1.356 . S
N131 H134 0.984 . S
N131 H135 0.985 . S
H132 N127 0.984 . S
H133 N127 0.985 . S
H134 N131 0.984 . S
H135 N131 0.985 . S
H136 N130 0.984 . S
H137 N130 0.984 . S
H138 N126 0.984 . S
H139 N126 0.985 . S
C140 C141 1.363 . S
C140 C146 1.379 . S
C140 N148 1.356 . S
C141 C140 1.363 . S
C141 C147 1.363 . S
C142 C143 1.363 . S
C142 C147 1.379 . S
C142 N149 1.356 . S
C143 C142 1.363 . S
C143 C146 1.363 . S
N144 C146 1.356 . S
N144 H156 0.984 . S
N144 H157 0.985 . S
N145 C147 1.356 . S
N145 H150 0.984 . S
N145 H151 0.985 . S
C146 C140 1.379 . S
C146 C143 1.363 . S
C146 N144 1.356 . S
C147 C141 1.363 . S
C147 C142 1.379 . S
C147 N145 1.356 . S
N148 C140 1.356 . S
N148 H154 0.984 1_545 S
N148 H155 0.984 . S
N149 C142 1.356 . S
N149 H152 0.984 . S
N149 H153 0.985 . S
H150 N145 0.984 . S
H151 N145 0.985 . S
H152 N149 0.984 . S
H153 N149 0.985 . S
H154 N148 0.984 1_565 S
H155 N148 0.984 . S
H156 N144 0.984 . S
H157 N144 0.985 . S
C158 C159 1.363 . S
C158 C164 1.379 . S
C158 N166 1.356 . S
C159 C158 1.363 . S
C159 C165 1.363 . S
C160 C161 1.363 . S
C160 C165 1.379 . S
C160 N167 1.356 . S
C161 C160 1.363 . S
C161 C164 1.363 . S
N162 C164 1.356 . S
N162 H174 0.984 . S
N162 H175 0.985 . S
N163 C165 1.356 . S
N163 H168 0.984 . S
N163 H169 0.985 . S
C164 C158 1.379 . S
C164 C161 1.363 . S
C164 N162 1.356 . S
C165 C159 1.363 . S
C165 C160 1.379 . S
C165 N163 1.356 . S
N166 C158 1.356 . S
N166 H172 0.984 . S
N166 H173 0.984 . S
N167 C160 1.356 . S
N167 H170 0.984 . S
N167 H171 0.985 . S
H168 N163 0.984 . S
H169 N163 0.985 . S
H170 N167 0.984 . S
H171 N167 0.985 . S
H172 N166 0.984 . S
H173 N166 0.984 . S
H174 N162 0.984 . S
H175 N162 0.985 . S
C176 C177 1.363 . S
C176 C182 1.379 . S
C176 N184 1.356 . S
C177 C176 1.363 . S
C177 C183 1.363 . S
C178 C179 1.363 . S
C178 C183 1.379 . S
C178 N185 1.356 . S
C179 C178 1.363 . S
C179 C182 1.363 . S
N180 C182 1.356 . S
N180 H192 0.984 . S
N180 H193 0.985 . S
N181 C183 1.356 . S
N181 H186 0.984 . S
N181 H187 0.985 . S
C182 C176 1.379 . S
C182 C179 1.363 . S
C182 N180 1.356 . S
C183 C177 1.363 . S
C183 C178 1.379 . S
C183 N181 1.356 . S
N184 C176 1.356 . S
N184 H190 0.984 . S
N184 H191 0.984 . S
N185 C178 1.356 . S
N185 H188 0.984 . S
N185 H189 0.985 . S
H186 N181 0.984 . S
H187 N181 0.985 . S
H188 N185 0.984 . S
H189 N185 0.985 . S
H190 N184 0.984 . S
H191 N184 0.984 . S
H192 N180 0.984 . S
H193 N180 0.985 . S
C194 C195 1.363 . S
C194 C200 1.379 . S
C194 N202 1.356 . S
C195 C194 1.363 . S
C195 C201 1.363 . S
C196 C197 1.363 . S
C196 C201 1.379 . S
C196 N203 1.356 . S
C197 C196 1.363 . S
C197 C200 1.363 . S
N198 C200 1.356 . S
N198 H210 0.984 . S
N198 H211 0.985 . S
N199 C201 1.356 . S
N199 H204 0.984 . S
N199 H205 0.985 1_565 S
C200 C194 1.379 . S
C200 C197 1.363 . S
C200 N198 1.356 . S
C201 C195 1.363 . S
C201 C196 1.379 . S
C201 N199 1.356 . S
N202 C194 1.356 . S
N202 H208 0.984 . S
N202 H209 0.984 . S
N203 C196 1.356 . S
N203 H206 0.984 . S
N203 H207 0.985 . S
H204 N199 0.984 . S
H205 N199 0.985 1_545 S
H206 N203 0.984 . S
H207 N203 0.985 . S
H208 N202 0.984 . S
H209 N202 0.984 . S
H210 N198 0.984 . S
H211 N198 0.985 . S
C212 C213 1.363 . S
C212 C218 1.379 . S
C212 N220 1.356 . S
C213 C212 1.363 . S
C213 C219 1.363 . S
C214 C215 1.363 . S
C214 C219 1.379 . S
C214 N221 1.356 . S
C215 C214 1.363 . S
C215 C218 1.363 . S
N216 C218 1.356 . S
N216 H228 0.984 . S
N216 H229 0.985 . S
N217 C219 1.356 . S
N217 H222 0.984 . S
N217 H223 0.985 . S
C218 C212 1.379 . S
C218 C215 1.363 . S
C218 N216 1.356 . S
C219 C213 1.363 . S
C219 C214 1.379 . S
C219 N217 1.356 . S
N220 C212 1.356 . S
N220 H226 0.984 . S
N220 H227 0.984 . S
N221 C214 1.356 . S
N221 H224 0.984 . S
N221 H225 0.985 . S
H222 N217 0.984 . S
H223 N217 0.985 . S
H224 N221 0.984 . S
H225 N221 0.985 . S
H226 N220 0.984 . S
H227 N220 0.984 . S
H228 N216 0.984 . S
H229 N216 0.985 . S
C230 C231 1.363 . S
C230 C236 1.379 . S
C230 N238 1.356 . S
C231 C230 1.363 . S
C231 C237 1.363 . S
C232 C233 1.363 . S
C232 C237 1.379 . S
C232 N239 1.356 . S
C233 C232 1.363 . S
C233 C236 1.363 . S
N234 C236 1.356 . S
N234 H246 0.984 . S
N234 H247 0.985 . S
N235 C237 1.356 . S
N235 H240 0.984 . S
N235 H241 0.985 . S
C236 C230 1.379 . S
C236 C233 1.363 . S
C236 N234 1.356 . S
C237 C231 1.363 . S
C237 C232 1.379 . S
C237 N235 1.356 . S
N238 C230 1.356 . S
N238 H244 0.984 . S
N238 H245 0.984 . S
N239 C232 1.356 . S
N239 H242 0.984 . S
N239 H243 0.985 . S
H240 N235 0.984 . S
H241 N235 0.985 . S
H242 N239 0.984 . S
H243 N239 0.985 . S
H244 N238 0.984 . S
H245 N238 0.984 . S
H246 N234 0.984 . S
H247 N234 0.985 . S
C248 C249 1.363 . S
C248 C254 1.379 . S
C248 N256 1.356 . S
C249 C248 1.363 . S
C249 C255 1.363 . S
C250 C251 1.363 . S
C250 C255 1.379 . S
C250 N257 1.356 . S
C251 C250 1.363 . S
C251 C254 1.363 . S
N252 C254 1.356 . S
N252 H264 0.984 . S
N252 H265 0.985 . S
N253 C255 1.356 . S
N253 H258 0.984 . S
N253 H259 0.985 . S
C254 C248 1.379 . S
C254 C251 1.363 . S
C254 N252 1.356 . S
C255 C249 1.363 . S
C255 C250 1.379 . S
C255 N253 1.356 . S
N256 C248 1.356 . S
N256 H262 0.984 . S
N256 H263 0.984 . S
N257 C250 1.356 . S
N257 H260 0.984 . S
N257 H261 0.985 . S
H258 N253 0.984 . S
H259 N253 0.985 . S
H260 N257 0.984 . S
H261 N257 0.985 . S
H262 N256 0.984 . S
H263 N256 0.984 . S
H264 N252 0.984 . S
H265 N252 0.985 . S
C266 C267 1.363 . S
C266 C272 1.379 . S
C266 N274 1.356 . S
C267 C266 1.363 . S
C267 C273 1.363 . S
C268 C269 1.363 . S
C268 C273 1.379 . S
C268 N275 1.356 . S
C269 C268 1.363 . S
C269 C272 1.363 . S
N270 C272 1.356 . S
N270 H282 0.984 . S
N270 H283 0.985 . S
N271 C273 1.356 . S
N271 H276 0.984 . S
N271 H277 0.985 1_455 S
C272 C266 1.379 . S
C272 C269 1.363 . S
C272 N270 1.356 . S
C273 C267 1.363 . S
C273 C268 1.379 . S
C273 N271 1.356 . S
N274 C266 1.356 . S
N274 H280 0.984 . S
N274 H281 0.984 . S
N275 C268 1.356 . S
N275 H278 0.984 . S
N275 H279 0.985 1_455 S
H276 N271 0.984 . S
H277 N271 0.985 1_655 S
H278 N275 0.984 . S
H279 N275 0.985 1_655 S
H280 N274 0.984 . S
H281 N274 0.984 . S
H282 N270 0.984 . S
H283 N270 0.985 . S
C284 C285 1.363 . S
C284 C290 1.379 . S
C284 N292 1.356 . S
C285 C284 1.363 . S
C285 C291 1.363 . S
C286 C287 1.363 . S
C286 C291 1.379 . S
C286 N293 1.356 . S
C287 C286 1.363 . S
C287 C290 1.363 . S
N288 C290 1.356 . S
N288 H300 0.984 . S
N288 H301 0.985 . S
N289 C291 1.356 . S
N289 H294 0.984 . S
N289 H295 0.985 . S
C290 C284 1.379 . S
C290 C287 1.363 . S
C290 N288 1.356 . S
C291 C285 1.363 . S
C291 C286 1.379 . S
C291 N289 1.356 . S
N292 C284 1.356 . S
N292 H298 0.984 . S
N292 H299 0.984 . S
N293 C286 1.356 . S
N293 H296 0.984 . S
N293 H297 0.985 . S
H294 N289 0.984 . S
H295 N289 0.985 . S
H296 N293 0.984 . S
H297 N293 0.985 . S
H298 N292 0.984 . S
H299 N292 0.984 . S
H300 N288 0.984 . S
H301 N288 0.985 . S
C302 C303 1.363 . S
C302 C308 1.379 . S
C302 N310 1.356 . S
C303 C302 1.363 . S
C303 C309 1.363 . S
C304 C305 1.363 . S
C304 C309 1.379 . S
C304 N311 1.356 . S
C305 C304 1.363 . S
C305 C308 1.363 . S
N306 C308 1.356 . S
N306 H318 0.984 . S
N306 H319 0.985 . S
N307 C309 1.356 . S
N307 H312 0.984 . S
N307 H313 0.985 . S
C308 C302 1.379 . S
C308 C305 1.363 . S
C308 N306 1.356 . S
C309 C303 1.363 . S
C309 C304 1.379 . S
C309 N307 1.356 . S
N310 C302 1.356 . S
N310 H316 0.984 1_565 S
N310 H317 0.984 1_565 S
N311 C304 1.356 . S
N311 H314 0.984 . S
N311 H315 0.985 . S
H312 N307 0.984 . S
H313 N307 0.985 . S
H314 N311 0.984 . S
H315 N311 0.985 . S
H316 N310 0.984 1_545 S
H317 N310 0.984 1_545 S
H318 N306 0.984 . S
H319 N306 0.985 . S
C320 C321 1.363 . S
C320 C326 1.379 . S
C320 N328 1.356 . S
C321 C320 1.363 . S
C321 C327 1.363 . S
C322 C323 1.363 . S
C322 C327 1.379 . S
C322 N329 1.356 . S
C323 C322 1.363 . S
C323 C326 1.363 . S
N324 C326 1.356 . S
N324 H336 0.984 . S
N324 H337 0.985 . S
N325 C327 1.356 . S
N325 H330 0.984 . S
N325 H331 0.985 1_556 S
C326 C320 1.379 . S
C326 C323 1.363 . S
C326 N324 1.356 . S
C327 C321 1.363 . S
C327 C322 1.379 . S
C327 N325 1.356 . S
N328 C320 1.356 . S
N328 H334 0.984 . S
N328 H335 0.984 . S
N329 C322 1.356 . S
N329 H332 0.984 . S
N329 H333 0.985 . S
H330 N325 0.984 . S
H331 N325 0.985 1_554 S
H332 N329 0.984 . S
H333 N329 0.985 . S
H334 N328 0.984 . S
H335 N328 0.984 . S
H336 N324 0.984 . S
H337 N324 0.985 . S
C123 C17 1.365 . S
C125 C99 1.274 . S
C141 C64 1.451 . S
C143 C105 1.251 . S
C159 C13 1.532 . S
C161 C96 1.366 . S
C177 C66 1.472 . S
C179 C121 1.357 . S
C195 C23 1.806 . S
C197 C87 1.597 . S
C215 C104 1.685 . S
C213 C42 1.827 . S
C231 C57 1.365 . S
C233 C100 1.274 . S
C251 C117 1.685 . S
C249 C2 1.827 . S
C269 C84 1.597 . S
C267 C63 1.806 . S
C287 C120 1.357 . S
C285 C26 1.473 . S
C305 C83 1.366 . S
C303 C53 1.532 . S
C323 C108 1.251 . S
C321 C24 1.451 . S
