# Generated by pormake.
# Topology pyr, (3,6)-cn, num edge types: 1
# Building blocks:
#     Node 0, Type 0, BuildingBlock: OLANEW_clean_sbu_2, # of connection points: 3
#     Node 1, Type 0, BuildingBlock: OLANEW_clean_sbu_2, # of connection points: 3
#     Node 2, Type 0, BuildingBlock: OLANEW_clean_sbu_2, # of connection points: 3
#     Node 3, Type 0, BuildingBlock: OLANEW_clean_sbu_2, # of connection points: 3
#     Node 4, Type 0, BuildingBlock: OLANEW_clean_sbu_2, # of connection points: 3
#     Node 5, Type 0, BuildingBlock: OLANEW_clean_sbu_2, # of connection points: 3
#     Node 6, Type 0, BuildingBlock: OLANEW_clean_sbu_2, # of connection points: 3
#     Node 7, Type 0, BuildingBlock: OLANEW_clean_sbu_2, # of connection points: 3
#     Node 8, Type 1, BuildingBlock: BETDIP_clean_sbu_0, # of connection points: 6
#     Node 9, Type 1, BuildingBlock: BETDIP_clean_sbu_0, # of connection points: 6
#     Node 10, Type 1, BuildingBlock: BETDIP_clean_sbu_0, # of connection points: 6
#     Node 11, Type 1, BuildingBlock: BETDIP_clean_sbu_0, # of connection points: 6
#     Edge 12, Type (0, 1), BuildingBlock: AJUNOK_clean_linker_0, # of connection points: 2
#     Edge 13, Type (0, 1), BuildingBlock: AJUNOK_clean_linker_0, # of connection points: 2
#     Edge 14, Type (0, 1), BuildingBlock: AJUNOK_clean_linker_0, # of connection points: 2
#     Edge 15, Type (0, 1), BuildingBlock: AJUNOK_clean_linker_0, # of connection points: 2
#     Edge 16, Type (0, 1), BuildingBlock: AJUNOK_clean_linker_0, # of connection points: 2
#     Edge 17, Type (0, 1), BuildingBlock: AJUNOK_clean_linker_0, # of connection points: 2
#     Edge 18, Type (0, 1), BuildingBlock: AJUNOK_clean_linker_0, # of connection points: 2
#     Edge 19, Type (0, 1), BuildingBlock: AJUNOK_clean_linker_0, # of connection points: 2
#     Edge 20, Type (0, 1), BuildingBlock: AJUNOK_clean_linker_0, # of connection points: 2
#     Edge 21, Type (0, 1), BuildingBlock: AJUNOK_clean_linker_0, # of connection points: 2
#     Edge 22, Type (0, 1), BuildingBlock: AJUNOK_clean_linker_0, # of connection points: 2
#     Edge 23, Type (0, 1), BuildingBlock: AJUNOK_clean_linker_0, # of connection points: 2
#     Edge 24, Type (0, 1), BuildingBlock: AJUNOK_clean_linker_0, # of connection points: 2
#     Edge 25, Type (0, 1), BuildingBlock: AJUNOK_clean_linker_0, # of connection points: 2
#     Edge 26, Type (0, 1), BuildingBlock: AJUNOK_clean_linker_0, # of connection points: 2
#     Edge 27, Type (0, 1), BuildingBlock: AJUNOK_clean_linker_0, # of connection points: 2
#     Edge 28, Type (0, 1), BuildingBlock: AJUNOK_clean_linker_0, # of connection points: 2
#     Edge 29, Type (0, 1), BuildingBlock: AJUNOK_clean_linker_0, # of connection points: 2
#     Edge 30, Type (0, 1), BuildingBlock: AJUNOK_clean_linker_0, # of connection points: 2
#     Edge 31, Type (0, 1), BuildingBlock: AJUNOK_clean_linker_0, # of connection points: 2
#     Edge 32, Type (0, 1), BuildingBlock: AJUNOK_clean_linker_0, # of connection points: 2
#     Edge 33, Type (0, 1), BuildingBlock: AJUNOK_clean_linker_0, # of connection points: 2
#     Edge 34, Type (0, 1), BuildingBlock: AJUNOK_clean_linker_0, # of connection points: 2
#     Edge 35, Type (0, 1), BuildingBlock: AJUNOK_clean_linker_0, # of connection points: 2
# Relax obj value: 0.215
# Max RMSD: 0.246
# Mean RMSD: 0.146
data_MOF--net-pyr--node1-OLANEW_clean_sbu_2--node2-BETDIP_clean_sbu_0--edge1-AJUNOK_clean_linker_0
_symmetry_space_group_name_H-M    P1
_symmetry_Int_Tables_number       1
_symmetry_cell_setting            triclinic
loop_
_symmetry_equiv_pos_as_xyz
'x, y, z'
_cell_length_a     28.885284
_cell_length_b     32.684278
_cell_length_c     31.32322
_cell_angle_alpha  92.984407
_cell_angle_beta   92.834986
_cell_angle_gamma 109.89042
loop_
_atom_site_label
_atom_site_type_symbol
_atom_site_fract_x
_atom_site_fract_y
_atom_site_fract_z
_atom_type_partial_charge
O0 O 0.42709 0.27851 0.16415 0.0
Cd1 Cd 0.41335 0.34901 0.16053 0.0
O2 O 0.44621 0.29415 0.23309 0.0
Cd3 Cd 0.45982 0.27504 0.29684 0.0
O4 O 0.43034 0.24682 0.35549 0.0
C5 C 0.40224 0.26349 0.37424 0.0
O6 O 0.39526 0.29767 0.35868 0.0
C7 C 0.4423 0.26894 0.19982 0.0
C8 C 0.31815 0.35418 0.15043 0.0
O9 O 0.34198 0.3505 0.11781 0.0
O10 O 0.33828 0.35314 0.18758 0.0
O11 O 0.1591 0.7911 0.84598 0.0
Cd12 Cd 0.12244 0.76679 0.77338 0.0
O13 O 0.09791 0.80511 0.87485 0.0
Cd14 Cd 0.05816 0.79567 0.81227 0.0
O15 O 0.04949 0.83034 0.75664 0.0
C16 C 0.02172 0.85324 0.75771 0.0
O17 O 0.99522 0.85211 0.79082 0.0
C18 C 0.14114 0.80327 0.87847 0.0
C19 C 0.198 0.75419 0.72856 0.0
O20 O 0.19185 0.79126 0.7308 0.0
O21 O 0.16695 0.72263 0.74594 0.0
O22 O 0.72721 0.47876 0.90413 0.0
Cd23 Cd 0.6504 0.4583 0.85432 0.0
O24 O 0.69586 0.42262 0.94246 0.0
Cd25 Cd 0.6825 0.37025 0.98828 0.0
O26 O 0.64055 0.31051 1.02058 0.0
C27 C 0.65137 0.27575 1.01922 0.0
O28 O 0.6901 0.2754 0.9991 0.0
C29 C 0.73236 0.45634 0.93523 0.0
C30 C 0.62555 0.51323 0.79608 0.0
O31 O 0.61348 0.51213 0.83498 0.0
O32 O 0.65216 0.49053 0.78513 0.0
O33 O 0.96158 0.81851 0.37017 0.0
Cd34 Cd 0.91512 0.74409 0.33205 0.0
O35 O 0.89749 0.81679 0.40681 0.0
Cd36 Cd 0.8461 0.75063 0.3918 0.0
O37 O 0.78445 0.70909 0.42522 0.0
C38 C 0.77144 0.72845 0.45625 0.0
O39 O 0.79486 0.77049 0.4647 0.0
C40 C 0.9411 0.83694 0.39675 0.0
C41 C 0.94121 0.70084 0.2599 0.0
O42 O 0.91775 0.72748 0.25497 0.0
O43 O 0.95521 0.69674 0.29849 0.0
O44 O 0.64545 0.77151 0.78309 0.0
Cd45 Cd 0.61177 0.725 0.84067 0.0
O46 O 0.65056 0.8273 0.82671 0.0
Cd47 Cd 0.66175 0.89218 0.85759 0.0
O48 O 0.64952 0.93318 0.91097 0.0
C49 C 0.61133 0.91713 0.93162 0.0
O50 O 0.58084 0.87771 0.91935 0.0
C51 C 0.65813 0.81262 0.79023 0.0
C52 C 0.68853 0.70658 0.88359 0.0
O53 O 0.6615 0.6806 0.85292 0.0
O54 O 0.67833 0.74068 0.89461 0.0
O55 O 0.96695 0.32036 0.36132 0.0
Cd56 Cd 0.0408 0.33673 0.40871 0.0
O57 O 0.94164 0.37034 0.39198 0.0
Cd58 Cd 0.88114 0.39411 0.40392 0.0
O59 O 0.81966 0.41048 0.42811 0.0
C60 C 0.77786 0.39968 0.4073 0.0
O61 O 0.77158 0.37863 0.36938 0.0
C62 C 0.93437 0.33814 0.36492 0.0
C63 C 0.03732 0.2565 0.43745 0.0
O64 O 0.01407 0.279 0.45546 0.0
O65 O 0.06373 0.27255 0.40663 0.0
O66 O 0.45264 0.82489 0.29335 0.0
Cd67 Cd 0.41105 0.75026 0.32003 0.0
O68 O 0.39302 0.82108 0.24417 0.0
Cd69 Cd 0.34088 0.75396 0.24517 0.0
O70 O 0.27637 0.70164 0.2129 0.0
C71 C 0.27635 0.69355 0.17268 0.0
O72 O 0.31568 0.71504 0.15319 0.0
C73 C 0.4346 0.84227 0.26404 0.0
C74 C 0.44719 0.71325 0.3897 0.0
O75 O 0.4165 0.73328 0.39544 0.0
O76 O 0.46275 0.71273 0.35208 0.0
O77 O 0.13945 0.44932 0.81742 0.0
Cd78 Cd 0.16521 0.42091 0.75139 0.0
O79 O 0.10256 0.38545 0.84327 0.0
Cd80 Cd 0.11002 0.34039 0.78984 0.0
O81 O 0.09294 0.28487 0.73966 0.0
C82 C 0.10508 0.25094 0.74253 0.0
O83 O 0.13114 0.24797 0.77706 0.0
C84 C 0.11601 0.42709 0.84679 0.0
C85 C 0.25404 0.47291 0.71863 0.0
O86 O 0.21299 0.47811 0.7083 0.0
O87 O 0.25327 0.44435 0.74539 0.0
Tb88 Tb 0.96906 1.02652 0.57299 0.0
Tb89 Tb 0.08364 0.05398 0.57466 0.0
C90 C 0.87799 0.98449 0.5723 0.0
C91 C 0.84403 0.96078 0.60405 0.0
C92 C 0.83407 0.91593 0.60763 0.0
C93 C 0.80178 0.89354 0.63723 0.0
C94 C 0.77822 0.9153 0.66369 0.0
C95 C 0.78828 0.96013 0.66034 0.0
C96 C 0.82057 0.98257 0.63068 0.0
C97 C 0.01963 0.09759 0.62161 0.0
C98 C 0.02726 0.98158 0.63432 0.0
C99 C 0.17301 0.09945 0.58809 0.0
C100 C 0.21097 0.12216 0.55965 0.0
C101 C 0.24699 0.16219 0.57415 0.0
C102 C 0.28072 0.18592 0.54625 0.0
C103 C 0.27889 0.16981 0.50351 0.0
C104 C 0.24336 0.12936 0.48927 0.0
C105 C 0.20939 0.10585 0.51702 0.0
C106 C 0.04037 0.99408 0.50957 0.0
C107 C 0.02477 0.09543 0.51173 0.0
O108 O 0.91023 0.96744 0.55902 0.0
O109 O 0.89732 1.02691 0.57935 0.0
O110 O 0.03103 0.06356 0.61666 0.0
O111 O 0.97674 0.0905 0.60221 0.0
O112 O 0.98471 0.9846 0.61981 0.0
O113 O 0.07055 1.00741 0.62332 0.0
O114 O 0.13719 0.11528 0.59146 0.0
O115 O 0.15696 0.05663 0.58369 0.0
O116 O 0.02157 1.01242 0.53652 0.0
O117 O 0.0876 1.0104 0.519 0.0
O118 O 0.06631 0.09974 0.53433 0.0
O119 O 0.98257 0.06351 0.51631 0.0
H120 H 0.85127 0.89805 0.58757 0.0
H121 H 0.79552 0.85916 0.63964 0.0
H122 H 0.77059 0.9777 0.68025 0.0
H123 H 0.82701 1.01701 0.62856 0.0
H124 H 0.24841 0.17544 0.60682 0.0
H125 H 0.30803 0.21696 0.55794 0.0
H126 H 0.24101 0.11653 0.45633 0.0
H127 H 0.18135 0.07537 0.50493 0.0
Tb128 Tb 0.58548 0.0807 0.15504 0.0
Tb129 Tb 0.48046 0.0401 0.1226 0.0
C130 C 0.67101 0.13028 0.18035 0.0
C131 C 0.69648 0.17236 0.2047 0.0
C132 C 0.7406 0.20017 0.19034 0.0
C133 C 0.7716 0.2352 0.21717 0.0
C134 C 0.75897 0.24259 0.25883 0.0
C135 C 0.7126 0.21736 0.27167 0.0
C136 C 0.6814 0.18245 0.24469 0.0
C137 C 0.53712 1.00705 0.18923 0.0
C138 C 0.50433 0.11798 0.18797 0.0
C139 C 0.39386 0.98777 0.10537 0.0
C140 C 0.35966 0.95815 0.07144 0.0
C141 C 0.35398 0.9136 0.06734 0.0
C142 C 0.31702 0.88468 0.03893 0.0
C143 C 0.2847 0.89973 1.0147 0.0
C144 C 0.29108 0.94433 1.01811 0.0
C145 C 0.32797 0.9732 0.04633 0.0
C146 C 0.52964 0.11273 0.08692 0.0
C147 C 0.56302 1.0115 0.07678 0.0
O148 O 0.65038 0.13117 0.14247 0.0
O149 O 0.6441 0.09854 0.20187 0.0
O150 O 0.52033 0.03715 0.18103 0.0
O151 O 0.58252 1.01865 0.17941 0.0
O152 O 0.55099 0.12693 0.17944 0.0
O153 O 0.47156 0.07905 0.17729 0.0
O154 O 0.42982 0.97634 0.12182 0.0
O155 O 0.40752 1.02969 0.10071 0.0
O156 O 0.5452 0.08294 0.09748 0.0
O157 O 0.48277 0.10018 0.09211 0.0
O158 O 0.51539 1.00333 0.082 0.0
O159 O 0.59771 0.0432 0.10006 0.0
H160 H 0.75273 0.19301 0.15952 0.0
H161 H 0.80731 0.25414 0.20672 0.0
H162 H 0.7021 0.22275 0.30364 0.0
H163 H 0.64714 0.16175 0.25625 0.0
H164 H 0.37726 0.90086 0.08679 0.0
H165 H 0.31292 0.85042 1.03663 0.0
H166 H 0.26736 0.95691 0.99898 0.0
H167 H 0.33089 1.00718 0.04912 0.0
Tb168 Tb 0.51581 0.64549 0.60993 0.0
Tb169 Tb 0.51927 0.55968 0.57638 0.0
C170 C 0.50637 0.71865 0.62095 0.0
C171 C 0.46654 0.73008 0.64019 0.0
C172 C 0.44539 0.75702 0.61921 0.0
C173 C 0.4021 0.76195 0.63294 0.0
C174 C 0.37926 0.73982 0.66775 0.0
C175 C 0.40186 0.71453 0.68993 0.0
C176 C 0.44483 0.70938 0.67607 0.0
C177 C 0.54808 0.60287 0.66739 0.0
C178 C 0.42995 0.56356 0.63043 0.0
C179 C 0.52357 0.48479 0.56247 0.0
C180 C 0.5535 0.46712 0.53536 0.0
C181 C 0.57229 0.4362 0.55127 0.0
C182 C 0.60545 0.42272 0.52832 0.0
C183 C 0.62002 0.43971 0.48891 0.0
C184 C 0.59999 0.46968 0.47233 0.0
C185 C 0.5672 0.48353 0.49552 0.0
C186 C 0.49093 0.60454 0.51875 0.0
C187 C 0.60706 0.64114 0.55787 0.0
O188 O 0.49264 0.69418 0.58504 0.0
O189 O 0.53436 0.70513 0.6467 0.0
O190 O 0.55774 0.60505 0.62846 0.0
O191 O 0.52205 0.62733 0.67564 0.0
O192 O 0.44171 0.60532 0.62386 0.0
O193 O 0.45789 0.541 0.61818 0.0
O194 O 0.54842 0.51206 0.59443 0.0
O195 O 0.49087 0.49815 0.54272 0.0
O196 O 0.47899 0.60104 0.55709 0.0
O197 O 0.51642 0.57955 0.51102 0.0
O198 O 0.59275 0.59869 0.56159 0.0
O199 O 0.58141 0.66505 0.57255 0.0
H200 H 0.46121 0.77278 0.59114 0.0
H201 H 0.38548 0.78173 0.61536 0.0
H202 H 0.38578 0.69802 0.71755 0.0
H203 H 0.46003 0.68797 0.69257 0.0
H204 H 0.56247 0.42349 0.5821 0.0
H205 H 0.62046 0.39959 0.54172 0.0
H206 H 0.61125 0.48371 0.44232 0.0
H207 H 0.55377 0.50798 0.48292 0.0
Tb208 Tb 0.01197 0.58705 1.02383 0.0
Tb209 Tb 1.00735 0.51568 0.07989 0.0
C210 C 0.99218 0.64248 0.98039 0.0
C211 C 0.94789 0.65424 0.9731 0.0
C212 C 0.90188 0.62675 0.98459 0.0
C213 C 0.85914 0.63606 0.97401 0.0
C214 C 0.86196 0.67336 0.95244 0.0
C215 C 0.9083 0.70146 0.94212 0.0
C216 C 0.95097 0.69188 0.95232 0.0
C217 C 0.09747 0.59659 0.06604 0.0
C218 C 0.97466 0.59049 0.11776 0.0
C219 C 0.02743 0.4597 0.12257 0.0
C220 C 0.06654 0.44012 0.12299 0.0
C221 C 0.11098 0.46007 0.10401 0.0
C222 C 0.14899 0.4426 0.10691 0.0
C223 C 0.1434 0.40502 0.12906 0.0
C224 C 0.09821 0.38442 0.14685 0.0
C225 C 0.0602 0.40189 0.1439 0.0
C226 C 0.92141 0.50751 0.0386 0.0
C227 C 0.0495 0.51509 0.98724 0.0
O228 O 0.98816 0.60344 0.96511 0.0
O229 O 0.01381 0.65156 1.01904 0.0
O230 O 0.05508 0.58182 0.07947 0.0
O231 O 0.09281 0.60952 1.02821 0.0
O232 O 0.96988 0.59926 0.07721 0.0
O233 O 0.99308 0.55999 0.12764 0.0
O234 O 0.04181 0.50127 0.13464 0.0
O235 O 0.99641 0.44969 0.08865 0.0
O236 O 0.96364 0.52118 1.02441 0.0
O237 O 0.92618 0.49508 0.07673 0.0
O238 O 0.05044 0.50395 1.02726 0.0
O239 O 0.03077 0.54512 0.97681 0.0
H240 H 0.89895 0.59764 1.00089 0.0
H241 H 0.82383 0.61395 0.9823 0.0
H242 H 0.91132 0.73005 0.92491 0.0
H243 H 0.9862 0.71331 0.9431 0.0
H244 H 0.11668 0.48962 0.08768 0.0
H245 H 0.18334 0.45923 0.09291 0.0
H246 H 0.09237 0.35493 0.16331 0.0
H247 H 0.02607 0.38588 0.15851 0.0
C248 C 0.37201 0.19968 0.41906 0.0
C249 C 0.37373 0.24192 0.40994 0.0
C250 C 0.34184 0.17684 0.44987 0.0
C251 C 0.31283 0.19558 0.47315 0.0
H252 H 0.39308 0.18354 0.40149 0.0
H253 H 0.34087 0.14409 0.45529 0.0
S254 S 0.30465 0.30539 0.46283 0.0
N255 N 0.34429 0.30186 0.42784 0.0
N256 N 0.28783 0.2587 0.48577 0.0
C257 C 0.315 0.23805 0.46529 0.0
C258 C 0.34538 0.26127 0.43369 0.0
C259 C 0.22178 0.81927 0.92073 0.0
C260 C 0.17359 0.821 0.9182 0.0
C261 C 0.25688 0.84303 0.95345 0.0
C262 C 0.24515 0.86949 0.98478 0.0
H263 H 0.23337 0.80107 0.89612 0.0
H264 H 0.29415 0.84251 0.95286 0.0
S265 S 0.12254 0.87979 0.9973 0.0
N266 N 0.1146 0.84729 0.95335 0.0
N267 N 0.18081 0.89182 1.01486 0.0
C268 C 0.19633 0.86903 0.98464 0.0
C269 C 0.16043 0.84471 0.95142 0.0
C270 C 0.62226 0.54013 0.7219 0.0
C271 C 0.607 0.53784 0.76415 0.0
C272 C 0.60328 0.56109 0.69075 0.0
C273 C 0.568 0.58051 0.70038 0.0
H274 H 0.64901 0.52541 0.71264 0.0
H275 H 0.61649 0.56215 0.65893 0.0
S276 S 0.51472 0.58327 0.80558 0.0
N277 N 0.55382 0.55704 0.81341 0.0
N278 N 0.51818 0.59569 0.75517 0.0
C279 C 0.55242 0.5785 0.74238 0.0
C280 C 0.57185 0.55743 0.7741 0.0
C281 C 0.97118 0.6417 0.22999 0.0
C282 C 0.94965 0.67374 0.22268 0.0
C283 C 0.97784 0.6145 0.19619 0.0
C284 C 0.96347 0.6179 0.15317 0.0
H285 H 0.98297 0.63733 0.26227 0.0
H286 H 0.99513 0.59092 0.20403 0.0
S287 S 0.90486 0.69617 0.11606 0.0
N288 N 0.91353 0.70689 0.16854 0.0
N289 N 0.92621 0.65618 0.10536 0.0
C290 C 0.94174 0.64973 0.1453 0.0
C291 C 0.93482 0.67743 0.17982 0.0
C292 C 0.42496 0.18932 0.18246 0.0
C293 C 0.45606 0.22939 0.20233 0.0
C294 C 0.43948 0.15244 0.18115 0.0
C295 C 0.48634 0.15457 0.19852 0.0
H296 H 0.38951 0.18666 0.16711 0.0
H297 H 0.41482 0.12272 0.1641 0.0
S298 S 0.58129 0.25209 0.2545 0.0
N299 N 0.53513 0.26896 0.24096 0.0
N300 N 0.56315 0.20008 0.23716 0.0
C301 C 0.51734 0.19431 0.21929 0.0
C302 C 0.50203 0.2316 0.22152 0.0
C303 C 0.985 0.90211 0.72046 0.0
C304 C 0.02272 0.88407 0.72438 0.0
C305 C 0.98647 0.93329 0.69098 0.0
C306 C 0.02621 0.94826 0.66486 0.0
H307 H 0.95407 0.89219 0.74043 0.0
H308 H 0.95662 0.9463 0.68923 0.0
S309 S 0.13351 0.91036 0.66137 0.0
N310 N 0.10029 0.88257 0.69848 0.0
N311 N 0.10329 0.94149 0.64356 0.0
C312 C 0.0639 0.93015 0.66804 0.0
C313 C 0.06206 0.89795 0.6976 0.0
C314 C 0.78305 0.46029 1.00467 0.0
C315 C 0.7807 0.46922 0.96124 0.0
C316 C 0.82848 0.47327 1.02954 0.0
C317 C 0.87357 0.49501 1.01185 0.0
H318 H 0.74949 0.44381 1.01982 0.0
H319 H 0.82821 0.46601 0.06289 0.0
S320 S 0.88807 0.52373 0.89895 0.0
N321 N 0.82792 0.50054 0.90151 0.0
N322 N 0.91268 0.52279 0.9474 0.0
C323 C 0.87169 0.50329 0.96827 0.0
C324 C 0.82551 0.49101 0.94326 0.0
C325 C 0.71223 0.72867 0.51193 0.0
C326 C 0.73051 0.70485 0.48253 0.0
C327 C 0.67309 0.70778 0.53673 0.0
C328 C 0.65087 0.6621 0.53361 0.0
H329 H 0.72778 0.76395 0.51554 0.0
H330 H 0.66002 0.72774 0.55834 0.0
S331 S 0.68532 0.58432 0.46203 0.0
N332 N 0.72362 0.63282 0.45214 0.0
N333 N 0.65035 0.59348 0.49882 0.0
C334 C 0.66924 0.63772 0.50481 0.0
C335 C 0.70888 0.65908 0.47924 0.0
C336 C 0.25351 0.37064 0.10472 0.0
C337 C 0.2707 0.3628 0.14535 0.0
C338 C 0.21188 0.3834 0.09959 0.0
C339 C 0.18537 0.38851 0.13477 0.0
H340 H 0.27308 0.36803 0.07667 0.0
H341 H 0.20061 0.38971 0.06782 0.0
S342 S 0.2137 0.37097 0.2478 0.0
N343 N 0.2566 0.36 0.22131 0.0
N344 N 0.17884 0.38421 0.21157 0.0
C345 C 0.20126 0.3797 0.17537 0.0
C346 C 0.24374 0.36683 0.18067 0.0
C347 C 0.63449 0.1981 0.03756 0.0
C348 C 0.61999 0.23525 0.03832 0.0
C349 C 0.60534 0.15892 0.05364 0.0
C350 C 0.56007 0.15487 0.07081 0.0
H351 H 0.66868 0.19905 1.0242 0.0
H352 H 0.61811 0.13135 0.05199 0.0
S353 S 0.50602 0.2424 0.08335 0.0
N354 N 0.55772 0.26548 0.06006 0.0
N355 N 0.50299 0.19173 0.08965 0.0
C356 C 0.54527 0.19168 0.07252 0.0
C357 C 0.57519 0.23184 0.05652 0.0
C358 C 0.01842 0.89348 0.43267 0.0
C359 C 0.96788 0.88061 0.4197 0.0
C360 C 0.04159 0.93079 0.46094 0.0
C361 C 0.01525 0.95676 0.47733 0.0
H362 H 0.03969 0.87351 0.42261 0.0
H363 H 0.08019 0.93852 0.47111 0.0
S364 S 0.88446 0.9416 0.44739 0.0
N365 N 0.89365 0.89986 0.42181 0.0
N366 N 0.93763 0.97006 0.4737 0.0
C367 C 0.96563 0.94581 0.46247 0.0
C368 C 0.94192 0.90778 0.434 0.0
C369 C 0.28123 0.78636 0.70027 0.0
C370 C 0.24185 0.74908 0.7094 0.0
C371 C 0.3252 0.78306 0.68613 0.0
C372 C 0.33147 0.74238 0.68053 0.0
H373 H 0.27876 0.81857 0.70523 0.0
H374 H 0.355 0.81272 0.68067 0.0
S375 S 0.23786 0.63436 0.695 0.0
N376 N 0.21087 0.66979 0.70863 0.0
N377 N 0.29321 0.66369 0.68138 0.0
C378 C 0.29176 0.70469 0.68782 0.0
C379 C 0.24704 0.70801 0.70237 0.0
C380 C 0.71923 0.88261 0.76877 0.0
C381 C 0.68333 0.84146 0.75707 0.0
C382 C 0.74881 0.90703 0.73819 0.0
C383 C 0.74354 0.89113 0.69487 0.0
H384 H 0.72622 0.89513 0.80203 0.0
H385 H 0.77734 0.93774 0.74886 0.0
S386 S 0.64993 0.78837 0.64666 0.0
N387 N 0.64082 0.78809 0.69829 0.0
N388 N 0.69595 0.83404 0.64115 0.0
C389 C 0.70594 0.85121 0.68244 0.0
C390 C 0.67597 0.8264 0.71343 0.0
C391 C 0.86818 0.33689 0.30986 0.0
C392 C 0.88571 0.31669 0.34231 0.0
C393 C 0.82513 0.31354 0.284 0.0
C394 C 0.79804 0.26987 0.29078 0.0
H395 H 0.88915 0.36999 0.30306 0.0
H396 H 0.81392 0.32909 0.25765 0.0
S397 S 0.82737 0.20408 0.3741 0.0
N398 N 0.87203 0.25197 0.38144 0.0
N399 N 0.79074 0.20836 0.33371 0.0
C400 C 0.81402 0.25041 0.32479 0.0
C401 C 0.85806 0.2738 0.35037 0.0
C402 C 0.43419 0.67899 0.46107 0.0
C403 C 0.4616 0.6889 0.42446 0.0
C404 C 0.44421 0.65255 0.49203 0.0
C405 C 0.48212 0.63495 0.48776 0.0
H406 H 0.40375 0.6907 0.4653 0.0
H407 H 0.42128 0.64496 0.5189 0.0
S408 S 0.56865 0.6549 0.40097 0.0
N409 N 0.53106 0.68141 0.38808 0.0
N410 N 0.54977 0.63236 0.4458 0.0
C411 C 0.51096 0.64598 0.45228 0.0
C412 C 0.5008 0.67274 0.42085 0.0
C413 C 0.09546 0.49028 0.8797 0.0
C414 C 0.10186 0.44979 0.88411 0.0
C415 C 0.07909 0.51117 0.91318 0.0
C416 C 0.06921 0.49302 0.95304 0.0
H417 H 0.1019 0.50556 0.84964 0.0
H418 H 0.07396 0.54182 0.90757 0.0
S419 S 0.08334 0.38892 0.98241 0.0
N420 N 0.09878 0.39315 0.93234 0.0
N421 N 0.06914 0.43261 0.99534 0.0
C422 C 0.07689 0.45314 0.95836 0.0
C423 C 0.09282 0.43151 0.92396 0.0
C424 C 0.55451 0.92605 0.98655 0.0
C425 C 0.60077 0.94187 0.96901 0.0
C426 C 0.54294 0.94846 1.02155 0.0
C427 C 0.57729 0.98749 0.04095 0.0
H428 H 0.52655 0.8962 0.97291 0.0
H429 H 0.50664 0.93497 1.03344 0.0
S430 S 0.70407 0.04285 1.0078 0.0
N431 N 0.68141 0.9991 0.9741 0.0
N432 N 0.65993 0.04105 0.03992 0.0
C433 C 0.62398 1.00353 1.02409 0.0
C434 C 0.63561 0.98084 0.98814 0.0
C435 C 0.98979 0.18777 0.46978 0.0
C436 C 0.03313 0.21306 0.45178 0.0
C437 C 0.98569 0.14759 0.48598 0.0
C438 C 0.0252 0.13174 0.48551 0.0
H439 H 0.95904 0.19946 0.47203 0.0
H440 H 0.9525 0.13016 0.50124 0.0
S441 S 0.14586 0.18441 0.4403 0.0
N442 N 0.11536 0.21824 0.43247 0.0
N443 N 0.10817 0.14328 0.46393 0.0
C444 C 0.06809 0.15596 0.46629 0.0
C445 C 0.07194 0.19649 0.44914 0.0
C446 C 0.23122 0.66037 0.10192 0.0
C447 C 0.23138 0.66403 0.14699 0.0
C448 C 0.18825 0.63683 0.07622 0.0
C449 C 0.14354 0.61571 0.09437 0.0
H450 H 0.26422 0.67697 0.08605 0.0
H451 H 0.18979 0.6363 0.04171 0.0
S452 S 0.12462 0.61134 0.21067 0.0
N453 N 0.18326 0.64158 0.20871 0.0
N454 N 0.10269 0.59731 0.16035 0.0
C455 C 0.14356 0.61711 0.13938 0.0
C456 C 0.18737 0.64129 0.16567 0.0
C457 C 0.3013 0.53134 0.67189 0.0
C458 C 0.30034 0.49762 0.69861 0.0
C459 C 0.34356 0.55325 0.65058 0.0
C460 C 0.3862 0.54172 0.65448 0.0
H461 H 0.269 0.54072 0.66702 0.0
H462 H 0.34238 0.57864 0.6301 0.0
S463 S 0.40507 0.45896 0.72346 0.0
N464 N 0.34776 0.45625 0.72994 0.0
N465 N 0.42634 0.49684 0.68956 0.0
C466 C 0.38631 0.50904 0.68196 0.0
C467 C 0.34367 0.48718 0.70409 0.0
C468 C 0.73703 0.65729 0.89635 0.0
C469 C 0.73133 0.69806 0.90439 0.0
C470 C 0.77865 0.64915 0.91319 0.0
C471 C 0.81643 0.68161 0.9383 0.0
H472 H 0.70943 0.63153 0.8764 0.0
H473 H 0.78201 0.61763 0.9054 0.0
S474 S 0.8186 0.79287 0.97109 0.0
N475 N 0.76642 0.77064 0.94107 0.0
N476 N 0.8447 0.75514 0.97234 0.0
C477 C 0.81082 0.72209 0.94753 0.0
C478 C 0.76823 0.73033 0.93074 0.0
C479 C 0.43652 0.91311 0.23451 0.0
C480 C 0.4624 0.88663 0.2502 0.0
C481 C 0.46091 0.95277 0.21646 0.0
C482 C 0.51206 0.96699 0.21193 0.0
H483 H 0.39682 0.90283 0.23576 0.0
H484 H 0.43927 0.9718 0.20506 0.0
S485 S 0.59742 0.91091 0.24951 0.0
N486 N 0.5426 0.87897 0.26192 0.0
N487 N 0.58817 0.9522 0.22678 0.0
C488 C 0.53855 0.94137 0.22848 0.0
C489 C 0.51386 0.9016 0.24785 0.0
C490 C 0.09742 0.17471 0.71438 0.0
C491 C 0.08716 0.21356 0.70889 0.0
C492 C 0.07764 0.13775 0.68507 0.0
C493 C 0.04645 0.13802 0.64929 0.0
H494 H 0.11996 0.17233 0.74216 0.0
H495 H 0.08522 0.10829 0.69142 0.0
S496 S 0.01284 0.23246 0.61663 0.0
N497 N 0.04716 0.25058 0.66198 0.0
N498 N 0.00998 0.18143 0.60763 0.0
C499 C 0.0378 0.17709 0.64225 0.0
C500 C 0.0581 0.21472 0.67179 0.0
C501 C 0.74238 0.4257 0.46997 0.0
C502 C 0.73663 0.40961 0.4267 0.0
C503 C 0.70428 0.43488 0.48973 0.0
C504 C 0.659 0.42875 0.467 0.0
H505 H 0.77654 0.43111 0.48901 0.0
H506 H 0.71054 0.44742 0.52302 0.0
S507 S 0.62423 0.38701 0.35341 0.0
N508 N 0.68137 0.38761 0.36183 0.0
N509 N 0.60989 0.40527 0.39927 0.0
C510 C 0.65253 0.41286 0.42379 0.0
C511 C 0.69125 0.40312 0.40361 0.0
loop_
_geom_bond_atom_site_label_1
_geom_bond_atom_site_label_2
_geom_bond_distance
_geom_bond_site_symmetry_2
_ccdc_geom_bond_type
O0 Cd1 2.300 . S
O0 C7 1.275 . S
Cd1 O0 2.300 . S
Cd1 O9 2.381 . S
Cd1 O10 2.378 . S
O2 Cd3 2.385 . S
O2 C7 1.255 . S
Cd3 O2 2.385 . S
Cd3 O4 2.317 . S
O4 Cd3 2.317 . S
O4 C5 1.232 . S
C5 O4 1.232 . S
C5 O6 1.218 . S
O6 C5 1.218 . S
C7 O0 1.275 . S
C7 O2 1.255 . S
C8 O9 1.258 . S
C8 O10 1.256 . S
O9 Cd1 2.381 . S
O9 C8 1.258 . S
O10 Cd1 2.378 . S
O10 C8 1.256 . S
O11 Cd12 2.300 . S
O11 C18 1.275 . S
Cd12 O11 2.300 . S
Cd12 O20 2.381 . S
Cd12 O21 2.378 . S
O13 Cd14 2.385 1_455 S
O13 C18 1.255 . S
Cd14 O13 2.385 1_655 S
Cd14 O15 2.317 1_655 S
O15 Cd14 2.317 1_455 S
O15 C16 1.232 . S
C16 O15 1.232 . S
C16 O17 1.218 1_455 S
O17 C16 1.218 1_655 S
C18 O11 1.275 . S
C18 O13 1.255 . S
C19 O20 1.258 . S
C19 O21 1.256 . S
O20 Cd12 2.381 . S
O20 C19 1.258 . S
O21 Cd12 2.378 . S
O21 C19 1.256 . S
O22 Cd23 2.300 . S
O22 C29 1.275 . S
Cd23 O22 2.300 . S
Cd23 O31 2.381 . S
Cd23 O32 2.378 . S
O24 Cd25 2.385 . S
O24 C29 1.255 . S
Cd25 O24 2.385 . S
Cd25 O26 2.317 . S
O26 Cd25 2.317 . S
O26 C27 1.232 . S
C27 O26 1.232 . S
C27 O28 1.218 . S
O28 C27 1.218 . S
C29 O22 1.275 . S
C29 O24 1.255 . S
C30 O31 1.258 . S
C30 O32 1.256 . S
O31 Cd23 2.381 . S
O31 C30 1.258 . S
O32 Cd23 2.378 . S
O32 C30 1.256 . S
O33 Cd34 2.300 . S
O33 C40 1.275 . S
Cd34 O33 2.300 . S
Cd34 O42 2.381 . S
Cd34 O43 2.378 . S
O35 Cd36 2.385 . S
O35 C40 1.255 . S
Cd36 O35 2.385 . S
Cd36 O37 2.317 . S
O37 Cd36 2.317 . S
O37 C38 1.232 . S
C38 O37 1.232 . S
C38 O39 1.218 . S
O39 C38 1.218 . S
C40 O33 1.275 . S
C40 O35 1.255 . S
C41 O42 1.258 . S
C41 O43 1.256 . S
O42 Cd34 2.381 . S
O42 C41 1.258 . S
O43 Cd34 2.378 . S
O43 C41 1.256 . S
O44 Cd45 2.300 . S
O44 C51 1.275 . S
Cd45 O44 2.300 . S
Cd45 O53 2.381 . S
Cd45 O54 2.378 . S
O46 Cd47 2.385 . S
O46 C51 1.255 . S
Cd47 O46 2.385 . S
Cd47 O48 2.317 . S
O48 Cd47 2.317 . S
O48 C49 1.232 . S
C49 O48 1.232 . S
C49 O50 1.218 . S
O50 C49 1.218 . S
C51 O44 1.275 . S
C51 O46 1.255 . S
C52 O53 1.258 . S
C52 O54 1.256 . S
O53 Cd45 2.381 . S
O53 C52 1.258 . S
O54 Cd45 2.378 . S
O54 C52 1.256 . S
O55 Cd56 2.300 . S
O55 C62 1.275 . S
Cd56 O55 2.300 . S
Cd56 O64 2.381 . S
Cd56 O65 2.378 1_655 S
O57 Cd58 2.385 . S
O57 C62 1.255 . S
Cd58 O57 2.385 . S
Cd58 O59 2.317 . S
O59 Cd58 2.317 . S
O59 C60 1.232 . S
C60 O59 1.232 . S
C60 O61 1.218 . S
O61 C60 1.218 . S
C62 O55 1.275 . S
C62 O57 1.255 . S
C63 O64 1.258 1_455 S
C63 O65 1.256 . S
O64 Cd56 2.381 . S
O64 C63 1.258 1_655 S
O65 Cd56 2.378 1_455 S
O65 C63 1.256 . S
O66 Cd67 2.300 . S
O66 C73 1.275 . S
Cd67 O66 2.300 . S
Cd67 O75 2.381 . S
Cd67 O76 2.378 . S
O68 Cd69 2.385 . S
O68 C73 1.255 . S
Cd69 O68 2.385 . S
Cd69 O70 2.317 . S
O70 Cd69 2.317 . S
O70 C71 1.232 . S
C71 O70 1.232 . S
C71 O72 1.218 . S
O72 C71 1.218 . S
C73 O66 1.275 . S
C73 O68 1.255 . S
C74 O75 1.258 . S
C74 O76 1.256 . S
O75 Cd67 2.381 . S
O75 C74 1.258 . S
O76 Cd67 2.378 . S
O76 C74 1.256 . S
O77 Cd78 2.300 . S
O77 C84 1.275 . S
Cd78 O77 2.300 . S
Cd78 O86 2.381 . S
Cd78 O87 2.378 . S
O79 Cd80 2.385 . S
O79 C84 1.255 . S
Cd80 O79 2.385 . S
Cd80 O81 2.317 . S
O81 Cd80 2.317 . S
O81 C82 1.232 . S
C82 O81 1.232 . S
C82 O83 1.218 . S
O83 C82 1.218 . S
C84 O77 1.275 . S
C84 O79 1.255 . S
C85 O86 1.258 . S
C85 O87 1.256 . S
O86 Cd78 2.381 . S
O86 C85 1.258 . S
O87 Cd78 2.378 . S
O87 C85 1.256 . S
Tb88 C90 2.809 1_545 S
Tb88 O108 2.484 1_545 S
Tb88 O109 2.440 1_545 S
Tb88 O110 2.658 1_655 S
Tb88 O111 2.409 . S
Tb88 O112 2.378 1_645 S
Tb88 O116 2.325 1_545 S
Tb88 O119 2.341 . S
Tb89 C99 2.809 . S
Tb89 O110 2.325 . S
Tb89 O113 2.341 1_545 S
Tb89 O114 2.484 . S
Tb89 O115 2.440 . S
Tb89 O116 2.658 1_445 S
Tb89 O117 2.409 1_545 S
Tb89 O118 2.378 . S
C90 Tb88 2.809 1_565 S
C90 C91 1.514 . S
C90 O108 1.248 . S
C90 O109 1.266 . S
C91 C90 1.514 . S
C91 C92 1.359 . S
C91 C96 1.348 . S
C92 C91 1.359 . S
C92 C93 1.380 . S
C92 H120 0.929 . S
C93 C92 1.380 . S
C93 C94 1.347 . S
C93 H121 0.931 . S
C94 C93 1.347 . S
C94 C95 1.369 . S
C95 C94 1.369 . S
C95 C96 1.408 . S
C95 H122 0.930 . S
C96 C91 1.348 . S
C96 C95 1.408 . S
C96 H123 0.930 . S
C97 O110 1.281 . S
C97 O111 1.254 1_455 S
C98 O112 1.236 . S
C98 O113 1.266 . S
C99 Tb89 2.809 . S
C99 C100 1.514 . S
C99 O114 1.248 . S
C99 O115 1.266 . S
C100 C99 1.514 . S
C100 C101 1.359 . S
C100 C105 1.348 . S
C101 C100 1.359 . S
C101 C102 1.380 . S
C101 H124 0.929 . S
C102 C101 1.380 . S
C102 C103 1.347 . S
C102 H125 0.931 . S
C103 C102 1.347 . S
C103 C104 1.369 . S
C104 C103 1.369 . S
C104 C105 1.408 . S
C104 H126 0.930 . S
C105 C100 1.348 . S
C105 C104 1.408 . S
C105 H127 0.930 . S
C106 O116 1.281 . S
C106 O117 1.254 1_655 S
C107 O118 1.236 1_655 S
C107 O119 1.266 . S
O108 Tb88 2.484 1_565 S
O108 C90 1.248 . S
O109 Tb88 2.440 1_565 S
O109 C90 1.266 . S
O110 Tb88 2.658 1_455 S
O110 Tb89 2.325 . S
O110 C97 1.281 . S
O111 Tb88 2.409 . S
O111 C97 1.254 1_655 S
O112 Tb88 2.378 1_465 S
O112 C98 1.236 . S
O113 Tb89 2.341 1_565 S
O113 C98 1.266 . S
O114 Tb89 2.484 . S
O114 C99 1.248 . S
O115 Tb89 2.440 . S
O115 C99 1.266 . S
O116 Tb88 2.325 1_565 S
O116 Tb89 2.658 1_665 S
O116 C106 1.281 . S
O117 Tb89 2.409 1_565 S
O117 C106 1.254 1_455 S
O118 Tb89 2.378 . S
O118 C107 1.236 1_455 S
O119 Tb88 2.341 . S
O119 C107 1.266 . S
H120 C92 0.929 . S
H121 C93 0.931 . S
H122 C95 0.930 . S
H123 C96 0.930 . S
H124 C101 0.929 . S
H125 C102 0.931 . S
H126 C104 0.930 . S
H127 C105 0.930 . S
Tb128 C130 2.809 . S
Tb128 O148 2.484 . S
Tb128 O149 2.440 . S
Tb128 O150 2.658 1_545 S
Tb128 O151 2.409 1_545 S
Tb128 O152 2.378 . S
Tb128 O156 2.325 . S
Tb128 O159 2.341 . S
Tb129 C139 2.809 1_544 S
Tb129 O150 2.325 1_545 S
Tb129 O153 2.341 . S
Tb129 O154 2.484 1_545 S
Tb129 O155 2.440 1_554 S
Tb129 O156 2.658 . S
Tb129 O157 2.409 1_554 S
Tb129 O158 2.378 1_554 S
C130 Tb128 2.809 . S
C130 C131 1.514 . S
C130 O148 1.248 . S
C130 O149 1.266 . S
C131 C130 1.514 . S
C131 C132 1.359 . S
C131 C136 1.348 . S
C132 C131 1.359 . S
C132 C133 1.380 . S
C132 H160 0.929 . S
C133 C132 1.380 . S
C133 C134 1.347 . S
C133 H161 0.931 . S
C134 C133 1.347 . S
C134 C135 1.369 . S
C135 C134 1.369 . S
C135 C136 1.408 . S
C135 H162 0.930 . S
C136 C131 1.348 . S
C136 C135 1.408 . S
C136 H163 0.930 . S
C137 O150 1.281 . S
C137 O151 1.254 . S
C138 O152 1.236 . S
C138 O153 1.266 . S
C139 Tb129 2.809 1_566 S
C139 C140 1.514 . S
C139 O154 1.248 1_556 S
C139 O155 1.266 1_565 S
C140 C139 1.514 . S
C140 C141 1.359 . S
C140 C145 1.348 . S
C141 C140 1.359 . S
C141 C142 1.380 . S
C141 H164 0.929 . S
C142 C141 1.380 . S
C142 C143 1.347 . S
C142 H165 0.931 . S
C143 C142 1.347 . S
C143 C144 1.369 . S
C144 C143 1.369 . S
C144 C145 1.408 . S
C144 H166 0.930 . S
C145 C140 1.348 . S
C145 C144 1.408 . S
C145 H167 0.930 . S
C146 O156 1.281 . S
C146 O157 1.254 1_554 S
C147 O158 1.236 1_564 S
C147 O159 1.266 1_565 S
O148 Tb128 2.484 . S
O148 C130 1.248 . S
O149 Tb128 2.440 . S
O149 C130 1.266 . S
O150 Tb128 2.658 1_565 S
O150 Tb129 2.325 1_565 S
O150 C137 1.281 . S
O151 Tb128 2.409 1_565 S
O151 C137 1.254 . S
O152 Tb128 2.378 . S
O152 C138 1.236 . S
O153 Tb129 2.341 . S
O153 C138 1.266 . S
O154 Tb129 2.484 1_565 S
O154 C139 1.248 1_554 S
O155 Tb129 2.440 1_556 S
O155 C139 1.266 1_545 S
O156 Tb128 2.325 . S
O156 Tb129 2.658 . S
O156 C146 1.281 . S
O157 Tb129 2.409 1_556 S
O157 C146 1.254 1_556 S
O158 Tb129 2.378 1_556 S
O158 C147 1.236 1_546 S
O159 Tb128 2.341 . S
O159 C147 1.266 1_545 S
H160 C132 0.929 . S
H161 C133 0.931 . S
H162 C135 0.930 . S
H163 C136 0.930 . S
H164 C141 0.929 . S
H165 C142 0.931 . S
H166 C144 0.930 . S
H167 C145 0.930 . S
Tb168 C170 2.809 . S
Tb168 O188 2.484 . S
Tb168 O189 2.440 . S
Tb168 O190 2.658 . S
Tb168 O191 2.409 . S
Tb168 O192 2.378 . S
Tb168 O196 2.325 . S
Tb168 O199 2.341 . S
Tb169 C179 2.809 . S
Tb169 O190 2.325 . S
Tb169 O193 2.341 . S
Tb169 O194 2.484 . S
Tb169 O195 2.440 . S
Tb169 O196 2.658 . S
Tb169 O197 2.409 . S
Tb169 O198 2.378 . S
C170 Tb168 2.809 . S
C170 C171 1.514 . S
C170 O188 1.248 . S
C170 O189 1.266 . S
C171 C170 1.514 . S
C171 C172 1.359 . S
C171 C176 1.348 . S
C172 C171 1.359 . S
C172 C173 1.380 . S
C172 H200 0.929 . S
C173 C172 1.380 . S
C173 C174 1.347 . S
C173 H201 0.931 . S
C174 C173 1.347 . S
C174 C175 1.369 . S
C175 C174 1.369 . S
C175 C176 1.408 . S
C175 H202 0.930 . S
C176 C171 1.348 . S
C176 C175 1.408 . S
C176 H203 0.930 . S
C177 O190 1.281 . S
C177 O191 1.254 . S
C178 O192 1.236 . S
C178 O193 1.266 . S
C179 Tb169 2.809 . S
C179 C180 1.514 . S
C179 O194 1.248 . S
C179 O195 1.266 . S
C180 C179 1.514 . S
C180 C181 1.359 . S
C180 C185 1.348 . S
C181 C180 1.359 . S
C181 C182 1.380 . S
C181 H204 0.929 . S
C182 C181 1.380 . S
C182 C183 1.347 . S
C182 H205 0.931 . S
C183 C182 1.347 . S
C183 C184 1.369 . S
C184 C183 1.369 . S
C184 C185 1.408 . S
C184 H206 0.930 . S
C185 C180 1.348 . S
C185 C184 1.408 . S
C185 H207 0.930 . S
C186 O196 1.281 . S
C186 O197 1.254 . S
C187 O198 1.236 . S
C187 O199 1.266 . S
O188 Tb168 2.484 . S
O188 C170 1.248 . S
O189 Tb168 2.440 . S
O189 C170 1.266 . S
O190 Tb168 2.658 . S
O190 Tb169 2.325 . S
O190 C177 1.281 . S
O191 Tb168 2.409 . S
O191 C177 1.254 . S
O192 Tb168 2.378 . S
O192 C178 1.236 . S
O193 Tb169 2.341 . S
O193 C178 1.266 . S
O194 Tb169 2.484 . S
O194 C179 1.248 . S
O195 Tb169 2.440 . S
O195 C179 1.266 . S
O196 Tb168 2.325 . S
O196 Tb169 2.658 . S
O196 C186 1.281 . S
O197 Tb169 2.409 . S
O197 C186 1.254 . S
O198 Tb169 2.378 . S
O198 C187 1.236 . S
O199 Tb168 2.341 . S
O199 C187 1.266 . S
H200 C172 0.929 . S
H201 C173 0.931 . S
H202 C175 0.930 . S
H203 C176 0.930 . S
H204 C181 0.929 . S
H205 C182 0.931 . S
H206 C184 0.930 . S
H207 C185 0.930 . S
Tb208 C210 2.809 1_455 S
Tb208 O228 2.484 1_455 S
Tb208 O229 2.440 . S
Tb208 O230 2.658 1_556 S
Tb208 O231 2.409 1_556 S
Tb208 O232 2.378 1_556 S
Tb208 O236 2.325 1_455 S
Tb208 O239 2.341 . S
Tb209 C219 2.809 . S
Tb209 O230 2.325 . S
Tb209 O233 2.341 1_455 S
Tb209 O234 2.484 . S
Tb209 O235 2.440 . S
Tb209 O236 2.658 1_454 S
Tb209 O237 2.409 1_455 S
Tb209 O238 2.378 1_554 S
C210 Tb208 2.809 1_655 S
C210 C211 1.514 . S
C210 O228 1.248 . S
C210 O229 1.266 1_655 S
C211 C210 1.514 . S
C211 C212 1.359 . S
C211 C216 1.348 . S
C212 C211 1.359 . S
C212 C213 1.380 . S
C212 H240 0.929 . S
C213 C212 1.380 . S
C213 C214 1.347 . S
C213 H241 0.931 . S
C214 C213 1.347 . S
C214 C215 1.369 . S
C215 C214 1.369 . S
C215 C216 1.408 . S
C215 H242 0.930 . S
C216 C211 1.348 . S
C216 C215 1.408 . S
C216 H243 0.930 1_655 S
C217 O230 1.281 . S
C217 O231 1.254 . S
C218 O232 1.236 1_655 S
C218 O233 1.266 . S
C219 Tb209 2.809 . S
C219 C220 1.514 . S
C219 O234 1.248 . S
C219 O235 1.266 . S
C220 C219 1.514 . S
C220 C221 1.359 . S
C220 C225 1.348 . S
C221 C220 1.359 . S
C221 C222 1.380 . S
C221 H244 0.929 . S
C222 C221 1.380 . S
C222 C223 1.347 . S
C222 H245 0.931 . S
C223 C222 1.347 . S
C223 C224 1.369 . S
C224 C223 1.369 . S
C224 C225 1.408 . S
C224 H246 0.930 . S
C225 C220 1.348 . S
C225 C224 1.408 . S
C225 H247 0.930 . S
C226 O236 1.281 . S
C226 O237 1.254 1_556 S
C227 O238 1.236 . S
C227 O239 1.266 . S
O228 Tb208 2.484 1_655 S
O228 C210 1.248 . S
O229 Tb208 2.440 . S
O229 C210 1.266 1_455 S
O230 Tb208 2.658 1_554 S
O230 Tb209 2.325 . S
O230 C217 1.281 . S
O231 Tb208 2.409 1_554 S
O231 C217 1.254 . S
O232 Tb208 2.378 1_554 S
O232 C218 1.236 1_455 S
O233 Tb209 2.341 1_655 S
O233 C218 1.266 . S
O234 Tb209 2.484 . S
O234 C219 1.248 . S
O235 Tb209 2.440 . S
O235 C219 1.266 . S
O236 Tb208 2.325 1_655 S
O236 Tb209 2.658 1_656 S
O236 C226 1.281 . S
O237 Tb209 2.409 1_655 S
O237 C226 1.254 1_554 S
O238 Tb209 2.378 1_556 S
O238 C227 1.236 . S
O239 Tb208 2.341 . S
O239 C227 1.266 . S
H240 C212 0.929 . S
H241 C213 0.931 . S
H242 C215 0.930 . S
H243 C216 0.930 1_455 S
H244 C221 0.929 . S
H245 C222 0.931 . S
H246 C224 0.930 . S
H247 C225 0.930 . S
C248 C249 1.369 . S
C248 C250 1.419 . S
C248 H252 0.930 . S
C249 C248 1.369 . S
C249 C258 1.429 . S
C250 C248 1.419 . S
C250 C251 1.363 . S
C250 H253 0.929 . S
C251 C250 1.363 . S
C251 C257 1.428 . S
H252 C248 0.930 . S
H253 C250 0.929 . S
S254 N255 1.613 . S
S254 N256 1.610 . S
N255 S254 1.613 . S
N255 C258 1.350 . S
N256 S254 1.610 . S
N256 C257 1.351 . S
C257 C251 1.428 . S
C257 N256 1.351 . S
C257 C258 1.434 . S
C258 C249 1.429 . S
C258 N255 1.350 . S
C258 C257 1.434 . S
C259 C260 1.369 . S
C259 C261 1.419 . S
C259 H263 0.930 . S
C260 C259 1.369 . S
C260 C269 1.429 . S
C261 C259 1.419 . S
C261 C262 1.363 . S
C261 H264 0.929 . S
C262 C261 1.363 . S
C262 C268 1.428 . S
H263 C259 0.930 . S
H264 C261 0.929 . S
S265 N266 1.613 . S
S265 N267 1.610 . S
N266 S265 1.613 . S
N266 C269 1.350 . S
N267 S265 1.610 . S
N267 C268 1.351 . S
C268 C262 1.428 . S
C268 N267 1.351 . S
C268 C269 1.434 . S
C269 C260 1.429 . S
C269 N266 1.350 . S
C269 C268 1.434 . S
C270 C271 1.369 . S
C270 C272 1.419 . S
C270 H274 0.930 . S
C271 C270 1.369 . S
C271 C280 1.429 . S
C272 C270 1.419 . S
C272 C273 1.363 . S
C272 H275 0.929 . S
C273 C272 1.363 . S
C273 C279 1.428 . S
H274 C270 0.930 . S
H275 C272 0.929 . S
S276 N277 1.613 . S
S276 N278 1.610 . S
N277 S276 1.613 . S
N277 C280 1.350 . S
N278 S276 1.610 . S
N278 C279 1.351 . S
C279 C273 1.428 . S
C279 N278 1.351 . S
C279 C280 1.434 . S
C280 C271 1.429 . S
C280 N277 1.350 . S
C280 C279 1.434 . S
C281 C282 1.369 . S
C281 C283 1.419 . S
C281 H285 0.930 . S
C282 C281 1.369 . S
C282 C291 1.429 . S
C283 C281 1.419 . S
C283 C284 1.363 . S
C283 H286 0.927 1_655 S
C284 C283 1.363 . S
C284 C290 1.428 . S
H285 C281 0.930 . S
H286 C283 0.927 1_455 S
S287 N288 1.613 . S
S287 N289 1.610 . S
N288 S287 1.613 . S
N288 C291 1.350 . S
N289 S287 1.610 . S
N289 C290 1.351 . S
C290 C284 1.428 . S
C290 N289 1.351 . S
C290 C291 1.434 . S
C291 C282 1.429 . S
C291 N288 1.350 . S
C291 C290 1.434 . S
C292 C293 1.369 . S
C292 C294 1.419 . S
C292 H296 0.930 . S
C293 C292 1.369 . S
C293 C302 1.429 . S
C294 C292 1.419 . S
C294 C295 1.363 . S
C294 H297 0.929 . S
C295 C294 1.363 . S
C295 C301 1.428 . S
H296 C292 0.930 . S
H297 C294 0.929 . S
S298 N299 1.613 . S
S298 N300 1.610 . S
N299 S298 1.613 . S
N299 C302 1.350 . S
N300 S298 1.610 . S
N300 C301 1.351 . S
C301 C295 1.428 . S
C301 N300 1.351 . S
C301 C302 1.434 . S
C302 C293 1.429 . S
C302 N299 1.350 . S
C302 C301 1.434 . S
C303 C304 1.369 . S
C303 C305 1.419 . S
C303 H307 0.930 1_455 S
C304 C303 1.369 . S
C304 C313 1.429 . S
C305 C303 1.419 . S
C305 C306 1.363 . S
C305 H308 0.929 . S
C306 C305 1.363 . S
C306 C312 1.428 . S
H307 C303 0.930 1_655 S
H308 C305 0.929 . S
S309 N310 1.613 . S
S309 N311 1.610 . S
N310 S309 1.613 . S
N310 C313 1.350 . S
N311 S309 1.610 . S
N311 C312 1.351 . S
C312 C306 1.428 . S
C312 N311 1.351 . S
C312 C313 1.434 . S
C313 C304 1.429 . S
C313 N310 1.350 . S
C313 C312 1.434 . S
C314 C315 1.369 . S
C314 C316 1.419 . S
C314 H318 0.930 . S
C315 C314 1.369 . S
C315 C324 1.429 . S
C316 C314 1.419 . S
C316 C317 1.363 . S
C316 H319 0.929 . S
C317 C316 1.363 . S
C317 C323 1.428 . S
H318 C314 0.930 . S
H319 C316 0.929 . S
S320 N321 1.613 . S
S320 N322 1.610 . S
N321 S320 1.613 . S
N321 C324 1.350 . S
N322 S320 1.610 . S
N322 C323 1.351 . S
C323 C317 1.428 . S
C323 N322 1.351 . S
C323 C324 1.434 . S
C324 C315 1.429 . S
C324 N321 1.350 . S
C324 C323 1.434 . S
C325 C326 1.369 . S
C325 C327 1.419 . S
C325 H329 0.930 . S
C326 C325 1.369 . S
C326 C335 1.429 . S
C327 C325 1.419 . S
C327 C328 1.363 . S
C327 H330 0.929 . S
C328 C327 1.363 . S
C328 C334 1.428 . S
H329 C325 0.930 . S
H330 C327 0.929 . S
S331 N332 1.613 . S
S331 N333 1.610 . S
N332 S331 1.613 . S
N332 C335 1.350 . S
N333 S331 1.610 . S
N333 C334 1.351 . S
C334 C328 1.428 . S
C334 N333 1.351 . S
C334 C335 1.434 . S
C335 C326 1.429 . S
C335 N332 1.350 . S
C335 C334 1.434 . S
C336 C337 1.369 . S
C336 C338 1.419 . S
C336 H340 0.930 . S
C337 C336 1.369 . S
C337 C346 1.429 . S
C338 C336 1.419 . S
C338 C339 1.363 . S
C338 H341 0.929 . S
C339 C338 1.363 . S
C339 C345 1.428 . S
H340 C336 0.930 . S
H341 C338 0.929 . S
S342 N343 1.613 . S
S342 N344 1.610 . S
N343 S342 1.613 . S
N343 C346 1.350 . S
N344 S342 1.610 . S
N344 C345 1.351 . S
C345 C339 1.428 . S
C345 N344 1.351 . S
C345 C346 1.434 . S
C346 C337 1.429 . S
C346 N343 1.350 . S
C346 C345 1.434 . S
C347 C348 1.369 . S
C347 C349 1.419 . S
C347 H351 0.930 . S
C348 C347 1.369 . S
C348 C357 1.429 . S
C349 C347 1.419 . S
C349 C350 1.363 . S
C349 H352 0.929 1_556 S
C350 C349 1.363 . S
C350 C356 1.428 . S
H351 C347 0.930 . S
H352 C349 0.929 1_554 S
S353 N354 1.613 . S
S353 N355 1.610 . S
N354 S353 1.613 . S
N354 C357 1.350 . S
N355 S353 1.610 . S
N355 C356 1.351 . S
C356 C350 1.428 . S
C356 N355 1.351 . S
C356 C357 1.434 . S
C357 C348 1.429 . S
C357 N354 1.350 . S
C357 C356 1.434 . S
C358 C359 1.369 . S
C358 C360 1.419 . S
C358 H362 0.930 . S
C359 C358 1.369 . S
C359 C368 1.429 . S
C360 C358 1.419 . S
C360 C361 1.363 . S
C360 H363 0.929 . S
C361 C360 1.363 . S
C361 C367 1.428 . S
H362 C358 0.930 . S
H363 C360 0.929 . S
S364 N365 1.613 . S
S364 N366 1.610 . S
N365 S364 1.613 . S
N365 C368 1.350 . S
N366 S364 1.610 . S
N366 C367 1.351 . S
C367 C361 1.428 . S
C367 N366 1.351 . S
C367 C368 1.434 . S
C368 C359 1.429 . S
C368 N365 1.350 . S
C368 C367 1.434 . S
C369 C370 1.369 . S
C369 C371 1.419 . S
C369 H373 0.930 . S
C370 C369 1.369 . S
C370 C379 1.429 . S
C371 C369 1.419 . S
C371 C372 1.363 . S
C371 H374 0.929 . S
C372 C371 1.363 . S
C372 C378 1.428 . S
H373 C369 0.930 . S
H374 C371 0.929 . S
S375 N376 1.613 . S
S375 N377 1.610 . S
N376 S375 1.613 . S
N376 C379 1.350 . S
N377 S375 1.610 . S
N377 C378 1.351 . S
C378 C372 1.428 . S
C378 N377 1.351 . S
C378 C379 1.434 . S
C379 C370 1.429 . S
C379 N376 1.350 . S
C379 C378 1.434 . S
C380 C381 1.369 . S
C380 C382 1.419 . S
C380 H384 0.930 . S
C381 C380 1.369 . S
C381 C390 1.429 . S
C382 C380 1.419 . S
C382 C383 1.363 . S
C382 H385 0.929 . S
C383 C382 1.363 . S
C383 C389 1.428 . S
H384 C380 0.930 . S
H385 C382 0.929 . S
S386 N387 1.613 . S
S386 N388 1.610 . S
N387 S386 1.613 . S
N387 C390 1.350 . S
N388 S386 1.610 . S
N388 C389 1.351 . S
C389 C383 1.428 . S
C389 N388 1.351 . S
C389 C390 1.434 . S
C390 C381 1.429 . S
C390 N387 1.350 . S
C390 C389 1.434 . S
C391 C392 1.369 . S
C391 C393 1.419 . S
C391 H395 0.930 . S
C392 C391 1.369 . S
C392 C401 1.429 . S
C393 C391 1.419 . S
C393 C394 1.363 . S
C393 H396 0.929 . S
C394 C393 1.363 . S
C394 C400 1.428 . S
H395 C391 0.930 . S
H396 C393 0.929 . S
S397 N398 1.613 . S
S397 N399 1.610 . S
N398 S397 1.613 . S
N398 C401 1.350 . S
N399 S397 1.610 . S
N399 C400 1.351 . S
C400 C394 1.428 . S
C400 N399 1.351 . S
C400 C401 1.434 . S
C401 C392 1.429 . S
C401 N398 1.350 . S
C401 C400 1.434 . S
C402 C403 1.369 . S
C402 C404 1.419 . S
C402 H406 0.930 . S
C403 C402 1.369 . S
C403 C412 1.429 . S
C404 C402 1.419 . S
C404 C405 1.363 . S
C404 H407 0.929 . S
C405 C404 1.363 . S
C405 C411 1.428 . S
H406 C402 0.930 . S
H407 C404 0.929 . S
S408 N409 1.613 . S
S408 N410 1.610 . S
N409 S408 1.613 . S
N409 C412 1.350 . S
N410 S408 1.610 . S
N410 C411 1.351 . S
C411 C405 1.428 . S
C411 N410 1.351 . S
C411 C412 1.434 . S
C412 C403 1.429 . S
C412 N409 1.350 . S
C412 C411 1.434 . S
C413 C414 1.369 . S
C413 C415 1.419 . S
C413 H417 0.930 . S
C414 C413 1.369 . S
C414 C423 1.429 . S
C415 C413 1.419 . S
C415 C416 1.363 . S
C415 H418 0.929 . S
C416 C415 1.363 . S
C416 C422 1.428 . S
H417 C413 0.930 . S
H418 C415 0.929 . S
S419 N420 1.613 . S
S419 N421 1.610 . S
N420 S419 1.613 . S
N420 C423 1.350 . S
N421 S419 1.610 . S
N421 C422 1.351 . S
C422 C416 1.428 . S
C422 N421 1.351 . S
C422 C423 1.434 . S
C423 C414 1.429 . S
C423 N420 1.350 . S
C423 C422 1.434 . S
C424 C425 1.369 . S
C424 C426 1.419 . S
C424 H428 0.930 . S
C425 C424 1.369 . S
C425 C434 1.429 . S
C426 C424 1.419 . S
C426 C427 1.363 . S
C426 H429 0.929 . S
C427 C426 1.363 . S
C427 C433 1.428 . S
H428 C424 0.930 . S
H429 C426 0.929 . S
S430 N431 1.613 . S
S430 N432 1.616 . S
N431 S430 1.613 . S
N431 C434 1.350 . S
N432 S430 1.616 . S
N432 C433 1.362 . S
C433 C427 1.428 . S
C433 N432 1.362 . S
C433 C434 1.434 . S
C434 C425 1.429 . S
C434 N431 1.350 . S
C434 C433 1.434 . S
C435 C436 1.369 1_655 S
C435 C437 1.419 . S
C435 H439 0.930 . S
C436 C435 1.369 1_455 S
C436 C445 1.429 . S
C437 C435 1.419 . S
C437 C438 1.363 . S
C437 H440 0.929 . S
C438 C437 1.363 . S
C438 C444 1.428 1_655 S
H439 C435 0.930 . S
H440 C437 0.929 . S
S441 N442 1.613 . S
S441 N443 1.610 . S
N442 S441 1.613 . S
N442 C445 1.350 . S
N443 S441 1.610 . S
N443 C444 1.351 . S
C444 C438 1.428 1_455 S
C444 N443 1.351 . S
C444 C445 1.434 . S
C445 C436 1.429 . S
C445 N442 1.350 . S
C445 C444 1.434 . S
C446 C447 1.369 . S
C446 C448 1.419 . S
C446 H450 0.930 . S
C447 C446 1.369 . S
C447 C456 1.429 . S
C448 C446 1.419 . S
C448 C449 1.363 . S
C448 H451 0.929 . S
C449 C448 1.363 . S
C449 C455 1.428 . S
H450 C446 0.930 . S
H451 C448 0.929 . S
S452 N453 1.613 . S
S452 N454 1.610 . S
N453 S452 1.613 . S
N453 C456 1.350 . S
N454 S452 1.610 . S
N454 C455 1.351 . S
C455 C449 1.428 . S
C455 N454 1.351 . S
C455 C456 1.434 . S
C456 C447 1.429 . S
C456 N453 1.350 . S
C456 C455 1.434 . S
C457 C458 1.369 . S
C457 C459 1.419 . S
C457 H461 0.930 . S
C458 C457 1.369 . S
C458 C467 1.429 . S
C459 C457 1.419 . S
C459 C460 1.363 . S
C459 H462 0.929 . S
C460 C459 1.363 . S
C460 C466 1.428 . S
H461 C457 0.930 . S
H462 C459 0.929 . S
S463 N464 1.613 . S
S463 N465 1.610 . S
N464 S463 1.613 . S
N464 C467 1.350 . S
N465 S463 1.610 . S
N465 C466 1.351 . S
C466 C460 1.428 . S
C466 N465 1.351 . S
C466 C467 1.434 . S
C467 C458 1.429 . S
C467 N464 1.350 . S
C467 C466 1.434 . S
C468 C469 1.369 . S
C468 C470 1.419 . S
C468 H472 0.930 . S
C469 C468 1.369 . S
C469 C478 1.429 . S
C470 C468 1.419 . S
C470 C471 1.363 . S
C470 H473 0.929 . S
C471 C470 1.363 . S
C471 C477 1.428 . S
H472 C468 0.930 . S
H473 C470 0.929 . S
S474 N475 1.613 . S
S474 N476 1.610 . S
N475 S474 1.613 . S
N475 C478 1.350 . S
N476 S474 1.610 . S
N476 C477 1.351 . S
C477 C471 1.428 . S
C477 N476 1.351 . S
C477 C478 1.434 . S
C478 C469 1.429 . S
C478 N475 1.350 . S
C478 C477 1.434 . S
C479 C480 1.369 . S
C479 C481 1.419 . S
C479 H483 0.930 . S
C480 C479 1.369 . S
C480 C489 1.429 . S
C481 C479 1.419 . S
C481 C482 1.363 . S
C481 H484 0.929 . S
C482 C481 1.363 . S
C482 C488 1.428 . S
H483 C479 0.930 . S
H484 C481 0.929 . S
S485 N486 1.613 . S
S485 N487 1.610 . S
N486 S485 1.613 . S
N486 C489 1.350 . S
N487 S485 1.610 . S
N487 C488 1.351 . S
C488 C482 1.428 . S
C488 N487 1.351 . S
C488 C489 1.434 . S
C489 C480 1.429 . S
C489 N486 1.350 . S
C489 C488 1.434 . S
C490 C491 1.369 . S
C490 C492 1.419 . S
C490 H494 0.930 . S
C491 C490 1.369 . S
C491 C500 1.429 . S
C492 C490 1.419 . S
C492 C493 1.363 . S
C492 H495 0.929 . S
C493 C492 1.363 . S
C493 C499 1.428 . S
H494 C490 0.930 . S
H495 C492 0.929 . S
S496 N497 1.613 . S
S496 N498 1.610 . S
N497 S496 1.613 . S
N497 C500 1.350 . S
N498 S496 1.610 . S
N498 C499 1.351 . S
C499 C493 1.428 . S
C499 N498 1.351 . S
C499 C500 1.434 . S
C500 C491 1.429 . S
C500 N497 1.350 . S
C500 C499 1.434 . S
C501 C502 1.369 . S
C501 C503 1.419 . S
C501 H505 0.930 . S
C502 C501 1.369 . S
C502 C511 1.429 . S
C503 C501 1.419 . S
C503 C504 1.363 . S
C503 H506 0.929 . S
C504 C503 1.363 . S
C504 C510 1.428 . S
H505 C501 0.930 . S
H506 C503 0.929 . S
S507 N508 1.613 . S
S507 N509 1.610 . S
N508 S507 1.613 . S
N508 C511 1.350 . S
N509 S507 1.610 . S
N509 C510 1.351 . S
C510 C504 1.428 . S
C510 N509 1.351 . S
C510 C511 1.434 . S
C511 C502 1.429 . S
C511 N508 1.350 . S
C511 C510 1.434 . S
C249 C5 1.180 . S
C251 C103 1.364 . S
C260 C18 1.140 . S
C262 C143 1.187 . S
C273 C177 2.259 . S
C271 C30 2.265 . S
C282 C41 2.417 . S
C284 C218 2.367 . S
C295 C138 1.471 . S
C293 C7 1.330 . S
C306 C98 2.164 . S
C304 C16 2.133 . S
C317 C226 1.752 . S
C315 C29 1.743 . S
C328 C187 1.541 . S
C326 C38 1.277 . S
C337 C8 1.498 . S
C339 C223 1.592 . S
C350 C146 2.257 1_556 S
C348 C27 2.102 . S
C359 C40 2.493 . S
C361 C106 2.412 . S
C370 C19 1.567 . S
C372 C174 1.597 . S
C383 C94 1.396 . S
C381 C51 1.163 . S
C392 C62 1.603 . S
C394 C134 1.499 . S
C403 C74 2.432 . S
C405 C186 2.462 . S
C414 C84 2.359 . S
C416 C227 2.409 . S
C425 C49 1.319 . S
C427 C147 1.842 1_556 S
C438 C107 2.250 . S
C436 C63 2.147 . S
C449 C217 1.596 . S
C447 C71 1.468 . S
C460 C178 1.720 . S
C458 C85 1.825 . S
C469 C52 1.514 . S
C471 C214 1.678 . S
C482 C137 2.339 . S
C480 C73 2.425 . S
C493 C97 2.121 . S
C491 C82 2.085 . S
C502 C60 1.586 . S
C504 C183 1.681 . S
