# Generated by pormake.
# Topology pth, (4,4)-cn, num edge types: 1
# Building blocks:
#     Node 0, Type 0, BuildingBlock: UXUYUI_clean_sbu_0, # of connection points: 4
#     Node 1, Type 0, BuildingBlock: UXUYUI_clean_sbu_0, # of connection points: 4
#     Node 2, Type 0, BuildingBlock: UXUYUI_clean_sbu_0, # of connection points: 4
#     Node 3, Type 1, BuildingBlock: NAWXER_clean_sbu_0, # of connection points: 4
#     Node 4, Type 1, BuildingBlock: NAWXER_clean_sbu_0, # of connection points: 4
#     Node 5, Type 1, BuildingBlock: NAWXER_clean_sbu_0, # of connection points: 4
#     Edge 6, Type (0, 1), BuildingBlock: UVAHIK_clean_linker_0, # of connection points: 2
#     Edge 7, Type (0, 1), BuildingBlock: UVAHIK_clean_linker_0, # of connection points: 2
#     Edge 8, Type (0, 1), BuildingBlock: UVAHIK_clean_linker_0, # of connection points: 2
#     Edge 9, Type (0, 1), BuildingBlock: UVAHIK_clean_linker_0, # of connection points: 2
#     Edge 10, Type (0, 1), BuildingBlock: UVAHIK_clean_linker_0, # of connection points: 2
#     Edge 11, Type (0, 1), BuildingBlock: UVAHIK_clean_linker_0, # of connection points: 2
#     Edge 12, Type (0, 1), BuildingBlock: UVAHIK_clean_linker_0, # of connection points: 2
#     Edge 13, Type (0, 1), BuildingBlock: UVAHIK_clean_linker_0, # of connection points: 2
#     Edge 14, Type (0, 1), BuildingBlock: UVAHIK_clean_linker_0, # of connection points: 2
#     Edge 15, Type (0, 1), BuildingBlock: UVAHIK_clean_linker_0, # of connection points: 2
#     Edge 16, Type (0, 1), BuildingBlock: UVAHIK_clean_linker_0, # of connection points: 2
#     Edge 17, Type (0, 1), BuildingBlock: UVAHIK_clean_linker_0, # of connection points: 2
# Relax obj value: 0.086
# Max RMSD: 0.218
# Mean RMSD: 0.120
data_MOF--net-pth--node1-UXUYUI_clean_sbu_0--node2-NAWXER_clean_sbu_0--edge1-UVAHIK_clean_linker_0
_symmetry_space_group_name_H-M    P1
_symmetry_Int_Tables_number       1
_symmetry_cell_setting            triclinic
loop_
_symmetry_equiv_pos_as_xyz
'x, y, z'
_cell_length_a     34.946395
_cell_length_b     34.980913
_cell_length_c     87.747766
_cell_angle_alpha  89.978631
_cell_angle_beta   90.01354
_cell_angle_gamma 119.96576
loop_
_atom_site_label
_atom_site_type_symbol
_atom_site_fract_x
_atom_site_fract_y
_atom_site_fract_z
_atom_type_partial_charge
Li0 Li 0.03619 0.03093 0.06675 0.0
Li1 Li 0.98599 0.03118 0.08789 0.0
Li2 Li 0.00617 0.97458 0.0866 0.0
Li3 Li 0.95776 0.97439 0.06795 0.0
C4 C 0.07617 0.03869 0.09925 0.0
N5 N 0.13386 0.0343 0.11977 0.0
C6 C 0.06884 0.03857 0.11491 0.0
C7 C 0.11313 0.03713 0.09403 0.0
C8 C 0.0983 0.03618 0.1251 0.0
C9 C 0.14184 0.03478 0.10458 0.0
C10 C 0.95024 0.03883 0.05717 0.0
C11 C 0.87741 0.03009 0.05571 0.0
N12 N 0.88107 0.03351 0.04027 0.0
C13 C 0.95336 0.04231 0.0413 0.0
C14 C 0.91203 0.0327 0.06446 0.0
C15 C 0.918 0.03953 0.03296 0.0
C16 C 0.07518 0.06247 0.03824 0.0
N17 N 0.0817 0.0694 0.05348 0.0
C18 C 0.14613 0.13949 0.04936 0.0
C19 C 0.11663 0.10654 0.0592 0.0
C20 C 0.13902 0.13429 0.03354 0.0
C21 C 0.10358 0.09475 0.02799 0.0
H22 H 0.04675 0.03271 0.03408 0.0
H23 H 0.12034 0.11148 0.07139 0.0
C24 C 0.97218 0.06181 0.11591 0.0
N25 N 0.97937 0.07069 0.10077 0.0
C26 C 0.97735 0.09485 0.12604 0.0
C27 C 0.99419 0.1444 0.10465 0.0
C28 C 0.98928 0.1106 0.09496 0.0
C29 C 0.98957 0.13709 0.12046 0.0
H30 H 0.96478 0.02982 0.12018 0.0
H31 H 0.99565 0.11687 0.08289 0.0
C32 C 0.02755 0.94328 0.05924 0.0
N33 N 0.06496 0.89491 0.0487 0.0
C34 C 0.00083 0.89853 0.05575 0.0
C35 C 0.07318 0.96361 0.05704 0.0
C36 C 0.0204 0.87459 0.05053 0.0
C37 C 0.09149 0.93854 0.0518 0.0
C38 C 0.91407 0.92574 0.09391 0.0
C39 C 0.91475 0.8891 0.08791 0.0
C40 C 0.88004 0.9196 0.10375 0.0
C41 C 0.88123 0.84678 0.09184 0.0
C42 C 0.84707 0.87673 0.1074 0.0
N43 N 0.84835 0.84151 0.10142 0.0
C44 C 0.99578 0.93084 0.11392 0.0
C45 C 0.03566 0.91347 0.09608 0.0
C46 C 0.99351 0.89898 0.12399 0.0
N47 N 0.0154 0.93659 0.10008 0.0
C48 C 0.03432 0.88126 0.10586 0.0
C49 C 0.01194 0.87289 0.11985 0.0
H50 H 0.98048 0.95009 0.11694 0.0
H51 H 0.05173 0.91888 0.08518 0.0
C52 C 0.92507 0.93057 0.04092 0.0
N53 N 0.91101 0.93688 0.05462 0.0
C54 C 0.89574 0.89777 0.03108 0.0
C55 C 0.83712 0.88024 0.0492 0.0
C56 C 0.86775 0.91359 0.05872 0.0
C57 C 0.8514 0.8711 0.03539 0.0
H58 H 0.95964 0.94988 0.03791 0.0
H59 H 0.85735 0.91945 0.06965 0.0
O60 O 0.04704 0.03978 0.08909 0.0
O61 O 0.98378 0.03996 0.06553 0.0
O62 O 0.00896 0.96742 0.0642 0.0
O63 O 0.94655 0.96757 0.09027 0.0
H64 H 0.04044 0.03975 0.11916 0.0
H65 H 0.1196 0.03772 0.08197 0.0
H66 H 0.09283 0.03571 0.13725 0.0
H67 H 0.17046 0.03335 0.10069 0.0
H68 H 0.84755 0.02518 0.06119 0.0
H69 H 0.98261 0.04679 0.03549 0.0
H70 H 0.90899 0.0295 0.07674 0.0
H71 H 0.91987 0.04202 0.02066 0.0
H72 H 0.17279 0.16968 0.05409 0.0
H73 H 0.09726 0.08936 0.01587 0.0
H74 H 0.97315 0.08788 0.13815 0.0
H75 H 0.00402 0.17661 0.09992 0.0
H76 H 0.96533 0.88242 0.05695 0.0
H77 H 0.09426 0.99838 0.0593 0.0
H78 H 0.00015 0.8399 0.04787 0.0
H79 H 0.1268 0.95381 0.05014 0.0
H80 H 0.94098 0.89336 0.08038 0.0
H81 H 0.87913 0.94769 0.1085 0.0
H82 H 0.8814 0.81813 0.08729 0.0
H83 H 0.82049 0.87146 0.11499 0.0
H84 H 0.97687 0.89436 0.13482 0.0
H85 H 0.04909 0.86194 0.10224 0.0
H86 H 0.90792 0.89256 0.02039 0.0
H87 H 0.80321 0.86046 0.05295 0.0
Li88 Li 0.98812 0.96052 0.39948 0.0
Li89 Li 0.03953 0.00832 0.41832 0.0
Li90 Li 0.96174 0.98813 0.42145 0.0
Li91 Li 0.0073 0.03882 0.40165 0.0
C92 C 0.00514 0.92596 0.42894 0.0
N93 N 0.0446 0.88499 0.4439 0.0
C94 C 0.02502 0.90639 0.42065 0.0
C95 C 0.0055 0.92474 0.44486 0.0
C96 C 0.04465 0.88573 0.42841 0.0
C97 C 0.02565 0.90394 0.45221 0.0
C98 C 0.08897 0.03204 0.39223 0.0
C99 C 0.1639 0.09281 0.39255 0.0
N100 N 0.17741 0.06726 0.38529 0.0
C101 C 0.10356 0.00643 0.3847 0.0
C102 C 0.11932 0.07562 0.39612 0.0
C103 C 0.14842 0.02482 0.38132 0.0
C104 C 0.99296 0.93015 0.37096 0.0
N105 N 0.9759 0.91551 0.38506 0.0
C106 C 0.95714 0.8419 0.37852 0.0
C107 C 0.95655 0.87208 0.38883 0.0
C108 C 0.97767 0.8568 0.36426 0.0
C109 C 0.99427 0.90126 0.36033 0.0
H110 H 0.00778 0.96487 0.36828 0.0
H111 H 0.94312 0.86139 0.40015 0.0
C112 C 0.09527 0.03346 0.44418 0.0
N113 N 0.08968 0.01648 0.42988 0.0
C114 C 0.12542 0.03147 0.45416 0.0
C115 C 0.14439 0.99581 0.43438 0.0
C116 C 0.11415 0.9987 0.42479 0.0
C117 C 0.14953 0.01132 0.4494 0.0
H118 H 0.07459 0.04636 0.44809 0.0
H119 H 0.10812 0.98387 0.41364 0.0
C120 C 0.9063 0.95339 0.39562 0.0
N121 N 0.82222 0.88749 0.388 0.0
C122 C 0.88359 0.95964 0.38366 0.0
C123 C 0.88631 0.91364 0.40371 0.0
C124 C 0.84107 0.92592 0.37999 0.0
C125 C 0.84377 0.88072 0.39968 0.0
C126 C 0.02759 0.0893 0.42646 0.0
C127 C 0.99555 0.10186 0.42783 0.0
C128 C 0.07228 0.12117 0.4276 0.0
C129 C 0.00882 0.14636 0.42995 0.0
C130 C 0.08423 0.16533 0.42974 0.0
N131 N 0.05252 0.17692 0.43083 0.0
C132 C 0.9186 0.97349 0.45012 0.0
C133 C 0.8857 0.99102 0.42969 0.0
C134 C 0.8904 0.97719 0.46055 0.0
N135 N 0.91606 0.98085 0.43505 0.0
C136 C 0.85708 0.99534 0.43971 0.0
C137 C 0.85985 0.98932 0.45541 0.0
H138 H 0.94402 0.96713 0.45417 0.0
H139 H 0.8853 0.99824 0.41774 0.0
C140 C 0.04293 0.11216 0.3805 0.0
N141 N 0.00945 0.08575 0.39008 0.0
C142 C 0.03884 0.14211 0.37102 0.0
C143 C 0.96625 0.11722 0.38157 0.0
C144 C 0.97174 0.08792 0.39081 0.0
C145 C -0.00026 0.14434 0.37132 0.0
H146 H 0.07206 0.10898 0.3798 0.0
H147 H 0.94533 0.06591 0.39833 0.0
O148 O 0.98636 0.94701 0.42152 0.0
O149 O 0.04518 0.01456 0.39567 0.0
O150 O 0.94798 0.98613 0.39929 0.0
O151 O 0.01526 0.04594 0.42425 0.0
H152 H 0.02658 0.90828 0.40836 0.0
H153 H 0.99095 0.94016 0.4515 0.0
H154 H 0.06041 0.87077 0.42212 0.0
H155 H 0.02634 0.903 0.46452 0.0
H156 H 0.18775 0.12649 0.39553 0.0
H157 H 0.08065 0.97251 0.3817 0.0
H158 H 0.10854 0.09598 0.4018 0.0
H159 H 0.1602 0.0053 0.37558 0.0
H160 H 0.94397 0.8079 0.382 0.0
H161 H 0.00947 0.9139 0.34934 0.0
H162 H 0.12808 0.04341 0.46572 0.0
H163 H 0.1625 0.98026 0.43024 0.0
H164 H 0.89867 0.99025 0.3773 0.0
H165 H 0.90333 0.90822 0.41302 0.0
H166 H 0.82308 0.93029 0.37076 0.0
H167 H 0.82788 0.8498 0.40583 0.0
H168 H 0.96082 0.07759 0.42713 0.0
H169 H 0.09748 0.11189 0.42694 0.0
H170 H 0.98437 0.15659 0.43089 0.0
H171 H 0.1187 0.19037 0.43058 0.0
H172 H 0.8941 0.97293 0.47258 0.0
H173 H 0.83386 0.00451 0.43527 0.0
H174 H 0.06524 0.16202 0.36314 0.0
H175 H 0.93582 0.1182 0.38232 0.0
Li176 Li 0.02748 0.99176 0.73514 0.0
Li177 Li 0.02792 0.03959 0.75454 0.0
Li178 Li 0.96605 0.96207 0.75244 0.0
Li179 Li 0.97158 0.01446 0.73308 0.0
C180 C 0.05228 0.9633 0.76016 0.0
N181 N 0.10062 0.9216 0.76513 0.0
C182 C 0.09276 0.9853 0.7678 0.0
C183 C 0.03622 0.92001 0.75517 0.0
C184 C 0.11675 0.96367 0.77016 0.0
C185 C 0.06119 0.89952 0.75776 0.0
C186 C 0.07247 0.07258 0.72283 0.0
C187 C 0.10228 0.08973 0.69735 0.0
N188 N 0.14386 0.10896 0.70319 0.0
C189 C 0.11552 0.09278 0.72859 0.0
C190 C 0.06578 0.07132 0.7071 0.0
C191 C 0.15116 0.11092 0.71847 0.0
C192 C 0.05499 0.96671 0.70851 0.0
N193 N 0.06752 0.98274 0.72287 0.0
C194 C 0.14222 0.00248 0.71757 0.0
C195 C 0.10997 -0.00046 0.72761 0.0
C196 C 0.13079 0.98827 0.70245 0.0
C197 C 0.08626 0.96899 0.69806 0.0
H198 H 0.02126 0.95462 0.70491 0.0
H199 H 0.11962 0.01374 0.73883 0.0
C200 C 0.06629 0.0691 0.78284 0.0
N201 N 0.06444 0.0837 0.76867 0.0
C202 C 0.09817 0.09723 0.79322 0.0
C203 C 0.12401 0.1557 0.77451 0.0
C204 C 0.09149 0.12636 0.76448 0.0
C205 C 0.12847 0.14081 0.78894 0.0
H206 H 0.04428 0.03492 0.78581 0.0
H207 H 0.08927 0.13702 0.7531 0.0
C208 C 0.93066 0.91459 0.72681 0.0
N209 N 0.8611 0.83119 0.72061 0.0
C210 C 0.88765 0.90742 0.72576 0.0
C211 C 0.93839 0.87951 0.72448 0.0
C212 C 0.8529 0.86497 0.72268 0.0
C213 C 0.90275 0.83754 0.72142 0.0
C214 C 0.95474 0.04923 0.76018 0.0
C215 C 0.92351 0.04103 0.77153 0.0
C216 C 0.97855 0.09135 0.75377 0.0
C217 C 0.91637 0.07513 0.77621 0.0
C218 C 0.97048 0.12458 0.75878 0.0
N219 N 0.93981 0.11584 0.7698 0.0
C220 C 0.92799 0.88808 0.77328 0.0
C221 C 0.88152 0.91349 0.76341 0.0
C222 C 0.89385 0.85781 0.78265 0.0
N223 N 0.92119 0.91519 0.76397 0.0
C224 C 0.84658 0.88375 0.77249 0.0
C225 C 0.85262 0.85585 0.78248 0.0
H226 H 0.96017 0.89088 0.77383 0.0
H227 H 0.87739 0.93615 0.75615 0.0
C228 C 0.93361 0.00943 0.70485 0.0
N229 N 0.93385 0.02278 0.71942 0.0
C230 C 0.90057 0.00425 0.69471 0.0
C231 C 0.86911 0.02775 0.7146 0.0
C232 C 0.90271 0.03236 0.72438 0.0
C233 C 0.86709 0.01242 0.69966 0.0
H234 H 0.95752 0.00014 0.70138 0.0
H235 H 0.9021 0.04096 0.73614 0.0
O236 O 0.02846 0.98404 0.75765 0.0
O237 O 0.03709 0.05378 0.73254 0.0
O238 O 0.96515 0.95589 0.72985 0.0
O239 O 0.96236 0.01626 0.75562 0.0
H240 H 0.10577 0.01888 0.77169 0.0
H241 H 0.00479 0.90246 0.74939 0.0
H242 H 0.14825 0.98036 0.77597 0.0
H243 H 0.04919 0.86605 0.75392 0.0
H244 H 0.09755 0.08868 0.68515 0.0
H245 H 0.12138 0.09345 0.74071 0.0
H246 H 0.03278 0.05603 0.70244 0.0
H247 H 0.18461 0.12621 0.72276 0.0
H248 H 0.17609 0.01727 0.72146 0.0
H249 H 0.07614 0.95807 0.68646 0.0
H250 H 0.09982 0.08461 0.80432 0.0
H251 H 0.14676 0.18895 0.7707 0.0
H252 H 0.88106 0.93423 0.72743 0.0
H253 H 0.97158 0.88467 0.72492 0.0
H254 H 0.81941 0.85889 0.72194 0.0
H255 H 0.90823 0.81005 0.71964 0.0
H256 H 0.90497 0.00862 0.77665 0.0
H257 H 0.00285 0.09833 0.74497 0.0
H258 H 0.89224 0.06924 0.78497 0.0
H259 H 0.98859 0.1573 0.7539 0.0
H260 H 0.90018 0.83738 0.79034 0.0
H261 H 0.81529 0.88304 0.7718 0.0
H262 H 0.90044 0.99259 0.68327 0.0
H263 H 0.84355 0.03364 0.71899 0.0
C264 C 0.03651 0.56676 0.26302 0.0
C265 C 0.05145 0.4766 0.22342 0.0
O266 O 0.07273 0.57185 0.25776 0.0
Zn267 Zn 0.04664 0.52262 0.24346 0.0
O268 O -0.00022 0.53589 0.25779 0.0
Zn269 Zn 0.97545 0.48427 0.24138 0.0
O270 O 0.94314 0.4317 0.25406 0.0
O271 O 0.01502 0.46735 0.25822 0.0
O272 O 0.01145 0.46607 0.22634 0.0
O273 O 0.08301 0.50715 0.23097 0.0
O274 O 0.01803 0.54566 0.22699 0.0
O275 O 0.94538 0.50331 0.22715 0.0
C276 C 0.97637 0.43541 0.26133 0.0
C277 C 0.98004 0.53629 0.22181 0.0
C278 C 0.52481 0.96062 0.59873 0.0
C279 C 0.43898 0.96983 0.55612 0.0
O280 O 0.49505 0.92805 0.59129 0.0
Zn281 Zn 0.4816 0.96257 0.57707 0.0
O282 O 0.53518 4e-05 0.59497 0.0
Zn283 Zn 0.51782 0.03382 0.5786 0.0
O284 O 0.49601 0.06376 0.59169 0.0
O285 O 0.45355 0.99119 0.59157 0.0
O286 O 0.46792 0.0072 0.56158 0.0
O287 O 0.4359 0.93457 0.56149 0.0
O288 O 0.54084 0.99421 0.5642 0.0
O289 O 0.57199 0.06646 0.56668 0.0
C290 C 0.46136 0.02918 0.5962 0.0
C291 C 0.57235 0.03307 0.5611 0.0
C292 C 0.42731 0.47162 0.93055 0.0
C293 C 0.52955 0.56671 0.89111 0.0
O294 O 0.42517 0.50221 0.92343 0.0
Zn295 Zn 0.47713 0.52019 0.91075 0.0
O296 O 0.45771 0.46268 0.92726 0.0
Zn297 Zn 0.51217 0.48405 0.91205 0.0
O298 O 0.56149 0.50343 0.92612 0.0
O299 O 0.52914 0.54384 0.92711 0.0
O300 O 0.53733 0.53664 0.89589 0.0
O301 O 0.49776 0.56987 0.89681 0.0
O302 O 0.45496 0.46599 0.89552 0.0
O303 O 0.49347 0.43237 0.89909 0.0
C304 C 0.55866 0.53526 0.93194 0.0
C305 C 0.46312 0.43521 0.89206 0.0
C306 C 0.02881 0.18154 0.14354 0.0
C307 C 0.00083 0.17427 0.13104 0.0
C308 C 0.04197 0.21822 0.15297 0.0
C309 C 0.04839 0.32774 0.15415 0.0
H310 H 0.05631 0.31605 0.19782 0.0
C311 C 0.03142 0.43847 0.19847 0.0
C312 C 0.05932 0.45237 0.21125 0.0
C313 C 0.03359 0.41016 0.1878 0.0
C314 C 0.05508 0.32004 0.18562 0.0
H315 H 0.96389 0.19905 0.1188 0.0
H316 H 0.98554 0.26227 0.13551 0.0
H317 H 0.03931 0.25363 0.18123 0.0
H318 H 0.11236 0.44892 0.22272 0.0
H319 H 0.11545 0.39793 0.20408 0.0
H320 H 0.06193 0.39352 0.15873 0.0
C321 C 0.9985 0.24047 0.13781 0.0
C322 C 0.04527 0.28426 0.17609 0.0
C323 C 0.98575 0.20405 0.12829 0.0
C324 C 0.09074 0.43883 0.21289 0.0
C325 C 0.09229 0.40956 0.20231 0.0
C326 C 0.05769 0.36329 0.1637 0.0
C327 C 0.02713 0.24829 0.1502 0.0
C328 C 0.04091 0.28736 0.16025 0.0
C329 C 0.06317 0.39446 0.18981 0.0
C330 C 0.06031 0.35951 0.17955 0.0
H331 H 0.04157 0.15952 0.14578 0.0
H332 H 0.06449 0.22343 0.16225 0.0
H333 H 0.04647 0.33178 0.14199 0.0
H334 H 0.00695 0.44856 0.19695 0.0
H335 H 0.01049 0.39877 0.17837 0.0
C336 C 0.81311 0.97056 0.47898 0.0
C337 C 0.83317 0.99845 0.46644 0.0
C338 C 0.78925 0.98008 0.48961 0.0
C339 C 0.73248 0.04479 0.49483 0.0
H340 H 0.73709 0.01793 0.53744 0.0
C341 C 0.63488 0.07545 0.54262 0.0
C342 C 0.60895 0.03752 0.55141 0.0
C343 C 0.66722 0.07702 0.53273 0.0
C344 C 0.73561 0.02574 0.52558 0.0
H345 H 0.84453 0.05865 0.45534 0.0
H346 H 0.80324 0.07549 0.47394 0.0
H347 H 0.78343 0.0078 0.51901 0.0
H348 H 0.59771 0.97238 0.55722 0.0
H349 H 0.65409 0.97546 0.5403 0.0
H350 H 0.68424 0.06239 0.50153 0.0
C351 C 0.80515 0.04576 0.47542 0.0
C352 C 0.76189 0.01963 0.51499 0.0
C353 C 0.82879 0.03608 0.46475 0.0
C354 C 0.61693 0.00199 0.55052 0.0
C355 C 0.64949 0.00384 0.54091 0.0
C356 C 0.70638 0.05122 0.50547 0.0
C357 C 0.78519 0.01796 0.48802 0.0
C358 C 0.75989 0.02804 0.49942 0.0
C359 C 0.67467 0.04108 0.53178 0.0
C360 C 0.70694 0.04074 0.52089 0.0
H361 H 0.81551 0.9411 0.48051 0.0
H362 H 0.77355 0.9574 0.49899 0.0
H363 H 0.72982 0.05131 0.48293 0.0
H364 H 0.62934 0.10325 0.54307 0.0
H365 H 0.68631 0.10617 0.52582 0.0
C366 C 0.79011 0.84089 0.80014 0.0
C367 C 0.81658 0.82626 0.79303 0.0
C368 C 0.7561 0.81329 0.81002 0.0
C369 C 0.6854 0.69586 0.82061 0.0
H370 H 0.6674 0.74379 0.85804 0.0
C371 C 0.5867 0.58681 0.87096 0.0
C372 C 0.55786 0.5968 0.87891 0.0
C373 C 0.61466 0.61504 0.85972 0.0
C374 C 0.67157 0.73008 0.84752 0.0
H375 H 0.82792 0.77099 0.79078 0.0
H376 H 0.76929 0.72315 0.80834 0.0
H377 H 0.72422 0.79265 0.84007 0.0
H378 H 0.53552 0.64426 0.88117 0.0
H379 H 0.58507 0.6942 0.86144 0.0
H380 H 0.63346 0.63314 0.82825 0.0
C381 C 0.77438 0.7558 0.80605 0.0
C382 C 0.70415 0.75803 0.83722 0.0
C383 C 0.80837 0.7834 0.79613 0.0
C384 C 0.55735 0.63566 0.87524 0.0
C385 C 0.58581 0.66429 0.86401 0.0
C386 C 0.65301 0.66795 0.83092 0.0
C387 C 0.7478 0.7704 0.8131 0.0
C388 C 0.71184 0.74113 0.82373 0.0
C389 C 0.61476 0.65419 0.85616 0.0
C390 C 0.64616 0.68463 0.84458 0.0
H391 H 0.79593 0.87396 0.7982 0.0
H392 H 0.73607 0.82549 0.81514 0.0
H393 H 0.68977 0.68191 0.81018 0.0
H394 H 0.58793 0.5571 0.87345 0.0
H395 H 0.63699 0.60663 0.85404 0.0
C396 C 0.04164 0.82852 0.13241 0.0
C397 C 0.00641 0.83626 0.12987 0.0
C398 C 0.03627 0.79421 0.14197 0.0
C399 C 0.95221 0.68913 0.15924 0.0
H400 H 0.04589 0.71333 0.18798 0.0
C401 C 0.93939 0.56703 0.20711 0.0
C402 C 0.978 0.56512 0.20989 0.0
C403 C 0.9401 0.59821 0.19686 0.0
C404 C 0.0196 0.70583 0.17991 0.0
H405 H 0.93753 0.81325 0.13498 0.0
H406 H 0.92839 0.75375 0.15183 0.0
H407 H 0.05299 0.77149 0.17101 0.0
H408 H 0.04672 0.59229 0.2034 0.0
H409 H 0.04764 0.64548 0.18551 0.0
H410 H 0.91894 0.62321 0.16818 0.0
C411 C 0.9601 0.77412 0.14641 0.0
C412 C 0.02371 0.7392 0.17018 0.0
C413 C 0.96552 0.80854 0.13691 0.0
C414 C 0.01656 0.59339 0.20173 0.0
C415 C 0.01719 0.62412 0.19151 0.0
C416 C 0.94812 0.65556 0.16898 0.0
C417 C 0.9955 0.76676 0.14913 0.0
C418 C 0.99031 0.73118 0.15964 0.0
C419 C 0.97938 0.62775 0.18923 0.0
C420 C 0.98206 0.66344 0.1793 0.0
H421 H 0.07356 0.84938 0.1272 0.0
H422 H 0.06405 0.78905 0.14371 0.0
H423 H 0.926 0.68189 0.15117 0.0
H424 H 0.9092 0.54564 0.21323 0.0
H425 H 0.9104 0.60023 0.19534 0.0
C426 C 0.1757 0.96278 0.46089 0.0
C427 C 0.17776 0.00395 0.46026 0.0
C428 C 0.20155 0.9553 0.47129 0.0
C429 C 0.26492 -0.00063 0.50712 0.0
H430 H 0.3214 0.93257 0.4952 0.0
C431 C 0.40944 0.00865 0.54044 0.0
C432 C 0.40806 0.96898 0.54438 0.0
C433 C 0.37907 0.00885 0.53023 0.0
C434 C 0.30533 0.95076 0.49873 0.0
H435 H 0.20885 0.06967 0.46991 0.0
H436 H 0.25464 0.05704 0.48789 0.0
H437 H 0.27315 0.94175 0.47717 0.0
H438 H 0.37421 0.89844 0.54027 0.0
H439 H 0.32102 0.89901 0.52204 0.0
H440 H 0.29814 0.00949 0.52849 0.0
C441 C 0.23236 0.03014 0.48058 0.0
C442 C 0.27769 0.95605 0.48843 0.0
C443 C 0.20628 0.03751 0.47024 0.0
C444 C 0.3761 0.92951 0.53749 0.0
C445 C 0.34577 0.92982 0.52706 0.0
C446 C 0.29273 0.99439 0.51733 0.0
C447 C 0.23018 0.98886 0.48129 0.0
C448 C 0.25769 0.98104 0.49243 0.0
C449 C 0.34661 0.96949 0.52356 0.0
C450 C 0.31378 0.97067 0.51316 0.0
H451 H 0.1534 0.936 0.45352 0.0
H452 H 0.19848 0.92294 0.47167 0.0
H453 H 0.24921 0.01782 0.51075 0.0
H454 H 0.4336 0.03977 0.54544 0.0
H455 H 0.38098 0.04 0.52755 0.0
C456 C 0.18026 0.21473 0.80055 0.0
C457 C 0.166 0.16957 0.7991 0.0
C458 C 0.21645 0.24182 0.80976 0.0
C459 C 0.28288 0.23901 0.84196 0.0
H460 H 0.36623 0.35742 0.82825 0.0
C461 C 0.43301 0.36213 0.87855 0.0
C462 C 0.43655 0.40381 0.87991 0.0
C463 C 0.40458 0.33187 0.86766 0.0
C464 C 0.34322 0.32442 0.83224 0.0
H465 H 0.1792 0.11767 0.80602 0.0
H466 H 0.24207 0.16488 0.82216 0.0
H467 H 0.30637 0.30767 0.81145 0.0
H468 H 0.41456 0.44708 0.87056 0.0
H469 H 0.3656 0.39484 0.85177 0.0
H470 H 0.31934 0.25625 0.8629 0.0
C471 C 0.22488 0.17921 0.81634 0.0
C472 C 0.30883 0.29601 0.82264 0.0
C473 C 0.18874 0.15214 0.80712 0.0
C474 C 0.41244 0.41515 0.86988 0.0
C475 C 0.38459 0.3853 0.85899 0.0
C476 C 0.31736 0.2675 0.85158 0.0
C477 C 0.23927 0.22439 0.81772 0.0
C478 C 0.2777 0.25331 0.82751 0.0
C479 C 0.37986 0.34315 0.85785 0.0
C480 C 0.34728 0.31085 0.84694 0.0
H481 H 0.16318 0.22909 0.79468 0.0
H482 H 0.22623 0.27637 0.8108 0.0
H483 H 0.25929 0.20638 0.84608 0.0
H484 H 0.45117 0.3525 0.88614 0.0
H485 H 0.40171 0.29962 0.86697 0.0
C486 C 0.81021 0.02964 0.68939 0.0
C487 C 0.82863 0.00198 0.6897 0.0
C488 C 0.77287 0.01868 0.68053 0.0
C489 C 0.70913 0.95133 0.64757 0.0
H490 H 0.61914 0.97459 0.66338 0.0
C491 C 0.55573 0.91806 0.61196 0.0
C492 C 0.54936 0.95464 0.61134 0.0
C493 C 0.5845 0.91655 0.62279 0.0
C494 C 0.64397 0.96785 0.65882 0.0
H495 H 0.82178 0.94071 0.68109 0.0
H496 H 0.75682 0.92177 0.66558 0.0
H497 H 0.68129 0.98745 0.67952 0.0
H498 H 0.56591 0.01691 0.62205 0.0
H499 H 0.61536 0.01411 0.64085 0.0
H500 H 0.67217 0.93263 0.62675 0.0
C501 C 0.77161 0.95225 0.67202 0.0
C502 C 0.67969 0.97544 0.66803 0.0
C503 C 0.80896 0.96321 0.68088 0.0
C504 C 0.57032 0.98837 0.62219 0.0
C505 C 0.59846 0.98662 0.63306 0.0
C506 C 0.67331 0.94369 0.63835 0.0
C507 C 0.75298 0.97973 0.6718 0.0
C508 C 0.71322 0.96822 0.6624 0.0
C509 C 0.6067 0.95124 0.63329 0.0
C510 C 0.64089 0.95284 0.64376 0.0
H511 H 0.82484 0.05997 0.69591 0.0
H512 H 0.75987 0.04103 0.68039 0.0
H513 H 0.73452 0.9457 0.64285 0.0
H514 H 0.5401 0.89169 0.60369 0.0
H515 H 0.59002 0.88872 0.62278 0.0
C516 C 0.83613 0.80561 0.01942 0.0
C517 C 0.82116 0.83257 0.02589 0.0
C518 C 0.80811 0.76935 0.01044 0.0
C519 C 0.69019 0.69392 0.00158 0.0
H520 H 0.73575 0.67403 0.96392 0.0
C521 C 0.57805 0.59076 0.95258 0.0
C522 C 0.58861 0.56292 0.94426 0.0
C523 C 0.60654 0.61886 0.96373 0.0
C524 C 0.72274 0.67864 0.97453 0.0
H525 H 0.76491 0.84242 0.02806 0.0
H526 H 0.71593 0.7792 0.01225 0.0
H527 H 0.78526 0.73333 0.98097 0.0
H528 H 0.6371 0.54212 0.94136 0.0
H529 H 0.68754 0.59194 0.96095 0.0
H530 H 0.62744 0.63991 0.99494 0.0
C531 C 0.74925 0.78581 0.01431 0.0
C532 C 0.75106 0.71268 0.98429 0.0
C533 C 0.77731 0.8221 0.02333 0.0
C534 C 0.6281 0.56321 0.94758 0.0
C535 C 0.657 0.59182 0.95872 0.0
C536 C 0.6619 0.65998 0.99181 0.0
C537 C 0.76439 0.7591 0.00771 0.0
C538 C 0.73493 0.72119 0.99781 0.0
C539 C 0.64652 0.62009 0.96684 0.0
C540 C 0.67768 0.65249 0.97804 0.0
H541 H 0.86946 0.8122 0.02145 0.0
H542 H 0.82059 0.74905 0.00575 0.0
H543 H 0.67693 0.69897 0.01206 0.0
H544 H 0.54779 0.59126 0.95038 0.0
H545 H 0.59777 0.64062 0.96961 0.0
C546 C 0.0257 0.84264 0.34667 0.0
C547 C 0.98471 0.8272 0.35396 0.0
C548 C 0.03312 0.81489 0.33723 0.0
C549 C 0.9747 0.71409 0.31419 0.0
H550 H 0.08515 0.71312 0.31629 0.0
C551 C 0.99576 0.58282 0.28287 0.0
C552 C 0.03528 0.59622 0.27485 0.0
C553 C 0.99193 0.61132 0.29301 0.0
C554 C 0.05437 0.71341 0.31545 0.0
H555 H 0.91941 0.77046 0.35706 0.0
H556 H 0.93243 0.72176 0.34059 0.0
H557 H 0.07322 0.76213 0.33302 0.0
H558 H 0.10246 0.64952 0.27164 0.0
H559 H 0.09559 0.70003 0.28937 0.0
H560 H 0.95582 0.66575 0.29662 0.0
C561 C 0.95871 0.75554 0.34211 0.0
C562 C 0.0475 0.7414 0.32504 0.0
C563 C 0.95134 0.78328 0.35163 0.0
C564 C 0.07161 0.63832 0.27767 0.0
C565 C 0.06766 0.66714 0.28782 0.0
C566 C 0.9816 0.68628 0.30461 0.0
C567 C -0.00029 0.77106 0.33481 0.0
C568 C 0.00743 0.74178 0.32458 0.0
C569 C 0.02739 0.65418 0.29534 0.0
C570 C 0.02131 0.68525 0.30522 0.0
H571 H 0.05237 0.87611 0.34844 0.0
H572 H 0.06491 0.82794 0.33167 0.0
H573 H 0.94387 0.71427 0.31334 0.0
H574 H 0.96732 0.55033 0.28116 0.0
H575 H 0.96086 0.59982 0.29892 0.0
C576 C 0.20534 0.03701 0.69089 0.0
C577 C 0.16561 0.99634 0.69114 0.0
C578 C 0.23804 0.04515 0.68014 0.0
C579 C 0.2552 0.00617 0.64293 0.0
H580 H 0.37814 0.06428 0.65535 0.0
C581 C 0.38716 0.9937 0.6084 0.0
C582 C 0.42889 0.03148 0.60643 0.0
C583 C 0.35597 0.99437 0.61808 0.0
C584 C 0.34404 0.04868 0.65166 0.0
H585 H 0.12914 0.93227 0.68034 0.0
H586 H 0.18638 0.9462 0.66165 0.0
H587 H 0.32154 0.05493 0.67372 0.0
H588 H 0.47049 0.09981 0.6131 0.0
H589 H 0.41557 0.10084 0.63034 0.0
H590 H 0.27758 0.99892 0.621 0.0
C591 C 0.19199 0.97213 0.66962 0.0
C592 C 0.31158 0.04325 0.66217 0.0
C593 C 0.15923 0.96404 0.68035 0.0
C594 C 0.43863 0.07021 0.61438 0.0
C595 C 0.40733 0.07074 0.62426 0.0
C596 C 0.28758 0.01147 0.63246 0.0
C597 C 0.23178 0.01281 0.66937 0.0
C598 C 0.26668 0.02121 0.65799 0.0
C599 C 0.36563 0.03276 0.62616 0.0
C600 C 0.33224 0.03202 0.63679 0.0
H601 H 0.21087 0.06294 0.69886 0.0
H602 H 0.26795 0.07706 0.68013 0.0
H603 H 0.22109 0.99 0.63922 0.0
H604 H 0.37838 0.96329 0.60244 0.0
H605 H 0.32445 0.9644 0.61947 0.0
C606 C 0.21266 0.19538 0.02473 0.0
C607 C 0.16658 0.17113 0.02303 0.0
C608 C 0.23829 0.23135 0.01524 0.0
C609 C 0.23561 0.28211 0.97838 0.0
H610 H 0.33998 0.38314 0.99498 0.0
C611 C 0.3514 0.43618 0.94213 0.0
C612 C 0.39545 0.44564 0.94262 0.0
C613 C 0.32065 0.40692 0.95272 0.0
C614 C 0.31079 0.35521 0.99022 0.0
H615 H 0.11111 0.16586 0.01021 0.0
H616 H 0.15568 0.229 0.9938 0.0
H617 H 0.29146 0.32259 0.01178 0.0
H618 H 0.44252 0.43407 0.95495 0.0
H619 H 0.38938 0.3841 0.97351 0.0
H620 H 0.25537 0.315 0.95678 0.0
C621 C 0.17223 0.21973 0.00222 0.0
C622 C 0.28318 0.32033 -0.0002 0.0
C623 C 0.14666 0.1835 0.01162 0.0
C624 C 0.40869 0.42717 0.95426 0.0
C625 C 0.37834 0.39877 0.96495 0.0
C626 C 0.26305 0.31726 0.96883 0.0
C627 C 0.21838 0.24424 0.00394 0.0
C628 C 0.24579 0.28285 0.99394 0.0
C629 C 0.33386 0.38764 0.96413 0.0
C630 C 0.30142 0.35368 0.9746 0.0
H631 H 0.22892 0.18633 0.03334 0.0
H632 H 0.27381 0.24879 0.01669 0.0
H633 H 0.20738 0.25366 0.97343 0.0
H634 H 0.34037 0.44988 0.93322 0.0
H635 H 0.28651 0.3989 0.95189 0.0
C636 C 0.02735 0.21647 0.35758 0.0
C637 C 0.99302 0.17344 0.36064 0.0
C638 C 0.02075 0.24369 0.34755 0.0
C639 C 0.95047 0.24076 0.31568 0.0
H640 H 0.00045 0.36483 0.3253 0.0
C641 C 0.93211 0.36444 0.27604 0.0
C642 C 0.97185 0.40406 0.27349 0.0
C643 C 0.92963 0.33501 0.2874 0.0
C644 C 0.98636 0.33026 0.32244 0.0
H645 H 0.92506 0.12497 0.35531 0.0
H646 H 0.91343 0.17272 0.33798 0.0
H647 H 0.00671 0.31593 0.34364 0.0
H648 H 0.03987 0.44406 0.28106 0.0
H649 H 0.03548 0.39322 0.30057 0.0
H650 H 0.93086 0.25546 0.29432 0.0
C651 C 0.94547 0.18535 0.3433 0.0
C652 C 0.99009 0.30229 0.33292 0.0
C653 C 0.95203 0.15818 0.35336 0.0
C654 C 0.00867 0.41385 0.28265 0.0
C655 C 0.00611 0.38482 0.29397 0.0
C656 C 0.94675 0.26882 0.30516 0.0
C657 C 0.97972 0.22846 0.3403 0.0
C658 C 0.97296 0.2574 0.32955 0.0
C659 C 0.96669 0.34504 0.29649 0.0
C660 C 0.9655 0.31406 0.30831 0.0
H661 H 0.05921 0.22928 0.36306 0.0
H662 H 0.04801 0.27656 0.34532 0.0
H663 H 0.93714 0.20637 0.31271 0.0
H664 H 0.9032 0.35596 0.26916 0.0
H665 H 0.89875 0.30459 0.28912 0.0
loop_
_geom_bond_atom_site_label_1
_geom_bond_atom_site_label_2
_geom_bond_distance
_geom_bond_site_symmetry_2
_ccdc_geom_bond_type
Li0 N17 1.990 . S
Li0 O60 1.956 . S
Li0 O61 1.970 1_455 S
Li0 O62 1.961 1_545 S
Li1 N25 1.990 . S
Li1 O60 1.970 1_655 S
Li1 O61 1.956 . S
Li1 O63 1.961 1_545 S
Li2 N47 1.990 . S
Li2 O60 1.961 1_565 S
Li2 O62 1.956 . S
Li2 O63 1.970 1_455 S
Li3 N53 1.990 . S
Li3 O61 1.961 1_565 S
Li3 O62 1.970 1_655 S
Li3 O63 1.956 . S
C4 C6 1.348 . S
C4 C7 1.356 . S
C4 O60 1.325 . S
N5 C8 1.314 . S
N5 C9 1.279 . S
C6 C4 1.348 . S
C6 C8 1.353 . S
C6 H64 0.929 . S
C7 C4 1.356 . S
C7 C9 1.358 . S
C7 H65 0.930 . S
C8 N5 1.314 . S
C8 C6 1.353 . S
C8 H66 0.930 . S
C9 N5 1.279 . S
C9 C7 1.358 . S
C9 H67 0.930 . S
C10 C13 1.348 1_655 S
C10 C14 1.356 . S
C10 O61 1.325 . S
C11 N12 1.279 . S
C11 C14 1.358 . S
C11 H68 0.930 . S
N12 C11 1.279 . S
N12 C15 1.314 . S
C13 C10 1.348 1_455 S
C13 C15 1.353 1_455 S
C13 H69 0.929 . S
C14 C10 1.356 . S
C14 C11 1.358 . S
C14 H70 0.930 . S
C15 N12 1.314 . S
C15 C13 1.353 1_655 S
C15 H71 0.930 1_655 S
C16 N17 1.314 . S
C16 C21 1.353 . S
C16 H22 0.930 . S
N17 Li0 1.990 . S
N17 C16 1.314 . S
N17 C19 1.279 . S
C18 C19 1.358 . S
C18 C20 1.356 . S
C18 H72 0.930 . S
C19 N17 1.279 . S
C19 C18 1.358 . S
C19 H23 0.930 . S
C20 C18 1.356 . S
C20 C21 1.348 . S
C21 C16 1.353 . S
C21 C20 1.348 . S
C21 H73 0.929 . S
H22 C16 0.930 . S
H23 C19 0.930 . S
C24 N25 1.314 . S
C24 C26 1.353 . S
C24 H30 0.930 . S
N25 Li1 1.990 . S
N25 C24 1.314 . S
N25 C28 1.279 . S
C26 C24 1.353 . S
C26 C29 1.348 . S
C26 H74 0.929 . S
C27 C28 1.358 . S
C27 C29 1.356 . S
C27 H75 0.930 . S
C28 N25 1.279 . S
C28 C27 1.358 . S
C28 H31 0.930 . S
C29 C26 1.348 . S
C29 C27 1.356 . S
H30 C24 0.930 . S
H31 C28 0.930 . S
C32 C34 1.348 1_455 S
C32 C35 1.356 . S
C32 O62 1.325 . S
N33 C36 1.314 . S
N33 C37 1.279 . S
C34 C32 1.348 1_655 S
C34 C36 1.353 1_655 S
C34 H76 0.929 . S
C35 C32 1.356 . S
C35 C37 1.358 . S
C35 H77 0.930 . S
C36 N33 1.314 . S
C36 C34 1.353 1_455 S
C36 H78 0.930 1_455 S
C37 N33 1.279 . S
C37 C35 1.358 . S
C37 H79 0.930 . S
C38 C39 1.348 . S
C38 C40 1.356 . S
C38 O63 1.325 . S
C39 C38 1.348 . S
C39 C41 1.353 . S
C39 H80 0.929 . S
C40 C38 1.356 . S
C40 C42 1.358 . S
C40 H81 0.930 . S
C41 C39 1.353 . S
C41 N43 1.314 . S
C41 H82 0.930 . S
C42 C40 1.358 . S
C42 N43 1.279 . S
C42 H83 0.930 . S
N43 C41 1.314 . S
N43 C42 1.279 . S
C44 C46 1.353 . S
C44 N47 1.314 . S
C44 H50 0.930 . S
C45 N47 1.279 . S
C45 C48 1.358 . S
C45 H51 0.930 . S
C46 C44 1.353 . S
C46 C49 1.348 . S
C46 H84 0.929 . S
N47 Li2 1.990 . S
N47 C44 1.314 . S
N47 C45 1.279 . S
C48 C45 1.358 . S
C48 C49 1.356 . S
C48 H85 0.930 . S
C49 C46 1.348 . S
C49 C48 1.356 . S
H50 C44 0.930 . S
H51 C45 0.930 . S
C52 N53 1.314 . S
C52 C54 1.353 . S
C52 H58 0.930 . S
N53 Li3 1.990 . S
N53 C52 1.314 . S
N53 C56 1.279 . S
C54 C52 1.353 . S
C54 C57 1.348 . S
C54 H86 0.929 . S
C55 C56 1.358 . S
C55 C57 1.356 . S
C55 H87 0.930 . S
C56 N53 1.279 . S
C56 C55 1.358 . S
C56 H59 0.930 . S
C57 C54 1.348 . S
C57 C55 1.356 . S
H58 C52 0.930 . S
H59 C56 0.930 . S
O60 Li0 1.956 . S
O60 Li1 1.970 1_455 S
O60 Li2 1.961 1_545 S
O60 C4 1.325 . S
O61 Li0 1.970 1_655 S
O61 Li1 1.956 . S
O61 Li3 1.961 1_545 S
O61 C10 1.325 . S
O62 Li0 1.961 1_565 S
O62 Li2 1.956 . S
O62 Li3 1.970 1_455 S
O62 C32 1.325 . S
O63 Li1 1.961 1_565 S
O63 Li2 1.970 1_655 S
O63 Li3 1.956 . S
O63 C38 1.325 . S
H64 C6 0.929 . S
H65 C7 0.930 . S
H66 C8 0.930 . S
H67 C9 0.930 . S
H68 C11 0.930 . S
H69 C13 0.929 . S
H70 C14 0.930 . S
H71 C15 0.930 1_455 S
H72 C18 0.930 . S
H73 C21 0.929 . S
H74 C26 0.929 . S
H75 C27 0.930 . S
H76 C34 0.929 . S
H77 C35 0.930 . S
H78 C36 0.930 1_655 S
H79 C37 0.930 . S
H80 C39 0.929 . S
H81 C40 0.930 . S
H82 C41 0.930 . S
H83 C42 0.930 . S
H84 C46 0.929 . S
H85 C48 0.930 . S
H86 C54 0.929 . S
H87 C55 0.930 . S
Li88 N105 1.990 . S
Li88 O148 1.956 . S
Li88 O149 1.970 1_665 S
Li88 O150 1.961 . S
Li89 N113 1.990 . S
Li89 O148 1.970 1_445 S
Li89 O149 1.956 . S
Li89 O151 1.961 . S
Li90 N135 1.990 . S
Li90 O148 1.961 . S
Li90 O150 1.956 . S
Li90 O151 1.970 1_665 S
Li91 N141 1.990 . S
Li91 O149 1.961 . S
Li91 O150 1.970 1_445 S
Li91 O151 1.956 . S
C92 C94 1.348 1_655 S
C92 C95 1.356 . S
C92 O148 1.325 . S
N93 C96 1.314 . S
N93 C97 1.279 . S
C94 C92 1.348 1_455 S
C94 C96 1.353 1_455 S
C94 H152 0.929 . S
C95 C92 1.356 . S
C95 C97 1.358 . S
C95 H153 0.930 . S
C96 N93 1.314 . S
C96 C94 1.353 1_655 S
C96 H154 0.930 1_655 S
C97 N93 1.279 . S
C97 C95 1.358 . S
C97 H155 0.930 . S
C98 C101 1.348 1_545 S
C98 C102 1.356 . S
C98 O149 1.325 . S
C99 N100 1.279 . S
C99 C102 1.358 . S
C99 H156 0.930 . S
N100 C99 1.279 . S
N100 C103 1.314 . S
C101 C98 1.348 1_565 S
C101 C103 1.353 1_565 S
C101 H157 0.929 . S
C102 C98 1.356 . S
C102 C99 1.358 . S
C102 H158 0.930 . S
C103 N100 1.314 . S
C103 C101 1.353 1_545 S
C103 H159 0.930 1_545 S
C104 N105 1.314 . S
C104 C109 1.353 . S
C104 H110 0.930 . S
N105 Li88 1.990 . S
N105 C104 1.314 . S
N105 C107 1.279 . S
C106 C107 1.358 . S
C106 C108 1.356 . S
C106 H160 0.930 . S
C107 N105 1.279 . S
C107 C106 1.358 . S
C107 H111 0.930 . S
C108 C106 1.356 . S
C108 C109 1.348 . S
C109 C104 1.353 . S
C109 C108 1.348 . S
C109 H161 0.929 . S
H110 C104 0.930 . S
H111 C107 0.930 . S
C112 N113 1.314 . S
C112 C114 1.353 . S
C112 H118 0.930 . S
N113 Li89 1.990 . S
N113 C112 1.314 . S
N113 C116 1.279 . S
C114 C112 1.353 . S
C114 C117 1.348 . S
C114 H162 0.929 . S
C115 C116 1.358 . S
C115 C117 1.356 . S
C115 H163 0.930 . S
C116 N113 1.279 . S
C116 C115 1.358 . S
C116 H119 0.930 . S
C117 C114 1.348 . S
C117 C115 1.356 . S
H118 C112 0.930 . S
H119 C116 0.930 . S
C120 C122 1.348 1_565 S
C120 C123 1.356 . S
C120 O150 1.325 . S
N121 C124 1.314 . S
N121 C125 1.279 . S
C122 C120 1.348 1_545 S
C122 C124 1.353 1_545 S
C122 H164 0.929 . S
C123 C120 1.356 . S
C123 C125 1.358 . S
C123 H165 0.930 . S
C124 N121 1.314 . S
C124 C122 1.353 1_565 S
C124 H166 0.930 1_565 S
C125 N121 1.279 . S
C125 C123 1.358 . S
C125 H167 0.930 . S
C126 C127 1.348 1_455 S
C126 C128 1.356 . S
C126 O151 1.325 . S
C127 C126 1.348 1_655 S
C127 C129 1.353 1_655 S
C127 H168 0.929 . S
C128 C126 1.356 . S
C128 C130 1.358 . S
C128 H169 0.930 . S
C129 C127 1.353 1_455 S
C129 N131 1.314 . S
C129 H170 0.930 1_455 S
C130 C128 1.358 . S
C130 N131 1.279 . S
C130 H171 0.930 . S
N131 C129 1.314 . S
N131 C130 1.279 . S
C132 C134 1.353 . S
C132 N135 1.314 . S
C132 H138 0.930 . S
C133 N135 1.279 . S
C133 C136 1.358 . S
C133 H139 0.930 . S
C134 C132 1.353 . S
C134 C137 1.348 . S
C134 H172 0.929 . S
N135 Li90 1.990 . S
N135 C132 1.314 . S
N135 C133 1.279 . S
C136 C133 1.358 . S
C136 C137 1.356 . S
C136 H173 0.930 . S
C137 C134 1.348 . S
C137 C136 1.356 . S
H138 C132 0.930 . S
H139 C133 0.930 . S
C140 N141 1.314 . S
C140 C142 1.353 . S
C140 H146 0.930 . S
N141 Li91 1.990 . S
N141 C140 1.314 . S
N141 C144 1.279 . S
C142 C140 1.353 . S
C142 C145 1.348 . S
C142 H174 0.929 . S
C143 C144 1.358 . S
C143 C145 1.356 . S
C143 H175 0.930 . S
C144 N141 1.279 . S
C144 C143 1.358 . S
C144 H147 0.930 . S
C145 C142 1.348 . S
C145 C143 1.356 . S
H146 C140 0.930 . S
H147 C144 0.930 . S
O148 Li88 1.956 . S
O148 Li89 1.970 1_665 S
O148 Li90 1.961 . S
O148 C92 1.325 . S
O149 Li88 1.970 1_445 S
O149 Li89 1.956 . S
O149 Li91 1.961 . S
O149 C98 1.325 . S
O150 Li88 1.961 . S
O150 Li90 1.956 . S
O150 Li91 1.970 1_665 S
O150 C120 1.325 . S
O151 Li89 1.961 . S
O151 Li90 1.970 1_445 S
O151 Li91 1.956 . S
O151 C126 1.325 . S
H152 C94 0.929 . S
H153 C95 0.930 . S
H154 C96 0.930 1_455 S
H155 C97 0.930 . S
H156 C99 0.930 . S
H157 C101 0.929 . S
H158 C102 0.930 . S
H159 C103 0.930 1_565 S
H160 C106 0.930 . S
H161 C109 0.929 . S
H162 C114 0.929 . S
H163 C115 0.930 . S
H164 C122 0.929 . S
H165 C123 0.930 . S
H166 C124 0.930 1_545 S
H167 C125 0.930 . S
H168 C127 0.929 . S
H169 C128 0.930 . S
H170 C129 0.930 1_655 S
H171 C130 0.930 . S
H172 C134 0.929 . S
H173 C136 0.930 . S
H174 C142 0.929 . S
H175 C143 0.930 . S
Li176 N193 1.990 . S
Li176 O236 1.956 . S
Li176 O237 1.970 1_565 S
Li176 O238 1.961 1_455 S
Li177 N201 1.990 . S
Li177 O236 1.970 1_545 S
Li177 O237 1.956 . S
Li177 O239 1.961 1_455 S
Li178 N223 1.990 . S
Li178 O236 1.961 1_655 S
Li178 O238 1.956 . S
Li178 O239 1.970 1_565 S
Li179 N229 1.990 . S
Li179 O237 1.961 1_655 S
Li179 O238 1.970 1_545 S
Li179 O239 1.956 . S
C180 C182 1.348 1_565 S
C180 C183 1.356 . S
C180 O236 1.325 . S
N181 C184 1.314 . S
N181 C185 1.279 . S
C182 C180 1.348 1_545 S
C182 C184 1.353 1_545 S
C182 H240 0.929 . S
C183 C180 1.356 . S
C183 C185 1.358 . S
C183 H241 0.930 . S
C184 N181 1.314 . S
C184 C182 1.353 1_565 S
C184 H242 0.930 1_565 S
C185 N181 1.279 . S
C185 C183 1.358 . S
C185 H243 0.930 . S
C186 C189 1.348 . S
C186 C190 1.356 . S
C186 O237 1.325 . S
C187 N188 1.279 . S
C187 C190 1.358 . S
C187 H244 0.930 . S
N188 C187 1.279 . S
N188 C191 1.314 . S
C189 C186 1.348 . S
C189 C191 1.353 . S
C189 H245 0.929 . S
C190 C186 1.356 . S
C190 C187 1.358 . S
C190 H246 0.930 . S
C191 N188 1.314 . S
C191 C189 1.353 . S
C191 H247 0.930 . S
C192 N193 1.314 . S
C192 C197 1.353 . S
C192 H198 0.930 . S
N193 Li176 1.990 . S
N193 C192 1.314 . S
N193 C195 1.279 . S
C194 C195 1.358 . S
C194 C196 1.356 . S
C194 H248 0.930 . S
C195 N193 1.279 . S
C195 C194 1.358 . S
C195 H199 0.930 . S
C196 C194 1.356 . S
C196 C197 1.348 . S
C197 C192 1.353 . S
C197 C196 1.348 . S
C197 H249 0.929 . S
H198 C192 0.930 . S
H199 C195 0.930 . S
C200 N201 1.314 . S
C200 C202 1.353 . S
C200 H206 0.930 . S
N201 Li177 1.990 . S
N201 C200 1.314 . S
N201 C204 1.279 . S
C202 C200 1.353 . S
C202 C205 1.348 . S
C202 H250 0.929 . S
C203 C204 1.358 . S
C203 C205 1.356 . S
C203 H251 0.930 . S
C204 N201 1.279 . S
C204 C203 1.358 . S
C204 H207 0.930 . S
C205 C202 1.348 . S
C205 C203 1.356 . S
H206 C200 0.930 . S
H207 C204 0.930 . S
C208 C210 1.348 . S
C208 C211 1.356 . S
C208 O238 1.325 . S
N209 C212 1.314 . S
N209 C213 1.279 . S
C210 C208 1.348 . S
C210 C212 1.353 . S
C210 H252 0.929 . S
C211 C208 1.356 . S
C211 C213 1.358 . S
C211 H253 0.930 . S
C212 N209 1.314 . S
C212 C210 1.353 . S
C212 H254 0.930 . S
C213 N209 1.279 . S
C213 C211 1.358 . S
C213 H255 0.930 . S
C214 C215 1.348 1_545 S
C214 C216 1.356 . S
C214 O239 1.325 . S
C215 C214 1.348 1_565 S
C215 C217 1.353 1_565 S
C215 H256 0.929 . S
C216 C214 1.356 . S
C216 C218 1.358 . S
C216 H257 0.930 . S
C217 C215 1.353 1_545 S
C217 N219 1.314 . S
C217 H258 0.930 1_545 S
C218 C216 1.358 . S
C218 N219 1.279 . S
C218 H259 0.930 . S
N219 C217 1.314 . S
N219 C218 1.279 . S
C220 C222 1.353 . S
C220 N223 1.314 . S
C220 H226 0.930 . S
C221 N223 1.279 . S
C221 C224 1.358 . S
C221 H227 0.930 . S
C222 C220 1.353 . S
C222 C225 1.348 . S
C222 H260 0.929 . S
N223 Li178 1.990 . S
N223 C220 1.314 . S
N223 C221 1.279 . S
C224 C221 1.358 . S
C224 C225 1.356 . S
C224 H261 0.930 . S
C225 C222 1.348 . S
C225 C224 1.356 . S
H226 C220 0.930 . S
H227 C221 0.930 . S
C228 N229 1.314 . S
C228 C230 1.353 . S
C228 H234 0.930 . S
N229 Li179 1.990 . S
N229 C228 1.314 . S
N229 C232 1.279 . S
C230 C228 1.353 . S
C230 C233 1.348 . S
C230 H262 0.929 . S
C231 C232 1.358 . S
C231 C233 1.356 . S
C231 H263 0.930 . S
C232 N229 1.279 . S
C232 C231 1.358 . S
C232 H235 0.930 . S
C233 C230 1.348 . S
C233 C231 1.356 . S
H234 C228 0.930 . S
H235 C232 0.930 . S
O236 Li176 1.956 . S
O236 Li177 1.970 1_565 S
O236 Li178 1.961 1_455 S
O236 C180 1.325 . S
O237 Li176 1.970 1_545 S
O237 Li177 1.956 . S
O237 Li179 1.961 1_455 S
O237 C186 1.325 . S
O238 Li176 1.961 1_655 S
O238 Li178 1.956 . S
O238 Li179 1.970 1_565 S
O238 C208 1.325 . S
O239 Li177 1.961 1_655 S
O239 Li178 1.970 1_545 S
O239 Li179 1.956 . S
O239 C214 1.325 . S
H240 C182 0.929 . S
H241 C183 0.930 . S
H242 C184 0.930 1_545 S
H243 C185 0.930 . S
H244 C187 0.930 . S
H245 C189 0.929 . S
H246 C190 0.930 . S
H247 C191 0.930 . S
H248 C194 0.930 . S
H249 C197 0.929 . S
H250 C202 0.929 . S
H251 C203 0.930 . S
H252 C210 0.929 . S
H253 C211 0.930 . S
H254 C212 0.930 . S
H255 C213 0.930 . S
H256 C215 0.929 . S
H257 C216 0.930 . S
H258 C217 0.930 1_565 S
H259 C218 0.930 . S
H260 C222 0.929 . S
H261 C224 0.930 . S
H262 C230 0.929 . S
H263 C231 0.930 . S
C264 O266 1.252 . S
C264 O268 1.255 1_455 S
C265 O272 1.245 . S
C265 O273 1.259 1_655 S
O266 C264 1.252 . S
O266 Zn267 2.028 . S
Zn267 O266 2.028 . S
Zn267 O271 2.035 . S
Zn267 O273 2.035 . S
Zn267 O274 2.028 . S
O268 C264 1.255 1_655 S
O268 Zn269 2.035 . S
Zn269 O268 2.035 . S
Zn269 O270 2.028 . S
Zn269 O272 2.028 . S
Zn269 O275 2.035 . S
O270 Zn269 2.028 . S
O270 C276 1.245 . S
O271 Zn267 2.035 . S
O271 C276 1.259 1_455 S
O272 C265 1.245 . S
O272 Zn269 2.028 . S
O273 C265 1.259 1_455 S
O273 Zn267 2.035 . S
O274 Zn267 2.028 . S
O274 C277 1.252 . S
O275 Zn269 2.035 . S
O275 C277 1.255 1_655 S
C276 O270 1.245 . S
C276 O271 1.259 1_655 S
C277 O274 1.252 . S
C277 O275 1.255 1_455 S
C278 O280 1.246 . S
C278 O282 1.259 1_565 S
C279 O286 1.250 . S
C279 O287 1.253 1_545 S
O280 C278 1.246 . S
O280 Zn281 2.028 . S
Zn281 O280 2.028 . S
Zn281 O285 2.035 . S
Zn281 O287 2.035 . S
Zn281 O288 2.028 . S
O282 C278 1.259 1_545 S
O282 Zn283 2.035 . S
Zn283 O282 2.035 . S
Zn283 O284 2.028 . S
Zn283 O286 2.028 . S
Zn283 O289 2.035 . S
O284 Zn283 2.028 . S
O284 C290 1.250 . S
O285 Zn281 2.035 . S
O285 C290 1.253 1_565 S
O286 C279 1.250 . S
O286 Zn283 2.028 . S
O287 C279 1.253 1_565 S
O287 Zn281 2.035 . S
O288 Zn281 2.028 . S
O288 C291 1.246 . S
O289 Zn283 2.035 . S
O289 C291 1.259 1_545 S
C290 O284 1.250 . S
C290 O285 1.253 1_545 S
C291 O288 1.246 . S
C291 O289 1.259 1_565 S
C292 O294 1.247 . S
C292 O296 1.258 . S
C293 O300 1.247 . S
C293 O301 1.258 . S
O294 C292 1.247 . S
O294 Zn295 2.028 . S
Zn295 O294 2.028 . S
Zn295 O299 2.035 . S
Zn295 O301 2.035 . S
Zn295 O302 2.028 . S
O296 C292 1.258 . S
O296 Zn297 2.035 . S
Zn297 O296 2.035 . S
Zn297 O298 2.028 . S
Zn297 O300 2.028 . S
Zn297 O303 2.035 . S
O298 Zn297 2.028 . S
O298 C304 1.247 . S
O299 Zn295 2.035 . S
O299 C304 1.258 . S
O300 C293 1.247 . S
O300 Zn297 2.028 . S
O301 C293 1.258 . S
O301 Zn295 2.035 . S
O302 Zn295 2.028 . S
O302 C305 1.247 . S
O303 Zn297 2.035 . S
O303 C305 1.258 . S
C304 O298 1.247 . S
C304 O299 1.258 . S
C305 O302 1.247 . S
C305 O303 1.258 . S
C306 C307 1.349 . S
C306 C308 1.327 . S
C306 H331 0.950 . S
C307 C306 1.349 . S
C307 C323 1.349 . S
C308 C306 1.327 . S
C308 C327 1.429 . S
C308 H332 0.950 . S
C309 C326 1.574 . S
C309 C328 1.368 . S
C309 H333 0.949 . S
H310 C314 0.949 . S
C311 C312 1.349 . S
C311 C313 1.327 . S
C311 H334 0.950 . S
C312 C311 1.349 . S
C312 C324 1.349 1_655 S
C313 C311 1.327 . S
C313 C329 1.429 . S
C313 H335 0.950 . S
C314 H310 0.949 . S
C314 C322 1.574 . S
C314 C330 1.368 . S
H315 C323 0.950 . S
H316 C321 0.950 . S
H317 C322 0.949 . S
H318 C324 0.950 . S
H319 C325 0.950 1_455 S
H320 C326 0.949 . S
C321 H316 0.950 . S
C321 C323 1.327 . S
C321 C327 1.429 . S
C322 C314 1.574 . S
C322 H317 0.949 . S
C322 C328 1.368 . S
C323 C307 1.349 . S
C323 H315 0.950 . S
C323 C321 1.327 . S
C324 C312 1.349 1_455 S
C324 H318 0.950 . S
C324 C325 1.327 1_455 S
C325 H319 0.950 1_655 S
C325 C324 1.327 1_655 S
C325 C329 1.429 . S
C326 C309 1.574 . S
C326 H320 0.949 . S
C326 C330 1.368 . S
C327 C308 1.429 . S
C327 C321 1.429 . S
C327 C328 1.523 . S
C328 C309 1.368 . S
C328 C322 1.368 . S
C328 C327 1.523 . S
C329 C313 1.429 . S
C329 C325 1.429 . S
C329 C330 1.523 . S
C330 C314 1.368 . S
C330 C326 1.368 . S
C330 C329 1.523 . S
H331 C306 0.950 . S
H332 C308 0.950 . S
H333 C309 0.949 . S
H334 C311 0.950 . S
H335 C313 0.950 . S
C336 C337 1.349 . S
C336 C338 1.327 . S
C336 H361 0.950 . S
C337 C336 1.349 . S
C337 C353 1.349 . S
C338 C336 1.327 . S
C338 C357 1.429 . S
C338 H362 0.950 . S
C339 C356 1.574 . S
C339 C358 1.368 1_545 S
C339 H363 0.949 . S
H340 C344 0.949 . S
C341 C342 1.349 1_545 S
C341 C343 1.327 . S
C341 H364 0.950 . S
C342 C341 1.349 1_565 S
C342 C354 1.349 . S
C343 C341 1.327 . S
C343 C359 1.429 1_545 S
C343 H365 0.950 . S
C344 H340 0.949 . S
C344 C352 1.574 . S
C344 C360 1.368 . S
H345 C353 0.950 1_545 S
H346 C351 0.950 1_545 S
H347 C352 0.949 . S
H348 C354 0.950 . S
H349 C355 0.950 . S
H350 C356 0.949 . S
C351 H346 0.950 1_565 S
C351 C353 1.327 . S
C351 C357 1.429 . S
C352 C344 1.574 . S
C352 H347 0.949 . S
C352 C358 1.368 . S
C353 C337 1.349 . S
C353 H345 0.950 1_565 S
C353 C351 1.327 . S
C354 C342 1.349 . S
C354 H348 0.950 . S
C354 C355 1.327 . S
C355 H349 0.950 . S
C355 C354 1.327 . S
C355 C359 1.429 . S
C356 C339 1.574 . S
C356 H350 0.949 . S
C356 C360 1.368 1_545 S
C357 C338 1.429 . S
C357 C351 1.429 . S
C357 C358 1.523 . S
C358 C339 1.368 1_565 S
C358 C352 1.368 . S
C358 C357 1.523 . S
C359 C343 1.429 1_565 S
C359 C355 1.429 . S
C359 C360 1.523 . S
C360 C344 1.368 . S
C360 C356 1.368 1_565 S
C360 C359 1.523 . S
H361 C336 0.950 . S
H362 C338 0.950 . S
H363 C339 0.949 . S
H364 C341 0.950 . S
H365 C343 0.950 . S
C366 C367 1.349 . S
C366 C368 1.327 . S
C366 H391 0.950 . S
C367 C366 1.349 . S
C367 C383 1.349 . S
C368 C366 1.327 . S
C368 C387 1.429 . S
C368 H392 0.950 . S
C369 C386 1.574 . S
C369 C388 1.368 . S
C369 H393 0.949 . S
H370 C374 0.949 . S
C371 C372 1.349 . S
C371 C373 1.327 . S
C371 H394 0.950 . S
C372 C371 1.349 . S
C372 C384 1.349 . S
C373 C371 1.327 . S
C373 C389 1.429 . S
C373 H395 0.950 . S
C374 H370 0.949 . S
C374 C382 1.574 . S
C374 C390 1.368 . S
H375 C383 0.950 . S
H376 C381 0.950 . S
H377 C382 0.949 . S
H378 C384 0.950 . S
H379 C385 0.950 . S
H380 C386 0.949 . S
C381 H376 0.950 . S
C381 C383 1.327 . S
C381 C387 1.429 . S
C382 C374 1.574 . S
C382 H377 0.949 . S
C382 C388 1.368 . S
C383 C367 1.349 . S
C383 H375 0.950 . S
C383 C381 1.327 . S
C384 C372 1.349 . S
C384 H378 0.950 . S
C384 C385 1.327 . S
C385 H379 0.950 . S
C385 C384 1.327 . S
C385 C389 1.429 . S
C386 C369 1.574 . S
C386 H380 0.949 . S
C386 C390 1.368 . S
C387 C368 1.429 . S
C387 C381 1.429 . S
C387 C388 1.523 . S
C388 C369 1.368 . S
C388 C382 1.368 . S
C388 C387 1.523 . S
C389 C373 1.429 . S
C389 C385 1.429 . S
C389 C390 1.523 . S
C390 C374 1.368 . S
C390 C386 1.368 . S
C390 C389 1.523 . S
H391 C366 0.950 . S
H392 C368 0.950 . S
H393 C369 0.949 . S
H394 C371 0.950 . S
H395 C373 0.950 . S
C396 C397 1.349 . S
C396 C398 1.327 . S
C396 H421 0.950 . S
C397 C396 1.349 . S
C397 C413 1.349 . S
C398 C396 1.327 . S
C398 C417 1.429 . S
C398 H422 0.950 . S
C399 C416 1.574 . S
C399 C418 1.368 1_655 S
C399 H423 0.949 . S
H400 C404 0.949 . S
C401 C402 1.349 1_655 S
C401 C403 1.327 . S
C401 H424 0.950 . S
C402 C401 1.349 1_455 S
C402 C414 1.349 . S
C403 C401 1.327 . S
C403 C419 1.429 1_655 S
C403 H425 0.950 . S
C404 H400 0.949 . S
C404 C412 1.574 . S
C404 C420 1.368 . S
H405 C413 0.950 1_655 S
H406 C411 0.950 1_655 S
H407 C412 0.949 . S
H408 C414 0.950 . S
H409 C415 0.950 . S
H410 C416 0.949 . S
C411 H406 0.950 1_455 S
C411 C413 1.327 . S
C411 C417 1.429 . S
C412 C404 1.574 . S
C412 H407 0.949 . S
C412 C418 1.368 . S
C413 C397 1.349 . S
C413 H405 0.950 1_455 S
C413 C411 1.327 . S
C414 C402 1.349 . S
C414 H408 0.950 . S
C414 C415 1.327 . S
C415 H409 0.950 . S
C415 C414 1.327 . S
C415 C419 1.429 . S
C416 C399 1.574 . S
C416 H410 0.949 . S
C416 C420 1.368 1_655 S
C417 C398 1.429 . S
C417 C411 1.429 . S
C417 C418 1.523 . S
C418 C399 1.368 1_455 S
C418 C412 1.368 . S
C418 C417 1.523 . S
C419 C403 1.429 1_455 S
C419 C415 1.429 . S
C419 C420 1.523 . S
C420 C404 1.368 . S
C420 C416 1.368 1_455 S
C420 C419 1.523 . S
H421 C396 0.950 . S
H422 C398 0.950 . S
H423 C399 0.949 . S
H424 C401 0.950 . S
H425 C403 0.950 . S
C426 C427 1.349 . S
C426 C428 1.327 . S
C426 H451 0.950 . S
C427 C426 1.349 . S
C427 C443 1.349 . S
C428 C426 1.327 . S
C428 C447 1.429 . S
C428 H452 0.950 1_545 S
C429 C446 1.574 . S
C429 C448 1.368 . S
C429 H453 0.949 . S
H430 C434 0.949 . S
C431 C432 1.349 . S
C431 C433 1.327 . S
C431 H454 0.950 . S
C432 C431 1.349 . S
C432 C444 1.349 1_545 S
C433 C431 1.327 . S
C433 C449 1.429 . S
C433 H455 0.950 . S
C434 H430 0.949 . S
C434 C442 1.582 . S
C434 C450 1.368 1_565 S
H435 C443 0.950 . S
H436 C441 0.950 . S
H437 C442 0.956 . S
H438 C444 0.950 . S
H439 C445 0.950 . S
H440 C446 0.949 . S
C441 H436 0.950 . S
C441 C443 1.327 . S
C441 C447 1.429 . S
C442 C434 1.582 . S
C442 H437 0.956 . S
C442 C448 1.352 1_565 S
C443 C427 1.349 . S
C443 H435 0.950 . S
C443 C441 1.327 . S
C444 C432 1.349 1_565 S
C444 H438 0.950 . S
C444 C445 1.327 . S
C445 H439 0.950 . S
C445 C444 1.327 . S
C445 C449 1.429 1_565 S
C446 C429 1.574 . S
C446 H440 0.949 . S
C446 C450 1.368 . S
C447 C428 1.429 . S
C447 C441 1.429 . S
C447 C448 1.523 . S
C448 C429 1.368 . S
C448 C442 1.352 1_545 S
C448 C447 1.523 . S
C449 C433 1.429 . S
C449 C445 1.429 1_545 S
C449 C450 1.523 . S
C450 C434 1.368 1_545 S
C450 C446 1.368 . S
C450 C449 1.523 . S
H451 C426 0.950 . S
H452 C428 0.950 1_565 S
H453 C429 0.949 . S
H454 C431 0.950 . S
H455 C433 0.950 . S
C456 C457 1.349 . S
C456 C458 1.327 . S
C456 H481 0.950 . S
C457 C456 1.349 . S
C457 C473 1.349 . S
C458 C456 1.327 . S
C458 C477 1.429 . S
C458 H482 0.950 . S
C459 C476 1.574 . S
C459 C478 1.368 . S
C459 H483 0.949 . S
H460 C464 0.949 . S
C461 C462 1.349 . S
C461 C463 1.327 . S
C461 H484 0.950 . S
C462 C461 1.349 . S
C462 C474 1.349 . S
C463 C461 1.327 . S
C463 C479 1.429 . S
C463 H485 0.950 . S
C464 H460 0.949 . S
C464 C472 1.574 . S
C464 C480 1.368 . S
H465 C473 0.950 . S
H466 C471 0.950 . S
H467 C472 0.949 . S
H468 C474 0.950 . S
H469 C475 0.950 . S
H470 C476 0.949 . S
C471 H466 0.950 . S
C471 C473 1.327 . S
C471 C477 1.429 . S
C472 C464 1.574 . S
C472 H467 0.949 . S
C472 C478 1.368 . S
C473 C457 1.349 . S
C473 H465 0.950 . S
C473 C471 1.327 . S
C474 C462 1.349 . S
C474 H468 0.950 . S
C474 C475 1.327 . S
C475 H469 0.950 . S
C475 C474 1.327 . S
C475 C479 1.429 . S
C476 C459 1.574 . S
C476 H470 0.949 . S
C476 C480 1.368 . S
C477 C458 1.429 . S
C477 C471 1.429 . S
C477 C478 1.523 . S
C478 C459 1.368 . S
C478 C472 1.368 . S
C478 C477 1.523 . S
C479 C463 1.429 . S
C479 C475 1.429 . S
C479 C480 1.523 . S
C480 C464 1.368 . S
C480 C476 1.368 . S
C480 C479 1.523 . S
H481 C456 0.950 . S
H482 C458 0.950 . S
H483 C459 0.949 . S
H484 C461 0.950 . S
H485 C463 0.950 . S
C486 C487 1.349 . S
C486 C488 1.327 . S
C486 H511 0.950 . S
C487 C486 1.349 . S
C487 C503 1.349 . S
C488 C486 1.327 . S
C488 C507 1.429 . S
C488 H512 0.950 . S
C489 C506 1.574 1_545 S
C489 C508 1.368 . S
C489 H513 0.949 1_545 S
H490 C494 0.949 . S
C491 C492 1.349 1_565 S
C491 C493 1.327 . S
C491 H514 0.950 . S
C492 C491 1.349 1_545 S
C492 C504 1.349 . S
C493 C491 1.327 . S
C493 C509 1.429 1_565 S
C493 H515 0.950 . S
C494 H490 0.949 . S
C494 C502 1.574 . S
C494 C510 1.368 . S
H495 C503 0.950 . S
H496 C501 0.950 1_565 S
H497 C502 0.949 . S
H498 C504 0.950 . S
H499 C505 0.950 . S
H500 C506 0.949 . S
C501 H496 0.950 1_545 S
C501 C503 1.327 . S
C501 C507 1.429 . S
C502 C494 1.574 . S
C502 H497 0.949 . S
C502 C508 1.368 . S
C503 C487 1.349 . S
C503 H495 0.950 . S
C503 C501 1.327 . S
C504 C492 1.349 . S
C504 H498 0.950 . S
C504 C505 1.327 . S
C505 H499 0.950 . S
C505 C504 1.327 . S
C505 C509 1.429 . S
C506 C489 1.574 1_565 S
C506 H500 0.949 . S
C506 C510 1.368 1_565 S
C507 C488 1.429 . S
C507 C501 1.429 . S
C507 C508 1.523 . S
C508 C489 1.368 . S
C508 C502 1.368 . S
C508 C507 1.523 . S
C509 C493 1.429 1_545 S
C509 C505 1.429 . S
C509 C510 1.523 . S
C510 C494 1.368 . S
C510 C506 1.368 1_545 S
C510 C509 1.523 . S
H511 C486 0.950 . S
H512 C488 0.950 . S
H513 C489 0.949 1_565 S
H514 C491 0.950 . S
H515 C493 0.950 . S
C516 C517 1.349 . S
C516 C518 1.327 . S
C516 H541 0.950 . S
C517 C516 1.349 . S
C517 C533 1.349 . S
C518 C516 1.327 . S
C518 C537 1.429 . S
C518 H542 0.950 1_554 S
C519 C536 1.611 . S
C519 C538 1.390 . S
C519 H543 0.898 1_556 S
H520 C524 0.949 . S
C521 C522 1.349 . S
C521 C523 1.327 . S
C521 H544 0.950 . S
C522 C521 1.349 . S
C522 C534 1.349 . S
C523 C521 1.327 . S
C523 C539 1.429 . S
C523 H545 0.950 . S
C524 H520 0.949 . S
C524 C532 1.574 . S
C524 C540 1.368 . S
H525 C533 0.950 . S
H526 C531 0.950 . S
H527 C532 0.949 . S
H528 C534 0.950 . S
H529 C535 0.950 . S
H530 C536 0.949 . S
C531 H526 0.950 . S
C531 C533 1.327 . S
C531 C537 1.429 . S
C532 C524 1.574 . S
C532 H527 0.949 . S
C532 C538 1.368 . S
C533 C517 1.349 . S
C533 H525 0.950 . S
C533 C531 1.327 . S
C534 C522 1.349 . S
C534 H528 0.950 . S
C534 C535 1.327 . S
C535 H529 0.950 . S
C535 C534 1.327 . S
C535 C539 1.429 . S
C536 C519 1.611 . S
C536 H530 0.949 . S
C536 C540 1.368 . S
C537 C518 1.429 . S
C537 C531 1.429 . S
C537 C538 1.523 1_554 S
C538 C519 1.390 . S
C538 C532 1.368 . S
C538 C537 1.523 1_556 S
C539 C523 1.429 . S
C539 C535 1.429 . S
C539 C540 1.523 . S
C540 C524 1.368 . S
C540 C536 1.368 . S
C540 C539 1.523 . S
H541 C516 0.950 . S
H542 C518 0.950 1_556 S
H543 C519 0.898 1_554 S
H544 C521 0.950 . S
H545 C523 0.950 . S
C546 C547 1.349 . S
C546 C548 1.327 . S
C546 H571 0.950 1_655 S
C547 C546 1.349 . S
C547 C563 1.349 . S
C548 C546 1.327 . S
C548 C567 1.429 . S
C548 H572 0.950 1_655 S
C549 C566 1.574 . S
C549 C568 1.368 . S
C549 H573 0.949 . S
H550 C554 0.949 . S
C551 C552 1.349 . S
C551 C553 1.327 . S
C551 H574 0.950 . S
C552 C551 1.349 . S
C552 C564 1.349 1_655 S
C553 C551 1.327 . S
C553 C569 1.429 . S
C553 H575 0.950 . S
C554 H550 0.949 . S
C554 C562 1.574 . S
C554 C570 1.368 1_455 S
H555 C563 0.950 . S
H556 C561 0.950 . S
H557 C562 0.949 . S
H558 C564 0.950 . S
H559 C565 0.950 . S
H560 C566 0.949 . S
C561 H556 0.950 . S
C561 C563 1.327 . S
C561 C567 1.429 . S
C562 C554 1.574 . S
C562 H557 0.949 . S
C562 C568 1.368 1_455 S
C563 C547 1.349 . S
C563 H555 0.950 . S
C563 C561 1.327 . S
C564 C552 1.349 1_455 S
C564 H558 0.950 . S
C564 C565 1.327 . S
C565 H559 0.950 . S
C565 C564 1.327 . S
C565 C569 1.429 1_455 S
C566 C549 1.574 . S
C566 H560 0.949 . S
C566 C570 1.368 . S
C567 C548 1.429 . S
C567 C561 1.429 . S
C567 C568 1.523 . S
C568 C549 1.368 . S
C568 C562 1.368 1_655 S
C568 C567 1.523 . S
C569 C553 1.429 . S
C569 C565 1.429 1_655 S
C569 C570 1.523 . S
C570 C554 1.368 1_655 S
C570 C566 1.368 . S
C570 C569 1.523 . S
H571 C546 0.950 1_455 S
H572 C548 0.950 1_455 S
H573 C549 0.949 . S
H574 C551 0.950 . S
H575 C553 0.950 . S
C576 C577 1.349 . S
C576 C578 1.327 . S
C576 H601 0.950 . S
C577 C576 1.349 . S
C577 C593 1.349 . S
C578 C576 1.327 . S
C578 C597 1.429 . S
C578 H602 0.950 1_565 S
C579 C596 1.574 . S
C579 C598 1.368 . S
C579 H603 0.949 . S
H580 C584 0.949 . S
C581 C582 1.349 . S
C581 C583 1.327 . S
C581 H604 0.950 . S
C582 C581 1.349 . S
C582 C594 1.349 1_565 S
C583 C581 1.327 . S
C583 C599 1.429 . S
C583 H605 0.950 . S
C584 H580 0.949 . S
C584 C592 1.574 1_545 S
C584 C600 1.368 1_545 S
H585 C593 0.950 . S
H586 C591 0.950 . S
H587 C592 0.949 1_545 S
H588 C594 0.950 . S
H589 C595 0.950 . S
H590 C596 0.949 . S
C591 H586 0.950 . S
C591 C593 1.327 . S
C591 C597 1.429 . S
C592 C584 1.574 1_565 S
C592 H587 0.949 1_565 S
C592 C598 1.368 . S
C593 C577 1.349 . S
C593 H585 0.950 . S
C593 C591 1.327 . S
C594 C582 1.349 1_545 S
C594 H588 0.950 . S
C594 C595 1.327 . S
C595 H589 0.950 . S
C595 C594 1.327 . S
C595 C599 1.429 1_545 S
C596 C579 1.574 . S
C596 H590 0.949 . S
C596 C600 1.368 . S
C597 C578 1.429 . S
C597 C591 1.429 . S
C597 C598 1.523 . S
C598 C579 1.368 . S
C598 C592 1.368 . S
C598 C597 1.523 . S
C599 C583 1.429 . S
C599 C595 1.429 1_565 S
C599 C600 1.523 . S
C600 C584 1.368 1_565 S
C600 C596 1.368 . S
C600 C599 1.523 . S
H601 C576 0.950 . S
H602 C578 0.950 1_545 S
H603 C579 0.949 . S
H604 C581 0.950 . S
H605 C583 0.950 . S
C606 C607 1.349 . S
C606 C608 1.327 . S
C606 H631 0.950 . S
C607 C606 1.349 . S
C607 C623 1.349 . S
C608 C606 1.327 . S
C608 C627 1.429 . S
C608 H632 0.950 . S
C609 C626 1.574 . S
C609 C628 1.368 . S
C609 H633 0.949 . S
H610 C614 0.949 . S
C611 C612 1.349 . S
C611 C613 1.327 . S
C611 H634 0.950 . S
C612 C611 1.349 . S
C612 C624 1.349 . S
C613 C611 1.327 . S
C613 C629 1.429 . S
C613 H635 0.950 . S
C614 H610 0.949 . S
C614 C622 1.574 . S
C614 C630 1.368 . S
H615 C623 0.950 . S
H616 C621 0.950 1_556 S
H617 C622 0.949 1_554 S
H618 C624 0.950 . S
H619 C625 0.950 . S
H620 C626 0.949 . S
C621 H616 0.950 1_554 S
C621 C623 1.327 . S
C621 C627 1.429 . S
C622 C614 1.574 . S
C622 H617 0.949 1_556 S
C622 C628 1.368 . S
C623 C607 1.349 . S
C623 H615 0.950 . S
C623 C621 1.327 . S
C624 C612 1.349 . S
C624 H618 0.950 . S
C624 C625 1.327 . S
C625 H619 0.950 . S
C625 C624 1.327 . S
C625 C629 1.429 . S
C626 C609 1.574 . S
C626 H620 0.949 . S
C626 C630 1.368 . S
C627 C608 1.429 . S
C627 C621 1.429 . S
C627 C628 1.523 1_554 S
C628 C609 1.368 . S
C628 C622 1.368 . S
C628 C627 1.523 1_556 S
C629 C613 1.429 . S
C629 C625 1.429 . S
C629 C630 1.523 . S
C630 C614 1.368 . S
C630 C626 1.368 . S
C630 C629 1.523 . S
H631 C606 0.950 . S
H632 C608 0.950 . S
H633 C609 0.949 . S
H634 C611 0.950 . S
H635 C613 0.950 . S
C636 C637 1.349 . S
C636 C638 1.327 . S
C636 H661 0.950 . S
C637 C636 1.349 . S
C637 C653 1.349 . S
C638 C636 1.327 . S
C638 C657 1.429 . S
C638 H662 0.950 . S
C639 C656 1.574 . S
C639 C658 1.368 1_655 S
C639 H663 0.949 . S
H640 C644 0.949 . S
C641 C642 1.349 1_655 S
C641 C643 1.327 . S
C641 H664 0.950 . S
C642 C641 1.349 1_455 S
C642 C654 1.349 . S
C643 C641 1.327 . S
C643 C659 1.429 1_655 S
C643 H665 0.950 . S
C644 H640 0.949 . S
C644 C652 1.574 . S
C644 C660 1.368 . S
H645 C653 0.950 1_655 S
H646 C651 0.948 1_655 S
H647 C652 0.949 . S
H648 C654 0.950 . S
H649 C655 0.950 . S
H650 C656 0.949 . S
C651 H646 0.948 1_455 S
C651 C653 1.328 . S
C651 C657 1.429 . S
C652 C644 1.574 . S
C652 H647 0.949 . S
C652 C658 1.368 . S
C653 C637 1.349 . S
C653 H645 0.950 1_455 S
C653 C651 1.328 . S
C654 C642 1.349 . S
C654 H648 0.950 . S
C654 C655 1.327 . S
C655 H649 0.950 . S
C655 C654 1.327 . S
C655 C659 1.429 . S
C656 C639 1.574 . S
C656 H650 0.949 . S
C656 C660 1.368 1_655 S
C657 C638 1.429 . S
C657 C651 1.429 . S
C657 C658 1.523 . S
C658 C639 1.368 1_455 S
C658 C652 1.368 . S
C658 C657 1.523 . S
C659 C643 1.429 1_455 S
C659 C655 1.429 . S
C659 C660 1.523 . S
C660 C644 1.368 . S
C660 C656 1.368 1_455 S
C660 C659 1.523 . S
H661 C636 0.950 . S
H662 C638 0.950 . S
H663 C639 0.949 . S
H664 C641 0.950 . S
H665 C643 0.950 . S
C312 C265 1.397 . S
C307 C29 1.382 . S
C337 C137 1.385 . S
C342 C291 1.399 . S
C367 C225 1.385 . S
C372 C293 1.400 . S
C397 C49 1.385 . S
C402 C277 1.398 . S
C432 C279 1.399 . S
C427 C117 1.382 . S
C457 C205 1.385 . S
C462 C305 1.394 . S
C492 C278 1.397 1_545 S
C487 C233 1.387 . S
C517 C57 1.385 . S
C522 C304 1.400 . S
C552 C264 1.395 1_655 S
C547 C108 1.387 . S
C582 C290 1.399 1_565 S
C577 C196 1.382 . S
C612 C292 1.398 . S
C607 C20 1.382 . S
C637 C145 1.385 . S
C642 C276 1.395 1_455 S
