# Generated by pormake.
# Topology iac, (4,6)-cn, num edge types: 1
# Building blocks:
#     Node 0, Type 0, BuildingBlock: QUQFOY_clean_sbu_1, # of connection points: 4
#     Node 1, Type 0, BuildingBlock: QUQFOY_clean_sbu_1, # of connection points: 4
#     Node 2, Type 0, BuildingBlock: QUQFOY_clean_sbu_1, # of connection points: 4
#     Node 3, Type 0, BuildingBlock: QUQFOY_clean_sbu_1, # of connection points: 4
#     Node 4, Type 0, BuildingBlock: QUQFOY_clean_sbu_1, # of connection points: 4
#     Node 5, Type 0, BuildingBlock: QUQFOY_clean_sbu_1, # of connection points: 4
#     Node 6, Type 0, BuildingBlock: QUQFOY_clean_sbu_1, # of connection points: 4
#     Node 7, Type 0, BuildingBlock: QUQFOY_clean_sbu_1, # of connection points: 4
#     Node 8, Type 0, BuildingBlock: QUQFOY_clean_sbu_1, # of connection points: 4
#     Node 9, Type 0, BuildingBlock: QUQFOY_clean_sbu_1, # of connection points: 4
#     Node 10, Type 0, BuildingBlock: QUQFOY_clean_sbu_1, # of connection points: 4
#     Node 11, Type 0, BuildingBlock: QUQFOY_clean_sbu_1, # of connection points: 4
#     Node 12, Type 0, BuildingBlock: QUQFOY_clean_sbu_1, # of connection points: 4
#     Node 13, Type 0, BuildingBlock: QUQFOY_clean_sbu_1, # of connection points: 4
#     Node 14, Type 0, BuildingBlock: QUQFOY_clean_sbu_1, # of connection points: 4
#     Node 15, Type 0, BuildingBlock: QUQFOY_clean_sbu_1, # of connection points: 4
#     Node 16, Type 0, BuildingBlock: QUQFOY_clean_sbu_1, # of connection points: 4
#     Node 17, Type 0, BuildingBlock: QUQFOY_clean_sbu_1, # of connection points: 4
#     Node 18, Type 0, BuildingBlock: QUQFOY_clean_sbu_1, # of connection points: 4
#     Node 19, Type 0, BuildingBlock: QUQFOY_clean_sbu_1, # of connection points: 4
#     Node 20, Type 0, BuildingBlock: QUQFOY_clean_sbu_1, # of connection points: 4
#     Node 21, Type 0, BuildingBlock: QUQFOY_clean_sbu_1, # of connection points: 4
#     Node 22, Type 0, BuildingBlock: QUQFOY_clean_sbu_1, # of connection points: 4
#     Node 23, Type 0, BuildingBlock: QUQFOY_clean_sbu_1, # of connection points: 4
#     Node 24, Type 1, BuildingBlock: VOLQOD_clean_sbu_1, # of connection points: 6
#     Node 25, Type 1, BuildingBlock: VOLQOD_clean_sbu_1, # of connection points: 6
#     Node 26, Type 1, BuildingBlock: VOLQOD_clean_sbu_1, # of connection points: 6
#     Node 27, Type 1, BuildingBlock: VOLQOD_clean_sbu_1, # of connection points: 6
#     Node 28, Type 1, BuildingBlock: VOLQOD_clean_sbu_1, # of connection points: 6
#     Node 29, Type 1, BuildingBlock: VOLQOD_clean_sbu_1, # of connection points: 6
#     Node 30, Type 1, BuildingBlock: VOLQOD_clean_sbu_1, # of connection points: 6
#     Node 31, Type 1, BuildingBlock: VOLQOD_clean_sbu_1, # of connection points: 6
#     Node 32, Type 1, BuildingBlock: VOLQOD_clean_sbu_1, # of connection points: 6
#     Node 33, Type 1, BuildingBlock: VOLQOD_clean_sbu_1, # of connection points: 6
#     Node 34, Type 1, BuildingBlock: VOLQOD_clean_sbu_1, # of connection points: 6
#     Node 35, Type 1, BuildingBlock: VOLQOD_clean_sbu_1, # of connection points: 6
#     Node 36, Type 1, BuildingBlock: VOLQOD_clean_sbu_1, # of connection points: 6
#     Node 37, Type 1, BuildingBlock: VOLQOD_clean_sbu_1, # of connection points: 6
#     Node 38, Type 1, BuildingBlock: VOLQOD_clean_sbu_1, # of connection points: 6
#     Node 39, Type 1, BuildingBlock: VOLQOD_clean_sbu_1, # of connection points: 6
#     Edge 40, Type (0, 1), BuildingBlock: EZIPEK_clean_linker_0, # of connection points: 2
#     Edge 41, Type (0, 1), BuildingBlock: EZIPEK_clean_linker_0, # of connection points: 2
#     Edge 42, Type (0, 1), BuildingBlock: EZIPEK_clean_linker_0, # of connection points: 2
#     Edge 43, Type (0, 1), BuildingBlock: EZIPEK_clean_linker_0, # of connection points: 2
#     Edge 44, Type (0, 1), BuildingBlock: EZIPEK_clean_linker_0, # of connection points: 2
#     Edge 45, Type (0, 1), BuildingBlock: EZIPEK_clean_linker_0, # of connection points: 2
#     Edge 46, Type (0, 1), BuildingBlock: EZIPEK_clean_linker_0, # of connection points: 2
#     Edge 47, Type (0, 1), BuildingBlock: EZIPEK_clean_linker_0, # of connection points: 2
#     Edge 48, Type (0, 1), BuildingBlock: EZIPEK_clean_linker_0, # of connection points: 2
#     Edge 49, Type (0, 1), BuildingBlock: EZIPEK_clean_linker_0, # of connection points: 2
#     Edge 50, Type (0, 1), BuildingBlock: EZIPEK_clean_linker_0, # of connection points: 2
#     Edge 51, Type (0, 1), BuildingBlock: EZIPEK_clean_linker_0, # of connection points: 2
#     Edge 52, Type (0, 1), BuildingBlock: EZIPEK_clean_linker_0, # of connection points: 2
#     Edge 53, Type (0, 1), BuildingBlock: EZIPEK_clean_linker_0, # of connection points: 2
#     Edge 54, Type (0, 1), BuildingBlock: EZIPEK_clean_linker_0, # of connection points: 2
#     Edge 55, Type (0, 1), BuildingBlock: EZIPEK_clean_linker_0, # of connection points: 2
#     Edge 56, Type (0, 1), BuildingBlock: EZIPEK_clean_linker_0, # of connection points: 2
#     Edge 57, Type (0, 1), BuildingBlock: EZIPEK_clean_linker_0, # of connection points: 2
#     Edge 58, Type (0, 1), BuildingBlock: EZIPEK_clean_linker_0, # of connection points: 2
#     Edge 59, Type (0, 1), BuildingBlock: EZIPEK_clean_linker_0, # of connection points: 2
#     Edge 60, Type (0, 1), BuildingBlock: EZIPEK_clean_linker_0, # of connection points: 2
#     Edge 61, Type (0, 1), BuildingBlock: EZIPEK_clean_linker_0, # of connection points: 2
#     Edge 62, Type (0, 1), BuildingBlock: EZIPEK_clean_linker_0, # of connection points: 2
#     Edge 63, Type (0, 1), BuildingBlock: EZIPEK_clean_linker_0, # of connection points: 2
#     Edge 64, Type (0, 1), BuildingBlock: EZIPEK_clean_linker_0, # of connection points: 2
#     Edge 65, Type (0, 1), BuildingBlock: EZIPEK_clean_linker_0, # of connection points: 2
#     Edge 66, Type (0, 1), BuildingBlock: EZIPEK_clean_linker_0, # of connection points: 2
#     Edge 67, Type (0, 1), BuildingBlock: EZIPEK_clean_linker_0, # of connection points: 2
#     Edge 68, Type (0, 1), BuildingBlock: EZIPEK_clean_linker_0, # of connection points: 2
#     Edge 69, Type (0, 1), BuildingBlock: EZIPEK_clean_linker_0, # of connection points: 2
#     Edge 70, Type (0, 1), BuildingBlock: EZIPEK_clean_linker_0, # of connection points: 2
#     Edge 71, Type (0, 1), BuildingBlock: EZIPEK_clean_linker_0, # of connection points: 2
#     Edge 72, Type (0, 1), BuildingBlock: EZIPEK_clean_linker_0, # of connection points: 2
#     Edge 73, Type (0, 1), BuildingBlock: EZIPEK_clean_linker_0, # of connection points: 2
#     Edge 74, Type (0, 1), BuildingBlock: EZIPEK_clean_linker_0, # of connection points: 2
#     Edge 75, Type (0, 1), BuildingBlock: EZIPEK_clean_linker_0, # of connection points: 2
#     Edge 76, Type (0, 1), BuildingBlock: EZIPEK_clean_linker_0, # of connection points: 2
#     Edge 77, Type (0, 1), BuildingBlock: EZIPEK_clean_linker_0, # of connection points: 2
#     Edge 78, Type (0, 1), BuildingBlock: EZIPEK_clean_linker_0, # of connection points: 2
#     Edge 79, Type (0, 1), BuildingBlock: EZIPEK_clean_linker_0, # of connection points: 2
#     Edge 80, Type (0, 1), BuildingBlock: EZIPEK_clean_linker_0, # of connection points: 2
#     Edge 81, Type (0, 1), BuildingBlock: EZIPEK_clean_linker_0, # of connection points: 2
#     Edge 82, Type (0, 1), BuildingBlock: EZIPEK_clean_linker_0, # of connection points: 2
#     Edge 83, Type (0, 1), BuildingBlock: EZIPEK_clean_linker_0, # of connection points: 2
#     Edge 84, Type (0, 1), BuildingBlock: EZIPEK_clean_linker_0, # of connection points: 2
#     Edge 85, Type (0, 1), BuildingBlock: EZIPEK_clean_linker_0, # of connection points: 2
#     Edge 86, Type (0, 1), BuildingBlock: EZIPEK_clean_linker_0, # of connection points: 2
#     Edge 87, Type (0, 1), BuildingBlock: EZIPEK_clean_linker_0, # of connection points: 2
#     Edge 88, Type (0, 1), BuildingBlock: EZIPEK_clean_linker_0, # of connection points: 2
#     Edge 89, Type (0, 1), BuildingBlock: EZIPEK_clean_linker_0, # of connection points: 2
#     Edge 90, Type (0, 1), BuildingBlock: EZIPEK_clean_linker_0, # of connection points: 2
#     Edge 91, Type (0, 1), BuildingBlock: EZIPEK_clean_linker_0, # of connection points: 2
#     Edge 92, Type (0, 1), BuildingBlock: EZIPEK_clean_linker_0, # of connection points: 2
#     Edge 93, Type (0, 1), BuildingBlock: EZIPEK_clean_linker_0, # of connection points: 2
#     Edge 94, Type (0, 1), BuildingBlock: EZIPEK_clean_linker_0, # of connection points: 2
#     Edge 95, Type (0, 1), BuildingBlock: EZIPEK_clean_linker_0, # of connection points: 2
#     Edge 96, Type (0, 1), BuildingBlock: EZIPEK_clean_linker_0, # of connection points: 2
#     Edge 97, Type (0, 1), BuildingBlock: EZIPEK_clean_linker_0, # of connection points: 2
#     Edge 98, Type (0, 1), BuildingBlock: EZIPEK_clean_linker_0, # of connection points: 2
#     Edge 99, Type (0, 1), BuildingBlock: EZIPEK_clean_linker_0, # of connection points: 2
#     Edge 100, Type (0, 1), BuildingBlock: EZIPEK_clean_linker_0, # of connection points: 2
#     Edge 101, Type (0, 1), BuildingBlock: EZIPEK_clean_linker_0, # of connection points: 2
#     Edge 102, Type (0, 1), BuildingBlock: EZIPEK_clean_linker_0, # of connection points: 2
#     Edge 103, Type (0, 1), BuildingBlock: EZIPEK_clean_linker_0, # of connection points: 2
#     Edge 104, Type (0, 1), BuildingBlock: EZIPEK_clean_linker_0, # of connection points: 2
#     Edge 105, Type (0, 1), BuildingBlock: EZIPEK_clean_linker_0, # of connection points: 2
#     Edge 106, Type (0, 1), BuildingBlock: EZIPEK_clean_linker_0, # of connection points: 2
#     Edge 107, Type (0, 1), BuildingBlock: EZIPEK_clean_linker_0, # of connection points: 2
#     Edge 108, Type (0, 1), BuildingBlock: EZIPEK_clean_linker_0, # of connection points: 2
#     Edge 109, Type (0, 1), BuildingBlock: EZIPEK_clean_linker_0, # of connection points: 2
#     Edge 110, Type (0, 1), BuildingBlock: EZIPEK_clean_linker_0, # of connection points: 2
#     Edge 111, Type (0, 1), BuildingBlock: EZIPEK_clean_linker_0, # of connection points: 2
#     Edge 112, Type (0, 1), BuildingBlock: EZIPEK_clean_linker_0, # of connection points: 2
#     Edge 113, Type (0, 1), BuildingBlock: EZIPEK_clean_linker_0, # of connection points: 2
#     Edge 114, Type (0, 1), BuildingBlock: EZIPEK_clean_linker_0, # of connection points: 2
#     Edge 115, Type (0, 1), BuildingBlock: EZIPEK_clean_linker_0, # of connection points: 2
#     Edge 116, Type (0, 1), BuildingBlock: EZIPEK_clean_linker_0, # of connection points: 2
#     Edge 117, Type (0, 1), BuildingBlock: EZIPEK_clean_linker_0, # of connection points: 2
#     Edge 118, Type (0, 1), BuildingBlock: EZIPEK_clean_linker_0, # of connection points: 2
#     Edge 119, Type (0, 1), BuildingBlock: EZIPEK_clean_linker_0, # of connection points: 2
#     Edge 120, Type (0, 1), BuildingBlock: EZIPEK_clean_linker_0, # of connection points: 2
#     Edge 121, Type (0, 1), BuildingBlock: EZIPEK_clean_linker_0, # of connection points: 2
#     Edge 122, Type (0, 1), BuildingBlock: EZIPEK_clean_linker_0, # of connection points: 2
#     Edge 123, Type (0, 1), BuildingBlock: EZIPEK_clean_linker_0, # of connection points: 2
#     Edge 124, Type (0, 1), BuildingBlock: EZIPEK_clean_linker_0, # of connection points: 2
#     Edge 125, Type (0, 1), BuildingBlock: EZIPEK_clean_linker_0, # of connection points: 2
#     Edge 126, Type (0, 1), BuildingBlock: EZIPEK_clean_linker_0, # of connection points: 2
#     Edge 127, Type (0, 1), BuildingBlock: EZIPEK_clean_linker_0, # of connection points: 2
#     Edge 128, Type (0, 1), BuildingBlock: EZIPEK_clean_linker_0, # of connection points: 2
#     Edge 129, Type (0, 1), BuildingBlock: EZIPEK_clean_linker_0, # of connection points: 2
#     Edge 130, Type (0, 1), BuildingBlock: EZIPEK_clean_linker_0, # of connection points: 2
#     Edge 131, Type (0, 1), BuildingBlock: EZIPEK_clean_linker_0, # of connection points: 2
#     Edge 132, Type (0, 1), BuildingBlock: EZIPEK_clean_linker_0, # of connection points: 2
#     Edge 133, Type (0, 1), BuildingBlock: EZIPEK_clean_linker_0, # of connection points: 2
#     Edge 134, Type (0, 1), BuildingBlock: EZIPEK_clean_linker_0, # of connection points: 2
#     Edge 135, Type (0, 1), BuildingBlock: EZIPEK_clean_linker_0, # of connection points: 2
# Relax obj value: 0.339
# Max RMSD: 0.300
# Mean RMSD: 0.199
data_MOF--net-iac--node1-QUQFOY_clean_sbu_1--node2-VOLQOD_clean_sbu_1--edge1-EZIPEK_clean_linker_0
_symmetry_space_group_name_H-M    P1
_symmetry_Int_Tables_number       1
_symmetry_cell_setting            triclinic
loop_
_symmetry_equiv_pos_as_xyz
'x, y, z'
_cell_length_a     42.001384
_cell_length_b     42.07091
_cell_length_c     42.019088
_cell_angle_alpha  91.36071
_cell_angle_beta   90.528143
_cell_angle_gamma 94.119883
loop_
_atom_site_label
_atom_site_type_symbol
_atom_site_fract_x
_atom_site_fract_y
_atom_site_fract_z
_atom_type_partial_charge
O0 O 0.98295 0.20479 0.11511 0.0
Cd1 Cd 0.97773 0.23573 0.15267 0.0
Cd2 Cd -0.00287 0.2786 0.10654 0.0
O3 O 0.97685 0.24085 0.07911 0.0
O4 O 0.9508 0.21181 0.18371 0.0
O5 O 0.93612 0.25472 0.15901 0.0
C6 C 0.92984 0.23215 0.17886 0.0
C7 C -0.00444 0.32828 0.08456 0.0
C8 C 0.97754 0.21189 0.0865 0.0
C9 C 0.04037 0.2681 0.16301 0.0
O10 O 0.03785 0.27652 0.13433 0.0
O11 O 0.01724 0.25358 0.17687 0.0
O12 O 0.01425 0.30784 0.0736 0.0
O13 O 0.97675 0.32022 0.10761 0.0
O14 O 0.0872 0.7377 0.38622 0.0
Cd15 Cd 0.07142 0.74562 0.43125 0.0
Cd16 Cd 0.00659 0.73932 0.39355 0.0
O17 O 0.04054 0.71841 0.36619 0.0
O18 O 0.09901 0.72576 0.46258 0.0
O19 O 0.04923 0.70763 0.44947 0.0
C20 C 0.07548 0.70444 0.46503 0.0
C21 C 0.95829 0.74145 0.36673 0.0
C22 C 0.07068 0.72271 0.36447 0.0
C23 C 0.02898 0.79573 0.44194 0.0
O24 O 0.00983 0.7785 0.42423 0.0
O25 O 0.05729 0.78842 0.44694 0.0
O26 O 0.98256 0.76049 0.36034 0.0
O27 O 0.96192 0.71971 0.38739 0.0
O28 O 0.51724 0.68434 0.63627 0.0
Cd29 Cd 0.51625 0.72426 0.66574 0.0
Cd30 Cd 0.54707 0.75133 0.61611 0.0
O31 O 0.53092 0.70994 0.59289 0.0
O32 O 0.48563 0.71085 0.69925 0.0
O33 O 0.47753 0.74916 0.66527 0.0
C34 C 0.46779 0.73217 0.68898 0.0
C35 C 0.53527 0.79741 0.59178 0.0
C36 C 0.52104 0.68453 0.60632 0.0
C37 C 0.58235 0.75308 0.6776 0.0
O38 O 0.58519 0.7541 0.64758 0.0
O39 O 0.55579 0.7441 0.68975 0.0
O40 O 0.55902 0.78185 0.58254 0.0
O41 O 0.51837 0.78694 0.6154 0.0
O42 O 0.57634 0.26453 0.88833 0.0
Cd43 Cd 0.55237 0.25726 0.93014 0.0
Cd44 Cd 0.50056 0.25923 0.87915 0.0
O45 O 0.53869 0.23415 0.86354 0.0
O46 O 0.57609 0.22946 0.95807 0.0
O47 O 0.53035 0.21414 0.93297 0.0
C48 C 0.55416 0.2073 0.95067 0.0
C49 C 0.46387 0.27205 0.84137 0.0
C50 C 0.56749 0.24559 0.86548 0.0
C51 C 0.50858 0.30517 0.94048 0.0
O52 O 0.49695 0.29351 0.91452 0.0
O53 O 0.53271 0.29402 0.95321 0.0
O54 O 0.4919 0.28652 0.84265 0.0
O55 O 0.4575 0.24826 0.8597 0.0
O56 O 0.1088 -0.00012 0.16839 0.0
Cd57 Cd 0.13893 -0.00376 0.20665 0.0
Cd58 Cd 0.08945 0.02522 0.23834 0.0
O59 O 0.0675 0.01667 0.19461 0.0
O60 O 0.16888 0.96424 0.19395 0.0
O61 O 0.13432 0.9579 0.23357 0.0
C62 C 0.15695 0.94721 0.21662 0.0
C63 C 0.05812 0.02125 0.2834 0.0
C64 C 0.08011 0.00747 0.16897 0.0
C65 C 0.15615 0.05876 0.23799 0.0
O66 O 0.12669 0.05942 0.24419 0.0
O67 O 0.1668 0.03497 0.22367 0.0
O68 O 0.05631 0.04453 0.26434 0.0
O69 O 0.07694 -0.00079 0.27642 0.0
O70 O 0.21219 0.8701 0.60283 0.0
Cd71 Cd 0.2117 0.90287 0.56727 0.0
Cd72 Cd 0.22619 0.85144 0.53113 0.0
O73 O 0.21521 0.82713 0.57191 0.0
O74 O 0.18226 0.93623 0.57778 0.0
O75 O 0.17498 0.90126 0.53719 0.0
C76 C 0.16554 0.92527 0.55346 0.0
C77 C 0.21751 0.82889 0.48095 0.0
C78 C 0.21226 0.84003 0.59925 0.0
C79 C 0.27431 0.90836 0.53791 0.0
O80 O 0.268 0.87946 0.52966 0.0
O81 O 0.25426 0.92404 0.55275 0.0
O82 O 0.23772 0.818 0.5003 0.0
O83 O 0.19951 0.8505 0.49117 0.0
O84 O 0.37223 0.01915 0.67262 0.0
Cd85 Cd 0.33981 0.02513 0.70815 0.0
Cd86 Cd 0.38803 0.00145 0.74627 0.0
O87 O 0.41252 0.0138 0.70582 0.0
O88 O 0.31269 0.05973 0.69637 0.0
O89 O 0.34873 0.06392 0.73566 0.0
C90 C 0.32727 0.07665 0.71883 0.0
C91 C 0.41742 0.00246 0.79313 0.0
C92 C 0.4019 0.01773 0.67794 0.0
C93 C 0.32268 0.96482 0.73976 0.0
O94 O 0.35199 0.96581 0.7475 0.0
O95 O 0.31141 0.98741 0.72486 0.0
O96 O 0.42112 0.98126 0.77121 0.0
O97 O 0.39804 0.0243 0.78798 0.0
O98 O 0.26971 0.14325 0.09165 0.0
Cd99 Cd 0.27056 0.1132 0.05228 0.0
Cd100 Cd 0.25026 0.16518 0.02388 0.0
O101 O 0.2639 0.18781 0.0661 0.0
O102 O 0.29695 0.07815 0.06428 0.0
O103 O 0.31057 0.11341 0.02719 0.0
C104 C 0.31697 0.08881 0.04331 0.0
C105 C 0.25896 0.18767 0.97508 0.0
C106 C 0.26872 0.17336 0.09165 0.0
C107 C 0.20608 0.10719 0.02267 0.0
O108 O 0.20853 0.13728 0.02133 0.0
O109 O 0.22907 0.09202 0.03257 0.0
O110 O 0.24008 0.19969 -0.00466 0.0
O111 O 0.27546 0.16452 0.98375 0.0
O112 O 0.71637 0.36127 0.09268 0.0
Cd113 Cd 0.71321 0.39733 0.06131 0.0
Cd114 Cd 0.74709 0.35503 0.02293 0.0
O115 O 0.73665 0.32563 0.06056 0.0
O116 O 0.68068 0.42429 0.07897 0.0
O117 O 0.67494 0.39694 0.03304 0.0
C118 C 0.66384 0.41627 0.05387 0.0
C119 C 0.74692 0.33383 0.97185 0.0
C120 C 0.72517 0.33347 0.08722 0.0
C121 C 0.77649 0.42154 0.03772 0.0
O122 O 0.77962 0.39367 0.02671 0.0
O123 O 0.75145 0.42852 0.05205 0.0
O124 O 0.76887 0.32801 0.99201 0.0
O125 O 0.7237 0.35018 0.98118 0.0
O126 O 0.86819 0.51192 0.19558 0.0
Cd127 Cd 0.83115 0.51646 0.22609 0.0
Cd128 Cd 0.87838 0.49806 0.26995 0.0
O129 O 0.90642 0.51194 0.23204 0.0
O130 O 0.80119 0.54064 0.2013 0.0
O131 O 0.82723 0.55984 0.24481 0.0
C132 C 0.80816 0.56396 0.22117 0.0
C133 C 0.9029 0.50559 0.31913 0.0
C134 C 0.89748 0.51423 0.20336 0.0
C135 C 0.81703 0.45598 0.25884 0.0
O136 O 0.84573 0.45895 0.26883 0.0
O137 O 0.8053 0.47749 0.24275 0.0
O138 O 0.91069 0.4835 0.29969 0.0
O139 O 0.88137 0.52417 0.3106 0.0
O140 O 0.77176 0.66741 0.58024 0.0
Cd141 Cd 0.77046 0.62125 0.56316 0.0
Cd142 Cd 0.73005 0.6483 0.51797 0.0
O143 O 0.74249 0.68949 0.54397 0.0
O144 O 0.80551 0.60192 0.5858 0.0
O145 O 0.80386 0.60781 0.53333 0.0
C146 C 0.81807 0.59795 0.55827 0.0
C147 C 0.72682 0.65102 0.46266 0.0
C148 C 0.7595 0.69161 0.56913 0.0
C149 C 0.70506 0.59075 0.5549 0.0
O150 O 0.70001 0.6123 0.53526 0.0
O151 O 0.73166 0.58988 0.56912 0.0
O152 O 0.75117 0.6399 0.47638 0.0
O153 O 0.70563 0.66229 0.48089 0.0
O154 O 0.59275 0.48878 0.69542 0.0
Cd155 Cd 0.63873 0.4931 0.71264 0.0
Cd156 Cd 0.60672 0.52892 0.76303 0.0
O157 O 0.56952 0.5179 0.73171 0.0
O158 O 0.66249 0.46226 0.68736 0.0
O159 O 0.65451 0.45893 0.73945 0.0
C160 C 0.66657 0.44782 0.71364 0.0
C161 C 0.58845 0.52819 0.81478 0.0
C162 C 0.5682 0.50097 0.70634 0.0
C163 C 0.66625 0.55843 0.73103 0.0
O164 O 0.64573 0.55939 0.75298 0.0
O165 O 0.6663 0.53516 0.71132 0.0
O166 O 0.58379 0.55166 0.79662 0.0
O167 O 0.60541 0.50586 0.80418 0.0
O168 O 0.06227 0.74836 0.89935 0.0
Cd169 Cd 0.01386 0.75525 0.89695 0.0
Cd170 Cd 0.02938 0.76882 0.83778 0.0
O171 O 0.07053 0.74818 0.8475 0.0
O172 O -0.00389 0.74152 0.93871 0.0
O173 O 0.97939 0.71961 0.89308 0.0
C174 C 0.97628 0.72176 0.92352 0.0
C175 C 0.98818 0.748 0.80566 0.0
C176 C 0.08064 0.74532 0.87575 0.0
C177 C 0.015 0.82311 0.87807 0.0
O178 O 0.02957 0.81549 0.85301 0.0
O179 O 0.00285 0.8018 0.89609 0.0
O180 O 0.01369 0.76128 0.79317 0.0
O181 O 0.98726 0.74507 0.83616 0.0
O182 O 0.00248 0.18633 0.62509 0.0
Cd183 Cd 0.00034 0.22486 0.65671 0.0
Cd184 Cd 0.02747 0.2545 0.60907 0.0
O185 O 0.01258 0.21491 0.58277 0.0
O186 O 0.9671 0.21502 0.68923 0.0
O187 O 0.96513 0.25441 0.65523 0.0
C188 C 0.95294 0.23906 0.67895 0.0
C189 C 0.01383 0.30256 0.58936 0.0
C190 C 0.00617 0.1881 0.59513 0.0
C191 C 0.06722 0.24631 0.66767 0.0
O192 O 0.06742 0.25153 0.63797 0.0
O193 O 0.04115 0.23873 0.68139 0.0
O194 O 0.03738 0.28826 0.57765 0.0
O195 O -0.0014 0.29012 0.61307 0.0
O196 O 0.46237 0.1942 0.37884 0.0
Cd197 Cd 0.47251 0.24084 0.3675 0.0
Cd198 Cd 0.47288 0.24905 0.42913 0.0
O199 O 0.4862 0.20334 0.42525 0.0
O200 O 0.50286 0.24545 0.33131 0.0
O201 O 0.51486 0.25952 0.38165 0.0
C202 C 0.52377 0.25584 0.35261 0.0
C203 C 0.49959 0.28433 0.46526 0.0
C204 C 0.47335 0.18397 0.40452 0.0
C205 C 0.41511 0.26438 0.39243 0.0
O206 O 0.42568 0.25538 0.41894 0.0
O207 O 0.43299 0.26636 0.3682 0.0
O208 O 0.48177 0.26035 0.4749 0.0
O209 O 0.50254 0.28788 0.43504 0.0
O210 O 0.48615 0.70295 0.13731 0.0
Cd211 Cd 0.48764 0.74095 0.16987 0.0
Cd212 Cd 0.52446 0.76842 0.12654 0.0
O213 O 0.51983 0.72583 0.10335 0.0
O214 O 0.45321 0.73102 0.20058 0.0
O215 O 0.45496 0.77346 0.17004 0.0
C216 C 0.44109 0.75683 0.19207 0.0
C217 C 0.51147 0.81051 0.09628 0.0
C218 C 0.50213 0.70205 0.11179 0.0
C219 C 0.55388 0.76243 0.1903 0.0
O220 O 0.55785 0.77302 0.16244 0.0
O221 O 0.52721 0.74926 0.19837 0.0
O222 O 0.49259 0.80041 0.11856 0.0
O223 O 0.53806 0.79746 0.09238 0.0
O224 O 0.85384 0.01078 0.69517 0.0
Cd225 Cd 0.84416 0.01519 0.74286 0.0
Cd226 Cd 0.90869 0.01032 0.74969 0.0
O227 O 0.90596 0.00735 0.70084 0.0
O228 O 0.80771 0.0425 0.74984 0.0
O229 O 0.85721 0.05456 0.76734 0.0
C230 C 0.82817 0.06216 0.76463 0.0
C231 C 0.94721 0.04662 0.77406 0.0
C232 C 0.88119 0.00775 0.68331 0.0
C233 C 0.86325 0.96003 0.7792 0.0
O234 O 0.89191 0.97057 0.77441 0.0
O235 O 0.84024 0.97446 0.76796 0.0
O236 O 0.95481 0.01971 0.76207 0.0
O237 O 0.91765 0.05258 0.77209 0.0
O238 O 0.75464 0.11284 0.568 0.0
Cd239 Cd 0.74844 0.08285 0.52877 0.0
Cd240 Cd 0.73789 0.134 0.49692 0.0
O241 O 0.73416 0.15211 0.54239 0.0
O242 O 0.7703 0.04256 0.52988 0.0
O243 O 0.78214 0.08124 0.49613 0.0
C244 C 0.78671 0.05305 0.50596 0.0
C245 C 0.76835 0.16556 0.46215 0.0
C246 C 0.74406 0.14042 0.5679 0.0
C247 C 0.68791 0.08111 0.49292 0.0
O248 O 0.69961 0.1055 0.47876 0.0
O249 O 0.70265 0.06962 0.51586 0.0
O250 O 0.73985 0.17201 0.46981 0.0
O251 O 0.77996 0.14114 0.47461 0.0
O252 O 0.6194 0.9666 0.21051 0.0
Cd253 Cd 0.64043 0.97 0.25593 0.0
Cd254 Cd 0.58474 0.99274 0.26916 0.0
O255 O 0.5743 0.98825 0.22257 0.0
O256 O 0.67871 0.94439 0.25594 0.0
O257 O 0.63857 0.93672 0.2893 0.0
C258 C 0.66636 0.92969 0.27996 0.0
C259 C 0.55426 0.96234 0.30441 0.0
C260 C 0.59279 0.97695 0.20229 0.0
C261 C 0.64221 0.03805 0.27729 0.0
O262 O 0.61206 0.03419 0.27971 0.0
O263 O 0.65822 0.01458 0.27004 0.0
O264 O 0.54541 0.98952 0.29527 0.0
O265 O 0.5805 0.95274 0.29337 0.0
O266 O 0.75416 0.87574 0.0706 0.0
Cd267 Cd 0.74553 0.89386 0.02587 0.0
Cd268 Cd 0.77802 0.84475 0.00811 0.0
O269 O 0.7716 0.83023 0.0537 0.0
O270 O 0.71045 0.92324 0.02765 0.0
O271 O 0.70856 0.87912 -0.00255 0.0
C272 C 0.69593 0.90494 0.00622 0.0
C273 C 0.76315 0.81183 0.9652 0.0
C274 C 0.76389 0.84845 0.07641 0.0
C275 C 0.80866 0.91008 -0.00173 0.0
O276 O 0.81292 0.88056 -0.00042 0.0
O277 O 0.78209 0.92038 0.00572 0.0
O278 O 0.78912 0.80807 0.98085 0.0
O279 O 0.74474 0.83317 0.97515 0.0
O280 O 0.25887 0.63954 0.05411 0.0
Cd281 Cd 0.24876 0.62081 0.00892 0.0
Cd282 Cd 0.23036 0.67893 -0.0022 0.0
O283 O 0.23891 0.68565 0.04509 0.0
O284 O 0.27263 0.58157 0.00593 0.0
O285 O 0.27982 0.62144 0.97287 0.0
C286 C 0.28778 0.59409 0.98222 0.0
C287 C 0.25926 0.71294 0.96424 0.0
C288 C 0.25091 0.66661 0.06384 0.0
C289 C 0.17998 0.62662 0.9916 0.0
O290 O 0.18652 0.65617 0.98711 0.0
O291 O 0.20132 0.60856 0.00014 0.0
O292 O 0.23623 0.72281 0.98106 0.0
O293 O 0.26503 0.68327 0.96592 0.0
O294 O 0.12083 0.47989 0.72981 0.0
Cd295 Cd 0.14841 0.48929 0.77089 0.0
Cd296 Cd 0.10203 0.52464 0.78561 0.0
O297 O 0.08733 0.51687 0.74031 0.0
O298 O 0.18067 0.45725 0.77278 0.0
O299 O 0.14628 0.4648 0.81143 0.0
C300 C 0.1703 0.45052 0.80079 0.0
C301 C 0.06709 0.50692 0.82421 0.0
C302 C 0.09774 0.49607 0.72167 0.0
C303 C 0.16626 0.55814 0.78273 0.0
O304 O 0.1376 0.56033 0.79151 0.0
O305 O 0.17546 0.53164 0.77296 0.0
O306 O 0.06439 0.53414 0.81124 0.0
O307 O 0.09024 0.49015 0.81566 0.0
O308 O 0.24424 0.3766 0.55891 0.0
Cd309 Cd 0.24053 0.38781 0.51151 0.0
Cd310 Cd 0.26137 0.32973 0.50453 0.0
O311 O 0.25364 0.32593 0.55202 0.0
O312 O 0.21404 0.42548 0.51053 0.0
O313 O 0.20012 0.37933 0.48612 0.0
C314 C 0.19363 0.40798 0.49351 0.0
C315 C 0.23137 0.29846 0.46781 0.0
C316 C 0.24951 0.34969 0.5702 0.0
C317 C 0.3069 0.38442 0.48898 0.0
O318 O 0.3037 0.35463 0.49383 0.0
O319 O 0.28337 0.40165 0.49139 0.0
O320 O 0.25349 0.28646 0.48427 0.0
O321 O 0.22685 0.32817 0.47248 0.0
O322 O 0.37349 0.51819 0.2232 0.0
Cd323 Cd 0.35699 0.52524 0.26891 0.0
Cd324 Cd 0.40654 0.49536 0.28107 0.0
O325 O 0.4223 0.5089 0.23739 0.0
O326 O 0.32722 0.55953 0.2669 0.0
O327 O 0.37012 0.56215 0.29834 0.0
C328 C 0.34489 0.57476 0.2883 0.0
C329 C 0.43908 0.50552 0.32524 0.0
C330 C 0.40196 0.51315 0.21573 0.0
C331 C 0.3419 0.46018 0.28498 0.0
O332 O 0.37166 0.45781 0.28123 0.0
O333 O 0.33068 0.48729 0.28594 0.0
O334 O 0.44356 0.48202 0.3059 0.0
O335 O 0.41633 0.52362 0.31912 0.0
O336 O 0.00066 0.10282 0.98569 0.0
Zn337 Zn 0.01972 0.07075 0.95688 0.0
O338 O 0.00076 0.02881 0.96581 0.0
Zn339 Zn 0.03386 0.0013 0.97718 0.0
Zn340 Zn 0.97203 0.03205 0.00057 0.0
Zn341 Zn 0.97499 0.01083 0.93097 0.0
O342 O 0.0307 0.96135 0.95044 0.0
O343 O 0.98964 0.96833 0.9182 0.0
O344 O 0.06629 0.07352 0.96868 0.0
O345 O 0.07747 0.02293 0.97305 0.0
O346 O 0.03253 0.99244 0.02409 0.0
O347 O 0.99417 0.02232 0.04091 0.0
O348 O 0.9341 0.0016 0.99469 0.0
O349 O 0.01316 0.08067 0.91011 0.0
O350 O 0.92873 0.00124 0.94212 0.0
O351 O 0.98 0.0393 0.89418 0.0
C352 C 0.9757 0.10209 0.00273 0.0
C353 C 0.01165 0.95164 0.92794 0.0
C354 C 0.01736 0.00537 0.04645 0.0
C355 C 0.08601 0.05253 0.9735 0.0
C356 C 0.91826 0.99377 0.96946 0.0
C357 C -0.00403 0.06543 0.88877 0.0
O358 O 0.95829 0.07642 0.00599 0.0
O359 O 0.23761 0.70071 0.21395 0.0
Zn360 Zn 0.23261 0.70936 0.2605 0.0
O361 O 0.24285 0.75435 0.27069 0.0
Zn362 Zn 0.27814 0.75937 0.30173 0.0
Zn363 Zn 0.25373 0.77681 0.23216 0.0
Zn364 Zn 0.20603 0.77284 0.28757 0.0
O365 O 0.26494 0.78155 0.34246 0.0
O366 O 0.21318 0.78577 0.33282 0.0
O367 O 0.2638 0.68299 0.28182 0.0
O368 O 0.29228 0.71667 0.31429 0.0
O369 O 0.31808 0.77867 0.28077 0.0
O370 O 0.30059 0.78489 0.23133 0.0
O371 O 0.23216 0.81769 0.22816 0.0
O372 O 0.18764 0.69479 0.27349 0.0
O373 O 0.19471 0.81158 0.26498 0.0
O374 O 0.16919 0.74132 0.2872 0.0
C375 C 0.24137 0.71869 0.19018 0.0
C376 C 0.23732 0.78875 0.35132 0.0
C377 C 0.32318 0.7848 0.2516 0.0
C378 C 0.28584 0.68882 0.30253 0.0
C379 C 0.208 0.82718 0.24264 0.0
C380 C 0.16511 0.71135 0.28276 0.0
O381 O 0.24465 0.74891 0.19334 0.0
O382 O 0.48339 0.90738 0.50449 0.0
Zn383 Zn 0.46368 0.93815 0.47597 0.0
O384 O 0.48156 0.98143 0.48629 0.0
Zn385 Zn 0.4477 0.00822 0.49865 0.0
Zn386 Zn 0.51316 0.98118 0.52037 0.0
Zn387 Zn 0.50233 -0.00037 0.44977 0.0
O388 O 0.44472 0.04585 0.47086 0.0
O389 O 0.4851 0.04023 0.43817 0.0
O390 O 0.41669 0.93394 0.48546 0.0
O391 O 0.40593 0.98352 0.49886 0.0
O392 O 0.45352 0.02329 0.54397 0.0
O393 O 0.49737 0.00201 0.55967 0.0
O394 O 0.55475 0.00409 0.50884 0.0
O395 O 0.47257 0.9249 0.43018 0.0
O396 O 0.54828 0.01205 0.4572 0.0
O397 O 0.49855 0.96934 0.41349 0.0
C398 C 0.50586 0.91 0.5251 0.0
C399 C 0.4625 0.05593 0.44841 0.0
C400 C 0.4738 0.01834 0.56564 0.0
C401 C 0.39731 0.95426 0.49422 0.0
C402 C 0.56534 0.01388 0.4823 0.0
C403 C 0.48685 0.94098 0.40856 0.0
O404 O 0.52061 0.93668 0.53235 0.0
O405 O 0.27434 0.26502 0.84751 0.0
Zn406 Zn 0.28211 0.29759 0.8145 0.0
O407 O 0.26402 0.28001 0.77462 0.0
Zn408 Zn 0.29661 0.27547 0.74259 0.0
Zn409 Zn 0.24027 0.23914 0.77983 0.0
Zn410 Zn 0.23534 0.30963 0.75999 0.0
O411 O 0.28728 0.30052 0.70353 0.0
O412 O 0.25188 0.33221 0.72225 0.0
O413 O 0.32947 0.30626 0.81015 0.0
O414 O 0.33901 0.29199 0.76033 0.0
O415 O 0.30243 0.22911 0.73196 0.0
O416 O 0.26441 0.20466 0.76077 0.0
O417 O 0.19765 0.23708 0.75591 0.0
O418 O 0.26174 0.33736 0.83082 0.0
O419 O 0.19467 0.2882 0.74557 0.0
O420 O 0.22572 0.34132 0.79248 0.0
C421 C 0.25576 0.23995 0.84984 0.0
C422 C 0.27092 0.32472 0.70057 0.0
C423 C 0.28814 0.20378 0.74234 0.0
C424 C 0.34885 0.30331 0.78724 0.0
C425 C 0.18316 0.25955 0.74368 0.0
C426 C 0.23818 0.35057 0.81895 0.0
O427 O 0.23842 0.22852 0.82655 0.0
O428 O 0.97356 -0.00579 0.40881 0.0
Zn429 Zn 0.95443 0.9739 0.44766 0.0
O430 O 0.97189 -0.00329 0.48413 0.0
Zn431 Zn 0.97748 0.96947 0.51912 0.0
Zn432 Zn 0.01157 0.01935 0.4755 0.0
Zn433 Zn 0.94069 0.02571 0.49348 0.0
O434 O 0.94771 0.97982 0.55492 0.0
O435 O 0.91525 0.01131 0.53104 0.0
O436 O 0.96774 0.92955 0.45062 0.0
O437 O 0.9726 0.92374 0.50307 0.0
O438 O 0.0232 0.97357 0.53432 0.0
O439 O 0.04707 0.99378 0.49143 0.0
O440 O 0.01347 0.06098 0.50101 0.0
O441 O 0.9063 0.97597 0.44851 0.0
O442 O 0.96172 0.06764 0.50711 0.0
O443 O 0.91031 0.02789 0.45726 0.0
C444 C -0.00317 0.01475 0.40442 0.0
C445 C 0.92321 -0.00388 0.55526 0.0
C446 C 0.04806 0.97907 0.51759 0.0
C447 C 0.97318 0.91265 0.47457 0.0
C448 C 0.99095 0.07717 0.51118 0.0
C449 C 0.89325 0.00232 0.45095 0.0
O450 O 0.0142 0.02567 0.42792 0.0
O451 O 0.34561 0.77055 0.77045 0.0
Zn452 Zn 0.3095 0.78651 0.7959 0.0
O453 O 0.27212 0.75889 0.7875 0.0
Zn454 Zn 0.23554 0.78337 0.78358 0.0
Zn455 Zn 0.2759 0.73246 0.75064 0.0
Zn456 Zn 0.26906 0.73137 0.82296 0.0
O457 O 0.20426 0.77093 0.81805 0.0
O458 O 0.23286 0.74309 0.85079 0.0
O459 O 0.30114 0.83053 0.78265 0.0
O460 O 0.24831 0.83049 0.78687 0.0
O461 O 0.21798 0.77968 0.73854 0.0
O462 O 0.25566 0.75342 0.71461 0.0
O463 O 0.25263 0.68963 0.75706 0.0
O464 O 0.31758 0.78707 0.84359 0.0
O465 O 0.25743 0.6864 0.80955 0.0
O466 O 0.3096 0.73521 0.84803 0.0
C467 C 0.34705 0.7479 0.74987 0.0
C468 C 0.20754 0.7566 0.84426 0.0
C469 C 0.23201 0.77066 0.71344 0.0
C470 C 0.27548 0.84488 0.78206 0.0
C471 C 0.24847 0.67431 0.78265 0.0
C472 C 0.31806 0.76234 0.86042 0.0
O473 O 0.32247 0.73017 0.74098 0.0
O474 O 0.56059 0.00541 0.05541 0.0
Zn475 Zn 0.5537 0.01142 0.00888 0.0
O476 O 0.51013 -0.00345 -0.00315 0.0
Zn477 Zn 0.51057 0.95912 0.96813 0.0
Zn478 Zn 0.48594 0.98669 0.03511 0.0
Zn479 Zn 0.48954 0.02955 0.97582 0.0
O480 O 0.48717 0.96548 0.92667 0.0
O481 O 0.47811 0.01692 0.93121 0.0
O482 O 0.58474 0.98304 0.98946 0.0
O483 O 0.55565 0.94851 0.95862 0.0
O484 O 0.4937 0.91988 0.99078 0.0
O485 O 0.47898 0.9397 0.03747 0.0
O486 O 0.44442 0.00766 0.03777 0.0
O487 O 0.56405 0.05776 -0.00268 0.0
O488 O 0.44896 0.03977 -0.00342 0.0
O489 O 0.51776 0.069 0.97552 0.0
C490 C 0.5419 0.00056 0.07868 0.0
C491 C 0.47724 0.99084 0.91531 0.0
C492 C 0.48379 0.91618 0.01909 0.0
C493 C 0.58241 0.95887 0.97061 0.0
C494 C 0.43382 0.02908 0.02052 0.0
C495 C 0.54617 0.07722 0.98448 0.0
O496 O 0.51176 -0.00271 0.07482 0.0
O497 O 0.15343 0.25686 0.25839 0.0
Zn498 Zn 0.1858 0.23998 0.28752 0.0
O499 O 0.22572 0.26382 0.28292 0.0
Zn500 Zn 0.2595 0.23538 0.28014 0.0
Zn501 Zn 0.22567 0.28997 0.2464 0.0
Zn502 Zn 0.2314 0.29094 0.31988 0.0
O503 O 0.29323 0.24838 0.31328 0.0
O504 O 0.26561 0.2759 0.34798 0.0
O505 O 0.19095 0.19459 0.27563 0.0
O506 O 0.24251 0.18973 0.28574 0.0
O507 O 0.27574 0.23336 0.23523 0.0
O508 O 0.24496 0.26631 0.21074 0.0
O509 O 0.25096 0.33149 0.25535 0.0
O510 O 0.17415 0.24115 0.33386 0.0
O511 O 0.24848 0.33454 0.30825 0.0
O512 O 0.19132 0.29096 0.34497 0.0
C513 C 0.1549 0.27906 0.23822 0.0
C514 C 0.29088 0.26293 0.3401 0.0
C515 C 0.26486 0.24491 0.20993 0.0
C516 C 0.21462 0.17762 0.27858 0.0
C517 C 0.25705 0.34623 0.28176 0.0
C518 C 0.1774 0.26471 0.35341 0.0
O519 O 0.18071 0.29567 0.23256 0.0
O520 O 0.48843 0.50983 0.92942 0.0
Zn521 Zn 0.45685 0.4937 0.962 0.0
O522 O 0.47301 0.50671 0.00424 0.0
Zn523 Zn 0.4737 0.46926 0.03075 0.0
Zn524 Zn 0.51534 0.52883 0.00275 0.0
Zn525 Zn 0.44549 0.53569 0.02325 0.0
O526 O 0.45064 0.47471 0.0722 0.0
O527 O 0.43411 0.52311 0.06691 0.0
O528 O 0.45769 0.44574 0.95787 0.0
O529 O 0.45698 0.42944 0.00778 0.0
O530 O 0.51935 0.46033 0.03965 0.0
O531 O 0.54754 0.50326 0.02281 0.0
O532 O 0.51755 0.57178 0.0251 0.0
O533 O 0.41308 0.51054 0.9526 0.0
O534 O 0.46598 0.5788 0.03044 0.0
O535 O 0.40707 0.53953 -0.00309 0.0
C536 C 0.51647 0.52355 0.93113 0.0
C537 C 0.43724 0.49868 0.08346 0.0
C538 C 0.54595 0.4759 0.03504 0.0
C539 C 0.45699 0.4235 0.97801 0.0
C540 C 0.49504 0.58882 0.03324 0.0
C541 C 0.3971 0.52899 0.96979 0.0
O542 O 0.52955 0.53248 0.9576 0.0
O543 O 0.80976 0.25467 0.26409 0.0
Zn544 Zn 0.77732 0.26839 0.29508 0.0
O545 O 0.7357 0.24895 0.28316 0.0
Zn546 Zn 0.70671 0.28022 0.27085 0.0
Zn547 Zn 0.74035 0.21886 0.24811 0.0
Zn548 Zn 0.71636 0.22822 0.31884 0.0
O549 O 0.6633 0.27161 0.2906 0.0
O550 O 0.67867 0.25045 0.33543 0.0
O551 O 0.77679 0.31561 0.29167 0.0
O552 O 0.7259 0.32444 0.28178 0.0
O553 O 0.70302 0.28066 0.22345 0.0
O554 O 0.72736 0.23802 0.20735 0.0
O555 O 0.71485 0.17773 0.25549 0.0
O556 O 0.79164 0.25482 0.3388 0.0
O557 O 0.70093 0.18328 0.30619 0.0
O558 O 0.74823 0.22539 0.35324 0.0
C559 C 0.81071 0.2305 0.24545 0.0
C560 C 0.65711 0.2617 0.31846 0.0
C561 C 0.7132 0.26295 0.20144 0.0
C562 C 0.75494 0.33443 0.28675 0.0
C563 C 0.70151 0.16675 0.28043 0.0
C564 C 0.77667 0.23678 0.35843 0.0
O565 O 0.78643 0.21105 0.24054 0.0
O566 O 0.05894 0.50625 0.57509 0.0
Zn567 Zn 0.05247 0.51397 0.52935 0.0
O568 O 0.00861 0.50307 0.51695 0.0
Zn569 Zn 0.00674 0.46837 0.48543 0.0
Zn570 Zn 0.9842 0.4904 0.55427 0.0
Zn571 Zn 0.99094 0.53936 0.49881 0.0
O572 O 0.97809 0.47726 0.44842 0.0
O573 O 0.97543 0.52979 0.45446 0.0
O574 O 0.08115 0.48607 0.5063 0.0
O575 O 0.05055 0.46038 0.46914 0.0
O576 O 0.99379 0.4273 0.50684 0.0
O577 O 0.97779 0.44303 0.5546 0.0
O578 O 0.94279 0.51182 0.55677 0.0
O579 O 0.06594 0.56004 0.52207 0.0
O580 O 0.95243 0.55083 0.52242 0.0
O581 O 0.02248 0.57689 0.4992 0.0
C582 C 0.04002 0.50226 0.59826 0.0
C583 C 0.96969 0.50388 0.43861 0.0
C584 C 0.98381 0.42114 0.53468 0.0
C585 C 0.07758 0.46678 0.4826 0.0
C586 C 0.93506 0.537 0.54327 0.0
C587 C 0.0511 0.5818 0.50922 0.0
O588 O 0.00985 0.49952 0.59446 0.0
O589 O 0.75 0.73482 0.34886 0.0
Zn590 Zn 0.76643 0.7704 0.32117 0.0
O591 O 0.75655 0.75762 0.27785 0.0
Zn592 Zn 0.79323 0.75412 0.25162 0.0
Zn593 Zn 0.72614 0.72167 0.27366 0.0
Zn594 Zn 0.7362 0.79221 0.26251 0.0
O595 O 0.79571 0.78777 0.2169 0.0
O596 O 0.74454 0.79703 0.21681 0.0
O597 O 0.81414 0.77451 0.32702 0.0
O598 O 0.83147 0.75554 0.28075 0.0
O599 O 0.79003 0.7109 0.22984 0.0
O600 O 0.74288 0.68931 0.24401 0.0
O601 O 0.6843 0.73505 0.25639 0.0
O602 O 0.74503 0.81109 0.33276 0.0
O603 O 0.68934 0.78677 0.26781 0.0
O604 O 0.75167 0.83174 0.28546 0.0
C605 C 0.7324 0.70924 0.34373 0.0
C606 C 0.77153 0.7987 0.20342 0.0
C607 C 0.76844 0.68802 0.22814 0.0
C608 C 0.83635 0.76455 0.3097 0.0
C609 C 0.67257 0.76214 0.25819 0.0
C610 C 0.74364 0.83454 0.31431 0.0
O611 O 0.72086 0.70127 0.31629 0.0
O612 O 0.7298 0.20259 0.70732 0.0
Zn613 Zn 0.73189 0.21403 0.75371 0.0
O614 O 0.75282 0.25664 0.76085 0.0
Zn615 Zn 0.78969 0.25477 0.78961 0.0
Zn616 Zn 0.76593 0.27511 0.72049 0.0
Zn617 Zn 0.72289 0.28334 0.78015 0.0
O618 O 0.7843 0.27882 0.83129 0.0
O619 O 0.73638 0.29688 0.82389 0.0
O620 O 0.75841 0.18149 0.77239 0.0
O621 O 0.79577 0.20952 0.8007 0.0
O622 O 0.83072 0.26726 0.7669 0.0
O623 O 0.81353 0.2765 0.71793 0.0
O624 O 0.74911 0.31865 0.71396 0.0
O625 O 0.68783 0.20947 0.77275 0.0
O626 O 0.71675 0.32186 0.75539 0.0
O627 O 0.68123 0.2599 0.78642 0.0
C628 C 0.73898 0.21728 0.68258 0.0
C629 C 0.76074 0.29357 0.84122 0.0
C630 C 0.83604 0.27306 0.73772 0.0
C631 C 0.78275 0.18295 0.79073 0.0
C632 C 0.7288 0.33315 0.73011 0.0
C633 C 0.67098 0.23083 0.78427 0.0
O634 O 0.7519 0.24559 0.68398 0.0
O635 O 0.70393 0.75137 0.7596 0.0
Zn636 Zn 0.74214 0.73267 0.77692 0.0
O637 O 0.78 0.75288 0.75825 0.0
Zn638 Zn 0.79869 0.72329 0.72894 0.0
Zn639 Zn 0.7687 0.79146 0.73661 0.0
Zn640 Zn 0.81031 0.76363 0.79208 0.0
O641 O 0.84548 0.71942 0.73832 0.0
O642 O 0.85035 0.74173 0.78684 0.0
O643 O 0.73659 0.68669 0.76467 0.0
O644 O 0.77472 0.68009 0.72909 0.0
O645 O 0.79404 0.73901 0.68501 0.0
O646 O 0.77719 0.78778 0.68963 0.0
O647 O 0.7932 0.83056 0.75537 0.0
O648 O 0.74095 0.74001 0.82423 0.0
O649 O 0.82384 0.8098 0.79185 0.0
O650 O 0.79108 0.75785 0.83477 0.0
C651 C 0.69827 0.77721 0.7463 0.0
C652 C 0.86189 0.72707 0.76332 0.0
C653 C 0.78579 0.76454 0.67268 0.0
C654 C 0.75045 0.66952 0.74456 0.0
C655 C 0.81493 0.83347 0.77682 0.0
C656 C 0.76288 0.75002 0.84379 0.0
O657 O 0.72123 0.79643 0.7379 0.0
O658 O 0.5243 0.55528 0.53021 0.0
Zn659 Zn 0.53569 0.51691 0.50583 0.0
O660 O 0.51223 0.48114 0.52314 0.0
Zn661 Zn 0.5389 0.46202 0.55337 0.0
Zn662 Zn 0.47394 0.49691 0.54196 0.0
Zn663 Zn 0.50154 0.45122 0.48929 0.0
O664 O 0.54444 0.41622 0.54232 0.0
O665 O 0.52506 0.41198 0.49286 0.0
O666 O 0.58251 0.51602 0.51359 0.0
O667 O 0.58144 0.48663 0.55704 0.0
O668 O 0.51881 0.46421 0.59556 0.0
O669 O 0.47432 0.48906 0.58937 0.0
O670 O 0.43477 0.47352 0.52262 0.0
O671 O 0.52289 0.52174 0.45987 0.0
O672 O 0.45547 0.4368 0.49156 0.0
O673 O 0.50532 0.47182 0.44733 0.0
C674 C 0.49759 0.56423 0.53945 0.0
C675 C 0.53867 0.40025 0.51661 0.0
C676 C 0.49387 0.47544 0.60691 0.0
C677 C 0.59595 0.50588 0.53827 0.0
C678 C 0.43165 0.44901 0.50411 0.0
C679 C 0.51156 0.50065 0.43977 0.0
O680 O 0.47284 0.54491 0.53854 0.0
O681 O 0.97014 0.45535 0.01508 0.0
Zn682 Zn 0.95382 0.48956 0.98905 0.0
O683 O 0.97118 0.53074 0.00535 0.0
Zn684 Zn 0.93758 0.5541 0.02432 0.0
Zn685 Zn 0.00527 0.5239 0.03593 0.0
Zn686 Zn 0.98836 0.55547 0.97116 0.0
O687 O 0.93466 0.59794 0.00644 0.0
O688 O 0.96512 0.59402 0.96375 0.0
O689 O 0.9067 0.48418 -0.0048 0.0
O690 O 0.89511 0.52993 0.01847 0.0
O691 O 0.94343 0.55502 0.07153 0.0
O692 O 0.98949 0.53315 0.07976 0.0
O693 O 0.04604 0.55017 0.02627 0.0
O694 O 0.96804 0.48113 0.94388 0.0
O695 O 0.03318 0.57127 0.98026 0.0
O696 O 0.99066 0.52885 0.93228 0.0
C697 C -0.00496 0.45326 0.03202 0.0
C698 C 0.94634 0.60927 0.98088 0.0
C699 C 0.96425 0.54468 0.09007 0.0
C700 C 0.88693 0.50185 0.00819 0.0
C701 C 0.0531 0.56741 0.00246 0.0
C702 C 0.98291 0.49992 0.92484 0.0
O703 O 0.01427 0.47743 0.03824 0.0
C704 C 0.95507 0.157 0.07182 0.0
C705 C 0.97127 0.18585 0.06228 0.0
C706 C 0.97737 0.16147 0.0095 0.0
C707 C 0.96944 0.13094 0.02205 0.0
N708 N 0.95755 0.10031 0.06969 0.0
N709 N 0.00261 0.21359 0.02165 0.0
C710 C 0.95968 0.12867 0.05435 0.0
C711 C 0.98343 0.1879 0.03082 0.0
N712 N 0.93537 0.15648 0.0975 0.0
N713 N 0.97917 0.16528 0.97737 0.0
H714 H 0.01015 0.23262 0.03678 0.0
H715 H 0.01405 0.21421 -0.00027 0.0
H716 H 0.97334 0.14662 0.96107 0.0
H717 H 0.98265 0.18761 0.96717 0.0
H718 H 0.92155 0.13603 0.10379 0.0
H719 H 0.92986 0.17718 0.1098 0.0
H720 H 0.95296 0.09893 0.094 0.0
H721 H 0.9644 0.07897 0.05991 0.0
C722 C 0.08439 0.71966 0.30645 0.0
C723 C 0.08736 0.70819 0.33771 0.0
C724 C 0.13406 0.68016 0.32255 0.0
C725 C 0.13435 0.69649 0.29349 0.0
N726 N 0.1045 0.7192 0.25225 0.0
N727 N 0.10595 0.66794 0.37154 0.0
C728 C 0.10705 0.71133 0.28343 0.0
C729 C 0.10919 0.68501 0.34438 0.0
N730 N 0.06176 0.7403 0.29955 0.0
N731 N 0.15881 0.66234 0.33017 0.0
H732 H 0.08745 0.67102 0.38751 0.0
H733 H 0.11953 0.64895 0.37675 0.0
H734 H 0.17593 0.65661 0.31359 0.0
H735 H 0.16251 0.65348 0.35271 0.0
H736 H 0.06059 0.75203 0.27808 0.0
H737 H 0.04471 0.74677 0.31588 0.0
H738 H 0.08448 0.72859 0.24241 0.0
H739 H 0.12185 0.71349 0.23581 0.0
C740 C 0.52387 0.82496 0.54132 0.0
C741 C 0.52733 0.82623 0.57498 0.0
C742 C 0.51322 0.88157 0.57606 0.0
C743 C 0.51389 0.88143 0.54226 0.0
N744 N 0.52645 0.85482 0.49287 0.0
N745 N 0.53198 0.85775 0.62387 0.0
C746 C 0.52112 0.85364 0.52488 0.0
C747 C 0.52388 0.8551 0.59229 0.0
N748 N 0.52174 0.7963 0.52513 0.0
N749 N 0.5011 0.90622 0.59269 0.0
H750 H 0.5409 0.83924 0.63651 0.0
H751 H 0.53293 0.87932 0.63668 0.0
H752 H 0.49178 0.92559 0.58179 0.0
H753 H 0.49722 0.90582 0.61714 0.0
H754 H 0.51608 0.79399 0.50095 0.0
H755 H 0.52216 0.7745 0.53637 0.0
H756 H 0.5349 0.83594 0.47972 0.0
H757 H 0.52566 0.87569 0.48006 0.0
C758 C 0.42053 0.30933 0.83975 0.0
C759 C 0.43823 0.28627 0.82385 0.0
C760 C 0.4055 0.2902 0.77597 0.0
C761 C 0.38383 0.30717 0.79432 0.0
N762 N 0.37922 0.34669 0.83569 0.0
N763 N 0.4498 0.25619 0.77638 0.0
C764 C 0.39415 0.32123 0.82383 0.0
C765 C 0.43172 0.27748 0.79159 0.0
N766 N 0.42798 0.3186 0.8705 0.0
N767 N 0.40214 0.28817 0.74363 0.0
H768 H 0.46979 0.24728 0.78698 0.0
H769 H 0.44399 0.24602 0.75406 0.0
H770 H 0.3858 0.30111 0.73149 0.0
H771 H 0.41826 0.27771 0.72868 0.0
H772 H 0.41378 0.33238 0.88461 0.0
H773 H 0.44773 0.31114 0.88267 0.0
H774 H 0.38677 0.35982 0.85603 0.0
H775 H 0.36126 0.35679 0.82284 0.0
C776 C 0.03139 0.85526 0.44311 0.0
C777 C 0.01787 0.82596 0.45456 0.0
C778 C 0.97441 0.85328 0.47942 0.0
C779 C 0.98858 0.88263 0.46881 0.0
N780 N 0.03513 0.91266 0.44862 0.0
N781 N 0.98081 0.79738 0.48889 0.0
C782 C 0.01847 0.88396 0.45308 0.0
C783 C 0.99066 0.82509 0.47443 0.0
N784 N 0.05537 0.85569 0.42128 0.0
N785 N 0.94496 0.85219 0.49308 0.0
H786 H 0.99257 0.77649 0.48598 0.0
H787 H 0.96295 0.79577 0.50592 0.0
H788 H 0.93256 0.87249 0.49714 0.0
H789 H 0.9318 0.83106 0.49826 0.0
H790 H 0.06323 0.87606 0.40918 0.0
H791 H 0.06576 0.83528 0.41319 0.0
H792 H 0.05858 0.91468 0.44062 0.0
H793 H 0.02702 0.93443 0.45611 0.0
C794 C 0.43569 0.74069 0.73799 0.0
C795 C 0.43693 0.73689 0.70436 0.0
C796 C 0.3798 0.74407 0.70055 0.0
C797 C 0.37785 0.74351 0.73426 0.0
N798 N 0.40307 0.73497 0.78493 0.0
N799 N 0.40871 0.72793 0.65416 0.0
C800 C 0.40556 0.74002 0.753 0.0
C801 C 0.4086 0.73662 0.68571 0.0
N802 N 0.46318 0.74635 0.75552 0.0
N803 N 0.35478 0.75311 0.68267 0.0
H804 H 0.42902 0.72112 0.64248 0.0
H805 H 0.38792 0.72427 0.64043 0.0
H806 H 0.33363 0.76015 0.69254 0.0
H807 H 0.35635 0.75693 0.65831 0.0
H808 H 0.46335 0.75236 0.77972 0.0
H809 H 0.48575 0.74851 0.74534 0.0
H810 H 0.42222 0.72912 0.79904 0.0
H811 H 0.38128 0.7334 0.79671 0.0
C812 C 0.5576 0.16614 0.99274 0.0
C813 C 0.55753 0.17405 0.96004 0.0
C814 C 0.56009 0.11782 0.94438 0.0
C815 C 0.55837 0.10984 0.9769 0.0
N816 N 0.56313 0.12541 0.0322 0.0
N817 N 0.56502 0.15885 0.90493 0.0
C818 C 0.55995 0.13381 0.00117 0.0
C819 C 0.56082 0.15029 0.9359 0.0
N820 N 0.55327 0.18917 0.01551 0.0
N821 N 0.55962 0.09395 0.92162 0.0
H822 H 0.56403 0.18213 0.89737 0.0
H823 H 0.57135 0.14336 0.88678 0.0
H824 H 0.5616 0.07013 0.92726 0.0
H825 H 0.55633 0.09733 0.8974 0.0
H826 H 0.54974 0.18456 0.03948 0.0
H827 H 0.55102 0.213 0.01021 0.0
H828 H 0.56715 0.14173 0.05106 0.0
H829 H 0.56448 0.10181 0.03884 0.0
C830 C 0.09839 0.26022 0.16935 0.0
C831 C 0.07085 0.27452 0.1803 0.0
C832 C 0.09953 0.29489 0.22841 0.0
C833 C 0.12726 0.2814 0.21696 0.0
N834 N 0.15552 0.25717 0.17388 0.0
N835 N 0.04667 0.31119 0.21612 0.0
C836 C 0.12752 0.26623 0.18642 0.0
C837 C 0.07184 0.29362 0.20865 0.0
N838 N 0.09627 0.23918 0.14394 0.0
N839 N 0.09954 0.3083 0.25836 0.0
H840 H 0.02623 0.3112 0.20181 0.0
H841 H 0.04713 0.32788 0.23483 0.0
H842 H 0.11999 0.31106 0.27274 0.0
H843 H 0.07903 0.31515 0.26958 0.0
H844 H 0.11459 0.22506 0.13731 0.0
H845 H 0.07524 0.23356 0.13099 0.0
H846 H 0.1577 0.24927 0.15037 0.0
H847 H 0.17732 0.25998 0.18599 0.0
C848 C 0.05132 0.97707 0.12408 0.0
C849 C 0.0616 0.00676 0.13895 0.0
C850 C 0.04287 0.03531 0.09319 0.0
C851 C 0.03089 0.00573 0.07902 0.0
N852 N 0.01893 0.94912 0.08259 0.0
N853 N 0.06284 0.06424 0.14057 0.0
C854 C 0.0338 0.97674 0.09492 0.0
C855 C 0.05575 0.0359 0.12451 0.0
N856 N 0.0586 0.94927 0.13773 0.0
N857 N 0.04412 0.06258 0.07592 0.0
H858 H 0.07425 0.06602 0.16274 0.0
H859 H 0.05532 0.08589 0.13298 0.0
H860 H 0.0361 0.06342 0.05244 0.0
H861 H 0.05611 0.08393 0.08363 0.0
H862 H 0.05518 0.92701 0.12637 0.0
H863 H 0.06977 0.94853 0.15995 0.0
H864 H 0.01741 0.92764 0.09447 0.0
H865 H 0.00572 0.94822 0.06139 0.0
C866 C 0.23495 0.84129 0.42582 0.0
C867 C 0.21877 0.81982 0.44689 0.0
C868 C 0.21388 0.77838 0.40485 0.0
C869 C 0.2321 0.79909 0.38454 0.0
N870 N 0.26182 0.84908 0.37533 0.0
N871 N 0.19416 0.76793 0.45807 0.0
C872 C 0.24313 0.83027 0.39492 0.0
C873 C 0.20846 0.78838 0.43678 0.0
N874 N 0.2424 0.87227 0.43542 0.0
N875 N 0.20168 0.74921 0.39348 0.0
H876 H 0.18811 0.77515 0.48102 0.0
H877 H 0.18937 0.74361 0.45368 0.0
H878 H 0.20712 0.73992 0.3711 0.0
H879 H 0.18501 0.73458 0.40549 0.0
H880 H 0.25113 0.89009 0.42041 0.0
H881 H 0.23796 0.88101 0.45822 0.0
H882 H 0.27377 0.87062 0.38246 0.0
H883 H 0.26708 0.84234 0.35203 0.0
C884 C 0.44718 -0.00158 0.64634 0.0
C885 C 0.42478 0.0216 0.65164 0.0
C886 C 0.445 0.05089 0.60544 0.0
C887 C 0.46573 0.02635 0.59921 0.0
N888 N 0.49832 0.98859 0.62399 0.0
N889 N 0.40915 0.07482 0.64259 0.0
C890 C 0.47078 0.0039 0.62298 0.0
C891 C 0.42575 0.0495 0.63313 0.0
N892 N 0.44508 0.97043 0.6623 0.0
N893 N 0.44385 0.0753 0.5847 0.0
H894 H 0.39569 0.0749 0.66331 0.0
H895 H 0.41081 0.09675 0.63155 0.0
H896 H 0.46042 0.07858 0.56647 0.0
H897 H 0.42656 0.09182 0.58525 0.0
H898 H 0.45908 0.95163 0.65669 0.0
H899 H 0.42732 0.96464 0.67878 0.0
H900 H 0.50356 0.97324 0.64212 0.0
H901 H 0.51789 -0.00487 0.60991 0.0
C902 C 0.28735 0.20723 0.92602 0.0
C903 C 0.2586 0.19808 0.94177 0.0
C904 C 0.2274 0.21571 0.89681 0.0
C905 C 0.2561 0.22304 0.88024 0.0
N906 N 0.31266 0.2169 0.87537 0.0
N907 N 0.20176 0.18412 0.93778 0.0
C908 C 0.2859 0.21604 0.8937 0.0
C909 C 0.22873 0.1994 0.92584 0.0
N910 N 0.31584 0.20903 0.94215 0.0
N911 N 0.1991 0.22564 0.8859 0.0
H912 H 0.20183 0.17061 0.95826 0.0
H913 H 0.18007 0.18183 0.92538 0.0
H914 H 0.19705 0.23851 0.86518 0.0
H915 H 0.17818 0.22374 0.89908 0.0
H916 H 0.33702 0.21883 0.93255 0.0
H917 H 0.31788 0.20354 0.96611 0.0
H918 H 0.33431 0.20913 0.88323 0.0
H919 H 0.31234 0.22203 0.8512 0.0
C920 C 0.05097 0.04347 0.33821 0.0
C921 C 0.04047 0.02144 0.31356 0.0
C922 C 0.99325 0.00502 0.34443 0.0
C923 C 0.00658 0.02294 0.37108 0.0
N924 N 0.03718 0.07152 0.38657 0.0
N925 N 0.00234 0.98041 0.29286 0.0
C926 C 0.03237 0.04587 0.36609 0.0
C927 C 0.01174 0.00202 0.31651 0.0
N928 N 0.07942 0.06113 0.33556 0.0
N929 N 0.96189 0.99385 0.3445 0.0
H930 H 0.01471 0.97835 0.27158 0.0
H931 H 0.98367 0.96299 0.29532 0.0
H932 H 0.94617 0.00062 0.36204 0.0
H933 H 0.95024 0.98244 0.32496 0.0
H934 H 0.09014 0.07476 0.35427 0.0
H935 H 0.09371 0.06018 0.31543 0.0
H936 H 0.05401 0.09045 0.38297 0.0
H937 H 0.02117 0.0761 0.40467 0.0
C938 C 0.1903 0.80384 0.64176 0.0
C939 C 0.21663 0.82082 0.62754 0.0
C940 C 0.25198 0.80638 0.67043 0.0
C941 C 0.22631 0.78715 0.68349 0.0
N942 N 0.17219 0.76407 0.67989 0.0
N943 N 0.2735 0.83343 0.62442 0.0
C944 C 0.19569 0.78492 0.66872 0.0
C945 C 0.24778 0.82049 0.64063 0.0
N946 N 0.16023 0.80636 0.62985 0.0
N947 N 0.27976 0.81303 0.68742 0.0
H948 H 0.27153 0.84481 0.60277 0.0
H949 H 0.29705 0.83043 0.631 0.0
H950 H 0.28358 0.80497 0.71031 0.0
H951 H 0.2977 0.82976 0.68053 0.0
H952 H 0.1396 0.79731 0.641 0.0
H953 H 0.15578 0.81941 0.60967 0.0
H954 H 0.15027 0.75903 0.66843 0.0
H955 H 0.17556 0.74986 0.69948 0.0
C956 C 0.41376 0.99026 0.85082 0.0
C957 C 0.43284 -0.00043 0.82446 0.0
C958 C 0.48146 -0.00359 0.85655 0.0
C959 C 0.46223 0.99022 0.88354 0.0
N960 N 0.41047 0.98364 0.90783 0.0
N961 N 0.48423 0.01461 0.80217 0.0
C962 C 0.42846 0.98777 0.88107 0.0
C963 C 0.46659 0.00329 0.82722 0.0
N964 N 0.3818 0.98238 0.84661 0.0
N965 N 0.51386 -0.00452 0.85905 0.0
H966 H 0.47399 0.02009 0.78044 0.0
H967 H 0.50862 0.02092 0.80351 0.0
H968 H 0.5254 0.99094 0.8804 0.0
H969 H 0.52914 -0.00327 0.8397 0.0
H970 H 0.3673 0.97188 0.86399 0.0
H971 H 0.37007 0.98396 0.82482 0.0
H972 H 0.38597 0.98594 0.90839 0.0
H973 H 0.42037 0.97953 0.93009 0.0
C974 C 0.24114 0.18757 0.14155 0.0
C975 C 0.26862 0.19125 0.12223 0.0
C976 C 0.29507 0.2286 0.16159 0.0
C977 C 0.26697 0.22625 0.17999 0.0
N978 N 0.2128 0.20463 0.18819 0.0
N979 N 0.32081 0.21608 0.11167 0.0
C980 C 0.23988 0.20599 0.17016 0.0
C981 C 0.29538 0.21202 0.13164 0.0
N982 N 0.21635 0.16617 0.13258 0.0
N983 N 0.32144 0.24632 0.17308 0.0
H984 H 0.32231 0.20326 0.09024 0.0
H985 H 0.33979 0.23308 0.11535 0.0
H986 H 0.32146 0.25934 0.19453 0.0
H987 H 0.34376 0.2469 0.16252 0.0
H988 H 0.1973 0.1593 0.14711 0.0
H989 H 0.21517 0.15385 0.11074 0.0
H990 H 0.19085 0.19394 0.18065 0.0
H991 H 0.21163 0.21515 0.21082 0.0
C992 C 0.15487 0.07469 0.03058 0.0
C993 C 0.17703 0.08983 0.00971 0.0
C994 C 0.14033 0.07898 0.96444 0.0
C995 C 0.11838 0.0631 0.98513 0.0
N996 N 0.10612 0.04141 0.03686 0.0
N997 N 0.19451 0.10111 0.95638 0.0
C998 C 0.12621 0.05934 0.01784 0.0
C999 C 0.17083 0.09043 0.97646 0.0
N1000 N 0.16041 0.07659 0.06274 0.0
N1001 N 0.13179 0.08348 0.93348 0.0
H1002 H 0.21727 0.10939 0.96439 0.0
H1003 H 0.19263 0.09941 0.93168 0.0
H1004 H 0.11037 0.07374 0.9234 0.0
H1005 H 0.14506 0.09822 0.91819 0.0
H1006 H 0.14345 0.06967 0.0796 0.0
H1007 H 0.18141 0.08724 0.07291 0.0
H1008 H 0.11232 0.03442 0.05956 0.0
H1009 H 0.08374 0.03173 0.02944 0.0
C1010 C 0.62858 0.44791 0.02081 0.0
C1011 C 0.63316 0.43031 0.04859 0.0
C1012 C 0.58201 0.4456 0.06929 0.0
C1013 C 0.57591 0.46024 0.04001 0.0
N1014 N 0.59041 0.46818 0.9848 0.0
N1015 N 0.61175 0.40697 0.09651 0.0
C1016 C 0.59832 0.45938 0.01484 0.0
C1017 C 0.60914 0.42756 0.07209 0.0
N1018 N 0.65345 0.45499 0.00078 0.0
N1019 N 0.56277 0.45005 0.09484 0.0
H1020 H 0.63095 0.39277 0.09892 0.0
H1021 H 0.59343 0.40168 0.1125 0.0
H1022 H 0.54327 0.46402 0.09406 0.0
H1023 H 0.568 0.44254 0.11762 0.0
H1024 H 0.6521 0.47077 0.98215 0.0
H1025 H 0.6764 0.44783 0.00459 0.0
H1026 H 0.60481 0.4647 0.96514 0.0
H1027 H 0.56805 0.47546 0.97853 0.0
C1028 C 0.7908 0.41931 0.29824 0.0
C1029 C 0.79719 0.42675 0.26603 0.0
C1030 C 0.76767 0.37726 0.24807 0.0
C1031 C 0.76509 0.36789 0.28029 0.0
N1032 N 0.77508 0.37859 0.33615 0.0
N1033 N 0.79521 0.41166 0.21023 0.0
C1034 C 0.77678 0.38861 0.30546 0.0
C1035 C 0.78616 0.40567 0.24085 0.0
N1036 N 0.79741 0.44193 0.32175 0.0
N1037 N 0.75297 0.35875 0.22425 0.0
H1038 H 0.80907 0.43203 0.20385 0.0
H1039 H 0.79134 0.39528 0.19139 0.0
H1040 H 0.74058 0.33688 0.22804 0.0
H1041 H 0.7509 0.36614 0.20089 0.0
H1042 H 0.79069 0.43907 0.34535 0.0
H1043 H 0.80725 0.46482 0.31718 0.0
H1044 H 0.78659 0.39089 0.35527 0.0
H1045 H 0.76332 0.35694 0.34231 0.0
C1046 C 0.84699 0.55099 0.54051 0.0
C1047 C 0.84777 0.58161 0.55551 0.0
C1048 C 0.90444 0.57913 0.56847 0.0
C1049 C 0.90441 0.55024 0.55046 0.0
N1050 N 0.87712 0.50992 0.51635 0.0
N1051 N 0.87729 0.62679 0.58077 0.0
C1052 C 0.87604 0.53636 0.5358 0.0
C1053 C 0.87648 0.59617 0.56891 0.0
N1054 N 0.8184 0.5355 0.53172 0.0
N1055 N 0.93114 0.58994 0.58546 0.0
H1056 H 0.85728 0.64012 0.58129 0.0
H1057 H 0.89821 0.63998 0.58775 0.0
H1058 H 0.95203 0.57792 0.58551 0.0
H1059 H 0.93181 0.60916 0.60158 0.0
H1060 H 0.81599 0.51178 0.52388 0.0
H1061 H 0.79656 0.54548 0.53474 0.0
H1062 H 0.85814 0.50107 0.50183 0.0
H1063 H 0.89777 0.49792 0.51309 0.0
C1064 C 0.19772 0.10369 0.22888 0.0
C1065 C 0.17822 0.0853 0.25004 0.0
C1066 C 0.1909 0.12418 0.29332 0.0
C1067 C 0.20907 0.14318 0.27181 0.0
N1068 N 0.23861 0.14684 0.22308 0.0
N1069 N 0.16469 0.07241 0.30414 0.0
C1070 C 0.21565 0.13133 0.24093 0.0
C1071 C 0.17758 0.09375 0.28293 0.0
N1072 N 0.19734 0.0962 0.19703 0.0
N1073 N 0.18562 0.13575 0.32331 0.0
H1074 H 0.15561 0.0495 0.29728 0.0
H1075 H 0.16576 0.07616 0.32872 0.0
H1076 H 0.19698 0.15706 0.3321 0.0
H1077 H 0.16925 0.12496 0.33888 0.0
H1078 H 0.20833 0.11079 0.18008 0.0
H1079 H 0.18409 0.0765 0.18706 0.0
H1080 H 0.24648 0.13789 0.20144 0.0
H1081 H 0.25199 0.16722 0.23142 0.0
C1082 C 0.30832 0.9332 0.49605 0.0
C1083 C 0.3049 0.92385 0.52811 0.0
C1084 C 0.36165 0.93704 0.53835 0.0
C1085 C 0.36561 0.94306 0.50542 0.0
N1086 N 0.34422 0.94454 0.45217 0.0
N1087 N 0.32762 0.9142 0.57952 0.0
C1088 C 0.33934 0.94053 0.484 0.0
C1089 C 0.33134 0.92524 0.54932 0.0
N1090 N 0.28174 0.93577 0.4775 0.0
N1091 N 0.38676 0.94305 0.55915 0.0
H1092 H 0.30545 0.90652 0.58868 0.0
H1093 H 0.34658 0.91092 0.59494 0.0
H1094 H 0.40978 0.95038 0.55195 0.0
H1095 H 0.38447 0.94281 0.58379 0.0
H1096 H 0.28231 0.9451 0.45478 0.0
H1097 H 0.25864 0.93112 0.48597 0.0
H1098 H 0.32656 0.93972 0.43484 0.0
H1099 H 0.3667 0.95056 0.44277 0.0
C1100 C 0.81813 0.62092 0.2065 0.0
C1101 C 0.7963 0.59541 0.21551 0.0
C1102 C 0.75262 0.63065 0.2141 0.0
C1103 C 0.77548 0.65697 0.21268 0.0
N1104 N 0.82486 0.67543 0.1886 0.0
N1105 N 0.74239 0.57497 0.22643 0.0
C1106 C 0.8069 0.6517 0.20307 0.0
C1107 C 0.76325 0.59976 0.21815 0.0
N1108 N 0.84956 0.6158 0.20187 0.0
N1109 N 0.72103 0.63523 0.20993 0.0
H1110 H 0.74929 0.55193 0.22965 0.0
H1111 H 0.71868 0.57768 0.23226 0.0
H1112 H 0.71336 0.6574 0.20389 0.0
H1113 H 0.70319 0.61673 0.20832 0.0
H1114 H 0.86733 0.63406 0.19915 0.0
H1115 H 0.85821 0.59318 0.20205 0.0
H1116 H 0.84733 0.67268 0.17914 0.0
H1117 H 0.8153 0.69663 0.18223 0.0
C1118 C 0.67438 0.39134 0.69692 0.0
C1119 C 0.68531 0.41948 0.71424 0.0
C1120 C 0.72928 0.39211 0.73718 0.0
C1121 C 0.71827 0.36401 0.71998 0.0
N1122 N 0.6855 0.33822 0.6783 0.0
N1123 N 0.72705 0.44927 0.74439 0.0
C1124 C 0.69261 0.3642 0.69792 0.0
C1125 C 0.71401 0.42068 0.73243 0.0
N1126 N 0.64562 0.38991 0.6812 0.0
N1127 N 0.75372 0.39112 0.75878 0.0
H1128 H 0.71665 0.47075 0.74103 0.0
H1129 H 0.7495 0.45224 0.7552 0.0
H1130 H 0.76667 0.37105 0.76138 0.0
H1131 H 0.76022 0.40953 0.77506 0.0
H1132 H 0.63466 0.36903 0.67113 0.0
H1133 H 0.63129 0.40911 0.68028 0.0
H1134 H 0.66905 0.33789 0.65959 0.0
H1135 H 0.6982 0.31782 0.67893 0.0
C1136 C 0.0243 0.86374 0.92171 0.0
C1137 C 0.01593 0.85662 0.88941 0.0
C1138 C 0.01091 0.91329 0.8809 0.0
C1139 C 0.01363 0.91915 0.91434 0.0
N1140 N 0.01358 0.89693 0.96709 0.0
N1141 N -0.00421 0.87428 0.83922 0.0
C1142 C 0.01771 0.89357 0.93498 0.0
C1143 C 0.00774 0.88129 0.86912 0.0
N1144 N 0.03953 0.84259 0.93957 0.0
N1145 N 0.01256 0.93802 0.86035 0.0
H1146 H 0.99217 0.85104 0.83005 0.0
H1147 H 0.98656 0.89131 0.82481 0.0
H1148 H 0.01668 0.96177 0.86788 0.0
H1149 H 0.01342 0.9347 0.83573 0.0
H1150 H 0.04823 0.84823 0.9625 0.0
H1151 H 0.04701 0.8212 0.93027 0.0
H1152 H 0.01384 0.87778 0.98238 0.0
H1153 H 0.00591 0.91753 0.97793 0.0
C1154 C 0.89678 0.2256 0.69567 0.0
C1155 C 0.92315 0.24844 0.69393 0.0
C1156 C 0.89206 0.28865 0.72025 0.0
C1157 C 0.86691 0.26497 0.7244 0.0
N1158 N 0.84702 0.2096 0.7212 0.0
N1159 N 0.94819 0.30018 0.70904 0.0
C1160 C 0.86986 0.23301 0.71375 0.0
C1161 C 0.92143 0.27966 0.70733 0.0
N1162 N 0.89677 0.19742 0.67871 0.0
N1163 N 0.88769 0.31969 0.72825 0.0
H1164 H 0.97028 0.29432 0.70044 0.0
H1165 H 0.94923 0.32199 0.72138 0.0
H1166 H 0.8668 0.32667 0.73876 0.0
H1167 H 0.90377 0.33866 0.72258 0.0
H1168 H 0.87686 0.18128 0.67631 0.0
H1169 H 0.91563 0.19146 0.6643 0.0
H1170 H 0.84944 0.18544 0.71685 0.0
H1171 H 0.82651 0.21392 0.73394 0.0
C1172 C 0.47213 0.12481 0.39273 0.0
C1173 C 0.46602 0.15064 0.41346 0.0
C1174 C 0.45574 0.11441 0.45702 0.0
C1175 C 0.45955 0.0881 0.43591 0.0
N1176 N 0.46138 0.06838 0.38148 0.0
N1177 N 0.43902 0.16788 0.4608 0.0
C1178 C 0.46448 0.09332 0.40296 0.0
C1179 C 0.45349 0.14475 0.44412 0.0
N1180 N 0.4866 0.13004 0.36416 0.0
N1181 N 0.45685 0.11148 0.48935 0.0
H1182 H 0.43507 0.18998 0.45132 0.0
H1183 H 0.42749 0.16352 0.48231 0.0
H1184 H 0.46181 0.09065 0.50068 0.0
H1185 H 0.45686 0.1311 0.505 0.0
H1186 H 0.49433 0.11167 0.34975 0.0
H1187 H 0.49356 0.15275 0.35621 0.0
H1188 H 0.46232 0.07139 0.35695 0.0
H1189 H 0.45422 0.04521 0.38804 0.0
C1190 C 0.60159 0.79269 0.21432 0.0
C1191 C 0.58114 0.76447 0.21289 0.0
C1192 C 0.61596 0.74065 0.25107 0.0
C1193 C 0.63989 0.7654 0.24589 0.0
N1194 N 0.65648 0.81286 0.21624 0.0
N1195 N 0.57224 0.7087 0.22657 0.0
C1196 C 0.63301 0.79123 0.22617 0.0
C1197 C 0.58887 0.73766 0.23068 0.0
N1198 N 0.59115 0.82082 0.20426 0.0
N1199 N 0.61901 0.72009 0.2754 0.0
H1200 H 0.5537 0.70417 0.21012 0.0
H1201 H 0.57934 0.68811 0.23708 0.0
H1202 H 0.63797 0.72256 0.29172 0.0
H1203 H 0.60087 0.70316 0.28147 0.0
H1204 H 0.60461 0.84251 0.20734 0.0
H1205 H 0.56775 0.82291 0.19644 0.0
H1206 H 0.65225 0.83014 0.19963 0.0
H1207 H 0.68066 0.8115 0.22102 0.0
C1208 C 0.02489 0.15627 0.54796 0.0
C1209 C 0.00407 0.15885 0.57444 0.0
C1210 C 0.98308 0.10419 0.56347 0.0
C1211 C -0.00188 0.10454 0.53342 0.0
N1212 N 0.03137 0.13289 0.49539 0.0
N1213 N 0.95784 0.13628 0.60253 0.0
C1214 C 0.01856 0.13114 0.52509 0.0
C1215 C 0.98166 0.13306 0.58101 0.0
N1216 N 0.05168 0.17645 0.54551 0.0
N1217 N 0.97118 0.07616 0.57591 0.0
H1218 H 0.95347 0.15788 0.6137 0.0
H1219 H 0.93996 0.11829 0.60618 0.0
H1220 H 0.9731 0.05413 0.56441 0.0
H1221 H 0.96292 0.07469 0.5992 0.0
H1222 H 0.06866 0.17373 0.52789 0.0
H1223 H 0.05916 0.19314 0.56324 0.0
H1224 H 0.0439 0.15337 0.48731 0.0
H1225 H 0.02714 0.11494 0.478 0.0
C1226 C 0.57721 0.23417 0.35565 0.0
C1227 C 0.5581 0.25843 0.34528 0.0
C1228 C 0.60546 0.28801 0.32462 0.0
C1229 C 0.62378 0.26152 0.33044 0.0
N1230 N 0.62521 0.20704 0.34848 0.0
N1231 N 0.55282 0.30732 0.31774 0.0
C1232 C 0.60934 0.23412 0.34555 0.0
C1233 C 0.57185 0.285 0.32901 0.0
N1234 N 0.56458 0.21079 0.37492 0.0
N1235 N 0.62042 0.31659 0.3166 0.0
H1236 H 0.52828 0.30645 0.32168 0.0
H1237 H 0.56097 0.32534 0.30263 0.0
H1238 H 0.64519 0.32036 0.31531 0.0
H1239 H 0.6087 0.33748 0.31483 0.0
H1240 H 0.57845 0.19543 0.38714 0.0
H1241 H 0.54048 0.208 0.3807 0.0
H1242 H 0.61435 0.18546 0.35583 0.0
H1243 H 0.64833 0.20449 0.34091 0.0
C1244 C 0.52699 0.8624 0.07156 0.0
C1245 C 0.50357 0.83698 0.07586 0.0
C1246 C 0.4663 0.86281 0.04121 0.0
C1247 C 0.49072 0.88669 0.03505 0.0
N1248 N 0.5464 0.90594 0.039 0.0
N1249 N 0.45338 0.80929 0.05951 0.0
C1250 C 0.52183 0.88517 0.04824 0.0
C1251 C 0.47379 0.8361 0.05929 0.0
N1252 N 0.55323 0.86611 0.09123 0.0
N1253 N 0.43603 0.86588 0.03016 0.0
H1254 H 0.45846 0.78878 0.07145 0.0
H1255 H 0.43281 0.80626 0.04542 0.0
H1256 H 0.43033 0.88456 0.01573 0.0
H1257 H 0.4164 0.85108 0.03685 0.0
H1258 H 0.56945 0.88603 0.0912 0.0
H1259 H 0.55694 0.85126 0.11023 0.0
H1260 H 0.57017 0.90345 0.04514 0.0
H1261 H 0.54361 0.92424 0.02315 0.0
C1262 C 0.94569 0.75975 0.76576 0.0
C1263 C 0.95949 0.7379 0.78624 0.0
C1264 C 0.91045 0.70269 0.78313 0.0
C1265 C 0.89669 0.72494 0.76352 0.0
N1266 N 0.90395 0.76837 0.72741 0.0
N1267 N 0.9589 0.6846 0.80624 0.0
C1268 C 0.91554 0.75105 0.75148 0.0
C1269 C 0.94312 0.70791 0.79211 0.0
N1270 N 0.95945 0.78993 0.76238 0.0
N1271 N 0.89187 0.67744 0.79419 0.0
H1272 H 0.98312 0.68762 0.81223 0.0
H1273 H 0.94894 0.66148 0.80913 0.0
H1274 H 0.86828 0.67242 0.78655 0.0
H1275 H 0.89936 0.66246 0.81172 0.0
H1276 H 0.94814 0.80777 0.75091 0.0
H1277 H 0.98073 0.79848 0.7734 0.0
H1278 H 0.91776 0.786 0.71578 0.0
H1279 H 0.8816 0.76282 0.71689 0.0
C1280 C 0.9584 0.0911 0.81444 0.0
C1281 C 0.97004 0.06688 0.7947 0.0
C1282 C 0.0128 0.05997 0.83286 0.0
C1283 C -0.00474 0.07639 0.85582 0.0
N1284 N 0.9557 0.11308 0.86832 0.0
N1285 N 0.0175 0.04352 0.77725 0.0
C1286 C 0.96996 0.0946 0.84629 0.0
C1287 C 0.00058 0.05642 0.80126 0.0
N1288 N 0.9368 0.11053 0.80248 0.0
N1289 N 0.03951 0.0458 0.84214 0.0
H1290 H 0.0092 0.04301 0.75372 0.0
H1291 H 0.04064 0.0366 0.77992 0.0
H1292 H 0.04914 0.04925 0.86507 0.0
H1293 H 0.05158 0.03041 0.82762 0.0
H1294 H 0.9283 0.12965 0.81516 0.0
H1295 H 0.93028 0.10944 0.77841 0.0
H1296 H 0.93482 0.12423 0.86395 0.0
H1297 H 0.96478 0.11648 0.89147 0.0
C1298 C 0.7715 0.17353 0.61135 0.0
C1299 C 0.74284 0.15944 0.59763 0.0
C1300 C 0.71134 0.18682 0.63719 0.0
C1301 C 0.74009 0.1988 0.65242 0.0
N1302 N 0.79754 0.19922 0.65763 0.0
N1303 N 0.68569 0.14864 0.5992 0.0
C1304 C 0.77022 0.19107 0.64046 0.0
C1305 C 0.71275 0.165 0.61099 0.0
N1306 N 0.79985 0.17104 0.59603 0.0
N1307 N 0.68286 0.19703 0.64726 0.0
H1308 H 0.68586 0.13243 0.58003 0.0
H1309 H 0.66347 0.1491 0.6099 0.0
H1310 H 0.68113 0.21304 0.66641 0.0
H1311 H 0.6613 0.19178 0.63519 0.0
H1312 H 0.82096 0.18399 0.6029 0.0
H1313 H 0.80186 0.15795 0.57483 0.0
H1314 H 0.81963 0.19094 0.65202 0.0
H1315 H 0.79785 0.21215 0.67909 0.0
C1316 C 0.50052 0.94229 0.3233 0.0
C1317 C 0.53427 0.94302 0.32682 0.0
C1318 C 0.5269 0.91633 0.37753 0.0
C1319 C 0.49559 0.92604 0.37832 0.0
N1320 N 0.45001 0.9432 0.35092 0.0
N1321 N 0.58004 0.92915 0.35839 0.0
C1322 C 0.48129 0.93651 0.3504 0.0
C1323 C 0.54776 0.92853 0.35369 0.0
N1324 N 0.48715 0.94732 0.29428 0.0
N1325 N 0.5371 0.89787 0.40128 0.0
H1326 H 0.59682 0.93896 0.34277 0.0
H1327 H 0.59041 0.92202 0.37942 0.0
H1328 H 0.52171 0.88989 0.41926 0.0
H1329 H 0.5592 0.88809 0.4012 0.0
H1330 H 0.46262 0.94513 0.28995 0.0
H1331 H 0.50088 0.95035 0.27384 0.0
H1332 H 0.43883 0.95456 0.33259 0.0
H1333 H 0.43578 0.93811 0.3707 0.0
C1334 C 0.74674 0.84676 0.13407 0.0
C1335 C 0.76797 0.83812 0.1098 0.0
C1336 C 0.79258 0.80281 0.14691 0.0
C1337 C 0.77378 0.81433 0.17202 0.0
N1338 N 0.74219 0.85701 0.19044 0.0
N1339 N 0.81924 0.81739 0.09832 0.0
C1340 C 0.75384 0.83951 0.16595 0.0
C1341 C 0.79348 0.81908 0.11774 0.0
N1342 N 0.71891 0.86012 0.12703 0.0
N1343 N 0.80817 0.77561 0.14973 0.0
H1344 H 0.82264 0.83139 0.07832 0.0
H1345 H 0.83918 0.80543 0.10463 0.0
H1346 H 0.80653 0.76122 0.16953 0.0
H1347 H 0.8198 0.7654 0.13062 0.0
H1348 H 0.7019 0.86433 0.14427 0.0
H1349 H 0.71086 0.86314 0.10386 0.0
H1350 H 0.72922 0.87685 0.1867 0.0
H1351 H 0.74899 0.85429 0.21411 0.0
C1352 C 0.88237 0.02969 0.62864 0.0
C1353 C 0.88447 0.00336 0.64864 0.0
C1354 C 0.89922 0.97042 0.60317 0.0
C1355 C 0.90457 -0.0017 0.5851 0.0
N1356 N 0.90008 0.05558 0.58074 0.0
N1357 N 0.89337 0.94794 0.65548 0.0
C1358 C 0.89511 0.02817 0.59745 0.0
C1359 C 0.89222 0.97341 0.636 0.0
N1360 N 0.8688 0.05637 0.63966 0.0
N1361 N 0.89972 0.94108 0.58857 0.0
H1362 H 0.88636 0.94867 0.67924 0.0
H1363 H 0.90275 0.92663 0.64852 0.0
H1364 H 0.90297 0.9382 0.5641 0.0
H1365 H 0.89333 0.91982 0.59984 0.0
H1366 H 0.8628 0.07476 0.62509 0.0
H1367 H 0.86075 0.05898 0.6629 0.0
H1368 H 0.89719 0.07817 0.59041 0.0
H1369 H 0.90934 0.05695 0.558 0.0
C1370 C 0.78549 0.21958 0.44372 0.0
C1371 C 0.78629 0.18612 0.43934 0.0
C1372 C 0.80286 0.19395 0.38435 0.0
C1373 C 0.7927 0.22517 0.38666 0.0
N1374 N 0.77933 0.27019 0.41842 0.0
N1375 N 0.79991 0.14118 0.40633 0.0
C1376 C 0.78649 0.23907 0.4166 0.0
C1377 C 0.79737 0.17323 0.41023 0.0
N1378 N 0.78301 0.23224 0.47374 0.0
N1379 N 0.81619 0.18402 0.35668 0.0
H1380 H 0.7972 0.12518 0.42475 0.0
H1381 H 0.80374 0.1301 0.38443 0.0
H1382 H 0.81964 0.19922 0.33755 0.0
H1383 H 0.82636 0.16229 0.3538 0.0
H1384 H 0.78417 0.25662 0.47891 0.0
H1385 H 0.78274 0.21804 0.49381 0.0
H1386 H 0.77094 0.28109 0.43888 0.0
H1387 H 0.78113 0.2848 0.39867 0.0
C1388 C 0.55909 0.95859 0.15559 0.0
C1389 C 0.58399 0.97942 0.16859 0.0
C1390 C 0.5797 0.01541 0.12405 0.0
C1391 C 0.55587 0.99374 0.11004 0.0
N1392 N 0.52813 0.94115 0.10893 0.0
N1393 N 0.62229 0.02443 0.16327 0.0
C1394 C 0.54696 0.9643 0.12482 0.0
C1395 C 0.59584 0.00669 0.15202 0.0
N1396 N 0.54676 0.93357 0.17293 0.0
N1397 N 0.58556 0.04502 0.1117 0.0
H1398 H 0.63428 0.01913 0.18411 0.0
H1399 H 0.63401 0.04267 0.1506 0.0
H1400 H 0.57335 0.05272 0.09192 0.0
H1401 H 0.60026 0.06308 0.12273 0.0
H1402 H 0.52579 0.92003 0.16676 0.0
H1403 H 0.55661 0.92743 0.19464 0.0
H1404 H 0.52295 0.9184 0.11752 0.0
H1405 H 0.51998 0.94342 0.08573 0.0
C1406 C 0.75802 0.7606 0.93324 0.0
C1407 C 0.75647 0.79424 0.93478 0.0
C1408 C 0.74637 0.79441 0.87748 0.0
C1409 C 0.75406 0.76222 0.87529 0.0
N1410 N 0.76765 0.71413 0.90022 0.0
N1411 N 0.75466 0.84405 0.9071 0.0
C1412 C 0.75973 0.74499 0.90298 0.0
C1413 C 0.7515 0.81143 0.90669 0.0
N1414 N 0.75733 0.74369 0.96062 0.0
N1415 N 0.73513 0.80904 0.85136 0.0
H1416 H 0.76051 0.85801 0.92739 0.0
H1417 H 0.75495 0.85738 0.8865 0.0
H1418 H 0.73176 0.79758 0.82919 0.0
H1419 H 0.7262 0.83152 0.85251 0.0
H1420 H 0.75576 0.71889 0.96092 0.0
H1421 H 0.75526 0.75447 0.98306 0.0
H1422 H 0.77566 0.70133 0.91925 0.0
H1423 H 0.76758 0.70187 0.87832 0.0
C1424 C 0.84262 0.96109 0.00728 0.0
C1425 C 0.83504 0.93287 0.9887 0.0
C1426 C 0.88176 0.94503 0.95572 0.0
C1427 C 0.88765 0.97457 0.97265 0.0
N1428 N 0.86784 0.01455 0.00792 0.0
N1429 N 0.84203 0.90318 0.9396 0.0
C1430 C 0.86608 0.98387 -0.00376 0.0
C1431 C 0.8529 0.92644 0.96109 0.0
N1432 N 0.82912 0.96537 0.03641 0.0
N1433 N 0.9043 0.93355 0.93613 0.0
H1434 H 0.82033 0.88982 0.94204 0.0
H1435 H 0.85283 0.89967 0.91768 0.0
H1436 H 0.9265 0.94541 0.93235 0.0
H1437 H 0.90216 0.91059 0.92608 0.0
H1438 H 0.83635 0.98426 0.05193 0.0
H1439 H 0.81344 0.94836 0.04672 0.0
H1440 H 0.85085 0.02315 0.0232 0.0
H1441 H 0.88416 0.0322 -0.00049 0.0
C1442 C 0.31042 0.54376 0.96291 0.0
C1443 C 0.31422 0.57747 0.96734 0.0
C1444 C 0.37041 0.5758 0.95293 0.0
C1445 C 0.36812 0.54262 0.9576 0.0
N1446 N 0.33604 0.49385 0.96471 0.0
N1447 N 0.34956 0.62595 0.96738 0.0
C1448 C 0.33799 0.52609 0.96117 0.0
C1449 C 0.34445 0.59385 0.96162 0.0
N1450 N 0.28051 0.52884 0.96029 0.0
N1451 N 0.39817 0.59003 0.94169 0.0
H1452 H 0.33218 0.64056 0.97523 0.0
H1453 H 0.37212 0.63795 0.96701 0.0
H1454 H 0.4175 0.57686 0.9357 0.0
H1455 H 0.40067 0.61384 0.93523 0.0
H1456 H 0.27627 0.50463 0.95479 0.0
H1457 H 0.25999 0.54145 0.96026 0.0
H1458 H 0.31521 0.48079 0.97125 0.0
H1459 H 0.35591 0.48048 0.96225 0.0
C1460 C 0.21029 0.59282 0.75739 0.0
C1461 C 0.18872 0.58694 0.78296 0.0
C1462 C 0.20286 0.64035 0.80418 0.0
C1463 C 0.22825 0.64408 0.78223 0.0
N1464 N 0.25986 0.62055 0.74143 0.0
N1465 N 0.17218 0.60268 0.83579 0.0
C1466 C 0.23323 0.61927 0.75988 0.0
C1467 C 0.18737 0.6099 0.80799 0.0
N1468 N 0.20773 0.57478 0.72988 0.0
N1469 N 0.19186 0.66606 0.8199 0.0
H1470 H 0.16254 0.57982 0.84074 0.0
H1471 H 0.17277 0.61855 0.85529 0.0
H1472 H 0.2006 0.68945 0.81602 0.0
H1473 H 0.17107 0.66421 0.83332 0.0
H1474 H 0.22132 0.58019 0.70984 0.0
H1475 H 0.18953 0.55704 0.72548 0.0
H1476 H 0.26577 0.60152 0.72683 0.0
H1477 H 0.27757 0.63922 0.74317 0.0
C1478 C 0.16283 0.44921 0.46753 0.0
C1479 C 0.16294 0.42011 0.48392 0.0
C1480 C 0.10457 0.41628 0.48448 0.0
C1481 C 0.10497 0.44823 0.47439 0.0
N1482 N 0.13374 0.49524 0.45508 0.0
N1483 N 0.1339 0.37729 0.51128 0.0
C1484 C 0.13392 0.46461 0.46514 0.0
C1485 C 0.1338 0.40359 0.49272 0.0
N1486 N 0.1902 0.46173 0.45387 0.0
N1487 N 0.07633 0.39832 0.48711 0.0
H1488 H 0.15464 0.36762 0.51911 0.0
H1489 H 0.11343 0.36678 0.52161 0.0
H1490 H 0.05426 0.40671 0.48169 0.0
H1491 H 0.07499 0.374 0.49151 0.0
H1492 H 0.19104 0.48144 0.4393 0.0
H1493 H 0.21158 0.45057 0.45467 0.0
H1494 H 0.15437 0.51 0.45178 0.0
H1495 H 0.11259 0.50627 0.45124 0.0
C1496 C 0.82452 0.92015 0.80389 0.0
C1497 C 0.85589 0.92807 0.79302 0.0
C1498 C 0.86273 0.87249 0.77927 0.0
C1499 C 0.82984 0.86529 0.78529 0.0
N1500 N 0.78187 0.87886 0.81191 0.0
N1501 N 0.90871 0.90948 0.78955 0.0
C1502 C 0.81144 0.88809 0.80056 0.0
C1503 C 0.87642 0.9035 0.78689 0.0
N1504 N 0.80761 0.94361 0.81704 0.0
N1505 N 0.88049 0.85038 0.76487 0.0
H1506 H 0.91904 0.93106 0.7988 0.0
H1507 H 0.92473 0.89178 0.78731 0.0
H1508 H 0.87138 0.82732 0.75869 0.0
H1509 H 0.90362 0.85572 0.75686 0.0
H1510 H 0.78364 0.94083 0.82308 0.0
H1511 H 0.81834 0.96631 0.82238 0.0
H1512 H 0.76752 0.89375 0.82452 0.0
H1513 H 0.77212 0.85536 0.81017 0.0
C1514 C 0.65354 0.03515 0.47057 0.0
C1515 C 0.65617 0.06642 0.48421 0.0
C1516 C 0.59881 0.06394 0.4942 0.0
C1517 C 0.59636 0.03227 0.48148 0.0
N1518 N 0.61889 0.98957 0.45212 0.0
N1519 N 0.63174 0.1131 0.50384 0.0
C1520 C 0.62298 0.01848 0.46779 0.0
C1521 C 0.62884 0.0817 0.4942 0.0
N1522 N 0.68049 0.02124 0.46117 0.0
N1523 N 0.57249 0.07664 0.50694 0.0
H1524 H 0.65354 0.12656 0.50533 0.0
H1525 H 0.6125 0.1267 0.50841 0.0
H1526 H 0.54964 0.06518 0.5056 0.0
H1527 H 0.57317 0.09795 0.52007 0.0
H1528 H 0.68102 -0.00269 0.45456 0.0
H1529 H 0.70295 0.0336 0.46104 0.0
H1530 H 0.63656 0.97949 0.43888 0.0
H1531 H 0.59696 0.97626 0.45067 0.0
C1532 C 0.17215 0.39935 0.83053 0.0
C1533 C 0.18745 0.42849 0.82046 0.0
C1534 C 0.23995 0.40863 0.82969 0.0
C1535 C 0.22458 0.3782 0.83436 0.0
N1536 N 0.17876 0.34714 0.85251 0.0
N1537 N 0.23419 0.46511 0.82271 0.0
C1538 C 0.19146 0.37482 0.84001 0.0
C1539 C 0.22092 0.4346 0.82447 0.0
N1540 N 0.1397 0.39418 0.82849 0.0
N1541 N 0.27242 0.41188 0.82757 0.0
H1542 H 0.22033 0.48441 0.81935 0.0
H1543 H 0.25818 0.47161 0.82741 0.0
H1544 H 0.28656 0.3932 0.83265 0.0
H1545 H 0.28514 0.43253 0.82028 0.0
H1546 H 0.12754 0.37216 0.83213 0.0
H1547 H 0.12481 0.4117 0.82191 0.0
H1548 H 0.15499 0.34337 0.85915 0.0
H1549 H 0.19325 0.32903 0.85875 0.0
C1550 C 0.30439 0.60488 0.31673 0.0
C1551 C 0.3347 0.60499 0.30204 0.0
C1552 C 0.33791 0.66319 0.29993 0.0
C1553 C 0.30582 0.66256 0.31059 0.0
N1554 N 0.26232 0.63583 0.33811 0.0
N1555 N 0.38416 0.6336 0.28796 0.0
C1556 C 0.29039 0.63424 0.32213 0.0
C1557 C 0.35291 0.63402 0.29674 0.0
N1558 N 0.28885 0.57651 0.32463 0.0
N1559 N 0.35317 0.69124 0.29075 0.0
H1560 H 0.39546 0.61265 0.28407 0.0
H1561 H 0.39976 0.65386 0.28668 0.0
H1562 H 0.34397 0.71331 0.29448 0.0
H1563 H 0.37465 0.69291 0.27858 0.0
H1564 H 0.26534 0.57402 0.33224 0.0
H1565 H 0.29963 0.55494 0.32312 0.0
H1566 H 0.25022 0.61659 0.34889 0.0
H1567 H 0.25227 0.65746 0.34269 0.0
C1568 C 0.4836 0.6365 0.59359 0.0
C1569 C 0.51198 0.65541 0.58675 0.0
C1570 C 0.51957 0.62073 0.54058 0.0
C1571 C 0.49691 0.59744 0.55253 0.0
N1572 N 0.45854 0.58333 0.59408 0.0
N1573 N 0.56024 0.66166 0.55559 0.0
C1574 C 0.47887 0.60534 0.57986 0.0
C1575 C 0.53082 0.6467 0.56056 0.0
N1576 N 0.46059 0.64851 0.61223 0.0
N1577 N 0.53022 0.61814 0.51009 0.0
H1578 H 0.57087 0.67913 0.57104 0.0
H1579 H 0.5756 0.65394 0.53813 0.0
H1580 H 0.52086 0.60039 0.49414 0.0
H1581 H 0.54517 0.6358 0.49976 0.0
H1582 H 0.4383 0.63652 0.61545 0.0
H1583 H 0.46208 0.67196 0.62106 0.0
H1584 H 0.44798 0.58783 0.61593 0.0
H1585 H 0.45389 0.55995 0.58607 0.0
C1586 C 0.58709 0.24032 0.80929 0.0
C1587 C 0.59127 0.23504 0.8424 0.0
C1588 C 0.64197 0.21157 0.83152 0.0
C1589 C 0.6405 0.2224 0.80003 0.0
N1590 N 0.61182 0.24436 0.75724 0.0
N1591 N 0.62304 0.21587 0.88542 0.0
C1592 C 0.61268 0.23529 0.78825 0.0
C1593 C 0.61862 0.22034 0.85359 0.0
N1594 N 0.55928 0.25121 0.79814 0.0
N1595 N 0.66605 0.19331 0.84036 0.0
H1596 H 0.60606 0.22029 0.90251 0.0
H1597 H 0.6444 0.20948 0.89534 0.0
H1598 H 0.68349 0.18656 0.82461 0.0
H1599 H 0.66697 0.18213 0.86215 0.0
H1600 H 0.55339 0.25208 0.77409 0.0
H1601 H 0.54111 0.25822 0.81283 0.0
H1602 H 0.59432 0.25766 0.74759 0.0
H1603 H 0.62965 0.23911 0.74117 0.0
C1604 C 0.00455 0.3875 0.09149 0.0
C1605 C -0.00332 0.36048 0.07138 0.0
C1606 C -0.00255 0.39455 0.02508 0.0
C1607 C 0.00028 0.42189 0.0456 0.0
N1608 N 0.00245 0.4443 0.09936 0.0
N1609 N 0.98092 0.33843 0.01956 0.0
C1610 C 0.00299 0.41844 0.07911 0.0
C1611 C 0.99199 0.36399 0.03825 0.0
N1612 N 0.01466 0.38368 0.12211 0.0
N1613 N 0.00071 0.39779 0.99297 0.0
H1614 H 0.97572 0.31574 0.02846 0.0
H1615 H 0.97391 0.3404 -0.00411 0.0
H1616 H 0.00571 0.41984 0.98264 0.0
H1617 H 0.00191 0.37852 0.9771 0.0
H1618 H 0.02404 0.40253 0.13666 0.0
H1619 H 0.01666 0.36141 0.13203 0.0
H1620 H 1e-05 0.44237 0.12391 0.0
H1621 H 0.0019 0.46762 0.09182 0.0
C1622 C 0.92502 0.75466 0.31953 0.0
C1623 C 0.92687 0.74605 0.35195 0.0
C1624 C 0.8689 0.74553 0.35519 0.0
C1625 C 0.86763 0.75941 0.32468 0.0
N1626 N 0.89655 0.78399 0.28109 0.0
N1627 N 0.90043 0.74293 0.403 0.0
C1628 C 0.89632 0.76602 0.30774 0.0
C1629 C 0.89882 0.74425 0.37057 0.0
N1630 N 0.95005 0.75086 0.29959 0.0
N1631 N 0.84207 0.73194 0.36898 0.0
H1632 H 0.92183 0.74457 0.41586 0.0
H1633 H 0.88037 0.74428 0.41729 0.0
H1634 H 0.81984 0.72957 0.35771 0.0
H1635 H 0.84287 0.71931 0.39 0.0
H1636 H 0.94862 0.75441 0.27517 0.0
H1637 H 0.97072 0.7405 0.30666 0.0
H1638 H 0.91754 0.79156 0.26959 0.0
H1639 H 0.87639 0.7944 0.27271 0.0
C1640 C 0.51529 0.36365 0.95217 0.0
C1641 C 0.49583 0.33476 0.9529 0.0
C1642 C 0.44923 0.36449 0.9663 0.0
C1643 C 0.46937 0.39291 0.968 0.0
N1644 N 0.52279 0.4187 0.96938 0.0
N1645 N 0.44539 0.30655 0.9643 0.0
C1646 C 0.50274 0.39224 0.96294 0.0
C1647 C 0.46302 0.33486 0.96097 0.0
N1648 N 0.5452 0.36427 0.93942 0.0
N1649 N 0.41699 0.366 0.96913 0.0
H1650 H 0.45498 0.28453 0.96098 0.0
H1651 H 0.42216 0.30474 0.97281 0.0
H1652 H 0.40651 0.38743 0.97338 0.0
H1653 H 0.40052 0.34662 0.965 0.0
H1654 H 0.55868 0.38534 0.93458 0.0
H1655 H 0.55557 0.34404 0.93085 0.0
H1656 H 0.54751 0.41801 0.97028 0.0
H1657 H 0.51497 0.4407 0.97648 0.0
C1658 C 0.89899 0.23077 0.22951 0.0
C1659 C 0.89919 0.22947 0.19575 0.0
C1660 C 0.84082 0.22677 0.19419 0.0
C1661 C 0.84059 0.2263 0.22802 0.0
N1662 N 0.86885 0.21999 0.27738 0.0
N1663 N 0.87076 0.21866 0.14608 0.0
C1664 C 0.86955 0.22584 0.24553 0.0
C1665 C 0.87023 0.2252 0.1781 0.0
N1666 N 0.92668 0.23829 0.24628 0.0
N1667 N 0.81335 0.23043 0.17738 0.0
H1668 H 0.89186 0.21706 0.13342 0.0
H1669 H 0.85034 0.21186 0.13263 0.0
H1670 H 0.79107 0.2313 0.18785 0.0
H1671 H 0.813 0.23514 0.15316 0.0
H1672 H 0.92736 0.24295 0.27075 0.0
H1673 H 0.94874 0.24282 0.23547 0.0
H1674 H 0.88914 0.21624 0.29082 0.0
H1675 H 0.84758 0.21561 0.28966 0.0
C1676 C 0.09702 0.65132 0.47271 0.0
C1677 C 0.07842 0.67594 0.48418 0.0
C1678 C 0.0511 0.63983 0.52129 0.0
C1679 C 0.06629 0.61432 0.50665 0.0
N1680 N 0.10964 0.59594 0.47559 0.0
N1681 N 0.04531 0.69697 0.52465 0.0
C1682 C 0.09161 0.62021 0.485 0.0
C1683 C 0.058 0.67124 0.51046 0.0
N1684 N 0.11815 0.65726 0.44863 0.0
N1685 N 0.02934 0.63351 0.54475 0.0
H1686 H 0.05077 0.72021 0.51716 0.0
H1687 H 0.03134 0.69593 0.54494 0.0
H1688 H 0.02561 0.61095 0.55447 0.0
H1689 H 0.01483 0.65014 0.5545 0.0
H1690 H 0.12996 0.63984 0.43655 0.0
H1691 H 0.12346 0.67996 0.43986 0.0
H1692 H 0.13004 0.59893 0.46183 0.0
H1693 H 0.10565 0.57271 0.48341 0.0
C1694 C 0.62793 0.79297 0.69273 0.0
C1695 C 0.60967 0.76391 0.69872 0.0
C1696 C 0.64074 0.75892 0.74733 0.0
C1697 C 0.66453 0.78125 0.73608 0.0
N1698 N 0.6769 0.82602 0.70211 0.0
N1699 N 0.60138 0.71722 0.73128 0.0
C1700 C 0.65695 0.80048 0.71005 0.0
C1701 C 0.6164 0.74653 0.72621 0.0
N1702 N 0.61664 0.81417 0.67197 0.0
N1703 N 0.6416 0.74956 0.77817 0.0
H1704 H 0.58523 0.70562 0.71516 0.0
H1705 H 0.60784 0.70288 0.74984 0.0
H1706 H 0.65839 0.75994 0.7945 0.0
H1707 H 0.62352 0.73478 0.78809 0.0
H1708 H 0.62746 0.83688 0.66865 0.0
H1709 H 0.59451 0.81054 0.6605 0.0
H1710 H 0.67578 0.83713 0.68028 0.0
H1711 H 0.6939 0.83677 0.7179 0.0
C1712 C 0.51994 0.51795 0.6769 0.0
C1713 C 0.53727 0.49348 0.68997 0.0
C1714 C 0.5048 0.45314 0.65906 0.0
C1715 C 0.4924 0.47804 0.64197 0.0
N1716 N 0.47298 0.53001 0.64659 0.0
N1717 N 0.53795 0.43806 0.70314 0.0
C1718 C 0.49454 0.50911 0.65534 0.0
C1719 C 0.52664 0.46099 0.68448 0.0
N1720 N 0.52911 0.54934 0.6829 0.0
N1721 N 0.4977 0.42245 0.6487 0.0
H1722 H 0.55361 0.44366 0.72224 0.0
H1723 H 0.52998 0.41408 0.70145 0.0
H1724 H 0.48114 0.41712 0.63027 0.0
H1725 H 0.50836 0.40286 0.65757 0.0
H1726 H 0.51931 0.56782 0.67097 0.0
H1727 H 0.54782 0.55693 0.69832 0.0
H1728 H 0.47215 0.55263 0.65707 0.0
H1729 H 0.45364 0.52285 0.63167 0.0
C1730 C 0.77417 0.33975 0.91955 0.0
C1731 C 0.75004 0.324 0.93821 0.0
C1732 C 0.73628 0.2861 0.89442 0.0
C1733 C 0.7589 0.3031 0.87506 0.0
N1734 N 0.79681 0.34779 0.8671 0.0
N1735 N 0.70547 0.28509 0.94299 0.0
C1736 C 0.77735 0.3303 0.88709 0.0
C1737 C 0.73021 0.29807 0.92548 0.0
N1738 N 0.79401 0.36375 0.93293 0.0
N1739 N 0.72148 0.25784 0.88343 0.0
H1740 H 0.70114 0.29241 0.96635 0.0
H1741 H 0.68787 0.26863 0.93379 0.0
H1742 H 0.72561 0.24802 0.86094 0.0
H1743 H 0.70715 0.24265 0.89737 0.0
H1744 H 0.81441 0.37359 0.92198 0.0
H1745 H 0.791 0.37302 0.95587 0.0
H1746 H 0.80819 0.36989 0.87325 0.0
H1747 H 0.80009 0.34112 0.84335 0.0
C1748 C 0.92695 0.49622 0.15636 0.0
C1749 C 0.92117 0.52087 0.17844 0.0
C1750 C 0.95232 0.55961 0.14643 0.0
C1751 C 0.95351 0.53596 0.12209 0.0
N1752 N 0.93902 0.48234 0.10199 0.0
N1753 N 0.92753 0.57613 0.19549 0.0
C1754 C 0.94052 0.50424 0.12668 0.0
C1755 C 0.93408 0.55259 0.17407 0.0
N1756 N 0.91934 0.46517 0.16385 0.0
N1757 N 0.96858 0.58861 0.14295 0.0
H1758 H 0.91506 0.57161 0.21645 0.0
H1759 H 0.93297 0.60029 0.19184 0.0
H1760 H 0.98189 0.59415 0.12271 0.0
H1761 H 0.97103 0.6061 0.16091 0.0
H1762 H 0.92592 0.44587 0.15004 0.0
H1763 H 0.90919 0.4587 0.18556 0.0
H1764 H 0.92637 0.46017 0.10293 0.0
H1765 H 0.9482 0.48703 0.07949 0.0
C1766 C 0.69629 0.66539 0.41392 0.0
C1767 C 0.72445 0.65438 0.42736 0.0
C1768 C 0.75399 0.66936 0.37956 0.0
C1769 C 0.72796 0.68676 0.3699 0.0
N1770 N 0.67344 0.70011 0.37601 0.0
N1771 N 0.77273 0.62943 0.41453 0.0
C1772 C 0.69855 0.68387 0.38613 0.0
C1773 C 0.75133 0.65133 0.4077 0.0
N1774 N 0.66734 0.65637 0.42666 0.0
N1775 N 0.78141 0.67072 0.3622 0.0
H1776 H 0.76854 0.61257 0.43206 0.0
H1777 H 0.79196 0.62472 0.40016 0.0
H1778 H 0.78328 0.68174 0.34024 0.0
H1779 H 0.80267 0.66215 0.37008 0.0
H1780 H 0.64562 0.66163 0.41665 0.0
H1781 H 0.66503 0.63994 0.44487 0.0
H1782 H 0.65271 0.70203 0.3891 0.0
H1783 H 0.67407 0.71328 0.35527 0.0
C1784 C 0.57354 0.55335 0.86673 0.0
C1785 C 0.57248 0.52614 0.84598 0.0
C1786 C 0.53947 0.49623 0.88414 0.0
C1787 C 0.53611 0.52477 0.90212 0.0
N1788 N 0.54662 0.58177 0.90814 0.0
N1789 N 0.54795 0.47367 0.83197 0.0
C1790 C 0.55233 0.55374 0.89286 0.0
C1791 C 0.5538 0.49802 0.85385 0.0
N1792 N 0.59544 0.57838 0.86209 0.0
N1793 N 0.53011 0.46724 0.89635 0.0
H1794 H 0.55623 0.47438 0.80869 0.0
H1795 H 0.5318 0.4542 0.83591 0.0
H1796 H 0.52082 0.46456 0.91912 0.0
H1797 H 0.53502 0.44572 0.88526 0.0
H1798 H 0.59919 0.59753 0.87819 0.0
H1799 H 0.61223 0.57837 0.84394 0.0
H1800 H 0.55538 0.60396 0.90023 0.0
H1801 H 0.53068 0.5831 0.92694 0.0
C1802 C 0.69243 0.2964 0.12163 0.0
C1803 C 0.72279 0.31044 0.11302 0.0
C1804 C 0.7469 0.2913 0.16129 0.0
C1805 C 0.71673 0.27652 0.16964 0.0
N1806 N 0.6622 0.26003 0.15614 0.0
N1807 N 0.77996 0.31561 0.12035 0.0
C1808 C 0.68987 0.27747 0.14921 0.0
C1809 C 0.75041 0.3058 0.13136 0.0
N1810 N 0.66606 0.3019 0.10383 0.0
N1811 N 0.77164 0.29351 0.18288 0.0
H1812 H 0.78345 0.3274 0.09898 0.0
H1813 H 0.80114 0.30963 0.131 0.0
H1814 H 0.77023 0.28366 0.2054 0.0
H1815 H 0.79282 0.30742 0.17961 0.0
H1816 H 0.64277 0.29549 0.11068 0.0
H1817 H 0.6674 0.31428 0.0826 0.0
H1818 H 0.64249 0.25732 0.14086 0.0
H1819 H 0.65983 0.24615 0.17636 0.0
C1820 C 0.94876 0.52454 0.35404 0.0
C1821 C 0.91807 0.5085 0.35078 0.0
C1822 C 0.91996 0.49209 0.40618 0.0
C1823 C 0.95205 0.50505 0.4083 0.0
N1824 N -0.00146 0.53083 0.38396 0.0
N1825 N 0.87492 0.47476 0.37197 0.0
C1826 C 0.96685 0.52075 0.38221 0.0
C1827 C 0.90368 0.49176 0.37642 0.0
N1828 N 0.96033 0.54368 0.33029 0.0
N1829 N 0.90476 0.48109 0.43284 0.0
H1830 H 0.8617 0.47502 0.35084 0.0
H1831 H 0.86499 0.45893 0.38845 0.0
H1832 H 0.91601 0.48075 0.45506 0.0
H1833 H 0.88038 0.47465 0.43361 0.0
H1834 H 0.98116 0.55858 0.33242 0.0
H1835 H 0.94759 0.54674 0.30927 0.0
H1836 H 0.01159 0.5394 0.36464 0.0
H1837 H 0.01261 0.52831 0.4042 0.0
C1838 C 0.74119 0.73742 0.60193 0.0
C1839 C 0.76607 0.7225 0.58615 0.0
C1840 C 0.80613 0.75305 0.61905 0.0
C1841 C 0.78118 0.76384 0.63781 0.0
N1842 N 0.72714 0.77924 0.63896 0.0
N1843 N 0.82133 0.72432 0.57132 0.0
C1844 C 0.7494 0.76078 0.62611 0.0
C1845 C 0.79838 0.73348 0.59172 0.0
N1846 N 0.70999 0.72752 0.59583 0.0
N1847 N 0.83696 0.7598 0.629 0.0
H1848 H 0.8157 0.71013 0.55103 0.0
H1849 H 0.84521 0.73275 0.57293 0.0
H1850 H 0.84255 0.77513 0.6485 0.0
H1851 H 0.85653 0.74996 0.61865 0.0
H1852 H 0.69112 0.73469 0.60951 0.0
H1853 H 0.70295 0.7108 0.57799 0.0
H1854 H 0.7039 0.77945 0.63014 0.0
H1855 H 0.73309 0.79709 0.65605 0.0
C1856 C 0.68208 0.537 0.53725 0.0
C1857 C 0.68068 0.56423 0.55768 0.0
C1858 C 0.62535 0.54896 0.57059 0.0
C1859 C 0.6262 0.52259 0.54888 0.0
N1860 N 0.65608 0.48665 0.51787 0.0
N1861 N 0.65531 0.59178 0.60007 0.0
C1862 C 0.65496 0.51494 0.53436 0.0
C1863 C 0.65368 0.56866 0.57658 0.0
N1864 N 0.70872 0.53326 0.51946 0.0
N1865 N 0.59708 0.55624 0.58392 0.0
H1866 H 0.67603 0.60644 0.60475 0.0
H1867 H 0.6374 0.59456 0.61665 0.0
H1868 H 0.57586 0.54201 0.58078 0.0
H1869 H 0.59411 0.57729 0.59671 0.0
H1870 H 0.70997 0.5161 0.50136 0.0
H1871 H 0.72946 0.54835 0.52191 0.0
H1872 H 0.67695 0.47822 0.50884 0.0
H1873 H 0.63629 0.47024 0.5155 0.0
C1874 C 0.10657 0.92009 0.54492 0.0
C1875 C 0.13557 0.93939 0.54492 0.0
C1876 C 0.10659 0.9858 0.53121 0.0
C1877 C 0.07815 0.96566 0.52759 0.0
N1878 N 0.05253 0.91221 0.52507 0.0
N1879 N 0.16441 0.98938 0.53321 0.0
C1880 C 0.07849 0.9324 0.53289 0.0
C1881 C 0.13597 0.97197 0.5368 0.0
N1882 N 0.10553 0.89033 0.55749 0.0
N1883 N 0.10538 0.01816 0.53052 0.0
H1884 H 0.18646 0.98 0.5367 0.0
H1885 H 0.16621 0.01221 0.52401 0.0
H1886 H 0.08419 0.0292 0.52717 0.0
H1887 H 0.12481 0.03411 0.53629 0.0
H1888 H 0.0843 0.87664 0.5613 0.0
H1889 H 0.1255 0.88052 0.56707 0.0
H1890 H 0.0529 0.88747 0.52483 0.0
H1891 H 0.03155 0.91995 0.51572 0.0
C1892 C 0.28556 0.91577 0.72995 0.0
C1893 C 0.30162 0.93807 0.75144 0.0
C1894 C 0.29219 0.90172 0.7955 0.0
C1895 C 0.27772 0.87881 0.77375 0.0
N1896 N 0.25048 0.86769 0.72353 0.0
N1897 N 0.31002 0.95716 0.80555 0.0
C1898 C 0.27081 0.88717 0.74205 0.0
C1899 C 0.30152 0.9326 0.78462 0.0
N1900 N 0.28628 0.92078 0.69795 0.0
N1901 N 0.29788 0.89359 0.82622 0.0
H1902 H 0.316 0.98029 0.79803 0.0
H1903 H 0.30806 0.95542 0.83014 0.0
H1904 H 0.28962 0.87165 0.83527 0.0
H1905 H 0.31184 0.90797 0.84223 0.0
H1906 H 0.27841 0.90349 0.68094 0.0
H1907 H 0.29664 0.94155 0.68821 0.0
H1908 H 0.24234 0.87392 0.7012 0.0
H1909 H 0.23934 0.84658 0.73179 0.0
C1910 C 0.37143 0.07632 0.06127 0.0
C1911 C 0.34665 0.07295 0.03797 0.0
C1912 C 0.37714 0.03636 0.00641 0.0
C1913 C 0.4031 0.04216 0.02807 0.0
N1914 N 0.42703 0.07011 0.07409 0.0
N1915 N 0.32621 0.05228 0.98717 0.0
C1916 C 0.40075 0.06258 0.05516 0.0
C1917 C 0.34962 0.05374 0.01013 0.0
N1918 N 0.36691 0.09269 0.0892 0.0
N1919 N 0.37846 0.01333 0.98303 0.0
H1920 H 0.30492 0.06337 0.98974 0.0
H1921 H 0.32861 0.04177 0.96473 0.0
H1922 H 0.39807 -0.0003 0.98017 0.0
H1923 H 0.35924 0.00564 0.9683 0.0
H1924 H 0.38242 0.09274 0.10867 0.0
H1925 H 0.34656 0.10479 0.09377 0.0
H1926 H 0.42801 0.08774 0.09194 0.0
H1927 H 0.44886 0.06027 0.07059 0.0
C1928 C 0.69037 0.60865 0.70796 0.0
C1929 C 0.692 0.58395 0.73009 0.0
C1930 C 0.73733 0.61267 0.75761 0.0
C1931 C 0.73491 0.63795 0.73631 0.0
N1932 N 0.7148 0.65782 0.68718 0.0
N1933 N 0.72116 0.55794 0.77037 0.0
C1934 C 0.7134 0.63506 0.70995 0.0
C1935 C 0.71692 0.58451 0.75314 0.0
N1936 N 0.66586 0.60756 0.6862 0.0
N1937 N 0.75839 0.61616 0.78266 0.0
H1938 H 0.70657 0.5369 0.76748 0.0
H1939 H 0.74056 0.55569 0.78553 0.0
H1940 H 0.77484 0.63587 0.78545 0.0
H1941 H 0.7588 0.60034 0.80131 0.0
H1942 H 0.66096 0.62646 0.67184 0.0
H1943 H 0.64912 0.5881 0.68359 0.0
H1944 H 0.70189 0.65572 0.66588 0.0
H1945 H 0.73085 0.67792 0.68834 0.0
C1946 C 0.82274 0.45808 0.05606 0.0
C1947 C 0.80162 0.44663 0.03131 0.0
C1948 C 0.83381 0.47584 0.99178 0.0
C1949 C 0.85528 0.48704 0.01643 0.0
N1950 N 0.86766 0.49396 0.0728 0.0
N1951 N 0.78229 0.44932 0.97733 0.0
C1952 C 0.84874 0.48009 0.04887 0.0
C1953 C 0.80569 0.45704 -0.00036 0.0
N1954 N 0.81906 0.44636 0.08602 0.0
N1955 N 0.84079 0.48265 0.96084 0.0
H1956 H 0.76132 0.43565 0.98243 0.0
H1957 H 0.78228 0.45843 0.95453 0.0
H1958 H 0.86008 0.49816 0.95453 0.0
H1959 H 0.82839 0.47204 0.94135 0.0
H1960 H 0.83592 0.45035 0.10425 0.0
H1961 H 0.79986 0.43073 0.09231 0.0
H1962 H 0.86188 0.49286 0.0968 0.0
H1963 H 0.88829 0.50847 0.06898 0.0
C1964 C 0.31843 0.13129 0.69926 0.0
C1965 C 0.31948 0.10999 0.72496 0.0
C1966 C 0.30748 0.15302 0.76199 0.0
C1967 C 0.30107 0.1725 0.73588 0.0
N1968 N 0.2962 0.17844 0.67906 0.0
N1969 N 0.30887 0.09921 0.78032 0.0
C1970 C 0.30552 0.16128 0.70428 0.0
C1971 C 0.31248 0.12046 0.75627 0.0
N1972 N 0.33081 0.12344 0.67039 0.0
N1973 N 0.30978 0.16581 0.79222 0.0
H1974 H 0.31077 0.07479 0.77703 0.0
H1975 H 0.30058 0.10538 0.80277 0.0
H1976 H 0.30771 0.18995 0.79733 0.0
H1977 H 0.31734 0.15324 0.81165 0.0
H1978 H 0.33339 0.1394 0.65184 0.0
H1979 H 0.34168 0.10227 0.66607 0.0
H1980 H 0.29581 0.16963 0.65566 0.0
H1981 H 0.28613 0.20028 0.68169 0.0
C1982 C 0.20108 0.91618 0.23662 0.0
C1983 C 0.16985 0.91646 0.22347 0.0
C1984 C 0.16537 0.85816 0.21945 0.0
C1985 C 0.19566 0.85787 0.23457 0.0
N1986 N 0.24066 0.88558 0.26178 0.0
N1987 N 0.12072 0.88861 0.20493 0.0
C1988 C 0.21321 0.88661 0.24413 0.0
C1989 C 0.15146 0.88767 0.21573 0.0
N1990 N 0.21916 0.94422 0.24189 0.0
N1991 N 0.15051 0.83026 0.20767 0.0
H1992 H 0.11028 0.9098 0.20031 0.0
H1993 H 0.1048 0.86857 0.20231 0.0
H1994 H 0.16014 0.80823 0.20993 0.0
H1995 H 0.12997 0.82902 0.19354 0.0
H1996 H 0.24341 0.94547 0.24752 0.0
H1997 H 0.2104 0.96656 0.23895 0.0
H1998 H 0.25257 0.90551 0.27274 0.0
H1999 H 0.2505 0.86436 0.26756 0.0
C2000 C 0.50013 0.32099 0.51407 0.0
C2001 C 0.51616 0.30783 0.48765 0.0
C2002 C 0.55788 0.35136 0.49167 0.0
C2003 C 0.54038 0.36547 0.51599 0.0
N2004 N 0.5047 0.35708 0.55992 0.0
N2005 N 0.56624 0.30341 0.46069 0.0
C2006 C 0.51522 0.34759 0.53082 0.0
C2007 C 0.54725 0.3206 0.47971 0.0
N2008 N 0.46953 0.31066 0.52143 0.0
N2009 N 0.58352 0.36818 0.47904 0.0
H2010 H 0.55931 0.28024 0.45269 0.0
H2011 H 0.58986 0.31075 0.45574 0.0
H2012 H 0.59219 0.39027 0.4887 0.0
H2013 H 0.59518 0.36082 0.45867 0.0
H2014 H 0.45602 0.32242 0.53805 0.0
H2015 H 0.45626 0.2923 0.50938 0.0
H2016 H 0.48778 0.34353 0.57281 0.0
H2017 H 0.51572 0.37642 0.57272 0.0
C2018 C 0.40936 0.79502 0.2237 0.0
C2019 C 0.41092 0.76572 0.20635 0.0
C2020 C 0.35744 0.74808 0.22368 0.0
C2021 C 0.35453 0.77846 0.23841 0.0
N2022 N 0.37564 0.83217 0.24988 0.0
N2023 N 0.38406 0.71763 0.18384 0.0
C2024 C 0.37991 0.80241 0.2377 0.0
C2025 C 0.38428 0.74314 0.20469 0.0
N2026 N 0.43622 0.81505 0.22794 0.0
N2027 N 0.33473 0.72366 0.22827 0.0
H2028 H 0.40288 0.71376 0.16853 0.0
H2029 H 0.36396 0.70216 0.17928 0.0
H2030 H 0.31436 0.72607 0.24188 0.0
H2031 H 0.33746 0.70017 0.221 0.0
H2032 H 0.43736 0.83511 0.24301 0.0
H2033 H 0.4582 0.81036 0.21822 0.0
H2034 H 0.39199 0.85168 0.24711 0.0
H2035 H 0.35462 0.83774 0.26112 0.0
C2036 C 0.93514 0.67492 0.92417 0.0
C2037 C 0.95382 0.69931 0.94088 0.0
C2038 C 0.95135 0.66865 0.98933 0.0
C2039 C 0.93984 0.64154 0.97072 0.0
N2040 N 0.91377 0.61958 0.92305 0.0
N2041 N 0.95976 0.72628 0.9919 0.0
C2042 C 0.92882 0.64515 0.93903 0.0
C2043 C 0.95546 0.69851 0.97445 0.0
N2044 N 0.92261 0.6809 0.895 0.0
N2045 N 0.96091 0.66563 0.02021 0.0
H2046 H 0.95968 0.74845 0.98127 0.0
H2047 H 0.9589 0.72735 0.01667 0.0
H2048 H 0.95777 0.64445 0.03247 0.0
H2049 H 0.97346 0.68392 0.03323 0.0
H2050 H 0.90789 0.66461 0.88163 0.0
H2051 H 0.9242 0.70375 0.88573 0.0
H2052 H 0.90802 0.61918 0.89891 0.0
H2053 H 0.90734 0.59825 0.93434 0.0
C2054 C 0.10237 0.22578 0.71055 0.0
C2055 C 0.09752 0.24816 0.68632 0.0
C2056 C 0.15223 0.2702 0.69458 0.0
C2057 C 0.15448 0.25287 0.72308 0.0
N2058 N 0.12832 0.21757 0.76096 0.0
N2059 N 0.11649 0.29727 0.66136 0.0
C2060 C 0.12865 0.23149 0.73193 0.0
C2061 C 0.12206 0.27199 0.67994 0.0
N2062 N 0.08305 0.19836 0.71236 0.0
N2063 N 0.17891 0.28415 0.6808 0.0
H2064 H 0.094 0.30137 0.65233 0.0
H2065 H 0.13346 0.31629 0.65838 0.0
H2066 H 0.20195 0.28114 0.68913 0.0
H2067 H 0.17828 0.29513 0.65883 0.0
H2068 H 0.08747 0.1804 0.72815 0.0
H2069 H 0.06528 0.19164 0.69555 0.0
H2070 H 0.10841 0.20416 0.76931 0.0
H2071 H 0.14642 0.22202 0.77793 0.0
C2072 C 0.48967 0.67404 0.05976 0.0
C2073 C 0.50106 0.673 0.0916 0.0
C2074 C 0.51153 0.61699 0.08413 0.0
C2075 C 0.50189 0.61857 0.05174 0.0
N2076 N 0.48732 0.64922 0.00698 0.0
N2077 N 0.52924 0.64613 0.13216 0.0
C2078 C 0.49274 0.6474 0.039 0.0
C2079 C 0.51389 0.64525 0.10327 0.0
N2080 N 0.4747 0.69995 0.04984 0.0
N2081 N 0.51676 0.58828 0.09711 0.0
H2082 H 0.53146 0.66639 0.14702 0.0
H2083 H 0.54219 0.62763 0.1402 0.0
H2084 H 0.51576 0.56688 0.08399 0.0
H2085 H 0.51978 0.58526 0.12146 0.0
H2086 H 0.46303 0.70078 0.02795 0.0
H2087 H 0.47148 0.71973 0.0646 0.0
H2088 H 0.48347 0.67037 -0.00435 0.0
H2089 H 0.48959 0.62993 0.99127 0.0
C2090 C 0.13088 0.77973 0.87948 0.0
C2091 C 0.11544 0.74866 0.88076 0.0
C2092 C 0.16699 0.72566 0.87758 0.0
C2093 C 0.18039 0.75534 0.86673 0.0
N2094 N 0.17894 0.81225 0.86609 0.0
N2095 N 0.11823 0.692 0.88441 0.0
C2096 C 0.16357 0.78306 0.87105 0.0
C2097 C 0.13341 0.72157 0.88147 0.0
N2098 N 0.11393 0.80575 0.8855 0.0
N2099 N 0.18611 0.70193 0.88489 0.0
H2100 H 0.09376 0.68871 0.88854 0.0
H2101 H 0.12962 0.67096 0.88136 0.0
H2102 H 0.21091 0.7049 0.88447 0.0
H2103 H 0.17758 0.68069 0.89508 0.0
H2104 H 0.12386 0.82911 0.88663 0.0
H2105 H 0.08987 0.80379 0.89164 0.0
H2106 H 0.16775 0.83348 0.86542 0.0
H2107 H 0.20355 0.815 0.86249 0.0
C2108 C 0.97473 0.33523 0.56156 0.0
C2109 C 0.00513 0.33299 0.57619 0.0
C2110 C 0.02181 0.38712 0.5605 0.0
C2111 C 0.99069 0.39023 0.54786 0.0
N2112 N 0.93625 0.36965 0.53983 0.0
N2113 N 0.05507 0.35851 0.59552 0.0
C2114 C 0.96669 0.36499 0.54947 0.0
C2115 C 0.02803 0.35938 0.57723 0.0
N2116 N 0.95417 0.30865 0.55801 0.0
N2117 N 0.04561 0.41057 0.55621 0.0
H2118 H 0.06024 0.33877 0.60869 0.0
H2119 H 0.07089 0.37832 0.60017 0.0
H2120 H 0.04205 0.43207 0.54531 0.0
H2121 H 0.06956 0.40782 0.56131 0.0
H2122 H 0.93311 0.30797 0.54468 0.0
H2123 H 0.95928 0.28642 0.56638 0.0
H2124 H 0.91684 0.35339 0.54351 0.0
H2125 H 0.93005 0.39091 0.52996 0.0
C2126 C 0.36586 0.29341 0.38498 0.0
C2127 C 0.38041 0.26426 0.38739 0.0
C2128 C 0.33104 0.23438 0.36961 0.0
C2129 C 0.3182 0.26361 0.36263 0.0
N2130 N 0.31791 0.32027 0.3742 0.0
N2131 N 0.3775 0.20669 0.38387 0.0
C2132 C 0.33377 0.293 0.37379 0.0
C2133 C 0.36291 0.23457 0.38101 0.0
N2134 N 0.3834 0.32144 0.39179 0.0
N2135 N 0.31216 0.2066 0.36611 0.0
H2136 H 0.40041 0.20559 0.39331 0.0
H2137 H 0.36765 0.18459 0.37564 0.0
H2138 H 0.28834 0.20612 0.35866 0.0
H2139 H 0.31876 0.18452 0.37337 0.0
H2140 H 0.37594 0.34384 0.38667 0.0
H2141 H 0.40642 0.32222 0.40148 0.0
H2142 H 0.32691 0.34166 0.38484 0.0
H2143 H 0.29459 0.32134 0.36608 0.0
C2144 C 0.44365 0.51169 0.38462 0.0
C2145 C 0.45872 0.51043 0.35456 0.0
C2146 C 0.51096 0.50883 0.38087 0.0
C2147 C 0.4958 0.51067 0.41065 0.0
N2148 N 0.44968 0.52292 0.44118 0.0
N2149 N 0.50706 0.51619 0.32393 0.0
C2150 C 0.46282 0.51551 0.41252 0.0
C2151 C 0.49257 0.51165 0.35262 0.0
N2152 N 0.41121 0.50652 0.3869 0.0
N2153 N 0.54261 0.50343 0.37966 0.0
H2154 H 0.49426 0.51929 0.30297 0.0
H2155 H 0.53167 0.51996 0.32141 0.0
H2156 H 0.55679 0.50275 0.40014 0.0
H2157 H 0.55429 0.49812 0.35865 0.0
H2158 H 0.39947 0.50374 0.40849 0.0
H2159 H 0.39604 0.50171 0.36737 0.0
H2160 H 0.42643 0.52973 0.44347 0.0
H2161 H 0.46292 0.5253 0.46234 0.0
C2162 C 0.22531 0.66551 0.11672 0.0
C2163 C 0.25188 0.67533 0.09787 0.0
C2164 C 0.27353 0.71046 0.14113 0.0
C2165 C 0.24489 0.70383 0.15836 0.0
N2166 N 0.19169 0.67828 0.16108 0.0
N2167 N 0.30025 0.7084 0.09029 0.0
C2168 C 0.22038 0.68193 0.14594 0.0
C2169 C 0.27579 0.69809 0.10961 0.0
N2170 N 0.20466 0.64068 0.10647 0.0
N2171 N 0.29898 0.72756 0.15526 0.0
H2172 H 0.30361 0.69842 0.0677 0.0
H2173 H 0.31616 0.72791 0.0959 0.0
H2174 H 0.29851 0.73698 0.17836 0.0
H2175 H 0.32151 0.73021 0.14513 0.0
H2176 H 0.18663 0.63033 0.1205 0.0
H2177 H 0.20725 0.62848 0.08485 0.0
H2178 H 0.17172 0.66529 0.15144 0.0
H2179 H 0.18678 0.69064 0.18207 0.0
C2180 C 0.01057 0.49597 0.84092 0.0
C2181 C 0.04366 0.4953 0.84802 0.0
C2182 C 0.03071 0.47882 0.90197 0.0
C2183 C -0.00089 0.48731 0.89694 0.0
N2184 N 0.95758 0.50201 0.86189 0.0
N2185 N 0.08575 0.48716 0.88616 0.0
C2186 C 0.98844 0.49469 0.86625 0.0
C2187 C 0.05395 0.48611 0.87852 0.0
N2188 N 0.00046 0.49756 0.81003 0.0
N2189 N 0.03871 0.46542 0.92995 0.0
H2190 H 0.10385 0.49377 0.87037 0.0
H2191 H 0.09433 0.4841 0.90912 0.0
H2192 H 0.02212 0.46081 0.94785 0.0
H2193 H 0.06065 0.4561 0.93407 0.0
H2194 H 0.97649 0.49572 0.8032 0.0
H2195 H 0.01617 0.49754 0.79092 0.0
H2196 H 0.9491 0.51139 0.84099 0.0
H2197 H 0.9408 0.49968 0.88003 0.0
C2198 C 0.28828 0.34112 0.61414 0.0
C2199 C 0.25684 0.34756 0.60439 0.0
C2200 C 0.24244 0.35585 0.6598 0.0
C2201 C 0.27031 0.34123 0.66946 0.0
N2202 N 0.32413 0.32941 0.65738 0.0
N2203 N 0.20326 0.35971 0.61791 0.0
C2204 C 0.29472 0.33689 0.647 0.0
C2205 C 0.23375 0.3548 0.62719 0.0
N2206 N 0.31209 0.34017 0.59217 0.0
N2207 N 0.22556 0.37267 0.68118 0.0
H2208 H 0.19586 0.35896 0.59412 0.0
H2209 H 0.18474 0.36164 0.63404 0.0
H2210 H 0.23417 0.3787 0.70403 0.0
H2211 H 0.20608 0.3852 0.67468 0.0
H2212 H 0.33603 0.33847 0.59785 0.0
H2213 H 0.30846 0.34316 0.5679 0.0
H2214 H 0.34177 0.32136 0.64264 0.0
H2215 H 0.33097 0.33175 0.68132 0.0
C2216 C 0.39605 0.52617 0.15772 0.0
C2217 C 0.41054 0.50879 0.18177 0.0
C2218 C 0.44472 0.48636 0.14162 0.0
C2219 C 0.42678 0.49972 0.1171 0.0
N2220 N 0.37805 0.52391 0.10305 0.0
N2221 N 0.44021 0.46265 0.19295 0.0
C2222 C 0.4001 0.51701 0.12547 0.0
C2223 C 0.43235 0.4859 0.17276 0.0
N2224 N 0.37969 0.55219 0.16519 0.0
N2225 N 0.47421 0.47574 0.13618 0.0
H2226 H 0.42904 0.45869 0.21468 0.0
H2227 H 0.45452 0.44452 0.18594 0.0
H2228 H 0.48623 0.47853 0.11476 0.0
H2229 H 0.48847 0.46801 0.1545 0.0
H2230 H 0.37087 0.56667 0.14784 0.0
H2231 H 0.3785 0.56165 0.18826 0.0
H2232 H 0.35716 0.53463 0.10886 0.0
H2233 H 0.37855 0.51526 0.0796 0.0
C2234 C 0.31239 0.72975 0.94075 0.0
C2235 C 0.2794 0.73485 0.94409 0.0
C2236 C 0.28667 0.7781 0.90638 0.0
C2237 C 0.31458 0.76487 0.89534 0.0
N2238 N 0.35733 0.73148 0.90475 0.0
N2239 N 0.2347 0.76503 0.92808 0.0
C2240 C 0.32889 0.74224 0.91396 0.0
C2241 C 0.26644 0.75995 0.92704 0.0
N2242 N 0.32793 0.7136 0.96326 0.0
N2243 N 0.27885 0.80699 0.89588 0.0
H2244 H 0.21772 0.75052 0.93973 0.0
H2245 H 0.22447 0.78192 0.91431 0.0
H2246 H 0.29424 0.821 0.88173 0.0
H2247 H 0.25953 0.81861 0.90462 0.0
H2248 H 0.3524 0.71096 0.96279 0.0
H2249 H 0.31707 0.70619 0.98432 0.0
H2250 H 0.36734 0.71216 0.915 0.0
H2251 H 0.37005 0.74155 0.88577 0.0
C2252 C 0.09235 0.52235 0.67024 0.0
C2253 C 0.08577 0.49498 0.68874 0.0
C2254 C 0.05043 0.47108 0.64685 0.0
C2255 C 0.05408 0.50014 0.63022 0.0
N2256 N 0.07431 0.55519 0.62819 0.0
N2257 N 0.05665 0.44446 0.69689 0.0
C2258 C 0.07398 0.52627 0.64245 0.0
C2259 C 0.06438 0.46952 0.67764 0.0
N2260 N 0.11665 0.5443 0.67903 0.0
N2261 N 0.03472 0.44473 0.63278 0.0
H2262 H 0.06725 0.44219 0.7192 0.0
H2263 H 0.03839 0.427 0.69163 0.0
H2264 H 0.02391 0.44494 0.61037 0.0
H2265 H 0.03447 0.42205 0.64222 0.0
H2266 H 0.12466 0.56311 0.66481 0.0
H2267 H 0.13096 0.54193 0.69916 0.0
H2268 H 0.08582 0.57595 0.63798 0.0
H2269 H 0.06053 0.55919 0.60809 0.0
C2270 C 0.2243 0.25628 0.42338 0.0
C2271 C 0.2114 0.27948 0.44383 0.0
C2272 C 0.16449 0.27995 0.40889 0.0
C2273 C 0.17864 0.2587 0.38783 0.0
N2274 N 0.21187 0.21454 0.38368 0.0
N2275 N 0.16323 0.30173 0.46268 0.0
C2276 C 0.20477 0.2423 0.39847 0.0
C2277 C 0.17932 0.28736 0.43888 0.0
N2278 N 0.2556 0.24954 0.42529 0.0
N2279 N 0.13796 0.29419 0.3994 0.0
H2280 H 0.17292 0.30566 0.48552 0.0
H2281 H 0.13924 0.30632 0.46078 0.0
H2282 H 0.12634 0.28783 0.37784 0.0
H2283 H 0.12853 0.31278 0.4122 0.0
H2284 H 0.26603 0.23495 0.40858 0.0
H2285 H 0.27224 0.26066 0.44107 0.0
H2286 H 0.22986 0.20079 0.39174 0.0
H2287 H 0.19695 0.20333 0.36624 0.0
C2288 C 0.35706 0.40847 0.46448 0.0
C2289 C 0.33899 0.40062 0.49179 0.0
C2290 C 0.38301 0.42124 0.52655 0.0
C2291 C 0.39983 0.43238 0.49949 0.0
N2292 N 0.40173 0.44048 0.44279 0.0
N2293 N 0.33184 0.40523 0.54878 0.0
C2294 C 0.38665 0.42695 0.46836 0.0
C2295 C 0.35109 0.40872 0.52281 0.0
N2296 N 0.34605 0.39808 0.43507 0.0
N2297 N 0.39798 0.42108 0.55561 0.0
H2298 H 0.30815 0.39603 0.54739 0.0
H2299 H 0.3385 0.41414 0.57141 0.0
H2300 H 0.42185 0.42901 0.55936 0.0
H2301 H 0.38775 0.40992 0.57531 0.0
H2302 H 0.35953 0.40026 0.41446 0.0
H2303 H 0.32408 0.38515 0.43167 0.0
H2304 H 0.39184 0.43991 0.41996 0.0
H2305 H 0.42313 0.4546 0.44483 0.0
C2306 C 0.8288 0.0128 0.50669 0.0
C2307 C 0.80961 0.0331 0.4894 0.0
C2308 C 0.83996 0.02268 0.44119 0.0
C2309 C 0.85907 0.00291 0.45874 0.0
N2310 N 0.86205 0.96824 0.50339 0.0
N2311 N 0.78926 0.04628 0.43755 0.0
C2312 C 0.84982 0.99389 0.48972 0.0
C2313 C 0.81268 0.03456 0.45571 0.0
N2314 N 0.82934 0.01339 0.53922 0.0
N2315 N 0.8485 0.03081 0.41104 0.0
H2316 H 0.76776 0.05283 0.44704 0.0
H2317 H 0.78953 0.04581 0.41275 0.0
H2318 H 0.86745 0.02088 0.39944 0.0
H2319 H 0.83769 0.04821 0.39839 0.0
H2320 H 0.84464 0.00034 0.55248 0.0
H2321 H 0.8176 0.02953 0.55317 0.0
H2322 H 0.85424 0.95948 0.5252 0.0
H2323 H 0.87705 0.95355 0.4913 0.0
C2324 C 0.64583 0.09477 0.2986 0.0
C2325 C 0.65842 0.07065 0.27926 0.0
C2326 C 0.70247 0.10871 0.26508 0.0
C2327 C 0.68667 0.13375 0.2797 0.0
N2328 N 0.63709 0.15067 0.30058 0.0
N2329 N 0.69322 0.05992 0.23466 0.0
C2330 C 0.65653 0.1269 0.29378 0.0
C2331 C 0.6853 0.07889 0.2598 0.0
N2332 N 0.62446 0.08737 0.32204 0.0
N2333 N 0.73379 0.11285 0.25668 0.0
H2334 H 0.67897 0.04012 0.22639 0.0
H2335 H 0.71149 0.06672 0.21904 0.0
H2336 H 0.74796 0.13374 0.2618 0.0
H2337 H 0.74646 0.09408 0.24805 0.0
H2338 H 0.61644 0.10464 0.33766 0.0
H2339 H 0.6181 0.064 0.32844 0.0
H2340 H 0.61382 0.14612 0.30862 0.0
H2341 H 0.64267 0.17412 0.29391 0.0
C2342 C 0.6694 0.94319 0.97199 0.0
C2343 C 0.66706 0.91506 0.99007 0.0
C2344 C 0.60976 0.90847 0.97849 0.0
C2345 C 0.61103 0.9402 0.96734 0.0
N2346 N 0.642 0.98644 0.94938 0.0
N2347 N 0.63506 0.87091 0.01152 0.0
C2348 C 0.641 0.95695 0.96241 0.0
C2349 C 0.63734 0.89734 0.99313 0.0
N2350 N 0.69877 0.95636 0.96363 0.0
N2351 N 0.58251 0.88889 0.97503 0.0
H2352 H 0.65477 0.86189 0.02248 0.0
H2353 H 0.61336 0.85943 0.01797 0.0
H2354 H 0.56236 0.89522 0.96285 0.0
H2355 H 0.58121 0.86486 0.98068 0.0
H2356 H 0.70212 0.97528 0.94821 0.0
H2357 H 0.71999 0.94654 0.96993 0.0
H2358 H 0.66247 0.0019 0.94877 0.0
H2359 H 0.62168 -0.00425 0.93986 0.0
C2360 C 0.29271 0.42906 0.26372 0.0
C2361 C 0.31978 0.43127 0.28456 0.0
C2362 C 0.30804 0.37593 0.29888 0.0
C2363 C 0.27845 0.37552 0.28227 0.0
N2364 N 0.24017 0.40347 0.25272 0.0
N2365 N 0.34934 0.40849 0.32696 0.0
C2366 C 0.26997 0.40266 0.26585 0.0
C2367 C 0.32637 0.40519 0.30363 0.0
N2368 N 0.28966 0.45092 0.24051 0.0
N2369 N 0.3196 0.34817 0.30856 0.0
H2370 H 0.36253 0.42999 0.33211 0.0
H2371 H 0.35283 0.39077 0.34332 0.0
H2372 H 0.30756 0.32589 0.30437 0.0
H2373 H 0.34268 0.34707 0.31763 0.0
H2374 H 0.27186 0.4485 0.223 0.0
H2375 H 0.30687 0.46939 0.23627 0.0
H2376 H 0.23179 0.42403 0.2433 0.0
H2377 H 0.22286 0.38448 0.25387 0.0
C2378 C 0.12816 0.62078 0.01992 0.0
C2379 C 0.14648 0.61395 0.99267 0.0
C2380 C 0.1047 0.57457 0.9735 0.0
C2381 C 0.08548 0.58294 -0.00035 0.0
N2382 N 0.07602 0.61807 0.04425 0.0
N2383 N 0.15082 0.58883 0.94103 0.0
C2384 C 0.09638 0.6072 0.02192 0.0
C2385 C 0.13429 0.59219 0.96865 0.0
N2386 N 0.14155 0.63922 0.0445 0.0
N2387 N 0.09528 0.54892 0.95417 0.0
H2388 H 0.17265 0.60146 0.93695 0.0
H2389 H 0.14173 0.57579 0.92119 0.0
H2390 H 0.07403 0.53497 0.9573 0.0
H2391 H 0.10971 0.5397 0.93672 0.0
H2392 H 0.13075 0.64166 0.06655 0.0
H2393 H 0.16455 0.65028 0.04384 0.0
H2394 H 0.08154 0.63815 0.05877 0.0
H2395 H 0.05249 0.60872 0.04649 0.0
C2396 C 0.7159 0.91607 0.30857 0.0
C2397 C 0.68452 0.90665 0.29738 0.0
C2398 C 0.68969 0.85351 0.31815 0.0
C2399 C 0.72303 0.86067 0.32144 0.0
N2400 N 0.76813 0.89897 0.32255 0.0
N2401 N 0.64179 0.86536 0.28984 0.0
C2402 C 0.73609 0.89228 0.3181 0.0
C2403 C 0.67111 0.87526 0.30233 0.0
N2404 N 0.72614 0.94764 0.31045 0.0
N2405 N 0.67605 0.82553 0.32919 0.0
H2406 H 0.6277 0.88012 0.27708 0.0
H2407 H 0.63268 0.84165 0.28958 0.0
H2408 H 0.68907 0.80948 0.34146 0.0
H2409 H 0.65146 0.82005 0.32939 0.0
H2410 H 0.74785 0.95605 0.32079 0.0
H2411 H 0.71155 0.9657 0.30448 0.0
H2412 H 0.78007 0.92057 0.31671 0.0
H2413 H 0.78285 0.88204 0.33115 0.0
C2414 C 0.83823 0.12145 0.77126 0.0
C2415 C 0.81892 0.09319 0.77741 0.0
C2416 C 0.77924 0.12496 0.80286 0.0
C2417 C 0.79844 0.15303 0.79605 0.0
N2418 N 0.8522 0.17598 0.78777 0.0
N2419 N 0.77644 0.06753 0.80801 0.0
C2420 C 0.83003 0.15065 0.78515 0.0
C2421 C 0.79103 0.09472 0.79607 0.0
N2422 N 0.86299 0.12109 0.75035 0.0
N2423 N 0.74957 0.12739 0.81533 0.0
H2424 H 0.78525 0.04517 0.80455 0.0
H2425 H 0.75759 0.06751 0.82394 0.0
H2426 H 0.74158 0.14922 0.82296 0.0
H2427 H 0.73274 0.10812 0.81712 0.0
H2428 H 0.87584 0.14173 0.74314 0.0
H2429 H 0.86853 0.10087 0.73735 0.0
H2430 H 0.87613 0.17428 0.78207 0.0
H2431 H 0.84803 0.19722 0.79965 0.0
loop_
_geom_bond_atom_site_label_1
_geom_bond_atom_site_label_2
_geom_bond_distance
_geom_bond_site_symmetry_2
_ccdc_geom_bond_type
O0 Cd1 2.223 . S
O0 C8 1.315 . S
Cd1 O0 2.223 . S
Cd1 O4 2.297 1_455 S
Cd1 O5 2.439 1_455 S
Cd1 O11 2.240 . S
Cd2 O3 2.240 . S
Cd2 O10 2.223 . S
Cd2 O12 2.297 . S
Cd2 O13 2.439 . S
O3 Cd2 2.240 . S
O3 C8 1.279 . S
O4 Cd1 2.297 1_655 S
O4 C6 1.247 . S
O5 Cd1 2.439 1_655 S
O5 C6 1.208 . S
C6 O4 1.247 . S
C6 O5 1.208 . S
C7 O12 1.247 . S
C7 O13 1.208 . S
C8 O0 1.315 . S
C8 O3 1.279 . S
C9 O10 1.315 . S
C9 O11 1.279 . S
O10 Cd2 2.223 . S
O10 C9 1.315 . S
O11 Cd1 2.240 . S
O11 C9 1.279 . S
O12 Cd2 2.297 . S
O12 C7 1.247 . S
O13 Cd2 2.439 . S
O13 C7 1.208 . S
O14 Cd15 2.223 . S
O14 C22 1.315 . S
Cd15 O14 2.223 . S
Cd15 O18 2.297 . S
Cd15 O19 2.439 1_455 S
Cd15 O25 2.240 1_455 S
Cd16 O17 2.240 1_655 S
Cd16 O24 2.223 1_655 S
Cd16 O26 2.297 . S
Cd16 O27 2.439 . S
O17 Cd16 2.240 1_455 S
O17 C22 1.279 . S
O18 Cd15 2.297 . S
O18 C20 1.247 . S
O19 Cd15 2.439 1_655 S
O19 C20 1.208 1_655 S
C20 O18 1.247 . S
C20 O19 1.208 1_455 S
C21 O26 1.247 . S
C21 O27 1.208 . S
C22 O14 1.315 . S
C22 O17 1.279 . S
C23 O24 1.315 . S
C23 O25 1.279 1_455 S
O24 Cd16 2.223 1_455 S
O24 C23 1.315 . S
O25 Cd15 2.240 1_655 S
O25 C23 1.279 1_655 S
O26 Cd16 2.297 . S
O26 C21 1.247 . S
O27 Cd16 2.439 . S
O27 C21 1.208 . S
O28 Cd29 2.223 . S
O28 C36 1.315 . S
Cd29 O28 2.223 . S
Cd29 O32 2.297 . S
Cd29 O33 2.439 . S
Cd29 O39 2.240 . S
Cd30 O31 2.240 . S
Cd30 O38 2.223 . S
Cd30 O40 2.297 . S
Cd30 O41 2.439 . S
O31 Cd30 2.240 . S
O31 C36 1.279 . S
O32 Cd29 2.297 . S
O32 C34 1.247 . S
O33 Cd29 2.439 . S
O33 C34 1.208 . S
C34 O32 1.247 . S
C34 O33 1.208 . S
C35 O40 1.247 . S
C35 O41 1.208 . S
C36 O28 1.315 . S
C36 O31 1.279 . S
C37 O38 1.315 . S
C37 O39 1.279 . S
O38 Cd30 2.223 . S
O38 C37 1.315 . S
O39 Cd29 2.240 . S
O39 C37 1.279 . S
O40 Cd30 2.297 . S
O40 C35 1.247 . S
O41 Cd30 2.439 . S
O41 C35 1.208 . S
O42 Cd43 2.223 . S
O42 C50 1.315 . S
Cd43 O42 2.223 . S
Cd43 O46 2.297 . S
Cd43 O47 2.439 . S
Cd43 O53 2.240 . S
Cd44 O45 2.240 . S
Cd44 O52 2.223 . S
Cd44 O54 2.297 . S
Cd44 O55 2.439 . S
O45 Cd44 2.240 . S
O45 C50 1.279 . S
O46 Cd43 2.297 . S
O46 C48 1.247 . S
O47 Cd43 2.439 . S
O47 C48 1.208 . S
C48 O46 1.247 . S
C48 O47 1.208 . S
C49 O54 1.247 . S
C49 O55 1.208 . S
C50 O42 1.315 . S
C50 O45 1.279 . S
C51 O52 1.315 . S
C51 O53 1.279 . S
O52 Cd44 2.223 . S
O52 C51 1.315 . S
O53 Cd43 2.240 . S
O53 C51 1.279 . S
O54 Cd44 2.297 . S
O54 C49 1.247 . S
O55 Cd44 2.439 . S
O55 C49 1.208 . S
O56 Cd57 2.223 . S
O56 C64 1.315 . S
Cd57 O56 2.223 . S
Cd57 O60 2.297 1_545 S
Cd57 O61 2.439 1_545 S
Cd57 O67 2.240 . S
Cd58 O59 2.240 . S
Cd58 O66 2.223 . S
Cd58 O68 2.297 . S
Cd58 O69 2.439 . S
O59 Cd58 2.240 . S
O59 C64 1.279 . S
O60 Cd57 2.297 1_565 S
O60 C62 1.247 . S
O61 Cd57 2.439 1_565 S
O61 C62 1.208 . S
C62 O60 1.247 . S
C62 O61 1.208 . S
C63 O68 1.247 . S
C63 O69 1.208 . S
C64 O56 1.315 . S
C64 O59 1.279 . S
C65 O66 1.315 . S
C65 O67 1.279 . S
O66 Cd58 2.223 . S
O66 C65 1.315 . S
O67 Cd57 2.240 . S
O67 C65 1.279 . S
O68 Cd58 2.297 . S
O68 C63 1.247 . S
O69 Cd58 2.439 . S
O69 C63 1.208 . S
O70 Cd71 2.223 . S
O70 C78 1.315 . S
Cd71 O70 2.223 . S
Cd71 O74 2.297 . S
Cd71 O75 2.439 . S
Cd71 O81 2.240 . S
Cd72 O73 2.240 . S
Cd72 O80 2.223 . S
Cd72 O82 2.297 . S
Cd72 O83 2.439 . S
O73 Cd72 2.240 . S
O73 C78 1.279 . S
O74 Cd71 2.297 . S
O74 C76 1.247 . S
O75 Cd71 2.439 . S
O75 C76 1.208 . S
C76 O74 1.247 . S
C76 O75 1.208 . S
C77 O82 1.247 . S
C77 O83 1.208 . S
C78 O70 1.315 . S
C78 O73 1.279 . S
C79 O80 1.315 . S
C79 O81 1.279 . S
O80 Cd72 2.223 . S
O80 C79 1.315 . S
O81 Cd71 2.240 . S
O81 C79 1.279 . S
O82 Cd72 2.297 . S
O82 C77 1.247 . S
O83 Cd72 2.439 . S
O83 C77 1.208 . S
O84 Cd85 2.215 1_565 S
O84 C92 1.313 1_565 S
Cd85 O84 2.215 1_545 S
Cd85 O88 2.297 . S
Cd85 O89 2.439 . S
Cd85 O95 2.240 1_545 S
Cd86 O87 2.240 1_565 S
Cd86 O94 2.223 . S
Cd86 O96 2.297 . S
Cd86 O97 2.439 1_565 S
O87 Cd86 2.240 1_545 S
O87 C92 1.279 . S
O88 Cd85 2.297 . S
O88 C90 1.247 . S
O89 Cd85 2.439 . S
O89 C90 1.208 . S
C90 O88 1.247 . S
C90 O89 1.208 . S
C91 O96 1.247 . S
C91 O97 1.208 1_565 S
C92 O84 1.313 1_545 S
C92 O87 1.279 . S
C93 O94 1.315 . S
C93 O95 1.279 . S
O94 Cd86 2.223 . S
O94 C93 1.315 . S
O95 Cd85 2.240 1_565 S
O95 C93 1.279 . S
O96 Cd86 2.297 . S
O96 C91 1.247 . S
O97 Cd86 2.439 1_545 S
O97 C91 1.208 1_545 S
O98 Cd99 2.223 . S
O98 C106 1.315 . S
Cd99 O98 2.223 . S
Cd99 O102 2.297 . S
Cd99 O103 2.439 . S
Cd99 O109 2.244 . S
Cd100 O101 2.240 1_556 S
Cd100 O108 2.223 1_556 S
Cd100 O110 2.297 . S
Cd100 O111 2.439 . S
O101 Cd100 2.240 1_554 S
O101 C106 1.279 . S
O102 Cd99 2.297 . S
O102 C104 1.247 . S
O103 Cd99 2.439 . S
O103 C104 1.208 . S
C104 O102 1.247 . S
C104 O103 1.208 . S
C105 O110 1.247 . S
C105 O111 1.208 . S
C106 O98 1.315 . S
C106 O101 1.279 . S
C107 O108 1.315 . S
C107 O109 1.282 . S
O108 Cd100 2.223 1_554 S
O108 C107 1.315 . S
O109 Cd99 2.244 . S
O109 C107 1.282 . S
O110 Cd100 2.297 . S
O110 C105 1.247 . S
O111 Cd100 2.439 . S
O111 C105 1.208 . S
O112 Cd113 2.223 . S
O112 C120 1.315 . S
Cd113 O112 2.223 . S
Cd113 O116 2.297 . S
Cd113 O117 2.439 . S
Cd113 O123 2.240 . S
Cd114 O115 2.240 . S
Cd114 O122 2.223 . S
Cd114 O124 2.297 1_554 S
Cd114 O125 2.439 1_554 S
O115 Cd114 2.240 . S
O115 C120 1.279 . S
O116 Cd113 2.297 . S
O116 C118 1.247 . S
O117 Cd113 2.439 . S
O117 C118 1.208 . S
C118 O116 1.247 . S
C118 O117 1.208 . S
C119 O124 1.247 . S
C119 O125 1.208 . S
C120 O112 1.315 . S
C120 O115 1.279 . S
C121 O122 1.315 . S
C121 O123 1.279 . S
O122 Cd114 2.223 . S
O122 C121 1.315 . S
O123 Cd113 2.240 . S
O123 C121 1.279 . S
O124 Cd114 2.297 1_556 S
O124 C119 1.247 . S
O125 Cd114 2.439 1_556 S
O125 C119 1.208 . S
O126 Cd127 2.223 . S
O126 C134 1.315 . S
Cd127 O126 2.223 . S
Cd127 O130 2.297 . S
Cd127 O131 2.439 . S
Cd127 O137 2.240 . S
Cd128 O129 2.240 . S
Cd128 O136 2.223 . S
Cd128 O138 2.297 . S
Cd128 O139 2.439 . S
O129 Cd128 2.240 . S
O129 C134 1.279 . S
O130 Cd127 2.297 . S
O130 C132 1.247 . S
O131 Cd127 2.439 . S
O131 C132 1.208 . S
C132 O130 1.247 . S
C132 O131 1.208 . S
C133 O138 1.247 . S
C133 O139 1.208 . S
C134 O126 1.315 . S
C134 O129 1.279 . S
C135 O136 1.315 . S
C135 O137 1.279 . S
O136 Cd128 2.223 . S
O136 C135 1.315 . S
O137 Cd127 2.240 . S
O137 C135 1.279 . S
O138 Cd128 2.297 . S
O138 C133 1.247 . S
O139 Cd128 2.439 . S
O139 C133 1.208 . S
O140 Cd141 2.223 . S
O140 C148 1.315 . S
Cd141 O140 2.223 . S
Cd141 O144 2.297 . S
Cd141 O145 2.439 . S
Cd141 O151 2.240 . S
Cd142 O143 2.240 . S
Cd142 O150 2.223 . S
Cd142 O152 2.297 . S
Cd142 O153 2.439 . S
O143 Cd142 2.240 . S
O143 C148 1.279 . S
O144 Cd141 2.297 . S
O144 C146 1.247 . S
O145 Cd141 2.439 . S
O145 C146 1.208 . S
C146 O144 1.247 . S
C146 O145 1.208 . S
C147 O152 1.247 . S
C147 O153 1.208 . S
C148 O140 1.315 . S
C148 O143 1.279 . S
C149 O150 1.315 . S
C149 O151 1.279 . S
O150 Cd142 2.223 . S
O150 C149 1.315 . S
O151 Cd141 2.240 . S
O151 C149 1.279 . S
O152 Cd142 2.297 . S
O152 C147 1.247 . S
O153 Cd142 2.439 . S
O153 C147 1.208 . S
O154 Cd155 2.223 . S
O154 C162 1.315 . S
Cd155 O154 2.223 . S
Cd155 O158 2.297 . S
Cd155 O159 2.439 . S
Cd155 O165 2.240 . S
Cd156 O157 2.240 . S
Cd156 O164 2.223 . S
Cd156 O166 2.297 . S
Cd156 O167 2.439 . S
O157 Cd156 2.240 . S
O157 C162 1.279 . S
O158 Cd155 2.297 . S
O158 C160 1.247 . S
O159 Cd155 2.439 . S
O159 C160 1.208 . S
C160 O158 1.247 . S
C160 O159 1.208 . S
C161 O166 1.247 . S
C161 O167 1.208 . S
C162 O154 1.315 . S
C162 O157 1.279 . S
C163 O164 1.315 . S
C163 O165 1.279 . S
O164 Cd156 2.223 . S
O164 C163 1.315 . S
O165 Cd155 2.240 . S
O165 C163 1.279 . S
O166 Cd156 2.297 . S
O166 C161 1.247 . S
O167 Cd156 2.439 . S
O167 C161 1.208 . S
O168 Cd169 2.223 . S
O168 C176 1.315 . S
Cd169 O168 2.223 . S
Cd169 O172 2.297 . S
Cd169 O173 2.439 1_455 S
Cd169 O179 2.240 1_455 S
Cd170 O171 2.240 1_655 S
Cd170 O178 2.223 1_655 S
Cd170 O180 2.297 . S
Cd170 O181 2.439 . S
O171 Cd170 2.240 1_455 S
O171 C176 1.279 . S
O172 Cd169 2.297 . S
O172 C174 1.247 . S
O173 Cd169 2.439 1_655 S
O173 C174 1.208 1_655 S
C174 O172 1.247 . S
C174 O173 1.208 1_455 S
C175 O180 1.247 . S
C175 O181 1.208 . S
C176 O168 1.315 . S
C176 O171 1.279 . S
C177 O178 1.315 . S
C177 O179 1.279 1_455 S
O178 Cd170 2.223 1_455 S
O178 C177 1.315 . S
O179 Cd169 2.240 1_655 S
O179 C177 1.279 1_655 S
O180 Cd170 2.297 . S
O180 C175 1.247 . S
O181 Cd170 2.439 . S
O181 C175 1.208 . S
O182 Cd183 2.223 1_455 S
O182 C190 1.315 . S
Cd183 O182 2.223 1_655 S
Cd183 O186 2.297 . S
Cd183 O187 2.439 . S
Cd183 O193 2.240 1_655 S
Cd184 O185 2.240 1_455 S
Cd184 O192 2.223 . S
Cd184 O194 2.297 . S
Cd184 O195 2.439 1_455 S
O185 Cd184 2.240 1_655 S
O185 C190 1.279 1_655 S
O186 Cd183 2.297 . S
O186 C188 1.247 . S
O187 Cd183 2.439 . S
O187 C188 1.208 . S
C188 O186 1.247 . S
C188 O187 1.208 . S
C189 O194 1.247 . S
C189 O195 1.208 1_455 S
C190 O182 1.315 . S
C190 O185 1.279 1_455 S
C191 O192 1.315 . S
C191 O193 1.279 . S
O192 Cd184 2.223 . S
O192 C191 1.315 . S
O193 Cd183 2.240 1_455 S
O193 C191 1.279 . S
O194 Cd184 2.297 . S
O194 C189 1.247 . S
O195 Cd184 2.439 1_655 S
O195 C189 1.208 1_655 S
O196 Cd197 2.223 . S
O196 C204 1.315 . S
Cd197 O196 2.223 . S
Cd197 O200 2.297 . S
Cd197 O201 2.439 . S
Cd197 O207 2.240 . S
Cd198 O199 2.240 . S
Cd198 O206 2.223 . S
Cd198 O208 2.297 . S
Cd198 O209 2.439 . S
O199 Cd198 2.240 . S
O199 C204 1.279 . S
O200 Cd197 2.297 . S
O200 C202 1.247 . S
O201 Cd197 2.439 . S
O201 C202 1.208 . S
C202 O200 1.247 . S
C202 O201 1.208 . S
C203 O208 1.247 . S
C203 O209 1.208 . S
C204 O196 1.315 . S
C204 O199 1.279 . S
C205 O206 1.315 . S
C205 O207 1.279 . S
O206 Cd198 2.223 . S
O206 C205 1.315 . S
O207 Cd197 2.240 . S
O207 C205 1.279 . S
O208 Cd198 2.297 . S
O208 C203 1.247 . S
O209 Cd198 2.439 . S
O209 C203 1.208 . S
O210 Cd211 2.223 . S
O210 C218 1.315 . S
Cd211 O210 2.223 . S
Cd211 O214 2.297 . S
Cd211 O215 2.439 . S
Cd211 O221 2.240 . S
Cd212 O213 2.240 . S
Cd212 O220 2.223 . S
Cd212 O222 2.297 . S
Cd212 O223 2.439 . S
O213 Cd212 2.240 . S
O213 C218 1.279 . S
O214 Cd211 2.297 . S
O214 C216 1.247 . S
O215 Cd211 2.439 . S
O215 C216 1.208 . S
C216 O214 1.247 . S
C216 O215 1.208 . S
C217 O222 1.247 . S
C217 O223 1.208 . S
C218 O210 1.315 . S
C218 O213 1.279 . S
C219 O220 1.315 . S
C219 O221 1.279 . S
O220 Cd212 2.223 . S
O220 C219 1.315 . S
O221 Cd211 2.240 . S
O221 C219 1.279 . S
O222 Cd212 2.297 . S
O222 C217 1.247 . S
O223 Cd212 2.439 . S
O223 C217 1.208 . S
O224 Cd225 2.223 . S
O224 C232 1.315 . S
Cd225 O224 2.223 . S
Cd225 O228 2.297 . S
Cd225 O229 2.439 . S
Cd225 O235 2.240 1_545 S
Cd226 O227 2.260 . S
Cd226 O234 2.194 1_545 S
Cd226 O236 2.285 1_545 S
Cd226 O237 2.453 . S
O227 Cd226 2.260 . S
O227 C232 1.279 . S
O228 Cd225 2.297 . S
O228 C230 1.247 . S
O229 Cd225 2.439 . S
O229 C230 1.208 . S
C230 O228 1.247 . S
C230 O229 1.208 . S
C231 O236 1.247 1_545 S
C231 O237 1.208 . S
C232 O224 1.315 . S
C232 O227 1.279 . S
C233 O234 1.315 . S
C233 O235 1.279 . S
O234 Cd226 2.194 1_565 S
O234 C233 1.315 . S
O235 Cd225 2.240 1_565 S
O235 C233 1.279 . S
O236 Cd226 2.285 1_565 S
O236 C231 1.247 1_565 S
O237 Cd226 2.453 . S
O237 C231 1.208 . S
O238 Cd239 2.223 . S
O238 C246 1.315 . S
Cd239 O238 2.223 . S
Cd239 O242 2.297 . S
Cd239 O243 2.439 . S
Cd239 O249 2.240 . S
Cd240 O241 2.240 . S
Cd240 O248 2.223 . S
Cd240 O250 2.297 . S
Cd240 O251 2.439 . S
O241 Cd240 2.240 . S
O241 C246 1.279 . S
O242 Cd239 2.297 . S
O242 C244 1.247 . S
O243 Cd239 2.439 . S
O243 C244 1.208 . S
C244 O242 1.247 . S
C244 O243 1.208 . S
C245 O250 1.247 . S
C245 O251 1.208 . S
C246 O238 1.315 . S
C246 O241 1.279 . S
C247 O248 1.315 . S
C247 O249 1.279 . S
O248 Cd240 2.223 . S
O248 C247 1.315 . S
O249 Cd239 2.240 . S
O249 C247 1.279 . S
O250 Cd240 2.297 . S
O250 C245 1.247 . S
O251 Cd240 2.439 . S
O251 C245 1.208 . S
O252 Cd253 2.223 1_545 S
O252 C260 1.315 . S
Cd253 O252 2.223 1_565 S
Cd253 O256 2.297 . S
Cd253 O257 2.439 . S
Cd253 O263 2.240 1_565 S
Cd254 O255 2.240 1_545 S
Cd254 O262 2.223 . S
Cd254 O264 2.297 . S
Cd254 O265 2.439 1_545 S
O255 Cd254 2.240 1_565 S
O255 C260 1.279 1_565 S
O256 Cd253 2.297 . S
O256 C258 1.247 . S
O257 Cd253 2.439 . S
O257 C258 1.208 . S
C258 O256 1.247 . S
C258 O257 1.208 . S
C259 O264 1.247 . S
C259 O265 1.208 1_545 S
C260 O252 1.315 . S
C260 O255 1.279 1_545 S
C261 O262 1.315 . S
C261 O263 1.279 . S
O262 Cd254 2.223 . S
O262 C261 1.315 . S
O263 Cd253 2.240 1_545 S
O263 C261 1.279 . S
O264 Cd254 2.297 . S
O264 C259 1.247 . S
O265 Cd254 2.439 1_565 S
O265 C259 1.208 1_565 S
O266 Cd267 2.223 . S
O266 C274 1.315 . S
Cd267 O266 2.223 . S
Cd267 O270 2.297 . S
Cd267 O271 2.439 1_554 S
Cd267 O277 2.240 1_554 S
Cd268 O269 2.240 1_556 S
Cd268 O276 2.223 1_556 S
Cd268 O278 2.297 . S
Cd268 O279 2.439 . S
O269 Cd268 2.240 1_554 S
O269 C274 1.279 . S
O270 Cd267 2.297 . S
O270 C272 1.247 . S
O271 Cd267 2.439 1_556 S
O271 C272 1.208 1_556 S
C272 O270 1.247 . S
C272 O271 1.208 1_554 S
C273 O278 1.247 . S
C273 O279 1.208 . S
C274 O266 1.315 . S
C274 O269 1.279 . S
C275 O276 1.315 . S
C275 O277 1.279 1_554 S
O276 Cd268 2.223 1_554 S
O276 C275 1.315 . S
O277 Cd267 2.240 1_556 S
O277 C275 1.279 1_556 S
O278 Cd268 2.297 . S
O278 C273 1.247 . S
O279 Cd268 2.439 . S
O279 C273 1.208 . S
O280 Cd281 2.223 . S
O280 C288 1.315 . S
Cd281 O280 2.223 . S
Cd281 O284 2.297 . S
Cd281 O285 2.439 . S
Cd281 O291 2.258 . S
Cd282 O283 2.226 1_556 S
Cd282 O290 2.218 1_556 S
Cd282 O292 2.314 . S
Cd282 O293 2.454 . S
O283 Cd282 2.226 1_554 S
O283 C288 1.279 . S
O284 Cd281 2.297 . S
O284 C286 1.247 . S
O285 Cd281 2.439 . S
O285 C286 1.208 . S
C286 O284 1.247 . S
C286 O285 1.208 . S
C287 O292 1.247 . S
C287 O293 1.208 . S
C288 O280 1.315 . S
C288 O283 1.279 . S
C289 O290 1.315 . S
C289 O291 1.291 . S
O290 Cd282 2.218 1_554 S
O290 C289 1.315 . S
O291 Cd281 2.258 . S
O291 C289 1.291 . S
O292 Cd282 2.314 . S
O292 C287 1.247 . S
O293 Cd282 2.454 . S
O293 C287 1.208 . S
O294 Cd295 2.223 . S
O294 C302 1.315 . S
Cd295 O294 2.223 . S
Cd295 O298 2.297 . S
Cd295 O299 2.439 . S
Cd295 O305 2.240 . S
Cd296 O297 2.240 . S
Cd296 O304 2.223 . S
Cd296 O306 2.297 . S
Cd296 O307 2.439 . S
O297 Cd296 2.240 . S
O297 C302 1.279 . S
O298 Cd295 2.297 . S
O298 C300 1.247 . S
O299 Cd295 2.439 . S
O299 C300 1.208 . S
C300 O298 1.247 . S
C300 O299 1.208 . S
C301 O306 1.247 . S
C301 O307 1.208 . S
C302 O294 1.315 . S
C302 O297 1.279 . S
C303 O304 1.315 . S
C303 O305 1.279 . S
O304 Cd296 2.223 . S
O304 C303 1.315 . S
O305 Cd295 2.240 . S
O305 C303 1.279 . S
O306 Cd296 2.297 . S
O306 C301 1.247 . S
O307 Cd296 2.439 . S
O307 C301 1.208 . S
O308 Cd309 2.223 . S
O308 C316 1.315 . S
Cd309 O308 2.223 . S
Cd309 O312 2.297 . S
Cd309 O313 2.439 . S
Cd309 O319 2.240 . S
Cd310 O311 2.240 . S
Cd310 O318 2.223 . S
Cd310 O320 2.297 . S
Cd310 O321 2.439 . S
O311 Cd310 2.240 . S
O311 C316 1.279 . S
O312 Cd309 2.297 . S
O312 C314 1.247 . S
O313 Cd309 2.439 . S
O313 C314 1.208 . S
C314 O312 1.247 . S
C314 O313 1.208 . S
C315 O320 1.247 . S
C315 O321 1.208 . S
C316 O308 1.315 . S
C316 O311 1.279 . S
C317 O318 1.315 . S
C317 O319 1.279 . S
O318 Cd310 2.223 . S
O318 C317 1.315 . S
O319 Cd309 2.240 . S
O319 C317 1.279 . S
O320 Cd310 2.297 . S
O320 C315 1.247 . S
O321 Cd310 2.439 . S
O321 C315 1.208 . S
O322 Cd323 2.223 . S
O322 C330 1.315 . S
Cd323 O322 2.223 . S
Cd323 O326 2.297 . S
Cd323 O327 2.439 . S
Cd323 O333 2.240 . S
Cd324 O325 2.240 . S
Cd324 O332 2.223 . S
Cd324 O334 2.297 . S
Cd324 O335 2.439 . S
O325 Cd324 2.240 . S
O325 C330 1.279 . S
O326 Cd323 2.297 . S
O326 C328 1.247 . S
O327 Cd323 2.439 . S
O327 C328 1.208 . S
C328 O326 1.247 . S
C328 O327 1.208 . S
C329 O334 1.247 . S
C329 O335 1.208 . S
C330 O322 1.315 . S
C330 O325 1.279 . S
C331 O332 1.315 . S
C331 O333 1.279 . S
O332 Cd324 2.223 . S
O332 C331 1.315 . S
O333 Cd323 2.240 . S
O333 C331 1.279 . S
O334 Cd324 2.297 . S
O334 C329 1.247 . S
O335 Cd324 2.439 . S
O335 C329 1.208 . S
O336 Zn337 1.953 . S
O336 C352 1.225 1_455 S
Zn337 O336 1.953 . S
Zn337 O338 1.940 1_545 S
Zn337 O344 1.919 . S
Zn337 O349 1.924 1_554 S
O338 Zn337 1.940 1_565 S
O338 Zn339 1.929 . S
O338 Zn340 1.948 1_465 S
O338 Zn341 1.949 1_454 S
Zn339 O338 1.929 . S
Zn339 O342 1.933 . S
Zn339 O345 1.941 . S
Zn339 O346 1.965 . S
Zn340 O338 1.948 1_645 S
Zn340 O347 1.946 1_655 S
Zn340 O348 1.906 1_545 S
Zn340 O358 1.953 . S
Zn341 O338 1.949 1_656 S
Zn341 O343 1.932 1_655 S
Zn341 O350 1.977 1_556 S
Zn341 O351 1.910 1_565 S
O342 Zn339 1.933 . S
O342 C353 1.226 1_554 S
O343 Zn341 1.932 1_455 S
O343 C353 1.307 . S
O344 Zn337 1.919 . S
O344 C355 1.253 . S
O345 Zn339 1.941 . S
O345 C355 1.283 1_565 S
O346 Zn339 1.965 . S
O346 C354 1.303 . S
O347 Zn340 1.946 1_455 S
O347 C354 1.233 1_545 S
O348 Zn340 1.906 1_565 S
O348 C356 1.304 . S
O349 Zn337 1.924 1_556 S
O349 C357 1.311 1_455 S
O350 Zn341 1.977 1_554 S
O350 C356 1.272 . S
O351 Zn341 1.910 1_545 S
O351 C357 1.231 . S
C352 O336 1.225 1_655 S
C352 O358 1.298 . S
C353 O342 1.226 1_556 S
C353 O343 1.307 . S
C354 O346 1.303 . S
C354 O347 1.233 1_565 S
C355 O344 1.253 . S
C355 O345 1.283 1_545 S
C356 O348 1.304 . S
C356 O350 1.272 . S
C357 O349 1.311 1_655 S
C357 O351 1.231 . S
O358 Zn340 1.953 . S
O358 C352 1.298 . S
O359 Zn360 1.953 . S
O359 C375 1.225 . S
Zn360 O359 1.953 . S
Zn360 O361 1.949 . S
Zn360 O367 1.919 . S
Zn360 O372 1.924 . S
O361 Zn360 1.949 . S
O361 Zn362 1.923 . S
O361 Zn363 1.950 . S
O361 Zn364 1.945 . S
Zn362 O361 1.923 . S
Zn362 O365 1.933 . S
Zn362 O368 1.941 . S
Zn362 O369 1.965 . S
Zn363 O361 1.950 . S
Zn363 O370 1.938 . S
Zn363 O371 1.906 . S
Zn363 O381 1.953 . S
Zn364 O361 1.945 . S
Zn364 O366 1.932 . S
Zn364 O373 1.977 . S
Zn364 O374 1.910 . S
O365 Zn362 1.933 . S
O365 C376 1.226 . S
O366 Zn364 1.932 . S
O366 C376 1.307 . S
O367 Zn360 1.919 . S
O367 C378 1.253 . S
O368 Zn362 1.941 . S
O368 C378 1.283 . S
O369 Zn362 1.965 . S
O369 C377 1.303 . S
O370 Zn363 1.938 . S
O370 C377 1.247 . S
O371 Zn363 1.906 . S
O371 C379 1.304 . S
O372 Zn360 1.924 . S
O372 C380 1.311 . S
O373 Zn364 1.977 . S
O373 C379 1.272 . S
O374 Zn364 1.910 . S
O374 C380 1.231 . S
C375 O359 1.225 . S
C375 O381 1.298 . S
C376 O365 1.226 . S
C376 O366 1.307 . S
C377 O369 1.303 . S
C377 O370 1.247 . S
C378 O367 1.253 . S
C378 O368 1.283 . S
C379 O371 1.304 . S
C379 O373 1.272 . S
C380 O372 1.311 . S
C380 O374 1.231 . S
O381 Zn363 1.953 . S
O381 C375 1.298 . S
O382 Zn383 1.953 . S
O382 C398 1.225 . S
Zn383 O382 1.953 . S
Zn383 O384 1.949 1_565 S
Zn383 O390 1.919 . S
Zn383 O395 1.924 . S
O384 Zn383 1.949 1_545 S
O384 Zn385 1.923 . S
O384 Zn386 1.950 . S
O384 Zn387 1.945 . S
Zn385 O384 1.923 . S
Zn385 O388 1.933 . S
Zn385 O391 1.941 . S
Zn385 O392 1.965 . S
Zn386 O384 1.950 . S
Zn386 O393 1.938 . S
Zn386 O394 1.906 . S
Zn386 O404 1.953 1_545 S
Zn387 O384 1.945 . S
Zn387 O389 1.932 . S
Zn387 O396 1.977 . S
Zn387 O397 1.910 . S
O388 Zn385 1.933 . S
O388 C399 1.226 . S
O389 Zn387 1.932 . S
O389 C399 1.307 . S
O390 Zn383 1.919 . S
O390 C401 1.253 1_565 S
O391 Zn385 1.941 . S
O391 C401 1.283 . S
O392 Zn385 1.965 . S
O392 C400 1.303 . S
O393 Zn386 1.938 . S
O393 C400 1.247 . S
O394 Zn386 1.906 . S
O394 C402 1.304 . S
O395 Zn383 1.924 . S
O395 C403 1.311 . S
O396 Zn387 1.977 . S
O396 C402 1.272 . S
O397 Zn387 1.910 . S
O397 C403 1.231 1_545 S
C398 O382 1.225 . S
C398 O404 1.298 . S
C399 O388 1.226 . S
C399 O389 1.307 . S
C400 O392 1.303 . S
C400 O393 1.247 . S
C401 O390 1.253 1_545 S
C401 O391 1.283 . S
C402 O394 1.304 . S
C402 O396 1.272 . S
C403 O395 1.311 . S
C403 O397 1.231 1_565 S
O404 Zn386 1.953 1_565 S
O404 C398 1.298 . S
O405 Zn406 1.953 . S
O405 C421 1.225 . S
Zn406 O405 1.953 . S
Zn406 O407 1.949 . S
Zn406 O413 1.919 . S
Zn406 O418 1.924 . S
O407 Zn406 1.949 . S
O407 Zn408 1.923 . S
O407 Zn409 1.950 . S
O407 Zn410 1.945 . S
Zn408 O407 1.923 . S
Zn408 O411 1.933 . S
Zn408 O414 1.941 . S
Zn408 O415 1.965 . S
Zn409 O407 1.950 . S
Zn409 O416 1.938 . S
Zn409 O417 1.906 . S
Zn409 O427 1.953 . S
Zn410 O407 1.945 . S
Zn410 O412 1.932 . S
Zn410 O419 1.977 . S
Zn410 O420 1.910 . S
O411 Zn408 1.933 . S
O411 C422 1.226 . S
O412 Zn410 1.932 . S
O412 C422 1.307 . S
O413 Zn406 1.919 . S
O413 C424 1.253 . S
O414 Zn408 1.941 . S
O414 C424 1.283 . S
O415 Zn408 1.965 . S
O415 C423 1.303 . S
O416 Zn409 1.938 . S
O416 C423 1.247 . S
O417 Zn409 1.906 . S
O417 C425 1.304 . S
O418 Zn406 1.924 . S
O418 C426 1.311 . S
O419 Zn410 1.977 . S
O419 C425 1.272 . S
O420 Zn410 1.910 . S
O420 C426 1.231 . S
C421 O405 1.225 . S
C421 O427 1.298 . S
C422 O411 1.226 . S
C422 O412 1.307 . S
C423 O415 1.303 . S
C423 O416 1.247 . S
C424 O413 1.253 . S
C424 O414 1.283 . S
C425 O417 1.304 . S
C425 O419 1.272 . S
C426 O418 1.311 . S
C426 O420 1.231 . S
O427 Zn409 1.953 . S
O427 C421 1.298 . S
O428 Zn429 1.953 1_445 S
O428 C444 1.225 . S
Zn429 O428 1.953 1_665 S
Zn429 O430 1.949 1_665 S
Zn429 O436 1.919 . S
Zn429 O441 1.924 1_565 S
O430 Zn429 1.949 1_445 S
O430 Zn431 1.923 1_545 S
O430 Zn432 1.950 . S
O430 Zn433 1.945 1_455 S
Zn431 O430 1.923 1_565 S
Zn431 O434 1.933 1_455 S
Zn431 O437 1.941 . S
Zn431 O438 1.965 . S
Zn432 O430 1.950 . S
Zn432 O439 1.938 . S
Zn432 O440 1.906 . S
Zn432 O450 1.953 . S
Zn433 O430 1.945 1_655 S
Zn433 O435 1.932 . S
Zn433 O442 1.977 . S
Zn433 O443 1.910 . S
O434 Zn431 1.933 1_655 S
O434 C445 1.226 . S
O435 Zn433 1.932 . S
O435 C445 1.307 1_545 S
O436 Zn429 1.919 . S
O436 C447 1.253 . S
O437 Zn431 1.941 . S
O437 C447 1.283 1_455 S
O438 Zn431 1.965 . S
O438 C446 1.303 . S
O439 Zn432 1.938 . S
O439 C446 1.247 1_545 S
O440 Zn432 1.906 . S
O440 C448 1.304 . S
O441 Zn429 1.924 1_545 S
O441 C449 1.311 . S
O442 Zn433 1.977 . S
O442 C448 1.272 1_655 S
O443 Zn433 1.910 . S
O443 C449 1.231 . S
C444 O428 1.225 . S
C444 O450 1.298 . S
C445 O434 1.226 . S
C445 O435 1.307 1_565 S
C446 O438 1.303 . S
C446 O439 1.247 1_565 S
C447 O436 1.253 . S
C447 O437 1.283 1_655 S
C448 O440 1.304 . S
C448 O442 1.272 1_455 S
C449 O441 1.311 . S
C449 O443 1.231 . S
O450 Zn432 1.953 . S
O450 C444 1.298 . S
O451 Zn452 1.953 . S
O451 C467 1.225 . S
Zn452 O451 1.953 . S
Zn452 O453 1.949 . S
Zn452 O459 1.919 . S
Zn452 O464 1.924 . S
O453 Zn452 1.949 . S
O453 Zn454 1.923 . S
O453 Zn455 1.950 . S
O453 Zn456 1.945 . S
Zn454 O453 1.923 . S
Zn454 O457 1.933 . S
Zn454 O460 1.941 . S
Zn454 O461 1.965 . S
Zn455 O453 1.950 . S
Zn455 O462 1.938 . S
Zn455 O463 1.906 . S
Zn455 O473 1.953 . S
Zn456 O453 1.945 . S
Zn456 O458 1.932 . S
Zn456 O465 1.977 . S
Zn456 O466 1.910 . S
O457 Zn454 1.933 . S
O457 C468 1.226 . S
O458 Zn456 1.932 . S
O458 C468 1.307 . S
O459 Zn452 1.919 . S
O459 C470 1.253 . S
O460 Zn454 1.941 . S
O460 C470 1.283 . S
O461 Zn454 1.965 . S
O461 C469 1.303 . S
O462 Zn455 1.938 . S
O462 C469 1.247 . S
O463 Zn455 1.906 . S
O463 C471 1.304 . S
O464 Zn452 1.924 . S
O464 C472 1.311 . S
O465 Zn456 1.977 . S
O465 C471 1.272 . S
O466 Zn456 1.910 . S
O466 C472 1.231 . S
C467 O451 1.225 . S
C467 O473 1.298 . S
C468 O457 1.226 . S
C468 O458 1.307 . S
C469 O461 1.303 . S
C469 O462 1.247 . S
C470 O459 1.253 . S
C470 O460 1.283 . S
C471 O463 1.304 . S
C471 O465 1.272 . S
C472 O464 1.311 . S
C472 O466 1.231 . S
O473 Zn455 1.953 . S
O473 C467 1.298 . S
O474 Zn475 1.953 . S
O474 C490 1.225 . S
Zn475 O474 1.953 . S
Zn475 O476 1.949 . S
Zn475 O482 1.919 . S
Zn475 O487 1.924 . S
O476 Zn475 1.949 . S
O476 Zn477 1.923 1_545 S
O476 Zn478 1.950 . S
O476 Zn479 1.945 1_554 S
Zn477 O476 1.923 1_565 S
Zn477 O480 1.933 1_554 S
Zn477 O483 1.943 . S
Zn477 O484 1.965 . S
Zn478 O476 1.950 . S
Zn478 O485 1.938 1_545 S
Zn478 O486 1.906 . S
Zn478 O496 1.953 . S
Zn479 O476 1.945 1_556 S
Zn479 O481 1.932 . S
Zn479 O488 1.977 1_556 S
Zn479 O489 1.910 . S
O480 Zn477 1.933 1_556 S
O480 C491 1.226 . S
O481 Zn479 1.932 . S
O481 C491 1.307 1_545 S
O482 Zn475 1.919 . S
O482 C493 1.241 1_544 S
O483 Zn477 1.943 . S
O483 C493 1.282 1_554 S
O484 Zn477 1.965 . S
O484 C492 1.303 . S
O485 Zn478 1.938 1_565 S
O485 C492 1.247 . S
O486 Zn478 1.906 . S
O486 C494 1.304 . S
O487 Zn475 1.924 . S
O487 C495 1.311 . S
O488 Zn479 1.977 1_554 S
O488 C494 1.272 . S
O489 Zn479 1.910 . S
O489 C495 1.231 1_556 S
C490 O474 1.225 . S
C490 O496 1.298 . S
C491 O480 1.226 . S
C491 O481 1.307 1_565 S
C492 O484 1.303 . S
C492 O485 1.247 . S
C493 O482 1.241 1_566 S
C493 O483 1.282 1_556 S
C494 O486 1.304 . S
C494 O488 1.272 . S
C495 O487 1.311 . S
C495 O489 1.231 1_554 S
O496 Zn478 1.953 . S
O496 C490 1.298 . S
O497 Zn498 1.953 . S
O497 C513 1.225 . S
Zn498 O497 1.953 . S
Zn498 O499 1.949 . S
Zn498 O505 1.919 . S
Zn498 O510 1.924 . S
O499 Zn498 1.949 . S
O499 Zn500 1.923 . S
O499 Zn501 1.950 . S
O499 Zn502 1.945 . S
Zn500 O499 1.923 . S
Zn500 O503 1.933 . S
Zn500 O506 1.941 . S
Zn500 O507 1.965 . S
Zn501 O499 1.950 . S
Zn501 O508 1.938 . S
Zn501 O509 1.906 . S
Zn501 O519 1.953 . S
Zn502 O499 1.945 . S
Zn502 O504 1.932 . S
Zn502 O511 1.977 . S
Zn502 O512 1.910 . S
O503 Zn500 1.933 . S
O503 C514 1.226 . S
O504 Zn502 1.932 . S
O504 C514 1.307 . S
O505 Zn498 1.919 . S
O505 C516 1.253 . S
O506 Zn500 1.941 . S
O506 C516 1.283 . S
O507 Zn500 1.965 . S
O507 C515 1.303 . S
O508 Zn501 1.938 . S
O508 C515 1.247 . S
O509 Zn501 1.906 . S
O509 C517 1.304 . S
O510 Zn498 1.924 . S
O510 C518 1.311 . S
O511 Zn502 1.977 . S
O511 C517 1.272 . S
O512 Zn502 1.910 . S
O512 C518 1.231 . S
C513 O497 1.225 . S
C513 O519 1.298 . S
C514 O503 1.226 . S
C514 O504 1.307 . S
C515 O507 1.303 . S
C515 O508 1.247 . S
C516 O505 1.253 . S
C516 O506 1.283 . S
C517 O509 1.304 . S
C517 O511 1.272 . S
C518 O510 1.311 . S
C518 O512 1.231 . S
O519 Zn501 1.953 . S
O519 C513 1.298 . S
O520 Zn521 1.953 . S
O520 C536 1.225 . S
Zn521 O520 1.953 . S
Zn521 O522 1.949 1_556 S
Zn521 O528 1.919 . S
Zn521 O533 1.924 . S
O522 Zn521 1.949 1_554 S
O522 Zn523 1.923 . S
O522 Zn524 1.950 . S
O522 Zn525 1.945 . S
Zn523 O522 1.923 . S
Zn523 O526 1.933 . S
Zn523 O529 1.941 . S
Zn523 O530 1.965 . S
Zn524 O522 1.950 . S
Zn524 O531 1.938 . S
Zn524 O532 1.906 . S
Zn524 O542 1.953 1_554 S
Zn525 O522 1.945 . S
Zn525 O527 1.932 . S
Zn525 O534 1.977 . S
Zn525 O535 1.910 . S
O526 Zn523 1.933 . S
O526 C537 1.226 . S
O527 Zn525 1.932 . S
O527 C537 1.307 . S
O528 Zn521 1.919 . S
O528 C539 1.253 1_556 S
O529 Zn523 1.941 . S
O529 C539 1.283 . S
O530 Zn523 1.965 . S
O530 C538 1.303 . S
O531 Zn524 1.938 . S
O531 C538 1.247 . S
O532 Zn524 1.906 . S
O532 C540 1.304 . S
O533 Zn521 1.924 . S
O533 C541 1.311 1_556 S
O534 Zn525 1.977 . S
O534 C540 1.272 . S
O535 Zn525 1.910 . S
O535 C541 1.231 . S
C536 O520 1.225 . S
C536 O542 1.298 . S
C537 O526 1.226 . S
C537 O527 1.307 . S
C538 O530 1.303 . S
C538 O531 1.247 . S
C539 O528 1.253 1_554 S
C539 O529 1.283 . S
C540 O532 1.304 . S
C540 O534 1.272 . S
C541 O533 1.311 1_554 S
C541 O535 1.231 . S
O542 Zn524 1.953 1_556 S
O542 C536 1.298 . S
O543 Zn544 1.953 . S
O543 C559 1.225 . S
Zn544 O543 1.953 . S
Zn544 O545 1.949 . S
Zn544 O551 1.919 . S
Zn544 O556 1.924 . S
O545 Zn544 1.949 . S
O545 Zn546 1.923 . S
O545 Zn547 1.950 . S
O545 Zn548 1.945 . S
Zn546 O545 1.923 . S
Zn546 O549 1.933 . S
Zn546 O552 1.941 . S
Zn546 O553 1.965 . S
Zn547 O545 1.950 . S
Zn547 O554 1.938 . S
Zn547 O555 1.906 . S
Zn547 O565 1.953 . S
Zn548 O545 1.945 . S
Zn548 O550 1.932 . S
Zn548 O557 1.977 . S
Zn548 O558 1.910 . S
O549 Zn546 1.933 . S
O549 C560 1.226 . S
O550 Zn548 1.932 . S
O550 C560 1.307 . S
O551 Zn544 1.919 . S
O551 C562 1.253 . S
O552 Zn546 1.941 . S
O552 C562 1.283 . S
O553 Zn546 1.965 . S
O553 C561 1.303 . S
O554 Zn547 1.938 . S
O554 C561 1.247 . S
O555 Zn547 1.906 . S
O555 C563 1.304 . S
O556 Zn544 1.924 . S
O556 C564 1.311 . S
O557 Zn548 1.977 . S
O557 C563 1.272 . S
O558 Zn548 1.910 . S
O558 C564 1.231 . S
C559 O543 1.225 . S
C559 O565 1.298 . S
C560 O549 1.226 . S
C560 O550 1.307 . S
C561 O553 1.303 . S
C561 O554 1.247 . S
C562 O551 1.253 . S
C562 O552 1.283 . S
C563 O555 1.304 . S
C563 O557 1.272 . S
C564 O556 1.311 . S
C564 O558 1.231 . S
O565 Zn547 1.953 . S
O565 C559 1.298 . S
O566 Zn567 1.953 . S
O566 C582 1.225 . S
Zn567 O566 1.953 . S
Zn567 O568 1.949 . S
Zn567 O574 1.919 . S
Zn567 O579 1.924 . S
O568 Zn567 1.949 . S
O568 Zn569 1.923 . S
O568 Zn570 1.950 1_455 S
O568 Zn571 1.945 1_455 S
Zn569 O568 1.923 . S
Zn569 O572 1.933 1_455 S
Zn569 O575 1.941 . S
Zn569 O576 1.965 1_455 S
Zn570 O568 1.950 1_655 S
Zn570 O577 1.938 . S
Zn570 O578 1.906 . S
Zn570 O588 1.953 1_655 S
Zn571 O568 1.945 1_655 S
Zn571 O573 1.932 . S
Zn571 O580 1.977 . S
Zn571 O581 1.910 1_655 S
O572 Zn569 1.933 1_655 S
O572 C583 1.226 . S
O573 Zn571 1.932 . S
O573 C583 1.307 . S
O574 Zn567 1.919 . S
O574 C585 1.253 . S
O575 Zn569 1.941 . S
O575 C585 1.283 . S
O576 Zn569 1.965 1_655 S
O576 C584 1.303 . S
O577 Zn570 1.938 . S
O577 C584 1.247 . S
O578 Zn570 1.906 . S
O578 C586 1.304 . S
O579 Zn567 1.924 . S
O579 C587 1.311 . S
O580 Zn571 1.977 . S
O580 C586 1.272 . S
O581 Zn571 1.910 1_455 S
O581 C587 1.231 . S
C582 O566 1.225 . S
C582 O588 1.298 . S
C583 O572 1.226 . S
C583 O573 1.307 . S
C584 O576 1.303 . S
C584 O577 1.247 . S
C585 O574 1.253 . S
C585 O575 1.283 . S
C586 O578 1.304 . S
C586 O580 1.272 . S
C587 O579 1.311 . S
C587 O581 1.231 . S
O588 Zn570 1.953 1_455 S
O588 C582 1.298 . S
O589 Zn590 1.953 . S
O589 C605 1.225 . S
Zn590 O589 1.953 . S
Zn590 O591 1.949 . S
Zn590 O597 1.919 . S
Zn590 O602 1.924 . S
O591 Zn590 1.949 . S
O591 Zn592 1.923 . S
O591 Zn593 1.950 . S
O591 Zn594 1.945 . S
Zn592 O591 1.923 . S
Zn592 O595 1.933 . S
Zn592 O598 1.941 . S
Zn592 O599 1.965 . S
Zn593 O591 1.950 . S
Zn593 O600 1.938 . S
Zn593 O601 1.906 . S
Zn593 O611 1.953 . S
Zn594 O591 1.945 . S
Zn594 O596 1.932 . S
Zn594 O603 1.977 . S
Zn594 O604 1.910 . S
O595 Zn592 1.933 . S
O595 C606 1.226 . S
O596 Zn594 1.932 . S
O596 C606 1.307 . S
O597 Zn590 1.919 . S
O597 C608 1.253 . S
O598 Zn592 1.941 . S
O598 C608 1.283 . S
O599 Zn592 1.965 . S
O599 C607 1.303 . S
O600 Zn593 1.938 . S
O600 C607 1.247 . S
O601 Zn593 1.906 . S
O601 C609 1.304 . S
O602 Zn590 1.924 . S
O602 C610 1.311 . S
O603 Zn594 1.977 . S
O603 C609 1.272 . S
O604 Zn594 1.910 . S
O604 C610 1.231 . S
C605 O589 1.225 . S
C605 O611 1.298 . S
C606 O595 1.226 . S
C606 O596 1.307 . S
C607 O599 1.303 . S
C607 O600 1.247 . S
C608 O597 1.253 . S
C608 O598 1.283 . S
C609 O601 1.304 . S
C609 O603 1.272 . S
C610 O602 1.311 . S
C610 O604 1.231 . S
O611 Zn593 1.953 . S
O611 C605 1.298 . S
O612 Zn613 1.953 . S
O612 C628 1.225 . S
Zn613 O612 1.953 . S
Zn613 O614 1.949 . S
Zn613 O620 1.919 . S
Zn613 O625 1.924 . S
O614 Zn613 1.949 . S
O614 Zn615 1.923 . S
O614 Zn616 1.950 . S
O614 Zn617 1.945 . S
Zn615 O614 1.923 . S
Zn615 O618 1.933 . S
Zn615 O621 1.941 . S
Zn615 O622 1.965 . S
Zn616 O614 1.950 . S
Zn616 O623 1.938 . S
Zn616 O624 1.906 . S
Zn616 O634 1.953 . S
Zn617 O614 1.945 . S
Zn617 O619 1.932 . S
Zn617 O626 1.977 . S
Zn617 O627 1.910 . S
O618 Zn615 1.933 . S
O618 C629 1.226 . S
O619 Zn617 1.932 . S
O619 C629 1.307 . S
O620 Zn613 1.919 . S
O620 C631 1.253 . S
O621 Zn615 1.941 . S
O621 C631 1.283 . S
O622 Zn615 1.965 . S
O622 C630 1.303 . S
O623 Zn616 1.938 . S
O623 C630 1.247 . S
O624 Zn616 1.906 . S
O624 C632 1.304 . S
O625 Zn613 1.924 . S
O625 C633 1.311 . S
O626 Zn617 1.977 . S
O626 C632 1.272 . S
O627 Zn617 1.910 . S
O627 C633 1.231 . S
C628 O612 1.225 . S
C628 O634 1.298 . S
C629 O618 1.226 . S
C629 O619 1.307 . S
C630 O622 1.303 . S
C630 O623 1.247 . S
C631 O620 1.253 . S
C631 O621 1.283 . S
C632 O624 1.304 . S
C632 O626 1.272 . S
C633 O625 1.311 . S
C633 O627 1.231 . S
O634 Zn616 1.953 . S
O634 C628 1.298 . S
O635 Zn636 1.953 . S
O635 C651 1.225 . S
Zn636 O635 1.953 . S
Zn636 O637 1.949 . S
Zn636 O643 1.919 . S
Zn636 O648 1.924 . S
O637 Zn636 1.949 . S
O637 Zn638 1.923 . S
O637 Zn639 1.950 . S
O637 Zn640 1.945 . S
Zn638 O637 1.923 . S
Zn638 O641 1.933 . S
Zn638 O644 1.941 . S
Zn638 O645 1.965 . S
Zn639 O637 1.950 . S
Zn639 O646 1.938 . S
Zn639 O647 1.906 . S
Zn639 O657 1.953 . S
Zn640 O637 1.945 . S
Zn640 O642 1.932 . S
Zn640 O649 1.977 . S
Zn640 O650 1.910 . S
O641 Zn638 1.933 . S
O641 C652 1.226 . S
O642 Zn640 1.932 . S
O642 C652 1.307 . S
O643 Zn636 1.919 . S
O643 C654 1.253 . S
O644 Zn638 1.941 . S
O644 C654 1.283 . S
O645 Zn638 1.965 . S
O645 C653 1.303 . S
O646 Zn639 1.938 . S
O646 C653 1.247 . S
O647 Zn639 1.906 . S
O647 C655 1.304 . S
O648 Zn636 1.924 . S
O648 C656 1.311 . S
O649 Zn640 1.977 . S
O649 C655 1.272 . S
O650 Zn640 1.910 . S
O650 C656 1.231 . S
C651 O635 1.225 . S
C651 O657 1.298 . S
C652 O641 1.226 . S
C652 O642 1.307 . S
C653 O645 1.303 . S
C653 O646 1.247 . S
C654 O643 1.253 . S
C654 O644 1.283 . S
C655 O647 1.304 . S
C655 O649 1.272 . S
C656 O648 1.311 . S
C656 O650 1.231 . S
O657 Zn639 1.953 . S
O657 C651 1.298 . S
O658 Zn659 1.953 . S
O658 C674 1.225 . S
Zn659 O658 1.953 . S
Zn659 O660 1.949 . S
Zn659 O666 1.919 . S
Zn659 O671 1.924 . S
O660 Zn659 1.949 . S
O660 Zn661 1.923 . S
O660 Zn662 1.950 . S
O660 Zn663 1.945 . S
Zn661 O660 1.923 . S
Zn661 O664 1.933 . S
Zn661 O667 1.941 . S
Zn661 O668 1.965 . S
Zn662 O660 1.950 . S
Zn662 O669 1.938 . S
Zn662 O670 1.906 . S
Zn662 O680 1.953 . S
Zn663 O660 1.945 . S
Zn663 O665 1.932 . S
Zn663 O672 1.977 . S
Zn663 O673 1.910 . S
O664 Zn661 1.933 . S
O664 C675 1.226 . S
O665 Zn663 1.932 . S
O665 C675 1.307 . S
O666 Zn659 1.919 . S
O666 C677 1.253 . S
O667 Zn661 1.941 . S
O667 C677 1.283 . S
O668 Zn661 1.965 . S
O668 C676 1.303 . S
O669 Zn662 1.938 . S
O669 C676 1.247 . S
O670 Zn662 1.906 . S
O670 C678 1.304 . S
O671 Zn659 1.924 . S
O671 C679 1.311 . S
O672 Zn663 1.977 . S
O672 C678 1.272 . S
O673 Zn663 1.910 . S
O673 C679 1.231 . S
C674 O658 1.225 . S
C674 O680 1.298 . S
C675 O664 1.226 . S
C675 O665 1.307 . S
C676 O668 1.303 . S
C676 O669 1.247 . S
C677 O666 1.253 . S
C677 O667 1.283 . S
C678 O670 1.304 . S
C678 O672 1.272 . S
C679 O671 1.311 . S
C679 O673 1.231 . S
O680 Zn662 1.953 . S
O680 C674 1.298 . S
O681 Zn682 1.953 1_455 S
O681 C697 1.225 . S
Zn682 O681 1.953 1_655 S
Zn682 O683 1.949 1_655 S
Zn682 O689 1.919 . S
Zn682 O694 1.924 1_654 S
O683 Zn682 1.949 1_455 S
O683 Zn684 1.923 1_455 S
O683 Zn685 1.950 . S
O683 Zn686 1.966 . S
Zn684 O683 1.923 1_655 S
Zn684 O687 1.933 . S
Zn684 O690 1.941 . S
Zn684 O691 1.965 . S
Zn685 O683 1.950 . S
Zn685 O692 1.938 . S
Zn685 O693 1.906 . S
Zn685 O703 1.953 . S
Zn686 O683 1.966 . S
Zn686 O688 1.927 1_554 S
Zn686 O695 1.988 . S
Zn686 O696 1.888 1_554 S
O687 Zn684 1.933 . S
O687 C698 1.226 . S
O688 Zn686 1.927 1_556 S
O688 C698 1.307 1_456 S
O689 Zn682 1.919 . S
O689 C700 1.253 . S
O690 Zn684 1.941 . S
O690 C700 1.283 . S
O691 Zn684 1.965 . S
O691 C699 1.303 . S
O692 Zn685 1.938 . S
O692 C699 1.247 1_455 S
O693 Zn685 1.906 . S
O693 C701 1.304 . S
O694 Zn682 1.924 1_456 S
O694 C702 1.311 . S
O695 Zn686 1.988 . S
O695 C701 1.272 . S
O696 Zn686 1.888 1_556 S
O696 C702 1.231 . S
C697 O681 1.225 . S
C697 O703 1.298 . S
C698 O687 1.226 . S
C698 O688 1.307 1_654 S
C699 O691 1.303 . S
C699 O692 1.247 1_655 S
C700 O689 1.253 . S
C700 O690 1.283 . S
C701 O693 1.304 . S
C701 O695 1.272 . S
C702 O694 1.311 . S
C702 O696 1.231 . S
O703 Zn685 1.953 . S
O703 C697 1.298 . S
C704 C705 1.363 1_655 S
C704 C710 1.379 . S
C704 N712 1.356 . S
C705 C704 1.363 1_455 S
C705 C711 1.363 . S
C706 C707 1.363 1_455 S
C706 C711 1.379 . S
C706 N713 1.356 . S
C707 C706 1.363 1_655 S
C707 C710 1.363 . S
N708 C710 1.356 . S
N708 H720 0.984 . S
N708 H721 0.985 . S
N709 C711 1.356 . S
N709 H714 0.984 . S
N709 H715 0.985 . S
C710 C704 1.379 . S
C710 C707 1.363 . S
C710 N708 1.356 . S
C711 C705 1.363 . S
C711 C706 1.379 . S
C711 N709 1.356 . S
N712 C704 1.356 . S
N712 H718 0.984 . S
N712 H719 0.984 . S
N713 C706 1.356 . S
N713 H716 0.984 . S
N713 H717 0.985 . S
H714 N709 0.984 . S
H715 N709 0.985 . S
H716 N713 0.984 . S
H717 N713 0.985 . S
H718 N712 0.984 . S
H719 N712 0.984 . S
H720 N708 0.984 . S
H721 N708 0.985 . S
C722 C723 1.363 . S
C722 C728 1.379 . S
C722 N730 1.356 . S
C723 C722 1.363 . S
C723 C729 1.363 . S
C724 C725 1.363 . S
C724 C729 1.379 . S
C724 N731 1.356 . S
C725 C724 1.363 . S
C725 C728 1.363 . S
N726 C728 1.356 . S
N726 H738 0.984 . S
N726 H739 0.985 . S
N727 C729 1.356 . S
N727 H732 0.984 . S
N727 H733 0.985 . S
C728 C722 1.379 . S
C728 C725 1.363 . S
C728 N726 1.356 . S
C729 C723 1.363 . S
C729 C724 1.379 . S
C729 N727 1.356 . S
N730 C722 1.356 . S
N730 H736 0.984 . S
N730 H737 0.984 . S
N731 C724 1.356 . S
N731 H734 0.984 . S
N731 H735 0.985 . S
H732 N727 0.984 . S
H733 N727 0.985 . S
H734 N731 0.984 . S
H735 N731 0.985 . S
H736 N730 0.984 . S
H737 N730 0.984 . S
H738 N726 0.984 . S
H739 N726 0.985 . S
C740 C741 1.363 . S
C740 C746 1.379 . S
C740 N748 1.356 . S
C741 C740 1.363 . S
C741 C747 1.363 . S
C742 C743 1.363 . S
C742 C747 1.379 . S
C742 N749 1.356 . S
C743 C742 1.363 . S
C743 C746 1.363 . S
N744 C746 1.356 . S
N744 H756 0.984 . S
N744 H757 0.985 . S
N745 C747 1.356 . S
N745 H750 0.984 . S
N745 H751 0.985 . S
C746 C740 1.379 . S
C746 C743 1.363 . S
C746 N744 1.356 . S
C747 C741 1.363 . S
C747 C742 1.379 . S
C747 N745 1.356 . S
N748 C740 1.356 . S
N748 H754 0.984 . S
N748 H755 0.984 . S
N749 C742 1.356 . S
N749 H752 0.984 . S
N749 H753 0.985 . S
H750 N745 0.984 . S
H751 N745 0.985 . S
H752 N749 0.984 . S
H753 N749 0.985 . S
H754 N748 0.984 . S
H755 N748 0.984 . S
H756 N744 0.984 . S
H757 N744 0.985 . S
C758 C759 1.363 . S
C758 C764 1.379 . S
C758 N766 1.356 . S
C759 C758 1.363 . S
C759 C765 1.363 . S
C760 C761 1.363 . S
C760 C765 1.379 . S
C760 N767 1.356 . S
C761 C760 1.363 . S
C761 C764 1.363 . S
N762 C764 1.356 . S
N762 H774 0.984 . S
N762 H775 0.985 . S
N763 C765 1.356 . S
N763 H768 0.984 . S
N763 H769 0.985 . S
C764 C758 1.379 . S
C764 C761 1.363 . S
C764 N762 1.356 . S
C765 C759 1.363 . S
C765 C760 1.379 . S
C765 N763 1.356 . S
N766 C758 1.356 . S
N766 H772 0.984 . S
N766 H773 0.984 . S
N767 C760 1.356 . S
N767 H770 0.984 . S
N767 H771 0.985 . S
H768 N763 0.984 . S
H769 N763 0.985 . S
H770 N767 0.984 . S
H771 N767 0.985 . S
H772 N766 0.984 . S
H773 N766 0.984 . S
H774 N762 0.984 . S
H775 N762 0.985 . S
C776 C777 1.363 . S
C776 C782 1.379 1_455 S
C776 N784 1.356 . S
C777 C776 1.363 . S
C777 C783 1.363 1_455 S
C778 C779 1.363 . S
C778 C783 1.379 . S
C778 N785 1.356 . S
C779 C778 1.363 . S
C779 C782 1.363 . S
N780 C782 1.356 . S
N780 H792 0.982 1_655 S
N780 H793 0.985 . S
N781 C783 1.356 . S
N781 H786 0.984 1_655 S
N781 H787 0.985 . S
C782 C776 1.379 1_655 S
C782 C779 1.363 . S
C782 N780 1.356 . S
C783 C777 1.363 1_655 S
C783 C778 1.379 . S
C783 N781 1.356 . S
N784 C776 1.356 . S
N784 H790 0.984 . S
N784 H791 0.984 . S
N785 C778 1.356 . S
N785 H788 0.984 . S
N785 H789 0.985 . S
H786 N781 0.984 1_455 S
H787 N781 0.985 . S
H788 N785 0.984 . S
H789 N785 0.985 . S
H790 N784 0.984 . S
H791 N784 0.984 . S
H792 N780 0.982 1_455 S
H793 N780 0.985 . S
C794 C795 1.363 . S
C794 C800 1.379 . S
C794 N802 1.356 . S
C795 C794 1.363 . S
C795 C801 1.363 . S
C796 C797 1.363 . S
C796 C801 1.379 . S
C796 N803 1.356 . S
C797 C796 1.363 . S
C797 C800 1.363 . S
N798 C800 1.356 . S
N798 H810 0.984 . S
N798 H811 0.985 . S
N799 C801 1.356 . S
N799 H804 0.984 . S
N799 H805 0.985 . S
C800 C794 1.379 . S
C800 C797 1.363 . S
C800 N798 1.356 . S
C801 C795 1.363 . S
C801 C796 1.379 . S
C801 N799 1.356 . S
N802 C794 1.356 . S
N802 H808 0.984 . S
N802 H809 0.984 . S
N803 C796 1.356 . S
N803 H806 0.984 . S
N803 H807 0.985 . S
H804 N799 0.984 . S
H805 N799 0.985 . S
H806 N803 0.984 . S
H807 N803 0.985 . S
H808 N802 0.984 . S
H809 N802 0.984 . S
H810 N798 0.984 . S
H811 N798 0.985 . S
C812 C813 1.363 . S
C812 C818 1.398 . S
C812 N820 1.356 . S
C813 C812 1.363 . S
C813 C819 1.363 . S
C814 C815 1.363 . S
C814 C819 1.379 . S
C814 N821 1.356 . S
C815 C814 1.363 . S
C815 C818 1.364 . S
N816 C818 1.334 1_554 S
N816 H828 0.984 . S
N816 H829 0.985 . S
N817 C819 1.356 . S
N817 H822 0.984 . S
N817 H823 0.985 . S
C818 C812 1.398 . S
C818 C815 1.364 . S
C818 N816 1.334 1_556 S
C819 C813 1.363 . S
C819 C814 1.379 . S
C819 N817 1.356 . S
N820 C812 1.356 . S
N820 H826 0.984 . S
N820 H827 0.984 . S
N821 C814 1.356 . S
N821 H824 0.984 . S
N821 H825 0.985 . S
H822 N817 0.984 . S
H823 N817 0.985 . S
H824 N821 0.984 . S
H825 N821 0.985 . S
H826 N820 0.984 . S
H827 N820 0.984 . S
H828 N816 0.984 . S
H829 N816 0.985 . S
C830 C831 1.363 . S
C830 C836 1.379 . S
C830 N838 1.356 . S
C831 C830 1.363 . S
C831 C837 1.363 . S
C832 C833 1.363 . S
C832 C837 1.379 . S
C832 N839 1.356 . S
C833 C832 1.363 . S
C833 C836 1.363 . S
N834 C836 1.356 . S
N834 H846 0.984 . S
N834 H847 0.985 . S
N835 C837 1.356 . S
N835 H840 0.984 . S
N835 H841 0.985 . S
C836 C830 1.379 . S
C836 C833 1.363 . S
C836 N834 1.356 . S
C837 C831 1.363 . S
C837 C832 1.379 . S
C837 N835 1.356 . S
N838 C830 1.356 . S
N838 H844 0.984 . S
N838 H845 0.984 . S
N839 C832 1.356 . S
N839 H842 0.984 . S
N839 H843 0.985 . S
H840 N835 0.984 . S
H841 N835 0.985 . S
H842 N839 0.984 . S
H843 N839 0.985 . S
H844 N838 0.984 . S
H845 N838 0.984 . S
H846 N834 0.984 . S
H847 N834 0.985 . S
C848 C849 1.363 1_565 S
C848 C854 1.379 . S
C848 N856 1.356 . S
C849 C848 1.363 1_545 S
C849 C855 1.363 . S
C850 C851 1.363 1_545 S
C850 C855 1.379 . S
C850 N857 1.356 . S
C851 C850 1.363 1_565 S
C851 C854 1.363 . S
N852 C854 1.356 . S
N852 H864 0.984 . S
N852 H865 0.985 . S
N853 C855 1.356 . S
N853 H858 0.984 . S
N853 H859 0.985 . S
C854 C848 1.379 . S
C854 C851 1.363 . S
C854 N852 1.356 . S
C855 C849 1.363 . S
C855 C850 1.379 . S
C855 N853 1.356 . S
N856 C848 1.356 . S
N856 H862 0.984 . S
N856 H863 0.984 . S
N857 C850 1.356 . S
N857 H860 0.984 . S
N857 H861 0.985 . S
H858 N853 0.984 . S
H859 N853 0.985 . S
H860 N857 0.984 . S
H861 N857 0.985 . S
H862 N856 0.984 . S
H863 N856 0.984 . S
H864 N852 0.984 . S
H865 N852 0.985 . S
C866 C867 1.363 . S
C866 C872 1.379 . S
C866 N874 1.356 . S
C867 C866 1.363 . S
C867 C873 1.363 . S
C868 C869 1.363 . S
C868 C873 1.379 . S
C868 N875 1.356 . S
C869 C868 1.363 . S
C869 C872 1.363 . S
N870 C872 1.356 . S
N870 H882 0.984 . S
N870 H883 0.985 . S
N871 C873 1.356 . S
N871 H876 0.984 . S
N871 H877 0.985 . S
C872 C866 1.379 . S
C872 C869 1.363 . S
C872 N870 1.356 . S
C873 C867 1.363 . S
C873 C868 1.379 . S
C873 N871 1.356 . S
N874 C866 1.356 . S
N874 H880 0.984 . S
N874 H881 0.984 . S
N875 C868 1.356 . S
N875 H878 0.984 . S
N875 H879 0.985 . S
H876 N871 0.984 . S
H877 N871 0.985 . S
H878 N875 0.984 . S
H879 N875 0.985 . S
H880 N874 0.984 . S
H881 N874 0.984 . S
H882 N870 0.984 . S
H883 N870 0.985 . S
C884 C885 1.363 1_565 S
C884 C890 1.379 . S
C884 N892 1.356 . S
C885 C884 1.363 1_545 S
C885 C891 1.363 . S
C886 C887 1.363 . S
C886 C891 1.379 . S
C886 N893 1.356 . S
C887 C886 1.363 . S
C887 C890 1.363 1_545 S
N888 C890 1.356 . S
N888 H900 0.984 . S
N888 H901 0.985 . S
N889 C891 1.356 . S
N889 H894 0.984 . S
N889 H895 0.985 . S
C890 C884 1.379 . S
C890 C887 1.363 1_565 S
C890 N888 1.356 . S
C891 C885 1.363 . S
C891 C886 1.379 . S
C891 N889 1.356 . S
N892 C884 1.356 . S
N892 H898 0.984 . S
N892 H899 0.984 . S
N893 C886 1.356 . S
N893 H896 0.984 . S
N893 H897 0.985 . S
H894 N889 0.984 . S
H895 N889 0.985 . S
H896 N893 0.984 . S
H897 N893 0.985 . S
H898 N892 0.984 . S
H899 N892 0.984 . S
H900 N888 0.984 . S
H901 N888 0.985 . S
C902 C903 1.363 . S
C902 C908 1.379 . S
C902 N910 1.356 . S
C903 C902 1.363 . S
C903 C909 1.363 . S
C904 C905 1.363 . S
C904 C909 1.379 . S
C904 N911 1.356 . S
C905 C904 1.363 . S
C905 C908 1.363 . S
N906 C908 1.356 . S
N906 H918 0.984 . S
N906 H919 0.985 . S
N907 C909 1.356 . S
N907 H912 0.984 . S
N907 H913 0.985 . S
C908 C902 1.379 . S
C908 C905 1.363 . S
C908 N906 1.356 . S
C909 C903 1.363 . S
C909 C904 1.379 . S
C909 N907 1.356 . S
N910 C902 1.356 . S
N910 H916 0.984 . S
N910 H917 0.984 . S
N911 C904 1.356 . S
N911 H914 0.984 . S
N911 H915 0.985 . S
H912 N907 0.984 . S
H913 N907 0.985 . S
H914 N911 0.984 . S
H915 N911 0.985 . S
H916 N910 0.984 . S
H917 N910 0.984 . S
H918 N906 0.984 . S
H919 N906 0.985 . S
C920 C921 1.363 . S
C920 C926 1.379 . S
C920 N928 1.356 . S
C921 C920 1.363 . S
C921 C927 1.363 . S
C922 C923 1.363 . S
C922 C927 1.379 . S
C922 N929 1.356 1_545 S
C923 C922 1.363 . S
C923 C926 1.363 . S
N924 C926 1.356 . S
N924 H936 0.984 . S
N924 H937 0.985 . S
N925 C927 1.356 1_565 S
N925 H930 0.984 . S
N925 H931 0.985 . S
C926 C920 1.379 . S
C926 C923 1.363 . S
C926 N924 1.356 . S
C927 C921 1.363 . S
C927 C922 1.379 . S
C927 N925 1.356 1_545 S
N928 C920 1.356 . S
N928 H934 0.984 . S
N928 H935 0.984 . S
N929 C922 1.356 1_565 S
N929 H932 0.982 1_565 S
N929 H933 0.985 . S
H930 N925 0.984 . S
H931 N925 0.985 . S
H932 N929 0.982 1_545 S
H933 N929 0.985 . S
H934 N928 0.984 . S
H935 N928 0.984 . S
H936 N924 0.984 . S
H937 N924 0.985 . S
C938 C939 1.363 . S
C938 C944 1.379 . S
C938 N946 1.356 . S
C939 C938 1.363 . S
C939 C945 1.363 . S
C940 C941 1.363 . S
C940 C945 1.379 . S
C940 N947 1.356 . S
C941 C940 1.363 . S
C941 C944 1.363 . S
N942 C944 1.356 . S
N942 H954 0.984 . S
N942 H955 0.985 . S
N943 C945 1.356 . S
N943 H948 0.984 . S
N943 H949 0.985 . S
C944 C938 1.379 . S
C944 C941 1.363 . S
C944 N942 1.356 . S
C945 C939 1.363 . S
C945 C940 1.379 . S
C945 N943 1.356 . S
N946 C938 1.356 . S
N946 H952 0.984 . S
N946 H953 0.984 . S
N947 C940 1.356 . S
N947 H950 0.984 . S
N947 H951 0.985 . S
H948 N943 0.984 . S
H949 N943 0.985 . S
H950 N947 0.984 . S
H951 N947 0.985 . S
H952 N946 0.984 . S
H953 N946 0.984 . S
H954 N942 0.984 . S
H955 N942 0.985 . S
C956 C957 1.363 . S
C956 C962 1.379 . S
C956 N964 1.356 . S
C957 C956 1.363 . S
C957 C963 1.363 1_565 S
C958 C959 1.363 1_545 S
C958 C963 1.379 . S
C958 N965 1.356 . S
C959 C958 1.363 1_565 S
C959 C962 1.363 . S
N960 C962 1.356 . S
N960 H972 0.984 . S
N960 H973 0.985 . S
N961 C963 1.356 . S
N961 H966 0.984 . S
N961 H967 0.985 . S
C962 C956 1.379 . S
C962 C959 1.363 . S
C962 N960 1.356 . S
C963 C957 1.363 1_545 S
C963 C958 1.379 . S
C963 N961 1.356 . S
N964 C956 1.356 . S
N964 H970 0.984 . S
N964 H971 0.984 . S
N965 C958 1.356 . S
N965 H968 0.984 . S
N965 H969 0.985 . S
H966 N961 0.984 . S
H967 N961 0.985 . S
H968 N965 0.984 . S
H969 N965 0.985 . S
H970 N964 0.984 . S
H971 N964 0.984 . S
H972 N960 0.984 . S
H973 N960 0.985 . S
C974 C975 1.363 . S
C974 C980 1.379 . S
C974 N982 1.356 . S
C975 C974 1.363 . S
C975 C981 1.363 . S
C976 C977 1.363 . S
C976 C981 1.379 . S
C976 N983 1.356 . S
C977 C976 1.363 . S
C977 C980 1.363 . S
N978 C980 1.356 . S
N978 H990 0.984 . S
N978 H991 0.985 . S
N979 C981 1.356 . S
N979 H984 0.984 . S
N979 H985 0.985 . S
C980 C974 1.379 . S
C980 C977 1.363 . S
C980 N978 1.356 . S
C981 C975 1.363 . S
C981 C976 1.379 . S
C981 N979 1.356 . S
N982 C974 1.356 . S
N982 H988 0.984 . S
N982 H989 0.984 . S
N983 C976 1.356 . S
N983 H986 0.984 . S
N983 H987 0.985 . S
H984 N979 0.984 . S
H985 N979 0.985 . S
H986 N983 0.984 . S
H987 N983 0.985 . S
H988 N982 0.984 . S
H989 N982 0.984 . S
H990 N978 0.984 . S
H991 N978 0.985 . S
C992 C993 1.363 . S
C992 C998 1.379 . S
C992 N1000 1.356 . S
C993 C992 1.363 . S
C993 C999 1.363 1_554 S
C994 C995 1.363 1_556 S
C994 C999 1.379 . S
C994 N1001 1.356 . S
C995 C994 1.363 1_554 S
C995 C998 1.363 . S
N996 C998 1.356 . S
N996 H1008 0.984 1_545 S
N996 H1009 0.985 1_545 S
N997 C999 1.356 . S
N997 H1002 0.984 . S
N997 H1003 0.985 . S
C998 C992 1.379 . S
C998 C995 1.363 . S
C998 N996 1.356 . S
C999 C993 1.363 1_556 S
C999 C994 1.379 . S
C999 N997 1.356 . S
N1000 C992 1.356 . S
N1000 H1006 0.984 . S
N1000 H1007 0.984 . S
N1001 C994 1.356 . S
N1001 H1004 0.984 . S
N1001 H1005 0.985 . S
H1002 N997 0.984 . S
H1003 N997 0.985 . S
H1004 N1001 0.984 . S
H1005 N1001 0.985 . S
H1006 N1000 0.984 . S
H1007 N1000 0.984 . S
H1008 N996 0.984 1_565 S
H1009 N996 0.985 1_565 S
C1010 C1011 1.363 . S
C1010 C1016 1.379 . S
C1010 N1018 1.356 1_554 S
C1011 C1010 1.363 . S
C1011 C1017 1.363 . S
C1012 C1013 1.363 . S
C1012 C1017 1.379 . S
C1012 N1019 1.356 . S
C1013 C1012 1.363 . S
C1013 C1016 1.363 . S
N1014 C1016 1.356 . S
N1014 H1026 0.984 1_554 S
N1014 H1027 0.985 . S
N1015 C1017 1.356 . S
N1015 H1020 0.984 . S
N1015 H1021 0.985 . S
C1016 C1010 1.379 . S
C1016 C1013 1.363 . S
C1016 N1014 1.356 . S
C1017 C1011 1.363 . S
C1017 C1012 1.379 . S
C1017 N1015 1.356 . S
N1018 C1010 1.356 1_556 S
N1018 H1024 0.984 . S
N1018 H1025 0.987 . S
N1019 C1012 1.356 . S
N1019 H1022 0.984 . S
N1019 H1023 0.985 . S
H1020 N1015 0.984 . S
H1021 N1015 0.985 . S
H1022 N1019 0.984 . S
H1023 N1019 0.985 . S
H1024 N1018 0.984 . S
H1025 N1018 0.987 . S
H1026 N1014 0.984 1_556 S
H1027 N1014 0.985 . S
C1028 C1029 1.363 . S
C1028 C1034 1.379 . S
C1028 N1036 1.356 . S
C1029 C1028 1.363 . S
C1029 C1035 1.363 . S
C1030 C1031 1.363 . S
C1030 C1035 1.379 . S
C1030 N1037 1.356 . S
C1031 C1030 1.363 . S
C1031 C1034 1.363 . S
N1032 C1034 1.356 . S
N1032 H1044 0.984 . S
N1032 H1045 0.985 . S
N1033 C1035 1.356 . S
N1033 H1038 0.984 . S
N1033 H1039 0.985 . S
C1034 C1028 1.379 . S
C1034 C1031 1.363 . S
C1034 N1032 1.356 . S
C1035 C1029 1.363 . S
C1035 C1030 1.379 . S
C1035 N1033 1.356 . S
N1036 C1028 1.356 . S
N1036 H1042 0.984 . S
N1036 H1043 0.984 . S
N1037 C1030 1.356 . S
N1037 H1040 0.984 . S
N1037 H1041 0.985 . S
H1038 N1033 0.984 . S
H1039 N1033 0.985 . S
H1040 N1037 0.984 . S
H1041 N1037 0.985 . S
H1042 N1036 0.984 . S
H1043 N1036 0.984 . S
H1044 N1032 0.984 . S
H1045 N1032 0.985 . S
C1046 C1047 1.363 . S
C1046 C1052 1.379 . S
C1046 N1054 1.356 . S
C1047 C1046 1.363 . S
C1047 C1053 1.363 . S
C1048 C1049 1.363 . S
C1048 C1053 1.379 . S
C1048 N1055 1.356 . S
C1049 C1048 1.363 . S
C1049 C1052 1.363 . S
N1050 C1052 1.356 . S
N1050 H1062 0.984 . S
N1050 H1063 0.985 . S
N1051 C1053 1.356 . S
N1051 H1056 0.984 . S
N1051 H1057 0.985 . S
C1052 C1046 1.379 . S
C1052 C1049 1.363 . S
C1052 N1050 1.356 . S
C1053 C1047 1.363 . S
C1053 C1048 1.379 . S
C1053 N1051 1.356 . S
N1054 C1046 1.356 . S
N1054 H1060 0.984 . S
N1054 H1061 0.984 . S
N1055 C1048 1.356 . S
N1055 H1058 0.984 . S
N1055 H1059 0.985 . S
H1056 N1051 0.984 . S
H1057 N1051 0.985 . S
H1058 N1055 0.984 . S
H1059 N1055 0.985 . S
H1060 N1054 0.984 . S
H1061 N1054 0.984 . S
H1062 N1050 0.984 . S
H1063 N1050 0.985 . S
C1064 C1065 1.363 . S
C1064 C1070 1.379 . S
C1064 N1072 1.356 . S
C1065 C1064 1.363 . S
C1065 C1071 1.363 . S
C1066 C1067 1.363 . S
C1066 C1071 1.379 . S
C1066 N1073 1.356 . S
C1067 C1066 1.363 . S
C1067 C1070 1.363 . S
N1068 C1070 1.356 . S
N1068 H1080 0.984 . S
N1068 H1081 0.985 . S
N1069 C1071 1.356 . S
N1069 H1074 0.984 . S
N1069 H1075 0.985 . S
C1070 C1064 1.379 . S
C1070 C1067 1.363 . S
C1070 N1068 1.356 . S
C1071 C1065 1.363 . S
C1071 C1066 1.379 . S
C1071 N1069 1.356 . S
N1072 C1064 1.356 . S
N1072 H1078 0.984 . S
N1072 H1079 0.984 . S
N1073 C1066 1.356 . S
N1073 H1076 0.984 . S
N1073 H1077 0.985 . S
H1074 N1069 0.984 . S
H1075 N1069 0.985 . S
H1076 N1073 0.984 . S
H1077 N1073 0.985 . S
H1078 N1072 0.984 . S
H1079 N1072 0.984 . S
H1080 N1068 0.984 . S
H1081 N1068 0.985 . S
C1082 C1083 1.363 . S
C1082 C1088 1.379 . S
C1082 N1090 1.356 . S
C1083 C1082 1.363 . S
C1083 C1089 1.363 . S
C1084 C1085 1.363 . S
C1084 C1089 1.379 . S
C1084 N1091 1.356 1_565 S
C1085 C1084 1.363 . S
C1085 C1088 1.363 . S
N1086 C1088 1.356 . S
N1086 H1098 0.984 . S
N1086 H1099 0.985 . S
N1087 C1089 1.356 . S
N1087 H1092 0.984 . S
N1087 H1093 0.985 . S
C1088 C1082 1.379 . S
C1088 C1085 1.363 . S
C1088 N1086 1.356 . S
C1089 C1083 1.363 . S
C1089 C1084 1.379 . S
C1089 N1087 1.356 . S
N1090 C1082 1.356 . S
N1090 H1096 0.984 . S
N1090 H1097 0.984 . S
N1091 C1084 1.356 1_545 S
N1091 H1094 0.984 . S
N1091 H1095 0.985 . S
H1092 N1087 0.984 . S
H1093 N1087 0.985 . S
H1094 N1091 0.984 . S
H1095 N1091 0.985 . S
H1096 N1090 0.984 . S
H1097 N1090 0.984 . S
H1098 N1086 0.984 . S
H1099 N1086 0.985 . S
C1100 C1101 1.363 . S
C1100 C1106 1.379 . S
C1100 N1108 1.356 . S
C1101 C1100 1.363 . S
C1101 C1107 1.363 . S
C1102 C1103 1.363 . S
C1102 C1107 1.379 . S
C1102 N1109 1.356 . S
C1103 C1102 1.363 . S
C1103 C1106 1.363 . S
N1104 C1106 1.356 . S
N1104 H1116 0.984 . S
N1104 H1117 0.985 . S
N1105 C1107 1.356 . S
N1105 H1110 0.984 . S
N1105 H1111 0.985 . S
C1106 C1100 1.379 . S
C1106 C1103 1.363 . S
C1106 N1104 1.356 . S
C1107 C1101 1.363 . S
C1107 C1102 1.379 . S
C1107 N1105 1.356 . S
N1108 C1100 1.356 . S
N1108 H1114 0.984 . S
N1108 H1115 0.984 . S
N1109 C1102 1.356 . S
N1109 H1112 0.984 . S
N1109 H1113 0.985 . S
H1110 N1105 0.984 . S
H1111 N1105 0.985 . S
H1112 N1109 0.984 . S
H1113 N1109 0.985 . S
H1114 N1108 0.984 . S
H1115 N1108 0.984 . S
H1116 N1104 0.984 . S
H1117 N1104 0.985 . S
C1118 C1119 1.363 . S
C1118 C1124 1.379 . S
C1118 N1126 1.356 . S
C1119 C1118 1.363 . S
C1119 C1125 1.363 . S
C1120 C1121 1.363 . S
C1120 C1125 1.379 . S
C1120 N1127 1.356 . S
C1121 C1120 1.363 . S
C1121 C1124 1.363 . S
N1122 C1124 1.356 . S
N1122 H1134 0.984 . S
N1122 H1135 0.985 . S
N1123 C1125 1.356 . S
N1123 H1128 0.984 . S
N1123 H1129 0.985 . S
C1124 C1118 1.379 . S
C1124 C1121 1.363 . S
C1124 N1122 1.356 . S
C1125 C1119 1.363 . S
C1125 C1120 1.379 . S
C1125 N1123 1.356 . S
N1126 C1118 1.356 . S
N1126 H1132 0.984 . S
N1126 H1133 0.984 . S
N1127 C1120 1.356 . S
N1127 H1130 0.984 . S
N1127 H1131 0.985 . S
H1128 N1123 0.984 . S
H1129 N1123 0.985 . S
H1130 N1127 0.984 . S
H1131 N1127 0.985 . S
H1132 N1126 0.984 . S
H1133 N1126 0.984 . S
H1134 N1122 0.984 . S
H1135 N1122 0.985 . S
C1136 C1137 1.363 . S
C1136 C1142 1.379 . S
C1136 N1144 1.356 . S
C1137 C1136 1.363 . S
C1137 C1143 1.363 . S
C1138 C1139 1.363 . S
C1138 C1143 1.379 . S
C1138 N1145 1.356 . S
C1139 C1138 1.363 . S
C1139 C1142 1.363 . S
N1140 C1142 1.356 1_554 S
N1140 H1152 0.984 . S
N1140 H1153 0.985 . S
N1141 C1143 1.356 . S
N1141 H1146 0.984 . S
N1141 H1147 0.985 . S
C1142 C1136 1.379 . S
C1142 C1139 1.363 . S
C1142 N1140 1.356 1_556 S
C1143 C1137 1.363 . S
C1143 C1138 1.379 . S
C1143 N1141 1.356 . S
N1144 C1136 1.356 . S
N1144 H1150 0.984 . S
N1144 H1151 0.984 . S
N1145 C1138 1.356 . S
N1145 H1148 0.984 . S
N1145 H1149 0.985 . S
H1146 N1141 0.984 . S
H1147 N1141 0.985 . S
H1148 N1145 0.984 . S
H1149 N1145 0.985 . S
H1150 N1144 0.984 . S
H1151 N1144 0.984 . S
H1152 N1140 0.984 . S
H1153 N1140 0.985 . S
C1154 C1155 1.363 . S
C1154 C1160 1.379 . S
C1154 N1162 1.356 . S
C1155 C1154 1.363 . S
C1155 C1161 1.363 . S
C1156 C1157 1.363 . S
C1156 C1161 1.379 . S
C1156 N1163 1.356 . S
C1157 C1156 1.363 . S
C1157 C1160 1.363 . S
N1158 C1160 1.356 . S
N1158 H1170 0.984 . S
N1158 H1171 0.985 . S
N1159 C1161 1.356 . S
N1159 H1164 0.984 . S
N1159 H1165 0.985 . S
C1160 C1154 1.379 . S
C1160 C1157 1.363 . S
C1160 N1158 1.356 . S
C1161 C1155 1.363 . S
C1161 C1156 1.379 . S
C1161 N1159 1.356 . S
N1162 C1154 1.356 . S
N1162 H1168 0.984 . S
N1162 H1169 0.984 . S
N1163 C1156 1.356 . S
N1163 H1166 0.984 . S
N1163 H1167 0.985 . S
H1164 N1159 0.984 . S
H1165 N1159 0.985 . S
H1166 N1163 0.984 . S
H1167 N1163 0.985 . S
H1168 N1162 0.984 . S
H1169 N1162 0.984 . S
H1170 N1158 0.984 . S
H1171 N1158 0.985 . S
C1172 C1173 1.363 . S
C1172 C1178 1.379 . S
C1172 N1180 1.356 . S
C1173 C1172 1.363 . S
C1173 C1179 1.363 . S
C1174 C1175 1.363 . S
C1174 C1179 1.379 . S
C1174 N1181 1.356 . S
C1175 C1174 1.363 . S
C1175 C1178 1.363 . S
N1176 C1178 1.356 . S
N1176 H1188 0.984 . S
N1176 H1189 0.985 . S
N1177 C1179 1.356 . S
N1177 H1182 0.984 . S
N1177 H1183 0.985 . S
C1178 C1172 1.379 . S
C1178 C1175 1.363 . S
C1178 N1176 1.356 . S
C1179 C1173 1.363 . S
C1179 C1174 1.379 . S
C1179 N1177 1.356 . S
N1180 C1172 1.356 . S
N1180 H1186 0.984 . S
N1180 H1187 0.984 . S
N1181 C1174 1.356 . S
N1181 H1184 0.984 . S
N1181 H1185 0.985 . S
H1182 N1177 0.984 . S
H1183 N1177 0.985 . S
H1184 N1181 0.984 . S
H1185 N1181 0.985 . S
H1186 N1180 0.984 . S
H1187 N1180 0.984 . S
H1188 N1176 0.984 . S
H1189 N1176 0.985 . S
C1190 C1191 1.363 . S
C1190 C1196 1.379 . S
C1190 N1198 1.356 . S
C1191 C1190 1.363 . S
C1191 C1197 1.363 . S
C1192 C1193 1.363 . S
C1192 C1197 1.379 . S
C1192 N1199 1.356 . S
C1193 C1192 1.363 . S
C1193 C1196 1.363 . S
N1194 C1196 1.356 . S
N1194 H1206 0.984 . S
N1194 H1207 0.985 . S
N1195 C1197 1.356 . S
N1195 H1200 0.984 . S
N1195 H1201 0.985 . S
C1196 C1190 1.379 . S
C1196 C1193 1.363 . S
C1196 N1194 1.356 . S
C1197 C1191 1.363 . S
C1197 C1192 1.379 . S
C1197 N1195 1.356 . S
N1198 C1190 1.356 . S
N1198 H1204 0.984 . S
N1198 H1205 0.984 . S
N1199 C1192 1.356 . S
N1199 H1202 0.984 . S
N1199 H1203 0.985 . S
H1200 N1195 0.984 . S
H1201 N1195 0.985 . S
H1202 N1199 0.984 . S
H1203 N1199 0.985 . S
H1204 N1198 0.984 . S
H1205 N1198 0.984 . S
H1206 N1194 0.984 . S
H1207 N1194 0.985 . S
C1208 C1209 1.363 . S
C1208 C1214 1.379 . S
C1208 N1216 1.356 . S
C1209 C1208 1.363 . S
C1209 C1215 1.363 . S
C1210 C1211 1.363 . S
C1210 C1215 1.379 . S
C1210 N1217 1.356 . S
C1211 C1210 1.363 . S
C1211 C1214 1.363 . S
N1212 C1214 1.356 . S
N1212 H1224 0.984 . S
N1212 H1225 0.985 . S
N1213 C1215 1.356 1_655 S
N1213 H1218 0.984 . S
N1213 H1219 0.985 . S
C1214 C1208 1.379 . S
C1214 C1211 1.363 . S
C1214 N1212 1.356 . S
C1215 C1209 1.363 . S
C1215 C1210 1.379 . S
C1215 N1213 1.356 1_455 S
N1216 C1208 1.356 . S
N1216 H1222 0.984 . S
N1216 H1223 0.984 . S
N1217 C1210 1.356 . S
N1217 H1220 0.984 . S
N1217 H1221 0.985 1_455 S
H1218 N1213 0.984 . S
H1219 N1213 0.985 . S
H1220 N1217 0.984 . S
H1221 N1217 0.985 1_655 S
H1222 N1216 0.984 . S
H1223 N1216 0.984 . S
H1224 N1212 0.984 . S
H1225 N1212 0.985 . S
C1226 C1227 1.363 . S
C1226 C1232 1.379 . S
C1226 N1234 1.356 . S
C1227 C1226 1.363 . S
C1227 C1233 1.363 . S
C1228 C1229 1.363 . S
C1228 C1233 1.379 . S
C1228 N1235 1.356 . S
C1229 C1228 1.363 . S
C1229 C1232 1.363 . S
N1230 C1232 1.356 . S
N1230 H1242 0.984 . S
N1230 H1243 0.985 . S
N1231 C1233 1.356 . S
N1231 H1236 0.984 . S
N1231 H1237 0.985 . S
C1232 C1226 1.379 . S
C1232 C1229 1.363 . S
C1232 N1230 1.356 . S
C1233 C1227 1.363 . S
C1233 C1228 1.379 . S
C1233 N1231 1.356 . S
N1234 C1226 1.356 . S
N1234 H1240 0.984 . S
N1234 H1241 0.984 . S
N1235 C1228 1.356 . S
N1235 H1238 0.984 . S
N1235 H1239 0.985 . S
H1236 N1231 0.984 . S
H1237 N1231 0.985 . S
H1238 N1235 0.984 . S
H1239 N1235 0.985 . S
H1240 N1234 0.984 . S
H1241 N1234 0.984 . S
H1242 N1230 0.984 . S
H1243 N1230 0.985 . S
C1244 C1245 1.363 . S
C1244 C1250 1.379 . S
C1244 N1252 1.356 . S
C1245 C1244 1.363 . S
C1245 C1251 1.363 . S
C1246 C1247 1.363 . S
C1246 C1251 1.379 . S
C1246 N1253 1.356 . S
C1247 C1246 1.363 . S
C1247 C1250 1.363 . S
N1248 C1250 1.356 . S
N1248 H1260 0.984 . S
N1248 H1261 0.985 . S
N1249 C1251 1.356 . S
N1249 H1254 0.984 . S
N1249 H1255 0.985 . S
C1250 C1244 1.379 . S
C1250 C1247 1.363 . S
C1250 N1248 1.356 . S
C1251 C1245 1.363 . S
C1251 C1246 1.379 . S
C1251 N1249 1.356 . S
N1252 C1244 1.356 . S
N1252 H1258 0.984 . S
N1252 H1259 0.984 . S
N1253 C1246 1.356 . S
N1253 H1256 0.984 . S
N1253 H1257 0.985 . S
H1254 N1249 0.984 . S
H1255 N1249 0.985 . S
H1256 N1253 0.984 . S
H1257 N1253 0.985 . S
H1258 N1252 0.984 . S
H1259 N1252 0.984 . S
H1260 N1248 0.984 . S
H1261 N1248 0.985 . S
C1262 C1263 1.363 . S
C1262 C1268 1.379 . S
C1262 N1270 1.356 . S
C1263 C1262 1.363 . S
C1263 C1269 1.363 . S
C1264 C1265 1.363 . S
C1264 C1269 1.379 . S
C1264 N1271 1.356 . S
C1265 C1264 1.363 . S
C1265 C1268 1.363 . S
N1266 C1268 1.356 . S
N1266 H1278 0.984 . S
N1266 H1279 0.985 . S
N1267 C1269 1.356 . S
N1267 H1272 0.984 . S
N1267 H1273 0.985 . S
C1268 C1262 1.379 . S
C1268 C1265 1.363 . S
C1268 N1266 1.356 . S
C1269 C1263 1.363 . S
C1269 C1264 1.379 . S
C1269 N1267 1.356 . S
N1270 C1262 1.356 . S
N1270 H1276 0.984 . S
N1270 H1277 0.984 . S
N1271 C1264 1.356 . S
N1271 H1274 0.984 . S
N1271 H1275 0.985 . S
H1272 N1267 0.984 . S
H1273 N1267 0.985 . S
H1274 N1271 0.984 . S
H1275 N1271 0.985 . S
H1276 N1270 0.984 . S
H1277 N1270 0.984 . S
H1278 N1266 0.984 . S
H1279 N1266 0.985 . S
C1280 C1281 1.363 . S
C1280 C1286 1.379 . S
C1280 N1288 1.356 1_545 S
C1281 C1280 1.363 . S
C1281 C1287 1.363 . S
C1282 C1283 1.363 . S
C1282 C1287 1.379 . S
C1282 N1289 1.356 1_655 S
C1283 C1282 1.363 . S
C1283 C1286 1.363 . S
N1284 C1286 1.356 . S
N1284 H1296 0.984 1_545 S
N1284 H1297 0.985 . S
N1285 C1287 1.356 . S
N1285 H1290 0.984 . S
N1285 H1291 0.985 . S
C1286 C1280 1.379 . S
C1286 C1283 1.363 . S
C1286 N1284 1.356 . S
C1287 C1281 1.363 . S
C1287 C1282 1.379 . S
C1287 N1285 1.356 . S
N1288 C1280 1.356 1_565 S
N1288 H1294 0.984 . S
N1288 H1295 0.984 . S
N1289 C1282 1.356 1_455 S
N1289 H1292 0.984 . S
N1289 H1293 0.985 . S
H1290 N1285 0.984 . S
H1291 N1285 0.985 . S
H1292 N1289 0.984 . S
H1293 N1289 0.985 . S
H1294 N1288 0.984 . S
H1295 N1288 0.984 . S
H1296 N1284 0.984 1_565 S
H1297 N1284 0.985 . S
C1298 C1299 1.363 . S
C1298 C1304 1.379 . S
C1298 N1306 1.356 . S
C1299 C1298 1.363 . S
C1299 C1305 1.363 . S
C1300 C1301 1.363 . S
C1300 C1305 1.379 . S
C1300 N1307 1.356 . S
C1301 C1300 1.363 . S
C1301 C1304 1.363 . S
N1302 C1304 1.356 . S
N1302 H1314 0.984 . S
N1302 H1315 0.985 . S
N1303 C1305 1.356 . S
N1303 H1308 0.984 . S
N1303 H1309 0.985 . S
C1304 C1298 1.379 . S
C1304 C1301 1.363 . S
C1304 N1302 1.356 . S
C1305 C1299 1.363 . S
C1305 C1300 1.379 . S
C1305 N1303 1.356 . S
N1306 C1298 1.356 . S
N1306 H1312 0.984 . S
N1306 H1313 0.984 . S
N1307 C1300 1.356 . S
N1307 H1310 0.984 . S
N1307 H1311 0.985 . S
H1308 N1303 0.984 . S
H1309 N1303 0.985 . S
H1310 N1307 0.984 . S
H1311 N1307 0.985 . S
H1312 N1306 0.984 . S
H1313 N1306 0.984 . S
H1314 N1302 0.984 . S
H1315 N1302 0.985 . S
C1316 C1317 1.363 1_565 S
C1316 C1322 1.379 . S
C1316 N1324 1.356 . S
C1317 C1316 1.363 1_545 S
C1317 C1323 1.363 . S
C1318 C1319 1.363 1_545 S
C1318 C1323 1.379 . S
C1318 N1325 1.356 . S
C1319 C1318 1.363 1_565 S
C1319 C1322 1.363 . S
N1320 C1322 1.356 . S
N1320 H1332 0.984 . S
N1320 H1333 0.985 . S
N1321 C1323 1.356 . S
N1321 H1326 0.984 . S
N1321 H1327 0.985 . S
C1322 C1316 1.379 . S
C1322 C1319 1.363 . S
C1322 N1320 1.356 . S
C1323 C1317 1.363 . S
C1323 C1318 1.379 . S
C1323 N1321 1.356 . S
N1324 C1316 1.356 . S
N1324 H1330 0.984 . S
N1324 H1331 0.984 . S
N1325 C1318 1.356 . S
N1325 H1328 0.984 . S
N1325 H1329 0.985 . S
H1326 N1321 0.984 . S
H1327 N1321 0.985 . S
H1328 N1325 0.984 . S
H1329 N1325 0.985 . S
H1330 N1324 0.984 . S
H1331 N1324 0.984 . S
H1332 N1320 0.984 . S
H1333 N1320 0.985 . S
C1334 C1335 1.363 . S
C1334 C1340 1.379 . S
C1334 N1342 1.356 . S
C1335 C1334 1.363 . S
C1335 C1341 1.363 . S
C1336 C1337 1.363 . S
C1336 C1341 1.379 . S
C1336 N1343 1.356 . S
C1337 C1336 1.363 . S
C1337 C1340 1.363 . S
N1338 C1340 1.356 . S
N1338 H1350 0.984 . S
N1338 H1351 0.985 . S
N1339 C1341 1.356 . S
N1339 H1344 0.984 . S
N1339 H1345 0.985 . S
C1340 C1334 1.379 . S
C1340 C1337 1.363 . S
C1340 N1338 1.356 . S
C1341 C1335 1.363 . S
C1341 C1336 1.379 . S
C1341 N1339 1.356 . S
N1342 C1334 1.356 . S
N1342 H1348 0.984 . S
N1342 H1349 0.984 . S
N1343 C1336 1.356 . S
N1343 H1346 0.984 . S
N1343 H1347 0.985 . S
H1344 N1339 0.984 . S
H1345 N1339 0.985 . S
H1346 N1343 0.984 . S
H1347 N1343 0.985 . S
H1348 N1342 0.984 . S
H1349 N1342 0.984 . S
H1350 N1338 0.984 . S
H1351 N1338 0.985 . S
C1352 C1353 1.363 . S
C1352 C1358 1.379 . S
C1352 N1360 1.356 . S
C1353 C1352 1.363 . S
C1353 C1359 1.363 1_545 S
C1354 C1355 1.363 . S
C1354 C1359 1.379 . S
C1354 N1361 1.356 . S
C1355 C1354 1.363 . S
C1355 C1358 1.363 1_565 S
N1356 C1358 1.356 . S
N1356 H1368 0.984 . S
N1356 H1369 0.985 . S
N1357 C1359 1.356 . S
N1357 H1362 0.984 . S
N1357 H1363 0.985 . S
C1358 C1352 1.379 . S
C1358 C1355 1.363 1_545 S
C1358 N1356 1.356 . S
C1359 C1353 1.363 1_565 S
C1359 C1354 1.379 . S
C1359 N1357 1.356 . S
N1360 C1352 1.356 . S
N1360 H1366 0.984 . S
N1360 H1367 0.984 . S
N1361 C1354 1.356 . S
N1361 H1364 0.984 . S
N1361 H1365 0.985 . S
H1362 N1357 0.984 . S
H1363 N1357 0.985 . S
H1364 N1361 0.984 . S
H1365 N1361 0.985 . S
H1366 N1360 0.984 . S
H1367 N1360 0.984 . S
H1368 N1356 0.984 . S
H1369 N1356 0.985 . S
C1370 C1371 1.363 . S
C1370 C1376 1.379 . S
C1370 N1378 1.356 . S
C1371 C1370 1.363 . S
C1371 C1377 1.363 . S
C1372 C1373 1.363 . S
C1372 C1377 1.379 . S
C1372 N1379 1.356 . S
C1373 C1372 1.363 . S
C1373 C1376 1.363 . S
N1374 C1376 1.356 . S
N1374 H1386 0.984 . S
N1374 H1387 0.985 . S
N1375 C1377 1.356 . S
N1375 H1380 0.984 . S
N1375 H1381 0.985 . S
C1376 C1370 1.379 . S
C1376 C1373 1.363 . S
C1376 N1374 1.356 . S
C1377 C1371 1.363 . S
C1377 C1372 1.379 . S
C1377 N1375 1.356 . S
N1378 C1370 1.356 . S
N1378 H1384 0.984 . S
N1378 H1385 0.984 . S
N1379 C1372 1.356 . S
N1379 H1382 0.984 . S
N1379 H1383 0.985 . S
H1380 N1375 0.984 . S
H1381 N1375 0.985 . S
H1382 N1379 0.984 . S
H1383 N1379 0.985 . S
H1384 N1378 0.984 . S
H1385 N1378 0.984 . S
H1386 N1374 0.984 . S
H1387 N1374 0.985 . S
C1388 C1389 1.363 1_565 S
C1388 C1394 1.379 1_565 S
C1388 N1396 1.356 . S
C1389 C1388 1.363 1_545 S
C1389 C1395 1.363 . S
C1390 C1391 1.363 . S
C1390 C1395 1.379 . S
C1390 N1397 1.356 . S
C1391 C1390 1.363 . S
C1391 C1394 1.363 . S
N1392 C1394 1.356 1_565 S
N1392 H1404 0.984 . S
N1392 H1405 0.985 1_565 S
N1393 C1395 1.356 . S
N1393 H1398 0.984 . S
N1393 H1399 0.985 . S
C1394 C1388 1.379 1_545 S
C1394 C1391 1.363 . S
C1394 N1392 1.356 1_545 S
C1395 C1389 1.363 . S
C1395 C1390 1.379 . S
C1395 N1393 1.356 . S
N1396 C1388 1.356 . S
N1396 H1402 0.984 . S
N1396 H1403 0.984 . S
N1397 C1390 1.356 . S
N1397 H1400 0.984 . S
N1397 H1401 0.985 . S
H1398 N1393 0.984 . S
H1399 N1393 0.985 . S
H1400 N1397 0.984 . S
H1401 N1397 0.985 . S
H1402 N1396 0.984 . S
H1403 N1396 0.984 . S
H1404 N1392 0.984 . S
H1405 N1392 0.985 1_545 S
C1406 C1407 1.363 . S
C1406 C1412 1.379 . S
C1406 N1414 1.356 . S
C1407 C1406 1.363 . S
C1407 C1413 1.363 . S
C1408 C1409 1.363 . S
C1408 C1413 1.379 . S
C1408 N1415 1.356 . S
C1409 C1408 1.363 . S
C1409 C1412 1.363 . S
N1410 C1412 1.356 . S
N1410 H1422 0.984 . S
N1410 H1423 0.985 . S
N1411 C1413 1.356 . S
N1411 H1416 0.984 . S
N1411 H1417 0.985 . S
C1412 C1406 1.379 . S
C1412 C1409 1.363 . S
C1412 N1410 1.356 . S
C1413 C1407 1.363 . S
C1413 C1408 1.379 . S
C1413 N1411 1.356 . S
N1414 C1406 1.356 . S
N1414 H1420 0.984 . S
N1414 H1421 0.984 . S
N1415 C1408 1.356 . S
N1415 H1418 0.984 . S
N1415 H1419 0.985 . S
H1416 N1411 0.984 . S
H1417 N1411 0.985 . S
H1418 N1415 0.984 . S
H1419 N1415 0.985 . S
H1420 N1414 0.984 . S
H1421 N1414 0.984 . S
H1422 N1410 0.984 . S
H1423 N1410 0.985 . S
C1424 C1425 1.363 . S
C1424 C1430 1.379 . S
C1424 N1432 1.356 . S
C1425 C1424 1.363 . S
C1425 C1431 1.359 1_554 S
C1426 C1427 1.363 . S
C1426 C1431 1.376 1_554 S
C1426 N1433 1.356 . S
C1427 C1426 1.363 . S
C1427 C1430 1.363 . S
N1428 C1430 1.356 . S
N1428 H1440 0.984 . S
N1428 H1441 0.985 . S
N1429 C1431 1.362 . S
N1429 H1434 0.984 . S
N1429 H1435 0.985 . S
C1430 C1424 1.379 . S
C1430 C1427 1.363 . S
C1430 N1428 1.356 . S
C1431 C1425 1.359 1_556 S
C1431 C1426 1.376 1_556 S
C1431 N1429 1.362 . S
N1432 C1424 1.356 . S
N1432 H1438 0.984 . S
N1432 H1439 0.984 . S
N1433 C1426 1.356 . S
N1433 H1436 0.984 . S
N1433 H1437 0.985 1_554 S
H1434 N1429 0.984 . S
H1435 N1429 0.985 . S
H1436 N1433 0.984 . S
H1437 N1433 0.985 1_556 S
H1438 N1432 0.984 . S
H1439 N1432 0.984 . S
H1440 N1428 0.984 . S
H1441 N1428 0.985 . S
C1442 C1443 1.363 1_556 S
C1442 C1448 1.379 . S
C1442 N1450 1.356 . S
C1443 C1442 1.363 1_554 S
C1443 C1449 1.363 . S
C1444 C1445 1.355 1_554 S
C1444 C1449 1.379 . S
C1444 N1451 1.356 . S
C1445 C1444 1.355 1_556 S
C1445 C1448 1.367 . S
N1446 C1448 1.356 . S
N1446 H1458 0.984 . S
N1446 H1459 0.985 . S
N1447 C1449 1.356 . S
N1447 H1452 0.984 . S
N1447 H1453 0.985 . S
C1448 C1442 1.379 . S
C1448 C1445 1.367 . S
C1448 N1446 1.356 . S
C1449 C1443 1.363 . S
C1449 C1444 1.379 . S
C1449 N1447 1.356 . S
N1450 C1442 1.356 . S
N1450 H1456 0.984 . S
N1450 H1457 0.984 1_556 S
N1451 C1444 1.356 . S
N1451 H1454 0.984 . S
N1451 H1455 0.985 . S
H1452 N1447 0.984 . S
H1453 N1447 0.985 . S
H1454 N1451 0.984 . S
H1455 N1451 0.985 . S
H1456 N1450 0.984 . S
H1457 N1450 0.984 1_554 S
H1458 N1446 0.984 . S
H1459 N1446 0.985 . S
C1460 C1461 1.363 . S
C1460 C1466 1.379 . S
C1460 N1468 1.356 . S
C1461 C1460 1.363 . S
C1461 C1467 1.363 . S
C1462 C1463 1.363 . S
C1462 C1467 1.379 . S
C1462 N1469 1.356 . S
C1463 C1462 1.363 . S
C1463 C1466 1.363 . S
N1464 C1466 1.356 . S
N1464 H1476 0.984 . S
N1464 H1477 0.985 . S
N1465 C1467 1.356 . S
N1465 H1470 0.984 . S
N1465 H1471 0.985 . S
C1466 C1460 1.379 . S
C1466 C1463 1.363 . S
C1466 N1464 1.356 . S
C1467 C1461 1.363 . S
C1467 C1462 1.379 . S
C1467 N1465 1.356 . S
N1468 C1460 1.356 . S
N1468 H1474 0.984 . S
N1468 H1475 0.984 . S
N1469 C1462 1.356 . S
N1469 H1472 0.984 . S
N1469 H1473 0.985 . S
H1470 N1465 0.984 . S
H1471 N1465 0.985 . S
H1472 N1469 0.984 . S
H1473 N1469 0.985 . S
H1474 N1468 0.984 . S
H1475 N1468 0.984 . S
H1476 N1464 0.984 . S
H1477 N1464 0.985 . S
C1478 C1479 1.363 . S
C1478 C1484 1.379 . S
C1478 N1486 1.356 . S
C1479 C1478 1.363 . S
C1479 C1485 1.363 . S
C1480 C1481 1.363 . S
C1480 C1485 1.379 . S
C1480 N1487 1.356 . S
C1481 C1480 1.363 . S
C1481 C1484 1.363 . S
N1482 C1484 1.356 . S
N1482 H1494 0.984 . S
N1482 H1495 0.985 . S
N1483 C1485 1.356 . S
N1483 H1488 0.984 . S
N1483 H1489 0.985 . S
C1484 C1478 1.379 . S
C1484 C1481 1.363 . S
C1484 N1482 1.356 . S
C1485 C1479 1.363 . S
C1485 C1480 1.379 . S
C1485 N1483 1.356 . S
N1486 C1478 1.356 . S
N1486 H1492 0.984 . S
N1486 H1493 0.984 . S
N1487 C1480 1.356 . S
N1487 H1490 0.984 . S
N1487 H1491 0.985 . S
H1488 N1483 0.984 . S
H1489 N1483 0.985 . S
H1490 N1487 0.984 . S
H1491 N1487 0.985 . S
H1492 N1486 0.984 . S
H1493 N1486 0.984 . S
H1494 N1482 0.984 . S
H1495 N1482 0.985 . S
C1496 C1497 1.363 . S
C1496 C1502 1.379 . S
C1496 N1504 1.356 . S
C1497 C1496 1.363 . S
C1497 C1503 1.363 . S
C1498 C1499 1.363 . S
C1498 C1503 1.379 . S
C1498 N1505 1.356 . S
C1499 C1498 1.363 . S
C1499 C1502 1.363 . S
N1500 C1502 1.356 . S
N1500 H1512 0.984 . S
N1500 H1513 0.985 . S
N1501 C1503 1.356 . S
N1501 H1506 0.984 . S
N1501 H1507 0.985 . S
C1502 C1496 1.379 . S
C1502 C1499 1.363 . S
C1502 N1500 1.356 . S
C1503 C1497 1.363 . S
C1503 C1498 1.379 . S
C1503 N1501 1.356 . S
N1504 C1496 1.356 . S
N1504 H1510 0.984 . S
N1504 H1511 0.984 . S
N1505 C1498 1.356 . S
N1505 H1508 0.984 . S
N1505 H1509 0.985 . S
H1506 N1501 0.984 . S
H1507 N1501 0.985 . S
H1508 N1505 0.984 . S
H1509 N1505 0.985 . S
H1510 N1504 0.984 . S
H1511 N1504 0.984 . S
H1512 N1500 0.984 . S
H1513 N1500 0.985 . S
C1514 C1515 1.363 . S
C1514 C1520 1.379 . S
C1514 N1522 1.356 . S
C1515 C1514 1.363 . S
C1515 C1521 1.363 . S
C1516 C1517 1.363 . S
C1516 C1521 1.379 . S
C1516 N1523 1.356 . S
C1517 C1516 1.363 . S
C1517 C1520 1.363 . S
N1518 C1520 1.356 . S
N1518 H1530 0.984 . S
N1518 H1531 0.985 . S
N1519 C1521 1.356 . S
N1519 H1524 0.984 . S
N1519 H1525 0.985 . S
C1520 C1514 1.379 . S
C1520 C1517 1.363 . S
C1520 N1518 1.356 . S
C1521 C1515 1.363 . S
C1521 C1516 1.379 . S
C1521 N1519 1.356 . S
N1522 C1514 1.356 . S
N1522 H1528 0.984 . S
N1522 H1529 0.984 . S
N1523 C1516 1.356 . S
N1523 H1526 0.984 . S
N1523 H1527 0.985 . S
H1524 N1519 0.984 . S
H1525 N1519 0.985 . S
H1526 N1523 0.984 . S
H1527 N1523 0.985 . S
H1528 N1522 0.984 . S
H1529 N1522 0.984 . S
H1530 N1518 0.984 . S
H1531 N1518 0.985 . S
C1532 C1533 1.363 . S
C1532 C1538 1.379 . S
C1532 N1540 1.356 . S
C1533 C1532 1.363 . S
C1533 C1539 1.363 . S
C1534 C1535 1.363 . S
C1534 C1539 1.379 . S
C1534 N1541 1.356 . S
C1535 C1534 1.363 . S
C1535 C1538 1.363 . S
N1536 C1538 1.356 . S
N1536 H1548 0.984 . S
N1536 H1549 0.985 . S
N1537 C1539 1.356 . S
N1537 H1542 0.984 . S
N1537 H1543 0.985 . S
C1538 C1532 1.379 . S
C1538 C1535 1.363 . S
C1538 N1536 1.356 . S
C1539 C1533 1.363 . S
C1539 C1534 1.379 . S
C1539 N1537 1.356 . S
N1540 C1532 1.356 . S
N1540 H1546 0.984 . S
N1540 H1547 0.984 . S
N1541 C1534 1.356 . S
N1541 H1544 0.984 . S
N1541 H1545 0.985 . S
H1542 N1537 0.984 . S
H1543 N1537 0.985 . S
H1544 N1541 0.984 . S
H1545 N1541 0.985 . S
H1546 N1540 0.984 . S
H1547 N1540 0.984 . S
H1548 N1536 0.984 . S
H1549 N1536 0.985 . S
C1550 C1551 1.363 . S
C1550 C1556 1.379 . S
C1550 N1558 1.356 . S
C1551 C1550 1.363 . S
C1551 C1557 1.363 . S
C1552 C1553 1.363 . S
C1552 C1557 1.379 . S
C1552 N1559 1.356 . S
C1553 C1552 1.363 . S
C1553 C1556 1.363 . S
N1554 C1556 1.356 . S
N1554 H1566 0.984 . S
N1554 H1567 0.985 . S
N1555 C1557 1.356 . S
N1555 H1560 0.984 . S
N1555 H1561 0.985 . S
C1556 C1550 1.379 . S
C1556 C1553 1.363 . S
C1556 N1554 1.356 . S
C1557 C1551 1.363 . S
C1557 C1552 1.379 . S
C1557 N1555 1.356 . S
N1558 C1550 1.356 . S
N1558 H1564 0.984 . S
N1558 H1565 0.984 . S
N1559 C1552 1.356 . S
N1559 H1562 0.984 . S
N1559 H1563 0.985 . S
H1560 N1555 0.984 . S
H1561 N1555 0.985 . S
H1562 N1559 0.984 . S
H1563 N1559 0.985 . S
H1564 N1558 0.984 . S
H1565 N1558 0.984 . S
H1566 N1554 0.984 . S
H1567 N1554 0.985 . S
C1568 C1569 1.363 . S
C1568 C1574 1.379 . S
C1568 N1576 1.356 . S
C1569 C1568 1.363 . S
C1569 C1575 1.363 . S
C1570 C1571 1.363 . S
C1570 C1575 1.379 . S
C1570 N1577 1.356 . S
C1571 C1570 1.363 . S
C1571 C1574 1.363 . S
N1572 C1574 1.356 . S
N1572 H1584 0.984 . S
N1572 H1585 0.985 . S
N1573 C1575 1.356 . S
N1573 H1578 0.984 . S
N1573 H1579 0.985 . S
C1574 C1568 1.379 . S
C1574 C1571 1.363 . S
C1574 N1572 1.356 . S
C1575 C1569 1.363 . S
C1575 C1570 1.379 . S
C1575 N1573 1.356 . S
N1576 C1568 1.356 . S
N1576 H1582 0.984 . S
N1576 H1583 0.984 . S
N1577 C1570 1.356 . S
N1577 H1580 0.984 . S
N1577 H1581 0.985 . S
H1578 N1573 0.984 . S
H1579 N1573 0.985 . S
H1580 N1577 0.984 . S
H1581 N1577 0.985 . S
H1582 N1576 0.984 . S
H1583 N1576 0.984 . S
H1584 N1572 0.984 . S
H1585 N1572 0.985 . S
C1586 C1587 1.363 . S
C1586 C1592 1.379 . S
C1586 N1594 1.356 . S
C1587 C1586 1.363 . S
C1587 C1593 1.363 . S
C1588 C1589 1.363 . S
C1588 C1593 1.379 . S
C1588 N1595 1.356 . S
C1589 C1588 1.363 . S
C1589 C1592 1.363 . S
N1590 C1592 1.356 . S
N1590 H1602 0.984 . S
N1590 H1603 0.985 . S
N1591 C1593 1.356 . S
N1591 H1596 0.984 . S
N1591 H1597 0.985 . S
C1592 C1586 1.379 . S
C1592 C1589 1.363 . S
C1592 N1590 1.356 . S
C1593 C1587 1.363 . S
C1593 C1588 1.379 . S
C1593 N1591 1.356 . S
N1594 C1586 1.356 . S
N1594 H1600 0.984 . S
N1594 H1601 0.984 . S
N1595 C1588 1.356 . S
N1595 H1598 0.984 . S
N1595 H1599 0.985 . S
H1596 N1591 0.984 . S
H1597 N1591 0.985 . S
H1598 N1595 0.984 . S
H1599 N1595 0.985 . S
H1600 N1594 0.984 . S
H1601 N1594 0.984 . S
H1602 N1590 0.984 . S
H1603 N1590 0.985 . S
C1604 C1605 1.363 . S
C1604 C1610 1.379 . S
C1604 N1612 1.356 . S
C1605 C1604 1.363 . S
C1605 C1611 1.363 . S
C1606 C1607 1.363 . S
C1606 C1611 1.379 . S
C1606 N1613 1.356 . S
C1607 C1606 1.363 . S
C1607 C1610 1.363 . S
N1608 C1610 1.356 . S
N1608 H1620 0.984 . S
N1608 H1621 0.985 . S
N1609 C1611 1.369 . S
N1609 H1614 0.990 . S
N1609 H1615 0.967 1_455 S
C1610 C1604 1.379 . S
C1610 C1607 1.363 . S
C1610 N1608 1.356 . S
C1611 C1605 1.363 . S
C1611 C1606 1.379 . S
C1611 N1609 1.369 . S
N1612 C1604 1.356 . S
N1612 H1618 0.984 . S
N1612 H1619 0.984 . S
N1613 C1606 1.356 . S
N1613 H1616 0.984 . S
N1613 H1617 0.985 1_455 S
H1614 N1609 0.990 . S
H1615 N1609 0.967 1_655 S
H1616 N1613 0.984 . S
H1617 N1613 0.985 1_655 S
H1618 N1612 0.984 . S
H1619 N1612 0.984 . S
H1620 N1608 0.984 . S
H1621 N1608 0.985 . S
C1622 C1623 1.363 . S
C1622 C1628 1.379 . S
C1622 N1630 1.356 . S
C1623 C1622 1.363 . S
C1623 C1629 1.363 . S
C1624 C1625 1.363 . S
C1624 C1629 1.379 . S
C1624 N1631 1.356 . S
C1625 C1624 1.363 . S
C1625 C1628 1.363 . S
N1626 C1628 1.356 . S
N1626 H1638 0.984 . S
N1626 H1639 0.985 . S
N1627 C1629 1.356 . S
N1627 H1632 0.984 . S
N1627 H1633 0.985 . S
C1628 C1622 1.379 . S
C1628 C1625 1.363 . S
C1628 N1626 1.356 . S
C1629 C1623 1.363 . S
C1629 C1624 1.379 . S
C1629 N1627 1.356 . S
N1630 C1622 1.356 . S
N1630 H1636 0.984 . S
N1630 H1637 0.984 . S
N1631 C1624 1.356 . S
N1631 H1634 0.984 . S
N1631 H1635 0.985 . S
H1632 N1627 0.984 . S
H1633 N1627 0.985 . S
H1634 N1631 0.984 . S
H1635 N1631 0.985 . S
H1636 N1630 0.984 . S
H1637 N1630 0.984 . S
H1638 N1626 0.984 . S
H1639 N1626 0.985 . S
C1640 C1641 1.363 . S
C1640 C1646 1.379 . S
C1640 N1648 1.356 . S
C1641 C1640 1.363 . S
C1641 C1647 1.363 . S
C1642 C1643 1.363 . S
C1642 C1647 1.379 . S
C1642 N1649 1.356 1_556 S
C1643 C1642 1.363 . S
C1643 C1646 1.363 . S
N1644 C1646 1.356 . S
N1644 H1656 0.984 . S
N1644 H1657 0.985 1_556 S
N1645 C1647 1.356 . S
N1645 H1650 0.984 . S
N1645 H1651 0.985 . S
C1646 C1640 1.379 . S
C1646 C1643 1.363 . S
C1646 N1644 1.356 . S
C1647 C1641 1.363 . S
C1647 C1642 1.379 . S
C1647 N1645 1.356 . S
N1648 C1640 1.356 . S
N1648 H1654 0.984 . S
N1648 H1655 0.984 . S
N1649 C1642 1.356 1_554 S
N1649 H1652 0.984 . S
N1649 H1653 0.985 . S
H1650 N1645 0.984 . S
H1651 N1645 0.985 . S
H1652 N1649 0.984 . S
H1653 N1649 0.985 . S
H1654 N1648 0.984 . S
H1655 N1648 0.984 . S
H1656 N1644 0.984 . S
H1657 N1644 0.985 1_554 S
C1658 C1659 1.363 . S
C1658 C1664 1.379 . S
C1658 N1666 1.356 . S
C1659 C1658 1.363 . S
C1659 C1665 1.363 . S
C1660 C1661 1.363 . S
C1660 C1665 1.379 . S
C1660 N1667 1.356 . S
C1661 C1660 1.363 . S
C1661 C1664 1.363 . S
N1662 C1664 1.356 . S
N1662 H1674 0.984 . S
N1662 H1675 0.985 . S
N1663 C1665 1.356 . S
N1663 H1668 0.984 . S
N1663 H1669 0.985 . S
C1664 C1658 1.379 . S
C1664 C1661 1.363 . S
C1664 N1662 1.356 . S
C1665 C1659 1.363 . S
C1665 C1660 1.379 . S
C1665 N1663 1.356 . S
N1666 C1658 1.356 . S
N1666 H1672 0.984 . S
N1666 H1673 0.984 . S
N1667 C1660 1.356 . S
N1667 H1670 0.984 . S
N1667 H1671 0.985 . S
H1668 N1663 0.984 . S
H1669 N1663 0.985 . S
H1670 N1667 0.984 . S
H1671 N1667 0.985 . S
H1672 N1666 0.984 . S
H1673 N1666 0.984 . S
H1674 N1662 0.984 . S
H1675 N1662 0.985 . S
C1676 C1677 1.363 . S
C1676 C1682 1.379 . S
C1676 N1684 1.356 . S
C1677 C1676 1.363 . S
C1677 C1683 1.363 . S
C1678 C1679 1.363 . S
C1678 C1683 1.379 . S
C1678 N1685 1.356 . S
C1679 C1678 1.363 . S
C1679 C1682 1.363 . S
N1680 C1682 1.356 . S
N1680 H1692 0.984 . S
N1680 H1693 0.985 . S
N1681 C1683 1.356 . S
N1681 H1686 0.984 . S
N1681 H1687 0.985 . S
C1682 C1676 1.379 . S
C1682 C1679 1.363 . S
C1682 N1680 1.356 . S
C1683 C1677 1.363 . S
C1683 C1678 1.379 . S
C1683 N1681 1.356 . S
N1684 C1676 1.356 . S
N1684 H1690 0.984 . S
N1684 H1691 0.984 . S
N1685 C1678 1.356 . S
N1685 H1688 0.984 . S
N1685 H1689 0.985 . S
H1686 N1681 0.984 . S
H1687 N1681 0.985 . S
H1688 N1685 0.984 . S
H1689 N1685 0.985 . S
H1690 N1684 0.984 . S
H1691 N1684 0.984 . S
H1692 N1680 0.984 . S
H1693 N1680 0.985 . S
C1694 C1695 1.363 . S
C1694 C1700 1.379 . S
C1694 N1702 1.356 . S
C1695 C1694 1.363 . S
C1695 C1701 1.363 . S
C1696 C1697 1.363 . S
C1696 C1701 1.379 . S
C1696 N1703 1.356 . S
C1697 C1696 1.363 . S
C1697 C1700 1.363 . S
N1698 C1700 1.356 . S
N1698 H1710 0.984 . S
N1698 H1711 0.985 . S
N1699 C1701 1.356 . S
N1699 H1704 0.984 . S
N1699 H1705 0.985 . S
C1700 C1694 1.379 . S
C1700 C1697 1.363 . S
C1700 N1698 1.356 . S
C1701 C1695 1.363 . S
C1701 C1696 1.379 . S
C1701 N1699 1.356 . S
N1702 C1694 1.356 . S
N1702 H1708 0.984 . S
N1702 H1709 0.984 . S
N1703 C1696 1.356 . S
N1703 H1706 0.984 . S
N1703 H1707 0.985 . S
H1704 N1699 0.984 . S
H1705 N1699 0.985 . S
H1706 N1703 0.984 . S
H1707 N1703 0.985 . S
H1708 N1702 0.984 . S
H1709 N1702 0.984 . S
H1710 N1698 0.984 . S
H1711 N1698 0.985 . S
C1712 C1713 1.363 . S
C1712 C1718 1.379 . S
C1712 N1720 1.356 . S
C1713 C1712 1.363 . S
C1713 C1719 1.363 . S
C1714 C1715 1.363 . S
C1714 C1719 1.379 . S
C1714 N1721 1.356 . S
C1715 C1714 1.363 . S
C1715 C1718 1.363 . S
N1716 C1718 1.356 . S
N1716 H1728 0.984 . S
N1716 H1729 0.985 . S
N1717 C1719 1.356 . S
N1717 H1722 0.984 . S
N1717 H1723 0.985 . S
C1718 C1712 1.379 . S
C1718 C1715 1.363 . S
C1718 N1716 1.356 . S
C1719 C1713 1.363 . S
C1719 C1714 1.379 . S
C1719 N1717 1.356 . S
N1720 C1712 1.356 . S
N1720 H1726 0.984 . S
N1720 H1727 0.984 . S
N1721 C1714 1.356 . S
N1721 H1724 0.984 . S
N1721 H1725 0.985 . S
H1722 N1717 0.984 . S
H1723 N1717 0.985 . S
H1724 N1721 0.984 . S
H1725 N1721 0.985 . S
H1726 N1720 0.984 . S
H1727 N1720 0.984 . S
H1728 N1716 0.984 . S
H1729 N1716 0.985 . S
C1730 C1731 1.363 . S
C1730 C1736 1.379 . S
C1730 N1738 1.356 . S
C1731 C1730 1.363 . S
C1731 C1737 1.363 . S
C1732 C1733 1.363 . S
C1732 C1737 1.379 . S
C1732 N1739 1.356 . S
C1733 C1732 1.363 . S
C1733 C1736 1.363 . S
N1734 C1736 1.356 . S
N1734 H1746 0.984 . S
N1734 H1747 0.985 . S
N1735 C1737 1.356 . S
N1735 H1740 0.984 . S
N1735 H1741 0.985 . S
C1736 C1730 1.379 . S
C1736 C1733 1.363 . S
C1736 N1734 1.356 . S
C1737 C1731 1.363 . S
C1737 C1732 1.379 . S
C1737 N1735 1.356 . S
N1738 C1730 1.356 . S
N1738 H1744 0.984 . S
N1738 H1745 0.984 . S
N1739 C1732 1.356 . S
N1739 H1742 0.984 . S
N1739 H1743 0.985 . S
H1740 N1735 0.984 . S
H1741 N1735 0.985 . S
H1742 N1739 0.984 . S
H1743 N1739 0.985 . S
H1744 N1738 0.984 . S
H1745 N1738 0.984 . S
H1746 N1734 0.984 . S
H1747 N1734 0.985 . S
C1748 C1749 1.363 . S
C1748 C1754 1.379 . S
C1748 N1756 1.356 . S
C1749 C1748 1.363 . S
C1749 C1755 1.363 . S
C1750 C1751 1.363 . S
C1750 C1755 1.379 . S
C1750 N1757 1.356 . S
C1751 C1750 1.363 . S
C1751 C1754 1.363 . S
N1752 C1754 1.356 . S
N1752 H1764 0.984 . S
N1752 H1765 0.985 . S
N1753 C1755 1.356 . S
N1753 H1758 0.984 . S
N1753 H1759 0.985 . S
C1754 C1748 1.379 . S
C1754 C1751 1.363 . S
C1754 N1752 1.356 . S
C1755 C1749 1.363 . S
C1755 C1750 1.379 . S
C1755 N1753 1.356 . S
N1756 C1748 1.356 . S
N1756 H1762 0.984 . S
N1756 H1763 0.984 . S
N1757 C1750 1.356 . S
N1757 H1760 0.984 1_655 S
N1757 H1761 0.985 . S
H1758 N1753 0.984 . S
H1759 N1753 0.985 . S
H1760 N1757 0.984 1_455 S
H1761 N1757 0.985 . S
H1762 N1756 0.984 . S
H1763 N1756 0.984 . S
H1764 N1752 0.984 . S
H1765 N1752 0.985 . S
C1766 C1767 1.363 . S
C1766 C1772 1.379 . S
C1766 N1774 1.356 . S
C1767 C1766 1.363 . S
C1767 C1773 1.363 . S
C1768 C1769 1.363 . S
C1768 C1773 1.379 . S
C1768 N1775 1.356 . S
C1769 C1768 1.363 . S
C1769 C1772 1.363 . S
N1770 C1772 1.356 . S
N1770 H1782 0.984 . S
N1770 H1783 0.985 . S
N1771 C1773 1.356 . S
N1771 H1776 0.984 . S
N1771 H1777 0.985 . S
C1772 C1766 1.379 . S
C1772 C1769 1.363 . S
C1772 N1770 1.356 . S
C1773 C1767 1.363 . S
C1773 C1768 1.379 . S
C1773 N1771 1.356 . S
N1774 C1766 1.356 . S
N1774 H1780 0.984 . S
N1774 H1781 0.984 . S
N1775 C1768 1.356 . S
N1775 H1778 0.984 . S
N1775 H1779 0.985 . S
H1776 N1771 0.984 . S
H1777 N1771 0.985 . S
H1778 N1775 0.984 . S
H1779 N1775 0.985 . S
H1780 N1774 0.984 . S
H1781 N1774 0.984 . S
H1782 N1770 0.984 . S
H1783 N1770 0.985 . S
C1784 C1785 1.363 . S
C1784 C1790 1.379 . S
C1784 N1792 1.356 . S
C1785 C1784 1.363 . S
C1785 C1791 1.363 . S
C1786 C1787 1.363 . S
C1786 C1791 1.379 . S
C1786 N1793 1.356 . S
C1787 C1786 1.363 . S
C1787 C1790 1.363 . S
N1788 C1790 1.356 . S
N1788 H1800 0.984 . S
N1788 H1801 0.985 . S
N1789 C1791 1.356 . S
N1789 H1794 0.984 . S
N1789 H1795 0.985 . S
C1790 C1784 1.379 . S
C1790 C1787 1.363 . S
C1790 N1788 1.356 . S
C1791 C1785 1.363 . S
C1791 C1786 1.379 . S
C1791 N1789 1.356 . S
N1792 C1784 1.356 . S
N1792 H1798 0.984 . S
N1792 H1799 0.984 . S
N1793 C1786 1.356 . S
N1793 H1796 0.984 . S
N1793 H1797 0.985 . S
H1794 N1789 0.984 . S
H1795 N1789 0.985 . S
H1796 N1793 0.984 . S
H1797 N1793 0.985 . S
H1798 N1792 0.984 . S
H1799 N1792 0.984 . S
H1800 N1788 0.984 . S
H1801 N1788 0.985 . S
C1802 C1803 1.363 . S
C1802 C1808 1.379 . S
C1802 N1810 1.356 . S
C1803 C1802 1.363 . S
C1803 C1809 1.363 . S
C1804 C1805 1.363 . S
C1804 C1809 1.379 . S
C1804 N1811 1.356 . S
C1805 C1804 1.363 . S
C1805 C1808 1.363 . S
N1806 C1808 1.356 . S
N1806 H1818 0.984 . S
N1806 H1819 0.985 . S
N1807 C1809 1.356 . S
N1807 H1812 0.984 . S
N1807 H1813 0.985 . S
C1808 C1802 1.379 . S
C1808 C1805 1.363 . S
C1808 N1806 1.356 . S
C1809 C1803 1.363 . S
C1809 C1804 1.379 . S
C1809 N1807 1.356 . S
N1810 C1802 1.356 . S
N1810 H1816 0.984 . S
N1810 H1817 0.984 . S
N1811 C1804 1.356 . S
N1811 H1814 0.984 . S
N1811 H1815 0.985 . S
H1812 N1807 0.984 . S
H1813 N1807 0.985 . S
H1814 N1811 0.984 . S
H1815 N1811 0.985 . S
H1816 N1810 0.984 . S
H1817 N1810 0.984 . S
H1818 N1806 0.984 . S
H1819 N1806 0.985 . S
C1820 C1821 1.363 . S
C1820 C1826 1.379 . S
C1820 N1828 1.356 . S
C1821 C1820 1.363 . S
C1821 C1827 1.363 . S
C1822 C1823 1.363 . S
C1822 C1827 1.379 . S
C1822 N1829 1.356 . S
C1823 C1822 1.363 . S
C1823 C1826 1.363 . S
N1824 C1826 1.356 . S
N1824 H1836 0.980 1_655 S
N1824 H1837 0.985 1_655 S
N1825 C1827 1.356 . S
N1825 H1830 0.984 . S
N1825 H1831 0.985 . S
C1826 C1820 1.379 . S
C1826 C1823 1.363 . S
C1826 N1824 1.356 . S
C1827 C1821 1.363 . S
C1827 C1822 1.379 . S
C1827 N1825 1.356 . S
N1828 C1820 1.356 . S
N1828 H1834 0.984 . S
N1828 H1835 0.984 . S
N1829 C1822 1.356 . S
N1829 H1832 0.984 . S
N1829 H1833 0.985 . S
H1830 N1825 0.984 . S
H1831 N1825 0.985 . S
H1832 N1829 0.984 . S
H1833 N1829 0.985 . S
H1834 N1828 0.984 . S
H1835 N1828 0.984 . S
H1836 N1824 0.980 1_455 S
H1837 N1824 0.985 1_455 S
C1838 C1839 1.363 . S
C1838 C1844 1.379 . S
C1838 N1846 1.356 . S
C1839 C1838 1.363 . S
C1839 C1845 1.363 . S
C1840 C1841 1.363 . S
C1840 C1845 1.379 . S
C1840 N1847 1.356 . S
C1841 C1840 1.363 . S
C1841 C1844 1.363 . S
N1842 C1844 1.356 . S
N1842 H1854 0.984 . S
N1842 H1855 0.985 . S
N1843 C1845 1.356 . S
N1843 H1848 0.984 . S
N1843 H1849 0.985 . S
C1844 C1838 1.379 . S
C1844 C1841 1.363 . S
C1844 N1842 1.356 . S
C1845 C1839 1.363 . S
C1845 C1840 1.379 . S
C1845 N1843 1.356 . S
N1846 C1838 1.356 . S
N1846 H1852 0.984 . S
N1846 H1853 0.984 . S
N1847 C1840 1.356 . S
N1847 H1850 0.984 . S
N1847 H1851 0.985 . S
H1848 N1843 0.984 . S
H1849 N1843 0.985 . S
H1850 N1847 0.984 . S
H1851 N1847 0.985 . S
H1852 N1846 0.984 . S
H1853 N1846 0.984 . S
H1854 N1842 0.984 . S
H1855 N1842 0.985 . S
C1856 C1857 1.363 . S
C1856 C1862 1.379 . S
C1856 N1864 1.356 . S
C1857 C1856 1.363 . S
C1857 C1863 1.363 . S
C1858 C1859 1.363 . S
C1858 C1863 1.379 . S
C1858 N1865 1.356 . S
C1859 C1858 1.363 . S
C1859 C1862 1.363 . S
N1860 C1862 1.356 . S
N1860 H1872 0.984 . S
N1860 H1873 0.985 . S
N1861 C1863 1.356 . S
N1861 H1866 0.984 . S
N1861 H1867 0.985 . S
C1862 C1856 1.379 . S
C1862 C1859 1.363 . S
C1862 N1860 1.356 . S
C1863 C1857 1.363 . S
C1863 C1858 1.379 . S
C1863 N1861 1.356 . S
N1864 C1856 1.356 . S
N1864 H1870 0.984 . S
N1864 H1871 0.984 . S
N1865 C1858 1.356 . S
N1865 H1868 0.984 . S
N1865 H1869 0.985 . S
H1866 N1861 0.984 . S
H1867 N1861 0.985 . S
H1868 N1865 0.984 . S
H1869 N1865 0.985 . S
H1870 N1864 0.984 . S
H1871 N1864 0.984 . S
H1872 N1860 0.984 . S
H1873 N1860 0.985 . S
C1874 C1875 1.363 . S
C1874 C1880 1.379 . S
C1874 N1882 1.356 . S
C1875 C1874 1.363 . S
C1875 C1881 1.363 . S
C1876 C1877 1.363 . S
C1876 C1881 1.379 . S
C1876 N1883 1.356 1_565 S
C1877 C1876 1.363 . S
C1877 C1880 1.363 . S
N1878 C1880 1.356 . S
N1878 H1890 0.984 . S
N1878 H1891 0.985 . S
N1879 C1881 1.356 . S
N1879 H1884 0.984 . S
N1879 H1885 0.985 . S
C1880 C1874 1.379 . S
C1880 C1877 1.363 . S
C1880 N1878 1.356 . S
C1881 C1875 1.363 . S
C1881 C1876 1.379 . S
C1881 N1879 1.356 . S
N1882 C1874 1.356 . S
N1882 H1888 0.984 . S
N1882 H1889 0.984 . S
N1883 C1876 1.356 1_545 S
N1883 H1886 0.984 . S
N1883 H1887 0.985 . S
H1884 N1879 0.984 . S
H1885 N1879 0.985 . S
H1886 N1883 0.984 . S
H1887 N1883 0.985 . S
H1888 N1882 0.984 . S
H1889 N1882 0.984 . S
H1890 N1878 0.984 . S
H1891 N1878 0.985 . S
C1892 C1893 1.363 . S
C1892 C1898 1.379 . S
C1892 N1900 1.356 . S
C1893 C1892 1.363 . S
C1893 C1899 1.363 . S
C1894 C1895 1.363 . S
C1894 C1899 1.379 . S
C1894 N1901 1.356 . S
C1895 C1894 1.363 . S
C1895 C1898 1.363 . S
N1896 C1898 1.356 . S
N1896 H1908 0.984 . S
N1896 H1909 0.985 . S
N1897 C1899 1.356 . S
N1897 H1902 0.984 . S
N1897 H1903 0.985 . S
C1898 C1892 1.379 . S
C1898 C1895 1.363 . S
C1898 N1896 1.356 . S
C1899 C1893 1.363 . S
C1899 C1894 1.379 . S
C1899 N1897 1.356 . S
N1900 C1892 1.356 . S
N1900 H1906 0.984 . S
N1900 H1907 0.984 . S
N1901 C1894 1.356 . S
N1901 H1904 0.984 . S
N1901 H1905 0.985 . S
H1902 N1897 0.984 . S
H1903 N1897 0.985 . S
H1904 N1901 0.984 . S
H1905 N1901 0.985 . S
H1906 N1900 0.984 . S
H1907 N1900 0.984 . S
H1908 N1896 0.984 . S
H1909 N1896 0.985 . S
C1910 C1911 1.363 . S
C1910 C1916 1.379 . S
C1910 N1918 1.356 . S
C1911 C1910 1.363 . S
C1911 C1917 1.374 . S
C1912 C1913 1.363 . S
C1912 C1917 1.382 . S
C1912 N1919 1.356 1_554 S
C1913 C1912 1.363 . S
C1913 C1916 1.363 . S
N1914 C1916 1.356 . S
N1914 H1926 0.984 . S
N1914 H1927 0.985 . S
N1915 C1917 1.344 1_556 S
N1915 H1920 0.984 . S
N1915 H1921 0.985 . S
C1916 C1910 1.379 . S
C1916 C1913 1.363 . S
C1916 N1914 1.356 . S
C1917 C1911 1.374 . S
C1917 C1912 1.382 . S
C1917 N1915 1.344 1_554 S
N1918 C1910 1.356 . S
N1918 H1924 0.984 . S
N1918 H1925 0.984 . S
N1919 C1912 1.356 1_556 S
N1919 H1922 0.984 1_556 S
N1919 H1923 0.985 . S
H1920 N1915 0.984 . S
H1921 N1915 0.985 . S
H1922 N1919 0.984 1_554 S
H1923 N1919 0.985 . S
H1924 N1918 0.984 . S
H1925 N1918 0.984 . S
H1926 N1914 0.984 . S
H1927 N1914 0.985 . S
C1928 C1929 1.363 . S
C1928 C1934 1.379 . S
C1928 N1936 1.356 . S
C1929 C1928 1.363 . S
C1929 C1935 1.363 . S
C1930 C1931 1.363 . S
C1930 C1935 1.379 . S
C1930 N1937 1.356 . S
C1931 C1930 1.363 . S
C1931 C1934 1.363 . S
N1932 C1934 1.356 . S
N1932 H1944 0.984 . S
N1932 H1945 0.985 . S
N1933 C1935 1.356 . S
N1933 H1938 0.984 . S
N1933 H1939 0.985 . S
C1934 C1928 1.379 . S
C1934 C1931 1.363 . S
C1934 N1932 1.356 . S
C1935 C1929 1.363 . S
C1935 C1930 1.379 . S
C1935 N1933 1.356 . S
N1936 C1928 1.356 . S
N1936 H1942 0.984 . S
N1936 H1943 0.984 . S
N1937 C1930 1.356 . S
N1937 H1940 0.984 . S
N1937 H1941 0.985 . S
H1938 N1933 0.984 . S
H1939 N1933 0.985 . S
H1940 N1937 0.984 . S
H1941 N1937 0.985 . S
H1942 N1936 0.984 . S
H1943 N1936 0.984 . S
H1944 N1932 0.984 . S
H1945 N1932 0.985 . S
C1946 C1947 1.363 . S
C1946 C1952 1.379 . S
C1946 N1954 1.356 . S
C1947 C1946 1.363 . S
C1947 C1953 1.363 1_554 S
C1948 C1949 1.363 1_556 S
C1948 C1953 1.379 . S
C1948 N1955 1.356 . S
C1949 C1948 1.363 1_554 S
C1949 C1952 1.363 . S
N1950 C1952 1.356 . S
N1950 H1962 0.984 . S
N1950 H1963 0.985 . S
N1951 C1953 1.356 . S
N1951 H1956 0.984 . S
N1951 H1957 0.985 . S
C1952 C1946 1.379 . S
C1952 C1949 1.363 . S
C1952 N1950 1.356 . S
C1953 C1947 1.363 1_556 S
C1953 C1948 1.379 . S
C1953 N1951 1.356 . S
N1954 C1946 1.356 . S
N1954 H1960 0.984 . S
N1954 H1961 0.984 . S
N1955 C1948 1.356 . S
N1955 H1958 0.984 . S
N1955 H1959 0.985 . S
H1956 N1951 0.984 . S
H1957 N1951 0.985 . S
H1958 N1955 0.984 . S
H1959 N1955 0.985 . S
H1960 N1954 0.984 . S
H1961 N1954 0.984 . S
H1962 N1950 0.984 . S
H1963 N1950 0.985 . S
C1964 C1965 1.363 . S
C1964 C1970 1.379 . S
C1964 N1972 1.356 . S
C1965 C1964 1.363 . S
C1965 C1971 1.363 . S
C1966 C1967 1.363 . S
C1966 C1971 1.379 . S
C1966 N1973 1.356 . S
C1967 C1966 1.363 . S
C1967 C1970 1.363 . S
N1968 C1970 1.356 . S
N1968 H1980 0.984 . S
N1968 H1981 0.985 . S
N1969 C1971 1.356 . S
N1969 H1974 0.984 . S
N1969 H1975 0.985 . S
C1970 C1964 1.379 . S
C1970 C1967 1.363 . S
C1970 N1968 1.356 . S
C1971 C1965 1.363 . S
C1971 C1966 1.379 . S
C1971 N1969 1.356 . S
N1972 C1964 1.356 . S
N1972 H1978 0.984 . S
N1972 H1979 0.984 . S
N1973 C1966 1.356 . S
N1973 H1976 0.984 . S
N1973 H1977 0.985 . S
H1974 N1969 0.984 . S
H1975 N1969 0.985 . S
H1976 N1973 0.984 . S
H1977 N1973 0.985 . S
H1978 N1972 0.984 . S
H1979 N1972 0.984 . S
H1980 N1968 0.984 . S
H1981 N1968 0.985 . S
C1982 C1983 1.363 . S
C1982 C1988 1.379 . S
C1982 N1990 1.356 . S
C1983 C1982 1.363 . S
C1983 C1989 1.363 . S
C1984 C1985 1.363 . S
C1984 C1989 1.379 . S
C1984 N1991 1.356 . S
C1985 C1984 1.363 . S
C1985 C1988 1.363 . S
N1986 C1988 1.356 . S
N1986 H1998 0.984 . S
N1986 H1999 0.985 . S
N1987 C1989 1.356 . S
N1987 H1992 0.984 . S
N1987 H1993 0.985 . S
C1988 C1982 1.379 . S
C1988 C1985 1.363 . S
C1988 N1986 1.356 . S
C1989 C1983 1.363 . S
C1989 C1984 1.379 . S
C1989 N1987 1.356 . S
N1990 C1982 1.356 . S
N1990 H1996 0.984 . S
N1990 H1997 0.984 . S
N1991 C1984 1.356 . S
N1991 H1994 0.984 . S
N1991 H1995 0.985 . S
H1992 N1987 0.984 . S
H1993 N1987 0.985 . S
H1994 N1991 0.984 . S
H1995 N1991 0.985 . S
H1996 N1990 0.984 . S
H1997 N1990 0.984 . S
H1998 N1986 0.984 . S
H1999 N1986 0.985 . S
C2000 C2001 1.363 . S
C2000 C2006 1.379 . S
C2000 N2008 1.356 . S
C2001 C2000 1.363 . S
C2001 C2007 1.363 . S
C2002 C2003 1.363 . S
C2002 C2007 1.379 . S
C2002 N2009 1.356 . S
C2003 C2002 1.363 . S
C2003 C2006 1.363 . S
N2004 C2006 1.356 . S
N2004 H2016 0.984 . S
N2004 H2017 0.985 . S
N2005 C2007 1.356 . S
N2005 H2010 0.984 . S
N2005 H2011 0.985 . S
C2006 C2000 1.379 . S
C2006 C2003 1.363 . S
C2006 N2004 1.356 . S
C2007 C2001 1.363 . S
C2007 C2002 1.379 . S
C2007 N2005 1.356 . S
N2008 C2000 1.356 . S
N2008 H2014 0.984 . S
N2008 H2015 0.984 . S
N2009 C2002 1.356 . S
N2009 H2012 0.984 . S
N2009 H2013 0.985 . S
H2010 N2005 0.984 . S
H2011 N2005 0.985 . S
H2012 N2009 0.984 . S
H2013 N2009 0.985 . S
H2014 N2008 0.984 . S
H2015 N2008 0.984 . S
H2016 N2004 0.984 . S
H2017 N2004 0.985 . S
C2018 C2019 1.363 . S
C2018 C2024 1.379 . S
C2018 N2026 1.356 . S
C2019 C2018 1.363 . S
C2019 C2025 1.363 . S
C2020 C2021 1.363 . S
C2020 C2025 1.379 . S
C2020 N2027 1.356 . S
C2021 C2020 1.363 . S
C2021 C2024 1.363 . S
N2022 C2024 1.356 . S
N2022 H2034 0.984 . S
N2022 H2035 0.985 . S
N2023 C2025 1.356 . S
N2023 H2028 0.984 . S
N2023 H2029 0.985 . S
C2024 C2018 1.379 . S
C2024 C2021 1.363 . S
C2024 N2022 1.356 . S
C2025 C2019 1.363 . S
C2025 C2020 1.379 . S
C2025 N2023 1.356 . S
N2026 C2018 1.356 . S
N2026 H2032 0.984 . S
N2026 H2033 0.984 . S
N2027 C2020 1.356 . S
N2027 H2030 0.984 . S
N2027 H2031 0.985 . S
H2028 N2023 0.984 . S
H2029 N2023 0.985 . S
H2030 N2027 0.984 . S
H2031 N2027 0.985 . S
H2032 N2026 0.984 . S
H2033 N2026 0.984 . S
H2034 N2022 0.984 . S
H2035 N2022 0.985 . S
C2036 C2037 1.363 1_655 S
C2036 C2042 1.379 . S
C2036 N2044 1.356 . S
C2037 C2036 1.363 1_455 S
C2037 C2043 1.363 . S
C2038 C2039 1.363 1_455 S
C2038 C2043 1.379 . S
C2038 N2045 1.356 1_556 S
C2039 C2038 1.363 1_655 S
C2039 C2042 1.363 . S
N2040 C2042 1.356 . S
N2040 H2052 0.984 . S
N2040 H2053 0.985 . S
N2041 C2043 1.356 . S
N2041 H2046 0.984 . S
N2041 H2047 0.985 . S
C2042 C2036 1.379 . S
C2042 C2039 1.363 . S
C2042 N2040 1.356 . S
C2043 C2037 1.363 . S
C2043 C2038 1.379 . S
C2043 N2041 1.356 . S
N2044 C2036 1.356 . S
N2044 H2050 0.984 . S
N2044 H2051 0.984 . S
N2045 C2038 1.356 1_554 S
N2045 H2048 0.984 . S
N2045 H2049 0.985 . S
H2046 N2041 0.984 . S
H2047 N2041 0.985 . S
H2048 N2045 0.984 . S
H2049 N2045 0.985 . S
H2050 N2044 0.984 . S
H2051 N2044 0.984 . S
H2052 N2040 0.984 . S
H2053 N2040 0.985 . S
C2054 C2055 1.363 . S
C2054 C2060 1.379 . S
C2054 N2062 1.356 . S
C2055 C2054 1.363 . S
C2055 C2061 1.363 . S
C2056 C2057 1.363 . S
C2056 C2061 1.379 . S
C2056 N2063 1.356 . S
C2057 C2056 1.363 . S
C2057 C2060 1.363 . S
N2058 C2060 1.356 . S
N2058 H2070 0.984 . S
N2058 H2071 0.985 . S
N2059 C2061 1.356 . S
N2059 H2064 0.984 . S
N2059 H2065 0.985 . S
C2060 C2054 1.379 . S
C2060 C2057 1.363 . S
C2060 N2058 1.356 . S
C2061 C2055 1.363 . S
C2061 C2056 1.379 . S
C2061 N2059 1.356 . S
N2062 C2054 1.356 . S
N2062 H2068 0.984 . S
N2062 H2069 0.984 . S
N2063 C2056 1.356 . S
N2063 H2066 0.984 . S
N2063 H2067 0.985 . S
H2064 N2059 0.984 . S
H2065 N2059 0.985 . S
H2066 N2063 0.984 . S
H2067 N2063 0.985 . S
H2068 N2062 0.984 . S
H2069 N2062 0.984 . S
H2070 N2058 0.984 . S
H2071 N2058 0.985 . S
C2072 C2073 1.363 . S
C2072 C2078 1.379 . S
C2072 N2080 1.356 . S
C2073 C2072 1.363 . S
C2073 C2079 1.363 . S
C2074 C2075 1.363 . S
C2074 C2079 1.379 . S
C2074 N2081 1.356 . S
C2075 C2074 1.363 . S
C2075 C2078 1.363 . S
N2076 C2078 1.356 . S
N2076 H2088 0.984 . S
N2076 H2089 0.985 . S
N2077 C2079 1.356 . S
N2077 H2082 0.984 . S
N2077 H2083 0.985 . S
C2078 C2072 1.379 . S
C2078 C2075 1.363 . S
C2078 N2076 1.356 . S
C2079 C2073 1.363 . S
C2079 C2074 1.379 . S
C2079 N2077 1.356 . S
N2080 C2072 1.356 . S
N2080 H2086 0.984 . S
N2080 H2087 0.984 . S
N2081 C2074 1.356 . S
N2081 H2084 0.984 . S
N2081 H2085 0.985 . S
H2082 N2077 0.984 . S
H2083 N2077 0.985 . S
H2084 N2081 0.984 . S
H2085 N2081 0.985 . S
H2086 N2080 0.984 . S
H2087 N2080 0.984 . S
H2088 N2076 0.984 . S
H2089 N2076 0.985 . S
C2090 C2091 1.363 . S
C2090 C2096 1.379 . S
C2090 N2098 1.356 . S
C2091 C2090 1.363 . S
C2091 C2097 1.363 . S
C2092 C2093 1.363 . S
C2092 C2097 1.379 . S
C2092 N2099 1.356 . S
C2093 C2092 1.363 . S
C2093 C2096 1.363 . S
N2094 C2096 1.356 . S
N2094 H2106 0.984 . S
N2094 H2107 0.985 . S
N2095 C2097 1.356 . S
N2095 H2100 0.984 . S
N2095 H2101 0.985 . S
C2096 C2090 1.379 . S
C2096 C2093 1.363 . S
C2096 N2094 1.356 . S
C2097 C2091 1.363 . S
C2097 C2092 1.379 . S
C2097 N2095 1.356 . S
N2098 C2090 1.356 . S
N2098 H2104 0.984 . S
N2098 H2105 0.984 . S
N2099 C2092 1.356 . S
N2099 H2102 0.984 . S
N2099 H2103 0.985 . S
H2100 N2095 0.984 . S
H2101 N2095 0.985 . S
H2102 N2099 0.984 . S
H2103 N2099 0.985 . S
H2104 N2098 0.984 . S
H2105 N2098 0.984 . S
H2106 N2094 0.984 . S
H2107 N2094 0.985 . S
C2108 C2109 1.371 . S
C2108 C2114 1.371 1_455 S
C2108 N2116 1.359 . S
C2109 C2108 1.371 . S
C2109 C2115 1.363 . S
C2110 C2111 1.363 1_455 S
C2110 C2115 1.379 . S
C2110 N2117 1.356 . S
C2111 C2110 1.363 1_655 S
C2111 C2114 1.363 . S
N2112 C2114 1.356 . S
N2112 H2124 0.984 . S
N2112 H2125 0.985 . S
N2113 C2115 1.356 . S
N2113 H2118 0.984 . S
N2113 H2119 0.985 . S
C2114 C2108 1.371 1_655 S
C2114 C2111 1.363 . S
C2114 N2112 1.356 . S
C2115 C2109 1.363 . S
C2115 C2110 1.379 . S
C2115 N2113 1.356 . S
N2116 C2108 1.359 . S
N2116 H2122 0.984 1_455 S
N2116 H2123 0.984 . S
N2117 C2110 1.356 . S
N2117 H2120 0.984 1_455 S
N2117 H2121 0.985 . S
H2118 N2113 0.984 . S
H2119 N2113 0.985 . S
H2120 N2117 0.984 1_655 S
H2121 N2117 0.985 . S
H2122 N2116 0.984 1_655 S
H2123 N2116 0.984 . S
H2124 N2112 0.984 . S
H2125 N2112 0.985 . S
C2126 C2127 1.363 . S
C2126 C2132 1.379 . S
C2126 N2134 1.356 . S
C2127 C2126 1.363 . S
C2127 C2133 1.363 . S
C2128 C2129 1.363 . S
C2128 C2133 1.379 . S
C2128 N2135 1.356 . S
C2129 C2128 1.363 . S
C2129 C2132 1.363 . S
N2130 C2132 1.356 . S
N2130 H2142 0.984 . S
N2130 H2143 0.985 . S
N2131 C2133 1.356 . S
N2131 H2136 0.984 . S
N2131 H2137 0.985 . S
C2132 C2126 1.379 . S
C2132 C2129 1.363 . S
C2132 N2130 1.356 . S
C2133 C2127 1.363 . S
C2133 C2128 1.379 . S
C2133 N2131 1.356 . S
N2134 C2126 1.356 . S
N2134 H2140 0.984 . S
N2134 H2141 0.984 . S
N2135 C2128 1.356 . S
N2135 H2138 0.984 . S
N2135 H2139 0.985 . S
H2136 N2131 0.984 . S
H2137 N2131 0.985 . S
H2138 N2135 0.984 . S
H2139 N2135 0.985 . S
H2140 N2134 0.984 . S
H2141 N2134 0.984 . S
H2142 N2130 0.984 . S
H2143 N2130 0.985 . S
C2144 C2145 1.363 . S
C2144 C2150 1.379 . S
C2144 N2152 1.356 . S
C2145 C2144 1.363 . S
C2145 C2151 1.363 . S
C2146 C2147 1.363 . S
C2146 C2151 1.379 . S
C2146 N2153 1.356 . S
C2147 C2146 1.363 . S
C2147 C2150 1.363 . S
N2148 C2150 1.356 . S
N2148 H2160 0.984 . S
N2148 H2161 0.985 . S
N2149 C2151 1.356 . S
N2149 H2154 0.984 . S
N2149 H2155 0.985 . S
C2150 C2144 1.379 . S
C2150 C2147 1.363 . S
C2150 N2148 1.356 . S
C2151 C2145 1.363 . S
C2151 C2146 1.379 . S
C2151 N2149 1.356 . S
N2152 C2144 1.356 . S
N2152 H2158 0.984 . S
N2152 H2159 0.984 . S
N2153 C2146 1.356 . S
N2153 H2156 0.984 . S
N2153 H2157 0.985 . S
H2154 N2149 0.984 . S
H2155 N2149 0.985 . S
H2156 N2153 0.984 . S
H2157 N2153 0.985 . S
H2158 N2152 0.984 . S
H2159 N2152 0.984 . S
H2160 N2148 0.984 . S
H2161 N2148 0.985 . S
C2162 C2163 1.363 . S
C2162 C2168 1.379 . S
C2162 N2170 1.356 . S
C2163 C2162 1.363 . S
C2163 C2169 1.363 . S
C2164 C2165 1.363 . S
C2164 C2169 1.379 . S
C2164 N2171 1.356 . S
C2165 C2164 1.363 . S
C2165 C2168 1.363 . S
N2166 C2168 1.356 . S
N2166 H2178 0.984 . S
N2166 H2179 0.985 . S
N2167 C2169 1.356 . S
N2167 H2172 0.984 . S
N2167 H2173 0.985 . S
C2168 C2162 1.379 . S
C2168 C2165 1.363 . S
C2168 N2166 1.356 . S
C2169 C2163 1.363 . S
C2169 C2164 1.379 . S
C2169 N2167 1.356 . S
N2170 C2162 1.356 . S
N2170 H2176 0.984 . S
N2170 H2177 0.984 . S
N2171 C2164 1.356 . S
N2171 H2174 0.984 . S
N2171 H2175 0.985 . S
H2172 N2167 0.984 . S
H2173 N2167 0.985 . S
H2174 N2171 0.984 . S
H2175 N2171 0.985 . S
H2176 N2170 0.984 . S
H2177 N2170 0.984 . S
H2178 N2166 0.984 . S
H2179 N2166 0.985 . S
C2180 C2181 1.363 . S
C2180 C2186 1.379 . S
C2180 N2188 1.356 . S
C2181 C2180 1.363 . S
C2181 C2187 1.363 . S
C2182 C2183 1.363 . S
C2182 C2187 1.379 . S
C2182 N2189 1.356 . S
C2183 C2182 1.363 . S
C2183 C2186 1.363 . S
N2184 C2186 1.356 . S
N2184 H2196 0.984 . S
N2184 H2197 0.985 . S
N2185 C2187 1.356 . S
N2185 H2190 0.984 . S
N2185 H2191 0.985 . S
C2186 C2180 1.379 . S
C2186 C2183 1.363 . S
C2186 N2184 1.356 . S
C2187 C2181 1.363 . S
C2187 C2182 1.379 . S
C2187 N2185 1.356 . S
N2188 C2180 1.356 . S
N2188 H2194 0.984 . S
N2188 H2195 0.984 . S
N2189 C2182 1.356 . S
N2189 H2192 0.984 . S
N2189 H2193 0.985 . S
H2190 N2185 0.984 . S
H2191 N2185 0.985 . S
H2192 N2189 0.984 . S
H2193 N2189 0.985 . S
H2194 N2188 0.984 . S
H2195 N2188 0.984 . S
H2196 N2184 0.984 . S
H2197 N2184 0.985 . S
C2198 C2199 1.363 . S
C2198 C2204 1.379 . S
C2198 N2206 1.356 . S
C2199 C2198 1.363 . S
C2199 C2205 1.363 . S
C2200 C2201 1.363 . S
C2200 C2205 1.379 . S
C2200 N2207 1.356 . S
C2201 C2200 1.363 . S
C2201 C2204 1.363 . S
N2202 C2204 1.356 . S
N2202 H2214 0.984 . S
N2202 H2215 0.985 . S
N2203 C2205 1.356 . S
N2203 H2208 0.984 . S
N2203 H2209 0.985 . S
C2204 C2198 1.379 . S
C2204 C2201 1.363 . S
C2204 N2202 1.356 . S
C2205 C2199 1.363 . S
C2205 C2200 1.379 . S
C2205 N2203 1.356 . S
N2206 C2198 1.356 . S
N2206 H2212 0.984 . S
N2206 H2213 0.984 . S
N2207 C2200 1.356 . S
N2207 H2210 0.984 . S
N2207 H2211 0.985 . S
H2208 N2203 0.984 . S
H2209 N2203 0.985 . S
H2210 N2207 0.984 . S
H2211 N2207 0.985 . S
H2212 N2206 0.984 . S
H2213 N2206 0.984 . S
H2214 N2202 0.984 . S
H2215 N2202 0.985 . S
C2216 C2217 1.363 . S
C2216 C2222 1.379 . S
C2216 N2224 1.356 . S
C2217 C2216 1.363 . S
C2217 C2223 1.363 . S
C2218 C2219 1.363 . S
C2218 C2223 1.379 . S
C2218 N2225 1.356 . S
C2219 C2218 1.363 . S
C2219 C2222 1.363 . S
N2220 C2222 1.356 . S
N2220 H2232 0.984 . S
N2220 H2233 0.985 . S
N2221 C2223 1.356 . S
N2221 H2226 0.984 . S
N2221 H2227 0.985 . S
C2222 C2216 1.379 . S
C2222 C2219 1.363 . S
C2222 N2220 1.356 . S
C2223 C2217 1.363 . S
C2223 C2218 1.379 . S
C2223 N2221 1.356 . S
N2224 C2216 1.356 . S
N2224 H2230 0.984 . S
N2224 H2231 0.984 . S
N2225 C2218 1.356 . S
N2225 H2228 0.984 . S
N2225 H2229 0.985 . S
H2226 N2221 0.984 . S
H2227 N2221 0.985 . S
H2228 N2225 0.984 . S
H2229 N2225 0.985 . S
H2230 N2224 0.984 . S
H2231 N2224 0.984 . S
H2232 N2220 0.984 . S
H2233 N2220 0.985 . S
C2234 C2235 1.363 . S
C2234 C2240 1.379 . S
C2234 N2242 1.356 . S
C2235 C2234 1.363 . S
C2235 C2241 1.363 . S
C2236 C2237 1.363 . S
C2236 C2241 1.379 . S
C2236 N2243 1.356 . S
C2237 C2236 1.363 . S
C2237 C2240 1.363 . S
N2238 C2240 1.356 . S
N2238 H2250 0.984 . S
N2238 H2251 0.985 . S
N2239 C2241 1.356 . S
N2239 H2244 0.984 . S
N2239 H2245 0.985 . S
C2240 C2234 1.379 . S
C2240 C2237 1.363 . S
C2240 N2238 1.356 . S
C2241 C2235 1.363 . S
C2241 C2236 1.379 . S
C2241 N2239 1.356 . S
N2242 C2234 1.356 . S
N2242 H2248 0.984 . S
N2242 H2249 0.984 . S
N2243 C2236 1.356 . S
N2243 H2246 0.984 . S
N2243 H2247 0.985 . S
H2244 N2239 0.984 . S
H2245 N2239 0.985 . S
H2246 N2243 0.984 . S
H2247 N2243 0.985 . S
H2248 N2242 0.984 . S
H2249 N2242 0.984 . S
H2250 N2238 0.984 . S
H2251 N2238 0.985 . S
C2252 C2253 1.363 . S
C2252 C2258 1.379 . S
C2252 N2260 1.356 . S
C2253 C2252 1.363 . S
C2253 C2259 1.363 . S
C2254 C2255 1.363 . S
C2254 C2259 1.379 . S
C2254 N2261 1.356 . S
C2255 C2254 1.363 . S
C2255 C2258 1.363 . S
N2256 C2258 1.356 . S
N2256 H2268 0.984 . S
N2256 H2269 0.985 . S
N2257 C2259 1.356 . S
N2257 H2262 0.984 . S
N2257 H2263 0.985 . S
C2258 C2252 1.379 . S
C2258 C2255 1.363 . S
C2258 N2256 1.356 . S
C2259 C2253 1.363 . S
C2259 C2254 1.379 . S
C2259 N2257 1.356 . S
N2260 C2252 1.356 . S
N2260 H2266 0.984 . S
N2260 H2267 0.984 . S
N2261 C2254 1.356 . S
N2261 H2264 0.984 . S
N2261 H2265 0.985 . S
H2262 N2257 0.984 . S
H2263 N2257 0.985 . S
H2264 N2261 0.984 . S
H2265 N2261 0.985 . S
H2266 N2260 0.984 . S
H2267 N2260 0.984 . S
H2268 N2256 0.984 . S
H2269 N2256 0.985 . S
C2270 C2271 1.363 . S
C2270 C2276 1.379 . S
C2270 N2278 1.356 . S
C2271 C2270 1.363 . S
C2271 C2277 1.363 . S
C2272 C2273 1.363 . S
C2272 C2277 1.379 . S
C2272 N2279 1.356 . S
C2273 C2272 1.363 . S
C2273 C2276 1.363 . S
N2274 C2276 1.356 . S
N2274 H2286 0.984 . S
N2274 H2287 0.985 . S
N2275 C2277 1.356 . S
N2275 H2280 0.984 . S
N2275 H2281 0.985 . S
C2276 C2270 1.379 . S
C2276 C2273 1.363 . S
C2276 N2274 1.356 . S
C2277 C2271 1.363 . S
C2277 C2272 1.379 . S
C2277 N2275 1.356 . S
N2278 C2270 1.356 . S
N2278 H2284 0.984 . S
N2278 H2285 0.984 . S
N2279 C2272 1.356 . S
N2279 H2282 0.984 . S
N2279 H2283 0.985 . S
H2280 N2275 0.984 . S
H2281 N2275 0.985 . S
H2282 N2279 0.984 . S
H2283 N2279 0.985 . S
H2284 N2278 0.984 . S
H2285 N2278 0.984 . S
H2286 N2274 0.984 . S
H2287 N2274 0.985 . S
C2288 C2289 1.363 . S
C2288 C2294 1.379 . S
C2288 N2296 1.356 . S
C2289 C2288 1.363 . S
C2289 C2295 1.363 . S
C2290 C2291 1.363 . S
C2290 C2295 1.379 . S
C2290 N2297 1.356 . S
C2291 C2290 1.363 . S
C2291 C2294 1.363 . S
N2292 C2294 1.356 . S
N2292 H2304 0.984 . S
N2292 H2305 0.985 . S
N2293 C2295 1.356 . S
N2293 H2298 0.984 . S
N2293 H2299 0.985 . S
C2294 C2288 1.379 . S
C2294 C2291 1.363 . S
C2294 N2292 1.356 . S
C2295 C2289 1.363 . S
C2295 C2290 1.379 . S
C2295 N2293 1.356 . S
N2296 C2288 1.356 . S
N2296 H2302 0.984 . S
N2296 H2303 0.984 . S
N2297 C2290 1.356 . S
N2297 H2300 0.984 . S
N2297 H2301 0.985 . S
H2298 N2293 0.984 . S
H2299 N2293 0.985 . S
H2300 N2297 0.984 . S
H2301 N2297 0.985 . S
H2302 N2296 0.984 . S
H2303 N2296 0.984 . S
H2304 N2292 0.984 . S
H2305 N2292 0.985 . S
C2306 C2307 1.363 . S
C2306 C2312 1.379 . S
C2306 N2314 1.356 . S
C2307 C2306 1.363 . S
C2307 C2313 1.363 . S
C2308 C2309 1.363 . S
C2308 C2313 1.379 . S
C2308 N2315 1.356 . S
C2309 C2308 1.363 . S
C2309 C2312 1.363 . S
N2310 C2312 1.356 . S
N2310 H2322 0.984 . S
N2310 H2323 0.985 . S
N2311 C2313 1.356 . S
N2311 H2316 0.984 . S
N2311 H2317 0.985 . S
C2312 C2306 1.379 . S
C2312 C2309 1.363 . S
C2312 N2310 1.356 . S
C2313 C2307 1.363 . S
C2313 C2308 1.379 . S
C2313 N2311 1.356 . S
N2314 C2306 1.356 . S
N2314 H2320 0.984 . S
N2314 H2321 0.984 . S
N2315 C2308 1.356 . S
N2315 H2318 0.984 . S
N2315 H2319 0.985 . S
H2316 N2311 0.984 . S
H2317 N2311 0.985 . S
H2318 N2315 0.984 . S
H2319 N2315 0.985 . S
H2320 N2314 0.984 . S
H2321 N2314 0.984 . S
H2322 N2310 0.984 . S
H2323 N2310 0.985 . S
C2324 C2325 1.363 . S
C2324 C2330 1.379 . S
C2324 N2332 1.356 . S
C2325 C2324 1.363 . S
C2325 C2331 1.363 . S
C2326 C2327 1.363 . S
C2326 C2331 1.379 . S
C2326 N2333 1.356 . S
C2327 C2326 1.363 . S
C2327 C2330 1.363 . S
N2328 C2330 1.356 . S
N2328 H2340 0.984 . S
N2328 H2341 0.985 . S
N2329 C2331 1.356 . S
N2329 H2334 0.984 . S
N2329 H2335 0.985 . S
C2330 C2324 1.379 . S
C2330 C2327 1.363 . S
C2330 N2328 1.356 . S
C2331 C2325 1.363 . S
C2331 C2326 1.379 . S
C2331 N2329 1.356 . S
N2332 C2324 1.356 . S
N2332 H2338 0.984 . S
N2332 H2339 0.984 . S
N2333 C2326 1.356 . S
N2333 H2336 0.984 . S
N2333 H2337 0.985 . S
H2334 N2329 0.984 . S
H2335 N2329 0.985 . S
H2336 N2333 0.984 . S
H2337 N2333 0.985 . S
H2338 N2332 0.984 . S
H2339 N2332 0.984 . S
H2340 N2328 0.984 . S
H2341 N2328 0.985 . S
C2342 C2343 1.363 1_556 S
C2342 C2348 1.379 . S
C2342 N2350 1.357 . S
C2343 C2342 1.363 1_554 S
C2343 C2349 1.363 . S
C2344 C2345 1.363 1_554 S
C2344 C2349 1.379 . S
C2344 N2351 1.356 . S
C2345 C2344 1.363 1_556 S
C2345 C2348 1.363 . S
N2346 C2348 1.356 1_545 S
N2346 H2358 0.984 . S
N2346 H2359 0.985 . S
N2347 C2349 1.356 . S
N2347 H2352 0.984 . S
N2347 H2353 0.985 . S
C2348 C2342 1.379 . S
C2348 C2345 1.363 . S
C2348 N2346 1.356 1_565 S
C2349 C2343 1.363 . S
C2349 C2344 1.379 . S
C2349 N2347 1.356 . S
N2350 C2342 1.357 . S
N2350 H2356 0.995 . S
N2350 H2357 0.974 1_556 S
N2351 C2344 1.356 . S
N2351 H2354 0.984 1_554 S
N2351 H2355 0.985 . S
H2352 N2347 0.984 . S
H2353 N2347 0.985 . S
H2354 N2351 0.984 1_556 S
H2355 N2351 0.985 . S
H2356 N2350 0.995 . S
H2357 N2350 0.974 1_554 S
H2358 N2346 0.984 . S
H2359 N2346 0.985 . S
C2360 C2361 1.363 . S
C2360 C2366 1.379 . S
C2360 N2368 1.356 . S
C2361 C2360 1.363 . S
C2361 C2367 1.363 . S
C2362 C2363 1.363 . S
C2362 C2367 1.379 . S
C2362 N2369 1.356 . S
C2363 C2362 1.363 . S
C2363 C2366 1.363 . S
N2364 C2366 1.356 . S
N2364 H2376 0.984 . S
N2364 H2377 0.985 . S
N2365 C2367 1.356 . S
N2365 H2370 0.984 . S
N2365 H2371 0.985 . S
C2366 C2360 1.379 . S
C2366 C2363 1.363 . S
C2366 N2364 1.356 . S
C2367 C2361 1.363 . S
C2367 C2362 1.379 . S
C2367 N2365 1.356 . S
N2368 C2360 1.356 . S
N2368 H2374 0.984 . S
N2368 H2375 0.984 . S
N2369 C2362 1.356 . S
N2369 H2372 0.984 . S
N2369 H2373 0.985 . S
H2370 N2365 0.984 . S
H2371 N2365 0.985 . S
H2372 N2369 0.984 . S
H2373 N2369 0.985 . S
H2374 N2368 0.984 . S
H2375 N2368 0.984 . S
H2376 N2364 0.984 . S
H2377 N2364 0.985 . S
C2378 C2379 1.363 . S
C2378 C2384 1.379 . S
C2378 N2386 1.356 . S
C2379 C2378 1.363 . S
C2379 C2385 1.363 . S
C2380 C2381 1.363 . S
C2380 C2385 1.379 . S
C2380 N2387 1.356 . S
C2381 C2380 1.363 . S
C2381 C2384 1.363 . S
N2382 C2384 1.356 . S
N2382 H2394 0.984 . S
N2382 H2395 0.985 . S
N2383 C2385 1.356 1_556 S
N2383 H2388 0.984 . S
N2383 H2389 0.985 . S
C2384 C2378 1.379 . S
C2384 C2381 1.363 . S
C2384 N2382 1.356 . S
C2385 C2379 1.363 . S
C2385 C2380 1.379 . S
C2385 N2383 1.356 1_554 S
N2386 C2378 1.356 . S
N2386 H2392 0.984 . S
N2386 H2393 0.984 . S
N2387 C2380 1.356 . S
N2387 H2390 0.984 . S
N2387 H2391 0.985 1_554 S
H2388 N2383 0.984 . S
H2389 N2383 0.985 . S
H2390 N2387 0.984 . S
H2391 N2387 0.985 1_556 S
H2392 N2386 0.984 . S
H2393 N2386 0.984 . S
H2394 N2382 0.984 . S
H2395 N2382 0.985 . S
C2396 C2397 1.363 . S
C2396 C2402 1.379 . S
C2396 N2404 1.356 . S
C2397 C2396 1.363 . S
C2397 C2403 1.363 . S
C2398 C2399 1.363 . S
C2398 C2403 1.379 . S
C2398 N2405 1.356 . S
C2399 C2398 1.363 . S
C2399 C2402 1.363 . S
N2400 C2402 1.356 . S
N2400 H2412 0.984 . S
N2400 H2413 0.985 . S
N2401 C2403 1.356 . S
N2401 H2406 0.984 . S
N2401 H2407 0.985 . S
C2402 C2396 1.379 . S
C2402 C2399 1.363 . S
C2402 N2400 1.356 . S
C2403 C2397 1.363 . S
C2403 C2398 1.379 . S
C2403 N2401 1.356 . S
N2404 C2396 1.356 . S
N2404 H2410 0.984 . S
N2404 H2411 0.984 . S
N2405 C2398 1.356 . S
N2405 H2408 0.984 . S
N2405 H2409 0.985 . S
H2406 N2401 0.984 . S
H2407 N2401 0.985 . S
H2408 N2405 0.984 . S
H2409 N2405 0.985 . S
H2410 N2404 0.984 . S
H2411 N2404 0.984 . S
H2412 N2400 0.984 . S
H2413 N2400 0.985 . S
C2414 C2415 1.363 . S
C2414 C2420 1.379 . S
C2414 N2422 1.356 . S
C2415 C2414 1.363 . S
C2415 C2421 1.363 . S
C2416 C2417 1.363 . S
C2416 C2421 1.379 . S
C2416 N2423 1.356 . S
C2417 C2416 1.363 . S
C2417 C2420 1.363 . S
N2418 C2420 1.356 . S
N2418 H2430 0.984 . S
N2418 H2431 0.985 . S
N2419 C2421 1.356 . S
N2419 H2424 0.984 . S
N2419 H2425 0.985 . S
C2420 C2414 1.379 . S
C2420 C2417 1.363 . S
C2420 N2418 1.356 . S
C2421 C2415 1.363 . S
C2421 C2416 1.379 . S
C2421 N2419 1.356 . S
N2422 C2414 1.356 . S
N2422 H2428 0.984 . S
N2422 H2429 0.984 . S
N2423 C2416 1.356 . S
N2423 H2426 0.984 . S
N2423 H2427 0.985 . S
H2424 N2419 0.984 . S
H2425 N2419 0.985 . S
H2426 N2423 0.984 . S
H2427 N2423 0.985 . S
H2428 N2422 0.984 . S
H2429 N2422 0.984 . S
H2430 N2418 0.984 . S
H2431 N2418 0.985 . S
C707 C352 1.370 . S
C705 C8 1.379 . S
C723 C22 1.933 . S
C725 C380 1.716 . S
C741 C35 1.112 . S
C743 C398 1.123 . S
C761 C424 1.415 . S
C759 C49 1.539 . S
C777 C23 2.000 . S
C779 C447 1.723 . S
C797 C467 1.111 . S
C795 C34 1.101 . S
C815 C495 1.371 1_556 S
C813 C48 1.469 . S
C831 C9 1.389 . S
C833 C513 1.378 . S
C849 C64 1.548 . S
C851 C354 1.570 . S
C867 C77 1.159 . S
C869 C376 1.190 . S
C887 C400 1.706 . S
C885 C92 1.676 . S
C905 C421 1.347 . S
C903 C105 1.315 . S
C921 C63 1.221 . S
C923 C444 1.251 . S
C941 C469 1.712 . S
C939 C78 1.685 . S
C959 C491 1.286 . S
C957 C91 1.252 . S
C977 C515 1.565 . S
C975 C106 1.540 . S
C995 C355 1.224 . S
C993 C107 1.405 . S
C1013 C538 1.255 . S
C1011 C118 1.207 . S
C1029 C135 1.491 . S
C1031 C562 1.324 . S
C1049 C586 1.281 . S
C1047 C146 1.280 . S
C1065 C65 1.410 . S
C1067 C516 1.229 . S
C1085 C401 1.324 1_565 S
C1083 C79 1.539 . S
C1101 C132 1.286 . S
C1103 C607 1.347 . S
C1121 C632 1.198 . S
C1119 C160 1.201 . S
C1137 C177 1.448 . S
C1139 C353 1.396 . S
C1157 C630 1.159 . S
C1155 C188 1.146 . S
C1173 C204 1.489 . S
C1175 C399 1.440 . S
C1191 C219 1.231 . S
C1193 C609 1.172 . S
C1211 C448 1.207 . S
C1209 C190 1.262 . S
C1229 C560 1.247 . S
C1227 C202 1.229 . S
C1247 C492 1.158 . S
C1245 C217 1.147 . S
C1265 C652 1.250 . S
C1263 C175 1.229 . S
C1283 C357 1.113 . S
C1281 C231 1.182 . S
C1299 C246 1.574 . S
C1301 C628 1.510 . S
C1319 C403 1.078 . S
C1317 C259 1.160 . S
C1335 C274 1.538 . S
C1337 C606 1.487 . S
C1353 C232 1.539 . S
C1355 C445 1.483 . S
C1371 C245 1.195 . S
C1373 C564 1.078 . S
C1391 C490 1.409 . S
C1389 C260 1.470 . S
C1407 C273 1.201 . S
C1409 C656 1.087 . S
C1425 C275 1.588 . S
C1427 C356 1.500 . S
C1443 C286 1.368 . S
C1445 C541 1.307 1_556 S
C1461 C303 1.550 . S
C1463 C471 1.472 . S
C1479 C314 1.291 . S
C1481 C585 1.179 . S
C1499 C655 1.462 . S
C1497 C233 1.556 . S
C1517 C402 1.486 . S
C1515 C247 1.564 . S
C1535 C426 1.240 . S
C1533 C300 1.315 . S
C1553 C378 1.219 . S
C1551 C328 1.355 . S
C1569 C36 1.367 . S
C1571 C674 1.357 . S
C1589 C633 1.715 . S
C1587 C50 1.930 . S
C1607 C697 1.120 . S
C1605 C7 1.112 . S
C1623 C21 1.545 . S
C1625 C608 1.425 . S
C1641 C51 2.001 . S
C1643 C539 1.729 1_556 S
C1661 C559 1.106 . S
C1659 C6 1.100 . S
C1679 C587 1.374 . S
C1677 C20 1.471 . S
C1697 C651 1.366 . S
C1695 C37 1.378 . S
C1715 C676 1.562 . S
C1713 C162 1.561 . S
C1731 C119 1.149 . S
C1733 C629 1.187 . S
C1749 C134 1.694 . S
C1751 C699 1.700 . S
C1769 C605 1.348 . S
C1767 C147 1.307 . S
C1787 C536 1.254 . S
C1785 C161 1.216 . S
C1803 C120 1.705 . S
C1805 C561 1.709 . S
C1823 C583 1.281 . S
C1821 C133 1.239 . S
C1839 C148 1.551 . S
C1841 C653 1.555 . S
C1859 C677 1.234 . S
C1857 C149 1.369 . S
C1877 C446 1.205 . S
C1875 C76 1.156 . S
C1895 C470 1.319 . S
C1893 C93 1.536 . S
C1911 C104 1.232 . S
C1913 C494 1.238 . S
C1931 C654 1.238 . S
C1929 C163 1.373 . S
C1947 C121 1.494 . S
C1949 C700 1.328 . S
C1967 C423 1.299 . S
C1965 C90 1.235 . S
C1985 C379 1.155 . S
C1983 C62 1.154 . S
C2001 C203 1.214 . S
C2003 C675 1.232 . S
C2021 C377 1.174 . S
C2019 C216 1.158 . S
C2039 C698 1.264 1_556 S
C2037 C174 1.242 . S
C2055 C191 1.253 . S
C2057 C425 1.203 . S
C2073 C218 1.240 . S
C2075 C540 1.176 . S
C2091 C176 1.465 . S
C2093 C468 1.416 . S
C2109 C189 1.134 . S
C2111 C584 1.142 . S
C2127 C205 1.474 . S
C2129 C514 1.422 . S
C2147 C679 1.095 . S
C2145 C329 1.205 . S
C2163 C288 1.533 . S
C2165 C375 1.465 . S
C2183 C702 1.068 . S
C2181 C301 1.192 . S
C2199 C316 1.484 . S
C2201 C422 1.435 . S
C2217 C330 1.590 . S
C2219 C537 1.537 . S
C2237 C472 1.092 . S
C2235 C287 1.168 . S
C2253 C302 1.513 . S
C2255 C582 1.455 . S
C2273 C518 1.097 . S
C2271 C315 1.173 . S
C2291 C678 1.451 . S
C2289 C317 1.544 . S
C2309 C449 1.296 . S
C2307 C244 1.372 . S
C2325 C261 1.500 . S
C2327 C563 1.416 . S
C2345 C493 1.172 . S
C2343 C272 1.294 . S
C2363 C517 1.514 . S
C2361 C331 1.602 . S
C2379 C289 1.511 . S
C2381 C701 1.428 . S
C2399 C610 1.253 . S
C2397 C258 1.311 . S
C2417 C631 1.233 . S
C2415 C230 1.352 . S
