# Generated by pormake.
# Topology ocu, (6,8)-cn, num edge types: 1
# Building blocks:
#     Node 0, Type 0, BuildingBlock: CUKXOW_clean_sbu_0, # of connection points: 6
#     Node 1, Type 0, BuildingBlock: CUKXOW_clean_sbu_0, # of connection points: 6
#     Node 2, Type 0, BuildingBlock: CUKXOW_clean_sbu_0, # of connection points: 6
#     Node 3, Type 0, BuildingBlock: CUKXOW_clean_sbu_0, # of connection points: 6
#     Node 4, Type 0, BuildingBlock: CUKXOW_clean_sbu_0, # of connection points: 6
#     Node 5, Type 0, BuildingBlock: CUKXOW_clean_sbu_0, # of connection points: 6
#     Node 6, Type 0, BuildingBlock: CUKXOW_clean_sbu_0, # of connection points: 6
#     Node 7, Type 0, BuildingBlock: CUKXOW_clean_sbu_0, # of connection points: 6
#     Node 8, Type 1, BuildingBlock: VETTIZ_charged_sbu_0, # of connection points: 8
#     Node 9, Type 1, BuildingBlock: VETTIZ_charged_sbu_0, # of connection points: 8
#     Node 10, Type 1, BuildingBlock: VETTIZ_charged_sbu_0, # of connection points: 8
#     Node 11, Type 1, BuildingBlock: VETTIZ_charged_sbu_0, # of connection points: 8
#     Node 12, Type 1, BuildingBlock: VETTIZ_charged_sbu_0, # of connection points: 8
#     Node 13, Type 1, BuildingBlock: VETTIZ_charged_sbu_0, # of connection points: 8
#     Edge 14, Type (0, 1), BuildingBlock: UVAHIK_clean_linker_0, # of connection points: 2
#     Edge 15, Type (0, 1), BuildingBlock: UVAHIK_clean_linker_0, # of connection points: 2
#     Edge 16, Type (0, 1), BuildingBlock: UVAHIK_clean_linker_0, # of connection points: 2
#     Edge 17, Type (0, 1), BuildingBlock: UVAHIK_clean_linker_0, # of connection points: 2
#     Edge 18, Type (0, 1), BuildingBlock: UVAHIK_clean_linker_0, # of connection points: 2
#     Edge 19, Type (0, 1), BuildingBlock: UVAHIK_clean_linker_0, # of connection points: 2
#     Edge 20, Type (0, 1), BuildingBlock: UVAHIK_clean_linker_0, # of connection points: 2
#     Edge 21, Type (0, 1), BuildingBlock: UVAHIK_clean_linker_0, # of connection points: 2
#     Edge 22, Type (0, 1), BuildingBlock: UVAHIK_clean_linker_0, # of connection points: 2
#     Edge 23, Type (0, 1), BuildingBlock: UVAHIK_clean_linker_0, # of connection points: 2
#     Edge 24, Type (0, 1), BuildingBlock: UVAHIK_clean_linker_0, # of connection points: 2
#     Edge 25, Type (0, 1), BuildingBlock: UVAHIK_clean_linker_0, # of connection points: 2
#     Edge 26, Type (0, 1), BuildingBlock: UVAHIK_clean_linker_0, # of connection points: 2
#     Edge 27, Type (0, 1), BuildingBlock: UVAHIK_clean_linker_0, # of connection points: 2
#     Edge 28, Type (0, 1), BuildingBlock: UVAHIK_clean_linker_0, # of connection points: 2
#     Edge 29, Type (0, 1), BuildingBlock: UVAHIK_clean_linker_0, # of connection points: 2
#     Edge 30, Type (0, 1), BuildingBlock: UVAHIK_clean_linker_0, # of connection points: 2
#     Edge 31, Type (0, 1), BuildingBlock: UVAHIK_clean_linker_0, # of connection points: 2
#     Edge 32, Type (0, 1), BuildingBlock: UVAHIK_clean_linker_0, # of connection points: 2
#     Edge 33, Type (0, 1), BuildingBlock: UVAHIK_clean_linker_0, # of connection points: 2
#     Edge 34, Type (0, 1), BuildingBlock: UVAHIK_clean_linker_0, # of connection points: 2
#     Edge 35, Type (0, 1), BuildingBlock: UVAHIK_clean_linker_0, # of connection points: 2
#     Edge 36, Type (0, 1), BuildingBlock: UVAHIK_clean_linker_0, # of connection points: 2
#     Edge 37, Type (0, 1), BuildingBlock: UVAHIK_clean_linker_0, # of connection points: 2
#     Edge 38, Type (0, 1), BuildingBlock: UVAHIK_clean_linker_0, # of connection points: 2
#     Edge 39, Type (0, 1), BuildingBlock: UVAHIK_clean_linker_0, # of connection points: 2
#     Edge 40, Type (0, 1), BuildingBlock: UVAHIK_clean_linker_0, # of connection points: 2
#     Edge 41, Type (0, 1), BuildingBlock: UVAHIK_clean_linker_0, # of connection points: 2
#     Edge 42, Type (0, 1), BuildingBlock: UVAHIK_clean_linker_0, # of connection points: 2
#     Edge 43, Type (0, 1), BuildingBlock: UVAHIK_clean_linker_0, # of connection points: 2
#     Edge 44, Type (0, 1), BuildingBlock: UVAHIK_clean_linker_0, # of connection points: 2
#     Edge 45, Type (0, 1), BuildingBlock: UVAHIK_clean_linker_0, # of connection points: 2
#     Edge 46, Type (0, 1), BuildingBlock: UVAHIK_clean_linker_0, # of connection points: 2
#     Edge 47, Type (0, 1), BuildingBlock: UVAHIK_clean_linker_0, # of connection points: 2
#     Edge 48, Type (0, 1), BuildingBlock: UVAHIK_clean_linker_0, # of connection points: 2
#     Edge 49, Type (0, 1), BuildingBlock: UVAHIK_clean_linker_0, # of connection points: 2
#     Edge 50, Type (0, 1), BuildingBlock: UVAHIK_clean_linker_0, # of connection points: 2
#     Edge 51, Type (0, 1), BuildingBlock: UVAHIK_clean_linker_0, # of connection points: 2
#     Edge 52, Type (0, 1), BuildingBlock: UVAHIK_clean_linker_0, # of connection points: 2
#     Edge 53, Type (0, 1), BuildingBlock: UVAHIK_clean_linker_0, # of connection points: 2
#     Edge 54, Type (0, 1), BuildingBlock: UVAHIK_clean_linker_0, # of connection points: 2
#     Edge 55, Type (0, 1), BuildingBlock: UVAHIK_clean_linker_0, # of connection points: 2
#     Edge 56, Type (0, 1), BuildingBlock: UVAHIK_clean_linker_0, # of connection points: 2
#     Edge 57, Type (0, 1), BuildingBlock: UVAHIK_clean_linker_0, # of connection points: 2
#     Edge 58, Type (0, 1), BuildingBlock: UVAHIK_clean_linker_0, # of connection points: 2
#     Edge 59, Type (0, 1), BuildingBlock: UVAHIK_clean_linker_0, # of connection points: 2
#     Edge 60, Type (0, 1), BuildingBlock: UVAHIK_clean_linker_0, # of connection points: 2
#     Edge 61, Type (0, 1), BuildingBlock: UVAHIK_clean_linker_0, # of connection points: 2
# Relax obj value: 0.089
# Max RMSD: 0.203
# Mean RMSD: 0.123
data_MOF--net-ocu--node1-CUKXOW_clean_sbu_0--node2-VETTIZ_charged_sbu_0--edge1-UVAHIK_clean_linker_0
_symmetry_space_group_name_H-M    P1
_symmetry_Int_Tables_number       1
_symmetry_cell_setting            triclinic
loop_
_symmetry_equiv_pos_as_xyz
'x, y, z'
_cell_length_a     45.929418
_cell_length_b     48.974401
_cell_length_c     47.903113
_cell_angle_alpha  91.623969
_cell_angle_beta   91.787456
_cell_angle_gamma 89.825491
loop_
_atom_site_label
_atom_site_type_symbol
_atom_site_fract_x
_atom_site_fract_y
_atom_site_fract_z
_atom_type_partial_charge
Tb0 Tb 0.27178 0.22703 0.22554 0.0
C1 C 0.3017 0.28437 0.21212 0.0
Tb2 Tb 0.26046 0.28008 0.26492 0.0
O3 O 0.2404 0.23665 0.19135 0.0
O4 O 0.24574 0.26209 0.22637 0.0
O5 O 0.30067 0.25734 0.2072 0.0
C6 C 0.23993 0.32647 0.28577 0.0
O7 O 0.28656 0.29707 0.232 0.0
C8 C 0.29862 0.24438 0.28648 0.0
C9 C 0.22645 0.22503 0.27592 0.0
O10 O 0.26737 0.32002 0.28522 0.0
O11 O 0.2241 0.30675 0.27482 0.0
O12 O 0.29097 0.26684 0.29947 0.0
O13 O 0.28549 0.24507 0.26324 0.0
O14 O 0.22777 0.25209 0.27988 0.0
O15 O 0.24276 0.21124 0.25751 0.0
C16 C 0.30479 0.18414 0.21409 0.0
O17 O 0.27644 0.18438 0.2111 0.0
O18 O 0.31412 0.20809 0.22226 0.0
C19 C 0.23196 0.25971 0.20312 0.0
Tb20 Tb 0.74376 0.25623 0.29282 0.0
C21 C 0.73325 0.22578 0.23409 0.0
Tb22 Tb 0.78458 0.26682 0.24448 0.0
O23 O 0.70665 0.28269 0.2805 0.0
O24 O 0.74312 0.27964 0.2568 0.0
O25 O 0.72969 0.22549 0.2615 0.0
C26 C 0.81758 0.28889 0.20641 0.0
O27 O 0.75212 0.24193 0.22224 0.0
C28 C 0.80005 0.22603 0.27731 0.0
C29 C 0.78638 0.30548 0.29876 0.0
O30 O 0.78955 0.28579 0.20411 0.0
O31 O 0.82701 0.27914 0.22988 0.0
O32 O 0.805 0.22679 0.25078 0.0
O33 O 0.7884 0.24852 0.28447 0.0
O34 O 0.79129 0.30287 0.27167 0.0
O35 O 0.77129 0.28742 0.31238 0.0
C36 C 0.7256 0.23124 0.33737 0.0
O37 O 0.72292 0.25725 0.3332 0.0
O38 O 0.73793 0.21933 0.31625 0.0
C39 C 0.71842 0.29106 0.25787 0.0
Tb40 Tb 0.75859 0.78047 0.22511 0.0
C41 C 0.72671 0.7243 0.22418 0.0
Tb42 Tb 0.77737 0.73804 0.26829 0.0
O43 O 0.78656 0.7677 0.19019 0.0
O44 O 0.78773 0.74722 0.22711 0.0
O45 O 0.72398 0.75064 0.21922 0.0
C46 C 0.79116 0.69457 0.29802 0.0
O47 O 0.74805 0.71447 0.24029 0.0
C48 C 0.74526 0.7795 0.28717 0.0
C49 C 0.81349 0.79162 0.26573 0.0
O50 O 0.76608 0.7068 0.29762 0.0
O51 O 0.80863 0.70681 0.28159 0.0
O52 O 0.76499 0.76688 0.30187 0.0
O53 O 0.74279 0.7672 0.26364 0.0
O54 O 0.81457 0.76542 0.27215 0.0
O55 O 0.79236 0.80203 0.24972 0.0
C56 C 0.72853 0.8234 0.2077 0.0
O57 O 0.74545 0.8231 0.22986 0.0
O58 O 0.72969 0.79985 0.19457 0.0
C59 C 0.79804 0.74686 0.20292 0.0
Tb60 Tb 0.27736 0.75524 0.24792 0.0
C61 C 0.30587 0.75628 0.30772 0.0
Tb62 Tb 0.251 0.71839 0.29362 0.0
O63 O 0.26403 0.79259 0.27095 0.0
O64 O 0.24141 0.75641 0.27506 0.0
O65 O 0.31071 0.75825 0.28073 0.0
C66 C 0.2193 0.705 0.33681 0.0
O67 O 0.28246 0.74416 0.31722 0.0
C68 C 0.291 0.69152 0.26377 0.0
C69 C 0.2207 0.72078 0.23352 0.0
O70 O 0.24192 0.72081 0.33819 0.0
O71 O 0.21495 0.69612 0.3112 0.0
O72 O 0.27732 0.68087 0.28427 0.0
O73 O 0.28177 0.71562 0.26258 0.0
O74 O 0.21707 0.71693 0.26059 0.0
O75 O 0.2444 0.73212 0.2237 0.0
C76 C 0.30588 0.77237 0.20432 0.0
O77 O 0.27912 0.7788 0.20982 0.0
O78 O 0.31649 0.75662 0.22345 0.0
C79 C 0.24391 0.78057 0.28467 0.0
Tb80 Tb 0.25246 0.75783 0.77261 0.0
C81 C 0.23977 0.72158 0.71727 0.0
Tb82 Tb 0.28955 0.76617 0.71746 0.0
O83 O 0.21617 0.78574 0.76018 0.0
O84 O 0.24959 0.77766 0.73441 0.0
O85 O 0.23715 0.72466 0.74475 0.0
C86 C 0.30353 0.78871 0.67021 0.0
O87 O 0.25642 0.7373 0.70218 0.0
C88 C 0.31501 0.73167 0.75296 0.0
C89 C 0.30494 0.80027 0.77388 0.0
O90 O 0.30792 0.76319 0.67591 0.0
O91 O 0.29217 0.80153 0.69132 0.0
O92 O 0.32528 0.73741 0.72871 0.0
O93 O 0.29198 0.7456 0.75505 0.0
O94 O 0.3077 0.79749 0.74629 0.0
O95 O 0.28639 0.78585 0.78852 0.0
C96 C 0.23255 0.73342 0.81701 0.0
O97 O 0.22764 0.75879 0.81098 0.0
O98 O 0.24905 0.72222 0.79841 0.0
C99 C 0.22619 0.79108 0.7358 0.0
Tb100 Tb 0.25236 0.28271 0.72544 0.0
C101 C 0.21292 0.23132 0.72516 0.0
Tb102 Tb 0.26447 0.24018 0.76919 0.0
O103 O 0.26338 0.25313 0.69205 0.0
O104 O 0.28372 0.25069 0.73112 0.0
O105 O 0.21339 0.25773 0.71969 0.0
C106 C 0.2886 0.19819 0.79498 0.0
O107 O 0.23341 0.21957 0.74081 0.0
C108 C 0.22818 0.27726 0.79056 0.0
C109 C 0.30025 0.29432 0.77398 0.0
O110 O 0.26099 0.20386 0.79428 0.0
O111 O 0.30236 0.21596 0.78092 0.0
O112 O 0.2382 0.25614 0.80354 0.0
O113 O 0.23889 0.27628 0.76646 0.0
O114 O 0.2979 0.26903 0.78257 0.0
O115 O 0.28373 0.30427 0.75339 0.0
C116 C 0.24313 0.32734 0.69616 0.0
O117 O 0.26669 0.31271 0.696 0.0
O118 O 0.22453 0.31668 0.71258 0.0
C119 C 0.28114 0.23884 0.70735 0.0
Tb120 Tb 0.77126 0.28032 0.71925 0.0
C121 C 0.79881 0.28051 0.78104 0.0
Tb122 Tb 0.74671 0.24063 0.76345 0.0
O123 O 0.74372 0.31638 0.72902 0.0
O124 O 0.73962 0.28085 0.75002 0.0
O125 O 0.8015 0.28741 0.75456 0.0
C126 C 0.71692 0.21662 0.80313 0.0
O127 O 0.77789 0.26422 0.78962 0.0
C128 C 0.78241 0.21822 0.72628 0.0
C129 C 0.71983 0.23988 0.70301 0.0
O130 O 0.74383 0.2113 0.79711 0.0
O131 O 0.70721 0.23594 0.78731 0.0
O132 O 0.76315 0.20475 0.73963 0.0
O133 O 0.78282 0.24224 0.73649 0.0
O134 O 0.71422 0.23767 0.72979 0.0
O135 O 0.74342 0.25226 0.69435 0.0
C136 C 0.80404 0.29845 0.67854 0.0
O137 O 0.77695 0.29117 0.67557 0.0
O138 O 0.81238 0.29603 0.70446 0.0
C139 C 0.72984 0.30492 0.74887 0.0
Tb140 Tb 0.75502 0.73154 0.72879 0.0
C141 C 0.79325 0.78419 0.71817 0.0
Tb142 Tb 0.75203 0.7826 0.77076 0.0
O143 O 0.72074 0.74655 0.69863 0.0
O144 O 0.73291 0.76831 0.73339 0.0
O145 O 0.78968 0.75742 0.7136 0.0
C146 C 0.73018 0.82839 0.79153 0.0
O147 O 0.77872 0.7984 0.73747 0.0
C148 C 0.79195 0.74754 0.7885 0.0
C149 C 0.72011 0.72671 0.78532 0.0
O150 O 0.75778 0.82246 0.7916 0.0
O151 O 0.71507 0.80835 0.78033 0.0
O152 O 0.786 0.77069 0.80117 0.0
O153 O 0.77561 0.74578 0.76669 0.0
O154 O 0.72238 0.75366 0.79036 0.0
O155 O 0.73324 0.71398 0.76417 0.0
C156 C 0.76907 0.68653 0.7007 0.0
O157 O 0.74419 0.6907 0.71224 0.0
O158 O 0.78614 0.70732 0.70557 0.0
C159 C 0.71645 0.76947 0.71217 0.0
Fe160 Fe 0.01321 0.03733 0.50091 0.0
O161 O 0.9912 0.00693 0.51773 0.0
Fe162 Fe 0.07943 1.00416 0.48639 0.0
Fe163 Fe 0.94866 1.00535 0.51676 0.0
O164 O 0.03612 1.00586 0.48445 0.0
O165 O 0.03696 1.00244 0.48585 0.0
O166 O 0.99189 1.00358 0.5189 0.0
Fe167 Fe 0.01522 0.9721 0.50307 0.0
C168 C 0.96632 0.06072 0.54246 0.0
O169 O 0.98513 0.03877 0.46585 0.0
O170 O 0.94328 0.03555 0.48742 0.0
O171 O 0.04294 0.94353 0.48181 0.0
O172 O 0.07444 0.97123 0.45875 0.0
O173 O 0.07379 0.0351 0.45834 0.0
O174 O 0.04091 0.06452 0.47922 0.0
O175 O 0.9443 0.97586 0.48516 0.0
O176 O 0.98859 0.96994 0.46803 0.0
C177 C 0.06074 0.0586 0.46073 0.0
O178 O 0.04311 0.97143 0.53834 0.0
O179 O 0.0851 0.97505 0.51694 0.0
O180 O 0.98572 0.06568 0.52355 0.0
O181 O 0.95384 0.03721 0.54527 0.0
C182 C 0.9579 0.04383 0.46715 0.0
C183 C 0.96112 0.96731 0.46613 0.0
C184 C 0.96708 0.95032 0.54195 0.0
O185 O 0.95366 0.97363 0.54407 0.0
O186 O 0.98771 0.94478 0.5243 0.0
C187 C 0.06228 0.94781 0.4628 0.0
O188 O 0.08386 0.03489 0.51674 0.0
O189 O 0.04034 0.03848 0.53566 0.0
C190 C 0.0705 0.9669 0.53733 0.0
C191 C 0.06757 0.04286 0.53643 0.0
Fe192 Fe 0.51031 0.9695 0.01354 0.0
O193 O 0.53487 1.00324 0.01343 0.0
Fe194 Fe 0.43947 0.99745 0.00832 0.0
Fe195 Fe 0.57544 0.00839 0.02626 0.0
O196 O 0.48059 0.99896 0.01598 0.0
O197 O 0.48149 1.00357 0.00679 0.0
O198 O 0.53384 1.00642 0.02331 0.0
Fe199 Fe 0.50467 0.03623 0.01992 0.0
C200 C 0.54615 0.97447 0.07068 0.0
O201 O 0.54417 0.9434 0.00622 0.0
O202 O 0.58228 0.97257 1.00399 0.0
O203 O 0.47244 0.06359 0.01042 0.0
O204 O 0.43633 0.03604 0.99252 0.0
O205 O 0.44745 0.97958 0.96977 0.0
O206 O 0.49631 0.96757 0.97072 0.0
O207 O 0.57505 0.03152 0.99083 0.0
O208 O 0.52701 0.04423 0.98254 0.0
C209 C 0.47075 0.97 0.95827 0.0
O210 O 0.48443 0.03012 0.05817 0.0
O211 O 0.43807 0.01472 0.04794 0.0
O212 O 0.52237 0.96915 0.05634 0.0
O213 O 0.56899 0.98607 0.06133 0.0
C214 C 0.57051 0.94896 1.00059 0.0
C215 C 0.5545 0.04318 0.97614 0.0
C216 C 0.55433 0.06514 0.05046 0.0
O217 O 0.57084 0.04418 0.04924 0.0
O218 O 0.52937 0.06666 0.03831 0.0
C219 C 0.44785 0.05952 0.99777 0.0
O220 O 0.44028 0.95897 0.02475 0.0
O221 O 0.48296 0.93733 0.01874 0.0
C222 C 0.4583 0.02378 0.06513 0.0
C223 C 0.45633 0.93763 0.02548 0.0
Fe224 Fe 1.01133 0.5415 0.99808 0.0
O225 O 0.99003 0.50894 0.98206 0.0
Fe226 Fe 0.07907 0.51231 0.01696 0.0
Fe227 Fe 0.94753 0.50613 0.98202 0.0
O228 O 0.03595 0.51279 0.01697 0.0
O229 O 0.03675 0.50967 0.01638 0.0
O230 O 0.99063 0.50573 0.98182 0.0
Fe231 Fe 0.01508 0.47716 1.00105 0.0
C232 C 0.95696 0.54884 0.03089 0.0
O233 O 0.98233 0.5667 0.97399 0.0
O234 O 0.95064 0.53559 0.95242 0.0
O235 O 0.04164 0.47272 0.96664 0.0
O236 O 0.08486 0.4808 0.9875 0.0
O237 O 0.08153 0.53986 0.98578 0.0
O238 O 0.0378 0.54105 0.96421 0.0
O239 O 0.95376 0.47185 0.95661 0.0
O240 O 0.98812 0.44709 0.98174 0.0
C241 C 0.06508 0.54549 0.9649 0.0
O242 O 0.04384 0.45163 0.02476 0.0
O243 O 0.07638 0.48204 0.0459 0.0
O244 O 0.98448 0.54513 0.03222 0.0
O245 O 0.94153 0.5386 0.0106 0.0
C246 C 0.9625 0.55964 0.9548 0.0
C247 C 0.96794 0.44952 0.9622 0.0
C248 C 0.96195 0.47459 0.03514 0.0
O249 O 0.94524 0.47939 0.01415 0.0
O250 O 0.98919 0.47909 0.0352 0.0
C251 C 0.06937 0.47029 0.96738 0.0
O252 O 0.07227 0.54573 0.04309 0.0
O253 O 0.03767 0.57131 0.01901 0.0
C254 C 0.06485 0.4579 0.04293 0.0
C255 C 0.05729 0.56797 0.03901 0.0
Fe256 Fe 0.51265 0.50819 0.969 0.0
O257 O 0.53601 0.48947 0.99901 0.0
Fe258 Fe 0.44856 0.5239 1.00398 0.0
Fe259 Fe 0.57863 0.4884 1.00021 0.0
O260 O 0.49163 0.52395 1.0021 0.0
O261 O 0.4912 0.52283 0.00556 0.0
O262 O 0.53566 0.48851 1.00243 0.0
Fe263 Fe 0.51448 0.50398 0.03558 0.0
C264 C 0.55816 0.46729 0.94223 0.0
O265 O 0.54074 0.54139 0.9689 0.0
O266 O 0.58307 0.51934 0.97162 0.0
O267 O 0.48817 0.5247 0.06607 0.0
O268 O 0.45496 0.54888 0.03915 0.0
O269 O 0.45302 0.55275 0.97369 0.0
O270 O 0.4838 0.53164 0.94245 0.0
O271 O 0.58479 0.51669 0.03241 0.0
O272 O 0.54191 0.53709 0.03843 0.0
C273 C 0.46413 0.55014 0.94908 0.0
O274 O 0.4866 0.47064 0.03524 0.0
O275 O 0.44398 0.49224 0.03159 0.0
O276 O 0.53855 0.48664 0.93863 0.0
O277 O 0.57172 0.46263 0.96584 0.0
C278 C 0.56798 0.54008 0.96449 0.0
C279 C 0.56946 0.53638 0.04183 0.0
C280 C 0.56384 0.46303 0.05594 0.0
O281 O 0.57471 0.46018 0.03126 0.0
O282 O 0.54346 0.48091 0.06225 0.0
C283 C 0.46806 0.54363 0.06285 0.0
O284 O 0.44253 0.49649 0.97087 0.0
O285 O 0.48504 0.47524 0.96659 0.0
C286 C 0.4592 0.47164 0.0389 0.0
C287 C 0.45774 0.47657 0.96184 0.0
Fe288 Fe 0.02029 0.48342 0.49814 0.0
O289 O 0.99864 0.4974 0.53098 0.0
Fe290 Fe 0.01501 0.5363 0.45147 0.0
Fe291 Fe 1.00675 0.48584 0.56928 0.0
O292 O 0.02417 0.52268 0.48896 0.0
O293 O 0.02325 0.52488 0.48982 0.0
O294 O 0.99766 0.49952 0.53178 0.0
Fe295 Fe 1.00126 0.53882 0.52253 0.0
C296 C 0.9964 0.4353 0.53185 0.0
O297 O 0.05931 0.48561 0.52 0.0
O298 O 0.04644 0.46845 0.56049 0.0
O299 O 1.00912 0.57876 0.50901 0.0
O300 O 0.03286 0.57198 0.46737 0.0
O301 O 0.05267 0.51556 0.44288 0.0
O302 O 0.04432 0.47394 0.46259 0.0
O303 O 0.02803 0.52089 0.58353 0.0
O304 O 0.03975 0.54197 0.54496 0.0
C305 C 0.0586 0.48995 0.44657 0.0
O306 O 0.96216 0.53662 0.50043 0.0
O307 O 0.97556 0.55395 0.46023 0.0
O308 O 0.01219 0.44346 0.51149 0.0
O309 O 0.98899 0.45009 0.5534 0.0
C310 C 0.06552 0.47454 0.54303 0.0
C311 C 0.04415 0.5371 0.57062 0.0
C312 C 0.96171 0.53134 0.57259 0.0
O313 O 0.96869 0.50614 0.5773 0.0
O314 O 0.97673 0.54793 0.5578 0.0
C315 C 0.02495 0.58691 0.48867 0.0
O316 O 0.9933 0.50141 0.43735 0.0
O317 O 0.9817 0.48065 0.47613 0.0
C318 C 0.95623 0.54777 0.47735 0.0
C319 C 0.97702 0.4856 0.45055 0.0
Fe320 Fe 0.53859 0.94919 0.49879 0.0
O321 O 0.53127 0.98883 0.50046 0.0
Fe322 Fe 0.51109 1.00592 0.46436 0.0
Fe323 Fe 0.50778 0.00719 0.53038 0.0
O324 O 0.53116 0.98851 0.49713 0.0
O325 O 0.48776 0.02428 0.49441 0.0
O326 O 0.48797 0.02468 0.49765 0.0
Fe327 Fe 0.47991 0.06374 0.49614 0.0
C328 C 0.48094 0.95143 0.52775 0.0
O329 O 0.56413 0.95879 0.53382 0.0
O330 O 0.53265 0.98451 0.56067 0.0
O331 O 0.51191 0.07249 0.46874 0.0
O332 O 0.54162 0.03642 0.46736 0.0
O333 O 0.53973 0.98281 0.43748 0.0
O334 O 0.56789 0.95781 0.46844 0.0
O335 O 0.53831 0.03781 0.53443 0.0
O336 O 0.50884 0.07362 0.52846 0.0
C337 C 0.56213 0.96699 0.44367 0.0
O338 O 0.45421 0.05373 0.4615 0.0
O339 O 0.48559 0.02833 0.43417 0.0
O340 O 0.50601 0.94049 0.52587 0.0
O341 O 0.47716 0.97708 0.52676 0.0
C342 C 0.55557 0.96869 0.55763 0.0
C343 C 0.53314 0.06335 0.53632 0.0
C344 C 0.4568 0.04596 0.55135 0.0
O345 O 0.47919 0.03012 0.55736 0.0
O346 O 0.45082 0.05501 0.5266 0.0
C347 C 0.53718 0.06204 0.46668 0.0
O348 O 0.48045 0.97534 0.46088 0.0
O349 O 0.50992 0.93952 0.4662 0.0
C350 C 0.46245 0.04383 0.43759 0.0
C351 C 0.48535 0.94976 0.45926 0.0
C352 C 0.19242 0.22275 0.31643 0.0
C353 C 0.20644 0.20949 0.294 0.0
C354 C 0.17441 0.20831 0.33406 0.0
C355 C 0.13109 0.1443 0.33786 0.0
H356 H 0.13543 0.15867 0.4179 0.0
C357 C 0.08115 0.07008 0.41466 0.0
C358 C 0.07051 0.07938 0.44054 0.0
C359 C 0.0947 0.08777 0.3967 0.0
C360 C 0.13345 0.15464 0.39559 0.0
H361 H 0.21199 0.1702 0.27283 0.0
H362 H 0.18046 0.14513 0.30333 0.0
H363 H 0.16532 0.18514 0.38719 0.0
H364 H 0.06515 0.11537 0.46715 0.0
H365 H 0.08851 0.14674 0.43537 0.0
H366 H 0.09916 0.11405 0.34601 0.0
C367 C 0.18334 0.16686 0.30722 0.0
C368 C 0.15079 0.16982 0.37788 0.0
C369 C 0.2016 0.18127 0.28971 0.0
C370 C 0.07285 0.10746 0.44736 0.0
C371 C 0.08664 0.12536 0.42923 0.0
C372 C 0.11363 0.12931 0.35549 0.0
C373 C 0.16952 0.18011 0.32979 0.0
C374 C 0.15022 0.16463 0.34874 0.0
C375 C 0.09819 0.11569 0.40371 0.0
C376 C 0.11481 0.13383 0.38475 0.0
H377 H 0.1955 0.24441 0.32064 0.0
H378 H 0.16402 0.2194 0.35092 0.0
H379 H 0.12944 0.14002 0.31557 0.0
H380 H 0.07977 0.04866 0.40847 0.0
H381 H 0.10349 0.07913 0.37769 0.0
C382 C 0.83547 0.18756 0.28631 0.0
C383 C 0.81524 0.20663 0.29672 0.0
C384 C 0.85112 0.17013 0.30421 0.0
C385 C 0.86996 0.15926 0.3809 0.0
H386 H 0.89901 0.08982 0.35239 0.0
C387 C 0.91637 0.07504 0.45343 0.0
C388 C 0.94267 0.06196 0.44636 0.0
C389 C 0.90187 0.09268 0.43499 0.0
C390 C 0.89131 0.10925 0.36067 0.0
H391 H 0.79547 0.22184 0.3345 0.0
H392 H 0.82129 0.19061 0.36555 0.0
H393 H 0.87072 0.11929 0.3216 0.0
H394 H 0.97399 0.05744 0.41366 0.0
H395 H 0.94808 0.08771 0.38096 0.0
H396 H 0.88969 0.14839 0.42034 0.0
C397 C 0.82604 0.18956 0.34358 0.0
C398 C 0.87503 0.12643 0.34289 0.0
C399 C 0.81077 0.2074 0.32565 0.0
C400 C 0.95383 0.06701 0.41992 0.0
C401 C 0.9389 0.08433 0.40112 0.0
C402 C 0.88575 0.14184 0.39877 0.0
C403 C 0.84681 0.17066 0.33329 0.0
C404 C 0.86402 0.1519 0.35256 0.0
C405 C 0.91278 0.09762 0.4085 0.0
C406 C 0.89673 0.11656 0.38897 0.0
H407 H 0.83976 0.18645 0.2642 0.0
H408 H 0.86711 0.15663 0.29505 0.0
H409 H 0.86279 0.17873 0.38945 0.0
H410 H 0.907 0.07198 0.47357 0.0
H411 H 0.88178 0.10224 0.44142 0.0
C412 C 0.85873 0.80159 0.29522 0.0
C413 C 0.83419 0.81094 0.27996 0.0
C414 C 0.87549 0.81983 0.31203 0.0
C415 C 0.8658 0.87832 0.35618 0.0
H416 H 0.94824 0.89374 0.35222 0.0
C417 C 0.91986 0.95708 0.43215 0.0
C418 C 0.94847 0.95198 0.44172 0.0
C419 C 0.90746 0.94143 0.41003 0.0
C420 C 0.92529 0.88939 0.35396 0.0
H421 H 0.80883 0.84702 0.26952 0.0
H422 H 0.83763 0.87838 0.29933 0.0
H423 H 0.92498 0.86232 0.3178 0.0
H424 H 0.98671 0.9267 0.43559 0.0
H425 H 0.96471 0.8985 0.39813 0.0
H426 H 0.86586 0.90391 0.39289 0.0
C427 C 0.84397 0.85706 0.29803 0.0
C428 C 0.91203 0.87152 0.33411 0.0
C429 C 0.82759 0.83904 0.28089 0.0
C430 C 0.96462 0.93122 0.4285 0.0
C431 C 0.95201 0.91514 0.40683 0.0
C432 C 0.87908 0.89564 0.37634 0.0
C433 C 0.86764 0.84752 0.31416 0.0
C434 C 0.88216 0.86603 0.33503 0.0
C435 C 0.92312 0.91981 0.39745 0.0
C436 C 0.90901 0.9016 0.37549 0.0
H437 H 0.8644 0.78011 0.29492 0.0
H438 H 0.89367 0.81208 0.32444 0.0
H439 H 0.84273 0.87408 0.35742 0.0
H440 H 0.90707 0.97321 0.44175 0.0
H441 H 0.88548 0.94627 0.40296 0.0
C442 C 0.19951 0.78174 0.31487 0.0
C443 C 0.22457 0.79446 0.30521 0.0
C444 C 0.18057 0.79592 0.33284 0.0
C445 C 0.16142 0.86754 0.35583 0.0
H446 H 0.11753 0.83219 0.41234 0.0
C447 C 0.07533 0.92883 0.41593 0.0
C448 C 0.0729 0.92483 0.4447 0.0
C449 C 0.09111 0.91057 0.39913 0.0
C450 C 0.12972 0.84251 0.3968 0.0
H451 H 0.25002 0.8316 0.30797 0.0
H452 H 0.21785 0.85593 0.33956 0.0
H453 H 0.1514 0.80543 0.38408 0.0
H454 H 0.08464 0.8979 0.47825 0.0
H455 H 0.11277 0.86605 0.44906 0.0
H456 H 0.14083 0.90468 0.36892 0.0
C457 C 0.21201 0.83536 0.33272 0.0
C458 C 0.14901 0.82701 0.38028 0.0
C459 C 0.23072 0.82129 0.31469 0.0
C460 C 0.08563 0.90129 0.45605 0.0
C461 C 0.10191 0.88309 0.43924 0.0
C462 C 0.14236 0.88296 0.37232 0.0
C463 C 0.18626 0.82319 0.34174 0.0
C464 C 0.1653 0.83931 0.35953 0.0
C465 C 0.10569 0.88793 0.41062 0.0
C466 C 0.126 0.8708 0.39305 0.0
H467 H 0.19416 0.76104 0.30802 0.0
H468 H 0.16103 0.78572 0.33907 0.0
H469 H 0.17297 0.87793 0.33989 0.0
H470 H 0.06582 0.94678 0.40653 0.0
H471 H 0.09249 0.91475 0.37715 0.0
C472 C 0.18713 0.82494 0.72286 0.0
C473 C 0.21163 0.8095 0.71494 0.0
C474 C 0.17209 0.84168 0.70386 0.0
C475 C 0.17943 0.87875 0.63773 0.0
H476 H 0.095 0.87962 0.63628 0.0
C477 C 0.11403 0.93907 0.55338 0.0
C478 C 0.08613 0.94971 0.55882 0.0
C479 C 0.1289 0.92222 0.57236 0.0
C480 C 0.11855 0.88018 0.63654 0.0
H481 H 0.23847 0.79899 0.67994 0.0
H482 H 0.21315 0.82919 0.647 0.0
H483 H 0.12162 0.85027 0.66851 0.0
H484 H 0.05228 0.95053 0.58928 0.0
H485 H 0.07855 0.92206 0.62296 0.0
H486 H 0.17669 0.90918 0.60656 0.0
C487 C 0.20572 0.82847 0.66819 0.0
C488 C 0.13393 0.86306 0.65509 0.0
C489 C 0.22054 0.8113 0.6872 0.0
C490 C 0.07368 0.94287 0.58421 0.0
C491 C 0.08882 0.92621 0.60351 0.0
C492 C 0.1641 0.89618 0.61948 0.0
C493 C 0.18108 0.84384 0.67618 0.0
C494 C 0.16465 0.86195 0.65596 0.0
C495 C 0.1168 0.91545 0.59796 0.0
C496 C 0.13327 0.89719 0.61831 0.0
H497 H 0.17939 0.82402 0.74395 0.0
H498 H 0.15351 0.85326 0.71105 0.0
H499 H 0.20301 0.87891 0.63797 0.0
H500 H 0.12442 0.94334 0.53399 0.0
H501 H 0.14982 0.91408 0.56646 0.0
C502 C 0.18757 0.18643 0.71985 0.0
C503 C 0.19091 0.21334 0.711 0.0
C504 C 0.17047 0.1678 0.70415 0.0
C505 C 0.15513 0.12914 0.65592 0.0
H506 H 0.0825 0.14614 0.61674 0.0
C507 C 0.11041 0.06449 0.56201 0.0
C508 C 0.08024 0.05981 0.55985 0.0
C509 C 0.1221 0.08223 0.58275 0.0
C510 C 0.10262 0.14099 0.62779 0.0
H511 H 0.17751 0.24224 0.6796 0.0
H512 H 0.14775 0.20951 0.65196 0.0
H513 H 0.10442 0.17979 0.64966 0.0
H514 H 0.03875 0.0697 0.57831 0.0
H515 H 0.05929 0.10052 0.61456 0.0
H516 H 0.15346 0.09045 0.63408 0.0
C517 C 0.15825 0.20292 0.67118 0.0
C518 C 0.11529 0.16036 0.64641 0.0
C519 C 0.17533 0.22167 0.68699 0.0
C520 C 0.06211 0.07281 0.57934 0.0
C521 C 0.07381 0.09065 0.6 0.0
C522 C 0.14254 0.10987 0.63728 0.0
C523 C 0.15638 0.17557 0.67917 0.0
C524 C 0.1418 0.15469 0.66054 0.0
C525 C 0.1039 0.09576 0.60175 0.0
C526 C 0.1163 0.11566 0.62279 0.0
H527 H 0.19894 0.17944 0.73847 0.0
H528 H 0.16892 0.14705 0.71121 0.0
H529 H 0.17577 0.12424 0.66618 0.0
H530 H 0.12501 0.05485 0.54737 0.0
H531 H 0.14535 0.08594 0.58338 0.0
C532 C 0.8212 0.22176 0.68983 0.0
C533 C 0.80367 0.20573 0.70651 0.0
C534 C 0.84123 0.20952 0.67152 0.0
C535 C 0.88699 0.14869 0.66308 0.0
H536 H 0.88608 0.16094 0.58348 0.0
C537 C 0.94637 0.07473 0.58863 0.0
C538 C 0.95595 0.08262 0.5624 0.0
C539 C 0.93119 0.09274 0.60609 0.0
C540 C 0.8872 0.15759 0.60572 0.0
H541 H 0.79367 0.16411 0.71691 0.0
H542 H 0.82922 0.14292 0.68603 0.0
H543 H 0.85277 0.18662 0.61354 0.0
H544 H 0.95785 0.11667 0.53471 0.0
H545 H 0.93211 0.14886 0.56584 0.0
H546 H 0.92173 0.12053 0.65602 0.0
C547 C 0.82723 0.16497 0.68676 0.0
C548 C 0.86787 0.17228 0.62295 0.0
C549 C 0.80677 0.17715 0.70444 0.0
C550 C 0.95111 0.10988 0.55483 0.0
C551 C 0.93586 0.12821 0.57259 0.0
C552 C 0.90666 0.13452 0.64609 0.0
C553 C 0.84478 0.18093 0.67002 0.0
C554 C 0.86702 0.16748 0.65178 0.0
C555 C 0.92513 0.11976 0.59839 0.0
C556 C 0.90661 0.13798 0.61689 0.0
H557 H 0.8194 0.24374 0.69087 0.0
H558 H 0.85444 0.22244 0.65902 0.0
H559 H 0.88734 0.14484 0.68525 0.0
H560 H 0.94959 0.05397 0.59535 0.0
H561 H 0.9231 0.08479 0.6252 0.0
C562 C 0.82733 0.78569 0.67761 0.0
C563 C 0.8141 0.799 0.70044 0.0
C564 C 0.84649 0.79967 0.6607 0.0
C565 C 0.89384 0.86144 0.66022 0.0
H566 H 0.88952 0.85098 0.57967 0.0
C567 C 0.94572 0.93782 0.58722 0.0
C568 C 0.95683 0.92916 0.56135 0.0
C569 C 0.93169 0.91966 0.60432 0.0
C570 C 0.89146 0.85385 0.60214 0.0
H571 H 0.81108 0.83781 0.72312 0.0
H572 H 0.84437 0.86203 0.69386 0.0
H573 H 0.85804 0.82434 0.6088 0.0
H574 H 0.96253 0.89394 0.53374 0.0
H575 H 0.93813 0.86177 0.56394 0.0
H576 H 0.92711 0.8909 0.65375 0.0
C577 C 0.84011 0.84065 0.68909 0.0
C578 C 0.87326 0.83858 0.61892 0.0
C579 C 0.82079 0.82673 0.70587 0.0
C580 C 0.95447 0.9013 0.55359 0.0
C581 C 0.94012 0.88296 0.57079 0.0
C582 C 0.91208 0.87656 0.64351 0.0
C583 C 0.85326 0.82738 0.6662 0.0
C584 C 0.8738 0.84248 0.64822 0.0
C585 C 0.92813 0.89199 0.59629 0.0
C586 C 0.91085 0.87346 0.61413 0.0
H587 H 0.8228 0.76438 0.67262 0.0
H588 H 0.8563 0.78862 0.64349 0.0
H589 H 0.89548 0.86464 0.68267 0.0
H590 H 0.94711 0.95908 0.59402 0.0
H591 H 0.92256 0.92773 0.62343 0.0
C592 C 0.31434 0.13539 0.2003 0.0
C593 C 0.32362 0.15993 0.21331 0.0
C594 C 0.33354 0.11326 0.19846 0.0
C595 C 0.41099 0.10366 0.19226 0.0
H596 H 0.38867 0.02764 0.18309 0.0
C597 C 0.47059 0.03881 0.11466 0.0
C598 C 0.45054 0.02776 0.09467 0.0
C599 C 0.46156 0.04621 0.14142 0.0
C600 C 0.39544 0.04874 0.18589 0.0
H601 H 0.35885 0.18003 0.23705 0.0
H602 H 0.39209 0.14139 0.2342 0.0
H603 H 0.35741 0.0594 0.20867 0.0
H604 H 0.40627 0.01278 0.08819 0.0
H605 H 0.3904 0.02663 0.13383 0.0
H606 H 0.44736 0.09401 0.16746 0.0
C607 C 0.37043 0.13934 0.22476 0.0
C608 C 0.37753 0.06687 0.20049 0.0
C609 C 0.35147 0.16149 0.22619 0.0
C610 C 0.42218 0.02184 0.1028 0.0
C611 C 0.41315 0.02939 0.12935 0.0
C612 C 0.42868 0.08567 0.17748 0.0
C613 C 0.36209 0.11536 0.20996 0.0
C614 C 0.38432 0.0948 0.20231 0.0
C615 C 0.4323 0.04291 0.14852 0.0
C616 C 0.42006 0.05842 0.17248 0.0
H617 H 0.29278 0.1337 0.19058 0.0
H618 H 0.32659 0.09513 0.18663 0.0
H619 H 0.41688 0.12508 0.19323 0.0
H620 H 0.49285 0.043 0.1093 0.0
H621 H 0.47702 0.05606 0.15594 0.0
C622 C 0.86511 0.30845 0.19354 0.0
C623 C 0.83502 0.30556 0.18824 0.0
C624 C 0.88104 0.32729 0.17892 0.0
C625 C 0.87111 0.39167 0.14354 0.0
H626 H 0.94478 0.37504 0.10943 0.0
C627 C 0.91918 0.45802 0.06044 0.0
C628 C 0.94954 0.46029 0.05872 0.0
C629 C 0.9071 0.44132 0.08003 0.0
C630 C 0.92454 0.38018 0.11937 0.0
H631 H 0.79808 0.31907 0.16294 0.0
H632 H 0.82594 0.35204 0.13733 0.0
H633 H 0.91996 0.33978 0.13474 0.0
H634 H 0.99109 0.44802 0.07732 0.0
H635 H 0.96983 0.41898 0.11195 0.0
H636 H 0.87549 0.43196 0.12823 0.0
C637 C 0.83713 0.33993 0.15294 0.0
C638 C 0.91028 0.35994 0.13366 0.0
C639 C 0.82128 0.32094 0.16737 0.0
C640 C 0.96759 0.44665 0.07808 0.0
C641 C 0.95545 0.42985 0.09775 0.0
C642 C 0.88545 0.41194 0.12948 0.0
C643 C 0.86701 0.34367 0.159 0.0
C644 C 0.88312 0.36536 0.14531 0.0
C645 C 0.92508 0.42653 0.09846 0.0
C646 C 0.91199 0.40624 0.11668 0.0
H647 H 0.87614 0.29681 0.20962 0.0
H648 H 0.90404 0.32982 0.18398 0.0
H649 H 0.85049 0.39653 0.15292 0.0
H650 H 0.90465 0.4684 0.04596 0.0
H651 H 0.88365 0.43901 0.07978 0.0
C652 C 0.68275 0.83815 0.18381 0.0
C653 C 0.70581 0.84398 0.20288 0.0
C654 C 0.65901 0.8558 0.18181 0.0
C655 C 0.63986 0.92582 0.18679 0.0
H656 H 0.56097 0.89778 0.18008 0.0
C657 C 0.56078 0.98296 0.12035 0.0
C658 C 0.5484 0.96552 0.09955 0.0
C659 C 0.57063 0.9725 0.14571 0.0
C660 C 0.58279 0.90606 0.18207 0.0
H661 H 0.7225 0.8727 0.23469 0.0
H662 H 0.68127 0.90446 0.23016 0.0
H663 H 0.59984 0.86936 0.19972 0.0
H664 H 0.53336 0.92451 0.0896 0.0
H665 H 0.55206 0.90572 0.13293 0.0
H666 H 0.62408 0.9612 0.16661 0.0
C667 C 0.68146 0.88594 0.21725 0.0
C668 C 0.60495 0.88983 0.19343 0.0
C669 C 0.70507 0.868 0.21958 0.0
C670 C 0.54301 0.93822 0.10544 0.0
C671 C 0.55361 0.92756 0.13048 0.0
C672 C 0.61787 0.94185 0.175 0.0
C673 C 0.65809 0.87974 0.1986 0.0
C674 C 0.63386 0.89909 0.19442 0.0
C675 C 0.56929 0.94426 0.15012 0.0
C676 C 0.5894 0.93149 0.17092 0.0
H677 H 0.68269 0.81961 0.17092 0.0
H678 H 0.64152 0.85095 0.16681 0.0
H679 H 0.66203 0.93337 0.18738 0.0
H680 H 0.56455 1.00429 0.11627 0.0
H681 H 0.58158 0.98614 0.16079 0.0
C682 C 0.1682 0.71061 0.22222 0.0
C683 C 0.19695 0.71291 0.21344 0.0
C684 C 0.14587 0.7027 0.20322 0.0
C685 C 0.12942 0.68899 0.12674 0.0
H686 H 0.07596 0.63613 0.155 0.0
C687 C 0.05983 0.61815 0.05248 0.0
C688 C 0.06315 0.5906 0.05944 0.0
C689 C 0.06853 0.63896 0.0717 0.0
C690 C 0.09059 0.65101 0.14677 0.0
H691 H 0.22484 0.7092 0.17785 0.0
H692 H 0.18642 0.69406 0.1451 0.0
H693 H 0.10748 0.66187 0.18746 0.0
H694 H 0.07618 0.56331 0.09254 0.0
H695 H 0.09142 0.59901 0.12542 0.0
H696 H 0.11415 0.67609 0.08579 0.0
C697 C 0.18067 0.69926 0.16635 0.0
C698 C 0.10852 0.66608 0.16545 0.0
C699 C 0.20286 0.70765 0.18522 0.0
C700 C 0.07373 0.58432 0.08633 0.0
C701 C 0.08211 0.60489 0.10542 0.0
C702 C 0.11173 0.67357 0.10799 0.0
C703 C 0.15189 0.69638 0.17512 0.0
C704 C 0.12907 0.68445 0.15564 0.0
C705 C 0.08017 0.63245 0.09825 0.0
C706 C 0.0931 0.65352 0.11778 0.0
H707 H 0.16291 0.71499 0.24377 0.0
H708 H 0.12394 0.70126 0.21069 0.0
H709 H 0.14433 0.70356 0.11845 0.0
H710 H 0.05162 0.62355 0.03192 0.0
H711 H 0.06667 0.66004 0.06564 0.0
C712 C 0.32039 0.82669 0.81752 0.0
C713 C 0.32471 0.81976 0.78928 0.0
C714 C 0.33945 0.84456 0.83214 0.0
C715 C 0.41384 0.87231 0.83293 0.0
H716 H 0.38089 0.92878 0.88075 0.0
C717 C 0.44582 0.97062 0.91161 0.0
C718 C 0.46607 0.95821 0.92981 0.0
C719 C 0.43308 0.95576 0.88918 0.0
C720 C 0.39053 0.9134 0.86719 0.0
H721 H 0.35279 0.82608 0.75437 0.0
H722 H 0.38601 0.85721 0.78 0.0
H723 H 0.3487 0.89856 0.85314 0.0
H724 H 0.49112 0.92146 0.9373 0.0
H725 H 0.46864 0.89526 0.8981 0.0
H726 H 0.4558 0.88708 0.84745 0.0
C727 C 0.36787 0.84874 0.79078 0.0
C728 C 0.37202 0.89584 0.85166 0.0
C729 C 0.34865 0.83106 0.77606 0.0
C730 C 0.47573 0.93159 0.92342 0.0
C731 C 0.46273 0.91655 0.90103 0.0
C732 C 0.43246 0.88982 0.84872 0.0
C733 C 0.36342 0.85575 0.81895 0.0
C734 C 0.38341 0.87494 0.83455 0.0
C735 C 0.44007 0.92806 0.8847 0.0
C736 C 0.42097 0.91052 0.8661 0.0
H737 H 0.30227 0.81834 0.82841 0.0
H738 H 0.33563 0.84937 0.85393 0.0
H739 H 0.42324 0.85627 0.82 0.0
H740 H 0.43815 0.9912 0.91601 0.0
H741 H 0.41627 0.96542 0.87651 0.0
C742 C 0.20188 0.295 0.83219 0.0
C743 C 0.20999 0.29897 0.80448 0.0
C744 C 0.18617 0.31481 0.84711 0.0
C745 C 0.13799 0.3758 0.8417 0.0
H746 H 0.16233 0.38685 0.91941 0.0
C747 C 0.06917 0.43805 0.92434 0.0
C748 C 0.08457 0.45347 0.94527 0.0
C749 C 0.08399 0.42096 0.90513 0.0
C750 C 0.15521 0.38436 0.89773 0.0
H751 H 0.20704 0.32725 0.7706 0.0
H752 H 0.17911 0.36222 0.79681 0.0
H753 H 0.18894 0.35514 0.88975 0.0
H754 H 0.12813 0.46332 0.96126 0.0
H755 H 0.15352 0.43414 0.92818 0.0
H756 H 0.10412 0.40523 0.84997 0.0
C757 C 0.18512 0.34344 0.80692 0.0
C758 C 0.17042 0.3658 0.88065 0.0
C759 C 0.20121 0.32343 0.79186 0.0
C760 C 0.11524 0.45172 0.94579 0.0
C761 C 0.12995 0.43471 0.92675 0.0
C762 C 0.12252 0.39434 0.85896 0.0
C763 C 0.17775 0.33956 0.83502 0.0
C764 C 0.16204 0.36096 0.85237 0.0
C765 C 0.11468 0.41864 0.90631 0.0
C766 C 0.13088 0.39894 0.88734 0.0
H767 H 0.20795 0.27644 0.8427 0.0
H768 H 0.18054 0.31058 0.86834 0.0
H769 H 0.13068 0.37263 0.82015 0.0
H770 H 0.04559 0.43869 0.92314 0.0
H771 H 0.07129 0.40891 0.8899 0.0
C772 C 0.70931 0.1759 0.83246 0.0
C773 C 0.69874 0.20043 0.82149 0.0
C774 C 0.69101 0.15901 0.84715 0.0
C775 C 0.62314 0.15772 0.88632 0.0
H776 H 0.6253 0.08011 0.86813 0.0
C777 C 0.54986 0.08155 0.94223 0.0
C778 C 0.56433 0.05797 0.95148 0.0
C779 C 0.56286 0.09849 0.923 0.0
C780 C 0.6245 0.10169 0.87364 0.0
H781 H 0.66106 0.22697 0.818 0.0
H782 H 0.62918 0.19765 0.84407 0.0
H783 H 0.65598 0.11121 0.84333 0.0
H784 H 0.60277 0.03271 0.94617 0.0
H785 H 0.62526 0.06198 0.91321 0.0
H786 H 0.59234 0.14816 0.91723 0.0
C787 C 0.65157 0.19143 0.84125 0.0
C788 C 0.64216 0.11952 0.85942 0.0
C789 C 0.66981 0.20819 0.82631 0.0
C790 C 0.59104 0.0508 0.93966 0.0
C791 C 0.60393 0.06758 0.92052 0.0
C792 C 0.60563 0.13984 0.90075 0.0
C793 C 0.6618 0.16639 0.85141 0.0
C794 C 0.64203 0.1477 0.86585 0.0
C795 C 0.59048 0.09209 0.91249 0.0
C796 C 0.60642 0.1115 0.89493 0.0
H797 H 0.7315 0.16938 0.82901 0.0
H798 H 0.69969 0.14005 0.85506 0.0
H799 H 0.62261 0.17931 0.89184 0.0
H800 H 0.52932 0.08773 0.95099 0.0
H801 H 0.55163 0.11698 0.91694 0.0
C802 C 0.81436 0.69994 0.79128 0.0
C803 C 0.81322 0.7275 0.80019 0.0
C804 C 0.83302 0.68145 0.80528 0.0
C805 C 0.89728 0.67897 0.85619 0.0
H806 H 0.86787 0.60724 0.87197 0.0
C807 C 0.95152 0.60837 0.94015 0.0
C808 C 0.95092 0.58002 0.93447 0.0
C809 C 0.9369 0.62652 0.92208 0.0
C810 C 0.8767 0.62707 0.86753 0.0
H811 H 0.83126 0.75727 0.83027 0.0
H812 H 0.86312 0.72562 0.85428 0.0
H813 H 0.83896 0.63741 0.84245 0.0
H814 H 0.9359 0.54897 0.90412 0.0
H815 H 0.91124 0.58019 0.87298 0.0
H816 H 0.93484 0.66874 0.88164 0.0
C817 C 0.85015 0.71798 0.83649 0.0
C818 C 0.86004 0.64441 0.85043 0.0
C819 C 0.83159 0.73621 0.82273 0.0
C820 C 0.93653 0.57057 0.90962 0.0
C821 C 0.9221 0.58855 0.8917 0.0
C822 C 0.91392 0.66165 0.87335 0.0
C823 C 0.85106 0.69022 0.82829 0.0
C824 C 0.86991 0.67076 0.84465 0.0
C825 C 0.9214 0.61675 0.89787 0.0
C826 C 0.90385 0.63544 0.87941 0.0
H827 H 0.80037 0.69256 0.77409 0.0
H828 H 0.83322 0.66028 0.79814 0.0
H829 H 0.90598 0.6989 0.85195 0.0
H830 H 0.96224 0.61644 0.95907 0.0
H831 H 0.93688 0.64811 0.92763 0.0
C832 C 0.20397 0.30458 0.20245 0.0
C833 C 0.21185 0.27971 0.18944 0.0
C834 C 0.18537 0.32312 0.18861 0.0
C835 C 0.13455 0.32897 0.12499 0.0
H836 H 0.1459 0.4064 0.13935 0.0
C837 C 0.06461 0.41164 0.06645 0.0
C838 C 0.07865 0.43626 0.0606 0.0
C839 C 0.07849 0.39215 0.08359 0.0
C840 C 0.14251 0.38488 0.13469 0.0
H841 H 0.20657 0.25508 0.15135 0.0
H842 H 0.17551 0.28736 0.12698 0.0
H843 H 0.17477 0.37394 0.16556 0.0
H844 H 0.11898 0.45884 0.06762 0.0
H845 H 0.14297 0.42523 0.09604 0.0
H846 H 0.10335 0.34009 0.09301 0.0
C847 C 0.1826 0.2925 0.14823 0.0
C848 C 0.15888 0.36605 0.15027 0.0
C849 C 0.20079 0.27393 0.1622 0.0
C850 C 0.10702 0.44049 0.07194 0.0
C851 C 0.12089 0.42108 0.08861 0.0
C852 C 0.11841 0.34785 0.10913 0.0
C853 C 0.17445 0.31748 0.16111 0.0
C854 C 0.15553 0.3377 0.14552 0.0
C855 C 0.1069 0.39665 0.0951 0.0
C856 C 0.12241 0.37619 0.11338 0.0
H857 H 0.21226 0.30983 0.22324 0.0
H858 H 0.17952 0.34182 0.19965 0.0
H859 H 0.13057 0.30744 0.12093 0.0
H860 H 0.04279 0.40761 0.05816 0.0
H861 H 0.06674 0.37376 0.0881 0.0
C862 C 0.22671 0.69151 0.84404 0.0
C863 C 0.21689 0.71776 0.83747 0.0
C864 C 0.20943 0.67432 0.85923 0.0
C865 C 0.13354 0.65972 0.87067 0.0
H866 H 0.16455 0.6145 0.92972 0.0
C867 C 0.06391 0.58511 0.93332 0.0
C868 C 0.078 0.56159 0.94305 0.0
C869 C 0.07941 0.60438 0.91872 0.0
C870 C 0.15563 0.62665 0.91294 0.0
H871 H 0.18199 0.74721 0.84234 0.0
H872 H 0.15142 0.71686 0.86884 0.0
H873 H 0.1951 0.64948 0.9107 0.0
H874 H 0.1181 0.53825 0.94298 0.0
H875 H 0.14472 0.57106 0.91636 0.0
H876 H 0.09426 0.63641 0.87242 0.0
C877 C 0.17252 0.70969 0.86224 0.0
C878 C 0.17309 0.64685 0.90227 0.0
C879 C 0.19008 0.72708 0.84738 0.0
C880 C 0.10689 0.5564 0.93585 0.0
C881 C 0.12219 0.57535 0.92094 0.0
C882 C 0.11608 0.63929 0.88121 0.0
C883 C 0.18183 0.68296 0.86778 0.0
C884 C 0.16234 0.66338 0.88085 0.0
C885 C 0.1091 0.60019 0.91342 0.0
C886 C 0.1271 0.62226 0.9022 0.0
H887 H 0.24728 0.68387 0.8365 0.0
H888 H 0.21705 0.65377 0.86308 0.0
H889 H 0.12486 0.67203 0.85391 0.0
H890 H 0.04169 0.58965 0.9389 0.0
H891 H 0.06866 0.62328 0.91321 0.0
C892 C 0.3335 0.17889 0.81617 0.0
C893 C 0.30299 0.18014 0.81486 0.0
C894 C 0.34782 0.16747 0.83902 0.0
C895 C 0.33947 0.12337 0.89819 0.0
H896 H 0.40222 0.16752 0.93153 0.0
C897 C 0.40159 0.08434 0.99163 0.0
C898 C 0.43161 0.08293 0.98745 0.0
C899 C 0.38426 0.10199 0.9761 0.0
C900 C 0.38471 0.15507 0.92247 0.0
H901 H 0.26331 0.16874 0.83488 0.0
H902 H 0.28847 0.14838 0.87492 0.0
H903 H 0.37505 0.18363 0.89051 0.0
H904 H 0.46784 0.10017 0.96622 0.0
H905 H 0.43739 0.13051 0.93805 0.0
H906 H 0.34959 0.09435 0.92932 0.0
C907 C 0.30125 0.15641 0.8584 0.0
C908 C 0.36932 0.16416 0.89899 0.0
C909 C 0.2869 0.16791 0.83551 0.0
C910 C 0.44464 0.10113 0.96965 0.0
C911 C 0.4272 0.1185 0.95367 0.0
C912 C 0.35489 0.11423 0.92156 0.0
C913 C 0.33179 0.15708 0.86078 0.0
C914 C 0.34697 0.1481 0.8864 0.0
C915 C 0.39671 0.11789 0.95571 0.0
C916 C 0.37795 0.12979 0.93366 0.0
H917 H 0.34632 0.1881 0.80033 0.0
H918 H 0.37142 0.16755 0.84013 0.0
H919 H 0.32242 0.1106 0.88873 0.0
H920 H 0.39132 0.07058 0.00565 0.0
H921 H 0.3609 0.10169 0.97857 0.0
C922 C 0.82189 0.2827 0.82946 0.0
C923 C 0.82058 0.29164 0.8018 0.0
C924 C 0.84254 0.29361 0.8488 0.0
C925 C 0.91099 0.33473 0.85312 0.0
H926 H 0.88518 0.35595 0.92694 0.0
C927 C 0.9533 0.42752 0.91664 0.0
C928 C 0.95946 0.42508 0.94533 0.0
C929 C 0.94178 0.40553 0.90089 0.0
C930 C 0.89291 0.34963 0.90661 0.0
H931 H 0.84001 0.31916 0.7729 0.0
H932 H 0.87511 0.33849 0.80647 0.0
H933 H 0.85354 0.328 0.89587 0.0
H934 H 0.9592 0.39774 0.98007 0.0
H935 H 0.93792 0.35919 0.95245 0.0
H936 H 0.94949 0.35801 0.8633 0.0
C937 C 0.86085 0.32255 0.81321 0.0
C938 C 0.87481 0.3336 0.88879 0.0
C939 C 0.84043 0.31159 0.79393 0.0
C940 C 0.95479 0.39997 0.9579 0.0
C941 C 0.94255 0.37806 0.94221 0.0
C942 C 0.92886 0.35102 0.87078 0.0
C943 C 0.86223 0.31374 0.84089 0.0
C944 C 0.88323 0.32676 0.86146 0.0
C945 C 0.93562 0.38083 0.91364 0.0
C946 C 0.91959 0.35929 0.89734 0.0
H947 H 0.80703 0.26726 0.8362 0.0
H948 H 0.84312 0.28623 0.86991 0.0
H949 H 0.91852 0.32921 0.83252 0.0
H950 H 0.95677 0.4467 0.90651 0.0
H951 H 0.93636 0.40828 0.87897 0.0
C952 C 0.73364 0.86516 0.82803 0.0
C953 C 0.71722 0.85103 0.80718 0.0
C954 C 0.71949 0.88038 0.84857 0.0
C955 C 0.64712 0.90441 0.87135 0.0
H956 H 0.67357 0.87626 0.94279 0.0
C957 C 0.5744 0.91263 0.96395 0.0
C958 C 0.5876 0.92839 0.98568 0.0
C959 C 0.59157 0.9004 0.94364 0.0
C960 C 0.66604 0.88421 0.92295 0.0
H961 H 0.6741 0.84454 0.7886 0.0
H962 H 0.64936 0.87085 0.82441 0.0
H963 H 0.70286 0.86837 0.9017 0.0
H964 H 0.62859 0.94068 0.00582 0.0
H965 H 0.65861 0.91896 0.97051 0.0
H966 H 0.60997 0.91969 0.89255 0.0
C967 C 0.67294 0.87026 0.82526 0.0
C968 C 0.68295 0.88014 0.89957 0.0
C969 C 0.68706 0.85505 0.80485 0.0
C970 C 0.61806 0.9288 0.98897 0.0
C971 C 0.63519 0.91635 0.96886 0.0
C972 C 0.63015 0.90829 0.89466 0.0
C973 C 0.68891 0.88158 0.84821 0.0
C974 C 0.67345 0.88994 0.87351 0.0
C975 C 0.62195 0.90361 0.9452 0.0
C976 C 0.63932 0.89791 0.92051 0.0
H977 H 0.75703 0.86249 0.82994 0.0
H978 H 0.73225 0.88946 0.86581 0.0
H979 H 0.63944 0.9123 0.85154 0.0
H980 H 0.55091 0.91206 0.96107 0.0
H981 H 0.58105 0.89021 0.92567 0.0
C982 C 0.8301 0.73156 0.1638 0.0
C983 C 0.81736 0.72582 0.18934 0.0
C984 C 0.84666 0.71186 0.14934 0.0
C985 C 0.85841 0.63678 0.14039 0.0
H986 H 0.92711 0.65853 0.10165 0.0
C987 C 0.91175 0.56753 0.05411 0.0
C988 C 0.94236 0.56703 0.05233 0.0
C989 C 0.89772 0.58565 0.07275 0.0
C990 C 0.90812 0.6519 0.11244 0.0
H991 H 0.81219 0.69434 0.21957 0.0
H992 H 0.84092 0.65965 0.19418 0.0
H993 H 0.90134 0.69194 0.13061 0.0
H994 H 0.98199 0.58568 0.06949 0.0
H995 H 0.9576 0.61735 0.10173 0.0
H996 H 0.86504 0.59678 0.12191 0.0
C997 C 0.83816 0.67964 0.18535 0.0
C998 C 0.89308 0.67126 0.12896 0.0
C999 C 0.82185 0.69962 0.2001 0.0
C1000 C 0.95845 0.58521 0.07018 0.0
C1001 C 0.94436 0.60362 0.0886 0.0
C1002 C 0.87326 0.61748 0.12356 0.0
C1003 C 0.85084 0.68542 0.15963 0.0
C1004 C 0.86781 0.66414 0.14314 0.0
C1005 C 0.91369 0.6043 0.09015 0.0
C1006 C 0.89834 0.6247 0.10912 0.0
H1007 H 0.82702 0.7514 0.15469 0.0
H1008 H 0.85557 0.71722 0.12957 0.0
H1009 H 0.83903 0.63036 0.1507 0.0
H1010 H 0.89843 0.55399 0.04081 0.0
H1011 H 0.87415 0.58553 0.07292 0.0
C1012 C 0.30935 0.79975 0.16144 0.0
C1013 C 0.32222 0.78186 0.18056 0.0
C1014 C 0.32555 0.80985 0.13982 0.0
C1015 C 0.40072 0.82526 0.12349 0.0
H1016 H 0.36704 0.83935 0.05006 0.0
C1017 C 0.46067 0.8912 0.04625 0.0
C1018 C 0.44322 0.91246 0.03581 0.0
C1019 C 0.4479 0.8691 0.05911 0.0
C1020 C 0.37679 0.83545 0.07045 0.0
H1021 H 0.36154 0.75955 0.19167 0.0
H1022 H 0.38989 0.77722 0.15387 0.0
H1023 H 0.3402 0.81193 0.08235 0.0
H1024 H 0.39868 0.9263 0.02895 0.0
H1025 H 0.37663 0.88818 0.05145 0.0
H1026 H 0.43669 0.84976 0.11216 0.0
C1027 C 0.36744 0.78367 0.15571 0.0
C1028 C 0.36141 0.81981 0.08892 0.0
C1029 C 0.35121 0.77354 0.17728 0.0
C1030 C 0.41278 0.91041 0.03704 0.0
C1031 C 0.40008 0.88835 0.04968 0.0
C1032 C 0.41607 0.84094 0.10505 0.0
C1033 C 0.3549 0.80223 0.13699 0.0
C1034 C 0.37284 0.81526 0.11593 0.0
C1035 C 0.41748 0.86779 0.06149 0.0
C1036 C 0.40385 0.84693 0.07867 0.0
H1037 H 0.28699 0.8064 0.16354 0.0
H1038 H 0.3154 0.82441 0.12594 0.0
H1039 H 0.41001 0.82231 0.14425 0.0
H1040 H 0.48419 0.89217 0.04556 0.0
H1041 H 0.46184 0.85342 0.06783 0.0
C1042 C 0.7186 0.2052 0.18746 0.0
C1043 C 0.71296 0.20964 0.21585 0.0
C1044 C 0.69782 0.19262 0.16959 0.0
C1045 C 0.63095 0.15049 0.16909 0.0
H1046 H 0.62375 0.17446 0.09268 0.0
C1047 C 0.55038 0.10074 0.08837 0.0
C1048 C 0.56578 0.08894 0.06625 0.0
C1049 C 0.56391 0.12024 0.10626 0.0
C1050 C 0.62535 0.16784 0.11406 0.0
H1051 H 0.68122 0.20416 0.24788 0.0
H1052 H 0.6448 0.18282 0.21663 0.0
H1053 H 0.65716 0.19813 0.12571 0.0
H1054 H 0.60613 0.08902 0.04407 0.0
H1055 H 0.62942 0.12367 0.07472 0.0
H1056 H 0.5992 0.12007 0.15718 0.0
C1057 C 0.66547 0.1885 0.20821 0.0
C1058 C 0.64469 0.1811 0.13289 0.0
C1059 C 0.68639 0.20074 0.22615 0.0
C1060 C 0.59396 0.09799 0.06108 0.0
C1061 C 0.60717 0.11784 0.07847 0.0
C1062 C 0.61131 0.13748 0.15034 0.0
C1063 C 0.67079 0.18457 0.17965 0.0
C1064 C 0.64833 0.17208 0.1604 0.0
C1065 C 0.59261 0.12851 0.10168 0.0
C1066 C 0.60894 0.14561 0.12252 0.0
H1067 H 0.73894 0.21173 0.17896 0.0
H1068 H 0.70297 0.18926 0.14785 0.0
H1069 H 0.63338 0.14281 0.19001 0.0
H1070 H 0.52867 0.09375 0.09272 0.0
H1071 H 0.55238 0.12823 0.12412 0.0
C1072 C 0.69038 0.72023 0.82888 0.0
C1073 C 0.70287 0.70939 0.80441 0.0
C1074 C 0.67507 0.70335 0.84683 0.0
C1075 C 0.66567 0.62933 0.86395 0.0
H1076 H 0.59858 0.6553 0.90405 0.0
C1077 C 0.6132 0.56219 0.94654 0.0
C1078 C 0.58267 0.56218 0.9488 0.0
C1079 C 0.62722 0.58125 0.93021 0.0
C1080 C 0.61715 0.64754 0.8929 0.0
H1081 H 0.7081 0.67193 0.77975 0.0
H1082 H 0.68144 0.64309 0.81032 0.0
H1083 H 0.62343 0.68586 0.87309 0.0
H1084 H 0.54318 0.58314 0.93558 0.0
H1085 H 0.56756 0.61619 0.90685 0.0
H1086 H 0.65913 0.59092 0.88299 0.0
C1087 C 0.68389 0.66448 0.8162 0.0
C1088 C 0.63172 0.66529 0.87529 0.0
C1089 C 0.69915 0.68124 0.79839 0.0
C1090 C 0.5667 0.58245 0.93458 0.0
C1091 C 0.58079 0.60154 0.91807 0.0
C1092 C 0.65117 0.61167 0.88147 0.0
C1093 C 0.67175 0.67507 0.84093 0.0
C1094 C 0.65622 0.65648 0.86037 0.0
C1095 C 0.61133 0.60104 0.91524 0.0
C1096 C 0.62663 0.62036 0.89636 0.0
H1097 H 0.6927 0.74172 0.8344 0.0
H1098 H 0.66637 0.71244 0.86568 0.0
H1099 H 0.68461 0.62161 0.85335 0.0
H1100 H 0.62645 0.54719 0.95725 0.0
H1101 H 0.65073 0.58037 0.92936 0.0
C1102 C 0.3221 0.712 0.80144 0.0
C1103 C 0.32868 0.71202 0.77296 0.0
C1104 C 0.33693 0.69435 0.81992 0.0
C1105 C 0.38331 0.63081 0.82197 0.0
H1106 H 0.40693 0.65864 0.89561 0.0
C1107 C 0.45745 0.56681 0.8988 0.0
C1108 C 0.45167 0.56927 0.92751 0.0
C1109 C 0.44359 0.58419 0.87927 0.0
C1110 C 0.40026 0.65019 0.8753 0.0
H1111 H 0.35602 0.69327 0.74173 0.0
H1112 H 0.38147 0.66266 0.77353 0.0
H1113 H 0.3792 0.68769 0.8641 0.0
H1114 H 0.42658 0.59281 0.9576 0.0
H1115 H 0.40268 0.62186 0.92431 0.0
H1116 H 0.40408 0.59315 0.8333 0.0
C1117 C 0.36477 0.67599 0.78178 0.0
C1118 C 0.38421 0.66704 0.85711 0.0
C1119 C 0.35019 0.69374 0.76348 0.0
C1120 C 0.43196 0.58993 0.93587 0.0
C1121 C 0.41821 0.60704 0.91655 0.0
C1122 C 0.3992 0.61383 0.84028 0.0
C1123 C 0.35863 0.67607 0.8104 0.0
C1124 C 0.37535 0.65768 0.83012 0.0
C1125 C 0.42359 0.60461 0.88784 0.0
C1126 C 0.40786 0.62312 0.86741 0.0
H1127 H 0.30608 0.72611 0.8096 0.0
H1128 H 0.33134 0.69502 0.84172 0.0
H1129 H 0.37677 0.62261 0.80151 0.0
H1130 H 0.47234 0.55126 0.89135 0.0
H1131 H 0.44871 0.58166 0.85745 0.0
C1132 C 0.34451 0.30169 0.80486 0.0
C1133 C 0.32103 0.31261 0.78932 0.0
C1134 C 0.36267 0.31873 0.82146 0.0
C1135 C 0.38134 0.392 0.83629 0.0
H1136 H 0.40598 0.36501 0.90868 0.0
C1137 C 0.41683 0.46207 0.9293 0.0
C1138 C 0.44367 0.45604 0.94268 0.0
C1139 C 0.40432 0.4438 0.90959 0.0
C1140 C 0.3995 0.37266 0.88841 0.0
H1141 H 0.29839 0.34992 0.77854 0.0
H1142 H 0.32931 0.37957 0.80822 0.0
H1143 H 0.37979 0.33481 0.87533 0.0
H1144 H 0.47809 0.42579 0.94637 0.0
H1145 H 0.45556 0.39336 0.91229 0.0
H1146 H 0.3999 0.4303 0.8502 0.0
C1147 C 0.33435 0.35797 0.80708 0.0
C1148 C 0.38462 0.35537 0.86919 0.0
C1149 C 0.31649 0.34096 0.79011 0.0
C1150 C 0.45739 0.431 0.9364 0.0
C1151 C 0.44455 0.41246 0.91697 0.0
C1152 C 0.39578 0.40939 0.8557 0.0
C1153 C 0.35746 0.34703 0.82328 0.0
C1154 C 0.37506 0.3649 0.84297 0.0
C1155 C 0.41812 0.41893 0.90315 0.0
C1156 C 0.4047 0.39994 0.88201 0.0
H1157 H 0.34872 0.27991 0.80442 0.0
H1158 H 0.38063 0.30962 0.83309 0.0
H1159 H 0.37494 0.39992 0.81613 0.0
H1160 H 0.40575 0.48123 0.93351 0.0
H1161 H 0.38376 0.44909 0.8994 0.0
C1162 C 0.6983 0.34543 0.75981 0.0
C1163 C 0.7085 0.3194 0.7672 0.0
C1164 C 0.67954 0.3605 0.777 0.0
C1165 C 0.62935 0.35496 0.83703 0.0
H1166 H 0.63919 0.43357 0.84233 0.0
C1167 C 0.5761 0.42218 0.92355 0.0
C1168 C 0.56756 0.44927 0.91827 0.0
C1169 C 0.59021 0.40602 0.90344 0.0
C1170 C 0.63569 0.41172 0.84084 0.0
H1171 H 0.70685 0.28897 0.79893 0.0
H1172 H 0.67409 0.3152 0.82917 0.0
H1173 H 0.67017 0.4062 0.81207 0.0
H1174 H 0.56661 0.48016 0.88687 0.0
H1175 H 0.59108 0.45181 0.85137 0.0
H1176 H 0.59508 0.36051 0.86611 0.0
C1177 C 0.68026 0.32388 0.80969 0.0
C1178 C 0.65363 0.39586 0.82339 0.0
C1179 C 0.6991 0.30871 0.79233 0.0
C1180 C 0.57252 0.45934 0.89162 0.0
C1181 C 0.58698 0.44313 0.8714 0.0
C1182 C 0.61143 0.37083 0.85451 0.0
C1183 C 0.67033 0.35022 0.80243 0.0
C1184 C 0.6509 0.36714 0.8212 0.0
C1185 C 0.59657 0.41632 0.8772 0.0
C1186 C 0.61437 0.39951 0.8569 0.0
H1187 H 0.70496 0.35436 0.7406 0.0
H1188 H 0.67214 0.38029 0.77014 0.0
H1189 H 0.62602 0.33308 0.83572 0.0
H1190 H 0.57278 0.41366 0.94383 0.0
H1191 H 0.59732 0.38576 0.90909 0.0
C1192 C 0.67801 0.3234 0.24487 0.0
C1193 C 0.70383 0.30979 0.23747 0.0
C1194 C 0.66293 0.34027 0.22605 0.0
C1195 C 0.65253 0.35336 0.15016 0.0
H1196 H 0.61678 0.421 0.17581 0.0
C1197 C 0.60177 0.42867 0.07123 0.0
C1198 C 0.57759 0.4452 0.07804 0.0
C1199 C 0.61609 0.41252 0.09106 0.0
C1200 C 0.62616 0.402 0.16821 0.0
H1201 H 0.73388 0.3034 0.20404 0.0
H1202 H 0.70755 0.33278 0.17094 0.0
H1203 H 0.64446 0.39308 0.2088 0.0
H1204 H 0.54985 0.4571 0.11206 0.0
H1205 H 0.5745 0.42827 0.14679 0.0
H1206 H 0.6339 0.36175 0.10981 0.0
C1207 C 0.69891 0.33038 0.1915 0.0
C1208 C 0.64227 0.38594 0.18724 0.0
C1209 C 0.71423 0.31365 0.21055 0.0
C1210 C 0.56824 0.44474 0.10579 0.0
C1211 C 0.58262 0.42825 0.12582 0.0
C1212 C 0.63624 0.36924 0.13123 0.0
C1213 C 0.67293 0.34397 0.19893 0.0
C1214 C 0.65592 0.36141 0.17852 0.0
C1215 C 0.60687 0.41177 0.11876 0.0
C1216 C 0.62295 0.39406 0.13974 0.0
H1217 H 0.66922 0.32087 0.26536 0.0
H1218 H 0.64295 0.34994 0.23262 0.0
H1219 H 0.66205 0.33441 0.14259 0.0
H1220 H 0.61023 0.42835 0.05037 0.0
H1221 H 0.63496 0.40097 0.08458 0.0
C1222 C 0.71473 0.67754 0.2053 0.0
C1223 C 0.70668 0.70504 0.2092 0.0
C1224 C 0.69788 0.66014 0.18787 0.0
C1225 C 0.62633 0.64829 0.15516 0.0
H1226 H 0.66944 0.61234 0.0962 0.0
C1227 C 0.56953 0.5819 0.06748 0.0
C1228 C 0.58419 0.55787 0.05932 0.0
C1229 C 0.58344 0.60139 0.08514 0.0
C1230 C 0.65708 0.62189 0.11272 0.0
H1231 H 0.6738 0.73549 0.19927 0.0
H1232 H 0.644 0.70472 0.1692 0.0
H1233 H 0.69487 0.6421 0.13032 0.0
H1234 H 0.62488 0.53541 0.06349 0.0
H1235 H 0.64858 0.5687 0.09464 0.0
H1236 H 0.58865 0.62739 0.13815 0.0
C1237 C 0.66351 0.69685 0.17944 0.0
C1238 C 0.67167 0.63899 0.13218 0.0
C1239 C 0.68061 0.71441 0.19654 0.0
C1240 C 0.613 0.55382 0.06905 0.0
C1241 C 0.62672 0.57306 0.08687 0.0
C1242 C 0.61172 0.63079 0.13588 0.0
C1243 C 0.67246 0.66979 0.17439 0.0
C1244 C 0.6565 0.65211 0.1537 0.0
C1245 C 0.61218 0.5971 0.09516 0.0
C1246 C 0.62702 0.61714 0.1146 0.0
H1247 H 0.73472 0.66972 0.21468 0.0
H1248 H 0.70503 0.63924 0.18444 0.0
H1249 H 0.61422 0.65826 0.17162 0.0
H1250 H 0.54731 0.58563 0.06029 0.0
H1251 H 0.57172 0.61983 0.09084 0.0
C1252 C 0.31915 0.68759 0.21909 0.0
C1253 C 0.31197 0.6771 0.245 0.0
C1254 C 0.33839 0.6735 0.20139 0.0
C1255 C 0.37136 0.60415 0.18751 0.0
H1256 H 0.42398 0.64466 0.14262 0.0
C1257 C 0.45454 0.54889 0.11406 0.0
C1258 C 0.45727 0.56001 0.08747 0.0
C1259 C 0.43943 0.56322 0.13523 0.0
C1260 C 0.40931 0.63288 0.15477 0.0
H1261 H 0.31918 0.64311 0.2723 0.0
H1262 H 0.35278 0.61868 0.2418 0.0
H1263 H 0.39224 0.66908 0.1746 0.0
H1264 H 0.44718 0.59564 0.06307 0.0
H1265 H 0.42147 0.62026 0.09937 0.0
H1266 H 0.38832 0.56794 0.16742 0.0
C1267 C 0.34351 0.63778 0.23489 0.0
C1268 C 0.39092 0.64701 0.17322 0.0
C1269 C 0.32431 0.65192 0.25256 0.0
C1270 C 0.44564 0.5863 0.0832 0.0
C1271 C 0.43088 0.6006 0.10424 0.0
C1272 C 0.38978 0.58999 0.16902 0.0
C1273 C 0.35095 0.64828 0.20893 0.0
C1274 C 0.37135 0.63296 0.18976 0.0
C1275 C 0.42694 0.5892 0.13051 0.0
C1276 C 0.40887 0.60411 0.15205 0.0
H1277 H 0.30928 0.70636 0.21211 0.0
H1278 H 0.34286 0.68215 0.18142 0.0
H1279 H 0.35649 0.5924 0.19949 0.0
H1280 H 0.46288 0.52863 0.1181 0.0
H1281 H 0.43725 0.55377 0.15521 0.0
C1282 C 0.33389 0.29102 0.1704 0.0
C1283 C 0.31989 0.30183 0.19407 0.0
C1284 C 0.3499 0.30798 0.15317 0.0
C1285 C 0.35883 0.38185 0.13586 0.0
H1286 H 0.42834 0.35656 0.0992 0.0
C1287 C 0.4601 0.42963 0.06918 0.0
C1288 C 0.44432 0.44929 0.05394 0.0
C1289 C 0.44566 0.41046 0.08529 0.0
C1290 C 0.4091 0.36412 0.1094 0.0
H1291 H 0.31276 0.33931 0.21819 0.0
H1292 H 0.34071 0.36835 0.18884 0.0
H1293 H 0.40261 0.32599 0.12947 0.0
H1294 H 0.4006 0.46308 0.04309 0.0
H1295 H 0.37574 0.42973 0.07028 0.0
H1296 H 0.36554 0.42009 0.11657 0.0
C1297 C 0.33888 0.34689 0.18303 0.0
C1298 C 0.39404 0.34637 0.12659 0.0
C1299 C 0.32288 0.33004 0.20013 0.0
C1300 C 0.41368 0.44856 0.05466 0.0
C1301 C 0.39932 0.42942 0.07058 0.0
C1302 C 0.37382 0.39952 0.11877 0.0
C1303 C 0.35246 0.33631 0.15904 0.0
C1304 C 0.36864 0.35495 0.14022 0.0
C1305 C 0.41497 0.4103 0.08663 0.0
C1306 C 0.39921 0.39103 0.10512 0.0
H1307 H 0.33214 0.26948 0.16489 0.0
H1308 H 0.35972 0.29891 0.13485 0.0
H1309 H 0.33922 0.38935 0.14547 0.0
H1310 H 0.48369 0.42953 0.06935 0.0
H1311 H 0.45867 0.39632 0.09739 0.0
C1312 C 0.76142 0.63848 0.68326 0.0
C1313 C 0.77583 0.66362 0.68184 0.0
C1314 C 0.76925 0.61661 0.66561 0.0
C1315 C 0.80867 0.59909 0.60199 0.0
H1316 H 0.85228 0.54746 0.6468 0.0
C1317 C 0.92283 0.56699 0.57641 0.0
C1318 C 0.93318 0.54076 0.58248 0.0
C1319 C 0.89475 0.57481 0.58346 0.0
C1320 C 0.83962 0.56103 0.63369 0.0
H1321 H 0.80809 0.6865 0.66023 0.0
H1322 H 0.82134 0.64871 0.62923 0.0
H1323 H 0.81376 0.57439 0.66783 0.0
H1324 H 0.92189 0.50206 0.60059 0.0
H1325 H 0.87302 0.51591 0.61291 0.0
H1326 H 0.836 0.58725 0.56841 0.0
C1327 C 0.80416 0.6457 0.64384 0.0
C1328 C 0.81743 0.57634 0.64573 0.0
C1329 C 0.79695 0.66716 0.66184 0.0
C1330 C 0.91481 0.52256 0.59582 0.0
C1331 C 0.8867 0.53037 0.60276 0.0
C1332 C 0.8307 0.58366 0.58987 0.0
C1333 C 0.7908 0.62014 0.64589 0.0
C1334 C 0.80339 0.59685 0.63051 0.0
C1335 C 0.87638 0.55654 0.59661 0.0
C1336 C 0.84774 0.566 0.60625 0.0
H1337 H 0.74492 0.63553 0.69856 0.0
H1338 H 0.75907 0.59688 0.66773 0.0
H1339 H 0.79784 0.61472 0.58988 0.0
H1340 H 0.93627 0.58146 0.56602 0.0
H1341 H 0.88768 0.59542 0.57912 0.0
C1342 C 0.29695 0.82613 0.63697 0.0
C1343 C 0.31085 0.80173 0.64424 0.0
C1344 C 0.30641 0.84075 0.61446 0.0
C1345 C 0.35976 0.84029 0.55696 0.0
H1346 H 0.3704 0.91549 0.58264 0.0
C1347 C 0.4588 0.90546 0.53382 0.0
C1348 C 0.45546 0.93386 0.53174 0.0
C1349 C 0.43485 0.88906 0.53878 0.0
C1350 C 0.36706 0.89479 0.57464 0.0
H1351 H 0.34383 0.77215 0.63291 0.0
H1352 H 0.36165 0.7984 0.59445 0.0
H1353 H 0.33821 0.88633 0.6071 0.0
H1354 H 0.42398 0.96707 0.53102 0.0
H1355 H 0.38226 0.93839 0.53984 0.0
H1356 H 0.39046 0.84871 0.52552 0.0
C1357 C 0.34294 0.80602 0.60547 0.0
C1358 C 0.34847 0.87797 0.58868 0.0
C1359 C 0.33299 0.79109 0.62765 0.0
C1360 C 0.42743 0.94532 0.53314 0.0
C1361 C 0.40349 0.92891 0.53805 0.0
C1362 C 0.3786 0.85716 0.54295 0.0
C1363 C 0.33048 0.83156 0.59934 0.0
C1364 C 0.34535 0.85027 0.58064 0.0
C1365 C 0.40711 0.90075 0.54168 0.0
C1366 C 0.38314 0.88431 0.55232 0.0
H1367 H 0.27933 0.83435 0.64921 0.0
H1368 H 0.29581 0.85995 0.6098 0.0
H1369 H 0.35742 0.81917 0.54995 0.0
H1370 H 0.48003 0.89592 0.53236 0.0
H1371 H 0.43837 0.86745 0.54177 0.0
C1372 C 0.25626 0.35733 0.65735 0.0
C1373 C 0.23777 0.35141 0.67918 0.0
C1374 C 0.2494 0.37853 0.63936 0.0
C1375 C 0.21049 0.40367 0.59384 0.0
H1376 H 0.17197 0.47051 0.6178 0.0
C1377 C 0.10173 0.43848 0.55216 0.0
C1378 C 0.09554 0.46621 0.54894 0.0
C1379 C 0.12933 0.43031 0.56135 0.0
C1380 C 0.18338 0.4524 0.61054 0.0
H1381 H 0.19888 0.36378 0.70064 0.0
H1382 H 0.18692 0.40089 0.66939 0.0
H1383 H 0.20361 0.44634 0.65078 0.0
H1384 H 0.11284 0.50728 0.55169 0.0
H1385 H 0.16139 0.49297 0.56913 0.0
H1386 H 0.18816 0.40843 0.55437 0.0
C1387 C 0.20672 0.38931 0.66613 0.0
C1388 C 0.20127 0.43848 0.62946 0.0
C1389 C 0.21334 0.3679 0.68382 0.0
C1390 C 0.1175 0.48574 0.55393 0.0
C1391 C 0.14508 0.47759 0.56382 0.0
C1392 C 0.1924 0.41746 0.575 0.0
C1393 C 0.22425 0.39436 0.6433 0.0
C1394 C 0.21356 0.4132 0.62171 0.0
C1395 C 0.15099 0.44982 0.56808 0.0
C1396 C 0.17738 0.44104 0.58374 0.0
H1397 H 0.27533 0.34488 0.65348 0.0
H1398 H 0.26318 0.382 0.62186 0.0
H1399 H 0.21967 0.3842 0.58732 0.0
H1400 H 0.08489 0.42323 0.54844 0.0
H1401 H 0.13311 0.40883 0.56498 0.0
C1402 C 0.70936 0.22004 0.65495 0.0
C1403 C 0.70037 0.22556 0.68234 0.0
C1404 C 0.69216 0.20391 0.63643 0.0
C1405 C 0.61744 0.1783 0.62417 0.0
H1406 H 0.65418 0.11898 0.58285 0.0
C1407 C 0.57984 0.0723 0.56394 0.0
C1408 C 0.55526 0.0821 0.54913 0.0
C1409 C 0.59934 0.09059 0.57748 0.0
C1410 C 0.64366 0.13542 0.59432 0.0
H1411 H 0.66589 0.21928 0.71145 0.0
H1412 H 0.63599 0.19135 0.67919 0.0
H1413 H 0.68418 0.15055 0.61187 0.0
H1414 H 0.53289 0.11879 0.53548 0.0
H1415 H 0.56692 0.15035 0.5586 0.0
H1416 H 0.57693 0.1629 0.60743 0.0
C1417 C 0.65625 0.19948 0.67199 0.0
C1418 C 0.66082 0.15365 0.61065 0.0
C1419 C 0.67347 0.2154 0.69051 0.0
C1420 C 0.55131 0.11047 0.54711 0.0
C1421 C 0.57078 0.12863 0.56042 0.0
C1422 C 0.60036 0.1602 0.60784 0.0
C1423 C 0.66558 0.19326 0.64489 0.0
C1424 C 0.64781 0.17509 0.62597 0.0
C1425 C 0.59461 0.11894 0.5763 0.0
C1426 C 0.61323 0.13847 0.59287 0.0
H1427 H 0.73005 0.22747 0.64806 0.0
H1428 H 0.69972 0.19964 0.61556 0.0
H1429 H 0.60683 0.19475 0.63557 0.0
H1430 H 0.58356 0.05056 0.56577 0.0
H1431 H 0.61749 0.08254 0.58969 0.0
C1432 C 0.81715 0.34754 0.3014 0.0
C1433 C 0.79926 0.32894 0.31461 0.0
C1434 C 0.8313 0.36836 0.3169 0.0
C1435 C 0.86011 0.38189 0.38736 0.0
H1436 H 0.87311 0.45496 0.3612 0.0
C1437 C 0.9319 0.45747 0.45077 0.0
C1438 C 0.95248 0.47167 0.43567 0.0
C1439 C 0.90922 0.44341 0.43689 0.0
C1440 C 0.86973 0.43458 0.36867 0.0
H1441 H 0.78083 0.31856 0.35415 0.0
H1442 H 0.80553 0.35496 0.38112 0.0
H1443 H 0.83958 0.42433 0.33499 0.0
H1444 H 0.96483 0.48307 0.39423 0.0
H1445 H 0.92559 0.45779 0.36989 0.0
H1446 H 0.89085 0.39154 0.4204 0.0
C1447 C 0.8089 0.35315 0.35885 0.0
C1448 C 0.85054 0.41712 0.35374 0.0
C1449 C 0.79474 0.33234 0.34338 0.0
C1450 C 0.94938 0.47221 0.40643 0.0
C1451 C 0.92676 0.45793 0.3925 0.0
C1452 C 0.87931 0.39923 0.40218 0.0
C1453 C 0.82781 0.37095 0.34587 0.0
C1454 C 0.84584 0.39051 0.36281 0.0
C1455 C 0.90674 0.44304 0.4076 0.0
C1456 C 0.8846 0.42564 0.39283 0.0
H1457 H 0.82098 0.34558 0.27924 0.0
H1458 H 0.84598 0.38166 0.30641 0.0
H1459 H 0.85734 0.36131 0.39454 0.0
H1460 H 0.93331 0.45713 0.47337 0.0
H1461 H 0.89379 0.43257 0.44911 0.0
C1462 C 0.70079 0.81109 0.28467 0.0
C1463 C 0.72631 0.80195 0.29864 0.0
C1464 C 0.68253 0.83095 0.29728 0.0
C1465 C 0.66713 0.86174 0.36847 0.0
H1466 H 0.62278 0.91607 0.32789 0.0
C1467 C 0.61062 0.94901 0.4287 0.0
C1468 C 0.58156 0.95568 0.42137 0.0
C1469 C 0.6276 0.93249 0.41116 0.0
C1470 C 0.63486 0.90092 0.33956 0.0
H1471 H 0.75317 0.80777 0.33626 0.0
H1472 H 0.72236 0.84225 0.35766 0.0
H1473 H 0.65334 0.88314 0.30241 0.0
H1474 H 0.54828 0.9509 0.3886 0.0
H1475 H 0.5782 0.92213 0.35757 0.0
H1476 H 0.64905 0.87935 0.4055 0.0
C1477 C 0.71554 0.83368 0.33744 0.0
C1478 C 0.65243 0.88189 0.3249 0.0
C1479 C 0.73352 0.8139 0.32498 0.0
C1480 C 0.57065 0.94659 0.39487 0.0
C1481 C 0.5878 0.92988 0.37714 0.0
C1482 C 0.64987 0.88072 0.38301 0.0
C1483 C 0.68931 0.84223 0.32423 0.0
C1484 C 0.66926 0.86215 0.33917 0.0
C1485 C 0.61625 0.92174 0.38551 0.0
C1486 C 0.63369 0.90093 0.36898 0.0
H1487 H 0.69457 0.80245 0.26429 0.0
H1488 H 0.66269 0.83682 0.28622 0.0
H1489 H 0.67872 0.84651 0.38044 0.0
H1490 H 0.61997 0.95564 0.4488 0.0
H1491 H 0.64956 0.92747 0.41819 0.0
C1492 C 0.17096 0.69178 0.35412 0.0
C1493 C 0.19952 0.7008 0.35989 0.0
C1494 C 0.15151 0.68932 0.37572 0.0
C1495 C 0.14713 0.67242 0.44716 0.0
H1496 H 0.06897 0.70226 0.44078 0.0
C1497 C 0.05833 0.62326 0.50725 0.0
C1498 C 0.03547 0.61513 0.48882 0.0
C1499 C 0.07685 0.64452 0.50022 0.0
C1500 C 0.09073 0.69386 0.44303 0.0
H1501 H 0.23037 0.71422 0.39255 0.0
H1502 H 0.19649 0.70862 0.4307 0.0
H1503 H 0.10619 0.71704 0.40921 0.0
H1504 H 0.01173 0.62438 0.4506 0.0
H1505 H 0.04349 0.6611 0.43825 0.0
H1506 H 0.13137 0.64729 0.479 0.0
C1507 C 0.18913 0.70402 0.40938 0.0
C1508 C 0.112 0.70241 0.425 0.0
C1509 C 0.20845 0.70709 0.38765 0.0
C1510 C 0.02913 0.63055 0.46522 0.0
C1511 C 0.0475 0.65169 0.45819 0.0
C1512 C 0.12573 0.66345 0.46485 0.0
C1513 C 0.16043 0.69536 0.40352 0.0
C1514 C 0.14001 0.69091 0.42619 0.0
C1515 C 0.07274 0.65772 0.47461 0.0
C1516 C 0.09685 0.67308 0.46209 0.0
H1517 H 0.1635 0.68702 0.33287 0.0
H1518 H 0.12958 0.68222 0.37075 0.0
H1519 H 0.16862 0.66327 0.44842 0.0
H1520 H 0.0637 0.61144 0.52549 0.0
H1521 H 0.0957 0.64905 0.51369 0.0
C1522 C 0.31467 0.1949 0.28736 0.0
C1523 C 0.31662 0.22179 0.29834 0.0
C1524 C 0.33149 0.17375 0.29898 0.0
C1525 C 0.36701 0.15385 0.36536 0.0
H1526 H 0.40964 0.10056 0.32108 0.0
C1527 C 0.4151 0.05865 0.4161 0.0
C1528 C 0.44521 0.05438 0.41322 0.0
C1529 C 0.39954 0.07637 0.3987 0.0
C1530 C 0.39787 0.1153 0.3337 0.0
H1531 H 0.33708 0.24729 0.3309 0.0
H1532 H 0.36583 0.21044 0.35166 0.0
H1533 H 0.38264 0.13754 0.29789 0.0
H1534 H 0.48203 0.06414 0.38824 0.0
H1535 H 0.45446 0.09473 0.35708 0.0
H1536 H 0.3817 0.13166 0.40105 0.0
C1537 C 0.35171 0.20571 0.33365 0.0
C1538 C 0.38226 0.13641 0.32043 0.0
C1539 C 0.33525 0.22687 0.32173 0.0
C1540 C 0.4588 0.06654 0.39075 0.0
C1541 C 0.44304 0.08431 0.37308 0.0
C1542 C 0.38208 0.13259 0.37849 0.0
C1543 C 0.35011 0.17881 0.32245 0.0
C1544 C 0.36672 0.15607 0.33614 0.0
C1545 C 0.41348 0.09038 0.37771 0.0
C1546 C 0.39772 0.11297 0.36294 0.0
H1547 H 0.2994 0.19 0.27039 0.0
H1548 H 0.32918 0.15323 0.29015 0.0
H1549 H 0.35516 0.16841 0.37814 0.0
H1550 H 0.40392 0.04969 0.43319 0.0
H1551 H 0.37673 0.08009 0.40256 0.0
C1552 C 0.67666 0.78806 0.68106 0.0
C1553 C 0.69795 0.79265 0.70239 0.0
C1554 C 0.66015 0.80972 0.67021 0.0
C1555 C 0.66139 0.88501 0.66202 0.0
H1556 H 0.58065 0.8743 0.63831 0.0
C1557 C 0.60196 0.95312 0.58097 0.0
C1558 C 0.57177 0.95779 0.58246 0.0
C1559 C 0.61672 0.93644 0.6001 0.0
C1560 C 0.60305 0.8779 0.6451 0.0
H1561 H 0.71903 0.82395 0.72853 0.0
H1562 H 0.68998 0.86182 0.70998 0.0
H1563 H 0.60673 0.8383 0.66294 0.0
H1564 H 0.53368 0.94917 0.60613 0.0
H1565 H 0.55947 0.92014 0.63986 0.0
H1566 H 0.65778 0.92453 0.64394 0.0
C1567 C 0.6859 0.84136 0.70165 0.0
C1568 C 0.6182 0.85701 0.65898 0.0
C1569 C 0.70232 0.81957 0.71263 0.0
C1570 C 0.557 0.94645 0.60464 0.0
C1571 C 0.57176 0.9294 0.6237 0.0
C1572 C 0.64629 0.90585 0.64799 0.0
C1573 C 0.66459 0.8368 0.68014 0.0
C1574 C 0.64777 0.86002 0.6673 0.0
C1575 C 0.60173 0.92352 0.62123 0.0
C1576 C 0.61697 0.90251 0.63891 0.0
H1577 H 0.67293 0.76762 0.67248 0.0
H1578 H 0.64442 0.80526 0.65341 0.0
H1579 H 0.68412 0.88819 0.66787 0.0
H1580 H 0.61398 0.96126 0.56398 0.0
H1581 H 0.63962 0.93238 0.59718 0.0
C1582 C 0.71845 0.18862 0.36304 0.0
C1583 C 0.71475 0.21696 0.36141 0.0
C1584 C 0.70511 0.17436 0.38389 0.0
C1585 C 0.63927 0.17968 0.42286 0.0
H1586 H 0.66717 0.11228 0.45498 0.0
C1587 C 0.55964 0.10804 0.47207 0.0
C1588 C 0.56188 0.08056 0.4632 0.0
C1589 C 0.58233 0.12614 0.4681 0.0
C1590 C 0.65912 0.13108 0.44619 0.0
H1591 H 0.69639 0.25309 0.38127 0.0
H1592 H 0.67297 0.22812 0.41791 0.0
H1593 H 0.7015 0.14269 0.43333 0.0
H1594 H 0.59009 0.05007 0.44447 0.0
H1595 H 0.62933 0.08206 0.43617 0.0
H1596 H 0.5968 0.16763 0.43407 0.0
C1597 C 0.68586 0.21689 0.40288 0.0
C1598 C 0.67875 0.1485 0.43392 0.0
C1599 C 0.69921 0.23115 0.38197 0.0
C1600 C 0.58773 0.07123 0.45129 0.0
C1601 C 0.61031 0.08949 0.44685 0.0
C1602 C 0.61971 0.16229 0.43498 0.0
C1603 C 0.68787 0.18825 0.40345 0.0
C1604 C 0.66881 0.17255 0.42139 0.0
C1605 C 0.60754 0.11728 0.45466 0.0
C1606 C 0.62925 0.13742 0.44603 0.0
H1607 H 0.7306 0.17729 0.3475 0.0
H1608 H 0.70683 0.15229 0.38358 0.0
H1609 H 0.63082 0.1978 0.41297 0.0
H1610 H 0.54021 0.11567 0.48192 0.0
H1611 H 0.5798 0.14726 0.47494 0.0
C1612 C 0.77969 0.66329 0.33625 0.0
C1613 C 0.79913 0.67191 0.31625 0.0
C1614 C 0.78818 0.6436 0.35541 0.0
C1615 C 0.82274 0.62085 0.40512 0.0
H1616 H 0.87204 0.55939 0.3852 0.0
C1617 C 0.91794 0.58273 0.47212 0.0
C1618 C 0.92621 0.55524 0.47002 0.0
C1619 C 0.89311 0.59182 0.45763 0.0
C1620 C 0.85773 0.57603 0.39118 0.0
H1621 H 0.84208 0.66608 0.29963 0.0
H1622 H 0.85699 0.63159 0.33305 0.0
H1623 H 0.84652 0.58434 0.34854 0.0
H1624 H 0.91456 0.51526 0.4531 0.0
H1625 H 0.87102 0.53108 0.42747 0.0
H1626 H 0.83514 0.61335 0.44771 0.0
C1627 C 0.83515 0.6399 0.33389 0.0
C1628 C 0.84342 0.5905 0.37015 0.0
C1629 C 0.82673 0.65976 0.31489 0.0
C1630 C 0.90828 0.5365 0.4551 0.0
C1631 C 0.88354 0.5456 0.44037 0.0
C1632 C 0.83721 0.60646 0.42617 0.0
C1633 C 0.81616 0.63202 0.35468 0.0
C1634 C 0.82667 0.61365 0.37687 0.0
C1635 C 0.87651 0.57357 0.44047 0.0
C1636 C 0.85571 0.58454 0.41934 0.0
H1637 H 0.75821 0.67235 0.33764 0.0
H1638 H 0.77309 0.63777 0.37112 0.0
H1639 H 0.81002 0.63867 0.41091 0.0
H1640 H 0.93186 0.5975 0.48322 0.0
H1641 H 0.8885 0.61353 0.4579 0.0
C1642 C 0.3508 0.78374 0.3183 0.0
C1643 C 0.32515 0.7719 0.3276 0.0
C1644 C 0.36633 0.80255 0.33528 0.0
C1645 C 0.37722 0.82961 0.40738 0.0
H1646 H 0.40297 0.89396 0.36975 0.0
C1647 C 0.46478 0.90289 0.45332 0.0
C1648 C 0.46243 0.93094 0.44817 0.0
C1649 C 0.44453 0.88445 0.44159 0.0
C1650 C 0.39556 0.87634 0.38068 0.0
H1651 H 0.29659 0.76943 0.36271 0.0
H1652 H 0.32386 0.80231 0.3924 0.0
H1653 H 0.37574 0.85869 0.34348 0.0
H1654 H 0.43611 0.96187 0.42788 0.0
H1655 H 0.4006 0.92944 0.40708 0.0
H1656 H 0.39715 0.84736 0.44462 0.0
C1657 C 0.33191 0.79698 0.37194 0.0
C1658 C 0.38035 0.85592 0.36554 0.0
C1659 C 0.31633 0.77809 0.35493 0.0
C1660 C 0.43862 0.94034 0.43199 0.0
C1661 C 0.41839 0.92178 0.42004 0.0
C1662 C 0.39253 0.85005 0.42255 0.0
C1663 C 0.35658 0.80999 0.36194 0.0
C1664 C 0.37148 0.83212 0.37859 0.0
C1665 C 0.42146 0.89359 0.42434 0.0
C1666 C 0.40226 0.87343 0.40924 0.0
H1667 H 0.35839 0.77925 0.29747 0.0
H1668 H 0.38569 0.81173 0.32727 0.0
H1669 H 0.37063 0.81152 0.41802 0.0
H1670 H 0.4826 0.89503 0.46611 0.0
H1671 H 0.44767 0.86289 0.44515 0.0
C1672 C 0.24551 0.36729 0.31754 0.0
C1673 C 0.22819 0.3513 0.29884 0.0
C1674 C 0.23309 0.3889 0.33265 0.0
C1675 C 0.16864 0.43341 0.33638 0.0
H1676 H 0.17577 0.42413 0.41649 0.0
C1677 C 0.09825 0.49464 0.41252 0.0
C1678 C 0.08338 0.47843 0.43123 0.0
C1679 C 0.12131 0.48388 0.39756 0.0
C1680 C 0.17381 0.42709 0.39419 0.0
H1681 H 0.18516 0.34605 0.27966 0.0
H1682 H 0.1635 0.38397 0.30576 0.0
H1683 H 0.20735 0.39797 0.38544 0.0
H1684 H 0.08186 0.43844 0.44959 0.0
H1685 H 0.12196 0.41953 0.42302 0.0
H1686 H 0.13408 0.46138 0.34491 0.0
C1687 C 0.18655 0.37987 0.30886 0.0
C1688 C 0.19205 0.41241 0.37649 0.0
C1689 C 0.19884 0.35808 0.29412 0.0
C1690 C 0.09265 0.45142 0.4352 0.0
C1691 C 0.11582 0.44068 0.42024 0.0
C1692 C 0.15056 0.44821 0.35406 0.0
C1693 C 0.20338 0.39498 0.32876 0.0
C1694 C 0.18885 0.41476 0.34741 0.0
C1695 C 0.13007 0.45673 0.40103 0.0
C1696 C 0.15233 0.44445 0.38302 0.0
H1697 H 0.26826 0.36234 0.32141 0.0
H1698 H 0.24642 0.40036 0.34789 0.0
H1699 H 0.16593 0.43558 0.314 0.0
H1700 H 0.09193 0.51563 0.40908 0.0
H1701 H 0.13211 0.49671 0.38302 0.0
C1702 C 0.32451 0.20619 0.71018 0.0
C1703 C 0.29911 0.21555 0.69619 0.0
C1704 C 0.34179 0.18525 0.6982 0.0
C1705 C 0.33907 0.1284 0.64387 0.0
H1706 H 0.42316 0.13476 0.6448 0.0
C1707 C 0.40888 0.06494 0.5669 0.0
C1708 C 0.43784 0.05756 0.57386 0.0
C1709 C 0.39228 0.08121 0.58503 0.0
C1710 C 0.39975 0.13226 0.64466 0.0
H1711 H 0.27194 0.20971 0.65877 0.0
H1712 H 0.3015 0.17345 0.63821 0.0
H1713 H 0.39411 0.1687 0.67015 0.0
H1714 H 0.47154 0.06126 0.60632 0.0
H1715 H 0.44232 0.08927 0.63847 0.0
H1716 H 0.34442 0.09211 0.61853 0.0
C1717 C 0.30825 0.18205 0.65845 0.0
C1718 C 0.38298 0.1519 0.65924 0.0
C1719 C 0.29128 0.20307 0.67022 0.0
C1720 C 0.44922 0.06608 0.60033 0.0
C1721 C 0.43253 0.08261 0.6186 0.0
C1722 C 0.35575 0.10873 0.6295 0.0
C1723 C 0.33393 0.17281 0.67207 0.0
C1724 C 0.35228 0.15063 0.65862 0.0
C1725 C 0.40389 0.09093 0.61102 0.0
C1726 C 0.38641 0.11054 0.62906 0.0
H1727 H 0.33135 0.21539 0.73012 0.0
H1728 H 0.36123 0.17869 0.70951 0.0
H1729 H 0.3156 0.12616 0.6433 0.0
H1730 H 0.39931 0.05905 0.54667 0.0
H1731 H 0.37067 0.08721 0.5779 0.0
C1732 C 0.85337 0.30828 0.66132 0.0
C1733 C 0.82334 0.3055 0.65581 0.0
C1734 C 0.87206 0.31423 0.63991 0.0
C1735 C 0.87369 0.34787 0.57322 0.0
H1736 H 0.95123 0.31641 0.57133 0.0
C1737 C 0.96081 0.40099 0.5131 0.0
C1738 C 0.9847 0.40746 0.531 0.0
C1739 C 0.94189 0.37986 0.51962 0.0
C1740 C 0.92959 0.32526 0.57138 0.0
H1741 H 0.78919 0.30642 0.62362 0.0
H1742 H 0.82194 0.31744 0.58604 0.0
H1743 H 0.91495 0.29688 0.60111 0.0
H1744 H 1.00937 0.39572 0.5679 0.0
H1745 H 0.97702 0.35876 0.57908 0.0
H1746 H 0.88869 0.3773 0.54494 0.0
C1747 C 0.83099 0.3149 0.60696 0.0
C1748 C 0.90885 0.31412 0.5885 0.0
C1749 C 0.81228 0.30865 0.62842 0.0
C1750 C 0.99128 0.39074 0.5536 0.0
C1751 C 0.97261 0.36957 0.56 0.0
C1752 C 0.89447 0.35911 0.55622 0.0
C1753 C 0.86111 0.31772 0.6125 0.0
C1754 C 0.88106 0.32601 0.59046 0.0
C1755 C 0.94674 0.36496 0.54407 0.0
C1756 C 0.92305 0.34866 0.556 0.0
H1757 H 0.86249 0.30581 0.68223 0.0
H1758 H 0.89506 0.31676 0.64498 0.0
H1759 H 0.8525 0.35755 0.57434 0.0
H1760 H 0.95514 0.41392 0.49578 0.0
H1761 H 0.92237 0.37656 0.5067 0.0
C1762 C 0.20642 0.68134 0.71807 0.0
C1763 C 0.22257 0.69972 0.70271 0.0
C1764 C 0.18944 0.6612 0.70443 0.0
C1765 C 0.17798 0.62392 0.63688 0.0
H1766 H 0.10001 0.61354 0.66351 0.0
C1767 C 0.08686 0.56873 0.57211 0.0
C1768 C 0.06762 0.55207 0.58623 0.0
C1769 C 0.1079 0.58421 0.58694 0.0
C1770 C 0.12188 0.61587 0.65608 0.0
H1771 H 0.23387 0.71102 0.6609 0.0
H1772 H 0.20385 0.67607 0.63711 0.0
H1773 H 0.13274 0.64558 0.6882 0.0
H1774 H 0.05629 0.53766 0.62693 0.0
H1775 H 0.09321 0.5646 0.65279 0.0
H1776 H 0.1668 0.59449 0.60442 0.0
C1777 C 0.20467 0.67705 0.65974 0.0
C1778 C 0.14063 0.63424 0.67022 0.0
C1779 C 0.22173 0.69719 0.67339 0.0
C1780 C 0.07059 0.55047 0.61543 0.0
C1781 C 0.09164 0.56598 0.63026 0.0
C1782 C 0.15918 0.60554 0.6227 0.0
C1783 C 0.18815 0.65901 0.67512 0.0
C1784 C 0.1688 0.63862 0.66066 0.0
C1785 C 0.1102 0.58332 0.6162 0.0
C1786 C 0.13087 0.60149 0.63206 0.0
H1787 H 0.20674 0.6825 0.74069 0.0
H1788 H 0.1773 0.64733 0.71686 0.0
H1789 H 0.19972 0.62659 0.62926 0.0
H1790 H 0.0854 0.57019 0.54959 0.0
H1791 H 0.12175 0.59754 0.57554 0.0
loop_
_geom_bond_atom_site_label_1
_geom_bond_atom_site_label_2
_geom_bond_distance
_geom_bond_site_symmetry_2
_ccdc_geom_bond_type
Tb0 O3 2.453 . S
Tb0 O4 2.596 . S
Tb0 O5 2.374 . S
Tb0 O13 2.343 . S
Tb0 O15 2.353 . S
Tb0 O17 2.427 . S
Tb0 O18 2.513 . S
C1 O5 1.251 . S
C1 O7 1.263 . S
Tb2 O4 2.343 . S
Tb2 O7 2.353 . S
Tb2 O10 2.427 . S
Tb2 O11 2.513 . S
Tb2 O12 2.453 . S
Tb2 O13 2.596 . S
Tb2 O14 2.374 . S
O3 Tb0 2.453 . S
O3 C19 1.245 . S
O4 Tb0 2.596 . S
O4 Tb2 2.343 . S
O4 C19 1.259 . S
O5 Tb0 2.374 . S
O5 C1 1.251 . S
C6 O10 1.275 . S
C6 O11 1.246 . S
O7 C1 1.263 . S
O7 Tb2 2.353 . S
C8 O12 1.245 . S
C8 O13 1.259 . S
C9 O14 1.250 . S
C9 O15 1.263 . S
O10 Tb2 2.427 . S
O10 C6 1.275 . S
O11 Tb2 2.513 . S
O11 C6 1.246 . S
O12 Tb2 2.453 . S
O12 C8 1.245 . S
O13 Tb0 2.343 . S
O13 Tb2 2.596 . S
O13 C8 1.259 . S
O14 Tb2 2.374 . S
O14 C9 1.250 . S
O15 Tb0 2.353 . S
O15 C9 1.263 . S
C16 O17 1.275 . S
C16 O18 1.246 . S
O17 Tb0 2.427 . S
O17 C16 1.275 . S
O18 Tb0 2.513 . S
O18 C16 1.246 . S
C19 O3 1.245 . S
C19 O4 1.259 . S
Tb20 O23 2.453 . S
Tb20 O24 2.596 . S
Tb20 O25 2.374 . S
Tb20 O33 2.343 . S
Tb20 O35 2.353 . S
Tb20 O37 2.427 . S
Tb20 O38 2.513 . S
C21 O25 1.251 . S
C21 O27 1.263 . S
Tb22 O24 2.343 . S
Tb22 O27 2.353 . S
Tb22 O30 2.427 . S
Tb22 O31 2.513 . S
Tb22 O32 2.453 . S
Tb22 O33 2.596 . S
Tb22 O34 2.374 . S
O23 Tb20 2.453 . S
O23 C39 1.245 . S
O24 Tb20 2.596 . S
O24 Tb22 2.343 . S
O24 C39 1.259 . S
O25 Tb20 2.374 . S
O25 C21 1.251 . S
C26 O30 1.275 . S
C26 O31 1.246 . S
O27 C21 1.263 . S
O27 Tb22 2.353 . S
C28 O32 1.245 . S
C28 O33 1.259 . S
C29 O34 1.250 . S
C29 O35 1.263 . S
O30 Tb22 2.427 . S
O30 C26 1.275 . S
O31 Tb22 2.513 . S
O31 C26 1.246 . S
O32 Tb22 2.453 . S
O32 C28 1.245 . S
O33 Tb20 2.343 . S
O33 Tb22 2.596 . S
O33 C28 1.259 . S
O34 Tb22 2.374 . S
O34 C29 1.250 . S
O35 Tb20 2.353 . S
O35 C29 1.263 . S
C36 O37 1.275 . S
C36 O38 1.246 . S
O37 Tb20 2.427 . S
O37 C36 1.275 . S
O38 Tb20 2.513 . S
O38 C36 1.246 . S
C39 O23 1.245 . S
C39 O24 1.259 . S
Tb40 O43 2.453 . S
Tb40 O44 2.596 . S
Tb40 O45 2.374 . S
Tb40 O53 2.343 . S
Tb40 O55 2.353 . S
Tb40 O57 2.427 . S
Tb40 O58 2.513 . S
C41 O45 1.251 . S
C41 O47 1.263 . S
Tb42 O44 2.343 . S
Tb42 O47 2.353 . S
Tb42 O50 2.427 . S
Tb42 O51 2.513 . S
Tb42 O52 2.453 . S
Tb42 O53 2.596 . S
Tb42 O54 2.374 . S
O43 Tb40 2.453 . S
O43 C59 1.245 . S
O44 Tb40 2.596 . S
O44 Tb42 2.343 . S
O44 C59 1.259 . S
O45 Tb40 2.374 . S
O45 C41 1.251 . S
C46 O50 1.275 . S
C46 O51 1.246 . S
O47 C41 1.263 . S
O47 Tb42 2.353 . S
C48 O52 1.245 . S
C48 O53 1.259 . S
C49 O54 1.250 . S
C49 O55 1.263 . S
O50 Tb42 2.427 . S
O50 C46 1.275 . S
O51 Tb42 2.513 . S
O51 C46 1.246 . S
O52 Tb42 2.453 . S
O52 C48 1.245 . S
O53 Tb40 2.343 . S
O53 Tb42 2.596 . S
O53 C48 1.259 . S
O54 Tb42 2.374 . S
O54 C49 1.250 . S
O55 Tb40 2.353 . S
O55 C49 1.263 . S
C56 O57 1.275 . S
C56 O58 1.246 . S
O57 Tb40 2.427 . S
O57 C56 1.275 . S
O58 Tb40 2.513 . S
O58 C56 1.246 . S
C59 O43 1.245 . S
C59 O44 1.259 . S
Tb60 O63 2.453 . S
Tb60 O64 2.596 . S
Tb60 O65 2.374 . S
Tb60 O73 2.343 . S
Tb60 O75 2.353 . S
Tb60 O77 2.427 . S
Tb60 O78 2.513 . S
C61 O65 1.251 . S
C61 O67 1.263 . S
Tb62 O64 2.343 . S
Tb62 O67 2.353 . S
Tb62 O70 2.427 . S
Tb62 O71 2.513 . S
Tb62 O72 2.453 . S
Tb62 O73 2.596 . S
Tb62 O74 2.374 . S
O63 Tb60 2.453 . S
O63 C79 1.245 . S
O64 Tb60 2.596 . S
O64 Tb62 2.343 . S
O64 C79 1.259 . S
O65 Tb60 2.374 . S
O65 C61 1.251 . S
C66 O70 1.275 . S
C66 O71 1.246 . S
O67 C61 1.263 . S
O67 Tb62 2.353 . S
C68 O72 1.245 . S
C68 O73 1.259 . S
C69 O74 1.250 . S
C69 O75 1.263 . S
O70 Tb62 2.427 . S
O70 C66 1.275 . S
O71 Tb62 2.513 . S
O71 C66 1.246 . S
O72 Tb62 2.453 . S
O72 C68 1.245 . S
O73 Tb60 2.343 . S
O73 Tb62 2.596 . S
O73 C68 1.259 . S
O74 Tb62 2.374 . S
O74 C69 1.250 . S
O75 Tb60 2.353 . S
O75 C69 1.263 . S
C76 O77 1.275 . S
C76 O78 1.246 . S
O77 Tb60 2.427 . S
O77 C76 1.275 . S
O78 Tb60 2.513 . S
O78 C76 1.246 . S
C79 O63 1.245 . S
C79 O64 1.259 . S
Tb80 O83 2.453 . S
Tb80 O84 2.596 . S
Tb80 O85 2.374 . S
Tb80 O93 2.343 . S
Tb80 O95 2.353 . S
Tb80 O97 2.427 . S
Tb80 O98 2.513 . S
C81 O85 1.251 . S
C81 O87 1.263 . S
Tb82 O84 2.343 . S
Tb82 O87 2.353 . S
Tb82 O90 2.427 . S
Tb82 O91 2.513 . S
Tb82 O92 2.453 . S
Tb82 O93 2.596 . S
Tb82 O94 2.374 . S
O83 Tb80 2.453 . S
O83 C99 1.245 . S
O84 Tb80 2.596 . S
O84 Tb82 2.343 . S
O84 C99 1.259 . S
O85 Tb80 2.374 . S
O85 C81 1.251 . S
C86 O90 1.275 . S
C86 O91 1.246 . S
O87 C81 1.263 . S
O87 Tb82 2.353 . S
C88 O92 1.245 . S
C88 O93 1.259 . S
C89 O94 1.250 . S
C89 O95 1.263 . S
O90 Tb82 2.427 . S
O90 C86 1.275 . S
O91 Tb82 2.513 . S
O91 C86 1.246 . S
O92 Tb82 2.453 . S
O92 C88 1.245 . S
O93 Tb80 2.343 . S
O93 Tb82 2.596 . S
O93 C88 1.259 . S
O94 Tb82 2.374 . S
O94 C89 1.250 . S
O95 Tb80 2.353 . S
O95 C89 1.263 . S
C96 O97 1.275 . S
C96 O98 1.246 . S
O97 Tb80 2.427 . S
O97 C96 1.275 . S
O98 Tb80 2.513 . S
O98 C96 1.246 . S
C99 O83 1.245 . S
C99 O84 1.259 . S
Tb100 O103 2.453 . S
Tb100 O104 2.596 . S
Tb100 O105 2.374 . S
Tb100 O113 2.343 . S
Tb100 O115 2.353 . S
Tb100 O117 2.427 . S
Tb100 O118 2.513 . S
C101 O105 1.251 . S
C101 O107 1.263 . S
Tb102 O104 2.343 . S
Tb102 O107 2.353 . S
Tb102 O110 2.427 . S
Tb102 O111 2.513 . S
Tb102 O112 2.453 . S
Tb102 O113 2.596 . S
Tb102 O114 2.374 . S
O103 Tb100 2.453 . S
O103 C119 1.245 . S
O104 Tb100 2.596 . S
O104 Tb102 2.343 . S
O104 C119 1.259 . S
O105 Tb100 2.374 . S
O105 C101 1.251 . S
C106 O110 1.275 . S
C106 O111 1.246 . S
O107 C101 1.263 . S
O107 Tb102 2.353 . S
C108 O112 1.245 . S
C108 O113 1.259 . S
C109 O114 1.250 . S
C109 O115 1.263 . S
O110 Tb102 2.427 . S
O110 C106 1.275 . S
O111 Tb102 2.513 . S
O111 C106 1.246 . S
O112 Tb102 2.453 . S
O112 C108 1.245 . S
O113 Tb100 2.343 . S
O113 Tb102 2.596 . S
O113 C108 1.259 . S
O114 Tb102 2.374 . S
O114 C109 1.250 . S
O115 Tb100 2.353 . S
O115 C109 1.263 . S
C116 O117 1.275 . S
C116 O118 1.246 . S
O117 Tb100 2.427 . S
O117 C116 1.275 . S
O118 Tb100 2.513 . S
O118 C116 1.246 . S
C119 O103 1.245 . S
C119 O104 1.259 . S
Tb120 O123 2.453 . S
Tb120 O124 2.596 . S
Tb120 O125 2.374 . S
Tb120 O133 2.343 . S
Tb120 O135 2.353 . S
Tb120 O137 2.427 . S
Tb120 O138 2.513 . S
C121 O125 1.251 . S
C121 O127 1.263 . S
Tb122 O124 2.343 . S
Tb122 O127 2.353 . S
Tb122 O130 2.427 . S
Tb122 O131 2.513 . S
Tb122 O132 2.453 . S
Tb122 O133 2.596 . S
Tb122 O134 2.374 . S
O123 Tb120 2.453 . S
O123 C139 1.245 . S
O124 Tb120 2.596 . S
O124 Tb122 2.343 . S
O124 C139 1.259 . S
O125 Tb120 2.374 . S
O125 C121 1.251 . S
C126 O130 1.275 . S
C126 O131 1.246 . S
O127 C121 1.263 . S
O127 Tb122 2.353 . S
C128 O132 1.245 . S
C128 O133 1.259 . S
C129 O134 1.250 . S
C129 O135 1.263 . S
O130 Tb122 2.427 . S
O130 C126 1.275 . S
O131 Tb122 2.513 . S
O131 C126 1.246 . S
O132 Tb122 2.453 . S
O132 C128 1.245 . S
O133 Tb120 2.343 . S
O133 Tb122 2.596 . S
O133 C128 1.259 . S
O134 Tb122 2.374 . S
O134 C129 1.250 . S
O135 Tb120 2.353 . S
O135 C129 1.263 . S
C136 O137 1.275 . S
C136 O138 1.246 . S
O137 Tb120 2.427 . S
O137 C136 1.275 . S
O138 Tb120 2.513 . S
O138 C136 1.246 . S
C139 O123 1.245 . S
C139 O124 1.259 . S
Tb140 O143 2.453 . S
Tb140 O144 2.596 . S
Tb140 O145 2.374 . S
Tb140 O153 2.343 . S
Tb140 O155 2.353 . S
Tb140 O157 2.427 . S
Tb140 O158 2.513 . S
C141 O145 1.251 . S
C141 O147 1.263 . S
Tb142 O144 2.343 . S
Tb142 O147 2.353 . S
Tb142 O150 2.427 . S
Tb142 O151 2.513 . S
Tb142 O152 2.453 . S
Tb142 O153 2.596 . S
Tb142 O154 2.374 . S
O143 Tb140 2.453 . S
O143 C159 1.245 . S
O144 Tb140 2.596 . S
O144 Tb142 2.343 . S
O144 C159 1.259 . S
O145 Tb140 2.374 . S
O145 C141 1.251 . S
C146 O150 1.275 . S
C146 O151 1.246 . S
O147 C141 1.263 . S
O147 Tb142 2.353 . S
C148 O152 1.245 . S
C148 O153 1.259 . S
C149 O154 1.250 . S
C149 O155 1.263 . S
O150 Tb142 2.427 . S
O150 C146 1.275 . S
O151 Tb142 2.513 . S
O151 C146 1.246 . S
O152 Tb142 2.453 . S
O152 C148 1.245 . S
O153 Tb140 2.343 . S
O153 Tb142 2.596 . S
O153 C148 1.259 . S
O154 Tb142 2.374 . S
O154 C149 1.250 . S
O155 Tb140 2.353 . S
O155 C149 1.263 . S
C156 O157 1.275 . S
C156 O158 1.246 . S
O157 Tb140 2.427 . S
O157 C156 1.275 . S
O158 Tb140 2.513 . S
O158 C156 1.246 . S
C159 O143 1.245 . S
C159 O144 1.259 . S
Fe160 O161 1.886 1_455 S
Fe160 O164 1.715 . S
Fe160 O169 2.077 1_455 S
Fe160 O174 1.935 . S
Fe160 O180 2.077 1_455 S
Fe160 O189 1.935 . S
O161 Fe160 1.886 1_655 S
O161 Fe163 1.715 1_545 S
Fe162 O164 1.886 . S
Fe162 O165 1.715 1_545 S
Fe162 O172 1.935 1_545 S
Fe162 O173 2.077 . S
Fe162 O179 1.935 1_545 S
Fe162 O188 2.077 . S
Fe163 O161 1.715 1_565 S
Fe163 O166 1.886 . S
Fe163 O170 1.935 1_565 S
Fe163 O175 2.077 . S
Fe163 O181 1.935 1_565 S
Fe163 O185 2.077 . S
O164 Fe160 1.715 . S
O164 Fe162 1.886 . S
O165 Fe162 1.715 1_565 S
O165 Fe167 1.858 1_455 S
O166 Fe163 1.886 . S
O166 Fe167 1.746 . S
Fe167 O165 1.858 1_655 S
Fe167 O166 1.746 . S
Fe167 O171 2.050 1_655 S
Fe167 O176 1.957 . S
Fe167 O178 2.051 1_655 S
Fe167 O186 1.958 . S
C168 O180 1.381 . S
C168 O181 1.421 . S
O169 Fe160 2.077 1_655 S
O169 C182 1.381 . S
O170 Fe163 1.935 1_545 S
O170 C182 1.421 . S
O171 Fe167 2.050 1_455 S
O171 C187 1.381 . S
O172 Fe162 1.935 1_565 S
O172 C187 1.421 . S
O173 Fe162 2.077 . S
O173 C177 1.381 . S
O174 Fe160 1.935 . S
O174 C177 1.421 . S
O175 Fe163 2.077 . S
O175 C183 1.381 . S
O176 Fe167 1.957 . S
O176 C183 1.421 . S
C177 O173 1.381 . S
C177 O174 1.421 . S
O178 Fe167 2.051 1_455 S
O178 C190 1.381 . S
O179 Fe162 1.935 1_565 S
O179 C190 1.421 . S
O180 Fe160 2.077 1_655 S
O180 C168 1.381 . S
O181 Fe163 1.935 1_545 S
O181 C168 1.421 . S
C182 O169 1.381 . S
C182 O170 1.421 . S
C183 O175 1.381 . S
C183 O176 1.421 . S
C184 O185 1.381 . S
C184 O186 1.421 . S
O185 Fe163 2.077 . S
O185 C184 1.381 . S
O186 Fe167 1.958 . S
O186 C184 1.421 . S
C187 O171 1.381 . S
C187 O172 1.421 . S
O188 Fe162 2.077 . S
O188 C191 1.381 . S
O189 Fe160 1.935 . S
O189 C191 1.421 . S
C190 O178 1.381 . S
C190 O179 1.421 . S
C191 O188 1.381 . S
C191 O189 1.421 . S
Fe192 O193 1.886 1_556 S
Fe192 O196 1.715 . S
Fe192 O201 2.077 . S
Fe192 O206 1.935 . S
Fe192 O212 2.077 1_556 S
Fe192 O221 1.935 1_556 S
O193 Fe192 1.886 1_554 S
O193 Fe195 1.715 1_565 S
Fe194 O196 1.886 . S
Fe194 O197 1.715 1_565 S
Fe194 O204 1.935 1_565 S
Fe194 O205 2.077 . S
Fe194 O211 1.935 1_566 S
Fe194 O220 2.077 1_556 S
Fe195 O193 1.715 1_545 S
Fe195 O198 1.886 . S
Fe195 O202 1.935 1_544 S
Fe195 O207 2.077 1_554 S
Fe195 O213 1.935 1_545 S
Fe195 O217 2.077 . S
O196 Fe192 1.715 . S
O196 Fe194 1.886 . S
O197 Fe194 1.715 1_545 S
O197 Fe199 1.885 1_556 S
O198 Fe195 1.886 . S
O198 Fe199 1.715 . S
Fe199 O197 1.885 1_554 S
Fe199 O198 1.715 . S
Fe199 O203 2.077 1_554 S
Fe199 O208 1.935 1_554 S
Fe199 O210 2.077 . S
Fe199 O218 1.935 . S
C200 O212 1.381 . S
C200 O213 1.421 . S
O201 Fe192 2.077 . S
O201 C214 1.381 . S
O202 Fe195 1.935 1_566 S
O202 C214 1.421 . S
O203 Fe199 2.077 1_556 S
O203 C219 1.381 . S
O204 Fe194 1.935 1_545 S
O204 C219 1.421 . S
O205 Fe194 2.077 . S
O205 C209 1.381 . S
O206 Fe192 1.935 . S
O206 C209 1.421 . S
O207 Fe195 2.077 1_556 S
O207 C215 1.381 . S
O208 Fe199 1.935 1_556 S
O208 C215 1.421 . S
C209 O205 1.381 . S
C209 O206 1.421 . S
O210 Fe199 2.077 . S
O210 C222 1.381 . S
O211 Fe194 1.935 1_544 S
O211 C222 1.421 . S
O212 Fe192 2.077 1_554 S
O212 C200 1.381 . S
O213 Fe195 1.935 1_565 S
O213 C200 1.421 . S
C214 O201 1.381 . S
C214 O202 1.421 . S
C215 O207 1.381 . S
C215 O208 1.421 . S
C216 O217 1.381 . S
C216 O218 1.421 . S
O217 Fe195 2.077 . S
O217 C216 1.381 . S
O218 Fe199 1.935 . S
O218 C216 1.421 . S
C219 O203 1.381 . S
C219 O204 1.421 . S
O220 Fe194 2.077 1_554 S
O220 C223 1.381 . S
O221 Fe192 1.935 1_554 S
O221 C223 1.421 . S
C222 O210 1.381 . S
C222 O211 1.421 . S
C223 O220 1.381 . S
C223 O221 1.421 . S
Fe224 O225 1.885 1_454 S
Fe224 O228 1.715 . S
Fe224 O233 2.077 1_454 S
Fe224 O238 1.935 1_554 S
Fe224 O244 2.077 1_455 S
Fe224 O253 1.935 . S
O225 Fe224 1.885 1_656 S
O225 Fe227 1.715 . S
Fe226 O228 1.886 . S
Fe226 O229 1.715 . S
Fe226 O236 1.935 1_554 S
Fe226 O237 2.077 1_554 S
Fe226 O243 1.935 . S
Fe226 O252 2.077 . S
Fe227 O225 1.715 . S
Fe227 O230 1.886 . S
Fe227 O234 1.935 . S
Fe227 O239 2.077 . S
Fe227 O245 1.935 1_556 S
Fe227 O249 2.077 1_556 S
O228 Fe224 1.715 . S
O228 Fe226 1.886 . S
O229 Fe226 1.715 . S
O229 Fe231 1.860 1_454 S
O230 Fe227 1.886 . S
O230 Fe231 1.747 . S
Fe231 O229 1.860 1_656 S
Fe231 O230 1.747 . S
Fe231 O235 2.081 1_655 S
Fe231 O240 1.991 . S
Fe231 O242 2.021 1_656 S
Fe231 O250 1.923 1_556 S
C232 O244 1.381 . S
C232 O245 1.421 . S
O233 Fe224 2.077 1_656 S
O233 C246 1.381 . S
O234 Fe227 1.935 . S
O234 C246 1.421 . S
O235 Fe231 2.081 1_455 S
O235 C251 1.381 . S
O236 Fe226 1.935 1_556 S
O236 C251 1.421 . S
O237 Fe226 2.077 1_556 S
O237 C241 1.381 . S
O238 Fe224 1.935 1_556 S
O238 C241 1.421 . S
O239 Fe227 2.077 . S
O239 C247 1.381 . S
O240 Fe231 1.991 . S
O240 C247 1.421 . S
C241 O237 1.381 . S
C241 O238 1.421 . S
O242 Fe231 2.021 1_454 S
O242 C254 1.381 . S
O243 Fe226 1.935 . S
O243 C254 1.421 . S
O244 Fe224 2.077 1_655 S
O244 C232 1.381 . S
O245 Fe227 1.935 1_554 S
O245 C232 1.421 . S
C246 O233 1.381 . S
C246 O234 1.421 . S
C247 O239 1.381 . S
C247 O240 1.421 . S
C248 O249 1.381 . S
C248 O250 1.421 . S
O249 Fe227 2.077 1_554 S
O249 C248 1.381 . S
O250 Fe231 1.923 1_554 S
O250 C248 1.421 . S
C251 O235 1.381 . S
C251 O236 1.421 . S
O252 Fe226 2.077 . S
O252 C255 1.381 . S
O253 Fe224 1.935 . S
O253 C255 1.421 . S
C254 O242 1.381 . S
C254 O243 1.421 . S
C255 O252 1.381 . S
C255 O253 1.421 . S
Fe256 O257 1.886 . S
Fe256 O260 1.715 . S
Fe256 O265 2.077 . S
Fe256 O270 1.935 . S
Fe256 O276 2.077 . S
Fe256 O285 1.935 . S
O257 Fe256 1.886 . S
O257 Fe259 1.715 1_556 S
Fe258 O260 1.886 . S
Fe258 O261 1.715 1_556 S
Fe258 O268 1.935 1_556 S
Fe258 O269 2.077 . S
Fe258 O275 1.935 1_556 S
Fe258 O284 2.077 . S
Fe259 O257 1.715 1_554 S
Fe259 O262 1.886 . S
Fe259 O266 1.935 1_554 S
Fe259 O271 2.077 . S
Fe259 O277 1.935 1_554 S
Fe259 O281 2.077 . S
O260 Fe256 1.715 . S
O260 Fe258 1.886 . S
O261 Fe258 1.715 1_554 S
O261 Fe263 1.886 . S
O262 Fe259 1.886 . S
O262 Fe263 1.715 . S
Fe263 O261 1.886 . S
Fe263 O262 1.715 . S
Fe263 O267 2.077 . S
Fe263 O272 1.935 . S
Fe263 O274 2.077 . S
Fe263 O282 1.935 . S
C264 O276 1.381 . S
C264 O277 1.421 . S
O265 Fe256 2.077 . S
O265 C278 1.381 . S
O266 Fe259 1.935 1_556 S
O266 C278 1.421 . S
O267 Fe263 2.077 . S
O267 C283 1.381 . S
O268 Fe258 1.935 1_554 S
O268 C283 1.421 . S
O269 Fe258 2.077 . S
O269 C273 1.381 . S
O270 Fe256 1.935 . S
O270 C273 1.421 . S
O271 Fe259 2.077 . S
O271 C279 1.381 . S
O272 Fe263 1.935 . S
O272 C279 1.421 . S
C273 O269 1.381 . S
C273 O270 1.421 . S
O274 Fe263 2.077 . S
O274 C286 1.381 . S
O275 Fe258 1.935 1_554 S
O275 C286 1.421 . S
O276 Fe256 2.077 . S
O276 C264 1.381 . S
O277 Fe259 1.935 1_556 S
O277 C264 1.421 . S
C278 O265 1.381 . S
C278 O266 1.421 . S
C279 O271 1.381 . S
C279 O272 1.421 . S
C280 O281 1.381 . S
C280 O282 1.421 . S
O281 Fe259 2.077 . S
O281 C280 1.381 . S
O282 Fe263 1.935 . S
O282 C280 1.421 . S
C283 O267 1.381 . S
C283 O268 1.421 . S
O284 Fe258 2.077 . S
O284 C287 1.381 . S
O285 Fe256 1.935 . S
O285 C287 1.421 . S
C286 O274 1.381 . S
C286 O275 1.421 . S
C287 O284 1.381 . S
C287 O285 1.421 . S
Fe288 O289 1.886 . S
Fe288 O292 1.715 . S
Fe288 O297 2.077 1_655 S
Fe288 O302 1.935 1_655 S
Fe288 O308 2.077 . S
Fe288 O317 1.935 . S
O289 Fe288 1.886 . S
O289 Fe291 1.715 1_655 S
Fe290 O292 1.886 . S
Fe290 O293 1.716 1_655 S
Fe290 O300 1.935 1_655 S
Fe290 O301 2.077 1_655 S
Fe290 O307 1.935 . S
Fe290 O316 2.077 . S
Fe291 O289 1.715 1_455 S
Fe291 O294 1.886 . S
Fe291 O298 1.935 . S
Fe291 O303 2.077 . S
Fe291 O309 1.935 1_455 S
Fe291 O313 2.077 1_455 S
O292 Fe288 1.715 . S
O292 Fe290 1.886 . S
O293 Fe290 1.716 1_455 S
O293 Fe295 1.885 . S
O294 Fe291 1.886 . S
O294 Fe295 1.715 . S
Fe295 O293 1.885 . S
Fe295 O294 1.715 . S
Fe295 O299 2.077 . S
Fe295 O304 1.935 . S
Fe295 O306 2.077 1_455 S
Fe295 O314 1.935 1_455 S
C296 O308 1.381 . S
C296 O309 1.421 . S
O297 Fe288 2.077 1_455 S
O297 C310 1.381 . S
O298 Fe291 1.935 . S
O298 C310 1.421 . S
O299 Fe295 2.077 . S
O299 C315 1.381 . S
O300 Fe290 1.935 1_455 S
O300 C315 1.421 . S
O301 Fe290 2.077 1_455 S
O301 C305 1.381 . S
O302 Fe288 1.935 1_455 S
O302 C305 1.421 . S
O303 Fe291 2.077 . S
O303 C311 1.381 . S
O304 Fe295 1.935 . S
O304 C311 1.421 . S
C305 O301 1.381 . S
C305 O302 1.421 . S
O306 Fe295 2.077 1_655 S
O306 C318 1.381 . S
O307 Fe290 1.935 . S
O307 C318 1.421 . S
O308 Fe288 2.077 . S
O308 C296 1.381 . S
O309 Fe291 1.935 1_655 S
O309 C296 1.421 . S
C310 O297 1.381 . S
C310 O298 1.421 . S
C311 O303 1.381 . S
C311 O304 1.421 . S
C312 O313 1.381 . S
C312 O314 1.421 . S
O313 Fe291 2.077 1_655 S
O313 C312 1.381 . S
O314 Fe295 1.935 1_655 S
O314 C312 1.421 . S
C315 O299 1.381 . S
C315 O300 1.421 . S
O316 Fe290 2.077 . S
O316 C319 1.381 . S
O317 Fe288 1.935 . S
O317 C319 1.421 . S
C318 O306 1.381 . S
C318 O307 1.421 . S
C319 O316 1.381 . S
C319 O317 1.421 . S
Fe320 O321 1.886 . S
Fe320 O324 1.715 . S
Fe320 O329 2.077 . S
Fe320 O334 1.935 . S
Fe320 O340 2.077 . S
Fe320 O349 1.935 . S
O321 Fe320 1.886 . S
O321 Fe323 1.715 1_565 S
Fe322 O324 1.886 . S
Fe322 O325 1.715 1_565 S
Fe322 O332 1.935 1_565 S
Fe322 O333 2.077 . S
Fe322 O339 1.935 1_565 S
Fe322 O348 2.077 . S
Fe323 O321 1.715 1_545 S
Fe323 O326 1.886 . S
Fe323 O330 1.935 1_545 S
Fe323 O335 2.077 . S
Fe323 O341 1.935 1_545 S
Fe323 O345 2.077 . S
O324 Fe320 1.715 . S
O324 Fe322 1.886 . S
O325 Fe322 1.715 1_545 S
O325 Fe327 1.886 . S
O326 Fe323 1.886 . S
O326 Fe327 1.715 . S
Fe327 O325 1.886 . S
Fe327 O326 1.715 . S
Fe327 O331 2.077 . S
Fe327 O336 1.935 . S
Fe327 O338 2.077 . S
Fe327 O346 1.935 . S
C328 O340 1.381 . S
C328 O341 1.421 . S
O329 Fe320 2.077 . S
O329 C342 1.381 . S
O330 Fe323 1.935 1_565 S
O330 C342 1.421 . S
O331 Fe327 2.077 . S
O331 C347 1.381 . S
O332 Fe322 1.935 1_545 S
O332 C347 1.421 . S
O333 Fe322 2.077 . S
O333 C337 1.381 . S
O334 Fe320 1.935 . S
O334 C337 1.421 . S
O335 Fe323 2.077 . S
O335 C343 1.381 . S
O336 Fe327 1.935 . S
O336 C343 1.421 . S
C337 O333 1.381 . S
C337 O334 1.421 . S
O338 Fe327 2.077 . S
O338 C350 1.381 . S
O339 Fe322 1.935 1_545 S
O339 C350 1.421 . S
O340 Fe320 2.077 . S
O340 C328 1.381 . S
O341 Fe323 1.935 1_565 S
O341 C328 1.421 . S
C342 O329 1.381 . S
C342 O330 1.421 . S
C343 O335 1.381 . S
C343 O336 1.421 . S
C344 O345 1.381 . S
C344 O346 1.421 . S
O345 Fe323 2.077 . S
O345 C344 1.381 . S
O346 Fe327 1.935 . S
O346 C344 1.421 . S
C347 O331 1.381 . S
C347 O332 1.421 . S
O348 Fe322 2.077 . S
O348 C351 1.381 . S
O349 Fe320 1.935 . S
O349 C351 1.421 . S
C350 O338 1.381 . S
C350 O339 1.421 . S
C351 O348 1.381 . S
C351 O349 1.421 . S
C352 C353 1.349 . S
C352 C354 1.327 . S
C352 H377 0.950 . S
C353 C352 1.349 . S
C353 C369 1.349 . S
C354 C352 1.327 . S
C354 C373 1.429 . S
C354 H378 0.950 . S
C355 C372 1.574 . S
C355 C374 1.368 . S
C355 H379 0.949 . S
H356 C360 0.949 . S
C357 C358 1.349 . S
C357 C359 1.327 . S
C357 H380 0.950 . S
C358 C357 1.349 . S
C358 C370 1.349 . S
C359 C357 1.327 . S
C359 C375 1.429 . S
C359 H381 0.950 . S
C360 H356 0.949 . S
C360 C368 1.574 . S
C360 C376 1.368 . S
H361 C369 0.950 . S
H362 C367 0.950 . S
H363 C368 0.949 . S
H364 C370 0.950 . S
H365 C371 0.950 . S
H366 C372 0.949 . S
C367 H362 0.950 . S
C367 C369 1.327 . S
C367 C373 1.429 . S
C368 C360 1.574 . S
C368 H363 0.949 . S
C368 C374 1.368 . S
C369 C353 1.349 . S
C369 H361 0.950 . S
C369 C367 1.327 . S
C370 C358 1.349 . S
C370 H364 0.950 . S
C370 C371 1.327 . S
C371 H365 0.950 . S
C371 C370 1.327 . S
C371 C375 1.429 . S
C372 C355 1.574 . S
C372 H366 0.949 . S
C372 C376 1.368 . S
C373 C354 1.429 . S
C373 C367 1.429 . S
C373 C374 1.523 . S
C374 C355 1.368 . S
C374 C368 1.368 . S
C374 C373 1.523 . S
C375 C359 1.429 . S
C375 C371 1.429 . S
C375 C376 1.523 . S
C376 C360 1.368 . S
C376 C372 1.368 . S
C376 C375 1.523 . S
H377 C352 0.950 . S
H378 C354 0.950 . S
H379 C355 0.949 . S
H380 C357 0.950 . S
H381 C359 0.950 . S
C382 C383 1.349 . S
C382 C384 1.327 . S
C382 H407 0.950 . S
C383 C382 1.349 . S
C383 C399 1.349 . S
C384 C382 1.327 . S
C384 C403 1.429 . S
C384 H408 0.950 . S
C385 C402 1.574 . S
C385 C404 1.368 . S
C385 H409 0.949 . S
H386 C390 0.949 . S
C387 C388 1.349 . S
C387 C389 1.327 . S
C387 H410 0.950 . S
C388 C387 1.349 . S
C388 C400 1.349 . S
C389 C387 1.327 . S
C389 C405 1.429 . S
C389 H411 0.950 . S
C390 H386 0.949 . S
C390 C398 1.574 . S
C390 C406 1.368 . S
H391 C399 0.950 . S
H392 C397 0.950 . S
H393 C398 0.949 . S
H394 C400 0.950 . S
H395 C401 0.950 . S
H396 C402 0.949 . S
C397 H392 0.950 . S
C397 C399 1.327 . S
C397 C403 1.429 . S
C398 C390 1.574 . S
C398 H393 0.949 . S
C398 C404 1.368 . S
C399 C383 1.349 . S
C399 H391 0.950 . S
C399 C397 1.327 . S
C400 C388 1.349 . S
C400 H394 0.950 . S
C400 C401 1.327 . S
C401 H395 0.950 . S
C401 C400 1.327 . S
C401 C405 1.429 . S
C402 C385 1.574 . S
C402 H396 0.949 . S
C402 C406 1.368 . S
C403 C384 1.429 . S
C403 C397 1.429 . S
C403 C404 1.523 . S
C404 C385 1.368 . S
C404 C398 1.368 . S
C404 C403 1.523 . S
C405 C389 1.429 . S
C405 C401 1.429 . S
C405 C406 1.523 . S
C406 C390 1.368 . S
C406 C402 1.368 . S
C406 C405 1.523 . S
H407 C382 0.950 . S
H408 C384 0.950 . S
H409 C385 0.949 . S
H410 C387 0.950 . S
H411 C389 0.950 . S
C412 C413 1.349 . S
C412 C414 1.327 . S
C412 H437 0.950 . S
C413 C412 1.349 . S
C413 C429 1.349 . S
C414 C412 1.327 . S
C414 C433 1.429 . S
C414 H438 0.950 . S
C415 C432 1.574 . S
C415 C434 1.368 . S
C415 H439 0.949 . S
H416 C420 0.949 . S
C417 C418 1.349 . S
C417 C419 1.327 . S
C417 H440 0.950 . S
C418 C417 1.349 . S
C418 C430 1.349 . S
C419 C417 1.327 . S
C419 C435 1.429 . S
C419 H441 0.950 . S
C420 H416 0.949 . S
C420 C428 1.574 . S
C420 C436 1.368 . S
H421 C429 0.950 . S
H422 C427 0.950 . S
H423 C428 0.949 . S
H424 C430 0.950 . S
H425 C431 0.950 . S
H426 C432 0.949 . S
C427 H422 0.950 . S
C427 C429 1.327 . S
C427 C433 1.429 . S
C428 C420 1.574 . S
C428 H423 0.949 . S
C428 C434 1.368 . S
C429 C413 1.349 . S
C429 H421 0.950 . S
C429 C427 1.327 . S
C430 C418 1.349 . S
C430 H424 0.950 . S
C430 C431 1.327 . S
C431 H425 0.950 . S
C431 C430 1.327 . S
C431 C435 1.429 . S
C432 C415 1.574 . S
C432 H426 0.949 . S
C432 C436 1.368 . S
C433 C414 1.429 . S
C433 C427 1.429 . S
C433 C434 1.523 . S
C434 C415 1.368 . S
C434 C428 1.368 . S
C434 C433 1.523 . S
C435 C419 1.429 . S
C435 C431 1.429 . S
C435 C436 1.523 . S
C436 C420 1.368 . S
C436 C432 1.368 . S
C436 C435 1.523 . S
H437 C412 0.950 . S
H438 C414 0.950 . S
H439 C415 0.949 . S
H440 C417 0.950 . S
H441 C419 0.950 . S
C442 C443 1.349 . S
C442 C444 1.327 . S
C442 H467 0.950 . S
C443 C442 1.349 . S
C443 C459 1.349 . S
C444 C442 1.327 . S
C444 C463 1.429 . S
C444 H468 0.950 . S
C445 C462 1.574 . S
C445 C464 1.368 . S
C445 H469 0.949 . S
H446 C450 0.949 . S
C447 C448 1.349 . S
C447 C449 1.327 . S
C447 H470 0.950 . S
C448 C447 1.349 . S
C448 C460 1.349 . S
C449 C447 1.327 . S
C449 C465 1.429 . S
C449 H471 0.950 . S
C450 H446 0.949 . S
C450 C458 1.574 . S
C450 C466 1.368 . S
H451 C459 0.950 . S
H452 C457 0.950 . S
H453 C458 0.949 . S
H454 C460 0.950 . S
H455 C461 0.950 . S
H456 C462 0.949 . S
C457 H452 0.950 . S
C457 C459 1.327 . S
C457 C463 1.429 . S
C458 C450 1.574 . S
C458 H453 0.949 . S
C458 C464 1.368 . S
C459 C443 1.349 . S
C459 H451 0.950 . S
C459 C457 1.327 . S
C460 C448 1.349 . S
C460 H454 0.950 . S
C460 C461 1.327 . S
C461 H455 0.950 . S
C461 C460 1.327 . S
C461 C465 1.429 . S
C462 C445 1.574 . S
C462 H456 0.949 . S
C462 C466 1.368 . S
C463 C444 1.429 . S
C463 C457 1.429 . S
C463 C464 1.523 . S
C464 C445 1.368 . S
C464 C458 1.368 . S
C464 C463 1.523 . S
C465 C449 1.429 . S
C465 C461 1.429 . S
C465 C466 1.523 . S
C466 C450 1.368 . S
C466 C462 1.368 . S
C466 C465 1.523 . S
H467 C442 0.950 . S
H468 C444 0.950 . S
H469 C445 0.949 . S
H470 C447 0.950 . S
H471 C449 0.950 . S
C472 C473 1.349 . S
C472 C474 1.327 . S
C472 H497 0.950 . S
C473 C472 1.349 . S
C473 C489 1.349 . S
C474 C472 1.327 . S
C474 C493 1.429 . S
C474 H498 0.950 . S
C475 C492 1.574 . S
C475 C494 1.368 . S
C475 H499 0.949 . S
H476 C480 0.949 . S
C477 C478 1.349 . S
C477 C479 1.327 . S
C477 H500 0.950 . S
C478 C477 1.349 . S
C478 C490 1.349 . S
C479 C477 1.327 . S
C479 C495 1.429 . S
C479 H501 0.950 . S
C480 H476 0.949 . S
C480 C488 1.574 . S
C480 C496 1.368 . S
H481 C489 0.950 . S
H482 C487 0.950 . S
H483 C488 0.949 . S
H484 C490 0.950 . S
H485 C491 0.950 . S
H486 C492 0.949 . S
C487 H482 0.950 . S
C487 C489 1.327 . S
C487 C493 1.429 . S
C488 C480 1.574 . S
C488 H483 0.949 . S
C488 C494 1.368 . S
C489 C473 1.349 . S
C489 H481 0.950 . S
C489 C487 1.327 . S
C490 C478 1.349 . S
C490 H484 0.950 . S
C490 C491 1.327 . S
C491 H485 0.950 . S
C491 C490 1.327 . S
C491 C495 1.429 . S
C492 C475 1.574 . S
C492 H486 0.949 . S
C492 C496 1.368 . S
C493 C474 1.429 . S
C493 C487 1.429 . S
C493 C494 1.523 . S
C494 C475 1.368 . S
C494 C488 1.368 . S
C494 C493 1.523 . S
C495 C479 1.429 . S
C495 C491 1.429 . S
C495 C496 1.523 . S
C496 C480 1.368 . S
C496 C492 1.368 . S
C496 C495 1.523 . S
H497 C472 0.950 . S
H498 C474 0.950 . S
H499 C475 0.949 . S
H500 C477 0.950 . S
H501 C479 0.950 . S
C502 C503 1.349 . S
C502 C504 1.327 . S
C502 H527 0.950 . S
C503 C502 1.349 . S
C503 C519 1.349 . S
C504 C502 1.327 . S
C504 C523 1.429 . S
C504 H528 0.950 . S
C505 C522 1.574 . S
C505 C524 1.368 . S
C505 H529 0.949 . S
H506 C510 0.949 . S
C507 C508 1.349 . S
C507 C509 1.327 . S
C507 H530 0.950 . S
C508 C507 1.349 . S
C508 C520 1.349 . S
C509 C507 1.327 . S
C509 C525 1.429 . S
C509 H531 0.950 . S
C510 H506 0.949 . S
C510 C518 1.574 . S
C510 C526 1.368 . S
H511 C519 0.950 . S
H512 C517 0.950 . S
H513 C518 0.949 . S
H514 C520 0.950 . S
H515 C521 0.950 . S
H516 C522 0.949 . S
C517 H512 0.950 . S
C517 C519 1.327 . S
C517 C523 1.429 . S
C518 C510 1.574 . S
C518 H513 0.949 . S
C518 C524 1.368 . S
C519 C503 1.349 . S
C519 H511 0.950 . S
C519 C517 1.327 . S
C520 C508 1.349 . S
C520 H514 0.950 . S
C520 C521 1.327 . S
C521 H515 0.950 . S
C521 C520 1.327 . S
C521 C525 1.429 . S
C522 C505 1.574 . S
C522 H516 0.949 . S
C522 C526 1.368 . S
C523 C504 1.429 . S
C523 C517 1.429 . S
C523 C524 1.523 . S
C524 C505 1.368 . S
C524 C518 1.368 . S
C524 C523 1.523 . S
C525 C509 1.429 . S
C525 C521 1.429 . S
C525 C526 1.523 . S
C526 C510 1.368 . S
C526 C522 1.368 . S
C526 C525 1.523 . S
H527 C502 0.950 . S
H528 C504 0.950 . S
H529 C505 0.949 . S
H530 C507 0.950 . S
H531 C509 0.950 . S
C532 C533 1.349 . S
C532 C534 1.327 . S
C532 H557 0.950 . S
C533 C532 1.349 . S
C533 C549 1.349 . S
C534 C532 1.327 . S
C534 C553 1.429 . S
C534 H558 0.950 . S
C535 C552 1.574 . S
C535 C554 1.368 . S
C535 H559 0.949 . S
H536 C540 0.949 . S
C537 C538 1.349 . S
C537 C539 1.327 . S
C537 H560 0.950 . S
C538 C537 1.349 . S
C538 C550 1.349 . S
C539 C537 1.327 . S
C539 C555 1.429 . S
C539 H561 0.950 . S
C540 H536 0.949 . S
C540 C548 1.574 . S
C540 C556 1.368 . S
H541 C549 0.950 . S
H542 C547 0.950 . S
H543 C548 0.949 . S
H544 C550 0.950 . S
H545 C551 0.950 . S
H546 C552 0.949 . S
C547 H542 0.950 . S
C547 C549 1.327 . S
C547 C553 1.429 . S
C548 C540 1.574 . S
C548 H543 0.949 . S
C548 C554 1.368 . S
C549 C533 1.349 . S
C549 H541 0.950 . S
C549 C547 1.327 . S
C550 C538 1.349 . S
C550 H544 0.950 . S
C550 C551 1.327 . S
C551 H545 0.950 . S
C551 C550 1.327 . S
C551 C555 1.429 . S
C552 C535 1.574 . S
C552 H546 0.949 . S
C552 C556 1.368 . S
C553 C534 1.429 . S
C553 C547 1.429 . S
C553 C554 1.523 . S
C554 C535 1.368 . S
C554 C548 1.368 . S
C554 C553 1.523 . S
C555 C539 1.429 . S
C555 C551 1.429 . S
C555 C556 1.523 . S
C556 C540 1.368 . S
C556 C552 1.368 . S
C556 C555 1.523 . S
H557 C532 0.950 . S
H558 C534 0.950 . S
H559 C535 0.949 . S
H560 C537 0.950 . S
H561 C539 0.950 . S
C562 C563 1.349 . S
C562 C564 1.327 . S
C562 H587 0.950 . S
C563 C562 1.349 . S
C563 C579 1.349 . S
C564 C562 1.327 . S
C564 C583 1.429 . S
C564 H588 0.950 . S
C565 C582 1.574 . S
C565 C584 1.368 . S
C565 H589 0.949 . S
H566 C570 0.949 . S
C567 C568 1.349 . S
C567 C569 1.327 . S
C567 H590 0.950 . S
C568 C567 1.349 . S
C568 C580 1.349 . S
C569 C567 1.327 . S
C569 C585 1.429 . S
C569 H591 0.950 . S
C570 H566 0.949 . S
C570 C578 1.574 . S
C570 C586 1.368 . S
H571 C579 0.950 . S
H572 C577 0.950 . S
H573 C578 0.949 . S
H574 C580 0.950 . S
H575 C581 0.950 . S
H576 C582 0.949 . S
C577 H572 0.950 . S
C577 C579 1.327 . S
C577 C583 1.429 . S
C578 C570 1.574 . S
C578 H573 0.949 . S
C578 C584 1.368 . S
C579 C563 1.349 . S
C579 H571 0.950 . S
C579 C577 1.327 . S
C580 C568 1.349 . S
C580 H574 0.950 . S
C580 C581 1.327 . S
C581 H575 0.950 . S
C581 C580 1.327 . S
C581 C585 1.429 . S
C582 C565 1.574 . S
C582 H576 0.949 . S
C582 C586 1.368 . S
C583 C564 1.429 . S
C583 C577 1.429 . S
C583 C584 1.523 . S
C584 C565 1.368 . S
C584 C578 1.368 . S
C584 C583 1.523 . S
C585 C569 1.429 . S
C585 C581 1.429 . S
C585 C586 1.523 . S
C586 C570 1.368 . S
C586 C582 1.368 . S
C586 C585 1.523 . S
H587 C562 0.950 . S
H588 C564 0.950 . S
H589 C565 0.949 . S
H590 C567 0.950 . S
H591 C569 0.950 . S
C592 C593 1.349 . S
C592 C594 1.327 . S
C592 H617 0.950 . S
C593 C592 1.349 . S
C593 C609 1.349 . S
C594 C592 1.327 . S
C594 C613 1.429 . S
C594 H618 0.950 . S
C595 C612 1.574 . S
C595 C614 1.368 . S
C595 H619 0.949 . S
H596 C600 0.949 . S
C597 C598 1.349 . S
C597 C599 1.327 . S
C597 H620 0.950 . S
C598 C597 1.349 . S
C598 C610 1.349 . S
C599 C597 1.327 . S
C599 C615 1.429 . S
C599 H621 0.950 . S
C600 H596 0.949 . S
C600 C608 1.574 . S
C600 C616 1.368 . S
H601 C609 0.950 . S
H602 C607 0.950 . S
H603 C608 0.949 . S
H604 C610 0.950 . S
H605 C611 0.950 . S
H606 C612 0.949 . S
C607 H602 0.950 . S
C607 C609 1.327 . S
C607 C613 1.429 . S
C608 C600 1.574 . S
C608 H603 0.949 . S
C608 C614 1.368 . S
C609 C593 1.349 . S
C609 H601 0.950 . S
C609 C607 1.327 . S
C610 C598 1.349 . S
C610 H604 0.950 . S
C610 C611 1.327 . S
C611 H605 0.950 . S
C611 C610 1.327 . S
C611 C615 1.429 . S
C612 C595 1.574 . S
C612 H606 0.949 . S
C612 C616 1.368 . S
C613 C594 1.429 . S
C613 C607 1.429 . S
C613 C614 1.523 . S
C614 C595 1.368 . S
C614 C608 1.368 . S
C614 C613 1.523 . S
C615 C599 1.429 . S
C615 C611 1.429 . S
C615 C616 1.523 . S
C616 C600 1.368 . S
C616 C612 1.368 . S
C616 C615 1.523 . S
H617 C592 0.950 . S
H618 C594 0.950 . S
H619 C595 0.949 . S
H620 C597 0.950 . S
H621 C599 0.950 . S
C622 C623 1.349 . S
C622 C624 1.327 . S
C622 H647 0.950 . S
C623 C622 1.349 . S
C623 C639 1.349 . S
C624 C622 1.327 . S
C624 C643 1.429 . S
C624 H648 0.950 . S
C625 C642 1.574 . S
C625 C644 1.368 . S
C625 H649 0.949 . S
H626 C630 0.949 . S
C627 C628 1.349 . S
C627 C629 1.327 . S
C627 H650 0.950 . S
C628 C627 1.349 . S
C628 C640 1.349 . S
C629 C627 1.327 . S
C629 C645 1.429 . S
C629 H651 0.950 . S
C630 H626 0.949 . S
C630 C638 1.574 . S
C630 C646 1.368 . S
H631 C639 0.950 . S
H632 C637 0.950 . S
H633 C638 0.949 . S
H634 C640 0.950 . S
H635 C641 0.950 . S
H636 C642 0.949 . S
C637 H632 0.950 . S
C637 C639 1.327 . S
C637 C643 1.429 . S
C638 C630 1.574 . S
C638 H633 0.949 . S
C638 C644 1.368 . S
C639 C623 1.349 . S
C639 H631 0.950 . S
C639 C637 1.327 . S
C640 C628 1.349 . S
C640 H634 0.950 . S
C640 C641 1.327 . S
C641 H635 0.950 . S
C641 C640 1.327 . S
C641 C645 1.429 . S
C642 C625 1.574 . S
C642 H636 0.949 . S
C642 C646 1.368 . S
C643 C624 1.429 . S
C643 C637 1.429 . S
C643 C644 1.523 . S
C644 C625 1.368 . S
C644 C638 1.368 . S
C644 C643 1.523 . S
C645 C629 1.429 . S
C645 C641 1.429 . S
C645 C646 1.523 . S
C646 C630 1.368 . S
C646 C642 1.368 . S
C646 C645 1.523 . S
H647 C622 0.950 . S
H648 C624 0.950 . S
H649 C625 0.949 . S
H650 C627 0.950 . S
H651 C629 0.950 . S
C652 C653 1.349 . S
C652 C654 1.327 . S
C652 H677 0.950 . S
C653 C652 1.349 . S
C653 C669 1.349 . S
C654 C652 1.327 . S
C654 C673 1.429 . S
C654 H678 0.950 . S
C655 C672 1.574 . S
C655 C674 1.368 . S
C655 H679 0.949 . S
H656 C660 0.949 . S
C657 C658 1.349 . S
C657 C659 1.327 . S
C657 H680 0.950 . S
C658 C657 1.349 . S
C658 C670 1.349 . S
C659 C657 1.327 . S
C659 C675 1.429 . S
C659 H681 0.950 . S
C660 H656 0.949 . S
C660 C668 1.574 . S
C660 C676 1.368 . S
H661 C669 0.950 . S
H662 C667 0.950 . S
H663 C668 0.949 . S
H664 C670 0.950 . S
H665 C671 0.950 . S
H666 C672 0.949 . S
C667 H662 0.950 . S
C667 C669 1.327 . S
C667 C673 1.429 . S
C668 C660 1.574 . S
C668 H663 0.949 . S
C668 C674 1.368 . S
C669 C653 1.349 . S
C669 H661 0.950 . S
C669 C667 1.327 . S
C670 C658 1.349 . S
C670 H664 0.950 . S
C670 C671 1.327 . S
C671 H665 0.950 . S
C671 C670 1.327 . S
C671 C675 1.429 . S
C672 C655 1.574 . S
C672 H666 0.949 . S
C672 C676 1.368 . S
C673 C654 1.429 . S
C673 C667 1.429 . S
C673 C674 1.523 . S
C674 C655 1.368 . S
C674 C668 1.368 . S
C674 C673 1.523 . S
C675 C659 1.429 . S
C675 C671 1.429 . S
C675 C676 1.523 . S
C676 C660 1.368 . S
C676 C672 1.368 . S
C676 C675 1.523 . S
H677 C652 0.950 . S
H678 C654 0.950 . S
H679 C655 0.949 . S
H680 C657 0.950 . S
H681 C659 0.950 . S
C682 C683 1.349 . S
C682 C684 1.327 . S
C682 H707 0.950 . S
C683 C682 1.349 . S
C683 C699 1.349 . S
C684 C682 1.327 . S
C684 C703 1.429 . S
C684 H708 0.950 . S
C685 C702 1.574 . S
C685 C704 1.368 . S
C685 H709 0.949 . S
H686 C690 0.949 . S
C687 C688 1.349 . S
C687 C689 1.327 . S
C687 H710 0.950 . S
C688 C687 1.349 . S
C688 C700 1.349 . S
C689 C687 1.327 . S
C689 C705 1.429 . S
C689 H711 0.950 . S
C690 H686 0.949 . S
C690 C698 1.574 . S
C690 C706 1.368 . S
H691 C699 0.950 . S
H692 C697 0.950 . S
H693 C698 0.949 . S
H694 C700 0.950 . S
H695 C701 0.950 . S
H696 C702 0.949 . S
C697 H692 0.950 . S
C697 C699 1.327 . S
C697 C703 1.429 . S
C698 C690 1.574 . S
C698 H693 0.949 . S
C698 C704 1.368 . S
C699 C683 1.349 . S
C699 H691 0.950 . S
C699 C697 1.327 . S
C700 C688 1.349 . S
C700 H694 0.950 . S
C700 C701 1.327 . S
C701 H695 0.950 . S
C701 C700 1.327 . S
C701 C705 1.429 . S
C702 C685 1.574 . S
C702 H696 0.949 . S
C702 C706 1.368 . S
C703 C684 1.429 . S
C703 C697 1.429 . S
C703 C704 1.523 . S
C704 C685 1.368 . S
C704 C698 1.368 . S
C704 C703 1.523 . S
C705 C689 1.429 . S
C705 C701 1.429 . S
C705 C706 1.523 . S
C706 C690 1.368 . S
C706 C702 1.368 . S
C706 C705 1.523 . S
H707 C682 0.950 . S
H708 C684 0.950 . S
H709 C685 0.949 . S
H710 C687 0.950 . S
H711 C689 0.950 . S
C712 C713 1.349 . S
C712 C714 1.327 . S
C712 H737 0.950 . S
C713 C712 1.349 . S
C713 C729 1.349 . S
C714 C712 1.327 . S
C714 C733 1.429 . S
C714 H738 0.950 . S
C715 C732 1.574 . S
C715 C734 1.368 . S
C715 H739 0.949 . S
H716 C720 0.949 . S
C717 C718 1.349 . S
C717 C719 1.327 . S
C717 H740 0.950 . S
C718 C717 1.349 . S
C718 C730 1.349 . S
C719 C717 1.327 . S
C719 C735 1.429 . S
C719 H741 0.950 . S
C720 H716 0.949 . S
C720 C728 1.574 . S
C720 C736 1.368 . S
H721 C729 0.950 . S
H722 C727 0.950 . S
H723 C728 0.949 . S
H724 C730 0.950 . S
H725 C731 0.950 . S
H726 C732 0.949 . S
C727 H722 0.950 . S
C727 C729 1.327 . S
C727 C733 1.429 . S
C728 C720 1.574 . S
C728 H723 0.949 . S
C728 C734 1.368 . S
C729 C713 1.349 . S
C729 H721 0.950 . S
C729 C727 1.327 . S
C730 C718 1.349 . S
C730 H724 0.950 . S
C730 C731 1.327 . S
C731 H725 0.950 . S
C731 C730 1.327 . S
C731 C735 1.429 . S
C732 C715 1.574 . S
C732 H726 0.949 . S
C732 C736 1.368 . S
C733 C714 1.429 . S
C733 C727 1.429 . S
C733 C734 1.523 . S
C734 C715 1.368 . S
C734 C728 1.368 . S
C734 C733 1.523 . S
C735 C719 1.429 . S
C735 C731 1.429 . S
C735 C736 1.523 . S
C736 C720 1.368 . S
C736 C732 1.368 . S
C736 C735 1.523 . S
H737 C712 0.950 . S
H738 C714 0.950 . S
H739 C715 0.949 . S
H740 C717 0.950 . S
H741 C719 0.950 . S
C742 C743 1.349 . S
C742 C744 1.327 . S
C742 H767 0.950 . S
C743 C742 1.349 . S
C743 C759 1.349 . S
C744 C742 1.327 . S
C744 C763 1.429 . S
C744 H768 0.950 . S
C745 C762 1.574 . S
C745 C764 1.368 . S
C745 H769 0.949 . S
H746 C750 0.949 . S
C747 C748 1.349 . S
C747 C749 1.327 . S
C747 H770 0.950 . S
C748 C747 1.349 . S
C748 C760 1.349 . S
C749 C747 1.327 . S
C749 C765 1.429 . S
C749 H771 0.950 . S
C750 H746 0.949 . S
C750 C758 1.574 . S
C750 C766 1.368 . S
H751 C759 0.950 . S
H752 C757 0.950 . S
H753 C758 0.949 . S
H754 C760 0.950 . S
H755 C761 0.950 . S
H756 C762 0.949 . S
C757 H752 0.950 . S
C757 C759 1.327 . S
C757 C763 1.429 . S
C758 C750 1.574 . S
C758 H753 0.949 . S
C758 C764 1.368 . S
C759 C743 1.349 . S
C759 H751 0.950 . S
C759 C757 1.327 . S
C760 C748 1.349 . S
C760 H754 0.950 . S
C760 C761 1.327 . S
C761 H755 0.950 . S
C761 C760 1.327 . S
C761 C765 1.429 . S
C762 C745 1.574 . S
C762 H756 0.949 . S
C762 C766 1.368 . S
C763 C744 1.429 . S
C763 C757 1.429 . S
C763 C764 1.523 . S
C764 C745 1.368 . S
C764 C758 1.368 . S
C764 C763 1.523 . S
C765 C749 1.429 . S
C765 C761 1.429 . S
C765 C766 1.523 . S
C766 C750 1.368 . S
C766 C762 1.368 . S
C766 C765 1.523 . S
H767 C742 0.950 . S
H768 C744 0.950 . S
H769 C745 0.949 . S
H770 C747 0.950 . S
H771 C749 0.950 . S
C772 C773 1.349 . S
C772 C774 1.327 . S
C772 H797 0.950 . S
C773 C772 1.349 . S
C773 C789 1.349 . S
C774 C772 1.327 . S
C774 C793 1.429 . S
C774 H798 0.950 . S
C775 C792 1.574 . S
C775 C794 1.368 . S
C775 H799 0.949 . S
H776 C780 0.949 . S
C777 C778 1.349 . S
C777 C779 1.327 . S
C777 H800 0.950 . S
C778 C777 1.349 . S
C778 C790 1.349 . S
C779 C777 1.327 . S
C779 C795 1.429 . S
C779 H801 0.950 . S
C780 H776 0.949 . S
C780 C788 1.574 . S
C780 C796 1.368 . S
H781 C789 0.950 . S
H782 C787 0.950 . S
H783 C788 0.949 . S
H784 C790 0.950 . S
H785 C791 0.950 . S
H786 C792 0.949 . S
C787 H782 0.950 . S
C787 C789 1.327 . S
C787 C793 1.429 . S
C788 C780 1.574 . S
C788 H783 0.949 . S
C788 C794 1.368 . S
C789 C773 1.349 . S
C789 H781 0.950 . S
C789 C787 1.327 . S
C790 C778 1.349 . S
C790 H784 0.950 . S
C790 C791 1.327 . S
C791 H785 0.950 . S
C791 C790 1.327 . S
C791 C795 1.429 . S
C792 C775 1.574 . S
C792 H786 0.949 . S
C792 C796 1.368 . S
C793 C774 1.429 . S
C793 C787 1.429 . S
C793 C794 1.523 . S
C794 C775 1.368 . S
C794 C788 1.368 . S
C794 C793 1.523 . S
C795 C779 1.429 . S
C795 C791 1.429 . S
C795 C796 1.523 . S
C796 C780 1.368 . S
C796 C792 1.368 . S
C796 C795 1.523 . S
H797 C772 0.950 . S
H798 C774 0.950 . S
H799 C775 0.949 . S
H800 C777 0.950 . S
H801 C779 0.950 . S
C802 C803 1.349 . S
C802 C804 1.327 . S
C802 H827 0.950 . S
C803 C802 1.349 . S
C803 C819 1.349 . S
C804 C802 1.327 . S
C804 C823 1.429 . S
C804 H828 0.950 . S
C805 C822 1.574 . S
C805 C824 1.368 . S
C805 H829 0.949 . S
H806 C810 0.949 . S
C807 C808 1.349 . S
C807 C809 1.327 . S
C807 H830 0.950 . S
C808 C807 1.349 . S
C808 C820 1.349 . S
C809 C807 1.327 . S
C809 C825 1.429 . S
C809 H831 0.950 . S
C810 H806 0.949 . S
C810 C818 1.574 . S
C810 C826 1.368 . S
H811 C819 0.950 . S
H812 C817 0.950 . S
H813 C818 0.949 . S
H814 C820 0.950 . S
H815 C821 0.950 . S
H816 C822 0.949 . S
C817 H812 0.950 . S
C817 C819 1.327 . S
C817 C823 1.429 . S
C818 C810 1.574 . S
C818 H813 0.949 . S
C818 C824 1.368 . S
C819 C803 1.349 . S
C819 H811 0.950 . S
C819 C817 1.327 . S
C820 C808 1.349 . S
C820 H814 0.950 . S
C820 C821 1.327 . S
C821 H815 0.950 . S
C821 C820 1.327 . S
C821 C825 1.429 . S
C822 C805 1.574 . S
C822 H816 0.949 . S
C822 C826 1.368 . S
C823 C804 1.429 . S
C823 C817 1.429 . S
C823 C824 1.523 . S
C824 C805 1.368 . S
C824 C818 1.368 . S
C824 C823 1.523 . S
C825 C809 1.429 . S
C825 C821 1.429 . S
C825 C826 1.523 . S
C826 C810 1.368 . S
C826 C822 1.368 . S
C826 C825 1.523 . S
H827 C802 0.950 . S
H828 C804 0.950 . S
H829 C805 0.949 . S
H830 C807 0.950 . S
H831 C809 0.950 . S
C832 C833 1.349 . S
C832 C834 1.327 . S
C832 H857 0.950 . S
C833 C832 1.349 . S
C833 C849 1.349 . S
C834 C832 1.327 . S
C834 C853 1.429 . S
C834 H858 0.950 . S
C835 C852 1.574 . S
C835 C854 1.368 . S
C835 H859 0.949 . S
H836 C840 0.949 . S
C837 C838 1.349 . S
C837 C839 1.327 . S
C837 H860 0.950 . S
C838 C837 1.349 . S
C838 C850 1.349 . S
C839 C837 1.327 . S
C839 C855 1.429 . S
C839 H861 0.950 . S
C840 H836 0.949 . S
C840 C848 1.574 . S
C840 C856 1.368 . S
H841 C849 0.950 . S
H842 C847 0.950 . S
H843 C848 0.949 . S
H844 C850 0.950 . S
H845 C851 0.950 . S
H846 C852 0.949 . S
C847 H842 0.950 . S
C847 C849 1.327 . S
C847 C853 1.429 . S
C848 C840 1.574 . S
C848 H843 0.949 . S
C848 C854 1.368 . S
C849 C833 1.349 . S
C849 H841 0.950 . S
C849 C847 1.327 . S
C850 C838 1.349 . S
C850 H844 0.950 . S
C850 C851 1.327 . S
C851 H845 0.950 . S
C851 C850 1.327 . S
C851 C855 1.429 . S
C852 C835 1.574 . S
C852 H846 0.949 . S
C852 C856 1.368 . S
C853 C834 1.429 . S
C853 C847 1.429 . S
C853 C854 1.523 . S
C854 C835 1.368 . S
C854 C848 1.368 . S
C854 C853 1.523 . S
C855 C839 1.429 . S
C855 C851 1.429 . S
C855 C856 1.523 . S
C856 C840 1.368 . S
C856 C852 1.368 . S
C856 C855 1.523 . S
H857 C832 0.950 . S
H858 C834 0.950 . S
H859 C835 0.949 . S
H860 C837 0.950 . S
H861 C839 0.950 . S
C862 C863 1.349 . S
C862 C864 1.327 . S
C862 H887 0.950 . S
C863 C862 1.349 . S
C863 C879 1.349 . S
C864 C862 1.327 . S
C864 C883 1.429 . S
C864 H888 0.950 . S
C865 C882 1.574 . S
C865 C884 1.368 . S
C865 H889 0.949 . S
H866 C870 0.949 . S
C867 C868 1.349 . S
C867 C869 1.327 . S
C867 H890 0.950 . S
C868 C867 1.349 . S
C868 C880 1.349 . S
C869 C867 1.327 . S
C869 C885 1.429 . S
C869 H891 0.950 . S
C870 H866 0.949 . S
C870 C878 1.574 . S
C870 C886 1.368 . S
H871 C879 0.950 . S
H872 C877 0.950 . S
H873 C878 0.949 . S
H874 C880 0.950 . S
H875 C881 0.950 . S
H876 C882 0.949 . S
C877 H872 0.950 . S
C877 C879 1.327 . S
C877 C883 1.429 . S
C878 C870 1.574 . S
C878 H873 0.949 . S
C878 C884 1.368 . S
C879 C863 1.349 . S
C879 H871 0.950 . S
C879 C877 1.327 . S
C880 C868 1.349 . S
C880 H874 0.950 . S
C880 C881 1.327 . S
C881 H875 0.950 . S
C881 C880 1.327 . S
C881 C885 1.429 . S
C882 C865 1.574 . S
C882 H876 0.949 . S
C882 C886 1.368 . S
C883 C864 1.429 . S
C883 C877 1.429 . S
C883 C884 1.523 . S
C884 C865 1.368 . S
C884 C878 1.368 . S
C884 C883 1.523 . S
C885 C869 1.429 . S
C885 C881 1.429 . S
C885 C886 1.523 . S
C886 C870 1.368 . S
C886 C882 1.368 . S
C886 C885 1.523 . S
H887 C862 0.950 . S
H888 C864 0.950 . S
H889 C865 0.949 . S
H890 C867 0.950 . S
H891 C869 0.950 . S
C892 C893 1.349 . S
C892 C894 1.327 . S
C892 H917 0.950 . S
C893 C892 1.349 . S
C893 C909 1.349 . S
C894 C892 1.327 . S
C894 C913 1.429 . S
C894 H918 0.950 . S
C895 C912 1.574 . S
C895 C914 1.368 . S
C895 H919 0.949 . S
H896 C900 0.949 . S
C897 C898 1.349 . S
C897 C899 1.327 . S
C897 H920 0.950 . S
C898 C897 1.349 . S
C898 C910 1.349 . S
C899 C897 1.327 . S
C899 C915 1.429 . S
C899 H921 0.950 . S
C900 H896 0.949 . S
C900 C908 1.574 . S
C900 C916 1.368 . S
H901 C909 0.950 . S
H902 C907 0.950 . S
H903 C908 0.949 . S
H904 C910 0.950 . S
H905 C911 0.950 . S
H906 C912 0.949 . S
C907 H902 0.950 . S
C907 C909 1.327 . S
C907 C913 1.429 . S
C908 C900 1.574 . S
C908 H903 0.949 . S
C908 C914 1.368 . S
C909 C893 1.349 . S
C909 H901 0.950 . S
C909 C907 1.327 . S
C910 C898 1.349 . S
C910 H904 0.950 . S
C910 C911 1.327 . S
C911 H905 0.950 . S
C911 C910 1.327 . S
C911 C915 1.429 . S
C912 C895 1.574 . S
C912 H906 0.949 . S
C912 C916 1.368 . S
C913 C894 1.429 . S
C913 C907 1.429 . S
C913 C914 1.523 . S
C914 C895 1.368 . S
C914 C908 1.368 . S
C914 C913 1.523 . S
C915 C899 1.429 . S
C915 C911 1.429 . S
C915 C916 1.523 . S
C916 C900 1.368 . S
C916 C912 1.368 . S
C916 C915 1.523 . S
H917 C892 0.950 . S
H918 C894 0.950 . S
H919 C895 0.949 . S
H920 C897 0.950 . S
H921 C899 0.950 . S
C922 C923 1.349 . S
C922 C924 1.327 . S
C922 H947 0.950 . S
C923 C922 1.349 . S
C923 C939 1.349 . S
C924 C922 1.327 . S
C924 C943 1.429 . S
C924 H948 0.950 . S
C925 C942 1.574 . S
C925 C944 1.368 . S
C925 H949 0.949 . S
H926 C930 0.949 . S
C927 C928 1.349 . S
C927 C929 1.327 . S
C927 H950 0.950 . S
C928 C927 1.349 . S
C928 C940 1.349 . S
C929 C927 1.327 . S
C929 C945 1.429 . S
C929 H951 0.950 . S
C930 H926 0.949 . S
C930 C938 1.574 . S
C930 C946 1.368 . S
H931 C939 0.950 . S
H932 C937 0.950 . S
H933 C938 0.949 . S
H934 C940 0.950 . S
H935 C941 0.950 . S
H936 C942 0.949 . S
C937 H932 0.950 . S
C937 C939 1.327 . S
C937 C943 1.429 . S
C938 C930 1.574 . S
C938 H933 0.949 . S
C938 C944 1.368 . S
C939 C923 1.349 . S
C939 H931 0.950 . S
C939 C937 1.327 . S
C940 C928 1.349 . S
C940 H934 0.950 . S
C940 C941 1.327 . S
C941 H935 0.950 . S
C941 C940 1.327 . S
C941 C945 1.429 . S
C942 C925 1.574 . S
C942 H936 0.949 . S
C942 C946 1.368 . S
C943 C924 1.429 . S
C943 C937 1.429 . S
C943 C944 1.523 . S
C944 C925 1.368 . S
C944 C938 1.368 . S
C944 C943 1.523 . S
C945 C929 1.429 . S
C945 C941 1.429 . S
C945 C946 1.523 . S
C946 C930 1.368 . S
C946 C942 1.368 . S
C946 C945 1.523 . S
H947 C922 0.950 . S
H948 C924 0.950 . S
H949 C925 0.949 . S
H950 C927 0.950 . S
H951 C929 0.950 . S
C952 C953 1.349 . S
C952 C954 1.327 . S
C952 H977 0.950 . S
C953 C952 1.349 . S
C953 C969 1.349 . S
C954 C952 1.327 . S
C954 C973 1.429 . S
C954 H978 0.950 . S
C955 C972 1.574 . S
C955 C974 1.368 . S
C955 H979 0.949 . S
H956 C960 0.949 . S
C957 C958 1.349 . S
C957 C959 1.327 . S
C957 H980 0.950 . S
C958 C957 1.349 . S
C958 C970 1.349 . S
C959 C957 1.327 . S
C959 C975 1.429 . S
C959 H981 0.950 . S
C960 H956 0.949 . S
C960 C968 1.574 . S
C960 C976 1.368 . S
H961 C969 0.950 . S
H962 C967 0.950 . S
H963 C968 0.949 . S
H964 C970 0.950 . S
H965 C971 0.950 . S
H966 C972 0.949 . S
C967 H962 0.950 . S
C967 C969 1.327 . S
C967 C973 1.429 . S
C968 C960 1.574 . S
C968 H963 0.949 . S
C968 C974 1.368 . S
C969 C953 1.349 . S
C969 H961 0.950 . S
C969 C967 1.327 . S
C970 C958 1.349 . S
C970 H964 0.950 . S
C970 C971 1.327 . S
C971 H965 0.950 . S
C971 C970 1.327 . S
C971 C975 1.429 . S
C972 C955 1.574 . S
C972 H966 0.949 . S
C972 C976 1.368 . S
C973 C954 1.429 . S
C973 C967 1.429 . S
C973 C974 1.523 . S
C974 C955 1.368 . S
C974 C968 1.368 . S
C974 C973 1.523 . S
C975 C959 1.429 . S
C975 C971 1.429 . S
C975 C976 1.523 . S
C976 C960 1.368 . S
C976 C972 1.368 . S
C976 C975 1.523 . S
H977 C952 0.950 . S
H978 C954 0.950 . S
H979 C955 0.949 . S
H980 C957 0.950 . S
H981 C959 0.950 . S
C982 C983 1.349 . S
C982 C984 1.327 . S
C982 H1007 0.950 . S
C983 C982 1.349 . S
C983 C999 1.349 . S
C984 C982 1.327 . S
C984 C1003 1.429 . S
C984 H1008 0.950 . S
C985 C1002 1.574 . S
C985 C1004 1.368 . S
C985 H1009 0.949 . S
H986 C990 0.949 . S
C987 C988 1.349 . S
C987 C989 1.327 . S
C987 H1010 0.950 . S
C988 C987 1.349 . S
C988 C1000 1.349 . S
C989 C987 1.327 . S
C989 C1005 1.429 . S
C989 H1011 0.950 . S
C990 H986 0.949 . S
C990 C998 1.574 . S
C990 C1006 1.368 . S
H991 C999 0.950 . S
H992 C997 0.950 . S
H993 C998 0.949 . S
H994 C1000 0.950 . S
H995 C1001 0.950 . S
H996 C1002 0.949 . S
C997 H992 0.950 . S
C997 C999 1.327 . S
C997 C1003 1.429 . S
C998 C990 1.574 . S
C998 H993 0.949 . S
C998 C1004 1.368 . S
C999 C983 1.349 . S
C999 H991 0.950 . S
C999 C997 1.327 . S
C1000 C988 1.349 . S
C1000 H994 0.950 . S
C1000 C1001 1.327 . S
C1001 H995 0.950 . S
C1001 C1000 1.327 . S
C1001 C1005 1.429 . S
C1002 C985 1.574 . S
C1002 H996 0.949 . S
C1002 C1006 1.368 . S
C1003 C984 1.429 . S
C1003 C997 1.429 . S
C1003 C1004 1.523 . S
C1004 C985 1.368 . S
C1004 C998 1.368 . S
C1004 C1003 1.523 . S
C1005 C989 1.429 . S
C1005 C1001 1.429 . S
C1005 C1006 1.523 . S
C1006 C990 1.368 . S
C1006 C1002 1.368 . S
C1006 C1005 1.523 . S
H1007 C982 0.950 . S
H1008 C984 0.950 . S
H1009 C985 0.949 . S
H1010 C987 0.950 . S
H1011 C989 0.950 . S
C1012 C1013 1.349 . S
C1012 C1014 1.327 . S
C1012 H1037 0.950 . S
C1013 C1012 1.349 . S
C1013 C1029 1.349 . S
C1014 C1012 1.327 . S
C1014 C1033 1.429 . S
C1014 H1038 0.950 . S
C1015 C1032 1.574 . S
C1015 C1034 1.368 . S
C1015 H1039 0.949 . S
H1016 C1020 0.949 . S
C1017 C1018 1.349 . S
C1017 C1019 1.327 . S
C1017 H1040 0.950 . S
C1018 C1017 1.349 . S
C1018 C1030 1.349 . S
C1019 C1017 1.327 . S
C1019 C1035 1.429 . S
C1019 H1041 0.950 . S
C1020 H1016 0.949 . S
C1020 C1028 1.574 . S
C1020 C1036 1.368 . S
H1021 C1029 0.950 . S
H1022 C1027 0.950 . S
H1023 C1028 0.949 . S
H1024 C1030 0.950 . S
H1025 C1031 0.950 . S
H1026 C1032 0.949 . S
C1027 H1022 0.950 . S
C1027 C1029 1.327 . S
C1027 C1033 1.429 . S
C1028 C1020 1.574 . S
C1028 H1023 0.949 . S
C1028 C1034 1.368 . S
C1029 C1013 1.349 . S
C1029 H1021 0.950 . S
C1029 C1027 1.327 . S
C1030 C1018 1.349 . S
C1030 H1024 0.950 . S
C1030 C1031 1.327 . S
C1031 H1025 0.950 . S
C1031 C1030 1.327 . S
C1031 C1035 1.429 . S
C1032 C1015 1.574 . S
C1032 H1026 0.949 . S
C1032 C1036 1.368 . S
C1033 C1014 1.429 . S
C1033 C1027 1.429 . S
C1033 C1034 1.523 . S
C1034 C1015 1.368 . S
C1034 C1028 1.368 . S
C1034 C1033 1.523 . S
C1035 C1019 1.429 . S
C1035 C1031 1.429 . S
C1035 C1036 1.523 . S
C1036 C1020 1.368 . S
C1036 C1032 1.368 . S
C1036 C1035 1.523 . S
H1037 C1012 0.950 . S
H1038 C1014 0.950 . S
H1039 C1015 0.949 . S
H1040 C1017 0.950 . S
H1041 C1019 0.950 . S
C1042 C1043 1.349 . S
C1042 C1044 1.327 . S
C1042 H1067 0.950 . S
C1043 C1042 1.349 . S
C1043 C1059 1.349 . S
C1044 C1042 1.327 . S
C1044 C1063 1.429 . S
C1044 H1068 0.950 . S
C1045 C1062 1.574 . S
C1045 C1064 1.368 . S
C1045 H1069 0.949 . S
H1046 C1050 0.949 . S
C1047 C1048 1.349 . S
C1047 C1049 1.327 . S
C1047 H1070 0.950 . S
C1048 C1047 1.349 . S
C1048 C1060 1.349 . S
C1049 C1047 1.327 . S
C1049 C1065 1.429 . S
C1049 H1071 0.950 . S
C1050 H1046 0.949 . S
C1050 C1058 1.574 . S
C1050 C1066 1.368 . S
H1051 C1059 0.950 . S
H1052 C1057 0.950 . S
H1053 C1058 0.949 . S
H1054 C1060 0.950 . S
H1055 C1061 0.950 . S
H1056 C1062 0.949 . S
C1057 H1052 0.950 . S
C1057 C1059 1.327 . S
C1057 C1063 1.429 . S
C1058 C1050 1.574 . S
C1058 H1053 0.949 . S
C1058 C1064 1.368 . S
C1059 C1043 1.349 . S
C1059 H1051 0.950 . S
C1059 C1057 1.327 . S
C1060 C1048 1.349 . S
C1060 H1054 0.950 . S
C1060 C1061 1.327 . S
C1061 H1055 0.950 . S
C1061 C1060 1.327 . S
C1061 C1065 1.429 . S
C1062 C1045 1.574 . S
C1062 H1056 0.949 . S
C1062 C1066 1.368 . S
C1063 C1044 1.429 . S
C1063 C1057 1.429 . S
C1063 C1064 1.523 . S
C1064 C1045 1.368 . S
C1064 C1058 1.368 . S
C1064 C1063 1.523 . S
C1065 C1049 1.429 . S
C1065 C1061 1.429 . S
C1065 C1066 1.523 . S
C1066 C1050 1.368 . S
C1066 C1062 1.368 . S
C1066 C1065 1.523 . S
H1067 C1042 0.950 . S
H1068 C1044 0.950 . S
H1069 C1045 0.949 . S
H1070 C1047 0.950 . S
H1071 C1049 0.950 . S
C1072 C1073 1.349 . S
C1072 C1074 1.327 . S
C1072 H1097 0.950 . S
C1073 C1072 1.349 . S
C1073 C1089 1.349 . S
C1074 C1072 1.327 . S
C1074 C1093 1.429 . S
C1074 H1098 0.950 . S
C1075 C1092 1.574 . S
C1075 C1094 1.368 . S
C1075 H1099 0.949 . S
H1076 C1080 0.949 . S
C1077 C1078 1.349 . S
C1077 C1079 1.327 . S
C1077 H1100 0.950 . S
C1078 C1077 1.349 . S
C1078 C1090 1.349 . S
C1079 C1077 1.327 . S
C1079 C1095 1.429 . S
C1079 H1101 0.950 . S
C1080 H1076 0.949 . S
C1080 C1088 1.574 . S
C1080 C1096 1.368 . S
H1081 C1089 0.950 . S
H1082 C1087 0.950 . S
H1083 C1088 0.949 . S
H1084 C1090 0.950 . S
H1085 C1091 0.950 . S
H1086 C1092 0.949 . S
C1087 H1082 0.950 . S
C1087 C1089 1.327 . S
C1087 C1093 1.429 . S
C1088 C1080 1.574 . S
C1088 H1083 0.949 . S
C1088 C1094 1.368 . S
C1089 C1073 1.349 . S
C1089 H1081 0.950 . S
C1089 C1087 1.327 . S
C1090 C1078 1.349 . S
C1090 H1084 0.950 . S
C1090 C1091 1.327 . S
C1091 H1085 0.950 . S
C1091 C1090 1.327 . S
C1091 C1095 1.429 . S
C1092 C1075 1.574 . S
C1092 H1086 0.949 . S
C1092 C1096 1.368 . S
C1093 C1074 1.429 . S
C1093 C1087 1.429 . S
C1093 C1094 1.523 . S
C1094 C1075 1.368 . S
C1094 C1088 1.368 . S
C1094 C1093 1.523 . S
C1095 C1079 1.429 . S
C1095 C1091 1.429 . S
C1095 C1096 1.523 . S
C1096 C1080 1.368 . S
C1096 C1092 1.368 . S
C1096 C1095 1.523 . S
H1097 C1072 0.950 . S
H1098 C1074 0.950 . S
H1099 C1075 0.949 . S
H1100 C1077 0.950 . S
H1101 C1079 0.950 . S
C1102 C1103 1.349 . S
C1102 C1104 1.327 . S
C1102 H1127 0.950 . S
C1103 C1102 1.349 . S
C1103 C1119 1.349 . S
C1104 C1102 1.327 . S
C1104 C1123 1.429 . S
C1104 H1128 0.950 . S
C1105 C1122 1.574 . S
C1105 C1124 1.368 . S
C1105 H1129 0.949 . S
H1106 C1110 0.949 . S
C1107 C1108 1.349 . S
C1107 C1109 1.327 . S
C1107 H1130 0.950 . S
C1108 C1107 1.349 . S
C1108 C1120 1.349 . S
C1109 C1107 1.327 . S
C1109 C1125 1.429 . S
C1109 H1131 0.950 . S
C1110 H1106 0.949 . S
C1110 C1118 1.574 . S
C1110 C1126 1.368 . S
H1111 C1119 0.950 . S
H1112 C1117 0.950 . S
H1113 C1118 0.949 . S
H1114 C1120 0.950 . S
H1115 C1121 0.950 . S
H1116 C1122 0.949 . S
C1117 H1112 0.950 . S
C1117 C1119 1.327 . S
C1117 C1123 1.429 . S
C1118 C1110 1.574 . S
C1118 H1113 0.949 . S
C1118 C1124 1.368 . S
C1119 C1103 1.349 . S
C1119 H1111 0.950 . S
C1119 C1117 1.327 . S
C1120 C1108 1.349 . S
C1120 H1114 0.950 . S
C1120 C1121 1.327 . S
C1121 H1115 0.950 . S
C1121 C1120 1.327 . S
C1121 C1125 1.429 . S
C1122 C1105 1.574 . S
C1122 H1116 0.949 . S
C1122 C1126 1.368 . S
C1123 C1104 1.429 . S
C1123 C1117 1.429 . S
C1123 C1124 1.523 . S
C1124 C1105 1.368 . S
C1124 C1118 1.368 . S
C1124 C1123 1.523 . S
C1125 C1109 1.429 . S
C1125 C1121 1.429 . S
C1125 C1126 1.523 . S
C1126 C1110 1.368 . S
C1126 C1122 1.368 . S
C1126 C1125 1.523 . S
H1127 C1102 0.950 . S
H1128 C1104 0.950 . S
H1129 C1105 0.949 . S
H1130 C1107 0.950 . S
H1131 C1109 0.950 . S
C1132 C1133 1.349 . S
C1132 C1134 1.327 . S
C1132 H1157 0.950 . S
C1133 C1132 1.349 . S
C1133 C1149 1.349 . S
C1134 C1132 1.327 . S
C1134 C1153 1.429 . S
C1134 H1158 0.950 . S
C1135 C1152 1.574 . S
C1135 C1154 1.368 . S
C1135 H1159 0.949 . S
H1136 C1140 0.949 . S
C1137 C1138 1.349 . S
C1137 C1139 1.327 . S
C1137 H1160 0.950 . S
C1138 C1137 1.349 . S
C1138 C1150 1.349 . S
C1139 C1137 1.327 . S
C1139 C1155 1.429 . S
C1139 H1161 0.950 . S
C1140 H1136 0.949 . S
C1140 C1148 1.574 . S
C1140 C1156 1.368 . S
H1141 C1149 0.950 . S
H1142 C1147 0.950 . S
H1143 C1148 0.949 . S
H1144 C1150 0.950 . S
H1145 C1151 0.950 . S
H1146 C1152 0.949 . S
C1147 H1142 0.950 . S
C1147 C1149 1.327 . S
C1147 C1153 1.429 . S
C1148 C1140 1.574 . S
C1148 H1143 0.949 . S
C1148 C1154 1.368 . S
C1149 C1133 1.349 . S
C1149 H1141 0.950 . S
C1149 C1147 1.327 . S
C1150 C1138 1.349 . S
C1150 H1144 0.950 . S
C1150 C1151 1.327 . S
C1151 H1145 0.950 . S
C1151 C1150 1.327 . S
C1151 C1155 1.429 . S
C1152 C1135 1.574 . S
C1152 H1146 0.949 . S
C1152 C1156 1.368 . S
C1153 C1134 1.429 . S
C1153 C1147 1.429 . S
C1153 C1154 1.523 . S
C1154 C1135 1.368 . S
C1154 C1148 1.368 . S
C1154 C1153 1.523 . S
C1155 C1139 1.429 . S
C1155 C1151 1.429 . S
C1155 C1156 1.523 . S
C1156 C1140 1.368 . S
C1156 C1152 1.368 . S
C1156 C1155 1.523 . S
H1157 C1132 0.950 . S
H1158 C1134 0.950 . S
H1159 C1135 0.949 . S
H1160 C1137 0.950 . S
H1161 C1139 0.950 . S
C1162 C1163 1.349 . S
C1162 C1164 1.327 . S
C1162 H1187 0.950 . S
C1163 C1162 1.349 . S
C1163 C1179 1.349 . S
C1164 C1162 1.327 . S
C1164 C1183 1.429 . S
C1164 H1188 0.950 . S
C1165 C1182 1.574 . S
C1165 C1184 1.368 . S
C1165 H1189 0.949 . S
H1166 C1170 0.949 . S
C1167 C1168 1.349 . S
C1167 C1169 1.327 . S
C1167 H1190 0.950 . S
C1168 C1167 1.349 . S
C1168 C1180 1.349 . S
C1169 C1167 1.327 . S
C1169 C1185 1.429 . S
C1169 H1191 0.950 . S
C1170 H1166 0.949 . S
C1170 C1178 1.574 . S
C1170 C1186 1.368 . S
H1171 C1179 0.950 . S
H1172 C1177 0.950 . S
H1173 C1178 0.949 . S
H1174 C1180 0.950 . S
H1175 C1181 0.950 . S
H1176 C1182 0.949 . S
C1177 H1172 0.950 . S
C1177 C1179 1.327 . S
C1177 C1183 1.429 . S
C1178 C1170 1.574 . S
C1178 H1173 0.949 . S
C1178 C1184 1.368 . S
C1179 C1163 1.349 . S
C1179 H1171 0.950 . S
C1179 C1177 1.327 . S
C1180 C1168 1.349 . S
C1180 H1174 0.950 . S
C1180 C1181 1.327 . S
C1181 H1175 0.950 . S
C1181 C1180 1.327 . S
C1181 C1185 1.429 . S
C1182 C1165 1.574 . S
C1182 H1176 0.949 . S
C1182 C1186 1.368 . S
C1183 C1164 1.429 . S
C1183 C1177 1.429 . S
C1183 C1184 1.523 . S
C1184 C1165 1.368 . S
C1184 C1178 1.368 . S
C1184 C1183 1.523 . S
C1185 C1169 1.429 . S
C1185 C1181 1.429 . S
C1185 C1186 1.523 . S
C1186 C1170 1.368 . S
C1186 C1182 1.368 . S
C1186 C1185 1.523 . S
H1187 C1162 0.950 . S
H1188 C1164 0.950 . S
H1189 C1165 0.949 . S
H1190 C1167 0.950 . S
H1191 C1169 0.950 . S
C1192 C1193 1.349 . S
C1192 C1194 1.327 . S
C1192 H1217 0.950 . S
C1193 C1192 1.349 . S
C1193 C1209 1.349 . S
C1194 C1192 1.327 . S
C1194 C1213 1.429 . S
C1194 H1218 0.950 . S
C1195 C1212 1.574 . S
C1195 C1214 1.368 . S
C1195 H1219 0.949 . S
H1196 C1200 0.949 . S
C1197 C1198 1.349 . S
C1197 C1199 1.327 . S
C1197 H1220 0.950 . S
C1198 C1197 1.349 . S
C1198 C1210 1.349 . S
C1199 C1197 1.327 . S
C1199 C1215 1.429 . S
C1199 H1221 0.950 . S
C1200 H1196 0.949 . S
C1200 C1208 1.574 . S
C1200 C1216 1.368 . S
H1201 C1209 0.950 . S
H1202 C1207 0.950 . S
H1203 C1208 0.949 . S
H1204 C1210 0.950 . S
H1205 C1211 0.950 . S
H1206 C1212 0.949 . S
C1207 H1202 0.950 . S
C1207 C1209 1.327 . S
C1207 C1213 1.429 . S
C1208 C1200 1.574 . S
C1208 H1203 0.949 . S
C1208 C1214 1.368 . S
C1209 C1193 1.349 . S
C1209 H1201 0.950 . S
C1209 C1207 1.327 . S
C1210 C1198 1.349 . S
C1210 H1204 0.950 . S
C1210 C1211 1.327 . S
C1211 H1205 0.950 . S
C1211 C1210 1.327 . S
C1211 C1215 1.429 . S
C1212 C1195 1.574 . S
C1212 H1206 0.949 . S
C1212 C1216 1.368 . S
C1213 C1194 1.429 . S
C1213 C1207 1.429 . S
C1213 C1214 1.523 . S
C1214 C1195 1.368 . S
C1214 C1208 1.368 . S
C1214 C1213 1.523 . S
C1215 C1199 1.429 . S
C1215 C1211 1.429 . S
C1215 C1216 1.523 . S
C1216 C1200 1.368 . S
C1216 C1212 1.368 . S
C1216 C1215 1.523 . S
H1217 C1192 0.950 . S
H1218 C1194 0.950 . S
H1219 C1195 0.949 . S
H1220 C1197 0.950 . S
H1221 C1199 0.950 . S
C1222 C1223 1.349 . S
C1222 C1224 1.327 . S
C1222 H1247 0.950 . S
C1223 C1222 1.349 . S
C1223 C1239 1.349 . S
C1224 C1222 1.327 . S
C1224 C1243 1.429 . S
C1224 H1248 0.950 . S
C1225 C1242 1.574 . S
C1225 C1244 1.368 . S
C1225 H1249 0.949 . S
H1226 C1230 0.949 . S
C1227 C1228 1.349 . S
C1227 C1229 1.327 . S
C1227 H1250 0.950 . S
C1228 C1227 1.349 . S
C1228 C1240 1.349 . S
C1229 C1227 1.327 . S
C1229 C1245 1.429 . S
C1229 H1251 0.950 . S
C1230 H1226 0.949 . S
C1230 C1238 1.574 . S
C1230 C1246 1.368 . S
H1231 C1239 0.950 . S
H1232 C1237 0.950 . S
H1233 C1238 0.949 . S
H1234 C1240 0.950 . S
H1235 C1241 0.950 . S
H1236 C1242 0.949 . S
C1237 H1232 0.950 . S
C1237 C1239 1.327 . S
C1237 C1243 1.429 . S
C1238 C1230 1.574 . S
C1238 H1233 0.949 . S
C1238 C1244 1.368 . S
C1239 C1223 1.349 . S
C1239 H1231 0.950 . S
C1239 C1237 1.327 . S
C1240 C1228 1.349 . S
C1240 H1234 0.950 . S
C1240 C1241 1.327 . S
C1241 H1235 0.950 . S
C1241 C1240 1.327 . S
C1241 C1245 1.429 . S
C1242 C1225 1.574 . S
C1242 H1236 0.949 . S
C1242 C1246 1.368 . S
C1243 C1224 1.429 . S
C1243 C1237 1.429 . S
C1243 C1244 1.523 . S
C1244 C1225 1.368 . S
C1244 C1238 1.368 . S
C1244 C1243 1.523 . S
C1245 C1229 1.429 . S
C1245 C1241 1.429 . S
C1245 C1246 1.523 . S
C1246 C1230 1.368 . S
C1246 C1242 1.368 . S
C1246 C1245 1.523 . S
H1247 C1222 0.950 . S
H1248 C1224 0.950 . S
H1249 C1225 0.949 . S
H1250 C1227 0.950 . S
H1251 C1229 0.950 . S
C1252 C1253 1.349 . S
C1252 C1254 1.327 . S
C1252 H1277 0.950 . S
C1253 C1252 1.349 . S
C1253 C1269 1.349 . S
C1254 C1252 1.327 . S
C1254 C1273 1.429 . S
C1254 H1278 0.950 . S
C1255 C1272 1.574 . S
C1255 C1274 1.368 . S
C1255 H1279 0.949 . S
H1256 C1260 0.949 . S
C1257 C1258 1.349 . S
C1257 C1259 1.327 . S
C1257 H1280 0.950 . S
C1258 C1257 1.349 . S
C1258 C1270 1.349 . S
C1259 C1257 1.327 . S
C1259 C1275 1.429 . S
C1259 H1281 0.950 . S
C1260 H1256 0.949 . S
C1260 C1268 1.574 . S
C1260 C1276 1.368 . S
H1261 C1269 0.950 . S
H1262 C1267 0.950 . S
H1263 C1268 0.949 . S
H1264 C1270 0.950 . S
H1265 C1271 0.950 . S
H1266 C1272 0.949 . S
C1267 H1262 0.950 . S
C1267 C1269 1.327 . S
C1267 C1273 1.429 . S
C1268 C1260 1.574 . S
C1268 H1263 0.949 . S
C1268 C1274 1.368 . S
C1269 C1253 1.349 . S
C1269 H1261 0.950 . S
C1269 C1267 1.327 . S
C1270 C1258 1.349 . S
C1270 H1264 0.950 . S
C1270 C1271 1.327 . S
C1271 H1265 0.950 . S
C1271 C1270 1.327 . S
C1271 C1275 1.429 . S
C1272 C1255 1.574 . S
C1272 H1266 0.949 . S
C1272 C1276 1.368 . S
C1273 C1254 1.429 . S
C1273 C1267 1.429 . S
C1273 C1274 1.523 . S
C1274 C1255 1.368 . S
C1274 C1268 1.368 . S
C1274 C1273 1.523 . S
C1275 C1259 1.429 . S
C1275 C1271 1.429 . S
C1275 C1276 1.523 . S
C1276 C1260 1.368 . S
C1276 C1272 1.368 . S
C1276 C1275 1.523 . S
H1277 C1252 0.950 . S
H1278 C1254 0.950 . S
H1279 C1255 0.949 . S
H1280 C1257 0.950 . S
H1281 C1259 0.950 . S
C1282 C1283 1.349 . S
C1282 C1284 1.327 . S
C1282 H1307 0.950 . S
C1283 C1282 1.349 . S
C1283 C1299 1.349 . S
C1284 C1282 1.327 . S
C1284 C1303 1.429 . S
C1284 H1308 0.950 . S
C1285 C1302 1.574 . S
C1285 C1304 1.368 . S
C1285 H1309 0.949 . S
H1286 C1290 0.949 . S
C1287 C1288 1.349 . S
C1287 C1289 1.327 . S
C1287 H1310 0.950 . S
C1288 C1287 1.349 . S
C1288 C1300 1.349 . S
C1289 C1287 1.327 . S
C1289 C1305 1.429 . S
C1289 H1311 0.950 . S
C1290 H1286 0.949 . S
C1290 C1298 1.574 . S
C1290 C1306 1.368 . S
H1291 C1299 0.950 . S
H1292 C1297 0.950 . S
H1293 C1298 0.949 . S
H1294 C1300 0.950 . S
H1295 C1301 0.950 . S
H1296 C1302 0.949 . S
C1297 H1292 0.950 . S
C1297 C1299 1.327 . S
C1297 C1303 1.429 . S
C1298 C1290 1.574 . S
C1298 H1293 0.949 . S
C1298 C1304 1.368 . S
C1299 C1283 1.349 . S
C1299 H1291 0.950 . S
C1299 C1297 1.327 . S
C1300 C1288 1.349 . S
C1300 H1294 0.950 . S
C1300 C1301 1.327 . S
C1301 H1295 0.950 . S
C1301 C1300 1.327 . S
C1301 C1305 1.429 . S
C1302 C1285 1.574 . S
C1302 H1296 0.949 . S
C1302 C1306 1.368 . S
C1303 C1284 1.429 . S
C1303 C1297 1.429 . S
C1303 C1304 1.523 . S
C1304 C1285 1.368 . S
C1304 C1298 1.368 . S
C1304 C1303 1.523 . S
C1305 C1289 1.429 . S
C1305 C1301 1.429 . S
C1305 C1306 1.523 . S
C1306 C1290 1.368 . S
C1306 C1302 1.368 . S
C1306 C1305 1.523 . S
H1307 C1282 0.950 . S
H1308 C1284 0.950 . S
H1309 C1285 0.949 . S
H1310 C1287 0.950 . S
H1311 C1289 0.950 . S
C1312 C1313 1.349 . S
C1312 C1314 1.327 . S
C1312 H1337 0.950 . S
C1313 C1312 1.349 . S
C1313 C1329 1.349 . S
C1314 C1312 1.327 . S
C1314 C1333 1.429 . S
C1314 H1338 0.950 . S
C1315 C1332 1.574 . S
C1315 C1334 1.368 . S
C1315 H1339 0.949 . S
H1316 C1320 0.949 . S
C1317 C1318 1.349 . S
C1317 C1319 1.327 . S
C1317 H1340 0.950 . S
C1318 C1317 1.349 . S
C1318 C1330 1.349 . S
C1319 C1317 1.327 . S
C1319 C1335 1.429 . S
C1319 H1341 0.950 . S
C1320 H1316 0.949 . S
C1320 C1328 1.574 . S
C1320 C1336 1.368 . S
H1321 C1329 0.950 . S
H1322 C1327 0.950 . S
H1323 C1328 0.949 . S
H1324 C1330 0.950 . S
H1325 C1331 0.950 . S
H1326 C1332 0.949 . S
C1327 H1322 0.950 . S
C1327 C1329 1.327 . S
C1327 C1333 1.429 . S
C1328 C1320 1.574 . S
C1328 H1323 0.949 . S
C1328 C1334 1.368 . S
C1329 C1313 1.349 . S
C1329 H1321 0.950 . S
C1329 C1327 1.327 . S
C1330 C1318 1.349 . S
C1330 H1324 0.950 . S
C1330 C1331 1.327 . S
C1331 H1325 0.950 . S
C1331 C1330 1.327 . S
C1331 C1335 1.429 . S
C1332 C1315 1.574 . S
C1332 H1326 0.949 . S
C1332 C1336 1.368 . S
C1333 C1314 1.429 . S
C1333 C1327 1.429 . S
C1333 C1334 1.523 . S
C1334 C1315 1.368 . S
C1334 C1328 1.368 . S
C1334 C1333 1.523 . S
C1335 C1319 1.429 . S
C1335 C1331 1.429 . S
C1335 C1336 1.523 . S
C1336 C1320 1.368 . S
C1336 C1332 1.368 . S
C1336 C1335 1.523 . S
H1337 C1312 0.950 . S
H1338 C1314 0.950 . S
H1339 C1315 0.949 . S
H1340 C1317 0.950 . S
H1341 C1319 0.950 . S
C1342 C1343 1.349 . S
C1342 C1344 1.327 . S
C1342 H1367 0.950 . S
C1343 C1342 1.349 . S
C1343 C1359 1.349 . S
C1344 C1342 1.327 . S
C1344 C1363 1.429 . S
C1344 H1368 0.950 . S
C1345 C1362 1.574 . S
C1345 C1364 1.368 . S
C1345 H1369 0.949 . S
H1346 C1350 0.949 . S
C1347 C1348 1.349 . S
C1347 C1349 1.327 . S
C1347 H1370 0.950 . S
C1348 C1347 1.349 . S
C1348 C1360 1.349 . S
C1349 C1347 1.327 . S
C1349 C1365 1.429 . S
C1349 H1371 0.950 . S
C1350 H1346 0.949 . S
C1350 C1358 1.574 . S
C1350 C1366 1.368 . S
H1351 C1359 0.950 . S
H1352 C1357 0.950 . S
H1353 C1358 0.949 . S
H1354 C1360 0.950 . S
H1355 C1361 0.950 . S
H1356 C1362 0.949 . S
C1357 H1352 0.950 . S
C1357 C1359 1.327 . S
C1357 C1363 1.429 . S
C1358 C1350 1.574 . S
C1358 H1353 0.949 . S
C1358 C1364 1.368 . S
C1359 C1343 1.349 . S
C1359 H1351 0.950 . S
C1359 C1357 1.327 . S
C1360 C1348 1.349 . S
C1360 H1354 0.950 . S
C1360 C1361 1.327 . S
C1361 H1355 0.950 . S
C1361 C1360 1.327 . S
C1361 C1365 1.429 . S
C1362 C1345 1.574 . S
C1362 H1356 0.949 . S
C1362 C1366 1.368 . S
C1363 C1344 1.429 . S
C1363 C1357 1.429 . S
C1363 C1364 1.523 . S
C1364 C1345 1.368 . S
C1364 C1358 1.368 . S
C1364 C1363 1.523 . S
C1365 C1349 1.429 . S
C1365 C1361 1.429 . S
C1365 C1366 1.523 . S
C1366 C1350 1.368 . S
C1366 C1362 1.368 . S
C1366 C1365 1.523 . S
H1367 C1342 0.950 . S
H1368 C1344 0.950 . S
H1369 C1345 0.949 . S
H1370 C1347 0.950 . S
H1371 C1349 0.950 . S
C1372 C1373 1.349 . S
C1372 C1374 1.327 . S
C1372 H1397 0.950 . S
C1373 C1372 1.349 . S
C1373 C1389 1.349 . S
C1374 C1372 1.327 . S
C1374 C1393 1.429 . S
C1374 H1398 0.950 . S
C1375 C1392 1.574 . S
C1375 C1394 1.368 . S
C1375 H1399 0.949 . S
H1376 C1380 0.949 . S
C1377 C1378 1.349 . S
C1377 C1379 1.327 . S
C1377 H1400 0.950 . S
C1378 C1377 1.349 . S
C1378 C1390 1.349 . S
C1379 C1377 1.327 . S
C1379 C1395 1.429 . S
C1379 H1401 0.950 . S
C1380 H1376 0.949 . S
C1380 C1388 1.574 . S
C1380 C1396 1.368 . S
H1381 C1389 0.950 . S
H1382 C1387 0.950 . S
H1383 C1388 0.949 . S
H1384 C1390 0.950 . S
H1385 C1391 0.950 . S
H1386 C1392 0.949 . S
C1387 H1382 0.950 . S
C1387 C1389 1.327 . S
C1387 C1393 1.429 . S
C1388 C1380 1.574 . S
C1388 H1383 0.949 . S
C1388 C1394 1.368 . S
C1389 C1373 1.349 . S
C1389 H1381 0.950 . S
C1389 C1387 1.327 . S
C1390 C1378 1.349 . S
C1390 H1384 0.950 . S
C1390 C1391 1.327 . S
C1391 H1385 0.950 . S
C1391 C1390 1.327 . S
C1391 C1395 1.429 . S
C1392 C1375 1.574 . S
C1392 H1386 0.949 . S
C1392 C1396 1.368 . S
C1393 C1374 1.429 . S
C1393 C1387 1.429 . S
C1393 C1394 1.523 . S
C1394 C1375 1.368 . S
C1394 C1388 1.368 . S
C1394 C1393 1.523 . S
C1395 C1379 1.429 . S
C1395 C1391 1.429 . S
C1395 C1396 1.523 . S
C1396 C1380 1.368 . S
C1396 C1392 1.368 . S
C1396 C1395 1.523 . S
H1397 C1372 0.950 . S
H1398 C1374 0.950 . S
H1399 C1375 0.949 . S
H1400 C1377 0.950 . S
H1401 C1379 0.950 . S
C1402 C1403 1.349 . S
C1402 C1404 1.327 . S
C1402 H1427 0.950 . S
C1403 C1402 1.349 . S
C1403 C1419 1.349 . S
C1404 C1402 1.327 . S
C1404 C1423 1.429 . S
C1404 H1428 0.950 . S
C1405 C1422 1.574 . S
C1405 C1424 1.368 . S
C1405 H1429 0.949 . S
H1406 C1410 0.949 . S
C1407 C1408 1.349 . S
C1407 C1409 1.327 . S
C1407 H1430 0.950 . S
C1408 C1407 1.349 . S
C1408 C1420 1.349 . S
C1409 C1407 1.327 . S
C1409 C1425 1.429 . S
C1409 H1431 0.950 . S
C1410 H1406 0.949 . S
C1410 C1418 1.574 . S
C1410 C1426 1.368 . S
H1411 C1419 0.950 . S
H1412 C1417 0.950 . S
H1413 C1418 0.949 . S
H1414 C1420 0.950 . S
H1415 C1421 0.950 . S
H1416 C1422 0.949 . S
C1417 H1412 0.950 . S
C1417 C1419 1.327 . S
C1417 C1423 1.429 . S
C1418 C1410 1.574 . S
C1418 H1413 0.949 . S
C1418 C1424 1.368 . S
C1419 C1403 1.349 . S
C1419 H1411 0.950 . S
C1419 C1417 1.327 . S
C1420 C1408 1.349 . S
C1420 H1414 0.950 . S
C1420 C1421 1.327 . S
C1421 H1415 0.950 . S
C1421 C1420 1.327 . S
C1421 C1425 1.429 . S
C1422 C1405 1.574 . S
C1422 H1416 0.949 . S
C1422 C1426 1.368 . S
C1423 C1404 1.429 . S
C1423 C1417 1.429 . S
C1423 C1424 1.523 . S
C1424 C1405 1.368 . S
C1424 C1418 1.368 . S
C1424 C1423 1.523 . S
C1425 C1409 1.429 . S
C1425 C1421 1.429 . S
C1425 C1426 1.523 . S
C1426 C1410 1.368 . S
C1426 C1422 1.368 . S
C1426 C1425 1.523 . S
H1427 C1402 0.950 . S
H1428 C1404 0.950 . S
H1429 C1405 0.949 . S
H1430 C1407 0.950 . S
H1431 C1409 0.950 . S
C1432 C1433 1.349 . S
C1432 C1434 1.327 . S
C1432 H1457 0.950 . S
C1433 C1432 1.349 . S
C1433 C1449 1.349 . S
C1434 C1432 1.327 . S
C1434 C1453 1.429 . S
C1434 H1458 0.950 . S
C1435 C1452 1.574 . S
C1435 C1454 1.368 . S
C1435 H1459 0.949 . S
H1436 C1440 0.949 . S
C1437 C1438 1.349 . S
C1437 C1439 1.327 . S
C1437 H1460 0.950 . S
C1438 C1437 1.349 . S
C1438 C1450 1.349 . S
C1439 C1437 1.327 . S
C1439 C1455 1.429 . S
C1439 H1461 0.950 . S
C1440 H1436 0.949 . S
C1440 C1448 1.574 . S
C1440 C1456 1.368 . S
H1441 C1449 0.950 . S
H1442 C1447 0.950 . S
H1443 C1448 0.949 . S
H1444 C1450 0.950 . S
H1445 C1451 0.950 . S
H1446 C1452 0.949 . S
C1447 H1442 0.950 . S
C1447 C1449 1.327 . S
C1447 C1453 1.429 . S
C1448 C1440 1.574 . S
C1448 H1443 0.949 . S
C1448 C1454 1.368 . S
C1449 C1433 1.349 . S
C1449 H1441 0.950 . S
C1449 C1447 1.327 . S
C1450 C1438 1.349 . S
C1450 H1444 0.950 . S
C1450 C1451 1.327 . S
C1451 H1445 0.950 . S
C1451 C1450 1.327 . S
C1451 C1455 1.429 . S
C1452 C1435 1.574 . S
C1452 H1446 0.949 . S
C1452 C1456 1.368 . S
C1453 C1434 1.429 . S
C1453 C1447 1.429 . S
C1453 C1454 1.523 . S
C1454 C1435 1.368 . S
C1454 C1448 1.368 . S
C1454 C1453 1.523 . S
C1455 C1439 1.429 . S
C1455 C1451 1.429 . S
C1455 C1456 1.523 . S
C1456 C1440 1.368 . S
C1456 C1452 1.368 . S
C1456 C1455 1.523 . S
H1457 C1432 0.950 . S
H1458 C1434 0.950 . S
H1459 C1435 0.949 . S
H1460 C1437 0.950 . S
H1461 C1439 0.950 . S
C1462 C1463 1.349 . S
C1462 C1464 1.327 . S
C1462 H1487 0.950 . S
C1463 C1462 1.349 . S
C1463 C1479 1.349 . S
C1464 C1462 1.327 . S
C1464 C1483 1.429 . S
C1464 H1488 0.950 . S
C1465 C1482 1.574 . S
C1465 C1484 1.368 . S
C1465 H1489 0.949 . S
H1466 C1470 0.949 . S
C1467 C1468 1.349 . S
C1467 C1469 1.327 . S
C1467 H1490 0.950 . S
C1468 C1467 1.349 . S
C1468 C1480 1.349 . S
C1469 C1467 1.327 . S
C1469 C1485 1.429 . S
C1469 H1491 0.950 . S
C1470 H1466 0.949 . S
C1470 C1478 1.574 . S
C1470 C1486 1.368 . S
H1471 C1479 0.950 . S
H1472 C1477 0.950 . S
H1473 C1478 0.949 . S
H1474 C1480 0.950 . S
H1475 C1481 0.950 . S
H1476 C1482 0.949 . S
C1477 H1472 0.950 . S
C1477 C1479 1.327 . S
C1477 C1483 1.429 . S
C1478 C1470 1.574 . S
C1478 H1473 0.949 . S
C1478 C1484 1.368 . S
C1479 C1463 1.349 . S
C1479 H1471 0.950 . S
C1479 C1477 1.327 . S
C1480 C1468 1.349 . S
C1480 H1474 0.950 . S
C1480 C1481 1.327 . S
C1481 H1475 0.950 . S
C1481 C1480 1.327 . S
C1481 C1485 1.429 . S
C1482 C1465 1.574 . S
C1482 H1476 0.949 . S
C1482 C1486 1.368 . S
C1483 C1464 1.429 . S
C1483 C1477 1.429 . S
C1483 C1484 1.523 . S
C1484 C1465 1.368 . S
C1484 C1478 1.368 . S
C1484 C1483 1.523 . S
C1485 C1469 1.429 . S
C1485 C1481 1.429 . S
C1485 C1486 1.523 . S
C1486 C1470 1.368 . S
C1486 C1482 1.368 . S
C1486 C1485 1.523 . S
H1487 C1462 0.950 . S
H1488 C1464 0.950 . S
H1489 C1465 0.949 . S
H1490 C1467 0.950 . S
H1491 C1469 0.950 . S
C1492 C1493 1.349 . S
C1492 C1494 1.327 . S
C1492 H1517 0.950 . S
C1493 C1492 1.349 . S
C1493 C1509 1.349 . S
C1494 C1492 1.327 . S
C1494 C1513 1.429 . S
C1494 H1518 0.950 . S
C1495 C1512 1.574 . S
C1495 C1514 1.368 . S
C1495 H1519 0.949 . S
H1496 C1500 0.949 . S
C1497 C1498 1.349 . S
C1497 C1499 1.327 . S
C1497 H1520 0.950 . S
C1498 C1497 1.349 . S
C1498 C1510 1.349 . S
C1499 C1497 1.327 . S
C1499 C1515 1.429 . S
C1499 H1521 0.950 . S
C1500 H1496 0.949 . S
C1500 C1508 1.574 . S
C1500 C1516 1.368 . S
H1501 C1509 0.950 . S
H1502 C1507 0.950 . S
H1503 C1508 0.949 . S
H1504 C1510 0.950 . S
H1505 C1511 0.950 . S
H1506 C1512 0.949 . S
C1507 H1502 0.950 . S
C1507 C1509 1.327 . S
C1507 C1513 1.429 . S
C1508 C1500 1.574 . S
C1508 H1503 0.949 . S
C1508 C1514 1.368 . S
C1509 C1493 1.349 . S
C1509 H1501 0.950 . S
C1509 C1507 1.327 . S
C1510 C1498 1.349 . S
C1510 H1504 0.950 . S
C1510 C1511 1.327 . S
C1511 H1505 0.950 . S
C1511 C1510 1.327 . S
C1511 C1515 1.429 . S
C1512 C1495 1.574 . S
C1512 H1506 0.949 . S
C1512 C1516 1.368 . S
C1513 C1494 1.429 . S
C1513 C1507 1.429 . S
C1513 C1514 1.523 . S
C1514 C1495 1.368 . S
C1514 C1508 1.368 . S
C1514 C1513 1.523 . S
C1515 C1499 1.429 . S
C1515 C1511 1.429 . S
C1515 C1516 1.523 . S
C1516 C1500 1.368 . S
C1516 C1512 1.368 . S
C1516 C1515 1.523 . S
H1517 C1492 0.950 . S
H1518 C1494 0.950 . S
H1519 C1495 0.949 . S
H1520 C1497 0.950 . S
H1521 C1499 0.950 . S
C1522 C1523 1.349 . S
C1522 C1524 1.327 . S
C1522 H1547 0.950 . S
C1523 C1522 1.349 . S
C1523 C1539 1.349 . S
C1524 C1522 1.327 . S
C1524 C1543 1.429 . S
C1524 H1548 0.950 . S
C1525 C1542 1.574 . S
C1525 C1544 1.368 . S
C1525 H1549 0.949 . S
H1526 C1530 0.949 . S
C1527 C1528 1.349 . S
C1527 C1529 1.327 . S
C1527 H1550 0.950 . S
C1528 C1527 1.349 . S
C1528 C1540 1.349 . S
C1529 C1527 1.327 . S
C1529 C1545 1.429 . S
C1529 H1551 0.950 . S
C1530 H1526 0.949 . S
C1530 C1538 1.574 . S
C1530 C1546 1.368 . S
H1531 C1539 0.950 . S
H1532 C1537 0.950 . S
H1533 C1538 0.949 . S
H1534 C1540 0.950 . S
H1535 C1541 0.950 . S
H1536 C1542 0.949 . S
C1537 H1532 0.950 . S
C1537 C1539 1.327 . S
C1537 C1543 1.429 . S
C1538 C1530 1.574 . S
C1538 H1533 0.949 . S
C1538 C1544 1.368 . S
C1539 C1523 1.349 . S
C1539 H1531 0.950 . S
C1539 C1537 1.327 . S
C1540 C1528 1.349 . S
C1540 H1534 0.950 . S
C1540 C1541 1.327 . S
C1541 H1535 0.950 . S
C1541 C1540 1.327 . S
C1541 C1545 1.429 . S
C1542 C1525 1.574 . S
C1542 H1536 0.949 . S
C1542 C1546 1.368 . S
C1543 C1524 1.429 . S
C1543 C1537 1.429 . S
C1543 C1544 1.523 . S
C1544 C1525 1.368 . S
C1544 C1538 1.368 . S
C1544 C1543 1.523 . S
C1545 C1529 1.429 . S
C1545 C1541 1.429 . S
C1545 C1546 1.523 . S
C1546 C1530 1.368 . S
C1546 C1542 1.368 . S
C1546 C1545 1.523 . S
H1547 C1522 0.950 . S
H1548 C1524 0.950 . S
H1549 C1525 0.949 . S
H1550 C1527 0.950 . S
H1551 C1529 0.950 . S
C1552 C1553 1.349 . S
C1552 C1554 1.327 . S
C1552 H1577 0.950 . S
C1553 C1552 1.349 . S
C1553 C1569 1.349 . S
C1554 C1552 1.327 . S
C1554 C1573 1.429 . S
C1554 H1578 0.950 . S
C1555 C1572 1.574 . S
C1555 C1574 1.368 . S
C1555 H1579 0.949 . S
H1556 C1560 0.949 . S
C1557 C1558 1.349 . S
C1557 C1559 1.327 . S
C1557 H1580 0.950 . S
C1558 C1557 1.349 . S
C1558 C1570 1.349 . S
C1559 C1557 1.327 . S
C1559 C1575 1.429 . S
C1559 H1581 0.950 . S
C1560 H1556 0.949 . S
C1560 C1568 1.574 . S
C1560 C1576 1.368 . S
H1561 C1569 0.950 . S
H1562 C1567 0.950 . S
H1563 C1568 0.949 . S
H1564 C1570 0.950 . S
H1565 C1571 0.950 . S
H1566 C1572 0.949 . S
C1567 H1562 0.950 . S
C1567 C1569 1.327 . S
C1567 C1573 1.429 . S
C1568 C1560 1.574 . S
C1568 H1563 0.949 . S
C1568 C1574 1.368 . S
C1569 C1553 1.349 . S
C1569 H1561 0.950 . S
C1569 C1567 1.327 . S
C1570 C1558 1.349 . S
C1570 H1564 0.950 . S
C1570 C1571 1.327 . S
C1571 H1565 0.950 . S
C1571 C1570 1.327 . S
C1571 C1575 1.429 . S
C1572 C1555 1.574 . S
C1572 H1566 0.949 . S
C1572 C1576 1.368 . S
C1573 C1554 1.429 . S
C1573 C1567 1.429 . S
C1573 C1574 1.523 . S
C1574 C1555 1.368 . S
C1574 C1568 1.368 . S
C1574 C1573 1.523 . S
C1575 C1559 1.429 . S
C1575 C1571 1.429 . S
C1575 C1576 1.523 . S
C1576 C1560 1.368 . S
C1576 C1572 1.368 . S
C1576 C1575 1.523 . S
H1577 C1552 0.950 . S
H1578 C1554 0.950 . S
H1579 C1555 0.949 . S
H1580 C1557 0.950 . S
H1581 C1559 0.950 . S
C1582 C1583 1.349 . S
C1582 C1584 1.327 . S
C1582 H1607 0.950 . S
C1583 C1582 1.349 . S
C1583 C1599 1.349 . S
C1584 C1582 1.327 . S
C1584 C1603 1.429 . S
C1584 H1608 0.950 . S
C1585 C1602 1.574 . S
C1585 C1604 1.368 . S
C1585 H1609 0.949 . S
H1586 C1590 0.949 . S
C1587 C1588 1.349 . S
C1587 C1589 1.327 . S
C1587 H1610 0.950 . S
C1588 C1587 1.349 . S
C1588 C1600 1.349 . S
C1589 C1587 1.327 . S
C1589 C1605 1.429 . S
C1589 H1611 0.950 . S
C1590 H1586 0.949 . S
C1590 C1598 1.574 . S
C1590 C1606 1.368 . S
H1591 C1599 0.950 . S
H1592 C1597 0.950 . S
H1593 C1598 0.949 . S
H1594 C1600 0.950 . S
H1595 C1601 0.950 . S
H1596 C1602 0.949 . S
C1597 H1592 0.950 . S
C1597 C1599 1.327 . S
C1597 C1603 1.429 . S
C1598 C1590 1.574 . S
C1598 H1593 0.949 . S
C1598 C1604 1.368 . S
C1599 C1583 1.349 . S
C1599 H1591 0.950 . S
C1599 C1597 1.327 . S
C1600 C1588 1.349 . S
C1600 H1594 0.950 . S
C1600 C1601 1.327 . S
C1601 H1595 0.950 . S
C1601 C1600 1.327 . S
C1601 C1605 1.429 . S
C1602 C1585 1.574 . S
C1602 H1596 0.949 . S
C1602 C1606 1.368 . S
C1603 C1584 1.429 . S
C1603 C1597 1.429 . S
C1603 C1604 1.523 . S
C1604 C1585 1.368 . S
C1604 C1598 1.368 . S
C1604 C1603 1.523 . S
C1605 C1589 1.429 . S
C1605 C1601 1.429 . S
C1605 C1606 1.523 . S
C1606 C1590 1.368 . S
C1606 C1602 1.368 . S
C1606 C1605 1.523 . S
H1607 C1582 0.950 . S
H1608 C1584 0.950 . S
H1609 C1585 0.949 . S
H1610 C1587 0.950 . S
H1611 C1589 0.950 . S
C1612 C1613 1.349 . S
C1612 C1614 1.327 . S
C1612 H1637 0.950 . S
C1613 C1612 1.349 . S
C1613 C1629 1.349 . S
C1614 C1612 1.327 . S
C1614 C1633 1.429 . S
C1614 H1638 0.950 . S
C1615 C1632 1.574 . S
C1615 C1634 1.368 . S
C1615 H1639 0.949 . S
H1616 C1620 0.949 . S
C1617 C1618 1.349 . S
C1617 C1619 1.327 . S
C1617 H1640 0.950 . S
C1618 C1617 1.349 . S
C1618 C1630 1.349 . S
C1619 C1617 1.327 . S
C1619 C1635 1.429 . S
C1619 H1641 0.950 . S
C1620 H1616 0.949 . S
C1620 C1628 1.574 . S
C1620 C1636 1.368 . S
H1621 C1629 0.950 . S
H1622 C1627 0.950 . S
H1623 C1628 0.949 . S
H1624 C1630 0.950 . S
H1625 C1631 0.950 . S
H1626 C1632 0.949 . S
C1627 H1622 0.950 . S
C1627 C1629 1.327 . S
C1627 C1633 1.429 . S
C1628 C1620 1.574 . S
C1628 H1623 0.949 . S
C1628 C1634 1.368 . S
C1629 C1613 1.349 . S
C1629 H1621 0.950 . S
C1629 C1627 1.327 . S
C1630 C1618 1.349 . S
C1630 H1624 0.950 . S
C1630 C1631 1.327 . S
C1631 H1625 0.950 . S
C1631 C1630 1.327 . S
C1631 C1635 1.429 . S
C1632 C1615 1.574 . S
C1632 H1626 0.949 . S
C1632 C1636 1.368 . S
C1633 C1614 1.429 . S
C1633 C1627 1.429 . S
C1633 C1634 1.523 . S
C1634 C1615 1.368 . S
C1634 C1628 1.368 . S
C1634 C1633 1.523 . S
C1635 C1619 1.429 . S
C1635 C1631 1.429 . S
C1635 C1636 1.523 . S
C1636 C1620 1.368 . S
C1636 C1632 1.368 . S
C1636 C1635 1.523 . S
H1637 C1612 0.950 . S
H1638 C1614 0.950 . S
H1639 C1615 0.949 . S
H1640 C1617 0.950 . S
H1641 C1619 0.950 . S
C1642 C1643 1.349 . S
C1642 C1644 1.327 . S
C1642 H1667 0.950 . S
C1643 C1642 1.349 . S
C1643 C1659 1.349 . S
C1644 C1642 1.327 . S
C1644 C1663 1.429 . S
C1644 H1668 0.950 . S
C1645 C1662 1.574 . S
C1645 C1664 1.368 . S
C1645 H1669 0.949 . S
H1646 C1650 0.949 . S
C1647 C1648 1.349 . S
C1647 C1649 1.327 . S
C1647 H1670 0.950 . S
C1648 C1647 1.349 . S
C1648 C1660 1.349 . S
C1649 C1647 1.327 . S
C1649 C1665 1.429 . S
C1649 H1671 0.950 . S
C1650 H1646 0.949 . S
C1650 C1658 1.574 . S
C1650 C1666 1.368 . S
H1651 C1659 0.950 . S
H1652 C1657 0.950 . S
H1653 C1658 0.949 . S
H1654 C1660 0.950 . S
H1655 C1661 0.950 . S
H1656 C1662 0.949 . S
C1657 H1652 0.950 . S
C1657 C1659 1.327 . S
C1657 C1663 1.429 . S
C1658 C1650 1.574 . S
C1658 H1653 0.949 . S
C1658 C1664 1.368 . S
C1659 C1643 1.349 . S
C1659 H1651 0.950 . S
C1659 C1657 1.327 . S
C1660 C1648 1.349 . S
C1660 H1654 0.950 . S
C1660 C1661 1.327 . S
C1661 H1655 0.950 . S
C1661 C1660 1.327 . S
C1661 C1665 1.429 . S
C1662 C1645 1.574 . S
C1662 H1656 0.949 . S
C1662 C1666 1.368 . S
C1663 C1644 1.429 . S
C1663 C1657 1.429 . S
C1663 C1664 1.523 . S
C1664 C1645 1.368 . S
C1664 C1658 1.368 . S
C1664 C1663 1.523 . S
C1665 C1649 1.429 . S
C1665 C1661 1.429 . S
C1665 C1666 1.523 . S
C1666 C1650 1.368 . S
C1666 C1662 1.368 . S
C1666 C1665 1.523 . S
H1667 C1642 0.950 . S
H1668 C1644 0.950 . S
H1669 C1645 0.949 . S
H1670 C1647 0.950 . S
H1671 C1649 0.950 . S
C1672 C1673 1.349 . S
C1672 C1674 1.327 . S
C1672 H1697 0.950 . S
C1673 C1672 1.349 . S
C1673 C1689 1.349 . S
C1674 C1672 1.327 . S
C1674 C1693 1.429 . S
C1674 H1698 0.950 . S
C1675 C1692 1.574 . S
C1675 C1694 1.368 . S
C1675 H1699 0.949 . S
H1676 C1680 0.949 . S
C1677 C1678 1.349 . S
C1677 C1679 1.327 . S
C1677 H1700 0.950 . S
C1678 C1677 1.349 . S
C1678 C1690 1.349 . S
C1679 C1677 1.327 . S
C1679 C1695 1.429 . S
C1679 H1701 0.950 . S
C1680 H1676 0.949 . S
C1680 C1688 1.574 . S
C1680 C1696 1.368 . S
H1681 C1689 0.950 . S
H1682 C1687 0.950 . S
H1683 C1688 0.949 . S
H1684 C1690 0.950 . S
H1685 C1691 0.950 . S
H1686 C1692 0.949 . S
C1687 H1682 0.950 . S
C1687 C1689 1.327 . S
C1687 C1693 1.429 . S
C1688 C1680 1.574 . S
C1688 H1683 0.949 . S
C1688 C1694 1.368 . S
C1689 C1673 1.349 . S
C1689 H1681 0.950 . S
C1689 C1687 1.327 . S
C1690 C1678 1.349 . S
C1690 H1684 0.950 . S
C1690 C1691 1.327 . S
C1691 H1685 0.950 . S
C1691 C1690 1.327 . S
C1691 C1695 1.429 . S
C1692 C1675 1.574 . S
C1692 H1686 0.949 . S
C1692 C1696 1.368 . S
C1693 C1674 1.429 . S
C1693 C1687 1.429 . S
C1693 C1694 1.523 . S
C1694 C1675 1.368 . S
C1694 C1688 1.368 . S
C1694 C1693 1.523 . S
C1695 C1679 1.429 . S
C1695 C1691 1.429 . S
C1695 C1696 1.523 . S
C1696 C1680 1.368 . S
C1696 C1692 1.368 . S
C1696 C1695 1.523 . S
H1697 C1672 0.950 . S
H1698 C1674 0.950 . S
H1699 C1675 0.949 . S
H1700 C1677 0.950 . S
H1701 C1679 0.950 . S
C1702 C1703 1.349 . S
C1702 C1704 1.327 . S
C1702 H1727 0.950 . S
C1703 C1702 1.349 . S
C1703 C1719 1.349 . S
C1704 C1702 1.327 . S
C1704 C1723 1.429 . S
C1704 H1728 0.950 . S
C1705 C1722 1.574 . S
C1705 C1724 1.368 . S
C1705 H1729 0.949 . S
H1706 C1710 0.949 . S
C1707 C1708 1.349 . S
C1707 C1709 1.327 . S
C1707 H1730 0.950 . S
C1708 C1707 1.349 . S
C1708 C1720 1.349 . S
C1709 C1707 1.327 . S
C1709 C1725 1.429 . S
C1709 H1731 0.950 . S
C1710 H1706 0.949 . S
C1710 C1718 1.574 . S
C1710 C1726 1.368 . S
H1711 C1719 0.950 . S
H1712 C1717 0.950 . S
H1713 C1718 0.949 . S
H1714 C1720 0.950 . S
H1715 C1721 0.950 . S
H1716 C1722 0.949 . S
C1717 H1712 0.950 . S
C1717 C1719 1.327 . S
C1717 C1723 1.429 . S
C1718 C1710 1.574 . S
C1718 H1713 0.949 . S
C1718 C1724 1.368 . S
C1719 C1703 1.349 . S
C1719 H1711 0.950 . S
C1719 C1717 1.327 . S
C1720 C1708 1.349 . S
C1720 H1714 0.950 . S
C1720 C1721 1.327 . S
C1721 H1715 0.950 . S
C1721 C1720 1.327 . S
C1721 C1725 1.429 . S
C1722 C1705 1.574 . S
C1722 H1716 0.949 . S
C1722 C1726 1.368 . S
C1723 C1704 1.429 . S
C1723 C1717 1.429 . S
C1723 C1724 1.523 . S
C1724 C1705 1.368 . S
C1724 C1718 1.368 . S
C1724 C1723 1.523 . S
C1725 C1709 1.429 . S
C1725 C1721 1.429 . S
C1725 C1726 1.523 . S
C1726 C1710 1.368 . S
C1726 C1722 1.368 . S
C1726 C1725 1.523 . S
H1727 C1702 0.950 . S
H1728 C1704 0.950 . S
H1729 C1705 0.949 . S
H1730 C1707 0.950 . S
H1731 C1709 0.950 . S
C1732 C1733 1.349 . S
C1732 C1734 1.327 . S
C1732 H1757 0.950 . S
C1733 C1732 1.349 . S
C1733 C1749 1.349 . S
C1734 C1732 1.327 . S
C1734 C1753 1.429 . S
C1734 H1758 0.950 . S
C1735 C1752 1.574 . S
C1735 C1754 1.368 . S
C1735 H1759 0.949 . S
H1736 C1740 0.949 . S
C1737 C1738 1.349 . S
C1737 C1739 1.327 . S
C1737 H1760 0.950 . S
C1738 C1737 1.349 . S
C1738 C1750 1.349 . S
C1739 C1737 1.327 . S
C1739 C1755 1.429 . S
C1739 H1761 0.950 . S
C1740 H1736 0.949 . S
C1740 C1748 1.574 . S
C1740 C1756 1.368 . S
H1741 C1749 0.950 . S
H1742 C1747 0.950 . S
H1743 C1748 0.949 . S
H1744 C1750 0.950 . S
H1745 C1751 0.950 . S
H1746 C1752 0.949 . S
C1747 H1742 0.950 . S
C1747 C1749 1.327 . S
C1747 C1753 1.429 . S
C1748 C1740 1.574 . S
C1748 H1743 0.949 . S
C1748 C1754 1.368 . S
C1749 C1733 1.349 . S
C1749 H1741 0.950 . S
C1749 C1747 1.327 . S
C1750 C1738 1.349 . S
C1750 H1744 0.950 . S
C1750 C1751 1.327 . S
C1751 H1745 0.950 . S
C1751 C1750 1.327 . S
C1751 C1755 1.429 . S
C1752 C1735 1.574 . S
C1752 H1746 0.949 . S
C1752 C1756 1.368 . S
C1753 C1734 1.429 . S
C1753 C1747 1.429 . S
C1753 C1754 1.523 . S
C1754 C1735 1.368 . S
C1754 C1748 1.368 . S
C1754 C1753 1.523 . S
C1755 C1739 1.429 . S
C1755 C1751 1.429 . S
C1755 C1756 1.523 . S
C1756 C1740 1.368 . S
C1756 C1752 1.368 . S
C1756 C1755 1.523 . S
H1757 C1732 0.950 . S
H1758 C1734 0.950 . S
H1759 C1735 0.949 . S
H1760 C1737 0.950 . S
H1761 C1739 0.950 . S
C1762 C1763 1.349 . S
C1762 C1764 1.327 . S
C1762 H1787 0.950 . S
C1763 C1762 1.349 . S
C1763 C1779 1.349 . S
C1764 C1762 1.327 . S
C1764 C1783 1.429 . S
C1764 H1788 0.950 . S
C1765 C1782 1.574 . S
C1765 C1784 1.368 . S
C1765 H1789 0.949 . S
H1766 C1770 0.949 . S
C1767 C1768 1.349 . S
C1767 C1769 1.327 . S
C1767 H1790 0.950 . S
C1768 C1767 1.349 . S
C1768 C1780 1.349 . S
C1769 C1767 1.327 . S
C1769 C1785 1.429 . S
C1769 H1791 0.950 . S
C1770 H1766 0.949 . S
C1770 C1778 1.574 . S
C1770 C1786 1.368 . S
H1771 C1779 0.950 . S
H1772 C1777 0.950 . S
H1773 C1778 0.949 . S
H1774 C1780 0.950 . S
H1775 C1781 0.950 . S
H1776 C1782 0.949 . S
C1777 H1772 0.950 . S
C1777 C1779 1.327 . S
C1777 C1783 1.429 . S
C1778 C1770 1.574 . S
C1778 H1773 0.949 . S
C1778 C1784 1.368 . S
C1779 C1763 1.349 . S
C1779 H1771 0.950 . S
C1779 C1777 1.327 . S
C1780 C1768 1.349 . S
C1780 H1774 0.950 . S
C1780 C1781 1.327 . S
C1781 H1775 0.950 . S
C1781 C1780 1.327 . S
C1781 C1785 1.429 . S
C1782 C1765 1.574 . S
C1782 H1776 0.949 . S
C1782 C1786 1.368 . S
C1783 C1764 1.429 . S
C1783 C1777 1.429 . S
C1783 C1784 1.523 . S
C1784 C1765 1.368 . S
C1784 C1778 1.368 . S
C1784 C1783 1.523 . S
C1785 C1769 1.429 . S
C1785 C1781 1.429 . S
C1785 C1786 1.523 . S
C1786 C1770 1.368 . S
C1786 C1782 1.368 . S
C1786 C1785 1.523 . S
H1787 C1762 0.950 . S
H1788 C1764 0.950 . S
H1789 C1765 0.949 . S
H1790 C1767 0.950 . S
H1791 C1769 0.950 . S
C358 C177 1.700 . S
C353 C9 1.704 . S
C388 C182 1.931 . S
C383 C28 1.913 . S
C418 C183 1.092 . S
C413 C49 1.105 . S
C443 C79 1.912 . S
C448 C187 1.941 . S
C473 C99 1.913 . S
C478 C190 1.931 . S
C508 C191 1.092 . S
C503 C101 1.097 . S
C533 C128 1.912 . S
C538 C168 1.942 . S
C563 C141 1.708 . S
C568 C184 1.704 . S
C598 C222 1.203 . S
C593 C16 1.179 . S
C623 C26 1.009 . S
C628 C248 1.009 . S
C658 C200 1.184 . S
C653 C56 1.167 . S
C688 C255 1.056 . S
C683 C69 1.069 . S
C713 C89 1.085 . S
C718 C209 1.075 . S
C748 C251 1.914 . S
C743 C108 1.889 . S
C773 C126 1.033 . S
C778 C215 1.043 . S
C803 C148 1.906 . S
C808 C246 1.931 . S
C833 C19 1.906 . S
C838 C254 1.920 . S
C863 C96 1.009 . S
C868 C241 1.012 . S
C898 C219 1.184 . S
C893 C106 1.165 . S
C928 C247 1.056 . S
C923 C121 1.079 . S
C953 C146 1.183 . S
C958 C214 1.208 . S
C983 C59 1.889 . S
C988 C232 1.913 . S
C1018 C223 1.040 . S
C1013 C76 1.030 . S
C1043 C21 1.085 . S
C1048 C216 1.065 . S
C1073 C149 1.678 . S
C1078 C278 1.653 . S
C1103 C88 1.887 . S
C1108 C273 1.921 . S
C1138 C287 1.056 . S
C1133 C109 1.076 . S
C1168 C264 1.932 . S
C1163 C139 1.891 . S
C1193 C39 1.887 . S
C1198 C280 1.917 . S
C1228 C279 1.056 . S
C1223 C41 1.071 . S
C1253 C68 1.888 . S
C1258 C283 1.930 . S
C1283 C1 1.678 . S
C1288 C286 1.647 . S
C1313 C156 1.185 . S
C1318 C312 1.212 . S
C1348 C328 1.047 . S
C1343 C86 1.037 . S
C1373 C116 1.168 . S
C1378 C310 1.174 . S
C1403 C129 1.104 . S
C1408 C343 1.085 . S
C1438 C319 1.078 . S
C1433 C29 1.090 . S
C1463 C48 1.920 . S
C1468 C337 1.938 . S
C1498 C315 1.050 . S
C1493 C66 1.032 . S
C1528 C350 1.935 . S
C1523 C8 1.932 . S
C1558 C342 1.935 . S
C1553 C159 1.937 . S
C1583 C36 1.035 . S
C1588 C347 1.046 . S
C1613 C46 1.168 . S
C1618 C318 1.181 . S
C1648 C351 1.087 . S
C1643 C61 1.106 . S
C1673 C6 1.185 . S
C1678 C305 1.204 . S
C1703 C119 1.920 . S
C1708 C344 1.935 . S
C1738 C296 1.050 . S
C1733 C136 1.037 . S
C1768 C311 1.078 . S
C1763 C81 1.085 . S
