# Generated by pormake.
# Topology gar, (4,6)-cn, num edge types: 1
# Building blocks:
#     Node 0, Type 0, BuildingBlock: UXUYUI_clean_sbu_0, # of connection points: 4
#     Node 1, Type 0, BuildingBlock: UXUYUI_clean_sbu_0, # of connection points: 4
#     Node 2, Type 0, BuildingBlock: UXUYUI_clean_sbu_0, # of connection points: 4
#     Node 3, Type 0, BuildingBlock: UXUYUI_clean_sbu_0, # of connection points: 4
#     Node 4, Type 0, BuildingBlock: UXUYUI_clean_sbu_0, # of connection points: 4
#     Node 5, Type 0, BuildingBlock: UXUYUI_clean_sbu_0, # of connection points: 4
#     Node 6, Type 0, BuildingBlock: UXUYUI_clean_sbu_0, # of connection points: 4
#     Node 7, Type 0, BuildingBlock: UXUYUI_clean_sbu_0, # of connection points: 4
#     Node 8, Type 0, BuildingBlock: UXUYUI_clean_sbu_0, # of connection points: 4
#     Node 9, Type 0, BuildingBlock: UXUYUI_clean_sbu_0, # of connection points: 4
#     Node 10, Type 0, BuildingBlock: UXUYUI_clean_sbu_0, # of connection points: 4
#     Node 11, Type 0, BuildingBlock: UXUYUI_clean_sbu_0, # of connection points: 4
#     Node 12, Type 0, BuildingBlock: UXUYUI_clean_sbu_0, # of connection points: 4
#     Node 13, Type 0, BuildingBlock: UXUYUI_clean_sbu_0, # of connection points: 4
#     Node 14, Type 0, BuildingBlock: UXUYUI_clean_sbu_0, # of connection points: 4
#     Node 15, Type 0, BuildingBlock: UXUYUI_clean_sbu_0, # of connection points: 4
#     Node 16, Type 0, BuildingBlock: UXUYUI_clean_sbu_0, # of connection points: 4
#     Node 17, Type 0, BuildingBlock: UXUYUI_clean_sbu_0, # of connection points: 4
#     Node 18, Type 0, BuildingBlock: UXUYUI_clean_sbu_0, # of connection points: 4
#     Node 19, Type 0, BuildingBlock: UXUYUI_clean_sbu_0, # of connection points: 4
#     Node 20, Type 0, BuildingBlock: UXUYUI_clean_sbu_0, # of connection points: 4
#     Node 21, Type 0, BuildingBlock: UXUYUI_clean_sbu_0, # of connection points: 4
#     Node 22, Type 0, BuildingBlock: UXUYUI_clean_sbu_0, # of connection points: 4
#     Node 23, Type 0, BuildingBlock: UXUYUI_clean_sbu_0, # of connection points: 4
#     Node 24, Type 1, BuildingBlock: KUMJIN_clean_sbu_0, # of connection points: 6
#     Node 25, Type 1, BuildingBlock: KUMJIN_clean_sbu_0, # of connection points: 6
#     Node 26, Type 1, BuildingBlock: KUMJIN_clean_sbu_0, # of connection points: 6
#     Node 27, Type 1, BuildingBlock: KUMJIN_clean_sbu_0, # of connection points: 6
#     Node 28, Type 1, BuildingBlock: KUMJIN_clean_sbu_0, # of connection points: 6
#     Node 29, Type 1, BuildingBlock: KUMJIN_clean_sbu_0, # of connection points: 6
#     Node 30, Type 1, BuildingBlock: KUMJIN_clean_sbu_0, # of connection points: 6
#     Node 31, Type 1, BuildingBlock: KUMJIN_clean_sbu_0, # of connection points: 6
#     Node 32, Type 1, BuildingBlock: KUMJIN_clean_sbu_0, # of connection points: 6
#     Node 33, Type 1, BuildingBlock: KUMJIN_clean_sbu_0, # of connection points: 6
#     Node 34, Type 1, BuildingBlock: KUMJIN_clean_sbu_0, # of connection points: 6
#     Node 35, Type 1, BuildingBlock: KUMJIN_clean_sbu_0, # of connection points: 6
#     Node 36, Type 1, BuildingBlock: KUMJIN_clean_sbu_0, # of connection points: 6
#     Node 37, Type 1, BuildingBlock: KUMJIN_clean_sbu_0, # of connection points: 6
#     Node 38, Type 1, BuildingBlock: KUMJIN_clean_sbu_0, # of connection points: 6
#     Node 39, Type 1, BuildingBlock: KUMJIN_clean_sbu_0, # of connection points: 6
#     Edge 40, Type (0, 1), BuildingBlock: KIFKEQ_clean_linker_1, # of connection points: 2
#     Edge 41, Type (0, 1), BuildingBlock: KIFKEQ_clean_linker_1, # of connection points: 2
#     Edge 42, Type (0, 1), BuildingBlock: KIFKEQ_clean_linker_1, # of connection points: 2
#     Edge 43, Type (0, 1), BuildingBlock: KIFKEQ_clean_linker_1, # of connection points: 2
#     Edge 44, Type (0, 1), BuildingBlock: KIFKEQ_clean_linker_1, # of connection points: 2
#     Edge 45, Type (0, 1), BuildingBlock: KIFKEQ_clean_linker_1, # of connection points: 2
#     Edge 46, Type (0, 1), BuildingBlock: KIFKEQ_clean_linker_1, # of connection points: 2
#     Edge 47, Type (0, 1), BuildingBlock: KIFKEQ_clean_linker_1, # of connection points: 2
#     Edge 48, Type (0, 1), BuildingBlock: KIFKEQ_clean_linker_1, # of connection points: 2
#     Edge 49, Type (0, 1), BuildingBlock: KIFKEQ_clean_linker_1, # of connection points: 2
#     Edge 50, Type (0, 1), BuildingBlock: KIFKEQ_clean_linker_1, # of connection points: 2
#     Edge 51, Type (0, 1), BuildingBlock: KIFKEQ_clean_linker_1, # of connection points: 2
#     Edge 52, Type (0, 1), BuildingBlock: KIFKEQ_clean_linker_1, # of connection points: 2
#     Edge 53, Type (0, 1), BuildingBlock: KIFKEQ_clean_linker_1, # of connection points: 2
#     Edge 54, Type (0, 1), BuildingBlock: KIFKEQ_clean_linker_1, # of connection points: 2
#     Edge 55, Type (0, 1), BuildingBlock: KIFKEQ_clean_linker_1, # of connection points: 2
#     Edge 56, Type (0, 1), BuildingBlock: KIFKEQ_clean_linker_1, # of connection points: 2
#     Edge 57, Type (0, 1), BuildingBlock: KIFKEQ_clean_linker_1, # of connection points: 2
#     Edge 58, Type (0, 1), BuildingBlock: KIFKEQ_clean_linker_1, # of connection points: 2
#     Edge 59, Type (0, 1), BuildingBlock: KIFKEQ_clean_linker_1, # of connection points: 2
#     Edge 60, Type (0, 1), BuildingBlock: KIFKEQ_clean_linker_1, # of connection points: 2
#     Edge 61, Type (0, 1), BuildingBlock: KIFKEQ_clean_linker_1, # of connection points: 2
#     Edge 62, Type (0, 1), BuildingBlock: KIFKEQ_clean_linker_1, # of connection points: 2
#     Edge 63, Type (0, 1), BuildingBlock: KIFKEQ_clean_linker_1, # of connection points: 2
#     Edge 64, Type (0, 1), BuildingBlock: KIFKEQ_clean_linker_1, # of connection points: 2
#     Edge 65, Type (0, 1), BuildingBlock: KIFKEQ_clean_linker_1, # of connection points: 2
#     Edge 66, Type (0, 1), BuildingBlock: KIFKEQ_clean_linker_1, # of connection points: 2
#     Edge 67, Type (0, 1), BuildingBlock: KIFKEQ_clean_linker_1, # of connection points: 2
#     Edge 68, Type (0, 1), BuildingBlock: KIFKEQ_clean_linker_1, # of connection points: 2
#     Edge 69, Type (0, 1), BuildingBlock: KIFKEQ_clean_linker_1, # of connection points: 2
#     Edge 70, Type (0, 1), BuildingBlock: KIFKEQ_clean_linker_1, # of connection points: 2
#     Edge 71, Type (0, 1), BuildingBlock: KIFKEQ_clean_linker_1, # of connection points: 2
#     Edge 72, Type (0, 1), BuildingBlock: KIFKEQ_clean_linker_1, # of connection points: 2
#     Edge 73, Type (0, 1), BuildingBlock: KIFKEQ_clean_linker_1, # of connection points: 2
#     Edge 74, Type (0, 1), BuildingBlock: KIFKEQ_clean_linker_1, # of connection points: 2
#     Edge 75, Type (0, 1), BuildingBlock: KIFKEQ_clean_linker_1, # of connection points: 2
#     Edge 76, Type (0, 1), BuildingBlock: KIFKEQ_clean_linker_1, # of connection points: 2
#     Edge 77, Type (0, 1), BuildingBlock: KIFKEQ_clean_linker_1, # of connection points: 2
#     Edge 78, Type (0, 1), BuildingBlock: KIFKEQ_clean_linker_1, # of connection points: 2
#     Edge 79, Type (0, 1), BuildingBlock: KIFKEQ_clean_linker_1, # of connection points: 2
#     Edge 80, Type (0, 1), BuildingBlock: KIFKEQ_clean_linker_1, # of connection points: 2
#     Edge 81, Type (0, 1), BuildingBlock: KIFKEQ_clean_linker_1, # of connection points: 2
#     Edge 82, Type (0, 1), BuildingBlock: KIFKEQ_clean_linker_1, # of connection points: 2
#     Edge 83, Type (0, 1), BuildingBlock: KIFKEQ_clean_linker_1, # of connection points: 2
#     Edge 84, Type (0, 1), BuildingBlock: KIFKEQ_clean_linker_1, # of connection points: 2
#     Edge 85, Type (0, 1), BuildingBlock: KIFKEQ_clean_linker_1, # of connection points: 2
#     Edge 86, Type (0, 1), BuildingBlock: KIFKEQ_clean_linker_1, # of connection points: 2
#     Edge 87, Type (0, 1), BuildingBlock: KIFKEQ_clean_linker_1, # of connection points: 2
#     Edge 88, Type (0, 1), BuildingBlock: KIFKEQ_clean_linker_1, # of connection points: 2
#     Edge 89, Type (0, 1), BuildingBlock: KIFKEQ_clean_linker_1, # of connection points: 2
#     Edge 90, Type (0, 1), BuildingBlock: KIFKEQ_clean_linker_1, # of connection points: 2
#     Edge 91, Type (0, 1), BuildingBlock: KIFKEQ_clean_linker_1, # of connection points: 2
#     Edge 92, Type (0, 1), BuildingBlock: KIFKEQ_clean_linker_1, # of connection points: 2
#     Edge 93, Type (0, 1), BuildingBlock: KIFKEQ_clean_linker_1, # of connection points: 2
#     Edge 94, Type (0, 1), BuildingBlock: KIFKEQ_clean_linker_1, # of connection points: 2
#     Edge 95, Type (0, 1), BuildingBlock: KIFKEQ_clean_linker_1, # of connection points: 2
#     Edge 96, Type (0, 1), BuildingBlock: KIFKEQ_clean_linker_1, # of connection points: 2
#     Edge 97, Type (0, 1), BuildingBlock: KIFKEQ_clean_linker_1, # of connection points: 2
#     Edge 98, Type (0, 1), BuildingBlock: KIFKEQ_clean_linker_1, # of connection points: 2
#     Edge 99, Type (0, 1), BuildingBlock: KIFKEQ_clean_linker_1, # of connection points: 2
#     Edge 100, Type (0, 1), BuildingBlock: KIFKEQ_clean_linker_1, # of connection points: 2
#     Edge 101, Type (0, 1), BuildingBlock: KIFKEQ_clean_linker_1, # of connection points: 2
#     Edge 102, Type (0, 1), BuildingBlock: KIFKEQ_clean_linker_1, # of connection points: 2
#     Edge 103, Type (0, 1), BuildingBlock: KIFKEQ_clean_linker_1, # of connection points: 2
#     Edge 104, Type (0, 1), BuildingBlock: KIFKEQ_clean_linker_1, # of connection points: 2
#     Edge 105, Type (0, 1), BuildingBlock: KIFKEQ_clean_linker_1, # of connection points: 2
#     Edge 106, Type (0, 1), BuildingBlock: KIFKEQ_clean_linker_1, # of connection points: 2
#     Edge 107, Type (0, 1), BuildingBlock: KIFKEQ_clean_linker_1, # of connection points: 2
#     Edge 108, Type (0, 1), BuildingBlock: KIFKEQ_clean_linker_1, # of connection points: 2
#     Edge 109, Type (0, 1), BuildingBlock: KIFKEQ_clean_linker_1, # of connection points: 2
#     Edge 110, Type (0, 1), BuildingBlock: KIFKEQ_clean_linker_1, # of connection points: 2
#     Edge 111, Type (0, 1), BuildingBlock: KIFKEQ_clean_linker_1, # of connection points: 2
#     Edge 112, Type (0, 1), BuildingBlock: KIFKEQ_clean_linker_1, # of connection points: 2
#     Edge 113, Type (0, 1), BuildingBlock: KIFKEQ_clean_linker_1, # of connection points: 2
#     Edge 114, Type (0, 1), BuildingBlock: KIFKEQ_clean_linker_1, # of connection points: 2
#     Edge 115, Type (0, 1), BuildingBlock: KIFKEQ_clean_linker_1, # of connection points: 2
#     Edge 116, Type (0, 1), BuildingBlock: KIFKEQ_clean_linker_1, # of connection points: 2
#     Edge 117, Type (0, 1), BuildingBlock: KIFKEQ_clean_linker_1, # of connection points: 2
#     Edge 118, Type (0, 1), BuildingBlock: KIFKEQ_clean_linker_1, # of connection points: 2
#     Edge 119, Type (0, 1), BuildingBlock: KIFKEQ_clean_linker_1, # of connection points: 2
#     Edge 120, Type (0, 1), BuildingBlock: KIFKEQ_clean_linker_1, # of connection points: 2
#     Edge 121, Type (0, 1), BuildingBlock: KIFKEQ_clean_linker_1, # of connection points: 2
#     Edge 122, Type (0, 1), BuildingBlock: KIFKEQ_clean_linker_1, # of connection points: 2
#     Edge 123, Type (0, 1), BuildingBlock: KIFKEQ_clean_linker_1, # of connection points: 2
#     Edge 124, Type (0, 1), BuildingBlock: KIFKEQ_clean_linker_1, # of connection points: 2
#     Edge 125, Type (0, 1), BuildingBlock: KIFKEQ_clean_linker_1, # of connection points: 2
#     Edge 126, Type (0, 1), BuildingBlock: KIFKEQ_clean_linker_1, # of connection points: 2
#     Edge 127, Type (0, 1), BuildingBlock: KIFKEQ_clean_linker_1, # of connection points: 2
#     Edge 128, Type (0, 1), BuildingBlock: KIFKEQ_clean_linker_1, # of connection points: 2
#     Edge 129, Type (0, 1), BuildingBlock: KIFKEQ_clean_linker_1, # of connection points: 2
#     Edge 130, Type (0, 1), BuildingBlock: KIFKEQ_clean_linker_1, # of connection points: 2
#     Edge 131, Type (0, 1), BuildingBlock: KIFKEQ_clean_linker_1, # of connection points: 2
#     Edge 132, Type (0, 1), BuildingBlock: KIFKEQ_clean_linker_1, # of connection points: 2
#     Edge 133, Type (0, 1), BuildingBlock: KIFKEQ_clean_linker_1, # of connection points: 2
#     Edge 134, Type (0, 1), BuildingBlock: KIFKEQ_clean_linker_1, # of connection points: 2
#     Edge 135, Type (0, 1), BuildingBlock: KIFKEQ_clean_linker_1, # of connection points: 2
# Relax obj value: 0.141
# Max RMSD: 0.309
# Mean RMSD: 0.195
data_MOF--net-gar--node1-UXUYUI_clean_sbu_0--node2-KUMJIN_clean_sbu_0--edge1-KIFKEQ_clean_linker_1
_symmetry_space_group_name_H-M    P1
_symmetry_Int_Tables_number       1
_symmetry_cell_setting            triclinic
loop_
_symmetry_equiv_pos_as_xyz
'x, y, z'
_cell_length_a     74.344452
_cell_length_b     70.115095
_cell_length_c     70.145952
_cell_angle_alpha  100.14095
_cell_angle_beta   93.054928
_cell_angle_gamma 102.26877
loop_
_atom_site_label
_atom_site_type_symbol
_atom_site_fract_x
_atom_site_fract_y
_atom_site_fract_z
_atom_type_partial_charge
Li0 Li 0.08867 0.32426 0.37641 0.0
Li1 Li 0.11047 0.34373 0.40412 0.0
Li2 Li 0.12125 0.32439 0.37659 0.0
Li3 Li 0.1029 0.30784 0.40054 0.0
C4 C 0.10894 0.36017 0.36502 0.0
N5 N 0.10711 0.38696 0.34083 0.0
C6 C 0.10678 0.37927 0.37268 0.0
C7 C 0.11026 0.35472 0.34509 0.0
C8 C 0.10584 0.39258 0.3602 0.0
C9 C 0.10929 0.36848 0.3331 0.0
C10 C 0.07281 0.3277 0.4168 0.0
C11 C 0.06184 0.3268 0.44842 0.0
N12 N 0.04656 0.33276 0.4425 0.0
C13 C 0.05697 0.33376 0.411 0.0
C14 C 0.07525 0.32406 0.43561 0.0
C15 C 0.04385 0.33621 0.4242 0.0
C16 C 0.05507 0.30414 0.35592 0.0
N17 N 0.06681 0.32229 0.3612 0.0
C18 C 0.0453 0.3379 0.3474 0.0
C19 C 0.06234 0.33901 0.35715 0.0
C20 C 0.03272 0.31944 0.34205 0.0
C21 C 0.03776 0.30234 0.34623 0.0
H22 H 0.05897 0.29119 0.35972 0.0
H23 H 0.07161 0.35331 0.36217 0.0
C24 C 0.13305 0.38082 0.42152 0.0
N25 N 0.11655 0.36807 0.42194 0.0
C26 C 0.13714 0.39972 0.43332 0.0
C27 C 0.10742 0.39158 0.44602 0.0
C28 C 0.10385 0.37307 0.4339 0.0
C29 C 0.1241 0.4052 0.4456 0.0
H30 H 0.14272 0.37655 0.41152 0.0
H31 H 0.09064 0.36313 0.43356 0.0
C32 C 0.09773 0.28669 0.35537 0.0
N33 N 0.09427 0.25767 0.32236 0.0
C34 C 0.09868 0.26734 0.35698 0.0
C35 C 0.0949 0.29129 0.33702 0.0
C36 C 0.09693 0.25288 0.3401 0.0
C37 C 0.09321 0.2764 0.32049 0.0
C38 C 0.1417 0.33508 0.4188 0.0
C39 C 0.1597 0.34141 0.41395 0.0
C40 C 0.13794 0.33831 0.43826 0.0
C41 C 0.17369 0.351 0.42872 0.0
C42 C 0.1523 0.34808 0.4526 0.0
N43 N 0.16973 0.35414 0.44758 0.0
C44 C 0.15111 0.34195 0.35901 0.0
C45 C 0.14266 0.30669 0.35053 0.0
C46 C 0.1653 0.34254 0.3468 0.0
N47 N 0.14019 0.32419 0.36053 0.0
C48 C 0.15635 0.30659 0.33787 0.0
C49 C 0.16782 0.32466 0.336 0.0
H50 H 0.14886 0.35559 0.36742 0.0
H51 H 0.13419 0.2928 0.35253 0.0
C52 C 0.08134 0.27442 0.41024 0.0
N53 N 0.09847 0.28657 0.41345 0.0
C54 C 0.077 0.25863 0.41999 0.0
C55 C 0.10813 0.26816 0.43601 0.0
C56 C 0.11187 0.28378 0.4259 0.0
C57 C 0.09045 0.25545 0.43318 0.0
H58 H 0.07106 0.27715 0.40018 0.0
H59 H 0.12536 0.29379 0.42811 0.0
O60 O 0.10989 0.34699 0.37708 0.0
O61 O 0.08607 0.32587 0.40426 0.0
O62 O 0.0997 0.30102 0.37177 0.0
O63 O 0.12794 0.32531 0.40455 0.0
H64 H 0.10571 0.38371 0.38808 0.0
H65 H 0.11207 0.34005 0.33895 0.0
H66 H 0.1041 0.40738 0.36591 0.0
H67 H 0.11029 0.36448 0.31764 0.0
H68 H 0.06362 0.32425 0.4631 0.0
H69 H 0.0549 0.33675 0.39654 0.0
H70 H 0.0875 0.31949 0.44035 0.0
H71 H 0.03156 0.34095 0.41992 0.0
H72 H 0.0417 0.35147 0.34481 0.0
H73 H 0.02835 0.28788 0.34229 0.0
H74 H 0.14996 0.41013 0.4324 0.0
H75 H 0.09674 0.39564 0.45478 0.0
H76 H 0.10087 0.26359 0.37112 0.0
H77 H 0.09405 0.30618 0.33556 0.0
H78 H 0.09771 0.23785 0.34111 0.0
H79 H 0.09108 0.27973 0.30617 0.0
H80 H 0.16285 0.3388 0.39897 0.0
H81 H 0.12407 0.33344 0.44222 0.0
H82 H 0.18771 0.35591 0.4252 0.0
H83 H 0.1496 0.35081 0.46772 0.0
H84 H 0.1742 0.35667 0.34584 0.0
H85 H 0.15838 0.29252 0.33013 0.0
H86 H 0.06328 0.24901 0.41722 0.0
H87 H 0.11879 0.26633 0.44622 0.0
Li88 Li 0.00533 0.7781 0.64222 0.0
Li89 Li 0.02015 0.76323 0.66674 0.0
Li90 Li 0.9979 0.74214 0.63982 0.0
Li91 Li 0.98746 0.7621 0.6669 0.0
C92 C 0.0349 0.75799 0.62568 0.0
N93 N 0.06092 0.75302 0.59968 0.0
C94 C 0.05366 0.76224 0.63228 0.0
C95 C 0.02936 0.75131 0.60585 0.0
C96 C 0.0666 0.75962 0.61891 0.0
C97 C 0.04274 0.74887 0.59293 0.0
C98 C 0.01274 0.80002 0.68772 0.0
C99 C 0.01427 0.80938 0.72263 0.0
N100 N 0.02162 0.82857 0.72138 0.0
C101 C 0.02025 0.81982 0.68677 0.0
C102 C 0.00969 0.79473 0.70577 0.0
C103 C 0.02468 0.83404 0.70396 0.0
C104 C 0.99516 0.80595 0.62186 0.0
N105 N 0.00946 0.79894 0.6286 0.0
C106 C 0.03122 0.82199 0.61538 0.0
C107 C 0.02723 0.80672 0.62582 0.0
C108 C 0.01675 0.82934 0.60786 0.0
C109 C 0.99853 0.82134 0.6114 0.0
H110 H 0.98118 0.79944 0.62446 0.0
H111 H 0.03829 0.80097 0.63166 0.0
C112 C 0.04712 0.74699 0.68086 0.0
N113 N 0.0421 0.76456 0.6813 0.0
C114 C 0.06407 0.74662 0.68989 0.0
C115 C 0.07043 0.7825 0.69949 0.0
C116 C 0.05325 0.78216 0.69033 0.0
C117 C 0.07598 0.76456 0.69918 0.0
H118 H 0.03814 0.73335 0.67299 0.0
H119 H 0.04907 0.79593 0.68994 0.0
C120 C 0.96633 0.75183 0.62454 0.0
N121 N 0.93797 0.73437 0.59567 0.0
C122 C 0.94868 0.74393 0.62944 0.0
C123 C 0.96954 0.75112 0.60501 0.0
C124 C 0.93452 0.7351 0.61461 0.0
C125 C 0.95502 0.74214 0.59061 0.0
C126 C 0.99956 0.72697 0.6793 0.0
C127 C 0.99314 0.70661 0.67193 0.0
C128 C 0.00589 0.73346 0.69898 0.0
C129 C 0.99324 0.69309 0.68435 0.0
C130 C 0.00572 0.71948 0.71095 0.0
N131 N 0.99948 0.69975 0.70345 0.0
C132 C 0.00843 0.70912 0.62339 0.0
C133 C 0.97623 0.70616 0.61639 0.0
C134 C 0.0068 0.68945 0.61461 0.0
N135 N 0.99329 0.71704 0.62406 0.0
C136 C 0.97401 0.68645 0.6071 0.0
C137 C 0.98942 0.678 0.6065 0.0
H138 H 0.02164 0.71792 0.63035 0.0
H139 H 0.96425 0.71239 0.618 0.0
C140 C 0.96469 0.78039 0.68968 0.0
N141 N 0.96893 0.76268 0.68311 0.0
C142 C 0.95137 0.78153 0.70269 0.0
C143 C 0.9469 0.74605 0.70149 0.0
C144 C 0.96034 0.74562 0.6885 0.0
C145 C 0.94237 0.76421 0.70874 0.0
H146 H 0.9717 0.79358 0.68481 0.0
H147 H 0.96386 0.73171 0.68267 0.0
O148 O 0.02203 0.75978 0.63871 0.0
O149 O 0.00811 0.78606 0.67097 0.0
O150 O 0.98037 0.76026 0.63885 0.0
O151 O 0.99992 0.74036 0.66718 0.0
H152 H 0.05822 0.76748 0.64756 0.0
H153 H 0.01488 0.74784 0.60054 0.0
H154 H 0.08116 0.7628 0.62383 0.0
H155 H 0.03867 0.7436 0.57755 0.0
H156 H 0.01193 0.80551 0.73669 0.0
H157 H 0.02262 0.82414 0.67287 0.0
H158 H 1.00363 0.77954 0.70673 0.0
H159 H 0.03052 0.84943 0.70344 0.0
H160 H 0.04547 0.82798 0.61321 0.0
H161 H 0.98701 0.82655 0.60573 0.0
H162 H 0.06808 0.73254 0.68906 0.0
H163 H 0.07934 0.79659 0.70654 0.0
H164 H 0.946 0.74443 0.64452 0.0
H165 H 0.98313 0.75728 0.60104 0.0
H166 H 0.92082 0.72878 0.61816 0.0
H167 H 0.9573 0.74132 0.57542 0.0
H168 H 0.98808 0.70125 0.65679 0.0
H169 H 0.01114 0.74908 0.70492 0.0
H170 H 0.98837 0.67731 0.67881 0.0
H171 H 0.01064 0.7243 0.7262 0.0
H172 H 0.01895 0.68319 0.61415 0.0
H173 H 0.96046 0.67777 0.60091 0.0
H174 H 0.94782 0.79568 0.70757 0.0
H175 H 0.9401 0.73239 0.70576 0.0
Li176 Li 0.58951 0.82462 0.87473 0.0
Li177 Li 0.61087 0.84463 0.90259 0.0
Li178 Li 0.6224 0.82559 0.87529 0.0
Li179 Li 0.60397 0.80859 0.89932 0.0
C180 C 0.60861 0.86088 0.8636 0.0
N181 N 0.60584 0.88776 0.83975 0.0
C182 C 0.60624 0.87983 0.8715 0.0
C183 C 0.60961 0.8556 0.84359 0.0
C184 C 0.60484 0.8932 0.85919 0.0
C185 C 0.60818 0.86941 0.83177 0.0
C186 C 0.57365 0.82842 0.91539 0.0
C187 C 0.5638 0.82987 0.94771 0.0
N188 N 0.54787 0.8344 0.94144 0.0
C189 C 0.55714 0.83301 0.90926 0.0
C190 C 0.577 0.82673 0.93474 0.0
C191 C 0.54429 0.83599 0.92264 0.0
C192 C 0.55671 0.8034 0.85332 0.0
N193 N 0.56752 0.822 0.85929 0.0
C194 C 0.54409 0.83656 0.84746 0.0
C195 C 0.56175 0.83845 0.85629 0.0
C196 C 0.5325 0.81759 0.8417 0.0
C197 C 0.539 0.8008 0.84422 0.0
H198 H 0.56156 0.79067 0.85639 0.0
H199 H 0.5704 0.85306 0.86171 0.0
C200 C 0.63376 0.8804 0.92383 0.0
N201 N 0.61628 0.86883 0.92052 0.0
C202 C 0.63748 0.89851 0.93697 0.0
C203 C 0.60509 0.89244 0.94255 0.0
C204 C 0.602 0.87473 0.92923 0.0
C205 C 0.623 0.90444 0.94658 0.0
H206 H 0.64472 0.87576 0.91603 0.0
H207 H 0.58809 0.86607 0.92547 0.0
C208 C 0.59999 0.78737 0.85429 0.0
N209 N 0.59721 0.75796 0.82175 0.0
C210 C 0.60104 0.76816 0.85632 0.0
C211 C 0.59745 0.79164 0.83576 0.0
C212 C 0.59962 0.75349 0.83968 0.0
C213 C 0.5961 0.77656 0.81947 0.0
C214 C 0.64226 0.83514 0.91818 0.0
C215 C 0.66048 0.84163 0.91406 0.0
C216 C 0.63801 0.83706 0.93749 0.0
C217 C 0.6742 0.85011 0.9294 0.0
C218 C 0.6521 0.84572 0.95242 0.0
N219 N 0.66975 0.85199 0.9481 0.0
C220 C 0.65063 0.84403 0.85597 0.0
C221 C 0.64522 0.8088 0.8501 0.0
C222 C 0.66373 0.84505 0.84247 0.0
N223 N 0.6415 0.82608 0.85916 0.0
C224 C 0.65813 0.80911 0.83648 0.0
C225 C 0.66732 0.82738 0.83231 0.0
H226 H 0.64748 0.85752 0.86367 0.0
H227 H 0.63805 0.7948 0.85331 0.0
C228 C 0.582 0.77685 0.91198 0.0
N229 N 0.59969 0.78732 0.91256 0.0
C230 C 0.57801 0.76104 0.9218 0.0
C231 C 0.61053 0.7673 0.93277 0.0
C232 C 0.6139 0.78293 0.92262 0.0
C233 C 0.59239 0.75612 0.93236 0.0
H234 H 0.57101 0.78089 0.90394 0.0
H235 H 0.62783 0.79157 0.92275 0.0
O236 O 0.61034 0.84778 0.87553 0.0
O237 O 0.58665 0.82618 0.9026 0.0
O238 O 0.60123 0.8018 0.87047 0.0
O239 O 0.62873 0.82669 0.90333 0.0
H240 H 0.6055 0.88417 0.88697 0.0
H241 H 0.61161 0.84107 0.83727 0.0
H242 H 0.60299 0.90791 0.86509 0.0
H243 H 0.60898 0.86555 0.81626 0.0
H244 H 0.56625 0.82876 0.96277 0.0
H245 H 0.55433 0.83448 0.89439 0.0
H246 H 0.58972 0.82324 0.93973 0.0
H247 H 0.5315 0.83964 0.9181 0.0
H248 H 0.53929 0.84976 0.84575 0.0
H249 H 0.53019 0.78602 0.84009 0.0
H250 H 0.65133 0.90785 0.93939 0.0
H251 H 0.59345 0.89711 0.94908 0.0
H252 H 0.60293 0.76465 0.87062 0.0
H253 H 0.59646 0.80641 0.83399 0.0
H254 H 0.60042 0.73855 0.84102 0.0
H255 H 0.59414 0.77963 0.80501 0.0
H256 H 0.66398 0.84012 0.89917 0.0
H257 H 0.62396 0.83206 0.94088 0.0
H258 H 0.68837 0.85519 0.92644 0.0
H259 H 0.64902 0.84744 0.96744 0.0
H260 H 0.67073 0.85941 0.83982 0.0
H261 H 0.66103 0.79519 0.82945 0.0
H262 H 0.56382 0.75294 0.9214 0.0
H263 H 0.62197 0.76386 0.94067 0.0
Li264 Li 0.50345 0.27753 0.14296 0.0
Li265 Li 0.51837 0.26253 0.16727 0.0
Li266 Li 0.49696 0.24148 0.13967 0.0
Li267 Li 0.48527 0.26009 0.16697 0.0
C268 C 0.53378 0.2586 0.12642 0.0
N269 N 0.56 0.25416 0.10053 0.0
C270 C 0.55252 0.26286 0.13313 0.0
C271 C 0.52838 0.25227 0.10653 0.0
C272 C 0.56556 0.26049 0.11982 0.0
C273 C 0.54185 0.25007 0.09367 0.0
C274 C 0.51063 0.29885 0.18833 0.0
C275 C 0.51232 0.30914 0.22315 0.0
N276 N 0.52108 0.32782 0.22153 0.0
C277 C 0.51956 0.31816 0.18698 0.0
C278 C 0.50693 0.29427 0.20652 0.0
C279 C 0.52478 0.33259 0.20395 0.0
C280 C 0.49372 0.30532 0.1217 0.0
N281 N 0.50773 0.29872 0.12967 0.0
C282 C 0.53028 0.32221 0.11783 0.0
C283 C 0.52572 0.30691 0.12815 0.0
C284 C 0.51617 0.32919 0.10911 0.0
C285 C 0.49766 0.32077 0.11132 0.0
H286 H 0.47953 0.29845 0.12322 0.0
H287 H 0.53652 0.30145 0.13488 0.0
C288 C 0.54634 0.24674 0.17967 0.0
N289 N 0.54041 0.26395 0.18208 0.0
C290 C 0.56342 0.24632 0.18842 0.0
C291 C 0.56794 0.28137 0.20213 0.0
C292 C 0.55072 0.28111 0.19305 0.0
C293 C 0.5745 0.26384 0.19968 0.0
H294 H 0.53801 0.23349 0.17039 0.0
H295 H 0.54591 0.2947 0.19435 0.0
C296 C 0.46522 0.25093 0.12394 0.0
N297 N 0.43782 0.23442 0.09387 0.0
C298 C 0.44728 0.24288 0.12795 0.0
C299 C 0.46921 0.25086 0.1047 0.0
C300 C 0.43362 0.23454 0.11253 0.0
C301 C 0.45516 0.24235 0.08968 0.0
C302 C 0.49954 0.22581 0.17892 0.0
C303 C 0.4952 0.20537 0.17143 0.0
C304 C 0.50504 0.2327 0.19874 0.0
C305 C 0.49648 0.19214 0.18391 0.0
C306 C 0.50617 0.21898 0.21074 0.0
N307 N 0.5019 0.19916 0.20314 0.0
C308 C 0.50819 0.20925 0.12114 0.0
C309 C 0.47564 0.20553 0.11663 0.0
C310 C 0.5066 0.18978 0.11167 0.0
N311 N 0.49285 0.21671 0.12332 0.0
C312 C 0.47342 0.18598 0.10686 0.0
C313 C 0.48905 0.17805 0.10461 0.0
H314 H 0.52155 0.21815 0.1275 0.0
H315 H 0.46359 0.21139 0.11954 0.0
C316 C 0.46141 0.27651 0.18965 0.0
N317 N 0.46643 0.25923 0.18311 0.0
C318 C 0.44897 0.27727 0.20367 0.0
C319 C 0.44658 0.24218 0.20328 0.0
C320 C 0.4591 0.24212 0.1892 0.0
C321 C 0.44176 0.26006 0.21094 0.0
H322 H 0.46745 0.28977 0.1843 0.0
H323 H 0.46324 0.22854 0.18343 0.0
O324 O 0.5208 0.25995 0.13941 0.0
O325 O 0.50532 0.28466 0.17181 0.0
O326 O 0.47876 0.25894 0.13886 0.0
O327 O 0.4985 0.23895 0.16681 0.0
H328 H 0.55699 0.26791 0.14845 0.0
H329 H 0.51393 0.24878 0.10113 0.0
H330 H 0.58009 0.26363 0.12482 0.0
H331 H 0.53788 0.24501 0.07825 0.0
H332 H 0.50953 0.30583 0.23733 0.0
H333 H 0.52246 0.32192 0.17296 0.0
H334 H 0.49988 0.27946 0.2078 0.0
H335 H 0.53176 0.34759 0.20314 0.0
H336 H 0.54472 0.32853 0.1167 0.0
H337 H 0.48642 0.32572 0.10472 0.0
H338 H 0.56816 0.23259 0.18586 0.0
H339 H 0.57608 0.29514 0.21079 0.0
H340 H 0.44401 0.24291 0.14282 0.0
H341 H 0.48301 0.2572 0.10141 0.0
H342 H 0.4197 0.22811 0.11538 0.0
H343 H 0.45805 0.24205 0.07469 0.0
H344 H 0.49081 0.19973 0.15617 0.0
H345 H 0.50856 0.24845 0.20476 0.0
H346 H 0.49316 0.17628 0.17829 0.0
H347 H 0.51047 0.2241 0.2261 0.0
H348 H 0.51886 0.1838 0.11017 0.0
H349 H 0.45972 0.177 0.10165 0.0
H350 H 0.44505 0.29118 0.20877 0.0
H351 H 0.44104 0.2286 0.20837 0.0
Li352 Li 0.08861 0.82915 0.09656 0.0
Li353 Li 0.1074 0.81522 0.12223 0.0
Li354 Li 0.08553 0.7915 0.09315 0.0
Li355 Li 0.07098 0.81042 0.12107 0.0
C356 C 0.1202 0.8149 0.07885 0.0
N357 N 0.14411 0.81818 0.05018 0.0
C358 C 0.13898 0.82349 0.08385 0.0
C359 C 0.11356 0.8079 0.0593 0.0
C360 C 0.15086 0.82503 0.06913 0.0
C361 C 0.12587 0.80974 0.04501 0.0
C362 C 0.09341 0.85289 0.13891 0.0
C363 C 0.08919 0.87112 0.1702 0.0
N364 N 0.09678 0.88844 0.16456 0.0
C365 C 0.10127 0.87083 0.13344 0.0
C366 C 0.08735 0.85298 0.15742 0.0
C367 C 0.1028 0.88867 0.1466 0.0
C368 C 0.07168 0.85992 0.08863 0.0
N369 N 0.08637 0.85197 0.08361 0.0
C370 C 0.0949 0.87645 0.06334 0.0
C371 C 0.09787 0.85985 0.07101 0.0
C372 C 0.0801 0.88527 0.06882 0.0
C373 C 0.06838 0.87653 0.08155 0.0
H374 H 0.06257 0.85347 0.09848 0.0
H375 H 0.10949 0.85347 0.06704 0.0
C376 C 0.13572 0.79842 0.13832 0.0
N377 N 0.13081 0.81617 0.13883 0.0
C378 C 0.15157 0.797 0.14949 0.0
C379 C 0.15769 0.83224 0.16153 0.0
C380 C 0.14158 0.83298 0.15019 0.0
C381 C 0.16298 0.81401 0.16149 0.0
H382 H 0.12724 0.78516 0.12919 0.0
H383 H 0.13767 0.84705 0.15059 0.0
C384 C 0.05211 0.80246 0.07747 0.0
N385 N 0.02419 0.79377 0.04757 0.0
C386 C 0.03391 0.79456 0.08077 0.0
C387 C 0.05614 0.80601 0.059 0.0
C388 C 0.01998 0.79025 0.06545 0.0
C389 C 0.04182 0.80149 0.04406 0.0
C390 C 0.08411 0.77707 0.1331 0.0
C391 C 0.07423 0.7577 0.12537 0.0
C392 C 0.09071 0.78224 0.15276 0.0
C393 C 0.07115 0.74374 0.13748 0.0
C394 C 0.08734 0.76785 0.1644 0.0
N395 N 0.07772 0.74907 0.15658 0.0
C396 C 0.09891 0.75781 0.07654 0.0
C397 C 0.06661 0.75277 0.06953 0.0
C398 C 0.09818 0.73772 0.06895 0.0
N399 N 0.08324 0.7649 0.07715 0.0
C400 C 0.06524 0.73248 0.06184 0.0
C401 C 0.0811 0.72445 0.062 0.0
H402 H 0.11197 0.76758 0.0828 0.0
H403 H 0.05422 0.75851 0.07042 0.0
C404 C 0.03937 0.82398 0.13661 0.0
N405 N 0.04884 0.80924 0.13589 0.0
C406 C 0.02312 0.82318 0.14625 0.0
C407 C 0.02646 0.79204 0.15423 0.0
C408 C 0.04253 0.79337 0.1444 0.0
C409 C 0.01641 0.80707 0.15541 0.0
H410 H 0.04437 0.8364 0.1296 0.0
H411 H 0.04981 0.78153 0.14344 0.0
O412 O 0.10849 0.81296 0.09311 0.0
O413 O 0.09121 0.83534 0.12602 0.0
O414 O 0.06583 0.8071 0.0924 0.0
O415 O 0.08731 0.79092 0.12149 0.0
H416 H 0.14433 0.82885 0.09895 0.0
H417 H 0.09909 0.80099 0.05524 0.0
H418 H 0.16544 0.83162 0.07278 0.0
H419 H 0.12095 0.80438 0.02982 0.0
H420 H 0.08453 0.87145 0.18457 0.0
H421 H 0.10608 0.871 0.11917 0.0
H422 H 0.0812 0.83917 0.16182 0.0
H423 H 0.10875 0.90269 0.14254 0.0
H424 H 0.10441 0.88267 0.05368 0.0
H425 H 0.0567 0.88256 0.08609 0.0
H426 H 0.15494 0.7826 0.14845 0.0
H427 H 0.16573 0.84585 0.17054 0.0
H428 H 0.03058 0.79184 0.09503 0.0
H429 H 0.07013 0.81234 0.05629 0.0
H430 H 0.00582 0.78415 0.0678 0.0
H431 H 0.04471 0.80417 0.02969 0.0
H432 H 0.06888 0.7535 0.11024 0.0
H433 H 0.09832 0.79722 0.15895 0.0
H434 H 0.06352 0.72869 0.1317 0.0
H435 H 0.09236 0.77163 0.17966 0.0
H436 H 0.1109 0.73254 0.06907 0.0
H437 H 0.05172 0.72301 0.05682 0.0
H438 H 0.01607 0.83525 0.14675 0.0
H439 H 0.02182 0.77908 0.16062 0.0
Li440 Li 0.52352 0.79274 0.4483 0.0
Li441 Li 0.5017 0.7696 0.4195 0.0
Li442 Li 0.5206 0.7549 0.44568 0.0
Li443 Li 0.53778 0.77269 0.42069 0.0
C444 C 0.48957 0.77389 0.46347 0.0
N445 N 0.46703 0.77909 0.49309 0.0
C446 C 0.47252 0.77857 0.45978 0.0
C447 C 0.49514 0.77176 0.48217 0.0
C448 C 0.46132 0.78116 0.47496 0.0
C449 C 0.48355 0.7745 0.49697 0.0
C450 C 0.524 0.80699 0.40844 0.0
C451 C 0.53053 0.8172 0.378 0.0
N452 N 0.52771 0.83549 0.38543 0.0
C453 C 0.52104 0.82583 0.41573 0.0
C454 C 0.52865 0.80255 0.38939 0.0
C455 C 0.52301 0.84005 0.40388 0.0
C456 C 0.54354 0.83289 0.46338 0.0
N457 N 0.52743 0.81971 0.46448 0.0
C458 C 0.51576 0.84608 0.48288 0.0
C459 C 0.5138 0.82593 0.47439 0.0
C460 C 0.53185 0.86028 0.48111 0.0
C461 C 0.54604 0.85319 0.47158 0.0
H462 H 0.55415 0.82781 0.45524 0.0
H463 H 0.50102 0.81546 0.4751 0.0
C464 C 0.46562 0.75177 0.39433 0.0
N465 N 0.47828 0.76882 0.40254 0.0
C466 C 0.44966 0.75234 0.3826 0.0
C467 C 0.45977 0.78788 0.38776 0.0
C468 C 0.47533 0.78667 0.39952 0.0
C469 C 0.44649 0.7706 0.3789 0.0
H470 H 0.46785 0.73761 0.39679 0.0
H471 H 0.48507 0.8002 0.40633 0.0
C472 C 0.55725 0.78148 0.46381 0.0
N473 N 0.58556 0.78889 0.49313 0.0
C474 C 0.5748 0.77892 0.45939 0.0
C475 C 0.55409 0.78791 0.48309 0.0
C476 C 0.58892 0.78269 0.47444 0.0
C477 C 0.5686 0.79158 0.49772 0.0
C478 C 0.51831 0.73195 0.40275 0.0
C479 C 0.52629 0.71732 0.4086 0.0
C480 C 0.5115 0.72973 0.38335 0.0
C481 C 0.52737 0.70066 0.39487 0.0
C482 C 0.51286 0.71286 0.37005 0.0
N483 N 0.52068 0.69879 0.37604 0.0
C484 C 0.50756 0.71668 0.45931 0.0
C485 C 0.53909 0.73179 0.46805 0.0
C486 C 0.50965 0.7 0.46727 0.0
N487 N 0.52224 0.73222 0.45959 0.0
C488 C 0.54173 0.71556 0.47629 0.0
C489 C 0.52703 0.69904 0.4758 0.0
H490 H 0.49425 0.71692 0.45244 0.0
H491 H 0.55084 0.74374 0.4679 0.0
C492 C 0.56999 0.79228 0.40463 0.0
N493 N 0.55997 0.77398 0.40602 0.0
C494 C 0.58624 0.79433 0.39507 0.0
C495 C 0.58223 0.75874 0.38898 0.0
C496 C 0.56595 0.75735 0.39855 0.0
C497 C 0.59266 0.77744 0.38694 0.0
H498 H 0.56543 0.80541 0.4111 0.0
H499 H 0.55819 0.74293 0.4001 0.0
O500 O 0.50052 0.77092 0.4487 0.0
O501 O 0.52265 0.79305 0.41999 0.0
O502 O 0.54316 0.77731 0.44933 0.0
O503 O 0.51662 0.74806 0.41607 0.0
H504 H 0.46799 0.78014 0.44532 0.0
H505 H 0.50824 0.76795 0.48518 0.0
H506 H 0.44808 0.78477 0.47233 0.0
H507 H 0.48767 0.77291 0.51153 0.0
H508 H 0.53426 0.81403 0.36327 0.0
H509 H 0.51711 0.82942 0.43032 0.0
H510 H 0.53092 0.78799 0.38352 0.0
H511 H 0.52078 0.85471 0.40935 0.0
H512 H 0.50452 0.85054 0.49037 0.0
H513 H 0.55863 0.86336 0.46955 0.0
H514 H 0.44007 0.73849 0.37619 0.0
H515 H 0.45806 0.80242 0.38593 0.0
H516 H 0.57742 0.77384 0.44453 0.0
H517 H 0.54058 0.78998 0.48672 0.0
H518 H 0.60254 0.78065 0.47126 0.0
H519 H 0.56637 0.79653 0.51272 0.0
H520 H 0.53166 0.71882 0.42355 0.0
H521 H 0.50518 0.74089 0.37866 0.0
H522 H 0.5335 0.68921 0.39918 0.0
H523 H 0.50764 0.71091 0.35497 0.0
H524 H 0.49772 0.68788 0.46658 0.0
H525 H 0.55549 0.71566 0.48228 0.0
H526 H 0.59386 0.80912 0.39431 0.0
H527 H 0.58644 0.74523 0.38296 0.0
Li528 Li 0.58897 0.32981 0.59708 0.0
Li529 Li 0.60744 0.31546 0.62263 0.0
Li530 Li 0.5854 0.29189 0.59354 0.0
Li531 Li 0.57114 0.31092 0.62162 0.0
C532 C 0.62028 0.31502 0.5793 0.0
N533 N 0.64435 0.31809 0.55076 0.0
C534 C 0.63907 0.32356 0.58437 0.0
C535 C 0.61372 0.30796 0.55974 0.0
C536 C 0.65102 0.32499 0.56972 0.0
C537 C 0.62611 0.3097 0.54551 0.0
C538 C 0.59411 0.35326 0.63974 0.0
C539 C 0.59114 0.37108 0.67166 0.0
N540 N 0.59813 0.38854 0.66599 0.0
C541 C 0.60136 0.37136 0.63425 0.0
C542 C 0.58902 0.35306 0.6586 0.0
C543 C 0.60325 0.38905 0.64772 0.0
C544 C 0.57108 0.3589 0.58576 0.0
N545 N 0.58717 0.3527 0.58382 0.0
C546 C 0.59771 0.37856 0.56555 0.0
C547 C 0.60043 0.36224 0.57386 0.0
C548 C 0.58114 0.38534 0.56735 0.0
C549 C 0.56782 0.37504 0.57776 0.0
H550 H 0.56069 0.35137 0.59378 0.0
H551 H 0.61321 0.35731 0.57238 0.0
C552 C 0.63871 0.30043 0.63502 0.0
N553 N 0.631 0.31653 0.63899 0.0
C554 C 0.65487 0.29934 0.64589 0.0
C555 C 0.65536 0.3315 0.66493 0.0
C556 C 0.63911 0.33197 0.65371 0.0
C557 C 0.66366 0.31497 0.66127 0.0
H558 H 0.63216 0.28818 0.62343 0.0
H559 H 0.63297 0.34472 0.65685 0.0
C560 C 0.55232 0.30338 0.57802 0.0
N561 N 0.52451 0.29477 0.54801 0.0
C562 C 0.53406 0.29567 0.58128 0.0
C563 C 0.55646 0.30679 0.55954 0.0
C564 C 0.52019 0.29139 0.56591 0.0
C565 C 0.5422 0.30231 0.54454 0.0
C566 C 0.58358 0.27743 0.63352 0.0
C567 C 0.57348 0.25816 0.62572 0.0
C568 C 0.59005 0.28252 0.65321 0.0
C569 C 0.56998 0.24424 0.63784 0.0
C570 C 0.58625 0.26817 0.66485 0.0
N571 N 0.57638 0.24949 0.65699 0.0
C572 C 0.59732 0.25677 0.57674 0.0
C573 C 0.56552 0.25438 0.56883 0.0
C574 C 0.59546 0.2366 0.56837 0.0
N575 N 0.58242 0.26522 0.57718 0.0
C576 C 0.56303 0.23413 0.56037 0.0
C577 C 0.57802 0.22471 0.56043 0.0
H578 H 0.61058 0.26547 0.58372 0.0
H579 H 0.55373 0.26114 0.5695 0.0
C580 C 0.54227 0.32617 0.64182 0.0
N581 N 0.54891 0.30952 0.63645 0.0
C582 C 0.52597 0.3254 0.65134 0.0
C583 C 0.52328 0.29032 0.64956 0.0
C584 C 0.53961 0.29176 0.64009 0.0
C585 C 0.51606 0.30727 0.65541 0.0
H586 H 0.5495 0.34012 0.63849 0.0
H587 H 0.54471 0.27853 0.63545 0.0
O588 O 0.6085 0.31318 0.59349 0.0
O589 O 0.5915 0.33587 0.62654 0.0
O590 O 0.56599 0.30792 0.59298 0.0
O591 O 0.5873 0.29119 0.62187 0.0
H592 H 0.64435 0.32896 0.59949 0.0
H593 H 0.59925 0.30109 0.55562 0.0
H594 H 0.6656 0.33155 0.57342 0.0
H595 H 0.62125 0.3043 0.53031 0.0
H596 H 0.58718 0.37118 0.68629 0.0
H597 H 0.60542 0.37175 0.61971 0.0
H598 H 0.58336 0.33914 0.66303 0.0
H599 H 0.60875 0.40318 0.64365 0.0
H600 H 0.60849 0.38562 0.55763 0.0
H601 H 0.55499 0.37961 0.58018 0.0
H602 H 0.66015 0.28603 0.64241 0.0
H603 H 0.66142 0.34419 0.67628 0.0
H604 H 0.53064 0.29305 0.59555 0.0
H605 H 0.5705 0.31296 0.55685 0.0
H606 H 0.50599 0.28542 0.56821 0.0
H607 H 0.54518 0.30487 0.53016 0.0
H608 H 0.56831 0.25401 0.61053 0.0
H609 H 0.59791 0.29739 0.65942 0.0
H610 H 0.56216 0.22928 0.63202 0.0
H611 H 0.59116 0.27188 0.68014 0.0
H612 H 0.60743 0.23016 0.56907 0.0
H613 H 0.54934 0.22581 0.55426 0.0
H614 H 0.52103 0.3389 0.6551 0.0
H615 H 0.5165 0.27598 0.65242 0.0
Li616 Li 0.02362 0.29261 0.94862 0.0
Li617 Li 1.0022 0.26945 0.91977 0.0
Li618 Li 0.02122 0.25498 0.94589 0.0
Li619 Li 0.0384 0.27298 0.921 0.0
C620 C 0.98988 0.27355 0.96355 0.0
N621 N 0.96718 0.27877 0.99303 0.0
C622 C 0.97259 0.27761 0.95963 0.0
C623 C 0.9956 0.27202 0.98241 0.0
C624 C 0.96133 0.28024 0.97475 0.0
C625 C 0.98392 0.27475 0.99714 0.0
C626 C 0.02445 0.30687 0.90857 0.0
C627 C 0.03036 0.31626 0.87767 0.0
N628 N 0.0284 0.33492 0.88505 0.0
C629 C 0.02245 0.32612 0.91584 0.0
C630 C 0.02836 0.30184 0.88932 0.0
C631 C 0.02449 0.34008 0.90372 0.0
C632 C 0.04322 0.33184 0.96937 0.0
N633 N 0.02623 0.31927 0.96475 0.0
C634 C 0.01173 0.34616 0.9762 0.0
C635 C 0.01065 0.32602 0.96849 0.0
C636 C 0.02901 0.35972 0.98024 0.0
C637 C 0.04493 0.35211 0.9773 0.0
H638 H 0.05546 0.32638 0.96596 0.0
H639 H 0.99725 0.31606 0.96439 0.0
C640 C 0.96627 0.25157 0.89444 0.0
N641 N 0.97867 0.26861 0.90317 0.0
C642 C 0.9501 0.25224 0.88314 0.0
C643 C 0.95942 0.2879 0.88993 0.0
C644 C 0.97527 0.28656 0.90114 0.0
C645 C 0.94638 0.27063 0.8805 0.0
H646 H 0.96888 0.23733 0.89616 0.0
H647 H 0.98486 0.30006 0.90837 0.0
C648 C 0.05769 0.28143 0.96426 0.0
N649 N 0.08589 0.28817 0.99358 0.0
C650 C 0.07514 0.27855 0.95983 0.0
C651 C 0.05457 0.28782 0.98357 0.0
C652 C 0.08921 0.28199 0.97487 0.0
C653 C 0.06902 0.29115 0.99819 0.0
C654 C 0.01879 0.23199 0.90297 0.0
C655 C 0.02678 0.21732 0.90873 0.0
C656 C 0.01165 0.22968 0.88367 0.0
C657 C 0.0275 0.20052 0.89501 0.0
C658 C 0.01267 0.21267 0.87038 0.0
N659 N 0.02049 0.19856 0.87628 0.0
C660 C 0.00806 0.21646 0.95853 0.0
C661 C 0.03923 0.23202 0.96894 0.0
C662 C 0.00995 0.19967 0.96639 0.0
N663 N 0.02268 0.23226 0.95967 0.0
C664 C 0.04167 0.21567 0.97708 0.0
C665 C 0.02706 0.19887 0.97567 0.0
H666 H 0.995 0.21658 0.95105 0.0
H667 H 0.05093 0.24421 0.96952 0.0
C668 C 0.07087 0.29266 0.90495 0.0
N669 N 0.06065 0.27438 0.90616 0.0
C670 C 0.08707 0.29463 0.89526 0.0
C671 C 0.08253 0.259 0.88849 0.0
C672 C 0.06635 0.25769 0.89826 0.0
C673 C 0.09321 0.27768 0.88669 0.0
H674 H 0.0665 0.30583 0.91166 0.0
H675 H 0.05842 0.24326 0.89958 0.0
O676 O 1.00089 0.27053 0.94883 0.0
O677 O 0.02294 0.29313 0.92035 0.0
O678 O 0.04366 0.27767 0.94975 0.0
O679 O 0.01742 0.24823 0.91629 0.0
H680 H 0.96794 0.2787 0.94505 0.0
H681 H 0.00886 0.26865 0.9856 0.0
H682 H 0.94792 0.28341 0.97195 0.0
H683 H 0.98815 0.27361 0.01182 0.0
H684 H 0.0335 0.31262 0.86277 0.0
H685 H 0.01931 0.33027 0.93063 0.0
H686 H 0.02997 0.287 0.88351 0.0
H687 H 0.02298 0.35503 0.90916 0.0
H688 H 0.99907 0.35122 0.97836 0.0
H689 H 0.05855 0.36194 0.98 0.0
H690 H 0.94077 0.23839 0.87626 0.0
H691 H 0.95733 0.30252 0.88899 0.0
H692 H 0.07773 0.27352 0.94494 0.0
H693 H 0.04113 0.29014 0.98721 0.0
H694 H 0.10276 0.27972 0.97168 0.0
H695 H 0.06683 0.29608 0.01321 0.0
H696 H 0.0324 0.2189 0.92361 0.0
H697 H 0.00533 0.24088 0.87906 0.0
H698 H 0.03363 0.18904 0.89925 0.0
H699 H 0.00719 0.21066 0.85538 0.0
H700 H 0.9981 0.18733 0.965 0.0
H701 H 0.05523 0.21592 0.9837 0.0
H702 H 0.09485 0.30942 0.89473 0.0
H703 H 0.08645 0.24542 0.88214 0.0
Li704 Li 0.42642 0.03932 0.31673 0.0
Li705 Li 0.39842 0.02265 0.29587 0.0
Li706 Li 0.42493 0.04076 0.28281 0.0
Li707 Li 0.40545 0.05799 0.30385 0.0
C708 C 0.43532 1.00484 0.29514 0.0
N709 N 0.45981 0.9804 0.29669 0.0
C710 C 0.42882 0.98488 0.29626 0.0
C711 C 0.45426 0.01238 0.29479 0.0
C712 C 0.44143 0.97276 0.29703 0.0
C713 C 0.46642 0.99978 0.2956 0.0
C714 C 0.3884 0.04008 0.33523 0.0
C715 C 0.35805 0.04274 0.34413 0.0
N716 N 0.36273 0.03985 0.36225 0.0
C717 C 0.39296 0.03722 0.35394 0.0
C718 C 0.37084 0.0429 0.33024 0.0
C719 C 0.37977 0.03713 0.3674 0.0
C720 C 0.44671 0.05962 0.34922 0.0
N721 N 0.44196 0.04097 0.33834 0.0
C722 C 0.46232 0.02949 0.35847 0.0
C723 C 0.44898 0.0258 0.34283 0.0
C724 C 0.46788 0.04879 0.36952 0.0
C725 C 0.45975 0.06391 0.36512 0.0
H726 H 0.44058 0.07121 0.34524 0.0
H727 H 0.44448 0.011 0.33422 0.0
C728 C 0.37575 0.9899 0.27257 0.0
N729 N 0.37918 1.00043 0.29105 0.0
C730 C 0.36219 0.97248 0.26824 0.0
C731 C 0.35633 0.97679 0.30221 0.0
C732 C 0.36974 0.9944 0.30578 0.0
C733 C 0.35293 0.96537 0.28336 0.0
H734 H 0.38407 0.99459 0.26137 0.0
H735 H 0.37332 1.00253 0.32048 0.0
C736 C 0.44716 0.07808 0.30413 0.0
N737 N 0.47689 0.10885 0.3027 0.0
C738 C 0.44423 0.09615 0.30036 0.0
C739 C 0.46518 0.07569 0.30735 0.0
C740 C 0.45945 0.11152 0.29963 0.0
C741 C 0.48004 0.09142 0.30652 0.0
C742 C 0.38572 0.03396 0.26238 0.0
C743 C 0.39087 0.02829 0.24369 0.0
C744 C 0.367 0.03199 0.26524 0.0
C745 C 0.37717 0.02048 0.22822 0.0
C746 C 0.35372 0.02398 0.2494 0.0
N747 N 0.35904 0.01846 0.23137 0.0
C748 C 0.44291 0.02537 0.25219 0.0
C749 C 0.44296 0.05971 0.25567 0.0
C750 C 0.45313 0.02622 0.23626 0.0
N751 N 0.43846 0.04209 0.26169 0.0
C752 C 0.45312 0.06125 0.23976 0.0
C753 C 0.45843 0.04439 0.23008 0.0
H754 H 0.43836 0.01138 0.25684 0.0
H755 H 0.4385 0.07248 0.26312 0.0
C756 C 0.39452 0.09002 0.32662 0.0
N757 N 0.3951 0.07957 0.30849 0.0
C758 C 0.38471 0.10504 0.32907 0.0
C759 C 0.37695 0.09813 0.29411 0.0
C760 C 0.3869 0.08348 0.29236 0.0
C761 C 0.37566 0.10882 0.31261 0.0
H762 H 0.40127 0.08635 0.33909 0.0
H763 H 0.38782 0.07497 0.27819 0.0
O764 O 0.42308 0.0168 0.29421 0.0
O765 O 0.40096 0.03941 0.32175 0.0
O766 O 0.43239 0.0631 0.30537 0.0
O767 O 0.39896 0.04174 0.27769 0.0
H768 H 0.41419 0.97882 0.29649 0.0
H769 H 0.45948 0.02777 0.29385 0.0
H770 H 0.43661 0.95728 0.29788 0.0
H771 H 0.48111 1.00541 0.29534 0.0
H772 H 0.34436 0.04482 0.34048 0.0
H773 H 0.40648 0.03488 0.35795 0.0
H774 H 0.36709 0.04501 0.31577 0.0
H775 H 0.38306 0.03481 0.38191 0.0
H776 H 0.46821 0.0175 0.36192 0.0
H777 H 0.46378 0.0789 0.37357 0.0
H778 H 0.35999 0.96387 0.25355 0.0
H779 H 0.34986 0.9714 0.31431 0.0
H780 H 0.43034 0.09828 0.29798 0.0
H781 H 0.46768 0.06191 0.31063 0.0
H782 H 0.45739 0.12557 0.29667 0.0
H783 H 0.49408 0.08981 0.30899 0.0
H784 H 0.40526 0.02987 0.24111 0.0
H785 H 0.36279 0.03638 0.27958 0.0
H786 H 0.38097 0.01602 0.2137 0.0
H787 H 0.33917 0.02217 0.25143 0.0
H788 H 0.45666 0.01283 0.22872 0.0
H789 H 0.45692 0.07542 0.23517 0.0
H790 H 0.38388 0.11326 0.34346 0.0
H791 H 0.37009 0.10095 0.2812 0.0
Li792 Li 0.30139 0.21293 0.52878 0.0
Li793 Li 0.31413 0.18563 0.50828 0.0
Li794 Li 0.30125 0.21028 0.49245 0.0
Li795 Li 0.27899 0.18313 0.50522 0.0
C796 C 0.33803 0.23014 0.51373 0.0
N797 N 0.36912 0.26024 0.51513 0.0
C798 C 0.35561 0.22683 0.51778 0.0
C799 C 0.33624 0.24879 0.51054 0.0
C800 C 0.37116 0.24223 0.51838 0.0
C801 C 0.35214 0.26382 0.51128 0.0
C802 C 0.2965 0.17205 0.54202 0.0
C803 C 0.28769 0.14047 0.55204 0.0
N804 N 0.29826 0.14827 0.5692 0.0
C805 C 0.30728 0.17978 0.55974 0.0
C806 C 0.28659 0.15226 0.53811 0.0
C807 C 0.30798 0.16751 0.57331 0.0
C808 C 0.28741 0.22863 0.5635 0.0
N809 N 0.30329 0.22929 0.5546 0.0
C810 C 0.32091 0.24921 0.58373 0.0
C811 C 0.31986 0.23956 0.56422 0.0
C812 C 0.30476 0.24832 0.59353 0.0
C813 C 0.28782 0.23808 0.58293 0.0
H814 H 0.27443 0.22017 0.55567 0.0
H815 H 0.33236 0.23977 0.55696 0.0
C816 C 0.34724 0.17465 0.49583 0.0
N817 N 0.33358 0.17101 0.5078 0.0
C818 C 0.36253 0.16593 0.4967 0.0
C819 C 0.34899 0.14913 0.52146 0.0
C820 C 0.33408 0.15816 0.52014 0.0
C821 C 0.36375 0.1533 0.51002 0.0
H822 H 0.34657 0.18487 0.48606 0.0
H823 H 0.32311 0.15507 0.52929 0.0
C824 C 0.27055 0.22648 0.50766 0.0
N825 N 0.25061 0.25477 0.50365 0.0
C826 C 0.25249 0.2207 0.49868 0.0
C827 C 0.27846 0.2466 0.51473 0.0
C828 C 0.24264 0.23524 0.49677 0.0
C829 C 0.26814 0.2607 0.51251 0.0
C830 C 0.29553 0.16761 0.46761 0.0
C831 C 0.2911 0.17286 0.44991 0.0
C832 C 0.29947 0.14902 0.46775 0.0
C833 C 0.2908 0.15943 0.43258 0.0
C834 C 0.29901 0.13598 0.4501 0.0
N835 N 0.29475 0.14142 0.43303 0.0
C836 C 0.32015 0.22431 0.46145 0.0
C837 C 0.29109 0.23265 0.46424 0.0
C838 C 0.32242 0.23245 0.4446 0.0
N839 N 0.30457 0.22434 0.47081 0.0
C840 C 0.29287 0.24112 0.4476 0.0
C841 C 0.30852 0.2408 0.43719 0.0
H842 H 0.33062 0.21742 0.46677 0.0
H843 H 0.27869 0.23235 0.47156 0.0
C844 C 0.2458 0.16511 0.51934 0.0
N845 N 0.25445 0.16538 0.50275 0.0
C846 C 0.22831 0.15266 0.5192 0.0
C847 C 0.22855 0.14105 0.48479 0.0
C848 C 0.24615 0.15372 0.4856 0.0
C849 C 0.21934 0.14022 0.5018 0.0
H850 H 0.25256 0.17458 0.53279 0.0
H851 H 0.2532 0.15414 0.47253 0.0
O852 O 0.32272 0.21502 0.51253 0.0
O853 O 0.29586 0.1837 0.52843 0.0
O854 O 0.28037 0.21244 0.50954 0.0
O855 O 0.29646 0.18081 0.48467 0.0
H856 H 0.35724 0.21255 0.52048 0.0
H857 H 0.32274 0.25157 0.50733 0.0
H858 H 0.38485 0.23985 0.52143 0.0
H859 H 0.35098 0.2783 0.50875 0.0
H860 H 0.28018 0.12509 0.54919 0.0
H861 H 0.31513 0.19503 0.5629 0.0
H862 H 0.27834 0.14602 0.52436 0.0
H863 H 0.31628 0.17326 0.58707 0.0
H864 H 0.33429 0.25702 0.59113 0.0
H865 H 0.27503 0.2366 0.58979 0.0
H866 H 0.37356 0.1696 0.48758 0.0
H867 H 0.349 0.13908 0.53154 0.0
H868 H 0.24622 0.20514 0.49319 0.0
H869 H 0.29239 0.25125 0.52182 0.0
H870 H 0.22867 0.23101 0.4898 0.0
H871 H 0.27407 0.27634 0.51785 0.0
H872 H 0.28792 0.18715 0.44954 0.0
H873 H 0.30293 0.14475 0.48134 0.0
H874 H 0.28746 0.16332 0.41877 0.0
H875 H 0.30209 0.12156 0.44996 0.0
H876 H 0.33466 0.23156 0.43712 0.0
H877 H 0.2819 0.2477 0.44289 0.0
H878 H 0.2218 0.153 0.53266 0.0
H879 H 0.22239 0.13173 0.47103 0.0
Li880 Li 0.18609 0.03444 0.77139 0.0
Li881 Li 0.1586 0.01198 0.78756 0.0
Li882 Li 0.183 0.99312 0.76696 0.0
Li883 Li 0.15752 0.00978 0.74796 0.0
C884 C 0.19897 0.01952 0.80758 0.0
N885 N 0.22287 0.02577 0.8407 0.0
C886 C 0.1943 0.02854 0.82543 0.0
C887 C 0.2158 0.01372 0.80651 0.0
C888 C 0.20656 0.03154 0.84204 0.0
C889 C 0.22772 0.01704 0.82343 0.0
C890 C 0.14568 0.04427 0.7725 0.0
C891 C 0.11407 0.04739 0.76889 0.0
N892 N 0.11967 0.0672 0.77632 0.0
C893 C 0.15115 0.06464 0.78008 0.0
C894 C 0.12701 0.03554 0.76684 0.0
C895 C 0.13778 0.07599 0.78191 0.0
C896 C 0.20039 0.07241 0.75743 0.0
N897 N 0.20219 0.06338 0.77299 0.0
C898 C 0.22322 0.09414 0.78983 0.0
C899 C 0.21349 0.07411 0.78906 0.0
C900 C 0.2216 0.10399 0.77399 0.0
C901 C 0.20984 0.09236 0.75761 0.0
H902 H 0.19139 0.06417 0.74468 0.0
H903 H 0.21487 0.0673 0.8016 0.0
C904 C 0.13636 0.99625 0.82015 0.0
N905 N 0.14387 0.01296 0.8131 0.0
C906 C 0.12749 0.9973 0.8378 0.0
C907 C 0.13381 0.03265 0.84125 0.0
C908 C 0.14239 0.03095 0.82349 0.0
C909 C 0.12614 0.01574 0.84914 0.0
H910 H 0.13737 0.98187 0.81224 0.0
H911 H 0.14817 0.04434 0.81821 0.0
C912 C 0.19572 0.01044 0.73172 0.0
N913 N 0.21609 1.00584 0.70013 0.0
C914 C 0.18731 0.99879 0.71396 0.0
C915 C 0.21448 0.01971 0.73348 0.0
C916 C 0.19783 0.9967 0.69813 0.0
C917 C 0.22456 0.01717 0.71733 0.0
C918 C 0.13982 0.97103 0.76191 0.0
C919 C 0.14299 0.95217 0.75511 0.0
C920 C 0.12207 0.97302 0.76607 0.0
C921 C 0.12826 0.93555 0.75254 0.0
C922 C 0.10769 0.95603 0.76328 0.0
N923 N 0.11106 0.93781 0.75663 0.0
C924 C 0.19429 0.95613 0.77955 0.0
C925 C 0.21081 0.96547 0.75398 0.0
C926 C 0.20364 0.94025 0.78015 0.0
N927 N 0.19777 0.96878 0.7666 0.0
C928 C 0.2205 0.94975 0.75414 0.0
C929 C 0.21727 0.93639 0.76738 0.0
H930 H 0.18416 0.95828 0.78976 0.0
H931 H 0.21393 0.97507 0.74352 0.0
C932 C 0.14125 0.02968 0.7183 0.0
N933 N 0.14227 0.0112 0.72158 0.0
C934 C 0.13226 0.03246 0.70084 0.0
C935 C 0.12515 0.99728 0.68958 0.0
C936 C 0.13414 0.99511 0.70737 0.0
C937 C 0.124 0.01624 0.6857 0.0
H938 H 0.14771 0.04262 0.7292 0.0
H939 H 0.13476 0.98037 0.70958 0.0
O940 O 0.18688 0.01577 0.79131 0.0
O941 O 0.15855 0.03293 0.77045 0.0
O942 O 0.18562 0.01276 0.74732 0.0
O943 O 0.15416 0.9874 0.76484 0.0
H944 H 0.18133 0.03311 0.82648 0.0
H945 H 0.21955 0.00664 0.79276 0.0
H946 H 0.20309 0.03842 0.85599 0.0
H947 H 0.24078 0.01261 0.82286 0.0
H948 H 0.09957 0.04086 0.76454 0.0
H949 H 0.16557 0.07159 0.78449 0.0
H950 H 0.12261 0.0198 0.7608 0.0
H951 H 0.14179 0.09178 0.78775 0.0
H952 H 0.23168 0.10193 0.80307 0.0
H953 H 0.20793 0.09848 0.74472 0.0
H954 H 0.12213 0.98359 0.84273 0.0
H955 H 0.13313 0.04734 0.84867 0.0
H956 H 0.17282 0.99143 0.71244 0.0
H957 H 0.22117 0.02873 0.74718 0.0
H958 H 0.1915 0.98779 0.68426 0.0
H959 H 0.2391 0.02422 0.71846 0.0
H960 H 0.15669 0.9504 0.75192 0.0
H961 H 0.11944 0.9875 0.77153 0.0
H962 H 0.13049 0.92085 0.74731 0.0
H963 H 0.09387 0.95732 0.76646 0.0
H964 H 0.2002 0.93123 0.79101 0.0
H965 H 0.23042 0.94808 0.7436 0.0
H966 H 0.13228 0.0475 0.69912 0.0
H967 H 0.11902 0.98398 0.67896 0.0
Li968 Li 0.31093 0.94827 0.01734 0.0
Li969 Li 0.32575 0.92686 0.03473 0.0
Li970 Li 0.34411 0.95543 0.02399 0.0
Li971 Li 0.32966 0.92538 1.00081 0.0
C972 C 0.33115 0.9697 0.05892 0.0
N973 N 0.34409 0.99954 0.09102 0.0
C974 C 0.33554 0.96493 0.07687 0.0
C975 C 0.33312 0.98962 0.05733 0.0
C976 C 0.3421 0.98024 0.09292 0.0
C977 C 0.33977 1.00449 0.07372 0.0
C978 C 0.29259 0.90285 0.01362 0.0
C979 C 0.28151 0.86742 0.01027 0.0
N980 N 0.26456 0.87026 0.01469 0.0
C981 C 0.27505 0.90543 0.01805 0.0
C982 C 0.29586 0.88371 0.00961 0.0
C983 C 0.26107 0.88876 0.01856 0.0
C984 C 0.28038 0.95692 0.99824 0.0
N985 N 0.29063 0.95924 0.01544 0.0
C986 C 0.27169 0.97867 0.03211 0.0
C987 C 0.28655 0.96964 0.03222 0.0
C988 C 0.26086 0.97662 0.01461 0.0
C989 C 0.26511 0.96548 0.9975 0.0
H990 H 0.28408 0.94844 0.9852 0.0
H991 H 0.29478 0.97086 0.0457 0.0
C992 C 0.33873 0.90742 0.0615 0.0
N993 N 0.32331 0.91205 0.05413 0.0
C994 C 0.33756 0.89612 0.07595 0.0
C995 C 0.30476 0.89524 0.07536 0.0
C996 C 0.30659 0.90655 0.06087 0.0
C997 C 0.32038 0.88983 0.0829 0.0
H998 H 0.35195 0.91269 0.0563 0.0
H999 H 0.29474 0.91106 0.0551 0.0
C1000 C 0.33301 0.9655 0.98608 0.0
N1001 N 0.34172 0.99145 0.96083 0.0
C1002 C 0.34039 0.95944 0.9687 0.0
C1003 C 0.32992 0.98468 0.99057 0.0
C1004 C 0.34472 0.97279 0.95614 0.0
C1005 C 0.33446 0.99761 0.97762 0.0
C1006 C 0.36097 0.91674 0.01794 0.0
C1007 C 0.37927 0.92494 0.01518 0.0
C1008 C 0.35503 0.89616 0.01622 0.0
C1009 C 0.39131 0.91234 0.01057 0.0
C1010 C 0.36749 0.88407 0.01159 0.0
N1011 N 0.38522 0.89235 0.00888 0.0
C1012 C 0.37383 0.98098 0.04858 0.0
C1013 C 0.3728 0.98416 0.01549 0.0
C1014 C 0.39057 0.99491 0.05277 0.0
N1015 N 0.36534 0.97594 0.03018 0.0
C1016 C 0.38959 0.9978 0.01889 0.0
C1017 C 0.39903 1.00281 0.03759 0.0
H1018 H 0.36819 0.97345 0.0598 0.0
H1019 H 0.36654 0.97912 1.00082 0.0
C1020 C 0.31369 0.8992 0.96805 0.0
N1021 N 0.33051 0.90834 0.97754 0.0
C1022 C 0.31234 0.88572 0.95074 0.0
C1023 C 0.34577 0.89162 0.95307 0.0
C1024 C 0.34646 0.90511 0.97037 0.0
C1025 C 0.32852 0.88183 0.94311 0.0
H1026 H 0.3013 0.90243 0.97395 0.0
H1027 H 0.35966 0.91311 0.9779 0.0
O1028 O 0.32484 0.9549 0.04303 0.0
O1029 O 0.30625 0.91897 0.01249 0.0
O1030 O 0.32945 0.95286 0.99888 0.0
O1031 O 0.34905 0.92889 0.02261 0.0
H1032 H 0.33401 0.9496 0.07837 0.0
H1033 H 0.32976 0.99353 0.04352 0.0
H1034 H 0.34565 0.97678 0.10688 0.0
H1035 H 0.34153 0.01998 0.07269 0.0
H1036 H 0.28383 0.85251 0.00718 0.0
H1037 H 0.27228 0.92016 0.02104 0.0
H1038 H 0.30927 0.88146 0.00586 0.0
H1039 H 0.24743 0.89053 0.02199 0.0
H1040 H 0.26855 0.98697 0.04558 0.0
H1041 H 0.25693 0.96371 0.9838 0.0
H1042 H 0.34997 0.89265 0.08186 0.0
H1043 H 0.29135 0.89072 0.08056 0.0
H1044 H 0.34297 0.94469 0.96507 0.0
H1045 H 0.32432 0.9896 0.00403 0.0
H1046 H 0.35054 0.96835 0.9427 0.0
H1047 H 0.3323 0.01257 0.98095 0.0
H1048 H 0.38409 0.94086 0.01655 0.0
H1049 H 0.34097 0.88962 0.01848 0.0
H1050 H 0.40551 0.91846 0.00835 0.0
H1051 H 0.36308 0.86812 0.01018 0.0
H1052 H 0.39747 0.99825 0.06735 0.0
H1053 H 0.39581 1.00279 0.0065 0.0
H1054 H 0.2988 0.87836 0.94343 0.0
H1055 H 0.35851 0.88918 0.94734 0.0
Li1056 Li 0.29372 0.39883 0.03414 0.0
Li1057 Li 0.30704 0.375 0.0493 0.0
Li1058 Li 0.32873 0.40269 0.03589 0.0
Li1059 Li 0.30711 0.37225 0.01314 0.0
C1060 C 0.3102 0.41787 0.07345 0.0
N1061 N 0.30707 0.44464 0.1064 0.0
C1062 C 0.30091 0.41122 0.0887 0.0
C1063 C 0.31791 0.43813 0.07496 0.0
C1064 C 0.29946 0.42499 0.10522 0.0
C1065 C 0.31617 0.45143 0.09174 0.0
C1066 C 0.27034 0.35497 0.02965 0.0
C1067 C 0.25461 0.32038 0.02415 0.0
N1068 N 0.23932 0.32571 0.03119 0.0
C1069 C 0.25441 0.36012 0.03668 0.0
C1070 C 0.27042 0.33497 0.0232 0.0
C1071 C 0.23889 0.34509 0.0374 0.0
C1072 C 0.26642 0.41408 0.01636 0.0
N1073 N 0.27378 0.41259 0.03405 0.0
C1074 C 0.25195 0.42925 0.04985 0.0
C1075 C 0.26666 0.41968 0.05066 0.0
C1076 C 0.24457 0.43162 0.03178 0.0
C1077 C 0.2519 0.42369 0.01489 0.0
H1078 H 0.27186 0.40779 1.00331 0.0
H1079 H 0.27229 0.41786 0.06455 0.0
C1080 C 0.32014 0.35938 0.08098 0.0
N1081 N 0.30462 0.36079 0.07067 0.0
C1082 C 0.31887 0.35155 0.09804 0.0
C1083 C 0.28566 0.34623 0.09332 0.0
C1084 C 0.28757 0.3542 0.07643 0.0
C1085 C 0.30145 0.34517 0.10464 0.0
H1086 H 0.33356 0.36493 0.07631 0.0
H1087 H 0.27543 0.35603 0.06854 0.0
C1088 C 0.31135 0.41462 1.00117 0.0
N1089 N 0.31141 0.44137 0.97663 0.0
C1090 C 0.31195 0.40854 0.9812 0.0
C1091 C 0.3109 0.4343 0.00873 0.0
C1092 C 0.31199 0.4223 0.96902 0.0
C1093 C 0.31085 0.44759 0.99605 0.0
C1094 C 0.33802 0.35911 0.03215 0.0
C1095 C 0.35717 0.36402 0.03155 0.0
C1096 C 0.32905 0.33952 0.03238 0.0
C1097 C 0.36709 0.34916 0.03115 0.0
C1098 C 0.33948 0.32509 0.032 0.0
N1099 N 0.35812 0.33016 0.03139 0.0
C1100 C 0.36348 0.4286 0.05502 0.0
C1101 C 0.35966 0.42495 0.02081 0.0
C1102 C 0.38126 0.44087 0.05571 0.0
N1103 N 0.35308 0.42082 0.03772 0.0
C1104 C 0.37726 0.43716 0.02083 0.0
C1105 C 0.38856 0.44525 0.03841 0.0
H1106 H 0.3581 0.42507 0.06832 0.0
H1107 H 0.35129 0.41859 0.00718 0.0
C1108 C 0.28876 0.35263 0.97605 0.0
N1109 N 0.3049 0.35589 0.98747 0.0
C1110 C 0.28738 0.34357 0.95639 0.0
C1111 C 0.319 0.34053 0.96071 0.0
C1112 C 0.31979 0.34972 0.98029 0.0
C1113 C 0.30279 0.3378 0.94826 0.0
H1114 H 0.27715 0.35781 0.98203 0.0
H1115 H 0.33257 0.3527 0.98952 0.0
O1116 O 0.31233 0.40455 0.05746 0.0
O1117 O 0.28566 0.36949 0.02889 0.0
O1118 O 0.31088 0.40121 0.01319 0.0
O1119 O 0.32819 0.37356 0.03275 0.0
H1120 H 0.29486 0.39563 0.0878 0.0
H1121 H 0.32525 0.44348 0.06333 0.0
H1122 H 0.29233 0.42004 0.11713 0.0
H1123 H 0.3221 0.46715 0.09314 0.0
H1124 H 0.25449 0.30483 0.01928 0.0
H1125 H 0.25409 0.37553 0.04168 0.0
H1126 H 0.28256 0.33076 0.0175 0.0
H1127 H 0.22652 0.34885 0.04292 0.0
H1128 H 0.24671 0.43512 0.06323 0.0
H1129 H 0.2464 0.42484 1.00063 0.0
H1130 H 0.33143 0.35084 0.10617 0.0
H1131 H 0.27197 0.34186 0.09794 0.0
H1132 H 0.31237 0.39336 0.97515 0.0
H1133 H 0.31036 0.43918 0.02417 0.0
H1134 H 0.31245 0.41781 0.95352 0.0
H1135 H 0.31035 0.46285 1.00163 0.0
H1136 H 0.36427 0.37917 0.03141 0.0
H1137 H 0.31424 0.33556 0.03299 0.0
H1138 H 0.38193 0.35272 0.03067 0.0
H1139 H 0.33276 0.30986 0.03224 0.0
H1140 H 0.38934 0.44645 0.06963 0.0
H1141 H 0.38191 0.44025 0.0071 0.0
H1142 H 0.27449 0.34157 0.94754 0.0
H1143 H 0.33131 0.3366 0.95518 0.0
Li1144 Li 0.77963 0.15885 0.04472 0.0
Li1145 Li 0.79877 0.13699 0.02741 0.0
Li1146 Li 0.78357 0.15883 0.01167 0.0
Li1147 Li 0.76552 0.12913 0.02065 0.0
C1148 C 0.81677 0.18237 0.03193 0.0
N1149 N 0.84449 0.21522 0.03062 0.0
C1150 C 0.83518 0.18075 0.0319 0.0
C1151 C 0.81248 0.20075 0.03144 0.0
C1152 C 0.849 0.19751 0.03122 0.0
C1153 C 0.82667 0.21715 0.03068 0.0
C1154 C 0.77592 0.11825 0.05802 0.0
C1155 C 0.76833 0.08488 0.06426 0.0
N1156 N 0.76676 0.09232 0.08322 0.0
C1157 C 0.77429 0.12556 0.07757 0.0
C1158 C 0.77306 0.09776 0.0513 0.0
C1159 C 0.76968 0.11222 0.09008 0.0
C1160 C 0.76194 0.17665 0.0753 0.0
N1161 N 0.77822 0.17503 0.06797 0.0
C1162 C 0.79544 0.19923 0.09414 0.0
C1163 C 0.79476 0.18576 0.077 0.0
C1164 C 0.77889 0.20153 0.10187 0.0
C1165 C 0.76195 0.19021 0.09238 0.0
H1166 H 0.74905 0.16757 0.06784 0.0
H1167 H 0.80743 0.18384 0.07087 0.0
C1168 C 0.82931 0.12708 0.01284 0.0
N1169 N 0.81888 0.12592 0.02806 0.0
C1170 C 0.84453 0.11854 0.01189 0.0
C1171 C 0.83746 0.10734 0.04203 0.0
C1172 C 0.82252 0.11638 0.04255 0.0
C1173 C 0.84857 0.10857 0.02661 0.0
H1174 H 0.82573 0.13464 1.0015 0.0
H1175 H 0.81378 0.11569 0.05434 0.0
C1176 C 0.74743 0.16723 0.02705 0.0
N1177 N 0.72192 0.19065 0.03328 0.0
C1178 C 0.72851 0.15859 0.02378 0.0
C1179 C 0.75336 0.18778 0.03354 0.0
C1180 C 0.71583 0.17069 0.02697 0.0
C1181 C 0.74026 0.19936 0.03664 0.0
C1182 C 0.78051 0.11822 0.98466 0.0
C1183 C 0.77165 0.12355 0.96896 0.0
C1184 C 0.78483 0.09956 0.98248 0.0
C1185 C 0.7671 0.10997 0.95135 0.0
C1186 C 0.77998 0.08637 0.96464 0.0
N1187 N 0.77129 0.0918 0.94958 0.0
C1188 C 0.80177 0.17441 0.98318 0.0
C1189 C 0.77264 0.18254 0.98779 0.0
C1190 C 0.80342 0.18332 0.96698 0.0
N1191 N 0.78641 0.17395 0.99286 0.0
C1192 C 0.77379 0.19175 0.97187 0.0
C1193 C 0.78902 0.19156 0.96093 0.0
H1194 H 0.81228 0.1671 0.98759 0.0
H1195 H 0.76043 0.18149 0.99549 0.0
C1196 C 0.73543 0.10645 0.03108 0.0
N1197 N 0.7451 0.10799 0.01538 0.0
C1198 C 0.71917 0.09218 0.02954 0.0
C1199 C 0.72303 0.08126 0.99558 0.0
C1200 C 0.73942 0.09566 0.99787 0.0
C1201 C 0.71258 0.0798 0.01147 0.0
H1202 H 0.73998 0.11694 0.04459 0.0
H1203 H 0.74694 0.09744 0.98543 0.0
O1204 O 0.80325 0.16626 0.03353 0.0
O1205 O 0.78013 0.13119 0.04558 0.0
O1206 O 0.75999 0.15559 0.02345 0.0
O1207 O 0.78483 0.13113 1.00211 0.0
H1208 H 0.83884 0.16679 0.03279 0.0
H1209 H 0.79837 0.20235 0.03163 0.0
H1210 H 0.86331 0.19647 0.03131 0.0
H1211 H 0.82353 0.23145 0.03023 0.0
H1212 H 0.76588 0.06897 0.05925 0.0
H1213 H 0.7766 0.14137 0.08305 0.0
H1214 H 0.77426 0.09188 0.0362 0.0
H1215 H 0.76839 0.11768 0.10525 0.0
H1216 H 0.80871 0.2078 0.10127 0.0
H1217 H 0.74901 0.1916 0.09828 0.0
H1218 H 0.85287 0.11942 0.99973 0.0
H1219 H 0.84035 0.09953 0.05345 0.0
H1220 H 0.72366 0.14273 0.01864 0.0
H1221 H 0.7679 0.19471 0.03622 0.0
H1222 H 0.70114 0.16422 0.02438 0.0
H1223 H 0.74468 0.21527 0.04169 0.0
H1224 H 0.76809 0.13788 0.97042 0.0
H1225 H 0.79164 0.09522 0.99452 0.0
H1226 H 0.76015 0.11382 0.93911 0.0
H1227 H 0.78307 0.0718 0.96278 0.0
H1228 H 0.81529 0.18286 0.95875 0.0
H1229 H 0.76256 0.19827 0.96771 0.0
H1230 H 0.7111 0.09199 0.04195 0.0
H1231 H 0.718 0.07224 0.98134 0.0
Li1232 Li 0.21034 0.56415 0.25014 0.0
Li1233 Li 0.18396 0.54464 0.26328 0.0
Li1234 Li 0.20472 0.52823 0.2422 0.0
Li1235 Li 0.18237 0.54515 0.22915 0.0
C1236 C 0.2224 0.54882 0.2843 0.0
N1237 N 0.24714 0.55729 0.31707 0.0
C1238 C 0.21772 0.55798 0.30212 0.0
C1239 C 0.23961 0.54388 0.28314 0.0
C1240 C 0.23042 0.56213 0.31853 0.0
C1241 C 0.25195 0.54834 0.29988 0.0
C1242 C 0.17303 0.58062 0.25115 0.0
C1243 C 0.14217 0.5861 0.24773 0.0
N1244 N 0.14924 0.60608 0.25192 0.0
C1245 C 0.18 0.60119 0.25534 0.0
C1246 C 0.15397 0.57299 0.2473 0.0
C1247 C 0.16774 0.61382 0.25571 0.0
C1248 C 0.23071 0.59729 0.23943 0.0
N1249 N 0.22935 0.58668 0.25391 0.0
C1250 C 0.25577 0.60874 0.27229 0.0
C1251 C 0.24152 0.59198 0.27007 0.0
C1252 C 0.25716 0.62036 0.25793 0.0
C1253 C 0.24463 0.61438 0.24115 0.0
H1254 H 0.22073 0.59263 0.22676 0.0
H1255 H 0.24008 0.58362 0.28152 0.0
C1256 C 0.16773 0.52512 0.29094 0.0
N1257 N 0.17013 0.54244 0.28428 0.0
C1258 C 0.15731 0.52253 0.30657 0.0
C1259 C 0.15214 0.55571 0.30802 0.0
C1260 C 0.16278 0.5577 0.29248 0.0
C1261 C 0.14933 0.53793 0.31517 0.0
H1262 H 0.17394 0.51336 0.28407 0.0
H1263 H 0.16531 0.57146 0.28712 0.0
C1264 C 0.22082 0.54797 0.21081 0.0
N1265 N 0.24605 0.55036 0.18335 0.0
C1266 C 0.21469 0.54419 0.19104 0.0
C1267 C 0.23976 0.55292 0.21665 0.0
C1268 C 0.22767 0.54542 0.17737 0.0
C1269 C 0.25231 0.55412 0.20252 0.0
C1270 C 0.16272 0.50635 0.2402 0.0
C1271 C 0.16469 0.4868 0.23474 0.0
C1272 C 0.14535 0.50994 0.24396 0.0
C1273 C 0.1492 0.47113 0.23308 0.0
C1274 C 0.13018 0.49387 0.24213 0.0
N1275 N 0.1324 0.47496 0.23677 0.0
C1276 C 0.2149 0.49731 0.25339 0.0
C1277 C 0.22327 0.50078 0.22172 0.0
C1278 C 0.22219 0.48062 0.25241 0.0
N1279 N 0.21554 0.50687 0.23819 0.0
C1280 C 0.23101 0.48419 0.2202 0.0
C1281 C 0.23023 0.4739 0.23563 0.0
H1282 H 0.20861 0.5027 0.26622 0.0
H1283 H 0.22336 0.5087 0.20982 0.0
C1284 C 0.16322 0.55941 0.20151 0.0
N1285 N 0.16654 0.54304 0.20756 0.0
C1286 C 0.15078 0.55719 0.18535 0.0
C1287 C 0.14599 0.5214 0.18191 0.0
C1288 C 0.15855 0.52432 0.19803 0.0
C1289 C 0.14199 0.53798 0.17552 0.0
H1290 H 0.17021 0.57409 0.20923 0.0
H1291 H 0.1621 0.51166 0.20282 0.0
O1292 O 0.21036 0.54509 0.26799 0.0
O1293 O 0.18491 0.56813 0.25101 0.0
O1294 O 0.20824 0.54706 0.22431 0.0
O1295 O 0.17775 0.52181 0.24153 0.0
H1296 H 0.20453 0.56207 0.30322 0.0
H1297 H 0.24348 0.53695 0.2694 0.0
H1298 H 0.22703 0.56929 0.3324 0.0
H1299 H 0.26537 0.54475 0.29919 0.0
H1300 H 0.12739 0.5804 0.24473 0.0
H1301 H 0.19473 0.60733 0.25839 0.0
H1302 H 0.14836 0.55714 0.24386 0.0
H1303 H 0.17294 0.62978 0.25901 0.0
H1304 H 0.26515 0.61301 0.28545 0.0
H1305 H 0.24498 0.6233 0.22997 0.0
H1306 H 0.15543 0.50867 0.31182 0.0
H1307 H 0.14651 0.56806 0.31463 0.0
H1308 H 0.20005 0.54033 0.18632 0.0
H1309 H 0.2447 0.55586 0.23191 0.0
H1310 H 0.22313 0.5425 0.16201 0.0
H1311 H 0.26702 0.55803 0.20681 0.0
H1312 H 0.17801 0.48376 0.23164 0.0
H1313 H 0.14359 0.52493 0.24832 0.0
H1314 H 0.15052 0.45593 0.22882 0.0
H1315 H 0.11665 0.49642 0.24497 0.0
H1316 H 0.2218 0.47317 0.26472 0.0
H1317 H 0.23732 0.47934 0.20718 0.0
H1318 H 0.14802 0.57027 0.18061 0.0
H1319 H 0.13978 0.5064 0.17428 0.0
Li1320 Li 0.79407 0.89861 0.53553 0.0
Li1321 Li 0.8076 0.87482 0.55071 0.0
Li1322 Li 0.82904 0.90244 0.53668 0.0
Li1323 Li 0.80686 0.87186 0.51401 0.0
C1324 C 0.81063 0.91736 0.57475 0.0
N1325 N 0.80655 0.94342 0.60781 0.0
C1326 C 0.8007 0.91029 0.58943 0.0
C1327 C 0.81851 0.93765 0.57688 0.0
C1328 C 0.7988 0.92371 0.60604 0.0
C1329 C 0.81626 0.9506 0.5937 0.0
C1330 C 0.77031 0.85508 0.53066 0.0
C1331 C 0.75344 0.82088 0.52289 0.0
N1332 N 0.7386 0.82631 0.53096 0.0
C1333 C 0.75489 0.86036 0.53883 0.0
C1334 C 0.7696 0.83522 0.52254 0.0
C1335 C 0.73899 0.84558 0.53884 0.0
C1336 C 0.76507 0.91098 0.51776 0.0
N1337 N 0.77405 0.91224 0.53549 0.0
C1338 C 0.75386 0.93153 0.55079 0.0
C1339 C 0.76855 0.92201 0.55192 0.0
C1340 C 0.74474 0.93102 0.53257 0.0
C1341 C 0.75041 0.92033 0.51595 0.0
H1342 H 0.76939 0.90274 0.50496 0.0
H1343 H 0.77552 0.92253 0.56594 0.0
C1344 C 0.82061 0.86509 0.58593 0.0
N1345 N 0.80569 0.86088 0.57253 0.0
C1346 C 0.81943 0.85752 0.60316 0.0
C1347 C 0.78774 0.84091 0.59238 0.0
C1348 C 0.78949 0.84887 0.57543 0.0
C1349 C 0.80275 0.84542 0.60672 0.0
H1350 H 0.8333 0.87482 0.58348 0.0
H1351 H 0.77764 0.84588 0.56497 0.0
C1352 C 0.81089 0.91444 0.5023 0.0
N1353 N 0.81048 0.94136 0.47801 0.0
C1354 C 0.8132 0.90911 0.48259 0.0
C1355 C 0.80859 0.93352 0.50974 0.0
C1356 C 0.81293 0.92293 0.47053 0.0
C1357 C 0.80833 0.94689 0.49718 0.0
C1358 C 0.83828 0.85897 0.53358 0.0
C1359 C 0.85734 0.8638 0.53235 0.0
C1360 C 0.82951 0.83964 0.535 0.0
C1361 C 0.86737 0.84908 0.53243 0.0
C1362 C 0.84004 0.82535 0.53508 0.0
N1363 N 0.85859 0.83032 0.53379 0.0
C1364 C 0.86517 0.92559 0.5551 0.0
C1365 C 0.85872 0.92799 0.52238 0.0
C1366 C 0.88291 0.93798 0.55583 0.0
N1367 N 0.85347 0.92072 0.53848 0.0
C1368 C 0.87621 0.94046 0.52251 0.0
C1369 C 0.88883 0.94554 0.5393 0.0
H1370 H 0.86086 0.91962 0.56776 0.0
H1371 H 0.8494 0.92395 0.50924 0.0
C1372 C 0.79081 0.85707 0.47467 0.0
N1373 N 0.80389 0.85512 0.4881 0.0
C1374 C 0.78979 0.84741 0.45518 0.0
C1375 C 0.81492 0.83286 0.46383 0.0
C1376 C 0.81559 0.84295 0.48308 0.0
C1377 C 0.80227 0.83543 0.44932 0.0
H1378 H 0.78167 0.86688 0.47891 0.0
H1379 H 0.82588 0.8415 0.49386 0.0
O1380 O 0.81304 0.90442 0.55859 0.0
O1381 O 0.78602 0.86931 0.53057 0.0
O1382 O 0.81076 0.90094 0.51419 0.0
O1383 O 0.8283 0.8732 0.53342 0.0
H1384 H 0.79445 0.89464 0.58799 0.0
H1385 H 0.82629 0.94331 0.56566 0.0
H1386 H 0.79116 0.91846 0.61752 0.0
H1387 H 0.82226 0.96635 0.59556 0.0
H1388 H 0.75269 0.80542 0.51674 0.0
H1389 H 0.75525 0.87567 0.54519 0.0
H1390 H 0.78143 0.83094 0.51615 0.0
H1391 H 0.72696 0.84942 0.54515 0.0
H1392 H 0.75 0.93962 0.56398 0.0
H1393 H 0.74358 0.9192 0.50164 0.0
H1394 H 0.83145 0.86125 0.61367 0.0
H1395 H 0.77452 0.8319 0.59453 0.0
H1396 H 0.8153 0.89451 0.47668 0.0
H1397 H 0.80689 0.93788 0.52501 0.0
H1398 H 0.81469 0.919 0.45523 0.0
H1399 H 0.8064 0.96166 0.50268 0.0
H1400 H 0.86428 0.87875 0.53126 0.0
H1401 H 0.81474 0.83573 0.536 0.0
H1402 H 0.88214 0.85257 0.53142 0.0
H1403 H 0.83347 0.8103 0.53615 0.0
H1404 H 0.89204 0.94116 0.5691 0.0
H1405 H 0.87975 0.94607 0.50945 0.0
H1406 H 0.77987 0.85011 0.44468 0.0
H1407 H 0.82456 0.82346 0.46032 0.0
Li1408 Li 0.95164 0.07531 0.29469 0.0
Li1409 Li 0.9231 0.0509 0.27179 0.0
Li1410 Li 0.95041 0.07364 0.25499 0.0
Li1411 Li 0.92595 0.09205 0.27496 0.0
C1412 C 0.96382 0.0414 0.27167 0.0
N1413 N 0.99048 0.01932 0.27153 0.0
C1414 C 0.95909 0.02168 0.27418 0.0
C1415 C 0.98209 0.04991 0.2691 0.0
C1416 C 0.97279 0.01076 0.2741 0.0
C1417 C 0.99537 0.03848 0.26904 0.0
C1418 C 0.91254 0.07205 0.31026 0.0
C1419 C 0.8851 0.07762 0.32505 0.0
N1420 N 0.8909 0.07124 0.34104 0.0
C1421 C 0.91819 0.06544 0.32677 0.0
C1422 C 0.89587 0.07817 0.30934 0.0
C1423 C 0.90708 0.0652 0.34221 0.0
C1424 C 0.97209 0.08986 0.33694 0.0
N1425 N 0.96697 0.0743 0.3214 0.0
C1426 C 0.97986 0.05389 0.34112 0.0
C1427 C 0.97089 0.05652 0.32361 0.0
C1428 C 0.98512 0.06948 0.35762 0.0
C1429 C 0.98101 0.0878 0.35486 0.0
H1430 H 0.96898 0.10402 0.33575 0.0
H1431 H 0.96677 0.04389 0.31182 0.0
C1432 C 0.90924 0.00683 0.25571 0.0
N1433 N 0.90693 0.02194 0.26997 0.0
C1434 C 0.89996 0.9867 0.25496 0.0
C1435 C 0.88546 0.99731 0.28333 0.0
C1436 C 0.89512 0.01725 0.28364 0.0
C1437 C 0.88775 0.98128 0.26894 0.0
H1438 H 0.91868 0.01026 0.24493 0.0
H1439 H 0.89332 0.02895 0.29518 0.0
C1440 C 0.96911 0.11374 0.27746 0.0
N1441 N 0.99777 0.14593 0.27695 0.0
C1442 C 0.96552 0.13064 0.27144 0.0
C1443 C 0.98724 0.11318 0.28324 0.0
C1444 C 0.98021 0.14678 0.2713 0.0
C1445 C 1.00155 0.12961 0.28285 0.0
C1446 C 0.91021 0.06806 0.23538 0.0
C1447 C 0.91666 0.07711 0.22007 0.0
C1448 C 0.89164 0.05834 0.23449 0.0
C1449 C 0.90437 0.0762 0.20399 0.0
C1450 C 0.87977 0.05781 0.21818 0.0
N1451 N 0.88634 0.06666 0.20339 0.0
C1452 C 0.9695 0.05541 0.22059 0.0
C1453 C 0.96966 0.08886 0.22043 0.0
C1454 C 0.97838 0.05385 0.20297 0.0
N1455 N 0.9651 0.07274 0.22927 0.0
C1456 C 0.97825 0.08781 0.20261 0.0
C1457 C 0.98286 0.07007 0.19321 0.0
H1458 H 0.96594 0.04242 0.22716 0.0
H1459 H 0.96638 0.10273 0.22698 0.0
C1460 C 0.90838 0.12864 0.29171 0.0
N1461 N 0.91085 0.11622 0.27503 0.0
C1462 C 0.89861 0.14432 0.29151 0.0
C1463 C 0.8937 0.13508 0.25704 0.0
C1464 C 0.90351 0.11961 0.25787 0.0
C1465 C 0.89074 0.14821 0.27398 0.0
H1466 H 0.91398 0.12655 0.30555 0.0
H1467 H 0.90523 0.11029 0.24438 0.0
O1468 O 0.95066 0.05237 0.27177 0.0
O1469 O 0.92359 0.0733 0.29537 0.0
O1470 O 0.95487 0.09802 0.27817 0.0
O1471 O 0.92205 0.06864 0.25114 0.0
H1472 H 0.94507 0.01495 0.27643 0.0
H1473 H 0.98594 0.06516 0.26709 0.0
H1474 H 0.96935 0.99551 0.27611 0.0
H1475 H 0.00955 0.04485 0.26701 0.0
H1476 H 0.87218 0.08235 0.32456 0.0
H1477 H 0.93104 0.06064 0.32771 0.0
H1478 H 0.89137 0.0834 0.29666 0.0
H1479 H 0.91133 0.06024 0.35514 0.0
H1480 H 0.98262 0.03943 0.34146 0.0
H1481 H 0.98426 0.1006 0.3666 0.0
H1482 H 0.90237 0.97547 0.2433 0.0
H1483 H 0.8766 0.99453 0.29475 0.0
H1484 H 0.95152 0.13132 0.26704 0.0
H1485 H 0.9902 0.10024 0.28809 0.0
H1486 H 0.97765 0.16 0.26675 0.0
H1487 H 0.01566 0.12941 0.28729 0.0
H1488 H 0.93095 0.08482 0.22064 0.0
H1489 H 0.88648 0.05129 0.24628 0.0
H1490 H 0.90917 0.08311 0.19201 0.0
H1491 H 0.86535 0.05035 0.21727 0.0
H1492 H 0.98125 0.03967 0.19678 0.0
H1493 H 0.98139 0.10103 0.19632 0.0
H1494 H 0.89725 0.15322 0.30535 0.0
H1495 H 0.88863 0.1366 0.24281 0.0
Li1496 Li 0.28058 0.66001 0.54519 0.0
Li1497 Li 0.2996 0.63822 0.52795 0.0
Li1498 Li 0.28382 0.65927 0.51165 0.0
Li1499 Li 0.26641 0.62978 0.52158 0.0
C1500 C 0.31751 0.68339 0.53198 0.0
N1501 N 0.34566 0.71598 0.53116 0.0
C1502 C 0.33582 0.68143 0.5319 0.0
C1503 C 0.31352 0.70194 0.5317 0.0
C1504 C 0.34986 0.69808 0.53151 0.0
C1505 C 0.32793 0.71822 0.5312 0.0
C1506 C 0.28071 0.61973 0.55907 0.0
C1507 C 0.27819 0.58661 0.56537 0.0
N1508 N 0.27721 0.59361 0.58456 0.0
C1509 C 0.27975 0.62661 0.57885 0.0
C1510 C 0.28002 0.5996 0.55223 0.0
C1511 C 0.278 0.61317 0.59151 0.0
C1512 C 0.26278 0.67662 0.57628 0.0
N1513 N 0.27902 0.67624 0.5684 0.0
C1514 C 0.29571 0.70153 0.59401 0.0
C1515 C 0.2953 0.68812 0.5769 0.0
C1516 C 0.2792 0.70247 0.60251 0.0
C1517 C 0.26252 0.68988 0.59352 0.0
H1518 H 0.2501 0.66673 0.56913 0.0
H1519 H 0.30798 0.68721 0.57034 0.0
C1520 C 0.32776 0.625 0.51149 0.0
N1521 N 0.32003 0.62749 0.52856 0.0
C1522 C 0.3423 0.61547 0.50972 0.0
C1523 C 0.34081 0.6117 0.54334 0.0
C1524 C 0.3263 0.62142 0.54448 0.0
C1525 C 0.34873 0.60839 0.52568 0.0
H1526 H 0.32238 0.63016 0.49919 0.0
H1527 H 0.31978 0.62374 0.55784 0.0
C1528 C 0.24812 0.66778 0.52741 0.0
N1529 N 0.2227 0.69135 0.53314 0.0
C1530 C 0.22919 0.65913 0.52466 0.0
C1531 C 0.25412 0.68841 0.53311 0.0
C1532 C 0.21655 0.67131 0.52758 0.0
C1533 C 0.24106 0.70007 0.53598 0.0
C1534 C 0.2793 0.6174 0.48602 0.0
C1535 C 0.27229 0.62266 0.46927 0.0
C1536 C 0.28012 0.59765 0.48586 0.0
C1537 C 0.26593 0.60795 0.45269 0.0
C1538 C 0.27355 0.58337 0.469 0.0
N1539 N 0.26665 0.58876 0.45292 0.0
C1540 C 0.30216 0.67672 0.48417 0.0
C1541 C 0.27132 0.68071 0.48627 0.0
C1542 C 0.3039 0.68613 0.46832 0.0
N1543 N 0.28603 0.67416 0.49259 0.0
C1544 C 0.27245 0.69024 0.47053 0.0
C1545 C 0.28877 0.69261 0.46116 0.0
H1546 H 0.3134 0.67087 0.48943 0.0
H1547 H 0.25854 0.67795 0.49298 0.0
C1548 C 0.23916 0.60347 0.53329 0.0
N1549 N 0.24595 0.6086 0.5169 0.0
C1550 C 0.22308 0.58903 0.53212 0.0
C1551 C 0.22103 0.58543 0.49705 0.0
C1552 C 0.23734 0.59991 0.49894 0.0
C1553 C 0.21347 0.58043 0.51389 0.0
H1554 H 0.24548 0.61155 0.54739 0.0
H1555 H 0.24236 0.60501 0.48619 0.0
O1556 O 0.30376 0.66739 0.53334 0.0
O1557 O 0.28123 0.63253 0.54638 0.0
O1558 O 0.26062 0.65606 0.52409 0.0
O1559 O 0.28538 0.63153 0.50247 0.0
H1560 H 0.3392 0.66726 0.53245 0.0
H1561 H 0.29948 0.70378 0.53188 0.0
H1562 H 0.36411 0.6968 0.5316 0.0
H1563 H 0.32504 0.73266 0.53093 0.0
H1564 H 0.27743 0.57095 0.56029 0.0
H1565 H 0.28014 0.64212 0.58433 0.0
H1566 H 0.28054 0.59404 0.53691 0.0
H1567 H 0.27714 0.61827 0.60685 0.0
H1568 H 0.30879 0.71119 0.60043 0.0
H1569 H 0.24958 0.69014 0.59984 0.0
H1570 H 0.3483 0.61348 0.49597 0.0
H1571 H 0.34537 0.6063 0.55588 0.0
H1572 H 0.22431 0.64318 0.52015 0.0
H1573 H 0.26868 0.69533 0.53536 0.0
H1574 H 0.20185 0.66483 0.5254 0.0
H1575 H 0.24552 0.71604 0.54042 0.0
H1576 H 0.27156 0.63787 0.4691 0.0
H1577 H 0.28555 0.59338 0.49871 0.0
H1578 H 0.26036 0.61177 0.43967 0.0
H1579 H 0.2739 0.56798 0.46872 0.0
H1580 H 0.31661 0.6876 0.46127 0.0
H1581 H 0.26058 0.69529 0.46547 0.0
H1582 H 0.21726 0.58622 0.54547 0.0
H1583 H 0.21362 0.57946 0.4828 0.0
Li1584 Li 0.42293 0.55066 0.77249 0.0
Li1585 Li 0.45167 0.57497 0.79542 0.0
Li1586 Li 0.42604 0.59195 0.77588 0.0
Li1587 Li 0.45019 0.57347 0.75582 0.0
C1588 C 0.41221 0.57121 0.8108 0.0
N1589 N 0.39016 0.56988 0.84122 0.0
C1590 C 0.41777 0.56461 0.82736 0.0
C1591 C 0.39529 0.57677 0.80954 0.0
C1592 C 0.40647 0.56415 0.84263 0.0
C1593 C 0.38436 0.57607 0.82511 0.0
C1594 C 0.46325 0.54071 0.77168 0.0
C1595 C 0.49432 0.53681 0.76749 0.0
N1596 N 0.48934 0.51789 0.77069 0.0
C1597 C 0.45839 0.52123 0.77486 0.0
C1598 C 0.48132 0.54859 0.7679 0.0
C1599 C 0.47181 0.50993 0.77431 0.0
C1600 C 0.40283 0.50821 0.75345 0.0
N1601 N 0.40664 0.52167 0.77067 0.0
C1602 C 0.39119 0.49537 0.78678 0.0
C1603 C 0.40085 0.51531 0.78716 0.0
C1604 C 0.38708 0.48102 0.76926 0.0
C1605 C 0.39314 0.48813 0.75243 0.0
H1606 H 0.4076 0.51288 0.74034 0.0
H1607 H 0.40393 0.52564 0.80092 0.0
C1608 C 0.4655 0.58596 0.83951 0.0
N1609 N 0.46716 0.57422 0.82214 0.0
C1610 C 0.47397 0.58379 0.85757 0.0
C1611 C 0.48674 0.55809 0.84031 0.0
C1612 C 0.47788 0.56056 0.82262 0.0
C1613 C 0.48479 0.5695 0.85854 0.0
H1614 H 0.45709 0.5968 0.83962 0.0
H1615 H 0.4794 0.55099 0.80928 0.0
C1616 C 0.41074 0.56848 0.73592 0.0
N1617 N 0.38831 0.5677 0.70302 0.0
C1618 C 0.41791 0.57819 0.72129 0.0
C1619 C 0.39219 0.55841 0.7339 0.0
C1620 C 0.40635 0.57758 0.70472 0.0
C1621 C 0.38106 0.55822 0.71715 0.0
C1622 C 0.46925 0.61329 0.7779 0.0
C1623 C 0.46574 0.63011 0.77164 0.0
C1624 C 0.4874 0.61257 0.78342 0.0
C1625 C 0.4805 0.64601 0.77102 0.0
C1626 C 0.50179 0.62877 0.78255 0.0
N1627 N 0.49807 0.64502 0.77644 0.0
C1628 C 0.40331 0.62432 0.79189 0.0
C1629 C 0.40977 0.62447 0.75966 0.0
C1630 C 0.39358 0.63999 0.7916 0.0
N1631 N 0.41128 0.61638 0.776 0.0
C1632 C 0.40039 0.64031 0.75888 0.0
C1633 C 0.39178 0.64869 0.77493 0.0
H1634 H 0.40441 0.61863 0.80515 0.0
H1635 H 0.41589 0.61871 0.74687 0.0
C1636 C 0.463 0.55443 0.71784 0.0
N1637 N 0.46466 0.5724 0.73004 0.0
C1638 C 0.47144 0.5526 0.69999 0.0
C1639 C 0.48379 0.58767 0.70686 0.0
C1640 C 0.47507 0.58888 0.72462 0.0
C1641 C 0.48208 0.56932 0.69374 0.0
H1642 H 0.45492 0.54121 0.72182 0.0
H1643 H 0.47656 0.60327 0.73394 0.0
O1644 O 0.42359 0.57302 0.79624 0.0
O1645 O 0.45043 0.55211 0.7724 0.0
O1646 O 0.42189 0.56861 0.75207 0.0
O1647 O 0.45493 0.5978 0.77905 0.0
H1648 H 0.43065 0.5599 0.82842 0.0
H1649 H 0.39074 0.58173 0.79673 0.0
H1650 H 0.41068 0.55926 0.85562 0.0
H1651 H 0.3713 0.5805 0.82441 0.0
H1652 H 0.50838 0.54271 0.76466 0.0
H1653 H 0.44446 0.51496 0.77782 0.0
H1654 H 0.48526 0.56367 0.76543 0.0
H1655 H 0.46828 0.49484 0.7768 0.0
H1656 H 0.3869 0.49135 0.80031 0.0
H1657 H 0.39086 0.47812 0.73847 0.0
H1658 H 0.47195 0.5934 0.87076 0.0
H1659 H 0.49462 0.54671 0.83963 0.0
H1660 H 0.43224 0.5861 0.7227 0.0
H1661 H 0.38649 0.55083 0.74515 0.0
H1662 H 0.41171 0.58495 0.69323 0.0
H1663 H 0.36666 0.55051 0.71537 0.0
H1664 H 0.45174 0.6309 0.76741 0.0
H1665 H 0.49031 0.59968 0.7884 0.0
H1666 H 0.47799 0.65916 0.76626 0.0
H1667 H 0.51592 0.62846 0.78679 0.0
H1668 H 0.38776 0.64547 0.80472 0.0
H1669 H 0.39972 0.6457 0.74539 0.0
H1670 H 0.46963 0.53788 0.69123 0.0
H1671 H 0.49151 0.6013 0.70332 0.0
Li1672 Li 0.68316 0.04626 0.75964 0.0
Li1673 Li 0.70985 0.06554 0.74761 0.0
Li1674 Li 0.68209 0.04729 0.72591 0.0
Li1675 Li 0.70348 0.02949 0.73925 0.0
C1676 C 0.67235 0.08225 0.74865 0.0
N1677 N 0.64785 0.107 0.75038 0.0
C1678 C 0.6788 0.10282 0.75445 0.0
C1679 C 0.65347 0.07429 0.74366 0.0
C1680 C 0.66619 0.11508 0.75527 0.0
C1681 C 0.6413 0.08704 0.74462 0.0
C1682 C 0.72152 0.05065 0.78133 0.0
C1683 C 0.75117 0.05063 0.79702 0.0
N1684 N 0.74642 0.05998 0.81406 0.0
C1685 C 0.71692 0.06026 0.799 0.0
C1686 C 0.73874 0.0457 0.78032 0.0
C1687 C 0.72969 0.06481 0.81539 0.0
C1688 C 0.66708 0.0263 0.7866 0.0
N1689 N 0.66975 0.04401 0.78063 0.0
C1690 C 0.65534 0.0582 0.8072 0.0
C1691 C 0.66412 0.05986 0.7904 0.0
C1692 C 0.65247 0.04008 0.81363 0.0
C1693 C 0.65816 0.0239 0.80319 0.0
H1694 H 0.67222 0.01421 0.77865 0.0
H1695 H 0.66691 0.07386 0.78549 0.0
C1696 C 0.72942 0.09808 0.73649 0.0
N1697 N 0.72902 0.08788 0.75123 0.0
C1698 C 0.74344 0.11477 0.73691 0.0
C1699 C 0.75662 0.10974 0.76745 0.0
C1700 C 0.74216 0.09333 0.76657 0.0
C1701 C 0.75722 0.12085 0.75263 0.0
H1702 H 0.71869 0.09327 0.72451 0.0
H1703 H 0.74148 0.0852 0.77823 0.0
C1704 C 0.66177 0.00823 0.73795 0.0
N1705 N 0.63197 0.97695 0.73774 0.0
C1706 C 0.66414 0.98872 0.73506 0.0
C1707 C 0.64421 0.01182 0.74068 0.0
C1708 C 0.64892 0.97311 0.73502 0.0
C1709 C 0.62933 0.99582 0.74055 0.0
C1710 C 0.72109 0.04911 0.70881 0.0
C1711 C 0.71566 0.04515 0.68887 0.0
C1712 C 0.73986 0.05363 0.71538 0.0
C1713 C 0.72917 0.04578 0.67576 0.0
C1714 C 0.75295 0.05424 0.70179 0.0
N1715 N 0.74738 0.05031 0.68244 0.0
C1716 C 0.66344 0.06138 0.69747 0.0
C1717 C 0.65943 0.0264 0.6949 0.0
C1718 C 0.65093 0.05847 0.6812 0.0
N1719 N 0.66705 0.04537 0.70402 0.0
C1720 C 0.64674 0.02281 0.67884 0.0
C1721 C 0.64236 0.03898 0.67212 0.0
H1722 H 0.67008 0.07626 0.70499 0.0
H1723 H 0.66315 0.01408 0.70021 0.0
C1724 C 0.71483 0.9991 0.7508 0.0
N1725 N 0.71409 0.00804 0.73524 0.0
C1726 C 0.72418 0.98395 0.75028 0.0
C1727 C 0.73143 0.98729 0.71754 0.0
C1728 C 0.72162 1.00222 0.71858 0.0
C1729 C 0.73287 0.97832 0.73366 0.0
H1730 H 0.70862 1.00424 0.76377 0.0
H1731 H 0.72052 0.00953 0.70639 0.0
O1732 O 0.68462 0.07013 0.74779 0.0
O1733 O 0.70928 0.04615 0.76509 0.0
O1734 O 0.67654 0.02359 0.73762 0.0
O1735 O 0.708 0.04867 0.72176 0.0
H1736 H 0.6934 0.10922 0.7583 0.0
H1737 H 0.64829 0.05849 0.73884 0.0
H1738 H 0.67098 0.13102 0.75977 0.0
H1739 H 0.62664 0.08107 0.74073 0.0
H1740 H 0.7646 0.04705 0.79643 0.0
H1741 H 0.70371 0.06429 0.80003 0.0
H1742 H 0.74254 0.03839 0.76671 0.0
H1743 H 0.72633 0.07225 0.82915 0.0
H1744 H 0.65102 0.07088 0.8152 0.0
H1745 H 0.65607 0.00982 0.80805 0.0
H1746 H 0.743 0.12322 0.72544 0.0
H1747 H 0.76696 0.11391 0.77982 0.0
H1748 H 0.67756 0.98561 0.73268 0.0
H1749 H 0.64208 0.02677 0.743 0.0
H1750 H 0.65058 0.95794 0.73276 0.0
H1751 H 0.61567 0.99839 0.74267 0.0
H1752 H 0.70116 0.04159 0.6836 0.0
H1753 H 0.74426 0.05666 0.73079 0.0
H1754 H 0.72517 0.0427 0.66027 0.0
H1755 H 0.76754 0.05781 0.70664 0.0
H1756 H 0.64776 0.07112 0.67594 0.0
H1757 H 0.64043 0.00765 0.67172 0.0
H1758 H 0.72543 0.97738 0.76303 0.0
H1759 H 0.73825 0.98323 0.70467 0.0
Li1760 Li 0.80212 0.71303 0.03086 0.0
Li1761 Li 0.81521 0.68568 0.01083 0.0
Li1762 Li 0.80183 0.70944 0.99457 0.0
Li1763 Li 0.77997 0.68263 0.00778 0.0
C1764 C 0.83867 0.72975 0.01482 0.0
N1765 N 0.86977 0.75941 0.01469 0.0
C1766 C 0.85628 0.72592 0.01709 0.0
C1767 C 0.83686 0.74866 0.01249 0.0
C1768 C 0.87183 0.74111 0.01701 0.0
C1769 C 0.85276 0.76345 0.01243 0.0
C1770 C 0.79797 0.67025 0.04283 0.0
C1771 C 0.79358 0.63625 0.04708 0.0
N1772 N 0.80049 0.64276 0.06602 0.0
C1773 C 0.80493 0.67661 0.06235 0.0
C1774 C 0.79221 0.64992 0.03509 0.0
C1775 C 0.80615 0.66248 0.07382 0.0
C1776 C 0.78864 0.73619 0.06178 0.0
N1777 N 0.80402 0.72999 0.05624 0.0
C1778 C 0.81943 0.74338 0.08829 0.0
C1779 C 0.81945 0.73383 0.06891 0.0
C1780 C 0.80339 0.74915 0.09471 0.0
C1781 C 0.7881 0.746 0.08085 0.0
H1782 H 0.77646 0.73285 0.05158 0.0
H1783 H 0.83149 0.72859 0.06425 0.0
C1784 C 0.8448 0.66999 0.99438 0.0
N1785 N 0.83513 0.67171 0.01034 0.0
C1786 C 0.85954 0.66032 0.99388 0.0
C1787 C 0.85418 0.6545 0.02621 0.0
C1788 C 0.83984 0.66452 0.02622 0.0
C1789 C 0.86419 0.65217 0.00988 0.0
H1790 H 0.84109 0.67618 0.98205 0.0
H1791 H 0.83265 0.66666 0.03906 0.0
C1792 C 0.77123 0.72561 0.00794 0.0
N1793 N 0.75141 0.75324 1.00108 0.0
C1794 C 0.75337 0.71933 0.99848 0.0
C1795 C 0.779 0.74591 0.014 0.0
C1796 C 0.74357 0.73354 0.99513 0.0
C1797 C 0.76877 0.75966 0.01036 0.0
C1798 C 0.79583 0.66719 0.96989 0.0
C1799 C 0.78993 0.67261 0.95277 0.0
C1800 C 0.80072 0.64891 0.96902 0.0
C1801 C 0.78925 0.65972 0.93499 0.0
C1802 C 0.79982 0.63641 0.95096 0.0
N1803 N 0.79419 0.64205 0.93446 0.0
C1804 C 0.82154 0.72231 0.96418 0.0
C1805 C 0.79262 0.7313 0.96504 0.0
C1806 C 0.82479 0.72989 0.94718 0.0
N1807 N 0.80559 0.72295 0.97268 0.0
C1808 C 0.79536 0.73916 0.94811 0.0
C1809 C 0.8115 0.73824 0.93872 0.0
H1810 H 0.83158 0.71542 0.97036 0.0
H1811 H 0.77985 0.73133 0.97162 0.0
C1812 C 0.74874 0.6595 0.02194 0.0
N1813 N 0.75541 0.66464 0.0054 0.0
C1814 C 0.73111 0.64713 0.02139 0.0
C1815 C 0.72713 0.6457 0.98681 0.0
C1816 C 0.74497 0.65795 0.98798 0.0
C1817 C 0.7199 0.64004 0.00367 0.0
H1818 H 0.75705 0.66519 0.0357 0.0
H1819 H 0.75042 0.66226 0.97498 0.0
O1820 O 0.82333 0.71495 0.0147 0.0
O1821 O 0.79707 0.68387 0.03131 0.0
O1822 O 0.7809 0.71189 0.01149 0.0
O1823 O 0.79741 0.67999 0.98734 0.0
H1824 H 0.85792 0.71137 0.01896 0.0
H1825 H 0.82334 0.75182 0.01056 0.0
H1826 H 0.88555 0.73836 0.01879 0.0
H1827 H 0.85158 0.77814 0.01056 0.0
H1828 H 0.7892 0.62046 0.04131 0.0
H1829 H 0.80951 0.69228 0.06852 0.0
H1830 H 0.78685 0.6448 0.01998 0.0
H1831 H 0.81163 0.66718 0.08892 0.0
H1832 H 0.83154 0.74527 0.09832 0.0
H1833 H 0.77555 0.75055 0.0848 0.0
H1834 H 0.86696 0.6589 0.98102 0.0
H1835 H 0.85756 0.64881 0.03902 0.0
H1836 H 0.74716 0.70364 0.99378 0.0
H1837 H 0.79275 0.75098 0.02149 0.0
H1838 H 0.72974 0.72891 0.98781 0.0
H1839 H 0.7746 0.77543 0.01494 0.0
H1840 H 0.78596 0.68663 0.95318 0.0
H1841 H 0.80529 0.64449 0.98216 0.0
H1842 H 0.78483 0.66378 0.92162 0.0
H1843 H 0.80366 0.62226 0.95005 0.0
H1844 H 0.83753 0.72903 0.94064 0.0
H1845 H 0.78458 0.74516 0.94202 0.0
H1846 H 0.72615 0.64353 0.03485 0.0
H1847 H 0.71914 0.64057 0.97278 0.0
Li1848 Li 0.89773 0.52187 0.79448 0.0
Li1849 Li 0.92605 0.54092 0.81463 0.0
Li1850 Li 0.90335 0.55709 0.80116 0.0
Li1851 Li 0.92362 0.54031 0.78024 0.0
C1852 C 0.89035 0.54302 0.83548 0.0
N1853 N 0.86905 0.54742 0.86636 0.0
C1854 C 0.89688 0.54095 0.85389 0.0
C1855 C 0.873 0.54742 0.83279 0.0
C1856 C 0.88589 0.54321 0.86931 0.0
C1857 C 0.86246 0.54959 0.84859 0.0
C1858 C 0.93518 0.50544 0.79316 0.0
C1859 C 0.96609 0.50009 0.79144 0.0
N1860 N 0.95972 0.48087 0.79325 0.0
C1861 C 0.92893 0.48564 0.79496 0.0
C1862 C 0.95389 0.51274 0.79132 0.0
C1863 C 0.94156 0.47345 0.79499 0.0
C1864 C 0.87748 0.48456 0.77543 0.0
N1865 N 0.87895 0.49916 0.79132 0.0
C1866 C 0.85322 0.48074 0.80397 0.0
C1867 C 0.86713 0.49765 0.80535 0.0
C1868 C 0.85172 0.46514 0.78813 0.0
C1869 C 0.86378 0.46722 0.77348 0.0
H1870 H 0.88721 0.48627 0.76457 0.0
H1871 H 0.86872 0.50923 0.81791 0.0
C1872 C 0.94844 0.56243 0.84644 0.0
N1873 N 0.94242 0.54367 0.83601 0.0
C1874 C 0.96118 0.56609 0.86256 0.0
C1875 C 0.9607 0.53085 0.85713 0.0
C1876 C 0.94805 0.52791 0.84104 0.0
C1877 C 0.96735 0.55013 0.868 0.0
H1878 H 0.94322 0.57451 0.84225 0.0
H1879 H 0.9426 0.5131 0.83273 0.0
C1880 C 0.88424 0.52978 0.76 0.0
N1881 N 0.85831 0.51145 0.72887 0.0
C1882 C 0.88967 0.52631 0.74115 0.0
C1883 C 0.86555 0.52422 0.76296 0.0
C1884 C 0.87637 0.51701 0.72562 0.0
C1885 C 0.85268 0.5148 0.74706 0.0
C1886 C 0.94543 0.57905 0.80279 0.0
C1887 C 0.94298 0.59799 0.80139 0.0
C1888 C 0.96328 0.57598 0.80549 0.0
C1889 C 0.95848 0.6136 0.80274 0.0
C1890 C 0.97843 0.59198 0.80681 0.0
N1891 N 0.97574 0.6103 0.80541 0.0
C1892 C 0.89654 0.59249 0.82164 0.0
C1893 C 0.87816 0.57769 0.79181 0.0
C1894 C 0.88759 0.6082 0.82416 0.0
N1895 N 0.8918 0.57793 0.80551 0.0
C1896 C 0.86872 0.59284 0.79386 0.0
C1897 C 0.87358 0.60839 0.81006 0.0
H1898 H 0.90745 0.59201 0.83227 0.0
H1899 H 0.87483 0.56591 0.77915 0.0
C1900 C 0.93785 0.52303 0.74775 0.0
N1901 N 0.93728 0.5407 0.75903 0.0
C1902 C 0.94724 0.52272 0.73114 0.0
C1903 C 0.95573 0.55877 0.73861 0.0
C1904 C 0.94583 0.55838 0.75481 0.0
C1905 C 0.95622 0.54079 0.72658 0.0
H1906 H 0.93065 0.50926 0.75147 0.0
H1907 H 0.94469 0.57216 0.76378 0.0
O1908 O 0.90038 0.53938 0.81998 0.0
O1909 O 0.92291 0.51746 0.79303 0.0
O1910 O 0.89699 0.5398 0.7752 0.0
O1911 O 0.93033 0.56372 0.80174 0.0
H1912 H 0.91013 0.53722 0.85616 0.0
H1913 H 0.86752 0.54854 0.81853 0.0
H1914 H 0.8907 0.54145 0.88359 0.0
H1915 H 0.84894 0.5528 0.84668 0.0
H1916 H 0.98061 0.50553 0.79006 0.0
H1917 H 0.91447 0.47976 0.79636 0.0
H1918 H 0.95892 0.52797 0.78976 0.0
H1919 H 0.93692 0.4581 0.79638 0.0
H1920 H 0.8442 0.47954 0.81555 0.0
H1921 H 0.86326 0.45523 0.76125 0.0
H1922 H 0.96578 0.58106 0.87097 0.0
H1923 H 0.96518 0.51824 0.86113 0.0
H1924 H 0.9039 0.53117 0.73841 0.0
H1925 H 0.86104 0.52716 0.77739 0.0
H1926 H 0.8804 0.51436 0.71096 0.0
H1927 H 0.8382 0.51028 0.74916 0.0
H1928 H 0.92925 0.60059 0.79923 0.0
H1929 H 0.96542 0.56146 0.80675 0.0
H1930 H 0.95679 0.62833 0.80168 0.0
H1931 H 0.99233 0.58986 0.80898 0.0
H1932 H 0.89173 0.62017 0.83668 0.0
H1933 H 0.85829 0.59285 0.78245 0.0
H1934 H 0.94751 0.50865 0.72197 0.0
H1935 H 0.96254 0.57287 0.73524 0.0
Li1936 Li 0.82473 0.42872 0.5316 0.0
Li1937 Li 0.81038 0.44999 0.51413 0.0
Li1938 Li 0.82937 0.42739 0.49771 0.0
Li1939 Li 0.84298 0.45727 0.52164 0.0
C1940 C 0.79212 0.40423 0.50949 0.0
N1941 N 0.76444 0.37115 0.51003 0.0
C1942 C 0.77447 0.40643 0.51387 0.0
C1943 C 0.79567 0.38522 0.50521 0.0
C1944 C 0.76067 0.38951 0.51413 0.0
C1945 C 0.78149 0.36868 0.5056 0.0
C1946 C 0.83019 0.47129 0.55592 0.0
C1947 C 0.84029 0.50613 0.57023 0.0
N1948 N 0.84423 0.50125 0.58767 0.0
C1949 C 0.83409 0.46663 0.57406 0.0
C1950 C 0.83303 0.4912 0.55404 0.0
C1951 C 0.84125 0.48199 0.58991 0.0
C1952 C 0.83921 0.41465 0.5608 0.0
N1953 N 0.82284 0.41446 0.55119 0.0
C1954 C 0.80612 0.39386 0.57078 0.0
C1955 C 0.80641 0.40496 0.55619 0.0
C1956 C 0.82291 0.39306 0.58032 0.0
C1957 C 0.83957 0.40404 0.57561 0.0
H1958 H 0.85195 0.42313 0.55695 0.0
H1959 H 0.79361 0.40584 0.54883 0.0
C1960 C 0.78159 0.46208 0.49551 0.0
N1961 N 0.79023 0.4608 0.51261 0.0
C1962 C 0.76596 0.47007 0.49561 0.0
C1963 C 0.76899 0.47537 0.53086 0.0
C1964 C 0.78438 0.46725 0.53006 0.0
C1965 C 0.75945 0.47657 0.51348 0.0
H1966 H 0.78675 0.45674 0.48192 0.0
H1967 H 0.79159 0.46589 0.54336 0.0
C1968 C 0.8601 0.41853 0.51753 0.0
N1969 N 0.88446 0.39364 0.51324 0.0
C1970 C 0.87887 0.42631 0.5164 0.0
C1971 C 0.85374 0.39811 0.51661 0.0
C1972 C 0.89096 0.41347 0.5142 0.0
C1973 C 0.86627 0.38577 0.5144 0.0
C1974 C 0.8338 0.46752 0.4833 0.0
C1975 C 0.84369 0.46199 0.46765 0.0
C1976 C 0.8286 0.48575 0.48576 0.0
C1977 C 0.8483 0.47489 0.4547 0.0
C1978 C 0.83357 0.49828 0.47255 0.0
N1979 N 0.84321 0.49263 0.45742 0.0
C1980 C 0.8149 0.39998 0.46474 0.0
C1981 C 0.8477 0.40705 0.46918 0.0
C1982 C 0.81471 0.38531 0.44857 0.0
N1983 N 0.83119 0.41015 0.47484 0.0
C1984 C 0.84818 0.39255 0.45299 0.0
C1985 C 0.83149 0.38131 0.44273 0.0
H1986 H 0.80204 0.4031 0.46946 0.0
H1987 H 0.86044 0.41567 0.47732 0.0
C1988 C 0.8729 0.47779 0.54712 0.0
N1989 N 0.86391 0.47738 0.52964 0.0
C1990 C 0.88987 0.4909 0.55306 0.0
C1991 C 0.88777 0.50286 0.52286 0.0
C1992 C 0.87063 0.49003 0.51786 0.0
C1993 C 0.89804 0.50268 0.54023 0.0
H1994 H 0.86733 0.46722 0.55599 0.0
H1995 H 0.86344 0.48928 0.50398 0.0
O1996 O 0.80568 0.42062 0.5089 0.0
O1997 O 0.82348 0.45642 0.54015 0.0
O1998 O 0.84815 0.43097 0.51983 0.0
O1999 O 0.82916 0.45507 0.49607 0.0
H2000 H 0.77148 0.42104 0.5171 0.0
H2001 H 0.80917 0.38325 0.5015 0.0
H2002 H 0.74696 0.39098 0.51757 0.0
H2003 H 0.78404 0.35388 0.50231 0.0
H2004 H 0.84283 0.52159 0.56893 0.0
H2005 H 0.83165 0.45136 0.57592 0.0
H2006 H 0.82997 0.49504 0.54012 0.0
H2007 H 0.84444 0.47858 0.60399 0.0
H2008 H 0.79302 0.3856 0.57416 0.0
H2009 H 0.85274 0.40419 0.5831 0.0
H2010 H 0.75886 0.47079 0.48196 0.0
H2011 H 0.76457 0.48062 0.54492 0.0
H2012 H 0.88401 0.44211 0.51719 0.0
H2013 H 0.83931 0.3919 0.5177 0.0
H2014 H 0.90552 0.41928 0.51327 0.0
H2015 H 0.86154 0.36994 0.51364 0.0
H2016 H 0.8478 0.44793 0.46555 0.0
H2017 H 0.821 0.49025 0.49786 0.0
H2018 H 0.85594 0.47081 0.44251 0.0
H2019 H 0.82977 0.51251 0.47433 0.0
H2020 H 0.80161 0.37724 0.44067 0.0
H2021 H 0.86136 0.3899 0.44874 0.0
H2022 H 0.89717 0.49052 0.56671 0.0
H2023 H 0.89351 0.51127 0.5122 0.0
Li2024 Li 0.65872 0.5123 0.28769 0.0
Li2025 Li 0.68616 0.53483 0.27141 0.0
Li2026 Li 0.65764 0.51015 0.24793 0.0
Li2027 Li 0.68314 0.49346 0.26702 0.0
C2028 C 0.64553 0.54442 0.27217 0.0
N2029 N 0.61912 0.56689 0.27539 0.0
C2030 C 0.6507 0.56483 0.27965 0.0
C2031 C 0.62696 0.53542 0.26628 0.0
C2032 C 0.63713 0.57593 0.28118 0.0
C2033 C 0.6138 0.54704 0.26803 0.0
C2034 C 0.69867 0.52 0.30792 0.0
C2035 C 0.72688 0.51742 0.32481 0.0
N2036 N 0.72156 0.52623 0.34179 0.0
C2037 C 0.69352 0.52914 0.32548 0.0
C2038 C 0.71549 0.51415 0.30751 0.0
C2039 C 0.70527 0.53211 0.34247 0.0
C2040 C 0.64557 0.49986 0.32568 0.0
N2041 N 0.64421 0.51289 0.31349 0.0
C2042 C 0.62529 0.5281 0.33661 0.0
C2043 C 0.63408 0.52684 0.31893 0.0
C2044 C 0.62666 0.51507 0.34971 0.0
C2045 C 0.63709 0.5007 0.34355 0.0
H2046 H 0.65352 0.48874 0.32176 0.0
H2047 H 0.63291 0.53745 0.30973 0.0
C2048 C 0.70879 0.56982 0.25686 0.0
N2049 N 0.70236 0.56378 0.27327 0.0
C2050 C 0.71847 0.58973 0.25715 0.0
C2051 C 0.71478 0.59767 0.29111 0.0
C2052 C 0.70537 0.57754 0.29025 0.0
C2053 C 0.72163 0.60438 0.27441 0.0
H2054 H 0.70613 0.55928 0.24322 0.0
H2055 H 0.70015 0.57308 0.30328 0.0
C2056 C 0.64004 0.47133 0.26186 0.0
N2057 N 0.61138 0.43799 0.2563 0.0
C2058 C 0.64329 0.45254 0.2549 0.0
C2059 C 0.62226 0.47319 0.26605 0.0
C2060 C 0.6286 0.43586 0.25218 0.0
C2061 C 0.60793 0.45614 0.26311 0.0
C2062 C 0.69579 0.5104 0.23169 0.0
C2063 C 0.68717 0.49876 0.21401 0.0
C2064 C 0.71463 0.51928 0.23331 0.0
C2065 C 0.69756 0.49638 0.19809 0.0
C2066 C 0.72455 0.51652 0.21707 0.0
N2067 N 0.71587 0.50524 0.19994 0.0
C2068 C 0.64107 0.53013 0.21831 0.0
C2069 C 0.63444 0.49563 0.20704 0.0
C2070 C 0.63207 0.53297 0.20086 0.0
N2071 N 0.64233 0.51166 0.22144 0.0
C2072 C 0.62546 0.49787 0.18924 0.0
C2073 C 0.62406 0.51682 0.18553 0.0
H2074 H 0.64734 0.54304 0.22932 0.0
H2075 H 0.63523 0.48089 0.2091 0.0
C2076 C 0.7008 0.46216 0.28365 0.0
N2077 N 0.69802 0.46916 0.26687 0.0
C2078 C 0.71047 0.44658 0.28455 0.0
C2079 C 0.71457 0.44458 0.2509 0.0
C2080 C 0.70486 0.46028 0.25062 0.0
C2081 C 0.71788 0.43712 0.26809 0.0
H2082 H 0.69551 0.46864 0.29672 0.0
H2083 H 0.70293 0.46533 0.23709 0.0
O2084 O 0.65859 0.53329 0.27053 0.0
O2085 O 0.68702 0.51615 0.2913 0.0
O2086 O 0.65431 0.48776 0.26489 0.0
O2087 O 0.68579 0.51311 0.24733 0.0
H2088 H 0.66503 0.572 0.28425 0.0
H2089 H 0.62277 0.51965 0.26033 0.0
H2090 H 0.64092 0.59175 0.28696 0.0
H2091 H 0.59937 0.54029 0.26353 0.0
H2092 H 0.73992 0.5129 0.32475 0.0
H2093 H 0.68055 0.53379 0.326 0.0
H2094 H 0.71964 0.50704 0.294 0.0
H2095 H 0.70142 0.53906 0.3562 0.0
H2096 H 0.6178 0.53972 0.34014 0.0
H2097 H 0.63868 0.4899 0.35241 0.0
H2098 H 0.72299 0.59368 0.24366 0.0
H2099 H 0.71675 0.60789 0.30493 0.0
H2100 H 0.65702 0.45087 0.25169 0.0
H2101 H 0.61958 0.48762 0.27164 0.0
H2102 H 0.6309 0.42121 0.24682 0.0
H2103 H 0.59409 0.45734 0.26629 0.0
H2104 H 0.67263 0.49163 0.2126 0.0
H2105 H 0.72149 0.52824 0.24697 0.0
H2106 H 0.69106 0.48749 0.18428 0.0
H2107 H 0.73914 0.52334 0.21808 0.0
H2108 H 0.63189 0.548 0.19929 0.0
H2109 H 0.61955 0.48462 0.17848 0.0
H2110 H 0.71184 0.44191 0.29833 0.0
H2111 H 0.71968 0.43856 0.23753 0.0
Eu2112 Eu 0.03165 0.03096 0.00979 0.0
C2113 C 0.09443 0.09883 0.05521 0.0
C2114 C 0.10148 0.11956 0.03118 0.0
C2115 C 0.10822 0.13421 0.0655 0.0
C2116 C 0.09437 0.10081 0.03599 0.0
C2117 C 0.10182 0.11543 0.07019 0.0
C2118 C 0.10799 0.13628 0.04603 0.0
C2119 C 0.09798 0.09337 0.09322 0.0
N2120 N 0.08853 0.08045 0.05926 0.0
C2121 C 0.09094 0.0774 0.07788 0.0
C2122 C 0.10324 0.11253 0.08939 0.0
Eu2123 Eu 0.07721 0.05358 0.03271 0.0
N2124 N 0.0885 0.08425 0.02198 0.0
C2125 C 0.09051 0.08545 1.00286 0.0
C2126 C 0.10248 0.12088 0.01161 0.0
C2127 C 0.09718 0.10369 0.99742 0.0
H2128 H 0.08732 0.06251 0.08087 0.0
H2129 H 0.09818 0.10444 0.98222 0.0
H2130 H 0.11341 0.15076 0.04259 0.0
H2131 H 0.09953 0.09086 0.10794 0.0
H2132 H 0.08636 0.07267 0.99135 0.0
H2133 H 0.00738 0.98228 0.06118 0.0
H2134 H 0.10779 0.13499 0.00735 0.0
H2135 H 0.0226 0.02102 0.96143 0.0
H2136 H 0.02089 0.01334 0.05149 0.0
H2137 H 0.01021 0.99228 0.93481 0.0
H2138 H 0.11383 0.14712 0.07681 0.0
H2139 H 0.99775 0.95128 0.03665 0.0
H2140 H 0.99307 0.93459 1.00168 0.0
H2141 H 0.1089 0.12488 0.10126 0.0
H2142 H 0.9938 0.93726 0.96726 0.0
N2143 N 0.01947 1.00092 0.02113 0.0
C2144 C 0.01675 1.00036 0.04023 0.0
C2145 C 1.00375 0.96507 0.03214 0.0
C2146 C 0.00561 0.96575 0.01255 0.0
C2147 C 0.00906 0.98253 0.04598 0.0
C2148 C 0.0135 0.98413 0.0074 0.0
H2149 H 0.99988 0.9587 0.94224 0.0
N2150 N 0.02041 1.0037 0.98362 0.0
C2151 C 0.01137 0.99013 0.94969 0.0
C2152 C 0.01398 0.98558 0.98805 0.0
C2153 C 0.01846 1.00632 0.96479 0.0
C2154 C 0.00559 0.97121 0.95394 0.0
C2155 C 0.00651 0.96879 0.97332 0.0
O2156 O 0.0125 0.04257 0.99298 0.0
O2157 O 0.05143 0.06059 0.02049 0.0
O2158 O 0.0586 0.06013 0.05743 0.0
O2159 O 0.02938 0.04358 0.04267 0.0
O2160 O 0.04022 0.05411 0.99168 0.0
O2161 O 0.00507 0.03433 0.02029 0.0
O2162 O 0.09659 0.04118 0.04833 0.0
O2163 O 0.05739 0.02407 0.02193 0.0
O2164 O 0.05066 0.02322 0.98562 0.0
O2165 O 0.07934 0.04206 0.99972 0.0
O2166 O 0.06879 0.0299 0.05054 0.0
O2167 O 0.10388 0.05121 0.02177 0.0
C2168 C 0.04996 0.06784 0.00519 0.0
C2169 C 0.98083 0.03404 0.99693 0.0
C2170 C 0.94966 0.03915 0.99604 0.0
C2171 C 0.96799 0.04468 0.00419 0.0
C2172 C 0.94415 0.02303 0.98042 0.0
C2173 C 0.9753 0.01786 0.98133 0.0
C2174 C 0.957 0.01246 0.97304 0.0
C2175 C 0.04052 0.05382 0.05839 0.0
C2176 C 1.00002 0.04109 0.00521 0.0
C2177 C 0.99948 0.95032 0.97838 0.0
C2178 C 0.99906 0.9488 0.99797 0.0
C2179 C 0.05866 0.01649 0.03703 0.0
C2180 C 0.1282 0.05024 0.0445 0.0
C2181 C 0.14088 0.03932 0.03734 0.0
C2182 C 0.15918 0.04456 0.04556 0.0
C2183 C 0.16481 0.06064 0.06121 0.0
C2184 C 0.13386 0.06641 0.06009 0.0
C2185 C 0.15211 0.07148 0.0685 0.0
C2186 C 0.06851 0.03071 0.98429 0.0
C2187 C 0.10902 0.0435 0.03614 0.0
H2188 H 0.97225 0.05729 0.01617 0.0
H2189 H 0.93 0.01879 0.97387 0.0
H2190 H 0.98502 0.00951 0.97547 0.0
H2191 H 0.9528 1.00013 0.96087 0.0
H2192 H 0.13653 0.02678 0.0253 0.0
H2193 H 0.17895 0.06473 0.06777 0.0
H2194 H 0.12426 0.075 0.06583 0.0
H2195 H 0.15642 0.08383 0.08065 0.0
Eu2196 Eu 0.317 0.78348 0.24595 0.0
C2197 C 0.28817 0.8446 0.30553 0.0
C2198 C 0.31569 0.86396 0.32572 0.0
C2199 C 0.28885 0.87812 0.32291 0.0
C2200 C 0.30607 0.84623 0.31315 0.0
C2201 C 0.27927 0.86047 0.3106 0.0
C2202 C 0.30702 0.87987 0.33045 0.0
C2203 C 0.25134 0.83963 0.2928 0.0
N2204 N 0.27917 0.82726 0.29384 0.0
C2205 C 0.26063 0.82429 0.28846 0.0
C2206 C 0.26076 0.85791 0.30373 0.0
Eu2207 Eu 0.29478 0.80055 0.28981 0.0
N2208 N 0.31409 0.83055 0.30837 0.0
C2209 C 0.33192 0.83198 0.31561 0.0
C2210 C 0.33377 0.86523 0.33323 0.0
C2211 C 0.34193 0.8492 0.32805 0.0
H2212 H 0.25273 0.80984 0.28116 0.0
H2213 H 0.35602 0.85009 0.33359 0.0
H2214 H 0.31422 0.89353 0.34006 0.0
H2215 H 0.23678 0.83716 0.28814 0.0
H2216 H 0.33898 0.82028 0.3117 0.0
H2217 H 0.25003 0.73473 0.21045 0.0
H2218 H 0.34158 0.87855 0.3429 0.0
H2219 H 0.35685 0.76941 0.25385 0.0
H2220 H 0.26908 0.76296 0.23247 0.0
H2221 H 0.37108 0.7416 0.24286 0.0
H2222 H 0.28222 0.89041 0.32694 0.0
H2223 H 0.26361 0.70756 0.19461 0.0
H2224 H 0.29097 0.69252 0.19108 0.0
H2225 H 0.25345 0.86969 0.30739 0.0
H2226 H 0.32353 0.69389 0.20063 0.0
N2227 N 0.29482 0.75435 0.22801 0.0
C2228 C 0.27604 0.75244 0.22496 0.0
C2229 C 0.27242 0.72047 0.20399 0.0
C2230 C 0.29117 0.72149 0.20825 0.0
C2231 C 0.26475 0.73581 0.21278 0.0
C2232 C 0.30209 0.73862 0.2207 0.0
H2233 H 0.35317 0.71172 0.22028 0.0
N2234 N 0.33012 0.75512 0.23935 0.0
C2235 C 0.35668 0.74051 0.23837 0.0
C2236 C 0.32024 0.73905 0.22654 0.0
C2237 C 0.34831 0.75616 0.24495 0.0
C2238 C 0.34658 0.72376 0.22554 0.0
C2239 C 0.32817 0.72286 0.21943 0.0
O2240 O 0.3457 0.79813 0.24417 0.0
O2241 O 0.31613 0.80818 0.27016 0.0
O2242 O 0.27773 0.80373 0.26234 0.0
O2243 O 0.29105 0.79252 0.23389 0.0
O2244 O 0.31613 0.81457 0.24199 0.0
O2245 O 0.32809 0.78276 0.21786 0.0
O2246 O 0.26928 0.78957 0.302 0.0
O2247 O 0.30232 0.77546 0.27066 0.0
O2248 O 0.33526 0.78218 0.27338 0.0
O2249 O 0.31964 0.78915 0.30097 0.0
O2250 O 0.27508 0.77116 0.27709 0.0
O2251 O 0.29595 0.79527 0.3197 0.0
C2252 C 0.31632 0.8215 0.26033 0.0
C2253 C 0.35306 0.80911 0.21512 0.0
C2254 C 0.35118 0.83116 0.19249 0.0
C2255 C 0.34248 0.81693 0.20269 0.0
C2256 C 0.37051 0.83777 0.19489 0.0
C2257 C 0.37238 0.81564 0.21735 0.0
C2258 C 0.38106 0.82997 0.20728 0.0
C2259 C 0.27784 0.79981 0.24302 0.0
C2260 C 0.34435 0.79355 0.22524 0.0
C2261 C 0.3176 0.70632 0.20635 0.0
C2262 C 0.29911 0.7056 0.20084 0.0
C2263 C 0.28735 0.76299 0.26886 0.0
C2264 C 0.26791 0.78367 0.33456 0.0
C2265 C 0.27576 0.77351 0.34687 0.0
C2266 C 0.26558 0.7658 0.36095 0.0
C2267 C 0.24765 0.7686 0.36316 0.0
C2268 C 0.2499 0.78651 0.33661 0.0
C2269 C 0.23986 0.77909 0.35103 0.0
C2270 C 0.33411 0.78416 0.29251 0.0
C2271 C 0.27795 0.78959 0.31857 0.0
H2272 H 0.32754 0.81186 0.20073 0.0
H2273 H 0.37742 0.84855 0.1868 0.0
H2274 H 0.38074 0.8095 0.22673 0.0
H2275 H 0.39597 0.83485 0.20888 0.0
H2276 H 0.2895 0.77089 0.34505 0.0
H2277 H 0.23969 0.76253 0.37408 0.0
H2278 H 0.2436 0.79425 0.32698 0.0
H2279 H 0.22597 0.7812 0.3526 0.0
Eu2280 Eu 0.57774 0.04333 0.51326 0.0
C2281 C 0.50629 0.00758 0.54835 0.0
C2282 C 0.49022 0.98086 0.5224 0.0
C2283 C 0.48644 0.97815 0.55608 0.0
C2284 C 0.50255 0.99952 0.5287 0.0
C2285 C 0.49795 0.99719 0.56225 0.0
C2286 C 0.48255 0.97002 0.53619 0.0
C2287 C 0.51143 0.02601 0.58713 0.0
N2288 N 0.51725 0.0261 0.55383 0.0
C2289 C 0.51922 0.0358 0.57278 0.0
C2290 C 0.50096 1.0065 0.58188 0.0
Eu2291 Eu 0.53088 0.04121 0.52891 0.0
N2292 N 0.51003 0.01046 0.51574 0.0
C2293 C 0.50474 1.00417 0.49628 0.0
C2294 C 0.48543 0.97396 0.50244 0.0
C2295 C 0.49246 0.98585 0.48936 0.0
H2296 H 0.52724 0.05093 0.5768 0.0
H2297 H 0.48853 0.98086 0.47391 0.0
H2298 H 0.4732 0.95558 0.53161 0.0
H2299 H 0.51346 0.03353 0.6022 0.0
H2300 H 0.51004 0.01303 0.48588 0.0
H2301 H 0.61702 0.10657 0.56724 0.0
H2302 H 0.47594 0.95976 0.49701 0.0
H2303 H 0.58004 0.03296 0.46495 0.0
H2304 H 0.59683 0.0734 0.55591 0.0
H2305 H 0.5943 0.04954 0.43927 0.0
H2306 H 0.48004 0.96985 0.56655 0.0
H2307 H 0.63026 0.12647 0.54345 0.0
H2308 H 0.63437 0.12888 0.50863 0.0
H2309 H 0.49484 0.99899 0.593 0.0
H2310 H 0.62838 0.11336 0.47393 0.0
N2311 N 0.59806 0.07447 0.52581 0.0
C2312 C 0.60246 0.08179 0.54527 0.0
C2313 C 0.62136 0.11185 0.53833 0.0
C2314 C 0.61755 0.10387 0.51843 0.0
C2315 C 0.61394 0.10066 0.55181 0.0
C2316 C 0.60575 0.08483 0.51252 0.0
H2317 H 0.61369 0.08374 0.448 0.0
N2318 N 0.59099 0.05775 0.48774 0.0
C2319 C 0.59653 0.05724 0.45428 0.0
C2320 C 0.60222 0.07618 0.49294 0.0
C2321 C 0.58849 0.04791 0.46879 0.0
C2322 C 0.60747 0.07655 0.45928 0.0
C2323 C 0.61057 0.08621 0.4788 0.0
O2324 O 0.58905 0.01792 0.50159 0.0
O2325 O 0.55107 0.02359 0.51752 0.0
O2326 O 0.54579 0.02802 0.54999 0.0
O2327 O 0.57642 0.04144 0.54508 0.0
O2328 O 0.56194 0.01575 0.49185 0.0
O2329 O 0.60358 0.03886 0.52675 0.0
O2330 O 0.51924 0.06588 0.54204 0.0
O2331 O 0.55757 0.06128 0.52475 0.0
O2332 O 0.56296 0.05638 0.49215 0.0
O2333 O 0.53232 0.04306 0.497 0.0
O2334 O 0.5467 0.06805 0.55078 0.0
O2335 O 0.50622 0.04743 0.51481 0.0
C2336 C 0.54883 0.01017 0.50243 0.0
C2337 C 0.62124 0.02097 0.50587 0.0
C2338 C 0.64942 0.00812 0.50579 0.0
C2339 C 0.63317 0.01093 0.51436 0.0
C2340 C 0.65321 0.01501 0.48843 0.0
C2341 C 0.62563 0.02796 0.48876 0.0
C2342 C 0.64141 0.02486 0.48005 0.0
C2343 C 0.56372 0.03242 0.555 0.0
C2344 C 0.60365 0.02288 0.51404 0.0
C2345 C 0.62196 0.10536 0.4846 0.0
C2346 C 0.62538 0.11419 0.50436 0.0
C2347 C 0.55953 0.07433 0.54018 0.0
C2348 C 0.48742 0.06362 0.5355 0.0
C2349 C 0.47767 0.07674 0.52891 0.0
C2350 C 0.46127 0.07963 0.53691 0.0
C2351 C 0.45467 0.06923 0.55142 0.0
C2352 C 0.48039 0.05307 0.54974 0.0
C2353 C 0.46412 0.05592 0.55767 0.0
C2354 C 0.54512 0.05171 0.48695 0.0
C2355 C 0.50556 0.06232 0.5286 0.0
H2356 H 0.62988 1.00545 0.52756 0.0
H2357 H 0.6653 0.01264 0.48122 0.0
H2358 H 0.61672 0.03553 0.48191 0.0
H2359 H 0.64447 0.03004 0.46667 0.0
H2360 H 0.48304 0.08504 0.51799 0.0
H2361 H 0.44211 0.07135 0.5578 0.0
H2362 H 0.48758 0.04287 0.55495 0.0
H2363 H 0.4589 0.0479 0.56881 0.0
Eu2364 Eu 0.28164 0.29781 0.76932 0.0
C2365 C 0.34633 0.269 0.80661 0.0
C2366 C 0.3574 0.29565 0.8344 0.0
C2367 C 0.36094 0.26229 0.83584 0.0
C2368 C 0.34859 0.2887 0.81534 0.0
C2369 C 0.35301 0.25569 0.81654 0.0
C2370 C 0.36308 0.28224 0.84478 0.0
C2371 C 0.34555 0.23101 0.78688 0.0
N2372 N 0.3389 0.26319 0.78788 0.0
C2373 C 0.3392 0.24478 0.77765 0.0
C2374 C 0.3522 0.23638 0.80651 0.0
Eu2375 Eu 0.32803 0.28698 0.77302 0.0
N2376 N 0.34335 0.30133 0.80471 0.0
C2377 C 0.34788 0.32138 0.81189 0.0
C2378 C 0.36092 0.316 0.84219 0.0
C2379 C 0.35641 0.32895 0.83075 0.0
H2380 H 0.33408 0.24062 0.76243 0.0
H2381 H 0.35938 0.34478 0.83647 0.0
H2382 H 0.36973 0.28728 0.85947 0.0
H2383 H 0.34532 0.21628 0.77884 0.0
H2384 H 0.34429 0.33176 0.80364 0.0
H2385 H 0.25104 0.23803 0.7072 0.0
H2386 H 0.36759 0.32191 0.85678 0.0
H2387 H 0.27761 0.3453 0.77767 0.0
H2388 H 0.26657 0.25214 0.73965 0.0
H2389 H 0.26598 0.36861 0.76014 0.0
H2390 H 0.36598 0.25224 0.84377 0.0
H2391 H 0.2411 0.25979 0.68663 0.0
H2392 H 0.23774 0.29376 0.68315 0.0
H2393 H 0.35723 0.22574 0.81361 0.0
H2394 H 0.24171 0.32917 0.6975 0.0
N2395 N 0.2663 0.28225 0.73798 0.0
C2396 C 0.26241 0.26212 0.73121 0.0
C2397 C 0.24805 0.26623 0.70102 0.0
C2398 C 0.25109 0.28664 0.70834 0.0
C2399 C 0.25357 0.2539 0.7126 0.0
C2400 C 0.26034 0.29434 0.72714 0.0
H2401 H 0.25204 0.35709 0.72615 0.0
N2402 N 0.27112 0.32119 0.75348 0.0
C2403 C 0.26514 0.35345 0.75287 0.0
C2404 C 0.26278 0.31435 0.73513 0.0
C2405 C 0.27177 0.34027 0.7627 0.0
C2406 C 0.25729 0.34689 0.73369 0.0
C2407 C 0.25579 0.32709 0.72467 0.0
O2408 O 0.267 0.30666 0.79467 0.0
O2409 O 0.3046 0.29438 0.78962 0.0
O2410 O 0.30815 0.2585 0.77887 0.0
O2411 O 0.27911 0.2646 0.77149 0.0
O2412 O 0.2945 0.32016 0.79602 0.0
O2413 O 0.25261 0.28307 0.77213 0.0
O2414 O 0.34349 0.27678 0.74884 0.0
O2415 O 0.30508 0.29043 0.75262 0.0
O2416 O 0.30174 0.32596 0.76299 0.0
O2417 O 0.33067 0.32048 0.77187 0.0
O2418 O 0.31522 0.26483 0.7462 0.0
O2419 O 0.35564 0.30392 0.76852 0.0
C2420 C 0.30548 0.31008 0.80223 0.0
C2421 C 0.23422 0.30129 0.79245 0.0
C2422 C 0.20476 0.30105 0.80767 0.0
C2423 C 0.22037 0.2926 0.80375 0.0
C2424 C 0.20387 0.31855 0.80079 0.0
C2425 C 0.23217 0.31831 0.7855 0.0
C2426 C 0.21734 0.32697 0.78981 0.0
C2427 C 0.28972 0.25247 0.77577 0.0
C2428 C 0.25147 0.29384 0.78896 0.0
C2429 C 0.24707 0.31958 0.70577 0.0
C2430 C 0.24478 0.29942 0.69761 0.0
C2431 C 0.30438 0.27492 0.73982 0.0
C2432 C 0.3763 0.28644 0.75145 0.0
C2433 C 0.38819 0.29288 0.73739 0.0
C2434 C 0.40549 0.28735 0.73581 0.0
C2435 C 0.41031 0.27504 0.74806 0.0
C2436 C 0.38187 0.2744 0.76352 0.0
C2437 C 0.39861 0.26862 0.76169 0.0
C2438 C 0.32008 0.33233 0.76688 0.0
C2439 C 0.35785 0.29151 0.75314 0.0
H2440 H 0.22165 0.27939 0.80923 0.0
H2441 H 0.19261 0.32585 0.80391 0.0
H2442 H 0.24224 0.32518 0.77692 0.0
H2443 H 0.21627 0.34036 0.7846 0.0
H2444 H 0.38414 0.30225 0.72798 0.0
H2445 H 0.42329 0.27041 0.74712 0.0
H2446 H 0.37324 0.2694 0.77438 0.0
H2447 H 0.40262 0.25915 0.771 0.0
Eu2448 Eu 0.05085 0.06568 0.53183 0.0
C2449 C 0.06938 0.99795 0.47053 0.0
C2450 C 0.04082 0.98407 0.44974 0.0
C2451 C 0.06982 0.97824 0.43837 0.0
C2452 C 0.05039 0.99531 0.46748 0.0
C2453 C 0.07928 0.98932 0.45605 0.0
C2454 C 0.05064 0.97561 0.43524 0.0
C2455 C 0.10711 1.00222 0.47794 0.0
N2456 N 0.07815 0.00851 0.48782 0.0
C2457 C 0.09668 0.01025 0.49193 0.0
C2458 C 0.09839 0.99177 0.45988 0.0
Eu2459 Eu 0.05943 0.01955 0.51167 0.0
N2460 N 0.04126 1.00372 0.48177 0.0
C2461 C 0.02244 1.0013 0.47908 0.0
C2462 C 0.02164 0.98158 0.44706 0.0
C2463 C 0.01244 0.99028 0.46178 0.0
H2464 H 0.1034 0.01789 0.5061 0.0
H2465 H 0.9976 0.98857 0.45982 0.0
H2466 H 0.0435 0.96694 0.42156 0.0
H2467 H 0.12182 1.00387 0.4812 0.0
H2468 H 0.01481 0.00804 0.48989 0.0
H2469 H 0.10633 0.09148 0.59158 0.0
H2470 H 0.01382 0.97305 0.43367 0.0
H2471 H 0.00757 0.07205 0.53092 0.0
H2472 H 0.09283 0.07696 0.55843 0.0
H2473 H 0.9865 0.08471 0.55348 0.0
H2474 H 0.0772 0.97151 0.4271 0.0
H2475 H 0.0867 0.10246 0.6167 0.0
H2476 H 0.05564 0.10764 0.62528 0.0
H2477 H 0.10646 0.98537 0.44912 0.0
H2478 H 0.02308 0.10578 0.61498 0.0
N2479 N 0.06524 0.07873 0.56409 0.0
C2480 C 0.08383 0.0815 0.56892 0.0
C2481 C 0.08056 0.09589 0.60202 0.0
C2482 C 0.06173 0.09393 0.59692 0.0
C2483 C 0.09168 0.08978 0.5879 0.0
C2484 C 0.05437 0.08522 0.57758 0.0
H2485 H 0.99726 0.09737 0.58829 0.0
N2486 N 0.02968 0.07657 0.55293 0.0
C2487 C 1.00036 0.0845 0.55886 0.0
C2488 C 0.03605 0.0841 0.57183 0.0
C2489 C 0.0123 0.0773 0.54615 0.0
C2490 C 0.00647 0.09161 0.5785 0.0
C2491 C 0.02459 0.09175 0.58517 0.0
O2492 O 0.04165 0.08654 0.51624 0.0
O2493 O 0.05137 0.04618 0.50218 0.0
O2494 O 0.08158 0.04227 0.50111 0.0
O2495 O 0.08114 0.06866 0.52569 0.0
O2496 O 0.02774 0.05596 0.50716 0.0
O2497 O 0.0682 0.09557 0.53307 0.0
O2498 O 0.07348 1.00028 0.52488 0.0
O2499 O 0.05903 0.03902 0.54118 0.0
O2500 O 0.02653 0.04415 0.54058 0.0
O2501 O 0.02999 0.01538 0.52062 0.0
O2502 O 0.0831 0.02994 0.53547 0.0
O2503 O 0.04432 0.98993 0.51492 0.0
C2504 C 0.03591 0.04719 0.49359 0.0
C2505 C 0.0534 0.12077 0.5259 0.0
C2506 C 0.05493 0.15202 0.51499 0.0
C2507 C 0.05994 0.13371 0.51342 0.0
C2508 C 0.04356 0.15753 0.52933 0.0
C2509 C 0.04227 0.12648 0.54041 0.0
C2510 C 0.03743 0.14487 0.54212 0.0
C2511 C 0.08941 0.06005 0.51149 0.0
C2512 C 0.05639 0.10058 0.52164 0.0
C2513 C 0.03169 0.09988 0.60453 0.0
C2514 C 0.05022 0.10095 0.61039 0.0
C2515 C 0.07476 0.03816 0.54922 0.0
C2516 C 0.06169 0.96565 0.51868 0.0
C2517 C 0.0527 0.95161 0.52903 0.0
C2518 C 0.05678 0.93274 0.52701 0.0
C2519 C 0.07 0.92811 0.51438 0.0
C2520 C 0.07468 0.96073 0.50602 0.0
C2521 C 0.07879 0.94201 0.50391 0.0
C2522 C 0.02027 0.02521 0.53235 0.0
C2523 C 0.05884 0.98593 0.52322 0.0
H2524 H 0.06826 0.12917 0.50194 0.0
H2525 H 0.03946 0.1716 0.5306 0.0
H2526 H 0.03699 0.11661 0.55004 0.0
H2527 H 0.02864 0.14916 0.55315 0.0
H2528 H 0.04272 0.95554 0.53887 0.0
H2529 H 0.07381 0.91388 0.51287 0.0
H2530 H 0.08195 0.97144 0.49814 0.0
H2531 H 0.08906 0.93837 0.49438 0.0
Eu2532 Eu 0.32586 0.80817 0.76886 0.0
C2533 C 0.2745 0.74263 0.79912 0.0
C2534 C 0.28097 0.71276 0.78035 0.0
C2535 C 0.2693 0.71206 0.81198 0.0
C2536 C 0.28069 0.7331 0.78258 0.0
C2537 C 0.26821 0.73203 0.81372 0.0
C2538 C 0.27568 0.70245 0.79533 0.0
C2539 C 0.25753 0.76067 0.82917 0.0
N2540 N 0.27296 0.7617 0.80008 0.0
C2541 C 0.26363 0.77038 0.81415 0.0
C2542 C 0.2601 0.74151 0.82914 0.0
Eu2543 Eu 0.28348 0.77728 0.77424 0.0
N2544 N 0.28515 0.74329 0.76809 0.0
C2545 C 0.28903 0.73366 0.7506 0.0
C2546 C 0.28589 0.70316 0.76284 0.0
C2547 C 0.28974 0.71362 0.74783 0.0
H2548 H 0.26115 0.78497 0.81385 0.0
H2549 H 0.29319 0.70623 0.73408 0.0
H2550 H 0.27591 0.68686 0.7939 0.0
H2551 H 0.25064 0.76785 0.84062 0.0
H2552 H 0.29198 0.74138 0.73873 0.0
H2553 H 0.31595 0.87999 0.80685 0.0
H2554 H 0.28627 0.68757 0.76058 0.0
H2555 H 0.34837 0.79894 0.7296 0.0
H2556 H 0.31669 0.84477 0.80308 0.0
H2557 H 0.36067 0.8157 0.70328 0.0
H2558 H 0.26464 0.70373 0.8231 0.0
H2559 H 0.32422 0.89811 0.78022 0.0
H2560 H 0.33589 0.89811 0.74737 0.0
H2561 H 0.2551 0.73387 0.84063 0.0
H2562 H 0.34793 0.8806 0.71908 0.0
N2563 N 0.32454 0.84225 0.77407 0.0
C2564 C 0.3202 0.85223 0.79116 0.0
C2565 C 0.32439 0.88248 0.77834 0.0
C2566 C 0.32979 0.87252 0.76129 0.0
C2567 C 0.31977 0.87233 0.79342 0.0
C2568 C 0.32976 0.85214 0.75955 0.0
H2569 H 0.35743 0.84998 0.70263 0.0
N2570 N 0.33746 0.82309 0.74301 0.0
C2571 C 0.35374 0.82329 0.71442 0.0
C2572 C 0.33638 0.84225 0.74352 0.0
C2573 C 0.34675 0.81384 0.7293 0.0
C2574 C 0.35182 0.8426 0.71406 0.0
C2575 C 0.34343 0.8525 0.72895 0.0
O2576 O 0.35324 0.80165 0.76938 0.0
O2577 O 0.31427 0.77726 0.77535 0.0
O2578 O 0.29832 0.78393 0.80405 0.0
O2579 O 0.32033 0.81161 0.80051 0.0
O2580 O 0.33137 0.77874 0.75339 0.0
O2581 O 0.34832 0.82632 0.79007 0.0
O2582 O 0.25603 0.78353 0.7746 0.0
O2583 O 0.29504 0.80816 0.76777 0.0
O2584 O 0.31091 0.80212 0.73901 0.0
O2585 O 0.28863 0.77468 0.7426 0.0
O2586 O 0.27775 0.80667 0.78953 0.0
O2587 O 0.26067 0.75907 0.75345 0.0
C2588 C 0.32308 0.76677 0.76385 0.0
C2589 C 0.3787 0.82791 0.78081 0.0
C2590 C 0.412 0.83295 0.78623 0.0
C2591 C 0.39423 0.82266 0.78864 0.0
C2592 C 0.4142 0.84832 0.77555 0.0
C2593 C 0.38097 0.84332 0.77021 0.0
C2594 C 0.3987 0.85336 0.76746 0.0
C2595 C 0.31139 0.79977 0.8112 0.0
C2596 C 0.36043 0.8165 0.7834 0.0
C2597 C 0.34269 0.87252 0.73019 0.0
C2598 C 0.33586 0.8825 0.74632 0.0
C2599 C 0.28612 0.81867 0.77913 0.0
C2600 C 0.23052 0.75732 0.76335 0.0
C2601 C 0.21496 0.76057 0.75347 0.0
C2602 C 0.19723 0.75071 0.75655 0.0
C2603 C 0.19515 0.73784 0.76994 0.0
C2604 C 0.22833 0.7442 0.77645 0.0
C2605 C 0.21067 0.73466 0.77987 0.0
C2606 C 0.29738 0.78665 0.73191 0.0
C2607 C 0.24866 0.7688 0.76053 0.0
H2608 H 0.39249 0.81078 0.7969 0.0
H2609 H 0.42788 0.85636 0.7735 0.0
H2610 H 0.36917 0.84764 0.76415 0.0
H2611 H 0.40042 0.86516 0.75917 0.0
H2612 H 0.21666 0.77066 0.74328 0.0
H2613 H 0.18152 0.73035 0.77277 0.0
H2614 H 0.24012 0.74135 0.78406 0.0
H2615 H 0.20902 0.72477 0.7902 0.0
Eu2616 Eu 0.55974 0.03169 0.0436 0.0
C2617 C 0.51334 0.05766 0.97751 0.0
C2618 C 0.49663 0.02547 0.95958 0.0
C2619 C 0.48377 0.05449 0.95921 0.0
C2620 C 0.51217 0.03753 0.97164 0.0
C2621 C 0.49928 0.06643 0.97113 0.0
C2622 C 0.48241 0.03403 0.9535 0.0
C2623 C 0.51719 0.09831 0.98826 0.0
N2624 N 0.52827 0.06872 0.98941 0.0
C2625 C 0.5307 0.08892 0.99429 0.0
C2626 C 0.50131 0.08699 0.97678 0.0
Eu2627 Eu 0.55114 0.05219 0.99858 0.0
N2628 N 0.52608 0.02969 0.97795 0.0
C2629 C 0.5255 0.00987 0.97201 0.0
C2630 C 0.49581 1.00514 0.95397 0.0
C2631 C 0.51035 0.99734 0.96016 0.0
H2632 H 0.54306 0.09776 1.00304 0.0
H2633 H 0.50989 0.98163 0.95587 0.0
H2634 H 0.47037 0.02498 0.94428 0.0
H2635 H 0.51906 0.11427 0.99243 0.0
H2636 H 0.53634 1.00329 0.97675 0.0
H2637 H 0.59615 0.105 0.08506 0.0
H2638 H 0.48408 0.99537 0.94481 0.0
H2639 H 0.57249 0.98798 0.03936 0.0
H2640 H 0.57108 0.08109 0.064 0.0
H2641 H 0.59845 0.97466 0.05046 0.0
H2642 H 0.47279 0.06093 0.95425 0.0
H2643 H 0.62349 0.09419 0.097 0.0
H2644 H 0.6399 0.06672 0.0984 0.0
H2645 H 0.49085 0.09428 0.97213 0.0
H2646 H 0.64061 0.03144 0.08892 0.0
N2647 N 0.58371 0.05639 0.06361 0.0
C2648 C 0.58266 0.07581 0.06914 0.0
C2649 C 0.61241 0.08347 0.08774 0.0
C2650 C 0.61331 0.06354 0.08245 0.0
C2651 C 0.597 0.08961 0.08106 0.0
C2652 C 0.59855 0.05017 0.07025 0.0
H2653 H 0.62533 0.99713 0.07104 0.0
N2654 N 0.58491 0.01802 0.0526 0.0
C2655 C 0.59893 0.9904 0.05441 0.0
C2656 C 0.59911 0.03039 0.06467 0.0
C2657 C 0.58431 0.99807 0.04802 0.0
C2658 C 0.61403 1.00312 0.06606 0.0
C2659 C 0.61421 0.02334 0.07147 0.0
O2660 O 0.5478 1.00582 0.05535 0.0
O2661 O 0.5402 0.03378 0.01973 0.0
O2662 O 0.53831 0.06887 0.0224 0.0
O2663 O 0.54422 0.05647 0.05071 0.0
O2664 O 0.53671 1.00646 0.02731 0.0
O2665 O 0.54832 0.03585 0.0718 0.0
O2666 O 0.56672 0.07656 0.98673 0.0
O2667 O 0.57054 0.04978 0.02227 0.0
O2668 O 0.57082 0.01384 0.01942 0.0
O2669 O 0.564 0.02547 0.99094 0.0
O2670 O 0.57381 0.07748 0.01543 0.0
O2671 O 0.56413 0.0459 0.97185 0.0
C2672 C 0.52978 0.01675 0.01654 0.0
C2673 C 0.53546 0.0074 0.08635 0.0
C2674 C 0.51964 0.01007 0.11544 0.0
C2675 C 0.52767 0.01868 0.10063 0.0
C2676 C 0.51941 0.99017 0.11619 0.0
C2677 C 0.5353 0.98744 0.08704 0.0
C2678 C 0.52729 0.97889 0.10197 0.0
C2679 C 0.53716 0.06829 0.04105 0.0
C2680 C 0.54412 0.01661 0.07107 0.0
C2681 C 0.6289 0.03659 0.08359 0.0
C2682 C 0.62847 0.05666 0.08902 0.0
C2683 C 0.58105 0.06674 0.02543 0.0
C2684 C 0.5685 0.07066 0.95281 0.0
C2685 C 0.57888 0.06324 0.93858 0.0
C2686 C 0.57933 0.06971 0.92093 0.0
C2687 C 0.56912 0.08358 0.91729 0.0
C2688 C 0.55795 0.08429 0.94916 0.0
C2689 C 0.55827 0.09067 0.93136 0.0
C2690 C 0.57069 0.01349 1.00058 0.0
C2691 C 0.57022 0.06474 0.97157 0.0
H2692 H 0.52779 0.03412 0.10028 0.0
H2693 H 0.51331 0.98351 0.12782 0.0
H2694 H 0.54149 0.97853 0.07618 0.0
H2695 H 0.52727 0.96357 0.10258 0.0
H2696 H 0.58719 0.05288 0.94149 0.0
H2697 H 0.56954 0.08881 0.90365 0.0
H2698 H 0.5498 0.09022 0.96007 0.0
H2699 H 0.55031 0.1013 0.92857 0.0
Eu2700 Eu 0.3182 0.32279 0.28288 0.0
C2701 C 0.2547 0.25363 0.24374 0.0
C2702 C 0.23564 0.24946 0.27026 0.0
C2703 C 0.22147 0.24056 0.237 0.0
C2704 C 0.25309 0.25551 0.26342 0.0
C2705 C 0.23901 0.24539 0.23026 0.0
C2706 C 0.21979 0.24265 0.257 0.0
C2707 C 0.25943 0.24405 0.20469 0.0
N2708 N 0.27188 0.25778 0.23776 0.0
C2709 C 0.27452 0.25196 0.21868 0.0
C2710 C 0.24154 0.24111 0.21047 0.0
Eu2711 Eu 0.29722 0.27088 0.26194 0.0
N2712 N 0.26879 0.26131 0.27572 0.0
C2713 C 0.26805 0.25958 0.29479 0.0
C2714 C 0.23478 0.24928 0.29009 0.0
C2715 C 0.25111 0.25396 0.30233 0.0
H2716 H 0.2884 0.25376 0.21425 0.0
H2717 H 0.25071 0.25305 0.31755 0.0
H2718 H 0.20628 0.23808 0.262 0.0
H2719 H 0.26163 0.24 0.18952 0.0
H2720 H 0.28038 0.26234 0.30438 0.0
H2721 H 0.3563 0.3523 0.22444 0.0
H2722 H 0.22168 0.24468 0.29591 0.0
H2723 H 0.33621 0.32066 0.32769 0.0
H2724 H 0.32941 0.34157 0.24056 0.0
H2725 H 0.36595 0.3261 0.34592 0.0
H2726 H 0.20925 0.23439 0.22686 0.0
H2727 H 0.38739 0.35565 0.2404 0.0
H2728 H 0.40693 0.35462 0.2697 0.0
H2729 H 0.22986 0.23467 0.19967 0.0
H2730 H 0.40958 0.34775 0.30263 0.0
N2731 N 0.3438 0.33412 0.26472 0.0
C2732 C 0.34229 0.34064 0.24743 0.0
C2733 C 0.37535 0.34958 0.2473 0.0
C2734 C 0.37711 0.34455 0.26556 0.0
C2735 C 0.35786 0.34766 0.23825 0.0
C2736 C 0.36096 0.33641 0.27394 0.0
H2737 H 0.39459 0.33696 0.33083 0.0
N2738 N 0.34699 0.3246 0.30053 0.0
C2739 C 0.36529 0.3272 0.33071 0.0
C2740 C 0.36257 0.33176 0.29232 0.0
C2741 C 0.34822 0.32335 0.31984 0.0
C2742 C 0.38138 0.33343 0.32218 0.0
C2743 C 0.38019 0.33615 0.30295 0.0
O2744 O 0.31418 0.34028 0.31078 0.0
O2745 O 0.29273 0.29873 0.2798 0.0
O2746 O 0.29138 0.28827 0.23866 0.0
O2747 O 0.30692 0.32128 0.2514 0.0
O2748 O 0.28964 0.3262 0.27408 0.0
O2749 O 0.3256 0.35503 0.28804 0.0
O2750 O 0.30991 0.24926 0.24482 0.0
O2751 O 0.3237 0.29349 0.27176 0.0
O2752 O 0.31036 0.30538 0.30691 0.0
O2753 O 0.31053 0.27306 0.29257 0.0
O2754 O 0.31997 0.27889 0.24295 0.0
O2755 O 0.29749 0.24248 0.27077 0.0
C2756 C 0.28112 0.3083 0.27515 0.0
C2757 C 0.31135 0.37332 0.31173 0.0
C2758 C 0.29378 0.39671 0.30365 0.0
C2759 C 0.3008 0.37976 0.29812 0.0
C2760 C 0.29694 0.40686 0.32312 0.0
C2761 C 0.31442 0.38349 0.33111 0.0
C2762 C 0.30715 0.40017 0.33679 0.0
C2763 C 0.29738 0.3071 0.23706 0.0
C2764 C 0.3206 0.35719 0.30567 0.0
C2765 C 0.39606 0.34416 0.29457 0.0
C2766 C 0.39454 0.34815 0.27586 0.0
C2767 C 0.33155 0.29085 0.25642 0.0
C2768 C 0.30053 0.21535 0.24654 0.0
C2769 C 0.30557 0.20183 0.2569 0.0
C2770 C 0.30411 0.18214 0.24785 0.0
C2771 C 0.29699 0.17562 0.22834 0.0
C2772 C 0.29314 0.20888 0.22702 0.0
C2773 C 0.29119 0.18896 0.21804 0.0
C2774 C 0.31187 0.28717 0.30812 0.0
C2775 C 0.30593 0.23631 0.25592 0.0
H2776 H 0.29831 0.37176 0.28317 0.0
H2777 H 0.29184 0.42016 0.32768 0.0
H2778 H 0.32274 0.37874 0.34173 0.0
H2779 H 0.30971 0.40812 0.35171 0.0
H2780 H 0.31184 0.20696 0.27178 0.0
H2781 H 0.29617 0.16044 0.2211 0.0
H2782 H 0.28948 0.21919 0.21856 0.0
H2783 H 0.28576 0.18404 0.20294 0.0
Eu2784 Eu 0.5504 0.56617 0.03134 0.0
C2785 C 0.57027 0.50148 0.96951 0.0
C2786 C 0.54288 0.49206 0.94663 0.0
C2787 C 0.5722 0.4867 0.93579 0.0
C2788 C 0.55164 0.50038 0.96554 0.0
C2789 C 0.58067 0.49421 0.95478 0.0
C2790 C 0.55334 0.48566 0.93172 0.0
C2791 C 0.60656 0.50032 0.97907 0.0
N2792 N 0.57797 0.50836 0.98807 0.0
C2793 C 0.59563 0.50714 0.99318 0.0
C2794 C 0.59911 0.49402 0.95972 0.0
Eu2795 Eu 0.55878 0.51932 0.01151 0.0
N2796 N 0.54182 0.50615 0.9804 0.0
C2797 C 0.52294 0.5027 0.97746 0.0
C2798 C 0.52375 0.48968 0.9434 0.0
C2799 C 0.51372 0.49479 0.95896 0.0
H2800 H 0.60136 0.51176 0.0082 0.0
H2801 H 0.49884 0.49261 0.95675 0.0
H2802 H 0.54686 0.47932 0.91712 0.0
H2803 H 0.62066 0.49977 0.98314 0.0
H2804 H 0.51471 0.50646 0.9891 0.0
H2805 H 0.61113 0.59154 0.08517 0.0
H2806 H 0.51654 0.48338 0.92911 0.0
H2807 H 0.50783 0.57355 0.03558 0.0
H2808 H 0.59469 0.57779 0.05304 0.0
H2809 H 0.48914 0.58605 0.06105 0.0
H2810 H 0.57998 0.48115 0.92427 0.0
H2811 H 0.59411 0.60181 0.11305 0.0
H2812 H 0.5642 0.60678 0.12555 0.0
H2813 H 0.60753 0.48852 0.94883 0.0
H2814 H 0.53106 0.60534 0.11904 0.0
N2815 N 0.56793 0.57931 0.06213 0.0
C2816 C 0.58677 0.58207 0.0648 0.0
C2817 C 0.58665 0.59562 0.09885 0.0
C2818 C 0.56757 0.59381 0.09592 0.0
C2819 C 0.5963 0.58989 0.08316 0.0
C2820 C 0.55848 0.58556 0.07714 0.0
H2821 H 0.50305 0.59783 0.09506 0.0
N2822 N 0.53171 0.57745 0.05517 0.0
C2823 C 0.50334 0.5856 0.0648 0.0
C2824 C 0.53982 0.58462 0.07354 0.0
C2825 C 0.51392 0.57852 0.05045 0.0
C2826 C 0.51123 0.59221 0.08397 0.0
C2827 C 0.52975 0.59206 0.08851 0.0
O2828 O 0.53839 0.58639 0.01717 0.0
O2829 O 0.55044 0.54587 1.00228 0.0
O2830 O 0.58318 0.54082 1.00298 0.0
O2831 O 0.57964 0.57033 0.02173 0.0
O2832 O 0.52668 0.556 0.00743 0.0
O2833 O 0.56668 0.59591 0.03005 0.0
O2834 O 0.57028 0.49889 0.02592 0.0
O2835 O 0.55875 0.53949 0.04078 0.0
O2836 O 0.52601 0.5446 0.04005 0.0
O2837 O 0.52942 0.51557 0.02046 0.0
O2838 O 0.58245 0.52951 0.03522 0.0
O2839 O 0.54227 0.48961 0.01234 0.0
C2840 C 0.53474 0.54665 0.99417 0.0
C2841 C 0.55091 0.62088 0.0242 0.0
C2842 C 0.55408 0.65244 0.0134 0.0
C2843 C 0.55822 0.63368 0.01184 0.0
C2844 C 0.54277 0.65849 0.02757 0.0
C2845 C 0.53983 0.62715 0.03852 0.0
C2846 C 0.53583 0.64594 0.04019 0.0
C2847 C 0.58925 0.55999 0.01037 0.0
C2848 C 0.55334 0.60043 0.02023 0.0
C2849 C 0.53859 0.59966 0.10734 0.0
C2850 C 0.55746 0.6005 0.11104 0.0
C2851 C 0.57446 0.53847 0.04882 0.0
C2852 C 0.5579 0.46451 0.01765 0.0
C2853 C 0.55161 0.45154 0.03019 0.0
C2854 C 0.55575 0.43271 0.02777 0.0
C2855 C 0.56606 0.42687 0.01245 0.0
C2856 C 0.56794 0.45843 1.00224 0.0
C2857 C 0.57196 0.43963 0.99967 0.0
C2858 C 0.51979 0.52556 0.03213 0.0
C2859 C 0.55535 0.48485 0.02231 0.0
H2860 H 0.56656 0.62877 1.00054 0.0
H2861 H 0.53934 0.6729 0.02885 0.0
H2862 H 0.534 0.61742 0.04808 0.0
H2863 H 0.5271 0.65066 0.0511 0.0
H2864 H 0.54409 0.45638 0.04229 0.0
H2865 H 0.56942 0.41239 0.0103 0.0
H2866 H 0.5729 0.46829 0.99247 0.0
H2867 H 0.57986 0.43501 0.98788 0.0
Eu2868 Eu 0.82549 0.30787 0.26846 0.0
C2869 C 0.77438 0.24401 0.30088 0.0
C2870 C 0.78152 0.21401 0.28322 0.0
C2871 C 0.77057 0.21443 0.31528 0.0
C2872 C 0.7806 0.23411 0.28461 0.0
C2873 C 0.76871 0.23407 0.31611 0.0
C2874 C 0.77699 0.20443 0.29887 0.0
C2875 C 0.75749 0.26271 0.33059 0.0
N2876 N 0.77235 0.26281 0.30107 0.0
C2877 C 0.76315 0.27184 0.31505 0.0
C2878 C 0.76057 0.24387 0.3313 0.0
Eu2879 Eu 0.78281 0.27767 0.27472 0.0
N2880 N 0.78435 0.24361 0.26952 0.0
C2881 C 0.78773 0.23334 0.2521 0.0
C2882 C 0.78619 0.20387 0.26585 0.0
C2883 C 0.78899 0.21349 0.25012 0.0
H2884 H 0.76067 0.28637 0.31445 0.0
H2885 H 0.79216 0.20564 0.23644 0.0
H2886 H 0.77778 0.18906 0.29813 0.0
H2887 H 0.7507 0.27016 0.34195 0.0
H2888 H 0.78999 0.24042 0.23973 0.0
H2889 H 0.81716 0.37974 0.308 0.0
H2890 H 0.78706 0.18844 0.26422 0.0
H2891 H 0.8469 0.29933 0.22815 0.0
H2892 H 0.81863 0.3447 0.30398 0.0
H2893 H 0.85597 0.31553 0.20039 0.0
H2894 H 0.76647 0.20663 0.32693 0.0
H2895 H 0.82248 0.39745 0.28059 0.0
H2896 H 0.83131 0.39715 0.24657 0.0
H2897 H 0.75602 0.23673 0.34325 0.0
H2898 H 0.84164 0.3796 0.21712 0.0
N2899 N 0.82415 0.34194 0.27419 0.0
C2900 C 0.82097 0.35202 0.29177 0.0
C2901 C 0.82303 0.38191 0.27864 0.0
C2902 C 0.82731 0.37187 0.26101 0.0
C2903 C 0.8201 0.372 0.29416 0.0
C2904 C 0.82785 0.35164 0.25922 0.0
H2905 H 0.85097 0.34921 0.19979 0.0
N2906 N 0.83534 0.32278 0.24196 0.0
C2907 C 0.84949 0.32298 0.21203 0.0
C2908 C 0.83358 0.34175 0.24258 0.0
C2909 C 0.84418 0.31377 0.22762 0.0
C2910 C 0.84662 0.34198 0.21174 0.0
C2911 C 0.83906 0.35183 0.22739 0.0
O2912 O 0.85279 0.30143 0.26727 0.0
O2913 O 0.81355 0.2773 0.27539 0.0
O2914 O 0.79766 0.28488 0.30457 0.0
O2915 O 0.8211 0.31111 0.30039 0.0
O2916 O 0.83064 0.27808 0.25332 0.0
O2917 O 0.84866 0.32586 0.28887 0.0
O2918 O 0.75547 0.28425 0.27501 0.0
O2919 O 0.79483 0.30819 0.26787 0.0
O2920 O 0.81002 0.30139 0.23905 0.0
O2921 O 0.78785 0.274 0.24294 0.0
O2922 O 0.77763 0.30751 0.28978 0.0
O2923 O 0.76 0.25979 0.2538 0.0
C2924 C 0.82208 0.26643 0.26392 0.0
C2925 C 0.87855 0.32741 0.27838 0.0
C2926 C 0.9118 0.33415 0.28557 0.0
C2927 C 0.89399 0.32489 0.28903 0.0
C2928 C 0.91403 0.34593 0.2712 0.0
C2929 C 0.88087 0.33942 0.26429 0.0
C2930 C 0.89859 0.34854 0.26064 0.0
C2931 C 0.81153 0.30005 0.31135 0.0
C2932 C 0.86044 0.31604 0.28136 0.0
C2933 C 0.83763 0.37166 0.22871 0.0
C2934 C 0.83177 0.38166 0.24549 0.0
C2935 C 0.78636 0.31915 0.27927 0.0
C2936 C 0.72987 0.25819 0.26356 0.0
C2937 C 0.71433 0.26193 0.25409 0.0
C2938 C 0.69662 0.25162 0.25665 0.0
C2939 C 0.69449 0.23781 0.26909 0.0
C2940 C 0.72769 0.24431 0.2759 0.0
C2941 C 0.71 0.23428 0.27877 0.0
C2942 C 0.79676 0.2857 0.23212 0.0
C2943 C 0.74806 0.26962 0.26086 0.0
H2944 H 0.89211 0.31564 0.29997 0.0
H2945 H 0.92769 0.35288 0.26796 0.0
H2946 H 0.86913 0.34166 0.25603 0.0
H2947 H 0.90036 0.35755 0.24954 0.0
H2948 H 0.71601 0.27266 0.24453 0.0
H2949 H 0.68084 0.22985 0.27136 0.0
H2950 H 0.73953 0.24122 0.28329 0.0
H2951 H 0.70832 0.22369 0.28842 0.0
Eu2952 Eu 0.05783 0.53365 0.53788 0.0
C2953 C 0.00635 0.55095 0.47577 0.0
C2954 C 0.99181 0.5174 0.45919 0.0
C2955 C 0.97447 0.54323 0.46133 0.0
C2956 C 0.00749 0.53133 0.46939 0.0
C2957 C 0.98996 0.55713 0.47129 0.0
C2958 C 0.97536 0.52341 0.45541 0.0
C2959 C 0.0056 0.59081 0.48553 0.0
N2960 N 0.02126 0.56413 0.48597 0.0
C2961 C 0.02141 0.58405 0.48981 0.0
C2962 C 0.98967 0.57724 0.47656 0.0
Eu2963 Eu 0.04799 0.55178 0.49192 0.0
N2964 N 0.02368 0.5258 0.47312 0.0
C2965 C 0.02475 0.50643 0.46666 0.0
C2966 C 0.99299 0.49772 0.453 0.0
C2967 C 0.00952 0.49226 0.45672 0.0
H2968 H 0.03364 0.59489 0.49668 0.0
H2969 H 0.01057 0.47701 0.45199 0.0
H2970 H 0.96327 0.51286 0.44765 0.0
H2971 H 0.00573 0.6065 0.48917 0.0
H2972 H 0.03692 0.50109 0.46927 0.0
H2973 H 0.10013 0.6047 0.57768 0.0
H2974 H 0.98123 0.48664 0.44527 0.0
H2975 H 0.06607 0.48826 0.53349 0.0
H2976 H 0.07384 0.5827 0.55658 0.0
H2977 H 0.09037 0.47187 0.54353 0.0
H2978 H 0.96178 0.54772 0.45794 0.0
H2979 H 0.12576 0.59109 0.58952 0.0
H2980 H 0.13958 0.56151 0.59033 0.0
H2981 H 0.97739 0.5825 0.47329 0.0
H2982 H 0.13716 0.5255 0.58067 0.0
N2983 N 0.08376 0.55634 0.55676 0.0
C2984 C 0.08453 0.57626 0.56191 0.0
C2985 C 0.11405 0.58121 0.58041 0.0
C2986 C 0.11325 0.56085 0.57509 0.0
C2987 C 0.0996 0.58894 0.57379 0.0
C2988 C 0.09767 0.54865 0.56321 0.0
H2989 H 0.11894 0.49199 0.56313 0.0
N2990 N 0.0813 0.51743 0.54606 0.0
C2991 C 0.09237 0.48787 0.54742 0.0
C2992 C 0.09642 0.52854 0.55761 0.0
C2993 C 0.07875 0.49721 0.54157 0.0
C2994 C 0.10844 0.49926 0.55853 0.0
C2995 C 0.11055 0.51984 0.56396 0.0
O2996 O 0.04187 0.51041 0.55087 0.0
O2997 O 0.03753 0.53552 0.51458 0.0
O2998 O 0.03919 0.57132 0.5174 0.0
O2999 O 0.045 0.55984 0.54603 0.0
O3000 O 0.03527 0.50795 0.52165 0.0
O3001 O 0.04684 0.54113 0.56582 0.0
O3002 O 0.06069 0.58135 0.487 0.0
O3003 O 0.06691 0.55524 0.5188 0.0
O3004 O 0.06731 0.51489 0.51266 0.0
O3005 O 0.06127 0.52567 0.48322 0.0
O3006 O 0.07908 0.55682 0.49281 0.0
O3007 O 0.04922 0.55709 0.46248 0.0
C3008 C 0.02749 0.51831 0.51168 0.0
C3009 C 0.04116 0.51627 0.58488 0.0
C3010 C 0.02965 0.51583 0.61637 0.0
C3011 C 0.03074 0.52339 0.59929 0.0
C3012 C 0.03931 0.5013 0.61931 0.0
C3013 C 0.05114 0.50196 0.58788 0.0
C3014 C 0.05022 0.49456 0.60515 0.0
C3015 C 0.03875 0.57192 0.53631 0.0
C3016 C 0.0396 0.52263 0.56629 0.0
C3017 C 0.12614 0.53189 0.5757 0.0
C3018 C 0.1275 0.55237 0.58124 0.0
C3019 C 0.08203 0.55799 0.51129 0.0
C3020 C 0.07294 0.58333 0.45682 0.0
C3021 C 0.08096 0.57036 0.44424 0.0
C3022 C 0.0942 0.57793 0.43243 0.0
C3023 C 0.0996 0.59856 0.43343 0.0
C3024 C 0.07832 0.6039 0.45761 0.0
C3025 C 0.09166 0.61147 0.44599 0.0
C3026 C 0.06725 0.51368 0.49357 0.0
C3027 C 0.05797 0.57573 0.46809 0.0
H3028 H 0.02281 0.53424 0.59689 0.0
H3029 H 0.03835 0.49521 0.63248 0.0
H3030 H 0.05922 0.49619 0.57681 0.0
H3031 H 0.05769 0.48334 0.60739 0.0
H3032 H 0.07675 0.55441 0.44335 0.0
H3033 H 0.10954 0.60464 0.42409 0.0
H3034 H 0.07198 0.61406 0.467 0.0
H3035 H 0.09562 0.62733 0.44647 0.0
Eu3036 Eu 0.78201 0.79901 0.27312 0.0
C3037 C 0.84838 0.77118 0.30513 0.0
C3038 C 0.86343 0.79991 0.32951 0.0
C3039 C 0.86597 0.76699 0.33381 0.0
C3040 C 0.85208 0.79146 0.31195 0.0
C3041 C 0.85573 0.75878 0.31575 0.0
C3042 C 0.86986 0.78754 0.34066 0.0
C3043 C 0.84494 0.73159 0.28858 0.0
N3044 N 0.83909 0.7638 0.2873 0.0
C3045 C 0.83827 0.74455 0.27848 0.0
C3046 C 0.85343 0.73866 0.30745 0.0
Eu3047 Eu 0.82769 0.78636 0.27086 0.0
N3048 N 0.84596 0.80306 0.30064 0.0
C3049 C 0.85186 0.82334 0.30561 0.0
C3050 C 0.86882 0.8206 0.33489 0.0
C3051 C 0.86333 0.83233 0.32266 0.0
H3052 H 0.83222 0.73915 0.26363 0.0
H3053 H 0.86776 0.84837 0.32644 0.0
H3054 H 0.87842 0.79378 0.35423 0.0
H3055 H 0.84374 0.71624 0.28169 0.0
H3056 H 0.84785 0.83303 0.29682 0.0
H3057 H 0.74404 0.73685 0.21624 0.0
H3058 H 0.87768 0.82763 0.34813 0.0
H3059 H 0.77678 0.84622 0.27931 0.0
H3060 H 0.76073 0.75228 0.24777 0.0
H3061 H 0.76699 0.86898 0.25977 0.0
H3062 H 0.87159 0.75767 0.34222 0.0
H3063 H 0.73752 0.75753 0.1928 0.0
H3064 H 0.73845 0.79142 0.1857 0.0
H3065 H 0.85887 0.72868 0.31514 0.0
H3066 H 0.74481 0.82756 0.19752 0.0
N3067 N 0.76448 0.78215 0.24297 0.0
C3068 C 0.75826 0.7619 0.2381 0.0
C3069 C 0.74498 0.76458 0.20682 0.0
C3070 C 0.75035 0.78527 0.21221 0.0
C3071 C 0.74857 0.75288 0.22003 0.0
C3072 C 0.75999 0.79374 0.23071 0.0
H3073 H 0.75501 0.85653 0.22525 0.0
N3074 N 0.77149 0.82148 0.25574 0.0
C3075 C 0.76619 0.85363 0.25317 0.0
C3076 C 0.76366 0.81405 0.2373 0.0
C3077 C 0.77179 0.84073 0.26414 0.0
C3078 C 0.75949 0.84656 0.23369 0.0
C3079 C 0.75768 0.82645 0.22565 0.0
O3080 O 0.76797 0.81215 0.2971 0.0
O3081 O 0.80586 0.79313 0.29051 0.0
O3082 O 0.80763 0.75741 0.27519 0.0
O3083 O 0.77899 0.76598 0.27631 0.0
O3084 O 0.79728 0.81914 0.30025 0.0
O3085 O 0.75448 0.78391 0.28004 0.0
O3086 O 0.84176 0.77284 0.24709 0.0
O3087 O 0.8037 0.79186 0.2535 0.0
O3088 O 0.80206 0.82807 0.26908 0.0
O3089 O 0.83063 0.81941 0.26782 0.0
O3090 O 0.81242 0.7657 0.24417 0.0
O3091 O 0.85417 0.80224 0.26239 0.0
C3092 C 0.80805 0.80796 0.30445 0.0
C3093 C 0.73509 0.80392 0.29613 0.0
C3094 C 0.7047 0.80228 0.30951 0.0
C3095 C 0.72132 0.79531 0.3075 0.0
C3096 C 0.70266 0.81832 0.30065 0.0
C3097 C 0.73194 0.81937 0.28711 0.0
C3098 C 0.71605 0.82664 0.28955 0.0
C3099 C 0.7894 0.75262 0.2763 0.0
C3100 C 0.75317 0.79788 0.29445 0.0
C3101 C 0.74925 0.81823 0.20676 0.0
C3102 C 0.74561 0.79766 0.20003 0.0
C3103 C 0.8015 0.77669 0.23993 0.0
C3104 C 0.87448 0.78289 0.24737 0.0
C3105 C 0.88728 0.79073 0.23468 0.0
C3106 C 0.90462 0.78523 0.23342 0.0
C3107 C 0.90846 0.77139 0.24444 0.0
C3108 C 0.87926 0.76954 0.25838 0.0
C3109 C 0.89594 0.76367 0.25673 0.0
C3110 C 0.82027 0.83281 0.26787 0.0
C3111 C 0.8559 0.78776 0.24871 0.0
H3112 H 0.72344 0.78328 0.3145 0.0
H3113 H 0.69056 0.82455 0.30231 0.0
H3114 H 0.74191 0.82611 0.27834 0.0
H3115 H 0.71409 0.83888 0.28277 0.0
H3116 H 0.8839 0.80118 0.22615 0.0
H3117 H 0.92135 0.76653 0.24358 0.0
H3118 H 0.87003 0.76348 0.26823 0.0
H3119 H 0.89925 0.75312 0.26514 0.0
Eu3120 Eu 0.81718 0.28523 0.75026 0.0
C3121 C 0.78588 0.34402 0.80981 0.0
C3122 C 0.81411 0.36403 0.82824 0.0
C3123 C 0.78702 0.37795 0.82634 0.0
C3124 C 0.8041 0.34589 0.81659 0.0
C3125 C 0.77705 0.35993 0.81497 0.0
C3126 C 0.80551 0.38 0.83294 0.0
C3127 C 0.74854 0.33853 0.79902 0.0
N3128 N 0.77654 0.32648 0.79875 0.0
C3129 C 0.75784 0.32323 0.79445 0.0
C3130 C 0.75827 0.3571 0.80907 0.0
Eu3131 Eu 0.79233 0.30014 0.79303 0.0
N3132 N 0.81211 0.33017 0.81172 0.0
C3133 C 0.83031 0.33208 0.81807 0.0
C3134 C 0.83251 0.3657 0.83484 0.0
C3135 C 0.84063 0.34966 0.8297 0.0
H3136 H 0.74991 0.30859 0.7878 0.0
H3137 H 0.855 0.35089 0.83444 0.0
H3138 H 0.81302 0.39397 0.84181 0.0
H3139 H 0.73381 0.33584 0.79516 0.0
H3140 H 0.83759 0.32067 0.81386 0.0
H3141 H 0.75506 0.23547 0.70685 0.0
H3142 H 0.84062 0.37936 0.84373 0.0
H3143 H 0.85903 0.27518 0.7587 0.0
H3144 H 0.77193 0.26481 0.72908 0.0
H3145 H 0.8747 0.24779 0.75107 0.0
H3146 H 0.78048 0.39031 0.83035 0.0
H3147 H 0.76979 0.20754 0.69625 0.0
H3148 H 0.79732 0.19285 0.698 0.0
H3149 H 0.75101 0.36891 0.81282 0.0
H3150 H 0.82932 0.1957 0.71082 0.0
N3151 N 0.79758 0.25553 0.73074 0.0
C3152 C 0.77942 0.25372 0.72428 0.0
C3153 C 0.77769 0.22085 0.70588 0.0
C3154 C 0.79594 0.22227 0.71284 0.0
C3155 C 0.76937 0.2366 0.71175 0.0
C3156 C 0.80568 0.23996 0.72542 0.0
H3157 H 0.858 0.21581 0.73082 0.0
N3158 N 0.83267 0.25847 0.74498 0.0
C3159 C 0.86024 0.24563 0.74612 0.0
C3160 C 0.82364 0.24143 0.73284 0.0
C3161 C 0.85108 0.26103 0.75077 0.0
C3162 C 0.85081 0.22768 0.73461 0.0
C3163 C 0.83242 0.22549 0.72754 0.0
O3164 O 0.84368 0.2972 0.74059 0.0
O3165 O 0.80814 0.3093 0.76931 0.0
O3166 O 0.77509 0.30398 0.76622 0.0
O3167 O 0.79115 0.29536 0.73919 0.0
O3168 O 0.8355 0.31545 0.76307 0.0
O3169 O 0.81822 0.29145 0.72076 0.0
O3170 O 0.76631 0.28716 0.80356 0.0
O3171 O 0.80141 0.2762 0.7739 0.0
O3172 O 0.83433 0.28214 0.7773 0.0
O3173 O 0.81813 0.28986 0.80436 0.0
O3174 O 0.77418 0.26956 0.78022 0.0
O3175 O 0.79232 0.29579 0.82299 0.0
C3176 C 0.82275 0.32244 0.77159 0.0
C3177 C 0.84762 0.30421 0.70868 0.0
C3178 C 0.85044 0.31868 0.68001 0.0
C3179 C 0.83973 0.31182 0.69411 0.0
C3180 C 0.86915 0.31789 0.6803 0.0
C3181 C 0.86642 0.30362 0.70925 0.0
C3182 C 0.87713 0.31042 0.69501 0.0
C3183 C 0.77662 0.3011 0.7471 0.0
C3184 C 0.83625 0.29747 0.72348 0.0
C3185 C 0.82278 0.20802 0.71502 0.0
C3186 C 0.8046 0.20643 0.70767 0.0
C3187 C 0.78699 0.26285 0.77148 0.0
C3188 C 0.76431 0.28235 0.83656 0.0
C3189 C 0.77221 0.2717 0.84827 0.0
C3190 C 0.76208 0.26321 0.86192 0.0
C3191 C 0.74414 0.26589 0.86448 0.0
C3192 C 0.74636 0.28516 0.83893 0.0
C3193 C 0.73637 0.27709 0.85309 0.0
C3194 C 0.83274 0.28456 0.79632 0.0
C3195 C 0.77441 0.28877 0.82085 0.0
H3196 H 0.82528 0.31255 0.69377 0.0
H3197 H 0.87754 0.32328 0.66936 0.0
H3198 H 0.87276 0.29786 0.72059 0.0
H3199 H 0.8916 0.30996 0.6954 0.0
H3200 H 0.78594 0.26915 0.84614 0.0
H3201 H 0.73622 0.25925 0.87512 0.0
H3202 H 0.74008 0.29337 0.82978 0.0
H3203 H 0.72253 0.27919 0.85498 0.0
Eu3204 Eu 0.81254 0.81404 0.78173 0.0
C3205 C 0.74541 0.749 0.75136 0.0
C3206 C 0.73186 0.73729 0.77905 0.0
C3207 C 0.71256 0.73305 0.74906 0.0
C3208 C 0.7475 0.74633 0.77043 0.0
C3209 C 0.72788 0.74205 0.74046 0.0
C3210 C 0.71453 0.73075 0.76831 0.0
C3211 C 0.74195 0.75094 0.71229 0.0
N3212 N 0.76052 0.75716 0.74298 0.0
C3213 C 0.75898 0.75725 0.7234 0.0
C3214 C 0.72628 0.74345 0.72088 0.0
Eu3215 Eu 0.78984 0.76245 0.76108 0.0
N3216 N 0.76464 0.75206 0.78041 0.0
C3217 C 0.76636 0.74965 0.79947 0.0
C3218 C 0.73397 0.7347 0.79821 0.0
C3219 C 0.75126 0.74107 0.80848 0.0
H3220 H 0.77085 0.76088 0.71554 0.0
H3221 H 0.75303 0.7394 0.82348 0.0
H3222 H 0.70257 0.72362 0.77471 0.0
H3223 H 0.74107 0.75114 0.69687 0.0
H3224 H 0.77893 0.75436 0.80868 0.0
H3225 H 0.85854 0.8225 0.72359 0.0
H3226 H 0.72232 0.72787 0.80524 0.0
H3227 H 0.82239 0.83065 0.82925 0.0
H3228 H 0.82923 0.81381 0.73743 0.0
H3229 H 0.84946 0.84624 0.85316 0.0
H3230 H 0.69914 0.72751 0.74082 0.0
H3231 H 0.88753 0.83569 0.74516 0.0
H3232 H 0.90312 0.84716 0.779 0.0
H3233 H 0.71314 0.73805 0.71207 0.0
H3234 H 0.9007 0.85356 0.81428 0.0
N3235 N 0.84081 0.82121 0.76691 0.0
C3236 C 0.84145 0.81941 0.74724 0.0
C3237 C 0.87455 0.83171 0.75141 0.0
C3238 C 0.87385 0.83433 0.77154 0.0
C3239 C 0.85823 0.82436 0.73921 0.0
C3240 C 0.85658 0.82881 0.77894 0.0
H3241 H 0.88079 0.85334 0.84203 0.0
N3242 N 0.83838 0.82728 0.80521 0.0
C3243 C 0.85137 0.84204 0.83793 0.0
C3244 C 0.8553 0.83201 0.79872 0.0
C3245 C 0.83612 0.83298 0.82441 0.0
C3246 C 0.86901 0.84604 0.83159 0.0
C3247 C 0.87113 0.84134 0.81174 0.0
O3248 O 0.80151 0.83687 0.7993 0.0
O3249 O 0.7854 0.79227 0.7723 0.0
O3250 O 0.79424 0.78051 0.7369 0.0
O3251 O 0.79941 0.81371 0.75168 0.0
O3252 O 0.78964 0.80703 0.80091 0.0
O3253 O 0.81298 0.84238 0.7725 0.0
O3254 O 0.79539 0.74608 0.73333 0.0
O3255 O 0.81556 0.78597 0.76331 0.0
O3256 O 0.81797 0.79629 0.80487 0.0
O3257 O 0.8024 0.7632 0.79194 0.0
O3258 O 0.81835 0.75847 0.76906 0.0
O3259 O 0.7831 0.73013 0.75493 0.0
C3260 C 0.77759 0.79549 0.78759 0.0
C3261 C 0.81153 0.8704 0.79642 0.0
C3262 C 0.80788 0.90365 0.79555 0.0
C3263 C 0.80491 0.88365 0.78688 0.0
C3264 C 0.81802 0.91074 0.81375 0.0
C3265 C 0.82168 0.87736 0.81471 0.0
C3266 C 0.82505 0.89756 0.82325 0.0
C3267 C 0.79506 0.79938 0.73613 0.0
C3268 C 0.80535 0.84934 0.78768 0.0
C3269 C 0.8884 0.84643 0.8045 0.0
C3270 C 0.88977 0.84283 0.78443 0.0
C3271 C 0.82706 0.77617 0.76768 0.0
C3272 C 0.80013 0.71384 0.73253 0.0
C3273 C 0.81026 0.70784 0.74684 0.0
C3274 C 0.81918 0.69222 0.7418 0.0
C3275 C 0.81839 0.68306 0.72216 0.0
C3276 C 0.79942 0.70464 0.71298 0.0
C3277 C 0.80861 0.68936 0.70782 0.0
C3278 C 0.81208 0.77737 0.80632 0.0
C3279 C 0.78933 0.72879 0.73782 0.0
H3280 H 0.79662 0.87822 0.77298 0.0
H3281 H 0.82011 0.92622 0.82069 0.0
H3282 H 0.82657 0.86728 0.82259 0.0
H3283 H 0.83269 0.90289 0.83744 0.0
H3284 H 0.81093 0.71508 0.76193 0.0
H3285 H 0.82492 0.67074 0.71794 0.0
H3286 H 0.79153 0.70909 0.70178 0.0
H3287 H 0.80787 0.68213 0.69274 0.0
Eu3288 Eu 0.53115 0.53114 0.50963 0.0
C3289 C 0.59414 0.59819 0.55487 0.0
C3290 C 0.60175 0.6183 0.53042 0.0
C3291 C 0.60843 0.6335 0.56461 0.0
C3292 C 0.59432 0.59978 0.53553 0.0
C3293 C 0.60167 0.61496 0.56962 0.0
C3294 C 0.60841 0.63518 0.54505 0.0
C3295 C 0.59719 0.59351 0.59317 0.0
N3296 N 0.58783 0.58003 0.55927 0.0
C3297 C 0.58998 0.57735 0.57806 0.0
C3298 C 0.60286 0.61246 0.58896 0.0
Eu3299 Eu 0.5765 0.55283 0.53303 0.0
N3300 N 0.58828 0.58305 0.52173 0.0
C3301 C 0.59038 0.58388 0.50255 0.0
C3302 C 0.6029 0.61924 0.51079 0.0
C3303 C 0.59737 0.6019 0.49682 0.0
H3304 H 0.58595 0.56264 0.58141 0.0
H3305 H 0.59846 0.60237 0.48157 0.0
H3306 H 0.61408 0.6495 0.54136 0.0
H3307 H 0.59853 0.5913 0.60802 0.0
H3308 H 0.58606 0.571 0.49119 0.0
H3309 H 0.50468 0.48367 0.56138 0.0
H3310 H 0.60845 0.63317 0.5063 0.0
H3311 H 0.52298 0.5206 0.46119 0.0
H3312 H 0.52052 0.51379 0.55171 0.0
H3313 H 0.51059 0.49179 0.4347 0.0
H3314 H 0.61416 0.64654 0.57575 0.0
H3315 H 0.49326 0.45289 0.53694 0.0
H3316 H 0.48848 0.4359 0.50213 0.0
H3317 H 0.60863 0.62494 0.60066 0.0
H3318 H 0.49041 0.43795 0.46768 0.0
N3319 N 0.5182 0.50137 0.52124 0.0
C3320 C 0.51549 0.50104 0.54038 0.0
C3321 C 0.50021 0.46633 0.53238 0.0
C3322 C 0.5025 0.46667 0.51281 0.0
C3323 C 0.50653 0.48367 0.54618 0.0
C3324 C 0.51151 0.48466 0.50758 0.0
H3325 H 0.49855 0.45865 0.44245 0.0
N3326 N 0.5199 0.50363 0.48362 0.0
C3327 C 0.51129 0.48979 0.44965 0.0
C3328 C 0.51251 0.4858 0.48821 0.0
C3329 C 0.51856 0.506 0.46467 0.0
C3330 C 0.5045 0.47114 0.45409 0.0
C3331 C 0.50465 0.46904 0.47355 0.0
O3332 O 0.51312 0.54384 0.49264 0.0
O3333 O 0.55104 0.56064 0.52097 0.0
O3334 O 0.55776 0.55988 0.55752 0.0
O3335 O 0.52865 0.54359 0.54246 0.0
O3336 O 0.54045 0.55446 0.49193 0.0
O3337 O 0.50384 0.53396 0.51867 0.0
O3338 O 0.59608 0.54197 0.5501 0.0
O3339 O 0.55664 0.52351 0.52158 0.0
O3340 O 0.55026 0.52403 0.48541 0.0
O3341 O 0.57936 0.54071 0.50026 0.0
O3342 O 0.56755 0.52854 0.55018 0.0
O3343 O 0.60291 0.54932 0.52227 0.0
C3344 C 0.54992 0.56808 0.50571 0.0
C3345 C 0.48096 0.53477 0.49401 0.0
C3346 C 0.44903 0.53786 0.49335 0.0
C3347 C 0.46677 0.54185 0.50311 0.0
C3348 C 0.44551 0.52626 0.47447 0.0
C3349 C 0.47729 0.52334 0.47508 0.0
C3350 C 0.4596 0.51899 0.46545 0.0
C3351 C 0.53965 0.5537 0.55833 0.0
C3352 C 0.49975 0.54149 0.50375 0.0
C3353 C 0.49646 0.45095 0.47873 0.0
C3354 C 0.49535 0.44979 0.49833 0.0
C3355 C 0.55766 0.51535 0.53634 0.0
C3356 C 0.62763 0.55098 0.5455 0.0
C3357 C 0.6406 0.54073 0.53795 0.0
C3358 C 0.65909 0.54655 0.54573 0.0
C3359 C 0.66456 0.56292 0.56118 0.0
C3360 C 0.63319 0.56743 0.56081 0.0
C3361 C 0.65161 0.57332 0.56865 0.0
C3362 C 0.56835 0.53041 0.48449 0.0
C3363 C 0.60837 0.5433 0.53765 0.0
H3364 H 0.46967 0.55092 0.51762 0.0
H3365 H 0.43204 0.52333 0.46646 0.0
H3366 H 0.48808 0.51824 0.46749 0.0
H3367 H 0.45691 0.51038 0.45078 0.0
H3368 H 0.63623 0.52812 0.52599 0.0
H3369 H 0.67874 0.56748 0.56764 0.0
H3370 H 0.6234 0.5756 0.5668 0.0
H3371 H 0.65584 0.58586 0.58062 0.0
Eu3372 Eu 0.07754 0.54387 0.01174 0.0
C3373 C 0.00854 0.50655 0.05093 0.0
C3374 C 0.99372 0.47822 0.02596 0.0
C3375 C 0.99045 0.47686 0.06001 0.0
C3376 C 1.00492 0.4976 0.03151 0.0
C3377 C 1.0009 0.4965 0.06538 0.0
C3378 C 0.98691 0.46771 0.04033 0.0
C3379 C 0.01309 0.52664 0.08911 0.0
N3380 N 0.01868 0.52551 0.05563 0.0
C3381 C 0.02045 0.53593 0.07426 0.0
C3382 C 1.00354 0.50673 0.0847 0.0
Eu3383 Eu 0.03138 0.53995 0.02996 0.0
N3384 N 0.01148 0.50828 0.018 0.0
C3385 C 0.00611 0.50102 0.99867 0.0
C3386 C 0.98921 0.47021 0.00613 0.0
C3387 C 0.99517 0.4818 0.99245 0.0
H3388 H 0.02796 0.5513 0.07767 0.0
H3389 H 0.99142 0.47594 0.97708 0.0
H3390 H 0.97844 0.45273 0.03635 0.0
H3391 H 0.01486 0.53481 0.10394 0.0
H3392 H 0.01061 0.50967 0.98784 0.0
H3393 H 0.11771 0.60712 0.06533 0.0
H3394 H 0.98071 0.45534 1.00127 0.0
H3395 H 0.08037 0.53343 0.96386 0.0
H3396 H 0.09843 0.57348 0.05414 0.0
H3397 H 0.09342 0.55042 0.93788 0.0
H3398 H 0.98465 0.46881 0.07091 0.0
H3399 H 0.12837 0.62817 0.0415 0.0
H3400 H 0.13049 0.63141 0.00655 0.0
H3401 H 0.99786 0.49956 0.09623 0.0
H3402 H 0.12408 0.61593 0.97184 0.0
N3403 N 0.09755 0.57537 0.0241 0.0
C3404 C 0.10295 0.58233 0.04347 0.0
C3405 C 0.11986 0.61334 0.03645 0.0
C3406 C 0.11528 0.60565 0.01657 0.0
C3407 C 0.11393 0.60148 0.04993 0.0
C3408 C 0.10405 0.58631 0.01077 0.0
H3409 H 0.11066 0.58558 0.94612 0.0
N3410 N 0.09003 0.55881 0.98629 0.0
C3411 C 0.09535 0.55831 0.95282 0.0
C3412 C 0.10029 0.57771 0.99126 0.0
C3413 C 0.08801 0.54874 0.96751 0.0
C3414 C 0.10503 0.57817 0.95753 0.0
C3415 C 0.10784 0.58805 0.97698 0.0
O3416 O 0.08934 0.51914 0.99903 0.0
O3417 O 0.05173 0.5232 0.01697 0.0
O3418 O 0.04795 0.52822 0.05107 0.0
O3419 O 0.0777 0.54188 0.0436 0.0
O3420 O 0.06174 0.51655 0.99031 0.0
O3421 O 0.10331 0.53918 0.02501 0.0
O3422 O 0.01995 0.56531 0.04167 0.0
O3423 O 0.05725 0.56053 0.02488 0.0
O3424 O 0.06093 0.55641 0.99131 0.0
O3425 O 0.03139 0.54129 0.99794 0.0
O3426 O 0.04713 0.56736 0.05139 0.0
O3427 O 0.00532 0.54406 0.01677 0.0
C3428 C 0.04946 0.51022 1.00148 0.0
C3429 C 0.12143 0.52182 0.00441 0.0
C3430 C 0.14935 0.50863 0.00521 0.0
C3431 C 0.13261 0.51096 0.01282 0.0
C3432 C 0.15447 0.51683 0.98885 0.0
C3433 C 0.12699 0.53002 0.98824 0.0
C3434 C 0.14333 0.52739 0.98043 0.0
C3435 C 0.06615 0.53259 0.05448 0.0
C3436 C 0.10359 0.52358 0.01191 0.0
C3437 C 0.11835 0.60764 0.98261 0.0
C3438 C 0.12201 0.61646 1.00238 0.0
C3439 C 0.05956 0.57357 0.04032 0.0
C3440 C 0.98793 0.56312 0.03671 0.0
C3441 C 0.97736 0.57439 0.02808 0.0
C3442 C 0.9611 0.57803 0.03593 0.0
C3443 C 0.95566 0.57056 0.05253 0.0
C3444 C 0.98217 0.55569 0.05323 0.0
C3445 C 0.96617 0.5595 0.06114 0.0
C3446 C 0.04275 0.55172 0.98771 0.0
C3447 C 0.00548 0.56037 0.02909 0.0
H3448 H 0.1284 0.50456 0.02532 0.0
H3449 H 0.16711 0.51498 0.98251 0.0
H3450 H 0.11863 0.5383 0.98151 0.0
H3451 H 0.14741 0.53357 0.96781 0.0
H3452 H 0.98172 0.58023 0.01534 0.0
H3453 H 0.94323 0.57328 0.05882 0.0
H3454 H 0.9901 0.54711 0.06012 0.0
H3455 H 0.9619 0.55386 0.07398 0.0
H3456 H 0.04913 0.19579 0.00789 0.0
H3457 H 0.01203 0.15951 0.95937 0.0
H3458 H 0.05606 0.16572 0.01702 0.0
H3459 H 0.01858 0.12974 0.96876 0.0
H3460 H 0.05053 0.08283 0.9725 0.0
H3461 H 0.04512 0.11452 0.96734 0.0
H3462 H 0.04381 0.13325 0.02913 0.0
H3463 H 0.04932 0.10088 0.03433 0.0
C3464 C 0.04235 0.18147 0.99917 0.0
C3465 C 0.03008 0.18037 0.98266 0.0
C3466 C 0.04624 0.16415 0.00457 0.0
C3467 C 0.03816 0.14513 0.99352 0.0
C3468 C 0.02541 0.14404 0.97749 0.0
C3469 C 0.02144 0.16126 0.97219 0.0
C3470 C 0.0493 0.09372 0.98511 0.0
C3471 C 0.05025 0.08909 0.00382 0.0
C3472 C 0.046 0.11195 0.9821 0.0
C3473 C 0.04347 0.12646 0.99769 0.0
C3474 C 0.04553 0.12244 0.01669 0.0
C3475 C 0.04878 0.10391 0.01972 0.0
H3476 H 0.19703 0.84101 0.17103 0.0
H3477 H 0.16812 0.78364 0.18026 0.0
H3478 H 0.22443 0.83815 0.19038 0.0
H3479 H 0.1955 0.7807 0.19924 0.0
H3480 H 0.24125 0.78999 0.2492 0.0
H3481 H 0.21421 0.79393 0.23022 0.0
H3482 H 0.24968 0.81978 0.19034 0.0
H3483 H 0.27685 0.81562 0.20945 0.0
C3484 C 0.19637 0.82778 0.17718 0.0
C3485 C 0.18004 0.81255 0.17378 0.0
C3486 C 0.21229 0.82605 0.18819 0.0
C3487 C 0.21247 0.80915 0.19653 0.0
C3488 C 0.19608 0.79405 0.19332 0.0
C3489 C 0.18029 0.79567 0.18214 0.0
C3490 C 0.24336 0.7967 0.23649 0.0
C3491 C 0.26139 0.8026 0.23105 0.0
C3492 C 0.22773 0.79878 0.2254 0.0
C3493 C 0.22947 0.80719 0.20853 0.0
C3494 C 0.24759 0.81336 0.20322 0.0
C3495 C 0.26325 0.81086 0.21413 0.0
H3496 H 0.50421 0.8809 0.4802 0.0
H3497 H 0.56262 0.8901 0.49701 0.0
H3498 H 0.50668 0.9167 0.48809 0.0
H3499 H 0.56501 0.92609 0.50469 0.0
H3500 H 0.55745 0.99018 0.53067 0.0
H3501 H 0.5531 0.95401 0.52796 0.0
H3502 H 0.52337 0.94492 0.47142 0.0
H3503 H 0.52879 0.98097 0.47366 0.0
C3504 C 0.51756 0.89043 0.48586 0.0
C3505 C 0.53322 0.88231 0.48777 0.0
C3506 C 0.51898 0.91108 0.49024 0.0
C3507 C 0.53605 0.92437 0.4969 0.0
C3508 C 0.55161 0.91632 0.49966 0.0
C3509 C 0.55025 0.89563 0.49504 0.0
C3510 C 0.54957 0.98042 0.51789 0.0
C3511 C 0.54291 0.98847 0.50262 0.0
C3512 C 0.54727 0.95969 0.51624 0.0
C3513 C 0.53778 0.94646 0.4995 0.0
C3514 C 0.53058 0.95458 0.48459 0.0
C3515 C 0.53354 0.97526 0.48592 0.0
H3516 H 0.50689 0.3354 0.68391 0.0
H3517 H 0.48489 0.27632 0.65044 0.0
H3518 H 0.47913 0.33312 0.70102 0.0
H3519 H 0.4575 0.27367 0.66827 0.0
H3520 H 0.40364 0.27706 0.6957 0.0
H3521 H 0.42914 0.28313 0.67504 0.0
H3522 H 0.46483 0.31803 0.72528 0.0
H3523 H 0.43935 0.31217 0.74551 0.0
C3524 C 0.49616 0.32191 0.68004 0.0
C3525 C 0.49851 0.30602 0.6657 0.0
C3526 C 0.48017 0.32049 0.69013 0.0
C3527 C 0.46585 0.30311 0.68634 0.0
C3528 C 0.46798 0.2874 0.67166 0.0
C3529 C 0.48398 0.28882 0.66156 0.0
C3530 C 0.4168 0.28653 0.70214 0.0
C3531 C 0.41933 0.2944 0.72224 0.0
C3532 C 0.43159 0.28977 0.69036 0.0
C3533 C 0.44936 0.30102 0.69833 0.0
C3534 C 0.4515 0.30953 0.71833 0.0
C3535 C 0.43681 0.30619 0.73004 0.0
H3536 H 0.03957 0.83052 0.57898 0.0
H3537 H 1.00285 0.86277 0.6094 0.0
H3538 H 0.04704 0.85598 0.55942 0.0
H3539 H 0.01002 0.88822 0.58931 0.0
H3540 H 0.04954 0.93939 0.56534 0.0
H3541 H 0.03748 0.9145 0.58463 0.0
H3542 H 0.03165 0.86815 0.53371 0.0
H3543 H 0.04355 0.89291 0.51445 0.0
C3544 C 0.0331 0.84309 0.58147 0.0
C3545 C 0.02072 0.84474 0.59577 0.0
C3546 C 0.0372 0.85755 0.57011 0.0
C3547 C 0.029 0.874 0.57273 0.0
C3548 C 0.01657 0.87571 0.58702 0.0
C3549 C 0.01238 0.86111 0.59839 0.0
C3550 C 0.04537 0.92392 0.55819 0.0
C3551 C 0.04779 0.91806 0.53842 0.0
C3552 C 0.03845 0.90969 0.56924 0.0
C3553 C 0.0339 0.88938 0.56071 0.0
C3554 C 0.03543 0.88367 0.54076 0.0
C3555 C 0.04229 0.89784 0.52974 0.0
H3556 H 0.50638 0.83005 0.86248 0.0
H3557 H 0.5155 0.80091 0.80552 0.0
H3558 H 0.47501 0.83046 0.85048 0.0
H3559 H 0.48421 0.80174 0.79321 0.0
H3560 H 0.42222 0.79743 0.78067 0.0
H3561 H 0.45 0.79016 0.79567 0.0
H3562 H 0.46538 0.85063 0.82793 0.0
H3563 H 0.43781 0.85775 0.81293 0.0
C3564 C 0.5015 0.82359 0.84741 0.0
C3565 C 0.51316 0.81567 0.83476 0.0
C3566 C 0.48365 0.82383 0.84056 0.0
C3567 C 0.47731 0.81634 0.82089 0.0
C3568 C 0.48872 0.80745 0.80848 0.0
C3569 C 0.50657 0.80706 0.81542 0.0
C3570 C 0.43158 0.80903 0.79107 0.0
C3571 C 0.42821 0.8282 0.79555 0.0
C3572 C 0.44739 0.80492 0.79958 0.0
C3573 C 0.45978 0.81984 0.81293 0.0
C3574 C 0.45597 0.8388 0.81783 0.0
C3575 C 0.44037 0.84296 0.80912 0.0
H3576 H 0.48669 0.16413 0.06619 0.0
H3577 H 0.48921 0.14676 0.12206 0.0
H3578 H 0.49378 0.13305 0.05092 0.0
H3579 H 0.49549 0.11497 0.10682 0.0
H3580 H 0.54136 0.08629 0.07921 0.0
H3581 H 0.52343 0.10885 0.09491 0.0
H3582 H 0.48781 0.09835 0.04148 0.0
H3583 H 0.50655 0.07712 0.02558 0.0
C3584 C 0.48793 0.15312 0.07496 0.0
C3585 C 0.48751 0.15752 0.09511 0.0
C3586 C 0.49193 0.13529 0.0663 0.0
C3587 C 0.49547 0.12166 0.07775 0.0
C3588 C 0.4932 0.12538 0.09772 0.0
C3589 C 0.48942 0.14336 0.1064 0.0
C3590 C 0.52963 0.08877 0.07096 0.0
C3591 C 0.52556 0.0804 0.05116 0.0
C3592 C 0.51916 0.10144 0.07997 0.0
C3593 C 0.50422 0.10547 0.06938 0.0
C3594 C 0.49945 0.09589 0.04991 0.0
C3595 C 0.5102 0.08373 0.04081 0.0
H3596 H 0.20385 0.34046 0.34795 0.0
H3597 H 0.16673 0.30741 0.29803 0.0
H3598 H 0.2302 0.33398 0.33072 0.0
H3599 H 0.19315 0.30058 0.28076 0.0
H3600 H 0.25104 0.31215 0.25416 0.0
H3601 H 0.22197 0.31668 0.26726 0.0
H3602 H 0.24066 0.3027 0.32149 0.0
H3603 H 0.26986 0.29945 0.30879 0.0
C3604 C 0.20144 0.33222 0.33311 0.0
C3605 C 0.18345 0.3243 0.32424 0.0
C3606 C 0.21641 0.32824 0.32337 0.0
C3607 C 0.21356 0.31632 0.30466 0.0
C3608 C 0.19562 0.30963 0.29525 0.0
C3609 C 0.1806 0.31352 0.30506 0.0
C3610 C 0.24851 0.30941 0.26861 0.0
C3611 C 0.26223 0.30488 0.28035 0.0
C3612 C 0.23202 0.31206 0.27611 0.0
C3613 C 0.22933 0.31039 0.29546 0.0
C3614 C 0.2426 0.30444 0.30664 0.0
C3615 C 0.25907 0.30206 0.29924 0.0
H3616 H 0.97814 0.08842 0.16128 0.0
H3617 H 0.00856 0.04786 0.1795 0.0
H3618 H 0.9917 0.08516 0.13009 0.0
H3619 H 0.02229 0.04482 0.14839 0.0
H3620 H 0.05732 0.05768 0.09593 0.0
H3621 H 0.04423 0.06163 0.1274 0.0
H3622 H 0.99187 0.06219 0.09843 0.0
H3623 H 1.00488 0.05761 0.06687 0.0
C3624 C 0.98778 0.07885 0.15888 0.0
C3625 C 0.99188 0.0684 0.17357 0.0
C3626 C 0.99558 0.07683 0.14063 0.0
C3627 C 0.00831 0.0646 0.13604 0.0
C3628 C 0.01272 0.05448 0.15087 0.0
C3629 C 1.0046 0.05615 0.16896 0.0
C3630 C 0.04303 0.05876 0.09611 0.0
C3631 C 0.03243 0.0574 0.0783 0.0
C3632 C 0.03535 0.06089 0.11442 0.0
C3633 C 0.01672 0.06232 0.1161 0.0
C3634 C 0.00623 0.06133 0.09829 0.0
C3635 C 0.01377 0.05863 0.07992 0.0
H3636 H 0.3167 0.72034 0.45161 0.0
H3637 H 0.26258 0.68322 0.43073 0.0
H3638 H 0.31634 0.73614 0.42319 0.0
H3639 H 0.26182 0.69944 0.40306 0.0
H3640 H 0.26323 0.72635 0.3523 0.0
H3641 H 0.27469 0.70611 0.37318 0.0
H3642 H 0.29751 0.7593 0.41635 0.0
H3643 H 0.28647 0.77934 0.39511 0.0
C3644 C 0.3049 0.71539 0.44078 0.0
C3645 C 0.28952 0.7009 0.4434 0.0
C3646 C 0.30468 0.7244 0.42462 0.0
C3647 C 0.28906 0.719 0.41101 0.0
C3648 C 0.27418 0.70368 0.41314 0.0
C3649 C 0.27444 0.69467 0.42918 0.0
C3650 C 0.27093 0.73354 0.36618 0.0
C3651 C 0.27359 0.75406 0.37269 0.0
C3652 C 0.27756 0.7221 0.37799 0.0
C3653 C 0.28672 0.73116 0.39643 0.0
C3654 C 0.29058 0.75196 0.40215 0.0
C3655 C 0.28403 0.76338 0.39027 0.0
H3656 H 0.64963 0.04104 0.63543 0.0
H3657 H 0.60537 0.02814 0.67185 0.0
H3658 H 0.62714 0.0339 0.607 0.0
H3659 H 0.58263 0.02083 0.64335 0.0
H3660 H 0.55603 0.04519 0.59157 0.0
H3661 H 0.57317 0.04252 0.62126 0.0
H3662 H 0.60396 1.00538 0.58701 0.0
H3663 H 0.58699 0.00849 0.55734 0.0
C3664 C 0.63502 0.03665 0.63717 0.0
C3665 C 0.62892 0.03528 0.65545 0.0
C3666 C 0.62223 0.0323 0.62102 0.0
C3667 C 0.60325 0.02658 0.62311 0.0
C3668 C 0.59721 0.02514 0.6415 0.0
C3669 C 0.61007 0.02937 0.65766 0.0
C3670 C 0.56589 0.0358 0.59058 0.0
C3671 C 0.57035 0.02698 0.57252 0.0
C3672 C 0.57569 0.03428 0.60747 0.0
C3673 C 0.58993 0.02392 0.60623 0.0
C3674 C 0.59316 0.01363 0.58817 0.0
C3675 C 0.5835 0.01534 0.57133 0.0
H3676 H 0.31894 0.3089 0.92856 0.0
H3677 H 0.28623 0.35097 0.91888 0.0
H3678 H 0.32121 0.30057 0.89343 0.0
H3679 H 0.28796 0.34219 0.88411 0.0
H3680 H 0.31319 0.34424 0.82831 0.0
H3681 H 0.3127 0.34899 0.86339 0.0
H3682 H 0.3039 0.28557 0.86016 0.0
H3683 H 0.30474 0.28087 0.82456 0.0
C3684 C 0.31212 0.31627 0.919 0.0
C3685 C 0.30254 0.33079 0.92673 0.0
C3686 C 0.3133 0.31135 0.89883 0.0
C3687 C 0.30508 0.32097 0.88591 0.0
C3688 C 0.29484 0.33478 0.8936 0.0
C3689 C 0.29361 0.33964 0.91364 0.0
C3690 C 0.31148 0.33131 0.83509 0.0
C3691 C 0.309 0.31221 0.82366 0.0
C3692 C 0.31099 0.334 0.85522 0.0
C3693 C 0.30775 0.31765 0.86464 0.0
C3694 C 0.30634 0.29851 0.85339 0.0
C3695 C 0.3069 0.29579 0.83302 0.0
H3696 H 0.00592 0.09769 0.38943 0.0
H3697 H 0.98596 0.03417 0.37178 0.0
H3698 H 0.01948 0.09281 0.42017 0.0
H3699 H 1.00014 0.02948 0.40221 0.0
H3700 H 0.04093 0.02663 0.45553 0.0
H3701 H 0.02923 0.03121 0.42364 0.0
H3702 H 0.0119 0.08325 0.45131 0.0
H3703 H 0.02192 0.07765 0.48292 0.0
C3704 C 1.00419 0.08261 0.39179 0.0
C3705 C 0.99435 0.06648 0.37719 0.0
C3706 C 0.01221 0.07977 0.40978 0.0
C3707 C 0.01119 0.06063 0.41431 0.0
C3708 C 1.00171 0.04451 0.39967 0.0
C3709 C 0.99344 0.04733 0.3818 0.0
C3710 C 0.03437 0.03882 0.4551 0.0
C3711 C 0.03215 0.0512 0.47271 0.0
C3712 C 0.02764 0.04162 0.43645 0.0
C3713 C 0.01918 0.05762 0.43427 0.0
C3714 C 0.0181 0.07067 0.45177 0.0
C3715 C 0.02404 0.06737 0.47028 0.0
H3716 H 0.25595 0.72739 0.61199 0.0
H3717 H 0.30363 0.70904 0.63418 0.0
H3718 H 0.25885 0.75264 0.64181 0.0
H3719 H 0.30673 0.73437 0.6634 0.0
H3720 H 0.32025 0.79143 0.70319 0.0
H3721 H 0.31406 0.77369 0.66964 0.0
H3722 H 0.25754 0.75025 0.67966 0.0
H3723 H 0.26374 0.7681 0.71335 0.0
C3724 C 0.26693 0.72871 0.62326 0.0
C3725 C 0.27973 0.71654 0.6208 0.0
C3726 C 0.26866 0.74318 0.6401 0.0
C3727 C 0.28331 0.74566 0.65442 0.0
C3728 C 0.2957 0.73308 0.65218 0.0
C3729 C 0.29387 0.71858 0.63556 0.0
C3730 C 0.30638 0.78319 0.6981 0.0
C3731 C 0.2926 0.78083 0.71088 0.0
C3732 C 0.30284 0.77298 0.67894 0.0
C3733 C 0.28543 0.7605 0.67237 0.0
C3734 C 0.27106 0.75984 0.68451 0.0
C3735 C 0.27466 0.76991 0.70374 0.0
H3736 H 0.61698 0.02312 0.81651 0.0
H3737 H 0.66843 0.05386 0.8502 0.0
H3738 H 0.60076 0.02644 0.84588 0.0
H3739 H 0.65236 0.05694 0.87983 0.0
H3740 H 0.60953 0.09138 0.90893 0.0
H3741 H 0.63003 0.07928 0.88597 0.0
H3742 H 0.59699 0.01941 0.87974 0.0
H3743 H 0.57652 0.03168 0.90286 0.0
C3744 C 0.62481 0.02993 0.83041 0.0
C3745 C 0.64372 0.03837 0.83145 0.0
C3746 C 0.61565 0.03172 0.84716 0.0
C3747 C 0.62538 0.04203 0.86499 0.0
C3748 C 0.64462 0.04907 0.86617 0.0
C3749 C 0.65376 0.04734 0.84938 0.0
C3750 C 0.60672 0.07568 0.90254 0.0
C3751 C 0.59132 0.06246 0.90694 0.0
C3752 C 0.61857 0.06869 0.88978 0.0
C3753 C 0.615 0.04843 0.88118 0.0
C3754 C 0.59992 0.03509 0.88619 0.0
C3755 C 0.5882 0.04208 0.89916 0.0
H3756 H 0.32328 0.36136 0.13874 0.0
H3757 H 0.27557 0.31477 0.11416 0.0
H3758 H 0.3199 0.3521 0.17044 0.0
H3759 H 0.2719 0.30586 0.14613 0.0
H3760 H 0.28859 0.28226 0.20139 0.0
H3761 H 0.28783 0.2911 0.16955 0.0
H3762 H 0.29886 0.35322 0.19649 0.0
H3763 H 0.29911 0.34425 0.22859 0.0
C3764 C 0.31213 0.34905 0.14004 0.0
C3765 C 0.29974 0.33879 0.12382 0.0
C3766 C 0.31001 0.34394 0.15832 0.0
C3767 C 0.29549 0.3284 0.16091 0.0
C3768 C 0.28323 0.31791 0.14466 0.0
C3769 C 0.28529 0.3231 0.12635 0.0
C3770 C 0.29034 0.29775 0.20069 0.0
C3771 C 0.29413 0.31248 0.21773 0.0
C3772 C 0.28999 0.30286 0.1823 0.0
C3773 C 0.29361 0.32289 0.18042 0.0
C3774 C 0.29644 0.33763 0.19742 0.0
C3775 C 0.29657 0.33248 0.21584 0.0
H3776 H 0.26183 0.0154 0.0275 0.0
H3777 H 0.22486 0.95922 1.00223 0.0
H3778 H 0.23562 0.03091 0.03168 0.0
H3779 H 0.19834 0.97483 0.00619 0.0
H3780 H 0.16009 1.00633 0.04694 0.0
H3781 H 0.18382 0.98877 0.03532 0.0
H3782 H 0.211 0.04032 0.01338 0.0
H3783 H 0.18765 0.05795 0.02567 0.0
C3784 C 0.24803 1.00652 0.02253 0.0
C3785 C 0.24519 0.98623 0.01456 0.0
C3786 C 0.23306 0.01537 0.02479 0.0
C3787 C 0.21498 1.00406 0.01917 0.0
C3788 C 0.21217 0.98383 0.01066 0.0
C3789 C 0.22724 0.97497 0.00825 0.0
C3790 C 0.17113 0.01371 0.0395 0.0
C3791 C 0.17249 0.03348 0.03745 0.0
C3792 C 0.18453 1.00367 0.03269 0.0
C3793 C 0.19928 0.0133 0.0236 0.0
C3794 C 0.19994 0.03273 0.02065 0.0
C3795 C 0.1867 0.0428 0.02766 0.0
H3796 H 0.68789 0.64159 0.98283 0.0
H3797 H 0.70828 0.6093 0.02303 0.0
H3798 H 0.65659 0.62162 0.9828 0.0
H3799 H 0.67698 0.58944 0.02307 0.0
H3800 H 0.62048 0.54515 0.00452 0.0
H3801 H 0.65186 0.56359 1.0018 0.0
H3802 H 0.63231 0.61775 0.006 0.0
H3803 H 0.60106 0.59936 0.00889 0.0
C3804 C 0.68577 0.63013 0.99155 0.0
C3805 C 0.70075 0.6272 1.00298 0.0
C3806 C 0.66775 0.61876 0.99165 0.0
C3807 C 0.66413 0.60387 1.00296 0.0
C3808 C 0.67917 0.60063 0.01406 0.0
C3809 C 0.69715 0.61219 0.01417 0.0
C3810 C 0.62279 0.5609 0.00455 0.0
C3811 C 0.60811 0.57066 0.0068 0.0
C3812 C 0.64087 0.57156 1.0032 0.0
C3813 C 0.64474 0.59224 0.00368 0.0
C3814 C 0.62992 0.60186 0.0054 0.0
C3815 C 0.61196 0.59129 0.00713 0.0
H3816 H 0.72571 0.40744 0.2381 0.0
H3817 H 0.73594 0.42686 0.30021 0.0
H3818 H 0.74244 0.38122 0.2399 0.0
H3819 H 0.75261 0.40102 0.302 0.0
H3820 H 0.77285 0.34434 0.30634 0.0
H3821 H 0.75745 0.37102 0.30347 0.0
H3822 H 0.76597 0.3641 0.24255 0.0
H3823 H 0.78142 0.33674 0.24567 0.0
C3824 C 0.7315 0.40648 0.25228 0.0
C3825 C 0.72878 0.4201 0.26898 0.0
C3826 C 0.74137 0.39102 0.25333 0.0
C3827 C 0.74936 0.38794 0.27117 0.0
C3828 C 0.74675 0.40171 0.28778 0.0
C3829 C 0.73688 0.41707 0.28673 0.0
C3830 C 0.77174 0.3485 0.29224 0.0
C3831 C 0.77892 0.33787 0.27641 0.0
C3832 C 0.76271 0.36428 0.29053 0.0
C3833 C 0.75991 0.37075 0.2727 0.0
C3834 C 0.76731 0.36019 0.25672 0.0
C3835 C 0.77656 0.34431 0.25851 0.0
H3836 H 0.91747 0.53592 0.52885 0.0
H3837 H 0.92457 0.48616 0.55503 0.0
H3838 H 0.94785 0.53846 0.51764 0.0
H3839 H 0.95584 0.49055 0.54621 0.0
H3840 H 1.00099 0.48389 0.50862 0.0
H3841 H 0.96923 0.48217 0.51718 0.0
H3842 H 0.97875 0.54626 0.52423 0.0
H3843 H 0.00893 0.54733 0.51447 0.0
C3844 C 0.92577 0.52603 0.53288 0.0
C3845 C 0.91823 0.51026 0.54197 0.0
C3846 C 0.94327 0.52753 0.52652 0.0
C3847 C 0.95393 0.51404 0.53028 0.0
C3848 C 0.94752 0.5004 0.54215 0.0
C3849 C 0.92973 0.49837 0.5478 0.0
C3850 C 0.99585 0.49737 0.51127 0.0
C3851 C 0.00743 0.51583 0.51094 0.0
C3852 C 0.97789 0.49652 0.51655 0.0
C3853 C 0.97165 0.51419 0.52192 0.0
C3854 C 0.98288 0.53231 0.52009 0.0
C3855 C 1.00041 0.53299 0.51447 0.0
H3856 H 0.3388 0.10168 0.31275 0.0
H3857 H 0.38747 0.1479 0.31297 0.0
H3858 H 0.31972 0.12142 0.29948 0.0
H3859 H 0.36842 0.16791 0.29984 0.0
H3860 H 0.33635 0.17133 0.24244 0.0
H3861 H 0.35364 0.15738 0.265 0.0
H3862 H 0.30834 0.15321 0.30136 0.0
H3863 H 0.29111 0.16725 0.27866 0.0
C3864 C 0.34517 0.11663 0.31108 0.0
C3865 C 0.36441 0.12351 0.31388 0.0
C3866 C 0.33433 0.12784 0.30335 0.0
C3867 C 0.34274 0.14591 0.2983 0.0
C3868 C 0.36174 0.15383 0.30338 0.0
C3869 C 0.37257 0.14262 0.31115 0.0
C3870 C 0.32998 0.16687 0.25498 0.0
C3871 C 0.31232 0.16968 0.2587 0.0
C3872 C 0.33997 0.1594 0.2681 0.0
C3873 C 0.33237 0.15463 0.28505 0.0
C3874 C 0.31446 0.1569 0.28843 0.0
C3875 C 0.30455 0.16458 0.27539 0.0
H3876 H 0.38066 0.14924 0.54409 0.0
H3877 H 0.38485 0.13872 0.48212 0.0
H3878 H 0.4061 0.13354 0.54884 0.0
H3879 H 0.41128 0.12385 0.48698 0.0
H3880 H 0.43998 0.07453 0.50282 0.0
H3881 H 0.41826 0.09445 0.49502 0.0
H3882 H 0.43788 0.13617 0.54899 0.0
H3883 H 0.45877 0.11557 0.55701 0.0
C3884 C 0.38708 0.14364 0.53142 0.0
C3885 C 0.38043 0.14498 0.51268 0.0
C3886 C 0.40198 0.1349 0.53419 0.0
C3887 C 0.41093 0.1274 0.51832 0.0
C3888 C 0.40465 0.12924 0.49956 0.0
C3889 C 0.38959 0.13795 0.49677 0.0
C3890 C 0.43979 0.08817 0.51277 0.0
C3891 C 0.45088 0.09354 0.53052 0.0
C3892 C 0.42741 0.09966 0.50832 0.0
C3893 C 0.426 0.11682 0.52152 0.0
C3894 C 0.43813 0.12279 0.5387 0.0
C3895 C 0.45026 0.11115 0.54325 0.0
H3896 H 0.75049 0.61973 0.25335 0.0
H3897 H 0.71604 0.63967 0.29655 0.0
H3898 H 0.76625 0.65421 0.25398 0.0
H3899 H 0.73195 0.67415 0.29739 0.0
H3900 H 0.75299 0.73695 0.28282 0.0
H3901 H 0.73718 0.70248 0.28236 0.0
H3902 H 0.7876 0.68364 0.27019 0.0
H3903 H 0.80327 0.71804 0.27045 0.0
C3904 C 0.74612 0.63135 0.26302 0.0
C3905 C 0.7317 0.62624 0.27491 0.0
C3906 C 0.75543 0.65145 0.26353 0.0
C3907 C 0.75073 0.66768 0.27578 0.0
C3908 C 0.7362 0.66256 0.28755 0.0
C3909 C 0.72705 0.64245 0.28722 0.0
C3910 C 0.76087 0.72557 0.28015 0.0
C3911 C 0.77976 0.73095 0.27687 0.0
C3912 C 0.75168 0.7055 0.27996 0.0
C3913 C 0.76079 0.68956 0.27625 0.0
C3914 C 0.77969 0.69497 0.27292 0.0
C3915 C 0.78891 0.71507 0.27329 0.0
H3916 H 0.84828 0.44649 0.81882 0.0
H3917 H 0.82907 0.43988 0.75819 0.0
H3918 H 0.83595 0.4112 0.81732 0.0
H3919 H 0.81688 0.40436 0.75675 0.0
H3920 H 0.79456 0.34032 0.76566 0.0
H3921 H 0.79556 0.37591 0.77295 0.0
H3922 H 0.85331 0.38744 0.7938 0.0
H3923 H 0.85234 0.35183 0.78638 0.0
C3924 C 0.84069 0.43768 0.80542 0.0
C3925 C 0.83982 0.44569 0.78848 0.0
C3926 C 0.83371 0.41755 0.80461 0.0
C3927 C 0.82578 0.40537 0.7869 0.0
C3928 C 0.82295 0.41371 0.77056 0.0
C3929 C 0.83004 0.43387 0.77132 0.0
C3930 C 0.80736 0.35047 0.77204 0.0
C3931 C 0.82329 0.34357 0.77601 0.0
C3932 C 0.80788 0.37069 0.77618 0.0
C3933 C 0.82434 0.38405 0.78431 0.0
C3934 C 0.84034 0.37716 0.78801 0.0
C3935 C 0.83988 0.35698 0.7836 0.0
H3936 H 0.07541 0.91921 0.09162 0.0
H3937 H 0.07841 0.89411 0.03162 0.0
H3938 H 0.06985 0.94917 0.08254 0.0
H3939 H 0.07129 0.9238 0.02189 0.0
H3940 H 0.06965 0.98726 0.01084 0.0
H3941 H 0.0754 0.95571 0.01738 0.0
H3942 H 0.05136 0.96601 0.07207 0.0
H3943 H 0.04804 0.99802 0.06641 0.0
C3944 C 0.07455 0.91999 0.07632 0.0
C3945 C 0.07719 0.904 0.06244 0.0
C3946 C 0.07103 0.9373 0.0709 0.0
C3947 C 0.06931 0.93929 0.05118 0.0
C3948 C 0.07236 0.92331 0.03722 0.0
C3949 C 0.07642 0.90608 0.04279 0.0
C3950 C 0.06537 0.98249 0.02409 0.0
C3951 C 0.05799 0.99509 0.03792 0.0
C3952 C 0.06874 0.96429 0.02799 0.0
C3953 C 0.06447 0.95793 0.04569 0.0
C3954 C 0.05591 0.97021 0.05872 0.0
C3955 C 0.05339 0.98859 0.05522 0.0
H3956 H 0.94256 0.29864 0.85803 0.0
H3957 H 0.91092 0.24584 0.8743 0.0
H3958 H 0.91544 0.3018 0.8391 0.0
H3959 H 0.88379 0.24855 0.85453 0.0
H3960 H 0.83278 0.26984 0.83079 0.0
H3961 H 0.85945 0.26585 0.85078 0.0
H3962 H 0.8959 0.28945 0.81047 0.0
H3963 H 0.86949 0.29363 0.79099 0.0
C3964 C 0.92985 0.28763 0.8577 0.0
C3965 C 0.92931 0.27202 0.8681 0.0
C3966 C 0.91414 0.28931 0.84646 0.0
C3967 C 0.89704 0.27543 0.84495 0.0
C3968 C 0.89645 0.25975 0.85529 0.0
C3969 C 0.91224 0.25804 0.86655 0.0
C3970 C 0.84651 0.27422 0.82626 0.0
C3971 C 0.84879 0.28194 0.80907 0.0
C3972 C 0.86191 0.27179 0.83768 0.0
C3973 C 0.88021 0.27736 0.83254 0.0
C3974 C 0.88231 0.28515 0.81534 0.0
C3975 C 0.86698 0.28732 0.80388 0.0
H3976 H 0.5487 0.19529 0.5655 0.0
H3977 H 0.6011 0.20329 0.54073 0.0
H3978 H 0.54554 0.15936 0.55842 0.0
H3979 H 0.59784 0.16706 0.53371 0.0
H3980 H 0.56978 0.09587 0.51095 0.0
H3981 H 0.57477 0.13218 0.51342 0.0
H3982 H 0.56581 0.13866 0.5742 0.0
H3983 H 0.56177 0.10294 0.57203 0.0
C3984 C 0.55943 0.18947 0.55823 0.0
C3985 C 0.57526 0.20247 0.55392 0.0
C3986 C 0.55766 0.16877 0.5543 0.0
C3987 C 0.57153 0.16026 0.5457 0.0
C3988 C 0.58691 0.17308 0.54037 0.0
C3989 C 0.58882 0.19389 0.54457 0.0
C3990 C 0.56947 0.10512 0.52496 0.0
C3991 C 0.56559 0.09638 0.54136 0.0
C3992 C 0.57215 0.12593 0.52633 0.0
C3993 C 0.57043 0.13835 0.54398 0.0
C3994 C 0.56702 0.12958 0.56035 0.0
C3995 C 0.56481 0.10905 0.5591 0.0
H3996 H 0.60384 0.80286 0.36206 0.0
H3997 H 0.62049 0.75649 0.38695 0.0
H3998 H 0.63111 0.80621 0.34412 0.0
H3999 H 0.64794 0.75979 0.36867 0.0
H4000 H 0.70541 0.7925 0.34644 0.0
H4001 H 0.67881 0.78483 0.36561 0.0
H4002 H 0.6418 0.78546 0.31636 0.0
H4003 H 0.66794 0.79258 0.29736 0.0
C4004 C 0.61336 0.79343 0.36386 0.0
C4005 C 0.60977 0.7794 0.37607 0.0
C4006 C 0.629 0.79523 0.35337 0.0
C4007 C 0.6418 0.78319 0.35476 0.0
C4008 C 0.63848 0.76936 0.36723 0.0
C4009 C 0.62261 0.76736 0.3776 0.0
C4010 C 0.69156 0.79049 0.33959 0.0
C4011 C 0.68896 0.79353 0.32038 0.0
C4012 C 0.67629 0.7862 0.35062 0.0
C4013 C 0.65809 0.78502 0.34273 0.0
C4014 C 0.65555 0.78677 0.32316 0.0
C4015 C 0.67063 0.79079 0.3122 0.0
H4016 H 0.05902 0.24495 0.45063 0.0
H4017 H 0.11152 0.2296 0.44097 0.0
H4018 H 0.05108 0.2184 0.46881 0.0
H4019 H 0.10349 0.20271 0.4591 0.0
H4020 H 0.0896 0.17321 0.51278 0.0
H4021 H 0.09889 0.19732 0.49174 0.0
H4022 H 0.0429 0.18298 0.46437 0.0
H4023 H 0.03364 0.15966 0.48607 0.0
C4024 C 0.06876 0.2357 0.45218 0.0
C4025 C 0.08582 0.23924 0.44426 0.0
C4026 C 0.0642 0.22042 0.46255 0.0
C4027 C 0.07655 0.20827 0.46521 0.0
C4028 C 0.09371 0.21189 0.4574 0.0
C4029 C 0.09832 0.22727 0.44704 0.0
C4030 C 0.07941 0.17526 0.50216 0.0
C4031 C 0.0609 0.16505 0.50115 0.0
C4032 C 0.0847 0.1889 0.49004 0.0
C4033 C 0.07156 0.19229 0.47659 0.0
C4034 C 0.05324 0.18112 0.47495 0.0
C4035 C 0.04793 0.16774 0.48725 0.0
H4036 H 0.60676 0.2914 0.20022 0.0
H4037 H 0.58402 0.23604 0.21818 0.0
H4038 H 0.6378 0.28967 0.21217 0.0
H4039 H 0.6148 0.23432 0.23007 0.0
H4040 H 0.67139 0.22422 0.23137 0.0
H4041 H 0.6428 0.22862 0.21583 0.0
H4042 H 0.65663 0.2909 0.24292 0.0
H4043 H 0.68567 0.2865 0.25791 0.0
C4044 C 0.60839 0.27902 0.20692 0.0
C4045 C 0.59305 0.26376 0.20816 0.0
C4046 C 0.62612 0.27799 0.21367 0.0
C4047 C 0.62871 0.26168 0.22171 0.0
C4048 C 0.61327 0.24679 0.22343 0.0
C4049 C 0.59564 0.2478 0.21672 0.0
C4050 C 0.66831 0.23884 0.23383 0.0
C4051 C 0.68034 0.25493 0.24607 0.0
C4052 C 0.65201 0.24138 0.22501 0.0
C4053 C 0.64732 0.25999 0.22858 0.0
C4054 C 0.65991 0.27639 0.23996 0.0
C4055 C 0.6764 0.27388 0.2486 0.0
H4056 H 0.61577 0.91255 0.98412 0.0
H4057 H 0.63425 0.94006 0.93608 0.0
H4058 H 0.60656 0.9427 0.999 0.0
H4059 H 0.62459 0.9701 0.95064 0.0
H4060 H 0.60379 0.0222 0.98644 0.0
H4061 H 0.62348 0.99862 0.97737 0.0
H4062 H 0.57868 0.95028 0.98399 0.0
H4063 H 0.55954 0.97391 0.99367 0.0
C4064 C 0.61867 0.92545 0.97728 0.0
C4065 C 0.62539 0.9241 0.95892 0.0
C4066 C 0.61322 0.94256 0.98562 0.0
C4067 C 0.61424 0.9583 0.97551 0.0
C4068 C 0.62351 0.95804 0.95859 0.0
C4069 C 0.62912 0.94093 0.95031 0.0
C4070 C 0.59817 1.00642 0.98538 0.0
C4071 C 0.58024 0.99953 0.99028 0.0
C4072 C 0.60943 0.99306 0.9805 0.0
C4073 C 0.60273 0.97278 0.98052 0.0
C4074 C 0.58439 0.96594 0.98451 0.0
C4075 C 0.57329 0.97928 0.98956 0.0
H4076 H 0.90879 0.73869 0.70386 0.0
H4077 H 0.94176 0.79161 0.74136 0.0
H4078 H 0.88186 0.74315 0.72086 0.0
H4079 H 0.91447 0.79639 0.75802 0.0
H4080 H 0.85929 0.78255 0.79029 0.0
H4081 H 0.88931 0.77947 0.77838 0.0
H4082 H 0.86514 0.77114 0.71923 0.0
H4083 H 0.83545 0.77404 0.73112 0.0
C4084 C 0.91036 0.751 0.71603 0.0
C4085 C 0.92721 0.76498 0.7212 0.0
C4086 C 0.89495 0.75367 0.72558 0.0
C4087 C 0.89618 0.77035 0.74036 0.0
C4088 C 0.9133 0.78351 0.74656 0.0
C4089 C 0.92877 0.78084 0.73698 0.0
C4090 C 0.86073 0.78057 0.77482 0.0
C4091 C 0.84551 0.77887 0.7615 0.0
C4092 C 0.87771 0.77875 0.76805 0.0
C4093 C 0.87924 0.77472 0.74796 0.0
C4094 C 0.86411 0.7739 0.73478 0.0
C4095 C 0.84729 0.77579 0.74153 0.0
H4096 H 0.09774 0.98885 0.86236 0.0
H4097 H 0.13387 0.04666 0.88194 0.0
H4098 H 0.08426 0.99167 0.89355 0.0
H4099 H 0.12018 0.04967 0.91277 0.0
H4100 H 0.10408 0.04559 0.97474 0.0
H4101 H 0.11714 0.04175 0.94349 0.0
H4102 H 0.06515 1.00454 0.91625 0.0
H4103 H 0.0522 0.0082 0.94773 0.0
C4104 C 0.10299 1.00223 0.87318 0.0
C4105 C 0.11725 0.01746 0.86888 0.0
C4106 C 0.09498 1.00397 0.89134 0.0
C4107 C 0.10086 0.02094 0.9065 0.0
C4108 C 0.11509 0.03612 0.90214 0.0
C4109 C 0.12295 0.03447 0.88396 0.0
C4110 C 0.09528 0.03649 0.96221 0.0
C4111 C 0.0768 0.02731 0.96444 0.0
C4112 C 0.10286 0.03437 0.94388 0.0
C4113 C 0.09249 0.02287 0.92652 0.0
C4114 C 0.07403 0.01344 0.92881 0.0
C4115 C 0.06641 0.01565 0.94717 0.0
H4116 H 0.80044 0.38783 0.60948 0.0
H4117 H 0.84617 0.36864 0.58241 0.0
H4118 H 0.80208 0.36622 0.63313 0.0
H4119 H 0.84841 0.34812 0.60631 0.0
H4120 H 0.84451 0.30349 0.64164 0.0
H4121 H 0.83205 0.31838 0.61639 0.0
H4122 H 0.82506 0.36723 0.66038 0.0
H4123 H 0.83668 0.35168 0.68559 0.0
C4124 C 0.8107 0.37889 0.60854 0.0
C4125 C 0.82328 0.37994 0.59433 0.0
C4126 C 0.81168 0.36666 0.62203 0.0
C4127 C 0.82522 0.35539 0.62133 0.0
C4128 C 0.83754 0.35627 0.60689 0.0
C4129 C 0.8365 0.36832 0.59344 0.0
C4130 C 0.84007 0.31728 0.64575 0.0
C4131 C 0.84194 0.32691 0.66518 0.0
C4132 C 0.83288 0.3257 0.63147 0.0
C4133 C 0.82798 0.34409 0.6365 0.0
C4134 C 0.82868 0.353 0.65616 0.0
C4135 C 0.83555 0.34434 0.67048 0.0
H4136 H 0.50278 0.04357 0.36814 0.0
H4137 H 0.46463 0.06381 0.40691 0.0
H4138 H 0.52612 0.04921 0.39567 0.0
H4139 H 0.48744 0.06863 0.43454 0.0
H4140 H 0.53198 0.08321 0.48125 0.0
H4141 H 0.51672 0.08707 0.45083 0.0
H4142 H 0.52827 0.0317 0.42186 0.0
H4143 H 0.54412 0.02855 0.45209 0.0
C4144 C 0.49953 0.04928 0.38262 0.0
C4145 C 0.4821 0.05316 0.38572 0.0
C4146 C 0.51278 0.05252 0.39827 0.0
C4147 C 0.50857 0.05935 0.41718 0.0
C4148 C 0.49123 0.06379 0.42008 0.0
C4149 C 0.47812 0.06085 0.40439 0.0
C4150 C 0.53162 0.07231 0.46811 0.0
C4151 C 0.53897 0.05564 0.46855 0.0
C4152 C 0.52289 0.0744 0.45084 0.0
C4153 C 0.52119 0.05959 0.43408 0.0
C4154 C 0.52962 0.04349 0.43446 0.0
C4155 C 0.53853 0.04156 0.45168 0.0
H4156 H 0.77304 0.7416 0.11505 0.0
H4157 H 0.83026 0.77355 0.12276 0.0
H4158 H 0.7705 0.75175 0.14949 0.0
H4159 H 0.82772 0.78318 0.15772 0.0
H4160 H 0.81028 0.80712 0.21948 0.0
H4161 H 0.81052 0.80316 0.18383 0.0
H4162 H 0.78494 0.74083 0.17775 0.0
H4163 H 0.78551 0.74464 0.21293 0.0
C4164 C 0.78505 0.75111 0.12394 0.0
C4165 C 0.80187 0.75673 0.11586 0.0
C4166 C 0.78359 0.75678 0.14383 0.0
C4167 C 0.79888 0.76825 0.15641 0.0
C4168 C 0.81561 0.7745 0.1484 0.0
C4169 C 0.81711 0.76875 0.12837 0.0
C4170 C 0.80415 0.79277 0.2104 0.0
C4171 C 0.79727 0.77629 0.21894 0.0
C4172 C 0.80455 0.79043 0.19005 0.0
C4173 C 0.79767 0.77167 0.17792 0.0
C4174 C 0.79012 0.75552 0.18656 0.0
C4175 C 0.79026 0.75773 0.20674 0.0
H4176 H 0.10616 0.0462 0.67776 0.0
H4177 H 0.12046 0.99298 0.64814 0.0
H4178 H 0.09312 0.05137 0.64669 0.0
H4179 H 0.10731 0.99806 0.61733 0.0
H4180 H 0.10395 0.02425 0.5619 0.0
H4181 H 0.11371 0.01871 0.5935 0.0
H4182 H 0.06847 0.04097 0.6177 0.0
H4183 H 0.05796 0.04583 0.58513 0.0
C4184 C 0.10667 0.0355 0.66477 0.0
C4185 C 0.11485 0.01914 0.66617 0.0
C4186 C 0.09888 0.03843 0.64669 0.0
C4187 C 0.09906 0.02537 0.62885 0.0
C4188 C 0.10693 0.00885 0.63031 0.0
C4189 C 0.11446 1.00577 0.64836 0.0
C4190 C 0.09578 0.028 0.57374 0.0
C4191 C 0.08001 0.03573 0.57026 0.0
C4192 C 0.10149 0.02464 0.59222 0.0
C4193 C 0.0921 0.02916 0.60881 0.0
C4194 C 0.07637 0.03722 0.60563 0.0
C4195 C 0.07026 0.04011 0.58674 0.0
H4196 H 0.85238 0.38424 0.41234 0.0
H4197 H 0.81033 0.34364 0.4347 0.0
H4198 H 0.84931 0.36024 0.38209 0.0
H4199 H 0.80753 0.31928 0.4046 0.0
H4200 H 0.78732 0.30236 0.33867 0.0
H4201 H 0.79432 0.31848 0.37254 0.0
H4202 H 0.8528 0.32863 0.3652 0.0
H4203 H 0.84553 0.31283 0.33092 0.0
C4204 C 0.84284 0.36993 0.41093 0.0
C4205 C 0.83143 0.36579 0.42564 0.0
C4206 C 0.84114 0.35612 0.39367 0.0
C4207 C 0.82811 0.33789 0.39095 0.0
C4208 C 0.81748 0.33333 0.40619 0.0
C4209 C 0.81907 0.34722 0.42337 0.0
C4210 C 0.80163 0.30732 0.34447 0.0
C4211 C 0.81588 0.30627 0.33236 0.0
C4212 C 0.8057 0.31662 0.3639 0.0
C4213 C 0.82414 0.3249 0.37153 0.0
C4214 C 0.83846 0.32265 0.35963 0.0
C4215 C 0.83433 0.31356 0.34011 0.0
H4216 H 0.45158 0.06017 0.19846 0.0
H4217 H 0.48963 0.03114 0.22445 0.0
H4218 H 0.46841 0.05916 0.16929 0.0
H4219 H 0.50626 0.03004 0.19548 0.0
H4220 H 0.53844 0.0362 0.1465 0.0
H4221 H 0.52509 0.05226 0.17448 0.0
H4222 H 0.47028 0.02684 0.14539 0.0
H4223 H 0.48373 0.01084 0.11753 0.0
C4224 C 0.46377 0.054 0.19803 0.0
C4225 C 0.46937 0.04562 0.21345 0.0
C4226 C 0.47333 0.05346 0.18147 0.0
C4227 C 0.48866 0.04477 0.18039 0.0
C4228 C 0.4947 0.03722 0.19621 0.0
C4229 C 0.48507 0.03757 0.21261 0.0
C4230 C 0.52359 0.03454 0.14607 0.0
C4231 C 0.5119 0.02209 0.13045 0.0
C4232 C 0.51601 0.04376 0.16186 0.0
C4233 C 0.49674 0.04056 0.16199 0.0
C4234 C 0.48519 0.02958 0.14548 0.0
C4235 C 0.49278 0.02026 0.12976 0.0
H4236 H 0.82564 0.72046 0.90671 0.0
H4237 H 0.80278 0.77114 0.9275 0.0
H4238 H 0.82841 0.73039 0.87522 0.0
H4239 H 0.80491 0.78068 0.89574 0.0
H4240 H 0.82401 0.80213 0.84175 0.0
H4241 H 0.82591 0.79342 0.87359 0.0
H4242 H 0.80884 0.73119 0.84707 0.0
H4243 H 0.80763 0.73996 0.815 0.0
C4244 C 0.82134 0.73383 0.90465 0.0
C4245 C 0.81396 0.74496 0.91973 0.0
C4246 C 0.82272 0.7394 0.88646 0.0
C4247 C 0.81679 0.75628 0.88279 0.0
C4248 C 0.80977 0.76767 0.89801 0.0
C4249 C 0.80835 0.76208 0.9162 0.0
C4250 C 0.82105 0.78659 0.84252 0.0
C4251 C 0.81561 0.77184 0.82558 0.0
C4252 C 0.8219 0.78157 0.86094 0.0
C4253 C 0.81732 0.76159 0.86304 0.0
C4254 C 0.81261 0.74675 0.84609 0.0
C4255 C 0.81183 0.7518 0.82763 0.0
H4256 H 0.84673 0.06944 0.01596 0.0
H4257 H 0.88479 0.12634 0.03427 0.0
H4258 H 0.87256 0.05329 0.01123 0.0
H4259 H 0.91092 0.11025 0.03059 0.0
H4260 H 0.94923 0.07729 0.99425 0.0
H4261 H 0.92541 0.09501 0.00465 0.0
H4262 H 0.89728 0.04404 0.02699 0.0
H4263 H 0.92062 0.02611 0.01548 0.0
C4264 C 0.86074 0.07832 0.01934 0.0
C4265 C 0.86407 0.09892 0.02546 0.0
C4266 C 0.87551 0.06916 0.01682 0.0
C4267 C 0.89381 0.08049 0.02065 0.0
C4268 C 0.89701 0.10116 0.02731 0.0
C4269 C 0.88218 0.11034 0.02954 0.0
C4270 C 0.93792 0.07005 1.00146 0.0
C4271 C 0.93632 0.05035 0.0038 0.0
C4272 C 0.92442 0.08019 0.00759 0.0
C4273 C 0.90933 0.07081 0.01643 0.0
C4274 C 0.90846 0.05145 0.01976 0.0
C4275 C 0.92177 0.04121 0.01327 0.0
H4276 H 0.4079 0.47769 0.06585 0.0
H4277 H 0.41344 0.44107 0.01112 0.0
H4278 H 0.43934 0.49724 0.06576 0.0
H4279 H 0.44422 0.46108 0.01055 0.0
H4280 H 0.50532 0.48554 0.02237 0.0
H4281 H 0.47447 0.46704 0.025 0.0
H4282 H 0.45952 0.52133 0.05113 0.0
H4283 H 0.49098 0.54 0.04898 0.0
C4284 C 0.41573 0.47375 0.05378 0.0
C4285 C 0.40786 0.45765 0.03848 0.0
C4286 C 0.43378 0.48518 0.05361 0.0
C4287 C 0.4446 0.48084 0.03819 0.0
C4288 C 0.43663 0.46483 0.02289 0.0
C4289 C 0.4187 0.45343 0.02307 0.0
C4290 C 0.4956 0.4937 0.02878 0.0
C4291 C 0.50086 0.51448 0.03531 0.0
C4292 C 0.47767 0.48299 0.03014 0.0
C4293 C 0.46413 0.49257 0.03797 0.0
C4294 C 0.46947 0.5133 0.04506 0.0
C4295 C 0.48758 0.52409 0.04377 0.0
H4296 H 0.36237 0.65933 0.79584 0.0
H4297 H 0.39691 0.67895 0.75258 0.0
H4298 H 0.34598 0.68586 0.79405 0.0
H4299 H 0.38105 0.70551 0.75104 0.0
H4300 H 0.34533 0.74862 0.74034 0.0
H4301 H 0.36064 0.72204 0.74315 0.0
H4302 H 0.33663 0.71559 0.79692 0.0
H4303 H 0.32105 0.74281 0.79384 0.0
C4304 C 0.36675 0.66924 0.78592 0.0
C4305 C 0.38134 0.66603 0.77423 0.0
C4306 C 0.3571 0.68488 0.78487 0.0
C4307 C 0.36138 0.69867 0.77214 0.0
C4308 C 0.37626 0.69559 0.76078 0.0
C4309 C 0.38573 0.6799 0.7617 0.0
C4310 C 0.34308 0.74166 0.75289 0.0
C4311 C 0.33143 0.74852 0.76667 0.0
C4312 C 0.35228 0.72604 0.75467 0.0
C4313 C 0.35069 0.71578 0.77048 0.0
C4314 C 0.33874 0.72243 0.78432 0.0
C4315 C 0.32952 0.73835 0.78255 0.0
H4316 H 0.19703 0.5515 0.53297 0.0
H4317 H 0.18581 0.59064 0.4948 0.0
H4318 H 0.16462 0.54576 0.54053 0.0
H4319 H 0.15393 0.5848 0.50217 0.0
H4320 H 0.10606 0.59114 0.52929 0.0
H4321 H 0.13943 0.59473 0.53539 0.0
H4322 H 0.13243 0.53117 0.51845 0.0
H4323 H 0.09981 0.52767 0.51243 0.0
C4324 C 0.18752 0.55837 0.52585 0.0
C4325 C 0.19379 0.5715 0.51337 0.0
C4326 C 0.16926 0.5554 0.53043 0.0
C4327 C 0.15737 0.56571 0.52265 0.0
C4328 C 0.16324 0.57744 0.50895 0.0
C4329 C 0.1813 0.58027 0.50428 0.0
C4330 C 0.11164 0.57793 0.52776 0.0
C4331 C 0.1003 0.55913 0.52048 0.0
C4332 C 0.13058 0.57995 0.53131 0.0
C4333 C 0.13821 0.56318 0.5271 0.0
C4334 C 0.12673 0.54424 0.52188 0.0
C4335 C 0.1079 0.54229 0.51817 0.0
H4336 H 0.76968 0.98942 0.74041 0.0
H4337 H 0.72378 0.93845 0.7309 0.0
H4338 H 0.78951 0.97021 0.75327 0.0
H4339 H 0.74376 0.91872 0.74297 0.0
H4340 H 0.77254 0.90621 0.79727 0.0
H4341 H 0.75514 0.92196 0.7767 0.0
H4342 H 0.80476 0.94261 0.7497 0.0
H4343 H 0.82217 0.92711 0.77083 0.0
C4344 C 0.76419 0.97375 0.74018 0.0
C4345 C 0.74544 0.96518 0.73473 0.0
C4346 C 0.77547 0.96277 0.74754 0.0
C4347 C 0.76805 0.94311 0.74941 0.0
C4348 C 0.74968 0.934 0.74205 0.0
C4349 C 0.73834 0.9451 0.73493 0.0
C4350 C 0.7797 0.91458 0.78725 0.0
C4351 C 0.79864 0.91616 0.78586 0.0
C4352 C 0.76974 0.92316 0.77517 0.0
C4353 C 0.77859 0.93325 0.76141 0.0
C4354 C 0.79766 0.93497 0.76024 0.0
C4355 C 0.80763 0.92639 0.7724 0.0
H4356 H 0.71592 0.93421 0.55533 0.0
H4357 H 0.74038 0.95351 0.5055 0.0
H4358 H 0.69226 0.95343 0.55191 0.0
H4359 H 0.71679 0.97217 0.50191 0.0
H4360 H 0.68674 0.02074 0.51164 0.0
H4361 H 0.7092 1.00233 0.52034 0.0
H4362 H 0.66492 0.95422 0.52813 0.0
H4363 H 0.6422 0.97286 0.51934 0.0
C4364 C 0.71626 0.94254 0.54369 0.0
C4365 C 0.73004 0.94229 0.53066 0.0
C4366 C 0.70265 0.9534 0.54165 0.0
C4367 C 0.70274 0.96446 0.52674 0.0
C4368 C 0.71646 0.96406 0.51373 0.0
C4369 C 0.72989 0.95316 0.51566 0.0
C4370 C 0.68176 1.00631 0.51538 0.0
C4371 C 0.66269 0.9981 0.51444 0.0
C4372 C 0.69464 0.99574 0.52033 0.0
C4373 C 0.68885 0.97662 0.52449 0.0
C4374 C 0.6698 0.9689 0.52493 0.0
C4375 C 0.65681 0.97957 0.51994 0.0
H4376 H 0.38668 0.4576 0.79791 0.0
H4377 H 0.36384 0.45349 0.73915 0.0
H4378 H 0.37064 0.42322 0.79706 0.0
H4379 H 0.34796 0.41892 0.73828 0.0
H4380 H 0.30731 0.36101 0.74972 0.0
H4381 H 0.32275 0.39577 0.74995 0.0
H4382 H 0.37006 0.38861 0.78382 0.0
H4383 H 0.35497 0.35402 0.78313 0.0
C4384 C 0.37821 0.4496 0.78474 0.0
C4385 C 0.37689 0.45911 0.76863 0.0
C4386 C 0.36901 0.42946 0.78418 0.0
C4387 C 0.35772 0.41763 0.76758 0.0
C4388 C 0.35624 0.42714 0.75151 0.0
C4389 C 0.36565 0.44722 0.75197 0.0
C4390 C 0.32099 0.36675 0.75727 0.0
C4391 C 0.32953 0.35413 0.76656 0.0
C4392 C 0.33002 0.38691 0.75732 0.0
C4393 C 0.34789 0.39568 0.76705 0.0
C4394 C 0.35633 0.38301 0.77635 0.0
C4395 C 0.34752 0.36282 0.7759 0.0
H4396 H 0.2787 0.63845 0.23294 0.0
H4397 H 0.2624 0.64726 0.29162 0.0
H4398 H 0.2908 0.67439 0.23677 0.0
H4399 H 0.27467 0.68282 0.29529 0.0
H4400 H 0.25643 0.73374 0.26443 0.0
H4401 H 0.25494 0.69847 0.26414 0.0
H4402 H 0.31452 0.70959 0.26842 0.0
H4403 H 0.3161 0.74493 0.27014 0.0
C4404 C 0.27838 0.64794 0.24683 0.0
C4405 C 0.2694 0.64024 0.26186 0.0
C4406 C 0.28538 0.66832 0.24903 0.0
C4407 C 0.28337 0.68089 0.26622 0.0
C4408 C 0.2763 0.67308 0.28198 0.0
C4409 C 0.26938 0.65278 0.27984 0.0
C4410 C 0.26915 0.72857 0.26514 0.0
C4411 C 0.28635 0.74178 0.26662 0.0
C4412 C 0.26831 0.70861 0.26505 0.0
C4413 C 0.28467 0.70178 0.26622 0.0
C4414 C 0.30186 0.71481 0.26742 0.0
C4415 C 0.30269 0.73486 0.26803 0.0
H4416 H 0.51118 0.65959 0.46058 0.0
H4417 H 0.55021 0.69627 0.50731 0.0
H4418 H 0.51787 0.62992 0.47015 0.0
H4419 H 0.55715 0.66629 0.51669 0.0
H4420 H 0.54968 0.60131 0.53493 0.0
H4421 H 0.5443 0.63377 0.52973 0.0
H4422 H 0.54494 0.61478 0.4679 0.0
H4423 H 0.55039 0.5831 0.47304 0.0
C4424 C 0.52104 0.66145 0.47306 0.0
C4425 C 0.53017 0.68065 0.48295 0.0
C4426 C 0.52506 0.64429 0.47847 0.0
C4427 C 0.53831 0.64551 0.49408 0.0
C4428 C 0.54691 0.66463 0.50459 0.0
C4429 C 0.54301 0.68189 0.49903 0.0
C4430 C 0.54904 0.6043 0.52031 0.0
C4431 C 0.55032 0.5894 0.50439 0.0
C4432 C 0.54585 0.62288 0.51728 0.0
C4433 C 0.54364 0.62684 0.49827 0.0
C4434 C 0.54598 0.61226 0.48268 0.0
C4435 C 0.54928 0.59402 0.48568 0.0
H4436 H 0.67583 0.33209 0.7 0.0
H4437 H 0.69163 0.2953 0.65057 0.0
H4438 H 0.70318 0.33018 0.71934 0.0
H4439 H 0.71841 0.29229 0.67034 0.0
H4440 H 0.774 0.30067 0.70711 0.0
H4441 H 0.74803 0.30483 0.68641 0.0
H4442 H 0.71687 0.31134 0.73642 0.0
H4443 H 0.74258 0.30765 0.75666 0.0
C4444 C 0.68505 0.32357 0.69308 0.0
C4445 C 0.68102 0.31385 0.67341 0.0
C4446 C 0.70084 0.32217 0.70444 0.0
C4447 C 0.71336 0.31084 0.69679 0.0
C4448 C 0.70947 0.30132 0.67704 0.0
C4449 C 0.69372 0.30282 0.66564 0.0
C4450 C 0.76168 0.30319 0.71374 0.0
C4451 C 0.76089 0.30413 0.73395 0.0
C4452 C 0.74656 0.30544 0.70175 0.0
C4453 C 0.72996 0.30865 0.70945 0.0
C4454 C 0.72928 0.30947 0.72963 0.0
C4455 C 0.74431 0.30729 0.7415 0.0
H4456 H 0.00825 0.38154 0.96394 0.0
H4457 H 0.05265 0.38797 0.00841 0.0
H4458 H 0.01094 0.41739 0.97077 0.0
H4459 H 0.05541 0.42415 0.01527 0.0
H4460 H 0.04531 0.48854 0.03113 0.0
H4461 H 0.03921 0.45213 0.02769 0.0
H4462 H 0.03407 0.44612 0.96523 0.0
H4463 H 0.04012 0.48217 0.9687 0.0
C4464 C 0.01844 0.39057 0.9754 0.0
C4465 C 0.03021 0.38173 0.9856 0.0
C4466 C 0.02009 0.41123 0.97923 0.0
C4467 C 0.03345 0.42382 0.99353 0.0
C4468 C 0.04489 0.41497 0.00422 0.0
C4469 C 0.04341 0.39423 1.00018 0.0
C4470 C 0.0425 0.47939 0.0167 0.0
C4471 C 0.04297 0.48828 1.00016 0.0
C4472 C 0.03922 0.45851 0.01471 0.0
C4473 C 0.03615 0.44606 0.99615 0.0
C4474 C 0.03613 0.45508 0.97974 0.0
C4475 C 0.03961 0.47581 0.98172 0.0
H4476 H 0.98363 0.8182 0.1466 0.0
H4477 H 0.01023 0.79334 0.18937 0.0
H4478 H 0.9561 0.81583 0.16468 0.0
H4479 H 0.98283 0.79048 0.20692 0.0
H4480 H 0.94024 0.80358 0.24611 0.0
H4481 H 0.96641 0.81064 0.22708 0.0
H4482 H 0.92959 0.79202 0.17425 0.0
H4483 H 0.9031 0.78509 0.19365 0.0
C4484 C 0.9837 0.81229 0.15986 0.0
C4485 C 0.99935 0.80593 0.16638 0.0
C4486 C 0.96778 0.81075 0.17015 0.0
C4487 C 0.96709 0.80306 0.18745 0.0
C4488 C 0.98277 0.79678 0.1939 0.0
C4489 C 0.99853 0.79819 0.18361 0.0
C4490 C 0.93762 0.80135 0.23045 0.0
C4491 C 0.9195 0.79366 0.22149 0.0
C4492 C 0.95272 0.80519 0.21944 0.0
C4493 C 0.95036 0.80145 0.19897 0.0
C4494 C 0.93207 0.79505 0.18995 0.0
C4495 C 0.91682 0.79116 0.20108 0.0
H4496 H 0.50222 0.36247 0.10981 0.0
H4497 H 0.54074 0.33106 0.08189 0.0
H4498 H 0.51166 0.3891 0.09155 0.0
H4499 H 0.54991 0.35725 0.06351 0.0
H4500 H 0.57706 0.41472 0.04804 0.0
H4501 H 0.56704 0.39099 0.06903 0.0
H4502 H 0.51068 0.39664 0.05902 0.0
H4503 H 0.52097 0.42101 0.03853 0.0
C4504 C 0.51257 0.36121 0.09964 0.0
C4505 C 0.52093 0.34486 0.09742 0.0
C4506 C 0.51797 0.37642 0.0892 0.0
C4507 C 0.53176 0.37546 0.0763 0.0
C4508 C 0.53966 0.35877 0.07374 0.0
C4509 C 0.53435 0.3437 0.0842 0.0
C4510 C 0.56255 0.41088 0.05039 0.0
C4511 C 0.54972 0.41934 0.04144 0.0
C4512 C 0.55678 0.39728 0.06235 0.0
C4513 C 0.53799 0.39159 0.06536 0.0
C4514 C 0.52525 0.40072 0.05703 0.0
C4515 C 0.5311 0.41457 0.04525 0.0
H4516 H 0.02397 0.33688 0.31241 0.0
H4517 H 0.99966 0.30026 0.35207 0.0
H4518 H 0.99336 0.3397 0.30091 0.0
H4519 H 0.96881 0.30304 0.3404 0.0
H4520 H 0.91806 0.29928 0.2938 0.0
H4521 H 0.94661 0.2941 0.30895 0.0
H4522 H 0.9704 0.35715 0.31755 0.0
H4523 H 0.94197 0.36234 0.30249 0.0
C4524 C 0.01203 0.32934 0.31855 0.0
C4525 C 0.0141 0.31855 0.33322 0.0
C4526 C 0.99457 0.33103 0.31207 0.0
C4527 C 0.97888 0.32195 0.32013 0.0
C4528 C 0.98078 0.31023 0.33407 0.0
C4529 C 0.99835 0.30856 0.34062 0.0
C4530 C 0.9293 0.31204 0.29924 0.0
C4531 C 0.92807 0.33117 0.2966 0.0
C4532 C 0.94556 0.30907 0.30791 0.0
C4533 C 0.96073 0.32518 0.31394 0.0
C4534 C 0.959 0.34444 0.31251 0.0
C4535 C 0.94282 0.3474 0.30387 0.0
H4536 H 0.99416 0.64724 0.62308 0.0
H4537 H 0.98261 0.66373 0.56809 0.0
H4538 H 1.00155 0.61672 0.60613 0.0
H4539 H 0.99088 0.634 0.55105 0.0
H4540 H 0.00639 0.57937 0.52356 0.0
H4541 H 0.98793 0.59959 0.54138 0.0
H4542 H 0.02898 0.61426 0.59095 0.0
H4543 H 0.04693 0.59291 0.57326 0.0
C4544 C 0.99264 0.64388 0.60732 0.0
C4545 C 0.98801 0.65757 0.5967 0.0
C4546 C 0.99706 0.62663 0.59764 0.0
C4547 C 0.9973 0.62327 0.57733 0.0
C4548 C 0.99076 0.63607 0.56671 0.0
C4549 C 0.98604 0.65312 0.57639 0.0
C4550 C 0.01157 0.58704 0.53816 0.0
C4551 C 0.02835 0.58514 0.54686 0.0
C4552 C 1.00087 0.59847 0.54846 0.0
C4553 C 0.00699 0.60859 0.56753 0.0
C4554 C 0.02367 0.60634 0.57639 0.0
C4555 C 0.03415 0.59447 0.56618 0.0
H4556 H 0.66462 0.80341 0.79679 0.0
H4557 H 0.70172 0.85183 0.83623 0.0
H4558 H 0.69047 0.79723 0.77841 0.0
H4559 H 0.72736 0.84595 0.81736 0.0
H4560 H 0.76648 0.82273 0.76988 0.0
H4561 H 0.7379 0.83473 0.77427 0.0
H4562 H 0.71926 0.7897 0.808 0.0
H4563 H 0.7484 0.7794 0.80551 0.0
C4564 C 0.67815 0.81318 0.80107 0.0
C4565 C 0.68134 0.8277 0.81821 0.0
C4566 C 0.69279 0.80981 0.7904 0.0
C4567 C 0.71068 0.82115 0.79659 0.0
C4568 C 0.71352 0.83727 0.81225 0.0
C4569 C 0.69889 0.84053 0.82308 0.0
C4570 C 0.75595 0.81507 0.77772 0.0
C4571 C 0.75913 0.79949 0.78668 0.0
C4572 C 0.73975 0.82194 0.78019 0.0
C4573 C 0.72642 0.81272 0.79101 0.0
C4574 C 0.72929 0.79661 0.79917 0.0
C4575 C 0.74579 0.79047 0.79752 0.0
H4576 H 0.47141 0.54066 0.65922 0.0
H4577 H 0.5133 0.59381 0.68187 0.0
H4578 H 0.48502 0.53746 0.62842 0.0
H4579 H 0.52659 0.59097 0.65065 0.0
H4580 H 0.55672 0.57337 0.59548 0.0
H4581 H 0.54378 0.57719 0.62688 0.0
H4582 H 0.49008 0.54608 0.59852 0.0
H4583 H 0.50318 0.542 0.56727 0.0
C4584 C 0.48358 0.55179 0.65792 0.0
C4585 C 0.4909 0.56754 0.67391 0.0
C4586 C 0.49141 0.55007 0.63972 0.0
C4587 C 0.50718 0.56394 0.63615 0.0
C4588 C 0.51464 0.57967 0.65217 0.0
C4589 C 0.50672 0.58145 0.6704 0.0
C4590 C 0.54213 0.56732 0.59575 0.0
C4591 C 0.53129 0.55727 0.57815 0.0
C4592 C 0.53451 0.56963 0.61411 0.0
C4593 C 0.51555 0.56193 0.61609 0.0
C4594 C 0.50472 0.55206 0.59839 0.0
C4595 C 0.51233 0.54983 0.58007 0.0
H4596 H 0.81753 0.21515 0.94712 0.0
H4597 H 0.76051 0.18327 0.93316 0.0
H4598 H 0.81593 0.22933 0.91775 0.0
H4599 H 0.75856 0.19804 0.90478 0.0
H4600 H 0.75514 0.22325 0.85434 0.0
H4601 H 0.76758 0.2021 0.87336 0.0
H4602 H 0.79989 0.25468 0.91208 0.0
H4603 H 0.78807 0.27553 0.89235 0.0
C4604 C 0.8048 0.21098 0.9376 0.0
C4605 C 0.78901 0.19857 0.94249 0.0
C4606 C 0.80387 0.21906 0.9209 0.0
C4607 C 0.78713 0.21483 0.90906 0.0
C4608 C 0.77176 0.20135 0.91339 0.0
C4609 C 0.77274 0.19322 0.9299 0.0
C4610 C 0.76505 0.23007 0.86684 0.0
C4611 C 0.77018 0.25074 0.87267 0.0
C4612 C 0.77229 0.2181 0.87754 0.0
C4613 C 0.78435 0.22678 0.8944 0.0
C4614 C 0.79065 0.24756 0.89914 0.0
C4615 C 0.78364 0.2595 0.8882 0.0
H4616 H 0.10792 0.51317 0.16688 0.0
H4617 H 0.14802 0.55624 0.14489 0.0
H4618 H 0.08762 0.50747 0.13673 0.0
H4619 H 0.12773 0.5508 0.1151 0.0
H4620 H 0.09895 0.52251 0.05755 0.0
H4621 H 0.11629 0.5207 0.08727 0.0
H4622 H 0.07005 0.5297 0.11977 0.0
H4623 H 0.05266 0.53159 0.08991 0.0
C4624 C 0.11231 0.52138 0.15559 0.0
C4625 C 0.1294 0.53515 0.15803 0.0
C4626 C 0.10075 0.51818 0.13851 0.0
C4627 C 0.10635 0.52854 0.12373 0.0
C4628 C 0.12335 0.54242 0.12628 0.0
C4629 C 0.1348 0.54572 0.14334 0.0
C4630 C 0.09238 0.52381 0.07099 0.0
C4631 C 0.07464 0.52764 0.07163 0.0
C4632 C 0.10226 0.52271 0.0879 0.0
C4633 C 0.09451 0.52543 0.10565 0.0
C4634 C 0.0762 0.52755 0.10611 0.0
C4635 C 0.06626 0.52863 0.08909 0.0
H4636 H 0.77366 0.82103 0.4197 0.0
H4637 H 0.83302 0.83098 0.43048 0.0
H4638 H 0.77608 0.81063 0.38483 0.0
H4639 H 0.8352 0.82025 0.39596 0.0
H4640 H 0.82908 0.83588 0.33306 0.0
H4641 H 0.82833 0.83853 0.36803 0.0
H4642 H 0.78732 0.78331 0.35861 0.0
H4643 H 0.78962 0.77971 0.32328 0.0
C4644 C 0.78719 0.82083 0.41478 0.0
C4645 C 0.80315 0.82702 0.42816 0.0
C4646 C 0.78853 0.81462 0.39478 0.0
C4647 C 0.80586 0.81463 0.3876 0.0
C4648 C 0.82166 0.82012 0.40099 0.0
C4649 C 0.82034 0.82616 0.4209 0.0
C4650 C 0.82101 0.82355 0.33842 0.0
C4651 C 0.81056 0.80688 0.32537 0.0
C4652 C 0.82017 0.8253 0.35852 0.0
C4653 C 0.80788 0.81107 0.3662 0.0
C4654 C 0.79713 0.7944 0.3532 0.0
C4655 C 0.79867 0.79218 0.33301 0.0
H4656 H 0.47184 0.57399 0.89549 0.0
H4657 H 0.51765 0.5572 0.86715 0.0
H4658 H 0.48453 0.5681 0.92603 0.0
H4659 H 0.53029 0.55084 0.89785 0.0
H4660 H 0.55619 0.55452 0.96263 0.0
H4661 H 0.54531 0.56015 0.93059 0.0
H4662 H 0.48903 0.54573 0.94511 0.0
H4663 H 0.49991 0.54079 0.97675 0.0
C4664 C 0.4847 0.5691 0.89557 0.0
C4665 C 0.49336 0.56613 0.87812 0.0
C4666 C 0.49203 0.56537 0.91341 0.0
C4667 C 0.50861 0.55853 0.91512 0.0
C4668 C 0.51756 0.55599 0.89776 0.0
C4669 C 0.51009 0.55954 0.8798 0.0
C4670 C 0.54147 0.55223 0.95887 0.0
C4671 C 0.52906 0.54701 0.97273 0.0
C4672 C 0.5351 0.55558 0.94029 0.0
C4673 C 0.51601 0.55392 0.93467 0.0
C4674 C 0.50379 0.54795 0.94843 0.0
C4675 C 0.51011 0.54478 0.96682 0.0
H4676 H 0.79742 0.20076 0.13548 0.0
H4677 H 0.76226 0.23273 0.10934 0.0
H4678 H 0.80125 0.22481 0.16581 0.0
H4679 H 0.76626 0.25723 0.13993 0.0
H4680 H 0.764 0.27523 0.20988 0.0
H4681 H 0.75855 0.25671 0.17617 0.0
H4682 H 0.81732 0.26134 0.17462 0.0
H4683 H 0.82251 0.27895 0.20808 0.0
C4684 C 0.79053 0.213 0.13635 0.0
C4685 C 0.77967 0.21516 0.12031 0.0
C4686 C 0.79279 0.22677 0.15355 0.0
C4687 C 0.78432 0.24297 0.15489 0.0
C4688 C 0.77293 0.24482 0.13905 0.0
C4689 C 0.7706 0.2309 0.12174 0.0
C4690 C 0.77569 0.27275 0.20198 0.0
C4691 C 0.79371 0.27882 0.2112 0.0
C4692 C 0.77261 0.2623 0.18282 0.0
C4693 C 0.78754 0.25763 0.17306 0.0
C4694 C 0.80563 0.26485 0.18196 0.0
C4695 C 0.80866 0.27526 0.20097 0.0
H4696 H 0.11576 0.54627 0.32058 0.0
H4697 H 0.15946 0.52561 0.34793 0.0
H4698 H 0.10074 0.54844 0.35068 0.0
H4699 H 0.14433 0.52763 0.37813 0.0
H4700 H 0.13008 0.57799 0.42733 0.0
H4701 H 0.14178 0.56045 0.39918 0.0
H4702 H 0.0859 0.53013 0.37643 0.0
H4703 H 0.07422 0.54772 0.40473 0.0
C4704 C 0.12188 0.54176 0.33294 0.0
C4705 C 0.1388 0.53599 0.33213 0.0
C4706 C 0.1132 0.54274 0.35005 0.0
C4707 C 0.12142 0.53815 0.36665 0.0
C4708 C 0.13776 0.53119 0.36547 0.0
C4709 C 0.14636 0.53002 0.34825 0.0
C4710 C 0.12041 0.56716 0.41655 0.0
C4711 C 0.10133 0.56436 0.41789 0.0
C4712 C 0.12706 0.55698 0.40058 0.0
C4713 C 0.11468 0.54409 0.38564 0.0
C4714 C 0.09566 0.54007 0.38778 0.0
C4715 C 0.08902 0.55008 0.40391 0.0
H4716 H 0.7848 0.80862 0.61262 0.0
H4717 H 0.81597 0.8659 0.64352 0.0
H4718 H 0.78113 0.79719 0.64345 0.0
H4719 H 0.8128 0.85433 0.6742 0.0
H4720 H 0.78994 0.83478 0.728 0.0
H4721 H 0.79057 0.84543 0.69671 0.0
H4722 H 0.79879 0.78819 0.66914 0.0
H4723 H 0.79791 0.77746 0.70036 0.0
C4724 C 0.79087 0.81879 0.62598 0.0
C4725 C 0.80077 0.83818 0.62551 0.0
C4726 C 0.7889 0.81217 0.64367 0.0
C4727 C 0.79665 0.82481 0.66141 0.0
C4728 C 0.80644 0.84422 0.66092 0.0
C4729 C 0.8085 0.85079 0.64324 0.0
C4730 C 0.79172 0.82439 0.71524 0.0
C4731 C 0.7938 0.80522 0.71675 0.0
C4732 C 0.79221 0.83055 0.69728 0.0
C4733 C 0.79488 0.81776 0.68033 0.0
C4734 C 0.79648 0.7984 0.68178 0.0
C4735 C 0.79597 0.79222 0.69974 0.0
H4736 H 0.74991 0.50327 0.49318 0.0
H4737 H 0.73142 0.46764 0.53582 0.0
H4738 H 0.72351 0.51881 0.49738 0.0
H4739 H 0.70566 0.48365 0.5406 0.0
H4740 H 0.6544 0.50629 0.53707 0.0
H4741 H 0.67682 0.4875 0.52485 0.0
H4742 H 0.7164 0.54249 0.52497 0.0
H4743 H 0.69371 0.56128 0.5365 0.0
C4744 C 0.74005 0.49858 0.5032 0.0
C4745 C 0.74269 0.48445 0.51432 0.0
C4746 C 0.7251 0.50755 0.50572 0.0
C4747 C 0.71266 0.50245 0.51935 0.0
C4748 C 0.71491 0.48768 0.52982 0.0
C4749 C 0.72977 0.47872 0.52727 0.0
C4750 C 0.66779 0.51433 0.53416 0.0
C4751 C 0.67246 0.53522 0.53786 0.0
C4752 C 0.6806 0.5036 0.52727 0.0
C4753 C 0.6983 0.51359 0.52404 0.0
C4754 C 0.70276 0.53445 0.52715 0.0
C4755 C 0.68993 0.54519 0.53403 0.0
H4756 H 0.18969 0.12969 0.47336 0.0
H4757 H 0.20641 0.11927 0.52983 0.0
H4758 H 0.1589 0.10885 0.47434 0.0
H4759 H 0.17574 0.09888 0.53087 0.0
H4760 H 0.11373 0.08833 0.53778 0.0
H4761 H 0.14479 0.10571 0.53423 0.0
H4762 H 0.14052 0.07355 0.47518 0.0
H4763 H 0.10902 0.05547 0.47894 0.0
C4764 C 0.18695 0.12283 0.48589 0.0
C4765 C 0.20067 0.12653 0.50164 0.0
C4766 C 0.16923 0.11084 0.48643 0.0
C4767 C 0.16467 0.10228 0.50277 0.0
C4768 C 0.17855 0.10549 0.5182 0.0
C4769 C 0.19621 0.11734 0.51763 0.0
C4770 C 0.11927 0.08472 0.52401 0.0
C4771 C 0.10869 0.07032 0.50869 0.0
C4772 C 0.13727 0.09473 0.52201 0.0
C4773 C 0.14535 0.09106 0.50446 0.0
C4774 C 0.13477 0.07681 0.48892 0.0
C4775 C 0.11674 0.06637 0.4911 0.0
H4776 H 0.25125 0.93033 0.75279 0.0
H4777 H 0.20787 0.90128 0.78313 0.0
H4778 H 0.26748 0.90363 0.75437 0.0
H4779 H 0.22401 0.87487 0.78472 0.0
H4780 H 0.26178 0.83522 0.801 0.0
H4781 H 0.24629 0.86169 0.79767 0.0
H4782 H 0.27428 0.87115 0.74679 0.0
H4783 H 0.28977 0.8438 0.75005 0.0
C4784 C 0.24486 0.91838 0.75978 0.0
C4785 C 0.22777 0.91901 0.76798 0.0
C4786 C 0.25444 0.90266 0.7607 0.0
C4787 C 0.24773 0.88637 0.76996 0.0
C4788 C 0.23052 0.88687 0.77784 0.0
C4789 C 0.22096 0.90249 0.7769 0.0
C4790 C 0.26486 0.84275 0.78895 0.0
C4791 C 0.27758 0.83673 0.77601 0.0
C4792 C 0.2556 0.85827 0.7869 0.0
C4793 C 0.25836 0.86934 0.77179 0.0
C4794 C 0.27135 0.86359 0.75883 0.0
C4795 C 0.2805 0.84763 0.76072 0.0
H4796 H 0.41733 0.03251 0.02046 0.0
H4797 H 0.42607 0.99249 0.0587 0.0
H4798 H 0.44865 0.03492 0.01156 0.0
H4799 H 0.45788 0.99661 0.05142 0.0
H4800 H 0.50324 0.98329 0.01686 0.0
H4801 H 0.47127 0.98285 0.02364 0.0
H4802 H 0.47997 0.04488 0.01929 0.0
H4803 H 0.51076 0.04464 0.01161 0.0
C4804 C 0.42618 0.0249 0.02757 0.0
C4805 C 0.41901 0.01165 0.03958 0.0
C4806 C 0.44414 0.02626 0.02247 0.0
C4807 C 0.45538 0.01509 0.03008 0.0
C4808 C 0.44913 1.00448 0.04453 0.0
C4809 C 0.43102 1.00264 0.04917 0.0
C4810 C 0.49799 0.99654 0.01665 0.0
C4811 C 0.50965 0.01419 0.01398 0.0
C4812 C 0.47987 0.99645 0.02092 0.0
C4813 C 0.47336 0.01409 0.02272 0.0
C4814 C 0.48449 0.03106 0.01816 0.0
C4815 C 0.50233 0.03097 0.01371 0.0
H4816 H 0.89221 0.64637 0.81245 0.0
H4817 H 0.83723 0.60906 0.80699 0.0
H4818 H 0.8796 0.6724 0.80134 0.0
H4819 H 0.82461 0.63495 0.79579 0.0
H4820 H 0.80626 0.68529 0.77616 0.0
H4821 H 0.82028 0.67043 0.8004 0.0
H4822 H 0.86644 0.66712 0.76603 0.0
H4823 H 0.85268 0.68237 0.74203 0.0
C4824 C 0.87735 0.64418 0.8098 0.0
C4825 C 0.86562 0.62582 0.81037 0.0
C4826 C 0.87019 0.65895 0.8033 0.0
C4827 C 0.85123 0.65548 0.79748 0.0
C4828 C 0.83927 0.63801 0.8003 0.0
C4829 C 0.84645 0.62321 0.80665 0.0
C4830 C 0.81964 0.68184 0.77405 0.0
C4831 C 0.82839 0.68484 0.75719 0.0
C4832 C 0.82759 0.67334 0.78789 0.0
C4833 C 0.84445 0.66783 0.78512 0.0
C4834 C 0.85358 0.67162 0.76868 0.0
C4835 C 0.84559 0.68002 0.75481 0.0
H4836 H 0.89975 0.66275 0.99971 0.0
H4837 H 0.86229 0.61621 0.01996 0.0
H4838 H 0.92464 0.64491 1.00222 0.0
H4839 H 0.88689 0.59867 0.02273 0.0
H4840 H 0.92855 0.56249 0.0141 0.0
H4841 H 0.90597 0.58029 0.00389 0.0
H4842 H 0.94377 0.63628 0.0283 0.0
H4843 H 0.96657 0.61821 0.038 0.0
C4844 C 0.8968 0.64862 0.00447 0.0
C4845 C 0.87909 0.64092 0.00974 0.0
C4846 C 0.91106 0.63848 0.00605 0.0
C4847 C 0.90779 0.6203 0.01263 0.0
C4848 C 0.88991 0.61245 0.01734 0.0
C4849 C 0.87581 0.62261 0.01595 0.0
C4850 C 0.93215 0.5786 0.01682 0.0
C4851 C 0.94921 0.58902 0.02678 0.0
C4852 C 0.91919 0.58882 0.01114 0.0
C4853 C 0.92289 0.60974 0.01556 0.0
C4854 C 0.94048 0.62019 0.02456 0.0
C4855 C 0.95353 0.60989 0.03015 0.0
H4856 H 0.21234 0.13234 0.75373 0.0
H4857 H 0.25463 0.12673 0.79552 0.0
H4858 H 0.2285 0.16637 0.75406 0.0
H4859 H 0.27038 0.16118 0.79655 0.0
H4860 H 0.30449 0.22097 0.78475 0.0
H4861 H 0.28889 0.1864 0.78419 0.0
H4862 H 0.23678 0.19959 0.76785 0.0
H4863 H 0.25246 0.23379 0.76793 0.0
C4864 C 0.2251 0.13812 0.76305 0.0
C4865 C 0.23182 0.12591 0.77453 0.0
C4866 C 0.23444 0.15818 0.76346 0.0
C4867 C 0.25111 0.1674 0.77541 0.0
C4868 C 0.25785 0.15519 0.78689 0.0
C4869 C 0.24849 0.13511 0.78648 0.0
C4870 C 0.28972 0.2166 0.78097 0.0
C4871 C 0.28007 0.23079 0.77631 0.0
C4872 C 0.28056 0.19647 0.78077 0.0
C4873 C 0.26119 0.18935 0.77588 0.0
C4874 C 0.2516 0.20369 0.77138 0.0
C4875 C 0.26074 0.22375 0.77159 0.0
H4876 H 0.36537 0.93465 0.26485 0.0
H4877 H 0.32007 0.94902 0.29652 0.0
H4878 H 0.35296 0.89977 0.26358 0.0
H4879 H 0.30772 0.91326 0.29563 0.0
H4880 H 0.2914 0.84366 0.25466 0.0
H4881 H 0.29676 0.87998 0.2646 0.0
H4882 H 0.35 0.88125 0.29332 0.0
H4883 H 0.34506 0.84542 0.28254 0.0
C4884 C 0.35247 0.9303 0.27113 0.0
C4885 C 0.34346 0.94442 0.2805 0.0
C4886 C 0.34559 0.91038 0.27073 0.0
C4887 C 0.32971 0.90419 0.27988 0.0
C4888 C 0.32013 0.91803 0.28868 0.0
C4889 C 0.3271 0.93824 0.28911 0.0
C4890 C 0.30399 0.85183 0.26349 0.0
C4891 C 0.31776 0.84217 0.2683 0.0
C4892 C 0.30688 0.87235 0.2694 0.0
C4893 C 0.32369 0.88305 0.27971 0.0
C4894 C 0.33689 0.87308 0.28547 0.0
C4895 C 0.33413 0.85277 0.27932 0.0
H4896 H 0.60634 0.4191 0.56133 0.0
H4897 H 0.54783 0.39223 0.55362 0.0
H4898 H 0.59994 0.44848 0.55019 0.0
H4899 H 0.54164 0.42194 0.5436 0.0
H4900 H 0.54417 0.49262 0.56216 0.0
H4901 H 0.54908 0.46013 0.56599 0.0
H4902 H 0.58202 0.45909 0.51729 0.0
H4903 H 0.5754 0.49103 0.51222 0.0
C4904 C 0.59214 0.41918 0.55712 0.0
C4905 C 0.57765 0.40303 0.55892 0.0
C4906 C 0.58849 0.43617 0.55071 0.0
C4907 C 0.57023 0.43773 0.54609 0.0
C4908 C 0.55585 0.42141 0.54722 0.0
C4909 C 0.55948 0.40436 0.55325 0.0
C4910 C 0.55149 0.48498 0.55148 0.0
C4911 C 0.55826 0.49398 0.53608 0.0
C4912 C 0.55468 0.46646 0.55396 0.0
C4913 C 0.56589 0.45681 0.54195 0.0
C4914 C 0.57313 0.46593 0.52671 0.0
C4915 C 0.56913 0.48412 0.52363 0.0
H4916 H 0.44411 0.79629 0.35347 0.0
H4917 H 0.41034 0.74778 0.37456 0.0
H4918 H 0.41739 0.7991 0.33342 0.0
H4919 H 0.38355 0.75034 0.35408 0.0
H4920 H 0.33462 0.77414 0.32912 0.0
H4921 H 0.36101 0.77026 0.34948 0.0
H4922 H 0.39676 0.78394 0.30492 0.0
H4923 H 0.37055 0.78798 0.28484 0.0
C4924 C 0.43101 0.78619 0.35396 0.0
C4925 C 0.42972 0.77183 0.36597 0.0
C4926 C 0.41555 0.78767 0.34216 0.0
C4927 C 0.39798 0.77497 0.34186 0.0
C4928 C 0.39664 0.76059 0.35386 0.0
C4929 C 0.41219 0.75897 0.36556 0.0
C4930 C 0.3481 0.77626 0.32361 0.0
C4931 C 0.35018 0.78119 0.30507 0.0
C4932 C 0.36333 0.77392 0.33531 0.0
C4933 C 0.38134 0.77678 0.32909 0.0
C4934 C 0.38334 0.78175 0.31054 0.0
C4935 C 0.36811 0.78383 0.29879 0.0
H4936 H 0.05808 0.69632 0.03294 0.0
H4937 H 0.10098 0.70192 0.07891 0.0
H4938 H 0.05491 0.66016 0.02614 0.0
H4939 H 0.09822 0.66622 0.07171 0.0
H4940 H 0.06951 0.60156 0.07306 0.0
H4941 H 0.07575 0.63759 0.07663 0.0
H4942 H 0.06979 0.63172 0.01418 0.0
H4943 H 0.06341 0.59531 0.01068 0.0
C4944 C 0.06693 0.68996 0.04153 0.0
C4945 C 0.07979 0.70232 0.05656 0.0
C4946 C 0.06524 0.66917 0.03747 0.0
C4947 C 0.07622 0.66008 0.04844 0.0
C4948 C 0.08934 0.67251 0.06307 0.0
C4949 C 0.09108 0.69318 0.06706 0.0
C4950 C 0.06987 0.60794 0.06006 0.0
C4951 C 0.06622 0.59549 0.04162 0.0
C4952 C 0.07348 0.62868 0.06209 0.0
C4953 C 0.07332 0.63778 0.04573 0.0
C4954 C 0.06992 0.62533 0.02715 0.0
C4955 C 0.06649 0.60444 0.02512 0.0
H4956 H 0.10531 0.3043 0.86307 0.0
H4957 H 0.12011 0.25532 0.88491 0.0
H4958 H 0.13231 0.30739 0.84478 0.0
H4959 H 0.14722 0.25828 0.86615 0.0
H4960 H 0.2051 0.2885 0.8434 0.0
H4961 H 0.17866 0.28139 0.86294 0.0
H4962 H 0.14203 0.28801 0.81599 0.0
H4963 H 0.16798 0.29467 0.79667 0.0
C4964 C 0.11435 0.29422 0.86414 0.0
C4965 C 0.11026 0.27954 0.87562 0.0
C4966 C 0.12985 0.29587 0.8534 0.0
C4967 C 0.14204 0.28299 0.85372 0.0
C4968 C 0.13826 0.26852 0.86549 0.0
C4969 C 0.12254 0.26671 0.87614 0.0
C4970 C 0.19133 0.28792 0.8371 0.0
C4971 C 0.18884 0.29245 0.81846 0.0
C4972 C 0.17614 0.28397 0.84836 0.0
C4973 C 0.15813 0.28462 0.84131 0.0
C4974 C 0.15564 0.28789 0.82223 0.0
C4975 C 0.17061 0.2916 0.81104 0.0
H4976 H 0.60448 0.75614 0.96973 0.0
H4977 H 0.57126 0.71879 0.91907 0.0
H4978 H 0.59642 0.72951 0.988 0.0
H4979 H 0.56361 0.69182 0.93706 0.0
H4980 H 0.53455 0.65995 0.983 0.0
H4981 H 0.54508 0.6837 0.96211 0.0
H4982 H 0.59992 0.69762 0.99231 0.0
H4983 H 0.58903 0.67404 0.0134 0.0
C4984 C 0.5957 0.74207 0.96243 0.0
C4985 C 0.58839 0.73953 0.94306 0.0
C4986 C 0.59114 0.72675 0.97285 0.0
C4987 C 0.57931 0.70848 0.96404 0.0
C4988 C 0.57246 0.7058 0.94443 0.0
C4989 C 0.57686 0.72121 0.9341 0.0
C4990 C 0.54885 0.66808 0.985 0.0
C4991 C 0.56098 0.66548 0.99981 0.0
C4992 C 0.55497 0.68155 0.97297 0.0
C4993 C 0.57335 0.69275 0.97561 0.0
C4994 C 0.58562 0.68953 0.99009 0.0
C4995 C 0.57947 0.67597 1.00207 0.0
H4996 H 0.08422 0.74036 0.72284 0.0
H4997 H 0.10909 0.7882 0.69467 0.0
H4998 H 0.11473 0.73786 0.73491 0.0
H4999 H 0.13986 0.78559 0.70664 0.0
H5000 H 0.18877 0.78592 0.75258 0.0
H5001 H 0.15993 0.7905 0.73742 0.0
H5002 H 0.14073 0.7267 0.72047 0.0
H5003 H 0.16925 0.72222 0.73598 0.0
C5004 C 0.09627 0.75031 0.71924 0.0
C5005 C 0.0944 0.76437 0.70778 0.0
C5006 C 0.11371 0.74883 0.72602 0.0
C5007 C 0.12963 0.76129 0.72139 0.0
C5008 C 0.12778 0.77582 0.71041 0.0
C5009 C 0.11024 0.77735 0.70365 0.0
C5010 C 0.1784 0.77295 0.74541 0.0
C5011 C 0.18088 0.75371 0.74578 0.0
C5012 C 0.16199 0.77556 0.7367 0.0
C5013 C 0.14799 0.75893 0.72819 0.0
C5014 C 0.1511 0.73975 0.72745 0.0
C5015 C 0.16735 0.73717 0.73629 0.0
H5016 H 0.12853 0.43749 0.42884 0.0
H5017 H 0.12219 0.41881 0.48398 0.0
H5018 H 0.11747 0.46712 0.44118 0.0
H5019 H 0.11187 0.44893 0.49677 0.0
H5020 H 0.06135 0.47531 0.49663 0.0
H5021 H 0.08161 0.45287 0.48772 0.0
H5022 H 0.11633 0.49768 0.46228 0.0
H5023 H 0.09535 0.51988 0.47069 0.0
C5024 C 0.12578 0.44036 0.44398 0.0
C5025 C 0.12582 0.42586 0.45542 0.0
C5026 C 0.11936 0.45729 0.45104 0.0
C5027 C 0.11311 0.4599 0.46967 0.0
C5028 C 0.11597 0.44688 0.48208 0.0
C5029 C 0.12212 0.42983 0.47492 0.0
C5030 C 0.07309 0.4801 0.48872 0.0
C5031 C 0.07676 0.49903 0.48402 0.0
C5032 C 0.08495 0.4675 0.48403 0.0
C5033 C 0.1009 0.47374 0.47479 0.0
C5034 C 0.10418 0.4925 0.46943 0.0
C5035 C 0.09207 0.50504 0.47392 0.0
H5036 H 0.44502 0.2882 0.24365 0.0
H5037 H 0.40882 0.23419 0.21148 0.0
H5038 H 0.4196 0.29557 0.26214 0.0
H5039 H 0.38361 0.24138 0.23052 0.0
H5040 H 0.34707 0.2703 0.2791 0.0
H5041 H 0.37634 0.25979 0.27478 0.0
H5042 H 0.38721 0.29517 0.23042 0.0
H5043 H 0.35742 0.30438 0.23366 0.0
C5044 C 0.43184 0.27755 0.2411 0.0
C5045 C 0.42862 0.26097 0.22582 0.0
C5046 C 0.41747 0.28165 0.25183 0.0
C5047 C 0.39991 0.26902 0.24757 0.0
C5048 C 0.39725 0.25113 0.23407 0.0
C5049 C 0.4116 0.24709 0.22317 0.0
C5050 C 0.35609 0.2763 0.26891 0.0
C5051 C 0.35053 0.28862 0.25706 0.0
C5052 C 0.37263 0.27023 0.26643 0.0
C5053 C 0.38386 0.27702 0.25255 0.0
C5054 C 0.37869 0.29009 0.24141 0.0
C5055 C 0.36186 0.29547 0.24333 0.0
H5056 H 0.59509 0.52924 0.36052 0.0
H5057 H 0.63727 0.50447 0.38489 0.0
H5058 H 0.58154 0.53229 0.3916 0.0
H5059 H 0.62352 0.50722 0.41582 0.0
H5060 H 0.6051 0.53186 0.47649 0.0
H5061 H 0.6184 0.5278 0.44517 0.0
H5062 H 0.56412 0.51758 0.41521 0.0
H5063 H 0.55094 0.52152 0.44647 0.0
C5064 C 0.60169 0.52443 0.37237 0.0
C5065 C 0.61768 0.51661 0.36942 0.0
C5066 C 0.59364 0.52603 0.3905 0.0
C5067 C 0.60116 0.52015 0.40699 0.0
C5068 C 0.6171 0.51228 0.40403 0.0
C5069 C 0.62502 0.51046 0.38585 0.0
C5070 C 0.59586 0.52859 0.46329 0.0
C5071 C 0.57664 0.52689 0.46465 0.0
C5072 C 0.60359 0.52616 0.44501 0.0
C5073 C 0.59265 0.52229 0.42692 0.0
C5074 C 0.57342 0.52067 0.42834 0.0
C5075 C 0.56567 0.52275 0.4466 0.0
H5076 H 0.30372 0.89659 0.11621 0.0
H5077 H 0.33433 0.85742 0.08467 0.0
H5078 H 0.30502 0.87993 0.14397 0.0
H5079 H 0.33574 0.84093 0.11236 0.0
H5080 H 0.32929 0.80861 0.16104 0.0
H5081 H 0.3156 0.82056 0.13418 0.0
H5082 H 0.33509 0.8811 0.16531 0.0
H5083 H 0.34892 0.86912 0.192 0.0
C5084 C 0.3103 0.88411 0.11508 0.0
C5085 C 0.31903 0.87828 0.09849 0.0
C5086 C 0.31106 0.87467 0.1309 0.0
C5087 C 0.32037 0.85917 0.13014 0.0
C5088 C 0.32821 0.85265 0.11312 0.0
C5089 C 0.32761 0.8622 0.09742 0.0
C5090 C 0.33017 0.82441 0.16226 0.0
C5091 C 0.34028 0.83808 0.17825 0.0
C5092 C 0.32237 0.8312 0.147 0.0
C5093 C 0.32442 0.85168 0.14777 0.0
C5094 C 0.33323 0.86522 0.16452 0.0
C5095 C 0.34127 0.85845 0.17963 0.0
H5096 H 0.99965 0.5779 0.87861 0.0
H5097 H 0.96252 0.52974 0.89715 0.0
H5098 H 0.01988 0.58328 0.90886 0.0
H5099 H 0.98261 0.53496 0.927 0.0
H5100 H 0.00933 0.56053 0.98541 0.0
H5101 H 0.99208 0.56428 0.95648 0.0
H5102 H 0.0393 0.56041 0.92392 0.0
H5103 H 0.0567 0.55668 0.95307 0.0
C5104 C 0.99588 0.56856 0.88919 0.0
C5105 C 0.97971 0.55337 0.88573 0.0
C5106 C 0.00738 0.57159 0.90631 0.0
C5107 C 1.00255 0.55966 0.92011 0.0
C5108 C 0.98639 0.54452 0.91659 0.0
C5109 C 0.97505 0.54138 0.8995 0.0
C5110 C 0.01614 0.56074 0.97217 0.0
C5111 C 0.03414 0.5577 0.97122 0.0
C5112 C 0.00632 0.56303 0.95572 0.0
C5113 C 0.01437 0.56227 0.9381 0.0
C5114 C 0.03292 0.56105 0.93748 0.0
C5115 C 0.04282 0.55883 0.95408 0.0
H5116 H 0.33106 0.24806 0.6225 0.0
H5117 H 0.28026 0.26716 0.61343 0.0
H5118 H 0.33039 0.25735 0.65758 0.0
H5119 H 0.27958 0.27625 0.64876 0.0
H5120 H 0.29934 0.30342 0.71786 0.0
H5121 H 0.29966 0.30003 0.6822 0.0
H5122 H 0.30559 0.23962 0.67804 0.0
H5123 H 0.30427 0.24253 0.71289 0.0
C5124 C 0.31993 0.2546 0.62789 0.0
C5125 C 0.30559 0.25657 0.61495 0.0
C5126 C 0.3195 0.25983 0.64807 0.0
C5127 C 0.30483 0.26736 0.65597 0.0
C5128 C 0.29107 0.27051 0.64314 0.0
C5129 C 0.29139 0.26509 0.62288 0.0
C5130 C 0.30017 0.28928 0.70921 0.0
C5131 C 0.30161 0.27319 0.71827 0.0
C5132 C 0.30055 0.2874 0.68884 0.0
C5133 C 0.303 0.26964 0.67735 0.0
C5134 C 0.30398 0.25357 0.68646 0.0
C5135 C 0.30309 0.25524 0.70648 0.0
H5136 H 0.60567 0.54648 0.17778 0.0
H5137 H 0.62107 0.49409 0.14776 0.0
H5138 H 0.59261 0.55179 0.14675 0.0
H5139 H 0.60796 0.49934 0.11699 0.0
H5140 H 0.60433 0.52592 0.06187 0.0
H5141 H 0.61418 0.52048 0.09348 0.0
H5142 H 0.56812 0.54126 0.11739 0.0
H5143 H 0.55752 0.54599 0.08478 0.0
C5144 C 0.60642 0.53599 0.16471 0.0
C5145 C 0.61492 0.51981 0.166 0.0
C5146 C 0.59863 0.53901 0.14665 0.0
C5147 C 0.59912 0.52624 0.12869 0.0
C5148 C 0.60731 0.50992 0.13005 0.0
C5149 C 0.61483 0.50673 0.14807 0.0
C5150 C 0.59599 0.52938 0.07364 0.0
C5151 C 0.57993 0.53661 0.07003 0.0
C5152 C 0.60176 0.52607 0.09214 0.0
C5153 C 0.59216 0.53015 0.10866 0.0
C5154 C 0.57619 0.53784 0.10538 0.0
C5155 C 0.57004 0.54068 0.08646 0.0
H5156 H 0.3467 0.85188 0.93407 0.0
H5157 H 0.30754 0.88108 0.91021 0.0
H5158 H 0.34314 0.82819 0.90309 0.0
H5159 H 0.3039 0.85748 0.87962 0.0
H5160 H 0.28555 0.80262 0.83642 0.0
H5161 H 0.29051 0.81979 0.87006 0.0
H5162 H 0.34956 0.83117 0.86667 0.0
H5163 H 0.34445 0.81336 0.83274 0.0
C5164 C 0.33745 0.85326 0.92217 0.0
C5165 C 0.32722 0.86807 0.92446 0.0
C5166 C 0.33539 0.83974 0.90461 0.0
C5167 C 0.32301 0.84092 0.8893 0.0
C5168 C 0.31316 0.85602 0.89148 0.0
C5169 C 0.31526 0.8695 0.9089 0.0
C5170 C 0.29954 0.80781 0.84308 0.0
C5171 C 0.3146 0.80639 0.83222 0.0
C5172 C 0.30239 0.81793 0.86224 0.0
C5173 C 0.32039 0.82683 0.87074 0.0
C5174 C 0.33557 0.82427 0.86034 0.0
C5175 C 0.33267 0.81422 0.84104 0.0
H5176 H 0.94101 0.53054 0.6894 0.0
H5177 H 0.99302 0.55133 0.725 0.0
H5178 H 0.95748 0.52871 0.66 0.0
H5179 H 0.0096 0.54897 0.69585 0.0
H5180 H 0.03547 0.55153 0.6406 0.0
H5181 H 0.01575 0.5619 0.66556 0.0
H5182 H 0.97669 0.50529 0.64775 0.0
H5183 H 0.99641 0.49517 0.62291 0.0
C5184 C 0.95598 0.53481 0.69077 0.0
C5185 C 0.96594 0.5409 0.70912 0.0
C5186 C 0.96535 0.53383 0.6741 0.0
C5187 C 0.98477 0.5387 0.67573 0.0
C5188 C 0.99463 0.5455 0.69419 0.0
C5189 C 0.98524 0.54666 0.71082 0.0
C5190 C 0.02258 0.54149 0.6421 0.0
C5191 C 0.01752 0.52242 0.63053 0.0
C5192 C 0.01133 0.54739 0.65619 0.0
C5193 C 0.99486 0.53429 0.65864 0.0
C5194 C 0.98929 0.51569 0.6461 0.0
C5195 C 1.00063 0.50976 0.63216 0.0
H5196 H 0.28042 0.23937 0.40942 0.0
H5197 H 0.33974 0.25927 0.42191 0.0
H5198 H 0.28234 0.25188 0.37922 0.0
H5199 H 0.34157 0.2709 0.39099 0.0
H5200 H 0.33308 0.26395 0.32136 0.0
H5201 H 0.33348 0.2538 0.35318 0.0
H5202 H 0.29251 0.28727 0.36998 0.0
H5203 H 0.29264 0.29795 0.33854 0.0
C5204 C 0.29388 0.24657 0.40594 0.0
C5205 C 0.3099 0.2484 0.41845 0.0
C5206 C 0.29495 0.25363 0.38848 0.0
C5207 C 0.31209 0.26242 0.38276 0.0
C5208 C 0.32817 0.26406 0.39498 0.0
C5209 C 0.32709 0.25729 0.41268 0.0
C5210 C 0.32431 0.26924 0.33197 0.0
C5211 C 0.31284 0.28172 0.32755 0.0
C5212 C 0.32459 0.26353 0.35016 0.0
C5213 C 0.31297 0.26969 0.36403 0.0
C5214 C 0.30157 0.28225 0.35957 0.0
C5215 C 0.30171 0.28843 0.34164 0.0
H5216 H 0.35087 0.57916 0.49553 0.0
H5217 H 0.37895 0.61177 0.55098 0.0
H5218 H 0.37531 0.56115 0.49092 0.0
H5219 H 0.40327 0.59312 0.54663 0.0
H5220 H 0.45268 0.57598 0.5128 0.0
H5221 H 0.42801 0.59199 0.5238 0.0
H5222 H 0.3881 0.53625 0.50479 0.0
H5223 H 0.41277 0.52019 0.49382 0.0
C5224 C 0.36226 0.58239 0.50677 0.0
C5225 C 0.36317 0.59693 0.52353 0.0
C5226 C 0.3761 0.57189 0.50426 0.0
C5227 C 0.39105 0.57566 0.51851 0.0
C5228 C 0.39186 0.59 0.53544 0.0
C5229 C 0.37795 0.60053 0.53797 0.0
C5230 C 0.4387 0.56704 0.51141 0.0
C5231 C 0.43454 0.5469 0.50225 0.0
C5232 C 0.42461 0.5762 0.51773 0.0
C5233 C 0.40619 0.56535 0.51492 0.0
C5234 C 0.40219 0.54497 0.5068 0.0
C5235 C 0.41626 0.53582 0.5005 0.0
H5236 H 0.91104 0.946 0.50912 0.0
H5237 H 0.91075 0.97356 0.56919 0.0
H5238 H 0.9418 0.96601 0.5084 0.0
H5239 H 0.94217 0.99309 0.56869 0.0
H5240 H 0.9933 0.03855 0.55382 0.0
H5241 H 0.9617 0.02018 0.55615 0.0
H5242 H 0.97273 0.96816 0.52002 0.0
H5243 H 1.0037 0.98634 0.51738 0.0
C5244 C 0.91743 0.95639 0.52222 0.0
C5245 C 0.90809 0.95803 0.53919 0.0
C5246 C 0.93535 0.96776 0.52189 0.0
C5247 C 0.94478 0.98119 0.53854 0.0
C5248 C 0.93544 0.98305 0.55551 0.0
C5249 C 0.91742 0.97161 0.55586 0.0
C5250 C 0.98898 0.0232 0.54638 0.0
C5251 C 1.00122 0.01415 0.53524 0.0
C5252 C 0.97082 0.01258 0.5478 0.0
C5253 C 0.96437 0.99263 0.53805 0.0
C5254 C 0.97684 0.98357 0.52737 0.0
C5255 C 0.99483 0.99408 0.52598 0.0
H5256 H 0.86971 0.15685 0.24259 0.0
H5257 H 0.88563 0.18004 0.30366 0.0
H5258 H 0.85316 0.18281 0.24121 0.0
H5259 H 0.86884 0.20619 0.30214 0.0
H5260 H 0.82731 0.24874 0.29741 0.0
H5261 H 0.84288 0.22138 0.30032 0.0
H5262 H 0.85093 0.21443 0.23934 0.0
H5263 H 0.83556 0.2413 0.23665 0.0
C5264 C 0.87006 0.16736 0.25592 0.0
C5265 C 0.87979 0.16532 0.27326 0.0
C5266 C 0.86024 0.1828 0.25507 0.0
C5267 C 0.85918 0.19758 0.27148 0.0
C5268 C 0.86871 0.19553 0.28892 0.0
C5269 C 0.87865 0.18009 0.28976 0.0
C5270 C 0.83212 0.24122 0.28451 0.0
C5271 C 0.82965 0.24772 0.26666 0.0
C5272 C 0.84142 0.22535 0.28619 0.0
C5273 C 0.84866 0.2148 0.2701 0.0
C5274 C 0.84575 0.22126 0.25232 0.0
C5275 C 0.83675 0.23711 0.25073 0.0
H5276 H 0.68711 0.08293 0.98403 0.0
H5277 H 0.69432 0.05502 0.03329 0.0
H5278 H 0.65436 0.0792 0.98839 0.0
H5279 H 0.66167 0.05179 0.03798 0.0
H5280 H 0.59897 0.03772 0.02846 0.0
H5281 H 0.63008 0.0369 0.02286 0.0
H5282 H 0.64029 0.0983 0.01635 0.0
H5283 H 0.60825 0.09911 0.02271 0.0
C5284 C 0.6815 0.07518 0.99522 0.0
C5285 C 0.69311 0.06955 0.0086 0.0
C5286 C 0.66294 0.07354 0.998 0.0
C5287 C 0.65593 0.06607 0.01399 0.0
C5288 C 0.66697 0.05794 0.02573 0.0
C5289 C 0.68551 0.05954 0.02293 0.0
C5290 C 0.6078 0.05133 0.02685 0.0
C5291 C 0.60111 0.06853 0.02667 0.0
C5292 C 0.62571 0.05076 0.02328 0.0
C5293 C 0.63739 0.06742 0.01898 0.0
C5294 C 0.63123 0.08513 0.01941 0.0
C5295 C 0.61312 0.0857 0.02334 0.0
H5296 H 0.21294 0.43697 0.23908 0.0
H5297 H 0.26618 0.47297 0.23245 0.0
H5298 H 0.22798 0.41275 0.25037 0.0
H5299 H 0.28135 0.44889 0.24402 0.0
H5300 H 0.30277 0.40044 0.26702 0.0
H5301 H 0.28623 0.41364 0.24312 0.0
H5302 H 0.24571 0.42297 0.28364 0.0
H5303 H 0.26189 0.40943 0.30722 0.0
C5304 C 0.22783 0.43917 0.23925 0.0
C5305 C 0.23853 0.45675 0.23523 0.0
C5306 C 0.23641 0.42543 0.24576 0.0
C5307 C 0.25576 0.42928 0.24845 0.0
C5308 C 0.26638 0.44563 0.24203 0.0
C5309 C 0.25775 0.45937 0.23541 0.0
C5310 C 0.29013 0.40499 0.27062 0.0
C5311 C 0.28356 0.404 0.28896 0.0
C5312 C 0.28075 0.41253 0.25699 0.0
C5313 C 0.26462 0.41899 0.26148 0.0
C5314 C 0.2579 0.41762 0.27965 0.0
C5315 C 0.26729 0.4102 0.29327 0.0
H5316 H 0.24355 0.45997 0.01017 0.0
H5317 H 0.21247 0.42911 0.05023 0.0
H5318 H 0.21975 0.47843 0.00686 0.0
H5319 H 0.18846 0.448 0.04712 0.0
H5320 H 0.14163 0.47064 0.01284 0.0
H5321 H 0.1642 0.45191 0.02188 0.0
H5322 H 0.20799 0.50449 0.02665 0.0
H5323 H 0.18565 0.52283 0.01733 0.0
C5324 C 0.23158 0.45711 0.01827 0.0
C5325 C 0.2299 0.44301 0.03039 0.0
C5326 C 0.21799 0.46786 0.01654 0.0
C5327 C 0.20224 0.46486 0.02686 0.0
C5328 C 0.20041 0.45066 0.03896 0.0
C5329 C 0.2142 0.43996 0.04085 0.0
C5330 C 0.15604 0.47821 0.01624 0.0
C5331 C 0.16197 0.49809 0.01411 0.0
C5332 C 0.16896 0.46752 0.02141 0.0
C5333 C 0.18797 0.4766 0.02457 0.0
C5334 C 0.19355 0.49688 0.02382 0.0
C5335 C 0.18075 0.50744 0.01857 0.0
H5336 H 0.85363 0.96587 0.28216 0.0
H5337 H 0.89865 0.94579 0.25494 0.0
H5338 H 0.83815 0.93156 0.282 0.0
H5339 H 0.88283 0.91145 0.25395 0.0
H5340 H 0.85769 0.84941 0.26661 0.0
H5341 H 0.87341 0.88378 0.26715 0.0
H5342 H 0.82091 0.9007 0.26786 0.0
H5343 H 0.80545 0.8665 0.2681 0.0
C5344 C 0.86041 0.95428 0.2761 0.0
C5345 C 0.87774 0.95938 0.26858 0.0
C5346 C 0.85123 0.93417 0.27576 0.0
C5347 C 0.85882 0.91785 0.26789 0.0
C5348 C 0.87619 0.923 0.2604 0.0
C5349 C 0.88534 0.9431 0.26073 0.0
C5350 C 0.84936 0.86036 0.26684 0.0
C5351 C 0.82995 0.85447 0.26722 0.0
C5352 C 0.85851 0.88044 0.26704 0.0
C5353 C 0.84882 0.8959 0.26755 0.0
C5354 C 0.82937 0.88991 0.26779 0.0
C5355 C 0.82025 0.86984 0.2677 0.0
H5356 H 0.77453 0.13773 0.72412 0.0
H5357 H 0.76913 0.14805 0.78608 0.0
H5358 H 0.78703 0.17335 0.7265 0.0
H5359 H 0.78276 0.18303 0.78835 0.0
H5360 H 0.81541 0.24574 0.77837 0.0
H5361 H 0.81531 0.21039 0.77137 0.0
H5362 H 0.75844 0.19729 0.74729 0.0
H5363 H 0.75834 0.2328 0.7547 0.0
C5364 C 0.77667 0.1474 0.73829 0.0
C5365 C 0.77037 0.1402 0.75481 0.0
C5366 C 0.784 0.16762 0.73961 0.0
C5367 C 0.78564 0.18051 0.75756 0.0
C5368 C 0.78169 0.17305 0.77443 0.0
C5369 C 0.77395 0.15299 0.77308 0.0
C5370 C 0.80301 0.23537 0.77125 0.0
C5371 C 0.78695 0.24181 0.76666 0.0
C5372 C 0.80306 0.21528 0.76717 0.0
C5373 C 0.78707 0.20158 0.75837 0.0
C5374 C 0.77104 0.20795 0.75362 0.0
C5375 C 0.77088 0.22803 0.75806 0.0
loop_
_geom_bond_atom_site_label_1
_geom_bond_atom_site_label_2
_geom_bond_distance
_geom_bond_site_symmetry_2
_ccdc_geom_bond_type
Li0 N17 1.990 . S
Li0 O60 1.956 . S
Li0 O61 1.970 . S
Li0 O62 1.961 . S
Li1 N25 1.990 . S
Li1 O60 1.970 . S
Li1 O61 1.956 . S
Li1 O63 1.961 . S
Li2 N47 1.990 . S
Li2 O60 1.961 . S
Li2 O62 1.956 . S
Li2 O63 1.970 . S
Li3 N53 1.990 . S
Li3 O61 1.961 . S
Li3 O62 1.970 . S
Li3 O63 1.956 . S
C4 C6 1.348 . S
C4 C7 1.356 . S
C4 O60 1.325 . S
N5 C8 1.314 . S
N5 C9 1.279 . S
C6 C4 1.348 . S
C6 C8 1.353 . S
C6 H64 0.929 . S
C7 C4 1.356 . S
C7 C9 1.358 . S
C7 H65 0.930 . S
C8 N5 1.314 . S
C8 C6 1.353 . S
C8 H66 0.930 . S
C9 N5 1.279 . S
C9 C7 1.358 . S
C9 H67 0.930 . S
C10 C13 1.348 . S
C10 C14 1.356 . S
C10 O61 1.325 . S
C11 N12 1.279 . S
C11 C14 1.358 . S
C11 H68 0.930 . S
N12 C11 1.279 . S
N12 C15 1.314 . S
C13 C10 1.348 . S
C13 C15 1.353 . S
C13 H69 0.929 . S
C14 C10 1.356 . S
C14 C11 1.358 . S
C14 H70 0.930 . S
C15 N12 1.314 . S
C15 C13 1.353 . S
C15 H71 0.930 . S
C16 N17 1.314 . S
C16 C21 1.353 . S
C16 H22 0.930 . S
N17 Li0 1.990 . S
N17 C16 1.314 . S
N17 C19 1.279 . S
C18 C19 1.358 . S
C18 C20 1.356 . S
C18 H72 0.930 . S
C19 N17 1.279 . S
C19 C18 1.358 . S
C19 H23 0.930 . S
C20 C18 1.356 . S
C20 C21 1.348 . S
C21 C16 1.353 . S
C21 C20 1.348 . S
C21 H73 0.929 . S
H22 C16 0.930 . S
H23 C19 0.930 . S
C24 N25 1.314 . S
C24 C26 1.353 . S
C24 H30 0.930 . S
N25 Li1 1.990 . S
N25 C24 1.314 . S
N25 C28 1.279 . S
C26 C24 1.353 . S
C26 C29 1.348 . S
C26 H74 0.929 . S
C27 C28 1.358 . S
C27 C29 1.356 . S
C27 H75 0.930 . S
C28 N25 1.279 . S
C28 C27 1.358 . S
C28 H31 0.930 . S
C29 C26 1.348 . S
C29 C27 1.356 . S
H30 C24 0.930 . S
H31 C28 0.930 . S
C32 C34 1.348 . S
C32 C35 1.356 . S
C32 O62 1.325 . S
N33 C36 1.314 . S
N33 C37 1.279 . S
C34 C32 1.348 . S
C34 C36 1.353 . S
C34 H76 0.929 . S
C35 C32 1.356 . S
C35 C37 1.358 . S
C35 H77 0.930 . S
C36 N33 1.314 . S
C36 C34 1.353 . S
C36 H78 0.930 . S
C37 N33 1.279 . S
C37 C35 1.358 . S
C37 H79 0.930 . S
C38 C39 1.348 . S
C38 C40 1.356 . S
C38 O63 1.325 . S
C39 C38 1.348 . S
C39 C41 1.353 . S
C39 H80 0.929 . S
C40 C38 1.356 . S
C40 C42 1.358 . S
C40 H81 0.930 . S
C41 C39 1.353 . S
C41 N43 1.314 . S
C41 H82 0.930 . S
C42 C40 1.358 . S
C42 N43 1.279 . S
C42 H83 0.930 . S
N43 C41 1.314 . S
N43 C42 1.279 . S
C44 C46 1.353 . S
C44 N47 1.314 . S
C44 H50 0.930 . S
C45 N47 1.279 . S
C45 C48 1.358 . S
C45 H51 0.930 . S
C46 C44 1.353 . S
C46 C49 1.348 . S
C46 H84 0.929 . S
N47 Li2 1.990 . S
N47 C44 1.314 . S
N47 C45 1.279 . S
C48 C45 1.358 . S
C48 C49 1.356 . S
C48 H85 0.930 . S
C49 C46 1.348 . S
C49 C48 1.356 . S
H50 C44 0.930 . S
H51 C45 0.930 . S
C52 N53 1.314 . S
C52 C54 1.353 . S
C52 H58 0.930 . S
N53 Li3 1.990 . S
N53 C52 1.314 . S
N53 C56 1.279 . S
C54 C52 1.353 . S
C54 C57 1.348 . S
C54 H86 0.929 . S
C55 C56 1.358 . S
C55 C57 1.356 . S
C55 H87 0.930 . S
C56 N53 1.279 . S
C56 C55 1.358 . S
C56 H59 0.930 . S
C57 C54 1.348 . S
C57 C55 1.356 . S
H58 C52 0.930 . S
H59 C56 0.930 . S
O60 Li0 1.956 . S
O60 Li1 1.970 . S
O60 Li2 1.961 . S
O60 C4 1.325 . S
O61 Li0 1.970 . S
O61 Li1 1.956 . S
O61 Li3 1.961 . S
O61 C10 1.325 . S
O62 Li0 1.961 . S
O62 Li2 1.956 . S
O62 Li3 1.970 . S
O62 C32 1.325 . S
O63 Li1 1.961 . S
O63 Li2 1.970 . S
O63 Li3 1.956 . S
O63 C38 1.325 . S
H64 C6 0.929 . S
H65 C7 0.930 . S
H66 C8 0.930 . S
H67 C9 0.930 . S
H68 C11 0.930 . S
H69 C13 0.929 . S
H70 C14 0.930 . S
H71 C15 0.930 . S
H72 C18 0.930 . S
H73 C21 0.929 . S
H74 C26 0.929 . S
H75 C27 0.930 . S
H76 C34 0.929 . S
H77 C35 0.930 . S
H78 C36 0.930 . S
H79 C37 0.930 . S
H80 C39 0.929 . S
H81 C40 0.930 . S
H82 C41 0.930 . S
H83 C42 0.930 . S
H84 C46 0.929 . S
H85 C48 0.930 . S
H86 C54 0.929 . S
H87 C55 0.930 . S
Li88 N105 1.990 . S
Li88 O148 1.956 . S
Li88 O149 1.970 . S
Li88 O150 1.961 1_455 S
Li89 N113 1.990 . S
Li89 O148 1.970 . S
Li89 O149 1.956 . S
Li89 O151 1.933 1_455 S
Li90 N135 1.990 . S
Li90 O148 1.961 1_655 S
Li90 O150 1.956 . S
Li90 O151 1.972 . S
Li91 N141 1.990 . S
Li91 O149 1.961 1_655 S
Li91 O150 1.970 . S
Li91 O151 1.995 . S
C92 C94 1.348 . S
C92 C95 1.356 . S
C92 O148 1.325 . S
N93 C96 1.314 . S
N93 C97 1.279 . S
C94 C92 1.348 . S
C94 C96 1.353 . S
C94 H152 0.929 . S
C95 C92 1.356 . S
C95 C97 1.358 . S
C95 H153 0.930 . S
C96 N93 1.314 . S
C96 C94 1.353 . S
C96 H154 0.930 . S
C97 N93 1.279 . S
C97 C95 1.358 . S
C97 H155 0.930 . S
C98 C101 1.348 . S
C98 C102 1.356 . S
C98 O149 1.325 . S
C99 N100 1.279 . S
C99 C102 1.358 . S
C99 H156 0.930 . S
N100 C99 1.279 . S
N100 C103 1.314 . S
C101 C98 1.348 . S
C101 C103 1.353 . S
C101 H157 0.929 . S
C102 C98 1.356 . S
C102 C99 1.358 . S
C102 H158 0.927 1_455 S
C103 N100 1.314 . S
C103 C101 1.353 . S
C103 H159 0.930 . S
C104 N105 1.314 1_655 S
C104 C109 1.353 . S
C104 H110 0.930 . S
N105 Li88 1.990 . S
N105 C104 1.314 1_455 S
N105 C107 1.279 . S
C106 C107 1.358 . S
C106 C108 1.356 . S
C106 H160 0.930 . S
C107 N105 1.279 . S
C107 C106 1.358 . S
C107 H111 0.930 . S
C108 C106 1.356 . S
C108 C109 1.348 1_455 S
C109 C104 1.353 . S
C109 C108 1.348 1_655 S
C109 H161 0.929 . S
H110 C104 0.930 . S
H111 C107 0.930 . S
C112 N113 1.314 . S
C112 C114 1.353 . S
C112 H118 0.930 . S
N113 Li89 1.990 . S
N113 C112 1.314 . S
N113 C116 1.279 . S
C114 C112 1.353 . S
C114 C117 1.348 . S
C114 H162 0.929 . S
C115 C116 1.358 . S
C115 C117 1.356 . S
C115 H163 0.930 . S
C116 N113 1.279 . S
C116 C115 1.358 . S
C116 H119 0.930 . S
C117 C114 1.348 . S
C117 C115 1.356 . S
H118 C112 0.930 . S
H119 C116 0.930 . S
C120 C122 1.348 . S
C120 C123 1.356 . S
C120 O150 1.325 . S
N121 C124 1.314 . S
N121 C125 1.279 . S
C122 C120 1.348 . S
C122 C124 1.353 . S
C122 H164 0.929 . S
C123 C120 1.356 . S
C123 C125 1.358 . S
C123 H165 0.930 . S
C124 N121 1.314 . S
C124 C122 1.353 . S
C124 H166 0.930 . S
C125 N121 1.279 . S
C125 C123 1.358 . S
C125 H167 0.930 . S
C126 C127 1.348 . S
C126 C128 1.356 1_655 S
C126 O151 1.323 . S
C127 C126 1.348 . S
C127 C129 1.353 . S
C127 H168 0.929 . S
C128 C126 1.356 1_455 S
C128 C130 1.358 . S
C128 H169 0.930 . S
C129 C127 1.353 . S
C129 N131 1.314 . S
C129 H170 0.930 . S
C130 C128 1.358 . S
C130 N131 1.278 1_455 S
C130 H171 0.932 . S
N131 C129 1.314 . S
N131 C130 1.278 1_655 S
C132 C134 1.353 . S
C132 N135 1.314 1_455 S
C132 H138 0.930 . S
C133 N135 1.279 . S
C133 C136 1.358 . S
C133 H139 0.930 . S
C134 C132 1.353 . S
C134 C137 1.348 1_455 S
C134 H172 0.929 . S
N135 Li90 1.990 . S
N135 C132 1.314 1_655 S
N135 C133 1.279 . S
C136 C133 1.358 . S
C136 C137 1.356 . S
C136 H173 0.930 . S
C137 C134 1.348 1_655 S
C137 C136 1.356 . S
H138 C132 0.930 . S
H139 C133 0.930 . S
C140 N141 1.314 . S
C140 C142 1.353 . S
C140 H146 0.930 . S
N141 Li91 1.990 . S
N141 C140 1.314 . S
N141 C144 1.279 . S
C142 C140 1.353 . S
C142 C145 1.348 . S
C142 H174 0.929 . S
C143 C144 1.358 . S
C143 C145 1.356 . S
C143 H175 0.930 . S
C144 N141 1.279 . S
C144 C143 1.358 . S
C144 H147 0.930 . S
C145 C142 1.348 . S
C145 C143 1.356 . S
H146 C140 0.930 . S
H147 C144 0.930 . S
O148 Li88 1.956 . S
O148 Li89 1.970 . S
O148 Li90 1.961 1_455 S
O148 C92 1.325 . S
O149 Li88 1.970 . S
O149 Li89 1.956 . S
O149 Li91 1.961 1_455 S
O149 C98 1.325 . S
O150 Li88 1.961 1_655 S
O150 Li90 1.956 . S
O150 Li91 1.970 . S
O150 C120 1.325 . S
O151 Li89 1.933 1_655 S
O151 Li90 1.972 . S
O151 Li91 1.995 . S
O151 C126 1.323 . S
H152 C94 0.929 . S
H153 C95 0.930 . S
H154 C96 0.930 . S
H155 C97 0.930 . S
H156 C99 0.930 . S
H157 C101 0.929 . S
H158 C102 0.927 1_655 S
H159 C103 0.930 . S
H160 C106 0.930 . S
H161 C109 0.929 . S
H162 C114 0.929 . S
H163 C115 0.930 . S
H164 C122 0.929 . S
H165 C123 0.930 . S
H166 C124 0.930 . S
H167 C125 0.930 . S
H168 C127 0.929 . S
H169 C128 0.930 . S
H170 C129 0.930 . S
H171 C130 0.932 . S
H172 C134 0.929 . S
H173 C136 0.930 . S
H174 C142 0.929 . S
H175 C143 0.930 . S
Li176 N193 1.990 . S
Li176 O236 1.956 . S
Li176 O237 1.970 . S
Li176 O238 1.961 . S
Li177 N201 1.990 . S
Li177 O236 1.970 . S
Li177 O237 1.956 . S
Li177 O239 1.961 . S
Li178 N223 1.990 . S
Li178 O236 1.961 . S
Li178 O238 1.956 . S
Li178 O239 1.970 . S
Li179 N229 1.990 . S
Li179 O237 1.961 . S
Li179 O238 1.970 . S
Li179 O239 1.956 . S
C180 C182 1.348 . S
C180 C183 1.356 . S
C180 O236 1.325 . S
N181 C184 1.314 . S
N181 C185 1.279 . S
C182 C180 1.348 . S
C182 C184 1.353 . S
C182 H240 0.929 . S
C183 C180 1.356 . S
C183 C185 1.358 . S
C183 H241 0.930 . S
C184 N181 1.314 . S
C184 C182 1.353 . S
C184 H242 0.930 . S
C185 N181 1.279 . S
C185 C183 1.358 . S
C185 H243 0.930 . S
C186 C189 1.348 . S
C186 C190 1.356 . S
C186 O237 1.325 . S
C187 N188 1.279 . S
C187 C190 1.358 . S
C187 H244 0.930 . S
N188 C187 1.279 . S
N188 C191 1.314 . S
C189 C186 1.348 . S
C189 C191 1.353 . S
C189 H245 0.929 . S
C190 C186 1.356 . S
C190 C187 1.358 . S
C190 H246 0.930 . S
C191 N188 1.314 . S
C191 C189 1.353 . S
C191 H247 0.930 . S
C192 N193 1.314 . S
C192 C197 1.353 . S
C192 H198 0.930 . S
N193 Li176 1.990 . S
N193 C192 1.314 . S
N193 C195 1.279 . S
C194 C195 1.358 . S
C194 C196 1.356 . S
C194 H248 0.930 . S
C195 N193 1.279 . S
C195 C194 1.358 . S
C195 H199 0.930 . S
C196 C194 1.356 . S
C196 C197 1.348 . S
C197 C192 1.353 . S
C197 C196 1.348 . S
C197 H249 0.929 . S
H198 C192 0.930 . S
H199 C195 0.930 . S
C200 N201 1.314 . S
C200 C202 1.353 . S
C200 H206 0.930 . S
N201 Li177 1.990 . S
N201 C200 1.314 . S
N201 C204 1.279 . S
C202 C200 1.353 . S
C202 C205 1.348 . S
C202 H250 0.929 . S
C203 C204 1.358 . S
C203 C205 1.356 . S
C203 H251 0.930 . S
C204 N201 1.279 . S
C204 C203 1.358 . S
C204 H207 0.930 . S
C205 C202 1.348 . S
C205 C203 1.356 . S
H206 C200 0.930 . S
H207 C204 0.930 . S
C208 C210 1.348 . S
C208 C211 1.356 . S
C208 O238 1.325 . S
N209 C212 1.314 . S
N209 C213 1.279 . S
C210 C208 1.348 . S
C210 C212 1.353 . S
C210 H252 0.929 . S
C211 C208 1.356 . S
C211 C213 1.358 . S
C211 H253 0.930 . S
C212 N209 1.314 . S
C212 C210 1.353 . S
C212 H254 0.930 . S
C213 N209 1.279 . S
C213 C211 1.358 . S
C213 H255 0.930 . S
C214 C215 1.348 . S
C214 C216 1.356 . S
C214 O239 1.325 . S
C215 C214 1.348 . S
C215 C217 1.353 . S
C215 H256 0.929 . S
C216 C214 1.356 . S
C216 C218 1.358 . S
C216 H257 0.930 . S
C217 C215 1.353 . S
C217 N219 1.314 . S
C217 H258 0.930 . S
C218 C216 1.358 . S
C218 N219 1.279 . S
C218 H259 0.930 . S
N219 C217 1.314 . S
N219 C218 1.279 . S
C220 C222 1.353 . S
C220 N223 1.314 . S
C220 H226 0.930 . S
C221 N223 1.279 . S
C221 C224 1.358 . S
C221 H227 0.930 . S
C222 C220 1.353 . S
C222 C225 1.348 . S
C222 H260 0.929 . S
N223 Li178 1.990 . S
N223 C220 1.314 . S
N223 C221 1.279 . S
C224 C221 1.358 . S
C224 C225 1.356 . S
C224 H261 0.930 . S
C225 C222 1.348 . S
C225 C224 1.356 . S
H226 C220 0.930 . S
H227 C221 0.930 . S
C228 N229 1.314 . S
C228 C230 1.353 . S
C228 H234 0.930 . S
N229 Li179 1.990 . S
N229 C228 1.314 . S
N229 C232 1.279 . S
C230 C228 1.353 . S
C230 C233 1.348 . S
C230 H262 0.929 . S
C231 C232 1.358 . S
C231 C233 1.356 . S
C231 H263 0.930 . S
C232 N229 1.279 . S
C232 C231 1.358 . S
C232 H235 0.930 . S
C233 C230 1.348 . S
C233 C231 1.356 . S
H234 C228 0.930 . S
H235 C232 0.930 . S
O236 Li176 1.956 . S
O236 Li177 1.970 . S
O236 Li178 1.961 . S
O236 C180 1.325 . S
O237 Li176 1.970 . S
O237 Li177 1.956 . S
O237 Li179 1.961 . S
O237 C186 1.325 . S
O238 Li176 1.961 . S
O238 Li178 1.956 . S
O238 Li179 1.970 . S
O238 C208 1.325 . S
O239 Li177 1.961 . S
O239 Li178 1.970 . S
O239 Li179 1.956 . S
O239 C214 1.325 . S
H240 C182 0.929 . S
H241 C183 0.930 . S
H242 C184 0.930 . S
H243 C185 0.930 . S
H244 C187 0.930 . S
H245 C189 0.929 . S
H246 C190 0.930 . S
H247 C191 0.930 . S
H248 C194 0.930 . S
H249 C197 0.929 . S
H250 C202 0.929 . S
H251 C203 0.930 . S
H252 C210 0.929 . S
H253 C211 0.930 . S
H254 C212 0.930 . S
H255 C213 0.930 . S
H256 C215 0.929 . S
H257 C216 0.930 . S
H258 C217 0.930 . S
H259 C218 0.930 . S
H260 C222 0.929 . S
H261 C224 0.930 . S
H262 C230 0.929 . S
H263 C231 0.930 . S
Li264 N281 1.990 . S
Li264 O324 1.956 . S
Li264 O325 1.970 . S
Li264 O326 1.961 . S
Li265 N289 1.990 . S
Li265 O324 1.970 . S
Li265 O325 1.956 . S
Li265 O327 1.961 . S
Li266 N311 1.990 . S
Li266 O324 1.961 . S
Li266 O326 1.956 . S
Li266 O327 1.970 . S
Li267 N317 1.990 . S
Li267 O325 1.961 . S
Li267 O326 1.970 . S
Li267 O327 1.956 . S
C268 C270 1.348 . S
C268 C271 1.356 . S
C268 O324 1.325 . S
N269 C272 1.314 . S
N269 C273 1.279 . S
C270 C268 1.348 . S
C270 C272 1.353 . S
C270 H328 0.929 . S
C271 C268 1.356 . S
C271 C273 1.358 . S
C271 H329 0.930 . S
C272 N269 1.314 . S
C272 C270 1.353 . S
C272 H330 0.930 . S
C273 N269 1.279 . S
C273 C271 1.358 . S
C273 H331 0.930 . S
C274 C277 1.348 . S
C274 C278 1.356 . S
C274 O325 1.325 . S
C275 N276 1.279 . S
C275 C278 1.358 . S
C275 H332 0.930 . S
N276 C275 1.279 . S
N276 C279 1.314 . S
C277 C274 1.348 . S
C277 C279 1.353 . S
C277 H333 0.929 . S
C278 C274 1.356 . S
C278 C275 1.358 . S
C278 H334 0.930 . S
C279 N276 1.314 . S
C279 C277 1.353 . S
C279 H335 0.930 . S
C280 N281 1.314 . S
C280 C285 1.353 . S
C280 H286 0.930 . S
N281 Li264 1.990 . S
N281 C280 1.314 . S
N281 C283 1.279 . S
C282 C283 1.358 . S
C282 C284 1.356 . S
C282 H336 0.930 . S
C283 N281 1.279 . S
C283 C282 1.358 . S
C283 H287 0.930 . S
C284 C282 1.356 . S
C284 C285 1.348 . S
C285 C280 1.353 . S
C285 C284 1.348 . S
C285 H337 0.929 . S
H286 C280 0.930 . S
H287 C283 0.930 . S
C288 N289 1.314 . S
C288 C290 1.353 . S
C288 H294 0.930 . S
N289 Li265 1.990 . S
N289 C288 1.314 . S
N289 C292 1.279 . S
C290 C288 1.353 . S
C290 C293 1.348 . S
C290 H338 0.929 . S
C291 C292 1.358 . S
C291 C293 1.356 . S
C291 H339 0.930 . S
C292 N289 1.279 . S
C292 C291 1.358 . S
C292 H295 0.930 . S
C293 C290 1.348 . S
C293 C291 1.356 . S
H294 C288 0.930 . S
H295 C292 0.930 . S
C296 C298 1.348 . S
C296 C299 1.356 . S
C296 O326 1.325 . S
N297 C300 1.314 . S
N297 C301 1.279 . S
C298 C296 1.348 . S
C298 C300 1.353 . S
C298 H340 0.929 . S
C299 C296 1.356 . S
C299 C301 1.358 . S
C299 H341 0.930 . S
C300 N297 1.314 . S
C300 C298 1.353 . S
C300 H342 0.930 . S
C301 N297 1.279 . S
C301 C299 1.358 . S
C301 H343 0.930 . S
C302 C303 1.348 . S
C302 C304 1.356 . S
C302 O327 1.325 . S
C303 C302 1.348 . S
C303 C305 1.353 . S
C303 H344 0.929 . S
C304 C302 1.356 . S
C304 C306 1.358 . S
C304 H345 0.930 . S
C305 C303 1.353 . S
C305 N307 1.314 . S
C305 H346 0.930 . S
C306 C304 1.358 . S
C306 N307 1.279 . S
C306 H347 0.930 . S
N307 C305 1.314 . S
N307 C306 1.279 . S
C308 C310 1.353 . S
C308 N311 1.314 . S
C308 H314 0.930 . S
C309 N311 1.279 . S
C309 C312 1.358 . S
C309 H315 0.930 . S
C310 C308 1.353 . S
C310 C313 1.348 . S
C310 H348 0.929 . S
N311 Li266 1.990 . S
N311 C308 1.314 . S
N311 C309 1.279 . S
C312 C309 1.358 . S
C312 C313 1.356 . S
C312 H349 0.930 . S
C313 C310 1.348 . S
C313 C312 1.356 . S
H314 C308 0.930 . S
H315 C309 0.930 . S
C316 N317 1.314 . S
C316 C318 1.353 . S
C316 H322 0.930 . S
N317 Li267 1.990 . S
N317 C316 1.314 . S
N317 C320 1.279 . S
C318 C316 1.353 . S
C318 C321 1.348 . S
C318 H350 0.929 . S
C319 C320 1.358 . S
C319 C321 1.356 . S
C319 H351 0.930 . S
C320 N317 1.279 . S
C320 C319 1.358 . S
C320 H323 0.930 . S
C321 C318 1.348 . S
C321 C319 1.356 . S
H322 C316 0.930 . S
H323 C320 0.930 . S
O324 Li264 1.956 . S
O324 Li265 1.970 . S
O324 Li266 1.961 . S
O324 C268 1.325 . S
O325 Li264 1.970 . S
O325 Li265 1.956 . S
O325 Li267 1.961 . S
O325 C274 1.325 . S
O326 Li264 1.961 . S
O326 Li266 1.956 . S
O326 Li267 1.970 . S
O326 C296 1.325 . S
O327 Li265 1.961 . S
O327 Li266 1.970 . S
O327 Li267 1.956 . S
O327 C302 1.325 . S
H328 C270 0.929 . S
H329 C271 0.930 . S
H330 C272 0.930 . S
H331 C273 0.930 . S
H332 C275 0.930 . S
H333 C277 0.929 . S
H334 C278 0.930 . S
H335 C279 0.930 . S
H336 C282 0.930 . S
H337 C285 0.929 . S
H338 C290 0.929 . S
H339 C291 0.930 . S
H340 C298 0.929 . S
H341 C299 0.930 . S
H342 C300 0.930 . S
H343 C301 0.930 . S
H344 C303 0.929 . S
H345 C304 0.930 . S
H346 C305 0.930 . S
H347 C306 0.930 . S
H348 C310 0.929 . S
H349 C312 0.930 . S
H350 C318 0.929 . S
H351 C319 0.930 . S
Li352 N369 1.990 . S
Li352 O412 1.956 . S
Li352 O413 1.970 . S
Li352 O414 1.961 . S
Li353 N377 1.990 . S
Li353 O412 1.970 . S
Li353 O413 1.956 . S
Li353 O415 1.961 . S
Li354 N399 1.990 . S
Li354 O412 1.961 . S
Li354 O414 1.956 . S
Li354 O415 1.970 . S
Li355 N405 1.990 . S
Li355 O413 1.961 . S
Li355 O414 1.970 . S
Li355 O415 1.956 . S
C356 C358 1.348 . S
C356 C359 1.356 . S
C356 O412 1.325 . S
N357 C360 1.314 . S
N357 C361 1.279 . S
C358 C356 1.348 . S
C358 C360 1.353 . S
C358 H416 0.929 . S
C359 C356 1.356 . S
C359 C361 1.358 . S
C359 H417 0.930 . S
C360 N357 1.314 . S
C360 C358 1.353 . S
C360 H418 0.930 . S
C361 N357 1.279 . S
C361 C359 1.358 . S
C361 H419 0.930 . S
C362 C365 1.348 . S
C362 C366 1.356 . S
C362 O413 1.325 . S
C363 N364 1.279 . S
C363 C366 1.358 . S
C363 H420 0.930 . S
N364 C363 1.279 . S
N364 C367 1.314 . S
C365 C362 1.348 . S
C365 C367 1.353 . S
C365 H421 0.929 . S
C366 C362 1.356 . S
C366 C363 1.358 . S
C366 H422 0.930 . S
C367 N364 1.314 . S
C367 C365 1.353 . S
C367 H423 0.930 . S
C368 N369 1.314 . S
C368 C373 1.353 . S
C368 H374 0.930 . S
N369 Li352 1.990 . S
N369 C368 1.314 . S
N369 C371 1.279 . S
C370 C371 1.358 . S
C370 C372 1.356 . S
C370 H424 0.930 . S
C371 N369 1.279 . S
C371 C370 1.358 . S
C371 H375 0.930 . S
C372 C370 1.356 . S
C372 C373 1.348 . S
C373 C368 1.353 . S
C373 C372 1.348 . S
C373 H425 0.929 . S
H374 C368 0.930 . S
H375 C371 0.930 . S
C376 N377 1.314 . S
C376 C378 1.353 . S
C376 H382 0.930 . S
N377 Li353 1.990 . S
N377 C376 1.314 . S
N377 C380 1.279 . S
C378 C376 1.353 . S
C378 C381 1.348 . S
C378 H426 0.929 . S
C379 C380 1.358 . S
C379 C381 1.356 . S
C379 H427 0.930 . S
C380 N377 1.279 . S
C380 C379 1.358 . S
C380 H383 0.930 . S
C381 C378 1.348 . S
C381 C379 1.356 . S
H382 C376 0.930 . S
H383 C380 0.930 . S
C384 C386 1.348 . S
C384 C387 1.356 . S
C384 O414 1.325 . S
N385 C388 1.314 . S
N385 C389 1.279 . S
C386 C384 1.348 . S
C386 C388 1.353 . S
C386 H428 0.929 . S
C387 C384 1.356 . S
C387 C389 1.358 . S
C387 H429 0.930 . S
C388 N385 1.314 . S
C388 C386 1.353 . S
C388 H430 0.930 . S
C389 N385 1.279 . S
C389 C387 1.358 . S
C389 H431 0.930 . S
C390 C391 1.348 . S
C390 C392 1.356 . S
C390 O415 1.325 . S
C391 C390 1.348 . S
C391 C393 1.353 . S
C391 H432 0.929 . S
C392 C390 1.356 . S
C392 C394 1.358 . S
C392 H433 0.930 . S
C393 C391 1.353 . S
C393 N395 1.314 . S
C393 H434 0.930 . S
C394 C392 1.358 . S
C394 N395 1.279 . S
C394 H435 0.930 . S
N395 C393 1.314 . S
N395 C394 1.279 . S
C396 C398 1.353 . S
C396 N399 1.314 . S
C396 H402 0.930 . S
C397 N399 1.279 . S
C397 C400 1.358 . S
C397 H403 0.930 . S
C398 C396 1.353 . S
C398 C401 1.348 . S
C398 H436 0.929 . S
N399 Li354 1.990 . S
N399 C396 1.314 . S
N399 C397 1.279 . S
C400 C397 1.358 . S
C400 C401 1.356 . S
C400 H437 0.930 . S
C401 C398 1.348 . S
C401 C400 1.356 . S
H402 C396 0.930 . S
H403 C397 0.930 . S
C404 N405 1.314 . S
C404 C406 1.353 . S
C404 H410 0.930 . S
N405 Li355 1.990 . S
N405 C404 1.314 . S
N405 C408 1.279 . S
C406 C404 1.353 . S
C406 C409 1.348 . S
C406 H438 0.929 . S
C407 C408 1.358 . S
C407 C409 1.356 . S
C407 H439 0.930 . S
C408 N405 1.279 . S
C408 C407 1.358 . S
C408 H411 0.930 . S
C409 C406 1.348 . S
C409 C407 1.356 . S
H410 C404 0.930 . S
H411 C408 0.930 . S
O412 Li352 1.956 . S
O412 Li353 1.970 . S
O412 Li354 1.961 . S
O412 C356 1.325 . S
O413 Li352 1.970 . S
O413 Li353 1.956 . S
O413 Li355 1.961 . S
O413 C362 1.325 . S
O414 Li352 1.961 . S
O414 Li354 1.956 . S
O414 Li355 1.970 . S
O414 C384 1.325 . S
O415 Li353 1.961 . S
O415 Li354 1.970 . S
O415 Li355 1.956 . S
O415 C390 1.325 . S
H416 C358 0.929 . S
H417 C359 0.930 . S
H418 C360 0.930 . S
H419 C361 0.930 . S
H420 C363 0.930 . S
H421 C365 0.929 . S
H422 C366 0.930 . S
H423 C367 0.930 . S
H424 C370 0.930 . S
H425 C373 0.929 . S
H426 C378 0.929 . S
H427 C379 0.930 . S
H428 C386 0.929 . S
H429 C387 0.930 . S
H430 C388 0.930 . S
H431 C389 0.930 . S
H432 C391 0.929 . S
H433 C392 0.930 . S
H434 C393 0.930 . S
H435 C394 0.930 . S
H436 C398 0.929 . S
H437 C400 0.930 . S
H438 C406 0.929 . S
H439 C407 0.930 . S
Li440 N457 1.990 . S
Li440 O500 1.956 . S
Li440 O501 1.970 . S
Li440 O502 1.961 . S
Li441 N465 1.990 . S
Li441 O500 1.970 . S
Li441 O501 1.956 . S
Li441 O503 1.961 . S
Li442 N487 1.990 . S
Li442 O500 1.961 . S
Li442 O502 1.956 . S
Li442 O503 1.970 . S
Li443 N493 1.990 . S
Li443 O501 1.961 . S
Li443 O502 1.970 . S
Li443 O503 1.956 . S
C444 C446 1.348 . S
C444 C447 1.356 . S
C444 O500 1.325 . S
N445 C448 1.314 . S
N445 C449 1.279 . S
C446 C444 1.348 . S
C446 C448 1.353 . S
C446 H504 0.929 . S
C447 C444 1.356 . S
C447 C449 1.358 . S
C447 H505 0.930 . S
C448 N445 1.314 . S
C448 C446 1.353 . S
C448 H506 0.930 . S
C449 N445 1.279 . S
C449 C447 1.358 . S
C449 H507 0.930 . S
C450 C453 1.348 . S
C450 C454 1.356 . S
C450 O501 1.325 . S
C451 N452 1.279 . S
C451 C454 1.358 . S
C451 H508 0.930 . S
N452 C451 1.279 . S
N452 C455 1.314 . S
C453 C450 1.348 . S
C453 C455 1.353 . S
C453 H509 0.929 . S
C454 C450 1.356 . S
C454 C451 1.358 . S
C454 H510 0.930 . S
C455 N452 1.314 . S
C455 C453 1.353 . S
C455 H511 0.930 . S
C456 N457 1.314 . S
C456 C461 1.353 . S
C456 H462 0.930 . S
N457 Li440 1.990 . S
N457 C456 1.314 . S
N457 C459 1.279 . S
C458 C459 1.358 . S
C458 C460 1.356 . S
C458 H512 0.930 . S
C459 N457 1.279 . S
C459 C458 1.358 . S
C459 H463 0.930 . S
C460 C458 1.356 . S
C460 C461 1.348 . S
C461 C456 1.353 . S
C461 C460 1.348 . S
C461 H513 0.929 . S
H462 C456 0.930 . S
H463 C459 0.930 . S
C464 N465 1.314 . S
C464 C466 1.353 . S
C464 H470 0.930 . S
N465 Li441 1.990 . S
N465 C464 1.314 . S
N465 C468 1.279 . S
C466 C464 1.353 . S
C466 C469 1.348 . S
C466 H514 0.929 . S
C467 C468 1.358 . S
C467 C469 1.356 . S
C467 H515 0.930 . S
C468 N465 1.279 . S
C468 C467 1.358 . S
C468 H471 0.930 . S
C469 C466 1.348 . S
C469 C467 1.356 . S
H470 C464 0.930 . S
H471 C468 0.930 . S
C472 C474 1.348 . S
C472 C475 1.356 . S
C472 O502 1.325 . S
N473 C476 1.314 . S
N473 C477 1.279 . S
C474 C472 1.348 . S
C474 C476 1.353 . S
C474 H516 0.929 . S
C475 C472 1.356 . S
C475 C477 1.358 . S
C475 H517 0.930 . S
C476 N473 1.314 . S
C476 C474 1.353 . S
C476 H518 0.930 . S
C477 N473 1.279 . S
C477 C475 1.358 . S
C477 H519 0.930 . S
C478 C479 1.348 . S
C478 C480 1.356 . S
C478 O503 1.325 . S
C479 C478 1.348 . S
C479 C481 1.353 . S
C479 H520 0.929 . S
C480 C478 1.356 . S
C480 C482 1.358 . S
C480 H521 0.930 . S
C481 C479 1.353 . S
C481 N483 1.314 . S
C481 H522 0.930 . S
C482 C480 1.358 . S
C482 N483 1.279 . S
C482 H523 0.930 . S
N483 C481 1.314 . S
N483 C482 1.279 . S
C484 C486 1.353 . S
C484 N487 1.314 . S
C484 H490 0.930 . S
C485 N487 1.279 . S
C485 C488 1.358 . S
C485 H491 0.930 . S
C486 C484 1.353 . S
C486 C489 1.348 . S
C486 H524 0.929 . S
N487 Li442 1.990 . S
N487 C484 1.314 . S
N487 C485 1.279 . S
C488 C485 1.358 . S
C488 C489 1.356 . S
C488 H525 0.930 . S
C489 C486 1.348 . S
C489 C488 1.356 . S
H490 C484 0.930 . S
H491 C485 0.930 . S
C492 N493 1.314 . S
C492 C494 1.353 . S
C492 H498 0.930 . S
N493 Li443 1.990 . S
N493 C492 1.314 . S
N493 C496 1.279 . S
C494 C492 1.353 . S
C494 C497 1.348 . S
C494 H526 0.929 . S
C495 C496 1.358 . S
C495 C497 1.356 . S
C495 H527 0.930 . S
C496 N493 1.279 . S
C496 C495 1.358 . S
C496 H499 0.930 . S
C497 C494 1.348 . S
C497 C495 1.356 . S
H498 C492 0.930 . S
H499 C496 0.930 . S
O500 Li440 1.956 . S
O500 Li441 1.970 . S
O500 Li442 1.961 . S
O500 C444 1.325 . S
O501 Li440 1.970 . S
O501 Li441 1.956 . S
O501 Li443 1.961 . S
O501 C450 1.325 . S
O502 Li440 1.961 . S
O502 Li442 1.956 . S
O502 Li443 1.970 . S
O502 C472 1.325 . S
O503 Li441 1.961 . S
O503 Li442 1.970 . S
O503 Li443 1.956 . S
O503 C478 1.325 . S
H504 C446 0.929 . S
H505 C447 0.930 . S
H506 C448 0.930 . S
H507 C449 0.930 . S
H508 C451 0.930 . S
H509 C453 0.929 . S
H510 C454 0.930 . S
H511 C455 0.930 . S
H512 C458 0.930 . S
H513 C461 0.929 . S
H514 C466 0.929 . S
H515 C467 0.930 . S
H516 C474 0.929 . S
H517 C475 0.930 . S
H518 C476 0.930 . S
H519 C477 0.930 . S
H520 C479 0.929 . S
H521 C480 0.930 . S
H522 C481 0.930 . S
H523 C482 0.930 . S
H524 C486 0.929 . S
H525 C488 0.930 . S
H526 C494 0.929 . S
H527 C495 0.930 . S
Li528 N545 1.990 . S
Li528 O588 1.956 . S
Li528 O589 1.970 . S
Li528 O590 1.961 . S
Li529 N553 1.990 . S
Li529 O588 1.970 . S
Li529 O589 1.956 . S
Li529 O591 1.961 . S
Li530 N575 1.990 . S
Li530 O588 1.961 . S
Li530 O590 1.956 . S
Li530 O591 1.970 . S
Li531 N581 1.990 . S
Li531 O589 1.961 . S
Li531 O590 1.970 . S
Li531 O591 1.956 . S
C532 C534 1.348 . S
C532 C535 1.356 . S
C532 O588 1.325 . S
N533 C536 1.314 . S
N533 C537 1.279 . S
C534 C532 1.348 . S
C534 C536 1.353 . S
C534 H592 0.929 . S
C535 C532 1.356 . S
C535 C537 1.358 . S
C535 H593 0.930 . S
C536 N533 1.314 . S
C536 C534 1.353 . S
C536 H594 0.930 . S
C537 N533 1.279 . S
C537 C535 1.358 . S
C537 H595 0.930 . S
C538 C541 1.348 . S
C538 C542 1.356 . S
C538 O589 1.325 . S
C539 N540 1.279 . S
C539 C542 1.358 . S
C539 H596 0.930 . S
N540 C539 1.279 . S
N540 C543 1.314 . S
C541 C538 1.348 . S
C541 C543 1.353 . S
C541 H597 0.929 . S
C542 C538 1.356 . S
C542 C539 1.358 . S
C542 H598 0.930 . S
C543 N540 1.314 . S
C543 C541 1.353 . S
C543 H599 0.930 . S
C544 N545 1.314 . S
C544 C549 1.353 . S
C544 H550 0.930 . S
N545 Li528 1.990 . S
N545 C544 1.314 . S
N545 C547 1.279 . S
C546 C547 1.358 . S
C546 C548 1.356 . S
C546 H600 0.930 . S
C547 N545 1.279 . S
C547 C546 1.358 . S
C547 H551 0.930 . S
C548 C546 1.356 . S
C548 C549 1.348 . S
C549 C544 1.353 . S
C549 C548 1.348 . S
C549 H601 0.929 . S
H550 C544 0.930 . S
H551 C547 0.930 . S
C552 N553 1.314 . S
C552 C554 1.353 . S
C552 H558 0.930 . S
N553 Li529 1.990 . S
N553 C552 1.314 . S
N553 C556 1.279 . S
C554 C552 1.353 . S
C554 C557 1.348 . S
C554 H602 0.929 . S
C555 C556 1.358 . S
C555 C557 1.356 . S
C555 H603 0.930 . S
C556 N553 1.279 . S
C556 C555 1.358 . S
C556 H559 0.930 . S
C557 C554 1.348 . S
C557 C555 1.356 . S
H558 C552 0.930 . S
H559 C556 0.930 . S
C560 C562 1.348 . S
C560 C563 1.356 . S
C560 O590 1.325 . S
N561 C564 1.314 . S
N561 C565 1.279 . S
C562 C560 1.348 . S
C562 C564 1.353 . S
C562 H604 0.929 . S
C563 C560 1.356 . S
C563 C565 1.358 . S
C563 H605 0.930 . S
C564 N561 1.314 . S
C564 C562 1.353 . S
C564 H606 0.930 . S
C565 N561 1.279 . S
C565 C563 1.358 . S
C565 H607 0.930 . S
C566 C567 1.348 . S
C566 C568 1.356 . S
C566 O591 1.325 . S
C567 C566 1.348 . S
C567 C569 1.353 . S
C567 H608 0.929 . S
C568 C566 1.356 . S
C568 C570 1.358 . S
C568 H609 0.930 . S
C569 C567 1.353 . S
C569 N571 1.314 . S
C569 H610 0.930 . S
C570 C568 1.358 . S
C570 N571 1.279 . S
C570 H611 0.930 . S
N571 C569 1.314 . S
N571 C570 1.279 . S
C572 C574 1.353 . S
C572 N575 1.314 . S
C572 H578 0.930 . S
C573 N575 1.279 . S
C573 C576 1.358 . S
C573 H579 0.930 . S
C574 C572 1.353 . S
C574 C577 1.348 . S
C574 H612 0.929 . S
N575 Li530 1.990 . S
N575 C572 1.314 . S
N575 C573 1.279 . S
C576 C573 1.358 . S
C576 C577 1.356 . S
C576 H613 0.930 . S
C577 C574 1.348 . S
C577 C576 1.356 . S
H578 C572 0.930 . S
H579 C573 0.930 . S
C580 N581 1.314 . S
C580 C582 1.353 . S
C580 H586 0.930 . S
N581 Li531 1.990 . S
N581 C580 1.314 . S
N581 C584 1.279 . S
C582 C580 1.353 . S
C582 C585 1.348 . S
C582 H614 0.929 . S
C583 C584 1.358 . S
C583 C585 1.356 . S
C583 H615 0.930 . S
C584 N581 1.279 . S
C584 C583 1.358 . S
C584 H587 0.930 . S
C585 C582 1.348 . S
C585 C583 1.356 . S
H586 C580 0.930 . S
H587 C584 0.930 . S
O588 Li528 1.956 . S
O588 Li529 1.970 . S
O588 Li530 1.961 . S
O588 C532 1.325 . S
O589 Li528 1.970 . S
O589 Li529 1.956 . S
O589 Li531 1.961 . S
O589 C538 1.325 . S
O590 Li528 1.961 . S
O590 Li530 1.956 . S
O590 Li531 1.970 . S
O590 C560 1.325 . S
O591 Li529 1.961 . S
O591 Li530 1.970 . S
O591 Li531 1.956 . S
O591 C566 1.325 . S
H592 C534 0.929 . S
H593 C535 0.930 . S
H594 C536 0.930 . S
H595 C537 0.930 . S
H596 C539 0.930 . S
H597 C541 0.929 . S
H598 C542 0.930 . S
H599 C543 0.930 . S
H600 C546 0.930 . S
H601 C549 0.929 . S
H602 C554 0.929 . S
H603 C555 0.930 . S
H604 C562 0.929 . S
H605 C563 0.930 . S
H606 C564 0.930 . S
H607 C565 0.930 . S
H608 C567 0.929 . S
H609 C568 0.930 . S
H610 C569 0.930 . S
H611 C570 0.930 . S
H612 C574 0.929 . S
H613 C576 0.930 . S
H614 C582 0.929 . S
H615 C583 0.930 . S
Li616 N633 1.990 . S
Li616 O676 1.956 1_455 S
Li616 O677 1.970 . S
Li616 O678 1.961 . S
Li617 N641 1.956 1_455 S
Li617 O676 1.966 1_455 S
Li617 O677 1.984 . S
Li617 O679 1.994 . S
Li618 N663 1.990 . S
Li618 O676 1.961 1_455 S
Li618 O678 1.956 . S
Li618 O679 1.970 . S
Li619 N669 1.990 . S
Li619 O677 1.961 . S
Li619 O678 1.970 . S
Li619 O679 1.956 . S
C620 C622 1.348 . S
C620 C623 1.356 . S
C620 O676 1.325 . S
N621 C624 1.314 . S
N621 C625 1.279 . S
C622 C620 1.348 . S
C622 C624 1.353 . S
C622 H680 0.929 . S
C623 C620 1.356 . S
C623 C625 1.358 . S
C623 H681 0.930 . S
C624 N621 1.314 . S
C624 C622 1.353 . S
C624 H682 0.930 . S
C625 N621 1.279 . S
C625 C623 1.358 . S
C625 H683 0.930 1_556 S
C626 C629 1.348 . S
C626 C630 1.356 . S
C626 O677 1.325 . S
C627 N628 1.279 . S
C627 C630 1.358 . S
C627 H684 0.930 . S
N628 C627 1.279 . S
N628 C631 1.314 . S
C629 C626 1.348 . S
C629 C631 1.353 . S
C629 H685 0.929 . S
C630 C626 1.356 . S
C630 C627 1.358 . S
C630 H686 0.930 . S
C631 N628 1.314 . S
C631 C629 1.353 . S
C631 H687 0.930 . S
C632 N633 1.314 . S
C632 C637 1.353 . S
C632 H638 0.930 . S
N633 Li616 1.990 . S
N633 C632 1.314 . S
N633 C635 1.279 . S
C634 C635 1.358 . S
C634 C636 1.356 . S
C634 H688 0.937 . S
C635 N633 1.279 . S
C635 C634 1.358 . S
C635 H639 0.938 . S
C636 C634 1.356 . S
C636 C637 1.348 . S
C637 C632 1.353 . S
C637 C636 1.348 . S
C637 H689 0.929 . S
H638 C632 0.930 . S
H639 C635 0.938 . S
C640 N641 1.314 . S
C640 C642 1.353 . S
C640 H646 0.930 . S
N641 Li617 1.956 1_655 S
N641 C640 1.314 . S
N641 C644 1.279 . S
C642 C640 1.353 . S
C642 C645 1.348 . S
C642 H690 0.929 . S
C643 C644 1.358 . S
C643 C645 1.356 . S
C643 H691 0.930 . S
C644 N641 1.279 . S
C644 C643 1.358 . S
C644 H647 0.930 . S
C645 C642 1.348 . S
C645 C643 1.356 . S
H646 C640 0.930 . S
H647 C644 0.930 . S
C648 C650 1.348 . S
C648 C651 1.356 . S
C648 O678 1.325 . S
N649 C652 1.314 . S
N649 C653 1.279 . S
C650 C648 1.348 . S
C650 C652 1.353 . S
C650 H692 0.929 . S
C651 C648 1.356 . S
C651 C653 1.358 . S
C651 H693 0.930 . S
C652 N649 1.314 . S
C652 C650 1.353 . S
C652 H694 0.930 . S
C653 N649 1.279 . S
C653 C651 1.358 . S
C653 H695 0.930 1_556 S
C654 C655 1.348 . S
C654 C656 1.356 . S
C654 O679 1.325 . S
C655 C654 1.348 . S
C655 C657 1.353 . S
C655 H696 0.929 . S
C656 C654 1.356 . S
C656 C658 1.358 . S
C656 H697 0.930 . S
C657 C655 1.353 . S
C657 N659 1.314 . S
C657 H698 0.930 . S
C658 C656 1.358 . S
C658 N659 1.279 . S
C658 H699 0.930 . S
N659 C657 1.314 . S
N659 C658 1.279 . S
C660 C662 1.353 1_455 S
C660 N663 1.314 . S
C660 H666 0.930 1_455 S
C661 N663 1.279 . S
C661 C664 1.358 . S
C661 H667 0.930 . S
C662 C660 1.353 1_655 S
C662 C665 1.348 1_655 S
C662 H700 0.929 . S
N663 Li618 1.990 . S
N663 C660 1.314 . S
N663 C661 1.279 . S
C664 C661 1.358 . S
C664 C665 1.356 . S
C664 H701 0.930 . S
C665 C662 1.348 1_455 S
C665 C664 1.356 . S
H666 C660 0.930 1_655 S
H667 C661 0.930 . S
C668 N669 1.314 . S
C668 C670 1.353 . S
C668 H674 0.930 . S
N669 Li619 1.990 . S
N669 C668 1.314 . S
N669 C672 1.279 . S
C670 C668 1.353 . S
C670 C673 1.348 . S
C670 H702 0.929 . S
C671 C672 1.358 . S
C671 C673 1.356 . S
C671 H703 0.930 . S
C672 N669 1.279 . S
C672 C671 1.358 . S
C672 H675 0.930 . S
C673 C670 1.348 . S
C673 C671 1.356 . S
H674 C668 0.930 . S
H675 C672 0.930 . S
O676 Li616 1.956 1_655 S
O676 Li617 1.966 1_655 S
O676 Li618 1.961 1_655 S
O676 C620 1.325 . S
O677 Li616 1.970 . S
O677 Li617 1.984 . S
O677 Li619 1.961 . S
O677 C626 1.325 . S
O678 Li616 1.961 . S
O678 Li618 1.956 . S
O678 Li619 1.970 . S
O678 C648 1.325 . S
O679 Li617 1.994 . S
O679 Li618 1.970 . S
O679 Li619 1.956 . S
O679 C654 1.325 . S
H680 C622 0.929 . S
H681 C623 0.930 . S
H682 C624 0.930 . S
H683 C625 0.930 1_554 S
H684 C627 0.930 . S
H685 C629 0.929 . S
H686 C630 0.930 . S
H687 C631 0.930 . S
H688 C634 0.937 . S
H689 C637 0.929 . S
H690 C642 0.929 . S
H691 C643 0.930 . S
H692 C650 0.929 . S
H693 C651 0.930 . S
H694 C652 0.930 . S
H695 C653 0.930 1_554 S
H696 C655 0.929 . S
H697 C656 0.930 . S
H698 C657 0.930 . S
H699 C658 0.930 . S
H700 C662 0.929 . S
H701 C664 0.930 . S
H702 C670 0.929 . S
H703 C671 0.930 . S
Li704 N721 1.990 . S
Li704 O764 1.956 . S
Li704 O765 1.970 . S
Li704 O766 1.961 . S
Li705 N729 1.990 1_545 S
Li705 O764 1.970 . S
Li705 O765 1.956 . S
Li705 O767 1.961 . S
Li706 N751 1.990 . S
Li706 O764 1.961 . S
Li706 O766 1.956 . S
Li706 O767 1.970 . S
Li707 N757 1.990 . S
Li707 O765 1.961 . S
Li707 O766 1.970 . S
Li707 O767 1.956 . S
C708 C710 1.348 . S
C708 C711 1.356 . S
C708 O764 1.325 1_565 S
N709 C712 1.314 . S
N709 C713 1.279 . S
C710 C708 1.348 . S
C710 C712 1.353 . S
C710 H768 0.929 . S
C711 C708 1.356 . S
C711 C713 1.358 . S
C711 H769 0.930 1_565 S
C712 N709 1.314 . S
C712 C710 1.353 . S
C712 H770 0.930 . S
C713 N709 1.279 . S
C713 C711 1.358 . S
C713 H771 0.930 . S
C714 C717 1.348 . S
C714 C718 1.356 . S
C714 O765 1.325 . S
C715 N716 1.279 . S
C715 C718 1.358 . S
C715 H772 0.930 . S
N716 C715 1.279 . S
N716 C719 1.314 . S
C717 C714 1.348 . S
C717 C719 1.353 . S
C717 H773 0.929 . S
C718 C714 1.356 . S
C718 C715 1.358 . S
C718 H774 0.930 . S
C719 N716 1.314 . S
C719 C717 1.353 . S
C719 H775 0.930 . S
C720 N721 1.314 . S
C720 C725 1.353 . S
C720 H726 0.930 . S
N721 Li704 1.990 . S
N721 C720 1.314 . S
N721 C723 1.279 . S
C722 C723 1.358 . S
C722 C724 1.356 . S
C722 H776 0.930 . S
C723 N721 1.279 . S
C723 C722 1.358 . S
C723 H727 0.930 . S
C724 C722 1.356 . S
C724 C725 1.348 . S
C725 C720 1.353 . S
C725 C724 1.348 . S
C725 H777 0.929 . S
H726 C720 0.930 . S
H727 C723 0.930 . S
C728 N729 1.314 . S
C728 C730 1.353 . S
C728 H734 0.930 . S
N729 Li705 1.990 1_565 S
N729 C728 1.314 . S
N729 C732 1.279 . S
C730 C728 1.353 . S
C730 C733 1.348 . S
C730 H778 0.929 . S
C731 C732 1.358 . S
C731 C733 1.356 . S
C731 H779 0.930 . S
C732 N729 1.279 . S
C732 C731 1.358 . S
C732 H735 0.930 . S
C733 C730 1.348 . S
C733 C731 1.356 . S
H734 C728 0.930 . S
H735 C732 0.930 . S
C736 C738 1.348 . S
C736 C739 1.356 . S
C736 O766 1.325 . S
N737 C740 1.314 . S
N737 C741 1.279 . S
C738 C736 1.348 . S
C738 C740 1.353 . S
C738 H780 0.929 . S
C739 C736 1.356 . S
C739 C741 1.358 . S
C739 H781 0.930 . S
C740 N737 1.314 . S
C740 C738 1.353 . S
C740 H782 0.930 . S
C741 N737 1.279 . S
C741 C739 1.358 . S
C741 H783 0.930 . S
C742 C743 1.348 . S
C742 C744 1.356 . S
C742 O767 1.325 . S
C743 C742 1.348 . S
C743 C745 1.353 . S
C743 H784 0.929 . S
C744 C742 1.356 . S
C744 C746 1.358 . S
C744 H785 0.930 . S
C745 C743 1.353 . S
C745 N747 1.314 . S
C745 H786 0.930 . S
C746 C744 1.358 . S
C746 N747 1.279 . S
C746 H787 0.930 . S
N747 C745 1.314 . S
N747 C746 1.279 . S
C748 C750 1.353 . S
C748 N751 1.314 . S
C748 H754 0.971 . S
C749 N751 1.279 . S
C749 C752 1.358 . S
C749 H755 0.930 . S
C750 C748 1.353 . S
C750 C753 1.348 . S
C750 H788 0.929 1_545 S
N751 Li706 1.990 . S
N751 C748 1.314 . S
N751 C749 1.279 . S
C752 C749 1.358 . S
C752 C753 1.356 . S
C752 H789 0.930 . S
C753 C750 1.348 . S
C753 C752 1.356 . S
H754 C748 0.971 . S
H755 C749 0.930 . S
C756 N757 1.314 . S
C756 C758 1.353 . S
C756 H762 0.930 . S
N757 Li707 1.990 . S
N757 C756 1.314 . S
N757 C760 1.279 . S
C758 C756 1.353 . S
C758 C761 1.348 . S
C758 H790 0.929 . S
C759 C760 1.358 . S
C759 C761 1.356 . S
C759 H791 0.930 . S
C760 N757 1.279 . S
C760 C759 1.358 . S
C760 H763 0.930 . S
C761 C758 1.348 . S
C761 C759 1.356 . S
H762 C756 0.930 . S
H763 C760 0.930 . S
O764 Li704 1.956 . S
O764 Li705 1.970 . S
O764 Li706 1.961 . S
O764 C708 1.325 1_545 S
O765 Li704 1.970 . S
O765 Li705 1.956 . S
O765 Li707 1.961 . S
O765 C714 1.325 . S
O766 Li704 1.961 . S
O766 Li706 1.956 . S
O766 Li707 1.970 . S
O766 C736 1.325 . S
O767 Li705 1.961 . S
O767 Li706 1.970 . S
O767 Li707 1.956 . S
O767 C742 1.325 . S
H768 C710 0.929 . S
H769 C711 0.930 1_545 S
H770 C712 0.930 . S
H771 C713 0.930 . S
H772 C715 0.930 . S
H773 C717 0.929 . S
H774 C718 0.930 . S
H775 C719 0.930 . S
H776 C722 0.930 . S
H777 C725 0.929 . S
H778 C730 0.929 . S
H779 C731 0.930 . S
H780 C738 0.929 . S
H781 C739 0.930 . S
H782 C740 0.930 . S
H783 C741 0.930 . S
H784 C743 0.929 . S
H785 C744 0.930 . S
H786 C745 0.930 . S
H787 C746 0.930 . S
H788 C750 0.929 1_565 S
H789 C752 0.930 . S
H790 C758 0.929 . S
H791 C759 0.930 . S
Li792 N809 1.990 . S
Li792 O852 1.956 . S
Li792 O853 1.970 . S
Li792 O854 1.961 . S
Li793 N817 1.990 . S
Li793 O852 1.970 . S
Li793 O853 1.956 . S
Li793 O855 1.961 . S
Li794 N839 1.990 . S
Li794 O852 1.961 . S
Li794 O854 1.956 . S
Li794 O855 1.970 . S
Li795 N845 1.990 . S
Li795 O853 1.961 . S
Li795 O854 1.970 . S
Li795 O855 1.956 . S
C796 C798 1.348 . S
C796 C799 1.356 . S
C796 O852 1.325 . S
N797 C800 1.314 . S
N797 C801 1.279 . S
C798 C796 1.348 . S
C798 C800 1.353 . S
C798 H856 0.929 . S
C799 C796 1.356 . S
C799 C801 1.358 . S
C799 H857 0.930 . S
C800 N797 1.314 . S
C800 C798 1.353 . S
C800 H858 0.930 . S
C801 N797 1.279 . S
C801 C799 1.358 . S
C801 H859 0.930 . S
C802 C805 1.348 . S
C802 C806 1.356 . S
C802 O853 1.325 . S
C803 N804 1.279 . S
C803 C806 1.358 . S
C803 H860 0.930 . S
N804 C803 1.279 . S
N804 C807 1.314 . S
C805 C802 1.348 . S
C805 C807 1.353 . S
C805 H861 0.929 . S
C806 C802 1.356 . S
C806 C803 1.358 . S
C806 H862 0.930 . S
C807 N804 1.314 . S
C807 C805 1.353 . S
C807 H863 0.930 . S
C808 N809 1.314 . S
C808 C813 1.353 . S
C808 H814 0.930 . S
N809 Li792 1.990 . S
N809 C808 1.314 . S
N809 C811 1.279 . S
C810 C811 1.358 . S
C810 C812 1.356 . S
C810 H864 0.930 . S
C811 N809 1.279 . S
C811 C810 1.358 . S
C811 H815 0.930 . S
C812 C810 1.356 . S
C812 C813 1.348 . S
C813 C808 1.353 . S
C813 C812 1.348 . S
C813 H865 0.929 . S
H814 C808 0.930 . S
H815 C811 0.930 . S
C816 N817 1.314 . S
C816 C818 1.353 . S
C816 H822 0.930 . S
N817 Li793 1.990 . S
N817 C816 1.314 . S
N817 C820 1.279 . S
C818 C816 1.353 . S
C818 C821 1.348 . S
C818 H866 0.929 . S
C819 C820 1.358 . S
C819 C821 1.356 . S
C819 H867 0.930 . S
C820 N817 1.279 . S
C820 C819 1.358 . S
C820 H823 0.930 . S
C821 C818 1.348 . S
C821 C819 1.356 . S
H822 C816 0.930 . S
H823 C820 0.930 . S
C824 C826 1.348 . S
C824 C827 1.356 . S
C824 O854 1.325 . S
N825 C828 1.314 . S
N825 C829 1.279 . S
C826 C824 1.348 . S
C826 C828 1.353 . S
C826 H868 0.929 . S
C827 C824 1.356 . S
C827 C829 1.358 . S
C827 H869 0.930 . S
C828 N825 1.314 . S
C828 C826 1.353 . S
C828 H870 0.930 . S
C829 N825 1.279 . S
C829 C827 1.358 . S
C829 H871 0.930 . S
C830 C831 1.348 . S
C830 C832 1.356 . S
C830 O855 1.325 . S
C831 C830 1.348 . S
C831 C833 1.353 . S
C831 H872 0.929 . S
C832 C830 1.356 . S
C832 C834 1.358 . S
C832 H873 0.930 . S
C833 C831 1.353 . S
C833 N835 1.314 . S
C833 H874 0.930 . S
C834 C832 1.358 . S
C834 N835 1.279 . S
C834 H875 0.930 . S
N835 C833 1.314 . S
N835 C834 1.279 . S
C836 C838 1.353 . S
C836 N839 1.314 . S
C836 H842 0.930 . S
C837 N839 1.279 . S
C837 C840 1.358 . S
C837 H843 0.930 . S
C838 C836 1.353 . S
C838 C841 1.348 . S
C838 H876 0.929 . S
N839 Li794 1.990 . S
N839 C836 1.314 . S
N839 C837 1.279 . S
C840 C837 1.358 . S
C840 C841 1.356 . S
C840 H877 0.930 . S
C841 C838 1.348 . S
C841 C840 1.356 . S
H842 C836 0.930 . S
H843 C837 0.930 . S
C844 N845 1.314 . S
C844 C846 1.353 . S
C844 H850 0.930 . S
N845 Li795 1.990 . S
N845 C844 1.314 . S
N845 C848 1.279 . S
C846 C844 1.353 . S
C846 C849 1.348 . S
C846 H878 0.929 . S
C847 C848 1.358 . S
C847 C849 1.356 . S
C847 H879 0.930 . S
C848 N845 1.279 . S
C848 C847 1.358 . S
C848 H851 0.930 . S
C849 C846 1.348 . S
C849 C847 1.356 . S
H850 C844 0.930 . S
H851 C848 0.930 . S
O852 Li792 1.956 . S
O852 Li793 1.970 . S
O852 Li794 1.961 . S
O852 C796 1.325 . S
O853 Li792 1.970 . S
O853 Li793 1.956 . S
O853 Li795 1.961 . S
O853 C802 1.325 . S
O854 Li792 1.961 . S
O854 Li794 1.956 . S
O854 Li795 1.970 . S
O854 C824 1.325 . S
O855 Li793 1.961 . S
O855 Li794 1.970 . S
O855 Li795 1.956 . S
O855 C830 1.325 . S
H856 C798 0.929 . S
H857 C799 0.930 . S
H858 C800 0.930 . S
H859 C801 0.930 . S
H860 C803 0.930 . S
H861 C805 0.929 . S
H862 C806 0.930 . S
H863 C807 0.930 . S
H864 C810 0.930 . S
H865 C813 0.929 . S
H866 C818 0.929 . S
H867 C819 0.930 . S
H868 C826 0.929 . S
H869 C827 0.930 . S
H870 C828 0.930 . S
H871 C829 0.930 . S
H872 C831 0.929 . S
H873 C832 0.930 . S
H874 C833 0.930 . S
H875 C834 0.930 . S
H876 C838 0.929 . S
H877 C840 0.930 . S
H878 C846 0.929 . S
H879 C847 0.930 . S
Li880 N897 1.990 . S
Li880 O940 1.956 . S
Li880 O941 1.970 . S
Li880 O942 1.981 . S
Li881 N905 1.990 . S
Li881 O940 1.967 . S
Li881 O941 1.978 . S
Li881 O943 1.942 1_545 S
Li882 N927 1.990 . S
Li882 O940 1.961 1_565 S
Li882 O942 1.930 1_565 S
Li882 O943 1.970 . S
Li883 N933 1.990 . S
Li883 O941 1.961 1_565 S
Li883 O942 1.972 1_565 S
Li883 O943 1.956 . S
C884 C886 1.348 . S
C884 C887 1.356 . S
C884 O940 1.325 . S
N885 C888 1.314 . S
N885 C889 1.279 . S
C886 C884 1.348 . S
C886 C888 1.353 . S
C886 H944 0.929 . S
C887 C884 1.356 . S
C887 C889 1.358 . S
C887 H945 0.930 . S
C888 N885 1.314 . S
C888 C886 1.353 . S
C888 H946 0.930 . S
C889 N885 1.279 . S
C889 C887 1.358 . S
C889 H947 0.930 . S
C890 C893 1.348 . S
C890 C894 1.356 . S
C890 O941 1.325 . S
C891 N892 1.279 . S
C891 C894 1.358 . S
C891 H948 0.930 . S
N892 C891 1.279 . S
N892 C895 1.314 . S
C893 C890 1.348 . S
C893 C895 1.353 . S
C893 H949 0.929 . S
C894 C890 1.356 . S
C894 C891 1.358 . S
C894 H950 0.930 . S
C895 N892 1.314 . S
C895 C893 1.353 . S
C895 H951 0.930 . S
C896 N897 1.314 . S
C896 C901 1.353 . S
C896 H902 0.930 . S
N897 Li880 1.990 . S
N897 C896 1.314 . S
N897 C899 1.279 . S
C898 C899 1.358 . S
C898 C900 1.356 . S
C898 H952 0.930 . S
C899 N897 1.279 . S
C899 C898 1.358 . S
C899 H903 0.930 . S
C900 C898 1.356 . S
C900 C901 1.348 . S
C901 C896 1.353 . S
C901 C900 1.348 . S
C901 H953 0.929 . S
H902 C896 0.930 . S
H903 C899 0.930 . S
C904 N905 1.291 1_565 S
C904 C906 1.353 . S
C904 H910 0.930 . S
N905 Li881 1.990 . S
N905 C904 1.291 1_545 S
N905 C908 1.302 . S
C906 C904 1.353 . S
C906 C909 1.353 1_565 S
C906 H954 0.929 . S
C907 C908 1.358 . S
C907 C909 1.351 . S
C907 H955 0.930 . S
C908 N905 1.302 . S
C908 C907 1.358 . S
C908 H911 0.930 . S
C909 C906 1.353 1_545 S
C909 C907 1.351 . S
H910 C904 0.930 . S
H911 C908 0.930 . S
C912 C914 1.346 1_545 S
C912 C915 1.357 . S
C912 O942 1.325 . S
N913 C916 1.323 . S
N913 C917 1.274 1_565 S
C914 C912 1.346 1_565 S
C914 C916 1.353 . S
C914 H956 0.929 . S
C915 C912 1.357 . S
C915 C917 1.358 . S
C915 H957 0.930 . S
C916 N913 1.323 . S
C916 C914 1.353 . S
C916 H958 0.930 . S
C917 N913 1.274 1_545 S
C917 C915 1.358 . S
C917 H959 0.930 . S
C918 C919 1.348 . S
C918 C920 1.356 . S
C918 O943 1.325 . S
C919 C918 1.348 . S
C919 C921 1.353 . S
C919 H960 0.929 . S
C920 C918 1.356 . S
C920 C922 1.358 . S
C920 H961 0.930 . S
C921 C919 1.353 . S
C921 N923 1.314 . S
C921 H962 0.930 . S
C922 C920 1.358 . S
C922 N923 1.279 . S
C922 H963 0.930 . S
N923 C921 1.314 . S
N923 C922 1.279 . S
C924 C926 1.353 . S
C924 N927 1.314 . S
C924 H930 0.930 . S
C925 N927 1.279 . S
C925 C928 1.358 . S
C925 H931 0.930 . S
C926 C924 1.353 . S
C926 C929 1.348 . S
C926 H964 0.929 . S
N927 Li882 1.990 . S
N927 C924 1.314 . S
N927 C925 1.279 . S
C928 C925 1.358 . S
C928 C929 1.356 . S
C928 H965 0.930 . S
C929 C926 1.348 . S
C929 C928 1.356 . S
H930 C924 0.930 . S
H931 C925 0.930 . S
C932 N933 1.314 1_545 S
C932 C934 1.353 . S
C932 H938 0.930 . S
N933 Li883 1.990 . S
N933 C932 1.314 1_565 S
N933 C936 1.279 . S
C934 C932 1.353 . S
C934 C937 1.348 1_545 S
C934 H966 0.929 . S
C935 C936 1.358 . S
C935 C937 1.356 . S
C935 H967 0.930 . S
C936 N933 1.279 . S
C936 C935 1.358 . S
C936 H939 0.930 . S
C937 C934 1.348 1_565 S
C937 C935 1.356 . S
H938 C932 0.930 . S
H939 C936 0.930 . S
O940 Li880 1.956 . S
O940 Li881 1.967 . S
O940 Li882 1.961 1_545 S
O940 C884 1.325 . S
O941 Li880 1.970 . S
O941 Li881 1.978 . S
O941 Li883 1.961 1_545 S
O941 C890 1.325 . S
O942 Li880 1.981 . S
O942 Li882 1.930 1_545 S
O942 Li883 1.972 1_545 S
O942 C912 1.325 . S
O943 Li881 1.942 1_565 S
O943 Li882 1.970 . S
O943 Li883 1.956 . S
O943 C918 1.325 . S
H944 C886 0.929 . S
H945 C887 0.930 . S
H946 C888 0.930 . S
H947 C889 0.930 . S
H948 C891 0.930 . S
H949 C893 0.929 . S
H950 C894 0.930 . S
H951 C895 0.930 . S
H952 C898 0.930 . S
H953 C901 0.929 . S
H954 C906 0.929 . S
H955 C907 0.930 . S
H956 C914 0.929 . S
H957 C915 0.930 . S
H958 C916 0.930 . S
H959 C917 0.930 . S
H960 C919 0.929 . S
H961 C920 0.930 . S
H962 C921 0.930 . S
H963 C922 0.930 . S
H964 C926 0.929 . S
H965 C928 0.930 . S
H966 C934 0.929 . S
H967 C935 0.930 . S
Li968 N985 1.990 . S
Li968 O1028 1.956 . S
Li968 O1029 1.970 . S
Li968 O1030 1.961 1_554 S
Li969 N993 1.990 . S
Li969 O1028 1.970 . S
Li969 O1029 1.956 . S
Li969 O1031 1.961 . S
Li970 N1015 1.990 . S
Li970 O1028 1.961 . S
Li970 O1030 1.956 1_554 S
Li970 O1031 1.970 . S
Li971 N1021 1.990 . S
Li971 O1029 1.961 1_556 S
Li971 O1030 1.970 . S
Li971 O1031 1.956 1_556 S
C972 C974 1.348 . S
C972 C975 1.356 . S
C972 O1028 1.325 . S
N973 C976 1.314 . S
N973 C977 1.279 . S
C974 C972 1.348 . S
C974 C976 1.353 . S
C974 H1032 0.929 . S
C975 C972 1.356 . S
C975 C977 1.358 . S
C975 H1033 0.930 . S
C976 N973 1.314 . S
C976 C974 1.353 . S
C976 H1034 0.930 . S
C977 N973 1.279 . S
C977 C975 1.358 . S
C977 H1035 0.930 1_565 S
C978 C981 1.348 . S
C978 C982 1.356 . S
C978 O1029 1.325 . S
C979 N980 1.279 . S
C979 C982 1.358 . S
C979 H1036 0.930 1_554 S
N980 C979 1.279 . S
N980 C983 1.314 . S
C981 C978 1.348 . S
C981 C983 1.353 . S
C981 H1037 0.929 . S
C982 C978 1.356 . S
C982 C979 1.358 . S
C982 H1038 0.933 . S
C983 N980 1.314 . S
C983 C981 1.353 . S
C983 H1039 0.930 . S
C984 N985 1.314 . S
C984 C989 1.353 . S
C984 H990 0.930 1_554 S
N985 Li968 1.990 . S
N985 C984 1.314 . S
N985 C987 1.279 . S
C986 C987 1.358 . S
C986 C988 1.356 . S
C986 H1040 0.930 . S
C987 N985 1.279 . S
C987 C986 1.358 . S
C987 H991 0.930 . S
C988 C986 1.356 . S
C988 C989 1.348 . S
C989 C984 1.353 . S
C989 C988 1.348 . S
C989 H1041 0.929 1_554 S
H990 C984 0.930 1_556 S
H991 C987 0.930 . S
C992 N993 1.314 . S
C992 C994 1.353 . S
C992 H998 0.930 . S
N993 Li969 1.990 . S
N993 C992 1.314 . S
N993 C996 1.279 . S
C994 C992 1.353 . S
C994 C997 1.348 . S
C994 H1042 0.929 . S
C995 C996 1.358 . S
C995 C997 1.356 . S
C995 H1043 0.930 . S
C996 N993 1.279 . S
C996 C995 1.358 . S
C996 H999 0.930 . S
C997 C994 1.348 . S
C997 C995 1.356 . S
H998 C992 0.930 . S
H999 C996 0.930 . S
C1000 C1002 1.348 . S
C1000 C1003 1.356 . S
C1000 O1030 1.325 . S
N1001 C1004 1.314 . S
N1001 C1005 1.279 . S
C1002 C1000 1.348 . S
C1002 C1004 1.353 . S
C1002 H1044 0.929 . S
C1003 C1000 1.356 . S
C1003 C1005 1.358 . S
C1003 H1045 0.930 . S
C1004 N1001 1.314 . S
C1004 C1002 1.353 . S
C1004 H1046 0.930 . S
C1005 N1001 1.279 . S
C1005 C1003 1.358 . S
C1005 H1047 0.930 . S
C1006 C1007 1.348 . S
C1006 C1008 1.356 . S
C1006 O1031 1.325 . S
C1007 C1006 1.348 . S
C1007 C1009 1.353 . S
C1007 H1048 0.929 . S
C1008 C1006 1.356 . S
C1008 C1010 1.358 . S
C1008 H1049 0.930 . S
C1009 C1007 1.353 . S
C1009 N1011 1.314 . S
C1009 H1050 0.930 . S
C1010 C1008 1.358 . S
C1010 N1011 1.279 . S
C1010 H1051 0.930 . S
N1011 C1009 1.314 . S
N1011 C1010 1.279 . S
C1012 C1014 1.353 . S
C1012 N1015 1.314 . S
C1012 H1018 0.930 . S
C1013 N1015 1.279 . S
C1013 C1016 1.358 . S
C1013 H1019 0.930 1_554 S
C1014 C1012 1.353 . S
C1014 C1017 1.348 . S
C1014 H1052 0.929 . S
N1015 Li970 1.990 . S
N1015 C1012 1.314 . S
N1015 C1013 1.279 . S
C1016 C1013 1.358 . S
C1016 C1017 1.356 . S
C1016 H1053 0.930 1_554 S
C1017 C1014 1.348 . S
C1017 C1016 1.356 . S
H1018 C1012 0.930 . S
H1019 C1013 0.930 1_556 S
C1020 N1021 1.314 . S
C1020 C1022 1.353 . S
C1020 H1026 0.930 . S
N1021 Li971 1.990 . S
N1021 C1020 1.314 . S
N1021 C1024 1.279 . S
C1022 C1020 1.353 . S
C1022 C1025 1.348 . S
C1022 H1054 0.929 . S
C1023 C1024 1.358 . S
C1023 C1025 1.356 . S
C1023 H1055 0.930 . S
C1024 N1021 1.279 . S
C1024 C1023 1.358 . S
C1024 H1027 0.930 . S
C1025 C1022 1.348 . S
C1025 C1023 1.356 . S
H1026 C1020 0.930 . S
H1027 C1024 0.930 . S
O1028 Li968 1.956 . S
O1028 Li969 1.970 . S
O1028 Li970 1.961 . S
O1028 C972 1.325 . S
O1029 Li968 1.970 . S
O1029 Li969 1.956 . S
O1029 Li971 1.961 1_554 S
O1029 C978 1.325 . S
O1030 Li968 1.961 1_556 S
O1030 Li970 1.956 1_556 S
O1030 Li971 1.970 . S
O1030 C1000 1.325 . S
O1031 Li969 1.961 . S
O1031 Li970 1.970 . S
O1031 Li971 1.956 1_554 S
O1031 C1006 1.325 . S
H1032 C974 0.929 . S
H1033 C975 0.930 . S
H1034 C976 0.930 . S
H1035 C977 0.930 1_545 S
H1036 C979 0.930 1_556 S
H1037 C981 0.929 . S
H1038 C982 0.933 . S
H1039 C983 0.930 . S
H1040 C986 0.930 . S
H1041 C989 0.929 1_556 S
H1042 C994 0.929 . S
H1043 C995 0.930 . S
H1044 C1002 0.929 . S
H1045 C1003 0.930 . S
H1046 C1004 0.930 . S
H1047 C1005 0.930 . S
H1048 C1007 0.929 . S
H1049 C1008 0.930 . S
H1050 C1009 0.930 . S
H1051 C1010 0.930 . S
H1052 C1014 0.929 . S
H1053 C1016 0.930 1_556 S
H1054 C1022 0.929 . S
H1055 C1023 0.930 . S
Li1056 N1073 1.990 . S
Li1056 O1116 1.956 . S
Li1056 O1117 1.970 . S
Li1056 O1118 1.961 . S
Li1057 N1081 1.990 . S
Li1057 O1116 1.970 . S
Li1057 O1117 1.956 . S
Li1057 O1119 1.961 . S
Li1058 N1103 1.990 . S
Li1058 O1116 1.961 . S
Li1058 O1118 1.956 . S
Li1058 O1119 1.970 . S
Li1059 N1109 1.990 1_554 S
Li1059 O1117 1.961 . S
Li1059 O1118 1.970 . S
Li1059 O1119 1.956 . S
C1060 C1062 1.348 . S
C1060 C1063 1.356 . S
C1060 O1116 1.325 . S
N1061 C1064 1.314 . S
N1061 C1065 1.279 . S
C1062 C1060 1.348 . S
C1062 C1064 1.353 . S
C1062 H1120 0.929 . S
C1063 C1060 1.356 . S
C1063 C1065 1.358 . S
C1063 H1121 0.930 . S
C1064 N1061 1.314 . S
C1064 C1062 1.353 . S
C1064 H1122 0.930 . S
C1065 N1061 1.279 . S
C1065 C1063 1.358 . S
C1065 H1123 0.930 . S
C1066 C1069 1.348 . S
C1066 C1070 1.356 . S
C1066 O1117 1.325 . S
C1067 N1068 1.279 . S
C1067 C1070 1.358 . S
C1067 H1124 0.930 . S
N1068 C1067 1.279 . S
N1068 C1071 1.314 . S
C1069 C1066 1.348 . S
C1069 C1071 1.353 . S
C1069 H1125 0.929 . S
C1070 C1066 1.356 . S
C1070 C1067 1.358 . S
C1070 H1126 0.930 . S
C1071 N1068 1.314 . S
C1071 C1069 1.353 . S
C1071 H1127 0.930 . S
C1072 N1073 1.314 . S
C1072 C1077 1.353 . S
C1072 H1078 0.930 . S
N1073 Li1056 1.990 . S
N1073 C1072 1.314 . S
N1073 C1075 1.279 . S
C1074 C1075 1.358 . S
C1074 C1076 1.356 . S
C1074 H1128 0.930 . S
C1075 N1073 1.279 . S
C1075 C1074 1.358 . S
C1075 H1079 0.930 . S
C1076 C1074 1.356 . S
C1076 C1077 1.348 . S
C1077 C1072 1.353 . S
C1077 C1076 1.348 . S
C1077 H1129 0.929 . S
H1078 C1072 0.930 . S
H1079 C1075 0.930 . S
C1080 N1081 1.314 . S
C1080 C1082 1.353 . S
C1080 H1086 0.930 . S
N1081 Li1057 1.990 . S
N1081 C1080 1.314 . S
N1081 C1084 1.279 . S
C1082 C1080 1.353 . S
C1082 C1085 1.348 . S
C1082 H1130 0.929 . S
C1083 C1084 1.358 . S
C1083 C1085 1.356 . S
C1083 H1131 0.930 . S
C1084 N1081 1.279 . S
C1084 C1083 1.358 . S
C1084 H1087 0.930 . S
C1085 C1082 1.348 . S
C1085 C1083 1.356 . S
H1086 C1080 0.930 . S
H1087 C1084 0.930 . S
C1088 C1090 1.348 1_554 S
C1088 C1091 1.356 . S
C1088 O1118 1.325 . S
N1089 C1092 1.314 . S
N1089 C1093 1.279 . S
C1090 C1088 1.348 1_556 S
C1090 C1092 1.353 . S
C1090 H1132 0.929 . S
C1091 C1088 1.356 . S
C1091 C1093 1.358 1_554 S
C1091 H1133 0.930 . S
C1092 N1089 1.314 . S
C1092 C1090 1.353 . S
C1092 H1134 0.930 . S
C1093 N1089 1.279 . S
C1093 C1091 1.358 1_556 S
C1093 H1135 0.930 . S
C1094 C1095 1.348 . S
C1094 C1096 1.356 . S
C1094 O1119 1.325 . S
C1095 C1094 1.348 . S
C1095 C1097 1.353 . S
C1095 H1136 0.929 . S
C1096 C1094 1.356 . S
C1096 C1098 1.358 . S
C1096 H1137 0.930 . S
C1097 C1095 1.353 . S
C1097 N1099 1.314 . S
C1097 H1138 0.930 . S
C1098 C1096 1.358 . S
C1098 N1099 1.279 . S
C1098 H1139 0.930 . S
N1099 C1097 1.314 . S
N1099 C1098 1.279 . S
C1100 C1102 1.353 . S
C1100 N1103 1.314 . S
C1100 H1106 0.930 . S
C1101 N1103 1.279 . S
C1101 C1104 1.358 . S
C1101 H1107 0.930 . S
C1102 C1100 1.353 . S
C1102 C1105 1.348 . S
C1102 H1140 0.929 . S
N1103 Li1058 1.990 . S
N1103 C1100 1.314 . S
N1103 C1101 1.279 . S
C1104 C1101 1.358 . S
C1104 C1105 1.356 . S
C1104 H1141 0.930 . S
C1105 C1102 1.348 . S
C1105 C1104 1.356 . S
H1106 C1100 0.930 . S
H1107 C1101 0.930 . S
C1108 N1109 1.314 . S
C1108 C1110 1.353 . S
C1108 H1114 0.930 . S
N1109 Li1059 1.990 1_556 S
N1109 C1108 1.314 . S
N1109 C1112 1.279 . S
C1110 C1108 1.353 . S
C1110 C1113 1.348 . S
C1110 H1142 0.929 . S
C1111 C1112 1.358 . S
C1111 C1113 1.356 . S
C1111 H1143 0.930 . S
C1112 N1109 1.279 . S
C1112 C1111 1.358 . S
C1112 H1115 0.930 . S
C1113 C1110 1.348 . S
C1113 C1111 1.356 . S
H1114 C1108 0.930 . S
H1115 C1112 0.930 . S
O1116 Li1056 1.956 . S
O1116 Li1057 1.970 . S
O1116 Li1058 1.961 . S
O1116 C1060 1.325 . S
O1117 Li1056 1.970 . S
O1117 Li1057 1.956 . S
O1117 Li1059 1.961 . S
O1117 C1066 1.325 . S
O1118 Li1056 1.961 . S
O1118 Li1058 1.956 . S
O1118 Li1059 1.970 . S
O1118 C1088 1.325 . S
O1119 Li1057 1.961 . S
O1119 Li1058 1.970 . S
O1119 Li1059 1.956 . S
O1119 C1094 1.325 . S
H1120 C1062 0.929 . S
H1121 C1063 0.930 . S
H1122 C1064 0.930 . S
H1123 C1065 0.930 . S
H1124 C1067 0.930 . S
H1125 C1069 0.929 . S
H1126 C1070 0.930 . S
H1127 C1071 0.930 . S
H1128 C1074 0.930 . S
H1129 C1077 0.929 . S
H1130 C1082 0.929 . S
H1131 C1083 0.930 . S
H1132 C1090 0.929 . S
H1133 C1091 0.930 . S
H1134 C1092 0.930 . S
H1135 C1093 0.930 . S
H1136 C1095 0.929 . S
H1137 C1096 0.930 . S
H1138 C1097 0.930 . S
H1139 C1098 0.930 . S
H1140 C1102 0.929 . S
H1141 C1104 0.930 . S
H1142 C1110 0.929 . S
H1143 C1111 0.930 . S
Li1144 N1161 1.990 . S
Li1144 O1204 1.956 . S
Li1144 O1205 1.970 . S
Li1144 O1206 1.961 . S
Li1145 N1169 1.990 . S
Li1145 O1204 1.970 . S
Li1145 O1205 1.956 . S
Li1145 O1207 1.916 1_554 S
Li1146 N1191 1.990 1_554 S
Li1146 O1204 1.961 . S
Li1146 O1206 1.956 . S
Li1146 O1207 1.971 1_554 S
Li1147 N1197 1.990 . S
Li1147 O1205 1.961 . S
Li1147 O1206 1.970 . S
Li1147 O1207 1.911 1_554 S
C1148 C1150 1.348 . S
C1148 C1151 1.356 . S
C1148 O1204 1.325 . S
N1149 C1152 1.314 . S
N1149 C1153 1.279 . S
C1150 C1148 1.348 . S
C1150 C1152 1.353 . S
C1150 H1208 0.929 . S
C1151 C1148 1.356 . S
C1151 C1153 1.358 . S
C1151 H1209 0.930 . S
C1152 N1149 1.314 . S
C1152 C1150 1.353 . S
C1152 H1210 0.930 . S
C1153 N1149 1.279 . S
C1153 C1151 1.358 . S
C1153 H1211 0.930 . S
C1154 C1157 1.348 . S
C1154 C1158 1.356 . S
C1154 O1205 1.325 . S
C1155 N1156 1.279 . S
C1155 C1158 1.358 . S
C1155 H1212 0.930 . S
N1156 C1155 1.279 . S
N1156 C1159 1.314 . S
C1157 C1154 1.348 . S
C1157 C1159 1.353 . S
C1157 H1213 0.929 . S
C1158 C1154 1.356 . S
C1158 C1155 1.358 . S
C1158 H1214 0.930 . S
C1159 N1156 1.314 . S
C1159 C1157 1.353 . S
C1159 H1215 0.930 . S
C1160 N1161 1.314 . S
C1160 C1165 1.353 . S
C1160 H1166 0.930 . S
N1161 Li1144 1.990 . S
N1161 C1160 1.314 . S
N1161 C1163 1.279 . S
C1162 C1163 1.358 . S
C1162 C1164 1.356 . S
C1162 H1216 0.930 . S
C1163 N1161 1.279 . S
C1163 C1162 1.358 . S
C1163 H1167 0.930 . S
C1164 C1162 1.356 . S
C1164 C1165 1.348 . S
C1165 C1160 1.353 . S
C1165 C1164 1.348 . S
C1165 H1217 0.929 . S
H1166 C1160 0.930 . S
H1167 C1163 0.930 . S
C1168 N1169 1.314 . S
C1168 C1170 1.353 . S
C1168 H1174 0.930 1_554 S
N1169 Li1145 1.990 . S
N1169 C1168 1.314 . S
N1169 C1172 1.279 . S
C1170 C1168 1.353 . S
C1170 C1173 1.348 . S
C1170 H1218 0.929 1_554 S
C1171 C1172 1.358 . S
C1171 C1173 1.356 . S
C1171 H1219 0.930 . S
C1172 N1169 1.279 . S
C1172 C1171 1.358 . S
C1172 H1175 0.930 . S
C1173 C1170 1.348 . S
C1173 C1171 1.356 . S
H1174 C1168 0.930 1_556 S
H1175 C1172 0.930 . S
C1176 C1178 1.348 . S
C1176 C1179 1.356 . S
C1176 O1206 1.325 . S
N1177 C1180 1.314 . S
N1177 C1181 1.279 . S
C1178 C1176 1.348 . S
C1178 C1180 1.353 . S
C1178 H1220 0.929 . S
C1179 C1176 1.356 . S
C1179 C1181 1.358 . S
C1179 H1221 0.930 . S
C1180 N1177 1.314 . S
C1180 C1178 1.353 . S
C1180 H1222 0.930 . S
C1181 N1177 1.279 . S
C1181 C1179 1.358 . S
C1181 H1223 0.930 . S
C1182 C1183 1.348 . S
C1182 C1184 1.356 . S
C1182 O1207 1.371 . S
C1183 C1182 1.348 . S
C1183 C1185 1.353 . S
C1183 H1224 0.929 . S
C1184 C1182 1.356 . S
C1184 C1186 1.358 . S
C1184 H1225 0.930 . S
C1185 C1183 1.353 . S
C1185 N1187 1.314 . S
C1185 H1226 0.930 . S
C1186 C1184 1.358 . S
C1186 N1187 1.279 . S
C1186 H1227 0.930 . S
N1187 C1185 1.314 . S
N1187 C1186 1.279 . S
C1188 C1190 1.353 . S
C1188 N1191 1.314 . S
C1188 H1194 0.930 . S
C1189 N1191 1.279 . S
C1189 C1192 1.358 . S
C1189 H1195 0.930 . S
C1190 C1188 1.353 . S
C1190 C1193 1.348 . S
C1190 H1228 0.929 . S
N1191 Li1146 1.990 1_556 S
N1191 C1188 1.314 . S
N1191 C1189 1.279 . S
C1192 C1189 1.358 . S
C1192 C1193 1.356 . S
C1192 H1229 0.930 . S
C1193 C1190 1.348 . S
C1193 C1192 1.356 . S
H1194 C1188 0.930 . S
H1195 C1189 0.930 . S
C1196 N1197 1.314 . S
C1196 C1198 1.353 . S
C1196 H1202 0.930 . S
N1197 Li1147 1.990 . S
N1197 C1196 1.314 . S
N1197 C1200 1.247 1_554 S
C1198 C1196 1.353 . S
C1198 C1201 1.348 . S
C1198 H1230 0.929 . S
C1199 C1200 1.357 . S
C1199 C1201 1.356 1_556 S
C1199 H1231 0.930 . S
C1200 N1197 1.247 1_556 S
C1200 C1199 1.357 . S
C1200 H1203 0.969 . S
C1201 C1198 1.348 . S
C1201 C1199 1.356 1_554 S
H1202 C1196 0.930 . S
H1203 C1200 0.969 . S
O1204 Li1144 1.956 . S
O1204 Li1145 1.970 . S
O1204 Li1146 1.961 . S
O1204 C1148 1.325 . S
O1205 Li1144 1.970 . S
O1205 Li1145 1.956 . S
O1205 Li1147 1.961 . S
O1205 C1154 1.325 . S
O1206 Li1144 1.961 . S
O1206 Li1146 1.956 . S
O1206 Li1147 1.970 . S
O1206 C1176 1.325 . S
O1207 Li1145 1.916 1_556 S
O1207 Li1146 1.971 1_556 S
O1207 Li1147 1.911 1_556 S
O1207 C1182 1.371 . S
H1208 C1150 0.929 . S
H1209 C1151 0.930 . S
H1210 C1152 0.930 . S
H1211 C1153 0.930 . S
H1212 C1155 0.930 . S
H1213 C1157 0.929 . S
H1214 C1158 0.930 . S
H1215 C1159 0.930 . S
H1216 C1162 0.930 . S
H1217 C1165 0.929 . S
H1218 C1170 0.929 1_556 S
H1219 C1171 0.930 . S
H1220 C1178 0.929 . S
H1221 C1179 0.930 . S
H1222 C1180 0.930 . S
H1223 C1181 0.930 . S
H1224 C1183 0.929 . S
H1225 C1184 0.930 . S
H1226 C1185 0.930 . S
H1227 C1186 0.930 . S
H1228 C1190 0.929 . S
H1229 C1192 0.930 . S
H1230 C1198 0.929 . S
H1231 C1199 0.930 . S
Li1232 N1249 1.990 . S
Li1232 O1292 1.956 . S
Li1232 O1293 1.970 . S
Li1232 O1294 1.961 . S
Li1233 N1257 1.990 . S
Li1233 O1292 1.970 . S
Li1233 O1293 1.956 . S
Li1233 O1295 1.961 . S
Li1234 N1279 1.990 . S
Li1234 O1292 1.961 . S
Li1234 O1294 1.956 . S
Li1234 O1295 1.970 . S
Li1235 N1285 1.990 . S
Li1235 O1293 1.961 . S
Li1235 O1294 1.970 . S
Li1235 O1295 1.956 . S
C1236 C1238 1.348 . S
C1236 C1239 1.356 . S
C1236 O1292 1.325 . S
N1237 C1240 1.314 . S
N1237 C1241 1.279 . S
C1238 C1236 1.348 . S
C1238 C1240 1.353 . S
C1238 H1296 0.929 . S
C1239 C1236 1.356 . S
C1239 C1241 1.358 . S
C1239 H1297 0.930 . S
C1240 N1237 1.314 . S
C1240 C1238 1.353 . S
C1240 H1298 0.930 . S
C1241 N1237 1.279 . S
C1241 C1239 1.358 . S
C1241 H1299 0.930 . S
C1242 C1245 1.348 . S
C1242 C1246 1.356 . S
C1242 O1293 1.325 . S
C1243 N1244 1.279 . S
C1243 C1246 1.358 . S
C1243 H1300 0.930 . S
N1244 C1243 1.279 . S
N1244 C1247 1.314 . S
C1245 C1242 1.348 . S
C1245 C1247 1.353 . S
C1245 H1301 0.929 . S
C1246 C1242 1.356 . S
C1246 C1243 1.358 . S
C1246 H1302 0.930 . S
C1247 N1244 1.314 . S
C1247 C1245 1.353 . S
C1247 H1303 0.930 . S
C1248 N1249 1.314 . S
C1248 C1253 1.353 . S
C1248 H1254 0.930 . S
N1249 Li1232 1.990 . S
N1249 C1248 1.314 . S
N1249 C1251 1.279 . S
C1250 C1251 1.358 . S
C1250 C1252 1.356 . S
C1250 H1304 0.930 . S
C1251 N1249 1.279 . S
C1251 C1250 1.358 . S
C1251 H1255 0.930 . S
C1252 C1250 1.356 . S
C1252 C1253 1.348 . S
C1253 C1248 1.353 . S
C1253 C1252 1.348 . S
C1253 H1305 0.929 . S
H1254 C1248 0.930 . S
H1255 C1251 0.930 . S
C1256 N1257 1.314 . S
C1256 C1258 1.353 . S
C1256 H1262 0.930 . S
N1257 Li1233 1.990 . S
N1257 C1256 1.314 . S
N1257 C1260 1.279 . S
C1258 C1256 1.353 . S
C1258 C1261 1.348 . S
C1258 H1306 0.929 . S
C1259 C1260 1.358 . S
C1259 C1261 1.356 . S
C1259 H1307 0.930 . S
C1260 N1257 1.279 . S
C1260 C1259 1.358 . S
C1260 H1263 0.930 . S
C1261 C1258 1.348 . S
C1261 C1259 1.356 . S
H1262 C1256 0.930 . S
H1263 C1260 0.930 . S
C1264 C1266 1.348 . S
C1264 C1267 1.356 . S
C1264 O1294 1.325 . S
N1265 C1268 1.314 . S
N1265 C1269 1.279 . S
C1266 C1264 1.348 . S
C1266 C1268 1.353 . S
C1266 H1308 0.929 . S
C1267 C1264 1.356 . S
C1267 C1269 1.358 . S
C1267 H1309 0.930 . S
C1268 N1265 1.314 . S
C1268 C1266 1.353 . S
C1268 H1310 0.930 . S
C1269 N1265 1.279 . S
C1269 C1267 1.358 . S
C1269 H1311 0.930 . S
C1270 C1271 1.348 . S
C1270 C1272 1.356 . S
C1270 O1295 1.325 . S
C1271 C1270 1.348 . S
C1271 C1273 1.353 . S
C1271 H1312 0.929 . S
C1272 C1270 1.356 . S
C1272 C1274 1.358 . S
C1272 H1313 0.930 . S
C1273 C1271 1.353 . S
C1273 N1275 1.314 . S
C1273 H1314 0.930 . S
C1274 C1272 1.358 . S
C1274 N1275 1.279 . S
C1274 H1315 0.930 . S
N1275 C1273 1.314 . S
N1275 C1274 1.279 . S
C1276 C1278 1.353 . S
C1276 N1279 1.314 . S
C1276 H1282 0.930 . S
C1277 N1279 1.279 . S
C1277 C1280 1.358 . S
C1277 H1283 0.930 . S
C1278 C1276 1.353 . S
C1278 C1281 1.348 . S
C1278 H1316 0.929 . S
N1279 Li1234 1.990 . S
N1279 C1276 1.314 . S
N1279 C1277 1.279 . S
C1280 C1277 1.358 . S
C1280 C1281 1.356 . S
C1280 H1317 0.930 . S
C1281 C1278 1.348 . S
C1281 C1280 1.356 . S
H1282 C1276 0.930 . S
H1283 C1277 0.930 . S
C1284 N1285 1.314 . S
C1284 C1286 1.353 . S
C1284 H1290 0.930 . S
N1285 Li1235 1.990 . S
N1285 C1284 1.314 . S
N1285 C1288 1.279 . S
C1286 C1284 1.353 . S
C1286 C1289 1.348 . S
C1286 H1318 0.929 . S
C1287 C1288 1.358 . S
C1287 C1289 1.356 . S
C1287 H1319 0.930 . S
C1288 N1285 1.279 . S
C1288 C1287 1.358 . S
C1288 H1291 0.930 . S
C1289 C1286 1.348 . S
C1289 C1287 1.356 . S
H1290 C1284 0.930 . S
H1291 C1288 0.930 . S
O1292 Li1232 1.956 . S
O1292 Li1233 1.970 . S
O1292 Li1234 1.961 . S
O1292 C1236 1.325 . S
O1293 Li1232 1.970 . S
O1293 Li1233 1.956 . S
O1293 Li1235 1.961 . S
O1293 C1242 1.325 . S
O1294 Li1232 1.961 . S
O1294 Li1234 1.956 . S
O1294 Li1235 1.970 . S
O1294 C1264 1.325 . S
O1295 Li1233 1.961 . S
O1295 Li1234 1.970 . S
O1295 Li1235 1.956 . S
O1295 C1270 1.325 . S
H1296 C1238 0.929 . S
H1297 C1239 0.930 . S
H1298 C1240 0.930 . S
H1299 C1241 0.930 . S
H1300 C1243 0.930 . S
H1301 C1245 0.929 . S
H1302 C1246 0.930 . S
H1303 C1247 0.930 . S
H1304 C1250 0.930 . S
H1305 C1253 0.929 . S
H1306 C1258 0.929 . S
H1307 C1259 0.930 . S
H1308 C1266 0.929 . S
H1309 C1267 0.930 . S
H1310 C1268 0.930 . S
H1311 C1269 0.930 . S
H1312 C1271 0.929 . S
H1313 C1272 0.930 . S
H1314 C1273 0.930 . S
H1315 C1274 0.930 . S
H1316 C1278 0.929 . S
H1317 C1280 0.930 . S
H1318 C1286 0.929 . S
H1319 C1287 0.930 . S
Li1320 N1337 1.990 . S
Li1320 O1380 1.956 . S
Li1320 O1381 1.970 . S
Li1320 O1382 1.961 . S
Li1321 N1345 1.990 . S
Li1321 O1380 1.970 . S
Li1321 O1381 1.956 . S
Li1321 O1383 1.961 . S
Li1322 N1367 1.990 . S
Li1322 O1380 1.961 . S
Li1322 O1382 1.956 . S
Li1322 O1383 1.970 . S
Li1323 N1373 1.990 . S
Li1323 O1381 1.961 . S
Li1323 O1382 1.970 . S
Li1323 O1383 1.956 . S
C1324 C1326 1.348 . S
C1324 C1327 1.356 . S
C1324 O1380 1.325 . S
N1325 C1328 1.314 . S
N1325 C1329 1.279 . S
C1326 C1324 1.348 . S
C1326 C1328 1.353 . S
C1326 H1384 0.929 . S
C1327 C1324 1.356 . S
C1327 C1329 1.358 . S
C1327 H1385 0.930 . S
C1328 N1325 1.314 . S
C1328 C1326 1.353 . S
C1328 H1386 0.930 . S
C1329 N1325 1.279 . S
C1329 C1327 1.358 . S
C1329 H1387 0.930 . S
C1330 C1333 1.348 . S
C1330 C1334 1.356 . S
C1330 O1381 1.325 . S
C1331 N1332 1.279 . S
C1331 C1334 1.358 . S
C1331 H1388 0.930 . S
N1332 C1331 1.279 . S
N1332 C1335 1.314 . S
C1333 C1330 1.348 . S
C1333 C1335 1.353 . S
C1333 H1389 0.929 . S
C1334 C1330 1.356 . S
C1334 C1331 1.358 . S
C1334 H1390 0.930 . S
C1335 N1332 1.314 . S
C1335 C1333 1.353 . S
C1335 H1391 0.930 . S
C1336 N1337 1.314 . S
C1336 C1341 1.353 . S
C1336 H1342 0.930 . S
N1337 Li1320 1.990 . S
N1337 C1336 1.314 . S
N1337 C1339 1.279 . S
C1338 C1339 1.358 . S
C1338 C1340 1.356 . S
C1338 H1392 0.930 . S
C1339 N1337 1.279 . S
C1339 C1338 1.358 . S
C1339 H1343 0.930 . S
C1340 C1338 1.356 . S
C1340 C1341 1.348 . S
C1341 C1336 1.353 . S
C1341 C1340 1.348 . S
C1341 H1393 0.929 . S
H1342 C1336 0.930 . S
H1343 C1339 0.930 . S
C1344 N1345 1.314 . S
C1344 C1346 1.353 . S
C1344 H1350 0.930 . S
N1345 Li1321 1.990 . S
N1345 C1344 1.314 . S
N1345 C1348 1.279 . S
C1346 C1344 1.353 . S
C1346 C1349 1.348 . S
C1346 H1394 0.929 . S
C1347 C1348 1.358 . S
C1347 C1349 1.356 . S
C1347 H1395 0.930 . S
C1348 N1345 1.279 . S
C1348 C1347 1.358 . S
C1348 H1351 0.930 . S
C1349 C1346 1.348 . S
C1349 C1347 1.356 . S
H1350 C1344 0.930 . S
H1351 C1348 0.930 . S
C1352 C1354 1.348 . S
C1352 C1355 1.356 . S
C1352 O1382 1.325 . S
N1353 C1356 1.314 . S
N1353 C1357 1.279 . S
C1354 C1352 1.348 . S
C1354 C1356 1.353 . S
C1354 H1396 0.929 . S
C1355 C1352 1.356 . S
C1355 C1357 1.358 . S
C1355 H1397 0.930 . S
C1356 N1353 1.314 . S
C1356 C1354 1.353 . S
C1356 H1398 0.930 . S
C1357 N1353 1.279 . S
C1357 C1355 1.358 . S
C1357 H1399 0.930 . S
C1358 C1359 1.348 . S
C1358 C1360 1.356 . S
C1358 O1383 1.325 . S
C1359 C1358 1.348 . S
C1359 C1361 1.353 . S
C1359 H1400 0.929 . S
C1360 C1358 1.356 . S
C1360 C1362 1.358 . S
C1360 H1401 0.930 . S
C1361 C1359 1.353 . S
C1361 N1363 1.314 . S
C1361 H1402 0.930 . S
C1362 C1360 1.358 . S
C1362 N1363 1.279 . S
C1362 H1403 0.930 . S
N1363 C1361 1.314 . S
N1363 C1362 1.279 . S
C1364 C1366 1.353 . S
C1364 N1367 1.314 . S
C1364 H1370 0.930 . S
C1365 N1367 1.279 . S
C1365 C1368 1.358 . S
C1365 H1371 0.930 . S
C1366 C1364 1.353 . S
C1366 C1369 1.348 . S
C1366 H1404 0.929 . S
N1367 Li1322 1.990 . S
N1367 C1364 1.314 . S
N1367 C1365 1.279 . S
C1368 C1365 1.358 . S
C1368 C1369 1.356 . S
C1368 H1405 0.930 . S
C1369 C1366 1.348 . S
C1369 C1368 1.356 . S
H1370 C1364 0.930 . S
H1371 C1365 0.930 . S
C1372 N1373 1.314 . S
C1372 C1374 1.353 . S
C1372 H1378 0.930 . S
N1373 Li1323 1.990 . S
N1373 C1372 1.314 . S
N1373 C1376 1.279 . S
C1374 C1372 1.353 . S
C1374 C1377 1.348 . S
C1374 H1406 0.929 . S
C1375 C1376 1.358 . S
C1375 C1377 1.356 . S
C1375 H1407 0.930 . S
C1376 N1373 1.279 . S
C1376 C1375 1.358 . S
C1376 H1379 0.930 . S
C1377 C1374 1.348 . S
C1377 C1375 1.356 . S
H1378 C1372 0.930 . S
H1379 C1376 0.930 . S
O1380 Li1320 1.956 . S
O1380 Li1321 1.970 . S
O1380 Li1322 1.961 . S
O1380 C1324 1.325 . S
O1381 Li1320 1.970 . S
O1381 Li1321 1.956 . S
O1381 Li1323 1.961 . S
O1381 C1330 1.325 . S
O1382 Li1320 1.961 . S
O1382 Li1322 1.956 . S
O1382 Li1323 1.970 . S
O1382 C1352 1.325 . S
O1383 Li1321 1.961 . S
O1383 Li1322 1.970 . S
O1383 Li1323 1.956 . S
O1383 C1358 1.325 . S
H1384 C1326 0.929 . S
H1385 C1327 0.930 . S
H1386 C1328 0.930 . S
H1387 C1329 0.930 . S
H1388 C1331 0.930 . S
H1389 C1333 0.929 . S
H1390 C1334 0.930 . S
H1391 C1335 0.930 . S
H1392 C1338 0.930 . S
H1393 C1341 0.929 . S
H1394 C1346 0.929 . S
H1395 C1347 0.930 . S
H1396 C1354 0.929 . S
H1397 C1355 0.930 . S
H1398 C1356 0.930 . S
H1399 C1357 0.930 . S
H1400 C1359 0.929 . S
H1401 C1360 0.930 . S
H1402 C1361 0.930 . S
H1403 C1362 0.930 . S
H1404 C1366 0.929 . S
H1405 C1368 0.930 . S
H1406 C1374 0.929 . S
H1407 C1375 0.930 . S
Li1408 N1425 1.990 . S
Li1408 O1468 1.956 . S
Li1408 O1469 1.970 . S
Li1408 O1470 1.961 . S
Li1409 N1433 1.990 . S
Li1409 O1468 1.970 . S
Li1409 O1469 1.956 . S
Li1409 O1471 1.961 . S
Li1410 N1455 1.990 . S
Li1410 O1468 1.961 . S
Li1410 O1470 1.956 . S
Li1410 O1471 1.970 . S
Li1411 N1461 1.990 . S
Li1411 O1469 1.961 . S
Li1411 O1470 1.970 . S
Li1411 O1471 1.956 . S
C1412 C1414 1.348 . S
C1412 C1415 1.356 . S
C1412 O1468 1.325 . S
N1413 C1416 1.314 . S
N1413 C1417 1.279 . S
C1414 C1412 1.348 . S
C1414 C1416 1.353 . S
C1414 H1472 0.929 . S
C1415 C1412 1.356 . S
C1415 C1417 1.358 . S
C1415 H1473 0.930 . S
C1416 N1413 1.314 . S
C1416 C1414 1.353 . S
C1416 H1474 0.930 1_545 S
C1417 N1413 1.279 . S
C1417 C1415 1.358 . S
C1417 H1475 0.930 1_655 S
C1418 C1421 1.348 . S
C1418 C1422 1.356 . S
C1418 O1469 1.325 . S
C1419 N1420 1.279 . S
C1419 C1422 1.358 . S
C1419 H1476 0.930 . S
N1420 C1419 1.279 . S
N1420 C1423 1.314 . S
C1421 C1418 1.348 . S
C1421 C1423 1.353 . S
C1421 H1477 0.929 . S
C1422 C1418 1.356 . S
C1422 C1419 1.358 . S
C1422 H1478 0.930 . S
C1423 N1420 1.314 . S
C1423 C1421 1.353 . S
C1423 H1479 0.930 . S
C1424 N1425 1.314 . S
C1424 C1429 1.353 . S
C1424 H1430 0.930 . S
N1425 Li1408 1.990 . S
N1425 C1424 1.314 . S
N1425 C1427 1.279 . S
C1426 C1427 1.358 . S
C1426 C1428 1.356 . S
C1426 H1480 0.930 . S
C1427 N1425 1.279 . S
C1427 C1426 1.358 . S
C1427 H1431 0.930 . S
C1428 C1426 1.356 . S
C1428 C1429 1.348 . S
C1429 C1424 1.353 . S
C1429 C1428 1.348 . S
C1429 H1481 0.929 . S
H1430 C1424 0.930 . S
H1431 C1427 0.930 . S
C1432 N1433 1.314 . S
C1432 C1434 1.353 1_545 S
C1432 H1438 0.930 . S
N1433 Li1409 1.990 . S
N1433 C1432 1.314 . S
N1433 C1436 1.279 . S
C1434 C1432 1.353 1_565 S
C1434 C1437 1.348 . S
C1434 H1482 0.929 . S
C1435 C1436 1.358 . S
C1435 C1437 1.356 1_545 S
C1435 H1483 0.930 1_545 S
C1436 N1433 1.279 . S
C1436 C1435 1.358 . S
C1436 H1439 0.930 . S
C1437 C1434 1.348 . S
C1437 C1435 1.356 1_565 S
H1438 C1432 0.930 . S
H1439 C1436 0.930 . S
C1440 C1442 1.348 . S
C1440 C1443 1.356 . S
C1440 O1470 1.325 . S
N1441 C1444 1.314 . S
N1441 C1445 1.279 . S
C1442 C1440 1.348 . S
C1442 C1444 1.353 . S
C1442 H1484 0.929 . S
C1443 C1440 1.356 . S
C1443 C1445 1.358 . S
C1443 H1485 0.930 . S
C1444 N1441 1.314 . S
C1444 C1442 1.353 . S
C1444 H1486 0.930 . S
C1445 N1441 1.279 . S
C1445 C1443 1.358 . S
C1445 H1487 0.930 1_655 S
C1446 C1447 1.348 . S
C1446 C1448 1.356 . S
C1446 O1471 1.325 . S
C1447 C1446 1.348 . S
C1447 C1449 1.353 . S
C1447 H1488 0.929 . S
C1448 C1446 1.356 . S
C1448 C1450 1.358 . S
C1448 H1489 0.930 . S
C1449 C1447 1.353 . S
C1449 N1451 1.314 . S
C1449 H1490 0.930 . S
C1450 C1448 1.358 . S
C1450 N1451 1.279 . S
C1450 H1491 0.930 . S
N1451 C1449 1.314 . S
N1451 C1450 1.279 . S
C1452 C1454 1.353 . S
C1452 N1455 1.314 . S
C1452 H1458 0.930 . S
C1453 N1455 1.279 . S
C1453 C1456 1.358 . S
C1453 H1459 0.930 . S
C1454 C1452 1.353 . S
C1454 C1457 1.348 . S
C1454 H1492 0.929 . S
N1455 Li1410 1.990 . S
N1455 C1452 1.314 . S
N1455 C1453 1.279 . S
C1456 C1453 1.358 . S
C1456 C1457 1.356 . S
C1456 H1493 0.930 . S
C1457 C1454 1.348 . S
C1457 C1456 1.356 . S
H1458 C1452 0.930 . S
H1459 C1453 0.930 . S
C1460 N1461 1.314 . S
C1460 C1462 1.353 . S
C1460 H1466 0.930 . S
N1461 Li1411 1.990 . S
N1461 C1460 1.314 . S
N1461 C1464 1.279 . S
C1462 C1460 1.353 . S
C1462 C1465 1.348 . S
C1462 H1494 0.929 . S
C1463 C1464 1.358 . S
C1463 C1465 1.356 . S
C1463 H1495 0.930 . S
C1464 N1461 1.279 . S
C1464 C1463 1.358 . S
C1464 H1467 0.930 . S
C1465 C1462 1.348 . S
C1465 C1463 1.356 . S
H1466 C1460 0.930 . S
H1467 C1464 0.930 . S
O1468 Li1408 1.956 . S
O1468 Li1409 1.970 . S
O1468 Li1410 1.961 . S
O1468 C1412 1.325 . S
O1469 Li1408 1.970 . S
O1469 Li1409 1.956 . S
O1469 Li1411 1.961 . S
O1469 C1418 1.325 . S
O1470 Li1408 1.961 . S
O1470 Li1410 1.956 . S
O1470 Li1411 1.970 . S
O1470 C1440 1.325 . S
O1471 Li1409 1.961 . S
O1471 Li1410 1.970 . S
O1471 Li1411 1.956 . S
O1471 C1446 1.325 . S
H1472 C1414 0.929 . S
H1473 C1415 0.930 . S
H1474 C1416 0.930 1_565 S
H1475 C1417 0.930 1_455 S
H1476 C1419 0.930 . S
H1477 C1421 0.929 . S
H1478 C1422 0.930 . S
H1479 C1423 0.930 . S
H1480 C1426 0.930 . S
H1481 C1429 0.929 . S
H1482 C1434 0.929 . S
H1483 C1435 0.930 1_565 S
H1484 C1442 0.929 . S
H1485 C1443 0.930 . S
H1486 C1444 0.930 . S
H1487 C1445 0.930 1_455 S
H1488 C1447 0.929 . S
H1489 C1448 0.930 . S
H1490 C1449 0.930 . S
H1491 C1450 0.930 . S
H1492 C1454 0.929 . S
H1493 C1456 0.930 . S
H1494 C1462 0.929 . S
H1495 C1463 0.930 . S
Li1496 N1513 1.990 . S
Li1496 O1556 1.956 . S
Li1496 O1557 1.970 . S
Li1496 O1558 1.961 . S
Li1497 N1521 1.990 . S
Li1497 O1556 1.970 . S
Li1497 O1557 1.956 . S
Li1497 O1559 1.961 . S
Li1498 N1543 1.990 . S
Li1498 O1556 1.961 . S
Li1498 O1558 1.956 . S
Li1498 O1559 1.970 . S
Li1499 N1549 1.990 . S
Li1499 O1557 1.961 . S
Li1499 O1558 1.970 . S
Li1499 O1559 1.956 . S
C1500 C1502 1.348 . S
C1500 C1503 1.356 . S
C1500 O1556 1.325 . S
N1501 C1504 1.314 . S
N1501 C1505 1.279 . S
C1502 C1500 1.348 . S
C1502 C1504 1.353 . S
C1502 H1560 0.929 . S
C1503 C1500 1.356 . S
C1503 C1505 1.358 . S
C1503 H1561 0.930 . S
C1504 N1501 1.314 . S
C1504 C1502 1.353 . S
C1504 H1562 0.930 . S
C1505 N1501 1.279 . S
C1505 C1503 1.358 . S
C1505 H1563 0.930 . S
C1506 C1509 1.348 . S
C1506 C1510 1.356 . S
C1506 O1557 1.325 . S
C1507 N1508 1.279 . S
C1507 C1510 1.358 . S
C1507 H1564 0.930 . S
N1508 C1507 1.279 . S
N1508 C1511 1.314 . S
C1509 C1506 1.348 . S
C1509 C1511 1.353 . S
C1509 H1565 0.929 . S
C1510 C1506 1.356 . S
C1510 C1507 1.358 . S
C1510 H1566 0.930 . S
C1511 N1508 1.314 . S
C1511 C1509 1.353 . S
C1511 H1567 0.930 . S
C1512 N1513 1.314 . S
C1512 C1517 1.353 . S
C1512 H1518 0.930 . S
N1513 Li1496 1.990 . S
N1513 C1512 1.314 . S
N1513 C1515 1.279 . S
C1514 C1515 1.358 . S
C1514 C1516 1.356 . S
C1514 H1568 0.930 . S
C1515 N1513 1.279 . S
C1515 C1514 1.358 . S
C1515 H1519 0.930 . S
C1516 C1514 1.356 . S
C1516 C1517 1.348 . S
C1517 C1512 1.353 . S
C1517 C1516 1.348 . S
C1517 H1569 0.929 . S
H1518 C1512 0.930 . S
H1519 C1515 0.930 . S
C1520 N1521 1.314 . S
C1520 C1522 1.353 . S
C1520 H1526 0.930 . S
N1521 Li1497 1.990 . S
N1521 C1520 1.314 . S
N1521 C1524 1.279 . S
C1522 C1520 1.353 . S
C1522 C1525 1.348 . S
C1522 H1570 0.929 . S
C1523 C1524 1.358 . S
C1523 C1525 1.356 . S
C1523 H1571 0.930 . S
C1524 N1521 1.279 . S
C1524 C1523 1.358 . S
C1524 H1527 0.930 . S
C1525 C1522 1.348 . S
C1525 C1523 1.356 . S
H1526 C1520 0.930 . S
H1527 C1524 0.930 . S
C1528 C1530 1.348 . S
C1528 C1531 1.356 . S
C1528 O1558 1.325 . S
N1529 C1532 1.314 . S
N1529 C1533 1.279 . S
C1530 C1528 1.348 . S
C1530 C1532 1.353 . S
C1530 H1572 0.929 . S
C1531 C1528 1.356 . S
C1531 C1533 1.358 . S
C1531 H1573 0.930 . S
C1532 N1529 1.314 . S
C1532 C1530 1.353 . S
C1532 H1574 0.930 . S
C1533 N1529 1.279 . S
C1533 C1531 1.358 . S
C1533 H1575 0.930 . S
C1534 C1535 1.348 . S
C1534 C1536 1.356 . S
C1534 O1559 1.325 . S
C1535 C1534 1.348 . S
C1535 C1537 1.353 . S
C1535 H1576 0.929 . S
C1536 C1534 1.356 . S
C1536 C1538 1.358 . S
C1536 H1577 0.930 . S
C1537 C1535 1.353 . S
C1537 N1539 1.314 . S
C1537 H1578 0.930 . S
C1538 C1536 1.358 . S
C1538 N1539 1.279 . S
C1538 H1579 0.930 . S
N1539 C1537 1.314 . S
N1539 C1538 1.279 . S
C1540 C1542 1.353 . S
C1540 N1543 1.314 . S
C1540 H1546 0.930 . S
C1541 N1543 1.279 . S
C1541 C1544 1.358 . S
C1541 H1547 0.930 . S
C1542 C1540 1.353 . S
C1542 C1545 1.348 . S
C1542 H1580 0.929 . S
N1543 Li1498 1.990 . S
N1543 C1540 1.314 . S
N1543 C1541 1.279 . S
C1544 C1541 1.358 . S
C1544 C1545 1.356 . S
C1544 H1581 0.930 . S
C1545 C1542 1.348 . S
C1545 C1544 1.356 . S
H1546 C1540 0.930 . S
H1547 C1541 0.930 . S
C1548 N1549 1.314 . S
C1548 C1550 1.353 . S
C1548 H1554 0.930 . S
N1549 Li1499 1.990 . S
N1549 C1548 1.314 . S
N1549 C1552 1.279 . S
C1550 C1548 1.353 . S
C1550 C1553 1.348 . S
C1550 H1582 0.929 . S
C1551 C1552 1.358 . S
C1551 C1553 1.356 . S
C1551 H1583 0.930 . S
C1552 N1549 1.279 . S
C1552 C1551 1.358 . S
C1552 H1555 0.930 . S
C1553 C1550 1.348 . S
C1553 C1551 1.356 . S
H1554 C1548 0.930 . S
H1555 C1552 0.930 . S
O1556 Li1496 1.956 . S
O1556 Li1497 1.970 . S
O1556 Li1498 1.961 . S
O1556 C1500 1.325 . S
O1557 Li1496 1.970 . S
O1557 Li1497 1.956 . S
O1557 Li1499 1.961 . S
O1557 C1506 1.325 . S
O1558 Li1496 1.961 . S
O1558 Li1498 1.956 . S
O1558 Li1499 1.970 . S
O1558 C1528 1.325 . S
O1559 Li1497 1.961 . S
O1559 Li1498 1.970 . S
O1559 Li1499 1.956 . S
O1559 C1534 1.325 . S
H1560 C1502 0.929 . S
H1561 C1503 0.930 . S
H1562 C1504 0.930 . S
H1563 C1505 0.930 . S
H1564 C1507 0.930 . S
H1565 C1509 0.929 . S
H1566 C1510 0.930 . S
H1567 C1511 0.930 . S
H1568 C1514 0.930 . S
H1569 C1517 0.929 . S
H1570 C1522 0.929 . S
H1571 C1523 0.930 . S
H1572 C1530 0.929 . S
H1573 C1531 0.930 . S
H1574 C1532 0.930 . S
H1575 C1533 0.930 . S
H1576 C1535 0.929 . S
H1577 C1536 0.930 . S
H1578 C1537 0.930 . S
H1579 C1538 0.930 . S
H1580 C1542 0.929 . S
H1581 C1544 0.930 . S
H1582 C1550 0.929 . S
H1583 C1551 0.930 . S
Li1584 N1601 1.990 . S
Li1584 O1644 1.956 . S
Li1584 O1645 1.970 . S
Li1584 O1646 1.961 . S
Li1585 N1609 1.990 . S
Li1585 O1644 1.970 . S
Li1585 O1645 1.956 . S
Li1585 O1647 1.961 . S
Li1586 N1631 1.990 . S
Li1586 O1644 1.961 . S
Li1586 O1646 1.956 . S
Li1586 O1647 1.970 . S
Li1587 N1637 1.990 . S
Li1587 O1645 1.961 . S
Li1587 O1646 1.970 . S
Li1587 O1647 1.956 . S
C1588 C1590 1.348 . S
C1588 C1591 1.356 . S
C1588 O1644 1.325 . S
N1589 C1592 1.314 . S
N1589 C1593 1.279 . S
C1590 C1588 1.348 . S
C1590 C1592 1.353 . S
C1590 H1648 0.929 . S
C1591 C1588 1.356 . S
C1591 C1593 1.358 . S
C1591 H1649 0.930 . S
C1592 N1589 1.314 . S
C1592 C1590 1.353 . S
C1592 H1650 0.930 . S
C1593 N1589 1.279 . S
C1593 C1591 1.358 . S
C1593 H1651 0.930 . S
C1594 C1597 1.348 . S
C1594 C1598 1.356 . S
C1594 O1645 1.325 . S
C1595 N1596 1.279 . S
C1595 C1598 1.358 . S
C1595 H1652 0.930 . S
N1596 C1595 1.279 . S
N1596 C1599 1.314 . S
C1597 C1594 1.348 . S
C1597 C1599 1.353 . S
C1597 H1653 0.929 . S
C1598 C1594 1.356 . S
C1598 C1595 1.358 . S
C1598 H1654 0.930 . S
C1599 N1596 1.314 . S
C1599 C1597 1.353 . S
C1599 H1655 0.930 . S
C1600 N1601 1.314 . S
C1600 C1605 1.353 . S
C1600 H1606 0.930 . S
N1601 Li1584 1.990 . S
N1601 C1600 1.314 . S
N1601 C1603 1.279 . S
C1602 C1603 1.358 . S
C1602 C1604 1.356 . S
C1602 H1656 0.930 . S
C1603 N1601 1.279 . S
C1603 C1602 1.358 . S
C1603 H1607 0.930 . S
C1604 C1602 1.356 . S
C1604 C1605 1.348 . S
C1605 C1600 1.353 . S
C1605 C1604 1.348 . S
C1605 H1657 0.929 . S
H1606 C1600 0.930 . S
H1607 C1603 0.930 . S
C1608 N1609 1.314 . S
C1608 C1610 1.353 . S
C1608 H1614 0.930 . S
N1609 Li1585 1.990 . S
N1609 C1608 1.314 . S
N1609 C1612 1.279 . S
C1610 C1608 1.353 . S
C1610 C1613 1.348 . S
C1610 H1658 0.929 . S
C1611 C1612 1.358 . S
C1611 C1613 1.356 . S
C1611 H1659 0.930 . S
C1612 N1609 1.279 . S
C1612 C1611 1.358 . S
C1612 H1615 0.930 . S
C1613 C1610 1.348 . S
C1613 C1611 1.356 . S
H1614 C1608 0.930 . S
H1615 C1612 0.930 . S
C1616 C1618 1.348 . S
C1616 C1619 1.356 . S
C1616 O1646 1.325 . S
N1617 C1620 1.314 . S
N1617 C1621 1.279 . S
C1618 C1616 1.348 . S
C1618 C1620 1.353 . S
C1618 H1660 0.929 . S
C1619 C1616 1.356 . S
C1619 C1621 1.358 . S
C1619 H1661 0.930 . S
C1620 N1617 1.314 . S
C1620 C1618 1.353 . S
C1620 H1662 0.930 . S
C1621 N1617 1.279 . S
C1621 C1619 1.358 . S
C1621 H1663 0.930 . S
C1622 C1623 1.348 . S
C1622 C1624 1.356 . S
C1622 O1647 1.325 . S
C1623 C1622 1.348 . S
C1623 C1625 1.353 . S
C1623 H1664 0.929 . S
C1624 C1622 1.356 . S
C1624 C1626 1.358 . S
C1624 H1665 0.930 . S
C1625 C1623 1.353 . S
C1625 N1627 1.314 . S
C1625 H1666 0.930 . S
C1626 C1624 1.358 . S
C1626 N1627 1.279 . S
C1626 H1667 0.930 . S
N1627 C1625 1.314 . S
N1627 C1626 1.279 . S
C1628 C1630 1.353 . S
C1628 N1631 1.314 . S
C1628 H1634 0.930 . S
C1629 N1631 1.279 . S
C1629 C1632 1.358 . S
C1629 H1635 0.930 . S
C1630 C1628 1.353 . S
C1630 C1633 1.348 . S
C1630 H1668 0.929 . S
N1631 Li1586 1.990 . S
N1631 C1628 1.314 . S
N1631 C1629 1.279 . S
C1632 C1629 1.358 . S
C1632 C1633 1.356 . S
C1632 H1669 0.930 . S
C1633 C1630 1.348 . S
C1633 C1632 1.356 . S
H1634 C1628 0.930 . S
H1635 C1629 0.930 . S
C1636 N1637 1.314 . S
C1636 C1638 1.353 . S
C1636 H1642 0.930 . S
N1637 Li1587 1.990 . S
N1637 C1636 1.314 . S
N1637 C1640 1.279 . S
C1638 C1636 1.353 . S
C1638 C1641 1.348 . S
C1638 H1670 0.929 . S
C1639 C1640 1.358 . S
C1639 C1641 1.356 . S
C1639 H1671 0.930 . S
C1640 N1637 1.279 . S
C1640 C1639 1.358 . S
C1640 H1643 0.930 . S
C1641 C1638 1.348 . S
C1641 C1639 1.356 . S
H1642 C1636 0.930 . S
H1643 C1640 0.930 . S
O1644 Li1584 1.956 . S
O1644 Li1585 1.970 . S
O1644 Li1586 1.961 . S
O1644 C1588 1.325 . S
O1645 Li1584 1.970 . S
O1645 Li1585 1.956 . S
O1645 Li1587 1.961 . S
O1645 C1594 1.325 . S
O1646 Li1584 1.961 . S
O1646 Li1586 1.956 . S
O1646 Li1587 1.970 . S
O1646 C1616 1.325 . S
O1647 Li1585 1.961 . S
O1647 Li1586 1.970 . S
O1647 Li1587 1.956 . S
O1647 C1622 1.325 . S
H1648 C1590 0.929 . S
H1649 C1591 0.930 . S
H1650 C1592 0.930 . S
H1651 C1593 0.930 . S
H1652 C1595 0.930 . S
H1653 C1597 0.929 . S
H1654 C1598 0.930 . S
H1655 C1599 0.930 . S
H1656 C1602 0.930 . S
H1657 C1605 0.929 . S
H1658 C1610 0.929 . S
H1659 C1611 0.930 . S
H1660 C1618 0.929 . S
H1661 C1619 0.930 . S
H1662 C1620 0.930 . S
H1663 C1621 0.930 . S
H1664 C1623 0.929 . S
H1665 C1624 0.930 . S
H1666 C1625 0.930 . S
H1667 C1626 0.930 . S
H1668 C1630 0.929 . S
H1669 C1632 0.930 . S
H1670 C1638 0.929 . S
H1671 C1639 0.930 . S
Li1672 N1689 1.990 . S
Li1672 O1732 1.956 . S
Li1672 O1733 1.970 . S
Li1672 O1734 1.961 . S
Li1673 N1697 1.990 . S
Li1673 O1732 1.970 . S
Li1673 O1733 1.956 . S
Li1673 O1735 1.961 . S
Li1674 N1719 1.990 . S
Li1674 O1732 1.961 . S
Li1674 O1734 1.956 . S
Li1674 O1735 1.970 . S
Li1675 N1725 1.990 . S
Li1675 O1733 1.961 . S
Li1675 O1734 1.970 . S
Li1675 O1735 1.956 . S
C1676 C1678 1.348 . S
C1676 C1679 1.356 . S
C1676 O1732 1.325 . S
N1677 C1680 1.314 . S
N1677 C1681 1.279 . S
C1678 C1676 1.348 . S
C1678 C1680 1.353 . S
C1678 H1736 0.929 . S
C1679 C1676 1.356 . S
C1679 C1681 1.358 . S
C1679 H1737 0.930 . S
C1680 N1677 1.314 . S
C1680 C1678 1.353 . S
C1680 H1738 0.930 . S
C1681 N1677 1.279 . S
C1681 C1679 1.358 . S
C1681 H1739 0.930 . S
C1682 C1685 1.348 . S
C1682 C1686 1.356 . S
C1682 O1733 1.325 . S
C1683 N1684 1.279 . S
C1683 C1686 1.358 . S
C1683 H1740 0.930 . S
N1684 C1683 1.279 . S
N1684 C1687 1.314 . S
C1685 C1682 1.348 . S
C1685 C1687 1.353 . S
C1685 H1741 0.929 . S
C1686 C1682 1.356 . S
C1686 C1683 1.358 . S
C1686 H1742 0.930 . S
C1687 N1684 1.314 . S
C1687 C1685 1.353 . S
C1687 H1743 0.930 . S
C1688 N1689 1.314 . S
C1688 C1693 1.353 . S
C1688 H1694 0.930 . S
N1689 Li1672 1.990 . S
N1689 C1688 1.314 . S
N1689 C1691 1.279 . S
C1690 C1691 1.358 . S
C1690 C1692 1.356 . S
C1690 H1744 0.930 . S
C1691 N1689 1.279 . S
C1691 C1690 1.358 . S
C1691 H1695 0.930 . S
C1692 C1690 1.356 . S
C1692 C1693 1.348 . S
C1693 C1688 1.353 . S
C1693 C1692 1.348 . S
C1693 H1745 0.929 . S
H1694 C1688 0.930 . S
H1695 C1691 0.930 . S
C1696 N1697 1.314 . S
C1696 C1698 1.353 . S
C1696 H1702 0.930 . S
N1697 Li1673 1.990 . S
N1697 C1696 1.314 . S
N1697 C1700 1.279 . S
C1698 C1696 1.353 . S
C1698 C1701 1.348 . S
C1698 H1746 0.929 . S
C1699 C1700 1.358 . S
C1699 C1701 1.356 . S
C1699 H1747 0.930 . S
C1700 N1697 1.279 . S
C1700 C1699 1.358 . S
C1700 H1703 0.930 . S
C1701 C1698 1.348 . S
C1701 C1699 1.356 . S
H1702 C1696 0.930 . S
H1703 C1700 0.930 . S
C1704 C1706 1.348 1_545 S
C1704 C1707 1.356 . S
C1704 O1734 1.325 . S
N1705 C1708 1.314 . S
N1705 C1709 1.279 . S
C1706 C1704 1.348 1_565 S
C1706 C1708 1.353 . S
C1706 H1748 0.929 . S
C1707 C1704 1.356 . S
C1707 C1709 1.358 1_545 S
C1707 H1749 0.930 . S
C1708 N1705 1.314 . S
C1708 C1706 1.353 . S
C1708 H1750 0.930 . S
C1709 N1705 1.279 . S
C1709 C1707 1.358 1_565 S
C1709 H1751 0.930 . S
C1710 C1711 1.348 . S
C1710 C1712 1.356 . S
C1710 O1735 1.325 . S
C1711 C1710 1.348 . S
C1711 C1713 1.353 . S
C1711 H1752 0.929 . S
C1712 C1710 1.356 . S
C1712 C1714 1.358 . S
C1712 H1753 0.930 . S
C1713 C1711 1.353 . S
C1713 N1715 1.314 . S
C1713 H1754 0.930 . S
C1714 C1712 1.358 . S
C1714 N1715 1.279 . S
C1714 H1755 0.930 . S
N1715 C1713 1.314 . S
N1715 C1714 1.279 . S
C1716 C1718 1.353 . S
C1716 N1719 1.314 . S
C1716 H1722 0.930 . S
C1717 N1719 1.279 . S
C1717 C1720 1.358 . S
C1717 H1723 0.930 . S
C1718 C1716 1.353 . S
C1718 C1721 1.348 . S
C1718 H1756 0.929 . S
N1719 Li1674 1.990 . S
N1719 C1716 1.314 . S
N1719 C1717 1.279 . S
C1720 C1717 1.358 . S
C1720 C1721 1.356 . S
C1720 H1757 0.930 . S
C1721 C1718 1.348 . S
C1721 C1720 1.356 . S
H1722 C1716 0.930 . S
H1723 C1717 0.930 . S
C1724 N1725 1.314 1_565 S
C1724 C1726 1.353 . S
C1724 H1730 0.930 1_565 S
N1725 Li1675 1.990 . S
N1725 C1724 1.314 1_545 S
N1725 C1728 1.283 . S
C1726 C1724 1.353 . S
C1726 C1729 1.348 . S
C1726 H1758 0.929 . S
C1727 C1728 1.350 1_565 S
C1727 C1729 1.356 . S
C1727 H1759 0.930 . S
C1728 N1725 1.283 . S
C1728 C1727 1.350 1_545 S
C1728 H1731 0.936 . S
C1729 C1726 1.348 . S
C1729 C1727 1.356 . S
H1730 C1724 0.930 1_545 S
H1731 C1728 0.936 . S
O1732 Li1672 1.956 . S
O1732 Li1673 1.970 . S
O1732 Li1674 1.961 . S
O1732 C1676 1.325 . S
O1733 Li1672 1.970 . S
O1733 Li1673 1.956 . S
O1733 Li1675 1.961 . S
O1733 C1682 1.325 . S
O1734 Li1672 1.961 . S
O1734 Li1674 1.956 . S
O1734 Li1675 1.970 . S
O1734 C1704 1.325 . S
O1735 Li1673 1.961 . S
O1735 Li1674 1.970 . S
O1735 Li1675 1.956 . S
O1735 C1710 1.325 . S
H1736 C1678 0.929 . S
H1737 C1679 0.930 . S
H1738 C1680 0.930 . S
H1739 C1681 0.930 . S
H1740 C1683 0.930 . S
H1741 C1685 0.929 . S
H1742 C1686 0.930 . S
H1743 C1687 0.930 . S
H1744 C1690 0.930 . S
H1745 C1693 0.929 . S
H1746 C1698 0.929 . S
H1747 C1699 0.930 . S
H1748 C1706 0.929 . S
H1749 C1707 0.930 . S
H1750 C1708 0.930 . S
H1751 C1709 0.930 . S
H1752 C1711 0.929 . S
H1753 C1712 0.930 . S
H1754 C1713 0.930 . S
H1755 C1714 0.930 . S
H1756 C1718 0.929 . S
H1757 C1720 0.930 . S
H1758 C1726 0.929 . S
H1759 C1727 0.930 . S
Li1760 N1777 1.990 . S
Li1760 O1820 1.956 . S
Li1760 O1821 1.970 . S
Li1760 O1822 1.961 . S
Li1761 N1785 1.990 . S
Li1761 O1820 1.973 1_556 S
Li1761 O1821 1.937 1_556 S
Li1761 O1823 1.980 . S
Li1762 N1807 1.990 . S
Li1762 O1820 1.961 1_556 S
Li1762 O1822 1.956 1_556 S
Li1762 O1823 1.970 . S
Li1763 N1813 1.990 . S
Li1763 O1821 1.961 1_556 S
Li1763 O1822 1.970 1_556 S
Li1763 O1823 1.956 . S
C1764 C1766 1.348 . S
C1764 C1767 1.356 . S
C1764 O1820 1.325 . S
N1765 C1768 1.314 . S
N1765 C1769 1.279 . S
C1766 C1764 1.348 . S
C1766 C1768 1.353 . S
C1766 H1824 0.929 . S
C1767 C1764 1.356 . S
C1767 C1769 1.358 . S
C1767 H1825 0.930 . S
C1768 N1765 1.314 . S
C1768 C1766 1.353 . S
C1768 H1826 0.930 . S
C1769 N1765 1.279 . S
C1769 C1767 1.358 . S
C1769 H1827 0.930 . S
C1770 C1773 1.348 . S
C1770 C1774 1.356 . S
C1770 O1821 1.325 . S
C1771 N1772 1.279 . S
C1771 C1774 1.358 . S
C1771 H1828 0.930 . S
N1772 C1771 1.279 . S
N1772 C1775 1.314 . S
C1773 C1770 1.348 . S
C1773 C1775 1.353 . S
C1773 H1829 0.929 . S
C1774 C1770 1.356 . S
C1774 C1771 1.358 . S
C1774 H1830 0.930 . S
C1775 N1772 1.314 . S
C1775 C1773 1.353 . S
C1775 H1831 0.930 . S
C1776 N1777 1.314 . S
C1776 C1781 1.353 . S
C1776 H1782 0.930 . S
N1777 Li1760 1.990 . S
N1777 C1776 1.314 . S
N1777 C1779 1.279 . S
C1778 C1779 1.358 . S
C1778 C1780 1.356 . S
C1778 H1832 0.930 . S
C1779 N1777 1.279 . S
C1779 C1778 1.358 . S
C1779 H1783 0.930 . S
C1780 C1778 1.356 . S
C1780 C1781 1.348 . S
C1781 C1776 1.353 . S
C1781 C1780 1.348 . S
C1781 H1833 0.929 . S
H1782 C1776 0.930 . S
H1783 C1779 0.930 . S
C1784 N1785 1.314 . S
C1784 C1786 1.353 . S
C1784 H1790 0.930 . S
N1785 Li1761 1.990 . S
N1785 C1784 1.314 . S
N1785 C1788 1.279 1_556 S
C1786 C1784 1.353 . S
C1786 C1789 1.348 . S
C1786 H1834 0.929 . S
C1787 C1788 1.358 . S
C1787 C1789 1.356 1_554 S
C1787 H1835 0.930 . S
C1788 N1785 1.279 1_554 S
C1788 C1787 1.358 . S
C1788 H1791 0.930 . S
C1789 C1786 1.348 . S
C1789 C1787 1.356 1_556 S
H1790 C1784 0.930 . S
H1791 C1788 0.930 . S
C1792 C1794 1.348 1_554 S
C1792 C1795 1.356 . S
C1792 O1822 1.325 . S
N1793 C1796 1.314 1_554 S
N1793 C1797 1.279 . S
C1794 C1792 1.348 1_556 S
C1794 C1796 1.353 . S
C1794 H1836 0.929 . S
C1795 C1792 1.356 . S
C1795 C1797 1.358 . S
C1795 H1837 0.930 . S
C1796 N1793 1.314 1_556 S
C1796 C1794 1.353 . S
C1796 H1838 0.930 . S
C1797 N1793 1.279 . S
C1797 C1795 1.358 . S
C1797 H1839 0.930 . S
C1798 C1799 1.348 . S
C1798 C1800 1.356 . S
C1798 O1823 1.325 . S
C1799 C1798 1.348 . S
C1799 C1801 1.353 . S
C1799 H1840 0.929 . S
C1800 C1798 1.356 . S
C1800 C1802 1.358 . S
C1800 H1841 0.930 . S
C1801 C1799 1.353 . S
C1801 N1803 1.314 . S
C1801 H1842 0.930 . S
C1802 C1800 1.358 . S
C1802 N1803 1.279 . S
C1802 H1843 0.930 . S
N1803 C1801 1.314 . S
N1803 C1802 1.279 . S
C1804 C1806 1.353 . S
C1804 N1807 1.314 . S
C1804 H1810 0.930 . S
C1805 N1807 1.279 . S
C1805 C1808 1.358 . S
C1805 H1811 0.930 . S
C1806 C1804 1.353 . S
C1806 C1809 1.348 . S
C1806 H1844 0.929 . S
N1807 Li1762 1.990 . S
N1807 C1804 1.314 . S
N1807 C1805 1.279 . S
C1808 C1805 1.358 . S
C1808 C1809 1.356 . S
C1808 H1845 0.930 . S
C1809 C1806 1.348 . S
C1809 C1808 1.356 . S
H1810 C1804 0.930 . S
H1811 C1805 0.930 . S
C1812 N1813 1.314 1_554 S
C1812 C1814 1.353 . S
C1812 H1818 0.930 . S
N1813 Li1763 1.990 . S
N1813 C1812 1.314 1_556 S
N1813 C1816 1.279 . S
C1814 C1812 1.353 . S
C1814 C1817 1.348 1_554 S
C1814 H1846 0.929 . S
C1815 C1816 1.358 . S
C1815 C1817 1.356 . S
C1815 H1847 0.930 . S
C1816 N1813 1.279 . S
C1816 C1815 1.358 . S
C1816 H1819 0.930 . S
C1817 C1814 1.348 1_556 S
C1817 C1815 1.356 . S
H1818 C1812 0.930 . S
H1819 C1816 0.930 . S
O1820 Li1760 1.956 . S
O1820 Li1761 1.973 1_554 S
O1820 Li1762 1.961 1_554 S
O1820 C1764 1.325 . S
O1821 Li1760 1.970 . S
O1821 Li1761 1.937 1_554 S
O1821 Li1763 1.961 1_554 S
O1821 C1770 1.325 . S
O1822 Li1760 1.961 . S
O1822 Li1762 1.956 1_554 S
O1822 Li1763 1.970 1_554 S
O1822 C1792 1.325 . S
O1823 Li1761 1.980 . S
O1823 Li1762 1.970 . S
O1823 Li1763 1.956 . S
O1823 C1798 1.325 . S
H1824 C1766 0.929 . S
H1825 C1767 0.930 . S
H1826 C1768 0.930 . S
H1827 C1769 0.930 . S
H1828 C1771 0.930 . S
H1829 C1773 0.929 . S
H1830 C1774 0.930 . S
H1831 C1775 0.930 . S
H1832 C1778 0.930 . S
H1833 C1781 0.929 . S
H1834 C1786 0.929 . S
H1835 C1787 0.930 . S
H1836 C1794 0.929 . S
H1837 C1795 0.930 . S
H1838 C1796 0.930 . S
H1839 C1797 0.930 . S
H1840 C1799 0.929 . S
H1841 C1800 0.930 . S
H1842 C1801 0.930 . S
H1843 C1802 0.930 . S
H1844 C1806 0.929 . S
H1845 C1808 0.930 . S
H1846 C1814 0.929 . S
H1847 C1815 0.930 . S
Li1848 N1865 1.990 . S
Li1848 O1908 1.956 . S
Li1848 O1909 1.970 . S
Li1848 O1910 1.961 . S
Li1849 N1873 1.990 . S
Li1849 O1908 1.970 . S
Li1849 O1909 1.956 . S
Li1849 O1911 1.961 . S
Li1850 N1895 1.990 . S
Li1850 O1908 1.961 . S
Li1850 O1910 1.956 . S
Li1850 O1911 1.970 . S
Li1851 N1901 1.990 . S
Li1851 O1909 1.961 . S
Li1851 O1910 1.970 . S
Li1851 O1911 1.956 . S
C1852 C1854 1.348 . S
C1852 C1855 1.356 . S
C1852 O1908 1.325 . S
N1853 C1856 1.314 . S
N1853 C1857 1.279 . S
C1854 C1852 1.348 . S
C1854 C1856 1.353 . S
C1854 H1912 0.929 . S
C1855 C1852 1.356 . S
C1855 C1857 1.358 . S
C1855 H1913 0.930 . S
C1856 N1853 1.314 . S
C1856 C1854 1.353 . S
C1856 H1914 0.930 . S
C1857 N1853 1.279 . S
C1857 C1855 1.358 . S
C1857 H1915 0.930 . S
C1858 C1861 1.348 . S
C1858 C1862 1.356 . S
C1858 O1909 1.325 . S
C1859 N1860 1.279 . S
C1859 C1862 1.358 . S
C1859 H1916 0.930 . S
N1860 C1859 1.279 . S
N1860 C1863 1.314 . S
C1861 C1858 1.348 . S
C1861 C1863 1.353 . S
C1861 H1917 0.929 . S
C1862 C1858 1.356 . S
C1862 C1859 1.358 . S
C1862 H1918 0.930 . S
C1863 N1860 1.314 . S
C1863 C1861 1.353 . S
C1863 H1919 0.930 . S
C1864 N1865 1.314 . S
C1864 C1869 1.353 . S
C1864 H1870 0.930 . S
N1865 Li1848 1.990 . S
N1865 C1864 1.314 . S
N1865 C1867 1.279 . S
C1866 C1867 1.358 . S
C1866 C1868 1.356 . S
C1866 H1920 0.930 . S
C1867 N1865 1.279 . S
C1867 C1866 1.358 . S
C1867 H1871 0.930 . S
C1868 C1866 1.356 . S
C1868 C1869 1.348 . S
C1869 C1864 1.353 . S
C1869 C1868 1.348 . S
C1869 H1921 0.929 . S
H1870 C1864 0.930 . S
H1871 C1867 0.930 . S
C1872 N1873 1.314 . S
C1872 C1874 1.353 . S
C1872 H1878 0.930 . S
N1873 Li1849 1.990 . S
N1873 C1872 1.314 . S
N1873 C1876 1.279 . S
C1874 C1872 1.353 . S
C1874 C1877 1.348 . S
C1874 H1922 0.929 . S
C1875 C1876 1.358 . S
C1875 C1877 1.356 . S
C1875 H1923 0.930 . S
C1876 N1873 1.279 . S
C1876 C1875 1.358 . S
C1876 H1879 0.930 . S
C1877 C1874 1.348 . S
C1877 C1875 1.356 . S
H1878 C1872 0.930 . S
H1879 C1876 0.930 . S
C1880 C1882 1.348 . S
C1880 C1883 1.356 . S
C1880 O1910 1.325 . S
N1881 C1884 1.314 . S
N1881 C1885 1.279 . S
C1882 C1880 1.348 . S
C1882 C1884 1.353 . S
C1882 H1924 0.929 . S
C1883 C1880 1.356 . S
C1883 C1885 1.358 . S
C1883 H1925 0.930 . S
C1884 N1881 1.314 . S
C1884 C1882 1.353 . S
C1884 H1926 0.930 . S
C1885 N1881 1.279 . S
C1885 C1883 1.358 . S
C1885 H1927 0.930 . S
C1886 C1887 1.348 . S
C1886 C1888 1.356 . S
C1886 O1911 1.325 . S
C1887 C1886 1.348 . S
C1887 C1889 1.353 . S
C1887 H1928 0.929 . S
C1888 C1886 1.356 . S
C1888 C1890 1.358 . S
C1888 H1929 0.930 . S
C1889 C1887 1.353 . S
C1889 N1891 1.314 . S
C1889 H1930 0.930 . S
C1890 C1888 1.358 . S
C1890 N1891 1.279 . S
C1890 H1931 0.930 . S
N1891 C1889 1.314 . S
N1891 C1890 1.279 . S
C1892 C1894 1.353 . S
C1892 N1895 1.314 . S
C1892 H1898 0.930 . S
C1893 N1895 1.279 . S
C1893 C1896 1.358 . S
C1893 H1899 0.930 . S
C1894 C1892 1.353 . S
C1894 C1897 1.348 . S
C1894 H1932 0.929 . S
N1895 Li1850 1.990 . S
N1895 C1892 1.314 . S
N1895 C1893 1.279 . S
C1896 C1893 1.358 . S
C1896 C1897 1.356 . S
C1896 H1933 0.930 . S
C1897 C1894 1.348 . S
C1897 C1896 1.356 . S
H1898 C1892 0.930 . S
H1899 C1893 0.930 . S
C1900 N1901 1.314 . S
C1900 C1902 1.353 . S
C1900 H1906 0.930 . S
N1901 Li1851 1.990 . S
N1901 C1900 1.314 . S
N1901 C1904 1.279 . S
C1902 C1900 1.353 . S
C1902 C1905 1.348 . S
C1902 H1934 0.929 . S
C1903 C1904 1.358 . S
C1903 C1905 1.356 . S
C1903 H1935 0.930 . S
C1904 N1901 1.279 . S
C1904 C1903 1.358 . S
C1904 H1907 0.930 . S
C1905 C1902 1.348 . S
C1905 C1903 1.356 . S
H1906 C1900 0.930 . S
H1907 C1904 0.930 . S
O1908 Li1848 1.956 . S
O1908 Li1849 1.970 . S
O1908 Li1850 1.961 . S
O1908 C1852 1.325 . S
O1909 Li1848 1.970 . S
O1909 Li1849 1.956 . S
O1909 Li1851 1.961 . S
O1909 C1858 1.325 . S
O1910 Li1848 1.961 . S
O1910 Li1850 1.956 . S
O1910 Li1851 1.970 . S
O1910 C1880 1.325 . S
O1911 Li1849 1.961 . S
O1911 Li1850 1.970 . S
O1911 Li1851 1.956 . S
O1911 C1886 1.325 . S
H1912 C1854 0.929 . S
H1913 C1855 0.930 . S
H1914 C1856 0.930 . S
H1915 C1857 0.930 . S
H1916 C1859 0.930 . S
H1917 C1861 0.929 . S
H1918 C1862 0.930 . S
H1919 C1863 0.930 . S
H1920 C1866 0.930 . S
H1921 C1869 0.929 . S
H1922 C1874 0.929 . S
H1923 C1875 0.930 . S
H1924 C1882 0.929 . S
H1925 C1883 0.930 . S
H1926 C1884 0.930 . S
H1927 C1885 0.930 . S
H1928 C1887 0.929 . S
H1929 C1888 0.930 . S
H1930 C1889 0.930 . S
H1931 C1890 0.930 . S
H1932 C1894 0.929 . S
H1933 C1896 0.930 . S
H1934 C1902 0.929 . S
H1935 C1903 0.930 . S
Li1936 N1953 1.990 . S
Li1936 O1996 1.956 . S
Li1936 O1997 1.970 . S
Li1936 O1998 1.961 . S
Li1937 N1961 1.990 . S
Li1937 O1996 1.970 . S
Li1937 O1997 1.956 . S
Li1937 O1999 1.961 . S
Li1938 N1983 1.990 . S
Li1938 O1996 1.961 . S
Li1938 O1998 1.956 . S
Li1938 O1999 1.970 . S
Li1939 N1989 1.990 . S
Li1939 O1997 1.961 . S
Li1939 O1998 1.970 . S
Li1939 O1999 1.956 . S
C1940 C1942 1.348 . S
C1940 C1943 1.356 . S
C1940 O1996 1.325 . S
N1941 C1944 1.314 . S
N1941 C1945 1.279 . S
C1942 C1940 1.348 . S
C1942 C1944 1.353 . S
C1942 H2000 0.929 . S
C1943 C1940 1.356 . S
C1943 C1945 1.358 . S
C1943 H2001 0.930 . S
C1944 N1941 1.314 . S
C1944 C1942 1.353 . S
C1944 H2002 0.930 . S
C1945 N1941 1.279 . S
C1945 C1943 1.358 . S
C1945 H2003 0.930 . S
C1946 C1949 1.348 . S
C1946 C1950 1.356 . S
C1946 O1997 1.325 . S
C1947 N1948 1.279 . S
C1947 C1950 1.358 . S
C1947 H2004 0.930 . S
N1948 C1947 1.279 . S
N1948 C1951 1.314 . S
C1949 C1946 1.348 . S
C1949 C1951 1.353 . S
C1949 H2005 0.929 . S
C1950 C1946 1.356 . S
C1950 C1947 1.358 . S
C1950 H2006 0.930 . S
C1951 N1948 1.314 . S
C1951 C1949 1.353 . S
C1951 H2007 0.930 . S
C1952 N1953 1.314 . S
C1952 C1957 1.353 . S
C1952 H1958 0.930 . S
N1953 Li1936 1.990 . S
N1953 C1952 1.314 . S
N1953 C1955 1.279 . S
C1954 C1955 1.358 . S
C1954 C1956 1.356 . S
C1954 H2008 0.930 . S
C1955 N1953 1.279 . S
C1955 C1954 1.358 . S
C1955 H1959 0.930 . S
C1956 C1954 1.356 . S
C1956 C1957 1.348 . S
C1957 C1952 1.353 . S
C1957 C1956 1.348 . S
C1957 H2009 0.929 . S
H1958 C1952 0.930 . S
H1959 C1955 0.930 . S
C1960 N1961 1.314 . S
C1960 C1962 1.353 . S
C1960 H1966 0.930 . S
N1961 Li1937 1.990 . S
N1961 C1960 1.314 . S
N1961 C1964 1.279 . S
C1962 C1960 1.353 . S
C1962 C1965 1.348 . S
C1962 H2010 0.929 . S
C1963 C1964 1.358 . S
C1963 C1965 1.356 . S
C1963 H2011 0.930 . S
C1964 N1961 1.279 . S
C1964 C1963 1.358 . S
C1964 H1967 0.930 . S
C1965 C1962 1.348 . S
C1965 C1963 1.356 . S
H1966 C1960 0.930 . S
H1967 C1964 0.930 . S
C1968 C1970 1.348 . S
C1968 C1971 1.356 . S
C1968 O1998 1.325 . S
N1969 C1972 1.314 . S
N1969 C1973 1.279 . S
C1970 C1968 1.348 . S
C1970 C1972 1.353 . S
C1970 H2012 0.929 . S
C1971 C1968 1.356 . S
C1971 C1973 1.358 . S
C1971 H2013 0.930 . S
C1972 N1969 1.314 . S
C1972 C1970 1.353 . S
C1972 H2014 0.930 . S
C1973 N1969 1.279 . S
C1973 C1971 1.358 . S
C1973 H2015 0.930 . S
C1974 C1975 1.348 . S
C1974 C1976 1.356 . S
C1974 O1999 1.325 . S
C1975 C1974 1.348 . S
C1975 C1977 1.353 . S
C1975 H2016 0.929 . S
C1976 C1974 1.356 . S
C1976 C1978 1.358 . S
C1976 H2017 0.930 . S
C1977 C1975 1.353 . S
C1977 N1979 1.314 . S
C1977 H2018 0.930 . S
C1978 C1976 1.358 . S
C1978 N1979 1.279 . S
C1978 H2019 0.930 . S
N1979 C1977 1.314 . S
N1979 C1978 1.279 . S
C1980 C1982 1.353 . S
C1980 N1983 1.314 . S
C1980 H1986 0.930 . S
C1981 N1983 1.279 . S
C1981 C1984 1.358 . S
C1981 H1987 0.930 . S
C1982 C1980 1.353 . S
C1982 C1985 1.348 . S
C1982 H2020 0.929 . S
N1983 Li1938 1.990 . S
N1983 C1980 1.314 . S
N1983 C1981 1.279 . S
C1984 C1981 1.358 . S
C1984 C1985 1.356 . S
C1984 H2021 0.930 . S
C1985 C1982 1.348 . S
C1985 C1984 1.356 . S
H1986 C1980 0.930 . S
H1987 C1981 0.930 . S
C1988 N1989 1.314 . S
C1988 C1990 1.353 . S
C1988 H1994 0.930 . S
N1989 Li1939 1.990 . S
N1989 C1988 1.314 . S
N1989 C1992 1.279 . S
C1990 C1988 1.353 . S
C1990 C1993 1.348 . S
C1990 H2022 0.929 . S
C1991 C1992 1.358 . S
C1991 C1993 1.356 . S
C1991 H2023 0.930 . S
C1992 N1989 1.279 . S
C1992 C1991 1.358 . S
C1992 H1995 0.930 . S
C1993 C1990 1.348 . S
C1993 C1991 1.356 . S
H1994 C1988 0.930 . S
H1995 C1992 0.930 . S
O1996 Li1936 1.956 . S
O1996 Li1937 1.970 . S
O1996 Li1938 1.961 . S
O1996 C1940 1.325 . S
O1997 Li1936 1.970 . S
O1997 Li1937 1.956 . S
O1997 Li1939 1.961 . S
O1997 C1946 1.325 . S
O1998 Li1936 1.961 . S
O1998 Li1938 1.956 . S
O1998 Li1939 1.970 . S
O1998 C1968 1.325 . S
O1999 Li1937 1.961 . S
O1999 Li1938 1.970 . S
O1999 Li1939 1.956 . S
O1999 C1974 1.325 . S
H2000 C1942 0.929 . S
H2001 C1943 0.930 . S
H2002 C1944 0.930 . S
H2003 C1945 0.930 . S
H2004 C1947 0.930 . S
H2005 C1949 0.929 . S
H2006 C1950 0.930 . S
H2007 C1951 0.930 . S
H2008 C1954 0.930 . S
H2009 C1957 0.929 . S
H2010 C1962 0.929 . S
H2011 C1963 0.930 . S
H2012 C1970 0.929 . S
H2013 C1971 0.930 . S
H2014 C1972 0.930 . S
H2015 C1973 0.930 . S
H2016 C1975 0.929 . S
H2017 C1976 0.930 . S
H2018 C1977 0.930 . S
H2019 C1978 0.930 . S
H2020 C1982 0.929 . S
H2021 C1984 0.930 . S
H2022 C1990 0.929 . S
H2023 C1991 0.930 . S
Li2024 N2041 1.990 . S
Li2024 O2084 1.956 . S
Li2024 O2085 1.970 . S
Li2024 O2086 1.961 . S
Li2025 N2049 1.990 . S
Li2025 O2084 1.970 . S
Li2025 O2085 1.956 . S
Li2025 O2087 1.961 . S
Li2026 N2071 1.990 . S
Li2026 O2084 1.961 . S
Li2026 O2086 1.956 . S
Li2026 O2087 1.970 . S
Li2027 N2077 1.990 . S
Li2027 O2085 1.961 . S
Li2027 O2086 1.970 . S
Li2027 O2087 1.956 . S
C2028 C2030 1.348 . S
C2028 C2031 1.356 . S
C2028 O2084 1.325 . S
N2029 C2032 1.314 . S
N2029 C2033 1.279 . S
C2030 C2028 1.348 . S
C2030 C2032 1.353 . S
C2030 H2088 0.929 . S
C2031 C2028 1.356 . S
C2031 C2033 1.358 . S
C2031 H2089 0.930 . S
C2032 N2029 1.314 . S
C2032 C2030 1.353 . S
C2032 H2090 0.930 . S
C2033 N2029 1.279 . S
C2033 C2031 1.358 . S
C2033 H2091 0.930 . S
C2034 C2037 1.348 . S
C2034 C2038 1.356 . S
C2034 O2085 1.325 . S
C2035 N2036 1.279 . S
C2035 C2038 1.358 . S
C2035 H2092 0.930 . S
N2036 C2035 1.279 . S
N2036 C2039 1.314 . S
C2037 C2034 1.348 . S
C2037 C2039 1.353 . S
C2037 H2093 0.929 . S
C2038 C2034 1.356 . S
C2038 C2035 1.358 . S
C2038 H2094 0.930 . S
C2039 N2036 1.314 . S
C2039 C2037 1.353 . S
C2039 H2095 0.930 . S
C2040 N2041 1.314 . S
C2040 C2045 1.353 . S
C2040 H2046 0.930 . S
N2041 Li2024 1.990 . S
N2041 C2040 1.314 . S
N2041 C2043 1.279 . S
C2042 C2043 1.358 . S
C2042 C2044 1.356 . S
C2042 H2096 0.930 . S
C2043 N2041 1.279 . S
C2043 C2042 1.358 . S
C2043 H2047 0.930 . S
C2044 C2042 1.356 . S
C2044 C2045 1.348 . S
C2045 C2040 1.353 . S
C2045 C2044 1.348 . S
C2045 H2097 0.929 . S
H2046 C2040 0.930 . S
H2047 C2043 0.930 . S
C2048 N2049 1.314 . S
C2048 C2050 1.353 . S
C2048 H2054 0.930 . S
N2049 Li2025 1.990 . S
N2049 C2048 1.314 . S
N2049 C2052 1.279 . S
C2050 C2048 1.353 . S
C2050 C2053 1.348 . S
C2050 H2098 0.929 . S
C2051 C2052 1.358 . S
C2051 C2053 1.356 . S
C2051 H2099 0.930 . S
C2052 N2049 1.279 . S
C2052 C2051 1.358 . S
C2052 H2055 0.930 . S
C2053 C2050 1.348 . S
C2053 C2051 1.356 . S
H2054 C2048 0.930 . S
H2055 C2052 0.930 . S
C2056 C2058 1.348 . S
C2056 C2059 1.356 . S
C2056 O2086 1.325 . S
N2057 C2060 1.314 . S
N2057 C2061 1.279 . S
C2058 C2056 1.348 . S
C2058 C2060 1.353 . S
C2058 H2100 0.929 . S
C2059 C2056 1.356 . S
C2059 C2061 1.358 . S
C2059 H2101 0.930 . S
C2060 N2057 1.314 . S
C2060 C2058 1.353 . S
C2060 H2102 0.930 . S
C2061 N2057 1.279 . S
C2061 C2059 1.358 . S
C2061 H2103 0.930 . S
C2062 C2063 1.348 . S
C2062 C2064 1.356 . S
C2062 O2087 1.325 . S
C2063 C2062 1.348 . S
C2063 C2065 1.353 . S
C2063 H2104 0.929 . S
C2064 C2062 1.356 . S
C2064 C2066 1.358 . S
C2064 H2105 0.930 . S
C2065 C2063 1.353 . S
C2065 N2067 1.314 . S
C2065 H2106 0.930 . S
C2066 C2064 1.358 . S
C2066 N2067 1.279 . S
C2066 H2107 0.930 . S
N2067 C2065 1.314 . S
N2067 C2066 1.279 . S
C2068 C2070 1.353 . S
C2068 N2071 1.314 . S
C2068 H2074 0.930 . S
C2069 N2071 1.279 . S
C2069 C2072 1.358 . S
C2069 H2075 0.930 . S
C2070 C2068 1.353 . S
C2070 C2073 1.348 . S
C2070 H2108 0.929 . S
N2071 Li2026 1.990 . S
N2071 C2068 1.314 . S
N2071 C2069 1.279 . S
C2072 C2069 1.358 . S
C2072 C2073 1.356 . S
C2072 H2109 0.930 . S
C2073 C2070 1.348 . S
C2073 C2072 1.356 . S
H2074 C2068 0.930 . S
H2075 C2069 0.930 . S
C2076 N2077 1.314 . S
C2076 C2078 1.353 . S
C2076 H2082 0.930 . S
N2077 Li2027 1.990 . S
N2077 C2076 1.314 . S
N2077 C2080 1.279 . S
C2078 C2076 1.353 . S
C2078 C2081 1.348 . S
C2078 H2110 0.929 . S
C2079 C2080 1.358 . S
C2079 C2081 1.356 . S
C2079 H2111 0.930 . S
C2080 N2077 1.279 . S
C2080 C2079 1.358 . S
C2080 H2083 0.930 . S
C2081 C2078 1.348 . S
C2081 C2079 1.356 . S
H2082 C2076 0.930 . S
H2083 C2080 0.930 . S
O2084 Li2024 1.956 . S
O2084 Li2025 1.970 . S
O2084 Li2026 1.961 . S
O2084 C2028 1.325 . S
O2085 Li2024 1.970 . S
O2085 Li2025 1.956 . S
O2085 Li2027 1.961 . S
O2085 C2034 1.325 . S
O2086 Li2024 1.961 . S
O2086 Li2026 1.956 . S
O2086 Li2027 1.970 . S
O2086 C2056 1.325 . S
O2087 Li2025 1.961 . S
O2087 Li2026 1.970 . S
O2087 Li2027 1.956 . S
O2087 C2062 1.325 . S
H2088 C2030 0.929 . S
H2089 C2031 0.930 . S
H2090 C2032 0.930 . S
H2091 C2033 0.930 . S
H2092 C2035 0.930 . S
H2093 C2037 0.929 . S
H2094 C2038 0.930 . S
H2095 C2039 0.930 . S
H2096 C2042 0.930 . S
H2097 C2045 0.929 . S
H2098 C2050 0.929 . S
H2099 C2051 0.930 . S
H2100 C2058 0.929 . S
H2101 C2059 0.930 . S
H2102 C2060 0.930 . S
H2103 C2061 0.930 . S
H2104 C2063 0.929 . S
H2105 C2064 0.930 . S
H2106 C2065 0.930 . S
H2107 C2066 0.930 . S
H2108 C2070 0.929 . S
H2109 C2072 0.930 . S
H2110 C2078 0.929 . S
H2111 C2079 0.930 . S
Eu2112 N2143 2.657 1_545 S
Eu2112 N2150 2.609 1_544 S
Eu2112 O2156 2.558 1_454 S
Eu2112 O2157 2.612 . S
Eu2112 O2159 2.339 . S
Eu2112 O2160 2.563 . S
Eu2112 O2161 2.419 1_455 S
Eu2112 O2163 2.380 . S
Eu2112 O2164 2.432 1_554 S
Eu2112 C2176 2.848 1_454 S
C2113 C2116 1.429 . S
C2113 C2117 1.411 . S
C2113 N2120 1.377 . S
C2114 C2116 1.420 . S
C2114 C2118 1.423 . S
C2114 C2126 1.392 . S
C2115 C2117 1.420 . S
C2115 C2118 1.351 . S
C2115 H2138 0.931 . S
C2116 C2113 1.429 . S
C2116 C2114 1.420 . S
C2116 N2124 1.362 . S
C2117 C2113 1.411 . S
C2117 C2115 1.420 . S
C2117 C2122 1.395 . S
C2118 C2114 1.423 . S
C2118 C2115 1.351 . S
C2118 H2130 0.930 . S
C2119 C2121 1.400 . S
C2119 C2122 1.386 . S
C2119 H2131 0.930 . S
N2120 C2113 1.377 . S
N2120 C2121 1.321 . S
N2120 Eu2123 2.609 . S
C2121 C2119 1.400 . S
C2121 N2120 1.321 . S
C2121 H2128 0.930 . S
C2122 C2117 1.395 . S
C2122 C2119 1.386 . S
C2122 H2141 0.930 . S
Eu2123 N2120 2.609 . S
Eu2123 N2124 2.657 . S
Eu2123 O2157 2.380 . S
Eu2123 O2158 2.432 . S
Eu2123 O2162 2.558 . S
Eu2123 O2163 2.612 . S
Eu2123 O2165 2.339 1_554 S
Eu2123 O2166 2.563 . S
Eu2123 O2167 2.419 . S
Eu2123 C2187 2.848 . S
N2124 C2116 1.362 . S
N2124 Eu2123 2.657 . S
N2124 C2125 1.334 1_554 S
C2125 N2124 1.334 1_556 S
C2125 C2127 1.413 . S
C2125 H2132 0.929 . S
C2126 C2114 1.392 . S
C2126 C2127 1.367 1_554 S
C2126 H2134 0.930 1_554 S
C2127 C2125 1.413 . S
C2127 C2126 1.367 1_556 S
C2127 H2129 0.930 . S
H2128 C2121 0.930 . S
H2129 C2127 0.930 . S
H2130 C2118 0.930 . S
H2131 C2119 0.930 . S
H2132 C2125 0.929 . S
H2133 C2147 0.930 . S
H2134 C2126 0.930 1_556 S
H2135 C2153 0.930 1_545 S
H2136 C2144 0.929 1_545 S
H2137 C2151 0.929 . S
H2138 C2115 0.931 . S
H2139 C2145 0.930 . S
H2140 C2178 0.959 . S
H2141 C2122 0.930 . S
H2142 C2177 0.931 . S
N2143 Eu2112 2.657 1_565 S
N2143 C2144 1.334 . S
N2143 C2148 1.362 . S
C2144 H2136 0.929 1_565 S
C2144 N2143 1.334 . S
C2144 C2147 1.413 . S
C2145 H2139 0.930 . S
C2145 C2146 1.392 . S
C2145 C2147 1.367 1_655 S
C2146 C2145 1.392 . S
C2146 C2148 1.420 1_655 S
C2146 C2178 1.450 . S
C2147 H2133 0.930 . S
C2147 C2144 1.413 . S
C2147 C2145 1.367 1_455 S
C2148 N2143 1.362 . S
C2148 C2146 1.420 1_455 S
C2148 C2152 1.427 1_554 S
H2149 C2154 0.930 . S
N2150 Eu2112 2.609 1_566 S
N2150 C2152 1.397 . S
N2150 C2153 1.321 . S
C2151 H2137 0.929 . S
C2151 C2153 1.412 . S
C2151 C2154 1.371 1_455 S
C2152 C2148 1.427 1_556 S
C2152 N2150 1.397 . S
C2152 C2155 1.398 1_455 S
C2153 H2135 0.930 1_565 S
C2153 N2150 1.321 . S
C2153 C2151 1.412 . S
C2154 H2149 0.930 . S
C2154 C2151 1.371 1_655 S
C2154 C2155 1.395 . S
C2155 C2152 1.398 1_655 S
C2155 C2154 1.395 . S
C2155 C2177 1.420 . S
O2156 Eu2112 2.558 1_656 S
O2156 C2176 1.257 . S
O2157 Eu2112 2.612 . S
O2157 Eu2123 2.380 . S
O2157 C2168 1.276 . S
O2158 Eu2123 2.432 . S
O2158 C2175 1.264 . S
O2159 Eu2112 2.339 . S
O2159 C2175 1.254 . S
O2160 Eu2112 2.563 . S
O2160 C2168 1.235 . S
O2161 Eu2112 2.419 1_655 S
O2161 C2176 1.249 1_554 S
O2162 Eu2123 2.558 . S
O2162 C2187 1.257 . S
O2163 Eu2112 2.380 . S
O2163 Eu2123 2.612 . S
O2163 C2179 1.276 . S
O2164 Eu2112 2.432 1_556 S
O2164 C2186 1.264 . S
O2165 Eu2123 2.339 1_556 S
O2165 C2186 1.254 . S
O2166 Eu2123 2.563 . S
O2166 C2179 1.235 . S
O2167 Eu2123 2.419 . S
O2167 C2187 1.249 . S
C2168 O2157 1.276 . S
C2168 O2160 1.235 . S
C2169 C2171 1.393 1_556 S
C2169 C2173 1.395 . S
C2169 C2176 1.492 . S
C2170 C2171 1.392 . S
C2170 C2172 1.386 1_554 S
C2171 C2169 1.393 1_554 S
C2171 C2170 1.392 . S
C2171 H2188 0.930 . S
C2172 C2170 1.386 1_556 S
C2172 C2174 1.395 . S
C2172 H2189 0.930 . S
C2173 C2169 1.395 . S
C2173 C2174 1.379 . S
C2173 H2190 0.930 . S
C2174 C2172 1.395 . S
C2174 C2173 1.379 . S
C2174 H2191 0.930 . S
C2175 O2158 1.264 . S
C2175 O2159 1.254 . S
C2176 Eu2112 2.848 1_656 S
C2176 O2156 1.257 . S
C2176 O2161 1.249 1_556 S
C2176 C2169 1.492 . S
C2177 H2142 0.931 . S
C2177 C2155 1.420 . S
C2177 C2178 1.297 1_556 S
C2178 H2140 0.959 . S
C2178 C2146 1.450 . S
C2178 C2177 1.297 1_554 S
C2179 O2163 1.276 . S
C2179 O2166 1.235 . S
C2180 C2181 1.393 . S
C2180 C2184 1.395 . S
C2180 C2187 1.492 . S
C2181 C2180 1.393 . S
C2181 C2182 1.392 . S
C2181 H2192 0.930 . S
C2182 C2181 1.392 . S
C2182 C2183 1.386 . S
C2183 C2182 1.386 . S
C2183 C2185 1.395 . S
C2183 H2193 0.930 . S
C2184 C2180 1.395 . S
C2184 C2185 1.379 . S
C2184 H2194 0.930 . S
C2185 C2183 1.395 . S
C2185 C2184 1.379 . S
C2185 H2195 0.930 . S
C2186 O2164 1.264 . S
C2186 O2165 1.254 . S
C2187 Eu2123 2.848 . S
C2187 O2162 1.257 . S
C2187 O2167 1.249 . S
C2187 C2180 1.492 . S
H2188 C2171 0.930 . S
H2189 C2172 0.930 . S
H2190 C2173 0.930 . S
H2191 C2174 0.930 . S
H2192 C2181 0.930 . S
H2193 C2183 0.930 . S
H2194 C2184 0.930 . S
H2195 C2185 0.930 . S
Eu2196 N2227 2.657 . S
Eu2196 N2234 2.609 . S
Eu2196 O2240 2.558 . S
Eu2196 O2241 2.612 . S
Eu2196 O2243 2.339 . S
Eu2196 O2244 2.563 . S
Eu2196 O2245 2.419 . S
Eu2196 O2247 2.380 . S
Eu2196 O2248 2.432 . S
Eu2196 C2260 2.848 . S
C2197 C2200 1.429 . S
C2197 C2201 1.411 . S
C2197 N2204 1.377 . S
C2198 C2200 1.420 . S
C2198 C2202 1.423 . S
C2198 C2210 1.392 . S
C2199 C2201 1.420 . S
C2199 C2202 1.351 . S
C2199 H2222 0.931 . S
C2200 C2197 1.429 . S
C2200 C2198 1.420 . S
C2200 N2208 1.362 . S
C2201 C2197 1.411 . S
C2201 C2199 1.420 . S
C2201 C2206 1.395 . S
C2202 C2198 1.423 . S
C2202 C2199 1.351 . S
C2202 H2214 0.930 . S
C2203 C2205 1.400 . S
C2203 C2206 1.386 . S
C2203 H2215 0.930 . S
N2204 C2197 1.377 . S
N2204 C2205 1.321 . S
N2204 Eu2207 2.609 . S
C2205 C2203 1.400 . S
C2205 N2204 1.321 . S
C2205 H2212 0.930 . S
C2206 C2201 1.395 . S
C2206 C2203 1.386 . S
C2206 H2225 0.930 . S
Eu2207 N2204 2.609 . S
Eu2207 N2208 2.657 . S
Eu2207 O2241 2.380 . S
Eu2207 O2242 2.432 . S
Eu2207 O2246 2.558 . S
Eu2207 O2247 2.612 . S
Eu2207 O2249 2.339 . S
Eu2207 O2250 2.563 . S
Eu2207 O2251 2.419 . S
Eu2207 C2271 2.848 . S
N2208 C2200 1.362 . S
N2208 Eu2207 2.657 . S
N2208 C2209 1.334 . S
C2209 N2208 1.334 . S
C2209 C2211 1.413 . S
C2209 H2216 0.929 . S
C2210 C2198 1.392 . S
C2210 C2211 1.367 . S
C2210 H2218 0.930 . S
C2211 C2209 1.413 . S
C2211 C2210 1.367 . S
C2211 H2213 0.930 . S
H2212 C2205 0.930 . S
H2213 C2211 0.930 . S
H2214 C2202 0.930 . S
H2215 C2203 0.930 . S
H2216 C2209 0.929 . S
H2217 C2231 0.930 . S
H2218 C2210 0.930 . S
H2219 C2237 0.930 . S
H2220 C2228 0.929 . S
H2221 C2235 0.930 . S
H2222 C2199 0.931 . S
H2223 C2229 0.930 . S
H2224 C2262 0.930 . S
H2225 C2206 0.930 . S
H2226 C2261 0.931 . S
N2227 Eu2196 2.657 . S
N2227 C2228 1.334 . S
N2227 C2232 1.362 . S
C2228 H2220 0.929 . S
C2228 N2227 1.334 . S
C2228 C2231 1.413 . S
C2229 H2223 0.930 . S
C2229 C2230 1.392 . S
C2229 C2231 1.367 . S
C2230 C2229 1.392 . S
C2230 C2232 1.420 . S
C2230 C2262 1.423 . S
C2231 H2217 0.930 . S
C2231 C2228 1.413 . S
C2231 C2229 1.367 . S
C2232 N2227 1.362 . S
C2232 C2230 1.420 . S
C2232 C2236 1.429 . S
H2233 C2238 0.930 . S
N2234 Eu2196 2.609 . S
N2234 C2236 1.377 . S
N2234 C2237 1.321 . S
C2235 H2221 0.930 . S
C2235 C2237 1.400 . S
C2235 C2238 1.386 . S
C2236 C2232 1.429 . S
C2236 N2234 1.377 . S
C2236 C2239 1.411 . S
C2237 H2219 0.930 . S
C2237 N2234 1.321 . S
C2237 C2235 1.400 . S
C2238 H2233 0.930 . S
C2238 C2235 1.386 . S
C2238 C2239 1.395 . S
C2239 C2236 1.411 . S
C2239 C2238 1.395 . S
C2239 C2261 1.420 . S
O2240 Eu2196 2.558 . S
O2240 C2260 1.257 . S
O2241 Eu2196 2.612 . S
O2241 Eu2207 2.380 . S
O2241 C2252 1.276 . S
O2242 Eu2207 2.432 . S
O2242 C2259 1.264 . S
O2243 Eu2196 2.339 . S
O2243 C2259 1.254 . S
O2244 Eu2196 2.563 . S
O2244 C2252 1.235 . S
O2245 Eu2196 2.419 . S
O2245 C2260 1.249 . S
O2246 Eu2207 2.558 . S
O2246 C2271 1.257 . S
O2247 Eu2196 2.380 . S
O2247 Eu2207 2.612 . S
O2247 C2263 1.276 . S
O2248 Eu2196 2.432 . S
O2248 C2270 1.264 . S
O2249 Eu2207 2.339 . S
O2249 C2270 1.254 . S
O2250 Eu2207 2.563 . S
O2250 C2263 1.235 . S
O2251 Eu2207 2.419 . S
O2251 C2271 1.249 . S
C2252 O2241 1.276 . S
C2252 O2244 1.235 . S
C2253 C2255 1.393 . S
C2253 C2257 1.395 . S
C2253 C2260 1.492 . S
C2254 C2255 1.392 . S
C2254 C2256 1.386 . S
C2255 C2253 1.393 . S
C2255 C2254 1.392 . S
C2255 H2272 0.930 . S
C2256 C2254 1.386 . S
C2256 C2258 1.395 . S
C2256 H2273 0.930 . S
C2257 C2253 1.395 . S
C2257 C2258 1.379 . S
C2257 H2274 0.930 . S
C2258 C2256 1.395 . S
C2258 C2257 1.379 . S
C2258 H2275 0.930 . S
C2259 O2242 1.264 . S
C2259 O2243 1.254 . S
C2260 Eu2196 2.848 . S
C2260 O2240 1.257 . S
C2260 O2245 1.249 . S
C2260 C2253 1.492 . S
C2261 H2226 0.931 . S
C2261 C2239 1.420 . S
C2261 C2262 1.351 . S
C2262 H2224 0.930 . S
C2262 C2230 1.423 . S
C2262 C2261 1.351 . S
C2263 O2247 1.276 . S
C2263 O2250 1.235 . S
C2264 C2265 1.393 . S
C2264 C2268 1.395 . S
C2264 C2271 1.492 . S
C2265 C2264 1.393 . S
C2265 C2266 1.392 . S
C2265 H2276 0.930 . S
C2266 C2265 1.392 . S
C2266 C2267 1.386 . S
C2267 C2266 1.386 . S
C2267 C2269 1.395 . S
C2267 H2277 0.930 . S
C2268 C2264 1.395 . S
C2268 C2269 1.379 . S
C2268 H2278 0.930 . S
C2269 C2267 1.395 . S
C2269 C2268 1.379 . S
C2269 H2279 0.930 . S
C2270 O2248 1.264 . S
C2270 O2249 1.254 . S
C2271 Eu2207 2.848 . S
C2271 O2246 1.257 . S
C2271 O2251 1.249 . S
C2271 C2264 1.492 . S
H2272 C2255 0.930 . S
H2273 C2256 0.930 . S
H2274 C2257 0.930 . S
H2275 C2258 0.930 . S
H2276 C2265 0.930 . S
H2277 C2267 0.930 . S
H2278 C2268 0.930 . S
H2279 C2269 0.930 . S
Eu2280 N2311 2.657 . S
Eu2280 N2318 2.609 . S
Eu2280 O2324 2.558 . S
Eu2280 O2325 2.612 . S
Eu2280 O2327 2.339 . S
Eu2280 O2328 2.510 1_545 S
Eu2280 O2329 2.419 . S
Eu2280 O2331 2.380 . S
Eu2280 O2332 2.432 . S
Eu2280 C2344 2.848 . S
C2281 C2284 1.429 . S
C2281 C2285 1.411 . S
C2281 N2288 1.377 1_565 S
C2282 C2284 1.420 . S
C2282 C2286 1.423 . S
C2282 C2294 1.392 . S
C2283 C2285 1.420 . S
C2283 C2286 1.351 . S
C2283 H2306 0.931 . S
C2284 C2281 1.429 . S
C2284 C2282 1.420 . S
C2284 N2292 1.336 1_565 S
C2285 C2281 1.411 . S
C2285 C2283 1.420 . S
C2285 C2290 1.395 . S
C2286 C2282 1.423 . S
C2286 C2283 1.351 . S
C2286 H2298 0.930 . S
C2287 C2289 1.400 . S
C2287 C2290 1.386 1_545 S
C2287 H2299 0.930 . S
N2288 C2281 1.377 1_545 S
N2288 C2289 1.321 . S
N2288 Eu2291 2.609 . S
C2289 C2287 1.400 . S
C2289 N2288 1.321 . S
C2289 H2296 0.930 . S
C2290 C2285 1.395 . S
C2290 C2287 1.386 1_565 S
C2290 H2309 0.930 . S
Eu2291 N2288 2.609 . S
Eu2291 N2292 2.686 . S
Eu2291 O2325 2.380 . S
Eu2291 O2326 2.432 . S
Eu2291 O2330 2.558 . S
Eu2291 O2331 2.612 . S
Eu2291 O2333 2.339 . S
Eu2291 O2334 2.563 . S
Eu2291 O2335 2.419 . S
Eu2291 C2355 2.848 . S
N2292 C2284 1.336 1_545 S
N2292 Eu2291 2.686 . S
N2292 C2293 1.330 1_545 S
C2293 N2292 1.330 1_565 S
C2293 C2295 1.413 . S
C2293 H2300 0.929 1_565 S
C2294 C2282 1.392 . S
C2294 C2295 1.367 . S
C2294 H2302 0.930 . S
C2295 C2293 1.413 . S
C2295 C2294 1.367 . S
C2295 H2297 0.930 . S
H2296 C2289 0.930 . S
H2297 C2295 0.930 . S
H2298 C2286 0.930 . S
H2299 C2287 0.930 . S
H2300 C2293 0.929 1_545 S
H2301 C2315 0.930 . S
H2302 C2294 0.930 . S
H2303 C2321 0.930 . S
H2304 C2312 0.929 . S
H2305 C2319 0.930 . S
H2306 C2283 0.931 . S
H2307 C2313 0.930 . S
H2308 C2346 0.930 . S
H2309 C2290 0.930 . S
H2310 C2345 0.931 . S
N2311 Eu2280 2.657 . S
N2311 C2312 1.334 . S
N2311 C2316 1.362 . S
C2312 H2304 0.929 . S
C2312 N2311 1.334 . S
C2312 C2315 1.413 . S
C2313 H2307 0.930 . S
C2313 C2314 1.392 . S
C2313 C2315 1.367 . S
C2314 C2313 1.392 . S
C2314 C2316 1.420 . S
C2314 C2346 1.423 . S
C2315 H2301 0.930 . S
C2315 C2312 1.413 . S
C2315 C2313 1.367 . S
C2316 N2311 1.362 . S
C2316 C2314 1.420 . S
C2316 C2320 1.429 . S
H2317 C2322 0.930 . S
N2318 Eu2280 2.609 . S
N2318 C2320 1.377 . S
N2318 C2321 1.321 . S
C2319 H2305 0.930 . S
C2319 C2321 1.400 . S
C2319 C2322 1.386 . S
C2320 C2316 1.429 . S
C2320 N2318 1.377 . S
C2320 C2323 1.411 . S
C2321 H2303 0.930 . S
C2321 N2318 1.321 . S
C2321 C2319 1.400 . S
C2322 H2317 0.930 . S
C2322 C2319 1.386 . S
C2322 C2323 1.395 . S
C2323 C2320 1.411 . S
C2323 C2322 1.395 . S
C2323 C2345 1.420 . S
O2324 Eu2280 2.558 . S
O2324 C2344 1.257 . S
O2325 Eu2280 2.612 . S
O2325 Eu2291 2.380 . S
O2325 C2336 1.276 1_545 S
O2326 Eu2291 2.432 . S
O2326 C2343 1.264 . S
O2327 Eu2280 2.339 . S
O2327 C2343 1.254 . S
O2328 Eu2280 2.510 1_565 S
O2328 C2336 1.233 . S
O2329 Eu2280 2.419 . S
O2329 C2344 1.249 . S
O2330 Eu2291 2.558 . S
O2330 C2355 1.257 . S
O2331 Eu2280 2.380 . S
O2331 Eu2291 2.612 . S
O2331 C2347 1.276 . S
O2332 Eu2280 2.432 . S
O2332 C2354 1.264 . S
O2333 Eu2291 2.339 . S
O2333 C2354 1.254 . S
O2334 Eu2291 2.563 . S
O2334 C2347 1.235 . S
O2335 Eu2291 2.419 . S
O2335 C2355 1.249 . S
C2336 O2325 1.276 1_565 S
C2336 O2328 1.233 . S
C2337 C2339 1.393 . S
C2337 C2341 1.395 . S
C2337 C2344 1.492 . S
C2338 C2339 1.392 1_565 S
C2338 C2340 1.386 . S
C2339 C2337 1.393 . S
C2339 C2338 1.392 1_545 S
C2339 H2356 0.930 . S
C2340 C2338 1.386 . S
C2340 C2342 1.395 1_565 S
C2340 H2357 0.930 . S
C2341 C2337 1.395 . S
C2341 C2342 1.379 . S
C2341 H2358 0.930 . S
C2342 C2340 1.395 1_545 S
C2342 C2341 1.379 . S
C2342 H2359 0.930 . S
C2343 O2326 1.264 . S
C2343 O2327 1.254 . S
C2344 Eu2280 2.848 . S
C2344 O2324 1.257 . S
C2344 O2329 1.249 . S
C2344 C2337 1.492 . S
C2345 H2310 0.931 . S
C2345 C2323 1.420 . S
C2345 C2346 1.351 . S
C2346 H2308 0.930 . S
C2346 C2314 1.423 . S
C2346 C2345 1.351 . S
C2347 O2331 1.276 . S
C2347 O2334 1.235 . S
C2348 C2349 1.393 . S
C2348 C2352 1.395 . S
C2348 C2355 1.492 . S
C2349 C2348 1.393 . S
C2349 C2350 1.392 . S
C2349 H2360 0.930 . S
C2350 C2349 1.392 . S
C2350 C2351 1.386 . S
C2351 C2350 1.386 . S
C2351 C2353 1.395 . S
C2351 H2361 0.930 . S
C2352 C2348 1.395 . S
C2352 C2353 1.379 . S
C2352 H2362 0.930 . S
C2353 C2351 1.395 . S
C2353 C2352 1.379 . S
C2353 H2363 0.930 . S
C2354 O2332 1.264 . S
C2354 O2333 1.254 . S
C2355 Eu2291 2.848 . S
C2355 O2330 1.257 . S
C2355 O2335 1.249 . S
C2355 C2348 1.492 . S
H2356 C2339 0.930 . S
H2357 C2340 0.930 . S
H2358 C2341 0.930 . S
H2359 C2342 0.930 . S
H2360 C2349 0.930 . S
H2361 C2351 0.930 . S
H2362 C2352 0.930 . S
H2363 C2353 0.930 . S
Eu2364 N2395 2.657 . S
Eu2364 N2402 2.609 . S
Eu2364 O2408 2.558 . S
Eu2364 O2409 2.612 . S
Eu2364 O2411 2.339 . S
Eu2364 O2412 2.563 . S
Eu2364 O2413 2.419 . S
Eu2364 O2415 2.380 . S
Eu2364 O2416 2.432 . S
Eu2364 C2428 2.848 . S
C2365 C2368 1.429 . S
C2365 C2369 1.411 . S
C2365 N2372 1.377 . S
C2366 C2368 1.420 . S
C2366 C2370 1.423 . S
C2366 C2378 1.392 . S
C2367 C2369 1.420 . S
C2367 C2370 1.351 . S
C2367 H2390 0.931 . S
C2368 C2365 1.429 . S
C2368 C2366 1.420 . S
C2368 N2376 1.362 . S
C2369 C2365 1.411 . S
C2369 C2367 1.420 . S
C2369 C2374 1.395 . S
C2370 C2366 1.423 . S
C2370 C2367 1.351 . S
C2370 H2382 0.930 . S
C2371 C2373 1.400 . S
C2371 C2374 1.386 . S
C2371 H2383 0.930 . S
N2372 C2365 1.377 . S
N2372 C2373 1.321 . S
N2372 Eu2375 2.609 . S
C2373 C2371 1.400 . S
C2373 N2372 1.321 . S
C2373 H2380 0.930 . S
C2374 C2369 1.395 . S
C2374 C2371 1.386 . S
C2374 H2393 0.930 . S
Eu2375 N2372 2.609 . S
Eu2375 N2376 2.657 . S
Eu2375 O2409 2.380 . S
Eu2375 O2410 2.432 . S
Eu2375 O2414 2.558 . S
Eu2375 O2415 2.612 . S
Eu2375 O2417 2.339 . S
Eu2375 O2418 2.563 . S
Eu2375 O2419 2.419 . S
Eu2375 C2439 2.848 . S
N2376 C2368 1.362 . S
N2376 Eu2375 2.657 . S
N2376 C2377 1.334 . S
C2377 N2376 1.334 . S
C2377 C2379 1.413 . S
C2377 H2384 0.929 . S
C2378 C2366 1.392 . S
C2378 C2379 1.367 . S
C2378 H2386 0.930 . S
C2379 C2377 1.413 . S
C2379 C2378 1.367 . S
C2379 H2381 0.930 . S
H2380 C2373 0.930 . S
H2381 C2379 0.930 . S
H2382 C2370 0.930 . S
H2383 C2371 0.930 . S
H2384 C2377 0.929 . S
H2385 C2399 0.930 . S
H2386 C2378 0.930 . S
H2387 C2405 0.930 . S
H2388 C2396 0.929 . S
H2389 C2403 0.930 . S
H2390 C2367 0.931 . S
H2391 C2397 0.930 . S
H2392 C2430 0.930 . S
H2393 C2374 0.930 . S
H2394 C2429 0.931 . S
N2395 Eu2364 2.657 . S
N2395 C2396 1.334 . S
N2395 C2400 1.362 . S
C2396 H2388 0.929 . S
C2396 N2395 1.334 . S
C2396 C2399 1.413 . S
C2397 H2391 0.930 . S
C2397 C2398 1.392 . S
C2397 C2399 1.367 . S
C2398 C2397 1.392 . S
C2398 C2400 1.420 . S
C2398 C2430 1.423 . S
C2399 H2385 0.930 . S
C2399 C2396 1.413 . S
C2399 C2397 1.367 . S
C2400 N2395 1.362 . S
C2400 C2398 1.420 . S
C2400 C2404 1.429 . S
H2401 C2406 0.930 . S
N2402 Eu2364 2.609 . S
N2402 C2404 1.377 . S
N2402 C2405 1.321 . S
C2403 H2389 0.930 . S
C2403 C2405 1.400 . S
C2403 C2406 1.386 . S
C2404 C2400 1.429 . S
C2404 N2402 1.377 . S
C2404 C2407 1.411 . S
C2405 H2387 0.930 . S
C2405 N2402 1.321 . S
C2405 C2403 1.400 . S
C2406 H2401 0.930 . S
C2406 C2403 1.386 . S
C2406 C2407 1.395 . S
C2407 C2404 1.411 . S
C2407 C2406 1.395 . S
C2407 C2429 1.420 . S
O2408 Eu2364 2.558 . S
O2408 C2428 1.257 . S
O2409 Eu2364 2.612 . S
O2409 Eu2375 2.380 . S
O2409 C2420 1.276 . S
O2410 Eu2375 2.432 . S
O2410 C2427 1.264 . S
O2411 Eu2364 2.339 . S
O2411 C2427 1.254 . S
O2412 Eu2364 2.563 . S
O2412 C2420 1.235 . S
O2413 Eu2364 2.419 . S
O2413 C2428 1.249 . S
O2414 Eu2375 2.558 . S
O2414 C2439 1.257 . S
O2415 Eu2364 2.380 . S
O2415 Eu2375 2.612 . S
O2415 C2431 1.276 . S
O2416 Eu2364 2.432 . S
O2416 C2438 1.264 . S
O2417 Eu2375 2.339 . S
O2417 C2438 1.254 . S
O2418 Eu2375 2.563 . S
O2418 C2431 1.235 . S
O2419 Eu2375 2.419 . S
O2419 C2439 1.249 . S
C2420 O2409 1.276 . S
C2420 O2412 1.235 . S
C2421 C2423 1.393 . S
C2421 C2425 1.395 . S
C2421 C2428 1.492 . S
C2422 C2423 1.392 . S
C2422 C2424 1.386 . S
C2423 C2421 1.393 . S
C2423 C2422 1.392 . S
C2423 H2440 0.930 . S
C2424 C2422 1.386 . S
C2424 C2426 1.395 . S
C2424 H2441 0.930 . S
C2425 C2421 1.395 . S
C2425 C2426 1.379 . S
C2425 H2442 0.930 . S
C2426 C2424 1.395 . S
C2426 C2425 1.379 . S
C2426 H2443 0.930 . S
C2427 O2410 1.264 . S
C2427 O2411 1.254 . S
C2428 Eu2364 2.848 . S
C2428 O2408 1.257 . S
C2428 O2413 1.249 . S
C2428 C2421 1.492 . S
C2429 H2394 0.931 . S
C2429 C2407 1.420 . S
C2429 C2430 1.351 . S
C2430 H2392 0.930 . S
C2430 C2398 1.423 . S
C2430 C2429 1.351 . S
C2431 O2415 1.276 . S
C2431 O2418 1.235 . S
C2432 C2433 1.393 . S
C2432 C2436 1.395 . S
C2432 C2439 1.492 . S
C2433 C2432 1.393 . S
C2433 C2434 1.392 . S
C2433 H2444 0.930 . S
C2434 C2433 1.392 . S
C2434 C2435 1.386 . S
C2435 C2434 1.386 . S
C2435 C2437 1.395 . S
C2435 H2445 0.930 . S
C2436 C2432 1.395 . S
C2436 C2437 1.379 . S
C2436 H2446 0.930 . S
C2437 C2435 1.395 . S
C2437 C2436 1.379 . S
C2437 H2447 0.930 . S
C2438 O2416 1.264 . S
C2438 O2417 1.254 . S
C2439 Eu2375 2.848 . S
C2439 O2414 1.257 . S
C2439 O2419 1.249 . S
C2439 C2432 1.492 . S
H2440 C2423 0.930 . S
H2441 C2424 0.930 . S
H2442 C2425 0.930 . S
H2443 C2426 0.930 . S
H2444 C2433 0.930 . S
H2445 C2435 0.930 . S
H2446 C2436 0.930 . S
H2447 C2437 0.930 . S
Eu2448 N2479 2.657 . S
Eu2448 N2486 2.609 . S
Eu2448 O2492 2.558 . S
Eu2448 O2493 2.612 . S
Eu2448 O2495 2.339 . S
Eu2448 O2496 2.563 . S
Eu2448 O2497 2.419 . S
Eu2448 O2499 2.380 . S
Eu2448 O2500 2.432 . S
Eu2448 C2512 2.848 . S
C2449 C2452 1.429 . S
C2449 C2453 1.411 . S
C2449 N2456 1.377 . S
C2450 C2452 1.420 . S
C2450 C2454 1.423 . S
C2450 C2462 1.392 . S
C2451 C2453 1.420 . S
C2451 C2454 1.351 . S
C2451 H2474 0.931 . S
C2452 C2449 1.429 . S
C2452 C2450 1.420 . S
C2452 N2460 1.362 . S
C2453 C2449 1.411 . S
C2453 C2451 1.420 . S
C2453 C2458 1.395 . S
C2454 C2450 1.423 . S
C2454 C2451 1.351 . S
C2454 H2466 0.930 . S
C2455 C2457 1.411 . S
C2455 C2458 1.386 . S
C2455 H2467 0.930 . S
N2456 C2449 1.377 . S
N2456 C2457 1.318 . S
N2456 Eu2459 2.609 1_565 S
C2457 C2455 1.411 . S
C2457 N2456 1.318 . S
C2457 H2464 0.923 1_565 S
C2458 C2453 1.395 . S
C2458 C2455 1.386 . S
C2458 H2477 0.930 . S
Eu2459 N2456 2.609 1_545 S
Eu2459 N2460 2.657 1_545 S
Eu2459 O2493 2.380 . S
Eu2459 O2494 2.432 . S
Eu2459 O2498 2.558 1_545 S
Eu2459 O2499 2.612 . S
Eu2459 O2501 2.339 . S
Eu2459 O2502 2.563 . S
Eu2459 O2503 2.419 1_545 S
Eu2459 C2523 2.848 1_545 S
N2460 C2452 1.362 . S
N2460 Eu2459 2.657 1_565 S
N2460 C2461 1.334 . S
C2461 N2460 1.334 . S
C2461 C2463 1.413 . S
C2461 H2468 0.929 . S
C2462 C2450 1.392 . S
C2462 C2463 1.367 . S
C2462 H2470 0.930 . S
C2463 C2461 1.413 . S
C2463 C2462 1.367 . S
C2463 H2465 0.930 1_455 S
H2464 C2457 0.923 1_545 S
H2465 C2463 0.930 1_655 S
H2466 C2454 0.930 . S
H2467 C2455 0.930 . S
H2468 C2461 0.929 . S
H2469 C2483 0.930 . S
H2470 C2462 0.930 . S
H2471 C2489 0.930 . S
H2472 C2480 0.929 . S
H2473 C2487 0.872 1_655 S
H2474 C2451 0.931 . S
H2475 C2481 0.930 . S
H2476 C2514 0.930 . S
H2477 C2458 0.930 . S
H2478 C2513 0.931 . S
N2479 Eu2448 2.657 . S
N2479 C2480 1.334 . S
N2479 C2484 1.362 . S
C2480 H2472 0.929 . S
C2480 N2479 1.334 . S
C2480 C2483 1.413 . S
C2481 H2475 0.930 . S
C2481 C2482 1.392 . S
C2481 C2483 1.367 . S
C2482 C2481 1.392 . S
C2482 C2484 1.420 . S
C2482 C2514 1.423 . S
C2483 H2469 0.930 . S
C2483 C2480 1.413 . S
C2483 C2481 1.367 . S
C2484 N2479 1.362 . S
C2484 C2482 1.420 . S
C2484 C2488 1.429 . S
H2485 C2490 0.930 . S
N2486 Eu2448 2.609 . S
N2486 C2488 1.377 . S
N2486 C2489 1.321 . S
C2487 H2473 0.872 1_455 S
C2487 C2489 1.437 . S
C2487 C2490 1.409 . S
C2488 C2484 1.429 . S
C2488 N2486 1.377 . S
C2488 C2491 1.411 . S
C2489 H2471 0.930 . S
C2489 N2486 1.321 . S
C2489 C2487 1.437 . S
C2490 H2485 0.930 . S
C2490 C2487 1.409 . S
C2490 C2491 1.395 . S
C2491 C2488 1.411 . S
C2491 C2490 1.395 . S
C2491 C2513 1.420 . S
O2492 Eu2448 2.558 . S
O2492 C2512 1.257 . S
O2493 Eu2448 2.612 . S
O2493 Eu2459 2.380 . S
O2493 C2504 1.276 . S
O2494 Eu2459 2.432 . S
O2494 C2511 1.264 . S
O2495 Eu2448 2.339 . S
O2495 C2511 1.254 . S
O2496 Eu2448 2.563 . S
O2496 C2504 1.235 . S
O2497 Eu2448 2.419 . S
O2497 C2512 1.249 . S
O2498 Eu2459 2.558 1_565 S
O2498 C2523 1.257 . S
O2499 Eu2448 2.380 . S
O2499 Eu2459 2.612 . S
O2499 C2515 1.276 . S
O2500 Eu2448 2.432 . S
O2500 C2522 1.264 . S
O2501 Eu2459 2.339 . S
O2501 C2522 1.254 . S
O2502 Eu2459 2.563 . S
O2502 C2515 1.235 . S
O2503 Eu2459 2.419 1_565 S
O2503 C2523 1.249 . S
C2504 O2493 1.276 . S
C2504 O2496 1.235 . S
C2505 C2507 1.393 . S
C2505 C2509 1.395 . S
C2505 C2512 1.492 . S
C2506 C2507 1.392 . S
C2506 C2508 1.386 . S
C2507 C2505 1.393 . S
C2507 C2506 1.392 . S
C2507 H2524 0.930 . S
C2508 C2506 1.386 . S
C2508 C2510 1.395 . S
C2508 H2525 0.930 . S
C2509 C2505 1.395 . S
C2509 C2510 1.379 . S
C2509 H2526 0.930 . S
C2510 C2508 1.395 . S
C2510 C2509 1.379 . S
C2510 H2527 0.930 . S
C2511 O2494 1.264 . S
C2511 O2495 1.254 . S
C2512 Eu2448 2.848 . S
C2512 O2492 1.257 . S
C2512 O2497 1.249 . S
C2512 C2505 1.492 . S
C2513 H2478 0.931 . S
C2513 C2491 1.420 . S
C2513 C2514 1.351 . S
C2514 H2476 0.930 . S
C2514 C2482 1.423 . S
C2514 C2513 1.351 . S
C2515 O2499 1.276 . S
C2515 O2502 1.235 . S
C2516 C2517 1.393 . S
C2516 C2520 1.395 . S
C2516 C2523 1.492 . S
C2517 C2516 1.393 . S
C2517 C2518 1.392 . S
C2517 H2528 0.930 . S
C2518 C2517 1.392 . S
C2518 C2519 1.386 . S
C2519 C2518 1.386 . S
C2519 C2521 1.395 . S
C2519 H2529 0.930 . S
C2520 C2516 1.395 . S
C2520 C2521 1.379 . S
C2520 H2530 0.930 . S
C2521 C2519 1.395 . S
C2521 C2520 1.379 . S
C2521 H2531 0.930 . S
C2522 O2500 1.264 . S
C2522 O2501 1.254 . S
C2523 Eu2459 2.848 1_565 S
C2523 O2498 1.257 . S
C2523 O2503 1.249 . S
C2523 C2516 1.492 . S
H2524 C2507 0.930 . S
H2525 C2508 0.930 . S
H2526 C2509 0.930 . S
H2527 C2510 0.930 . S
H2528 C2517 0.930 . S
H2529 C2519 0.930 . S
H2530 C2520 0.930 . S
H2531 C2521 0.930 . S
Eu2532 N2563 2.657 . S
Eu2532 N2570 2.609 . S
Eu2532 O2576 2.558 . S
Eu2532 O2577 2.612 . S
Eu2532 O2579 2.339 . S
Eu2532 O2580 2.563 . S
Eu2532 O2581 2.419 . S
Eu2532 O2583 2.380 . S
Eu2532 O2584 2.432 . S
Eu2532 C2596 2.848 . S
C2533 C2536 1.429 . S
C2533 C2537 1.411 . S
C2533 N2540 1.377 . S
C2534 C2536 1.420 . S
C2534 C2538 1.423 . S
C2534 C2546 1.392 . S
C2535 C2537 1.420 . S
C2535 C2538 1.351 . S
C2535 H2558 0.931 . S
C2536 C2533 1.429 . S
C2536 C2534 1.420 . S
C2536 N2544 1.362 . S
C2537 C2533 1.411 . S
C2537 C2535 1.420 . S
C2537 C2542 1.395 . S
C2538 C2534 1.423 . S
C2538 C2535 1.351 . S
C2538 H2550 0.930 . S
C2539 C2541 1.400 . S
C2539 C2542 1.386 . S
C2539 H2551 0.930 . S
N2540 C2533 1.377 . S
N2540 C2541 1.321 . S
N2540 Eu2543 2.609 . S
C2541 C2539 1.400 . S
C2541 N2540 1.321 . S
C2541 H2548 0.930 . S
C2542 C2537 1.395 . S
C2542 C2539 1.386 . S
C2542 H2561 0.930 . S
Eu2543 N2540 2.609 . S
Eu2543 N2544 2.657 . S
Eu2543 O2577 2.380 . S
Eu2543 O2578 2.432 . S
Eu2543 O2582 2.558 . S
Eu2543 O2583 2.612 . S
Eu2543 O2585 2.339 . S
Eu2543 O2586 2.563 . S
Eu2543 O2587 2.419 . S
Eu2543 C2607 2.848 . S
N2544 C2536 1.362 . S
N2544 Eu2543 2.657 . S
N2544 C2545 1.334 . S
C2545 N2544 1.334 . S
C2545 C2547 1.413 . S
C2545 H2552 0.929 . S
C2546 C2534 1.392 . S
C2546 C2547 1.367 . S
C2546 H2554 0.930 . S
C2547 C2545 1.413 . S
C2547 C2546 1.367 . S
C2547 H2549 0.930 . S
H2548 C2541 0.930 . S
H2549 C2547 0.930 . S
H2550 C2538 0.930 . S
H2551 C2539 0.930 . S
H2552 C2545 0.929 . S
H2553 C2567 0.930 . S
H2554 C2546 0.930 . S
H2555 C2573 0.930 . S
H2556 C2564 0.929 . S
H2557 C2571 0.930 . S
H2558 C2535 0.931 . S
H2559 C2565 0.930 . S
H2560 C2598 0.930 . S
H2561 C2542 0.930 . S
H2562 C2597 0.931 . S
N2563 Eu2532 2.657 . S
N2563 C2564 1.334 . S
N2563 C2568 1.362 . S
C2564 H2556 0.929 . S
C2564 N2563 1.334 . S
C2564 C2567 1.413 . S
C2565 H2559 0.930 . S
C2565 C2566 1.392 . S
C2565 C2567 1.367 . S
C2566 C2565 1.392 . S
C2566 C2568 1.420 . S
C2566 C2598 1.423 . S
C2567 H2553 0.930 . S
C2567 C2564 1.413 . S
C2567 C2565 1.367 . S
C2568 N2563 1.362 . S
C2568 C2566 1.420 . S
C2568 C2572 1.429 . S
H2569 C2574 0.930 . S
N2570 Eu2532 2.609 . S
N2570 C2572 1.377 . S
N2570 C2573 1.321 . S
C2571 H2557 0.930 . S
C2571 C2573 1.400 . S
C2571 C2574 1.386 . S
C2572 C2568 1.429 . S
C2572 N2570 1.377 . S
C2572 C2575 1.411 . S
C2573 H2555 0.930 . S
C2573 N2570 1.321 . S
C2573 C2571 1.400 . S
C2574 H2569 0.930 . S
C2574 C2571 1.386 . S
C2574 C2575 1.395 . S
C2575 C2572 1.411 . S
C2575 C2574 1.395 . S
C2575 C2597 1.420 . S
O2576 Eu2532 2.558 . S
O2576 C2596 1.257 . S
O2577 Eu2532 2.612 . S
O2577 Eu2543 2.380 . S
O2577 C2588 1.276 . S
O2578 Eu2543 2.432 . S
O2578 C2595 1.264 . S
O2579 Eu2532 2.339 . S
O2579 C2595 1.254 . S
O2580 Eu2532 2.563 . S
O2580 C2588 1.235 . S
O2581 Eu2532 2.419 . S
O2581 C2596 1.249 . S
O2582 Eu2543 2.558 . S
O2582 C2607 1.257 . S
O2583 Eu2532 2.380 . S
O2583 Eu2543 2.612 . S
O2583 C2599 1.276 . S
O2584 Eu2532 2.432 . S
O2584 C2606 1.264 . S
O2585 Eu2543 2.339 . S
O2585 C2606 1.254 . S
O2586 Eu2543 2.563 . S
O2586 C2599 1.235 . S
O2587 Eu2543 2.419 . S
O2587 C2607 1.249 . S
C2588 O2577 1.276 . S
C2588 O2580 1.235 . S
C2589 C2591 1.393 . S
C2589 C2593 1.395 . S
C2589 C2596 1.492 . S
C2590 C2591 1.392 . S
C2590 C2592 1.386 . S
C2591 C2589 1.393 . S
C2591 C2590 1.392 . S
C2591 H2608 0.930 . S
C2592 C2590 1.386 . S
C2592 C2594 1.395 . S
C2592 H2609 0.930 . S
C2593 C2589 1.395 . S
C2593 C2594 1.379 . S
C2593 H2610 0.930 . S
C2594 C2592 1.395 . S
C2594 C2593 1.379 . S
C2594 H2611 0.930 . S
C2595 O2578 1.264 . S
C2595 O2579 1.254 . S
C2596 Eu2532 2.848 . S
C2596 O2576 1.257 . S
C2596 O2581 1.249 . S
C2596 C2589 1.492 . S
C2597 H2562 0.931 . S
C2597 C2575 1.420 . S
C2597 C2598 1.351 . S
C2598 H2560 0.930 . S
C2598 C2566 1.423 . S
C2598 C2597 1.351 . S
C2599 O2583 1.276 . S
C2599 O2586 1.235 . S
C2600 C2601 1.393 . S
C2600 C2604 1.395 . S
C2600 C2607 1.492 . S
C2601 C2600 1.393 . S
C2601 C2602 1.392 . S
C2601 H2612 0.930 . S
C2602 C2601 1.392 . S
C2602 C2603 1.386 . S
C2603 C2602 1.386 . S
C2603 C2605 1.395 . S
C2603 H2613 0.930 . S
C2604 C2600 1.395 . S
C2604 C2605 1.379 . S
C2604 H2614 0.930 . S
C2605 C2603 1.395 . S
C2605 C2604 1.379 . S
C2605 H2615 0.930 . S
C2606 O2584 1.264 . S
C2606 O2585 1.254 . S
C2607 Eu2543 2.848 . S
C2607 O2582 1.257 . S
C2607 O2587 1.249 . S
C2607 C2600 1.492 . S
H2608 C2591 0.930 . S
H2609 C2592 0.930 . S
H2610 C2593 0.930 . S
H2611 C2594 0.930 . S
H2612 C2601 0.930 . S
H2613 C2603 0.930 . S
H2614 C2604 0.930 . S
H2615 C2605 0.930 . S
Eu2616 N2647 2.657 . S
Eu2616 N2654 2.609 . S
Eu2616 O2660 2.558 . S
Eu2616 O2661 2.612 . S
Eu2616 O2663 2.339 . S
Eu2616 O2664 2.563 . S
Eu2616 O2665 2.419 . S
Eu2616 O2667 2.380 . S
Eu2616 O2668 2.458 . S
Eu2616 C2680 2.848 . S
C2617 C2620 1.429 . S
C2617 C2621 1.411 . S
C2617 N2624 1.377 . S
C2618 C2620 1.420 . S
C2618 C2622 1.423 . S
C2618 C2630 1.392 1_545 S
C2619 C2621 1.420 . S
C2619 C2622 1.351 . S
C2619 H2642 0.931 . S
C2620 C2617 1.429 . S
C2620 C2618 1.420 . S
C2620 N2628 1.362 . S
C2621 C2617 1.411 . S
C2621 C2619 1.420 . S
C2621 C2626 1.395 . S
C2622 C2618 1.423 . S
C2622 C2619 1.351 . S
C2622 H2634 0.930 . S
C2623 C2625 1.400 . S
C2623 C2626 1.386 . S
C2623 H2635 0.930 . S
N2624 C2617 1.377 . S
N2624 C2625 1.321 . S
N2624 Eu2627 2.609 . S
C2625 C2623 1.400 . S
C2625 N2624 1.321 . S
C2625 H2632 0.930 . S
C2626 C2621 1.395 . S
C2626 C2623 1.386 . S
C2626 H2645 0.930 . S
Eu2627 N2624 2.609 . S
Eu2627 N2628 2.657 . S
Eu2627 O2661 2.380 1_556 S
Eu2627 O2662 2.432 1_556 S
Eu2627 O2666 2.558 . S
Eu2627 O2667 2.612 1_556 S
Eu2627 O2669 2.339 . S
Eu2627 O2670 2.563 . S
Eu2627 O2671 2.419 . S
Eu2627 C2691 2.848 . S
N2628 C2620 1.362 . S
N2628 Eu2627 2.657 . S
N2628 C2629 1.336 1_545 S
C2629 N2628 1.336 1_565 S
C2629 C2631 1.413 . S
C2629 H2636 0.927 . S
C2630 C2618 1.392 1_565 S
C2630 C2631 1.367 . S
C2630 H2638 0.930 . S
C2631 C2629 1.413 . S
C2631 C2630 1.367 . S
C2631 H2633 0.930 . S
H2632 C2625 0.930 . S
H2633 C2631 0.930 . S
H2634 C2622 0.930 . S
H2635 C2623 0.930 . S
H2636 C2629 0.927 . S
H2637 C2651 0.930 . S
H2638 C2630 0.930 . S
H2639 C2657 0.930 . S
H2640 C2648 0.929 . S
H2641 C2655 0.930 . S
H2642 C2619 0.931 . S
H2643 C2649 0.930 . S
H2644 C2682 0.930 . S
H2645 C2626 0.930 . S
H2646 C2681 0.931 . S
N2647 Eu2616 2.657 . S
N2647 C2648 1.334 . S
N2647 C2652 1.362 . S
C2648 H2640 0.929 . S
C2648 N2647 1.334 . S
C2648 C2651 1.413 . S
C2649 H2643 0.930 . S
C2649 C2650 1.392 . S
C2649 C2651 1.367 . S
C2650 C2649 1.392 . S
C2650 C2652 1.420 . S
C2650 C2682 1.423 . S
C2651 H2637 0.930 . S
C2651 C2648 1.413 . S
C2651 C2649 1.367 . S
C2652 N2647 1.362 . S
C2652 C2650 1.420 . S
C2652 C2656 1.429 . S
H2653 C2658 0.930 . S
N2654 Eu2616 2.609 . S
N2654 C2656 1.377 . S
N2654 C2657 1.321 1_545 S
C2655 H2641 0.930 . S
C2655 C2657 1.400 . S
C2655 C2658 1.386 . S
C2656 C2652 1.429 . S
C2656 N2654 1.377 . S
C2656 C2659 1.411 . S
C2657 H2639 0.930 . S
C2657 N2654 1.321 1_565 S
C2657 C2655 1.400 . S
C2658 H2653 0.930 . S
C2658 C2655 1.386 . S
C2658 C2659 1.395 1_565 S
C2659 C2656 1.411 . S
C2659 C2658 1.395 1_545 S
C2659 C2681 1.420 . S
O2660 Eu2616 2.558 . S
O2660 C2680 1.257 . S
O2661 Eu2616 2.612 . S
O2661 Eu2627 2.380 1_554 S
O2661 C2672 1.276 . S
O2662 Eu2627 2.432 1_554 S
O2662 C2679 1.264 . S
O2663 Eu2616 2.339 . S
O2663 C2679 1.254 . S
O2664 Eu2616 2.563 . S
O2664 C2672 1.235 . S
O2665 Eu2616 2.419 . S
O2665 C2680 1.249 . S
O2666 Eu2627 2.558 . S
O2666 C2691 1.257 . S
O2667 Eu2616 2.380 . S
O2667 Eu2627 2.612 1_554 S
O2667 C2683 1.276 . S
O2668 Eu2616 2.458 . S
O2668 C2690 1.274 . S
O2669 Eu2627 2.339 . S
O2669 C2690 1.253 1_556 S
O2670 Eu2627 2.563 . S
O2670 C2683 1.235 1_556 S
O2671 Eu2627 2.419 . S
O2671 C2691 1.249 . S
C2672 O2661 1.276 . S
C2672 O2664 1.235 . S
C2673 C2675 1.393 . S
C2673 C2677 1.395 1_545 S
C2673 C2680 1.492 . S
C2674 C2675 1.392 . S
C2674 C2676 1.386 . S
C2675 C2673 1.393 . S
C2675 C2674 1.392 . S
C2675 H2692 0.930 . S
C2676 C2674 1.386 . S
C2676 C2678 1.395 1_545 S
C2676 H2693 0.926 1_545 S
C2677 C2673 1.395 1_565 S
C2677 C2678 1.379 . S
C2677 H2694 0.930 . S
C2678 C2676 1.395 1_565 S
C2678 C2677 1.379 . S
C2678 H2695 0.930 . S
C2679 O2662 1.264 . S
C2679 O2663 1.254 . S
C2680 Eu2616 2.848 . S
C2680 O2660 1.257 . S
C2680 O2665 1.249 . S
C2680 C2673 1.492 . S
C2681 H2646 0.931 . S
C2681 C2659 1.420 . S
C2681 C2682 1.351 . S
C2682 H2644 0.930 . S
C2682 C2650 1.423 . S
C2682 C2681 1.351 . S
C2683 O2667 1.276 . S
C2683 O2670 1.235 1_554 S
C2684 C2685 1.393 . S
C2684 C2688 1.395 . S
C2684 C2691 1.492 . S
C2685 C2684 1.393 . S
C2685 C2686 1.392 . S
C2685 H2696 0.930 . S
C2686 C2685 1.392 . S
C2686 C2687 1.386 . S
C2687 C2686 1.386 . S
C2687 C2689 1.395 . S
C2687 H2697 0.930 . S
C2688 C2684 1.395 . S
C2688 C2689 1.379 . S
C2688 H2698 0.930 . S
C2689 C2687 1.395 . S
C2689 C2688 1.379 . S
C2689 H2699 0.930 . S
C2690 O2668 1.274 . S
C2690 O2669 1.253 1_554 S
C2691 Eu2627 2.848 . S
C2691 O2666 1.257 . S
C2691 O2671 1.249 . S
C2691 C2684 1.492 . S
H2692 C2675 0.930 . S
H2693 C2676 0.926 1_565 S
H2694 C2677 0.930 . S
H2695 C2678 0.930 . S
H2696 C2685 0.930 . S
H2697 C2687 0.930 . S
H2698 C2688 0.930 . S
H2699 C2689 0.930 . S
Eu2700 N2731 2.657 . S
Eu2700 N2738 2.609 . S
Eu2700 O2744 2.558 . S
Eu2700 O2745 2.612 . S
Eu2700 O2747 2.339 . S
Eu2700 O2748 2.563 . S
Eu2700 O2749 2.419 . S
Eu2700 O2751 2.380 . S
Eu2700 O2752 2.432 . S
Eu2700 C2764 2.848 . S
C2701 C2704 1.429 . S
C2701 C2705 1.411 . S
C2701 N2708 1.377 . S
C2702 C2704 1.420 . S
C2702 C2706 1.423 . S
C2702 C2714 1.392 . S
C2703 C2705 1.420 . S
C2703 C2706 1.351 . S
C2703 H2726 0.931 . S
C2704 C2701 1.429 . S
C2704 C2702 1.420 . S
C2704 N2712 1.362 . S
C2705 C2701 1.411 . S
C2705 C2703 1.420 . S
C2705 C2710 1.395 . S
C2706 C2702 1.423 . S
C2706 C2703 1.351 . S
C2706 H2718 0.930 . S
C2707 C2709 1.400 . S
C2707 C2710 1.386 . S
C2707 H2719 0.930 . S
N2708 C2701 1.377 . S
N2708 C2709 1.321 . S
N2708 Eu2711 2.609 . S
C2709 C2707 1.400 . S
C2709 N2708 1.321 . S
C2709 H2716 0.930 . S
C2710 C2705 1.395 . S
C2710 C2707 1.386 . S
C2710 H2729 0.930 . S
Eu2711 N2708 2.609 . S
Eu2711 N2712 2.657 . S
Eu2711 O2745 2.380 . S
Eu2711 O2746 2.432 . S
Eu2711 O2750 2.558 . S
Eu2711 O2751 2.612 . S
Eu2711 O2753 2.339 . S
Eu2711 O2754 2.563 . S
Eu2711 O2755 2.419 . S
Eu2711 C2775 2.848 . S
N2712 C2704 1.362 . S
N2712 Eu2711 2.657 . S
N2712 C2713 1.334 . S
C2713 N2712 1.334 . S
C2713 C2715 1.413 . S
C2713 H2720 0.929 . S
C2714 C2702 1.392 . S
C2714 C2715 1.367 . S
C2714 H2722 0.930 . S
C2715 C2713 1.413 . S
C2715 C2714 1.367 . S
C2715 H2717 0.930 . S
H2716 C2709 0.930 . S
H2717 C2715 0.930 . S
H2718 C2706 0.930 . S
H2719 C2707 0.930 . S
H2720 C2713 0.929 . S
H2721 C2735 0.930 . S
H2722 C2714 0.930 . S
H2723 C2741 0.930 . S
H2724 C2732 0.929 . S
H2725 C2739 0.930 . S
H2726 C2703 0.931 . S
H2727 C2733 0.930 . S
H2728 C2766 0.930 . S
H2729 C2710 0.930 . S
H2730 C2765 0.931 . S
N2731 Eu2700 2.657 . S
N2731 C2732 1.334 . S
N2731 C2736 1.362 . S
C2732 H2724 0.929 . S
C2732 N2731 1.334 . S
C2732 C2735 1.413 . S
C2733 H2727 0.930 . S
C2733 C2734 1.392 . S
C2733 C2735 1.367 . S
C2734 C2733 1.392 . S
C2734 C2736 1.420 . S
C2734 C2766 1.423 . S
C2735 H2721 0.930 . S
C2735 C2732 1.413 . S
C2735 C2733 1.367 . S
C2736 N2731 1.362 . S
C2736 C2734 1.420 . S
C2736 C2740 1.429 . S
H2737 C2742 0.930 . S
N2738 Eu2700 2.609 . S
N2738 C2740 1.377 . S
N2738 C2741 1.321 . S
C2739 H2725 0.930 . S
C2739 C2741 1.400 . S
C2739 C2742 1.386 . S
C2740 C2736 1.429 . S
C2740 N2738 1.377 . S
C2740 C2743 1.411 . S
C2741 H2723 0.930 . S
C2741 N2738 1.321 . S
C2741 C2739 1.400 . S
C2742 H2737 0.930 . S
C2742 C2739 1.386 . S
C2742 C2743 1.395 . S
C2743 C2740 1.411 . S
C2743 C2742 1.395 . S
C2743 C2765 1.420 . S
O2744 Eu2700 2.558 . S
O2744 C2764 1.257 . S
O2745 Eu2700 2.612 . S
O2745 Eu2711 2.380 . S
O2745 C2756 1.276 . S
O2746 Eu2711 2.432 . S
O2746 C2763 1.264 . S
O2747 Eu2700 2.339 . S
O2747 C2763 1.254 . S
O2748 Eu2700 2.563 . S
O2748 C2756 1.235 . S
O2749 Eu2700 2.419 . S
O2749 C2764 1.249 . S
O2750 Eu2711 2.558 . S
O2750 C2775 1.257 . S
O2751 Eu2700 2.380 . S
O2751 Eu2711 2.612 . S
O2751 C2767 1.276 . S
O2752 Eu2700 2.432 . S
O2752 C2774 1.264 . S
O2753 Eu2711 2.339 . S
O2753 C2774 1.254 . S
O2754 Eu2711 2.563 . S
O2754 C2767 1.235 . S
O2755 Eu2711 2.419 . S
O2755 C2775 1.249 . S
C2756 O2745 1.276 . S
C2756 O2748 1.235 . S
C2757 C2759 1.393 . S
C2757 C2761 1.395 . S
C2757 C2764 1.492 . S
C2758 C2759 1.392 . S
C2758 C2760 1.386 . S
C2759 C2757 1.393 . S
C2759 C2758 1.392 . S
C2759 H2776 0.930 . S
C2760 C2758 1.386 . S
C2760 C2762 1.395 . S
C2760 H2777 0.930 . S
C2761 C2757 1.395 . S
C2761 C2762 1.379 . S
C2761 H2778 0.930 . S
C2762 C2760 1.395 . S
C2762 C2761 1.379 . S
C2762 H2779 0.930 . S
C2763 O2746 1.264 . S
C2763 O2747 1.254 . S
C2764 Eu2700 2.848 . S
C2764 O2744 1.257 . S
C2764 O2749 1.249 . S
C2764 C2757 1.492 . S
C2765 H2730 0.931 . S
C2765 C2743 1.420 . S
C2765 C2766 1.351 . S
C2766 H2728 0.930 . S
C2766 C2734 1.423 . S
C2766 C2765 1.351 . S
C2767 O2751 1.276 . S
C2767 O2754 1.235 . S
C2768 C2769 1.393 . S
C2768 C2772 1.395 . S
C2768 C2775 1.492 . S
C2769 C2768 1.393 . S
C2769 C2770 1.392 . S
C2769 H2780 0.930 . S
C2770 C2769 1.392 . S
C2770 C2771 1.386 . S
C2771 C2770 1.386 . S
C2771 C2773 1.395 . S
C2771 H2781 0.930 . S
C2772 C2768 1.395 . S
C2772 C2773 1.379 . S
C2772 H2782 0.930 . S
C2773 C2771 1.395 . S
C2773 C2772 1.379 . S
C2773 H2783 0.930 . S
C2774 O2752 1.264 . S
C2774 O2753 1.254 . S
C2775 Eu2711 2.848 . S
C2775 O2750 1.257 . S
C2775 O2755 1.249 . S
C2775 C2768 1.492 . S
H2776 C2759 0.930 . S
H2777 C2760 0.930 . S
H2778 C2761 0.930 . S
H2779 C2762 0.930 . S
H2780 C2769 0.930 . S
H2781 C2771 0.930 . S
H2782 C2772 0.930 . S
H2783 C2773 0.930 . S
Eu2784 N2815 2.657 . S
Eu2784 N2822 2.609 . S
Eu2784 O2828 2.558 . S
Eu2784 O2829 2.612 1_554 S
Eu2784 O2831 2.339 . S
Eu2784 O2832 2.563 1_554 S
Eu2784 O2833 2.419 . S
Eu2784 O2835 2.380 . S
Eu2784 O2836 2.432 . S
Eu2784 C2848 2.848 . S
C2785 C2788 1.429 . S
C2785 C2789 1.411 . S
C2785 N2792 1.377 . S
C2786 C2788 1.420 . S
C2786 C2790 1.423 . S
C2786 C2798 1.392 . S
C2787 C2789 1.420 . S
C2787 C2790 1.351 . S
C2787 H2810 0.931 . S
C2788 C2785 1.429 . S
C2788 C2786 1.420 . S
C2788 N2796 1.362 . S
C2789 C2785 1.411 . S
C2789 C2787 1.420 . S
C2789 C2794 1.395 . S
C2790 C2786 1.423 . S
C2790 C2787 1.351 . S
C2790 H2802 0.930 . S
C2791 C2793 1.400 . S
C2791 C2794 1.386 . S
C2791 H2803 0.930 . S
N2792 C2785 1.377 . S
N2792 C2793 1.321 . S
N2792 Eu2795 2.609 1_556 S
C2793 C2791 1.400 . S
C2793 N2792 1.321 . S
C2793 H2800 0.930 . S
C2794 C2789 1.395 . S
C2794 C2791 1.386 . S
C2794 H2813 0.930 . S
Eu2795 N2792 2.609 1_554 S
Eu2795 N2796 2.657 1_554 S
Eu2795 O2829 2.380 1_554 S
Eu2795 O2830 2.432 . S
Eu2795 O2834 2.558 . S
Eu2795 O2835 2.612 . S
Eu2795 O2837 2.339 . S
Eu2795 O2838 2.563 . S
Eu2795 O2839 2.419 . S
Eu2795 C2859 2.848 . S
N2796 C2788 1.362 . S
N2796 Eu2795 2.657 1_556 S
N2796 C2797 1.334 . S
C2797 N2796 1.334 . S
C2797 C2799 1.413 . S
C2797 H2804 0.929 . S
C2798 C2786 1.392 . S
C2798 C2799 1.367 . S
C2798 H2806 0.930 . S
C2799 C2797 1.413 . S
C2799 C2798 1.367 . S
C2799 H2801 0.930 . S
H2800 C2793 0.930 . S
H2801 C2799 0.930 . S
H2802 C2790 0.930 . S
H2803 C2791 0.930 . S
H2804 C2797 0.929 . S
H2805 C2819 0.930 . S
H2806 C2798 0.930 . S
H2807 C2825 0.930 . S
H2808 C2816 0.929 . S
H2809 C2823 0.930 . S
H2810 C2787 0.931 . S
H2811 C2817 0.930 . S
H2812 C2850 0.930 . S
H2813 C2794 0.930 . S
H2814 C2849 0.931 . S
N2815 Eu2784 2.657 . S
N2815 C2816 1.334 . S
N2815 C2820 1.362 . S
C2816 H2808 0.929 . S
C2816 N2815 1.334 . S
C2816 C2819 1.413 . S
C2817 H2811 0.930 . S
C2817 C2818 1.392 . S
C2817 C2819 1.367 . S
C2818 C2817 1.392 . S
C2818 C2820 1.420 . S
C2818 C2850 1.423 . S
C2819 H2805 0.930 . S
C2819 C2816 1.413 . S
C2819 C2817 1.367 . S
C2820 N2815 1.362 . S
C2820 C2818 1.420 . S
C2820 C2824 1.429 . S
H2821 C2826 0.930 . S
N2822 Eu2784 2.609 . S
N2822 C2824 1.377 . S
N2822 C2825 1.321 . S
C2823 H2809 0.930 . S
C2823 C2825 1.400 . S
C2823 C2826 1.386 . S
C2824 C2820 1.429 . S
C2824 N2822 1.377 . S
C2824 C2827 1.411 . S
C2825 H2807 0.930 . S
C2825 N2822 1.321 . S
C2825 C2823 1.400 . S
C2826 H2821 0.930 . S
C2826 C2823 1.386 . S
C2826 C2827 1.395 . S
C2827 C2824 1.411 . S
C2827 C2826 1.395 . S
C2827 C2849 1.420 . S
O2828 Eu2784 2.558 . S
O2828 C2848 1.257 . S
O2829 Eu2784 2.612 1_556 S
O2829 Eu2795 2.380 1_556 S
O2829 C2840 1.276 . S
O2830 Eu2795 2.432 . S
O2830 C2847 1.264 . S
O2831 Eu2784 2.339 . S
O2831 C2847 1.254 . S
O2832 Eu2784 2.563 1_556 S
O2832 C2840 1.235 . S
O2833 Eu2784 2.419 . S
O2833 C2848 1.249 . S
O2834 Eu2795 2.558 . S
O2834 C2859 1.257 . S
O2835 Eu2784 2.380 . S
O2835 Eu2795 2.612 . S
O2835 C2851 1.276 . S
O2836 Eu2784 2.432 . S
O2836 C2858 1.264 . S
O2837 Eu2795 2.339 . S
O2837 C2858 1.254 . S
O2838 Eu2795 2.563 . S
O2838 C2851 1.235 . S
O2839 Eu2795 2.419 . S
O2839 C2859 1.249 . S
C2840 O2829 1.276 . S
C2840 O2832 1.235 . S
C2841 C2843 1.393 . S
C2841 C2845 1.395 . S
C2841 C2848 1.492 . S
C2842 C2843 1.392 1_556 S
C2842 C2844 1.386 1_556 S
C2843 C2841 1.393 . S
C2843 C2842 1.392 1_554 S
C2843 H2860 0.936 . S
C2844 C2842 1.386 1_554 S
C2844 C2846 1.395 . S
C2844 H2861 0.930 . S
C2845 C2841 1.395 . S
C2845 C2846 1.379 . S
C2845 H2862 0.930 . S
C2846 C2844 1.395 . S
C2846 C2845 1.379 . S
C2846 H2863 0.930 . S
C2847 O2830 1.264 . S
C2847 O2831 1.254 . S
C2848 Eu2784 2.848 . S
C2848 O2828 1.257 . S
C2848 O2833 1.249 . S
C2848 C2841 1.492 . S
C2849 H2814 0.931 . S
C2849 C2827 1.420 . S
C2849 C2850 1.351 . S
C2850 H2812 0.930 . S
C2850 C2818 1.423 . S
C2850 C2849 1.351 . S
C2851 O2835 1.276 . S
C2851 O2838 1.235 . S
C2852 C2853 1.393 . S
C2852 C2856 1.395 . S
C2852 C2859 1.492 . S
C2853 C2852 1.393 . S
C2853 C2854 1.392 . S
C2853 H2864 0.930 . S
C2854 C2853 1.392 . S
C2854 C2855 1.386 . S
C2855 C2854 1.386 . S
C2855 C2857 1.395 . S
C2855 H2865 0.930 . S
C2856 C2852 1.395 . S
C2856 C2857 1.379 . S
C2856 H2866 0.930 . S
C2857 C2855 1.395 . S
C2857 C2856 1.379 . S
C2857 H2867 0.930 . S
C2858 O2836 1.264 . S
C2858 O2837 1.254 . S
C2859 Eu2795 2.848 . S
C2859 O2834 1.257 . S
C2859 O2839 1.249 . S
C2859 C2852 1.492 . S
H2860 C2843 0.936 . S
H2861 C2844 0.930 . S
H2862 C2845 0.930 . S
H2863 C2846 0.930 . S
H2864 C2853 0.930 . S
H2865 C2855 0.930 . S
H2866 C2856 0.930 . S
H2867 C2857 0.930 . S
Eu2868 N2899 2.657 . S
Eu2868 N2906 2.609 . S
Eu2868 O2912 2.558 . S
Eu2868 O2913 2.612 . S
Eu2868 O2915 2.339 . S
Eu2868 O2916 2.563 . S
Eu2868 O2917 2.419 . S
Eu2868 O2919 2.380 . S
Eu2868 O2920 2.432 . S
Eu2868 C2932 2.848 . S
C2869 C2872 1.429 . S
C2869 C2873 1.411 . S
C2869 N2876 1.377 . S
C2870 C2872 1.420 . S
C2870 C2874 1.423 . S
C2870 C2882 1.392 . S
C2871 C2873 1.420 . S
C2871 C2874 1.351 . S
C2871 H2894 0.931 . S
C2872 C2869 1.429 . S
C2872 C2870 1.420 . S
C2872 N2880 1.362 . S
C2873 C2869 1.411 . S
C2873 C2871 1.420 . S
C2873 C2878 1.395 . S
C2874 C2870 1.423 . S
C2874 C2871 1.351 . S
C2874 H2886 0.930 . S
C2875 C2877 1.400 . S
C2875 C2878 1.386 . S
C2875 H2887 0.930 . S
N2876 C2869 1.377 . S
N2876 C2877 1.321 . S
N2876 Eu2879 2.609 . S
C2877 C2875 1.400 . S
C2877 N2876 1.321 . S
C2877 H2884 0.930 . S
C2878 C2873 1.395 . S
C2878 C2875 1.386 . S
C2878 H2897 0.930 . S
Eu2879 N2876 2.609 . S
Eu2879 N2880 2.657 . S
Eu2879 O2913 2.380 . S
Eu2879 O2914 2.432 . S
Eu2879 O2918 2.558 . S
Eu2879 O2919 2.612 . S
Eu2879 O2921 2.339 . S
Eu2879 O2922 2.563 . S
Eu2879 O2923 2.419 . S
Eu2879 C2943 2.848 . S
N2880 C2872 1.362 . S
N2880 Eu2879 2.657 . S
N2880 C2881 1.334 . S
C2881 N2880 1.334 . S
C2881 C2883 1.413 . S
C2881 H2888 0.929 . S
C2882 C2870 1.392 . S
C2882 C2883 1.367 . S
C2882 H2890 0.930 . S
C2883 C2881 1.413 . S
C2883 C2882 1.367 . S
C2883 H2885 0.930 . S
H2884 C2877 0.930 . S
H2885 C2883 0.930 . S
H2886 C2874 0.930 . S
H2887 C2875 0.930 . S
H2888 C2881 0.929 . S
H2889 C2903 0.930 . S
H2890 C2882 0.930 . S
H2891 C2909 0.930 . S
H2892 C2900 0.929 . S
H2893 C2907 0.930 . S
H2894 C2871 0.931 . S
H2895 C2901 0.930 . S
H2896 C2934 0.930 . S
H2897 C2878 0.930 . S
H2898 C2933 0.931 . S
N2899 Eu2868 2.657 . S
N2899 C2900 1.334 . S
N2899 C2904 1.362 . S
C2900 H2892 0.929 . S
C2900 N2899 1.334 . S
C2900 C2903 1.413 . S
C2901 H2895 0.930 . S
C2901 C2902 1.392 . S
C2901 C2903 1.367 . S
C2902 C2901 1.392 . S
C2902 C2904 1.420 . S
C2902 C2934 1.423 . S
C2903 H2889 0.930 . S
C2903 C2900 1.413 . S
C2903 C2901 1.367 . S
C2904 N2899 1.362 . S
C2904 C2902 1.420 . S
C2904 C2908 1.429 . S
H2905 C2910 0.930 . S
N2906 Eu2868 2.609 . S
N2906 C2908 1.377 . S
N2906 C2909 1.321 . S
C2907 H2893 0.930 . S
C2907 C2909 1.400 . S
C2907 C2910 1.386 . S
C2908 C2904 1.429 . S
C2908 N2906 1.377 . S
C2908 C2911 1.411 . S
C2909 H2891 0.930 . S
C2909 N2906 1.321 . S
C2909 C2907 1.400 . S
C2910 H2905 0.930 . S
C2910 C2907 1.386 . S
C2910 C2911 1.395 . S
C2911 C2908 1.411 . S
C2911 C2910 1.395 . S
C2911 C2933 1.420 . S
O2912 Eu2868 2.558 . S
O2912 C2932 1.257 . S
O2913 Eu2868 2.612 . S
O2913 Eu2879 2.380 . S
O2913 C2924 1.276 . S
O2914 Eu2879 2.432 . S
O2914 C2931 1.264 . S
O2915 Eu2868 2.339 . S
O2915 C2931 1.254 . S
O2916 Eu2868 2.563 . S
O2916 C2924 1.235 . S
O2917 Eu2868 2.419 . S
O2917 C2932 1.249 . S
O2918 Eu2879 2.558 . S
O2918 C2943 1.257 . S
O2919 Eu2868 2.380 . S
O2919 Eu2879 2.612 . S
O2919 C2935 1.276 . S
O2920 Eu2868 2.432 . S
O2920 C2942 1.264 . S
O2921 Eu2879 2.339 . S
O2921 C2942 1.254 . S
O2922 Eu2879 2.563 . S
O2922 C2935 1.235 . S
O2923 Eu2879 2.419 . S
O2923 C2943 1.249 . S
C2924 O2913 1.276 . S
C2924 O2916 1.235 . S
C2925 C2927 1.393 . S
C2925 C2929 1.395 . S
C2925 C2932 1.492 . S
C2926 C2927 1.392 . S
C2926 C2928 1.386 . S
C2927 C2925 1.393 . S
C2927 C2926 1.392 . S
C2927 H2944 0.930 . S
C2928 C2926 1.386 . S
C2928 C2930 1.395 . S
C2928 H2945 0.930 . S
C2929 C2925 1.395 . S
C2929 C2930 1.379 . S
C2929 H2946 0.930 . S
C2930 C2928 1.395 . S
C2930 C2929 1.379 . S
C2930 H2947 0.930 . S
C2931 O2914 1.264 . S
C2931 O2915 1.254 . S
C2932 Eu2868 2.848 . S
C2932 O2912 1.257 . S
C2932 O2917 1.249 . S
C2932 C2925 1.492 . S
C2933 H2898 0.931 . S
C2933 C2911 1.420 . S
C2933 C2934 1.351 . S
C2934 H2896 0.930 . S
C2934 C2902 1.423 . S
C2934 C2933 1.351 . S
C2935 O2919 1.276 . S
C2935 O2922 1.235 . S
C2936 C2937 1.393 . S
C2936 C2940 1.395 . S
C2936 C2943 1.492 . S
C2937 C2936 1.393 . S
C2937 C2938 1.392 . S
C2937 H2948 0.930 . S
C2938 C2937 1.392 . S
C2938 C2939 1.386 . S
C2939 C2938 1.386 . S
C2939 C2941 1.395 . S
C2939 H2949 0.930 . S
C2940 C2936 1.395 . S
C2940 C2941 1.379 . S
C2940 H2950 0.930 . S
C2941 C2939 1.395 . S
C2941 C2940 1.379 . S
C2941 H2951 0.930 . S
C2942 O2920 1.264 . S
C2942 O2921 1.254 . S
C2943 Eu2879 2.848 . S
C2943 O2918 1.257 . S
C2943 O2923 1.249 . S
C2943 C2936 1.492 . S
H2944 C2927 0.930 . S
H2945 C2928 0.930 . S
H2946 C2929 0.930 . S
H2947 C2930 0.930 . S
H2948 C2937 0.930 . S
H2949 C2939 0.930 . S
H2950 C2940 0.930 . S
H2951 C2941 0.930 . S
Eu2952 N2983 2.657 . S
Eu2952 N2990 2.609 . S
Eu2952 O2996 2.558 . S
Eu2952 O2997 2.612 . S
Eu2952 O2999 2.339 . S
Eu2952 O3000 2.563 . S
Eu2952 O3001 2.419 . S
Eu2952 O3003 2.380 . S
Eu2952 O3004 2.432 . S
Eu2952 C3016 2.848 . S
C2953 C2956 1.429 . S
C2953 C2957 1.411 1_455 S
C2953 N2960 1.377 . S
C2954 C2956 1.420 1_655 S
C2954 C2958 1.423 . S
C2954 C2966 1.392 . S
C2955 C2957 1.420 . S
C2955 C2958 1.351 . S
C2955 H2978 0.931 . S
C2956 C2953 1.429 . S
C2956 C2954 1.420 1_455 S
C2956 N2964 1.362 . S
C2957 C2953 1.411 1_655 S
C2957 C2955 1.420 . S
C2957 C2962 1.395 . S
C2958 C2954 1.423 . S
C2958 C2955 1.351 . S
C2958 H2970 0.930 . S
C2959 C2961 1.400 . S
C2959 C2962 1.386 1_455 S
C2959 H2971 0.930 . S
N2960 C2953 1.377 . S
N2960 C2961 1.321 . S
N2960 Eu2963 2.609 . S
C2961 C2959 1.400 . S
C2961 N2960 1.321 . S
C2961 H2968 0.930 . S
C2962 C2957 1.395 . S
C2962 C2959 1.386 1_655 S
C2962 H2981 0.930 . S
Eu2963 N2960 2.609 . S
Eu2963 N2964 2.657 . S
Eu2963 O2997 2.380 . S
Eu2963 O2998 2.432 . S
Eu2963 O3002 2.558 . S
Eu2963 O3003 2.612 . S
Eu2963 O3005 2.339 . S
Eu2963 O3006 2.563 . S
Eu2963 O3007 2.419 . S
Eu2963 C3027 2.848 . S
N2964 C2956 1.362 . S
N2964 Eu2963 2.657 . S
N2964 C2965 1.334 . S
C2965 N2964 1.334 . S
C2965 C2967 1.391 1_455 S
C2965 H2972 0.929 . S
C2966 C2954 1.392 . S
C2966 C2967 1.395 . S
C2966 H2974 0.930 . S
C2967 C2965 1.391 1_655 S
C2967 C2966 1.395 . S
C2967 H2969 0.926 . S
H2968 C2961 0.930 . S
H2969 C2967 0.926 . S
H2970 C2958 0.930 . S
H2971 C2959 0.930 . S
H2972 C2965 0.929 . S
H2973 C2987 0.930 . S
H2974 C2966 0.930 . S
H2975 C2993 0.930 . S
H2976 C2984 0.929 . S
H2977 C2991 0.930 . S
H2978 C2955 0.931 . S
H2979 C2985 0.930 . S
H2980 C3018 0.930 . S
H2981 C2962 0.930 . S
H2982 C3017 0.931 . S
N2983 Eu2952 2.657 . S
N2983 C2984 1.334 . S
N2983 C2988 1.362 . S
C2984 H2976 0.929 . S
C2984 N2983 1.334 . S
C2984 C2987 1.413 . S
C2985 H2979 0.930 . S
C2985 C2986 1.392 . S
C2985 C2987 1.367 . S
C2986 C2985 1.392 . S
C2986 C2988 1.420 . S
C2986 C3018 1.423 . S
C2987 H2973 0.930 . S
C2987 C2984 1.413 . S
C2987 C2985 1.367 . S
C2988 N2983 1.362 . S
C2988 C2986 1.420 . S
C2988 C2992 1.429 . S
H2989 C2994 0.930 . S
N2990 Eu2952 2.609 . S
N2990 C2992 1.377 . S
N2990 C2993 1.321 . S
C2991 H2977 0.930 . S
C2991 C2993 1.400 . S
C2991 C2994 1.386 . S
C2992 C2988 1.429 . S
C2992 N2990 1.377 . S
C2992 C2995 1.411 . S
C2993 H2975 0.930 . S
C2993 N2990 1.321 . S
C2993 C2991 1.400 . S
C2994 H2989 0.930 . S
C2994 C2991 1.386 . S
C2994 C2995 1.395 . S
C2995 C2992 1.411 . S
C2995 C2994 1.395 . S
C2995 C3017 1.420 . S
O2996 Eu2952 2.558 . S
O2996 C3016 1.257 . S
O2997 Eu2952 2.612 . S
O2997 Eu2963 2.380 . S
O2997 C3008 1.276 . S
O2998 Eu2963 2.432 . S
O2998 C3015 1.264 . S
O2999 Eu2952 2.339 . S
O2999 C3015 1.254 . S
O3000 Eu2952 2.563 . S
O3000 C3008 1.235 . S
O3001 Eu2952 2.419 . S
O3001 C3016 1.249 . S
O3002 Eu2963 2.558 . S
O3002 C3027 1.257 . S
O3003 Eu2952 2.380 . S
O3003 Eu2963 2.612 . S
O3003 C3019 1.276 . S
O3004 Eu2952 2.432 . S
O3004 C3026 1.264 . S
O3005 Eu2963 2.339 . S
O3005 C3026 1.254 . S
O3006 Eu2963 2.563 . S
O3006 C3019 1.235 . S
O3007 Eu2963 2.419 . S
O3007 C3027 1.249 . S
C3008 O2997 1.276 . S
C3008 O3000 1.235 . S
C3009 C3011 1.393 . S
C3009 C3013 1.395 . S
C3009 C3016 1.492 . S
C3010 C3011 1.392 . S
C3010 C3012 1.386 . S
C3011 C3009 1.393 . S
C3011 C3010 1.392 . S
C3011 H3028 0.930 . S
C3012 C3010 1.386 . S
C3012 C3014 1.395 . S
C3012 H3029 0.930 . S
C3013 C3009 1.395 . S
C3013 C3014 1.379 . S
C3013 H3030 0.930 . S
C3014 C3012 1.395 . S
C3014 C3013 1.379 . S
C3014 H3031 0.930 . S
C3015 O2998 1.264 . S
C3015 O2999 1.254 . S
C3016 Eu2952 2.848 . S
C3016 O2996 1.257 . S
C3016 O3001 1.249 . S
C3016 C3009 1.492 . S
C3017 H2982 0.931 . S
C3017 C2995 1.420 . S
C3017 C3018 1.351 . S
C3018 H2980 0.930 . S
C3018 C2986 1.423 . S
C3018 C3017 1.351 . S
C3019 O3003 1.276 . S
C3019 O3006 1.235 . S
C3020 C3021 1.393 . S
C3020 C3024 1.395 . S
C3020 C3027 1.492 . S
C3021 C3020 1.393 . S
C3021 C3022 1.392 . S
C3021 H3032 0.930 . S
C3022 C3021 1.392 . S
C3022 C3023 1.386 . S
C3023 C3022 1.386 . S
C3023 C3025 1.395 . S
C3023 H3033 0.930 . S
C3024 C3020 1.395 . S
C3024 C3025 1.379 . S
C3024 H3034 0.930 . S
C3025 C3023 1.395 . S
C3025 C3024 1.379 . S
C3025 H3035 0.930 . S
C3026 O3004 1.264 . S
C3026 O3005 1.254 . S
C3027 Eu2963 2.848 . S
C3027 O3002 1.257 . S
C3027 O3007 1.249 . S
C3027 C3020 1.492 . S
H3028 C3011 0.930 . S
H3029 C3012 0.930 . S
H3030 C3013 0.930 . S
H3031 C3014 0.930 . S
H3032 C3021 0.930 . S
H3033 C3023 0.930 . S
H3034 C3024 0.930 . S
H3035 C3025 0.930 . S
Eu3036 N3067 2.657 . S
Eu3036 N3074 2.609 . S
Eu3036 O3080 2.558 . S
Eu3036 O3081 2.612 . S
Eu3036 O3083 2.339 . S
Eu3036 O3084 2.563 . S
Eu3036 O3085 2.419 . S
Eu3036 O3087 2.380 . S
Eu3036 O3088 2.432 . S
Eu3036 C3100 2.848 . S
C3037 C3040 1.429 . S
C3037 C3041 1.411 . S
C3037 N3044 1.377 . S
C3038 C3040 1.420 . S
C3038 C3042 1.423 . S
C3038 C3050 1.392 . S
C3039 C3041 1.420 . S
C3039 C3042 1.351 . S
C3039 H3062 0.931 . S
C3040 C3037 1.429 . S
C3040 C3038 1.420 . S
C3040 N3048 1.362 . S
C3041 C3037 1.411 . S
C3041 C3039 1.420 . S
C3041 C3046 1.395 . S
C3042 C3038 1.423 . S
C3042 C3039 1.351 . S
C3042 H3054 0.930 . S
C3043 C3045 1.400 . S
C3043 C3046 1.386 . S
C3043 H3055 0.930 . S
N3044 C3037 1.377 . S
N3044 C3045 1.321 . S
N3044 Eu3047 2.609 . S
C3045 C3043 1.400 . S
C3045 N3044 1.321 . S
C3045 H3052 0.930 . S
C3046 C3041 1.395 . S
C3046 C3043 1.386 . S
C3046 H3065 0.930 . S
Eu3047 N3044 2.609 . S
Eu3047 N3048 2.657 . S
Eu3047 O3081 2.380 . S
Eu3047 O3082 2.432 . S
Eu3047 O3086 2.558 . S
Eu3047 O3087 2.612 . S
Eu3047 O3089 2.339 . S
Eu3047 O3090 2.563 . S
Eu3047 O3091 2.419 . S
Eu3047 C3111 2.848 . S
N3048 C3040 1.362 . S
N3048 Eu3047 2.657 . S
N3048 C3049 1.334 . S
C3049 N3048 1.334 . S
C3049 C3051 1.413 . S
C3049 H3056 0.929 . S
C3050 C3038 1.392 . S
C3050 C3051 1.367 . S
C3050 H3058 0.930 . S
C3051 C3049 1.413 . S
C3051 C3050 1.367 . S
C3051 H3053 0.930 . S
H3052 C3045 0.930 . S
H3053 C3051 0.930 . S
H3054 C3042 0.930 . S
H3055 C3043 0.930 . S
H3056 C3049 0.929 . S
H3057 C3071 0.930 . S
H3058 C3050 0.930 . S
H3059 C3077 0.930 . S
H3060 C3068 0.929 . S
H3061 C3075 0.930 . S
H3062 C3039 0.931 . S
H3063 C3069 0.930 . S
H3064 C3102 0.930 . S
H3065 C3046 0.930 . S
H3066 C3101 0.931 . S
N3067 Eu3036 2.657 . S
N3067 C3068 1.334 . S
N3067 C3072 1.362 . S
C3068 H3060 0.929 . S
C3068 N3067 1.334 . S
C3068 C3071 1.413 . S
C3069 H3063 0.930 . S
C3069 C3070 1.392 . S
C3069 C3071 1.367 . S
C3070 C3069 1.392 . S
C3070 C3072 1.420 . S
C3070 C3102 1.423 . S
C3071 H3057 0.930 . S
C3071 C3068 1.413 . S
C3071 C3069 1.367 . S
C3072 N3067 1.362 . S
C3072 C3070 1.420 . S
C3072 C3076 1.429 . S
H3073 C3078 0.930 . S
N3074 Eu3036 2.609 . S
N3074 C3076 1.377 . S
N3074 C3077 1.321 . S
C3075 H3061 0.930 . S
C3075 C3077 1.400 . S
C3075 C3078 1.386 . S
C3076 C3072 1.429 . S
C3076 N3074 1.377 . S
C3076 C3079 1.411 . S
C3077 H3059 0.930 . S
C3077 N3074 1.321 . S
C3077 C3075 1.400 . S
C3078 H3073 0.930 . S
C3078 C3075 1.386 . S
C3078 C3079 1.395 . S
C3079 C3076 1.411 . S
C3079 C3078 1.395 . S
C3079 C3101 1.420 . S
O3080 Eu3036 2.558 . S
O3080 C3100 1.257 . S
O3081 Eu3036 2.612 . S
O3081 Eu3047 2.380 . S
O3081 C3092 1.276 . S
O3082 Eu3047 2.432 . S
O3082 C3099 1.264 . S
O3083 Eu3036 2.339 . S
O3083 C3099 1.254 . S
O3084 Eu3036 2.563 . S
O3084 C3092 1.235 . S
O3085 Eu3036 2.419 . S
O3085 C3100 1.249 . S
O3086 Eu3047 2.558 . S
O3086 C3111 1.257 . S
O3087 Eu3036 2.380 . S
O3087 Eu3047 2.612 . S
O3087 C3103 1.276 . S
O3088 Eu3036 2.432 . S
O3088 C3110 1.264 . S
O3089 Eu3047 2.339 . S
O3089 C3110 1.254 . S
O3090 Eu3047 2.563 . S
O3090 C3103 1.235 . S
O3091 Eu3047 2.419 . S
O3091 C3111 1.249 . S
C3092 O3081 1.276 . S
C3092 O3084 1.235 . S
C3093 C3095 1.393 . S
C3093 C3097 1.395 . S
C3093 C3100 1.492 . S
C3094 C3095 1.392 . S
C3094 C3096 1.386 . S
C3095 C3093 1.393 . S
C3095 C3094 1.392 . S
C3095 H3112 0.930 . S
C3096 C3094 1.386 . S
C3096 C3098 1.395 . S
C3096 H3113 0.930 . S
C3097 C3093 1.395 . S
C3097 C3098 1.379 . S
C3097 H3114 0.930 . S
C3098 C3096 1.395 . S
C3098 C3097 1.379 . S
C3098 H3115 0.930 . S
C3099 O3082 1.264 . S
C3099 O3083 1.254 . S
C3100 Eu3036 2.848 . S
C3100 O3080 1.257 . S
C3100 O3085 1.249 . S
C3100 C3093 1.492 . S
C3101 H3066 0.931 . S
C3101 C3079 1.420 . S
C3101 C3102 1.351 . S
C3102 H3064 0.930 . S
C3102 C3070 1.423 . S
C3102 C3101 1.351 . S
C3103 O3087 1.276 . S
C3103 O3090 1.235 . S
C3104 C3105 1.393 . S
C3104 C3108 1.395 . S
C3104 C3111 1.492 . S
C3105 C3104 1.393 . S
C3105 C3106 1.392 . S
C3105 H3116 0.930 . S
C3106 C3105 1.392 . S
C3106 C3107 1.386 . S
C3107 C3106 1.386 . S
C3107 C3109 1.395 . S
C3107 H3117 0.930 . S
C3108 C3104 1.395 . S
C3108 C3109 1.379 . S
C3108 H3118 0.930 . S
C3109 C3107 1.395 . S
C3109 C3108 1.379 . S
C3109 H3119 0.930 . S
C3110 O3088 1.264 . S
C3110 O3089 1.254 . S
C3111 Eu3047 2.848 . S
C3111 O3086 1.257 . S
C3111 O3091 1.249 . S
C3111 C3104 1.492 . S
H3112 C3095 0.930 . S
H3113 C3096 0.930 . S
H3114 C3097 0.930 . S
H3115 C3098 0.930 . S
H3116 C3105 0.930 . S
H3117 C3107 0.930 . S
H3118 C3108 0.930 . S
H3119 C3109 0.930 . S
Eu3120 N3151 2.657 . S
Eu3120 N3158 2.609 . S
Eu3120 O3164 2.558 . S
Eu3120 O3165 2.612 . S
Eu3120 O3167 2.339 . S
Eu3120 O3168 2.563 . S
Eu3120 O3169 2.419 . S
Eu3120 O3171 2.380 . S
Eu3120 O3172 2.432 . S
Eu3120 C3184 2.848 . S
C3121 C3124 1.429 . S
C3121 C3125 1.411 . S
C3121 N3128 1.377 . S
C3122 C3124 1.420 . S
C3122 C3126 1.423 . S
C3122 C3134 1.392 . S
C3123 C3125 1.420 . S
C3123 C3126 1.351 . S
C3123 H3146 0.931 . S
C3124 C3121 1.429 . S
C3124 C3122 1.420 . S
C3124 N3132 1.362 . S
C3125 C3121 1.411 . S
C3125 C3123 1.420 . S
C3125 C3130 1.395 . S
C3126 C3122 1.423 . S
C3126 C3123 1.351 . S
C3126 H3138 0.930 . S
C3127 C3129 1.400 . S
C3127 C3130 1.386 . S
C3127 H3139 0.930 . S
N3128 C3121 1.377 . S
N3128 C3129 1.321 . S
N3128 Eu3131 2.609 . S
C3129 C3127 1.400 . S
C3129 N3128 1.321 . S
C3129 H3136 0.930 . S
C3130 C3125 1.395 . S
C3130 C3127 1.386 . S
C3130 H3149 0.930 . S
Eu3131 N3128 2.609 . S
Eu3131 N3132 2.657 . S
Eu3131 O3165 2.380 . S
Eu3131 O3166 2.432 . S
Eu3131 O3170 2.558 . S
Eu3131 O3171 2.612 . S
Eu3131 O3173 2.339 . S
Eu3131 O3174 2.563 . S
Eu3131 O3175 2.419 . S
Eu3131 C3195 2.848 . S
N3132 C3124 1.362 . S
N3132 Eu3131 2.657 . S
N3132 C3133 1.334 . S
C3133 N3132 1.334 . S
C3133 C3135 1.413 . S
C3133 H3140 0.929 . S
C3134 C3122 1.392 . S
C3134 C3135 1.367 . S
C3134 H3142 0.930 . S
C3135 C3133 1.413 . S
C3135 C3134 1.367 . S
C3135 H3137 0.930 . S
H3136 C3129 0.930 . S
H3137 C3135 0.930 . S
H3138 C3126 0.930 . S
H3139 C3127 0.930 . S
H3140 C3133 0.929 . S
H3141 C3155 0.930 . S
H3142 C3134 0.930 . S
H3143 C3161 0.930 . S
H3144 C3152 0.929 . S
H3145 C3159 0.930 . S
H3146 C3123 0.931 . S
H3147 C3153 0.930 . S
H3148 C3186 0.930 . S
H3149 C3130 0.930 . S
H3150 C3185 0.931 . S
N3151 Eu3120 2.657 . S
N3151 C3152 1.334 . S
N3151 C3156 1.362 . S
C3152 H3144 0.929 . S
C3152 N3151 1.334 . S
C3152 C3155 1.413 . S
C3153 H3147 0.930 . S
C3153 C3154 1.392 . S
C3153 C3155 1.367 . S
C3154 C3153 1.392 . S
C3154 C3156 1.420 . S
C3154 C3186 1.423 . S
C3155 H3141 0.930 . S
C3155 C3152 1.413 . S
C3155 C3153 1.367 . S
C3156 N3151 1.362 . S
C3156 C3154 1.420 . S
C3156 C3160 1.429 . S
H3157 C3162 0.930 . S
N3158 Eu3120 2.609 . S
N3158 C3160 1.377 . S
N3158 C3161 1.321 . S
C3159 H3145 0.930 . S
C3159 C3161 1.400 . S
C3159 C3162 1.386 . S
C3160 C3156 1.429 . S
C3160 N3158 1.377 . S
C3160 C3163 1.411 . S
C3161 H3143 0.930 . S
C3161 N3158 1.321 . S
C3161 C3159 1.400 . S
C3162 H3157 0.930 . S
C3162 C3159 1.386 . S
C3162 C3163 1.395 . S
C3163 C3160 1.411 . S
C3163 C3162 1.395 . S
C3163 C3185 1.420 . S
O3164 Eu3120 2.558 . S
O3164 C3184 1.257 . S
O3165 Eu3120 2.612 . S
O3165 Eu3131 2.380 . S
O3165 C3176 1.276 . S
O3166 Eu3131 2.432 . S
O3166 C3183 1.264 . S
O3167 Eu3120 2.339 . S
O3167 C3183 1.254 . S
O3168 Eu3120 2.563 . S
O3168 C3176 1.235 . S
O3169 Eu3120 2.419 . S
O3169 C3184 1.249 . S
O3170 Eu3131 2.558 . S
O3170 C3195 1.257 . S
O3171 Eu3120 2.380 . S
O3171 Eu3131 2.612 . S
O3171 C3187 1.276 . S
O3172 Eu3120 2.432 . S
O3172 C3194 1.264 . S
O3173 Eu3131 2.339 . S
O3173 C3194 1.254 . S
O3174 Eu3131 2.563 . S
O3174 C3187 1.235 . S
O3175 Eu3131 2.419 . S
O3175 C3195 1.249 . S
C3176 O3165 1.276 . S
C3176 O3168 1.235 . S
C3177 C3179 1.393 . S
C3177 C3181 1.395 . S
C3177 C3184 1.492 . S
C3178 C3179 1.392 . S
C3178 C3180 1.386 . S
C3179 C3177 1.393 . S
C3179 C3178 1.392 . S
C3179 H3196 0.930 . S
C3180 C3178 1.386 . S
C3180 C3182 1.395 . S
C3180 H3197 0.930 . S
C3181 C3177 1.395 . S
C3181 C3182 1.379 . S
C3181 H3198 0.930 . S
C3182 C3180 1.395 . S
C3182 C3181 1.379 . S
C3182 H3199 0.930 . S
C3183 O3166 1.264 . S
C3183 O3167 1.254 . S
C3184 Eu3120 2.848 . S
C3184 O3164 1.257 . S
C3184 O3169 1.249 . S
C3184 C3177 1.492 . S
C3185 H3150 0.931 . S
C3185 C3163 1.420 . S
C3185 C3186 1.351 . S
C3186 H3148 0.930 . S
C3186 C3154 1.423 . S
C3186 C3185 1.351 . S
C3187 O3171 1.276 . S
C3187 O3174 1.235 . S
C3188 C3189 1.393 . S
C3188 C3192 1.395 . S
C3188 C3195 1.492 . S
C3189 C3188 1.393 . S
C3189 C3190 1.392 . S
C3189 H3200 0.930 . S
C3190 C3189 1.392 . S
C3190 C3191 1.386 . S
C3191 C3190 1.386 . S
C3191 C3193 1.395 . S
C3191 H3201 0.930 . S
C3192 C3188 1.395 . S
C3192 C3193 1.379 . S
C3192 H3202 0.930 . S
C3193 C3191 1.395 . S
C3193 C3192 1.379 . S
C3193 H3203 0.930 . S
C3194 O3172 1.264 . S
C3194 O3173 1.254 . S
C3195 Eu3131 2.848 . S
C3195 O3170 1.257 . S
C3195 O3175 1.249 . S
C3195 C3188 1.492 . S
H3196 C3179 0.930 . S
H3197 C3180 0.930 . S
H3198 C3181 0.930 . S
H3199 C3182 0.930 . S
H3200 C3189 0.930 . S
H3201 C3191 0.930 . S
H3202 C3192 0.930 . S
H3203 C3193 0.930 . S
Eu3204 N3235 2.657 . S
Eu3204 N3242 2.609 . S
Eu3204 O3248 2.558 . S
Eu3204 O3249 2.612 . S
Eu3204 O3251 2.339 . S
Eu3204 O3252 2.563 . S
Eu3204 O3253 2.419 . S
Eu3204 O3255 2.380 . S
Eu3204 O3256 2.432 . S
Eu3204 C3268 2.848 . S
C3205 C3208 1.429 . S
C3205 C3209 1.411 . S
C3205 N3212 1.377 . S
C3206 C3208 1.420 . S
C3206 C3210 1.423 . S
C3206 C3218 1.392 . S
C3207 C3209 1.420 . S
C3207 C3210 1.351 . S
C3207 H3230 0.931 . S
C3208 C3205 1.429 . S
C3208 C3206 1.420 . S
C3208 N3216 1.362 . S
C3209 C3205 1.411 . S
C3209 C3207 1.420 . S
C3209 C3214 1.395 . S
C3210 C3206 1.423 . S
C3210 C3207 1.351 . S
C3210 H3222 0.930 . S
C3211 C3213 1.400 . S
C3211 C3214 1.386 . S
C3211 H3223 0.930 . S
N3212 C3205 1.377 . S
N3212 C3213 1.321 . S
N3212 Eu3215 2.609 . S
C3213 C3211 1.400 . S
C3213 N3212 1.321 . S
C3213 H3220 0.930 . S
C3214 C3209 1.395 . S
C3214 C3211 1.386 . S
C3214 H3233 0.930 . S
Eu3215 N3212 2.609 . S
Eu3215 N3216 2.657 . S
Eu3215 O3249 2.380 . S
Eu3215 O3250 2.432 . S
Eu3215 O3254 2.558 . S
Eu3215 O3255 2.612 . S
Eu3215 O3257 2.339 . S
Eu3215 O3258 2.563 . S
Eu3215 O3259 2.419 . S
Eu3215 C3279 2.848 . S
N3216 C3208 1.362 . S
N3216 Eu3215 2.657 . S
N3216 C3217 1.334 . S
C3217 N3216 1.334 . S
C3217 C3219 1.413 . S
C3217 H3224 0.929 . S
C3218 C3206 1.392 . S
C3218 C3219 1.367 . S
C3218 H3226 0.930 . S
C3219 C3217 1.413 . S
C3219 C3218 1.367 . S
C3219 H3221 0.930 . S
H3220 C3213 0.930 . S
H3221 C3219 0.930 . S
H3222 C3210 0.930 . S
H3223 C3211 0.930 . S
H3224 C3217 0.929 . S
H3225 C3239 0.930 . S
H3226 C3218 0.930 . S
H3227 C3245 0.930 . S
H3228 C3236 0.929 . S
H3229 C3243 0.930 . S
H3230 C3207 0.931 . S
H3231 C3237 0.930 . S
H3232 C3270 0.930 . S
H3233 C3214 0.930 . S
H3234 C3269 0.931 . S
N3235 Eu3204 2.657 . S
N3235 C3236 1.334 . S
N3235 C3240 1.362 . S
C3236 H3228 0.929 . S
C3236 N3235 1.334 . S
C3236 C3239 1.413 . S
C3237 H3231 0.930 . S
C3237 C3238 1.392 . S
C3237 C3239 1.367 . S
C3238 C3237 1.392 . S
C3238 C3240 1.420 . S
C3238 C3270 1.423 . S
C3239 H3225 0.930 . S
C3239 C3236 1.413 . S
C3239 C3237 1.367 . S
C3240 N3235 1.362 . S
C3240 C3238 1.420 . S
C3240 C3244 1.429 . S
H3241 C3246 0.930 . S
N3242 Eu3204 2.609 . S
N3242 C3244 1.377 . S
N3242 C3245 1.321 . S
C3243 H3229 0.930 . S
C3243 C3245 1.400 . S
C3243 C3246 1.386 . S
C3244 C3240 1.429 . S
C3244 N3242 1.377 . S
C3244 C3247 1.411 . S
C3245 H3227 0.930 . S
C3245 N3242 1.321 . S
C3245 C3243 1.400 . S
C3246 H3241 0.930 . S
C3246 C3243 1.386 . S
C3246 C3247 1.395 . S
C3247 C3244 1.411 . S
C3247 C3246 1.395 . S
C3247 C3269 1.420 . S
O3248 Eu3204 2.558 . S
O3248 C3268 1.257 . S
O3249 Eu3204 2.612 . S
O3249 Eu3215 2.380 . S
O3249 C3260 1.276 . S
O3250 Eu3215 2.432 . S
O3250 C3267 1.264 . S
O3251 Eu3204 2.339 . S
O3251 C3267 1.254 . S
O3252 Eu3204 2.563 . S
O3252 C3260 1.235 . S
O3253 Eu3204 2.419 . S
O3253 C3268 1.249 . S
O3254 Eu3215 2.558 . S
O3254 C3279 1.257 . S
O3255 Eu3204 2.380 . S
O3255 Eu3215 2.612 . S
O3255 C3271 1.276 . S
O3256 Eu3204 2.432 . S
O3256 C3278 1.264 . S
O3257 Eu3215 2.339 . S
O3257 C3278 1.254 . S
O3258 Eu3215 2.563 . S
O3258 C3271 1.235 . S
O3259 Eu3215 2.419 . S
O3259 C3279 1.249 . S
C3260 O3249 1.276 . S
C3260 O3252 1.235 . S
C3261 C3263 1.393 . S
C3261 C3265 1.395 . S
C3261 C3268 1.492 . S
C3262 C3263 1.392 . S
C3262 C3264 1.386 . S
C3263 C3261 1.393 . S
C3263 C3262 1.392 . S
C3263 H3280 0.930 . S
C3264 C3262 1.386 . S
C3264 C3266 1.395 . S
C3264 H3281 0.930 . S
C3265 C3261 1.395 . S
C3265 C3266 1.379 . S
C3265 H3282 0.930 . S
C3266 C3264 1.395 . S
C3266 C3265 1.379 . S
C3266 H3283 0.930 . S
C3267 O3250 1.264 . S
C3267 O3251 1.254 . S
C3268 Eu3204 2.848 . S
C3268 O3248 1.257 . S
C3268 O3253 1.249 . S
C3268 C3261 1.492 . S
C3269 H3234 0.931 . S
C3269 C3247 1.420 . S
C3269 C3270 1.351 . S
C3270 H3232 0.930 . S
C3270 C3238 1.423 . S
C3270 C3269 1.351 . S
C3271 O3255 1.276 . S
C3271 O3258 1.235 . S
C3272 C3273 1.393 . S
C3272 C3276 1.395 . S
C3272 C3279 1.492 . S
C3273 C3272 1.393 . S
C3273 C3274 1.392 . S
C3273 H3284 0.930 . S
C3274 C3273 1.392 . S
C3274 C3275 1.386 . S
C3275 C3274 1.386 . S
C3275 C3277 1.395 . S
C3275 H3285 0.930 . S
C3276 C3272 1.395 . S
C3276 C3277 1.379 . S
C3276 H3286 0.930 . S
C3277 C3275 1.395 . S
C3277 C3276 1.379 . S
C3277 H3287 0.930 . S
C3278 O3256 1.264 . S
C3278 O3257 1.254 . S
C3279 Eu3215 2.848 . S
C3279 O3254 1.257 . S
C3279 O3259 1.249 . S
C3279 C3272 1.492 . S
H3280 C3263 0.930 . S
H3281 C3264 0.930 . S
H3282 C3265 0.930 . S
H3283 C3266 0.930 . S
H3284 C3273 0.930 . S
H3285 C3275 0.930 . S
H3286 C3276 0.930 . S
H3287 C3277 0.930 . S
Eu3288 N3319 2.657 . S
Eu3288 N3326 2.609 . S
Eu3288 O3332 2.558 . S
Eu3288 O3333 2.612 . S
Eu3288 O3335 2.339 . S
Eu3288 O3336 2.563 . S
Eu3288 O3337 2.419 . S
Eu3288 O3339 2.380 . S
Eu3288 O3340 2.432 . S
Eu3288 C3352 2.848 . S
C3289 C3292 1.429 . S
C3289 C3293 1.411 . S
C3289 N3296 1.377 . S
C3290 C3292 1.420 . S
C3290 C3294 1.423 . S
C3290 C3302 1.392 . S
C3291 C3293 1.420 . S
C3291 C3294 1.351 . S
C3291 H3314 0.931 . S
C3292 C3289 1.429 . S
C3292 C3290 1.420 . S
C3292 N3300 1.362 . S
C3293 C3289 1.411 . S
C3293 C3291 1.420 . S
C3293 C3298 1.395 . S
C3294 C3290 1.423 . S
C3294 C3291 1.351 . S
C3294 H3306 0.930 . S
C3295 C3297 1.400 . S
C3295 C3298 1.386 . S
C3295 H3307 0.930 . S
N3296 C3289 1.377 . S
N3296 C3297 1.321 . S
N3296 Eu3299 2.609 . S
C3297 C3295 1.400 . S
C3297 N3296 1.321 . S
C3297 H3304 0.930 . S
C3298 C3293 1.395 . S
C3298 C3295 1.386 . S
C3298 H3317 0.930 . S
Eu3299 N3296 2.609 . S
Eu3299 N3300 2.657 . S
Eu3299 O3333 2.380 . S
Eu3299 O3334 2.432 . S
Eu3299 O3338 2.558 . S
Eu3299 O3339 2.612 . S
Eu3299 O3341 2.339 . S
Eu3299 O3342 2.563 . S
Eu3299 O3343 2.419 . S
Eu3299 C3363 2.848 . S
N3300 C3292 1.362 . S
N3300 Eu3299 2.657 . S
N3300 C3301 1.334 . S
C3301 N3300 1.334 . S
C3301 C3303 1.413 . S
C3301 H3308 0.929 . S
C3302 C3290 1.392 . S
C3302 C3303 1.367 . S
C3302 H3310 0.930 . S
C3303 C3301 1.413 . S
C3303 C3302 1.367 . S
C3303 H3305 0.930 . S
H3304 C3297 0.930 . S
H3305 C3303 0.930 . S
H3306 C3294 0.930 . S
H3307 C3295 0.930 . S
H3308 C3301 0.929 . S
H3309 C3323 0.930 . S
H3310 C3302 0.930 . S
H3311 C3329 0.930 . S
H3312 C3320 0.929 . S
H3313 C3327 0.930 . S
H3314 C3291 0.931 . S
H3315 C3321 0.930 . S
H3316 C3354 0.930 . S
H3317 C3298 0.930 . S
H3318 C3353 0.931 . S
N3319 Eu3288 2.657 . S
N3319 C3320 1.334 . S
N3319 C3324 1.362 . S
C3320 H3312 0.929 . S
C3320 N3319 1.334 . S
C3320 C3323 1.413 . S
C3321 H3315 0.930 . S
C3321 C3322 1.392 . S
C3321 C3323 1.367 . S
C3322 C3321 1.392 . S
C3322 C3324 1.420 . S
C3322 C3354 1.423 . S
C3323 H3309 0.930 . S
C3323 C3320 1.413 . S
C3323 C3321 1.367 . S
C3324 N3319 1.362 . S
C3324 C3322 1.420 . S
C3324 C3328 1.429 . S
H3325 C3330 0.930 . S
N3326 Eu3288 2.609 . S
N3326 C3328 1.377 . S
N3326 C3329 1.321 . S
C3327 H3313 0.930 . S
C3327 C3329 1.400 . S
C3327 C3330 1.386 . S
C3328 C3324 1.429 . S
C3328 N3326 1.377 . S
C3328 C3331 1.411 . S
C3329 H3311 0.930 . S
C3329 N3326 1.321 . S
C3329 C3327 1.400 . S
C3330 H3325 0.930 . S
C3330 C3327 1.386 . S
C3330 C3331 1.395 . S
C3331 C3328 1.411 . S
C3331 C3330 1.395 . S
C3331 C3353 1.420 . S
O3332 Eu3288 2.558 . S
O3332 C3352 1.257 . S
O3333 Eu3288 2.612 . S
O3333 Eu3299 2.380 . S
O3333 C3344 1.276 . S
O3334 Eu3299 2.432 . S
O3334 C3351 1.264 . S
O3335 Eu3288 2.339 . S
O3335 C3351 1.254 . S
O3336 Eu3288 2.563 . S
O3336 C3344 1.235 . S
O3337 Eu3288 2.419 . S
O3337 C3352 1.249 . S
O3338 Eu3299 2.558 . S
O3338 C3363 1.257 . S
O3339 Eu3288 2.380 . S
O3339 Eu3299 2.612 . S
O3339 C3355 1.276 . S
O3340 Eu3288 2.432 . S
O3340 C3362 1.264 . S
O3341 Eu3299 2.339 . S
O3341 C3362 1.254 . S
O3342 Eu3299 2.563 . S
O3342 C3355 1.235 . S
O3343 Eu3299 2.419 . S
O3343 C3363 1.249 . S
C3344 O3333 1.276 . S
C3344 O3336 1.235 . S
C3345 C3347 1.393 . S
C3345 C3349 1.395 . S
C3345 C3352 1.492 . S
C3346 C3347 1.392 . S
C3346 C3348 1.386 . S
C3347 C3345 1.393 . S
C3347 C3346 1.392 . S
C3347 H3364 0.930 . S
C3348 C3346 1.386 . S
C3348 C3350 1.395 . S
C3348 H3365 0.930 . S
C3349 C3345 1.395 . S
C3349 C3350 1.379 . S
C3349 H3366 0.930 . S
C3350 C3348 1.395 . S
C3350 C3349 1.379 . S
C3350 H3367 0.930 . S
C3351 O3334 1.264 . S
C3351 O3335 1.254 . S
C3352 Eu3288 2.848 . S
C3352 O3332 1.257 . S
C3352 O3337 1.249 . S
C3352 C3345 1.492 . S
C3353 H3318 0.931 . S
C3353 C3331 1.420 . S
C3353 C3354 1.351 . S
C3354 H3316 0.930 . S
C3354 C3322 1.423 . S
C3354 C3353 1.351 . S
C3355 O3339 1.276 . S
C3355 O3342 1.235 . S
C3356 C3357 1.393 . S
C3356 C3360 1.395 . S
C3356 C3363 1.492 . S
C3357 C3356 1.393 . S
C3357 C3358 1.392 . S
C3357 H3368 0.930 . S
C3358 C3357 1.392 . S
C3358 C3359 1.386 . S
C3359 C3358 1.386 . S
C3359 C3361 1.395 . S
C3359 H3369 0.930 . S
C3360 C3356 1.395 . S
C3360 C3361 1.379 . S
C3360 H3370 0.930 . S
C3361 C3359 1.395 . S
C3361 C3360 1.379 . S
C3361 H3371 0.930 . S
C3362 O3340 1.264 . S
C3362 O3341 1.254 . S
C3363 Eu3299 2.848 . S
C3363 O3338 1.257 . S
C3363 O3343 1.249 . S
C3363 C3356 1.492 . S
H3364 C3347 0.930 . S
H3365 C3348 0.930 . S
H3366 C3349 0.930 . S
H3367 C3350 0.930 . S
H3368 C3357 0.930 . S
H3369 C3359 0.930 . S
H3370 C3360 0.930 . S
H3371 C3361 0.930 . S
Eu3372 N3403 2.657 . S
Eu3372 N3410 2.609 1_554 S
Eu3372 O3416 2.558 1_554 S
Eu3372 O3417 2.612 . S
Eu3372 O3419 2.339 . S
Eu3372 O3420 2.563 . S
Eu3372 O3421 2.419 . S
Eu3372 O3423 2.380 . S
Eu3372 O3424 2.432 1_554 S
Eu3372 C3436 2.848 1_554 S
C3373 C3376 1.429 . S
C3373 C3377 1.411 . S
C3373 N3380 1.377 1_655 S
C3374 C3376 1.420 . S
C3374 C3378 1.423 . S
C3374 C3386 1.392 1_554 S
C3375 C3377 1.420 . S
C3375 C3378 1.351 . S
C3375 H3398 0.931 . S
C3376 C3373 1.429 . S
C3376 C3374 1.420 . S
C3376 N3384 1.362 1_655 S
C3377 C3373 1.411 . S
C3377 C3375 1.420 . S
C3377 C3382 1.395 . S
C3378 C3374 1.423 . S
C3378 C3375 1.351 . S
C3378 H3390 0.930 . S
C3379 C3381 1.400 . S
C3379 C3382 1.386 1_455 S
C3379 H3391 0.930 . S
N3380 C3373 1.377 1_455 S
N3380 C3381 1.321 . S
N3380 Eu3383 2.609 . S
C3381 C3379 1.400 . S
C3381 N3380 1.321 . S
C3381 H3388 0.930 . S
C3382 C3377 1.395 . S
C3382 C3379 1.386 1_655 S
C3382 H3401 0.930 . S
Eu3383 N3380 2.609 . S
Eu3383 N3384 2.657 . S
Eu3383 O3417 2.380 . S
Eu3383 O3418 2.432 . S
Eu3383 O3422 2.558 . S
Eu3383 O3423 2.612 . S
Eu3383 O3425 2.339 1_554 S
Eu3383 O3426 2.563 . S
Eu3383 O3427 2.419 1_455 S
Eu3383 C3447 2.848 1_455 S
N3384 C3376 1.362 1_455 S
N3384 Eu3383 2.657 . S
N3384 C3385 1.334 1_554 S
C3385 N3384 1.334 1_556 S
C3385 C3387 1.410 1_455 S
C3385 H3392 0.931 . S
C3386 C3374 1.392 1_556 S
C3386 C3387 1.367 . S
C3386 H3394 0.930 . S
C3387 C3385 1.410 1_655 S
C3387 C3386 1.367 . S
C3387 H3389 0.930 . S
H3388 C3381 0.930 . S
H3389 C3387 0.930 . S
H3390 C3378 0.930 . S
H3391 C3379 0.930 . S
H3392 C3385 0.931 . S
H3393 C3407 0.930 . S
H3394 C3386 0.930 . S
H3395 C3413 0.930 . S
H3396 C3404 0.929 . S
H3397 C3411 0.930 . S
H3398 C3375 0.931 . S
H3399 C3405 0.930 . S
H3400 C3438 0.930 . S
H3401 C3382 0.930 . S
H3402 C3437 0.931 . S
N3403 Eu3372 2.657 . S
N3403 C3404 1.334 . S
N3403 C3408 1.362 . S
C3404 H3396 0.929 . S
C3404 N3403 1.334 . S
C3404 C3407 1.413 . S
C3405 H3399 0.930 . S
C3405 C3406 1.392 . S
C3405 C3407 1.367 . S
C3406 C3405 1.392 . S
C3406 C3408 1.420 . S
C3406 C3438 1.423 . S
C3407 H3393 0.930 . S
C3407 C3404 1.413 . S
C3407 C3405 1.367 . S
C3408 N3403 1.362 . S
C3408 C3406 1.420 . S
C3408 C3412 1.429 1_554 S
H3409 C3414 0.930 . S
N3410 Eu3372 2.609 1_556 S
N3410 C3412 1.377 . S
N3410 C3413 1.321 . S
C3411 H3397 0.930 . S
C3411 C3413 1.400 . S
C3411 C3414 1.386 . S
C3412 C3408 1.429 1_556 S
C3412 N3410 1.377 . S
C3412 C3415 1.411 . S
C3413 H3395 0.930 . S
C3413 N3410 1.321 . S
C3413 C3411 1.400 . S
C3414 H3409 0.930 . S
C3414 C3411 1.386 . S
C3414 C3415 1.395 . S
C3415 C3412 1.411 . S
C3415 C3414 1.395 . S
C3415 C3437 1.420 . S
O3416 Eu3372 2.558 1_556 S
O3416 C3436 1.257 . S
O3417 Eu3372 2.612 . S
O3417 Eu3383 2.380 . S
O3417 C3428 1.276 . S
O3418 Eu3383 2.432 . S
O3418 C3435 1.264 . S
O3419 Eu3372 2.339 . S
O3419 C3435 1.254 . S
O3420 Eu3372 2.563 . S
O3420 C3428 1.235 . S
O3421 Eu3372 2.419 . S
O3421 C3436 1.249 1_554 S
O3422 Eu3383 2.558 . S
O3422 C3447 1.257 1_455 S
O3423 Eu3372 2.380 . S
O3423 Eu3383 2.612 . S
O3423 C3439 1.276 . S
O3424 Eu3372 2.432 1_556 S
O3424 C3446 1.264 . S
O3425 Eu3383 2.339 1_556 S
O3425 C3446 1.254 . S
O3426 Eu3383 2.563 . S
O3426 C3439 1.235 . S
O3427 Eu3383 2.419 1_655 S
O3427 C3447 1.249 . S
C3428 O3417 1.276 . S
C3428 O3420 1.235 . S
C3429 C3431 1.393 1_556 S
C3429 C3433 1.395 . S
C3429 C3436 1.492 . S
C3430 C3431 1.400 . S
C3430 C3432 1.344 1_554 S
C3431 C3429 1.393 1_554 S
C3431 C3430 1.400 . S
C3431 H3448 0.930 . S
C3432 C3430 1.344 1_556 S
C3432 C3434 1.395 . S
C3432 H3449 0.930 . S
C3433 C3429 1.395 . S
C3433 C3434 1.379 . S
C3433 H3450 0.930 . S
C3434 C3432 1.395 . S
C3434 C3433 1.379 . S
C3434 H3451 0.930 . S
C3435 O3418 1.264 . S
C3435 O3419 1.254 . S
C3436 Eu3372 2.848 1_556 S
C3436 O3416 1.257 . S
C3436 O3421 1.249 1_556 S
C3436 C3429 1.492 . S
C3437 H3402 0.931 . S
C3437 C3415 1.420 . S
C3437 C3438 1.351 1_556 S
C3438 H3400 0.930 . S
C3438 C3406 1.423 . S
C3438 C3437 1.351 1_554 S
C3439 O3423 1.276 . S
C3439 O3426 1.235 . S
C3440 C3441 1.393 . S
C3440 C3444 1.395 . S
C3440 C3447 1.492 . S
C3441 C3440 1.393 . S
C3441 C3442 1.392 . S
C3441 H3452 0.930 . S
C3442 C3441 1.392 . S
C3442 C3443 1.386 . S
C3443 C3442 1.386 . S
C3443 C3445 1.395 . S
C3443 H3453 0.930 . S
C3444 C3440 1.395 . S
C3444 C3445 1.379 . S
C3444 H3454 0.930 . S
C3445 C3443 1.395 . S
C3445 C3444 1.379 . S
C3445 H3455 0.930 . S
C3446 O3424 1.264 . S
C3446 O3425 1.254 . S
C3447 Eu3383 2.848 1_655 S
C3447 O3422 1.257 1_655 S
C3447 O3427 1.249 . S
C3447 C3440 1.492 . S
H3448 C3431 0.930 . S
H3449 C3432 0.930 . S
H3450 C3433 0.930 . S
H3451 C3434 0.930 . S
H3452 C3441 0.930 . S
H3453 C3443 0.930 . S
H3454 C3444 0.930 . S
H3455 C3445 0.930 . S
H3456 C3464 0.950 . S
H3457 C3469 0.950 . S
H3458 C3466 0.950 . S
H3459 C3468 0.950 . S
H3460 C3470 0.950 . S
H3461 C3472 0.950 . S
H3462 C3474 0.950 . S
H3463 C3475 0.950 . S
C3464 H3456 0.950 . S
C3464 C3465 1.386 1_554 S
C3464 C3466 1.391 . S
C3465 C3464 1.386 1_556 S
C3465 C3469 1.393 . S
C3466 H3458 0.950 . S
C3466 C3464 1.391 . S
C3466 C3467 1.400 . S
C3467 C3466 1.400 . S
C3467 C3468 1.398 1_554 S
C3467 C3473 1.491 . S
C3468 H3459 0.950 . S
C3468 C3467 1.398 1_556 S
C3468 C3469 1.391 . S
C3469 H3457 0.950 . S
C3469 C3465 1.393 . S
C3469 C3468 1.391 . S
C3470 H3460 0.950 . S
C3470 C3471 1.386 1_556 S
C3470 C3472 1.391 . S
C3471 C3470 1.386 1_554 S
C3471 C3475 1.393 . S
C3472 H3461 0.950 . S
C3472 C3470 1.391 . S
C3472 C3473 1.400 1_556 S
C3473 C3467 1.491 . S
C3473 C3472 1.400 1_554 S
C3473 C3474 1.398 . S
C3474 H3462 0.950 . S
C3474 C3473 1.398 . S
C3474 C3475 1.391 . S
C3475 H3463 0.950 . S
C3475 C3471 1.393 . S
C3475 C3474 1.391 . S
H3476 C3484 0.950 . S
H3477 C3489 0.950 . S
H3478 C3486 0.950 . S
H3479 C3488 0.950 . S
H3480 C3490 0.950 . S
H3481 C3492 0.950 . S
H3482 C3494 0.950 . S
H3483 C3495 0.950 . S
C3484 H3476 0.950 . S
C3484 C3485 1.386 . S
C3484 C3486 1.391 . S
C3485 C3484 1.386 . S
C3485 C3489 1.393 . S
C3486 H3478 0.950 . S
C3486 C3484 1.391 . S
C3486 C3487 1.400 . S
C3487 C3486 1.400 . S
C3487 C3488 1.398 . S
C3487 C3493 1.491 . S
C3488 H3479 0.950 . S
C3488 C3487 1.398 . S
C3488 C3489 1.391 . S
C3489 H3477 0.950 . S
C3489 C3485 1.393 . S
C3489 C3488 1.391 . S
C3490 H3480 0.950 . S
C3490 C3491 1.386 . S
C3490 C3492 1.391 . S
C3491 C3490 1.386 . S
C3491 C3495 1.393 . S
C3492 H3481 0.950 . S
C3492 C3490 1.391 . S
C3492 C3493 1.400 . S
C3493 C3487 1.491 . S
C3493 C3492 1.400 . S
C3493 C3494 1.398 . S
C3494 H3482 0.950 . S
C3494 C3493 1.398 . S
C3494 C3495 1.391 . S
C3495 H3483 0.950 . S
C3495 C3491 1.393 . S
C3495 C3494 1.391 . S
H3496 C3504 0.950 . S
H3497 C3509 0.950 . S
H3498 C3506 0.950 . S
H3499 C3508 0.950 . S
H3500 C3510 0.950 . S
H3501 C3512 0.950 . S
H3502 C3514 0.950 . S
H3503 C3515 0.950 . S
C3504 H3496 0.950 . S
C3504 C3505 1.386 . S
C3504 C3506 1.391 . S
C3505 C3504 1.386 . S
C3505 C3509 1.393 . S
C3506 H3498 0.950 . S
C3506 C3504 1.391 . S
C3506 C3507 1.400 . S
C3507 C3506 1.400 . S
C3507 C3508 1.398 . S
C3507 C3513 1.491 . S
C3508 H3499 0.950 . S
C3508 C3507 1.398 . S
C3508 C3509 1.391 . S
C3509 H3497 0.950 . S
C3509 C3505 1.393 . S
C3509 C3508 1.391 . S
C3510 H3500 0.950 . S
C3510 C3511 1.386 . S
C3510 C3512 1.391 . S
C3511 C3510 1.386 . S
C3511 C3515 1.393 . S
C3512 H3501 0.950 . S
C3512 C3510 1.391 . S
C3512 C3513 1.400 . S
C3513 C3507 1.491 . S
C3513 C3512 1.400 . S
C3513 C3514 1.398 . S
C3514 H3502 0.950 . S
C3514 C3513 1.398 . S
C3514 C3515 1.391 . S
C3515 H3503 0.950 . S
C3515 C3511 1.393 . S
C3515 C3514 1.391 . S
H3516 C3524 0.950 . S
H3517 C3529 0.950 . S
H3518 C3526 0.950 . S
H3519 C3528 0.950 . S
H3520 C3530 0.950 . S
H3521 C3532 0.950 . S
H3522 C3534 0.950 . S
H3523 C3535 0.950 . S
C3524 H3516 0.950 . S
C3524 C3525 1.386 . S
C3524 C3526 1.391 . S
C3525 C3524 1.386 . S
C3525 C3529 1.393 . S
C3526 H3518 0.950 . S
C3526 C3524 1.391 . S
C3526 C3527 1.400 . S
C3527 C3526 1.400 . S
C3527 C3528 1.398 . S
C3527 C3533 1.491 . S
C3528 H3519 0.950 . S
C3528 C3527 1.398 . S
C3528 C3529 1.391 . S
C3529 H3517 0.950 . S
C3529 C3525 1.393 . S
C3529 C3528 1.391 . S
C3530 H3520 0.950 . S
C3530 C3531 1.386 . S
C3530 C3532 1.391 . S
C3531 C3530 1.386 . S
C3531 C3535 1.393 . S
C3532 H3521 0.950 . S
C3532 C3530 1.391 . S
C3532 C3533 1.400 . S
C3533 C3527 1.491 . S
C3533 C3532 1.400 . S
C3533 C3534 1.398 . S
C3534 H3522 0.950 . S
C3534 C3533 1.398 . S
C3534 C3535 1.391 . S
C3535 H3523 0.950 . S
C3535 C3531 1.393 . S
C3535 C3534 1.391 . S
H3536 C3544 0.950 . S
H3537 C3549 0.950 1_655 S
H3538 C3546 0.950 . S
H3539 C3548 0.950 . S
H3540 C3550 0.950 . S
H3541 C3552 0.950 . S
H3542 C3554 0.950 . S
H3543 C3555 0.950 . S
C3544 H3536 0.950 . S
C3544 C3545 1.386 . S
C3544 C3546 1.391 . S
C3545 C3544 1.386 . S
C3545 C3549 1.393 . S
C3546 H3538 0.950 . S
C3546 C3544 1.391 . S
C3546 C3547 1.400 . S
C3547 C3546 1.400 . S
C3547 C3548 1.398 . S
C3547 C3553 1.491 . S
C3548 H3539 0.950 . S
C3548 C3547 1.398 . S
C3548 C3549 1.391 . S
C3549 H3537 0.950 1_455 S
C3549 C3545 1.393 . S
C3549 C3548 1.391 . S
C3550 H3540 0.950 . S
C3550 C3551 1.386 . S
C3550 C3552 1.391 . S
C3551 C3550 1.386 . S
C3551 C3555 1.393 . S
C3552 H3541 0.950 . S
C3552 C3550 1.391 . S
C3552 C3553 1.400 . S
C3553 C3547 1.491 . S
C3553 C3552 1.400 . S
C3553 C3554 1.398 . S
C3554 H3542 0.950 . S
C3554 C3553 1.398 . S
C3554 C3555 1.391 . S
C3555 H3543 0.950 . S
C3555 C3551 1.393 . S
C3555 C3554 1.391 . S
H3556 C3564 0.950 . S
H3557 C3569 0.950 . S
H3558 C3566 0.950 . S
H3559 C3568 0.950 . S
H3560 C3570 0.950 . S
H3561 C3572 0.950 . S
H3562 C3574 0.950 . S
H3563 C3575 0.950 . S
C3564 H3556 0.950 . S
C3564 C3565 1.386 . S
C3564 C3566 1.391 . S
C3565 C3564 1.386 . S
C3565 C3569 1.393 . S
C3566 H3558 0.950 . S
C3566 C3564 1.391 . S
C3566 C3567 1.400 . S
C3567 C3566 1.400 . S
C3567 C3568 1.398 . S
C3567 C3573 1.491 . S
C3568 H3559 0.950 . S
C3568 C3567 1.398 . S
C3568 C3569 1.391 . S
C3569 H3557 0.950 . S
C3569 C3565 1.393 . S
C3569 C3568 1.391 . S
C3570 H3560 0.950 . S
C3570 C3571 1.386 . S
C3570 C3572 1.391 . S
C3571 C3570 1.386 . S
C3571 C3575 1.393 . S
C3572 H3561 0.950 . S
C3572 C3570 1.391 . S
C3572 C3573 1.400 . S
C3573 C3567 1.491 . S
C3573 C3572 1.400 . S
C3573 C3574 1.398 . S
C3574 H3562 0.950 . S
C3574 C3573 1.398 . S
C3574 C3575 1.391 . S
C3575 H3563 0.950 . S
C3575 C3571 1.393 . S
C3575 C3574 1.391 . S
H3576 C3584 0.950 . S
H3577 C3589 0.950 . S
H3578 C3586 0.950 . S
H3579 C3588 0.950 . S
H3580 C3590 0.950 . S
H3581 C3592 0.950 . S
H3582 C3594 0.950 . S
H3583 C3595 0.950 . S
C3584 H3576 0.950 . S
C3584 C3585 1.386 . S
C3584 C3586 1.391 . S
C3585 C3584 1.386 . S
C3585 C3589 1.393 . S
C3586 H3578 0.950 . S
C3586 C3584 1.391 . S
C3586 C3587 1.400 . S
C3587 C3586 1.400 . S
C3587 C3588 1.398 . S
C3587 C3593 1.491 . S
C3588 H3579 0.950 . S
C3588 C3587 1.398 . S
C3588 C3589 1.391 . S
C3589 H3577 0.950 . S
C3589 C3585 1.393 . S
C3589 C3588 1.391 . S
C3590 H3580 0.950 . S
C3590 C3591 1.386 . S
C3590 C3592 1.391 . S
C3591 C3590 1.386 . S
C3591 C3595 1.393 . S
C3592 H3581 0.950 . S
C3592 C3590 1.391 . S
C3592 C3593 1.400 . S
C3593 C3587 1.491 . S
C3593 C3592 1.400 . S
C3593 C3594 1.398 . S
C3594 H3582 0.950 . S
C3594 C3593 1.398 . S
C3594 C3595 1.391 . S
C3595 H3583 0.950 . S
C3595 C3591 1.393 . S
C3595 C3594 1.391 . S
H3596 C3604 0.950 . S
H3597 C3609 0.950 . S
H3598 C3606 0.950 . S
H3599 C3608 0.950 . S
H3600 C3610 0.950 . S
H3601 C3612 0.950 . S
H3602 C3614 0.950 . S
H3603 C3615 0.950 . S
C3604 H3596 0.950 . S
C3604 C3605 1.386 . S
C3604 C3606 1.391 . S
C3605 C3604 1.386 . S
C3605 C3609 1.393 . S
C3606 H3598 0.950 . S
C3606 C3604 1.391 . S
C3606 C3607 1.400 . S
C3607 C3606 1.400 . S
C3607 C3608 1.398 . S
C3607 C3613 1.491 . S
C3608 H3599 0.950 . S
C3608 C3607 1.398 . S
C3608 C3609 1.391 . S
C3609 H3597 0.950 . S
C3609 C3605 1.393 . S
C3609 C3608 1.391 . S
C3610 H3600 0.950 . S
C3610 C3611 1.386 . S
C3610 C3612 1.391 . S
C3611 C3610 1.386 . S
C3611 C3615 1.393 . S
C3612 H3601 0.950 . S
C3612 C3610 1.391 . S
C3612 C3613 1.400 . S
C3613 C3607 1.491 . S
C3613 C3612 1.400 . S
C3613 C3614 1.398 . S
C3614 H3602 0.950 . S
C3614 C3613 1.398 . S
C3614 C3615 1.391 . S
C3615 H3603 0.950 . S
C3615 C3611 1.393 . S
C3615 C3614 1.391 . S
H3616 C3624 0.950 . S
H3617 C3629 0.950 . S
H3618 C3626 0.950 . S
H3619 C3628 0.950 . S
H3620 C3630 0.950 . S
H3621 C3632 0.950 . S
H3622 C3634 0.950 1_655 S
H3623 C3635 0.950 . S
C3624 H3616 0.950 . S
C3624 C3625 1.389 1_655 S
C3624 C3626 1.391 . S
C3625 C3624 1.389 1_455 S
C3625 C3629 1.387 . S
C3626 H3618 0.950 . S
C3626 C3624 1.391 . S
C3626 C3627 1.400 1_655 S
C3627 C3626 1.400 1_455 S
C3627 C3628 1.398 . S
C3627 C3633 1.491 . S
C3628 H3619 0.950 . S
C3628 C3627 1.398 . S
C3628 C3629 1.391 . S
C3629 H3617 0.950 . S
C3629 C3625 1.387 . S
C3629 C3628 1.391 . S
C3630 H3620 0.950 . S
C3630 C3631 1.386 . S
C3630 C3632 1.391 . S
C3631 C3630 1.386 . S
C3631 C3635 1.393 . S
C3632 H3621 0.950 . S
C3632 C3630 1.391 . S
C3632 C3633 1.400 . S
C3633 C3627 1.491 . S
C3633 C3632 1.400 . S
C3633 C3634 1.398 . S
C3634 H3622 0.950 1_455 S
C3634 C3633 1.398 . S
C3634 C3635 1.391 . S
C3635 H3623 0.950 . S
C3635 C3631 1.393 . S
C3635 C3634 1.391 . S
H3636 C3644 0.950 . S
H3637 C3649 0.950 . S
H3638 C3646 0.950 . S
H3639 C3648 0.950 . S
H3640 C3650 0.950 . S
H3641 C3652 0.950 . S
H3642 C3654 0.950 . S
H3643 C3655 0.950 . S
C3644 H3636 0.950 . S
C3644 C3645 1.386 . S
C3644 C3646 1.391 . S
C3645 C3644 1.386 . S
C3645 C3649 1.393 . S
C3646 H3638 0.950 . S
C3646 C3644 1.391 . S
C3646 C3647 1.400 . S
C3647 C3646 1.400 . S
C3647 C3648 1.398 . S
C3647 C3653 1.491 . S
C3648 H3639 0.950 . S
C3648 C3647 1.398 . S
C3648 C3649 1.391 . S
C3649 H3637 0.950 . S
C3649 C3645 1.393 . S
C3649 C3648 1.391 . S
C3650 H3640 0.950 . S
C3650 C3651 1.386 . S
C3650 C3652 1.391 . S
C3651 C3650 1.386 . S
C3651 C3655 1.393 . S
C3652 H3641 0.950 . S
C3652 C3650 1.391 . S
C3652 C3653 1.400 . S
C3653 C3647 1.491 . S
C3653 C3652 1.400 . S
C3653 C3654 1.398 . S
C3654 H3642 0.950 . S
C3654 C3653 1.398 . S
C3654 C3655 1.391 . S
C3655 H3643 0.950 . S
C3655 C3651 1.393 . S
C3655 C3654 1.391 . S
H3656 C3664 0.950 . S
H3657 C3669 0.950 . S
H3658 C3666 0.950 . S
H3659 C3668 0.950 . S
H3660 C3670 0.950 . S
H3661 C3672 0.950 . S
H3662 C3674 0.950 . S
H3663 C3675 0.950 . S
C3664 H3656 0.950 . S
C3664 C3665 1.386 . S
C3664 C3666 1.391 . S
C3665 C3664 1.386 . S
C3665 C3669 1.393 . S
C3666 H3658 0.950 . S
C3666 C3664 1.391 . S
C3666 C3667 1.400 . S
C3667 C3666 1.400 . S
C3667 C3668 1.398 . S
C3667 C3673 1.491 . S
C3668 H3659 0.950 . S
C3668 C3667 1.398 . S
C3668 C3669 1.391 . S
C3669 H3657 0.950 . S
C3669 C3665 1.393 . S
C3669 C3668 1.391 . S
C3670 H3660 0.950 . S
C3670 C3671 1.386 . S
C3670 C3672 1.391 . S
C3671 C3670 1.386 . S
C3671 C3675 1.393 . S
C3672 H3661 0.950 . S
C3672 C3670 1.391 . S
C3672 C3673 1.400 . S
C3673 C3667 1.491 . S
C3673 C3672 1.400 . S
C3673 C3674 1.398 . S
C3674 H3662 0.950 . S
C3674 C3673 1.398 . S
C3674 C3675 1.391 . S
C3675 H3663 0.950 . S
C3675 C3671 1.393 . S
C3675 C3674 1.391 . S
H3676 C3684 0.950 . S
H3677 C3689 0.950 . S
H3678 C3686 0.950 . S
H3679 C3688 0.950 . S
H3680 C3690 0.950 . S
H3681 C3692 0.950 . S
H3682 C3694 0.950 . S
H3683 C3695 0.950 . S
C3684 H3676 0.950 . S
C3684 C3685 1.386 . S
C3684 C3686 1.391 . S
C3685 C3684 1.386 . S
C3685 C3689 1.393 . S
C3686 H3678 0.950 . S
C3686 C3684 1.391 . S
C3686 C3687 1.400 . S
C3687 C3686 1.400 . S
C3687 C3688 1.398 . S
C3687 C3693 1.491 . S
C3688 H3679 0.950 . S
C3688 C3687 1.398 . S
C3688 C3689 1.391 . S
C3689 H3677 0.950 . S
C3689 C3685 1.393 . S
C3689 C3688 1.391 . S
C3690 H3680 0.950 . S
C3690 C3691 1.386 . S
C3690 C3692 1.391 . S
C3691 C3690 1.386 . S
C3691 C3695 1.393 . S
C3692 H3681 0.950 . S
C3692 C3690 1.391 . S
C3692 C3693 1.400 . S
C3693 C3687 1.491 . S
C3693 C3692 1.400 . S
C3693 C3694 1.398 . S
C3694 H3682 0.950 . S
C3694 C3693 1.398 . S
C3694 C3695 1.391 . S
C3695 H3683 0.950 . S
C3695 C3691 1.393 . S
C3695 C3694 1.391 . S
H3696 C3704 0.950 . S
H3697 C3709 0.949 . S
H3698 C3706 0.950 . S
H3699 C3708 0.950 . S
H3700 C3710 0.950 . S
H3701 C3712 0.950 . S
H3702 C3714 0.950 . S
H3703 C3715 0.950 . S
C3704 H3696 0.950 . S
C3704 C3705 1.386 . S
C3704 C3706 1.391 . S
C3705 C3704 1.386 . S
C3705 C3709 1.393 1_455 S
C3706 H3698 0.950 . S
C3706 C3704 1.391 . S
C3706 C3707 1.400 . S
C3707 C3706 1.400 . S
C3707 C3708 1.398 . S
C3707 C3713 1.491 . S
C3708 H3699 0.950 . S
C3708 C3707 1.398 . S
C3708 C3709 1.391 1_455 S
C3709 H3697 0.949 . S
C3709 C3705 1.393 1_655 S
C3709 C3708 1.391 1_655 S
C3710 H3700 0.950 . S
C3710 C3711 1.386 . S
C3710 C3712 1.391 . S
C3711 C3710 1.386 . S
C3711 C3715 1.393 . S
C3712 H3701 0.950 . S
C3712 C3710 1.391 . S
C3712 C3713 1.400 . S
C3713 C3707 1.491 . S
C3713 C3712 1.400 . S
C3713 C3714 1.398 . S
C3714 H3702 0.950 . S
C3714 C3713 1.398 . S
C3714 C3715 1.391 . S
C3715 H3703 0.950 . S
C3715 C3711 1.393 . S
C3715 C3714 1.391 . S
H3716 C3724 0.950 . S
H3717 C3729 0.950 . S
H3718 C3726 0.950 . S
H3719 C3728 0.950 . S
H3720 C3730 0.950 . S
H3721 C3732 0.950 . S
H3722 C3734 0.950 . S
H3723 C3735 0.950 . S
C3724 H3716 0.950 . S
C3724 C3725 1.386 . S
C3724 C3726 1.391 . S
C3725 C3724 1.386 . S
C3725 C3729 1.393 . S
C3726 H3718 0.950 . S
C3726 C3724 1.391 . S
C3726 C3727 1.400 . S
C3727 C3726 1.400 . S
C3727 C3728 1.398 . S
C3727 C3733 1.491 . S
C3728 H3719 0.950 . S
C3728 C3727 1.398 . S
C3728 C3729 1.391 . S
C3729 H3717 0.950 . S
C3729 C3725 1.393 . S
C3729 C3728 1.391 . S
C3730 H3720 0.950 . S
C3730 C3731 1.386 . S
C3730 C3732 1.391 . S
C3731 C3730 1.386 . S
C3731 C3735 1.393 . S
C3732 H3721 0.950 . S
C3732 C3730 1.391 . S
C3732 C3733 1.400 . S
C3733 C3727 1.491 . S
C3733 C3732 1.400 . S
C3733 C3734 1.398 . S
C3734 H3722 0.950 . S
C3734 C3733 1.398 . S
C3734 C3735 1.391 . S
C3735 H3723 0.950 . S
C3735 C3731 1.393 . S
C3735 C3734 1.391 . S
H3736 C3744 0.950 . S
H3737 C3749 0.950 . S
H3738 C3746 0.950 . S
H3739 C3748 0.950 . S
H3740 C3750 0.950 . S
H3741 C3752 0.950 . S
H3742 C3754 0.950 . S
H3743 C3755 0.950 . S
C3744 H3736 0.950 . S
C3744 C3745 1.386 . S
C3744 C3746 1.391 . S
C3745 C3744 1.386 . S
C3745 C3749 1.393 . S
C3746 H3738 0.950 . S
C3746 C3744 1.391 . S
C3746 C3747 1.400 . S
C3747 C3746 1.400 . S
C3747 C3748 1.398 . S
C3747 C3753 1.491 . S
C3748 H3739 0.950 . S
C3748 C3747 1.398 . S
C3748 C3749 1.391 . S
C3749 H3737 0.950 . S
C3749 C3745 1.393 . S
C3749 C3748 1.391 . S
C3750 H3740 0.950 . S
C3750 C3751 1.386 . S
C3750 C3752 1.391 . S
C3751 C3750 1.386 . S
C3751 C3755 1.393 . S
C3752 H3741 0.950 . S
C3752 C3750 1.391 . S
C3752 C3753 1.400 . S
C3753 C3747 1.491 . S
C3753 C3752 1.400 . S
C3753 C3754 1.398 . S
C3754 H3742 0.950 . S
C3754 C3753 1.398 . S
C3754 C3755 1.391 . S
C3755 H3743 0.950 . S
C3755 C3751 1.393 . S
C3755 C3754 1.391 . S
H3756 C3764 0.950 . S
H3757 C3769 0.950 . S
H3758 C3766 0.950 . S
H3759 C3768 0.950 . S
H3760 C3770 0.950 . S
H3761 C3772 0.950 . S
H3762 C3774 0.950 . S
H3763 C3775 0.950 . S
C3764 H3756 0.950 . S
C3764 C3765 1.386 . S
C3764 C3766 1.391 . S
C3765 C3764 1.386 . S
C3765 C3769 1.393 . S
C3766 H3758 0.950 . S
C3766 C3764 1.391 . S
C3766 C3767 1.400 . S
C3767 C3766 1.400 . S
C3767 C3768 1.398 . S
C3767 C3773 1.491 . S
C3768 H3759 0.950 . S
C3768 C3767 1.398 . S
C3768 C3769 1.391 . S
C3769 H3757 0.950 . S
C3769 C3765 1.393 . S
C3769 C3768 1.391 . S
C3770 H3760 0.950 . S
C3770 C3771 1.386 . S
C3770 C3772 1.391 . S
C3771 C3770 1.386 . S
C3771 C3775 1.393 . S
C3772 H3761 0.950 . S
C3772 C3770 1.391 . S
C3772 C3773 1.400 . S
C3773 C3767 1.491 . S
C3773 C3772 1.400 . S
C3773 C3774 1.398 . S
C3774 H3762 0.950 . S
C3774 C3773 1.398 . S
C3774 C3775 1.391 . S
C3775 H3763 0.950 . S
C3775 C3771 1.393 . S
C3775 C3774 1.391 . S
H3776 C3784 0.950 . S
H3777 C3789 0.950 . S
H3778 C3786 0.950 . S
H3779 C3788 0.950 . S
H3780 C3790 0.950 . S
H3781 C3792 0.950 . S
H3782 C3794 0.950 . S
H3783 C3795 0.950 . S
C3784 H3776 0.950 . S
C3784 C3785 1.386 1_545 S
C3784 C3786 1.391 . S
C3785 C3784 1.386 1_565 S
C3785 C3789 1.393 . S
C3786 H3778 0.950 . S
C3786 C3784 1.391 . S
C3786 C3787 1.400 1_545 S
C3787 C3786 1.400 1_565 S
C3787 C3788 1.398 . S
C3787 C3793 1.477 1_565 S
C3788 H3779 0.950 . S
C3788 C3787 1.398 . S
C3788 C3789 1.391 . S
C3789 H3777 0.950 . S
C3789 C3785 1.393 . S
C3789 C3788 1.391 . S
C3790 H3780 0.950 . S
C3790 C3791 1.386 1_565 S
C3790 C3792 1.391 . S
C3791 C3790 1.386 1_545 S
C3791 C3795 1.393 . S
C3792 H3781 0.950 . S
C3792 C3790 1.391 . S
C3792 C3793 1.385 1_565 S
C3793 C3787 1.477 1_545 S
C3793 C3792 1.385 1_545 S
C3793 C3794 1.428 . S
C3794 H3782 0.950 . S
C3794 C3793 1.428 . S
C3794 C3795 1.391 . S
C3795 H3783 0.950 . S
C3795 C3791 1.393 . S
C3795 C3794 1.391 . S
H3796 C3804 0.950 . S
H3797 C3809 0.950 1_554 S
H3798 C3806 0.950 . S
H3799 C3808 0.949 1_554 S
H3800 C3810 0.950 . S
H3801 C3812 0.950 . S
H3802 C3814 0.950 . S
H3803 C3815 0.950 . S
C3804 H3796 0.950 . S
C3804 C3805 1.386 . S
C3804 C3806 1.391 . S
C3805 C3804 1.386 . S
C3805 C3809 1.393 . S
C3806 H3798 0.950 . S
C3806 C3804 1.391 . S
C3806 C3807 1.400 . S
C3807 C3806 1.400 . S
C3807 C3808 1.399 . S
C3807 C3813 1.491 . S
C3808 H3799 0.949 1_556 S
C3808 C3807 1.399 . S
C3808 C3809 1.391 . S
C3809 H3797 0.950 1_556 S
C3809 C3805 1.393 . S
C3809 C3808 1.391 . S
C3810 H3800 0.950 . S
C3810 C3811 1.386 . S
C3810 C3812 1.391 . S
C3811 C3810 1.386 . S
C3811 C3815 1.393 1_554 S
C3812 H3801 0.950 . S
C3812 C3810 1.391 . S
C3812 C3813 1.400 1_554 S
C3813 C3807 1.491 . S
C3813 C3812 1.400 1_556 S
C3813 C3814 1.398 . S
C3814 H3802 0.950 . S
C3814 C3813 1.398 . S
C3814 C3815 1.391 . S
C3815 H3803 0.950 . S
C3815 C3811 1.393 1_556 S
C3815 C3814 1.391 . S
H3816 C3824 0.950 . S
H3817 C3829 0.950 . S
H3818 C3826 0.950 . S
H3819 C3828 0.950 . S
H3820 C3830 0.950 . S
H3821 C3832 0.950 . S
H3822 C3834 0.950 . S
H3823 C3835 0.950 . S
C3824 H3816 0.950 . S
C3824 C3825 1.386 . S
C3824 C3826 1.391 . S
C3825 C3824 1.386 . S
C3825 C3829 1.393 . S
C3826 H3818 0.950 . S
C3826 C3824 1.391 . S
C3826 C3827 1.400 . S
C3827 C3826 1.400 . S
C3827 C3828 1.398 . S
C3827 C3833 1.491 . S
C3828 H3819 0.950 . S
C3828 C3827 1.398 . S
C3828 C3829 1.391 . S
C3829 H3817 0.950 . S
C3829 C3825 1.393 . S
C3829 C3828 1.391 . S
C3830 H3820 0.950 . S
C3830 C3831 1.386 . S
C3830 C3832 1.391 . S
C3831 C3830 1.386 . S
C3831 C3835 1.393 . S
C3832 H3821 0.950 . S
C3832 C3830 1.391 . S
C3832 C3833 1.400 . S
C3833 C3827 1.491 . S
C3833 C3832 1.400 . S
C3833 C3834 1.398 . S
C3834 H3822 0.950 . S
C3834 C3833 1.398 . S
C3834 C3835 1.391 . S
C3835 H3823 0.950 . S
C3835 C3831 1.393 . S
C3835 C3834 1.391 . S
H3836 C3844 0.950 . S
H3837 C3849 0.950 . S
H3838 C3846 0.950 . S
H3839 C3848 0.950 . S
H3840 C3850 0.950 . S
H3841 C3852 0.950 . S
H3842 C3854 0.950 . S
H3843 C3855 0.966 . S
C3844 H3836 0.950 . S
C3844 C3845 1.386 . S
C3844 C3846 1.391 . S
C3845 C3844 1.386 . S
C3845 C3849 1.393 . S
C3846 H3838 0.950 . S
C3846 C3844 1.391 . S
C3846 C3847 1.400 . S
C3847 C3846 1.400 . S
C3847 C3848 1.398 . S
C3847 C3853 1.491 . S
C3848 H3839 0.950 . S
C3848 C3847 1.398 . S
C3848 C3849 1.391 . S
C3849 H3837 0.950 . S
C3849 C3845 1.393 . S
C3849 C3848 1.391 . S
C3850 H3840 0.950 . S
C3850 C3851 1.386 . S
C3850 C3852 1.391 1_455 S
C3851 C3850 1.386 . S
C3851 C3855 1.441 . S
C3852 H3841 0.950 . S
C3852 C3850 1.391 1_655 S
C3852 C3853 1.400 . S
C3853 C3847 1.491 . S
C3853 C3852 1.400 . S
C3853 C3854 1.398 . S
C3854 H3842 0.950 . S
C3854 C3853 1.398 . S
C3854 C3855 1.329 1_655 S
C3855 H3843 0.966 . S
C3855 C3851 1.441 . S
C3855 C3854 1.329 1_455 S
H3856 C3864 0.950 . S
H3857 C3869 0.950 . S
H3858 C3866 0.950 . S
H3859 C3868 0.950 . S
H3860 C3870 0.950 . S
H3861 C3872 0.950 . S
H3862 C3874 0.950 . S
H3863 C3875 0.950 . S
C3864 H3856 0.950 . S
C3864 C3865 1.386 . S
C3864 C3866 1.391 . S
C3865 C3864 1.386 . S
C3865 C3869 1.393 . S
C3866 H3858 0.950 . S
C3866 C3864 1.391 . S
C3866 C3867 1.400 . S
C3867 C3866 1.400 . S
C3867 C3868 1.398 . S
C3867 C3873 1.491 . S
C3868 H3859 0.950 . S
C3868 C3867 1.398 . S
C3868 C3869 1.391 . S
C3869 H3857 0.950 . S
C3869 C3865 1.393 . S
C3869 C3868 1.391 . S
C3870 H3860 0.950 . S
C3870 C3871 1.386 . S
C3870 C3872 1.391 . S
C3871 C3870 1.386 . S
C3871 C3875 1.393 . S
C3872 H3861 0.950 . S
C3872 C3870 1.391 . S
C3872 C3873 1.400 . S
C3873 C3867 1.491 . S
C3873 C3872 1.400 . S
C3873 C3874 1.398 . S
C3874 H3862 0.950 . S
C3874 C3873 1.398 . S
C3874 C3875 1.391 . S
C3875 H3863 0.950 . S
C3875 C3871 1.393 . S
C3875 C3874 1.391 . S
H3876 C3884 0.950 . S
H3877 C3889 0.950 . S
H3878 C3886 0.950 . S
H3879 C3888 0.950 . S
H3880 C3890 0.950 . S
H3881 C3892 0.950 . S
H3882 C3894 0.950 . S
H3883 C3895 0.950 . S
C3884 H3876 0.950 . S
C3884 C3885 1.386 . S
C3884 C3886 1.391 . S
C3885 C3884 1.386 . S
C3885 C3889 1.393 . S
C3886 H3878 0.950 . S
C3886 C3884 1.391 . S
C3886 C3887 1.400 . S
C3887 C3886 1.400 . S
C3887 C3888 1.398 . S
C3887 C3893 1.491 . S
C3888 H3879 0.950 . S
C3888 C3887 1.398 . S
C3888 C3889 1.391 . S
C3889 H3877 0.950 . S
C3889 C3885 1.393 . S
C3889 C3888 1.391 . S
C3890 H3880 0.950 . S
C3890 C3891 1.386 . S
C3890 C3892 1.391 . S
C3891 C3890 1.386 . S
C3891 C3895 1.393 . S
C3892 H3881 0.950 . S
C3892 C3890 1.391 . S
C3892 C3893 1.400 . S
C3893 C3887 1.491 . S
C3893 C3892 1.400 . S
C3893 C3894 1.398 . S
C3894 H3882 0.950 . S
C3894 C3893 1.398 . S
C3894 C3895 1.391 . S
C3895 H3883 0.950 . S
C3895 C3891 1.393 . S
C3895 C3894 1.391 . S
H3896 C3904 0.950 . S
H3897 C3909 0.950 . S
H3898 C3906 0.950 . S
H3899 C3908 0.950 . S
H3900 C3910 0.950 . S
H3901 C3912 0.950 . S
H3902 C3914 0.950 . S
H3903 C3915 0.950 . S
C3904 H3896 0.950 . S
C3904 C3905 1.386 . S
C3904 C3906 1.391 . S
C3905 C3904 1.386 . S
C3905 C3909 1.393 . S
C3906 H3898 0.950 . S
C3906 C3904 1.391 . S
C3906 C3907 1.400 . S
C3907 C3906 1.400 . S
C3907 C3908 1.398 . S
C3907 C3913 1.491 . S
C3908 H3899 0.950 . S
C3908 C3907 1.398 . S
C3908 C3909 1.391 . S
C3909 H3897 0.950 . S
C3909 C3905 1.393 . S
C3909 C3908 1.391 . S
C3910 H3900 0.950 . S
C3910 C3911 1.386 . S
C3910 C3912 1.391 . S
C3911 C3910 1.386 . S
C3911 C3915 1.393 . S
C3912 H3901 0.950 . S
C3912 C3910 1.391 . S
C3912 C3913 1.400 . S
C3913 C3907 1.491 . S
C3913 C3912 1.400 . S
C3913 C3914 1.398 . S
C3914 H3902 0.950 . S
C3914 C3913 1.398 . S
C3914 C3915 1.391 . S
C3915 H3903 0.950 . S
C3915 C3911 1.393 . S
C3915 C3914 1.391 . S
H3916 C3924 0.950 . S
H3917 C3929 0.950 . S
H3918 C3926 0.950 . S
H3919 C3928 0.950 . S
H3920 C3930 0.950 . S
H3921 C3932 0.950 . S
H3922 C3934 0.950 . S
H3923 C3935 0.950 . S
C3924 H3916 0.950 . S
C3924 C3925 1.386 . S
C3924 C3926 1.391 . S
C3925 C3924 1.386 . S
C3925 C3929 1.393 . S
C3926 H3918 0.950 . S
C3926 C3924 1.391 . S
C3926 C3927 1.400 . S
C3927 C3926 1.400 . S
C3927 C3928 1.398 . S
C3927 C3933 1.491 . S
C3928 H3919 0.950 . S
C3928 C3927 1.398 . S
C3928 C3929 1.391 . S
C3929 H3917 0.950 . S
C3929 C3925 1.393 . S
C3929 C3928 1.391 . S
C3930 H3920 0.950 . S
C3930 C3931 1.386 . S
C3930 C3932 1.391 . S
C3931 C3930 1.386 . S
C3931 C3935 1.393 . S
C3932 H3921 0.950 . S
C3932 C3930 1.391 . S
C3932 C3933 1.400 . S
C3933 C3927 1.491 . S
C3933 C3932 1.400 . S
C3933 C3934 1.398 . S
C3934 H3922 0.950 . S
C3934 C3933 1.398 . S
C3934 C3935 1.391 . S
C3935 H3923 0.950 . S
C3935 C3931 1.393 . S
C3935 C3934 1.391 . S
H3936 C3944 0.950 . S
H3937 C3949 0.950 . S
H3938 C3946 0.950 . S
H3939 C3948 0.950 . S
H3940 C3950 0.950 1_556 S
H3941 C3952 0.950 . S
H3942 C3954 0.950 . S
H3943 C3955 0.950 . S
C3944 H3936 0.950 . S
C3944 C3945 1.386 . S
C3944 C3946 1.391 . S
C3945 C3944 1.386 . S
C3945 C3949 1.393 . S
C3946 H3938 0.950 . S
C3946 C3944 1.391 . S
C3946 C3947 1.400 . S
C3947 C3946 1.400 . S
C3947 C3948 1.398 . S
C3947 C3953 1.491 . S
C3948 H3939 0.950 . S
C3948 C3947 1.398 . S
C3948 C3949 1.391 . S
C3949 H3937 0.950 . S
C3949 C3945 1.393 . S
C3949 C3948 1.391 . S
C3950 H3940 0.950 1_554 S
C3950 C3951 1.386 . S
C3950 C3952 1.391 . S
C3951 C3950 1.386 . S
C3951 C3955 1.393 . S
C3952 H3941 0.950 . S
C3952 C3950 1.391 . S
C3952 C3953 1.400 . S
C3953 C3947 1.491 . S
C3953 C3952 1.400 . S
C3953 C3954 1.398 . S
C3954 H3942 0.950 . S
C3954 C3953 1.398 . S
C3954 C3955 1.391 . S
C3955 H3943 0.950 . S
C3955 C3951 1.393 . S
C3955 C3954 1.391 . S
H3956 C3964 0.950 . S
H3957 C3969 0.950 . S
H3958 C3966 0.950 . S
H3959 C3968 0.950 . S
H3960 C3970 0.950 . S
H3961 C3972 0.950 . S
H3962 C3974 0.950 . S
H3963 C3975 0.950 . S
C3964 H3956 0.950 . S
C3964 C3965 1.386 . S
C3964 C3966 1.391 . S
C3965 C3964 1.386 . S
C3965 C3969 1.393 . S
C3966 H3958 0.950 . S
C3966 C3964 1.391 . S
C3966 C3967 1.400 . S
C3967 C3966 1.400 . S
C3967 C3968 1.398 . S
C3967 C3973 1.491 . S
C3968 H3959 0.950 . S
C3968 C3967 1.398 . S
C3968 C3969 1.391 . S
C3969 H3957 0.950 . S
C3969 C3965 1.393 . S
C3969 C3968 1.391 . S
C3970 H3960 0.950 . S
C3970 C3971 1.386 . S
C3970 C3972 1.391 . S
C3971 C3970 1.386 . S
C3971 C3975 1.393 . S
C3972 H3961 0.950 . S
C3972 C3970 1.391 . S
C3972 C3973 1.400 . S
C3973 C3967 1.491 . S
C3973 C3972 1.400 . S
C3973 C3974 1.398 . S
C3974 H3962 0.950 . S
C3974 C3973 1.398 . S
C3974 C3975 1.391 . S
C3975 H3963 0.950 . S
C3975 C3971 1.393 . S
C3975 C3974 1.391 . S
H3976 C3984 0.950 . S
H3977 C3989 0.950 . S
H3978 C3986 0.950 . S
H3979 C3988 0.950 . S
H3980 C3990 0.950 . S
H3981 C3992 0.950 . S
H3982 C3994 0.950 . S
H3983 C3995 0.950 . S
C3984 H3976 0.950 . S
C3984 C3985 1.386 . S
C3984 C3986 1.391 . S
C3985 C3984 1.386 . S
C3985 C3989 1.393 . S
C3986 H3978 0.950 . S
C3986 C3984 1.391 . S
C3986 C3987 1.400 . S
C3987 C3986 1.400 . S
C3987 C3988 1.398 . S
C3987 C3993 1.491 . S
C3988 H3979 0.950 . S
C3988 C3987 1.398 . S
C3988 C3989 1.391 . S
C3989 H3977 0.950 . S
C3989 C3985 1.393 . S
C3989 C3988 1.391 . S
C3990 H3980 0.950 . S
C3990 C3991 1.386 . S
C3990 C3992 1.391 . S
C3991 C3990 1.386 . S
C3991 C3995 1.393 . S
C3992 H3981 0.950 . S
C3992 C3990 1.391 . S
C3992 C3993 1.400 . S
C3993 C3987 1.491 . S
C3993 C3992 1.400 . S
C3993 C3994 1.398 . S
C3994 H3982 0.950 . S
C3994 C3993 1.398 . S
C3994 C3995 1.391 . S
C3995 H3983 0.950 . S
C3995 C3991 1.393 . S
C3995 C3994 1.391 . S
H3996 C4004 0.950 . S
H3997 C4009 0.950 . S
H3998 C4006 0.950 . S
H3999 C4008 0.950 . S
H4000 C4010 0.950 . S
H4001 C4012 0.950 . S
H4002 C4014 0.950 . S
H4003 C4015 0.950 . S
C4004 H3996 0.950 . S
C4004 C4005 1.386 . S
C4004 C4006 1.391 . S
C4005 C4004 1.386 . S
C4005 C4009 1.393 . S
C4006 H3998 0.950 . S
C4006 C4004 1.391 . S
C4006 C4007 1.400 . S
C4007 C4006 1.400 . S
C4007 C4008 1.398 . S
C4007 C4013 1.491 . S
C4008 H3999 0.950 . S
C4008 C4007 1.398 . S
C4008 C4009 1.391 . S
C4009 H3997 0.950 . S
C4009 C4005 1.393 . S
C4009 C4008 1.391 . S
C4010 H4000 0.950 . S
C4010 C4011 1.386 . S
C4010 C4012 1.391 . S
C4011 C4010 1.386 . S
C4011 C4015 1.393 . S
C4012 H4001 0.950 . S
C4012 C4010 1.391 . S
C4012 C4013 1.400 . S
C4013 C4007 1.491 . S
C4013 C4012 1.400 . S
C4013 C4014 1.398 . S
C4014 H4002 0.950 . S
C4014 C4013 1.398 . S
C4014 C4015 1.391 . S
C4015 H4003 0.950 . S
C4015 C4011 1.393 . S
C4015 C4014 1.391 . S
H4016 C4024 0.950 . S
H4017 C4029 0.950 . S
H4018 C4026 0.950 . S
H4019 C4028 0.950 . S
H4020 C4030 0.950 . S
H4021 C4032 0.950 . S
H4022 C4034 0.950 . S
H4023 C4035 0.950 . S
C4024 H4016 0.950 . S
C4024 C4025 1.386 . S
C4024 C4026 1.391 . S
C4025 C4024 1.386 . S
C4025 C4029 1.393 . S
C4026 H4018 0.950 . S
C4026 C4024 1.391 . S
C4026 C4027 1.400 . S
C4027 C4026 1.400 . S
C4027 C4028 1.398 . S
C4027 C4033 1.491 . S
C4028 H4019 0.950 . S
C4028 C4027 1.398 . S
C4028 C4029 1.391 . S
C4029 H4017 0.950 . S
C4029 C4025 1.393 . S
C4029 C4028 1.391 . S
C4030 H4020 0.950 . S
C4030 C4031 1.386 . S
C4030 C4032 1.391 . S
C4031 C4030 1.386 . S
C4031 C4035 1.393 . S
C4032 H4021 0.950 . S
C4032 C4030 1.391 . S
C4032 C4033 1.400 . S
C4033 C4027 1.491 . S
C4033 C4032 1.400 . S
C4033 C4034 1.398 . S
C4034 H4022 0.950 . S
C4034 C4033 1.398 . S
C4034 C4035 1.391 . S
C4035 H4023 0.950 . S
C4035 C4031 1.393 . S
C4035 C4034 1.391 . S
H4036 C4044 0.950 . S
H4037 C4049 0.950 . S
H4038 C4046 0.950 . S
H4039 C4048 0.950 . S
H4040 C4050 0.950 . S
H4041 C4052 0.950 . S
H4042 C4054 0.950 . S
H4043 C4055 0.950 . S
C4044 H4036 0.950 . S
C4044 C4045 1.386 . S
C4044 C4046 1.391 . S
C4045 C4044 1.386 . S
C4045 C4049 1.393 . S
C4046 H4038 0.950 . S
C4046 C4044 1.391 . S
C4046 C4047 1.400 . S
C4047 C4046 1.400 . S
C4047 C4048 1.398 . S
C4047 C4053 1.491 . S
C4048 H4039 0.950 . S
C4048 C4047 1.398 . S
C4048 C4049 1.391 . S
C4049 H4037 0.950 . S
C4049 C4045 1.393 . S
C4049 C4048 1.391 . S
C4050 H4040 0.950 . S
C4050 C4051 1.386 . S
C4050 C4052 1.391 . S
C4051 C4050 1.386 . S
C4051 C4055 1.393 . S
C4052 H4041 0.950 . S
C4052 C4050 1.391 . S
C4052 C4053 1.400 . S
C4053 C4047 1.491 . S
C4053 C4052 1.400 . S
C4053 C4054 1.398 . S
C4054 H4042 0.950 . S
C4054 C4053 1.398 . S
C4054 C4055 1.391 . S
C4055 H4043 0.950 . S
C4055 C4051 1.393 . S
C4055 C4054 1.391 . S
H4056 C4064 0.950 . S
H4057 C4069 0.950 . S
H4058 C4066 0.950 . S
H4059 C4068 0.950 . S
H4060 C4070 0.950 . S
H4061 C4072 0.950 . S
H4062 C4074 0.950 . S
H4063 C4075 0.950 . S
C4064 H4056 0.950 . S
C4064 C4065 1.386 . S
C4064 C4066 1.391 . S
C4065 C4064 1.386 . S
C4065 C4069 1.393 . S
C4066 H4058 0.950 . S
C4066 C4064 1.391 . S
C4066 C4067 1.400 . S
C4067 C4066 1.400 . S
C4067 C4068 1.398 . S
C4067 C4073 1.491 . S
C4068 H4059 0.950 . S
C4068 C4067 1.398 . S
C4068 C4069 1.391 . S
C4069 H4057 0.950 . S
C4069 C4065 1.393 . S
C4069 C4068 1.391 . S
C4070 H4060 0.950 . S
C4070 C4071 1.386 1_545 S
C4070 C4072 1.391 1_545 S
C4071 C4070 1.386 1_565 S
C4071 C4075 1.393 . S
C4072 H4061 0.950 . S
C4072 C4070 1.391 1_565 S
C4072 C4073 1.400 . S
C4073 C4067 1.491 . S
C4073 C4072 1.400 . S
C4073 C4074 1.398 . S
C4074 H4062 0.950 . S
C4074 C4073 1.398 . S
C4074 C4075 1.391 . S
C4075 H4063 0.950 . S
C4075 C4071 1.393 . S
C4075 C4074 1.391 . S
H4076 C4084 0.950 . S
H4077 C4089 0.950 . S
H4078 C4086 0.950 . S
H4079 C4088 0.950 . S
H4080 C4090 0.950 . S
H4081 C4092 0.950 . S
H4082 C4094 0.950 . S
H4083 C4095 0.950 . S
C4084 H4076 0.950 . S
C4084 C4085 1.386 . S
C4084 C4086 1.391 . S
C4085 C4084 1.386 . S
C4085 C4089 1.393 . S
C4086 H4078 0.950 . S
C4086 C4084 1.391 . S
C4086 C4087 1.400 . S
C4087 C4086 1.400 . S
C4087 C4088 1.398 . S
C4087 C4093 1.491 . S
C4088 H4079 0.950 . S
C4088 C4087 1.398 . S
C4088 C4089 1.391 . S
C4089 H4077 0.950 . S
C4089 C4085 1.393 . S
C4089 C4088 1.391 . S
C4090 H4080 0.950 . S
C4090 C4091 1.386 . S
C4090 C4092 1.391 . S
C4091 C4090 1.386 . S
C4091 C4095 1.393 . S
C4092 H4081 0.950 . S
C4092 C4090 1.391 . S
C4092 C4093 1.400 . S
C4093 C4087 1.491 . S
C4093 C4092 1.400 . S
C4093 C4094 1.398 . S
C4094 H4082 0.950 . S
C4094 C4093 1.398 . S
C4094 C4095 1.391 . S
C4095 H4083 0.950 . S
C4095 C4091 1.393 . S
C4095 C4094 1.391 . S
H4096 C4104 0.950 . S
H4097 C4109 0.950 . S
H4098 C4106 0.950 . S
H4099 C4108 0.950 . S
H4100 C4110 0.950 . S
H4101 C4112 0.950 . S
H4102 C4114 0.950 1_565 S
H4103 C4115 0.950 1_565 S
C4104 H4096 0.950 . S
C4104 C4105 1.386 1_565 S
C4104 C4106 1.391 . S
C4105 C4104 1.386 1_545 S
C4105 C4109 1.393 . S
C4106 H4098 0.950 . S
C4106 C4104 1.391 . S
C4106 C4107 1.400 1_565 S
C4107 C4106 1.400 1_545 S
C4107 C4108 1.398 . S
C4107 C4113 1.491 . S
C4108 H4099 0.950 . S
C4108 C4107 1.398 . S
C4108 C4109 1.391 . S
C4109 H4097 0.950 . S
C4109 C4105 1.393 . S
C4109 C4108 1.391 . S
C4110 H4100 0.950 . S
C4110 C4111 1.386 . S
C4110 C4112 1.391 . S
C4111 C4110 1.386 . S
C4111 C4115 1.393 . S
C4112 H4101 0.950 . S
C4112 C4110 1.391 . S
C4112 C4113 1.400 . S
C4113 C4107 1.491 . S
C4113 C4112 1.400 . S
C4113 C4114 1.398 . S
C4114 H4102 0.950 1_545 S
C4114 C4113 1.398 . S
C4114 C4115 1.391 . S
C4115 H4103 0.950 1_545 S
C4115 C4111 1.393 . S
C4115 C4114 1.391 . S
H4116 C4124 0.950 . S
H4117 C4129 0.950 . S
H4118 C4126 0.950 . S
H4119 C4128 0.950 . S
H4120 C4130 0.950 . S
H4121 C4132 0.950 . S
H4122 C4134 0.950 . S
H4123 C4135 0.950 . S
C4124 H4116 0.950 . S
C4124 C4125 1.386 . S
C4124 C4126 1.391 . S
C4125 C4124 1.386 . S
C4125 C4129 1.393 . S
C4126 H4118 0.950 . S
C4126 C4124 1.391 . S
C4126 C4127 1.400 . S
C4127 C4126 1.400 . S
C4127 C4128 1.398 . S
C4127 C4133 1.491 . S
C4128 H4119 0.950 . S
C4128 C4127 1.398 . S
C4128 C4129 1.391 . S
C4129 H4117 0.950 . S
C4129 C4125 1.393 . S
C4129 C4128 1.391 . S
C4130 H4120 0.950 . S
C4130 C4131 1.386 . S
C4130 C4132 1.391 . S
C4131 C4130 1.386 . S
C4131 C4135 1.393 . S
C4132 H4121 0.950 . S
C4132 C4130 1.391 . S
C4132 C4133 1.400 . S
C4133 C4127 1.491 . S
C4133 C4132 1.400 . S
C4133 C4134 1.398 . S
C4134 H4122 0.950 . S
C4134 C4133 1.398 . S
C4134 C4135 1.391 . S
C4135 H4123 0.950 . S
C4135 C4131 1.393 . S
C4135 C4134 1.391 . S
H4136 C4144 0.950 . S
H4137 C4149 0.950 . S
H4138 C4146 0.950 . S
H4139 C4148 0.950 . S
H4140 C4150 0.950 . S
H4141 C4152 0.950 . S
H4142 C4154 0.950 . S
H4143 C4155 0.950 . S
C4144 H4136 0.950 . S
C4144 C4145 1.386 . S
C4144 C4146 1.391 . S
C4145 C4144 1.386 . S
C4145 C4149 1.393 . S
C4146 H4138 0.950 . S
C4146 C4144 1.391 . S
C4146 C4147 1.400 . S
C4147 C4146 1.400 . S
C4147 C4148 1.398 . S
C4147 C4153 1.491 . S
C4148 H4139 0.950 . S
C4148 C4147 1.398 . S
C4148 C4149 1.391 . S
C4149 H4137 0.950 . S
C4149 C4145 1.393 . S
C4149 C4148 1.391 . S
C4150 H4140 0.950 . S
C4150 C4151 1.386 . S
C4150 C4152 1.391 . S
C4151 C4150 1.386 . S
C4151 C4155 1.393 . S
C4152 H4141 0.950 . S
C4152 C4150 1.391 . S
C4152 C4153 1.400 . S
C4153 C4147 1.491 . S
C4153 C4152 1.400 . S
C4153 C4154 1.398 . S
C4154 H4142 0.950 . S
C4154 C4153 1.398 . S
C4154 C4155 1.391 . S
C4155 H4143 0.950 . S
C4155 C4151 1.393 . S
C4155 C4154 1.391 . S
H4156 C4164 0.950 . S
H4157 C4169 0.950 . S
H4158 C4166 0.950 . S
H4159 C4168 0.950 . S
H4160 C4170 0.950 . S
H4161 C4172 0.950 . S
H4162 C4174 0.950 . S
H4163 C4175 0.950 . S
C4164 H4156 0.950 . S
C4164 C4165 1.386 . S
C4164 C4166 1.391 . S
C4165 C4164 1.386 . S
C4165 C4169 1.393 . S
C4166 H4158 0.950 . S
C4166 C4164 1.391 . S
C4166 C4167 1.400 . S
C4167 C4166 1.400 . S
C4167 C4168 1.398 . S
C4167 C4173 1.491 . S
C4168 H4159 0.950 . S
C4168 C4167 1.398 . S
C4168 C4169 1.391 . S
C4169 H4157 0.950 . S
C4169 C4165 1.393 . S
C4169 C4168 1.391 . S
C4170 H4160 0.950 . S
C4170 C4171 1.386 . S
C4170 C4172 1.391 . S
C4171 C4170 1.386 . S
C4171 C4175 1.393 . S
C4172 H4161 0.950 . S
C4172 C4170 1.391 . S
C4172 C4173 1.400 . S
C4173 C4167 1.491 . S
C4173 C4172 1.400 . S
C4173 C4174 1.398 . S
C4174 H4162 0.950 . S
C4174 C4173 1.398 . S
C4174 C4175 1.391 . S
C4175 H4163 0.950 . S
C4175 C4171 1.393 . S
C4175 C4174 1.391 . S
H4176 C4184 0.950 . S
H4177 C4189 0.950 . S
H4178 C4186 0.950 . S
H4179 C4188 0.950 . S
H4180 C4190 0.950 . S
H4181 C4192 0.950 1_565 S
H4182 C4194 0.950 . S
H4183 C4195 0.950 . S
C4184 H4176 0.950 . S
C4184 C4185 1.386 1_545 S
C4184 C4186 1.391 . S
C4185 C4184 1.386 1_565 S
C4185 C4189 1.393 . S
C4186 H4178 0.950 . S
C4186 C4184 1.391 . S
C4186 C4187 1.400 . S
C4187 C4186 1.400 . S
C4187 C4188 1.398 1_545 S
C4187 C4193 1.491 . S
C4188 H4179 0.950 . S
C4188 C4187 1.398 1_565 S
C4188 C4189 1.391 . S
C4189 H4177 0.950 . S
C4189 C4185 1.393 . S
C4189 C4188 1.391 . S
C4190 H4180 0.950 . S
C4190 C4191 1.386 . S
C4190 C4192 1.391 . S
C4191 C4190 1.386 . S
C4191 C4195 1.393 . S
C4192 H4181 0.950 1_545 S
C4192 C4190 1.391 . S
C4192 C4193 1.400 . S
C4193 C4187 1.491 . S
C4193 C4192 1.400 . S
C4193 C4194 1.398 . S
C4194 H4182 0.950 . S
C4194 C4193 1.398 . S
C4194 C4195 1.391 . S
C4195 H4183 0.950 . S
C4195 C4191 1.393 . S
C4195 C4194 1.391 . S
H4196 C4204 0.950 . S
H4197 C4209 0.950 . S
H4198 C4206 0.950 . S
H4199 C4208 0.950 . S
H4200 C4210 0.950 . S
H4201 C4212 0.950 . S
H4202 C4214 0.950 . S
H4203 C4215 0.950 . S
C4204 H4196 0.950 . S
C4204 C4205 1.386 . S
C4204 C4206 1.391 . S
C4205 C4204 1.386 . S
C4205 C4209 1.393 . S
C4206 H4198 0.950 . S
C4206 C4204 1.391 . S
C4206 C4207 1.400 . S
C4207 C4206 1.400 . S
C4207 C4208 1.398 . S
C4207 C4213 1.491 . S
C4208 H4199 0.950 . S
C4208 C4207 1.398 . S
C4208 C4209 1.391 . S
C4209 H4197 0.950 . S
C4209 C4205 1.393 . S
C4209 C4208 1.391 . S
C4210 H4200 0.950 . S
C4210 C4211 1.386 . S
C4210 C4212 1.391 . S
C4211 C4210 1.386 . S
C4211 C4215 1.393 . S
C4212 H4201 0.950 . S
C4212 C4210 1.391 . S
C4212 C4213 1.400 . S
C4213 C4207 1.491 . S
C4213 C4212 1.400 . S
C4213 C4214 1.398 . S
C4214 H4202 0.950 . S
C4214 C4213 1.398 . S
C4214 C4215 1.391 . S
C4215 H4203 0.950 . S
C4215 C4211 1.393 . S
C4215 C4214 1.391 . S
H4216 C4224 0.950 . S
H4217 C4229 0.950 . S
H4218 C4226 0.950 . S
H4219 C4228 0.950 . S
H4220 C4230 0.950 . S
H4221 C4232 0.950 . S
H4222 C4234 0.950 . S
H4223 C4235 0.950 . S
C4224 H4216 0.950 . S
C4224 C4225 1.386 . S
C4224 C4226 1.391 . S
C4225 C4224 1.386 . S
C4225 C4229 1.393 . S
C4226 H4218 0.950 . S
C4226 C4224 1.391 . S
C4226 C4227 1.400 . S
C4227 C4226 1.400 . S
C4227 C4228 1.398 . S
C4227 C4233 1.491 . S
C4228 H4219 0.950 . S
C4228 C4227 1.398 . S
C4228 C4229 1.391 . S
C4229 H4217 0.950 . S
C4229 C4225 1.393 . S
C4229 C4228 1.391 . S
C4230 H4220 0.950 . S
C4230 C4231 1.386 . S
C4230 C4232 1.391 . S
C4231 C4230 1.386 . S
C4231 C4235 1.393 . S
C4232 H4221 0.950 . S
C4232 C4230 1.391 . S
C4232 C4233 1.400 . S
C4233 C4227 1.491 . S
C4233 C4232 1.400 . S
C4233 C4234 1.398 . S
C4234 H4222 0.950 . S
C4234 C4233 1.398 . S
C4234 C4235 1.391 . S
C4235 H4223 0.950 . S
C4235 C4231 1.393 . S
C4235 C4234 1.391 . S
H4236 C4244 0.950 . S
H4237 C4249 0.950 . S
H4238 C4246 0.950 . S
H4239 C4248 0.950 . S
H4240 C4250 0.950 . S
H4241 C4252 0.950 . S
H4242 C4254 0.950 . S
H4243 C4255 0.950 . S
C4244 H4236 0.950 . S
C4244 C4245 1.386 . S
C4244 C4246 1.391 . S
C4245 C4244 1.386 . S
C4245 C4249 1.393 . S
C4246 H4238 0.950 . S
C4246 C4244 1.391 . S
C4246 C4247 1.400 . S
C4247 C4246 1.400 . S
C4247 C4248 1.398 . S
C4247 C4253 1.491 . S
C4248 H4239 0.950 . S
C4248 C4247 1.398 . S
C4248 C4249 1.391 . S
C4249 H4237 0.950 . S
C4249 C4245 1.393 . S
C4249 C4248 1.391 . S
C4250 H4240 0.950 . S
C4250 C4251 1.386 . S
C4250 C4252 1.391 . S
C4251 C4250 1.386 . S
C4251 C4255 1.393 . S
C4252 H4241 0.950 . S
C4252 C4250 1.391 . S
C4252 C4253 1.400 . S
C4253 C4247 1.491 . S
C4253 C4252 1.400 . S
C4253 C4254 1.398 . S
C4254 H4242 0.950 . S
C4254 C4253 1.398 . S
C4254 C4255 1.391 . S
C4255 H4243 0.950 . S
C4255 C4251 1.393 . S
C4255 C4254 1.391 . S
H4256 C4264 0.950 . S
H4257 C4269 0.950 . S
H4258 C4266 0.950 . S
H4259 C4268 0.950 . S
H4260 C4270 0.950 . S
H4261 C4272 0.950 . S
H4262 C4274 0.950 . S
H4263 C4275 0.950 . S
C4264 H4256 0.950 . S
C4264 C4265 1.386 . S
C4264 C4266 1.391 . S
C4265 C4264 1.386 . S
C4265 C4269 1.393 . S
C4266 H4258 0.950 . S
C4266 C4264 1.391 . S
C4266 C4267 1.400 . S
C4267 C4266 1.400 . S
C4267 C4268 1.398 . S
C4267 C4273 1.491 . S
C4268 H4259 0.950 . S
C4268 C4267 1.398 . S
C4268 C4269 1.391 . S
C4269 H4257 0.950 . S
C4269 C4265 1.393 . S
C4269 C4268 1.391 . S
C4270 H4260 0.950 . S
C4270 C4271 1.386 . S
C4270 C4272 1.391 . S
C4271 C4270 1.386 . S
C4271 C4275 1.393 . S
C4272 H4261 0.950 . S
C4272 C4270 1.391 . S
C4272 C4273 1.400 . S
C4273 C4267 1.491 . S
C4273 C4272 1.400 . S
C4273 C4274 1.398 . S
C4274 H4262 0.950 . S
C4274 C4273 1.398 . S
C4274 C4275 1.391 . S
C4275 H4263 0.950 . S
C4275 C4271 1.393 . S
C4275 C4274 1.391 . S
H4276 C4284 0.950 . S
H4277 C4289 0.950 . S
H4278 C4286 0.950 . S
H4279 C4288 0.950 . S
H4280 C4290 0.950 . S
H4281 C4292 0.950 . S
H4282 C4294 0.950 . S
H4283 C4295 0.950 . S
C4284 H4276 0.950 . S
C4284 C4285 1.386 . S
C4284 C4286 1.391 . S
C4285 C4284 1.386 . S
C4285 C4289 1.393 . S
C4286 H4278 0.950 . S
C4286 C4284 1.391 . S
C4286 C4287 1.400 . S
C4287 C4286 1.400 . S
C4287 C4288 1.398 . S
C4287 C4293 1.491 . S
C4288 H4279 0.950 . S
C4288 C4287 1.398 . S
C4288 C4289 1.391 . S
C4289 H4277 0.950 . S
C4289 C4285 1.393 . S
C4289 C4288 1.391 . S
C4290 H4280 0.950 . S
C4290 C4291 1.386 . S
C4290 C4292 1.391 . S
C4291 C4290 1.386 . S
C4291 C4295 1.393 . S
C4292 H4281 0.950 . S
C4292 C4290 1.391 . S
C4292 C4293 1.400 . S
C4293 C4287 1.491 . S
C4293 C4292 1.400 . S
C4293 C4294 1.398 . S
C4294 H4282 0.950 . S
C4294 C4293 1.398 . S
C4294 C4295 1.391 . S
C4295 H4283 0.950 . S
C4295 C4291 1.393 . S
C4295 C4294 1.391 . S
H4296 C4304 0.950 . S
H4297 C4309 0.950 . S
H4298 C4306 0.950 . S
H4299 C4308 0.950 . S
H4300 C4310 0.950 . S
H4301 C4312 0.950 . S
H4302 C4314 0.950 . S
H4303 C4315 0.950 . S
C4304 H4296 0.950 . S
C4304 C4305 1.386 . S
C4304 C4306 1.391 . S
C4305 C4304 1.386 . S
C4305 C4309 1.393 . S
C4306 H4298 0.950 . S
C4306 C4304 1.391 . S
C4306 C4307 1.400 . S
C4307 C4306 1.400 . S
C4307 C4308 1.398 . S
C4307 C4313 1.491 . S
C4308 H4299 0.950 . S
C4308 C4307 1.398 . S
C4308 C4309 1.391 . S
C4309 H4297 0.950 . S
C4309 C4305 1.393 . S
C4309 C4308 1.391 . S
C4310 H4300 0.950 . S
C4310 C4311 1.386 . S
C4310 C4312 1.391 . S
C4311 C4310 1.386 . S
C4311 C4315 1.393 . S
C4312 H4301 0.950 . S
C4312 C4310 1.391 . S
C4312 C4313 1.400 . S
C4313 C4307 1.491 . S
C4313 C4312 1.400 . S
C4313 C4314 1.398 . S
C4314 H4302 0.950 . S
C4314 C4313 1.398 . S
C4314 C4315 1.391 . S
C4315 H4303 0.950 . S
C4315 C4311 1.393 . S
C4315 C4314 1.391 . S
H4316 C4324 0.950 . S
H4317 C4329 0.950 . S
H4318 C4326 0.950 . S
H4319 C4328 0.950 . S
H4320 C4330 0.950 . S
H4321 C4332 0.950 . S
H4322 C4334 0.950 . S
H4323 C4335 0.950 . S
C4324 H4316 0.950 . S
C4324 C4325 1.386 . S
C4324 C4326 1.391 . S
C4325 C4324 1.386 . S
C4325 C4329 1.393 . S
C4326 H4318 0.950 . S
C4326 C4324 1.391 . S
C4326 C4327 1.400 . S
C4327 C4326 1.400 . S
C4327 C4328 1.398 . S
C4327 C4333 1.491 . S
C4328 H4319 0.950 . S
C4328 C4327 1.398 . S
C4328 C4329 1.391 . S
C4329 H4317 0.950 . S
C4329 C4325 1.393 . S
C4329 C4328 1.391 . S
C4330 H4320 0.950 . S
C4330 C4331 1.386 . S
C4330 C4332 1.391 . S
C4331 C4330 1.386 . S
C4331 C4335 1.393 . S
C4332 H4321 0.950 . S
C4332 C4330 1.391 . S
C4332 C4333 1.400 . S
C4333 C4327 1.491 . S
C4333 C4332 1.400 . S
C4333 C4334 1.398 . S
C4334 H4322 0.950 . S
C4334 C4333 1.398 . S
C4334 C4335 1.391 . S
C4335 H4323 0.950 . S
C4335 C4331 1.393 . S
C4335 C4334 1.391 . S
H4336 C4344 0.950 . S
H4337 C4349 0.950 . S
H4338 C4346 0.950 . S
H4339 C4348 0.950 . S
H4340 C4350 0.950 . S
H4341 C4352 0.950 . S
H4342 C4354 0.950 . S
H4343 C4355 0.950 . S
C4344 H4336 0.950 . S
C4344 C4345 1.386 . S
C4344 C4346 1.391 . S
C4345 C4344 1.386 . S
C4345 C4349 1.393 . S
C4346 H4338 0.950 . S
C4346 C4344 1.391 . S
C4346 C4347 1.400 . S
C4347 C4346 1.400 . S
C4347 C4348 1.398 . S
C4347 C4353 1.491 . S
C4348 H4339 0.950 . S
C4348 C4347 1.398 . S
C4348 C4349 1.391 . S
C4349 H4337 0.950 . S
C4349 C4345 1.393 . S
C4349 C4348 1.391 . S
C4350 H4340 0.950 . S
C4350 C4351 1.386 . S
C4350 C4352 1.391 . S
C4351 C4350 1.386 . S
C4351 C4355 1.393 . S
C4352 H4341 0.950 . S
C4352 C4350 1.391 . S
C4352 C4353 1.400 . S
C4353 C4347 1.491 . S
C4353 C4352 1.400 . S
C4353 C4354 1.398 . S
C4354 H4342 0.950 . S
C4354 C4353 1.398 . S
C4354 C4355 1.391 . S
C4355 H4343 0.950 . S
C4355 C4351 1.393 . S
C4355 C4354 1.391 . S
H4356 C4364 0.950 . S
H4357 C4369 0.950 . S
H4358 C4366 0.950 . S
H4359 C4368 0.950 . S
H4360 C4370 0.950 . S
H4361 C4372 0.950 . S
H4362 C4374 0.950 . S
H4363 C4375 0.950 . S
C4364 H4356 0.950 . S
C4364 C4365 1.386 . S
C4364 C4366 1.391 . S
C4365 C4364 1.386 . S
C4365 C4369 1.393 . S
C4366 H4358 0.950 . S
C4366 C4364 1.391 . S
C4366 C4367 1.400 . S
C4367 C4366 1.400 . S
C4367 C4368 1.398 . S
C4367 C4373 1.491 . S
C4368 H4359 0.950 . S
C4368 C4367 1.398 . S
C4368 C4369 1.391 . S
C4369 H4357 0.950 . S
C4369 C4365 1.393 . S
C4369 C4368 1.391 . S
C4370 H4360 0.950 . S
C4370 C4371 1.386 . S
C4370 C4372 1.391 . S
C4371 C4370 1.386 . S
C4371 C4375 1.393 . S
C4372 H4361 0.950 . S
C4372 C4370 1.391 . S
C4372 C4373 1.400 . S
C4373 C4367 1.491 . S
C4373 C4372 1.400 . S
C4373 C4374 1.398 . S
C4374 H4362 0.950 . S
C4374 C4373 1.398 . S
C4374 C4375 1.391 . S
C4375 H4363 0.950 . S
C4375 C4371 1.393 . S
C4375 C4374 1.391 . S
H4376 C4384 0.950 . S
H4377 C4389 0.950 . S
H4378 C4386 0.950 . S
H4379 C4388 0.950 . S
H4380 C4390 0.950 . S
H4381 C4392 0.950 . S
H4382 C4394 0.950 . S
H4383 C4395 0.950 . S
C4384 H4376 0.950 . S
C4384 C4385 1.386 . S
C4384 C4386 1.391 . S
C4385 C4384 1.386 . S
C4385 C4389 1.393 . S
C4386 H4378 0.950 . S
C4386 C4384 1.391 . S
C4386 C4387 1.400 . S
C4387 C4386 1.400 . S
C4387 C4388 1.398 . S
C4387 C4393 1.491 . S
C4388 H4379 0.950 . S
C4388 C4387 1.398 . S
C4388 C4389 1.391 . S
C4389 H4377 0.950 . S
C4389 C4385 1.393 . S
C4389 C4388 1.391 . S
C4390 H4380 0.950 . S
C4390 C4391 1.386 . S
C4390 C4392 1.391 . S
C4391 C4390 1.386 . S
C4391 C4395 1.393 . S
C4392 H4381 0.950 . S
C4392 C4390 1.391 . S
C4392 C4393 1.400 . S
C4393 C4387 1.491 . S
C4393 C4392 1.400 . S
C4393 C4394 1.398 . S
C4394 H4382 0.950 . S
C4394 C4393 1.398 . S
C4394 C4395 1.391 . S
C4395 H4383 0.950 . S
C4395 C4391 1.393 . S
C4395 C4394 1.391 . S
H4396 C4404 0.950 . S
H4397 C4409 0.950 . S
H4398 C4406 0.950 . S
H4399 C4408 0.950 . S
H4400 C4410 0.950 . S
H4401 C4412 0.950 . S
H4402 C4414 0.950 . S
H4403 C4415 0.950 . S
C4404 H4396 0.950 . S
C4404 C4405 1.386 . S
C4404 C4406 1.391 . S
C4405 C4404 1.386 . S
C4405 C4409 1.393 . S
C4406 H4398 0.950 . S
C4406 C4404 1.391 . S
C4406 C4407 1.400 . S
C4407 C4406 1.400 . S
C4407 C4408 1.398 . S
C4407 C4413 1.491 . S
C4408 H4399 0.950 . S
C4408 C4407 1.398 . S
C4408 C4409 1.391 . S
C4409 H4397 0.950 . S
C4409 C4405 1.393 . S
C4409 C4408 1.391 . S
C4410 H4400 0.950 . S
C4410 C4411 1.386 . S
C4410 C4412 1.391 . S
C4411 C4410 1.386 . S
C4411 C4415 1.393 . S
C4412 H4401 0.950 . S
C4412 C4410 1.391 . S
C4412 C4413 1.400 . S
C4413 C4407 1.491 . S
C4413 C4412 1.400 . S
C4413 C4414 1.398 . S
C4414 H4402 0.950 . S
C4414 C4413 1.398 . S
C4414 C4415 1.391 . S
C4415 H4403 0.950 . S
C4415 C4411 1.393 . S
C4415 C4414 1.391 . S
H4416 C4424 0.950 . S
H4417 C4429 0.950 . S
H4418 C4426 0.950 . S
H4419 C4428 0.950 . S
H4420 C4430 0.950 . S
H4421 C4432 0.950 . S
H4422 C4434 0.950 . S
H4423 C4435 0.950 . S
C4424 H4416 0.950 . S
C4424 C4425 1.386 . S
C4424 C4426 1.391 . S
C4425 C4424 1.386 . S
C4425 C4429 1.393 . S
C4426 H4418 0.950 . S
C4426 C4424 1.391 . S
C4426 C4427 1.400 . S
C4427 C4426 1.400 . S
C4427 C4428 1.398 . S
C4427 C4433 1.491 . S
C4428 H4419 0.950 . S
C4428 C4427 1.398 . S
C4428 C4429 1.391 . S
C4429 H4417 0.950 . S
C4429 C4425 1.393 . S
C4429 C4428 1.391 . S
C4430 H4420 0.950 . S
C4430 C4431 1.386 . S
C4430 C4432 1.391 . S
C4431 C4430 1.386 . S
C4431 C4435 1.393 . S
C4432 H4421 0.950 . S
C4432 C4430 1.391 . S
C4432 C4433 1.400 . S
C4433 C4427 1.491 . S
C4433 C4432 1.400 . S
C4433 C4434 1.398 . S
C4434 H4422 0.950 . S
C4434 C4433 1.398 . S
C4434 C4435 1.391 . S
C4435 H4423 0.950 . S
C4435 C4431 1.393 . S
C4435 C4434 1.391 . S
H4436 C4444 0.950 . S
H4437 C4449 0.950 . S
H4438 C4446 0.950 . S
H4439 C4448 0.950 . S
H4440 C4450 0.950 . S
H4441 C4452 0.950 . S
H4442 C4454 0.950 . S
H4443 C4455 0.950 . S
C4444 H4436 0.950 . S
C4444 C4445 1.386 . S
C4444 C4446 1.391 . S
C4445 C4444 1.386 . S
C4445 C4449 1.393 . S
C4446 H4438 0.950 . S
C4446 C4444 1.391 . S
C4446 C4447 1.400 . S
C4447 C4446 1.400 . S
C4447 C4448 1.398 . S
C4447 C4453 1.491 . S
C4448 H4439 0.950 . S
C4448 C4447 1.398 . S
C4448 C4449 1.391 . S
C4449 H4437 0.950 . S
C4449 C4445 1.393 . S
C4449 C4448 1.391 . S
C4450 H4440 0.950 . S
C4450 C4451 1.386 . S
C4450 C4452 1.391 . S
C4451 C4450 1.386 . S
C4451 C4455 1.393 . S
C4452 H4441 0.950 . S
C4452 C4450 1.391 . S
C4452 C4453 1.400 . S
C4453 C4447 1.491 . S
C4453 C4452 1.400 . S
C4453 C4454 1.398 . S
C4454 H4442 0.950 . S
C4454 C4453 1.398 . S
C4454 C4455 1.391 . S
C4455 H4443 0.950 . S
C4455 C4451 1.393 . S
C4455 C4454 1.391 . S
H4456 C4464 0.950 . S
H4457 C4469 0.950 . S
H4458 C4466 0.950 . S
H4459 C4468 0.950 . S
H4460 C4470 0.950 . S
H4461 C4472 0.950 . S
H4462 C4474 0.950 . S
H4463 C4475 0.950 . S
C4464 H4456 0.950 . S
C4464 C4465 1.386 1_556 S
C4464 C4466 1.391 . S
C4465 C4464 1.386 1_554 S
C4465 C4469 1.393 . S
C4466 H4458 0.950 . S
C4466 C4464 1.391 . S
C4466 C4467 1.400 1_556 S
C4467 C4466 1.400 1_554 S
C4467 C4468 1.398 . S
C4467 C4473 1.491 . S
C4468 H4459 0.950 . S
C4468 C4467 1.398 . S
C4468 C4469 1.391 . S
C4469 H4457 0.950 . S
C4469 C4465 1.393 . S
C4469 C4468 1.391 . S
C4470 H4460 0.950 . S
C4470 C4471 1.386 . S
C4470 C4472 1.391 . S
C4471 C4470 1.386 . S
C4471 C4475 1.393 1_554 S
C4472 H4461 0.950 . S
C4472 C4470 1.391 . S
C4472 C4473 1.400 . S
C4473 C4467 1.491 . S
C4473 C4472 1.400 . S
C4473 C4474 1.398 1_554 S
C4474 H4462 0.950 . S
C4474 C4473 1.398 1_556 S
C4474 C4475 1.391 . S
C4475 H4463 0.950 . S
C4475 C4471 1.393 1_556 S
C4475 C4474 1.391 . S
H4476 C4484 0.950 . S
H4477 C4489 0.950 1_455 S
H4478 C4486 0.950 . S
H4479 C4488 0.950 . S
H4480 C4490 0.950 . S
H4481 C4492 0.950 . S
H4482 C4494 0.950 . S
H4483 C4495 0.950 . S
C4484 H4476 0.950 . S
C4484 C4485 1.386 . S
C4484 C4486 1.391 . S
C4485 C4484 1.386 . S
C4485 C4489 1.393 . S
C4486 H4478 0.950 . S
C4486 C4484 1.391 . S
C4486 C4487 1.400 . S
C4487 C4486 1.400 . S
C4487 C4488 1.398 . S
C4487 C4493 1.491 . S
C4488 H4479 0.950 . S
C4488 C4487 1.398 . S
C4488 C4489 1.391 . S
C4489 H4477 0.950 1_655 S
C4489 C4485 1.393 . S
C4489 C4488 1.391 . S
C4490 H4480 0.950 . S
C4490 C4491 1.386 . S
C4490 C4492 1.391 . S
C4491 C4490 1.386 . S
C4491 C4495 1.393 . S
C4492 H4481 0.950 . S
C4492 C4490 1.391 . S
C4492 C4493 1.400 . S
C4493 C4487 1.491 . S
C4493 C4492 1.400 . S
C4493 C4494 1.398 . S
C4494 H4482 0.950 . S
C4494 C4493 1.398 . S
C4494 C4495 1.391 . S
C4495 H4483 0.950 . S
C4495 C4491 1.393 . S
C4495 C4494 1.391 . S
H4496 C4504 0.950 . S
H4497 C4509 0.950 . S
H4498 C4506 0.950 . S
H4499 C4508 0.950 . S
H4500 C4510 0.950 . S
H4501 C4512 0.950 . S
H4502 C4514 0.950 . S
H4503 C4515 0.950 . S
C4504 H4496 0.950 . S
C4504 C4505 1.386 . S
C4504 C4506 1.391 . S
C4505 C4504 1.386 . S
C4505 C4509 1.393 . S
C4506 H4498 0.950 . S
C4506 C4504 1.391 . S
C4506 C4507 1.400 . S
C4507 C4506 1.400 . S
C4507 C4508 1.398 . S
C4507 C4513 1.491 . S
C4508 H4499 0.950 . S
C4508 C4507 1.398 . S
C4508 C4509 1.391 . S
C4509 H4497 0.950 . S
C4509 C4505 1.393 . S
C4509 C4508 1.391 . S
C4510 H4500 0.950 . S
C4510 C4511 1.386 . S
C4510 C4512 1.391 . S
C4511 C4510 1.386 . S
C4511 C4515 1.393 . S
C4512 H4501 0.950 . S
C4512 C4510 1.391 . S
C4512 C4513 1.400 . S
C4513 C4507 1.491 . S
C4513 C4512 1.400 . S
C4513 C4514 1.398 . S
C4514 H4502 0.950 . S
C4514 C4513 1.398 . S
C4514 C4515 1.391 . S
C4515 H4503 0.950 . S
C4515 C4511 1.393 . S
C4515 C4514 1.391 . S
H4516 C4524 0.950 . S
H4517 C4529 0.942 1_455 S
H4518 C4526 0.950 . S
H4519 C4528 0.950 . S
H4520 C4530 0.950 . S
H4521 C4532 0.950 . S
H4522 C4534 0.950 . S
H4523 C4535 0.950 . S
C4524 H4516 0.950 . S
C4524 C4525 1.386 . S
C4524 C4526 1.391 1_455 S
C4525 C4524 1.386 . S
C4525 C4529 1.393 1_455 S
C4526 H4518 0.950 . S
C4526 C4524 1.391 1_655 S
C4526 C4527 1.400 . S
C4527 C4526 1.400 . S
C4527 C4528 1.398 . S
C4527 C4533 1.491 . S
C4528 H4519 0.950 . S
C4528 C4527 1.398 . S
C4528 C4529 1.391 . S
C4529 H4517 0.942 1_655 S
C4529 C4525 1.393 1_655 S
C4529 C4528 1.391 . S
C4530 H4520 0.950 . S
C4530 C4531 1.386 . S
C4530 C4532 1.391 . S
C4531 C4530 1.386 . S
C4531 C4535 1.393 . S
C4532 H4521 0.950 . S
C4532 C4530 1.391 . S
C4532 C4533 1.400 . S
C4533 C4527 1.491 . S
C4533 C4532 1.400 . S
C4533 C4534 1.398 . S
C4534 H4522 0.950 . S
C4534 C4533 1.398 . S
C4534 C4535 1.391 . S
C4535 H4523 0.950 . S
C4535 C4531 1.393 . S
C4535 C4534 1.391 . S
H4536 C4544 0.950 . S
H4537 C4549 0.950 . S
H4538 C4546 0.950 . S
H4539 C4548 0.950 . S
H4540 C4550 0.950 . S
H4541 C4552 1.003 . S
H4542 C4554 0.950 . S
H4543 C4555 0.950 . S
C4544 H4536 0.950 . S
C4544 C4545 1.386 1_455 S
C4544 C4546 1.391 . S
C4545 C4544 1.386 1_655 S
C4545 C4549 1.393 . S
C4546 H4538 0.950 . S
C4546 C4544 1.391 . S
C4546 C4547 1.400 . S
C4547 C4546 1.400 . S
C4547 C4548 1.398 1_455 S
C4547 C4553 1.491 . S
C4548 H4539 0.950 . S
C4548 C4547 1.398 1_655 S
C4548 C4549 1.391 . S
C4549 H4537 0.950 . S
C4549 C4545 1.393 . S
C4549 C4548 1.391 . S
C4550 H4540 0.950 . S
C4550 C4551 1.386 . S
C4550 C4552 1.391 . S
C4551 C4550 1.386 . S
C4551 C4555 1.393 . S
C4552 H4541 1.003 . S
C4552 C4550 1.391 . S
C4552 C4553 1.400 . S
C4553 C4547 1.491 . S
C4553 C4552 1.400 . S
C4553 C4554 1.398 . S
C4554 H4542 0.950 . S
C4554 C4553 1.398 . S
C4554 C4555 1.391 . S
C4555 H4543 0.950 . S
C4555 C4551 1.393 . S
C4555 C4554 1.391 . S
H4556 C4564 0.950 . S
H4557 C4569 0.950 . S
H4558 C4566 0.950 . S
H4559 C4568 0.950 . S
H4560 C4570 0.950 . S
H4561 C4572 0.950 . S
H4562 C4574 0.950 . S
H4563 C4575 0.950 . S
C4564 H4556 0.950 . S
C4564 C4565 1.386 . S
C4564 C4566 1.391 . S
C4565 C4564 1.386 . S
C4565 C4569 1.393 . S
C4566 H4558 0.950 . S
C4566 C4564 1.391 . S
C4566 C4567 1.400 . S
C4567 C4566 1.400 . S
C4567 C4568 1.398 . S
C4567 C4573 1.491 . S
C4568 H4559 0.950 . S
C4568 C4567 1.398 . S
C4568 C4569 1.391 . S
C4569 H4557 0.950 . S
C4569 C4565 1.393 . S
C4569 C4568 1.391 . S
C4570 H4560 0.950 . S
C4570 C4571 1.386 . S
C4570 C4572 1.391 . S
C4571 C4570 1.386 . S
C4571 C4575 1.393 . S
C4572 H4561 0.950 . S
C4572 C4570 1.391 . S
C4572 C4573 1.400 . S
C4573 C4567 1.491 . S
C4573 C4572 1.400 . S
C4573 C4574 1.398 . S
C4574 H4562 0.950 . S
C4574 C4573 1.398 . S
C4574 C4575 1.391 . S
C4575 H4563 0.950 . S
C4575 C4571 1.393 . S
C4575 C4574 1.391 . S
H4576 C4584 0.950 . S
H4577 C4589 0.950 . S
H4578 C4586 0.950 . S
H4579 C4588 0.950 . S
H4580 C4590 0.950 . S
H4581 C4592 0.950 . S
H4582 C4594 0.950 . S
H4583 C4595 0.950 . S
C4584 H4576 0.950 . S
C4584 C4585 1.386 . S
C4584 C4586 1.391 . S
C4585 C4584 1.386 . S
C4585 C4589 1.393 . S
C4586 H4578 0.950 . S
C4586 C4584 1.391 . S
C4586 C4587 1.400 . S
C4587 C4586 1.400 . S
C4587 C4588 1.398 . S
C4587 C4593 1.491 . S
C4588 H4579 0.950 . S
C4588 C4587 1.398 . S
C4588 C4589 1.391 . S
C4589 H4577 0.950 . S
C4589 C4585 1.393 . S
C4589 C4588 1.391 . S
C4590 H4580 0.950 . S
C4590 C4591 1.386 . S
C4590 C4592 1.391 . S
C4591 C4590 1.386 . S
C4591 C4595 1.393 . S
C4592 H4581 0.950 . S
C4592 C4590 1.391 . S
C4592 C4593 1.400 . S
C4593 C4587 1.491 . S
C4593 C4592 1.400 . S
C4593 C4594 1.398 . S
C4594 H4582 0.950 . S
C4594 C4593 1.398 . S
C4594 C4595 1.391 . S
C4595 H4583 0.950 . S
C4595 C4591 1.393 . S
C4595 C4594 1.391 . S
H4596 C4604 0.950 . S
H4597 C4609 0.950 . S
H4598 C4606 0.950 . S
H4599 C4608 0.950 . S
H4600 C4610 0.950 . S
H4601 C4612 0.950 . S
H4602 C4614 0.950 . S
H4603 C4615 0.950 . S
C4604 H4596 0.950 . S
C4604 C4605 1.386 . S
C4604 C4606 1.391 . S
C4605 C4604 1.386 . S
C4605 C4609 1.393 . S
C4606 H4598 0.950 . S
C4606 C4604 1.391 . S
C4606 C4607 1.400 . S
C4607 C4606 1.400 . S
C4607 C4608 1.398 . S
C4607 C4613 1.491 . S
C4608 H4599 0.950 . S
C4608 C4607 1.398 . S
C4608 C4609 1.391 . S
C4609 H4597 0.950 . S
C4609 C4605 1.393 . S
C4609 C4608 1.391 . S
C4610 H4600 0.950 . S
C4610 C4611 1.386 . S
C4610 C4612 1.391 . S
C4611 C4610 1.386 . S
C4611 C4615 1.393 . S
C4612 H4601 0.950 . S
C4612 C4610 1.391 . S
C4612 C4613 1.400 . S
C4613 C4607 1.491 . S
C4613 C4612 1.400 . S
C4613 C4614 1.398 . S
C4614 H4602 0.950 . S
C4614 C4613 1.398 . S
C4614 C4615 1.391 . S
C4615 H4603 0.950 . S
C4615 C4611 1.393 . S
C4615 C4614 1.391 . S
H4616 C4624 0.950 . S
H4617 C4629 0.950 . S
H4618 C4626 0.950 . S
H4619 C4628 0.950 . S
H4620 C4630 0.950 . S
H4621 C4632 0.950 . S
H4622 C4634 0.950 . S
H4623 C4635 0.950 . S
C4624 H4616 0.950 . S
C4624 C4625 1.386 . S
C4624 C4626 1.391 . S
C4625 C4624 1.386 . S
C4625 C4629 1.393 . S
C4626 H4618 0.950 . S
C4626 C4624 1.391 . S
C4626 C4627 1.400 . S
C4627 C4626 1.400 . S
C4627 C4628 1.398 . S
C4627 C4633 1.491 . S
C4628 H4619 0.950 . S
C4628 C4627 1.398 . S
C4628 C4629 1.391 . S
C4629 H4617 0.950 . S
C4629 C4625 1.393 . S
C4629 C4628 1.391 . S
C4630 H4620 0.950 . S
C4630 C4631 1.386 . S
C4630 C4632 1.391 . S
C4631 C4630 1.386 . S
C4631 C4635 1.393 . S
C4632 H4621 0.950 . S
C4632 C4630 1.391 . S
C4632 C4633 1.400 . S
C4633 C4627 1.491 . S
C4633 C4632 1.400 . S
C4633 C4634 1.398 . S
C4634 H4622 0.950 . S
C4634 C4633 1.398 . S
C4634 C4635 1.391 . S
C4635 H4623 0.950 . S
C4635 C4631 1.393 . S
C4635 C4634 1.391 . S
H4636 C4644 0.950 . S
H4637 C4649 0.950 . S
H4638 C4646 0.950 . S
H4639 C4648 0.950 . S
H4640 C4650 0.950 . S
H4641 C4652 0.950 . S
H4642 C4654 0.950 . S
H4643 C4655 0.950 . S
C4644 H4636 0.950 . S
C4644 C4645 1.386 . S
C4644 C4646 1.391 . S
C4645 C4644 1.386 . S
C4645 C4649 1.393 . S
C4646 H4638 0.950 . S
C4646 C4644 1.391 . S
C4646 C4647 1.400 . S
C4647 C4646 1.400 . S
C4647 C4648 1.398 . S
C4647 C4653 1.491 . S
C4648 H4639 0.950 . S
C4648 C4647 1.398 . S
C4648 C4649 1.391 . S
C4649 H4637 0.950 . S
C4649 C4645 1.393 . S
C4649 C4648 1.391 . S
C4650 H4640 0.950 . S
C4650 C4651 1.386 . S
C4650 C4652 1.391 . S
C4651 C4650 1.386 . S
C4651 C4655 1.393 . S
C4652 H4641 0.950 . S
C4652 C4650 1.391 . S
C4652 C4653 1.400 . S
C4653 C4647 1.491 . S
C4653 C4652 1.400 . S
C4653 C4654 1.398 . S
C4654 H4642 0.950 . S
C4654 C4653 1.398 . S
C4654 C4655 1.391 . S
C4655 H4643 0.950 . S
C4655 C4651 1.393 . S
C4655 C4654 1.391 . S
H4656 C4664 0.950 . S
H4657 C4669 0.950 . S
H4658 C4666 0.950 . S
H4659 C4668 0.950 . S
H4660 C4670 0.950 . S
H4661 C4672 0.950 . S
H4662 C4674 0.950 . S
H4663 C4675 0.950 . S
C4664 H4656 0.950 . S
C4664 C4665 1.386 . S
C4664 C4666 1.391 . S
C4665 C4664 1.386 . S
C4665 C4669 1.393 . S
C4666 H4658 0.950 . S
C4666 C4664 1.391 . S
C4666 C4667 1.400 . S
C4667 C4666 1.400 . S
C4667 C4668 1.398 . S
C4667 C4673 1.491 . S
C4668 H4659 0.950 . S
C4668 C4667 1.398 . S
C4668 C4669 1.391 . S
C4669 H4657 0.950 . S
C4669 C4665 1.393 . S
C4669 C4668 1.391 . S
C4670 H4660 0.950 . S
C4670 C4671 1.386 . S
C4670 C4672 1.391 . S
C4671 C4670 1.386 . S
C4671 C4675 1.393 . S
C4672 H4661 0.950 . S
C4672 C4670 1.391 . S
C4672 C4673 1.400 . S
C4673 C4667 1.491 . S
C4673 C4672 1.400 . S
C4673 C4674 1.398 . S
C4674 H4662 0.950 . S
C4674 C4673 1.398 . S
C4674 C4675 1.391 . S
C4675 H4663 0.950 . S
C4675 C4671 1.393 . S
C4675 C4674 1.391 . S
H4676 C4684 0.950 . S
H4677 C4689 0.950 . S
H4678 C4686 0.950 . S
H4679 C4688 0.950 . S
H4680 C4690 0.950 . S
H4681 C4692 0.950 . S
H4682 C4694 0.950 . S
H4683 C4695 0.950 . S
C4684 H4676 0.950 . S
C4684 C4685 1.386 . S
C4684 C4686 1.391 . S
C4685 C4684 1.386 . S
C4685 C4689 1.393 . S
C4686 H4678 0.950 . S
C4686 C4684 1.391 . S
C4686 C4687 1.400 . S
C4687 C4686 1.400 . S
C4687 C4688 1.398 . S
C4687 C4693 1.491 . S
C4688 H4679 0.950 . S
C4688 C4687 1.398 . S
C4688 C4689 1.391 . S
C4689 H4677 0.950 . S
C4689 C4685 1.393 . S
C4689 C4688 1.391 . S
C4690 H4680 0.950 . S
C4690 C4691 1.386 . S
C4690 C4692 1.391 . S
C4691 C4690 1.386 . S
C4691 C4695 1.393 . S
C4692 H4681 0.950 . S
C4692 C4690 1.391 . S
C4692 C4693 1.400 . S
C4693 C4687 1.491 . S
C4693 C4692 1.400 . S
C4693 C4694 1.398 . S
C4694 H4682 0.950 . S
C4694 C4693 1.398 . S
C4694 C4695 1.391 . S
C4695 H4683 0.950 . S
C4695 C4691 1.393 . S
C4695 C4694 1.391 . S
H4696 C4704 0.950 . S
H4697 C4709 0.950 . S
H4698 C4706 0.950 . S
H4699 C4708 0.950 . S
H4700 C4710 0.950 . S
H4701 C4712 0.950 . S
H4702 C4714 0.950 . S
H4703 C4715 0.950 . S
C4704 H4696 0.950 . S
C4704 C4705 1.386 . S
C4704 C4706 1.391 . S
C4705 C4704 1.386 . S
C4705 C4709 1.393 . S
C4706 H4698 0.950 . S
C4706 C4704 1.391 . S
C4706 C4707 1.400 . S
C4707 C4706 1.400 . S
C4707 C4708 1.398 . S
C4707 C4713 1.491 . S
C4708 H4699 0.950 . S
C4708 C4707 1.398 . S
C4708 C4709 1.391 . S
C4709 H4697 0.950 . S
C4709 C4705 1.393 . S
C4709 C4708 1.391 . S
C4710 H4700 0.950 . S
C4710 C4711 1.386 . S
C4710 C4712 1.391 . S
C4711 C4710 1.386 . S
C4711 C4715 1.393 . S
C4712 H4701 0.950 . S
C4712 C4710 1.391 . S
C4712 C4713 1.400 . S
C4713 C4707 1.491 . S
C4713 C4712 1.400 . S
C4713 C4714 1.398 . S
C4714 H4702 0.950 . S
C4714 C4713 1.398 . S
C4714 C4715 1.391 . S
C4715 H4703 0.950 . S
C4715 C4711 1.393 . S
C4715 C4714 1.391 . S
H4716 C4724 0.950 . S
H4717 C4729 0.950 . S
H4718 C4726 0.950 . S
H4719 C4728 0.950 . S
H4720 C4730 0.950 . S
H4721 C4732 0.950 . S
H4722 C4734 0.950 . S
H4723 C4735 0.950 . S
C4724 H4716 0.950 . S
C4724 C4725 1.386 . S
C4724 C4726 1.391 . S
C4725 C4724 1.386 . S
C4725 C4729 1.393 . S
C4726 H4718 0.950 . S
C4726 C4724 1.391 . S
C4726 C4727 1.400 . S
C4727 C4726 1.400 . S
C4727 C4728 1.398 . S
C4727 C4733 1.491 . S
C4728 H4719 0.950 . S
C4728 C4727 1.398 . S
C4728 C4729 1.391 . S
C4729 H4717 0.950 . S
C4729 C4725 1.393 . S
C4729 C4728 1.391 . S
C4730 H4720 0.950 . S
C4730 C4731 1.386 . S
C4730 C4732 1.391 . S
C4731 C4730 1.386 . S
C4731 C4735 1.393 . S
C4732 H4721 0.950 . S
C4732 C4730 1.391 . S
C4732 C4733 1.400 . S
C4733 C4727 1.491 . S
C4733 C4732 1.400 . S
C4733 C4734 1.398 . S
C4734 H4722 0.950 . S
C4734 C4733 1.398 . S
C4734 C4735 1.391 . S
C4735 H4723 0.950 . S
C4735 C4731 1.393 . S
C4735 C4734 1.391 . S
H4736 C4744 0.950 . S
H4737 C4749 0.950 . S
H4738 C4746 0.950 . S
H4739 C4748 0.950 . S
H4740 C4750 0.950 . S
H4741 C4752 0.950 . S
H4742 C4754 0.950 . S
H4743 C4755 0.950 . S
C4744 H4736 0.950 . S
C4744 C4745 1.386 . S
C4744 C4746 1.391 . S
C4745 C4744 1.386 . S
C4745 C4749 1.393 . S
C4746 H4738 0.950 . S
C4746 C4744 1.391 . S
C4746 C4747 1.400 . S
C4747 C4746 1.400 . S
C4747 C4748 1.398 . S
C4747 C4753 1.491 . S
C4748 H4739 0.950 . S
C4748 C4747 1.398 . S
C4748 C4749 1.391 . S
C4749 H4737 0.950 . S
C4749 C4745 1.393 . S
C4749 C4748 1.391 . S
C4750 H4740 0.950 . S
C4750 C4751 1.386 . S
C4750 C4752 1.391 . S
C4751 C4750 1.386 . S
C4751 C4755 1.393 . S
C4752 H4741 0.950 . S
C4752 C4750 1.391 . S
C4752 C4753 1.400 . S
C4753 C4747 1.491 . S
C4753 C4752 1.400 . S
C4753 C4754 1.398 . S
C4754 H4742 0.950 . S
C4754 C4753 1.398 . S
C4754 C4755 1.391 . S
C4755 H4743 0.950 . S
C4755 C4751 1.393 . S
C4755 C4754 1.391 . S
H4756 C4764 0.950 . S
H4757 C4769 0.950 . S
H4758 C4766 0.950 . S
H4759 C4768 0.950 . S
H4760 C4770 0.950 . S
H4761 C4772 0.950 . S
H4762 C4774 0.950 . S
H4763 C4775 0.950 . S
C4764 H4756 0.950 . S
C4764 C4765 1.386 . S
C4764 C4766 1.391 . S
C4765 C4764 1.386 . S
C4765 C4769 1.393 . S
C4766 H4758 0.950 . S
C4766 C4764 1.391 . S
C4766 C4767 1.400 . S
C4767 C4766 1.400 . S
C4767 C4768 1.398 . S
C4767 C4773 1.491 . S
C4768 H4759 0.950 . S
C4768 C4767 1.398 . S
C4768 C4769 1.391 . S
C4769 H4757 0.950 . S
C4769 C4765 1.393 . S
C4769 C4768 1.391 . S
C4770 H4760 0.950 . S
C4770 C4771 1.386 . S
C4770 C4772 1.391 . S
C4771 C4770 1.386 . S
C4771 C4775 1.393 . S
C4772 H4761 0.950 . S
C4772 C4770 1.391 . S
C4772 C4773 1.400 . S
C4773 C4767 1.491 . S
C4773 C4772 1.400 . S
C4773 C4774 1.398 . S
C4774 H4762 0.950 . S
C4774 C4773 1.398 . S
C4774 C4775 1.391 . S
C4775 H4763 0.950 . S
C4775 C4771 1.393 . S
C4775 C4774 1.391 . S
H4776 C4784 0.950 . S
H4777 C4789 0.950 . S
H4778 C4786 0.950 . S
H4779 C4788 0.950 . S
H4780 C4790 0.950 . S
H4781 C4792 0.950 . S
H4782 C4794 0.950 . S
H4783 C4795 0.950 . S
C4784 H4776 0.950 . S
C4784 C4785 1.386 . S
C4784 C4786 1.391 . S
C4785 C4784 1.386 . S
C4785 C4789 1.393 . S
C4786 H4778 0.950 . S
C4786 C4784 1.391 . S
C4786 C4787 1.400 . S
C4787 C4786 1.400 . S
C4787 C4788 1.398 . S
C4787 C4793 1.491 . S
C4788 H4779 0.950 . S
C4788 C4787 1.398 . S
C4788 C4789 1.391 . S
C4789 H4777 0.950 . S
C4789 C4785 1.393 . S
C4789 C4788 1.391 . S
C4790 H4780 0.950 . S
C4790 C4791 1.386 . S
C4790 C4792 1.391 . S
C4791 C4790 1.386 . S
C4791 C4795 1.393 . S
C4792 H4781 0.950 . S
C4792 C4790 1.391 . S
C4792 C4793 1.400 . S
C4793 C4787 1.491 . S
C4793 C4792 1.400 . S
C4793 C4794 1.398 . S
C4794 H4782 0.950 . S
C4794 C4793 1.398 . S
C4794 C4795 1.391 . S
C4795 H4783 0.950 . S
C4795 C4791 1.393 . S
C4795 C4794 1.391 . S
H4796 C4804 0.950 . S
H4797 C4809 0.950 . S
H4798 C4806 0.950 . S
H4799 C4808 0.950 . S
H4800 C4810 0.994 . S
H4801 C4812 0.950 1_565 S
H4802 C4814 0.950 . S
H4803 C4815 0.950 . S
C4804 H4796 0.950 . S
C4804 C4805 1.386 1_545 S
C4804 C4806 1.391 . S
C4805 C4804 1.386 1_565 S
C4805 C4809 1.393 . S
C4806 H4798 0.950 . S
C4806 C4804 1.391 . S
C4806 C4807 1.400 . S
C4807 C4806 1.400 . S
C4807 C4808 1.398 1_545 S
C4807 C4813 1.491 . S
C4808 H4799 0.950 . S
C4808 C4807 1.398 1_565 S
C4808 C4809 1.391 . S
C4809 H4797 0.950 . S
C4809 C4805 1.393 . S
C4809 C4808 1.391 . S
C4810 H4800 0.994 . S
C4810 C4811 1.386 . S
C4810 C4812 1.391 . S
C4811 C4810 1.386 . S
C4811 C4815 1.393 . S
C4812 H4801 0.950 1_545 S
C4812 C4810 1.391 . S
C4812 C4813 1.400 . S
C4813 C4807 1.491 . S
C4813 C4812 1.400 . S
C4813 C4814 1.398 . S
C4814 H4802 0.950 . S
C4814 C4813 1.398 . S
C4814 C4815 1.391 . S
C4815 H4803 0.950 . S
C4815 C4811 1.393 . S
C4815 C4814 1.391 . S
H4816 C4824 0.950 . S
H4817 C4829 0.950 . S
H4818 C4826 0.950 . S
H4819 C4828 0.950 . S
H4820 C4830 0.950 . S
H4821 C4832 0.950 . S
H4822 C4834 0.950 . S
H4823 C4835 0.950 . S
C4824 H4816 0.950 . S
C4824 C4825 1.386 . S
C4824 C4826 1.391 . S
C4825 C4824 1.386 . S
C4825 C4829 1.393 . S
C4826 H4818 0.950 . S
C4826 C4824 1.391 . S
C4826 C4827 1.400 . S
C4827 C4826 1.400 . S
C4827 C4828 1.398 . S
C4827 C4833 1.491 . S
C4828 H4819 0.950 . S
C4828 C4827 1.398 . S
C4828 C4829 1.391 . S
C4829 H4817 0.950 . S
C4829 C4825 1.393 . S
C4829 C4828 1.391 . S
C4830 H4820 0.950 . S
C4830 C4831 1.386 . S
C4830 C4832 1.391 . S
C4831 C4830 1.386 . S
C4831 C4835 1.393 . S
C4832 H4821 0.950 . S
C4832 C4830 1.391 . S
C4832 C4833 1.400 . S
C4833 C4827 1.491 . S
C4833 C4832 1.400 . S
C4833 C4834 1.398 . S
C4834 H4822 0.950 . S
C4834 C4833 1.398 . S
C4834 C4835 1.391 . S
C4835 H4823 0.950 . S
C4835 C4831 1.393 . S
C4835 C4834 1.391 . S
H4836 C4844 0.950 . S
H4837 C4849 0.949 1_556 S
H4838 C4846 0.950 . S
H4839 C4848 0.950 . S
H4840 C4850 0.950 . S
H4841 C4852 0.950 . S
H4842 C4854 0.950 . S
H4843 C4855 0.950 . S
C4844 H4836 0.950 . S
C4844 C4845 1.386 1_554 S
C4844 C4846 1.391 . S
C4845 C4844 1.386 1_556 S
C4845 C4849 1.388 1_556 S
C4846 H4838 0.950 . S
C4846 C4844 1.391 . S
C4846 C4847 1.400 . S
C4847 C4846 1.400 . S
C4847 C4848 1.398 . S
C4847 C4853 1.491 . S
C4848 H4839 0.950 . S
C4848 C4847 1.398 . S
C4848 C4849 1.397 . S
C4849 H4837 0.949 1_554 S
C4849 C4845 1.388 1_554 S
C4849 C4848 1.397 . S
C4850 H4840 0.950 . S
C4850 C4851 1.386 . S
C4850 C4852 1.391 . S
C4851 C4850 1.386 . S
C4851 C4855 1.393 . S
C4852 H4841 0.950 . S
C4852 C4850 1.391 . S
C4852 C4853 1.400 . S
C4853 C4847 1.491 . S
C4853 C4852 1.400 . S
C4853 C4854 1.398 . S
C4854 H4842 0.950 . S
C4854 C4853 1.398 . S
C4854 C4855 1.391 . S
C4855 H4843 0.950 . S
C4855 C4851 1.393 . S
C4855 C4854 1.391 . S
H4856 C4864 0.950 . S
H4857 C4869 0.950 . S
H4858 C4866 0.950 . S
H4859 C4868 0.950 . S
H4860 C4870 0.950 . S
H4861 C4872 0.950 . S
H4862 C4874 0.950 . S
H4863 C4875 0.950 . S
C4864 H4856 0.950 . S
C4864 C4865 1.386 . S
C4864 C4866 1.391 . S
C4865 C4864 1.386 . S
C4865 C4869 1.393 . S
C4866 H4858 0.950 . S
C4866 C4864 1.391 . S
C4866 C4867 1.400 . S
C4867 C4866 1.400 . S
C4867 C4868 1.398 . S
C4867 C4873 1.491 . S
C4868 H4859 0.950 . S
C4868 C4867 1.398 . S
C4868 C4869 1.391 . S
C4869 H4857 0.950 . S
C4869 C4865 1.393 . S
C4869 C4868 1.391 . S
C4870 H4860 0.950 . S
C4870 C4871 1.386 . S
C4870 C4872 1.391 . S
C4871 C4870 1.386 . S
C4871 C4875 1.393 . S
C4872 H4861 0.950 . S
C4872 C4870 1.391 . S
C4872 C4873 1.400 . S
C4873 C4867 1.491 . S
C4873 C4872 1.400 . S
C4873 C4874 1.398 . S
C4874 H4862 0.950 . S
C4874 C4873 1.398 . S
C4874 C4875 1.391 . S
C4875 H4863 0.950 . S
C4875 C4871 1.393 . S
C4875 C4874 1.391 . S
H4876 C4884 0.950 . S
H4877 C4889 0.950 . S
H4878 C4886 0.950 . S
H4879 C4888 0.950 . S
H4880 C4890 0.950 . S
H4881 C4892 0.950 . S
H4882 C4894 0.950 . S
H4883 C4895 0.950 . S
C4884 H4876 0.950 . S
C4884 C4885 1.386 . S
C4884 C4886 1.391 . S
C4885 C4884 1.386 . S
C4885 C4889 1.393 . S
C4886 H4878 0.950 . S
C4886 C4884 1.391 . S
C4886 C4887 1.400 . S
C4887 C4886 1.400 . S
C4887 C4888 1.398 . S
C4887 C4893 1.491 . S
C4888 H4879 0.950 . S
C4888 C4887 1.398 . S
C4888 C4889 1.391 . S
C4889 H4877 0.950 . S
C4889 C4885 1.393 . S
C4889 C4888 1.391 . S
C4890 H4880 0.950 . S
C4890 C4891 1.386 . S
C4890 C4892 1.391 . S
C4891 C4890 1.386 . S
C4891 C4895 1.393 . S
C4892 H4881 0.950 . S
C4892 C4890 1.391 . S
C4892 C4893 1.400 . S
C4893 C4887 1.491 . S
C4893 C4892 1.400 . S
C4893 C4894 1.398 . S
C4894 H4882 0.950 . S
C4894 C4893 1.398 . S
C4894 C4895 1.391 . S
C4895 H4883 0.950 . S
C4895 C4891 1.393 . S
C4895 C4894 1.391 . S
H4896 C4904 0.950 . S
H4897 C4909 0.950 . S
H4898 C4906 0.950 . S
H4899 C4908 0.950 . S
H4900 C4910 0.950 . S
H4901 C4912 0.950 . S
H4902 C4914 0.950 . S
H4903 C4915 0.950 . S
C4904 H4896 0.950 . S
C4904 C4905 1.386 . S
C4904 C4906 1.391 . S
C4905 C4904 1.386 . S
C4905 C4909 1.393 . S
C4906 H4898 0.950 . S
C4906 C4904 1.391 . S
C4906 C4907 1.400 . S
C4907 C4906 1.400 . S
C4907 C4908 1.398 . S
C4907 C4913 1.491 . S
C4908 H4899 0.950 . S
C4908 C4907 1.398 . S
C4908 C4909 1.391 . S
C4909 H4897 0.950 . S
C4909 C4905 1.393 . S
C4909 C4908 1.391 . S
C4910 H4900 0.950 . S
C4910 C4911 1.386 . S
C4910 C4912 1.391 . S
C4911 C4910 1.386 . S
C4911 C4915 1.393 . S
C4912 H4901 0.950 . S
C4912 C4910 1.391 . S
C4912 C4913 1.400 . S
C4913 C4907 1.491 . S
C4913 C4912 1.400 . S
C4913 C4914 1.398 . S
C4914 H4902 0.950 . S
C4914 C4913 1.398 . S
C4914 C4915 1.391 . S
C4915 H4903 0.950 . S
C4915 C4911 1.393 . S
C4915 C4914 1.391 . S
H4916 C4924 0.950 . S
H4917 C4929 0.950 . S
H4918 C4926 0.950 . S
H4919 C4928 0.950 . S
H4920 C4930 0.950 . S
H4921 C4932 0.950 . S
H4922 C4934 0.950 . S
H4923 C4935 0.950 . S
C4924 H4916 0.950 . S
C4924 C4925 1.386 . S
C4924 C4926 1.391 . S
C4925 C4924 1.386 . S
C4925 C4929 1.393 . S
C4926 H4918 0.950 . S
C4926 C4924 1.391 . S
C4926 C4927 1.400 . S
C4927 C4926 1.400 . S
C4927 C4928 1.398 . S
C4927 C4933 1.491 . S
C4928 H4919 0.950 . S
C4928 C4927 1.398 . S
C4928 C4929 1.391 . S
C4929 H4917 0.950 . S
C4929 C4925 1.393 . S
C4929 C4928 1.391 . S
C4930 H4920 0.950 . S
C4930 C4931 1.386 . S
C4930 C4932 1.391 . S
C4931 C4930 1.386 . S
C4931 C4935 1.393 . S
C4932 H4921 0.950 . S
C4932 C4930 1.391 . S
C4932 C4933 1.400 . S
C4933 C4927 1.491 . S
C4933 C4932 1.400 . S
C4933 C4934 1.398 . S
C4934 H4922 0.950 . S
C4934 C4933 1.398 . S
C4934 C4935 1.391 . S
C4935 H4923 0.950 . S
C4935 C4931 1.393 . S
C4935 C4934 1.391 . S
H4936 C4944 0.950 . S
H4937 C4949 0.950 . S
H4938 C4946 0.957 . S
H4939 C4948 0.950 . S
H4940 C4950 0.950 . S
H4941 C4952 0.950 . S
H4942 C4954 0.950 1_556 S
H4943 C4955 0.950 1_556 S
C4944 H4936 0.950 . S
C4944 C4945 1.386 . S
C4944 C4946 1.391 . S
C4945 C4944 1.386 . S
C4945 C4949 1.393 . S
C4946 H4938 0.957 . S
C4946 C4944 1.391 . S
C4946 C4947 1.400 . S
C4947 C4946 1.400 . S
C4947 C4948 1.398 . S
C4947 C4953 1.491 . S
C4948 H4939 0.950 . S
C4948 C4947 1.398 . S
C4948 C4949 1.391 . S
C4949 H4937 0.950 . S
C4949 C4945 1.393 . S
C4949 C4948 1.391 . S
C4950 H4940 0.950 . S
C4950 C4951 1.386 . S
C4950 C4952 1.391 . S
C4951 C4950 1.386 . S
C4951 C4955 1.393 . S
C4952 H4941 0.950 . S
C4952 C4950 1.391 . S
C4952 C4953 1.400 . S
C4953 C4947 1.491 . S
C4953 C4952 1.400 . S
C4953 C4954 1.398 . S
C4954 H4942 0.950 1_554 S
C4954 C4953 1.398 . S
C4954 C4955 1.391 . S
C4955 H4943 0.950 1_554 S
C4955 C4951 1.393 . S
C4955 C4954 1.391 . S
H4956 C4964 0.950 . S
H4957 C4969 0.950 . S
H4958 C4966 0.950 . S
H4959 C4968 0.950 . S
H4960 C4970 0.950 . S
H4961 C4972 0.950 . S
H4962 C4974 0.950 . S
H4963 C4975 0.950 . S
C4964 H4956 0.950 . S
C4964 C4965 1.386 . S
C4964 C4966 1.391 . S
C4965 C4964 1.386 . S
C4965 C4969 1.393 . S
C4966 H4958 0.950 . S
C4966 C4964 1.391 . S
C4966 C4967 1.400 . S
C4967 C4966 1.400 . S
C4967 C4968 1.398 . S
C4967 C4973 1.491 . S
C4968 H4959 0.950 . S
C4968 C4967 1.398 . S
C4968 C4969 1.391 . S
C4969 H4957 0.950 . S
C4969 C4965 1.393 . S
C4969 C4968 1.391 . S
C4970 H4960 0.950 . S
C4970 C4971 1.386 . S
C4970 C4972 1.391 . S
C4971 C4970 1.386 . S
C4971 C4975 1.393 . S
C4972 H4961 0.950 . S
C4972 C4970 1.391 . S
C4972 C4973 1.400 . S
C4973 C4967 1.491 . S
C4973 C4972 1.400 . S
C4973 C4974 1.398 . S
C4974 H4962 0.950 . S
C4974 C4973 1.398 . S
C4974 C4975 1.391 . S
C4975 H4963 0.950 . S
C4975 C4971 1.393 . S
C4975 C4974 1.391 . S
H4976 C4984 0.950 . S
H4977 C4989 0.950 . S
H4978 C4986 0.950 . S
H4979 C4988 0.950 . S
H4980 C4990 0.950 . S
H4981 C4992 0.950 . S
H4982 C4994 0.950 . S
H4983 C4995 0.950 1_554 S
C4984 H4976 0.950 . S
C4984 C4985 1.386 . S
C4984 C4986 1.391 . S
C4985 C4984 1.386 . S
C4985 C4989 1.393 . S
C4986 H4978 0.950 . S
C4986 C4984 1.391 . S
C4986 C4987 1.400 . S
C4987 C4986 1.400 . S
C4987 C4988 1.398 . S
C4987 C4993 1.491 . S
C4988 H4979 0.950 . S
C4988 C4987 1.398 . S
C4988 C4989 1.391 . S
C4989 H4977 0.950 . S
C4989 C4985 1.393 . S
C4989 C4988 1.391 . S
C4990 H4980 0.950 . S
C4990 C4991 1.386 . S
C4990 C4992 1.391 . S
C4991 C4990 1.386 . S
C4991 C4995 1.393 . S
C4992 H4981 0.950 . S
C4992 C4990 1.391 . S
C4992 C4993 1.400 . S
C4993 C4987 1.491 . S
C4993 C4992 1.400 . S
C4993 C4994 1.398 . S
C4994 H4982 0.950 . S
C4994 C4993 1.398 . S
C4994 C4995 1.391 . S
C4995 H4983 0.950 1_556 S
C4995 C4991 1.393 . S
C4995 C4994 1.391 . S
H4996 C5004 0.950 . S
H4997 C5009 0.950 . S
H4998 C5006 0.950 . S
H4999 C5008 0.950 . S
H5000 C5010 0.950 . S
H5001 C5012 0.950 . S
H5002 C5014 0.950 . S
H5003 C5015 0.950 . S
C5004 H4996 0.950 . S
C5004 C5005 1.386 . S
C5004 C5006 1.391 . S
C5005 C5004 1.386 . S
C5005 C5009 1.393 . S
C5006 H4998 0.950 . S
C5006 C5004 1.391 . S
C5006 C5007 1.400 . S
C5007 C5006 1.400 . S
C5007 C5008 1.398 . S
C5007 C5013 1.491 . S
C5008 H4999 0.950 . S
C5008 C5007 1.398 . S
C5008 C5009 1.391 . S
C5009 H4997 0.950 . S
C5009 C5005 1.393 . S
C5009 C5008 1.391 . S
C5010 H5000 0.950 . S
C5010 C5011 1.386 . S
C5010 C5012 1.391 . S
C5011 C5010 1.386 . S
C5011 C5015 1.393 . S
C5012 H5001 0.950 . S
C5012 C5010 1.391 . S
C5012 C5013 1.400 . S
C5013 C5007 1.491 . S
C5013 C5012 1.400 . S
C5013 C5014 1.398 . S
C5014 H5002 0.950 . S
C5014 C5013 1.398 . S
C5014 C5015 1.391 . S
C5015 H5003 0.950 . S
C5015 C5011 1.393 . S
C5015 C5014 1.391 . S
H5016 C5024 0.950 . S
H5017 C5029 0.950 . S
H5018 C5026 0.950 . S
H5019 C5028 0.950 . S
H5020 C5030 0.950 . S
H5021 C5032 0.950 . S
H5022 C5034 0.950 . S
H5023 C5035 0.950 . S
C5024 H5016 0.950 . S
C5024 C5025 1.386 . S
C5024 C5026 1.391 . S
C5025 C5024 1.386 . S
C5025 C5029 1.393 . S
C5026 H5018 0.950 . S
C5026 C5024 1.391 . S
C5026 C5027 1.400 . S
C5027 C5026 1.400 . S
C5027 C5028 1.398 . S
C5027 C5033 1.491 . S
C5028 H5019 0.950 . S
C5028 C5027 1.398 . S
C5028 C5029 1.391 . S
C5029 H5017 0.950 . S
C5029 C5025 1.393 . S
C5029 C5028 1.391 . S
C5030 H5020 0.950 . S
C5030 C5031 1.386 . S
C5030 C5032 1.391 . S
C5031 C5030 1.386 . S
C5031 C5035 1.393 . S
C5032 H5021 0.950 . S
C5032 C5030 1.391 . S
C5032 C5033 1.400 . S
C5033 C5027 1.491 . S
C5033 C5032 1.400 . S
C5033 C5034 1.398 . S
C5034 H5022 0.950 . S
C5034 C5033 1.398 . S
C5034 C5035 1.391 . S
C5035 H5023 0.950 . S
C5035 C5031 1.393 . S
C5035 C5034 1.391 . S
H5036 C5044 0.950 . S
H5037 C5049 0.950 . S
H5038 C5046 0.950 . S
H5039 C5048 0.950 . S
H5040 C5050 0.950 . S
H5041 C5052 0.950 . S
H5042 C5054 0.950 . S
H5043 C5055 0.950 . S
C5044 H5036 0.950 . S
C5044 C5045 1.386 . S
C5044 C5046 1.391 . S
C5045 C5044 1.386 . S
C5045 C5049 1.393 . S
C5046 H5038 0.950 . S
C5046 C5044 1.391 . S
C5046 C5047 1.400 . S
C5047 C5046 1.400 . S
C5047 C5048 1.398 . S
C5047 C5053 1.491 . S
C5048 H5039 0.950 . S
C5048 C5047 1.398 . S
C5048 C5049 1.391 . S
C5049 H5037 0.950 . S
C5049 C5045 1.393 . S
C5049 C5048 1.391 . S
C5050 H5040 0.950 . S
C5050 C5051 1.386 . S
C5050 C5052 1.391 . S
C5051 C5050 1.386 . S
C5051 C5055 1.393 . S
C5052 H5041 0.950 . S
C5052 C5050 1.391 . S
C5052 C5053 1.400 . S
C5053 C5047 1.491 . S
C5053 C5052 1.400 . S
C5053 C5054 1.398 . S
C5054 H5042 0.950 . S
C5054 C5053 1.398 . S
C5054 C5055 1.391 . S
C5055 H5043 0.950 . S
C5055 C5051 1.393 . S
C5055 C5054 1.391 . S
H5056 C5064 0.950 . S
H5057 C5069 0.950 . S
H5058 C5066 0.950 . S
H5059 C5068 0.950 . S
H5060 C5070 0.950 . S
H5061 C5072 0.950 . S
H5062 C5074 0.950 . S
H5063 C5075 0.950 . S
C5064 H5056 0.950 . S
C5064 C5065 1.386 . S
C5064 C5066 1.391 . S
C5065 C5064 1.386 . S
C5065 C5069 1.393 . S
C5066 H5058 0.950 . S
C5066 C5064 1.391 . S
C5066 C5067 1.400 . S
C5067 C5066 1.400 . S
C5067 C5068 1.398 . S
C5067 C5073 1.491 . S
C5068 H5059 0.950 . S
C5068 C5067 1.398 . S
C5068 C5069 1.391 . S
C5069 H5057 0.950 . S
C5069 C5065 1.393 . S
C5069 C5068 1.391 . S
C5070 H5060 0.950 . S
C5070 C5071 1.386 . S
C5070 C5072 1.391 . S
C5071 C5070 1.386 . S
C5071 C5075 1.393 . S
C5072 H5061 0.950 . S
C5072 C5070 1.391 . S
C5072 C5073 1.400 . S
C5073 C5067 1.491 . S
C5073 C5072 1.400 . S
C5073 C5074 1.398 . S
C5074 H5062 0.950 . S
C5074 C5073 1.398 . S
C5074 C5075 1.391 . S
C5075 H5063 0.950 . S
C5075 C5071 1.393 . S
C5075 C5074 1.391 . S
H5076 C5084 0.950 . S
H5077 C5089 0.950 . S
H5078 C5086 0.950 . S
H5079 C5088 0.950 . S
H5080 C5090 0.950 . S
H5081 C5092 0.950 . S
H5082 C5094 0.950 . S
H5083 C5095 0.950 . S
C5084 H5076 0.950 . S
C5084 C5085 1.386 . S
C5084 C5086 1.391 . S
C5085 C5084 1.386 . S
C5085 C5089 1.393 . S
C5086 H5078 0.950 . S
C5086 C5084 1.391 . S
C5086 C5087 1.400 . S
C5087 C5086 1.400 . S
C5087 C5088 1.398 . S
C5087 C5093 1.491 . S
C5088 H5079 0.950 . S
C5088 C5087 1.398 . S
C5088 C5089 1.391 . S
C5089 H5077 0.950 . S
C5089 C5085 1.393 . S
C5089 C5088 1.391 . S
C5090 H5080 0.950 . S
C5090 C5091 1.386 . S
C5090 C5092 1.391 . S
C5091 C5090 1.386 . S
C5091 C5095 1.393 . S
C5092 H5081 0.950 . S
C5092 C5090 1.391 . S
C5092 C5093 1.400 . S
C5093 C5087 1.491 . S
C5093 C5092 1.400 . S
C5093 C5094 1.398 . S
C5094 H5082 0.950 . S
C5094 C5093 1.398 . S
C5094 C5095 1.391 . S
C5095 H5083 0.950 . S
C5095 C5091 1.393 . S
C5095 C5094 1.391 . S
H5096 C5104 0.950 . S
H5097 C5109 0.950 . S
H5098 C5106 0.950 . S
H5099 C5108 0.950 . S
H5100 C5110 0.950 . S
H5101 C5112 0.950 . S
H5102 C5114 0.950 . S
H5103 C5115 0.950 . S
C5104 H5096 0.950 . S
C5104 C5105 1.386 . S
C5104 C5106 1.391 1_655 S
C5105 C5104 1.386 . S
C5105 C5109 1.393 . S
C5106 H5098 0.950 . S
C5106 C5104 1.391 1_455 S
C5106 C5107 1.400 1_455 S
C5107 C5106 1.400 1_655 S
C5107 C5108 1.398 . S
C5107 C5113 1.491 1_655 S
C5108 H5099 0.950 . S
C5108 C5107 1.398 . S
C5108 C5109 1.391 . S
C5109 H5097 0.950 . S
C5109 C5105 1.393 . S
C5109 C5108 1.391 . S
C5110 H5100 0.950 . S
C5110 C5111 1.386 . S
C5110 C5112 1.391 1_455 S
C5111 C5110 1.386 . S
C5111 C5115 1.393 . S
C5112 H5101 0.950 . S
C5112 C5110 1.391 1_655 S
C5112 C5113 1.400 1_655 S
C5113 C5107 1.491 1_455 S
C5113 C5112 1.400 1_455 S
C5113 C5114 1.398 . S
C5114 H5102 0.950 . S
C5114 C5113 1.398 . S
C5114 C5115 1.391 . S
C5115 H5103 0.950 . S
C5115 C5111 1.393 . S
C5115 C5114 1.391 . S
H5116 C5124 0.950 . S
H5117 C5129 0.950 . S
H5118 C5126 0.950 . S
H5119 C5128 0.950 . S
H5120 C5130 0.950 . S
H5121 C5132 0.950 . S
H5122 C5134 0.950 . S
H5123 C5135 0.950 . S
C5124 H5116 0.950 . S
C5124 C5125 1.386 . S
C5124 C5126 1.391 . S
C5125 C5124 1.386 . S
C5125 C5129 1.393 . S
C5126 H5118 0.950 . S
C5126 C5124 1.391 . S
C5126 C5127 1.400 . S
C5127 C5126 1.400 . S
C5127 C5128 1.398 . S
C5127 C5133 1.491 . S
C5128 H5119 0.950 . S
C5128 C5127 1.398 . S
C5128 C5129 1.391 . S
C5129 H5117 0.950 . S
C5129 C5125 1.393 . S
C5129 C5128 1.391 . S
C5130 H5120 0.950 . S
C5130 C5131 1.386 . S
C5130 C5132 1.391 . S
C5131 C5130 1.386 . S
C5131 C5135 1.393 . S
C5132 H5121 0.950 . S
C5132 C5130 1.391 . S
C5132 C5133 1.400 . S
C5133 C5127 1.491 . S
C5133 C5132 1.400 . S
C5133 C5134 1.398 . S
C5134 H5122 0.950 . S
C5134 C5133 1.398 . S
C5134 C5135 1.391 . S
C5135 H5123 0.950 . S
C5135 C5131 1.393 . S
C5135 C5134 1.391 . S
H5136 C5144 0.950 . S
H5137 C5149 0.950 . S
H5138 C5146 0.950 . S
H5139 C5148 0.950 . S
H5140 C5150 0.950 . S
H5141 C5152 0.950 . S
H5142 C5154 0.950 . S
H5143 C5155 0.950 . S
C5144 H5136 0.950 . S
C5144 C5145 1.386 . S
C5144 C5146 1.391 . S
C5145 C5144 1.386 . S
C5145 C5149 1.393 . S
C5146 H5138 0.950 . S
C5146 C5144 1.391 . S
C5146 C5147 1.400 . S
C5147 C5146 1.400 . S
C5147 C5148 1.398 . S
C5147 C5153 1.491 . S
C5148 H5139 0.950 . S
C5148 C5147 1.398 . S
C5148 C5149 1.391 . S
C5149 H5137 0.950 . S
C5149 C5145 1.393 . S
C5149 C5148 1.391 . S
C5150 H5140 0.950 . S
C5150 C5151 1.386 . S
C5150 C5152 1.391 . S
C5151 C5150 1.386 . S
C5151 C5155 1.393 . S
C5152 H5141 0.950 . S
C5152 C5150 1.391 . S
C5152 C5153 1.400 . S
C5153 C5147 1.491 . S
C5153 C5152 1.400 . S
C5153 C5154 1.398 . S
C5154 H5142 0.950 . S
C5154 C5153 1.398 . S
C5154 C5155 1.391 . S
C5155 H5143 0.950 . S
C5155 C5151 1.393 . S
C5155 C5154 1.391 . S
H5156 C5164 0.950 . S
H5157 C5169 0.950 . S
H5158 C5166 0.950 . S
H5159 C5168 0.950 . S
H5160 C5170 0.950 . S
H5161 C5172 0.950 . S
H5162 C5174 0.950 . S
H5163 C5175 0.950 . S
C5164 H5156 0.950 . S
C5164 C5165 1.386 . S
C5164 C5166 1.391 . S
C5165 C5164 1.386 . S
C5165 C5169 1.393 . S
C5166 H5158 0.950 . S
C5166 C5164 1.391 . S
C5166 C5167 1.400 . S
C5167 C5166 1.400 . S
C5167 C5168 1.398 . S
C5167 C5173 1.491 . S
C5168 H5159 0.950 . S
C5168 C5167 1.398 . S
C5168 C5169 1.391 . S
C5169 H5157 0.950 . S
C5169 C5165 1.393 . S
C5169 C5168 1.391 . S
C5170 H5160 0.950 . S
C5170 C5171 1.386 . S
C5170 C5172 1.391 . S
C5171 C5170 1.386 . S
C5171 C5175 1.393 . S
C5172 H5161 0.950 . S
C5172 C5170 1.391 . S
C5172 C5173 1.400 . S
C5173 C5167 1.491 . S
C5173 C5172 1.400 . S
C5173 C5174 1.398 . S
C5174 H5162 0.950 . S
C5174 C5173 1.398 . S
C5174 C5175 1.391 . S
C5175 H5163 0.950 . S
C5175 C5171 1.393 . S
C5175 C5174 1.391 . S
H5176 C5184 0.950 . S
H5177 C5189 0.950 . S
H5178 C5186 0.950 . S
H5179 C5188 0.950 1_455 S
H5180 C5190 0.950 . S
H5181 C5192 0.950 . S
H5182 C5194 0.950 . S
H5183 C5195 0.950 . S
C5184 H5176 0.950 . S
C5184 C5185 1.386 . S
C5184 C5186 1.391 . S
C5185 C5184 1.386 . S
C5185 C5189 1.393 . S
C5186 H5178 0.950 . S
C5186 C5184 1.391 . S
C5186 C5187 1.400 . S
C5187 C5186 1.400 . S
C5187 C5188 1.398 . S
C5187 C5193 1.491 . S
C5188 H5179 0.950 1_655 S
C5188 C5187 1.398 . S
C5188 C5189 1.391 . S
C5189 H5177 0.950 . S
C5189 C5185 1.393 . S
C5189 C5188 1.391 . S
C5190 H5180 0.950 . S
C5190 C5191 1.386 . S
C5190 C5192 1.391 . S
C5191 C5190 1.386 . S
C5191 C5195 1.393 1_455 S
C5192 H5181 0.950 . S
C5192 C5190 1.391 . S
C5192 C5193 1.400 1_455 S
C5193 C5187 1.491 . S
C5193 C5192 1.400 1_655 S
C5193 C5194 1.398 . S
C5194 H5182 0.950 . S
C5194 C5193 1.398 . S
C5194 C5195 1.391 . S
C5195 H5183 0.950 . S
C5195 C5191 1.393 1_655 S
C5195 C5194 1.391 . S
H5196 C5204 0.950 . S
H5197 C5209 0.950 . S
H5198 C5206 0.950 . S
H5199 C5208 0.950 . S
H5200 C5210 0.950 . S
H5201 C5212 0.950 . S
H5202 C5214 0.950 . S
H5203 C5215 0.950 . S
C5204 H5196 0.950 . S
C5204 C5205 1.386 . S
C5204 C5206 1.391 . S
C5205 C5204 1.386 . S
C5205 C5209 1.393 . S
C5206 H5198 0.950 . S
C5206 C5204 1.391 . S
C5206 C5207 1.400 . S
C5207 C5206 1.400 . S
C5207 C5208 1.398 . S
C5207 C5213 1.491 . S
C5208 H5199 0.950 . S
C5208 C5207 1.398 . S
C5208 C5209 1.391 . S
C5209 H5197 0.950 . S
C5209 C5205 1.393 . S
C5209 C5208 1.391 . S
C5210 H5200 0.950 . S
C5210 C5211 1.386 . S
C5210 C5212 1.391 . S
C5211 C5210 1.386 . S
C5211 C5215 1.393 . S
C5212 H5201 0.950 . S
C5212 C5210 1.391 . S
C5212 C5213 1.400 . S
C5213 C5207 1.491 . S
C5213 C5212 1.400 . S
C5213 C5214 1.398 . S
C5214 H5202 0.950 . S
C5214 C5213 1.398 . S
C5214 C5215 1.391 . S
C5215 H5203 0.950 . S
C5215 C5211 1.393 . S
C5215 C5214 1.391 . S
H5216 C5224 0.950 . S
H5217 C5229 0.950 . S
H5218 C5226 0.950 . S
H5219 C5228 0.950 . S
H5220 C5230 0.950 . S
H5221 C5232 0.950 . S
H5222 C5234 0.950 . S
H5223 C5235 0.950 . S
C5224 H5216 0.950 . S
C5224 C5225 1.386 . S
C5224 C5226 1.391 . S
C5225 C5224 1.386 . S
C5225 C5229 1.393 . S
C5226 H5218 0.950 . S
C5226 C5224 1.391 . S
C5226 C5227 1.400 . S
C5227 C5226 1.400 . S
C5227 C5228 1.398 . S
C5227 C5233 1.491 . S
C5228 H5219 0.950 . S
C5228 C5227 1.398 . S
C5228 C5229 1.391 . S
C5229 H5217 0.950 . S
C5229 C5225 1.393 . S
C5229 C5228 1.391 . S
C5230 H5220 0.950 . S
C5230 C5231 1.386 . S
C5230 C5232 1.391 . S
C5231 C5230 1.386 . S
C5231 C5235 1.393 . S
C5232 H5221 0.950 . S
C5232 C5230 1.391 . S
C5232 C5233 1.400 . S
C5233 C5227 1.491 . S
C5233 C5232 1.400 . S
C5233 C5234 1.398 . S
C5234 H5222 0.950 . S
C5234 C5233 1.398 . S
C5234 C5235 1.391 . S
C5235 H5223 0.950 . S
C5235 C5231 1.393 . S
C5235 C5234 1.391 . S
H5236 C5244 0.950 . S
H5237 C5249 0.950 . S
H5238 C5246 0.950 . S
H5239 C5248 0.950 . S
H5240 C5250 0.950 . S
H5241 C5252 0.950 1_545 S
H5242 C5254 0.950 . S
H5243 C5255 0.950 . S
C5244 H5236 0.950 . S
C5244 C5245 1.386 . S
C5244 C5246 1.391 . S
C5245 C5244 1.386 . S
C5245 C5249 1.393 . S
C5246 H5238 0.950 . S
C5246 C5244 1.391 . S
C5246 C5247 1.400 . S
C5247 C5246 1.400 . S
C5247 C5248 1.398 . S
C5247 C5253 1.491 . S
C5248 H5239 0.950 . S
C5248 C5247 1.398 . S
C5248 C5249 1.391 . S
C5249 H5237 0.950 . S
C5249 C5245 1.393 . S
C5249 C5248 1.391 . S
C5250 H5240 0.950 . S
C5250 C5251 1.386 . S
C5250 C5252 1.391 1_545 S
C5251 C5250 1.386 . S
C5251 C5255 1.393 1_545 S
C5252 H5241 0.950 1_565 S
C5252 C5250 1.391 1_565 S
C5252 C5253 1.400 . S
C5253 C5247 1.491 . S
C5253 C5252 1.400 . S
C5253 C5254 1.398 . S
C5254 H5242 0.950 . S
C5254 C5253 1.398 . S
C5254 C5255 1.391 . S
C5255 H5243 0.950 . S
C5255 C5251 1.393 1_565 S
C5255 C5254 1.391 . S
H5256 C5264 0.950 . S
H5257 C5269 0.950 . S
H5258 C5266 0.950 . S
H5259 C5268 0.950 . S
H5260 C5270 0.950 . S
H5261 C5272 0.950 . S
H5262 C5274 0.950 . S
H5263 C5275 0.950 . S
C5264 H5256 0.950 . S
C5264 C5265 1.386 . S
C5264 C5266 1.391 . S
C5265 C5264 1.386 . S
C5265 C5269 1.393 . S
C5266 H5258 0.950 . S
C5266 C5264 1.391 . S
C5266 C5267 1.400 . S
C5267 C5266 1.400 . S
C5267 C5268 1.398 . S
C5267 C5273 1.491 . S
C5268 H5259 0.950 . S
C5268 C5267 1.398 . S
C5268 C5269 1.391 . S
C5269 H5257 0.950 . S
C5269 C5265 1.393 . S
C5269 C5268 1.391 . S
C5270 H5260 0.950 . S
C5270 C5271 1.386 . S
C5270 C5272 1.391 . S
C5271 C5270 1.386 . S
C5271 C5275 1.393 . S
C5272 H5261 0.950 . S
C5272 C5270 1.391 . S
C5272 C5273 1.400 . S
C5273 C5267 1.491 . S
C5273 C5272 1.400 . S
C5273 C5274 1.398 . S
C5274 H5262 0.950 . S
C5274 C5273 1.398 . S
C5274 C5275 1.391 . S
C5275 H5263 0.950 . S
C5275 C5271 1.393 . S
C5275 C5274 1.391 . S
H5276 C5284 0.950 . S
H5277 C5289 0.950 . S
H5278 C5286 0.950 . S
H5279 C5288 0.950 . S
H5280 C5290 0.950 . S
H5281 C5292 0.950 . S
H5282 C5294 0.950 1_556 S
H5283 C5295 0.950 1_556 S
C5284 H5276 0.950 . S
C5284 C5285 1.386 1_556 S
C5284 C5286 1.391 . S
C5285 C5284 1.386 1_554 S
C5285 C5289 1.393 . S
C5286 H5278 0.950 . S
C5286 C5284 1.391 . S
C5286 C5287 1.400 1_556 S
C5287 C5286 1.400 1_554 S
C5287 C5288 1.398 . S
C5287 C5293 1.491 . S
C5288 H5279 0.950 . S
C5288 C5287 1.398 . S
C5288 C5289 1.391 . S
C5289 H5277 0.950 . S
C5289 C5285 1.393 . S
C5289 C5288 1.391 . S
C5290 H5280 0.950 . S
C5290 C5291 1.386 . S
C5290 C5292 1.391 . S
C5291 C5290 1.386 . S
C5291 C5295 1.393 . S
C5292 H5281 0.950 . S
C5292 C5290 1.391 . S
C5292 C5293 1.400 . S
C5293 C5287 1.491 . S
C5293 C5292 1.400 . S
C5293 C5294 1.398 . S
C5294 H5282 0.950 1_554 S
C5294 C5293 1.398 . S
C5294 C5295 1.391 . S
C5295 H5283 0.950 1_554 S
C5295 C5291 1.393 . S
C5295 C5294 1.391 . S
H5296 C5304 0.950 . S
H5297 C5309 0.950 . S
H5298 C5306 0.950 . S
H5299 C5308 0.950 . S
H5300 C5310 0.950 . S
H5301 C5312 0.950 . S
H5302 C5314 0.950 . S
H5303 C5315 0.950 . S
C5304 H5296 0.950 . S
C5304 C5305 1.386 . S
C5304 C5306 1.391 . S
C5305 C5304 1.386 . S
C5305 C5309 1.393 . S
C5306 H5298 0.950 . S
C5306 C5304 1.391 . S
C5306 C5307 1.400 . S
C5307 C5306 1.400 . S
C5307 C5308 1.398 . S
C5307 C5313 1.491 . S
C5308 H5299 0.950 . S
C5308 C5307 1.398 . S
C5308 C5309 1.391 . S
C5309 H5297 0.950 . S
C5309 C5305 1.393 . S
C5309 C5308 1.391 . S
C5310 H5300 0.950 . S
C5310 C5311 1.386 . S
C5310 C5312 1.391 . S
C5311 C5310 1.386 . S
C5311 C5315 1.393 . S
C5312 H5301 0.950 . S
C5312 C5310 1.391 . S
C5312 C5313 1.400 . S
C5313 C5307 1.491 . S
C5313 C5312 1.400 . S
C5313 C5314 1.398 . S
C5314 H5302 0.950 . S
C5314 C5313 1.398 . S
C5314 C5315 1.391 . S
C5315 H5303 0.950 . S
C5315 C5311 1.393 . S
C5315 C5314 1.391 . S
H5316 C5324 0.950 . S
H5317 C5329 0.950 . S
H5318 C5326 0.950 . S
H5319 C5328 0.950 . S
H5320 C5330 0.950 . S
H5321 C5332 0.950 . S
H5322 C5334 0.950 . S
H5323 C5335 0.950 . S
C5324 H5316 0.950 . S
C5324 C5325 1.386 . S
C5324 C5326 1.391 . S
C5325 C5324 1.386 . S
C5325 C5329 1.393 . S
C5326 H5318 0.950 . S
C5326 C5324 1.391 . S
C5326 C5327 1.400 . S
C5327 C5326 1.400 . S
C5327 C5328 1.398 . S
C5327 C5333 1.491 . S
C5328 H5319 0.950 . S
C5328 C5327 1.398 . S
C5328 C5329 1.391 . S
C5329 H5317 0.950 . S
C5329 C5325 1.393 . S
C5329 C5328 1.391 . S
C5330 H5320 0.950 . S
C5330 C5331 1.386 . S
C5330 C5332 1.391 . S
C5331 C5330 1.386 . S
C5331 C5335 1.393 . S
C5332 H5321 0.950 . S
C5332 C5330 1.391 . S
C5332 C5333 1.400 . S
C5333 C5327 1.491 . S
C5333 C5332 1.400 . S
C5333 C5334 1.398 . S
C5334 H5322 0.950 . S
C5334 C5333 1.398 . S
C5334 C5335 1.391 . S
C5335 H5323 0.950 . S
C5335 C5331 1.393 . S
C5335 C5334 1.391 . S
H5336 C5344 0.950 . S
H5337 C5349 0.950 . S
H5338 C5346 0.950 . S
H5339 C5348 0.950 . S
H5340 C5350 0.950 . S
H5341 C5352 0.950 . S
H5342 C5354 0.950 . S
H5343 C5355 0.950 . S
C5344 H5336 0.950 . S
C5344 C5345 1.386 . S
C5344 C5346 1.391 . S
C5345 C5344 1.386 . S
C5345 C5349 1.393 . S
C5346 H5338 0.950 . S
C5346 C5344 1.391 . S
C5346 C5347 1.400 . S
C5347 C5346 1.400 . S
C5347 C5348 1.398 . S
C5347 C5353 1.491 . S
C5348 H5339 0.950 . S
C5348 C5347 1.398 . S
C5348 C5349 1.391 . S
C5349 H5337 0.950 . S
C5349 C5345 1.393 . S
C5349 C5348 1.391 . S
C5350 H5340 0.950 . S
C5350 C5351 1.386 . S
C5350 C5352 1.391 . S
C5351 C5350 1.386 . S
C5351 C5355 1.393 . S
C5352 H5341 0.950 . S
C5352 C5350 1.391 . S
C5352 C5353 1.400 . S
C5353 C5347 1.491 . S
C5353 C5352 1.400 . S
C5353 C5354 1.398 . S
C5354 H5342 0.950 . S
C5354 C5353 1.398 . S
C5354 C5355 1.391 . S
C5355 H5343 0.950 . S
C5355 C5351 1.393 . S
C5355 C5354 1.391 . S
H5356 C5364 0.950 . S
H5357 C5369 0.950 . S
H5358 C5366 0.950 . S
H5359 C5368 0.950 . S
H5360 C5370 0.950 . S
H5361 C5372 0.950 . S
H5362 C5374 0.950 . S
H5363 C5375 0.950 . S
C5364 H5356 0.950 . S
C5364 C5365 1.386 . S
C5364 C5366 1.391 . S
C5365 C5364 1.386 . S
C5365 C5369 1.393 . S
C5366 H5358 0.950 . S
C5366 C5364 1.391 . S
C5366 C5367 1.400 . S
C5367 C5366 1.400 . S
C5367 C5368 1.398 . S
C5367 C5373 1.491 . S
C5368 H5359 0.950 . S
C5368 C5367 1.398 . S
C5368 C5369 1.391 . S
C5369 H5357 0.950 . S
C5369 C5365 1.393 . S
C5369 C5368 1.391 . S
C5370 H5360 0.950 . S
C5370 C5371 1.386 . S
C5370 C5372 1.391 . S
C5371 C5370 1.386 . S
C5371 C5375 1.393 . S
C5372 H5361 0.950 . S
C5372 C5370 1.391 . S
C5372 C5373 1.400 . S
C5373 C5367 1.491 . S
C5373 C5372 1.400 . S
C5373 C5374 1.398 . S
C5374 H5362 0.950 . S
C5374 C5373 1.398 . S
C5374 C5375 1.391 . S
C5375 H5363 0.950 . S
C5375 C5371 1.393 . S
C5375 C5374 1.391 . S
C3465 C665 1.678 . S
C3471 C2168 1.601 . S
C3485 C381 2.183 . S
C3491 C2259 2.156 . S
C3505 C460 1.613 . S
C3511 C2336 1.597 . S
C3531 C2434 1.503 . S
C3525 C585 1.663 . S
C3545 C108 1.576 . S
C3551 C2518 1.507 . S
C3571 C2590 0.947 . S
C3565 C196 1.017 . S
C3591 C2679 0.839 . S
C3585 C313 0.797 . S
C3605 C49 1.261 . S
C3611 C2756 1.130 . S
C3631 C2175 1.946 . S
C3625 C1457 2.046 1_455 S
C3645 C1545 0.497 . S
C3651 C2266 0.553 . S
C3671 C2343 1.131 . S
C3665 C1721 1.180 . S
C3691 C2420 1.694 . S
C3685 C1113 1.719 . S
C3705 C1428 2.133 1_455 S
C3711 C2504 2.020 . S
C3731 C2606 1.060 . S
C3725 C1516 1.096 . S
C3751 C2686 0.656 . S
C3745 C1692 0.662 . S
C3771 C2763 1.351 . S
C3765 C1085 1.469 . S
C3791 C2182 1.365 . S
C3785 C988 1.499 . S
C3805 C1817 1.988 . S
C3811 C2847 1.913 . S
C3831 C2935 2.084 . S
C3825 C2081 2.264 . S
C3851 C3008 0.498 . S
C3845 C1993 0.398 . S
C3865 C761 0.750 . S
C3871 C2770 0.709 . S
C3885 C821 1.430 . S
C3891 C2350 1.391 . S
C3905 C2053 2.352 . S
C3911 C3099 2.286 . S
C3931 C3176 0.649 . S
C3925 C1868 0.679 . S
C3951 C2179 1.600 1_565 S
C3945 C372 1.673 . S
C3971 C3194 2.152 . S
C3965 C645 2.179 . S
C3985 C577 1.607 . S
C3991 C2347 1.596 . S
C4005 C497 1.659 . S
C4011 C3094 1.519 . S
C4031 C2506 1.497 . S
C4025 C57 1.571 . S
C4045 C293 1.024 . S
C4051 C2938 0.957 . S
C4071 C2690 0.822 1_566 S
C4065 C205 0.829 . S
C4091 C3271 1.152 . S
C4085 C145 1.278 . S
C4111 C2186 1.936 . S
C4105 C909 2.033 . S
C4131 C3178 0.603 . S
C4125 C1956 0.498 . S
C4145 C724 1.177 . S
C4151 C2354 1.130 . S
C4165 C1780 1.704 . S
C4171 C3103 1.682 . S
C4185 C937 2.130 . S
C4191 C2515 2.002 . S
C4211 C2931 1.017 . S
C4205 C1985 1.099 . S
C4225 C753 0.663 . S
C4231 C2674 0.681 . S
C4245 C1809 1.470 . S
C4251 C3278 1.391 . S
C4265 C1173 1.495 . S
C4271 C2170 1.395 . S
C4285 C1105 1.980 . S
C4291 C2858 1.911 . S
C4305 C1633 2.263 . S
C4311 C2588 2.088 . S
C4325 C1553 0.354 . S
C4331 C3019 0.422 . S
C4351 C3262 0.740 . S
C4345 C1729 0.706 . S
C4365 C1340 1.434 . S
C4371 C2338 1.383 . S
C4391 C2438 2.281 . S
C4385 C1604 2.354 . S
C4411 C2263 0.696 . S
C4405 C1252 0.642 . S
C4425 C489 1.660 . S
C4431 C3344 1.580 . S
C4451 C3183 2.166 . S
C4445 C557 2.178 . S
C4465 C636 1.604 1_554 S
C4471 C3428 1.592 . S
C4485 C409 1.660 1_655 S
C4491 C3106 1.534 . S
C4505 C284 1.567 . S
C4511 C2854 1.508 . S
C4531 C2926 0.955 . S
C4525 C20 1.032 . S
C4551 C3015 0.818 . S
C4545 C137 0.836 . S
C4571 C3260 1.145 . S
C4565 C225 1.276 . S
C4591 C3351 1.939 . S
C4585 C1641 2.037 . S
C4605 C1193 0.496 . S
C4611 C3190 0.561 . S
C4631 C3435 1.159 . S
C4625 C1289 1.171 . S
C4651 C3092 1.688 . S
C4645 C1377 1.704 . S
C4671 C2840 1.996 . S
C4665 C1613 2.130 . S
C4685 C1164 1.102 . S
C4691 C2942 1.034 . S
C4711 C3022 0.670 . S
C4705 C1261 0.666 . S
C4725 C1349 1.473 . S
C4731 C3267 1.388 . S
C4751 C3358 1.364 . S
C4745 C1965 1.496 . S
C4765 C849 1.985 . S
C4771 C2511 1.925 . S
C4791 C2599 2.102 . S
C4785 C929 2.271 . S
C4811 C2672 0.484 . S
C4805 C1017 0.410 . S
C4831 C3274 0.753 . S
C4825 C1897 0.716 . S
C4845 C1789 1.422 . S
C4851 C3442 1.396 . S
C4871 C2427 2.270 . S
C4865 C900 2.348 . S
C4891 C2252 0.652 . S
C4885 C733 0.667 . S
C4905 C548 1.673 . S
C4911 C3355 1.571 . S
C4931 C2270 2.152 . S
C4925 C469 2.180 . S
C4945 C401 1.598 . S
C4951 C3439 1.587 . S
C4965 C673 1.659 . S
C4971 C2422 1.517 . S
C4985 C233 1.568 . S
C4991 C2842 1.523 . S
C5011 C2602 0.890 . S
C5005 C117 0.995 . S
C5025 C29 0.789 . S
C5031 C3026 0.829 . S
C5045 C321 1.269 . S
C5051 C2767 1.172 . S
C5071 C3362 1.938 . S
C5065 C2044 2.037 . S
C5085 C997 0.497 . S
C5091 C2254 0.574 . S
C5111 C3446 1.131 . S
C5105 C1877 1.177 . S
C5125 C812 1.722 . S
C5131 C2431 1.675 . S
C5145 C2073 2.130 . S
C5151 C2851 2.004 . S
C5171 C2595 1.028 . S
C5165 C1025 1.098 . S
C5185 C1905 0.659 . S
C5191 C3010 0.660 . S
C5211 C2774 1.373 . S
C5205 C841 1.476 . S
C5231 C3346 1.378 . S
C5225 C1525 1.491 . S
C5251 C2522 1.925 1_655 S
C5245 C1369 1.979 . S
C5265 C1465 2.261 . S
C5271 C2924 2.079 . S
C5291 C2683 0.455 . S
C5285 C1201 0.408 . S
C5305 C1281 0.741 . S
C5311 C2758 0.705 . S
C5325 C1076 1.424 . S
C5331 C3430 1.420 . S
C5351 C3110 2.267 . S
C5345 C1437 2.351 . S
C5371 C3187 0.701 . S
C5365 C1701 0.643 . S
