# Generated by pormake.
# Topology bcu-b, (8,8)-cn, num edge types: 1
# Building blocks:
#     Node 0, Type 0, BuildingBlock: TAGTUT_clean_sbu_3, # of connection points: 8
#     Node 1, Type 1, BuildingBlock: TAGTUT_clean_sbu_1, # of connection points: 8
#     Edge 2, Type (0, 1), BuildingBlock: TEMPAE_clean_linker_10, # of connection points: 2
#     Edge 3, Type (0, 1), BuildingBlock: TEMPAE_clean_linker_10, # of connection points: 2
#     Edge 4, Type (0, 1), BuildingBlock: TEMPAE_clean_linker_10, # of connection points: 2
#     Edge 5, Type (0, 1), BuildingBlock: TEMPAE_clean_linker_10, # of connection points: 2
#     Edge 6, Type (0, 1), BuildingBlock: TEMPAE_clean_linker_10, # of connection points: 2
#     Edge 7, Type (0, 1), BuildingBlock: TEMPAE_clean_linker_10, # of connection points: 2
#     Edge 8, Type (0, 1), BuildingBlock: TEMPAE_clean_linker_10, # of connection points: 2
#     Edge 9, Type (0, 1), BuildingBlock: TEMPAE_clean_linker_10, # of connection points: 2
# Relax obj value: 0.017
# Max RMSD: 0.085
# Mean RMSD: 0.074
data_MOF--net-bcu-b--node1-TAGTUT_clean_sbu_3--node2-TAGTUT_clean_sbu_1--edge1-TEMPAE_clean_linker_10
_symmetry_space_group_name_H-M    P1
_symmetry_Int_Tables_number       1
_symmetry_cell_setting            triclinic
loop_
_symmetry_equiv_pos_as_xyz
'x, y, z'
_cell_length_a     20.045871
_cell_length_b     19.189497
_cell_length_c     21.31569
_cell_angle_alpha  91.387268
_cell_angle_beta   91.531788
_cell_angle_gamma 109.02899
loop_
_atom_site_label
_atom_site_type_symbol
_atom_site_fract_x
_atom_site_fract_y
_atom_site_fract_z
_atom_type_partial_charge
C0 C 0.11213 0.12347 0.09044 0.0
C1 C 0.21221 0.89733 0.06336 0.0
C2 C 0.11898 0.88353 0.87898 0.0
Mg3 Mg 0.98092 0.15252 0.01671 0.0
Mg4 Mg 0.84444 0.01184 0.96514 0.0
O5 O 0.94238 0.06006 0.96239 0.0
Mg6 Mg 0.00647 0.00573 -0.00739 0.0
O7 O 0.07647 0.9586 0.02415 0.0
Mg8 Mg 0.16384 0.02599 -0.01372 0.0
Mg9 Mg 0.0583 0.85756 0.0085 0.0
C10 C 0.89475 0.89111 0.8924 0.0
O11 O 0.92408 0.92618 0.05273 0.0
O12 O 0.90534 0.19813 0.95589 0.0
O13 O 0.95555 0.82301 0.0506 0.0
O14 O 0.89447 0.1143 0.08946 0.0
O15 O 0.81416 0.09799 0.92258 0.0
O16 O 0.81037 0.00907 0.06038 0.0
O17 O 0.09197 0.07981 0.93504 0.0
O18 O 0.07087 0.18663 0.94709 0.0
C19 C 0.10809 0.14879 0.92562 0.0
C20 C 0.84588 0.16783 0.92563 0.0
O21 O 0.95913 0.9205 0.91257 0.0
O22 O 0.22709 0.9631 0.04306 0.0
O23 O 0.84436 0.91353 0.91108 0.0
O24 O 0.15639 0.94747 0.90063 0.0
O25 O 0.15091 0.8487 0.05599 0.0
O26 O 0.07103 0.83976 0.91083 0.0
O27 O 0.04853 0.09353 0.06931 0.0
O28 O 0.16296 0.10369 0.06937 0.0
C29 C 0.83829 0.06157 0.10054 0.0
C30 C 0.9138 0.85864 0.06614 0.0
C31 C 0.37062 0.68998 0.55997 0.0
C32 C 0.42833 0.65505 0.37268 0.0
C33 C 0.36194 0.36998 0.44065 0.0
Mg34 Mg 0.50665 0.67775 0.50113 0.0
O35 O 0.46235 0.57842 0.51953 0.0
Mg36 Mg 0.36324 0.53062 0.48499 0.0
Mg37 Mg 0.50236 0.50184 0.48863 0.0
O38 O 0.54132 0.42428 0.45793 0.0
Mg39 Mg 0.49788 0.32739 0.48437 0.0
Mg40 Mg 0.64268 0.47318 0.48421 0.0
C41 C 0.6435 0.63463 0.54071 0.0
C42 C 0.60161 0.5666 0.37298 0.0
O43 O 0.33679 0.62545 0.53635 0.0
O44 O 0.43758 0.72035 0.5555 0.0
O45 O 0.38199 0.5997 0.39573 0.0
O46 O 0.48498 0.6911 0.40355 0.0
O47 O 0.61399 0.68407 0.53113 0.0
O48 O 0.60908 0.56538 0.53392 0.0
C49 C 0.39439 0.43259 0.59755 0.0
O50 O 0.45582 0.44007 0.57672 0.0
O51 O 0.35251 0.46267 0.57169 0.0
O52 O 0.66166 0.37337 0.43011 0.0
O53 O 0.56008 0.2773 0.4296 0.0
O54 O 0.63338 0.41143 0.57683 0.0
C55 C 0.62458 0.30622 0.41454 0.0
O56 O 0.52941 0.3221 0.58148 0.0
O57 O 0.38928 0.32028 0.45604 0.0
C58 C 0.58935 0.36019 0.60623 0.0
O59 O 0.39848 0.43873 0.44108 0.0
O60 O 0.54513 0.56338 0.40091 0.0
O61 O 0.6454 0.53598 0.39394 0.0
C62 C 0.07364 0.18736 0.17961 0.0
C63 C 0.1276 0.17857 0.14281 0.0
C64 C 0.08989 0.23027 0.23576 0.0
C65 C 0.16147 0.26366 0.25543 0.0
C66 C 0.21577 0.26033 0.21529 0.0
C67 C 0.19798 0.21819 0.15939 0.0
C68 C 0.03027 0.23539 0.27524 0.0
C69 C 0.29323 0.29642 0.23329 0.0
C70 C 0.26528 0.3953 0.37877 0.0
C71 C 0.28937 0.34599 0.41299 0.0
C72 C 0.21092 0.36872 0.3328 0.0
C73 C 0.18197 0.29182 0.32082 0.0
C74 C 0.19568 0.24295 0.36413 0.0
C75 C 0.24964 0.27083 0.41007 0.0
C76 C 0.19288 0.42263 0.29084 0.0
C77 C 0.16248 0.16043 0.35535 0.0
H78 H 0.01889 0.15787 0.16644 0.0
H79 H 0.23979 0.21335 0.13013 0.0
H80 H 0.01173 0.18556 0.30371 0.0
H81 H 0.04659 0.28473 0.3075 0.0
H82 H 0.98486 0.23693 0.24491 0.0
H83 H 0.3283 0.28989 0.19571 0.0
H84 H 0.3049 0.35621 0.24345 0.0
H85 H 0.30678 0.27176 0.27634 0.0
H86 H 0.29355 0.45399 0.38266 0.0
H87 H 0.26565 0.23269 0.43871 0.0
H88 H 0.13742 0.4002 0.2724 0.0
H89 H 0.22798 0.43342 0.25028 0.0
H90 H 0.2009 0.47609 0.31636 0.0
H91 H 0.10526 0.14547 0.34353 0.0
H92 H 0.16954 0.13125 0.39813 0.0
H93 H 0.18741 0.14065 0.31585 0.0
C94 C 0.83588 0.09565 0.21367 0.0
C95 C 0.79939 0.07014 0.15628 0.0
C96 C 0.8041 0.12255 0.26233 0.0
C97 C 0.73572 0.12749 0.25193 0.0
C98 C 0.69697 0.09704 0.19553 0.0
C99 C 0.72899 0.06748 0.14873 0.0
C100 C 0.84592 0.15056 0.32295 0.0
C101 C 0.62446 0.10217 0.18186 0.0
C102 C 0.63606 0.18437 0.38255 0.0
C103 C 0.65604 0.26095 0.37564 0.0
C104 C 0.66298 0.14021 0.34387 0.0
C105 C 0.70895 0.17316 0.29574 0.0
C106 C 0.72926 0.25053 0.28869 0.0
C107 C 0.70345 0.2936 0.32939 0.0
C108 C 0.64256 0.05854 0.3546 0.0
C109 C 0.77714 0.28773 0.23722 0.0
H110 H 0.89037 0.09754 0.21952 0.0
H111 H 0.70113 0.04859 0.10397 0.0
H112 H 0.81117 0.14062 0.36374 0.0
H113 H 0.88669 0.12372 0.33094 0.0
H114 H 0.87299 0.21088 0.32082 0.0
H115 H 0.59811 0.06809 0.13972 0.0
H116 H 0.59019 0.08443 0.2224 0.0
H117 H 0.62926 0.16049 0.17364 0.0
H118 H 0.59977 0.15906 0.41867 0.0
H119 H 0.71843 0.35263 0.32358 0.0
H120 H 0.69072 0.04267 0.36137 0.0
H121 H 0.61286 0.02668 0.3128 0.0
H122 H 0.60947 0.04216 0.3962 0.0
H123 H 0.82944 0.28032 0.2439 0.0
H124 H 0.78508 0.34775 0.23616 0.0
H125 H 0.75457 0.26191 0.19087 0.0
C126 C 0.86811 0.78349 0.15715 0.0
C127 C 0.85505 0.82169 0.1059 0.0
C128 C 0.81396 0.7474 0.19646 0.0
C129 C 0.74426 0.74692 0.1825 0.0
C130 C 0.73072 0.78598 0.13073 0.0
C131 C 0.78698 0.82437 0.09358 0.0
C132 C 0.83159 0.70922 0.25272 0.0
C133 C 0.65777 0.788 0.11391 0.0
C134 C 0.63065 0.58006 0.26095 0.0
C135 C 0.62018 0.6118 0.31789 0.0
C136 C 0.66216 0.62469 0.21174 0.0
C137 C 0.6869 0.70227 0.22158 0.0
C138 C 0.66971 0.73426 0.27673 0.0
C139 C 0.63579 0.68822 0.32442 0.0
C140 C 0.67496 0.58889 0.15151 0.0
C141 C 0.69369 0.81675 0.28813 0.0
H142 H 0.92125 0.78279 0.16705 0.0
H143 H 0.7773 0.85444 0.05385 0.0
H144 H 0.80966 0.72569 0.29574 0.0
H145 H 0.80751 0.64861 0.24564 0.0
H146 H 0.88943 0.72223 0.26077 0.0
H147 H 0.64904 0.78548 0.0621 0.0
H148 H 0.61521 0.74245 0.13419 0.0
H149 H 0.65344 0.84123 0.13148 0.0
H150 H 0.61704 0.52062 0.25594 0.0
H151 H 0.62686 0.7122 0.3687 0.0
H152 H 0.73047 0.58936 0.15181 0.0
H153 H 0.66656 0.61999 0.11045 0.0
H154 H 0.63971 0.53073 0.14573 0.0
H155 H 0.75176 0.83749 0.29718 0.0
H156 H 0.668 0.83284 0.32902 0.0
H157 H 0.6819 0.84416 0.24606 0.0
C158 C 0.28882 0.90358 0.15822 0.0
C159 C 0.26657 0.87548 0.09733 0.0
C160 C 0.32714 0.87059 0.19677 0.0
C161 C 0.34456 0.8092 0.17306 0.0
C162 C 0.32771 0.78537 0.10949 0.0
C163 C 0.28754 0.81789 0.0727 0.0
C164 C 0.34332 0.89722 0.26445 0.0
C165 C 0.34762 0.72213 0.08166 0.0
C166 C 0.46108 0.7412 0.28307 0.0
C167 C 0.41018 0.68534 0.31372 0.0
C168 C 0.44132 0.77946 0.23432 0.0
C169 C 0.36886 0.76276 0.21726 0.0
C170 C 0.31785 0.70383 0.24582 0.0
C171 C 0.33927 0.66522 0.2929 0.0
C172 C 0.49768 0.83974 0.20325 0.0
C173 C 0.23989 0.68434 0.22956 0.0
H174 H 0.27179 0.94772 0.17716 0.0
H175 H 0.27008 0.79635 0.02539 0.0
H176 H 0.31065 0.85459 0.29538 0.0
H177 H 0.39947 0.9059 0.27734 0.0
H178 H 0.33225 0.9495 0.27395 0.0
H179 H 0.3432 0.71995 0.02953 0.0
H180 H 0.40241 0.7267 0.09653 0.0
H181 H 0.312 0.66929 0.09878 0.0
H182 H 0.51611 0.75668 0.29848 0.0
H183 H 0.29948 0.62217 0.31614 0.0
H184 H 0.49752 0.8943 0.2215 0.0
H185 H 0.48727 0.83739 0.15171 0.0
H186 H 0.55112 0.83588 0.21262 0.0
H187 H 0.22225 0.73211 0.24123 0.0
H188 H 0.20727 0.63603 0.25523 0.0
H189 H 0.22963 0.67179 0.17848 0.0
C190 C 0.17251 0.90603 0.77393 0.0
C191 C 0.1389 0.85639 0.81944 0.0
C192 C 0.20415 0.88295 0.72312 0.0
C193 C 0.20394 0.80912 0.71916 0.0
C194 C 0.16611 0.7578 0.76284 0.0
C195 C 0.1331 0.78192 0.81199 0.0
C196 C 0.24139 0.93885 0.67622 0.0
C197 C 0.16526 0.67877 0.7608 0.0
C198 C 0.26084 0.72056 0.57856 0.0
C199 C 0.33077 0.72825 0.59652 0.0
C200 C 0.22002 0.75077 0.61617 0.0
C201 C 0.24915 0.78692 0.67405 0.0
C202 C 0.32048 0.7967 0.69141 0.0
C203 C 0.36081 0.76819 0.65184 0.0
C204 C 0.14529 0.74244 0.59484 0.0
C205 C 0.35315 0.834 0.75325 0.0
H206 H 0.176 0.96345 0.77915 0.0
H207 H 0.10722 0.74344 0.8472 0.0
H208 H 0.29837 0.96162 0.68985 0.0
H209 H 0.23653 0.9134 0.62829 0.0
H210 H 0.22005 0.98547 0.67493 0.0
H211 H 0.12981 0.64489 0.79579 0.0
H212 H 0.14796 0.65299 0.71346 0.0
H213 H 0.21951 0.67743 0.77051 0.0
H214 H 0.23791 0.69039 0.53527 0.0
H215 H 0.41478 0.77381 0.66581 0.0
H216 H 0.13631 0.79648 0.59853 0.0
H217 H 0.10746 0.70444 0.62574 0.0
H218 H 0.13331 0.72043 0.54565 0.0
H219 H 0.34959 0.89042 0.75671 0.0
H220 H 0.40948 0.83791 0.75936 0.0
H221 H 0.32359 0.80277 0.79258 0.0
C222 C 0.20108 0.14539 0.85083 0.0
C223 C 0.17158 0.1861 0.89043 0.0
C224 C 0.25416 0.18111 0.80988 0.0
C225 C 0.27781 0.25906 0.80878 0.0
C226 C 0.25422 0.30016 0.85393 0.0
C227 C 0.20082 0.26314 0.8939 0.0
C228 C 0.27891 0.13498 0.76353 0.0
C229 C 0.27979 0.38342 0.85559 0.0
C230 C 0.41265 0.37095 0.69624 0.0
C231 C 0.36748 0.38374 0.64986 0.0
C232 C 0.38485 0.32761 0.74771 0.0
C233 C 0.31061 0.29641 0.75188 0.0
C234 C 0.26545 0.30584 0.70303 0.0
C235 C 0.29444 0.34967 0.653 0.0
C236 C 0.43468 0.31785 0.79843 0.0
C237 C 0.186 0.27178 0.70449 0.0
H238 H 0.17967 0.08569 0.84874 0.0
H239 H 0.17984 0.29487 0.92592 0.0
H240 H 0.24303 0.12249 0.72119 0.0
H241 H 0.33326 0.16402 0.74861 0.0
H242 H 0.27751 0.08177 0.78381 0.0
H243 H 0.26707 0.40669 0.90018 0.0
H244 H 0.33767 0.40534 0.8498 0.0
H245 H 0.25401 0.40289 0.81612 0.0
H246 H 0.46928 0.39664 0.6934 0.0
H247 H 0.25945 0.35768 0.61624 0.0
H248 H 0.41649 0.26085 0.81566 0.0
H249 H 0.43618 0.35594 0.83885 0.0
H250 H 0.48925 0.33035 0.78168 0.0
H251 H 0.17111 0.21157 0.71125 0.0
H252 H 0.15898 0.28061 0.66069 0.0
H253 H 0.16595 0.29617 0.74455 0.0
C254 C 0.74749 0.2184 0.91062 0.0
C255 C 0.81212 0.21364 0.89123 0.0
C256 C 0.70764 0.24997 0.87236 0.0
C257 C 0.73191 0.27453 0.81241 0.0
C258 C 0.79872 0.27244 0.79391 0.0
C259 C 0.83839 0.24251 0.83393 0.0
C260 C 0.63848 0.25461 0.89503 0.0
C261 C 0.8265 0.29798 0.73037 0.0
C262 C 0.60109 0.26381 0.67745 0.0
C263 C 0.6136 0.33855 0.66645 0.0
C264 C 0.63733 0.24212 0.72649 0.0
C265 C 0.68537 0.29655 0.76676 0.0
C266 C 0.69308 0.37187 0.75924 0.0
C267 C 0.65828 0.39211 0.70826 0.0
C268 C 0.6281 0.16124 0.73221 0.0
C269 C 0.74095 0.43172 0.80259 0.0
H270 H 0.72726 0.19554 0.955 0.0
H271 H 0.88799 0.23771 0.81884 0.0
H272 H 0.63548 0.31068 0.88808 0.0
H273 H 0.59398 0.21514 0.86722 0.0
H274 H 0.63138 0.24176 0.94545 0.0
H275 H 0.87994 0.29405 0.72362 0.0
H276 H 0.78998 0.26398 0.69287 0.0
H277 H 0.82896 0.35603 0.72453 0.0
H278 H 0.56704 0.22238 0.64481 0.0
H279 H 0.66758 0.45002 0.70006 0.0
H280 H 0.61473 0.14383 0.78079 0.0
H281 H 0.67852 0.15171 0.72202 0.0
H282 H 0.58611 0.1257 0.69939 0.0
H283 H 0.74439 0.41207 0.8507 0.0
H284 H 0.72217 0.48009 0.80551 0.0
H285 H 0.79485 0.45032 0.78395 0.0
C286 C 0.80772 0.79282 0.8265 0.0
C287 C 0.87822 0.83395 0.84126 0.0
C288 C 0.78887 0.74932 0.77122 0.0
C289 C 0.84214 0.74602 0.72979 0.0
C290 C 0.91408 0.78174 0.7473 0.0
C291 C 0.93126 0.82565 0.80294 0.0
C292 C 0.7112 0.7116 0.75511 0.0
C293 C 0.97303 0.77558 0.70716 0.0
C294 C 0.73871 0.61103 0.6066 0.0
C295 C 0.7152 0.65925 0.57044 0.0
C296 C 0.79199 0.63908 0.65353 0.0
C297 C 0.81986 0.71615 0.66492 0.0
C298 C 0.80619 0.76399 0.62065 0.0
C299 C 0.75394 0.73476 0.5735 0.0
C300 C 0.81194 0.58688 0.69596 0.0
C301 C 0.83861 0.8467 0.62864 0.0
H302 H 0.76661 0.79758 0.85667 0.0
H303 H 0.98597 0.85675 0.8143 0.0
H304 H 0.69604 0.73422 0.71159 0.0
H305 H 0.70024 0.65164 0.74642 0.0
H306 H 0.67691 0.71892 0.79307 0.0
H307 H 0.02077 0.82522 0.71352 0.0
H308 H 0.9877 0.72724 0.72183 0.0
H309 H 0.95746 0.76738 0.65651 0.0
H310 H 0.71105 0.55225 0.60289 0.0
H311 H 0.73836 0.77208 0.54352 0.0
H312 H 0.78441 0.58396 0.74073 0.0
H313 H 0.8696 0.6074 0.70731 0.0
H314 H 0.79721 0.53043 0.67427 0.0
H315 H 0.81397 0.86655 0.6683 0.0
H316 H 0.83066 0.87525 0.58575 0.0
H317 H 0.89606 0.86239 0.63991 0.0
loop_
_geom_bond_atom_site_label_1
_geom_bond_atom_site_label_2
_geom_bond_distance
_geom_bond_site_symmetry_2
_ccdc_geom_bond_type
C0 O27 1.312 . S
C0 O28 1.208 . S
C1 O22 1.331 . S
C1 O25 1.244 . S
C2 O24 1.264 . S
C2 O26 1.273 . S
Mg3 O5 1.933 1_454 S
Mg3 O12 2.072 1_454 S
Mg3 O14 2.014 1_455 S
Mg3 O18 2.041 1_554 S
Mg3 O27 2.299 . S
Mg4 O5 1.963 . S
Mg4 O15 1.942 . S
Mg4 O16 1.955 1_556 S
Mg4 O23 1.986 1_545 S
O5 Mg3 1.933 1_656 S
O5 Mg4 1.963 . S
O5 Mg6 1.915 1_546 S
Mg6 O5 1.915 1_564 S
Mg6 O7 1.915 1_655 S
Mg6 O11 2.013 . S
Mg6 O17 2.114 1_664 S
Mg6 O21 2.013 1_554 S
Mg6 O27 2.114 1_665 S
O7 Mg6 1.915 1_455 S
O7 Mg8 1.939 . S
O7 Mg9 1.963 . S
Mg8 O7 1.939 . S
Mg8 O17 2.282 1_564 S
Mg8 O22 2.091 . S
Mg8 O24 2.033 1_554 S
Mg8 O28 2.020 1_565 S
Mg9 O7 1.963 . S
Mg9 O13 1.986 1_455 S
Mg9 O25 1.942 . S
Mg9 O26 1.955 1_554 S
C10 O21 1.191 . S
C10 O23 1.307 . S
O11 Mg6 2.013 . S
O11 C30 1.191 . S
O12 Mg3 2.072 1_656 S
O12 C20 1.331 . S
O13 Mg9 1.986 1_655 S
O13 C30 1.307 . S
O14 Mg3 2.014 1_655 S
O14 C29 1.264 . S
O15 Mg4 1.942 . S
O15 C20 1.244 . S
O16 Mg4 1.955 1_554 S
O16 C29 1.273 . S
O17 Mg6 2.114 1_446 S
O17 Mg8 2.282 1_546 S
O17 C19 1.312 . S
O18 Mg3 2.041 1_556 S
O18 C19 1.208 . S
C19 O17 1.312 . S
C19 O18 1.208 . S
C20 O12 1.331 . S
C20 O15 1.244 . S
O21 Mg6 2.013 1_556 S
O21 C10 1.191 . S
O22 C1 1.331 . S
O22 Mg8 2.091 . S
O23 Mg4 1.986 1_565 S
O23 C10 1.307 . S
O24 C2 1.264 . S
O24 Mg8 2.033 1_556 S
O25 C1 1.244 . S
O25 Mg9 1.942 . S
O26 C2 1.273 . S
O26 Mg9 1.955 1_556 S
O27 C0 1.312 . S
O27 Mg3 2.299 . S
O27 Mg6 2.114 1_445 S
O28 C0 1.208 . S
O28 Mg8 2.020 1_545 S
C29 O14 1.264 . S
C29 O16 1.273 . S
C30 O11 1.191 . S
C30 O13 1.307 . S
C31 O43 1.241 . S
C31 O44 1.280 . S
C32 O45 1.277 . S
C32 O46 1.245 . S
C33 O57 1.247 . S
C33 O59 1.289 . S
Mg34 O35 1.926 . S
Mg34 O44 1.984 . S
Mg34 O46 1.988 . S
Mg34 O47 2.061 . S
O35 Mg34 1.926 . S
O35 Mg36 1.986 . S
O35 Mg37 1.917 . S
Mg36 O35 1.986 . S
Mg36 O43 2.042 . S
Mg36 O45 2.041 . S
Mg36 O51 2.038 . S
Mg36 O59 2.238 . S
Mg37 O35 1.917 . S
Mg37 O38 1.917 . S
Mg37 O48 2.106 . S
Mg37 O50 2.079 . S
Mg37 O59 2.106 . S
Mg37 O60 2.079 . S
O38 Mg37 1.917 . S
O38 Mg39 1.926 . S
O38 Mg40 1.986 . S
Mg39 O38 1.926 . S
Mg39 O53 1.984 . S
Mg39 O56 1.988 . S
Mg39 O57 2.061 . S
Mg40 O38 1.986 . S
Mg40 O48 2.238 . S
Mg40 O52 2.042 . S
Mg40 O54 2.041 . S
Mg40 O61 2.038 . S
C41 O47 1.247 . S
C41 O48 1.289 . S
C42 O60 1.245 . S
C42 O61 1.274 . S
O43 C31 1.241 . S
O43 Mg36 2.042 . S
O44 C31 1.280 . S
O44 Mg34 1.984 . S
O45 C32 1.277 . S
O45 Mg36 2.041 . S
O46 C32 1.245 . S
O46 Mg34 1.988 . S
O47 Mg34 2.061 . S
O47 C41 1.247 . S
O48 Mg37 2.106 . S
O48 Mg40 2.238 . S
O48 C41 1.289 . S
C49 O50 1.245 . S
C49 O51 1.274 . S
O50 Mg37 2.079 . S
O50 C49 1.245 . S
O51 Mg36 2.038 . S
O51 C49 1.274 . S
O52 Mg40 2.042 . S
O52 C55 1.241 . S
O53 Mg39 1.984 . S
O53 C55 1.280 . S
O54 Mg40 2.041 . S
O54 C58 1.277 . S
C55 O52 1.241 . S
C55 O53 1.280 . S
O56 Mg39 1.988 . S
O56 C58 1.245 . S
O57 C33 1.247 . S
O57 Mg39 2.061 . S
C58 O54 1.277 . S
C58 O56 1.245 . S
O59 C33 1.289 . S
O59 Mg36 2.238 . S
O59 Mg37 2.106 . S
O60 Mg37 2.079 . S
O60 C42 1.245 . S
O61 Mg40 2.038 . S
O61 C42 1.274 . S
C62 C63 1.391 . S
C62 C64 1.394 . S
C62 H78 0.931 . S
C63 C62 1.391 . S
C63 C67 1.376 . S
C64 C62 1.394 . S
C64 C65 1.369 . S
C64 C68 1.531 . S
C65 C64 1.369 . S
C65 C66 1.410 . S
C65 C73 1.503 . S
C66 C65 1.410 . S
C66 C67 1.392 . S
C66 C69 1.511 . S
C67 C63 1.376 . S
C67 C66 1.392 . S
C67 H79 0.929 . S
C68 C64 1.531 . S
C68 H80 0.960 . S
C68 H81 0.962 . S
C68 H82 0.960 . S
C69 C66 1.511 . S
C69 H83 0.961 . S
C69 H84 0.961 . S
C69 H85 0.961 . S
C70 C71 1.370 . S
C70 C72 1.363 . S
C70 H86 0.931 . S
C71 C70 1.370 . S
C71 C75 1.408 . S
C72 C70 1.363 . S
C72 C73 1.370 . S
C72 C76 1.524 . S
C73 C65 1.503 . S
C73 C72 1.370 . S
C73 C74 1.403 . S
C74 C73 1.403 . S
C74 C75 1.404 . S
C74 C77 1.539 . S
C75 C71 1.408 . S
C75 C74 1.404 . S
C75 H87 0.930 . S
C76 C72 1.524 . S
C76 H88 0.956 . S
C76 H89 0.961 . S
C76 H90 0.961 . S
C77 C74 1.539 . S
C77 H91 0.958 . S
C77 H92 0.961 . S
C77 H93 0.960 . S
H78 C62 0.931 . S
H79 C67 0.929 . S
H80 C68 0.960 . S
H81 C68 0.962 . S
H82 C68 0.960 . S
H83 C69 0.961 . S
H84 C69 0.961 . S
H85 C69 0.961 . S
H86 C70 0.931 . S
H87 C75 0.930 . S
H88 C76 0.956 . S
H89 C76 0.961 . S
H90 C76 0.961 . S
H91 C77 0.958 . S
H92 C77 0.961 . S
H93 C77 0.960 . S
C94 C95 1.391 . S
C94 C96 1.394 . S
C94 H110 0.931 . S
C95 C94 1.391 . S
C95 C99 1.376 . S
C96 C94 1.394 . S
C96 C97 1.369 . S
C96 C100 1.531 . S
C97 C96 1.369 . S
C97 C98 1.410 . S
C97 C105 1.503 . S
C98 C97 1.410 . S
C98 C99 1.392 . S
C98 C101 1.511 . S
C99 C95 1.376 . S
C99 C98 1.392 . S
C99 H111 0.929 . S
C100 C96 1.531 . S
C100 H112 0.960 . S
C100 H113 0.962 . S
C100 H114 0.960 . S
C101 C98 1.511 . S
C101 H115 0.961 . S
C101 H116 0.961 . S
C101 H117 0.961 . S
C102 C103 1.370 . S
C102 C104 1.363 . S
C102 H118 0.931 . S
C103 C102 1.370 . S
C103 C107 1.408 . S
C104 C102 1.363 . S
C104 C105 1.370 . S
C104 C108 1.524 . S
C105 C97 1.503 . S
C105 C104 1.370 . S
C105 C106 1.403 . S
C106 C105 1.403 . S
C106 C107 1.404 . S
C106 C109 1.539 . S
C107 C103 1.408 . S
C107 C106 1.404 . S
C107 H119 0.930 . S
C108 C104 1.524 . S
C108 H120 0.956 . S
C108 H121 0.961 . S
C108 H122 0.961 . S
C109 C106 1.539 . S
C109 H123 0.958 . S
C109 H124 0.961 . S
C109 H125 0.960 . S
H110 C94 0.931 . S
H111 C99 0.929 . S
H112 C100 0.960 . S
H113 C100 0.962 . S
H114 C100 0.960 . S
H115 C101 0.961 . S
H116 C101 0.961 . S
H117 C101 0.961 . S
H118 C102 0.931 . S
H119 C107 0.930 . S
H120 C108 0.956 . S
H121 C108 0.961 . S
H122 C108 0.961 . S
H123 C109 0.958 . S
H124 C109 0.961 . S
H125 C109 0.960 . S
C126 C127 1.391 . S
C126 C128 1.394 . S
C126 H142 0.931 . S
C127 C126 1.391 . S
C127 C131 1.376 . S
C128 C126 1.394 . S
C128 C129 1.369 . S
C128 C132 1.531 . S
C129 C128 1.369 . S
C129 C130 1.410 . S
C129 C137 1.503 . S
C130 C129 1.410 . S
C130 C131 1.392 . S
C130 C133 1.511 . S
C131 C127 1.376 . S
C131 C130 1.392 . S
C131 H143 0.929 . S
C132 C128 1.531 . S
C132 H144 0.960 . S
C132 H145 0.962 . S
C132 H146 0.960 . S
C133 C130 1.511 . S
C133 H147 0.961 . S
C133 H148 0.961 . S
C133 H149 0.961 . S
C134 C135 1.370 . S
C134 C136 1.363 . S
C134 H150 0.931 . S
C135 C134 1.370 . S
C135 C139 1.408 . S
C136 C134 1.363 . S
C136 C137 1.370 . S
C136 C140 1.524 . S
C137 C129 1.503 . S
C137 C136 1.370 . S
C137 C138 1.403 . S
C138 C137 1.403 . S
C138 C139 1.404 . S
C138 C141 1.539 . S
C139 C135 1.408 . S
C139 C138 1.404 . S
C139 H151 0.930 . S
C140 C136 1.524 . S
C140 H152 0.956 . S
C140 H153 0.961 . S
C140 H154 0.961 . S
C141 C138 1.539 . S
C141 H155 0.958 . S
C141 H156 0.961 . S
C141 H157 0.960 . S
H142 C126 0.931 . S
H143 C131 0.929 . S
H144 C132 0.960 . S
H145 C132 0.962 . S
H146 C132 0.960 . S
H147 C133 0.961 . S
H148 C133 0.961 . S
H149 C133 0.961 . S
H150 C134 0.931 . S
H151 C139 0.930 . S
H152 C140 0.956 . S
H153 C140 0.961 . S
H154 C140 0.961 . S
H155 C141 0.958 . S
H156 C141 0.961 . S
H157 C141 0.960 . S
C158 C159 1.391 . S
C158 C160 1.394 . S
C158 H174 0.931 . S
C159 C158 1.391 . S
C159 C163 1.376 . S
C160 C158 1.394 . S
C160 C161 1.369 . S
C160 C164 1.531 . S
C161 C160 1.369 . S
C161 C162 1.410 . S
C161 C169 1.503 . S
C162 C161 1.410 . S
C162 C163 1.392 . S
C162 C165 1.511 . S
C163 C159 1.376 . S
C163 C162 1.392 . S
C163 H175 0.929 . S
C164 C160 1.531 . S
C164 H176 0.960 . S
C164 H177 0.962 . S
C164 H178 0.960 . S
C165 C162 1.511 . S
C165 H179 0.961 . S
C165 H180 0.961 . S
C165 H181 0.961 . S
C166 C167 1.370 . S
C166 C168 1.363 . S
C166 H182 0.931 . S
C167 C166 1.370 . S
C167 C171 1.408 . S
C168 C166 1.363 . S
C168 C169 1.370 . S
C168 C172 1.524 . S
C169 C161 1.503 . S
C169 C168 1.370 . S
C169 C170 1.403 . S
C170 C169 1.403 . S
C170 C171 1.404 . S
C170 C173 1.539 . S
C171 C167 1.408 . S
C171 C170 1.404 . S
C171 H183 0.930 . S
C172 C168 1.524 . S
C172 H184 0.956 . S
C172 H185 0.961 . S
C172 H186 0.961 . S
C173 C170 1.539 . S
C173 H187 0.958 . S
C173 H188 0.961 . S
C173 H189 0.960 . S
H174 C158 0.931 . S
H175 C163 0.929 . S
H176 C164 0.960 . S
H177 C164 0.962 . S
H178 C164 0.960 . S
H179 C165 0.961 . S
H180 C165 0.961 . S
H181 C165 0.961 . S
H182 C166 0.931 . S
H183 C171 0.930 . S
H184 C172 0.956 . S
H185 C172 0.961 . S
H186 C172 0.961 . S
H187 C173 0.958 . S
H188 C173 0.961 . S
H189 C173 0.960 . S
C190 C191 1.391 . S
C190 C192 1.394 . S
C190 H206 0.931 . S
C191 C190 1.391 . S
C191 C195 1.376 . S
C192 C190 1.394 . S
C192 C193 1.369 . S
C192 C196 1.531 . S
C193 C192 1.369 . S
C193 C194 1.410 . S
C193 C201 1.503 . S
C194 C193 1.410 . S
C194 C195 1.392 . S
C194 C197 1.511 . S
C195 C191 1.376 . S
C195 C194 1.392 . S
C195 H207 0.929 . S
C196 C192 1.531 . S
C196 H208 0.960 . S
C196 H209 0.962 . S
C196 H210 0.960 . S
C197 C194 1.511 . S
C197 H211 0.961 . S
C197 H212 0.961 . S
C197 H213 0.961 . S
C198 C199 1.370 . S
C198 C200 1.363 . S
C198 H214 0.931 . S
C199 C198 1.370 . S
C199 C203 1.408 . S
C200 C198 1.363 . S
C200 C201 1.370 . S
C200 C204 1.524 . S
C201 C193 1.503 . S
C201 C200 1.370 . S
C201 C202 1.403 . S
C202 C201 1.403 . S
C202 C203 1.404 . S
C202 C205 1.539 . S
C203 C199 1.408 . S
C203 C202 1.404 . S
C203 H215 0.930 . S
C204 C200 1.524 . S
C204 H216 0.956 . S
C204 H217 0.961 . S
C204 H218 0.961 . S
C205 C202 1.539 . S
C205 H219 0.958 . S
C205 H220 0.961 . S
C205 H221 0.960 . S
H206 C190 0.931 . S
H207 C195 0.929 . S
H208 C196 0.960 . S
H209 C196 0.962 . S
H210 C196 0.960 . S
H211 C197 0.961 . S
H212 C197 0.961 . S
H213 C197 0.961 . S
H214 C198 0.931 . S
H215 C203 0.930 . S
H216 C204 0.956 . S
H217 C204 0.961 . S
H218 C204 0.961 . S
H219 C205 0.958 . S
H220 C205 0.961 . S
H221 C205 0.960 . S
C222 C223 1.391 . S
C222 C224 1.394 . S
C222 H238 0.931 . S
C223 C222 1.391 . S
C223 C227 1.376 . S
C224 C222 1.394 . S
C224 C225 1.369 . S
C224 C228 1.531 . S
C225 C224 1.369 . S
C225 C226 1.410 . S
C225 C233 1.503 . S
C226 C225 1.410 . S
C226 C227 1.392 . S
C226 C229 1.511 . S
C227 C223 1.376 . S
C227 C226 1.392 . S
C227 H239 0.929 . S
C228 C224 1.531 . S
C228 H240 0.960 . S
C228 H241 0.962 . S
C228 H242 0.960 . S
C229 C226 1.511 . S
C229 H243 0.961 . S
C229 H244 0.961 . S
C229 H245 0.961 . S
C230 C231 1.370 . S
C230 C232 1.363 . S
C230 H246 0.931 . S
C231 C230 1.370 . S
C231 C235 1.408 . S
C232 C230 1.363 . S
C232 C233 1.370 . S
C232 C236 1.524 . S
C233 C225 1.503 . S
C233 C232 1.370 . S
C233 C234 1.403 . S
C234 C233 1.403 . S
C234 C235 1.404 . S
C234 C237 1.539 . S
C235 C231 1.408 . S
C235 C234 1.404 . S
C235 H247 0.930 . S
C236 C232 1.524 . S
C236 H248 0.956 . S
C236 H249 0.961 . S
C236 H250 0.961 . S
C237 C234 1.539 . S
C237 H251 0.958 . S
C237 H252 0.961 . S
C237 H253 0.960 . S
H238 C222 0.931 . S
H239 C227 0.929 . S
H240 C228 0.960 . S
H241 C228 0.962 . S
H242 C228 0.960 . S
H243 C229 0.961 . S
H244 C229 0.961 . S
H245 C229 0.961 . S
H246 C230 0.931 . S
H247 C235 0.930 . S
H248 C236 0.956 . S
H249 C236 0.961 . S
H250 C236 0.961 . S
H251 C237 0.958 . S
H252 C237 0.961 . S
H253 C237 0.960 . S
C254 C255 1.391 . S
C254 C256 1.394 . S
C254 H270 0.931 . S
C255 C254 1.391 . S
C255 C259 1.376 . S
C256 C254 1.394 . S
C256 C257 1.369 . S
C256 C260 1.531 . S
C257 C256 1.369 . S
C257 C258 1.410 . S
C257 C265 1.503 . S
C258 C257 1.410 . S
C258 C259 1.392 . S
C258 C261 1.511 . S
C259 C255 1.376 . S
C259 C258 1.392 . S
C259 H271 0.929 . S
C260 C256 1.531 . S
C260 H272 0.960 . S
C260 H273 0.962 . S
C260 H274 0.960 . S
C261 C258 1.511 . S
C261 H275 0.961 . S
C261 H276 0.961 . S
C261 H277 0.961 . S
C262 C263 1.370 . S
C262 C264 1.363 . S
C262 H278 0.931 . S
C263 C262 1.370 . S
C263 C267 1.408 . S
C264 C262 1.363 . S
C264 C265 1.370 . S
C264 C268 1.524 . S
C265 C257 1.503 . S
C265 C264 1.370 . S
C265 C266 1.403 . S
C266 C265 1.403 . S
C266 C267 1.404 . S
C266 C269 1.539 . S
C267 C263 1.408 . S
C267 C266 1.404 . S
C267 H279 0.930 . S
C268 C264 1.524 . S
C268 H280 0.956 . S
C268 H281 0.961 . S
C268 H282 0.961 . S
C269 C266 1.539 . S
C269 H283 0.958 . S
C269 H284 0.961 . S
C269 H285 0.960 . S
H270 C254 0.931 . S
H271 C259 0.929 . S
H272 C260 0.960 . S
H273 C260 0.962 . S
H274 C260 0.960 . S
H275 C261 0.961 . S
H276 C261 0.961 . S
H277 C261 0.961 . S
H278 C262 0.931 . S
H279 C267 0.930 . S
H280 C268 0.956 . S
H281 C268 0.961 . S
H282 C268 0.961 . S
H283 C269 0.958 . S
H284 C269 0.961 . S
H285 C269 0.960 . S
C286 C287 1.391 . S
C286 C288 1.394 . S
C286 H302 0.931 . S
C287 C286 1.391 . S
C287 C291 1.376 . S
C288 C286 1.394 . S
C288 C289 1.369 . S
C288 C292 1.531 . S
C289 C288 1.369 . S
C289 C290 1.410 . S
C289 C297 1.503 . S
C290 C289 1.410 . S
C290 C291 1.392 . S
C290 C293 1.511 . S
C291 C287 1.376 . S
C291 C290 1.392 . S
C291 H303 0.929 . S
C292 C288 1.531 . S
C292 H304 0.960 . S
C292 H305 0.962 . S
C292 H306 0.960 . S
C293 C290 1.511 . S
C293 H307 0.961 . S
C293 H308 0.961 . S
C293 H309 0.961 . S
C294 C295 1.370 . S
C294 C296 1.363 . S
C294 H310 0.931 . S
C295 C294 1.370 . S
C295 C299 1.408 . S
C296 C294 1.363 . S
C296 C297 1.370 . S
C296 C300 1.524 . S
C297 C289 1.503 . S
C297 C296 1.370 . S
C297 C298 1.403 . S
C298 C297 1.403 . S
C298 C299 1.404 . S
C298 C301 1.539 . S
C299 C295 1.408 . S
C299 C298 1.404 . S
C299 H311 0.930 . S
C300 C296 1.524 . S
C300 H312 0.956 . S
C300 H313 0.961 . S
C300 H314 0.961 . S
C301 C298 1.539 . S
C301 H315 0.958 . S
C301 H316 0.961 . S
C301 H317 0.960 . S
H302 C286 0.931 . S
H303 C291 0.929 . S
H304 C292 0.960 . S
H305 C292 0.962 . S
H306 C292 0.960 . S
H307 C293 0.961 . S
H308 C293 0.961 . S
H309 C293 0.961 . S
H310 C294 0.931 . S
H311 C299 0.930 . S
H312 C300 0.956 . S
H313 C300 0.961 . S
H314 C300 0.961 . S
H315 C301 0.958 . S
H316 C301 0.961 . S
H317 C301 0.960 . S
C63 C0 1.123 . S
C71 C33 1.084 . S
C95 C29 1.625 . S
C103 C55 1.639 . S
C127 C30 1.412 . S
C135 C42 1.369 . S
C159 C1 1.658 . S
C167 C32 1.628 . S
C191 C2 1.628 . S
C199 C31 1.639 . S
C231 C49 1.404 . S
C223 C19 1.435 . S
C255 C20 1.648 . S
C263 C58 1.651 . S
C295 C41 1.027 . S
C287 C10 1.047 . S
