# Generated by pormake.
# Topology bcu-b, (8,8)-cn, num edge types: 1
# Building blocks:
#     Node 0, Type 0, BuildingBlock: VETTIZ_charged_sbu_0, # of connection points: 8
#     Node 1, Type 1, BuildingBlock: GIZVER_clean_sbu_0, # of connection points: 8
#     Edge 2, Type (0, 1), BuildingBlock: XUDNAN_clean_linker_2, # of connection points: 2
#     Edge 3, Type (0, 1), BuildingBlock: XUDNAN_clean_linker_2, # of connection points: 2
#     Edge 4, Type (0, 1), BuildingBlock: XUDNAN_clean_linker_2, # of connection points: 2
#     Edge 5, Type (0, 1), BuildingBlock: XUDNAN_clean_linker_2, # of connection points: 2
#     Edge 6, Type (0, 1), BuildingBlock: XUDNAN_clean_linker_2, # of connection points: 2
#     Edge 7, Type (0, 1), BuildingBlock: XUDNAN_clean_linker_2, # of connection points: 2
#     Edge 8, Type (0, 1), BuildingBlock: XUDNAN_clean_linker_2, # of connection points: 2
#     Edge 9, Type (0, 1), BuildingBlock: XUDNAN_clean_linker_2, # of connection points: 2
# Relax obj value: 0.083
# Max RMSD: 0.152
# Mean RMSD: 0.139
data_MOF--net-bcu-b--node1-VETTIZ_charged_sbu_0--node2-GIZVER_clean_sbu_0--edge1-XUDNAN_clean_linker_2
_symmetry_space_group_name_H-M    P1
_symmetry_Int_Tables_number       1
_symmetry_cell_setting            triclinic
loop_
_symmetry_equiv_pos_as_xyz
'x, y, z'
_cell_length_a     20.53332
_cell_length_b     22.420232
_cell_length_c     16.733812
_cell_angle_alpha  88.92183
_cell_angle_beta   93.743604
_cell_angle_gamma 100.56241
loop_
_atom_site_label
_atom_site_type_symbol
_atom_site_fract_x
_atom_site_fract_y
_atom_site_fract_z
_atom_type_partial_charge
Fe0 Fe 1.01147 0.9558 0.02523 0.0
O1 O 0.97843 1.01971 0.0846 0.0
Fe2 Fe 0.04159 0.02355 0.83862 0.0
Fe3 Fe 0.98777 0.02776 0.20137 0.0
O4 O 0.05149 0.02497 0.95654 0.0
O5 O 0.05029 0.03052 0.95545 0.0
O6 O 0.97731 0.02542 0.08354 0.0
Fe7 Fe 0.01849 0.09454 1.01592 0.0
C8 C 0.92178 0.89777 0.15889 0.0
O9 O 0.09764 0.9642 0.09765 0.0
O10 O 0.05735 0.97264 0.2168 0.0
O11 O 0.06886 0.15903 0.93881 0.0
O12 O 0.11158 0.10322 0.8468 0.0
O13 O 0.1041 0.96148 0.85629 0.0
O14 O 0.05231 0.89789 0.95275 0.0
O15 O 0.06423 0.1028 0.20637 0.0
O16 O 0.10469 0.10502 0.08639 0.0
C17 C 0.09361 0.91055 0.89605 0.0
O18 O 0.9327 0.08766 0.94361 0.0
O19 O 0.9721 0.07882 0.8239 0.0
O20 O 0.96269 0.89144 0.10452 0.0
O21 O 0.91832 0.94847 0.19364 0.0
C22 C 0.10163 0.9599 0.17371 0.0
C23 C 0.11071 0.11995 0.15949 0.0
C24 C 0.93598 0.14022 0.14478 0.0
O25 O 0.92495 0.08905 0.18364 0.0
O26 O 0.97831 0.15311 0.08913 0.0
C27 C 0.10953 0.15336 0.88399 0.0
O28 O 0.96483 0.94867 0.83273 0.0
O29 O 0.92526 0.9427 0.954 0.0
C30 C 0.92815 0.09153 0.86757 0.0
C31 C 0.91959 0.9288 0.88032 0.0
Co32 Co 0.59475 0.40957 0.48263 0.0
Co33 Co 0.60128 0.44412 0.62922 0.0
Co34 Co 0.51355 0.52319 0.52131 0.0
O35 O 0.59269 0.48392 0.53386 0.0
H36 H 0.63302 0.51304 0.52751 0.0
O37 O 0.43453 0.56332 0.50882 0.0
Co38 Co 0.43287 0.63599 0.56556 0.0
Co39 Co 0.42843 0.60992 0.41877 0.0
H40 H 0.39383 0.53415 0.51239 0.0
O41 O 0.68139 0.42891 0.67257 0.0
O42 O 0.60809 0.36905 0.58823 0.0
O43 O 0.52802 0.43817 0.69633 0.0
O44 O 0.45975 0.46775 0.60018 0.0
O45 O 0.5545 0.57877 0.61009 0.0
O46 O 0.42272 0.6997 0.62164 0.0
O47 O 0.34565 0.61886 0.58211 0.0
O48 O 0.52605 0.66242 0.5586 0.0
O49 O 0.56795 0.57758 0.44244 0.0
O50 O 0.5056 0.62682 0.35998 0.0
O51 O 0.41584 0.681 0.46431 0.0
O52 O 0.34859 0.62234 0.37249 0.0
C53 C 0.66657 0.3741 0.431 0.0
C54 C 0.46344 0.40995 0.43977 0.0
C55 C 0.47056 0.4444 0.66915 0.0
C56 C 0.66114 0.37718 0.63696 0.0
C57 C 0.36212 0.66964 0.62145 0.0
C58 C 0.56474 0.63635 0.60356 0.0
C59 C 0.56076 0.61224 0.3822 0.0
C60 C 0.3648 0.67273 0.41222 0.0
O61 O 0.60608 0.34368 0.43129 0.0
O62 O 0.68241 0.42551 0.46896 0.0
O63 O 0.47285 0.46745 0.43253 0.0
O64 O 0.50138 0.38451 0.48662 0.0
H65 H 0.1409 0.16824 0.30996 0.0
H66 H 0.21683 0.16983 0.07345 0.0
H67 H 0.31355 0.24668 0.11825 0.0
H68 H 0.18822 0.32543 0.34104 0.0
H69 H 0.21304 0.32244 0.44549 0.0
H70 H 0.14934 0.26376 0.40231 0.0
H71 H 0.21122 0.17864 0.44588 0.0
H72 H 0.27648 0.23235 0.49534 0.0
H73 H 0.29615 0.18253 0.42136 0.0
H74 H 0.401 0.32565 0.18837 0.0
H75 H 0.47626 0.3952 0.28179 0.0
H76 H 0.34527 0.33919 0.47273 0.0
C77 C 0.17806 0.18425 0.26765 0.0
C78 C 0.17102 0.1629 0.18818 0.0
C79 C 0.22088 0.18544 0.13474 0.0
C80 C 0.27605 0.22925 0.15951 0.0
C81 C 0.28092 0.24986 0.23802 0.0
C82 C 0.23356 0.22774 0.29136 0.0
C83 C 0.25025 0.25743 0.37226 0.0
C84 C 0.19707 0.29434 0.39152 0.0
C85 C 0.25899 0.20989 0.43755 0.0
C86 C 0.31545 0.29858 0.35704 0.0
C87 C 0.33169 0.29438 0.27869 0.0
C88 C 0.38895 0.32911 0.24991 0.0
C89 C 0.43116 0.36851 0.30302 0.0
C90 C 0.41613 0.37204 0.38381 0.0
C91 C 0.35761 0.33688 0.41112 0.0
H92 H 0.817 0.12275 0.21272 0.0
H93 H 0.97617 0.26439 0.1399 0.0
H94 H 0.92421 0.341 0.20464 0.0
H95 H 0.68403 0.21137 0.18541 0.0
H96 H 0.64279 0.17655 0.27096 0.0
H97 H 0.69064 0.13469 0.21411 0.0
H98 H 0.76005 0.11547 0.34394 0.0
H99 H 0.71327 0.15811 0.40102 0.0
H100 H 0.80236 0.17915 0.40284 0.0
H101 H 0.85969 0.40016 0.29064 0.0
H102 H 0.78127 0.43837 0.37439 0.0
H103 H 0.66364 0.25712 0.38554 0.0
C104 C 0.84056 0.17001 0.20926 0.0
C105 C 0.90078 0.18765 0.17148 0.0
C106 C 0.92977 0.24994 0.16798 0.0
C107 C 0.90085 0.29364 0.2051 0.0
C108 C 0.84259 0.27424 0.24433 0.0
C109 C 0.8122 0.21394 0.24516 0.0
C110 C 0.75044 0.20422 0.29194 0.0
C111 C 0.6883 0.18032 0.23734 0.0
C112 C 0.75697 0.16173 0.36419 0.0
C113 C 0.7511 0.26836 0.31858 0.0
C114 C 0.80482 0.30817 0.29119 0.0
C115 C 0.81707 0.36945 0.31145 0.0
C116 C 0.77258 0.39064 0.35955 0.0
C117 C 0.71625 0.35075 0.38613 0.0
C118 C 0.70589 0.28883 0.36552 0.0
H119 H 0.79678 0.8947 0.20341 0.0
H120 H 0.94068 0.77951 0.16911 0.0
H121 H 0.86248 0.69104 0.21938 0.0
H122 H 0.73647 0.82785 0.38305 0.0
H123 H 0.6517 0.83532 0.35753 0.0
H124 H 0.71855 0.88818 0.31724 0.0
H125 H 0.66813 0.86248 0.17301 0.0
H126 H 0.60096 0.80959 0.21286 0.0
H127 H 0.65134 0.78465 0.14051 0.0
H128 H 0.77096 0.61775 0.28672 0.0
H129 H 0.67017 0.56441 0.35026 0.0
H130 H 0.58566 0.72794 0.32812 0.0
C131 C 0.81182 0.85081 0.20619 0.0
C132 C 0.87477 0.84377 0.18324 0.0
C133 C 0.89243 0.78559 0.18648 0.0
C134 C 0.84851 0.7353 0.21514 0.0
C135 C 0.78698 0.74412 0.2386 0.0
C136 C 0.76842 0.80036 0.23304 0.0
C137 C 0.69975 0.79843 0.26127 0.0
C138 C 0.70179 0.83988 0.33408 0.0
C139 C 0.65225 0.81473 0.19282 0.0
C140 C 0.68247 0.73237 0.28449 0.0
C141 C 0.7335 0.70167 0.27214 0.0
C142 C 0.73021 0.64106 0.2951 0.0
C143 C 0.6731 0.61122 0.3312 0.0
C144 C 0.61997 0.64189 0.3422 0.0
C145 C 0.62487 0.703 0.3182 0.0
H146 H 0.1499 0.86162 0.12566 0.0
H147 H 0.16838 0.9931 0.31619 0.0
H148 H 0.24256 0.93633 0.39642 0.0
H149 H 0.13551 0.73507 0.25134 0.0
H150 H 0.18104 0.6922 0.1926 0.0
H151 H 0.13805 0.74764 0.14476 0.0
H152 H 0.24695 0.80269 0.08643 0.0
H153 H 0.29028 0.74681 0.1329 0.0
H154 H 0.31958 0.82627 0.15272 0.0
H155 H 0.30848 0.86134 0.45955 0.0
H156 H 0.36164 0.77406 0.50014 0.0
H157 H 0.29315 0.68815 0.27203 0.0
C158 C 0.17153 0.87946 0.18308 0.0
C159 C 0.1547 0.93222 0.21438 0.0
C160 C 0.18159 0.95307 0.29104 0.0
C161 C 0.22358 0.92112 0.33697 0.0
C162 C 0.23752 0.86803 0.30566 0.0
C163 C 0.21246 0.8474 0.23038 0.0
C164 C 0.2302 0.78639 0.21359 0.0
C165 C 0.16746 0.73746 0.19979 0.0
C166 C 0.27439 0.79083 0.14219 0.0
C167 C 0.26838 0.77561 0.29146 0.0
C168 C 0.27278 0.82352 0.34345 0.0
C169 C 0.30559 0.82368 0.41916 0.0
C170 C 0.33539 0.77383 0.44187 0.0
C171 C 0.33106 0.72409 0.38964 0.0
C172 C 0.29674 0.72515 0.31372 0.0
H173 H 0.21197 0.92653 0.82654 0.0
H174 H 0.05302 0.78689 0.90475 0.0
H175 H 0.10477 0.70857 0.84385 0.0
H176 H 0.22766 0.86494 0.63941 0.0
H177 H 0.31679 0.88581 0.64188 0.0
H178 H 0.26961 0.9301 0.69582 0.0
H179 H 0.33826 0.91415 0.82761 0.0
H180 H 0.38638 0.87052 0.77387 0.0
H181 H 0.34448 0.83819 0.86025 0.0
H182 H 0.169 0.64708 0.76136 0.0
H183 H 0.24757 0.60651 0.68015 0.0
H184 H 0.36566 0.78715 0.66281 0.0
C185 C 0.18838 0.8794 0.8318 0.0
C186 C 0.12834 0.86273 0.87005 0.0
C187 C 0.09929 0.80057 0.87614 0.0
C188 C 0.12809 0.75589 0.84129 0.0
C189 C 0.18633 0.7742 0.80181 0.0
C190 C 0.21674 0.83444 0.79837 0.0
C191 C 0.27878 0.84271 0.75235 0.0
C192 C 0.2728 0.88329 0.67798 0.0
C193 C 0.34063 0.86786 0.80678 0.0
C194 C 0.27811 0.77783 0.72907 0.0
C195 C 0.22422 0.73888 0.75744 0.0
C196 C 0.21184 0.67709 0.73986 0.0
C197 C 0.25638 0.65454 0.69329 0.0
C198 C 0.31282 0.69366 0.66582 0.0
C199 C 0.32337 0.75602 0.68384 0.0
H200 H 0.16697 0.18035 0.74176 0.0
H201 H 0.16401 0.24832 0.98231 0.0
H202 H 0.25348 0.33436 0.95274 0.0
H203 H 0.33765 0.21451 0.72556 0.0
H204 H 0.33623 0.23936 0.6228 0.0
H205 H 0.26827 0.18447 0.65735 0.0
H206 H 0.18513 0.25064 0.60905 0.0
H207 H 0.24919 0.31026 0.57543 0.0
H208 H 0.193 0.32685 0.64616 0.0
H209 H 0.35215 0.4073 0.89944 0.0
H210 H 0.44337 0.46504 0.82298 0.0
H211 H 0.37352 0.35367 0.61543 0.0
C212 C 0.18471 0.21359 0.78805 0.0
C213 C 0.15883 0.20754 0.8644 0.0
C214 C 0.18304 0.25225 0.9232 0.0
C215 C 0.23394 0.30117 0.90705 0.0
C216 C 0.25899 0.30536 0.83128 0.0
C217 C 0.23434 0.2632 0.77248 0.0
C218 C 0.26949 0.27765 0.69608 0.0
C219 C 0.30493 0.22592 0.67413 0.0
C220 C 0.22115 0.29206 0.62762 0.0
C221 C 0.31869 0.33379 0.72111 0.0
C222 C 0.31246 0.34903 0.79954 0.0
C223 C 0.35638 0.39657 0.83742 0.0
C224 C 0.40787 0.42905 0.79382 0.0
C225 C 0.41375 0.4145 0.71305 0.0
C226 C 0.36833 0.36676 0.6763 0.0
H227 H 0.87991 0.18893 0.91742 0.0
H228 H 0.85991 0.05813 0.72583 0.0
H229 H 0.78313 0.11393 0.64834 0.0
H230 H 0.70921 0.22251 0.89536 0.0
H231 H 0.73808 0.30202 0.91518 0.0
H232 H 0.78267 0.24648 0.96014 0.0
H233 H 0.89019 0.30246 0.89955 0.0
H234 H 0.84595 0.35761 0.85331 0.0
H235 H 0.8909 0.31536 0.7929 0.0
H236 H 0.71433 0.18768 0.58848 0.0
H237 H 0.66051 0.27479 0.5497 0.0
H238 H 0.73394 0.36162 0.77579 0.0
C239 C 0.8575 0.17105 0.86035 0.0
C240 C 0.87455 0.11882 0.8279 0.0
C241 C 0.84657 0.09782 0.75175 0.0
C242 C 0.80305 0.12916 0.70747 0.0
C243 C 0.78881 0.18175 0.73994 0.0
C244 C 0.81518 0.20255 0.81466 0.0
C245 C 0.79727 0.26325 0.83257 0.0
C246 C 0.75424 0.25824 0.90511 0.0
C247 C 0.85981 0.31256 0.84529 0.0
C248 C 0.75774 0.27385 0.75574 0.0
C249 C 0.75243 0.22588 0.70362 0.0
C250 C 0.71807 0.22545 0.62889 0.0
C251 C 0.68796 0.27524 0.60718 0.0
C252 C 0.69386 0.3253 0.65919 0.0
C253 C 0.72936 0.32439 0.73427 0.0
H254 H 0.85572 0.915 0.72959 0.0
H255 H 0.85573 0.83585 0.9684 0.0
H256 H 0.76635 0.7524 0.92252 0.0
H257 H 0.67552 0.87891 0.69096 0.0
H258 H 0.68007 0.86356 0.58631 0.0
H259 H 0.74487 0.91704 0.63749 0.0
H260 H 0.83212 0.85611 0.59395 0.0
H261 H 0.76743 0.80218 0.54338 0.0
H262 H 0.823 0.77653 0.61876 0.0
H263 H 0.68382 0.67361 0.84945 0.0
H264 H 0.60095 0.61088 0.75751 0.0
H265 H 0.64511 0.74458 0.5686 0.0
C266 C 0.83658 0.88015 0.77206 0.0
C267 C 0.86277 0.88174 0.85246 0.0
C268 C 0.83615 0.83574 0.90666 0.0
C269 C 0.78564 0.78792 0.88109 0.0
C270 C 0.76131 0.78725 0.80143 0.0
C271 C 0.7848 0.83265 0.74795 0.0
C272 C 0.74787 0.82183 0.66638 0.0
C273 C 0.70981 0.8734 0.64399 0.0
C274 C 0.79546 0.81367 0.60182 0.0
C275 C 0.70075 0.76291 0.68235 0.0
C276 C 0.71021 0.74342 0.76038 0.0
C277 C 0.67521 0.68874 0.78853 0.0
C278 C 0.62857 0.65331 0.73585 0.0
C279 C 0.61639 0.67327 0.65649 0.0
C280 C 0.65294 0.72881 0.62945 0.0
loop_
_geom_bond_atom_site_label_1
_geom_bond_atom_site_label_2
_geom_bond_distance
_geom_bond_site_symmetry_2
_ccdc_geom_bond_type
Fe0 O1 1.886 . S
Fe0 O4 1.715 1_554 S
Fe0 O9 2.077 1_655 S
Fe0 O14 1.935 1_654 S
Fe0 O20 2.077 . S
Fe0 O29 1.935 1_554 S
O1 Fe0 1.886 . S
O1 Fe3 1.715 1_655 S
Fe2 O4 1.886 1_545 S
Fe2 O5 1.715 1_655 S
Fe2 O12 1.935 1_655 S
Fe2 O13 2.077 1_645 S
Fe2 O19 1.935 . S
Fe2 O28 2.077 1_545 S
Fe3 O1 1.715 1_455 S
Fe3 O6 1.886 1_565 S
Fe3 O10 1.935 . S
Fe3 O15 2.077 1_565 S
Fe3 O21 1.935 1_455 S
Fe3 O25 2.077 1_465 S
O4 Fe0 1.715 1_556 S
O4 Fe2 1.886 1_565 S
O5 Fe2 1.715 1_455 S
O5 Fe7 1.886 . S
O6 Fe3 1.886 1_545 S
O6 Fe7 1.715 1_554 S
Fe7 O5 1.886 . S
Fe7 O6 1.715 1_556 S
Fe7 O11 2.077 . S
Fe7 O16 1.935 1_556 S
Fe7 O18 2.077 1_455 S
Fe7 O26 1.935 1_456 S
C8 O20 1.381 . S
C8 O21 1.421 . S
O9 Fe0 2.077 1_455 S
O9 C22 1.381 . S
O10 Fe3 1.935 . S
O10 C22 1.421 . S
O11 Fe7 2.077 . S
O11 C27 1.381 . S
O12 Fe2 1.935 1_455 S
O12 C27 1.421 . S
O13 Fe2 2.077 1_465 S
O13 C17 1.381 . S
O14 Fe0 1.935 1_456 S
O14 C17 1.421 . S
O15 Fe3 2.077 1_545 S
O15 C23 1.381 . S
O16 Fe7 1.935 1_554 S
O16 C23 1.421 . S
C17 O13 1.381 . S
C17 O14 1.421 . S
O18 Fe7 2.077 1_655 S
O18 C30 1.381 . S
O19 Fe2 1.935 . S
O19 C30 1.421 . S
O20 Fe0 2.077 . S
O20 C8 1.381 . S
O21 Fe3 1.935 1_655 S
O21 C8 1.421 . S
C22 O9 1.381 . S
C22 O10 1.421 . S
C23 O15 1.381 . S
C23 O16 1.421 . S
C24 O25 1.381 . S
C24 O26 1.421 . S
O25 Fe3 2.077 1_645 S
O25 C24 1.381 . S
O26 Fe7 1.935 1_654 S
O26 C24 1.421 . S
C27 O11 1.381 . S
C27 O12 1.421 . S
O28 Fe2 2.077 1_565 S
O28 C31 1.381 . S
O29 Fe0 1.935 1_556 S
O29 C31 1.421 . S
C30 O18 1.381 . S
C30 O19 1.421 . S
C31 O28 1.381 . S
C31 O29 1.421 . S
Co32 O35 2.042 . S
Co32 O42 2.264 . S
Co32 O61 2.286 . S
Co32 O62 2.069 . S
Co32 O64 2.015 . S
Co33 O35 2.122 . S
Co33 O41 2.073 . S
Co33 O42 2.327 . S
Co33 O43 1.976 . S
Co34 O35 2.087 . S
Co34 O37 2.087 . S
Co34 O44 2.111 . S
Co34 O45 2.143 . S
Co34 O49 2.111 . S
Co34 O63 2.143 . S
O35 Co32 2.042 . S
O35 Co33 2.122 . S
O35 Co34 2.087 . S
O35 H36 0.980 . S
H36 O35 0.980 . S
O37 Co34 2.087 . S
O37 Co38 2.042 . S
O37 Co39 2.122 . S
O37 H40 0.980 . S
Co38 O37 2.042 . S
Co38 O46 2.286 . S
Co38 O47 2.069 . S
Co38 O48 2.015 . S
Co38 O51 2.264 . S
Co39 O37 2.122 . S
Co39 O50 1.976 . S
Co39 O51 2.327 . S
Co39 O52 2.073 . S
H40 O37 0.980 . S
O41 Co33 2.073 . S
O41 C56 1.245 . S
O42 Co32 2.264 . S
O42 Co33 2.327 . S
O42 C56 1.257 . S
O43 Co33 1.976 . S
O43 C55 1.251 . S
O44 Co34 2.111 . S
O44 C55 1.274 . S
O45 Co34 2.143 . S
O45 C58 1.246 . S
O46 Co38 2.286 . S
O46 C57 1.259 . S
O47 Co38 2.069 . S
O47 C57 1.289 . S
O48 Co38 2.015 . S
O48 C58 1.257 . S
O49 Co34 2.111 . S
O49 C59 1.274 . S
O50 Co39 1.976 . S
O50 C59 1.251 . S
O51 Co38 2.264 . S
O51 Co39 2.327 . S
O51 C60 1.257 . S
O52 Co39 2.073 . S
O52 C60 1.245 . S
C53 O61 1.259 . S
C53 O62 1.289 . S
C54 O63 1.246 . S
C54 O64 1.257 . S
C55 O43 1.251 . S
C55 O44 1.274 . S
C56 O41 1.245 . S
C56 O42 1.257 . S
C57 O46 1.259 . S
C57 O47 1.289 . S
C58 O45 1.246 . S
C58 O48 1.257 . S
C59 O49 1.274 . S
C59 O50 1.251 . S
C60 O51 1.257 . S
C60 O52 1.245 . S
O61 Co32 2.286 . S
O61 C53 1.259 . S
O62 Co32 2.069 . S
O62 C53 1.289 . S
O63 Co34 2.143 . S
O63 C54 1.246 . S
O64 Co32 2.015 . S
O64 C54 1.257 . S
H65 C77 0.930 . S
H66 C79 0.930 . S
H67 C80 0.930 . S
H68 C84 0.959 . S
H69 C84 0.959 . S
H70 C84 0.961 . S
H71 C85 0.960 . S
H72 C85 0.961 . S
H73 C85 0.959 . S
H74 C88 0.929 . S
H75 C89 0.931 . S
H76 C91 0.930 . S
C77 H65 0.930 . S
C77 C78 1.399 . S
C77 C82 1.399 . S
C78 C77 1.399 . S
C78 C79 1.376 . S
C79 H66 0.930 . S
C79 C78 1.376 . S
C79 C80 1.388 . S
C80 H67 0.930 . S
C80 C79 1.388 . S
C80 C81 1.390 . S
C81 C80 1.390 . S
C81 C82 1.394 . S
C81 C87 1.465 . S
C82 C77 1.399 . S
C82 C81 1.394 . S
C82 C83 1.516 . S
C83 C82 1.516 . S
C83 C84 1.502 . S
C83 C85 1.561 . S
C83 C86 1.526 . S
C84 H68 0.959 . S
C84 H69 0.959 . S
C84 H70 0.961 . S
C84 C83 1.502 . S
C85 H71 0.960 . S
C85 H72 0.961 . S
C85 H73 0.959 . S
C85 C83 1.561 . S
C86 C83 1.526 . S
C86 C87 1.396 . S
C86 C91 1.390 . S
C87 C81 1.465 . S
C87 C86 1.396 . S
C87 C88 1.399 . S
C88 H74 0.929 . S
C88 C87 1.399 . S
C88 C89 1.385 . S
C89 H75 0.931 . S
C89 C88 1.385 . S
C89 C90 1.389 . S
C90 C89 1.389 . S
C90 C91 1.387 . S
C91 H76 0.930 . S
C91 C86 1.390 . S
C91 C90 1.387 . S
H92 C104 0.930 . S
H93 C106 0.930 . S
H94 C107 0.930 . S
H95 C111 0.959 . S
H96 C111 0.959 . S
H97 C111 0.961 . S
H98 C112 0.960 . S
H99 C112 0.961 . S
H100 C112 0.959 . S
H101 C115 0.929 . S
H102 C116 0.931 . S
H103 C118 0.930 . S
C104 H92 0.930 . S
C104 C105 1.399 . S
C104 C109 1.399 . S
C105 C104 1.399 . S
C105 C106 1.376 . S
C106 H93 0.930 . S
C106 C105 1.376 . S
C106 C107 1.388 . S
C107 H94 0.930 . S
C107 C106 1.388 . S
C107 C108 1.390 . S
C108 C107 1.390 . S
C108 C109 1.394 . S
C108 C114 1.465 . S
C109 C104 1.399 . S
C109 C108 1.394 . S
C109 C110 1.516 . S
C110 C109 1.516 . S
C110 C111 1.502 . S
C110 C112 1.561 . S
C110 C113 1.526 . S
C111 H95 0.959 . S
C111 H96 0.959 . S
C111 H97 0.961 . S
C111 C110 1.502 . S
C112 H98 0.960 . S
C112 H99 0.961 . S
C112 H100 0.959 . S
C112 C110 1.561 . S
C113 C110 1.526 . S
C113 C114 1.396 . S
C113 C118 1.390 . S
C114 C108 1.465 . S
C114 C113 1.396 . S
C114 C115 1.399 . S
C115 H101 0.929 . S
C115 C114 1.399 . S
C115 C116 1.385 . S
C116 H102 0.931 . S
C116 C115 1.385 . S
C116 C117 1.389 . S
C117 C116 1.389 . S
C117 C118 1.387 . S
C118 H103 0.930 . S
C118 C113 1.390 . S
C118 C117 1.387 . S
H119 C131 0.930 . S
H120 C133 0.930 . S
H121 C134 0.930 . S
H122 C138 0.959 . S
H123 C138 0.959 . S
H124 C138 0.961 . S
H125 C139 0.960 . S
H126 C139 0.961 . S
H127 C139 0.959 . S
H128 C142 0.929 . S
H129 C143 0.931 . S
H130 C145 0.930 . S
C131 H119 0.930 . S
C131 C132 1.399 . S
C131 C136 1.399 . S
C132 C131 1.399 . S
C132 C133 1.376 . S
C133 H120 0.930 . S
C133 C132 1.376 . S
C133 C134 1.388 . S
C134 H121 0.930 . S
C134 C133 1.388 . S
C134 C135 1.390 . S
C135 C134 1.390 . S
C135 C136 1.394 . S
C135 C141 1.465 . S
C136 C131 1.399 . S
C136 C135 1.394 . S
C136 C137 1.516 . S
C137 C136 1.516 . S
C137 C138 1.502 . S
C137 C139 1.561 . S
C137 C140 1.526 . S
C138 H122 0.959 . S
C138 H123 0.959 . S
C138 H124 0.961 . S
C138 C137 1.502 . S
C139 H125 0.960 . S
C139 H126 0.961 . S
C139 H127 0.959 . S
C139 C137 1.561 . S
C140 C137 1.526 . S
C140 C141 1.396 . S
C140 C145 1.390 . S
C141 C135 1.465 . S
C141 C140 1.396 . S
C141 C142 1.399 . S
C142 H128 0.929 . S
C142 C141 1.399 . S
C142 C143 1.385 . S
C143 H129 0.931 . S
C143 C142 1.385 . S
C143 C144 1.389 . S
C144 C143 1.389 . S
C144 C145 1.387 . S
C145 H130 0.930 . S
C145 C140 1.390 . S
C145 C144 1.387 . S
H146 C158 0.930 . S
H147 C160 0.930 . S
H148 C161 0.930 . S
H149 C165 0.959 . S
H150 C165 0.959 . S
H151 C165 0.961 . S
H152 C166 0.960 . S
H153 C166 0.961 . S
H154 C166 0.959 . S
H155 C169 0.929 . S
H156 C170 0.931 . S
H157 C172 0.930 . S
C158 H146 0.930 . S
C158 C159 1.399 . S
C158 C163 1.399 . S
C159 C158 1.399 . S
C159 C160 1.376 . S
C160 H147 0.930 . S
C160 C159 1.376 . S
C160 C161 1.388 . S
C161 H148 0.930 . S
C161 C160 1.388 . S
C161 C162 1.390 . S
C162 C161 1.390 . S
C162 C163 1.394 . S
C162 C168 1.465 . S
C163 C158 1.399 . S
C163 C162 1.394 . S
C163 C164 1.516 . S
C164 C163 1.516 . S
C164 C165 1.502 . S
C164 C166 1.561 . S
C164 C167 1.526 . S
C165 H149 0.959 . S
C165 H150 0.959 . S
C165 H151 0.961 . S
C165 C164 1.502 . S
C166 H152 0.960 . S
C166 H153 0.961 . S
C166 H154 0.959 . S
C166 C164 1.561 . S
C167 C164 1.526 . S
C167 C168 1.396 . S
C167 C172 1.390 . S
C168 C162 1.465 . S
C168 C167 1.396 . S
C168 C169 1.399 . S
C169 H155 0.929 . S
C169 C168 1.399 . S
C169 C170 1.385 . S
C170 H156 0.931 . S
C170 C169 1.385 . S
C170 C171 1.389 . S
C171 C170 1.389 . S
C171 C172 1.387 . S
C172 H157 0.930 . S
C172 C167 1.390 . S
C172 C171 1.387 . S
H173 C185 0.930 . S
H174 C187 0.930 . S
H175 C188 0.930 . S
H176 C192 0.959 . S
H177 C192 0.959 . S
H178 C192 0.961 . S
H179 C193 0.960 . S
H180 C193 0.961 . S
H181 C193 0.959 . S
H182 C196 0.929 . S
H183 C197 0.931 . S
H184 C199 0.930 . S
C185 H173 0.930 . S
C185 C186 1.399 . S
C185 C190 1.399 . S
C186 C185 1.399 . S
C186 C187 1.376 . S
C187 H174 0.930 . S
C187 C186 1.376 . S
C187 C188 1.388 . S
C188 H175 0.930 . S
C188 C187 1.388 . S
C188 C189 1.390 . S
C189 C188 1.390 . S
C189 C190 1.394 . S
C189 C195 1.465 . S
C190 C185 1.399 . S
C190 C189 1.394 . S
C190 C191 1.516 . S
C191 C190 1.516 . S
C191 C192 1.502 . S
C191 C193 1.561 . S
C191 C194 1.526 . S
C192 H176 0.959 . S
C192 H177 0.959 . S
C192 H178 0.961 . S
C192 C191 1.502 . S
C193 H179 0.960 . S
C193 H180 0.961 . S
C193 H181 0.959 . S
C193 C191 1.561 . S
C194 C191 1.526 . S
C194 C195 1.396 . S
C194 C199 1.390 . S
C195 C189 1.465 . S
C195 C194 1.396 . S
C195 C196 1.399 . S
C196 H182 0.929 . S
C196 C195 1.399 . S
C196 C197 1.385 . S
C197 H183 0.931 . S
C197 C196 1.385 . S
C197 C198 1.389 . S
C198 C197 1.389 . S
C198 C199 1.387 . S
C199 H184 0.930 . S
C199 C194 1.390 . S
C199 C198 1.387 . S
H200 C212 0.930 . S
H201 C214 0.930 . S
H202 C215 0.930 . S
H203 C219 0.959 . S
H204 C219 0.959 . S
H205 C219 0.961 . S
H206 C220 0.960 . S
H207 C220 0.961 . S
H208 C220 0.959 . S
H209 C223 0.929 . S
H210 C224 0.931 . S
H211 C226 0.930 . S
C212 H200 0.930 . S
C212 C213 1.399 . S
C212 C217 1.399 . S
C213 C212 1.399 . S
C213 C214 1.376 . S
C214 H201 0.930 . S
C214 C213 1.376 . S
C214 C215 1.388 . S
C215 H202 0.930 . S
C215 C214 1.388 . S
C215 C216 1.390 . S
C216 C215 1.390 . S
C216 C217 1.394 . S
C216 C222 1.465 . S
C217 C212 1.399 . S
C217 C216 1.394 . S
C217 C218 1.516 . S
C218 C217 1.516 . S
C218 C219 1.502 . S
C218 C220 1.561 . S
C218 C221 1.526 . S
C219 H203 0.959 . S
C219 H204 0.959 . S
C219 H205 0.961 . S
C219 C218 1.502 . S
C220 H206 0.960 . S
C220 H207 0.961 . S
C220 H208 0.959 . S
C220 C218 1.561 . S
C221 C218 1.526 . S
C221 C222 1.396 . S
C221 C226 1.390 . S
C222 C216 1.465 . S
C222 C221 1.396 . S
C222 C223 1.399 . S
C223 H209 0.929 . S
C223 C222 1.399 . S
C223 C224 1.385 . S
C224 H210 0.931 . S
C224 C223 1.385 . S
C224 C225 1.389 . S
C225 C224 1.389 . S
C225 C226 1.387 . S
C226 H211 0.930 . S
C226 C221 1.390 . S
C226 C225 1.387 . S
H227 C239 0.930 . S
H228 C241 0.930 . S
H229 C242 0.930 . S
H230 C246 0.959 . S
H231 C246 0.959 . S
H232 C246 0.961 . S
H233 C247 0.960 . S
H234 C247 0.961 . S
H235 C247 0.959 . S
H236 C250 0.929 . S
H237 C251 0.931 . S
H238 C253 0.930 . S
C239 H227 0.930 . S
C239 C240 1.399 . S
C239 C244 1.399 . S
C240 C239 1.399 . S
C240 C241 1.376 . S
C241 H228 0.930 . S
C241 C240 1.376 . S
C241 C242 1.388 . S
C242 H229 0.930 . S
C242 C241 1.388 . S
C242 C243 1.390 . S
C243 C242 1.390 . S
C243 C244 1.394 . S
C243 C249 1.465 . S
C244 C239 1.399 . S
C244 C243 1.394 . S
C244 C245 1.516 . S
C245 C244 1.516 . S
C245 C246 1.502 . S
C245 C247 1.561 . S
C245 C248 1.526 . S
C246 H230 0.959 . S
C246 H231 0.959 . S
C246 H232 0.961 . S
C246 C245 1.502 . S
C247 H233 0.960 . S
C247 H234 0.961 . S
C247 H235 0.959 . S
C247 C245 1.561 . S
C248 C245 1.526 . S
C248 C249 1.396 . S
C248 C253 1.390 . S
C249 C243 1.465 . S
C249 C248 1.396 . S
C249 C250 1.399 . S
C250 H236 0.929 . S
C250 C249 1.399 . S
C250 C251 1.385 . S
C251 H237 0.931 . S
C251 C250 1.385 . S
C251 C252 1.389 . S
C252 C251 1.389 . S
C252 C253 1.387 . S
C253 H238 0.930 . S
C253 C248 1.390 . S
C253 C252 1.387 . S
H254 C266 0.930 . S
H255 C268 0.930 . S
H256 C269 0.930 . S
H257 C273 0.959 . S
H258 C273 0.959 . S
H259 C273 0.961 . S
H260 C274 0.960 . S
H261 C274 0.961 . S
H262 C274 0.959 . S
H263 C277 0.929 . S
H264 C278 0.931 . S
H265 C280 0.930 . S
C266 H254 0.930 . S
C266 C267 1.399 . S
C266 C271 1.399 . S
C267 C266 1.399 . S
C267 C268 1.376 . S
C268 H255 0.930 . S
C268 C267 1.376 . S
C268 C269 1.388 . S
C269 H256 0.930 . S
C269 C268 1.388 . S
C269 C270 1.390 . S
C270 C269 1.390 . S
C270 C271 1.394 . S
C270 C276 1.465 . S
C271 C266 1.399 . S
C271 C270 1.394 . S
C271 C272 1.516 . S
C272 C271 1.516 . S
C272 C273 1.502 . S
C272 C274 1.561 . S
C272 C275 1.526 . S
C273 H257 0.959 . S
C273 H258 0.959 . S
C273 H259 0.961 . S
C273 C272 1.502 . S
C274 H260 0.960 . S
C274 H261 0.961 . S
C274 H262 0.959 . S
C274 C272 1.561 . S
C275 C272 1.526 . S
C275 C276 1.396 . S
C275 C280 1.390 . S
C276 C270 1.465 . S
C276 C275 1.396 . S
C276 C277 1.399 . S
C277 H263 0.929 . S
C277 C276 1.399 . S
C277 C278 1.385 . S
C278 H264 0.931 . S
C278 C277 1.385 . S
C278 C279 1.389 . S
C279 C278 1.389 . S
C279 C280 1.387 . S
C280 H265 0.930 . S
C280 C275 1.390 . S
C280 C279 1.387 . S
C78 C23 1.486 . S
C90 C54 1.416 . S
C105 C24 1.616 . S
C117 C53 1.602 . S
C132 C8 1.474 . S
C144 C59 1.348 . S
C159 C22 1.422 . S
C171 C60 1.448 . S
C186 C17 1.596 . S
C198 C57 1.601 . S
C225 C55 1.338 . S
C213 C27 1.485 . S
C240 C30 1.441 . S
C252 C56 1.405 . S
C279 C58 1.413 . S
C267 C31 1.489 . S
