# Generated by pormake.
# Topology ocu, (6,8)-cn, num edge types: 1
# Building blocks:
#     Node 0, Type 0, BuildingBlock: KUMBOL_clean_sbu_1, # of connection points: 6
#     Node 1, Type 0, BuildingBlock: KUMBOL_clean_sbu_1, # of connection points: 6
#     Node 2, Type 0, BuildingBlock: KUMBOL_clean_sbu_1, # of connection points: 6
#     Node 3, Type 0, BuildingBlock: KUMBOL_clean_sbu_1, # of connection points: 6
#     Node 4, Type 0, BuildingBlock: KUMBOL_clean_sbu_1, # of connection points: 6
#     Node 5, Type 0, BuildingBlock: KUMBOL_clean_sbu_1, # of connection points: 6
#     Node 6, Type 0, BuildingBlock: KUMBOL_clean_sbu_1, # of connection points: 6
#     Node 7, Type 0, BuildingBlock: KUMBOL_clean_sbu_1, # of connection points: 6
#     Node 8, Type 1, BuildingBlock: TAGTUT_clean_sbu_1, # of connection points: 8
#     Node 9, Type 1, BuildingBlock: TAGTUT_clean_sbu_1, # of connection points: 8
#     Node 10, Type 1, BuildingBlock: TAGTUT_clean_sbu_1, # of connection points: 8
#     Node 11, Type 1, BuildingBlock: TAGTUT_clean_sbu_1, # of connection points: 8
#     Node 12, Type 1, BuildingBlock: TAGTUT_clean_sbu_1, # of connection points: 8
#     Node 13, Type 1, BuildingBlock: TAGTUT_clean_sbu_1, # of connection points: 8
#     Edge 14, Type (0, 1), BuildingBlock: ZUJKAS_clean_linker_0, # of connection points: 2
#     Edge 15, Type (0, 1), BuildingBlock: ZUJKAS_clean_linker_0, # of connection points: 2
#     Edge 16, Type (0, 1), BuildingBlock: ZUJKAS_clean_linker_0, # of connection points: 2
#     Edge 17, Type (0, 1), BuildingBlock: ZUJKAS_clean_linker_0, # of connection points: 2
#     Edge 18, Type (0, 1), BuildingBlock: ZUJKAS_clean_linker_0, # of connection points: 2
#     Edge 19, Type (0, 1), BuildingBlock: ZUJKAS_clean_linker_0, # of connection points: 2
#     Edge 20, Type (0, 1), BuildingBlock: ZUJKAS_clean_linker_0, # of connection points: 2
#     Edge 21, Type (0, 1), BuildingBlock: ZUJKAS_clean_linker_0, # of connection points: 2
#     Edge 22, Type (0, 1), BuildingBlock: ZUJKAS_clean_linker_0, # of connection points: 2
#     Edge 23, Type (0, 1), BuildingBlock: ZUJKAS_clean_linker_0, # of connection points: 2
#     Edge 24, Type (0, 1), BuildingBlock: ZUJKAS_clean_linker_0, # of connection points: 2
#     Edge 25, Type (0, 1), BuildingBlock: ZUJKAS_clean_linker_0, # of connection points: 2
#     Edge 26, Type (0, 1), BuildingBlock: ZUJKAS_clean_linker_0, # of connection points: 2
#     Edge 27, Type (0, 1), BuildingBlock: ZUJKAS_clean_linker_0, # of connection points: 2
#     Edge 28, Type (0, 1), BuildingBlock: ZUJKAS_clean_linker_0, # of connection points: 2
#     Edge 29, Type (0, 1), BuildingBlock: ZUJKAS_clean_linker_0, # of connection points: 2
#     Edge 30, Type (0, 1), BuildingBlock: ZUJKAS_clean_linker_0, # of connection points: 2
#     Edge 31, Type (0, 1), BuildingBlock: ZUJKAS_clean_linker_0, # of connection points: 2
#     Edge 32, Type (0, 1), BuildingBlock: ZUJKAS_clean_linker_0, # of connection points: 2
#     Edge 33, Type (0, 1), BuildingBlock: ZUJKAS_clean_linker_0, # of connection points: 2
#     Edge 34, Type (0, 1), BuildingBlock: ZUJKAS_clean_linker_0, # of connection points: 2
#     Edge 35, Type (0, 1), BuildingBlock: ZUJKAS_clean_linker_0, # of connection points: 2
#     Edge 36, Type (0, 1), BuildingBlock: ZUJKAS_clean_linker_0, # of connection points: 2
#     Edge 37, Type (0, 1), BuildingBlock: ZUJKAS_clean_linker_0, # of connection points: 2
#     Edge 38, Type (0, 1), BuildingBlock: ZUJKAS_clean_linker_0, # of connection points: 2
#     Edge 39, Type (0, 1), BuildingBlock: ZUJKAS_clean_linker_0, # of connection points: 2
#     Edge 40, Type (0, 1), BuildingBlock: ZUJKAS_clean_linker_0, # of connection points: 2
#     Edge 41, Type (0, 1), BuildingBlock: ZUJKAS_clean_linker_0, # of connection points: 2
#     Edge 42, Type (0, 1), BuildingBlock: ZUJKAS_clean_linker_0, # of connection points: 2
#     Edge 43, Type (0, 1), BuildingBlock: ZUJKAS_clean_linker_0, # of connection points: 2
#     Edge 44, Type (0, 1), BuildingBlock: ZUJKAS_clean_linker_0, # of connection points: 2
#     Edge 45, Type (0, 1), BuildingBlock: ZUJKAS_clean_linker_0, # of connection points: 2
#     Edge 46, Type (0, 1), BuildingBlock: ZUJKAS_clean_linker_0, # of connection points: 2
#     Edge 47, Type (0, 1), BuildingBlock: ZUJKAS_clean_linker_0, # of connection points: 2
#     Edge 48, Type (0, 1), BuildingBlock: ZUJKAS_clean_linker_0, # of connection points: 2
#     Edge 49, Type (0, 1), BuildingBlock: ZUJKAS_clean_linker_0, # of connection points: 2
#     Edge 50, Type (0, 1), BuildingBlock: ZUJKAS_clean_linker_0, # of connection points: 2
#     Edge 51, Type (0, 1), BuildingBlock: ZUJKAS_clean_linker_0, # of connection points: 2
#     Edge 52, Type (0, 1), BuildingBlock: ZUJKAS_clean_linker_0, # of connection points: 2
#     Edge 53, Type (0, 1), BuildingBlock: ZUJKAS_clean_linker_0, # of connection points: 2
#     Edge 54, Type (0, 1), BuildingBlock: ZUJKAS_clean_linker_0, # of connection points: 2
#     Edge 55, Type (0, 1), BuildingBlock: ZUJKAS_clean_linker_0, # of connection points: 2
#     Edge 56, Type (0, 1), BuildingBlock: ZUJKAS_clean_linker_0, # of connection points: 2
#     Edge 57, Type (0, 1), BuildingBlock: ZUJKAS_clean_linker_0, # of connection points: 2
#     Edge 58, Type (0, 1), BuildingBlock: ZUJKAS_clean_linker_0, # of connection points: 2
#     Edge 59, Type (0, 1), BuildingBlock: ZUJKAS_clean_linker_0, # of connection points: 2
#     Edge 60, Type (0, 1), BuildingBlock: ZUJKAS_clean_linker_0, # of connection points: 2
#     Edge 61, Type (0, 1), BuildingBlock: ZUJKAS_clean_linker_0, # of connection points: 2
# Relax obj value: 0.057
# Max RMSD: 0.175
# Mean RMSD: 0.097
data_MOF--net-ocu--node1-KUMBOL_clean_sbu_1--node2-TAGTUT_clean_sbu_1--edge1-ZUJKAS_clean_linker_0
_symmetry_space_group_name_H-M    P1
_symmetry_Int_Tables_number       1
_symmetry_cell_setting            triclinic
loop_
_symmetry_equiv_pos_as_xyz
'x, y, z'
_cell_length_a     50.897773
_cell_length_b     48.70428
_cell_length_c     54.184108
_cell_angle_alpha  98.530444
_cell_angle_beta   83.331613
_cell_angle_gamma 109.83878
loop_
_atom_site_label
_atom_site_type_symbol
_atom_site_fract_x
_atom_site_fract_y
_atom_site_fract_z
_atom_type_partial_charge
C0 C 0.30275 0.32359 0.30681 0.0
C1 C 0.27695 0.31761 0.34742 0.0
C2 C 0.28455 0.30563 0.32348 0.0
C3 C 0.28637 0.3482 0.35379 0.0
C4 C 0.31356 0.3542 0.31379 0.0
C5 C 0.30453 0.36647 0.33696 0.0
N6 N 0.31179 0.31089 0.28487 0.0
C7 C 0.33427 0.32722 0.27093 0.0
C8 C 0.33421 0.37139 0.29786 0.0
C9 C 0.34508 0.35773 0.27664 0.0
Gd10 Gd 0.23324 0.24477 0.22539 0.0
Gd11 Gd 0.28981 0.25945 0.27665 0.0
N12 N 0.27526 0.27616 0.31667 0.0
C13 C 0.26084 0.29836 0.36448 0.0
C14 C 0.26119 0.25719 0.33361 0.0
C15 C 0.2534 0.26799 0.3577 0.0
H16 H 0.25575 0.23376 0.32826 0.0
H17 H 0.24165 0.25294 0.37097 0.0
H18 H 0.27755 0.27768 0.17895 0.0
H19 H 0.34445 0.31692 0.2556 0.0
H20 H 0.29718 0.26314 0.13741 0.0
H21 H 0.25468 0.3067 0.38311 0.0
H22 H 0.28039 0.35788 0.37196 0.0
H23 H 0.18068 0.18488 0.24161 0.0
H24 H 0.34299 0.39497 0.30251 0.0
H25 H 0.36225 0.3706 0.26501 0.0
H26 H 0.24765 0.1599 0.12152 0.0
H27 H 0.31237 0.38996 0.34247 0.0
H28 H 0.17721 0.11464 0.18324 0.0
H29 H 0.1596 0.13321 0.22455 0.0
N30 N 0.21146 0.19517 0.21116 0.0
C31 C 0.22044 0.1859 0.18781 0.0
C32 C 0.1893 0.17693 0.22398 0.0
C33 C 0.18686 0.13733 0.19079 0.0
C34 C 0.17694 0.14768 0.21416 0.0
C35 C 0.20866 0.15654 0.17719 0.0
H36 H 0.21012 0.12481 0.14494 0.0
N37 N 0.25225 0.23427 0.18499 0.0
C38 C 0.24154 0.2059 0.17446 0.0
C39 C 0.27218 0.21748 0.13719 0.0
C40 C 0.25143 0.19673 0.15034 0.0
C41 C 0.2712 0.25487 0.17165 0.0
C42 C 0.28184 0.24674 0.14778 0.0
O43 O 0.24937 0.26943 0.28829 0.0
O44 O 0.24143 0.28597 0.25355 0.0
O45 O 0.21531 0.26099 0.19763 0.0
O46 O 0.18966 0.24117 0.22995 0.0
O47 O 0.25395 0.21607 0.2751 0.0
O48 O 0.21665 0.22592 0.2618 0.0
O49 O 0.25899 0.2136 0.22386 0.0
O50 O 0.30216 0.2419 0.2375 0.0
O51 O 0.30142 0.22429 0.28868 0.0
O52 O 0.32636 0.26973 0.29725 0.0
O53 O 0.26905 0.2877 0.22533 0.0
O54 O 0.30582 0.27809 0.23975 0.0
C55 C 0.23918 0.28608 0.27799 0.0
C56 C 0.2269 0.21074 0.27388 0.0
C57 C 0.16506 0.25552 0.20131 0.0
C58 C 0.1407 0.28042 0.1807 0.0
C59 C 0.11433 0.23726 0.20143 0.0
C60 C 0.13909 0.2352 0.20819 0.0
C61 C 0.11506 0.25973 0.18794 0.0
C62 C 0.16589 0.27795 0.18709 0.0
C63 C 0.19069 0.25291 0.2096 0.0
C64 C 0.24018 0.16733 0.13998 0.0
C65 C 0.21881 0.14733 0.15333 0.0
H66 H 0.28037 0.21129 0.11864 0.0
C67 C 0.28649 0.22022 0.22244 0.0
C68 C 0.29597 0.29259 0.22647 0.0
C69 C 0.34938 0.23504 0.29663 0.0
C70 C 0.37672 0.20812 0.31043 0.0
C71 C 0.39889 0.24711 0.28385 0.0
C72 C 0.37344 0.25179 0.28337 0.0
C73 C 0.40059 0.22555 0.29729 0.0
C74 C 0.3511 0.21318 0.31015 0.0
C75 C 0.32346 0.2426 0.29915 0.0
H76 H 0.09444 0.22144 0.2068 0.0
H77 H 0.13791 0.2176 0.21882 0.0
H78 H 0.09546 0.26088 0.18299 0.0
H79 H 0.18579 0.29382 0.18173 0.0
H80 H 0.41748 0.26053 0.27404 0.0
H81 H 0.37275 0.26904 0.27318 0.0
H82 H 0.4208 0.22287 0.29776 0.0
H83 H 0.33264 0.20046 0.32065 0.0
C84 C 0.82373 0.22162 0.20085 0.0
C85 C 0.87104 0.25226 0.2104 0.0
C86 C 0.84248 0.23972 0.21792 0.0
C87 C 0.88049 0.2466 0.18539 0.0
C88 C 0.83343 0.215 0.17597 0.0
C89 C 0.86175 0.22802 0.16823 0.0
N90 N 0.79633 0.20956 0.20881 0.0
C91 C 0.77885 0.18743 0.19388 0.0
C92 C 0.81458 0.19476 0.15979 0.0
C93 C 0.78732 0.18041 0.16897 0.0
Gd94 Gd 0.73733 0.2782 0.25143 0.0
Gd95 Gd 0.78437 0.22463 0.25075 0.0
N96 N 0.83258 0.24571 0.24181 0.0
C97 C 0.88918 0.27035 0.22821 0.0
C98 C 0.85014 0.2629 0.25937 0.0
C99 C 0.87871 0.27554 0.25284 0.0
H100 H 0.84204 0.26682 0.27839 0.0
H101 H 0.8926 0.28935 0.26675 0.0
H102 H 0.67872 0.23473 0.22582 0.0
H103 H 0.75867 0.17431 0.20117 0.0
H104 H 0.62851 0.21246 0.23911 0.0
H105 H 0.91128 0.28038 0.22315 0.0
H106 H 0.90231 0.25628 0.17917 0.0
H107 H 0.76571 0.32616 0.30187 0.0
H108 H 0.8212 0.18905 0.14055 0.0
H109 H 0.77302 0.16343 0.15706 0.0
H110 H 0.62287 0.24365 0.3273 0.0
H111 H 0.86947 0.22342 0.14912 0.0
H112 H 0.70583 0.30888 0.36417 0.0
H113 H 0.7533 0.33502 0.34658 0.0
N114 N 0.72779 0.29098 0.29448 0.0
C115 C 0.70068 0.27855 0.30324 0.0
C116 C 0.7459 0.31252 0.30941 0.0
C117 C 0.71163 0.30387 0.34457 0.0
C118 C 0.7385 0.31851 0.33477 0.0
C119 C 0.69206 0.28433 0.32863 0.0
H120 H 0.65716 0.27528 0.35666 0.0
N121 N 0.68983 0.25535 0.26226 0.0
C122 C 0.68106 0.26092 0.28661 0.0
C123 C 0.63375 0.23077 0.27768 0.0
C124 C 0.65278 0.24833 0.29503 0.0
C125 C 0.6714 0.23852 0.24516 0.0
C126 C 0.64308 0.22596 0.25263 0.0
O127 O 0.80448 0.26689 0.23307 0.0
O128 O 0.76858 0.27733 0.21822 0.0
O129 O 0.71187 0.29247 0.22997 0.0
O130 O 0.7429 0.32459 0.25257 0.0
O131 O 0.78564 0.25941 0.28332 0.0
O132 O 0.78 0.29803 0.26697 0.0
O133 O 0.71783 0.234 0.26616 0.0
O134 O 0.75477 0.23033 0.28372 0.0
O135 O 0.80752 0.20805 0.27337 0.0
O136 O 0.77239 0.17789 0.25281 0.0
O137 O 0.73724 0.24606 0.21718 0.0
O138 O 0.74323 0.20644 0.23198 0.0
C139 C 0.79516 0.27989 0.21812 0.0
C140 C 0.79251 0.28764 0.28151 0.0
C141 C 0.7335 0.33829 0.21519 0.0
C142 C 0.72033 0.35945 0.18235 0.0
C143 C 0.76938 0.36657 0.1867 0.0
C144 C 0.76181 0.35008 0.20692 0.0
C145 C 0.74884 0.37128 0.17448 0.0
C146 C 0.71289 0.34305 0.20288 0.0
C147 C 0.72485 0.32019 0.23603 0.0
C148 C 0.64446 0.25335 0.32043 0.0
C149 C 0.66403 0.27124 0.33718 0.0
H150 H 0.61184 0.22076 0.28345 0.0
C151 C 0.72781 0.22286 0.282 0.0
C152 C 0.73262 0.21772 0.21646 0.0
C153 C 0.79545 0.15551 0.27686 0.0
C154 C 0.81758 0.13432 0.30332 0.0
C155 C 0.78018 0.10266 0.27769 0.0
C156 C 0.77797 0.1271 0.26876 0.0
C157 C 0.79972 0.10619 0.29489 0.0
C158 C 0.81554 0.15905 0.29404 0.0
C159 C 0.79185 0.18101 0.26764 0.0
H160 H 0.79124 0.37569 0.18044 0.0
H161 H 0.77803 0.34644 0.21599 0.0
H162 H 0.75531 0.38439 0.15899 0.0
H163 H 0.69101 0.33343 0.20902 0.0
H164 H 0.76666 0.08087 0.27126 0.0
H165 H 0.76244 0.12368 0.25553 0.0
H166 H 0.80115 0.08677 0.30135 0.0
H167 H 0.82915 0.18084 0.30047 0.0
C168 C 0.81147 0.79703 0.18705 0.0
C169 C 0.80016 0.76484 0.1481 0.0
C170 C 0.79271 0.77359 0.17316 0.0
C171 C 0.82661 0.77976 0.13715 0.0
C172 C 0.83778 0.81241 0.17579 0.0
C173 C 0.84531 0.80348 0.15092 0.0
N174 N 0.8039 0.80501 0.21131 0.0
C175 C 0.82064 0.82976 0.22441 0.0
C176 C 0.85567 0.83664 0.18973 0.0
C177 C 0.84689 0.84557 0.214 0.0
Gd178 Gd 0.75757 0.72204 0.27793 0.0
Gd179 Gd 0.75903 0.77635 0.22593 0.0
N180 N 0.76741 0.75896 0.18431 0.0
C181 C 0.78078 0.74128 0.13477 0.0
C182 C 0.74802 0.73691 0.17115 0.0
C183 C 0.7545 0.72745 0.14628 0.0
H184 H 0.72738 0.72719 0.17964 0.0
H185 H 0.73913 0.70971 0.13595 0.0
H186 H 0.78615 0.76489 0.32804 0.0
H187 H 0.81378 0.83811 0.24266 0.0
H188 H 0.77078 0.78316 0.3705 0.0
H189 H 0.78576 0.7339 0.11549 0.0
H190 H 0.83273 0.77325 0.11795 0.0
H191 H 0.70211 0.66099 0.25928 0.0
H192 H 0.87601 0.84904 0.18171 0.0
H193 H 0.86018 0.86491 0.2246 0.0
H194 H 0.67098 0.73621 0.37566 0.0
H195 H 0.86552 0.81496 0.14208 0.0
H196 H 0.63128 0.66265 0.3091 0.0
H197 H 0.652 0.6408 0.27104 0.0
N198 N 0.70962 0.69729 0.28821 0.0
C199 C 0.69914 0.70792 0.31045 0.0
C200 C 0.69337 0.67223 0.27503 0.0
C201 C 0.6533 0.6724 0.30356 0.0
C202 C 0.66488 0.66007 0.28202 0.0
C203 C 0.67062 0.69595 0.31854 0.0
H204 H 0.63861 0.69827 0.3481 0.0
N205 N 0.74484 0.74013 0.31824 0.0
C206 C 0.71734 0.72938 0.32615 0.0
C207 C 0.72704 0.75932 0.36594 0.0
C208 C 0.70759 0.73932 0.35004 0.0
C209 C 0.76418 0.75806 0.33416 0.0
C210 C 0.75553 0.76828 0.35814 0.0
O211 O 0.78665 0.74671 0.21506 0.0
O212 O 0.77388 0.70742 0.23919 0.0
O213 O 0.79378 0.71942 0.29404 0.0
O214 O 0.75487 0.68331 0.29452 0.0
O215 O 0.72152 0.73601 0.23148 0.0
O216 O 0.7365 0.70006 0.24235 0.0
O217 O 0.74618 0.76364 0.29035 0.0
O218 O 0.72418 0.76535 0.25678 0.0
O219 O 0.7327 0.78612 0.20193 0.0
O220 O 0.75489 0.81964 0.23027 0.0
O221 O 0.79602 0.7587 0.26617 0.0
O222 O 0.7825 0.79711 0.26017 0.0
C223 C 0.78749 0.72101 0.2197 0.0
C224 C 0.72152 0.70881 0.22894 0.0
C225 C 0.79633 0.67178 0.29223 0.0
C226 C 0.82765 0.64751 0.30286 0.0
C227 C 0.80715 0.63413 0.26249 0.0
C228 C 0.79319 0.65461 0.26892 0.0
C229 C 0.8242 0.63048 0.27932 0.0
C230 C 0.81361 0.66831 0.3091 0.0
C231 C 0.78106 0.69275 0.29944 0.0
C232 C 0.67896 0.72855 0.3575 0.0
C233 C 0.66051 0.70699 0.34176 0.0
H234 H 0.72035 0.76742 0.38447 0.0
C235 C 0.72849 0.77257 0.28063 0.0
C236 C 0.79842 0.78658 0.27069 0.0
C237 C 0.74413 0.83568 0.19457 0.0
C238 C 0.72542 0.86123 0.16922 0.0
C239 C 0.77527 0.8779 0.17518 0.0
C240 C 0.77115 0.85538 0.18991 0.0
C241 C 0.75256 0.88101 0.16506 0.0
C242 C 0.7214 0.8384 0.18385 0.0
C243 C 0.73874 0.81338 0.21179 0.0
H244 H 0.8045 0.62078 0.24452 0.0
H245 H 0.77964 0.6568 0.25591 0.0
H246 H 0.83422 0.61389 0.27405 0.0
H247 H 0.81607 0.68184 0.32702 0.0
H248 H 0.7961 0.89319 0.17181 0.0
H249 H 0.78895 0.85368 0.19793 0.0
H250 H 0.75622 0.89874 0.1538 0.0
H251 H 0.70046 0.82336 0.18757 0.0
C252 C 0.28439 0.68167 0.29248 0.0
C253 C 0.26579 0.63219 0.27163 0.0
C254 C 0.27555 0.6629 0.27093 0.0
C255 C 0.26433 0.62083 0.2943 0.0
C256 C 0.28407 0.67032 0.31505 0.0
C257 C 0.27358 0.63983 0.31592 0.0
N258 N 0.29364 0.7111 0.29134 0.0
C259 C 0.30487 0.73037 0.31137 0.0
C260 C 0.29436 0.69001 0.33604 0.0
C261 C 0.30508 0.72015 0.33411 0.0
Gd262 Gd 0.23413 0.76186 0.24797 0.0
Gd263 Gd 0.29344 0.72641 0.25252 0.0
N264 N 0.27782 0.67454 0.24912 0.0
C265 C 0.25858 0.61375 0.24936 0.0
C266 C 0.27287 0.65647 0.2271 0.0
C267 C 0.26255 0.62596 0.22695 0.0
H268 H 0.27725 0.66517 0.20942 0.0
H269 H 0.25813 0.61186 0.20946 0.0
H270 H 0.26086 0.82927 0.27826 0.0
H271 H 0.31353 0.7536 0.30979 0.0
H272 H 0.28201 0.8803 0.26813 0.0
H273 H 0.25091 0.59007 0.24913 0.0
H274 H 0.2567 0.59732 0.29518 0.0
H275 H 0.19819 0.72323 0.19794 0.0
H276 H 0.29449 0.68216 0.35371 0.0
H277 H 0.31359 0.73551 0.35009 0.0
H278 H 0.27054 0.87289 0.1804 0.0
H279 H 0.27284 0.63071 0.33316 0.0
H280 H 0.21883 0.77882 0.13965 0.0
H281 H 0.19482 0.73023 0.15453 0.0
N282 N 0.22641 0.76637 0.20694 0.0
C283 C 0.23812 0.79376 0.19967 0.0
C284 C 0.20998 0.74406 0.19141 0.0
C285 C 0.22098 0.77565 0.1586 0.0
C286 C 0.20747 0.74817 0.1669 0.0
C287 C 0.23604 0.79905 0.17519 0.0
H288 H 0.24716 0.832 0.14947 0.0
N289 N 0.25181 0.81133 0.24082 0.0
C290 C 0.25096 0.81696 0.21716 0.0
C291 C 0.27428 0.86871 0.22905 0.0
C292 C 0.2625 0.84581 0.21055 0.0
C293 C 0.26179 0.83371 0.25924 0.0
C294 C 0.27357 0.86267 0.25357 0.0
O295 O 0.25876 0.72219 0.28358 0.0
O296 O 0.22453 0.71669 0.25858 0.0
O297 O 0.20803 0.76463 0.28154 0.0
O298 O 0.193 0.76557 0.24599 0.0
O299 O 0.26989 0.71048 0.21669 0.0
O300 O 0.22638 0.71605 0.22735 0.0
O301 O 0.27919 0.78547 0.23512 0.0
O302 O 0.29131 0.74587 0.21777 0.0
O303 O 0.32877 0.71046 0.24465 0.0
O304 O 0.336 0.75706 0.25236 0.0
O305 O 0.25769 0.77818 0.28322 0.0
O306 O 0.30087 0.77226 0.27176 0.0
C307 C 0.23211 0.71306 0.27967 0.0
C308 C 0.24298 0.70352 0.21312 0.0
C309 C 0.17504 0.78879 0.28246 0.0
C310 C 0.1664 0.81934 0.32002 0.0
C311 C 0.14223 0.81509 0.28276 0.0
C312 C 0.15603 0.79621 0.27018 0.0
C313 C 0.14734 0.82665 0.30757 0.0
C314 C 0.17992 0.80025 0.30743 0.0
C315 C 0.188 0.76725 0.27018 0.0
C316 C 0.26157 0.85091 0.18589 0.0
C317 C 0.24832 0.8276 0.16827 0.0
H318 H 0.28341 0.89117 0.22471 0.0
C319 C 0.29379 0.77354 0.21814 0.0
C320 C 0.28459 0.7849 0.28614 0.0
C321 C 0.36307 0.741 0.21963 0.0
C322 C 0.36202 0.72846 0.17455 0.0
C323 C 0.40643 0.75275 0.19373 0.0
C324 C 0.39228 0.75243 0.2175 0.0
C325 C 0.3915 0.74024 0.17236 0.0
C326 C 0.34833 0.73118 0.19817 0.0
C327 C 0.34692 0.73671 0.24367 0.0
H328 H 0.12763 0.82087 0.27325 0.0
H329 H 0.15162 0.78719 0.25101 0.0
H330 H 0.13693 0.84184 0.31679 0.0
H331 H 0.19414 0.79423 0.31731 0.0
H332 H 0.42907 0.7613 0.19196 0.0
H333 H 0.404 0.76046 0.23403 0.0
H334 H 0.40321 0.73841 0.15457 0.0
H335 H 0.32581 0.72317 0.20029 0.0
C336 C 0.31934 0.72234 0.69399 0.0
C337 C 0.36623 0.75778 0.69588 0.0
C338 C 0.33953 0.74429 0.70734 0.0
C339 C 0.37184 0.74992 0.67033 0.0
C340 C 0.32534 0.71342 0.66861 0.0
C341 C 0.35137 0.72794 0.65667 0.0
N342 N 0.29479 0.7081 0.70635 0.0
C343 C 0.27695 0.68266 0.69525 0.0
C344 C 0.30555 0.68924 0.65637 0.0
C345 C 0.28151 0.67341 0.66991 0.0
Gd346 Gd 0.23758 0.77755 0.75378 0.0
Gd347 Gd 0.28802 0.7275 0.74816 0.0
N348 N 0.33337 0.75156 0.73195 0.0
C349 C 0.3867 0.77808 0.71067 0.0
C350 C 0.3536 0.76992 0.74685 0.0
C351 C 0.38049 0.78378 0.73636 0.0
H352 H 0.34864 0.77431 0.76667 0.0
H353 H 0.39635 0.79891 0.74804 0.0
H354 H 0.18464 0.72952 0.72063 0.0
H355 H 0.25932 0.66919 0.70594 0.0
H356 H 0.13605 0.69822 0.72903 0.0
H357 H 0.4075 0.7889 0.70257 0.0
H358 H 0.3922 0.76009 0.66111 0.0
H359 H 0.25647 0.82039 0.80703 0.0
H360 H 0.3093 0.68173 0.63685 0.0
H361 H 0.26678 0.65375 0.66102 0.0
H362 H 0.11531 0.72483 0.81601 0.0
H363 H 0.35628 0.72154 0.63713 0.0
H364 H 0.18732 0.79838 0.86173 0.0
H365 H 0.23622 0.82776 0.85009 0.0
N366 N 0.22013 0.786 0.79493 0.0
C367 C 0.19292 0.77045 0.80054 0.0
C368 C 0.23544 0.80693 0.8121 0.0
C369 C 0.19624 0.79486 0.84286 0.0
C370 C 0.22388 0.81141 0.83641 0.0
C371 C 0.1803 0.77427 0.8248 0.0
H372 H 0.14227 0.76003 0.8488 0.0
N373 N 0.19059 0.74735 0.75869 0.0
C374 C 0.17786 0.75026 0.78202 0.0
C375 C 0.13475 0.71414 0.76825 0.0
C376 C 0.14964 0.73362 0.78743 0.0
C377 C 0.1756 0.72975 0.7396 0.0
C378 C 0.14771 0.71245 0.74418 0.0
O379 O 0.30382 0.77201 0.73411 0.0
O380 O 0.26546 0.77541 0.71842 0.0
O381 O 0.21026 0.79656 0.73943 0.0
O382 O 0.24896 0.82478 0.75486 0.0
O383 O 0.29127 0.76211 0.78144 0.0
O384 O 0.28001 0.80015 0.76899 0.0
O385 O 0.23748 0.75039 0.78458 0.0
O386 O 0.24368 0.70827 0.76407 0.0
O387 O 0.30333 0.71937 0.78124 0.0
O388 O 0.30236 0.69017 0.74693 0.0
O389 O 0.23533 0.74462 0.71937 0.0
O390 O 0.24511 0.70652 0.73296 0.0
C391 C 0.29263 0.78162 0.7181 0.0
C392 C 0.29372 0.79012 0.78272 0.0
C393 C 0.23483 0.83926 0.72003 0.0
C394 C 0.21923 0.857 0.68627 0.0
C395 C 0.26882 0.86547 0.68904 0.0
C396 C 0.26269 0.85082 0.7103 0.0
C397 C 0.24733 0.86858 0.6771 0.0
C398 C 0.21318 0.84255 0.70797 0.0
C399 C 0.22806 0.82309 0.74223 0.0
C400 C 0.13702 0.7373 0.8116 0.0
C401 C 0.15233 0.75747 0.83025 0.0
H402 H 0.11305 0.70093 0.77168 0.0
C403 C 0.23112 0.72169 0.78191 0.0
C404 C 0.23355 0.71681 0.71754 0.0
C405 C 0.29908 0.67043 0.78479 0.0
C406 C 0.31147 0.64311 0.81328 0.0
C407 C 0.26572 0.62436 0.79596 0.0
C408 C 0.27271 0.64877 0.78284 0.0
C409 C 0.28496 0.6214 0.81098 0.0
C410 C 0.31815 0.66775 0.80021 0.0
C411 C 0.3078 0.69557 0.77035 0.0
H412 H 0.29034 0.87439 0.68174 0.0
H413 H 0.2798 0.84847 0.71902 0.0
H414 H 0.25275 0.88031 0.66076 0.0
H415 H 0.19163 0.83333 0.7152 0.0
H416 H 0.24548 0.60747 0.79423 0.0
H417 H 0.25775 0.6506 0.77102 0.0
H418 H 0.27926 0.60181 0.82031 0.0
H419 H 0.33831 0.6849 0.80183 0.0
C420 C 0.32459 0.29433 0.68797 0.0
C421 C 0.31632 0.26523 0.64722 0.0
C422 C 0.30655 0.27311 0.67178 0.0
C423 C 0.34469 0.27757 0.6395 0.0
C424 C 0.35286 0.30766 0.67966 0.0
C425 C 0.36292 0.2986 0.6557 0.0
N426 N 0.31418 0.30341 0.71094 0.0
C427 C 0.33032 0.32785 0.72494 0.0
C428 C 0.37002 0.33066 0.69521 0.0
C429 C 0.35855 0.34115 0.7177 0.0
Gd430 Gd 0.25756 0.22276 0.77597 0.0
Gd431 Gd 0.26616 0.27798 0.72005 0.0
N432 N 0.27922 0.26077 0.67974 0.0
C433 C 0.29709 0.24582 0.63086 0.0
C434 C 0.2601 0.24306 0.66358 0.0
C435 C 0.26878 0.23518 0.63892 0.0
H436 H 0.23823 0.23515 0.66976 0.0
H437 H 0.2537 0.22095 0.62616 0.0
H438 H 0.28699 0.26761 0.82501 0.0
H439 H 0.32172 0.33806 0.74143 0.0
H440 H 0.27313 0.28272 0.86873 0.0
H441 H 0.30377 0.23949 0.61178 0.0
H442 H 0.35262 0.27152 0.62079 0.0
H443 H 0.20086 0.16367 0.75534 0.0
H444 H 0.39181 0.3414 0.68947 0.0
H445 H 0.37129 0.36 0.72921 0.0
H446 H 0.17483 0.22946 0.87783 0.0
H447 H 0.3846 0.30849 0.64917 0.0
H448 H 0.13299 0.15971 0.81001 0.0
H449 H 0.15177 0.14172 0.76913 0.0
N450 N 0.20985 0.19758 0.78634 0.0
C451 C 0.20039 0.20648 0.80978 0.0
C452 C 0.19302 0.17358 0.77242 0.0
C453 C 0.15458 0.17041 0.80365 0.0
C454 C 0.16506 0.16028 0.78052 0.0
C455 C 0.17243 0.19315 0.8189 0.0
H456 H 0.14186 0.19221 0.85041 0.0
N457 N 0.24593 0.24067 0.81651 0.0
C458 C 0.21901 0.2279 0.82543 0.0
C459 C 0.22979 0.2561 0.86586 0.0
C460 C 0.21011 0.23593 0.85026 0.0
C461 C 0.26542 0.2594 0.83185 0.0
C462 C 0.25765 0.26759 0.8567 0.0
O463 O 0.28144 0.23834 0.70837 0.0
O464 O 0.28484 0.21407 0.74158 0.0
O465 O 0.28948 0.21902 0.79755 0.0
O466 O 0.25344 0.18108 0.78822 0.0
O467 O 0.22802 0.24099 0.7314 0.0
O468 O 0.23743 0.20129 0.74015 0.0
O469 O 0.23937 0.26062 0.78678 0.0
O470 O 0.24171 0.28985 0.75523 0.0
O471 O 0.23248 0.28148 0.70054 0.0
O472 O 0.27092 0.31806 0.70483 0.0
O473 O 0.29571 0.25995 0.76503 0.0
O474 O 0.28592 0.2993 0.75595 0.0
C475 C 0.29023 0.21984 0.71806 0.0
C476 C 0.22584 0.21325 0.72628 0.0
C477 C 0.29575 0.17265 0.79139 0.0
C478 C 0.32962 0.15221 0.8031 0.0
C479 C 0.31438 0.14116 0.76071 0.0
C480 C 0.29693 0.15821 0.76709 0.0
C481 C 0.33066 0.13818 0.77852 0.0
C482 C 0.31199 0.16949 0.80942 0.0
C483 C 0.27752 0.19085 0.7981 0.0
C484 C 0.18209 0.22331 0.8589 0.0
C485 C 0.1633 0.20213 0.84325 0.0
H486 H 0.22376 0.26265 0.88508 0.0
C487 C 0.23349 0.28171 0.77789 0.0
C488 C 0.29749 0.28757 0.77 0.0
C489 C 0.22987 0.32943 0.70406 0.0
C490 C 0.20034 0.35464 0.69185 0.0
C491 C 0.21889 0.36777 0.73292 0.0
C492 C 0.23235 0.34676 0.72736 0.0
C493 C 0.20316 0.37192 0.71521 0.0
C494 C 0.21354 0.33314 0.68645 0.0
C495 C 0.24569 0.30888 0.69735 0.0
H496 H 0.31521 0.13011 0.74191 0.0
H497 H 0.28436 0.16011 0.75302 0.0
H498 H 0.3437 0.12442 0.77318 0.0
H499 H 0.31104 0.18061 0.82822 0.0
H500 H 0.22092 0.38111 0.7509 0.0
H501 H 0.24499 0.34431 0.74113 0.0
H502 H 0.19308 0.38854 0.71979 0.0
H503 H 0.21189 0.32003 0.66832 0.0
C504 C 0.79643 0.20004 0.80123 0.0
C505 C 0.77329 0.14796 0.78932 0.0
C506 C 0.78222 0.17735 0.78393 0.0
C507 C 0.7781 0.14183 0.81257 0.0
C508 C 0.80285 0.19371 0.82394 0.0
C509 C 0.79296 0.16462 0.82979 0.0
N510 N 0.80583 0.22797 0.79509 0.0
C511 C 0.82453 0.24984 0.80918 0.0
C512 C 0.82005 0.21663 0.83959 0.0
C513 C 0.83141 0.24469 0.83192 0.0
Gd514 Gd 0.73605 0.2693 0.74277 0.0
Gd515 Gd 0.7923 0.23412 0.75699 0.0
N516 N 0.7784 0.18384 0.76135 0.0
C517 C 0.76043 0.12553 0.77092 0.0
C518 C 0.76731 0.16189 0.74286 0.0
C519 C 0.75779 0.13252 0.74749 0.0
H520 H 0.76598 0.16661 0.72438 0.0
H521 H 0.74868 0.11527 0.73286 0.0
H522 H 0.79063 0.33242 0.76219 0.0
H523 H 0.83375 0.27146 0.80308 0.0
H524 H 0.81507 0.38031 0.74843 0.0
H525 H 0.75325 0.1027 0.77436 0.0
H526 H 0.77117 0.11942 0.81711 0.0
H527 H 0.70207 0.22893 0.6943 0.0
H528 H 0.82556 0.21264 0.85714 0.0
H529 H 0.84557 0.26231 0.84345 0.0
H530 H 0.78035 0.37505 0.66904 0.0
H531 H 0.7974 0.15941 0.84729 0.0
H532 H 0.71688 0.28324 0.63544 0.0
H533 H 0.69423 0.23513 0.65157 0.0
N534 N 0.72966 0.27257 0.70162 0.0
C535 C 0.74185 0.29942 0.69347 0.0
C536 C 0.7125 0.24975 0.68714 0.0
C537 C 0.72051 0.28056 0.65412 0.0
C538 C 0.70779 0.25332 0.6631 0.0
C539 C 0.73782 0.304 0.66928 0.0
H540 H 0.74848 0.33551 0.64235 0.0
N541 N 0.76398 0.31656 0.73181 0.0
C542 C 0.75955 0.32197 0.70888 0.0
C543 C 0.79363 0.37072 0.71467 0.0
C544 C 0.7741 0.3493 0.69989 0.0
C545 C 0.78438 0.33698 0.7455 0.0
C546 C 0.7991 0.36433 0.73735 0.0
O547 O 0.74782 0.21147 0.77147 0.0
O548 O 0.72852 0.24878 0.77901 0.0
O549 O 0.70868 0.29558 0.74889 0.0
O550 O 0.69096 0.24819 0.74303 0.0
O551 O 0.76989 0.21585 0.72088 0.0
O552 O 0.72653 0.22083 0.73154 0.0
O553 O 0.76938 0.26651 0.71248 0.0
O554 O 0.79967 0.27672 0.74156 0.0
O555 O 0.82426 0.21509 0.74146 0.0
O556 O 0.83516 0.26223 0.7495 0.0
O557 O 0.75818 0.29264 0.77833 0.0
O558 O 0.78723 0.26793 0.78857 0.0
C559 C 0.72941 0.22319 0.78334 0.0
C560 C 0.74287 0.20794 0.71773 0.0
C561 C 0.67018 0.27261 0.77559 0.0
C562 C 0.66827 0.29313 0.81914 0.0
C563 C 0.63202 0.24841 0.80448 0.0
C564 C 0.64522 0.2497 0.78031 0.0
C565 C 0.64349 0.27008 0.82393 0.0
C566 C 0.68162 0.29391 0.79522 0.0
C567 C 0.68633 0.27271 0.75133 0.0
C568 C 0.76951 0.35411 0.67608 0.0
C569 C 0.75142 0.33156 0.66084 0.0
H570 H 0.80531 0.39188 0.70834 0.0
C571 C 0.7953 0.27613 0.71821 0.0
C572 C 0.77586 0.28902 0.79287 0.0
C573 C 0.85231 0.24389 0.71124 0.0
C574 C 0.84336 0.22614 0.66776 0.0
C575 C 0.88769 0.26328 0.6787 0.0
C576 C 0.87907 0.26226 0.70415 0.0
C577 C 0.87025 0.24475 0.66054 0.0
C578 C 0.83407 0.22804 0.69292 0.0
C579 C 0.84248 0.24058 0.73743 0.0
H580 H 0.61288 0.23064 0.80812 0.0
H581 H 0.63634 0.23258 0.7655 0.0
H582 H 0.63272 0.26928 0.8424 0.0
H583 H 0.70123 0.3114 0.7921 0.0
H584 H 0.90844 0.2773 0.6731 0.0
H585 H 0.89317 0.2755 0.71813 0.0
H586 H 0.87846 0.24384 0.64121 0.0
H587 H 0.8131 0.21484 0.69845 0.0
C588 C 0.80164 0.82188 0.81018 0.0
C589 C 0.77364 0.81443 0.84973 0.0
C590 C 0.78272 0.80318 0.82606 0.0
C591 C 0.78296 0.84486 0.85695 0.0
C592 C 0.81203 0.85234 0.81798 0.0
C593 C 0.80207 0.86376 0.84111 0.0
N594 N 0.81112 0.81017 0.78791 0.0
C595 C 0.83351 0.82731 0.77441 0.0
C596 C 0.83292 0.87033 0.80277 0.0
C597 C 0.84412 0.85765 0.78118 0.0
Gd598 Gd 0.73516 0.74743 0.72589 0.0
Gd599 Gd 0.79021 0.75883 0.77865 0.0
N600 N 0.77324 0.77385 0.81836 0.0
C601 C 0.75572 0.79466 0.8656 0.0
C602 C 0.75698 0.75431 0.83412 0.0
C603 C 0.74772 0.76445 0.8579 0.0
H604 H 0.75077 0.73099 0.82804 0.0
H605 H 0.73428 0.749 0.8702 0.0
H606 H 0.7753 0.78219 0.67925 0.0
H607 H 0.84394 0.81781 0.75876 0.0
H608 H 0.78823 0.77062 0.63452 0.0
H609 H 0.74831 0.80247 0.88395 0.0
H610 H 0.77594 0.85396 0.87495 0.0
H611 H 0.68594 0.6844 0.74384 0.0
H612 H 0.84145 0.89381 0.80812 0.0
H613 H 0.86137 0.87115 0.77002 0.0
H614 H 0.73632 0.66827 0.61621 0.0
H615 H 0.80961 0.88714 0.84723 0.0
H616 H 0.67765 0.61771 0.68207 0.0
H617 H 0.66509 0.63349 0.72598 0.0
N618 N 0.71349 0.6974 0.71163 0.0
C619 C 0.71922 0.68965 0.68686 0.0
C620 C 0.69336 0.67786 0.72526 0.0
C621 C 0.6877 0.64013 0.69008 0.0
C622 C 0.68071 0.64889 0.71491 0.0
C623 C 0.70674 0.66068 0.67558 0.0
H624 H 0.70385 0.63101 0.64123 0.0
N625 N 0.74949 0.73861 0.68379 0.0
C626 C 0.73738 0.71086 0.67253 0.0
C627 C 0.76234 0.72512 0.6332 0.0
C628 C 0.74369 0.70337 0.6469 0.0
C629 C 0.76715 0.76002 0.67045 0.0
C630 C 0.77406 0.75358 0.64503 0.0
O631 O 0.75017 0.77034 0.78923 0.0
O632 O 0.74407 0.78821 0.7545 0.0
O633 O 0.71846 0.76884 0.70153 0.0
O634 O 0.69108 0.74205 0.72958 0.0
O635 O 0.75572 0.71533 0.77188 0.0
O636 O 0.71875 0.72736 0.76176 0.0
O637 O 0.76647 0.72242 0.71478 0.0
O638 O 0.801 0.7329 0.74302 0.0
O639 O 0.79781 0.72711 0.79882 0.0
O640 O 0.83028 0.76843 0.79393 0.0
O641 O 0.77241 0.78904 0.72817 0.0
O642 O 0.80797 0.77685 0.74187 0.0
C643 C 0.7406 0.78744 0.77884 0.0
C644 C 0.72893 0.71207 0.77373 0.0
C645 C 0.66838 0.76252 0.70375 0.0
C646 C 0.64688 0.78825 0.68132 0.0
C647 C 0.61772 0.74825 0.70435 0.0
C648 C 0.64156 0.74449 0.71155 0.0
C649 C 0.62032 0.77006 0.68938 0.0
C650 C 0.67101 0.78438 0.68836 0.0
C651 C 0.69315 0.75769 0.71146 0.0
C652 C 0.73159 0.67444 0.63584 0.0
C653 C 0.71319 0.65318 0.65012 0.0
H654 H 0.76777 0.72019 0.6135 0.0
C655 C 0.78934 0.71962 0.72199 0.0
C656 C 0.79886 0.79091 0.7276 0.0
C657 C 0.84434 0.72732 0.79455 0.0
C658 C 0.86935 0.69629 0.80502 0.0
C659 C 0.87719 0.71291 0.76374 0.0
C660 C 0.85812 0.72803 0.77056 0.0
C661 C 0.8828 0.69713 0.78079 0.0
C662 C 0.85005 0.71154 0.81177 0.0
C663 C 0.82386 0.74277 0.80166 0.0
H664 H 0.59715 0.73422 0.7104 0.0
H665 H 0.63895 0.72729 0.72313 0.0
H666 H 0.60156 0.77274 0.68399 0.0
H667 H 0.69153 0.79839 0.68207 0.0
H668 H 0.88772 0.71349 0.74518 0.0
H669 H 0.85406 0.74017 0.75707 0.0
H670 H 0.89805 0.68598 0.77514 0.0
H671 H 0.83928 0.71092 0.83027 0.0
C672 C 0.93518 0.04278 0.52714 0.0
C673 C 0.97599 0.0477 0.45361 0.0
C674 C 0.96942 0.9367 0.46794 0.0
Mg675 Mg 0.99673 0.05786 0.50666 0.0
O676 O 0.98608 0.0174 0.50721 0.0
Mg677 Mg 0.95285 0.99129 0.48943 0.0
Mg678 Mg 0.01253 0.99539 0.49767 0.0
O679 O 0.03963 0.97343 0.48898 0.0
Mg680 Mg 0.02252 0.92981 0.48708 0.0
Mg681 Mg 0.07543 0.00387 0.50717 0.0
C682 C 0.04954 0.0539 0.53095 0.0
C683 C 0.06416 0.03763 0.46376 0.0
O684 O 0.92855 0.01879 0.51239 0.0
O685 O 0.96021 0.06059 0.52887 0.0
O686 O 0.96165 0.02162 0.4584 0.0
O687 O 0.99305 0.06556 0.46889 0.0
O688 O 0.03556 0.06943 0.5253 0.0
O689 O 0.04274 0.02606 0.52421 0.0
C690 C 0.96153 0.9575 0.53388 0.0
O691 O 0.98809 0.9663 0.5286 0.0
O692 O 0.94495 0.96371 0.52133 0.0
O693 O 0.06218 0.96534 0.47713 0.0
O694 O 0.04998 0.92331 0.4545 0.0
O695 O 0.06603 0.9698 0.53574 0.0
C696 C 0.06803 0.94877 0.4582 0.0
O697 O 0.03607 0.92478 0.5228 0.0
O698 O 0.98055 0.9197 0.47541 0.0
C699 C 0.05272 0.94266 0.53869 0.0
O700 O 0.98081 0.96466 0.47068 0.0
O701 O 0.03754 0.02524 0.46716 0.0
O702 O 0.08137 0.03346 0.47707 0.0
C703 C 0.44518 0.06246 0.05201 0.0
C704 C 0.46778 0.05653 0.97329 0.0
C705 C 0.46109 0.94546 0.97594 0.0
Mg706 Mg 0.50163 0.06624 0.01908 0.0
O707 O 0.4894 0.02562 0.02131 0.0
Mg708 Mg 0.45036 0.00298 0.01144 0.0
Mg709 Mg 0.51065 1.00006 0.00125 0.0
O710 O 0.5317 0.97449 0.98114 0.0
Mg711 Mg 0.51908 0.93354 0.98175 0.0
Mg712 Mg 0.57044 0.99645 0.99179 0.0
C713 C 0.55987 0.05494 0.02614 0.0
C714 C 0.55338 0.03628 0.9573 0.0
O715 O 0.43428 0.03604 0.04128 0.0
O716 O 0.47096 0.07756 0.04705 0.0
O717 O 0.4524 0.03266 0.98174 0.0
O718 O 0.49047 0.07255 0.98315 0.0
O719 O 0.54527 0.07221 0.02664 0.0
O720 O 0.55001 0.02709 0.01952 0.0
C721 C 0.46861 0.96349 0.04535 0.0
O722 O 0.49277 0.96903 0.03311 0.0
O723 O 0.45027 0.97429 0.04072 0.0
O724 O 0.58667 0.96332 0.96165 0.0
O725 O 0.54964 0.9228 0.95352 0.0
O726 O 0.56645 0.96634 0.02193 0.0
C727 C 0.57569 0.93761 0.94963 0.0
O728 O 0.5293 0.92568 0.01729 0.0
O729 O 0.47559 0.92796 0.97447 0.0
C730 C 0.55059 0.94185 0.02908 0.0
O731 O 0.47114 0.97307 0.98332 0.0
O732 O 0.52898 0.03099 0.96916 0.0
O733 O 0.5714 0.02537 0.96254 0.0
C734 C 0.94592 0.56372 0.04892 0.0
C735 C 0.97421 0.56076 0.9711 0.0
C736 C 0.96217 0.44778 0.97057 0.0
Mg737 Mg 1.00348 0.56683 0.01902 0.0
O738 O 0.98951 0.52592 0.01978 0.0
Mg739 Mg 0.95134 0.50495 0.00713 0.0
Mg740 Mg 1.01101 0.50098 -0.00023 0.0
O741 O 0.03253 0.47606 0.97973 0.0
Mg742 Mg 0.01937 0.43494 0.97863 0.0
Mg743 Mg 0.07118 0.49757 0.99105 0.0
C744 C 0.05988 0.55415 0.02894 0.0
C745 C 0.05446 0.53897 0.95798 0.0
O746 O 0.93481 0.53764 0.03755 0.0
O747 O 0.97199 0.57836 0.04509 0.0
O748 O 0.95722 0.53679 0.97821 0.0
O749 O 0.99599 0.57558 0.98279 0.0
O750 O 0.04562 0.57175 0.02963 0.0
O751 O 0.0503 0.52689 0.01995 0.0
C752 C 0.96601 0.4621 0.04009 0.0
O753 O 0.99132 0.46899 0.03019 0.0
O754 O 0.94828 0.47326 0.03457 0.0
O755 O 0.08751 0.46551 0.9603 0.0
O756 O 0.05028 0.42574 0.95007 0.0
O757 O 0.06711 0.46559 0.01945 0.0
C758 C 0.07641 0.44058 0.94722 0.0
O759 O 0.02971 0.42533 0.0139 0.0
O760 O 0.97631 0.42997 0.96953 0.0
C761 C 0.05135 0.44064 0.02572 0.0
O762 O 0.97217 0.47509 0.97924 0.0
O763 O 0.02991 0.53276 0.96934 0.0
O764 O 0.0728 0.52828 0.96281 0.0
C765 C 0.43722 0.54748 0.0283 0.0
C766 C 0.47366 0.54596 0.95442 0.0
C767 C 0.46895 0.43719 0.9675 0.0
Mg768 Mg 0.49777 0.55864 0.00536 0.0
O769 O 0.48563 0.51872 0.00937 0.0
Mg770 Mg 0.45147 0.49212 0.99302 0.0
Mg771 Mg 0.51156 0.49685 0.99778 0.0
O772 O 0.53753 0.47467 0.98642 0.0
Mg773 Mg 0.52416 0.43223 0.985 0.0
Mg774 Mg 0.57098 0.50273 0.0052 0.0
C775 C 0.55036 0.55633 0.03019 0.0
C776 C 0.56137 0.53653 0.96156 0.0
O777 O 0.42934 0.52131 0.01691 0.0
O778 O 0.46242 0.56507 0.02658 0.0
O779 O 0.45843 0.52126 0.96159 0.0
O780 O 0.49329 0.56375 0.96732 0.0
O781 O 0.53664 0.57179 0.024 0.0
O782 O 0.54303 0.5284 0.02433 0.0
C783 C 0.46379 0.45886 0.03575 0.0
O784 O 0.4899 0.46764 0.02882 0.0
O785 O 0.44578 0.46518 0.02515 0.0
O786 O 0.57296 0.46773 0.97507 0.0
O787 O 0.55348 0.4241 0.95557 0.0
O788 O 0.5625 0.47043 0.03474 0.0
C789 C 0.57418 0.44773 0.95779 0.0
O790 O 0.53439 0.42526 0.02106 0.0
O791 O 0.48231 0.42084 0.97252 0.0
C792 C 0.54994 0.44323 0.03748 0.0
O793 O 0.47845 0.46527 0.97222 0.0
O794 O 0.53471 0.52653 0.96639 0.0
O795 O 0.57834 0.53148 0.97446 0.0
C796 C 0.9469 0.56171 0.55136 0.0
C797 C 0.97285 0.56081 0.47303 0.0
C798 C 0.96458 0.44762 0.47169 0.0
Mg799 Mg 1.00401 0.56673 0.51967 0.0
O800 O 0.99094 0.52582 0.52003 0.0
Mg801 Mg 0.95247 0.50416 0.50821 0.0
Mg802 Mg 0.01267 0.50116 0.49996 0.0
O803 O 0.03428 0.47622 0.47991 0.0
Mg804 Mg 0.02145 0.43542 0.4809 0.0
Mg805 Mg 0.07276 0.49816 0.49107 0.0
C806 C 0.06159 0.55531 0.527 0.0
C807 C 0.05544 0.53818 0.45704 0.0
O808 O 0.93577 0.53614 0.53913 0.0
O809 O 0.97294 0.57656 0.54757 0.0
O810 O 0.95646 0.53649 0.48001 0.0
O811 O 0.99489 0.57588 0.48418 0.0
O812 O 0.04712 0.57274 0.52806 0.0
O813 O 0.05174 0.52774 0.51931 0.0
C814 C 0.9684 0.46179 0.541 0.0
O815 O 0.99367 0.46921 0.53093 0.0
O816 O 0.95024 0.47234 0.53546 0.0
O817 O 0.08935 0.4655 0.46092 0.0
O818 O 0.05246 0.4246 0.4535 0.0
O819 O 0.0687 0.46779 0.52074 0.0
C820 C 0.07841 0.43952 0.44934 0.0
O821 O 0.03072 0.42792 0.51696 0.0
O822 O 0.97886 0.43011 0.47134 0.0
C823 C 0.05247 0.44372 0.52832 0.0
O824 O 0.97407 0.47508 0.47993 0.0
O825 O 0.03117 0.53269 0.46899 0.0
O826 O 0.07372 0.52743 0.46197 0.0
C827 C 0.44643 0.0613 0.54817 0.0
C828 C 0.47543 0.06181 0.47047 0.0
C829 C 0.46528 0.94824 0.46794 0.0
Mg830 Mg 0.50432 0.06611 0.51836 0.0
O831 O 0.49047 0.02526 0.51815 0.0
Mg832 Mg 0.45263 0.00449 0.50467 0.0
Mg833 Mg 0.51282 1.00049 0.49966 0.0
O834 O 0.5348 0.97554 0.48106 0.0
Mg835 Mg 0.52088 0.93455 0.47866 0.0
Mg836 Mg 0.57259 0.99588 0.4942 0.0
C837 C 0.56017 0.05362 0.53073 0.0
C838 C 0.55892 0.03716 0.45903 0.0
O839 O 0.43527 0.03616 0.53531 0.0
O840 O 0.47265 0.07578 0.54519 0.0
O841 O 0.45849 0.03744 0.47676 0.0
O842 O 0.49699 0.07642 0.4825 0.0
O843 O 0.54579 0.0708 0.53009 0.0
O844 O 0.55123 0.02617 0.5219 0.0
C845 C 0.46552 0.96097 0.5381 0.0
O846 O 0.49131 0.96818 0.52952 0.0
O847 O 0.44835 0.97215 0.53159 0.0
O848 O 0.58972 0.96327 0.46391 0.0
O849 O 0.55209 0.92556 0.45107 0.0
O850 O 0.56534 0.96368 0.52311 0.0
C851 C 0.57854 0.93924 0.44963 0.0
O852 O 0.52883 0.92335 0.51383 0.0
O853 O 0.47918 0.9304 0.46762 0.0
C854 C 0.54872 0.93836 0.52775 0.0
O855 O 0.47487 0.97541 0.47717 0.0
O856 O 0.53399 0.03204 0.46951 0.0
O857 O 0.57631 0.02617 0.46544 0.0
H858 H 0.20469 0.22648 0.31904 0.0
H859 H 0.17324 0.19434 0.34831 0.0
H860 H 0.17105 0.11879 0.29452 0.0
H861 H 0.20466 0.15111 0.26619 0.0
H862 H 0.12242 0.15915 0.3472 0.0
H863 H 0.18977 0.09184 0.35324 0.0
H864 H 0.20199 0.12437 0.33742 0.0
H865 H 0.18014 0.09013 0.32214 0.0
C866 C 0.19787 0.20297 0.31379 0.0
C867 C 0.20747 0.19106 0.29084 0.0
C868 C 0.17966 0.1846 0.33035 0.0
C869 C 0.17012 0.15398 0.32393 0.0
C870 C 0.17883 0.14219 0.30035 0.0
H871 H 0.03861 0.04243 0.42306 0.0
H872 H 0.06134 0.06957 0.38727 0.0
C873 C 0.1978 0.1606 0.28409 0.0
C874 C 0.15132 0.13476 0.34217 0.0
H875 H 0.14537 0.07799 0.37498 0.0
C876 C 0.12741 0.14134 0.35322 0.0
C877 C 0.15784 0.11154 0.35015 0.0
C878 C 0.18396 0.1042 0.34031 0.0
C879 C 0.11045 0.12607 0.3725 0.0
C880 C 0.11704 0.10295 0.38041 0.0
C881 C 0.14029 0.09565 0.36876 0.0
C882 C 0.10209 0.08795 0.4024 0.0
C883 C 0.08647 0.13572 0.38507 0.0
C884 C 0.11734 0.08939 0.42275 0.0
C885 C 0.10459 0.07384 0.44292 0.0
C886 C 0.07617 0.0564 0.44333 0.0
C887 C 0.06051 0.05573 0.42334 0.0
C888 C 0.07345 0.07127 0.40292 0.0
H889 H 0.08766 0.15749 0.38017 0.0
H890 H 0.06641 0.11941 0.37903 0.0
H891 H 0.0862 0.13698 0.40572 0.0
H892 H 0.13939 0.10225 0.42285 0.0
H893 H 0.11729 0.07512 0.45805 0.0
H894 H 0.80829 0.10967 0.34675 0.0
H895 H 0.84336 0.10431 0.37125 0.0
H896 H 0.90927 0.15842 0.3247 0.0
H897 H 0.8741 0.16393 0.29996 0.0
H898 H 0.89366 0.08399 0.33365 0.0
H899 H 0.92169 0.17628 0.4104 0.0
H900 H 0.88626 0.16201 0.40079 0.0
H901 H 0.91405 0.18151 0.38 0.0
C902 C 0.83024 0.12105 0.34211 0.0
C903 C 0.8385 0.13692 0.32127 0.0
C904 C 0.85021 0.11808 0.35619 0.0
C905 C 0.87883 0.13098 0.34976 0.0
C906 C 0.88723 0.14853 0.33004 0.0
H907 H 1.00252 0.10005 0.43362 0.0
H908 H 0.98341 0.1216 0.4047 0.0
C909 C 0.86716 0.15169 0.31598 0.0
C910 C 0.89929 0.12191 0.36102 0.0
H911 H 0.93782 0.13643 0.41175 0.0
C912 C 0.90372 0.09565 0.35052 0.0
C913 C 0.9125 0.13736 0.3828 0.0
C914 C 0.90861 0.16595 0.3943 0.0
C915 C 0.92027 0.08376 0.36172 0.0
C916 C 0.93214 0.09814 0.38452 0.0
C917 C 0.92874 0.12526 0.39437 0.0
C918 C 0.9457 0.08411 0.39958 0.0
C919 C 0.92457 0.05574 0.34894 0.0
C920 C 0.93123 0.05571 0.40602 0.0
C921 C 0.94239 0.04312 0.4219 0.0
C922 C 0.96796 0.05896 0.43256 0.0
C923 C 0.98287 0.08717 0.42566 0.0
C924 C 0.97186 0.09959 0.40927 0.0
H925 H 0.92418 0.05432 0.32832 0.0
H926 H 0.94472 0.05402 0.3532 0.0
H927 H 0.90717 0.03665 0.35529 0.0
H928 H 0.91062 0.04361 0.39964 0.0
H929 H 0.92997 0.02156 0.427 0.0
H930 H 0.79268 0.83652 0.29726 0.0
H931 H 0.81784 0.86492 0.33349 0.0
H932 H 0.86596 0.80616 0.32736 0.0
H933 H 0.84081 0.77741 0.29109 0.0
H934 H 0.8227 0.83596 0.38027 0.0
H935 H 0.92176 0.89682 0.32871 0.0
H936 H 0.88856 0.88284 0.31461 0.0
H937 H 0.90636 0.85807 0.31909 0.0
C938 C 0.80884 0.82981 0.30343 0.0
C939 C 0.81489 0.8048 0.29136 0.0
C940 C 0.823 0.84594 0.32419 0.0
C941 C 0.84363 0.83752 0.3329 0.0
C942 C 0.85008 0.8129 0.32071 0.0
H943 H 0.93645 0.8789 0.46181 0.0
H944 H 0.90085 0.85623 0.43167 0.0
C945 C 0.83577 0.79659 0.30006 0.0
C946 C 0.85826 0.85427 0.35501 0.0
H947 H 0.92125 0.90189 0.37273 0.0
C948 C 0.84418 0.85057 0.37874 0.0
C949 C 0.88611 0.87335 0.35269 0.0
C950 C 0.9017 0.87829 0.32744 0.0
C951 C 0.85769 0.86505 0.40047 0.0
C952 C 0.88584 0.88349 0.39818 0.0
C953 C 0.8996 0.88775 0.37436 0.0
C954 C 0.90227 0.89738 0.42008 0.0
C955 C 0.8419 0.8605 0.42566 0.0
C956 C 0.91423 0.92802 0.42394 0.0
C957 C 0.93465 0.94104 0.44105 0.0
C958 C 0.94366 0.92357 0.45437 0.0
C959 C 0.93011 0.89298 0.45176 0.0
C960 C 0.90961 0.87998 0.43467 0.0
H961 H 0.81889 0.85146 0.42405 0.0
H962 H 0.84824 0.8447 0.43438 0.0
H963 H 0.8469 0.88147 0.43829 0.0
H964 H 0.90887 0.94176 0.41272 0.0
H965 H 0.94466 0.96461 0.44249 0.0
H966 H 0.1311 0.82727 0.36004 0.0
H967 H 0.14407 0.86356 0.39642 0.0
H968 H 0.2316 0.87883 0.37414 0.0
H969 H 0.21875 0.84309 0.3372 0.0
H970 H 0.18282 0.88649 0.43702 0.0
H971 H 0.21307 0.94937 0.3542 0.0
H972 H 0.19456 0.91047 0.34959 0.0
H973 H 0.22999 0.92363 0.35866 0.0
C974 C 0.15307 0.83774 0.3633 0.0
C975 C 0.17389 0.8335 0.34536 0.0
C976 C 0.16052 0.85807 0.3843 0.0
C977 C 0.18883 0.87436 0.38742 0.0
C978 C 0.20969 0.86669 0.37172 0.0
H979 H 0.11629 0.99033 0.47373 0.0
H980 H 0.16365 0.99138 0.45771 0.0
C981 C 0.20224 0.84636 0.3506 0.0
C982 C 0.19486 0.90368 0.40161 0.0
H983 H 0.18799 0.96686 0.38826 0.0
C984 C 0.1857 0.90511 0.42698 0.0
C985 C 0.19909 0.92804 0.38839 0.0
C986 C 0.2098 0.92806 0.36121 0.0
C987 C 0.17526 0.9275 0.438 0.0
C988 C 0.17421 0.94853 0.42301 0.0
C989 C 0.18873 0.95046 0.39947 0.0
C990 C 0.14952 0.95807 0.42662 0.0
C991 C 0.16072 0.92529 0.46391 0.0
C992 C 0.12647 0.94072 0.41307 0.0
C993 C 0.09963 0.93961 0.42235 0.0
C994 C 0.09574 0.95614 0.44503 0.0
C995 C 0.11896 0.97691 0.45643 0.0
C996 C 0.14596 0.97777 0.44726 0.0
H997 H 0.16573 0.90949 0.47383 0.0
H998 H 0.16698 0.94714 0.47522 0.0
H999 H 0.13768 0.91786 0.46262 0.0
H1000 H 0.12892 0.92542 0.39697 0.0
H1001 H 0.08193 0.92405 0.41293 0.0
H1002 H 0.17316 0.87195 0.70654 0.0
H1003 H 0.1388 0.88189 0.68411 0.0
H1004 H 0.17986 0.85928 0.6137 0.0
H1005 H 0.21415 0.84938 0.6359 0.0
H1006 H 0.17327 0.91248 0.61649 0.0
H1007 H 0.07261 0.82969 0.64429 0.0
H1008 H 0.09214 0.85114 0.67015 0.0
H1009 H 0.10618 0.82687 0.64873 0.0
C1010 C 0.17451 0.86853 0.68628 0.0
C1011 C 0.19657 0.86017 0.673 0.0
C1012 C 0.1548 0.87414 0.67348 0.0
C1013 C 0.15664 0.87116 0.6472 0.0
C1014 C 0.17804 0.86178 0.63397 0.0
H1015 H 0.04568 0.88509 0.54294 0.0
H1016 H 0.06872 0.86721 0.57121 0.0
C1017 C 0.19773 0.85628 0.6467 0.0
C1018 C 0.13807 0.88037 0.63336 0.0
H1019 H 0.06982 0.86766 0.62259 0.0
C1020 C 0.15065 0.90263 0.61782 0.0
C1021 C 0.10858 0.86726 0.63485 0.0
C1022 C 0.09402 0.84222 0.65021 0.0
C1023 C 0.13466 0.91231 0.60386 0.0
C1024 C 0.10509 0.89999 0.60601 0.0
C1025 C 0.09244 0.87742 0.62128 0.0
C1026 C 0.08729 0.90987 0.59182 0.0
C1027 C 0.14974 0.93519 0.58647 0.0
C1028 C 0.08886 0.9395 0.59485 0.0
C1029 C 0.07592 0.94985 0.57862 0.0
C1030 C 0.06075 0.93067 0.55922 0.0
C1031 C 0.05717 0.9005 0.55764 0.0
C1032 C 0.0704 0.89022 0.57376 0.0
H1033 H 0.17193 0.93636 0.58195 0.0
H1034 H 0.13929 0.93051 0.5687 0.0
H1035 H 0.14963 0.95709 0.59564 0.0
H1036 H 0.10119 0.95491 0.60909 0.0
H1037 H 0.07889 0.97315 0.58057 0.0
H1038 H 0.2264 0.15945 0.70392 0.0
H1039 H 0.1997 0.12955 0.66887 0.0
H1040 H 0.16125 0.19553 0.66698 0.0
H1041 H 0.18747 0.22539 0.70225 0.0
H1042 H 0.13404 0.11225 0.66668 0.0
H1043 H 0.20178 0.17884 0.59383 0.0
H1044 H 0.2151 0.17502 0.62218 0.0
H1045 H 0.19355 0.19772 0.62337 0.0
C1046 C 0.21208 0.16748 0.69618 0.0
C1047 C 0.20911 0.19483 0.70572 0.0
C1048 C 0.19694 0.15042 0.67616 0.0
C1049 C 0.17878 0.16054 0.66534 0.0
C1050 C 0.17539 0.18755 0.67506 0.0
H1051 H 0.07251 0.11272 0.54531 0.0
H1052 H 0.10633 0.13643 0.57663 0.0
C1053 C 0.19036 0.20454 0.69517 0.0
C1054 C 0.16336 0.14301 0.64374 0.0
H1055 H 0.16053 0.1416 0.58097 0.0
C1056 C 0.13987 0.11838 0.64787 0.0
C1057 C 0.17119 0.15126 0.61937 0.0
C1058 C 0.19684 0.17709 0.61417 0.0
C1059 C 0.12325 0.10231 0.62824 0.0
C1060 C 0.13084 0.11081 0.60381 0.0
C1061 C 0.15481 0.13507 0.59967 0.0
C1062 C 0.11286 0.0964 0.58278 0.0
C1063 C 0.09705 0.07726 0.6341 0.0
C1064 C 0.10613 0.06614 0.57508 0.0
C1065 C 0.08648 0.05237 0.55728 0.0
C1066 C 0.07353 0.06872 0.54665 0.0
C1067 C 0.08182 0.09935 0.55323 0.0
C1068 C 0.10124 0.113 0.57113 0.0
H1069 H 0.09091 0.07797 0.65448 0.0
H1070 H 0.07927 0.07766 0.62422 0.0
H1071 H 0.10081 0.0561 0.62776 0.0
H1072 H 0.1154 0.05303 0.58339 0.0
H1073 H 0.08065 0.02879 0.55269 0.0
H1074 H 0.83873 0.22144 0.61692 0.0
H1075 H 0.83013 0.17541 0.58925 0.0
H1076 H 0.80379 0.12656 0.65292 0.0
H1077 H 0.81258 0.17115 0.68036 0.0
H1078 H 0.87097 0.15989 0.60933 0.0
H1079 H 0.77572 0.06188 0.5958 0.0
H1080 H 0.7742 0.09889 0.60209 0.0
H1081 H 0.77897 0.08076 0.62696 0.0
C1082 C 0.82991 0.20086 0.62493 0.0
C1083 C 0.82773 0.20028 0.6509 0.0
C1084 C 0.82428 0.17454 0.60907 0.0
C1085 C 0.81716 0.14779 0.61923 0.0
C1086 C 0.80932 0.14693 0.64469 0.0
H1087 H 0.93591 0.05584 0.57708 0.0
H1088 H 0.90145 0.07239 0.60507 0.0
C1089 C 0.81493 0.173 0.66051 0.0
C1090 C 0.83039 0.1263 0.60733 0.0
H1091 H 0.81994 0.05374 0.58859 0.0
C1092 C 0.85972 0.13677 0.60427 0.0
C1093 C 0.81572 0.096 0.60244 0.0
C1094 C 0.78437 0.08367 0.60686 0.0
C1095 C 0.87486 0.11809 0.59503 0.0
C1096 C 0.86015 0.08786 0.58924 0.0
C1097 C 0.8309 0.077 0.5932 0.0
C1098 C 0.87473 0.06855 0.57552 0.0
C1099 C 0.90635 0.13128 0.59079 0.0
C1100 C 0.86954 0.05878 0.55034 0.0
C1101 C 0.88873 0.04877 0.53459 0.0
C1102 C 0.91329 0.04915 0.54399 0.0
C1103 C 0.91724 0.05632 0.5696 0.0
C1104 C 0.89758 0.06538 0.58551 0.0
H1105 H 0.91345 0.15566 0.59222 0.0
H1106 H 0.91657 0.12522 0.60517 0.0
H1107 H 0.91377 0.12289 0.57206 0.0
H1108 H 0.85191 0.06115 0.54246 0.0
H1109 H 0.88539 0.04275 0.51485 0.0
H1110 H 0.79308 0.83533 0.70539 0.0
H1111 H 0.82599 0.86445 0.67492 0.0
H1112 H 0.88484 0.82034 0.68189 0.0
H1113 H 0.85164 0.79035 0.71163 0.0
H1114 H 0.87969 0.90265 0.67785 0.0
H1115 H 0.87693 0.80683 0.60709 0.0
H1116 H 0.85223 0.80437 0.63405 0.0
H1117 H 0.88697 0.80422 0.63711 0.0
C1118 C 0.81302 0.8318 0.70042 0.0
C1119 C 0.81958 0.81026 0.71069 0.0
C1120 C 0.83184 0.84853 0.68307 0.0
C1121 C 0.85766 0.84419 0.67577 0.0
C1122 C 0.86477 0.82358 0.68679 0.0
H1123 H 0.98555 0.92957 0.56097 0.0
H1124 H 0.96368 0.90288 0.5973 0.0
C1125 C 0.84586 0.80665 0.70397 0.0
C1126 C 0.87683 0.86096 0.65633 0.0
H1127 H 0.90781 0.85309 0.59746 0.0
C1128 C 0.88599 0.8918 0.66036 0.0
C1129 C 0.88498 0.84677 0.63345 0.0
C1130 C 0.8746 0.81375 0.62748 0.0
C1131 C 0.90277 0.9088 0.64201 0.0
C1132 C 0.91052 0.89461 0.61905 0.0
C1133 C 0.90208 0.86384 0.61525 0.0
C1134 C 0.92447 0.91121 0.59773 0.0
C1135 C 0.91169 0.94186 0.64706 0.0
C1136 C 0.90952 0.92431 0.58593 0.0
C1137 C 0.92169 0.93909 0.56521 0.0
C1138 C 0.9492 0.94125 0.55579 0.0
C1139 C 0.96433 0.92826 0.56774 0.0
C1140 C 0.95191 0.91307 0.58846 0.0
H1141 H 0.91007 0.9494 0.66739 0.0
H1142 H 0.93357 0.95201 0.63947 0.0
H1143 H 0.8979 0.94986 0.63766 0.0
H1144 H 0.88824 0.92283 0.59264 0.0
H1145 H 0.90945 0.94902 0.55667 0.0
H1146 H 0.26477 0.16321 0.19955 0.0
H1147 H 0.28965 0.13471 0.17087 0.0
H1148 H 0.36502 0.20991 0.17361 0.0
H1149 H 0.34068 0.23784 0.20283 0.0
H1150 H 0.31521 0.13752 0.12602 0.0
H1151 H 0.39686 0.15236 0.19027 0.0
H1152 H 0.3665 0.16337 0.2001 0.0
H1153 H 0.39642 0.18707 0.18353 0.0
C1154 C 0.28666 0.17364 0.19405 0.0
C1155 C 0.30074 0.20278 0.20389 0.0
C1156 C 0.30096 0.15728 0.17761 0.0
C1157 C 0.3297 0.16961 0.1705 0.0
C1158 C 0.3433 0.19918 0.17945 0.0
H1159 H 0.4594 0.11948 0.0746 0.0
H1160 H 0.43031 0.14337 0.10245 0.0
C1161 C 0.3292 0.21532 0.19611 0.0
C1162 C 0.34552 0.15186 0.15382 0.0
H1163 H 0.4059 0.13421 0.14793 0.0
C1164 C 0.33491 0.13662 0.13098 0.0
C1165 C 0.37128 0.15025 0.16007 0.0
C1166 C 0.38326 0.16387 0.18494 0.0
C1167 C 0.34965 0.12099 0.11403 0.0
C1168 C 0.37577 0.12012 0.12002 0.0
C1169 C 0.3861 0.13492 0.14303 0.0
C1170 C 0.39322 0.10485 0.10259 0.0
C1171 C 0.33744 0.1064 0.08945 0.0
C1172 C 0.38255 0.07485 0.09336 0.0
C1173 C 0.39926 0.061 0.07716 0.0
C1174 C 0.4273 0.07664 0.06994 0.0
C1175 C 0.43802 0.10651 0.0796 0.0
C1176 C 0.4213 0.12033 0.09564 0.0
H1177 H 0.32171 0.11565 0.08477 0.0
H1178 H 0.35405 0.1088 0.07393 0.0
H1179 H 0.32676 0.08261 0.09076 0.0
H1180 H 0.3613 0.06197 0.09885 0.0
H1181 H 0.39017 0.03798 0.07033 0.0
H1182 H 0.78542 0.30062 0.1769 0.0
H1183 H 0.82029 0.33154 0.14857 0.0
H1184 H 0.88622 0.33339 0.19273 0.0
H1185 H 0.85158 0.30362 0.22155 0.0
H1186 H 0.86212 0.38924 0.16179 0.0
H1187 H 0.90919 0.30365 0.11957 0.0
H1188 H 0.87489 0.29469 0.13597 0.0
H1189 H 0.90563 0.30971 0.1532 0.0
C1190 C 0.80733 0.30763 0.18057 0.0
C1191 C 0.81582 0.29896 0.20109 0.0
C1192 C 0.8272 0.32523 0.16438 0.0
C1193 C 0.85583 0.33419 0.16833 0.0
C1194 C 0.86428 0.32613 0.18906 0.0
H1195 H 0.99208 0.45422 0.07912 0.0
H1196 H 0.96934 0.42224 0.11227 0.0
C1197 C 0.84445 0.30887 0.20538 0.0
C1198 C 0.87683 0.35235 0.15092 0.0
H1199 H 0.9288 0.35048 0.10533 0.0
C1200 C 0.8769 0.3809 0.14963 0.0
C1201 C 0.89616 0.34138 0.13525 0.0
C1202 C 0.89652 0.31063 0.13582 0.0
C1203 C 0.89544 0.3986 0.13262 0.0
C1204 C 0.91407 0.38731 0.11633 0.0
C1205 C 0.91464 0.35909 0.11808 0.0
C1206 C 0.92981 0.40307 0.09513 0.0
C1207 C 0.89444 0.429 0.13149 0.0
C1208 C 0.91532 0.402 0.07441 0.0
C1209 C 0.92799 0.42017 0.05588 0.0
C1210 C 0.95553 0.43963 0.05757 0.0
C1211 C 0.97085 0.43931 0.07743 0.0
C1212 C 0.95792 0.42117 0.0963 0.0
H1213 H 0.88235 0.43637 0.148 0.0
H1214 H 0.91597 0.44507 0.13037 0.0
H1215 H 0.88438 0.429 0.11438 0.0
H1216 H 0.89367 0.38807 0.07319 0.0
H1217 H 0.91583 0.41979 0.04061 0.0
H1218 H 0.68558 0.82019 0.14103 0.0
H1219 H 0.64886 0.82842 0.12017 0.0
H1220 H 0.67468 0.91889 0.1529 0.0
H1221 H 0.71137 0.9109 0.17357 0.0
H1222 H 0.6035 0.86125 0.14412 0.0
H1223 H 0.68446 0.91186 0.07083 0.0
H1224 H 0.68758 0.88416 0.08802 0.0
H1225 H 0.69351 0.92097 0.10289 0.0
C1226 C 0.68304 0.84166 0.14407 0.0
C1227 C 0.70144 0.86503 0.15866 0.0
C1228 C 0.6621 0.8463 0.13221 0.0
C1229 C 0.65919 0.87426 0.13502 0.0
C1230 C 0.6767 0.89719 0.1505 0.0
H1231 H 0.58811 0.97334 0.06328 0.0
H1232 H 0.61068 0.95419 0.09072 0.0
C1233 C 0.6977 0.89265 0.16215 0.0
C1234 C 0.63983 0.88057 0.12005 0.0
H1235 H 0.63986 0.91611 0.07038 0.0
C1236 C 0.61125 0.87298 0.12784 0.0
C1237 C 0.65014 0.89577 0.09885 0.0
C1238 C 0.68056 0.90361 0.08942 0.0
C1239 C 0.59284 0.88132 0.11538 0.0
C1240 C 0.6034 0.89736 0.0946 0.0
C1241 C 0.63184 0.90405 0.08646 0.0
C1242 C 0.58594 0.90866 0.08136 0.0
C1243 C 0.56255 0.87392 0.12504 0.0
C1244 C 0.5638 0.88949 0.06758 0.0
C1245 C 0.55063 0.90044 0.05188 0.0
C1246 C 0.55969 0.9307 0.0495 0.0
C1247 C 0.58071 0.94991 0.06451 0.0
C1248 C 0.59368 0.93899 0.08022 0.0
H1249 H 0.55897 0.86671 0.14402 0.0
H1250 H 0.55536 0.89316 0.12566 0.0
H1251 H 0.54951 0.8558 0.11219 0.0
H1252 H 0.55775 0.86596 0.06789 0.0
H1253 H 0.53463 0.88504 0.04047 0.0
H1254 H 0.26919 0.6855 0.16994 0.0
H1255 H 0.24746 0.65054 0.13469 0.0
H1256 H 0.16613 0.63823 0.17373 0.0
H1257 H 0.188 0.67092 0.20955 0.0
H1258 H 0.16793 0.5878 0.14871 0.0
H1259 H 0.21035 0.67573 0.08569 0.0
H1260 H 0.23599 0.66584 0.09912 0.0
H1261 H 0.21381 0.68319 0.11892 0.0
C1262 C 0.24683 0.67455 0.17121 0.0
C1263 C 0.23041 0.68097 0.19245 0.0
C1264 C 0.23432 0.65497 0.15091 0.0
C1265 C 0.20503 0.64221 0.15124 0.0
C1266 C 0.18874 0.64778 0.17291 0.0
H1267 H 0.08191 0.60802 0.05495 0.0
H1268 H 0.12099 0.62458 0.08127 0.0
C1269 C 0.20128 0.66674 0.19333 0.0
C1270 C 0.1907 0.62484 0.12874 0.0
H1271 H 0.17766 0.63188 0.06996 0.0
C1272 C 0.17041 0.59716 0.13129 0.0
C1273 C 0.1939 0.63711 0.10599 0.0
C1274 C 0.21451 0.66716 0.1022 0.0
C1275 C 0.15204 0.58242 0.11247 0.0
C1276 C 0.15444 0.59541 0.09028 0.0
C1277 C 0.176 0.62197 0.08698 0.0
C1278 C 0.13202 0.5849 0.0725 0.0
C1279 C 0.12883 0.55427 0.11728 0.0
C1280 C 0.12543 0.55713 0.05831 0.0
C1281 C 0.10268 0.54734 0.04314 0.0
C1282 C 0.08636 0.56529 0.04182 0.0
C1283 C 0.09393 0.59353 0.0553 0.0
C1284 C 0.11636 0.60311 0.07047 0.0
H1285 H 0.12843 0.54849 0.13643 0.0
H1286 H 0.10823 0.55625 0.11474 0.0
H1287 H 0.13163 0.53594 0.10362 0.0
H1288 H 0.13755 0.54289 0.05928 0.0
H1289 H 0.0975 0.52551 0.03301 0.0
H1290 H 0.30745 0.85008 0.78979 0.0
H1291 H 0.33494 0.88399 0.82267 0.0
H1292 H 0.34847 0.81141 0.84998 0.0
H1293 H 0.32117 0.77743 0.81748 0.0
H1294 H 0.3216 0.87987 0.87537 0.0
H1295 H 0.42718 0.87353 0.84438 0.0
H1296 H 0.39921 0.86276 0.82355 0.0
H1297 H 0.40079 0.838 0.84448 0.0
C1298 C 0.31643 0.84136 0.80271 0.0
C1299 C 0.31187 0.81102 0.80122 0.0
C1300 C 0.33213 0.86077 0.82139 0.0
C1301 C 0.34379 0.85011 0.83849 0.0
C1302 C 0.33991 0.82002 0.83665 0.0
H1303 H 0.42688 0.88869 0.96911 0.0
H1304 H 0.39283 0.86859 0.9374 0.0
C1305 C 0.32417 0.80063 0.81812 0.0
C1306 C 0.35854 0.86981 0.85944 0.0
H1307 H 0.41948 0.88955 0.88792 0.0
C1308 C 0.34317 0.88257 0.878 0.0
C1309 C 0.38668 0.87331 0.86255 0.0
C1310 C 0.40453 0.86142 0.84255 0.0
C1311 C 0.3548 0.89716 0.9005 0.0
C1312 C 0.38227 0.89884 0.90421 0.0
C1313 C 0.39814 0.88762 0.88505 0.0
C1314 C 0.39507 0.91104 0.92809 0.0
C1315 C 0.33744 0.90945 0.92061 0.0
C1316 C 0.40604 0.94152 0.93426 0.0
C1317 C 0.42538 0.95309 0.95251 0.0
C1318 C 0.43419 0.93418 0.96431 0.0
C1319 C 0.42068 0.90372 0.96007 0.0
C1320 C 0.40124 0.89222 0.942 0.0
H1321 H 0.31569 0.90451 0.91541 0.0
H1322 H 0.33674 0.90029 0.93835 0.0
H1323 H 0.34732 0.93366 0.9241 0.0
H1324 H 0.40161 0.95629 0.9235 0.0
H1325 H 0.43549 0.97667 0.95537 0.0
H1326 H 0.20058 0.31128 0.76524 0.0
H1327 H 0.17585 0.34044 0.79298 0.0
H1328 H 0.2045 0.31879 0.85704 0.0
H1329 H 0.23087 0.29184 0.82922 0.0
H1330 H 0.13392 0.32582 0.82793 0.0
H1331 H 0.22502 0.40525 0.87495 0.0
H1332 H 0.22896 0.38058 0.84755 0.0
H1333 H 0.22116 0.36793 0.87802 0.0
C1334 C 0.20206 0.31318 0.78521 0.0
C1335 C 0.21781 0.29894 0.79495 0.0
C1336 C 0.18764 0.3297 0.80114 0.0
C1337 C 0.18854 0.33247 0.8273 0.0
C1338 C 0.20386 0.31783 0.83702 0.0
H1339 H 0.11478 0.41696 0.95755 0.0
H1340 H 0.14114 0.39083 0.92807 0.0
C1341 C 0.21853 0.30168 0.82106 0.0
C1342 C 0.1729 0.34991 0.84434 0.0
H1343 H 0.18011 0.40487 0.8931 0.0
C1344 C 0.1441 0.34325 0.84206 0.0
C1345 C 0.18597 0.3727 0.86296 0.0
C1346 C 0.21702 0.38226 0.86589 0.0
C1347 C 0.12794 0.35791 0.85816 0.0
C1348 C 0.14096 0.38067 0.87689 0.0
C1349 C 0.16986 0.38749 0.87897 0.0
C1350 C 0.12512 0.39729 0.89479 0.0
C1351 C 0.09683 0.34791 0.85536 0.0
C1352 C 0.10761 0.41042 0.88625 0.0
C1353 C 0.09208 0.42484 0.90322 0.0
C1354 C 0.09445 0.42748 0.92911 0.0
C1355 C 0.11274 0.41548 0.93768 0.0
C1356 C 0.12778 0.40047 0.92076 0.0
H1357 H 0.08909 0.32496 0.84615 0.0
H1358 H 0.08492 0.34917 0.87376 0.0
H1359 H 0.09233 0.36217 0.84339 0.0
H1360 H 0.10582 0.4095 0.86642 0.0
H1361 H 0.07819 0.43396 0.8961 0.0
H1362 H 0.72444 0.17013 0.79841 0.0
H1363 H 0.68982 0.14299 0.82885 0.0
H1364 H 0.6521 0.2113 0.84126 0.0
H1365 H 0.68717 0.239 0.81121 0.0
H1366 H 0.67779 0.16441 0.88158 0.0
H1367 H 0.58637 0.13218 0.82338 0.0
H1368 H 0.62203 0.14314 0.80988 0.0
H1369 H 0.60805 0.17024 0.82676 0.0
C1370 C 0.70894 0.17955 0.80764 0.0
C1371 C 0.70859 0.20678 0.80216 0.0
C1372 C 0.68907 0.16392 0.82503 0.0
C1373 C 0.66814 0.17492 0.83711 0.0
C1374 C 0.6678 0.20218 0.83191 0.0
H1375 H 0.54347 0.08821 0.95488 0.0
H1376 H 0.56815 0.1249 0.92581 0.0
C1377 C 0.68789 0.218 0.81471 0.0
C1378 C 0.647 0.15781 0.8553 0.0
H1379 H 0.57849 0.11428 0.86266 0.0
C1380 C 0.65601 0.1538 0.8776 0.0
C1381 C 0.61855 0.14401 0.8501 0.0
C1382 C 0.60799 0.14735 0.82621 0.0
C1383 C 0.63751 0.13579 0.89453 0.0
C1384 C 0.60934 0.12107 0.8889 0.0
C1385 C 0.60003 0.12578 0.86701 0.0
C1386 C 0.59072 0.09795 0.90405 0.0
C1387 C 0.64834 0.13177 0.91804 0.0
C1388 C 0.59448 0.07043 0.90082 0.0
C1389 C 0.58057 0.04971 0.91723 0.0
C1390 C 0.56239 0.05589 0.93722 0.0
C1391 C 0.55708 0.08272 0.93949 0.0
C1392 C 0.57129 0.10371 0.92301 0.0
H1393 H 0.6692 0.14822 0.92174 0.0
H1394 H 0.63343 0.13351 0.9344 0.0
H1395 H 0.65022 0.10949 0.91613 0.0
H1396 H 0.60927 0.0655 0.88627 0.0
H1397 H 0.58503 0.02921 0.91492 0.0
H1398 H 0.87497 0.64183 0.79641 0.0
H1399 H 0.89096 0.61714 0.82479 0.0
H1400 H 0.89533 0.68915 0.88283 0.0
H1401 H 0.87931 0.71402 0.85449 0.0
H1402 H 0.9419 0.63935 0.84549 0.0
H1403 H 0.85524 0.61737 0.91991 0.0
H1404 H 0.85153 0.6271 0.88991 0.0
H1405 H 0.86906 0.65504 0.9137 0.0
C1406 C 0.87916 0.65232 0.81528 0.0
C1407 C 0.8761 0.67998 0.82315 0.0
C1408 C 0.88818 0.63814 0.8315 0.0
C1409 C 0.8942 0.65121 0.85596 0.0
C1410 C 0.89033 0.6784 0.86418 0.0
H1411 H 0.99867 0.61543 0.95511 0.0
H1412 H 0.98021 0.6373 0.92604 0.0
C1413 C 0.88121 0.69261 0.84795 0.0
C1414 C 0.90657 0.63741 0.87209 0.0
H1415 H 0.89701 0.60963 0.92799 0.0
C1416 C 0.93204 0.63279 0.86351 0.0
C1417 C 0.89359 0.6287 0.89551 0.0
C1418 C 0.86572 0.63202 0.90526 0.0
C1419 C 0.94503 0.62 0.87783 0.0
C1420 C 0.93237 0.61189 0.90142 0.0
C1421 C 0.90677 0.61617 0.90994 0.0
C1422 C 0.945 0.59817 0.91731 0.0
C1423 C 0.97195 0.61474 0.86751 0.0
C1424 C 0.93155 0.56885 0.92161 0.0
C1425 C 0.94209 0.55626 0.93799 0.0
C1426 C 0.96617 0.57287 0.95067 0.0
C1427 C 0.98021 0.60198 0.94559 0.0
C1428 C 0.96965 0.61454 0.92905 0.0
H1429 H 0.97668 0.61797 0.84739 0.0
H1430 H 0.9895 0.63027 0.8781 0.0
H1431 H 0.97084 0.59207 0.86977 0.0
H1432 H 0.91256 0.55586 0.91262 0.0
H1433 H 0.93074 0.53374 0.94133 0.0
H1434 H 0.16763 0.29578 0.1353 0.0
H1435 H 0.15866 0.32873 0.10941 0.0
H1436 H 0.10204 0.35027 0.16863 0.0
H1437 H 0.11128 0.31801 0.19443 0.0
H1438 H 0.10809 0.32094 0.09281 0.0
H1439 H 0.14456 0.43031 0.14734 0.0
H1440 H 0.15474 0.39992 0.15322 0.0
H1441 H 0.12173 0.40348 0.16641 0.0
C1442 C 0.15398 0.30831 0.14299 0.0
C1443 C 0.14011 0.30434 0.16684 0.0
C1444 C 0.1487 0.32694 0.12816 0.0
C1445 C 0.12978 0.34219 0.1371 0.0
C1446 C 0.1171 0.33928 0.16142 0.0
H1447 H 0.02371 0.38993 0.04777 0.0
H1448 H 0.04295 0.36699 0.07533 0.0
C1449 C 0.12226 0.32067 0.17612 0.0
C1450 C 0.12088 0.35866 0.12042 0.0
H1451 H 0.11008 0.42372 0.11803 0.0
C1452 C 0.10886 0.34355 0.09816 0.0
C1453 C 0.12218 0.38829 0.12714 0.0
C1454 C 0.13679 0.40653 0.14969 0.0
C1455 C 0.0972 0.35683 0.08297 0.0
C1456 C 0.09669 0.38578 0.09063 0.0
C1457 C 0.10975 0.40129 0.11238 0.0
C1458 C 0.08373 0.40075 0.07582 0.0
C1459 C 0.08598 0.33974 0.05868 0.0
C1460 C 0.09947 0.42827 0.0682 0.0
C1461 C 0.08827 0.44177 0.05308 0.0
C1462 C 0.06104 0.428 0.04492 0.0
C1463 C 0.04479 0.40103 0.05346 0.0
C1464 C 0.05593 0.38772 0.06899 0.0
H1465 H 0.09561 0.32239 0.05199 0.0
H1466 H 0.06306 0.32875 0.06162 0.0
H1467 H 0.08989 0.35438 0.04382 0.0
H1468 H 0.12084 0.43898 0.07331 0.0
H1469 H 0.10151 0.46257 0.04698 0.0
H1470 H 0.19921 0.66416 0.77326 0.0
H1471 H 0.16418 0.63444 0.80215 0.0
H1472 H 0.18027 0.70914 0.85887 0.0
H1473 H 0.21572 0.73882 0.83019 0.0
H1474 H 0.17445 0.62367 0.84983 0.0
H1475 H 0.09373 0.67864 0.85791 0.0
H1476 H 0.11921 0.68048 0.83152 0.0
H1477 H 0.1294 0.70223 0.86079 0.0
C1478 C 0.19524 0.67426 0.79188 0.0
C1479 C 0.20989 0.70394 0.79939 0.0
C1480 C 0.17514 0.6573 0.8083 0.0
C1481 C 0.16926 0.66972 0.83249 0.0
C1482 C 0.18398 0.69931 0.84009 0.0
H1483 H 0.07019 0.59859 0.96401 0.0
H1484 H 0.09588 0.63111 0.93228 0.0
C1485 C 0.20419 0.71625 0.82369 0.0
C1486 C 0.14901 0.65113 0.85023 0.0
H1487 H 0.08659 0.64215 0.88468 0.0
C1488 C 0.15517 0.6276 0.85736 0.0
C1489 C 0.12398 0.65644 0.8601 0.0
C1490 C 0.11592 0.68069 0.85215 0.0
C1491 C 0.1372 0.60948 0.87442 0.0
C1492 C 0.11199 0.61458 0.88418 0.0
C1493 C 0.10584 0.6382 0.87711 0.0
C1494 C 0.09221 0.59578 0.9021 0.0
C1495 C 0.14579 0.58548 0.88233 0.0
C1496 C 0.08042 0.56539 0.89535 0.0
C1497 C 0.066 0.54693 0.91342 0.0
C1498 C 0.06251 0.55866 0.93834 0.0
C1499 C 0.07229 0.58922 0.94475 0.0
C1500 C 0.08705 0.60771 0.9267 0.0
H1501 H 0.16861 0.58941 0.8784 0.0
H1502 H 0.14045 0.5836 0.9026 0.0
H1503 H 0.1345 0.56417 0.87175 0.0
H1504 H 0.08366 0.55579 0.87637 0.0
H1505 H 0.05885 0.52336 0.9082 0.0
H1506 H 0.3128 0.13943 0.85123 0.0
H1507 H 0.33937 0.12704 0.88045 0.0
H1508 H 0.41075 0.14254 0.82677 0.0
H1509 H 0.38445 0.15497 0.7975 0.0
H1510 H 0.37007 0.07813 0.85891 0.0
H1511 H 0.43521 0.18731 0.90286 0.0
H1512 H 0.40074 0.18155 0.89313 0.0
H1513 H 0.42909 0.18221 0.87008 0.0
C1514 C 0.33434 0.14078 0.84586 0.0
C1515 C 0.34649 0.148 0.822 0.0
C1516 C 0.34943 0.13362 0.86253 0.0
C1517 C 0.37702 0.13403 0.85575 0.0
C1518 C 0.38954 0.14229 0.83237 0.0
H1519 H 0.49613 0.09585 0.93946 0.0
H1520 H 0.47535 0.1142 0.90928 0.0
C1521 C 0.37443 0.14919 0.81564 0.0
C1522 C 0.39186 0.12318 0.87203 0.0
H1523 H 0.4412 0.14542 0.91497 0.0
C1524 C 0.38562 0.09277 0.87121 0.0
C1525 C 0.41247 0.14242 0.88757 0.0
C1526 C 0.41993 0.17526 0.88868 0.0
C1527 C 0.39943 0.08096 0.88563 0.0
C1528 C 0.4194 0.10014 0.90203 0.0
C1529 C 0.42593 0.13068 0.90249 0.0
C1530 C 0.43249 0.08884 0.91975 0.0
C1531 C 0.39276 0.04803 0.88261 0.0
C1532 C 0.41545 0.06887 0.93588 0.0
C1533 C 0.42724 0.05787 0.95246 0.0
C1534 C 0.45643 0.06728 0.95406 0.0
C1535 C 0.47362 0.08796 0.93847 0.0
C1536 C 0.46173 0.09852 0.92132 0.0
H1537 H 0.38572 0.03808 0.86369 0.0
H1538 H 0.41115 0.04188 0.8856 0.0
H1539 H 0.37538 0.03835 0.8964 0.0
H1540 H 0.39286 0.06198 0.93592 0.0
H1541 H 0.41326 0.04257 0.96464 0.0
H1542 H 0.77853 0.34734 0.80249 0.0
H1543 H 0.80332 0.38331 0.83591 0.0
H1544 H 0.8152 0.31369 0.86916 0.0
H1545 H 0.79046 0.2778 0.83613 0.0
H1546 H 0.79863 0.37016 0.90216 0.0
H1547 H 0.89426 0.38906 0.83647 0.0
H1548 H 0.86048 0.38392 0.82564 0.0
H1549 H 0.86757 0.35335 0.83469 0.0
C1550 C 0.78618 0.33962 0.817 0.0
C1551 C 0.78398 0.30986 0.81582 0.0
C1552 C 0.8002 0.36022 0.83617 0.0
C1553 C 0.81153 0.35115 0.85467 0.0
C1554 C 0.80691 0.32116 0.85486 0.0
H1555 H 0.93042 0.39068 0.95808 0.0
H1556 H 0.89107 0.37249 0.93149 0.0
C1557 C 0.79311 0.30072 0.83575 0.0
C1558 C 0.83083 0.37262 0.87228 0.0
H1559 H 0.90077 0.40642 0.87902 0.0
C1560 C 0.82089 0.37878 0.89702 0.0
C1561 C 0.85984 0.38364 0.86548 0.0
C1562 C 0.87141 0.37734 0.83914 0.0
C1563 C 0.83952 0.39459 0.91543 0.0
C1564 C 0.86861 0.40405 0.9089 0.0
C1565 C 0.87839 0.39919 0.8839 0.0
C1566 C 0.88943 0.4155 0.92806 0.0
C1567 C 0.82831 0.39992 0.94202 0.0
C1568 C 0.90101 0.44574 0.93547 0.0
C1569 C 0.92354 0.45631 0.95087 0.0
C1570 C 0.935 0.43676 0.95878 0.0
C1571 C 0.92226 0.40639 0.95229 0.0
C1572 C 0.89974 0.39591 0.93708 0.0
H1573 H 0.80511 0.39358 0.94374 0.0
H1574 H 0.83476 0.38701 0.95397 0.0
H1575 H 0.8374 0.4235 0.94922 0.0
H1576 H 0.89337 0.46119 0.92856 0.0
H1577 H 0.93293 0.47982 0.95536 0.0
H1578 H 0.72806 0.83583 0.76946 0.0
H1579 H 0.70176 0.8636 0.79739 0.0
H1580 H 0.68808 0.80401 0.85258 0.0
H1581 H 0.71365 0.77617 0.82476 0.0
H1582 H 0.64764 0.84792 0.81808 0.0
H1583 H 0.71925 0.8822 0.89468 0.0
H1584 H 0.72881 0.86707 0.86386 0.0
H1585 H 0.70722 0.84318 0.88597 0.0
C1586 C 0.71947 0.82868 0.78756 0.0
C1587 C 0.72374 0.80413 0.79504 0.0
C1588 C 0.70445 0.84464 0.80359 0.0
C1589 C 0.69345 0.83656 0.82757 0.0
C1590 C 0.69704 0.81151 0.83467 0.0
H1591 H 0.56008 0.88303 0.92221 0.0
H1592 H 0.58874 0.86013 0.8928 0.0
C1593 C 0.71184 0.79556 0.81866 0.0
C1594 C 0.67759 0.8536 0.84492 0.0
H1595 H 0.67476 0.88901 0.90433 0.0
C1596 C 0.65373 0.85705 0.83687 0.0
C1597 C 0.68551 0.86599 0.86946 0.0
C1598 C 0.71174 0.86472 0.87897 0.0
C1599 C 0.6373 0.87168 0.85271 0.0
C1600 C 0.6445 0.88296 0.87764 0.0
C1601 C 0.66885 0.88023 0.88543 0.0
C1602 C 0.62694 0.89728 0.89593 0.0
C1603 C 0.61255 0.87522 0.84232 0.0
C1604 C 0.63871 0.92568 0.90847 0.0
C1605 C 0.62226 0.93892 0.92567 0.0
C1606 C 0.59353 0.92406 0.93099 0.0
C1607 C 0.58195 0.89549 0.91858 0.0
C1608 C 0.59838 0.88231 0.90149 0.0
H1609 H 0.61494 0.87392 0.82157 0.0
H1610 H 0.59332 0.85723 0.84748 0.0
H1611 H 0.60966 0.89654 0.84997 0.0
H1612 H 0.66069 0.93778 0.90482 0.0
H1613 H 0.63213 0.96081 0.93482 0.0
H1614 H 0.78096 0.66221 0.2133 0.0
H1615 H 0.80752 0.63609 0.18469 0.0
H1616 H 0.85536 0.71668 0.15413 0.0
H1617 H 0.82967 0.74331 0.18373 0.0
H1618 H 0.81295 0.62725 0.13404 0.0
H1619 H 0.91748 0.68893 0.16905 0.0
H1620 H 0.88556 0.69187 0.18574 0.0
H1621 H 0.90028 0.71163 0.15915 0.0
C1622 C 0.79742 0.67461 0.20084 0.0
C1623 C 0.80327 0.70512 0.20121 0.0
C1624 C 0.81249 0.65948 0.18421 0.0
C1625 C 0.83394 0.67431 0.16739 0.0
C1626 C 0.83943 0.70467 0.16725 0.0
H1627 H 0.95427 0.62248 0.05895 0.0
H1628 H 0.92621 0.64765 0.08661 0.0
C1629 C 0.82439 0.71989 0.18401 0.0
C1630 C 0.85013 0.65778 0.14996 0.0
H1631 H 0.91613 0.65488 0.13295 0.0
C1632 C 0.83553 0.63329 0.13382 0.0
C1633 C 0.87963 0.66546 0.14954 0.0
C1634 C 0.89669 0.69073 0.16693 0.0
C1635 C 0.84949 0.61687 0.11694 0.0
C1636 C 0.87906 0.62441 0.11658 0.0
C1637 C 0.89358 0.64884 0.13293 0.0
C1638 C 0.8956 0.60813 0.09903 0.0
C1639 C 0.83225 0.59228 0.09912 0.0
C1640 C 0.88821 0.5772 0.09642 0.0
C1641 C 0.904 0.56255 0.07987 0.0
C1642 C 0.92821 0.5785 0.06617 0.0
C1643 C 0.93587 0.60938 0.06923 0.0
C1644 C 0.91975 0.6239 0.08519 0.0
H1645 H 0.8123 0.59552 0.09618 0.0
H1646 H 0.84387 0.59046 0.08064 0.0
H1647 H 0.82681 0.57122 0.10716 0.0
H1648 H 0.87043 0.56426 0.10741 0.0
H1649 H 0.89764 0.5388 0.07827 0.0
H1650 H 0.314 0.75425 0.17238 0.0
H1651 H 0.34937 0.78327 0.14328 0.0
H1652 H 0.35315 0.8624 0.19263 0.0
H1653 H 0.31853 0.83332 0.22222 0.0
H1654 H 0.34796 0.82837 0.11833 0.0
H1655 H 0.43579 0.86859 0.18025 0.0
H1656 H 0.40452 0.8382 0.18644 0.0
H1657 H 0.4046 0.87542 0.1945 0.0
C1658 C 0.32272 0.77779 0.17722 0.0
C1659 C 0.31394 0.79141 0.19987 0.0
C1660 C 0.34279 0.79438 0.16046 0.0
C1661 C 0.35447 0.82499 0.16598 0.0
C1662 C 0.34504 0.83875 0.18824 0.0
H1663 H 0.44467 0.97334 0.0914 0.0
H1664 H 0.4207 0.93724 0.12049 0.0
C1665 C 0.32501 0.82214 0.20503 0.0
C1666 C 0.3758 0.8427 0.14815 0.0
H1667 H 0.44144 0.89353 0.14403 0.0
C1668 C 0.36856 0.84225 0.12382 0.0
C1669 C 0.40282 0.86064 0.1552 0.0
C1670 C 0.41257 0.86059 0.18043 0.0
C1671 C 0.38702 0.86034 0.10686 0.0
C1672 C 0.41349 0.87925 0.11432 0.0
C1673 C 0.42115 0.879 0.13833 0.0
C1674 C 0.43197 0.90164 0.09839 0.0
C1675 C 0.3777 0.86015 0.08138 0.0
C1676 C 0.44729 0.8939 0.07675 0.0
C1677 C 0.46158 0.91479 0.06025 0.0
C1678 C 0.46031 0.9435 0.06506 0.0
C1679 C 0.44613 0.95142 0.08734 0.0
C1680 C 0.43235 0.9308 0.10394 0.0
H1681 H 0.3558 0.84549 0.07898 0.0
H1682 H 0.37933 0.88275 0.07839 0.0
H1683 H 0.39168 0.85261 0.06673 0.0
H1684 H 0.44726 0.87147 0.07215 0.0
H1685 H 0.47194 0.90799 0.043 0.0
H1686 H 0.70617 0.15835 0.21492 0.0
H1687 H 0.68124 0.12507 0.18033 0.0
H1688 H 0.69389 0.19904 0.14 0.0
H1689 H 0.71949 0.23227 0.17397 0.0
H1690 H 0.63377 0.12337 0.15798 0.0
H1691 H 0.72691 0.14523 0.09045 0.0
H1692 H 0.72935 0.1553 0.12377 0.0
H1693 H 0.72047 0.17811 0.10513 0.0
C1694 C 0.70373 0.16747 0.19861 0.0
C1695 C 0.71538 0.19781 0.19685 0.0
C1696 C 0.68944 0.14847 0.17896 0.0
C1697 C 0.6865 0.1596 0.1574 0.0
C1698 C 0.69672 0.19 0.15622 0.0
H1699 H 0.59373 0.11202 0.03163 0.0
H1700 H 0.62929 0.13378 0.06192 0.0
C1701 C 0.71112 0.20896 0.17574 0.0
C1702 C 0.67267 0.13961 0.13601 0.0
H1703 H 0.68222 0.12194 0.07302 0.0
C1704 C 0.64444 0.12257 0.13949 0.0
C1705 C 0.68683 0.13854 0.112 0.0
C1706 C 0.71765 0.15504 0.10761 0.0
C1707 C 0.62948 0.10575 0.11919 0.0
C1708 C 0.64331 0.10589 0.09498 0.0
C1709 C 0.67181 0.12194 0.09166 0.0
C1710 C 0.62746 0.09216 0.07277 0.0
C1711 C 0.59865 0.08914 0.12348 0.0
C1712 C 0.61606 0.06152 0.06792 0.0
C1713 C 0.59589 0.04898 0.05045 0.0
C1714 C 0.58672 0.06705 0.03797 0.0
C1715 C 0.60024 0.0976 0.04116 0.0
C1716 C 0.62054 0.11006 0.05842 0.0
H1717 H 0.5905 0.09371 0.14303 0.0
H1718 H 0.58645 0.095 0.1106 0.0
H1719 H 0.59505 0.06519 0.11941 0.0
H1720 H 0.62137 0.04744 0.07881 0.0
H1721 H 0.58581 0.02536 0.04842 0.0
H1722 H 0.73632 0.66673 0.79338 0.0
H1723 H 0.70439 0.63572 0.82337 0.0
H1724 H 0.64745 0.68463 0.82552 0.0
H1725 H 0.67874 0.71502 0.79516 0.0
H1726 H 0.68712 0.65173 0.87059 0.0
H1727 H 0.59445 0.60174 0.81442 0.0
H1728 H 0.62857 0.62145 0.80089 0.0
H1729 H 0.60669 0.64116 0.8179 0.0
C1730 C 0.71687 0.67066 0.8001 0.0
C1731 C 0.70987 0.69304 0.79169 0.0
C1732 C 0.69864 0.65295 0.8172 0.0
C1733 C 0.6732 0.65741 0.82627 0.0
C1734 C 0.66647 0.68011 0.81819 0.0
H1735 H 0.54607 0.5781 0.94261 0.0
H1736 H 0.57182 0.60781 0.90891 0.0
C1737 C 0.68449 0.69758 0.80092 0.0
C1738 C 0.65444 0.63933 0.84515 0.0
H1739 H 0.58779 0.59346 0.85725 0.0
C1740 C 0.66544 0.6389 0.8676 0.0
C1741 C 0.62605 0.62282 0.84135 0.0
C1742 C 0.61327 0.62154 0.81725 0.0
C1743 C 0.64891 0.62251 0.88636 0.0
C1744 C 0.62064 0.60568 0.88246 0.0
C1745 C 0.60943 0.60643 0.8602 0.0
C1746 C 0.60308 0.58606 0.90086 0.0
C1747 C 0.66187 0.62359 0.91033 0.0
C1748 C 0.61144 0.56333 0.90668 0.0
C1749 C 0.59711 0.5468 0.92591 0.0
C1750 C 0.57371 0.55221 0.93945 0.0
C1751 C 0.56406 0.57359 0.93252 0.0
C1752 C 0.57877 0.59054 0.91335 0.0
H1753 H 0.68046 0.6436 0.91334 0.0
H1754 H 0.64655 0.62311 0.92675 0.0
H1755 H 0.66888 0.60419 0.90929 0.0
H1756 H 0.62961 0.5589 0.89679 0.0
H1757 H 0.60467 0.53 0.93049 0.0
H1758 H 0.30257 0.61997 0.85799 0.0
H1759 H 0.33674 0.60956 0.88021 0.0
H1760 H 0.40218 0.64791 0.82532 0.0
H1761 H 0.36825 0.65764 0.80249 0.0
H1762 H 0.3827 0.57876 0.83967 0.0
H1763 H 0.41879 0.67451 0.91235 0.0
H1764 H 0.38278 0.66166 0.90431 0.0
H1765 H 0.41011 0.67864 0.88199 0.0
C1766 C 0.32423 0.62631 0.85065 0.0
C1767 C 0.33254 0.63943 0.82829 0.0
C1768 C 0.34375 0.62068 0.86355 0.0
C1769 C 0.3719 0.62826 0.85445 0.0
C1770 C 0.38055 0.64227 0.83273 0.0
H1771 H 0.49968 0.59617 0.93133 0.0
H1772 H 0.47847 0.617 0.90356 0.0
C1773 C 0.36107 0.64786 0.81977 0.0
C1774 C 0.39139 0.61805 0.86574 0.0
H1775 H 0.43385 0.63399 0.9138 0.0
C1776 C 0.39414 0.5909 0.85574 0.0
C1777 C 0.40651 0.63427 0.88635 0.0
C1778 C 0.40464 0.66399 0.897 0.0
C1779 C 0.41106 0.57895 0.86631 0.0
C1780 C 0.42504 0.5943 0.88792 0.0
C1781 C 0.42312 0.62214 0.89731 0.0
C1782 C 0.43946 0.58066 0.90233 0.0
C1783 C 0.41361 0.54994 0.85412 0.0
C1784 C 0.42483 0.5532 0.91053 0.0
C1785 C 0.43709 0.54096 0.92569 0.0
C1786 C 0.46402 0.55634 0.93386 0.0
C1787 C 0.47902 0.58363 0.92523 0.0
C1788 C 0.46683 0.59566 0.90954 0.0
H1789 H 0.4113 0.5472 0.83368 0.0
H1790 H 0.43403 0.54786 0.8571 0.0
H1791 H 0.39653 0.53177 0.86214 0.0
H1792 H 0.40337 0.54162 0.90605 0.0
H1793 H 0.42461 0.52014 0.93221 0.0
H1794 H 0.29278 0.33893 0.79421 0.0
H1795 H 0.31728 0.36831 0.83056 0.0
H1796 H 0.36261 0.30761 0.82909 0.0
H1797 H 0.3385 0.27826 0.79251 0.0
H1798 H 0.32943 0.32362 0.87813 0.0
H1799 H 0.40561 0.41747 0.8326 0.0
H1800 H 0.36968 0.40405 0.82455 0.0
H1801 H 0.39145 0.38156 0.81535 0.0
C1802 C 0.30829 0.3321 0.80141 0.0
C1803 C 0.31369 0.30627 0.79068 0.0
C1804 C 0.32215 0.34883 0.82216 0.0
C1805 C 0.34163 0.34001 0.83237 0.0
C1806 C 0.34757 0.31464 0.82137 0.0
H1807 H 0.44461 0.37881 0.95248 0.0
H1808 H 0.40911 0.35676 0.92262 0.0
C1809 C 0.33385 0.29798 0.80052 0.0
C1810 C 0.35516 0.35656 0.85513 0.0
H1811 H 0.40838 0.41732 0.8755 0.0
C1812 C 0.34655 0.34425 0.87771 0.0
C1813 C 0.37704 0.38364 0.85443 0.0
C1814 C 0.38671 0.39762 0.83048 0.0
C1815 C 0.35989 0.358 0.89965 0.0
C1816 C 0.38296 0.38428 0.8987 0.0
C1817 C 0.39073 0.39718 0.87626 0.0
C1818 C 0.4012 0.39712 0.91979 0.0
C1819 C 0.34914 0.34411 0.92353 0.0
C1820 C 0.40872 0.42727 0.92827 0.0
C1821 C 0.42958 0.44017 0.9451 0.0
C1822 C 0.44332 0.42314 0.95373 0.0
C1823 C 0.43451 0.39266 0.94631 0.0
C1824 C 0.41393 0.37988 0.92933 0.0
H1825 H 0.32628 0.33203 0.92359 0.0
H1826 H 0.35971 0.32794 0.92496 0.0
H1827 H 0.35317 0.36075 0.94026 0.0
H1828 H 0.39926 0.44104 0.92107 0.0
H1829 H 0.43583 0.46366 0.95031 0.0
H1830 H 0.68101 0.34994 0.81302 0.0
H1831 H 0.69386 0.39186 0.84418 0.0
H1832 H 0.69519 0.33583 0.89863 0.0
H1833 H 0.68059 0.29289 0.86704 0.0
H1834 H 0.66128 0.35976 0.9147 0.0
H1835 H 0.7479 0.45206 0.88466 0.0
H1836 H 0.72955 0.43769 0.85696 0.0
H1837 H 0.74465 0.41509 0.87054 0.0
C1838 C 0.68475 0.34663 0.83148 0.0
C1839 C 0.6793 0.3183 0.83793 0.0
C1840 C 0.69287 0.37084 0.84924 0.0
C1841 C 0.69615 0.36731 0.87382 0.0
C1842 C 0.69303 0.33912 0.87973 0.0
H1843 H 0.62545 0.48135 0.97068 0.0
H1844 H 0.6687 0.47587 0.95019 0.0
C1845 C 0.68425 0.31463 0.86192 0.0
C1846 C 0.69386 0.39072 0.89374 0.0
H1847 H 0.70076 0.46309 0.89563 0.0
C1848 C 0.67107 0.38258 0.91148 0.0
C1849 C 0.70679 0.4208 0.89042 0.0
C1850 C 0.73381 0.43172 0.87473 0.0
C1851 C 0.65759 0.40247 0.92192 0.0
C1852 C 0.66734 0.43094 0.91423 0.0
C1853 C 0.69284 0.44068 0.9003 0.0
C1854 C 0.64883 0.44844 0.91793 0.0
C1855 C 0.63101 0.39166 0.93854 0.0
C1856 C 0.62435 0.43737 0.90495 0.0
C1857 C 0.5993 0.4389 0.91721 0.0
C1858 C 0.59955 0.45282 0.94165 0.0
C1859 C 0.62499 0.4696 0.95202 0.0
C1860 C 0.64981 0.46712 0.94018 0.0
H1861 H 0.63034 0.37219 0.94732 0.0
H1862 H 0.62897 0.40909 0.95357 0.0
H1863 H 0.61261 0.385 0.92714 0.0
H1864 H 0.62371 0.42323 0.88743 0.0
H1865 H 0.57978 0.42699 0.90866 0.0
H1866 H 0.67353 0.37271 0.20272 0.0
H1867 H 0.63905 0.38282 0.18071 0.0
H1868 H 0.68322 0.36693 0.11009 0.0
H1869 H 0.71772 0.35681 0.13191 0.0
H1870 H 0.67306 0.41841 0.11489 0.0
H1871 H 0.57543 0.32936 0.13893 0.0
H1872 H 0.59357 0.35034 0.16566 0.0
H1873 H 0.60976 0.3286 0.14345 0.0
C1874 C 0.67563 0.37089 0.18247 0.0
C1875 C 0.69848 0.36412 0.16907 0.0
C1876 C 0.65584 0.37657 0.16991 0.0
C1877 C 0.65837 0.37531 0.14373 0.0
C1878 C 0.68084 0.36799 0.1303 0.0
H1879 H 0.54526 0.38618 0.04082 0.0
H1880 H 0.56928 0.36921 0.06885 0.0
C1881 C 0.70065 0.36241 0.14282 0.0
C1882 C 0.63904 0.38389 0.13034 0.0
H1883 H 0.57031 0.36787 0.11942 0.0
C1884 C 0.6506 0.40732 0.11586 0.0
C1885 C 0.60977 0.36915 0.13138 0.0
C1886 C 0.59636 0.34277 0.14548 0.0
C1887 C 0.63378 0.41659 0.1025 0.0
C1888 C 0.60438 0.40262 0.10425 0.0
C1889 C 0.59278 0.3789 0.11848 0.0
C1890 C 0.58573 0.41169 0.09041 0.0
C1891 C 0.64786 0.44079 0.0861 0.0
C1892 C 0.5857 0.44082 0.0941 0.0
C1893 C 0.57223 0.45069 0.07795 0.0
C1894 C 0.55805 0.43144 0.05808 0.0
C1895 C 0.55592 0.40161 0.05593 0.0
C1896 C 0.56973 0.39186 0.07191 0.0
H1897 H 0.6704 0.44347 0.08162 0.0
H1898 H 0.63757 0.43637 0.06828 0.0
H1899 H 0.64645 0.4619 0.09607 0.0
H1900 H 0.59728 0.45632 0.10871 0.0
H1901 H 0.57409 0.47374 0.0803 0.0
H1902 H 0.67097 0.7068 0.21584 0.0
H1903 H 0.64548 0.67615 0.18056 0.0
H1904 H 0.70825 0.63344 0.16401 0.0
H1905 H 0.73321 0.66332 0.19994 0.0
H1906 H 0.6677 0.67823 0.1325 0.0
H1907 H 0.63695 0.56393 0.15678 0.0
H1908 H 0.6488 0.59565 0.17965 0.0
H1909 H 0.67358 0.58467 0.15755 0.0
C1910 C 0.67887 0.69031 0.20505 0.0
C1911 C 0.7039 0.68724 0.21056 0.0
C1912 C 0.66441 0.67292 0.18488 0.0
C1913 C 0.67489 0.65241 0.16974 0.0
C1914 C 0.69944 0.64863 0.17575 0.0
H1915 H 0.59874 0.54407 0.03416 0.0
H1916 H 0.6331 0.56738 0.0658 0.0
C1917 C 0.71368 0.6657 0.19625 0.0
C1918 C 0.66128 0.63713 0.14654 0.0
H1919 H 0.62562 0.56977 0.11725 0.0
C1920 C 0.65861 0.6545 0.12913 0.0
C1921 C 0.65001 0.60616 0.14191 0.0
C1922 C 0.65224 0.58644 0.16001 0.0
C1923 C 0.64399 0.64186 0.10772 0.0
C1924 C 0.63133 0.61099 0.10377 0.0
C1925 C 0.63528 0.59345 0.12042 0.0
C1926 C 0.61144 0.59703 0.08413 0.0
C1927 C 0.64191 0.66182 0.08974 0.0
C1928 C 0.58786 0.60573 0.0842 0.0
C1929 C 0.56878 0.59305 0.06602 0.0
C1930 C 0.57236 0.57073 0.04774 0.0
C1931 C 0.5956 0.56138 0.04793 0.0
C1932 C 0.61515 0.5746 0.06598 0.0
H1933 H 0.66011 0.68246 0.09043 0.0
H1934 H 0.64072 0.65088 0.07022 0.0
H1935 H 0.62276 0.66798 0.09513 0.0
H1936 H 0.584 0.62218 0.09858 0.0
H1937 H 0.55063 0.6001 0.0668 0.0
H1938 H 0.37295 0.72838 0.12315 0.0
H1939 H 0.35787 0.68437 0.09323 0.0
H1940 H 0.29739 0.6398 0.14876 0.0
H1941 H 0.31405 0.68086 0.17911 0.0
H1942 H 0.3593 0.64004 0.14189 0.0
H1943 H 0.29387 0.59889 0.06029 0.0
H1944 H 0.31178 0.63802 0.06507 0.0
H1945 H 0.28482 0.62094 0.08775 0.0
C1946 C 0.35589 0.70955 0.12886 0.0
C1947 C 0.3458 0.70819 0.15407 0.0
C1948 C 0.34659 0.68474 0.11144 0.0
C1949 C 0.32708 0.65875 0.11923 0.0
C1950 C 0.31252 0.6597 0.14252 0.0
H1951 H 0.38424 0.51492 0.04405 0.0
H1952 H 0.3505 0.53311 0.07168 0.0
C1953 C 0.32253 0.68372 0.16014 0.0
C1954 C 0.33343 0.63166 0.11084 0.0
H1955 H 0.33201 0.58049 0.06078 0.0
C1956 C 0.35259 0.62627 0.12457 0.0
C1957 C 0.32415 0.61365 0.0887 0.0
C1958 C 0.30231 0.61788 0.07459 0.0
C1959 C 0.36526 0.6054 0.1151 0.0
C1960 C 0.35861 0.58996 0.09133 0.0
C1961 C 0.33698 0.59269 0.07903 0.0
C1962 C 0.37862 0.57789 0.07641 0.0
C1963 C 0.38779 0.6024 0.12932 0.0
C1964 C 0.40507 0.59743 0.07003 0.0
C1965 C 0.4241 0.58739 0.05439 0.0
C1966 C 0.41679 0.55768 0.04468 0.0
C1967 C 0.39022 0.53802 0.05116 0.0
C1968 C 0.37108 0.5482 0.06696 0.0
H1969 H 0.38331 0.60666 0.14982 0.0
H1970 H 0.3899 0.58021 0.12484 0.0
H1971 H 0.40814 0.61897 0.12421 0.0
H1972 H 0.41081 0.62064 0.07682 0.0
H1973 H 0.44437 0.60306 0.04969 0.0
H1974 H 0.28846 0.33712 0.2057 0.0
H1975 H 0.32027 0.36727 0.17511 0.0
H1976 H 0.38012 0.32325 0.17854 0.0
H1977 H 0.34868 0.29328 0.20916 0.0
H1978 H 0.40433 0.38452 0.17902 0.0
H1979 H 0.33324 0.33501 0.10198 0.0
H1980 H 0.31802 0.35081 0.1296 0.0
H1981 H 0.3282 0.31919 0.13097 0.0
C1982 C 0.30849 0.33404 0.20006 0.0
C1983 C 0.31602 0.31276 0.20979 0.0
C1984 C 0.32655 0.35115 0.18251 0.0
C1985 C 0.35233 0.34712 0.1743 0.0
C1986 C 0.36028 0.32662 0.1846 0.0
H1987 H 0.457 0.40175 0.03973 0.0
H1988 H 0.43225 0.37415 0.07489 0.0
C1989 C 0.3423 0.30957 0.20215 0.0
C1990 C 0.37085 0.36373 0.15456 0.0
H1991 H 0.37456 0.37419 0.09315 0.0
C1992 C 0.39786 0.38226 0.16023 0.0
C1993 C 0.36241 0.36047 0.13001 0.0
C1994 C 0.33399 0.34012 0.12262 0.0
C1995 C 0.41654 0.39796 0.14205 0.0
C1996 C 0.40792 0.39497 0.11767 0.0
C1997 C 0.38106 0.37626 0.1119 0.0
C1998 C 0.42598 0.41197 0.09802 0.0
C1999 C 0.44541 0.41748 0.14888 0.0
C2000 C 0.43088 0.44228 0.09969 0.0
C2001 C 0.44466 0.45781 0.07969 0.0
C2002 C 0.45398 0.44332 0.05792 0.0
C2003 C 0.45024 0.41329 0.05658 0.0
C2004 C 0.43608 0.39761 0.07652 0.0
H2005 H 0.45067 0.41318 0.16696 0.0
H2006 H 0.46144 0.41427 0.13403 0.0
H2007 H 0.44648 0.44081 0.15055 0.0
H2008 H 0.42292 0.45362 0.11599 0.0
H2009 H 0.44715 0.48096 0.08084 0.0
H2010 H 0.79086 0.70925 0.6706 0.0
H2011 H 0.81486 0.67993 0.64243 0.0
H2012 H 0.84847 0.66256 0.70568 0.0
H2013 H 0.82271 0.69017 0.73392 0.0
H2014 H 0.86857 0.68708 0.63226 0.0
H2015 H 0.82043 0.58078 0.6711 0.0
H2016 H 0.80698 0.61097 0.67974 0.0
H2017 H 0.83693 0.61032 0.69406 0.0
C2018 C 0.8025 0.6984 0.6786 0.0
C2019 C 0.80414 0.70166 0.70466 0.0
C2020 C 0.81672 0.68193 0.66239 0.0
C2021 C 0.83319 0.66825 0.67174 0.0
C2022 C 0.83535 0.67198 0.69779 0.0
H2023 H 0.96466 0.6104 0.58566 0.0
H2024 H 0.93666 0.63489 0.6143 0.0
C2025 C 0.8209 0.68826 0.714 0.0
C2026 C 0.84876 0.6511 0.65417 0.0
H2027 H 0.85977 0.58451 0.64168 0.0
C2028 C 0.86648 0.66462 0.63436 0.0
C2029 C 0.84602 0.62155 0.65645 0.0
C2030 C 0.82636 0.60493 0.67633 0.0
C2031 C 0.88178 0.64985 0.61731 0.0
C2032 C 0.87973 0.62069 0.6201 0.0
C2033 C 0.86161 0.6069 0.63955 0.0
C2034 C 0.89664 0.60452 0.60323 0.0
C2035 C 0.89977 0.6655 0.59615 0.0
C2036 C 0.88366 0.57848 0.58786 0.0
C2037 C 0.89975 0.56412 0.57139 0.0
C2038 C 0.92926 0.57541 0.56995 0.0
C2039 C 0.94206 0.60106 0.58591 0.0
C2040 C 0.92602 0.61528 0.60232 0.0
H2041 H 0.89402 0.68472 0.59302 0.0
H2042 H 0.92201 0.67358 0.60072 0.0
H2043 H 0.89794 0.65034 0.57849 0.0
H2044 H 0.86103 0.56957 0.58822 0.0
H2045 H 0.88905 0.54453 0.55944 0.0
H2046 H 0.28096 0.79358 0.67346 0.0
H2047 H 0.31415 0.82415 0.64363 0.0
H2048 H 0.37973 0.84476 0.69387 0.0
H2049 H 0.34665 0.8156 0.724 0.0
H2050 H 0.35243 0.88853 0.65519 0.0
H2051 H 0.40736 0.80678 0.62341 0.0
H2052 H 0.3718 0.79647 0.63719 0.0
H2053 H 0.40041 0.81489 0.65656 0.0
C2054 C 0.3024 0.80482 0.67816 0.0
C2055 C 0.31148 0.80149 0.7007 0.0
C2056 C 0.3213 0.82214 0.66113 0.0
C2057 C 0.34944 0.83611 0.66643 0.0
C2058 C 0.35822 0.83365 0.68928 0.0
H2059 H 0.48878 0.95271 0.57878 0.0
H2060 H 0.46342 0.92126 0.61163 0.0
C2061 C 0.33935 0.81674 0.70635 0.0
C2062 C 0.36982 0.85333 0.64816 0.0
H2063 H 0.42527 0.8521 0.6064 0.0
C2064 C 0.36842 0.88067 0.64458 0.0
C2065 C 0.39079 0.84303 0.63465 0.0
C2066 C 0.39278 0.81361 0.63791 0.0
C2067 C 0.38736 0.89791 0.6275 0.0
C2068 C 0.40785 0.88727 0.61345 0.0
C2069 C 0.40965 0.8602 0.6174 0.0
C2070 C 0.42506 0.90259 0.5926 0.0
C2071 C 0.38514 0.92725 0.6242 0.0
C2072 C 0.41215 0.90139 0.57088 0.0
C2073 C 0.42634 0.91915 0.55246 0.0
C2074 C 0.45383 0.93835 0.55531 0.0
C2075 C 0.46763 0.938 0.57619 0.0
C2076 C 0.45319 0.92021 0.5949 0.0
H2077 H 0.37217 0.93494 0.63979 0.0
H2078 H 0.40626 0.9441 0.62297 0.0
H2079 H 0.37535 0.92526 0.60647 0.0
H2080 H 0.39055 0.88773 0.56873 0.0
H2081 H 0.41534 0.9188 0.53638 0.0
H2082 H 0.15676 0.3147 0.66723 0.0
H2083 H 0.12809 0.32456 0.63821 0.0
H2084 H 0.1793 0.41592 0.64512 0.0
H2085 H 0.20763 0.40629 0.67431 0.0
H2086 H 0.09978 0.37213 0.65168 0.0
H2087 H 0.17375 0.38493 0.56691 0.0
H2088 H 0.175 0.36373 0.59119 0.0
H2089 H 0.18854 0.40313 0.59598 0.0
C2090 C 0.16197 0.33678 0.6623 0.0
C2091 C 0.18422 0.35981 0.67302 0.0
C2092 C 0.14561 0.34238 0.64585 0.0
C2093 C 0.15171 0.37092 0.63954 0.0
C2094 C 0.17439 0.39374 0.64971 0.0
H2095 H 0.09579 0.47308 0.55765 0.0
H2096 H 0.11668 0.45259 0.5854 0.0
C2097 C 0.19044 0.38826 0.66641 0.0
C2098 C 0.13378 0.3775 0.62324 0.0
H2099 H 0.13496 0.4016 0.56702 0.0
C2100 C 0.10719 0.37812 0.633 0.0
C2101 C 0.14367 0.38536 0.59898 0.0
C2102 C 0.17172 0.3841 0.58745 0.0
C2103 C 0.09067 0.38771 0.61945 0.0
C2104 C 0.10097 0.39649 0.59551 0.0
C2105 C 0.12718 0.3949 0.58544 0.0
C2106 C 0.08585 0.40919 0.58111 0.0
C2107 C 0.06294 0.38972 0.63118 0.0
C2108 C 0.06108 0.3917 0.57003 0.0
C2109 C 0.04896 0.40335 0.554 0.0
C2110 C 0.06158 0.43262 0.54876 0.0
C2111 C 0.08555 0.4504 0.56107 0.0
C2112 C 0.09762 0.43874 0.57694 0.0
H2113 H 0.05956 0.38556 0.6511 0.0
H2114 H 0.06169 0.41181 0.63 0.0
H2115 H 0.04575 0.37328 0.62075 0.0
H2116 H 0.05181 0.36876 0.57294 0.0
H2117 H 0.03057 0.38905 0.5448 0.0
H2118 H 0.68863 0.17273 0.71572 0.0
H2119 H 0.66598 0.14021 0.68003 0.0
H2120 H 0.74542 0.16017 0.6367 0.0
H2121 H 0.76815 0.19351 0.67252 0.0
H2122 H 0.70345 0.16738 0.61266 0.0
H2123 H 0.66479 0.05877 0.64782 0.0
H2124 H 0.6557 0.08634 0.66945 0.0
H2125 H 0.69198 0.08956 0.6622 0.0
C2126 C 0.70141 0.16981 0.69875 0.0
C2127 C 0.73027 0.18547 0.69698 0.0
C2128 C 0.68845 0.15099 0.67839 0.0
C2129 C 0.70401 0.14722 0.65576 0.0
C2130 C 0.733 0.16238 0.65406 0.0
H2131 H 0.60235 0.03015 0.53404 0.0
H2132 H 0.64196 0.05079 0.56112 0.0
C2133 C 0.74605 0.18123 0.67456 0.0
C2134 C 0.6892 0.12995 0.63342 0.0
H2135 H 0.64006 0.06447 0.6143 0.0
C2136 C 0.69013 0.14465 0.61276 0.0
C2137 C 0.67195 0.10019 0.63334 0.0
C2138 C 0.67124 0.08269 0.6543 0.0
C2139 C 0.67287 0.13111 0.59295 0.0
C2140 C 0.65391 0.10215 0.59385 0.0
C2141 C 0.65442 0.0867 0.61361 0.0
C2142 C 0.63097 0.08943 0.5765 0.0
C2143 C 0.67437 0.1484 0.57161 0.0
C2144 C 0.61158 0.10401 0.57635 0.0
C2145 C 0.58946 0.09263 0.56086 0.0
C2146 C 0.58559 0.06588 0.54526 0.0
C2147 C 0.60484 0.05091 0.54557 0.0
C2148 C 0.62739 0.06263 0.56109 0.0
H2149 H 0.69528 0.16537 0.56932 0.0
H2150 H 0.66991 0.1338 0.55372 0.0
H2151 H 0.6586 0.15988 0.57563 0.0
H2152 H 0.61326 0.12415 0.58862 0.0
H2153 H 0.57487 0.10463 0.56176 0.0
H2154 H 0.81049 0.27699 0.32341 0.0
H2155 H 0.83979 0.31308 0.3538 0.0
H2156 H 0.84931 0.38188 0.30838 0.0
H2157 H 0.82013 0.34581 0.27755 0.0
H2158 H 0.9014 0.37744 0.33406 0.0
H2159 H 0.80572 0.37969 0.39428 0.0
H2160 H 0.80657 0.34401 0.3804 0.0
H2161 H 0.80567 0.3702 0.36073 0.0
C2162 C 0.81911 0.2997 0.31966 0.0
C2163 C 0.81266 0.30872 0.29836 0.0
C2164 C 0.8358 0.32023 0.33702 0.0
C2165 C 0.84626 0.34998 0.3333 0.0
C2166 C 0.84119 0.35894 0.31146 0.0
H2167 H 0.94113 0.48002 0.44979 0.0
H2168 H 0.90993 0.46135 0.41549 0.0
C2169 C 0.82447 0.33837 0.29402 0.0
C2170 C 0.86079 0.37163 0.35332 0.0
H2171 H 0.84912 0.39886 0.41372 0.0
C2172 C 0.89007 0.38283 0.35127 0.0
C2173 C 0.84573 0.3786 0.37554 0.0
C2174 C 0.81414 0.36773 0.37796 0.0
C2175 C 0.90482 0.39931 0.37179 0.0
C2176 C 0.88973 0.40438 0.39462 0.0
C2177 C 0.86046 0.39481 0.39611 0.0
C2178 C 0.90411 0.41573 0.41782 0.0
C2179 C 0.9364 0.40967 0.36957 0.0
C2180 C 0.90975 0.39599 0.43103 0.0
C2181 C 0.92733 0.40644 0.45061 0.0
C2182 C 0.93961 0.43682 0.45714 0.0
C2183 C 0.93186 0.45648 0.44529 0.0
C2184 C 0.91427 0.44594 0.42557 0.0
H2185 H 0.94495 0.40714 0.34986 0.0
H2186 H 0.94481 0.43311 0.37738 0.0
H2187 H 0.94392 0.39671 0.38063 0.0
H2188 H 0.90183 0.37255 0.42524 0.0
H2189 H 0.93282 0.39077 0.45945 0.0
H2190 H 0.6819 0.78547 0.2718 0.0
H2191 H 0.65805 0.81582 0.29946 0.0
H2192 H 0.71829 0.83242 0.35423 0.0
H2193 H 0.7427 0.80339 0.32637 0.0
H2194 H 0.6328 0.80879 0.34664 0.0
H2195 H 0.71971 0.91483 0.35061 0.0
H2196 H 0.72041 0.88385 0.328 0.0
H2197 H 0.72889 0.88547 0.35963 0.0
C2198 C 0.69021 0.79583 0.28963 0.0
C2199 C 0.7141 0.79161 0.2969 0.0
C2200 C 0.6765 0.81313 0.30551 0.0
C2201 C 0.6865 0.82694 0.32893 0.0
C2202 C 0.71036 0.8227 0.33615 0.0
H2203 H 0.63197 0.93836 0.45327 0.0
H2204 H 0.6578 0.91107 0.42428 0.0
C2205 C 0.72409 0.80556 0.32028 0.0
C2206 C 0.6715 0.84485 0.34614 0.0
H2207 H 0.68026 0.91264 0.37926 0.0
C2208 C 0.64315 0.83156 0.35362 0.0
C2209 C 0.68494 0.87454 0.35563 0.0
C2210 C 0.71509 0.89063 0.3479 0.0
C2211 C 0.62812 0.8467 0.37058 0.0
C2212 C 0.64142 0.8766 0.37987 0.0
C2213 C 0.66983 0.88987 0.37234 0.0
C2214 C 0.62627 0.89445 0.39719 0.0
C2215 C 0.59837 0.82987 0.37896 0.0
C2216 C 0.60031 0.89536 0.39153 0.0
C2217 C 0.58531 0.91038 0.40835 0.0
C2218 C 0.59623 0.92598 0.43096 0.0
C2219 C 0.62296 0.92666 0.43602 0.0
C2220 C 0.63771 0.91093 0.41942 0.0
H2221 H 0.59487 0.8059 0.37734 0.0
H2222 H 0.59294 0.83738 0.39864 0.0
H2223 H 0.58386 0.83307 0.36673 0.0
H2224 H 0.59138 0.8842 0.37413 0.0
H2225 H 0.56497 0.9097 0.40363 0.0
H2226 H 0.17619 0.70549 0.28246 0.0
H2227 H 0.14018 0.68246 0.31381 0.0
H2228 H 0.20217 0.66317 0.34984 0.0
H2229 H 0.2385 0.68928 0.32038 0.0
H2230 H 0.1191 0.63067 0.32363 0.0
H2231 H 0.16638 0.69274 0.41019 0.0
H2232 H 0.18079 0.70386 0.37985 0.0
H2233 H 0.19007 0.67623 0.3923 0.0
C2234 C 0.18226 0.69691 0.2974 0.0
C2235 C 0.21037 0.69927 0.2989 0.0
C2236 C 0.16156 0.68356 0.31528 0.0
C2237 C 0.16834 0.67152 0.33471 0.0
C2238 C 0.19635 0.67327 0.33581 0.0
H2239 H 0.08327 0.52911 0.41286 0.0
H2240 H 0.10461 0.56394 0.38234 0.0
C2241 C 0.21719 0.68771 0.31854 0.0
C2242 C 0.14598 0.65569 0.35286 0.0
H2243 H 0.13163 0.64481 0.41458 0.0
C2244 C 0.12169 0.6343 0.34357 0.0
C2245 C 0.14877 0.66059 0.37906 0.0
C2246 C 0.17279 0.68486 0.39089 0.0
C2247 C 0.10123 0.61654 0.35944 0.0
C2248 C 0.10538 0.61977 0.38515 0.0
C2249 C 0.12863 0.64225 0.39476 0.0
C2250 C 0.08824 0.59753 0.4016 0.0
C2251 C 0.07561 0.59388 0.34859 0.0
C2252 C 0.07139 0.60465 0.4223 0.0
C2253 C 0.05872 0.58445 0.43968 0.0
C2254 C 0.06341 0.5573 0.43679 0.0
C2255 C 0.07933 0.54991 0.41551 0.0
C2256 C 0.09146 0.56973 0.39803 0.0
H2257 H 0.07204 0.59879 0.33012 0.0
H2258 H 0.07837 0.57196 0.34605 0.0
H2259 H 0.05672 0.5927 0.36149 0.0
H2260 H 0.06886 0.62612 0.42544 0.0
H2261 H 0.04679 0.59075 0.45607 0.0
H2262 H 0.40449 0.16892 0.29542 0.0
H2263 H 0.4167 0.13862 0.32126 0.0
H2264 H 0.36756 0.16592 0.38418 0.0
H2265 H 0.35549 0.1968 0.35841 0.0
H2266 H 0.44602 0.16793 0.36573 0.0
H2267 H 0.34964 0.07481 0.38589 0.0
H2268 H 0.35413 0.09454 0.3591 0.0
H2269 H 0.34641 0.11092 0.38975 0.0
C2270 C 0.39594 0.16819 0.31467 0.0
C2271 C 0.37944 0.18567 0.32497 0.0
C2272 C 0.4028 0.15071 0.32935 0.0
C2273 C 0.39308 0.15004 0.35461 0.0
C2274 C 0.37504 0.16589 0.36463 0.0
H2275 H 0.4316 0.08117 0.47873 0.0
H2276 H 0.41223 0.10207 0.44984 0.0
C2277 C 0.36817 0.18353 0.34988 0.0
C2278 C 0.40506 0.13615 0.371 0.0
H2279 H 0.3895 0.08017 0.40712 0.0
C2280 C 0.43372 0.14863 0.37471 0.0
C2281 C 0.38888 0.11119 0.3828 0.0
C2282 C 0.35807 0.09684 0.37916 0.0
C2283 C 0.44665 0.13724 0.3903 0.0
C2284 C 0.43064 0.11199 0.40193 0.0
C2285 C 0.40188 0.09939 0.39809 0.0
C2286 C 0.44294 0.0993 0.41922 0.0
C2287 C 0.4771 0.15313 0.3948 0.0
C2288 C 0.46678 0.09074 0.41175 0.0
C2289 C 0.47833 0.07943 0.42857 0.0
C2290 C 0.46576 0.07594 0.45284 0.0
C2291 C 0.44177 0.08401 0.46012 0.0
C2292 C 0.43057 0.09572 0.44357 0.0
H2293 H 0.48387 0.17623 0.39049 0.0
H2294 H 0.48123 0.15329 0.4145 0.0
H2295 H 0.49016 0.14184 0.3824 0.0
H2296 H 0.47628 0.0925 0.39286 0.0
H2297 H 0.49652 0.07274 0.42247 0.0
H2298 H 0.64156 0.84161 0.69686 0.0
H2299 H 0.63016 0.87282 0.67098 0.0
H2300 H 0.64163 0.8158 0.60477 0.0
H2301 H 0.65317 0.78462 0.63065 0.0
H2302 H 0.65922 0.89607 0.61442 0.0
H2303 H 0.55239 0.81393 0.62521 0.0
H2304 H 0.57722 0.82193 0.64871 0.0
H2305 H 0.58242 0.80161 0.61925 0.0
C2306 C 0.6428 0.83655 0.67668 0.0
C2307 C 0.64842 0.81102 0.66559 0.0
C2308 C 0.63625 0.85429 0.66197 0.0
C2309 C 0.63505 0.8465 0.63605 0.0
C2310 C 0.64271 0.8222 0.62475 0.0
H2311 H 0.54178 0.88049 0.52798 0.0
H2312 H 0.56327 0.85957 0.55509 0.0
C2313 C 0.64936 0.80452 0.63947 0.0
C2314 C 0.62136 0.86059 0.62159 0.0
H2315 H 0.55773 0.8522 0.60152 0.0
C2316 C 0.63706 0.88663 0.61153 0.0
C2317 C 0.59251 0.848 0.6179 0.0
C2318 C 0.57494 0.81985 0.62832 0.0
C2319 C 0.62462 0.90024 0.59733 0.0
C2320 C 0.59551 0.8878 0.59385 0.0
C2321 C 0.57994 0.86181 0.6042 0.0
C2322 C 0.5809 0.90046 0.57864 0.0
C2323 C 0.64305 0.92716 0.58559 0.0
C2324 C 0.58253 0.93012 0.58343 0.0
C2325 C 0.57062 0.94221 0.56766 0.0
C2326 C 0.55603 0.92463 0.54732 0.0
C2327 C 0.5526 0.8945 0.54368 0.0
C2328 C 0.5651 0.88259 0.55907 0.0
H2329 H 0.66541 0.92846 0.58376 0.0
H2330 H 0.63658 0.92738 0.56677 0.0
H2331 H 0.64149 0.94712 0.59767 0.0
H2332 H 0.59357 0.94412 0.599 0.0
H2333 H 0.57348 0.9655 0.57095 0.0
H2334 H 0.67142 0.19754 0.27951 0.0
H2335 H 0.6381 0.16845 0.3093 0.0
H2336 H 0.70644 0.16826 0.3495 0.0
H2337 H 0.7398 0.20022 0.3211 0.0
H2338 H 0.62826 0.11685 0.32062 0.0
H2339 H 0.6605 0.19334 0.40644 0.0
H2340 H 0.67347 0.20372 0.37561 0.0
H2341 H 0.68893 0.18265 0.39038 0.0
C2342 C 0.67934 0.19224 0.29518 0.0
C2343 C 0.70812 0.20249 0.29865 0.0
C2344 C 0.66026 0.17512 0.31199 0.0
C2345 C 0.66963 0.16694 0.33221 0.0
C2346 C 0.69858 0.17539 0.33474 0.0
H2347 H 0.59095 0.02694 0.41806 0.0
H2348 H 0.61286 0.05906 0.3858 0.0
C2349 C 0.71767 0.19335 0.31829 0.0
C2350 C 0.64901 0.14903 0.35015 0.0
H2351 H 0.63037 0.14457 0.4124 0.0
C2352 C 0.62856 0.12317 0.34067 0.0
C2353 C 0.64895 0.15748 0.37633 0.0
C2354 C 0.66896 0.18597 0.38776 0.0
C2355 C 0.60879 0.10503 0.35665 0.0
C2356 C 0.60993 0.11256 0.38279 0.0
C2357 C 0.62961 0.13888 0.3923 0.0
C2358 C 0.59331 0.09178 0.40053 0.0
C2359 C 0.58705 0.07775 0.34546 0.0
C2360 C 0.57479 0.09944 0.41942 0.0
C2361 C 0.56201 0.08089 0.43796 0.0
C2362 C 0.56826 0.05495 0.438 0.0
C2363 C 0.58598 0.04697 0.41854 0.0
C2364 C 0.59834 0.06517 0.39998 0.0
H2365 H 0.58326 0.07991 0.32616 0.0
H2366 H 0.59457 0.0587 0.34448 0.0
H2367 H 0.5669 0.07302 0.35708 0.0
H2368 H 0.57085 0.12007 0.42018 0.0
H2369 H 0.54852 0.08752 0.45287 0.0
H2370 H 0.87778 0.63728 0.29299 0.0
H2371 H 0.90475 0.62574 0.3221 0.0
H2372 H 0.84535 0.63708 0.38292 0.0
H2373 H 0.8176 0.64748 0.35381 0.0
H2374 H 0.92989 0.65773 0.36611 0.0
H2375 H 0.84604 0.55376 0.38579 0.0
H2376 H 0.84557 0.57326 0.36009 0.0
H2377 H 0.83541 0.58585 0.39144 0.0
C2378 C 0.8703 0.63712 0.31253 0.0
C2379 C 0.84528 0.64292 0.32095 0.0
C2380 C 0.8859 0.63079 0.32917 0.0
C2381 C 0.87682 0.63008 0.35458 0.0
C2382 C 0.85248 0.637 0.36329 0.0
H2383 H 0.92626 0.57538 0.48061 0.0
H2384 H 0.90546 0.59479 0.45181 0.0
C2385 C 0.83679 0.64326 0.34664 0.0
C2386 C 0.89235 0.62116 0.37176 0.0
H2387 H 0.88575 0.56846 0.40926 0.0
C2388 C 0.92032 0.6382 0.37556 0.0
C2389 C 0.87982 0.59563 0.38397 0.0
C2390 C 0.85015 0.57588 0.38001 0.0
C2391 C 0.93589 0.63081 0.39181 0.0
C2392 C 0.92332 0.60525 0.40406 0.0
C2393 C 0.89542 0.58809 0.39995 0.0
C2394 C 0.938 0.59619 0.42201 0.0
C2395 C 0.96529 0.65095 0.39622 0.0
C2396 C 0.96358 0.59091 0.4151 0.0
C2397 C 0.97588 0.58035 0.43191 0.0
C2398 C 0.96231 0.57429 0.45551 0.0
C2399 C 0.937 0.57983 0.46242 0.0
C2400 C 0.9251 0.59087 0.44596 0.0
H2401 H 0.96881 0.67332 0.39127 0.0
H2402 H 0.96987 0.65283 0.41606 0.0
H2403 H 0.98037 0.64191 0.38429 0.0
H2404 H 0.97363 0.59411 0.39653 0.0
H2405 H 0.99532 0.57595 0.4262 0.0
H2406 H 0.34008 0.80742 0.2945 0.0
H2407 H 0.36246 0.84435 0.3276 0.0
H2408 H 0.28293 0.85482 0.35485 0.0
H2409 H 0.25985 0.81651 0.32215 0.0
H2410 H 0.3678 0.9017 0.34068 0.0
H2411 H 0.30723 0.83507 0.4163 0.0
H2412 H 0.30635 0.82016 0.3838 0.0
H2413 H 0.28721 0.84478 0.39592 0.0
C2414 C 0.32715 0.81741 0.30748 0.0
C2415 C 0.298 0.80863 0.30577 0.0
C2416 C 0.34012 0.8388 0.32634 0.0
C2417 C 0.3244 0.85218 0.34393 0.0
C2418 C 0.29544 0.8444 0.34179 0.0
H2419 H 0.43371 0.97976 0.45546 0.0
H2420 H 0.39517 0.9617 0.42748 0.0
C2421 C 0.28229 0.82259 0.323 0.0
C2422 C 0.33862 0.87269 0.36517 0.0
H2423 H 0.34466 0.87698 0.42785 0.0
C2424 C 0.3624 0.89676 0.35986 0.0
C2425 C 0.3316 0.86609 0.39016 0.0
C2426 C 0.30685 0.84004 0.39701 0.0
C2427 C 0.38035 0.91311 0.37854 0.0
C2428 C 0.37404 0.90549 0.40325 0.0
C2429 C 0.34927 0.88282 0.40889 0.0
C2430 C 0.39516 0.91677 0.4222 0.0
C2431 C 0.40706 0.93682 0.37137 0.0
C2432 C 0.40707 0.89731 0.42923 0.0
C2433 C 0.4287 0.90739 0.44529 0.0
C2434 C 0.43908 0.93729 0.4547 0.0
C2435 C 0.42621 0.95661 0.4486 0.0
C2436 C 0.40438 0.9464 0.43243 0.0
H2437 H 0.4097 0.93872 0.35098 0.0
H2438 H 0.40703 0.95832 0.38157 0.0
H2439 H 0.42539 0.93219 0.37679 0.0
H2440 H 0.40027 0.87436 0.42156 0.0
H2441 H 0.43796 0.89179 0.44954 0.0
H2442 H 0.22311 0.33164 0.26716 0.0
H2443 H 0.19788 0.36029 0.29533 0.0
H2444 H 0.19305 0.30766 0.35408 0.0
H2445 H 0.2177 0.27914 0.32619 0.0
H2446 H 0.14631 0.34499 0.31933 0.0
H2447 H 0.22388 0.38848 0.39098 0.0
H2448 H 0.23162 0.37073 0.36069 0.0
H2449 H 0.2125 0.34914 0.38522 0.0
C2450 C 0.21675 0.32625 0.2861 0.0
C2451 C 0.22316 0.30339 0.29448 0.0
C2452 C 0.20234 0.34271 0.30227 0.0
C2453 C 0.19413 0.33684 0.32723 0.0
C2454 C 0.19989 0.31351 0.33531 0.0
H2455 H 0.0633 0.38352 0.42479 0.0
H2456 H 0.09161 0.36019 0.39552 0.0
C2457 C 0.2141 0.29709 0.31921 0.0
C2458 C 0.17867 0.35418 0.34459 0.0
H2459 H 0.17874 0.39333 0.40268 0.0
C2460 C 0.15358 0.35575 0.33746 0.0
C2461 C 0.1881 0.36863 0.36825 0.0
C2462 C 0.21564 0.36946 0.37667 0.0
C2463 C 0.13743 0.37055 0.35339 0.0
C2464 C 0.14618 0.38388 0.37754 0.0
C2465 C 0.17169 0.38299 0.38439 0.0
C2466 C 0.12902 0.39839 0.39598 0.0
C2467 C 0.11129 0.37206 0.34391 0.0
C2468 C 0.14062 0.42755 0.40709 0.0
C2469 C 0.1244 0.44104 0.42428 0.0
C2470 C 0.09612 0.4257 0.43093 0.0
C2471 C 0.08479 0.39637 0.42004 0.0
C2472 C 0.101 0.38292 0.40303 0.0
H2473 H 0.11236 0.3695 0.32313 0.0
H2474 H 0.09298 0.35387 0.35034 0.0
H2475 H 0.10779 0.39321 0.35101 0.0
H2476 H 0.16222 0.44003 0.40228 0.0
H2477 H 0.13403 0.46353 0.4323 0.0
H2478 H 0.28723 0.20416 0.66739 0.0
H2479 H 0.31287 0.17654 0.63918 0.0
H2480 H 0.35187 0.16558 0.70182 0.0
H2481 H 0.32754 0.195 0.72984 0.0
H2482 H 0.37256 0.18876 0.63138 0.0
H2483 H 0.31809 0.08039 0.66598 0.0
H2484 H 0.30392 0.11029 0.67202 0.0
H2485 H 0.33189 0.11061 0.68954 0.0
C2486 C 0.30175 0.19661 0.6751 0.0
C2487 C 0.30547 0.2023 0.7009 0.0
C2488 C 0.31614 0.18034 0.65897 0.0
C2489 C 0.33415 0.1686 0.66831 0.0
C2490 C 0.3378 0.17396 0.69412 0.0
H2491 H 0.46442 0.10856 0.58358 0.0
H2492 H 0.43678 0.13313 0.6124 0.0
C2493 C 0.32374 0.19072 0.71018 0.0
C2494 C 0.34958 0.15148 0.6509 0.0
H2495 H 0.35674 0.08336 0.63627 0.0
C2496 C 0.36907 0.16571 0.63246 0.0
C2497 C 0.34484 0.12128 0.65202 0.0
C2498 C 0.32341 0.10455 0.6708 0.0
C2499 C 0.38425 0.15082 0.61547 0.0
C2500 C 0.38009 0.12076 0.61696 0.0
C2501 C 0.36014 0.10636 0.63511 0.0
C2502 C 0.39667 0.10427 0.60015 0.0
C2503 C 0.40438 0.16743 0.59582 0.0
C2504 C 0.38346 0.07885 0.5842 0.0
C2505 C 0.39935 0.06435 0.56766 0.0
C2506 C 0.42884 0.07493 0.56675 0.0
C2507 C 0.44183 0.09985 0.58337 0.0
C2508 C 0.426 0.11414 0.59988 0.0
H2509 H 0.39934 0.18703 0.59257 0.0
H2510 H 0.4259 0.17518 0.60223 0.0
H2511 H 0.40419 0.15319 0.57778 0.0
H2512 H 0.36084 0.07059 0.58413 0.0
H2513 H 0.38855 0.04527 0.55524 0.0
H2514 H 0.84768 0.31456 0.72826 0.0
H2515 H 0.88213 0.3453 0.6995 0.0
H2516 H 0.82668 0.30755 0.63996 0.0
H2517 H 0.79226 0.27689 0.66847 0.0
H2518 H 0.9098 0.33185 0.65259 0.0
H2519 H 0.84074 0.39603 0.64319 0.0
H2520 H 0.83475 0.37275 0.66767 0.0
H2521 H 0.82428 0.35703 0.63671 0.0
C2522 C 0.84294 0.31263 0.70899 0.0
C2523 C 0.81713 0.29344 0.7007 0.0
C2524 C 0.86265 0.33022 0.69258 0.0
C2525 C 0.85681 0.32909 0.66768 0.0
C2526 C 0.83145 0.30921 0.6592 0.0
H2527 H 0.9226 0.41398 0.53692 0.0
H2528 H 0.89917 0.3813 0.56858 0.0
C2529 C 0.81181 0.29164 0.67553 0.0
C2530 C 0.87661 0.34932 0.65067 0.0
H2531 H 0.88055 0.40228 0.61426 0.0
C2532 C 0.90358 0.34746 0.64433 0.0
C2533 C 0.86858 0.36994 0.64018 0.0
C2534 C 0.84062 0.37435 0.64743 0.0
C2535 C 0.92217 0.36465 0.62677 0.0
C2536 C 0.91363 0.38439 0.61552 0.0
C2537 C 0.88704 0.38694 0.62264 0.0
C2538 C 0.93083 0.40143 0.59518 0.0
C2539 C 0.95034 0.36078 0.61972 0.0
C2540 C 0.95709 0.42309 0.59911 0.0
C2541 C 0.97086 0.44163 0.58064 0.0
C2542 C 0.95827 0.43898 0.55828 0.0
C2543 C 0.93275 0.41645 0.55401 0.0
C2544 C 0.91929 0.39783 0.57215 0.0
H2545 H 0.9515 0.34064 0.62619 0.0
H2546 H 0.95504 0.35963 0.59914 0.0
H2547 H 0.96679 0.37999 0.6285 0.0
H2548 H 0.96623 0.42666 0.61686 0.0
H2549 H 0.99032 0.45913 0.5845 0.0
H2550 H 0.20544 0.65803 0.71708 0.0
H2551 H 0.18125 0.62414 0.68231 0.0
H2552 H 0.2021 0.69618 0.63791 0.0
H2553 H 0.22656 0.72999 0.67234 0.0
H2554 H 0.13586 0.62823 0.65776 0.0
H2555 H 0.22954 0.63326 0.59269 0.0
H2556 H 0.2315 0.64379 0.62601 0.0
H2557 H 0.22763 0.66856 0.6063 0.0
C2558 C 0.20498 0.66651 0.69981 0.0
C2559 C 0.2181 0.69648 0.69719 0.0
C2560 C 0.19118 0.64721 0.68006 0.0
C2561 C 0.19048 0.65764 0.65746 0.0
C2562 C 0.20301 0.68766 0.65505 0.0
H2563 H 0.09621 0.61199 0.53264 0.0
H2564 H 0.13193 0.63308 0.56288 0.0
C2565 C 0.21671 0.70695 0.67477 0.0
C2566 C 0.17574 0.63752 0.63656 0.0
H2567 H 0.18504 0.61375 0.57468 0.0
C2568 C 0.14662 0.62453 0.63973 0.0
C2569 C 0.18997 0.63279 0.61316 0.0
C2570 C 0.22143 0.64509 0.6093 0.0
C2571 C 0.13112 0.60816 0.6196 0.0
C2572 C 0.14522 0.60462 0.59591 0.0
C2573 C 0.17443 0.61657 0.59295 0.0
C2574 C 0.12929 0.5912 0.5737 0.0
C2575 C 0.09962 0.59592 0.62337 0.0
C2576 C 0.11722 0.56061 0.56901 0.0
C2577 C 0.09696 0.54844 0.55156 0.0
C2578 C 0.08834 0.56686 0.53899 0.0
C2579 C 0.10235 0.59733 0.54219 0.0
C2580 C 0.12275 0.6094 0.5594 0.0
H2581 H 0.09183 0.60107 0.64292 0.0
H2582 H 0.08996 0.60505 0.61064 0.0
H2583 H 0.09255 0.57169 0.61857 0.0
H2584 H 0.12207 0.54634 0.58002 0.0
H2585 H 0.08639 0.52491 0.54959 0.0
loop_
_geom_bond_atom_site_label_1
_geom_bond_atom_site_label_2
_geom_bond_distance
_geom_bond_site_symmetry_2
_ccdc_geom_bond_type
C0 C2 1.422 . S
C0 C4 1.415 . S
C0 N6 1.369 . S
C1 C2 1.421 . S
C1 C3 1.417 . S
C1 C13 1.422 . S
C2 C0 1.422 . S
C2 C1 1.421 . S
C2 N12 1.359 . S
C3 C1 1.417 . S
C3 C5 1.329 . S
C3 H22 0.930 . S
C4 C0 1.415 . S
C4 C5 1.437 . S
C4 C8 1.413 . S
C5 C3 1.329 . S
C5 C4 1.437 . S
C5 H27 0.929 . S
N6 C0 1.369 . S
N6 C7 1.338 . S
N6 Gd11 2.622 . S
C7 N6 1.338 . S
C7 C9 1.378 . S
C7 H19 0.929 . S
C8 C4 1.413 . S
C8 C9 1.348 . S
C8 H24 0.931 . S
C9 C7 1.378 . S
C9 C8 1.348 . S
C9 H25 0.930 . S
Gd10 N30 2.622 . S
Gd10 N37 2.570 . S
Gd10 O44 2.353 . S
Gd10 O45 2.468 . S
Gd10 O46 2.427 . S
Gd10 O48 2.388 . S
Gd10 O49 2.386 . S
Gd10 O53 2.307 . S
Gd10 C63 2.805 . S
Gd11 N6 2.622 . S
Gd11 N12 2.570 . S
Gd11 O43 2.386 . S
Gd11 O47 2.307 . S
Gd11 O50 2.353 . S
Gd11 O51 2.468 . S
Gd11 O52 2.427 . S
Gd11 O54 2.388 . S
Gd11 C75 2.805 . S
N12 C2 1.359 . S
N12 Gd11 2.570 . S
N12 C14 1.343 . S
C13 C1 1.422 . S
C13 C15 1.321 . S
C13 H21 0.931 . S
C14 N12 1.343 . S
C14 C15 1.390 . S
C14 H16 0.931 . S
C15 C13 1.321 . S
C15 C14 1.390 . S
C15 H17 0.930 . S
H16 C14 0.931 . S
H17 C15 0.930 . S
H18 C41 0.931 . S
H19 C7 0.929 . S
H20 C42 0.930 . S
H21 C13 0.931 . S
H22 C3 0.930 . S
H23 C32 0.929 . S
H24 C8 0.931 . S
H25 C9 0.930 . S
H26 C64 0.930 . S
H27 C5 0.929 . S
H28 C33 0.931 . S
H29 C34 0.930 . S
N30 Gd10 2.622 . S
N30 C31 1.369 . S
N30 C32 1.338 . S
C31 N30 1.369 . S
C31 C35 1.415 . S
C31 C38 1.422 . S
C32 H23 0.929 . S
C32 N30 1.338 . S
C32 C34 1.378 . S
C33 H28 0.931 . S
C33 C34 1.348 . S
C33 C35 1.413 . S
C34 H29 0.930 . S
C34 C32 1.378 . S
C34 C33 1.348 . S
C35 C31 1.415 . S
C35 C33 1.413 . S
C35 C65 1.437 . S
H36 C65 0.929 . S
N37 Gd10 2.570 . S
N37 C38 1.359 . S
N37 C41 1.343 . S
C38 C31 1.422 . S
C38 N37 1.359 . S
C38 C40 1.421 . S
C39 C40 1.422 . S
C39 C42 1.321 . S
C39 H66 0.931 . S
C40 C38 1.421 . S
C40 C39 1.422 . S
C40 C64 1.417 . S
C41 H18 0.931 . S
C41 N37 1.343 . S
C41 C42 1.390 . S
C42 H20 0.930 . S
C42 C39 1.321 . S
C42 C41 1.390 . S
O43 Gd11 2.386 . S
O43 C55 1.265 . S
O44 Gd10 2.353 . S
O44 C55 1.242 . S
O45 Gd10 2.468 . S
O45 C63 1.263 . S
O46 Gd10 2.427 . S
O46 C63 1.252 . S
O47 Gd11 2.307 . S
O47 C56 1.261 . S
O48 Gd10 2.388 . S
O48 C56 1.252 . S
O49 Gd10 2.386 . S
O49 C67 1.265 . S
O50 Gd11 2.353 . S
O50 C67 1.242 . S
O51 Gd11 2.468 . S
O51 C75 1.263 . S
O52 Gd11 2.427 . S
O52 C75 1.252 . S
O53 Gd10 2.307 . S
O53 C68 1.261 . S
O54 Gd11 2.388 . S
O54 C68 1.252 . S
C55 O43 1.265 . S
C55 O44 1.242 . S
C56 O47 1.261 . S
C56 O48 1.252 . S
C57 C60 1.394 . S
C57 C62 1.370 . S
C57 C63 1.500 . S
C58 C61 1.383 . S
C58 C62 1.395 . S
C59 C60 1.396 . S
C59 C61 1.365 . S
C59 H76 0.929 . S
C60 C57 1.394 . S
C60 C59 1.396 . S
C60 H77 0.930 . S
C61 C58 1.383 . S
C61 C59 1.365 . S
C61 H78 0.931 . S
C62 C57 1.370 . S
C62 C58 1.395 . S
C62 H79 0.930 . S
C63 Gd10 2.805 . S
C63 O45 1.263 . S
C63 O46 1.252 . S
C63 C57 1.500 . S
C64 H26 0.930 . S
C64 C40 1.417 . S
C64 C65 1.329 . S
C65 C35 1.437 . S
C65 H36 0.929 . S
C65 C64 1.329 . S
H66 C39 0.931 . S
C67 O49 1.265 . S
C67 O50 1.242 . S
C68 O53 1.261 . S
C68 O54 1.252 . S
C69 C72 1.394 . S
C69 C74 1.370 . S
C69 C75 1.500 . S
C70 C73 1.383 . S
C70 C74 1.395 . S
C71 C72 1.396 . S
C71 C73 1.365 . S
C71 H80 0.929 . S
C72 C69 1.394 . S
C72 C71 1.396 . S
C72 H81 0.930 . S
C73 C70 1.383 . S
C73 C71 1.365 . S
C73 H82 0.931 . S
C74 C69 1.370 . S
C74 C70 1.395 . S
C74 H83 0.930 . S
C75 Gd11 2.805 . S
C75 O51 1.263 . S
C75 O52 1.252 . S
C75 C69 1.500 . S
H76 C59 0.929 . S
H77 C60 0.930 . S
H78 C61 0.931 . S
H79 C62 0.930 . S
H80 C71 0.929 . S
H81 C72 0.930 . S
H82 C73 0.931 . S
H83 C74 0.930 . S
C84 C86 1.422 . S
C84 C88 1.415 . S
C84 N90 1.369 . S
C85 C86 1.421 . S
C85 C87 1.417 . S
C85 C97 1.422 . S
C86 C84 1.422 . S
C86 C85 1.421 . S
C86 N96 1.359 . S
C87 C85 1.417 . S
C87 C89 1.329 . S
C87 H106 0.930 . S
C88 C84 1.415 . S
C88 C89 1.437 . S
C88 C92 1.413 . S
C89 C87 1.329 . S
C89 C88 1.437 . S
C89 H111 0.929 . S
N90 C84 1.369 . S
N90 C91 1.338 . S
N90 Gd95 2.622 . S
C91 N90 1.338 . S
C91 C93 1.378 . S
C91 H103 0.929 . S
C92 C88 1.413 . S
C92 C93 1.348 . S
C92 H108 0.931 . S
C93 C91 1.378 . S
C93 C92 1.348 . S
C93 H109 0.930 . S
Gd94 N114 2.622 . S
Gd94 N121 2.570 . S
Gd94 O128 2.353 . S
Gd94 O129 2.468 . S
Gd94 O130 2.427 . S
Gd94 O132 2.388 . S
Gd94 O133 2.386 . S
Gd94 O137 2.307 . S
Gd94 C147 2.805 . S
Gd95 N90 2.622 . S
Gd95 N96 2.570 . S
Gd95 O127 2.386 . S
Gd95 O131 2.307 . S
Gd95 O134 2.353 . S
Gd95 O135 2.468 . S
Gd95 O136 2.427 . S
Gd95 O138 2.388 . S
Gd95 C159 2.805 . S
N96 C86 1.359 . S
N96 Gd95 2.570 . S
N96 C98 1.343 . S
C97 C85 1.422 . S
C97 C99 1.321 . S
C97 H105 0.931 . S
C98 N96 1.343 . S
C98 C99 1.390 . S
C98 H100 0.931 . S
C99 C97 1.321 . S
C99 C98 1.390 . S
C99 H101 0.930 . S
H100 C98 0.931 . S
H101 C99 0.930 . S
H102 C125 0.931 . S
H103 C91 0.929 . S
H104 C126 0.930 . S
H105 C97 0.931 . S
H106 C87 0.930 . S
H107 C116 0.929 . S
H108 C92 0.931 . S
H109 C93 0.930 . S
H110 C148 0.930 . S
H111 C89 0.929 . S
H112 C117 0.931 . S
H113 C118 0.930 . S
N114 Gd94 2.622 . S
N114 C115 1.369 . S
N114 C116 1.338 . S
C115 N114 1.369 . S
C115 C119 1.415 . S
C115 C122 1.422 . S
C116 H107 0.929 . S
C116 N114 1.338 . S
C116 C118 1.378 . S
C117 H112 0.931 . S
C117 C118 1.348 . S
C117 C119 1.413 . S
C118 H113 0.930 . S
C118 C116 1.378 . S
C118 C117 1.348 . S
C119 C115 1.415 . S
C119 C117 1.413 . S
C119 C149 1.437 . S
H120 C149 0.929 . S
N121 Gd94 2.570 . S
N121 C122 1.359 . S
N121 C125 1.343 . S
C122 C115 1.422 . S
C122 N121 1.359 . S
C122 C124 1.421 . S
C123 C124 1.422 . S
C123 C126 1.321 . S
C123 H150 0.931 . S
C124 C122 1.421 . S
C124 C123 1.422 . S
C124 C148 1.417 . S
C125 H102 0.931 . S
C125 N121 1.343 . S
C125 C126 1.390 . S
C126 H104 0.930 . S
C126 C123 1.321 . S
C126 C125 1.390 . S
O127 Gd95 2.386 . S
O127 C139 1.265 . S
O128 Gd94 2.353 . S
O128 C139 1.242 . S
O129 Gd94 2.468 . S
O129 C147 1.263 . S
O130 Gd94 2.427 . S
O130 C147 1.252 . S
O131 Gd95 2.307 . S
O131 C140 1.261 . S
O132 Gd94 2.388 . S
O132 C140 1.252 . S
O133 Gd94 2.386 . S
O133 C151 1.265 . S
O134 Gd95 2.353 . S
O134 C151 1.242 . S
O135 Gd95 2.468 . S
O135 C159 1.263 . S
O136 Gd95 2.427 . S
O136 C159 1.252 . S
O137 Gd94 2.307 . S
O137 C152 1.261 . S
O138 Gd95 2.388 . S
O138 C152 1.252 . S
C139 O127 1.265 . S
C139 O128 1.242 . S
C140 O131 1.261 . S
C140 O132 1.252 . S
C141 C144 1.394 . S
C141 C146 1.370 . S
C141 C147 1.500 . S
C142 C145 1.383 . S
C142 C146 1.395 . S
C143 C144 1.396 . S
C143 C145 1.365 . S
C143 H160 0.929 . S
C144 C141 1.394 . S
C144 C143 1.396 . S
C144 H161 0.930 . S
C145 C142 1.383 . S
C145 C143 1.365 . S
C145 H162 0.931 . S
C146 C141 1.370 . S
C146 C142 1.395 . S
C146 H163 0.930 . S
C147 Gd94 2.805 . S
C147 O129 1.263 . S
C147 O130 1.252 . S
C147 C141 1.500 . S
C148 H110 0.930 . S
C148 C124 1.417 . S
C148 C149 1.329 . S
C149 C119 1.437 . S
C149 H120 0.929 . S
C149 C148 1.329 . S
H150 C123 0.931 . S
C151 O133 1.265 . S
C151 O134 1.242 . S
C152 O137 1.261 . S
C152 O138 1.252 . S
C153 C156 1.394 . S
C153 C158 1.370 . S
C153 C159 1.500 . S
C154 C157 1.383 . S
C154 C158 1.395 . S
C155 C156 1.396 . S
C155 C157 1.365 . S
C155 H164 0.929 . S
C156 C153 1.394 . S
C156 C155 1.396 . S
C156 H165 0.930 . S
C157 C154 1.383 . S
C157 C155 1.365 . S
C157 H166 0.931 . S
C158 C153 1.370 . S
C158 C154 1.395 . S
C158 H167 0.930 . S
C159 Gd95 2.805 . S
C159 O135 1.263 . S
C159 O136 1.252 . S
C159 C153 1.500 . S
H160 C143 0.929 . S
H161 C144 0.930 . S
H162 C145 0.931 . S
H163 C146 0.930 . S
H164 C155 0.929 . S
H165 C156 0.930 . S
H166 C157 0.931 . S
H167 C158 0.930 . S
C168 C170 1.422 . S
C168 C172 1.415 . S
C168 N174 1.369 . S
C169 C170 1.421 . S
C169 C171 1.417 . S
C169 C181 1.422 . S
C170 C168 1.422 . S
C170 C169 1.421 . S
C170 N180 1.359 . S
C171 C169 1.417 . S
C171 C173 1.329 . S
C171 H190 0.930 . S
C172 C168 1.415 . S
C172 C173 1.437 . S
C172 C176 1.413 . S
C173 C171 1.329 . S
C173 C172 1.437 . S
C173 H195 0.929 . S
N174 C168 1.369 . S
N174 C175 1.338 . S
N174 Gd179 2.622 . S
C175 N174 1.338 . S
C175 C177 1.378 . S
C175 H187 0.929 . S
C176 C172 1.413 . S
C176 C177 1.348 . S
C176 H192 0.931 . S
C177 C175 1.378 . S
C177 C176 1.348 . S
C177 H193 0.930 . S
Gd178 N198 2.622 . S
Gd178 N205 2.570 . S
Gd178 O212 2.353 . S
Gd178 O213 2.468 . S
Gd178 O214 2.427 . S
Gd178 O216 2.388 . S
Gd178 O217 2.386 . S
Gd178 O221 2.307 . S
Gd178 C231 2.805 . S
Gd179 N174 2.622 . S
Gd179 N180 2.570 . S
Gd179 O211 2.386 . S
Gd179 O215 2.307 . S
Gd179 O218 2.353 . S
Gd179 O219 2.468 . S
Gd179 O220 2.427 . S
Gd179 O222 2.388 . S
Gd179 C243 2.805 . S
N180 C170 1.359 . S
N180 Gd179 2.570 . S
N180 C182 1.343 . S
C181 C169 1.422 . S
C181 C183 1.321 . S
C181 H189 0.931 . S
C182 N180 1.343 . S
C182 C183 1.390 . S
C182 H184 0.931 . S
C183 C181 1.321 . S
C183 C182 1.390 . S
C183 H185 0.930 . S
H184 C182 0.931 . S
H185 C183 0.930 . S
H186 C209 0.931 . S
H187 C175 0.929 . S
H188 C210 0.930 . S
H189 C181 0.931 . S
H190 C171 0.930 . S
H191 C200 0.929 . S
H192 C176 0.931 . S
H193 C177 0.930 . S
H194 C232 0.930 . S
H195 C173 0.929 . S
H196 C201 0.931 . S
H197 C202 0.930 . S
N198 Gd178 2.622 . S
N198 C199 1.369 . S
N198 C200 1.338 . S
C199 N198 1.369 . S
C199 C203 1.415 . S
C199 C206 1.422 . S
C200 H191 0.929 . S
C200 N198 1.338 . S
C200 C202 1.378 . S
C201 H196 0.931 . S
C201 C202 1.348 . S
C201 C203 1.413 . S
C202 H197 0.930 . S
C202 C200 1.378 . S
C202 C201 1.348 . S
C203 C199 1.415 . S
C203 C201 1.413 . S
C203 C233 1.437 . S
H204 C233 0.929 . S
N205 Gd178 2.570 . S
N205 C206 1.359 . S
N205 C209 1.343 . S
C206 C199 1.422 . S
C206 N205 1.359 . S
C206 C208 1.421 . S
C207 C208 1.422 . S
C207 C210 1.321 . S
C207 H234 0.931 . S
C208 C206 1.421 . S
C208 C207 1.422 . S
C208 C232 1.417 . S
C209 H186 0.931 . S
C209 N205 1.343 . S
C209 C210 1.390 . S
C210 H188 0.930 . S
C210 C207 1.321 . S
C210 C209 1.390 . S
O211 Gd179 2.386 . S
O211 C223 1.265 . S
O212 Gd178 2.353 . S
O212 C223 1.242 . S
O213 Gd178 2.468 . S
O213 C231 1.263 . S
O214 Gd178 2.427 . S
O214 C231 1.252 . S
O215 Gd179 2.307 . S
O215 C224 1.261 . S
O216 Gd178 2.388 . S
O216 C224 1.252 . S
O217 Gd178 2.386 . S
O217 C235 1.265 . S
O218 Gd179 2.353 . S
O218 C235 1.242 . S
O219 Gd179 2.468 . S
O219 C243 1.263 . S
O220 Gd179 2.427 . S
O220 C243 1.252 . S
O221 Gd178 2.307 . S
O221 C236 1.261 . S
O222 Gd179 2.388 . S
O222 C236 1.252 . S
C223 O211 1.265 . S
C223 O212 1.242 . S
C224 O215 1.261 . S
C224 O216 1.252 . S
C225 C228 1.394 . S
C225 C230 1.370 . S
C225 C231 1.500 . S
C226 C229 1.383 . S
C226 C230 1.395 . S
C227 C228 1.396 . S
C227 C229 1.365 . S
C227 H244 0.929 . S
C228 C225 1.394 . S
C228 C227 1.396 . S
C228 H245 0.930 . S
C229 C226 1.383 . S
C229 C227 1.365 . S
C229 H246 0.931 . S
C230 C225 1.370 . S
C230 C226 1.395 . S
C230 H247 0.930 . S
C231 Gd178 2.805 . S
C231 O213 1.263 . S
C231 O214 1.252 . S
C231 C225 1.500 . S
C232 H194 0.930 . S
C232 C208 1.417 . S
C232 C233 1.329 . S
C233 C203 1.437 . S
C233 H204 0.929 . S
C233 C232 1.329 . S
H234 C207 0.931 . S
C235 O217 1.265 . S
C235 O218 1.242 . S
C236 O221 1.261 . S
C236 O222 1.252 . S
C237 C240 1.394 . S
C237 C242 1.370 . S
C237 C243 1.500 . S
C238 C241 1.383 . S
C238 C242 1.395 . S
C239 C240 1.396 . S
C239 C241 1.365 . S
C239 H248 0.929 . S
C240 C237 1.394 . S
C240 C239 1.396 . S
C240 H249 0.930 . S
C241 C238 1.383 . S
C241 C239 1.365 . S
C241 H250 0.931 . S
C242 C237 1.370 . S
C242 C238 1.395 . S
C242 H251 0.930 . S
C243 Gd179 2.805 . S
C243 O219 1.263 . S
C243 O220 1.252 . S
C243 C237 1.500 . S
H244 C227 0.929 . S
H245 C228 0.930 . S
H246 C229 0.931 . S
H247 C230 0.930 . S
H248 C239 0.929 . S
H249 C240 0.930 . S
H250 C241 0.931 . S
H251 C242 0.930 . S
C252 C254 1.422 . S
C252 C256 1.415 . S
C252 N258 1.369 . S
C253 C254 1.421 . S
C253 C255 1.417 . S
C253 C265 1.422 . S
C254 C252 1.422 . S
C254 C253 1.421 . S
C254 N264 1.359 . S
C255 C253 1.417 . S
C255 C257 1.329 . S
C255 H274 0.930 . S
C256 C252 1.415 . S
C256 C257 1.437 . S
C256 C260 1.413 . S
C257 C255 1.329 . S
C257 C256 1.437 . S
C257 H279 0.929 . S
N258 C252 1.369 . S
N258 C259 1.338 . S
N258 Gd263 2.622 . S
C259 N258 1.338 . S
C259 C261 1.378 . S
C259 H271 0.929 . S
C260 C256 1.413 . S
C260 C261 1.348 . S
C260 H276 0.931 . S
C261 C259 1.378 . S
C261 C260 1.348 . S
C261 H277 0.930 . S
Gd262 N282 2.622 . S
Gd262 N289 2.570 . S
Gd262 O296 2.353 . S
Gd262 O297 2.468 . S
Gd262 O298 2.427 . S
Gd262 O300 2.388 . S
Gd262 O301 2.386 . S
Gd262 O305 2.307 . S
Gd262 C315 2.805 . S
Gd263 N258 2.622 . S
Gd263 N264 2.570 . S
Gd263 O295 2.386 . S
Gd263 O299 2.307 . S
Gd263 O302 2.353 . S
Gd263 O303 2.468 . S
Gd263 O304 2.427 . S
Gd263 O306 2.388 . S
Gd263 C327 2.805 . S
N264 C254 1.359 . S
N264 Gd263 2.570 . S
N264 C266 1.343 . S
C265 C253 1.422 . S
C265 C267 1.321 . S
C265 H273 0.931 . S
C266 N264 1.343 . S
C266 C267 1.390 . S
C266 H268 0.931 . S
C267 C265 1.321 . S
C267 C266 1.390 . S
C267 H269 0.930 . S
H268 C266 0.931 . S
H269 C267 0.930 . S
H270 C293 0.931 . S
H271 C259 0.929 . S
H272 C294 0.930 . S
H273 C265 0.931 . S
H274 C255 0.930 . S
H275 C284 0.929 . S
H276 C260 0.931 . S
H277 C261 0.930 . S
H278 C316 0.930 . S
H279 C257 0.929 . S
H280 C285 0.931 . S
H281 C286 0.930 . S
N282 Gd262 2.622 . S
N282 C283 1.369 . S
N282 C284 1.338 . S
C283 N282 1.369 . S
C283 C287 1.415 . S
C283 C290 1.422 . S
C284 H275 0.929 . S
C284 N282 1.338 . S
C284 C286 1.378 . S
C285 H280 0.931 . S
C285 C286 1.348 . S
C285 C287 1.413 . S
C286 H281 0.930 . S
C286 C284 1.378 . S
C286 C285 1.348 . S
C287 C283 1.415 . S
C287 C285 1.413 . S
C287 C317 1.437 . S
H288 C317 0.929 . S
N289 Gd262 2.570 . S
N289 C290 1.359 . S
N289 C293 1.343 . S
C290 C283 1.422 . S
C290 N289 1.359 . S
C290 C292 1.421 . S
C291 C292 1.422 . S
C291 C294 1.321 . S
C291 H318 0.931 . S
C292 C290 1.421 . S
C292 C291 1.422 . S
C292 C316 1.417 . S
C293 H270 0.931 . S
C293 N289 1.343 . S
C293 C294 1.390 . S
C294 H272 0.930 . S
C294 C291 1.321 . S
C294 C293 1.390 . S
O295 Gd263 2.386 . S
O295 C307 1.265 . S
O296 Gd262 2.353 . S
O296 C307 1.242 . S
O297 Gd262 2.468 . S
O297 C315 1.263 . S
O298 Gd262 2.427 . S
O298 C315 1.252 . S
O299 Gd263 2.307 . S
O299 C308 1.261 . S
O300 Gd262 2.388 . S
O300 C308 1.252 . S
O301 Gd262 2.386 . S
O301 C319 1.265 . S
O302 Gd263 2.353 . S
O302 C319 1.242 . S
O303 Gd263 2.468 . S
O303 C327 1.263 . S
O304 Gd263 2.427 . S
O304 C327 1.252 . S
O305 Gd262 2.307 . S
O305 C320 1.261 . S
O306 Gd263 2.388 . S
O306 C320 1.252 . S
C307 O295 1.265 . S
C307 O296 1.242 . S
C308 O299 1.261 . S
C308 O300 1.252 . S
C309 C312 1.394 . S
C309 C314 1.370 . S
C309 C315 1.500 . S
C310 C313 1.383 . S
C310 C314 1.395 . S
C311 C312 1.396 . S
C311 C313 1.365 . S
C311 H328 0.929 . S
C312 C309 1.394 . S
C312 C311 1.396 . S
C312 H329 0.930 . S
C313 C310 1.383 . S
C313 C311 1.365 . S
C313 H330 0.931 . S
C314 C309 1.370 . S
C314 C310 1.395 . S
C314 H331 0.930 . S
C315 Gd262 2.805 . S
C315 O297 1.263 . S
C315 O298 1.252 . S
C315 C309 1.500 . S
C316 H278 0.930 . S
C316 C292 1.417 . S
C316 C317 1.329 . S
C317 C287 1.437 . S
C317 H288 0.929 . S
C317 C316 1.329 . S
H318 C291 0.931 . S
C319 O301 1.265 . S
C319 O302 1.242 . S
C320 O305 1.261 . S
C320 O306 1.252 . S
C321 C324 1.394 . S
C321 C326 1.370 . S
C321 C327 1.500 . S
C322 C325 1.383 . S
C322 C326 1.395 . S
C323 C324 1.396 . S
C323 C325 1.365 . S
C323 H332 0.929 . S
C324 C321 1.394 . S
C324 C323 1.396 . S
C324 H333 0.930 . S
C325 C322 1.383 . S
C325 C323 1.365 . S
C325 H334 0.931 . S
C326 C321 1.370 . S
C326 C322 1.395 . S
C326 H335 0.930 . S
C327 Gd263 2.805 . S
C327 O303 1.263 . S
C327 O304 1.252 . S
C327 C321 1.500 . S
H328 C311 0.929 . S
H329 C312 0.930 . S
H330 C313 0.931 . S
H331 C314 0.930 . S
H332 C323 0.929 . S
H333 C324 0.930 . S
H334 C325 0.931 . S
H335 C326 0.930 . S
C336 C338 1.422 . S
C336 C340 1.415 . S
C336 N342 1.369 . S
C337 C338 1.421 . S
C337 C339 1.417 . S
C337 C349 1.422 . S
C338 C336 1.422 . S
C338 C337 1.421 . S
C338 N348 1.359 . S
C339 C337 1.417 . S
C339 C341 1.329 . S
C339 H358 0.930 . S
C340 C336 1.415 . S
C340 C341 1.437 . S
C340 C344 1.413 . S
C341 C339 1.329 . S
C341 C340 1.437 . S
C341 H363 0.929 . S
N342 C336 1.369 . S
N342 C343 1.338 . S
N342 Gd347 2.622 . S
C343 N342 1.338 . S
C343 C345 1.378 . S
C343 H355 0.929 . S
C344 C340 1.413 . S
C344 C345 1.348 . S
C344 H360 0.931 . S
C345 C343 1.378 . S
C345 C344 1.348 . S
C345 H361 0.930 . S
Gd346 N366 2.622 . S
Gd346 N373 2.570 . S
Gd346 O380 2.353 . S
Gd346 O381 2.468 . S
Gd346 O382 2.427 . S
Gd346 O384 2.388 . S
Gd346 O385 2.386 . S
Gd346 O389 2.307 . S
Gd346 C399 2.805 . S
Gd347 N342 2.622 . S
Gd347 N348 2.570 . S
Gd347 O379 2.386 . S
Gd347 O383 2.307 . S
Gd347 O386 2.353 . S
Gd347 O387 2.468 . S
Gd347 O388 2.427 . S
Gd347 O390 2.388 . S
Gd347 C411 2.805 . S
N348 C338 1.359 . S
N348 Gd347 2.570 . S
N348 C350 1.343 . S
C349 C337 1.422 . S
C349 C351 1.321 . S
C349 H357 0.931 . S
C350 N348 1.343 . S
C350 C351 1.390 . S
C350 H352 0.931 . S
C351 C349 1.321 . S
C351 C350 1.390 . S
C351 H353 0.930 . S
H352 C350 0.931 . S
H353 C351 0.930 . S
H354 C377 0.931 . S
H355 C343 0.929 . S
H356 C378 0.930 . S
H357 C349 0.931 . S
H358 C339 0.930 . S
H359 C368 0.929 . S
H360 C344 0.931 . S
H361 C345 0.930 . S
H362 C400 0.930 . S
H363 C341 0.929 . S
H364 C369 0.931 . S
H365 C370 0.930 . S
N366 Gd346 2.622 . S
N366 C367 1.369 . S
N366 C368 1.338 . S
C367 N366 1.369 . S
C367 C371 1.415 . S
C367 C374 1.422 . S
C368 H359 0.929 . S
C368 N366 1.338 . S
C368 C370 1.378 . S
C369 H364 0.931 . S
C369 C370 1.348 . S
C369 C371 1.413 . S
C370 H365 0.930 . S
C370 C368 1.378 . S
C370 C369 1.348 . S
C371 C367 1.415 . S
C371 C369 1.413 . S
C371 C401 1.437 . S
H372 C401 0.929 . S
N373 Gd346 2.570 . S
N373 C374 1.359 . S
N373 C377 1.343 . S
C374 C367 1.422 . S
C374 N373 1.359 . S
C374 C376 1.421 . S
C375 C376 1.422 . S
C375 C378 1.321 . S
C375 H402 0.931 . S
C376 C374 1.421 . S
C376 C375 1.422 . S
C376 C400 1.417 . S
C377 H354 0.931 . S
C377 N373 1.343 . S
C377 C378 1.390 . S
C378 H356 0.930 . S
C378 C375 1.321 . S
C378 C377 1.390 . S
O379 Gd347 2.386 . S
O379 C391 1.265 . S
O380 Gd346 2.353 . S
O380 C391 1.242 . S
O381 Gd346 2.468 . S
O381 C399 1.263 . S
O382 Gd346 2.427 . S
O382 C399 1.252 . S
O383 Gd347 2.307 . S
O383 C392 1.261 . S
O384 Gd346 2.388 . S
O384 C392 1.252 . S
O385 Gd346 2.386 . S
O385 C403 1.265 . S
O386 Gd347 2.353 . S
O386 C403 1.242 . S
O387 Gd347 2.468 . S
O387 C411 1.263 . S
O388 Gd347 2.427 . S
O388 C411 1.252 . S
O389 Gd346 2.307 . S
O389 C404 1.261 . S
O390 Gd347 2.388 . S
O390 C404 1.252 . S
C391 O379 1.265 . S
C391 O380 1.242 . S
C392 O383 1.261 . S
C392 O384 1.252 . S
C393 C396 1.394 . S
C393 C398 1.370 . S
C393 C399 1.500 . S
C394 C397 1.383 . S
C394 C398 1.395 . S
C395 C396 1.396 . S
C395 C397 1.365 . S
C395 H412 0.929 . S
C396 C393 1.394 . S
C396 C395 1.396 . S
C396 H413 0.930 . S
C397 C394 1.383 . S
C397 C395 1.365 . S
C397 H414 0.931 . S
C398 C393 1.370 . S
C398 C394 1.395 . S
C398 H415 0.930 . S
C399 Gd346 2.805 . S
C399 O381 1.263 . S
C399 O382 1.252 . S
C399 C393 1.500 . S
C400 H362 0.930 . S
C400 C376 1.417 . S
C400 C401 1.329 . S
C401 C371 1.437 . S
C401 H372 0.929 . S
C401 C400 1.329 . S
H402 C375 0.931 . S
C403 O385 1.265 . S
C403 O386 1.242 . S
C404 O389 1.261 . S
C404 O390 1.252 . S
C405 C408 1.394 . S
C405 C410 1.370 . S
C405 C411 1.500 . S
C406 C409 1.383 . S
C406 C410 1.395 . S
C407 C408 1.396 . S
C407 C409 1.365 . S
C407 H416 0.929 . S
C408 C405 1.394 . S
C408 C407 1.396 . S
C408 H417 0.930 . S
C409 C406 1.383 . S
C409 C407 1.365 . S
C409 H418 0.931 . S
C410 C405 1.370 . S
C410 C406 1.395 . S
C410 H419 0.930 . S
C411 Gd347 2.805 . S
C411 O387 1.263 . S
C411 O388 1.252 . S
C411 C405 1.500 . S
H412 C395 0.929 . S
H413 C396 0.930 . S
H414 C397 0.931 . S
H415 C398 0.930 . S
H416 C407 0.929 . S
H417 C408 0.930 . S
H418 C409 0.931 . S
H419 C410 0.930 . S
C420 C422 1.422 . S
C420 C424 1.415 . S
C420 N426 1.369 . S
C421 C422 1.421 . S
C421 C423 1.417 . S
C421 C433 1.422 . S
C422 C420 1.422 . S
C422 C421 1.421 . S
C422 N432 1.359 . S
C423 C421 1.417 . S
C423 C425 1.329 . S
C423 H442 0.930 . S
C424 C420 1.415 . S
C424 C425 1.437 . S
C424 C428 1.413 . S
C425 C423 1.329 . S
C425 C424 1.437 . S
C425 H447 0.929 . S
N426 C420 1.369 . S
N426 C427 1.338 . S
N426 Gd431 2.622 . S
C427 N426 1.338 . S
C427 C429 1.378 . S
C427 H439 0.929 . S
C428 C424 1.413 . S
C428 C429 1.348 . S
C428 H444 0.931 . S
C429 C427 1.378 . S
C429 C428 1.348 . S
C429 H445 0.930 . S
Gd430 N450 2.622 . S
Gd430 N457 2.570 . S
Gd430 O464 2.353 . S
Gd430 O465 2.468 . S
Gd430 O466 2.427 . S
Gd430 O468 2.388 . S
Gd430 O469 2.386 . S
Gd430 O473 2.307 . S
Gd430 C483 2.805 . S
Gd431 N426 2.622 . S
Gd431 N432 2.570 . S
Gd431 O463 2.386 . S
Gd431 O467 2.307 . S
Gd431 O470 2.353 . S
Gd431 O471 2.468 . S
Gd431 O472 2.427 . S
Gd431 O474 2.388 . S
Gd431 C495 2.805 . S
N432 C422 1.359 . S
N432 Gd431 2.570 . S
N432 C434 1.343 . S
C433 C421 1.422 . S
C433 C435 1.321 . S
C433 H441 0.931 . S
C434 N432 1.343 . S
C434 C435 1.390 . S
C434 H436 0.931 . S
C435 C433 1.321 . S
C435 C434 1.390 . S
C435 H437 0.930 . S
H436 C434 0.931 . S
H437 C435 0.930 . S
H438 C461 0.931 . S
H439 C427 0.929 . S
H440 C462 0.930 . S
H441 C433 0.931 . S
H442 C423 0.930 . S
H443 C452 0.929 . S
H444 C428 0.931 . S
H445 C429 0.930 . S
H446 C484 0.930 . S
H447 C425 0.929 . S
H448 C453 0.931 . S
H449 C454 0.930 . S
N450 Gd430 2.622 . S
N450 C451 1.369 . S
N450 C452 1.338 . S
C451 N450 1.369 . S
C451 C455 1.415 . S
C451 C458 1.422 . S
C452 H443 0.929 . S
C452 N450 1.338 . S
C452 C454 1.378 . S
C453 H448 0.931 . S
C453 C454 1.348 . S
C453 C455 1.413 . S
C454 H449 0.930 . S
C454 C452 1.378 . S
C454 C453 1.348 . S
C455 C451 1.415 . S
C455 C453 1.413 . S
C455 C485 1.437 . S
H456 C485 0.929 . S
N457 Gd430 2.570 . S
N457 C458 1.359 . S
N457 C461 1.343 . S
C458 C451 1.422 . S
C458 N457 1.359 . S
C458 C460 1.421 . S
C459 C460 1.422 . S
C459 C462 1.321 . S
C459 H486 0.931 . S
C460 C458 1.421 . S
C460 C459 1.422 . S
C460 C484 1.417 . S
C461 H438 0.931 . S
C461 N457 1.343 . S
C461 C462 1.390 . S
C462 H440 0.930 . S
C462 C459 1.321 . S
C462 C461 1.390 . S
O463 Gd431 2.386 . S
O463 C475 1.265 . S
O464 Gd430 2.353 . S
O464 C475 1.242 . S
O465 Gd430 2.468 . S
O465 C483 1.263 . S
O466 Gd430 2.427 . S
O466 C483 1.252 . S
O467 Gd431 2.307 . S
O467 C476 1.261 . S
O468 Gd430 2.388 . S
O468 C476 1.252 . S
O469 Gd430 2.386 . S
O469 C487 1.265 . S
O470 Gd431 2.353 . S
O470 C487 1.242 . S
O471 Gd431 2.468 . S
O471 C495 1.263 . S
O472 Gd431 2.427 . S
O472 C495 1.252 . S
O473 Gd430 2.307 . S
O473 C488 1.261 . S
O474 Gd431 2.388 . S
O474 C488 1.252 . S
C475 O463 1.265 . S
C475 O464 1.242 . S
C476 O467 1.261 . S
C476 O468 1.252 . S
C477 C480 1.394 . S
C477 C482 1.370 . S
C477 C483 1.500 . S
C478 C481 1.383 . S
C478 C482 1.395 . S
C479 C480 1.396 . S
C479 C481 1.365 . S
C479 H496 0.929 . S
C480 C477 1.394 . S
C480 C479 1.396 . S
C480 H497 0.930 . S
C481 C478 1.383 . S
C481 C479 1.365 . S
C481 H498 0.931 . S
C482 C477 1.370 . S
C482 C478 1.395 . S
C482 H499 0.930 . S
C483 Gd430 2.805 . S
C483 O465 1.263 . S
C483 O466 1.252 . S
C483 C477 1.500 . S
C484 H446 0.930 . S
C484 C460 1.417 . S
C484 C485 1.329 . S
C485 C455 1.437 . S
C485 H456 0.929 . S
C485 C484 1.329 . S
H486 C459 0.931 . S
C487 O469 1.265 . S
C487 O470 1.242 . S
C488 O473 1.261 . S
C488 O474 1.252 . S
C489 C492 1.394 . S
C489 C494 1.370 . S
C489 C495 1.500 . S
C490 C493 1.383 . S
C490 C494 1.395 . S
C491 C492 1.396 . S
C491 C493 1.365 . S
C491 H500 0.929 . S
C492 C489 1.394 . S
C492 C491 1.396 . S
C492 H501 0.930 . S
C493 C490 1.383 . S
C493 C491 1.365 . S
C493 H502 0.931 . S
C494 C489 1.370 . S
C494 C490 1.395 . S
C494 H503 0.930 . S
C495 Gd431 2.805 . S
C495 O471 1.263 . S
C495 O472 1.252 . S
C495 C489 1.500 . S
H496 C479 0.929 . S
H497 C480 0.930 . S
H498 C481 0.931 . S
H499 C482 0.930 . S
H500 C491 0.929 . S
H501 C492 0.930 . S
H502 C493 0.931 . S
H503 C494 0.930 . S
C504 C506 1.422 . S
C504 C508 1.415 . S
C504 N510 1.369 . S
C505 C506 1.421 . S
C505 C507 1.417 . S
C505 C517 1.422 . S
C506 C504 1.422 . S
C506 C505 1.421 . S
C506 N516 1.359 . S
C507 C505 1.417 . S
C507 C509 1.329 . S
C507 H526 0.930 . S
C508 C504 1.415 . S
C508 C509 1.437 . S
C508 C512 1.413 . S
C509 C507 1.329 . S
C509 C508 1.437 . S
C509 H531 0.929 . S
N510 C504 1.369 . S
N510 C511 1.338 . S
N510 Gd515 2.622 . S
C511 N510 1.338 . S
C511 C513 1.378 . S
C511 H523 0.929 . S
C512 C508 1.413 . S
C512 C513 1.348 . S
C512 H528 0.931 . S
C513 C511 1.378 . S
C513 C512 1.348 . S
C513 H529 0.930 . S
Gd514 N534 2.622 . S
Gd514 N541 2.570 . S
Gd514 O548 2.353 . S
Gd514 O549 2.468 . S
Gd514 O550 2.427 . S
Gd514 O552 2.388 . S
Gd514 O553 2.386 . S
Gd514 O557 2.307 . S
Gd514 C567 2.805 . S
Gd515 N510 2.622 . S
Gd515 N516 2.570 . S
Gd515 O547 2.386 . S
Gd515 O551 2.307 . S
Gd515 O554 2.353 . S
Gd515 O555 2.468 . S
Gd515 O556 2.427 . S
Gd515 O558 2.388 . S
Gd515 C579 2.805 . S
N516 C506 1.359 . S
N516 Gd515 2.570 . S
N516 C518 1.343 . S
C517 C505 1.422 . S
C517 C519 1.321 . S
C517 H525 0.931 . S
C518 N516 1.343 . S
C518 C519 1.390 . S
C518 H520 0.931 . S
C519 C517 1.321 . S
C519 C518 1.390 . S
C519 H521 0.930 . S
H520 C518 0.931 . S
H521 C519 0.930 . S
H522 C545 0.931 . S
H523 C511 0.929 . S
H524 C546 0.930 . S
H525 C517 0.931 . S
H526 C507 0.930 . S
H527 C536 0.929 . S
H528 C512 0.931 . S
H529 C513 0.930 . S
H530 C568 0.930 . S
H531 C509 0.929 . S
H532 C537 0.931 . S
H533 C538 0.930 . S
N534 Gd514 2.622 . S
N534 C535 1.369 . S
N534 C536 1.338 . S
C535 N534 1.369 . S
C535 C539 1.415 . S
C535 C542 1.422 . S
C536 H527 0.929 . S
C536 N534 1.338 . S
C536 C538 1.378 . S
C537 H532 0.931 . S
C537 C538 1.348 . S
C537 C539 1.413 . S
C538 H533 0.930 . S
C538 C536 1.378 . S
C538 C537 1.348 . S
C539 C535 1.415 . S
C539 C537 1.413 . S
C539 C569 1.437 . S
H540 C569 0.929 . S
N541 Gd514 2.570 . S
N541 C542 1.359 . S
N541 C545 1.343 . S
C542 C535 1.422 . S
C542 N541 1.359 . S
C542 C544 1.421 . S
C543 C544 1.422 . S
C543 C546 1.321 . S
C543 H570 0.931 . S
C544 C542 1.421 . S
C544 C543 1.422 . S
C544 C568 1.417 . S
C545 H522 0.931 . S
C545 N541 1.343 . S
C545 C546 1.390 . S
C546 H524 0.930 . S
C546 C543 1.321 . S
C546 C545 1.390 . S
O547 Gd515 2.386 . S
O547 C559 1.265 . S
O548 Gd514 2.353 . S
O548 C559 1.242 . S
O549 Gd514 2.468 . S
O549 C567 1.263 . S
O550 Gd514 2.427 . S
O550 C567 1.252 . S
O551 Gd515 2.307 . S
O551 C560 1.261 . S
O552 Gd514 2.388 . S
O552 C560 1.252 . S
O553 Gd514 2.386 . S
O553 C571 1.265 . S
O554 Gd515 2.353 . S
O554 C571 1.242 . S
O555 Gd515 2.468 . S
O555 C579 1.263 . S
O556 Gd515 2.427 . S
O556 C579 1.252 . S
O557 Gd514 2.307 . S
O557 C572 1.261 . S
O558 Gd515 2.388 . S
O558 C572 1.252 . S
C559 O547 1.265 . S
C559 O548 1.242 . S
C560 O551 1.261 . S
C560 O552 1.252 . S
C561 C564 1.394 . S
C561 C566 1.370 . S
C561 C567 1.500 . S
C562 C565 1.383 . S
C562 C566 1.395 . S
C563 C564 1.396 . S
C563 C565 1.365 . S
C563 H580 0.929 . S
C564 C561 1.394 . S
C564 C563 1.396 . S
C564 H581 0.930 . S
C565 C562 1.383 . S
C565 C563 1.365 . S
C565 H582 0.931 . S
C566 C561 1.370 . S
C566 C562 1.395 . S
C566 H583 0.930 . S
C567 Gd514 2.805 . S
C567 O549 1.263 . S
C567 O550 1.252 . S
C567 C561 1.500 . S
C568 H530 0.930 . S
C568 C544 1.417 . S
C568 C569 1.329 . S
C569 C539 1.437 . S
C569 H540 0.929 . S
C569 C568 1.329 . S
H570 C543 0.931 . S
C571 O553 1.265 . S
C571 O554 1.242 . S
C572 O557 1.261 . S
C572 O558 1.252 . S
C573 C576 1.394 . S
C573 C578 1.370 . S
C573 C579 1.500 . S
C574 C577 1.383 . S
C574 C578 1.395 . S
C575 C576 1.396 . S
C575 C577 1.365 . S
C575 H584 0.929 . S
C576 C573 1.394 . S
C576 C575 1.396 . S
C576 H585 0.930 . S
C577 C574 1.383 . S
C577 C575 1.365 . S
C577 H586 0.931 . S
C578 C573 1.370 . S
C578 C574 1.395 . S
C578 H587 0.930 . S
C579 Gd515 2.805 . S
C579 O555 1.263 . S
C579 O556 1.252 . S
C579 C573 1.500 . S
H580 C563 0.929 . S
H581 C564 0.930 . S
H582 C565 0.931 . S
H583 C566 0.930 . S
H584 C575 0.929 . S
H585 C576 0.930 . S
H586 C577 0.931 . S
H587 C578 0.930 . S
C588 C590 1.422 . S
C588 C592 1.415 . S
C588 N594 1.369 . S
C589 C590 1.421 . S
C589 C591 1.417 . S
C589 C601 1.422 . S
C590 C588 1.422 . S
C590 C589 1.421 . S
C590 N600 1.359 . S
C591 C589 1.417 . S
C591 C593 1.329 . S
C591 H610 0.930 . S
C592 C588 1.415 . S
C592 C593 1.437 . S
C592 C596 1.413 . S
C593 C591 1.329 . S
C593 C592 1.437 . S
C593 H615 0.929 . S
N594 C588 1.369 . S
N594 C595 1.338 . S
N594 Gd599 2.622 . S
C595 N594 1.338 . S
C595 C597 1.378 . S
C595 H607 0.929 . S
C596 C592 1.413 . S
C596 C597 1.348 . S
C596 H612 0.931 . S
C597 C595 1.378 . S
C597 C596 1.348 . S
C597 H613 0.930 . S
Gd598 N618 2.622 . S
Gd598 N625 2.570 . S
Gd598 O632 2.353 . S
Gd598 O633 2.468 . S
Gd598 O634 2.427 . S
Gd598 O636 2.388 . S
Gd598 O637 2.386 . S
Gd598 O641 2.307 . S
Gd598 C651 2.805 . S
Gd599 N594 2.622 . S
Gd599 N600 2.570 . S
Gd599 O631 2.386 . S
Gd599 O635 2.307 . S
Gd599 O638 2.353 . S
Gd599 O639 2.468 . S
Gd599 O640 2.427 . S
Gd599 O642 2.388 . S
Gd599 C663 2.805 . S
N600 C590 1.359 . S
N600 Gd599 2.570 . S
N600 C602 1.343 . S
C601 C589 1.422 . S
C601 C603 1.321 . S
C601 H609 0.931 . S
C602 N600 1.343 . S
C602 C603 1.390 . S
C602 H604 0.931 . S
C603 C601 1.321 . S
C603 C602 1.390 . S
C603 H605 0.930 . S
H604 C602 0.931 . S
H605 C603 0.930 . S
H606 C629 0.931 . S
H607 C595 0.929 . S
H608 C630 0.930 . S
H609 C601 0.931 . S
H610 C591 0.930 . S
H611 C620 0.929 . S
H612 C596 0.931 . S
H613 C597 0.930 . S
H614 C652 0.930 . S
H615 C593 0.929 . S
H616 C621 0.931 . S
H617 C622 0.930 . S
N618 Gd598 2.622 . S
N618 C619 1.369 . S
N618 C620 1.338 . S
C619 N618 1.369 . S
C619 C623 1.415 . S
C619 C626 1.422 . S
C620 H611 0.929 . S
C620 N618 1.338 . S
C620 C622 1.378 . S
C621 H616 0.931 . S
C621 C622 1.348 . S
C621 C623 1.413 . S
C622 H617 0.930 . S
C622 C620 1.378 . S
C622 C621 1.348 . S
C623 C619 1.415 . S
C623 C621 1.413 . S
C623 C653 1.437 . S
H624 C653 0.929 . S
N625 Gd598 2.570 . S
N625 C626 1.359 . S
N625 C629 1.343 . S
C626 C619 1.422 . S
C626 N625 1.359 . S
C626 C628 1.421 . S
C627 C628 1.422 . S
C627 C630 1.321 . S
C627 H654 0.931 . S
C628 C626 1.421 . S
C628 C627 1.422 . S
C628 C652 1.417 . S
C629 H606 0.931 . S
C629 N625 1.343 . S
C629 C630 1.390 . S
C630 H608 0.930 . S
C630 C627 1.321 . S
C630 C629 1.390 . S
O631 Gd599 2.386 . S
O631 C643 1.265 . S
O632 Gd598 2.353 . S
O632 C643 1.242 . S
O633 Gd598 2.468 . S
O633 C651 1.263 . S
O634 Gd598 2.427 . S
O634 C651 1.252 . S
O635 Gd599 2.307 . S
O635 C644 1.261 . S
O636 Gd598 2.388 . S
O636 C644 1.252 . S
O637 Gd598 2.386 . S
O637 C655 1.265 . S
O638 Gd599 2.353 . S
O638 C655 1.242 . S
O639 Gd599 2.468 . S
O639 C663 1.263 . S
O640 Gd599 2.427 . S
O640 C663 1.252 . S
O641 Gd598 2.307 . S
O641 C656 1.261 . S
O642 Gd599 2.388 . S
O642 C656 1.252 . S
C643 O631 1.265 . S
C643 O632 1.242 . S
C644 O635 1.261 . S
C644 O636 1.252 . S
C645 C648 1.394 . S
C645 C650 1.370 . S
C645 C651 1.500 . S
C646 C649 1.383 . S
C646 C650 1.395 . S
C647 C648 1.396 . S
C647 C649 1.365 . S
C647 H664 0.929 . S
C648 C645 1.394 . S
C648 C647 1.396 . S
C648 H665 0.930 . S
C649 C646 1.383 . S
C649 C647 1.365 . S
C649 H666 0.931 . S
C650 C645 1.370 . S
C650 C646 1.395 . S
C650 H667 0.930 . S
C651 Gd598 2.805 . S
C651 O633 1.263 . S
C651 O634 1.252 . S
C651 C645 1.500 . S
C652 H614 0.930 . S
C652 C628 1.417 . S
C652 C653 1.329 . S
C653 C623 1.437 . S
C653 H624 0.929 . S
C653 C652 1.329 . S
H654 C627 0.931 . S
C655 O637 1.265 . S
C655 O638 1.242 . S
C656 O641 1.261 . S
C656 O642 1.252 . S
C657 C660 1.394 . S
C657 C662 1.370 . S
C657 C663 1.500 . S
C658 C661 1.383 . S
C658 C662 1.395 . S
C659 C660 1.396 . S
C659 C661 1.365 . S
C659 H668 0.929 . S
C660 C657 1.394 . S
C660 C659 1.396 . S
C660 H669 0.930 . S
C661 C658 1.383 . S
C661 C659 1.365 . S
C661 H670 0.931 . S
C662 C657 1.370 . S
C662 C658 1.395 . S
C662 H671 0.930 . S
C663 Gd599 2.805 . S
C663 O639 1.263 . S
C663 O640 1.252 . S
C663 C657 1.500 . S
H664 C647 0.929 . S
H665 C648 0.930 . S
H666 C649 0.931 . S
H667 C650 0.930 . S
H668 C659 0.929 . S
H669 C660 0.930 . S
H670 C661 0.931 . S
H671 C662 0.930 . S
C672 O684 1.241 . S
C672 O685 1.280 . S
C673 O686 1.277 . S
C673 O687 1.245 . S
C674 O698 1.247 . S
C674 O700 1.289 . S
Mg675 O676 1.926 . S
Mg675 O685 1.984 . S
Mg675 O687 1.988 . S
Mg675 O688 2.061 1_655 S
O676 Mg675 1.926 . S
O676 Mg677 1.986 1_545 S
O676 Mg678 1.916 1_655 S
Mg677 O676 1.986 1_565 S
Mg677 O684 2.042 1_565 S
Mg677 O686 2.040 1_565 S
Mg677 O692 2.039 . S
Mg677 O700 2.238 . S
Mg678 O676 1.916 1_455 S
Mg678 O679 1.918 1_545 S
Mg678 O689 2.107 . S
Mg678 O691 2.078 1_445 S
Mg678 O700 2.105 1_445 S
Mg678 O701 2.079 . S
O679 Mg678 1.918 1_565 S
O679 Mg680 1.926 . S
O679 Mg681 1.984 1_565 S
Mg680 O679 1.926 . S
Mg680 O694 1.984 . S
Mg680 O697 1.988 . S
Mg680 O698 2.061 1_455 S
Mg681 O679 1.984 1_545 S
Mg681 O689 2.245 . S
Mg681 O693 2.035 1_545 S
Mg681 O695 2.033 1_545 S
Mg681 O702 2.046 . S
C682 O688 1.247 . S
C682 O689 1.289 . S
C683 O701 1.245 . S
C683 O702 1.274 . S
O684 C672 1.241 . S
O684 Mg677 2.042 1_545 S
O685 C672 1.280 . S
O685 Mg675 1.984 . S
O686 C673 1.277 . S
O686 Mg677 2.040 1_545 S
O687 C673 1.245 . S
O687 Mg675 1.988 . S
O688 Mg675 2.061 1_455 S
O688 C682 1.247 . S
O689 Mg678 2.107 . S
O689 Mg681 2.245 . S
O689 C682 1.289 . S
C690 O691 1.245 . S
C690 O692 1.274 . S
O691 Mg678 2.078 1_665 S
O691 C690 1.245 . S
O692 Mg677 2.039 . S
O692 C690 1.274 . S
O693 Mg681 2.035 1_565 S
O693 C696 1.241 . S
O694 Mg680 1.984 . S
O694 C696 1.280 . S
O695 Mg681 2.033 1_565 S
O695 C699 1.277 . S
C696 O693 1.241 . S
C696 O694 1.280 . S
O697 Mg680 1.988 . S
O697 C699 1.245 . S
O698 C674 1.247 . S
O698 Mg680 2.061 1_655 S
C699 O695 1.277 . S
C699 O697 1.245 . S
O700 C674 1.289 . S
O700 Mg677 2.238 . S
O700 Mg678 2.105 1_665 S
O701 Mg678 2.079 . S
O701 C683 1.245 . S
O702 Mg681 2.046 . S
O702 C683 1.274 . S
C703 O715 1.241 . S
C703 O716 1.280 . S
C704 O717 1.277 . S
C704 O718 1.245 . S
C705 O729 1.247 . S
C705 O731 1.289 . S
Mg706 O707 1.926 . S
Mg706 O716 1.984 . S
Mg706 O718 1.988 1_554 S
Mg706 O719 2.061 . S
O707 Mg706 1.926 . S
O707 Mg708 1.986 1_545 S
O707 Mg709 1.917 . S
Mg708 O707 1.986 1_565 S
Mg708 O715 2.042 1_565 S
Mg708 O717 2.040 1_564 S
Mg708 O723 2.039 . S
Mg708 O731 2.238 1_554 S
Mg709 O707 1.917 . S
Mg709 O710 1.917 1_544 S
Mg709 O720 2.106 . S
Mg709 O722 2.079 1_545 S
Mg709 O731 2.106 1_544 S
Mg709 O732 2.079 1_554 S
O710 Mg709 1.917 1_566 S
O710 Mg711 1.926 . S
O710 Mg712 1.984 1_565 S
Mg711 O710 1.926 . S
Mg711 O725 1.984 . S
Mg711 O728 1.988 1_556 S
Mg711 O729 2.061 . S
Mg712 O710 1.984 1_545 S
Mg712 O720 2.245 1_556 S
Mg712 O724 2.035 1_545 S
Mg712 O726 2.033 1_546 S
Mg712 O733 2.046 . S
C713 O719 1.247 . S
C713 O720 1.289 . S
C714 O732 1.245 . S
C714 O733 1.274 . S
O715 C703 1.241 . S
O715 Mg708 2.042 1_545 S
O716 C703 1.280 . S
O716 Mg706 1.984 . S
O717 C704 1.277 . S
O717 Mg708 2.040 1_546 S
O718 C704 1.245 . S
O718 Mg706 1.988 1_556 S
O719 Mg706 2.061 . S
O719 C713 1.247 . S
O720 Mg709 2.106 . S
O720 Mg712 2.245 1_554 S
O720 C713 1.289 . S
C721 O722 1.245 . S
C721 O723 1.274 . S
O722 Mg709 2.079 1_565 S
O722 C721 1.245 . S
O723 Mg708 2.039 . S
O723 C721 1.274 . S
O724 Mg712 2.035 1_565 S
O724 C727 1.241 . S
O725 Mg711 1.984 . S
O725 C727 1.280 . S
O726 Mg712 2.033 1_564 S
O726 C730 1.277 . S
C727 O724 1.241 . S
C727 O725 1.280 . S
O728 Mg711 1.988 1_554 S
O728 C730 1.245 . S
O729 C705 1.247 . S
O729 Mg711 2.061 . S
C730 O726 1.277 . S
C730 O728 1.245 . S
O731 C705 1.289 . S
O731 Mg708 2.238 1_556 S
O731 Mg709 2.106 1_566 S
O732 Mg709 2.079 1_556 S
O732 C714 1.245 . S
O733 Mg712 2.046 . S
O733 C714 1.274 . S
C734 O746 1.241 . S
C734 O747 1.280 . S
C735 O748 1.277 . S
C735 O749 1.245 . S
C736 O760 1.247 . S
C736 O762 1.289 . S
Mg737 O738 1.926 . S
Mg737 O747 1.984 . S
Mg737 O749 1.988 1_554 S
Mg737 O750 2.061 1_655 S
O738 Mg737 1.926 . S
O738 Mg739 1.986 . S
O738 Mg740 1.916 1_655 S
Mg739 O738 1.986 . S
Mg739 O746 2.042 . S
Mg739 O748 2.041 1_554 S
Mg739 O754 2.038 . S
Mg739 O762 2.238 1_554 S
Mg740 O738 1.916 1_455 S
Mg740 O741 1.918 1_554 S
Mg740 O751 2.108 . S
Mg740 O753 2.079 1_455 S
Mg740 O762 2.105 1_454 S
Mg740 O763 2.079 1_554 S
O741 Mg740 1.918 1_556 S
O741 Mg742 1.926 . S
O741 Mg743 1.986 . S
Mg742 O741 1.926 . S
Mg742 O756 1.984 . S
Mg742 O759 1.988 1_556 S
Mg742 O760 2.061 1_455 S
Mg743 O741 1.986 . S
Mg743 O751 2.238 1_556 S
Mg743 O755 2.042 . S
Mg743 O757 2.041 1_556 S
Mg743 O764 2.038 . S
C744 O750 1.247 . S
C744 O751 1.289 . S
C745 O763 1.245 . S
C745 O764 1.274 . S
O746 C734 1.241 . S
O746 Mg739 2.042 . S
O747 C734 1.280 . S
O747 Mg737 1.984 . S
O748 C735 1.277 . S
O748 Mg739 2.041 1_556 S
O749 C735 1.245 . S
O749 Mg737 1.988 1_556 S
O750 Mg737 2.061 1_455 S
O750 C744 1.247 . S
O751 Mg740 2.108 . S
O751 Mg743 2.238 1_554 S
O751 C744 1.289 . S
C752 O753 1.245 . S
C752 O754 1.274 . S
O753 Mg740 2.079 1_655 S
O753 C752 1.245 . S
O754 Mg739 2.038 . S
O754 C752 1.274 . S
O755 Mg743 2.042 . S
O755 C758 1.241 . S
O756 Mg742 1.984 . S
O756 C758 1.280 . S
O757 Mg743 2.041 1_554 S
O757 C761 1.277 . S
C758 O755 1.241 . S
C758 O756 1.280 . S
O759 Mg742 1.988 1_554 S
O759 C761 1.245 . S
O760 C736 1.247 . S
O760 Mg742 2.061 1_655 S
C761 O757 1.277 . S
C761 O759 1.245 . S
O762 C736 1.289 . S
O762 Mg739 2.238 1_556 S
O762 Mg740 2.105 1_656 S
O763 Mg740 2.079 1_556 S
O763 C745 1.245 . S
O764 Mg743 2.038 . S
O764 C745 1.274 . S
C765 O777 1.241 . S
C765 O778 1.280 . S
C766 O779 1.277 . S
C766 O780 1.245 . S
C767 O791 1.247 . S
C767 O793 1.289 . S
Mg768 O769 1.926 . S
Mg768 O778 1.984 . S
Mg768 O780 1.988 1_554 S
Mg768 O781 2.061 . S
O769 Mg768 1.926 . S
O769 Mg770 1.986 . S
O769 Mg771 1.917 . S
Mg770 O769 1.986 . S
Mg770 O777 2.042 . S
Mg770 O779 2.041 1_554 S
Mg770 O785 2.038 . S
Mg770 O793 2.238 1_554 S
Mg771 O769 1.917 . S
Mg771 O772 1.917 1_554 S
Mg771 O782 2.106 . S
Mg771 O784 2.079 . S
Mg771 O793 2.106 1_554 S
Mg771 O794 2.079 1_554 S
O772 Mg771 1.917 1_556 S
O772 Mg773 1.926 . S
O772 Mg774 1.986 . S
Mg773 O772 1.926 . S
Mg773 O787 1.984 . S
Mg773 O790 1.988 1_556 S
Mg773 O791 2.061 . S
Mg774 O772 1.986 . S
Mg774 O782 2.238 1_556 S
Mg774 O786 2.042 . S
Mg774 O788 2.041 1_556 S
Mg774 O795 2.038 . S
C775 O781 1.247 . S
C775 O782 1.289 . S
C776 O794 1.245 . S
C776 O795 1.274 . S
O777 C765 1.241 . S
O777 Mg770 2.042 . S
O778 C765 1.280 . S
O778 Mg768 1.984 . S
O779 C766 1.277 . S
O779 Mg770 2.041 1_556 S
O780 C766 1.245 . S
O780 Mg768 1.988 1_556 S
O781 Mg768 2.061 . S
O781 C775 1.247 . S
O782 Mg771 2.106 . S
O782 Mg774 2.238 1_554 S
O782 C775 1.289 . S
C783 O784 1.245 . S
C783 O785 1.274 . S
O784 Mg771 2.079 . S
O784 C783 1.245 . S
O785 Mg770 2.038 . S
O785 C783 1.274 . S
O786 Mg774 2.042 . S
O786 C789 1.241 . S
O787 Mg773 1.984 . S
O787 C789 1.280 . S
O788 Mg774 2.041 1_554 S
O788 C792 1.277 . S
C789 O786 1.241 . S
C789 O787 1.280 . S
O790 Mg773 1.988 1_554 S
O790 C792 1.245 . S
O791 C767 1.247 . S
O791 Mg773 2.061 . S
C792 O788 1.277 . S
C792 O790 1.245 . S
O793 C767 1.289 . S
O793 Mg770 2.238 1_556 S
O793 Mg771 2.106 1_556 S
O794 Mg771 2.079 1_556 S
O794 C776 1.245 . S
O795 Mg774 2.038 . S
O795 C776 1.274 . S
C796 O808 1.241 . S
C796 O809 1.280 . S
C797 O810 1.277 . S
C797 O811 1.245 . S
C798 O822 1.247 . S
C798 O824 1.289 . S
Mg799 O800 1.926 . S
Mg799 O809 1.984 . S
Mg799 O811 1.988 . S
Mg799 O812 2.061 1_655 S
O800 Mg799 1.926 . S
O800 Mg801 1.986 . S
O800 Mg802 1.916 1_655 S
Mg801 O800 1.986 . S
Mg801 O808 2.042 . S
Mg801 O810 2.041 . S
Mg801 O816 2.038 . S
Mg801 O824 2.238 . S
Mg802 O800 1.916 1_455 S
Mg802 O803 1.918 . S
Mg802 O813 2.107 . S
Mg802 O815 2.079 1_455 S
Mg802 O824 2.106 1_455 S
Mg802 O825 2.079 . S
O803 Mg802 1.918 . S
O803 Mg804 1.926 . S
O803 Mg805 1.986 . S
Mg804 O803 1.926 . S
Mg804 O818 1.984 . S
Mg804 O821 1.988 . S
Mg804 O822 2.061 1_455 S
Mg805 O803 1.986 . S
Mg805 O813 2.238 . S
Mg805 O817 2.042 . S
Mg805 O819 2.041 . S
Mg805 O826 2.038 . S
C806 O812 1.247 . S
C806 O813 1.289 . S
C807 O825 1.245 . S
C807 O826 1.274 . S
O808 C796 1.241 . S
O808 Mg801 2.042 . S
O809 C796 1.280 . S
O809 Mg799 1.984 . S
O810 C797 1.277 . S
O810 Mg801 2.041 . S
O811 C797 1.245 . S
O811 Mg799 1.988 . S
O812 Mg799 2.061 1_455 S
O812 C806 1.247 . S
O813 Mg802 2.107 . S
O813 Mg805 2.238 . S
O813 C806 1.289 . S
C814 O815 1.245 . S
C814 O816 1.274 . S
O815 Mg802 2.079 1_655 S
O815 C814 1.245 . S
O816 Mg801 2.038 . S
O816 C814 1.274 . S
O817 Mg805 2.042 . S
O817 C820 1.241 . S
O818 Mg804 1.984 . S
O818 C820 1.280 . S
O819 Mg805 2.041 . S
O819 C823 1.277 . S
C820 O817 1.241 . S
C820 O818 1.280 . S
O821 Mg804 1.988 . S
O821 C823 1.245 . S
O822 C798 1.247 . S
O822 Mg804 2.061 1_655 S
C823 O819 1.277 . S
C823 O821 1.245 . S
O824 C798 1.289 . S
O824 Mg801 2.238 . S
O824 Mg802 2.106 1_655 S
O825 Mg802 2.079 . S
O825 C807 1.245 . S
O826 Mg805 2.038 . S
O826 C807 1.274 . S
C827 O839 1.241 . S
C827 O840 1.280 . S
C828 O841 1.277 . S
C828 O842 1.245 . S
C829 O853 1.247 . S
C829 O855 1.289 . S
Mg830 O831 1.926 . S
Mg830 O840 1.984 . S
Mg830 O842 1.988 . S
Mg830 O843 2.061 . S
O831 Mg830 1.926 . S
O831 Mg832 1.986 1_545 S
O831 Mg833 1.917 . S
Mg832 O831 1.986 1_565 S
Mg832 O839 2.042 1_565 S
Mg832 O841 2.040 1_565 S
Mg832 O847 2.039 . S
Mg832 O855 2.238 . S
Mg833 O831 1.917 . S
Mg833 O834 1.917 1_545 S
Mg833 O844 2.106 . S
Mg833 O846 2.079 1_545 S
Mg833 O855 2.106 1_545 S
Mg833 O856 2.079 . S
O834 Mg833 1.917 1_565 S
O834 Mg835 1.926 . S
O834 Mg836 1.984 1_565 S
Mg835 O834 1.926 . S
Mg835 O849 1.984 . S
Mg835 O852 1.988 . S
Mg835 O853 2.061 . S
Mg836 O834 1.984 1_545 S
Mg836 O844 2.245 . S
Mg836 O848 2.035 1_545 S
Mg836 O850 2.033 1_545 S
Mg836 O857 2.046 . S
C837 O843 1.247 . S
C837 O844 1.289 . S
C838 O856 1.245 . S
C838 O857 1.274 . S
O839 C827 1.241 . S
O839 Mg832 2.042 1_545 S
O840 C827 1.280 . S
O840 Mg830 1.984 . S
O841 C828 1.277 . S
O841 Mg832 2.040 1_545 S
O842 C828 1.245 . S
O842 Mg830 1.988 . S
O843 Mg830 2.061 . S
O843 C837 1.247 . S
O844 Mg833 2.106 . S
O844 Mg836 2.245 . S
O844 C837 1.289 . S
C845 O846 1.245 . S
C845 O847 1.274 . S
O846 Mg833 2.079 1_565 S
O846 C845 1.245 . S
O847 Mg832 2.039 . S
O847 C845 1.274 . S
O848 Mg836 2.035 1_565 S
O848 C851 1.241 . S
O849 Mg835 1.984 . S
O849 C851 1.280 . S
O850 Mg836 2.033 1_565 S
O850 C854 1.277 . S
C851 O848 1.241 . S
C851 O849 1.280 . S
O852 Mg835 1.988 . S
O852 C854 1.245 . S
O853 C829 1.247 . S
O853 Mg835 2.061 . S
C854 O850 1.277 . S
C854 O852 1.245 . S
O855 C829 1.289 . S
O855 Mg832 2.238 . S
O855 Mg833 2.106 1_565 S
O856 Mg833 2.079 . S
O856 C838 1.245 . S
O857 Mg836 2.046 . S
O857 C838 1.274 . S
H858 C866 0.929 . S
H859 C868 0.930 . S
H860 C870 0.930 . S
H861 C873 0.929 . S
H862 C876 0.930 . S
H863 C878 0.960 . S
H864 C878 0.960 . S
H865 C878 0.960 . S
C866 H858 0.929 . S
C866 C867 1.377 . S
C866 C868 1.384 . S
C867 C866 1.377 . S
C867 C873 1.390 . S
C868 H859 0.930 . S
C868 C866 1.384 . S
C868 C869 1.372 . S
C869 C868 1.372 . S
C869 C870 1.400 . S
C869 C874 1.490 . S
C870 H860 0.930 . S
C870 C869 1.400 . S
C870 C873 1.386 . S
H871 C887 0.930 . S
H872 C888 0.931 . S
C873 H861 0.929 . S
C873 C867 1.390 . S
C873 C870 1.386 . S
C874 C869 1.490 . S
C874 C876 1.395 . S
C874 C877 1.403 . S
H875 C881 0.930 . S
C876 H862 0.930 . S
C876 C874 1.395 . S
C876 C879 1.403 . S
C877 C874 1.403 . S
C877 C878 1.524 . S
C877 C881 1.400 . S
C878 H863 0.960 . S
C878 H864 0.960 . S
C878 H865 0.960 . S
C878 C877 1.524 . S
C879 C876 1.403 . S
C879 C880 1.392 . S
C879 C883 1.495 . S
C880 C879 1.392 . S
C880 C881 1.385 . S
C880 C882 1.478 . S
C881 H875 0.930 . S
C881 C877 1.400 . S
C881 C880 1.385 . S
C882 C880 1.478 . S
C882 C884 1.381 . S
C882 C888 1.383 . S
C883 C879 1.495 . S
C883 H889 0.959 . S
C883 H890 0.961 . S
C883 H891 0.960 . S
C884 C882 1.381 . S
C884 C885 1.394 . S
C884 H892 0.930 . S
C885 C884 1.394 . S
C885 C886 1.383 . S
C885 H893 0.929 . S
C886 C885 1.383 . S
C886 C887 1.377 . S
C887 H871 0.930 . S
C887 C886 1.377 . S
C887 C888 1.379 . S
C888 H872 0.931 . S
C888 C882 1.383 . S
C888 C887 1.379 . S
H889 C883 0.959 . S
H890 C883 0.961 . S
H891 C883 0.960 . S
H892 C884 0.930 . S
H893 C885 0.929 . S
H894 C902 0.929 . S
H895 C904 0.930 . S
H896 C906 0.930 . S
H897 C909 0.929 . S
H898 C912 0.930 . S
H899 C914 0.960 . S
H900 C914 0.960 . S
H901 C914 0.960 . S
C902 H894 0.929 . S
C902 C903 1.377 . S
C902 C904 1.384 . S
C903 C902 1.377 . S
C903 C909 1.390 . S
C904 H895 0.930 . S
C904 C902 1.384 . S
C904 C905 1.372 . S
C905 C904 1.372 . S
C905 C906 1.400 . S
C905 C910 1.490 . S
C906 H896 0.930 . S
C906 C905 1.400 . S
C906 C909 1.386 . S
H907 C923 0.930 . S
H908 C924 0.931 . S
C909 H897 0.929 . S
C909 C903 1.390 . S
C909 C906 1.386 . S
C910 C905 1.490 . S
C910 C912 1.395 . S
C910 C913 1.403 . S
H911 C917 0.930 . S
C912 H898 0.930 . S
C912 C910 1.395 . S
C912 C915 1.403 . S
C913 C910 1.403 . S
C913 C914 1.524 . S
C913 C917 1.400 . S
C914 H899 0.960 . S
C914 H900 0.960 . S
C914 H901 0.960 . S
C914 C913 1.524 . S
C915 C912 1.403 . S
C915 C916 1.392 . S
C915 C919 1.495 . S
C916 C915 1.392 . S
C916 C917 1.385 . S
C916 C918 1.478 . S
C917 H911 0.930 . S
C917 C913 1.400 . S
C917 C916 1.385 . S
C918 C916 1.478 . S
C918 C920 1.381 . S
C918 C924 1.383 . S
C919 C915 1.495 . S
C919 H925 0.959 . S
C919 H926 0.961 . S
C919 H927 0.960 . S
C920 C918 1.381 . S
C920 C921 1.394 . S
C920 H928 0.930 . S
C921 C920 1.394 . S
C921 C922 1.383 . S
C921 H929 0.929 . S
C922 C921 1.383 . S
C922 C923 1.377 . S
C923 H907 0.930 . S
C923 C922 1.377 . S
C923 C924 1.379 . S
C924 H908 0.931 . S
C924 C918 1.383 . S
C924 C923 1.379 . S
H925 C919 0.959 . S
H926 C919 0.961 . S
H927 C919 0.960 . S
H928 C920 0.930 . S
H929 C921 0.929 . S
H930 C938 0.929 . S
H931 C940 0.930 . S
H932 C942 0.930 . S
H933 C945 0.929 . S
H934 C948 0.930 . S
H935 C950 0.960 . S
H936 C950 0.960 . S
H937 C950 0.960 . S
C938 H930 0.929 . S
C938 C939 1.377 . S
C938 C940 1.384 . S
C939 C938 1.377 . S
C939 C945 1.390 . S
C940 H931 0.930 . S
C940 C938 1.384 . S
C940 C941 1.372 . S
C941 C940 1.372 . S
C941 C942 1.400 . S
C941 C946 1.490 . S
C942 H932 0.930 . S
C942 C941 1.400 . S
C942 C945 1.386 . S
H943 C959 0.930 . S
H944 C960 0.931 . S
C945 H933 0.929 . S
C945 C939 1.390 . S
C945 C942 1.386 . S
C946 C941 1.490 . S
C946 C948 1.395 . S
C946 C949 1.403 . S
H947 C953 0.930 . S
C948 H934 0.930 . S
C948 C946 1.395 . S
C948 C951 1.403 . S
C949 C946 1.403 . S
C949 C950 1.524 . S
C949 C953 1.400 . S
C950 H935 0.960 . S
C950 H936 0.960 . S
C950 H937 0.960 . S
C950 C949 1.524 . S
C951 C948 1.403 . S
C951 C952 1.392 . S
C951 C955 1.495 . S
C952 C951 1.392 . S
C952 C953 1.385 . S
C952 C954 1.478 . S
C953 H947 0.930 . S
C953 C949 1.400 . S
C953 C952 1.385 . S
C954 C952 1.478 . S
C954 C956 1.381 . S
C954 C960 1.383 . S
C955 C951 1.495 . S
C955 H961 0.959 . S
C955 H962 0.961 . S
C955 H963 0.960 . S
C956 C954 1.381 . S
C956 C957 1.394 . S
C956 H964 0.930 . S
C957 C956 1.394 . S
C957 C958 1.383 . S
C957 H965 0.929 . S
C958 C957 1.383 . S
C958 C959 1.377 . S
C959 H943 0.930 . S
C959 C958 1.377 . S
C959 C960 1.379 . S
C960 H944 0.931 . S
C960 C954 1.383 . S
C960 C959 1.379 . S
H961 C955 0.959 . S
H962 C955 0.961 . S
H963 C955 0.960 . S
H964 C956 0.930 . S
H965 C957 0.929 . S
H966 C974 0.929 . S
H967 C976 0.930 . S
H968 C978 0.930 . S
H969 C981 0.929 . S
H970 C984 0.930 . S
H971 C986 0.960 . S
H972 C986 0.960 . S
H973 C986 0.960 . S
C974 H966 0.929 . S
C974 C975 1.377 . S
C974 C976 1.384 . S
C975 C974 1.377 . S
C975 C981 1.390 . S
C976 H967 0.930 . S
C976 C974 1.384 . S
C976 C977 1.372 . S
C977 C976 1.372 . S
C977 C978 1.400 . S
C977 C982 1.490 . S
C978 H968 0.930 . S
C978 C977 1.400 . S
C978 C981 1.386 . S
H979 C995 0.930 . S
H980 C996 0.931 . S
C981 H969 0.929 . S
C981 C975 1.390 . S
C981 C978 1.386 . S
C982 C977 1.490 . S
C982 C984 1.395 . S
C982 C985 1.403 . S
H983 C989 0.930 . S
C984 H970 0.930 . S
C984 C982 1.395 . S
C984 C987 1.403 . S
C985 C982 1.403 . S
C985 C986 1.524 . S
C985 C989 1.400 . S
C986 H971 0.960 . S
C986 H972 0.960 . S
C986 H973 0.960 . S
C986 C985 1.524 . S
C987 C984 1.403 . S
C987 C988 1.392 . S
C987 C991 1.495 . S
C988 C987 1.392 . S
C988 C989 1.385 . S
C988 C990 1.478 . S
C989 H983 0.930 . S
C989 C985 1.400 . S
C989 C988 1.385 . S
C990 C988 1.478 . S
C990 C992 1.381 . S
C990 C996 1.383 . S
C991 C987 1.495 . S
C991 H997 0.959 . S
C991 H998 0.961 . S
C991 H999 0.960 . S
C992 C990 1.381 . S
C992 C993 1.394 . S
C992 H1000 0.930 . S
C993 C992 1.394 . S
C993 C994 1.383 . S
C993 H1001 0.929 . S
C994 C993 1.383 . S
C994 C995 1.377 . S
C995 H979 0.930 . S
C995 C994 1.377 . S
C995 C996 1.379 . S
C996 H980 0.931 . S
C996 C990 1.383 . S
C996 C995 1.379 . S
H997 C991 0.959 . S
H998 C991 0.961 . S
H999 C991 0.960 . S
H1000 C992 0.930 . S
H1001 C993 0.929 . S
H1002 C1010 0.929 . S
H1003 C1012 0.930 . S
H1004 C1014 0.930 . S
H1005 C1017 0.929 . S
H1006 C1020 0.930 . S
H1007 C1022 0.960 . S
H1008 C1022 0.960 . S
H1009 C1022 0.960 . S
C1010 H1002 0.929 . S
C1010 C1011 1.377 . S
C1010 C1012 1.384 . S
C1011 C1010 1.377 . S
C1011 C1017 1.390 . S
C1012 H1003 0.930 . S
C1012 C1010 1.384 . S
C1012 C1013 1.372 . S
C1013 C1012 1.372 . S
C1013 C1014 1.400 . S
C1013 C1018 1.490 . S
C1014 H1004 0.930 . S
C1014 C1013 1.400 . S
C1014 C1017 1.386 . S
H1015 C1031 0.930 . S
H1016 C1032 0.931 . S
C1017 H1005 0.929 . S
C1017 C1011 1.390 . S
C1017 C1014 1.386 . S
C1018 C1013 1.490 . S
C1018 C1020 1.395 . S
C1018 C1021 1.403 . S
H1019 C1025 0.930 . S
C1020 H1006 0.930 . S
C1020 C1018 1.395 . S
C1020 C1023 1.403 . S
C1021 C1018 1.403 . S
C1021 C1022 1.524 . S
C1021 C1025 1.400 . S
C1022 H1007 0.960 . S
C1022 H1008 0.960 . S
C1022 H1009 0.960 . S
C1022 C1021 1.524 . S
C1023 C1020 1.403 . S
C1023 C1024 1.392 . S
C1023 C1027 1.495 . S
C1024 C1023 1.392 . S
C1024 C1025 1.385 . S
C1024 C1026 1.478 . S
C1025 H1019 0.930 . S
C1025 C1021 1.400 . S
C1025 C1024 1.385 . S
C1026 C1024 1.478 . S
C1026 C1028 1.381 . S
C1026 C1032 1.383 . S
C1027 C1023 1.495 . S
C1027 H1033 0.959 . S
C1027 H1034 0.961 . S
C1027 H1035 0.960 . S
C1028 C1026 1.381 . S
C1028 C1029 1.394 . S
C1028 H1036 0.930 . S
C1029 C1028 1.394 . S
C1029 C1030 1.383 . S
C1029 H1037 0.929 . S
C1030 C1029 1.383 . S
C1030 C1031 1.377 . S
C1031 H1015 0.930 . S
C1031 C1030 1.377 . S
C1031 C1032 1.379 . S
C1032 H1016 0.931 . S
C1032 C1026 1.383 . S
C1032 C1031 1.379 . S
H1033 C1027 0.959 . S
H1034 C1027 0.961 . S
H1035 C1027 0.960 . S
H1036 C1028 0.930 . S
H1037 C1029 0.929 . S
H1038 C1046 0.929 . S
H1039 C1048 0.930 . S
H1040 C1050 0.930 . S
H1041 C1053 0.929 . S
H1042 C1056 0.930 . S
H1043 C1058 0.960 . S
H1044 C1058 0.960 . S
H1045 C1058 0.960 . S
C1046 H1038 0.929 . S
C1046 C1047 1.377 . S
C1046 C1048 1.384 . S
C1047 C1046 1.377 . S
C1047 C1053 1.390 . S
C1048 H1039 0.930 . S
C1048 C1046 1.384 . S
C1048 C1049 1.372 . S
C1049 C1048 1.372 . S
C1049 C1050 1.400 . S
C1049 C1054 1.490 . S
C1050 H1040 0.930 . S
C1050 C1049 1.400 . S
C1050 C1053 1.386 . S
H1051 C1067 0.930 . S
H1052 C1068 0.931 . S
C1053 H1041 0.929 . S
C1053 C1047 1.390 . S
C1053 C1050 1.386 . S
C1054 C1049 1.490 . S
C1054 C1056 1.395 . S
C1054 C1057 1.403 . S
H1055 C1061 0.930 . S
C1056 H1042 0.930 . S
C1056 C1054 1.395 . S
C1056 C1059 1.403 . S
C1057 C1054 1.403 . S
C1057 C1058 1.524 . S
C1057 C1061 1.400 . S
C1058 H1043 0.960 . S
C1058 H1044 0.960 . S
C1058 H1045 0.960 . S
C1058 C1057 1.524 . S
C1059 C1056 1.403 . S
C1059 C1060 1.392 . S
C1059 C1063 1.495 . S
C1060 C1059 1.392 . S
C1060 C1061 1.385 . S
C1060 C1062 1.478 . S
C1061 H1055 0.930 . S
C1061 C1057 1.400 . S
C1061 C1060 1.385 . S
C1062 C1060 1.478 . S
C1062 C1064 1.381 . S
C1062 C1068 1.383 . S
C1063 C1059 1.495 . S
C1063 H1069 0.959 . S
C1063 H1070 0.961 . S
C1063 H1071 0.960 . S
C1064 C1062 1.381 . S
C1064 C1065 1.394 . S
C1064 H1072 0.930 . S
C1065 C1064 1.394 . S
C1065 C1066 1.383 . S
C1065 H1073 0.929 . S
C1066 C1065 1.383 . S
C1066 C1067 1.377 . S
C1067 H1051 0.930 . S
C1067 C1066 1.377 . S
C1067 C1068 1.379 . S
C1068 H1052 0.931 . S
C1068 C1062 1.383 . S
C1068 C1067 1.379 . S
H1069 C1063 0.959 . S
H1070 C1063 0.961 . S
H1071 C1063 0.960 . S
H1072 C1064 0.930 . S
H1073 C1065 0.929 . S
H1074 C1082 0.929 . S
H1075 C1084 0.930 . S
H1076 C1086 0.930 . S
H1077 C1089 0.929 . S
H1078 C1092 0.930 . S
H1079 C1094 0.960 . S
H1080 C1094 0.960 . S
H1081 C1094 0.960 . S
C1082 H1074 0.929 . S
C1082 C1083 1.377 . S
C1082 C1084 1.384 . S
C1083 C1082 1.377 . S
C1083 C1089 1.390 . S
C1084 H1075 0.930 . S
C1084 C1082 1.384 . S
C1084 C1085 1.372 . S
C1085 C1084 1.372 . S
C1085 C1086 1.400 . S
C1085 C1090 1.490 . S
C1086 H1076 0.930 . S
C1086 C1085 1.400 . S
C1086 C1089 1.386 . S
H1087 C1103 0.930 . S
H1088 C1104 0.931 . S
C1089 H1077 0.929 . S
C1089 C1083 1.390 . S
C1089 C1086 1.386 . S
C1090 C1085 1.490 . S
C1090 C1092 1.395 . S
C1090 C1093 1.403 . S
H1091 C1097 0.930 . S
C1092 H1078 0.930 . S
C1092 C1090 1.395 . S
C1092 C1095 1.403 . S
C1093 C1090 1.403 . S
C1093 C1094 1.524 . S
C1093 C1097 1.400 . S
C1094 H1079 0.960 . S
C1094 H1080 0.960 . S
C1094 H1081 0.960 . S
C1094 C1093 1.524 . S
C1095 C1092 1.403 . S
C1095 C1096 1.392 . S
C1095 C1099 1.495 . S
C1096 C1095 1.392 . S
C1096 C1097 1.385 . S
C1096 C1098 1.478 . S
C1097 H1091 0.930 . S
C1097 C1093 1.400 . S
C1097 C1096 1.385 . S
C1098 C1096 1.478 . S
C1098 C1100 1.381 . S
C1098 C1104 1.383 . S
C1099 C1095 1.495 . S
C1099 H1105 0.959 . S
C1099 H1106 0.961 . S
C1099 H1107 0.960 . S
C1100 C1098 1.381 . S
C1100 C1101 1.394 . S
C1100 H1108 0.930 . S
C1101 C1100 1.394 . S
C1101 C1102 1.383 . S
C1101 H1109 0.929 . S
C1102 C1101 1.383 . S
C1102 C1103 1.377 . S
C1103 H1087 0.930 . S
C1103 C1102 1.377 . S
C1103 C1104 1.379 . S
C1104 H1088 0.931 . S
C1104 C1098 1.383 . S
C1104 C1103 1.379 . S
H1105 C1099 0.959 . S
H1106 C1099 0.961 . S
H1107 C1099 0.960 . S
H1108 C1100 0.930 . S
H1109 C1101 0.929 . S
H1110 C1118 0.929 . S
H1111 C1120 0.930 . S
H1112 C1122 0.930 . S
H1113 C1125 0.929 . S
H1114 C1128 0.930 . S
H1115 C1130 0.960 . S
H1116 C1130 0.960 . S
H1117 C1130 0.960 . S
C1118 H1110 0.929 . S
C1118 C1119 1.377 . S
C1118 C1120 1.384 . S
C1119 C1118 1.377 . S
C1119 C1125 1.390 . S
C1120 H1111 0.930 . S
C1120 C1118 1.384 . S
C1120 C1121 1.372 . S
C1121 C1120 1.372 . S
C1121 C1122 1.400 . S
C1121 C1126 1.490 . S
C1122 H1112 0.930 . S
C1122 C1121 1.400 . S
C1122 C1125 1.386 . S
H1123 C1139 0.930 . S
H1124 C1140 0.931 . S
C1125 H1113 0.929 . S
C1125 C1119 1.390 . S
C1125 C1122 1.386 . S
C1126 C1121 1.490 . S
C1126 C1128 1.395 . S
C1126 C1129 1.403 . S
H1127 C1133 0.930 . S
C1128 H1114 0.930 . S
C1128 C1126 1.395 . S
C1128 C1131 1.403 . S
C1129 C1126 1.403 . S
C1129 C1130 1.524 . S
C1129 C1133 1.400 . S
C1130 H1115 0.960 . S
C1130 H1116 0.960 . S
C1130 H1117 0.960 . S
C1130 C1129 1.524 . S
C1131 C1128 1.403 . S
C1131 C1132 1.392 . S
C1131 C1135 1.495 . S
C1132 C1131 1.392 . S
C1132 C1133 1.385 . S
C1132 C1134 1.478 . S
C1133 H1127 0.930 . S
C1133 C1129 1.400 . S
C1133 C1132 1.385 . S
C1134 C1132 1.478 . S
C1134 C1136 1.381 . S
C1134 C1140 1.383 . S
C1135 C1131 1.495 . S
C1135 H1141 0.959 . S
C1135 H1142 0.961 . S
C1135 H1143 0.960 . S
C1136 C1134 1.381 . S
C1136 C1137 1.394 . S
C1136 H1144 0.930 . S
C1137 C1136 1.394 . S
C1137 C1138 1.383 . S
C1137 H1145 0.929 . S
C1138 C1137 1.383 . S
C1138 C1139 1.377 . S
C1139 H1123 0.930 . S
C1139 C1138 1.377 . S
C1139 C1140 1.379 . S
C1140 H1124 0.931 . S
C1140 C1134 1.383 . S
C1140 C1139 1.379 . S
H1141 C1135 0.959 . S
H1142 C1135 0.961 . S
H1143 C1135 0.960 . S
H1144 C1136 0.930 . S
H1145 C1137 0.929 . S
H1146 C1154 0.929 . S
H1147 C1156 0.930 . S
H1148 C1158 0.930 . S
H1149 C1161 0.929 . S
H1150 C1164 0.930 . S
H1151 C1166 0.960 . S
H1152 C1166 0.960 . S
H1153 C1166 0.960 . S
C1154 H1146 0.929 . S
C1154 C1155 1.377 . S
C1154 C1156 1.384 . S
C1155 C1154 1.377 . S
C1155 C1161 1.390 . S
C1156 H1147 0.930 . S
C1156 C1154 1.384 . S
C1156 C1157 1.372 . S
C1157 C1156 1.372 . S
C1157 C1158 1.400 . S
C1157 C1162 1.490 . S
C1158 H1148 0.930 . S
C1158 C1157 1.400 . S
C1158 C1161 1.386 . S
H1159 C1175 0.930 . S
H1160 C1176 0.931 . S
C1161 H1149 0.929 . S
C1161 C1155 1.390 . S
C1161 C1158 1.386 . S
C1162 C1157 1.490 . S
C1162 C1164 1.395 . S
C1162 C1165 1.403 . S
H1163 C1169 0.930 . S
C1164 H1150 0.930 . S
C1164 C1162 1.395 . S
C1164 C1167 1.403 . S
C1165 C1162 1.403 . S
C1165 C1166 1.524 . S
C1165 C1169 1.400 . S
C1166 H1151 0.960 . S
C1166 H1152 0.960 . S
C1166 H1153 0.960 . S
C1166 C1165 1.524 . S
C1167 C1164 1.403 . S
C1167 C1168 1.392 . S
C1167 C1171 1.495 . S
C1168 C1167 1.392 . S
C1168 C1169 1.385 . S
C1168 C1170 1.478 . S
C1169 H1163 0.930 . S
C1169 C1165 1.400 . S
C1169 C1168 1.385 . S
C1170 C1168 1.478 . S
C1170 C1172 1.381 . S
C1170 C1176 1.383 . S
C1171 C1167 1.495 . S
C1171 H1177 0.959 . S
C1171 H1178 0.961 . S
C1171 H1179 0.960 . S
C1172 C1170 1.381 . S
C1172 C1173 1.394 . S
C1172 H1180 0.930 . S
C1173 C1172 1.394 . S
C1173 C1174 1.383 . S
C1173 H1181 0.929 . S
C1174 C1173 1.383 . S
C1174 C1175 1.377 . S
C1175 H1159 0.930 . S
C1175 C1174 1.377 . S
C1175 C1176 1.379 . S
C1176 H1160 0.931 . S
C1176 C1170 1.383 . S
C1176 C1175 1.379 . S
H1177 C1171 0.959 . S
H1178 C1171 0.961 . S
H1179 C1171 0.960 . S
H1180 C1172 0.930 . S
H1181 C1173 0.929 . S
H1182 C1190 0.929 . S
H1183 C1192 0.930 . S
H1184 C1194 0.930 . S
H1185 C1197 0.929 . S
H1186 C1200 0.930 . S
H1187 C1202 0.960 . S
H1188 C1202 0.960 . S
H1189 C1202 0.960 . S
C1190 H1182 0.929 . S
C1190 C1191 1.377 . S
C1190 C1192 1.384 . S
C1191 C1190 1.377 . S
C1191 C1197 1.390 . S
C1192 H1183 0.930 . S
C1192 C1190 1.384 . S
C1192 C1193 1.372 . S
C1193 C1192 1.372 . S
C1193 C1194 1.400 . S
C1193 C1198 1.490 . S
C1194 H1184 0.930 . S
C1194 C1193 1.400 . S
C1194 C1197 1.386 . S
H1195 C1211 0.930 . S
H1196 C1212 0.931 . S
C1197 H1185 0.929 . S
C1197 C1191 1.390 . S
C1197 C1194 1.386 . S
C1198 C1193 1.490 . S
C1198 C1200 1.395 . S
C1198 C1201 1.403 . S
H1199 C1205 0.930 . S
C1200 H1186 0.930 . S
C1200 C1198 1.395 . S
C1200 C1203 1.403 . S
C1201 C1198 1.403 . S
C1201 C1202 1.524 . S
C1201 C1205 1.400 . S
C1202 H1187 0.960 . S
C1202 H1188 0.960 . S
C1202 H1189 0.960 . S
C1202 C1201 1.524 . S
C1203 C1200 1.403 . S
C1203 C1204 1.392 . S
C1203 C1207 1.495 . S
C1204 C1203 1.392 . S
C1204 C1205 1.385 . S
C1204 C1206 1.478 . S
C1205 H1199 0.930 . S
C1205 C1201 1.400 . S
C1205 C1204 1.385 . S
C1206 C1204 1.478 . S
C1206 C1208 1.381 . S
C1206 C1212 1.383 . S
C1207 C1203 1.495 . S
C1207 H1213 0.959 . S
C1207 H1214 0.961 . S
C1207 H1215 0.960 . S
C1208 C1206 1.381 . S
C1208 C1209 1.394 . S
C1208 H1216 0.930 . S
C1209 C1208 1.394 . S
C1209 C1210 1.383 . S
C1209 H1217 0.929 . S
C1210 C1209 1.383 . S
C1210 C1211 1.377 . S
C1211 H1195 0.930 . S
C1211 C1210 1.377 . S
C1211 C1212 1.379 . S
C1212 H1196 0.931 . S
C1212 C1206 1.383 . S
C1212 C1211 1.379 . S
H1213 C1207 0.959 . S
H1214 C1207 0.961 . S
H1215 C1207 0.960 . S
H1216 C1208 0.930 . S
H1217 C1209 0.929 . S
H1218 C1226 0.929 . S
H1219 C1228 0.930 . S
H1220 C1230 0.930 . S
H1221 C1233 0.929 . S
H1222 C1236 0.930 . S
H1223 C1238 0.960 . S
H1224 C1238 0.960 . S
H1225 C1238 0.960 . S
C1226 H1218 0.929 . S
C1226 C1227 1.377 . S
C1226 C1228 1.384 . S
C1227 C1226 1.377 . S
C1227 C1233 1.390 . S
C1228 H1219 0.930 . S
C1228 C1226 1.384 . S
C1228 C1229 1.372 . S
C1229 C1228 1.372 . S
C1229 C1230 1.400 . S
C1229 C1234 1.490 . S
C1230 H1220 0.930 . S
C1230 C1229 1.400 . S
C1230 C1233 1.386 . S
H1231 C1247 0.930 . S
H1232 C1248 0.931 . S
C1233 H1221 0.929 . S
C1233 C1227 1.390 . S
C1233 C1230 1.386 . S
C1234 C1229 1.490 . S
C1234 C1236 1.395 . S
C1234 C1237 1.403 . S
H1235 C1241 0.930 . S
C1236 H1222 0.930 . S
C1236 C1234 1.395 . S
C1236 C1239 1.403 . S
C1237 C1234 1.403 . S
C1237 C1238 1.524 . S
C1237 C1241 1.400 . S
C1238 H1223 0.960 . S
C1238 H1224 0.960 . S
C1238 H1225 0.960 . S
C1238 C1237 1.524 . S
C1239 C1236 1.403 . S
C1239 C1240 1.392 . S
C1239 C1243 1.495 . S
C1240 C1239 1.392 . S
C1240 C1241 1.385 . S
C1240 C1242 1.478 . S
C1241 H1235 0.930 . S
C1241 C1237 1.400 . S
C1241 C1240 1.385 . S
C1242 C1240 1.478 . S
C1242 C1244 1.381 . S
C1242 C1248 1.383 . S
C1243 C1239 1.495 . S
C1243 H1249 0.959 . S
C1243 H1250 0.961 . S
C1243 H1251 0.960 . S
C1244 C1242 1.381 . S
C1244 C1245 1.394 . S
C1244 H1252 0.930 . S
C1245 C1244 1.394 . S
C1245 C1246 1.383 . S
C1245 H1253 0.929 . S
C1246 C1245 1.383 . S
C1246 C1247 1.377 . S
C1247 H1231 0.930 . S
C1247 C1246 1.377 . S
C1247 C1248 1.379 . S
C1248 H1232 0.931 . S
C1248 C1242 1.383 . S
C1248 C1247 1.379 . S
H1249 C1243 0.959 . S
H1250 C1243 0.961 . S
H1251 C1243 0.960 . S
H1252 C1244 0.930 . S
H1253 C1245 0.929 . S
H1254 C1262 0.929 . S
H1255 C1264 0.930 . S
H1256 C1266 0.930 . S
H1257 C1269 0.929 . S
H1258 C1272 0.930 . S
H1259 C1274 0.960 . S
H1260 C1274 0.960 . S
H1261 C1274 0.960 . S
C1262 H1254 0.929 . S
C1262 C1263 1.377 . S
C1262 C1264 1.384 . S
C1263 C1262 1.377 . S
C1263 C1269 1.390 . S
C1264 H1255 0.930 . S
C1264 C1262 1.384 . S
C1264 C1265 1.372 . S
C1265 C1264 1.372 . S
C1265 C1266 1.400 . S
C1265 C1270 1.490 . S
C1266 H1256 0.930 . S
C1266 C1265 1.400 . S
C1266 C1269 1.386 . S
H1267 C1283 0.930 . S
H1268 C1284 0.931 . S
C1269 H1257 0.929 . S
C1269 C1263 1.390 . S
C1269 C1266 1.386 . S
C1270 C1265 1.490 . S
C1270 C1272 1.395 . S
C1270 C1273 1.403 . S
H1271 C1277 0.930 . S
C1272 H1258 0.930 . S
C1272 C1270 1.395 . S
C1272 C1275 1.403 . S
C1273 C1270 1.403 . S
C1273 C1274 1.524 . S
C1273 C1277 1.400 . S
C1274 H1259 0.960 . S
C1274 H1260 0.960 . S
C1274 H1261 0.960 . S
C1274 C1273 1.524 . S
C1275 C1272 1.403 . S
C1275 C1276 1.392 . S
C1275 C1279 1.495 . S
C1276 C1275 1.392 . S
C1276 C1277 1.385 . S
C1276 C1278 1.478 . S
C1277 H1271 0.930 . S
C1277 C1273 1.400 . S
C1277 C1276 1.385 . S
C1278 C1276 1.478 . S
C1278 C1280 1.381 . S
C1278 C1284 1.383 . S
C1279 C1275 1.495 . S
C1279 H1285 0.959 . S
C1279 H1286 0.961 . S
C1279 H1287 0.960 . S
C1280 C1278 1.381 . S
C1280 C1281 1.394 . S
C1280 H1288 0.930 . S
C1281 C1280 1.394 . S
C1281 C1282 1.383 . S
C1281 H1289 0.929 . S
C1282 C1281 1.383 . S
C1282 C1283 1.377 . S
C1283 H1267 0.930 . S
C1283 C1282 1.377 . S
C1283 C1284 1.379 . S
C1284 H1268 0.931 . S
C1284 C1278 1.383 . S
C1284 C1283 1.379 . S
H1285 C1279 0.959 . S
H1286 C1279 0.961 . S
H1287 C1279 0.960 . S
H1288 C1280 0.930 . S
H1289 C1281 0.929 . S
H1290 C1298 0.929 . S
H1291 C1300 0.930 . S
H1292 C1302 0.930 . S
H1293 C1305 0.929 . S
H1294 C1308 0.930 . S
H1295 C1310 0.960 . S
H1296 C1310 0.960 . S
H1297 C1310 0.960 . S
C1298 H1290 0.929 . S
C1298 C1299 1.377 . S
C1298 C1300 1.384 . S
C1299 C1298 1.377 . S
C1299 C1305 1.390 . S
C1300 H1291 0.930 . S
C1300 C1298 1.384 . S
C1300 C1301 1.372 . S
C1301 C1300 1.372 . S
C1301 C1302 1.400 . S
C1301 C1306 1.490 . S
C1302 H1292 0.930 . S
C1302 C1301 1.400 . S
C1302 C1305 1.386 . S
H1303 C1319 0.930 . S
H1304 C1320 0.931 . S
C1305 H1293 0.929 . S
C1305 C1299 1.390 . S
C1305 C1302 1.386 . S
C1306 C1301 1.490 . S
C1306 C1308 1.395 . S
C1306 C1309 1.403 . S
H1307 C1313 0.930 . S
C1308 H1294 0.930 . S
C1308 C1306 1.395 . S
C1308 C1311 1.403 . S
C1309 C1306 1.403 . S
C1309 C1310 1.524 . S
C1309 C1313 1.400 . S
C1310 H1295 0.960 . S
C1310 H1296 0.960 . S
C1310 H1297 0.960 . S
C1310 C1309 1.524 . S
C1311 C1308 1.403 . S
C1311 C1312 1.392 . S
C1311 C1315 1.495 . S
C1312 C1311 1.392 . S
C1312 C1313 1.385 . S
C1312 C1314 1.478 . S
C1313 H1307 0.930 . S
C1313 C1309 1.400 . S
C1313 C1312 1.385 . S
C1314 C1312 1.478 . S
C1314 C1316 1.381 . S
C1314 C1320 1.383 . S
C1315 C1311 1.495 . S
C1315 H1321 0.959 . S
C1315 H1322 0.961 . S
C1315 H1323 0.960 . S
C1316 C1314 1.381 . S
C1316 C1317 1.394 . S
C1316 H1324 0.930 . S
C1317 C1316 1.394 . S
C1317 C1318 1.383 . S
C1317 H1325 0.929 . S
C1318 C1317 1.383 . S
C1318 C1319 1.377 . S
C1319 H1303 0.930 . S
C1319 C1318 1.377 . S
C1319 C1320 1.379 . S
C1320 H1304 0.931 . S
C1320 C1314 1.383 . S
C1320 C1319 1.379 . S
H1321 C1315 0.959 . S
H1322 C1315 0.961 . S
H1323 C1315 0.960 . S
H1324 C1316 0.930 . S
H1325 C1317 0.929 . S
H1326 C1334 0.929 . S
H1327 C1336 0.930 . S
H1328 C1338 0.930 . S
H1329 C1341 0.929 . S
H1330 C1344 0.930 . S
H1331 C1346 0.960 . S
H1332 C1346 0.960 . S
H1333 C1346 0.960 . S
C1334 H1326 0.929 . S
C1334 C1335 1.377 . S
C1334 C1336 1.384 . S
C1335 C1334 1.377 . S
C1335 C1341 1.390 . S
C1336 H1327 0.930 . S
C1336 C1334 1.384 . S
C1336 C1337 1.372 . S
C1337 C1336 1.372 . S
C1337 C1338 1.400 . S
C1337 C1342 1.490 . S
C1338 H1328 0.930 . S
C1338 C1337 1.400 . S
C1338 C1341 1.386 . S
H1339 C1355 0.930 . S
H1340 C1356 0.931 . S
C1341 H1329 0.929 . S
C1341 C1335 1.390 . S
C1341 C1338 1.386 . S
C1342 C1337 1.490 . S
C1342 C1344 1.395 . S
C1342 C1345 1.403 . S
H1343 C1349 0.930 . S
C1344 H1330 0.930 . S
C1344 C1342 1.395 . S
C1344 C1347 1.403 . S
C1345 C1342 1.403 . S
C1345 C1346 1.524 . S
C1345 C1349 1.400 . S
C1346 H1331 0.960 . S
C1346 H1332 0.960 . S
C1346 H1333 0.960 . S
C1346 C1345 1.524 . S
C1347 C1344 1.403 . S
C1347 C1348 1.392 . S
C1347 C1351 1.495 . S
C1348 C1347 1.392 . S
C1348 C1349 1.385 . S
C1348 C1350 1.478 . S
C1349 H1343 0.930 . S
C1349 C1345 1.400 . S
C1349 C1348 1.385 . S
C1350 C1348 1.478 . S
C1350 C1352 1.381 . S
C1350 C1356 1.383 . S
C1351 C1347 1.495 . S
C1351 H1357 0.959 . S
C1351 H1358 0.961 . S
C1351 H1359 0.960 . S
C1352 C1350 1.381 . S
C1352 C1353 1.394 . S
C1352 H1360 0.930 . S
C1353 C1352 1.394 . S
C1353 C1354 1.383 . S
C1353 H1361 0.929 . S
C1354 C1353 1.383 . S
C1354 C1355 1.377 . S
C1355 H1339 0.930 . S
C1355 C1354 1.377 . S
C1355 C1356 1.379 . S
C1356 H1340 0.931 . S
C1356 C1350 1.383 . S
C1356 C1355 1.379 . S
H1357 C1351 0.959 . S
H1358 C1351 0.961 . S
H1359 C1351 0.960 . S
H1360 C1352 0.930 . S
H1361 C1353 0.929 . S
H1362 C1370 0.929 . S
H1363 C1372 0.930 . S
H1364 C1374 0.930 . S
H1365 C1377 0.929 . S
H1366 C1380 0.930 . S
H1367 C1382 0.960 . S
H1368 C1382 0.960 . S
H1369 C1382 0.960 . S
C1370 H1362 0.929 . S
C1370 C1371 1.377 . S
C1370 C1372 1.384 . S
C1371 C1370 1.377 . S
C1371 C1377 1.390 . S
C1372 H1363 0.930 . S
C1372 C1370 1.384 . S
C1372 C1373 1.372 . S
C1373 C1372 1.372 . S
C1373 C1374 1.400 . S
C1373 C1378 1.490 . S
C1374 H1364 0.930 . S
C1374 C1373 1.400 . S
C1374 C1377 1.386 . S
H1375 C1391 0.930 . S
H1376 C1392 0.931 . S
C1377 H1365 0.929 . S
C1377 C1371 1.390 . S
C1377 C1374 1.386 . S
C1378 C1373 1.490 . S
C1378 C1380 1.395 . S
C1378 C1381 1.403 . S
H1379 C1385 0.930 . S
C1380 H1366 0.930 . S
C1380 C1378 1.395 . S
C1380 C1383 1.403 . S
C1381 C1378 1.403 . S
C1381 C1382 1.524 . S
C1381 C1385 1.400 . S
C1382 H1367 0.960 . S
C1382 H1368 0.960 . S
C1382 H1369 0.960 . S
C1382 C1381 1.524 . S
C1383 C1380 1.403 . S
C1383 C1384 1.392 . S
C1383 C1387 1.495 . S
C1384 C1383 1.392 . S
C1384 C1385 1.385 . S
C1384 C1386 1.478 . S
C1385 H1379 0.930 . S
C1385 C1381 1.400 . S
C1385 C1384 1.385 . S
C1386 C1384 1.478 . S
C1386 C1388 1.381 . S
C1386 C1392 1.383 . S
C1387 C1383 1.495 . S
C1387 H1393 0.959 . S
C1387 H1394 0.961 . S
C1387 H1395 0.960 . S
C1388 C1386 1.381 . S
C1388 C1389 1.394 . S
C1388 H1396 0.930 . S
C1389 C1388 1.394 . S
C1389 C1390 1.383 . S
C1389 H1397 0.929 . S
C1390 C1389 1.383 . S
C1390 C1391 1.377 . S
C1391 H1375 0.930 . S
C1391 C1390 1.377 . S
C1391 C1392 1.379 . S
C1392 H1376 0.931 . S
C1392 C1386 1.383 . S
C1392 C1391 1.379 . S
H1393 C1387 0.959 . S
H1394 C1387 0.961 . S
H1395 C1387 0.960 . S
H1396 C1388 0.930 . S
H1397 C1389 0.929 . S
H1398 C1406 0.929 . S
H1399 C1408 0.930 . S
H1400 C1410 0.930 . S
H1401 C1413 0.929 . S
H1402 C1416 0.930 . S
H1403 C1418 0.960 . S
H1404 C1418 0.960 . S
H1405 C1418 0.960 . S
C1406 H1398 0.929 . S
C1406 C1407 1.377 . S
C1406 C1408 1.384 . S
C1407 C1406 1.377 . S
C1407 C1413 1.390 . S
C1408 H1399 0.930 . S
C1408 C1406 1.384 . S
C1408 C1409 1.372 . S
C1409 C1408 1.372 . S
C1409 C1410 1.400 . S
C1409 C1414 1.490 . S
C1410 H1400 0.930 . S
C1410 C1409 1.400 . S
C1410 C1413 1.386 . S
H1411 C1427 0.930 . S
H1412 C1428 0.931 . S
C1413 H1401 0.929 . S
C1413 C1407 1.390 . S
C1413 C1410 1.386 . S
C1414 C1409 1.490 . S
C1414 C1416 1.395 . S
C1414 C1417 1.403 . S
H1415 C1421 0.930 . S
C1416 H1402 0.930 . S
C1416 C1414 1.395 . S
C1416 C1419 1.403 . S
C1417 C1414 1.403 . S
C1417 C1418 1.524 . S
C1417 C1421 1.400 . S
C1418 H1403 0.960 . S
C1418 H1404 0.960 . S
C1418 H1405 0.960 . S
C1418 C1417 1.524 . S
C1419 C1416 1.403 . S
C1419 C1420 1.392 . S
C1419 C1423 1.495 . S
C1420 C1419 1.392 . S
C1420 C1421 1.385 . S
C1420 C1422 1.478 . S
C1421 H1415 0.930 . S
C1421 C1417 1.400 . S
C1421 C1420 1.385 . S
C1422 C1420 1.478 . S
C1422 C1424 1.381 . S
C1422 C1428 1.383 . S
C1423 C1419 1.495 . S
C1423 H1429 0.959 . S
C1423 H1430 0.961 . S
C1423 H1431 0.960 . S
C1424 C1422 1.381 . S
C1424 C1425 1.394 . S
C1424 H1432 0.930 . S
C1425 C1424 1.394 . S
C1425 C1426 1.383 . S
C1425 H1433 0.929 . S
C1426 C1425 1.383 . S
C1426 C1427 1.377 . S
C1427 H1411 0.930 . S
C1427 C1426 1.377 . S
C1427 C1428 1.379 . S
C1428 H1412 0.931 . S
C1428 C1422 1.383 . S
C1428 C1427 1.379 . S
H1429 C1423 0.959 . S
H1430 C1423 0.961 . S
H1431 C1423 0.960 . S
H1432 C1424 0.930 . S
H1433 C1425 0.929 . S
H1434 C1442 0.929 . S
H1435 C1444 0.930 . S
H1436 C1446 0.930 . S
H1437 C1449 0.929 . S
H1438 C1452 0.930 . S
H1439 C1454 0.960 . S
H1440 C1454 0.960 . S
H1441 C1454 0.960 . S
C1442 H1434 0.929 . S
C1442 C1443 1.377 . S
C1442 C1444 1.384 . S
C1443 C1442 1.377 . S
C1443 C1449 1.390 . S
C1444 H1435 0.930 . S
C1444 C1442 1.384 . S
C1444 C1445 1.372 . S
C1445 C1444 1.372 . S
C1445 C1446 1.400 . S
C1445 C1450 1.490 . S
C1446 H1436 0.930 . S
C1446 C1445 1.400 . S
C1446 C1449 1.386 . S
H1447 C1463 0.930 . S
H1448 C1464 0.931 . S
C1449 H1437 0.929 . S
C1449 C1443 1.390 . S
C1449 C1446 1.386 . S
C1450 C1445 1.490 . S
C1450 C1452 1.395 . S
C1450 C1453 1.403 . S
H1451 C1457 0.930 . S
C1452 H1438 0.930 . S
C1452 C1450 1.395 . S
C1452 C1455 1.403 . S
C1453 C1450 1.403 . S
C1453 C1454 1.524 . S
C1453 C1457 1.400 . S
C1454 H1439 0.960 . S
C1454 H1440 0.960 . S
C1454 H1441 0.960 . S
C1454 C1453 1.524 . S
C1455 C1452 1.403 . S
C1455 C1456 1.392 . S
C1455 C1459 1.495 . S
C1456 C1455 1.392 . S
C1456 C1457 1.385 . S
C1456 C1458 1.478 . S
C1457 H1451 0.930 . S
C1457 C1453 1.400 . S
C1457 C1456 1.385 . S
C1458 C1456 1.478 . S
C1458 C1460 1.381 . S
C1458 C1464 1.383 . S
C1459 C1455 1.495 . S
C1459 H1465 0.959 . S
C1459 H1466 0.961 . S
C1459 H1467 0.960 . S
C1460 C1458 1.381 . S
C1460 C1461 1.394 . S
C1460 H1468 0.930 . S
C1461 C1460 1.394 . S
C1461 C1462 1.383 . S
C1461 H1469 0.929 . S
C1462 C1461 1.383 . S
C1462 C1463 1.377 . S
C1463 H1447 0.930 . S
C1463 C1462 1.377 . S
C1463 C1464 1.379 . S
C1464 H1448 0.931 . S
C1464 C1458 1.383 . S
C1464 C1463 1.379 . S
H1465 C1459 0.959 . S
H1466 C1459 0.961 . S
H1467 C1459 0.960 . S
H1468 C1460 0.930 . S
H1469 C1461 0.929 . S
H1470 C1478 0.929 . S
H1471 C1480 0.930 . S
H1472 C1482 0.930 . S
H1473 C1485 0.929 . S
H1474 C1488 0.930 . S
H1475 C1490 0.960 . S
H1476 C1490 0.960 . S
H1477 C1490 0.960 . S
C1478 H1470 0.929 . S
C1478 C1479 1.377 . S
C1478 C1480 1.384 . S
C1479 C1478 1.377 . S
C1479 C1485 1.390 . S
C1480 H1471 0.930 . S
C1480 C1478 1.384 . S
C1480 C1481 1.372 . S
C1481 C1480 1.372 . S
C1481 C1482 1.400 . S
C1481 C1486 1.490 . S
C1482 H1472 0.930 . S
C1482 C1481 1.400 . S
C1482 C1485 1.386 . S
H1483 C1499 0.930 . S
H1484 C1500 0.931 . S
C1485 H1473 0.929 . S
C1485 C1479 1.390 . S
C1485 C1482 1.386 . S
C1486 C1481 1.490 . S
C1486 C1488 1.395 . S
C1486 C1489 1.403 . S
H1487 C1493 0.930 . S
C1488 H1474 0.930 . S
C1488 C1486 1.395 . S
C1488 C1491 1.403 . S
C1489 C1486 1.403 . S
C1489 C1490 1.524 . S
C1489 C1493 1.400 . S
C1490 H1475 0.960 . S
C1490 H1476 0.960 . S
C1490 H1477 0.960 . S
C1490 C1489 1.524 . S
C1491 C1488 1.403 . S
C1491 C1492 1.392 . S
C1491 C1495 1.495 . S
C1492 C1491 1.392 . S
C1492 C1493 1.385 . S
C1492 C1494 1.478 . S
C1493 H1487 0.930 . S
C1493 C1489 1.400 . S
C1493 C1492 1.385 . S
C1494 C1492 1.478 . S
C1494 C1496 1.381 . S
C1494 C1500 1.383 . S
C1495 C1491 1.495 . S
C1495 H1501 0.959 . S
C1495 H1502 0.961 . S
C1495 H1503 0.960 . S
C1496 C1494 1.381 . S
C1496 C1497 1.394 . S
C1496 H1504 0.930 . S
C1497 C1496 1.394 . S
C1497 C1498 1.383 . S
C1497 H1505 0.929 . S
C1498 C1497 1.383 . S
C1498 C1499 1.377 . S
C1499 H1483 0.930 . S
C1499 C1498 1.377 . S
C1499 C1500 1.379 . S
C1500 H1484 0.931 . S
C1500 C1494 1.383 . S
C1500 C1499 1.379 . S
H1501 C1495 0.959 . S
H1502 C1495 0.961 . S
H1503 C1495 0.960 . S
H1504 C1496 0.930 . S
H1505 C1497 0.929 . S
H1506 C1514 0.929 . S
H1507 C1516 0.930 . S
H1508 C1518 0.930 . S
H1509 C1521 0.929 . S
H1510 C1524 0.930 . S
H1511 C1526 0.960 . S
H1512 C1526 0.960 . S
H1513 C1526 0.960 . S
C1514 H1506 0.929 . S
C1514 C1515 1.377 . S
C1514 C1516 1.384 . S
C1515 C1514 1.377 . S
C1515 C1521 1.390 . S
C1516 H1507 0.930 . S
C1516 C1514 1.384 . S
C1516 C1517 1.372 . S
C1517 C1516 1.372 . S
C1517 C1518 1.400 . S
C1517 C1522 1.490 . S
C1518 H1508 0.930 . S
C1518 C1517 1.400 . S
C1518 C1521 1.386 . S
H1519 C1535 0.930 . S
H1520 C1536 0.931 . S
C1521 H1509 0.929 . S
C1521 C1515 1.390 . S
C1521 C1518 1.386 . S
C1522 C1517 1.490 . S
C1522 C1524 1.395 . S
C1522 C1525 1.403 . S
H1523 C1529 0.930 . S
C1524 H1510 0.930 . S
C1524 C1522 1.395 . S
C1524 C1527 1.403 . S
C1525 C1522 1.403 . S
C1525 C1526 1.524 . S
C1525 C1529 1.400 . S
C1526 H1511 0.960 . S
C1526 H1512 0.960 . S
C1526 H1513 0.960 . S
C1526 C1525 1.524 . S
C1527 C1524 1.403 . S
C1527 C1528 1.392 . S
C1527 C1531 1.495 . S
C1528 C1527 1.392 . S
C1528 C1529 1.385 . S
C1528 C1530 1.478 . S
C1529 H1523 0.930 . S
C1529 C1525 1.400 . S
C1529 C1528 1.385 . S
C1530 C1528 1.478 . S
C1530 C1532 1.381 . S
C1530 C1536 1.383 . S
C1531 C1527 1.495 . S
C1531 H1537 0.959 . S
C1531 H1538 0.961 . S
C1531 H1539 0.960 . S
C1532 C1530 1.381 . S
C1532 C1533 1.394 . S
C1532 H1540 0.930 . S
C1533 C1532 1.394 . S
C1533 C1534 1.383 . S
C1533 H1541 0.929 . S
C1534 C1533 1.383 . S
C1534 C1535 1.377 . S
C1535 H1519 0.930 . S
C1535 C1534 1.377 . S
C1535 C1536 1.379 . S
C1536 H1520 0.931 . S
C1536 C1530 1.383 . S
C1536 C1535 1.379 . S
H1537 C1531 0.959 . S
H1538 C1531 0.961 . S
H1539 C1531 0.960 . S
H1540 C1532 0.930 . S
H1541 C1533 0.929 . S
H1542 C1550 0.929 . S
H1543 C1552 0.930 . S
H1544 C1554 0.930 . S
H1545 C1557 0.929 . S
H1546 C1560 0.930 . S
H1547 C1562 0.960 . S
H1548 C1562 0.960 . S
H1549 C1562 0.960 . S
C1550 H1542 0.929 . S
C1550 C1551 1.377 . S
C1550 C1552 1.384 . S
C1551 C1550 1.377 . S
C1551 C1557 1.390 . S
C1552 H1543 0.930 . S
C1552 C1550 1.384 . S
C1552 C1553 1.372 . S
C1553 C1552 1.372 . S
C1553 C1554 1.400 . S
C1553 C1558 1.490 . S
C1554 H1544 0.930 . S
C1554 C1553 1.400 . S
C1554 C1557 1.386 . S
H1555 C1571 0.930 . S
H1556 C1572 0.931 . S
C1557 H1545 0.929 . S
C1557 C1551 1.390 . S
C1557 C1554 1.386 . S
C1558 C1553 1.490 . S
C1558 C1560 1.395 . S
C1558 C1561 1.403 . S
H1559 C1565 0.930 . S
C1560 H1546 0.930 . S
C1560 C1558 1.395 . S
C1560 C1563 1.403 . S
C1561 C1558 1.403 . S
C1561 C1562 1.524 . S
C1561 C1565 1.400 . S
C1562 H1547 0.960 . S
C1562 H1548 0.960 . S
C1562 H1549 0.960 . S
C1562 C1561 1.524 . S
C1563 C1560 1.403 . S
C1563 C1564 1.392 . S
C1563 C1567 1.495 . S
C1564 C1563 1.392 . S
C1564 C1565 1.385 . S
C1564 C1566 1.478 . S
C1565 H1559 0.930 . S
C1565 C1561 1.400 . S
C1565 C1564 1.385 . S
C1566 C1564 1.478 . S
C1566 C1568 1.381 . S
C1566 C1572 1.383 . S
C1567 C1563 1.495 . S
C1567 H1573 0.959 . S
C1567 H1574 0.961 . S
C1567 H1575 0.960 . S
C1568 C1566 1.381 . S
C1568 C1569 1.394 . S
C1568 H1576 0.930 . S
C1569 C1568 1.394 . S
C1569 C1570 1.383 . S
C1569 H1577 0.929 . S
C1570 C1569 1.383 . S
C1570 C1571 1.377 . S
C1571 H1555 0.930 . S
C1571 C1570 1.377 . S
C1571 C1572 1.379 . S
C1572 H1556 0.931 . S
C1572 C1566 1.383 . S
C1572 C1571 1.379 . S
H1573 C1567 0.959 . S
H1574 C1567 0.961 . S
H1575 C1567 0.960 . S
H1576 C1568 0.930 . S
H1577 C1569 0.929 . S
H1578 C1586 0.929 . S
H1579 C1588 0.930 . S
H1580 C1590 0.930 . S
H1581 C1593 0.929 . S
H1582 C1596 0.930 . S
H1583 C1598 0.960 . S
H1584 C1598 0.960 . S
H1585 C1598 0.960 . S
C1586 H1578 0.929 . S
C1586 C1587 1.377 . S
C1586 C1588 1.384 . S
C1587 C1586 1.377 . S
C1587 C1593 1.390 . S
C1588 H1579 0.930 . S
C1588 C1586 1.384 . S
C1588 C1589 1.372 . S
C1589 C1588 1.372 . S
C1589 C1590 1.400 . S
C1589 C1594 1.490 . S
C1590 H1580 0.930 . S
C1590 C1589 1.400 . S
C1590 C1593 1.386 . S
H1591 C1607 0.930 . S
H1592 C1608 0.931 . S
C1593 H1581 0.929 . S
C1593 C1587 1.390 . S
C1593 C1590 1.386 . S
C1594 C1589 1.490 . S
C1594 C1596 1.395 . S
C1594 C1597 1.403 . S
H1595 C1601 0.930 . S
C1596 H1582 0.930 . S
C1596 C1594 1.395 . S
C1596 C1599 1.403 . S
C1597 C1594 1.403 . S
C1597 C1598 1.524 . S
C1597 C1601 1.400 . S
C1598 H1583 0.960 . S
C1598 H1584 0.960 . S
C1598 H1585 0.960 . S
C1598 C1597 1.524 . S
C1599 C1596 1.403 . S
C1599 C1600 1.392 . S
C1599 C1603 1.495 . S
C1600 C1599 1.392 . S
C1600 C1601 1.385 . S
C1600 C1602 1.478 . S
C1601 H1595 0.930 . S
C1601 C1597 1.400 . S
C1601 C1600 1.385 . S
C1602 C1600 1.478 . S
C1602 C1604 1.381 . S
C1602 C1608 1.383 . S
C1603 C1599 1.495 . S
C1603 H1609 0.959 . S
C1603 H1610 0.961 . S
C1603 H1611 0.960 . S
C1604 C1602 1.381 . S
C1604 C1605 1.394 . S
C1604 H1612 0.930 . S
C1605 C1604 1.394 . S
C1605 C1606 1.383 . S
C1605 H1613 0.929 . S
C1606 C1605 1.383 . S
C1606 C1607 1.377 . S
C1607 H1591 0.930 . S
C1607 C1606 1.377 . S
C1607 C1608 1.379 . S
C1608 H1592 0.931 . S
C1608 C1602 1.383 . S
C1608 C1607 1.379 . S
H1609 C1603 0.959 . S
H1610 C1603 0.961 . S
H1611 C1603 0.960 . S
H1612 C1604 0.930 . S
H1613 C1605 0.929 . S
H1614 C1622 0.929 . S
H1615 C1624 0.930 . S
H1616 C1626 0.930 . S
H1617 C1629 0.929 . S
H1618 C1632 0.930 . S
H1619 C1634 0.960 . S
H1620 C1634 0.960 . S
H1621 C1634 0.960 . S
C1622 H1614 0.929 . S
C1622 C1623 1.377 . S
C1622 C1624 1.384 . S
C1623 C1622 1.377 . S
C1623 C1629 1.390 . S
C1624 H1615 0.930 . S
C1624 C1622 1.384 . S
C1624 C1625 1.372 . S
C1625 C1624 1.372 . S
C1625 C1626 1.400 . S
C1625 C1630 1.490 . S
C1626 H1616 0.930 . S
C1626 C1625 1.400 . S
C1626 C1629 1.386 . S
H1627 C1643 0.930 . S
H1628 C1644 0.931 . S
C1629 H1617 0.929 . S
C1629 C1623 1.390 . S
C1629 C1626 1.386 . S
C1630 C1625 1.490 . S
C1630 C1632 1.395 . S
C1630 C1633 1.403 . S
H1631 C1637 0.930 . S
C1632 H1618 0.930 . S
C1632 C1630 1.395 . S
C1632 C1635 1.403 . S
C1633 C1630 1.403 . S
C1633 C1634 1.524 . S
C1633 C1637 1.400 . S
C1634 H1619 0.960 . S
C1634 H1620 0.960 . S
C1634 H1621 0.960 . S
C1634 C1633 1.524 . S
C1635 C1632 1.403 . S
C1635 C1636 1.392 . S
C1635 C1639 1.495 . S
C1636 C1635 1.392 . S
C1636 C1637 1.385 . S
C1636 C1638 1.478 . S
C1637 H1631 0.930 . S
C1637 C1633 1.400 . S
C1637 C1636 1.385 . S
C1638 C1636 1.478 . S
C1638 C1640 1.381 . S
C1638 C1644 1.383 . S
C1639 C1635 1.495 . S
C1639 H1645 0.959 . S
C1639 H1646 0.961 . S
C1639 H1647 0.960 . S
C1640 C1638 1.381 . S
C1640 C1641 1.394 . S
C1640 H1648 0.930 . S
C1641 C1640 1.394 . S
C1641 C1642 1.383 . S
C1641 H1649 0.929 . S
C1642 C1641 1.383 . S
C1642 C1643 1.377 . S
C1643 H1627 0.930 . S
C1643 C1642 1.377 . S
C1643 C1644 1.379 . S
C1644 H1628 0.931 . S
C1644 C1638 1.383 . S
C1644 C1643 1.379 . S
H1645 C1639 0.959 . S
H1646 C1639 0.961 . S
H1647 C1639 0.960 . S
H1648 C1640 0.930 . S
H1649 C1641 0.929 . S
H1650 C1658 0.929 . S
H1651 C1660 0.930 . S
H1652 C1662 0.930 . S
H1653 C1665 0.929 . S
H1654 C1668 0.930 . S
H1655 C1670 0.960 . S
H1656 C1670 0.960 . S
H1657 C1670 0.960 . S
C1658 H1650 0.929 . S
C1658 C1659 1.377 . S
C1658 C1660 1.384 . S
C1659 C1658 1.377 . S
C1659 C1665 1.390 . S
C1660 H1651 0.930 . S
C1660 C1658 1.384 . S
C1660 C1661 1.372 . S
C1661 C1660 1.372 . S
C1661 C1662 1.400 . S
C1661 C1666 1.490 . S
C1662 H1652 0.930 . S
C1662 C1661 1.400 . S
C1662 C1665 1.386 . S
H1663 C1679 0.930 . S
H1664 C1680 0.931 . S
C1665 H1653 0.929 . S
C1665 C1659 1.390 . S
C1665 C1662 1.386 . S
C1666 C1661 1.490 . S
C1666 C1668 1.395 . S
C1666 C1669 1.403 . S
H1667 C1673 0.930 . S
C1668 H1654 0.930 . S
C1668 C1666 1.395 . S
C1668 C1671 1.403 . S
C1669 C1666 1.403 . S
C1669 C1670 1.524 . S
C1669 C1673 1.400 . S
C1670 H1655 0.960 . S
C1670 H1656 0.960 . S
C1670 H1657 0.960 . S
C1670 C1669 1.524 . S
C1671 C1668 1.403 . S
C1671 C1672 1.392 . S
C1671 C1675 1.495 . S
C1672 C1671 1.392 . S
C1672 C1673 1.385 . S
C1672 C1674 1.478 . S
C1673 H1667 0.930 . S
C1673 C1669 1.400 . S
C1673 C1672 1.385 . S
C1674 C1672 1.478 . S
C1674 C1676 1.381 . S
C1674 C1680 1.383 . S
C1675 C1671 1.495 . S
C1675 H1681 0.959 . S
C1675 H1682 0.961 . S
C1675 H1683 0.960 . S
C1676 C1674 1.381 . S
C1676 C1677 1.394 . S
C1676 H1684 0.930 . S
C1677 C1676 1.394 . S
C1677 C1678 1.383 . S
C1677 H1685 0.929 . S
C1678 C1677 1.383 . S
C1678 C1679 1.377 . S
C1679 H1663 0.930 . S
C1679 C1678 1.377 . S
C1679 C1680 1.379 . S
C1680 H1664 0.931 . S
C1680 C1674 1.383 . S
C1680 C1679 1.379 . S
H1681 C1675 0.959 . S
H1682 C1675 0.961 . S
H1683 C1675 0.960 . S
H1684 C1676 0.930 . S
H1685 C1677 0.929 . S
H1686 C1694 0.929 . S
H1687 C1696 0.930 . S
H1688 C1698 0.930 . S
H1689 C1701 0.929 . S
H1690 C1704 0.930 . S
H1691 C1706 0.960 . S
H1692 C1706 0.960 . S
H1693 C1706 0.960 . S
C1694 H1686 0.929 . S
C1694 C1695 1.377 . S
C1694 C1696 1.384 . S
C1695 C1694 1.377 . S
C1695 C1701 1.390 . S
C1696 H1687 0.930 . S
C1696 C1694 1.384 . S
C1696 C1697 1.372 . S
C1697 C1696 1.372 . S
C1697 C1698 1.400 . S
C1697 C1702 1.490 . S
C1698 H1688 0.930 . S
C1698 C1697 1.400 . S
C1698 C1701 1.386 . S
H1699 C1715 0.930 . S
H1700 C1716 0.931 . S
C1701 H1689 0.929 . S
C1701 C1695 1.390 . S
C1701 C1698 1.386 . S
C1702 C1697 1.490 . S
C1702 C1704 1.395 . S
C1702 C1705 1.403 . S
H1703 C1709 0.930 . S
C1704 H1690 0.930 . S
C1704 C1702 1.395 . S
C1704 C1707 1.403 . S
C1705 C1702 1.403 . S
C1705 C1706 1.524 . S
C1705 C1709 1.400 . S
C1706 H1691 0.960 . S
C1706 H1692 0.960 . S
C1706 H1693 0.960 . S
C1706 C1705 1.524 . S
C1707 C1704 1.403 . S
C1707 C1708 1.392 . S
C1707 C1711 1.495 . S
C1708 C1707 1.392 . S
C1708 C1709 1.385 . S
C1708 C1710 1.478 . S
C1709 H1703 0.930 . S
C1709 C1705 1.400 . S
C1709 C1708 1.385 . S
C1710 C1708 1.478 . S
C1710 C1712 1.381 . S
C1710 C1716 1.383 . S
C1711 C1707 1.495 . S
C1711 H1717 0.959 . S
C1711 H1718 0.961 . S
C1711 H1719 0.960 . S
C1712 C1710 1.381 . S
C1712 C1713 1.394 . S
C1712 H1720 0.930 . S
C1713 C1712 1.394 . S
C1713 C1714 1.383 . S
C1713 H1721 0.929 . S
C1714 C1713 1.383 . S
C1714 C1715 1.377 . S
C1715 H1699 0.930 . S
C1715 C1714 1.377 . S
C1715 C1716 1.379 . S
C1716 H1700 0.931 . S
C1716 C1710 1.383 . S
C1716 C1715 1.379 . S
H1717 C1711 0.959 . S
H1718 C1711 0.961 . S
H1719 C1711 0.960 . S
H1720 C1712 0.930 . S
H1721 C1713 0.929 . S
H1722 C1730 0.929 . S
H1723 C1732 0.930 . S
H1724 C1734 0.930 . S
H1725 C1737 0.929 . S
H1726 C1740 0.930 . S
H1727 C1742 0.960 . S
H1728 C1742 0.960 . S
H1729 C1742 0.960 . S
C1730 H1722 0.929 . S
C1730 C1731 1.377 . S
C1730 C1732 1.384 . S
C1731 C1730 1.377 . S
C1731 C1737 1.390 . S
C1732 H1723 0.930 . S
C1732 C1730 1.384 . S
C1732 C1733 1.372 . S
C1733 C1732 1.372 . S
C1733 C1734 1.400 . S
C1733 C1738 1.490 . S
C1734 H1724 0.930 . S
C1734 C1733 1.400 . S
C1734 C1737 1.386 . S
H1735 C1751 0.930 . S
H1736 C1752 0.931 . S
C1737 H1725 0.929 . S
C1737 C1731 1.390 . S
C1737 C1734 1.386 . S
C1738 C1733 1.490 . S
C1738 C1740 1.395 . S
C1738 C1741 1.403 . S
H1739 C1745 0.930 . S
C1740 H1726 0.930 . S
C1740 C1738 1.395 . S
C1740 C1743 1.403 . S
C1741 C1738 1.403 . S
C1741 C1742 1.524 . S
C1741 C1745 1.400 . S
C1742 H1727 0.960 . S
C1742 H1728 0.960 . S
C1742 H1729 0.960 . S
C1742 C1741 1.524 . S
C1743 C1740 1.403 . S
C1743 C1744 1.392 . S
C1743 C1747 1.495 . S
C1744 C1743 1.392 . S
C1744 C1745 1.385 . S
C1744 C1746 1.478 . S
C1745 H1739 0.930 . S
C1745 C1741 1.400 . S
C1745 C1744 1.385 . S
C1746 C1744 1.478 . S
C1746 C1748 1.381 . S
C1746 C1752 1.383 . S
C1747 C1743 1.495 . S
C1747 H1753 0.959 . S
C1747 H1754 0.961 . S
C1747 H1755 0.960 . S
C1748 C1746 1.381 . S
C1748 C1749 1.394 . S
C1748 H1756 0.930 . S
C1749 C1748 1.394 . S
C1749 C1750 1.383 . S
C1749 H1757 0.929 . S
C1750 C1749 1.383 . S
C1750 C1751 1.377 . S
C1751 H1735 0.930 . S
C1751 C1750 1.377 . S
C1751 C1752 1.379 . S
C1752 H1736 0.931 . S
C1752 C1746 1.383 . S
C1752 C1751 1.379 . S
H1753 C1747 0.959 . S
H1754 C1747 0.961 . S
H1755 C1747 0.960 . S
H1756 C1748 0.930 . S
H1757 C1749 0.929 . S
H1758 C1766 0.929 . S
H1759 C1768 0.930 . S
H1760 C1770 0.930 . S
H1761 C1773 0.929 . S
H1762 C1776 0.930 . S
H1763 C1778 0.960 . S
H1764 C1778 0.960 . S
H1765 C1778 0.960 . S
C1766 H1758 0.929 . S
C1766 C1767 1.377 . S
C1766 C1768 1.384 . S
C1767 C1766 1.377 . S
C1767 C1773 1.390 . S
C1768 H1759 0.930 . S
C1768 C1766 1.384 . S
C1768 C1769 1.372 . S
C1769 C1768 1.372 . S
C1769 C1770 1.400 . S
C1769 C1774 1.490 . S
C1770 H1760 0.930 . S
C1770 C1769 1.400 . S
C1770 C1773 1.386 . S
H1771 C1787 0.930 . S
H1772 C1788 0.931 . S
C1773 H1761 0.929 . S
C1773 C1767 1.390 . S
C1773 C1770 1.386 . S
C1774 C1769 1.490 . S
C1774 C1776 1.395 . S
C1774 C1777 1.403 . S
H1775 C1781 0.930 . S
C1776 H1762 0.930 . S
C1776 C1774 1.395 . S
C1776 C1779 1.403 . S
C1777 C1774 1.403 . S
C1777 C1778 1.524 . S
C1777 C1781 1.400 . S
C1778 H1763 0.960 . S
C1778 H1764 0.960 . S
C1778 H1765 0.960 . S
C1778 C1777 1.524 . S
C1779 C1776 1.403 . S
C1779 C1780 1.392 . S
C1779 C1783 1.495 . S
C1780 C1779 1.392 . S
C1780 C1781 1.385 . S
C1780 C1782 1.478 . S
C1781 H1775 0.930 . S
C1781 C1777 1.400 . S
C1781 C1780 1.385 . S
C1782 C1780 1.478 . S
C1782 C1784 1.381 . S
C1782 C1788 1.383 . S
C1783 C1779 1.495 . S
C1783 H1789 0.959 . S
C1783 H1790 0.961 . S
C1783 H1791 0.960 . S
C1784 C1782 1.381 . S
C1784 C1785 1.394 . S
C1784 H1792 0.930 . S
C1785 C1784 1.394 . S
C1785 C1786 1.383 . S
C1785 H1793 0.929 . S
C1786 C1785 1.383 . S
C1786 C1787 1.377 . S
C1787 H1771 0.930 . S
C1787 C1786 1.377 . S
C1787 C1788 1.379 . S
C1788 H1772 0.931 . S
C1788 C1782 1.383 . S
C1788 C1787 1.379 . S
H1789 C1783 0.959 . S
H1790 C1783 0.961 . S
H1791 C1783 0.960 . S
H1792 C1784 0.930 . S
H1793 C1785 0.929 . S
H1794 C1802 0.929 . S
H1795 C1804 0.930 . S
H1796 C1806 0.930 . S
H1797 C1809 0.929 . S
H1798 C1812 0.930 . S
H1799 C1814 0.960 . S
H1800 C1814 0.960 . S
H1801 C1814 0.960 . S
C1802 H1794 0.929 . S
C1802 C1803 1.377 . S
C1802 C1804 1.384 . S
C1803 C1802 1.377 . S
C1803 C1809 1.390 . S
C1804 H1795 0.930 . S
C1804 C1802 1.384 . S
C1804 C1805 1.372 . S
C1805 C1804 1.372 . S
C1805 C1806 1.400 . S
C1805 C1810 1.490 . S
C1806 H1796 0.930 . S
C1806 C1805 1.400 . S
C1806 C1809 1.386 . S
H1807 C1823 0.930 . S
H1808 C1824 0.931 . S
C1809 H1797 0.929 . S
C1809 C1803 1.390 . S
C1809 C1806 1.386 . S
C1810 C1805 1.490 . S
C1810 C1812 1.395 . S
C1810 C1813 1.403 . S
H1811 C1817 0.930 . S
C1812 H1798 0.930 . S
C1812 C1810 1.395 . S
C1812 C1815 1.403 . S
C1813 C1810 1.403 . S
C1813 C1814 1.524 . S
C1813 C1817 1.400 . S
C1814 H1799 0.960 . S
C1814 H1800 0.960 . S
C1814 H1801 0.960 . S
C1814 C1813 1.524 . S
C1815 C1812 1.403 . S
C1815 C1816 1.392 . S
C1815 C1819 1.495 . S
C1816 C1815 1.392 . S
C1816 C1817 1.385 . S
C1816 C1818 1.478 . S
C1817 H1811 0.930 . S
C1817 C1813 1.400 . S
C1817 C1816 1.385 . S
C1818 C1816 1.478 . S
C1818 C1820 1.381 . S
C1818 C1824 1.383 . S
C1819 C1815 1.495 . S
C1819 H1825 0.959 . S
C1819 H1826 0.961 . S
C1819 H1827 0.960 . S
C1820 C1818 1.381 . S
C1820 C1821 1.394 . S
C1820 H1828 0.930 . S
C1821 C1820 1.394 . S
C1821 C1822 1.383 . S
C1821 H1829 0.929 . S
C1822 C1821 1.383 . S
C1822 C1823 1.377 . S
C1823 H1807 0.930 . S
C1823 C1822 1.377 . S
C1823 C1824 1.379 . S
C1824 H1808 0.931 . S
C1824 C1818 1.383 . S
C1824 C1823 1.379 . S
H1825 C1819 0.959 . S
H1826 C1819 0.961 . S
H1827 C1819 0.960 . S
H1828 C1820 0.930 . S
H1829 C1821 0.929 . S
H1830 C1838 0.929 . S
H1831 C1840 0.930 . S
H1832 C1842 0.930 . S
H1833 C1845 0.929 . S
H1834 C1848 0.930 . S
H1835 C1850 0.960 . S
H1836 C1850 0.960 . S
H1837 C1850 0.960 . S
C1838 H1830 0.929 . S
C1838 C1839 1.377 . S
C1838 C1840 1.384 . S
C1839 C1838 1.377 . S
C1839 C1845 1.390 . S
C1840 H1831 0.930 . S
C1840 C1838 1.384 . S
C1840 C1841 1.372 . S
C1841 C1840 1.372 . S
C1841 C1842 1.400 . S
C1841 C1846 1.490 . S
C1842 H1832 0.930 . S
C1842 C1841 1.400 . S
C1842 C1845 1.386 . S
H1843 C1859 0.930 . S
H1844 C1860 0.931 . S
C1845 H1833 0.929 . S
C1845 C1839 1.390 . S
C1845 C1842 1.386 . S
C1846 C1841 1.490 . S
C1846 C1848 1.395 . S
C1846 C1849 1.403 . S
H1847 C1853 0.930 . S
C1848 H1834 0.930 . S
C1848 C1846 1.395 . S
C1848 C1851 1.403 . S
C1849 C1846 1.403 . S
C1849 C1850 1.524 . S
C1849 C1853 1.400 . S
C1850 H1835 0.960 . S
C1850 H1836 0.960 . S
C1850 H1837 0.960 . S
C1850 C1849 1.524 . S
C1851 C1848 1.403 . S
C1851 C1852 1.392 . S
C1851 C1855 1.495 . S
C1852 C1851 1.392 . S
C1852 C1853 1.385 . S
C1852 C1854 1.478 . S
C1853 H1847 0.930 . S
C1853 C1849 1.400 . S
C1853 C1852 1.385 . S
C1854 C1852 1.478 . S
C1854 C1856 1.381 . S
C1854 C1860 1.383 . S
C1855 C1851 1.495 . S
C1855 H1861 0.959 . S
C1855 H1862 0.961 . S
C1855 H1863 0.960 . S
C1856 C1854 1.381 . S
C1856 C1857 1.394 . S
C1856 H1864 0.930 . S
C1857 C1856 1.394 . S
C1857 C1858 1.383 . S
C1857 H1865 0.929 . S
C1858 C1857 1.383 . S
C1858 C1859 1.377 . S
C1859 H1843 0.930 . S
C1859 C1858 1.377 . S
C1859 C1860 1.379 . S
C1860 H1844 0.931 . S
C1860 C1854 1.383 . S
C1860 C1859 1.379 . S
H1861 C1855 0.959 . S
H1862 C1855 0.961 . S
H1863 C1855 0.960 . S
H1864 C1856 0.930 . S
H1865 C1857 0.929 . S
H1866 C1874 0.929 . S
H1867 C1876 0.930 . S
H1868 C1878 0.930 . S
H1869 C1881 0.929 . S
H1870 C1884 0.930 . S
H1871 C1886 0.960 . S
H1872 C1886 0.960 . S
H1873 C1886 0.960 . S
C1874 H1866 0.929 . S
C1874 C1875 1.377 . S
C1874 C1876 1.384 . S
C1875 C1874 1.377 . S
C1875 C1881 1.390 . S
C1876 H1867 0.930 . S
C1876 C1874 1.384 . S
C1876 C1877 1.372 . S
C1877 C1876 1.372 . S
C1877 C1878 1.400 . S
C1877 C1882 1.490 . S
C1878 H1868 0.930 . S
C1878 C1877 1.400 . S
C1878 C1881 1.386 . S
H1879 C1895 0.930 . S
H1880 C1896 0.931 . S
C1881 H1869 0.929 . S
C1881 C1875 1.390 . S
C1881 C1878 1.386 . S
C1882 C1877 1.490 . S
C1882 C1884 1.395 . S
C1882 C1885 1.403 . S
H1883 C1889 0.930 . S
C1884 H1870 0.930 . S
C1884 C1882 1.395 . S
C1884 C1887 1.403 . S
C1885 C1882 1.403 . S
C1885 C1886 1.524 . S
C1885 C1889 1.400 . S
C1886 H1871 0.960 . S
C1886 H1872 0.960 . S
C1886 H1873 0.960 . S
C1886 C1885 1.524 . S
C1887 C1884 1.403 . S
C1887 C1888 1.392 . S
C1887 C1891 1.495 . S
C1888 C1887 1.392 . S
C1888 C1889 1.385 . S
C1888 C1890 1.478 . S
C1889 H1883 0.930 . S
C1889 C1885 1.400 . S
C1889 C1888 1.385 . S
C1890 C1888 1.478 . S
C1890 C1892 1.381 . S
C1890 C1896 1.383 . S
C1891 C1887 1.495 . S
C1891 H1897 0.959 . S
C1891 H1898 0.961 . S
C1891 H1899 0.960 . S
C1892 C1890 1.381 . S
C1892 C1893 1.394 . S
C1892 H1900 0.930 . S
C1893 C1892 1.394 . S
C1893 C1894 1.383 . S
C1893 H1901 0.929 . S
C1894 C1893 1.383 . S
C1894 C1895 1.377 . S
C1895 H1879 0.930 . S
C1895 C1894 1.377 . S
C1895 C1896 1.379 . S
C1896 H1880 0.931 . S
C1896 C1890 1.383 . S
C1896 C1895 1.379 . S
H1897 C1891 0.959 . S
H1898 C1891 0.961 . S
H1899 C1891 0.960 . S
H1900 C1892 0.930 . S
H1901 C1893 0.929 . S
H1902 C1910 0.929 . S
H1903 C1912 0.930 . S
H1904 C1914 0.930 . S
H1905 C1917 0.929 . S
H1906 C1920 0.930 . S
H1907 C1922 0.960 . S
H1908 C1922 0.960 . S
H1909 C1922 0.960 . S
C1910 H1902 0.929 . S
C1910 C1911 1.377 . S
C1910 C1912 1.384 . S
C1911 C1910 1.377 . S
C1911 C1917 1.390 . S
C1912 H1903 0.930 . S
C1912 C1910 1.384 . S
C1912 C1913 1.372 . S
C1913 C1912 1.372 . S
C1913 C1914 1.400 . S
C1913 C1918 1.490 . S
C1914 H1904 0.930 . S
C1914 C1913 1.400 . S
C1914 C1917 1.386 . S
H1915 C1931 0.930 . S
H1916 C1932 0.931 . S
C1917 H1905 0.929 . S
C1917 C1911 1.390 . S
C1917 C1914 1.386 . S
C1918 C1913 1.490 . S
C1918 C1920 1.395 . S
C1918 C1921 1.403 . S
H1919 C1925 0.930 . S
C1920 H1906 0.930 . S
C1920 C1918 1.395 . S
C1920 C1923 1.403 . S
C1921 C1918 1.403 . S
C1921 C1922 1.524 . S
C1921 C1925 1.400 . S
C1922 H1907 0.960 . S
C1922 H1908 0.960 . S
C1922 H1909 0.960 . S
C1922 C1921 1.524 . S
C1923 C1920 1.403 . S
C1923 C1924 1.392 . S
C1923 C1927 1.495 . S
C1924 C1923 1.392 . S
C1924 C1925 1.385 . S
C1924 C1926 1.478 . S
C1925 H1919 0.930 . S
C1925 C1921 1.400 . S
C1925 C1924 1.385 . S
C1926 C1924 1.478 . S
C1926 C1928 1.381 . S
C1926 C1932 1.383 . S
C1927 C1923 1.495 . S
C1927 H1933 0.959 . S
C1927 H1934 0.961 . S
C1927 H1935 0.960 . S
C1928 C1926 1.381 . S
C1928 C1929 1.394 . S
C1928 H1936 0.930 . S
C1929 C1928 1.394 . S
C1929 C1930 1.383 . S
C1929 H1937 0.929 . S
C1930 C1929 1.383 . S
C1930 C1931 1.377 . S
C1931 H1915 0.930 . S
C1931 C1930 1.377 . S
C1931 C1932 1.379 . S
C1932 H1916 0.931 . S
C1932 C1926 1.383 . S
C1932 C1931 1.379 . S
H1933 C1927 0.959 . S
H1934 C1927 0.961 . S
H1935 C1927 0.960 . S
H1936 C1928 0.930 . S
H1937 C1929 0.929 . S
H1938 C1946 0.929 . S
H1939 C1948 0.930 . S
H1940 C1950 0.930 . S
H1941 C1953 0.929 . S
H1942 C1956 0.930 . S
H1943 C1958 0.960 . S
H1944 C1958 0.960 . S
H1945 C1958 0.960 . S
C1946 H1938 0.929 . S
C1946 C1947 1.377 . S
C1946 C1948 1.384 . S
C1947 C1946 1.377 . S
C1947 C1953 1.390 . S
C1948 H1939 0.930 . S
C1948 C1946 1.384 . S
C1948 C1949 1.372 . S
C1949 C1948 1.372 . S
C1949 C1950 1.400 . S
C1949 C1954 1.490 . S
C1950 H1940 0.930 . S
C1950 C1949 1.400 . S
C1950 C1953 1.386 . S
H1951 C1967 0.930 . S
H1952 C1968 0.931 . S
C1953 H1941 0.929 . S
C1953 C1947 1.390 . S
C1953 C1950 1.386 . S
C1954 C1949 1.490 . S
C1954 C1956 1.395 . S
C1954 C1957 1.403 . S
H1955 C1961 0.930 . S
C1956 H1942 0.930 . S
C1956 C1954 1.395 . S
C1956 C1959 1.403 . S
C1957 C1954 1.403 . S
C1957 C1958 1.524 . S
C1957 C1961 1.400 . S
C1958 H1943 0.960 . S
C1958 H1944 0.960 . S
C1958 H1945 0.960 . S
C1958 C1957 1.524 . S
C1959 C1956 1.403 . S
C1959 C1960 1.392 . S
C1959 C1963 1.495 . S
C1960 C1959 1.392 . S
C1960 C1961 1.385 . S
C1960 C1962 1.478 . S
C1961 H1955 0.930 . S
C1961 C1957 1.400 . S
C1961 C1960 1.385 . S
C1962 C1960 1.478 . S
C1962 C1964 1.381 . S
C1962 C1968 1.383 . S
C1963 C1959 1.495 . S
C1963 H1969 0.959 . S
C1963 H1970 0.961 . S
C1963 H1971 0.960 . S
C1964 C1962 1.381 . S
C1964 C1965 1.394 . S
C1964 H1972 0.930 . S
C1965 C1964 1.394 . S
C1965 C1966 1.383 . S
C1965 H1973 0.929 . S
C1966 C1965 1.383 . S
C1966 C1967 1.377 . S
C1967 H1951 0.930 . S
C1967 C1966 1.377 . S
C1967 C1968 1.379 . S
C1968 H1952 0.931 . S
C1968 C1962 1.383 . S
C1968 C1967 1.379 . S
H1969 C1963 0.959 . S
H1970 C1963 0.961 . S
H1971 C1963 0.960 . S
H1972 C1964 0.930 . S
H1973 C1965 0.929 . S
H1974 C1982 0.929 . S
H1975 C1984 0.930 . S
H1976 C1986 0.930 . S
H1977 C1989 0.929 . S
H1978 C1992 0.930 . S
H1979 C1994 0.960 . S
H1980 C1994 0.960 . S
H1981 C1994 0.960 . S
C1982 H1974 0.929 . S
C1982 C1983 1.377 . S
C1982 C1984 1.384 . S
C1983 C1982 1.377 . S
C1983 C1989 1.390 . S
C1984 H1975 0.930 . S
C1984 C1982 1.384 . S
C1984 C1985 1.372 . S
C1985 C1984 1.372 . S
C1985 C1986 1.400 . S
C1985 C1990 1.490 . S
C1986 H1976 0.930 . S
C1986 C1985 1.400 . S
C1986 C1989 1.386 . S
H1987 C2003 0.930 . S
H1988 C2004 0.931 . S
C1989 H1977 0.929 . S
C1989 C1983 1.390 . S
C1989 C1986 1.386 . S
C1990 C1985 1.490 . S
C1990 C1992 1.395 . S
C1990 C1993 1.403 . S
H1991 C1997 0.930 . S
C1992 H1978 0.930 . S
C1992 C1990 1.395 . S
C1992 C1995 1.403 . S
C1993 C1990 1.403 . S
C1993 C1994 1.524 . S
C1993 C1997 1.400 . S
C1994 H1979 0.960 . S
C1994 H1980 0.960 . S
C1994 H1981 0.960 . S
C1994 C1993 1.524 . S
C1995 C1992 1.403 . S
C1995 C1996 1.392 . S
C1995 C1999 1.495 . S
C1996 C1995 1.392 . S
C1996 C1997 1.385 . S
C1996 C1998 1.478 . S
C1997 H1991 0.930 . S
C1997 C1993 1.400 . S
C1997 C1996 1.385 . S
C1998 C1996 1.478 . S
C1998 C2000 1.381 . S
C1998 C2004 1.383 . S
C1999 C1995 1.495 . S
C1999 H2005 0.959 . S
C1999 H2006 0.961 . S
C1999 H2007 0.960 . S
C2000 C1998 1.381 . S
C2000 C2001 1.394 . S
C2000 H2008 0.930 . S
C2001 C2000 1.394 . S
C2001 C2002 1.383 . S
C2001 H2009 0.929 . S
C2002 C2001 1.383 . S
C2002 C2003 1.377 . S
C2003 H1987 0.930 . S
C2003 C2002 1.377 . S
C2003 C2004 1.379 . S
C2004 H1988 0.931 . S
C2004 C1998 1.383 . S
C2004 C2003 1.379 . S
H2005 C1999 0.959 . S
H2006 C1999 0.961 . S
H2007 C1999 0.960 . S
H2008 C2000 0.930 . S
H2009 C2001 0.929 . S
H2010 C2018 0.929 . S
H2011 C2020 0.930 . S
H2012 C2022 0.930 . S
H2013 C2025 0.929 . S
H2014 C2028 0.930 . S
H2015 C2030 0.960 . S
H2016 C2030 0.960 . S
H2017 C2030 0.960 . S
C2018 H2010 0.929 . S
C2018 C2019 1.377 . S
C2018 C2020 1.384 . S
C2019 C2018 1.377 . S
C2019 C2025 1.390 . S
C2020 H2011 0.930 . S
C2020 C2018 1.384 . S
C2020 C2021 1.372 . S
C2021 C2020 1.372 . S
C2021 C2022 1.400 . S
C2021 C2026 1.490 . S
C2022 H2012 0.930 . S
C2022 C2021 1.400 . S
C2022 C2025 1.386 . S
H2023 C2039 0.930 . S
H2024 C2040 0.931 . S
C2025 H2013 0.929 . S
C2025 C2019 1.390 . S
C2025 C2022 1.386 . S
C2026 C2021 1.490 . S
C2026 C2028 1.395 . S
C2026 C2029 1.403 . S
H2027 C2033 0.930 . S
C2028 H2014 0.930 . S
C2028 C2026 1.395 . S
C2028 C2031 1.403 . S
C2029 C2026 1.403 . S
C2029 C2030 1.524 . S
C2029 C2033 1.400 . S
C2030 H2015 0.960 . S
C2030 H2016 0.960 . S
C2030 H2017 0.960 . S
C2030 C2029 1.524 . S
C2031 C2028 1.403 . S
C2031 C2032 1.392 . S
C2031 C2035 1.495 . S
C2032 C2031 1.392 . S
C2032 C2033 1.385 . S
C2032 C2034 1.478 . S
C2033 H2027 0.930 . S
C2033 C2029 1.400 . S
C2033 C2032 1.385 . S
C2034 C2032 1.478 . S
C2034 C2036 1.381 . S
C2034 C2040 1.383 . S
C2035 C2031 1.495 . S
C2035 H2041 0.959 . S
C2035 H2042 0.961 . S
C2035 H2043 0.960 . S
C2036 C2034 1.381 . S
C2036 C2037 1.394 . S
C2036 H2044 0.930 . S
C2037 C2036 1.394 . S
C2037 C2038 1.383 . S
C2037 H2045 0.929 . S
C2038 C2037 1.383 . S
C2038 C2039 1.377 . S
C2039 H2023 0.930 . S
C2039 C2038 1.377 . S
C2039 C2040 1.379 . S
C2040 H2024 0.931 . S
C2040 C2034 1.383 . S
C2040 C2039 1.379 . S
H2041 C2035 0.959 . S
H2042 C2035 0.961 . S
H2043 C2035 0.960 . S
H2044 C2036 0.930 . S
H2045 C2037 0.929 . S
H2046 C2054 0.929 . S
H2047 C2056 0.930 . S
H2048 C2058 0.930 . S
H2049 C2061 0.929 . S
H2050 C2064 0.930 . S
H2051 C2066 0.960 . S
H2052 C2066 0.960 . S
H2053 C2066 0.960 . S
C2054 H2046 0.929 . S
C2054 C2055 1.377 . S
C2054 C2056 1.384 . S
C2055 C2054 1.377 . S
C2055 C2061 1.390 . S
C2056 H2047 0.930 . S
C2056 C2054 1.384 . S
C2056 C2057 1.372 . S
C2057 C2056 1.372 . S
C2057 C2058 1.400 . S
C2057 C2062 1.490 . S
C2058 H2048 0.930 . S
C2058 C2057 1.400 . S
C2058 C2061 1.386 . S
H2059 C2075 0.930 . S
H2060 C2076 0.931 . S
C2061 H2049 0.929 . S
C2061 C2055 1.390 . S
C2061 C2058 1.386 . S
C2062 C2057 1.490 . S
C2062 C2064 1.395 . S
C2062 C2065 1.403 . S
H2063 C2069 0.930 . S
C2064 H2050 0.930 . S
C2064 C2062 1.395 . S
C2064 C2067 1.403 . S
C2065 C2062 1.403 . S
C2065 C2066 1.524 . S
C2065 C2069 1.400 . S
C2066 H2051 0.960 . S
C2066 H2052 0.960 . S
C2066 H2053 0.960 . S
C2066 C2065 1.524 . S
C2067 C2064 1.403 . S
C2067 C2068 1.392 . S
C2067 C2071 1.495 . S
C2068 C2067 1.392 . S
C2068 C2069 1.385 . S
C2068 C2070 1.478 . S
C2069 H2063 0.930 . S
C2069 C2065 1.400 . S
C2069 C2068 1.385 . S
C2070 C2068 1.478 . S
C2070 C2072 1.381 . S
C2070 C2076 1.383 . S
C2071 C2067 1.495 . S
C2071 H2077 0.959 . S
C2071 H2078 0.961 . S
C2071 H2079 0.960 . S
C2072 C2070 1.381 . S
C2072 C2073 1.394 . S
C2072 H2080 0.930 . S
C2073 C2072 1.394 . S
C2073 C2074 1.383 . S
C2073 H2081 0.929 . S
C2074 C2073 1.383 . S
C2074 C2075 1.377 . S
C2075 H2059 0.930 . S
C2075 C2074 1.377 . S
C2075 C2076 1.379 . S
C2076 H2060 0.931 . S
C2076 C2070 1.383 . S
C2076 C2075 1.379 . S
H2077 C2071 0.959 . S
H2078 C2071 0.961 . S
H2079 C2071 0.960 . S
H2080 C2072 0.930 . S
H2081 C2073 0.929 . S
H2082 C2090 0.929 . S
H2083 C2092 0.930 . S
H2084 C2094 0.930 . S
H2085 C2097 0.929 . S
H2086 C2100 0.930 . S
H2087 C2102 0.960 . S
H2088 C2102 0.960 . S
H2089 C2102 0.960 . S
C2090 H2082 0.929 . S
C2090 C2091 1.377 . S
C2090 C2092 1.384 . S
C2091 C2090 1.377 . S
C2091 C2097 1.390 . S
C2092 H2083 0.930 . S
C2092 C2090 1.384 . S
C2092 C2093 1.372 . S
C2093 C2092 1.372 . S
C2093 C2094 1.400 . S
C2093 C2098 1.490 . S
C2094 H2084 0.930 . S
C2094 C2093 1.400 . S
C2094 C2097 1.386 . S
H2095 C2111 0.930 . S
H2096 C2112 0.931 . S
C2097 H2085 0.929 . S
C2097 C2091 1.390 . S
C2097 C2094 1.386 . S
C2098 C2093 1.490 . S
C2098 C2100 1.395 . S
C2098 C2101 1.403 . S
H2099 C2105 0.930 . S
C2100 H2086 0.930 . S
C2100 C2098 1.395 . S
C2100 C2103 1.403 . S
C2101 C2098 1.403 . S
C2101 C2102 1.524 . S
C2101 C2105 1.400 . S
C2102 H2087 0.960 . S
C2102 H2088 0.960 . S
C2102 H2089 0.960 . S
C2102 C2101 1.524 . S
C2103 C2100 1.403 . S
C2103 C2104 1.392 . S
C2103 C2107 1.495 . S
C2104 C2103 1.392 . S
C2104 C2105 1.385 . S
C2104 C2106 1.478 . S
C2105 H2099 0.930 . S
C2105 C2101 1.400 . S
C2105 C2104 1.385 . S
C2106 C2104 1.478 . S
C2106 C2108 1.381 . S
C2106 C2112 1.383 . S
C2107 C2103 1.495 . S
C2107 H2113 0.959 . S
C2107 H2114 0.961 . S
C2107 H2115 0.960 . S
C2108 C2106 1.381 . S
C2108 C2109 1.394 . S
C2108 H2116 0.930 . S
C2109 C2108 1.394 . S
C2109 C2110 1.383 . S
C2109 H2117 0.929 . S
C2110 C2109 1.383 . S
C2110 C2111 1.377 . S
C2111 H2095 0.930 . S
C2111 C2110 1.377 . S
C2111 C2112 1.379 . S
C2112 H2096 0.931 . S
C2112 C2106 1.383 . S
C2112 C2111 1.379 . S
H2113 C2107 0.959 . S
H2114 C2107 0.961 . S
H2115 C2107 0.960 . S
H2116 C2108 0.930 . S
H2117 C2109 0.929 . S
H2118 C2126 0.929 . S
H2119 C2128 0.930 . S
H2120 C2130 0.930 . S
H2121 C2133 0.929 . S
H2122 C2136 0.930 . S
H2123 C2138 0.960 . S
H2124 C2138 0.960 . S
H2125 C2138 0.960 . S
C2126 H2118 0.929 . S
C2126 C2127 1.377 . S
C2126 C2128 1.384 . S
C2127 C2126 1.377 . S
C2127 C2133 1.390 . S
C2128 H2119 0.930 . S
C2128 C2126 1.384 . S
C2128 C2129 1.372 . S
C2129 C2128 1.372 . S
C2129 C2130 1.400 . S
C2129 C2134 1.490 . S
C2130 H2120 0.930 . S
C2130 C2129 1.400 . S
C2130 C2133 1.386 . S
H2131 C2147 0.930 . S
H2132 C2148 0.931 . S
C2133 H2121 0.929 . S
C2133 C2127 1.390 . S
C2133 C2130 1.386 . S
C2134 C2129 1.490 . S
C2134 C2136 1.395 . S
C2134 C2137 1.403 . S
H2135 C2141 0.930 . S
C2136 H2122 0.930 . S
C2136 C2134 1.395 . S
C2136 C2139 1.403 . S
C2137 C2134 1.403 . S
C2137 C2138 1.524 . S
C2137 C2141 1.400 . S
C2138 H2123 0.960 . S
C2138 H2124 0.960 . S
C2138 H2125 0.960 . S
C2138 C2137 1.524 . S
C2139 C2136 1.403 . S
C2139 C2140 1.392 . S
C2139 C2143 1.495 . S
C2140 C2139 1.392 . S
C2140 C2141 1.385 . S
C2140 C2142 1.478 . S
C2141 H2135 0.930 . S
C2141 C2137 1.400 . S
C2141 C2140 1.385 . S
C2142 C2140 1.478 . S
C2142 C2144 1.381 . S
C2142 C2148 1.383 . S
C2143 C2139 1.495 . S
C2143 H2149 0.959 . S
C2143 H2150 0.961 . S
C2143 H2151 0.960 . S
C2144 C2142 1.381 . S
C2144 C2145 1.394 . S
C2144 H2152 0.930 . S
C2145 C2144 1.394 . S
C2145 C2146 1.383 . S
C2145 H2153 0.929 . S
C2146 C2145 1.383 . S
C2146 C2147 1.377 . S
C2147 H2131 0.930 . S
C2147 C2146 1.377 . S
C2147 C2148 1.379 . S
C2148 H2132 0.931 . S
C2148 C2142 1.383 . S
C2148 C2147 1.379 . S
H2149 C2143 0.959 . S
H2150 C2143 0.961 . S
H2151 C2143 0.960 . S
H2152 C2144 0.930 . S
H2153 C2145 0.929 . S
H2154 C2162 0.929 . S
H2155 C2164 0.930 . S
H2156 C2166 0.930 . S
H2157 C2169 0.929 . S
H2158 C2172 0.930 . S
H2159 C2174 0.960 . S
H2160 C2174 0.960 . S
H2161 C2174 0.960 . S
C2162 H2154 0.929 . S
C2162 C2163 1.377 . S
C2162 C2164 1.384 . S
C2163 C2162 1.377 . S
C2163 C2169 1.390 . S
C2164 H2155 0.930 . S
C2164 C2162 1.384 . S
C2164 C2165 1.372 . S
C2165 C2164 1.372 . S
C2165 C2166 1.400 . S
C2165 C2170 1.490 . S
C2166 H2156 0.930 . S
C2166 C2165 1.400 . S
C2166 C2169 1.386 . S
H2167 C2183 0.930 . S
H2168 C2184 0.931 . S
C2169 H2157 0.929 . S
C2169 C2163 1.390 . S
C2169 C2166 1.386 . S
C2170 C2165 1.490 . S
C2170 C2172 1.395 . S
C2170 C2173 1.403 . S
H2171 C2177 0.930 . S
C2172 H2158 0.930 . S
C2172 C2170 1.395 . S
C2172 C2175 1.403 . S
C2173 C2170 1.403 . S
C2173 C2174 1.524 . S
C2173 C2177 1.400 . S
C2174 H2159 0.960 . S
C2174 H2160 0.960 . S
C2174 H2161 0.960 . S
C2174 C2173 1.524 . S
C2175 C2172 1.403 . S
C2175 C2176 1.392 . S
C2175 C2179 1.495 . S
C2176 C2175 1.392 . S
C2176 C2177 1.385 . S
C2176 C2178 1.478 . S
C2177 H2171 0.930 . S
C2177 C2173 1.400 . S
C2177 C2176 1.385 . S
C2178 C2176 1.478 . S
C2178 C2180 1.381 . S
C2178 C2184 1.383 . S
C2179 C2175 1.495 . S
C2179 H2185 0.959 . S
C2179 H2186 0.961 . S
C2179 H2187 0.960 . S
C2180 C2178 1.381 . S
C2180 C2181 1.394 . S
C2180 H2188 0.930 . S
C2181 C2180 1.394 . S
C2181 C2182 1.383 . S
C2181 H2189 0.929 . S
C2182 C2181 1.383 . S
C2182 C2183 1.377 . S
C2183 H2167 0.930 . S
C2183 C2182 1.377 . S
C2183 C2184 1.379 . S
C2184 H2168 0.931 . S
C2184 C2178 1.383 . S
C2184 C2183 1.379 . S
H2185 C2179 0.959 . S
H2186 C2179 0.961 . S
H2187 C2179 0.960 . S
H2188 C2180 0.930 . S
H2189 C2181 0.929 . S
H2190 C2198 0.929 . S
H2191 C2200 0.930 . S
H2192 C2202 0.930 . S
H2193 C2205 0.929 . S
H2194 C2208 0.930 . S
H2195 C2210 0.960 . S
H2196 C2210 0.960 . S
H2197 C2210 0.960 . S
C2198 H2190 0.929 . S
C2198 C2199 1.377 . S
C2198 C2200 1.384 . S
C2199 C2198 1.377 . S
C2199 C2205 1.390 . S
C2200 H2191 0.930 . S
C2200 C2198 1.384 . S
C2200 C2201 1.372 . S
C2201 C2200 1.372 . S
C2201 C2202 1.400 . S
C2201 C2206 1.490 . S
C2202 H2192 0.930 . S
C2202 C2201 1.400 . S
C2202 C2205 1.386 . S
H2203 C2219 0.930 . S
H2204 C2220 0.931 . S
C2205 H2193 0.929 . S
C2205 C2199 1.390 . S
C2205 C2202 1.386 . S
C2206 C2201 1.490 . S
C2206 C2208 1.395 . S
C2206 C2209 1.403 . S
H2207 C2213 0.930 . S
C2208 H2194 0.930 . S
C2208 C2206 1.395 . S
C2208 C2211 1.403 . S
C2209 C2206 1.403 . S
C2209 C2210 1.524 . S
C2209 C2213 1.400 . S
C2210 H2195 0.960 . S
C2210 H2196 0.960 . S
C2210 H2197 0.960 . S
C2210 C2209 1.524 . S
C2211 C2208 1.403 . S
C2211 C2212 1.392 . S
C2211 C2215 1.495 . S
C2212 C2211 1.392 . S
C2212 C2213 1.385 . S
C2212 C2214 1.478 . S
C2213 H2207 0.930 . S
C2213 C2209 1.400 . S
C2213 C2212 1.385 . S
C2214 C2212 1.478 . S
C2214 C2216 1.381 . S
C2214 C2220 1.383 . S
C2215 C2211 1.495 . S
C2215 H2221 0.959 . S
C2215 H2222 0.961 . S
C2215 H2223 0.960 . S
C2216 C2214 1.381 . S
C2216 C2217 1.394 . S
C2216 H2224 0.930 . S
C2217 C2216 1.394 . S
C2217 C2218 1.383 . S
C2217 H2225 0.929 . S
C2218 C2217 1.383 . S
C2218 C2219 1.377 . S
C2219 H2203 0.930 . S
C2219 C2218 1.377 . S
C2219 C2220 1.379 . S
C2220 H2204 0.931 . S
C2220 C2214 1.383 . S
C2220 C2219 1.379 . S
H2221 C2215 0.959 . S
H2222 C2215 0.961 . S
H2223 C2215 0.960 . S
H2224 C2216 0.930 . S
H2225 C2217 0.929 . S
H2226 C2234 0.929 . S
H2227 C2236 0.930 . S
H2228 C2238 0.930 . S
H2229 C2241 0.929 . S
H2230 C2244 0.930 . S
H2231 C2246 0.960 . S
H2232 C2246 0.960 . S
H2233 C2246 0.960 . S
C2234 H2226 0.929 . S
C2234 C2235 1.377 . S
C2234 C2236 1.384 . S
C2235 C2234 1.377 . S
C2235 C2241 1.390 . S
C2236 H2227 0.930 . S
C2236 C2234 1.384 . S
C2236 C2237 1.372 . S
C2237 C2236 1.372 . S
C2237 C2238 1.400 . S
C2237 C2242 1.490 . S
C2238 H2228 0.930 . S
C2238 C2237 1.400 . S
C2238 C2241 1.386 . S
H2239 C2255 0.930 . S
H2240 C2256 0.931 . S
C2241 H2229 0.929 . S
C2241 C2235 1.390 . S
C2241 C2238 1.386 . S
C2242 C2237 1.490 . S
C2242 C2244 1.395 . S
C2242 C2245 1.403 . S
H2243 C2249 0.930 . S
C2244 H2230 0.930 . S
C2244 C2242 1.395 . S
C2244 C2247 1.403 . S
C2245 C2242 1.403 . S
C2245 C2246 1.524 . S
C2245 C2249 1.400 . S
C2246 H2231 0.960 . S
C2246 H2232 0.960 . S
C2246 H2233 0.960 . S
C2246 C2245 1.524 . S
C2247 C2244 1.403 . S
C2247 C2248 1.392 . S
C2247 C2251 1.495 . S
C2248 C2247 1.392 . S
C2248 C2249 1.385 . S
C2248 C2250 1.478 . S
C2249 H2243 0.930 . S
C2249 C2245 1.400 . S
C2249 C2248 1.385 . S
C2250 C2248 1.478 . S
C2250 C2252 1.381 . S
C2250 C2256 1.383 . S
C2251 C2247 1.495 . S
C2251 H2257 0.959 . S
C2251 H2258 0.961 . S
C2251 H2259 0.960 . S
C2252 C2250 1.381 . S
C2252 C2253 1.394 . S
C2252 H2260 0.930 . S
C2253 C2252 1.394 . S
C2253 C2254 1.383 . S
C2253 H2261 0.929 . S
C2254 C2253 1.383 . S
C2254 C2255 1.377 . S
C2255 H2239 0.930 . S
C2255 C2254 1.377 . S
C2255 C2256 1.379 . S
C2256 H2240 0.931 . S
C2256 C2250 1.383 . S
C2256 C2255 1.379 . S
H2257 C2251 0.959 . S
H2258 C2251 0.961 . S
H2259 C2251 0.960 . S
H2260 C2252 0.930 . S
H2261 C2253 0.929 . S
H2262 C2270 0.929 . S
H2263 C2272 0.930 . S
H2264 C2274 0.930 . S
H2265 C2277 0.929 . S
H2266 C2280 0.930 . S
H2267 C2282 0.960 . S
H2268 C2282 0.960 . S
H2269 C2282 0.960 . S
C2270 H2262 0.929 . S
C2270 C2271 1.377 . S
C2270 C2272 1.384 . S
C2271 C2270 1.377 . S
C2271 C2277 1.390 . S
C2272 H2263 0.930 . S
C2272 C2270 1.384 . S
C2272 C2273 1.372 . S
C2273 C2272 1.372 . S
C2273 C2274 1.400 . S
C2273 C2278 1.490 . S
C2274 H2264 0.930 . S
C2274 C2273 1.400 . S
C2274 C2277 1.386 . S
H2275 C2291 0.930 . S
H2276 C2292 0.931 . S
C2277 H2265 0.929 . S
C2277 C2271 1.390 . S
C2277 C2274 1.386 . S
C2278 C2273 1.490 . S
C2278 C2280 1.395 . S
C2278 C2281 1.403 . S
H2279 C2285 0.930 . S
C2280 H2266 0.930 . S
C2280 C2278 1.395 . S
C2280 C2283 1.403 . S
C2281 C2278 1.403 . S
C2281 C2282 1.524 . S
C2281 C2285 1.400 . S
C2282 H2267 0.960 . S
C2282 H2268 0.960 . S
C2282 H2269 0.960 . S
C2282 C2281 1.524 . S
C2283 C2280 1.403 . S
C2283 C2284 1.392 . S
C2283 C2287 1.495 . S
C2284 C2283 1.392 . S
C2284 C2285 1.385 . S
C2284 C2286 1.478 . S
C2285 H2279 0.930 . S
C2285 C2281 1.400 . S
C2285 C2284 1.385 . S
C2286 C2284 1.478 . S
C2286 C2288 1.381 . S
C2286 C2292 1.383 . S
C2287 C2283 1.495 . S
C2287 H2293 0.959 . S
C2287 H2294 0.961 . S
C2287 H2295 0.960 . S
C2288 C2286 1.381 . S
C2288 C2289 1.394 . S
C2288 H2296 0.930 . S
C2289 C2288 1.394 . S
C2289 C2290 1.383 . S
C2289 H2297 0.929 . S
C2290 C2289 1.383 . S
C2290 C2291 1.377 . S
C2291 H2275 0.930 . S
C2291 C2290 1.377 . S
C2291 C2292 1.379 . S
C2292 H2276 0.931 . S
C2292 C2286 1.383 . S
C2292 C2291 1.379 . S
H2293 C2287 0.959 . S
H2294 C2287 0.961 . S
H2295 C2287 0.960 . S
H2296 C2288 0.930 . S
H2297 C2289 0.929 . S
H2298 C2306 0.929 . S
H2299 C2308 0.930 . S
H2300 C2310 0.930 . S
H2301 C2313 0.929 . S
H2302 C2316 0.930 . S
H2303 C2318 0.960 . S
H2304 C2318 0.960 . S
H2305 C2318 0.960 . S
C2306 H2298 0.929 . S
C2306 C2307 1.377 . S
C2306 C2308 1.384 . S
C2307 C2306 1.377 . S
C2307 C2313 1.390 . S
C2308 H2299 0.930 . S
C2308 C2306 1.384 . S
C2308 C2309 1.372 . S
C2309 C2308 1.372 . S
C2309 C2310 1.400 . S
C2309 C2314 1.490 . S
C2310 H2300 0.930 . S
C2310 C2309 1.400 . S
C2310 C2313 1.386 . S
H2311 C2327 0.930 . S
H2312 C2328 0.931 . S
C2313 H2301 0.929 . S
C2313 C2307 1.390 . S
C2313 C2310 1.386 . S
C2314 C2309 1.490 . S
C2314 C2316 1.395 . S
C2314 C2317 1.403 . S
H2315 C2321 0.930 . S
C2316 H2302 0.930 . S
C2316 C2314 1.395 . S
C2316 C2319 1.403 . S
C2317 C2314 1.403 . S
C2317 C2318 1.524 . S
C2317 C2321 1.400 . S
C2318 H2303 0.960 . S
C2318 H2304 0.960 . S
C2318 H2305 0.960 . S
C2318 C2317 1.524 . S
C2319 C2316 1.403 . S
C2319 C2320 1.392 . S
C2319 C2323 1.495 . S
C2320 C2319 1.392 . S
C2320 C2321 1.385 . S
C2320 C2322 1.478 . S
C2321 H2315 0.930 . S
C2321 C2317 1.400 . S
C2321 C2320 1.385 . S
C2322 C2320 1.478 . S
C2322 C2324 1.381 . S
C2322 C2328 1.383 . S
C2323 C2319 1.495 . S
C2323 H2329 0.959 . S
C2323 H2330 0.961 . S
C2323 H2331 0.960 . S
C2324 C2322 1.381 . S
C2324 C2325 1.394 . S
C2324 H2332 0.930 . S
C2325 C2324 1.394 . S
C2325 C2326 1.383 . S
C2325 H2333 0.929 . S
C2326 C2325 1.383 . S
C2326 C2327 1.377 . S
C2327 H2311 0.930 . S
C2327 C2326 1.377 . S
C2327 C2328 1.379 . S
C2328 H2312 0.931 . S
C2328 C2322 1.383 . S
C2328 C2327 1.379 . S
H2329 C2323 0.959 . S
H2330 C2323 0.961 . S
H2331 C2323 0.960 . S
H2332 C2324 0.930 . S
H2333 C2325 0.929 . S
H2334 C2342 0.929 . S
H2335 C2344 0.930 . S
H2336 C2346 0.930 . S
H2337 C2349 0.929 . S
H2338 C2352 0.930 . S
H2339 C2354 0.960 . S
H2340 C2354 0.960 . S
H2341 C2354 0.960 . S
C2342 H2334 0.929 . S
C2342 C2343 1.377 . S
C2342 C2344 1.384 . S
C2343 C2342 1.377 . S
C2343 C2349 1.390 . S
C2344 H2335 0.930 . S
C2344 C2342 1.384 . S
C2344 C2345 1.372 . S
C2345 C2344 1.372 . S
C2345 C2346 1.400 . S
C2345 C2350 1.490 . S
C2346 H2336 0.930 . S
C2346 C2345 1.400 . S
C2346 C2349 1.386 . S
H2347 C2363 0.930 . S
H2348 C2364 0.931 . S
C2349 H2337 0.929 . S
C2349 C2343 1.390 . S
C2349 C2346 1.386 . S
C2350 C2345 1.490 . S
C2350 C2352 1.395 . S
C2350 C2353 1.403 . S
H2351 C2357 0.930 . S
C2352 H2338 0.930 . S
C2352 C2350 1.395 . S
C2352 C2355 1.403 . S
C2353 C2350 1.403 . S
C2353 C2354 1.524 . S
C2353 C2357 1.400 . S
C2354 H2339 0.960 . S
C2354 H2340 0.960 . S
C2354 H2341 0.960 . S
C2354 C2353 1.524 . S
C2355 C2352 1.403 . S
C2355 C2356 1.392 . S
C2355 C2359 1.495 . S
C2356 C2355 1.392 . S
C2356 C2357 1.385 . S
C2356 C2358 1.478 . S
C2357 H2351 0.930 . S
C2357 C2353 1.400 . S
C2357 C2356 1.385 . S
C2358 C2356 1.478 . S
C2358 C2360 1.381 . S
C2358 C2364 1.383 . S
C2359 C2355 1.495 . S
C2359 H2365 0.959 . S
C2359 H2366 0.961 . S
C2359 H2367 0.960 . S
C2360 C2358 1.381 . S
C2360 C2361 1.394 . S
C2360 H2368 0.930 . S
C2361 C2360 1.394 . S
C2361 C2362 1.383 . S
C2361 H2369 0.929 . S
C2362 C2361 1.383 . S
C2362 C2363 1.377 . S
C2363 H2347 0.930 . S
C2363 C2362 1.377 . S
C2363 C2364 1.379 . S
C2364 H2348 0.931 . S
C2364 C2358 1.383 . S
C2364 C2363 1.379 . S
H2365 C2359 0.959 . S
H2366 C2359 0.961 . S
H2367 C2359 0.960 . S
H2368 C2360 0.930 . S
H2369 C2361 0.929 . S
H2370 C2378 0.929 . S
H2371 C2380 0.930 . S
H2372 C2382 0.930 . S
H2373 C2385 0.929 . S
H2374 C2388 0.930 . S
H2375 C2390 0.960 . S
H2376 C2390 0.960 . S
H2377 C2390 0.960 . S
C2378 H2370 0.929 . S
C2378 C2379 1.377 . S
C2378 C2380 1.384 . S
C2379 C2378 1.377 . S
C2379 C2385 1.390 . S
C2380 H2371 0.930 . S
C2380 C2378 1.384 . S
C2380 C2381 1.372 . S
C2381 C2380 1.372 . S
C2381 C2382 1.400 . S
C2381 C2386 1.490 . S
C2382 H2372 0.930 . S
C2382 C2381 1.400 . S
C2382 C2385 1.386 . S
H2383 C2399 0.930 . S
H2384 C2400 0.931 . S
C2385 H2373 0.929 . S
C2385 C2379 1.390 . S
C2385 C2382 1.386 . S
C2386 C2381 1.490 . S
C2386 C2388 1.395 . S
C2386 C2389 1.403 . S
H2387 C2393 0.930 . S
C2388 H2374 0.930 . S
C2388 C2386 1.395 . S
C2388 C2391 1.403 . S
C2389 C2386 1.403 . S
C2389 C2390 1.524 . S
C2389 C2393 1.400 . S
C2390 H2375 0.960 . S
C2390 H2376 0.960 . S
C2390 H2377 0.960 . S
C2390 C2389 1.524 . S
C2391 C2388 1.403 . S
C2391 C2392 1.392 . S
C2391 C2395 1.495 . S
C2392 C2391 1.392 . S
C2392 C2393 1.385 . S
C2392 C2394 1.478 . S
C2393 H2387 0.930 . S
C2393 C2389 1.400 . S
C2393 C2392 1.385 . S
C2394 C2392 1.478 . S
C2394 C2396 1.381 . S
C2394 C2400 1.383 . S
C2395 C2391 1.495 . S
C2395 H2401 0.959 . S
C2395 H2402 0.961 . S
C2395 H2403 0.960 . S
C2396 C2394 1.381 . S
C2396 C2397 1.394 . S
C2396 H2404 0.930 . S
C2397 C2396 1.394 . S
C2397 C2398 1.383 . S
C2397 H2405 0.929 . S
C2398 C2397 1.383 . S
C2398 C2399 1.377 . S
C2399 H2383 0.930 . S
C2399 C2398 1.377 . S
C2399 C2400 1.379 . S
C2400 H2384 0.931 . S
C2400 C2394 1.383 . S
C2400 C2399 1.379 . S
H2401 C2395 0.959 . S
H2402 C2395 0.961 . S
H2403 C2395 0.960 . S
H2404 C2396 0.930 . S
H2405 C2397 0.929 . S
H2406 C2414 0.929 . S
H2407 C2416 0.930 . S
H2408 C2418 0.930 . S
H2409 C2421 0.929 . S
H2410 C2424 0.930 . S
H2411 C2426 0.960 . S
H2412 C2426 0.960 . S
H2413 C2426 0.960 . S
C2414 H2406 0.929 . S
C2414 C2415 1.377 . S
C2414 C2416 1.384 . S
C2415 C2414 1.377 . S
C2415 C2421 1.390 . S
C2416 H2407 0.930 . S
C2416 C2414 1.384 . S
C2416 C2417 1.372 . S
C2417 C2416 1.372 . S
C2417 C2418 1.400 . S
C2417 C2422 1.490 . S
C2418 H2408 0.930 . S
C2418 C2417 1.400 . S
C2418 C2421 1.386 . S
H2419 C2435 0.930 . S
H2420 C2436 0.931 . S
C2421 H2409 0.929 . S
C2421 C2415 1.390 . S
C2421 C2418 1.386 . S
C2422 C2417 1.490 . S
C2422 C2424 1.395 . S
C2422 C2425 1.403 . S
H2423 C2429 0.930 . S
C2424 H2410 0.930 . S
C2424 C2422 1.395 . S
C2424 C2427 1.403 . S
C2425 C2422 1.403 . S
C2425 C2426 1.524 . S
C2425 C2429 1.400 . S
C2426 H2411 0.960 . S
C2426 H2412 0.960 . S
C2426 H2413 0.960 . S
C2426 C2425 1.524 . S
C2427 C2424 1.403 . S
C2427 C2428 1.392 . S
C2427 C2431 1.495 . S
C2428 C2427 1.392 . S
C2428 C2429 1.385 . S
C2428 C2430 1.478 . S
C2429 H2423 0.930 . S
C2429 C2425 1.400 . S
C2429 C2428 1.385 . S
C2430 C2428 1.478 . S
C2430 C2432 1.381 . S
C2430 C2436 1.383 . S
C2431 C2427 1.495 . S
C2431 H2437 0.959 . S
C2431 H2438 0.961 . S
C2431 H2439 0.960 . S
C2432 C2430 1.381 . S
C2432 C2433 1.394 . S
C2432 H2440 0.930 . S
C2433 C2432 1.394 . S
C2433 C2434 1.383 . S
C2433 H2441 0.929 . S
C2434 C2433 1.383 . S
C2434 C2435 1.377 . S
C2435 H2419 0.930 . S
C2435 C2434 1.377 . S
C2435 C2436 1.379 . S
C2436 H2420 0.931 . S
C2436 C2430 1.383 . S
C2436 C2435 1.379 . S
H2437 C2431 0.959 . S
H2438 C2431 0.961 . S
H2439 C2431 0.960 . S
H2440 C2432 0.930 . S
H2441 C2433 0.929 . S
H2442 C2450 0.929 . S
H2443 C2452 0.930 . S
H2444 C2454 0.930 . S
H2445 C2457 0.929 . S
H2446 C2460 0.930 . S
H2447 C2462 0.960 . S
H2448 C2462 0.960 . S
H2449 C2462 0.960 . S
C2450 H2442 0.929 . S
C2450 C2451 1.377 . S
C2450 C2452 1.384 . S
C2451 C2450 1.377 . S
C2451 C2457 1.390 . S
C2452 H2443 0.930 . S
C2452 C2450 1.384 . S
C2452 C2453 1.372 . S
C2453 C2452 1.372 . S
C2453 C2454 1.400 . S
C2453 C2458 1.490 . S
C2454 H2444 0.930 . S
C2454 C2453 1.400 . S
C2454 C2457 1.386 . S
H2455 C2471 0.930 . S
H2456 C2472 0.931 . S
C2457 H2445 0.929 . S
C2457 C2451 1.390 . S
C2457 C2454 1.386 . S
C2458 C2453 1.490 . S
C2458 C2460 1.395 . S
C2458 C2461 1.403 . S
H2459 C2465 0.930 . S
C2460 H2446 0.930 . S
C2460 C2458 1.395 . S
C2460 C2463 1.403 . S
C2461 C2458 1.403 . S
C2461 C2462 1.524 . S
C2461 C2465 1.400 . S
C2462 H2447 0.960 . S
C2462 H2448 0.960 . S
C2462 H2449 0.960 . S
C2462 C2461 1.524 . S
C2463 C2460 1.403 . S
C2463 C2464 1.392 . S
C2463 C2467 1.495 . S
C2464 C2463 1.392 . S
C2464 C2465 1.385 . S
C2464 C2466 1.478 . S
C2465 H2459 0.930 . S
C2465 C2461 1.400 . S
C2465 C2464 1.385 . S
C2466 C2464 1.478 . S
C2466 C2468 1.381 . S
C2466 C2472 1.383 . S
C2467 C2463 1.495 . S
C2467 H2473 0.959 . S
C2467 H2474 0.961 . S
C2467 H2475 0.960 . S
C2468 C2466 1.381 . S
C2468 C2469 1.394 . S
C2468 H2476 0.930 . S
C2469 C2468 1.394 . S
C2469 C2470 1.383 . S
C2469 H2477 0.929 . S
C2470 C2469 1.383 . S
C2470 C2471 1.377 . S
C2471 H2455 0.930 . S
C2471 C2470 1.377 . S
C2471 C2472 1.379 . S
C2472 H2456 0.931 . S
C2472 C2466 1.383 . S
C2472 C2471 1.379 . S
H2473 C2467 0.959 . S
H2474 C2467 0.961 . S
H2475 C2467 0.960 . S
H2476 C2468 0.930 . S
H2477 C2469 0.929 . S
H2478 C2486 0.929 . S
H2479 C2488 0.930 . S
H2480 C2490 0.930 . S
H2481 C2493 0.929 . S
H2482 C2496 0.930 . S
H2483 C2498 0.960 . S
H2484 C2498 0.960 . S
H2485 C2498 0.960 . S
C2486 H2478 0.929 . S
C2486 C2487 1.377 . S
C2486 C2488 1.384 . S
C2487 C2486 1.377 . S
C2487 C2493 1.390 . S
C2488 H2479 0.930 . S
C2488 C2486 1.384 . S
C2488 C2489 1.372 . S
C2489 C2488 1.372 . S
C2489 C2490 1.400 . S
C2489 C2494 1.490 . S
C2490 H2480 0.930 . S
C2490 C2489 1.400 . S
C2490 C2493 1.386 . S
H2491 C2507 0.930 . S
H2492 C2508 0.931 . S
C2493 H2481 0.929 . S
C2493 C2487 1.390 . S
C2493 C2490 1.386 . S
C2494 C2489 1.490 . S
C2494 C2496 1.395 . S
C2494 C2497 1.403 . S
H2495 C2501 0.930 . S
C2496 H2482 0.930 . S
C2496 C2494 1.395 . S
C2496 C2499 1.403 . S
C2497 C2494 1.403 . S
C2497 C2498 1.524 . S
C2497 C2501 1.400 . S
C2498 H2483 0.960 . S
C2498 H2484 0.960 . S
C2498 H2485 0.960 . S
C2498 C2497 1.524 . S
C2499 C2496 1.403 . S
C2499 C2500 1.392 . S
C2499 C2503 1.495 . S
C2500 C2499 1.392 . S
C2500 C2501 1.385 . S
C2500 C2502 1.478 . S
C2501 H2495 0.930 . S
C2501 C2497 1.400 . S
C2501 C2500 1.385 . S
C2502 C2500 1.478 . S
C2502 C2504 1.381 . S
C2502 C2508 1.383 . S
C2503 C2499 1.495 . S
C2503 H2509 0.959 . S
C2503 H2510 0.961 . S
C2503 H2511 0.960 . S
C2504 C2502 1.381 . S
C2504 C2505 1.394 . S
C2504 H2512 0.930 . S
C2505 C2504 1.394 . S
C2505 C2506 1.383 . S
C2505 H2513 0.929 . S
C2506 C2505 1.383 . S
C2506 C2507 1.377 . S
C2507 H2491 0.930 . S
C2507 C2506 1.377 . S
C2507 C2508 1.379 . S
C2508 H2492 0.931 . S
C2508 C2502 1.383 . S
C2508 C2507 1.379 . S
H2509 C2503 0.959 . S
H2510 C2503 0.961 . S
H2511 C2503 0.960 . S
H2512 C2504 0.930 . S
H2513 C2505 0.929 . S
H2514 C2522 0.929 . S
H2515 C2524 0.930 . S
H2516 C2526 0.930 . S
H2517 C2529 0.929 . S
H2518 C2532 0.930 . S
H2519 C2534 0.960 . S
H2520 C2534 0.960 . S
H2521 C2534 0.960 . S
C2522 H2514 0.929 . S
C2522 C2523 1.377 . S
C2522 C2524 1.384 . S
C2523 C2522 1.377 . S
C2523 C2529 1.390 . S
C2524 H2515 0.930 . S
C2524 C2522 1.384 . S
C2524 C2525 1.372 . S
C2525 C2524 1.372 . S
C2525 C2526 1.400 . S
C2525 C2530 1.490 . S
C2526 H2516 0.930 . S
C2526 C2525 1.400 . S
C2526 C2529 1.386 . S
H2527 C2543 0.930 . S
H2528 C2544 0.931 . S
C2529 H2517 0.929 . S
C2529 C2523 1.390 . S
C2529 C2526 1.386 . S
C2530 C2525 1.490 . S
C2530 C2532 1.395 . S
C2530 C2533 1.403 . S
H2531 C2537 0.930 . S
C2532 H2518 0.930 . S
C2532 C2530 1.395 . S
C2532 C2535 1.403 . S
C2533 C2530 1.403 . S
C2533 C2534 1.524 . S
C2533 C2537 1.400 . S
C2534 H2519 0.960 . S
C2534 H2520 0.960 . S
C2534 H2521 0.960 . S
C2534 C2533 1.524 . S
C2535 C2532 1.403 . S
C2535 C2536 1.392 . S
C2535 C2539 1.495 . S
C2536 C2535 1.392 . S
C2536 C2537 1.385 . S
C2536 C2538 1.478 . S
C2537 H2531 0.930 . S
C2537 C2533 1.400 . S
C2537 C2536 1.385 . S
C2538 C2536 1.478 . S
C2538 C2540 1.381 . S
C2538 C2544 1.383 . S
C2539 C2535 1.495 . S
C2539 H2545 0.959 . S
C2539 H2546 0.961 . S
C2539 H2547 0.960 . S
C2540 C2538 1.381 . S
C2540 C2541 1.394 . S
C2540 H2548 0.930 . S
C2541 C2540 1.394 . S
C2541 C2542 1.383 . S
C2541 H2549 0.929 . S
C2542 C2541 1.383 . S
C2542 C2543 1.377 . S
C2543 H2527 0.930 . S
C2543 C2542 1.377 . S
C2543 C2544 1.379 . S
C2544 H2528 0.931 . S
C2544 C2538 1.383 . S
C2544 C2543 1.379 . S
H2545 C2539 0.959 . S
H2546 C2539 0.961 . S
H2547 C2539 0.960 . S
H2548 C2540 0.930 . S
H2549 C2541 0.929 . S
H2550 C2558 0.929 . S
H2551 C2560 0.930 . S
H2552 C2562 0.930 . S
H2553 C2565 0.929 . S
H2554 C2568 0.930 . S
H2555 C2570 0.960 . S
H2556 C2570 0.960 . S
H2557 C2570 0.960 . S
C2558 H2550 0.929 . S
C2558 C2559 1.377 . S
C2558 C2560 1.384 . S
C2559 C2558 1.377 . S
C2559 C2565 1.390 . S
C2560 H2551 0.930 . S
C2560 C2558 1.384 . S
C2560 C2561 1.372 . S
C2561 C2560 1.372 . S
C2561 C2562 1.400 . S
C2561 C2566 1.490 . S
C2562 H2552 0.930 . S
C2562 C2561 1.400 . S
C2562 C2565 1.386 . S
H2563 C2579 0.930 . S
H2564 C2580 0.931 . S
C2565 H2553 0.929 . S
C2565 C2559 1.390 . S
C2565 C2562 1.386 . S
C2566 C2561 1.490 . S
C2566 C2568 1.395 . S
C2566 C2569 1.403 . S
H2567 C2573 0.930 . S
C2568 H2554 0.930 . S
C2568 C2566 1.395 . S
C2568 C2571 1.403 . S
C2569 C2566 1.403 . S
C2569 C2570 1.524 . S
C2569 C2573 1.400 . S
C2570 H2555 0.960 . S
C2570 H2556 0.960 . S
C2570 H2557 0.960 . S
C2570 C2569 1.524 . S
C2571 C2568 1.403 . S
C2571 C2572 1.392 . S
C2571 C2575 1.495 . S
C2572 C2571 1.392 . S
C2572 C2573 1.385 . S
C2572 C2574 1.478 . S
C2573 H2567 0.930 . S
C2573 C2569 1.400 . S
C2573 C2572 1.385 . S
C2574 C2572 1.478 . S
C2574 C2576 1.381 . S
C2574 C2580 1.383 . S
C2575 C2571 1.495 . S
C2575 H2581 0.959 . S
C2575 H2582 0.961 . S
C2575 H2583 0.960 . S
C2576 C2574 1.381 . S
C2576 C2577 1.394 . S
C2576 H2584 0.930 . S
C2577 C2576 1.394 . S
C2577 C2578 1.383 . S
C2577 H2585 0.929 . S
C2578 C2577 1.383 . S
C2578 C2579 1.377 . S
C2579 H2563 0.930 . S
C2579 C2578 1.377 . S
C2579 C2580 1.379 . S
C2580 H2564 0.931 . S
C2580 C2574 1.383 . S
C2580 C2579 1.379 . S
H2581 C2575 0.959 . S
H2582 C2575 0.961 . S
H2583 C2575 0.960 . S
H2584 C2576 0.930 . S
H2585 C2577 0.929 . S
C886 C683 1.577 . S
C867 C56 1.573 . S
C922 C673 1.501 . S
C903 C154 1.412 . S
C958 C674 1.058 . S
C939 C236 1.071 . S
C975 C310 0.710 . S
C994 C696 0.410 . S
C1011 C394 1.403 . S
C1030 C699 1.480 . S
C1066 C682 1.094 . S
C1047 C476 1.069 . S
C1083 C574 0.745 . S
C1102 C672 0.438 . S
C1119 C656 1.572 . S
C1138 C690 1.574 . S
C1174 C703 2.484 . S
C1155 C67 2.571 . S
C1191 C139 1.537 . S
C1210 C752 1.483 . S
C1246 C730 1.525 . S
C1227 C238 1.452 . S
C1282 C744 1.083 . S
C1263 C308 1.065 . S
C1299 C392 1.057 . S
C1318 C705 1.051 . S
C1354 C758 2.484 . S
C1335 C487 2.575 . S
C1371 C559 1.539 . S
C1390 C714 1.469 . S
C1407 C658 1.422 . S
C1426 C735 1.514 . S
C1443 C58 1.423 . S
C1462 C761 1.478 . S
C1479 C403 1.538 . S
C1498 C745 1.475 . S
C1534 C704 1.507 . S
C1515 C478 1.450 . S
C1570 C736 1.047 . S
C1551 C572 1.058 . S
C1587 C643 2.573 . S
C1606 C727 2.501 . S
C1623 C223 2.575 . S
C1642 C734 2.485 . S
C1678 C721 1.470 . S
C1659 C319 1.540 . S
C1695 C152 1.058 . S
C1714 C713 1.061 . S
C1731 C644 1.573 . S
C1750 C776 1.548 . S
C1767 C406 1.413 . S
C1786 C766 1.500 . S
C1822 C767 1.046 . S
C1803 C488 1.069 . S
C1858 C789 0.443 . S
C1839 C562 0.715 . S
C1875 C142 1.404 . S
C1894 C792 1.481 . S
C1930 C775 1.042 . S
C1911 C224 1.076 . S
C1947 C322 0.740 . S
C1966 C765 0.528 . S
C1983 C68 1.575 . S
C2002 C783 1.592 . S
C2019 C655 2.573 . S
C2038 C796 2.478 . S
C2074 C845 1.483 . S
C2055 C391 1.538 . S
C2091 C490 1.453 . S
C2110 C823 1.529 . S
C2127 C560 1.054 . S
C2146 C837 1.025 . S
C2182 C798 1.058 . S
C2163 C140 1.066 . S
C2199 C235 2.575 . S
C2218 C851 2.479 . S
C2254 C807 1.517 . S
C2235 C307 1.538 . S
C2290 C828 1.497 . S
C2271 C70 1.415 . S
C2326 C854 1.490 . S
C2307 C646 1.411 . S
C2343 C151 1.537 . S
C2362 C838 1.510 . S
C2379 C226 1.442 . S
C2398 C797 1.514 . S
C2434 C829 1.074 . S
C2415 C320 1.059 . S
C2451 C55 2.573 . S
C2470 C820 2.500 . S
C2487 C475 2.575 . S
C2506 C827 2.467 . S
C2542 C814 1.511 . S
C2523 C571 1.538 . S
C2578 C806 1.052 . S
C2559 C404 1.057 . S
