# Generated by pormake.
# Topology pth, (4,4)-cn, num edge types: 1
# Building blocks:
#     Node 0, Type 0, BuildingBlock: KUFVIS_clean_sbu_0, # of connection points: 4
#     Node 1, Type 0, BuildingBlock: KUFVIS_clean_sbu_0, # of connection points: 4
#     Node 2, Type 0, BuildingBlock: KUFVIS_clean_sbu_0, # of connection points: 4
#     Node 3, Type 1, BuildingBlock: MUDLON_clean_sbu_0, # of connection points: 4
#     Node 4, Type 1, BuildingBlock: MUDLON_clean_sbu_0, # of connection points: 4
#     Node 5, Type 1, BuildingBlock: MUDLON_clean_sbu_0, # of connection points: 4
#     Edge 6, Type (0, 1), BuildingBlock: FUNLAD_clean_linker_0, # of connection points: 2
#     Edge 7, Type (0, 1), BuildingBlock: FUNLAD_clean_linker_0, # of connection points: 2
#     Edge 8, Type (0, 1), BuildingBlock: FUNLAD_clean_linker_0, # of connection points: 2
#     Edge 9, Type (0, 1), BuildingBlock: FUNLAD_clean_linker_0, # of connection points: 2
#     Edge 10, Type (0, 1), BuildingBlock: FUNLAD_clean_linker_0, # of connection points: 2
#     Edge 11, Type (0, 1), BuildingBlock: FUNLAD_clean_linker_0, # of connection points: 2
#     Edge 12, Type (0, 1), BuildingBlock: FUNLAD_clean_linker_0, # of connection points: 2
#     Edge 13, Type (0, 1), BuildingBlock: FUNLAD_clean_linker_0, # of connection points: 2
#     Edge 14, Type (0, 1), BuildingBlock: FUNLAD_clean_linker_0, # of connection points: 2
#     Edge 15, Type (0, 1), BuildingBlock: FUNLAD_clean_linker_0, # of connection points: 2
#     Edge 16, Type (0, 1), BuildingBlock: FUNLAD_clean_linker_0, # of connection points: 2
#     Edge 17, Type (0, 1), BuildingBlock: FUNLAD_clean_linker_0, # of connection points: 2
# Relax obj value: 0.022
# Max RMSD: 0.097
# Mean RMSD: 0.069
data_MOF--net-pth--node1-KUFVIS_clean_sbu_0--node2-MUDLON_clean_sbu_0--edge1-FUNLAD_clean_linker_0
_symmetry_space_group_name_H-M    P1
_symmetry_Int_Tables_number       1
_symmetry_cell_setting            triclinic
loop_
_symmetry_equiv_pos_as_xyz
'x, y, z'
_cell_length_a     25.890142
_cell_length_b     25.934045
_cell_length_c     70.106697
_cell_angle_alpha  90.269143
_cell_angle_beta   91.955685
_cell_angle_gamma 119.95772
loop_
_atom_site_label
_atom_site_type_symbol
_atom_site_fract_x
_atom_site_fract_y
_atom_site_fract_z
_atom_type_partial_charge
Mn0 Mn 0.07105 0.12646 0.09779 0.0
Mn1 Mn 0.01855 0.19792 0.07022 0.0
C2 C 1.00834 0.07765 0.07133 0.0
C3 C 0.06091 0.06822 0.12442 0.0
C4 C 0.14614 0.22177 0.06951 0.0
O5 O 0.0873 0.19868 0.1145 0.0
O6 O 0.0406 0.23555 0.09619 0.0
C7 C 0.90751 0.16602 0.08988 0.0
N8 N 0.93534 0.16644 0.0737 0.0
C9 C 0.84204 0.11786 0.05547 0.0
C10 C 0.81239 0.11724 0.07191 0.0
C11 C 0.84527 0.14132 0.0892 0.0
C12 C 0.90415 0.14334 0.057 0.0
H13 H 0.93264 0.18431 0.10321 0.0
C14 C 0.06866 0.23547 0.11162 0.0
O15 O 0.11234 0.10077 0.11695 0.0
O16 O 0.01605 0.07084 0.11675 0.0
N17 N 0.99524 0.16569 0.04474 0.0
C18 C 0.0302 0.16674 0.03048 0.0
C19 C 1.00395 0.14276 0.01237 0.0
C20 C 0.94219 0.11832 1.00908 0.0
C21 C 0.90723 0.11828 0.02392 0.0
C22 C 0.93593 0.14325 0.04163 0.0
H23 H 0.07769 0.18545 0.03292 0.0
O24 O 0.04219 0.05871 0.07876 0.0
O25 O 1.01173 0.12405 0.07976 0.0
O26 O 0.1401 0.18064 0.08076 0.0
O27 O 0.1043 0.2329 0.06534 0.0
C28 C 0.84486 0.09338 0.02196 0.0
C29 C 0.81228 0.09309 0.03773 0.0
H30 H 0.76436 0.09792 0.07148 0.0
H31 H 0.82267 0.14072 0.10197 0.0
H32 H 0.03123 0.14291 1.00099 0.0
H33 H 0.92203 0.09933 0.99514 0.0
H34 H 0.8214 0.07352 1.00846 0.0
H35 H 0.76426 0.07302 0.03611 0.0
Mn36 Mn 0.05095 0.11468 0.43452 0.0
Mn37 Mn 0.10557 0.24996 0.45593 0.0
C38 C 0.11395 0.13924 0.46141 0.0
C39 C 0.05701 0.05358 0.41106 0.0
C40 C 0.97891 0.14845 0.46051 0.0
O41 O 0.03458 0.16209 0.41451 0.0
O42 O 0.07883 0.25245 0.42908 0.0
C43 C 0.2125 0.31676 0.43313 0.0
N44 N 0.18777 0.29861 0.45039 0.0
C45 C 0.28405 0.35118 0.4668 0.0
C46 C 0.31054 0.37079 0.4492 0.0
C47 C 0.2746 0.35339 0.43229 0.0
C48 C 0.22193 0.31489 0.46674 0.0
H49 H 0.18505 0.30327 0.4201 0.0
C50 C 0.05098 0.21741 0.41473 0.0
O51 O 1.00671 0.04037 0.41848 0.0
O52 O 0.10359 0.10286 0.41701 0.0
N53 N 0.13346 0.25494 0.48188 0.0
C54 C 0.10114 0.23059 0.49762 0.0
C55 C 0.13054 0.24279 0.51568 0.0
C56 C 0.1927 0.28032 0.5174 0.0
C57 C 0.22487 0.30568 0.50104 0.0
C58 C 0.19309 0.29228 0.48344 0.0
H59 H 0.05335 0.20178 0.4964 0.0
O60 O 0.07936 0.08402 0.45611 0.0
O61 O 0.1117 0.17877 0.45055 0.0
O62 O 0.98359 0.10955 0.45063 0.0
O63 O 0.02119 0.20234 0.46284 0.0
C64 C 0.28734 0.34286 0.50147 0.0
C65 C 0.31692 0.36547 0.48436 0.0
H66 H 0.35844 0.39886 0.44848 0.0
H67 H 0.29475 0.3681 0.41865 0.0
H68 H 0.10538 0.22313 0.52823 0.0
H69 H 0.21529 0.28912 0.53133 0.0
H70 H 0.31314 0.35374 0.51486 0.0
H71 H 0.36503 0.39342 0.48484 0.0
Mn72 Mn 0.07235 0.10112 0.76375 0.0
Mn73 Mn 0.03343 0.18585 0.78976 0.0
C74 C 0.13619 0.16278 0.7882 0.0
C75 C 0.11419 0.08583 0.73671 0.0
C76 C 0.98317 0.05342 0.79569 0.0
O77 O 1.00425 0.09916 0.74758 0.0
O78 O 0.98823 0.16302 0.76474 0.0
C79 C 0.0823 0.29156 0.76537 0.0
N80 N 0.0794 0.26722 0.78275 0.0
C81 C 0.14736 0.3632 0.79714 0.0
C82 C 0.15076 0.38936 0.77942 0.0
C83 C 0.11823 0.35334 0.76346 0.0
C84 C 0.11085 0.30139 0.79817 0.0
H85 H 0.05744 0.26404 0.75306 0.0
C86 C 0.97853 0.12969 0.74995 0.0
O87 O 0.07523 0.04166 0.74633 0.0
O88 O 0.1282 0.13896 0.74262 0.0
N89 N 0.07356 0.21236 0.81431 0.0
C90 C 0.06672 0.18005 0.83026 0.0
C91 C 0.09686 0.20938 0.84744 0.0
C92 C 0.13306 0.27163 0.84812 0.0
C93 C 0.13852 0.30405 0.83163 0.0
C94 C 0.1071 0.27243 0.81495 0.0
H95 H 0.03873 0.13223 0.82989 0.0
O96 O 0.14109 0.11859 0.78167 0.0
O97 O 0.09513 0.17086 0.77989 0.0
O98 O 0.01385 0.0458 0.78327 0.0
O99 O 0.98515 0.10315 0.7985 0.0
C100 C 0.17473 0.36641 0.83101 0.0
C101 C 0.17935 0.39593 0.81376 0.0
H102 H 0.17849 0.43698 0.77788 0.0
H103 H 0.12084 0.37317 0.74972 0.0
H104 H 0.09228 0.18404 0.86012 0.0
H105 H 0.1567 0.29403 0.86135 0.0
H106 H 0.19985 0.392 0.84366 0.0
H107 H 0.20794 0.44379 0.8134 0.0
Mg108 Mg 0.07745 0.63465 0.26511 0.0
C109 C 0.0217 0.50843 0.27968 0.0
O110 O 0.0484 0.50252 0.26493 0.0
C111 C 0.02993 0.70927 0.24651 0.0
O112 O 0.03928 0.73122 0.26402 0.0
C113 C 0.13856 0.61532 0.23188 0.0
O114 O 0.12034 0.64906 0.22358 0.0
O115 O 0.13315 0.60799 0.24979 0.0
O116 O 0.02013 0.55645 0.2818 0.0
O117 O 0.12157 0.71001 0.28564 0.0
C118 C 0.102 0.70196 0.30244 0.0
O119 O 0.06317 0.64773 0.30734 0.0
O120 O 0.0359 0.66418 0.24328 0.0
Mg121 Mg 0.53088 0.089 0.59389 0.0
C122 C 0.47872 0.16782 0.58299 0.0
O123 O 0.45148 0.1479 0.59902 0.0
C124 C 0.5996 0.07241 0.62515 0.0
O125 O 0.5502 0.02075 0.62294 0.0
C126 C 0.45122 0.05664 0.62666 0.0
O127 O 0.50248 0.09921 0.6339 0.0
O128 O 0.4481 0.03938 0.60937 0.0
O129 O 0.51996 0.157 0.57884 0.0
O130 O 0.54956 0.04653 0.56993 0.0
C131 C 0.58043 0.02077 0.57144 0.0
O132 O 0.59396 0.00919 0.58848 0.0
O133 O 0.60565 0.1152 0.61477 0.0
Mg134 Mg 0.59106 0.6158 0.93426 0.0
C135 C 0.50579 0.52356 0.90764 0.0
O136 O 0.53847 0.50285 0.91544 0.0
C137 C 0.60265 0.69467 0.96828 0.0
O138 O 0.5733 0.64273 0.97632 0.0
C139 C 0.51423 0.51504 0.95844 0.0
O140 O 0.47668 0.52634 0.94887 0.0
O141 O 0.56986 0.54635 0.95554 0.0
O142 O 0.51653 0.57523 0.91293 0.0
O143 O 0.67289 0.65055 0.9181 0.0
C144 C 0.67169 0.63936 0.90031 0.0
O145 O 0.62178 0.59799 0.89199 0.0
O146 O 0.60952 0.69621 0.95035 0.0
C147 C 0.1197 0.29316 0.14237 0.0
C148 C 0.08026 0.28164 0.1265 0.0
C149 C 0.13224 0.33931 0.1556 0.0
C150 C 0.10519 0.37464 0.15326 0.0
C151 C 0.06523 0.36221 0.13758 0.0
C152 C 0.05287 0.31655 0.12445 0.0
C153 C 0.11759 0.42584 0.16621 0.0
C154 C 0.14684 0.43881 0.18344 0.0
C155 C 0.15354 0.4889 0.19589 0.0
C156 C 0.15459 0.48408 0.21583 0.0
C157 C 0.15359 0.52716 0.22775 0.0
C158 C 0.15187 0.57621 0.21992 0.0
H159 H 0.15871 0.54724 0.17296 0.0
C160 C 0.15552 0.58329 0.20006 0.0
C161 C 0.15665 0.5404 0.18819 0.0
H162 H 0.15527 0.62097 0.19355 0.0
H163 H 0.14181 0.26736 0.14437 0.0
H164 H 0.16385 0.34761 0.16733 0.0
H165 H 0.0435 0.38831 0.13533 0.0
H166 H 0.02194 0.30907 0.11254 0.0
H167 H 0.09877 0.45304 0.16148 0.0
H168 H 0.16202 0.40978 0.18928 0.0
H169 H 0.15329 0.44547 0.22219 0.0
H170 H 0.1512 0.52042 0.243 0.0
C171 C 0.87931 0.07019 0.47227 0.0
C172 C 0.92245 0.13053 0.47029 0.0
C173 C 0.82784 0.05399 0.48246 0.0
C174 C 0.8183 0.0979 0.49082 0.0
C175 C 0.86051 0.15802 0.4883 0.0
C176 C 0.91203 0.17416 0.47833 0.0
C177 C 0.76544 0.08349 0.50229 0.0
C178 C 0.7352 0.03281 0.51201 0.0
C179 C 0.68889 0.02383 0.52578 0.0
C180 C 0.68216 0.98954 0.54193 0.0
C181 C 0.64433 0.98583 0.55631 0.0
C182 C 0.61153 0.0156 0.55473 0.0
H183 H 0.65559 0.07557 0.51103 0.0
C184 C 0.61488 0.04631 0.5379 0.0
C185 C 0.65321 0.0505 0.5236 0.0
H186 H 0.58999 0.06947 0.53614 0.0
H187 H 0.88569 0.03537 0.46622 0.0
H188 H 0.79566 1.00718 0.48365 0.0
H189 H 0.85424 0.19286 0.49443 0.0
H190 H 0.94388 0.22108 0.47701 0.0
H191 H 0.75487 0.11872 0.50424 0.0
H192 H 0.74914 0.9997 0.51156 0.0
H193 H 0.7084 0.96782 0.54388 0.0
H194 H 0.64253 0.96141 0.569 0.0
C195 C 0.94734 0.94975 0.80763 0.0
C196 C 0.94652 1.00359 0.80849 0.0
C197 C 0.91673 0.90499 0.82078 0.0
C198 C 0.88419 0.91288 0.8351 0.0
C199 C 0.88293 0.96638 0.83578 0.0
C200 C 0.91342 0.01099 0.82267 0.0
C201 C 0.8523 0.86778 0.8499 0.0
C202 C 0.83676 0.80984 0.84841 0.0
C203 C 0.80012 0.76519 0.86271 0.0
C204 C 0.7611 0.70621 0.85651 0.0
C205 C 0.72163 0.66439 0.86905 0.0
C206 C 0.72098 0.68029 0.88821 0.0
H207 H 0.83305 0.82476 0.88762 0.0
C208 C 0.763 0.73819 0.89479 0.0
C209 C 0.80209 0.78028 0.88216 0.0
H210 H 0.76385 0.75189 0.90947 0.0
H211 H 0.97279 0.94259 0.79705 0.0
H212 H 0.92016 0.86519 0.8199 0.0
H213 H 0.85845 0.97398 0.84663 0.0
H214 H 0.91179 0.0518 0.82392 0.0
H215 H 0.83793 0.88259 0.86212 0.0
H216 H 0.84613 0.7931 0.83555 0.0
H217 H 0.75921 0.69304 0.84169 0.0
H218 H 0.69012 0.62008 0.86354 0.0
C219 C 0.09601 0.01176 0.14508 0.0
C220 C 0.05266 0.02762 0.14033 0.0
C221 C 0.08613 0.97044 0.15935 0.0
C222 C 0.03285 0.94457 0.16929 0.0
C223 C 0.99042 0.96181 0.16488 0.0
C224 C 0.99985 1.00229 0.15044 0.0
C225 C 0.02111 0.90138 0.18479 0.0
C226 C 0.04179 0.86282 0.18497 0.0
C227 C 0.03151 0.82031 0.20063 0.0
C228 C 0.03591 0.76939 0.19686 0.0
C229 C 0.03189 0.73124 0.21154 0.0
C230 C 0.02426 0.74363 0.23045 0.0
H231 H 0.01924 0.87079 0.2231 0.0
C232 C 0.01802 0.79358 0.23415 0.0
C233 C 0.0216 0.83148 0.21945 0.0
H234 H 1.01246 0.80472 0.24855 0.0
H235 H 0.13719 0.03054 0.13757 0.0
H236 H 0.12059 0.95949 0.16272 0.0
H237 H 0.94933 0.94317 0.17245 0.0
H238 H 0.96564 0.01374 0.14719 0.0
H239 H 0.99197 0.89953 0.19587 0.0
H240 H 0.06607 0.86103 0.17288 0.0
H241 H 0.04372 0.75969 0.18254 0.0
H242 H 0.03727 0.69343 0.20817 0.0
C243 C 0.21944 0.18982 0.47451 0.0
C244 C 0.1582 0.1538 0.47731 0.0
C245 C 0.26152 0.20012 0.48933 0.0
C246 C 0.24295 0.17347 0.50717 0.0
C247 C 0.18146 0.13686 0.50972 0.0
C248 C 0.13966 0.12648 0.4949 0.0
C249 C 0.28519 0.18147 0.5235 0.0
C250 C 0.3446 0.20403 0.5222 0.0
C251 C 0.38355 0.20383 0.5384 0.0
C252 C 0.43514 0.20143 0.53439 0.0
C253 C 0.46874 0.19375 0.54903 0.0
C254 C 0.45161 0.18863 0.56807 0.0
H255 H 0.33155 0.20801 0.56146 0.0
C256 C 0.40275 0.19576 0.57225 0.0
C257 C 0.36926 0.20353 0.55762 0.0
H258 H 0.38877 0.19296 0.58677 0.0
H259 H 0.23476 0.20978 0.46081 0.0
H260 H 0.30812 0.22922 0.48667 0.0
H261 H 0.16555 0.11547 0.5232 0.0
H262 H 0.09266 0.09739 0.49722 0.0
H263 H 0.26513 0.16375 0.53701 0.0
H264 H 0.3648 0.2179 0.5085 0.0
H265 H 0.44793 0.20258 0.51977 0.0
H266 H 0.50628 0.18877 0.54527 0.0
C267 C 0.21395 0.26482 0.79952 0.0
C268 C 0.17951 0.20371 0.80286 0.0
C269 C 0.2556 0.30344 0.81347 0.0
C270 C 0.26365 0.28122 0.83095 0.0
C271 C 0.23103 0.21953 0.83374 0.0
C272 C 0.1897 0.1811 0.81978 0.0
C273 C 0.30729 0.31993 0.84627 0.0
C274 C 0.32904 0.37915 0.84826 0.0
C275 C 0.37428 0.41615 0.86356 0.0
C276 C 0.37887 0.4699 0.86992 0.0
C277 C 0.42136 0.50529 0.88428 0.0
C278 C 0.46023 0.48759 0.89246 0.0
H279 H 0.41421 0.35991 0.86653 0.0
C280 C 0.45614 0.43439 0.88582 0.0
C281 C 0.41422 0.39945 0.87151 0.0
H282 H 0.4859 0.4197 0.89154 0.0
H283 H 0.20848 0.28269 0.78615 0.0
H284 H 0.28147 0.35028 0.81043 0.0
H285 H 0.23711 0.20096 0.84687 0.0
H286 H 0.16471 0.1338 0.82238 0.0
H287 H 0.3202 0.29761 0.85686 0.0
H288 H 0.3121 0.40105 0.8389 0.0
H289 H 0.34921 0.48429 0.86388 0.0
H290 H 0.42364 0.54623 0.889 0.0
C291 C 0.92128 0.09115 0.71838 0.0
C292 C 0.93698 0.12895 0.7346 0.0
C293 C 0.88321 0.09198 0.70383 0.0
C294 C 0.85987 0.13065 0.70519 0.0
C295 C 0.87634 0.16894 0.72123 0.0
C296 C 0.91403 0.16792 0.73578 0.0
C297 C 0.81879 0.13282 0.69019 0.0
C298 C 0.78211 0.08582 0.67874 0.0
C299 C 0.73662 0.08519 0.66499 0.0
C300 C 0.68617 0.03019 0.66006 0.0
C301 C 0.64195 0.02669 0.64731 0.0
C302 C 0.64726 0.07812 0.63886 0.0
H303 H 0.78142 0.18005 0.65961 0.0
C304 C 0.69817 0.13337 0.64351 0.0
C305 C 0.74244 0.13696 0.65651 0.0
H306 H 0.70377 0.17372 0.63714 0.0
H307 H 0.9386 0.06107 0.71685 0.0
H308 H 0.87306 0.06296 0.69144 0.0
H309 H 0.8595 0.19949 0.72262 0.0
H310 H 0.9255 0.19822 0.74792 0.0
H311 H 0.81541 0.17288 0.68967 0.0
H312 H 0.78174 0.04406 0.68052 0.0
H313 H 0.68058 0.98957 0.66624 0.0
H314 H 0.60364 0.98325 0.64398 0.0
C315 C 0.90105 0.02007 0.06059 0.0
C316 C 0.96105 0.04046 0.05694 0.0
C317 C 0.85563 0.98276 0.04736 0.0
C318 C 0.86935 0.96393 0.03032 0.0
C319 C 0.92965 0.9839 0.02692 0.0
C320 C 0.97496 0.0211 0.0402 0.0
C321 C 0.82276 0.92342 0.01579 0.0
C322 C 0.76425 0.88917 0.01926 0.0
C323 C 0.71966 0.8435 1.00539 0.0
C324 C 0.66944 0.7939 0.01248 0.0
C325 C 0.62951 0.74703 1.00025 0.0
C326 C 0.63833 0.74894 0.98054 0.0
H327 H 0.76338 0.88566 0.97937 0.0
C328 C 0.68624 0.80044 0.97322 0.0
C329 C 0.72654 0.84723 0.9855 0.0
H330 H 0.69422 0.80358 0.95809 0.0
H331 H 0.88926 0.03314 0.07371 0.0
H332 H 0.81024 0.96974 0.05055 0.0
H333 H 0.94182 0.97021 0.014 0.0
H334 H 0.02095 0.03535 0.03729 0.0
H335 H 0.83839 0.91866 1.00208 0.0
H336 H 0.74887 0.89007 0.03338 0.0
H337 H 0.66238 0.79012 0.02768 0.0
H338 H 0.5929 0.70827 1.00638 0.0
C339 C 0.11683 0.02678 0.3898 0.0
C340 C 0.06152 0.01293 0.39711 0.0
C341 C 0.12159 0.9865 0.37759 0.0
C342 C 0.07094 0.93144 0.37238 0.0
C343 C 0.01565 0.91824 0.37949 0.0
C344 C 1.0109 0.95847 0.39163 0.0
C345 C 0.07393 0.88494 0.36064 0.0
C346 C 0.11885 0.89499 0.34921 0.0
C347 C 0.11913 0.84614 0.33798 0.0
C348 C 0.14592 0.85797 0.32021 0.0
C349 C 0.14298 0.81173 0.30887 0.0
C350 C 0.11374 0.75284 0.31523 0.0
H351 H 0.07392 0.77729 0.35868 0.0
C352 C 0.09012 0.74183 0.3335 0.0
C353 C 0.09286 0.7878 0.34474 0.0
H354 H 0.06796 0.69719 0.339 0.0
H355 H 0.15679 0.06828 0.39382 0.0
H356 H 0.16527 0.99807 0.3728 0.0
H357 H 0.97587 0.87616 0.37582 0.0
H358 H 0.96763 0.94631 0.397 0.0
H359 H 0.03588 0.84014 0.36108 0.0
H360 H 0.15458 0.94015 0.34712 0.0
H361 H 0.16732 0.90269 0.31478 0.0
H362 H 0.16172 0.82181 0.29489 0.0
C363 C 0.13764 0.02021 0.71669 0.0
C364 C 0.14296 0.07614 0.7202 0.0
C365 C 0.16776 0.01195 0.7018 0.0
C366 C 0.20351 0.05943 0.69 0.0
C367 C 0.20693 0.11464 0.69308 0.0
C368 C 0.17752 0.12312 0.70812 0.0
C369 C 0.23852 0.0533 0.67461 0.0
C370 C 0.26283 0.01796 0.67603 0.0
C371 C 0.30666 0.02026 0.66241 0.0
C372 C 0.35649 0.01765 0.66962 0.0
C373 C 0.40215 0.02642 0.65766 0.0
C374 C 0.39791 0.0358 0.63811 0.0
H375 H 0.2626 0.02833 0.63665 0.0
C376 C 0.34622 0.03433 0.63056 0.0
C377 C 0.30112 0.02723 0.64266 0.0
H378 H 0.34229 0.04217 0.61556 0.0
H379 H 0.11108 0.98299 0.72567 0.0
H380 H 0.16288 0.96838 0.69956 0.0
H381 H 0.23378 0.15185 0.68413 0.0
H382 H 0.1822 0.16664 0.71036 0.0
H383 H 0.25003 0.08355 0.66277 0.0
H384 H 0.25666 0.99238 0.68883 0.0
H385 H 0.36164 0.01192 0.68473 0.0
H386 H 0.44176 0.02771 0.66382 0.0
C387 C 0.24062 0.23595 0.0554 0.0
C388 C 0.20421 0.25923 0.06065 0.0
C389 C 0.29286 0.27095 0.04554 0.0
C390 C 0.31011 0.33021 0.04113 0.0
C391 C 0.27501 0.35397 0.04717 0.0
C392 C 0.22235 0.31876 0.05657 0.0
C393 C 0.36323 0.36842 0.02985 0.0
C394 C 0.38015 0.34729 0.01517 0.0
C395 C 0.42254 0.3875 1.00102 0.0
C396 C 0.40961 0.37154 0.98156 0.0
C397 C 0.44246 0.4121 0.96765 0.0
C398 C 0.49031 0.46861 0.97291 0.0
H399 H 0.48423 0.45613 0.02123 0.0
C400 C 0.50651 0.4831 0.99233 0.0
C401 C 0.47255 0.44299 1.00632 0.0
H402 H 0.54274 0.5268 0.9967 0.0
H403 H 0.22775 0.19022 0.05837 0.0
H404 H 0.31955 0.25163 0.04137 0.0
H405 H 0.28735 0.39951 0.04407 0.0
H406 H 0.19557 0.33817 0.06058 0.0
H407 H 0.38366 0.41632 0.03198 0.0
H408 H 0.3556 0.29988 0.01171 0.0
H409 H 0.37156 0.32907 0.97708 0.0
H410 H 0.42883 0.40027 0.95274 0.0
C411 C 0.05387 0.30344 0.39731 0.0
C412 C 0.03766 0.24291 0.39751 0.0
C413 C 0.04233 0.32789 0.38107 0.0
C414 C 0.01394 0.29236 0.36457 0.0
C415 C 0.99789 0.23198 0.36475 0.0
C416 C 1.00928 0.20745 0.38101 0.0
C417 C 1.00412 0.31747 0.34657 0.0
C418 C 1.00126 0.36807 0.34595 0.0
C419 C 0.99809 0.39744 0.32798 0.0
C420 C 0.98538 0.44412 0.32916 0.0
C421 C 0.9893 0.478 0.31319 0.0
C422 C 1.00633 0.46618 0.29561 0.0
H423 H 0.02344 0.34913 0.30842 0.0
C424 C 0.01607 0.4176 0.29416 0.0
C425 C 1.0123 0.38382 0.31011 0.0
H426 H 0.02946 0.40723 0.28087 0.0
H427 H 0.07619 0.33238 0.40966 0.0
H428 H 0.05732 0.375 0.38142 0.0
H429 H 0.97659 0.2036 0.35221 0.0
H430 H 0.99627 0.16074 0.38055 0.0
H431 H 0.99849 0.29251 0.33346 0.0
H432 H 1.00179 0.38986 0.35927 0.0
H433 H 0.97432 0.45583 0.34267 0.0
H434 H 0.98155 0.5151 0.31488 0.0
loop_
_geom_bond_atom_site_label_1
_geom_bond_atom_site_label_2
_geom_bond_distance
_geom_bond_site_symmetry_2
_ccdc_geom_bond_type
Mn0 O5 2.095 . S
Mn0 O15 2.162 . S
Mn0 O16 2.297 . S
Mn0 O24 2.385 . S
Mn0 O25 2.209 . S
Mn0 O26 2.094 . S
Mn1 O6 2.121 . S
Mn1 N8 2.257 1_455 S
Mn1 N17 2.282 1_455 S
Mn1 O25 2.215 . S
Mn1 O27 2.117 . S
C2 O24 1.256 . S
C2 O25 1.275 . S
C3 O15 1.281 . S
C3 O16 1.236 . S
C4 O26 1.240 . S
C4 O27 1.264 . S
O5 Mn0 2.095 . S
O5 C14 1.250 . S
O6 Mn1 2.121 . S
O6 C14 1.258 . S
C7 N8 1.326 . S
C7 C11 1.460 . S
C7 H13 0.929 . S
N8 Mn1 2.257 1_655 S
N8 C7 1.326 . S
N8 C12 1.362 . S
C9 C10 1.258 . S
C9 C12 1.431 . S
C9 C29 1.449 . S
C10 C9 1.258 . S
C10 C11 1.477 . S
C10 H30 0.931 . S
C11 C7 1.460 . S
C11 C10 1.477 . S
C11 H31 0.930 . S
C12 N8 1.362 . S
C12 C9 1.431 . S
C12 C22 1.476 . S
H13 C7 0.929 . S
C14 O5 1.250 . S
C14 O6 1.258 . S
O15 Mn0 2.162 . S
O15 C3 1.281 . S
O16 Mn0 2.297 . S
O16 C3 1.236 . S
N17 Mn1 2.282 1_655 S
N17 C18 1.328 1_655 S
N17 C22 1.318 . S
C18 N17 1.328 1_455 S
C18 C19 1.461 . S
C18 H23 0.929 . S
C19 C18 1.461 . S
C19 C20 1.280 1_455 S
C19 H32 0.948 1_554 S
C20 C19 1.280 1_655 S
C20 C21 1.403 . S
C20 H33 0.890 1_554 S
C21 C20 1.403 . S
C21 C22 1.396 . S
C21 C28 1.403 . S
C22 C12 1.476 . S
C22 N17 1.318 . S
C22 C21 1.396 . S
H23 C18 0.929 . S
O24 Mn0 2.385 . S
O24 C2 1.256 . S
O25 Mn0 2.209 . S
O25 Mn1 2.215 . S
O25 C2 1.275 . S
O26 Mn0 2.094 . S
O26 C4 1.240 . S
O27 Mn1 2.117 . S
O27 C4 1.264 . S
C28 C21 1.403 . S
C28 C29 1.399 . S
C28 H34 0.929 1_554 S
C29 C9 1.449 . S
C29 C28 1.399 . S
C29 H35 0.930 . S
H30 C10 0.931 . S
H31 C11 0.930 . S
H32 C19 0.948 1_556 S
H33 C20 0.890 1_556 S
H34 C28 0.929 1_556 S
H35 C29 0.930 . S
Mn36 O41 2.095 . S
Mn36 O51 2.162 1_445 S
Mn36 O52 2.297 . S
Mn36 O60 2.385 . S
Mn36 O61 2.209 . S
Mn36 O62 2.094 1_455 S
Mn37 O42 2.121 . S
Mn37 N44 2.257 . S
Mn37 N53 2.282 . S
Mn37 O61 2.215 . S
Mn37 O63 2.117 1_455 S
C38 O60 1.234 . S
C38 O61 1.283 . S
C39 O51 1.281 1_445 S
C39 O52 1.236 . S
C40 O62 1.240 . S
C40 O63 1.264 . S
O41 Mn36 2.095 . S
O41 C50 1.250 . S
O42 Mn37 2.121 . S
O42 C50 1.258 . S
C43 N44 1.326 . S
C43 C47 1.460 . S
C43 H49 0.929 . S
N44 Mn37 2.257 . S
N44 C43 1.326 . S
N44 C48 1.362 . S
C45 C46 1.258 . S
C45 C48 1.431 . S
C45 C65 1.449 . S
C46 C45 1.258 . S
C46 C47 1.477 . S
C46 H66 0.931 . S
C47 C43 1.460 . S
C47 C46 1.477 . S
C47 H67 0.930 . S
C48 N44 1.362 . S
C48 C45 1.431 . S
C48 C58 1.476 . S
H49 C43 0.929 . S
C50 O41 1.250 . S
C50 O42 1.258 . S
O51 Mn36 2.162 1_665 S
O51 C39 1.281 1_665 S
O52 Mn36 2.297 . S
O52 C39 1.236 . S
N53 Mn37 2.282 . S
N53 C54 1.328 . S
N53 C58 1.318 . S
C54 N53 1.328 . S
C54 C55 1.457 . S
C54 H59 0.929 . S
C55 C54 1.457 . S
C55 C56 1.291 . S
C55 H68 0.931 . S
C56 C55 1.291 . S
C56 C57 1.373 . S
C56 H69 0.929 . S
C57 C56 1.373 . S
C57 C58 1.396 . S
C57 C64 1.403 . S
C58 C48 1.476 . S
C58 N53 1.318 . S
C58 C57 1.396 . S
H59 C54 0.929 . S
O60 Mn36 2.385 . S
O60 C38 1.234 . S
O61 Mn36 2.209 . S
O61 Mn37 2.215 . S
O61 C38 1.283 . S
O62 Mn36 2.094 1_655 S
O62 C40 1.240 . S
O63 Mn37 2.117 1_655 S
O63 C40 1.264 . S
C64 C57 1.403 . S
C64 C65 1.399 . S
C64 H70 0.929 . S
C65 C45 1.449 . S
C65 C64 1.399 . S
C65 H71 0.930 . S
H66 C46 0.931 . S
H67 C47 0.930 . S
H68 C55 0.931 . S
H69 C56 0.929 . S
H70 C64 0.929 . S
H71 C65 0.930 . S
Mn72 O77 2.095 1_455 S
Mn72 O87 2.162 . S
Mn72 O88 2.297 . S
Mn72 O96 2.385 . S
Mn72 O97 2.209 . S
Mn72 O98 2.099 . S
Mn73 O78 2.121 . S
Mn73 N80 2.257 1_655 S
Mn73 N89 2.282 1_655 S
Mn73 O97 2.215 1_655 S
Mn73 O99 2.117 . S
C74 O96 1.234 . S
C74 O97 1.283 . S
C75 O87 1.281 . S
C75 O88 1.236 . S
C76 O98 1.223 1_655 S
C76 O99 1.264 . S
O77 Mn72 2.095 1_655 S
O77 C86 1.250 . S
O78 Mn73 2.121 . S
O78 C86 1.258 . S
C79 N80 1.326 . S
C79 C83 1.460 . S
C79 H85 0.929 1_455 S
N80 Mn73 2.257 1_455 S
N80 C79 1.326 . S
N80 C84 1.362 . S
C81 C82 1.258 . S
C81 C84 1.431 . S
C81 C101 1.449 . S
C82 C81 1.258 . S
C82 C83 1.477 . S
C82 H102 0.931 . S
C83 C79 1.460 . S
C83 C82 1.477 . S
C83 H103 0.930 . S
C84 N80 1.362 . S
C84 C81 1.431 . S
C84 C94 1.476 . S
H85 C79 0.929 1_655 S
C86 O77 1.250 . S
C86 O78 1.258 . S
O87 Mn72 2.162 . S
O87 C75 1.281 . S
O88 Mn72 2.297 . S
O88 C75 1.236 . S
N89 Mn73 2.282 1_455 S
N89 C90 1.328 . S
N89 C94 1.318 . S
C90 N89 1.328 . S
C90 C91 1.457 . S
C90 H95 0.929 . S
C91 C90 1.457 . S
C91 C92 1.291 . S
C91 H104 0.931 . S
C92 C91 1.291 . S
C92 C93 1.373 . S
C92 H105 0.929 . S
C93 C92 1.373 . S
C93 C94 1.396 . S
C93 C100 1.403 . S
C94 C84 1.476 . S
C94 N89 1.318 . S
C94 C93 1.396 . S
H95 C90 0.929 . S
O96 Mn72 2.385 . S
O96 C74 1.234 . S
O97 Mn72 2.209 . S
O97 Mn73 2.215 1_455 S
O97 C74 1.283 . S
O98 Mn72 2.099 . S
O98 C76 1.223 1_455 S
O99 Mn73 2.117 . S
O99 C76 1.264 . S
C100 C93 1.403 . S
C100 C101 1.399 . S
C100 H106 0.929 . S
C101 C81 1.449 . S
C101 C100 1.399 . S
C101 H107 0.930 . S
H102 C82 0.931 . S
H103 C83 0.930 . S
H104 C91 0.931 . S
H105 C92 0.929 . S
H106 C100 0.929 . S
H107 C101 0.930 . S
Mg108 O115 2.141 . S
Mg108 O116 2.048 . S
Mg108 O117 2.048 . S
Mg108 O120 2.141 . S
C109 O110 1.313 1_455 S
C109 O116 1.195 . S
O110 C109 1.313 1_655 S
C111 O112 1.245 1_455 S
C111 O120 1.289 . S
O112 C111 1.245 1_655 S
C113 O114 1.245 1_455 S
C113 O115 1.289 . S
O114 C113 1.245 1_655 S
O115 Mg108 2.141 . S
O115 C113 1.289 . S
O116 Mg108 2.048 . S
O116 C109 1.195 . S
O117 Mg108 2.048 . S
O117 C118 1.195 . S
C118 O117 1.195 . S
C118 O119 1.313 1_455 S
O119 C118 1.313 1_655 S
O120 Mg108 2.141 . S
O120 C111 1.289 . S
Mg121 O128 2.141 . S
Mg121 O129 2.048 . S
Mg121 O130 2.048 . S
Mg121 O133 2.141 . S
C122 O123 1.313 . S
C122 O129 1.195 . S
O123 C122 1.313 . S
C124 O125 1.245 . S
C124 O133 1.289 . S
O125 C124 1.245 . S
C126 O127 1.245 . S
C126 O128 1.289 . S
O127 C126 1.245 . S
O128 Mg121 2.141 . S
O128 C126 1.289 . S
O129 Mg121 2.048 . S
O129 C122 1.195 . S
O130 Mg121 2.048 . S
O130 C131 1.195 . S
C131 O130 1.195 . S
C131 O132 1.313 . S
O132 C131 1.313 . S
O133 Mg121 2.141 . S
O133 C124 1.289 . S
Mg134 O141 2.141 . S
Mg134 O142 2.048 . S
Mg134 O143 2.048 . S
Mg134 O146 2.141 . S
C135 O136 1.313 . S
C135 O142 1.195 . S
O136 C135 1.313 . S
C137 O138 1.245 . S
C137 O146 1.289 . S
O138 C137 1.245 . S
C139 O140 1.245 . S
C139 O141 1.289 . S
O140 C139 1.245 . S
O141 Mg134 2.141 . S
O141 C139 1.289 . S
O142 Mg134 2.048 . S
O142 C135 1.195 . S
O143 Mg134 2.048 . S
O143 C144 1.195 . S
C144 O143 1.195 . S
C144 O145 1.313 . S
O145 C144 1.313 . S
O146 Mg134 2.141 . S
O146 C137 1.289 . S
C147 C148 1.386 . S
C147 C149 1.383 . S
C147 H163 0.951 . S
C148 C147 1.386 . S
C148 C152 1.383 . S
C149 C147 1.383 . S
C149 C150 1.402 . S
C149 H164 0.951 . S
C150 C149 1.402 . S
C150 C151 1.375 . S
C150 C153 1.481 . S
C151 C150 1.375 . S
C151 C152 1.367 . S
C151 H165 0.951 . S
C152 C148 1.383 . S
C152 C151 1.367 . S
C152 H166 0.950 . S
C153 C150 1.481 . S
C153 C154 1.297 . S
C153 H167 0.950 . S
C154 C153 1.297 . S
C154 C155 1.479 . S
C154 H168 0.950 . S
C155 C154 1.479 . S
C155 C156 1.375 . S
C155 C161 1.404 . S
C156 C155 1.375 . S
C156 C157 1.369 . S
C156 H169 0.950 . S
C157 C156 1.369 . S
C157 C158 1.392 . S
C157 H170 0.951 . S
C158 C157 1.392 . S
C158 C160 1.384 . S
H159 C161 0.949 . S
C160 C158 1.384 . S
C160 C161 1.385 . S
C160 H162 0.950 . S
C161 C155 1.404 . S
C161 H159 0.949 . S
C161 C160 1.385 . S
H162 C160 0.950 . S
H163 C147 0.951 . S
H164 C149 0.951 . S
H165 C151 0.951 . S
H166 C152 0.950 . S
H167 C153 0.950 . S
H168 C154 0.950 . S
H169 C156 0.950 . S
H170 C157 0.951 . S
C171 C172 1.386 . S
C171 C173 1.383 . S
C171 H187 0.951 . S
C172 C171 1.386 . S
C172 C176 1.383 . S
C173 C171 1.383 . S
C173 C174 1.402 . S
C173 H188 0.951 . S
C174 C173 1.402 . S
C174 C175 1.375 . S
C174 C177 1.481 . S
C175 C174 1.375 . S
C175 C176 1.367 . S
C175 H189 0.951 . S
C176 C172 1.383 . S
C176 C175 1.367 . S
C176 H190 0.950 . S
C177 C174 1.481 . S
C177 C178 1.297 . S
C177 H191 0.950 . S
C178 C177 1.297 . S
C178 C179 1.479 . S
C178 H192 0.950 . S
C179 C178 1.479 . S
C179 C180 1.375 . S
C179 C185 1.404 . S
C180 C179 1.375 . S
C180 C181 1.369 . S
C180 H193 0.950 . S
C181 C180 1.369 . S
C181 C182 1.392 . S
C181 H194 0.951 . S
C182 C181 1.392 . S
C182 C184 1.384 . S
H183 C185 0.949 . S
C184 C182 1.384 . S
C184 C185 1.385 . S
C184 H186 0.950 . S
C185 C179 1.404 . S
C185 H183 0.949 . S
C185 C184 1.385 . S
H186 C184 0.950 . S
H187 C171 0.951 . S
H188 C173 0.951 . S
H189 C175 0.951 . S
H190 C176 0.950 . S
H191 C177 0.950 . S
H192 C178 0.950 . S
H193 C180 0.950 . S
H194 C181 0.951 . S
C195 C196 1.386 . S
C195 C197 1.383 . S
C195 H211 0.951 . S
C196 C195 1.386 . S
C196 C200 1.383 1_565 S
C197 C195 1.383 . S
C197 C198 1.402 . S
C197 H212 0.951 . S
C198 C197 1.402 . S
C198 C199 1.375 . S
C198 C201 1.481 . S
C199 C198 1.375 . S
C199 C200 1.367 1_565 S
C199 H213 0.951 . S
C200 C196 1.383 1_545 S
C200 C199 1.367 1_545 S
C200 H214 0.950 . S
C201 C198 1.481 . S
C201 C202 1.297 . S
C201 H215 0.950 . S
C202 C201 1.297 . S
C202 C203 1.479 . S
C202 H216 0.950 . S
C203 C202 1.479 . S
C203 C204 1.375 . S
C203 C209 1.404 . S
C204 C203 1.375 . S
C204 C205 1.369 . S
C204 H217 0.950 . S
C205 C204 1.369 . S
C205 C206 1.392 . S
C205 H218 0.951 . S
C206 C205 1.392 . S
C206 C208 1.384 . S
H207 C209 0.949 . S
C208 C206 1.384 . S
C208 C209 1.385 . S
C208 H210 0.950 . S
C209 C203 1.404 . S
C209 H207 0.949 . S
C209 C208 1.385 . S
H210 C208 0.950 . S
H211 C195 0.951 . S
H212 C197 0.951 . S
H213 C199 0.951 . S
H214 C200 0.950 . S
H215 C201 0.950 . S
H216 C202 0.950 . S
H217 C204 0.950 . S
H218 C205 0.951 . S
C219 C220 1.386 . S
C219 C221 1.383 . S
C219 H235 0.951 1_565 S
C220 C219 1.386 . S
C220 C224 1.383 . S
C221 C219 1.383 . S
C221 C222 1.402 . S
C221 H236 0.951 . S
C222 C221 1.402 . S
C222 C223 1.375 . S
C222 C225 1.481 . S
C223 C222 1.375 . S
C223 C224 1.367 . S
C223 H237 0.951 1_455 S
C224 C220 1.383 . S
C224 C223 1.367 . S
C224 H238 0.950 1_455 S
C225 C222 1.481 . S
C225 C226 1.297 . S
C225 H239 0.950 . S
C226 C225 1.297 . S
C226 C227 1.479 . S
C226 H240 0.950 . S
C227 C226 1.479 . S
C227 C228 1.375 . S
C227 C233 1.404 . S
C228 C227 1.375 . S
C228 C229 1.369 . S
C228 H241 0.950 . S
C229 C228 1.369 . S
C229 C230 1.392 . S
C229 H242 0.951 . S
C230 C229 1.392 . S
C230 C232 1.384 . S
H231 C233 0.949 1_655 S
C232 C230 1.384 . S
C232 C233 1.385 . S
C232 H234 0.950 1_455 S
C233 C227 1.404 . S
C233 H231 0.949 1_455 S
C233 C232 1.385 . S
H234 C232 0.950 1_655 S
H235 C219 0.951 1_545 S
H236 C221 0.951 . S
H237 C223 0.951 1_655 S
H238 C224 0.950 1_655 S
H239 C225 0.950 . S
H240 C226 0.950 . S
H241 C228 0.950 . S
H242 C229 0.951 . S
C243 C244 1.386 . S
C243 C245 1.383 . S
C243 H259 0.951 . S
C244 C243 1.386 . S
C244 C248 1.383 . S
C245 C243 1.383 . S
C245 C246 1.402 . S
C245 H260 0.951 . S
C246 C245 1.402 . S
C246 C247 1.375 . S
C246 C249 1.481 . S
C247 C246 1.375 . S
C247 C248 1.367 . S
C247 H261 0.951 . S
C248 C244 1.383 . S
C248 C247 1.367 . S
C248 H262 0.950 . S
C249 C246 1.481 . S
C249 C250 1.297 . S
C249 H263 0.950 . S
C250 C249 1.297 . S
C250 C251 1.479 . S
C250 H264 0.950 . S
C251 C250 1.479 . S
C251 C252 1.375 . S
C251 C257 1.404 . S
C252 C251 1.375 . S
C252 C253 1.369 . S
C252 H265 0.950 . S
C253 C252 1.369 . S
C253 C254 1.392 . S
C253 H266 0.951 . S
C254 C253 1.392 . S
C254 C256 1.384 . S
H255 C257 0.949 . S
C256 C254 1.384 . S
C256 C257 1.385 . S
C256 H258 0.950 . S
C257 C251 1.404 . S
C257 H255 0.949 . S
C257 C256 1.385 . S
H258 C256 0.950 . S
H259 C243 0.951 . S
H260 C245 0.951 . S
H261 C247 0.951 . S
H262 C248 0.950 . S
H263 C249 0.950 . S
H264 C250 0.950 . S
H265 C252 0.950 . S
H266 C253 0.951 . S
C267 C268 1.386 . S
C267 C269 1.383 . S
C267 H283 0.951 . S
C268 C267 1.386 . S
C268 C272 1.383 . S
C269 C267 1.383 . S
C269 C270 1.402 . S
C269 H284 0.951 . S
C270 C269 1.402 . S
C270 C271 1.375 . S
C270 C273 1.481 . S
C271 C270 1.375 . S
C271 C272 1.367 . S
C271 H285 0.951 . S
C272 C268 1.383 . S
C272 C271 1.367 . S
C272 H286 0.950 . S
C273 C270 1.481 . S
C273 C274 1.297 . S
C273 H287 0.950 . S
C274 C273 1.297 . S
C274 C275 1.479 . S
C274 H288 0.950 . S
C275 C274 1.479 . S
C275 C276 1.375 . S
C275 C281 1.404 . S
C276 C275 1.375 . S
C276 C277 1.369 . S
C276 H289 0.950 . S
C277 C276 1.369 . S
C277 C278 1.392 . S
C277 H290 0.951 . S
C278 C277 1.392 . S
C278 C280 1.384 . S
H279 C281 0.949 . S
C280 C278 1.384 . S
C280 C281 1.385 . S
C280 H282 0.950 . S
C281 C275 1.404 . S
C281 H279 0.949 . S
C281 C280 1.385 . S
H282 C280 0.950 . S
H283 C267 0.951 . S
H284 C269 0.951 . S
H285 C271 0.951 . S
H286 C272 0.950 . S
H287 C273 0.950 . S
H288 C274 0.950 . S
H289 C276 0.950 . S
H290 C277 0.951 . S
C291 C292 1.386 . S
C291 C293 1.383 . S
C291 H307 0.951 . S
C292 C291 1.386 . S
C292 C296 1.383 . S
C293 C291 1.383 . S
C293 C294 1.402 . S
C293 H308 0.951 . S
C294 C293 1.402 . S
C294 C295 1.375 . S
C294 C297 1.481 . S
C295 C294 1.375 . S
C295 C296 1.367 . S
C295 H309 0.951 . S
C296 C292 1.383 . S
C296 C295 1.367 . S
C296 H310 0.950 . S
C297 C294 1.481 . S
C297 C298 1.297 . S
C297 H311 0.950 . S
C298 C297 1.297 . S
C298 C299 1.479 . S
C298 H312 0.950 . S
C299 C298 1.479 . S
C299 C300 1.375 . S
C299 C305 1.404 . S
C300 C299 1.375 . S
C300 C301 1.369 . S
C300 H313 0.950 . S
C301 C300 1.369 . S
C301 C302 1.392 . S
C301 H314 0.951 . S
C302 C301 1.392 . S
C302 C304 1.384 . S
H303 C305 0.949 . S
C304 C302 1.384 . S
C304 C305 1.385 . S
C304 H306 0.950 . S
C305 C299 1.404 . S
C305 H303 0.949 . S
C305 C304 1.385 . S
H306 C304 0.950 . S
H307 C291 0.951 . S
H308 C293 0.951 . S
H309 C295 0.951 . S
H310 C296 0.950 . S
H311 C297 0.950 . S
H312 C298 0.950 . S
H313 C300 0.950 . S
H314 C301 0.951 . S
C315 C316 1.386 1_565 S
C315 C317 1.383 . S
C315 H331 0.951 . S
C316 C315 1.386 1_545 S
C316 C320 1.383 . S
C317 C315 1.383 . S
C317 C318 1.402 . S
C317 H332 0.951 . S
C318 C317 1.402 . S
C318 C319 1.376 1_565 S
C318 C321 1.481 . S
C319 C318 1.376 1_545 S
C319 C320 1.367 . S
C319 H333 0.951 . S
C320 C316 1.383 . S
C320 C319 1.367 . S
C320 H334 0.950 . S
C321 C318 1.481 . S
C321 C322 1.297 . S
C321 H335 0.950 1_554 S
C322 C321 1.297 . S
C322 C323 1.479 1_554 S
C322 H336 0.950 . S
C323 C322 1.479 1_556 S
C323 C324 1.375 . S
C323 C329 1.404 . S
C324 C323 1.375 . S
C324 C325 1.369 . S
C324 H337 0.950 1_556 S
C325 C324 1.369 . S
C325 C326 1.392 . S
C325 H338 0.951 . S
C326 C325 1.392 . S
C326 C328 1.384 . S
H327 C329 0.949 . S
C328 C326 1.384 . S
C328 C329 1.385 . S
C328 H330 0.950 . S
C329 C323 1.404 . S
C329 H327 0.949 . S
C329 C328 1.385 . S
H330 C328 0.950 . S
H331 C315 0.951 . S
H332 C317 0.951 . S
H333 C319 0.951 . S
H334 C320 0.950 . S
H335 C321 0.950 1_556 S
H336 C322 0.950 . S
H337 C324 0.950 1_554 S
H338 C325 0.951 . S
C339 C340 1.386 . S
C339 C341 1.383 . S
C339 H355 0.951 1_565 S
C340 C339 1.386 . S
C340 C344 1.383 . S
C341 C339 1.383 . S
C341 C342 1.402 . S
C341 H356 0.951 . S
C342 C341 1.402 . S
C342 C343 1.375 . S
C342 C345 1.481 . S
C343 C342 1.375 . S
C343 C344 1.367 . S
C343 H357 0.951 . S
C344 C340 1.383 . S
C344 C343 1.367 . S
C344 H358 0.950 . S
C345 C342 1.481 . S
C345 C346 1.297 . S
C345 H359 0.950 . S
C346 C345 1.297 . S
C346 C347 1.479 . S
C346 H360 0.950 . S
C347 C346 1.479 . S
C347 C348 1.375 . S
C347 C353 1.404 . S
C348 C347 1.375 . S
C348 C349 1.369 . S
C348 H361 0.950 . S
C349 C348 1.369 . S
C349 C350 1.392 . S
C349 H362 0.951 . S
C350 C349 1.392 . S
C350 C352 1.384 . S
H351 C353 0.949 . S
C352 C350 1.384 . S
C352 C353 1.385 . S
C352 H354 0.950 . S
C353 C347 1.404 . S
C353 H351 0.949 . S
C353 C352 1.385 . S
H354 C352 0.950 . S
H355 C339 0.951 1_545 S
H356 C341 0.951 . S
H357 C343 0.951 . S
H358 C344 0.950 . S
H359 C345 0.950 . S
H360 C346 0.950 . S
H361 C348 0.950 . S
H362 C349 0.951 . S
C363 C364 1.386 . S
C363 C365 1.383 . S
C363 H379 0.951 . S
C364 C363 1.386 . S
C364 C368 1.383 . S
C365 C363 1.383 . S
C365 C366 1.402 . S
C365 H380 0.951 . S
C366 C365 1.402 . S
C366 C367 1.375 . S
C366 C369 1.481 . S
C367 C366 1.375 . S
C367 C368 1.367 . S
C367 H381 0.951 . S
C368 C364 1.383 . S
C368 C367 1.367 . S
C368 H382 0.950 . S
C369 C366 1.481 . S
C369 C370 1.297 . S
C369 H383 0.950 . S
C370 C369 1.297 . S
C370 C371 1.479 . S
C370 H384 0.950 . S
C371 C370 1.479 . S
C371 C372 1.375 . S
C371 C377 1.404 . S
C372 C371 1.375 . S
C372 C373 1.369 . S
C372 H385 0.950 . S
C373 C372 1.369 . S
C373 C374 1.392 . S
C373 H386 0.951 . S
C374 C373 1.392 . S
C374 C376 1.384 . S
H375 C377 0.949 . S
C376 C374 1.384 . S
C376 C377 1.385 . S
C376 H378 0.950 . S
C377 C371 1.404 . S
C377 H375 0.949 . S
C377 C376 1.385 . S
H378 C376 0.950 . S
H379 C363 0.951 . S
H380 C365 0.951 . S
H381 C367 0.951 . S
H382 C368 0.950 . S
H383 C369 0.950 . S
H384 C370 0.950 . S
H385 C372 0.950 . S
H386 C373 0.951 . S
C387 C388 1.386 . S
C387 C389 1.383 . S
C387 H403 0.951 . S
C388 C387 1.386 . S
C388 C392 1.383 . S
C389 C387 1.383 . S
C389 C390 1.402 . S
C389 H404 0.951 . S
C390 C389 1.402 . S
C390 C391 1.375 . S
C390 C393 1.481 . S
C391 C390 1.375 . S
C391 C392 1.367 . S
C391 H405 0.951 . S
C392 C388 1.383 . S
C392 C391 1.367 . S
C392 H406 0.950 . S
C393 C390 1.481 . S
C393 C394 1.277 1_554 S
C393 H407 0.950 . S
C394 C393 1.277 1_556 S
C394 C395 1.493 . S
C394 H408 0.959 . S
C395 C394 1.493 . S
C395 C396 1.375 . S
C395 C401 1.404 . S
C396 C395 1.375 . S
C396 C397 1.369 . S
C396 H409 0.950 . S
C397 C396 1.369 . S
C397 C398 1.392 . S
C397 H410 0.951 . S
C398 C397 1.392 . S
C398 C400 1.384 . S
H399 C401 0.949 1_554 S
C400 C398 1.384 . S
C400 C401 1.385 . S
C400 H402 0.950 . S
C401 C395 1.404 . S
C401 H399 0.949 1_556 S
C401 C400 1.385 . S
H402 C400 0.950 . S
H403 C387 0.951 . S
H404 C389 0.951 . S
H405 C391 0.951 . S
H406 C392 0.950 . S
H407 C393 0.950 . S
H408 C394 0.959 . S
H409 C396 0.950 . S
H410 C397 0.951 . S
C411 C412 1.386 . S
C411 C413 1.383 . S
C411 H427 0.951 . S
C412 C411 1.386 . S
C412 C416 1.383 1_455 S
C413 C411 1.383 . S
C413 C414 1.402 . S
C413 H428 0.951 . S
C414 C413 1.402 . S
C414 C415 1.375 1_455 S
C414 C417 1.481 . S
C415 C414 1.375 1_655 S
C415 C416 1.367 . S
C415 H429 0.951 . S
C416 C412 1.383 1_655 S
C416 C415 1.367 . S
C416 H430 0.950 . S
C417 C414 1.481 . S
C417 C418 1.297 . S
C417 H431 0.950 1_455 S
C418 C417 1.297 . S
C418 C419 1.479 . S
C418 H432 0.950 . S
C419 C418 1.479 . S
C419 C420 1.375 . S
C419 C425 1.404 1_455 S
C420 C419 1.375 . S
C420 C421 1.369 . S
C420 H433 0.950 . S
C421 C420 1.369 . S
C421 C422 1.392 . S
C421 H434 0.951 . S
C422 C421 1.392 . S
C422 C424 1.384 1_455 S
H423 C425 0.949 . S
C424 C422 1.384 1_655 S
C424 C425 1.385 . S
C424 H426 0.950 . S
C425 C419 1.404 1_655 S
C425 H423 0.949 . S
C425 C424 1.385 . S
H426 C424 0.950 . S
H427 C411 0.951 . S
H428 C413 0.951 . S
H429 C415 0.951 . S
H430 C416 0.950 . S
H431 C417 0.950 1_655 S
H432 C418 0.950 . S
H433 C420 0.950 . S
H434 C421 0.951 . S
C158 C113 1.419 . S
C148 C14 1.358 . S
C172 C40 1.444 . S
C182 C131 1.458 . S
C196 C76 1.437 1_565 S
C206 C144 1.441 . S
C220 C3 1.362 1_565 S
C230 C111 1.366 . S
C254 C122 1.492 . S
C244 C38 1.465 . S
C268 C74 1.438 . S
C278 C135 1.465 . S
C302 C124 1.353 . S
C292 C86 1.329 . S
C316 C2 1.379 1_655 S
C326 C137 1.407 . S
C350 C118 1.445 . S
C340 C39 1.442 1_565 S
C374 C126 1.352 . S
C364 C75 1.372 . S
C398 C139 1.407 . S
C388 C4 1.379 . S
C412 C50 1.449 . S
C422 C109 1.466 . S
