# Generated by pormake.
# Topology gar, (4,6)-cn, num edge types: 1
# Building blocks:
#     Node 0, Type 0, BuildingBlock: UXUYUI_clean_sbu_0, # of connection points: 4
#     Node 1, Type 0, BuildingBlock: UXUYUI_clean_sbu_0, # of connection points: 4
#     Node 2, Type 0, BuildingBlock: UXUYUI_clean_sbu_0, # of connection points: 4
#     Node 3, Type 0, BuildingBlock: UXUYUI_clean_sbu_0, # of connection points: 4
#     Node 4, Type 0, BuildingBlock: UXUYUI_clean_sbu_0, # of connection points: 4
#     Node 5, Type 0, BuildingBlock: UXUYUI_clean_sbu_0, # of connection points: 4
#     Node 6, Type 0, BuildingBlock: UXUYUI_clean_sbu_0, # of connection points: 4
#     Node 7, Type 0, BuildingBlock: UXUYUI_clean_sbu_0, # of connection points: 4
#     Node 8, Type 0, BuildingBlock: UXUYUI_clean_sbu_0, # of connection points: 4
#     Node 9, Type 0, BuildingBlock: UXUYUI_clean_sbu_0, # of connection points: 4
#     Node 10, Type 0, BuildingBlock: UXUYUI_clean_sbu_0, # of connection points: 4
#     Node 11, Type 0, BuildingBlock: UXUYUI_clean_sbu_0, # of connection points: 4
#     Node 12, Type 0, BuildingBlock: UXUYUI_clean_sbu_0, # of connection points: 4
#     Node 13, Type 0, BuildingBlock: UXUYUI_clean_sbu_0, # of connection points: 4
#     Node 14, Type 0, BuildingBlock: UXUYUI_clean_sbu_0, # of connection points: 4
#     Node 15, Type 0, BuildingBlock: UXUYUI_clean_sbu_0, # of connection points: 4
#     Node 16, Type 0, BuildingBlock: UXUYUI_clean_sbu_0, # of connection points: 4
#     Node 17, Type 0, BuildingBlock: UXUYUI_clean_sbu_0, # of connection points: 4
#     Node 18, Type 0, BuildingBlock: UXUYUI_clean_sbu_0, # of connection points: 4
#     Node 19, Type 0, BuildingBlock: UXUYUI_clean_sbu_0, # of connection points: 4
#     Node 20, Type 0, BuildingBlock: UXUYUI_clean_sbu_0, # of connection points: 4
#     Node 21, Type 0, BuildingBlock: UXUYUI_clean_sbu_0, # of connection points: 4
#     Node 22, Type 0, BuildingBlock: UXUYUI_clean_sbu_0, # of connection points: 4
#     Node 23, Type 0, BuildingBlock: UXUYUI_clean_sbu_0, # of connection points: 4
#     Node 24, Type 1, BuildingBlock: KUMBUR_clean_sbu_1, # of connection points: 6
#     Node 25, Type 1, BuildingBlock: KUMBUR_clean_sbu_1, # of connection points: 6
#     Node 26, Type 1, BuildingBlock: KUMBUR_clean_sbu_1, # of connection points: 6
#     Node 27, Type 1, BuildingBlock: KUMBUR_clean_sbu_1, # of connection points: 6
#     Node 28, Type 1, BuildingBlock: KUMBUR_clean_sbu_1, # of connection points: 6
#     Node 29, Type 1, BuildingBlock: KUMBUR_clean_sbu_1, # of connection points: 6
#     Node 30, Type 1, BuildingBlock: KUMBUR_clean_sbu_1, # of connection points: 6
#     Node 31, Type 1, BuildingBlock: KUMBUR_clean_sbu_1, # of connection points: 6
#     Node 32, Type 1, BuildingBlock: KUMBUR_clean_sbu_1, # of connection points: 6
#     Node 33, Type 1, BuildingBlock: KUMBUR_clean_sbu_1, # of connection points: 6
#     Node 34, Type 1, BuildingBlock: KUMBUR_clean_sbu_1, # of connection points: 6
#     Node 35, Type 1, BuildingBlock: KUMBUR_clean_sbu_1, # of connection points: 6
#     Node 36, Type 1, BuildingBlock: KUMBUR_clean_sbu_1, # of connection points: 6
#     Node 37, Type 1, BuildingBlock: KUMBUR_clean_sbu_1, # of connection points: 6
#     Node 38, Type 1, BuildingBlock: KUMBUR_clean_sbu_1, # of connection points: 6
#     Node 39, Type 1, BuildingBlock: KUMBUR_clean_sbu_1, # of connection points: 6
#     Edge 40, Type (0, 1), BuildingBlock: KIFKEQ_clean_linker_1, # of connection points: 2
#     Edge 41, Type (0, 1), BuildingBlock: KIFKEQ_clean_linker_1, # of connection points: 2
#     Edge 42, Type (0, 1), BuildingBlock: KIFKEQ_clean_linker_1, # of connection points: 2
#     Edge 43, Type (0, 1), BuildingBlock: KIFKEQ_clean_linker_1, # of connection points: 2
#     Edge 44, Type (0, 1), BuildingBlock: KIFKEQ_clean_linker_1, # of connection points: 2
#     Edge 45, Type (0, 1), BuildingBlock: KIFKEQ_clean_linker_1, # of connection points: 2
#     Edge 46, Type (0, 1), BuildingBlock: KIFKEQ_clean_linker_1, # of connection points: 2
#     Edge 47, Type (0, 1), BuildingBlock: KIFKEQ_clean_linker_1, # of connection points: 2
#     Edge 48, Type (0, 1), BuildingBlock: KIFKEQ_clean_linker_1, # of connection points: 2
#     Edge 49, Type (0, 1), BuildingBlock: KIFKEQ_clean_linker_1, # of connection points: 2
#     Edge 50, Type (0, 1), BuildingBlock: KIFKEQ_clean_linker_1, # of connection points: 2
#     Edge 51, Type (0, 1), BuildingBlock: KIFKEQ_clean_linker_1, # of connection points: 2
#     Edge 52, Type (0, 1), BuildingBlock: KIFKEQ_clean_linker_1, # of connection points: 2
#     Edge 53, Type (0, 1), BuildingBlock: KIFKEQ_clean_linker_1, # of connection points: 2
#     Edge 54, Type (0, 1), BuildingBlock: KIFKEQ_clean_linker_1, # of connection points: 2
#     Edge 55, Type (0, 1), BuildingBlock: KIFKEQ_clean_linker_1, # of connection points: 2
#     Edge 56, Type (0, 1), BuildingBlock: KIFKEQ_clean_linker_1, # of connection points: 2
#     Edge 57, Type (0, 1), BuildingBlock: KIFKEQ_clean_linker_1, # of connection points: 2
#     Edge 58, Type (0, 1), BuildingBlock: KIFKEQ_clean_linker_1, # of connection points: 2
#     Edge 59, Type (0, 1), BuildingBlock: KIFKEQ_clean_linker_1, # of connection points: 2
#     Edge 60, Type (0, 1), BuildingBlock: KIFKEQ_clean_linker_1, # of connection points: 2
#     Edge 61, Type (0, 1), BuildingBlock: KIFKEQ_clean_linker_1, # of connection points: 2
#     Edge 62, Type (0, 1), BuildingBlock: KIFKEQ_clean_linker_1, # of connection points: 2
#     Edge 63, Type (0, 1), BuildingBlock: KIFKEQ_clean_linker_1, # of connection points: 2
#     Edge 64, Type (0, 1), BuildingBlock: KIFKEQ_clean_linker_1, # of connection points: 2
#     Edge 65, Type (0, 1), BuildingBlock: KIFKEQ_clean_linker_1, # of connection points: 2
#     Edge 66, Type (0, 1), BuildingBlock: KIFKEQ_clean_linker_1, # of connection points: 2
#     Edge 67, Type (0, 1), BuildingBlock: KIFKEQ_clean_linker_1, # of connection points: 2
#     Edge 68, Type (0, 1), BuildingBlock: KIFKEQ_clean_linker_1, # of connection points: 2
#     Edge 69, Type (0, 1), BuildingBlock: KIFKEQ_clean_linker_1, # of connection points: 2
#     Edge 70, Type (0, 1), BuildingBlock: KIFKEQ_clean_linker_1, # of connection points: 2
#     Edge 71, Type (0, 1), BuildingBlock: KIFKEQ_clean_linker_1, # of connection points: 2
#     Edge 72, Type (0, 1), BuildingBlock: KIFKEQ_clean_linker_1, # of connection points: 2
#     Edge 73, Type (0, 1), BuildingBlock: KIFKEQ_clean_linker_1, # of connection points: 2
#     Edge 74, Type (0, 1), BuildingBlock: KIFKEQ_clean_linker_1, # of connection points: 2
#     Edge 75, Type (0, 1), BuildingBlock: KIFKEQ_clean_linker_1, # of connection points: 2
#     Edge 76, Type (0, 1), BuildingBlock: KIFKEQ_clean_linker_1, # of connection points: 2
#     Edge 77, Type (0, 1), BuildingBlock: KIFKEQ_clean_linker_1, # of connection points: 2
#     Edge 78, Type (0, 1), BuildingBlock: KIFKEQ_clean_linker_1, # of connection points: 2
#     Edge 79, Type (0, 1), BuildingBlock: KIFKEQ_clean_linker_1, # of connection points: 2
#     Edge 80, Type (0, 1), BuildingBlock: KIFKEQ_clean_linker_1, # of connection points: 2
#     Edge 81, Type (0, 1), BuildingBlock: KIFKEQ_clean_linker_1, # of connection points: 2
#     Edge 82, Type (0, 1), BuildingBlock: KIFKEQ_clean_linker_1, # of connection points: 2
#     Edge 83, Type (0, 1), BuildingBlock: KIFKEQ_clean_linker_1, # of connection points: 2
#     Edge 84, Type (0, 1), BuildingBlock: KIFKEQ_clean_linker_1, # of connection points: 2
#     Edge 85, Type (0, 1), BuildingBlock: KIFKEQ_clean_linker_1, # of connection points: 2
#     Edge 86, Type (0, 1), BuildingBlock: KIFKEQ_clean_linker_1, # of connection points: 2
#     Edge 87, Type (0, 1), BuildingBlock: KIFKEQ_clean_linker_1, # of connection points: 2
#     Edge 88, Type (0, 1), BuildingBlock: KIFKEQ_clean_linker_1, # of connection points: 2
#     Edge 89, Type (0, 1), BuildingBlock: KIFKEQ_clean_linker_1, # of connection points: 2
#     Edge 90, Type (0, 1), BuildingBlock: KIFKEQ_clean_linker_1, # of connection points: 2
#     Edge 91, Type (0, 1), BuildingBlock: KIFKEQ_clean_linker_1, # of connection points: 2
#     Edge 92, Type (0, 1), BuildingBlock: KIFKEQ_clean_linker_1, # of connection points: 2
#     Edge 93, Type (0, 1), BuildingBlock: KIFKEQ_clean_linker_1, # of connection points: 2
#     Edge 94, Type (0, 1), BuildingBlock: KIFKEQ_clean_linker_1, # of connection points: 2
#     Edge 95, Type (0, 1), BuildingBlock: KIFKEQ_clean_linker_1, # of connection points: 2
#     Edge 96, Type (0, 1), BuildingBlock: KIFKEQ_clean_linker_1, # of connection points: 2
#     Edge 97, Type (0, 1), BuildingBlock: KIFKEQ_clean_linker_1, # of connection points: 2
#     Edge 98, Type (0, 1), BuildingBlock: KIFKEQ_clean_linker_1, # of connection points: 2
#     Edge 99, Type (0, 1), BuildingBlock: KIFKEQ_clean_linker_1, # of connection points: 2
#     Edge 100, Type (0, 1), BuildingBlock: KIFKEQ_clean_linker_1, # of connection points: 2
#     Edge 101, Type (0, 1), BuildingBlock: KIFKEQ_clean_linker_1, # of connection points: 2
#     Edge 102, Type (0, 1), BuildingBlock: KIFKEQ_clean_linker_1, # of connection points: 2
#     Edge 103, Type (0, 1), BuildingBlock: KIFKEQ_clean_linker_1, # of connection points: 2
#     Edge 104, Type (0, 1), BuildingBlock: KIFKEQ_clean_linker_1, # of connection points: 2
#     Edge 105, Type (0, 1), BuildingBlock: KIFKEQ_clean_linker_1, # of connection points: 2
#     Edge 106, Type (0, 1), BuildingBlock: KIFKEQ_clean_linker_1, # of connection points: 2
#     Edge 107, Type (0, 1), BuildingBlock: KIFKEQ_clean_linker_1, # of connection points: 2
#     Edge 108, Type (0, 1), BuildingBlock: KIFKEQ_clean_linker_1, # of connection points: 2
#     Edge 109, Type (0, 1), BuildingBlock: KIFKEQ_clean_linker_1, # of connection points: 2
#     Edge 110, Type (0, 1), BuildingBlock: KIFKEQ_clean_linker_1, # of connection points: 2
#     Edge 111, Type (0, 1), BuildingBlock: KIFKEQ_clean_linker_1, # of connection points: 2
#     Edge 112, Type (0, 1), BuildingBlock: KIFKEQ_clean_linker_1, # of connection points: 2
#     Edge 113, Type (0, 1), BuildingBlock: KIFKEQ_clean_linker_1, # of connection points: 2
#     Edge 114, Type (0, 1), BuildingBlock: KIFKEQ_clean_linker_1, # of connection points: 2
#     Edge 115, Type (0, 1), BuildingBlock: KIFKEQ_clean_linker_1, # of connection points: 2
#     Edge 116, Type (0, 1), BuildingBlock: KIFKEQ_clean_linker_1, # of connection points: 2
#     Edge 117, Type (0, 1), BuildingBlock: KIFKEQ_clean_linker_1, # of connection points: 2
#     Edge 118, Type (0, 1), BuildingBlock: KIFKEQ_clean_linker_1, # of connection points: 2
#     Edge 119, Type (0, 1), BuildingBlock: KIFKEQ_clean_linker_1, # of connection points: 2
#     Edge 120, Type (0, 1), BuildingBlock: KIFKEQ_clean_linker_1, # of connection points: 2
#     Edge 121, Type (0, 1), BuildingBlock: KIFKEQ_clean_linker_1, # of connection points: 2
#     Edge 122, Type (0, 1), BuildingBlock: KIFKEQ_clean_linker_1, # of connection points: 2
#     Edge 123, Type (0, 1), BuildingBlock: KIFKEQ_clean_linker_1, # of connection points: 2
#     Edge 124, Type (0, 1), BuildingBlock: KIFKEQ_clean_linker_1, # of connection points: 2
#     Edge 125, Type (0, 1), BuildingBlock: KIFKEQ_clean_linker_1, # of connection points: 2
#     Edge 126, Type (0, 1), BuildingBlock: KIFKEQ_clean_linker_1, # of connection points: 2
#     Edge 127, Type (0, 1), BuildingBlock: KIFKEQ_clean_linker_1, # of connection points: 2
#     Edge 128, Type (0, 1), BuildingBlock: KIFKEQ_clean_linker_1, # of connection points: 2
#     Edge 129, Type (0, 1), BuildingBlock: KIFKEQ_clean_linker_1, # of connection points: 2
#     Edge 130, Type (0, 1), BuildingBlock: KIFKEQ_clean_linker_1, # of connection points: 2
#     Edge 131, Type (0, 1), BuildingBlock: KIFKEQ_clean_linker_1, # of connection points: 2
#     Edge 132, Type (0, 1), BuildingBlock: KIFKEQ_clean_linker_1, # of connection points: 2
#     Edge 133, Type (0, 1), BuildingBlock: KIFKEQ_clean_linker_1, # of connection points: 2
#     Edge 134, Type (0, 1), BuildingBlock: KIFKEQ_clean_linker_1, # of connection points: 2
#     Edge 135, Type (0, 1), BuildingBlock: KIFKEQ_clean_linker_1, # of connection points: 2
# Relax obj value: 0.085
# Max RMSD: 0.199
# Mean RMSD: 0.155
data_MOF--net-gar--node1-UXUYUI_clean_sbu_0--node2-KUMBUR_clean_sbu_1--edge1-KIFKEQ_clean_linker_1
_symmetry_space_group_name_H-M    P1
_symmetry_Int_Tables_number       1
_symmetry_cell_setting            triclinic
loop_
_symmetry_equiv_pos_as_xyz
'x, y, z'
_cell_length_a     73.555104
_cell_length_b     73.547382
_cell_length_c     69.521619
_cell_angle_alpha  95.627232
_cell_angle_beta   95.699301
_cell_angle_gamma 100.56508
loop_
_atom_site_label
_atom_site_type_symbol
_atom_site_fract_x
_atom_site_fract_y
_atom_site_fract_z
_atom_type_partial_charge
Li0 Li 0.02631 0.30385 0.34574 0.0
Li1 Li 0.04771 0.32543 0.37425 0.0
Li2 Li 0.06305 0.30591 0.34734 0.0
Li3 Li 0.04486 0.28983 0.37271 0.0
C4 C 0.04494 0.33892 0.33242 0.0
N5 N 0.04107 0.36508 0.30721 0.0
C6 C 0.03976 0.35558 0.33901 0.0
C7 C 0.04816 0.33552 0.31306 0.0
C8 C 0.03788 0.36864 0.32603 0.0
C9 C 0.0461 0.34893 0.30052 0.0
C10 C 0.01261 0.30502 0.38738 0.0
C11 C 1.00427 0.30193 0.41972 0.0
N12 N 0.98664 0.30379 0.41354 0.0
C13 C 0.99443 0.30697 0.38136 0.0
C14 C 0.01764 0.30261 0.40673 0.0
C15 C 0.98151 0.30632 0.39481 0.0
C16 C 0.98878 0.28409 0.32922 0.0
N17 N 1.00072 0.30089 0.33091 0.0
C18 C 0.97545 0.3147 0.31783 0.0
C19 C 0.99433 0.31601 0.3251 0.0
C20 C 0.96261 0.29767 0.31644 0.0
C21 C 0.96979 0.28217 0.32198 0.0
H22 H 0.9938 0.27224 0.33425 0.0
H23 H 1.0037 0.32937 0.32676 0.0
C24 C 0.0649 0.36119 0.39894 0.0
N25 N 0.04873 0.34903 0.39189 0.0
C26 C 0.06477 0.37752 0.41149 0.0
C27 C 0.03144 0.36875 0.40935 0.0
C28 C 0.03219 0.35275 0.39682 0.0
C29 C 0.04784 0.38156 0.41709 0.0
H30 H 0.07799 0.35824 0.39492 0.0
H31 H 0.01937 0.34336 0.39089 0.0
C32 C 0.03992 0.26821 0.33059 0.0
N33 N 0.03599 0.23685 0.30404 0.0
C34 C 0.04461 0.25189 0.33655 0.0
C35 C 0.03322 0.26861 0.31115 0.0
C36 C 0.04253 0.23617 0.3229 0.0
C37 C 0.03134 0.2526 0.29793 0.0
C38 C 0.08177 0.3097 0.39108 0.0
C39 C 0.09794 0.30371 0.38641 0.0
C40 C 0.0802 0.31587 0.41037 0.0
C41 C 0.11233 0.30401 0.40121 0.0
C42 C 0.09491 0.31595 0.42476 0.0
N43 N 0.11054 0.31009 0.41992 0.0
C44 C 0.10045 0.31951 0.33526 0.0
C45 C 0.08877 0.28764 0.32523 0.0
C46 C 0.11759 0.31812 0.32815 0.0
N47 N 0.08632 0.30437 0.3339 0.0
C48 C 0.10569 0.28562 0.318 0.0
C49 C 0.12076 0.30089 0.31951 0.0
H50 H 0.09864 0.33273 0.34234 0.0
H51 H 0.07778 0.27554 0.3244 0.0
C52 C 0.02672 0.25976 0.39187 0.0
N53 N 0.04363 0.2686 0.38791 0.0
C54 C 0.02517 0.24412 0.40211 0.0
C55 C 0.05839 0.24647 0.40367 0.0
C56 C 0.05934 0.26224 0.39363 0.0
C57 C 0.0411 0.23702 0.40809 0.0
H58 H 0.01433 0.26477 0.38697 0.0
H59 H 0.07263 0.26912 0.39002 0.0
O60 O 0.04741 0.32626 0.34507 0.0
O61 O 0.02536 0.30537 0.37432 0.0
O62 O 0.04161 0.28365 0.34379 0.0
O63 O 0.06785 0.31015 0.37669 0.0
H64 H 0.0373 0.35842 0.354 0.0
H65 H 0.05228 0.3227 0.30782 0.0
H66 H 0.03393 0.38163 0.33092 0.0
H67 H 0.04857 0.34653 0.28548 0.0
H68 H 1.0079 0.29991 0.43472 0.0
H69 H 0.99035 0.30908 0.36651 0.0
H70 H 0.03168 0.30112 0.41161 0.0
H71 H 0.9674 0.30782 0.39034 0.0
H72 H 0.97095 0.32708 0.31355 0.0
H73 H 0.96068 0.26875 0.32152 0.0
H74 H 0.0779 0.38668 0.41697 0.0
H75 H 0.01792 0.37113 0.41258 0.0
H76 H 0.04983 0.25136 0.35154 0.0
H77 H 0.02948 0.28115 0.30635 0.0
H78 H 0.0461 0.22344 0.32731 0.0
H79 H 0.02617 0.25268 0.28283 0.0
H80 H 0.09938 0.29891 0.37153 0.0
H81 H 0.0678 0.32065 0.41416 0.0
H82 H 0.12495 0.29947 0.39781 0.0
H83 H 0.09392 0.32073 0.43977 0.0
H84 H 0.12825 0.33058 0.32955 0.0
H85 H 0.10702 0.2719 0.31187 0.0
H86 H 0.01151 0.23778 0.40533 0.0
H87 H 0.07112 0.24156 0.40746 0.0
Li88 Li 0.02403 0.77175 0.67641 0.0
Li89 Li 0.04212 0.75805 0.70356 0.0
Li90 Li 0.02011 0.73611 0.67507 0.0
Li91 Li 1.00514 0.75525 0.70188 0.0
C92 C 0.05565 0.75766 0.66183 0.0
N93 N 0.08156 0.76135 0.63561 0.0
C94 C 0.07417 0.76614 0.66816 0.0
C95 C 0.05027 0.7511 0.64217 0.0
C96 C 0.08706 0.76788 0.65468 0.0
C97 C 0.06359 0.75308 0.62913 0.0
C98 C 0.0305 0.79326 0.71893 0.0
C99 C 0.03071 0.80782 0.75158 0.0
N100 N 0.03829 0.82453 0.74606 0.0
C101 C 0.03833 0.81054 0.71358 0.0
C102 C 0.02666 0.79184 0.73806 0.0
C103 C 0.04215 0.8262 0.72751 0.0
C104 C 1.00898 0.79871 0.65544 0.0
N105 N 0.02502 0.7928 0.66098 0.0
C106 C 0.04264 0.81745 0.64625 0.0
C107 C 0.04167 0.80185 0.65652 0.0
C108 C 0.02631 0.82378 0.64024 0.0
C109 C 1.00929 0.81408 0.64486 0.0
H110 H 0.99591 0.79159 0.65938 0.0
H111 H 0.0543 0.79716 0.66121 0.0
C112 C 0.07505 0.745 0.71966 0.0
N113 N 0.06773 0.76065 0.71836 0.0
C114 C 0.09392 0.74612 0.72686 0.0
C115 C 0.09769 0.77946 0.73177 0.0
C116 C 0.0787 0.7777 0.72456 0.0
C117 C 0.10588 0.76356 0.73276 0.0
H118 H 0.06639 0.73152 0.71449 0.0
H119 H 0.07299 0.79011 0.72311 0.0
C120 C 0.98597 0.74882 0.65823 0.0
N121 N 0.95605 0.74298 0.62955 0.0
C122 C 0.96794 0.74264 0.66271 0.0
C123 C 0.98884 0.75195 0.63917 0.0
C124 C 0.95298 0.73976 0.648 0.0
C125 C 0.9735 0.74895 0.62487 0.0
C126 C 0.02038 0.72195 0.71643 0.0
C127 C 0.01303 0.70342 0.70902 0.0
C128 C 0.02702 0.72649 0.73617 0.0
C129 C 0.01245 0.68965 0.72155 0.0
C130 C 0.0262 0.71231 0.74824 0.0
N131 N 0.019 0.69434 0.74073 0.0
C132 C 0.03481 0.7053 0.65807 0.0
C133 C 1.00357 0.70376 0.64522 0.0
C134 C 0.03563 0.68898 0.64603 0.0
N135 N 0.01895 0.71245 0.6576 0.0
C136 C 1.00381 0.68739 0.63284 0.0
C137 C 0.02001 0.6796 0.63307 0.0
H138 H 0.047 0.71238 0.66778 0.0
H139 H 0.99103 0.70951 0.64486 0.0
C140 C 0.97668 0.77411 0.71674 0.0
N141 N 0.9818 0.75715 0.71511 0.0
C142 C 0.95977 0.77648 0.72379 0.0
C143 C 0.95334 0.74398 0.72782 0.0
C144 C 0.97044 0.74222 0.72071 0.0
C145 C 0.94744 0.76129 0.72929 0.0
H146 H 0.98559 0.78592 0.71218 0.0
H147 H 0.97434 0.7287 0.71918 0.0
O148 O 0.04297 0.75543 0.6749 0.0
O149 O 0.02614 0.77791 0.70536 0.0
O150 O 1.00068 0.75219 0.67257 0.0
O151 O 0.02148 0.7355 0.70428 0.0
H152 H 0.07856 0.77135 0.6833 0.0
H153 H 0.03599 0.74446 0.63707 0.0
H154 H 0.10145 0.77438 0.65938 0.0
H155 H 0.05966 0.74801 0.61387 0.0
H156 H 0.02777 0.80696 0.76644 0.0
H157 H 0.04132 0.81187 0.6988 0.0
H158 H 0.02051 0.77854 0.74238 0.0
H159 H 0.04815 0.83968 0.72356 0.0
H160 H 0.05605 0.82446 0.64294 0.0
H161 H 0.9964 0.81861 0.64072 0.0
H162 H 0.09906 0.7333 0.72757 0.0
H163 H 0.10601 0.7933 0.73578 0.0
H164 H 0.96551 0.74013 0.6774 0.0
H165 H 1.00274 0.75678 0.63551 0.0
H166 H 0.93894 0.73501 0.65126 0.0
H167 H 0.97547 0.75142 0.61006 0.0
H168 H 1.0079 0.69972 0.69373 0.0
H169 H 0.03284 0.74079 0.74206 0.0
H170 H 1.00684 0.67524 0.71602 0.0
H171 H 0.03132 0.71557 0.76355 0.0
H172 H 0.0486 0.68397 0.64668 0.0
H173 H 0.99129 0.68076 0.62337 0.0
H174 H 0.95647 0.79026 0.72486 0.0
H175 H 0.94458 0.73164 0.73154 0.0
Li176 Li 0.52551 0.80324 0.84522 0.0
Li177 Li 0.54705 0.82495 0.87362 0.0
Li178 Li 0.56249 0.80553 0.84682 0.0
Li179 Li 0.54437 0.78936 0.87235 0.0
C180 C 0.54449 0.83862 0.83201 0.0
N181 N 0.54151 0.86543 0.80736 0.0
C182 C 0.53938 0.85527 0.83879 0.0
C183 C 0.54808 0.83557 0.81273 0.0
C184 C 0.53796 0.86866 0.82609 0.0
C185 C 0.54647 0.8493 0.80047 0.0
C186 C 0.51191 0.80402 0.88685 0.0
C187 C 0.50333 0.79989 0.91893 0.0
N188 N 0.48587 0.80239 0.91296 0.0
C189 C 0.49389 0.80655 0.88102 0.0
C190 C 0.51672 0.80071 0.90595 0.0
C191 C 0.48093 0.80569 0.89444 0.0
C192 C 0.48816 0.78323 0.82705 0.0
N193 N 0.49972 0.80032 0.83049 0.0
C194 C 0.47388 0.81452 0.81972 0.0
C195 C 0.49286 0.81579 0.8266 0.0
C196 C 0.46158 0.79714 0.81644 0.0
C197 C 0.46913 0.78132 0.81987 0.0
H198 H 0.4935 0.77105 0.8306 0.0
H199 H 0.50191 0.82934 0.82969 0.0
C200 C 0.56449 0.86127 0.89686 0.0
N201 N 0.54833 0.84862 0.89119 0.0
C202 C 0.56472 0.87773 0.9093 0.0
C203 C 0.53175 0.8681 0.90992 0.0
C204 C 0.53214 0.85196 0.89746 0.0
C205 C 0.54817 0.88144 0.91623 0.0
H206 H 0.57729 0.8586 0.89177 0.0
H207 H 0.5193 0.84216 0.89265 0.0
C208 C 0.53973 0.76772 0.83027 0.0
N209 N 0.53629 0.73627 0.80397 0.0
C210 C 0.54461 0.75154 0.83642 0.0
C211 C 0.53309 0.76793 0.81078 0.0
C212 C 0.54278 0.73578 0.82289 0.0
C213 C 0.53146 0.75187 0.79769 0.0
C214 C 0.58142 0.81036 0.89056 0.0
C215 C 0.59791 0.80493 0.8861 0.0
C216 C 0.57959 0.81658 0.90978 0.0
C217 C 0.61233 0.80577 0.90102 0.0
C218 C 0.59435 0.81722 0.92429 0.0
N219 N 0.61027 0.81185 0.91965 0.0
C220 C 0.59823 0.81928 0.83034 0.0
C221 C 0.59027 0.78669 0.82966 0.0
C222 C 0.61543 0.81778 0.82332 0.0
N223 N 0.58593 0.80386 0.83355 0.0
C224 C 0.60731 0.78459 0.82277 0.0
C225 C 0.62051 0.80024 0.81964 0.0
H226 H 0.59499 0.83292 0.83371 0.0
H227 H 0.58073 0.77448 0.83244 0.0
C228 C 0.52672 0.75645 0.88777 0.0
N229 N 0.54335 0.76821 0.88781 0.0
C230 C 0.52548 0.74081 0.89805 0.0
C231 C 0.55845 0.74951 0.90835 0.0
C232 C 0.55908 0.76493 0.89784 0.0
C233 C 0.5415 0.73705 0.90858 0.0
H234 H 0.51437 0.75915 0.87964 0.0
H235 H 0.57226 0.77407 0.8975 0.0
O236 O 0.5466 0.82567 0.84441 0.0
O237 O 0.52476 0.8048 0.87388 0.0
O238 O 0.54104 0.78314 0.84338 0.0
O239 O 0.56725 0.80982 0.87612 0.0
H240 H 0.53664 0.85785 0.85372 0.0
H241 H 0.55217 0.82277 0.80735 0.0
H242 H 0.53409 0.88165 0.83114 0.0
H243 H 0.54923 0.84716 0.78551 0.0
H244 H 0.50682 0.79728 0.93376 0.0
H245 H 0.48996 0.8093 0.86636 0.0
H246 H 0.53064 0.79876 0.91069 0.0
H247 H 0.46695 0.80768 0.89013 0.0
H248 H 0.46877 0.82712 0.81734 0.0
H249 H 0.46022 0.76765 0.81782 0.0
H250 H 0.57785 0.88729 0.91366 0.0
H251 H 0.51848 0.87019 0.91422 0.0
H252 H 0.54977 0.75116 0.85148 0.0
H253 H 0.52917 0.78035 0.80586 0.0
H254 H 0.5465 0.72315 0.82743 0.0
H255 H 0.52631 0.7518 0.78255 0.0
H256 H 0.59954 0.80008 0.87131 0.0
H257 H 0.56692 0.82086 0.91343 0.0
H258 H 0.62516 0.80159 0.89778 0.0
H259 H 0.59316 0.822 0.93925 0.0
H260 H 0.62495 0.83039 0.82145 0.0
H261 H 0.61012 0.77069 0.82 0.0
H262 H 0.512 0.73186 0.89785 0.0
H263 H 0.57129 0.7472 0.91587 0.0
Li264 Li 0.52388 0.27127 0.17657 0.0
Li265 Li 0.54199 0.25765 0.2038 0.0
Li266 Li 0.51997 0.23557 0.17537 0.0
Li267 Li 0.50501 0.25482 0.2021 0.0
C268 C 0.55569 0.25699 0.16225 0.0
N269 N 0.5818 0.26103 0.13627 0.0
C270 C 0.57417 0.26548 0.16877 0.0
C271 C 0.55045 0.25063 0.14252 0.0
C272 C 0.58717 0.26738 0.1554 0.0
C273 C 0.56387 0.25277 0.12961 0.0
C274 C 0.53032 0.29294 0.21889 0.0
C275 C 0.53049 0.30787 0.25138 0.0
N276 N 0.53815 0.32446 0.24568 0.0
C277 C 0.53822 0.31011 0.21334 0.0
C278 C 0.52641 0.29176 0.23804 0.0
C279 C 0.54207 0.3259 0.22711 0.0
C280 C 0.5105 0.30169 0.1602 0.0
N281 N 0.52494 0.29243 0.16118 0.0
C282 C 0.54152 0.3138 0.14195 0.0
C283 C 0.54027 0.29825 0.15226 0.0
C284 C 0.52702 0.32394 0.14093 0.0
C285 C 0.51125 0.31749 0.15018 0.0
H286 H 0.49848 0.29701 0.16751 0.0
H287 H 0.55175 0.29103 0.15327 0.0
C288 C 0.57567 0.2451 0.21832 0.0
N289 N 0.56764 0.26042 0.21859 0.0
C290 C 0.59459 0.24651 0.2255 0.0
C291 C 0.59694 0.27941 0.23374 0.0
C292 C 0.57796 0.27739 0.22635 0.0
C293 C 0.60586 0.2639 0.23317 0.0
H294 H 0.56756 0.23174 0.21178 0.0
H295 H 0.57167 0.28958 0.22624 0.0
C296 C 0.48588 0.24869 0.15842 0.0
N297 N 0.4561 0.24347 0.12964 0.0
C298 C 0.46778 0.24257 0.16276 0.0
C299 C 0.48888 0.25212 0.13947 0.0
C300 C 0.4529 0.24002 0.148 0.0
C301 C 0.47362 0.24941 0.12511 0.0
C302 C 0.5204 0.22159 0.21681 0.0
C303 C 0.51307 0.20304 0.2095 0.0
C304 C 0.52715 0.22623 0.23652 0.0
C305 C 0.51262 0.18933 0.2221 0.0
C306 C 0.52644 0.21211 0.24865 0.0
N307 N 0.51927 0.19411 0.24125 0.0
C308 C 0.5354 0.20677 0.15536 0.0
C309 C 0.50265 0.20119 0.14851 0.0
C310 C 0.53624 0.19073 0.14291 0.0
N311 N 0.51882 0.2119 0.15791 0.0
C312 C 0.50285 0.18487 0.13601 0.0
C313 C 0.51985 0.17937 0.13284 0.0
H314 H 0.54814 0.21524 0.16298 0.0
H315 H 0.48954 0.20532 0.15058 0.0
C316 C 0.47662 0.27363 0.21741 0.0
N317 N 0.48171 0.25666 0.21539 0.0
C318 C 0.45975 0.27589 0.2246 0.0
C319 C 0.45328 0.24325 0.22797 0.0
C320 C 0.47032 0.2416 0.22069 0.0
C321 C 0.44743 0.26058 0.22993 0.0
H322 H 0.48549 0.28552 0.21294 0.0
H323 H 0.47422 0.22809 0.21892 0.0
O324 O 0.54281 0.25491 0.17514 0.0
O325 O 0.52597 0.27746 0.2055 0.0
O326 O 0.50053 0.25168 0.17279 0.0
O327 O 0.52138 0.23508 0.20459 0.0
H328 H 0.57843 0.27064 0.18394 0.0
H329 H 0.53616 0.24412 0.13725 0.0
H330 H 0.60152 0.27393 0.16024 0.0
H331 H 0.56005 0.24788 0.1143 0.0
H332 H 0.52751 0.30719 0.26625 0.0
H333 H 0.54129 0.31125 0.19855 0.0
H334 H 0.52021 0.27855 0.2425 0.0
H335 H 0.54814 0.3393 0.22301 0.0
H336 H 0.55383 0.31777 0.13483 0.0
H337 H 0.49975 0.3248 0.15013 0.0
H338 H 0.60043 0.23404 0.22426 0.0
H339 H 0.60455 0.29316 0.23968 0.0
H340 H 0.46525 0.23986 0.17737 0.0
H341 H 0.50283 0.25693 0.13593 0.0
H342 H 0.43881 0.23532 0.15115 0.0
H343 H 0.47569 0.25206 0.11038 0.0
H344 H 0.50786 0.19926 0.19424 0.0
H345 H 0.53295 0.24055 0.24233 0.0
H346 H 0.50702 0.1749 0.21664 0.0
H347 H 0.53165 0.21545 0.26394 0.0
H348 H 0.54971 0.18717 0.14146 0.0
H349 H 0.48977 0.17686 0.12861 0.0
H350 H 0.4562 0.28956 0.22534 0.0
H351 H 0.4448 0.2309 0.23201 0.0
Li352 Li 0.05999 0.80943 0.09766 0.0
Li353 Li 0.07928 0.79425 0.12436 0.0
Li354 Li 0.05708 0.7724 0.09585 0.0
Li355 Li 0.04346 0.79038 0.12312 0.0
C356 C 0.0931 0.79398 0.08278 0.0
N357 N 0.12037 0.79513 0.05812 0.0
C358 C 0.11171 0.80115 0.09 0.0
C359 C 0.0883 0.7874 0.06305 0.0
C360 C 0.12531 0.80162 0.07729 0.0
C361 C 0.10231 0.78811 0.05081 0.0
C362 C 0.06595 0.82841 0.14119 0.0
C363 C 0.06474 0.84093 0.17428 0.0
N364 N 0.07072 0.8584 0.16962 0.0
C365 C 0.07211 0.84646 0.13671 0.0
C366 C 0.06225 0.82556 0.1601 0.0
C367 C 0.07443 0.86145 0.15129 0.0
C368 C 0.04208 0.83966 0.08599 0.0
N369 N 0.05808 0.83295 0.08463 0.0
C370 C 0.0704 0.85992 0.06899 0.0
C371 C 0.07211 0.8428 0.07613 0.0
C372 C 0.05415 0.86745 0.07058 0.0
C373 C 0.03983 0.85668 0.07911 0.0
H374 H 0.031 0.83192 0.09279 0.0
H375 H 0.08489 0.83763 0.07523 0.0
C376 C 0.10761 0.7788 0.14538 0.0
N377 N 0.10304 0.79542 0.14185 0.0
C378 C 0.12363 0.77801 0.15793 0.0
C379 C 0.13077 0.8115 0.1627 0.0
C380 C 0.11437 0.81166 0.15027 0.0
C381 C 0.13561 0.79448 0.16692 0.0
H382 H 0.09873 0.76598 0.13848 0.0
H383 H 0.1107 0.82481 0.14741 0.0
C384 C 0.02184 0.78416 0.08078 0.0
N385 N 0.99034 0.77629 0.05394 0.0
C386 C 1.0047 0.77606 0.08626 0.0
C387 C 0.023 0.78825 0.06169 0.0
C388 C 0.98892 0.77221 0.07247 0.0
C389 C 1.0069 0.78414 0.04831 0.0
C390 C 0.05744 0.75851 0.13738 0.0
C391 C 0.04879 0.74009 0.1308 0.0
C392 C 0.06372 0.76365 0.15715 0.0
C393 C 0.04668 0.72705 0.14412 0.0
C394 C 0.06135 0.75019 0.17001 0.0
N395 N 0.05296 0.73232 0.16328 0.0
C396 C 0.06943 0.73873 0.08068 0.0
C397 C 0.03703 0.73647 0.07365 0.0
C398 C 0.06785 0.71979 0.0735 0.0
N399 N 0.05414 0.74678 0.08094 0.0
C400 C 0.03482 0.71746 0.0663 0.0
C401 C 0.0503 0.70851 0.06641 0.0
H402 H 0.08292 0.74684 0.08682 0.0
H403 H 0.02487 0.74276 0.07417 0.0
C404 C 0.01253 0.80363 0.13795 0.0
N405 N 0.02226 0.78956 0.13851 0.0
C406 C 0.99688 0.80354 0.14807 0.0
C407 C 1.00161 0.77472 0.15959 0.0
C408 C 0.01696 0.77519 0.14901 0.0
C409 C 0.99124 0.78897 0.15918 0.0
H410 H 0.01683 0.81489 0.12947 0.0
H411 H 0.02444 0.76389 0.14909 0.0
O412 O 0.07971 0.79301 0.09511 0.0
O413 O 0.06317 0.81366 0.12697 0.0
O414 O 0.03731 0.7885 0.0942 0.0
O415 O 0.05983 0.7714 0.12452 0.0
H416 H 0.11562 0.80624 0.10527 0.0
H417 H 0.07393 0.78172 0.05731 0.0
H418 H 0.13978 0.8071 0.08267 0.0
H419 H 0.09885 0.78303 0.0355 0.0
H420 H 0.06188 0.83898 0.18898 0.0
H421 H 0.07505 0.84887 0.12213 0.0
H422 H 0.05741 0.81165 0.16373 0.0
H423 H 0.07916 0.8755 0.14804 0.0
H424 H 0.08204 0.86745 0.0628 0.0
H425 H 0.02684 0.86131 0.08051 0.0
H426 H 0.12672 0.76452 0.16033 0.0
H427 H 0.13939 0.82462 0.16925 0.0
H428 H 1.00359 0.77286 0.10101 0.0
H429 H 0.03618 0.79459 0.05729 0.0
H430 H 0.97555 0.766 0.0765 0.0
H431 H 1.00756 0.78723 0.03348 0.0
H432 H 0.04372 0.7359 0.11559 0.0
H433 H 0.07035 0.77789 0.16247 0.0
H434 H 0.04004 0.71274 0.13922 0.0
H435 H 0.06618 0.75394 0.18534 0.0
H436 H 0.08031 0.71392 0.07432 0.0
H437 H 0.02096 0.70985 0.0608 0.0
H438 H 0.98937 0.81487 0.14736 0.0
H439 H 0.99765 0.76307 0.16771 0.0
Li440 Li 0.51158 0.78878 0.45358 0.0
Li441 Li 0.49012 0.76723 0.4252 0.0
Li442 Li 0.50932 0.752 0.45213 0.0
Li443 Li 0.52556 0.76989 0.42665 0.0
C444 C 0.47631 0.76992 0.46685 0.0
N445 N 0.44974 0.77296 0.49175 0.0
C446 C 0.45954 0.77485 0.46015 0.0
C447 C 0.4796 0.76652 0.48618 0.0
C448 C 0.44627 0.77631 0.47297 0.0
C449 C 0.46598 0.76816 0.49856 0.0
C450 C 0.5098 0.80204 0.41169 0.0
C451 C 0.51247 0.81025 0.37923 0.0
N452 N 0.51011 0.82775 0.38525 0.0
C453 C 0.50735 0.82007 0.41755 0.0
C454 C 0.51228 0.79702 0.39236 0.0
C455 C 0.50753 0.83286 0.40397 0.0
C456 C 0.53175 0.82592 0.47138 0.0
N457 N 0.51464 0.81451 0.46826 0.0
C458 C 0.50093 0.84047 0.47965 0.0
C459 C 0.4994 0.8215 0.4726 0.0
C460 C 0.51838 0.85299 0.48259 0.0
C461 C 0.53394 0.84494 0.47863 0.0
H462 H 0.54379 0.82043 0.46765 0.0
H463 H 0.48579 0.81254 0.46978 0.0
C464 C 0.45591 0.74968 0.3986 0.0
N465 N 0.46664 0.76601 0.40758 0.0
C466 C 0.43947 0.74961 0.38619 0.0
C467 C 0.44522 0.78305 0.39243 0.0
C468 C 0.46151 0.7825 0.4046 0.0
C469 C 0.43376 0.76648 0.38298 0.0
H470 H 0.46003 0.73664 0.40108 0.0
H471 H 0.47002 0.79538 0.41183 0.0
C472 C 0.54694 0.7747 0.46905 0.0
N473 N 0.5779 0.77815 0.49606 0.0
C474 C 0.56335 0.77008 0.46329 0.0
C475 C 0.54624 0.78108 0.48851 0.0
C476 C 0.57886 0.77191 0.47718 0.0
C477 C 0.56206 0.78273 0.50195 0.0
C478 C 0.50519 0.73295 0.40848 0.0
C479 C 0.51031 0.71638 0.41318 0.0
C480 C 0.49946 0.73481 0.38913 0.0
C481 C 0.50955 0.70188 0.39838 0.0
C482 C 0.49887 0.71997 0.37475 0.0
N483 N 0.50387 0.70395 0.37963 0.0
C484 C 0.49494 0.71562 0.46604 0.0
C485 C 0.52755 0.72519 0.47219 0.0
C486 C 0.49602 0.69835 0.47303 0.0
N487 N 0.51059 0.72874 0.46554 0.0
C488 C 0.52924 0.70816 0.47936 0.0
C489 C 0.51339 0.69413 0.4797 0.0
H490 H 0.48153 0.7183 0.46053 0.0
H491 H 0.54 0.73534 0.47141 0.0
C492 C 0.55561 0.78741 0.40697 0.0
N493 N 0.54659 0.77069 0.41126 0.0
C494 C 0.57086 0.78848 0.39619 0.0
C495 C 0.56772 0.75516 0.39473 0.0
C496 C 0.55245 0.75471 0.40542 0.0
C497 C 0.57718 0.77221 0.38985 0.0
H498 H 0.55104 0.80002 0.41203 0.0
H499 H 0.54536 0.74156 0.4092 0.0
O500 O 0.48915 0.76779 0.45434 0.0
O501 O 0.51018 0.78952 0.42493 0.0
O502 O 0.53174 0.77333 0.45561 0.0
O503 O 0.50521 0.74702 0.42286 0.0
H504 H 0.45676 0.77742 0.4452 0.0
H505 H 0.49248 0.76257 0.49151 0.0
H506 H 0.4332 0.78005 0.46797 0.0
H507 H 0.4683 0.76555 0.51357 0.0
H508 H 0.51452 0.80663 0.36425 0.0
H509 H 0.50531 0.82417 0.4324 0.0
H510 H 0.51423 0.78312 0.38762 0.0
H511 H 0.50567 0.84687 0.40832 0.0
H512 H 0.48816 0.8451 0.48204 0.0
H513 H 0.54791 0.85308 0.48073 0.0
H514 H 0.43113 0.73641 0.37947 0.0
H515 H 0.44173 0.79645 0.39032 0.0
H516 H 0.56411 0.76514 0.44827 0.0
H517 H 0.53363 0.78479 0.49313 0.0
H518 H 0.59167 0.76839 0.47294 0.0
H519 H 0.56175 0.78768 0.51707 0.0
H520 H 0.51477 0.71471 0.42809 0.0
H521 H 0.49538 0.74753 0.3853 0.0
H522 H 0.51343 0.68897 0.40181 0.0
H523 H 0.49438 0.72117 0.35971 0.0
H524 H 0.48325 0.68836 0.47311 0.0
H525 H 0.54304 0.70583 0.48395 0.0
H526 H 0.57781 0.802 0.39314 0.0
H527 H 0.57193 0.74221 0.39012 0.0
Li528 Li 0.55897 0.30936 0.5972 0.0
Li529 Li 0.57808 0.29438 0.62395 0.0
Li530 Li 0.55617 0.27227 0.59558 0.0
Li531 Li 0.54247 0.29046 0.62272 0.0
C532 C 0.59227 0.29391 0.58266 0.0
N533 N 0.61989 0.29499 0.55843 0.0
C534 C 0.61082 0.30117 0.59009 0.0
C535 C 0.58772 0.28721 0.56294 0.0
C536 C 0.62459 0.30159 0.5776 0.0
C537 C 0.60191 0.28788 0.55091 0.0
C538 C 0.56572 0.3285 0.64086 0.0
C539 C 0.56591 0.341 0.67426 0.0
N540 N 0.57181 0.35845 0.66951 0.0
C541 C 0.57189 0.34652 0.63632 0.0
C542 C 0.5628 0.32565 0.65997 0.0
C543 C 0.57486 0.36149 0.65101 0.0
C544 C 0.54271 0.34133 0.58907 0.0
N545 N 0.55701 0.33292 0.58433 0.0
C546 C 0.56747 0.35836 0.56577 0.0
C547 C 0.56928 0.34118 0.57275 0.0
C548 C 0.55308 0.36759 0.5709 0.0
C549 C 0.54056 0.35854 0.58266 0.0
H550 H 0.53304 0.33483 0.59829 0.0
H551 H 0.58075 0.33466 0.56913 0.0
C552 C 0.60699 0.27916 0.6439 0.0
N553 N 0.60168 0.29567 0.64139 0.0
C554 C 0.62313 0.27847 0.65626 0.0
C555 C 0.62861 0.31185 0.66326 0.0
C556 C 0.61222 0.31189 0.65081 0.0
C557 C 0.63435 0.29494 0.66631 0.0
H558 H 0.59861 0.26637 0.63628 0.0
H559 H 0.60791 0.32494 0.64877 0.0
C560 C 0.52093 0.284 0.58021 0.0
N561 N 0.48964 0.27613 0.5531 0.0
C562 C 0.5037 0.27604 0.58556 0.0
C563 C 0.5223 0.28796 0.5611 0.0
C564 C 0.48803 0.27218 0.57164 0.0
C565 C 0.50629 0.28386 0.54759 0.0
C566 C 0.55617 0.25876 0.63722 0.0
C567 C 0.54758 0.24032 0.63068 0.0
C568 C 0.56252 0.26395 0.65695 0.0
C569 C 0.54562 0.22729 0.64403 0.0
C570 C 0.56031 0.2505 0.66985 0.0
N571 N 0.55199 0.2326 0.66317 0.0
C572 C 0.56868 0.23799 0.58334 0.0
C573 C 0.5373 0.2366 0.57127 0.0
C574 C 0.56741 0.21907 0.57624 0.0
N575 N 0.55373 0.24648 0.581 0.0
C576 C 0.53545 0.21763 0.56386 0.0
C577 C 0.55054 0.20827 0.56647 0.0
H578 H 0.58156 0.24572 0.59142 0.0
H579 H 0.52536 0.24324 0.56969 0.0
C580 C 0.51592 0.30555 0.64437 0.0
N581 N 0.52143 0.28947 0.63824 0.0
C582 C 0.50056 0.30524 0.65494 0.0
C583 C 0.49648 0.27179 0.65251 0.0
C584 C 0.51203 0.27276 0.64217 0.0
C585 C 0.49045 0.28817 0.65907 0.0
H586 H 0.52333 0.3187 0.64086 0.0
H587 H 0.5164 0.26008 0.63703 0.0
O588 O 0.5787 0.29299 0.59477 0.0
O589 O 0.56205 0.31379 0.6265 0.0
O590 O 0.53631 0.28832 0.59375 0.0
O591 O 0.55878 0.27153 0.62426 0.0
H592 H 0.61453 0.30636 0.60536 0.0
H593 H 0.57341 0.28146 0.55703 0.0
H594 H 0.63902 0.30714 0.58314 0.0
H595 H 0.59863 0.28271 0.53561 0.0
H596 H 0.56358 0.33904 0.6891 0.0
H597 H 0.57431 0.34894 0.62161 0.0
H598 H 0.55798 0.31176 0.66368 0.0
H599 H 0.57956 0.37553 0.6477 0.0
H600 H 0.57763 0.36464 0.5569 0.0
H601 H 0.52908 0.36472 0.58692 0.0
H602 H 0.62689 0.26507 0.65767 0.0
H603 H 0.6365 0.32496 0.67068 0.0
H604 H 0.50242 0.27295 0.60031 0.0
H605 H 0.53556 0.2942 0.55679 0.0
H606 H 0.47458 0.26607 0.57558 0.0
H607 H 0.50711 0.28685 0.53274 0.0
H608 H 0.54248 0.23608 0.61548 0.0
H609 H 0.56921 0.27819 0.66221 0.0
H610 H 0.53905 0.21295 0.63916 0.0
H611 H 0.56525 0.25428 0.68515 0.0
H612 H 0.57949 0.21285 0.57912 0.0
H613 H 0.52215 0.21039 0.55627 0.0
H614 H 0.49637 0.31822 0.65943 0.0
H615 H 0.48929 0.2583 0.65543 0.0
Li616 Li 0.01071 0.2874 0.95341 0.0
Li617 Li 0.98889 0.26624 0.92493 0.0
Li618 Li 1.0084 0.25059 0.95184 0.0
Li619 Li 0.02465 0.26881 0.92631 0.0
C620 C 0.97565 0.26912 0.96689 0.0
N621 N 0.94979 0.27346 0.99229 0.0
C622 C 0.95905 0.27447 0.96039 0.0
C623 C 0.97915 0.26597 0.98628 0.0
C624 C 0.94614 0.27658 0.97346 0.0
C625 C 0.96588 0.26827 0.99892 0.0
C626 C 1.00964 0.30137 0.91203 0.0
C627 C 0.01419 0.31062 0.88028 0.0
N628 N 0.0112 0.32785 0.8864 0.0
C629 C 1.00657 0.31915 0.918 0.0
C630 C 0.01343 0.29701 0.89302 0.0
C631 C 1.00742 0.33235 0.90483 0.0
C632 C 0.03058 0.32508 0.96904 0.0
N633 N 0.01394 0.31306 0.96826 0.0
C634 C 1.00065 0.33829 0.98235 0.0
C635 C 0.99916 0.31939 0.97503 0.0
C636 C 0.01751 0.35121 0.98279 0.0
C637 C 0.03268 0.34408 0.97627 0.0
H638 H 0.04215 0.32011 0.96327 0.0
H639 H 0.98591 0.30995 0.97414 0.0
C640 C 0.95378 0.24937 0.89878 0.0
N641 N 0.96524 0.26551 0.90723 0.0
C642 C 0.9375 0.24967 0.88621 0.0
C643 C 0.94479 0.28312 0.89125 0.0
C644 C 0.96085 0.28218 0.90366 0.0
C645 C 0.93266 0.26676 0.88208 0.0
H646 H 0.95727 0.23615 0.90167 0.0
H647 H 0.96978 0.29494 0.9106 0.0
C648 C 0.04626 0.27385 0.9685 0.0
N649 N 0.07771 0.27836 0.99508 0.0
C650 C 0.0626 0.26912 0.96265 0.0
C651 C 0.04588 0.28086 0.98785 0.0
C652 C 0.07836 0.27152 0.97631 0.0
C653 C 0.06194 0.28302 1.00108 0.0
C654 C 1.00377 0.23174 0.90816 0.0
C655 C 0.00997 0.21566 0.91279 0.0
C656 C 0.99711 0.23314 0.88895 0.0
C657 C 1.00933 0.20114 0.89804 0.0
C658 C 0.99672 0.21832 0.87461 0.0
N659 N 1.00277 0.20276 0.87942 0.0
C660 C 0.995 0.21266 0.96295 0.0
C661 C 0.02639 0.22496 0.97478 0.0
C662 C 0.99641 0.19544 0.96992 0.0
N663 N 0.00991 0.22713 0.96523 0.0
C664 C 0.02841 0.20797 0.98194 0.0
C665 C 0.0134 0.19253 0.97942 0.0
H666 H 0.98198 0.21424 0.95521 0.0
H667 H 0.03833 0.23623 0.97641 0.0
C668 C 0.05867 0.2863 0.91271 0.0
N669 N 0.04596 0.27005 0.91098 0.0
C670 C 0.07443 0.28767 0.90262 0.0
C671 C 0.06384 0.25564 0.88893 0.0
C672 C 0.04837 0.25486 0.89936 0.0
C673 C 0.07727 0.27219 0.89045 0.0
H674 H 0.05665 0.29822 0.92208 0.0
H675 H 0.03846 0.24194 0.89827 0.0
O676 O 0.98816 0.26642 0.95416 0.0
O677 O 1.00921 0.28838 0.92484 0.0
O678 O 0.03079 0.27191 0.95528 0.0
O679 O 1.00405 0.24596 0.92243 0.0
H680 H 0.95613 0.27687 0.94539 0.0
H681 H 0.99192 0.26173 0.99147 0.0
H682 H 0.93319 0.28066 0.96863 0.0
H683 H 0.96836 0.26586 0.01397 0.0
H684 H 0.01718 0.30748 0.86552 0.0
H685 H 1.00345 0.32271 0.9326 0.0
H686 H 0.01583 0.28329 0.88819 0.0
H687 H 1.00507 0.34616 0.90925 0.0
H688 H 0.98854 0.34274 0.9874 0.0
H689 H 0.04594 0.35324 0.97596 0.0
H690 H 0.92899 0.23655 0.87958 0.0
H691 H 0.94183 0.29673 0.88921 0.0
H692 H 0.06309 0.26365 0.94772 0.0
H693 H 0.03333 0.28462 0.99256 0.0
H694 H 0.09112 0.26794 0.97199 0.0
H695 H 0.06188 0.28844 0.0161 0.0
H696 H 0.01529 0.21442 0.92757 0.0
H697 H 0.99233 0.24555 0.88516 0.0
H698 H 0.01406 0.1886 0.9014 0.0
H699 H 0.99159 0.21918 0.85966 0.0
H700 H 0.98413 0.1845 0.96773 0.0
H701 H 0.04195 0.20687 0.98882 0.0
H702 H 0.08419 0.30082 0.9042 0.0
H703 H 0.06541 0.2432 0.88008 0.0
Li704 Li 0.39809 0.01577 0.31371 0.0
Li705 Li 0.37078 0.99893 0.29339 0.0
Li706 Li 0.39605 0.01747 0.27956 0.0
Li707 Li 0.37465 0.03131 0.29922 0.0
C708 C 0.40841 0.98338 0.2957 0.0
N709 N 0.43248 0.95903 0.30073 0.0
C710 C 0.40159 0.96511 0.29916 0.0
C711 C 0.42744 0.98928 0.2948 0.0
C712 C 0.414 0.95302 0.30169 0.0
C713 C 0.43939 0.97675 0.29738 0.0
C714 C 0.36102 0.0143 0.33263 0.0
C715 C 0.33101 0.01588 0.34306 0.0
N716 N 0.33776 0.01379 0.36148 0.0
C717 C 0.36768 0.0122 0.35166 0.0
C718 C 0.34253 0.01612 0.32823 0.0
C719 C 0.35569 0.01195 0.36604 0.0
C720 C 0.4188 0.03506 0.34493 0.0
N721 N 0.41377 0.01747 0.33568 0.0
C722 C 0.43174 1.00559 0.3598 0.0
C723 C 0.41954 1.0027 0.34281 0.0
C724 C 0.4377 0.02377 0.36913 0.0
C725 C 0.43112 0.03863 0.36177 0.0
H726 H 0.41316 0.04627 0.33921 0.0
H727 H 0.41458 0.9888 0.33546 0.0
C728 C 0.35153 0.96814 0.27197 0.0
N729 N 0.35371 0.97767 0.28996 0.0
C730 C 0.34003 0.95089 0.26827 0.0
C731 C 0.33371 0.95343 0.30198 0.0
C732 C 0.34503 0.97096 0.30489 0.0
C733 C 0.33175 0.94319 0.28363 0.0
H734 H 0.35937 0.97365 0.26078 0.0
H735 H 0.34776 0.9786 0.31924 0.0
C736 C 0.41613 0.05291 0.30055 0.0
N737 N 0.44498 0.08306 0.30191 0.0
C738 C 0.41237 0.0703 0.29696 0.0
C739 C 0.43456 0.05079 0.30469 0.0
C740 C 0.42715 0.08537 0.2977 0.0
C741 C 0.44895 0.06624 0.30538 0.0
C742 C 0.35699 0.0099 0.25697 0.0
C743 C 0.36332 0.01055 0.23869 0.0
C744 C 0.33808 1.00331 0.25814 0.0
C745 C 0.3507 1.00456 0.22192 0.0
C746 C 0.32592 0.99732 0.24102 0.0
N747 N 0.33242 0.9981 0.22341 0.0
C748 C 0.41376 1.00315 0.25028 0.0
C749 C 0.41588 0.03598 0.25321 0.0
C750 C 0.4244 1.0039 0.23487 0.0
N751 N 0.40999 0.0191 0.25914 0.0
C752 C 0.42644 0.03738 0.23778 0.0
C753 C 0.43077 0.0212 0.22859 0.0
H754 H 0.40839 0.9899 0.25513 0.0
H755 H 0.41219 0.04828 0.26029 0.0
C756 C 0.3675 0.06446 0.31686 0.0
N757 N 0.36189 0.04985 0.30274 0.0
C758 C 0.3583 0.07939 0.31706 0.0
C759 C 0.33704 0.06272 0.28935 0.0
C760 C 0.34672 0.04841 0.28957 0.0
C761 C 0.34342 0.07872 0.30261 0.0
H762 H 0.37963 0.06489 0.32719 0.0
H763 H 0.34262 0.03652 0.27874 0.0
O764 O 0.39636 0.9952 0.29262 0.0
O765 O 0.3724 0.0137 0.31829 0.0
O766 O 0.40174 0.03828 0.3008 0.0
O767 O 0.36912 0.01656 0.27349 0.0
H768 H 0.38687 0.96032 0.29982 0.0
H769 H 0.4329 1.00336 0.29205 0.0
H770 H 0.40893 0.93883 0.30435 0.0
H771 H 0.45415 0.98109 0.29666 0.0
H772 H 0.31665 0.01724 0.33989 0.0
H773 H 0.38188 0.01052 0.35525 0.0
H774 H 0.33709 0.01743 0.3135 0.0
H775 H 0.36062 0.0102 0.38081 0.0
H776 H 0.43657 0.99391 0.36553 0.0
H777 H 0.43526 0.05271 0.3691 0.0
H778 H 0.33886 0.94296 0.25407 0.0
H779 H 0.32784 0.94742 0.31416 0.0
H780 H 0.39818 0.07213 0.29366 0.0
H781 H 0.43768 0.03743 0.3076 0.0
H782 H 0.42444 0.09892 0.295 0.0
H783 H 0.46328 0.06488 0.30875 0.0
H784 H 0.37776 0.01596 0.23738 0.0
H785 H 0.33287 1.00276 0.27214 0.0
H786 H 0.35544 1.00514 0.2077 0.0
H787 H 0.31129 0.99212 0.24173 0.0
H788 H 0.42739 0.99118 0.22776 0.0
H789 H 0.43125 0.05088 0.23312 0.0
H790 H 0.36349 0.09172 0.32738 0.0
H791 H 0.3255 0.06186 0.27811 0.0
Li792 Li 0.27438 0.1893 0.53277 0.0
Li793 Li 0.2872 0.16407 0.51347 0.0
Li794 Li 0.27244 0.18748 0.49568 0.0
Li795 Li 0.25226 0.16163 0.5109 0.0
C796 C 0.31071 0.20485 0.51807 0.0
N797 N 0.34314 0.23132 0.52191 0.0
C798 C 0.32776 0.20021 0.52424 0.0
C799 C 0.31011 0.22293 0.51387 0.0
C800 C 0.34401 0.21379 0.52609 0.0
C801 C 0.32668 0.23613 0.51591 0.0
C802 C 0.2713 0.14997 0.54794 0.0
C803 C 0.26563 0.11888 0.55715 0.0
N804 N 0.27377 0.12569 0.57551 0.0
C805 C 0.27959 0.15669 0.56688 0.0
C806 C 0.26422 0.13094 0.54298 0.0
C807 C 0.2807 0.14418 0.58062 0.0
C808 C 0.2604 0.2043 0.56592 0.0
N809 N 0.27653 0.20446 0.55788 0.0
C810 C 0.29394 0.22224 0.58696 0.0
C811 C 0.29315 0.21338 0.56791 0.0
C812 C 0.27749 0.22183 0.5959 0.0
C813 C 0.26055 0.21294 0.58483 0.0
H814 H 0.24737 0.19702 0.55777 0.0
H815 H 0.30588 0.21315 0.5614 0.0
C816 C 0.31698 0.15042 0.49769 0.0
N817 N 0.30712 0.1503 0.51327 0.0
C818 C 0.33192 0.14104 0.49717 0.0
C819 C 0.32613 0.13138 0.52856 0.0
C820 C 0.31155 0.14115 0.52862 0.0
C821 C 0.33656 0.13124 0.51272 0.0
H822 H 0.3133 0.15794 0.48572 0.0
H823 H 0.30397 0.14154 0.54108 0.0
C824 C 0.24022 0.20071 0.51081 0.0
N825 N 0.21529 0.22429 0.50677 0.0
C826 C 0.22189 0.19365 0.5025 0.0
C827 C 0.24593 0.21972 0.51707 0.0
C828 C 0.20948 0.20581 0.50059 0.0
C829 C 0.2331 0.23143 0.51489 0.0
C830 C 0.26609 0.14681 0.47392 0.0
C831 C 0.26115 0.15157 0.45541 0.0
C832 C 0.26888 0.12879 0.47604 0.0
C833 C 0.25912 0.13818 0.43924 0.0
C834 C 0.26672 0.1158 0.45949 0.0
N835 N 0.26194 0.12073 0.4416 0.0
C836 C 0.29005 0.20113 0.46397 0.0
C837 C 0.26065 0.20947 0.46572 0.0
C838 C 0.29207 0.20945 0.44679 0.0
N839 N 0.27448 0.20115 0.47304 0.0
C840 C 0.26215 0.21804 0.44861 0.0
C841 C 0.27795 0.218 0.43867 0.0
H842 H 0.30078 0.19425 0.46988 0.0
H843 H 0.24829 0.20923 0.47296 0.0
C844 C 0.22058 0.1446 0.52683 0.0
N845 N 0.22838 0.14488 0.50991 0.0
C846 C 0.20342 0.13297 0.52776 0.0
C847 C 0.20246 0.12191 0.49378 0.0
C848 C 0.21966 0.13387 0.49349 0.0
C849 C 0.194 0.12125 0.51112 0.0
H850 H 0.22772 0.15352 0.53969 0.0
H851 H 0.22607 0.13429 0.48015 0.0
O852 O 0.29477 0.19159 0.51561 0.0
O853 O 0.27025 0.16201 0.5343 0.0
O854 O 0.25237 0.18895 0.51323 0.0
O855 O 0.26864 0.15991 0.48981 0.0
H856 H 0.32844 0.18625 0.52752 0.0
H857 H 0.297 0.22668 0.50898 0.0
H858 H 0.35732 0.21039 0.53081 0.0
H859 H 0.32646 0.25018 0.51266 0.0
H860 H 0.26028 0.10409 0.55354 0.0
H861 H 0.2852 0.17138 0.5709 0.0
H862 H 0.25784 0.12555 0.52834 0.0
H863 H 0.28711 0.14916 0.59533 0.0
H864 H 0.30737 0.22873 0.59484 0.0
H865 H 0.24744 0.21246 0.59078 0.0
H866 H 0.33962 0.14129 0.48468 0.0
H867 H 0.32946 0.1243 0.54101 0.0
H868 H 0.2173 0.17892 0.49767 0.0
H869 H 0.26009 0.22532 0.5236 0.0
H870 H 0.19523 0.20055 0.49423 0.0
H871 H 0.23727 0.24619 0.51968 0.0
H872 H 0.25892 0.16546 0.45353 0.0
H873 H 0.27276 0.12493 0.49029 0.0
H874 H 0.25534 0.14168 0.42481 0.0
H875 H 0.26888 0.1018 0.46087 0.0
H876 H 0.30439 0.20867 0.43968 0.0
H877 H 0.25095 0.22463 0.44325 0.0
H878 H 0.19751 0.13344 0.5414 0.0
H879 H 0.19603 0.1131 0.48057 0.0
Li880 Li 0.15334 0.06172 0.78837 0.0
Li881 Li 0.12733 0.04156 0.80306 0.0
Li882 Li 0.15091 0.02693 0.78565 0.0
Li883 Li 0.12578 0.03978 0.76588 0.0
C884 C 0.16789 0.04843 0.82542 0.0
N885 N 0.19383 0.05338 0.85801 0.0
C886 C 0.16276 0.05281 0.84388 0.0
C887 C 0.18625 0.04669 0.82349 0.0
C888 C 0.17607 0.05527 0.86018 0.0
C889 C 0.19915 0.04919 0.84017 0.0
C890 C 0.1142 0.07371 0.78843 0.0
C891 C 0.0834 0.08069 0.78493 0.0
N892 N 0.09053 0.09843 0.79324 0.0
C893 C 0.12125 0.09197 0.79695 0.0
C894 C 0.09516 0.06797 0.78234 0.0
C895 C 0.10904 0.10427 0.79926 0.0
C896 C 0.17095 0.09321 0.77279 0.0
N897 N 0.17 0.08563 0.78981 0.0
C898 C 0.1915 0.11231 0.80667 0.0
C899 C 0.18007 0.09474 0.80661 0.0
C900 C 0.19261 0.12064 0.78929 0.0
C901 C 0.18221 0.11063 0.77217 0.0
H902 H 0.16287 0.08568 0.75961 0.0
H903 H 0.17908 0.08852 0.82002 0.0
C904 C 0.11095 0.02284 0.83287 0.0
N905 N 0.11346 0.0395 0.82556 0.0
C906 C 0.10255 0.02062 0.84996 0.0
C907 C 0.09947 0.0528 0.85198 0.0
C908 C 0.10778 0.05434 0.8347 0.0
C909 C 0.09685 0.03578 0.86008 0.0
H910 H 0.11576 0.01126 0.82556 0.0
H911 H 0.11019 0.06759 0.82894 0.0
C912 C 0.16538 0.04221 0.7515 0.0
N913 N 0.18979 0.0394 0.72415 0.0
C914 C 0.15868 0.03417 0.73247 0.0
C915 C 0.18446 0.04881 0.75667 0.0
C916 C 0.17126 0.03286 0.71885 0.0
C917 C 0.19659 0.04727 0.7426 0.0
C918 C 0.10992 1.00349 0.78085 0.0
C919 C 0.11447 0.98618 0.77568 0.0
C920 C 0.09174 1.00451 0.78434 0.0
C921 C 0.10069 0.9701 0.77408 0.0
C922 C 0.07837 0.9881 0.78265 0.0
N923 N 0.08308 0.97138 0.7776 0.0
C924 C 0.17017 1.00084 0.80265 0.0
C925 C 0.16818 0.99899 0.76828 0.0
C926 C 0.17959 0.9859 0.80264 0.0
N927 N 0.16473 1.0071 0.78561 0.0
C928 C 0.17741 0.98399 0.76759 0.0
C929 C 0.18317 0.97716 0.78491 0.0
H930 H 0.16693 1.00723 0.81623 0.0
H931 H 0.16342 1.0039 0.7549 0.0
C932 C 0.11189 0.05333 0.73142 0.0
N933 N 0.11078 0.03763 0.74045 0.0
C934 C 0.10298 0.05276 0.71248 0.0
C935 C 0.0916 0.01986 0.71232 0.0
C936 C 0.10076 0.02106 0.73131 0.0
C937 C 0.09272 0.03584 0.70244 0.0
H938 H 0.12012 0.06631 0.73879 0.0
H939 H 0.10015 0.00866 0.73858 0.0
O940 O 0.15483 0.04529 0.80942 0.0
O941 O 0.12601 0.06169 0.78552 0.0
O942 O 0.15321 0.04394 0.76486 0.0
O943 O 0.12335 0.01929 0.78296 0.0
H944 H 0.14862 0.05423 0.84563 0.0
H945 H 0.19041 0.04324 0.8093 0.0
H946 H 0.17227 0.0586 0.87456 0.0
H947 H 0.21337 0.04774 0.83894 0.0
H948 H 0.06862 0.07649 0.78027 0.0
H949 H 0.13601 0.09659 0.80164 0.0
H950 H 0.08958 0.05387 0.77562 0.0
H951 H 0.11429 0.11848 0.80578 0.0
H952 H 0.19906 0.11942 0.8203 0.0
H953 H 0.1828 0.1161 0.75831 0.0
H954 H 0.10063 1.00708 0.85514 0.0
H955 H 0.09571 0.06506 0.85917 0.0
H956 H 0.14394 0.02898 0.72827 0.0
H957 H 0.18982 0.05512 0.77135 0.0
H958 H 0.16628 0.02668 0.70406 0.0
H959 H 0.2114 0.05236 0.74635 0.0
H960 H 0.1285 0.98515 0.77297 0.0
H961 H 0.08806 0.01783 0.78846 0.0
H962 H 0.10402 0.9566 0.7701 0.0
H963 H 0.06425 0.98864 0.7854 0.0
H964 H 0.18354 0.98092 0.8163 0.0
H965 H 0.17997 0.97775 0.7536 0.0
H966 H 0.10465 0.06544 0.70559 0.0
H967 H 0.08375 1.0065 0.70546 0.0
Li968 Li 0.27959 0.93851 1.00136 0.0
Li969 Li 0.29448 0.91641 0.01899 0.0
Li970 Li 0.31242 0.94231 0.00569 0.0
Li971 Li 0.29538 0.91563 0.98471 0.0
C972 C 0.30029 0.95625 0.04192 0.0
N973 N 0.31004 0.98285 0.07399 0.0
C974 C 0.30159 0.95087 0.06067 0.0
C975 C 0.30383 0.97515 0.03946 0.0
C976 C 0.30649 0.96453 0.0767 0.0
C977 C 0.30886 0.98839 0.05587 0.0
C978 C 0.25871 0.89665 0.99792 0.0
C979 C 0.24595 0.86374 0.99287 0.0
N980 N 0.22901 0.86735 0.99641 0.0
C981 C 0.24121 0.90007 1.00148 0.0
C982 C 0.26117 0.87838 0.99358 0.0
C983 C 0.22637 0.88505 1.00069 0.0
C984 C 0.25184 0.95197 0.98168 0.0
N985 N 0.26071 0.95111 0.99951 0.0
C986 C 0.24246 0.97012 0.01505 0.0
C987 C 0.25643 0.95983 0.01606 0.0
C988 C 0.23285 0.97116 0.99684 0.0
C989 C 0.23763 0.96201 0.97998 0.0
H990 H 0.2558 0.94478 0.96889 0.0
H991 H 0.26369 0.95858 0.02999 0.0
C992 C 0.30984 0.89957 0.04827 0.0
N993 N 0.29355 0.9023 0.03914 0.0
C994 C 0.30967 0.88953 0.06414 0.0
C995 C 0.27599 0.8856 0.06081 0.0
C996 C 0.27683 0.8957 0.04501 0.0
C997 C 0.29256 0.88259 0.07061 0.0
H998 H 0.32292 0.90549 0.04342 0.0
H999 H 0.26424 0.8987 0.03777 0.0
C1000 C 0.29911 0.95365 0.9677 0.0
N1001 N 0.30501 0.97779 0.93993 0.0
C1002 C 0.30388 0.94738 0.9496 0.0
C1003 C 0.29728 0.97217 0.9717 0.0
C1004 C 0.30682 0.9598 0.93575 0.0
C1005 C 0.30034 0.98417 0.95745 0.0
C1006 C 0.32884 0.9054 0.00329 0.0
C1007 C 0.34728 0.91292 1.00103 0.0
C1008 C 0.32344 0.88626 0.00396 0.0
C1009 C 0.36006 0.90111 0.99945 0.0
C1010 C 0.33665 0.87492 0.00236 0.0
N1011 N 0.35453 0.88252 1.00015 0.0
C1012 C 0.34236 0.96303 0.02814 0.0
C1013 C 0.34173 0.96617 0.99438 0.0
C1014 C 0.35964 0.97456 0.03205 0.0
N1015 N 0.33383 0.95929 0.00963 0.0
C1016 C 0.35926 0.97739 0.99752 0.0
C1017 C 0.36848 0.98126 0.01652 0.0
H1018 H 0.33614 0.95638 0.03971 0.0
H1019 H 0.33502 0.96206 0.97971 0.0
C1020 C 0.27677 0.89569 0.95206 0.0
N1021 N 0.29392 0.90037 0.96239 0.0
C1022 C 0.27399 0.88346 0.93514 0.0
C1023 C 0.30671 0.88153 0.93988 0.0
C1024 C 0.30892 0.89404 0.95654 0.0
C1025 C 0.28906 0.87617 0.92924 0.0
H1026 H 0.26532 0.90141 0.95712 0.0
H1027 H 0.3225 0.89868 0.9647 0.0
O1028 O 0.29551 0.94297 0.02613 0.0
O1029 O 0.2732 0.91126 0.99824 0.0
O1030 O 0.29628 0.94165 0.9814 0.0
O1031 O 0.31626 0.91685 0.00511 0.0
H1032 H 0.29877 0.9363 0.06284 0.0
H1033 H 0.30291 0.9795 0.02502 0.0
H1034 H 0.30748 0.96057 0.09129 0.0
H1035 H 0.31183 1.00307 0.05421 0.0
H1036 H 0.24758 0.8495 0.98946 0.0
H1037 H 0.23913 0.91418 0.00481 0.0
H1038 H 0.27464 0.87556 0.99069 0.0
H1039 H 0.21273 0.88748 0.00343 0.0
H1040 H 0.23877 0.97661 0.0284 0.0
H1041 H 0.23034 0.96248 0.96577 0.0
H1042 H 0.32271 0.88737 0.07136 0.0
H1043 H 0.2626 0.88073 0.06569 0.0
H1044 H 0.3054 0.93309 0.94629 0.0
H1045 H 0.29362 0.97722 0.98567 0.0
H1046 H 0.31055 0.95514 0.92169 0.0
H1047 H 0.29902 0.99856 0.96033 0.0
H1048 H 0.35168 0.92771 1.00051 0.0
H1049 H 0.30922 0.88026 0.00573 0.0
H1050 H 0.37438 0.90672 0.99769 0.0
H1051 H 0.3327 0.86009 0.00288 0.0
H1052 H 0.36646 0.97729 0.04687 0.0
H1053 H 0.36597 0.98188 0.98514 0.0
H1054 H 0.26026 0.87951 0.92694 0.0
H1055 H 0.31859 0.87624 0.93523 0.0
Li1056 Li 0.28086 0.39628 0.0368 0.0
Li1057 Li 0.29483 0.37278 0.05408 0.0
Li1058 Li 0.31547 0.39881 0.03845 0.0
Li1059 Li 0.29383 0.37116 0.01684 0.0
C1060 C 0.29935 0.4135 0.07547 0.0
N1061 N 0.29922 0.43968 0.10676 0.0
C1062 C 0.29287 0.40791 0.09261 0.0
C1063 C 0.30576 0.43239 0.07421 0.0
C1064 C 0.29291 0.42136 0.10827 0.0
C1065 C 0.30558 0.44542 0.09021 0.0
C1066 C 0.25709 0.35578 0.03345 0.0
C1067 C 0.24013 0.3241 0.02706 0.0
N1068 N 0.22481 0.32974 0.03314 0.0
C1069 C 0.2412 0.36129 0.03963 0.0
C1070 C 0.2566 0.33707 0.02709 0.0
C1071 C 0.22501 0.3479 0.03938 0.0
C1072 C 0.2529 0.4127 0.01878 0.0
N1073 N 0.26111 0.41008 0.03641 0.0
C1074 C 0.23978 0.42533 0.05261 0.0
C1075 C 0.25488 0.4162 0.05319 0.0
C1076 C 0.23092 0.42818 0.03458 0.0
C1077 C 0.23787 0.42187 0.01752 0.0
H1078 H 0.25791 0.40746 0.00563 0.0
H1079 H 0.26129 0.41358 0.06703 0.0
C1080 C 0.30919 0.35868 0.08842 0.0
N1081 N 0.29326 0.35895 0.07677 0.0
C1082 C 0.30851 0.35043 0.1058 0.0
C1083 C 0.27506 0.34265 0.09893 0.0
C1084 C 0.27638 0.35107 0.08172 0.0
C1085 C 0.29124 0.34236 0.11146 0.0
H1086 H 0.32247 0.36519 0.0844 0.0
H1087 H 0.26381 0.35174 0.07263 0.0
C1088 C 0.2979 0.41096 1.00215 0.0
N1089 N 0.29889 0.436 0.97498 0.0
C1090 C 0.29921 0.40512 0.98267 0.0
C1091 C 0.29718 0.42954 0.00785 0.0
C1092 C 0.29972 0.418 0.96916 0.0
C1093 C 0.29763 0.44198 0.99387 0.0
C1094 C 0.32753 0.35961 0.03621 0.0
C1095 C 0.34575 0.36613 0.03248 0.0
C1096 C 0.32198 0.34106 0.03939 0.0
C1097 C 0.35819 0.35391 0.03197 0.0
C1098 C 0.33485 0.32927 0.03879 0.0
N1099 N 0.35253 0.33589 0.03513 0.0
C1100 C 0.34968 0.42317 0.05688 0.0
C1101 C 0.34563 0.41924 0.02243 0.0
C1102 C 0.36717 0.4348 0.05714 0.0
N1103 N 0.33934 0.41558 0.03966 0.0
C1104 C 0.36294 0.43076 0.02201 0.0
C1105 C 0.37415 0.43862 0.0395 0.0
H1106 H 0.34446 0.42003 0.07043 0.0
H1107 H 0.33728 0.41301 0.00892 0.0
C1108 C 0.27457 0.35056 0.98043 0.0
N1109 N 0.29142 0.35596 0.99156 0.0
C1110 C 0.27326 0.34161 0.96135 0.0
C1111 C 0.30657 0.34388 0.96545 0.0
C1112 C 0.30723 0.35255 0.98448 0.0
C1113 C 0.28946 0.33845 0.9535 0.0
H1114 H 0.2622 0.35372 0.98613 0.0
H1115 H 0.32051 0.35716 0.99336 0.0
O1116 O 0.29996 0.40046 0.06025 0.0
O1117 O 0.27295 0.36873 0.03329 0.0
O1118 O 0.29698 0.39839 0.01542 0.0
O1119 O 0.31536 0.3715 0.03724 0.0
H1120 H 0.28789 0.39334 0.09384 0.0
H1121 H 0.31091 0.43692 0.06106 0.0
H1122 H 0.28796 0.41722 0.12164 0.0
H1123 H 0.31055 0.46009 0.08949 0.0
H1124 H 0.23951 0.30956 0.02216 0.0
H1125 H 0.24135 0.37572 0.04459 0.0
H1126 H 0.26879 0.33265 0.02221 0.0
H1127 H 0.2126 0.35194 0.04412 0.0
H1128 H 0.23479 0.42963 0.06614 0.0
H1129 H 0.23177 0.42395 0.00328 0.0
H1130 H 0.32144 0.35044 0.1147 0.0
H1131 H 0.26138 0.33697 0.10264 0.0
H1132 H 0.29981 0.3908 0.97803 0.0
H1133 H 0.2961 0.43423 0.02288 0.0
H1134 H 0.30074 0.41367 0.95404 0.0
H1135 H 0.29694 0.45638 0.99801 0.0
H1136 H 0.35025 0.38049 0.03006 0.0
H1137 H 0.30791 0.33589 0.0424 0.0
H1138 H 0.37236 0.35876 0.02912 0.0
H1139 H 0.33079 0.31488 0.04127 0.0
H1140 H 0.37529 0.44037 0.071 0.0
H1141 H 0.36746 0.4335 0.00805 0.0
H1142 H 0.25983 0.33788 0.95255 0.0
H1143 H 0.31938 0.34171 0.95998 0.0
Li1144 Li 0.77191 0.14602 0.06518 0.0
Li1145 Li 0.78735 0.12336 0.04942 0.0
Li1146 Li 0.77227 0.14468 0.03093 0.0
Li1147 Li 0.75433 0.1188 0.04457 0.0
C1148 C 0.80842 0.16468 0.05149 0.0
N1149 N 0.83837 0.19386 0.05375 0.0
C1150 C 0.82652 0.16177 0.05599 0.0
C1151 C 0.80549 0.1824 0.04816 0.0
C1152 C 0.84149 0.17672 0.0571 0.0
C1153 C 0.82085 0.19698 0.04931 0.0
C1154 C 0.76932 0.10805 0.08278 0.0
C1155 C 0.7634 0.07687 0.09176 0.0
N1156 N 0.76706 0.08394 0.11088 0.0
C1157 C 0.77305 0.11502 0.1025 0.0
C1158 C 0.76453 0.08883 0.07731 0.0
C1159 C 0.77185 0.1026 0.11649 0.0
C1160 C 0.75737 0.16131 0.09591 0.0
N1161 N 0.77308 0.16107 0.08729 0.0
C1162 C 0.79142 0.18307 0.11199 0.0
C1163 C 0.78996 0.17121 0.09504 0.0
C1164 C 0.77538 0.18389 0.12089 0.0
C1165 C 0.75821 0.17284 0.11307 0.0
H1166 H 0.74432 0.15256 0.08941 0.0
H1167 H 0.80226 0.16996 0.08821 0.0
C1168 C 0.81396 0.10919 0.0341 0.0
N1169 N 0.80638 0.11131 0.05092 0.0
C1170 C 0.82729 0.0983 0.03272 0.0
C1171 C 0.82504 0.09262 0.06633 0.0
C1172 C 0.81176 0.10375 0.06705 0.0
C1173 C 0.83259 0.08958 0.04886 0.0
H1174 H 0.8093 0.1157 0.02171 0.0
H1175 H 0.80555 0.10607 0.08027 0.0
C1176 C 0.73767 0.15549 0.04719 0.0
N1177 N 0.71147 0.1779 0.04946 0.0
C1178 C 0.71874 0.1478 0.04229 0.0
C1179 C 0.7433 0.17456 0.05329 0.0
C1180 C 0.70571 0.15938 0.04348 0.0
C1181 C 0.72982 0.18565 0.05438 0.0
C1182 C 0.76733 0.10513 0.00844 0.0
C1183 C 0.76005 0.11001 0.99074 0.0
C1184 C 0.76981 0.08688 0.00972 0.0
C1185 C 0.75521 0.09646 0.9746 0.0
C1186 C 0.7648 0.07373 0.99323 0.0
N1187 N 0.75766 0.07875 0.97618 0.0
C1188 C 0.78854 0.15857 1.00026 0.0
C1189 C 0.76042 0.16838 0.00649 0.0
C1190 C 0.78997 0.16884 0.98455 0.0
N1191 N 0.77388 0.15854 0.01066 0.0
C1192 C 0.76143 0.17904 0.99121 0.0
C1193 C 0.77619 0.1791 0.97988 0.0
H1194 H 0.7989 0.15041 0.00409 0.0
H1195 H 0.74883 0.16785 0.01484 0.0
C1196 C 0.72428 0.09943 0.05816 0.0
N1197 N 0.73317 0.10133 0.04207 0.0
C1198 C 0.70701 0.08772 0.05669 0.0
C1199 C 0.70921 0.07964 0.02242 0.0
C1200 C 0.72614 0.09172 0.02448 0.0
C1201 C 0.69923 0.07825 0.03844 0.0
H1202 H 0.73018 0.10772 0.07181 0.0
H1203 H 0.73298 0.0941 0.0118 0.0
O1204 O 0.79368 0.1503 0.05109 0.0
O1205 O 0.77014 0.12008 0.06896 0.0
O1206 O 0.75058 0.14441 0.04528 0.0
O1207 O 0.77165 0.11809 0.0245 0.0
H1208 H 0.82896 0.14816 0.05884 0.0
H1209 H 0.79153 0.18488 0.04483 0.0
H1210 H 0.85558 0.17469 0.0607 0.0
H1211 H 0.81884 0.21078 0.04675 0.0
H1212 H 0.7596 0.06196 0.08778 0.0
H1213 H 0.77686 0.12986 0.10696 0.0
H1214 H 0.76163 0.08324 0.06209 0.0
H1215 H 0.7747 0.1078 0.13181 0.0
H1216 H 0.80484 0.19136 0.11819 0.0
H1217 H 0.74574 0.17331 0.12004 0.0
H1218 H 0.83334 0.09669 0.01922 0.0
H1219 H 0.82909 0.08621 0.07904 0.0
H1220 H 0.71419 0.13309 0.03735 0.0
H1221 H 0.75792 0.18074 0.05696 0.0
H1222 H 0.69103 0.15364 0.03959 0.0
H1223 H 0.73395 0.20044 0.05905 0.0
H1224 H 0.75786 0.12403 0.98955 0.0
H1225 H 0.7753 0.08288 0.02337 0.0
H1226 H 0.74944 0.09999 0.96085 0.0
H1227 H 0.76653 0.05952 0.99402 0.0
H1228 H 0.80141 0.16845 0.97594 0.0
H1229 H 0.75069 0.18702 0.98819 0.0
H1230 H 0.69933 0.08714 0.0692 0.0
H1231 H 0.70335 0.07253 0.00814 0.0
Li1232 Li 0.19711 0.56331 0.25433 0.0
Li1233 Li 0.17182 0.54547 0.26901 0.0
Li1234 Li 0.19412 0.53055 0.25153 0.0
Li1235 Li 0.17001 0.5436 0.23422 0.0
C1236 C 0.21152 0.55151 0.29174 0.0
N1237 N 0.23744 0.55975 0.32446 0.0
C1238 C 0.20623 0.55736 0.30974 0.0
C1239 C 0.22997 0.54981 0.29036 0.0
C1240 C 0.21954 0.56144 0.32612 0.0
C1241 C 0.24288 0.55409 0.30708 0.0
C1242 C 0.15892 0.57788 0.25346 0.0
C1243 C 0.12787 0.58418 0.24871 0.0
N1244 N 0.13486 0.60261 0.25426 0.0
C1245 C 0.16581 0.59686 0.25908 0.0
C1246 C 0.13981 0.57144 0.24825 0.0
C1247 C 0.15341 0.60914 0.25943 0.0
C1248 C 0.2147 0.5932 0.23913 0.0
N1249 N 0.21402 0.58477 0.25562 0.0
C1250 C 0.23558 0.60982 0.27387 0.0
C1251 C 0.22433 0.59244 0.2727 0.0
C1252 C 0.23552 0.61932 0.25747 0.0
C1253 C 0.22551 0.61083 0.23973 0.0
H1254 H 0.20598 0.58668 0.22591 0.0
H1255 H 0.22291 0.58578 0.2857 0.0
C1256 C 0.15492 0.52711 0.29629 0.0
N1257 N 0.15777 0.54386 0.28934 0.0
C1258 C 0.1439 0.5242 0.31119 0.0
C1259 C 0.13947 0.55611 0.31174 0.0
C1260 C 0.15054 0.55836 0.29674 0.0
C1261 C 0.136 0.5388 0.31902 0.0
H1262 H 0.16114 0.516 0.29011 0.0
H1263 H 0.15344 0.57163 0.29113 0.0
C1264 C 0.20795 0.54699 0.21667 0.0
N1265 N 0.23159 0.54806 0.18817 0.0
C1266 C 0.20073 0.54204 0.1971 0.0
C1267 C 0.22717 0.55244 0.22179 0.0
C1268 C 0.21292 0.54264 0.18291 0.0
C1269 C 0.2389 0.55294 0.20713 0.0
C1270 C 0.15271 0.50802 0.24767 0.0
C1271 C 0.15613 0.49013 0.24304 0.0
C1272 C 0.13461 0.51047 0.24989 0.0
C1273 C 0.14132 0.47491 0.24066 0.0
C1274 C 0.12017 0.49487 0.24743 0.0
N1275 N 0.12379 0.47757 0.24289 0.0
C1276 C 0.21003 0.50433 0.26736 0.0
C1277 C 0.21172 0.50512 0.23341 0.0
C1278 C 0.21814 0.48876 0.26706 0.0
N1279 N 0.20688 0.51188 0.25064 0.0
C1280 C 0.22 0.48966 0.23247 0.0
C1281 C 0.22285 0.4813 0.24936 0.0
H1282 H 0.20557 0.51 0.28066 0.0
H1283 H 0.20842 0.51117 0.22031 0.0
C1284 C 0.15219 0.557 0.20438 0.0
N1285 N 0.15438 0.54111 0.21188 0.0
C1286 C 0.14008 0.55607 0.1876 0.0
C1287 C 0.13348 0.52237 0.18636 0.0
C1288 C 0.14571 0.52398 0.20319 0.0
C1289 C 0.13052 0.5386 0.17864 0.0
H1290 H 0.15982 0.57032 0.21151 0.0
H1291 H 0.14831 0.51162 0.20927 0.0
O1292 O 0.19866 0.54755 0.27558 0.0
O1293 O 0.17098 0.56581 0.25274 0.0
O1294 O 0.19614 0.54645 0.23068 0.0
O1295 O 0.16714 0.52298 0.25018 0.0
H1296 H 0.19201 0.55882 0.31103 0.0
H1297 H 0.23427 0.54539 0.27649 0.0
H1298 H 0.21564 0.56598 0.34014 0.0
H1299 H 0.25723 0.55292 0.30625 0.0
H1300 H 0.11305 0.57944 0.24463 0.0
H1301 H 0.18059 0.60204 0.26311 0.0
H1302 H 0.13429 0.55679 0.24377 0.0
H1303 H 0.15854 0.62387 0.26377 0.0
H1304 H 0.2427 0.61655 0.28788 0.0
H1305 H 0.2249 0.61831 0.22708 0.0
H1306 H 0.14148 0.51068 0.31643 0.0
H1307 H 0.13396 0.56782 0.31778 0.0
H1308 H 0.18588 0.5377 0.19292 0.0
H1309 H 0.23295 0.55626 0.23689 0.0
H1310 H 0.20753 0.5388 0.16771 0.0
H1311 H 0.25381 0.5572 0.21084 0.0
H1312 H 0.17009 0.48804 0.24129 0.0
H1313 H 0.13178 0.52424 0.25353 0.0
H1314 H 0.14375 0.46098 0.23705 0.0
H1315 H 0.10608 0.49651 0.24914 0.0
H1316 H 0.22004 0.48219 0.28021 0.0
H1317 H 0.22332 0.48378 0.21864 0.0
H1318 H 0.13824 0.56877 0.18162 0.0
H1319 H 0.12627 0.50871 0.1796 0.0
Li1320 Li 0.7803 0.8956 0.53751 0.0
Li1321 Li 0.79469 0.87231 0.5546 0.0
Li1322 Li 0.81477 0.89863 0.53923 0.0
Li1323 Li 0.79373 0.87102 0.51748 0.0
C1324 C 0.79908 0.91311 0.57619 0.0
N1325 N 0.79945 0.93963 0.60732 0.0
C1326 C 0.79309 0.90773 0.59362 0.0
C1327 C 0.80521 0.93197 0.57455 0.0
C1328 C 0.79337 0.92135 0.60918 0.0
C1329 C 0.80531 0.94517 0.59048 0.0
C1330 C 0.75682 0.8552 0.53341 0.0
C1331 C 0.7396 0.82368 0.52588 0.0
N1332 N 0.72435 0.82922 0.53226 0.0
C1333 C 0.74101 0.8606 0.53991 0.0
C1334 C 0.75616 0.83662 0.52632 0.0
C1335 C 0.72471 0.84725 0.53919 0.0
C1336 C 0.75137 0.91057 0.51964 0.0
N1337 N 0.76052 0.90913 0.53721 0.0
C1338 C 0.74105 0.92666 0.55358 0.0
C1339 C 0.75551 0.91671 0.55404 0.0
C1340 C 0.73151 0.92866 0.53562 0.0
C1341 C 0.73676 0.92031 0.51849 0.0
H1342 H 0.75541 0.9041 0.50649 0.0
H1343 H 0.76263 0.91501 0.56787 0.0
C1344 C 0.80865 0.86089 0.59048 0.0
N1345 N 0.79334 0.85847 0.57709 0.0
C1346 C 0.80774 0.85266 0.60784 0.0
C1347 C 0.77548 0.83915 0.59718 0.0
C1348 C 0.77696 0.84779 0.58017 0.0
C1349 C 0.79092 0.84166 0.61157 0.0
H1350 H 0.82147 0.86968 0.58794 0.0
H1351 H 0.76483 0.84617 0.56962 0.0
C1352 C 0.79721 0.91079 0.50298 0.0
N1353 N 0.79807 0.93588 0.47587 0.0
C1354 C 0.7993 0.90519 0.48365 0.0
C1355 C 0.79563 0.92915 0.50857 0.0
C1356 C 0.79972 0.91809 0.47017 0.0
C1357 C 0.79604 0.94162 0.49461 0.0
C1358 C 0.82752 0.85968 0.53651 0.0
C1359 C 0.84564 0.86633 0.53256 0.0
C1360 C 0.8221 0.84108 0.53956 0.0
C1361 C 0.85812 0.85417 0.53169 0.0
C1362 C 0.83501 0.82936 0.53858 0.0
N1363 N 0.85259 0.83609 0.5347 0.0
C1364 C 0.84798 0.92393 0.55798 0.0
C1365 C 0.84491 0.91886 0.52353 0.0
C1366 C 0.86528 0.93587 0.55841 0.0
N1367 N 0.83822 0.91568 0.54069 0.0
C1368 C 0.86216 0.93049 0.5233 0.0
C1369 C 0.87267 0.93907 0.54088 0.0
H1370 H 0.84245 0.92108 0.57146 0.0
H1371 H 0.83697 0.91207 0.50999 0.0
C1372 C 0.77445 0.85173 0.48104 0.0
N1373 N 0.79129 0.856 0.49221 0.0
C1374 C 0.7727 0.84278 0.46195 0.0
C1375 C 0.80555 0.84237 0.46622 0.0
C1376 C 0.80669 0.85142 0.48518 0.0
C1377 C 0.78843 0.8381 0.45414 0.0
H1378 H 0.7624 0.85569 0.48677 0.0
H1379 H 0.82003 0.85528 0.49406 0.0
O1380 O 0.79928 0.8999 0.56099 0.0
O1381 O 0.77284 0.86808 0.53383 0.0
O1382 O 0.79634 0.89817 0.5162 0.0
O1383 O 0.81529 0.87149 0.53786 0.0
H1384 H 0.78824 0.89319 0.5951 0.0
H1385 H 0.80989 0.93635 0.56115 0.0
H1386 H 0.78878 0.91739 0.62276 0.0
H1387 H 0.81008 0.95982 0.58947 0.0
H1388 H 0.73886 0.80924 0.52046 0.0
H1389 H 0.74131 0.87493 0.54548 0.0
H1390 H 0.76832 0.83227 0.52125 0.0
H1391 H 0.71235 0.85122 0.54416 0.0
H1392 H 0.73759 0.93292 0.56715 0.0
H1393 H 0.72956 0.92113 0.50434 0.0
H1394 H 0.82001 0.85542 0.61845 0.0
H1395 H 0.76226 0.83061 0.59897 0.0
H1396 H 0.80056 0.89103 0.47911 0.0
H1397 H 0.79395 0.93366 0.52347 0.0
H1398 H 0.80132 0.91395 0.45516 0.0
H1399 H 0.79472 0.95585 0.49867 0.0
H1400 H 0.85002 0.88074 0.53025 0.0
H1401 H 0.80811 0.83582 0.54273 0.0
H1402 H 0.87221 0.85911 0.52866 0.0
H1403 H 0.83106 0.81492 0.54094 0.0
H1404 H 0.87303 0.94211 0.57227 0.0
H1405 H 0.86729 0.93271 0.50947 0.0
H1406 H 0.75917 0.83967 0.45334 0.0
H1407 H 0.81813 0.83936 0.46085 0.0
Li1408 Li 0.94318 0.02069 0.28316 0.0
Li1409 Li 0.91543 0.99923 0.2614 0.0
Li1410 Li 0.94163 0.01962 0.2459 0.0
Li1411 Li 0.9183 0.03396 0.26301 0.0
C1412 C 0.95452 0.98683 0.26346 0.0
N1413 N 0.97815 0.96173 0.26401 0.0
C1414 C 0.948 0.96858 0.2671 0.0
C1415 C 0.97301 0.99237 0.26008 0.0
C1416 C 0.96018 0.95608 0.26734 0.0
C1417 C 0.98475 0.97944 0.26042 0.0
C1418 C 0.90334 0.0167 0.29764 0.0
C1419 C 0.87245 0.0174 0.30605 0.0
N1420 N 0.87836 0.01562 0.32483 0.0
C1421 C 0.90909 0.01481 0.31699 0.0
C1422 C 0.88486 0.01789 0.29205 0.0
C1423 C 0.89625 0.01428 0.33052 0.0
C1424 C 0.96094 0.0396 0.32052 0.0
N1425 N 0.95833 0.02328 0.30854 0.0
C1426 C 0.97345 0.00924 0.33384 0.0
C1427 C 0.96458 0.00829 0.31481 0.0
C1428 C 0.97595 0.02575 0.34661 0.0
C1429 C 0.96976 0.04114 0.33968 0.0
H1430 H 0.95563 0.05127 0.31542 0.0
H1431 H 0.96214 0.99534 0.30528 0.0
C1432 C 0.8905 0.96534 0.24283 0.0
N1433 N 0.8985 0.97539 0.26007 0.0
C1434 C 0.87881 0.94786 0.24251 0.0
C1435 C 0.88376 0.95145 0.27762 0.0
C1436 C 0.89523 0.96881 0.27727 0.0
C1437 C 0.87546 0.94057 0.2601 0.0
H1438 H 0.89336 0.97076 0.2293 0.0
H1439 H 0.90178 0.97695 0.2908 0.0
C1440 C 0.95881 0.05744 0.26671 0.0
N1441 N 0.98495 0.08967 0.26706 0.0
C1442 C 0.95348 0.07316 0.25985 0.0
C1443 C 0.9774 0.0581 0.27378 0.0
C1444 C 0.96691 0.08933 0.26016 0.0
C1445 C 0.99042 0.07453 0.2738 0.0
C1446 C 0.90095 0.01532 0.22435 0.0
C1447 C 0.90655 0.02177 0.20719 0.0
C1448 C 0.88207 0.00878 0.22554 0.0
C1449 C 0.89312 0.02151 0.19143 0.0
C1450 C 0.86907 0.00874 0.20944 0.0
N1451 N 0.87481 0.01503 0.19286 0.0
C1452 C 0.95277 1.00562 0.20984 0.0
C1453 C 0.96618 0.03724 0.22004 0.0
C1454 C 0.96089 1.00641 0.19241 0.0
N1455 N 0.9554 0.02093 0.22323 0.0
C1456 C 0.97473 0.0386 0.20295 0.0
C1457 C 0.97202 0.02313 0.18858 0.0
H1458 H 0.94392 0.99286 0.21245 0.0
H1459 H 0.96798 0.04939 0.23057 0.0
C1460 C 0.90128 0.06175 0.28059 0.0
N1461 N 0.90466 0.05384 0.26313 0.0
C1462 C 0.89147 0.07632 0.28148 0.0
C1463 C 0.88937 0.07491 0.24645 0.0
C1464 C 0.89907 0.06021 0.24622 0.0
C1465 C 0.88532 0.08305 0.26425 0.0
H1466 H 0.90627 0.05677 0.29386 0.0
H1467 H 0.90227 0.05402 0.23254 0.0
O1468 O 0.9427 0.99909 0.26282 0.0
O1469 O 0.91591 0.01782 0.28439 0.0
O1470 O 0.94586 0.04154 0.26665 0.0
O1471 O 0.91399 0.0148 0.23963 0.0
H1472 H 0.93369 0.9641 0.26968 0.0
H1473 H 0.97818 1.00646 0.25715 0.0
H1474 H 0.95535 0.9419 0.27014 0.0
H1475 H 0.9991 0.98349 0.2578 0.0
H1476 H 0.85814 0.01848 0.30201 0.0
H1477 H 0.92334 0.0138 0.32152 0.0
H1478 H 0.88023 0.01941 0.27712 0.0
H1479 H 0.90052 0.01285 0.34555 0.0
H1480 H 0.97787 0.99702 0.33871 0.0
H1481 H 0.97123 0.05405 0.34917 0.0
H1482 H 0.87285 0.93995 0.22864 0.0
H1483 H 0.8814 0.9466 0.29154 0.0
H1484 H 0.93916 0.07287 0.2543 0.0
H1485 H 0.9817 0.04602 0.27914 0.0
H1486 H 0.96299 0.10161 0.25491 0.0
H1487 H 1.00488 0.07525 0.27919 0.0
H1488 H 0.9211 0.0269 0.20604 0.0
H1489 H 0.87754 1.00368 0.23871 0.0
H1490 H 0.89725 0.02642 0.17804 0.0
H1491 H 0.85441 1.00364 0.21009 0.0
H1492 H 0.95797 0.99412 0.18184 0.0
H1493 H 0.98336 0.05175 0.20111 0.0
H1494 H 0.88893 0.08242 0.29554 0.0
H1495 H 0.88487 0.07967 0.23284 0.0
Li1496 Li 0.27273 0.6453 0.56464 0.0
Li1497 Li 0.28646 0.62173 0.5475 0.0
Li1498 Li 0.27145 0.64385 0.52976 0.0
Li1499 Li 0.25351 0.61828 0.54431 0.0
C1500 C 0.30846 0.66327 0.55103 0.0
N1501 N 0.33858 0.69248 0.55527 0.0
C1502 C 0.32637 0.66026 0.55643 0.0
C1503 C 0.3058 0.68109 0.54775 0.0
C1504 C 0.34143 0.67522 0.55854 0.0
C1505 C 0.32125 0.69569 0.54995 0.0
C1506 C 0.26934 0.60718 0.58187 0.0
C1507 C 0.2624 0.57612 0.59103 0.0
N1508 N 0.26642 0.58324 0.61011 0.0
C1509 C 0.27347 0.61419 0.60157 0.0
C1510 C 0.26387 0.58799 0.57651 0.0
C1511 C 0.27193 0.60186 0.61563 0.0
C1512 C 0.25852 0.66026 0.59546 0.0
N1513 N 0.27447 0.66044 0.5872 0.0
C1514 C 0.29195 0.68243 0.61258 0.0
C1515 C 0.29108 0.67085 0.59543 0.0
C1516 C 0.27556 0.68298 0.62108 0.0
C1517 C 0.25871 0.67165 0.61259 0.0
H1518 H 0.24569 0.65131 0.58864 0.0
H1519 H 0.30358 0.67016 0.58874 0.0
C1520 C 0.31116 0.60346 0.53179 0.0
N1521 N 0.30514 0.60902 0.54877 0.0
C1522 C 0.32527 0.59336 0.53198 0.0
C1523 C 0.32682 0.59543 0.56721 0.0
C1524 C 0.31253 0.60537 0.5663 0.0
C1525 C 0.33318 0.58934 0.54987 0.0
H1526 H 0.3051 0.60707 0.51821 0.0
H1527 H 0.3075 0.6104 0.5795 0.0
C1528 C 0.23795 0.65545 0.54682 0.0
N1529 N 0.2118 0.67796 0.54849 0.0
C1530 C 0.21909 0.64789 0.5412 0.0
C1531 C 0.24354 0.67446 0.55329 0.0
C1532 C 0.20608 0.65951 0.5421 0.0
C1533 C 0.23008 0.68559 0.55408 0.0
C1534 C 0.26509 0.60385 0.50728 0.0
C1535 C 0.2587 0.60889 0.48932 0.0
C1536 C 0.2666 0.58538 0.50888 0.0
C1537 C 0.25394 0.59532 0.47319 0.0
C1538 C 0.26173 0.57223 0.49239 0.0
N1539 N 0.25556 0.57742 0.47505 0.0
C1540 C 0.28739 0.65813 0.49893 0.0
C1541 C 0.25907 0.66752 0.50503 0.0
C1542 C 0.28875 0.66846 0.48322 0.0
N1543 N 0.27268 0.65787 0.5093 0.0
C1544 C 0.25997 0.67818 0.48969 0.0
C1545 C 0.27483 0.67853 0.47844 0.0
H1546 H 0.2979 0.65016 0.5028 0.0
H1547 H 0.24746 0.66687 0.5134 0.0
C1548 C 0.22346 0.59928 0.55895 0.0
N1549 N 0.23187 0.60136 0.54255 0.0
C1550 C 0.20589 0.58814 0.55775 0.0
C1551 C 0.20671 0.58103 0.52305 0.0
C1552 C 0.22403 0.59244 0.52488 0.0
C1553 C 0.19733 0.57947 0.53948 0.0
H1554 H 0.22999 0.60706 0.57267 0.0
H1555 H 0.23053 0.59504 0.51201 0.0
O1556 O 0.29364 0.64875 0.54901 0.0
O1557 O 0.27026 0.61918 0.56802 0.0
O1558 O 0.25084 0.64428 0.54566 0.0
O1559 O 0.26967 0.61697 0.52321 0.0
H1560 H 0.32859 0.64652 0.55904 0.0
H1561 H 0.29198 0.6836 0.54359 0.0
H1562 H 0.35538 0.67312 0.56277 0.0
H1563 H 0.31945 0.70957 0.54745 0.0
H1564 H 0.25802 0.56124 0.58712 0.0
H1565 H 0.27782 0.62901 0.60596 0.0
H1566 H 0.26061 0.58237 0.56131 0.0
H1567 H 0.27507 0.6071 0.63092 0.0
H1568 H 0.30514 0.69109 0.61892 0.0
H1569 H 0.24593 0.67165 0.61911 0.0
H1570 H 0.33034 0.58923 0.51842 0.0
H1571 H 0.33296 0.59269 0.58119 0.0
H1572 H 0.21456 0.63323 0.53603 0.0
H1573 H 0.25811 0.68053 0.55758 0.0
H1574 H 0.19145 0.65387 0.5377 0.0
H1575 H 0.23418 0.70032 0.55908 0.0
H1576 H 0.25727 0.62309 0.48788 0.0
H1577 H 0.27138 0.58126 0.52273 0.0
H1578 H 0.24894 0.599 0.45922 0.0
H1579 H 0.26282 0.55788 0.49339 0.0
H1580 H 0.3003 0.66829 0.47472 0.0
H1581 H 0.24912 0.68603 0.48665 0.0
H1582 H 0.19855 0.58746 0.57051 0.0
H1583 H 0.20005 0.57473 0.50873 0.0
Li1584 Li 0.41585 0.49928 0.76162 0.0
Li1585 Li 0.44359 0.52091 0.78318 0.0
Li1586 Li 0.41863 0.534 0.76307 0.0
Li1587 Li 0.442 0.51972 0.74596 0.0
C1588 C 0.40382 0.51759 0.79787 0.0
N1589 N 0.37874 0.51689 0.82496 0.0
C1590 C 0.40924 0.51495 0.81708 0.0
C1591 C 0.3856 0.51972 0.79237 0.0
C1592 C 0.39637 0.51466 0.83057 0.0
C1593 C 0.37314 0.51938 0.80631 0.0
C1594 C 0.45481 0.48685 0.76346 0.0
C1595 C 0.48484 0.47911 0.76005 0.0
N1596 N 0.47814 0.46147 0.7638 0.0
C1597 C 0.4482 0.46869 0.76729 0.0
C1598 C 0.47324 0.49217 0.75979 0.0
C1599 C 0.46022 0.45604 0.7674 0.0
C1600 C 0.39646 0.46306 0.7435 0.0
N1601 N 0.39897 0.47534 0.75998 0.0
C1602 C 0.37844 0.4535 0.77531 0.0
C1603 C 0.39024 0.47082 0.77573 0.0
C1604 C 0.37586 0.4405 0.75866 0.0
C1605 C 0.38501 0.4454 0.74258 0.0
H1606 H 0.40358 0.46688 0.73117 0.0
H1607 H 0.3926 0.4805 0.78883 0.0
C1608 C 0.45798 0.53851 0.82158 0.0
N1609 N 0.45883 0.52376 0.80846 0.0
C1610 C 0.46662 0.54007 0.84078 0.0
C1611 C 0.4778 0.51181 0.83249 0.0
C1612 C 0.46869 0.51062 0.81353 0.0
C1613 C 0.47652 0.52647 0.84657 0.0
H1614 H 0.44998 0.54875 0.81734 0.0
H1615 H 0.46904 0.49886 0.80307 0.0
C1616 C 0.40135 0.51492 0.72437 0.0
N1617 N 0.37519 0.51459 0.6929 0.0
C1618 C 0.40692 0.52144 0.70723 0.0
C1619 C 0.3825 0.50822 0.72553 0.0
C1620 C 0.39347 0.52116 0.69147 0.0
C1621 C 0.36947 0.50818 0.70944 0.0
C1622 C 0.45907 0.55757 0.76661 0.0
C1623 C 0.45365 0.57334 0.76 0.0
C1624 C 0.4777 0.55818 0.77344 0.0
C1625 C 0.46705 0.58953 0.76028 0.0
C1626 C 0.49069 0.57463 0.77346 0.0
N1627 N 0.48514 0.58983 0.76695 0.0
C1628 C 0.40384 0.56324 0.78083 0.0
C1629 C 0.3971 0.55871 0.74648 0.0
C1630 C 0.39413 0.57788 0.78198 0.0
N1631 N 0.40497 0.55385 0.76329 0.0
C1632 C 0.38721 0.57324 0.74695 0.0
C1633 C 0.38549 0.58299 0.7649 0.0
H1634 H 0.41054 0.55936 0.79395 0.0
H1635 H 0.39852 0.5514 0.73266 0.0
C1636 C 0.45501 0.50536 0.71103 0.0
N1637 N 0.45582 0.52116 0.72331 0.0
C1638 C 0.46323 0.50607 0.69365 0.0
C1639 C 0.47325 0.53925 0.70185 0.0
C1640 C 0.46479 0.53792 0.71901 0.0
C1641 C 0.47242 0.52323 0.68868 0.0
H1642 H 0.44764 0.4922 0.71455 0.0
H1643 H 0.46499 0.55042 0.7286 0.0
O1644 O 0.41631 0.51798 0.78455 0.0
O1645 O 0.44315 0.49927 0.76295 0.0
O1646 O 0.41437 0.51475 0.73977 0.0
O1647 O 0.44614 0.54167 0.76661 0.0
H1648 H 0.4232 0.513 0.8215 0.0
H1649 H 0.38117 0.52165 0.77751 0.0
H1650 H 0.40038 0.51264 0.84548 0.0
H1651 H 0.35901 0.52109 0.80231 0.0
H1652 H 0.49915 0.48299 0.75723 0.0
H1653 H 0.43393 0.4644 0.77014 0.0
H1654 H 0.47849 0.50621 0.75675 0.0
H1655 H 0.45531 0.44191 0.77032 0.0
H1656 H 0.37175 0.45011 0.78805 0.0
H1657 H 0.38334 0.43566 0.7295 0.0
H1658 H 0.46533 0.55166 0.85109 0.0
H1659 H 0.4851 0.50092 0.83634 0.0
H1660 H 0.42146 0.52668 0.7061 0.0
H1661 H 0.378 0.50307 0.73869 0.0
H1662 H 0.39758 0.52615 0.67811 0.0
H1663 H 0.35482 0.50303 0.7101 0.0
H1664 H 0.43927 0.57308 0.75466 0.0
H1665 H 0.48206 0.54606 0.77864 0.0
H1666 H 0.46307 0.60185 0.7552 0.0
H1667 H 0.50518 0.57533 0.77868 0.0
H1668 H 0.39355 0.58523 0.79612 0.0
H1669 H 0.38074 0.57659 0.73341 0.0
H1670 H 0.46233 0.49326 0.6842 0.0
H1671 H 0.47984 0.55286 0.69866 0.0
Li1672 Li 0.67102 0.04468 0.76883 0.0
Li1673 Li 0.69617 0.06166 0.75371 0.0
Li1674 Li 0.66907 0.04204 0.73418 0.0
Li1675 Li 0.69283 0.02868 0.75163 0.0
C1676 C 0.65865 0.07706 0.75358 0.0
N1677 N 0.63541 0.10253 0.75565 0.0
C1678 C 0.6661 0.09596 0.75911 0.0
C1679 C 0.6394 0.07109 0.74909 0.0
C1680 C 0.65411 0.10862 0.76009 0.0
C1681 C 0.62788 0.08421 0.75021 0.0
C1682 C 0.71087 0.05091 0.79132 0.0
C1683 C 0.74237 0.05397 0.80647 0.0
N1684 N 0.73705 0.05994 0.82381 0.0
C1685 C 0.7057 0.0571 0.80927 0.0
C1686 C 0.72934 0.04935 0.78985 0.0
C1687 C 0.71915 0.0616 0.82552 0.0
C1688 C 0.65449 0.02686 0.79618 0.0
N1689 N 0.65721 0.04361 0.78924 0.0
C1690 C 0.63923 0.05587 0.81194 0.0
C1691 C 0.65008 0.05813 0.79678 0.0
C1692 C 0.63597 0.03857 0.81925 0.0
C1693 C 0.64376 0.02397 0.81129 0.0
H1694 H 0.66063 0.01575 0.78986 0.0
H1695 H 0.65291 0.0714 0.79116 0.0
C1696 C 0.71561 0.09066 0.73795 0.0
N1697 N 0.713 0.08315 0.75477 0.0
C1698 C 0.72722 0.10787 0.73849 0.0
C1699 C 0.73313 0.10886 0.77358 0.0
C1700 C 0.72143 0.09174 0.77234 0.0
C1701 C 0.73577 0.11723 0.75656 0.0
H1702 H 0.70812 0.08361 0.7243 0.0
H1703 H 0.71831 0.08586 0.78549 0.0
C1704 C 0.65105 1.00711 0.747 0.0
N1705 N 0.62151 0.97723 0.74045 0.0
C1706 C 0.65407 0.98923 0.74149 0.0
C1707 C 0.63305 0.00985 0.74922 0.0
C1708 C 0.63895 0.9743 0.73821 0.0
C1709 C 0.61828 0.99454 0.74584 0.0
C1710 C 0.70717 0.04516 0.71674 0.0
C1711 C 0.70027 0.04225 0.69698 0.0
C1712 C 0.72638 0.04945 0.72233 0.0
C1713 C 0.71276 0.04375 0.68309 0.0
C1714 C 0.73842 0.05095 0.70798 0.0
N1715 N 0.73141 0.04808 0.68883 0.0
C1716 C 0.65071 0.05544 0.70485 0.0
C1717 C 0.64637 0.02239 0.70226 0.0
C1718 C 0.63909 0.05446 0.68774 0.0
N1719 N 0.6537 0.03954 0.71181 0.0
C1720 C 0.63472 0.02072 0.68502 0.0
C1721 C 0.63093 0.03692 0.67777 0.0
H1722 H 0.65737 0.06883 0.71263 0.0
H1723 H 0.64975 0.01011 0.7079 0.0
C1724 C 0.71144 1.00405 0.76776 0.0
N1725 N 0.70548 0.00982 0.75076 0.0
C1726 C 0.72132 0.98973 0.76751 0.0
C1727 C 0.71828 0.98755 0.73222 0.0
C1728 C 0.70856 1.00202 0.73318 0.0
C1729 C 0.72473 0.98137 0.74955 0.0
H1730 H 0.70831 0.01044 0.7814 0.0
H1731 H 0.70324 1.00688 0.71998 0.0
O1732 O 0.67029 0.06462 0.75209 0.0
O1733 O 0.69782 0.0463 0.77533 0.0
O1734 O 0.66582 0.02174 0.75062 0.0
O1735 O 0.69506 0.04406 0.73046 0.0
H1736 H 0.68099 0.10079 0.76253 0.0
H1737 H 0.63346 0.05652 0.74466 0.0
H1738 H 0.65967 0.12329 0.76434 0.0
H1739 H 0.61295 0.07982 0.74672 0.0
H1740 H 0.75672 0.05281 0.80559 0.0
H1741 H 0.69148 0.05846 0.81063 0.0
H1742 H 0.73354 0.04464 0.77603 0.0
H1743 H 0.71535 0.06641 0.8395 0.0
H1744 H 0.63374 0.06755 0.81809 0.0
H1745 H 0.64148 0.01047 0.81659 0.0
H1746 H 0.72882 0.11416 0.72514 0.0
H1747 H 0.73896 0.11602 0.78784 0.0
H1748 H 0.66797 0.98692 0.7398 0.0
H1749 H 0.63053 0.02361 0.7536 0.0
H1750 H 0.64107 0.96037 0.73393 0.0
H1751 H 0.60425 0.9964 0.74754 0.0
H1752 H 0.68543 0.03888 0.69242 0.0
H1753 H 0.7319 0.05179 0.73759 0.0
H1754 H 0.70761 0.04153 0.66774 0.0
H1755 H 0.75333 0.05442 0.71206 0.0
H1756 H 0.63636 0.0672 0.68249 0.0
H1757 H 0.62888 1.00702 0.67737 0.0
H1758 H 0.72573 0.98484 0.78109 0.0
H1759 H 0.72056 0.98114 0.71819 0.0
Li1760 Li 0.77465 0.68954 0.03298 0.0
Li1761 Li 0.7873 0.6644 0.01367 0.0
Li1762 Li 0.77281 0.68794 0.99591 0.0
Li1763 Li 0.75273 0.66211 0.01086 0.0
C1764 C 0.81104 0.7051 0.01825 0.0
N1765 N 0.8435 0.73152 0.022 0.0
C1766 C 0.82811 0.70038 0.02422 0.0
C1767 C 0.81043 0.72322 0.01421 0.0
C1768 C 0.84438 0.71395 0.02603 0.0
C1769 C 0.82701 0.73639 0.01619 0.0
C1770 C 0.77133 0.65001 0.04787 0.0
C1771 C 0.76564 0.61874 0.05662 0.0
N1772 N 0.77357 0.62535 0.07509 0.0
C1773 C 0.77941 0.65652 0.06693 0.0
C1774 C 0.76435 0.631 0.04262 0.0
C1775 C 0.78041 0.64382 0.08049 0.0
C1776 C 0.76126 0.70439 0.06678 0.0
N1777 N 0.77703 0.70469 0.05803 0.0
C1778 C 0.79515 0.72338 0.08618 0.0
C1779 C 0.79381 0.714 0.06732 0.0
C1780 C 0.77909 0.7231 0.0958 0.0
C1781 C 0.76197 0.71346 0.08562 0.0
H1782 H 0.74812 0.69665 0.05927 0.0
H1783 H 0.80625 0.71389 0.06025 0.0
C1784 C 0.81632 0.65046 0.9975 0.0
N1785 N 0.80691 0.65054 0.01339 0.0
C1786 C 0.83115 0.64103 0.99667 0.0
C1787 C 0.82608 0.63163 0.02836 0.0
C1788 C 0.8116 0.64149 0.02873 0.0
C1789 C 0.8361 0.63139 0.01223 0.0
H1790 H 0.8124 0.65789 0.98556 0.0
H1791 H 0.80435 0.64208 0.04142 0.0
C1792 C 0.74045 0.70095 0.01093 0.0
N1793 N 0.71518 0.72416 0.00675 0.0
C1794 C 0.7222 0.69368 0.0025 0.0
C1795 C 0.74591 0.71996 0.01725 0.0
C1796 C 0.70961 0.70566 1.00052 0.0
C1797 C 0.73291 0.73149 0.01498 0.0
C1798 C 0.7664 0.64724 0.97407 0.0
C1799 C 0.7614 0.65188 0.95551 0.0
C1800 C 0.76907 0.6292 0.97631 0.0
C1801 C 0.7592 0.63836 0.93943 0.0
C1802 C 0.76674 0.61608 0.95985 0.0
N1803 N 0.76191 0.6209 0.94191 0.0
C1804 C 0.79021 0.70124 0.96409 0.0
C1805 C 0.76106 0.71012 0.96613 0.0
C1806 C 0.79214 0.70935 0.94679 0.0
N1807 N 0.7748 0.70161 0.97334 0.0
C1808 C 0.76253 0.7186 0.94895 0.0
C1809 C 0.77814 0.71809 0.93887 0.0
H1810 H 0.8009 0.69429 0.96997 0.0
H1811 H 0.74876 0.71003 0.97343 0.0
C1812 C 0.72054 0.64563 0.02584 0.0
N1813 N 0.72894 0.64558 0.00929 0.0
C1814 C 0.70301 0.63448 0.02613 0.0
C1815 C 0.70309 0.62312 0.99236 0.0
C1816 C 0.72065 0.63456 0.99271 0.0
C1817 C 0.69391 0.6231 0.0092 0.0
H1818 H 0.72746 0.65445 0.03885 0.0
H1819 H 0.72755 0.63478 0.97968 0.0
O1820 O 0.79508 0.69187 0.01589 0.0
O1821 O 0.77034 0.66225 0.03442 0.0
O1822 O 0.75278 0.68938 0.01342 0.0
O1823 O 0.76908 0.66046 0.98986 0.0
H1824 H 0.8288 0.68639 0.02738 0.0
H1825 H 0.7973 0.72701 0.00948 0.0
H1826 H 0.8577 0.7105 0.0306 0.0
H1827 H 0.82679 0.75047 0.01307 0.0
H1828 H 0.76036 0.60397 0.05279 0.0
H1829 H 0.78493 0.6712 0.07118 0.0
H1830 H 0.75811 0.62577 0.02789 0.0
H1831 H 0.78665 0.64864 0.09529 0.0
H1832 H 0.80868 0.73072 0.09311 0.0
H1833 H 0.7492 0.71236 0.09231 0.0
H1834 H 0.83861 0.64117 0.984 0.0
H1835 H 0.82974 0.62466 0.0408 0.0
H1836 H 0.7178 0.67895 0.99761 0.0
H1837 H 0.76001 0.72572 0.02388 0.0
H1838 H 0.69541 0.70024 0.99407 0.0
H1839 H 0.7369 0.74625 0.01981 0.0
H1840 H 0.75927 0.66578 0.95354 0.0
H1841 H 0.77298 0.62542 0.99059 0.0
H1842 H 0.75537 0.64177 0.92498 0.0
H1843 H 0.76881 0.60207 0.96133 0.0
H1844 H 0.80449 0.70874 0.93964 0.0
H1845 H 0.75129 0.72498 0.94329 0.0
H1846 H 0.6967 0.63472 0.03955 0.0
H1847 H 0.69659 0.61472 0.97892 0.0
Li1848 Li 0.87115 0.49817 0.79542 0.0
Li1849 Li 0.89782 0.51688 0.81575 0.0
Li1850 Li 0.87362 0.53071 0.7989 0.0
Li1851 Li 0.8965 0.517 0.78123 0.0
C1852 C 0.85983 0.51292 0.83332 0.0
N1853 N 0.83615 0.51005 0.86175 0.0
C1854 C 0.8664 0.50998 0.8521 0.0
C1855 C 0.84125 0.5144 0.82895 0.0
C1856 C 0.8542 0.50855 0.86628 0.0
C1857 C 0.82949 0.51292 0.84356 0.0
C1858 C 0.90897 0.48343 0.79711 0.0
C1859 C 0.93971 0.47639 0.79718 0.0
N1860 N 0.93261 0.45836 0.79928 0.0
C1861 C 0.90196 0.46484 0.79926 0.0
C1862 C 0.92798 0.48929 0.79606 0.0
C1863 C 0.91414 0.45238 0.80034 0.0
C1864 C 0.85233 0.46783 0.77354 0.0
N1865 N 0.85469 0.47647 0.79196 0.0
C1866 C 0.83634 0.45061 0.80324 0.0
C1867 C 0.8468 0.46858 0.80675 0.0
C1868 C 0.8344 0.4412 0.78443 0.0
C1869 C 0.84173 0.45017 0.76929 0.0
H1870 H 0.8595 0.47431 0.76241 0.0
H1871 H 0.84953 0.47572 0.82136 0.0
C1872 C 0.91771 0.5366 0.84826 0.0
N1873 N 0.91364 0.51944 0.8379 0.0
C1874 C 0.93021 0.53983 0.86506 0.0
C1875 C 0.93376 0.50758 0.86 0.0
C1876 C 0.92095 0.5049 0.84353 0.0
C1877 C 0.93843 0.52521 0.87071 0.0
H1878 H 0.91125 0.54768 0.84338 0.0
H1879 H 0.9168 0.49128 0.83538 0.0
C1880 C 0.85687 0.5099 0.75815 0.0
N1881 N 0.83127 0.50186 0.72514 0.0
C1882 C 0.86283 0.51107 0.73976 0.0
C1883 C 0.83788 0.50472 0.75979 0.0
C1884 C 0.84968 0.50698 0.72325 0.0
C1885 C 0.82517 0.50062 0.7429 0.0
C1886 C 0.91527 0.55326 0.8018 0.0
C1887 C 0.91168 0.57073 0.79832 0.0
C1888 C 0.93362 0.5509 0.80583 0.0
C1889 C 0.9266 0.58564 0.79888 0.0
C1890 C 0.94816 0.56618 0.80633 0.0
N1891 N 0.94438 0.58308 0.80286 0.0
C1892 C 0.86037 0.55947 0.81741 0.0
C1893 C 0.85096 0.55198 0.78338 0.0
C1894 C 0.85183 0.57485 0.8178 0.0
N1895 N 0.86014 0.54889 0.80024 0.0
C1896 C 0.84204 0.56691 0.78313 0.0
C1897 C 0.84324 0.57894 0.8003 0.0
H1898 H 0.86797 0.55648 0.83048 0.0
H1899 H 0.85142 0.54355 0.76995 0.0
C1900 C 0.914 0.50227 0.7519 0.0
N1901 N 0.9107 0.51837 0.76087 0.0
C1902 C 0.92424 0.50271 0.73616 0.0
C1903 C 0.92725 0.53628 0.73924 0.0
C1904 C 0.91697 0.53516 0.75493 0.0
C1905 C 0.93081 0.51988 0.72959 0.0
H1906 H 0.90843 0.4891 0.75679 0.0
H1907 H 0.91359 0.54762 0.76203 0.0
O1908 O 0.87169 0.51449 0.81939 0.0
O1909 O 0.89716 0.49572 0.79584 0.0
O1910 O 0.86962 0.51423 0.77445 0.0
O1911 O 0.90076 0.53865 0.80148 0.0
H1912 H 0.88075 0.50878 0.85568 0.0
H1913 H 0.836 0.51666 0.81445 0.0
H1914 H 0.85908 0.50627 0.88088 0.0
H1915 H 0.81507 0.51406 0.84043 0.0
H1916 H 0.95446 0.4807 0.79637 0.0
H1917 H 0.88726 0.4601 0.8001 0.0
H1918 H 0.9336 0.50364 0.79438 0.0
H1919 H 0.90892 0.43795 0.802 0.0
H1920 H 0.83103 0.44373 0.8152 0.0
H1921 H 0.84042 0.44304 0.75467 0.0
H1922 H 0.93354 0.55348 0.87343 0.0
H1923 H 0.93972 0.49603 0.86453 0.0
H1924 H 0.87744 0.51524 0.73822 0.0
H1925 H 0.83305 0.50384 0.77394 0.0
H1926 H 0.8541 0.50792 0.70893 0.0
H1927 H 0.81043 0.49651 0.74391 0.0
H1928 H 0.89751 0.57272 0.79519 0.0
H1929 H 0.93658 0.53746 0.80862 0.0
H1930 H 0.92404 0.59924 0.79618 0.0
H1931 H 0.96245 0.56462 0.80948 0.0
H1932 H 0.85312 0.58413 0.83117 0.0
H1933 H 0.83552 0.56986 0.76941 0.0
H1934 H 0.92683 0.48979 0.7291 0.0
H1935 H 0.93181 0.54971 0.73432 0.0
Li1936 Li 0.79702 0.41802 0.52007 0.0
Li1937 Li 0.78349 0.44013 0.50129 0.0
Li1938 Li 0.79714 0.41554 0.48532 0.0
Li1939 Li 0.81628 0.44258 0.50495 0.0
C1940 C 0.7604 0.39889 0.49753 0.0
N1941 N 0.72972 0.37027 0.49324 0.0
C1942 C 0.74283 0.40273 0.50011 0.0
C1943 C 0.76243 0.38052 0.49283 0.0
C1944 C 0.72749 0.38806 0.49792 0.0
C1945 C 0.7467 0.36623 0.49064 0.0
C1946 C 0.80382 0.45819 0.54167 0.0
C1947 C 0.81402 0.48996 0.55642 0.0
N1948 N 0.8111 0.4844 0.57414 0.0
C1949 C 0.80083 0.4528 0.56001 0.0
C1950 C 0.81034 0.47693 0.53979 0.0
C1951 C 0.8046 0.46625 0.57625 0.0
C1952 C 0.81172 0.40576 0.55287 0.0
N1953 N 0.79567 0.40481 0.54109 0.0
C1954 C 0.77863 0.38389 0.55978 0.0
C1955 C 0.77924 0.3945 0.54435 0.0
C1956 C 0.79504 0.38428 0.57206 0.0
C1957 C 0.81171 0.39565 0.56871 0.0
H1958 H 0.82448 0.41435 0.54986 0.0
H1959 H 0.76665 0.39434 0.53493 0.0
C1960 C 0.75487 0.45128 0.48111 0.0
N1961 N 0.76514 0.45325 0.49875 0.0
C1962 C 0.73981 0.46011 0.47881 0.0
C1963 C 0.74694 0.4732 0.51276 0.0
C1964 C 0.76171 0.464 0.51442 0.0
C1965 C 0.73567 0.47097 0.49487 0.0
H1966 H 0.75812 0.44243 0.46908 0.0
H1967 H 0.76999 0.46489 0.5283 0.0
C1968 C 0.83078 0.40493 0.50478 0.0
N1969 N 0.85622 0.38166 0.50319 0.0
C1970 C 0.84893 0.41177 0.501 0.0
C1971 C 0.82555 0.38629 0.50779 0.0
C1972 C 0.86159 0.39977 0.50023 0.0
C1973 C 0.83863 0.37473 0.50692 0.0
C1974 C 0.80083 0.4532 0.46685 0.0
C1975 C 0.80322 0.44657 0.44791 0.0
C1976 C 0.79976 0.47188 0.47135 0.0
C1977 C 0.80451 0.45878 0.43372 0.0
C1978 C 0.80106 0.48364 0.45672 0.0
N1979 N 0.8034 0.47691 0.43838 0.0
C1980 C 0.77805 0.39627 0.45187 0.0
C1981 C 0.80955 0.39274 0.45777 0.0
C1982 C 0.77561 0.38487 0.43435 0.0
N1983 N 0.79476 0.39973 0.46311 0.0
C1984 C 0.80772 0.38119 0.4405 0.0
C1985 C 0.79063 0.37728 0.42861 0.0
H1986 H 0.76679 0.40259 0.45647 0.0
H1987 H 0.8228 0.39631 0.4667 0.0
C1988 C 0.84754 0.46252 0.52563 0.0
N1989 N 0.83814 0.45896 0.50751 0.0
C1990 C 0.86485 0.47409 0.52876 0.0
C1991 C 0.86228 0.47809 0.49441 0.0
C1992 C 0.84498 0.46636 0.49196 0.0
C1993 C 0.87246 0.48175 0.51295 0.0
H1994 H 0.84178 0.45585 0.53746 0.0
H1995 H 0.8374 0.46265 0.47761 0.0
O1996 O 0.7755 0.41314 0.49974 0.0
O1997 O 0.80021 0.44511 0.52568 0.0
O1998 O 0.81826 0.41653 0.50558 0.0
O1999 O 0.79984 0.44143 0.48091 0.0
H2000 H 0.74111 0.4169 0.50387 0.0
H2001 H 0.77597 0.37734 0.49088 0.0
H2002 H 0.71381 0.39081 0.49995 0.0
H2003 H 0.74801 0.35194 0.48692 0.0
H2004 H 0.81919 0.5045 0.55523 0.0
H2005 H 0.7955 0.43842 0.5617 0.0
H2006 H 0.81261 0.48133 0.52567 0.0
H2007 H 0.80233 0.46227 0.59053 0.0
H2008 H 0.76557 0.37514 0.56176 0.0
H2009 H 0.82459 0.39659 0.5781 0.0
H2010 H 0.73114 0.45802 0.46493 0.0
H2011 H 0.74372 0.48109 0.52555 0.0
H2012 H 0.85318 0.42618 0.4986 0.0
H2013 H 0.81153 0.38081 0.51072 0.0
H2014 H 0.87568 0.40486 0.49728 0.0
H2015 H 0.8348 0.36026 0.5092 0.0
H2016 H 0.80423 0.43217 0.44424 0.0
H2017 H 0.79801 0.47722 0.48598 0.0
H2018 H 0.80642 0.45385 0.41902 0.0
H2019 H 0.80025 0.49814 0.45996 0.0
H2020 H 0.76233 0.38226 0.42527 0.0
H2021 H 0.81952 0.37539 0.43648 0.0
H2022 H 0.87262 0.47612 0.54313 0.0
H2023 H 0.86794 0.4836 0.48189 0.0
Li2024 Li 0.62654 0.54221 0.30429 0.0
Li2025 Li 0.6524 0.56241 0.28906 0.0
Li2026 Li 0.62484 0.54018 0.26704 0.0
Li2027 Li 0.65004 0.52782 0.28651 0.0
C2028 C 0.61334 0.57443 0.28887 0.0
N2029 N 0.58997 0.59957 0.29268 0.0
C2030 C 0.62052 0.59276 0.29708 0.0
C2031 C 0.59433 0.56883 0.28259 0.0
C2032 C 0.60846 0.60528 0.29888 0.0
C2033 C 0.58272 0.58177 0.28466 0.0
C2034 C 0.66748 0.54903 0.32597 0.0
C2035 C 0.6989 0.54936 0.33991 0.0
N2036 N 0.694 0.55338 0.35798 0.0
C2037 C 0.66277 0.55325 0.34465 0.0
C2038 C 0.6857 0.54716 0.32352 0.0
C2039 C 0.67637 0.5554 0.36066 0.0
C2040 C 0.61384 0.52517 0.33684 0.0
N2041 N 0.61283 0.54011 0.32695 0.0
C2042 C 0.59484 0.552 0.35051 0.0
C2043 C 0.60348 0.5534 0.33344 0.0
C2044 C 0.59591 0.53688 0.36133 0.0
C2045 C 0.60554 0.5233 0.35405 0.0
H2046 H 0.62151 0.51486 0.33157 0.0
H2047 H 0.6029 0.56526 0.32556 0.0
C2048 C 0.67034 0.59358 0.27313 0.0
N2049 N 0.66908 0.58626 0.29027 0.0
C2050 C 0.68179 0.61087 0.27239 0.0
C2051 C 0.69066 0.61295 0.30701 0.0
C2052 C 0.67905 0.59551 0.30707 0.0
C2053 C 0.69209 0.62102 0.2895 0.0
H2054 H 0.66237 0.58594 0.25996 0.0
H2055 H 0.67785 0.58946 0.32056 0.0
C2056 C 0.60938 0.50392 0.28179 0.0
N2057 N 0.58299 0.4714 0.27767 0.0
C2058 C 0.61414 0.4869 0.27573 0.0
C2059 C 0.59123 0.50444 0.28574 0.0
C2060 C 0.60059 0.47061 0.27373 0.0
C2061 C 0.57807 0.48783 0.28357 0.0
C2062 C 0.66447 0.54284 0.25237 0.0
C2063 C 0.65795 0.53506 0.23322 0.0
C2064 C 0.68356 0.54907 0.25786 0.0
C2065 C 0.67071 0.53358 0.21983 0.0
C2066 C 0.69587 0.54737 0.24401 0.0
N2067 N 0.68925 0.53972 0.22545 0.0
C2068 C 0.60733 0.55318 0.234 0.0
C2069 C 0.60309 0.52034 0.2315 0.0
C2070 C 0.59839 0.55223 0.21504 0.0
N2071 N 0.60965 0.5374 0.24184 0.0
C2072 C 0.59407 0.51875 0.21243 0.0
C2073 C 0.59172 0.53485 0.20375 0.0
H2074 H 0.61293 0.56661 0.2423 0.0
H2075 H 0.6053 0.50795 0.23784 0.0
C2076 C 0.66864 0.50155 0.30333 0.0
N2077 N 0.66374 0.50812 0.28633 0.0
C2078 C 0.67785 0.48652 0.30335 0.0
C2079 C 0.67667 0.48521 0.26837 0.0
C2080 C 0.66753 0.50026 0.26903 0.0
C2081 C 0.68184 0.47805 0.28566 0.0
H2082 H 0.66508 0.50777 0.31684 0.0
H2083 H 0.6631 0.50536 0.25567 0.0
O2084 O 0.62501 0.56217 0.28655 0.0
O2085 O 0.65412 0.5462 0.31026 0.0
O2086 O 0.6226 0.51991 0.28437 0.0
O2087 O 0.65213 0.54459 0.26556 0.0
H2088 H 0.63525 0.59728 0.30194 0.0
H2089 H 0.58864 0.55466 0.27614 0.0
H2090 H 0.61381 0.61954 0.30516 0.0
H2091 H 0.56795 0.57767 0.27986 0.0
H2092 H 0.71302 0.54781 0.33828 0.0
H2093 H 0.64874 0.55481 0.34679 0.0
H2094 H 0.68953 0.54384 0.30914 0.0
H2095 H 0.6729 0.55861 0.37521 0.0
H2096 H 0.58738 0.56273 0.35513 0.0
H2097 H 0.60715 0.51153 0.36182 0.0
H2098 H 0.68264 0.61613 0.25844 0.0
H2099 H 0.69812 0.62018 0.32063 0.0
H2100 H 0.62815 0.48625 0.27267 0.0
H2101 H 0.58739 0.51753 0.29055 0.0
H2102 H 0.60408 0.45732 0.2691 0.0
H2103 H 0.56396 0.48799 0.28662 0.0
H2104 H 0.64322 0.53018 0.22875 0.0
H2105 H 0.68879 0.55518 0.27263 0.0
H2106 H 0.66586 0.52756 0.20496 0.0
H2107 H 0.7107 0.55215 0.24802 0.0
H2108 H 0.59732 0.5651 0.20908 0.0
H2109 H 0.58908 0.505 0.20456 0.0
H2110 H 0.68134 0.48126 0.31697 0.0
H2111 H 0.67958 0.47921 0.25443 0.0
Tb2112 Tb 0.06041 0.03999 0.03743 0.0
C2113 C 0.99546 0.97969 0.99365 0.0
N2114 N 1.00418 0.99643 0.9891 0.0
C2115 C 1.00163 0.98354 0.95556 0.0
C2116 C 0.98991 0.96411 0.97936 0.0
C2117 C 1.00641 0.99868 0.97011 0.0
C2118 C 0.99357 0.9661 0.96024 0.0
C2119 C 0.97986 0.9621 0.01714 0.0
C2120 C 0.99042 0.97865 0.01226 0.0
C2121 C 0.97498 0.94635 0.00318 0.0
C2122 C 0.98 0.94735 0.98434 0.0
Tb2123 Tb 1.00934 0.02046 0.01391 0.0
N2124 N 0.99496 0.99426 0.02527 0.0
C2125 C 0.97384 0.96212 0.03563 0.0
C2126 C 0.98798 0.99473 0.04277 0.0
C2127 C 0.97773 0.9786 0.04841 0.0
H2128 H 0.01082 0.01226 0.96577 0.0
H2129 H 0.97251 0.97897 0.06244 0.0
H2130 H 0.0536 0.051 0.08365 0.0
H2131 H 0.09323 0.081 0.98502 0.0
H2132 H 0.99 1.00761 0.05222 0.0
H2133 H 0.96562 0.94971 0.0399 0.0
H2134 H 0.07785 0.05245 0.99645 0.0
H2135 H 1.00357 0.98548 0.94061 0.0
H2136 H 0.96684 0.93351 0.00663 0.0
H2137 H 0.97559 0.93527 0.97353 0.0
H2138 H 0.06124 0.07861 0.10772 0.0
H2139 H 0.98941 0.95451 0.94882 0.0
H2140 H 0.10086 0.11041 0.00722 0.0
N2141 N 0.06361 0.06518 0.06028 0.0
C2142 C 0.07334 0.08129 0.05534 0.0
C2143 C 0.0644 0.07967 0.09294 0.0
C2144 C 0.07852 0.09739 0.06898 0.0
C2145 C 0.0596 0.06405 0.07898 0.0
C2146 C 0.07383 0.09643 0.08792 0.0
N2147 N 0.0739 0.06554 0.02396 0.0
C2148 C 0.07957 0.06519 0.00583 0.0
C2149 C 0.0883 0.09812 0.03097 0.0
C2150 C 0.07838 0.08156 0.03655 0.0
C2151 C 0.09326 0.09796 0.01207 0.0
C2152 C 0.08891 0.08141 0.99947 0.0
H2153 H 0.07776 0.10844 0.09887 0.0
H2154 H 0.09276 0.12626 0.0738 0.0
H2155 H 0.10111 0.12698 0.04049 0.0
O2156 O 0.08942 0.04296 0.03824 0.0
O2157 O 0.04146 0.06037 0.03318 0.0
O2158 O 0.02188 0.0477 0.00553 0.0
O2159 O 0.07541 0.03384 0.06234 0.0
O2160 O 0.05829 0.02646 0.00729 0.0
O2161 O 0.02924 0.02955 0.9935 0.0
O2162 O 0.98799 0.03287 0.0238 0.0
O2163 O 0.02323 1.00101 0.02967 0.0
O2164 O 0.05439 0.00962 0.02689 0.0
O2165 O 0.98455 0.01719 0.99526 0.0
O2166 O 0.01423 0.03554 0.04345 0.0
O2167 O 0.04096 0.02756 0.05649 0.0
C2168 C 0.03079 0.06243 0.01737 0.0
C2169 C 0.10329 0.0236 0.05816 0.0
C2170 C 0.12676 1.007 0.04742 0.0
C2171 C 0.12797 0.99956 0.06525 0.0
C2172 C 0.10475 0.01623 0.07603 0.0
C2173 C 0.11698 1.00419 0.07948 0.0
C2174 C 0.11438 0.01896 0.0439 0.0
C2175 C 0.04635 0.02703 0.99196 0.0
C2176 C 0.09122 0.03714 0.05528 0.0
C2177 C 0.08854 0.1138 0.06346 0.0
C2178 C 0.09331 0.1142 0.04449 0.0
C2179 C 0.03992 0.99691 0.02961 0.0
C2180 C 0.96724 0.04069 0.99972 0.0
C2181 C 0.94101 0.05565 1.00202 0.0
C2182 C 0.94391 0.06311 0.98454 0.0
C2183 C 0.97044 0.04807 0.9822 0.0
C2184 C 0.95279 0.04477 0.00965 0.0
C2185 C 0.95877 0.05939 0.97469 0.0
C2186 C 0.02443 0.03129 0.05831 0.0
C2187 C 0.97723 0.02727 0.00749 0.0
H2188 H 0.13774 0.99055 0.06835 0.0
H2189 H 0.0966 0.01997 0.08741 0.0
H2190 H 0.11815 0.99866 0.09332 0.0
H2191 H 0.11359 0.02474 0.03015 0.0
H2192 H 0.93453 0.07137 0.9784 0.0
H2193 H 0.98159 0.04482 0.97423 0.0
H2194 H 0.95017 0.03878 0.02304 0.0
H2195 H 0.96097 0.06491 0.96106 0.0
Tb2196 Tb 0.26919 0.77858 0.30074 0.0
C2197 C 0.31267 0.74688 0.22568 0.0
N2198 N 0.31922 0.76042 0.2408 0.0
C2199 C 0.34802 0.74941 0.24464 0.0
C2200 C 0.32328 0.7336 0.21992 0.0
C2201 C 0.33685 0.76207 0.25005 0.0
C2202 C 0.34114 0.73499 0.22966 0.0
C2203 C 0.28739 0.73187 0.20093 0.0
C2204 C 0.29506 0.74612 0.21622 0.0
C2205 C 0.29776 0.71841 0.19536 0.0
C2206 C 0.31569 0.7193 0.2048 0.0
Tb2207 Tb 0.29902 0.77911 0.24983 0.0
N2208 N 0.28515 0.75892 0.22264 0.0
C2209 C 0.26947 0.73144 0.19186 0.0
C2210 C 0.26799 0.75902 0.21308 0.0
C2211 C 0.25984 0.74524 0.1978 0.0
H2212 H 0.34249 0.77322 0.26157 0.0
H2213 H 0.2461 0.74527 0.19063 0.0
H2214 H 0.2263 0.78497 0.29011 0.0
H2215 H 0.32059 0.80992 0.36247 0.0
H2216 H 0.26034 0.76961 0.21687 0.0
H2217 H 0.26303 0.72067 0.18014 0.0
H2218 H 0.30458 0.78444 0.3379 0.0
H2219 H 0.36191 0.75074 0.25212 0.0
H2220 H 0.29203 0.70725 0.18378 0.0
H2221 H 0.32355 0.70885 0.20032 0.0
H2222 H 0.20826 0.80949 0.29708 0.0
H2223 H 0.34975 0.72508 0.22567 0.0
H2224 H 0.30735 0.83826 0.36848 0.0
N2225 N 0.25019 0.79857 0.30933 0.0
C2226 C 0.2577 0.81325 0.32283 0.0
C2227 C 0.22223 0.8108 0.30436 0.0
C2228 C 0.2481 0.82776 0.32718 0.0
C2229 C 0.23251 0.79693 0.30039 0.0
C2230 C 0.23016 0.82644 0.31762 0.0
N2231 N 0.28326 0.79876 0.32795 0.0
C2232 C 0.2989 0.79692 0.33944 0.0
C2233 C 0.28341 0.82822 0.34686 0.0
C2234 C 0.27503 0.81347 0.33238 0.0
C2235 C 0.30038 0.8272 0.35728 0.0
C2236 C 0.30791 0.81126 0.35387 0.0
H2237 H 0.22225 0.83726 0.32055 0.0
H2238 H 0.24967 0.85439 0.34431 0.0
H2239 H 0.28069 0.85481 0.36161 0.0
O2240 O 0.27026 0.75658 0.31732 0.0
O2241 O 0.27586 0.80543 0.29036 0.0
O2242 O 0.29979 0.79653 0.27706 0.0
O2243 O 0.24414 0.76022 0.30299 0.0
O2244 O 0.29845 0.77362 0.30525 0.0
O2245 O 0.31565 0.77662 0.27801 0.0
O2246 O 0.29702 0.80031 0.23215 0.0
O2247 O 0.28624 0.75068 0.25285 0.0
O2248 O 0.27877 0.7678 0.27596 0.0
O2249 O 0.32372 0.79552 0.24378 0.0
O2250 O 0.27027 0.78616 0.24727 0.0
O2251 O 0.25183 0.77577 0.27185 0.0
C2252 C 0.28908 0.80857 0.27928 0.0
C2253 C 0.24369 0.74766 0.33297 0.0
C2254 C 0.24669 0.74123 0.3666 0.0
C2255 C 0.2273 0.73914 0.36645 0.0
C2256 C 0.22431 0.74537 0.3329 0.0
C2257 C 0.21619 0.74122 0.34965 0.0
C2258 C 0.25479 0.74554 0.34988 0.0
C2259 C 0.31387 0.77354 0.29648 0.0
C2260 C 0.25227 0.75109 0.31519 0.0
C2261 C 0.25668 0.84295 0.34094 0.0
C2262 C 0.27436 0.8432 0.35075 0.0
C2263 C 0.27787 0.75119 0.26805 0.0
C2264 C 0.32155 0.80614 0.21298 0.0
C2265 C 0.31726 0.81594 0.18095 0.0
C2266 C 0.33357 0.81003 0.17642 0.0
C2267 C 0.33798 0.80032 0.20847 0.0
C2268 C 0.3114 0.81417 0.19923 0.0
C2269 C 0.34395 0.80232 0.19022 0.0
C2270 C 0.25399 0.7823 0.25469 0.0
C2271 C 0.31499 0.80455 0.23203 0.0
H2272 H 0.22067 0.73535 0.37911 0.0
H2273 H 0.21544 0.74659 0.31988 0.0
H2274 H 0.20123 0.73931 0.34951 0.0
H2275 H 0.26975 0.74698 0.35006 0.0
H2276 H 0.33842 0.81169 0.16236 0.0
H2277 H 0.34624 0.79431 0.21898 0.0
H2278 H 0.29887 0.81897 0.20266 0.0
H2279 H 0.35665 0.79797 0.1868 0.0
Tb2280 Tb 0.50844 0.02918 0.53606 0.0
C2281 C 0.578 0.06734 0.4976 0.0
N2282 N 0.56536 0.05141 0.49112 0.0
C2283 C 0.56597 0.05879 0.45826 0.0
C2284 C 0.58444 0.08005 0.4847 0.0
C2285 C 0.5602 0.04654 0.4716 0.0
C2286 C 0.57786 0.0758 0.46487 0.0
C2287 C 0.59987 0.08571 0.52395 0.0
C2288 C 0.58578 0.07011 0.51694 0.0
C2289 C 0.60557 0.09893 0.5114 0.0
C2290 C 0.59789 0.09608 0.49181 0.0
Tb2291 Tb 0.55837 0.03204 0.51428 0.0
N2292 N 0.57992 0.05707 0.52873 0.0
C2293 C 0.60817 0.08726 0.54323 0.0
C2294 C 0.58905 0.05767 0.54692 0.0
C2295 C 0.60293 0.07301 0.55466 0.0
H2296 H 0.55262 0.03278 0.46618 0.0
H2297 H 0.60981 0.07367 0.56928 0.0
H2298 H 0.52183 0.03002 0.58401 0.0
H2299 H 0.45953 0.97997 0.48443 0.0
H2300 H 0.58588 0.04617 0.55527 0.0
H2301 H 0.61904 0.09906 0.5492 0.0
H2302 H 0.48344 0.00852 0.49471 0.0
H2303 H 0.56171 0.05485 0.44283 0.0
H2304 H 0.61627 0.11111 0.51655 0.0
H2305 H 0.60288 0.10608 0.48214 0.0
H2306 H 0.51581 0.00901 0.60892 0.0
H2307 H 0.5826 0.08511 0.45446 0.0
H2308 H 0.45018 0.9583 0.50835 0.0
N2309 N 0.50471 0.01137 0.56101 0.0
C2310 C 0.49159 0.99546 0.55646 0.0
C2311 C 0.50909 1.00491 0.59416 0.0
C2312 C 0.48711 0.98338 0.57057 0.0
C2313 C 0.51284 0.01662 0.57978 0.0
C2314 C 0.49628 0.98815 0.58952 0.0
N2315 N 0.48776 1.00275 0.52398 0.0
C2316 C 0.47964 0.99901 0.50516 0.0
C2317 C 0.46906 0.97477 0.53225 0.0
C2318 C 0.48261 0.99119 0.53748 0.0
C2319 C 0.4607 0.97077 0.51294 0.0
C2320 C 0.46601 0.98293 0.49935 0.0
H2321 H 0.49329 0.97919 0.60075 0.0
H2322 H 0.46996 0.95759 0.57606 0.0
H2323 H 0.45416 0.95007 0.54258 0.0
O2324 O 0.48137 0.03493 0.53016 0.0
O2325 O 0.5185 1.00243 0.52919 0.0
O2326 O 0.53736 1.00647 0.50442 0.0
O2327 O 0.49822 0.04467 0.55823 0.0
O2328 O 0.50958 0.03661 0.50701 0.0
O2329 O 0.53387 0.02638 0.4925 0.0
O2330 O 0.57736 0.01525 0.52469 0.0
O2331 O 0.55286 0.05826 0.52981 0.0
O2332 O 0.52088 0.05584 0.52601 0.0
O2333 O 0.57825 0.02577 0.49686 0.0
O2334 O 0.55191 0.02168 0.54137 0.0
O2335 O 0.53371 0.04012 0.55519 0.0
C2336 C 0.52737 0.9956 0.5152 0.0
C2337 C 0.46753 0.05286 0.55425 0.0
C2338 C 0.44167 0.06909 0.54851 0.0
C2339 C 0.4407 0.07141 0.56864 0.0
C2340 C 0.46625 0.05538 0.57431 0.0
C2341 C 0.45283 0.0645 0.58141 0.0
C2342 C 0.45497 0.05954 0.54124 0.0
C2343 C 0.51821 0.03275 0.49195 0.0
C2344 C 0.4826 0.04412 0.54735 0.0
C2345 C 0.47357 0.96702 0.5654 0.0
C2346 C 0.46454 0.96276 0.54633 0.0
C2347 C 0.53791 0.06596 0.52935 0.0
C2348 C 0.5965 1.00285 0.50174 0.0
C2349 C 0.62411 0.98899 0.50594 0.0
C2350 C 0.6222 0.98361 0.48582 0.0
C2351 C 0.59459 0.99693 0.48161 0.0
C2352 C 0.6112 0.99853 0.51393 0.0
C2353 C 0.60742 0.98741 0.47376 0.0
C2354 C 0.54805 0.032 0.55616 0.0
C2355 C 0.58609 0.0168 0.50934 0.0
H2356 H 0.43053 0.07868 0.57448 0.0
H2357 H 0.4757 0.05036 0.58455 0.0
H2358 H 0.45196 0.0664 0.59691 0.0
H2359 H 0.45594 0.05789 0.52573 0.0
H2360 H 0.6322 0.97646 0.47945 0.0
H2361 H 0.58367 1.00035 0.4718 0.0
H2362 H 0.61314 1.00336 0.52938 0.0
H2363 H 0.60614 0.98333 0.45822 0.0
Tb2364 Tb 0.30851 0.27211 0.77665 0.0
C2365 C 0.24072 0.29876 0.73376 0.0
N2366 N 0.25217 0.30758 0.7498 0.0
C2367 C 0.25369 0.33677 0.73675 0.0
C2368 C 0.23557 0.30857 0.71835 0.0
C2369 C 0.25846 0.3264 0.75163 0.0
C2370 C 0.24228 0.32781 0.71997 0.0
C2371 C 0.22225 0.27001 0.71655 0.0
C2372 C 0.23429 0.27972 0.73282 0.0
C2373 C 0.21721 0.27967 0.70102 0.0
C2374 C 0.22386 0.2989 0.70191 0.0
Tb2375 Tb 0.25932 0.28917 0.77293 0.0
N2376 N 0.23984 0.27079 0.74795 0.0
C2377 C 0.21542 0.25096 0.71656 0.0
C2378 C 0.23203 0.25262 0.74867 0.0
C2379 C 0.22008 0.24231 0.73285 0.0
H2380 H 0.2667 0.33354 0.76479 0.0
H2381 H 0.21418 0.22779 0.73341 0.0
H2382 H 0.29924 0.22719 0.78312 0.0
H2383 H 0.35087 0.33261 0.82077 0.0
H2384 H 0.23434 0.24617 0.76164 0.0
H2385 H 0.20608 0.24298 0.70436 0.0
H2386 H 0.3307 0.31582 0.79185 0.0
H2387 H 0.25869 0.35169 0.73831 0.0
H2388 H 0.20803 0.27243 0.68834 0.0
H2389 H 0.21977 0.30619 0.68988 0.0
H2390 H 0.30722 0.2078 0.80841 0.0
H2391 H 0.23861 0.33588 0.70847 0.0
H2392 H 0.36024 0.31544 0.84776 0.0
N2393 N 0.3147 0.25254 0.79887 0.0
C2394 C 0.32638 0.26063 0.81505 0.0
C2395 C 0.31261 0.22266 0.81051 0.0
C2396 C 0.3315 0.25002 0.82976 0.0
C2397 C 0.3079 0.23377 0.79632 0.0
C2398 C 0.32443 0.23081 0.82732 0.0
N2399 N 0.32714 0.28958 0.80275 0.0
C2400 C 0.33391 0.30824 0.80371 0.0
C2401 C 0.34479 0.28873 0.83372 0.0
C2402 C 0.33291 0.27975 0.81702 0.0
C2403 C 0.35107 0.30801 0.83517 0.0
C2404 C 0.34572 0.31777 0.82001 0.0
H2405 H 0.32806 0.22216 0.83828 0.0
H2406 H 0.34752 0.25097 0.85786 0.0
H2407 H 0.35917 0.28484 0.86132 0.0
O2408 O 0.33201 0.28167 0.76138 0.0
O2409 O 0.29634 0.27795 0.80427 0.0
O2410 O 0.28003 0.30084 0.79783 0.0
O2411 O 0.32483 0.25322 0.76797 0.0
O2412 O 0.30702 0.29828 0.76411 0.0
O2413 O 0.28451 0.3113 0.77848 0.0
O2414 O 0.23678 0.28018 0.78963 0.0
O2415 O 0.27144 0.28363 0.74525 0.0
O2416 O 0.2883 0.26089 0.7511 0.0
O2417 O 0.24305 0.30817 0.78154 0.0
O2418 O 0.26114 0.2628 0.78534 0.0
O2419 O 0.28325 0.25049 0.7697 0.0
C2420 C 0.28779 0.29139 0.81022 0.0
C2421 C 0.35202 0.25926 0.75084 0.0
C2422 C 0.37949 0.26425 0.73293 0.0
C2423 C 0.38095 0.24563 0.73403 0.0
C2424 C 0.35413 0.24068 0.75153 0.0
C2425 C 0.3684 0.23399 0.74322 0.0
C2426 C 0.36488 0.2712 0.74138 0.0
C2427 C 0.29956 0.31274 0.76933 0.0
C2428 C 0.33617 0.26514 0.76012 0.0
C2429 C 0.3434 0.25889 0.84641 0.0
C2430 C 0.35003 0.27819 0.84838 0.0
C2431 C 0.28002 0.27032 0.73903 0.0
C2432 C 0.2171 0.3027 0.80055 0.0
C2433 C 0.1893 0.29757 0.81794 0.0
C2434 C 0.18907 0.31665 0.81875 0.0
C2435 C 0.21626 0.32174 0.80181 0.0
C2436 C 0.20348 0.29047 0.80884 0.0
C2437 C 0.20243 0.32859 0.8108 0.0
C2438 C 0.26877 0.24861 0.77956 0.0
C2439 C 0.23238 0.29659 0.79043 0.0
H2440 H 0.39194 0.24003 0.72767 0.0
H2441 H 0.34468 0.2311 0.75855 0.0
H2442 H 0.36974 0.21965 0.74392 0.0
H2443 H 0.36358 0.28554 0.74059 0.0
H2444 H 0.17841 0.32237 0.82561 0.0
H2445 H 0.22639 0.33155 0.7958 0.0
H2446 H 0.20379 0.27575 0.80809 0.0
H2447 H 0.20204 0.34328 0.81157 0.0
Tb2448 Tb 0.04117 1.00334 0.52235 0.0
C2449 C 0.01468 0.07612 0.56184 0.0
N2450 N 1.0066 0.06494 0.54538 0.0
C2451 C 0.97637 0.06591 0.55532 0.0
C2452 C 1.00401 0.08198 0.57615 0.0
C2453 C 0.98759 0.06065 0.54148 0.0
C2454 C 0.98463 0.07633 0.57291 0.0
C2455 C 0.04267 0.09514 0.57995 0.0
C2456 C 0.03363 0.08261 0.56374 0.0
C2457 C 0.03231 0.1003 0.59478 0.0
C2458 C 0.01299 0.09371 0.5929 0.0
Tb2459 Tb 0.02663 0.05527 0.52499 0.0
N2460 N 0.04314 0.07702 0.54926 0.0
C2461 C 0.06174 0.10229 0.58056 0.0
C2462 C 0.0615 0.08474 0.54921 0.0
C2463 C 0.07114 0.09727 0.56495 0.0
H2464 H 0.98098 0.05287 0.52777 0.0
H2465 H 0.08579 0.10303 0.56505 0.0
H2466 H 0.08665 0.01294 0.51779 0.0
H2467 H 0.98476 0.9536 0.47923 0.0
H2468 H 0.06875 0.08104 0.53716 0.0
H2469 H 0.06923 0.11195 0.59277 0.0
H2470 H 1.00006 0.97421 0.50848 0.0
H2471 H 0.96136 0.06198 0.55236 0.0
H2472 H 0.03901 0.1097 0.60753 0.0
H2473 H 1.00508 0.09815 0.6042 0.0
H2474 H 0.10664 0.00873 0.49209 0.0
H2475 H 0.97592 0.08046 0.58356 0.0
H2476 H 1.00214 0.94872 0.4511 0.0
N2477 N 0.06164 0.99879 0.50044 0.0
C2478 C 0.0543 0.98746 0.48378 0.0
C2479 C 0.09187 1.0029 0.48943 0.0
C2480 C 0.06533 0.98417 0.46884 0.0
C2481 C 0.08037 1.00564 0.50385 0.0
C2482 C 0.08427 0.99237 0.4717 0.0
N2483 N 0.0255 0.9826 0.49662 0.0
C2484 C 1.00762 0.97308 0.49608 0.0
C2485 C 0.02752 0.96704 0.46488 0.0
C2486 C 0.03563 0.97906 0.48182 0.0
C2487 C 1.00887 0.95814 0.46381 0.0
C2488 C 0.99898 0.96095 0.47961 0.0
H2489 H 0.09323 0.99022 0.46056 0.0
H2490 H 0.0654 0.97005 0.43999 0.0
H2491 H 0.0323 0.95498 0.43655 0.0
O2492 O 0.03482 0.97592 0.5308 0.0
O2493 O 0.03677 0.01592 0.49486 0.0
O2494 O 0.01446 0.03205 0.50263 0.0
O2495 O 0.06193 0.99389 0.53948 0.0
O2496 O 0.01205 1.00301 0.52746 0.0
O2497 O 1.00371 0.03255 0.52935 0.0
O2498 O 0.03787 0.07762 0.50967 0.0
O2499 O 0.04313 0.04863 0.55103 0.0
O2500 O 0.03345 0.01693 0.54913 0.0
O2501 O 1.00865 0.06697 0.5068 0.0
O2502 O 0.05135 0.04924 0.51233 0.0
O2503 O 0.06343 0.02843 0.52998 0.0
C2504 C 0.02342 0.02476 0.48951 0.0
C2505 C 0.05819 0.96305 0.55039 0.0
C2506 C 0.05367 0.93518 0.56763 0.0
C2507 C 0.07285 0.93542 0.56849 0.0
C2508 C 0.07732 0.96285 0.55171 0.0
C2509 C 0.08453 0.94912 0.56061 0.0
C2510 C 0.04623 0.94906 0.55842 0.0
C2511 C 1.00011 0.01429 0.52986 0.0
C2512 C 0.05134 0.97777 0.54014 0.0
C2513 C 0.05718 0.97264 0.45169 0.0
C2514 C 0.03833 0.96407 0.44974 0.0
C2515 C 0.04164 0.03295 0.55909 0.0
C2516 C 0.01752 0.09852 0.50153 0.0
C2517 C 0.01949 0.12759 0.48648 0.0
C2518 C 1.006 0.13256 0.49779 0.0
C2519 C 1.00425 0.10411 0.51285 0.0
C2520 C 0.02519 0.11041 0.48827 0.0
C2521 C 0.99847 0.12092 0.51085 0.0
C2522 C 0.06564 0.04364 0.52111 0.0
C2523 C 0.02163 0.0795 0.50191 0.0
H2524 H 0.07884 0.92493 0.5754 0.0
H2525 H 0.08675 0.97323 0.54558 0.0
H2526 H 0.0993 0.94908 0.56139 0.0
H2527 H 0.03143 0.949 0.55759 0.0
H2528 H 1.00122 0.14552 0.49643 0.0
H2529 H 0.99796 0.09528 0.52294 0.0
H2530 H 0.03528 0.10623 0.47928 0.0
H2531 H 0.98797 0.12488 0.51936 0.0
Tb2532 Tb 0.28762 0.80723 0.7633 0.0
C2533 C 0.24821 0.73877 0.80324 0.0
N2534 N 0.26402 0.75188 0.80867 0.0
C2535 C 0.25661 0.75473 0.84153 0.0
C2536 C 0.23571 0.73351 0.81672 0.0
C2537 C 0.26882 0.75912 0.82774 0.0
C2538 C 0.23987 0.74204 0.83595 0.0
C2539 C 0.22951 0.71536 0.77841 0.0
C2540 C 0.24505 0.72981 0.7843 0.0
C2541 C 0.21677 0.71042 0.79167 0.0
C2542 C 0.21982 0.71951 0.81074 0.0
Tb2543 Tb 0.28272 0.75691 0.78464 0.0
N2544 N 0.25738 0.73529 0.77165 0.0
C2545 C 0.22739 0.70621 0.75943 0.0
C2546 C 0.25609 0.72569 0.75363 0.0
C2547 C 0.24087 0.71126 0.74707 0.0
H2548 H 0.28231 0.76772 0.83258 0.0
H2549 H 0.23973 0.70383 0.73263 0.0
H2550 H 0.29043 0.79439 0.71608 0.0
H2551 H 0.33545 0.85058 0.82062 0.0
H2552 H 0.26708 0.72876 0.7446 0.0
H2553 H 0.21565 0.69498 0.75434 0.0
H2554 H 0.30642 0.82863 0.80717 0.0
H2555 H 0.26035 0.76077 0.85656 0.0
H2556 H 0.20464 0.69942 0.78739 0.0
H2557 H 0.21002 0.71533 0.82089 0.0
H2558 H 0.31314 0.80204 0.69308 0.0
H2559 H 0.2306 0.73842 0.84675 0.0
H2560 H 0.3593 0.86055 0.79908 0.0
N2561 N 0.30768 0.81069 0.74053 0.0
C2562 C 0.32373 0.82324 0.74684 0.0
C2563 C 0.31637 0.80792 0.7082 0.0
C2564 C 0.33684 0.82846 0.73395 0.0
C2565 C 0.30368 0.80325 0.72144 0.0
C2566 C 0.33301 0.82057 0.71446 0.0
N2567 N 0.3144 0.82512 0.77872 0.0
C2568 C 0.31703 0.83224 0.79785 0.0
C2569 C 0.34373 0.84354 0.77342 0.0
C2570 C 0.32715 0.83074 0.76646 0.0
C2571 C 0.34675 0.8506 0.79317 0.0
C2572 C 0.33335 0.84493 0.80542 0.0
H2573 H 0.34272 0.82428 0.70409 0.0
H2574 H 0.36343 0.84573 0.73111 0.0
H2575 H 0.36945 0.8589 0.76557 0.0
O2576 O 0.28143 0.83388 0.77138 0.0
O2577 O 0.31279 0.79406 0.76831 0.0
O2578 O 0.30912 0.77685 0.79429 0.0
O2579 O 0.28031 0.82296 0.74143 0.0
O2580 O 0.27722 0.80491 0.79119 0.0
O2581 O 0.29111 0.78244 0.80422 0.0
O2582 O 0.2985 0.737 0.77429 0.0
O2583 O 0.25559 0.76352 0.77286 0.0
O2584 O 0.25828 0.79381 0.76403 0.0
O2585 O 0.28852 0.7372 0.80249 0.0
O2586 O 0.29081 0.76267 0.75641 0.0
O2587 O 0.27492 0.78318 0.74288 0.0
C2588 C 0.3199 0.78636 0.78308 0.0
C2589 C 0.26163 0.84546 0.74761 0.0
C2590 C 0.24189 0.86837 0.75378 0.0
C2591 C 0.23402 0.86462 0.73423 0.0
C2592 C 0.25336 0.84205 0.7281 0.0
C2593 C 0.23974 0.85159 0.72152 0.0
C2594 C 0.25592 0.85891 0.76047 0.0
C2595 C 0.2817 0.79587 0.8057 0.0
C2596 C 0.27775 0.83675 0.75334 0.0
C2597 C 0.35326 0.84143 0.74086 0.0
C2598 C 0.35669 0.84894 0.7605 0.0
C2599 C 0.24831 0.77769 0.76729 0.0
C2600 C 0.31105 0.71847 0.79781 0.0
C2601 C 0.32506 0.69087 0.79435 0.0
C2602 C 0.33049 0.69326 0.81449 0.0
C2603 C 0.31706 0.72084 0.81794 0.0
C2604 C 0.31539 0.70353 0.78598 0.0
C2605 C 0.32665 0.70825 0.82617 0.0
C2606 C 0.27987 0.76696 0.74232 0.0
C2607 C 0.29701 0.72871 0.78998 0.0
H2608 H 0.22352 0.872 0.7287 0.0
H2609 H 0.25773 0.83231 0.71765 0.0
H2610 H 0.23373 0.84902 0.70642 0.0
H2611 H 0.26238 0.8621 0.77542 0.0
H2612 H 0.33771 0.68345 0.82118 0.0
H2613 H 0.31364 0.73194 0.8275 0.0
H2614 H 0.3105 0.70123 0.77054 0.0
H2615 H 0.33078 0.7099 0.84173 0.0
Tb2616 Tb 0.53338 0.04505 0.99969 0.0
C2617 C 0.5664 1.00456 0.0706 0.0
N2618 N 0.55178 0.99685 0.05702 0.0
C2619 C 0.56379 0.96864 0.05318 0.0
C2620 C 0.5806 0.99476 0.0757 0.0
C2621 C 0.55021 0.97904 0.04843 0.0
C2622 C 0.57914 0.97658 0.06678 0.0
C2623 C 0.58228 0.03117 0.09312 0.0
C2624 C 0.56727 0.02253 0.07898 0.0
C2625 C 0.59667 0.02165 0.09804 0.0
C2626 C 0.59582 1.00347 0.08935 0.0
Tb2627 Tb 0.53151 0.01556 0.04797 0.0
N2628 N 0.55319 0.03136 0.07351 0.0
C2629 C 0.58221 0.04896 0.10216 0.0
C2630 C 0.55231 0.04796 0.08383 0.0
C2631 C 0.56694 0.0572 0.0978 0.0
H2632 H 0.53843 0.97277 0.03797 0.0
H2633 H 0.56624 0.07055 0.10547 0.0
H2634 H 0.52643 0.08757 0.0112 0.0
H2635 H 0.4935 0.98733 0.94814 0.0
H2636 H 0.54026 0.05412 0.08216 0.0
H2637 H 0.59348 0.05611 0.11306 0.0
H2638 H 0.52016 1.0033 0.97052 0.0
H2639 H 0.56245 0.95454 0.04625 0.0
H2640 H 0.60838 0.02814 0.10873 0.0
H2641 H 0.60694 0.99623 0.09337 0.0
H2642 H 0.50302 0.1064 0.00259 0.0
H2643 H 0.58973 0.96856 0.0703 0.0
H2644 H 0.46792 1.0035 0.93895 0.0
N2645 N 0.51271 0.06367 0.99201 0.0
C2646 C 0.49801 0.05612 0.97839 0.0
C2647 C 0.5014 0.09225 0.99571 0.0
C2648 C 0.48418 0.06629 0.97317 0.0
C2649 C 0.51461 0.08151 1.00064 0.0
C2650 C 0.4861 0.08461 0.98193 0.0
N2651 N 0.50961 0.02815 0.9769 0.0
C2652 C 0.50898 0.0105 0.96813 0.0
C2653 C 0.4808 0.02909 0.95717 0.0
C2654 C 0.49629 0.03769 0.97073 0.0
C2655 C 0.47958 0.01061 0.9494 0.0
C2656 C 0.49389 1.00139 0.95469 0.0
H2657 H 0.47578 0.0929 0.97829 0.0
H2658 H 0.45794 0.06532 0.95555 0.0
H2659 H 0.45504 0.03277 0.94142 0.0
O2660 O 0.54885 0.04306 0.97617 0.0
O2661 O 0.50679 0.04081 0.01024 0.0
O2662 O 0.51524 0.01642 0.02109 0.0
O2663 O 0.54761 0.07014 0.99129 0.0
O2664 O 0.54215 0.01712 0.99642 0.0
O2665 O 0.52904 0.99848 0.01912 0.0
O2666 O 0.51037 0.01669 0.06585 0.0
O2667 O 0.55852 0.02107 0.03815 0.0
O2668 O 0.55271 0.04646 0.02557 0.0
O2669 O 0.51628 0.99043 0.05473 0.0
O2670 O 0.52483 0.04428 0.05166 0.0
O2671 O 0.53809 0.06241 0.02866 0.0
C2672 C 0.50294 0.02677 0.01966 0.0
C2673 C 0.56507 0.07005 0.96353 0.0
C2674 C 0.58113 0.06725 0.93509 0.0
C2675 C 0.58534 0.0867 0.93578 0.0
C2676 C 0.56919 0.08954 0.96422 0.0
C2677 C 0.57932 0.09781 0.95032 0.0
C2678 C 0.57104 0.05897 0.94888 0.0
C2679 C 0.538 1.0007 0.00341 0.0
C2680 C 0.55339 0.06107 0.97697 0.0
C2681 C 0.46873 0.05775 0.95974 0.0
C2682 C 0.46705 0.0392 0.95175 0.0
C2683 C 0.5637 0.03482 0.02836 0.0
C2684 C 0.50625 0.99268 0.08587 0.0
C2685 C 0.49794 0.99768 0.11848 0.0
C2686 C 0.5034 0.98112 0.12282 0.0
C2687 C 0.5116 0.97597 0.09019 0.0
C2688 C 0.49927 1.00338 0.10008 0.0
C2689 C 0.51016 0.97026 0.10864 0.0
C2690 C 0.52966 0.06062 0.04478 0.0
C2691 C 0.50704 0.99879 0.06649 0.0
H2692 H 0.59306 0.0932 0.92495 0.0
H2693 H 0.56437 0.09833 0.97526 0.0
H2694 H 0.58236 0.11282 0.95073 0.0
H2695 H 0.56776 0.04389 0.94802 0.0
H2696 H 0.502 0.97641 0.13698 0.0
H2697 H 0.51674 0.96727 0.07933 0.0
H2698 H 0.49467 0.01607 0.09684 0.0
H2699 H 0.5141 0.95732 0.11188 0.0
Tb2700 Tb 0.27351 0.25474 0.26205 0.0
C2701 C 0.33328 0.32061 0.30773 0.0
N2702 N 0.31731 0.31008 0.31202 0.0
C2703 C 0.33147 0.30991 0.34464 0.0
C2704 C 0.34911 0.32594 0.32171 0.0
C2705 C 0.31608 0.30508 0.33036 0.0
C2706 C 0.3481 0.32028 0.34027 0.0
C2707 C 0.34967 0.3379 0.28455 0.0
C2708 C 0.33357 0.32646 0.28933 0.0
C2709 C 0.36556 0.343 0.29834 0.0
C2710 C 0.36528 0.33704 0.31686 0.0
Tb2711 Tb 0.29284 0.30476 0.28786 0.0
N2712 N 0.31791 0.32134 0.27635 0.0
C2713 C 0.34914 0.34428 0.26623 0.0
C2714 C 0.31693 0.32866 0.25907 0.0
C2715 C 0.33261 0.33982 0.25354 0.0
H2716 H 0.30307 0.29819 0.33445 0.0
H2717 H 0.33179 0.34537 0.23969 0.0
H2718 H 0.26414 0.26029 0.21505 0.0
H2719 H 0.2312 0.22304 0.31363 0.0
H2720 H 0.30395 0.32667 0.24984 0.0
H2721 H 0.36118 0.35316 0.26202 0.0
H2722 H 0.25992 0.23882 0.30282 0.0
H2723 H 0.33037 0.30596 0.35913 0.0
H2724 H 0.37805 0.3518 0.29493 0.0
H2725 H 0.37757 0.34131 0.32743 0.0
H2726 H 0.23726 0.25126 0.18987 0.0
H2727 H 0.35993 0.32419 0.35145 0.0
H2728 H 0.20245 0.21415 0.29044 0.0
N2729 N 0.24926 0.25007 0.23784 0.0
C2730 C 0.23291 0.24058 0.24252 0.0
C2731 C 0.23578 0.24841 0.20468 0.0
C2732 C 0.21732 0.23462 0.22833 0.0
C2733 C 0.25093 0.25393 0.21917 0.0
C2734 C 0.21892 0.23869 0.20925 0.0
N2735 N 0.24735 0.24215 0.27488 0.0
C2736 C 0.24733 0.2368 0.29313 0.0
C2737 C 0.21529 0.22638 0.2668 0.0
C2738 C 0.23192 0.23653 0.2616 0.0
C2739 C 0.21492 0.22201 0.2859 0.0
C2740 C 0.23107 0.22713 0.29908 0.0
H2741 H 0.2073 0.23419 0.1979 0.0
H2742 H 0.18871 0.21968 0.22275 0.0
H2743 H 0.18693 0.21249 0.25639 0.0
O2744 O 0.27805 0.22889 0.26954 0.0
O2745 O 0.25264 0.27308 0.26579 0.0
O2746 O 0.26495 0.29163 0.29401 0.0
O2747 O 0.27236 0.23336 0.23954 0.0
O2748 O 0.28829 0.25731 0.29198 0.0
O2749 O 0.28147 0.28421 0.30607 0.0
O2750 O 0.28176 0.32813 0.28087 0.0
O2751 O 0.31533 0.289 0.28173 0.0
O2752 O 0.30282 0.26464 0.25753 0.0
O2753 O 0.29293 0.32554 0.31066 0.0
O2754 O 0.28 0.30132 0.25715 0.0
O2755 O 0.28629 0.27394 0.24305 0.0
C2756 C 0.25045 0.28388 0.28136 0.0
C2757 C 0.29139 0.21191 0.24634 0.0
C2758 C 0.30725 0.1869 0.25266 0.0
C2759 C 0.31589 0.18885 0.2357 0.0
C2760 C 0.30022 0.2142 0.22943 0.0
C2761 C 0.31253 0.2027 0.22422 0.0
C2762 C 0.29523 0.19845 0.25801 0.0
C2763 C 0.28629 0.26813 0.30755 0.0
C2764 C 0.27689 0.22197 0.25139 0.0
C2765 C 0.20077 0.22453 0.23351 0.0
C2766 C 0.19975 0.22045 0.25268 0.0
C2767 C 0.31727 0.27576 0.26817 0.0
C2768 C 0.28083 0.3532 0.30618 0.0
C2769 C 0.26745 0.37988 0.29976 0.0
C2770 C 0.2696 0.3859 0.3198 0.0
C2771 C 0.28315 0.35929 0.32624 0.0
C2772 C 0.27322 0.36367 0.293 0.0
C2773 C 0.27757 0.37565 0.33298 0.0
C2774 C 0.28382 0.29102 0.24205 0.0
C2775 C 0.28516 0.33538 0.29906 0.0
H2776 H 0.32497 0.17955 0.23129 0.0
H2777 H 0.29737 0.22454 0.22009 0.0
H2778 H 0.31912 0.20424 0.21107 0.0
H2779 H 0.28818 0.19634 0.27086 0.0
H2780 H 0.26521 0.39853 0.32519 0.0
H2781 H 0.28896 0.35128 0.3367 0.0
H2782 H 0.27122 0.35895 0.27751 0.0
H2783 H 0.27924 0.38028 0.34843 0.0
Tb2784 Tb 0.5423 0.50599 0.02479 0.0
C2785 C 0.51292 0.57419 0.0649 0.0
N2786 N 0.50508 0.56226 0.04881 0.0
C2787 C 0.47493 0.5604 0.05973 0.0
C2788 C 0.50201 0.57959 0.07918 0.0
C2789 C 0.48632 0.55538 0.04598 0.0
C2790 C 0.48279 0.57255 0.0764 0.0
C2791 C 0.54085 0.59219 0.08425 0.0
C2792 C 0.5321 0.58041 0.06739 0.0
C2793 C 0.53 0.59786 0.09839 0.0
C2794 C 0.51064 0.59158 0.09586 0.0
Tb2795 Tb 0.52509 0.55564 0.02729 0.0
N2796 N 0.54223 0.57402 0.05375 0.0
C2797 C 0.56026 0.59766 0.08653 0.0
C2798 C 0.56112 0.57963 0.05574 0.0
C2799 C 0.57042 0.59138 0.07219 0.0
H2800 H 0.47999 0.54641 0.03289 0.0
H2801 H 0.58543 0.59563 0.07377 0.0
H2802 H 0.58703 0.50666 0.02178 0.0
H2803 H 0.481 0.46275 0.98287 0.0
H2804 H 0.56915 0.57518 0.04479 0.0
H2805 H 0.56752 0.60669 0.0993 0.0
H2806 H 0.49893 0.48237 0.01172 0.0
H2807 H 0.46008 0.55497 0.05739 0.0
H2808 H 0.53647 0.60694 0.11143 0.0
H2809 H 0.50248 0.59593 0.10698 0.0
H2810 H 0.60641 0.49741 0.99685 0.0
H2811 H 0.47393 0.57638 0.08703 0.0
H2812 H 0.49717 0.45355 0.95494 0.0
N2813 N 0.56144 0.49531 0.00427 0.0
C2814 C 0.55299 0.4847 0.98761 0.0
C2815 C 0.59137 0.4939 0.99396 0.0
C2816 C 0.56337 0.47876 0.97307 0.0
C2817 C 0.58039 0.49941 0.00793 0.0
C2818 C 0.58281 0.48375 0.97631 0.0
N2819 N 0.52455 0.48593 0.99973 0.0
C2820 C 0.50594 0.4793 0.99937 0.0
C2821 C 0.52435 0.46815 0.96861 0.0
C2822 C 0.53384 0.47961 0.98535 0.0
C2823 C 0.50502 0.46246 0.9675 0.0
C2824 C 0.49583 0.46774 0.98317 0.0
H2825 H 0.59133 0.47952 0.96549 0.0
H2826 H 0.56168 0.46338 0.94449 0.0
H2827 H 0.52747 0.45396 0.94064 0.0
O2828 O 0.53167 0.48359 0.04028 0.0
O2829 O 0.53644 0.51668 0.99625 0.0
O2830 O 0.51465 0.53448 0.00243 0.0
O2831 O 0.56102 0.49337 0.04102 0.0
O2832 O 0.51599 0.50869 0.03697 0.0
O2833 O 0.50365 0.53021 0.02041 0.0
O2834 O 0.53472 0.57907 0.01193 0.0
O2835 O 0.53066 0.54403 0.05515 0.0
O2836 O 0.55359 0.52895 0.04745 0.0
O2837 O 0.50606 0.57145 0.01768 0.0
O2838 O 0.55153 0.55467 0.01513 0.0
O2839 O 0.56502 0.53058 0.02627 0.0
C2840 C 0.52421 0.52664 0.9902 0.0
C2841 C 0.5517 0.46201 0.0472 0.0
C2842 C 0.54934 0.43322 0.06286 0.0
C2843 C 0.56244 0.42766 0.05137 0.0
C2844 C 0.56455 0.45581 0.03571 0.0
C2845 C 0.56992 0.43883 0.03789 0.0
C2846 C 0.54399 0.45053 0.06079 0.0
C2847 C 0.50175 0.51601 0.03069 0.0
C2848 C 0.54819 0.48124 0.0468 0.0
C2849 C 0.55399 0.46793 0.95595 0.0
C2850 C 0.53451 0.46258 0.95375 0.0
C2851 C 0.54392 0.53512 0.06047 0.0
C2852 C 0.51215 0.59853 1.00043 0.0
C2853 C 0.51728 0.62601 0.98257 0.0
C2854 C 0.49853 0.62723 0.98313 0.0
C2855 C 0.49344 0.60038 1.00058 0.0
C2856 C 0.52422 0.61152 0.99125 0.0
C2857 C 0.48676 0.61454 0.99203 0.0
C2858 C 0.5659 0.5464 0.01831 0.0
C2859 C 0.51808 0.58292 0.0101 0.0
H2860 H 0.56696 0.4146 0.05292 0.0
H2861 H 0.57088 0.4643 0.02537 0.0
H2862 H 0.58011 0.4344 0.02923 0.0
H2863 H 0.53427 0.4552 0.06998 0.0
H2864 H 0.49295 0.63815 0.9766 0.0
H2865 H 0.48377 0.59083 0.0074 0.0
H2866 H 0.53868 0.61044 0.99093 0.0
H2867 H 0.47233 0.6157 0.99233 0.0
Tb2868 Tb 0.78568 0.3056 0.26451 0.0
C2869 C 0.74814 0.23699 0.30414 0.0
N2870 N 0.76382 0.25027 0.30973 0.0
C2871 C 0.75604 0.25313 0.34246 0.0
C2872 C 0.73554 0.23166 0.31753 0.0
C2873 C 0.76821 0.2579 0.32874 0.0
C2874 C 0.73959 0.24005 0.33682 0.0
C2875 C 0.7283 0.21521 0.27856 0.0
C2876 C 0.74456 0.22876 0.2848 0.0
C2877 C 0.71578 0.20992 0.29192 0.0
C2878 C 0.71938 0.21811 0.31132 0.0
Tb2879 Tb 0.78255 0.25523 0.28583 0.0
N2880 N 0.7567 0.23451 0.27201 0.0
C2881 C 0.72508 0.20744 0.25903 0.0
C2882 C 0.75391 0.22662 0.25312 0.0
C2883 C 0.73798 0.21311 0.24629 0.0
H2884 H 0.78129 0.26725 0.33368 0.0
H2885 H 0.73577 0.2069 0.23127 0.0
H2886 H 0.78838 0.29396 0.21678 0.0
H2887 H 0.82794 0.35837 0.31776 0.0
H2888 H 0.76416 0.23025 0.24349 0.0
H2889 H 0.71276 0.19696 0.25368 0.0
H2890 H 0.80072 0.33346 0.30519 0.0
H2891 H 0.75952 0.25933 0.35746 0.0
H2892 H 0.70322 0.19951 0.28738 0.0
H2893 H 0.70956 0.21386 0.32142 0.0
H2894 H 0.811 0.30127 0.19382 0.0
H2895 H 0.73026 0.23633 0.34754 0.0
H2896 H 0.8523 0.36771 0.29654 0.0
N2897 N 0.8055 0.31039 0.24128 0.0
C2898 C 0.8209 0.32398 0.24698 0.0
C2899 C 0.81416 0.30746 0.20884 0.0
C2900 C 0.8339 0.32927 0.23396 0.0
C2901 C 0.80155 0.30286 0.22219 0.0
C2902 C 0.83054 0.32053 0.21481 0.0
N2903 N 0.81047 0.32784 0.27794 0.0
C2904 C 0.81162 0.33704 0.29616 0.0
C2905 C 0.83874 0.3477 0.27205 0.0
C2906 C 0.82326 0.33325 0.26574 0.0
C2907 C 0.84053 0.35662 0.29109 0.0
C2908 C 0.82685 0.35133 0.30315 0.0
H2909 H 0.84015 0.32425 0.20435 0.0
H2910 H 0.8597 0.34763 0.2305 0.0
H2911 H 0.86403 0.36363 0.26388 0.0
O2912 O 0.77113 0.32699 0.27429 0.0
O2913 O 0.81239 0.30038 0.2797 0.0
O2914 O 0.81032 0.26836 0.27896 0.0
O2915 O 0.77754 0.32241 0.24445 0.0
O2916 O 0.77534 0.29871 0.29142 0.0
O2917 O 0.79276 0.28002 0.306 0.0
O2918 O 0.78924 0.22874 0.27831 0.0
O2919 O 0.75554 0.26505 0.27918 0.0
O2920 O 0.75887 0.28592 0.25606 0.0
O2921 O 0.7965 0.24353 0.30778 0.0
O2922 O 0.79286 0.26059 0.25859 0.0
O2923 O 0.77736 0.28079 0.2439 0.0
C2924 C 0.82018 0.28556 0.28123 0.0
C2925 C 0.76106 0.34726 0.25036 0.0
C2926 C 0.74491 0.37302 0.25618 0.0
C2927 C 0.74407 0.37534 0.23634 0.0
C2928 C 0.76004 0.34992 0.2305 0.0
C2929 C 0.75161 0.36384 0.2236 0.0
C2930 C 0.75343 0.35895 0.26329 0.0
C2931 C 0.78563 0.29504 0.30634 0.0
C2932 C 0.77002 0.33213 0.25683 0.0
C2933 C 0.84953 0.34346 0.24028 0.0
C2934 C 0.85195 0.35264 0.25927 0.0
C2935 C 0.74837 0.27472 0.26615 0.0
C2936 C 0.80571 0.21352 0.30255 0.0
C2937 C 0.8212 0.1872 0.29642 0.0
C2938 C 0.82412 0.18639 0.31653 0.0
C2939 C 0.80875 0.21232 0.32261 0.0
C2940 C 0.81187 0.20076 0.28934 0.0
C2941 C 0.81787 0.19882 0.32952 0.0
C2942 C 0.78395 0.26546 0.24347 0.0
C2943 C 0.79716 0.22883 0.29595 0.0
H2944 H 0.7375 0.38609 0.23072 0.0
H2945 H 0.76572 0.34117 0.22015 0.0
H2946 H 0.75088 0.3657 0.20831 0.0
H2947 H 0.75403 0.35712 0.2786 0.0
H2948 H 0.83129 0.17606 0.3222 0.0
H2949 H 0.80418 0.22193 0.33304 0.0
H2950 H 0.80978 0.20157 0.27381 0.0
H2951 H 0.82022 0.19809 0.34501 0.0
Tb2952 Tb 0.0296 0.54399 0.49811 0.0
C2953 C 0.06845 0.50472 0.57069 0.0
N2954 N 0.05385 0.49725 0.55709 0.0
C2955 C 0.06661 0.4697 0.55141 0.0
C2956 C 0.08314 0.49528 0.57481 0.0
C2957 C 0.05248 0.47976 0.54778 0.0
C2958 C 0.08216 0.4776 0.56479 0.0
C2959 C 0.08262 0.52971 0.59584 0.0
C2960 C 0.06821 0.52163 0.58089 0.0
C2961 C 0.09784 0.5209 0.59946 0.0
C2962 C 0.09808 0.50367 0.58897 0.0
Tb2963 Tb 0.03291 0.51569 0.5498 0.0
N2964 N 0.05317 0.52952 0.57693 0.0
C2965 C 0.08096 0.546 0.60712 0.0
C2966 C 0.05064 0.5443 0.58923 0.0
C2967 C 0.06467 0.55306 0.6041 0.0
H2968 H 0.04047 0.47348 0.53761 0.0
H2969 H 0.0628 0.56512 0.61337 0.0
H2970 H 0.02291 0.58719 0.51027 0.0
H2971 H 0.9918 0.48815 0.44385 0.0
H2972 H 0.03781 0.54945 0.58794 0.0
H2973 H 0.09174 0.55272 0.61871 0.0
H2974 H 0.01675 0.50279 0.4693 0.0
H2975 H 0.06549 0.45588 0.54385 0.0
H2976 H 0.10919 0.52701 0.6107 0.0
H2977 H 0.10964 0.49677 0.5922 0.0
H2978 H 1.00018 0.60629 0.50081 0.0
H2979 H 0.09312 0.46982 0.56756 0.0
H2980 H 0.96791 0.50553 0.4324 0.0
N2981 N 1.00965 0.5634 0.49036 0.0
C2982 C 0.99576 0.55644 0.47566 0.0
C2983 C 0.99869 0.59224 0.49371 0.0
C2984 C 0.98252 0.56704 0.46969 0.0
C2985 C 0.01144 0.5812 0.49921 0.0
C2986 C 0.98412 0.58511 0.47896 0.0
N2987 N 1.00713 0.52839 0.47367 0.0
C2988 C 1.00645 0.51067 0.46514 0.0
C2989 C 0.97994 0.53048 0.45205 0.0
C2990 C 0.99452 0.53842 0.46691 0.0
C2991 C 0.9789 0.51214 0.44382 0.0
C2992 C 0.9923 0.50226 0.45032 0.0
H2993 H 0.97423 0.5937 0.47478 0.0
H2994 H 0.95773 0.56714 0.45007 0.0
H2995 H 0.95544 0.53511 0.43466 0.0
O2996 O 0.04645 0.54142 0.47568 0.0
O2997 O 1.00191 0.53244 0.50406 0.0
O2998 O 0.02083 0.52452 0.52524 0.0
O2999 O 0.04363 0.56872 0.48914 0.0
O3000 O 0.03845 0.5161 0.49606 0.0
O3001 O 0.02837 0.49804 0.52095 0.0
O3002 O 0.01107 0.51685 0.56664 0.0
O3003 O 0.05892 0.52268 0.53794 0.0
O3004 O 0.05004 0.54649 0.52376 0.0
O3005 O 0.01589 0.4905 0.55411 0.0
O3006 O 0.02897 0.54523 0.55451 0.0
O3007 O 0.02958 0.56156 0.52651 0.0
C3008 C 1.00374 0.52409 0.51911 0.0
C3009 C 0.06294 0.56844 0.46298 0.0
C3010 C 0.08005 0.56605 0.43526 0.0
C3011 C 0.08552 0.5855 0.43721 0.0
C3012 C 0.06829 0.58794 0.46485 0.0
C3013 C 0.07956 0.59641 0.45196 0.0
C3014 C 0.06877 0.55755 0.44807 0.0
C3015 C 0.03503 0.49998 0.50384 0.0
C3016 C 0.05065 0.55942 0.47593 0.0
C3017 C 0.96805 0.55923 0.45481 0.0
C3018 C 0.96676 0.54099 0.44603 0.0
C3019 C 0.06195 0.53556 0.52631 0.0
C3020 C 1.00524 0.49203 0.58512 0.0
C3021 C 0.99655 0.49666 0.61768 0.0
C3022 C 1.00361 0.48097 0.62238 0.0
C3023 C 0.01215 0.47622 0.58984 0.0
C3024 C 0.99713 0.50196 0.59901 0.0
C3025 C 0.01124 0.4707 0.60842 0.0
C3026 C 0.02815 0.56037 0.54546 0.0
C3027 C 1.00677 0.49885 0.56614 0.0
H3028 H 0.09417 0.59218 0.42718 0.0
H3029 H 0.06369 0.59661 0.47617 0.0
H3030 H 0.08361 0.61143 0.45334 0.0
H3031 H 0.06455 0.54249 0.44632 0.0
H3032 H 1.00292 0.4765 0.63673 0.0
H3033 H 0.01837 0.46822 0.5793 0.0
H3034 H 0.9916 0.51409 0.59545 0.0
H3035 H 0.01651 0.45851 0.61204 0.0
Tb3036 Tb 0.80904 0.77219 0.2762 0.0
C3037 C 0.74054 0.79955 0.23488 0.0
N3038 N 0.75259 0.80794 0.25069 0.0
C3039 C 0.75494 0.83732 0.23795 0.0
C3040 C 0.7354 0.80972 0.21978 0.0
C3041 C 0.75964 0.82664 0.25256 0.0
C3042 C 0.74282 0.82883 0.22146 0.0
C3043 C 0.72125 0.77125 0.21752 0.0
C3044 C 0.73371 0.78053 0.23368 0.0
C3045 C 0.71607 0.78133 0.2024 0.0
C3046 C 0.72315 0.8005 0.20352 0.0
Tb3047 Tb 0.75924 0.78893 0.27333 0.0
N3048 N 0.73953 0.77112 0.24829 0.0
C3049 C 0.71428 0.75218 0.21713 0.0
C3050 C 0.73184 0.75284 0.24858 0.0
C3051 C 0.7194 0.74299 0.23287 0.0
H3052 H 0.76858 0.83347 0.26548 0.0
H3053 H 0.71353 0.72841 0.23307 0.0
H3054 H 0.79863 0.7275 0.28379 0.0
H3055 H 0.8568 0.83144 0.31596 0.0
H3056 H 0.7347 0.74593 0.26111 0.0
H3057 H 0.70461 0.74453 0.20501 0.0
H3058 H 0.83442 0.81466 0.28841 0.0
H3059 H 0.76058 0.85212 0.23948 0.0
H3060 H 0.70655 0.77443 0.18981 0.0
H3061 H 0.71904 0.80807 0.19174 0.0
H3062 H 0.80587 0.70861 0.30978 0.0
H3063 H 0.73922 0.83715 0.21016 0.0
H3064 H 0.86592 0.81478 0.34352 0.0
N3065 N 0.81517 0.75277 0.29862 0.0
C3066 C 0.82766 0.76078 0.31424 0.0
C3067 C 0.81198 0.7233 0.31129 0.0
C3068 C 0.83254 0.75039 0.32925 0.0
C3069 C 0.80765 0.73417 0.29672 0.0
C3070 C 0.82439 0.73146 0.32769 0.0
N3071 N 0.82942 0.78936 0.30101 0.0
C3072 C 0.83751 0.80753 0.30073 0.0
C3073 C 0.84831 0.78848 0.3312 0.0
C3074 C 0.83527 0.77963 0.3153 0.0
C3075 C 0.85584 0.80744 0.33158 0.0
C3076 C 0.85059 0.81694 0.31614 0.0
H3077 H 0.82772 0.723 0.33895 0.0
H3078 H 0.84918 0.75149 0.35701 0.0
H3079 H 0.86311 0.78479 0.35865 0.0
O3080 O 0.83147 0.78102 0.25933 0.0
O3081 O 0.79809 0.77851 0.30449 0.0
O3082 O 0.7798 0.79999 0.29849 0.0
O3083 O 0.82509 0.75303 0.26744 0.0
O3084 O 0.80728 0.79881 0.26449 0.0
O3085 O 0.78464 0.81063 0.27989 0.0
O3086 O 0.73659 0.77983 0.28986 0.0
O3087 O 0.77095 0.78352 0.24533 0.0
O3088 O 0.78802 0.7612 0.25143 0.0
O3089 O 0.74317 0.80798 0.28217 0.0
O3090 O 0.76118 0.76256 0.28549 0.0
O3091 O 0.78347 0.75069 0.26969 0.0
C3092 C 0.78784 0.79043 0.31058 0.0
C3093 C 0.85124 0.75848 0.24869 0.0
C3094 C 0.87874 0.76342 0.23081 0.0
C3095 C 0.87955 0.74454 0.231 0.0
C3096 C 0.85265 0.73963 0.24839 0.0
C3097 C 0.86664 0.73279 0.23968 0.0
C3098 C 0.8645 0.77054 0.23977 0.0
C3099 C 0.79919 0.81271 0.27007 0.0
C3100 C 0.83589 0.76462 0.25866 0.0
C3101 C 0.8453 0.75922 0.34529 0.0
C3102 C 0.85323 0.77819 0.34622 0.0
C3103 C 0.78045 0.77094 0.23921 0.0
C3104 C 0.7176 0.80272 0.30157 0.0
C3105 C 0.68948 0.79776 0.31841 0.0
C3106 C 0.69069 0.81711 0.32125 0.0
C3107 C 0.71825 0.82203 0.30488 0.0
C3108 C 0.70309 0.79044 0.30856 0.0
C3109 C 0.70495 0.8291 0.31459 0.0
C3110 C 0.7692 0.74862 0.2799 0.0
C3111 C 0.73244 0.79635 0.29099 0.0
H3112 H 0.89029 0.73881 0.22429 0.0
H3113 H 0.84288 0.72996 0.25497 0.0
H3114 H 0.86747 0.71825 0.23966 0.0
H3115 H 0.86373 0.78511 0.23975 0.0
H3116 H 0.68047 0.823 0.32872 0.0
H3117 H 0.72916 0.83186 0.29996 0.0
H3118 H 0.70229 0.77552 0.30625 0.0
H3119 H 0.70569 0.84399 0.31695 0.0
Tb3120 Tb 0.7691 0.28309 0.80099 0.0
C3121 C 0.81024 0.24801 0.72791 0.0
N3122 N 0.81726 0.26273 0.74155 0.0
C3123 C 0.84617 0.25206 0.74595 0.0
C3124 C 0.82078 0.23441 0.723 0.0
C3125 C 0.83508 0.26508 0.75042 0.0
C3126 C 0.83894 0.23657 0.73228 0.0
C3127 C 0.78436 0.2314 0.70485 0.0
C3128 C 0.79234 0.24656 0.71905 0.0
C3129 C 0.79463 0.2176 0.70007 0.0
C3130 C 0.81282 0.21912 0.70912 0.0
Tb3131 Tb 0.79757 0.28203 0.74988 0.0
N3132 N 0.78282 0.26007 0.72436 0.0
C3133 C 0.76636 0.2306 0.69581 0.0
C3134 C 0.76556 0.25974 0.71475 0.0
C3135 C 0.75703 0.24496 0.70061 0.0
H3136 H 0.84083 0.27698 0.76099 0.0
H3137 H 0.74326 0.24474 0.69335 0.0
H3138 H 0.72636 0.29047 0.78925 0.0
H3139 H 0.82541 0.32002 0.85553 0.0
H3140 H 0.75811 0.27075 0.71744 0.0
H3141 H 0.7597 0.21917 0.68487 0.0
H3142 H 0.81028 0.29501 0.83045 0.0
H3143 H 0.86024 0.25394 0.75313 0.0
H3144 H 0.78867 0.20579 0.68931 0.0
H3145 H 0.82063 0.20844 0.70524 0.0
H3146 H 0.70743 0.31333 0.79895 0.0
H3147 H 0.8475 0.22643 0.72893 0.0
H3148 H 0.80849 0.34427 0.86703 0.0
N3149 N 0.74999 0.30311 0.80944 0.0
C3150 C 0.75703 0.31676 0.82436 0.0
C3151 C 0.72143 0.31455 0.80612 0.0
C3152 C 0.74669 0.3302 0.83036 0.0
C3153 C 0.73232 0.30172 0.80048 0.0
C3154 C 0.72867 0.32892 0.82105 0.0
N3155 N 0.78488 0.30504 0.82602 0.0
C3156 C 0.80259 0.30549 0.83449 0.0
C3157 C 0.78326 0.33233 0.84776 0.0
C3158 C 0.77505 0.31775 0.83301 0.0
C3159 C 0.80165 0.33324 0.85574 0.0
C3160 C 0.81128 0.31966 0.84919 0.0
H3161 H 0.72025 0.33895 0.82526 0.0
H3162 H 0.74703 0.35513 0.84992 0.0
H3163 H 0.77911 0.35705 0.86508 0.0
O3164 O 0.77163 0.26497 0.82206 0.0
O3165 O 0.77968 0.31129 0.7957 0.0
O3166 O 0.78873 0.29313 0.77483 0.0
O3167 O 0.74426 0.269 0.80983 0.0
O3168 O 0.79725 0.27455 0.80296 0.0
O3169 O 0.81528 0.2859 0.7786 0.0
O3170 O 0.7961 0.30227 0.73111 0.0
O3171 O 0.79066 0.25537 0.7604 0.0
O3172 O 0.76679 0.26375 0.77461 0.0
O3173 O 0.82226 0.30063 0.74705 0.0
O3174 O 0.76921 0.28926 0.7462 0.0
O3175 O 0.75151 0.28179 0.77223 0.0
C3176 C 0.78866 0.31004 0.78114 0.0
C3177 C 0.74486 0.24798 0.83436 0.0
C3178 C 0.74705 0.23404 0.8642 0.0
C3179 C 0.72788 0.22661 0.86105 0.0
C3180 C 0.7257 0.24046 0.83101 0.0
C3181 C 0.71726 0.22966 0.84432 0.0
C3182 C 0.75555 0.2444 0.85076 0.0
C3183 C 0.81341 0.27855 0.79535 0.0
C3184 C 0.75363 0.26089 0.82196 0.0
C3185 C 0.75474 0.34463 0.84518 0.0
C3186 C 0.773 0.34572 0.85383 0.0
C3187 C 0.77778 0.25196 0.7719 0.0
C3188 C 0.823 0.31104 0.71597 0.0
C3189 C 0.82076 0.31753 0.68241 0.0
C3190 C 0.83992 0.31798 0.68241 0.0
C3191 C 0.84222 0.31173 0.71598 0.0
C3192 C 0.8124 0.31407 0.69915 0.0
C3193 C 0.8506 0.31513 0.69919 0.0
C3194 C 0.75332 0.28702 0.7544 0.0
C3195 C 0.81402 0.30845 0.73365 0.0
H3196 H 0.7212 0.21852 0.87152 0.0
H3197 H 0.71724 0.24317 0.81834 0.0
H3198 H 0.70247 0.22395 0.84184 0.0
H3199 H 0.77032 0.2504 0.85361 0.0
H3200 H 0.84671 0.3211 0.66966 0.0
H3201 H 0.85078 0.30986 0.72896 0.0
H3202 H 0.79763 0.31403 0.69907 0.0
H3203 H 0.86543 0.31583 0.69926 0.0
Tb3204 Tb 0.77392 0.75442 0.76409 0.0
C3205 C 0.83443 0.82001 0.80473 0.0
N3206 N 0.81862 0.8093 0.80936 0.0
C3207 C 0.8336 0.80947 0.84178 0.0
C3208 C 0.85066 0.82509 0.81826 0.0
C3209 C 0.81784 0.80488 0.82798 0.0
C3210 C 0.85015 0.81942 0.83685 0.0
C3211 C 0.85032 0.83766 0.78136 0.0
C3212 C 0.8342 0.82663 0.78661 0.0
C3213 C 0.86655 0.84234 0.79468 0.0
C3214 C 0.86668 0.83618 0.81311 0.0
Tb3215 Tb 0.79321 0.80646 0.78657 0.0
N3216 N 0.8182 0.822 0.77403 0.0
C3217 C 0.84964 0.84366 0.76285 0.0
C3218 C 0.81729 0.82838 0.75623 0.0
C3219 C 0.83305 0.83899 0.75024 0.0
H3220 H 0.80492 0.79895 0.83292 0.0
H3221 H 0.83229 0.8439 0.73606 0.0
H3222 H 0.7641 0.76192 0.71723 0.0
H3223 H 0.73244 0.71777 0.81301 0.0
H3224 H 0.80432 0.82597 0.74692 0.0
H3225 H 0.86177 0.85206 0.75824 0.0
H3226 H 0.76113 0.73567 0.8033 0.0
H3227 H 0.83278 0.80587 0.85644 0.0
H3228 H 0.87904 0.85089 0.79094 0.0
H3229 H 0.87922 0.84023 0.82336 0.0
H3230 H 0.73676 0.75624 0.69315 0.0
H3231 H 0.86224 0.82323 0.84771 0.0
H3232 H 0.70338 0.71085 0.79016 0.0
N3233 N 0.74928 0.75305 0.74068 0.0
C3234 C 0.73288 0.7432 0.74505 0.0
C3235 C 0.73532 0.75302 0.70785 0.0
C3236 C 0.71697 0.7385 0.73106 0.0
C3237 C 0.75081 0.75705 0.72199 0.0
C3238 C 0.71828 0.7439 0.71245 0.0
N3239 N 0.74802 0.7405 0.77614 0.0
C3240 C 0.74833 0.73357 0.79369 0.0
C3241 C 0.71577 0.72574 0.76782 0.0
C3242 C 0.73229 0.73655 0.76316 0.0
C3243 C 0.71582 0.71919 0.78607 0.0
C3244 C 0.73217 0.72312 0.79905 0.0
H3245 H 0.70643 0.74034 0.70126 0.0
H3246 H 0.68821 0.724 0.72509 0.0
H3247 H 0.68709 0.7131 0.75732 0.0
O3248 O 0.77577 0.7271 0.7688 0.0
O3249 O 0.75478 0.7688 0.78016 0.0
O3250 O 0.7628 0.79997 0.77689 0.0
O3251 O 0.77326 0.73487 0.73986 0.0
O3252 O 0.78971 0.75858 0.79309 0.0
O3253 O 0.78262 0.78605 0.80586 0.0
O3254 O 0.79322 0.83479 0.7852 0.0
O3255 O 0.81439 0.79237 0.77365 0.0
O3256 O 0.8047 0.76016 0.76812 0.0
O3257 O 0.78879 0.82263 0.81162 0.0
O3258 O 0.77841 0.80225 0.75712 0.0
O3259 O 0.78554 0.77456 0.74496 0.0
C3260 C 0.75044 0.78545 0.78009 0.0
C3261 C 0.78862 0.7101 0.74493 0.0
C3262 C 0.80695 0.68727 0.75318 0.0
C3263 C 0.81208 0.68586 0.73428 0.0
C3264 C 0.79356 0.70851 0.72589 0.0
C3265 C 0.80531 0.69644 0.72064 0.0
C3266 C 0.79524 0.69928 0.75843 0.0
C3267 C 0.78668 0.76961 0.80795 0.0
C3268 C 0.7753 0.72163 0.75038 0.0
C3269 C 0.70048 0.7278 0.73573 0.0
C3270 C 0.69987 0.72152 0.75405 0.0
C3271 C 0.81771 0.7754 0.7694 0.0
C3272 C 0.77576 0.84907 0.80683 0.0
C3273 C 0.75935 0.87325 0.79767 0.0
C3274 C 0.75199 0.87364 0.81555 0.0
C3275 C 0.76849 0.8497 0.82478 0.0
C3276 C 0.77115 0.86094 0.79336 0.0
C3277 C 0.75658 0.86188 0.82904 0.0
C3278 C 0.78192 0.79112 0.74259 0.0
C3279 C 0.78965 0.83762 0.80305 0.0
H3280 H 0.82093 0.67628 0.72999 0.0
H3281 H 0.78817 0.71636 0.71501 0.0
H3282 H 0.80897 0.69511 0.70594 0.0
H3283 H 0.79116 0.69997 0.77303 0.0
H3284 H 0.74312 0.88336 0.81928 0.0
H3285 H 0.77229 0.84104 0.83565 0.0
H3286 H 0.77695 0.86089 0.77961 0.0
H3287 H 0.75117 0.86245 0.84296 0.0
Tb3288 Tb 0.55909 0.54015 0.53662 0.0
C3289 C 0.49636 0.47882 0.49118 0.0
N3290 N 0.50563 0.49558 0.48719 0.0
C3291 C 0.50613 0.48272 0.45416 0.0
C3292 C 0.49178 0.46332 0.47674 0.0
C3293 C 0.51004 0.4978 0.46878 0.0
C3294 C 0.49704 0.46539 0.45816 0.0
C3295 C 0.48022 0.46054 0.51387 0.0
C3296 C 0.49075 0.4774 0.50965 0.0
C3297 C 0.47579 0.44507 0.49955 0.0
C3298 C 0.48159 0.44644 0.48107 0.0
Tb3299 Tb 0.50816 0.51933 0.5117 0.0
N3300 N 0.49494 0.49275 0.52314 0.0
C3301 C 0.47383 0.45993 0.53215 0.0
C3302 C 0.4878 0.49248 0.5405 0.0
C3303 C 0.4775 0.47603 0.54544 0.0
H3304 H 0.51544 0.51133 0.46481 0.0
H3305 H 0.47188 0.47594 0.55925 0.0
H3306 H 0.55548 0.54921 0.58439 0.0
H3307 H 0.59323 0.58151 0.48591 0.0
H3308 H 0.489 0.50514 0.55007 0.0
H3309 H 0.46552 0.4473 0.53587 0.0
H3310 H 0.57637 0.5531 0.49664 0.0
H3311 H 0.50959 0.48464 0.43962 0.0
H3312 H 0.4676 0.43205 0.5025 0.0
H3313 H 0.47782 0.43444 0.47009 0.0
H3314 H 0.56496 0.57595 0.60955 0.0
H3315 H 0.49367 0.45383 0.44665 0.0
H3316 H 0.60279 0.61021 0.50912 0.0
N3317 N 0.56523 0.56414 0.56137 0.0
C3318 C 0.57509 0.58039 0.55679 0.0
C3319 C 0.56763 0.57747 0.5947 0.0
C3320 C 0.58136 0.5959 0.57102 0.0
C3321 C 0.56183 0.56239 0.58017 0.0
C3322 C 0.57734 0.59432 0.5901 0.0
N3323 N 0.57333 0.56602 0.52449 0.0
C3324 C 0.57887 0.56577 0.50633 0.0
C3325 C 0.59019 0.59766 0.53274 0.0
C3326 C 0.57954 0.58126 0.53787 0.0
C3327 C 0.59464 0.59788 0.51364 0.0
C3328 C 0.58912 0.58178 0.50044 0.0
H3329 H 0.58204 0.60588 0.60148 0.0
H3330 H 0.59678 0.62435 0.57666 0.0
H3331 H 0.6044 0.62591 0.54314 0.0
O3332 O 0.58204 0.53021 0.527 0.0
O3333 O 0.54339 0.56218 0.52897 0.0
O3334 O 0.51532 0.5495 0.50977 0.0
O3335 O 0.58282 0.54269 0.55657 0.0
O3336 O 0.55406 0.52587 0.50659 0.0
O3337 O 0.52715 0.53326 0.49324 0.0
O3338 O 0.48165 0.52276 0.51814 0.0
O3339 O 0.52701 0.49912 0.51699 0.0
O3340 O 0.54757 0.51215 0.54409 0.0
O3341 O 0.48719 0.51753 0.48852 0.0
O3342 O 0.51082 0.5324 0.54228 0.0
O3343 O 0.53972 0.52937 0.55655 0.0
C3344 C 0.52801 0.56392 0.51826 0.0
C3345 C 0.60204 0.52098 0.55127 0.0
C3346 C 0.62707 0.50442 0.54649 0.0
C3347 C 0.62675 0.49936 0.56545 0.0
C3348 C 0.60165 0.51584 0.5702 0.0
C3349 C 0.61395 0.50495 0.57718 0.0
C3350 C 0.61446 0.51493 0.53945 0.0
C3351 C 0.54398 0.53032 0.49174 0.0
C3352 C 0.59162 0.53452 0.54418 0.0
C3353 C 0.59182 0.61232 0.5659 0.0
C3354 C 0.5962 0.6132 0.54682 0.0
C3355 C 0.53826 0.49737 0.5325 0.0
C3356 C 0.46468 0.53569 0.49433 0.0
C3357 C 0.44096 0.55335 0.50151 0.0
C3358 C 0.44224 0.56087 0.48378 0.0
C3359 C 0.46587 0.54315 0.47651 0.0
C3360 C 0.45229 0.54093 0.50672 0.0
C3361 C 0.45471 0.55577 0.47135 0.0
C3362 C 0.52254 0.53159 0.5577 0.0
C3363 C 0.47517 0.52152 0.49984 0.0
H3364 H 0.63664 0.49149 0.57134 0.0
H3365 H 0.59223 0.52056 0.57971 0.0
H3366 H 0.61386 0.50123 0.59185 0.0
H3367 H 0.61464 0.51893 0.52484 0.0
H3368 H 0.43332 0.57028 0.47936 0.0
H3369 H 0.47522 0.53913 0.46652 0.0
H3370 H 0.45126 0.53511 0.52042 0.0
H3371 H 0.45552 0.56138 0.45757 0.0
Tb3372 Tb 1.00722 0.52662 0.03469 0.0
C3373 C 0.07662 0.56697 0.99744 0.0
N3374 N 0.06338 0.5513 0.99148 0.0
C3375 C 0.06073 0.55994 0.95902 0.0
C3376 C 0.08186 0.58004 0.98446 0.0
C3377 C 0.05603 0.54731 0.97233 0.0
C3378 C 0.07356 0.57645 0.96513 0.0
C3379 C 0.09866 0.58608 0.0233 0.0
C3380 C 0.08508 0.56994 0.01668 0.0
C3381 C 0.10372 0.59917 0.01041 0.0
C3382 C 0.09537 0.59615 0.99106 0.0
Tb3383 Tb 0.05872 0.53164 0.0148 0.0
N3384 N 0.07968 0.55717 0.02897 0.0
C3385 C 0.10681 0.58856 0.04268 0.0
C3386 C 0.08815 0.5591 0.0476 0.0
C3387 C 0.10163 0.57493 0.05483 0.0
H3388 H 0.04706 0.53417 0.96686 0.0
H3389 H 0.10826 0.57646 0.06967 0.0
H3390 H 0.01978 0.52629 0.08342 0.0
H3391 H 0.95576 0.48087 0.98325 0.0
H3392 H 0.0851 0.5481 0.05658 0.0
H3393 H 0.11732 0.60077 0.04831 0.0
H3394 H 0.98025 0.50886 0.99426 0.0
H3395 H 0.05472 0.55675 0.94394 0.0
H3396 H 0.11414 0.61166 0.01524 0.0
H3397 H 0.09954 0.60633 0.98128 0.0
H3398 H 0.01421 0.50409 0.10693 0.0
H3399 H 0.07726 0.58613 0.95471 0.0
H3400 H 0.94785 0.45732 0.00575 0.0
N3401 N 1.00453 0.5077 0.05902 0.0
C3402 C 0.99185 0.49148 0.05371 0.0
C3403 C 1.00813 0.50021 0.09193 0.0
C3404 C 0.98725 0.47886 0.06733 0.0
C3405 C 0.01177 0.51261 0.07817 0.0
C3406 C 0.99599 0.48318 0.08645 0.0
N3407 N 0.98704 0.50029 0.02191 0.0
C3408 C 0.97729 0.49828 0.00383 0.0
C3409 C 0.96827 0.47206 0.02939 0.0
C3410 C 0.98243 0.48799 0.03487 0.0
C3411 C 0.95879 0.4694 0.01051 0.0
C3412 C 0.96327 0.48261 0.99771 0.0
H3413 H 0.99284 0.47383 0.09731 0.0
H3414 H 0.96986 0.4529 0.07201 0.0
H3415 H 0.95327 0.44699 0.03886 0.0
O3416 O 0.98584 0.53972 0.02299 0.0
O3417 O 0.01403 0.50099 0.01878 0.0
O3418 O 0.04618 0.50397 0.02263 0.0
O3419 O 0.98596 0.53056 0.05138 0.0
O3420 O 0.01601 0.53757 0.00878 0.0
O3421 O 0.0347 0.5213 0.99343 0.0
O3422 O 0.08511 0.52472 0.02277 0.0
O3423 O 0.04925 0.55858 0.02318 0.0
O3424 O 0.02386 0.55532 0.04163 0.0
O3425 O 0.071 0.51835 0.99297 0.0
O3426 O 0.05143 0.5222 0.04202 0.0
O3427 O 0.03096 0.53728 0.05623 0.0
C3428 C 0.02923 0.49365 0.01835 0.0
C3429 C 0.9703 0.55513 0.04647 0.0
C3430 C 0.94697 0.57476 0.04411 0.0
C3431 C 0.95319 0.58276 0.06338 0.0
C3432 C 0.97655 0.56367 0.06559 0.0
C3433 C 0.96789 0.57725 0.074 0.0
C3434 C 0.95541 0.56071 0.03575 0.0
C3435 C 0.01912 0.52738 0.9936 0.0
C3436 C 0.97749 0.53885 0.03863 0.0
C3437 C 0.97354 0.4627 0.06171 0.0
C3438 C 0.96403 0.45936 0.04284 0.0
C3439 C 0.03758 0.56565 0.034 0.0
C3440 C 0.10123 0.50985 0.99821 0.0
C3441 C 0.12699 0.49352 0.00348 0.0
C3442 C 0.12991 0.49415 0.9839 0.0
C3443 C 0.10449 0.51038 0.97869 0.0
C3444 C 0.1127 0.50154 0.01075 0.0
C3445 C 0.11878 0.50262 0.97162 0.0
C3446 C 0.0473 0.53271 0.05644 0.0
C3447 C 0.08562 0.51774 0.00494 0.0
H3448 H 0.94658 0.59326 0.07027 0.0
H3449 H 0.98779 0.55949 0.07428 0.0
H3450 H 0.97248 0.58345 0.08886 0.0
H3451 H 0.95038 0.55411 0.02108 0.0
H3452 H 0.14083 0.48799 0.97809 0.0
H3453 H 0.09596 0.51683 0.96884 0.0
H3454 H 0.1103 0.50096 0.02583 0.0
H3455 H 0.12115 0.50305 0.95655 0.0
H3456 H 0.03802 0.18422 0.00933 0.0
H3457 H 0.99385 0.15686 0.96469 0.0
H3458 H 0.04254 0.15418 0.01826 0.0
H3459 H 0.99712 0.12707 0.97467 0.0
H3460 H 0.01334 0.07193 0.98396 0.0
H3461 H 1.0095 0.10218 0.97545 0.0
H3462 H 0.03811 0.12762 0.03171 0.0
H3463 H 0.04256 0.0971 0.03969 0.0
C3464 C 0.02915 0.1719 1.00131 0.0
C3465 C 0.0156 0.17358 0.98597 0.0
C3466 C 0.03158 0.15431 0.00674 0.0
C3467 C 0.02043 0.13739 0.99729 0.0
C3468 C 1.00657 0.1392 0.98229 0.0
C3469 C 1.00435 0.15672 0.97669 0.0
C3470 C 0.01889 0.08395 0.99458 0.0
C3471 C 0.0284 0.08169 0.01256 0.0
C3472 C 0.0165 0.10165 0.98973 0.0
C3473 C 0.02326 0.11815 0.00273 0.0
C3474 C 0.03277 0.1158 0.02085 0.0
C3475 C 0.03533 0.09802 0.0256 0.0
H3476 H 0.13966 0.77073 0.19469 0.0
H3477 H 0.17099 0.8164 0.17021 0.0
H3478 H 0.16737 0.768 0.2152 0.0
H3479 H 0.19871 0.81461 0.19157 0.0
H3480 H 0.25121 0.80013 0.22149 0.0
H3481 H 0.22354 0.80293 0.20084 0.0
H3482 H 0.18921 0.77491 0.24029 0.0
H3483 H 0.21689 0.77016 0.25936 0.0
C3484 C 0.15252 0.78029 0.19369 0.0
C3485 C 0.15287 0.79369 0.1805 0.0
C3486 C 0.16863 0.77894 0.20584 0.0
C3487 C 0.18593 0.79103 0.2055 0.0
C3488 C 0.18612 0.80467 0.19242 0.0
C3489 C 0.16997 0.80594 0.18019 0.0
C3490 C 0.23775 0.79432 0.22566 0.0
C3491 C 0.23663 0.78489 0.24236 0.0
C3492 C 0.2216 0.7962 0.21383 0.0
C3493 C 0.2035 0.78923 0.21844 0.0
C3494 C 0.20249 0.78021 0.2355 0.0
C3495 C 0.21864 0.77783 0.24696 0.0
H3496 H 0.49191 0.87292 0.49643 0.0
H3497 H 0.5492 0.88263 0.48397 0.0
H3498 H 0.49419 0.90593 0.50403 0.0
H3499 H 0.55167 0.91541 0.49319 0.0
H3500 H 0.54709 0.97645 0.49134 0.0
H3501 H 0.54534 0.94308 0.48462 0.0
H3502 H 0.50403 0.9334 0.52442 0.0
H3503 H 0.50587 0.96682 0.53101 0.0
C3504 C 0.5051 0.8817 0.4952 0.0
C3505 C 0.5202 0.87404 0.48898 0.0
C3506 C 0.50648 0.90107 0.50002 0.0
C3507 C 0.5231 0.91394 0.49921 0.0
C3508 C 0.53837 0.90638 0.49363 0.0
C3509 C 0.53694 0.88704 0.48853 0.0
C3510 C 0.53748 0.96726 0.49858 0.0
C3511 C 0.52625 0.97471 0.51139 0.0
C3512 C 0.5366 0.94787 0.49487 0.0
C3513 C 0.52439 0.93495 0.50374 0.0
C3514 C 0.51335 0.94248 0.5168 0.0
C3515 C 0.51438 0.96191 0.52064 0.0
H3516 H 0.48549 0.31106 0.69122 0.0
H3517 H 0.457 0.26349 0.65123 0.0
H3518 H 0.45805 0.30951 0.70867 0.0
H3519 H 0.42979 0.26165 0.66882 0.0
H3520 H 0.37765 0.26802 0.69428 0.0
H3521 H 0.40416 0.27605 0.67596 0.0
H3522 H 0.44078 0.29085 0.72997 0.0
H3523 H 0.41411 0.2831 0.74808 0.0
C3524 C 0.47334 0.30032 0.68606 0.0
C3525 C 0.47357 0.28738 0.66978 0.0
C3526 C 0.4576 0.29934 0.69619 0.0
C3527 C 0.44149 0.28551 0.6902 0.0
C3528 C 0.44171 0.2727 0.67378 0.0
C3529 C 0.45748 0.27359 0.66379 0.0
C3530 C 0.39124 0.27382 0.7022 0.0
C3531 C 0.39369 0.27538 0.72264 0.0
C3532 C 0.40656 0.27806 0.69171 0.0
C3533 C 0.42482 0.28383 0.70138 0.0
C3534 C 0.42703 0.28661 0.72191 0.0
C3535 C 0.41169 0.28234 0.73237 0.0
H3536 H 1.00668 0.82717 0.60546 0.0
H3537 H 0.04786 0.85841 0.65094 0.0
H3538 H 1.00894 0.85449 0.5876 0.0
H3539 H 0.05026 0.88567 0.63324 0.0
H3540 H 0.04495 0.93654 0.60484 0.0
H3541 H 0.03551 0.90989 0.62261 0.0
H3542 H 0.02982 0.87282 0.56925 0.0
H3543 H 0.03892 0.8996 0.55163 0.0
C3544 C 0.01611 0.83995 0.61171 0.0
C3545 C 0.02715 0.8406 0.62959 0.0
C3546 C 0.0175 0.85561 0.60142 0.0
C3547 C 0.02975 0.87248 0.60889 0.0
C3548 C 0.04047 0.87313 0.62703 0.0
C3549 C 0.03927 0.85741 0.63714 0.0
C3550 C 0.04092 0.92274 0.59683 0.0
C3551 C 0.04234 0.92019 0.57678 0.0
C3552 C 0.03585 0.90738 0.60706 0.0
C3553 C 0.03219 0.88901 0.59753 0.0
C3554 C 0.03239 0.88664 0.57717 0.0
C3555 C 0.0375 0.90202 0.56698 0.0
H3556 H 0.43662 0.81048 0.83797 0.0
H3557 H 0.43957 0.78068 0.78227 0.0
H3558 H 0.40306 0.80823 0.82962 0.0
H3559 H 0.4059 0.77866 0.7736 0.0
H3560 H 0.34731 0.79473 0.75878 0.0
H3561 H 0.38112 0.79727 0.76607 0.0
H3562 H 0.37384 0.78535 0.82464 0.0
H3563 H 0.34024 0.78268 0.81733 0.0
C3564 C 0.4301 0.8035 0.82386 0.0
C3565 C 0.44091 0.79576 0.81085 0.0
C3566 C 0.41075 0.8021 0.81906 0.0
C3567 C 0.40145 0.79322 0.80087 0.0
C3568 C 0.41238 0.78571 0.78769 0.0
C3569 C 0.43173 0.78677 0.79269 0.0
C3570 C 0.35291 0.79271 0.77325 0.0
C3571 C 0.34081 0.78847 0.78743 0.0
C3572 C 0.37239 0.79403 0.77741 0.0
C3573 C 0.38052 0.79156 0.79603 0.0
C3574 C 0.36836 0.78754 0.8102 0.0
C3575 C 0.34893 0.78589 0.80595 0.0
H3576 H 0.54679 0.17347 0.10905 0.0
H3577 H 0.49474 0.14558 0.12542 0.0
H3578 H 0.54903 0.14554 0.08859 0.0
H3579 H 0.49622 0.11794 0.10384 0.0
H3580 H 0.50977 0.06393 0.07625 0.0
H3581 H 0.50764 0.09179 0.09708 0.0
H3582 H 0.54125 0.12547 0.06113 0.0
H3583 H 0.5448 0.09742 0.04158 0.0
C3584 C 0.53573 0.16139 0.10834 0.0
C3585 C 0.52064 0.16206 0.11928 0.0
C3586 C 0.53685 0.14523 0.09616 0.0
C3587 C 0.52283 0.12897 0.09417 0.0
C3588 C 0.50759 0.12976 0.10494 0.0
C3589 C 0.50655 0.14592 0.11724 0.0
C3590 C 0.51687 0.07726 0.07285 0.0
C3591 C 0.52753 0.07812 0.05706 0.0
C3592 C 0.51544 0.09349 0.08478 0.0
C3593 C 0.52422 0.1114 0.08116 0.0
C3594 C 0.53452 0.11221 0.06502 0.0
C3595 C 0.53631 0.09594 0.05339 0.0
H3596 H 0.12901 0.27502 0.29088 0.0
H3597 H 0.15626 0.32182 0.33259 0.0
H3598 H 0.15902 0.27058 0.28185 0.0
H3599 H 0.18594 0.31856 0.32233 0.0
H3600 H 0.24108 0.30222 0.31415 0.0
H3601 H 0.21084 0.30589 0.32268 0.0
H3602 H 0.18515 0.27538 0.26735 0.0
H3603 H 0.21573 0.27105 0.25934 0.0
C3604 C 0.14129 0.28449 0.29823 0.0
C3605 C 0.13962 0.29875 0.31281 0.0
C3606 C 0.15883 0.28209 0.29271 0.0
C3607 C 0.17565 0.29398 0.30129 0.0
C3608 C 0.17385 0.30855 0.31547 0.0
C3609 C 0.15639 0.31074 0.3212 0.0
C3610 C 0.22902 0.2962 0.30373 0.0
C3611 C 0.2312 0.28622 0.286 0.0
C3612 C 0.21134 0.29851 0.30858 0.0
C3613 C 0.19482 0.2912 0.29582 0.0
C3614 C 0.19707 0.28118 0.27797 0.0
C3615 C 0.21484 0.27872 0.2732 0.0
H3616 H 0.98372 0.99576 0.16536 0.0
H3617 H 0.97945 0.0538 0.16842 0.0
H3618 H 0.99583 0.99777 0.13427 0.0
H3619 H 0.99309 0.05618 0.13823 0.0
H3620 H 0.99974 0.0508 0.07345 0.0
H3621 H 0.98751 0.04897 0.10471 0.0
H3622 H 0.02106 0.00828 0.1181 0.0
H3623 H 0.03278 0.00987 0.08661 0.0
C3624 C 0.98536 0.009 0.15953 0.0
C3625 C 0.98038 0.02456 0.16968 0.0
C3626 C 0.99268 0.01025 0.1417 0.0
C3627 C 0.99555 0.02716 0.13346 0.0
C3628 C 0.99086 0.04279 0.14375 0.0
C3629 C 0.98328 0.04148 0.16143 0.0
C3630 C 1.0044 0.04141 0.08307 0.0
C3631 C 0.0172 0.03048 0.07753 0.0
C3632 C 0.99754 0.04047 0.10116 0.0
C3633 C 1.00319 0.02844 0.1142 0.0
C3634 C 0.01608 0.01754 0.10853 0.0
C3635 C 0.02301 0.01858 0.0905 0.0
H3636 H 0.24574 0.67984 0.4519 0.0
H3637 H 0.30496 0.70066 0.4667 0.0
H3638 H 0.24541 0.69947 0.4258 0.0
H3639 H 0.30457 0.71996 0.43973 0.0
H3640 H 0.27295 0.71944 0.36705 0.0
H3641 H 0.2861 0.70701 0.3955 0.0
H3642 H 0.25938 0.74158 0.43279 0.0
H3643 H 0.24629 0.75418 0.40447 0.0
C3644 C 0.25868 0.68861 0.44957 0.0
C3645 C 0.2753 0.68906 0.46153 0.0
C3646 C 0.25848 0.69972 0.43463 0.0
C3647 C 0.2749 0.71128 0.43124 0.0
C3648 C 0.29178 0.71117 0.44242 0.0
C3649 C 0.29197 0.70011 0.45764 0.0
C3650 C 0.27054 0.72497 0.3814 0.0
C3651 C 0.25824 0.73738 0.38368 0.0
C3652 C 0.27818 0.71797 0.39759 0.0
C3653 C 0.27362 0.72344 0.41605 0.0
C3654 C 0.26309 0.73737 0.41855 0.0
C3655 C 0.25542 0.74433 0.40241 0.0
H3656 H 0.5976 0.01348 0.66803 0.0
H3657 H 0.63597 0.05741 0.64773 0.0
H3658 H 0.57596 0.012 0.63865 0.0
H3659 H 0.61403 0.05621 0.61868 0.0
H3660 H 0.55892 0.06148 0.58355 0.0
H3661 H 0.5789 0.0625 0.61417 0.0
H3662 H 0.57983 1.00403 0.60091 0.0
H3663 H 0.56017 1.00308 0.57022 0.0
C3664 C 0.6014 0.02269 0.65722 0.0
C3665 C 0.61829 0.03559 0.65998 0.0
C3666 C 0.58905 0.02191 0.64064 0.0
C3667 C 0.59349 0.03415 0.62689 0.0
C3668 C 0.6104 0.04693 0.62948 0.0
C3669 C 0.62283 0.04759 0.64596 0.0
C3670 C 0.56325 0.04887 0.58746 0.0
C3671 C 0.55834 0.03224 0.5749 0.0
C3672 C 0.57463 0.04947 0.60471 0.0
C3673 C 0.58068 0.03333 0.60951 0.0
C3674 C 0.57513 0.01653 0.59728 0.0
C3675 C 0.56408 0.01603 0.57987 0.0
H3676 H 0.30746 0.35503 0.92558 0.0
H3677 H 0.27024 0.30477 0.93424 0.0
H3678 H 0.30717 0.3431 0.89145 0.0
H3679 H 0.27017 0.29254 0.89994 0.0
H3680 H 0.29259 0.27153 0.84153 0.0
H3681 H 0.29234 0.28205 0.87622 0.0
H3682 H 0.2844 0.33592 0.86146 0.0
H3683 H 0.2844 0.32546 0.82715 0.0
C3684 C 0.29927 0.34136 0.92017 0.0
C3685 C 0.2889 0.33085 0.93262 0.0
C3686 C 0.29903 0.33453 0.90056 0.0
C3687 C 0.28868 0.31681 0.89285 0.0
C3688 C 0.27841 0.30616 0.90538 0.0
C3689 C 0.27835 0.31321 0.92498 0.0
C3690 C 0.29086 0.28563 0.84574 0.0
C3691 C 0.28854 0.29762 0.83148 0.0
C3692 C 0.29057 0.29162 0.86561 0.0
C3693 C 0.28839 0.30989 0.87172 0.0
C3694 C 0.28627 0.32184 0.8574 0.0
C3695 C 0.2862 0.31578 0.83764 0.0
H3696 H 0.01199 0.038 0.36389 0.0
H3697 H 0.95691 0.01458 0.37624 0.0
H3698 H 0.02413 0.03815 0.39821 0.0
H3699 H 0.96883 0.01446 0.41032 0.0
H3700 H 0.9913 0.03392 0.47362 0.0
H3701 H 0.98069 0.03493 0.43956 0.0
H3702 H 0.03063 0.01783 0.42306 0.0
H3703 H 0.04138 0.01693 0.45745 0.0
C3704 C 1.00251 0.0329 0.37399 0.0
C3705 C 0.9835 0.02631 0.36745 0.0
C3706 C 1.00945 0.03285 0.39363 0.0
C3707 C 0.99752 0.02634 0.40723 0.0
C3708 C 0.97847 0.01984 0.4005 0.0
C3709 C 0.9716 0.0198 0.38092 0.0
C3710 C 1.0001 0.03037 0.46279 0.0
C3711 C 0.0172 0.02524 0.46841 0.0
C3712 C 0.99392 0.03084 0.44313 0.0
C3713 C 1.00466 0.02633 0.42833 0.0
C3714 C 0.02196 0.02149 0.43395 0.0
C3715 C 0.02808 0.02082 0.45371 0.0
H3716 H 0.25305 0.70767 0.62654 0.0
H3717 H 0.29901 0.68693 0.65437 0.0
H3718 H 0.25425 0.72992 0.6552 0.0
H3719 H 0.29982 0.70859 0.68339 0.0
H3720 H 0.30906 0.76025 0.72464 0.0
H3721 H 0.30803 0.74094 0.69389 0.0
H3722 H 0.2477 0.73072 0.68798 0.0
H3723 H 0.24901 0.75129 0.71812 0.0
C3724 C 0.26324 0.7078 0.63896 0.0
C3725 C 0.27595 0.69578 0.6385 0.0
C3726 C 0.26391 0.72044 0.6553 0.0
C3727 C 0.27716 0.72098 0.67141 0.0
C3728 C 0.28972 0.70872 0.67097 0.0
C3729 C 0.28921 0.69628 0.65452 0.0
C3730 C 0.29567 0.75401 0.71648 0.0
C3731 C 0.27909 0.75688 0.72336 0.0
C3732 C 0.29504 0.74291 0.69908 0.0
C3733 C 0.27778 0.73414 0.68877 0.0
C3734 C 0.26118 0.73752 0.69553 0.0
C3735 C 0.26186 0.74915 0.71267 0.0
H3736 H 0.64441 0.02214 0.85139 0.0
H3737 H 0.6031 0.04925 0.82386 0.0
H3738 H 0.62802 0.02079 0.88017 0.0
H3739 H 0.58717 0.04862 0.85287 0.0
H3740 H 0.55931 0.04569 0.90458 0.0
H3741 H 0.57011 0.03064 0.87597 0.0
H3742 H 0.62698 0.04771 0.90338 0.0
H3743 H 0.61606 0.06248 0.93176 0.0
C3744 C 0.63159 0.02741 0.85136 0.0
C3745 C 0.62504 0.03597 0.83561 0.0
C3746 C 0.62227 0.02666 0.86778 0.0
C3747 C 0.60637 0.03458 0.86869 0.0
C3748 C 0.59922 0.04212 0.85243 0.0
C3749 C 0.6085 0.04281 0.836 0.0
C3750 C 0.57404 0.04572 0.90449 0.0
C3751 C 0.58707 0.05554 0.91977 0.0
C3752 C 0.58018 0.03712 0.88829 0.0
C3753 C 0.59935 0.03829 0.88742 0.0
C3754 C 0.61212 0.04653 0.90369 0.0
C3755 C 0.60598 0.0552 0.91977 0.0
H3756 H 0.31316 0.3545 0.14653 0.0
H3757 H 0.26655 0.31184 0.11998 0.0
H3758 H 0.31124 0.34161 0.17742 0.0
H3759 H 0.26437 0.29933 0.15117 0.0
H3760 H 0.25505 0.29766 0.21733 0.0
H3761 H 0.25655 0.30902 0.18528 0.0
H3762 H 0.31608 0.31229 0.19183 0.0
H3763 H 0.31433 0.30013 0.22335 0.0
C3764 C 0.30261 0.34226 0.14713 0.0
C3765 C 0.29008 0.33426 0.1305 0.0
C3766 C 0.30147 0.33491 0.16495 0.0
C3767 C 0.28765 0.31942 0.16685 0.0
C3768 C 0.27505 0.31141 0.15032 0.0
C3769 C 0.2763 0.31865 0.1324 0.0
C3770 C 0.26842 0.30089 0.21187 0.0
C3771 C 0.28462 0.29837 0.22292 0.0
C3772 C 0.26928 0.30726 0.19348 0.0
C3773 C 0.28647 0.31176 0.18601 0.0
C3774 C 0.30265 0.30916 0.19718 0.0
C3775 C 0.30167 0.30221 0.21521 0.0
H3776 H 0.19866 0.95691 0.9775 0.0
H3777 H 0.23048 1.00494 0.01488 0.0
H3778 H 0.17 0.96786 0.98261 0.0
H3779 H 0.20183 0.01556 0.02057 0.0
H3780 H 0.14863 0.03199 0.02896 0.0
H3781 H 0.17274 0.02572 0.00885 0.0
H3782 H 0.15703 0.96694 0.01394 0.0
H3783 H 0.13278 0.97319 0.03357 0.0
C3784 C 0.19955 0.97016 0.9862 0.0
C3785 C 0.21661 0.98006 0.99598 0.0
C3786 C 0.18318 0.97634 0.98922 0.0
C3787 C 0.18375 0.99241 1.0021 0.0
C3788 C 0.20102 1.00322 0.0104 0.0
C3789 C 0.21738 0.99707 0.00733 0.0
C3790 C 0.15003 0.0177 0.02523 0.0
C3791 C 0.13916 1.00304 0.03294 0.0
C3792 C 0.16379 0.01415 0.01381 0.0
C3793 C 0.16671 0.9959 0.00992 0.0
C3794 C 0.1549 0.98113 0.01649 0.0
C3795 C 0.14123 0.98469 0.02794 0.0
H3796 H 0.67987 0.58732 0.9917 0.0
H3797 H 0.66468 0.63286 0.02655 0.0
H3798 H 0.64882 0.56856 0.99234 0.0
H3799 H 0.63391 0.61403 0.02746 0.0
H3800 H 0.57445 0.58187 0.00809 0.0
H3801 H 0.60492 0.60007 0.00489 0.0
H3802 H 0.6304 0.55358 0.0176 0.0
H3803 H 0.60016 0.53571 0.02178 0.0
C3804 C 0.66992 0.59338 0.99941 0.0
C3805 C 0.67487 0.61162 0.00915 0.0
C3806 C 0.65218 0.58257 0.99991 0.0
C3807 C 0.63888 0.5898 0.00995 0.0
C3808 C 0.64375 0.60809 0.01944 0.0
C3809 C 0.66149 0.61882 0.0191 0.0
C3810 C 0.58645 0.57536 0.01008 0.0
C3811 C 0.58454 0.557 0.01499 0.0
C3812 C 0.60399 0.5859 0.00831 0.0
C3813 C 0.62011 0.57828 0.01093 0.0
C3814 C 0.61824 0.55982 0.01527 0.0
C3815 C 0.60075 0.54945 0.01756 0.0
H3816 H 0.67269 0.44658 0.25969 0.0
H3817 H 0.71116 0.472 0.31026 0.0
H3818 H 0.68797 0.41998 0.25754 0.0
H3819 H 0.72618 0.4449 0.3085 0.0
H3820 H 0.76168 0.40632 0.27612 0.0
H3821 H 0.74584 0.43131 0.28684 0.0
H3822 H 0.69284 0.39317 0.27356 0.0
H3823 H 0.70883 0.36842 0.26251 0.0
C3824 C 0.68438 0.44645 0.27042 0.0
C3825 C 0.69078 0.46148 0.28506 0.0
C3826 C 0.69298 0.43104 0.26937 0.0
C3827 C 0.7082 0.4302 0.28298 0.0
C3828 C 0.7145 0.44513 0.2978 0.0
C3829 C 0.70583 0.46058 0.29887 0.0
C3830 C 0.74673 0.40319 0.27634 0.0
C3831 C 0.73641 0.38553 0.26874 0.0
C3832 C 0.73762 0.41748 0.28237 0.0
C3833 C 0.71804 0.41431 0.28073 0.0
C3834 C 0.70791 0.39614 0.27468 0.0
C3835 C 0.71703 0.38189 0.26864 0.0
H3836 H 0.89047 0.50758 0.54253 0.0
H3837 H 0.89842 0.47571 0.48938 0.0
H3838 H 0.92411 0.51605 0.55115 0.0
H3839 H 0.93187 0.48525 0.49726 0.0
H3840 H 0.9882 0.48814 0.51855 0.0
H3841 H 0.95515 0.47764 0.521 0.0
H3842 H 0.9509 0.5343 0.54055 0.0
H3843 H 0.98399 0.54434 0.53898 0.0
C3844 C 0.89947 0.50277 0.53255 0.0
C3845 C 0.89202 0.49084 0.5155 0.0
C3846 C 0.9186 0.50752 0.53749 0.0
C3847 C 0.9304 0.50064 0.52523 0.0
C3848 C 0.92295 0.49002 0.50737 0.0
C3849 C 0.90385 0.48502 0.50259 0.0
C3850 C 0.98031 0.49796 0.52456 0.0
C3851 C 0.98811 0.51688 0.52863 0.0
C3852 C 0.96147 0.49211 0.52564 0.0
C3853 C 0.95055 0.50534 0.53033 0.0
C3854 C 0.95905 0.52386 0.53688 0.0
C3855 C 0.97791 0.52961 0.53606 0.0
H3856 H 0.32966 0.1021 0.32794 0.0
H3857 H 0.34257 0.09304 0.26884 0.0
H3858 H 0.3166 0.1294 0.31971 0.0
H3859 H 0.32951 0.1196 0.26073 0.0
H3860 H 0.28945 0.15152 0.24349 0.0
H3861 H 0.29411 0.12504 0.2608 0.0
H3862 H 0.33313 0.16201 0.30456 0.0
H3863 H 0.32799 0.18866 0.28741 0.0
C3864 C 0.32964 0.10599 0.31331 0.0
C3865 C 0.33656 0.09548 0.29884 0.0
C3866 C 0.32217 0.12135 0.30864 0.0
C3867 C 0.32162 0.12593 0.28952 0.0
C3868 C 0.32927 0.11579 0.27539 0.0
C3869 C 0.33674 0.10072 0.28003 0.0
C3870 C 0.29876 0.15388 0.25698 0.0
C3871 C 0.30906 0.17162 0.2639 0.0
C3872 C 0.30114 0.13896 0.26699 0.0
C3873 C 0.31405 0.14174 0.28376 0.0
C3874 C 0.32304 0.15976 0.29168 0.0
C3875 C 0.32045 0.17479 0.28175 0.0
H3876 H 0.33674 0.09592 0.52139 0.0
H3877 H 0.37201 0.14383 0.50443 0.0
H3878 H 0.36316 0.08038 0.52491 0.0
H3879 H 0.39851 0.12808 0.50729 0.0
H3880 H 0.44346 0.10566 0.54533 0.0
H3881 H 0.41838 0.12018 0.53246 0.0
H3882 H 0.38547 0.06573 0.51079 0.0
H3883 H 0.41063 0.05132 0.52436 0.0
C3884 C 0.35015 0.10303 0.51818 0.0
C3885 C 0.35233 0.12114 0.51278 0.0
C3886 C 0.3653 0.09402 0.51994 0.0
C3887 C 0.3831 0.10291 0.5164 0.0
C3888 C 0.3851 0.12083 0.51033 0.0
C3889 C 0.36988 0.12982 0.50851 0.0
C3890 C 0.43106 0.09688 0.53727 0.0
C3891 C 0.42892 0.07743 0.5358 0.0
C3892 C 0.41663 0.10517 0.52985 0.0
C3893 C 0.39965 0.09417 0.52082 0.0
C3894 C 0.39815 0.07466 0.51802 0.0
C3895 C 0.41264 0.06637 0.5255 0.0
H3896 H 0.68535 0.64808 0.26657 0.0
H3897 H 0.72582 0.63716 0.31125 0.0
H3898 H 0.70499 0.67812 0.26453 0.0
H3899 H 0.74514 0.6677 0.3096 0.0
H3900 H 0.7612 0.73383 0.31327 0.0
H3901 H 0.74347 0.70266 0.31628 0.0
H3902 H 0.73697 0.68964 0.25377 0.0
H3903 H 0.75538 0.72041 0.25095 0.0
C3904 C 0.69848 0.65193 0.27588 0.0
C3905 C 0.70397 0.63988 0.28893 0.0
C3906 C 0.70972 0.66927 0.27474 0.0
C3907 C 0.7267 0.67527 0.2868 0.0
C3908 C 0.73208 0.66352 0.30018 0.0
C3909 C 0.72093 0.64601 0.30116 0.0
C3910 C 0.75608 0.72418 0.30025 0.0
C3911 C 0.75951 0.72949 0.28189 0.0
C3912 C 0.74601 0.70635 0.30195 0.0
C3913 C 0.73865 0.69372 0.28525 0.0
C3914 C 0.74232 0.69906 0.2669 0.0
C3915 C 0.75294 0.71661 0.26528 0.0
H3916 H 0.85306 0.41636 0.76949 0.0
H3917 H 0.8015 0.42161 0.79242 0.0
H3918 H 0.84213 0.383 0.76174 0.0
H3919 H 0.79079 0.38783 0.78556 0.0
H3920 H 0.7697 0.33076 0.76066 0.0
H3921 H 0.78148 0.36343 0.75729 0.0
H3922 H 0.83647 0.35774 0.78141 0.0
H3923 H 0.82467 0.32511 0.7841 0.0
C3924 C 0.83929 0.41024 0.7727 0.0
C3925 C 0.82779 0.42125 0.78103 0.0
C3926 C 0.83313 0.39127 0.76836 0.0
C3927 C 0.81554 0.3831 0.77264 0.0
C3928 C 0.8042 0.39406 0.78155 0.0
C3929 C 0.81034 0.41317 0.78574 0.0
C3930 C 0.78447 0.33644 0.76419 0.0
C3931 C 0.79652 0.32593 0.77242 0.0
C3932 C 0.79111 0.355 0.76253 0.0
C3933 C 0.80969 0.36296 0.76945 0.0
C3934 C 0.8221 0.35179 0.77584 0.0
C3935 C 0.81546 0.33321 0.77732 0.0
H3936 H 0.03528 0.8938 0.08617 0.0
H3937 H 0.06869 0.88486 0.03984 0.0
H3938 H 0.03225 0.92387 0.07613 0.0
H3939 H 0.06549 0.91507 0.02957 0.0
H3940 H 0.06959 0.97853 0.02517 0.0
H3941 H 0.07309 0.94785 0.03432 0.0
H3942 H 0.01897 0.94095 0.05474 0.0
H3943 H 0.01599 0.97153 0.04638 0.0
C3944 C 0.04184 0.89801 0.07363 0.0
C3945 C 0.05223 0.88637 0.06395 0.0
C3946 C 0.04006 0.91554 0.06775 0.0
C3947 C 0.04851 0.92241 0.0518 0.0
C3948 C 0.05892 0.91078 0.04208 0.0
C3949 C 0.06076 0.89322 0.04803 0.0
C3950 C 0.05846 0.97048 0.03166 0.0
C3951 C 0.04241 0.97781 0.03481 0.0
C3952 C 0.06038 0.95265 0.03683 0.0
C3953 C 0.04641 0.94144 0.04554 0.0
C3954 C 0.03035 0.94886 0.0485 0.0
C3955 C 0.02846 0.96656 0.04333 0.0
H3956 H 0.92651 0.29404 0.85857 0.0
H3957 H 0.89874 0.24154 0.87417 0.0
H3958 H 0.89855 0.29663 0.83859 0.0
H3959 H 0.87115 0.24326 0.85272 0.0
H3960 H 0.81682 0.25711 0.82554 0.0
H3961 H 0.8448 0.25398 0.84569 0.0
H3962 H 0.8782 0.29024 0.81172 0.0
H3963 H 0.85009 0.29426 0.79264 0.0
C3964 C 0.91449 0.28293 0.85783 0.0
C3965 C 0.91527 0.26767 0.86853 0.0
C3966 C 0.89826 0.28425 0.84583 0.0
C3967 C 0.882 0.27019 0.8436 0.0
C3968 C 0.88292 0.25471 0.85401 0.0
C3969 C 0.89911 0.25353 0.86625 0.0
C3970 C 0.83014 0.26451 0.82243 0.0
C3971 C 0.83093 0.27593 0.80727 0.0
C3972 C 0.84644 0.26256 0.83397 0.0
C3973 C 0.86434 0.27184 0.83078 0.0
C3974 C 0.86502 0.28303 0.8153 0.0
C3975 C 0.84871 0.28512 0.80394 0.0
H3976 H 0.51923 0.17975 0.56284 0.0
H3977 H 0.57743 0.18871 0.55457 0.0
H3978 H 0.51644 0.14663 0.55353 0.0
H3979 H 0.57463 0.15557 0.54503 0.0
H3980 H 0.56927 0.0923 0.54497 0.0
H3981 H 0.57236 0.12579 0.5528 0.0
H3982 H 0.51425 0.12109 0.53158 0.0
H3983 H 0.51128 0.08761 0.52418 0.0
C3984 C 0.53148 0.17485 0.5588 0.0
C3985 C 0.54862 0.18746 0.55973 0.0
C3986 C 0.52986 0.15552 0.55335 0.0
C3987 C 0.54528 0.14778 0.54844 0.0
C3988 C 0.56237 0.16046 0.54905 0.0
C3989 C 0.564 0.17978 0.55458 0.0
C3990 C 0.55721 0.0984 0.54167 0.0
C3991 C 0.54009 0.08693 0.53366 0.0
C3992 C 0.55895 0.11786 0.54623 0.0
C3993 C 0.54359 0.12678 0.543 0.0
C3994 C 0.52648 0.1152 0.5348 0.0
C3995 C 0.52476 0.09575 0.53033 0.0
H3996 H 0.60579 0.75264 0.39271 0.0
H3997 H 0.58567 0.79377 0.36062 0.0
H3998 H 0.6324 0.7544 0.37399 0.0
H3999 H 0.61239 0.79587 0.34232 0.0
H4000 H 0.65377 0.78804 0.3013 0.0
H4001 H 0.62611 0.77941 0.31771 0.0
H4002 H 0.66125 0.77541 0.37009 0.0
H4003 H 0.68887 0.78382 0.35338 0.0
C4004 C 0.60694 0.76198 0.38159 0.0
C4005 C 0.59347 0.77307 0.37826 0.0
C4006 C 0.62233 0.7631 0.37094 0.0
C4007 C 0.62462 0.77519 0.35647 0.0
C4008 C 0.61105 0.78615 0.35307 0.0
C4009 C 0.59578 0.78513 0.36379 0.0
C4010 C 0.65552 0.7845 0.31605 0.0
C4011 C 0.67349 0.78622 0.32591 0.0
C4012 C 0.63967 0.77991 0.32563 0.0
C4013 C 0.64133 0.77703 0.34542 0.0
C4014 C 0.65932 0.77742 0.35485 0.0
C4015 C 0.6752 0.78206 0.34524 0.0
H4016 H 0.01184 0.20682 0.40484 0.0
H4017 H 0.06703 0.22765 0.43528 0.0
H4018 H 1.00889 0.17989 0.42254 0.0
H4019 H 0.06468 0.19983 0.45171 0.0
H4020 H 0.04495 0.15969 0.49591 0.0
H4021 H 0.05142 0.18531 0.47631 0.0
H4022 H 0.01672 0.15138 0.42708 0.0
H4023 H 0.00984 0.12605 0.44723 0.0
C4024 C 0.02344 0.20576 0.41525 0.0
C4025 C 0.03964 0.21983 0.41856 0.0
C4026 C 0.02187 0.18993 0.4252 0.0
C4027 C 0.03655 0.18735 0.43866 0.0
C4028 C 0.0529 0.20124 0.44173 0.0
C4029 C 0.05436 0.21722 0.43198 0.0
C4030 C 0.03915 0.15761 0.48073 0.0
C4031 C 0.02709 0.14083 0.47303 0.0
C4032 C 0.04282 0.17233 0.4694 0.0
C4033 C 0.03444 0.17075 0.44999 0.0
C4034 C 0.02315 0.15345 0.44202 0.0
C4035 C 0.01945 0.13873 0.45343 0.0
H4036 H 0.62512 0.23814 0.24846 0.0
H4037 H 0.63476 0.29425 0.23299 0.0
H4038 H 0.65848 0.24057 0.25655 0.0
H4039 H 0.66791 0.29709 0.24231 0.0
H4040 H 0.72852 0.29198 0.24022 0.0
H4041 H 0.69513 0.28958 0.23345 0.0
H4042 H 0.68638 0.25162 0.27676 0.0
H4043 H 0.71999 0.25396 0.28336 0.0
C4044 C 0.63421 0.25107 0.24674 0.0
C4045 C 0.6267 0.26587 0.23969 0.0
C4046 C 0.6536 0.25257 0.25174 0.0
C4047 C 0.66645 0.26899 0.25001 0.0
C4048 C 0.65888 0.28397 0.24351 0.0
C4049 C 0.63953 0.28243 0.23841 0.0
C4050 C 0.71958 0.283 0.24832 0.0
C4051 C 0.72737 0.27292 0.26219 0.0
C4052 C 0.70016 0.28175 0.24453 0.0
C4053 C 0.68749 0.27038 0.25444 0.0
C4054 C 0.6953 0.26033 0.26842 0.0
C4055 C 0.71481 0.26165 0.27227 0.0
H4056 H 0.57026 0.91688 0.91873 0.0
H4057 H 0.52529 0.8862 0.9449 0.0
H4058 H 0.5693 0.94467 0.94007 0.0
H4059 H 0.52291 0.91409 0.96472 0.0
H4060 H 0.52453 0.96386 0.00743 0.0
H4061 H 0.52901 0.93612 0.98878 0.0
H4062 H 0.55941 0.96997 0.95042 0.0
H4063 H 0.5568 0.9978 0.97095 0.0
C4064 C 0.56009 0.91595 0.929 0.0
C4065 C 0.54781 0.89894 0.92972 0.0
C4066 C 0.55926 0.93224 0.94121 0.0
C4067 C 0.5459 0.93237 0.95455 0.0
C4068 C 0.53372 0.9152 0.95523 0.0
C4069 C 0.53481 0.89891 0.94332 0.0
C4070 C 0.5328 0.96549 0.99548 0.0
C4071 C 0.5407 0.98337 0.99126 0.0
C4072 C 0.53497 0.94927 0.98415 0.0
C4073 C 0.5445 0.95008 0.96744 0.0
C4074 C 0.55226 0.96812 0.96313 0.0
C4075 C 0.55059 0.98437 0.97492 0.0
H4076 H 0.92682 0.74183 0.75519 0.0
H4077 H 0.92441 0.78571 0.71868 0.0
H4078 H 0.8967 0.74523 0.76534 0.0
H4079 H 0.89444 0.78906 0.72875 0.0
H4080 H 0.84596 0.80208 0.75966 0.0
H4081 H 0.8768 0.79916 0.75176 0.0
H4082 H 0.86428 0.74056 0.75828 0.0
H4083 H 0.83363 0.74389 0.76721 0.0
C4084 C 0.91994 0.75215 0.74912 0.0
C4085 C 0.92859 0.76346 0.73597 0.0
C4086 C 0.90242 0.75412 0.75502 0.0
C4087 C 0.89263 0.76749 0.74805 0.0
C4088 C 0.90132 0.77881 0.73495 0.0
C4089 C 0.9188 0.77686 0.72908 0.0
C4090 C 0.84983 0.78866 0.75992 0.0
C4091 C 0.83706 0.77339 0.76456 0.0
C4092 C 0.86764 0.78683 0.75494 0.0
C4093 C 0.87354 0.76954 0.75414 0.0
C4094 C 0.86074 0.75424 0.75886 0.0
C4095 C 0.84291 0.75611 0.7639 0.0
H4096 H 0.07109 0.05431 0.87574 0.0
H4097 H 0.10416 0.01308 0.88819 0.0
H4098 H 0.05949 0.05248 0.90697 0.0
H4099 H 0.09098 0.0096 0.9183 0.0
H4100 H 0.0781 0.01685 0.98036 0.0
H4101 H 0.09016 0.01944 0.94933 0.0
H4102 H 0.0411 0.03921 0.92728 0.0
H4103 H 0.03038 0.03871 0.95902 0.0
C4104 C 0.07589 0.04475 0.88502 0.0
C4105 C 0.08877 0.03395 0.87912 0.0
C4106 C 0.06886 0.04338 0.90302 0.0
C4107 C 0.07411 0.03084 0.9157 0.0
C4108 C 0.08671 0.01979 0.90953 0.0
C4109 C 0.09407 0.02149 0.89178 0.0
C4110 C 0.06991 0.02178 0.96887 0.0
C4111 C 0.05307 0.02724 0.97229 0.0
C4112 C 0.07674 0.02309 0.95078 0.0
C4113 C 0.06671 0.02942 0.9352 0.0
C4114 C 0.04964 0.03457 0.93865 0.0
C4115 C 0.04315 0.03383 0.95693 0.0
H4116 H 0.82138 0.36454 0.58248 0.0
H4117 H 0.76847 0.37649 0.59658 0.0
H4118 H 0.8217 0.34462 0.60811 0.0
H4119 H 0.76832 0.35549 0.62177 0.0
H4120 H 0.79899 0.34359 0.68211 0.0
H4121 H 0.78732 0.3567 0.65359 0.0
H4122 H 0.8056 0.31474 0.61629 0.0
H4123 H 0.81786 0.30208 0.64493 0.0
C4124 C 0.80977 0.36284 0.59102 0.0
C4125 C 0.79496 0.37214 0.58763 0.0
C4126 C 0.80974 0.35109 0.60541 0.0
C4127 C 0.7948 0.34818 0.61656 0.0
C4128 C 0.7799 0.35739 0.6132 0.0
C4129 C 0.77998 0.36931 0.5988 0.0
C4130 C 0.80001 0.33689 0.66777 0.0
C4131 C 0.80983 0.32229 0.6655 0.0
C4132 C 0.79322 0.34429 0.65148 0.0
C4133 C 0.7961 0.33701 0.63285 0.0
C4134 C 0.80372 0.32087 0.6306 0.0
C4135 C 0.81076 0.31367 0.64688 0.0
H4136 H 0.47106 0.04714 0.37549 0.0
H4137 H 0.43254 0.00841 0.40214 0.0
H4138 H 0.49273 0.05302 0.40568 0.0
H4139 H 0.45403 0.01453 0.43229 0.0
H4140 H 0.48951 0.05083 0.48611 0.0
H4141 H 0.47074 0.05136 0.45555 0.0
H4142 H 0.50632 0.02127 0.42489 0.0
H4143 H 0.52402 0.01867 0.45563 0.0
C4144 C 0.46731 0.04005 0.38789 0.0
C4145 C 0.45047 0.02729 0.38685 0.0
C4146 C 0.47954 0.04342 0.40492 0.0
C4147 C 0.47466 0.03425 0.42086 0.0
C4148 C 0.45771 0.02174 0.41993 0.0
C4149 C 0.44564 0.01816 0.40285 0.0
C4150 C 0.49357 0.04446 0.47289 0.0
C4151 C 0.50859 0.035 0.47322 0.0
C4152 C 0.48294 0.04502 0.45551 0.0
C4153 C 0.48759 0.0367 0.43829 0.0
C4154 C 0.50302 0.02811 0.43827 0.0
C4155 C 0.51326 0.02688 0.45577 0.0
H4156 H 0.75293 0.73973 0.11302 0.0
H4157 H 0.80773 0.72733 0.12586 0.0
H4158 H 0.75353 0.75187 0.14689 0.0
H4159 H 0.80895 0.74085 0.15932 0.0
H4160 H 0.79779 0.7448 0.22235 0.0
H4161 H 0.79785 0.73473 0.18823 0.0
H4162 H 0.76455 0.77505 0.17296 0.0
H4163 H 0.76402 0.78477 0.20751 0.0
C4164 C 0.76519 0.73961 0.12297 0.0
C4165 C 0.78016 0.73218 0.11643 0.0
C4166 C 0.76566 0.74694 0.1425 0.0
C4167 C 0.78121 0.74731 0.15622 0.0
C4168 C 0.79647 0.7405 0.14951 0.0
C4169 C 0.79591 0.73297 0.13004 0.0
C4170 C 0.79037 0.75156 0.2118 0.0
C4171 C 0.78066 0.7655 0.2179 0.0
C4172 C 0.7906 0.74587 0.19202 0.0
C4173 C 0.78125 0.75399 0.17747 0.0
C4174 C 0.77171 0.76816 0.18356 0.0
C4175 C 0.77143 0.77384 0.20347 0.0
H4176 H 0.07629 0.06208 0.68517 0.0
H4177 H 0.08879 1.0074 0.67226 0.0
H4178 H 0.06348 0.06128 0.65137 0.0
H4179 H 0.07603 1.00661 0.63844 0.0
H4180 H 0.03863 1.00381 0.58132 0.0
H4181 H 0.04955 1.00421 0.61562 0.0
H4182 H 0.07146 0.06326 0.61945 0.0
H4183 H 0.06029 0.06282 0.5852 0.0
C4184 C 0.07646 0.0499 0.67515 0.0
C4185 C 0.08382 0.03488 0.6817 0.0
C4186 C 0.06908 0.04944 0.65561 0.0
C4187 C 0.06875 0.03395 0.64182 0.0
C4188 C 0.07574 0.01875 0.64847 0.0
C4189 C 0.08312 0.0192 0.66803 0.0
C4190 C 0.0457 0.01694 0.58946 0.0
C4191 C 0.04835 0.03336 0.58031 0.0
C4192 C 0.05213 0.01714 0.60924 0.0
C4193 C 0.06148 0.03377 0.62065 0.0
C4194 C 0.06408 0.05019 0.61146 0.0
C4195 C 0.05767 0.04997 0.59166 0.0
H4196 H 0.81474 0.37915 0.40165 0.0
H4197 H 0.76213 0.34862 0.41457 0.0
H4198 H 0.81294 0.35749 0.37236 0.0
H4199 H 0.76024 0.32709 0.385 0.0
H4200 H 0.75761 0.31075 0.31783 0.0
H4201 H 0.75805 0.33042 0.34823 0.0
H4202 H 0.81352 0.32222 0.36689 0.0
H4203 H 0.81313 0.3025 0.3363 0.0
C4204 C 0.80284 0.36777 0.39817 0.0
C4205 C 0.78866 0.36528 0.41028 0.0
C4206 C 0.80186 0.35546 0.38157 0.0
C4207 C 0.78662 0.34066 0.37689 0.0
C4208 C 0.7721 0.33849 0.38857 0.0
C4209 C 0.77314 0.35078 0.40529 0.0
C4210 C 0.76982 0.31311 0.32852 0.0
C4211 C 0.78542 0.30542 0.32499 0.0
C4212 C 0.77 0.32416 0.34584 0.0
C4213 C 0.78583 0.3277 0.35957 0.0
C4214 C 0.80125 0.31961 0.35625 0.0
C4215 C 0.801 0.30836 0.33899 0.0
H4216 H 0.42264 0.03527 0.19502 0.0
H4217 H 0.46326 0.00968 0.2258 0.0
H4218 H 0.44054 0.03632 0.16713 0.0
H4219 H 0.48103 0.01041 0.19805 0.0
H4220 H 0.51506 0.0185 0.1518 0.0
H4221 H 0.49965 0.03072 0.17847 0.0
H4222 H 0.44625 0.01172 0.14348 0.0
H4223 H 0.46184 1.00035 0.11671 0.0
C4224 C 0.43556 0.03013 0.1958 0.0
C4225 C 0.44175 0.0224 0.21228 0.0
C4226 C 0.44574 0.03072 0.17996 0.0
C4227 C 0.46226 0.02369 0.18059 0.0
C4228 C 0.46858 0.01635 0.19736 0.0
C4229 C 0.45834 0.01564 0.21309 0.0
C4230 C 0.5001 0.01748 0.1498 0.0
C4231 C 0.48942 0.00822 0.1327 0.0
C4232 C 0.49131 0.02442 0.16492 0.0
C4233 C 0.47178 0.02173 0.16313 0.0
C4234 C 0.46132 0.01403 0.14522 0.0
C4235 C 0.47016 1.00738 0.13001 0.0
H4236 H 0.78801 0.70221 0.90522 0.0
H4237 H 0.77135 0.75191 0.92951 0.0
H4238 H 0.78969 0.71438 0.8742 0.0
H4239 H 0.77433 0.765 0.89894 0.0
H4240 H 0.76702 0.77991 0.83726 0.0
H4241 H 0.76458 0.7677 0.86827 0.0
H4242 H 0.80359 0.73229 0.85418 0.0
H4243 H 0.80462 0.74357 0.8226 0.0
C4244 C 0.78501 0.71595 0.90399 0.0
C4245 C 0.77957 0.72606 0.91992 0.0
C4246 C 0.78613 0.72314 0.8861 0.0
C4247 C 0.78235 0.74097 0.88357 0.0
C4248 C 0.77704 0.75112 0.89973 0.0
C4249 C 0.77545 0.74368 0.9175 0.0
C4250 C 0.77501 0.76944 0.84083 0.0
C4251 C 0.78594 0.76264 0.82737 0.0
C4252 C 0.77377 0.76246 0.85884 0.0
C4253 C 0.7838 0.74873 0.86424 0.0
C4254 C 0.79511 0.74234 0.85076 0.0
C4255 C 0.79593 0.74898 0.83256 0.0
H4256 H 0.83346 0.06294 0.01959 0.0
H4257 H 0.86304 0.09036 0.07465 0.0
H4258 H 0.86039 0.0501 0.0125 0.0
H4259 H 0.88988 0.0766 0.06807 0.0
H4260 H 0.93699 0.0849 0.02667 0.0
H4261 H 0.91017 0.08731 0.04419 0.0
H4262 H 0.88349 0.03151 0.01878 0.0
H4263 H 0.91016 0.02957 1.00084 0.0
C4264 C 0.84556 0.06561 0.03046 0.0
C4265 C 0.84654 0.07793 0.04737 0.0
C4266 C 0.86088 0.05806 0.02657 0.0
C4267 C 0.87728 0.06261 0.03967 0.0
C4268 C 0.87744 0.07316 0.05766 0.0
C4269 C 0.86211 0.0809 0.06147 0.0
C4270 C 0.9252 0.07337 0.02477 0.0
C4271 C 0.92487 0.05749 0.01188 0.0
C4272 C 0.91015 0.07446 0.03513 0.0
C4273 C 0.89476 0.05958 0.0327 0.0
C4274 C 0.89511 0.04322 0.02067 0.0
C4275 C 0.91011 0.0422 0.01027 0.0
H4276 H 0.39163 0.47033 0.06381 0.0
H4277 H 0.39985 0.43349 0.01448 0.0
H4278 H 0.42222 0.4897 0.06234 0.0
H4279 H 0.43009 0.45297 0.01287 0.0
H4280 H 0.47309 0.5034 1.00196 0.0
H4281 H 0.4424 0.48486 0.00463 0.0
H4282 H 0.45655 0.4884 0.06686 0.0
H4283 H 0.4876 0.50638 0.06394 0.0
C4284 C 0.39995 0.46626 0.05275 0.0
C4285 C 0.39307 0.45037 0.03915 0.0
C4286 C 0.41749 0.4774 0.05189 0.0
C4287 C 0.42855 0.47301 0.03736 0.0
C4288 C 0.42179 0.457 0.02399 0.0
C4289 C 0.40438 0.44583 0.02491 0.0
C4290 C 0.46954 0.50031 0.01621 0.0
C4291 C 0.4827 0.50616 0.03273 0.0
C4292 C 0.45204 0.48958 0.01774 0.0
C4293 C 0.44702 0.48502 0.03595 0.0
C4294 C 0.45996 0.49162 0.05262 0.0
C4295 C 0.47773 0.50184 0.05097 0.0
H4296 H 0.36249 0.59069 0.79188 0.0
H4297 H 0.38376 0.6098 0.74012 0.0
H4298 H 0.3456 0.61606 0.79442 0.0
H4299 H 0.366 0.63479 0.74214 0.0
H4300 H 0.35366 0.69078 0.77263 0.0
H4301 H 0.36671 0.66367 0.76218 0.0
H4302 H 0.31972 0.62754 0.7801 0.0
H4303 H 0.3072 0.65482 0.79114 0.0
C4304 C 0.36352 0.60026 0.78097 0.0
C4305 C 0.37461 0.59821 0.76587 0.0
C4306 C 0.35353 0.61466 0.78223 0.0
C4307 C 0.35423 0.6274 0.76835 0.0
C4308 C 0.36516 0.62527 0.7531 0.0
C4309 C 0.37522 0.61084 0.75186 0.0
C4310 C 0.34589 0.67697 0.77368 0.0
C4311 C 0.32953 0.67477 0.78268 0.0
C4312 C 0.35334 0.66142 0.76775 0.0
C4313 C 0.34449 0.64342 0.77073 0.0
C4314 C 0.32716 0.64122 0.77808 0.0
C4315 C 0.31983 0.65678 0.78416 0.0
H4316 H 0.17274 0.59473 0.51928 0.0
H4317 H 0.17787 0.5493 0.55309 0.0
H4318 H 0.13939 0.58326 0.51219 0.0
H4319 H 0.14406 0.53802 0.54669 0.0
H4320 H 0.08645 0.51385 0.51806 0.0
H4321 H 0.12011 0.52424 0.51944 0.0
H4322 H 0.11343 0.58147 0.53053 0.0
H4323 H 0.07995 0.57113 0.52815 0.0
C4324 C 0.16654 0.58224 0.52515 0.0
C4325 C 0.17746 0.57262 0.53648 0.0
C4326 C 0.14758 0.57577 0.52121 0.0
C4327 C 0.13934 0.55975 0.5288 0.0
C4328 C 0.15029 0.55023 0.54041 0.0
C4329 C 0.16941 0.55671 0.54427 0.0
C4330 C 0.09231 0.52865 0.5202 0.0
C4331 C 0.08098 0.54178 0.52299 0.0
C4332 C 0.11141 0.53454 0.52122 0.0
C4333 C 0.1192 0.55357 0.52533 0.0
C4334 C 0.10767 0.56673 0.52708 0.0
C4335 C 0.08857 0.56085 0.52568 0.0
H4336 H 0.71113 0.94775 0.72892 0.0
H4337 H 0.75726 0.97842 0.76965 0.0
H4338 H 0.72176 0.91878 0.73376 0.0
H4339 H 0.76778 0.94951 0.77473 0.0
H4340 H 0.78459 0.89588 0.78022 0.0
H4341 H 0.7786 0.92072 0.76097 0.0
H4342 H 0.71974 0.90503 0.76549 0.0
H4343 H 0.7257 0.88011 0.78441 0.0
C4344 C 0.72393 0.9483 0.73832 0.0
C4345 C 0.73342 0.96506 0.74905 0.0
C4346 C 0.72994 0.93181 0.74113 0.0
C4347 C 0.74549 0.93201 0.75462 0.0
C4348 C 0.75588 0.94905 0.76404 0.0
C4349 C 0.74981 0.96551 0.76132 0.0
C4350 C 0.77034 0.89748 0.7766 0.0
C4351 C 0.75556 0.8864 0.78395 0.0
C4352 C 0.76696 0.91161 0.76563 0.0
C4353 C 0.74877 0.91468 0.76182 0.0
C4354 C 0.73388 0.90275 0.76802 0.0
C4355 C 0.73727 0.88872 0.77907 0.0
H4356 H 0.7241 0.95218 0.50906 0.0
H4357 H 0.70448 0.9298 0.56011 0.0
H4358 H 0.69875 0.96912 0.50669 0.0
H4359 H 0.67956 0.94761 0.5583 0.0
H4360 H 0.62383 0.96003 0.52715 0.0
H4361 H 0.65087 0.94699 0.53779 0.0
H4362 H 0.68724 0.99482 0.52173 0.0
H4363 H 0.66002 1.00739 0.51051 0.0
C4364 C 0.71443 0.95092 0.51985 0.0
C4365 C 0.71631 0.93952 0.53471 0.0
C4366 C 0.70005 0.96093 0.5187 0.0
C4367 C 0.68722 0.95994 0.53246 0.0
C4368 C 0.68918 0.94868 0.54746 0.0
C4369 C 0.70357 0.9386 0.54858 0.0
C4370 C 0.63766 0.96799 0.5266 0.0
C4371 C 0.63997 0.98459 0.51802 0.0
C4372 C 0.65317 0.96055 0.53264 0.0
C4373 C 0.67122 0.96965 0.53018 0.0
C4374 C 0.67351 0.98723 0.52334 0.0
C4375 C 0.65799 0.99456 0.51717 0.0
H4376 H 0.38764 0.40771 0.76055 0.0
H4377 H 0.33804 0.43115 0.75706 0.0
H4378 H 0.36891 0.37701 0.76277 0.0
H4379 H 0.31902 0.40033 0.75852 0.0
H4380 H 0.2944 0.34716 0.78486 0.0
H4381 H 0.31216 0.37775 0.78107 0.0
H4382 H 0.34671 0.35174 0.74462 0.0
H4383 H 0.32881 0.32123 0.74815 0.0
C4384 C 0.37265 0.40616 0.75992 0.0
C4385 C 0.36424 0.4217 0.75854 0.0
C4386 C 0.36187 0.38857 0.76113 0.0
C4387 C 0.34237 0.38608 0.76081 0.0
C4388 C 0.33399 0.40171 0.75913 0.0
C4389 C 0.34482 0.41934 0.75813 0.0
C4390 C 0.3055 0.34794 0.77567 0.0
C4391 C 0.30987 0.33162 0.76653 0.0
C4392 C 0.31578 0.36555 0.77356 0.0
C4393 C 0.33092 0.36733 0.7625 0.0
C4394 C 0.33529 0.35099 0.7534 0.0
C4395 C 0.3249 0.33343 0.75534 0.0
H4396 H 0.21229 0.64249 0.26201 0.0
H4397 H 0.27043 0.64008 0.26174 0.0
H4398 H 0.22039 0.67569 0.27282 0.0
H4399 H 0.27878 0.67375 0.27097 0.0
H4400 H 0.29273 0.73123 0.29335 0.0
H4401 H 0.28038 0.69849 0.29586 0.0
H4402 H 0.23075 0.70188 0.25818 0.0
H4403 H 0.24275 0.73461 0.25695 0.0
C4404 C 0.22681 0.64938 0.26383 0.0
C4405 C 0.24084 0.63931 0.26071 0.0
C4406 C 0.23146 0.66822 0.27013 0.0
C4407 C 0.25018 0.67727 0.27283 0.0
C4408 C 0.26424 0.66705 0.26951 0.0
C4409 C 0.25956 0.648 0.26375 0.0
C4410 C 0.27878 0.72498 0.28657 0.0
C4411 C 0.26846 0.73484 0.27497 0.0
C4412 C 0.27184 0.70634 0.28774 0.0
C4413 C 0.25488 0.69758 0.27678 0.0
C4414 C 0.2438 0.70823 0.26691 0.0
C4415 C 0.2506 0.7269 0.26609 0.0
H4416 H 0.49198 0.65918 0.46623 0.0
H4417 H 0.53867 0.68552 0.50834 0.0
H4418 H 0.49518 0.62907 0.47559 0.0
H4419 H 0.54157 0.65554 0.51847 0.0
H4420 H 0.55226 0.59812 0.52785 0.0
H4421 H 0.5492 0.62823 0.51867 0.0
H4422 H 0.49319 0.60475 0.49145 0.0
H4423 H 0.49733 0.5743 0.49919 0.0
C4424 C 0.50283 0.65868 0.47777 0.0
C4425 C 0.51504 0.67522 0.48633 0.0
C4426 C 0.50471 0.64107 0.48335 0.0
C4427 C 0.51873 0.63902 0.49805 0.0
C4428 C 0.53077 0.65573 0.50683 0.0
C4429 C 0.52905 0.67332 0.50101 0.0
C4430 C 0.53945 0.5992 0.51959 0.0
C4431 C 0.52537 0.58325 0.51397 0.0
C4432 C 0.53743 0.61691 0.51446 0.0
C4433 C 0.52088 0.61977 0.50391 0.0
C4434 C 0.50649 0.60378 0.49895 0.0
C4435 C 0.50877 0.58598 0.50365 0.0
H4436 H 0.66791 0.32033 0.67335 0.0
H4437 H 0.64069 0.26817 0.69016 0.0
H4438 H 0.69584 0.31914 0.6948 0.0
H4439 H 0.66886 0.2664 0.71067 0.0
H4440 H 0.71658 0.27346 0.75896 0.0
H4441 H 0.68847 0.27649 0.73907 0.0
H4442 H 0.72204 0.30611 0.70017 0.0
H4443 H 0.75013 0.30427 0.72102 0.0
C4444 C 0.66778 0.30858 0.6816 0.0
C4445 C 0.65176 0.29434 0.67976 0.0
C4446 C 0.68405 0.30774 0.69382 0.0
C4447 C 0.68501 0.29262 0.7047 0.0
C4448 C 0.66892 0.27846 0.70292 0.0
C4449 C 0.65266 0.27933 0.69077 0.0
C4450 C 0.71804 0.28105 0.74647 0.0
C4451 C 0.73586 0.28887 0.74197 0.0
C4452 C 0.70176 0.28248 0.73468 0.0
C4453 C 0.70259 0.29153 0.71769 0.0
C4454 C 0.72048 0.29931 0.71318 0.0
C4455 C 0.73676 0.29808 0.72513 0.0
H4456 H 0.04763 0.37699 0.00262 0.0
H4457 H 0.99087 0.37306 0.97746 0.0
H4458 H 0.05025 0.41018 0.01184 0.0
H4459 H 0.99354 0.40625 0.98592 0.0
H4460 H 0.99741 0.46592 0.01087 0.0
H4461 H 0.99447 0.43255 0.00504 0.0
H4462 H 0.0542 0.4399 0.00551 0.0
H4463 H 0.05697 0.47326 0.01361 0.0
C4464 C 0.03568 0.38317 0.99883 0.0
C4465 C 0.01902 0.37194 0.98914 0.0
C4466 C 0.03721 0.40251 0.00409 0.0
C4467 C 0.02222 0.41165 0.99966 0.0
C4468 C 1.0055 0.40027 0.99011 0.0
C4469 C 1.00392 0.38091 0.9851 0.0
C4470 C 0.00996 0.4605 0.01044 0.0
C4471 C 0.0274 0.47271 0.01352 0.0
C4472 C 1.0083 0.44102 0.00652 0.0
C4473 C 0.02406 0.43275 0.00465 0.0
C4474 C 0.04156 0.4451 0.00724 0.0
C4475 C 0.04319 0.46456 0.01175 0.0
H4476 H 0.95632 0.79396 0.14581 0.0
H4477 H 0.98828 0.78266 0.1971 0.0
H4478 H 0.92892 0.79238 0.16314 0.0
H4479 H 0.96086 0.78045 0.21441 0.0
H4480 H 0.91211 0.78515 0.24678 0.0
H4481 H 0.93934 0.79412 0.22975 0.0
H4482 H 0.90572 0.77263 0.17484 0.0
H4483 H 0.87863 0.76459 0.19198 0.0
C4484 C 0.95751 0.79126 0.16087 0.0
C4485 C 0.97454 0.78845 0.17003 0.0
C4486 C 0.94169 0.79014 0.17085 0.0
C4487 C 0.94236 0.78626 0.19038 0.0
C4488 C 0.95958 0.78375 0.19957 0.0
C4489 C 0.97537 0.78477 0.18954 0.0
C4490 C 0.91043 0.78321 0.23101 0.0
C4491 C 0.89309 0.77459 0.2207 0.0
C4492 C 0.92617 0.78792 0.22118 0.0
C4493 C 0.92509 0.78386 0.20075 0.0
C4494 C 0.90736 0.77627 0.19046 0.0
C4495 C 0.89166 0.77173 0.20028 0.0
H4496 H 0.49923 0.33774 0.12041 0.0
H4497 H 0.55859 0.34987 0.13819 0.0
H4498 H 0.50224 0.36583 0.10407 0.0
H4499 H 0.56171 0.37706 0.12088 0.0
H4500 H 0.56383 0.43276 0.10038 0.0
H4501 H 0.55689 0.40761 0.12068 0.0
H4502 H 0.51281 0.37883 0.07641 0.0
H4503 H 0.51955 0.40439 0.05659 0.0
C4504 C 0.51294 0.34634 0.12093 0.0
C4505 C 0.52865 0.34125 0.13072 0.0
C4506 C 0.5147 0.36243 0.1113 0.0
C4507 C 0.53223 0.37398 0.11109 0.0
C4508 C 0.54789 0.36889 0.12092 0.0
C4509 C 0.54612 0.35293 0.13062 0.0
C4510 C 0.55225 0.42133 0.09536 0.0
C4511 C 0.54205 0.42064 0.07705 0.0
C4512 C 0.54845 0.4067 0.10682 0.0
C4513 C 0.53448 0.39081 0.10014 0.0
C4514 C 0.52359 0.39074 0.08223 0.0
C4515 C 0.52738 0.40543 0.07082 0.0
H4516 H 0.93716 0.26837 0.29482 0.0
H4517 H 0.94052 0.32379 0.32347 0.0
H4518 H 0.90403 0.26596 0.28532 0.0
H4519 H 0.90733 0.32127 0.31467 0.0
H4520 H 0.84757 0.3179 0.28866 0.0
H4521 H 0.88116 0.32112 0.29479 0.0
H4522 H 0.87445 0.26126 0.29216 0.0
H4523 H 0.84114 0.25825 0.28438 0.0
C4524 C 0.93086 0.28005 0.29931 0.0
C4525 C 0.94191 0.29629 0.31005 0.0
C4526 C 0.91157 0.27865 0.29389 0.0
C4527 C 0.90229 0.29332 0.2992 0.0
C4528 C 0.91348 0.30962 0.30981 0.0
C4529 C 0.9328 0.3111 0.315 0.0
C4530 C 0.85323 0.30542 0.28886 0.0
C4531 C 0.84122 0.28785 0.28551 0.0
C4532 C 0.87276 0.30723 0.29283 0.0
C4533 C 0.88122 0.29149 0.29414 0.0
C4534 C 0.86908 0.27389 0.29095 0.0
C4535 C 0.84963 0.27213 0.28662 0.0
H4536 H 1.00338 0.66765 0.59518 0.0
H4537 H 0.03823 0.651 0.64118 0.0
H4538 H 1.00539 0.63982 0.57411 0.0
H4539 H 0.0398 0.62292 0.62053 0.0
H4540 H 0.05328 0.58001 0.57542 0.0
H4541 H 0.05137 0.60829 0.59584 0.0
H4542 H 0.99791 0.60878 0.56396 0.0
H4543 H 1.00054 0.58087 0.54308 0.0
C4544 C 0.01133 0.65798 0.60097 0.0
C4545 C 0.02073 0.66194 0.62005 0.0
C4546 C 0.01247 0.64177 0.58878 0.0
C4547 C 0.02289 0.62867 0.59521 0.0
C4548 C 0.03201 0.63257 0.61447 0.0
C4549 C 0.03105 0.64886 0.62654 0.0
C4550 C 0.04104 0.58609 0.57294 0.0
C4551 C 0.02692 0.57792 0.55783 0.0
C4552 C 0.03985 0.60244 0.58476 0.0
C4553 C 0.02432 0.6112 0.58208 0.0
C4554 C 0.01026 0.60296 0.56667 0.0
C4555 C 0.01165 0.58675 0.55466 0.0
H4556 H 0.64176 0.82053 0.79494 0.0
H4557 H 0.64291 0.77539 0.82984 0.0
H4558 H 0.67184 0.81704 0.78482 0.0
H4559 H 0.67314 0.77231 0.82058 0.0
H4560 H 0.72358 0.76044 0.79397 0.0
H4561 H 0.69289 0.76334 0.80147 0.0
H4562 H 0.70309 0.82015 0.78778 0.0
H4563 H 0.73352 0.81638 0.77866 0.0
C4564 C 0.64845 0.80992 0.80067 0.0
C4565 C 0.63945 0.79823 0.81326 0.0
C4566 C 0.66601 0.80792 0.79487 0.0
C4567 C 0.67563 0.79429 0.80162 0.0
C4568 C 0.66656 0.78273 0.81436 0.0
C4569 C 0.64893 0.78455 0.81988 0.0
C4570 C 0.71923 0.77342 0.79202 0.0
C4571 C 0.73129 0.78794 0.78519 0.0
C4572 C 0.70143 0.77533 0.79684 0.0
C4573 C 0.69481 0.79214 0.79562 0.0
C4574 C 0.70701 0.80679 0.78885 0.0
C4575 C 0.72479 0.80471 0.7837 0.0
H4576 H 0.45867 0.50345 0.65288 0.0
H4577 H 0.50456 0.54606 0.68109 0.0
H4578 H 0.47155 0.50563 0.622 0.0
H4579 H 0.51713 0.54853 0.64994 0.0
H4580 H 0.51881 0.56048 0.58406 0.0
H4581 H 0.50807 0.55873 0.61638 0.0
H4582 H 0.50048 0.4988 0.6073 0.0
H4583 H 0.51248 0.50075 0.5758 0.0
C4584 C 0.4716 0.51316 0.65262 0.0
C4585 C 0.48053 0.5245 0.6697 0.0
C4586 C 0.47896 0.51445 0.63483 0.0
C4587 C 0.49539 0.52726 0.63344 0.0
C4588 C 0.50433 0.53867 0.65042 0.0
C4589 C 0.49707 0.53726 0.6683 0.0
C4590 C 0.51471 0.54697 0.58899 0.0
C4591 C 0.51563 0.53069 0.57705 0.0
C4592 C 0.5087 0.54595 0.60753 0.0
C4593 C 0.50302 0.52859 0.6143 0.0
C4594 C 0.50437 0.51237 0.60243 0.0
C4595 C 0.51107 0.51346 0.5843 0.0
H4596 H 0.74694 0.17991 0.95353 0.0
H4597 H 0.80622 0.20085 0.96767 0.0
H4598 H 0.74639 0.19877 0.92687 0.0
H4599 H 0.80563 0.21938 0.94005 0.0
H4600 H 0.77503 0.2148 0.86716 0.0
H4601 H 0.78893 0.20549 0.89734 0.0
H4602 H 0.75839 0.2395 0.93069 0.0
H4603 H 0.7442 0.24842 0.9006 0.0
C4604 C 0.75983 0.18861 0.95097 0.0
C4605 C 0.77654 0.18931 0.96285 0.0
C4606 C 0.75951 0.19931 0.93575 0.0
C4607 C 0.77591 0.21067 0.932 0.0
C4608 C 0.79287 0.21081 0.94311 0.0
C4609 C 0.79317 0.20019 0.95866 0.0
C4610 C 0.77182 0.22066 0.88105 0.0
C4611 C 0.75818 0.23165 0.88192 0.0
C4612 C 0.77997 0.21564 0.89817 0.0
C4613 C 0.77455 0.22184 0.91601 0.0
C4614 C 0.76271 0.23473 0.91692 0.0
C4615 C 0.7544 0.23952 0.89986 0.0
H4616 H 0.12973 0.51738 0.14451 0.0
H4617 H 0.10218 0.55704 0.1741 0.0
H4618 H 0.10839 0.51595 0.11509 0.0
H4619 H 0.08019 0.55505 0.145 0.0
H4620 H 0.05935 0.56278 0.08283 0.0
H4621 H 0.07957 0.5642 0.11324 0.0
H4622 H 0.0769 0.50465 0.10266 0.0
H4623 H 0.05794 0.50371 0.07173 0.0
C4624 C 0.1189 0.52558 0.14467 0.0
C4625 C 0.11743 0.53734 0.16127 0.0
C4626 C 0.10666 0.52471 0.12797 0.0
C4627 C 0.09263 0.53535 0.12787 0.0
C4628 C 0.09108 0.54694 0.14464 0.0
C4629 C 0.10352 0.54802 0.16123 0.0
C4630 C 0.0631 0.5501 0.08729 0.0
C4631 C 0.05756 0.53322 0.07527 0.0
C4632 C 0.07452 0.55083 0.10458 0.0
C4633 C 0.07985 0.53453 0.11017 0.0
C4634 C 0.07338 0.51748 0.09842 0.0
C4635 C 0.06249 0.51689 0.0809 0.0
H4636 H 0.76892 0.84682 0.42166 0.0
H4637 H 0.8053 0.81016 0.43934 0.0
H4638 H 0.76846 0.83477 0.38794 0.0
H4639 H 0.80407 0.79708 0.40569 0.0
H4640 H 0.81258 0.7868 0.34207 0.0
H4641 H 0.81262 0.79788 0.37602 0.0
H4642 H 0.75975 0.8143 0.36175 0.0
H4643 H 0.76108 0.80502 0.32765 0.0
C4644 C 0.77658 0.83588 0.41837 0.0
C4645 C 0.78722 0.8296 0.43337 0.0
C4646 C 0.77625 0.82875 0.39881 0.0
C4647 C 0.78626 0.81473 0.39346 0.0
C4648 C 0.79651 0.80813 0.40867 0.0
C4649 C 0.79714 0.81557 0.42821 0.0
C4650 C 0.80115 0.79302 0.34614 0.0
C4651 C 0.78716 0.79542 0.33188 0.0
C4652 C 0.80094 0.79922 0.3659 0.0
C4653 C 0.78627 0.80742 0.37225 0.0
C4654 C 0.77176 0.80887 0.3579 0.0
C4655 C 0.77237 0.80327 0.33811 0.0
H4656 H 0.45885 0.53071 0.87889 0.0
H4657 H 0.51169 0.52279 0.86141 0.0
H4658 H 0.47034 0.52979 0.91258 0.0
H4659 H 0.52399 0.52324 0.89547 0.0
H4660 H 0.53756 0.51015 0.95807 0.0
H4661 H 0.52655 0.50986 0.92366 0.0
H4662 H 0.48719 0.54399 0.93996 0.0
H4663 H 0.49729 0.5432 0.97374 0.0
C4664 C 0.47313 0.52914 0.88235 0.0
C4665 C 0.48432 0.52689 0.86741 0.0
C4666 C 0.4799 0.52876 0.90186 0.0
C4667 C 0.49837 0.52664 0.9073 0.0
C4668 C 0.50964 0.52458 0.89221 0.0
C4669 C 0.50265 0.52449 0.87257 0.0
C4670 C 0.52639 0.51737 0.95423 0.0
C4671 C 0.51821 0.52645 0.96889 0.0
C4672 C 0.52013 0.51741 0.93436 0.0
C4673 C 0.50562 0.52671 0.92852 0.0
C4674 C 0.49787 0.53609 0.94337 0.0
C4675 C 0.50391 0.53583 0.96305 0.0
H4676 H 0.78261 0.22116 0.12399 0.0
H4677 H 0.77148 0.17407 0.15659 0.0
H4678 H 0.7857 0.24248 0.15407 0.0
H4679 H 0.77475 0.19532 0.1867 0.0
H4680 H 0.80558 0.24045 0.23517 0.0
H4681 H 0.80388 0.22089 0.20455 0.0
H4682 H 0.76057 0.24692 0.17932 0.0
H4683 H 0.76176 0.26628 0.21018 0.0
C4684 C 0.78081 0.21555 0.13768 0.0
C4685 C 0.7767 0.19633 0.13845 0.0
C4686 C 0.78255 0.22757 0.15464 0.0
C4687 C 0.78043 0.22025 0.17228 0.0
C4688 C 0.77647 0.20099 0.17304 0.0
C4689 C 0.77449 0.18899 0.15604 0.0
C4690 C 0.79578 0.2421 0.22306 0.0
C4691 C 0.78387 0.25488 0.2248 0.0
C4692 C 0.79485 0.23096 0.2057 0.0
C4693 C 0.78216 0.2327 0.18999 0.0
C4694 C 0.77055 0.24571 0.19147 0.0
C4695 C 0.77127 0.2567 0.20895 0.0
H4696 H 0.10356 0.55053 0.3236 0.0
H4697 H 0.1432 0.52134 0.35085 0.0
H4698 H 0.08732 0.55005 0.35238 0.0
H4699 H 0.12638 0.52005 0.37932 0.0
H4700 H 0.11477 0.5604 0.43207 0.0
H4701 H 0.12579 0.54648 0.40329 0.0
H4702 H 0.06922 0.53207 0.37465 0.0
H4703 H 0.05833 0.54624 0.40366 0.0
C4704 C 0.10854 0.54369 0.33561 0.0
C4705 C 0.12474 0.53622 0.33519 0.0
C4706 C 0.09906 0.54309 0.35192 0.0
C4707 C 0.10561 0.53496 0.36802 0.0
C4708 C 0.12111 0.52642 0.36707 0.0
C4709 C 0.13066 0.52711 0.35079 0.0
C4710 C 0.10476 0.55386 0.41972 0.0
C4711 C 0.08592 0.55465 0.41959 0.0
C4712 C 0.11095 0.54569 0.40338 0.0
C4713 C 0.09833 0.53843 0.38669 0.0
C4714 C 0.0792 0.53779 0.38729 0.0
C4715 C 0.073 0.54585 0.40375 0.0
H4716 H 0.76026 0.83502 0.63171 0.0
H4717 H 0.81787 0.82923 0.63465 0.0
H4718 H 0.75757 0.82153 0.66197 0.0
H4719 H 0.81556 0.81716 0.6658 0.0
H4720 H 0.8023 0.78087 0.71394 0.0
H4721 H 0.80401 0.79195 0.6821 0.0
H4722 H 0.76548 0.82794 0.69551 0.0
H4723 H 0.76344 0.81635 0.72705 0.0
C4724 C 0.77241 0.83086 0.63869 0.0
C4725 C 0.78931 0.83331 0.63042 0.0
C4726 C 0.77093 0.82337 0.65639 0.0
C4727 C 0.78637 0.81831 0.66665 0.0
C4728 C 0.80325 0.82065 0.65836 0.0
C4729 C 0.80467 0.82792 0.64052 0.0
C4730 C 0.79408 0.79104 0.70998 0.0
C4731 C 0.78273 0.79774 0.72304 0.0
C4732 C 0.79519 0.79757 0.69175 0.0
C4733 C 0.78494 0.81097 0.68602 0.0
C4734 C 0.77344 0.81748 0.69913 0.0
C4735 C 0.77238 0.81098 0.71736 0.0
H4736 H 0.73099 0.50586 0.50636 0.0
H4737 H 0.70136 0.45066 0.48279 0.0
H4738 H 0.70185 0.51437 0.51399 0.0
H4739 H 0.67205 0.45928 0.48981 0.0
H4740 H 0.63837 0.47129 0.54132 0.0
H4741 H 0.66274 0.46397 0.52239 0.0
H4742 H 0.6706 0.51906 0.50394 0.0
H4743 H 0.64708 0.52678 0.52383 0.0
C4744 C 0.71808 0.49586 0.50212 0.0
C4745 C 0.71821 0.47768 0.49411 0.0
C4746 C 0.70142 0.50071 0.50635 0.0
C4747 C 0.68479 0.48737 0.50263 0.0
C4748 C 0.68476 0.46971 0.49295 0.0
C4749 C 0.70143 0.46486 0.48874 0.0
C4750 C 0.64535 0.4818 0.53325 0.0
C4751 C 0.64101 0.49959 0.53417 0.0
C4752 C 0.659 0.47752 0.5221 0.0
C4753 C 0.6684 0.49095 0.51162 0.0
C4754 C 0.66355 0.50851 0.51194 0.0
C4755 C 0.65005 0.51286 0.52324 0.0
H4756 H 0.16419 0.10996 0.48221 0.0
H4757 H 0.18157 0.10355 0.54197 0.0
H4758 H 0.13439 0.08996 0.48384 0.0
H4759 H 0.15122 0.08506 0.54419 0.0
H4760 H 0.09928 0.04068 0.5408 0.0
H4761 H 0.13026 0.05761 0.5373 0.0
H4762 H 0.10603 0.08823 0.49479 0.0
H4763 H 0.07546 0.07032 0.49726 0.0
C4764 C 0.16176 0.10434 0.49574 0.0
C4765 C 0.17554 0.10864 0.51197 0.0
C4766 C 0.14437 0.09303 0.49681 0.0
C4767 C 0.13999 0.08584 0.51424 0.0
C4768 C 0.15387 0.08999 0.53038 0.0
C4769 C 0.17134 0.10103 0.52921 0.0
C4770 C 0.10063 0.05079 0.53045 0.0
C4771 C 0.08478 0.0539 0.51918 0.0
C4772 C 0.11846 0.06078 0.52861 0.0
C4773 C 0.12099 0.07451 0.51573 0.0
C4774 C 0.10501 0.07761 0.50456 0.0
C4775 C 0.08728 0.0674 0.50615 0.0
H4776 H 0.17266 0.945 0.76023 0.0
H4777 H 0.21392 0.97172 0.80801 0.0
H4778 H 0.18775 0.91826 0.75768 0.0
H4779 H 0.22901 0.94455 0.80568 0.0
H4780 H 0.26106 0.90263 0.77079 0.0
H4781 H 0.24701 0.92896 0.78213 0.0
H4782 H 0.19312 0.89233 0.77535 0.0
H4783 H 0.20713 0.86634 0.76381 0.0
C4784 C 0.18497 0.94514 0.77024 0.0
C4785 C 0.19215 0.96056 0.78422 0.0
C4786 C 0.19351 0.92968 0.76896 0.0
C4787 C 0.20953 0.92915 0.7816 0.0
C4788 C 0.21671 0.94452 0.79572 0.0
C4789 C 0.20801 0.96001 0.79712 0.0
C4790 C 0.24635 0.90016 0.77247 0.0
C4791 C 0.23513 0.88252 0.76639 0.0
C4792 C 0.23827 0.91523 0.77887 0.0
C4793 C 0.21885 0.91283 0.77918 0.0
C4794 C 0.20804 0.89475 0.77485 0.0
C4795 C 0.21607 0.87981 0.76846 0.0
H4796 H 0.38617 0.01064 1.00017 0.0
H4797 H 0.39512 0.96984 0.03918 0.0
H4798 H 0.4197 0.02181 0.00272 0.0
H4799 H 0.42824 0.98206 0.04308 0.0
H4800 H 0.4858 0.99162 0.02253 0.0
H4801 H 0.4525 0.98117 0.02275 0.0
H4802 H 0.44503 0.03842 0.02631 0.0
H4803 H 0.47822 0.04873 0.02527 0.0
C4804 C 0.39529 1.00438 0.00957 0.0
C4805 C 0.38819 0.98963 0.01969 0.0
C4806 C 0.41435 0.01084 0.01119 0.0
C4807 C 0.42634 1.0028 0.02322 0.0
C4808 C 0.41919 0.98835 0.03363 0.0
C4809 C 0.40024 0.98164 0.0317 0.0
C4810 C 0.47703 1.00191 0.02388 0.0
C4811 C 0.48423 0.02087 0.02399 0.0
C4812 C 0.45807 0.99599 0.02394 0.0
C4813 C 0.44638 0.00908 0.02448 0.0
C4814 C 0.45383 0.02813 0.0256 0.0
C4815 C 0.47272 0.034 0.02526 0.0
H4816 H 0.82052 0.59639 0.82129 0.0
H4817 H 0.85686 0.6026 0.77622 0.0
H4818 H 0.81296 0.62712 0.81694 0.0
H4819 H 0.84913 0.63243 0.77148 0.0
H4820 H 0.8423 0.68703 0.76754 0.0
H4821 H 0.85267 0.66415 0.78704 0.0
H4822 H 0.79529 0.63814 0.78913 0.0
H4823 H 0.78503 0.66169 0.77052 0.0
C4824 C 0.82695 0.60446 0.81066 0.0
C4825 C 0.83897 0.59732 0.79886 0.0
C4826 C 0.82271 0.62188 0.8082 0.0
C4827 C 0.83074 0.63221 0.79415 0.0
C4828 C 0.84316 0.62507 0.78283 0.0
C4829 C 0.84731 0.60785 0.78525 0.0
C4830 C 0.83202 0.67668 0.77268 0.0
C4831 C 0.81302 0.67554 0.76725 0.0
C4832 C 0.83787 0.66375 0.78388 0.0
C4833 C 0.82474 0.64924 0.78913 0.0
C4834 C 0.80566 0.64925 0.7853 0.0
C4835 C 0.79981 0.66248 0.77446 0.0
H4836 H 0.8713 0.64532 0.00491 0.0
H4837 H 0.83685 0.59575 0.01942 0.0
H4838 H 0.89807 0.63032 0.00673 0.0
H4839 H 0.86375 0.58095 0.02276 0.0
H4840 H 0.91352 0.55458 0.0256 0.0
H4841 H 0.88671 0.56706 0.01302 0.0
H4842 H 0.91943 0.62298 0.02757 0.0
H4843 H 0.94606 0.61027 0.03846 0.0
C4844 C 0.86949 0.63109 0.00836 0.0
C4845 C 0.85207 0.62171 0.0121 0.0
C4846 C 0.88493 0.6225 0.00975 0.0
C4847 C 0.88346 0.60436 0.01529 0.0
C4848 C 0.86571 0.59479 0.01831 0.0
C4849 C 0.85023 0.60335 0.01669 0.0
C4850 C 0.91496 0.56949 0.02544 0.0
C4851 C 0.93173 0.58153 0.0332 0.0
C4852 C 0.89951 0.57675 0.01856 0.0
C4853 C 0.90049 0.5962 0.01954 0.0
C4854 C 0.91779 0.60799 0.02622 0.0
C4855 C 0.93318 0.60073 0.03275 0.0
H4856 H 0.22653 0.1368 0.81066 0.0
H4857 H 0.18516 0.14796 0.76708 0.0
H4858 H 0.24555 0.16753 0.80909 0.0
H4859 H 0.20449 0.17819 0.76511 0.0
H4860 H 0.25462 0.22045 0.75073 0.0
H4861 H 0.23635 0.18966 0.7537 0.0
H4862 H 0.24364 0.20261 0.81624 0.0
H4863 H 0.26118 0.23385 0.81309 0.0
C4864 C 0.22137 0.14575 0.80083 0.0
C4865 C 0.20427 0.13963 0.78886 0.0
C4866 C 0.23235 0.16336 0.79991 0.0
C4867 C 0.22663 0.17523 0.78683 0.0
C4868 C 0.20948 0.16925 0.77507 0.0
C4869 C 0.19842 0.15181 0.77616 0.0
C4870 C 0.25234 0.21665 0.76509 0.0
C4871 C 0.25904 0.22954 0.78167 0.0
C4872 C 0.24183 0.19909 0.76681 0.0
C4873 C 0.23843 0.19372 0.78521 0.0
C4874 C 0.24595 0.20634 0.80187 0.0
C4875 C 0.2559 0.22421 0.80009 0.0
H4876 H 0.29763 0.92482 0.28975 0.0
H4877 H 0.35118 0.91752 0.2733 0.0
H4878 H 0.28695 0.891 0.28549 0.0
H4879 H 0.3403 0.88427 0.26727 0.0
H4880 H 0.32412 0.8271 0.28519 0.0
H4881 H 0.3342 0.86014 0.28516 0.0
H4882 H 0.27823 0.86446 0.26242 0.0
H4883 H 0.26785 0.83122 0.26444 0.0
C4884 C 0.3069 0.91588 0.28499 0.0
C4885 C 0.32493 0.92334 0.28144 0.0
C4886 C 0.30081 0.89669 0.28225 0.0
C4887 C 0.31275 0.88508 0.27579 0.0
C4888 C 0.33084 0.89282 0.27238 0.0
C4889 C 0.33699 0.9118 0.27557 0.0
C4890 C 0.31412 0.83514 0.27985 0.0
C4891 C 0.29532 0.82712 0.27496 0.0
C4892 C 0.31986 0.85402 0.2797 0.0
C4893 C 0.30693 0.86488 0.27388 0.0
C4894 C 0.28832 0.85642 0.26746 0.0
C4895 C 0.28243 0.83755 0.26835 0.0
H4896 H 0.55697 0.38088 0.53497 0.0
H4897 H 0.545 0.39792 0.59268 0.0
H4898 H 0.55334 0.4114 0.52529 0.0
H4899 H 0.54144 0.42825 0.58312 0.0
H4900 H 0.55482 0.48788 0.56646 0.0
H4901 H 0.55859 0.45728 0.57497 0.0
H4902 H 0.53069 0.432 0.51861 0.0
H4903 H 0.52697 0.4628 0.51003 0.0
C4904 C 0.55365 0.3911 0.54567 0.0
C4905 C 0.55126 0.38661 0.5647 0.0
C4906 C 0.5514 0.40867 0.54004 0.0
C4907 C 0.54706 0.42265 0.55332 0.0
C4908 C 0.54491 0.41817 0.57237 0.0
C4909 C 0.54682 0.40055 0.57787 0.0
C4910 C 0.54943 0.47587 0.55578 0.0
C4911 C 0.54047 0.47814 0.5375 0.0
C4912 C 0.55152 0.45812 0.56076 0.0
C4913 C 0.54493 0.44178 0.54762 0.0
C4914 C 0.53613 0.44406 0.5292 0.0
C4915 C 0.53384 0.46185 0.5243 0.0
H4916 H 0.40806 0.78873 0.38894 0.0
H4917 H 0.41879 0.74526 0.34789 0.0
H4918 H 0.37965 0.7899 0.36875 0.0
H4919 H 0.39081 0.74699 0.3269 0.0
H4920 H 0.33207 0.7442 0.29675 0.0
H4921 H 0.36018 0.74183 0.31743 0.0
H4922 H 0.36402 0.79857 0.34346 0.0
H4923 H 0.33537 0.80011 0.32357 0.0
C4924 C 0.40451 0.77955 0.3754 0.0
C4925 C 0.41598 0.76695 0.37019 0.0
C4926 C 0.38806 0.78029 0.36354 0.0
C4927 C 0.38247 0.76871 0.34566 0.0
C4928 C 0.39403 0.75605 0.3405 0.0
C4929 C 0.41034 0.75507 0.3526 0.0
C4930 C 0.3389 0.75602 0.30713 0.0
C4931 C 0.33123 0.77215 0.30889 0.0
C4932 C 0.35528 0.75482 0.31896 0.0
C4933 C 0.36482 0.76991 0.33268 0.0
C4934 C 0.35718 0.78627 0.33383 0.0
C4935 C 0.34065 0.78729 0.32226 0.0
H4936 H 0.07541 0.68893 0.05026 0.0
H4937 H 0.02013 0.67981 0.06787 0.0
H4938 H 0.07271 0.65551 0.04249 0.0
H4939 H 0.01691 0.64662 0.0588 0.0
H4940 H 0.02093 0.58586 0.0602 0.0
H4941 H 0.02391 0.61931 0.067 0.0
H4942 H 0.06164 0.62738 0.0234 0.0
H4943 H 0.05886 0.59375 0.01696 0.0
C4944 C 0.0626 0.67994 0.05251 0.0
C4945 C 0.04812 0.68762 0.06006 0.0
C4946 C 0.06092 0.6605 0.04771 0.0
C4947 C 0.04463 0.64776 0.05011 0.0
C4948 C 0.02995 0.65552 0.05709 0.0
C4949 C 0.03169 0.67491 0.06203 0.0
C4950 C 0.02997 0.59467 0.05205 0.0
C4951 C 0.03986 0.58668 0.03816 0.0
C4952 C 0.03157 0.61414 0.05585 0.0
C4953 C 0.04302 0.62666 0.04583 0.0
C4954 C 0.05289 0.61863 0.03184 0.0
C4955 C 0.05133 0.59909 0.02809 0.0
H4956 H 0.07963 0.25568 0.8536 0.0
H4957 H 0.11333 0.29091 0.90243 0.0
H4958 H 0.10682 0.25703 0.83609 0.0
H4959 H 0.14032 0.29309 0.88457 0.0
H4960 H 0.19032 0.2873 0.85468 0.0
H4961 H 0.16342 0.27868 0.87232 0.0
H4962 H 0.12669 0.27638 0.81923 0.0
H4963 H 0.15364 0.28434 0.80177 0.0
C4964 C 0.09284 0.26368 0.86069 0.0
C4965 C 0.0941 0.27319 0.87955 0.0
C4966 C 0.10851 0.26463 0.8505 0.0
C4967 C 0.12603 0.27516 0.85875 0.0
C4968 C 0.12728 0.28456 0.87768 0.0
C4969 C 0.11162 0.28357 0.88789 0.0
C4970 C 0.1765 0.28406 0.84667 0.0
C4971 C 0.17413 0.28607 0.82673 0.0
C4972 C 0.16098 0.27955 0.85685 0.0
C4973 C 0.14264 0.27713 0.84742 0.0
C4974 C 0.14042 0.27792 0.82714 0.0
C4975 C 0.15593 0.28236 0.817 0.0
H4976 H 0.5614 0.73358 0.94348 0.0
H4977 H 0.51962 0.70201 0.89856 0.0
H4978 H 0.5602 0.70628 0.96084 0.0
H4979 H 0.51763 0.67507 0.91644 0.0
H4980 H 0.52324 0.62416 0.94443 0.0
H4981 H 0.53149 0.65068 0.92621 0.0
H4982 H 0.54206 0.68769 0.98007 0.0
H4983 H 0.53438 0.66101 0.99806 0.0
C4984 C 0.55198 0.72083 0.9372 0.0
C4985 C 0.54061 0.72021 0.91948 0.0
C4986 C 0.55113 0.70512 0.94735 0.0
C4987 C 0.53885 0.68821 0.94018 0.0
C4988 C 0.52754 0.6876 0.92241 0.0
C4989 C 0.52844 0.70327 0.91224 0.0
C4990 C 0.52821 0.63789 0.95238 0.0
C4991 C 0.5286 0.64043 0.97273 0.0
C4992 C 0.53252 0.65322 0.94192 0.0
C4993 C 0.53713 0.67159 0.95149 0.0
C4994 C 0.53875 0.67391 0.97202 0.0
C4995 C 0.5345 0.65855 0.98245 0.0
H4996 H 0.1296 0.74023 0.72113 0.0
H4997 H 0.13015 0.79053 0.75899 0.0
H4998 H 0.16282 0.74318 0.73029 0.0
H4999 H 0.16348 0.79351 0.76812 0.0
H5000 H 0.22692 0.80475 0.76576 0.0
H5001 H 0.19327 0.80114 0.75849 0.0
H5002 H 0.18787 0.74134 0.753 0.0
H5003 H 0.2216 0.74513 0.7593 0.0
C5004 C 0.13661 0.75184 0.73163 0.0
C5005 C 0.12666 0.76513 0.73913 0.0
C5006 C 0.15595 0.75356 0.73695 0.0
C5007 C 0.16633 0.76868 0.74999 0.0
C5008 C 0.15637 0.78183 0.75773 0.0
C5009 C 0.13701 0.7801 0.75243 0.0
C5010 C 0.21861 0.79079 0.76298 0.0
C5011 C 0.2273 0.77523 0.76337 0.0
C5012 C 0.19908 0.78868 0.75896 0.0
C5013 C 0.18736 0.7709 0.75507 0.0
C5014 C 0.1961 0.75533 0.75563 0.0
C5015 C 0.21564 0.75747 0.75963 0.0
H5016 H 0.02304 0.38618 0.44384 0.0
H5017 H 0.0709 0.41668 0.4218 0.0
H5018 H 0.02017 0.41397 0.46385 0.0
H5019 H 0.06911 0.44429 0.44321 0.0
H5020 H 0.05336 0.49719 0.47116 0.0
H5021 H 0.05675 0.46941 0.45097 0.0
H5022 H 0.02746 0.43523 0.48971 0.0
H5023 H 0.02248 0.46299 0.50849 0.0
C5024 C 0.03307 0.39881 0.4432 0.0
C5025 C 0.04706 0.39886 0.4307 0.0
C5026 C 0.03164 0.41495 0.45517 0.0
C5027 C 0.04435 0.43196 0.45556 0.0
C5028 C 0.05867 0.43189 0.44338 0.0
C5029 C 0.05993 0.41574 0.43116 0.0
C5030 C 0.04752 0.48373 0.47532 0.0
C5031 C 0.03779 0.48262 0.49179 0.0
C5032 C 0.04967 0.46757 0.46375 0.0
C5033 C 0.04246 0.44951 0.46831 0.0
C5034 C 0.033 0.44852 0.48506 0.0
C5035 C 0.03047 0.46468 0.49632 0.0
H5036 H 0.41429 0.23432 0.22665 0.0
H5037 H 0.43706 0.2916 0.24932 0.0
H5038 H 0.38446 0.23764 0.23703 0.0
H5039 H 0.4068 0.29532 0.25846 0.0
H5040 H 0.35224 0.29516 0.28569 0.0
H5041 H 0.38303 0.29148 0.27772 0.0
H5042 H 0.35735 0.24786 0.23169 0.0
H5043 H 0.32686 0.25132 0.24002 0.0
C5044 C 0.41313 0.2477 0.23385 0.0
C5045 C 0.42863 0.26264 0.23686 0.0
C5046 C 0.39561 0.24975 0.2396 0.0
C5047 C 0.39254 0.2669 0.24851 0.0
C5048 C 0.40813 0.28178 0.25182 0.0
C5049 C 0.42571 0.27968 0.2462 0.0
C5050 C 0.3531 0.28479 0.27385 0.0
C5051 C 0.33666 0.27363 0.26358 0.0
C5052 C 0.37099 0.28267 0.26912 0.0
C5053 C 0.37328 0.26926 0.25391 0.0
C5054 C 0.35673 0.25813 0.24373 0.0
C5055 C 0.33894 0.26024 0.24846 0.0
H5056 H 0.59231 0.5654 0.38882 0.0
H5057 H 0.58033 0.50532 0.37714 0.0
H5058 H 0.57911 0.5633 0.41945 0.0
H5059 H 0.5677 0.50335 0.40819 0.0
H5060 H 0.56685 0.50889 0.47582 0.0
H5061 H 0.57856 0.50993 0.44404 0.0
H5062 H 0.54878 0.5538 0.43224 0.0
H5063 H 0.53691 0.55253 0.46385 0.0
C5064 C 0.58672 0.55172 0.39256 0.0
C5065 C 0.58749 0.53555 0.38019 0.0
C5066 C 0.57918 0.55053 0.41028 0.0
C5067 C 0.57235 0.53315 0.41639 0.0
C5068 C 0.57307 0.51697 0.40411 0.0
C5069 C 0.58041 0.51814 0.38626 0.0
C5070 C 0.56282 0.51873 0.4664 0.0
C5071 C 0.55099 0.53065 0.47235 0.0
C5072 C 0.56942 0.51925 0.44813 0.0
C5073 C 0.56469 0.532 0.43554 0.0
C5074 C 0.55285 0.54392 0.44158 0.0
C5075 C 0.54595 0.54312 0.45965 0.0
H5076 H 0.3151 0.89275 0.1047 0.0
H5077 H 0.26862 0.85109 0.07581 0.0
H5078 H 0.31487 0.87647 0.13343 0.0
H5079 H 0.26781 0.8352 0.10503 0.0
H5080 H 0.30183 0.80096 0.14471 0.0
H5081 H 0.29003 0.81758 0.11907 0.0
H5082 H 0.29697 0.86711 0.16027 0.0
H5083 H 0.30905 0.85039 0.18587 0.0
C5084 C 0.30474 0.88018 0.10461 0.0
C5085 C 0.29199 0.87302 0.08809 0.0
C5086 C 0.30434 0.8711 0.12117 0.0
C5087 C 0.29112 0.85475 0.12147 0.0
C5088 C 0.27805 0.84785 0.10512 0.0
C5089 C 0.27851 0.85691 0.08849 0.0
C5090 C 0.30044 0.81528 0.14824 0.0
C5091 C 0.30675 0.82469 0.16685 0.0
C5092 C 0.29348 0.82471 0.13373 0.0
C5093 C 0.29296 0.84368 0.13772 0.0
C5094 C 0.29754 0.85254 0.15687 0.0
C5095 C 0.3044 0.84304 0.17142 0.0
H5096 H 0.9301 0.53199 0.90703 0.0
H5097 H 0.97485 0.52378 0.87343 0.0
H5098 H 0.95056 0.53281 0.93707 0.0
H5099 H 0.99575 0.5254 0.90349 0.0
H5100 H 0.017 0.50435 0.96014 0.0
H5101 H 0.99794 0.5052 0.92951 0.0
H5102 H 0.97797 0.55254 0.95554 0.0
H5103 H 0.99646 0.55145 0.98599 0.0
C5104 C 0.9445 0.53081 0.90626 0.0
C5105 C 0.95121 0.52792 0.88835 0.0
C5106 C 0.95615 0.53129 0.92328 0.0
C5107 C 0.97463 0.52915 0.92241 0.0
C5108 C 0.98145 0.52681 0.90439 0.0
C5109 C 0.96968 0.52605 0.88735 0.0
C5110 C 1.00854 0.51491 0.95916 0.0
C5111 C 1.00806 0.52776 0.97525 0.0
C5112 C 0.99779 0.51547 0.94174 0.0
C5113 C 0.98659 0.52894 0.94036 0.0
C5114 C 0.98633 0.54189 0.95642 0.0
C5115 C 0.99692 0.54125 0.97378 0.0
H5116 H 0.29978 0.25382 0.61634 0.0
H5117 H 0.25619 0.20771 0.62325 0.0
H5118 H 0.30011 0.26614 0.65049 0.0
H5119 H 0.25613 0.22026 0.65686 0.0
H5120 H 0.27602 0.23483 0.72178 0.0
H5121 H 0.27577 0.22395 0.68751 0.0
H5122 H 0.28112 0.28052 0.67369 0.0
H5123 H 0.28119 0.29142 0.70834 0.0
C5124 C 0.29025 0.2463 0.62505 0.0
C5125 C 0.27788 0.22975 0.6168 0.0
C5126 C 0.2903 0.2535 0.64462 0.0
C5127 C 0.27812 0.24425 0.65656 0.0
C5128 C 0.26583 0.22774 0.64828 0.0
C5129 C 0.26572 0.22062 0.6288 0.0
C5130 C 0.27705 0.24497 0.71144 0.0
C5131 C 0.27857 0.26399 0.7178 0.0
C5132 C 0.27682 0.23872 0.69171 0.0
C5133 C 0.27839 0.2513 0.67767 0.0
C5134 C 0.27997 0.27041 0.68404 0.0
C5135 C 0.27982 0.27665 0.70386 0.0
H5136 H 0.56944 0.55725 0.18769 0.0
H5137 H 0.59423 0.5098 0.17224 0.0
H5138 H 0.55764 0.55701 0.15375 0.0
H5139 H 0.58132 0.5087 0.13852 0.0
H5140 H 0.5745 0.52324 0.07656 0.0
H5141 H 0.58493 0.52263 0.11064 0.0
H5142 H 0.53684 0.544 0.12664 0.0
H5143 H 0.52692 0.54542 0.09235 0.0
C5144 C 0.57235 0.54667 0.17711 0.0
C5145 C 0.58307 0.53369 0.18295 0.0
C5146 C 0.56527 0.54635 0.15751 0.0
C5147 C 0.56852 0.53292 0.143 0.0
C5148 C 0.57876 0.51957 0.14897 0.0
C5149 C 0.58597 0.52 0.16854 0.0
C5150 C 0.56613 0.52786 0.08732 0.0
C5151 C 0.54989 0.53449 0.08157 0.0
C5152 C 0.57204 0.52733 0.10703 0.0
C5153 C 0.56181 0.5332 0.12178 0.0
C5154 C 0.54539 0.53965 0.11596 0.0
C5155 C 0.53957 0.54036 0.09618 0.0
H5156 H 0.29457 0.8409 0.92694 0.0
H5157 H 0.27784 0.88245 0.89297 0.0
H5158 H 0.29055 0.81885 0.89741 0.0
H5159 H 0.27446 0.86079 0.86333 0.0
H5160 H 0.25459 0.81324 0.81667 0.0
H5161 H 0.25459 0.83135 0.84803 0.0
H5162 H 0.3072 0.8173 0.86853 0.0
H5163 H 0.30698 0.79898 0.8374 0.0
C5164 C 0.29006 0.84518 0.91306 0.0
C5165 C 0.28642 0.86306 0.91183 0.0
C5166 C 0.28779 0.83271 0.89632 0.0
C5167 C 0.2821 0.83821 0.8783 0.0
C5168 C 0.27845 0.85617 0.87718 0.0
C5169 C 0.28048 0.86853 0.89396 0.0
C5170 C 0.26594 0.81386 0.82808 0.0
C5171 C 0.28071 0.80481 0.82493 0.0
C5172 C 0.26598 0.82418 0.84586 0.0
C5173 C 0.28091 0.82564 0.86049 0.0
C5174 C 0.2954 0.81608 0.8575 0.0
C5175 C 0.29529 0.80567 0.83977 0.0
H5176 H 0.96178 0.54461 0.72398 0.0
H5177 H 0.92126 0.49693 0.69573 0.0
H5178 H 0.97758 0.54557 0.69465 0.0
H5179 H 0.93735 0.49742 0.66693 0.0
H5180 H 0.96173 0.50417 0.61376 0.0
H5181 H 0.94537 0.51572 0.63989 0.0
H5182 H 0.99589 0.52399 0.6799 0.0
H5183 H 0.01219 0.51268 0.65369 0.0
C5184 C 0.95619 0.53447 0.71144 0.0
C5185 C 0.94041 0.52062 0.71207 0.0
C5186 C 0.96521 0.53502 0.69475 0.0
C5187 C 0.95853 0.52173 0.67851 0.0
C5188 C 0.94254 0.50812 0.67908 0.0
C5189 C 0.93356 0.50758 0.6957 0.0
C5190 C 0.96938 0.50898 0.62804 0.0
C5191 C 0.98795 0.50708 0.63209 0.0
C5192 C 0.96008 0.51555 0.64292 0.0
C5193 C 0.96931 0.5203 0.66192 0.0
C5194 C 0.98844 0.52034 0.66538 0.0
C5195 C 0.9977 0.51367 0.65053 0.0
H5196 H 0.24992 0.2187 0.40941 0.0
H5197 H 0.30945 0.23603 0.42458 0.0
H5198 H 0.25243 0.23122 0.37842 0.0
H5199 H 0.3119 0.24805 0.39323 0.0
H5200 H 0.30923 0.24729 0.32518 0.0
H5201 H 0.3078 0.2361 0.35733 0.0
H5202 H 0.26023 0.26156 0.36526 0.0
H5203 H 0.26192 0.27292 0.33356 0.0
C5204 C 0.26355 0.22533 0.40633 0.0
C5205 C 0.27947 0.22623 0.41974 0.0
C5206 C 0.26498 0.23245 0.38842 0.0
C5207 C 0.28239 0.24056 0.38321 0.0
C5208 C 0.29831 0.24162 0.39659 0.0
C5209 C 0.29687 0.23465 0.41461 0.0
C5210 C 0.29849 0.2504 0.33383 0.0
C5211 C 0.28567 0.26089 0.32681 0.0
C5212 C 0.29772 0.24414 0.35229 0.0
C5213 C 0.28382 0.24783 0.36389 0.0
C5214 C 0.27101 0.25829 0.35673 0.0
C5215 C 0.27205 0.2649 0.33857 0.0
H5216 H 0.33549 0.55679 0.52963 0.0
H5217 H 0.36691 0.60255 0.57032 0.0
H5218 H 0.36416 0.54619 0.52383 0.0
H5219 H 0.39572 0.59186 0.56469 0.0
H5220 H 0.43377 0.58733 0.51343 0.0
H5221 H 0.40889 0.59376 0.53226 0.0
H5222 H 0.39276 0.53509 0.53753 0.0
H5223 H 0.41727 0.52859 0.51827 0.0
C5224 C 0.34852 0.5641 0.53784 0.0
C5225 C 0.34927 0.58042 0.5503 0.0
C5226 C 0.36485 0.55801 0.53466 0.0
C5227 C 0.38202 0.56832 0.54383 0.0
C5228 C 0.38256 0.58378 0.55752 0.0
C5229 C 0.36618 0.58979 0.5608 0.0
C5230 C 0.42498 0.57589 0.51878 0.0
C5231 C 0.42715 0.55751 0.51424 0.0
C5232 C 0.41103 0.57956 0.52981 0.0
C5233 C 0.3991 0.56486 0.53633 0.0
C5234 C 0.40189 0.54658 0.53265 0.0
C5235 C 0.41584 0.54292 0.52165 0.0
H5236 H 0.9009 0.92979 0.52208 0.0
H5237 H 0.88701 0.97429 0.55946 0.0
H5238 H 0.93134 0.94865 0.52036 0.0
H5239 H 0.91731 0.99378 0.55704 0.0
H5240 H 0.98072 0.01782 0.56117 0.0
H5241 H 0.94993 0.99994 0.56502 0.0
H5242 H 0.94527 0.97367 0.50579 0.0
H5243 H 0.97596 0.99117 0.50241 0.0
C5244 C 0.90434 0.94374 0.52979 0.0
C5245 C 0.8915 0.95062 0.54073 0.0
C5246 C 0.92179 0.95467 0.5287 0.0
C5247 C 0.92682 0.97301 0.53822 0.0
C5248 C 0.91407 0.97974 0.54958 0.0
C5249 C 0.89666 0.96862 0.55093 0.0
C5250 C 0.97295 0.00821 0.54906 0.0
C5251 C 0.98082 1.00536 0.53171 0.0
C5252 C 0.9553 0.998 0.55118 0.0
C5253 C 0.94514 0.98491 0.53588 0.0
C5254 C 0.95283 0.983 0.51819 0.0
C5255 C 0.97043 0.99305 0.51618 0.0
H5256 H 0.85634 0.08639 0.28497 0.0
H5257 H 0.89012 0.11425 0.24519 0.0
H5258 H 0.83953 0.11194 0.28756 0.0
H5259 H 0.87302 0.13988 0.24753 0.0
H5260 H 0.85553 0.1908 0.28436 0.0
H5261 H 0.87025 0.1652 0.27272 0.0
H5262 H 0.81758 0.12694 0.2693 0.0
H5263 H 0.8031 0.15259 0.28123 0.0
C5264 C 0.8601 0.09797 0.2767 0.0
C5265 C 0.8746 0.09834 0.26495 0.0
C5266 C 0.85031 0.11252 0.27797 0.0
C5267 C 0.8548 0.12791 0.26761 0.0
C5268 C 0.86921 0.12824 0.25569 0.0
C5269 C 0.87893 0.11353 0.25427 0.0
C5270 C 0.84701 0.17703 0.28033 0.0
C5271 C 0.8282 0.1736 0.2835 0.0
C5272 C 0.85542 0.16234 0.27375 0.0
C5273 C 0.84516 0.14396 0.27042 0.0
C5274 C 0.82595 0.14088 0.27207 0.0
C5275 C 0.81757 0.15557 0.27862 0.0
H5276 H 0.68012 0.0533 0.05913 0.0
H5277 H 0.6744 0.08555 0.01085 0.0
H5278 H 0.64641 0.04156 0.05442 0.0
H5279 H 0.64117 0.07329 0.00562 0.0
H5280 H 0.58245 0.06899 0.02351 0.0
H5281 H 0.61601 0.0784 0.02491 0.0
H5282 H 0.62219 0.02154 0.02951 0.0
H5283 H 0.58857 0.01216 0.02872 0.0
C5284 C 0.67164 0.05755 0.04738 0.0
C5285 C 0.67958 0.06995 0.03514 0.0
C5286 C 0.65257 0.0508 0.04459 0.0
C5287 C 0.6415 0.05654 0.02959 0.0
C5288 C 0.64955 0.06878 0.01727 0.0
C5289 C 0.66849 0.07556 0.02012 0.0
C5290 C 0.59097 0.05848 0.0245 0.0
C5291 C 0.5832 0.03995 0.0262 0.0
C5292 C 0.61008 0.06383 0.02527 0.0
C5293 C 0.62142 0.05061 0.02742 0.0
C5294 C 0.61356 0.03191 0.02816 0.0
C5295 C 0.59447 0.02659 0.02758 0.0
H5296 H 0.20016 0.44803 0.24499 0.0
H5297 H 0.25796 0.47522 0.25173 0.0
H5298 H 0.20923 0.41822 0.24919 0.0
H5299 H 0.26726 0.44568 0.25671 0.0
H5300 H 0.28133 0.3926 0.26779 0.0
H5301 H 0.26851 0.41328 0.24696 0.0
H5302 H 0.22152 0.41087 0.28015 0.0
H5303 H 0.23408 0.38994 0.30036 0.0
C5304 C 0.21482 0.44735 0.24684 0.0
C5305 C 0.22851 0.46349 0.24821 0.0
C5306 C 0.22001 0.43044 0.24923 0.0
C5307 C 0.2389 0.42972 0.25344 0.0
C5308 C 0.2526 0.44578 0.25322 0.0
C5309 C 0.24738 0.46267 0.25061 0.0
C5310 C 0.26804 0.39623 0.27019 0.0
C5311 C 0.25881 0.3903 0.28585 0.0
C5312 C 0.26074 0.40796 0.25833 0.0
C5313 C 0.24416 0.41375 0.26206 0.0
C5314 C 0.23424 0.4065 0.27678 0.0
C5315 C 0.24155 0.39484 0.2886 0.0
H5316 H 0.22378 0.45704 0.05931 0.0
H5317 H 0.20012 0.41969 0.00735 0.0
H5318 H 0.19664 0.47179 0.05698 0.0
H5319 H 0.17379 0.43513 0.00431 0.0
H5320 H 0.12232 0.4565 0.0057 0.0
H5321 H 0.14628 0.43973 0.01705 0.0
H5322 H 0.18343 0.49224 0.03767 0.0
H5323 H 0.15905 0.5088 0.02686 0.0
C5324 C 0.2128 0.45189 0.04744 0.0
C5325 C 0.21429 0.43719 0.03346 0.0
C5326 C 0.19729 0.4605 0.046 0.0
C5327 C 0.1829 0.45466 0.03051 0.0
C5328 C 0.18434 0.43983 0.01669 0.0
C5329 C 0.19971 0.43116 0.01821 0.0
C5330 C 0.13537 0.46434 0.01339 0.0
C5331 C 0.1389 0.48386 0.01554 0.0
C5332 C 0.14922 0.4548 0.01961 0.0
C5333 C 0.16702 0.4646 0.02783 0.0
C5334 C 0.16994 0.48417 0.03145 0.0
C5335 C 0.15599 0.49371 0.02532 0.0
H5336 H 0.84217 0.92419 0.23791 0.0
H5337 H 0.88257 0.9138 0.28285 0.0
H5338 H 0.82285 0.89361 0.23975 0.0
H5339 H 0.86339 0.88343 0.28467 0.0
H5340 H 0.81533 0.84012 0.29902 0.0
H5341 H 0.8335 0.87086 0.29591 0.0
H5342 H 0.82217 0.85946 0.23328 0.0
H5343 H 0.80451 0.82836 0.23656 0.0
C5344 C 0.84702 0.91535 0.24806 0.0
C5345 C 0.86386 0.92161 0.2604 0.0
C5346 C 0.83593 0.89781 0.24912 0.0
C5347 C 0.84142 0.8861 0.26254 0.0
C5348 C 0.85846 0.89222 0.27451 0.0
C5349 C 0.86949 0.90968 0.27345 0.0
C5350 C 0.81669 0.84427 0.28461 0.0
C5351 C 0.80878 0.83185 0.26802 0.0
C5352 C 0.82718 0.86182 0.28279 0.0
C5353 C 0.8295 0.86763 0.26432 0.0
C5354 C 0.82076 0.85546 0.24772 0.0
C5355 C 0.81073 0.83764 0.24956 0.0
H5356 H 0.76779 0.13405 0.7791 0.0
H5357 H 0.72303 0.1444 0.73894 0.0
H5358 H 0.77787 0.16743 0.78859 0.0
H5359 H 0.73385 0.17771 0.74743 0.0
H5360 H 0.74356 0.23383 0.77774 0.0
H5361 H 0.73418 0.20011 0.77623 0.0
H5362 H 0.79161 0.19457 0.77459 0.0
H5363 H 0.80096 0.22816 0.77669 0.0
C5364 C 0.76045 0.14353 0.772 0.0
C5365 C 0.74466 0.13682 0.75842 0.0
C5366 C 0.76614 0.16251 0.77745 0.0
C5367 C 0.75629 0.17493 0.76909 0.0
C5368 C 0.74126 0.16827 0.75453 0.0
C5369 C 0.73541 0.14929 0.74929 0.0
C5370 C 0.75418 0.22538 0.77782 0.0
C5371 C 0.77285 0.23321 0.77682 0.0
C5372 C 0.74883 0.20619 0.77674 0.0
C5373 C 0.76217 0.19492 0.77475 0.0
C5374 C 0.78109 0.20301 0.77603 0.0
C5375 C 0.78642 0.22215 0.77713 0.0
loop_
_geom_bond_atom_site_label_1
_geom_bond_atom_site_label_2
_geom_bond_distance
_geom_bond_site_symmetry_2
_ccdc_geom_bond_type
Li0 N17 1.990 1_455 S
Li0 O60 1.956 . S
Li0 O61 1.970 . S
Li0 O62 1.961 . S
Li1 N25 1.990 . S
Li1 O60 1.970 . S
Li1 O61 1.956 . S
Li1 O63 1.961 . S
Li2 N47 1.990 . S
Li2 O60 1.961 . S
Li2 O62 1.956 . S
Li2 O63 1.970 . S
Li3 N53 1.990 . S
Li3 O61 1.961 . S
Li3 O62 1.970 . S
Li3 O63 1.956 . S
C4 C6 1.348 . S
C4 C7 1.356 . S
C4 O60 1.325 . S
N5 C8 1.314 . S
N5 C9 1.279 . S
C6 C4 1.348 . S
C6 C8 1.353 . S
C6 H64 0.929 . S
C7 C4 1.356 . S
C7 C9 1.358 . S
C7 H65 0.930 . S
C8 N5 1.314 . S
C8 C6 1.353 . S
C8 H66 0.930 . S
C9 N5 1.279 . S
C9 C7 1.358 . S
C9 H67 0.930 . S
C10 C13 1.348 1_455 S
C10 C14 1.356 . S
C10 O61 1.325 . S
C11 N12 1.279 . S
C11 C14 1.358 1_655 S
C11 H68 0.930 . S
N12 C11 1.279 . S
N12 C15 1.314 . S
C13 C10 1.348 1_655 S
C13 C15 1.353 . S
C13 H69 0.929 . S
C14 C10 1.356 . S
C14 C11 1.358 1_455 S
C14 H70 0.930 . S
C15 N12 1.314 . S
C15 C13 1.353 . S
C15 H71 0.930 . S
C16 N17 1.314 . S
C16 C21 1.353 . S
C16 H22 0.930 . S
N17 Li0 1.990 1_655 S
N17 C16 1.314 . S
N17 C19 1.279 . S
C18 C19 1.358 . S
C18 C20 1.356 . S
C18 H72 0.930 . S
C19 N17 1.279 . S
C19 C18 1.358 . S
C19 H23 0.930 . S
C20 C18 1.356 . S
C20 C21 1.348 . S
C21 C16 1.353 . S
C21 C20 1.348 . S
C21 H73 0.929 . S
H22 C16 0.930 . S
H23 C19 0.930 . S
C24 N25 1.314 . S
C24 C26 1.353 . S
C24 H30 0.930 . S
N25 Li1 1.990 . S
N25 C24 1.314 . S
N25 C28 1.279 . S
C26 C24 1.353 . S
C26 C29 1.348 . S
C26 H74 0.929 . S
C27 C28 1.358 . S
C27 C29 1.356 . S
C27 H75 0.930 . S
C28 N25 1.279 . S
C28 C27 1.358 . S
C28 H31 0.930 . S
C29 C26 1.348 . S
C29 C27 1.356 . S
H30 C24 0.930 . S
H31 C28 0.930 . S
C32 C34 1.348 . S
C32 C35 1.356 . S
C32 O62 1.325 . S
N33 C36 1.314 . S
N33 C37 1.279 . S
C34 C32 1.348 . S
C34 C36 1.353 . S
C34 H76 0.929 . S
C35 C32 1.356 . S
C35 C37 1.358 . S
C35 H77 0.930 . S
C36 N33 1.314 . S
C36 C34 1.353 . S
C36 H78 0.930 . S
C37 N33 1.279 . S
C37 C35 1.358 . S
C37 H79 0.930 . S
C38 C39 1.348 . S
C38 C40 1.356 . S
C38 O63 1.325 . S
C39 C38 1.348 . S
C39 C41 1.353 . S
C39 H80 0.929 . S
C40 C38 1.356 . S
C40 C42 1.358 . S
C40 H81 0.930 . S
C41 C39 1.353 . S
C41 N43 1.314 . S
C41 H82 0.930 . S
C42 C40 1.358 . S
C42 N43 1.279 . S
C42 H83 0.930 . S
N43 C41 1.314 . S
N43 C42 1.279 . S
C44 C46 1.353 . S
C44 N47 1.314 . S
C44 H50 0.930 . S
C45 N47 1.279 . S
C45 C48 1.358 . S
C45 H51 0.930 . S
C46 C44 1.353 . S
C46 C49 1.348 . S
C46 H84 0.929 . S
N47 Li2 1.990 . S
N47 C44 1.314 . S
N47 C45 1.279 . S
C48 C45 1.358 . S
C48 C49 1.356 . S
C48 H85 0.930 . S
C49 C46 1.348 . S
C49 C48 1.356 . S
H50 C44 0.930 . S
H51 C45 0.930 . S
C52 N53 1.314 . S
C52 C54 1.353 . S
C52 H58 0.930 . S
N53 Li3 1.990 . S
N53 C52 1.314 . S
N53 C56 1.279 . S
C54 C52 1.353 . S
C54 C57 1.348 . S
C54 H86 0.929 . S
C55 C56 1.358 . S
C55 C57 1.356 . S
C55 H87 0.930 . S
C56 N53 1.279 . S
C56 C55 1.358 . S
C56 H59 0.930 . S
C57 C54 1.348 . S
C57 C55 1.356 . S
H58 C52 0.930 . S
H59 C56 0.930 . S
O60 Li0 1.956 . S
O60 Li1 1.970 . S
O60 Li2 1.961 . S
O60 C4 1.325 . S
O61 Li0 1.970 . S
O61 Li1 1.956 . S
O61 Li3 1.961 . S
O61 C10 1.325 . S
O62 Li0 1.961 . S
O62 Li2 1.956 . S
O62 Li3 1.970 . S
O62 C32 1.325 . S
O63 Li1 1.961 . S
O63 Li2 1.970 . S
O63 Li3 1.956 . S
O63 C38 1.325 . S
H64 C6 0.929 . S
H65 C7 0.930 . S
H66 C8 0.930 . S
H67 C9 0.930 . S
H68 C11 0.930 . S
H69 C13 0.929 . S
H70 C14 0.930 . S
H71 C15 0.930 . S
H72 C18 0.930 . S
H73 C21 0.929 . S
H74 C26 0.929 . S
H75 C27 0.930 . S
H76 C34 0.929 . S
H77 C35 0.930 . S
H78 C36 0.930 . S
H79 C37 0.930 . S
H80 C39 0.929 . S
H81 C40 0.930 . S
H82 C41 0.930 . S
H83 C42 0.930 . S
H84 C46 0.929 . S
H85 C48 0.930 . S
H86 C54 0.929 . S
H87 C55 0.930 . S
Li88 N105 1.990 . S
Li88 O148 1.956 . S
Li88 O149 1.970 . S
Li88 O150 1.961 1_455 S
Li89 N113 1.990 . S
Li89 O148 1.970 . S
Li89 O149 1.956 . S
Li89 O151 1.961 . S
Li90 N135 1.990 . S
Li90 O148 1.961 . S
Li90 O150 1.956 1_455 S
Li90 O151 1.970 . S
Li91 N141 1.990 . S
Li91 O149 1.961 1_655 S
Li91 O150 1.970 . S
Li91 O151 1.956 1_655 S
C92 C94 1.348 . S
C92 C95 1.356 . S
C92 O148 1.325 . S
N93 C96 1.314 . S
N93 C97 1.279 . S
C94 C92 1.348 . S
C94 C96 1.353 . S
C94 H152 0.929 . S
C95 C92 1.356 . S
C95 C97 1.358 . S
C95 H153 0.930 . S
C96 N93 1.314 . S
C96 C94 1.353 . S
C96 H154 0.930 . S
C97 N93 1.279 . S
C97 C95 1.358 . S
C97 H155 0.930 . S
C98 C101 1.348 . S
C98 C102 1.356 . S
C98 O149 1.325 . S
C99 N100 1.279 . S
C99 C102 1.358 . S
C99 H156 0.930 . S
N100 C99 1.279 . S
N100 C103 1.314 . S
C101 C98 1.348 . S
C101 C103 1.353 . S
C101 H157 0.929 . S
C102 C98 1.356 . S
C102 C99 1.358 . S
C102 H158 0.930 . S
C103 N100 1.314 . S
C103 C101 1.353 . S
C103 H159 0.930 . S
C104 N105 1.314 . S
C104 C109 1.353 . S
C104 H110 0.930 1_455 S
N105 Li88 1.990 . S
N105 C104 1.314 . S
N105 C107 1.279 . S
C106 C107 1.358 . S
C106 C108 1.356 . S
C106 H160 0.930 . S
C107 N105 1.279 . S
C107 C106 1.358 . S
C107 H111 0.930 . S
C108 C106 1.356 . S
C108 C109 1.348 . S
C109 C104 1.353 . S
C109 C108 1.348 . S
C109 H161 0.929 1_455 S
H110 C104 0.930 1_655 S
H111 C107 0.930 . S
C112 N113 1.314 . S
C112 C114 1.353 . S
C112 H118 0.930 . S
N113 Li89 1.990 . S
N113 C112 1.314 . S
N113 C116 1.279 . S
C114 C112 1.353 . S
C114 C117 1.348 . S
C114 H162 0.929 . S
C115 C116 1.358 . S
C115 C117 1.356 . S
C115 H163 0.930 . S
C116 N113 1.279 . S
C116 C115 1.358 . S
C116 H119 0.930 . S
C117 C114 1.348 . S
C117 C115 1.356 . S
H118 C112 0.930 . S
H119 C116 0.930 . S
C120 C122 1.348 . S
C120 C123 1.356 . S
C120 O150 1.325 . S
N121 C124 1.314 . S
N121 C125 1.279 . S
C122 C120 1.348 . S
C122 C124 1.353 . S
C122 H164 0.929 . S
C123 C120 1.356 . S
C123 C125 1.358 . S
C123 H165 0.930 . S
C124 N121 1.314 . S
C124 C122 1.353 . S
C124 H166 0.930 . S
C125 N121 1.279 . S
C125 C123 1.358 . S
C125 H167 0.930 . S
C126 C127 1.348 . S
C126 C128 1.356 . S
C126 O151 1.325 . S
C127 C126 1.348 . S
C127 C129 1.353 . S
C127 H168 0.939 . S
C128 C126 1.356 . S
C128 C130 1.358 . S
C128 H169 0.930 . S
C129 C127 1.353 . S
C129 N131 1.314 . S
C129 H170 0.931 . S
C130 C128 1.358 . S
C130 N131 1.279 . S
C130 H171 0.930 . S
N131 C129 1.314 . S
N131 C130 1.279 . S
C132 C134 1.353 . S
C132 N135 1.314 . S
C132 H138 0.930 . S
C133 N135 1.279 1_655 S
C133 C136 1.358 . S
C133 H139 0.930 . S
C134 C132 1.353 . S
C134 C137 1.348 . S
C134 H172 0.929 . S
N135 Li90 1.990 . S
N135 C132 1.314 . S
N135 C133 1.279 1_455 S
C136 C133 1.358 . S
C136 C137 1.356 1_655 S
C136 H173 0.930 . S
C137 C134 1.348 . S
C137 C136 1.356 1_455 S
H138 C132 0.930 . S
H139 C133 0.930 . S
C140 N141 1.314 . S
C140 C142 1.353 . S
C140 H146 0.930 . S
N141 Li91 1.990 . S
N141 C140 1.314 . S
N141 C144 1.279 . S
C142 C140 1.353 . S
C142 C145 1.348 . S
C142 H174 0.929 . S
C143 C144 1.358 . S
C143 C145 1.356 . S
C143 H175 0.930 . S
C144 N141 1.279 . S
C144 C143 1.358 . S
C144 H147 0.930 . S
C145 C142 1.348 . S
C145 C143 1.356 . S
H146 C140 0.930 . S
H147 C144 0.930 . S
O148 Li88 1.956 . S
O148 Li89 1.970 . S
O148 Li90 1.961 . S
O148 C92 1.325 . S
O149 Li88 1.970 . S
O149 Li89 1.956 . S
O149 Li91 1.961 1_455 S
O149 C98 1.325 . S
O150 Li88 1.961 1_655 S
O150 Li90 1.956 1_655 S
O150 Li91 1.970 . S
O150 C120 1.325 . S
O151 Li89 1.961 . S
O151 Li90 1.970 . S
O151 Li91 1.956 1_455 S
O151 C126 1.325 . S
H152 C94 0.929 . S
H153 C95 0.930 . S
H154 C96 0.930 . S
H155 C97 0.930 . S
H156 C99 0.930 . S
H157 C101 0.929 . S
H158 C102 0.930 . S
H159 C103 0.930 . S
H160 C106 0.930 . S
H161 C109 0.929 1_655 S
H162 C114 0.929 . S
H163 C115 0.930 . S
H164 C122 0.929 . S
H165 C123 0.930 . S
H166 C124 0.930 . S
H167 C125 0.930 . S
H168 C127 0.939 . S
H169 C128 0.930 . S
H170 C129 0.931 . S
H171 C130 0.930 . S
H172 C134 0.929 . S
H173 C136 0.930 . S
H174 C142 0.929 . S
H175 C143 0.930 . S
Li176 N193 1.990 . S
Li176 O236 1.956 . S
Li176 O237 1.970 . S
Li176 O238 1.961 . S
Li177 N201 1.990 . S
Li177 O236 1.970 . S
Li177 O237 1.956 . S
Li177 O239 1.961 . S
Li178 N223 1.990 . S
Li178 O236 1.961 . S
Li178 O238 1.956 . S
Li178 O239 1.970 . S
Li179 N229 1.990 . S
Li179 O237 1.961 . S
Li179 O238 1.970 . S
Li179 O239 1.956 . S
C180 C182 1.348 . S
C180 C183 1.356 . S
C180 O236 1.325 . S
N181 C184 1.314 . S
N181 C185 1.279 . S
C182 C180 1.348 . S
C182 C184 1.353 . S
C182 H240 0.929 . S
C183 C180 1.356 . S
C183 C185 1.358 . S
C183 H241 0.930 . S
C184 N181 1.314 . S
C184 C182 1.353 . S
C184 H242 0.930 . S
C185 N181 1.279 . S
C185 C183 1.358 . S
C185 H243 0.930 . S
C186 C189 1.348 . S
C186 C190 1.356 . S
C186 O237 1.325 . S
C187 N188 1.279 . S
C187 C190 1.358 . S
C187 H244 0.930 . S
N188 C187 1.279 . S
N188 C191 1.314 . S
C189 C186 1.348 . S
C189 C191 1.353 . S
C189 H245 0.929 . S
C190 C186 1.356 . S
C190 C187 1.358 . S
C190 H246 0.930 . S
C191 N188 1.314 . S
C191 C189 1.353 . S
C191 H247 0.930 . S
C192 N193 1.314 . S
C192 C197 1.353 . S
C192 H198 0.930 . S
N193 Li176 1.990 . S
N193 C192 1.314 . S
N193 C195 1.279 . S
C194 C195 1.358 . S
C194 C196 1.356 . S
C194 H248 0.930 . S
C195 N193 1.279 . S
C195 C194 1.358 . S
C195 H199 0.930 . S
C196 C194 1.356 . S
C196 C197 1.348 . S
C197 C192 1.353 . S
C197 C196 1.348 . S
C197 H249 0.929 . S
H198 C192 0.930 . S
H199 C195 0.930 . S
C200 N201 1.314 . S
C200 C202 1.353 . S
C200 H206 0.930 . S
N201 Li177 1.990 . S
N201 C200 1.314 . S
N201 C204 1.279 . S
C202 C200 1.353 . S
C202 C205 1.348 . S
C202 H250 0.929 . S
C203 C204 1.358 . S
C203 C205 1.356 . S
C203 H251 0.930 . S
C204 N201 1.279 . S
C204 C203 1.358 . S
C204 H207 0.930 . S
C205 C202 1.348 . S
C205 C203 1.356 . S
H206 C200 0.930 . S
H207 C204 0.930 . S
C208 C210 1.348 . S
C208 C211 1.356 . S
C208 O238 1.325 . S
N209 C212 1.314 . S
N209 C213 1.279 . S
C210 C208 1.348 . S
C210 C212 1.353 . S
C210 H252 0.929 . S
C211 C208 1.356 . S
C211 C213 1.358 . S
C211 H253 0.930 . S
C212 N209 1.314 . S
C212 C210 1.353 . S
C212 H254 0.930 . S
C213 N209 1.279 . S
C213 C211 1.358 . S
C213 H255 0.930 . S
C214 C215 1.348 . S
C214 C216 1.356 . S
C214 O239 1.325 . S
C215 C214 1.348 . S
C215 C217 1.353 . S
C215 H256 0.929 . S
C216 C214 1.356 . S
C216 C218 1.358 . S
C216 H257 0.930 . S
C217 C215 1.353 . S
C217 N219 1.314 . S
C217 H258 0.930 . S
C218 C216 1.358 . S
C218 N219 1.279 . S
C218 H259 0.930 . S
N219 C217 1.314 . S
N219 C218 1.279 . S
C220 C222 1.353 . S
C220 N223 1.314 . S
C220 H226 0.930 . S
C221 N223 1.279 . S
C221 C224 1.358 . S
C221 H227 0.930 . S
C222 C220 1.353 . S
C222 C225 1.348 . S
C222 H260 0.929 . S
N223 Li178 1.990 . S
N223 C220 1.314 . S
N223 C221 1.279 . S
C224 C221 1.358 . S
C224 C225 1.356 . S
C224 H261 0.930 . S
C225 C222 1.348 . S
C225 C224 1.356 . S
H226 C220 0.930 . S
H227 C221 0.930 . S
C228 N229 1.314 . S
C228 C230 1.353 . S
C228 H234 0.930 . S
N229 Li179 1.990 . S
N229 C228 1.314 . S
N229 C232 1.279 . S
C230 C228 1.353 . S
C230 C233 1.348 . S
C230 H262 0.929 . S
C231 C232 1.358 . S
C231 C233 1.356 . S
C231 H263 0.930 . S
C232 N229 1.279 . S
C232 C231 1.358 . S
C232 H235 0.930 . S
C233 C230 1.348 . S
C233 C231 1.356 . S
H234 C228 0.930 . S
H235 C232 0.930 . S
O236 Li176 1.956 . S
O236 Li177 1.970 . S
O236 Li178 1.961 . S
O236 C180 1.325 . S
O237 Li176 1.970 . S
O237 Li177 1.956 . S
O237 Li179 1.961 . S
O237 C186 1.325 . S
O238 Li176 1.961 . S
O238 Li178 1.956 . S
O238 Li179 1.970 . S
O238 C208 1.325 . S
O239 Li177 1.961 . S
O239 Li178 1.970 . S
O239 Li179 1.956 . S
O239 C214 1.325 . S
H240 C182 0.929 . S
H241 C183 0.930 . S
H242 C184 0.930 . S
H243 C185 0.930 . S
H244 C187 0.930 . S
H245 C189 0.929 . S
H246 C190 0.930 . S
H247 C191 0.930 . S
H248 C194 0.930 . S
H249 C197 0.929 . S
H250 C202 0.929 . S
H251 C203 0.930 . S
H252 C210 0.929 . S
H253 C211 0.930 . S
H254 C212 0.930 . S
H255 C213 0.930 . S
H256 C215 0.929 . S
H257 C216 0.930 . S
H258 C217 0.930 . S
H259 C218 0.930 . S
H260 C222 0.929 . S
H261 C224 0.930 . S
H262 C230 0.929 . S
H263 C231 0.930 . S
Li264 N281 1.990 . S
Li264 O324 1.956 . S
Li264 O325 1.970 . S
Li264 O326 1.961 . S
Li265 N289 1.990 . S
Li265 O324 1.970 . S
Li265 O325 1.956 . S
Li265 O327 1.961 . S
Li266 N311 1.990 . S
Li266 O324 1.961 . S
Li266 O326 1.956 . S
Li266 O327 1.970 . S
Li267 N317 1.990 . S
Li267 O325 1.961 . S
Li267 O326 1.970 . S
Li267 O327 1.956 . S
C268 C270 1.348 . S
C268 C271 1.356 . S
C268 O324 1.325 . S
N269 C272 1.314 . S
N269 C273 1.279 . S
C270 C268 1.348 . S
C270 C272 1.353 . S
C270 H328 0.929 . S
C271 C268 1.356 . S
C271 C273 1.358 . S
C271 H329 0.930 . S
C272 N269 1.314 . S
C272 C270 1.353 . S
C272 H330 0.930 . S
C273 N269 1.279 . S
C273 C271 1.358 . S
C273 H331 0.930 . S
C274 C277 1.348 . S
C274 C278 1.356 . S
C274 O325 1.325 . S
C275 N276 1.279 . S
C275 C278 1.358 . S
C275 H332 0.930 . S
N276 C275 1.279 . S
N276 C279 1.314 . S
C277 C274 1.348 . S
C277 C279 1.353 . S
C277 H333 0.929 . S
C278 C274 1.356 . S
C278 C275 1.358 . S
C278 H334 0.930 . S
C279 N276 1.314 . S
C279 C277 1.353 . S
C279 H335 0.930 . S
C280 N281 1.314 . S
C280 C285 1.353 . S
C280 H286 0.930 . S
N281 Li264 1.990 . S
N281 C280 1.314 . S
N281 C283 1.279 . S
C282 C283 1.358 . S
C282 C284 1.356 . S
C282 H336 0.930 . S
C283 N281 1.279 . S
C283 C282 1.358 . S
C283 H287 0.930 . S
C284 C282 1.356 . S
C284 C285 1.348 . S
C285 C280 1.353 . S
C285 C284 1.348 . S
C285 H337 0.929 . S
H286 C280 0.930 . S
H287 C283 0.930 . S
C288 N289 1.314 . S
C288 C290 1.353 . S
C288 H294 0.930 . S
N289 Li265 1.990 . S
N289 C288 1.314 . S
N289 C292 1.279 . S
C290 C288 1.353 . S
C290 C293 1.348 . S
C290 H338 0.929 . S
C291 C292 1.358 . S
C291 C293 1.356 . S
C291 H339 0.930 . S
C292 N289 1.279 . S
C292 C291 1.358 . S
C292 H295 0.930 . S
C293 C290 1.348 . S
C293 C291 1.356 . S
H294 C288 0.930 . S
H295 C292 0.930 . S
C296 C298 1.348 . S
C296 C299 1.356 . S
C296 O326 1.325 . S
N297 C300 1.314 . S
N297 C301 1.279 . S
C298 C296 1.348 . S
C298 C300 1.353 . S
C298 H340 0.929 . S
C299 C296 1.356 . S
C299 C301 1.358 . S
C299 H341 0.930 . S
C300 N297 1.314 . S
C300 C298 1.353 . S
C300 H342 0.930 . S
C301 N297 1.279 . S
C301 C299 1.358 . S
C301 H343 0.930 . S
C302 C303 1.348 . S
C302 C304 1.356 . S
C302 O327 1.325 . S
C303 C302 1.348 . S
C303 C305 1.353 . S
C303 H344 0.929 . S
C304 C302 1.356 . S
C304 C306 1.358 . S
C304 H345 0.930 . S
C305 C303 1.353 . S
C305 N307 1.314 . S
C305 H346 0.930 . S
C306 C304 1.358 . S
C306 N307 1.279 . S
C306 H347 0.930 . S
N307 C305 1.314 . S
N307 C306 1.279 . S
C308 C310 1.353 . S
C308 N311 1.314 . S
C308 H314 0.930 . S
C309 N311 1.279 . S
C309 C312 1.358 . S
C309 H315 0.930 . S
C310 C308 1.353 . S
C310 C313 1.348 . S
C310 H348 0.929 . S
N311 Li266 1.990 . S
N311 C308 1.314 . S
N311 C309 1.279 . S
C312 C309 1.358 . S
C312 C313 1.356 . S
C312 H349 0.930 . S
C313 C310 1.348 . S
C313 C312 1.356 . S
H314 C308 0.930 . S
H315 C309 0.930 . S
C316 N317 1.314 . S
C316 C318 1.353 . S
C316 H322 0.930 . S
N317 Li267 1.990 . S
N317 C316 1.314 . S
N317 C320 1.279 . S
C318 C316 1.353 . S
C318 C321 1.348 . S
C318 H350 0.929 . S
C319 C320 1.358 . S
C319 C321 1.356 . S
C319 H351 0.930 . S
C320 N317 1.279 . S
C320 C319 1.358 . S
C320 H323 0.930 . S
C321 C318 1.348 . S
C321 C319 1.356 . S
H322 C316 0.930 . S
H323 C320 0.930 . S
O324 Li264 1.956 . S
O324 Li265 1.970 . S
O324 Li266 1.961 . S
O324 C268 1.325 . S
O325 Li264 1.970 . S
O325 Li265 1.956 . S
O325 Li267 1.961 . S
O325 C274 1.325 . S
O326 Li264 1.961 . S
O326 Li266 1.956 . S
O326 Li267 1.970 . S
O326 C296 1.325 . S
O327 Li265 1.961 . S
O327 Li266 1.970 . S
O327 Li267 1.956 . S
O327 C302 1.325 . S
H328 C270 0.929 . S
H329 C271 0.930 . S
H330 C272 0.930 . S
H331 C273 0.930 . S
H332 C275 0.930 . S
H333 C277 0.929 . S
H334 C278 0.930 . S
H335 C279 0.930 . S
H336 C282 0.930 . S
H337 C285 0.929 . S
H338 C290 0.929 . S
H339 C291 0.930 . S
H340 C298 0.929 . S
H341 C299 0.930 . S
H342 C300 0.930 . S
H343 C301 0.930 . S
H344 C303 0.929 . S
H345 C304 0.930 . S
H346 C305 0.930 . S
H347 C306 0.930 . S
H348 C310 0.929 . S
H349 C312 0.930 . S
H350 C318 0.929 . S
H351 C319 0.930 . S
Li352 N369 1.990 . S
Li352 O412 1.956 . S
Li352 O413 1.970 . S
Li352 O414 1.961 . S
Li353 N377 1.990 . S
Li353 O412 1.970 . S
Li353 O413 1.956 . S
Li353 O415 1.961 . S
Li354 N399 1.990 . S
Li354 O412 1.961 . S
Li354 O414 1.956 . S
Li354 O415 1.970 . S
Li355 N405 1.990 . S
Li355 O413 1.961 . S
Li355 O414 1.970 . S
Li355 O415 1.956 . S
C356 C358 1.348 . S
C356 C359 1.356 . S
C356 O412 1.325 . S
N357 C360 1.314 . S
N357 C361 1.279 . S
C358 C356 1.348 . S
C358 C360 1.353 . S
C358 H416 0.929 . S
C359 C356 1.356 . S
C359 C361 1.358 . S
C359 H417 0.930 . S
C360 N357 1.314 . S
C360 C358 1.353 . S
C360 H418 0.930 . S
C361 N357 1.279 . S
C361 C359 1.358 . S
C361 H419 0.930 . S
C362 C365 1.348 . S
C362 C366 1.356 . S
C362 O413 1.325 . S
C363 N364 1.279 . S
C363 C366 1.358 . S
C363 H420 0.930 . S
N364 C363 1.279 . S
N364 C367 1.314 . S
C365 C362 1.348 . S
C365 C367 1.353 . S
C365 H421 0.929 . S
C366 C362 1.356 . S
C366 C363 1.358 . S
C366 H422 0.930 . S
C367 N364 1.314 . S
C367 C365 1.353 . S
C367 H423 0.930 . S
C368 N369 1.314 . S
C368 C373 1.353 . S
C368 H374 0.930 . S
N369 Li352 1.990 . S
N369 C368 1.314 . S
N369 C371 1.279 . S
C370 C371 1.358 . S
C370 C372 1.356 . S
C370 H424 0.930 . S
C371 N369 1.279 . S
C371 C370 1.358 . S
C371 H375 0.930 . S
C372 C370 1.356 . S
C372 C373 1.348 . S
C373 C368 1.353 . S
C373 C372 1.348 . S
C373 H425 0.929 . S
H374 C368 0.930 . S
H375 C371 0.930 . S
C376 N377 1.314 . S
C376 C378 1.353 . S
C376 H382 0.930 . S
N377 Li353 1.990 . S
N377 C376 1.314 . S
N377 C380 1.279 . S
C378 C376 1.353 . S
C378 C381 1.348 . S
C378 H426 0.929 . S
C379 C380 1.358 . S
C379 C381 1.356 . S
C379 H427 0.930 . S
C380 N377 1.279 . S
C380 C379 1.358 . S
C380 H383 0.930 . S
C381 C378 1.348 . S
C381 C379 1.356 . S
H382 C376 0.930 . S
H383 C380 0.930 . S
C384 C386 1.348 1_455 S
C384 C387 1.356 . S
C384 O414 1.325 . S
N385 C388 1.314 . S
N385 C389 1.279 . S
C386 C384 1.348 1_655 S
C386 C388 1.353 . S
C386 H428 0.929 . S
C387 C384 1.356 . S
C387 C389 1.358 1_455 S
C387 H429 0.930 . S
C388 N385 1.314 . S
C388 C386 1.353 . S
C388 H430 0.930 . S
C389 N385 1.279 . S
C389 C387 1.358 1_655 S
C389 H431 0.930 . S
C390 C391 1.348 . S
C390 C392 1.356 . S
C390 O415 1.325 . S
C391 C390 1.348 . S
C391 C393 1.353 . S
C391 H432 0.929 . S
C392 C390 1.356 . S
C392 C394 1.358 . S
C392 H433 0.930 . S
C393 C391 1.353 . S
C393 N395 1.314 . S
C393 H434 0.930 . S
C394 C392 1.358 . S
C394 N395 1.279 . S
C394 H435 0.930 . S
N395 C393 1.314 . S
N395 C394 1.279 . S
C396 C398 1.353 . S
C396 N399 1.314 . S
C396 H402 0.930 . S
C397 N399 1.279 . S
C397 C400 1.358 . S
C397 H403 0.930 . S
C398 C396 1.353 . S
C398 C401 1.348 . S
C398 H436 0.929 . S
N399 Li354 1.990 . S
N399 C396 1.314 . S
N399 C397 1.279 . S
C400 C397 1.358 . S
C400 C401 1.356 . S
C400 H437 0.930 . S
C401 C398 1.348 . S
C401 C400 1.356 . S
H402 C396 0.930 . S
H403 C397 0.930 . S
C404 N405 1.314 . S
C404 C406 1.353 1_455 S
C404 H410 0.930 . S
N405 Li355 1.990 . S
N405 C404 1.314 . S
N405 C408 1.279 . S
C406 C404 1.353 1_655 S
C406 C409 1.348 . S
C406 H438 0.929 . S
C407 C408 1.358 1_655 S
C407 C409 1.356 . S
C407 H439 0.930 . S
C408 N405 1.279 . S
C408 C407 1.358 1_455 S
C408 H411 0.930 . S
C409 C406 1.348 . S
C409 C407 1.356 . S
H410 C404 0.930 . S
H411 C408 0.930 . S
O412 Li352 1.956 . S
O412 Li353 1.970 . S
O412 Li354 1.961 . S
O412 C356 1.325 . S
O413 Li352 1.970 . S
O413 Li353 1.956 . S
O413 Li355 1.961 . S
O413 C362 1.325 . S
O414 Li352 1.961 . S
O414 Li354 1.956 . S
O414 Li355 1.970 . S
O414 C384 1.325 . S
O415 Li353 1.961 . S
O415 Li354 1.970 . S
O415 Li355 1.956 . S
O415 C390 1.325 . S
H416 C358 0.929 . S
H417 C359 0.930 . S
H418 C360 0.930 . S
H419 C361 0.930 . S
H420 C363 0.930 . S
H421 C365 0.929 . S
H422 C366 0.930 . S
H423 C367 0.930 . S
H424 C370 0.930 . S
H425 C373 0.929 . S
H426 C378 0.929 . S
H427 C379 0.930 . S
H428 C386 0.929 . S
H429 C387 0.930 . S
H430 C388 0.930 . S
H431 C389 0.930 . S
H432 C391 0.929 . S
H433 C392 0.930 . S
H434 C393 0.930 . S
H435 C394 0.930 . S
H436 C398 0.929 . S
H437 C400 0.930 . S
H438 C406 0.929 . S
H439 C407 0.930 . S
Li440 N457 1.990 . S
Li440 O500 1.956 . S
Li440 O501 1.970 . S
Li440 O502 1.961 . S
Li441 N465 1.990 . S
Li441 O500 1.970 . S
Li441 O501 1.956 . S
Li441 O503 1.961 . S
Li442 N487 1.990 . S
Li442 O500 1.961 . S
Li442 O502 1.956 . S
Li442 O503 1.970 . S
Li443 N493 1.990 . S
Li443 O501 1.961 . S
Li443 O502 1.970 . S
Li443 O503 1.956 . S
C444 C446 1.348 . S
C444 C447 1.356 . S
C444 O500 1.325 . S
N445 C448 1.314 . S
N445 C449 1.279 . S
C446 C444 1.348 . S
C446 C448 1.353 . S
C446 H504 0.929 . S
C447 C444 1.356 . S
C447 C449 1.358 . S
C447 H505 0.930 . S
C448 N445 1.314 . S
C448 C446 1.353 . S
C448 H506 0.930 . S
C449 N445 1.279 . S
C449 C447 1.358 . S
C449 H507 0.930 . S
C450 C453 1.348 . S
C450 C454 1.356 . S
C450 O501 1.325 . S
C451 N452 1.279 . S
C451 C454 1.358 . S
C451 H508 0.930 . S
N452 C451 1.279 . S
N452 C455 1.314 . S
C453 C450 1.348 . S
C453 C455 1.353 . S
C453 H509 0.929 . S
C454 C450 1.356 . S
C454 C451 1.358 . S
C454 H510 0.930 . S
C455 N452 1.314 . S
C455 C453 1.353 . S
C455 H511 0.930 . S
C456 N457 1.314 . S
C456 C461 1.353 . S
C456 H462 0.930 . S
N457 Li440 1.990 . S
N457 C456 1.314 . S
N457 C459 1.279 . S
C458 C459 1.358 . S
C458 C460 1.356 . S
C458 H512 0.930 . S
C459 N457 1.279 . S
C459 C458 1.358 . S
C459 H463 0.930 . S
C460 C458 1.356 . S
C460 C461 1.348 . S
C461 C456 1.353 . S
C461 C460 1.348 . S
C461 H513 0.929 . S
H462 C456 0.930 . S
H463 C459 0.930 . S
C464 N465 1.314 . S
C464 C466 1.353 . S
C464 H470 0.930 . S
N465 Li441 1.990 . S
N465 C464 1.314 . S
N465 C468 1.279 . S
C466 C464 1.353 . S
C466 C469 1.348 . S
C466 H514 0.929 . S
C467 C468 1.358 . S
C467 C469 1.356 . S
C467 H515 0.930 . S
C468 N465 1.279 . S
C468 C467 1.358 . S
C468 H471 0.930 . S
C469 C466 1.348 . S
C469 C467 1.356 . S
H470 C464 0.930 . S
H471 C468 0.930 . S
C472 C474 1.348 . S
C472 C475 1.356 . S
C472 O502 1.325 . S
N473 C476 1.314 . S
N473 C477 1.279 . S
C474 C472 1.348 . S
C474 C476 1.353 . S
C474 H516 0.929 . S
C475 C472 1.356 . S
C475 C477 1.358 . S
C475 H517 0.930 . S
C476 N473 1.314 . S
C476 C474 1.353 . S
C476 H518 0.930 . S
C477 N473 1.279 . S
C477 C475 1.358 . S
C477 H519 0.930 . S
C478 C479 1.348 . S
C478 C480 1.356 . S
C478 O503 1.325 . S
C479 C478 1.348 . S
C479 C481 1.353 . S
C479 H520 0.929 . S
C480 C478 1.356 . S
C480 C482 1.358 . S
C480 H521 0.930 . S
C481 C479 1.353 . S
C481 N483 1.314 . S
C481 H522 0.930 . S
C482 C480 1.358 . S
C482 N483 1.279 . S
C482 H523 0.930 . S
N483 C481 1.314 . S
N483 C482 1.279 . S
C484 C486 1.353 . S
C484 N487 1.314 . S
C484 H490 0.930 . S
C485 N487 1.279 . S
C485 C488 1.358 . S
C485 H491 0.930 . S
C486 C484 1.353 . S
C486 C489 1.348 . S
C486 H524 0.929 . S
N487 Li442 1.990 . S
N487 C484 1.314 . S
N487 C485 1.279 . S
C488 C485 1.358 . S
C488 C489 1.356 . S
C488 H525 0.930 . S
C489 C486 1.348 . S
C489 C488 1.356 . S
H490 C484 0.930 . S
H491 C485 0.930 . S
C492 N493 1.314 . S
C492 C494 1.353 . S
C492 H498 0.930 . S
N493 Li443 1.990 . S
N493 C492 1.314 . S
N493 C496 1.279 . S
C494 C492 1.353 . S
C494 C497 1.348 . S
C494 H526 0.929 . S
C495 C496 1.358 . S
C495 C497 1.356 . S
C495 H527 0.930 . S
C496 N493 1.279 . S
C496 C495 1.358 . S
C496 H499 0.930 . S
C497 C494 1.348 . S
C497 C495 1.356 . S
H498 C492 0.930 . S
H499 C496 0.930 . S
O500 Li440 1.956 . S
O500 Li441 1.970 . S
O500 Li442 1.961 . S
O500 C444 1.325 . S
O501 Li440 1.970 . S
O501 Li441 1.956 . S
O501 Li443 1.961 . S
O501 C450 1.325 . S
O502 Li440 1.961 . S
O502 Li442 1.956 . S
O502 Li443 1.970 . S
O502 C472 1.325 . S
O503 Li441 1.961 . S
O503 Li442 1.970 . S
O503 Li443 1.956 . S
O503 C478 1.325 . S
H504 C446 0.929 . S
H505 C447 0.930 . S
H506 C448 0.930 . S
H507 C449 0.930 . S
H508 C451 0.930 . S
H509 C453 0.929 . S
H510 C454 0.930 . S
H511 C455 0.930 . S
H512 C458 0.930 . S
H513 C461 0.929 . S
H514 C466 0.929 . S
H515 C467 0.930 . S
H516 C474 0.929 . S
H517 C475 0.930 . S
H518 C476 0.930 . S
H519 C477 0.930 . S
H520 C479 0.929 . S
H521 C480 0.930 . S
H522 C481 0.930 . S
H523 C482 0.930 . S
H524 C486 0.929 . S
H525 C488 0.930 . S
H526 C494 0.929 . S
H527 C495 0.930 . S
Li528 N545 1.990 . S
Li528 O588 1.956 . S
Li528 O589 1.970 . S
Li528 O590 1.961 . S
Li529 N553 1.990 . S
Li529 O588 1.970 . S
Li529 O589 1.956 . S
Li529 O591 1.961 . S
Li530 N575 1.990 . S
Li530 O588 1.961 . S
Li530 O590 1.956 . S
Li530 O591 1.970 . S
Li531 N581 1.990 . S
Li531 O589 1.961 . S
Li531 O590 1.970 . S
Li531 O591 1.956 . S
C532 C534 1.348 . S
C532 C535 1.356 . S
C532 O588 1.325 . S
N533 C536 1.314 . S
N533 C537 1.279 . S
C534 C532 1.348 . S
C534 C536 1.353 . S
C534 H592 0.929 . S
C535 C532 1.356 . S
C535 C537 1.358 . S
C535 H593 0.930 . S
C536 N533 1.314 . S
C536 C534 1.353 . S
C536 H594 0.930 . S
C537 N533 1.279 . S
C537 C535 1.358 . S
C537 H595 0.930 . S
C538 C541 1.348 . S
C538 C542 1.356 . S
C538 O589 1.325 . S
C539 N540 1.279 . S
C539 C542 1.358 . S
C539 H596 0.930 . S
N540 C539 1.279 . S
N540 C543 1.314 . S
C541 C538 1.348 . S
C541 C543 1.353 . S
C541 H597 0.929 . S
C542 C538 1.356 . S
C542 C539 1.358 . S
C542 H598 0.930 . S
C543 N540 1.314 . S
C543 C541 1.353 . S
C543 H599 0.930 . S
C544 N545 1.314 . S
C544 C549 1.353 . S
C544 H550 0.930 . S
N545 Li528 1.990 . S
N545 C544 1.314 . S
N545 C547 1.279 . S
C546 C547 1.358 . S
C546 C548 1.356 . S
C546 H600 0.930 . S
C547 N545 1.279 . S
C547 C546 1.358 . S
C547 H551 0.930 . S
C548 C546 1.356 . S
C548 C549 1.348 . S
C549 C544 1.353 . S
C549 C548 1.348 . S
C549 H601 0.929 . S
H550 C544 0.930 . S
H551 C547 0.930 . S
C552 N553 1.314 . S
C552 C554 1.353 . S
C552 H558 0.930 . S
N553 Li529 1.990 . S
N553 C552 1.314 . S
N553 C556 1.279 . S
C554 C552 1.353 . S
C554 C557 1.348 . S
C554 H602 0.929 . S
C555 C556 1.358 . S
C555 C557 1.356 . S
C555 H603 0.930 . S
C556 N553 1.279 . S
C556 C555 1.358 . S
C556 H559 0.930 . S
C557 C554 1.348 . S
C557 C555 1.356 . S
H558 C552 0.930 . S
H559 C556 0.930 . S
C560 C562 1.348 . S
C560 C563 1.356 . S
C560 O590 1.325 . S
N561 C564 1.314 . S
N561 C565 1.279 . S
C562 C560 1.348 . S
C562 C564 1.353 . S
C562 H604 0.929 . S
C563 C560 1.356 . S
C563 C565 1.358 . S
C563 H605 0.930 . S
C564 N561 1.314 . S
C564 C562 1.353 . S
C564 H606 0.930 . S
C565 N561 1.279 . S
C565 C563 1.358 . S
C565 H607 0.930 . S
C566 C567 1.348 . S
C566 C568 1.356 . S
C566 O591 1.325 . S
C567 C566 1.348 . S
C567 C569 1.353 . S
C567 H608 0.929 . S
C568 C566 1.356 . S
C568 C570 1.358 . S
C568 H609 0.930 . S
C569 C567 1.353 . S
C569 N571 1.314 . S
C569 H610 0.930 . S
C570 C568 1.358 . S
C570 N571 1.279 . S
C570 H611 0.930 . S
N571 C569 1.314 . S
N571 C570 1.279 . S
C572 C574 1.353 . S
C572 N575 1.314 . S
C572 H578 0.930 . S
C573 N575 1.279 . S
C573 C576 1.358 . S
C573 H579 0.930 . S
C574 C572 1.353 . S
C574 C577 1.348 . S
C574 H612 0.929 . S
N575 Li530 1.990 . S
N575 C572 1.314 . S
N575 C573 1.279 . S
C576 C573 1.358 . S
C576 C577 1.356 . S
C576 H613 0.930 . S
C577 C574 1.348 . S
C577 C576 1.356 . S
H578 C572 0.930 . S
H579 C573 0.930 . S
C580 N581 1.314 . S
C580 C582 1.353 . S
C580 H586 0.930 . S
N581 Li531 1.990 . S
N581 C580 1.314 . S
N581 C584 1.279 . S
C582 C580 1.353 . S
C582 C585 1.348 . S
C582 H614 0.929 . S
C583 C584 1.358 . S
C583 C585 1.356 . S
C583 H615 0.930 . S
C584 N581 1.279 . S
C584 C583 1.358 . S
C584 H587 0.930 . S
C585 C582 1.348 . S
C585 C583 1.356 . S
H586 C580 0.930 . S
H587 C584 0.930 . S
O588 Li528 1.956 . S
O588 Li529 1.970 . S
O588 Li530 1.961 . S
O588 C532 1.325 . S
O589 Li528 1.970 . S
O589 Li529 1.956 . S
O589 Li531 1.961 . S
O589 C538 1.325 . S
O590 Li528 1.961 . S
O590 Li530 1.956 . S
O590 Li531 1.970 . S
O590 C560 1.325 . S
O591 Li529 1.961 . S
O591 Li530 1.970 . S
O591 Li531 1.956 . S
O591 C566 1.325 . S
H592 C534 0.929 . S
H593 C535 0.930 . S
H594 C536 0.930 . S
H595 C537 0.930 . S
H596 C539 0.930 . S
H597 C541 0.929 . S
H598 C542 0.930 . S
H599 C543 0.930 . S
H600 C546 0.930 . S
H601 C549 0.929 . S
H602 C554 0.929 . S
H603 C555 0.930 . S
H604 C562 0.929 . S
H605 C563 0.930 . S
H606 C564 0.930 . S
H607 C565 0.930 . S
H608 C567 0.929 . S
H609 C568 0.930 . S
H610 C569 0.930 . S
H611 C570 0.930 . S
H612 C574 0.929 . S
H613 C576 0.930 . S
H614 C582 0.929 . S
H615 C583 0.930 . S
Li616 N633 1.990 . S
Li616 O676 1.956 1_455 S
Li616 O677 1.970 . S
Li616 O678 1.961 . S
Li617 N641 1.990 . S
Li617 O676 1.970 . S
Li617 O677 1.956 1_655 S
Li617 O679 1.961 . S
Li618 N663 1.993 . S
Li618 O676 1.957 . S
Li618 O678 1.959 1_655 S
Li618 O679 1.970 . S
Li619 N669 1.990 . S
Li619 O677 1.961 . S
Li619 O678 1.970 . S
Li619 O679 1.956 1_455 S
C620 C622 1.348 . S
C620 C623 1.356 . S
C620 O676 1.325 . S
N621 C624 1.314 . S
N621 C625 1.279 . S
C622 C620 1.348 . S
C622 C624 1.353 . S
C622 H680 0.929 . S
C623 C620 1.356 . S
C623 C625 1.358 . S
C623 H681 0.930 . S
C624 N621 1.314 . S
C624 C622 1.353 . S
C624 H682 0.930 . S
C625 N621 1.279 . S
C625 C623 1.358 . S
C625 H683 0.930 1_556 S
C626 C629 1.348 1_455 S
C626 C630 1.356 . S
C626 O677 1.325 . S
C627 N628 1.279 . S
C627 C630 1.358 . S
C627 H684 0.930 . S
N628 C627 1.279 . S
N628 C631 1.300 1_455 S
C629 C626 1.348 1_655 S
C629 C631 1.351 . S
C629 H685 0.929 . S
C630 C626 1.356 . S
C630 C627 1.358 . S
C630 H686 0.930 . S
C631 N628 1.300 1_655 S
C631 C629 1.351 . S
C631 H687 0.951 . S
C632 N633 1.314 . S
C632 C637 1.353 . S
C632 H638 0.930 . S
N633 Li616 1.990 . S
N633 C632 1.314 . S
N633 C635 1.279 1_455 S
C634 C635 1.358 . S
C634 C636 1.356 1_655 S
C634 H688 0.930 . S
C635 N633 1.279 1_655 S
C635 C634 1.358 . S
C635 H639 0.930 . S
C636 C634 1.356 1_455 S
C636 C637 1.348 . S
C637 C632 1.353 . S
C637 C636 1.348 . S
C637 H689 0.929 . S
H638 C632 0.930 . S
H639 C635 0.930 . S
C640 N641 1.314 . S
C640 C642 1.353 . S
C640 H646 0.930 . S
N641 Li617 1.990 . S
N641 C640 1.314 . S
N641 C644 1.279 . S
C642 C640 1.353 . S
C642 C645 1.348 . S
C642 H690 0.929 . S
C643 C644 1.358 . S
C643 C645 1.356 . S
C643 H691 0.930 . S
C644 N641 1.279 . S
C644 C643 1.358 . S
C644 H647 0.930 . S
C645 C642 1.348 . S
C645 C643 1.356 . S
H646 C640 0.930 . S
H647 C644 0.930 . S
C648 C650 1.348 . S
C648 C651 1.356 . S
C648 O678 1.325 . S
N649 C652 1.314 . S
N649 C653 1.279 . S
C650 C648 1.348 . S
C650 C652 1.353 . S
C650 H692 0.929 . S
C651 C648 1.356 . S
C651 C653 1.358 . S
C651 H693 0.930 . S
C652 N649 1.314 . S
C652 C650 1.353 . S
C652 H694 0.930 . S
C653 N649 1.279 . S
C653 C651 1.358 . S
C653 H695 0.930 1_556 S
C654 C655 1.348 . S
C654 C656 1.356 . S
C654 O679 1.325 . S
C655 C654 1.348 . S
C655 C657 1.353 . S
C655 H696 0.929 1_655 S
C656 C654 1.356 . S
C656 C658 1.358 . S
C656 H697 0.930 . S
C657 C655 1.353 . S
C657 N659 1.314 . S
C657 H698 0.930 . S
C658 C656 1.358 . S
C658 N659 1.279 . S
C658 H699 0.930 . S
N659 C657 1.314 . S
N659 C658 1.279 . S
C660 C662 1.353 . S
C660 N663 1.342 . S
C660 H666 0.930 . S
C661 N663 1.251 1_455 S
C661 C664 1.358 . S
C661 H667 0.930 . S
C662 C660 1.353 . S
C662 C665 1.348 . S
C662 H700 0.929 . S
N663 Li618 1.993 . S
N663 C660 1.342 . S
N663 C661 1.251 1_655 S
C664 C661 1.358 . S
C664 C665 1.356 1_455 S
C664 H701 0.930 . S
C665 C662 1.348 . S
C665 C664 1.356 1_655 S
H666 C660 0.930 . S
H667 C661 0.930 . S
C668 N669 1.314 . S
C668 C670 1.353 . S
C668 H674 0.930 . S
N669 Li619 1.990 . S
N669 C668 1.314 . S
N669 C672 1.279 . S
C670 C668 1.353 . S
C670 C673 1.348 . S
C670 H702 0.929 . S
C671 C672 1.358 . S
C671 C673 1.356 . S
C671 H703 0.930 . S
C672 N669 1.279 . S
C672 C671 1.358 . S
C672 H675 0.930 . S
C673 C670 1.348 . S
C673 C671 1.356 . S
H674 C668 0.930 . S
H675 C672 0.930 . S
O676 Li616 1.956 1_655 S
O676 Li617 1.970 . S
O676 Li618 1.957 . S
O676 C620 1.325 . S
O677 Li616 1.970 . S
O677 Li617 1.956 1_455 S
O677 Li619 1.961 . S
O677 C626 1.325 . S
O678 Li616 1.961 . S
O678 Li618 1.959 1_455 S
O678 Li619 1.970 . S
O678 C648 1.325 . S
O679 Li617 1.961 . S
O679 Li618 1.970 . S
O679 Li619 1.956 1_655 S
O679 C654 1.325 . S
H680 C622 0.929 . S
H681 C623 0.930 . S
H682 C624 0.930 . S
H683 C625 0.930 1_554 S
H684 C627 0.930 . S
H685 C629 0.929 . S
H686 C630 0.930 . S
H687 C631 0.951 . S
H688 C634 0.930 . S
H689 C637 0.929 . S
H690 C642 0.929 . S
H691 C643 0.930 . S
H692 C650 0.929 . S
H693 C651 0.930 . S
H694 C652 0.930 . S
H695 C653 0.930 1_554 S
H696 C655 0.929 1_455 S
H697 C656 0.930 . S
H698 C657 0.930 . S
H699 C658 0.930 . S
H700 C662 0.929 . S
H701 C664 0.930 . S
H702 C670 0.929 . S
H703 C671 0.930 . S
Li704 N721 1.990 . S
Li704 O764 1.956 1_545 S
Li704 O765 1.970 . S
Li704 O766 1.961 . S
Li705 N729 1.990 . S
Li705 O764 1.970 . S
Li705 O765 1.956 1_565 S
Li705 O767 1.961 1_565 S
Li706 N751 1.990 . S
Li706 O764 1.961 1_545 S
Li706 O766 1.956 . S
Li706 O767 1.970 . S
Li707 N757 1.990 . S
Li707 O765 1.961 . S
Li707 O766 1.970 . S
Li707 O767 1.956 . S
C708 C710 1.348 . S
C708 C711 1.356 . S
C708 O764 1.325 . S
N709 C712 1.314 . S
N709 C713 1.279 . S
C710 C708 1.348 . S
C710 C712 1.353 . S
C710 H768 0.929 . S
C711 C708 1.356 . S
C711 C713 1.358 . S
C711 H769 0.930 . S
C712 N709 1.314 . S
C712 C710 1.353 . S
C712 H770 0.930 . S
C713 N709 1.279 . S
C713 C711 1.358 . S
C713 H771 0.930 . S
C714 C717 1.348 . S
C714 C718 1.356 . S
C714 O765 1.325 . S
C715 N716 1.279 . S
C715 C718 1.358 . S
C715 H772 0.930 . S
N716 C715 1.279 . S
N716 C719 1.323 . S
C717 C714 1.348 . S
C717 C719 1.353 . S
C717 H773 0.911 1_545 S
C718 C714 1.356 . S
C718 C715 1.358 . S
C718 H774 0.930 . S
C719 N716 1.323 . S
C719 C717 1.353 . S
C719 H775 0.921 1_545 S
C720 N721 1.314 . S
C720 C725 1.353 . S
C720 H726 0.930 . S
N721 Li704 1.990 . S
N721 C720 1.314 . S
N721 C723 1.279 1_545 S
C722 C723 1.362 1_545 S
C722 C724 1.382 . S
C722 H776 0.900 1_545 S
C723 N721 1.279 1_565 S
C723 C722 1.362 1_565 S
C723 H727 0.930 . S
C724 C722 1.382 . S
C724 C725 1.348 . S
C725 C720 1.353 . S
C725 C724 1.348 . S
C725 H777 0.929 . S
H726 C720 0.930 . S
H727 C723 0.930 . S
C728 N729 1.314 . S
C728 C730 1.353 . S
C728 H734 0.930 . S
N729 Li705 1.990 . S
N729 C728 1.314 . S
N729 C732 1.279 . S
C730 C728 1.353 . S
C730 C733 1.348 . S
C730 H778 0.929 . S
C731 C732 1.358 . S
C731 C733 1.356 . S
C731 H779 0.930 . S
C732 N729 1.279 . S
C732 C731 1.358 . S
C732 H735 0.930 . S
C733 C730 1.348 . S
C733 C731 1.356 . S
H734 C728 0.930 . S
H735 C732 0.930 . S
C736 C738 1.348 . S
C736 C739 1.356 . S
C736 O766 1.325 . S
N737 C740 1.314 . S
N737 C741 1.279 . S
C738 C736 1.348 . S
C738 C740 1.353 . S
C738 H780 0.929 . S
C739 C736 1.356 . S
C739 C741 1.358 . S
C739 H781 0.930 . S
C740 N737 1.314 . S
C740 C738 1.353 . S
C740 H782 0.930 . S
C741 N737 1.279 . S
C741 C739 1.358 . S
C741 H783 0.930 . S
C742 C743 1.359 . S
C742 C744 1.353 1_545 S
C742 O767 1.321 . S
C743 C742 1.359 . S
C743 C745 1.353 . S
C743 H784 0.929 . S
C744 C742 1.353 1_565 S
C744 C746 1.358 . S
C744 H785 0.930 . S
C745 C743 1.353 . S
C745 N747 1.314 1_545 S
C745 H786 0.930 . S
C746 C744 1.358 . S
C746 N747 1.279 . S
C746 H787 0.930 . S
N747 C745 1.314 1_565 S
N747 C746 1.279 . S
C748 C750 1.353 . S
C748 N751 1.314 1_565 S
C748 H754 0.930 . S
C749 N751 1.279 . S
C749 C752 1.358 . S
C749 H755 0.930 . S
C750 C748 1.353 . S
C750 C753 1.348 1_565 S
C750 H788 0.929 . S
N751 Li706 1.990 . S
N751 C748 1.314 1_545 S
N751 C749 1.279 . S
C752 C749 1.358 . S
C752 C753 1.356 . S
C752 H789 0.930 . S
C753 C750 1.348 1_545 S
C753 C752 1.356 . S
H754 C748 0.930 . S
H755 C749 0.930 . S
C756 N757 1.314 . S
C756 C758 1.353 . S
C756 H762 0.930 . S
N757 Li707 1.990 . S
N757 C756 1.314 . S
N757 C760 1.279 . S
C758 C756 1.353 . S
C758 C761 1.348 . S
C758 H790 0.929 . S
C759 C760 1.358 . S
C759 C761 1.356 . S
C759 H791 0.930 . S
C760 N757 1.279 . S
C760 C759 1.358 . S
C760 H763 0.930 . S
C761 C758 1.348 . S
C761 C759 1.356 . S
H762 C756 0.930 . S
H763 C760 0.930 . S
O764 Li704 1.956 1_565 S
O764 Li705 1.970 . S
O764 Li706 1.961 1_565 S
O764 C708 1.325 . S
O765 Li704 1.970 . S
O765 Li705 1.956 1_545 S
O765 Li707 1.961 . S
O765 C714 1.325 . S
O766 Li704 1.961 . S
O766 Li706 1.956 . S
O766 Li707 1.970 . S
O766 C736 1.325 . S
O767 Li705 1.961 1_545 S
O767 Li706 1.970 . S
O767 Li707 1.956 . S
O767 C742 1.321 . S
H768 C710 0.929 . S
H769 C711 0.930 . S
H770 C712 0.930 . S
H771 C713 0.930 . S
H772 C715 0.930 . S
H773 C717 0.911 1_565 S
H774 C718 0.930 . S
H775 C719 0.921 1_565 S
H776 C722 0.900 1_565 S
H777 C725 0.929 . S
H778 C730 0.929 . S
H779 C731 0.930 . S
H780 C738 0.929 . S
H781 C739 0.930 . S
H782 C740 0.930 . S
H783 C741 0.930 . S
H784 C743 0.929 . S
H785 C744 0.930 . S
H786 C745 0.930 . S
H787 C746 0.930 . S
H788 C750 0.929 . S
H789 C752 0.930 . S
H790 C758 0.929 . S
H791 C759 0.930 . S
Li792 N809 1.990 . S
Li792 O852 1.956 . S
Li792 O853 1.970 . S
Li792 O854 1.961 . S
Li793 N817 1.990 . S
Li793 O852 1.970 . S
Li793 O853 1.956 . S
Li793 O855 1.961 . S
Li794 N839 1.990 . S
Li794 O852 1.961 . S
Li794 O854 1.956 . S
Li794 O855 1.970 . S
Li795 N845 1.990 . S
Li795 O853 1.961 . S
Li795 O854 1.970 . S
Li795 O855 1.956 . S
C796 C798 1.348 . S
C796 C799 1.356 . S
C796 O852 1.325 . S
N797 C800 1.314 . S
N797 C801 1.279 . S
C798 C796 1.348 . S
C798 C800 1.353 . S
C798 H856 0.929 . S
C799 C796 1.356 . S
C799 C801 1.358 . S
C799 H857 0.930 . S
C800 N797 1.314 . S
C800 C798 1.353 . S
C800 H858 0.930 . S
C801 N797 1.279 . S
C801 C799 1.358 . S
C801 H859 0.930 . S
C802 C805 1.348 . S
C802 C806 1.356 . S
C802 O853 1.325 . S
C803 N804 1.279 . S
C803 C806 1.358 . S
C803 H860 0.930 . S
N804 C803 1.279 . S
N804 C807 1.314 . S
C805 C802 1.348 . S
C805 C807 1.353 . S
C805 H861 0.929 . S
C806 C802 1.356 . S
C806 C803 1.358 . S
C806 H862 0.930 . S
C807 N804 1.314 . S
C807 C805 1.353 . S
C807 H863 0.930 . S
C808 N809 1.314 . S
C808 C813 1.353 . S
C808 H814 0.930 . S
N809 Li792 1.990 . S
N809 C808 1.314 . S
N809 C811 1.279 . S
C810 C811 1.358 . S
C810 C812 1.356 . S
C810 H864 0.930 . S
C811 N809 1.279 . S
C811 C810 1.358 . S
C811 H815 0.930 . S
C812 C810 1.356 . S
C812 C813 1.348 . S
C813 C808 1.353 . S
C813 C812 1.348 . S
C813 H865 0.929 . S
H814 C808 0.930 . S
H815 C811 0.930 . S
C816 N817 1.314 . S
C816 C818 1.353 . S
C816 H822 0.930 . S
N817 Li793 1.990 . S
N817 C816 1.314 . S
N817 C820 1.279 . S
C818 C816 1.353 . S
C818 C821 1.348 . S
C818 H866 0.929 . S
C819 C820 1.358 . S
C819 C821 1.356 . S
C819 H867 0.930 . S
C820 N817 1.279 . S
C820 C819 1.358 . S
C820 H823 0.930 . S
C821 C818 1.348 . S
C821 C819 1.356 . S
H822 C816 0.930 . S
H823 C820 0.930 . S
C824 C826 1.348 . S
C824 C827 1.356 . S
C824 O854 1.325 . S
N825 C828 1.314 . S
N825 C829 1.279 . S
C826 C824 1.348 . S
C826 C828 1.353 . S
C826 H868 0.929 . S
C827 C824 1.356 . S
C827 C829 1.358 . S
C827 H869 0.930 . S
C828 N825 1.314 . S
C828 C826 1.353 . S
C828 H870 0.930 . S
C829 N825 1.279 . S
C829 C827 1.358 . S
C829 H871 0.930 . S
C830 C831 1.348 . S
C830 C832 1.356 . S
C830 O855 1.325 . S
C831 C830 1.348 . S
C831 C833 1.353 . S
C831 H872 0.929 . S
C832 C830 1.356 . S
C832 C834 1.358 . S
C832 H873 0.930 . S
C833 C831 1.353 . S
C833 N835 1.314 . S
C833 H874 0.930 . S
C834 C832 1.358 . S
C834 N835 1.279 . S
C834 H875 0.930 . S
N835 C833 1.314 . S
N835 C834 1.279 . S
C836 C838 1.353 . S
C836 N839 1.314 . S
C836 H842 0.930 . S
C837 N839 1.279 . S
C837 C840 1.358 . S
C837 H843 0.930 . S
C838 C836 1.353 . S
C838 C841 1.348 . S
C838 H876 0.929 . S
N839 Li794 1.990 . S
N839 C836 1.314 . S
N839 C837 1.279 . S
C840 C837 1.358 . S
C840 C841 1.356 . S
C840 H877 0.930 . S
C841 C838 1.348 . S
C841 C840 1.356 . S
H842 C836 0.930 . S
H843 C837 0.930 . S
C844 N845 1.314 . S
C844 C846 1.353 . S
C844 H850 0.930 . S
N845 Li795 1.990 . S
N845 C844 1.314 . S
N845 C848 1.279 . S
C846 C844 1.353 . S
C846 C849 1.348 . S
C846 H878 0.929 . S
C847 C848 1.358 . S
C847 C849 1.356 . S
C847 H879 0.930 . S
C848 N845 1.279 . S
C848 C847 1.358 . S
C848 H851 0.930 . S
C849 C846 1.348 . S
C849 C847 1.356 . S
H850 C844 0.930 . S
H851 C848 0.930 . S
O852 Li792 1.956 . S
O852 Li793 1.970 . S
O852 Li794 1.961 . S
O852 C796 1.325 . S
O853 Li792 1.970 . S
O853 Li793 1.956 . S
O853 Li795 1.961 . S
O853 C802 1.325 . S
O854 Li792 1.961 . S
O854 Li794 1.956 . S
O854 Li795 1.970 . S
O854 C824 1.325 . S
O855 Li793 1.961 . S
O855 Li794 1.970 . S
O855 Li795 1.956 . S
O855 C830 1.325 . S
H856 C798 0.929 . S
H857 C799 0.930 . S
H858 C800 0.930 . S
H859 C801 0.930 . S
H860 C803 0.930 . S
H861 C805 0.929 . S
H862 C806 0.930 . S
H863 C807 0.930 . S
H864 C810 0.930 . S
H865 C813 0.929 . S
H866 C818 0.929 . S
H867 C819 0.930 . S
H868 C826 0.929 . S
H869 C827 0.930 . S
H870 C828 0.930 . S
H871 C829 0.930 . S
H872 C831 0.929 . S
H873 C832 0.930 . S
H874 C833 0.930 . S
H875 C834 0.930 . S
H876 C838 0.929 . S
H877 C840 0.930 . S
H878 C846 0.929 . S
H879 C847 0.930 . S
Li880 N897 1.990 . S
Li880 O940 1.956 . S
Li880 O941 1.970 . S
Li880 O942 1.961 . S
Li881 N905 1.990 . S
Li881 O940 1.970 . S
Li881 O941 1.956 . S
Li881 O943 1.961 . S
Li882 N927 1.990 1_545 S
Li882 O940 1.961 . S
Li882 O942 1.956 . S
Li882 O943 1.970 . S
Li883 N933 1.990 . S
Li883 O941 1.961 . S
Li883 O942 1.970 . S
Li883 O943 1.956 . S
C884 C886 1.348 . S
C884 C887 1.356 . S
C884 O940 1.325 . S
N885 C888 1.314 . S
N885 C889 1.279 . S
C886 C884 1.348 . S
C886 C888 1.353 . S
C886 H944 0.929 . S
C887 C884 1.356 . S
C887 C889 1.358 . S
C887 H945 0.930 . S
C888 N885 1.314 . S
C888 C886 1.353 . S
C888 H946 0.930 . S
C889 N885 1.279 . S
C889 C887 1.358 . S
C889 H947 0.930 . S
C890 C893 1.348 . S
C890 C894 1.356 . S
C890 O941 1.325 . S
C891 N892 1.279 . S
C891 C894 1.358 . S
C891 H948 0.930 . S
N892 C891 1.279 . S
N892 C895 1.314 . S
C893 C890 1.348 . S
C893 C895 1.353 . S
C893 H949 0.929 . S
C894 C890 1.356 . S
C894 C891 1.358 . S
C894 H950 0.930 . S
C895 N892 1.314 . S
C895 C893 1.353 . S
C895 H951 0.930 . S
C896 N897 1.314 . S
C896 C901 1.353 . S
C896 H902 0.930 . S
N897 Li880 1.990 . S
N897 C896 1.314 . S
N897 C899 1.279 . S
C898 C899 1.358 . S
C898 C900 1.356 . S
C898 H952 0.930 . S
C899 N897 1.279 . S
C899 C898 1.358 . S
C899 H903 0.930 . S
C900 C898 1.356 . S
C900 C901 1.348 . S
C901 C896 1.353 . S
C901 C900 1.348 . S
C901 H953 0.929 . S
H902 C896 0.930 . S
H903 C899 0.930 . S
C904 N905 1.314 . S
C904 C906 1.353 . S
C904 H910 0.930 . S
N905 Li881 1.990 . S
N905 C904 1.314 . S
N905 C908 1.279 . S
C906 C904 1.353 . S
C906 C909 1.348 . S
C906 H954 0.929 . S
C907 C908 1.358 . S
C907 C909 1.356 . S
C907 H955 0.930 . S
C908 N905 1.279 . S
C908 C907 1.358 . S
C908 H911 0.930 . S
C909 C906 1.348 . S
C909 C907 1.356 . S
H910 C904 0.930 . S
H911 C908 0.930 . S
C912 C914 1.348 . S
C912 C915 1.356 . S
C912 O942 1.325 . S
N913 C916 1.314 . S
N913 C917 1.279 . S
C914 C912 1.348 . S
C914 C916 1.353 . S
C914 H956 0.929 . S
C915 C912 1.356 . S
C915 C917 1.358 . S
C915 H957 0.930 . S
C916 N913 1.314 . S
C916 C914 1.353 . S
C916 H958 0.930 . S
C917 N913 1.279 . S
C917 C915 1.358 . S
C917 H959 0.930 . S
C918 C919 1.348 . S
C918 C920 1.356 . S
C918 O943 1.325 1_565 S
C919 C918 1.348 . S
C919 C921 1.353 . S
C919 H960 0.929 . S
C920 C918 1.356 . S
C920 C922 1.358 . S
C920 H961 0.930 1_565 S
C921 C919 1.353 . S
C921 N923 1.314 . S
C921 H962 0.930 . S
C922 C920 1.358 . S
C922 N923 1.279 . S
C922 H963 0.930 . S
N923 C921 1.314 . S
N923 C922 1.279 . S
C924 C926 1.353 . S
C924 N927 1.314 . S
C924 H930 0.930 . S
C925 N927 1.279 . S
C925 C928 1.358 . S
C925 H931 0.930 . S
C926 C924 1.353 . S
C926 C929 1.348 . S
C926 H964 0.929 . S
N927 Li882 1.990 1_565 S
N927 C924 1.314 . S
N927 C925 1.279 . S
C928 C925 1.358 . S
C928 C929 1.356 . S
C928 H965 0.930 . S
C929 C926 1.348 . S
C929 C928 1.356 . S
H930 C924 0.930 . S
H931 C925 0.930 . S
C932 N933 1.314 . S
C932 C934 1.353 . S
C932 H938 0.930 . S
N933 Li883 1.990 . S
N933 C932 1.314 . S
N933 C936 1.279 . S
C934 C932 1.353 . S
C934 C937 1.348 . S
C934 H966 0.929 . S
C935 C936 1.358 . S
C935 C937 1.356 . S
C935 H967 0.930 1_545 S
C936 N933 1.279 . S
C936 C935 1.358 . S
C936 H939 0.917 1_545 S
C937 C934 1.348 . S
C937 C935 1.356 . S
H938 C932 0.930 . S
H939 C936 0.917 1_565 S
O940 Li880 1.956 . S
O940 Li881 1.970 . S
O940 Li882 1.961 . S
O940 C884 1.325 . S
O941 Li880 1.970 . S
O941 Li881 1.956 . S
O941 Li883 1.961 . S
O941 C890 1.325 . S
O942 Li880 1.961 . S
O942 Li882 1.956 . S
O942 Li883 1.970 . S
O942 C912 1.325 . S
O943 Li881 1.961 . S
O943 Li882 1.970 . S
O943 Li883 1.956 . S
O943 C918 1.325 1_545 S
H944 C886 0.929 . S
H945 C887 0.930 . S
H946 C888 0.930 . S
H947 C889 0.930 . S
H948 C891 0.930 . S
H949 C893 0.929 . S
H950 C894 0.930 . S
H951 C895 0.930 . S
H952 C898 0.930 . S
H953 C901 0.929 . S
H954 C906 0.929 . S
H955 C907 0.930 . S
H956 C914 0.929 . S
H957 C915 0.930 . S
H958 C916 0.930 . S
H959 C917 0.930 . S
H960 C919 0.929 . S
H961 C920 0.930 1_545 S
H962 C921 0.930 . S
H963 C922 0.930 . S
H964 C926 0.929 . S
H965 C928 0.930 . S
H966 C934 0.929 . S
H967 C935 0.930 1_565 S
Li968 N985 1.990 . S
Li968 O1028 1.979 . S
Li968 O1029 1.971 1_554 S
Li968 O1030 1.934 1_554 S
Li969 N993 1.990 . S
Li969 O1028 1.970 . S
Li969 O1029 1.956 1_554 S
Li969 O1031 1.996 . S
Li970 N1015 1.990 . S
Li970 O1028 1.961 . S
Li970 O1030 1.956 1_554 S
Li970 O1031 1.967 . S
Li971 N1021 1.990 . S
Li971 O1029 1.961 . S
Li971 O1030 1.970 . S
Li971 O1031 1.923 1_556 S
C972 C974 1.348 . S
C972 C975 1.356 . S
C972 O1028 1.325 . S
N973 C976 1.314 . S
N973 C977 1.279 . S
C974 C972 1.348 . S
C974 C976 1.353 . S
C974 H1032 0.929 . S
C975 C972 1.356 . S
C975 C977 1.358 . S
C975 H1033 0.930 . S
C976 N973 1.314 . S
C976 C974 1.353 . S
C976 H1034 0.930 . S
C977 N973 1.279 . S
C977 C975 1.358 . S
C977 H1035 0.930 . S
C978 C981 1.348 1_556 S
C978 C982 1.356 . S
C978 O1029 1.325 . S
C979 N980 1.279 . S
C979 C982 1.358 . S
C979 H1036 0.930 . S
N980 C979 1.279 . S
N980 C983 1.322 . S
C981 C978 1.348 1_554 S
C981 C983 1.357 1_554 S
C981 H1037 0.929 . S
C982 C978 1.356 . S
C982 C979 1.358 . S
C982 H1038 0.930 . S
C983 N980 1.322 . S
C983 C981 1.357 1_556 S
C983 H1039 0.919 1_556 S
C984 N985 1.271 1_556 S
C984 C989 1.353 . S
C984 H990 0.930 . S
N985 Li968 1.990 . S
N985 C984 1.271 1_554 S
N985 C987 1.323 . S
C986 C987 1.358 . S
C986 C988 1.344 1_554 S
C986 H1040 0.930 . S
C987 N985 1.323 . S
C987 C986 1.358 . S
C987 H991 0.930 . S
C988 C986 1.344 1_556 S
C988 C989 1.361 . S
C989 C984 1.353 . S
C989 C988 1.361 . S
C989 H1041 0.929 . S
H990 C984 0.930 . S
H991 C987 0.930 . S
C992 N993 1.314 . S
C992 C994 1.353 . S
C992 H998 0.930 . S
N993 Li969 1.990 . S
N993 C992 1.314 . S
N993 C996 1.279 . S
C994 C992 1.353 . S
C994 C997 1.348 . S
C994 H1042 0.929 . S
C995 C996 1.358 . S
C995 C997 1.356 . S
C995 H1043 0.930 . S
C996 N993 1.279 . S
C996 C995 1.358 . S
C996 H999 0.930 . S
C997 C994 1.348 . S
C997 C995 1.356 . S
H998 C992 0.930 . S
H999 C996 0.930 . S
C1000 C1002 1.348 . S
C1000 C1003 1.356 . S
C1000 O1030 1.325 . S
N1001 C1004 1.314 . S
N1001 C1005 1.279 . S
C1002 C1000 1.348 . S
C1002 C1004 1.353 . S
C1002 H1044 0.929 . S
C1003 C1000 1.356 . S
C1003 C1005 1.358 . S
C1003 H1045 0.930 . S
C1004 N1001 1.314 . S
C1004 C1002 1.353 . S
C1004 H1046 0.930 . S
C1005 N1001 1.279 . S
C1005 C1003 1.358 . S
C1005 H1047 0.930 . S
C1006 C1007 1.341 1_554 S
C1006 C1008 1.360 . S
C1006 O1031 1.324 . S
C1007 C1006 1.341 1_556 S
C1007 C1009 1.353 . S
C1007 H1048 0.929 . S
C1008 C1006 1.360 . S
C1008 C1010 1.358 . S
C1008 H1049 0.930 . S
C1009 C1007 1.353 . S
C1009 N1011 1.314 . S
C1009 H1050 0.930 . S
C1010 C1008 1.358 . S
C1010 N1011 1.279 1_554 S
C1010 H1051 0.930 . S
N1011 C1009 1.314 . S
N1011 C1010 1.279 1_556 S
C1012 C1014 1.353 . S
C1012 N1015 1.314 . S
C1012 H1018 0.930 . S
C1013 N1015 1.279 1_556 S
C1013 C1016 1.358 . S
C1013 H1019 0.930 . S
C1014 C1012 1.353 . S
C1014 C1017 1.348 . S
C1014 H1052 0.929 . S
N1015 Li970 1.990 . S
N1015 C1012 1.314 . S
N1015 C1013 1.279 1_554 S
C1016 C1013 1.358 . S
C1016 C1017 1.356 1_556 S
C1016 H1053 0.930 . S
C1017 C1014 1.348 . S
C1017 C1016 1.356 1_554 S
H1018 C1012 0.930 . S
H1019 C1013 0.930 . S
C1020 N1021 1.314 . S
C1020 C1022 1.353 . S
C1020 H1026 0.930 . S
N1021 Li971 1.990 . S
N1021 C1020 1.314 . S
N1021 C1024 1.279 . S
C1022 C1020 1.353 . S
C1022 C1025 1.348 . S
C1022 H1054 0.929 . S
C1023 C1024 1.358 . S
C1023 C1025 1.356 . S
C1023 H1055 0.930 . S
C1024 N1021 1.279 . S
C1024 C1023 1.358 . S
C1024 H1027 0.930 . S
C1025 C1022 1.348 . S
C1025 C1023 1.356 . S
H1026 C1020 0.930 . S
H1027 C1024 0.930 . S
O1028 Li968 1.979 . S
O1028 Li969 1.970 . S
O1028 Li970 1.961 . S
O1028 C972 1.325 . S
O1029 Li968 1.971 1_556 S
O1029 Li969 1.956 1_556 S
O1029 Li971 1.961 . S
O1029 C978 1.325 . S
O1030 Li968 1.934 1_556 S
O1030 Li970 1.956 1_556 S
O1030 Li971 1.970 . S
O1030 C1000 1.325 . S
O1031 Li969 1.996 . S
O1031 Li970 1.967 . S
O1031 Li971 1.923 1_554 S
O1031 C1006 1.324 . S
H1032 C974 0.929 . S
H1033 C975 0.930 . S
H1034 C976 0.930 . S
H1035 C977 0.930 . S
H1036 C979 0.930 . S
H1037 C981 0.929 . S
H1038 C982 0.930 . S
H1039 C983 0.919 1_554 S
H1040 C986 0.930 . S
H1041 C989 0.929 . S
H1042 C994 0.929 . S
H1043 C995 0.930 . S
H1044 C1002 0.929 . S
H1045 C1003 0.930 . S
H1046 C1004 0.930 . S
H1047 C1005 0.930 . S
H1048 C1007 0.929 . S
H1049 C1008 0.930 . S
H1050 C1009 0.930 . S
H1051 C1010 0.930 . S
H1052 C1014 0.929 . S
H1053 C1016 0.930 . S
H1054 C1022 0.929 . S
H1055 C1023 0.930 . S
Li1056 N1073 1.990 . S
Li1056 O1116 1.956 . S
Li1056 O1117 1.970 . S
Li1056 O1118 1.961 . S
Li1057 N1081 1.990 . S
Li1057 O1116 1.970 . S
Li1057 O1117 1.956 . S
Li1057 O1119 1.961 . S
Li1058 N1103 1.990 . S
Li1058 O1116 1.961 . S
Li1058 O1118 1.956 . S
Li1058 O1119 1.970 . S
Li1059 N1109 1.990 1_554 S
Li1059 O1117 1.961 . S
Li1059 O1118 1.970 . S
Li1059 O1119 1.956 . S
C1060 C1062 1.348 . S
C1060 C1063 1.356 . S
C1060 O1116 1.325 . S
N1061 C1064 1.314 . S
N1061 C1065 1.279 . S
C1062 C1060 1.348 . S
C1062 C1064 1.353 . S
C1062 H1120 0.929 . S
C1063 C1060 1.356 . S
C1063 C1065 1.358 . S
C1063 H1121 0.930 . S
C1064 N1061 1.314 . S
C1064 C1062 1.353 . S
C1064 H1122 0.930 . S
C1065 N1061 1.279 . S
C1065 C1063 1.358 . S
C1065 H1123 0.930 . S
C1066 C1069 1.348 . S
C1066 C1070 1.356 . S
C1066 O1117 1.325 . S
C1067 N1068 1.279 . S
C1067 C1070 1.358 . S
C1067 H1124 0.930 . S
N1068 C1067 1.279 . S
N1068 C1071 1.314 . S
C1069 C1066 1.348 . S
C1069 C1071 1.353 . S
C1069 H1125 0.929 . S
C1070 C1066 1.356 . S
C1070 C1067 1.358 . S
C1070 H1126 0.930 . S
C1071 N1068 1.314 . S
C1071 C1069 1.353 . S
C1071 H1127 0.930 . S
C1072 N1073 1.314 . S
C1072 C1077 1.353 . S
C1072 H1078 0.930 . S
N1073 Li1056 1.990 . S
N1073 C1072 1.314 . S
N1073 C1075 1.279 . S
C1074 C1075 1.358 . S
C1074 C1076 1.356 . S
C1074 H1128 0.930 . S
C1075 N1073 1.279 . S
C1075 C1074 1.358 . S
C1075 H1079 0.930 . S
C1076 C1074 1.356 . S
C1076 C1077 1.348 . S
C1077 C1072 1.353 . S
C1077 C1076 1.348 . S
C1077 H1129 0.929 . S
H1078 C1072 0.930 . S
H1079 C1075 0.930 . S
C1080 N1081 1.314 . S
C1080 C1082 1.353 . S
C1080 H1086 0.930 . S
N1081 Li1057 1.990 . S
N1081 C1080 1.314 . S
N1081 C1084 1.279 . S
C1082 C1080 1.353 . S
C1082 C1085 1.348 . S
C1082 H1130 0.929 . S
C1083 C1084 1.358 . S
C1083 C1085 1.356 . S
C1083 H1131 0.930 . S
C1084 N1081 1.279 . S
C1084 C1083 1.358 . S
C1084 H1087 0.930 . S
C1085 C1082 1.348 . S
C1085 C1083 1.356 . S
H1086 C1080 0.930 . S
H1087 C1084 0.930 . S
C1088 C1090 1.348 1_554 S
C1088 C1091 1.356 . S
C1088 O1118 1.325 . S
N1089 C1092 1.314 . S
N1089 C1093 1.279 . S
C1090 C1088 1.348 1_556 S
C1090 C1092 1.353 . S
C1090 H1132 0.929 . S
C1091 C1088 1.356 . S
C1091 C1093 1.358 1_554 S
C1091 H1133 0.930 . S
C1092 N1089 1.314 . S
C1092 C1090 1.353 . S
C1092 H1134 0.930 . S
C1093 N1089 1.279 . S
C1093 C1091 1.358 1_556 S
C1093 H1135 0.930 . S
C1094 C1095 1.348 . S
C1094 C1096 1.356 . S
C1094 O1119 1.325 . S
C1095 C1094 1.348 . S
C1095 C1097 1.353 . S
C1095 H1136 0.929 . S
C1096 C1094 1.356 . S
C1096 C1098 1.358 . S
C1096 H1137 0.930 . S
C1097 C1095 1.353 . S
C1097 N1099 1.314 . S
C1097 H1138 0.930 . S
C1098 C1096 1.358 . S
C1098 N1099 1.279 . S
C1098 H1139 0.930 . S
N1099 C1097 1.314 . S
N1099 C1098 1.279 . S
C1100 C1102 1.353 . S
C1100 N1103 1.314 . S
C1100 H1106 0.930 . S
C1101 N1103 1.279 . S
C1101 C1104 1.358 . S
C1101 H1107 0.930 . S
C1102 C1100 1.353 . S
C1102 C1105 1.348 . S
C1102 H1140 0.929 . S
N1103 Li1058 1.990 . S
N1103 C1100 1.314 . S
N1103 C1101 1.279 . S
C1104 C1101 1.358 . S
C1104 C1105 1.356 . S
C1104 H1141 0.930 . S
C1105 C1102 1.348 . S
C1105 C1104 1.356 . S
H1106 C1100 0.930 . S
H1107 C1101 0.930 . S
C1108 N1109 1.314 . S
C1108 C1110 1.353 . S
C1108 H1114 0.930 . S
N1109 Li1059 1.990 1_556 S
N1109 C1108 1.314 . S
N1109 C1112 1.279 . S
C1110 C1108 1.353 . S
C1110 C1113 1.348 . S
C1110 H1142 0.929 . S
C1111 C1112 1.358 . S
C1111 C1113 1.356 . S
C1111 H1143 0.930 . S
C1112 N1109 1.279 . S
C1112 C1111 1.358 . S
C1112 H1115 0.930 . S
C1113 C1110 1.348 . S
C1113 C1111 1.356 . S
H1114 C1108 0.930 . S
H1115 C1112 0.930 . S
O1116 Li1056 1.956 . S
O1116 Li1057 1.970 . S
O1116 Li1058 1.961 . S
O1116 C1060 1.325 . S
O1117 Li1056 1.970 . S
O1117 Li1057 1.956 . S
O1117 Li1059 1.961 . S
O1117 C1066 1.325 . S
O1118 Li1056 1.961 . S
O1118 Li1058 1.956 . S
O1118 Li1059 1.970 . S
O1118 C1088 1.325 . S
O1119 Li1057 1.961 . S
O1119 Li1058 1.970 . S
O1119 Li1059 1.956 . S
O1119 C1094 1.325 . S
H1120 C1062 0.929 . S
H1121 C1063 0.930 . S
H1122 C1064 0.930 . S
H1123 C1065 0.930 . S
H1124 C1067 0.930 . S
H1125 C1069 0.929 . S
H1126 C1070 0.930 . S
H1127 C1071 0.930 . S
H1128 C1074 0.930 . S
H1129 C1077 0.929 . S
H1130 C1082 0.929 . S
H1131 C1083 0.930 . S
H1132 C1090 0.929 . S
H1133 C1091 0.930 . S
H1134 C1092 0.930 . S
H1135 C1093 0.930 . S
H1136 C1095 0.929 . S
H1137 C1096 0.930 . S
H1138 C1097 0.930 . S
H1139 C1098 0.930 . S
H1140 C1102 0.929 . S
H1141 C1104 0.930 . S
H1142 C1110 0.929 . S
H1143 C1111 0.930 . S
Li1144 N1161 1.990 . S
Li1144 O1204 1.956 . S
Li1144 O1205 1.970 . S
Li1144 O1206 1.961 . S
Li1145 N1169 1.990 . S
Li1145 O1204 1.970 . S
Li1145 O1205 1.956 . S
Li1145 O1207 1.961 . S
Li1146 N1191 1.990 . S
Li1146 O1204 1.961 . S
Li1146 O1206 1.956 . S
Li1146 O1207 1.970 . S
Li1147 N1197 1.990 . S
Li1147 O1205 1.961 . S
Li1147 O1206 1.970 . S
Li1147 O1207 1.956 . S
C1148 C1150 1.348 . S
C1148 C1151 1.356 . S
C1148 O1204 1.325 . S
N1149 C1152 1.314 . S
N1149 C1153 1.279 . S
C1150 C1148 1.348 . S
C1150 C1152 1.353 . S
C1150 H1208 0.929 . S
C1151 C1148 1.356 . S
C1151 C1153 1.358 . S
C1151 H1209 0.930 . S
C1152 N1149 1.314 . S
C1152 C1150 1.353 . S
C1152 H1210 0.930 . S
C1153 N1149 1.279 . S
C1153 C1151 1.358 . S
C1153 H1211 0.930 . S
C1154 C1157 1.348 . S
C1154 C1158 1.356 . S
C1154 O1205 1.325 . S
C1155 N1156 1.279 . S
C1155 C1158 1.358 . S
C1155 H1212 0.930 . S
N1156 C1155 1.279 . S
N1156 C1159 1.314 . S
C1157 C1154 1.348 . S
C1157 C1159 1.353 . S
C1157 H1213 0.929 . S
C1158 C1154 1.356 . S
C1158 C1155 1.358 . S
C1158 H1214 0.930 . S
C1159 N1156 1.314 . S
C1159 C1157 1.353 . S
C1159 H1215 0.930 . S
C1160 N1161 1.314 . S
C1160 C1165 1.353 . S
C1160 H1166 0.930 . S
N1161 Li1144 1.990 . S
N1161 C1160 1.314 . S
N1161 C1163 1.279 . S
C1162 C1163 1.358 . S
C1162 C1164 1.356 . S
C1162 H1216 0.930 . S
C1163 N1161 1.279 . S
C1163 C1162 1.358 . S
C1163 H1167 0.930 . S
C1164 C1162 1.356 . S
C1164 C1165 1.348 . S
C1165 C1160 1.353 . S
C1165 C1164 1.348 . S
C1165 H1217 0.929 . S
H1166 C1160 0.930 . S
H1167 C1163 0.930 . S
C1168 N1169 1.314 . S
C1168 C1170 1.353 . S
C1168 H1174 0.930 . S
N1169 Li1145 1.990 . S
N1169 C1168 1.314 . S
N1169 C1172 1.279 . S
C1170 C1168 1.353 . S
C1170 C1173 1.348 . S
C1170 H1218 0.929 . S
C1171 C1172 1.358 . S
C1171 C1173 1.356 . S
C1171 H1219 0.930 . S
C1172 N1169 1.279 . S
C1172 C1171 1.358 . S
C1172 H1175 0.930 . S
C1173 C1170 1.348 . S
C1173 C1171 1.356 . S
H1174 C1168 0.930 . S
H1175 C1172 0.930 . S
C1176 C1178 1.348 . S
C1176 C1179 1.356 . S
C1176 O1206 1.325 . S
N1177 C1180 1.314 . S
N1177 C1181 1.279 . S
C1178 C1176 1.348 . S
C1178 C1180 1.353 . S
C1178 H1220 0.929 . S
C1179 C1176 1.356 . S
C1179 C1181 1.358 . S
C1179 H1221 0.930 . S
C1180 N1177 1.314 . S
C1180 C1178 1.353 . S
C1180 H1222 0.930 . S
C1181 N1177 1.279 . S
C1181 C1179 1.358 . S
C1181 H1223 0.930 . S
C1182 C1183 1.348 1_554 S
C1182 C1184 1.356 . S
C1182 O1207 1.325 . S
C1183 C1182 1.348 1_556 S
C1183 C1185 1.353 . S
C1183 H1224 0.929 . S
C1184 C1182 1.356 . S
C1184 C1186 1.358 1_554 S
C1184 H1225 0.930 . S
C1185 C1183 1.353 . S
C1185 N1187 1.314 . S
C1185 H1226 0.930 . S
C1186 C1184 1.358 1_556 S
C1186 N1187 1.279 . S
C1186 H1227 0.930 . S
N1187 C1185 1.314 . S
N1187 C1186 1.279 . S
C1188 C1190 1.353 . S
C1188 N1191 1.314 1_556 S
C1188 H1194 0.926 1_556 S
C1189 N1191 1.279 1_556 S
C1189 C1192 1.358 . S
C1189 H1195 0.930 1_556 S
C1190 C1188 1.353 . S
C1190 C1193 1.348 . S
C1190 H1228 0.929 . S
N1191 Li1146 1.990 . S
N1191 C1188 1.314 1_554 S
N1191 C1189 1.279 1_554 S
C1192 C1189 1.358 . S
C1192 C1193 1.356 . S
C1192 H1229 0.930 . S
C1193 C1190 1.348 . S
C1193 C1192 1.356 . S
H1194 C1188 0.926 1_554 S
H1195 C1189 0.930 1_554 S
C1196 N1197 1.314 . S
C1196 C1198 1.353 . S
C1196 H1202 0.930 . S
N1197 Li1147 1.990 . S
N1197 C1196 1.314 . S
N1197 C1200 1.279 . S
C1198 C1196 1.353 . S
C1198 C1201 1.348 . S
C1198 H1230 0.929 . S
C1199 C1200 1.358 . S
C1199 C1201 1.356 . S
C1199 H1231 0.930 . S
C1200 N1197 1.279 . S
C1200 C1199 1.358 . S
C1200 H1203 0.930 . S
C1201 C1198 1.348 . S
C1201 C1199 1.356 . S
H1202 C1196 0.930 . S
H1203 C1200 0.930 . S
O1204 Li1144 1.956 . S
O1204 Li1145 1.970 . S
O1204 Li1146 1.961 . S
O1204 C1148 1.325 . S
O1205 Li1144 1.970 . S
O1205 Li1145 1.956 . S
O1205 Li1147 1.961 . S
O1205 C1154 1.325 . S
O1206 Li1144 1.961 . S
O1206 Li1146 1.956 . S
O1206 Li1147 1.970 . S
O1206 C1176 1.325 . S
O1207 Li1145 1.961 . S
O1207 Li1146 1.970 . S
O1207 Li1147 1.956 . S
O1207 C1182 1.325 . S
H1208 C1150 0.929 . S
H1209 C1151 0.930 . S
H1210 C1152 0.930 . S
H1211 C1153 0.930 . S
H1212 C1155 0.930 . S
H1213 C1157 0.929 . S
H1214 C1158 0.930 . S
H1215 C1159 0.930 . S
H1216 C1162 0.930 . S
H1217 C1165 0.929 . S
H1218 C1170 0.929 . S
H1219 C1171 0.930 . S
H1220 C1178 0.929 . S
H1221 C1179 0.930 . S
H1222 C1180 0.930 . S
H1223 C1181 0.930 . S
H1224 C1183 0.929 . S
H1225 C1184 0.930 . S
H1226 C1185 0.930 . S
H1227 C1186 0.930 . S
H1228 C1190 0.929 . S
H1229 C1192 0.930 . S
H1230 C1198 0.929 . S
H1231 C1199 0.930 . S
Li1232 N1249 1.990 . S
Li1232 O1292 1.956 . S
Li1232 O1293 1.970 . S
Li1232 O1294 1.961 . S
Li1233 N1257 1.990 . S
Li1233 O1292 1.970 . S
Li1233 O1293 1.956 . S
Li1233 O1295 1.961 . S
Li1234 N1279 1.990 . S
Li1234 O1292 1.961 . S
Li1234 O1294 1.956 . S
Li1234 O1295 1.970 . S
Li1235 N1285 1.990 . S
Li1235 O1293 1.961 . S
Li1235 O1294 1.970 . S
Li1235 O1295 1.956 . S
C1236 C1238 1.348 . S
C1236 C1239 1.356 . S
C1236 O1292 1.325 . S
N1237 C1240 1.314 . S
N1237 C1241 1.279 . S
C1238 C1236 1.348 . S
C1238 C1240 1.353 . S
C1238 H1296 0.929 . S
C1239 C1236 1.356 . S
C1239 C1241 1.358 . S
C1239 H1297 0.930 . S
C1240 N1237 1.314 . S
C1240 C1238 1.353 . S
C1240 H1298 0.930 . S
C1241 N1237 1.279 . S
C1241 C1239 1.358 . S
C1241 H1299 0.930 . S
C1242 C1245 1.348 . S
C1242 C1246 1.356 . S
C1242 O1293 1.325 . S
C1243 N1244 1.279 . S
C1243 C1246 1.358 . S
C1243 H1300 0.930 . S
N1244 C1243 1.279 . S
N1244 C1247 1.314 . S
C1245 C1242 1.348 . S
C1245 C1247 1.353 . S
C1245 H1301 0.929 . S
C1246 C1242 1.356 . S
C1246 C1243 1.358 . S
C1246 H1302 0.930 . S
C1247 N1244 1.314 . S
C1247 C1245 1.353 . S
C1247 H1303 0.930 . S
C1248 N1249 1.314 . S
C1248 C1253 1.353 . S
C1248 H1254 0.930 . S
N1249 Li1232 1.990 . S
N1249 C1248 1.314 . S
N1249 C1251 1.279 . S
C1250 C1251 1.358 . S
C1250 C1252 1.356 . S
C1250 H1304 0.930 . S
C1251 N1249 1.279 . S
C1251 C1250 1.358 . S
C1251 H1255 0.930 . S
C1252 C1250 1.356 . S
C1252 C1253 1.348 . S
C1253 C1248 1.353 . S
C1253 C1252 1.348 . S
C1253 H1305 0.929 . S
H1254 C1248 0.930 . S
H1255 C1251 0.930 . S
C1256 N1257 1.314 . S
C1256 C1258 1.353 . S
C1256 H1262 0.930 . S
N1257 Li1233 1.990 . S
N1257 C1256 1.314 . S
N1257 C1260 1.279 . S
C1258 C1256 1.353 . S
C1258 C1261 1.348 . S
C1258 H1306 0.929 . S
C1259 C1260 1.358 . S
C1259 C1261 1.356 . S
C1259 H1307 0.930 . S
C1260 N1257 1.279 . S
C1260 C1259 1.358 . S
C1260 H1263 0.930 . S
C1261 C1258 1.348 . S
C1261 C1259 1.356 . S
H1262 C1256 0.930 . S
H1263 C1260 0.930 . S
C1264 C1266 1.348 . S
C1264 C1267 1.356 . S
C1264 O1294 1.325 . S
N1265 C1268 1.314 . S
N1265 C1269 1.279 . S
C1266 C1264 1.348 . S
C1266 C1268 1.353 . S
C1266 H1308 0.929 . S
C1267 C1264 1.356 . S
C1267 C1269 1.358 . S
C1267 H1309 0.930 . S
C1268 N1265 1.314 . S
C1268 C1266 1.353 . S
C1268 H1310 0.930 . S
C1269 N1265 1.279 . S
C1269 C1267 1.358 . S
C1269 H1311 0.930 . S
C1270 C1271 1.348 . S
C1270 C1272 1.356 . S
C1270 O1295 1.325 . S
C1271 C1270 1.348 . S
C1271 C1273 1.353 . S
C1271 H1312 0.929 . S
C1272 C1270 1.356 . S
C1272 C1274 1.358 . S
C1272 H1313 0.930 . S
C1273 C1271 1.353 . S
C1273 N1275 1.314 . S
C1273 H1314 0.930 . S
C1274 C1272 1.358 . S
C1274 N1275 1.279 . S
C1274 H1315 0.930 . S
N1275 C1273 1.314 . S
N1275 C1274 1.279 . S
C1276 C1278 1.353 . S
C1276 N1279 1.314 . S
C1276 H1282 0.930 . S
C1277 N1279 1.279 . S
C1277 C1280 1.358 . S
C1277 H1283 0.930 . S
C1278 C1276 1.353 . S
C1278 C1281 1.348 . S
C1278 H1316 0.929 . S
N1279 Li1234 1.990 . S
N1279 C1276 1.314 . S
N1279 C1277 1.279 . S
C1280 C1277 1.358 . S
C1280 C1281 1.356 . S
C1280 H1317 0.930 . S
C1281 C1278 1.348 . S
C1281 C1280 1.356 . S
H1282 C1276 0.930 . S
H1283 C1277 0.930 . S
C1284 N1285 1.314 . S
C1284 C1286 1.353 . S
C1284 H1290 0.930 . S
N1285 Li1235 1.990 . S
N1285 C1284 1.314 . S
N1285 C1288 1.279 . S
C1286 C1284 1.353 . S
C1286 C1289 1.348 . S
C1286 H1318 0.929 . S
C1287 C1288 1.358 . S
C1287 C1289 1.356 . S
C1287 H1319 0.930 . S
C1288 N1285 1.279 . S
C1288 C1287 1.358 . S
C1288 H1291 0.930 . S
C1289 C1286 1.348 . S
C1289 C1287 1.356 . S
H1290 C1284 0.930 . S
H1291 C1288 0.930 . S
O1292 Li1232 1.956 . S
O1292 Li1233 1.970 . S
O1292 Li1234 1.961 . S
O1292 C1236 1.325 . S
O1293 Li1232 1.970 . S
O1293 Li1233 1.956 . S
O1293 Li1235 1.961 . S
O1293 C1242 1.325 . S
O1294 Li1232 1.961 . S
O1294 Li1234 1.956 . S
O1294 Li1235 1.970 . S
O1294 C1264 1.325 . S
O1295 Li1233 1.961 . S
O1295 Li1234 1.970 . S
O1295 Li1235 1.956 . S
O1295 C1270 1.325 . S
H1296 C1238 0.929 . S
H1297 C1239 0.930 . S
H1298 C1240 0.930 . S
H1299 C1241 0.930 . S
H1300 C1243 0.930 . S
H1301 C1245 0.929 . S
H1302 C1246 0.930 . S
H1303 C1247 0.930 . S
H1304 C1250 0.930 . S
H1305 C1253 0.929 . S
H1306 C1258 0.929 . S
H1307 C1259 0.930 . S
H1308 C1266 0.929 . S
H1309 C1267 0.930 . S
H1310 C1268 0.930 . S
H1311 C1269 0.930 . S
H1312 C1271 0.929 . S
H1313 C1272 0.930 . S
H1314 C1273 0.930 . S
H1315 C1274 0.930 . S
H1316 C1278 0.929 . S
H1317 C1280 0.930 . S
H1318 C1286 0.929 . S
H1319 C1287 0.930 . S
Li1320 N1337 1.990 . S
Li1320 O1380 1.956 . S
Li1320 O1381 1.970 . S
Li1320 O1382 1.961 . S
Li1321 N1345 1.990 . S
Li1321 O1380 1.970 . S
Li1321 O1381 1.956 . S
Li1321 O1383 1.961 . S
Li1322 N1367 1.990 . S
Li1322 O1380 1.961 . S
Li1322 O1382 1.956 . S
Li1322 O1383 1.970 . S
Li1323 N1373 1.990 . S
Li1323 O1381 1.961 . S
Li1323 O1382 1.970 . S
Li1323 O1383 1.956 . S
C1324 C1326 1.348 . S
C1324 C1327 1.356 . S
C1324 O1380 1.325 . S
N1325 C1328 1.314 . S
N1325 C1329 1.279 . S
C1326 C1324 1.348 . S
C1326 C1328 1.353 . S
C1326 H1384 0.929 . S
C1327 C1324 1.356 . S
C1327 C1329 1.358 . S
C1327 H1385 0.930 . S
C1328 N1325 1.314 . S
C1328 C1326 1.353 . S
C1328 H1386 0.930 . S
C1329 N1325 1.279 . S
C1329 C1327 1.358 . S
C1329 H1387 0.930 . S
C1330 C1333 1.348 . S
C1330 C1334 1.356 . S
C1330 O1381 1.325 . S
C1331 N1332 1.279 . S
C1331 C1334 1.358 . S
C1331 H1388 0.930 . S
N1332 C1331 1.279 . S
N1332 C1335 1.314 . S
C1333 C1330 1.348 . S
C1333 C1335 1.353 . S
C1333 H1389 0.929 . S
C1334 C1330 1.356 . S
C1334 C1331 1.358 . S
C1334 H1390 0.930 . S
C1335 N1332 1.314 . S
C1335 C1333 1.353 . S
C1335 H1391 0.930 . S
C1336 N1337 1.314 . S
C1336 C1341 1.353 . S
C1336 H1342 0.930 . S
N1337 Li1320 1.990 . S
N1337 C1336 1.314 . S
N1337 C1339 1.279 . S
C1338 C1339 1.358 . S
C1338 C1340 1.356 . S
C1338 H1392 0.930 . S
C1339 N1337 1.279 . S
C1339 C1338 1.358 . S
C1339 H1343 0.930 . S
C1340 C1338 1.356 . S
C1340 C1341 1.348 . S
C1341 C1336 1.353 . S
C1341 C1340 1.348 . S
C1341 H1393 0.929 . S
H1342 C1336 0.930 . S
H1343 C1339 0.930 . S
C1344 N1345 1.314 . S
C1344 C1346 1.353 . S
C1344 H1350 0.930 . S
N1345 Li1321 1.990 . S
N1345 C1344 1.314 . S
N1345 C1348 1.279 . S
C1346 C1344 1.353 . S
C1346 C1349 1.348 . S
C1346 H1394 0.929 . S
C1347 C1348 1.358 . S
C1347 C1349 1.356 . S
C1347 H1395 0.930 . S
C1348 N1345 1.279 . S
C1348 C1347 1.358 . S
C1348 H1351 0.930 . S
C1349 C1346 1.348 . S
C1349 C1347 1.356 . S
H1350 C1344 0.930 . S
H1351 C1348 0.930 . S
C1352 C1354 1.348 . S
C1352 C1355 1.356 . S
C1352 O1382 1.325 . S
N1353 C1356 1.314 . S
N1353 C1357 1.279 . S
C1354 C1352 1.348 . S
C1354 C1356 1.353 . S
C1354 H1396 0.929 . S
C1355 C1352 1.356 . S
C1355 C1357 1.358 . S
C1355 H1397 0.930 . S
C1356 N1353 1.314 . S
C1356 C1354 1.353 . S
C1356 H1398 0.930 . S
C1357 N1353 1.279 . S
C1357 C1355 1.358 . S
C1357 H1399 0.930 . S
C1358 C1359 1.348 . S
C1358 C1360 1.356 . S
C1358 O1383 1.325 . S
C1359 C1358 1.348 . S
C1359 C1361 1.353 . S
C1359 H1400 0.929 . S
C1360 C1358 1.356 . S
C1360 C1362 1.358 . S
C1360 H1401 0.930 . S
C1361 C1359 1.353 . S
C1361 N1363 1.314 . S
C1361 H1402 0.930 . S
C1362 C1360 1.358 . S
C1362 N1363 1.279 . S
C1362 H1403 0.930 . S
N1363 C1361 1.314 . S
N1363 C1362 1.279 . S
C1364 C1366 1.353 . S
C1364 N1367 1.314 . S
C1364 H1370 0.930 . S
C1365 N1367 1.279 . S
C1365 C1368 1.358 . S
C1365 H1371 0.930 . S
C1366 C1364 1.353 . S
C1366 C1369 1.348 . S
C1366 H1404 0.929 . S
N1367 Li1322 1.990 . S
N1367 C1364 1.314 . S
N1367 C1365 1.279 . S
C1368 C1365 1.358 . S
C1368 C1369 1.356 . S
C1368 H1405 0.930 . S
C1369 C1366 1.348 . S
C1369 C1368 1.356 . S
H1370 C1364 0.930 . S
H1371 C1365 0.930 . S
C1372 N1373 1.314 . S
C1372 C1374 1.353 . S
C1372 H1378 0.930 . S
N1373 Li1323 1.990 . S
N1373 C1372 1.314 . S
N1373 C1376 1.279 . S
C1374 C1372 1.353 . S
C1374 C1377 1.348 . S
C1374 H1406 0.929 . S
C1375 C1376 1.358 . S
C1375 C1377 1.356 . S
C1375 H1407 0.930 . S
C1376 N1373 1.279 . S
C1376 C1375 1.358 . S
C1376 H1379 0.930 . S
C1377 C1374 1.348 . S
C1377 C1375 1.356 . S
H1378 C1372 0.930 . S
H1379 C1376 0.930 . S
O1380 Li1320 1.956 . S
O1380 Li1321 1.970 . S
O1380 Li1322 1.961 . S
O1380 C1324 1.325 . S
O1381 Li1320 1.970 . S
O1381 Li1321 1.956 . S
O1381 Li1323 1.961 . S
O1381 C1330 1.325 . S
O1382 Li1320 1.961 . S
O1382 Li1322 1.956 . S
O1382 Li1323 1.970 . S
O1382 C1352 1.325 . S
O1383 Li1321 1.961 . S
O1383 Li1322 1.970 . S
O1383 Li1323 1.956 . S
O1383 C1358 1.325 . S
H1384 C1326 0.929 . S
H1385 C1327 0.930 . S
H1386 C1328 0.930 . S
H1387 C1329 0.930 . S
H1388 C1331 0.930 . S
H1389 C1333 0.929 . S
H1390 C1334 0.930 . S
H1391 C1335 0.930 . S
H1392 C1338 0.930 . S
H1393 C1341 0.929 . S
H1394 C1346 0.929 . S
H1395 C1347 0.930 . S
H1396 C1354 0.929 . S
H1397 C1355 0.930 . S
H1398 C1356 0.930 . S
H1399 C1357 0.930 . S
H1400 C1359 0.929 . S
H1401 C1360 0.930 . S
H1402 C1361 0.930 . S
H1403 C1362 0.930 . S
H1404 C1366 0.929 . S
H1405 C1368 0.930 . S
H1406 C1374 0.929 . S
H1407 C1375 0.930 . S
Li1408 N1425 1.990 . S
Li1408 O1468 1.956 1_545 S
Li1408 O1469 1.970 . S
Li1408 O1470 1.961 . S
Li1409 N1433 1.990 . S
Li1409 O1468 1.970 . S
Li1409 O1469 1.956 1_565 S
Li1409 O1471 1.961 1_565 S
Li1410 N1455 1.990 . S
Li1410 O1468 1.961 1_545 S
Li1410 O1470 1.956 . S
Li1410 O1471 1.970 . S
Li1411 N1461 1.990 . S
Li1411 O1469 1.961 . S
Li1411 O1470 1.970 . S
Li1411 O1471 1.956 . S
C1412 C1414 1.348 . S
C1412 C1415 1.356 . S
C1412 O1468 1.325 . S
N1413 C1416 1.314 . S
N1413 C1417 1.279 . S
C1414 C1412 1.348 . S
C1414 C1416 1.353 . S
C1414 H1472 0.929 . S
C1415 C1412 1.356 . S
C1415 C1417 1.358 . S
C1415 H1473 0.930 . S
C1416 N1413 1.314 . S
C1416 C1414 1.353 . S
C1416 H1474 0.930 . S
C1417 N1413 1.279 . S
C1417 C1415 1.358 . S
C1417 H1475 0.930 . S
C1418 C1421 1.348 . S
C1418 C1422 1.356 . S
C1418 O1469 1.325 . S
C1419 N1420 1.279 . S
C1419 C1422 1.358 . S
C1419 H1476 0.930 . S
N1420 C1419 1.279 . S
N1420 C1423 1.314 . S
C1421 C1418 1.348 . S
C1421 C1423 1.353 . S
C1421 H1477 0.929 . S
C1422 C1418 1.356 . S
C1422 C1419 1.358 . S
C1422 H1478 0.930 . S
C1423 N1420 1.314 . S
C1423 C1421 1.353 . S
C1423 H1479 0.930 . S
C1424 N1425 1.314 . S
C1424 C1429 1.353 . S
C1424 H1430 0.930 . S
N1425 Li1408 1.990 . S
N1425 C1424 1.314 . S
N1425 C1427 1.279 . S
C1426 C1427 1.358 . S
C1426 C1428 1.356 . S
C1426 H1480 0.930 1_545 S
C1427 N1425 1.279 . S
C1427 C1426 1.358 . S
C1427 H1431 0.930 1_545 S
C1428 C1426 1.356 . S
C1428 C1429 1.348 . S
C1429 C1424 1.353 . S
C1429 C1428 1.348 . S
C1429 H1481 0.929 . S
H1430 C1424 0.930 . S
H1431 C1427 0.930 1_565 S
C1432 N1433 1.314 . S
C1432 C1434 1.353 . S
C1432 H1438 0.930 . S
N1433 Li1409 1.990 . S
N1433 C1432 1.314 . S
N1433 C1436 1.279 . S
C1434 C1432 1.353 . S
C1434 C1437 1.348 . S
C1434 H1482 0.929 . S
C1435 C1436 1.358 . S
C1435 C1437 1.356 . S
C1435 H1483 0.930 . S
C1436 N1433 1.279 . S
C1436 C1435 1.358 . S
C1436 H1439 0.930 . S
C1437 C1434 1.348 . S
C1437 C1435 1.356 . S
H1438 C1432 0.930 . S
H1439 C1436 0.930 . S
C1440 C1442 1.348 . S
C1440 C1443 1.356 . S
C1440 O1470 1.325 . S
N1441 C1444 1.314 . S
N1441 C1445 1.279 . S
C1442 C1440 1.348 . S
C1442 C1444 1.353 . S
C1442 H1484 0.929 . S
C1443 C1440 1.356 . S
C1443 C1445 1.358 . S
C1443 H1485 0.930 . S
C1444 N1441 1.314 . S
C1444 C1442 1.353 . S
C1444 H1486 0.930 . S
C1445 N1441 1.279 . S
C1445 C1443 1.358 . S
C1445 H1487 0.930 . S
C1446 C1447 1.348 . S
C1446 C1448 1.356 . S
C1446 O1471 1.325 . S
C1447 C1446 1.348 . S
C1447 C1449 1.353 . S
C1447 H1488 0.929 . S
C1448 C1446 1.356 . S
C1448 C1450 1.354 . S
C1448 H1489 0.929 1_545 S
C1449 C1447 1.353 . S
C1449 N1451 1.314 . S
C1449 H1490 0.930 . S
C1450 C1448 1.354 . S
C1450 N1451 1.293 . S
C1450 H1491 0.923 1_545 S
N1451 C1449 1.314 . S
N1451 C1450 1.293 . S
C1452 C1454 1.350 1_545 S
C1452 N1455 1.347 . S
C1452 H1458 0.896 1_545 S
C1453 N1455 1.279 . S
C1453 C1456 1.358 . S
C1453 H1459 0.930 . S
C1454 C1452 1.350 1_565 S
C1454 C1457 1.336 1_565 S
C1454 H1492 0.942 . S
N1455 Li1410 1.990 . S
N1455 C1452 1.347 . S
N1455 C1453 1.279 . S
C1456 C1453 1.358 . S
C1456 C1457 1.356 . S
C1456 H1493 0.930 . S
C1457 C1454 1.336 1_545 S
C1457 C1456 1.356 . S
H1458 C1452 0.896 1_565 S
H1459 C1453 0.930 . S
C1460 N1461 1.314 . S
C1460 C1462 1.353 . S
C1460 H1466 0.930 . S
N1461 Li1411 1.990 . S
N1461 C1460 1.314 . S
N1461 C1464 1.279 . S
C1462 C1460 1.353 . S
C1462 C1465 1.348 . S
C1462 H1494 0.929 . S
C1463 C1464 1.358 . S
C1463 C1465 1.356 . S
C1463 H1495 0.930 . S
C1464 N1461 1.279 . S
C1464 C1463 1.358 . S
C1464 H1467 0.930 . S
C1465 C1462 1.348 . S
C1465 C1463 1.356 . S
H1466 C1460 0.930 . S
H1467 C1464 0.930 . S
O1468 Li1408 1.956 1_565 S
O1468 Li1409 1.970 . S
O1468 Li1410 1.961 1_565 S
O1468 C1412 1.325 . S
O1469 Li1408 1.970 . S
O1469 Li1409 1.956 1_545 S
O1469 Li1411 1.961 . S
O1469 C1418 1.325 . S
O1470 Li1408 1.961 . S
O1470 Li1410 1.956 . S
O1470 Li1411 1.970 . S
O1470 C1440 1.325 . S
O1471 Li1409 1.961 1_545 S
O1471 Li1410 1.970 . S
O1471 Li1411 1.956 . S
O1471 C1446 1.325 . S
H1472 C1414 0.929 . S
H1473 C1415 0.930 . S
H1474 C1416 0.930 . S
H1475 C1417 0.930 . S
H1476 C1419 0.930 . S
H1477 C1421 0.929 . S
H1478 C1422 0.930 . S
H1479 C1423 0.930 . S
H1480 C1426 0.930 1_565 S
H1481 C1429 0.929 . S
H1482 C1434 0.929 . S
H1483 C1435 0.930 . S
H1484 C1442 0.929 . S
H1485 C1443 0.930 . S
H1486 C1444 0.930 . S
H1487 C1445 0.930 . S
H1488 C1447 0.929 . S
H1489 C1448 0.929 1_565 S
H1490 C1449 0.930 . S
H1491 C1450 0.923 1_565 S
H1492 C1454 0.942 . S
H1493 C1456 0.930 . S
H1494 C1462 0.929 . S
H1495 C1463 0.930 . S
Li1496 N1513 1.990 . S
Li1496 O1556 1.956 . S
Li1496 O1557 1.970 . S
Li1496 O1558 1.961 . S
Li1497 N1521 1.990 . S
Li1497 O1556 1.970 . S
Li1497 O1557 1.956 . S
Li1497 O1559 1.961 . S
Li1498 N1543 1.990 . S
Li1498 O1556 1.961 . S
Li1498 O1558 1.956 . S
Li1498 O1559 1.970 . S
Li1499 N1549 1.990 . S
Li1499 O1557 1.961 . S
Li1499 O1558 1.970 . S
Li1499 O1559 1.956 . S
C1500 C1502 1.348 . S
C1500 C1503 1.356 . S
C1500 O1556 1.325 . S
N1501 C1504 1.314 . S
N1501 C1505 1.279 . S
C1502 C1500 1.348 . S
C1502 C1504 1.353 . S
C1502 H1560 0.929 . S
C1503 C1500 1.356 . S
C1503 C1505 1.358 . S
C1503 H1561 0.930 . S
C1504 N1501 1.314 . S
C1504 C1502 1.353 . S
C1504 H1562 0.930 . S
C1505 N1501 1.279 . S
C1505 C1503 1.358 . S
C1505 H1563 0.930 . S
C1506 C1509 1.348 . S
C1506 C1510 1.356 . S
C1506 O1557 1.325 . S
C1507 N1508 1.279 . S
C1507 C1510 1.358 . S
C1507 H1564 0.930 . S
N1508 C1507 1.279 . S
N1508 C1511 1.314 . S
C1509 C1506 1.348 . S
C1509 C1511 1.353 . S
C1509 H1565 0.929 . S
C1510 C1506 1.356 . S
C1510 C1507 1.358 . S
C1510 H1566 0.930 . S
C1511 N1508 1.314 . S
C1511 C1509 1.353 . S
C1511 H1567 0.930 . S
C1512 N1513 1.314 . S
C1512 C1517 1.353 . S
C1512 H1518 0.930 . S
N1513 Li1496 1.990 . S
N1513 C1512 1.314 . S
N1513 C1515 1.279 . S
C1514 C1515 1.358 . S
C1514 C1516 1.356 . S
C1514 H1568 0.930 . S
C1515 N1513 1.279 . S
C1515 C1514 1.358 . S
C1515 H1519 0.930 . S
C1516 C1514 1.356 . S
C1516 C1517 1.348 . S
C1517 C1512 1.353 . S
C1517 C1516 1.348 . S
C1517 H1569 0.929 . S
H1518 C1512 0.930 . S
H1519 C1515 0.930 . S
C1520 N1521 1.314 . S
C1520 C1522 1.353 . S
C1520 H1526 0.930 . S
N1521 Li1497 1.990 . S
N1521 C1520 1.314 . S
N1521 C1524 1.279 . S
C1522 C1520 1.353 . S
C1522 C1525 1.348 . S
C1522 H1570 0.929 . S
C1523 C1524 1.358 . S
C1523 C1525 1.356 . S
C1523 H1571 0.930 . S
C1524 N1521 1.279 . S
C1524 C1523 1.358 . S
C1524 H1527 0.930 . S
C1525 C1522 1.348 . S
C1525 C1523 1.356 . S
H1526 C1520 0.930 . S
H1527 C1524 0.930 . S
C1528 C1530 1.348 . S
C1528 C1531 1.356 . S
C1528 O1558 1.325 . S
N1529 C1532 1.314 . S
N1529 C1533 1.279 . S
C1530 C1528 1.348 . S
C1530 C1532 1.353 . S
C1530 H1572 0.929 . S
C1531 C1528 1.356 . S
C1531 C1533 1.358 . S
C1531 H1573 0.930 . S
C1532 N1529 1.314 . S
C1532 C1530 1.353 . S
C1532 H1574 0.930 . S
C1533 N1529 1.279 . S
C1533 C1531 1.358 . S
C1533 H1575 0.930 . S
C1534 C1535 1.348 . S
C1534 C1536 1.356 . S
C1534 O1559 1.325 . S
C1535 C1534 1.348 . S
C1535 C1537 1.353 . S
C1535 H1576 0.929 . S
C1536 C1534 1.356 . S
C1536 C1538 1.358 . S
C1536 H1577 0.930 . S
C1537 C1535 1.353 . S
C1537 N1539 1.314 . S
C1537 H1578 0.930 . S
C1538 C1536 1.358 . S
C1538 N1539 1.279 . S
C1538 H1579 0.930 . S
N1539 C1537 1.314 . S
N1539 C1538 1.279 . S
C1540 C1542 1.353 . S
C1540 N1543 1.314 . S
C1540 H1546 0.930 . S
C1541 N1543 1.279 . S
C1541 C1544 1.358 . S
C1541 H1547 0.930 . S
C1542 C1540 1.353 . S
C1542 C1545 1.348 . S
C1542 H1580 0.929 . S
N1543 Li1498 1.990 . S
N1543 C1540 1.314 . S
N1543 C1541 1.279 . S
C1544 C1541 1.358 . S
C1544 C1545 1.356 . S
C1544 H1581 0.930 . S
C1545 C1542 1.348 . S
C1545 C1544 1.356 . S
H1546 C1540 0.930 . S
H1547 C1541 0.930 . S
C1548 N1549 1.314 . S
C1548 C1550 1.353 . S
C1548 H1554 0.930 . S
N1549 Li1499 1.990 . S
N1549 C1548 1.314 . S
N1549 C1552 1.279 . S
C1550 C1548 1.353 . S
C1550 C1553 1.348 . S
C1550 H1582 0.929 . S
C1551 C1552 1.358 . S
C1551 C1553 1.356 . S
C1551 H1583 0.930 . S
C1552 N1549 1.279 . S
C1552 C1551 1.358 . S
C1552 H1555 0.930 . S
C1553 C1550 1.348 . S
C1553 C1551 1.356 . S
H1554 C1548 0.930 . S
H1555 C1552 0.930 . S
O1556 Li1496 1.956 . S
O1556 Li1497 1.970 . S
O1556 Li1498 1.961 . S
O1556 C1500 1.325 . S
O1557 Li1496 1.970 . S
O1557 Li1497 1.956 . S
O1557 Li1499 1.961 . S
O1557 C1506 1.325 . S
O1558 Li1496 1.961 . S
O1558 Li1498 1.956 . S
O1558 Li1499 1.970 . S
O1558 C1528 1.325 . S
O1559 Li1497 1.961 . S
O1559 Li1498 1.970 . S
O1559 Li1499 1.956 . S
O1559 C1534 1.325 . S
H1560 C1502 0.929 . S
H1561 C1503 0.930 . S
H1562 C1504 0.930 . S
H1563 C1505 0.930 . S
H1564 C1507 0.930 . S
H1565 C1509 0.929 . S
H1566 C1510 0.930 . S
H1567 C1511 0.930 . S
H1568 C1514 0.930 . S
H1569 C1517 0.929 . S
H1570 C1522 0.929 . S
H1571 C1523 0.930 . S
H1572 C1530 0.929 . S
H1573 C1531 0.930 . S
H1574 C1532 0.930 . S
H1575 C1533 0.930 . S
H1576 C1535 0.929 . S
H1577 C1536 0.930 . S
H1578 C1537 0.930 . S
H1579 C1538 0.930 . S
H1580 C1542 0.929 . S
H1581 C1544 0.930 . S
H1582 C1550 0.929 . S
H1583 C1551 0.930 . S
Li1584 N1601 1.990 . S
Li1584 O1644 1.956 . S
Li1584 O1645 1.970 . S
Li1584 O1646 1.961 . S
Li1585 N1609 1.990 . S
Li1585 O1644 1.970 . S
Li1585 O1645 1.956 . S
Li1585 O1647 1.961 . S
Li1586 N1631 1.990 . S
Li1586 O1644 1.961 . S
Li1586 O1646 1.956 . S
Li1586 O1647 1.970 . S
Li1587 N1637 1.990 . S
Li1587 O1645 1.961 . S
Li1587 O1646 1.970 . S
Li1587 O1647 1.956 . S
C1588 C1590 1.348 . S
C1588 C1591 1.356 . S
C1588 O1644 1.325 . S
N1589 C1592 1.314 . S
N1589 C1593 1.279 . S
C1590 C1588 1.348 . S
C1590 C1592 1.353 . S
C1590 H1648 0.929 . S
C1591 C1588 1.356 . S
C1591 C1593 1.358 . S
C1591 H1649 0.930 . S
C1592 N1589 1.314 . S
C1592 C1590 1.353 . S
C1592 H1650 0.930 . S
C1593 N1589 1.279 . S
C1593 C1591 1.358 . S
C1593 H1651 0.930 . S
C1594 C1597 1.348 . S
C1594 C1598 1.356 . S
C1594 O1645 1.325 . S
C1595 N1596 1.279 . S
C1595 C1598 1.358 . S
C1595 H1652 0.930 . S
N1596 C1595 1.279 . S
N1596 C1599 1.314 . S
C1597 C1594 1.348 . S
C1597 C1599 1.353 . S
C1597 H1653 0.929 . S
C1598 C1594 1.356 . S
C1598 C1595 1.358 . S
C1598 H1654 0.930 . S
C1599 N1596 1.314 . S
C1599 C1597 1.353 . S
C1599 H1655 0.930 . S
C1600 N1601 1.314 . S
C1600 C1605 1.353 . S
C1600 H1606 0.930 . S
N1601 Li1584 1.990 . S
N1601 C1600 1.314 . S
N1601 C1603 1.279 . S
C1602 C1603 1.358 . S
C1602 C1604 1.356 . S
C1602 H1656 0.930 . S
C1603 N1601 1.279 . S
C1603 C1602 1.358 . S
C1603 H1607 0.930 . S
C1604 C1602 1.356 . S
C1604 C1605 1.348 . S
C1605 C1600 1.353 . S
C1605 C1604 1.348 . S
C1605 H1657 0.929 . S
H1606 C1600 0.930 . S
H1607 C1603 0.930 . S
C1608 N1609 1.314 . S
C1608 C1610 1.353 . S
C1608 H1614 0.930 . S
N1609 Li1585 1.990 . S
N1609 C1608 1.314 . S
N1609 C1612 1.279 . S
C1610 C1608 1.353 . S
C1610 C1613 1.348 . S
C1610 H1658 0.929 . S
C1611 C1612 1.358 . S
C1611 C1613 1.356 . S
C1611 H1659 0.930 . S
C1612 N1609 1.279 . S
C1612 C1611 1.358 . S
C1612 H1615 0.930 . S
C1613 C1610 1.348 . S
C1613 C1611 1.356 . S
H1614 C1608 0.930 . S
H1615 C1612 0.930 . S
C1616 C1618 1.348 . S
C1616 C1619 1.356 . S
C1616 O1646 1.325 . S
N1617 C1620 1.314 . S
N1617 C1621 1.279 . S
C1618 C1616 1.348 . S
C1618 C1620 1.353 . S
C1618 H1660 0.929 . S
C1619 C1616 1.356 . S
C1619 C1621 1.358 . S
C1619 H1661 0.930 . S
C1620 N1617 1.314 . S
C1620 C1618 1.353 . S
C1620 H1662 0.930 . S
C1621 N1617 1.279 . S
C1621 C1619 1.358 . S
C1621 H1663 0.930 . S
C1622 C1623 1.348 . S
C1622 C1624 1.356 . S
C1622 O1647 1.325 . S
C1623 C1622 1.348 . S
C1623 C1625 1.353 . S
C1623 H1664 0.929 . S
C1624 C1622 1.356 . S
C1624 C1626 1.358 . S
C1624 H1665 0.930 . S
C1625 C1623 1.353 . S
C1625 N1627 1.314 . S
C1625 H1666 0.930 . S
C1626 C1624 1.358 . S
C1626 N1627 1.279 . S
C1626 H1667 0.930 . S
N1627 C1625 1.314 . S
N1627 C1626 1.279 . S
C1628 C1630 1.353 . S
C1628 N1631 1.314 . S
C1628 H1634 0.930 . S
C1629 N1631 1.279 . S
C1629 C1632 1.358 . S
C1629 H1635 0.930 . S
C1630 C1628 1.353 . S
C1630 C1633 1.348 . S
C1630 H1668 0.929 . S
N1631 Li1586 1.990 . S
N1631 C1628 1.314 . S
N1631 C1629 1.279 . S
C1632 C1629 1.358 . S
C1632 C1633 1.356 . S
C1632 H1669 0.930 . S
C1633 C1630 1.348 . S
C1633 C1632 1.356 . S
H1634 C1628 0.930 . S
H1635 C1629 0.930 . S
C1636 N1637 1.314 . S
C1636 C1638 1.353 . S
C1636 H1642 0.930 . S
N1637 Li1587 1.990 . S
N1637 C1636 1.314 . S
N1637 C1640 1.279 . S
C1638 C1636 1.353 . S
C1638 C1641 1.348 . S
C1638 H1670 0.929 . S
C1639 C1640 1.358 . S
C1639 C1641 1.356 . S
C1639 H1671 0.930 . S
C1640 N1637 1.279 . S
C1640 C1639 1.358 . S
C1640 H1643 0.930 . S
C1641 C1638 1.348 . S
C1641 C1639 1.356 . S
H1642 C1636 0.930 . S
H1643 C1640 0.930 . S
O1644 Li1584 1.956 . S
O1644 Li1585 1.970 . S
O1644 Li1586 1.961 . S
O1644 C1588 1.325 . S
O1645 Li1584 1.970 . S
O1645 Li1585 1.956 . S
O1645 Li1587 1.961 . S
O1645 C1594 1.325 . S
O1646 Li1584 1.961 . S
O1646 Li1586 1.956 . S
O1646 Li1587 1.970 . S
O1646 C1616 1.325 . S
O1647 Li1585 1.961 . S
O1647 Li1586 1.970 . S
O1647 Li1587 1.956 . S
O1647 C1622 1.325 . S
H1648 C1590 0.929 . S
H1649 C1591 0.930 . S
H1650 C1592 0.930 . S
H1651 C1593 0.930 . S
H1652 C1595 0.930 . S
H1653 C1597 0.929 . S
H1654 C1598 0.930 . S
H1655 C1599 0.930 . S
H1656 C1602 0.930 . S
H1657 C1605 0.929 . S
H1658 C1610 0.929 . S
H1659 C1611 0.930 . S
H1660 C1618 0.929 . S
H1661 C1619 0.930 . S
H1662 C1620 0.930 . S
H1663 C1621 0.930 . S
H1664 C1623 0.929 . S
H1665 C1624 0.930 . S
H1666 C1625 0.930 . S
H1667 C1626 0.930 . S
H1668 C1630 0.929 . S
H1669 C1632 0.930 . S
H1670 C1638 0.929 . S
H1671 C1639 0.930 . S
Li1672 N1689 1.990 . S
Li1672 O1732 1.956 . S
Li1672 O1733 1.970 . S
Li1672 O1734 1.961 . S
Li1673 N1697 1.990 . S
Li1673 O1732 1.970 . S
Li1673 O1733 1.956 . S
Li1673 O1735 1.961 . S
Li1674 N1719 1.990 . S
Li1674 O1732 1.961 . S
Li1674 O1734 1.956 . S
Li1674 O1735 1.970 . S
Li1675 N1725 1.990 . S
Li1675 O1733 1.961 . S
Li1675 O1734 1.970 . S
Li1675 O1735 1.956 . S
C1676 C1678 1.348 . S
C1676 C1679 1.356 . S
C1676 O1732 1.325 . S
N1677 C1680 1.314 . S
N1677 C1681 1.279 . S
C1678 C1676 1.348 . S
C1678 C1680 1.353 . S
C1678 H1736 0.929 . S
C1679 C1676 1.356 . S
C1679 C1681 1.358 . S
C1679 H1737 0.930 . S
C1680 N1677 1.314 . S
C1680 C1678 1.353 . S
C1680 H1738 0.930 . S
C1681 N1677 1.279 . S
C1681 C1679 1.358 . S
C1681 H1739 0.930 . S
C1682 C1685 1.348 . S
C1682 C1686 1.356 . S
C1682 O1733 1.325 . S
C1683 N1684 1.279 . S
C1683 C1686 1.358 . S
C1683 H1740 0.930 . S
N1684 C1683 1.279 . S
N1684 C1687 1.314 . S
C1685 C1682 1.348 . S
C1685 C1687 1.353 . S
C1685 H1741 0.929 . S
C1686 C1682 1.356 . S
C1686 C1683 1.358 . S
C1686 H1742 0.930 . S
C1687 N1684 1.314 . S
C1687 C1685 1.353 . S
C1687 H1743 0.930 . S
C1688 N1689 1.314 . S
C1688 C1693 1.353 . S
C1688 H1694 0.930 . S
N1689 Li1672 1.990 . S
N1689 C1688 1.314 . S
N1689 C1691 1.279 . S
C1690 C1691 1.358 . S
C1690 C1692 1.356 . S
C1690 H1744 0.930 . S
C1691 N1689 1.279 . S
C1691 C1690 1.358 . S
C1691 H1695 0.930 . S
C1692 C1690 1.356 . S
C1692 C1693 1.348 . S
C1693 C1688 1.353 . S
C1693 C1692 1.348 . S
C1693 H1745 0.929 . S
H1694 C1688 0.930 . S
H1695 C1691 0.930 . S
C1696 N1697 1.314 . S
C1696 C1698 1.353 . S
C1696 H1702 0.930 . S
N1697 Li1673 1.990 . S
N1697 C1696 1.314 . S
N1697 C1700 1.279 . S
C1698 C1696 1.353 . S
C1698 C1701 1.348 . S
C1698 H1746 0.929 . S
C1699 C1700 1.358 . S
C1699 C1701 1.356 . S
C1699 H1747 0.930 . S
C1700 N1697 1.279 . S
C1700 C1699 1.358 . S
C1700 H1703 0.930 . S
C1701 C1698 1.348 . S
C1701 C1699 1.356 . S
H1702 C1696 0.930 . S
H1703 C1700 0.930 . S
C1704 C1706 1.348 1_545 S
C1704 C1707 1.356 . S
C1704 O1734 1.325 . S
N1705 C1708 1.314 . S
N1705 C1709 1.279 . S
C1706 C1704 1.348 1_565 S
C1706 C1708 1.353 . S
C1706 H1748 0.929 . S
C1707 C1704 1.356 . S
C1707 C1709 1.358 1_545 S
C1707 H1749 0.930 . S
C1708 N1705 1.314 . S
C1708 C1706 1.353 . S
C1708 H1750 0.930 . S
C1709 N1705 1.279 . S
C1709 C1707 1.358 1_565 S
C1709 H1751 0.930 . S
C1710 C1711 1.348 . S
C1710 C1712 1.356 . S
C1710 O1735 1.325 . S
C1711 C1710 1.348 . S
C1711 C1713 1.353 . S
C1711 H1752 0.929 . S
C1712 C1710 1.356 . S
C1712 C1714 1.358 . S
C1712 H1753 0.930 . S
C1713 C1711 1.353 . S
C1713 N1715 1.314 . S
C1713 H1754 0.930 . S
C1714 C1712 1.358 . S
C1714 N1715 1.279 . S
C1714 H1755 0.930 . S
N1715 C1713 1.314 . S
N1715 C1714 1.279 . S
C1716 C1718 1.353 . S
C1716 N1719 1.314 . S
C1716 H1722 0.930 . S
C1717 N1719 1.279 . S
C1717 C1720 1.358 . S
C1717 H1723 0.930 . S
C1718 C1716 1.353 . S
C1718 C1721 1.348 . S
C1718 H1756 0.929 . S
N1719 Li1674 1.990 . S
N1719 C1716 1.314 . S
N1719 C1717 1.279 . S
C1720 C1717 1.358 . S
C1720 C1721 1.356 . S
C1720 H1757 0.930 . S
C1721 C1718 1.348 . S
C1721 C1720 1.356 . S
H1722 C1716 0.930 . S
H1723 C1717 0.930 . S
C1724 N1725 1.314 1_565 S
C1724 C1726 1.353 . S
C1724 H1730 0.930 . S
N1725 Li1675 1.990 . S
N1725 C1724 1.314 1_545 S
N1725 C1728 1.279 1_545 S
C1726 C1724 1.353 . S
C1726 C1729 1.348 . S
C1726 H1758 0.929 . S
C1727 C1728 1.358 . S
C1727 C1729 1.356 . S
C1727 H1759 0.930 . S
C1728 N1725 1.279 1_565 S
C1728 C1727 1.358 . S
C1728 H1731 0.930 1_565 S
C1729 C1726 1.348 . S
C1729 C1727 1.356 . S
H1730 C1724 0.930 . S
H1731 C1728 0.930 1_545 S
O1732 Li1672 1.956 . S
O1732 Li1673 1.970 . S
O1732 Li1674 1.961 . S
O1732 C1676 1.325 . S
O1733 Li1672 1.970 . S
O1733 Li1673 1.956 . S
O1733 Li1675 1.961 . S
O1733 C1682 1.325 . S
O1734 Li1672 1.961 . S
O1734 Li1674 1.956 . S
O1734 Li1675 1.970 . S
O1734 C1704 1.325 . S
O1735 Li1673 1.961 . S
O1735 Li1674 1.970 . S
O1735 Li1675 1.956 . S
O1735 C1710 1.325 . S
H1736 C1678 0.929 . S
H1737 C1679 0.930 . S
H1738 C1680 0.930 . S
H1739 C1681 0.930 . S
H1740 C1683 0.930 . S
H1741 C1685 0.929 . S
H1742 C1686 0.930 . S
H1743 C1687 0.930 . S
H1744 C1690 0.930 . S
H1745 C1693 0.929 . S
H1746 C1698 0.929 . S
H1747 C1699 0.930 . S
H1748 C1706 0.929 . S
H1749 C1707 0.930 . S
H1750 C1708 0.930 . S
H1751 C1709 0.930 . S
H1752 C1711 0.929 . S
H1753 C1712 0.930 . S
H1754 C1713 0.930 . S
H1755 C1714 0.930 . S
H1756 C1718 0.929 . S
H1757 C1720 0.930 . S
H1758 C1726 0.929 . S
H1759 C1727 0.930 . S
Li1760 N1777 1.990 . S
Li1760 O1820 1.956 . S
Li1760 O1821 1.970 . S
Li1760 O1822 1.961 . S
Li1761 N1785 1.990 . S
Li1761 O1820 1.970 . S
Li1761 O1821 1.956 . S
Li1761 O1823 1.961 1_554 S
Li1762 N1807 1.990 . S
Li1762 O1820 1.961 1_556 S
Li1762 O1822 1.956 1_556 S
Li1762 O1823 1.970 . S
Li1763 N1813 1.990 . S
Li1763 O1821 1.961 . S
Li1763 O1822 1.970 . S
Li1763 O1823 1.956 1_554 S
C1764 C1766 1.348 . S
C1764 C1767 1.356 . S
C1764 O1820 1.325 . S
N1765 C1768 1.314 . S
N1765 C1769 1.279 . S
C1766 C1764 1.348 . S
C1766 C1768 1.353 . S
C1766 H1824 0.929 . S
C1767 C1764 1.356 . S
C1767 C1769 1.358 . S
C1767 H1825 0.930 . S
C1768 N1765 1.314 . S
C1768 C1766 1.353 . S
C1768 H1826 0.930 . S
C1769 N1765 1.279 . S
C1769 C1767 1.358 . S
C1769 H1827 0.930 . S
C1770 C1773 1.348 . S
C1770 C1774 1.356 . S
C1770 O1821 1.325 . S
C1771 N1772 1.279 . S
C1771 C1774 1.358 . S
C1771 H1828 0.930 . S
N1772 C1771 1.279 . S
N1772 C1775 1.314 . S
C1773 C1770 1.348 . S
C1773 C1775 1.353 . S
C1773 H1829 0.929 . S
C1774 C1770 1.356 . S
C1774 C1771 1.358 . S
C1774 H1830 0.930 . S
C1775 N1772 1.314 . S
C1775 C1773 1.353 . S
C1775 H1831 0.930 . S
C1776 N1777 1.314 . S
C1776 C1781 1.353 . S
C1776 H1782 0.930 . S
N1777 Li1760 1.990 . S
N1777 C1776 1.314 . S
N1777 C1779 1.279 . S
C1778 C1779 1.358 . S
C1778 C1780 1.356 . S
C1778 H1832 0.930 . S
C1779 N1777 1.279 . S
C1779 C1778 1.358 . S
C1779 H1783 0.930 . S
C1780 C1778 1.356 . S
C1780 C1781 1.348 . S
C1781 C1776 1.353 . S
C1781 C1780 1.348 . S
C1781 H1833 0.929 . S
H1782 C1776 0.930 . S
H1783 C1779 0.930 . S
C1784 N1785 1.314 1_556 S
C1784 C1786 1.353 . S
C1784 H1790 0.930 . S
N1785 Li1761 1.990 . S
N1785 C1784 1.314 1_554 S
N1785 C1788 1.279 . S
C1786 C1784 1.353 . S
C1786 C1789 1.348 1_556 S
C1786 H1834 0.929 . S
C1787 C1788 1.358 . S
C1787 C1789 1.356 . S
C1787 H1835 0.930 . S
C1788 N1785 1.279 . S
C1788 C1787 1.358 . S
C1788 H1791 0.930 . S
C1789 C1786 1.348 1_554 S
C1789 C1787 1.356 . S
H1790 C1784 0.930 . S
H1791 C1788 0.930 . S
C1792 C1794 1.348 . S
C1792 C1795 1.356 . S
C1792 O1822 1.325 . S
N1793 C1796 1.314 . S
N1793 C1797 1.279 . S
C1794 C1792 1.348 . S
C1794 C1796 1.353 . S
C1794 H1836 0.929 1_554 S
C1795 C1792 1.356 . S
C1795 C1797 1.358 . S
C1795 H1837 0.930 . S
C1796 N1793 1.314 . S
C1796 C1794 1.353 . S
C1796 H1838 0.930 1_554 S
C1797 N1793 1.279 . S
C1797 C1795 1.358 . S
C1797 H1839 0.930 . S
C1798 C1799 1.348 . S
C1798 C1800 1.356 . S
C1798 O1823 1.325 . S
C1799 C1798 1.348 . S
C1799 C1801 1.353 . S
C1799 H1840 0.929 . S
C1800 C1798 1.356 . S
C1800 C1802 1.358 . S
C1800 H1841 0.930 . S
C1801 C1799 1.353 . S
C1801 N1803 1.314 . S
C1801 H1842 0.930 . S
C1802 C1800 1.358 . S
C1802 N1803 1.279 . S
C1802 H1843 0.930 . S
N1803 C1801 1.314 . S
N1803 C1802 1.279 . S
C1804 C1806 1.353 . S
C1804 N1807 1.314 . S
C1804 H1810 0.930 . S
C1805 N1807 1.279 . S
C1805 C1808 1.358 . S
C1805 H1811 0.930 . S
C1806 C1804 1.353 . S
C1806 C1809 1.348 . S
C1806 H1844 0.929 . S
N1807 Li1762 1.990 . S
N1807 C1804 1.314 . S
N1807 C1805 1.279 . S
C1808 C1805 1.358 . S
C1808 C1809 1.356 . S
C1808 H1845 0.930 . S
C1809 C1806 1.348 . S
C1809 C1808 1.356 . S
H1810 C1804 0.930 . S
H1811 C1805 0.930 . S
C1812 N1813 1.314 . S
C1812 C1814 1.353 . S
C1812 H1818 0.930 . S
N1813 Li1763 1.990 . S
N1813 C1812 1.314 . S
N1813 C1816 1.279 1_554 S
C1814 C1812 1.353 . S
C1814 C1817 1.375 . S
C1814 H1846 0.929 . S
C1815 C1816 1.358 . S
C1815 C1817 1.327 1_556 S
C1815 H1847 0.930 . S
C1816 N1813 1.279 1_556 S
C1816 C1815 1.358 . S
C1816 H1819 0.930 . S
C1817 C1814 1.375 . S
C1817 C1815 1.327 1_554 S
H1818 C1812 0.930 . S
H1819 C1816 0.930 . S
O1820 Li1760 1.956 . S
O1820 Li1761 1.970 . S
O1820 Li1762 1.961 1_554 S
O1820 C1764 1.325 . S
O1821 Li1760 1.970 . S
O1821 Li1761 1.956 . S
O1821 Li1763 1.961 . S
O1821 C1770 1.325 . S
O1822 Li1760 1.961 . S
O1822 Li1762 1.956 1_554 S
O1822 Li1763 1.970 . S
O1822 C1792 1.325 . S
O1823 Li1761 1.961 1_556 S
O1823 Li1762 1.970 . S
O1823 Li1763 1.956 1_556 S
O1823 C1798 1.325 . S
H1824 C1766 0.929 . S
H1825 C1767 0.930 . S
H1826 C1768 0.930 . S
H1827 C1769 0.930 . S
H1828 C1771 0.930 . S
H1829 C1773 0.929 . S
H1830 C1774 0.930 . S
H1831 C1775 0.930 . S
H1832 C1778 0.930 . S
H1833 C1781 0.929 . S
H1834 C1786 0.929 . S
H1835 C1787 0.930 . S
H1836 C1794 0.929 1_556 S
H1837 C1795 0.930 . S
H1838 C1796 0.930 1_556 S
H1839 C1797 0.930 . S
H1840 C1799 0.929 . S
H1841 C1800 0.930 . S
H1842 C1801 0.930 . S
H1843 C1802 0.930 . S
H1844 C1806 0.929 . S
H1845 C1808 0.930 . S
H1846 C1814 0.929 . S
H1847 C1815 0.930 . S
Li1848 N1865 1.990 . S
Li1848 O1908 1.956 . S
Li1848 O1909 1.970 . S
Li1848 O1910 1.961 . S
Li1849 N1873 1.990 . S
Li1849 O1908 1.970 . S
Li1849 O1909 1.956 . S
Li1849 O1911 1.961 . S
Li1850 N1895 1.990 . S
Li1850 O1908 1.961 . S
Li1850 O1910 1.956 . S
Li1850 O1911 1.970 . S
Li1851 N1901 1.990 . S
Li1851 O1909 1.961 . S
Li1851 O1910 1.970 . S
Li1851 O1911 1.956 . S
C1852 C1854 1.348 . S
C1852 C1855 1.356 . S
C1852 O1908 1.325 . S
N1853 C1856 1.314 . S
N1853 C1857 1.279 . S
C1854 C1852 1.348 . S
C1854 C1856 1.353 . S
C1854 H1912 0.929 . S
C1855 C1852 1.356 . S
C1855 C1857 1.358 . S
C1855 H1913 0.930 . S
C1856 N1853 1.314 . S
C1856 C1854 1.353 . S
C1856 H1914 0.930 . S
C1857 N1853 1.279 . S
C1857 C1855 1.358 . S
C1857 H1915 0.930 . S
C1858 C1861 1.348 . S
C1858 C1862 1.356 . S
C1858 O1909 1.325 . S
C1859 N1860 1.279 . S
C1859 C1862 1.358 . S
C1859 H1916 0.930 . S
N1860 C1859 1.279 . S
N1860 C1863 1.314 . S
C1861 C1858 1.348 . S
C1861 C1863 1.353 . S
C1861 H1917 0.929 . S
C1862 C1858 1.356 . S
C1862 C1859 1.358 . S
C1862 H1918 0.930 . S
C1863 N1860 1.314 . S
C1863 C1861 1.353 . S
C1863 H1919 0.930 . S
C1864 N1865 1.314 . S
C1864 C1869 1.353 . S
C1864 H1870 0.930 . S
N1865 Li1848 1.990 . S
N1865 C1864 1.314 . S
N1865 C1867 1.279 . S
C1866 C1867 1.358 . S
C1866 C1868 1.356 . S
C1866 H1920 0.930 . S
C1867 N1865 1.279 . S
C1867 C1866 1.358 . S
C1867 H1871 0.930 . S
C1868 C1866 1.356 . S
C1868 C1869 1.348 . S
C1869 C1864 1.353 . S
C1869 C1868 1.348 . S
C1869 H1921 0.929 . S
H1870 C1864 0.930 . S
H1871 C1867 0.930 . S
C1872 N1873 1.314 . S
C1872 C1874 1.353 . S
C1872 H1878 0.930 . S
N1873 Li1849 1.990 . S
N1873 C1872 1.314 . S
N1873 C1876 1.279 . S
C1874 C1872 1.353 . S
C1874 C1877 1.348 . S
C1874 H1922 0.929 . S
C1875 C1876 1.358 . S
C1875 C1877 1.356 . S
C1875 H1923 0.930 . S
C1876 N1873 1.279 . S
C1876 C1875 1.358 . S
C1876 H1879 0.930 . S
C1877 C1874 1.348 . S
C1877 C1875 1.356 . S
H1878 C1872 0.930 . S
H1879 C1876 0.930 . S
C1880 C1882 1.348 . S
C1880 C1883 1.356 . S
C1880 O1910 1.325 . S
N1881 C1884 1.314 . S
N1881 C1885 1.279 . S
C1882 C1880 1.348 . S
C1882 C1884 1.353 . S
C1882 H1924 0.929 . S
C1883 C1880 1.356 . S
C1883 C1885 1.358 . S
C1883 H1925 0.930 . S
C1884 N1881 1.314 . S
C1884 C1882 1.353 . S
C1884 H1926 0.930 . S
C1885 N1881 1.279 . S
C1885 C1883 1.358 . S
C1885 H1927 0.930 . S
C1886 C1887 1.348 . S
C1886 C1888 1.356 . S
C1886 O1911 1.325 . S
C1887 C1886 1.348 . S
C1887 C1889 1.353 . S
C1887 H1928 0.929 . S
C1888 C1886 1.356 . S
C1888 C1890 1.358 . S
C1888 H1929 0.930 . S
C1889 C1887 1.353 . S
C1889 N1891 1.314 . S
C1889 H1930 0.930 . S
C1890 C1888 1.358 . S
C1890 N1891 1.279 . S
C1890 H1931 0.930 . S
N1891 C1889 1.314 . S
N1891 C1890 1.279 . S
C1892 C1894 1.353 . S
C1892 N1895 1.314 . S
C1892 H1898 0.930 . S
C1893 N1895 1.279 . S
C1893 C1896 1.358 . S
C1893 H1899 0.930 . S
C1894 C1892 1.353 . S
C1894 C1897 1.348 . S
C1894 H1932 0.929 . S
N1895 Li1850 1.990 . S
N1895 C1892 1.314 . S
N1895 C1893 1.279 . S
C1896 C1893 1.358 . S
C1896 C1897 1.356 . S
C1896 H1933 0.930 . S
C1897 C1894 1.348 . S
C1897 C1896 1.356 . S
H1898 C1892 0.930 . S
H1899 C1893 0.930 . S
C1900 N1901 1.314 . S
C1900 C1902 1.353 . S
C1900 H1906 0.930 . S
N1901 Li1851 1.990 . S
N1901 C1900 1.314 . S
N1901 C1904 1.279 . S
C1902 C1900 1.353 . S
C1902 C1905 1.348 . S
C1902 H1934 0.929 . S
C1903 C1904 1.358 . S
C1903 C1905 1.356 . S
C1903 H1935 0.930 . S
C1904 N1901 1.279 . S
C1904 C1903 1.358 . S
C1904 H1907 0.930 . S
C1905 C1902 1.348 . S
C1905 C1903 1.356 . S
H1906 C1900 0.930 . S
H1907 C1904 0.930 . S
O1908 Li1848 1.956 . S
O1908 Li1849 1.970 . S
O1908 Li1850 1.961 . S
O1908 C1852 1.325 . S
O1909 Li1848 1.970 . S
O1909 Li1849 1.956 . S
O1909 Li1851 1.961 . S
O1909 C1858 1.325 . S
O1910 Li1848 1.961 . S
O1910 Li1850 1.956 . S
O1910 Li1851 1.970 . S
O1910 C1880 1.325 . S
O1911 Li1849 1.961 . S
O1911 Li1850 1.970 . S
O1911 Li1851 1.956 . S
O1911 C1886 1.325 . S
H1912 C1854 0.929 . S
H1913 C1855 0.930 . S
H1914 C1856 0.930 . S
H1915 C1857 0.930 . S
H1916 C1859 0.930 . S
H1917 C1861 0.929 . S
H1918 C1862 0.930 . S
H1919 C1863 0.930 . S
H1920 C1866 0.930 . S
H1921 C1869 0.929 . S
H1922 C1874 0.929 . S
H1923 C1875 0.930 . S
H1924 C1882 0.929 . S
H1925 C1883 0.930 . S
H1926 C1884 0.930 . S
H1927 C1885 0.930 . S
H1928 C1887 0.929 . S
H1929 C1888 0.930 . S
H1930 C1889 0.930 . S
H1931 C1890 0.930 . S
H1932 C1894 0.929 . S
H1933 C1896 0.930 . S
H1934 C1902 0.929 . S
H1935 C1903 0.930 . S
Li1936 N1953 1.990 . S
Li1936 O1996 1.956 . S
Li1936 O1997 1.970 . S
Li1936 O1998 1.961 . S
Li1937 N1961 1.990 . S
Li1937 O1996 1.970 . S
Li1937 O1997 1.956 . S
Li1937 O1999 1.961 . S
Li1938 N1983 1.990 . S
Li1938 O1996 1.961 . S
Li1938 O1998 1.956 . S
Li1938 O1999 1.970 . S
Li1939 N1989 1.990 . S
Li1939 O1997 1.961 . S
Li1939 O1998 1.970 . S
Li1939 O1999 1.956 . S
C1940 C1942 1.348 . S
C1940 C1943 1.356 . S
C1940 O1996 1.325 . S
N1941 C1944 1.314 . S
N1941 C1945 1.279 . S
C1942 C1940 1.348 . S
C1942 C1944 1.353 . S
C1942 H2000 0.929 . S
C1943 C1940 1.356 . S
C1943 C1945 1.358 . S
C1943 H2001 0.930 . S
C1944 N1941 1.314 . S
C1944 C1942 1.353 . S
C1944 H2002 0.930 . S
C1945 N1941 1.279 . S
C1945 C1943 1.358 . S
C1945 H2003 0.930 . S
C1946 C1949 1.348 . S
C1946 C1950 1.356 . S
C1946 O1997 1.325 . S
C1947 N1948 1.279 . S
C1947 C1950 1.358 . S
C1947 H2004 0.930 . S
N1948 C1947 1.279 . S
N1948 C1951 1.314 . S
C1949 C1946 1.348 . S
C1949 C1951 1.353 . S
C1949 H2005 0.929 . S
C1950 C1946 1.356 . S
C1950 C1947 1.358 . S
C1950 H2006 0.930 . S
C1951 N1948 1.314 . S
C1951 C1949 1.353 . S
C1951 H2007 0.930 . S
C1952 N1953 1.314 . S
C1952 C1957 1.353 . S
C1952 H1958 0.930 . S
N1953 Li1936 1.990 . S
N1953 C1952 1.314 . S
N1953 C1955 1.279 . S
C1954 C1955 1.358 . S
C1954 C1956 1.356 . S
C1954 H2008 0.930 . S
C1955 N1953 1.279 . S
C1955 C1954 1.358 . S
C1955 H1959 0.930 . S
C1956 C1954 1.356 . S
C1956 C1957 1.348 . S
C1957 C1952 1.353 . S
C1957 C1956 1.348 . S
C1957 H2009 0.929 . S
H1958 C1952 0.930 . S
H1959 C1955 0.930 . S
C1960 N1961 1.314 . S
C1960 C1962 1.353 . S
C1960 H1966 0.930 . S
N1961 Li1937 1.990 . S
N1961 C1960 1.314 . S
N1961 C1964 1.279 . S
C1962 C1960 1.353 . S
C1962 C1965 1.348 . S
C1962 H2010 0.929 . S
C1963 C1964 1.358 . S
C1963 C1965 1.356 . S
C1963 H2011 0.930 . S
C1964 N1961 1.279 . S
C1964 C1963 1.358 . S
C1964 H1967 0.930 . S
C1965 C1962 1.348 . S
C1965 C1963 1.356 . S
H1966 C1960 0.930 . S
H1967 C1964 0.930 . S
C1968 C1970 1.348 . S
C1968 C1971 1.356 . S
C1968 O1998 1.325 . S
N1969 C1972 1.314 . S
N1969 C1973 1.279 . S
C1970 C1968 1.348 . S
C1970 C1972 1.353 . S
C1970 H2012 0.929 . S
C1971 C1968 1.356 . S
C1971 C1973 1.358 . S
C1971 H2013 0.930 . S
C1972 N1969 1.314 . S
C1972 C1970 1.353 . S
C1972 H2014 0.930 . S
C1973 N1969 1.279 . S
C1973 C1971 1.358 . S
C1973 H2015 0.930 . S
C1974 C1975 1.348 . S
C1974 C1976 1.356 . S
C1974 O1999 1.325 . S
C1975 C1974 1.348 . S
C1975 C1977 1.353 . S
C1975 H2016 0.929 . S
C1976 C1974 1.356 . S
C1976 C1978 1.358 . S
C1976 H2017 0.930 . S
C1977 C1975 1.353 . S
C1977 N1979 1.314 . S
C1977 H2018 0.930 . S
C1978 C1976 1.358 . S
C1978 N1979 1.279 . S
C1978 H2019 0.930 . S
N1979 C1977 1.314 . S
N1979 C1978 1.279 . S
C1980 C1982 1.353 . S
C1980 N1983 1.314 . S
C1980 H1986 0.930 . S
C1981 N1983 1.279 . S
C1981 C1984 1.358 . S
C1981 H1987 0.930 . S
C1982 C1980 1.353 . S
C1982 C1985 1.348 . S
C1982 H2020 0.929 . S
N1983 Li1938 1.990 . S
N1983 C1980 1.314 . S
N1983 C1981 1.279 . S
C1984 C1981 1.358 . S
C1984 C1985 1.356 . S
C1984 H2021 0.930 . S
C1985 C1982 1.348 . S
C1985 C1984 1.356 . S
H1986 C1980 0.930 . S
H1987 C1981 0.930 . S
C1988 N1989 1.314 . S
C1988 C1990 1.353 . S
C1988 H1994 0.930 . S
N1989 Li1939 1.990 . S
N1989 C1988 1.314 . S
N1989 C1992 1.279 . S
C1990 C1988 1.353 . S
C1990 C1993 1.348 . S
C1990 H2022 0.929 . S
C1991 C1992 1.358 . S
C1991 C1993 1.356 . S
C1991 H2023 0.930 . S
C1992 N1989 1.279 . S
C1992 C1991 1.358 . S
C1992 H1995 0.930 . S
C1993 C1990 1.348 . S
C1993 C1991 1.356 . S
H1994 C1988 0.930 . S
H1995 C1992 0.930 . S
O1996 Li1936 1.956 . S
O1996 Li1937 1.970 . S
O1996 Li1938 1.961 . S
O1996 C1940 1.325 . S
O1997 Li1936 1.970 . S
O1997 Li1937 1.956 . S
O1997 Li1939 1.961 . S
O1997 C1946 1.325 . S
O1998 Li1936 1.961 . S
O1998 Li1938 1.956 . S
O1998 Li1939 1.970 . S
O1998 C1968 1.325 . S
O1999 Li1937 1.961 . S
O1999 Li1938 1.970 . S
O1999 Li1939 1.956 . S
O1999 C1974 1.325 . S
H2000 C1942 0.929 . S
H2001 C1943 0.930 . S
H2002 C1944 0.930 . S
H2003 C1945 0.930 . S
H2004 C1947 0.930 . S
H2005 C1949 0.929 . S
H2006 C1950 0.930 . S
H2007 C1951 0.930 . S
H2008 C1954 0.930 . S
H2009 C1957 0.929 . S
H2010 C1962 0.929 . S
H2011 C1963 0.930 . S
H2012 C1970 0.929 . S
H2013 C1971 0.930 . S
H2014 C1972 0.930 . S
H2015 C1973 0.930 . S
H2016 C1975 0.929 . S
H2017 C1976 0.930 . S
H2018 C1977 0.930 . S
H2019 C1978 0.930 . S
H2020 C1982 0.929 . S
H2021 C1984 0.930 . S
H2022 C1990 0.929 . S
H2023 C1991 0.930 . S
Li2024 N2041 1.990 . S
Li2024 O2084 1.956 . S
Li2024 O2085 1.970 . S
Li2024 O2086 1.961 . S
Li2025 N2049 1.990 . S
Li2025 O2084 1.970 . S
Li2025 O2085 1.956 . S
Li2025 O2087 1.961 . S
Li2026 N2071 1.990 . S
Li2026 O2084 1.961 . S
Li2026 O2086 1.956 . S
Li2026 O2087 1.970 . S
Li2027 N2077 1.990 . S
Li2027 O2085 1.961 . S
Li2027 O2086 1.970 . S
Li2027 O2087 1.956 . S
C2028 C2030 1.348 . S
C2028 C2031 1.356 . S
C2028 O2084 1.325 . S
N2029 C2032 1.314 . S
N2029 C2033 1.279 . S
C2030 C2028 1.348 . S
C2030 C2032 1.353 . S
C2030 H2088 0.929 . S
C2031 C2028 1.356 . S
C2031 C2033 1.358 . S
C2031 H2089 0.930 . S
C2032 N2029 1.314 . S
C2032 C2030 1.353 . S
C2032 H2090 0.930 . S
C2033 N2029 1.279 . S
C2033 C2031 1.358 . S
C2033 H2091 0.930 . S
C2034 C2037 1.348 . S
C2034 C2038 1.356 . S
C2034 O2085 1.325 . S
C2035 N2036 1.279 . S
C2035 C2038 1.358 . S
C2035 H2092 0.930 . S
N2036 C2035 1.279 . S
N2036 C2039 1.314 . S
C2037 C2034 1.348 . S
C2037 C2039 1.353 . S
C2037 H2093 0.929 . S
C2038 C2034 1.356 . S
C2038 C2035 1.358 . S
C2038 H2094 0.930 . S
C2039 N2036 1.314 . S
C2039 C2037 1.353 . S
C2039 H2095 0.930 . S
C2040 N2041 1.314 . S
C2040 C2045 1.353 . S
C2040 H2046 0.930 . S
N2041 Li2024 1.990 . S
N2041 C2040 1.314 . S
N2041 C2043 1.279 . S
C2042 C2043 1.358 . S
C2042 C2044 1.356 . S
C2042 H2096 0.930 . S
C2043 N2041 1.279 . S
C2043 C2042 1.358 . S
C2043 H2047 0.930 . S
C2044 C2042 1.356 . S
C2044 C2045 1.348 . S
C2045 C2040 1.353 . S
C2045 C2044 1.348 . S
C2045 H2097 0.929 . S
H2046 C2040 0.930 . S
H2047 C2043 0.930 . S
C2048 N2049 1.314 . S
C2048 C2050 1.353 . S
C2048 H2054 0.930 . S
N2049 Li2025 1.990 . S
N2049 C2048 1.314 . S
N2049 C2052 1.279 . S
C2050 C2048 1.353 . S
C2050 C2053 1.348 . S
C2050 H2098 0.929 . S
C2051 C2052 1.358 . S
C2051 C2053 1.356 . S
C2051 H2099 0.930 . S
C2052 N2049 1.279 . S
C2052 C2051 1.358 . S
C2052 H2055 0.930 . S
C2053 C2050 1.348 . S
C2053 C2051 1.356 . S
H2054 C2048 0.930 . S
H2055 C2052 0.930 . S
C2056 C2058 1.348 . S
C2056 C2059 1.356 . S
C2056 O2086 1.325 . S
N2057 C2060 1.314 . S
N2057 C2061 1.279 . S
C2058 C2056 1.348 . S
C2058 C2060 1.353 . S
C2058 H2100 0.929 . S
C2059 C2056 1.356 . S
C2059 C2061 1.358 . S
C2059 H2101 0.930 . S
C2060 N2057 1.314 . S
C2060 C2058 1.353 . S
C2060 H2102 0.930 . S
C2061 N2057 1.279 . S
C2061 C2059 1.358 . S
C2061 H2103 0.930 . S
C2062 C2063 1.348 . S
C2062 C2064 1.356 . S
C2062 O2087 1.325 . S
C2063 C2062 1.348 . S
C2063 C2065 1.353 . S
C2063 H2104 0.929 . S
C2064 C2062 1.356 . S
C2064 C2066 1.358 . S
C2064 H2105 0.930 . S
C2065 C2063 1.353 . S
C2065 N2067 1.314 . S
C2065 H2106 0.930 . S
C2066 C2064 1.358 . S
C2066 N2067 1.279 . S
C2066 H2107 0.930 . S
N2067 C2065 1.314 . S
N2067 C2066 1.279 . S
C2068 C2070 1.353 . S
C2068 N2071 1.314 . S
C2068 H2074 0.930 . S
C2069 N2071 1.279 . S
C2069 C2072 1.358 . S
C2069 H2075 0.930 . S
C2070 C2068 1.353 . S
C2070 C2073 1.348 . S
C2070 H2108 0.929 . S
N2071 Li2026 1.990 . S
N2071 C2068 1.314 . S
N2071 C2069 1.279 . S
C2072 C2069 1.358 . S
C2072 C2073 1.356 . S
C2072 H2109 0.930 . S
C2073 C2070 1.348 . S
C2073 C2072 1.356 . S
H2074 C2068 0.930 . S
H2075 C2069 0.930 . S
C2076 N2077 1.314 . S
C2076 C2078 1.353 . S
C2076 H2082 0.930 . S
N2077 Li2027 1.990 . S
N2077 C2076 1.314 . S
N2077 C2080 1.279 . S
C2078 C2076 1.353 . S
C2078 C2081 1.348 . S
C2078 H2110 0.929 . S
C2079 C2080 1.358 . S
C2079 C2081 1.356 . S
C2079 H2111 0.930 . S
C2080 N2077 1.279 . S
C2080 C2079 1.358 . S
C2080 H2083 0.930 . S
C2081 C2078 1.348 . S
C2081 C2079 1.356 . S
H2082 C2076 0.930 . S
H2083 C2080 0.930 . S
O2084 Li2024 1.956 . S
O2084 Li2025 1.970 . S
O2084 Li2026 1.961 . S
O2084 C2028 1.325 . S
O2085 Li2024 1.970 . S
O2085 Li2025 1.956 . S
O2085 Li2027 1.961 . S
O2085 C2034 1.325 . S
O2086 Li2024 1.961 . S
O2086 Li2026 1.956 . S
O2086 Li2027 1.970 . S
O2086 C2056 1.325 . S
O2087 Li2025 1.961 . S
O2087 Li2026 1.970 . S
O2087 Li2027 1.956 . S
O2087 C2062 1.325 . S
H2088 C2030 0.929 . S
H2089 C2031 0.930 . S
H2090 C2032 0.930 . S
H2091 C2033 0.930 . S
H2092 C2035 0.930 . S
H2093 C2037 0.929 . S
H2094 C2038 0.930 . S
H2095 C2039 0.930 . S
H2096 C2042 0.930 . S
H2097 C2045 0.929 . S
H2098 C2050 0.929 . S
H2099 C2051 0.930 . S
H2100 C2058 0.929 . S
H2101 C2059 0.930 . S
H2102 C2060 0.930 . S
H2103 C2061 0.930 . S
H2104 C2063 0.929 . S
H2105 C2064 0.930 . S
H2106 C2065 0.930 . S
H2107 C2066 0.930 . S
H2108 C2070 0.929 . S
H2109 C2072 0.930 . S
H2110 C2078 0.929 . S
H2111 C2079 0.930 . S
Tb2112 N2141 2.617 . S
Tb2112 N2147 2.572 . S
Tb2112 O2156 2.465 . S
Tb2112 O2157 2.387 . S
Tb2112 O2159 2.428 . S
Tb2112 O2160 2.308 . S
Tb2112 O2164 2.343 1_545 S
Tb2112 O2167 2.393 . S
Tb2112 C2176 2.802 . S
C2113 N2114 1.379 . S
C2113 C2116 1.416 . S
C2113 C2120 1.424 1_556 S
N2114 C2113 1.379 . S
N2114 C2117 1.334 . S
N2114 Tb2123 2.617 1_566 S
C2115 C2117 1.390 . S
C2115 C2118 1.339 . S
C2115 H2135 0.930 . S
C2116 C2113 1.416 . S
C2116 C2118 1.416 . S
C2116 C2122 1.448 . S
C2117 N2114 1.334 . S
C2117 C2115 1.390 . S
C2117 H2128 0.930 . S
C2118 C2115 1.339 . S
C2118 C2116 1.416 . S
C2118 H2139 0.930 . S
C2119 C2120 1.413 . S
C2119 C2121 1.427 1_554 S
C2119 C2125 1.416 . S
C2120 C2113 1.424 1_554 S
C2120 C2119 1.413 . S
C2120 N2124 1.361 . S
C2121 C2119 1.427 1_556 S
C2121 C2122 1.328 . S
C2121 H2136 0.941 . S
C2122 C2116 1.448 . S
C2122 C2121 1.328 . S
C2122 H2137 0.930 . S
Tb2123 N2114 2.617 1_544 S
Tb2123 N2124 2.572 1_545 S
Tb2123 O2158 2.349 1_655 S
Tb2123 O2161 2.393 1_654 S
Tb2123 O2162 2.465 . S
Tb2123 O2163 2.387 1_645 S
Tb2123 O2165 2.428 1_554 S
Tb2123 O2166 2.308 1_655 S
Tb2123 C2187 2.802 . S
N2124 C2120 1.361 . S
N2124 Tb2123 2.572 1_565 S
N2124 C2126 1.340 . S
C2125 C2119 1.416 . S
C2125 C2127 1.332 . S
C2125 H2133 0.931 . S
C2126 N2124 1.340 . S
C2126 C2127 1.407 . S
C2126 H2132 0.930 . S
C2127 C2125 1.332 . S
C2127 C2126 1.407 . S
C2127 H2129 0.929 . S
H2128 C2117 0.930 . S
H2129 C2127 0.929 . S
H2130 C2145 0.930 . S
H2131 C2152 0.929 1_556 S
H2132 C2126 0.930 . S
H2133 C2125 0.931 . S
H2134 C2148 0.931 . S
H2135 C2115 0.930 . S
H2136 C2121 0.941 . S
H2137 C2122 0.930 . S
H2138 C2143 0.930 . S
H2139 C2118 0.930 . S
H2140 C2151 0.931 . S
N2141 Tb2112 2.617 . S
N2141 C2142 1.379 . S
N2141 C2145 1.334 . S
C2142 N2141 1.379 . S
C2142 C2144 1.416 . S
C2142 C2150 1.424 . S
C2143 H2138 0.930 . S
C2143 C2145 1.390 . S
C2143 C2146 1.339 . S
C2144 C2142 1.416 . S
C2144 C2146 1.416 . S
C2144 C2177 1.448 . S
C2145 H2130 0.930 . S
C2145 N2141 1.334 . S
C2145 C2143 1.390 . S
C2146 C2143 1.339 . S
C2146 C2144 1.416 . S
C2146 H2153 0.930 . S
N2147 Tb2112 2.572 . S
N2147 C2148 1.340 . S
N2147 C2150 1.361 . S
C2148 H2134 0.931 . S
C2148 N2147 1.340 . S
C2148 C2152 1.407 . S
C2149 C2150 1.413 . S
C2149 C2151 1.416 . S
C2149 C2178 1.427 . S
C2150 C2142 1.424 . S
C2150 N2147 1.361 . S
C2150 C2149 1.413 . S
C2151 H2140 0.931 . S
C2151 C2149 1.416 . S
C2151 C2152 1.332 . S
C2152 H2131 0.929 1_554 S
C2152 C2148 1.407 . S
C2152 C2151 1.332 . S
H2153 C2146 0.930 . S
H2154 C2177 0.930 . S
H2155 C2178 0.929 . S
O2156 Tb2112 2.465 . S
O2156 C2176 1.264 . S
O2157 Tb2112 2.387 . S
O2157 C2168 1.264 . S
O2158 Tb2123 2.349 1_455 S
O2158 C2168 1.243 . S
O2159 Tb2112 2.428 . S
O2159 C2176 1.256 . S
O2160 Tb2112 2.308 . S
O2160 C2175 1.266 1_554 S
O2161 Tb2123 2.393 1_456 S
O2161 C2175 1.248 . S
O2162 Tb2123 2.465 . S
O2162 C2187 1.264 . S
O2163 Tb2123 2.387 1_465 S
O2163 C2179 1.264 . S
O2164 Tb2112 2.343 1_565 S
O2164 C2179 1.247 . S
O2165 Tb2123 2.428 1_556 S
O2165 C2187 1.256 1_556 S
O2166 Tb2123 2.308 1_455 S
O2166 C2186 1.266 . S
O2167 Tb2112 2.393 . S
O2167 C2186 1.248 . S
C2168 O2157 1.264 . S
C2168 O2158 1.243 . S
C2169 C2172 1.399 . S
C2169 C2174 1.383 . S
C2169 C2176 1.496 . S
C2170 C2171 1.392 . S
C2170 C2174 1.389 1_565 S
C2171 C2170 1.392 . S
C2171 C2173 1.365 1_565 S
C2171 H2188 0.953 . S
C2172 C2169 1.399 . S
C2172 C2173 1.392 . S
C2172 H2189 0.929 . S
C2173 C2171 1.365 1_545 S
C2173 C2172 1.392 . S
C2173 H2190 0.929 . S
C2174 C2169 1.383 . S
C2174 C2170 1.389 1_545 S
C2174 H2191 0.931 . S
C2175 O2160 1.266 1_556 S
C2175 O2161 1.248 . S
C2176 Tb2112 2.802 . S
C2176 O2156 1.264 . S
C2176 O2159 1.256 . S
C2176 C2169 1.496 . S
C2177 C2144 1.448 . S
C2177 H2154 0.930 . S
C2177 C2178 1.328 . S
C2178 C2149 1.427 . S
C2178 H2155 0.929 . S
C2178 C2177 1.328 . S
C2179 O2163 1.264 . S
C2179 O2164 1.247 . S
C2180 C2183 1.399 . S
C2180 C2184 1.383 1_556 S
C2180 C2187 1.496 1_556 S
C2181 C2182 1.399 1_554 S
C2181 C2184 1.389 . S
C2182 C2181 1.399 1_556 S
C2182 C2185 1.380 . S
C2182 H2192 0.929 . S
C2183 C2180 1.399 . S
C2183 C2185 1.392 . S
C2183 H2193 0.929 . S
C2184 C2180 1.383 1_554 S
C2184 C2181 1.389 . S
C2184 H2194 0.931 . S
C2185 C2182 1.380 . S
C2185 C2183 1.392 . S
C2185 H2195 0.929 . S
C2186 O2166 1.266 . S
C2186 O2167 1.248 . S
C2187 Tb2123 2.802 . S
C2187 O2162 1.264 . S
C2187 O2165 1.256 1_554 S
C2187 C2180 1.496 1_554 S
H2188 C2171 0.953 . S
H2189 C2172 0.929 . S
H2190 C2173 0.929 . S
H2191 C2174 0.931 . S
H2192 C2182 0.929 . S
H2193 C2183 0.929 . S
H2194 C2184 0.931 . S
H2195 C2185 0.929 . S
Tb2196 N2225 2.617 . S
Tb2196 N2231 2.572 . S
Tb2196 O2240 2.465 . S
Tb2196 O2241 2.387 . S
Tb2196 O2243 2.428 . S
Tb2196 O2244 2.308 . S
Tb2196 O2248 2.349 . S
Tb2196 O2251 2.393 . S
Tb2196 C2260 2.802 . S
C2197 N2198 1.379 . S
C2197 C2200 1.416 . S
C2197 C2204 1.424 . S
N2198 C2197 1.379 . S
N2198 C2201 1.334 . S
N2198 Tb2207 2.617 . S
C2199 C2201 1.390 . S
C2199 C2202 1.339 . S
C2199 H2219 0.930 . S
C2200 C2197 1.416 . S
C2200 C2202 1.416 . S
C2200 C2206 1.448 . S
C2201 N2198 1.334 . S
C2201 C2199 1.390 . S
C2201 H2212 0.930 . S
C2202 C2199 1.339 . S
C2202 C2200 1.416 . S
C2202 H2223 0.930 . S
C2203 C2204 1.413 . S
C2203 C2205 1.427 . S
C2203 C2209 1.416 . S
C2204 C2197 1.424 . S
C2204 C2203 1.413 . S
C2204 N2208 1.361 . S
C2205 C2203 1.427 . S
C2205 C2206 1.328 . S
C2205 H2220 0.929 . S
C2206 C2200 1.448 . S
C2206 C2205 1.328 . S
C2206 H2221 0.930 . S
Tb2207 N2198 2.617 . S
Tb2207 N2208 2.572 . S
Tb2207 O2242 2.349 . S
Tb2207 O2245 2.393 . S
Tb2207 O2246 2.465 . S
Tb2207 O2247 2.387 . S
Tb2207 O2249 2.428 . S
Tb2207 O2250 2.308 . S
Tb2207 C2271 2.802 . S
N2208 C2204 1.361 . S
N2208 Tb2207 2.572 . S
N2208 C2210 1.340 . S
C2209 C2203 1.416 . S
C2209 C2211 1.332 . S
C2209 H2217 0.931 . S
C2210 N2208 1.340 . S
C2210 C2211 1.407 . S
C2210 H2216 0.930 . S
C2211 C2209 1.332 . S
C2211 C2210 1.407 . S
C2211 H2213 0.929 . S
H2212 C2201 0.930 . S
H2213 C2211 0.929 . S
H2214 C2229 0.930 . S
H2215 C2236 0.929 . S
H2216 C2210 0.930 . S
H2217 C2209 0.931 . S
H2218 C2232 0.930 . S
H2219 C2199 0.930 . S
H2220 C2205 0.929 . S
H2221 C2206 0.930 . S
H2222 C2227 0.930 . S
H2223 C2202 0.930 . S
H2224 C2235 0.931 . S
N2225 Tb2196 2.617 . S
N2225 C2226 1.379 . S
N2225 C2229 1.334 . S
C2226 N2225 1.379 . S
C2226 C2228 1.416 . S
C2226 C2234 1.424 . S
C2227 H2222 0.930 . S
C2227 C2229 1.390 . S
C2227 C2230 1.339 . S
C2228 C2226 1.416 . S
C2228 C2230 1.416 . S
C2228 C2261 1.448 . S
C2229 H2214 0.930 . S
C2229 N2225 1.334 . S
C2229 C2227 1.390 . S
C2230 C2227 1.339 . S
C2230 C2228 1.416 . S
C2230 H2237 0.930 . S
N2231 Tb2196 2.572 . S
N2231 C2232 1.340 . S
N2231 C2234 1.361 . S
C2232 H2218 0.930 . S
C2232 N2231 1.340 . S
C2232 C2236 1.407 . S
C2233 C2234 1.413 . S
C2233 C2235 1.416 . S
C2233 C2262 1.427 . S
C2234 C2226 1.424 . S
C2234 N2231 1.361 . S
C2234 C2233 1.413 . S
C2235 H2224 0.931 . S
C2235 C2233 1.416 . S
C2235 C2236 1.332 . S
C2236 H2215 0.929 . S
C2236 C2232 1.407 . S
C2236 C2235 1.332 . S
H2237 C2230 0.930 . S
H2238 C2261 0.930 . S
H2239 C2262 0.929 . S
O2240 Tb2196 2.465 . S
O2240 C2260 1.264 . S
O2241 Tb2196 2.387 . S
O2241 C2252 1.264 . S
O2242 Tb2207 2.349 . S
O2242 C2252 1.243 . S
O2243 Tb2196 2.428 . S
O2243 C2260 1.256 . S
O2244 Tb2196 2.308 . S
O2244 C2259 1.266 . S
O2245 Tb2207 2.393 . S
O2245 C2259 1.248 . S
O2246 Tb2207 2.465 . S
O2246 C2271 1.264 . S
O2247 Tb2207 2.387 . S
O2247 C2263 1.264 . S
O2248 Tb2196 2.349 . S
O2248 C2263 1.243 . S
O2249 Tb2207 2.428 . S
O2249 C2271 1.256 . S
O2250 Tb2207 2.308 . S
O2250 C2270 1.266 . S
O2251 Tb2196 2.393 . S
O2251 C2270 1.248 . S
C2252 O2241 1.264 . S
C2252 O2242 1.243 . S
C2253 C2256 1.399 . S
C2253 C2258 1.383 . S
C2253 C2260 1.496 . S
C2254 C2255 1.399 . S
C2254 C2258 1.389 . S
C2255 C2254 1.399 . S
C2255 C2257 1.380 . S
C2255 H2272 0.929 . S
C2256 C2253 1.399 . S
C2256 C2257 1.392 . S
C2256 H2273 0.929 . S
C2257 C2255 1.380 . S
C2257 C2256 1.392 . S
C2257 H2274 0.929 . S
C2258 C2253 1.383 . S
C2258 C2254 1.389 . S
C2258 H2275 0.931 . S
C2259 O2244 1.266 . S
C2259 O2245 1.248 . S
C2260 Tb2196 2.802 . S
C2260 O2240 1.264 . S
C2260 O2243 1.256 . S
C2260 C2253 1.496 . S
C2261 C2228 1.448 . S
C2261 H2238 0.930 . S
C2261 C2262 1.328 . S
C2262 C2233 1.427 . S
C2262 H2239 0.929 . S
C2262 C2261 1.328 . S
C2263 O2247 1.264 . S
C2263 O2248 1.243 . S
C2264 C2267 1.399 . S
C2264 C2268 1.383 . S
C2264 C2271 1.496 . S
C2265 C2266 1.399 . S
C2265 C2268 1.389 . S
C2266 C2265 1.399 . S
C2266 C2269 1.380 . S
C2266 H2276 0.929 . S
C2267 C2264 1.399 . S
C2267 C2269 1.392 . S
C2267 H2277 0.929 . S
C2268 C2264 1.383 . S
C2268 C2265 1.389 . S
C2268 H2278 0.931 . S
C2269 C2266 1.380 . S
C2269 C2267 1.392 . S
C2269 H2279 0.929 . S
C2270 O2250 1.266 . S
C2270 O2251 1.248 . S
C2271 Tb2207 2.802 . S
C2271 O2246 1.264 . S
C2271 O2249 1.256 . S
C2271 C2264 1.496 . S
H2272 C2255 0.929 . S
H2273 C2256 0.929 . S
H2274 C2257 0.929 . S
H2275 C2258 0.931 . S
H2276 C2266 0.929 . S
H2277 C2267 0.929 . S
H2278 C2268 0.931 . S
H2279 C2269 0.929 . S
Tb2280 N2309 2.617 1_545 S
Tb2280 N2315 2.572 1_545 S
Tb2280 O2324 2.465 . S
Tb2280 O2325 2.387 1_545 S
Tb2280 O2327 2.428 . S
Tb2280 O2328 2.308 . S
Tb2280 O2332 2.349 . S
Tb2280 O2335 2.393 . S
Tb2280 C2344 2.802 . S
C2281 N2282 1.379 . S
C2281 C2284 1.416 . S
C2281 C2288 1.424 . S
N2282 C2281 1.379 . S
N2282 C2285 1.334 . S
N2282 Tb2291 2.617 . S
C2283 C2285 1.390 . S
C2283 C2286 1.339 . S
C2283 H2303 0.930 . S
C2284 C2281 1.416 . S
C2284 C2286 1.416 . S
C2284 C2290 1.448 . S
C2285 N2282 1.334 . S
C2285 C2283 1.390 . S
C2285 H2296 0.930 . S
C2286 C2283 1.339 . S
C2286 C2284 1.416 . S
C2286 H2307 0.930 . S
C2287 C2288 1.413 . S
C2287 C2289 1.427 . S
C2287 C2293 1.416 . S
C2288 C2281 1.424 . S
C2288 C2287 1.413 . S
C2288 N2292 1.361 . S
C2289 C2287 1.427 . S
C2289 C2290 1.328 . S
C2289 H2304 0.929 . S
C2290 C2284 1.448 . S
C2290 C2289 1.328 . S
C2290 H2305 0.930 . S
Tb2291 N2282 2.617 . S
Tb2291 N2292 2.572 . S
Tb2291 O2326 2.349 1_545 S
Tb2291 O2329 2.393 . S
Tb2291 O2330 2.465 . S
Tb2291 O2331 2.387 . S
Tb2291 O2333 2.428 . S
Tb2291 O2334 2.308 . S
Tb2291 C2355 2.802 . S
N2292 C2288 1.361 . S
N2292 Tb2291 2.572 . S
N2292 C2294 1.340 . S
C2293 C2287 1.416 . S
C2293 C2295 1.332 . S
C2293 H2301 0.931 . S
C2294 N2292 1.340 . S
C2294 C2295 1.407 . S
C2294 H2300 0.930 . S
C2295 C2293 1.332 . S
C2295 C2294 1.407 . S
C2295 H2297 0.929 . S
H2296 C2285 0.930 . S
H2297 C2295 0.929 . S
H2298 C2313 0.964 . S
H2299 C2320 0.929 . S
H2300 C2294 0.930 . S
H2301 C2293 0.931 . S
H2302 C2316 0.930 . S
H2303 C2283 0.930 . S
H2304 C2289 0.929 . S
H2305 C2290 0.930 . S
H2306 C2311 0.930 . S
H2307 C2286 0.930 . S
H2308 C2319 0.931 . S
N2309 Tb2280 2.617 1_565 S
N2309 C2310 1.379 . S
N2309 C2313 1.337 1_565 S
C2310 N2309 1.379 . S
C2310 C2312 1.416 . S
C2310 C2318 1.424 . S
C2311 H2306 0.930 . S
C2311 C2313 1.356 1_565 S
C2311 C2314 1.339 . S
C2312 C2310 1.416 . S
C2312 C2314 1.416 . S
C2312 C2345 1.448 . S
C2313 H2298 0.964 . S
C2313 N2309 1.337 1_545 S
C2313 C2311 1.356 1_545 S
C2314 C2311 1.339 . S
C2314 C2312 1.416 . S
C2314 H2321 0.930 . S
N2315 Tb2280 2.572 1_565 S
N2315 C2316 1.340 . S
N2315 C2318 1.361 . S
C2316 H2302 0.930 . S
C2316 N2315 1.340 . S
C2316 C2320 1.407 . S
C2317 C2318 1.413 . S
C2317 C2319 1.416 . S
C2317 C2346 1.427 . S
C2318 C2310 1.424 . S
C2318 N2315 1.361 . S
C2318 C2317 1.413 . S
C2319 H2308 0.931 . S
C2319 C2317 1.416 . S
C2319 C2320 1.332 . S
C2320 H2299 0.929 . S
C2320 C2316 1.407 . S
C2320 C2319 1.332 . S
H2321 C2314 0.930 . S
H2322 C2345 0.930 . S
H2323 C2346 0.929 . S
O2324 Tb2280 2.465 . S
O2324 C2344 1.264 . S
O2325 Tb2280 2.387 1_565 S
O2325 C2336 1.264 . S
O2326 Tb2291 2.349 1_565 S
O2326 C2336 1.243 . S
O2327 Tb2280 2.428 . S
O2327 C2344 1.256 . S
O2328 Tb2280 2.308 . S
O2328 C2343 1.266 . S
O2329 Tb2291 2.393 . S
O2329 C2343 1.248 . S
O2330 Tb2291 2.465 . S
O2330 C2355 1.264 . S
O2331 Tb2291 2.387 . S
O2331 C2347 1.264 . S
O2332 Tb2280 2.349 . S
O2332 C2347 1.243 . S
O2333 Tb2291 2.428 . S
O2333 C2355 1.256 . S
O2334 Tb2291 2.308 . S
O2334 C2354 1.266 . S
O2335 Tb2280 2.393 . S
O2335 C2354 1.248 . S
C2336 O2325 1.264 . S
C2336 O2326 1.243 . S
C2337 C2340 1.399 . S
C2337 C2342 1.383 . S
C2337 C2344 1.496 . S
C2338 C2339 1.399 . S
C2338 C2342 1.389 . S
C2339 C2338 1.399 . S
C2339 C2341 1.380 . S
C2339 H2356 0.929 . S
C2340 C2337 1.399 . S
C2340 C2341 1.392 . S
C2340 H2357 0.929 . S
C2341 C2339 1.380 . S
C2341 C2340 1.392 . S
C2341 H2358 0.929 . S
C2342 C2337 1.383 . S
C2342 C2338 1.389 . S
C2342 H2359 0.931 . S
C2343 O2328 1.266 . S
C2343 O2329 1.248 . S
C2344 Tb2280 2.802 . S
C2344 O2324 1.264 . S
C2344 O2327 1.256 . S
C2344 C2337 1.496 . S
C2345 C2312 1.448 . S
C2345 H2322 0.930 . S
C2345 C2346 1.328 . S
C2346 C2317 1.427 . S
C2346 H2323 0.929 . S
C2346 C2345 1.328 . S
C2347 O2331 1.264 . S
C2347 O2332 1.243 . S
C2348 C2351 1.399 . S
C2348 C2352 1.383 . S
C2348 C2355 1.496 1_565 S
C2349 C2350 1.399 . S
C2349 C2352 1.389 . S
C2350 C2349 1.399 . S
C2350 C2353 1.380 . S
C2350 H2360 0.929 . S
C2351 C2348 1.399 . S
C2351 C2353 1.392 . S
C2351 H2361 0.929 . S
C2352 C2348 1.383 . S
C2352 C2349 1.389 . S
C2352 H2362 0.931 . S
C2353 C2350 1.380 . S
C2353 C2351 1.392 . S
C2353 H2363 0.929 . S
C2354 O2334 1.266 . S
C2354 O2335 1.248 . S
C2355 Tb2291 2.802 . S
C2355 O2330 1.264 . S
C2355 O2333 1.256 . S
C2355 C2348 1.496 1_545 S
H2356 C2339 0.929 . S
H2357 C2340 0.929 . S
H2358 C2341 0.929 . S
H2359 C2342 0.931 . S
H2360 C2350 0.929 . S
H2361 C2351 0.929 . S
H2362 C2352 0.931 . S
H2363 C2353 0.929 . S
Tb2364 N2393 2.617 . S
Tb2364 N2399 2.572 . S
Tb2364 O2408 2.465 . S
Tb2364 O2409 2.387 . S
Tb2364 O2411 2.428 . S
Tb2364 O2412 2.308 . S
Tb2364 O2416 2.349 . S
Tb2364 O2419 2.393 . S
Tb2364 C2428 2.802 . S
C2365 N2366 1.379 . S
C2365 C2368 1.416 . S
C2365 C2372 1.424 . S
N2366 C2365 1.379 . S
N2366 C2369 1.334 . S
N2366 Tb2375 2.617 . S
C2367 C2369 1.390 . S
C2367 C2370 1.339 . S
C2367 H2387 0.930 . S
C2368 C2365 1.416 . S
C2368 C2370 1.416 . S
C2368 C2374 1.448 . S
C2369 N2366 1.334 . S
C2369 C2367 1.390 . S
C2369 H2380 0.930 . S
C2370 C2367 1.339 . S
C2370 C2368 1.416 . S
C2370 H2391 0.930 . S
C2371 C2372 1.413 . S
C2371 C2373 1.427 . S
C2371 C2377 1.416 . S
C2372 C2365 1.424 . S
C2372 C2371 1.413 . S
C2372 N2376 1.361 . S
C2373 C2371 1.427 . S
C2373 C2374 1.328 . S
C2373 H2388 0.929 . S
C2374 C2368 1.448 . S
C2374 C2373 1.328 . S
C2374 H2389 0.930 . S
Tb2375 N2366 2.617 . S
Tb2375 N2376 2.572 . S
Tb2375 O2410 2.349 . S
Tb2375 O2413 2.393 . S
Tb2375 O2414 2.465 . S
Tb2375 O2415 2.387 . S
Tb2375 O2417 2.428 . S
Tb2375 O2418 2.308 . S
Tb2375 C2439 2.802 . S
N2376 C2372 1.361 . S
N2376 Tb2375 2.572 . S
N2376 C2378 1.340 . S
C2377 C2371 1.416 . S
C2377 C2379 1.332 . S
C2377 H2385 0.931 . S
C2378 N2376 1.340 . S
C2378 C2379 1.407 . S
C2378 H2384 0.930 . S
C2379 C2377 1.332 . S
C2379 C2378 1.407 . S
C2379 H2381 0.929 . S
H2380 C2369 0.930 . S
H2381 C2379 0.929 . S
H2382 C2397 0.930 . S
H2383 C2404 0.929 . S
H2384 C2378 0.930 . S
H2385 C2377 0.931 . S
H2386 C2400 0.930 . S
H2387 C2367 0.930 . S
H2388 C2373 0.929 . S
H2389 C2374 0.930 . S
H2390 C2395 0.930 . S
H2391 C2370 0.930 . S
H2392 C2403 0.931 . S
N2393 Tb2364 2.617 . S
N2393 C2394 1.379 . S
N2393 C2397 1.334 . S
C2394 N2393 1.379 . S
C2394 C2396 1.416 . S
C2394 C2402 1.424 . S
C2395 H2390 0.930 . S
C2395 C2397 1.390 . S
C2395 C2398 1.339 . S
C2396 C2394 1.416 . S
C2396 C2398 1.416 . S
C2396 C2429 1.448 . S
C2397 H2382 0.930 . S
C2397 N2393 1.334 . S
C2397 C2395 1.390 . S
C2398 C2395 1.339 . S
C2398 C2396 1.416 . S
C2398 H2405 0.930 . S
N2399 Tb2364 2.572 . S
N2399 C2400 1.340 . S
N2399 C2402 1.361 . S
C2400 H2386 0.930 . S
C2400 N2399 1.340 . S
C2400 C2404 1.407 . S
C2401 C2402 1.413 . S
C2401 C2403 1.416 . S
C2401 C2430 1.427 . S
C2402 C2394 1.424 . S
C2402 N2399 1.361 . S
C2402 C2401 1.413 . S
C2403 H2392 0.931 . S
C2403 C2401 1.416 . S
C2403 C2404 1.332 . S
C2404 H2383 0.929 . S
C2404 C2400 1.407 . S
C2404 C2403 1.332 . S
H2405 C2398 0.930 . S
H2406 C2429 0.930 . S
H2407 C2430 0.929 . S
O2408 Tb2364 2.465 . S
O2408 C2428 1.264 . S
O2409 Tb2364 2.387 . S
O2409 C2420 1.264 . S
O2410 Tb2375 2.349 . S
O2410 C2420 1.243 . S
O2411 Tb2364 2.428 . S
O2411 C2428 1.256 . S
O2412 Tb2364 2.308 . S
O2412 C2427 1.266 . S
O2413 Tb2375 2.393 . S
O2413 C2427 1.248 . S
O2414 Tb2375 2.465 . S
O2414 C2439 1.264 . S
O2415 Tb2375 2.387 . S
O2415 C2431 1.264 . S
O2416 Tb2364 2.349 . S
O2416 C2431 1.243 . S
O2417 Tb2375 2.428 . S
O2417 C2439 1.256 . S
O2418 Tb2375 2.308 . S
O2418 C2438 1.266 . S
O2419 Tb2364 2.393 . S
O2419 C2438 1.248 . S
C2420 O2409 1.264 . S
C2420 O2410 1.243 . S
C2421 C2424 1.399 . S
C2421 C2426 1.383 . S
C2421 C2428 1.496 . S
C2422 C2423 1.399 . S
C2422 C2426 1.389 . S
C2423 C2422 1.399 . S
C2423 C2425 1.380 . S
C2423 H2440 0.929 . S
C2424 C2421 1.399 . S
C2424 C2425 1.392 . S
C2424 H2441 0.929 . S
C2425 C2423 1.380 . S
C2425 C2424 1.392 . S
C2425 H2442 0.929 . S
C2426 C2421 1.383 . S
C2426 C2422 1.389 . S
C2426 H2443 0.931 . S
C2427 O2412 1.266 . S
C2427 O2413 1.248 . S
C2428 Tb2364 2.802 . S
C2428 O2408 1.264 . S
C2428 O2411 1.256 . S
C2428 C2421 1.496 . S
C2429 C2396 1.448 . S
C2429 H2406 0.930 . S
C2429 C2430 1.328 . S
C2430 C2401 1.427 . S
C2430 H2407 0.929 . S
C2430 C2429 1.328 . S
C2431 O2415 1.264 . S
C2431 O2416 1.243 . S
C2432 C2435 1.399 . S
C2432 C2436 1.383 . S
C2432 C2439 1.496 . S
C2433 C2434 1.399 . S
C2433 C2436 1.389 . S
C2434 C2433 1.399 . S
C2434 C2437 1.380 . S
C2434 H2444 0.929 . S
C2435 C2432 1.399 . S
C2435 C2437 1.392 . S
C2435 H2445 0.929 . S
C2436 C2432 1.383 . S
C2436 C2433 1.389 . S
C2436 H2446 0.931 . S
C2437 C2434 1.380 . S
C2437 C2435 1.392 . S
C2437 H2447 0.929 . S
C2438 O2418 1.266 . S
C2438 O2419 1.248 . S
C2439 Tb2375 2.802 . S
C2439 O2414 1.264 . S
C2439 O2417 1.256 . S
C2439 C2432 1.496 . S
H2440 C2423 0.929 . S
H2441 C2424 0.929 . S
H2442 C2425 0.929 . S
H2443 C2426 0.931 . S
H2444 C2434 0.929 . S
H2445 C2435 0.929 . S
H2446 C2436 0.931 . S
H2447 C2437 0.929 . S
Tb2448 N2477 2.617 . S
Tb2448 N2483 2.572 . S
Tb2448 O2492 2.465 . S
Tb2448 O2493 2.387 1_565 S
Tb2448 O2495 2.428 . S
Tb2448 O2496 2.308 1_565 S
Tb2448 O2500 2.349 1_565 S
Tb2448 O2503 2.393 1_565 S
Tb2448 C2512 2.802 . S
C2449 N2450 1.379 1_455 S
C2449 C2452 1.416 1_455 S
C2449 C2456 1.424 . S
N2450 C2449 1.379 1_655 S
N2450 C2453 1.334 . S
N2450 Tb2459 2.617 1_655 S
C2451 C2453 1.390 . S
C2451 C2454 1.339 . S
C2451 H2471 0.930 . S
C2452 C2449 1.416 1_655 S
C2452 C2454 1.416 . S
C2452 C2458 1.448 1_655 S
C2453 N2450 1.334 . S
C2453 C2451 1.390 . S
C2453 H2464 0.930 . S
C2454 C2451 1.339 . S
C2454 C2452 1.416 . S
C2454 H2475 0.930 . S
C2455 C2456 1.413 . S
C2455 C2457 1.427 . S
C2455 C2461 1.416 . S
C2456 C2449 1.424 . S
C2456 C2455 1.413 . S
C2456 N2460 1.361 . S
C2457 C2455 1.427 . S
C2457 C2458 1.328 . S
C2457 H2472 0.929 . S
C2458 C2452 1.448 1_455 S
C2458 C2457 1.328 . S
C2458 H2473 0.930 1_455 S
Tb2459 N2450 2.617 1_455 S
Tb2459 N2460 2.572 . S
Tb2459 O2494 2.349 . S
Tb2459 O2497 2.393 1_455 S
Tb2459 O2498 2.465 . S
Tb2459 O2499 2.387 . S
Tb2459 O2501 2.428 1_455 S
Tb2459 O2502 2.308 . S
Tb2459 C2523 2.802 . S
N2460 C2456 1.361 . S
N2460 Tb2459 2.572 . S
N2460 C2462 1.340 . S
C2461 C2455 1.416 . S
C2461 C2463 1.332 . S
C2461 H2469 0.931 . S
C2462 N2460 1.340 . S
C2462 C2463 1.407 . S
C2462 H2468 0.930 . S
C2463 C2461 1.332 . S
C2463 C2462 1.407 . S
C2463 H2465 0.929 . S
H2464 C2453 0.930 . S
H2465 C2463 0.929 . S
H2466 C2481 0.930 1_545 S
H2467 C2488 0.929 . S
H2468 C2462 0.930 . S
H2469 C2461 0.931 . S
H2470 C2484 0.925 1_655 S
H2471 C2451 0.930 . S
H2472 C2457 0.929 . S
H2473 C2458 0.930 1_655 S
H2474 C2479 0.930 . S
H2475 C2454 0.930 . S
H2476 C2487 0.931 . S
N2477 Tb2448 2.617 . S
N2477 C2478 1.379 . S
N2477 C2481 1.334 . S
C2478 N2477 1.379 . S
C2478 C2480 1.416 . S
C2478 C2486 1.424 . S
C2479 H2474 0.930 . S
C2479 C2481 1.390 . S
C2479 C2482 1.339 . S
C2480 C2478 1.416 . S
C2480 C2482 1.416 . S
C2480 C2513 1.448 . S
C2481 H2466 0.930 1_565 S
C2481 N2477 1.334 . S
C2481 C2479 1.390 . S
C2482 C2479 1.339 . S
C2482 C2480 1.416 . S
C2482 H2489 0.930 . S
N2483 Tb2448 2.572 . S
N2483 C2484 1.347 . S
N2483 C2486 1.361 . S
C2484 H2470 0.925 1_455 S
C2484 N2483 1.347 . S
C2484 C2488 1.405 1_455 S
C2485 C2486 1.413 . S
C2485 C2487 1.416 1_455 S
C2485 C2514 1.427 . S
C2486 C2478 1.424 . S
C2486 N2483 1.361 . S
C2486 C2485 1.413 . S
C2487 H2476 0.931 . S
C2487 C2485 1.416 1_655 S
C2487 C2488 1.332 . S
C2488 H2467 0.929 . S
C2488 C2484 1.405 1_655 S
C2488 C2487 1.332 . S
H2489 C2482 0.930 . S
H2490 C2513 0.930 . S
H2491 C2514 0.929 . S
O2492 Tb2448 2.465 . S
O2492 C2512 1.264 . S
O2493 Tb2448 2.387 1_545 S
O2493 C2504 1.264 . S
O2494 Tb2459 2.349 . S
O2494 C2504 1.243 . S
O2495 Tb2448 2.428 . S
O2495 C2512 1.256 . S
O2496 Tb2448 2.308 1_545 S
O2496 C2511 1.266 1_455 S
O2497 Tb2459 2.393 1_655 S
O2497 C2511 1.248 . S
O2498 Tb2459 2.465 . S
O2498 C2523 1.264 . S
O2499 Tb2459 2.387 . S
O2499 C2515 1.264 . S
O2500 Tb2448 2.349 1_545 S
O2500 C2515 1.243 . S
O2501 Tb2459 2.428 1_655 S
O2501 C2523 1.256 1_655 S
O2502 Tb2459 2.308 . S
O2502 C2522 1.266 . S
O2503 Tb2448 2.393 1_545 S
O2503 C2522 1.248 . S
C2504 O2493 1.264 . S
C2504 O2494 1.243 . S
C2505 C2508 1.399 . S
C2505 C2510 1.383 . S
C2505 C2512 1.496 . S
C2506 C2507 1.399 . S
C2506 C2510 1.389 . S
C2507 C2506 1.399 . S
C2507 C2509 1.380 . S
C2507 H2524 0.929 . S
C2508 C2505 1.399 . S
C2508 C2509 1.392 . S
C2508 H2525 0.929 . S
C2509 C2507 1.380 . S
C2509 C2508 1.392 . S
C2509 H2526 0.929 . S
C2510 C2505 1.383 . S
C2510 C2506 1.389 . S
C2510 H2527 0.931 . S
C2511 O2496 1.266 1_655 S
C2511 O2497 1.248 . S
C2512 Tb2448 2.802 . S
C2512 O2492 1.264 . S
C2512 O2495 1.256 . S
C2512 C2505 1.496 . S
C2513 C2480 1.448 . S
C2513 H2490 0.930 . S
C2513 C2514 1.328 . S
C2514 C2485 1.427 . S
C2514 H2491 0.929 . S
C2514 C2513 1.328 . S
C2515 O2499 1.264 . S
C2515 O2500 1.243 . S
C2516 C2519 1.399 1_455 S
C2516 C2520 1.383 . S
C2516 C2523 1.496 . S
C2517 C2518 1.399 1_455 S
C2517 C2520 1.389 . S
C2518 C2517 1.399 1_655 S
C2518 C2521 1.380 . S
C2518 H2528 0.929 . S
C2519 C2516 1.399 1_655 S
C2519 C2521 1.392 . S
C2519 H2529 0.929 . S
C2520 C2516 1.383 . S
C2520 C2517 1.389 . S
C2520 H2530 0.931 . S
C2521 C2518 1.380 . S
C2521 C2519 1.392 . S
C2521 H2531 0.929 . S
C2522 O2502 1.266 . S
C2522 O2503 1.248 . S
C2523 Tb2459 2.802 . S
C2523 O2498 1.264 . S
C2523 O2501 1.256 1_455 S
C2523 C2516 1.496 . S
H2524 C2507 0.929 . S
H2525 C2508 0.929 . S
H2526 C2509 0.929 . S
H2527 C2510 0.931 . S
H2528 C2518 0.929 . S
H2529 C2519 0.929 . S
H2530 C2520 0.931 . S
H2531 C2521 0.929 . S
Tb2532 N2561 2.617 . S
Tb2532 N2567 2.572 . S
Tb2532 O2576 2.465 . S
Tb2532 O2577 2.387 . S
Tb2532 O2579 2.428 . S
Tb2532 O2580 2.308 . S
Tb2532 O2584 2.349 . S
Tb2532 O2587 2.393 . S
Tb2532 C2596 2.802 . S
C2533 N2534 1.379 . S
C2533 C2536 1.416 . S
C2533 C2540 1.424 . S
N2534 C2533 1.379 . S
N2534 C2537 1.334 . S
N2534 Tb2543 2.617 . S
C2535 C2537 1.390 . S
C2535 C2538 1.339 . S
C2535 H2555 0.930 . S
C2536 C2533 1.416 . S
C2536 C2538 1.416 . S
C2536 C2542 1.448 . S
C2537 N2534 1.334 . S
C2537 C2535 1.390 . S
C2537 H2548 0.930 . S
C2538 C2535 1.339 . S
C2538 C2536 1.416 . S
C2538 H2559 0.930 . S
C2539 C2540 1.413 . S
C2539 C2541 1.427 . S
C2539 C2545 1.416 . S
C2540 C2533 1.424 . S
C2540 C2539 1.413 . S
C2540 N2544 1.361 . S
C2541 C2539 1.427 . S
C2541 C2542 1.328 . S
C2541 H2556 0.929 . S
C2542 C2536 1.448 . S
C2542 C2541 1.328 . S
C2542 H2557 0.930 . S
Tb2543 N2534 2.617 . S
Tb2543 N2544 2.572 . S
Tb2543 O2578 2.349 . S
Tb2543 O2581 2.393 . S
Tb2543 O2582 2.465 . S
Tb2543 O2583 2.387 . S
Tb2543 O2585 2.428 . S
Tb2543 O2586 2.308 . S
Tb2543 C2607 2.802 . S
N2544 C2540 1.361 . S
N2544 Tb2543 2.572 . S
N2544 C2546 1.340 . S
C2545 C2539 1.416 . S
C2545 C2547 1.332 . S
C2545 H2553 0.931 . S
C2546 N2544 1.340 . S
C2546 C2547 1.407 . S
C2546 H2552 0.930 . S
C2547 C2545 1.332 . S
C2547 C2546 1.407 . S
C2547 H2549 0.929 . S
H2548 C2537 0.930 . S
H2549 C2547 0.929 . S
H2550 C2565 0.930 . S
H2551 C2572 0.929 . S
H2552 C2546 0.930 . S
H2553 C2545 0.931 . S
H2554 C2568 0.930 . S
H2555 C2535 0.930 . S
H2556 C2541 0.929 . S
H2557 C2542 0.930 . S
H2558 C2563 0.930 . S
H2559 C2538 0.930 . S
H2560 C2571 0.931 . S
N2561 Tb2532 2.617 . S
N2561 C2562 1.379 . S
N2561 C2565 1.334 . S
C2562 N2561 1.379 . S
C2562 C2564 1.416 . S
C2562 C2570 1.424 . S
C2563 H2558 0.930 . S
C2563 C2565 1.390 . S
C2563 C2566 1.339 . S
C2564 C2562 1.416 . S
C2564 C2566 1.416 . S
C2564 C2597 1.448 . S
C2565 H2550 0.930 . S
C2565 N2561 1.334 . S
C2565 C2563 1.390 . S
C2566 C2563 1.339 . S
C2566 C2564 1.416 . S
C2566 H2573 0.930 . S
N2567 Tb2532 2.572 . S
N2567 C2568 1.340 . S
N2567 C2570 1.361 . S
C2568 H2554 0.930 . S
C2568 N2567 1.340 . S
C2568 C2572 1.407 . S
C2569 C2570 1.413 . S
C2569 C2571 1.416 . S
C2569 C2598 1.427 . S
C2570 C2562 1.424 . S
C2570 N2567 1.361 . S
C2570 C2569 1.413 . S
C2571 H2560 0.931 . S
C2571 C2569 1.416 . S
C2571 C2572 1.332 . S
C2572 H2551 0.929 . S
C2572 C2568 1.407 . S
C2572 C2571 1.332 . S
H2573 C2566 0.930 . S
H2574 C2597 0.930 . S
H2575 C2598 0.929 . S
O2576 Tb2532 2.465 . S
O2576 C2596 1.264 . S
O2577 Tb2532 2.387 . S
O2577 C2588 1.264 . S
O2578 Tb2543 2.349 . S
O2578 C2588 1.243 . S
O2579 Tb2532 2.428 . S
O2579 C2596 1.256 . S
O2580 Tb2532 2.308 . S
O2580 C2595 1.266 . S
O2581 Tb2543 2.393 . S
O2581 C2595 1.248 . S
O2582 Tb2543 2.465 . S
O2582 C2607 1.264 . S
O2583 Tb2543 2.387 . S
O2583 C2599 1.264 . S
O2584 Tb2532 2.349 . S
O2584 C2599 1.243 . S
O2585 Tb2543 2.428 . S
O2585 C2607 1.256 . S
O2586 Tb2543 2.308 . S
O2586 C2606 1.266 . S
O2587 Tb2532 2.393 . S
O2587 C2606 1.248 . S
C2588 O2577 1.264 . S
C2588 O2578 1.243 . S
C2589 C2592 1.399 . S
C2589 C2594 1.383 . S
C2589 C2596 1.496 . S
C2590 C2591 1.399 . S
C2590 C2594 1.389 . S
C2591 C2590 1.399 . S
C2591 C2593 1.380 . S
C2591 H2608 0.929 . S
C2592 C2589 1.399 . S
C2592 C2593 1.392 . S
C2592 H2609 0.929 . S
C2593 C2591 1.380 . S
C2593 C2592 1.392 . S
C2593 H2610 0.929 . S
C2594 C2589 1.383 . S
C2594 C2590 1.389 . S
C2594 H2611 0.931 . S
C2595 O2580 1.266 . S
C2595 O2581 1.248 . S
C2596 Tb2532 2.802 . S
C2596 O2576 1.264 . S
C2596 O2579 1.256 . S
C2596 C2589 1.496 . S
C2597 C2564 1.448 . S
C2597 H2574 0.930 . S
C2597 C2598 1.328 . S
C2598 C2569 1.427 . S
C2598 H2575 0.929 . S
C2598 C2597 1.328 . S
C2599 O2583 1.264 . S
C2599 O2584 1.243 . S
C2600 C2603 1.399 . S
C2600 C2604 1.383 . S
C2600 C2607 1.496 . S
C2601 C2602 1.399 . S
C2601 C2604 1.389 . S
C2602 C2601 1.399 . S
C2602 C2605 1.380 . S
C2602 H2612 0.929 . S
C2603 C2600 1.399 . S
C2603 C2605 1.392 . S
C2603 H2613 0.929 . S
C2604 C2600 1.383 . S
C2604 C2601 1.389 . S
C2604 H2614 0.931 . S
C2605 C2602 1.380 . S
C2605 C2603 1.392 . S
C2605 H2615 0.929 . S
C2606 O2586 1.266 . S
C2606 O2587 1.248 . S
C2607 Tb2543 2.802 . S
C2607 O2582 1.264 . S
C2607 O2585 1.256 . S
C2607 C2600 1.496 . S
H2608 C2591 0.929 . S
H2609 C2592 0.929 . S
H2610 C2593 0.929 . S
H2611 C2594 0.931 . S
H2612 C2602 0.929 . S
H2613 C2603 0.929 . S
H2614 C2604 0.931 . S
H2615 C2605 0.929 . S
Tb2616 N2645 2.617 . S
Tb2616 N2651 2.572 . S
Tb2616 O2660 2.465 . S
Tb2616 O2661 2.387 1_556 S
Tb2616 O2663 2.428 . S
Tb2616 O2664 2.312 . S
Tb2616 O2668 2.349 1_556 S
Tb2616 O2671 2.393 1_556 S
Tb2616 C2680 2.802 . S
C2617 N2618 1.379 . S
C2617 C2620 1.416 . S
C2617 C2624 1.424 1_565 S
N2618 C2617 1.379 . S
N2618 C2621 1.334 . S
N2618 Tb2627 2.617 1_565 S
C2619 C2621 1.390 . S
C2619 C2622 1.339 . S
C2619 H2639 0.930 . S
C2620 C2617 1.416 . S
C2620 C2622 1.416 . S
C2620 C2626 1.448 . S
C2621 N2618 1.334 . S
C2621 C2619 1.390 . S
C2621 H2632 0.930 . S
C2622 C2619 1.339 . S
C2622 C2620 1.416 . S
C2622 H2643 0.930 . S
C2623 C2624 1.413 . S
C2623 C2625 1.427 . S
C2623 C2629 1.416 . S
C2624 C2617 1.424 1_545 S
C2624 C2623 1.413 . S
C2624 N2628 1.361 . S
C2625 C2623 1.427 . S
C2625 C2626 1.328 1_545 S
C2625 H2640 0.929 . S
C2626 C2620 1.448 . S
C2626 C2625 1.328 1_565 S
C2626 H2641 0.930 . S
Tb2627 N2618 2.617 1_545 S
Tb2627 N2628 2.572 . S
Tb2627 O2662 2.349 . S
Tb2627 O2665 2.393 1_545 S
Tb2627 O2666 2.465 . S
Tb2627 O2667 2.387 . S
Tb2627 O2669 2.428 1_545 S
Tb2627 O2670 2.308 . S
Tb2627 C2691 2.802 1_545 S
N2628 C2624 1.361 . S
N2628 Tb2627 2.572 . S
N2628 C2630 1.340 . S
C2629 C2623 1.416 . S
C2629 C2631 1.332 . S
C2629 H2637 0.931 . S
C2630 N2628 1.340 . S
C2630 C2631 1.407 . S
C2630 H2636 0.930 . S
C2631 C2629 1.332 . S
C2631 C2630 1.407 . S
C2631 H2633 0.929 . S
H2632 C2621 0.930 . S
H2633 C2631 0.929 . S
H2634 C2649 0.930 1_554 S
H2635 C2656 0.929 . S
H2636 C2630 0.930 . S
H2637 C2629 0.931 . S
H2638 C2652 0.930 1_565 S
H2639 C2619 0.930 . S
H2640 C2625 0.929 . S
H2641 C2626 0.930 . S
H2642 C2647 0.930 . S
H2643 C2622 0.930 . S
H2644 C2655 0.931 1_565 S
N2645 Tb2616 2.617 . S
N2645 C2646 1.379 . S
N2645 C2649 1.334 . S
C2646 N2645 1.379 . S
C2646 C2648 1.416 . S
C2646 C2654 1.424 . S
C2647 H2642 0.930 . S
C2647 C2649 1.390 . S
C2647 C2650 1.339 . S
C2648 C2646 1.416 . S
C2648 C2650 1.416 . S
C2648 C2681 1.448 . S
C2649 H2634 0.930 1_556 S
C2649 N2645 1.334 . S
C2649 C2647 1.390 . S
C2650 C2647 1.339 . S
C2650 C2648 1.416 . S
C2650 H2657 0.930 . S
N2651 Tb2616 2.572 . S
N2651 C2652 1.340 . S
N2651 C2654 1.361 . S
C2652 H2638 0.930 1_545 S
C2652 N2651 1.340 . S
C2652 C2656 1.407 1_545 S
C2653 C2654 1.413 . S
C2653 C2655 1.416 . S
C2653 C2682 1.427 . S
C2654 C2646 1.424 . S
C2654 N2651 1.361 . S
C2654 C2653 1.413 . S
C2655 H2644 0.931 1_545 S
C2655 C2653 1.416 . S
C2655 C2656 1.332 1_545 S
C2656 H2635 0.929 . S
C2656 C2652 1.407 1_565 S
C2656 C2655 1.332 1_565 S
H2657 C2650 0.930 . S
H2658 C2681 0.930 . S
H2659 C2682 0.929 . S
O2660 Tb2616 2.465 . S
O2660 C2680 1.264 . S
O2661 Tb2616 2.387 1_554 S
O2661 C2672 1.264 . S
O2662 Tb2627 2.349 . S
O2662 C2672 1.243 . S
O2663 Tb2616 2.428 . S
O2663 C2680 1.256 . S
O2664 Tb2616 2.312 . S
O2664 C2679 1.259 1_546 S
O2665 Tb2627 2.393 1_565 S
O2665 C2679 1.248 . S
O2666 Tb2627 2.465 . S
O2666 C2691 1.264 1_545 S
O2667 Tb2627 2.387 . S
O2667 C2683 1.264 . S
O2668 Tb2616 2.349 1_554 S
O2668 C2683 1.243 . S
O2669 Tb2627 2.428 1_565 S
O2669 C2691 1.256 . S
O2670 Tb2627 2.308 . S
O2670 C2690 1.266 . S
O2671 Tb2616 2.393 1_554 S
O2671 C2690 1.248 . S
C2672 O2661 1.264 . S
C2672 O2662 1.243 . S
C2673 C2676 1.399 . S
C2673 C2678 1.383 . S
C2673 C2680 1.496 . S
C2674 C2675 1.399 . S
C2674 C2678 1.389 . S
C2675 C2674 1.399 . S
C2675 C2677 1.380 . S
C2675 H2692 0.929 . S
C2676 C2673 1.399 . S
C2676 C2677 1.392 . S
C2676 H2693 0.929 . S
C2677 C2675 1.380 . S
C2677 C2676 1.392 . S
C2677 H2694 0.929 . S
C2678 C2673 1.383 . S
C2678 C2674 1.389 . S
C2678 H2695 0.931 . S
C2679 O2664 1.259 1_564 S
C2679 O2665 1.248 . S
C2680 Tb2616 2.802 . S
C2680 O2660 1.264 . S
C2680 O2663 1.256 . S
C2680 C2673 1.496 . S
C2681 C2648 1.448 . S
C2681 H2658 0.930 . S
C2681 C2682 1.328 . S
C2682 C2653 1.427 . S
C2682 H2659 0.929 . S
C2682 C2681 1.328 . S
C2683 O2667 1.264 . S
C2683 O2668 1.243 . S
C2684 C2687 1.399 . S
C2684 C2688 1.383 1_565 S
C2684 C2691 1.496 . S
C2685 C2686 1.399 1_545 S
C2685 C2688 1.389 . S
C2686 C2685 1.399 1_565 S
C2686 C2689 1.380 . S
C2686 H2696 0.929 . S
C2687 C2684 1.399 . S
C2687 C2689 1.392 . S
C2687 H2697 0.929 . S
C2688 C2684 1.383 1_545 S
C2688 C2685 1.389 . S
C2688 H2698 0.931 . S
C2689 C2686 1.380 . S
C2689 C2687 1.392 . S
C2689 H2699 0.929 . S
C2690 O2670 1.266 . S
C2690 O2671 1.248 . S
C2691 Tb2627 2.802 1_565 S
C2691 O2666 1.264 1_565 S
C2691 O2669 1.256 . S
C2691 C2684 1.496 . S
H2692 C2675 0.929 . S
H2693 C2676 0.929 . S
H2694 C2677 0.929 . S
H2695 C2678 0.931 . S
H2696 C2686 0.929 . S
H2697 C2687 0.929 . S
H2698 C2688 0.931 . S
H2699 C2689 0.929 . S
Tb2700 N2729 2.617 . S
Tb2700 N2735 2.572 . S
Tb2700 O2744 2.465 . S
Tb2700 O2745 2.387 . S
Tb2700 O2747 2.428 . S
Tb2700 O2748 2.308 . S
Tb2700 O2752 2.349 . S
Tb2700 O2755 2.393 . S
Tb2700 C2764 2.802 . S
C2701 N2702 1.379 . S
C2701 C2704 1.416 . S
C2701 C2708 1.424 . S
N2702 C2701 1.379 . S
N2702 C2705 1.334 . S
N2702 Tb2711 2.617 . S
C2703 C2705 1.390 . S
C2703 C2706 1.339 . S
C2703 H2723 0.930 . S
C2704 C2701 1.416 . S
C2704 C2706 1.416 . S
C2704 C2710 1.448 . S
C2705 N2702 1.334 . S
C2705 C2703 1.390 . S
C2705 H2716 0.930 . S
C2706 C2703 1.339 . S
C2706 C2704 1.416 . S
C2706 H2727 0.930 . S
C2707 C2708 1.413 . S
C2707 C2709 1.427 . S
C2707 C2713 1.416 . S
C2708 C2701 1.424 . S
C2708 C2707 1.413 . S
C2708 N2712 1.361 . S
C2709 C2707 1.427 . S
C2709 C2710 1.328 . S
C2709 H2724 0.929 . S
C2710 C2704 1.448 . S
C2710 C2709 1.328 . S
C2710 H2725 0.930 . S
Tb2711 N2702 2.617 . S
Tb2711 N2712 2.572 . S
Tb2711 O2746 2.349 . S
Tb2711 O2749 2.393 . S
Tb2711 O2750 2.465 . S
Tb2711 O2751 2.387 . S
Tb2711 O2753 2.428 . S
Tb2711 O2754 2.308 . S
Tb2711 C2775 2.802 . S
N2712 C2708 1.361 . S
N2712 Tb2711 2.572 . S
N2712 C2714 1.340 . S
C2713 C2707 1.416 . S
C2713 C2715 1.332 . S
C2713 H2721 0.931 . S
C2714 N2712 1.340 . S
C2714 C2715 1.407 . S
C2714 H2720 0.930 . S
C2715 C2713 1.332 . S
C2715 C2714 1.407 . S
C2715 H2717 0.929 . S
H2716 C2705 0.930 . S
H2717 C2715 0.929 . S
H2718 C2733 0.930 . S
H2719 C2740 0.929 . S
H2720 C2714 0.930 . S
H2721 C2713 0.931 . S
H2722 C2736 0.930 . S
H2723 C2703 0.930 . S
H2724 C2709 0.929 . S
H2725 C2710 0.930 . S
H2726 C2731 0.930 . S
H2727 C2706 0.930 . S
H2728 C2739 0.931 . S
N2729 Tb2700 2.617 . S
N2729 C2730 1.379 . S
N2729 C2733 1.334 . S
C2730 N2729 1.379 . S
C2730 C2732 1.416 . S
C2730 C2738 1.424 . S
C2731 H2726 0.930 . S
C2731 C2733 1.390 . S
C2731 C2734 1.339 . S
C2732 C2730 1.416 . S
C2732 C2734 1.416 . S
C2732 C2765 1.448 . S
C2733 H2718 0.930 . S
C2733 N2729 1.334 . S
C2733 C2731 1.390 . S
C2734 C2731 1.339 . S
C2734 C2732 1.416 . S
C2734 H2741 0.930 . S
N2735 Tb2700 2.572 . S
N2735 C2736 1.340 . S
N2735 C2738 1.361 . S
C2736 H2722 0.930 . S
C2736 N2735 1.340 . S
C2736 C2740 1.407 . S
C2737 C2738 1.413 . S
C2737 C2739 1.416 . S
C2737 C2766 1.427 . S
C2738 C2730 1.424 . S
C2738 N2735 1.361 . S
C2738 C2737 1.413 . S
C2739 H2728 0.931 . S
C2739 C2737 1.416 . S
C2739 C2740 1.332 . S
C2740 H2719 0.929 . S
C2740 C2736 1.407 . S
C2740 C2739 1.332 . S
H2741 C2734 0.930 . S
H2742 C2765 0.930 . S
H2743 C2766 0.929 . S
O2744 Tb2700 2.465 . S
O2744 C2764 1.264 . S
O2745 Tb2700 2.387 . S
O2745 C2756 1.264 . S
O2746 Tb2711 2.349 . S
O2746 C2756 1.243 . S
O2747 Tb2700 2.428 . S
O2747 C2764 1.256 . S
O2748 Tb2700 2.308 . S
O2748 C2763 1.266 . S
O2749 Tb2711 2.393 . S
O2749 C2763 1.248 . S
O2750 Tb2711 2.465 . S
O2750 C2775 1.264 . S
O2751 Tb2711 2.387 . S
O2751 C2767 1.264 . S
O2752 Tb2700 2.349 . S
O2752 C2767 1.243 . S
O2753 Tb2711 2.428 . S
O2753 C2775 1.256 . S
O2754 Tb2711 2.308 . S
O2754 C2774 1.266 . S
O2755 Tb2700 2.393 . S
O2755 C2774 1.248 . S
C2756 O2745 1.264 . S
C2756 O2746 1.243 . S
C2757 C2760 1.399 . S
C2757 C2762 1.383 . S
C2757 C2764 1.496 . S
C2758 C2759 1.399 . S
C2758 C2762 1.389 . S
C2759 C2758 1.399 . S
C2759 C2761 1.380 . S
C2759 H2776 0.929 . S
C2760 C2757 1.399 . S
C2760 C2761 1.392 . S
C2760 H2777 0.929 . S
C2761 C2759 1.380 . S
C2761 C2760 1.392 . S
C2761 H2778 0.929 . S
C2762 C2757 1.383 . S
C2762 C2758 1.389 . S
C2762 H2779 0.931 . S
C2763 O2748 1.266 . S
C2763 O2749 1.248 . S
C2764 Tb2700 2.802 . S
C2764 O2744 1.264 . S
C2764 O2747 1.256 . S
C2764 C2757 1.496 . S
C2765 C2732 1.448 . S
C2765 H2742 0.930 . S
C2765 C2766 1.328 . S
C2766 C2737 1.427 . S
C2766 H2743 0.929 . S
C2766 C2765 1.328 . S
C2767 O2751 1.264 . S
C2767 O2752 1.243 . S
C2768 C2771 1.399 . S
C2768 C2772 1.383 . S
C2768 C2775 1.496 . S
C2769 C2770 1.399 . S
C2769 C2772 1.389 . S
C2770 C2769 1.399 . S
C2770 C2773 1.380 . S
C2770 H2780 0.929 . S
C2771 C2768 1.399 . S
C2771 C2773 1.392 . S
C2771 H2781 0.929 . S
C2772 C2768 1.383 . S
C2772 C2769 1.389 . S
C2772 H2782 0.931 . S
C2773 C2770 1.380 . S
C2773 C2771 1.392 . S
C2773 H2783 0.929 . S
C2774 O2754 1.266 . S
C2774 O2755 1.248 . S
C2775 Tb2711 2.802 . S
C2775 O2750 1.264 . S
C2775 O2753 1.256 . S
C2775 C2768 1.496 . S
H2776 C2759 0.929 . S
H2777 C2760 0.929 . S
H2778 C2761 0.929 . S
H2779 C2762 0.931 . S
H2780 C2770 0.929 . S
H2781 C2771 0.929 . S
H2782 C2772 0.931 . S
H2783 C2773 0.929 . S
Tb2784 N2813 2.617 1_554 S
Tb2784 N2819 2.572 1_554 S
Tb2784 O2828 2.465 . S
Tb2784 O2829 2.387 1_554 S
Tb2784 O2831 2.428 . S
Tb2784 O2832 2.308 . S
Tb2784 O2836 2.349 . S
Tb2784 O2839 2.393 . S
Tb2784 C2848 2.802 . S
C2785 N2786 1.379 . S
C2785 C2788 1.416 . S
C2785 C2792 1.424 . S
N2786 C2785 1.379 . S
N2786 C2789 1.334 . S
N2786 Tb2795 2.617 . S
C2787 C2789 1.390 . S
C2787 C2790 1.339 . S
C2787 H2807 0.930 . S
C2788 C2785 1.416 . S
C2788 C2790 1.416 . S
C2788 C2794 1.448 . S
C2789 N2786 1.334 . S
C2789 C2787 1.390 . S
C2789 H2800 0.930 . S
C2790 C2787 1.339 . S
C2790 C2788 1.416 . S
C2790 H2811 0.930 . S
C2791 C2792 1.413 . S
C2791 C2793 1.427 . S
C2791 C2797 1.416 . S
C2792 C2785 1.424 . S
C2792 C2791 1.413 . S
C2792 N2796 1.361 . S
C2793 C2791 1.427 . S
C2793 C2794 1.328 . S
C2793 H2808 0.929 . S
C2794 C2788 1.448 . S
C2794 C2793 1.328 . S
C2794 H2809 0.930 . S
Tb2795 N2786 2.617 . S
Tb2795 N2796 2.572 . S
Tb2795 O2830 2.349 1_554 S
Tb2795 O2833 2.393 . S
Tb2795 O2834 2.465 . S
Tb2795 O2835 2.387 . S
Tb2795 O2837 2.428 . S
Tb2795 O2838 2.308 . S
Tb2795 C2859 2.802 . S
N2796 C2792 1.361 . S
N2796 Tb2795 2.572 . S
N2796 C2798 1.340 . S
C2797 C2791 1.416 . S
C2797 C2799 1.332 . S
C2797 H2805 0.931 . S
C2798 N2796 1.340 . S
C2798 C2799 1.407 . S
C2798 H2804 0.930 . S
C2799 C2797 1.332 . S
C2799 C2798 1.407 . S
C2799 H2801 0.929 . S
H2800 C2789 0.930 . S
H2801 C2799 0.929 . S
H2802 C2817 0.930 1_554 S
H2803 C2824 0.929 . S
H2804 C2798 0.930 . S
H2805 C2797 0.931 . S
H2806 C2820 0.930 1_554 S
H2807 C2787 0.930 . S
H2808 C2793 0.929 . S
H2809 C2794 0.930 . S
H2810 C2815 0.930 . S
H2811 C2790 0.930 . S
H2812 C2823 0.931 . S
N2813 Tb2784 2.617 1_556 S
N2813 C2814 1.379 . S
N2813 C2817 1.334 . S
C2814 N2813 1.379 . S
C2814 C2816 1.416 . S
C2814 C2822 1.424 . S
C2815 H2810 0.930 . S
C2815 C2817 1.390 . S
C2815 C2818 1.339 . S
C2816 C2814 1.416 . S
C2816 C2818 1.416 . S
C2816 C2849 1.448 . S
C2817 H2802 0.930 1_556 S
C2817 N2813 1.334 . S
C2817 C2815 1.390 . S
C2818 C2815 1.339 . S
C2818 C2816 1.416 . S
C2818 H2825 0.930 . S
N2819 Tb2784 2.572 1_556 S
N2819 C2820 1.340 . S
N2819 C2822 1.361 . S
C2820 H2806 0.930 1_556 S
C2820 N2819 1.340 . S
C2820 C2824 1.407 . S
C2821 C2822 1.413 . S
C2821 C2823 1.416 . S
C2821 C2850 1.427 . S
C2822 C2814 1.424 . S
C2822 N2819 1.361 . S
C2822 C2821 1.413 . S
C2823 H2812 0.931 . S
C2823 C2821 1.416 . S
C2823 C2824 1.332 . S
C2824 H2803 0.929 . S
C2824 C2820 1.407 . S
C2824 C2823 1.332 . S
H2825 C2818 0.930 . S
H2826 C2849 0.930 . S
H2827 C2850 0.929 . S
O2828 Tb2784 2.465 . S
O2828 C2848 1.264 . S
O2829 Tb2784 2.387 1_556 S
O2829 C2840 1.264 . S
O2830 Tb2795 2.349 1_556 S
O2830 C2840 1.243 . S
O2831 Tb2784 2.428 . S
O2831 C2848 1.256 . S
O2832 Tb2784 2.308 . S
O2832 C2847 1.266 . S
O2833 Tb2795 2.393 . S
O2833 C2847 1.248 . S
O2834 Tb2795 2.465 . S
O2834 C2859 1.264 . S
O2835 Tb2795 2.387 . S
O2835 C2851 1.264 . S
O2836 Tb2784 2.349 . S
O2836 C2851 1.243 . S
O2837 Tb2795 2.428 . S
O2837 C2859 1.256 . S
O2838 Tb2795 2.308 . S
O2838 C2858 1.266 . S
O2839 Tb2784 2.393 . S
O2839 C2858 1.248 . S
C2840 O2829 1.264 . S
C2840 O2830 1.243 . S
C2841 C2844 1.399 . S
C2841 C2846 1.383 . S
C2841 C2848 1.496 . S
C2842 C2843 1.399 . S
C2842 C2846 1.389 . S
C2843 C2842 1.399 . S
C2843 C2845 1.380 . S
C2843 H2860 0.929 . S
C2844 C2841 1.399 . S
C2844 C2845 1.392 . S
C2844 H2861 0.929 . S
C2845 C2843 1.380 . S
C2845 C2844 1.392 . S
C2845 H2862 0.929 . S
C2846 C2841 1.383 . S
C2846 C2842 1.389 . S
C2846 H2863 0.931 . S
C2847 O2832 1.266 . S
C2847 O2833 1.248 . S
C2848 Tb2784 2.802 . S
C2848 O2828 1.264 . S
C2848 O2831 1.256 . S
C2848 C2841 1.496 . S
C2849 C2816 1.448 . S
C2849 H2826 0.930 . S
C2849 C2850 1.328 . S
C2850 C2821 1.427 . S
C2850 H2827 0.929 . S
C2850 C2849 1.328 . S
C2851 O2835 1.264 . S
C2851 O2836 1.243 . S
C2852 C2855 1.399 . S
C2852 C2856 1.383 . S
C2852 C2859 1.496 1_556 S
C2853 C2854 1.399 . S
C2853 C2856 1.389 . S
C2854 C2853 1.399 . S
C2854 C2857 1.380 . S
C2854 H2864 0.929 . S
C2855 C2852 1.399 . S
C2855 C2857 1.392 . S
C2855 H2865 0.929 . S
C2856 C2852 1.383 . S
C2856 C2853 1.389 . S
C2856 H2866 0.931 . S
C2857 C2854 1.380 . S
C2857 C2855 1.392 . S
C2857 H2867 0.929 . S
C2858 O2838 1.266 . S
C2858 O2839 1.248 . S
C2859 Tb2795 2.802 . S
C2859 O2834 1.264 . S
C2859 O2837 1.256 . S
C2859 C2852 1.496 1_554 S
H2860 C2843 0.929 . S
H2861 C2844 0.929 . S
H2862 C2845 0.929 . S
H2863 C2846 0.931 . S
H2864 C2854 0.929 . S
H2865 C2855 0.929 . S
H2866 C2856 0.931 . S
H2867 C2857 0.929 . S
Tb2868 N2897 2.617 . S
Tb2868 N2903 2.572 . S
Tb2868 O2912 2.465 . S
Tb2868 O2913 2.387 . S
Tb2868 O2915 2.428 . S
Tb2868 O2916 2.308 . S
Tb2868 O2920 2.349 . S
Tb2868 O2923 2.393 . S
Tb2868 C2932 2.802 . S
C2869 N2870 1.379 . S
C2869 C2872 1.416 . S
C2869 C2876 1.424 . S
N2870 C2869 1.379 . S
N2870 C2873 1.334 . S
N2870 Tb2879 2.617 . S
C2871 C2873 1.390 . S
C2871 C2874 1.339 . S
C2871 H2891 0.930 . S
C2872 C2869 1.416 . S
C2872 C2874 1.416 . S
C2872 C2878 1.448 . S
C2873 N2870 1.334 . S
C2873 C2871 1.390 . S
C2873 H2884 0.930 . S
C2874 C2871 1.339 . S
C2874 C2872 1.416 . S
C2874 H2895 0.930 . S
C2875 C2876 1.413 . S
C2875 C2877 1.427 . S
C2875 C2881 1.416 . S
C2876 C2869 1.424 . S
C2876 C2875 1.413 . S
C2876 N2880 1.361 . S
C2877 C2875 1.427 . S
C2877 C2878 1.328 . S
C2877 H2892 0.929 . S
C2878 C2872 1.448 . S
C2878 C2877 1.328 . S
C2878 H2893 0.930 . S
Tb2879 N2870 2.617 . S
Tb2879 N2880 2.572 . S
Tb2879 O2914 2.349 . S
Tb2879 O2917 2.393 . S
Tb2879 O2918 2.465 . S
Tb2879 O2919 2.387 . S
Tb2879 O2921 2.428 . S
Tb2879 O2922 2.308 . S
Tb2879 C2943 2.802 . S
N2880 C2876 1.361 . S
N2880 Tb2879 2.572 . S
N2880 C2882 1.340 . S
C2881 C2875 1.416 . S
C2881 C2883 1.332 . S
C2881 H2889 0.931 . S
C2882 N2880 1.340 . S
C2882 C2883 1.407 . S
C2882 H2888 0.930 . S
C2883 C2881 1.332 . S
C2883 C2882 1.407 . S
C2883 H2885 0.929 . S
H2884 C2873 0.930 . S
H2885 C2883 0.929 . S
H2886 C2901 0.930 . S
H2887 C2908 0.929 . S
H2888 C2882 0.930 . S
H2889 C2881 0.931 . S
H2890 C2904 0.930 . S
H2891 C2871 0.930 . S
H2892 C2877 0.929 . S
H2893 C2878 0.930 . S
H2894 C2899 0.930 . S
H2895 C2874 0.930 . S
H2896 C2907 0.931 . S
N2897 Tb2868 2.617 . S
N2897 C2898 1.379 . S
N2897 C2901 1.334 . S
C2898 N2897 1.379 . S
C2898 C2900 1.416 . S
C2898 C2906 1.424 . S
C2899 H2894 0.930 . S
C2899 C2901 1.390 . S
C2899 C2902 1.339 . S
C2900 C2898 1.416 . S
C2900 C2902 1.416 . S
C2900 C2933 1.448 . S
C2901 H2886 0.930 . S
C2901 N2897 1.334 . S
C2901 C2899 1.390 . S
C2902 C2899 1.339 . S
C2902 C2900 1.416 . S
C2902 H2909 0.930 . S
N2903 Tb2868 2.572 . S
N2903 C2904 1.340 . S
N2903 C2906 1.361 . S
C2904 H2890 0.930 . S
C2904 N2903 1.340 . S
C2904 C2908 1.407 . S
C2905 C2906 1.413 . S
C2905 C2907 1.416 . S
C2905 C2934 1.427 . S
C2906 C2898 1.424 . S
C2906 N2903 1.361 . S
C2906 C2905 1.413 . S
C2907 H2896 0.931 . S
C2907 C2905 1.416 . S
C2907 C2908 1.332 . S
C2908 H2887 0.929 . S
C2908 C2904 1.407 . S
C2908 C2907 1.332 . S
H2909 C2902 0.930 . S
H2910 C2933 0.930 . S
H2911 C2934 0.929 . S
O2912 Tb2868 2.465 . S
O2912 C2932 1.264 . S
O2913 Tb2868 2.387 . S
O2913 C2924 1.264 . S
O2914 Tb2879 2.349 . S
O2914 C2924 1.243 . S
O2915 Tb2868 2.428 . S
O2915 C2932 1.256 . S
O2916 Tb2868 2.308 . S
O2916 C2931 1.266 . S
O2917 Tb2879 2.393 . S
O2917 C2931 1.248 . S
O2918 Tb2879 2.465 . S
O2918 C2943 1.264 . S
O2919 Tb2879 2.387 . S
O2919 C2935 1.264 . S
O2920 Tb2868 2.349 . S
O2920 C2935 1.243 . S
O2921 Tb2879 2.428 . S
O2921 C2943 1.256 . S
O2922 Tb2879 2.308 . S
O2922 C2942 1.266 . S
O2923 Tb2868 2.393 . S
O2923 C2942 1.248 . S
C2924 O2913 1.264 . S
C2924 O2914 1.243 . S
C2925 C2928 1.399 . S
C2925 C2930 1.383 . S
C2925 C2932 1.496 . S
C2926 C2927 1.399 . S
C2926 C2930 1.389 . S
C2927 C2926 1.399 . S
C2927 C2929 1.380 . S
C2927 H2944 0.929 . S
C2928 C2925 1.399 . S
C2928 C2929 1.392 . S
C2928 H2945 0.929 . S
C2929 C2927 1.380 . S
C2929 C2928 1.392 . S
C2929 H2946 0.929 . S
C2930 C2925 1.383 . S
C2930 C2926 1.389 . S
C2930 H2947 0.931 . S
C2931 O2916 1.266 . S
C2931 O2917 1.248 . S
C2932 Tb2868 2.802 . S
C2932 O2912 1.264 . S
C2932 O2915 1.256 . S
C2932 C2925 1.496 . S
C2933 C2900 1.448 . S
C2933 H2910 0.930 . S
C2933 C2934 1.328 . S
C2934 C2905 1.427 . S
C2934 H2911 0.929 . S
C2934 C2933 1.328 . S
C2935 O2919 1.264 . S
C2935 O2920 1.243 . S
C2936 C2939 1.399 . S
C2936 C2940 1.383 . S
C2936 C2943 1.496 . S
C2937 C2938 1.399 . S
C2937 C2940 1.389 . S
C2938 C2937 1.399 . S
C2938 C2941 1.380 . S
C2938 H2948 0.929 . S
C2939 C2936 1.399 . S
C2939 C2941 1.392 . S
C2939 H2949 0.929 . S
C2940 C2936 1.383 . S
C2940 C2937 1.389 . S
C2940 H2950 0.931 . S
C2941 C2938 1.380 . S
C2941 C2939 1.392 . S
C2941 H2951 0.929 . S
C2942 O2922 1.266 . S
C2942 O2923 1.248 . S
C2943 Tb2879 2.802 . S
C2943 O2918 1.264 . S
C2943 O2921 1.256 . S
C2943 C2936 1.496 . S
H2944 C2927 0.929 . S
H2945 C2928 0.929 . S
H2946 C2929 0.929 . S
H2947 C2930 0.931 . S
H2948 C2938 0.929 . S
H2949 C2939 0.929 . S
H2950 C2940 0.931 . S
H2951 C2941 0.929 . S
Tb2952 N2981 2.617 1_455 S
Tb2952 N2987 2.572 1_455 S
Tb2952 O2996 2.465 . S
Tb2952 O2997 2.387 1_455 S
Tb2952 O2999 2.428 . S
Tb2952 O3000 2.308 . S
Tb2952 O3004 2.349 . S
Tb2952 O3007 2.393 . S
Tb2952 C3016 2.802 . S
C2953 N2954 1.379 . S
C2953 C2956 1.416 . S
C2953 C2960 1.424 . S
N2954 C2953 1.379 . S
N2954 C2957 1.334 . S
N2954 Tb2963 2.617 . S
C2955 C2957 1.390 . S
C2955 C2958 1.339 . S
C2955 H2975 0.930 . S
C2956 C2953 1.416 . S
C2956 C2958 1.416 . S
C2956 C2962 1.448 . S
C2957 N2954 1.334 . S
C2957 C2955 1.390 . S
C2957 H2968 0.930 . S
C2958 C2955 1.339 . S
C2958 C2956 1.416 . S
C2958 H2979 0.930 . S
C2959 C2960 1.413 . S
C2959 C2961 1.427 . S
C2959 C2965 1.416 . S
C2960 C2953 1.424 . S
C2960 C2959 1.413 . S
C2960 N2964 1.361 . S
C2961 C2959 1.427 . S
C2961 C2962 1.328 . S
C2961 H2976 0.929 . S
C2962 C2956 1.448 . S
C2962 C2961 1.328 . S
C2962 H2977 0.930 . S
Tb2963 N2954 2.617 . S
Tb2963 N2964 2.572 . S
Tb2963 O2998 2.349 1_455 S
Tb2963 O3001 2.393 . S
Tb2963 O3002 2.465 . S
Tb2963 O3003 2.387 . S
Tb2963 O3005 2.428 . S
Tb2963 O3006 2.308 . S
Tb2963 C3027 2.802 . S
N2964 C2960 1.361 . S
N2964 Tb2963 2.572 . S
N2964 C2966 1.340 . S
C2965 C2959 1.416 . S
C2965 C2967 1.332 . S
C2965 H2973 0.931 . S
C2966 N2964 1.340 . S
C2966 C2967 1.407 . S
C2966 H2972 0.930 . S
C2967 C2965 1.332 . S
C2967 C2966 1.407 . S
C2967 H2969 0.929 . S
H2968 C2957 0.930 . S
H2969 C2967 0.929 . S
H2970 C2985 0.917 1_455 S
H2971 C2992 0.929 . S
H2972 C2966 0.930 . S
H2973 C2965 0.931 . S
H2974 C2988 0.930 1_455 S
H2975 C2955 0.930 . S
H2976 C2961 0.929 . S
H2977 C2962 0.930 . S
H2978 C2983 0.930 . S
H2979 C2958 0.930 . S
H2980 C2991 0.931 . S
N2981 Tb2952 2.617 1_655 S
N2981 C2982 1.379 . S
N2981 C2985 1.331 . S
C2982 N2981 1.379 . S
C2982 C2984 1.416 . S
C2982 C2990 1.424 . S
C2983 H2978 0.930 . S
C2983 C2985 1.407 . S
C2983 C2986 1.339 . S
C2984 C2982 1.416 . S
C2984 C2986 1.416 . S
C2984 C3017 1.448 . S
C2985 H2970 0.917 1_655 S
C2985 N2981 1.331 . S
C2985 C2983 1.407 . S
C2986 C2983 1.339 . S
C2986 C2984 1.416 . S
C2986 H2993 0.930 . S
N2987 Tb2952 2.572 1_655 S
N2987 C2988 1.340 . S
N2987 C2990 1.361 . S
C2988 H2974 0.930 1_655 S
C2988 N2987 1.340 . S
C2988 C2992 1.407 . S
C2989 C2990 1.413 . S
C2989 C2991 1.416 . S
C2989 C3018 1.427 . S
C2990 C2982 1.424 . S
C2990 N2987 1.361 . S
C2990 C2989 1.413 . S
C2991 H2980 0.931 . S
C2991 C2989 1.416 . S
C2991 C2992 1.332 . S
C2992 H2971 0.929 . S
C2992 C2988 1.407 . S
C2992 C2991 1.332 . S
H2993 C2986 0.930 . S
H2994 C3017 0.930 . S
H2995 C3018 0.929 . S
O2996 Tb2952 2.465 . S
O2996 C3016 1.264 . S
O2997 Tb2952 2.387 1_655 S
O2997 C3008 1.264 . S
O2998 Tb2963 2.349 1_655 S
O2998 C3008 1.243 . S
O2999 Tb2952 2.428 . S
O2999 C3016 1.256 . S
O3000 Tb2952 2.308 . S
O3000 C3015 1.266 . S
O3001 Tb2963 2.393 . S
O3001 C3015 1.248 . S
O3002 Tb2963 2.465 . S
O3002 C3027 1.264 . S
O3003 Tb2963 2.387 . S
O3003 C3019 1.264 . S
O3004 Tb2952 2.349 . S
O3004 C3019 1.243 . S
O3005 Tb2963 2.428 . S
O3005 C3027 1.256 . S
O3006 Tb2963 2.308 . S
O3006 C3026 1.266 . S
O3007 Tb2952 2.393 . S
O3007 C3026 1.248 . S
C3008 O2997 1.264 . S
C3008 O2998 1.243 . S
C3009 C3012 1.399 . S
C3009 C3014 1.383 . S
C3009 C3016 1.496 . S
C3010 C3011 1.399 . S
C3010 C3014 1.389 . S
C3011 C3010 1.399 . S
C3011 C3013 1.380 . S
C3011 H3028 0.929 . S
C3012 C3009 1.399 . S
C3012 C3013 1.392 . S
C3012 H3029 0.929 . S
C3013 C3011 1.380 . S
C3013 C3012 1.392 . S
C3013 H3030 0.929 . S
C3014 C3009 1.383 . S
C3014 C3010 1.389 . S
C3014 H3031 0.931 . S
C3015 O3000 1.266 . S
C3015 O3001 1.248 . S
C3016 Tb2952 2.802 . S
C3016 O2996 1.264 . S
C3016 O2999 1.256 . S
C3016 C3009 1.496 . S
C3017 C2984 1.448 . S
C3017 H2994 0.930 . S
C3017 C3018 1.328 . S
C3018 C2989 1.427 . S
C3018 H2995 0.929 . S
C3018 C3017 1.328 . S
C3019 O3003 1.264 . S
C3019 O3004 1.243 . S
C3020 C3023 1.399 . S
C3020 C3024 1.383 . S
C3020 C3027 1.496 1_655 S
C3021 C3022 1.399 . S
C3021 C3024 1.389 . S
C3022 C3021 1.399 . S
C3022 C3025 1.380 . S
C3022 H3032 0.929 . S
C3023 C3020 1.399 . S
C3023 C3025 1.392 . S
C3023 H3033 0.929 . S
C3024 C3020 1.383 . S
C3024 C3021 1.389 . S
C3024 H3034 0.931 . S
C3025 C3022 1.380 . S
C3025 C3023 1.392 . S
C3025 H3035 0.929 . S
C3026 O3006 1.266 . S
C3026 O3007 1.248 . S
C3027 Tb2963 2.802 . S
C3027 O3002 1.264 . S
C3027 O3005 1.256 . S
C3027 C3020 1.496 1_455 S
H3028 C3011 0.929 . S
H3029 C3012 0.929 . S
H3030 C3013 0.929 . S
H3031 C3014 0.931 . S
H3032 C3022 0.929 . S
H3033 C3023 0.929 . S
H3034 C3024 0.931 . S
H3035 C3025 0.929 . S
Tb3036 N3065 2.617 . S
Tb3036 N3071 2.572 . S
Tb3036 O3080 2.465 . S
Tb3036 O3081 2.387 . S
Tb3036 O3083 2.428 . S
Tb3036 O3084 2.308 . S
Tb3036 O3088 2.349 . S
Tb3036 O3091 2.393 . S
Tb3036 C3100 2.802 . S
C3037 N3038 1.379 . S
C3037 C3040 1.416 . S
C3037 C3044 1.424 . S
N3038 C3037 1.379 . S
N3038 C3041 1.334 . S
N3038 Tb3047 2.617 . S
C3039 C3041 1.390 . S
C3039 C3042 1.339 . S
C3039 H3059 0.930 . S
C3040 C3037 1.416 . S
C3040 C3042 1.416 . S
C3040 C3046 1.448 . S
C3041 N3038 1.334 . S
C3041 C3039 1.390 . S
C3041 H3052 0.930 . S
C3042 C3039 1.339 . S
C3042 C3040 1.416 . S
C3042 H3063 0.930 . S
C3043 C3044 1.413 . S
C3043 C3045 1.427 . S
C3043 C3049 1.416 . S
C3044 C3037 1.424 . S
C3044 C3043 1.413 . S
C3044 N3048 1.361 . S
C3045 C3043 1.427 . S
C3045 C3046 1.328 . S
C3045 H3060 0.929 . S
C3046 C3040 1.448 . S
C3046 C3045 1.328 . S
C3046 H3061 0.930 . S
Tb3047 N3038 2.617 . S
Tb3047 N3048 2.572 . S
Tb3047 O3082 2.349 . S
Tb3047 O3085 2.393 . S
Tb3047 O3086 2.465 . S
Tb3047 O3087 2.387 . S
Tb3047 O3089 2.428 . S
Tb3047 O3090 2.308 . S
Tb3047 C3111 2.802 . S
N3048 C3044 1.361 . S
N3048 Tb3047 2.572 . S
N3048 C3050 1.340 . S
C3049 C3043 1.416 . S
C3049 C3051 1.332 . S
C3049 H3057 0.931 . S
C3050 N3048 1.340 . S
C3050 C3051 1.407 . S
C3050 H3056 0.930 . S
C3051 C3049 1.332 . S
C3051 C3050 1.407 . S
C3051 H3053 0.929 . S
H3052 C3041 0.930 . S
H3053 C3051 0.929 . S
H3054 C3069 0.930 . S
H3055 C3076 0.929 . S
H3056 C3050 0.930 . S
H3057 C3049 0.931 . S
H3058 C3072 0.930 . S
H3059 C3039 0.930 . S
H3060 C3045 0.929 . S
H3061 C3046 0.930 . S
H3062 C3067 0.930 . S
H3063 C3042 0.930 . S
H3064 C3075 0.931 . S
N3065 Tb3036 2.617 . S
N3065 C3066 1.379 . S
N3065 C3069 1.334 . S
C3066 N3065 1.379 . S
C3066 C3068 1.416 . S
C3066 C3074 1.424 . S
C3067 H3062 0.930 . S
C3067 C3069 1.390 . S
C3067 C3070 1.339 . S
C3068 C3066 1.416 . S
C3068 C3070 1.416 . S
C3068 C3101 1.448 . S
C3069 H3054 0.930 . S
C3069 N3065 1.334 . S
C3069 C3067 1.390 . S
C3070 C3067 1.339 . S
C3070 C3068 1.416 . S
C3070 H3077 0.930 . S
N3071 Tb3036 2.572 . S
N3071 C3072 1.340 . S
N3071 C3074 1.361 . S
C3072 H3058 0.930 . S
C3072 N3071 1.340 . S
C3072 C3076 1.407 . S
C3073 C3074 1.413 . S
C3073 C3075 1.416 . S
C3073 C3102 1.427 . S
C3074 C3066 1.424 . S
C3074 N3071 1.361 . S
C3074 C3073 1.413 . S
C3075 H3064 0.931 . S
C3075 C3073 1.416 . S
C3075 C3076 1.332 . S
C3076 H3055 0.929 . S
C3076 C3072 1.407 . S
C3076 C3075 1.332 . S
H3077 C3070 0.930 . S
H3078 C3101 0.930 . S
H3079 C3102 0.929 . S
O3080 Tb3036 2.465 . S
O3080 C3100 1.264 . S
O3081 Tb3036 2.387 . S
O3081 C3092 1.264 . S
O3082 Tb3047 2.349 . S
O3082 C3092 1.243 . S
O3083 Tb3036 2.428 . S
O3083 C3100 1.256 . S
O3084 Tb3036 2.308 . S
O3084 C3099 1.266 . S
O3085 Tb3047 2.393 . S
O3085 C3099 1.248 . S
O3086 Tb3047 2.465 . S
O3086 C3111 1.264 . S
O3087 Tb3047 2.387 . S
O3087 C3103 1.264 . S
O3088 Tb3036 2.349 . S
O3088 C3103 1.243 . S
O3089 Tb3047 2.428 . S
O3089 C3111 1.256 . S
O3090 Tb3047 2.308 . S
O3090 C3110 1.266 . S
O3091 Tb3036 2.393 . S
O3091 C3110 1.248 . S
C3092 O3081 1.264 . S
C3092 O3082 1.243 . S
C3093 C3096 1.399 . S
C3093 C3098 1.383 . S
C3093 C3100 1.496 . S
C3094 C3095 1.399 . S
C3094 C3098 1.389 . S
C3095 C3094 1.399 . S
C3095 C3097 1.380 . S
C3095 H3112 0.929 . S
C3096 C3093 1.399 . S
C3096 C3097 1.392 . S
C3096 H3113 0.929 . S
C3097 C3095 1.380 . S
C3097 C3096 1.392 . S
C3097 H3114 0.929 . S
C3098 C3093 1.383 . S
C3098 C3094 1.389 . S
C3098 H3115 0.931 . S
C3099 O3084 1.266 . S
C3099 O3085 1.248 . S
C3100 Tb3036 2.802 . S
C3100 O3080 1.264 . S
C3100 O3083 1.256 . S
C3100 C3093 1.496 . S
C3101 C3068 1.448 . S
C3101 H3078 0.930 . S
C3101 C3102 1.328 . S
C3102 C3073 1.427 . S
C3102 H3079 0.929 . S
C3102 C3101 1.328 . S
C3103 O3087 1.264 . S
C3103 O3088 1.243 . S
C3104 C3107 1.399 . S
C3104 C3108 1.383 . S
C3104 C3111 1.496 . S
C3105 C3106 1.399 . S
C3105 C3108 1.389 . S
C3106 C3105 1.399 . S
C3106 C3109 1.380 . S
C3106 H3116 0.929 . S
C3107 C3104 1.399 . S
C3107 C3109 1.392 . S
C3107 H3117 0.929 . S
C3108 C3104 1.383 . S
C3108 C3105 1.389 . S
C3108 H3118 0.931 . S
C3109 C3106 1.380 . S
C3109 C3107 1.392 . S
C3109 H3119 0.929 . S
C3110 O3090 1.266 . S
C3110 O3091 1.248 . S
C3111 Tb3047 2.802 . S
C3111 O3086 1.264 . S
C3111 O3089 1.256 . S
C3111 C3104 1.496 . S
H3112 C3095 0.929 . S
H3113 C3096 0.929 . S
H3114 C3097 0.929 . S
H3115 C3098 0.931 . S
H3116 C3106 0.929 . S
H3117 C3107 0.929 . S
H3118 C3108 0.931 . S
H3119 C3109 0.929 . S
Tb3120 N3149 2.617 . S
Tb3120 N3155 2.572 . S
Tb3120 O3164 2.465 . S
Tb3120 O3165 2.387 . S
Tb3120 O3167 2.428 . S
Tb3120 O3168 2.308 . S
Tb3120 O3172 2.349 . S
Tb3120 O3175 2.393 . S
Tb3120 C3184 2.802 . S
C3121 N3122 1.379 . S
C3121 C3124 1.416 . S
C3121 C3128 1.424 . S
N3122 C3121 1.379 . S
N3122 C3125 1.334 . S
N3122 Tb3131 2.617 . S
C3123 C3125 1.390 . S
C3123 C3126 1.339 . S
C3123 H3143 0.930 . S
C3124 C3121 1.416 . S
C3124 C3126 1.416 . S
C3124 C3130 1.448 . S
C3125 N3122 1.334 . S
C3125 C3123 1.390 . S
C3125 H3136 0.930 . S
C3126 C3123 1.339 . S
C3126 C3124 1.416 . S
C3126 H3147 0.930 . S
C3127 C3128 1.413 . S
C3127 C3129 1.427 . S
C3127 C3133 1.416 . S
C3128 C3121 1.424 . S
C3128 C3127 1.413 . S
C3128 N3132 1.361 . S
C3129 C3127 1.427 . S
C3129 C3130 1.328 . S
C3129 H3144 0.929 . S
C3130 C3124 1.448 . S
C3130 C3129 1.328 . S
C3130 H3145 0.930 . S
Tb3131 N3122 2.617 . S
Tb3131 N3132 2.572 . S
Tb3131 O3166 2.349 . S
Tb3131 O3169 2.393 . S
Tb3131 O3170 2.465 . S
Tb3131 O3171 2.387 . S
Tb3131 O3173 2.428 . S
Tb3131 O3174 2.308 . S
Tb3131 C3195 2.802 . S
N3132 C3128 1.361 . S
N3132 Tb3131 2.572 . S
N3132 C3134 1.340 . S
C3133 C3127 1.416 . S
C3133 C3135 1.332 . S
C3133 H3141 0.931 . S
C3134 N3132 1.340 . S
C3134 C3135 1.407 . S
C3134 H3140 0.930 . S
C3135 C3133 1.332 . S
C3135 C3134 1.407 . S
C3135 H3137 0.929 . S
H3136 C3125 0.930 . S
H3137 C3135 0.929 . S
H3138 C3153 0.930 . S
H3139 C3160 0.929 . S
H3140 C3134 0.930 . S
H3141 C3133 0.931 . S
H3142 C3156 0.930 . S
H3143 C3123 0.930 . S
H3144 C3129 0.929 . S
H3145 C3130 0.930 . S
H3146 C3151 0.930 . S
H3147 C3126 0.930 . S
H3148 C3159 0.931 . S
N3149 Tb3120 2.617 . S
N3149 C3150 1.379 . S
N3149 C3153 1.334 . S
C3150 N3149 1.379 . S
C3150 C3152 1.416 . S
C3150 C3158 1.424 . S
C3151 H3146 0.930 . S
C3151 C3153 1.390 . S
C3151 C3154 1.339 . S
C3152 C3150 1.416 . S
C3152 C3154 1.416 . S
C3152 C3185 1.448 . S
C3153 H3138 0.930 . S
C3153 N3149 1.334 . S
C3153 C3151 1.390 . S
C3154 C3151 1.339 . S
C3154 C3152 1.416 . S
C3154 H3161 0.930 . S
N3155 Tb3120 2.572 . S
N3155 C3156 1.340 . S
N3155 C3158 1.361 . S
C3156 H3142 0.930 . S
C3156 N3155 1.340 . S
C3156 C3160 1.407 . S
C3157 C3158 1.413 . S
C3157 C3159 1.416 . S
C3157 C3186 1.427 . S
C3158 C3150 1.424 . S
C3158 N3155 1.361 . S
C3158 C3157 1.413 . S
C3159 H3148 0.931 . S
C3159 C3157 1.416 . S
C3159 C3160 1.332 . S
C3160 H3139 0.929 . S
C3160 C3156 1.407 . S
C3160 C3159 1.332 . S
H3161 C3154 0.930 . S
H3162 C3185 0.930 . S
H3163 C3186 0.929 . S
O3164 Tb3120 2.465 . S
O3164 C3184 1.264 . S
O3165 Tb3120 2.387 . S
O3165 C3176 1.264 . S
O3166 Tb3131 2.349 . S
O3166 C3176 1.243 . S
O3167 Tb3120 2.428 . S
O3167 C3184 1.256 . S
O3168 Tb3120 2.308 . S
O3168 C3183 1.266 . S
O3169 Tb3131 2.393 . S
O3169 C3183 1.248 . S
O3170 Tb3131 2.465 . S
O3170 C3195 1.264 . S
O3171 Tb3131 2.387 . S
O3171 C3187 1.264 . S
O3172 Tb3120 2.349 . S
O3172 C3187 1.243 . S
O3173 Tb3131 2.428 . S
O3173 C3195 1.256 . S
O3174 Tb3131 2.308 . S
O3174 C3194 1.266 . S
O3175 Tb3120 2.393 . S
O3175 C3194 1.248 . S
C3176 O3165 1.264 . S
C3176 O3166 1.243 . S
C3177 C3180 1.399 . S
C3177 C3182 1.383 . S
C3177 C3184 1.496 . S
C3178 C3179 1.399 . S
C3178 C3182 1.389 . S
C3179 C3178 1.399 . S
C3179 C3181 1.380 . S
C3179 H3196 0.929 . S
C3180 C3177 1.399 . S
C3180 C3181 1.392 . S
C3180 H3197 0.929 . S
C3181 C3179 1.380 . S
C3181 C3180 1.392 . S
C3181 H3198 0.929 . S
C3182 C3177 1.383 . S
C3182 C3178 1.389 . S
C3182 H3199 0.931 . S
C3183 O3168 1.266 . S
C3183 O3169 1.248 . S
C3184 Tb3120 2.802 . S
C3184 O3164 1.264 . S
C3184 O3167 1.256 . S
C3184 C3177 1.496 . S
C3185 C3152 1.448 . S
C3185 H3162 0.930 . S
C3185 C3186 1.328 . S
C3186 C3157 1.427 . S
C3186 H3163 0.929 . S
C3186 C3185 1.328 . S
C3187 O3171 1.264 . S
C3187 O3172 1.243 . S
C3188 C3191 1.399 . S
C3188 C3192 1.383 . S
C3188 C3195 1.496 . S
C3189 C3190 1.399 . S
C3189 C3192 1.389 . S
C3190 C3189 1.399 . S
C3190 C3193 1.380 . S
C3190 H3200 0.929 . S
C3191 C3188 1.399 . S
C3191 C3193 1.392 . S
C3191 H3201 0.929 . S
C3192 C3188 1.383 . S
C3192 C3189 1.389 . S
C3192 H3202 0.931 . S
C3193 C3190 1.380 . S
C3193 C3191 1.392 . S
C3193 H3203 0.929 . S
C3194 O3174 1.266 . S
C3194 O3175 1.248 . S
C3195 Tb3131 2.802 . S
C3195 O3170 1.264 . S
C3195 O3173 1.256 . S
C3195 C3188 1.496 . S
H3196 C3179 0.929 . S
H3197 C3180 0.929 . S
H3198 C3181 0.929 . S
H3199 C3182 0.931 . S
H3200 C3190 0.929 . S
H3201 C3191 0.929 . S
H3202 C3192 0.931 . S
H3203 C3193 0.929 . S
Tb3204 N3233 2.617 . S
Tb3204 N3239 2.572 . S
Tb3204 O3248 2.465 . S
Tb3204 O3249 2.387 . S
Tb3204 O3251 2.428 . S
Tb3204 O3252 2.308 . S
Tb3204 O3256 2.349 . S
Tb3204 O3259 2.393 . S
Tb3204 C3268 2.802 . S
C3205 N3206 1.379 . S
C3205 C3208 1.416 . S
C3205 C3212 1.424 . S
N3206 C3205 1.379 . S
N3206 C3209 1.334 . S
N3206 Tb3215 2.617 . S
C3207 C3209 1.390 . S
C3207 C3210 1.339 . S
C3207 H3227 0.930 . S
C3208 C3205 1.416 . S
C3208 C3210 1.416 . S
C3208 C3214 1.448 . S
C3209 N3206 1.334 . S
C3209 C3207 1.390 . S
C3209 H3220 0.930 . S
C3210 C3207 1.339 . S
C3210 C3208 1.416 . S
C3210 H3231 0.930 . S
C3211 C3212 1.413 . S
C3211 C3213 1.427 . S
C3211 C3217 1.416 . S
C3212 C3205 1.424 . S
C3212 C3211 1.413 . S
C3212 N3216 1.361 . S
C3213 C3211 1.427 . S
C3213 C3214 1.328 . S
C3213 H3228 0.929 . S
C3214 C3208 1.448 . S
C3214 C3213 1.328 . S
C3214 H3229 0.930 . S
Tb3215 N3206 2.617 . S
Tb3215 N3216 2.572 . S
Tb3215 O3250 2.349 . S
Tb3215 O3253 2.393 . S
Tb3215 O3254 2.465 . S
Tb3215 O3255 2.387 . S
Tb3215 O3257 2.428 . S
Tb3215 O3258 2.308 . S
Tb3215 C3279 2.802 . S
N3216 C3212 1.361 . S
N3216 Tb3215 2.572 . S
N3216 C3218 1.340 . S
C3217 C3211 1.416 . S
C3217 C3219 1.332 . S
C3217 H3225 0.931 . S
C3218 N3216 1.340 . S
C3218 C3219 1.407 . S
C3218 H3224 0.930 . S
C3219 C3217 1.332 . S
C3219 C3218 1.407 . S
C3219 H3221 0.929 . S
H3220 C3209 0.930 . S
H3221 C3219 0.929 . S
H3222 C3237 0.930 . S
H3223 C3244 0.929 . S
H3224 C3218 0.930 . S
H3225 C3217 0.931 . S
H3226 C3240 0.930 . S
H3227 C3207 0.930 . S
H3228 C3213 0.929 . S
H3229 C3214 0.930 . S
H3230 C3235 0.930 . S
H3231 C3210 0.930 . S
H3232 C3243 0.931 . S
N3233 Tb3204 2.617 . S
N3233 C3234 1.379 . S
N3233 C3237 1.334 . S
C3234 N3233 1.379 . S
C3234 C3236 1.416 . S
C3234 C3242 1.424 . S
C3235 H3230 0.930 . S
C3235 C3237 1.390 . S
C3235 C3238 1.339 . S
C3236 C3234 1.416 . S
C3236 C3238 1.416 . S
C3236 C3269 1.448 . S
C3237 H3222 0.930 . S
C3237 N3233 1.334 . S
C3237 C3235 1.390 . S
C3238 C3235 1.339 . S
C3238 C3236 1.416 . S
C3238 H3245 0.930 . S
N3239 Tb3204 2.572 . S
N3239 C3240 1.340 . S
N3239 C3242 1.361 . S
C3240 H3226 0.930 . S
C3240 N3239 1.340 . S
C3240 C3244 1.407 . S
C3241 C3242 1.413 . S
C3241 C3243 1.416 . S
C3241 C3270 1.427 . S
C3242 C3234 1.424 . S
C3242 N3239 1.361 . S
C3242 C3241 1.413 . S
C3243 H3232 0.931 . S
C3243 C3241 1.416 . S
C3243 C3244 1.332 . S
C3244 H3223 0.929 . S
C3244 C3240 1.407 . S
C3244 C3243 1.332 . S
H3245 C3238 0.930 . S
H3246 C3269 0.930 . S
H3247 C3270 0.929 . S
O3248 Tb3204 2.465 . S
O3248 C3268 1.264 . S
O3249 Tb3204 2.387 . S
O3249 C3260 1.264 . S
O3250 Tb3215 2.349 . S
O3250 C3260 1.243 . S
O3251 Tb3204 2.428 . S
O3251 C3268 1.256 . S
O3252 Tb3204 2.308 . S
O3252 C3267 1.266 . S
O3253 Tb3215 2.393 . S
O3253 C3267 1.248 . S
O3254 Tb3215 2.465 . S
O3254 C3279 1.264 . S
O3255 Tb3215 2.387 . S
O3255 C3271 1.264 . S
O3256 Tb3204 2.349 . S
O3256 C3271 1.243 . S
O3257 Tb3215 2.428 . S
O3257 C3279 1.256 . S
O3258 Tb3215 2.308 . S
O3258 C3278 1.266 . S
O3259 Tb3204 2.393 . S
O3259 C3278 1.248 . S
C3260 O3249 1.264 . S
C3260 O3250 1.243 . S
C3261 C3264 1.399 . S
C3261 C3266 1.383 . S
C3261 C3268 1.496 . S
C3262 C3263 1.399 . S
C3262 C3266 1.389 . S
C3263 C3262 1.399 . S
C3263 C3265 1.380 . S
C3263 H3280 0.929 . S
C3264 C3261 1.399 . S
C3264 C3265 1.392 . S
C3264 H3281 0.929 . S
C3265 C3263 1.380 . S
C3265 C3264 1.392 . S
C3265 H3282 0.929 . S
C3266 C3261 1.383 . S
C3266 C3262 1.389 . S
C3266 H3283 0.931 . S
C3267 O3252 1.266 . S
C3267 O3253 1.248 . S
C3268 Tb3204 2.802 . S
C3268 O3248 1.264 . S
C3268 O3251 1.256 . S
C3268 C3261 1.496 . S
C3269 C3236 1.448 . S
C3269 H3246 0.930 . S
C3269 C3270 1.328 . S
C3270 C3241 1.427 . S
C3270 H3247 0.929 . S
C3270 C3269 1.328 . S
C3271 O3255 1.264 . S
C3271 O3256 1.243 . S
C3272 C3275 1.399 . S
C3272 C3276 1.383 . S
C3272 C3279 1.496 . S
C3273 C3274 1.399 . S
C3273 C3276 1.389 . S
C3274 C3273 1.399 . S
C3274 C3277 1.380 . S
C3274 H3284 0.929 . S
C3275 C3272 1.399 . S
C3275 C3277 1.392 . S
C3275 H3285 0.929 . S
C3276 C3272 1.383 . S
C3276 C3273 1.389 . S
C3276 H3286 0.931 . S
C3277 C3274 1.380 . S
C3277 C3275 1.392 . S
C3277 H3287 0.929 . S
C3278 O3258 1.266 . S
C3278 O3259 1.248 . S
C3279 Tb3215 2.802 . S
C3279 O3254 1.264 . S
C3279 O3257 1.256 . S
C3279 C3272 1.496 . S
H3280 C3263 0.929 . S
H3281 C3264 0.929 . S
H3282 C3265 0.929 . S
H3283 C3266 0.931 . S
H3284 C3274 0.929 . S
H3285 C3275 0.929 . S
H3286 C3276 0.931 . S
H3287 C3277 0.929 . S
Tb3288 N3317 2.617 . S
Tb3288 N3323 2.572 . S
Tb3288 O3332 2.465 . S
Tb3288 O3333 2.387 . S
Tb3288 O3335 2.428 . S
Tb3288 O3336 2.308 . S
Tb3288 O3340 2.349 . S
Tb3288 O3343 2.393 . S
Tb3288 C3352 2.802 . S
C3289 N3290 1.379 . S
C3289 C3292 1.416 . S
C3289 C3296 1.424 . S
N3290 C3289 1.379 . S
N3290 C3293 1.334 . S
N3290 Tb3299 2.617 . S
C3291 C3293 1.390 . S
C3291 C3294 1.339 . S
C3291 H3311 0.930 . S
C3292 C3289 1.416 . S
C3292 C3294 1.416 . S
C3292 C3298 1.448 . S
C3293 N3290 1.334 . S
C3293 C3291 1.390 . S
C3293 H3304 0.930 . S
C3294 C3291 1.339 . S
C3294 C3292 1.416 . S
C3294 H3315 0.930 . S
C3295 C3296 1.413 . S
C3295 C3297 1.427 . S
C3295 C3301 1.416 . S
C3296 C3289 1.424 . S
C3296 C3295 1.413 . S
C3296 N3300 1.361 . S
C3297 C3295 1.427 . S
C3297 C3298 1.328 . S
C3297 H3312 0.929 . S
C3298 C3292 1.448 . S
C3298 C3297 1.328 . S
C3298 H3313 0.930 . S
Tb3299 N3290 2.617 . S
Tb3299 N3300 2.572 . S
Tb3299 O3334 2.349 . S
Tb3299 O3337 2.393 . S
Tb3299 O3338 2.465 . S
Tb3299 O3339 2.387 . S
Tb3299 O3341 2.428 . S
Tb3299 O3342 2.308 . S
Tb3299 C3363 2.802 . S
N3300 C3296 1.361 . S
N3300 Tb3299 2.572 . S
N3300 C3302 1.340 . S
C3301 C3295 1.416 . S
C3301 C3303 1.332 . S
C3301 H3309 0.931 . S
C3302 N3300 1.340 . S
C3302 C3303 1.407 . S
C3302 H3308 0.930 . S
C3303 C3301 1.332 . S
C3303 C3302 1.407 . S
C3303 H3305 0.929 . S
H3304 C3293 0.930 . S
H3305 C3303 0.929 . S
H3306 C3321 0.930 . S
H3307 C3328 0.929 . S
H3308 C3302 0.930 . S
H3309 C3301 0.931 . S
H3310 C3324 0.930 . S
H3311 C3291 0.930 . S
H3312 C3297 0.929 . S
H3313 C3298 0.930 . S
H3314 C3319 0.930 . S
H3315 C3294 0.930 . S
H3316 C3327 0.931 . S
N3317 Tb3288 2.617 . S
N3317 C3318 1.379 . S
N3317 C3321 1.334 . S
C3318 N3317 1.379 . S
C3318 C3320 1.416 . S
C3318 C3326 1.424 . S
C3319 H3314 0.930 . S
C3319 C3321 1.390 . S
C3319 C3322 1.339 . S
C3320 C3318 1.416 . S
C3320 C3322 1.416 . S
C3320 C3353 1.448 . S
C3321 H3306 0.930 . S
C3321 N3317 1.334 . S
C3321 C3319 1.390 . S
C3322 C3319 1.339 . S
C3322 C3320 1.416 . S
C3322 H3329 0.930 . S
N3323 Tb3288 2.572 . S
N3323 C3324 1.340 . S
N3323 C3326 1.361 . S
C3324 H3310 0.930 . S
C3324 N3323 1.340 . S
C3324 C3328 1.407 . S
C3325 C3326 1.413 . S
C3325 C3327 1.416 . S
C3325 C3354 1.427 . S
C3326 C3318 1.424 . S
C3326 N3323 1.361 . S
C3326 C3325 1.413 . S
C3327 H3316 0.931 . S
C3327 C3325 1.416 . S
C3327 C3328 1.332 . S
C3328 H3307 0.929 . S
C3328 C3324 1.407 . S
C3328 C3327 1.332 . S
H3329 C3322 0.930 . S
H3330 C3353 0.930 . S
H3331 C3354 0.929 . S
O3332 Tb3288 2.465 . S
O3332 C3352 1.264 . S
O3333 Tb3288 2.387 . S
O3333 C3344 1.264 . S
O3334 Tb3299 2.349 . S
O3334 C3344 1.243 . S
O3335 Tb3288 2.428 . S
O3335 C3352 1.256 . S
O3336 Tb3288 2.308 . S
O3336 C3351 1.266 . S
O3337 Tb3299 2.393 . S
O3337 C3351 1.248 . S
O3338 Tb3299 2.465 . S
O3338 C3363 1.264 . S
O3339 Tb3299 2.387 . S
O3339 C3355 1.264 . S
O3340 Tb3288 2.349 . S
O3340 C3355 1.243 . S
O3341 Tb3299 2.428 . S
O3341 C3363 1.256 . S
O3342 Tb3299 2.308 . S
O3342 C3362 1.266 . S
O3343 Tb3288 2.393 . S
O3343 C3362 1.248 . S
C3344 O3333 1.264 . S
C3344 O3334 1.243 . S
C3345 C3348 1.399 . S
C3345 C3350 1.383 . S
C3345 C3352 1.496 . S
C3346 C3347 1.399 . S
C3346 C3350 1.389 . S
C3347 C3346 1.399 . S
C3347 C3349 1.380 . S
C3347 H3364 0.929 . S
C3348 C3345 1.399 . S
C3348 C3349 1.392 . S
C3348 H3365 0.929 . S
C3349 C3347 1.380 . S
C3349 C3348 1.392 . S
C3349 H3366 0.929 . S
C3350 C3345 1.383 . S
C3350 C3346 1.389 . S
C3350 H3367 0.931 . S
C3351 O3336 1.266 . S
C3351 O3337 1.248 . S
C3352 Tb3288 2.802 . S
C3352 O3332 1.264 . S
C3352 O3335 1.256 . S
C3352 C3345 1.496 . S
C3353 C3320 1.448 . S
C3353 H3330 0.930 . S
C3353 C3354 1.328 . S
C3354 C3325 1.427 . S
C3354 H3331 0.929 . S
C3354 C3353 1.328 . S
C3355 O3339 1.264 . S
C3355 O3340 1.243 . S
C3356 C3359 1.399 . S
C3356 C3360 1.383 . S
C3356 C3363 1.496 . S
C3357 C3358 1.399 . S
C3357 C3360 1.389 . S
C3358 C3357 1.399 . S
C3358 C3361 1.380 . S
C3358 H3368 0.929 . S
C3359 C3356 1.399 . S
C3359 C3361 1.392 . S
C3359 H3369 0.929 . S
C3360 C3356 1.383 . S
C3360 C3357 1.389 . S
C3360 H3370 0.931 . S
C3361 C3358 1.380 . S
C3361 C3359 1.392 . S
C3361 H3371 0.929 . S
C3362 O3342 1.266 . S
C3362 O3343 1.248 . S
C3363 Tb3299 2.802 . S
C3363 O3338 1.264 . S
C3363 O3341 1.256 . S
C3363 C3356 1.496 . S
H3364 C3347 0.929 . S
H3365 C3348 0.929 . S
H3366 C3349 0.929 . S
H3367 C3350 0.931 . S
H3368 C3358 0.929 . S
H3369 C3359 0.929 . S
H3370 C3360 0.931 . S
H3371 C3361 0.929 . S
Tb3372 N3401 2.621 . S
Tb3372 N3407 2.581 . S
Tb3372 O3416 2.477 . S
Tb3372 O3417 2.379 1_655 S
Tb3372 O3419 2.438 . S
Tb3372 O3420 2.305 1_655 S
Tb3372 O3424 2.345 1_655 S
Tb3372 O3427 2.383 1_655 S
Tb3372 C3436 2.815 . S
C3373 N3374 1.379 . S
C3373 C3376 1.416 . S
C3373 C3380 1.424 1_556 S
N3374 C3373 1.379 . S
N3374 C3377 1.334 . S
N3374 Tb3383 2.617 1_556 S
C3375 C3377 1.390 . S
C3375 C3378 1.339 . S
C3375 H3395 0.930 . S
C3376 C3373 1.416 . S
C3376 C3378 1.416 . S
C3376 C3382 1.448 . S
C3377 N3374 1.334 . S
C3377 C3375 1.390 . S
C3377 H3388 0.930 . S
C3378 C3375 1.339 . S
C3378 C3376 1.416 . S
C3378 H3399 0.930 . S
C3379 C3380 1.413 . S
C3379 C3381 1.427 . S
C3379 C3385 1.416 . S
C3380 C3373 1.424 1_554 S
C3380 C3379 1.413 . S
C3380 N3384 1.361 . S
C3381 C3379 1.427 . S
C3381 C3382 1.328 1_554 S
C3381 H3396 0.929 . S
C3382 C3376 1.448 . S
C3382 C3381 1.328 1_556 S
C3382 H3397 0.930 . S
Tb3383 N3374 2.617 1_554 S
Tb3383 N3384 2.572 . S
Tb3383 O3418 2.349 . S
Tb3383 O3421 2.393 1_554 S
Tb3383 O3422 2.465 . S
Tb3383 O3423 2.387 . S
Tb3383 O3425 2.428 1_554 S
Tb3383 O3426 2.308 . S
Tb3383 C3447 2.802 . S
N3384 C3380 1.361 . S
N3384 Tb3383 2.572 . S
N3384 C3386 1.340 . S
C3385 C3379 1.416 . S
C3385 C3387 1.332 . S
C3385 H3393 0.931 . S
C3386 N3384 1.340 . S
C3386 C3387 1.407 . S
C3386 H3392 0.930 . S
C3387 C3385 1.332 . S
C3387 C3386 1.407 . S
C3387 H3389 0.929 . S
H3388 C3377 0.930 . S
H3389 C3387 0.929 . S
H3390 C3405 0.930 1_455 S
H3391 C3412 0.929 . S
H3392 C3386 0.930 . S
H3393 C3385 0.931 . S
H3394 C3408 0.930 1_556 S
H3395 C3375 0.930 . S
H3396 C3381 0.929 . S
H3397 C3382 0.930 . S
H3398 C3403 0.930 . S
H3399 C3378 0.930 . S
H3400 C3411 0.931 . S
N3401 Tb3372 2.621 . S
N3401 C3402 1.379 . S
N3401 C3405 1.334 . S
C3402 N3401 1.379 . S
C3402 C3404 1.416 . S
C3402 C3410 1.424 . S
C3403 H3398 0.930 . S
C3403 C3405 1.390 . S
C3403 C3406 1.339 . S
C3404 C3402 1.416 . S
C3404 C3406 1.416 . S
C3404 C3437 1.448 . S
C3405 H3390 0.930 1_655 S
C3405 N3401 1.334 . S
C3405 C3403 1.390 . S
C3406 C3403 1.339 . S
C3406 C3404 1.416 . S
C3406 H3413 0.930 . S
N3407 Tb3372 2.581 . S
N3407 C3408 1.340 . S
N3407 C3410 1.361 . S
C3408 H3394 0.930 1_554 S
C3408 N3407 1.340 . S
C3408 C3412 1.407 1_554 S
C3409 C3410 1.413 . S
C3409 C3411 1.416 . S
C3409 C3438 1.427 . S
C3410 C3402 1.424 . S
C3410 N3407 1.361 . S
C3410 C3409 1.413 . S
C3411 H3400 0.931 . S
C3411 C3409 1.416 . S
C3411 C3412 1.332 1_554 S
C3412 H3391 0.929 . S
C3412 C3408 1.407 1_556 S
C3412 C3411 1.332 1_556 S
H3413 C3406 0.930 . S
H3414 C3437 0.930 . S
H3415 C3438 0.929 . S
O3416 Tb3372 2.477 . S
O3416 C3436 1.264 . S
O3417 Tb3372 2.379 1_455 S
O3417 C3428 1.264 . S
O3418 Tb3383 2.349 . S
O3418 C3428 1.243 . S
O3419 Tb3372 2.438 . S
O3419 C3436 1.256 . S
O3420 Tb3372 2.305 1_455 S
O3420 C3435 1.266 1_554 S
O3421 Tb3383 2.393 1_556 S
O3421 C3435 1.248 . S
O3422 Tb3383 2.465 . S
O3422 C3447 1.264 . S
O3423 Tb3383 2.387 . S
O3423 C3439 1.264 . S
O3424 Tb3372 2.345 1_455 S
O3424 C3439 1.243 . S
O3425 Tb3383 2.428 1_556 S
O3425 C3447 1.256 1_556 S
O3426 Tb3383 2.308 . S
O3426 C3446 1.266 . S
O3427 Tb3372 2.383 1_455 S
O3427 C3446 1.248 . S
C3428 O3417 1.264 . S
C3428 O3418 1.243 . S
C3429 C3432 1.399 . S
C3429 C3434 1.383 . S
C3429 C3436 1.496 . S
C3430 C3431 1.399 . S
C3430 C3434 1.389 . S
C3431 C3430 1.399 . S
C3431 C3433 1.380 . S
C3431 H3448 0.929 . S
C3432 C3429 1.399 . S
C3432 C3433 1.392 . S
C3432 H3449 0.929 . S
C3433 C3431 1.380 . S
C3433 C3432 1.392 . S
C3433 H3450 0.929 . S
C3434 C3429 1.383 . S
C3434 C3430 1.389 . S
C3434 H3451 0.931 . S
C3435 O3420 1.266 1_556 S
C3435 O3421 1.248 . S
C3436 Tb3372 2.815 . S
C3436 O3416 1.264 . S
C3436 O3419 1.256 . S
C3436 C3429 1.496 . S
C3437 C3404 1.448 . S
C3437 H3414 0.930 . S
C3437 C3438 1.328 . S
C3438 C3409 1.427 . S
C3438 H3415 0.929 . S
C3438 C3437 1.328 . S
C3439 O3423 1.264 . S
C3439 O3424 1.243 . S
C3440 C3443 1.399 . S
C3440 C3444 1.383 1_556 S
C3440 C3447 1.496 1_556 S
C3441 C3442 1.399 1_554 S
C3441 C3444 1.389 . S
C3442 C3441 1.399 1_556 S
C3442 C3445 1.380 . S
C3442 H3452 0.929 . S
C3443 C3440 1.399 . S
C3443 C3445 1.392 . S
C3443 H3453 0.929 . S
C3444 C3440 1.383 1_554 S
C3444 C3441 1.389 . S
C3444 H3454 0.931 . S
C3445 C3442 1.380 . S
C3445 C3443 1.392 . S
C3445 H3455 0.929 . S
C3446 O3426 1.266 . S
C3446 O3427 1.248 . S
C3447 Tb3383 2.802 . S
C3447 O3422 1.264 . S
C3447 O3425 1.256 1_554 S
C3447 C3440 1.496 1_554 S
H3448 C3431 0.929 . S
H3449 C3432 0.929 . S
H3450 C3433 0.929 . S
H3451 C3434 0.931 . S
H3452 C3442 0.929 . S
H3453 C3443 0.929 . S
H3454 C3444 0.931 . S
H3455 C3445 0.929 . S
H3456 C3464 0.950 . S
H3457 C3469 0.950 . S
H3458 C3466 0.950 . S
H3459 C3468 0.950 . S
H3460 C3470 0.950 . S
H3461 C3472 0.960 . S
H3462 C3474 0.950 . S
H3463 C3475 0.950 . S
C3464 H3456 0.950 . S
C3464 C3465 1.366 1_454 S
C3464 C3466 1.391 . S
C3465 C3464 1.366 1_656 S
C3465 C3469 1.397 . S
C3466 H3458 0.950 . S
C3466 C3464 1.391 . S
C3466 C3467 1.400 . S
C3467 C3466 1.400 . S
C3467 C3468 1.398 1_454 S
C3467 C3473 1.491 . S
C3468 H3459 0.950 . S
C3468 C3467 1.398 1_656 S
C3468 C3469 1.391 . S
C3469 H3457 0.950 . S
C3469 C3465 1.397 . S
C3469 C3468 1.391 . S
C3470 H3460 0.950 . S
C3470 C3471 1.386 1_556 S
C3470 C3472 1.391 . S
C3471 C3470 1.386 1_554 S
C3471 C3475 1.393 . S
C3472 H3461 0.960 . S
C3472 C3470 1.391 . S
C3472 C3473 1.400 1_556 S
C3473 C3467 1.491 . S
C3473 C3472 1.400 1_554 S
C3473 C3474 1.398 . S
C3474 H3462 0.950 . S
C3474 C3473 1.398 . S
C3474 C3475 1.391 . S
C3475 H3463 0.950 . S
C3475 C3471 1.393 . S
C3475 C3474 1.391 . S
H3476 C3484 0.950 . S
H3477 C3489 0.950 . S
H3478 C3486 0.950 . S
H3479 C3488 0.950 . S
H3480 C3490 0.950 . S
H3481 C3492 0.950 . S
H3482 C3494 0.950 . S
H3483 C3495 0.950 . S
C3484 H3476 0.950 . S
C3484 C3485 1.386 . S
C3484 C3486 1.391 . S
C3485 C3484 1.386 . S
C3485 C3489 1.393 . S
C3486 H3478 0.950 . S
C3486 C3484 1.391 . S
C3486 C3487 1.400 . S
C3487 C3486 1.400 . S
C3487 C3488 1.398 . S
C3487 C3493 1.491 . S
C3488 H3479 0.950 . S
C3488 C3487 1.398 . S
C3488 C3489 1.391 . S
C3489 H3477 0.950 . S
C3489 C3485 1.393 . S
C3489 C3488 1.391 . S
C3490 H3480 0.950 . S
C3490 C3491 1.386 . S
C3490 C3492 1.391 . S
C3491 C3490 1.386 . S
C3491 C3495 1.393 . S
C3492 H3481 0.950 . S
C3492 C3490 1.391 . S
C3492 C3493 1.400 . S
C3493 C3487 1.491 . S
C3493 C3492 1.400 . S
C3493 C3494 1.398 . S
C3494 H3482 0.950 . S
C3494 C3493 1.398 . S
C3494 C3495 1.391 . S
C3495 H3483 0.950 . S
C3495 C3491 1.393 . S
C3495 C3494 1.391 . S
H3496 C3504 0.950 . S
H3497 C3509 0.950 . S
H3498 C3506 0.950 . S
H3499 C3508 0.950 . S
H3500 C3510 0.950 . S
H3501 C3512 0.950 . S
H3502 C3514 0.950 . S
H3503 C3515 0.950 . S
C3504 H3496 0.950 . S
C3504 C3505 1.386 . S
C3504 C3506 1.391 . S
C3505 C3504 1.386 . S
C3505 C3509 1.393 . S
C3506 H3498 0.950 . S
C3506 C3504 1.391 . S
C3506 C3507 1.400 . S
C3507 C3506 1.400 . S
C3507 C3508 1.398 . S
C3507 C3513 1.491 . S
C3508 H3499 0.950 . S
C3508 C3507 1.398 . S
C3508 C3509 1.391 . S
C3509 H3497 0.950 . S
C3509 C3505 1.393 . S
C3509 C3508 1.391 . S
C3510 H3500 0.950 . S
C3510 C3511 1.386 . S
C3510 C3512 1.391 . S
C3511 C3510 1.386 . S
C3511 C3515 1.393 . S
C3512 H3501 0.950 . S
C3512 C3510 1.391 . S
C3512 C3513 1.400 . S
C3513 C3507 1.491 . S
C3513 C3512 1.400 . S
C3513 C3514 1.398 . S
C3514 H3502 0.950 . S
C3514 C3513 1.398 . S
C3514 C3515 1.391 . S
C3515 H3503 0.950 . S
C3515 C3511 1.393 . S
C3515 C3514 1.391 . S
H3516 C3524 0.950 . S
H3517 C3529 0.950 . S
H3518 C3526 0.950 . S
H3519 C3528 0.950 . S
H3520 C3530 0.950 . S
H3521 C3532 0.950 . S
H3522 C3534 0.950 . S
H3523 C3535 0.950 . S
C3524 H3516 0.950 . S
C3524 C3525 1.386 . S
C3524 C3526 1.391 . S
C3525 C3524 1.386 . S
C3525 C3529 1.393 . S
C3526 H3518 0.950 . S
C3526 C3524 1.391 . S
C3526 C3527 1.400 . S
C3527 C3526 1.400 . S
C3527 C3528 1.398 . S
C3527 C3533 1.491 . S
C3528 H3519 0.950 . S
C3528 C3527 1.398 . S
C3528 C3529 1.391 . S
C3529 H3517 0.950 . S
C3529 C3525 1.393 . S
C3529 C3528 1.391 . S
C3530 H3520 0.950 . S
C3530 C3531 1.386 . S
C3530 C3532 1.391 . S
C3531 C3530 1.386 . S
C3531 C3535 1.393 . S
C3532 H3521 0.950 . S
C3532 C3530 1.391 . S
C3532 C3533 1.400 . S
C3533 C3527 1.491 . S
C3533 C3532 1.400 . S
C3533 C3534 1.398 . S
C3534 H3522 0.950 . S
C3534 C3533 1.398 . S
C3534 C3535 1.391 . S
C3535 H3523 0.950 . S
C3535 C3531 1.393 . S
C3535 C3534 1.391 . S
H3536 C3544 0.950 . S
H3537 C3549 0.950 . S
H3538 C3546 0.950 . S
H3539 C3548 0.950 . S
H3540 C3550 0.950 . S
H3541 C3552 0.950 . S
H3542 C3554 0.950 . S
H3543 C3555 0.950 . S
C3544 H3536 0.950 . S
C3544 C3545 1.386 . S
C3544 C3546 1.391 . S
C3545 C3544 1.386 . S
C3545 C3549 1.393 . S
C3546 H3538 0.950 . S
C3546 C3544 1.391 . S
C3546 C3547 1.400 . S
C3547 C3546 1.400 . S
C3547 C3548 1.398 . S
C3547 C3553 1.491 . S
C3548 H3539 0.950 . S
C3548 C3547 1.398 . S
C3548 C3549 1.391 . S
C3549 H3537 0.950 . S
C3549 C3545 1.393 . S
C3549 C3548 1.391 . S
C3550 H3540 0.950 . S
C3550 C3551 1.386 . S
C3550 C3552 1.391 . S
C3551 C3550 1.386 . S
C3551 C3555 1.393 . S
C3552 H3541 0.950 . S
C3552 C3550 1.391 . S
C3552 C3553 1.400 . S
C3553 C3547 1.491 . S
C3553 C3552 1.400 . S
C3553 C3554 1.398 . S
C3554 H3542 0.950 . S
C3554 C3553 1.398 . S
C3554 C3555 1.391 . S
C3555 H3543 0.950 . S
C3555 C3551 1.393 . S
C3555 C3554 1.391 . S
H3556 C3564 0.950 . S
H3557 C3569 0.950 . S
H3558 C3566 0.950 . S
H3559 C3568 0.950 . S
H3560 C3570 0.950 . S
H3561 C3572 0.950 . S
H3562 C3574 0.950 . S
H3563 C3575 0.950 . S
C3564 H3556 0.950 . S
C3564 C3565 1.386 . S
C3564 C3566 1.391 . S
C3565 C3564 1.386 . S
C3565 C3569 1.393 . S
C3566 H3558 0.950 . S
C3566 C3564 1.391 . S
C3566 C3567 1.400 . S
C3567 C3566 1.400 . S
C3567 C3568 1.398 . S
C3567 C3573 1.491 . S
C3568 H3559 0.950 . S
C3568 C3567 1.398 . S
C3568 C3569 1.391 . S
C3569 H3557 0.950 . S
C3569 C3565 1.393 . S
C3569 C3568 1.391 . S
C3570 H3560 0.950 . S
C3570 C3571 1.386 . S
C3570 C3572 1.391 . S
C3571 C3570 1.386 . S
C3571 C3575 1.393 . S
C3572 H3561 0.950 . S
C3572 C3570 1.391 . S
C3572 C3573 1.400 . S
C3573 C3567 1.491 . S
C3573 C3572 1.400 . S
C3573 C3574 1.398 . S
C3574 H3562 0.950 . S
C3574 C3573 1.398 . S
C3574 C3575 1.391 . S
C3575 H3563 0.950 . S
C3575 C3571 1.393 . S
C3575 C3574 1.391 . S
H3576 C3584 0.950 . S
H3577 C3589 0.950 . S
H3578 C3586 0.950 . S
H3579 C3588 0.950 . S
H3580 C3590 0.950 . S
H3581 C3592 0.950 . S
H3582 C3594 0.950 . S
H3583 C3595 0.950 . S
C3584 H3576 0.950 . S
C3584 C3585 1.386 . S
C3584 C3586 1.391 . S
C3585 C3584 1.386 . S
C3585 C3589 1.393 . S
C3586 H3578 0.950 . S
C3586 C3584 1.391 . S
C3586 C3587 1.400 . S
C3587 C3586 1.400 . S
C3587 C3588 1.398 . S
C3587 C3593 1.491 . S
C3588 H3579 0.950 . S
C3588 C3587 1.398 . S
C3588 C3589 1.391 . S
C3589 H3577 0.950 . S
C3589 C3585 1.393 . S
C3589 C3588 1.391 . S
C3590 H3580 0.950 . S
C3590 C3591 1.386 . S
C3590 C3592 1.391 . S
C3591 C3590 1.386 . S
C3591 C3595 1.393 . S
C3592 H3581 0.950 . S
C3592 C3590 1.391 . S
C3592 C3593 1.400 . S
C3593 C3587 1.491 . S
C3593 C3592 1.400 . S
C3593 C3594 1.398 . S
C3594 H3582 0.950 . S
C3594 C3593 1.398 . S
C3594 C3595 1.391 . S
C3595 H3583 0.950 . S
C3595 C3591 1.393 . S
C3595 C3594 1.391 . S
H3596 C3604 0.950 . S
H3597 C3609 0.950 . S
H3598 C3606 0.950 . S
H3599 C3608 0.950 . S
H3600 C3610 0.950 . S
H3601 C3612 0.950 . S
H3602 C3614 0.950 . S
H3603 C3615 0.950 . S
C3604 H3596 0.950 . S
C3604 C3605 1.386 . S
C3604 C3606 1.391 . S
C3605 C3604 1.386 . S
C3605 C3609 1.393 . S
C3606 H3598 0.950 . S
C3606 C3604 1.391 . S
C3606 C3607 1.400 . S
C3607 C3606 1.400 . S
C3607 C3608 1.398 . S
C3607 C3613 1.491 . S
C3608 H3599 0.950 . S
C3608 C3607 1.398 . S
C3608 C3609 1.391 . S
C3609 H3597 0.950 . S
C3609 C3605 1.393 . S
C3609 C3608 1.391 . S
C3610 H3600 0.950 . S
C3610 C3611 1.386 . S
C3610 C3612 1.391 . S
C3611 C3610 1.386 . S
C3611 C3615 1.393 . S
C3612 H3601 0.950 . S
C3612 C3610 1.391 . S
C3612 C3613 1.400 . S
C3613 C3607 1.491 . S
C3613 C3612 1.400 . S
C3613 C3614 1.398 . S
C3614 H3602 0.950 . S
C3614 C3613 1.398 . S
C3614 C3615 1.391 . S
C3615 H3603 0.950 . S
C3615 C3611 1.393 . S
C3615 C3614 1.391 . S
H3616 C3624 0.950 1_565 S
H3617 C3629 0.950 . S
H3618 C3626 0.950 1_565 S
H3619 C3628 0.950 . S
H3620 C3630 0.950 . S
H3621 C3632 0.950 . S
H3622 C3634 0.950 1_565 S
H3623 C3635 0.958 . S
C3624 H3616 0.950 1_545 S
C3624 C3625 1.386 . S
C3624 C3626 1.391 . S
C3625 C3624 1.386 . S
C3625 C3629 1.393 . S
C3626 H3618 0.950 1_545 S
C3626 C3624 1.391 . S
C3626 C3627 1.400 . S
C3627 C3626 1.400 . S
C3627 C3628 1.398 . S
C3627 C3633 1.491 . S
C3628 H3619 0.950 . S
C3628 C3627 1.398 . S
C3628 C3629 1.391 . S
C3629 H3617 0.950 . S
C3629 C3625 1.393 . S
C3629 C3628 1.391 . S
C3630 H3620 0.950 . S
C3630 C3631 1.386 . S
C3630 C3632 1.391 1_455 S
C3631 C3630 1.386 . S
C3631 C3635 1.393 . S
C3632 H3621 0.950 . S
C3632 C3630 1.391 1_655 S
C3632 C3633 1.400 . S
C3633 C3627 1.491 . S
C3633 C3632 1.400 . S
C3633 C3634 1.398 . S
C3634 H3622 0.950 1_545 S
C3634 C3633 1.398 . S
C3634 C3635 1.391 1_655 S
C3635 H3623 0.958 . S
C3635 C3631 1.393 . S
C3635 C3634 1.391 1_455 S
H3636 C3644 0.950 . S
H3637 C3649 0.950 . S
H3638 C3646 0.950 . S
H3639 C3648 0.950 . S
H3640 C3650 0.950 . S
H3641 C3652 0.950 . S
H3642 C3654 0.950 . S
H3643 C3655 0.950 . S
C3644 H3636 0.950 . S
C3644 C3645 1.386 . S
C3644 C3646 1.391 . S
C3645 C3644 1.386 . S
C3645 C3649 1.393 . S
C3646 H3638 0.950 . S
C3646 C3644 1.391 . S
C3646 C3647 1.400 . S
C3647 C3646 1.400 . S
C3647 C3648 1.398 . S
C3647 C3653 1.491 . S
C3648 H3639 0.950 . S
C3648 C3647 1.398 . S
C3648 C3649 1.391 . S
C3649 H3637 0.950 . S
C3649 C3645 1.393 . S
C3649 C3648 1.391 . S
C3650 H3640 0.950 . S
C3650 C3651 1.386 . S
C3650 C3652 1.391 . S
C3651 C3650 1.386 . S
C3651 C3655 1.393 . S
C3652 H3641 0.950 . S
C3652 C3650 1.391 . S
C3652 C3653 1.400 . S
C3653 C3647 1.491 . S
C3653 C3652 1.400 . S
C3653 C3654 1.398 . S
C3654 H3642 0.950 . S
C3654 C3653 1.398 . S
C3654 C3655 1.391 . S
C3655 H3643 0.950 . S
C3655 C3651 1.393 . S
C3655 C3654 1.391 . S
H3656 C3664 0.950 . S
H3657 C3669 0.950 . S
H3658 C3666 0.938 1_565 S
H3659 C3668 0.950 . S
H3660 C3670 0.950 . S
H3661 C3672 0.950 . S
H3662 C3674 0.950 1_565 S
H3663 C3675 0.950 1_565 S
C3664 H3656 0.950 . S
C3664 C3665 1.386 . S
C3664 C3666 1.391 . S
C3665 C3664 1.386 . S
C3665 C3669 1.393 . S
C3666 H3658 0.938 1_545 S
C3666 C3664 1.391 . S
C3666 C3667 1.400 . S
C3667 C3666 1.400 . S
C3667 C3668 1.398 . S
C3667 C3673 1.491 . S
C3668 H3659 0.950 . S
C3668 C3667 1.398 . S
C3668 C3669 1.391 . S
C3669 H3657 0.950 . S
C3669 C3665 1.393 . S
C3669 C3668 1.391 . S
C3670 H3660 0.950 . S
C3670 C3671 1.386 . S
C3670 C3672 1.391 . S
C3671 C3670 1.386 . S
C3671 C3675 1.393 . S
C3672 H3661 0.950 . S
C3672 C3670 1.391 . S
C3672 C3673 1.400 . S
C3673 C3667 1.491 . S
C3673 C3672 1.400 . S
C3673 C3674 1.398 . S
C3674 H3662 0.950 1_545 S
C3674 C3673 1.398 . S
C3674 C3675 1.391 . S
C3675 H3663 0.950 1_545 S
C3675 C3671 1.393 . S
C3675 C3674 1.391 . S
H3676 C3684 0.950 . S
H3677 C3689 0.950 . S
H3678 C3686 0.950 . S
H3679 C3688 0.950 . S
H3680 C3690 0.950 . S
H3681 C3692 0.950 . S
H3682 C3694 0.950 . S
H3683 C3695 0.950 . S
C3684 H3676 0.950 . S
C3684 C3685 1.386 . S
C3684 C3686 1.391 . S
C3685 C3684 1.386 . S
C3685 C3689 1.393 . S
C3686 H3678 0.950 . S
C3686 C3684 1.391 . S
C3686 C3687 1.400 . S
C3687 C3686 1.400 . S
C3687 C3688 1.398 . S
C3687 C3693 1.491 . S
C3688 H3679 0.950 . S
C3688 C3687 1.398 . S
C3688 C3689 1.391 . S
C3689 H3677 0.950 . S
C3689 C3685 1.393 . S
C3689 C3688 1.391 . S
C3690 H3680 0.950 . S
C3690 C3691 1.386 . S
C3690 C3692 1.391 . S
C3691 C3690 1.386 . S
C3691 C3695 1.393 . S
C3692 H3681 0.950 . S
C3692 C3690 1.391 . S
C3692 C3693 1.400 . S
C3693 C3687 1.491 . S
C3693 C3692 1.400 . S
C3693 C3694 1.398 . S
C3694 H3682 0.950 . S
C3694 C3693 1.398 . S
C3694 C3695 1.391 . S
C3695 H3683 0.950 . S
C3695 C3691 1.393 . S
C3695 C3694 1.391 . S
H3696 C3704 0.971 . S
H3697 C3709 0.950 . S
H3698 C3706 0.950 . S
H3699 C3708 0.950 . S
H3700 C3710 0.950 . S
H3701 C3712 0.950 . S
H3702 C3714 0.950 . S
H3703 C3715 0.950 . S
C3704 H3696 0.971 . S
C3704 C3705 1.359 1_455 S
C3704 C3706 1.397 . S
C3705 C3704 1.359 1_655 S
C3705 C3709 1.393 . S
C3706 H3698 0.950 . S
C3706 C3704 1.397 . S
C3706 C3707 1.400 1_455 S
C3707 C3706 1.400 1_655 S
C3707 C3708 1.398 . S
C3707 C3713 1.491 . S
C3708 H3699 0.950 . S
C3708 C3707 1.398 . S
C3708 C3709 1.391 . S
C3709 H3697 0.950 . S
C3709 C3705 1.393 . S
C3709 C3708 1.391 . S
C3710 H3700 0.950 . S
C3710 C3711 1.386 1_655 S
C3710 C3712 1.391 . S
C3711 C3710 1.386 1_455 S
C3711 C3715 1.393 . S
C3712 H3701 0.950 . S
C3712 C3710 1.391 . S
C3712 C3713 1.400 . S
C3713 C3707 1.491 . S
C3713 C3712 1.400 . S
C3713 C3714 1.398 1_655 S
C3714 H3702 0.950 . S
C3714 C3713 1.398 1_455 S
C3714 C3715 1.391 . S
C3715 H3703 0.950 . S
C3715 C3711 1.393 . S
C3715 C3714 1.391 . S
H3716 C3724 0.950 . S
H3717 C3729 0.950 . S
H3718 C3726 0.950 . S
H3719 C3728 0.950 . S
H3720 C3730 0.950 . S
H3721 C3732 0.950 . S
H3722 C3734 0.950 . S
H3723 C3735 0.950 . S
C3724 H3716 0.950 . S
C3724 C3725 1.386 . S
C3724 C3726 1.391 . S
C3725 C3724 1.386 . S
C3725 C3729 1.393 . S
C3726 H3718 0.950 . S
C3726 C3724 1.391 . S
C3726 C3727 1.400 . S
C3727 C3726 1.400 . S
C3727 C3728 1.398 . S
C3727 C3733 1.491 . S
C3728 H3719 0.950 . S
C3728 C3727 1.398 . S
C3728 C3729 1.391 . S
C3729 H3717 0.950 . S
C3729 C3725 1.393 . S
C3729 C3728 1.391 . S
C3730 H3720 0.950 . S
C3730 C3731 1.386 . S
C3730 C3732 1.391 . S
C3731 C3730 1.386 . S
C3731 C3735 1.393 . S
C3732 H3721 0.950 . S
C3732 C3730 1.391 . S
C3732 C3733 1.400 . S
C3733 C3727 1.491 . S
C3733 C3732 1.400 . S
C3733 C3734 1.398 . S
C3734 H3722 0.950 . S
C3734 C3733 1.398 . S
C3734 C3735 1.391 . S
C3735 H3723 0.950 . S
C3735 C3731 1.393 . S
C3735 C3734 1.391 . S
H3736 C3744 0.950 . S
H3737 C3749 0.950 . S
H3738 C3746 0.950 . S
H3739 C3748 0.950 . S
H3740 C3750 0.950 . S
H3741 C3752 0.950 . S
H3742 C3754 0.950 . S
H3743 C3755 0.950 . S
C3744 H3736 0.950 . S
C3744 C3745 1.386 . S
C3744 C3746 1.391 . S
C3745 C3744 1.386 . S
C3745 C3749 1.393 . S
C3746 H3738 0.950 . S
C3746 C3744 1.391 . S
C3746 C3747 1.400 . S
C3747 C3746 1.400 . S
C3747 C3748 1.398 . S
C3747 C3753 1.491 . S
C3748 H3739 0.950 . S
C3748 C3747 1.398 . S
C3748 C3749 1.391 . S
C3749 H3737 0.950 . S
C3749 C3745 1.393 . S
C3749 C3748 1.391 . S
C3750 H3740 0.950 . S
C3750 C3751 1.386 . S
C3750 C3752 1.391 . S
C3751 C3750 1.386 . S
C3751 C3755 1.393 . S
C3752 H3741 0.950 . S
C3752 C3750 1.391 . S
C3752 C3753 1.400 . S
C3753 C3747 1.491 . S
C3753 C3752 1.400 . S
C3753 C3754 1.398 . S
C3754 H3742 0.950 . S
C3754 C3753 1.398 . S
C3754 C3755 1.391 . S
C3755 H3743 0.950 . S
C3755 C3751 1.393 . S
C3755 C3754 1.391 . S
H3756 C3764 0.950 . S
H3757 C3769 0.950 . S
H3758 C3766 0.950 . S
H3759 C3768 0.950 . S
H3760 C3770 0.950 . S
H3761 C3772 0.950 . S
H3762 C3774 0.950 . S
H3763 C3775 0.950 . S
C3764 H3756 0.950 . S
C3764 C3765 1.386 . S
C3764 C3766 1.391 . S
C3765 C3764 1.386 . S
C3765 C3769 1.393 . S
C3766 H3758 0.950 . S
C3766 C3764 1.391 . S
C3766 C3767 1.400 . S
C3767 C3766 1.400 . S
C3767 C3768 1.398 . S
C3767 C3773 1.491 . S
C3768 H3759 0.950 . S
C3768 C3767 1.398 . S
C3768 C3769 1.391 . S
C3769 H3757 0.950 . S
C3769 C3765 1.393 . S
C3769 C3768 1.391 . S
C3770 H3760 0.950 . S
C3770 C3771 1.386 . S
C3770 C3772 1.391 . S
C3771 C3770 1.386 . S
C3771 C3775 1.393 . S
C3772 H3761 0.950 . S
C3772 C3770 1.391 . S
C3772 C3773 1.400 . S
C3773 C3767 1.491 . S
C3773 C3772 1.400 . S
C3773 C3774 1.398 . S
C3774 H3762 0.950 . S
C3774 C3773 1.398 . S
C3774 C3775 1.391 . S
C3775 H3763 0.950 . S
C3775 C3771 1.393 . S
C3775 C3774 1.391 . S
H3776 C3784 0.964 . S
H3777 C3789 0.950 . S
H3778 C3786 0.950 . S
H3779 C3788 0.950 1_545 S
H3780 C3790 0.950 . S
H3781 C3792 0.950 . S
H3782 C3794 0.950 . S
H3783 C3795 0.950 . S
C3784 H3776 0.964 . S
C3784 C3785 1.397 1_556 S
C3784 C3786 1.375 1_556 S
C3785 C3784 1.397 1_554 S
C3785 C3789 1.403 . S
C3786 H3778 0.950 . S
C3786 C3784 1.375 1_554 S
C3786 C3787 1.400 . S
C3787 C3786 1.400 . S
C3787 C3788 1.398 . S
C3787 C3793 1.491 . S
C3788 H3779 0.950 1_565 S
C3788 C3787 1.398 . S
C3788 C3789 1.391 . S
C3789 H3777 0.950 . S
C3789 C3785 1.403 . S
C3789 C3788 1.391 . S
C3790 H3780 0.950 . S
C3790 C3791 1.386 1_545 S
C3790 C3792 1.391 . S
C3791 C3790 1.386 1_565 S
C3791 C3795 1.393 . S
C3792 H3781 0.950 . S
C3792 C3790 1.391 . S
C3792 C3793 1.400 1_545 S
C3793 C3787 1.491 . S
C3793 C3792 1.400 1_565 S
C3793 C3794 1.398 . S
C3794 H3782 0.950 . S
C3794 C3793 1.398 . S
C3794 C3795 1.391 . S
C3795 H3783 0.950 . S
C3795 C3791 1.393 . S
C3795 C3794 1.391 . S
H3796 C3804 0.950 . S
H3797 C3809 0.950 . S
H3798 C3806 0.950 . S
H3799 C3808 0.950 . S
H3800 C3810 0.950 . S
H3801 C3812 0.950 . S
H3802 C3814 0.950 1_556 S
H3803 C3815 0.947 1_556 S
C3804 H3796 0.950 . S
C3804 C3805 1.386 1_556 S
C3804 C3806 1.391 . S
C3805 C3804 1.386 1_554 S
C3805 C3809 1.393 . S
C3806 H3798 0.950 . S
C3806 C3804 1.391 . S
C3806 C3807 1.400 1_556 S
C3807 C3806 1.400 1_554 S
C3807 C3808 1.398 . S
C3807 C3813 1.491 . S
C3808 H3799 0.950 . S
C3808 C3807 1.398 . S
C3808 C3809 1.391 . S
C3809 H3797 0.950 . S
C3809 C3805 1.393 . S
C3809 C3808 1.391 . S
C3810 H3800 0.950 . S
C3810 C3811 1.386 . S
C3810 C3812 1.391 . S
C3811 C3810 1.386 . S
C3811 C3815 1.393 . S
C3812 H3801 0.950 . S
C3812 C3810 1.391 . S
C3812 C3813 1.400 . S
C3813 C3807 1.491 . S
C3813 C3812 1.400 . S
C3813 C3814 1.398 . S
C3814 H3802 0.950 1_554 S
C3814 C3813 1.398 . S
C3814 C3815 1.391 . S
C3815 H3803 0.947 1_554 S
C3815 C3811 1.393 . S
C3815 C3814 1.391 . S
H3816 C3824 0.950 . S
H3817 C3829 0.950 . S
H3818 C3826 0.950 . S
H3819 C3828 0.950 . S
H3820 C3830 0.950 . S
H3821 C3832 0.950 . S
H3822 C3834 0.950 . S
H3823 C3835 0.950 . S
C3824 H3816 0.950 . S
C3824 C3825 1.386 . S
C3824 C3826 1.391 . S
C3825 C3824 1.386 . S
C3825 C3829 1.393 . S
C3826 H3818 0.950 . S
C3826 C3824 1.391 . S
C3826 C3827 1.400 . S
C3827 C3826 1.400 . S
C3827 C3828 1.398 . S
C3827 C3833 1.491 . S
C3828 H3819 0.950 . S
C3828 C3827 1.398 . S
C3828 C3829 1.391 . S
C3829 H3817 0.950 . S
C3829 C3825 1.393 . S
C3829 C3828 1.391 . S
C3830 H3820 0.950 . S
C3830 C3831 1.386 . S
C3830 C3832 1.391 . S
C3831 C3830 1.386 . S
C3831 C3835 1.393 . S
C3832 H3821 0.950 . S
C3832 C3830 1.391 . S
C3832 C3833 1.400 . S
C3833 C3827 1.491 . S
C3833 C3832 1.400 . S
C3833 C3834 1.398 . S
C3834 H3822 0.950 . S
C3834 C3833 1.398 . S
C3834 C3835 1.391 . S
C3835 H3823 0.950 . S
C3835 C3831 1.393 . S
C3835 C3834 1.391 . S
H3836 C3844 0.950 . S
H3837 C3849 0.950 . S
H3838 C3846 0.950 . S
H3839 C3848 0.950 . S
H3840 C3850 0.950 . S
H3841 C3852 0.950 . S
H3842 C3854 0.950 . S
H3843 C3855 0.950 . S
C3844 H3836 0.950 . S
C3844 C3845 1.386 . S
C3844 C3846 1.391 . S
C3845 C3844 1.386 . S
C3845 C3849 1.393 . S
C3846 H3838 0.950 . S
C3846 C3844 1.391 . S
C3846 C3847 1.400 . S
C3847 C3846 1.400 . S
C3847 C3848 1.398 . S
C3847 C3853 1.491 . S
C3848 H3839 0.950 . S
C3848 C3847 1.398 . S
C3848 C3849 1.391 . S
C3849 H3837 0.950 . S
C3849 C3845 1.393 . S
C3849 C3848 1.391 . S
C3850 H3840 0.950 . S
C3850 C3851 1.386 . S
C3850 C3852 1.391 . S
C3851 C3850 1.386 . S
C3851 C3855 1.393 . S
C3852 H3841 0.950 . S
C3852 C3850 1.391 . S
C3852 C3853 1.400 . S
C3853 C3847 1.491 . S
C3853 C3852 1.400 . S
C3853 C3854 1.398 . S
C3854 H3842 0.950 . S
C3854 C3853 1.398 . S
C3854 C3855 1.391 . S
C3855 H3843 0.950 . S
C3855 C3851 1.393 . S
C3855 C3854 1.391 . S
H3856 C3864 0.950 . S
H3857 C3869 0.950 . S
H3858 C3866 0.950 . S
H3859 C3868 0.950 . S
H3860 C3870 0.950 . S
H3861 C3872 0.950 . S
H3862 C3874 0.950 . S
H3863 C3875 0.950 . S
C3864 H3856 0.950 . S
C3864 C3865 1.386 . S
C3864 C3866 1.391 . S
C3865 C3864 1.386 . S
C3865 C3869 1.393 . S
C3866 H3858 0.950 . S
C3866 C3864 1.391 . S
C3866 C3867 1.400 . S
C3867 C3866 1.400 . S
C3867 C3868 1.398 . S
C3867 C3873 1.491 . S
C3868 H3859 0.950 . S
C3868 C3867 1.398 . S
C3868 C3869 1.391 . S
C3869 H3857 0.950 . S
C3869 C3865 1.393 . S
C3869 C3868 1.391 . S
C3870 H3860 0.950 . S
C3870 C3871 1.386 . S
C3870 C3872 1.391 . S
C3871 C3870 1.386 . S
C3871 C3875 1.393 . S
C3872 H3861 0.950 . S
C3872 C3870 1.391 . S
C3872 C3873 1.400 . S
C3873 C3867 1.491 . S
C3873 C3872 1.400 . S
C3873 C3874 1.398 . S
C3874 H3862 0.950 . S
C3874 C3873 1.398 . S
C3874 C3875 1.391 . S
C3875 H3863 0.950 . S
C3875 C3871 1.393 . S
C3875 C3874 1.391 . S
H3876 C3884 0.950 . S
H3877 C3889 0.950 . S
H3878 C3886 0.950 . S
H3879 C3888 0.950 . S
H3880 C3890 0.950 . S
H3881 C3892 0.950 . S
H3882 C3894 0.950 . S
H3883 C3895 0.950 . S
C3884 H3876 0.950 . S
C3884 C3885 1.386 . S
C3884 C3886 1.391 . S
C3885 C3884 1.386 . S
C3885 C3889 1.393 . S
C3886 H3878 0.950 . S
C3886 C3884 1.391 . S
C3886 C3887 1.400 . S
C3887 C3886 1.400 . S
C3887 C3888 1.398 . S
C3887 C3893 1.491 . S
C3888 H3879 0.950 . S
C3888 C3887 1.398 . S
C3888 C3889 1.391 . S
C3889 H3877 0.950 . S
C3889 C3885 1.393 . S
C3889 C3888 1.391 . S
C3890 H3880 0.950 . S
C3890 C3891 1.386 . S
C3890 C3892 1.391 . S
C3891 C3890 1.386 . S
C3891 C3895 1.393 . S
C3892 H3881 0.950 . S
C3892 C3890 1.391 . S
C3892 C3893 1.400 . S
C3893 C3887 1.491 . S
C3893 C3892 1.400 . S
C3893 C3894 1.398 . S
C3894 H3882 0.950 . S
C3894 C3893 1.398 . S
C3894 C3895 1.391 . S
C3895 H3883 0.950 . S
C3895 C3891 1.393 . S
C3895 C3894 1.391 . S
H3896 C3904 0.950 . S
H3897 C3909 0.950 . S
H3898 C3906 0.950 . S
H3899 C3908 0.950 . S
H3900 C3910 0.950 . S
H3901 C3912 0.950 . S
H3902 C3914 0.950 . S
H3903 C3915 0.950 . S
C3904 H3896 0.950 . S
C3904 C3905 1.386 . S
C3904 C3906 1.391 . S
C3905 C3904 1.386 . S
C3905 C3909 1.393 . S
C3906 H3898 0.950 . S
C3906 C3904 1.391 . S
C3906 C3907 1.400 . S
C3907 C3906 1.400 . S
C3907 C3908 1.398 . S
C3907 C3913 1.491 . S
C3908 H3899 0.950 . S
C3908 C3907 1.398 . S
C3908 C3909 1.391 . S
C3909 H3897 0.950 . S
C3909 C3905 1.393 . S
C3909 C3908 1.391 . S
C3910 H3900 0.950 . S
C3910 C3911 1.386 . S
C3910 C3912 1.391 . S
C3911 C3910 1.386 . S
C3911 C3915 1.393 . S
C3912 H3901 0.950 . S
C3912 C3910 1.391 . S
C3912 C3913 1.400 . S
C3913 C3907 1.491 . S
C3913 C3912 1.400 . S
C3913 C3914 1.398 . S
C3914 H3902 0.950 . S
C3914 C3913 1.398 . S
C3914 C3915 1.391 . S
C3915 H3903 0.950 . S
C3915 C3911 1.393 . S
C3915 C3914 1.391 . S
H3916 C3924 0.950 . S
H3917 C3929 0.950 . S
H3918 C3926 0.950 . S
H3919 C3928 0.950 . S
H3920 C3930 0.950 . S
H3921 C3932 0.950 . S
H3922 C3934 0.950 . S
H3923 C3935 0.950 . S
C3924 H3916 0.950 . S
C3924 C3925 1.386 . S
C3924 C3926 1.391 . S
C3925 C3924 1.386 . S
C3925 C3929 1.393 . S
C3926 H3918 0.950 . S
C3926 C3924 1.391 . S
C3926 C3927 1.400 . S
C3927 C3926 1.400 . S
C3927 C3928 1.398 . S
C3927 C3933 1.491 . S
C3928 H3919 0.950 . S
C3928 C3927 1.398 . S
C3928 C3929 1.391 . S
C3929 H3917 0.950 . S
C3929 C3925 1.393 . S
C3929 C3928 1.391 . S
C3930 H3920 0.950 . S
C3930 C3931 1.386 . S
C3930 C3932 1.391 . S
C3931 C3930 1.386 . S
C3931 C3935 1.393 . S
C3932 H3921 0.950 . S
C3932 C3930 1.391 . S
C3932 C3933 1.400 . S
C3933 C3927 1.491 . S
C3933 C3932 1.400 . S
C3933 C3934 1.398 . S
C3934 H3922 0.950 . S
C3934 C3933 1.398 . S
C3934 C3935 1.391 . S
C3935 H3923 0.950 . S
C3935 C3931 1.393 . S
C3935 C3934 1.391 . S
H3936 C3944 0.950 . S
H3937 C3949 0.950 . S
H3938 C3946 0.950 . S
H3939 C3948 0.950 . S
H3940 C3950 0.950 . S
H3941 C3952 0.950 . S
H3942 C3954 0.950 . S
H3943 C3955 0.950 . S
C3944 H3936 0.950 . S
C3944 C3945 1.386 . S
C3944 C3946 1.391 . S
C3945 C3944 1.386 . S
C3945 C3949 1.393 . S
C3946 H3938 0.950 . S
C3946 C3944 1.391 . S
C3946 C3947 1.400 . S
C3947 C3946 1.400 . S
C3947 C3948 1.398 . S
C3947 C3953 1.491 . S
C3948 H3939 0.950 . S
C3948 C3947 1.398 . S
C3948 C3949 1.391 . S
C3949 H3937 0.950 . S
C3949 C3945 1.393 . S
C3949 C3948 1.391 . S
C3950 H3940 0.950 . S
C3950 C3951 1.386 . S
C3950 C3952 1.391 . S
C3951 C3950 1.386 . S
C3951 C3955 1.393 . S
C3952 H3941 0.950 . S
C3952 C3950 1.391 . S
C3952 C3953 1.400 . S
C3953 C3947 1.491 . S
C3953 C3952 1.400 . S
C3953 C3954 1.398 . S
C3954 H3942 0.950 . S
C3954 C3953 1.398 . S
C3954 C3955 1.391 . S
C3955 H3943 0.950 . S
C3955 C3951 1.393 . S
C3955 C3954 1.391 . S
H3956 C3964 0.950 . S
H3957 C3969 0.950 . S
H3958 C3966 0.950 . S
H3959 C3968 0.950 . S
H3960 C3970 0.950 . S
H3961 C3972 0.950 . S
H3962 C3974 0.950 . S
H3963 C3975 0.950 . S
C3964 H3956 0.950 . S
C3964 C3965 1.386 . S
C3964 C3966 1.391 . S
C3965 C3964 1.386 . S
C3965 C3969 1.393 . S
C3966 H3958 0.950 . S
C3966 C3964 1.391 . S
C3966 C3967 1.400 . S
C3967 C3966 1.400 . S
C3967 C3968 1.398 . S
C3967 C3973 1.491 . S
C3968 H3959 0.950 . S
C3968 C3967 1.398 . S
C3968 C3969 1.391 . S
C3969 H3957 0.950 . S
C3969 C3965 1.393 . S
C3969 C3968 1.391 . S
C3970 H3960 0.950 . S
C3970 C3971 1.386 . S
C3970 C3972 1.391 . S
C3971 C3970 1.386 . S
C3971 C3975 1.393 . S
C3972 H3961 0.950 . S
C3972 C3970 1.391 . S
C3972 C3973 1.400 . S
C3973 C3967 1.491 . S
C3973 C3972 1.400 . S
C3973 C3974 1.398 . S
C3974 H3962 0.950 . S
C3974 C3973 1.398 . S
C3974 C3975 1.391 . S
C3975 H3963 0.950 . S
C3975 C3971 1.393 . S
C3975 C3974 1.391 . S
H3976 C3984 0.950 . S
H3977 C3989 0.950 . S
H3978 C3986 0.950 . S
H3979 C3988 0.950 . S
H3980 C3990 0.950 . S
H3981 C3992 0.950 . S
H3982 C3994 0.950 . S
H3983 C3995 0.950 . S
C3984 H3976 0.950 . S
C3984 C3985 1.386 . S
C3984 C3986 1.391 . S
C3985 C3984 1.386 . S
C3985 C3989 1.393 . S
C3986 H3978 0.950 . S
C3986 C3984 1.391 . S
C3986 C3987 1.400 . S
C3987 C3986 1.400 . S
C3987 C3988 1.398 . S
C3987 C3993 1.491 . S
C3988 H3979 0.950 . S
C3988 C3987 1.398 . S
C3988 C3989 1.391 . S
C3989 H3977 0.950 . S
C3989 C3985 1.393 . S
C3989 C3988 1.391 . S
C3990 H3980 0.950 . S
C3990 C3991 1.386 . S
C3990 C3992 1.391 . S
C3991 C3990 1.386 . S
C3991 C3995 1.393 . S
C3992 H3981 0.950 . S
C3992 C3990 1.391 . S
C3992 C3993 1.400 . S
C3993 C3987 1.491 . S
C3993 C3992 1.400 . S
C3993 C3994 1.398 . S
C3994 H3982 0.950 . S
C3994 C3993 1.398 . S
C3994 C3995 1.391 . S
C3995 H3983 0.950 . S
C3995 C3991 1.393 . S
C3995 C3994 1.391 . S
H3996 C4004 0.950 . S
H3997 C4009 0.950 . S
H3998 C4006 0.950 . S
H3999 C4008 0.950 . S
H4000 C4010 0.950 . S
H4001 C4012 0.950 . S
H4002 C4014 0.950 . S
H4003 C4015 0.950 . S
C4004 H3996 0.950 . S
C4004 C4005 1.386 . S
C4004 C4006 1.391 . S
C4005 C4004 1.386 . S
C4005 C4009 1.393 . S
C4006 H3998 0.950 . S
C4006 C4004 1.391 . S
C4006 C4007 1.400 . S
C4007 C4006 1.400 . S
C4007 C4008 1.398 . S
C4007 C4013 1.491 . S
C4008 H3999 0.950 . S
C4008 C4007 1.398 . S
C4008 C4009 1.391 . S
C4009 H3997 0.950 . S
C4009 C4005 1.393 . S
C4009 C4008 1.391 . S
C4010 H4000 0.950 . S
C4010 C4011 1.386 . S
C4010 C4012 1.391 . S
C4011 C4010 1.386 . S
C4011 C4015 1.393 . S
C4012 H4001 0.950 . S
C4012 C4010 1.391 . S
C4012 C4013 1.400 . S
C4013 C4007 1.491 . S
C4013 C4012 1.400 . S
C4013 C4014 1.398 . S
C4014 H4002 0.950 . S
C4014 C4013 1.398 . S
C4014 C4015 1.391 . S
C4015 H4003 0.950 . S
C4015 C4011 1.393 . S
C4015 C4014 1.391 . S
H4016 C4024 0.950 . S
H4017 C4029 0.950 . S
H4018 C4026 0.950 . S
H4019 C4028 0.950 . S
H4020 C4030 0.950 . S
H4021 C4032 0.950 . S
H4022 C4034 0.911 1_655 S
H4023 C4035 0.950 1_655 S
C4024 H4016 0.950 . S
C4024 C4025 1.386 . S
C4024 C4026 1.391 . S
C4025 C4024 1.386 . S
C4025 C4029 1.393 . S
C4026 H4018 0.950 . S
C4026 C4024 1.391 . S
C4026 C4027 1.400 . S
C4027 C4026 1.400 . S
C4027 C4028 1.398 . S
C4027 C4033 1.491 . S
C4028 H4019 0.950 . S
C4028 C4027 1.398 . S
C4028 C4029 1.391 . S
C4029 H4017 0.950 . S
C4029 C4025 1.393 . S
C4029 C4028 1.391 . S
C4030 H4020 0.950 . S
C4030 C4031 1.386 . S
C4030 C4032 1.391 . S
C4031 C4030 1.386 . S
C4031 C4035 1.393 . S
C4032 H4021 0.950 . S
C4032 C4030 1.391 . S
C4032 C4033 1.400 . S
C4033 C4027 1.491 . S
C4033 C4032 1.400 . S
C4033 C4034 1.398 . S
C4034 H4022 0.911 1_455 S
C4034 C4033 1.398 . S
C4034 C4035 1.391 . S
C4035 H4023 0.950 1_455 S
C4035 C4031 1.393 . S
C4035 C4034 1.391 . S
H4036 C4044 0.950 . S
H4037 C4049 0.950 . S
H4038 C4046 0.950 . S
H4039 C4048 0.950 . S
H4040 C4050 0.950 . S
H4041 C4052 0.950 . S
H4042 C4054 0.950 . S
H4043 C4055 0.950 . S
C4044 H4036 0.950 . S
C4044 C4045 1.386 . S
C4044 C4046 1.391 . S
C4045 C4044 1.386 . S
C4045 C4049 1.393 . S
C4046 H4038 0.950 . S
C4046 C4044 1.391 . S
C4046 C4047 1.400 . S
C4047 C4046 1.400 . S
C4047 C4048 1.398 . S
C4047 C4053 1.491 . S
C4048 H4039 0.950 . S
C4048 C4047 1.398 . S
C4048 C4049 1.391 . S
C4049 H4037 0.950 . S
C4049 C4045 1.393 . S
C4049 C4048 1.391 . S
C4050 H4040 0.950 . S
C4050 C4051 1.386 . S
C4050 C4052 1.391 . S
C4051 C4050 1.386 . S
C4051 C4055 1.393 . S
C4052 H4041 0.950 . S
C4052 C4050 1.391 . S
C4052 C4053 1.400 . S
C4053 C4047 1.491 . S
C4053 C4052 1.400 . S
C4053 C4054 1.398 . S
C4054 H4042 0.950 . S
C4054 C4053 1.398 . S
C4054 C4055 1.391 . S
C4055 H4043 0.950 . S
C4055 C4051 1.393 . S
C4055 C4054 1.391 . S
H4056 C4064 0.950 . S
H4057 C4069 0.950 . S
H4058 C4066 0.950 . S
H4059 C4068 0.950 . S
H4060 C4070 0.950 1_554 S
H4061 C4072 0.950 . S
H4062 C4074 0.950 . S
H4063 C4075 0.950 . S
C4064 H4056 0.950 . S
C4064 C4065 1.386 . S
C4064 C4066 1.391 . S
C4065 C4064 1.386 . S
C4065 C4069 1.393 . S
C4066 H4058 0.950 . S
C4066 C4064 1.391 . S
C4066 C4067 1.400 . S
C4067 C4066 1.400 . S
C4067 C4068 1.398 . S
C4067 C4073 1.491 . S
C4068 H4059 0.950 . S
C4068 C4067 1.398 . S
C4068 C4069 1.391 . S
C4069 H4057 0.950 . S
C4069 C4065 1.393 . S
C4069 C4068 1.391 . S
C4070 H4060 0.950 1_556 S
C4070 C4071 1.386 . S
C4070 C4072 1.391 . S
C4071 C4070 1.386 . S
C4071 C4075 1.393 . S
C4072 H4061 0.950 . S
C4072 C4070 1.391 . S
C4072 C4073 1.400 . S
C4073 C4067 1.491 . S
C4073 C4072 1.400 . S
C4073 C4074 1.398 . S
C4074 H4062 0.950 . S
C4074 C4073 1.398 . S
C4074 C4075 1.391 . S
C4075 H4063 0.950 . S
C4075 C4071 1.393 . S
C4075 C4074 1.391 . S
H4076 C4084 0.950 . S
H4077 C4089 0.950 . S
H4078 C4086 0.950 . S
H4079 C4088 0.950 . S
H4080 C4090 0.950 . S
H4081 C4092 0.950 . S
H4082 C4094 0.950 . S
H4083 C4095 0.950 . S
C4084 H4076 0.950 . S
C4084 C4085 1.386 . S
C4084 C4086 1.391 . S
C4085 C4084 1.386 . S
C4085 C4089 1.393 . S
C4086 H4078 0.950 . S
C4086 C4084 1.391 . S
C4086 C4087 1.400 . S
C4087 C4086 1.400 . S
C4087 C4088 1.398 . S
C4087 C4093 1.491 . S
C4088 H4079 0.950 . S
C4088 C4087 1.398 . S
C4088 C4089 1.391 . S
C4089 H4077 0.950 . S
C4089 C4085 1.393 . S
C4089 C4088 1.391 . S
C4090 H4080 0.950 . S
C4090 C4091 1.386 . S
C4090 C4092 1.391 . S
C4091 C4090 1.386 . S
C4091 C4095 1.393 . S
C4092 H4081 0.950 . S
C4092 C4090 1.391 . S
C4092 C4093 1.400 . S
C4093 C4087 1.491 . S
C4093 C4092 1.400 . S
C4093 C4094 1.398 . S
C4094 H4082 0.950 . S
C4094 C4093 1.398 . S
C4094 C4095 1.391 . S
C4095 H4083 0.950 . S
C4095 C4091 1.393 . S
C4095 C4094 1.391 . S
H4096 C4104 0.950 . S
H4097 C4109 0.950 . S
H4098 C4106 0.950 . S
H4099 C4108 0.950 . S
H4100 C4110 0.950 . S
H4101 C4112 0.950 . S
H4102 C4114 0.950 . S
H4103 C4115 0.950 . S
C4104 H4096 0.950 . S
C4104 C4105 1.386 . S
C4104 C4106 1.391 . S
C4105 C4104 1.386 . S
C4105 C4109 1.393 . S
C4106 H4098 0.950 . S
C4106 C4104 1.391 . S
C4106 C4107 1.400 . S
C4107 C4106 1.400 . S
C4107 C4108 1.398 . S
C4107 C4113 1.491 . S
C4108 H4099 0.950 . S
C4108 C4107 1.398 . S
C4108 C4109 1.391 . S
C4109 H4097 0.950 . S
C4109 C4105 1.393 . S
C4109 C4108 1.391 . S
C4110 H4100 0.950 . S
C4110 C4111 1.386 . S
C4110 C4112 1.391 . S
C4111 C4110 1.386 . S
C4111 C4115 1.393 . S
C4112 H4101 0.950 . S
C4112 C4110 1.391 . S
C4112 C4113 1.400 . S
C4113 C4107 1.491 . S
C4113 C4112 1.400 . S
C4113 C4114 1.398 . S
C4114 H4102 0.950 . S
C4114 C4113 1.398 . S
C4114 C4115 1.391 . S
C4115 H4103 0.950 . S
C4115 C4111 1.393 . S
C4115 C4114 1.391 . S
H4116 C4124 0.950 . S
H4117 C4129 0.950 . S
H4118 C4126 0.950 . S
H4119 C4128 0.950 . S
H4120 C4130 0.950 . S
H4121 C4132 0.950 . S
H4122 C4134 0.950 . S
H4123 C4135 0.950 . S
C4124 H4116 0.950 . S
C4124 C4125 1.386 . S
C4124 C4126 1.391 . S
C4125 C4124 1.386 . S
C4125 C4129 1.393 . S
C4126 H4118 0.950 . S
C4126 C4124 1.391 . S
C4126 C4127 1.400 . S
C4127 C4126 1.400 . S
C4127 C4128 1.398 . S
C4127 C4133 1.491 . S
C4128 H4119 0.950 . S
C4128 C4127 1.398 . S
C4128 C4129 1.391 . S
C4129 H4117 0.950 . S
C4129 C4125 1.393 . S
C4129 C4128 1.391 . S
C4130 H4120 0.950 . S
C4130 C4131 1.386 . S
C4130 C4132 1.391 . S
C4131 C4130 1.386 . S
C4131 C4135 1.393 . S
C4132 H4121 0.950 . S
C4132 C4130 1.391 . S
C4132 C4133 1.400 . S
C4133 C4127 1.491 . S
C4133 C4132 1.400 . S
C4133 C4134 1.398 . S
C4134 H4122 0.950 . S
C4134 C4133 1.398 . S
C4134 C4135 1.391 . S
C4135 H4123 0.950 . S
C4135 C4131 1.393 . S
C4135 C4134 1.391 . S
H4136 C4144 0.950 . S
H4137 C4149 0.950 . S
H4138 C4146 0.950 . S
H4139 C4148 0.950 . S
H4140 C4150 0.950 . S
H4141 C4152 0.950 . S
H4142 C4154 0.950 . S
H4143 C4155 0.950 . S
C4144 H4136 0.950 . S
C4144 C4145 1.386 . S
C4144 C4146 1.391 . S
C4145 C4144 1.386 . S
C4145 C4149 1.393 . S
C4146 H4138 0.950 . S
C4146 C4144 1.391 . S
C4146 C4147 1.400 . S
C4147 C4146 1.400 . S
C4147 C4148 1.398 . S
C4147 C4153 1.491 . S
C4148 H4139 0.950 . S
C4148 C4147 1.398 . S
C4148 C4149 1.391 . S
C4149 H4137 0.950 . S
C4149 C4145 1.393 . S
C4149 C4148 1.391 . S
C4150 H4140 0.950 . S
C4150 C4151 1.386 . S
C4150 C4152 1.391 . S
C4151 C4150 1.386 . S
C4151 C4155 1.393 . S
C4152 H4141 0.950 . S
C4152 C4150 1.391 . S
C4152 C4153 1.400 . S
C4153 C4147 1.491 . S
C4153 C4152 1.400 . S
C4153 C4154 1.398 . S
C4154 H4142 0.950 . S
C4154 C4153 1.398 . S
C4154 C4155 1.391 . S
C4155 H4143 0.950 . S
C4155 C4151 1.393 . S
C4155 C4154 1.391 . S
H4156 C4164 0.950 . S
H4157 C4169 0.950 . S
H4158 C4166 0.950 . S
H4159 C4168 0.950 . S
H4160 C4170 0.950 . S
H4161 C4172 0.950 . S
H4162 C4174 0.950 . S
H4163 C4175 0.950 . S
C4164 H4156 0.950 . S
C4164 C4165 1.386 . S
C4164 C4166 1.391 . S
C4165 C4164 1.386 . S
C4165 C4169 1.393 . S
C4166 H4158 0.950 . S
C4166 C4164 1.391 . S
C4166 C4167 1.400 . S
C4167 C4166 1.400 . S
C4167 C4168 1.398 . S
C4167 C4173 1.491 . S
C4168 H4159 0.950 . S
C4168 C4167 1.398 . S
C4168 C4169 1.391 . S
C4169 H4157 0.950 . S
C4169 C4165 1.393 . S
C4169 C4168 1.391 . S
C4170 H4160 0.950 . S
C4170 C4171 1.386 . S
C4170 C4172 1.391 . S
C4171 C4170 1.386 . S
C4171 C4175 1.393 . S
C4172 H4161 0.950 . S
C4172 C4170 1.391 . S
C4172 C4173 1.400 . S
C4173 C4167 1.491 . S
C4173 C4172 1.400 . S
C4173 C4174 1.398 . S
C4174 H4162 0.950 . S
C4174 C4173 1.398 . S
C4174 C4175 1.391 . S
C4175 H4163 0.950 . S
C4175 C4171 1.393 . S
C4175 C4174 1.391 . S
H4176 C4184 0.950 . S
H4177 C4189 0.950 1_565 S
H4178 C4186 0.950 . S
H4179 C4188 0.950 1_565 S
H4180 C4190 0.950 1_565 S
H4181 C4192 0.950 1_565 S
H4182 C4194 0.950 . S
H4183 C4195 0.950 . S
C4184 H4176 0.950 . S
C4184 C4185 1.386 . S
C4184 C4186 1.391 . S
C4185 C4184 1.386 . S
C4185 C4189 1.393 . S
C4186 H4178 0.950 . S
C4186 C4184 1.391 . S
C4186 C4187 1.400 . S
C4187 C4186 1.400 . S
C4187 C4188 1.398 . S
C4187 C4193 1.491 . S
C4188 H4179 0.950 1_545 S
C4188 C4187 1.398 . S
C4188 C4189 1.391 . S
C4189 H4177 0.950 1_545 S
C4189 C4185 1.393 . S
C4189 C4188 1.391 . S
C4190 H4180 0.950 1_545 S
C4190 C4191 1.386 . S
C4190 C4192 1.391 . S
C4191 C4190 1.386 . S
C4191 C4195 1.393 . S
C4192 H4181 0.950 1_545 S
C4192 C4190 1.391 . S
C4192 C4193 1.400 . S
C4193 C4187 1.491 . S
C4193 C4192 1.400 . S
C4193 C4194 1.398 . S
C4194 H4182 0.950 . S
C4194 C4193 1.398 . S
C4194 C4195 1.391 . S
C4195 H4183 0.950 . S
C4195 C4191 1.393 . S
C4195 C4194 1.391 . S
H4196 C4204 0.950 . S
H4197 C4209 0.950 . S
H4198 C4206 0.950 . S
H4199 C4208 0.950 . S
H4200 C4210 0.950 . S
H4201 C4212 0.950 . S
H4202 C4214 0.950 . S
H4203 C4215 0.950 . S
C4204 H4196 0.950 . S
C4204 C4205 1.386 . S
C4204 C4206 1.391 . S
C4205 C4204 1.386 . S
C4205 C4209 1.393 . S
C4206 H4198 0.950 . S
C4206 C4204 1.391 . S
C4206 C4207 1.400 . S
C4207 C4206 1.400 . S
C4207 C4208 1.398 . S
C4207 C4213 1.491 . S
C4208 H4199 0.950 . S
C4208 C4207 1.398 . S
C4208 C4209 1.391 . S
C4209 H4197 0.950 . S
C4209 C4205 1.393 . S
C4209 C4208 1.391 . S
C4210 H4200 0.950 . S
C4210 C4211 1.386 . S
C4210 C4212 1.391 . S
C4211 C4210 1.386 . S
C4211 C4215 1.393 . S
C4212 H4201 0.950 . S
C4212 C4210 1.391 . S
C4212 C4213 1.400 . S
C4213 C4207 1.491 . S
C4213 C4212 1.400 . S
C4213 C4214 1.398 . S
C4214 H4202 0.950 . S
C4214 C4213 1.398 . S
C4214 C4215 1.391 . S
C4215 H4203 0.950 . S
C4215 C4211 1.393 . S
C4215 C4214 1.391 . S
H4216 C4224 0.950 . S
H4217 C4229 0.950 . S
H4218 C4226 0.950 . S
H4219 C4228 0.950 . S
H4220 C4230 0.950 . S
H4221 C4232 0.950 . S
H4222 C4234 0.950 . S
H4223 C4235 0.950 . S
C4224 H4216 0.950 . S
C4224 C4225 1.386 . S
C4224 C4226 1.391 . S
C4225 C4224 1.386 . S
C4225 C4229 1.393 . S
C4226 H4218 0.950 . S
C4226 C4224 1.391 . S
C4226 C4227 1.400 . S
C4227 C4226 1.400 . S
C4227 C4228 1.398 . S
C4227 C4233 1.491 . S
C4228 H4219 0.950 . S
C4228 C4227 1.398 . S
C4228 C4229 1.391 . S
C4229 H4217 0.950 . S
C4229 C4225 1.393 . S
C4229 C4228 1.391 . S
C4230 H4220 0.950 . S
C4230 C4231 1.386 . S
C4230 C4232 1.391 . S
C4231 C4230 1.386 . S
C4231 C4235 1.393 . S
C4232 H4221 0.950 . S
C4232 C4230 1.391 . S
C4232 C4233 1.400 . S
C4233 C4227 1.491 . S
C4233 C4232 1.400 . S
C4233 C4234 1.398 . S
C4234 H4222 0.950 . S
C4234 C4233 1.398 . S
C4234 C4235 1.391 . S
C4235 H4223 0.950 . S
C4235 C4231 1.393 . S
C4235 C4234 1.391 . S
H4236 C4244 0.950 . S
H4237 C4249 0.950 . S
H4238 C4246 0.950 . S
H4239 C4248 0.950 . S
H4240 C4250 0.950 . S
H4241 C4252 0.950 . S
H4242 C4254 0.950 . S
H4243 C4255 0.950 . S
C4244 H4236 0.950 . S
C4244 C4245 1.386 . S
C4244 C4246 1.391 . S
C4245 C4244 1.386 . S
C4245 C4249 1.393 . S
C4246 H4238 0.950 . S
C4246 C4244 1.391 . S
C4246 C4247 1.400 . S
C4247 C4246 1.400 . S
C4247 C4248 1.398 . S
C4247 C4253 1.491 . S
C4248 H4239 0.950 . S
C4248 C4247 1.398 . S
C4248 C4249 1.391 . S
C4249 H4237 0.950 . S
C4249 C4245 1.393 . S
C4249 C4248 1.391 . S
C4250 H4240 0.950 . S
C4250 C4251 1.386 . S
C4250 C4252 1.391 . S
C4251 C4250 1.386 . S
C4251 C4255 1.393 . S
C4252 H4241 0.950 . S
C4252 C4250 1.391 . S
C4252 C4253 1.400 . S
C4253 C4247 1.491 . S
C4253 C4252 1.400 . S
C4253 C4254 1.398 . S
C4254 H4242 0.950 . S
C4254 C4253 1.398 . S
C4254 C4255 1.391 . S
C4255 H4243 0.950 . S
C4255 C4251 1.393 . S
C4255 C4254 1.391 . S
H4256 C4264 0.950 . S
H4257 C4269 0.950 . S
H4258 C4266 0.950 . S
H4259 C4268 0.950 . S
H4260 C4270 0.950 . S
H4261 C4272 0.950 . S
H4262 C4274 0.950 . S
H4263 C4275 0.950 1_556 S
C4264 H4256 0.950 . S
C4264 C4265 1.386 . S
C4264 C4266 1.391 . S
C4265 C4264 1.386 . S
C4265 C4269 1.393 . S
C4266 H4258 0.950 . S
C4266 C4264 1.391 . S
C4266 C4267 1.400 . S
C4267 C4266 1.400 . S
C4267 C4268 1.398 . S
C4267 C4273 1.491 . S
C4268 H4259 0.950 . S
C4268 C4267 1.398 . S
C4268 C4269 1.391 . S
C4269 H4257 0.950 . S
C4269 C4265 1.393 . S
C4269 C4268 1.391 . S
C4270 H4260 0.950 . S
C4270 C4271 1.386 . S
C4270 C4272 1.391 . S
C4271 C4270 1.386 . S
C4271 C4275 1.393 . S
C4272 H4261 0.950 . S
C4272 C4270 1.391 . S
C4272 C4273 1.400 . S
C4273 C4267 1.491 . S
C4273 C4272 1.400 . S
C4273 C4274 1.398 . S
C4274 H4262 0.950 . S
C4274 C4273 1.398 . S
C4274 C4275 1.391 . S
C4275 H4263 0.950 1_554 S
C4275 C4271 1.393 . S
C4275 C4274 1.391 . S
H4276 C4284 0.950 . S
H4277 C4289 0.950 . S
H4278 C4286 0.950 . S
H4279 C4288 0.950 . S
H4280 C4290 0.950 . S
H4281 C4292 0.950 . S
H4282 C4294 0.950 . S
H4283 C4295 0.950 . S
C4284 H4276 0.950 . S
C4284 C4285 1.386 . S
C4284 C4286 1.391 . S
C4285 C4284 1.386 . S
C4285 C4289 1.393 . S
C4286 H4278 0.950 . S
C4286 C4284 1.391 . S
C4286 C4287 1.400 . S
C4287 C4286 1.400 . S
C4287 C4288 1.398 . S
C4287 C4293 1.491 . S
C4288 H4279 0.950 . S
C4288 C4287 1.398 . S
C4288 C4289 1.391 . S
C4289 H4277 0.950 . S
C4289 C4285 1.393 . S
C4289 C4288 1.391 . S
C4290 H4280 0.950 . S
C4290 C4291 1.386 . S
C4290 C4292 1.391 . S
C4291 C4290 1.386 . S
C4291 C4295 1.393 . S
C4292 H4281 0.950 . S
C4292 C4290 1.391 . S
C4292 C4293 1.400 . S
C4293 C4287 1.491 . S
C4293 C4292 1.400 . S
C4293 C4294 1.398 . S
C4294 H4282 0.950 . S
C4294 C4293 1.398 . S
C4294 C4295 1.391 . S
C4295 H4283 0.950 . S
C4295 C4291 1.393 . S
C4295 C4294 1.391 . S
H4296 C4304 0.950 . S
H4297 C4309 0.950 . S
H4298 C4306 0.950 . S
H4299 C4308 0.950 . S
H4300 C4310 0.950 . S
H4301 C4312 0.950 . S
H4302 C4314 0.950 . S
H4303 C4315 0.950 . S
C4304 H4296 0.950 . S
C4304 C4305 1.386 . S
C4304 C4306 1.391 . S
C4305 C4304 1.386 . S
C4305 C4309 1.393 . S
C4306 H4298 0.950 . S
C4306 C4304 1.391 . S
C4306 C4307 1.400 . S
C4307 C4306 1.400 . S
C4307 C4308 1.398 . S
C4307 C4313 1.491 . S
C4308 H4299 0.950 . S
C4308 C4307 1.398 . S
C4308 C4309 1.391 . S
C4309 H4297 0.950 . S
C4309 C4305 1.393 . S
C4309 C4308 1.391 . S
C4310 H4300 0.950 . S
C4310 C4311 1.386 . S
C4310 C4312 1.391 . S
C4311 C4310 1.386 . S
C4311 C4315 1.393 . S
C4312 H4301 0.950 . S
C4312 C4310 1.391 . S
C4312 C4313 1.400 . S
C4313 C4307 1.491 . S
C4313 C4312 1.400 . S
C4313 C4314 1.398 . S
C4314 H4302 0.950 . S
C4314 C4313 1.398 . S
C4314 C4315 1.391 . S
C4315 H4303 0.950 . S
C4315 C4311 1.393 . S
C4315 C4314 1.391 . S
H4316 C4324 0.950 . S
H4317 C4329 0.950 . S
H4318 C4326 0.950 . S
H4319 C4328 0.950 . S
H4320 C4330 0.950 . S
H4321 C4332 0.950 . S
H4322 C4334 0.950 . S
H4323 C4335 0.950 . S
C4324 H4316 0.950 . S
C4324 C4325 1.386 . S
C4324 C4326 1.391 . S
C4325 C4324 1.386 . S
C4325 C4329 1.393 . S
C4326 H4318 0.950 . S
C4326 C4324 1.391 . S
C4326 C4327 1.400 . S
C4327 C4326 1.400 . S
C4327 C4328 1.398 . S
C4327 C4333 1.491 . S
C4328 H4319 0.950 . S
C4328 C4327 1.398 . S
C4328 C4329 1.391 . S
C4329 H4317 0.950 . S
C4329 C4325 1.393 . S
C4329 C4328 1.391 . S
C4330 H4320 0.950 . S
C4330 C4331 1.386 . S
C4330 C4332 1.391 . S
C4331 C4330 1.386 . S
C4331 C4335 1.393 . S
C4332 H4321 0.950 . S
C4332 C4330 1.391 . S
C4332 C4333 1.400 . S
C4333 C4327 1.491 . S
C4333 C4332 1.400 . S
C4333 C4334 1.398 . S
C4334 H4322 0.950 . S
C4334 C4333 1.398 . S
C4334 C4335 1.391 . S
C4335 H4323 0.950 . S
C4335 C4331 1.393 . S
C4335 C4334 1.391 . S
H4336 C4344 0.950 . S
H4337 C4349 0.950 . S
H4338 C4346 0.950 . S
H4339 C4348 0.950 . S
H4340 C4350 0.950 . S
H4341 C4352 0.950 . S
H4342 C4354 0.950 . S
H4343 C4355 0.950 . S
C4344 H4336 0.950 . S
C4344 C4345 1.386 . S
C4344 C4346 1.391 . S
C4345 C4344 1.386 . S
C4345 C4349 1.393 . S
C4346 H4338 0.950 . S
C4346 C4344 1.391 . S
C4346 C4347 1.400 . S
C4347 C4346 1.400 . S
C4347 C4348 1.398 . S
C4347 C4353 1.491 . S
C4348 H4339 0.950 . S
C4348 C4347 1.398 . S
C4348 C4349 1.391 . S
C4349 H4337 0.950 . S
C4349 C4345 1.393 . S
C4349 C4348 1.391 . S
C4350 H4340 0.950 . S
C4350 C4351 1.386 . S
C4350 C4352 1.391 . S
C4351 C4350 1.386 . S
C4351 C4355 1.393 . S
C4352 H4341 0.950 . S
C4352 C4350 1.391 . S
C4352 C4353 1.400 . S
C4353 C4347 1.491 . S
C4353 C4352 1.400 . S
C4353 C4354 1.398 . S
C4354 H4342 0.950 . S
C4354 C4353 1.398 . S
C4354 C4355 1.391 . S
C4355 H4343 0.950 . S
C4355 C4351 1.393 . S
C4355 C4354 1.391 . S
H4356 C4364 0.950 . S
H4357 C4369 0.950 . S
H4358 C4366 0.950 . S
H4359 C4368 0.950 . S
H4360 C4370 0.950 . S
H4361 C4372 0.950 . S
H4362 C4374 0.950 . S
H4363 C4375 0.950 . S
C4364 H4356 0.950 . S
C4364 C4365 1.386 . S
C4364 C4366 1.391 . S
C4365 C4364 1.386 . S
C4365 C4369 1.393 . S
C4366 H4358 0.950 . S
C4366 C4364 1.391 . S
C4366 C4367 1.400 . S
C4367 C4366 1.400 . S
C4367 C4368 1.398 . S
C4367 C4373 1.491 . S
C4368 H4359 0.950 . S
C4368 C4367 1.398 . S
C4368 C4369 1.391 . S
C4369 H4357 0.950 . S
C4369 C4365 1.393 . S
C4369 C4368 1.391 . S
C4370 H4360 0.950 . S
C4370 C4371 1.386 . S
C4370 C4372 1.391 . S
C4371 C4370 1.386 . S
C4371 C4375 1.393 . S
C4372 H4361 0.950 . S
C4372 C4370 1.391 . S
C4372 C4373 1.400 . S
C4373 C4367 1.491 . S
C4373 C4372 1.400 . S
C4373 C4374 1.398 . S
C4374 H4362 0.950 . S
C4374 C4373 1.398 . S
C4374 C4375 1.391 . S
C4375 H4363 0.950 . S
C4375 C4371 1.393 . S
C4375 C4374 1.391 . S
H4376 C4384 0.950 . S
H4377 C4389 0.950 . S
H4378 C4386 0.950 . S
H4379 C4388 0.950 . S
H4380 C4390 0.950 . S
H4381 C4392 0.950 . S
H4382 C4394 0.950 . S
H4383 C4395 0.950 . S
C4384 H4376 0.950 . S
C4384 C4385 1.386 . S
C4384 C4386 1.391 . S
C4385 C4384 1.386 . S
C4385 C4389 1.393 . S
C4386 H4378 0.950 . S
C4386 C4384 1.391 . S
C4386 C4387 1.400 . S
C4387 C4386 1.400 . S
C4387 C4388 1.398 . S
C4387 C4393 1.491 . S
C4388 H4379 0.950 . S
C4388 C4387 1.398 . S
C4388 C4389 1.391 . S
C4389 H4377 0.950 . S
C4389 C4385 1.393 . S
C4389 C4388 1.391 . S
C4390 H4380 0.950 . S
C4390 C4391 1.386 . S
C4390 C4392 1.391 . S
C4391 C4390 1.386 . S
C4391 C4395 1.393 . S
C4392 H4381 0.950 . S
C4392 C4390 1.391 . S
C4392 C4393 1.400 . S
C4393 C4387 1.491 . S
C4393 C4392 1.400 . S
C4393 C4394 1.398 . S
C4394 H4382 0.950 . S
C4394 C4393 1.398 . S
C4394 C4395 1.391 . S
C4395 H4383 0.950 . S
C4395 C4391 1.393 . S
C4395 C4394 1.391 . S
H4396 C4404 0.950 . S
H4397 C4409 0.950 . S
H4398 C4406 0.950 . S
H4399 C4408 0.950 . S
H4400 C4410 0.950 . S
H4401 C4412 0.950 . S
H4402 C4414 0.950 . S
H4403 C4415 0.950 . S
C4404 H4396 0.950 . S
C4404 C4405 1.386 . S
C4404 C4406 1.391 . S
C4405 C4404 1.386 . S
C4405 C4409 1.393 . S
C4406 H4398 0.950 . S
C4406 C4404 1.391 . S
C4406 C4407 1.400 . S
C4407 C4406 1.400 . S
C4407 C4408 1.398 . S
C4407 C4413 1.491 . S
C4408 H4399 0.950 . S
C4408 C4407 1.398 . S
C4408 C4409 1.391 . S
C4409 H4397 0.950 . S
C4409 C4405 1.393 . S
C4409 C4408 1.391 . S
C4410 H4400 0.950 . S
C4410 C4411 1.386 . S
C4410 C4412 1.391 . S
C4411 C4410 1.386 . S
C4411 C4415 1.393 . S
C4412 H4401 0.950 . S
C4412 C4410 1.391 . S
C4412 C4413 1.400 . S
C4413 C4407 1.491 . S
C4413 C4412 1.400 . S
C4413 C4414 1.398 . S
C4414 H4402 0.950 . S
C4414 C4413 1.398 . S
C4414 C4415 1.391 . S
C4415 H4403 0.950 . S
C4415 C4411 1.393 . S
C4415 C4414 1.391 . S
H4416 C4424 0.950 . S
H4417 C4429 0.950 . S
H4418 C4426 0.950 . S
H4419 C4428 0.950 . S
H4420 C4430 0.950 . S
H4421 C4432 0.950 . S
H4422 C4434 0.950 . S
H4423 C4435 0.950 . S
C4424 H4416 0.950 . S
C4424 C4425 1.386 . S
C4424 C4426 1.391 . S
C4425 C4424 1.386 . S
C4425 C4429 1.393 . S
C4426 H4418 0.950 . S
C4426 C4424 1.391 . S
C4426 C4427 1.400 . S
C4427 C4426 1.400 . S
C4427 C4428 1.398 . S
C4427 C4433 1.491 . S
C4428 H4419 0.950 . S
C4428 C4427 1.398 . S
C4428 C4429 1.391 . S
C4429 H4417 0.950 . S
C4429 C4425 1.393 . S
C4429 C4428 1.391 . S
C4430 H4420 0.950 . S
C4430 C4431 1.386 . S
C4430 C4432 1.391 . S
C4431 C4430 1.386 . S
C4431 C4435 1.393 . S
C4432 H4421 0.950 . S
C4432 C4430 1.391 . S
C4432 C4433 1.400 . S
C4433 C4427 1.491 . S
C4433 C4432 1.400 . S
C4433 C4434 1.398 . S
C4434 H4422 0.950 . S
C4434 C4433 1.398 . S
C4434 C4435 1.391 . S
C4435 H4423 0.950 . S
C4435 C4431 1.393 . S
C4435 C4434 1.391 . S
H4436 C4444 0.950 . S
H4437 C4449 0.950 . S
H4438 C4446 0.950 . S
H4439 C4448 0.950 . S
H4440 C4450 0.950 . S
H4441 C4452 0.950 . S
H4442 C4454 0.950 . S
H4443 C4455 0.950 . S
C4444 H4436 0.950 . S
C4444 C4445 1.386 . S
C4444 C4446 1.391 . S
C4445 C4444 1.386 . S
C4445 C4449 1.393 . S
C4446 H4438 0.950 . S
C4446 C4444 1.391 . S
C4446 C4447 1.400 . S
C4447 C4446 1.400 . S
C4447 C4448 1.398 . S
C4447 C4453 1.491 . S
C4448 H4439 0.950 . S
C4448 C4447 1.398 . S
C4448 C4449 1.391 . S
C4449 H4437 0.950 . S
C4449 C4445 1.393 . S
C4449 C4448 1.391 . S
C4450 H4440 0.950 . S
C4450 C4451 1.386 . S
C4450 C4452 1.391 . S
C4451 C4450 1.386 . S
C4451 C4455 1.393 . S
C4452 H4441 0.950 . S
C4452 C4450 1.391 . S
C4452 C4453 1.400 . S
C4453 C4447 1.491 . S
C4453 C4452 1.400 . S
C4453 C4454 1.398 . S
C4454 H4442 0.950 . S
C4454 C4453 1.398 . S
C4454 C4455 1.391 . S
C4455 H4443 0.950 . S
C4455 C4451 1.393 . S
C4455 C4454 1.391 . S
H4456 C4464 0.950 . S
H4457 C4469 0.950 . S
H4458 C4466 0.950 . S
H4459 C4468 0.950 . S
H4460 C4470 0.950 1_655 S
H4461 C4472 0.939 1_655 S
H4462 C4474 0.950 . S
H4463 C4475 0.950 . S
C4464 H4456 0.950 . S
C4464 C4465 1.390 . S
C4464 C4466 1.391 . S
C4465 C4464 1.390 . S
C4465 C4469 1.389 1_454 S
C4466 H4458 0.950 . S
C4466 C4464 1.391 . S
C4466 C4467 1.400 . S
C4467 C4466 1.400 . S
C4467 C4468 1.398 1_454 S
C4467 C4473 1.491 . S
C4468 H4459 0.950 . S
C4468 C4467 1.398 1_656 S
C4468 C4469 1.391 . S
C4469 H4457 0.950 . S
C4469 C4465 1.389 1_656 S
C4469 C4468 1.391 . S
C4470 H4460 0.950 1_455 S
C4470 C4471 1.386 . S
C4470 C4472 1.389 . S
C4471 C4470 1.386 . S
C4471 C4475 1.393 . S
C4472 H4461 0.939 1_455 S
C4472 C4470 1.389 . S
C4472 C4473 1.413 . S
C4473 C4467 1.491 . S
C4473 C4472 1.413 . S
C4473 C4474 1.398 . S
C4474 H4462 0.950 . S
C4474 C4473 1.398 . S
C4474 C4475 1.391 . S
C4475 H4463 0.950 . S
C4475 C4471 1.393 . S
C4475 C4474 1.391 . S
H4476 C4484 0.950 . S
H4477 C4489 0.950 . S
H4478 C4486 0.950 . S
H4479 C4488 0.950 . S
H4480 C4490 0.950 . S
H4481 C4492 0.950 . S
H4482 C4494 0.950 . S
H4483 C4495 0.950 . S
C4484 H4476 0.950 . S
C4484 C4485 1.386 . S
C4484 C4486 1.391 . S
C4485 C4484 1.386 . S
C4485 C4489 1.393 . S
C4486 H4478 0.950 . S
C4486 C4484 1.391 . S
C4486 C4487 1.400 . S
C4487 C4486 1.400 . S
C4487 C4488 1.398 . S
C4487 C4493 1.491 . S
C4488 H4479 0.950 . S
C4488 C4487 1.398 . S
C4488 C4489 1.391 . S
C4489 H4477 0.950 . S
C4489 C4485 1.393 . S
C4489 C4488 1.391 . S
C4490 H4480 0.950 . S
C4490 C4491 1.386 . S
C4490 C4492 1.391 . S
C4491 C4490 1.386 . S
C4491 C4495 1.393 . S
C4492 H4481 0.950 . S
C4492 C4490 1.391 . S
C4492 C4493 1.400 . S
C4493 C4487 1.491 . S
C4493 C4492 1.400 . S
C4493 C4494 1.398 . S
C4494 H4482 0.950 . S
C4494 C4493 1.398 . S
C4494 C4495 1.391 . S
C4495 H4483 0.950 . S
C4495 C4491 1.393 . S
C4495 C4494 1.391 . S
H4496 C4504 0.950 . S
H4497 C4509 0.950 . S
H4498 C4506 0.950 . S
H4499 C4508 0.950 . S
H4500 C4510 0.950 . S
H4501 C4512 0.950 . S
H4502 C4514 0.950 . S
H4503 C4515 0.950 . S
C4504 H4496 0.950 . S
C4504 C4505 1.386 . S
C4504 C4506 1.391 . S
C4505 C4504 1.386 . S
C4505 C4509 1.393 . S
C4506 H4498 0.950 . S
C4506 C4504 1.391 . S
C4506 C4507 1.400 . S
C4507 C4506 1.400 . S
C4507 C4508 1.398 . S
C4507 C4513 1.491 . S
C4508 H4499 0.950 . S
C4508 C4507 1.398 . S
C4508 C4509 1.391 . S
C4509 H4497 0.950 . S
C4509 C4505 1.393 . S
C4509 C4508 1.391 . S
C4510 H4500 0.950 . S
C4510 C4511 1.386 . S
C4510 C4512 1.391 . S
C4511 C4510 1.386 . S
C4511 C4515 1.393 . S
C4512 H4501 0.950 . S
C4512 C4510 1.391 . S
C4512 C4513 1.400 . S
C4513 C4507 1.491 . S
C4513 C4512 1.400 . S
C4513 C4514 1.398 . S
C4514 H4502 0.950 . S
C4514 C4513 1.398 . S
C4514 C4515 1.391 . S
C4515 H4503 0.950 . S
C4515 C4511 1.393 . S
C4515 C4514 1.391 . S
H4516 C4524 0.950 . S
H4517 C4529 0.950 . S
H4518 C4526 0.950 . S
H4519 C4528 0.950 . S
H4520 C4530 0.950 . S
H4521 C4532 0.950 . S
H4522 C4534 0.950 . S
H4523 C4535 0.950 . S
C4524 H4516 0.950 . S
C4524 C4525 1.386 . S
C4524 C4526 1.391 . S
C4525 C4524 1.386 . S
C4525 C4529 1.393 . S
C4526 H4518 0.950 . S
C4526 C4524 1.391 . S
C4526 C4527 1.400 . S
C4527 C4526 1.400 . S
C4527 C4528 1.398 . S
C4527 C4533 1.491 . S
C4528 H4519 0.950 . S
C4528 C4527 1.398 . S
C4528 C4529 1.391 . S
C4529 H4517 0.950 . S
C4529 C4525 1.393 . S
C4529 C4528 1.391 . S
C4530 H4520 0.950 . S
C4530 C4531 1.386 . S
C4530 C4532 1.391 . S
C4531 C4530 1.386 . S
C4531 C4535 1.393 . S
C4532 H4521 0.950 . S
C4532 C4530 1.391 . S
C4532 C4533 1.400 . S
C4533 C4527 1.491 . S
C4533 C4532 1.400 . S
C4533 C4534 1.398 . S
C4534 H4522 0.950 . S
C4534 C4533 1.398 . S
C4534 C4535 1.391 . S
C4535 H4523 0.950 . S
C4535 C4531 1.393 . S
C4535 C4534 1.391 . S
H4536 C4544 0.950 . S
H4537 C4549 0.950 . S
H4538 C4546 0.950 . S
H4539 C4548 0.950 . S
H4540 C4550 0.950 . S
H4541 C4552 0.950 . S
H4542 C4554 0.946 1_655 S
H4543 C4555 0.950 1_655 S
C4544 H4536 0.950 . S
C4544 C4545 1.386 1_655 S
C4544 C4546 1.391 . S
C4545 C4544 1.386 1_455 S
C4545 C4549 1.393 . S
C4546 H4538 0.950 . S
C4546 C4544 1.391 . S
C4546 C4547 1.400 1_655 S
C4547 C4546 1.400 1_455 S
C4547 C4548 1.398 . S
C4547 C4553 1.491 . S
C4548 H4539 0.950 . S
C4548 C4547 1.398 . S
C4548 C4549 1.391 . S
C4549 H4537 0.950 . S
C4549 C4545 1.393 . S
C4549 C4548 1.391 . S
C4550 H4540 0.950 . S
C4550 C4551 1.386 . S
C4550 C4552 1.391 . S
C4551 C4550 1.386 . S
C4551 C4555 1.393 . S
C4552 H4541 0.950 . S
C4552 C4550 1.391 . S
C4552 C4553 1.400 . S
C4553 C4547 1.491 . S
C4553 C4552 1.400 . S
C4553 C4554 1.400 . S
C4554 H4542 0.946 1_455 S
C4554 C4553 1.400 . S
C4554 C4555 1.392 . S
C4555 H4543 0.950 1_455 S
C4555 C4551 1.393 . S
C4555 C4554 1.392 . S
H4556 C4564 0.950 . S
H4557 C4569 0.950 . S
H4558 C4566 0.950 . S
H4559 C4568 0.950 . S
H4560 C4570 0.950 . S
H4561 C4572 0.950 . S
H4562 C4574 0.950 . S
H4563 C4575 0.950 . S
C4564 H4556 0.950 . S
C4564 C4565 1.386 . S
C4564 C4566 1.391 . S
C4565 C4564 1.386 . S
C4565 C4569 1.393 . S
C4566 H4558 0.950 . S
C4566 C4564 1.391 . S
C4566 C4567 1.400 . S
C4567 C4566 1.400 . S
C4567 C4568 1.398 . S
C4567 C4573 1.491 . S
C4568 H4559 0.950 . S
C4568 C4567 1.398 . S
C4568 C4569 1.391 . S
C4569 H4557 0.950 . S
C4569 C4565 1.393 . S
C4569 C4568 1.391 . S
C4570 H4560 0.950 . S
C4570 C4571 1.386 . S
C4570 C4572 1.391 . S
C4571 C4570 1.386 . S
C4571 C4575 1.393 . S
C4572 H4561 0.950 . S
C4572 C4570 1.391 . S
C4572 C4573 1.400 . S
C4573 C4567 1.491 . S
C4573 C4572 1.400 . S
C4573 C4574 1.398 . S
C4574 H4562 0.950 . S
C4574 C4573 1.398 . S
C4574 C4575 1.391 . S
C4575 H4563 0.950 . S
C4575 C4571 1.393 . S
C4575 C4574 1.391 . S
H4576 C4584 0.950 . S
H4577 C4589 0.950 . S
H4578 C4586 0.950 . S
H4579 C4588 0.950 . S
H4580 C4590 0.950 . S
H4581 C4592 0.950 . S
H4582 C4594 0.950 . S
H4583 C4595 0.950 . S
C4584 H4576 0.950 . S
C4584 C4585 1.386 . S
C4584 C4586 1.391 . S
C4585 C4584 1.386 . S
C4585 C4589 1.393 . S
C4586 H4578 0.950 . S
C4586 C4584 1.391 . S
C4586 C4587 1.400 . S
C4587 C4586 1.400 . S
C4587 C4588 1.398 . S
C4587 C4593 1.491 . S
C4588 H4579 0.950 . S
C4588 C4587 1.398 . S
C4588 C4589 1.391 . S
C4589 H4577 0.950 . S
C4589 C4585 1.393 . S
C4589 C4588 1.391 . S
C4590 H4580 0.950 . S
C4590 C4591 1.386 . S
C4590 C4592 1.391 . S
C4591 C4590 1.386 . S
C4591 C4595 1.393 . S
C4592 H4581 0.950 . S
C4592 C4590 1.391 . S
C4592 C4593 1.400 . S
C4593 C4587 1.491 . S
C4593 C4592 1.400 . S
C4593 C4594 1.398 . S
C4594 H4582 0.950 . S
C4594 C4593 1.398 . S
C4594 C4595 1.391 . S
C4595 H4583 0.950 . S
C4595 C4591 1.393 . S
C4595 C4594 1.391 . S
H4596 C4604 0.950 . S
H4597 C4609 0.950 . S
H4598 C4606 0.950 . S
H4599 C4608 0.950 . S
H4600 C4610 0.950 . S
H4601 C4612 0.950 . S
H4602 C4614 0.950 . S
H4603 C4615 0.950 . S
C4604 H4596 0.950 . S
C4604 C4605 1.386 . S
C4604 C4606 1.391 . S
C4605 C4604 1.386 . S
C4605 C4609 1.393 . S
C4606 H4598 0.950 . S
C4606 C4604 1.391 . S
C4606 C4607 1.400 . S
C4607 C4606 1.400 . S
C4607 C4608 1.398 . S
C4607 C4613 1.491 . S
C4608 H4599 0.950 . S
C4608 C4607 1.398 . S
C4608 C4609 1.391 . S
C4609 H4597 0.950 . S
C4609 C4605 1.393 . S
C4609 C4608 1.391 . S
C4610 H4600 0.950 . S
C4610 C4611 1.386 . S
C4610 C4612 1.391 . S
C4611 C4610 1.386 . S
C4611 C4615 1.393 . S
C4612 H4601 0.950 . S
C4612 C4610 1.391 . S
C4612 C4613 1.400 . S
C4613 C4607 1.491 . S
C4613 C4612 1.400 . S
C4613 C4614 1.398 . S
C4614 H4602 0.950 . S
C4614 C4613 1.398 . S
C4614 C4615 1.391 . S
C4615 H4603 0.950 . S
C4615 C4611 1.393 . S
C4615 C4614 1.391 . S
H4616 C4624 0.950 . S
H4617 C4629 0.950 . S
H4618 C4626 0.950 . S
H4619 C4628 0.950 . S
H4620 C4630 0.950 . S
H4621 C4632 0.950 . S
H4622 C4634 0.950 . S
H4623 C4635 0.950 . S
C4624 H4616 0.950 . S
C4624 C4625 1.386 . S
C4624 C4626 1.391 . S
C4625 C4624 1.386 . S
C4625 C4629 1.393 . S
C4626 H4618 0.950 . S
C4626 C4624 1.391 . S
C4626 C4627 1.400 . S
C4627 C4626 1.400 . S
C4627 C4628 1.398 . S
C4627 C4633 1.491 . S
C4628 H4619 0.950 . S
C4628 C4627 1.398 . S
C4628 C4629 1.391 . S
C4629 H4617 0.950 . S
C4629 C4625 1.393 . S
C4629 C4628 1.391 . S
C4630 H4620 0.950 . S
C4630 C4631 1.386 . S
C4630 C4632 1.391 . S
C4631 C4630 1.386 . S
C4631 C4635 1.393 . S
C4632 H4621 0.950 . S
C4632 C4630 1.391 . S
C4632 C4633 1.400 . S
C4633 C4627 1.491 . S
C4633 C4632 1.400 . S
C4633 C4634 1.398 . S
C4634 H4622 0.950 . S
C4634 C4633 1.398 . S
C4634 C4635 1.391 . S
C4635 H4623 0.950 . S
C4635 C4631 1.393 . S
C4635 C4634 1.391 . S
H4636 C4644 0.950 . S
H4637 C4649 0.950 . S
H4638 C4646 0.950 . S
H4639 C4648 0.950 . S
H4640 C4650 0.950 . S
H4641 C4652 0.950 . S
H4642 C4654 0.950 . S
H4643 C4655 0.950 . S
C4644 H4636 0.950 . S
C4644 C4645 1.386 . S
C4644 C4646 1.391 . S
C4645 C4644 1.386 . S
C4645 C4649 1.393 . S
C4646 H4638 0.950 . S
C4646 C4644 1.391 . S
C4646 C4647 1.400 . S
C4647 C4646 1.400 . S
C4647 C4648 1.398 . S
C4647 C4653 1.491 . S
C4648 H4639 0.950 . S
C4648 C4647 1.398 . S
C4648 C4649 1.391 . S
C4649 H4637 0.950 . S
C4649 C4645 1.393 . S
C4649 C4648 1.391 . S
C4650 H4640 0.950 . S
C4650 C4651 1.386 . S
C4650 C4652 1.391 . S
C4651 C4650 1.386 . S
C4651 C4655 1.393 . S
C4652 H4641 0.950 . S
C4652 C4650 1.391 . S
C4652 C4653 1.400 . S
C4653 C4647 1.491 . S
C4653 C4652 1.400 . S
C4653 C4654 1.398 . S
C4654 H4642 0.950 . S
C4654 C4653 1.398 . S
C4654 C4655 1.391 . S
C4655 H4643 0.950 . S
C4655 C4651 1.393 . S
C4655 C4654 1.391 . S
H4656 C4664 0.950 . S
H4657 C4669 0.950 . S
H4658 C4666 0.950 . S
H4659 C4668 0.950 . S
H4660 C4670 0.950 . S
H4661 C4672 0.950 . S
H4662 C4674 0.950 . S
H4663 C4675 0.950 . S
C4664 H4656 0.950 . S
C4664 C4665 1.386 . S
C4664 C4666 1.391 . S
C4665 C4664 1.386 . S
C4665 C4669 1.393 . S
C4666 H4658 0.950 . S
C4666 C4664 1.391 . S
C4666 C4667 1.400 . S
C4667 C4666 1.400 . S
C4667 C4668 1.398 . S
C4667 C4673 1.491 . S
C4668 H4659 0.950 . S
C4668 C4667 1.398 . S
C4668 C4669 1.391 . S
C4669 H4657 0.950 . S
C4669 C4665 1.393 . S
C4669 C4668 1.391 . S
C4670 H4660 0.950 . S
C4670 C4671 1.386 . S
C4670 C4672 1.391 . S
C4671 C4670 1.386 . S
C4671 C4675 1.393 . S
C4672 H4661 0.950 . S
C4672 C4670 1.391 . S
C4672 C4673 1.400 . S
C4673 C4667 1.491 . S
C4673 C4672 1.400 . S
C4673 C4674 1.398 . S
C4674 H4662 0.950 . S
C4674 C4673 1.398 . S
C4674 C4675 1.391 . S
C4675 H4663 0.950 . S
C4675 C4671 1.393 . S
C4675 C4674 1.391 . S
H4676 C4684 0.950 . S
H4677 C4689 0.950 . S
H4678 C4686 0.950 . S
H4679 C4688 0.950 . S
H4680 C4690 0.950 . S
H4681 C4692 0.950 . S
H4682 C4694 0.950 . S
H4683 C4695 0.950 . S
C4684 H4676 0.950 . S
C4684 C4685 1.386 . S
C4684 C4686 1.391 . S
C4685 C4684 1.386 . S
C4685 C4689 1.393 . S
C4686 H4678 0.950 . S
C4686 C4684 1.391 . S
C4686 C4687 1.400 . S
C4687 C4686 1.400 . S
C4687 C4688 1.398 . S
C4687 C4693 1.491 . S
C4688 H4679 0.950 . S
C4688 C4687 1.398 . S
C4688 C4689 1.391 . S
C4689 H4677 0.950 . S
C4689 C4685 1.393 . S
C4689 C4688 1.391 . S
C4690 H4680 0.950 . S
C4690 C4691 1.386 . S
C4690 C4692 1.391 . S
C4691 C4690 1.386 . S
C4691 C4695 1.393 . S
C4692 H4681 0.950 . S
C4692 C4690 1.391 . S
C4692 C4693 1.400 . S
C4693 C4687 1.491 . S
C4693 C4692 1.400 . S
C4693 C4694 1.398 . S
C4694 H4682 0.950 . S
C4694 C4693 1.398 . S
C4694 C4695 1.391 . S
C4695 H4683 0.950 . S
C4695 C4691 1.393 . S
C4695 C4694 1.391 . S
H4696 C4704 0.950 . S
H4697 C4709 0.950 . S
H4698 C4706 0.950 . S
H4699 C4708 0.950 . S
H4700 C4710 0.950 . S
H4701 C4712 0.950 . S
H4702 C4714 0.950 . S
H4703 C4715 0.950 . S
C4704 H4696 0.950 . S
C4704 C4705 1.386 . S
C4704 C4706 1.391 . S
C4705 C4704 1.386 . S
C4705 C4709 1.393 . S
C4706 H4698 0.950 . S
C4706 C4704 1.391 . S
C4706 C4707 1.400 . S
C4707 C4706 1.400 . S
C4707 C4708 1.398 . S
C4707 C4713 1.491 . S
C4708 H4699 0.950 . S
C4708 C4707 1.398 . S
C4708 C4709 1.391 . S
C4709 H4697 0.950 . S
C4709 C4705 1.393 . S
C4709 C4708 1.391 . S
C4710 H4700 0.950 . S
C4710 C4711 1.386 . S
C4710 C4712 1.391 . S
C4711 C4710 1.386 . S
C4711 C4715 1.393 . S
C4712 H4701 0.950 . S
C4712 C4710 1.391 . S
C4712 C4713 1.400 . S
C4713 C4707 1.491 . S
C4713 C4712 1.400 . S
C4713 C4714 1.398 . S
C4714 H4702 0.950 . S
C4714 C4713 1.398 . S
C4714 C4715 1.391 . S
C4715 H4703 0.950 . S
C4715 C4711 1.393 . S
C4715 C4714 1.391 . S
H4716 C4724 0.950 . S
H4717 C4729 0.950 . S
H4718 C4726 0.950 . S
H4719 C4728 0.950 . S
H4720 C4730 0.950 . S
H4721 C4732 0.950 . S
H4722 C4734 0.950 . S
H4723 C4735 0.950 . S
C4724 H4716 0.950 . S
C4724 C4725 1.386 . S
C4724 C4726 1.391 . S
C4725 C4724 1.386 . S
C4725 C4729 1.393 . S
C4726 H4718 0.950 . S
C4726 C4724 1.391 . S
C4726 C4727 1.400 . S
C4727 C4726 1.400 . S
C4727 C4728 1.398 . S
C4727 C4733 1.491 . S
C4728 H4719 0.950 . S
C4728 C4727 1.398 . S
C4728 C4729 1.391 . S
C4729 H4717 0.950 . S
C4729 C4725 1.393 . S
C4729 C4728 1.391 . S
C4730 H4720 0.950 . S
C4730 C4731 1.386 . S
C4730 C4732 1.391 . S
C4731 C4730 1.386 . S
C4731 C4735 1.393 . S
C4732 H4721 0.950 . S
C4732 C4730 1.391 . S
C4732 C4733 1.400 . S
C4733 C4727 1.491 . S
C4733 C4732 1.400 . S
C4733 C4734 1.398 . S
C4734 H4722 0.950 . S
C4734 C4733 1.398 . S
C4734 C4735 1.391 . S
C4735 H4723 0.950 . S
C4735 C4731 1.393 . S
C4735 C4734 1.391 . S
H4736 C4744 0.950 . S
H4737 C4749 0.950 . S
H4738 C4746 0.950 . S
H4739 C4748 0.950 . S
H4740 C4750 0.950 . S
H4741 C4752 0.950 . S
H4742 C4754 0.950 . S
H4743 C4755 0.950 . S
C4744 H4736 0.950 . S
C4744 C4745 1.386 . S
C4744 C4746 1.391 . S
C4745 C4744 1.386 . S
C4745 C4749 1.393 . S
C4746 H4738 0.950 . S
C4746 C4744 1.391 . S
C4746 C4747 1.400 . S
C4747 C4746 1.400 . S
C4747 C4748 1.398 . S
C4747 C4753 1.491 . S
C4748 H4739 0.950 . S
C4748 C4747 1.398 . S
C4748 C4749 1.391 . S
C4749 H4737 0.950 . S
C4749 C4745 1.393 . S
C4749 C4748 1.391 . S
C4750 H4740 0.950 . S
C4750 C4751 1.386 . S
C4750 C4752 1.391 . S
C4751 C4750 1.386 . S
C4751 C4755 1.393 . S
C4752 H4741 0.950 . S
C4752 C4750 1.391 . S
C4752 C4753 1.400 . S
C4753 C4747 1.491 . S
C4753 C4752 1.400 . S
C4753 C4754 1.398 . S
C4754 H4742 0.950 . S
C4754 C4753 1.398 . S
C4754 C4755 1.391 . S
C4755 H4743 0.950 . S
C4755 C4751 1.393 . S
C4755 C4754 1.391 . S
H4756 C4764 0.950 . S
H4757 C4769 0.950 . S
H4758 C4766 0.950 . S
H4759 C4768 0.950 . S
H4760 C4770 0.950 . S
H4761 C4772 0.950 . S
H4762 C4774 0.950 . S
H4763 C4775 0.950 . S
C4764 H4756 0.950 . S
C4764 C4765 1.386 . S
C4764 C4766 1.391 . S
C4765 C4764 1.386 . S
C4765 C4769 1.393 . S
C4766 H4758 0.950 . S
C4766 C4764 1.391 . S
C4766 C4767 1.400 . S
C4767 C4766 1.400 . S
C4767 C4768 1.398 . S
C4767 C4773 1.491 . S
C4768 H4759 0.950 . S
C4768 C4767 1.398 . S
C4768 C4769 1.391 . S
C4769 H4757 0.950 . S
C4769 C4765 1.393 . S
C4769 C4768 1.391 . S
C4770 H4760 0.950 . S
C4770 C4771 1.386 . S
C4770 C4772 1.391 . S
C4771 C4770 1.386 . S
C4771 C4775 1.393 . S
C4772 H4761 0.950 . S
C4772 C4770 1.391 . S
C4772 C4773 1.400 . S
C4773 C4767 1.491 . S
C4773 C4772 1.400 . S
C4773 C4774 1.398 . S
C4774 H4762 0.950 . S
C4774 C4773 1.398 . S
C4774 C4775 1.391 . S
C4775 H4763 0.950 . S
C4775 C4771 1.393 . S
C4775 C4774 1.391 . S
H4776 C4784 0.950 . S
H4777 C4789 0.950 . S
H4778 C4786 0.950 . S
H4779 C4788 0.950 . S
H4780 C4790 0.950 . S
H4781 C4792 0.950 . S
H4782 C4794 0.950 . S
H4783 C4795 0.950 . S
C4784 H4776 0.950 . S
C4784 C4785 1.386 . S
C4784 C4786 1.391 . S
C4785 C4784 1.386 . S
C4785 C4789 1.393 . S
C4786 H4778 0.950 . S
C4786 C4784 1.391 . S
C4786 C4787 1.400 . S
C4787 C4786 1.400 . S
C4787 C4788 1.398 . S
C4787 C4793 1.491 . S
C4788 H4779 0.950 . S
C4788 C4787 1.398 . S
C4788 C4789 1.391 . S
C4789 H4777 0.950 . S
C4789 C4785 1.393 . S
C4789 C4788 1.391 . S
C4790 H4780 0.950 . S
C4790 C4791 1.386 . S
C4790 C4792 1.391 . S
C4791 C4790 1.386 . S
C4791 C4795 1.393 . S
C4792 H4781 0.950 . S
C4792 C4790 1.391 . S
C4792 C4793 1.400 . S
C4793 C4787 1.491 . S
C4793 C4792 1.400 . S
C4793 C4794 1.398 . S
C4794 H4782 0.950 . S
C4794 C4793 1.398 . S
C4794 C4795 1.391 . S
C4795 H4783 0.950 . S
C4795 C4791 1.393 . S
C4795 C4794 1.391 . S
H4796 C4804 0.950 1_546 S
H4797 C4809 0.950 . S
H4798 C4806 0.966 . S
H4799 C4808 0.950 . S
H4800 C4810 0.950 . S
H4801 C4812 0.950 . S
H4802 C4814 0.978 . S
H4803 C4815 0.950 . S
C4804 H4796 0.950 1_564 S
C4804 C4805 1.386 . S
C4804 C4806 1.391 1_565 S
C4805 C4804 1.386 . S
C4805 C4809 1.393 . S
C4806 H4798 0.966 . S
C4806 C4804 1.391 1_545 S
C4806 C4807 1.400 1_545 S
C4807 C4806 1.400 1_565 S
C4807 C4808 1.398 . S
C4807 C4813 1.491 . S
C4808 H4799 0.950 . S
C4808 C4807 1.398 . S
C4808 C4809 1.391 . S
C4809 H4797 0.950 . S
C4809 C4805 1.393 . S
C4809 C4808 1.391 . S
C4810 H4800 0.950 . S
C4810 C4811 1.386 1_565 S
C4810 C4812 1.391 . S
C4811 C4810 1.386 1_545 S
C4811 C4815 1.393 . S
C4812 H4801 0.950 . S
C4812 C4810 1.391 . S
C4812 C4813 1.400 . S
C4813 C4807 1.491 . S
C4813 C4812 1.400 . S
C4813 C4814 1.398 1_565 S
C4814 H4802 0.978 . S
C4814 C4813 1.398 1_545 S
C4814 C4815 1.391 . S
C4815 H4803 0.950 . S
C4815 C4811 1.393 . S
C4815 C4814 1.391 . S
H4816 C4824 0.950 . S
H4817 C4829 0.950 . S
H4818 C4826 0.950 . S
H4819 C4828 0.950 . S
H4820 C4830 0.950 . S
H4821 C4832 0.950 . S
H4822 C4834 0.950 . S
H4823 C4835 0.950 . S
C4824 H4816 0.950 . S
C4824 C4825 1.386 . S
C4824 C4826 1.391 . S
C4825 C4824 1.386 . S
C4825 C4829 1.393 . S
C4826 H4818 0.950 . S
C4826 C4824 1.391 . S
C4826 C4827 1.400 . S
C4827 C4826 1.400 . S
C4827 C4828 1.398 . S
C4827 C4833 1.491 . S
C4828 H4819 0.950 . S
C4828 C4827 1.398 . S
C4828 C4829 1.391 . S
C4829 H4817 0.950 . S
C4829 C4825 1.393 . S
C4829 C4828 1.391 . S
C4830 H4820 0.950 . S
C4830 C4831 1.386 . S
C4830 C4832 1.391 . S
C4831 C4830 1.386 . S
C4831 C4835 1.393 . S
C4832 H4821 0.950 . S
C4832 C4830 1.391 . S
C4832 C4833 1.400 . S
C4833 C4827 1.491 . S
C4833 C4832 1.400 . S
C4833 C4834 1.398 . S
C4834 H4822 0.950 . S
C4834 C4833 1.398 . S
C4834 C4835 1.391 . S
C4835 H4823 0.950 . S
C4835 C4831 1.393 . S
C4835 C4834 1.391 . S
H4836 C4844 0.950 . S
H4837 C4849 0.950 . S
H4838 C4846 0.950 . S
H4839 C4848 0.950 . S
H4840 C4850 0.950 . S
H4841 C4852 0.950 . S
H4842 C4854 0.950 . S
H4843 C4855 0.950 . S
C4844 H4836 0.950 . S
C4844 C4845 1.386 . S
C4844 C4846 1.391 . S
C4845 C4844 1.386 . S
C4845 C4849 1.393 . S
C4846 H4838 0.950 . S
C4846 C4844 1.391 . S
C4846 C4847 1.400 . S
C4847 C4846 1.400 . S
C4847 C4848 1.398 . S
C4847 C4853 1.491 . S
C4848 H4839 0.950 . S
C4848 C4847 1.398 . S
C4848 C4849 1.391 . S
C4849 H4837 0.950 . S
C4849 C4845 1.393 . S
C4849 C4848 1.391 . S
C4850 H4840 0.950 . S
C4850 C4851 1.386 . S
C4850 C4852 1.391 . S
C4851 C4850 1.386 . S
C4851 C4855 1.393 . S
C4852 H4841 0.950 . S
C4852 C4850 1.391 . S
C4852 C4853 1.400 . S
C4853 C4847 1.491 . S
C4853 C4852 1.400 . S
C4853 C4854 1.398 . S
C4854 H4842 0.950 . S
C4854 C4853 1.398 . S
C4854 C4855 1.391 . S
C4855 H4843 0.950 . S
C4855 C4851 1.393 . S
C4855 C4854 1.391 . S
H4856 C4864 0.950 . S
H4857 C4869 0.950 . S
H4858 C4866 0.950 . S
H4859 C4868 0.950 . S
H4860 C4870 0.950 . S
H4861 C4872 0.950 . S
H4862 C4874 0.950 . S
H4863 C4875 0.950 . S
C4864 H4856 0.950 . S
C4864 C4865 1.386 . S
C4864 C4866 1.391 . S
C4865 C4864 1.386 . S
C4865 C4869 1.393 . S
C4866 H4858 0.950 . S
C4866 C4864 1.391 . S
C4866 C4867 1.400 . S
C4867 C4866 1.400 . S
C4867 C4868 1.398 . S
C4867 C4873 1.491 . S
C4868 H4859 0.950 . S
C4868 C4867 1.398 . S
C4868 C4869 1.391 . S
C4869 H4857 0.950 . S
C4869 C4865 1.393 . S
C4869 C4868 1.391 . S
C4870 H4860 0.950 . S
C4870 C4871 1.386 . S
C4870 C4872 1.391 . S
C4871 C4870 1.386 . S
C4871 C4875 1.393 . S
C4872 H4861 0.950 . S
C4872 C4870 1.391 . S
C4872 C4873 1.400 . S
C4873 C4867 1.491 . S
C4873 C4872 1.400 . S
C4873 C4874 1.398 . S
C4874 H4862 0.950 . S
C4874 C4873 1.398 . S
C4874 C4875 1.391 . S
C4875 H4863 0.950 . S
C4875 C4871 1.393 . S
C4875 C4874 1.391 . S
H4876 C4884 0.950 . S
H4877 C4889 0.950 . S
H4878 C4886 0.950 . S
H4879 C4888 0.950 . S
H4880 C4890 0.950 . S
H4881 C4892 0.950 . S
H4882 C4894 0.950 . S
H4883 C4895 0.950 . S
C4884 H4876 0.950 . S
C4884 C4885 1.386 . S
C4884 C4886 1.391 . S
C4885 C4884 1.386 . S
C4885 C4889 1.393 . S
C4886 H4878 0.950 . S
C4886 C4884 1.391 . S
C4886 C4887 1.400 . S
C4887 C4886 1.400 . S
C4887 C4888 1.398 . S
C4887 C4893 1.491 . S
C4888 H4879 0.950 . S
C4888 C4887 1.398 . S
C4888 C4889 1.391 . S
C4889 H4877 0.950 . S
C4889 C4885 1.393 . S
C4889 C4888 1.391 . S
C4890 H4880 0.950 . S
C4890 C4891 1.386 . S
C4890 C4892 1.391 . S
C4891 C4890 1.386 . S
C4891 C4895 1.393 . S
C4892 H4881 0.950 . S
C4892 C4890 1.391 . S
C4892 C4893 1.400 . S
C4893 C4887 1.491 . S
C4893 C4892 1.400 . S
C4893 C4894 1.398 . S
C4894 H4882 0.950 . S
C4894 C4893 1.398 . S
C4894 C4895 1.391 . S
C4895 H4883 0.950 . S
C4895 C4891 1.393 . S
C4895 C4894 1.391 . S
H4896 C4904 0.950 . S
H4897 C4909 0.950 . S
H4898 C4906 0.950 . S
H4899 C4908 0.950 . S
H4900 C4910 0.950 . S
H4901 C4912 0.950 . S
H4902 C4914 0.950 . S
H4903 C4915 0.950 . S
C4904 H4896 0.950 . S
C4904 C4905 1.386 . S
C4904 C4906 1.391 . S
C4905 C4904 1.386 . S
C4905 C4909 1.393 . S
C4906 H4898 0.950 . S
C4906 C4904 1.391 . S
C4906 C4907 1.400 . S
C4907 C4906 1.400 . S
C4907 C4908 1.398 . S
C4907 C4913 1.491 . S
C4908 H4899 0.950 . S
C4908 C4907 1.398 . S
C4908 C4909 1.391 . S
C4909 H4897 0.950 . S
C4909 C4905 1.393 . S
C4909 C4908 1.391 . S
C4910 H4900 0.950 . S
C4910 C4911 1.386 . S
C4910 C4912 1.391 . S
C4911 C4910 1.386 . S
C4911 C4915 1.393 . S
C4912 H4901 0.950 . S
C4912 C4910 1.391 . S
C4912 C4913 1.400 . S
C4913 C4907 1.491 . S
C4913 C4912 1.400 . S
C4913 C4914 1.398 . S
C4914 H4902 0.950 . S
C4914 C4913 1.398 . S
C4914 C4915 1.391 . S
C4915 H4903 0.950 . S
C4915 C4911 1.393 . S
C4915 C4914 1.391 . S
H4916 C4924 0.950 . S
H4917 C4929 0.950 . S
H4918 C4926 0.950 . S
H4919 C4928 0.950 . S
H4920 C4930 0.950 . S
H4921 C4932 0.950 . S
H4922 C4934 0.950 . S
H4923 C4935 0.950 . S
C4924 H4916 0.950 . S
C4924 C4925 1.386 . S
C4924 C4926 1.391 . S
C4925 C4924 1.386 . S
C4925 C4929 1.393 . S
C4926 H4918 0.950 . S
C4926 C4924 1.391 . S
C4926 C4927 1.400 . S
C4927 C4926 1.400 . S
C4927 C4928 1.398 . S
C4927 C4933 1.491 . S
C4928 H4919 0.950 . S
C4928 C4927 1.398 . S
C4928 C4929 1.391 . S
C4929 H4917 0.950 . S
C4929 C4925 1.393 . S
C4929 C4928 1.391 . S
C4930 H4920 0.950 . S
C4930 C4931 1.386 . S
C4930 C4932 1.391 . S
C4931 C4930 1.386 . S
C4931 C4935 1.393 . S
C4932 H4921 0.950 . S
C4932 C4930 1.391 . S
C4932 C4933 1.400 . S
C4933 C4927 1.491 . S
C4933 C4932 1.400 . S
C4933 C4934 1.398 . S
C4934 H4922 0.950 . S
C4934 C4933 1.398 . S
C4934 C4935 1.391 . S
C4935 H4923 0.950 . S
C4935 C4931 1.393 . S
C4935 C4934 1.391 . S
H4936 C4944 0.950 . S
H4937 C4949 0.950 . S
H4938 C4946 0.950 . S
H4939 C4948 0.950 . S
H4940 C4950 0.950 . S
H4941 C4952 0.950 . S
H4942 C4954 0.950 . S
H4943 C4955 0.950 . S
C4944 H4936 0.950 . S
C4944 C4945 1.386 . S
C4944 C4946 1.391 . S
C4945 C4944 1.386 . S
C4945 C4949 1.393 . S
C4946 H4938 0.950 . S
C4946 C4944 1.391 . S
C4946 C4947 1.400 . S
C4947 C4946 1.400 . S
C4947 C4948 1.398 . S
C4947 C4953 1.491 . S
C4948 H4939 0.950 . S
C4948 C4947 1.398 . S
C4948 C4949 1.391 . S
C4949 H4937 0.950 . S
C4949 C4945 1.393 . S
C4949 C4948 1.391 . S
C4950 H4940 0.950 . S
C4950 C4951 1.386 . S
C4950 C4952 1.391 . S
C4951 C4950 1.386 . S
C4951 C4955 1.393 . S
C4952 H4941 0.950 . S
C4952 C4950 1.391 . S
C4952 C4953 1.400 . S
C4953 C4947 1.491 . S
C4953 C4952 1.400 . S
C4953 C4954 1.398 . S
C4954 H4942 0.950 . S
C4954 C4953 1.398 . S
C4954 C4955 1.391 . S
C4955 H4943 0.950 . S
C4955 C4951 1.393 . S
C4955 C4954 1.391 . S
H4956 C4964 0.950 . S
H4957 C4969 0.950 . S
H4958 C4966 0.950 . S
H4959 C4968 0.950 . S
H4960 C4970 0.950 . S
H4961 C4972 0.950 . S
H4962 C4974 0.950 . S
H4963 C4975 0.950 . S
C4964 H4956 0.950 . S
C4964 C4965 1.386 . S
C4964 C4966 1.391 . S
C4965 C4964 1.386 . S
C4965 C4969 1.393 . S
C4966 H4958 0.950 . S
C4966 C4964 1.391 . S
C4966 C4967 1.400 . S
C4967 C4966 1.400 . S
C4967 C4968 1.398 . S
C4967 C4973 1.491 . S
C4968 H4959 0.950 . S
C4968 C4967 1.398 . S
C4968 C4969 1.391 . S
C4969 H4957 0.950 . S
C4969 C4965 1.393 . S
C4969 C4968 1.391 . S
C4970 H4960 0.950 . S
C4970 C4971 1.386 . S
C4970 C4972 1.391 . S
C4971 C4970 1.386 . S
C4971 C4975 1.393 . S
C4972 H4961 0.950 . S
C4972 C4970 1.391 . S
C4972 C4973 1.400 . S
C4973 C4967 1.491 . S
C4973 C4972 1.400 . S
C4973 C4974 1.398 . S
C4974 H4962 0.950 . S
C4974 C4973 1.398 . S
C4974 C4975 1.391 . S
C4975 H4963 0.950 . S
C4975 C4971 1.393 . S
C4975 C4974 1.391 . S
H4976 C4984 0.950 . S
H4977 C4989 0.950 . S
H4978 C4986 0.950 . S
H4979 C4988 0.950 . S
H4980 C4990 0.950 . S
H4981 C4992 0.950 . S
H4982 C4994 0.950 . S
H4983 C4995 0.950 . S
C4984 H4976 0.950 . S
C4984 C4985 1.386 . S
C4984 C4986 1.391 . S
C4985 C4984 1.386 . S
C4985 C4989 1.393 . S
C4986 H4978 0.950 . S
C4986 C4984 1.391 . S
C4986 C4987 1.400 . S
C4987 C4986 1.400 . S
C4987 C4988 1.398 . S
C4987 C4993 1.491 . S
C4988 H4979 0.950 . S
C4988 C4987 1.398 . S
C4988 C4989 1.391 . S
C4989 H4977 0.950 . S
C4989 C4985 1.393 . S
C4989 C4988 1.391 . S
C4990 H4980 0.950 . S
C4990 C4991 1.386 . S
C4990 C4992 1.391 . S
C4991 C4990 1.386 . S
C4991 C4995 1.393 . S
C4992 H4981 0.950 . S
C4992 C4990 1.391 . S
C4992 C4993 1.400 . S
C4993 C4987 1.491 . S
C4993 C4992 1.400 . S
C4993 C4994 1.398 . S
C4994 H4982 0.950 . S
C4994 C4993 1.398 . S
C4994 C4995 1.391 . S
C4995 H4983 0.950 . S
C4995 C4991 1.393 . S
C4995 C4994 1.391 . S
H4996 C5004 0.950 . S
H4997 C5009 0.950 . S
H4998 C5006 0.950 . S
H4999 C5008 0.950 . S
H5000 C5010 0.950 . S
H5001 C5012 0.950 . S
H5002 C5014 0.950 . S
H5003 C5015 0.950 . S
C5004 H4996 0.950 . S
C5004 C5005 1.386 . S
C5004 C5006 1.391 . S
C5005 C5004 1.386 . S
C5005 C5009 1.393 . S
C5006 H4998 0.950 . S
C5006 C5004 1.391 . S
C5006 C5007 1.400 . S
C5007 C5006 1.400 . S
C5007 C5008 1.398 . S
C5007 C5013 1.491 . S
C5008 H4999 0.950 . S
C5008 C5007 1.398 . S
C5008 C5009 1.391 . S
C5009 H4997 0.950 . S
C5009 C5005 1.393 . S
C5009 C5008 1.391 . S
C5010 H5000 0.950 . S
C5010 C5011 1.386 . S
C5010 C5012 1.391 . S
C5011 C5010 1.386 . S
C5011 C5015 1.393 . S
C5012 H5001 0.950 . S
C5012 C5010 1.391 . S
C5012 C5013 1.400 . S
C5013 C5007 1.491 . S
C5013 C5012 1.400 . S
C5013 C5014 1.398 . S
C5014 H5002 0.950 . S
C5014 C5013 1.398 . S
C5014 C5015 1.391 . S
C5015 H5003 0.950 . S
C5015 C5011 1.393 . S
C5015 C5014 1.391 . S
H5016 C5024 0.950 . S
H5017 C5029 0.950 . S
H5018 C5026 0.950 . S
H5019 C5028 0.950 . S
H5020 C5030 0.950 . S
H5021 C5032 0.950 . S
H5022 C5034 0.950 . S
H5023 C5035 0.950 . S
C5024 H5016 0.950 . S
C5024 C5025 1.386 . S
C5024 C5026 1.391 . S
C5025 C5024 1.386 . S
C5025 C5029 1.393 . S
C5026 H5018 0.950 . S
C5026 C5024 1.391 . S
C5026 C5027 1.400 . S
C5027 C5026 1.400 . S
C5027 C5028 1.398 . S
C5027 C5033 1.491 . S
C5028 H5019 0.950 . S
C5028 C5027 1.398 . S
C5028 C5029 1.391 . S
C5029 H5017 0.950 . S
C5029 C5025 1.393 . S
C5029 C5028 1.391 . S
C5030 H5020 0.950 . S
C5030 C5031 1.386 . S
C5030 C5032 1.391 . S
C5031 C5030 1.386 . S
C5031 C5035 1.393 . S
C5032 H5021 0.950 . S
C5032 C5030 1.391 . S
C5032 C5033 1.400 . S
C5033 C5027 1.491 . S
C5033 C5032 1.400 . S
C5033 C5034 1.398 . S
C5034 H5022 0.950 . S
C5034 C5033 1.398 . S
C5034 C5035 1.391 . S
C5035 H5023 0.950 . S
C5035 C5031 1.393 . S
C5035 C5034 1.391 . S
H5036 C5044 0.950 . S
H5037 C5049 0.950 . S
H5038 C5046 0.950 . S
H5039 C5048 0.950 . S
H5040 C5050 0.950 . S
H5041 C5052 0.950 . S
H5042 C5054 0.950 . S
H5043 C5055 0.950 . S
C5044 H5036 0.950 . S
C5044 C5045 1.386 . S
C5044 C5046 1.391 . S
C5045 C5044 1.386 . S
C5045 C5049 1.393 . S
C5046 H5038 0.950 . S
C5046 C5044 1.391 . S
C5046 C5047 1.400 . S
C5047 C5046 1.400 . S
C5047 C5048 1.398 . S
C5047 C5053 1.491 . S
C5048 H5039 0.950 . S
C5048 C5047 1.398 . S
C5048 C5049 1.391 . S
C5049 H5037 0.950 . S
C5049 C5045 1.393 . S
C5049 C5048 1.391 . S
C5050 H5040 0.950 . S
C5050 C5051 1.386 . S
C5050 C5052 1.391 . S
C5051 C5050 1.386 . S
C5051 C5055 1.393 . S
C5052 H5041 0.950 . S
C5052 C5050 1.391 . S
C5052 C5053 1.400 . S
C5053 C5047 1.491 . S
C5053 C5052 1.400 . S
C5053 C5054 1.398 . S
C5054 H5042 0.950 . S
C5054 C5053 1.398 . S
C5054 C5055 1.391 . S
C5055 H5043 0.950 . S
C5055 C5051 1.393 . S
C5055 C5054 1.391 . S
H5056 C5064 0.950 . S
H5057 C5069 0.950 . S
H5058 C5066 0.950 . S
H5059 C5068 0.950 . S
H5060 C5070 0.950 . S
H5061 C5072 0.950 . S
H5062 C5074 0.950 . S
H5063 C5075 0.950 . S
C5064 H5056 0.950 . S
C5064 C5065 1.386 . S
C5064 C5066 1.391 . S
C5065 C5064 1.386 . S
C5065 C5069 1.393 . S
C5066 H5058 0.950 . S
C5066 C5064 1.391 . S
C5066 C5067 1.400 . S
C5067 C5066 1.400 . S
C5067 C5068 1.398 . S
C5067 C5073 1.491 . S
C5068 H5059 0.950 . S
C5068 C5067 1.398 . S
C5068 C5069 1.391 . S
C5069 H5057 0.950 . S
C5069 C5065 1.393 . S
C5069 C5068 1.391 . S
C5070 H5060 0.950 . S
C5070 C5071 1.386 . S
C5070 C5072 1.391 . S
C5071 C5070 1.386 . S
C5071 C5075 1.393 . S
C5072 H5061 0.950 . S
C5072 C5070 1.391 . S
C5072 C5073 1.400 . S
C5073 C5067 1.491 . S
C5073 C5072 1.400 . S
C5073 C5074 1.398 . S
C5074 H5062 0.950 . S
C5074 C5073 1.398 . S
C5074 C5075 1.391 . S
C5075 H5063 0.950 . S
C5075 C5071 1.393 . S
C5075 C5074 1.391 . S
H5076 C5084 0.950 . S
H5077 C5089 0.950 . S
H5078 C5086 0.950 . S
H5079 C5088 0.950 . S
H5080 C5090 0.950 . S
H5081 C5092 0.950 . S
H5082 C5094 0.950 . S
H5083 C5095 0.950 . S
C5084 H5076 0.950 . S
C5084 C5085 1.386 . S
C5084 C5086 1.391 . S
C5085 C5084 1.386 . S
C5085 C5089 1.393 . S
C5086 H5078 0.950 . S
C5086 C5084 1.391 . S
C5086 C5087 1.400 . S
C5087 C5086 1.400 . S
C5087 C5088 1.398 . S
C5087 C5093 1.491 . S
C5088 H5079 0.950 . S
C5088 C5087 1.398 . S
C5088 C5089 1.391 . S
C5089 H5077 0.950 . S
C5089 C5085 1.393 . S
C5089 C5088 1.391 . S
C5090 H5080 0.950 . S
C5090 C5091 1.386 . S
C5090 C5092 1.391 . S
C5091 C5090 1.386 . S
C5091 C5095 1.393 . S
C5092 H5081 0.950 . S
C5092 C5090 1.391 . S
C5092 C5093 1.400 . S
C5093 C5087 1.491 . S
C5093 C5092 1.400 . S
C5093 C5094 1.398 . S
C5094 H5082 0.950 . S
C5094 C5093 1.398 . S
C5094 C5095 1.391 . S
C5095 H5083 0.950 . S
C5095 C5091 1.393 . S
C5095 C5094 1.391 . S
H5096 C5104 0.950 . S
H5097 C5109 0.950 . S
H5098 C5106 0.950 . S
H5099 C5108 0.950 . S
H5100 C5110 0.950 . S
H5101 C5112 0.950 . S
H5102 C5114 0.950 . S
H5103 C5115 0.950 . S
C5104 H5096 0.950 . S
C5104 C5105 1.386 . S
C5104 C5106 1.391 . S
C5105 C5104 1.386 . S
C5105 C5109 1.393 . S
C5106 H5098 0.950 . S
C5106 C5104 1.391 . S
C5106 C5107 1.400 . S
C5107 C5106 1.400 . S
C5107 C5108 1.398 . S
C5107 C5113 1.491 . S
C5108 H5099 0.950 . S
C5108 C5107 1.398 . S
C5108 C5109 1.391 . S
C5109 H5097 0.950 . S
C5109 C5105 1.393 . S
C5109 C5108 1.391 . S
C5110 H5100 0.950 . S
C5110 C5111 1.361 1_455 S
C5110 C5112 1.391 1_455 S
C5111 C5110 1.361 1_655 S
C5111 C5115 1.447 . S
C5112 H5101 0.950 . S
C5112 C5110 1.391 1_655 S
C5112 C5113 1.400 . S
C5113 C5107 1.491 . S
C5113 C5112 1.400 . S
C5113 C5114 1.398 . S
C5114 H5102 0.950 . S
C5114 C5113 1.398 . S
C5114 C5115 1.391 . S
C5115 H5103 0.950 . S
C5115 C5111 1.447 . S
C5115 C5114 1.391 . S
H5116 C5124 0.950 . S
H5117 C5129 0.950 . S
H5118 C5126 0.950 . S
H5119 C5128 0.950 . S
H5120 C5130 0.950 . S
H5121 C5132 0.950 . S
H5122 C5134 0.950 . S
H5123 C5135 0.950 . S
C5124 H5116 0.950 . S
C5124 C5125 1.386 . S
C5124 C5126 1.391 . S
C5125 C5124 1.386 . S
C5125 C5129 1.393 . S
C5126 H5118 0.950 . S
C5126 C5124 1.391 . S
C5126 C5127 1.400 . S
C5127 C5126 1.400 . S
C5127 C5128 1.398 . S
C5127 C5133 1.491 . S
C5128 H5119 0.950 . S
C5128 C5127 1.398 . S
C5128 C5129 1.391 . S
C5129 H5117 0.950 . S
C5129 C5125 1.393 . S
C5129 C5128 1.391 . S
C5130 H5120 0.950 . S
C5130 C5131 1.386 . S
C5130 C5132 1.391 . S
C5131 C5130 1.386 . S
C5131 C5135 1.393 . S
C5132 H5121 0.950 . S
C5132 C5130 1.391 . S
C5132 C5133 1.400 . S
C5133 C5127 1.491 . S
C5133 C5132 1.400 . S
C5133 C5134 1.398 . S
C5134 H5122 0.950 . S
C5134 C5133 1.398 . S
C5134 C5135 1.391 . S
C5135 H5123 0.950 . S
C5135 C5131 1.393 . S
C5135 C5134 1.391 . S
H5136 C5144 0.950 . S
H5137 C5149 0.950 . S
H5138 C5146 0.950 . S
H5139 C5148 0.950 . S
H5140 C5150 0.950 . S
H5141 C5152 0.950 . S
H5142 C5154 0.950 . S
H5143 C5155 0.950 . S
C5144 H5136 0.950 . S
C5144 C5145 1.386 . S
C5144 C5146 1.391 . S
C5145 C5144 1.386 . S
C5145 C5149 1.393 . S
C5146 H5138 0.950 . S
C5146 C5144 1.391 . S
C5146 C5147 1.400 . S
C5147 C5146 1.400 . S
C5147 C5148 1.398 . S
C5147 C5153 1.491 . S
C5148 H5139 0.950 . S
C5148 C5147 1.398 . S
C5148 C5149 1.391 . S
C5149 H5137 0.950 . S
C5149 C5145 1.393 . S
C5149 C5148 1.391 . S
C5150 H5140 0.950 . S
C5150 C5151 1.386 . S
C5150 C5152 1.391 . S
C5151 C5150 1.386 . S
C5151 C5155 1.393 . S
C5152 H5141 0.950 . S
C5152 C5150 1.391 . S
C5152 C5153 1.400 . S
C5153 C5147 1.491 . S
C5153 C5152 1.400 . S
C5153 C5154 1.398 . S
C5154 H5142 0.950 . S
C5154 C5153 1.398 . S
C5154 C5155 1.391 . S
C5155 H5143 0.950 . S
C5155 C5151 1.393 . S
C5155 C5154 1.391 . S
H5156 C5164 0.950 . S
H5157 C5169 0.950 . S
H5158 C5166 0.950 . S
H5159 C5168 0.950 . S
H5160 C5170 0.950 . S
H5161 C5172 0.950 . S
H5162 C5174 0.950 . S
H5163 C5175 0.950 . S
C5164 H5156 0.950 . S
C5164 C5165 1.386 . S
C5164 C5166 1.391 . S
C5165 C5164 1.386 . S
C5165 C5169 1.393 . S
C5166 H5158 0.950 . S
C5166 C5164 1.391 . S
C5166 C5167 1.400 . S
C5167 C5166 1.400 . S
C5167 C5168 1.398 . S
C5167 C5173 1.491 . S
C5168 H5159 0.950 . S
C5168 C5167 1.398 . S
C5168 C5169 1.391 . S
C5169 H5157 0.950 . S
C5169 C5165 1.393 . S
C5169 C5168 1.391 . S
C5170 H5160 0.950 . S
C5170 C5171 1.386 . S
C5170 C5172 1.391 . S
C5171 C5170 1.386 . S
C5171 C5175 1.393 . S
C5172 H5161 0.950 . S
C5172 C5170 1.391 . S
C5172 C5173 1.400 . S
C5173 C5167 1.491 . S
C5173 C5172 1.400 . S
C5173 C5174 1.398 . S
C5174 H5162 0.950 . S
C5174 C5173 1.398 . S
C5174 C5175 1.391 . S
C5175 H5163 0.950 . S
C5175 C5171 1.393 . S
C5175 C5174 1.391 . S
H5176 C5184 0.950 . S
H5177 C5189 0.950 . S
H5178 C5186 0.950 . S
H5179 C5188 0.950 . S
H5180 C5190 0.950 . S
H5181 C5192 0.950 . S
H5182 C5194 0.950 . S
H5183 C5195 0.950 . S
C5184 H5176 0.950 . S
C5184 C5185 1.386 . S
C5184 C5186 1.391 . S
C5185 C5184 1.386 . S
C5185 C5189 1.393 . S
C5186 H5178 0.950 . S
C5186 C5184 1.391 . S
C5186 C5187 1.400 . S
C5187 C5186 1.400 . S
C5187 C5188 1.398 . S
C5187 C5193 1.491 . S
C5188 H5179 0.950 . S
C5188 C5187 1.398 . S
C5188 C5189 1.391 . S
C5189 H5177 0.950 . S
C5189 C5185 1.393 . S
C5189 C5188 1.391 . S
C5190 H5180 0.950 . S
C5190 C5191 1.386 . S
C5190 C5192 1.391 . S
C5191 C5190 1.386 . S
C5191 C5195 1.393 . S
C5192 H5181 0.950 . S
C5192 C5190 1.391 . S
C5192 C5193 1.400 . S
C5193 C5187 1.491 . S
C5193 C5192 1.400 . S
C5193 C5194 1.398 . S
C5194 H5182 0.950 . S
C5194 C5193 1.398 . S
C5194 C5195 1.391 . S
C5195 H5183 0.950 . S
C5195 C5191 1.393 . S
C5195 C5194 1.391 . S
H5196 C5204 0.950 . S
H5197 C5209 0.950 . S
H5198 C5206 0.950 . S
H5199 C5208 0.950 . S
H5200 C5210 0.950 . S
H5201 C5212 0.950 . S
H5202 C5214 0.950 . S
H5203 C5215 0.950 . S
C5204 H5196 0.950 . S
C5204 C5205 1.386 . S
C5204 C5206 1.391 . S
C5205 C5204 1.386 . S
C5205 C5209 1.393 . S
C5206 H5198 0.950 . S
C5206 C5204 1.391 . S
C5206 C5207 1.400 . S
C5207 C5206 1.400 . S
C5207 C5208 1.398 . S
C5207 C5213 1.491 . S
C5208 H5199 0.950 . S
C5208 C5207 1.398 . S
C5208 C5209 1.391 . S
C5209 H5197 0.950 . S
C5209 C5205 1.393 . S
C5209 C5208 1.391 . S
C5210 H5200 0.950 . S
C5210 C5211 1.386 . S
C5210 C5212 1.391 . S
C5211 C5210 1.386 . S
C5211 C5215 1.393 . S
C5212 H5201 0.950 . S
C5212 C5210 1.391 . S
C5212 C5213 1.400 . S
C5213 C5207 1.491 . S
C5213 C5212 1.400 . S
C5213 C5214 1.398 . S
C5214 H5202 0.950 . S
C5214 C5213 1.398 . S
C5214 C5215 1.391 . S
C5215 H5203 0.950 . S
C5215 C5211 1.393 . S
C5215 C5214 1.391 . S
H5216 C5224 0.950 . S
H5217 C5229 0.950 . S
H5218 C5226 0.950 . S
H5219 C5228 0.950 . S
H5220 C5230 0.950 . S
H5221 C5232 0.950 . S
H5222 C5234 0.950 . S
H5223 C5235 0.950 . S
C5224 H5216 0.950 . S
C5224 C5225 1.386 . S
C5224 C5226 1.391 . S
C5225 C5224 1.386 . S
C5225 C5229 1.393 . S
C5226 H5218 0.950 . S
C5226 C5224 1.391 . S
C5226 C5227 1.400 . S
C5227 C5226 1.400 . S
C5227 C5228 1.398 . S
C5227 C5233 1.491 . S
C5228 H5219 0.950 . S
C5228 C5227 1.398 . S
C5228 C5229 1.391 . S
C5229 H5217 0.950 . S
C5229 C5225 1.393 . S
C5229 C5228 1.391 . S
C5230 H5220 0.950 . S
C5230 C5231 1.386 . S
C5230 C5232 1.391 . S
C5231 C5230 1.386 . S
C5231 C5235 1.393 . S
C5232 H5221 0.950 . S
C5232 C5230 1.391 . S
C5232 C5233 1.400 . S
C5233 C5227 1.491 . S
C5233 C5232 1.400 . S
C5233 C5234 1.398 . S
C5234 H5222 0.950 . S
C5234 C5233 1.398 . S
C5234 C5235 1.391 . S
C5235 H5223 0.950 . S
C5235 C5231 1.393 . S
C5235 C5234 1.391 . S
H5236 C5244 0.950 . S
H5237 C5249 0.950 . S
H5238 C5246 0.950 . S
H5239 C5248 0.950 . S
H5240 C5250 0.950 . S
H5241 C5252 0.950 . S
H5242 C5254 0.950 . S
H5243 C5255 0.950 . S
C5244 H5236 0.950 . S
C5244 C5245 1.386 . S
C5244 C5246 1.391 . S
C5245 C5244 1.386 . S
C5245 C5249 1.393 . S
C5246 H5238 0.950 . S
C5246 C5244 1.391 . S
C5246 C5247 1.400 . S
C5247 C5246 1.400 . S
C5247 C5248 1.398 . S
C5247 C5253 1.491 . S
C5248 H5239 0.950 . S
C5248 C5247 1.398 . S
C5248 C5249 1.391 . S
C5249 H5237 0.950 . S
C5249 C5245 1.393 . S
C5249 C5248 1.391 . S
C5250 H5240 0.950 . S
C5250 C5251 1.386 1_545 S
C5250 C5252 1.391 1_545 S
C5251 C5250 1.386 1_565 S
C5251 C5255 1.393 . S
C5252 H5241 0.950 . S
C5252 C5250 1.391 1_565 S
C5252 C5253 1.400 . S
C5253 C5247 1.491 . S
C5253 C5252 1.400 . S
C5253 C5254 1.398 . S
C5254 H5242 0.950 . S
C5254 C5253 1.398 . S
C5254 C5255 1.391 . S
C5255 H5243 0.950 . S
C5255 C5251 1.393 . S
C5255 C5254 1.391 . S
H5256 C5264 0.950 . S
H5257 C5269 0.950 . S
H5258 C5266 0.950 . S
H5259 C5268 0.950 . S
H5260 C5270 0.950 . S
H5261 C5272 0.950 . S
H5262 C5274 0.950 . S
H5263 C5275 0.950 . S
C5264 H5256 0.950 . S
C5264 C5265 1.386 . S
C5264 C5266 1.391 . S
C5265 C5264 1.386 . S
C5265 C5269 1.393 . S
C5266 H5258 0.950 . S
C5266 C5264 1.391 . S
C5266 C5267 1.400 . S
C5267 C5266 1.400 . S
C5267 C5268 1.398 . S
C5267 C5273 1.491 . S
C5268 H5259 0.950 . S
C5268 C5267 1.398 . S
C5268 C5269 1.391 . S
C5269 H5257 0.950 . S
C5269 C5265 1.393 . S
C5269 C5268 1.391 . S
C5270 H5260 0.950 . S
C5270 C5271 1.386 . S
C5270 C5272 1.391 . S
C5271 C5270 1.386 . S
C5271 C5275 1.393 . S
C5272 H5261 0.950 . S
C5272 C5270 1.391 . S
C5272 C5273 1.400 . S
C5273 C5267 1.491 . S
C5273 C5272 1.400 . S
C5273 C5274 1.398 . S
C5274 H5262 0.950 . S
C5274 C5273 1.398 . S
C5274 C5275 1.391 . S
C5275 H5263 0.950 . S
C5275 C5271 1.393 . S
C5275 C5274 1.391 . S
H5276 C5284 0.950 . S
H5277 C5289 0.950 . S
H5278 C5286 0.950 . S
H5279 C5288 0.950 . S
H5280 C5290 0.950 . S
H5281 C5292 0.950 . S
H5282 C5294 0.950 . S
H5283 C5295 0.950 . S
C5284 H5276 0.950 . S
C5284 C5285 1.386 . S
C5284 C5286 1.391 . S
C5285 C5284 1.386 . S
C5285 C5289 1.393 . S
C5286 H5278 0.950 . S
C5286 C5284 1.391 . S
C5286 C5287 1.400 . S
C5287 C5286 1.400 . S
C5287 C5288 1.398 . S
C5287 C5293 1.491 . S
C5288 H5279 0.950 . S
C5288 C5287 1.398 . S
C5288 C5289 1.391 . S
C5289 H5277 0.950 . S
C5289 C5285 1.393 . S
C5289 C5288 1.391 . S
C5290 H5280 0.950 . S
C5290 C5291 1.386 . S
C5290 C5292 1.391 . S
C5291 C5290 1.386 . S
C5291 C5295 1.393 . S
C5292 H5281 0.950 . S
C5292 C5290 1.391 . S
C5292 C5293 1.400 . S
C5293 C5287 1.491 . S
C5293 C5292 1.400 . S
C5293 C5294 1.398 . S
C5294 H5282 0.950 . S
C5294 C5293 1.398 . S
C5294 C5295 1.391 . S
C5295 H5283 0.950 . S
C5295 C5291 1.393 . S
C5295 C5294 1.391 . S
H5296 C5304 0.950 . S
H5297 C5309 0.950 . S
H5298 C5306 0.950 . S
H5299 C5308 0.950 . S
H5300 C5310 0.950 . S
H5301 C5312 0.950 . S
H5302 C5314 0.950 . S
H5303 C5315 0.950 . S
C5304 H5296 0.950 . S
C5304 C5305 1.386 . S
C5304 C5306 1.391 . S
C5305 C5304 1.386 . S
C5305 C5309 1.393 . S
C5306 H5298 0.950 . S
C5306 C5304 1.391 . S
C5306 C5307 1.400 . S
C5307 C5306 1.400 . S
C5307 C5308 1.398 . S
C5307 C5313 1.491 . S
C5308 H5299 0.950 . S
C5308 C5307 1.398 . S
C5308 C5309 1.391 . S
C5309 H5297 0.950 . S
C5309 C5305 1.393 . S
C5309 C5308 1.391 . S
C5310 H5300 0.950 . S
C5310 C5311 1.386 . S
C5310 C5312 1.391 . S
C5311 C5310 1.386 . S
C5311 C5315 1.393 . S
C5312 H5301 0.950 . S
C5312 C5310 1.391 . S
C5312 C5313 1.400 . S
C5313 C5307 1.491 . S
C5313 C5312 1.400 . S
C5313 C5314 1.398 . S
C5314 H5302 0.950 . S
C5314 C5313 1.398 . S
C5314 C5315 1.391 . S
C5315 H5303 0.950 . S
C5315 C5311 1.393 . S
C5315 C5314 1.391 . S
H5316 C5324 0.950 . S
H5317 C5329 0.950 . S
H5318 C5326 0.950 . S
H5319 C5328 0.950 . S
H5320 C5330 0.950 1_556 S
H5321 C5332 0.957 . S
H5322 C5334 0.950 . S
H5323 C5335 0.950 . S
C5324 H5316 0.950 . S
C5324 C5325 1.386 . S
C5324 C5326 1.391 . S
C5325 C5324 1.386 . S
C5325 C5329 1.393 . S
C5326 H5318 0.950 . S
C5326 C5324 1.391 . S
C5326 C5327 1.400 . S
C5327 C5326 1.400 . S
C5327 C5328 1.398 . S
C5327 C5333 1.491 . S
C5328 H5319 0.950 . S
C5328 C5327 1.398 . S
C5328 C5329 1.391 . S
C5329 H5317 0.950 . S
C5329 C5325 1.393 . S
C5329 C5328 1.391 . S
C5330 H5320 0.950 1_554 S
C5330 C5331 1.386 . S
C5330 C5332 1.391 . S
C5331 C5330 1.386 . S
C5331 C5335 1.393 . S
C5332 H5321 0.957 . S
C5332 C5330 1.391 . S
C5332 C5333 1.400 . S
C5333 C5327 1.491 . S
C5333 C5332 1.400 . S
C5333 C5334 1.398 . S
C5334 H5322 0.950 . S
C5334 C5333 1.398 . S
C5334 C5335 1.391 . S
C5335 H5323 0.950 . S
C5335 C5331 1.393 . S
C5335 C5334 1.391 . S
H5336 C5344 0.950 . S
H5337 C5349 0.950 . S
H5338 C5346 0.950 . S
H5339 C5348 0.950 . S
H5340 C5350 0.950 . S
H5341 C5352 0.950 . S
H5342 C5354 0.950 . S
H5343 C5355 0.950 . S
C5344 H5336 0.950 . S
C5344 C5345 1.386 . S
C5344 C5346 1.391 . S
C5345 C5344 1.386 . S
C5345 C5349 1.393 . S
C5346 H5338 0.950 . S
C5346 C5344 1.391 . S
C5346 C5347 1.400 . S
C5347 C5346 1.400 . S
C5347 C5348 1.398 . S
C5347 C5353 1.491 . S
C5348 H5339 0.950 . S
C5348 C5347 1.398 . S
C5348 C5349 1.391 . S
C5349 H5337 0.950 . S
C5349 C5345 1.393 . S
C5349 C5348 1.391 . S
C5350 H5340 0.950 . S
C5350 C5351 1.386 . S
C5350 C5352 1.391 . S
C5351 C5350 1.386 . S
C5351 C5355 1.393 . S
C5352 H5341 0.950 . S
C5352 C5350 1.391 . S
C5352 C5353 1.400 . S
C5353 C5347 1.491 . S
C5353 C5352 1.400 . S
C5353 C5354 1.398 . S
C5354 H5342 0.950 . S
C5354 C5353 1.398 . S
C5354 C5355 1.391 . S
C5355 H5343 0.950 . S
C5355 C5351 1.393 . S
C5355 C5354 1.391 . S
H5356 C5364 0.950 . S
H5357 C5369 0.950 . S
H5358 C5366 0.950 . S
H5359 C5368 0.950 . S
H5360 C5370 0.950 . S
H5361 C5372 0.950 . S
H5362 C5374 0.950 . S
H5363 C5375 0.950 . S
C5364 H5356 0.950 . S
C5364 C5365 1.386 . S
C5364 C5366 1.391 . S
C5365 C5364 1.386 . S
C5365 C5369 1.393 . S
C5366 H5358 0.950 . S
C5366 C5364 1.391 . S
C5366 C5367 1.400 . S
C5367 C5366 1.400 . S
C5367 C5368 1.398 . S
C5367 C5373 1.491 . S
C5368 H5359 0.950 . S
C5368 C5367 1.398 . S
C5368 C5369 1.391 . S
C5369 H5357 0.950 . S
C5369 C5365 1.393 . S
C5369 C5368 1.391 . S
C5370 H5360 0.950 . S
C5370 C5371 1.386 . S
C5370 C5372 1.391 . S
C5371 C5370 1.386 . S
C5371 C5375 1.393 . S
C5372 H5361 0.950 . S
C5372 C5370 1.391 . S
C5372 C5373 1.400 . S
C5373 C5367 1.491 . S
C5373 C5372 1.400 . S
C5373 C5374 1.398 . S
C5374 H5362 0.950 . S
C5374 C5373 1.398 . S
C5374 C5375 1.391 . S
C5375 H5363 0.950 . S
C5375 C5371 1.393 . S
C5375 C5374 1.391 . S
C3465 C665 2.045 . S
C3471 C2168 2.070 . S
C3485 C381 1.799 . S
C3491 C2270 1.802 . S
C3505 C460 1.883 . S
C3511 C2336 1.926 . S
C3531 C2422 1.405 . S
C3525 C585 1.539 . S
C3545 C108 1.539 . S
C3551 C2506 1.404 . S
C3571 C2588 1.919 . S
C3565 C196 1.876 . S
C3591 C2690 1.800 . S
C3585 C313 1.799 . S
C3605 C49 2.034 . S
C3611 C2756 2.070 . S
C3631 C2186 1.502 . S
C3625 C1457 1.548 . S
C3645 C1545 0.812 . S
C3651 C2254 0.789 . S
C3671 C2354 1.027 . S
C3665 C1721 1.027 . S
C3691 C2420 1.636 . S
C3685 C1113 1.621 . S
C3705 C1428 1.622 . S
C3711 C2504 1.641 . S
C3731 C2606 1.010 . S
C3725 C1516 1.029 . S
C3751 C2674 0.825 . S
C3745 C1692 0.808 . S
C3771 C2774 1.498 . S
C3765 C1085 1.547 . S
C3791 C2170 0.934 . S
C3785 C988 0.911 1_554 S
C3805 C1817 1.657 . S
C3811 C2858 1.642 . S
C3831 C2926 1.277 . S
C3825 C2081 1.330 . S
C3851 C3008 0.817 . S
C3845 C1993 0.806 . S
C3865 C761 0.915 . S
C3871 C2758 0.915 . S
C3885 C821 1.337 . S
C3891 C2338 1.246 . S
C3905 C2053 1.654 . S
C3911 C3110 1.628 . S
C3931 C3176 0.817 . S
C3925 C1868 0.819 . S
C3951 C2179 2.063 . S
C3945 C372 2.026 . S
C3971 C3183 1.798 . S
C3965 C645 1.799 . S
C3985 C577 1.878 . S
C3991 C2347 1.918 . S
C4005 C497 1.537 . S
C4011 C3105 1.406 . S
C4031 C2517 1.408 . S
C4025 C57 1.536 . S
C4045 C293 1.860 . S
C4051 C2935 1.910 . S
C4071 C2679 1.799 1_556 S
C4065 C205 1.792 . S
C4091 C3271 2.060 . S
C4085 C145 2.028 . S
C4111 C2175 1.500 . S
C4105 C909 1.550 . S
C4131 C3189 0.791 . S
C4125 C1956 0.803 . S
C4145 C724 1.027 . S
C4151 C2343 1.001 . S
C4165 C1780 1.610 . S
C4171 C3103 1.628 . S
C4185 C937 1.610 . S
C4191 C2515 1.630 . S
C4211 C2931 1.019 . S
C4205 C1985 1.024 . S
C4225 C753 0.806 . S
C4231 C2685 0.761 . S
C4245 C1809 1.550 . S
C4251 C3267 1.513 . S
C4265 C1173 0.913 . S
C4271 C2181 0.913 . S
C4285 C1105 1.648 . S
C4291 C2847 1.625 . S
C4305 C1633 1.330 . S
C4311 C2601 1.272 . S
C4325 C1553 0.816 . S
C4331 C3019 0.822 . S
C4351 C3273 0.889 . S
C4345 C1729 0.938 . S
C4365 C1340 1.330 . S
C4371 C2349 1.272 . S
C4391 C2427 1.639 . S
C4385 C1604 1.643 . S
C4411 C2263 0.818 . S
C4405 C1252 0.809 . S
C4425 C489 2.019 . S
C4431 C3344 2.062 . S
C4451 C3194 1.800 . S
C4445 C557 1.806 . S
C4465 C636 1.856 1_554 S
C4471 C3428 1.916 . S
C4485 C409 1.538 . S
C4491 C3094 1.439 . S
C4505 C284 1.538 . S
C4511 C2842 1.419 . S
C4531 C2924 1.917 . S
C4525 C20 1.864 . S
C4551 C3026 1.806 . S
C4545 C137 1.799 . S
C4571 C3260 2.067 . S
C4565 C225 2.024 . S
C4591 C3362 1.498 . S
C4585 C1641 1.548 . S
C4605 C1193 0.811 . S
C4611 C3178 0.788 . S
C4631 C3446 1.021 . S
C4625 C1289 1.028 . S
C4651 C3092 1.633 . S
C4645 C1377 1.613 . S
C4671 C2840 1.634 . S
C4665 C1613 1.618 . S
C4685 C1164 1.027 . S
C4691 C2942 1.025 . S
C4711 C3010 0.764 . S
C4705 C1261 0.810 . S
C4725 C1349 1.558 . S
C4731 C3278 1.517 . S
C4751 C3346 0.889 . S
C4745 C1965 0.934 . S
C4765 C849 1.656 . S
C4771 C2522 1.640 . S
C4791 C2590 1.278 . S
C4785 C929 1.329 . S
C4811 C2672 0.828 . S
C4805 C1017 0.824 . S
C4831 C3262 0.893 . S
C4825 C1897 0.928 . S
C4845 C1789 1.329 . S
C4851 C3430 1.281 . S
C4871 C2438 1.643 . S
C4865 C900 1.650 . S
C4891 C2252 0.822 . S
C4885 C733 0.813 . S
C4905 C548 2.021 . S
C4911 C3355 2.057 . S
C4931 C2259 1.802 . S
C4925 C469 1.793 . S
C4945 C401 1.860 . S
C4951 C3439 1.910 . S
C4965 C673 1.536 . S
C4971 C2433 1.437 . S
C4985 C233 1.537 . S
C4991 C2853 1.437 . S
C5011 C2599 1.913 . S
C5005 C117 1.861 . S
C5025 C29 1.800 . S
C5031 C3015 1.796 . S
C5045 C321 2.034 . S
C5051 C2767 2.064 . S
C5071 C3351 1.509 . S
C5065 C2044 1.554 . S
C5085 C997 0.804 . S
C5091 C2265 0.757 . S
C5111 C3435 0.991 1_655 S
C5105 C1877 1.022 . S
C5125 C812 1.618 . S
C5131 C2431 1.631 . S
C5145 C2073 1.611 . S
C5151 C2851 1.628 . S
C5171 C2595 1.006 . S
C5165 C1025 1.032 . S
C5185 C1905 0.807 . S
C5191 C3021 0.820 . S
C5211 C2763 1.512 . S
C5205 C841 1.554 . S
C5231 C3357 0.928 . S
C5225 C1525 0.912 . S
C5251 C2511 1.641 1_565 S
C5245 C1369 1.645 . S
C5265 C1465 1.328 . S
C5271 C2937 1.277 . S
C5291 C2683 0.806 . S
C5285 C1201 0.803 . S
C5305 C1281 0.931 . S
C5311 C2769 0.886 . S
C5325 C1076 1.330 . S
C5331 C3441 1.274 . S
C5351 C3099 1.625 . S
C5345 C1437 1.649 . S
C5371 C3187 0.814 . S
C5365 C1701 0.818 . S
