# Generated by pormake.
# Topology nia, (6,6)-cn, num edge types: 1
# Building blocks:
#     Node 0, Type 0, BuildingBlock: BETDEL_clean_sbu_0, # of connection points: 6
#     Node 1, Type 0, BuildingBlock: BETDEL_clean_sbu_0, # of connection points: 6
#     Node 2, Type 1, BuildingBlock: MIDCAF_clean_sbu_0, # of connection points: 6
#     Node 3, Type 1, BuildingBlock: MIDCAF_clean_sbu_0, # of connection points: 6
#     Edge 4, Type (0, 1), BuildingBlock: TEMPAE_clean_linker_10, # of connection points: 2
#     Edge 5, Type (0, 1), BuildingBlock: TEMPAE_clean_linker_10, # of connection points: 2
#     Edge 6, Type (0, 1), BuildingBlock: TEMPAE_clean_linker_10, # of connection points: 2
#     Edge 7, Type (0, 1), BuildingBlock: TEMPAE_clean_linker_10, # of connection points: 2
#     Edge 8, Type (0, 1), BuildingBlock: TEMPAE_clean_linker_10, # of connection points: 2
#     Edge 9, Type (0, 1), BuildingBlock: TEMPAE_clean_linker_10, # of connection points: 2
#     Edge 10, Type (0, 1), BuildingBlock: TEMPAE_clean_linker_10, # of connection points: 2
#     Edge 11, Type (0, 1), BuildingBlock: TEMPAE_clean_linker_10, # of connection points: 2
#     Edge 12, Type (0, 1), BuildingBlock: TEMPAE_clean_linker_10, # of connection points: 2
#     Edge 13, Type (0, 1), BuildingBlock: TEMPAE_clean_linker_10, # of connection points: 2
#     Edge 14, Type (0, 1), BuildingBlock: TEMPAE_clean_linker_10, # of connection points: 2
#     Edge 15, Type (0, 1), BuildingBlock: TEMPAE_clean_linker_10, # of connection points: 2
# Relax obj value: 0.209
# Max RMSD: 0.245
# Mean RMSD: 0.205
data_MOF--net-nia--node1-BETDEL_clean_sbu_0--node2-MIDCAF_clean_sbu_0--edge1-TEMPAE_clean_linker_10
_symmetry_space_group_name_H-M    P1
_symmetry_Int_Tables_number       1
_symmetry_cell_setting            triclinic
loop_
_symmetry_equiv_pos_as_xyz
'x, y, z'
_cell_length_a     24.261023
_cell_length_b     25.45276
_cell_length_c     31.953748
_cell_angle_alpha  83.604321
_cell_angle_beta   92.650455
_cell_angle_gamma 124.71246
loop_
_atom_site_label
_atom_site_type_symbol
_atom_site_fract_x
_atom_site_fract_y
_atom_site_fract_z
_atom_type_partial_charge
Dy0 Dy 0.02996 0.03572 0.04429 0.0
C1 C 0.89243 0.8332 0.93601 0.0
C2 C 0.10676 0.14496 0.08247 0.0
Dy3 Dy 0.96067 0.92381 0.99139 0.0
O4 O 0.04595 0.12065 0.07015 0.0
O5 O 0.12812 0.11125 0.07209 0.0
O6 O 0.95447 0.00313 0.09492 0.0
O7 O 0.93128 0.94215 0.0484 0.0
C8 C 0.91 0.94847 0.08163 0.0
C9 C 0.09326 0.0078 0.976 0.0
O10 O 0.91494 0.97689 0.96698 0.0
O11 O -0.00409 0.07445 0.99089 0.0
O12 O 0.93571 0.89411 0.92596 0.0
O13 O 0.88494 0.82136 0.97684 0.0
O14 O 0.0613 0.94614 0.97654 0.0
O15 O 0.05272 0.02215 0.98272 0.0
O16 O 0.06535 0.97634 0.07395 0.0
O17 O -0.0162 0.87974 0.04821 0.0
C18 C 0.94364 0.03937 0.96722 0.0
C19 C 0.03299 0.91321 0.07451 0.0
Dy20 Dy 0.96662 0.02023 0.54717 0.0
C21 C 0.05619 0.87858 0.46842 0.0
C22 C 0.91932 0.08679 0.57294 0.0
Dy23 Dy 0.02542 0.95505 0.49793 0.0
O24 O -0.0176 0.10728 0.57281 0.0
O25 O 0.88334 0.03124 0.55822 0.0
O26 O 0.91139 0.93657 0.59888 0.0
O27 O 0.96311 0.93322 0.55174 0.0
C28 C 0.92788 0.90166 0.5842 0.0
C29 C 0.06155 0.07002 0.45806 0.0
O30 O 0.92534 0.91568 0.46925 0.0
O31 O 0.90664 -0.00932 0.48798 0.0
O32 O 0.09828 0.93072 0.48603 0.0
O33 O -0.00359 0.86656 0.46869 0.0
O34 O 0.0787 0.0346 0.44508 0.0
O35 O 0.02844 0.04212 0.492 0.0
O36 O 0.06977 0.06414 0.57398 0.0
O37 O 0.09192 -0.0081 0.55367 0.0
C38 C 0.89312 0.94404 0.46519 0.0
C39 C 0.10645 0.04002 0.5753 0.0
Zn40 Zn 0.32516 0.67023 0.18941 0.0
Zn41 Zn 0.32341 0.63657 0.34823 0.0
Zn42 Zn 0.32362 0.65193 0.26972 0.0
C43 C 0.45598 0.71736 0.32774 0.0
C44 C 0.26298 0.51553 0.3277 0.0
O45 O 0.27061 0.70066 0.24909 0.0
O46 O 0.28253 0.71564 0.17969 0.0
C47 C 0.45743 0.73045 0.20962 0.0
O48 O 0.43051 0.707 0.29074 0.0
O49 O 0.41809 0.69406 0.35994 0.0
O50 O 0.28734 0.5459 0.35956 0.0
O51 O 0.269 0.54597 0.29118 0.0
O52 O 0.4218 0.72125 0.17766 0.0
O53 O 0.43019 0.70902 0.24683 0.0
O54 O 0.2749 0.55685 0.24689 0.0
O55 O 0.27388 0.57973 0.17817 0.0
C56 C 0.26022 0.53907 0.20948 0.0
O57 O 0.26781 0.68879 0.2931 0.0
O58 O 0.26329 0.66038 0.36146 0.0
C59 C 0.26152 0.72221 0.21268 0.0
C60 C 0.2473 0.68429 0.33072 0.0
Zn61 Zn 0.69476 0.34054 0.84607 0.0
Zn62 Zn 0.64201 0.30722 0.64319 0.0
Zn63 Zn 0.66654 0.31869 0.77263 0.0
C64 C 0.71681 0.43408 0.68369 0.0
C65 C 0.55003 0.25175 0.72473 0.0
O66 O 0.72233 0.27442 0.79841 0.0
O67 O 0.72939 0.28877 0.8658 0.0
C68 C 0.75693 0.45934 0.79785 0.0
O69 O 0.70841 0.40736 0.72248 0.0
O70 O 0.69381 0.40229 0.65137 0.0
O71 O 0.60329 0.27897 0.70273 0.0
O72 O 0.55844 0.25692 0.7641 0.0
O73 O 0.75887 0.4345 0.83386 0.0
O74 O 0.7219 0.42335 0.76882 0.0
O75 O 0.56765 0.27316 0.80562 0.0
O76 O 0.60433 0.30823 0.86779 0.0
C77 C 0.55591 0.27774 0.84354 0.0
O78 O 0.70942 0.26795 0.75662 0.0
O79 O 0.67171 0.28356 0.698 0.0
C80 C 0.73884 0.2656 0.83628 0.0
C81 C 0.70349 0.26281 0.71719 0.0
C82 C 0.04449 0.82225 0.09646 0.0
C83 C 0.05463 0.88002 0.10479 0.0
C84 C 0.07222 0.7948 0.1223 0.0
C85 C 0.11 0.82526 0.15773 0.0
C86 C 0.11574 0.88076 0.16812 0.0
C87 C 0.08867 0.9079 0.14128 0.0
C88 C 0.06504 0.73568 0.10995 0.0
C89 C 0.15318 0.91311 0.20651 0.0
C90 C 0.1652 0.73036 0.22562 0.0
C91 C 0.22807 0.75607 0.2072 0.0
C92 C 0.1276 0.75548 0.21224 0.0
C93 C 0.15284 0.80577 0.17882 0.0
C94 C 0.21812 0.83413 0.16216 0.0
C95 C 0.25488 0.80921 0.17675 0.0
C96 C 0.05945 0.72548 0.23212 0.0
C97 C 0.24757 0.88798 0.1267 0.0
H98 H 0.0179 0.80023 0.0685 0.0
H99 H 0.09537 0.95181 0.14848 0.0
H100 H 0.11463 0.74844 0.09948 0.0
H101 H 0.0478 0.69879 0.13742 0.0
H102 H 0.02915 0.71438 0.08402 0.0
H103 H 0.1483 0.95255 0.21226 0.0
H104 H 0.13406 0.87739 0.23473 0.0
H105 H 0.20719 0.93327 0.20261 0.0
H106 H 0.14396 0.68869 0.24876 0.0
H107 H 0.30363 0.82917 0.16254 0.0
H108 H 0.02051 0.68937 0.21215 0.0
H109 H 0.04879 0.762 0.23473 0.0
H110 H 0.0552 0.7008 0.26398 0.0
H111 H 0.21724 0.87045 0.09807 0.0
H112 H 0.30029 0.90681 0.11881 0.0
H113 H 0.24612 0.92825 0.1352 0.0
C114 C 0.18759 0.12014 0.6247 0.0
C115 C 0.168 0.0688 0.60124 0.0
C116 C 0.24769 0.14947 0.64729 0.0
C117 C 0.28946 0.12721 0.64634 0.0
C118 C 0.26922 0.07454 0.62354 0.0
C119 C 0.20897 0.04605 0.60142 0.0
C120 C 0.26725 0.20521 0.67147 0.0
C121 C 0.31207 0.04915 0.62164 0.0
C122 C 0.47708 0.2404 0.66365 0.0
C123 C 0.48308 0.2207 0.70537 0.0
C124 C 0.41425 0.21141 0.6445 0.0
C125 C 0.35589 0.1607 0.66736 0.0
C126 C 0.36172 0.14044 0.70951 0.0
C127 C 0.42521 0.17093 0.72807 0.0
C128 C 0.41046 0.23465 0.59957 0.0
C129 C 0.30107 0.08574 0.73469 0.0
H130 H 0.15647 0.13812 0.62501 0.0
H131 H 0.19468 0.0064 0.58361 0.0
H132 H 0.27673 0.19545 0.70478 0.0
H133 H 0.31458 0.24915 0.65795 0.0
H134 H 0.22801 0.21497 0.67072 0.0
H135 H 0.28764 0.00576 0.6044 0.0
H136 H 0.36075 0.08679 0.60568 0.0
H137 H 0.32318 0.03698 0.65392 0.0
H138 H 0.52161 0.27903 0.64601 0.0
H139 H 0.4298 0.15475 0.76006 0.0
H140 H 0.37512 0.24928 0.59768 0.0
H141 H 0.39083 0.19506 0.57933 0.0
H142 H 0.46008 0.276 0.58662 0.0
H143 H 0.26324 0.09683 0.73669 0.0
H144 H 0.31395 0.07594 0.76711 0.0
H145 H 0.27726 0.04137 0.71864 0.0
C146 C 0.09744 0.18878 0.14436 0.0
C147 C 0.138 0.19362 0.11228 0.0
C148 C 0.12046 0.23912 0.16913 0.0
C149 C 0.18478 0.29632 0.16054 0.0
C150 C 0.22821 0.29916 0.1307 0.0
C151 C 0.20429 0.2471 0.10692 0.0
C152 C 0.07352 0.23325 0.20167 0.0
C153 C 0.2976 0.3592 0.12135 0.0
C154 C 0.19619 0.4497 0.16497 0.0
C155 C 0.23297 0.47274 0.20143 0.0
C156 C 0.17984 0.39201 0.15181 0.0
C157 C 0.2004 0.35611 0.17595 0.0
C158 C 0.23471 0.37745 0.21401 0.0
C159 C 0.2512 0.43609 0.22614 0.0
C160 C 0.14223 0.37056 0.1113 0.0
C161 C 0.25702 0.34049 0.24094 0.0
H162 H 0.04641 0.14645 0.14896 0.0
H163 H 0.23554 0.2502 0.08226 0.0
H164 H 0.10104 0.25616 0.23012 0.0
H165 H 0.05031 0.2583 0.18832 0.0
H166 H 0.03272 0.18224 0.21121 0.0
H167 H 0.3281 0.35088 0.10178 0.0
H168 H 0.29367 0.3973 0.10418 0.0
H169 H 0.32409 0.37727 0.15107 0.0
H170 H 0.18198 0.47802 0.14587 0.0
H171 H 0.28129 0.45467 0.25371 0.0
H172 H 0.09453 0.32247 0.11752 0.0
H173 H 0.17249 0.36632 0.08864 0.0
H174 H 0.13037 0.40441 0.09622 0.0
H175 H 0.22112 0.28789 0.24003 0.0
H176 H 0.26309 0.3515 0.27421 0.0
H177 H 0.3063 0.35456 0.22887 0.0
C178 C 0.93103 0.17443 0.61035 0.0
C179 C 0.8905 0.11754 0.59107 0.0
C180 C 0.90254 0.20065 0.63023 0.0
C181 C 0.83192 0.16908 0.63088 0.0
C182 C 0.79106 0.11221 0.61079 0.0
C183 C 0.82083 0.08729 0.5911 0.0
C184 C 0.94782 0.26149 0.65116 0.0
C185 C 0.71564 0.0768 0.61084 0.0
C186 C 0.74956 0.19648 0.71675 0.0
C187 C 0.736 0.23876 0.69504 0.0
C188 C 0.78124 0.17388 0.6964 0.0
C189 C 0.80032 0.19447 0.65328 0.0
C190 C 0.78676 0.23729 0.63122 0.0
C191 C 0.75427 0.2585 0.65227 0.0
C192 C 0.79326 0.12715 0.72091 0.0
C193 C 0.80647 0.26063 0.58533 0.0
H194 H -0.01512 0.19787 0.6105 0.0
H195 H 0.78917 0.04321 0.57631 0.0
H196 H 0.93871 0.29827 0.63853 0.0
H197 H 0.93628 0.25168 0.68548 0.0
H198 H 0.00174 0.28165 0.64642 0.0
H199 H 0.69108 0.03383 0.59316 0.0
H200 H 0.69563 0.06115 0.64371 0.0
H201 H 0.70146 0.1092 0.59663 0.0
H202 H 0.73412 0.18 0.74954 0.0
H203 H 0.74402 0.29133 0.63538 0.0
H204 H 0.84741 0.14672 0.71992 0.0
H205 H 0.76621 0.08135 0.70625 0.0
H206 H 0.77629 0.1166 0.75435 0.0
H207 H 0.8611 0.28397 0.58088 0.0
H208 H 0.79432 0.29541 0.57305 0.0
H209 H 0.78016 0.21927 0.56621 0.0
C210 C 0.84314 0.91097 0.14741 0.0
C211 C 0.84662 0.90188 0.10533 0.0
C212 C 0.78213 0.87709 0.16975 0.0
C213 C 0.72271 0.83276 0.14953 0.0
C214 C 0.7265 0.81924 0.10817 0.0
C215 C 0.7888 0.85422 0.08636 0.0
C216 C 0.78114 0.89379 0.2135 0.0
C217 C 0.66421 0.77106 0.08599 0.0
C218 C 0.55948 0.72954 0.21406 0.0
C219 C 0.52957 0.76234 0.20234 0.0
C220 C 0.62274 0.75182 0.19731 0.0
C221 C 0.65676 0.80868 0.16902 0.0
C222 C 0.62824 0.84398 0.15953 0.0
C223 C 0.56453 0.8198 0.17582 0.0
C224 C 0.65184 0.71326 0.20837 0.0
C225 C 0.66404 0.9063 0.13102 0.0
H226 H 0.88806 0.9472 0.16251 0.0
H227 H 0.79152 0.84692 0.05394 0.0
H228 H 0.76952 0.93032 0.21125 0.0
H229 H 0.74224 0.85138 0.23409 0.0
H230 H 0.83053 0.91434 0.22871 0.0
H231 H 0.67635 0.75887 0.05701 0.0
H232 H 0.63219 0.72633 0.10729 0.0
H233 H 0.6345 0.79117 0.07707 0.0
H234 H 0.5316 0.68443 0.23405 0.0
H235 H 0.54081 0.84469 0.16664 0.0
H236 H 0.70267 0.74392 0.22136 0.0
H237 H 0.65727 0.69596 0.17947 0.0
H238 H 0.62001 0.67115 0.23172 0.0
H239 H 0.71468 0.94063 0.14313 0.0
H240 H 0.63619 0.92917 0.12834 0.0
H241 H 0.67078 0.89741 0.09904 0.0
C242 C 0.86463 0.80834 0.63872 0.0
C243 C 0.90633 0.8364 0.60258 0.0
C244 C 0.83882 0.74484 0.65534 0.0
C245 C 0.85537 0.70832 0.63558 0.0
C246 C 0.89964 0.73729 0.59996 0.0
C247 C 0.92455 0.80103 0.58383 0.0
C248 C 0.79146 0.71585 0.69303 0.0
C249 C 0.91847 0.70009 0.57785 0.0
C250 C 0.8127 0.5484 0.69259 0.0
C251 C 0.75119 0.50461 0.67476 0.0
C252 C 0.84725 0.61506 0.68057 0.0
C253 C 0.82025 0.63806 0.6493 0.0
C254 C 0.75809 0.59372 0.63133 0.0
C255 C 0.72447 0.52788 0.64432 0.0
C256 C 0.91282 0.66074 0.70098 0.0
C257 C 0.72708 0.61573 0.59804 0.0
H258 H 0.85062 0.83558 0.6535 0.0
H259 H 0.95703 0.82266 0.55603 0.0
H260 H 0.74114 0.67557 0.68408 0.0
H261 H 0.80952 0.69566 0.71807 0.0
H262 H 0.78605 0.75139 0.70605 0.0
H263 H 0.95787 0.73096 0.55305 0.0
H264 H 0.93669 0.67755 0.60088 0.0
H265 H 0.87352 0.66077 0.56299 0.0
H266 H 0.83468 0.53046 0.71495 0.0
H267 H 0.67709 0.49413 0.6302 0.0
H268 H 0.90864 0.69447 0.71746 0.0
H269 H 0.95314 0.68997 0.67657 0.0
H270 H 0.92779 0.63527 0.72408 0.0
H271 H 0.71817 0.64922 0.61066 0.0
H272 H 0.67869 0.57503 0.58699 0.0
H273 H 0.762 0.6423 0.57055 0.0
C274 C 0.13969 0.85718 0.45075 0.0
C275 C 0.07638 0.84566 0.44466 0.0
C276 C 0.16222 0.83039 0.42623 0.0
C277 C 0.12076 0.79206 0.39438 0.0
C278 C 0.05714 0.78118 0.3876 0.0
C279 C 0.03531 0.80763 0.41321 0.0
C280 C 0.23003 0.84231 0.43489 0.0
C281 C 0.01257 0.74206 0.35316 0.0
C282 C 0.21764 0.76433 0.32051 0.0
C283 C 0.20509 0.70631 0.33979 0.0
C284 C 0.18556 0.79054 0.33549 0.0
C285 C 0.14204 0.75874 0.37132 0.0
C286 C 0.12613 0.69809 0.38899 0.0
C287 C 0.15754 0.6725 0.37279 0.0
C288 C 0.20208 0.85429 0.31486 0.0
C289 C 0.08028 0.6626 0.42727 0.0
H290 H 0.17163 0.88712 0.47482 0.0
H291 H -0.01317 0.79987 0.40794 0.0
H292 H 0.22399 0.79597 0.44434 0.0
H293 H 0.262 0.86453 0.40589 0.0
H294 H 0.25656 0.87427 0.46024 0.0
H295 H 0.96486 0.73877 0.35161 0.0
H296 H 0.03933 0.76401 0.32226 0.0
H297 H 0.00061 0.69275 0.35821 0.0
H298 H 0.25514 0.79093 0.29541 0.0
H299 H 0.14753 0.62728 0.38753 0.0
H300 H 0.2407 0.89318 0.33338 0.0
H301 H 0.15723 0.8558 0.31395 0.0
H302 H 0.22211 0.86427 0.28223 0.0
H303 H 0.10485 0.68959 0.45499 0.0
H304 H 0.06814 0.61333 0.43461 0.0
H305 H 0.03276 0.65909 0.42258 0.0
C306 C 0.18939 0.11879 0.94874 0.0
C307 C 0.16059 0.05265 0.95612 0.0
C308 C 0.2523 0.16047 0.92808 0.0
C309 C 0.28679 0.13518 0.91453 0.0
C310 C 0.25748 0.06834 0.92177 0.0
C311 C 0.19503 0.02807 0.9426 0.0
C312 C 0.28222 0.23153 0.92123 0.0
C313 C 0.29253 0.03935 0.90798 0.0
C314 C 0.43173 0.22503 0.83439 0.0
C315 C 0.48677 0.24528 0.86069 0.0
C316 C 0.3662 0.19168 0.85143 0.0
C317 C 0.35576 0.17835 0.89574 0.0
C318 C 0.4115 0.20109 0.92236 0.0
C319 C 0.47607 0.23421 0.90455 0.0
C320 C 0.30805 0.16919 0.82208 0.0
C321 C 0.40282 0.18808 0.96974 0.0
H322 H 0.16274 0.13788 0.95904 0.0
H323 H 0.17295 0.97694 0.94814 0.0
H324 H 0.32918 0.25815 0.93912 0.0
H325 H 0.29561 0.24921 0.88745 0.0
H326 H 0.24743 0.24308 0.9314 0.0
H327 H 0.26164 -0.01386 0.91438 0.0
H328 H 0.30474 0.05238 0.87375 0.0
H329 H 0.34054 0.05899 0.9247 0.0
H330 H 0.43987 0.2353 0.80061 0.0
H331 H 0.51825 0.24995 0.92526 0.0
H332 H 0.27552 0.18364 0.83166 0.0
H333 H 0.27687 0.11594 0.824 0.0
H334 H 0.32493 0.18886 0.78885 0.0
H335 H 0.37131 0.20274 0.9809 0.0
H336 H 0.45153 0.2138 0.98603 0.0
H337 H 0.37663 0.13578 0.97915 0.0
C338 C 0.09885 0.14238 0.39181 0.0
C339 C 0.07518 0.12904 0.43351 0.0
C340 C 0.12011 0.2008 0.36825 0.0
C341 C 0.11843 0.2476 0.38697 0.0
C342 C 0.09017 0.23268 0.42814 0.0
C343 C 0.06861 0.1732 0.45103 0.0
C344 C 0.14939 0.21406 0.32458 0.0
C345 C 0.08681 0.28113 0.44901 0.0
C346 C 0.26034 0.42187 0.36018 0.0
C347 C 0.22925 0.44547 0.33436 0.0
C348 C 0.22516 0.35721 0.37626 0.0
C349 C 0.15667 0.31499 0.36669 0.0
C350 C 0.12593 0.33767 0.33847 0.0
C351 C 0.16287 0.40304 0.32242 0.0
C352 C 0.26076 0.33483 0.40501 0.0
C353 C 0.05339 0.29374 0.32692 0.0
H354 H 0.10298 0.10781 0.37782 0.0
H355 H 0.04963 0.16259 0.4831 0.0
H356 H 0.1354 0.24168 0.30299 0.0
H357 H 0.20491 0.24327 0.32618 0.0
H358 H 0.13268 0.16898 0.31099 0.0
H359 H 0.05522 0.25934 0.47825 0.0
H360 H 0.13815 0.32052 0.45723 0.0
H361 H 0.06648 0.30283 0.4271 0.0
H362 H 0.31185 0.45493 0.36927 0.0
H363 H 0.13879 0.42163 0.30274 0.0
H364 H 0.25634 0.29336 0.393 0.0
H365 H 0.23693 0.31848 0.43689 0.0
H366 H 0.31483 0.3733 0.40791 0.0
H367 H 0.04355 0.24925 0.31609 0.0
H368 H 0.03875 0.31717 0.3018 0.0
H369 H 0.02096 0.27921 0.35518 0.0
C370 C 0.86385 0.0374 0.91292 0.0
C371 C 0.91656 0.07135 0.94064 0.0
C372 C 0.83592 0.06675 0.88944 0.0
C373 C 0.86083 0.1314 0.89403 0.0
C374 C 0.91569 0.16656 0.92068 0.0
C375 C 0.94288 0.13625 0.94351 0.0
C376 C 0.77791 0.02776 0.86109 0.0
C377 C 0.94369 0.23546 0.92675 0.0
C378 C 0.81376 0.23009 0.82212 0.0
C379 C 0.76513 0.22577 0.84713 0.0
C380 C 0.84387 0.19756 0.83602 0.0
C381 C 0.8245 0.15992 0.87569 0.0
C382 C 0.77329 0.15347 0.9 0.0
C383 C 0.74463 0.18662 0.88553 0.0
C384 C 0.89832 0.20572 0.80922 0.0
C385 C 0.75067 0.11377 0.94233 0.0
H386 H 0.84353 -0.01253 0.91004 0.0
H387 H -0.01617 0.16325 0.96454 0.0
H388 H 0.73139 0.01813 0.87476 0.0
H389 H 0.78658 0.055 0.82967 0.0
H390 H 0.76972 -0.01895 0.85696 0.0
H391 H -0.00968 0.25798 0.94529 0.0
H392 H 0.9546 0.26447 0.89584 0.0
H393 H 0.9059 0.23736 0.94352 0.0
H394 H 0.83033 0.26103 0.7927 0.0
H395 H 0.7067 0.18289 0.90484 0.0
H396 H 0.88778 0.15816 0.80492 0.0
H397 H 0.94697 0.233 0.82534 0.0
H398 H 0.90351 0.23178 0.77775 0.0
H399 H 0.7363 0.06445 0.93942 0.0
H400 H 0.70735 0.11037 0.95602 0.0
H401 H 0.79262 0.1355 0.96468 0.0
C402 C 0.83539 0.88677 0.40166 0.0
C403 C 0.83951 0.92241 0.43367 0.0
C404 C 0.78125 0.86069 0.37409 0.0
C405 C 0.72933 0.86922 0.3793 0.0
C406 C 0.73584 0.90917 0.40946 0.0
C407 C 0.79105 0.93557 0.43615 0.0
C408 C 0.77736 0.8202 0.34146 0.0
C409 C 0.68173 0.91976 0.41593 0.0
C410 C 0.57614 0.80835 0.31003 0.0
C411 C 0.52867 0.75181 0.33465 0.0
C412 C 0.6435 0.84597 0.32252 0.0
C413 C 0.66279 0.82621 0.3604 0.0
C414 C 0.61568 0.76659 0.38332 0.0
C415 C 0.54948 0.73029 0.3701 0.0
C416 C 0.69247 0.90844 0.29662 0.0
C417 C 0.63388 0.74282 0.4235 0.0
H418 H 0.87359 0.87775 0.39874 0.0
H419 H 0.79429 0.96377 0.46039 0.0
H420 H 0.74383 0.76864 0.3534 0.0
H421 H 0.75609 0.82791 0.31181 0.0
H422 H 0.82743 0.83098 0.33436 0.0
H423 H 0.69796 0.95811 0.43677 0.0
H424 H 0.66696 0.93287 0.38527 0.0
H425 H 0.63658 0.8745 0.43042 0.0
H426 H 0.56008 0.82498 0.28257 0.0
H427 H 0.51295 0.68578 0.3887 0.0
H428 H 0.74364 0.91905 0.2971 0.0
H429 H 0.69504 0.94815 0.31001 0.0
H430 H 0.6764 0.90768 0.26343 0.0
H431 H 0.67813 0.74197 0.41794 0.0
H432 H 0.5921 0.69381 0.43625 0.0
H433 H 0.6474 0.77599 0.44782 0.0
C434 C 0.826 0.71913 0.91946 0.0
C435 C 0.86564 0.78472 0.90562 0.0
C436 C 0.80842 0.67308 0.89165 0.0
C437 C 0.83154 0.69323 0.84905 0.0
C438 C 0.86919 0.75947 0.83456 0.0
C439 C 0.88516 0.80434 0.86297 0.0
C440 C 0.76803 0.6029 0.90849 0.0
C441 C 0.89372 0.78371 0.78942 0.0
C442 C 0.84964 0.56942 0.81057 0.0
C443 C 0.78625 0.52863 0.79383 0.0
C444 C 0.86844 0.6278 0.82424 0.0
C445 C 0.82202 0.64484 0.82184 0.0
C446 C 0.76177 0.60805 0.79971 0.0
C447 C 0.7445 0.55003 0.78575 0.0
C448 C 0.93493 0.6676 0.84542 0.0
C449 C 0.71239 0.62621 0.79478 0.0
H450 H 0.81071 0.70386 0.95237 0.0
H451 H 0.91525 0.85515 0.85201 0.0
H452 H 0.72401 0.57471 0.88847 0.0
H453 H 0.7993 0.58393 0.90757 0.0
H454 H 0.74999 0.59491 0.94143 0.0
H455 H 0.85409 0.78388 0.77084 0.0
H456 H 0.93941 0.83374 0.78678 0.0
H457 H 0.90496 0.753 0.77509 0.0
H458 H 0.88207 0.55291 0.81647 0.0
H459 H 0.6954 0.51841 0.77275 0.0
H460 H 0.92637 0.66231 0.87992 0.0
H461 H 0.96044 0.71923 0.83396 0.0
H462 H 0.96872 0.65267 0.83968 0.0
H463 H 0.68311 0.61107 0.82462 0.0
H464 H 0.67684 0.60243 0.76909 0.0
H465 H 0.73878 0.67902 0.78805 0.0
loop_
_geom_bond_atom_site_label_1
_geom_bond_atom_site_label_2
_geom_bond_distance
_geom_bond_site_symmetry_2
_ccdc_geom_bond_type
Dy0 O4 2.398 . S
Dy0 O5 2.491 . S
Dy0 O6 2.403 1_455 S
Dy0 O7 2.664 1_445 S
Dy0 O11 2.326 1_455 S
Dy0 O15 2.310 1_554 S
Dy0 O16 2.351 1_545 S
C1 O12 1.185 . S
C1 O13 1.355 . S
C2 O4 1.185 . S
C2 O5 1.355 . S
Dy3 O7 2.310 1_556 S
Dy3 O10 2.351 1_565 S
Dy3 O12 2.398 . S
Dy3 O13 2.491 . S
Dy3 O14 2.403 1_665 S
Dy3 O15 2.664 1_665 S
Dy3 O17 2.327 1_656 S
O4 Dy0 2.398 . S
O4 C2 1.185 . S
O5 Dy0 2.491 . S
O5 C2 1.355 . S
O6 Dy0 2.403 1_655 S
O6 C8 1.254 1_545 S
O7 Dy0 2.664 1_665 S
O7 Dy3 2.310 1_554 S
O7 C8 1.268 . S
C8 O6 1.254 1_565 S
C8 O7 1.268 . S
C9 O14 1.254 . S
C9 O15 1.268 . S
O10 Dy3 2.351 1_545 S
O10 C18 1.249 . S
O11 Dy0 2.326 1_655 S
O11 C18 1.267 1_554 S
O12 C1 1.185 . S
O12 Dy3 2.398 . S
O13 C1 1.355 . S
O13 Dy3 2.491 . S
O14 Dy3 2.403 1_445 S
O14 C9 1.254 . S
O15 Dy0 2.310 1_556 S
O15 Dy3 2.664 1_445 S
O15 C9 1.268 . S
O16 Dy0 2.351 1_565 S
O16 C19 1.249 . S
O17 Dy3 2.327 1_454 S
O17 C19 1.266 . S
C18 O10 1.249 . S
C18 O11 1.267 1_556 S
C19 O16 1.249 . S
C19 O17 1.266 . S
Dy20 O24 2.398 . S
Dy20 O25 2.491 . S
Dy20 O26 2.403 1_545 S
Dy20 O27 2.675 1_545 S
Dy20 O31 2.326 1_545 S
Dy20 O35 2.310 1_655 S
Dy20 O36 2.351 1_655 S
C21 O32 1.185 . S
C21 O33 1.355 . S
C22 O24 1.185 . S
C22 O25 1.355 . S
Dy23 O27 2.305 1_455 S
Dy23 O30 2.351 1_455 S
Dy23 O32 2.398 . S
Dy23 O33 2.491 . S
Dy23 O34 2.403 1_565 S
Dy23 O35 2.664 1_565 S
Dy23 O37 2.326 1_565 S
O24 Dy20 2.398 . S
O24 C22 1.185 . S
O25 Dy20 2.491 . S
O25 C22 1.355 . S
O26 Dy20 2.403 1_565 S
O26 C28 1.254 . S
O27 Dy20 2.675 1_565 S
O27 Dy23 2.305 1_655 S
O27 C28 1.274 . S
C28 O26 1.254 . S
C28 O27 1.274 . S
C29 O34 1.254 . S
C29 O35 1.268 . S
O30 Dy23 2.351 1_655 S
O30 C38 1.249 . S
O31 Dy20 2.326 1_565 S
O31 C38 1.267 . S
O32 C21 1.185 . S
O32 Dy23 2.398 . S
O33 C21 1.355 . S
O33 Dy23 2.491 . S
O34 Dy23 2.403 1_545 S
O34 C29 1.254 . S
O35 Dy20 2.310 1_455 S
O35 Dy23 2.664 1_545 S
O35 C29 1.268 . S
O36 Dy20 2.351 1_455 S
O36 C39 1.249 . S
O37 Dy23 2.326 1_545 S
O37 C39 1.267 . S
C38 O30 1.249 . S
C38 O31 1.267 . S
C39 O36 1.249 . S
C39 O37 1.267 . S
Zn40 O46 1.920 . S
Zn40 O52 1.898 . S
Zn40 O55 1.905 . S
Zn41 O49 1.905 . S
Zn41 O50 1.898 . S
Zn41 O58 1.920 . S
Zn42 O45 2.080 . S
Zn42 O48 2.114 . S
Zn42 O51 2.120 . S
Zn42 O53 2.120 . S
Zn42 O54 2.114 . S
Zn42 O57 2.080 . S
C43 O48 1.166 . S
C43 O49 1.182 . S
C44 O50 1.167 . S
C44 O51 1.299 . S
O45 Zn42 2.080 . S
O45 C59 1.305 . S
O46 Zn40 1.920 . S
O46 C59 1.234 . S
C47 O52 1.167 . S
C47 O53 1.299 . S
O48 Zn42 2.114 . S
O48 C43 1.166 . S
O49 Zn41 1.905 . S
O49 C43 1.182 . S
O50 Zn41 1.898 . S
O50 C44 1.167 . S
O51 Zn42 2.120 . S
O51 C44 1.299 . S
O52 Zn40 1.898 . S
O52 C47 1.167 . S
O53 Zn42 2.120 . S
O53 C47 1.299 . S
O54 Zn42 2.114 . S
O54 C56 1.166 . S
O55 Zn40 1.905 . S
O55 C56 1.182 . S
C56 O54 1.166 . S
C56 O55 1.182 . S
O57 Zn42 2.080 . S
O57 C60 1.305 . S
O58 Zn41 1.920 . S
O58 C60 1.234 . S
C59 O45 1.305 . S
C59 O46 1.234 . S
C60 O57 1.305 . S
C60 O58 1.234 . S
Zn61 O67 1.920 . S
Zn61 O73 1.898 . S
Zn61 O76 1.905 . S
Zn62 O70 1.905 . S
Zn62 O71 1.898 . S
Zn62 O79 1.920 . S
Zn63 O66 2.080 . S
Zn63 O69 2.114 . S
Zn63 O72 2.120 . S
Zn63 O74 2.120 . S
Zn63 O75 2.114 . S
Zn63 O78 2.080 . S
C64 O69 1.166 . S
C64 O70 1.182 . S
C65 O71 1.167 . S
C65 O72 1.299 . S
O66 Zn63 2.080 . S
O66 C80 1.305 . S
O67 Zn61 1.920 . S
O67 C80 1.234 . S
C68 O73 1.167 . S
C68 O74 1.299 . S
O69 Zn63 2.114 . S
O69 C64 1.166 . S
O70 Zn62 1.905 . S
O70 C64 1.182 . S
O71 Zn62 1.898 . S
O71 C65 1.167 . S
O72 Zn63 2.120 . S
O72 C65 1.299 . S
O73 Zn61 1.898 . S
O73 C68 1.167 . S
O74 Zn63 2.120 . S
O74 C68 1.299 . S
O75 Zn63 2.114 . S
O75 C77 1.166 . S
O76 Zn61 1.905 . S
O76 C77 1.182 . S
C77 O75 1.166 . S
C77 O76 1.182 . S
O78 Zn63 2.080 . S
O78 C81 1.305 . S
O79 Zn62 1.920 . S
O79 C81 1.234 . S
C80 O66 1.305 . S
C80 O67 1.234 . S
C81 O78 1.305 . S
C81 O79 1.234 . S
C82 C83 1.391 . S
C82 C84 1.394 . S
C82 H98 0.931 . S
C83 C82 1.391 . S
C83 C87 1.376 . S
C84 C82 1.394 . S
C84 C85 1.369 . S
C84 C88 1.531 . S
C85 C84 1.369 . S
C85 C86 1.410 . S
C85 C93 1.503 . S
C86 C85 1.410 . S
C86 C87 1.392 . S
C86 C89 1.511 . S
C87 C83 1.376 . S
C87 C86 1.392 . S
C87 H99 0.929 . S
C88 C84 1.531 . S
C88 H100 0.960 . S
C88 H101 0.962 . S
C88 H102 0.960 . S
C89 C86 1.511 . S
C89 H103 0.961 . S
C89 H104 0.961 . S
C89 H105 0.961 . S
C90 C91 1.370 . S
C90 C92 1.363 . S
C90 H106 0.931 . S
C91 C90 1.370 . S
C91 C95 1.408 . S
C92 C90 1.363 . S
C92 C93 1.370 . S
C92 C96 1.524 . S
C93 C85 1.503 . S
C93 C92 1.370 . S
C93 C94 1.403 . S
C94 C93 1.403 . S
C94 C95 1.404 . S
C94 C97 1.539 . S
C95 C91 1.408 . S
C95 C94 1.404 . S
C95 H107 0.930 . S
C96 C92 1.524 . S
C96 H108 0.956 . S
C96 H109 0.961 . S
C96 H110 0.961 . S
C97 C94 1.539 . S
C97 H111 0.958 . S
C97 H112 0.961 . S
C97 H113 0.960 . S
H98 C82 0.931 . S
H99 C87 0.929 . S
H100 C88 0.960 . S
H101 C88 0.962 . S
H102 C88 0.960 . S
H103 C89 0.961 . S
H104 C89 0.961 . S
H105 C89 0.961 . S
H106 C90 0.931 . S
H107 C95 0.930 . S
H108 C96 0.956 . S
H109 C96 0.961 . S
H110 C96 0.961 . S
H111 C97 0.958 . S
H112 C97 0.961 . S
H113 C97 0.960 . S
C114 C115 1.391 . S
C114 C116 1.394 . S
C114 H130 0.931 . S
C115 C114 1.391 . S
C115 C119 1.376 . S
C116 C114 1.394 . S
C116 C117 1.369 . S
C116 C120 1.531 . S
C117 C116 1.369 . S
C117 C118 1.410 . S
C117 C125 1.503 . S
C118 C117 1.410 . S
C118 C119 1.392 . S
C118 C121 1.511 . S
C119 C115 1.376 . S
C119 C118 1.392 . S
C119 H131 0.929 . S
C120 C116 1.531 . S
C120 H132 0.960 . S
C120 H133 0.962 . S
C120 H134 0.960 . S
C121 C118 1.511 . S
C121 H135 0.961 . S
C121 H136 0.961 . S
C121 H137 0.961 . S
C122 C123 1.370 . S
C122 C124 1.363 . S
C122 H138 0.931 . S
C123 C122 1.370 . S
C123 C127 1.408 . S
C124 C122 1.363 . S
C124 C125 1.370 . S
C124 C128 1.524 . S
C125 C117 1.503 . S
C125 C124 1.370 . S
C125 C126 1.403 . S
C126 C125 1.403 . S
C126 C127 1.404 . S
C126 C129 1.539 . S
C127 C123 1.408 . S
C127 C126 1.404 . S
C127 H139 0.930 . S
C128 C124 1.524 . S
C128 H140 0.956 . S
C128 H141 0.961 . S
C128 H142 0.961 . S
C129 C126 1.539 . S
C129 H143 0.958 . S
C129 H144 0.961 . S
C129 H145 0.960 . S
H130 C114 0.931 . S
H131 C119 0.929 . S
H132 C120 0.960 . S
H133 C120 0.962 . S
H134 C120 0.960 . S
H135 C121 0.961 . S
H136 C121 0.961 . S
H137 C121 0.961 . S
H138 C122 0.931 . S
H139 C127 0.930 . S
H140 C128 0.956 . S
H141 C128 0.961 . S
H142 C128 0.961 . S
H143 C129 0.958 . S
H144 C129 0.961 . S
H145 C129 0.960 . S
C146 C147 1.391 . S
C146 C148 1.394 . S
C146 H162 0.931 . S
C147 C146 1.391 . S
C147 C151 1.376 . S
C148 C146 1.394 . S
C148 C149 1.369 . S
C148 C152 1.531 . S
C149 C148 1.369 . S
C149 C150 1.410 . S
C149 C157 1.503 . S
C150 C149 1.410 . S
C150 C151 1.392 . S
C150 C153 1.511 . S
C151 C147 1.376 . S
C151 C150 1.392 . S
C151 H163 0.929 . S
C152 C148 1.531 . S
C152 H164 0.960 . S
C152 H165 0.962 . S
C152 H166 0.960 . S
C153 C150 1.511 . S
C153 H167 0.961 . S
C153 H168 0.961 . S
C153 H169 0.961 . S
C154 C155 1.370 . S
C154 C156 1.363 . S
C154 H170 0.931 . S
C155 C154 1.370 . S
C155 C159 1.408 . S
C156 C154 1.363 . S
C156 C157 1.370 . S
C156 C160 1.524 . S
C157 C149 1.503 . S
C157 C156 1.370 . S
C157 C158 1.403 . S
C158 C157 1.403 . S
C158 C159 1.404 . S
C158 C161 1.539 . S
C159 C155 1.408 . S
C159 C158 1.404 . S
C159 H171 0.930 . S
C160 C156 1.524 . S
C160 H172 0.956 . S
C160 H173 0.961 . S
C160 H174 0.961 . S
C161 C158 1.539 . S
C161 H175 0.958 . S
C161 H176 0.961 . S
C161 H177 0.960 . S
H162 C146 0.931 . S
H163 C151 0.929 . S
H164 C152 0.960 . S
H165 C152 0.962 . S
H166 C152 0.960 . S
H167 C153 0.961 . S
H168 C153 0.961 . S
H169 C153 0.961 . S
H170 C154 0.931 . S
H171 C159 0.930 . S
H172 C160 0.956 . S
H173 C160 0.961 . S
H174 C160 0.961 . S
H175 C161 0.958 . S
H176 C161 0.961 . S
H177 C161 0.960 . S
C178 C179 1.391 . S
C178 C180 1.394 . S
C178 H194 0.931 . S
C179 C178 1.391 . S
C179 C183 1.376 . S
C180 C178 1.394 . S
C180 C181 1.369 . S
C180 C184 1.531 . S
C181 C180 1.369 . S
C181 C182 1.410 . S
C181 C189 1.503 . S
C182 C181 1.410 . S
C182 C183 1.392 . S
C182 C185 1.511 . S
C183 C179 1.376 . S
C183 C182 1.392 . S
C183 H195 0.929 . S
C184 C180 1.531 . S
C184 H196 0.960 . S
C184 H197 0.962 . S
C184 H198 0.960 1_655 S
C185 C182 1.511 . S
C185 H199 0.961 . S
C185 H200 0.961 . S
C185 H201 0.961 . S
C186 C187 1.370 . S
C186 C188 1.363 . S
C186 H202 0.931 . S
C187 C186 1.370 . S
C187 C191 1.408 . S
C188 C186 1.363 . S
C188 C189 1.370 . S
C188 C192 1.524 . S
C189 C181 1.503 . S
C189 C188 1.370 . S
C189 C190 1.403 . S
C190 C189 1.403 . S
C190 C191 1.404 . S
C190 C193 1.539 . S
C191 C187 1.408 . S
C191 C190 1.404 . S
C191 H203 0.930 . S
C192 C188 1.524 . S
C192 H204 0.956 . S
C192 H205 0.961 . S
C192 H206 0.961 . S
C193 C190 1.539 . S
C193 H207 0.958 . S
C193 H208 0.961 . S
C193 H209 0.960 . S
H194 C178 0.931 . S
H195 C183 0.929 . S
H196 C184 0.960 . S
H197 C184 0.962 . S
H198 C184 0.960 1_455 S
H199 C185 0.961 . S
H200 C185 0.961 . S
H201 C185 0.961 . S
H202 C186 0.931 . S
H203 C191 0.930 . S
H204 C192 0.956 . S
H205 C192 0.961 . S
H206 C192 0.961 . S
H207 C193 0.958 . S
H208 C193 0.961 . S
H209 C193 0.960 . S
C210 C211 1.391 . S
C210 C212 1.394 . S
C210 H226 0.931 . S
C211 C210 1.391 . S
C211 C215 1.376 . S
C212 C210 1.394 . S
C212 C213 1.369 . S
C212 C216 1.531 . S
C213 C212 1.369 . S
C213 C214 1.410 . S
C213 C221 1.503 . S
C214 C213 1.410 . S
C214 C215 1.392 . S
C214 C217 1.511 . S
C215 C211 1.376 . S
C215 C214 1.392 . S
C215 H227 0.929 . S
C216 C212 1.531 . S
C216 H228 0.960 . S
C216 H229 0.962 . S
C216 H230 0.960 . S
C217 C214 1.511 . S
C217 H231 0.961 . S
C217 H232 0.961 . S
C217 H233 0.961 . S
C218 C219 1.370 . S
C218 C220 1.363 . S
C218 H234 0.931 . S
C219 C218 1.370 . S
C219 C223 1.408 . S
C220 C218 1.363 . S
C220 C221 1.370 . S
C220 C224 1.524 . S
C221 C213 1.503 . S
C221 C220 1.370 . S
C221 C222 1.403 . S
C222 C221 1.403 . S
C222 C223 1.404 . S
C222 C225 1.539 . S
C223 C219 1.408 . S
C223 C222 1.404 . S
C223 H235 0.930 . S
C224 C220 1.524 . S
C224 H236 0.956 . S
C224 H237 0.961 . S
C224 H238 0.961 . S
C225 C222 1.539 . S
C225 H239 0.958 . S
C225 H240 0.961 . S
C225 H241 0.960 . S
H226 C210 0.931 . S
H227 C215 0.929 . S
H228 C216 0.960 . S
H229 C216 0.962 . S
H230 C216 0.960 . S
H231 C217 0.961 . S
H232 C217 0.961 . S
H233 C217 0.961 . S
H234 C218 0.931 . S
H235 C223 0.930 . S
H236 C224 0.956 . S
H237 C224 0.961 . S
H238 C224 0.961 . S
H239 C225 0.958 . S
H240 C225 0.961 . S
H241 C225 0.960 . S
C242 C243 1.391 . S
C242 C244 1.394 . S
C242 H258 0.931 1_655 S
C243 C242 1.391 . S
C243 C247 1.376 . S
C244 C242 1.394 . S
C244 C245 1.369 . S
C244 C248 1.531 . S
C245 C244 1.369 . S
C245 C246 1.410 . S
C245 C253 1.503 . S
C246 C245 1.410 . S
C246 C247 1.392 . S
C246 C249 1.511 . S
C247 C243 1.376 . S
C247 C246 1.392 . S
C247 H259 0.929 . S
C248 C244 1.531 . S
C248 H260 0.960 . S
C248 H261 0.962 . S
C248 H262 0.960 1_655 S
C249 C246 1.511 . S
C249 H263 0.961 . S
C249 H264 0.961 . S
C249 H265 0.961 . S
C250 C251 1.370 . S
C250 C252 1.363 . S
C250 H266 0.931 . S
C251 C250 1.370 . S
C251 C255 1.408 . S
C252 C250 1.363 . S
C252 C253 1.370 . S
C252 C256 1.524 . S
C253 C245 1.503 . S
C253 C252 1.370 . S
C253 C254 1.403 . S
C254 C253 1.403 . S
C254 C255 1.404 . S
C254 C257 1.539 . S
C255 C251 1.408 . S
C255 C254 1.404 . S
C255 H267 0.930 . S
C256 C252 1.524 . S
C256 H268 0.956 . S
C256 H269 0.961 . S
C256 H270 0.961 . S
C257 C254 1.539 . S
C257 H271 0.958 . S
C257 H272 0.961 . S
C257 H273 0.960 . S
H258 C242 0.931 1_455 S
H259 C247 0.929 . S
H260 C248 0.960 . S
H261 C248 0.962 . S
H262 C248 0.960 1_455 S
H263 C249 0.961 . S
H264 C249 0.961 . S
H265 C249 0.961 . S
H266 C250 0.931 . S
H267 C255 0.930 . S
H268 C256 0.956 . S
H269 C256 0.961 . S
H270 C256 0.961 . S
H271 C257 0.958 . S
H272 C257 0.961 . S
H273 C257 0.960 . S
C274 C275 1.391 . S
C274 C276 1.394 . S
C274 H290 0.931 1_565 S
C275 C274 1.391 . S
C275 C279 1.376 . S
C276 C274 1.394 . S
C276 C277 1.369 . S
C276 C280 1.531 . S
C277 C276 1.369 . S
C277 C278 1.410 . S
C277 C285 1.503 . S
C278 C277 1.410 . S
C278 C279 1.392 . S
C278 C281 1.511 . S
C279 C275 1.376 . S
C279 C278 1.392 . S
C279 H291 0.929 . S
C280 C276 1.531 . S
C280 H292 0.960 . S
C280 H293 0.962 1_565 S
C280 H294 0.960 1_565 S
C281 C278 1.511 . S
C281 H295 0.961 . S
C281 H296 0.961 . S
C281 H297 0.961 . S
C282 C283 1.370 . S
C282 C284 1.363 . S
C282 H298 0.931 . S
C283 C282 1.370 . S
C283 C287 1.408 . S
C284 C282 1.363 . S
C284 C285 1.370 . S
C284 C288 1.524 . S
C285 C277 1.503 . S
C285 C284 1.370 . S
C285 C286 1.403 . S
C286 C285 1.403 . S
C286 C287 1.404 . S
C286 C289 1.539 . S
C287 C283 1.408 . S
C287 C286 1.404 . S
C287 H299 0.930 . S
C288 C284 1.524 . S
C288 H300 0.956 . S
C288 H301 0.961 . S
C288 H302 0.961 . S
C289 C286 1.539 . S
C289 H303 0.958 . S
C289 H304 0.961 . S
C289 H305 0.960 . S
H290 C274 0.931 1_545 S
H291 C279 0.929 . S
H292 C280 0.960 . S
H293 C280 0.962 1_545 S
H294 C280 0.960 1_545 S
H295 C281 0.961 . S
H296 C281 0.961 . S
H297 C281 0.961 . S
H298 C282 0.931 . S
H299 C287 0.930 . S
H300 C288 0.956 . S
H301 C288 0.961 . S
H302 C288 0.961 . S
H303 C289 0.958 . S
H304 C289 0.961 . S
H305 C289 0.960 . S
C306 C307 1.391 . S
C306 C308 1.394 . S
C306 H322 0.931 . S
C307 C306 1.391 . S
C307 C311 1.376 . S
C308 C306 1.394 . S
C308 C309 1.369 . S
C308 C312 1.531 . S
C309 C308 1.369 . S
C309 C310 1.410 . S
C309 C317 1.503 . S
C310 C309 1.410 . S
C310 C311 1.392 . S
C310 C313 1.511 . S
C311 C307 1.376 . S
C311 C310 1.392 . S
C311 H323 0.929 . S
C312 C308 1.531 . S
C312 H324 0.960 . S
C312 H325 0.962 . S
C312 H326 0.960 . S
C313 C310 1.511 . S
C313 H327 0.961 . S
C313 H328 0.961 . S
C313 H329 0.961 . S
C314 C315 1.370 . S
C314 C316 1.363 . S
C314 H330 0.931 . S
C315 C314 1.370 . S
C315 C319 1.408 . S
C316 C314 1.363 . S
C316 C317 1.370 . S
C316 C320 1.524 . S
C317 C309 1.503 . S
C317 C316 1.370 . S
C317 C318 1.403 . S
C318 C317 1.403 . S
C318 C319 1.404 . S
C318 C321 1.539 . S
C319 C315 1.408 . S
C319 C318 1.404 . S
C319 H331 0.930 . S
C320 C316 1.524 . S
C320 H332 0.956 . S
C320 H333 0.961 . S
C320 H334 0.961 . S
C321 C318 1.539 . S
C321 H335 0.958 . S
C321 H336 0.961 . S
C321 H337 0.960 . S
H322 C306 0.931 . S
H323 C311 0.929 . S
H324 C312 0.960 . S
H325 C312 0.962 . S
H326 C312 0.960 . S
H327 C313 0.961 . S
H328 C313 0.961 . S
H329 C313 0.961 . S
H330 C314 0.931 . S
H331 C319 0.930 . S
H332 C320 0.956 . S
H333 C320 0.961 . S
H334 C320 0.961 . S
H335 C321 0.958 . S
H336 C321 0.961 . S
H337 C321 0.960 . S
C338 C339 1.391 . S
C338 C340 1.394 . S
C338 H354 0.931 . S
C339 C338 1.391 . S
C339 C343 1.376 . S
C340 C338 1.394 . S
C340 C341 1.369 . S
C340 C344 1.531 . S
C341 C340 1.369 . S
C341 C342 1.410 . S
C341 C349 1.503 . S
C342 C341 1.410 . S
C342 C343 1.392 . S
C342 C345 1.511 . S
C343 C339 1.376 . S
C343 C342 1.392 . S
C343 H355 0.929 . S
C344 C340 1.531 . S
C344 H356 0.960 . S
C344 H357 0.962 . S
C344 H358 0.960 . S
C345 C342 1.511 . S
C345 H359 0.961 . S
C345 H360 0.961 . S
C345 H361 0.961 . S
C346 C347 1.370 . S
C346 C348 1.363 . S
C346 H362 0.931 . S
C347 C346 1.370 . S
C347 C351 1.408 . S
C348 C346 1.363 . S
C348 C349 1.370 . S
C348 C352 1.524 . S
C349 C341 1.503 . S
C349 C348 1.370 . S
C349 C350 1.403 . S
C350 C349 1.403 . S
C350 C351 1.404 . S
C350 C353 1.539 . S
C351 C347 1.408 . S
C351 C350 1.404 . S
C351 H363 0.930 . S
C352 C348 1.524 . S
C352 H364 0.956 . S
C352 H365 0.961 . S
C352 H366 0.961 . S
C353 C350 1.539 . S
C353 H367 0.958 . S
C353 H368 0.961 . S
C353 H369 0.960 . S
H354 C338 0.931 . S
H355 C343 0.929 . S
H356 C344 0.960 . S
H357 C344 0.962 . S
H358 C344 0.960 . S
H359 C345 0.961 . S
H360 C345 0.961 . S
H361 C345 0.961 . S
H362 C346 0.931 . S
H363 C351 0.930 . S
H364 C352 0.956 . S
H365 C352 0.961 . S
H366 C352 0.961 . S
H367 C353 0.958 . S
H368 C353 0.961 . S
H369 C353 0.960 . S
C370 C371 1.391 . S
C370 C372 1.394 . S
C370 H386 0.931 . S
C371 C370 1.391 . S
C371 C375 1.376 . S
C372 C370 1.394 . S
C372 C373 1.369 . S
C372 C376 1.531 . S
C373 C372 1.369 . S
C373 C374 1.410 . S
C373 C381 1.503 . S
C374 C373 1.410 . S
C374 C375 1.392 . S
C374 C377 1.511 . S
C375 C371 1.376 . S
C375 C374 1.392 . S
C375 H387 0.929 . S
C376 C372 1.531 . S
C376 H388 0.960 . S
C376 H389 0.962 . S
C376 H390 0.960 . S
C377 C374 1.511 . S
C377 H391 0.961 . S
C377 H392 0.961 . S
C377 H393 0.961 . S
C378 C379 1.370 . S
C378 C380 1.363 . S
C378 H394 0.931 . S
C379 C378 1.370 . S
C379 C383 1.408 . S
C380 C378 1.363 . S
C380 C381 1.370 . S
C380 C384 1.524 . S
C381 C373 1.503 . S
C381 C380 1.370 . S
C381 C382 1.403 . S
C382 C381 1.403 . S
C382 C383 1.404 . S
C382 C385 1.539 . S
C383 C379 1.408 . S
C383 C382 1.404 . S
C383 H395 0.930 . S
C384 C380 1.524 . S
C384 H396 0.956 . S
C384 H397 0.961 . S
C384 H398 0.961 . S
C385 C382 1.539 . S
C385 H399 0.958 . S
C385 H400 0.961 . S
C385 H401 0.960 . S
H386 C370 0.931 . S
H387 C375 0.929 . S
H388 C376 0.960 . S
H389 C376 0.962 . S
H390 C376 0.960 . S
H391 C377 0.961 . S
H392 C377 0.961 . S
H393 C377 0.961 . S
H394 C378 0.931 . S
H395 C383 0.930 . S
H396 C384 0.956 . S
H397 C384 0.961 . S
H398 C384 0.961 . S
H399 C385 0.958 . S
H400 C385 0.961 . S
H401 C385 0.960 . S
C402 C403 1.391 . S
C402 C404 1.394 . S
C402 H418 0.931 . S
C403 C402 1.391 . S
C403 C407 1.376 . S
C404 C402 1.394 . S
C404 C405 1.369 . S
C404 C408 1.531 . S
C405 C404 1.369 . S
C405 C406 1.410 . S
C405 C413 1.503 . S
C406 C405 1.410 . S
C406 C407 1.392 . S
C406 C409 1.511 . S
C407 C403 1.376 . S
C407 C406 1.392 . S
C407 H419 0.929 . S
C408 C404 1.531 . S
C408 H420 0.960 . S
C408 H421 0.962 . S
C408 H422 0.960 . S
C409 C406 1.511 . S
C409 H423 0.961 . S
C409 H424 0.961 . S
C409 H425 0.961 . S
C410 C411 1.370 . S
C410 C412 1.363 . S
C410 H426 0.931 . S
C411 C410 1.370 . S
C411 C415 1.408 . S
C412 C410 1.363 . S
C412 C413 1.370 . S
C412 C416 1.524 . S
C413 C405 1.503 . S
C413 C412 1.370 . S
C413 C414 1.403 . S
C414 C413 1.403 . S
C414 C415 1.404 . S
C414 C417 1.539 . S
C415 C411 1.408 . S
C415 C414 1.404 . S
C415 H427 0.930 . S
C416 C412 1.524 . S
C416 H428 0.956 . S
C416 H429 0.961 . S
C416 H430 0.961 . S
C417 C414 1.539 . S
C417 H431 0.958 . S
C417 H432 0.961 . S
C417 H433 0.960 . S
H418 C402 0.931 . S
H419 C407 0.929 . S
H420 C408 0.960 . S
H421 C408 0.962 . S
H422 C408 0.960 . S
H423 C409 0.961 . S
H424 C409 0.961 . S
H425 C409 0.961 . S
H426 C410 0.931 . S
H427 C415 0.930 . S
H428 C416 0.956 . S
H429 C416 0.961 . S
H430 C416 0.961 . S
H431 C417 0.958 . S
H432 C417 0.961 . S
H433 C417 0.960 . S
C434 C435 1.391 . S
C434 C436 1.394 . S
C434 H450 0.931 . S
C435 C434 1.391 . S
C435 C439 1.376 . S
C436 C434 1.394 . S
C436 C437 1.369 . S
C436 C440 1.531 . S
C437 C436 1.369 . S
C437 C438 1.410 . S
C437 C445 1.503 . S
C438 C437 1.410 . S
C438 C439 1.392 . S
C438 C441 1.511 . S
C439 C435 1.376 . S
C439 C438 1.392 . S
C439 H451 0.929 1_655 S
C440 C436 1.531 . S
C440 H452 0.960 . S
C440 H453 0.962 . S
C440 H454 0.960 . S
C441 C438 1.511 . S
C441 H455 0.961 1_655 S
C441 H456 0.961 . S
C441 H457 0.961 . S
C442 C443 1.370 . S
C442 C444 1.363 . S
C442 H458 0.931 . S
C443 C442 1.370 . S
C443 C447 1.408 . S
C444 C442 1.363 . S
C444 C445 1.370 . S
C444 C448 1.524 . S
C445 C437 1.503 . S
C445 C444 1.370 . S
C445 C446 1.403 . S
C446 C445 1.403 . S
C446 C447 1.404 . S
C446 C449 1.539 . S
C447 C443 1.408 . S
C447 C446 1.404 . S
C447 H459 0.930 . S
C448 C444 1.524 . S
C448 H460 0.956 . S
C448 H461 0.961 . S
C448 H462 0.961 . S
C449 C446 1.539 . S
C449 H463 0.958 . S
C449 H464 0.961 . S
C449 H465 0.960 . S
H450 C434 0.931 . S
H451 C439 0.929 1_455 S
H452 C440 0.960 . S
H453 C440 0.962 . S
H454 C440 0.960 . S
H455 C441 0.961 1_455 S
H456 C441 0.961 . S
H457 C441 0.961 . S
H458 C442 0.931 . S
H459 C447 0.930 . S
H460 C448 0.956 . S
H461 C448 0.961 . S
H462 C448 0.961 . S
H463 C449 0.958 . S
H464 C449 0.961 . S
H465 C449 0.960 . S
C83 C19 1.630 . S
C91 C59 1.533 . S
C115 C39 1.277 . S
C123 C65 1.183 . S
C147 C2 1.030 . S
C155 C56 1.053 . S
C179 C22 1.367 . S
C187 C81 1.268 . S
C211 C8 1.746 . S
C219 C47 1.689 . S
C251 C64 1.804 . S
C243 C28 1.855 . S
C275 C21 1.331 . S
C283 C60 1.205 . S
C315 C77 1.585 . S
C307 C9 1.704 . S
C347 C44 1.760 . S
C339 C29 1.856 . S
C379 C80 1.612 . S
C371 C18 1.665 . S
C411 C43 1.238 . S
C403 C38 1.292 . S
C443 C68 1.048 . S
C435 C1 1.060 . S
