# Generated by pormake.
# Topology ctn, (3,4)-cn, num edge types: 1
# Building blocks:
#     Node 0, Type 0, BuildingBlock: WUSLED_clean_sbu_0, # of connection points: 3
#     Node 1, Type 0, BuildingBlock: WUSLED_clean_sbu_0, # of connection points: 3
#     Node 2, Type 0, BuildingBlock: WUSLED_clean_sbu_0, # of connection points: 3
#     Node 3, Type 0, BuildingBlock: WUSLED_clean_sbu_0, # of connection points: 3
#     Node 4, Type 0, BuildingBlock: WUSLED_clean_sbu_0, # of connection points: 3
#     Node 5, Type 0, BuildingBlock: WUSLED_clean_sbu_0, # of connection points: 3
#     Node 6, Type 0, BuildingBlock: WUSLED_clean_sbu_0, # of connection points: 3
#     Node 7, Type 0, BuildingBlock: WUSLED_clean_sbu_0, # of connection points: 3
#     Node 8, Type 0, BuildingBlock: WUSLED_clean_sbu_0, # of connection points: 3
#     Node 9, Type 0, BuildingBlock: WUSLED_clean_sbu_0, # of connection points: 3
#     Node 10, Type 0, BuildingBlock: WUSLED_clean_sbu_0, # of connection points: 3
#     Node 11, Type 0, BuildingBlock: WUSLED_clean_sbu_0, # of connection points: 3
#     Node 12, Type 0, BuildingBlock: WUSLED_clean_sbu_0, # of connection points: 3
#     Node 13, Type 0, BuildingBlock: WUSLED_clean_sbu_0, # of connection points: 3
#     Node 14, Type 0, BuildingBlock: WUSLED_clean_sbu_0, # of connection points: 3
#     Node 15, Type 0, BuildingBlock: WUSLED_clean_sbu_0, # of connection points: 3
#     Node 16, Type 1, BuildingBlock: TATPOV_clean_sbu_0, # of connection points: 4
#     Node 17, Type 1, BuildingBlock: TATPOV_clean_sbu_0, # of connection points: 4
#     Node 18, Type 1, BuildingBlock: TATPOV_clean_sbu_0, # of connection points: 4
#     Node 19, Type 1, BuildingBlock: TATPOV_clean_sbu_0, # of connection points: 4
#     Node 20, Type 1, BuildingBlock: TATPOV_clean_sbu_0, # of connection points: 4
#     Node 21, Type 1, BuildingBlock: TATPOV_clean_sbu_0, # of connection points: 4
#     Node 22, Type 1, BuildingBlock: TATPOV_clean_sbu_0, # of connection points: 4
#     Node 23, Type 1, BuildingBlock: TATPOV_clean_sbu_0, # of connection points: 4
#     Node 24, Type 1, BuildingBlock: TATPOV_clean_sbu_0, # of connection points: 4
#     Node 25, Type 1, BuildingBlock: TATPOV_clean_sbu_0, # of connection points: 4
#     Node 26, Type 1, BuildingBlock: TATPOV_clean_sbu_0, # of connection points: 4
#     Node 27, Type 1, BuildingBlock: TATPOV_clean_sbu_0, # of connection points: 4
#     Edge 28, Type (0, 1), BuildingBlock: UVAHIK_clean_linker_0, # of connection points: 2
#     Edge 29, Type (0, 1), BuildingBlock: UVAHIK_clean_linker_0, # of connection points: 2
#     Edge 30, Type (0, 1), BuildingBlock: UVAHIK_clean_linker_0, # of connection points: 2
#     Edge 31, Type (0, 1), BuildingBlock: UVAHIK_clean_linker_0, # of connection points: 2
#     Edge 32, Type (0, 1), BuildingBlock: UVAHIK_clean_linker_0, # of connection points: 2
#     Edge 33, Type (0, 1), BuildingBlock: UVAHIK_clean_linker_0, # of connection points: 2
#     Edge 34, Type (0, 1), BuildingBlock: UVAHIK_clean_linker_0, # of connection points: 2
#     Edge 35, Type (0, 1), BuildingBlock: UVAHIK_clean_linker_0, # of connection points: 2
#     Edge 36, Type (0, 1), BuildingBlock: UVAHIK_clean_linker_0, # of connection points: 2
#     Edge 37, Type (0, 1), BuildingBlock: UVAHIK_clean_linker_0, # of connection points: 2
#     Edge 38, Type (0, 1), BuildingBlock: UVAHIK_clean_linker_0, # of connection points: 2
#     Edge 39, Type (0, 1), BuildingBlock: UVAHIK_clean_linker_0, # of connection points: 2
#     Edge 40, Type (0, 1), BuildingBlock: UVAHIK_clean_linker_0, # of connection points: 2
#     Edge 41, Type (0, 1), BuildingBlock: UVAHIK_clean_linker_0, # of connection points: 2
#     Edge 42, Type (0, 1), BuildingBlock: UVAHIK_clean_linker_0, # of connection points: 2
#     Edge 43, Type (0, 1), BuildingBlock: UVAHIK_clean_linker_0, # of connection points: 2
#     Edge 44, Type (0, 1), BuildingBlock: UVAHIK_clean_linker_0, # of connection points: 2
#     Edge 45, Type (0, 1), BuildingBlock: UVAHIK_clean_linker_0, # of connection points: 2
#     Edge 46, Type (0, 1), BuildingBlock: UVAHIK_clean_linker_0, # of connection points: 2
#     Edge 47, Type (0, 1), BuildingBlock: UVAHIK_clean_linker_0, # of connection points: 2
#     Edge 48, Type (0, 1), BuildingBlock: UVAHIK_clean_linker_0, # of connection points: 2
#     Edge 49, Type (0, 1), BuildingBlock: UVAHIK_clean_linker_0, # of connection points: 2
#     Edge 50, Type (0, 1), BuildingBlock: UVAHIK_clean_linker_0, # of connection points: 2
#     Edge 51, Type (0, 1), BuildingBlock: UVAHIK_clean_linker_0, # of connection points: 2
#     Edge 52, Type (0, 1), BuildingBlock: UVAHIK_clean_linker_0, # of connection points: 2
#     Edge 53, Type (0, 1), BuildingBlock: UVAHIK_clean_linker_0, # of connection points: 2
#     Edge 54, Type (0, 1), BuildingBlock: UVAHIK_clean_linker_0, # of connection points: 2
#     Edge 55, Type (0, 1), BuildingBlock: UVAHIK_clean_linker_0, # of connection points: 2
#     Edge 56, Type (0, 1), BuildingBlock: UVAHIK_clean_linker_0, # of connection points: 2
#     Edge 57, Type (0, 1), BuildingBlock: UVAHIK_clean_linker_0, # of connection points: 2
#     Edge 58, Type (0, 1), BuildingBlock: UVAHIK_clean_linker_0, # of connection points: 2
#     Edge 59, Type (0, 1), BuildingBlock: UVAHIK_clean_linker_0, # of connection points: 2
#     Edge 60, Type (0, 1), BuildingBlock: UVAHIK_clean_linker_0, # of connection points: 2
#     Edge 61, Type (0, 1), BuildingBlock: UVAHIK_clean_linker_0, # of connection points: 2
#     Edge 62, Type (0, 1), BuildingBlock: UVAHIK_clean_linker_0, # of connection points: 2
#     Edge 63, Type (0, 1), BuildingBlock: UVAHIK_clean_linker_0, # of connection points: 2
#     Edge 64, Type (0, 1), BuildingBlock: UVAHIK_clean_linker_0, # of connection points: 2
#     Edge 65, Type (0, 1), BuildingBlock: UVAHIK_clean_linker_0, # of connection points: 2
#     Edge 66, Type (0, 1), BuildingBlock: UVAHIK_clean_linker_0, # of connection points: 2
#     Edge 67, Type (0, 1), BuildingBlock: UVAHIK_clean_linker_0, # of connection points: 2
#     Edge 68, Type (0, 1), BuildingBlock: UVAHIK_clean_linker_0, # of connection points: 2
#     Edge 69, Type (0, 1), BuildingBlock: UVAHIK_clean_linker_0, # of connection points: 2
#     Edge 70, Type (0, 1), BuildingBlock: UVAHIK_clean_linker_0, # of connection points: 2
#     Edge 71, Type (0, 1), BuildingBlock: UVAHIK_clean_linker_0, # of connection points: 2
#     Edge 72, Type (0, 1), BuildingBlock: UVAHIK_clean_linker_0, # of connection points: 2
#     Edge 73, Type (0, 1), BuildingBlock: UVAHIK_clean_linker_0, # of connection points: 2
#     Edge 74, Type (0, 1), BuildingBlock: UVAHIK_clean_linker_0, # of connection points: 2
#     Edge 75, Type (0, 1), BuildingBlock: UVAHIK_clean_linker_0, # of connection points: 2
# Relax obj value: 0.003
# Max RMSD: 0.049
# Mean RMSD: 0.024
data_MOF--net-ctn--node1-WUSLED_clean_sbu_0--node2-TATPOV_clean_sbu_0--edge1-UVAHIK_clean_linker_0
_symmetry_space_group_name_H-M    P1
_symmetry_Int_Tables_number       1
_symmetry_cell_setting            triclinic
loop_
_symmetry_equiv_pos_as_xyz
'x, y, z'
_cell_length_a     87.297408
_cell_length_b     87.87052
_cell_length_c     87.621867
_cell_angle_alpha  91.45222
_cell_angle_beta   90.873595
_cell_angle_gamma 90.80032
loop_
_atom_site_label
_atom_site_type_symbol
_atom_site_fract_x
_atom_site_fract_y
_atom_site_fract_z
_atom_type_partial_charge
C0 C 0.01366 0.05135 0.07491 0.0
C1 C 0.01189 0.03628 0.07967 0.0
C2 C 0.99614 0.04483 0.101 0.0
C3 C 1.00317 0.03305 0.09256 0.0
C4 C 0.99813 0.0599 0.09623 0.0
C5 C 0.00676 0.06309 0.08334 0.0
U6 U 0.04562 0.04493 0.0454 0.0
O7 O 0.04471 0.04737 0.02045 0.0
O8 O 0.06032 0.06191 0.03441 0.0
C9 C 0.05454 0.05885 0.02072 0.0
C10 C 0.02224 0.05516 0.06105 0.0
C11 C 0.05035 0.0721 0.01158 0.0
C12 C 0.03328 0.0928 0.00524 0.0
C13 C 0.03694 0.08033 0.01427 0.0
C14 C 0.05641 0.08894 0.99083 0.0
C15 C 0.043 0.09729 0.9934 0.0
C16 C 0.06002 0.07651 0.99981 0.0
C17 C 0.07315 0.01102 0.05046 0.0
C18 C 0.09414 1.0041 0.03375 0.0
C19 C 0.08893 0.98918 0.05598 0.0
C20 C 0.07679 0.99874 0.05967 0.0
C21 C 0.09775 0.99165 0.04293 0.0
C22 C 0.08192 0.01369 0.03747 0.0
C23 C 0.06016 0.02073 0.05475 0.0
O24 O 0.03636 0.06021 0.06326 0.0
O25 O 0.0208 0.04557 0.04933 0.0
O26 O 0.04809 0.02002 0.0456 0.0
O27 O 0.06362 0.03466 0.05954 0.0
H28 H 0.01716 0.02701 0.07339 0.0
H29 H 1.00203 0.02134 0.09599 0.0
H30 H 0.99274 0.06924 0.10228 0.0
H31 H 0.00793 0.07479 0.07985 0.0
H32 H 0.02295 0.09903 0.00766 0.0
H33 H 0.02934 0.07712 0.02334 0.0
H34 H 0.06404 0.09185 0.98169 0.0
H35 H 0.07038 0.07027 0.99751 0.0
H36 H 0.1006 0.00629 0.02356 0.0
H37 H 0.0915 0.97992 0.06349 0.0
H38 H 0.07021 0.99654 0.06979 0.0
H39 H 0.07929 0.02313 0.0302 0.0
C40 C 0.26738 0.73704 0.18776 0.0
C41 C 0.27786 0.74929 0.18794 0.0
C42 C 0.26449 0.76036 0.16626 0.0
C43 C 0.27644 0.76085 0.17728 0.0
C44 C 0.25402 0.74802 0.16621 0.0
C45 C 0.25546 0.7365 0.17685 0.0
U46 U 0.28745 0.71682 0.22084 0.0
O47 O 0.27733 0.70582 0.24067 0.0
O48 O 0.2905 0.6923 0.22422 0.0
C49 C 0.28185 0.69219 0.23636 0.0
C50 C 0.26861 0.72472 0.19879 0.0
C51 C 0.27013 0.68 0.23663 0.0
C52 C 0.24629 0.66818 0.22736 0.0
C53 C 0.25729 0.67992 0.22679 0.0
C54 C 0.26091 0.65652 0.24755 0.0
C55 C 0.24799 0.6563 0.23774 0.0
C56 C 0.27186 0.66825 0.24698 0.0
C57 C 0.32472 0.73303 0.23883 0.0
C58 C 0.33843 0.7209 0.25955 0.0
C59 C 0.34738 0.74518 0.25036 0.0
C60 C 0.33535 0.74511 0.23964 0.0
C61 C 0.34903 0.73314 0.26054 0.0
C62 C 0.32634 0.72087 0.24881 0.0
C63 C 0.31197 0.73347 0.22765 0.0
O64 O 0.28 0.7153 0.19671 0.0
O65 O 0.2668 0.72872 0.2132 0.0
O66 O 0.29842 0.73618 0.23337 0.0
O67 O 0.31169 0.72261 0.21705 0.0
H68 H 0.28713 0.74991 0.19631 0.0
H69 H 0.28461 0.77024 0.17778 0.0
H70 H 0.24484 0.74711 0.15777 0.0
H71 H 0.24729 0.7271 0.17651 0.0
H72 H 0.23657 0.66829 0.21954 0.0
H73 H 0.2558 0.68892 0.21869 0.0
H74 H 0.26248 0.64774 0.25586 0.0
H75 H 0.28167 0.66817 0.2547 0.0
H76 H 0.3393 0.71151 0.26727 0.0
H77 H 0.35546 0.75464 0.25059 0.0
H78 H 0.33431 0.75456 0.232 0.0
H79 H 0.3182 0.71144 0.24835 0.0
C80 C 0.9645 0.43069 0.01441 0.0
C81 C 0.98018 0.42772 0.01298 0.0
C82 C 0.97422 0.40442 0.99822 0.0
C83 C 0.985 0.41474 0.00489 0.0
C84 C 0.95852 0.4073 0.99998 0.0
C85 C 0.95372 0.42034 0.00796 0.0
U86 U 0.96981 0.4621 0.04504 0.0
O87 O 0.96554 0.48664 0.0445 0.0
O88 O 0.95296 0.47248 0.06053 0.0
C89 C 0.9546 0.48601 0.05463 0.0
C90 C 0.95918 0.44451 0.02252 0.0
C91 C 0.94038 0.49407 0.05088 0.0
C92 C 0.92276 0.50484 0.03244 0.0
C93 C 0.9356 0.49606 0.0357 0.0
C94 C 0.91899 0.50934 0.05949 0.0
C95 C 0.91436 0.51173 0.04429 0.0
C96 C 0.93188 0.50064 0.06273 0.0
C97 C 0.00518 0.4629 0.07092 0.0
C98 C 0.00718 0.47947 0.0935 0.0
C99 C 0.02926 0.46529 0.08509 0.0
C100 C 0.0206 0.45905 0.07284 0.0
C101 C 0.0226 0.47544 0.09565 0.0
C102 C 0.99857 0.4733 0.0812 0.0
C103 C 0.99607 0.45589 0.05829 0.0
O104 O 0.95537 0.44272 0.03682 0.0
O105 O 0.96725 0.45702 0.02043 0.0
O106 O 0.99499 0.464 0.04594 0.0
O107 O 0.98295 0.4497 0.06219 0.0
H108 H 0.98871 0.43547 0.01802 0.0
H109 H 0.99716 0.41276 1.0039 0.0
H110 H 0.94994 0.39967 0.99486 0.0
H111 H 0.94157 0.42241 0.00899 0.0
H112 H 0.91969 0.50656 0.02059 0.0
H113 H 0.94196 0.4911 0.02634 0.0
H114 H 0.91267 0.51422 0.06891 0.0
H115 H 0.93536 0.49922 0.07452 0.0
H116 H 1.00179 0.4874 0.10133 0.0
H117 H 0.04105 0.46184 0.08652 0.0
H118 H 0.02588 0.45106 0.06499 0.0
H119 H 0.9867 0.47651 0.0798 0.0
C120 C 0.71545 0.75113 0.18602 0.0
C121 C 0.72818 0.75519 0.17733 0.0
C122 C 0.72354 0.73314 0.16026 0.0
C123 C 0.73219 0.74626 0.16455 0.0
C124 C 0.71074 0.72925 0.16901 0.0
C125 C 0.70676 0.73816 0.18175 0.0
U126 U 0.71956 0.78584 0.2135 0.0
O127 O 0.70145 0.79947 0.22424 0.0
O128 O 0.71762 0.787 0.2385 0.0
C129 C 0.70498 0.79496 0.23802 0.0
C130 C 0.71097 0.76023 0.19952 0.0
C131 C 0.69201 0.78945 0.24719 0.0
C132 C 0.67864 0.76951 0.26081 0.0
C133 C 0.69094 0.77429 0.25192 0.0
C134 C 0.66818 0.79486 0.26019 0.0
C135 C 0.66707 0.77973 0.265 0.0
C136 C 0.68053 0.79966 0.25144 0.0
C137 C 0.75076 0.81642 0.2064 0.0
C138 C 0.75148 0.84307 0.21474 0.0
C139 C 0.77466 0.831 0.20608 0.0
C140 C 0.76649 0.81734 0.20347 0.0
C141 C 0.76725 0.8441 0.21163 0.0
C142 C 0.74332 0.82936 0.21218 0.0
C143 C 0.74237 0.80203 0.20278 0.0
O144 O 0.72096 0.76092 0.2109 0.0
O145 O 0.70475 0.77342 0.19673 0.0
O146 O 0.72809 0.80323 0.19803 0.0
O147 O 0.74433 0.79097 0.21242 0.0
H148 H 0.73502 0.76519 0.18047 0.0
H149 H 0.74219 0.74952 0.15816 0.0
H150 H 0.70365 0.71941 0.16592 0.0
H151 H 0.69684 0.73491 0.18828 0.0
H152 H 0.67804 0.75775 0.26419 0.0
H153 H 0.69959 0.76613 0.24876 0.0
H154 H 0.65957 0.80307 0.26337 0.0
H155 H 0.68113 0.81141 0.24799 0.0
H156 H 0.74533 0.85293 0.21886 0.0
H157 H 0.78682 0.83124 0.20382 0.0
H158 H 0.77246 0.80748 0.19904 0.0
H159 H 0.73118 0.82894 0.21455 0.0
C160 C 0.01597 0.961 0.42971 0.0
C161 C 0.02364 0.96769 0.41754 0.0
C162 C 0.99994 0.96754 0.40236 0.0
C163 C 0.01573 0.97088 0.40399 0.0
C164 C 0.99229 0.96112 0.41475 0.0
C165 C 1.00023 0.95785 0.42823 0.0
U166 U 0.04667 0.96905 0.46061 0.0
O167 O 0.04595 0.96653 0.48551 0.0
O168 O 0.06249 0.95354 0.47202 0.0
C169 C 0.05654 0.95605 0.48553 0.0
C170 C 0.02413 0.95707 0.44394 0.0
C171 C 0.05306 0.94246 0.49439 0.0
C172 C 0.03877 0.91896 0.49815 0.0
C173 C 0.04199 0.93168 0.48936 0.0
C174 C 0.0577 0.92769 0.51702 0.0
C175 C 0.04657 0.91683 0.51213 0.0
C176 C 0.0609 0.94037 0.50822 0.0
C177 C 0.07221 0.00473 0.45831 0.0
C178 C 0.09829 0.00878 0.4679 0.0
C179 C 0.08203 0.03039 0.46353 0.0
C180 C 0.07012 0.02052 0.45869 0.0
C181 C 0.09636 0.02467 0.46798 0.0
C182 C 0.08633 0.99891 0.46318 0.0
C183 C 0.05968 0.99463 0.45246 0.0
O184 O 0.0385 0.95304 0.44251 0.0
O185 O 0.02191 0.96623 0.45578 0.0
O186 O 0.04734 0.99415 0.46086 0.0
O187 O 0.06367 0.98119 0.44704 0.0
H188 H 0.03579 0.97032 0.41843 0.0
H189 H 0.02205 0.97569 0.39469 0.0
H190 H 0.9801 0.95869 0.41409 0.0
H191 H 0.99407 0.9528 0.43752 0.0
H192 H 0.03026 0.91074 0.49395 0.0
H193 H 0.03584 0.93312 0.47867 0.0
H194 H 0.06376 0.92656 0.5278 0.0
H195 H 0.06945 0.94862 0.5123 0.0
H196 H 0.10919 1.00394 0.47106 0.0
H197 H 0.08001 0.04252 0.4637 0.0
H198 H 0.05929 0.02524 0.45509 0.0
H199 H 0.08823 0.98675 0.46309 0.0
C200 C 0.21004 0.75118 0.81868 0.0
C201 C 0.22528 0.75382 0.82353 0.0
C202 C 0.21659 0.76845 0.84578 0.0
C203 C 0.22852 0.76239 0.83693 0.0
C204 C 0.20136 0.76556 0.84093 0.0
C205 C 0.19814 0.75705 0.82753 0.0
U206 U 0.21707 0.72023 0.78751 0.0
O207 O 0.20017 0.705 0.77577 0.0
O208 O 0.21353 0.7213 0.76265 0.0
C209 C 0.20233 0.71114 0.76244 0.0
C210 C 0.20619 0.74267 0.80436 0.0
C211 C 0.18837 0.71526 0.75395 0.0
C212 C 0.16728 0.73238 0.74906 0.0
C213 C 0.18035 0.72857 0.75757 0.0
C214 C 0.17006 0.70952 0.73337 0.0
C215 C 0.16198 0.72289 0.73683 0.0
C216 C 0.18311 0.70576 0.74185 0.0
C217 C 0.25161 0.69379 0.78955 0.0
C218 C 0.25359 0.66944 0.77591 0.0
C219 C 0.27605 0.68085 0.78835 0.0
C220 C 0.26729 0.69325 0.79319 0.0
C221 C 0.26927 0.66868 0.77983 0.0
C222 C 0.24486 0.68189 0.78067 0.0
C223 C 0.24243 0.70655 0.79553 0.0
O224 O 0.21537 0.74475 0.7928 0.0
O225 O 0.20195 0.72838 0.80581 0.0
O226 O 0.22886 0.70286 0.80073 0.0
O227 O 0.24228 0.71884 0.78729 0.0
H228 H 0.23466 0.74937 0.81689 0.0
H229 H 0.24039 0.7645 0.84019 0.0
H230 H 0.19187 0.76978 0.84756 0.0
H231 H 0.18631 0.75509 0.82403 0.0
H232 H 0.16126 0.74267 0.75214 0.0
H233 H 0.18423 0.73603 0.76693 0.0
H234 H 0.16648 0.70206 0.72392 0.0
H235 H 0.18919 0.69546 0.73886 0.0
H236 H 0.24805 0.66035 0.7692 0.0
H237 H 0.28803 0.68058 0.79171 0.0
H238 H 0.27271 0.70232 0.80003 0.0
H239 H 0.2328 0.68213 0.77762 0.0
C240 C 0.96112 0.57383 0.50425 0.0
C241 C 0.9715 0.58409 0.49783 0.0
C242 C 0.97297 0.5988 0.52177 0.0
C243 C 0.97732 0.5965 0.5065 0.0
C244 C 0.96279 0.5883 0.52823 0.0
C245 C 0.95689 0.57593 0.51951 0.0
U246 U 0.96287 0.54701 0.46973 0.0
O247 O 0.95842 0.52235 0.46741 0.0
O248 O 0.94466 0.53817 0.45414 0.0
C249 C 0.94662 0.52401 0.45814 0.0
C250 C 0.95469 0.56092 0.49511 0.0
C251 C 0.9326 0.51553 0.46198 0.0
C252 C 0.91178 0.50987 0.47919 0.0
C253 C 0.92497 0.51833 0.47573 0.0
C254 C 0.91367 0.49595 0.45509 0.0
C255 C 0.90604 0.49848 0.46896 0.0
C256 C 0.9268 0.50438 0.45167 0.0
C257 C 0.99686 0.55242 0.44241 0.0
C258 C 0.01359 0.53525 0.42845 0.0
C259 C 0.00909 0.56051 0.4191 0.0
C260 C 0.99948 0.56349 0.43143 0.0
C261 C 0.01643 0.54643 0.41759 0.0
C262 C 1.00389 0.53819 0.4407 0.0
C263 C 0.98772 0.55636 0.45602 0.0
O264 O 0.94918 0.56432 0.48159 0.0
O265 O 0.96307 0.54861 0.49486 0.0
O266 O 0.98784 0.54662 0.46718 0.0
O267 O 0.97413 0.56214 0.45346 0.0
H268 H 0.97503 0.58255 0.4861 0.0
H269 H 0.98529 0.60428 0.50126 0.0
H270 H 0.95911 0.58983 0.53991 0.0
H271 H 0.94893 0.56808 0.52465 0.0
H272 H 0.90627 0.51204 0.49001 0.0
H273 H 0.92929 0.52694 0.48382 0.0
H274 H 0.90944 0.48748 0.44682 0.0
H275 H 0.93249 0.50214 0.44095 0.0
H276 H 0.0189 0.52421 0.42748 0.0
H277 H 0.01113 0.5694 0.411 0.0
H278 H 0.99431 0.5746 0.43255 0.0
H279 H 1.00212 0.52938 0.44895 0.0
C280 C 0.78847 0.79022 0.8395 0.0
C281 C 0.78798 0.7746 0.8356 0.0
C282 C 0.78536 0.76832 0.86237 0.0
C283 C 0.78636 0.76378 0.84692 0.0
C284 C 0.78618 0.78393 0.86628 0.0
C285 C 0.78763 0.79477 0.85494 0.0
U286 U 0.80701 0.80748 0.80438 0.0
O287 O 0.79632 0.81652 0.7837 0.0
O288 O 0.8108 0.83144 0.79848 0.0
C289 C 0.8012 0.83051 0.78675 0.0
C290 C 0.78941 0.8019 0.82767 0.0
C291 C 0.78956 0.84259 0.78553 0.0
C292 C 0.76718 0.85272 0.77255 0.0
C293 C 0.77791 0.84121 0.77431 0.0
C294 C 0.77958 0.8674 0.79308 0.0
C295 C 0.76791 0.866 0.78185 0.0
C296 C 0.79031 0.85585 0.79487 0.0
C297 C 0.842 0.78833 0.78648 0.0
C298 C 0.86445 0.79827 0.77364 0.0
C299 C 0.85368 0.77368 0.7659 0.0
C300 C 0.84246 0.77521 0.77703 0.0
C301 C 0.8648 0.78519 0.76407 0.0
C302 C 0.85314 0.79985 0.7847 0.0
C303 C 0.83004 0.78954 0.79824 0.0
O304 O 0.80134 0.8112 0.82864 0.0
O305 O 0.78609 0.79731 0.81359 0.0
O306 O 0.81592 0.78664 0.79347 0.0
O307 O 0.83108 0.80122 0.80792 0.0
H308 H 0.78872 0.77071 0.82382 0.0
H309 H 0.78598 0.75182 0.84357 0.0
H310 H 0.78534 0.78776 0.87808 0.0
H311 H 0.78795 0.80674 0.85822 0.0
H312 H 0.75824 0.85114 0.76393 0.0
H313 H 0.7771 0.83123 0.76681 0.0
H314 H 0.78061 0.87755 0.8003 0.0
H315 H 0.79926 0.85741 0.80349 0.0
H316 H 0.87277 0.80739 0.77241 0.0
H317 H 0.85376 0.76339 0.75883 0.0
H318 H 0.83412 0.76609 0.77827 0.0
H319 H 0.85313 0.81012 0.79181 0.0
C320 C 0.28556 0.2888 0.34083 0.0
C321 C 0.28625 0.27317 0.33711 0.0
C322 C 0.28421 0.26694 0.36398 0.0
C323 C 0.28549 0.26239 0.34853 0.0
C324 C 0.28362 0.28261 0.36767 0.0
C325 C 0.28425 0.2934 0.3562 0.0
U326 U 0.30379 0.30626 0.30581 0.0
O327 O 0.29308 0.31473 0.28482 0.0
O328 O 0.30701 0.33018 0.2996 0.0
C329 C 0.29757 0.32885 0.28778 0.0
C330 C 0.28603 0.30038 0.32888 0.0
C331 C 0.28561 0.34054 0.28638 0.0
C332 C 0.27238 0.363 0.29594 0.0
C333 C 0.28356 0.35189 0.29776 0.0
C334 C 0.26505 0.3516 0.27141 0.0
C335 C 0.26297 0.36294 0.28276 0.0
C336 C 0.2763 0.34058 0.27317 0.0
C337 C 0.34011 0.28855 0.28938 0.0
C338 C 0.34905 0.2892 0.26325 0.0
C339 C 0.36714 0.28544 0.28398 0.0
C340 C 0.3552 0.28623 0.29441 0.0
C341 C 0.36423 0.28687 0.26824 0.0
C342 C 0.33713 0.29011 0.2737 0.0
C343 C 0.32773 0.28923 0.30066 0.0
O344 O 0.29752 0.3102 0.32987 0.0
O345 O 0.28309 0.29547 0.31482 0.0
O346 O 0.31385 0.28568 0.29558 0.0
O347 O 0.32811 0.30115 0.31004 0.0
H348 H 0.28727 0.26924 0.32536 0.0
H349 H 0.28569 0.25045 0.34519 0.0
H350 H 0.28284 0.28657 0.37943 0.0
H351 H 0.28372 0.30539 0.35935 0.0
H352 H 0.27095 0.3715 0.30495 0.0
H353 H 0.29055 0.35222 0.30807 0.0
H354 H 0.25812 0.35137 0.26105 0.0
H355 H 0.27774 0.33208 0.26416 0.0
H356 H 0.3463 0.29014 0.25122 0.0
H357 H 0.37869 0.28389 0.28829 0.0
H358 H 0.35776 0.28506 0.30646 0.0
H359 H 0.32558 0.29195 0.2695 0.0
C360 C 0.46249 0.92941 0.51852 0.0
C361 C 0.47813 0.92608 0.51754 0.0
C362 C 0.4721 0.90316 0.50223 0.0
C363 C 0.4829 0.91312 0.50941 0.0
C364 C 0.45642 0.90637 0.50355 0.0
C365 C 0.45168 0.9194 0.51159 0.0
U366 U 0.46856 0.96079 0.54892 0.0
O367 O 0.46443 0.9854 0.54833 0.0
O368 O 0.45234 0.9714 0.56482 0.0
C369 C 0.45401 0.98495 0.55898 0.0
C370 C 0.4573 0.94325 0.52666 0.0
C371 C 0.43985 0.9932 0.55571 0.0
C372 C 0.41588 0.99602 0.54167 0.0
C373 C 0.42901 0.98762 0.54491 0.0
C374 C 0.42429 0.01555 0.56006 0.0
C375 C 0.4134 0.01015 0.54915 0.0
C376 C 0.43737 0.00714 0.5633 0.0
C377 C 0.50443 0.9613 0.57405 0.0
C378 C 0.50682 0.97759 0.5968 0.0
C379 C 0.52878 0.96361 0.58777 0.0
C380 C 0.5199 0.95749 0.57561 0.0
C381 C 0.52228 0.97358 0.59861 0.0
C382 C 0.49799 0.97155 0.58459 0.0
C383 C 0.49506 0.95436 0.56157 0.0
O384 O 0.45378 0.94153 0.54105 0.0
O385 O 0.46537 0.95572 0.52437 0.0
O386 O 0.49377 0.9625 0.54925 0.0
O387 O 0.48199 0.94824 0.56572 0.0
H388 H 0.48667 0.93357 0.52296 0.0
H389 H 0.49504 0.91087 0.50876 0.0
H390 H 0.44783 0.89902 0.49804 0.0
H391 H 0.43955 0.92175 0.51227 0.0
H392 H 0.40766 0.99142 0.53334 0.0
H393 H 0.43076 0.97685 0.53894 0.0
H394 H 0.42291 0.02646 0.56587 0.0
H395 H 0.44567 0.01165 0.57162 0.0
H396 H 0.50154 0.98538 0.60486 0.0
H397 H 0.5406 0.9602 0.58892 0.0
H398 H 0.52505 0.94962 0.56754 0.0
H399 H 0.48608 0.97473 0.58348 0.0
C400 C 0.21611 0.25164 0.68675 0.0
C401 C 0.22833 0.25596 0.6775 0.0
C402 C 0.22373 0.23355 0.66091 0.0
C403 C 0.2321 0.247 0.66466 0.0
C404 C 0.21141 0.22942 0.6702 0.0
C405 C 0.20766 0.23838 0.68298 0.0
U406 U 0.22144 0.28586 0.71468 0.0
O407 O 0.20402 0.29944 0.72646 0.0
O408 O 0.2204 0.28632 0.73981 0.0
C409 C 0.20794 0.29454 0.74 0.0
C410 C 0.21209 0.26062 0.70049 0.0
C411 C 0.19531 0.28864 0.74927 0.0
C412 C 0.17228 0.27306 0.75191 0.0
C413 C 0.18438 0.27829 0.74303 0.0
C414 C 0.18207 0.2882 0.77349 0.0
C415 C 0.17093 0.278 0.76725 0.0
C416 C 0.19411 0.29347 0.76457 0.0
C417 C 0.25286 0.31602 0.70719 0.0
C418 C 0.25643 0.33994 0.72148 0.0
C419 C 0.27474 0.33252 0.70228 0.0
C420 C 0.26629 0.31912 0.6992 0.0
C421 C 0.26992 0.34314 0.71343 0.0
C422 C 0.24798 0.32649 0.71839 0.0
C423 C 0.24413 0.3019 0.70349 0.0
O424 O 0.22238 0.26097 0.71159 0.0
O425 O 0.206 0.27395 0.69809 0.0
O426 O 0.22971 0.30359 0.69942 0.0
O427 O 0.24618 0.29061 0.71283 0.0
H428 H 0.235 0.26618 0.68027 0.0
H429 H 0.24173 0.25045 0.65785 0.0
H430 H 0.20456 0.21931 0.66753 0.0
H431 H 0.19816 0.2349 0.68997 0.0
H432 H 0.16402 0.26508 0.7468 0.0
H433 H 0.18518 0.27431 0.73126 0.0
H434 H 0.1813 0.29236 0.78519 0.0
H435 H 0.20244 0.30145 0.7696 0.0
H436 H 0.25227 0.34791 0.73002 0.0
H437 H 0.28517 0.33445 0.69603 0.0
H438 H 0.27026 0.31114 0.69055 0.0
H439 H 0.23762 0.3243 0.72467 0.0
C440 C 0.76877 0.23758 0.68681 0.0
C441 C 0.77971 0.24942 0.6867 0.0
C442 C 0.76631 0.26092 0.66528 0.0
C443 C 0.7785 0.26099 0.67603 0.0
C444 C 0.75538 0.249 0.66552 0.0
C445 C 0.75661 0.23747 0.67618 0.0
U446 U 0.78853 0.21715 0.7199 0.0
O447 O 0.7783 0.20629 0.73975 0.0
O448 O 0.79132 0.1926 0.72332 0.0
C449 C 0.78269 0.19261 0.73548 0.0
C450 C 0.7698 0.22524 0.69784 0.0
C451 C 0.7709 0.1805 0.73584 0.0
C452 C 0.74681 0.16892 0.72693 0.0
C453 C 0.75787 0.18061 0.72627 0.0
C454 C 0.76176 0.15695 0.74669 0.0
C455 C 0.74865 0.15692 0.73714 0.0
C456 C 0.77276 0.16862 0.74603 0.0
C457 C 0.82601 0.233 0.73779 0.0
C458 C 0.83936 0.22107 0.75885 0.0
C459 C 0.84913 0.24467 0.74883 0.0
C460 C 0.83706 0.2447 0.73816 0.0
C461 C 0.85039 0.23293 0.7594 0.0
C462 C 0.82724 0.22112 0.74815 0.0
C463 C 0.81324 0.23354 0.72664 0.0
O464 O 0.78105 0.21566 0.69578 0.0
O465 O 0.76802 0.22928 0.71224 0.0
O466 O 0.79973 0.2364 0.73238 0.0
O467 O 0.81283 0.22266 0.71607 0.0
H468 H 0.78917 0.24971 0.69486 0.0
H469 H 0.78703 0.27006 0.6763 0.0
H470 H 0.74599 0.24841 0.6573 0.0
H471 H 0.74808 0.22838 0.67606 0.0
H472 H 0.73693 0.16918 0.71932 0.0
H473 H 0.75627 0.18971 0.7183 0.0
H474 H 0.76344 0.14806 0.75486 0.0
H475 H 0.78272 0.16839 0.75354 0.0
H476 H 0.83992 0.21192 0.76688 0.0
H477 H 0.85755 0.25384 0.74872 0.0
H478 H 0.83634 0.25392 0.73021 0.0
H479 H 0.81877 0.21199 0.74803 0.0
C480 C 0.51184 0.55036 0.57209 0.0
C481 C 0.51251 0.53604 0.57883 0.0
C482 C 0.49296 0.54359 0.59714 0.0
C483 C 0.50317 0.53269 0.59126 0.0
C484 C 0.49262 0.558 0.59047 0.0
C485 C 0.50194 0.56131 0.57811 0.0
U486 U 0.54513 0.54445 0.54383 0.0
O487 O 0.54468 0.54627 0.51876 0.0
O488 O 0.55928 0.56179 0.53277 0.0
C489 C 0.55386 0.55826 0.51903 0.0
C490 C 0.5209 0.55409 0.55854 0.0
C491 C 0.54905 0.57109 0.50956 0.0
C492 C 0.53651 0.59543 0.50629 0.0
C493 C 0.54051 0.58323 0.51554 0.0
C494 C 0.54934 0.58339 0.48498 0.0
C495 C 0.54089 0.59568 0.49087 0.0
C496 C 0.55336 0.57126 0.49422 0.0
C497 C 0.57377 0.51166 0.55009 0.0
C498 C 0.59366 0.50332 0.53267 0.0
C499 C 0.59128 0.49168 0.55728 0.0
C500 C 0.57895 0.50112 0.56066 0.0
C501 C 0.59874 0.49252 0.54319 0.0
C502 C 0.58126 0.51279 0.53608 0.0
C503 C 0.56037 0.521 0.55395 0.0
O504 O 0.53479 0.55958 0.56117 0.0
O505 O 0.52018 0.54417 0.54706 0.0
O506 O 0.54848 0.51969 0.5446 0.0
O507 O 0.56325 0.53512 0.55854 0.0
H508 H 0.5201 0.52741 0.57436 0.0
H509 H 0.50368 0.52145 0.59602 0.0
H510 H 0.48517 0.56678 0.59484 0.0
H511 H 0.50129 0.57245 0.57312 0.0
H512 H 0.52986 0.6046 0.51118 0.0
H513 H 0.537 0.58331 0.52734 0.0
H514 H 0.55312 0.58325 0.47326 0.0
H515 H 0.56 0.56204 0.48939 0.0
H516 H 0.59906 0.50423 0.52167 0.0
H517 H 0.59501 0.48375 0.56578 0.0
H518 H 0.57338 0.50012 0.57156 0.0
H519 H 0.57743 0.52087 0.52775 0.0
C520 C 0.51859 0.46044 0.9283 0.0
C521 C 0.51654 0.47596 0.92554 0.0
C522 C 0.50267 0.4696 0.90182 0.0
C523 C 0.50858 0.48049 0.91247 0.0
C524 C 0.50503 0.45408 0.90447 0.0
C525 C 0.51288 0.44955 0.91762 0.0
U526 U 0.54899 0.46643 0.95972 0.0
O527 O 0.54803 0.46285 0.98444 0.0
O528 O 0.56452 0.45022 0.97055 0.0
C529 C 0.55834 0.45208 0.98406 0.0
C530 C 0.52659 0.45542 0.94222 0.0
C531 C 0.55478 0.43821 0.99274 0.0
C532 C 0.55717 0.41099 0.99678 0.0
C533 C 0.55952 0.42371 0.98773 0.0
C534 C 0.54523 0.42698 0.01595 0.0
C535 C 0.5501 0.41248 0.01107 0.0
C536 C 0.54762 0.43967 0.00694 0.0
C537 C 0.57472 0.50213 0.95954 0.0
C538 C 0.58453 0.52744 0.96651 0.0
C539 C 0.60081 0.50557 0.9693 0.0
C540 C 0.58886 0.49602 0.96392 0.0
C541 C 0.59885 0.52144 0.97055 0.0
C542 C 0.57262 0.51789 0.96102 0.0
C543 C 0.56219 0.49239 0.95305 0.0
O544 O 0.54096 0.45156 0.9405 0.0
O545 O 0.52435 0.46369 0.9547 0.0
O546 O 0.54974 0.49152 0.96125 0.0
O547 O 0.56619 0.47921 0.947 0.0
H548 H 0.52101 0.48459 0.93354 0.0
H549 H 0.50712 0.49254 0.91066 0.0
H550 H 0.50051 0.44541 0.89656 0.0
H551 H 0.51438 0.43752 0.91951 0.0
H552 H 0.56123 0.40004 0.99273 0.0
H553 H 0.56528 0.42219 0.97696 0.0
H554 H 0.53953 0.42855 0.02675 0.0
H555 H 0.54401 0.45071 0.01121 0.0
H556 H 0.5825 0.53955 0.96756 0.0
H557 H 0.61171 0.50053 0.97208 0.0
H558 H 0.59079 0.48388 0.96297 0.0
H559 H 0.56178 0.52283 0.95779 0.0
C560 C 0.7078 0.25064 0.31847 0.0
C561 C 0.71645 0.24443 0.33036 0.0
C562 C 0.71372 0.26781 0.34574 0.0
C563 C 0.71936 0.25293 0.34388 0.0
C564 C 0.70516 0.27396 0.33369 0.0
C565 C 0.70223 0.26545 0.32022 0.0
U566 U 0.71532 0.21861 0.28874 0.0
O567 O 0.6987 0.20336 0.27665 0.0
O568 O 0.71304 0.21897 0.26371 0.0
C569 C 0.70156 0.20912 0.26328 0.0
C570 C 0.70422 0.24186 0.30426 0.0
C571 C 0.68803 0.21353 0.25427 0.0
C572 C 0.66698 0.23066 0.2493 0.0
C573 C 0.67977 0.22663 0.25811 0.0
C574 C 0.67057 0.20849 0.23282 0.0
C575 C 0.66221 0.22163 0.23654 0.0
C576 C 0.68334 0.2045 0.2416 0.0
C577 C 0.74963 0.19202 0.29405 0.0
C578 C 0.75633 0.1716 0.27618 0.0
C579 C 0.77051 0.17506 0.30002 0.0
C580 C 0.7614 0.18749 0.3039 0.0
C581 C 0.76803 0.16685 0.28617 0.0
C582 C 0.74717 0.18406 0.28011 0.0
C583 C 0.74 0.20492 0.29871 0.0
O584 O 0.714 0.24337 0.29313 0.0
O585 O 0.69955 0.22771 0.30591 0.0
O586 O 0.72608 0.20137 0.30304 0.0
O587 O 0.74045 0.21684 0.28995 0.0
H588 H 0.72086 0.233 0.32924 0.0
H589 H 0.72584 0.24774 0.35296 0.0
H590 H 0.70086 0.28544 0.33456 0.0
H591 H 0.69557 0.27045 0.31115 0.0
H592 H 0.66073 0.24075 0.2526 0.0
H593 H 0.68321 0.23371 0.2679 0.0
H594 H 0.66737 0.20139 0.22296 0.0
H595 H 0.68961 0.19437 0.23844 0.0
H596 H 0.75402 0.16546 0.2655 0.0
H597 H 0.77955 0.1719 0.30788 0.0
H598 H 0.76351 0.19354 0.31467 0.0
H599 H 0.7381 0.18739 0.27236 0.0
C600 C 0.45899 0.07543 1.00413 0.0
C601 C 0.46368 0.08943 0.9982 0.0
C602 C 0.46874 0.09968 0.02395 0.0
C603 C 0.46846 0.10144 0.00801 0.0
C604 C 0.46447 0.08548 0.02977 0.0
C605 C 0.4596 0.07352 0.01996 0.0
U606 U 0.46065 0.04938 0.96836 0.0
O607 O 0.45622 0.02477 0.96577 0.0
O608 O 0.44182 0.04072 0.95332 0.0
C609 C 0.44383 0.02656 0.95731 0.0
C610 C 0.45302 0.06285 0.99415 0.0
C611 C 0.42993 0.01831 0.96214 0.0
C612 C 0.41442 0.00703 0.98186 0.0
C613 C 0.42732 0.01545 0.97759 0.0
C614 C 0.40623 0.00471 0.95536 0.0
C615 C 0.40379 1.00146 0.97077 0.0
C616 C 0.41921 0.01301 0.95109 0.0
C617 C 0.49403 0.05446 0.94034 0.0
C618 C 0.50999 0.03678 0.92611 0.0
C619 C 0.50611 0.06216 0.91682 0.0
C620 C 0.4968 0.06544 0.92932 0.0
C621 C 0.51297 0.04783 0.91513 0.0
C622 C 0.50061 0.04003 0.93853 0.0
C623 C 0.48522 0.05863 0.95411 0.0
O624 O 0.44736 0.06661 0.98079 0.0
O625 O 0.46144 0.05058 0.99351 0.0
O626 O 0.48554 0.04898 0.96533 0.0
O627 O 0.47161 0.06446 0.95181 0.0
H628 H 0.46341 0.09119 0.98601 0.0
H629 H 0.47148 0.11224 1.00311 0.0
H630 H 0.46481 0.0836 0.04193 0.0
H631 H 0.45612 0.06279 0.02477 0.0
H632 H 0.41276 0.00487 0.99384 0.0
H633 H 0.43533 0.01958 0.98637 0.0
H634 H 0.39833 1.00047 0.94654 0.0
H635 H 0.42099 0.01513 0.93911 0.0
H636 H 0.51524 0.0257 0.92536 0.0
H637 H 0.50794 0.07088 0.9085 0.0
H638 H 0.49192 0.07668 0.93048 0.0
H639 H 0.49878 0.03131 0.94685 0.0
Zn640 Zn 0.27823 0.86059 0.00858 0.0
Zn641 Zn 0.25399 0.87753 0.01056 0.0
O642 O 0.25455 0.86585 0.03136 0.0
O643 O 0.2755 0.85234 0.02928 0.0
O644 O 0.23568 0.89168 0.01264 0.0
O645 O 0.29234 0.87838 0.00628 0.0
O646 O 0.27214 0.89305 0.00737 0.0
C647 C 0.26406 0.85644 0.03696 0.0
C648 C 0.25644 0.85304 0.98474 0.0
O649 O 0.24889 0.86373 0.99117 0.0
O650 O 0.26938 0.84947 0.99017 0.0
C651 C 0.22256 0.8873 0.01711 0.0
O652 O 0.22046 0.87291 0.02036 0.0
C653 C 0.2866 0.89151 0.00605 0.0
Zn654 Zn 0.10965 0.47868 0.26383 0.0
Zn655 Zn 0.12785 0.5028 0.26144 0.0
O656 O 0.11544 0.50804 0.28101 0.0
O657 O 0.10162 0.48714 0.28356 0.0
O658 O 0.14235 0.52083 0.2592 0.0
O659 O 0.12765 0.46464 0.26386 0.0
O660 O 0.14287 0.4848 0.26363 0.0
C661 C 0.10564 0.50032 0.28839 0.0
C662 C 0.1037 0.49437 0.23636 0.0
O663 O 0.11506 0.50255 0.24117 0.0
O664 O 0.09881 0.48352 0.24425 0.0
C665 C 0.13769 0.53413 0.25636 0.0
O666 O 0.12289 0.53643 0.25506 0.0
C667 C 0.14103 0.47038 0.26412 0.0
Zn668 Zn 0.76816 0.61325 0.97185 0.0
Zn669 Zn 0.76395 0.62927 0.99715 0.0
O670 O 0.78263 0.6157 1.00281 0.0
O671 O 0.78522 0.60199 0.98167 0.0
O672 O 0.76061 0.6424 0.01618 0.0
O673 O 0.77269 0.63188 0.95992 0.0
O674 O 0.76798 0.64554 0.98067 0.0
C675 C 0.78942 0.60521 0.99526 0.0
C676 C 0.73848 0.60777 0.9839 0.0
O677 O 0.74339 0.61708 0.99434 0.0
O678 O 0.74687 0.60453 0.97266 0.0
C679 C 0.7563 0.63686 0.02871 0.0
O680 O 0.7541 0.62207 0.02946 0.0
C681 C 0.77151 0.64474 0.96658 0.0
Zn682 Zn 0.86256 1.0012 0.27639 0.0
Zn683 Zn 0.87753 0.00634 0.2517 0.0
O684 O 0.86572 0.02681 0.2555 0.0
O685 O 0.85527 0.02264 0.27772 0.0
O686 O 0.88987 0.00993 0.23241 0.0
O687 O 0.88123 0.99499 0.28791 0.0
O688 O 0.89464 1.00166 0.26803 0.0
C689 C 0.85771 0.03142 0.26677 0.0
C690 C 0.85241 0.98092 0.25264 0.0
O691 O 0.86319 0.98761 0.24554 0.0
O692 O 0.8494 0.98514 0.26616 0.0
C693 C 0.90024 0.02026 0.23215 0.0
O694 O 0.90269 0.02886 0.24446 0.0
C695 C 0.89404 0.99679 0.28164 0.0
Zn696 Zn 0.26954 0.11211 0.47374 0.0
Zn697 Zn 0.26427 0.12792 0.49895 0.0
O698 O 0.28283 0.11433 0.50508 0.0
O699 O 0.28697 0.10153 0.48366 0.0
O700 O 0.26049 0.14107 0.51787 0.0
O701 O 0.27362 0.13081 0.46184 0.0
O702 O 0.26851 0.14429 0.48259 0.0
C703 C 0.29044 0.10446 0.4975 0.0
C704 C 0.23941 0.10635 0.48498 0.0
O705 O 0.24378 0.11585 0.49548 0.0
O706 O 0.24838 0.10292 0.47425 0.0
C707 C 0.25687 0.13562 0.53065 0.0
O708 O 0.2556 0.12078 0.53184 0.0
C709 C 0.27217 0.14361 0.46854 0.0
Zn710 Zn 0.36321 0.50351 0.77637 0.0
Zn711 Zn 0.37908 0.50698 0.7519 0.0
O712 O 0.36592 0.52696 0.75318 0.0
O713 O 0.35093 0.52199 0.77245 0.0
O714 O 0.39278 0.50976 0.73337 0.0
O715 O 0.38156 0.50482 0.79031 0.0
O716 O 0.39538 0.50471 0.76952 0.0
C717 C 0.35482 0.53064 0.76182 0.0
C718 C 0.35772 0.47886 0.75522 0.0
O719 O 0.36626 0.48697 0.74679 0.0
O720 O 0.35523 0.48322 0.76882 0.0
C721 C 0.38875 0.51653 0.7213 0.0
O722 O 0.37483 0.52195 0.7203 0.0
C723 C 0.39452 0.50453 0.78406 0.0
Zn724 Zn 0.77802 0.36044 0.50655 0.0
Zn725 Zn 0.75422 0.37757 0.50941 0.0
O726 O 0.75551 0.36615 0.5303 0.0
O727 O 0.77668 0.35306 0.52781 0.0
O728 O 0.73604 0.39186 0.51191 0.0
O729 O 0.79195 0.37781 0.50202 0.0
O730 O 0.77235 0.39292 0.50531 0.0
C731 C 0.7654 0.35707 0.53578 0.0
C732 C 0.7553 0.35245 0.48397 0.0
O733 O 0.74827 0.36354 0.49035 0.0
O734 O 0.76824 0.34859 0.48918 0.0
C735 C 0.72342 0.38788 0.51784 0.0
O736 O 0.72177 0.37385 0.52246 0.0
C737 C 0.78651 0.39107 0.50233 0.0
Zn738 Zn 0.61228 0.97851 0.76619 0.0
Zn739 Zn 0.6296 1.00318 0.76309 0.0
O740 O 0.61707 0.00849 0.78259 0.0
O741 O 0.60392 0.98725 0.78562 0.0
O742 O 0.64367 0.02146 0.76044 0.0
O743 O 0.6307 0.96505 0.76671 0.0
O744 O 0.64517 0.98564 0.76538 0.0
C745 C 0.60748 1.00066 0.79012 0.0
C746 C 0.60568 0.99346 0.73832 0.0
O747 O 0.61668 1.00222 0.74294 0.0
O748 O 0.60135 0.98253 0.74641 0.0
C749 C 0.63884 0.03473 0.75769 0.0
O750 O 0.624 0.03693 0.75675 0.0
C751 C 0.64387 0.97122 0.76646 0.0
Zn752 Zn 0.009 0.27405 0.86146 0.0
Zn753 Zn 0.01108 0.25046 0.87805 0.0
O754 O 0.03114 0.24997 0.86489 0.0
O755 O 0.02677 0.26821 0.84868 0.0
O756 O 0.01344 0.23261 0.89243 0.0
O757 O 0.01189 0.28882 0.87901 0.0
O758 O 0.00948 0.26895 0.89359 0.0
C759 C 0.03507 0.2575 0.85323 0.0
C760 C 0.98274 0.25476 0.85733 0.0
O761 O 0.99066 0.24588 0.86557 0.0
O762 O 0.98782 0.26796 0.85463 0.0
C763 C 0.01416 0.21869 0.88813 0.0
O764 O 0.01321 0.21521 0.87347 0.0
C765 C 0.01066 0.28335 0.89215 0.0
Zn766 Zn 0.50648 0.77574 0.36362 0.0
Zn767 Zn 0.50966 0.75156 0.37902 0.0
O768 O 0.52924 0.75187 0.36511 0.0
O769 O 0.52413 0.77105 0.35029 0.0
O770 O 0.51284 0.7333 0.39273 0.0
O771 O 0.50937 0.79 0.38148 0.0
O772 O 0.5081 0.76949 0.39531 0.0
C773 C 0.53272 0.76019 0.35385 0.0
C774 C 0.4807 0.75587 0.35919 0.0
O775 O 0.48903 0.74691 0.36692 0.0
O776 O 0.48533 0.76932 0.35692 0.0
C777 C 0.51157 0.7194 0.38837 0.0
O778 O 0.50795 0.71616 0.37403 0.0
C779 C 0.50878 0.78398 0.39441 0.0
Zn780 Zn 0.97912 0.76728 0.60976 0.0
Zn781 Zn 1.00385 0.76465 0.62696 0.0
O782 O 0.00891 0.78379 0.61409 0.0
O783 O 0.98717 0.78682 0.60156 0.0
O784 O 0.02248 0.76222 0.64085 0.0
O785 O 0.9655 0.76753 0.62799 0.0
O786 O 0.98624 0.76742 0.64256 0.0
C787 C 1.0007 0.79128 0.60478 0.0
C788 C 0.99435 0.73954 0.60318 0.0
O789 O 1.0029 0.74421 0.61433 0.0
O790 O 0.98345 0.74768 0.59857 0.0
C791 C 0.03513 0.75719 0.63592 0.0
O792 O 0.03633 0.75384 0.62129 0.0
C793 C 0.97167 0.76796 0.64115 0.0
Zn794 Zn 0.47681 0.27145 0.11502 0.0
Zn795 Zn 0.50223 0.26541 0.13027 0.0
O796 O 0.50877 0.28385 0.11699 0.0
O797 O 0.48717 0.28883 0.10494 0.0
O798 O 0.52104 0.26093 0.14325 0.0
O799 O 0.46504 0.27543 0.13408 0.0
O800 O 0.48597 0.2699 0.14698 0.0
C801 C 0.50118 0.29184 0.1076 0.0
C802 C 0.48757 0.24135 0.10822 0.0
O803 O 0.49823 0.24532 0.1177 0.0
O804 O 0.47697 0.25054 0.1052 0.0
C805 C 0.53446 0.25932 0.13803 0.0
O806 O 0.53661 0.26066 0.12331 0.0
C807 C 0.47193 0.27378 0.14672 0.0
C808 C 0.23213 0.774 0.86984 0.0
C809 C 0.21998 0.77778 0.85997 0.0
C810 C 0.23535 0.78277 0.88308 0.0
C811 C 0.21845 0.81035 0.91044 0.0
H812 H 0.26095 0.81912 0.92113 0.0
C813 C 0.23781 0.84968 0.9624 0.0
C814 C 0.25064 0.84477 0.97075 0.0
C815 C 0.23328 0.84211 0.94869 0.0
C816 C 0.24901 0.81667 0.91842 0.0
H817 H 0.20179 0.79395 0.85637 0.0
H818 H 0.20733 0.80913 0.87955 0.0
H819 H 0.2547 0.80472 0.89774 0.0
H820 H 0.26834 0.82765 0.97147 0.0
H821 H 0.26038 0.81453 0.94802 0.0
H822 H 0.21282 0.82222 0.93129 0.0
C823 C 0.21427 0.79927 0.87709 0.0
C824 C 0.24543 0.80839 0.90498 0.0
C825 C 0.21108 0.79053 0.86379 0.0
C826 C 0.25852 0.83193 0.9653 0.0
C827 C 0.25401 0.82441 0.95173 0.0
C828 C 0.22204 0.81862 0.92396 0.0
C829 C 0.22649 0.79554 0.88687 0.0
C830 C 0.23013 0.80494 0.9009 0.0
C831 C 0.2415 0.82951 0.94309 0.0
C832 C 0.2374 0.82168 0.92823 0.0
H833 H 0.23906 0.76412 0.86745 0.0
H834 H 0.24469 0.77941 0.89049 0.0
H835 H 0.20653 0.80782 0.90769 0.0
H836 H 0.23148 0.85953 0.96627 0.0
H837 H 0.2236 0.84636 0.9423 0.0
C838 C 0.02366 0.5477 0.38994 0.0
C839 C 0.02725 0.54348 0.40493 0.0
C840 C 0.03371 0.54453 0.37802 0.0
C841 C 0.06526 0.51871 0.36785 0.0
H842 H 0.0699 0.54533 0.33354 0.0
C843 C 0.08869 0.49714 0.31081 0.0
C844 C 0.09855 0.50651 0.30249 0.0
C845 C 0.08149 0.5027 0.32384 0.0
C846 C 0.06889 0.53786 0.34313 0.0
H847 H 0.04452 0.53322 0.41925 0.0
H848 H 0.06211 0.52785 0.39855 0.0
H849 H 0.05469 0.55352 0.35538 0.0
H850 H 0.10859 0.52916 0.3015 0.0
H851 H 0.09595 0.53894 0.32452 0.0
H852 H 0.07949 0.5031 0.35572 0.0
C853 C 0.05136 0.53327 0.39589 0.0
C854 C 0.06001 0.54247 0.35557 0.0
C855 C 0.04128 0.53635 0.40778 0.0
C856 C 0.10109 0.52164 0.30765 0.0
C857 C 0.09379 0.52725 0.32077 0.0
C858 C 0.07413 0.51414 0.35548 0.0
C859 C 0.04764 0.53714 0.38081 0.0
C860 C 0.0579 0.53284 0.36799 0.0
C861 C 0.08391 0.51781 0.32902 0.0
C862 C 0.07582 0.52351 0.34282 0.0
H863 H 0.01288 0.55311 0.38736 0.0
H864 H 0.03034 0.54749 0.36653 0.0
H865 H 0.06381 0.5109 0.37711 0.0
H866 H 0.08638 0.48544 0.3072 0.0
H867 H 0.07375 0.49518 0.32971 0.0
C868 C 0.79205 0.75742 0.88785 0.0
C869 C 0.78326 0.75676 0.87427 0.0
C870 C 0.79045 0.74611 0.89873 0.0
C871 C 0.77652 0.70629 0.90207 0.0
H872 H 0.78075 0.71482 0.94558 0.0
C873 C 0.78187 0.65762 0.94382 0.0
C874 C 0.77399 0.65865 0.95765 0.0
C875 C 0.78331 0.67023 0.93457 0.0
C876 C 0.7794 0.71226 0.93348 0.0
H877 H 0.76539 0.74418 0.86178 0.0
H878 H 0.76234 0.72469 0.88079 0.0
H879 H 0.78178 0.73574 0.92777 0.0
H880 H 0.76182 0.67389 0.97288 0.0
H881 H 0.76399 0.69596 0.95647 0.0
H882 H 0.77367 0.68295 0.90767 0.0
C883 C 0.77083 0.73363 0.8829 0.0
C884 C 0.78018 0.72424 0.92324 0.0
C885 C 0.77254 0.74483 0.872 0.0
C886 C 0.76798 0.67275 0.96228 0.0
C887 C 0.76927 0.6854 0.95289 0.0
C888 C 0.77565 0.69438 0.91226 0.0
C889 C 0.77993 0.73397 0.89631 0.0
C890 C 0.7788 0.72139 0.90738 0.0
C891 C 0.77672 0.68419 0.93877 0.0
C892 C 0.77723 0.69715 0.9281 0.0
H893 H 0.80047 0.76644 0.88988 0.0
H894 H 0.79778 0.74667 0.90881 0.0
H895 H 0.77562 0.70357 0.88997 0.0
H896 H 0.78686 0.64699 0.94002 0.0
H897 H 0.78953 0.66895 0.92402 0.0
C898 C 0.99479 0.9835 0.37927 0.0
C899 C 0.9915 0.97052 0.3878 0.0
C900 C 0.98665 0.9863 0.36573 0.0
C901 C 0.96061 0.96731 0.33657 0.0
H902 H 0.9478 0.00848 0.32862 0.0
C903 C 0.90727 0.9813 0.30104 0.0
C904 C 0.90803 0.993 0.29042 0.0
C905 C 0.91972 0.97837 0.31062 0.0
C906 C 0.95152 0.99696 0.33053 0.0
H907 H 0.97725 0.95012 0.38841 0.0
H908 H 0.96275 0.95527 0.36534 0.0
H909 H 0.96508 1.00384 0.35015 0.0
H910 H 0.92255 0.01066 0.28132 0.0
H911 H 0.94441 0.00577 0.29856 0.0
H912 H 0.94638 0.96039 0.31741 0.0
C913 C 0.9718 0.9632 0.36889 0.0
C914 C 0.96144 0.99428 0.34288 0.0
C915 C 0.97997 0.96036 0.38233 0.0
C916 C 0.92171 1.00152 0.28934 0.0
C917 C 0.93414 0.99878 0.29924 0.0
C918 C 0.95058 0.96998 0.32436 0.0
C919 C 0.97499 0.97621 0.36038 0.0
C920 C 0.96582 0.97935 0.34629 0.0
C921 C 0.93319 0.98723 0.31005 0.0
C922 C 0.94566 0.98478 0.32142 0.0
H923 H 1.00349 0.99167 0.38317 0.0
H924 H 0.98955 0.99637 0.35945 0.0
H925 H 0.96404 0.95572 0.33854 0.0
H926 H 0.8969 0.97452 0.30211 0.0
H927 H 0.91858 0.9695 0.31891 0.0
C928 C 0.22733 0.20779 0.64839 0.0
C929 C 0.22782 0.22375 0.64747 0.0
C930 C 0.23073 0.19852 0.63573 0.0
C931 C 0.25004 0.1985 0.59835 0.0
H932 H 0.22505 0.16227 0.59031 0.0
C933 C 0.25489 0.16179 0.5427 0.0
C934 C 0.25389 0.14588 0.54398 0.0
C935 C 0.25188 0.17144 0.55524 0.0
C936 C 0.23227 0.17224 0.59248 0.0
H937 H 0.23235 0.24243 0.6324 0.0
H938 H 0.2383 0.22623 0.61027 0.0
H939 H 0.21958 0.1788 0.61222 0.0
H940 H 0.24906 0.12768 0.55955 0.0
H941 H 0.24399 0.14447 0.58139 0.0
H942 H 0.26274 0.1919 0.57858 0.0
C943 C 0.23543 0.2209 0.62088 0.0
C944 C 0.22913 0.18174 0.60506 0.0
C945 C 0.23203 0.23019 0.63358 0.0
C946 C 0.24989 0.13987 0.55812 0.0
C947 C 0.24688 0.14952 0.57064 0.0
C948 C 0.2532 0.18898 0.58575 0.0
C949 C 0.23473 0.20493 0.62177 0.0
C950 C 0.238 0.19496 0.6082 0.0
C951 C 0.24779 0.16543 0.56936 0.0
C952 C 0.24438 0.17569 0.58268 0.0
H953 H 0.22445 0.20242 0.65898 0.0
H954 H 0.23037 0.18628 0.63693 0.0
H955 H 0.25724 0.20848 0.60053 0.0
H956 H 0.2579 0.16683 0.53198 0.0
H957 H 0.25252 0.18364 0.55377 0.0
C958 C 0.48751 0.5315 0.62246 0.0
C959 C 0.48249 0.54 0.60997 0.0
C960 C 0.47771 0.52859 0.63463 0.0
C961 C 0.44225 0.54282 0.65285 0.0
H962 H 0.44173 0.50369 0.67231 0.0
C963 C 0.39534 0.52663 0.69558 0.0
C964 C 0.39971 0.51864 0.70862 0.0
C965 C 0.40568 0.52896 0.68377 0.0
C966 C 0.44185 0.51475 0.66713 0.0
H967 H 0.46293 0.55157 0.60036 0.0
H968 H 0.44596 0.54651 0.62144 0.0
H969 H 0.45929 0.50818 0.6514 0.0
H970 H 0.41846 0.50674 0.71934 0.0
H971 H 0.43651 0.51088 0.69876 0.0
H972 H 0.42482 0.54941 0.66851 0.0
C973 C 0.45757 0.54237 0.62204 0.0
C974 C 0.45194 0.51733 0.65512 0.0
C975 C 0.46734 0.54528 0.6099 0.0
C976 C 0.41467 0.51292 0.70946 0.0
C977 C 0.42502 0.51523 0.69761 0.0
C978 C 0.43218 0.54024 0.66483 0.0
C979 C 0.46263 0.53409 0.63465 0.0
C980 C 0.4522 0.53137 0.64773 0.0
C981 C 0.42069 0.52337 0.68463 0.0
C982 C 0.43174 0.52614 0.67208 0.0
H983 H 0.49913 0.52738 0.62299 0.0
H984 H 0.48208 0.5223 0.6442 0.0
H985 H 0.44233 0.55389 0.6477 0.0
H986 H 0.38392 0.53116 0.69448 0.0
H987 H 0.40183 0.53507 0.67387 0.0
C988 C 0.77824 0.27862 0.64648 0.0
C989 C 0.7651 0.27304 0.65368 0.0
C990 C 0.77707 0.2896 0.63524 0.0
C991 C 0.74969 0.30554 0.6074 0.0
H992 H 0.78119 0.33679 0.60427 0.0
C993 C 0.74982 0.34942 0.55854 0.0
C994 C 0.764 0.35073 0.55126 0.0
C995 C 0.74872 0.34183 0.57244 0.0
C996 C 0.7723 0.32812 0.60497 0.0
H997 H 0.7404 0.27506 0.65491 0.0
H998 H 0.73837 0.29418 0.63528 0.0
H999 H 0.7817 0.31974 0.62578 0.0
H1000 H 0.78821 0.34569 0.55319 0.0
H1001 H 0.78632 0.33271 0.57717 0.0
H1002 H 0.74048 0.3138 0.58639 0.0
C1003 C 0.74958 0.28988 0.63818 0.0
C1004 C 0.77262 0.3183 0.61728 0.0
C1005 C 0.75075 0.27889 0.64944 0.0
C1006 C 0.77708 0.34485 0.55844 0.0
C1007 C 0.77602 0.33747 0.57229 0.0
C1008 C 0.74935 0.3154 0.59507 0.0
C1009 C 0.76272 0.29533 0.63088 0.0
C1010 C 0.76153 0.30665 0.6185 0.0
C1011 C 0.76183 0.33565 0.57939 0.0
C1012 C 0.76087 0.32659 0.59352 0.0
H1013 H 0.78945 0.27422 0.64924 0.0
H1014 H 0.78742 0.29331 0.62968 0.0
H1015 H 0.74102 0.29664 0.60789 0.0
H1016 H 0.73953 0.35379 0.55328 0.0
H1017 H 0.73762 0.34068 0.57767 0.0
C1018 C 0.54662 0.98432 0.61062 0.0
C1019 C 0.53138 0.97925 0.61211 0.0
C1020 C 0.55528 0.9891 0.62349 0.0
C1021 C 0.55153 1.00037 0.66465 0.0
H1022 H 0.59365 0.98716 0.6678 0.0
C1023 C 0.58255 0.99052 0.72148 0.0
C1024 C 0.59772 0.99581 0.72356 0.0
C1025 C 0.57507 0.99165 0.7074 0.0
C1026 C 0.58199 0.99117 0.66697 0.0
H1027 H 0.51335 0.97508 0.62826 0.0
H1028 H 0.52843 0.98307 0.65065 0.0
H1029 H 0.57932 0.98294 0.64388 0.0
H1030 H 0.61691 0.00666 0.71256 0.0
H1031 H 0.60386 0.00826 0.68757 0.0
H1032 H 0.55402 0.00783 0.68804 0.0
C1033 C 0.53363 0.98382 0.63955 0.0
C1034 C 0.57376 0.98877 0.65326 0.0
C1035 C 0.52497 0.97917 0.6267 0.0
C1036 C 0.6052 1.00254 0.71128 0.0
C1037 C 0.59778 1.00339 0.69701 0.0
C1038 C 0.5597 1.0026 0.67837 0.0
C1039 C 0.54893 0.9888 0.63815 0.0
C1040 C 0.55829 0.99299 0.65205 0.0
C1041 C 0.58266 0.99788 0.69495 0.0
C1042 C 0.57489 0.9977 0.67978 0.0
H1043 H 0.55183 0.98466 0.59949 0.0
H1044 H 0.56695 0.99304 0.62194 0.0
H1045 H 0.53979 1.00414 0.66404 0.0
H1046 H 0.57645 0.98535 0.73075 0.0
H1047 H 0.56349 0.98717 0.7061 0.0
C1048 C 0.86764 0.24717 0.77817 0.0
C1049 C 0.86311 0.23331 0.77099 0.0
C1050 C 0.88011 0.24788 0.78835 0.0
C1051 C 0.90547 0.22531 0.81301 0.0
H1052 H 0.933 0.25979 0.80821 0.0
C1053 C 0.96436 0.23486 0.84594 0.0
C1054 C 0.96778 0.25006 0.85031 0.0
C1055 C 0.95114 0.23131 0.83707 0.0
C1056 C 0.92537 0.25016 0.80984 0.0
H1057 H 0.86795 0.20918 0.76933 0.0
H1058 H 0.88981 0.21045 0.78722 0.0
H1059 H 0.91094 0.25647 0.79121 0.0
H1060 H 0.95944 0.27318 0.84994 0.0
H1061 H 0.93652 0.267 0.83498 0.0
H1062 H 0.92007 0.21912 0.83179 0.0
C1063 C 0.88361 0.22076 0.78495 0.0
C1064 C 0.91269 0.24826 0.80007 0.0
C1065 C 0.87108 0.22004 0.7747 0.0
C1066 C 0.95729 0.2614 0.84653 0.0
C1067 C 0.94417 0.25786 0.83785 0.0
C1068 C 0.91824 0.22724 0.82287 0.0
C1069 C 0.88844 0.23476 0.79167 0.0
C1070 C 0.9024 0.23599 0.80168 0.0
C1071 C 0.94117 0.24289 0.83252 0.0
C1072 C 0.92816 0.23988 0.82158 0.0
H1073 H 0.86155 0.25755 0.7759 0.0
H1074 H 0.88327 0.2588 0.7936 0.0
H1075 H 0.89776 0.21573 0.81455 0.0
H1076 H 0.97225 0.22589 0.84868 0.0
H1077 H 0.94912 0.21964 0.83318 0.0
C1078 C 0.48933 0.89134 0.4827 0.0
C1079 C 0.47718 0.8898 0.49292 0.0
C1080 C 0.49365 0.87907 0.47333 0.0
C1081 C 0.49175 0.83728 0.46837 0.0
H1082 H 0.49726 0.84605 0.42567 0.0
C1083 C 0.499 0.79035 0.42066 0.0
C1084 C 0.50798 0.79414 0.4081 0.0
C1085 C 0.49617 0.80127 0.43222 0.0
C1086 C 0.49607 0.84338 0.43759 0.0
H1087 H 0.46036 0.87399 0.50164 0.0
H1088 H 0.46795 0.8525 0.48523 0.0
H1089 H 0.49064 0.86643 0.44346 0.0
H1090 H 0.52205 0.81183 0.39841 0.0
H1091 H 0.51777 0.83051 0.41874 0.0
H1092 H 0.49733 0.81419 0.46247 0.0
C1093 C 0.47411 0.86323 0.4845 0.0
C1094 C 0.49219 0.8551 0.44779 0.0
C1095 C 0.46968 0.87557 0.49379 0.0
C1096 C 0.5149 0.80865 0.40785 0.0
C1097 C 0.51231 0.81942 0.41945 0.0
C1098 C 0.49579 0.82551 0.45815 0.0
C1099 C 0.486 0.86492 0.47401 0.0
C1100 C 0.49005 0.85224 0.46331 0.0
C1101 C 0.50244 0.81611 0.4315 0.0
C1102 C 0.4981 0.82843 0.44262 0.0
H1103 H 0.49526 0.90216 0.48165 0.0
H1104 H 0.50295 0.8807 0.46547 0.0
H1105 H 0.49023 0.83474 0.48029 0.0
H1106 H 0.49345 0.77926 0.42109 0.0
H1107 H 0.48849 0.79829 0.44129 0.0
C1108 C 0.14289 0.27199 0.77028 0.0
C1109 C 0.15778 0.27283 0.7766 0.0
C1110 C 0.13045 0.26761 0.77912 0.0
C1111 C 0.11818 0.26474 0.81937 0.0
H1112 H 0.08406 0.24214 0.80063 0.0
C1113 C 0.06282 0.24983 0.85252 0.0
C1114 C 0.04942 0.25442 0.84494 0.0
C1115 C 0.0768 0.24932 0.84477 0.0
C1116 C 0.09352 0.24842 0.80605 0.0
H1117 H 0.17128 0.26931 0.79715 0.0
H1118 H 0.14961 0.2615 0.81255 0.0
H1119 H 0.10714 0.2467 0.786 0.0
H1120 H 0.03997 0.26126 0.82318 0.0
H1121 H 0.06407 0.26006 0.80971 0.0
H1122 H 0.10438 0.26656 0.83938 0.0
C1123 C 0.14749 0.26452 0.80081 0.0
C1124 C 0.10673 0.25113 0.79763 0.0
C1125 C 0.15993 0.26899 0.79197 0.0
C1126 C 0.05011 0.2577 0.82934 0.0
C1127 C 0.06392 0.25694 0.82159 0.0
C1128 C 0.10498 0.26192 0.82783 0.0
C1129 C 0.13254 0.26383 0.79454 0.0
C1130 C 0.11911 0.25966 0.80404 0.0
C1131 C 0.07751 0.25308 0.82926 0.0
C1132 C 0.09235 0.25405 0.82114 0.0
H1133 H 0.14076 0.27511 0.75856 0.0
H1134 H 0.11911 0.26755 0.77394 0.0
H1135 H 0.12738 0.27146 0.82468 0.0
H1136 H 0.06264 0.24734 0.86456 0.0
H1137 H 0.08708 0.24624 0.85096 0.0
C1138 C 0.53237 0.60607 0.46559 0.0
C1139 C 0.53684 0.60868 0.48095 0.0
C1140 C 0.5291 0.61823 0.45609 0.0
C1141 C 0.53623 0.65966 0.4521 0.0
H1142 H 0.50299 0.65618 0.42231 0.0
C1143 C 0.51812 0.71026 0.4147 0.0
C1144 C 0.51414 0.70696 0.39934 0.0
C1145 C 0.52056 0.69851 0.42497 0.0
C1146 C 0.51243 0.65731 0.43044 0.0
H1147 H 0.54129 0.62629 0.49829 0.0
H1148 H 0.53537 0.64748 0.48179 0.0
H1149 H 0.50763 0.63543 0.43964 0.0
H1150 H 0.50965 0.68861 0.38279 0.0
H1151 H 0.51402 0.6682 0.40059 0.0
H1152 H 0.54108 0.68152 0.44283 0.0
C1153 C 0.53454 0.636 0.47705 0.0
C1154 C 0.5151 0.64537 0.44041 0.0
C1155 C 0.53777 0.62382 0.48658 0.0
C1156 C 0.51265 0.69161 0.39453 0.0
C1157 C 0.51507 0.67987 0.40479 0.0
C1158 C 0.53358 0.6716 0.44212 0.0
C1159 C 0.53022 0.63338 0.46165 0.0
C1160 C 0.52709 0.64633 0.45133 0.0
C1161 C 0.51905 0.68314 0.42017 0.0
C1162 C 0.52169 0.67056 0.43108 0.0
H1163 H 0.53135 0.59458 0.46088 0.0
H1164 H 0.52596 0.61573 0.44428 0.0
H1165 H 0.54571 0.66075 0.46019 0.0
H1166 H 0.51934 0.72194 0.41884 0.0
H1167 H 0.52343 0.7015 0.43675 0.0
C1168 C 0.87237 0.77836 0.73729 0.0
C1169 C 0.87657 0.78362 0.75207 0.0
C1170 C 0.88333 0.77701 0.72591 0.0
C1171 C 0.92458 0.77276 0.71944 0.0
H1172 H 0.91436 0.7874 0.67924 0.0
C1173 C 0.96781 0.77295 0.66932 0.0
C1174 C 0.96174 0.7693 0.6547 0.0
C1175 C 0.95806 0.77494 0.68178 0.0
C1176 C 0.91736 0.78308 0.69034 0.0
H1177 H 0.89562 0.79135 0.76655 0.0
H1178 H 0.91484 0.78897 0.74658 0.0
H1179 H 0.89614 0.79033 0.69979 0.0
H1180 H 0.94072 0.76431 0.64187 0.0
H1181 H 0.92393 0.76741 0.66346 0.0
H1182 H 0.94572 0.76524 0.70988 0.0
C1183 C 0.90304 0.7859 0.74385 0.0
C1184 C 0.90691 0.7848 0.70213 0.0
C1185 C 0.89202 0.78739 0.75523 0.0
C1186 C 0.9458 0.76731 0.65291 0.0
C1187 C 0.93613 0.76919 0.66531 0.0
C1188 C 0.93503 0.77093 0.70758 0.0
C1189 C 0.89878 0.78079 0.72904 0.0
C1190 C 0.9103 0.77952 0.71677 0.0
C1191 C 0.94207 0.77327 0.67987 0.0
C1192 C 0.93146 0.77589 0.69282 0.0
H1193 H 0.86054 0.77548 0.73446 0.0
H1194 H 0.87972 0.7729 0.71464 0.0
H1195 H 0.92748 0.7685 0.7306 0.0
H1196 H 0.98003 0.77457 0.67107 0.0
H1197 H 0.96303 0.77815 0.69282 0.0
C1198 C 0.05463 0.89588 0.52957 0.0
C1199 C 0.04294 0.90351 0.52172 0.0
C1200 C 0.05115 0.88356 0.5388 0.0
C1201 C 0.02092 0.85461 0.5452 0.0
H1202 H 0.0403 0.85093 0.58505 0.0
C1203 C 0.99664 0.81401 0.58881 0.0
C1204 C 0.0068 0.80486 0.59701 0.0
C1205 C 1.00208 0.82596 0.58015 0.0
C1206 C 0.03494 0.8517 0.57388 0.0
H1207 H 0.01839 0.90424 0.51772 0.0
H1208 H 0.01235 0.88278 0.5337 0.0
H1209 H 0.04782 0.87183 0.56864 0.0
H1210 H 0.03069 0.80155 0.60299 0.0
H1211 H 0.04028 0.82259 0.58767 0.0
H1212 H 0.00798 0.83463 0.55037 0.0
C1213 C 0.02424 0.88617 0.53254 0.0
C1214 C 0.03923 0.86367 0.56447 0.0
C1215 C 0.02771 0.89848 0.52334 0.0
C1216 C 0.02257 0.80838 0.5968 0.0
C1217 C 0.02805 0.82042 0.58804 0.0
C1218 C 0.01665 0.84271 0.55456 0.0
C1219 C 0.03591 0.87854 0.54038 0.0
C1220 C 0.03209 0.86539 0.55011 0.0
C1221 C 0.01785 0.82913 0.57936 0.0
C1222 C 0.02339 0.84124 0.56912 0.0
H1223 H 0.06651 0.8993 0.52843 0.0
H1224 H 0.06043 0.87783 0.54453 0.0
H1225 H 0.01545 0.85537 0.53407 0.0
H1226 H 0.9844 0.81181 0.58885 0.0
H1227 H 0.99387 0.83267 0.57394 0.0
C1228 C 0.13763 0.71561 0.72253 0.0
C1229 C 0.14824 0.72693 0.72753 0.0
C1230 C 0.12515 0.71922 0.71317 0.0
C1231 C 0.1016 0.75138 0.70007 0.0
H1232 H 0.09108 0.72346 0.66643 0.0
C1233 C 0.04688 0.7577 0.66234 0.0
C1234 C 0.04816 0.75456 0.64659 0.0
C1235 C 0.05903 0.75472 0.67242 0.0
C1236 C 0.09392 0.73145 0.67569 0.0
H1237 H 0.15388 0.75101 0.72667 0.0
H1238 H 0.13209 0.75731 0.71034 0.0
H1239 H 0.11225 0.71765 0.68363 0.0
H1240 H 0.06337 0.74604 0.6291 0.0
H1241 H 0.08454 0.741 0.64659 0.0
H1242 H 0.08342 0.76532 0.69191 0.0
C1243 C 0.13334 0.74565 0.7138 0.0
C1244 C 0.10595 0.72802 0.68569 0.0
C1245 C 0.14585 0.74203 0.72318 0.0
C1246 C 0.06195 0.74854 0.64115 0.0
C1247 C 0.07407 0.74556 0.65121 0.0
C1248 C 0.08952 0.7548 0.69007 0.0
C1249 C 0.12292 0.73426 0.70854 0.0
C1250 C 0.10997 0.73793 0.69801 0.0
C1251 C 0.07275 0.74851 0.66699 0.0
C1252 C 0.08555 0.7449 0.67773 0.0
H1253 H 0.13895 0.70392 0.72589 0.0
H1254 H 0.11719 0.71021 0.7096 0.0
H1255 H 0.10428 0.75921 0.7095 0.0
H1256 H 0.03643 0.76231 0.66694 0.0
H1257 H 0.05755 0.757 0.6845 0.0
C1258 C 0.98348 0.61116 0.54604 0.0
C1259 C 0.97862 0.61238 0.53075 0.0
C1260 C 0.98839 0.62408 0.55453 0.0
C1261 C 1.00068 0.66462 0.55028 0.0
H1262 H 0.98703 0.66931 0.59202 0.0
C1263 C 0.99185 0.72243 0.58018 0.0
C1264 C 0.99679 0.72465 0.59542 0.0
C1265 C 0.99286 0.70818 0.57294 0.0
C1266 C 0.99117 0.66805 0.58047 0.0
H1267 H 0.97496 0.62812 0.51246 0.0
H1268 H 0.98319 0.65062 0.52725 0.0
H1269 H 0.98235 0.64526 0.57806 0.0
H1270 H 0.00696 0.71375 0.61496 0.0
H1271 H 0.00834 0.6885 0.60229 0.0
H1272 H 0.00876 0.68772 0.55249 0.0
C1273 C 0.98366 0.63967 0.53263 0.0
C1274 C 0.9885 0.65426 0.57245 0.0
C1275 C 0.97887 0.62676 0.52413 0.0
C1276 C 1.00311 0.71235 0.60319 0.0
C1277 C 1.00384 0.69794 0.59598 0.0
C1278 C 1.00319 0.67843 0.55824 0.0
C1279 C 0.98846 0.63854 0.54796 0.0
C1280 C 0.99288 0.6525 0.55711 0.0
C1281 C 0.99861 0.69572 0.58081 0.0
C1282 C 0.99814 0.6804 0.57329 0.0
H1283 H 0.98358 0.60019 0.55141 0.0
H1284 H 0.99219 0.62273 0.56624 0.0
H1285 H 1.00458 0.66357 0.53863 0.0
H1286 H 0.987 0.7317 0.57388 0.0
H1287 H 0.9886 0.70679 0.5613 0.0
C1288 C 0.78744 0.86316 0.2039 0.0
C1289 C 0.77594 0.85876 0.21407 0.0
C1290 C 0.79563 0.87687 0.20624 0.0
C1291 C 0.79349 0.91442 0.22608 0.0
H1292 H 0.83769 0.9155 0.22221 0.0
C1293 C 0.83036 0.96255 0.25316 0.0
C1294 C 0.84337 0.96801 0.24562 0.0
C1295 C 0.82206 0.94995 0.24741 0.0
C1296 C 0.82533 0.91547 0.22308 0.0
H1297 H 0.76428 0.8654 0.23484 0.0
H1298 H 0.7784 0.88931 0.2388 0.0
H1299 H 0.82338 0.89196 0.21601 0.0
H1300 H 0.85769 0.96452 0.22588 0.0
H1301 H 0.84302 0.94234 0.2157 0.0
H1302 H 0.79536 0.93782 0.23327 0.0
C1303 C 0.78096 0.88222 0.22889 0.0
C1304 C 0.81712 0.90196 0.21957 0.0
C1305 C 0.77283 0.86849 0.22661 0.0
C1306 C 0.84772 0.96063 0.23195 0.0
C1307 C 0.83938 0.94787 0.22619 0.0
C1308 C 0.80165 0.9279 0.22952 0.0
C1309 C 0.79246 0.88659 0.21874 0.0
C1310 C 0.80113 0.9012 0.22133 0.0
C1311 C 0.82645 0.94237 0.2339 0.0
C1312 C 0.81771 0.92853 0.2284 0.0
H1313 H 0.79 0.85611 0.19398 0.0
H1314 H 0.80429 0.87996 0.19811 0.0
H1315 H 0.78115 0.91434 0.22723 0.0
H1316 H 0.82662 0.96789 0.2637 0.0
H1317 H 0.81237 0.94592 0.25382 0.0
C1318 C 0.78287 0.15034 0.26769 0.0
C1319 C 0.77736 0.15317 0.2825 0.0
C1320 C 0.79175 0.13749 0.26447 0.0
C1321 C 0.80021 0.09931 0.27913 0.0
H1322 H 0.83726 0.10186 0.25538 0.0
C1323 C 0.84416 0.05207 0.28094 0.0
C1324 C 0.85043 0.04664 0.26718 0.0
C1325 C 0.83572 0.06541 0.28144 0.0
C1326 C 0.82684 0.10093 0.26187 0.0
H1327 H 0.77671 0.14449 0.30544 0.0
H1328 H 0.79224 0.12234 0.29991 0.0
H1329 H 0.82123 0.12438 0.25871 0.0
H1330 H 0.85329 0.05148 0.24325 0.0
H1331 H 0.83835 0.07501 0.24414 0.0
H1332 H 0.80577 0.07602 0.28246 0.0
C1333 C 0.78966 0.12997 0.29073 0.0
C1334 C 0.81766 0.11382 0.26377 0.0
C1335 C 0.78089 0.14279 0.29395 0.0
C1336 C 0.84861 0.05534 0.25402 0.0
C1337 C 0.84006 0.0688 0.25454 0.0
C1338 C 0.80934 0.0865 0.27724 0.0
C1339 C 0.79519 0.1271 0.27595 0.0
C1340 C 0.80439 0.11323 0.27271 0.0
C1341 C 0.83319 0.07376 0.26821 0.0
C1342 C 0.82295 0.08721 0.26888 0.0
H1343 H 0.78046 0.15816 0.25863 0.0
H1344 H 0.79575 0.13559 0.25295 0.0
H1345 H 0.78989 0.09831 0.28575 0.0
H1346 H 0.84551 0.04584 0.29137 0.0
H1347 H 0.83097 0.06909 0.29225 0.0
C1348 C 0.37587 0.99375 0.9689 0.0
C1349 C 0.3906 0.99168 0.97519 0.0
C1350 C 0.36368 0.98405 0.97263 0.0
C1351 C 0.35634 0.94523 0.98502 0.0
H1352 H 0.31627 0.95941 0.99693 0.0
C1353 C 0.3125 0.90358 0.00853 0.0
C1354 C 0.29704 0.90474 1.00408 0.0
C1355 C 0.32303 0.91511 0.00543 0.0
C1356 C 0.32732 0.95525 0.99343 0.0
H1357 H 0.40405 0.97782 0.99035 0.0
H1358 H 0.38287 0.96088 0.99677 0.0
H1359 H 0.33632 0.97787 0.99046 0.0
H1360 H 0.28037 0.91923 0.99339 0.0
H1361 H 0.29896 0.9394 0.98754 0.0
H1362 H 0.3475 0.92271 0.98758 0.0
C1363 C 0.38072 0.97003 0.98899 0.0
C1364 C 0.33881 0.96583 0.98977 0.0
C1365 C 0.39283 0.97981 0.98541 0.0
C1366 C 0.29221 0.91804 0.99696 0.0
C1367 C 0.30287 0.92959 0.99364 0.0
C1368 C 0.34488 0.9347 0.9885 0.0
C1369 C 0.36605 0.97194 0.98254 0.0
C1370 C 0.35351 0.96091 0.98577 0.0
C1371 C 0.3185 0.92808 0.99754 0.0
C1372 C 0.33029 0.93954 0.99304 0.0
H1373 H 0.37378 1.00287 0.96108 0.0
H1374 H 0.35252 0.98576 0.96745 0.0
H1375 H 0.36744 0.94107 0.98164 0.0
H1376 H 0.31655 0.89359 0.01427 0.0
H1377 H 0.33482 0.91374 0.0091 0.0
C1378 C 0.23621 0.37029 0.27552 0.0
C1379 C 0.25094 0.37458 0.28089 0.0
C1380 C 0.22483 0.38117 0.27384 0.0
C1381 C 0.21861 0.42208 0.26885 0.0
H1382 H 0.17787 0.41265 0.28321 0.0
C1383 C 0.16914 0.46588 0.26888 0.0
C1384 C 0.15436 0.46016 0.26532 0.0
C1385 C 0.18141 0.45593 0.2708 0.0
C1386 C 0.18912 0.41542 0.27895 0.0
H1387 H 0.26532 0.3937 0.28848 0.0
H1388 H 0.24537 0.41274 0.28553 0.0
H1389 H 0.19826 0.39437 0.28647 0.0
H1390 H 0.14102 0.43953 0.2604 0.0
H1391 H 0.16231 0.42236 0.26336 0.0
H1392 H 0.20939 0.44305 0.2611 0.0
C1393 C 0.24268 0.40095 0.28262 0.0
C1394 C 0.20082 0.40493 0.28086 0.0
C1395 C 0.25405 0.39003 0.28444 0.0
C1396 C 0.15221 0.44434 0.26333 0.0
C1397 C 0.16443 0.43446 0.26513 0.0
C1398 C 0.20685 0.43256 0.26683 0.0
C1399 C 0.22791 0.39661 0.27738 0.0
C1400 C 0.21567 0.40807 0.27573 0.0
C1401 C 0.17915 0.44007 0.26913 0.0
C1402 C 0.19191 0.42929 0.27173 0.0
H1403 H 0.23343 0.35847 0.2728 0.0
H1404 H 0.21361 0.37749 0.26963 0.0
H1405 H 0.22992 0.42477 0.26468 0.0
H1406 H 0.17118 0.478 0.27051 0.0
H1407 H 0.19257 0.46065 0.27397 0.0
C1408 C 0.11167 0.04863 0.46383 0.0
C1409 C 0.10944 0.0352 0.47197 0.0
C1410 C 0.1245 0.05799 0.46675 0.0
C1411 C 0.15694 0.06585 0.49415 0.0
H1412 H 0.17682 0.0806 0.45802 0.0
C1413 C 0.21299 0.10315 0.49598 0.0
C1414 C 0.22389 0.09921 0.48496 0.0
C1415 C 0.19829 0.09644 0.49541 0.0
C1416 C 0.17145 0.07654 0.46824 0.0
H1417 H 0.11872 0.02155 0.49012 0.0
H1418 H 0.14138 0.0376 0.49482 0.0
H1419 H 0.15255 0.06693 0.45544 0.0
H1420 H 0.22795 0.08483 0.46493 0.0
H1421 H 0.20267 0.07317 0.46407 0.0
H1422 H 0.17632 0.07503 0.50684 0.0
C1423 C 0.13308 0.04099 0.4863 0.0
C1424 C 0.15739 0.06886 0.46679 0.0
C1425 C 0.12018 0.03165 0.48344 0.0
C1426 C 0.21985 0.08829 0.47354 0.0
C1427 C 0.20527 0.08164 0.47298 0.0
C1428 C 0.17108 0.07356 0.49561 0.0
C1429 C 0.13554 0.05414 0.47779 0.0
C1430 C 0.15002 0.06324 0.47968 0.0
C1431 C 0.19424 0.08572 0.48377 0.0
C1432 C 0.17861 0.07875 0.48262 0.0
H1433 H 0.10377 0.0517 0.45481 0.0
H1434 H 0.12588 0.06816 0.46014 0.0
H1435 H 0.15149 0.06184 0.50435 0.0
H1436 H 0.21575 0.1115 0.50495 0.0
H1437 H 0.19002 0.09985 0.50388 0.0
C1438 C 0.72121 0.14755 0.73734 0.0
C1439 C 0.73697 0.14443 0.73798 0.0
C1440 C 0.7103 0.13585 0.73877 0.0
C1441 C 0.70544 0.09376 0.73616 0.0
H1442 H 0.6699 0.10114 0.76117 0.0
C1443 C 0.66572 0.04496 0.75549 0.0
C1444 C 0.64984 0.04746 0.75526 0.0
C1445 C 0.67608 0.0569 0.75297 0.0
C1446 C 0.67966 0.09893 0.754 0.0
H1447 H 0.75354 0.12642 0.74018 0.0
H1448 H 0.73459 0.10614 0.74297 0.0
H1449 H 0.68834 0.12171 0.75722 0.0
H1450 H 0.63243 0.06455 0.75223 0.0
H1451 H 0.6505 0.08534 0.74778 0.0
H1452 H 0.69682 0.07094 0.73305 0.0
C1453 C 0.73063 0.1176 0.74125 0.0
C1454 C 0.69024 0.11074 0.75171 0.0
C1455 C 0.74152 0.12928 0.73983 0.0
C1456 C 0.64458 0.06221 0.75252 0.0
C1457 C 0.65495 0.07417 0.75004 0.0
C1458 C 0.69488 0.08194 0.73847 0.0
C1459 C 0.71487 0.12073 0.74083 0.0
C1460 C 0.70331 0.1083 0.74283 0.0
C1461 C 0.67083 0.07165 0.75019 0.0
C1462 C 0.6819 0.08435 0.74748 0.0
H1463 H 0.71729 0.15909 0.73604 0.0
H1464 H 0.69827 0.13866 0.73822 0.0
H1465 H 0.71522 0.09152 0.72904 0.0
H1466 H 0.67019 0.03376 0.7576 0.0
H1467 H 0.68823 0.05459 0.75338 0.0
C1468 C 0.39207 0.02775 0.55672 0.0
C1469 C 0.39979 0.01946 0.5453 0.0
C1470 C 0.37962 0.0369 0.55298 0.0
C1471 C 0.35051 0.04253 0.52263 0.0
H1472 H 0.34763 0.08342 0.54004 0.0
C1473 C 0.31223 0.08653 0.49525 0.0
C1474 C 0.30312 0.09588 0.50459 0.0
C1475 C 0.32351 0.07746 0.50155 0.0
C1476 C 0.34816 0.07195 0.53525 0.0
H1477 H 0.4005 0.0145 0.52095 0.0
H1478 H 0.37878 0.03029 0.51447 0.0
H1479 H 0.36818 0.06677 0.54853 0.0
H1480 H 0.29916 0.10333 0.52795 0.0
H1481 H 0.31907 0.08728 0.53907 0.0
H1482 H 0.33068 0.04768 0.50925 0.0
C1483 C 0.38221 0.02956 0.52636 0.0
C1484 C 0.35993 0.06242 0.5401 0.0
C1485 C 0.39467 0.02046 0.53008 0.0
C1486 C 0.30595 0.09625 0.52045 0.0
C1487 C 0.31735 0.08709 0.5268 0.0
C1488 C 0.3388 0.05202 0.51782 0.0
C1489 C 0.37455 0.03791 0.53775 0.0
C1490 C 0.36141 0.0477 0.5336 0.0
C1491 C 0.32605 0.07738 0.5174 0.0
C1492 C 0.33766 0.06695 0.52381 0.0
H1493 H 0.39557 0.02709 0.56859 0.0
H1494 H 0.37386 0.04304 0.56205 0.0
H1495 H 0.3511 0.03115 0.51766 0.0
H1496 H 0.31056 0.08607 0.48297 0.0
H1497 H 0.33025 0.07044 0.49393 0.0
C1498 C 0.61092 0.46673 0.54395 0.0
C1499 C 0.61161 0.48202 0.53957 0.0
C1500 C 0.62313 0.45694 0.54118 0.0
C1501 C 0.65806 0.45186 0.51793 0.0
H1502 H 0.66874 0.42341 0.54934 0.0
C1503 C 0.7123 0.41403 0.51492 0.0
C1504 C 0.71078 0.39896 0.5198 0.0
C1505 C 0.70042 0.42444 0.51704 0.0
C1506 C 0.66583 0.43115 0.54036 0.0
H1507 H 0.62578 0.49888 0.52864 0.0
H1508 H 0.64712 0.48178 0.5238 0.0
H1509 H 0.64779 0.44095 0.55343 0.0
H1510 H 0.69543 0.38304 0.53063 0.0
H1511 H 0.67479 0.40106 0.53419 0.0
H1512 H 0.67617 0.442 0.50486 0.0
C1513 C 0.63703 0.47733 0.52928 0.0
C1514 C 0.65378 0.44124 0.54271 0.0
C1515 C 0.62477 0.48715 0.53205 0.0
C1516 C 0.69706 0.39455 0.52677 0.0
C1517 C 0.68523 0.40495 0.52891 0.0
C1518 C 0.67016 0.44175 0.51557 0.0
C1519 C 0.63644 0.46211 0.53394 0.0
C1520 C 0.64962 0.45166 0.53149 0.0
C1521 C 0.68674 0.42007 0.52414 0.0
C1522 C 0.67413 0.43116 0.52672 0.0
H1523 H 0.60086 0.46224 0.54945 0.0
H1524 H 0.62207 0.44522 0.54463 0.0
H1525 H 0.65511 0.4596 0.50896 0.0
H1526 H 0.7227 0.41784 0.50953 0.0
H1527 H 0.70208 0.43601 0.51335 0.0
C1528 C 0.70566 0.28658 0.3663 0.0
C1529 C 0.71687 0.27696 0.36009 0.0
C1530 C 0.70877 0.29545 0.37954 0.0
C1531 C 0.74135 0.31127 0.40296 0.0
H1532 H 0.71093 0.31669 0.43439 0.0
C1533 C 0.75792 0.33285 0.46307 0.0
C1534 C 0.7491 0.34427 0.47008 0.0
C1535 C 0.75295 0.32551 0.44957 0.0
C1536 C 0.71946 0.31544 0.42562 0.0
H1537 H 0.74016 0.26918 0.36309 0.0
H1538 H 0.74542 0.28422 0.3863 0.0
H1539 H 0.70437 0.30194 0.41106 0.0
H1540 H 0.72781 0.35658 0.46846 0.0
H1541 H 0.71898 0.34348 0.4447 0.0
H1542 H 0.75653 0.32446 0.41761 0.0
C1543 C 0.73428 0.28514 0.38081 0.0
C1544 C 0.71572 0.30699 0.41224 0.0
C1545 C 0.73119 0.27632 0.36758 0.0
C1546 C 0.7349 0.34787 0.46336 0.0
C1547 C 0.72983 0.34036 0.44979 0.0
C1548 C 0.74508 0.31962 0.41631 0.0
C1549 C 0.72317 0.29492 0.38692 0.0
C1550 C 0.72672 0.30458 0.40084 0.0
C1551 C 0.73896 0.32926 0.44264 0.0
C1552 C 0.73429 0.32159 0.42792 0.0
H1553 H 0.69442 0.28723 0.36099 0.0
H1554 H 0.69996 0.3029 0.38383 0.0
H1555 H 0.74999 0.31004 0.39429 0.0
H1556 H 0.76888 0.32964 0.46788 0.0
H1557 H 0.76012 0.31682 0.44454 0.0
C1558 C 0.52362 0.02985 0.89528 0.0
C1559 C 0.52346 0.04446 0.90222 0.0
C1560 C 0.53398 0.0264 0.88374 0.0
C1561 C 0.55813 0.04297 0.85433 0.0
H1562 H 0.57935 1.00462 0.85676 0.0
C1563 C 0.60173 0.02238 0.80859 0.0
C1564 C 0.59999 0.00699 0.80396 0.0
C1565 C 0.59387 0.02813 0.82132 0.0
C1566 C 0.57346 0.01534 0.85584 0.0
H1567 H 0.53408 0.06696 0.90217 0.0
H1568 H 0.55193 0.06096 0.88174 0.0
H1569 H 0.5623 0.01241 0.87715 0.0
H1570 H 0.58872 0.9856 0.80925 0.0
H1571 H 0.5751 0.99555 0.83103 0.0
H1572 H 0.56899 0.04566 0.83274 0.0
C1573 C 0.54399 0.05221 0.88532 0.0
C1574 C 0.56369 0.01979 0.86754 0.0
C1575 C 0.53371 0.05564 0.89699 0.0
C1576 C 0.59041 0.9975 0.81244 0.0
C1577 C 0.58265 1.0032 0.82507 0.0
C1578 C 0.56786 0.03845 0.84252 0.0
C1579 C 0.54438 0.03748 0.87872 0.0
C1580 C 0.55566 0.03349 0.86678 0.0
C1581 C 0.58422 0.01857 0.8297 0.0
C1582 C 0.57538 0.0244 0.84298 0.0
H1583 H 0.5157 0.02103 0.89872 0.0
H1584 H 0.5338 0.01502 0.87866 0.0
H1585 H 0.55207 0.05359 0.85343 0.0
H1586 H 0.609 0.03 0.80229 0.0
H1587 H 0.59539 0.04002 0.82463 0.0
C1588 C 0.27387 0.25735 0.38879 0.0
C1589 C 0.28342 0.25534 0.3761 0.0
C1590 C 0.27273 0.24612 0.3998 0.0
C1591 C 0.27701 0.2051 0.40398 0.0
H1592 H 0.27988 0.21384 0.44755 0.0
C1593 C 0.28246 0.15673 0.4459 0.0
C1594 C 0.27441 0.15757 0.45965 0.0
C1595 C 0.28365 0.16933 0.43664 0.0
C1596 C 0.27884 0.21123 0.43543 0.0
H1597 H 0.29977 0.24014 0.36551 0.0
H1598 H 0.29746 0.22048 0.38444 0.0
H1599 H 0.28157 0.2347 0.42959 0.0
H1600 H 0.26167 0.1725 0.4747 0.0
H1601 H 0.26343 0.19459 0.45825 0.0
H1602 H 0.27399 0.18178 0.40959 0.0
C1603 C 0.29075 0.23069 0.38578 0.0
C1604 C 0.27985 0.22318 0.42516 0.0
C1605 C 0.29201 0.24195 0.37489 0.0
C1606 C 0.26797 0.17152 0.46418 0.0
C1607 C 0.26902 0.18417 0.45476 0.0
C1608 C 0.27584 0.19323 0.41418 0.0
C1609 C 0.281 0.23258 0.39827 0.0
C1610 C 0.27919 0.22018 0.40932 0.0
C1611 C 0.27664 0.18312 0.44072 0.0
C1612 C 0.27702 0.19607 0.43004 0.0
H1613 H 0.26694 0.26742 0.39003 0.0
H1614 H 0.26505 0.24782 0.40926 0.0
H1615 H 0.27612 0.20248 0.39184 0.0
H1616 H 0.28777 0.14623 0.44218 0.0
H1617 H 0.29002 0.1682 0.42617 0.0
C1618 C 0.48253 0.48565 0.88965 0.0
C1619 C 0.49373 0.4744 0.8882 0.0
C1620 C 0.47376 0.48989 0.87701 0.0
C1621 C 0.46128 0.47632 0.83819 0.0
H1622 H 0.44714 0.5178 0.83534 0.0
C1623 C 0.42169 0.49623 0.78869 0.0
C1624 C 0.40839 0.50342 0.79392 0.0
C1625 C 0.43397 0.49369 0.7988 0.0
C1626 C 0.45104 0.50618 0.83596 0.0
H1627 H 0.50475 0.45902 0.87221 0.0
H1628 H 0.48966 0.46661 0.85004 0.0
H1629 H 0.46518 0.51135 0.8556 0.0
H1630 H 0.39785 0.5142 0.81359 0.0
H1631 H 0.4193 0.51009 0.83099 0.0
H1632 H 0.44703 0.47123 0.8185 0.0
C1633 C 0.48739 0.47195 0.86103 0.0
C1634 C 0.4613 0.50243 0.84764 0.0
C1635 C 0.49608 0.46761 0.87373 0.0
C1636 C 0.40791 0.50859 0.80922 0.0
C1637 C 0.42024 0.50631 0.81918 0.0
C1638 C 0.45113 0.48012 0.8264 0.0
C1639 C 0.47604 0.4831 0.8625 0.0
C1640 C 0.46628 0.48737 0.84916 0.0
C1641 C 0.43329 0.49859 0.81419 0.0
C1642 C 0.44563 0.49501 0.82537 0.0
H1643 H 0.48026 0.49093 0.90068 0.0
H1644 H 0.46493 0.49826 0.87873 0.0
H1645 H 0.4647 0.46457 0.83904 0.0
H1646 H 0.42234 0.49206 0.77699 0.0
H1647 H 0.44393 0.48776 0.79463 0.0
C1648 C 0.73272 0.73007 0.1332 0.0
C1649 C 0.72776 0.72347 0.14676 0.0
C1650 C 0.73616 0.72093 0.1204 0.0
C1651 C 0.72855 0.68251 0.10336 0.0
H1652 H 0.76352 0.69169 0.07827 0.0
C1653 C 0.7487 0.64081 0.05603 0.0
C1654 C 0.75349 0.64696 0.04221 0.0
C1655 C 0.74579 0.6503 0.06869 0.0
C1656 C 0.75361 0.68906 0.08505 0.0
H1657 H 0.72308 0.70201 0.1576 0.0
H1658 H 0.72905 0.68615 0.13536 0.0
H1659 H 0.75811 0.70797 0.10046 0.0
H1660 H 0.75906 0.66798 0.03092 0.0
H1661 H 0.75384 0.68453 0.05296 0.0
H1662 H 0.724 0.66363 0.08797 0.0
C1663 C 0.72999 0.6984 0.13449 0.0
C1664 C 0.7505 0.6984 0.09778 0.0
C1665 C 0.72657 0.70751 0.14727 0.0
C1666 C 0.75541 0.66284 0.04139 0.0
C1667 C 0.7525 0.67234 0.05407 0.0
C1668 C 0.73164 0.67318 0.09063 0.0
C1669 C 0.73473 0.70498 0.12085 0.0
C1670 C 0.73797 0.6952 0.10715 0.0
C1671 C 0.74759 0.66619 0.06787 0.0
C1672 C 0.74424 0.67628 0.08133 0.0
H1673 H 0.73359 0.74232 0.13233 0.0
H1674 H 0.73962 0.7264 0.11004 0.0
H1675 H 0.71863 0.67986 0.11013 0.0
H1676 H 0.74715 0.62863 0.0571 0.0
H1677 H 0.74226 0.64513 0.07919 0.0
C1678 C 0.97639 0.02897 0.1145 0.0
C1679 C 0.98661 0.04151 0.1146 0.0
C1680 C 0.96698 0.02631 0.12702 0.0
C1681 C 0.95076 0.04601 0.16114 0.0
H1682 H 0.94207 0.00502 0.17427 0.0
C1683 C 0.92066 0.03434 0.21807 0.0
C1684 C 0.90969 0.02247 0.21834 0.0
C1685 C 0.92974 0.03644 0.20524 0.0
C1686 C 0.94423 0.01654 0.17065 0.0
H1687 H 0.99527 0.06074 0.1283 0.0
H1688 H 0.97903 0.05606 0.15009 0.0
H1689 H 0.95864 0.00894 0.15247 0.0
H1690 H 0.89972 1.00348 0.20519 0.0
H1691 H 0.91554 0.00717 0.18275 0.0
H1692 H 0.93645 0.05362 0.17935 0.0
C1693 C 0.97799 0.04846 0.14019 0.0
C1694 C 0.95375 0.0188 0.15812 0.0
C1695 C 0.98735 0.05113 0.12768 0.0
C1696 C 0.90805 0.01274 0.2054 0.0
C1697 C 0.9172 0.0148 0.19256 0.0
C1698 C 0.94129 0.04376 0.17366 0.0
C1699 C 0.96755 0.03609 0.14 0.0
C1700 C 0.95722 0.03358 0.15323 0.0
C1701 C 0.92816 0.0267 0.19229 0.0
C1702 C 0.93795 0.029 0.17865 0.0
H1703 H 0.97536 0.02142 0.10456 0.0
H1704 H 0.95898 0.01678 0.12634 0.0
H1705 H 0.95287 0.05754 0.15755 0.0
H1706 H 0.9223 0.04205 0.22782 0.0
H1707 H 0.93819 0.04558 0.20556 0.0
C1708 C 0.24858 0.77777 0.15011 0.0
C1709 C 0.26306 0.77248 0.15468 0.0
C1710 C 0.24724 0.78876 0.13888 0.0
C1711 C 0.26966 0.81821 0.11873 0.0
H1712 H 0.23863 0.81253 0.08686 0.0
C1713 C 0.2752 0.84447 0.05997 0.0
C1714 C 0.26222 0.85006 0.05236 0.0
C1715 C 0.27386 0.83714 0.07382 0.0
C1716 C 0.24717 0.81446 0.09582 0.0
H1717 H 0.28746 0.77466 0.15085 0.0
H1718 H 0.28514 0.79376 0.13135 0.0
H1719 H 0.23918 0.79537 0.10837 0.0
H1720 H 0.23763 0.85262 0.05357 0.0
H1721 H 0.23522 0.83951 0.07795 0.0
H1722 H 0.27792 0.83701 0.10598 0.0
C1723 C 0.27481 0.78961 0.13662 0.0
C1724 C 0.24752 0.8046 0.10816 0.0
C1725 C 0.27615 0.77862 0.14784 0.0
C1726 C 0.24783 0.84848 0.05919 0.0
C1727 C 0.24646 0.8409 0.07307 0.0
C1728 C 0.26933 0.82803 0.10642 0.0
C1729 C 0.26033 0.79479 0.13194 0.0
C1730 C 0.259 0.80613 0.11959 0.0
C1731 C 0.25948 0.83505 0.08047 0.0
C1732 C 0.25832 0.82605 0.09462 0.0
H1733 H 0.23825 0.77349 0.1553 0.0
H1734 H 0.23593 0.79262 0.13571 0.0
H1735 H 0.27843 0.81997 0.12749 0.0
H1736 H 0.28648 0.84555 0.05509 0.0
H1737 H 0.2841 0.83263 0.07905 0.0
C1738 C 0.02481 0.48154 0.1237 0.0
C1739 C 0.03149 0.48129 0.10922 0.0
C1740 C 0.0333 0.48629 0.13663 0.0
C1741 C 0.07323 0.49064 0.15097 0.0
H1742 H 0.05331 0.51053 0.18517 0.0
C1743 C 0.10398 0.50361 0.20939 0.0
C1744 C 0.09603 0.49722 0.22156 0.0
C1745 C 0.09684 0.50475 0.19502 0.0
C1746 C 0.05905 0.50507 0.17567 0.0
H1747 H 0.05224 0.48626 0.0969 0.0
H1748 H 0.06706 0.49478 0.11948 0.0
H1749 H 0.03944 0.5069 0.16095 0.0
H1750 H 0.0742 0.48775 0.22847 0.0
H1751 H 0.06173 0.49006 0.20364 0.0
H1752 H 0.09278 0.48869 0.16588 0.0
C1753 C 0.05531 0.49102 0.12088 0.0
C1754 C 0.05108 0.50288 0.16182 0.0
C1755 C 0.04682 0.48616 0.10793 0.0
C1756 C 0.08066 0.49264 0.21929 0.0
C1757 C 0.07347 0.49406 0.2051 0.0
C1758 C 0.08125 0.49298 0.1648 0.0
C1759 C 0.0487 0.49102 0.13543 0.0
C1760 C 0.05789 0.4952 0.14943 0.0
C1761 C 0.08153 0.49987 0.19274 0.0
C1762 C 0.07407 0.49981 0.17742 0.0
H1763 H 0.01311 0.47762 0.12512 0.0
H1764 H 0.02789 0.48579 0.14765 0.0
H1765 H 0.07882 0.48458 0.14175 0.0
H1766 H 0.11585 0.50718 0.21083 0.0
H1767 H 0.10329 0.50929 0.18566 0.0
C1768 C 0.37016 0.72049 0.27545 0.0
C1769 C 0.3617 0.73358 0.27217 0.0
C1770 C 0.38263 0.72131 0.28576 0.0
C1771 C 0.41058 0.74935 0.30209 0.0
H1772 H 0.41909 0.71914 0.3325 0.0
C1773 C 0.45489 0.76208 0.34896 0.0
C1774 C 0.4658 0.75096 0.35217 0.0
C1775 C 0.44183 0.75847 0.34021 0.0
C1776 C 0.41694 0.72758 0.32395 0.0
H1777 H 0.35922 0.75756 0.27792 0.0
H1778 H 0.38082 0.75898 0.29576 0.0
H1779 H 0.39692 0.71564 0.3151 0.0
H1780 H 0.47109 0.72704 0.34946 0.0
H1781 H 0.44808 0.72066 0.33387 0.0
H1782 H 0.43044 0.7613 0.31076 0.0
C1783 C 0.3781 0.74815 0.29011 0.0
C1784 C 0.40425 0.72558 0.31399 0.0
C1785 C 0.3657 0.74734 0.27985 0.0
C1786 C 0.46287 0.73585 0.34718 0.0
C1787 C 0.44972 0.73221 0.33824 0.0
C1788 C 0.42318 0.75132 0.31196 0.0
C1789 C 0.38691 0.73523 0.29301 0.0
C1790 C 0.40078 0.73661 0.30313 0.0
C1791 C 0.43932 0.74364 0.33426 0.0
C1792 C 0.42637 0.74065 0.32322 0.0
H1793 H 0.36745 0.70972 0.26968 0.0
H1794 H 0.38921 0.71116 0.28769 0.0
H1795 H 0.40853 0.75785 0.29359 0.0
H1796 H 0.45667 0.77379 0.35285 0.0
H1797 H 0.43385 0.76745 0.33777 0.0
C1798 C 0.97217 0.37666 0.99039 0.0
C1799 C 0.97931 0.39101 0.989 0.0
C1800 C 0.97655 0.36425 0.98119 0.0
C1801 C 0.99366 0.35571 0.94407 0.0
H1802 H 1.0 0.31525 0.95947 0.0
C1803 C 0.01623 0.30867 0.9046 0.0
C1804 C 0.00967 0.29404 0.90544 0.0
C1805 C 0.01362 0.31972 0.91594 0.0
C1806 C 0.99811 0.32643 0.95496 0.0
H1807 H 0.99672 0.4035 0.97691 0.0
H1808 H 1.00434 0.38189 0.96088 0.0
H1809 H 0.99306 0.33604 0.97707 0.0
H1810 H 0.99573 0.27929 0.91919 0.0
H1811 H 0.99076 0.29879 0.93892 0.0
H1812 H 0.99823 0.34625 0.92198 0.0
C1813 C 0.99534 0.38024 0.96908 0.0
C1814 C 0.99417 0.33835 0.96505 0.0
C1815 C 0.99107 0.39259 0.97836 0.0
C1816 C 1.00099 0.29047 0.91828 0.0
C1817 C 0.99816 0.30165 0.92958 0.0
C1818 C 0.99744 0.34383 0.934 0.0
C1819 C 0.98805 0.36596 0.97028 0.0
C1820 C 0.99204 0.35315 0.95972 0.0
C1821 C 1.00412 0.31656 0.92833 0.0
C1822 C 0.99988 0.32905 0.93929 0.0
H1823 H 0.96315 0.37504 0.99858 0.0
H1824 H 0.97066 0.35341 0.98233 0.0
H1825 H 0.99177 0.3669 0.93954 0.0
H1826 H 0.02315 0.31171 0.89495 0.0
H1827 H 0.01883 0.33088 0.9148 0.0
C1828 C 0.65592 0.76549 0.287 0.0
C1829 C 0.65381 0.77468 0.27423 0.0
C1830 C 0.64341 0.76112 0.29583 0.0
C1831 C 0.60114 0.75688 0.29425 0.0
H1832 H 0.60342 0.76164 0.33835 0.0
C1833 C 0.54766 0.76412 0.33025 0.0
C1834 C 0.54674 0.75771 0.34476 0.0
C1835 C 0.56105 0.76326 0.32185 0.0
C1836 C 0.60267 0.75994 0.32608 0.0
H1837 H 0.63683 0.78617 0.26056 0.0
H1838 H 0.61511 0.77862 0.27591 0.0
H1839 H 0.62637 0.76589 0.32324 0.0
H1840 H 0.55921 0.74503 0.36168 0.0
H1841 H 0.58292 0.74357 0.34689 0.0
H1842 H 0.57744 0.75124 0.29697 0.0
C1843 C 0.62641 0.77474 0.27911 0.0
C1844 C 0.61581 0.76242 0.31741 0.0
C1845 C 0.63889 0.77921 0.27039 0.0
C1846 C 0.55953 0.75004 0.35052 0.0
C1847 C 0.57312 0.7493 0.3421 0.0
C1848 C 0.58806 0.75436 0.30288 0.0
C1849 C 0.62849 0.76568 0.29196 0.0
C1850 C 0.61509 0.76133 0.30136 0.0
C1851 C 0.57404 0.75602 0.32769 0.0
C1852 C 0.58853 0.75629 0.31887 0.0
H1853 H 0.66728 0.7619 0.29032 0.0
H1854 H 0.6454 0.75408 0.30561 0.0
H1855 H 0.60026 0.7556 0.28193 0.0
H1856 H 0.53803 0.77008 0.3254 0.0
H1857 H 0.56137 0.76877 0.31094 0.0
C1858 C 0.02413 0.11302 0.97859 0.0
C1859 C 0.03924 0.11052 0.98366 0.0
C1860 C 0.0208 0.12505 0.96891 0.0
C1861 C 0.03649 0.16181 0.95509 0.0
H1862 H 0.00774 0.15463 0.92144 0.0
C1863 C 0.01769 0.21013 0.9152 0.0
C1864 C 0.01628 0.20653 0.8995 0.0
C1865 C 0.01992 0.19867 0.92583 0.0
C1866 C 0.01587 0.15683 0.93072 0.0
H1867 H 0.06261 0.11915 0.9828 0.0
H1868 H 0.05687 0.13986 0.96578 0.0
H1869 H 0.01282 0.13437 0.93925 0.0
H1870 H 0.01607 0.18793 0.88274 0.0
H1871 H 0.02008 0.16803 0.9012 0.0
H1872 H 0.03984 0.18413 0.94633 0.0
C1873 C 0.04754 0.13259 0.96935 0.0
C1874 C 0.01864 0.14524 0.94107 0.0
C1875 C 0.05087 0.12057 0.97899 0.0
C1876 C 0.01707 0.19115 0.89473 0.0
C1877 C 0.01927 0.1797 0.90536 0.0
C1878 C 0.03369 0.1734 0.94475 0.0
C1879 C 0.03247 0.13496 0.96407 0.0
C1880 C 0.02907 0.14752 0.95335 0.0
C1881 C 0.02078 0.18329 0.92106 0.0
C1882 C 0.02342 0.17105 0.93236 0.0
H1883 H 0.01489 0.10547 0.98184 0.0
H1884 H 0.00903 0.1266 0.96524 0.0
H1885 H 0.04446 0.16407 0.96449 0.0
H1886 H 0.01711 0.22184 0.91931 0.0
H1887 H 0.02083 0.20188 0.93783 0.0
C1888 C 0.37706 0.29534 0.24429 0.0
C1889 C 0.37696 0.286 0.25709 0.0
C1890 C 0.38888 0.29444 0.23374 0.0
C1891 C 0.41979 0.2691 0.22013 0.0
H1892 H 0.43309 0.30554 0.19977 0.0
C1893 C 0.46788 0.26955 0.17471 0.0
C1894 C 0.46336 0.27628 0.161 0.0
C1895 C 0.4589 0.27116 0.18779 0.0
C1896 C 0.42951 0.29527 0.20539 0.0
H1897 H 0.38933 0.26831 0.26871 0.0
H1898 H 0.41021 0.26715 0.25062 0.0
H1899 H 0.41447 0.30749 0.22014 0.0
H1900 H 0.44622 0.29041 0.15041 0.0
H1901 H 0.43084 0.29342 0.17317 0.0
H1902 H 0.43493 0.25694 0.20527 0.0
C1903 C 0.40099 0.27501 0.2486 0.0
C1904 C 0.41875 0.29636 0.217 0.0
C1905 C 0.38909 0.27582 0.25911 0.0
C1906 C 0.45 0.28502 0.16077 0.0
C1907 C 0.44122 0.28684 0.17384 0.0
C1908 C 0.43069 0.26805 0.20861 0.0
C1909 C 0.40103 0.28429 0.23575 0.0
C1910 C 0.41347 0.28324 0.2243 0.0
C1911 C 0.44546 0.27979 0.18744 0.0
C1912 C 0.4354 0.28109 0.2009 0.0
H1913 H 0.36805 0.30346 0.24244 0.0
H1914 H 0.38835 0.3016 0.22388 0.0
H1915 H 0.4159 0.25873 0.22536 0.0
H1916 H 0.47809 0.26271 0.17522 0.0
H1917 H 0.46244 0.26565 0.19816 0.0
C1918 C 0.54338 0.3848 0.01447 0.0
C1919 C 0.54779 0.39905 0.0209 0.0
C1920 C 0.54049 0.37241 0.02378 0.0
C1921 C 0.54558 0.35834 0.06338 0.0
H1922 H 0.50941 0.33412 0.05258 0.0
C1923 C 0.52439 0.30576 0.09764 0.0
C1924 C 0.50842 0.30448 0.09925 0.0
C1925 C 0.5307 0.31695 0.08831 0.0
C1926 C 0.51952 0.3408 0.05581 0.0
H1927 H 0.55332 0.41116 0.04221 0.0
H1928 H 0.54782 0.38974 0.05843 0.0
H1929 H 0.51778 0.35402 0.03578 0.0
H1930 H 0.48667 0.31452 0.0931 0.0
H1931 H 0.49757 0.33395 0.07727 0.0
H1932 H 0.54688 0.34534 0.08378 0.0
C1933 C 0.54673 0.38807 0.04617 0.0
C1934 C 0.52446 0.3521 0.04605 0.0
C1935 C 0.54966 0.40045 0.03686 0.0
C1936 C 0.499 0.31499 0.09193 0.0
C1937 C 0.50525 0.32611 0.08274 0.0
C1938 C 0.54061 0.34698 0.07321 0.0
C1939 C 0.54189 0.37394 0.03977 0.0
C1940 C 0.53743 0.36117 0.04977 0.0
C1941 C 0.52112 0.32703 0.08048 0.0
C1942 C 0.52734 0.33828 0.06966 0.0
H1943 H 0.54174 0.3833 1.00224 0.0
H1944 H 0.537 0.36165 0.01843 0.0
H1945 H 0.55575 0.36497 0.06652 0.0
H1946 H 0.53195 0.29783 0.10314 0.0
H1947 H 0.54298 0.31738 0.08682 0.0
C1948 C 0.64617 0.24114 0.22334 0.0
C1949 C 0.64867 0.22588 0.22706 0.0
C1950 C 0.63368 0.24504 0.21409 0.0
C1951 C 0.59572 0.23089 0.19983 0.0
H1952 H 0.60161 0.2607 0.16849 0.0
C1953 C 0.54515 0.25397 0.16413 0.0
C1954 C 0.54748 0.25584 0.14843 0.0
C1955 C 0.55739 0.25057 0.17391 0.0
C1956 C 0.59978 0.25228 0.17712 0.0
H1957 H 0.63971 0.20282 0.22419 0.0
H1958 H 0.61812 0.20958 0.20789 0.0
H1959 H 0.62305 0.25416 0.18514 0.0
H1960 H 0.56462 0.25562 0.13076 0.0
H1961 H 0.58592 0.2496 0.14779 0.0
H1962 H 0.57254 0.22879 0.19163 0.0
C1963 C 0.62575 0.21856 0.21221 0.0
C1964 C 0.61204 0.24867 0.1868 0.0
C1965 C 0.63825 0.21466 0.22142 0.0
C1966 C 0.56239 0.25429 0.14278 0.0
C1967 C 0.57464 0.25092 0.15257 0.0
C1968 C 0.58345 0.23454 0.19019 0.0
C1969 C 0.62334 0.2338 0.20835 0.0
C1970 C 0.61019 0.23788 0.19825 0.0
C1971 C 0.5723 0.24899 0.16826 0.0
C1972 C 0.58533 0.24525 0.17867 0.0
H1973 H 0.65402 0.25006 0.22737 0.0
H1974 H 0.63209 0.2569 0.21149 0.0
H1975 H 0.59383 0.22265 0.20862 0.0
H1976 H 0.53383 0.25512 0.1689 0.0
H1977 H 0.55519 0.24935 0.18595 0.0
C1978 C 0.48421 0.12344 0.03074 0.0
C1979 C 0.47276 0.1128 0.03446 0.0
C1980 C 0.48717 0.1363 0.04014 0.0
C1981 C 0.468 0.1606 0.06877 0.0
H1982 H 0.50842 0.17889 0.0747 0.0
C1983 C 0.47563 0.22236 0.08981 0.0
C1984 C 0.48724 0.22604 0.10064 0.0
C1985 C 0.47482 0.20798 0.08274 0.0
C1986 C 0.49709 0.17383 0.07329 0.0
H1987 H 0.45568 0.10727 0.05128 0.0
H1988 H 0.46116 0.12932 0.06783 0.0
H1989 H 0.50558 0.15437 0.061 0.0
H1990 H 0.50729 0.21745 0.11234 0.0
H1991 H 0.50578 0.1921 0.09996 0.0
H1992 H 0.45948 0.17989 0.08109 0.0
C1993 C 0.46769 0.12789 0.0575 0.0
C1994 C 0.49543 0.15986 0.0653 0.0
C1995 C 0.46469 0.11511 0.04808 0.0
C1996 C 0.49819 0.21498 0.10407 0.0
C1997 C 0.49736 0.20049 0.09694 0.0
C1998 C 0.46966 0.17448 0.07674 0.0
C1999 C 0.47876 0.13881 0.05352 0.0
C2000 C 0.48084 0.15316 0.06279 0.0
C2001 C 0.48555 0.1968 0.0863 0.0
C2002 C 0.48417 0.18141 0.07889 0.0
H2003 H 0.49082 0.12193 0.02046 0.0
H2004 H 0.4957 0.14451 0.03665 0.0
H2005 H 0.45657 0.15591 0.06693 0.0
H2006 H 0.46707 0.23059 0.08675 0.0
H2007 H 0.46578 0.20566 0.07436 0.0
C2008 C 0.28101 0.36312 0.73174 0.0
C2009 C 0.279 0.35743 0.71669 0.0
C2010 C 0.28963 0.37642 0.73482 0.0
C2011 C 0.31944 0.40164 0.71887 0.0
H2012 H 0.30502 0.43018 0.74969 0.0
C2013 C 0.34935 0.46049 0.73381 0.0
C2014 C 0.35011 0.46454 0.74944 0.0
C2015 C 0.34095 0.4475 0.72872 0.0
C2016 C 0.3093 0.42228 0.74114 0.0
H2017 H 0.28439 0.36153 0.69303 0.0
H2018 H 0.29948 0.38469 0.69843 0.0
H2019 H 0.28975 0.40755 0.74304 0.0
H2020 H 0.34325 0.45763 0.772 0.0
H2021 H 0.32898 0.43521 0.76322 0.0
H2022 H 0.3391 0.41643 0.71711 0.0
C2023 C 0.29453 0.37873 0.70788 0.0
C2024 C 0.30053 0.40927 0.73733 0.0
C2025 C 0.28587 0.36543 0.70479 0.0
C2026 C 0.34276 0.45505 0.75984 0.0
C2027 C 0.33446 0.44218 0.7548 0.0
C2028 C 0.32826 0.4147 0.7227 0.0
C2029 C 0.29649 0.38442 0.72293 0.0
C2030 C 0.30557 0.39865 0.72632 0.0
C2031 C 0.33316 0.43836 0.73918 0.0
C2032 C 0.32341 0.42504 0.73408 0.0
H2033 H 0.27614 0.35714 0.74122 0.0
H2034 H 0.29112 0.38031 0.74658 0.0
H2035 H 0.32372 0.39366 0.71039 0.0
H2036 H 0.35487 0.46754 0.72549 0.0
H2037 H 0.34017 0.44487 0.71659 0.0
C2038 C 0.29348 0.65626 0.77061 0.0
C2039 C 0.27832 0.65493 0.77573 0.0
C2040 C 0.30217 0.64326 0.76756 0.0
C2041 C 0.30487 0.60327 0.77847 0.0
H2042 H 0.32993 0.59788 0.74261 0.0
C2043 C 0.33104 0.54555 0.76498 0.0
C2044 C 0.34625 0.54496 0.76001 0.0
C2045 C 0.32318 0.55924 0.76543 0.0
C2046 C 0.32314 0.59929 0.75277 0.0
H2047 H 0.26043 0.63883 0.78155 0.0
H2048 H 0.27552 0.61624 0.77622 0.0
H2049 H 0.31545 0.62138 0.74628 0.0
H2050 H 0.36493 0.55823 0.75091 0.0
H2051 H 0.35121 0.58248 0.75199 0.0
H2052 H 0.31259 0.58147 0.78518 0.0
C2053 C 0.28071 0.62733 0.77459 0.0
C2054 C 0.31482 0.61274 0.75486 0.0
C2055 C 0.27201 0.64029 0.7775 0.0
C2056 C 0.35321 0.55834 0.75477 0.0
C2057 C 0.34533 0.57221 0.7554 0.0
C2058 C 0.31321 0.58996 0.77645 0.0
C2059 C 0.29596 0.62864 0.76975 0.0
C2060 C 0.30539 0.61476 0.76763 0.0
C2061 C 0.33034 0.57287 0.76115 0.0
C2062 C 0.32225 0.58762 0.76345 0.0
H2063 H 0.29865 0.66737 0.769 0.0
H2064 H 0.3139 0.64465 0.76391 0.0
H2065 H 0.29804 0.60461 0.78862 0.0
H2066 H 0.32525 0.5354 0.76885 0.0
H2067 H 0.3115 0.55916 0.76943 0.0
C2068 C 0.87948 0.49545 0.47968 0.0
C2069 C 0.89237 0.489 0.47271 0.0
C2070 C 0.86652 0.48646 0.48269 0.0
C2071 C 0.84774 0.4499 0.47061 0.0
H2072 H 0.82662 0.45294 0.50918 0.0
C2073 C 0.81119 0.40106 0.49236 0.0
C2074 C 0.79681 0.40406 0.49874 0.0
C2075 C 0.82119 0.41289 0.4888 0.0
C2076 C 0.83225 0.45214 0.49826 0.0
H2077 H 0.90193 0.46788 0.46407 0.0
H2078 H 0.8795 0.45231 0.46927 0.0
H2079 H 0.84753 0.47088 0.50387 0.0
H2080 H 0.78177 0.422 0.50648 0.0
H2081 H 0.79957 0.44289 0.50037 0.0
H2082 H 0.83284 0.43095 0.46515 0.0
C2083 C 0.87919 0.46437 0.47209 0.0
C2084 C 0.84423 0.4624 0.49522 0.0
C2085 C 0.89209 0.47332 0.46911 0.0
C2086 C 0.79274 0.41931 0.50155 0.0
C2087 C 0.80293 0.43124 0.49811 0.0
C2088 C 0.83586 0.43968 0.47366 0.0
C2089 C 0.86616 0.47083 0.47876 0.0
C2090 C 0.85238 0.46112 0.48151 0.0
C2091 C 0.81721 0.42811 0.49157 0.0
C2092 C 0.82824 0.44041 0.48767 0.0
H2093 H 0.87927 0.50751 0.48251 0.0
H2094 H 0.85666 0.4918 0.48778 0.0
H2095 H 0.85348 0.44884 0.45977 0.0
H2096 H 0.81477 0.38949 0.49001 0.0
H2097 H 0.83219 0.41007 0.484 0.0
C2098 C 0.75038 0.88607 0.79245 0.0
C2099 C 0.75654 0.8783 0.77978 0.0
C2100 C 0.73926 0.8972 0.79047 0.0
C2101 C 0.70959 0.90884 0.76303 0.0
H2102 H 0.70891 0.94589 0.78802 0.0
C2103 C 0.65586 0.94556 0.76757 0.0
C2104 C 0.65761 0.96149 0.76743 0.0
C2105 C 0.66861 0.93621 0.76852 0.0
C2106 C 0.70902 0.93567 0.78085 0.0
H2107 H 0.75624 0.87666 0.75502 0.0
H2108 H 0.7368 0.89595 0.75159 0.0
H2109 H 0.73025 0.92835 0.79066 0.0
H2110 H 0.67425 0.98007 0.76821 0.0
H2111 H 0.69662 0.96364 0.76988 0.0
H2112 H 0.68841 0.91609 0.75322 0.0
C2113 C 0.74039 0.89326 0.76308 0.0
C2114 C 0.72116 0.92555 0.78248 0.0
C2115 C 0.75152 0.88217 0.76506 0.0
C2116 C 0.67249 0.96785 0.7683 0.0
C2117 C 0.6853 0.95845 0.76932 0.0
C2118 C 0.69746 0.9189 0.76146 0.0
C2119 C 0.73402 0.90081 0.77576 0.0
C2120 C 0.72152 0.91195 0.77366 0.0
C2121 C 0.68348 0.94251 0.76939 0.0
C2122 C 0.69693 0.93236 0.77046 0.0
H2123 H 0.75384 0.88326 0.80395 0.0
H2124 H 0.73445 0.90266 0.80049 0.0
H2125 H 0.70943 0.89842 0.75615 0.0
H2126 H 0.64459 0.94023 0.76697 0.0
H2127 H 0.66678 0.924 0.76879 0.0
C2128 C 0.6225 0.52719 0.98668 0.0
C2129 C 0.61189 0.53167 0.97545 0.0
C2130 C 0.63539 0.53625 0.99037 0.0
C2131 C 0.65241 0.57491 0.98709 0.0
H2132 H 0.69095 0.55351 0.98656 0.0
C2133 C 0.71268 0.60427 0.99615 0.0
C2134 C 0.7233 0.60008 0.98493 0.0
C2135 C 0.69857 0.59649 0.99702 0.0
C2136 C 0.68027 0.55964 0.98684 0.0
H2137 H 0.60646 0.54949 0.9596 0.0
H2138 H 0.62881 0.56533 0.96621 0.0
H2139 H 0.66691 0.53909 0.98473 0.0
H2140 H 0.72733 0.58446 0.96583 0.0
H2141 H 0.70301 0.571 0.96748 0.0
H2142 H 0.66593 0.59551 0.98877 0.0
C2143 C 0.62706 0.55485 0.97223 0.0
C2144 C 0.6665 0.55138 0.98591 0.0
C2145 C 0.61423 0.54574 0.96845 0.0
C2146 C 0.71948 0.58803 0.97463 0.0
C2147 C 0.70556 0.58021 0.97562 0.0
C2148 C 0.66623 0.58319 0.98817 0.0
C2149 C 0.63793 0.55008 0.98302 0.0
C2150 C 0.65241 0.55892 0.9857 0.0
C2151 C 0.69498 0.58427 0.98685 0.0
C2152 C 0.6803 0.57563 0.98769 0.0
H2153 H 0.62092 0.51659 0.99254 0.0
H2154 H 0.64346 0.53236 0.99888 0.0
H2155 H 0.64172 0.58102 0.98709 0.0
H2156 H 0.71527 0.6135 1.00424 0.0
H2157 H 0.69059 0.59985 0.00579 0.0
C2158 C 0.24093 0.62867 0.24062 0.0
C2159 C 0.23636 0.64376 0.23849 0.0
C2160 C 0.23006 0.61695 0.24191 0.0
C2161 C 0.18945 0.61001 0.25148 0.0
H2162 H 0.19655 0.5701 0.23328 0.0
C2163 C 0.1437 0.56157 0.25128 0.0
C2164 C 0.14882 0.54681 0.2542 0.0
C2165 C 0.15418 0.57348 0.24905 0.0
C2166 C 0.19446 0.58113 0.23857 0.0
H2167 H 0.21665 0.65829 0.23594 0.0
H2168 H 0.19768 0.6378 0.2379 0.0
H2169 H 0.21504 0.59067 0.2296 0.0
H2170 H 0.16904 0.53304 0.25714 0.0
H2171 H 0.18729 0.55381 0.25337 0.0
H2172 H 0.16887 0.60044 0.26047 0.0
C2173 C 0.20971 0.63506 0.23876 0.0
C2174 C 0.20507 0.59295 0.23646 0.0
C2175 C 0.2206 0.64679 0.23745 0.0
C2176 C 0.16468 0.54425 0.25488 0.0
C2177 C 0.17516 0.55615 0.25261 0.0
C2178 C 0.17882 0.59819 0.25357 0.0
C2179 C 0.2143 0.61999 0.2411 0.0
C2180 C 0.20275 0.60753 0.24295 0.0
C2181 C 0.17005 0.57092 0.24965 0.0
C2182 C 0.18123 0.58358 0.24721 0.0
H2183 H 0.25297 0.62587 0.24127 0.0
H2184 H 0.23404 0.60553 0.24385 0.0
H2185 H 0.18739 0.62101 0.25685 0.0
H2186 H 0.13157 0.56395 0.25063 0.0
H2187 H 0.14984 0.58466 0.24662 0.0
C2188 C 0.89118 0.51808 0.02836 0.0
C2189 C 0.9011 0.52166 0.04076 0.0
C2190 C 0.87924 0.52779 0.02454 0.0
C2191 C 0.85462 0.55831 0.03922 0.0
H2192 H 0.84977 0.56731 0.99635 0.0
C2193 C 0.80944 0.60092 0.01587 0.0
C2194 C 0.8021 0.59641 1.00205 0.0
C2195 C 0.82181 0.59257 0.02156 0.0
C2196 C 0.85084 0.56482 0.00836 0.0
H2197 H 0.906 0.53829 0.05901 0.0
H2198 H 0.88494 0.55505 0.05249 0.0
H2199 H 0.87041 0.55095 1.00451 0.0
H2200 H 0.80162 0.57923 0.98376 0.0
H2201 H 0.82266 0.56474 0.99374 0.0
H2202 H 0.83477 0.57199 0.04299 0.0
C2203 C 0.88645 0.54468 0.04576 0.0
C2204 C 0.86269 0.55543 0.01302 0.0
C2205 C 0.89849 0.53503 0.04951 0.0
C2206 C 0.80712 0.58322 0.99431 0.0
C2207 C 0.81931 0.57491 1.0 0.0
C2208 C 0.84262 0.56765 0.03452 0.0
C2209 C 0.87684 0.54127 0.0331 0.0
C2210 C 0.86459 0.55188 0.02846 0.0
C2211 C 0.827 0.57957 0.01355 0.0
C2212 C 0.84043 0.57078 0.01898 0.0
H2213 H 0.8926 0.50775 0.02156 0.0
H2214 H 0.87185 0.52471 0.01488 0.0
H2215 H 0.8558 0.55575 0.0512 0.0
H2216 H 0.80582 0.611 0.02211 0.0
H2217 H 0.8275 0.59648 0.03204 0.0
C2218 C 0.10903 0.96543 0.04121 0.0
C2219 C 0.11059 0.98119 0.03906 0.0
C2220 C 0.12121 0.95563 0.03834 0.0
C2221 C 0.15827 0.95237 0.01826 0.0
H2222 H 0.16516 0.91999 0.04671 0.0
C2223 C 0.212 0.91385 0.01599 0.0
C2224 C 0.20986 0.89832 0.019 0.0
C2225 C 0.20007 0.9242 0.01811 0.0
C2226 C 0.16332 0.92884 0.03853 0.0
H2227 H 0.12628 0.9989 0.03196 0.0
H2228 H 0.14756 0.98177 0.02692 0.0
H2229 H 0.14418 0.93748 0.05082 0.0
H2230 H 0.19332 0.88151 0.02642 0.0
H2231 H 0.17258 0.89942 0.02995 0.0
H2232 H 0.17745 0.94366 0.00597 0.0
C2233 C 0.13682 0.97699 0.03073 0.0
C2234 C 0.15125 0.9389 0.04089 0.0
C2235 C 0.1246 0.98682 0.03361 0.0
C2236 C 0.19544 0.89339 0.02405 0.0
C2237 C 0.18354 0.90371 0.02618 0.0
C2238 C 0.17036 0.94227 0.01588 0.0
C2239 C 0.13534 0.96126 0.03322 0.0
C2240 C 0.14847 0.95076 0.03075 0.0
C2241 C 0.18569 0.91928 0.02332 0.0
C2242 C 0.173 0.93029 0.02594 0.0
H2243 H 0.09833 0.9606 0.04506 0.0
H2244 H 0.1195 0.94357 0.04007 0.0
H2245 H 0.1564 0.96125 0.01012 0.0
H2246 H 0.22294 0.91808 0.01211 0.0
H2247 H 0.20222 0.93611 0.01594 0.0
loop_
_geom_bond_atom_site_label_1
_geom_bond_atom_site_label_2
_geom_bond_distance
_geom_bond_site_symmetry_2
_ccdc_geom_bond_type
C0 C1 1.264 . S
C0 C5 1.479 1_455 S
C0 C10 1.465 . S
C1 C0 1.264 . S
C1 C3 1.339 . S
C1 H28 0.931 . S
C2 C3 1.395 1_655 S
C2 C4 1.320 . S
C3 C1 1.339 . S
C3 C2 1.395 1_455 S
C3 H29 0.929 . S
C4 C2 1.320 . S
C4 C5 1.405 . S
C4 H30 0.930 . S
C5 C0 1.479 1_655 S
C5 C4 1.405 . S
C5 H31 0.931 . S
U6 O7 2.454 . S
U6 O8 2.458 . S
U6 C9 2.984 . S
U6 C10 2.847 . S
U6 C23 2.882 . S
U6 O24 2.441 . S
U6 O25 2.420 . S
U6 O26 2.455 . S
U6 O27 2.449 . S
O7 U6 2.454 . S
O7 C9 1.353 . S
O8 U6 2.458 . S
O8 C9 1.286 . S
C9 U6 2.984 . S
C9 O7 1.353 . S
C9 O8 1.286 . S
C9 C11 1.363 . S
C10 C0 1.465 . S
C10 U6 2.847 . S
C10 O24 1.249 . S
C10 O25 1.202 . S
C11 C9 1.363 . S
C11 C13 1.408 . S
C11 C16 1.291 1_554 S
C12 C13 1.310 . S
C12 C15 1.461 1_554 S
C12 H32 0.932 . S
C13 C11 1.408 . S
C13 C12 1.310 . S
C13 H33 0.930 . S
C14 C15 1.474 . S
C14 C16 1.335 . S
C14 H34 0.929 . S
C15 C12 1.461 1_556 S
C15 C14 1.474 . S
C16 C11 1.291 1_556 S
C16 C14 1.335 . S
C16 H35 0.939 . S
C17 C20 1.424 1_545 S
C17 C22 1.245 . S
C17 C23 1.428 . S
C18 C21 1.260 1_545 S
C18 C22 1.477 . S
C18 H36 0.932 . S
C19 C20 1.384 . S
C19 C21 1.479 . S
C19 H37 0.929 . S
C20 C17 1.424 1_565 S
C20 C19 1.384 . S
C20 H38 0.928 . S
C21 C18 1.260 1_565 S
C21 C19 1.479 . S
C22 C17 1.245 . S
C22 C18 1.477 . S
C22 H39 0.932 . S
C23 U6 2.882 . S
C23 C17 1.428 . S
C23 O26 1.301 . S
C23 O27 1.282 . S
O24 U6 2.441 . S
O24 C10 1.249 . S
O25 U6 2.420 . S
O25 C10 1.202 . S
O26 U6 2.455 . S
O26 C23 1.301 . S
O27 U6 2.449 . S
O27 C23 1.282 . S
H28 C1 0.931 . S
H29 C3 0.929 . S
H30 C4 0.930 . S
H31 C5 0.931 . S
H32 C12 0.932 . S
H33 C13 0.930 . S
H34 C14 0.929 . S
H35 C16 0.939 . S
H36 C18 0.932 . S
H37 C19 0.929 . S
H38 C20 0.928 . S
H39 C22 0.932 . S
C40 C41 1.264 . S
C40 C45 1.479 . S
C40 C50 1.465 . S
C41 C40 1.264 . S
C41 C43 1.339 . S
C41 H68 0.931 . S
C42 C43 1.395 . S
C42 C44 1.320 . S
C43 C41 1.339 . S
C43 C42 1.395 . S
C43 H69 0.929 . S
C44 C42 1.320 . S
C44 C45 1.405 . S
C44 H70 0.930 . S
C45 C40 1.479 . S
C45 C44 1.405 . S
C45 H71 0.931 . S
U46 O47 2.454 . S
U46 O48 2.458 . S
U46 C49 2.984 . S
U46 C50 2.847 . S
U46 C63 2.882 . S
U46 O64 2.441 . S
U46 O65 2.420 . S
U46 O66 2.455 . S
U46 O67 2.449 . S
O47 U46 2.454 . S
O47 C49 1.353 . S
O48 U46 2.458 . S
O48 C49 1.286 . S
C49 U46 2.984 . S
C49 O47 1.353 . S
C49 O48 1.286 . S
C49 C51 1.363 . S
C50 C40 1.465 . S
C50 U46 2.847 . S
C50 O64 1.249 . S
C50 O65 1.202 . S
C51 C49 1.363 . S
C51 C53 1.408 . S
C51 C56 1.342 . S
C52 C53 1.310 . S
C52 C55 1.461 . S
C52 H72 0.932 . S
C53 C51 1.408 . S
C53 C52 1.310 . S
C53 H73 0.930 . S
C54 C55 1.474 . S
C54 C56 1.285 . S
C54 H74 0.929 . S
C55 C52 1.461 . S
C55 C54 1.474 . S
C56 C51 1.342 . S
C56 C54 1.285 . S
C56 H75 0.930 . S
C57 C60 1.424 . S
C57 C62 1.245 . S
C57 C63 1.428 . S
C58 C61 1.260 . S
C58 C62 1.477 . S
C58 H76 0.932 . S
C59 C60 1.384 . S
C59 C61 1.479 . S
C59 H77 0.929 . S
C60 C57 1.424 . S
C60 C59 1.384 . S
C60 H78 0.928 . S
C61 C58 1.260 . S
C61 C59 1.479 . S
C62 C57 1.245 . S
C62 C58 1.477 . S
C62 H79 0.932 . S
C63 U46 2.882 . S
C63 C57 1.428 . S
C63 O66 1.301 . S
C63 O67 1.282 . S
O64 U46 2.441 . S
O64 C50 1.249 . S
O65 U46 2.420 . S
O65 C50 1.202 . S
O66 U46 2.455 . S
O66 C63 1.301 . S
O67 U46 2.449 . S
O67 C63 1.282 . S
H68 C41 0.931 . S
H69 C43 0.929 . S
H70 C44 0.930 . S
H71 C45 0.931 . S
H72 C52 0.932 . S
H73 C53 0.930 . S
H74 C54 0.929 . S
H75 C56 0.930 . S
H76 C58 0.932 . S
H77 C59 0.929 . S
H78 C60 0.928 . S
H79 C62 0.932 . S
C80 C81 1.264 . S
C80 C85 1.479 . S
C80 C90 1.465 . S
C81 C80 1.264 . S
C81 C83 1.339 . S
C81 H108 0.931 . S
C82 C83 1.395 . S
C82 C84 1.320 1_554 S
C83 C81 1.339 . S
C83 C82 1.395 . S
C83 H109 0.929 . S
C84 C82 1.320 1_556 S
C84 C85 1.405 1_556 S
C84 H110 0.930 . S
C85 C80 1.479 . S
C85 C84 1.405 1_554 S
C85 H111 0.931 . S
U86 O87 2.454 . S
U86 O88 2.458 . S
U86 C89 2.984 . S
U86 C90 2.847 . S
U86 C103 2.882 . S
U86 O104 2.441 . S
U86 O105 2.420 . S
U86 O106 2.455 . S
U86 O107 2.449 . S
O87 U86 2.454 . S
O87 C89 1.353 . S
O88 U86 2.458 . S
O88 C89 1.286 . S
C89 U86 2.984 . S
C89 O87 1.353 . S
C89 O88 1.286 . S
C89 C91 1.363 . S
C90 C80 1.465 . S
C90 U86 2.847 . S
C90 O104 1.249 . S
C90 O105 1.202 . S
C91 C89 1.363 . S
C91 C93 1.408 . S
C91 C96 1.342 . S
C92 C93 1.310 . S
C92 C95 1.461 . S
C92 H112 0.932 . S
C93 C91 1.408 . S
C93 C92 1.310 . S
C93 H113 0.930 . S
C94 C95 1.474 . S
C94 C96 1.285 . S
C94 H114 0.929 . S
C95 C92 1.461 . S
C95 C94 1.474 . S
C96 C91 1.342 . S
C96 C94 1.285 . S
C96 H115 0.930 . S
C97 C100 1.424 . S
C97 C102 1.245 . S
C97 C103 1.428 . S
C98 C101 1.273 . S
C98 C102 1.477 . S
C98 H116 0.932 . S
C99 C100 1.384 1_455 S
C99 C101 1.475 1_455 S
C99 H117 0.929 . S
C100 C97 1.424 . S
C100 C99 1.384 1_655 S
C100 H118 0.928 . S
C101 C98 1.273 . S
C101 C99 1.475 1_655 S
C102 C97 1.245 . S
C102 C98 1.477 . S
C102 H119 0.932 . S
C103 U86 2.882 . S
C103 C97 1.428 . S
C103 O106 1.301 . S
C103 O107 1.282 . S
O104 U86 2.441 . S
O104 C90 1.249 . S
O105 U86 2.420 . S
O105 C90 1.202 . S
O106 U86 2.455 . S
O106 C103 1.301 . S
O107 U86 2.449 . S
O107 C103 1.282 . S
H108 C81 0.931 . S
H109 C83 0.929 . S
H110 C84 0.930 . S
H111 C85 0.931 . S
H112 C92 0.932 . S
H113 C93 0.930 . S
H114 C94 0.929 . S
H115 C96 0.930 . S
H116 C98 0.932 . S
H117 C99 0.929 . S
H118 C100 0.928 . S
H119 C102 0.932 . S
C120 C121 1.264 . S
C120 C125 1.479 . S
C120 C130 1.465 . S
C121 C120 1.264 . S
C121 C123 1.339 . S
C121 H148 0.931 . S
C122 C123 1.395 . S
C122 C124 1.320 . S
C123 C121 1.339 . S
C123 C122 1.395 . S
C123 H149 0.929 . S
C124 C122 1.320 . S
C124 C125 1.405 . S
C124 H150 0.930 . S
C125 C120 1.479 . S
C125 C124 1.405 . S
C125 H151 0.931 . S
U126 O127 2.454 . S
U126 O128 2.458 . S
U126 C129 2.984 . S
U126 C130 2.847 . S
U126 C143 2.882 . S
U126 O144 2.441 . S
U126 O145 2.420 . S
U126 O146 2.455 . S
U126 O147 2.449 . S
O127 U126 2.454 . S
O127 C129 1.353 . S
O128 U126 2.458 . S
O128 C129 1.286 . S
C129 U126 2.984 . S
C129 O127 1.353 . S
C129 O128 1.286 . S
C129 C131 1.363 . S
C130 C120 1.465 . S
C130 U126 2.847 . S
C130 O144 1.249 . S
C130 O145 1.202 . S
C131 C129 1.363 . S
C131 C133 1.408 . S
C131 C136 1.342 . S
C132 C133 1.310 . S
C132 C135 1.461 . S
C132 H152 0.932 . S
C133 C131 1.408 . S
C133 C132 1.310 . S
C133 H153 0.930 . S
C134 C135 1.474 . S
C134 C136 1.285 . S
C134 H154 0.929 . S
C135 C132 1.461 . S
C135 C134 1.474 . S
C136 C131 1.342 . S
C136 C134 1.285 . S
C136 H155 0.930 . S
C137 C140 1.424 . S
C137 C142 1.245 . S
C137 C143 1.428 . S
C138 C141 1.260 . S
C138 C142 1.477 . S
C138 H156 0.932 . S
C139 C140 1.384 . S
C139 C141 1.479 . S
C139 H157 0.929 . S
C140 C137 1.424 . S
C140 C139 1.384 . S
C140 H158 0.928 . S
C141 C138 1.260 . S
C141 C139 1.479 . S
C142 C137 1.245 . S
C142 C138 1.477 . S
C142 H159 0.932 . S
C143 U126 2.882 . S
C143 C137 1.428 . S
C143 O146 1.301 . S
C143 O147 1.282 . S
O144 U126 2.441 . S
O144 C130 1.249 . S
O145 U126 2.420 . S
O145 C130 1.202 . S
O146 U126 2.455 . S
O146 C143 1.301 . S
O147 U126 2.449 . S
O147 C143 1.282 . S
H148 C121 0.931 . S
H149 C123 0.929 . S
H150 C124 0.930 . S
H151 C125 0.931 . S
H152 C132 0.932 . S
H153 C133 0.930 . S
H154 C134 0.929 . S
H155 C136 0.930 . S
H156 C138 0.932 . S
H157 C139 0.929 . S
H158 C140 0.928 . S
H159 C142 0.932 . S
C160 C161 1.264 . S
C160 C165 1.479 . S
C160 C170 1.465 . S
C161 C160 1.264 . S
C161 C163 1.339 . S
C161 H188 0.931 . S
C162 C163 1.395 . S
C162 C164 1.327 . S
C163 C161 1.339 . S
C163 C162 1.395 . S
C163 H189 0.929 . S
C164 C162 1.327 . S
C164 C165 1.418 . S
C164 H190 0.911 1_455 S
C165 C160 1.479 . S
C165 C164 1.418 . S
C165 H191 0.931 . S
U166 O167 2.454 . S
U166 O168 2.458 . S
U166 C169 2.984 . S
U166 C170 2.847 . S
U166 C183 2.882 . S
U166 O184 2.441 . S
U166 O185 2.420 . S
U166 O186 2.455 . S
U166 O187 2.449 . S
O167 U166 2.454 . S
O167 C169 1.353 . S
O168 U166 2.458 . S
O168 C169 1.286 . S
C169 U166 2.984 . S
C169 O167 1.353 . S
C169 O168 1.286 . S
C169 C171 1.363 . S
C170 C160 1.465 . S
C170 U166 2.847 . S
C170 O184 1.249 . S
C170 O185 1.202 . S
C171 C169 1.363 . S
C171 C173 1.408 . S
C171 C176 1.342 . S
C172 C173 1.310 . S
C172 C175 1.461 . S
C172 H192 0.932 . S
C173 C171 1.408 . S
C173 C172 1.310 . S
C173 H193 0.930 . S
C174 C175 1.474 . S
C174 C176 1.285 . S
C174 H194 0.929 . S
C175 C172 1.461 . S
C175 C174 1.474 . S
C176 C171 1.342 . S
C176 C174 1.285 . S
C176 H195 0.930 . S
C177 C180 1.424 . S
C177 C182 1.245 . S
C177 C183 1.428 . S
C178 C181 1.269 . S
C178 C182 1.477 . S
C178 H196 0.932 . S
C179 C180 1.384 1_545 S
C179 C181 1.476 1_545 S
C179 H197 0.929 . S
C180 C177 1.424 . S
C180 C179 1.384 1_565 S
C180 H198 0.928 . S
C181 C178 1.269 . S
C181 C179 1.476 1_565 S
C182 C177 1.245 . S
C182 C178 1.477 . S
C182 H199 0.932 . S
C183 U166 2.882 . S
C183 C177 1.428 . S
C183 O186 1.301 . S
C183 O187 1.282 . S
O184 U166 2.441 . S
O184 C170 1.249 . S
O185 U166 2.420 . S
O185 C170 1.202 . S
O186 U166 2.455 . S
O186 C183 1.301 . S
O187 U166 2.449 . S
O187 C183 1.282 . S
H188 C161 0.931 . S
H189 C163 0.929 . S
H190 C164 0.911 1_655 S
H191 C165 0.931 . S
H192 C172 0.932 . S
H193 C173 0.930 . S
H194 C174 0.929 . S
H195 C176 0.930 . S
H196 C178 0.932 . S
H197 C179 0.929 . S
H198 C180 0.928 . S
H199 C182 0.932 . S
C200 C201 1.264 . S
C200 C205 1.479 . S
C200 C210 1.465 . S
C201 C200 1.264 . S
C201 C203 1.339 . S
C201 H228 0.931 . S
C202 C203 1.395 . S
C202 C204 1.320 . S
C203 C201 1.339 . S
C203 C202 1.395 . S
C203 H229 0.929 . S
C204 C202 1.320 . S
C204 C205 1.405 . S
C204 H230 0.930 . S
C205 C200 1.479 . S
C205 C204 1.405 . S
C205 H231 0.931 . S
U206 O207 2.454 . S
U206 O208 2.458 . S
U206 C209 2.984 . S
U206 C210 2.847 . S
U206 C223 2.882 . S
U206 O224 2.441 . S
U206 O225 2.420 . S
U206 O226 2.455 . S
U206 O227 2.449 . S
O207 U206 2.454 . S
O207 C209 1.353 . S
O208 U206 2.458 . S
O208 C209 1.286 . S
C209 U206 2.984 . S
C209 O207 1.353 . S
C209 O208 1.286 . S
C209 C211 1.363 . S
C210 C200 1.465 . S
C210 U206 2.847 . S
C210 O224 1.249 . S
C210 O225 1.202 . S
C211 C209 1.363 . S
C211 C213 1.408 . S
C211 C216 1.342 . S
C212 C213 1.310 . S
C212 C215 1.461 . S
C212 H232 0.932 . S
C213 C211 1.408 . S
C213 C212 1.310 . S
C213 H233 0.930 . S
C214 C215 1.474 . S
C214 C216 1.285 . S
C214 H234 0.929 . S
C215 C212 1.461 . S
C215 C214 1.474 . S
C216 C211 1.342 . S
C216 C214 1.285 . S
C216 H235 0.930 . S
C217 C220 1.424 . S
C217 C222 1.245 . S
C217 C223 1.428 . S
C218 C221 1.260 . S
C218 C222 1.477 . S
C218 H236 0.932 . S
C219 C220 1.384 . S
C219 C221 1.479 . S
C219 H237 0.929 . S
C220 C217 1.424 . S
C220 C219 1.384 . S
C220 H238 0.928 . S
C221 C218 1.260 . S
C221 C219 1.479 . S
C222 C217 1.245 . S
C222 C218 1.477 . S
C222 H239 0.932 . S
C223 U206 2.882 . S
C223 C217 1.428 . S
C223 O226 1.301 . S
C223 O227 1.282 . S
O224 U206 2.441 . S
O224 C210 1.249 . S
O225 U206 2.420 . S
O225 C210 1.202 . S
O226 U206 2.455 . S
O226 C223 1.301 . S
O227 U206 2.449 . S
O227 C223 1.282 . S
H228 C201 0.931 . S
H229 C203 0.929 . S
H230 C204 0.930 . S
H231 C205 0.931 . S
H232 C212 0.932 . S
H233 C213 0.930 . S
H234 C214 0.929 . S
H235 C216 0.930 . S
H236 C218 0.932 . S
H237 C219 0.929 . S
H238 C220 0.928 . S
H239 C222 0.932 . S
C240 C241 1.264 . S
C240 C245 1.479 . S
C240 C250 1.465 . S
C241 C240 1.264 . S
C241 C243 1.339 . S
C241 H268 0.931 . S
C242 C243 1.395 . S
C242 C244 1.320 . S
C243 C241 1.339 . S
C243 C242 1.395 . S
C243 H269 0.929 . S
C244 C242 1.320 . S
C244 C245 1.405 . S
C244 H270 0.930 . S
C245 C240 1.479 . S
C245 C244 1.405 . S
C245 H271 0.931 . S
U246 O247 2.454 . S
U246 O248 2.458 . S
U246 C249 2.984 . S
U246 C250 2.847 . S
U246 C263 2.882 . S
U246 O264 2.441 . S
U246 O265 2.420 . S
U246 O266 2.455 . S
U246 O267 2.449 . S
O247 U246 2.454 . S
O247 C249 1.353 . S
O248 U246 2.458 . S
O248 C249 1.286 . S
C249 U246 2.984 . S
C249 O247 1.353 . S
C249 O248 1.286 . S
C249 C251 1.363 . S
C250 C240 1.465 . S
C250 U246 2.847 . S
C250 O264 1.249 . S
C250 O265 1.202 . S
C251 C249 1.363 . S
C251 C253 1.408 . S
C251 C256 1.342 . S
C252 C253 1.310 . S
C252 C255 1.461 . S
C252 H272 0.932 . S
C253 C251 1.408 . S
C253 C252 1.310 . S
C253 H273 0.930 . S
C254 C255 1.474 . S
C254 C256 1.285 . S
C254 H274 0.929 . S
C255 C252 1.461 . S
C255 C254 1.474 . S
C256 C251 1.342 . S
C256 C254 1.285 . S
C256 H275 0.930 . S
C257 C260 1.430 . S
C257 C262 1.245 . S
C257 C263 1.428 . S
C258 C261 1.260 1_655 S
C258 C262 1.477 . S
C258 H276 0.932 . S
C259 C260 1.377 1_455 S
C259 C261 1.479 . S
C259 H277 0.929 . S
C260 C257 1.430 . S
C260 C259 1.377 1_655 S
C260 H278 0.928 1_655 S
C261 C258 1.260 1_455 S
C261 C259 1.479 . S
C262 C257 1.245 . S
C262 C258 1.477 . S
C262 H279 0.932 . S
C263 U246 2.882 . S
C263 C257 1.428 . S
C263 O266 1.301 . S
C263 O267 1.282 . S
O264 U246 2.441 . S
O264 C250 1.249 . S
O265 U246 2.420 . S
O265 C250 1.202 . S
O266 U246 2.455 . S
O266 C263 1.301 . S
O267 U246 2.449 . S
O267 C263 1.282 . S
H268 C241 0.931 . S
H269 C243 0.929 . S
H270 C244 0.930 . S
H271 C245 0.931 . S
H272 C252 0.932 . S
H273 C253 0.930 . S
H274 C254 0.929 . S
H275 C256 0.930 . S
H276 C258 0.932 . S
H277 C259 0.929 . S
H278 C260 0.928 1_455 S
H279 C262 0.932 . S
C280 C281 1.264 . S
C280 C285 1.479 . S
C280 C290 1.465 . S
C281 C280 1.264 . S
C281 C283 1.339 . S
C281 H308 0.931 . S
C282 C283 1.395 . S
C282 C284 1.320 . S
C283 C281 1.339 . S
C283 C282 1.395 . S
C283 H309 0.929 . S
C284 C282 1.320 . S
C284 C285 1.405 . S
C284 H310 0.930 . S
C285 C280 1.479 . S
C285 C284 1.405 . S
C285 H311 0.931 . S
U286 O287 2.454 . S
U286 O288 2.458 . S
U286 C289 2.984 . S
U286 C290 2.847 . S
U286 C303 2.882 . S
U286 O304 2.441 . S
U286 O305 2.420 . S
U286 O306 2.455 . S
U286 O307 2.449 . S
O287 U286 2.454 . S
O287 C289 1.353 . S
O288 U286 2.458 . S
O288 C289 1.286 . S
C289 U286 2.984 . S
C289 O287 1.353 . S
C289 O288 1.286 . S
C289 C291 1.363 . S
C290 C280 1.465 . S
C290 U286 2.847 . S
C290 O304 1.249 . S
C290 O305 1.202 . S
C291 C289 1.363 . S
C291 C293 1.408 . S
C291 C296 1.342 . S
C292 C293 1.310 . S
C292 C295 1.461 . S
C292 H312 0.932 . S
C293 C291 1.408 . S
C293 C292 1.310 . S
C293 H313 0.930 . S
C294 C295 1.474 . S
C294 C296 1.285 . S
C294 H314 0.929 . S
C295 C292 1.461 . S
C295 C294 1.474 . S
C296 C291 1.342 . S
C296 C294 1.285 . S
C296 H315 0.930 . S
C297 C300 1.424 . S
C297 C302 1.245 . S
C297 C303 1.428 . S
C298 C301 1.260 . S
C298 C302 1.477 . S
C298 H316 0.932 . S
C299 C300 1.384 . S
C299 C301 1.479 . S
C299 H317 0.929 . S
C300 C297 1.424 . S
C300 C299 1.384 . S
C300 H318 0.928 . S
C301 C298 1.260 . S
C301 C299 1.479 . S
C302 C297 1.245 . S
C302 C298 1.477 . S
C302 H319 0.932 . S
C303 U286 2.882 . S
C303 C297 1.428 . S
C303 O306 1.301 . S
C303 O307 1.282 . S
O304 U286 2.441 . S
O304 C290 1.249 . S
O305 U286 2.420 . S
O305 C290 1.202 . S
O306 U286 2.455 . S
O306 C303 1.301 . S
O307 U286 2.449 . S
O307 C303 1.282 . S
H308 C281 0.931 . S
H309 C283 0.929 . S
H310 C284 0.930 . S
H311 C285 0.931 . S
H312 C292 0.932 . S
H313 C293 0.930 . S
H314 C294 0.929 . S
H315 C296 0.930 . S
H316 C298 0.932 . S
H317 C299 0.929 . S
H318 C300 0.928 . S
H319 C302 0.932 . S
C320 C321 1.264 . S
C320 C325 1.479 . S
C320 C330 1.465 . S
C321 C320 1.264 . S
C321 C323 1.339 . S
C321 H348 0.931 . S
C322 C323 1.395 . S
C322 C324 1.320 . S
C323 C321 1.339 . S
C323 C322 1.395 . S
C323 H349 0.929 . S
C324 C322 1.320 . S
C324 C325 1.405 . S
C324 H350 0.930 . S
C325 C320 1.479 . S
C325 C324 1.405 . S
C325 H351 0.931 . S
U326 O327 2.454 . S
U326 O328 2.458 . S
U326 C329 2.984 . S
U326 C330 2.847 . S
U326 C343 2.882 . S
U326 O344 2.441 . S
U326 O345 2.420 . S
U326 O346 2.455 . S
U326 O347 2.449 . S
O327 U326 2.454 . S
O327 C329 1.353 . S
O328 U326 2.458 . S
O328 C329 1.286 . S
C329 U326 2.984 . S
C329 O327 1.353 . S
C329 O328 1.286 . S
C329 C331 1.363 . S
C330 C320 1.465 . S
C330 U326 2.847 . S
C330 O344 1.249 . S
C330 O345 1.202 . S
C331 C329 1.363 . S
C331 C333 1.408 . S
C331 C336 1.342 . S
C332 C333 1.310 . S
C332 C335 1.461 . S
C332 H352 0.932 . S
C333 C331 1.408 . S
C333 C332 1.310 . S
C333 H353 0.930 . S
C334 C335 1.474 . S
C334 C336 1.285 . S
C334 H354 0.929 . S
C335 C332 1.461 . S
C335 C334 1.474 . S
C336 C331 1.342 . S
C336 C334 1.285 . S
C336 H355 0.930 . S
C337 C340 1.424 . S
C337 C342 1.245 . S
C337 C343 1.428 . S
C338 C341 1.260 . S
C338 C342 1.477 . S
C338 H356 0.932 . S
C339 C340 1.384 . S
C339 C341 1.479 . S
C339 H357 0.929 . S
C340 C337 1.424 . S
C340 C339 1.384 . S
C340 H358 0.928 . S
C341 C338 1.260 . S
C341 C339 1.479 . S
C342 C337 1.245 . S
C342 C338 1.477 . S
C342 H359 0.932 . S
C343 U326 2.882 . S
C343 C337 1.428 . S
C343 O346 1.301 . S
C343 O347 1.282 . S
O344 U326 2.441 . S
O344 C330 1.249 . S
O345 U326 2.420 . S
O345 C330 1.202 . S
O346 U326 2.455 . S
O346 C343 1.301 . S
O347 U326 2.449 . S
O347 C343 1.282 . S
H348 C321 0.931 . S
H349 C323 0.929 . S
H350 C324 0.930 . S
H351 C325 0.931 . S
H352 C332 0.932 . S
H353 C333 0.930 . S
H354 C334 0.929 . S
H355 C336 0.930 . S
H356 C338 0.932 . S
H357 C339 0.929 . S
H358 C340 0.928 . S
H359 C342 0.932 . S
C360 C361 1.264 . S
C360 C365 1.479 . S
C360 C370 1.465 . S
C361 C360 1.264 . S
C361 C363 1.339 . S
C361 H388 0.931 . S
C362 C363 1.395 . S
C362 C364 1.320 . S
C363 C361 1.339 . S
C363 C362 1.395 . S
C363 H389 0.929 . S
C364 C362 1.320 . S
C364 C365 1.405 . S
C364 H390 0.930 . S
C365 C360 1.479 . S
C365 C364 1.405 . S
C365 H391 0.931 . S
U366 O367 2.454 . S
U366 O368 2.458 . S
U366 C369 2.984 . S
U366 C370 2.847 . S
U366 C383 2.882 . S
U366 O384 2.441 . S
U366 O385 2.420 . S
U366 O386 2.455 . S
U366 O387 2.449 . S
O367 U366 2.454 . S
O367 C369 1.353 . S
O368 U366 2.458 . S
O368 C369 1.286 . S
C369 U366 2.984 . S
C369 O367 1.353 . S
C369 O368 1.286 . S
C369 C371 1.363 . S
C370 C360 1.465 . S
C370 U366 2.847 . S
C370 O384 1.249 . S
C370 O385 1.202 . S
C371 C369 1.363 . S
C371 C373 1.408 . S
C371 C376 1.342 . S
C372 C373 1.310 . S
C372 C375 1.461 1_565 S
C372 H392 0.932 . S
C373 C371 1.408 . S
C373 C372 1.310 . S
C373 H393 0.930 . S
C374 C375 1.474 . S
C374 C376 1.285 1_545 S
C374 H394 0.929 . S
C375 C372 1.461 1_545 S
C375 C374 1.474 . S
C376 C371 1.342 . S
C376 C374 1.285 1_565 S
C376 H395 0.930 . S
C377 C380 1.424 . S
C377 C382 1.245 . S
C377 C383 1.428 . S
C378 C381 1.260 . S
C378 C382 1.477 . S
C378 H396 0.932 . S
C379 C380 1.384 . S
C379 C381 1.479 . S
C379 H397 0.929 . S
C380 C377 1.424 . S
C380 C379 1.384 . S
C380 H398 0.928 . S
C381 C378 1.260 . S
C381 C379 1.479 . S
C382 C377 1.245 . S
C382 C378 1.477 . S
C382 H399 0.932 . S
C383 U366 2.882 . S
C383 C377 1.428 . S
C383 O386 1.301 . S
C383 O387 1.282 . S
O384 U366 2.441 . S
O384 C370 1.249 . S
O385 U366 2.420 . S
O385 C370 1.202 . S
O386 U366 2.455 . S
O386 C383 1.301 . S
O387 U366 2.449 . S
O387 C383 1.282 . S
H388 C361 0.931 . S
H389 C363 0.929 . S
H390 C364 0.930 . S
H391 C365 0.931 . S
H392 C372 0.932 . S
H393 C373 0.930 . S
H394 C374 0.929 . S
H395 C376 0.930 . S
H396 C378 0.932 . S
H397 C379 0.929 . S
H398 C380 0.928 . S
H399 C382 0.932 . S
C400 C401 1.264 . S
C400 C405 1.479 . S
C400 C410 1.465 . S
C401 C400 1.264 . S
C401 C403 1.339 . S
C401 H428 0.931 . S
C402 C403 1.395 . S
C402 C404 1.320 . S
C403 C401 1.339 . S
C403 C402 1.395 . S
C403 H429 0.929 . S
C404 C402 1.320 . S
C404 C405 1.405 . S
C404 H430 0.930 . S
C405 C400 1.479 . S
C405 C404 1.405 . S
C405 H431 0.931 . S
U406 O407 2.454 . S
U406 O408 2.458 . S
U406 C409 2.984 . S
U406 C410 2.847 . S
U406 C423 2.882 . S
U406 O424 2.441 . S
U406 O425 2.420 . S
U406 O426 2.455 . S
U406 O427 2.449 . S
O407 U406 2.454 . S
O407 C409 1.353 . S
O408 U406 2.458 . S
O408 C409 1.286 . S
C409 U406 2.984 . S
C409 O407 1.353 . S
C409 O408 1.286 . S
C409 C411 1.363 . S
C410 C400 1.465 . S
C410 U406 2.847 . S
C410 O424 1.249 . S
C410 O425 1.202 . S
C411 C409 1.363 . S
C411 C413 1.408 . S
C411 C416 1.342 . S
C412 C413 1.310 . S
C412 C415 1.461 . S
C412 H432 0.932 . S
C413 C411 1.408 . S
C413 C412 1.310 . S
C413 H433 0.930 . S
C414 C415 1.474 . S
C414 C416 1.285 . S
C414 H434 0.929 . S
C415 C412 1.461 . S
C415 C414 1.474 . S
C416 C411 1.342 . S
C416 C414 1.285 . S
C416 H435 0.930 . S
C417 C420 1.424 . S
C417 C422 1.245 . S
C417 C423 1.428 . S
C418 C421 1.260 . S
C418 C422 1.477 . S
C418 H436 0.932 . S
C419 C420 1.384 . S
C419 C421 1.479 . S
C419 H437 0.929 . S
C420 C417 1.424 . S
C420 C419 1.384 . S
C420 H438 0.928 . S
C421 C418 1.260 . S
C421 C419 1.479 . S
C422 C417 1.245 . S
C422 C418 1.477 . S
C422 H439 0.932 . S
C423 U406 2.882 . S
C423 C417 1.428 . S
C423 O426 1.301 . S
C423 O427 1.282 . S
O424 U406 2.441 . S
O424 C410 1.249 . S
O425 U406 2.420 . S
O425 C410 1.202 . S
O426 U406 2.455 . S
O426 C423 1.301 . S
O427 U406 2.449 . S
O427 C423 1.282 . S
H428 C401 0.931 . S
H429 C403 0.929 . S
H430 C404 0.930 . S
H431 C405 0.931 . S
H432 C412 0.932 . S
H433 C413 0.930 . S
H434 C414 0.929 . S
H435 C416 0.930 . S
H436 C418 0.932 . S
H437 C419 0.929 . S
H438 C420 0.928 . S
H439 C422 0.932 . S
C440 C441 1.264 . S
C440 C445 1.479 . S
C440 C450 1.465 . S
C441 C440 1.264 . S
C441 C443 1.339 . S
C441 H468 0.931 . S
C442 C443 1.395 . S
C442 C444 1.320 . S
C443 C441 1.339 . S
C443 C442 1.395 . S
C443 H469 0.929 . S
C444 C442 1.320 . S
C444 C445 1.405 . S
C444 H470 0.930 . S
C445 C440 1.479 . S
C445 C444 1.405 . S
C445 H471 0.931 . S
U446 O447 2.454 . S
U446 O448 2.458 . S
U446 C449 2.984 . S
U446 C450 2.847 . S
U446 C463 2.882 . S
U446 O464 2.441 . S
U446 O465 2.420 . S
U446 O466 2.455 . S
U446 O467 2.449 . S
O447 U446 2.454 . S
O447 C449 1.353 . S
O448 U446 2.458 . S
O448 C449 1.286 . S
C449 U446 2.984 . S
C449 O447 1.353 . S
C449 O448 1.286 . S
C449 C451 1.363 . S
C450 C440 1.465 . S
C450 U446 2.847 . S
C450 O464 1.249 . S
C450 O465 1.202 . S
C451 C449 1.363 . S
C451 C453 1.408 . S
C451 C456 1.342 . S
C452 C453 1.310 . S
C452 C455 1.461 . S
C452 H472 0.932 . S
C453 C451 1.408 . S
C453 C452 1.310 . S
C453 H473 0.930 . S
C454 C455 1.474 . S
C454 C456 1.285 . S
C454 H474 0.929 . S
C455 C452 1.461 . S
C455 C454 1.474 . S
C456 C451 1.342 . S
C456 C454 1.285 . S
C456 H475 0.930 . S
C457 C460 1.424 . S
C457 C462 1.245 . S
C457 C463 1.428 . S
C458 C461 1.260 . S
C458 C462 1.477 . S
C458 H476 0.932 . S
C459 C460 1.384 . S
C459 C461 1.479 . S
C459 H477 0.929 . S
C460 C457 1.424 . S
C460 C459 1.384 . S
C460 H478 0.928 . S
C461 C458 1.260 . S
C461 C459 1.479 . S
C462 C457 1.245 . S
C462 C458 1.477 . S
C462 H479 0.932 . S
C463 U446 2.882 . S
C463 C457 1.428 . S
C463 O466 1.301 . S
C463 O467 1.282 . S
O464 U446 2.441 . S
O464 C450 1.249 . S
O465 U446 2.420 . S
O465 C450 1.202 . S
O466 U446 2.455 . S
O466 C463 1.301 . S
O467 U446 2.449 . S
O467 C463 1.282 . S
H468 C441 0.931 . S
H469 C443 0.929 . S
H470 C444 0.930 . S
H471 C445 0.931 . S
H472 C452 0.932 . S
H473 C453 0.930 . S
H474 C454 0.929 . S
H475 C456 0.930 . S
H476 C458 0.932 . S
H477 C459 0.929 . S
H478 C460 0.928 . S
H479 C462 0.932 . S
C480 C481 1.264 . S
C480 C485 1.479 . S
C480 C490 1.465 . S
C481 C480 1.264 . S
C481 C483 1.339 . S
C481 H508 0.931 . S
C482 C483 1.395 . S
C482 C484 1.320 . S
C483 C481 1.339 . S
C483 C482 1.395 . S
C483 H509 0.929 . S
C484 C482 1.320 . S
C484 C485 1.405 . S
C484 H510 0.930 . S
C485 C480 1.479 . S
C485 C484 1.405 . S
C485 H511 0.931 . S
U486 O487 2.454 . S
U486 O488 2.458 . S
U486 C489 2.984 . S
U486 C490 2.847 . S
U486 C503 2.882 . S
U486 O504 2.441 . S
U486 O505 2.420 . S
U486 O506 2.455 . S
U486 O507 2.449 . S
O487 U486 2.454 . S
O487 C489 1.353 . S
O488 U486 2.458 . S
O488 C489 1.286 . S
C489 U486 2.984 . S
C489 O487 1.353 . S
C489 O488 1.286 . S
C489 C491 1.363 . S
C490 C480 1.465 . S
C490 U486 2.847 . S
C490 O504 1.249 . S
C490 O505 1.202 . S
C491 C489 1.363 . S
C491 C493 1.408 . S
C491 C496 1.342 . S
C492 C493 1.310 . S
C492 C495 1.461 . S
C492 H512 0.932 . S
C493 C491 1.408 . S
C493 C492 1.310 . S
C493 H513 0.930 . S
C494 C495 1.474 . S
C494 C496 1.285 . S
C494 H514 0.929 . S
C495 C492 1.461 . S
C495 C494 1.474 . S
C496 C491 1.342 . S
C496 C494 1.285 . S
C496 H515 0.930 . S
C497 C500 1.424 . S
C497 C502 1.245 . S
C497 C503 1.428 . S
C498 C501 1.260 . S
C498 C502 1.477 . S
C498 H516 0.932 . S
C499 C500 1.384 . S
C499 C501 1.479 . S
C499 H517 0.929 . S
C500 C497 1.424 . S
C500 C499 1.384 . S
C500 H518 0.928 . S
C501 C498 1.260 . S
C501 C499 1.479 . S
C502 C497 1.245 . S
C502 C498 1.477 . S
C502 H519 0.932 . S
C503 U486 2.882 . S
C503 C497 1.428 . S
C503 O506 1.301 . S
C503 O507 1.282 . S
O504 U486 2.441 . S
O504 C490 1.249 . S
O505 U486 2.420 . S
O505 C490 1.202 . S
O506 U486 2.455 . S
O506 C503 1.301 . S
O507 U486 2.449 . S
O507 C503 1.282 . S
H508 C481 0.931 . S
H509 C483 0.929 . S
H510 C484 0.930 . S
H511 C485 0.931 . S
H512 C492 0.932 . S
H513 C493 0.930 . S
H514 C494 0.929 . S
H515 C496 0.930 . S
H516 C498 0.932 . S
H517 C499 0.929 . S
H518 C500 0.928 . S
H519 C502 0.932 . S
C520 C521 1.264 . S
C520 C525 1.479 . S
C520 C530 1.465 . S
C521 C520 1.264 . S
C521 C523 1.339 . S
C521 H548 0.931 . S
C522 C523 1.395 . S
C522 C524 1.320 . S
C523 C521 1.339 . S
C523 C522 1.395 . S
C523 H549 0.929 . S
C524 C522 1.320 . S
C524 C525 1.405 . S
C524 H550 0.930 . S
C525 C520 1.479 . S
C525 C524 1.405 . S
C525 H551 0.931 . S
U526 O527 2.454 . S
U526 O528 2.458 . S
U526 C529 2.984 . S
U526 C530 2.847 . S
U526 C543 2.882 . S
U526 O544 2.441 . S
U526 O545 2.420 . S
U526 O546 2.455 . S
U526 O547 2.449 . S
O527 U526 2.454 . S
O527 C529 1.353 . S
O528 U526 2.458 . S
O528 C529 1.286 . S
C529 U526 2.984 . S
C529 O527 1.353 . S
C529 O528 1.286 . S
C529 C531 1.363 . S
C530 C520 1.465 . S
C530 U526 2.847 . S
C530 O544 1.249 . S
C530 O545 1.202 . S
C531 C529 1.363 . S
C531 C533 1.408 . S
C531 C536 1.342 . S
C532 C533 1.310 . S
C532 C535 1.461 1_556 S
C532 H552 0.932 . S
C533 C531 1.408 . S
C533 C532 1.310 . S
C533 H553 0.930 . S
C534 C535 1.474 . S
C534 C536 1.285 1_554 S
C534 H554 0.929 . S
C535 C532 1.461 1_554 S
C535 C534 1.474 . S
C536 C531 1.342 . S
C536 C534 1.285 1_556 S
C536 H555 0.930 . S
C537 C540 1.424 . S
C537 C542 1.245 . S
C537 C543 1.428 . S
C538 C541 1.260 . S
C538 C542 1.477 . S
C538 H556 0.932 . S
C539 C540 1.384 . S
C539 C541 1.479 . S
C539 H557 0.929 . S
C540 C537 1.424 . S
C540 C539 1.384 . S
C540 H558 0.928 . S
C541 C538 1.260 . S
C541 C539 1.479 . S
C542 C537 1.245 . S
C542 C538 1.477 . S
C542 H559 0.932 . S
C543 U526 2.882 . S
C543 C537 1.428 . S
C543 O546 1.301 . S
C543 O547 1.282 . S
O544 U526 2.441 . S
O544 C530 1.249 . S
O545 U526 2.420 . S
O545 C530 1.202 . S
O546 U526 2.455 . S
O546 C543 1.301 . S
O547 U526 2.449 . S
O547 C543 1.282 . S
H548 C521 0.931 . S
H549 C523 0.929 . S
H550 C524 0.930 . S
H551 C525 0.931 . S
H552 C532 0.932 . S
H553 C533 0.930 . S
H554 C534 0.929 . S
H555 C536 0.930 . S
H556 C538 0.932 . S
H557 C539 0.929 . S
H558 C540 0.928 . S
H559 C542 0.932 . S
C560 C561 1.264 . S
C560 C565 1.479 . S
C560 C570 1.465 . S
C561 C560 1.264 . S
C561 C563 1.339 . S
C561 H588 0.931 . S
C562 C563 1.395 . S
C562 C564 1.320 . S
C563 C561 1.339 . S
C563 C562 1.395 . S
C563 H589 0.929 . S
C564 C562 1.320 . S
C564 C565 1.405 . S
C564 H590 0.930 . S
C565 C560 1.479 . S
C565 C564 1.405 . S
C565 H591 0.931 . S
U566 O567 2.454 . S
U566 O568 2.458 . S
U566 C569 2.984 . S
U566 C570 2.847 . S
U566 C583 2.882 . S
U566 O584 2.441 . S
U566 O585 2.420 . S
U566 O586 2.455 . S
U566 O587 2.449 . S
O567 U566 2.454 . S
O567 C569 1.353 . S
O568 U566 2.458 . S
O568 C569 1.286 . S
C569 U566 2.984 . S
C569 O567 1.353 . S
C569 O568 1.286 . S
C569 C571 1.363 . S
C570 C560 1.465 . S
C570 U566 2.847 . S
C570 O584 1.249 . S
C570 O585 1.202 . S
C571 C569 1.363 . S
C571 C573 1.408 . S
C571 C576 1.342 . S
C572 C573 1.310 . S
C572 C575 1.461 . S
C572 H592 0.932 . S
C573 C571 1.408 . S
C573 C572 1.310 . S
C573 H593 0.930 . S
C574 C575 1.474 . S
C574 C576 1.285 . S
C574 H594 0.929 . S
C575 C572 1.461 . S
C575 C574 1.474 . S
C576 C571 1.342 . S
C576 C574 1.285 . S
C576 H595 0.930 . S
C577 C580 1.424 . S
C577 C582 1.245 . S
C577 C583 1.428 . S
C578 C581 1.260 . S
C578 C582 1.477 . S
C578 H596 0.932 . S
C579 C580 1.384 . S
C579 C581 1.479 . S
C579 H597 0.929 . S
C580 C577 1.424 . S
C580 C579 1.384 . S
C580 H598 0.928 . S
C581 C578 1.260 . S
C581 C579 1.479 . S
C582 C577 1.245 . S
C582 C578 1.477 . S
C582 H599 0.932 . S
C583 U566 2.882 . S
C583 C577 1.428 . S
C583 O586 1.301 . S
C583 O587 1.282 . S
O584 U566 2.441 . S
O584 C570 1.249 . S
O585 U566 2.420 . S
O585 C570 1.202 . S
O586 U566 2.455 . S
O586 C583 1.301 . S
O587 U566 2.449 . S
O587 C583 1.282 . S
H588 C561 0.931 . S
H589 C563 0.929 . S
H590 C564 0.930 . S
H591 C565 0.931 . S
H592 C572 0.932 . S
H593 C573 0.930 . S
H594 C574 0.929 . S
H595 C576 0.930 . S
H596 C578 0.932 . S
H597 C579 0.929 . S
H598 C580 0.928 . S
H599 C582 0.932 . S
C600 C601 1.264 . S
C600 C605 1.479 . S
C600 C610 1.465 . S
C601 C600 1.264 . S
C601 C603 1.339 . S
C601 H628 0.931 . S
C602 C603 1.417 . S
C602 C604 1.313 1_556 S
C603 C601 1.339 . S
C603 C602 1.417 . S
C603 H629 0.929 . S
C604 C602 1.313 1_554 S
C604 C605 1.405 1_554 S
C604 H630 0.930 . S
C605 C600 1.479 . S
C605 C604 1.405 1_556 S
C605 H631 0.931 . S
U606 O607 2.454 . S
U606 O608 2.458 . S
U606 C609 2.984 . S
U606 C610 2.847 . S
U606 C623 2.882 . S
U606 O624 2.441 . S
U606 O625 2.420 . S
U606 O626 2.455 . S
U606 O627 2.449 . S
O607 U606 2.454 . S
O607 C609 1.353 . S
O608 U606 2.458 . S
O608 C609 1.286 . S
C609 U606 2.984 . S
C609 O607 1.353 . S
C609 O608 1.286 . S
C609 C611 1.363 . S
C610 C600 1.465 . S
C610 U606 2.847 . S
C610 O624 1.249 . S
C610 O625 1.202 . S
C611 C609 1.363 . S
C611 C613 1.408 . S
C611 C616 1.342 . S
C612 C613 1.310 . S
C612 C615 1.461 . S
C612 H632 0.932 . S
C613 C611 1.408 . S
C613 C612 1.310 . S
C613 H633 0.930 . S
C614 C615 1.475 . S
C614 C616 1.293 . S
C614 H634 0.922 1_545 S
C615 C612 1.461 . S
C615 C614 1.475 . S
C616 C611 1.342 . S
C616 C614 1.293 . S
C616 H635 0.930 . S
C617 C620 1.424 . S
C617 C622 1.245 . S
C617 C623 1.428 . S
C618 C621 1.260 . S
C618 C622 1.477 . S
C618 H636 0.932 . S
C619 C620 1.384 . S
C619 C621 1.479 . S
C619 H637 0.929 . S
C620 C617 1.424 . S
C620 C619 1.384 . S
C620 H638 0.928 . S
C621 C618 1.260 . S
C621 C619 1.479 . S
C622 C617 1.245 . S
C622 C618 1.477 . S
C622 H639 0.932 . S
C623 U606 2.882 . S
C623 C617 1.428 . S
C623 O626 1.301 . S
C623 O627 1.282 . S
O624 U606 2.441 . S
O624 C610 1.249 . S
O625 U606 2.420 . S
O625 C610 1.202 . S
O626 U606 2.455 . S
O626 C623 1.301 . S
O627 U606 2.449 . S
O627 C623 1.282 . S
H628 C601 0.931 . S
H629 C603 0.929 . S
H630 C604 0.930 . S
H631 C605 0.931 . S
H632 C612 0.932 . S
H633 C613 0.930 . S
H634 C614 0.922 1_565 S
H635 C616 0.930 . S
H636 C618 0.932 . S
H637 C619 0.929 . S
H638 C620 0.928 . S
H639 C622 0.932 . S
Zn640 O643 2.031 . S
Zn640 O645 2.049 1_554 S
Zn640 O650 2.067 1_554 S
Zn641 O642 1.962 . S
Zn641 O644 1.986 . S
Zn641 O646 1.996 . S
Zn641 O649 1.943 1_554 S
O642 Zn641 1.962 . S
O642 C647 1.254 . S
O643 Zn640 2.031 . S
O643 C647 1.269 . S
O644 Zn641 1.986 . S
O644 C651 1.262 . S
O645 Zn640 2.049 1_556 S
O645 C653 1.260 . S
O646 Zn641 1.996 . S
O646 C653 1.257 1_554 S
C647 O642 1.254 . S
C647 O643 1.269 . S
C648 O649 1.249 . S
C648 O650 1.270 . S
O649 Zn641 1.943 1_556 S
O649 C648 1.249 . S
O650 Zn640 2.067 1_556 S
O650 C648 1.270 . S
C651 O644 1.262 . S
C651 O652 1.232 . S
O652 C651 1.232 . S
C653 O645 1.260 . S
C653 O646 1.257 1_556 S
Zn654 O657 2.031 . S
Zn654 O659 2.049 . S
Zn654 O664 2.067 . S
Zn655 O656 1.962 . S
Zn655 O658 1.986 . S
Zn655 O660 1.996 . S
Zn655 O663 1.943 . S
O656 Zn655 1.962 . S
O656 C661 1.254 . S
O657 Zn654 2.031 . S
O657 C661 1.269 . S
O658 Zn655 1.986 . S
O658 C665 1.262 . S
O659 Zn654 2.049 . S
O659 C667 1.260 . S
O660 Zn655 1.996 . S
O660 C667 1.257 . S
C661 O656 1.254 . S
C661 O657 1.269 . S
C662 O663 1.249 . S
C662 O664 1.270 . S
O663 Zn655 1.943 . S
O663 C662 1.249 . S
O664 Zn654 2.067 . S
O664 C662 1.270 . S
C665 O658 1.262 . S
C665 O666 1.232 . S
O666 C665 1.232 . S
C667 O659 1.260 . S
C667 O660 1.257 . S
Zn668 O671 2.031 . S
Zn668 O673 2.049 . S
Zn668 O678 2.067 . S
Zn669 O670 1.962 . S
Zn669 O672 1.986 . S
Zn669 O674 1.996 1_554 S
Zn669 O677 1.943 . S
O670 Zn669 1.962 . S
O670 C675 1.254 . S
O671 Zn668 2.031 . S
O671 C675 1.269 1_556 S
O672 Zn669 1.986 . S
O672 C679 1.262 . S
O673 Zn668 2.049 . S
O673 C681 1.260 . S
O674 Zn669 1.996 1_556 S
O674 C681 1.257 . S
C675 O670 1.254 . S
C675 O671 1.269 1_554 S
C676 O677 1.249 1_556 S
C676 O678 1.270 . S
O677 Zn669 1.943 . S
O677 C676 1.249 1_554 S
O678 Zn668 2.067 . S
O678 C676 1.270 . S
C679 O672 1.262 . S
C679 O680 1.232 . S
O680 C679 1.232 . S
C681 O673 1.260 . S
C681 O674 1.257 . S
Zn682 O685 2.048 . S
Zn682 O687 2.038 1_545 S
Zn682 O692 2.045 1_545 S
Zn683 O684 1.962 . S
Zn683 O686 1.986 . S
Zn683 O688 1.996 . S
Zn683 O691 1.943 1_545 S
O684 Zn683 1.962 . S
O684 C689 1.254 . S
O685 Zn682 2.048 . S
O685 C689 1.269 . S
O686 Zn683 1.986 . S
O686 C693 1.262 . S
O687 Zn682 2.038 1_565 S
O687 C695 1.260 . S
O688 Zn683 1.996 . S
O688 C695 1.257 1_545 S
C689 O684 1.254 . S
C689 O685 1.269 . S
C690 O691 1.249 . S
C690 O692 1.270 . S
O691 Zn683 1.943 1_565 S
O691 C690 1.249 . S
O692 Zn682 2.045 1_565 S
O692 C690 1.270 . S
C693 O686 1.262 . S
C693 O694 1.232 . S
O694 C693 1.232 . S
C695 O687 1.260 . S
C695 O688 1.257 1_565 S
Zn696 O699 2.031 . S
Zn696 O701 2.049 . S
Zn696 O706 2.067 . S
Zn697 O698 1.962 . S
Zn697 O700 1.986 . S
Zn697 O702 1.996 . S
Zn697 O705 1.943 . S
O698 Zn697 1.962 . S
O698 C703 1.254 . S
O699 Zn696 2.031 . S
O699 C703 1.269 . S
O700 Zn697 1.986 . S
O700 C707 1.262 . S
O701 Zn696 2.049 . S
O701 C709 1.260 . S
O702 Zn697 1.996 . S
O702 C709 1.257 . S
C703 O698 1.254 . S
C703 O699 1.269 . S
C704 O705 1.249 . S
C704 O706 1.270 . S
O705 Zn697 1.943 . S
O705 C704 1.249 . S
O706 Zn696 2.067 . S
O706 C704 1.270 . S
C707 O700 1.262 . S
C707 O708 1.232 . S
O708 C707 1.232 . S
C709 O701 1.260 . S
C709 O702 1.257 . S
Zn710 O713 2.031 . S
Zn710 O715 2.049 . S
Zn710 O720 2.067 . S
Zn711 O712 1.962 . S
Zn711 O714 1.986 . S
Zn711 O716 1.996 . S
Zn711 O719 1.943 . S
O712 Zn711 1.962 . S
O712 C717 1.254 . S
O713 Zn710 2.031 . S
O713 C717 1.269 . S
O714 Zn711 1.986 . S
O714 C721 1.262 . S
O715 Zn710 2.049 . S
O715 C723 1.260 . S
O716 Zn711 1.996 . S
O716 C723 1.257 . S
C717 O712 1.254 . S
C717 O713 1.269 . S
C718 O719 1.249 . S
C718 O720 1.270 . S
O719 Zn711 1.943 . S
O719 C718 1.249 . S
O720 Zn710 2.067 . S
O720 C718 1.270 . S
C721 O714 1.262 . S
C721 O722 1.232 . S
O722 C721 1.232 . S
C723 O715 1.260 . S
C723 O716 1.257 . S
Zn724 O727 2.031 . S
Zn724 O729 2.049 . S
Zn724 O734 2.067 . S
Zn725 O726 1.962 . S
Zn725 O728 1.986 . S
Zn725 O730 1.996 . S
Zn725 O733 1.943 . S
O726 Zn725 1.962 . S
O726 C731 1.254 . S
O727 Zn724 2.031 . S
O727 C731 1.269 . S
O728 Zn725 1.986 . S
O728 C735 1.262 . S
O729 Zn724 2.049 . S
O729 C737 1.260 . S
O730 Zn725 1.996 . S
O730 C737 1.257 . S
C731 O726 1.254 . S
C731 O727 1.269 . S
C732 O733 1.249 . S
C732 O734 1.270 . S
O733 Zn725 1.943 . S
O733 C732 1.249 . S
O734 Zn724 2.067 . S
O734 C732 1.270 . S
C735 O728 1.262 . S
C735 O736 1.232 . S
O736 C735 1.232 . S
C737 O729 1.260 . S
C737 O730 1.257 . S
Zn738 O741 2.031 . S
Zn738 O743 2.049 . S
Zn738 O748 2.067 . S
Zn739 O740 1.962 . S
Zn739 O742 1.986 . S
Zn739 O744 1.996 1_545 S
Zn739 O747 1.943 . S
O740 Zn739 1.962 . S
O740 C745 1.254 . S
O741 Zn738 2.031 . S
O741 C745 1.269 1_565 S
O742 Zn739 1.986 . S
O742 C749 1.262 . S
O743 Zn738 2.049 . S
O743 C751 1.260 . S
O744 Zn739 1.996 1_565 S
O744 C751 1.257 . S
C745 O740 1.254 . S
C745 O741 1.269 1_545 S
C746 O747 1.249 1_565 S
C746 O748 1.270 . S
O747 Zn739 1.943 . S
O747 C746 1.249 1_545 S
O748 Zn738 2.067 . S
O748 C746 1.270 . S
C749 O742 1.262 . S
C749 O750 1.232 . S
O750 C749 1.232 . S
C751 O743 1.260 . S
C751 O744 1.257 . S
Zn752 O755 2.031 . S
Zn752 O757 2.049 1_455 S
Zn752 O762 2.067 1_455 S
Zn753 O754 1.962 . S
Zn753 O756 1.986 . S
Zn753 O758 1.996 . S
Zn753 O761 1.943 1_455 S
O754 Zn753 1.962 . S
O754 C759 1.254 . S
O755 Zn752 2.031 . S
O755 C759 1.269 . S
O756 Zn753 1.986 . S
O756 C763 1.262 . S
O757 Zn752 2.049 1_655 S
O757 C765 1.260 . S
O758 Zn753 1.996 . S
O758 C765 1.257 1_455 S
C759 O754 1.254 . S
C759 O755 1.269 . S
C760 O761 1.249 . S
C760 O762 1.270 . S
O761 Zn753 1.943 1_655 S
O761 C760 1.249 . S
O762 Zn752 2.067 1_655 S
O762 C760 1.270 . S
C763 O756 1.262 . S
C763 O764 1.232 . S
O764 C763 1.232 . S
C765 O757 1.260 . S
C765 O758 1.257 1_655 S
Zn766 O769 2.031 . S
Zn766 O771 2.049 . S
Zn766 O776 2.067 . S
Zn767 O768 1.962 . S
Zn767 O770 1.986 . S
Zn767 O772 1.996 . S
Zn767 O775 1.943 . S
O768 Zn767 1.962 . S
O768 C773 1.254 . S
O769 Zn766 2.031 . S
O769 C773 1.269 . S
O770 Zn767 1.986 . S
O770 C777 1.262 . S
O771 Zn766 2.049 . S
O771 C779 1.260 . S
O772 Zn767 1.996 . S
O772 C779 1.257 . S
C773 O768 1.254 . S
C773 O769 1.269 . S
C774 O775 1.249 . S
C774 O776 1.270 . S
O775 Zn767 1.943 . S
O775 C774 1.249 . S
O776 Zn766 2.067 . S
O776 C774 1.270 . S
C777 O770 1.262 . S
C777 O778 1.232 . S
O778 C777 1.232 . S
C779 O771 1.260 . S
C779 O772 1.257 . S
Zn780 O783 2.031 . S
Zn780 O785 2.049 . S
Zn780 O790 2.067 . S
Zn781 O782 1.962 . S
Zn781 O784 1.986 . S
Zn781 O786 1.996 1_455 S
Zn781 O789 1.943 . S
O782 Zn781 1.962 . S
O782 C787 1.254 . S
O783 Zn780 2.031 . S
O783 C787 1.269 1_655 S
O784 Zn781 1.986 . S
O784 C791 1.262 . S
O785 Zn780 2.049 . S
O785 C793 1.260 . S
O786 Zn781 1.996 1_655 S
O786 C793 1.257 . S
C787 O782 1.254 . S
C787 O783 1.269 1_455 S
C788 O789 1.249 1_655 S
C788 O790 1.270 . S
O789 Zn781 1.943 . S
O789 C788 1.249 1_455 S
O790 Zn780 2.067 . S
O790 C788 1.270 . S
C791 O784 1.262 . S
C791 O792 1.232 . S
O792 C791 1.232 . S
C793 O785 1.260 . S
C793 O786 1.257 . S
Zn794 O797 2.031 . S
Zn794 O799 2.049 . S
Zn794 O804 2.067 . S
Zn795 O796 1.962 . S
Zn795 O798 1.986 . S
Zn795 O800 1.996 . S
Zn795 O803 1.943 . S
O796 Zn795 1.962 . S
O796 C801 1.254 . S
O797 Zn794 2.031 . S
O797 C801 1.269 . S
O798 Zn795 1.986 . S
O798 C805 1.262 . S
O799 Zn794 2.049 . S
O799 C807 1.260 . S
O800 Zn795 1.996 . S
O800 C807 1.257 . S
C801 O796 1.254 . S
C801 O797 1.269 . S
C802 O803 1.249 . S
C802 O804 1.270 . S
O803 Zn795 1.943 . S
O803 C802 1.249 . S
O804 Zn794 2.067 . S
O804 C802 1.270 . S
C805 O798 1.262 . S
C805 O806 1.232 . S
O806 C805 1.232 . S
C807 O799 1.260 . S
C807 O800 1.257 . S
C808 C809 1.349 . S
C808 C810 1.327 . S
C808 H833 0.950 . S
C809 C808 1.349 . S
C809 C825 1.349 . S
C810 C808 1.327 . S
C810 C829 1.429 . S
C810 H834 0.950 . S
C811 C828 1.574 . S
C811 C830 1.368 . S
C811 H835 0.949 . S
H812 C816 0.949 . S
C813 C814 1.349 . S
C813 C815 1.327 . S
C813 H836 0.950 . S
C814 C813 1.349 . S
C814 C826 1.349 . S
C815 C813 1.327 . S
C815 C831 1.429 . S
C815 H837 0.950 . S
C816 H812 0.949 . S
C816 C824 1.574 . S
C816 C832 1.368 . S
H817 C825 0.950 . S
H818 C823 0.950 . S
H819 C824 0.949 . S
H820 C826 0.950 . S
H821 C827 0.950 . S
H822 C828 0.949 . S
C823 H818 0.950 . S
C823 C825 1.327 . S
C823 C829 1.429 . S
C824 C816 1.574 . S
C824 H819 0.949 . S
C824 C830 1.368 . S
C825 C809 1.349 . S
C825 H817 0.950 . S
C825 C823 1.327 . S
C826 C814 1.349 . S
C826 H820 0.950 . S
C826 C827 1.327 . S
C827 H821 0.950 . S
C827 C826 1.327 . S
C827 C831 1.429 . S
C828 C811 1.574 . S
C828 H822 0.949 . S
C828 C832 1.368 . S
C829 C810 1.429 . S
C829 C823 1.429 . S
C829 C830 1.523 . S
C830 C811 1.368 . S
C830 C824 1.368 . S
C830 C829 1.523 . S
C831 C815 1.429 . S
C831 C827 1.429 . S
C831 C832 1.523 . S
C832 C816 1.368 . S
C832 C828 1.368 . S
C832 C831 1.523 . S
H833 C808 0.950 . S
H834 C810 0.950 . S
H835 C811 0.949 . S
H836 C813 0.950 . S
H837 C815 0.950 . S
C838 C839 1.349 . S
C838 C840 1.327 . S
C838 H863 0.950 . S
C839 C838 1.349 . S
C839 C855 1.349 . S
C840 C838 1.327 . S
C840 C859 1.429 . S
C840 H864 0.950 . S
C841 C858 1.574 . S
C841 C860 1.368 . S
C841 H865 0.949 . S
H842 C846 0.949 . S
C843 C844 1.349 . S
C843 C845 1.327 . S
C843 H866 0.950 . S
C844 C843 1.349 . S
C844 C856 1.349 . S
C845 C843 1.327 . S
C845 C861 1.429 . S
C845 H867 0.950 . S
C846 H842 0.949 . S
C846 C854 1.574 . S
C846 C862 1.368 . S
H847 C855 0.950 . S
H848 C853 0.950 . S
H849 C854 0.949 . S
H850 C856 0.950 . S
H851 C857 0.950 . S
H852 C858 0.949 . S
C853 H848 0.950 . S
C853 C855 1.327 . S
C853 C859 1.429 . S
C854 C846 1.574 . S
C854 H849 0.949 . S
C854 C860 1.368 . S
C855 C839 1.349 . S
C855 H847 0.950 . S
C855 C853 1.327 . S
C856 C844 1.349 . S
C856 H850 0.950 . S
C856 C857 1.327 . S
C857 H851 0.950 . S
C857 C856 1.327 . S
C857 C861 1.429 . S
C858 C841 1.574 . S
C858 H852 0.949 . S
C858 C862 1.368 . S
C859 C840 1.429 . S
C859 C853 1.429 . S
C859 C860 1.523 . S
C860 C841 1.368 . S
C860 C854 1.368 . S
C860 C859 1.523 . S
C861 C845 1.429 . S
C861 C857 1.429 . S
C861 C862 1.523 . S
C862 C846 1.368 . S
C862 C858 1.368 . S
C862 C861 1.523 . S
H863 C838 0.950 . S
H864 C840 0.950 . S
H865 C841 0.949 . S
H866 C843 0.950 . S
H867 C845 0.950 . S
C868 C869 1.349 . S
C868 C870 1.327 . S
C868 H893 0.950 . S
C869 C868 1.349 . S
C869 C885 1.349 . S
C870 C868 1.327 . S
C870 C889 1.429 . S
C870 H894 0.950 . S
C871 C888 1.574 . S
C871 C890 1.368 . S
C871 H895 0.949 . S
H872 C876 0.949 . S
C873 C874 1.349 . S
C873 C875 1.327 . S
C873 H896 0.950 . S
C874 C873 1.349 . S
C874 C886 1.349 . S
C875 C873 1.327 . S
C875 C891 1.429 . S
C875 H897 0.950 . S
C876 H872 0.949 . S
C876 C884 1.574 . S
C876 C892 1.368 . S
H877 C885 0.950 . S
H878 C883 0.950 . S
H879 C884 0.949 . S
H880 C886 0.950 . S
H881 C887 0.950 . S
H882 C888 0.949 . S
C883 H878 0.950 . S
C883 C885 1.327 . S
C883 C889 1.429 . S
C884 C876 1.574 . S
C884 H879 0.949 . S
C884 C890 1.368 . S
C885 C869 1.349 . S
C885 H877 0.950 . S
C885 C883 1.327 . S
C886 C874 1.349 . S
C886 H880 0.950 . S
C886 C887 1.327 . S
C887 H881 0.950 . S
C887 C886 1.327 . S
C887 C891 1.429 . S
C888 C871 1.574 . S
C888 H882 0.949 . S
C888 C892 1.368 . S
C889 C870 1.429 . S
C889 C883 1.429 . S
C889 C890 1.523 . S
C890 C871 1.368 . S
C890 C884 1.368 . S
C890 C889 1.523 . S
C891 C875 1.429 . S
C891 C887 1.429 . S
C891 C892 1.523 . S
C892 C876 1.368 . S
C892 C888 1.368 . S
C892 C891 1.523 . S
H893 C868 0.950 . S
H894 C870 0.950 . S
H895 C871 0.949 . S
H896 C873 0.950 . S
H897 C875 0.950 . S
C898 C899 1.349 . S
C898 C900 1.327 . S
C898 H923 0.950 . S
C899 C898 1.349 . S
C899 C915 1.349 . S
C900 C898 1.327 . S
C900 C919 1.429 . S
C900 H924 0.950 . S
C901 C918 1.574 . S
C901 C920 1.368 . S
C901 H925 0.949 . S
H902 C906 0.949 1_545 S
C903 C904 1.349 . S
C903 C905 1.327 . S
C903 H926 0.950 . S
C904 C903 1.349 . S
C904 C916 1.349 1_565 S
C905 C903 1.327 . S
C905 C921 1.429 . S
C905 H927 0.950 . S
C906 H902 0.949 1_565 S
C906 C914 1.574 . S
C906 C922 1.368 . S
H907 C915 0.950 . S
H908 C913 0.950 . S
H909 C914 0.949 . S
H910 C916 0.950 . S
H911 C917 0.965 . S
H912 C918 0.949 . S
C913 H908 0.950 . S
C913 C915 1.327 . S
C913 C919 1.429 . S
C914 C906 1.574 . S
C914 H909 0.949 . S
C914 C920 1.368 . S
C915 C899 1.349 . S
C915 H907 0.950 . S
C915 C913 1.327 . S
C916 C904 1.349 1_545 S
C916 H910 0.950 . S
C916 C917 1.332 . S
C917 H911 0.965 . S
C917 C916 1.332 . S
C917 C921 1.409 1_545 S
C918 C901 1.574 . S
C918 H912 0.949 . S
C918 C922 1.368 . S
C919 C900 1.429 . S
C919 C913 1.429 . S
C919 C920 1.523 . S
C920 C901 1.368 . S
C920 C914 1.368 . S
C920 C919 1.523 . S
C921 C905 1.429 . S
C921 C917 1.409 1_565 S
C921 C922 1.523 . S
C922 C906 1.368 . S
C922 C918 1.368 . S
C922 C921 1.523 . S
H923 C898 0.950 . S
H924 C900 0.950 . S
H925 C901 0.949 . S
H926 C903 0.950 . S
H927 C905 0.950 . S
C928 C929 1.349 . S
C928 C930 1.327 . S
C928 H953 0.950 . S
C929 C928 1.349 . S
C929 C945 1.349 . S
C930 C928 1.327 . S
C930 C949 1.429 . S
C930 H954 0.950 . S
C931 C948 1.574 . S
C931 C950 1.368 . S
C931 H955 0.949 . S
H932 C936 0.949 . S
C933 C934 1.349 . S
C933 C935 1.327 . S
C933 H956 0.950 . S
C934 C933 1.349 . S
C934 C946 1.349 . S
C935 C933 1.327 . S
C935 C951 1.429 . S
C935 H957 0.950 . S
C936 H932 0.949 . S
C936 C944 1.574 . S
C936 C952 1.368 . S
H937 C945 0.950 . S
H938 C943 0.950 . S
H939 C944 0.949 . S
H940 C946 0.950 . S
H941 C947 0.950 . S
H942 C948 0.949 . S
C943 H938 0.950 . S
C943 C945 1.327 . S
C943 C949 1.429 . S
C944 C936 1.574 . S
C944 H939 0.949 . S
C944 C950 1.368 . S
C945 C929 1.349 . S
C945 H937 0.950 . S
C945 C943 1.327 . S
C946 C934 1.349 . S
C946 H940 0.950 . S
C946 C947 1.327 . S
C947 H941 0.950 . S
C947 C946 1.327 . S
C947 C951 1.429 . S
C948 C931 1.574 . S
C948 H942 0.949 . S
C948 C952 1.368 . S
C949 C930 1.429 . S
C949 C943 1.429 . S
C949 C950 1.523 . S
C950 C931 1.368 . S
C950 C944 1.368 . S
C950 C949 1.523 . S
C951 C935 1.429 . S
C951 C947 1.429 . S
C951 C952 1.523 . S
C952 C936 1.368 . S
C952 C948 1.368 . S
C952 C951 1.523 . S
H953 C928 0.950 . S
H954 C930 0.950 . S
H955 C931 0.949 . S
H956 C933 0.950 . S
H957 C935 0.950 . S
C958 C959 1.349 . S
C958 C960 1.327 . S
C958 H983 0.950 . S
C959 C958 1.349 . S
C959 C975 1.349 . S
C960 C958 1.327 . S
C960 C979 1.429 . S
C960 H984 0.950 . S
C961 C978 1.574 . S
C961 C980 1.368 . S
C961 H985 0.949 . S
H962 C966 0.949 . S
C963 C964 1.349 . S
C963 C965 1.327 . S
C963 H986 0.950 . S
C964 C963 1.349 . S
C964 C976 1.349 . S
C965 C963 1.327 . S
C965 C981 1.429 . S
C965 H987 0.950 . S
C966 H962 0.949 . S
C966 C974 1.574 . S
C966 C982 1.368 . S
H967 C975 0.950 . S
H968 C973 0.950 . S
H969 C974 0.949 . S
H970 C976 0.950 . S
H971 C977 0.950 . S
H972 C978 0.949 . S
C973 H968 0.950 . S
C973 C975 1.327 . S
C973 C979 1.429 . S
C974 C966 1.574 . S
C974 H969 0.949 . S
C974 C980 1.368 . S
C975 C959 1.349 . S
C975 H967 0.950 . S
C975 C973 1.327 . S
C976 C964 1.349 . S
C976 H970 0.950 . S
C976 C977 1.327 . S
C977 H971 0.950 . S
C977 C976 1.327 . S
C977 C981 1.429 . S
C978 C961 1.574 . S
C978 H972 0.949 . S
C978 C982 1.368 . S
C979 C960 1.429 . S
C979 C973 1.429 . S
C979 C980 1.523 . S
C980 C961 1.368 . S
C980 C974 1.368 . S
C980 C979 1.523 . S
C981 C965 1.429 . S
C981 C977 1.429 . S
C981 C982 1.523 . S
C982 C966 1.368 . S
C982 C978 1.368 . S
C982 C981 1.523 . S
H983 C958 0.950 . S
H984 C960 0.950 . S
H985 C961 0.949 . S
H986 C963 0.950 . S
H987 C965 0.950 . S
C988 C989 1.349 . S
C988 C990 1.327 . S
C988 H1013 0.950 . S
C989 C988 1.349 . S
C989 C1005 1.349 . S
C990 C988 1.327 . S
C990 C1009 1.429 . S
C990 H1014 0.950 . S
C991 C1008 1.574 . S
C991 C1010 1.368 . S
C991 H1015 0.949 . S
H992 C996 0.949 . S
C993 C994 1.349 . S
C993 C995 1.327 . S
C993 H1016 0.950 . S
C994 C993 1.349 . S
C994 C1006 1.349 . S
C995 C993 1.327 . S
C995 C1011 1.429 . S
C995 H1017 0.950 . S
C996 H992 0.949 . S
C996 C1004 1.574 . S
C996 C1012 1.368 . S
H997 C1005 0.950 . S
H998 C1003 0.950 . S
H999 C1004 0.949 . S
H1000 C1006 0.950 . S
H1001 C1007 0.950 . S
H1002 C1008 0.949 . S
C1003 H998 0.950 . S
C1003 C1005 1.327 . S
C1003 C1009 1.429 . S
C1004 C996 1.574 . S
C1004 H999 0.949 . S
C1004 C1010 1.368 . S
C1005 C989 1.349 . S
C1005 H997 0.950 . S
C1005 C1003 1.327 . S
C1006 C994 1.349 . S
C1006 H1000 0.950 . S
C1006 C1007 1.327 . S
C1007 H1001 0.950 . S
C1007 C1006 1.327 . S
C1007 C1011 1.429 . S
C1008 C991 1.574 . S
C1008 H1002 0.949 . S
C1008 C1012 1.368 . S
C1009 C990 1.429 . S
C1009 C1003 1.429 . S
C1009 C1010 1.523 . S
C1010 C991 1.368 . S
C1010 C1004 1.368 . S
C1010 C1009 1.523 . S
C1011 C995 1.429 . S
C1011 C1007 1.429 . S
C1011 C1012 1.523 . S
C1012 C996 1.368 . S
C1012 C1008 1.368 . S
C1012 C1011 1.523 . S
H1013 C988 0.950 . S
H1014 C990 0.950 . S
H1015 C991 0.949 . S
H1016 C993 0.950 . S
H1017 C995 0.950 . S
C1018 C1019 1.349 . S
C1018 C1020 1.327 . S
C1018 H1043 0.950 . S
C1019 C1018 1.349 . S
C1019 C1035 1.349 . S
C1020 C1018 1.327 . S
C1020 C1039 1.429 . S
C1020 H1044 0.950 . S
C1021 C1038 1.574 . S
C1021 C1040 1.368 . S
C1021 H1045 0.949 . S
H1022 C1026 0.949 . S
C1023 C1024 1.351 . S
C1023 C1025 1.328 . S
C1023 H1046 0.947 1_565 S
C1024 C1023 1.351 . S
C1024 C1036 1.349 . S
C1025 C1023 1.328 . S
C1025 C1041 1.429 . S
C1025 H1047 0.936 1_565 S
C1026 H1022 0.949 . S
C1026 C1034 1.574 . S
C1026 C1042 1.368 . S
H1027 C1035 0.950 . S
H1028 C1033 0.950 . S
H1029 C1034 0.949 . S
H1030 C1036 0.950 . S
H1031 C1037 0.950 . S
H1032 C1038 0.949 . S
C1033 H1028 0.950 . S
C1033 C1035 1.327 . S
C1033 C1039 1.429 . S
C1034 C1026 1.574 . S
C1034 H1029 0.949 . S
C1034 C1040 1.368 . S
C1035 C1019 1.349 . S
C1035 H1027 0.950 . S
C1035 C1033 1.327 . S
C1036 C1024 1.349 . S
C1036 H1030 0.950 . S
C1036 C1037 1.327 . S
C1037 H1031 0.950 . S
C1037 C1036 1.327 . S
C1037 C1041 1.429 . S
C1038 C1021 1.574 . S
C1038 H1032 0.949 . S
C1038 C1042 1.368 . S
C1039 C1020 1.429 . S
C1039 C1033 1.429 . S
C1039 C1040 1.523 . S
C1040 C1021 1.368 . S
C1040 C1034 1.368 . S
C1040 C1039 1.523 . S
C1041 C1025 1.429 . S
C1041 C1037 1.429 . S
C1041 C1042 1.523 . S
C1042 C1026 1.368 . S
C1042 C1038 1.368 . S
C1042 C1041 1.523 . S
H1043 C1018 0.950 . S
H1044 C1020 0.950 . S
H1045 C1021 0.949 . S
H1046 C1023 0.947 1_545 S
H1047 C1025 0.936 1_545 S
C1048 C1049 1.349 . S
C1048 C1050 1.327 . S
C1048 H1073 0.950 . S
C1049 C1048 1.349 . S
C1049 C1065 1.349 . S
C1050 C1048 1.327 . S
C1050 C1069 1.429 . S
C1050 H1074 0.950 . S
C1051 C1068 1.574 . S
C1051 C1070 1.368 . S
C1051 H1075 0.949 . S
H1052 C1056 0.949 . S
C1053 C1054 1.349 . S
C1053 C1055 1.327 . S
C1053 H1076 0.950 . S
C1054 C1053 1.349 . S
C1054 C1066 1.349 . S
C1055 C1053 1.327 . S
C1055 C1071 1.429 . S
C1055 H1077 0.950 . S
C1056 H1052 0.949 . S
C1056 C1064 1.574 . S
C1056 C1072 1.368 . S
H1057 C1065 0.950 . S
H1058 C1063 0.950 . S
H1059 C1064 0.949 . S
H1060 C1066 0.950 . S
H1061 C1067 0.950 . S
H1062 C1068 0.949 . S
C1063 H1058 0.950 . S
C1063 C1065 1.327 . S
C1063 C1069 1.429 . S
C1064 C1056 1.574 . S
C1064 H1059 0.949 . S
C1064 C1070 1.368 . S
C1065 C1049 1.349 . S
C1065 H1057 0.950 . S
C1065 C1063 1.327 . S
C1066 C1054 1.349 . S
C1066 H1060 0.950 . S
C1066 C1067 1.327 . S
C1067 H1061 0.950 . S
C1067 C1066 1.327 . S
C1067 C1071 1.429 . S
C1068 C1051 1.574 . S
C1068 H1062 0.949 . S
C1068 C1072 1.368 . S
C1069 C1050 1.429 . S
C1069 C1063 1.429 . S
C1069 C1070 1.523 . S
C1070 C1051 1.368 . S
C1070 C1064 1.368 . S
C1070 C1069 1.523 . S
C1071 C1055 1.429 . S
C1071 C1067 1.429 . S
C1071 C1072 1.523 . S
C1072 C1056 1.368 . S
C1072 C1068 1.368 . S
C1072 C1071 1.523 . S
H1073 C1048 0.950 . S
H1074 C1050 0.950 . S
H1075 C1051 0.949 . S
H1076 C1053 0.950 . S
H1077 C1055 0.950 . S
C1078 C1079 1.349 . S
C1078 C1080 1.327 . S
C1078 H1103 0.950 . S
C1079 C1078 1.349 . S
C1079 C1095 1.349 . S
C1080 C1078 1.327 . S
C1080 C1099 1.429 . S
C1080 H1104 0.950 . S
C1081 C1098 1.574 . S
C1081 C1100 1.368 . S
C1081 H1105 0.949 . S
H1082 C1086 0.949 . S
C1083 C1084 1.349 . S
C1083 C1085 1.327 . S
C1083 H1106 0.950 . S
C1084 C1083 1.349 . S
C1084 C1096 1.349 . S
C1085 C1083 1.327 . S
C1085 C1101 1.429 . S
C1085 H1107 0.950 . S
C1086 H1082 0.949 . S
C1086 C1094 1.574 . S
C1086 C1102 1.368 . S
H1087 C1095 0.950 . S
H1088 C1093 0.950 . S
H1089 C1094 0.949 . S
H1090 C1096 0.950 . S
H1091 C1097 0.950 . S
H1092 C1098 0.949 . S
C1093 H1088 0.950 . S
C1093 C1095 1.327 . S
C1093 C1099 1.429 . S
C1094 C1086 1.574 . S
C1094 H1089 0.949 . S
C1094 C1100 1.368 . S
C1095 C1079 1.349 . S
C1095 H1087 0.950 . S
C1095 C1093 1.327 . S
C1096 C1084 1.349 . S
C1096 H1090 0.950 . S
C1096 C1097 1.327 . S
C1097 H1091 0.950 . S
C1097 C1096 1.327 . S
C1097 C1101 1.429 . S
C1098 C1081 1.574 . S
C1098 H1092 0.949 . S
C1098 C1102 1.368 . S
C1099 C1080 1.429 . S
C1099 C1093 1.429 . S
C1099 C1100 1.523 . S
C1100 C1081 1.368 . S
C1100 C1094 1.368 . S
C1100 C1099 1.523 . S
C1101 C1085 1.429 . S
C1101 C1097 1.429 . S
C1101 C1102 1.523 . S
C1102 C1086 1.368 . S
C1102 C1098 1.368 . S
C1102 C1101 1.523 . S
H1103 C1078 0.950 . S
H1104 C1080 0.950 . S
H1105 C1081 0.949 . S
H1106 C1083 0.950 . S
H1107 C1085 0.950 . S
C1108 C1109 1.349 . S
C1108 C1110 1.327 . S
C1108 H1133 0.950 . S
C1109 C1108 1.349 . S
C1109 C1125 1.349 . S
C1110 C1108 1.327 . S
C1110 C1129 1.429 . S
C1110 H1134 0.950 . S
C1111 C1128 1.574 . S
C1111 C1130 1.368 . S
C1111 H1135 0.949 . S
H1112 C1116 0.949 . S
C1113 C1114 1.349 . S
C1113 C1115 1.327 . S
C1113 H1136 0.950 . S
C1114 C1113 1.349 . S
C1114 C1126 1.349 . S
C1115 C1113 1.327 . S
C1115 C1131 1.429 . S
C1115 H1137 0.950 . S
C1116 H1112 0.949 . S
C1116 C1124 1.574 . S
C1116 C1132 1.368 . S
H1117 C1125 0.950 . S
H1118 C1123 0.950 . S
H1119 C1124 0.949 . S
H1120 C1126 0.950 . S
H1121 C1127 0.950 . S
H1122 C1128 0.949 . S
C1123 H1118 0.950 . S
C1123 C1125 1.327 . S
C1123 C1129 1.429 . S
C1124 C1116 1.574 . S
C1124 H1119 0.949 . S
C1124 C1130 1.368 . S
C1125 C1109 1.349 . S
C1125 H1117 0.950 . S
C1125 C1123 1.327 . S
C1126 C1114 1.349 . S
C1126 H1120 0.950 . S
C1126 C1127 1.327 . S
C1127 H1121 0.950 . S
C1127 C1126 1.327 . S
C1127 C1131 1.429 . S
C1128 C1111 1.574 . S
C1128 H1122 0.949 . S
C1128 C1132 1.368 . S
C1129 C1110 1.429 . S
C1129 C1123 1.429 . S
C1129 C1130 1.523 . S
C1130 C1111 1.368 . S
C1130 C1124 1.368 . S
C1130 C1129 1.523 . S
C1131 C1115 1.429 . S
C1131 C1127 1.429 . S
C1131 C1132 1.523 . S
C1132 C1116 1.368 . S
C1132 C1128 1.368 . S
C1132 C1131 1.523 . S
H1133 C1108 0.950 . S
H1134 C1110 0.950 . S
H1135 C1111 0.949 . S
H1136 C1113 0.950 . S
H1137 C1115 0.950 . S
C1138 C1139 1.349 . S
C1138 C1140 1.327 . S
C1138 H1163 0.950 . S
C1139 C1138 1.349 . S
C1139 C1155 1.349 . S
C1140 C1138 1.327 . S
C1140 C1159 1.429 . S
C1140 H1164 0.950 . S
C1141 C1158 1.574 . S
C1141 C1160 1.368 . S
C1141 H1165 0.949 . S
H1142 C1146 0.949 . S
C1143 C1144 1.349 . S
C1143 C1145 1.327 . S
C1143 H1166 0.950 . S
C1144 C1143 1.349 . S
C1144 C1156 1.349 . S
C1145 C1143 1.327 . S
C1145 C1161 1.429 . S
C1145 H1167 0.950 . S
C1146 H1142 0.949 . S
C1146 C1154 1.574 . S
C1146 C1162 1.368 . S
H1147 C1155 0.950 . S
H1148 C1153 0.950 . S
H1149 C1154 0.949 . S
H1150 C1156 0.950 . S
H1151 C1157 0.950 . S
H1152 C1158 0.949 . S
C1153 H1148 0.950 . S
C1153 C1155 1.327 . S
C1153 C1159 1.429 . S
C1154 C1146 1.574 . S
C1154 H1149 0.949 . S
C1154 C1160 1.368 . S
C1155 C1139 1.349 . S
C1155 H1147 0.950 . S
C1155 C1153 1.327 . S
C1156 C1144 1.349 . S
C1156 H1150 0.950 . S
C1156 C1157 1.327 . S
C1157 H1151 0.950 . S
C1157 C1156 1.327 . S
C1157 C1161 1.429 . S
C1158 C1141 1.574 . S
C1158 H1152 0.949 . S
C1158 C1162 1.368 . S
C1159 C1140 1.429 . S
C1159 C1153 1.429 . S
C1159 C1160 1.523 . S
C1160 C1141 1.368 . S
C1160 C1154 1.368 . S
C1160 C1159 1.523 . S
C1161 C1145 1.429 . S
C1161 C1157 1.429 . S
C1161 C1162 1.523 . S
C1162 C1146 1.368 . S
C1162 C1158 1.368 . S
C1162 C1161 1.523 . S
H1163 C1138 0.950 . S
H1164 C1140 0.950 . S
H1165 C1141 0.949 . S
H1166 C1143 0.950 . S
H1167 C1145 0.950 . S
C1168 C1169 1.349 . S
C1168 C1170 1.327 . S
C1168 H1193 0.950 . S
C1169 C1168 1.349 . S
C1169 C1185 1.349 . S
C1170 C1168 1.327 . S
C1170 C1189 1.429 . S
C1170 H1194 0.950 . S
C1171 C1188 1.574 . S
C1171 C1190 1.368 . S
C1171 H1195 0.949 . S
H1172 C1176 0.949 . S
C1173 C1174 1.349 . S
C1173 C1175 1.327 . S
C1173 H1196 0.950 . S
C1174 C1173 1.349 . S
C1174 C1186 1.349 . S
C1175 C1173 1.327 . S
C1175 C1191 1.429 . S
C1175 H1197 0.950 . S
C1176 H1172 0.949 . S
C1176 C1184 1.574 . S
C1176 C1192 1.368 . S
H1177 C1185 0.950 . S
H1178 C1183 0.950 . S
H1179 C1184 0.949 . S
H1180 C1186 0.950 . S
H1181 C1187 0.950 . S
H1182 C1188 0.949 . S
C1183 H1178 0.950 . S
C1183 C1185 1.327 . S
C1183 C1189 1.429 . S
C1184 C1176 1.574 . S
C1184 H1179 0.949 . S
C1184 C1190 1.368 . S
C1185 C1169 1.349 . S
C1185 H1177 0.950 . S
C1185 C1183 1.327 . S
C1186 C1174 1.349 . S
C1186 H1180 0.950 . S
C1186 C1187 1.327 . S
C1187 H1181 0.950 . S
C1187 C1186 1.327 . S
C1187 C1191 1.429 . S
C1188 C1171 1.574 . S
C1188 H1182 0.949 . S
C1188 C1192 1.368 . S
C1189 C1170 1.429 . S
C1189 C1183 1.429 . S
C1189 C1190 1.523 . S
C1190 C1171 1.368 . S
C1190 C1184 1.368 . S
C1190 C1189 1.523 . S
C1191 C1175 1.429 . S
C1191 C1187 1.429 . S
C1191 C1192 1.523 . S
C1192 C1176 1.368 . S
C1192 C1188 1.368 . S
C1192 C1191 1.523 . S
H1193 C1168 0.950 . S
H1194 C1170 0.950 . S
H1195 C1171 0.949 . S
H1196 C1173 0.950 . S
H1197 C1175 0.950 . S
C1198 C1199 1.349 . S
C1198 C1200 1.327 . S
C1198 H1223 0.950 . S
C1199 C1198 1.349 . S
C1199 C1215 1.349 . S
C1200 C1198 1.327 . S
C1200 C1219 1.429 . S
C1200 H1224 0.950 . S
C1201 C1218 1.574 . S
C1201 C1220 1.368 . S
C1201 H1225 0.949 . S
H1202 C1206 0.949 . S
C1203 C1204 1.349 . S
C1203 C1205 1.327 . S
C1203 H1226 0.950 . S
C1204 C1203 1.349 . S
C1204 C1216 1.349 . S
C1205 C1203 1.327 . S
C1205 C1221 1.429 . S
C1205 H1227 0.950 . S
C1206 H1202 0.949 . S
C1206 C1214 1.574 . S
C1206 C1222 1.368 . S
H1207 C1215 0.950 . S
H1208 C1213 0.950 . S
H1209 C1214 0.949 . S
H1210 C1216 0.950 . S
H1211 C1217 0.950 . S
H1212 C1218 0.949 . S
C1213 H1208 0.950 . S
C1213 C1215 1.327 . S
C1213 C1219 1.429 . S
C1214 C1206 1.574 . S
C1214 H1209 0.949 . S
C1214 C1220 1.368 . S
C1215 C1199 1.349 . S
C1215 H1207 0.950 . S
C1215 C1213 1.327 . S
C1216 C1204 1.349 . S
C1216 H1210 0.950 . S
C1216 C1217 1.327 . S
C1217 H1211 0.950 . S
C1217 C1216 1.327 . S
C1217 C1221 1.429 . S
C1218 C1201 1.574 . S
C1218 H1212 0.949 . S
C1218 C1222 1.368 . S
C1219 C1200 1.429 . S
C1219 C1213 1.429 . S
C1219 C1220 1.523 . S
C1220 C1201 1.368 . S
C1220 C1214 1.368 . S
C1220 C1219 1.523 . S
C1221 C1205 1.429 . S
C1221 C1217 1.429 . S
C1221 C1222 1.523 . S
C1222 C1206 1.368 . S
C1222 C1218 1.368 . S
C1222 C1221 1.523 . S
H1223 C1198 0.950 . S
H1224 C1200 0.950 . S
H1225 C1201 0.949 . S
H1226 C1203 0.950 . S
H1227 C1205 0.950 . S
C1228 C1229 1.349 . S
C1228 C1230 1.327 . S
C1228 H1253 0.950 . S
C1229 C1228 1.349 . S
C1229 C1245 1.349 . S
C1230 C1228 1.327 . S
C1230 C1249 1.429 . S
C1230 H1254 0.950 . S
C1231 C1248 1.574 . S
C1231 C1250 1.368 . S
C1231 H1255 0.949 . S
H1232 C1236 0.949 . S
C1233 C1234 1.349 . S
C1233 C1235 1.327 . S
C1233 H1256 0.950 . S
C1234 C1233 1.349 . S
C1234 C1246 1.349 . S
C1235 C1233 1.327 . S
C1235 C1251 1.429 . S
C1235 H1257 0.950 . S
C1236 H1232 0.949 . S
C1236 C1244 1.574 . S
C1236 C1252 1.368 . S
H1237 C1245 0.950 . S
H1238 C1243 0.950 . S
H1239 C1244 0.949 . S
H1240 C1246 0.950 . S
H1241 C1247 0.950 . S
H1242 C1248 0.949 . S
C1243 H1238 0.950 . S
C1243 C1245 1.327 . S
C1243 C1249 1.429 . S
C1244 C1236 1.574 . S
C1244 H1239 0.949 . S
C1244 C1250 1.368 . S
C1245 C1229 1.349 . S
C1245 H1237 0.950 . S
C1245 C1243 1.327 . S
C1246 C1234 1.349 . S
C1246 H1240 0.950 . S
C1246 C1247 1.327 . S
C1247 H1241 0.950 . S
C1247 C1246 1.327 . S
C1247 C1251 1.429 . S
C1248 C1231 1.574 . S
C1248 H1242 0.949 . S
C1248 C1252 1.368 . S
C1249 C1230 1.429 . S
C1249 C1243 1.429 . S
C1249 C1250 1.523 . S
C1250 C1231 1.368 . S
C1250 C1244 1.368 . S
C1250 C1249 1.523 . S
C1251 C1235 1.429 . S
C1251 C1247 1.429 . S
C1251 C1252 1.523 . S
C1252 C1236 1.368 . S
C1252 C1248 1.368 . S
C1252 C1251 1.523 . S
H1253 C1228 0.950 . S
H1254 C1230 0.950 . S
H1255 C1231 0.949 . S
H1256 C1233 0.950 . S
H1257 C1235 0.950 . S
C1258 C1259 1.349 . S
C1258 C1260 1.327 . S
C1258 H1283 0.950 . S
C1259 C1258 1.349 . S
C1259 C1275 1.349 . S
C1260 C1258 1.327 . S
C1260 C1279 1.429 . S
C1260 H1284 0.950 . S
C1261 C1278 1.574 . S
C1261 C1280 1.368 . S
C1261 H1285 0.949 . S
H1262 C1266 0.949 . S
C1263 C1264 1.349 . S
C1263 C1265 1.327 . S
C1263 H1286 0.945 1_655 S
C1264 C1263 1.349 . S
C1264 C1276 1.349 . S
C1265 C1263 1.327 . S
C1265 C1281 1.429 . S
C1265 H1287 0.950 . S
C1266 H1262 0.949 . S
C1266 C1274 1.574 . S
C1266 C1282 1.368 . S
H1267 C1275 0.950 . S
H1268 C1273 0.950 . S
H1269 C1274 0.949 . S
H1270 C1276 0.950 . S
H1271 C1277 0.950 . S
H1272 C1278 0.949 . S
C1273 H1268 0.950 . S
C1273 C1275 1.327 . S
C1273 C1279 1.429 . S
C1274 C1266 1.574 . S
C1274 H1269 0.949 . S
C1274 C1280 1.368 . S
C1275 C1259 1.349 . S
C1275 H1267 0.950 . S
C1275 C1273 1.327 . S
C1276 C1264 1.349 . S
C1276 H1270 0.950 . S
C1276 C1277 1.327 . S
C1277 H1271 0.950 . S
C1277 C1276 1.327 . S
C1277 C1281 1.429 . S
C1278 C1261 1.574 . S
C1278 H1272 0.949 . S
C1278 C1282 1.368 . S
C1279 C1260 1.429 . S
C1279 C1273 1.429 . S
C1279 C1280 1.523 . S
C1280 C1261 1.368 . S
C1280 C1274 1.368 . S
C1280 C1279 1.523 . S
C1281 C1265 1.429 . S
C1281 C1277 1.429 . S
C1281 C1282 1.523 . S
C1282 C1266 1.368 . S
C1282 C1278 1.368 . S
C1282 C1281 1.523 . S
H1283 C1258 0.950 . S
H1284 C1260 0.950 . S
H1285 C1261 0.949 . S
H1286 C1263 0.945 1_455 S
H1287 C1265 0.950 . S
C1288 C1289 1.349 . S
C1288 C1290 1.327 . S
C1288 H1313 0.950 . S
C1289 C1288 1.349 . S
C1289 C1305 1.349 . S
C1290 C1288 1.327 . S
C1290 C1309 1.429 . S
C1290 H1314 0.950 . S
C1291 C1308 1.574 . S
C1291 C1310 1.368 . S
C1291 H1315 0.949 . S
H1292 C1296 0.949 . S
C1293 C1294 1.349 . S
C1293 C1295 1.327 . S
C1293 H1316 0.950 . S
C1294 C1293 1.349 . S
C1294 C1306 1.349 . S
C1295 C1293 1.327 . S
C1295 C1311 1.429 . S
C1295 H1317 0.950 . S
C1296 H1292 0.949 . S
C1296 C1304 1.574 . S
C1296 C1312 1.368 . S
H1297 C1305 0.950 . S
H1298 C1303 0.950 . S
H1299 C1304 0.949 . S
H1300 C1306 0.950 . S
H1301 C1307 0.950 . S
H1302 C1308 0.949 . S
C1303 H1298 0.950 . S
C1303 C1305 1.327 . S
C1303 C1309 1.429 . S
C1304 C1296 1.574 . S
C1304 H1299 0.949 . S
C1304 C1310 1.368 . S
C1305 C1289 1.349 . S
C1305 H1297 0.950 . S
C1305 C1303 1.327 . S
C1306 C1294 1.349 . S
C1306 H1300 0.950 . S
C1306 C1307 1.327 . S
C1307 H1301 0.950 . S
C1307 C1306 1.327 . S
C1307 C1311 1.429 . S
C1308 C1291 1.574 . S
C1308 H1302 0.949 . S
C1308 C1312 1.368 . S
C1309 C1290 1.429 . S
C1309 C1303 1.429 . S
C1309 C1310 1.523 . S
C1310 C1291 1.368 . S
C1310 C1304 1.368 . S
C1310 C1309 1.523 . S
C1311 C1295 1.429 . S
C1311 C1307 1.429 . S
C1311 C1312 1.523 . S
C1312 C1296 1.368 . S
C1312 C1308 1.368 . S
C1312 C1311 1.523 . S
H1313 C1288 0.950 . S
H1314 C1290 0.950 . S
H1315 C1291 0.949 . S
H1316 C1293 0.950 . S
H1317 C1295 0.950 . S
C1318 C1319 1.349 . S
C1318 C1320 1.327 . S
C1318 H1343 0.950 . S
C1319 C1318 1.349 . S
C1319 C1335 1.349 . S
C1320 C1318 1.327 . S
C1320 C1339 1.429 . S
C1320 H1344 0.950 . S
C1321 C1338 1.574 . S
C1321 C1340 1.368 . S
C1321 H1345 0.949 . S
H1322 C1326 0.949 . S
C1323 C1324 1.349 . S
C1323 C1325 1.327 . S
C1323 H1346 0.950 . S
C1324 C1323 1.349 . S
C1324 C1336 1.349 . S
C1325 C1323 1.327 . S
C1325 C1341 1.429 . S
C1325 H1347 0.950 . S
C1326 H1322 0.949 . S
C1326 C1334 1.574 . S
C1326 C1342 1.368 . S
H1327 C1335 0.950 . S
H1328 C1333 0.950 . S
H1329 C1334 0.949 . S
H1330 C1336 0.950 . S
H1331 C1337 0.950 . S
H1332 C1338 0.949 . S
C1333 H1328 0.950 . S
C1333 C1335 1.327 . S
C1333 C1339 1.429 . S
C1334 C1326 1.574 . S
C1334 H1329 0.949 . S
C1334 C1340 1.368 . S
C1335 C1319 1.349 . S
C1335 H1327 0.950 . S
C1335 C1333 1.327 . S
C1336 C1324 1.349 . S
C1336 H1330 0.950 . S
C1336 C1337 1.327 . S
C1337 H1331 0.950 . S
C1337 C1336 1.327 . S
C1337 C1341 1.429 . S
C1338 C1321 1.574 . S
C1338 H1332 0.949 . S
C1338 C1342 1.368 . S
C1339 C1320 1.429 . S
C1339 C1333 1.429 . S
C1339 C1340 1.523 . S
C1340 C1321 1.368 . S
C1340 C1334 1.368 . S
C1340 C1339 1.523 . S
C1341 C1325 1.429 . S
C1341 C1337 1.429 . S
C1341 C1342 1.523 . S
C1342 C1326 1.368 . S
C1342 C1338 1.368 . S
C1342 C1341 1.523 . S
H1343 C1318 0.950 . S
H1344 C1320 0.950 . S
H1345 C1321 0.949 . S
H1346 C1323 0.950 . S
H1347 C1325 0.950 . S
C1348 C1349 1.349 . S
C1348 C1350 1.327 . S
C1348 H1373 0.950 . S
C1349 C1348 1.349 . S
C1349 C1365 1.349 . S
C1350 C1348 1.327 . S
C1350 C1369 1.429 . S
C1350 H1374 0.950 . S
C1351 C1368 1.574 . S
C1351 C1370 1.368 . S
C1351 H1375 0.949 . S
H1352 C1356 0.949 . S
C1353 C1354 1.349 1_554 S
C1353 C1355 1.309 1_554 S
C1353 H1376 0.950 . S
C1354 C1353 1.349 1_556 S
C1354 C1366 1.349 . S
C1355 C1353 1.309 1_556 S
C1355 C1371 1.493 . S
C1355 H1377 0.907 1_556 S
C1356 H1352 0.949 . S
C1356 C1364 1.574 . S
C1356 C1372 1.368 . S
H1357 C1365 0.950 . S
H1358 C1363 0.950 . S
H1359 C1364 0.949 . S
H1360 C1366 0.950 . S
H1361 C1367 0.950 . S
H1362 C1368 0.932 1_554 S
C1363 H1358 0.950 . S
C1363 C1365 1.327 . S
C1363 C1369 1.429 . S
C1364 C1356 1.574 . S
C1364 H1359 0.949 . S
C1364 C1370 1.368 . S
C1365 C1349 1.349 . S
C1365 H1357 0.950 . S
C1365 C1363 1.327 . S
C1366 C1354 1.349 . S
C1366 H1360 0.950 . S
C1366 C1367 1.327 . S
C1367 H1361 0.950 . S
C1367 C1366 1.327 . S
C1367 C1371 1.429 . S
C1368 C1351 1.574 . S
C1368 H1362 0.932 1_556 S
C1368 C1372 1.368 . S
C1369 C1350 1.429 . S
C1369 C1363 1.429 . S
C1369 C1370 1.523 . S
C1370 C1351 1.368 . S
C1370 C1364 1.368 . S
C1370 C1369 1.523 . S
C1371 C1355 1.493 . S
C1371 C1367 1.429 . S
C1371 C1372 1.523 . S
C1372 C1356 1.368 . S
C1372 C1368 1.368 . S
C1372 C1371 1.523 . S
H1373 C1348 0.950 . S
H1374 C1350 0.950 . S
H1375 C1351 0.949 . S
H1376 C1353 0.950 . S
H1377 C1355 0.907 1_554 S
C1378 C1379 1.349 . S
C1378 C1380 1.327 . S
C1378 H1403 0.950 . S
C1379 C1378 1.349 . S
C1379 C1395 1.349 . S
C1380 C1378 1.327 . S
C1380 C1399 1.429 . S
C1380 H1404 0.950 . S
C1381 C1398 1.574 . S
C1381 C1400 1.368 . S
C1381 H1405 0.949 . S
H1382 C1386 0.949 . S
C1383 C1384 1.349 . S
C1383 C1385 1.327 . S
C1383 H1406 0.950 . S
C1384 C1383 1.349 . S
C1384 C1396 1.349 . S
C1385 C1383 1.327 . S
C1385 C1401 1.429 . S
C1385 H1407 0.950 . S
C1386 H1382 0.949 . S
C1386 C1394 1.574 . S
C1386 C1402 1.368 . S
H1387 C1395 0.950 . S
H1388 C1393 0.950 . S
H1389 C1394 0.949 . S
H1390 C1396 0.950 . S
H1391 C1397 0.950 . S
H1392 C1398 0.949 . S
C1393 H1388 0.950 . S
C1393 C1395 1.327 . S
C1393 C1399 1.429 . S
C1394 C1386 1.574 . S
C1394 H1389 0.949 . S
C1394 C1400 1.368 . S
C1395 C1379 1.349 . S
C1395 H1387 0.950 . S
C1395 C1393 1.327 . S
C1396 C1384 1.349 . S
C1396 H1390 0.950 . S
C1396 C1397 1.327 . S
C1397 H1391 0.950 . S
C1397 C1396 1.327 . S
C1397 C1401 1.429 . S
C1398 C1381 1.574 . S
C1398 H1392 0.949 . S
C1398 C1402 1.368 . S
C1399 C1380 1.429 . S
C1399 C1393 1.429 . S
C1399 C1400 1.523 . S
C1400 C1381 1.368 . S
C1400 C1394 1.368 . S
C1400 C1399 1.523 . S
C1401 C1385 1.429 . S
C1401 C1397 1.429 . S
C1401 C1402 1.523 . S
C1402 C1386 1.368 . S
C1402 C1398 1.368 . S
C1402 C1401 1.523 . S
H1403 C1378 0.950 . S
H1404 C1380 0.950 . S
H1405 C1381 0.949 . S
H1406 C1383 0.950 . S
H1407 C1385 0.950 . S
C1408 C1409 1.349 . S
C1408 C1410 1.327 . S
C1408 H1433 0.950 . S
C1409 C1408 1.349 . S
C1409 C1425 1.349 . S
C1410 C1408 1.327 . S
C1410 C1429 1.429 . S
C1410 H1434 0.950 . S
C1411 C1428 1.574 . S
C1411 C1430 1.368 . S
C1411 H1435 0.949 . S
H1412 C1416 0.949 . S
C1413 C1414 1.349 . S
C1413 C1415 1.327 . S
C1413 H1436 0.950 . S
C1414 C1413 1.349 . S
C1414 C1426 1.349 . S
C1415 C1413 1.327 . S
C1415 C1431 1.429 . S
C1415 H1437 0.950 . S
C1416 H1412 0.949 . S
C1416 C1424 1.574 . S
C1416 C1432 1.368 . S
H1417 C1425 0.950 . S
H1418 C1423 0.950 . S
H1419 C1424 0.949 . S
H1420 C1426 0.950 . S
H1421 C1427 0.950 . S
H1422 C1428 0.949 . S
C1423 H1418 0.950 . S
C1423 C1425 1.327 . S
C1423 C1429 1.429 . S
C1424 C1416 1.574 . S
C1424 H1419 0.949 . S
C1424 C1430 1.368 . S
C1425 C1409 1.349 . S
C1425 H1417 0.950 . S
C1425 C1423 1.327 . S
C1426 C1414 1.349 . S
C1426 H1420 0.950 . S
C1426 C1427 1.327 . S
C1427 H1421 0.950 . S
C1427 C1426 1.327 . S
C1427 C1431 1.429 . S
C1428 C1411 1.574 . S
C1428 H1422 0.949 . S
C1428 C1432 1.368 . S
C1429 C1410 1.429 . S
C1429 C1423 1.429 . S
C1429 C1430 1.523 . S
C1430 C1411 1.368 . S
C1430 C1424 1.368 . S
C1430 C1429 1.523 . S
C1431 C1415 1.429 . S
C1431 C1427 1.429 . S
C1431 C1432 1.523 . S
C1432 C1416 1.368 . S
C1432 C1428 1.368 . S
C1432 C1431 1.523 . S
H1433 C1408 0.950 . S
H1434 C1410 0.950 . S
H1435 C1411 0.949 . S
H1436 C1413 0.950 . S
H1437 C1415 0.950 . S
C1438 C1439 1.349 . S
C1438 C1440 1.327 . S
C1438 H1463 0.950 . S
C1439 C1438 1.349 . S
C1439 C1455 1.349 . S
C1440 C1438 1.327 . S
C1440 C1459 1.429 . S
C1440 H1464 0.950 . S
C1441 C1458 1.574 . S
C1441 C1460 1.368 . S
C1441 H1465 0.949 . S
H1442 C1446 0.949 . S
C1443 C1444 1.349 . S
C1443 C1445 1.327 . S
C1443 H1466 0.950 . S
C1444 C1443 1.349 . S
C1444 C1456 1.349 . S
C1445 C1443 1.327 . S
C1445 C1461 1.429 . S
C1445 H1467 0.950 . S
C1446 H1442 0.949 . S
C1446 C1454 1.574 . S
C1446 C1462 1.368 . S
H1447 C1455 0.950 . S
H1448 C1453 0.950 . S
H1449 C1454 0.949 . S
H1450 C1456 0.950 . S
H1451 C1457 0.950 . S
H1452 C1458 0.949 . S
C1453 H1448 0.950 . S
C1453 C1455 1.327 . S
C1453 C1459 1.429 . S
C1454 C1446 1.574 . S
C1454 H1449 0.949 . S
C1454 C1460 1.368 . S
C1455 C1439 1.349 . S
C1455 H1447 0.950 . S
C1455 C1453 1.327 . S
C1456 C1444 1.349 . S
C1456 H1450 0.950 . S
C1456 C1457 1.327 . S
C1457 H1451 0.950 . S
C1457 C1456 1.327 . S
C1457 C1461 1.429 . S
C1458 C1441 1.574 . S
C1458 H1452 0.949 . S
C1458 C1462 1.368 . S
C1459 C1440 1.429 . S
C1459 C1453 1.429 . S
C1459 C1460 1.523 . S
C1460 C1441 1.368 . S
C1460 C1454 1.368 . S
C1460 C1459 1.523 . S
C1461 C1445 1.429 . S
C1461 C1457 1.429 . S
C1461 C1462 1.523 . S
C1462 C1446 1.368 . S
C1462 C1458 1.368 . S
C1462 C1461 1.523 . S
H1463 C1438 0.950 . S
H1464 C1440 0.950 . S
H1465 C1441 0.949 . S
H1466 C1443 0.950 . S
H1467 C1445 0.950 . S
C1468 C1469 1.349 . S
C1468 C1470 1.327 . S
C1468 H1493 0.950 . S
C1469 C1468 1.349 . S
C1469 C1485 1.349 . S
C1470 C1468 1.327 . S
C1470 C1489 1.429 . S
C1470 H1494 0.950 . S
C1471 C1488 1.574 . S
C1471 C1490 1.368 . S
C1471 H1495 0.949 . S
H1472 C1476 0.949 . S
C1473 C1474 1.349 . S
C1473 C1475 1.327 . S
C1473 H1496 0.950 . S
C1474 C1473 1.349 . S
C1474 C1486 1.349 . S
C1475 C1473 1.327 . S
C1475 C1491 1.429 . S
C1475 H1497 0.950 . S
C1476 H1472 0.949 . S
C1476 C1484 1.574 . S
C1476 C1492 1.368 . S
H1477 C1485 0.950 . S
H1478 C1483 0.950 . S
H1479 C1484 0.949 . S
H1480 C1486 0.950 . S
H1481 C1487 0.950 . S
H1482 C1488 0.949 . S
C1483 H1478 0.950 . S
C1483 C1485 1.327 . S
C1483 C1489 1.429 . S
C1484 C1476 1.574 . S
C1484 H1479 0.949 . S
C1484 C1490 1.368 . S
C1485 C1469 1.349 . S
C1485 H1477 0.950 . S
C1485 C1483 1.327 . S
C1486 C1474 1.349 . S
C1486 H1480 0.950 . S
C1486 C1487 1.327 . S
C1487 H1481 0.950 . S
C1487 C1486 1.327 . S
C1487 C1491 1.429 . S
C1488 C1471 1.574 . S
C1488 H1482 0.949 . S
C1488 C1492 1.368 . S
C1489 C1470 1.429 . S
C1489 C1483 1.429 . S
C1489 C1490 1.523 . S
C1490 C1471 1.368 . S
C1490 C1484 1.368 . S
C1490 C1489 1.523 . S
C1491 C1475 1.429 . S
C1491 C1487 1.429 . S
C1491 C1492 1.523 . S
C1492 C1476 1.368 . S
C1492 C1488 1.368 . S
C1492 C1491 1.523 . S
H1493 C1468 0.950 . S
H1494 C1470 0.950 . S
H1495 C1471 0.949 . S
H1496 C1473 0.950 . S
H1497 C1475 0.950 . S
C1498 C1499 1.349 . S
C1498 C1500 1.327 . S
C1498 H1523 0.950 . S
C1499 C1498 1.349 . S
C1499 C1515 1.349 . S
C1500 C1498 1.327 . S
C1500 C1519 1.429 . S
C1500 H1524 0.950 . S
C1501 C1518 1.574 . S
C1501 C1520 1.368 . S
C1501 H1525 0.949 . S
H1502 C1506 0.949 . S
C1503 C1504 1.349 . S
C1503 C1505 1.327 . S
C1503 H1526 0.950 . S
C1504 C1503 1.349 . S
C1504 C1516 1.349 . S
C1505 C1503 1.327 . S
C1505 C1521 1.429 . S
C1505 H1527 0.950 . S
C1506 H1502 0.949 . S
C1506 C1514 1.574 . S
C1506 C1522 1.368 . S
H1507 C1515 0.950 . S
H1508 C1513 0.950 . S
H1509 C1514 0.949 . S
H1510 C1516 0.950 . S
H1511 C1517 0.950 . S
H1512 C1518 0.949 . S
C1513 H1508 0.950 . S
C1513 C1515 1.327 . S
C1513 C1519 1.429 . S
C1514 C1506 1.574 . S
C1514 H1509 0.949 . S
C1514 C1520 1.368 . S
C1515 C1499 1.349 . S
C1515 H1507 0.950 . S
C1515 C1513 1.327 . S
C1516 C1504 1.349 . S
C1516 H1510 0.950 . S
C1516 C1517 1.327 . S
C1517 H1511 0.950 . S
C1517 C1516 1.327 . S
C1517 C1521 1.429 . S
C1518 C1501 1.574 . S
C1518 H1512 0.949 . S
C1518 C1522 1.368 . S
C1519 C1500 1.429 . S
C1519 C1513 1.429 . S
C1519 C1520 1.523 . S
C1520 C1501 1.368 . S
C1520 C1514 1.368 . S
C1520 C1519 1.523 . S
C1521 C1505 1.429 . S
C1521 C1517 1.429 . S
C1521 C1522 1.523 . S
C1522 C1506 1.368 . S
C1522 C1518 1.368 . S
C1522 C1521 1.523 . S
H1523 C1498 0.950 . S
H1524 C1500 0.950 . S
H1525 C1501 0.949 . S
H1526 C1503 0.950 . S
H1527 C1505 0.950 . S
C1528 C1529 1.349 . S
C1528 C1530 1.327 . S
C1528 H1553 0.950 . S
C1529 C1528 1.349 . S
C1529 C1545 1.349 . S
C1530 C1528 1.327 . S
C1530 C1549 1.429 . S
C1530 H1554 0.950 . S
C1531 C1548 1.574 . S
C1531 C1550 1.368 . S
C1531 H1555 0.949 . S
H1532 C1536 0.949 . S
C1533 C1534 1.349 . S
C1533 C1535 1.327 . S
C1533 H1556 0.950 . S
C1534 C1533 1.349 . S
C1534 C1546 1.349 . S
C1535 C1533 1.327 . S
C1535 C1551 1.429 . S
C1535 H1557 0.950 . S
C1536 H1532 0.949 . S
C1536 C1544 1.574 . S
C1536 C1552 1.368 . S
H1537 C1545 0.950 . S
H1538 C1543 0.950 . S
H1539 C1544 0.949 . S
H1540 C1546 0.950 . S
H1541 C1547 0.950 . S
H1542 C1548 0.949 . S
C1543 H1538 0.950 . S
C1543 C1545 1.327 . S
C1543 C1549 1.429 . S
C1544 C1536 1.574 . S
C1544 H1539 0.949 . S
C1544 C1550 1.368 . S
C1545 C1529 1.349 . S
C1545 H1537 0.950 . S
C1545 C1543 1.327 . S
C1546 C1534 1.349 . S
C1546 H1540 0.950 . S
C1546 C1547 1.327 . S
C1547 H1541 0.950 . S
C1547 C1546 1.327 . S
C1547 C1551 1.429 . S
C1548 C1531 1.574 . S
C1548 H1542 0.949 . S
C1548 C1552 1.368 . S
C1549 C1530 1.429 . S
C1549 C1543 1.429 . S
C1549 C1550 1.523 . S
C1550 C1531 1.368 . S
C1550 C1544 1.368 . S
C1550 C1549 1.523 . S
C1551 C1535 1.429 . S
C1551 C1547 1.429 . S
C1551 C1552 1.523 . S
C1552 C1536 1.368 . S
C1552 C1548 1.368 . S
C1552 C1551 1.523 . S
H1553 C1528 0.950 . S
H1554 C1530 0.950 . S
H1555 C1531 0.949 . S
H1556 C1533 0.950 . S
H1557 C1535 0.950 . S
C1558 C1559 1.349 . S
C1558 C1560 1.327 . S
C1558 H1583 0.950 . S
C1559 C1558 1.349 . S
C1559 C1575 1.349 . S
C1560 C1558 1.327 . S
C1560 C1579 1.429 . S
C1560 H1584 0.950 . S
C1561 C1578 1.574 . S
C1561 C1580 1.368 . S
C1561 H1585 0.949 . S
H1562 C1566 0.949 . S
C1563 C1564 1.349 . S
C1563 C1565 1.327 . S
C1563 H1586 0.950 . S
C1564 C1563 1.349 . S
C1564 C1576 1.349 . S
C1565 C1563 1.327 . S
C1565 C1581 1.429 . S
C1565 H1587 0.950 . S
C1566 H1562 0.949 . S
C1566 C1574 1.574 . S
C1566 C1582 1.368 . S
H1567 C1575 0.950 . S
H1568 C1573 0.950 . S
H1569 C1574 0.949 . S
H1570 C1576 0.950 1_565 S
H1571 C1577 0.950 1_565 S
H1572 C1578 0.949 . S
C1573 H1568 0.950 . S
C1573 C1575 1.327 . S
C1573 C1579 1.429 . S
C1574 C1566 1.574 . S
C1574 H1569 0.949 . S
C1574 C1580 1.368 . S
C1575 C1559 1.349 . S
C1575 H1567 0.950 . S
C1575 C1573 1.327 . S
C1576 C1564 1.349 . S
C1576 H1570 0.950 1_545 S
C1576 C1577 1.327 . S
C1577 H1571 0.950 1_545 S
C1577 C1576 1.327 . S
C1577 C1581 1.429 . S
C1578 C1561 1.574 . S
C1578 H1572 0.949 . S
C1578 C1582 1.368 . S
C1579 C1560 1.429 . S
C1579 C1573 1.429 . S
C1579 C1580 1.523 . S
C1580 C1561 1.368 . S
C1580 C1574 1.368 . S
C1580 C1579 1.523 . S
C1581 C1565 1.429 . S
C1581 C1577 1.429 . S
C1581 C1582 1.523 . S
C1582 C1566 1.368 . S
C1582 C1578 1.368 . S
C1582 C1581 1.523 . S
H1583 C1558 0.950 . S
H1584 C1560 0.950 . S
H1585 C1561 0.949 . S
H1586 C1563 0.950 . S
H1587 C1565 0.950 . S
C1588 C1589 1.349 . S
C1588 C1590 1.327 . S
C1588 H1613 0.950 . S
C1589 C1588 1.349 . S
C1589 C1605 1.349 . S
C1590 C1588 1.327 . S
C1590 C1609 1.429 . S
C1590 H1614 0.950 . S
C1591 C1608 1.574 . S
C1591 C1610 1.368 . S
C1591 H1615 0.949 . S
H1592 C1596 0.949 . S
C1593 C1594 1.349 . S
C1593 C1595 1.327 . S
C1593 H1616 0.950 . S
C1594 C1593 1.349 . S
C1594 C1606 1.349 . S
C1595 C1593 1.327 . S
C1595 C1611 1.429 . S
C1595 H1617 0.950 . S
C1596 H1592 0.949 . S
C1596 C1604 1.574 . S
C1596 C1612 1.368 . S
H1597 C1605 0.950 . S
H1598 C1603 0.950 . S
H1599 C1604 0.949 . S
H1600 C1606 0.950 . S
H1601 C1607 0.950 . S
H1602 C1608 0.949 . S
C1603 H1598 0.950 . S
C1603 C1605 1.327 . S
C1603 C1609 1.429 . S
C1604 C1596 1.574 . S
C1604 H1599 0.949 . S
C1604 C1610 1.368 . S
C1605 C1589 1.349 . S
C1605 H1597 0.950 . S
C1605 C1603 1.327 . S
C1606 C1594 1.349 . S
C1606 H1600 0.950 . S
C1606 C1607 1.327 . S
C1607 H1601 0.950 . S
C1607 C1606 1.327 . S
C1607 C1611 1.429 . S
C1608 C1591 1.574 . S
C1608 H1602 0.949 . S
C1608 C1612 1.368 . S
C1609 C1590 1.429 . S
C1609 C1603 1.429 . S
C1609 C1610 1.523 . S
C1610 C1591 1.368 . S
C1610 C1604 1.368 . S
C1610 C1609 1.523 . S
C1611 C1595 1.429 . S
C1611 C1607 1.429 . S
C1611 C1612 1.523 . S
C1612 C1596 1.368 . S
C1612 C1608 1.368 . S
C1612 C1611 1.523 . S
H1613 C1588 0.950 . S
H1614 C1590 0.950 . S
H1615 C1591 0.949 . S
H1616 C1593 0.950 . S
H1617 C1595 0.950 . S
C1618 C1619 1.349 . S
C1618 C1620 1.327 . S
C1618 H1643 0.950 . S
C1619 C1618 1.349 . S
C1619 C1635 1.349 . S
C1620 C1618 1.327 . S
C1620 C1639 1.429 . S
C1620 H1644 0.950 . S
C1621 C1638 1.574 . S
C1621 C1640 1.368 . S
C1621 H1645 0.949 . S
H1622 C1626 0.949 . S
C1623 C1624 1.349 . S
C1623 C1625 1.327 . S
C1623 H1646 0.950 . S
C1624 C1623 1.349 . S
C1624 C1636 1.349 . S
C1625 C1623 1.327 . S
C1625 C1641 1.429 . S
C1625 H1647 0.950 . S
C1626 H1622 0.949 . S
C1626 C1634 1.574 . S
C1626 C1642 1.368 . S
H1627 C1635 0.950 . S
H1628 C1633 0.950 . S
H1629 C1634 0.949 . S
H1630 C1636 0.950 . S
H1631 C1637 0.950 . S
H1632 C1638 0.949 . S
C1633 H1628 0.950 . S
C1633 C1635 1.327 . S
C1633 C1639 1.429 . S
C1634 C1626 1.574 . S
C1634 H1629 0.949 . S
C1634 C1640 1.368 . S
C1635 C1619 1.349 . S
C1635 H1627 0.950 . S
C1635 C1633 1.327 . S
C1636 C1624 1.349 . S
C1636 H1630 0.950 . S
C1636 C1637 1.327 . S
C1637 H1631 0.950 . S
C1637 C1636 1.327 . S
C1637 C1641 1.429 . S
C1638 C1621 1.574 . S
C1638 H1632 0.949 . S
C1638 C1642 1.368 . S
C1639 C1620 1.429 . S
C1639 C1633 1.429 . S
C1639 C1640 1.523 . S
C1640 C1621 1.368 . S
C1640 C1634 1.368 . S
C1640 C1639 1.523 . S
C1641 C1625 1.429 . S
C1641 C1637 1.429 . S
C1641 C1642 1.523 . S
C1642 C1626 1.368 . S
C1642 C1638 1.368 . S
C1642 C1641 1.523 . S
H1643 C1618 0.950 . S
H1644 C1620 0.950 . S
H1645 C1621 0.949 . S
H1646 C1623 0.950 . S
H1647 C1625 0.950 . S
C1648 C1649 1.349 . S
C1648 C1650 1.327 . S
C1648 H1673 0.950 . S
C1649 C1648 1.349 . S
C1649 C1665 1.349 . S
C1650 C1648 1.327 . S
C1650 C1669 1.429 . S
C1650 H1674 0.950 . S
C1651 C1668 1.574 . S
C1651 C1670 1.368 . S
C1651 H1675 0.949 . S
H1652 C1656 0.949 . S
C1653 C1654 1.349 . S
C1653 C1655 1.327 . S
C1653 H1676 0.950 . S
C1654 C1653 1.349 . S
C1654 C1666 1.349 . S
C1655 C1653 1.327 . S
C1655 C1671 1.429 . S
C1655 H1677 0.950 . S
C1656 H1652 0.949 . S
C1656 C1664 1.574 . S
C1656 C1672 1.368 . S
H1657 C1665 0.950 . S
H1658 C1663 0.950 . S
H1659 C1664 0.949 . S
H1660 C1666 0.950 . S
H1661 C1667 0.950 . S
H1662 C1668 0.949 . S
C1663 H1658 0.950 . S
C1663 C1665 1.327 . S
C1663 C1669 1.429 . S
C1664 C1656 1.574 . S
C1664 H1659 0.949 . S
C1664 C1670 1.368 . S
C1665 C1649 1.349 . S
C1665 H1657 0.950 . S
C1665 C1663 1.327 . S
C1666 C1654 1.349 . S
C1666 H1660 0.950 . S
C1666 C1667 1.327 . S
C1667 H1661 0.950 . S
C1667 C1666 1.327 . S
C1667 C1671 1.429 . S
C1668 C1651 1.574 . S
C1668 H1662 0.949 . S
C1668 C1672 1.368 . S
C1669 C1650 1.429 . S
C1669 C1663 1.429 . S
C1669 C1670 1.523 . S
C1670 C1651 1.368 . S
C1670 C1664 1.368 . S
C1670 C1669 1.523 . S
C1671 C1655 1.429 . S
C1671 C1667 1.429 . S
C1671 C1672 1.523 . S
C1672 C1656 1.368 . S
C1672 C1668 1.368 . S
C1672 C1671 1.523 . S
H1673 C1648 0.950 . S
H1674 C1650 0.950 . S
H1675 C1651 0.949 . S
H1676 C1653 0.950 . S
H1677 C1655 0.950 . S
C1678 C1679 1.349 . S
C1678 C1680 1.327 . S
C1678 H1703 0.950 . S
C1679 C1678 1.349 . S
C1679 C1695 1.349 . S
C1680 C1678 1.327 . S
C1680 C1699 1.429 . S
C1680 H1704 0.950 . S
C1681 C1698 1.574 . S
C1681 C1700 1.368 . S
C1681 H1705 0.949 . S
H1682 C1686 0.949 1_565 S
C1683 C1684 1.349 . S
C1683 C1685 1.327 . S
C1683 H1706 0.950 . S
C1684 C1683 1.349 . S
C1684 C1696 1.345 . S
C1685 C1683 1.327 . S
C1685 C1701 1.429 . S
C1685 H1707 0.950 . S
C1686 H1682 0.949 1_545 S
C1686 C1694 1.574 . S
C1686 C1702 1.368 . S
H1687 C1695 0.950 . S
H1688 C1693 0.950 . S
H1689 C1694 0.944 1_565 S
H1690 C1696 0.954 1_565 S
H1691 C1697 0.950 1_565 S
H1692 C1698 0.949 . S
C1693 H1688 0.950 . S
C1693 C1695 1.327 . S
C1693 C1699 1.429 . S
C1694 C1686 1.574 . S
C1694 H1689 0.944 1_545 S
C1694 C1700 1.368 . S
C1695 C1679 1.349 . S
C1695 H1687 0.950 . S
C1695 C1693 1.327 . S
C1696 C1684 1.345 . S
C1696 H1690 0.954 1_545 S
C1696 C1697 1.327 . S
C1697 H1691 0.950 1_545 S
C1697 C1696 1.327 . S
C1697 C1701 1.429 . S
C1698 C1681 1.574 . S
C1698 H1692 0.949 . S
C1698 C1702 1.368 . S
C1699 C1680 1.429 . S
C1699 C1693 1.429 . S
C1699 C1700 1.523 . S
C1700 C1681 1.368 . S
C1700 C1694 1.368 . S
C1700 C1699 1.523 . S
C1701 C1685 1.429 . S
C1701 C1697 1.429 . S
C1701 C1702 1.523 . S
C1702 C1686 1.368 . S
C1702 C1698 1.368 . S
C1702 C1701 1.523 . S
H1703 C1678 0.950 . S
H1704 C1680 0.950 . S
H1705 C1681 0.949 . S
H1706 C1683 0.950 . S
H1707 C1685 0.950 . S
C1708 C1709 1.349 . S
C1708 C1710 1.327 . S
C1708 H1733 0.950 . S
C1709 C1708 1.349 . S
C1709 C1725 1.349 . S
C1710 C1708 1.327 . S
C1710 C1729 1.429 . S
C1710 H1734 0.950 . S
C1711 C1728 1.574 . S
C1711 C1730 1.368 . S
C1711 H1735 0.949 . S
H1712 C1716 0.949 . S
C1713 C1714 1.349 . S
C1713 C1715 1.327 . S
C1713 H1736 0.950 . S
C1714 C1713 1.349 . S
C1714 C1726 1.349 . S
C1715 C1713 1.327 . S
C1715 C1731 1.429 . S
C1715 H1737 0.950 . S
C1716 H1712 0.949 . S
C1716 C1724 1.574 . S
C1716 C1732 1.368 . S
H1717 C1725 0.950 . S
H1718 C1723 0.950 . S
H1719 C1724 0.949 . S
H1720 C1726 0.950 . S
H1721 C1727 0.950 . S
H1722 C1728 0.949 . S
C1723 H1718 0.950 . S
C1723 C1725 1.327 . S
C1723 C1729 1.429 . S
C1724 C1716 1.574 . S
C1724 H1719 0.949 . S
C1724 C1730 1.368 . S
C1725 C1709 1.349 . S
C1725 H1717 0.950 . S
C1725 C1723 1.327 . S
C1726 C1714 1.349 . S
C1726 H1720 0.950 . S
C1726 C1727 1.327 . S
C1727 H1721 0.950 . S
C1727 C1726 1.327 . S
C1727 C1731 1.429 . S
C1728 C1711 1.574 . S
C1728 H1722 0.949 . S
C1728 C1732 1.368 . S
C1729 C1710 1.429 . S
C1729 C1723 1.429 . S
C1729 C1730 1.523 . S
C1730 C1711 1.368 . S
C1730 C1724 1.368 . S
C1730 C1729 1.523 . S
C1731 C1715 1.429 . S
C1731 C1727 1.429 . S
C1731 C1732 1.523 . S
C1732 C1716 1.368 . S
C1732 C1728 1.368 . S
C1732 C1731 1.523 . S
H1733 C1708 0.950 . S
H1734 C1710 0.950 . S
H1735 C1711 0.949 . S
H1736 C1713 0.950 . S
H1737 C1715 0.950 . S
C1738 C1739 1.349 . S
C1738 C1740 1.327 . S
C1738 H1763 0.950 1_455 S
C1739 C1738 1.349 . S
C1739 C1755 1.349 . S
C1740 C1738 1.327 . S
C1740 C1759 1.429 . S
C1740 H1764 0.950 . S
C1741 C1758 1.574 . S
C1741 C1760 1.368 . S
C1741 H1765 0.949 . S
H1742 C1746 0.949 . S
C1743 C1744 1.349 . S
C1743 C1745 1.327 . S
C1743 H1766 0.950 . S
C1744 C1743 1.349 . S
C1744 C1756 1.349 . S
C1745 C1743 1.327 . S
C1745 C1761 1.429 . S
C1745 H1767 0.950 . S
C1746 H1742 0.949 . S
C1746 C1754 1.574 . S
C1746 C1762 1.368 . S
H1747 C1755 0.950 . S
H1748 C1753 0.950 . S
H1749 C1754 0.949 . S
H1750 C1756 0.950 . S
H1751 C1757 0.950 . S
H1752 C1758 0.949 . S
C1753 H1748 0.950 . S
C1753 C1755 1.327 . S
C1753 C1759 1.429 . S
C1754 C1746 1.574 . S
C1754 H1749 0.949 . S
C1754 C1760 1.368 . S
C1755 C1739 1.349 . S
C1755 H1747 0.950 . S
C1755 C1753 1.327 . S
C1756 C1744 1.349 . S
C1756 H1750 0.950 . S
C1756 C1757 1.327 . S
C1757 H1751 0.950 . S
C1757 C1756 1.327 . S
C1757 C1761 1.429 . S
C1758 C1741 1.574 . S
C1758 H1752 0.949 . S
C1758 C1762 1.368 . S
C1759 C1740 1.429 . S
C1759 C1753 1.429 . S
C1759 C1760 1.523 . S
C1760 C1741 1.368 . S
C1760 C1754 1.368 . S
C1760 C1759 1.523 . S
C1761 C1745 1.429 . S
C1761 C1757 1.429 . S
C1761 C1762 1.523 . S
C1762 C1746 1.368 . S
C1762 C1758 1.368 . S
C1762 C1761 1.523 . S
H1763 C1738 0.950 1_655 S
H1764 C1740 0.950 . S
H1765 C1741 0.949 . S
H1766 C1743 0.950 . S
H1767 C1745 0.950 . S
C1768 C1769 1.349 . S
C1768 C1770 1.327 . S
C1768 H1793 0.950 . S
C1769 C1768 1.349 . S
C1769 C1785 1.349 . S
C1770 C1768 1.327 . S
C1770 C1789 1.429 . S
C1770 H1794 0.950 . S
C1771 C1788 1.574 . S
C1771 C1790 1.368 . S
C1771 H1795 0.949 . S
H1772 C1776 0.949 . S
C1773 C1774 1.349 . S
C1773 C1775 1.327 . S
C1773 H1796 0.950 . S
C1774 C1773 1.349 . S
C1774 C1786 1.349 . S
C1775 C1773 1.327 . S
C1775 C1791 1.429 . S
C1775 H1797 0.950 . S
C1776 H1772 0.949 . S
C1776 C1784 1.574 . S
C1776 C1792 1.368 . S
H1777 C1785 0.950 . S
H1778 C1783 0.950 . S
H1779 C1784 0.949 . S
H1780 C1786 0.950 . S
H1781 C1787 0.950 . S
H1782 C1788 0.949 . S
C1783 H1778 0.950 . S
C1783 C1785 1.327 . S
C1783 C1789 1.429 . S
C1784 C1776 1.574 . S
C1784 H1779 0.949 . S
C1784 C1790 1.368 . S
C1785 C1769 1.349 . S
C1785 H1777 0.950 . S
C1785 C1783 1.327 . S
C1786 C1774 1.349 . S
C1786 H1780 0.950 . S
C1786 C1787 1.327 . S
C1787 H1781 0.950 . S
C1787 C1786 1.327 . S
C1787 C1791 1.429 . S
C1788 C1771 1.574 . S
C1788 H1782 0.949 . S
C1788 C1792 1.368 . S
C1789 C1770 1.429 . S
C1789 C1783 1.429 . S
C1789 C1790 1.523 . S
C1790 C1771 1.368 . S
C1790 C1784 1.368 . S
C1790 C1789 1.523 . S
C1791 C1775 1.429 . S
C1791 C1787 1.429 . S
C1791 C1792 1.523 . S
C1792 C1776 1.368 . S
C1792 C1788 1.368 . S
C1792 C1791 1.523 . S
H1793 C1768 0.950 . S
H1794 C1770 0.950 . S
H1795 C1771 0.949 . S
H1796 C1773 0.950 . S
H1797 C1775 0.950 . S
C1798 C1799 1.349 . S
C1798 C1800 1.327 . S
C1798 H1823 0.950 1_556 S
C1799 C1798 1.349 . S
C1799 C1815 1.349 . S
C1800 C1798 1.327 . S
C1800 C1819 1.429 . S
C1800 H1824 0.950 . S
C1801 C1818 1.574 . S
C1801 C1820 1.368 . S
C1801 H1825 0.949 . S
H1802 C1806 0.949 . S
C1803 C1804 1.372 . S
C1803 C1805 1.343 . S
C1803 H1826 0.914 1_655 S
C1804 C1803 1.372 . S
C1804 C1816 1.349 . S
C1805 C1803 1.343 . S
C1805 C1821 1.429 . S
C1805 H1827 0.947 1_655 S
C1806 H1802 0.949 . S
C1806 C1814 1.574 . S
C1806 C1822 1.368 . S
H1807 C1815 0.950 . S
H1808 C1813 0.950 . S
H1809 C1814 0.949 . S
H1810 C1816 0.950 . S
H1811 C1817 0.950 . S
H1812 C1818 0.949 . S
C1813 H1808 0.950 . S
C1813 C1815 1.327 . S
C1813 C1819 1.429 . S
C1814 C1806 1.574 . S
C1814 H1809 0.949 . S
C1814 C1820 1.368 . S
C1815 C1799 1.349 . S
C1815 H1807 0.950 . S
C1815 C1813 1.327 . S
C1816 C1804 1.349 . S
C1816 H1810 0.950 . S
C1816 C1817 1.327 . S
C1817 H1811 0.950 . S
C1817 C1816 1.327 . S
C1817 C1821 1.429 . S
C1818 C1801 1.574 . S
C1818 H1812 0.949 . S
C1818 C1822 1.368 . S
C1819 C1800 1.429 . S
C1819 C1813 1.429 . S
C1819 C1820 1.523 . S
C1820 C1801 1.368 . S
C1820 C1814 1.368 . S
C1820 C1819 1.523 . S
C1821 C1805 1.429 . S
C1821 C1817 1.429 . S
C1821 C1822 1.523 . S
C1822 C1806 1.368 . S
C1822 C1818 1.368 . S
C1822 C1821 1.523 . S
H1823 C1798 0.950 1_554 S
H1824 C1800 0.950 . S
H1825 C1801 0.949 . S
H1826 C1803 0.914 1_455 S
H1827 C1805 0.947 1_455 S
C1828 C1829 1.349 . S
C1828 C1830 1.327 . S
C1828 H1853 0.950 . S
C1829 C1828 1.349 . S
C1829 C1845 1.349 . S
C1830 C1828 1.327 . S
C1830 C1849 1.429 . S
C1830 H1854 0.950 . S
C1831 C1848 1.574 . S
C1831 C1850 1.368 . S
C1831 H1855 0.949 . S
H1832 C1836 0.949 . S
C1833 C1834 1.349 . S
C1833 C1835 1.327 . S
C1833 H1856 0.950 . S
C1834 C1833 1.349 . S
C1834 C1846 1.349 . S
C1835 C1833 1.327 . S
C1835 C1851 1.429 . S
C1835 H1857 0.950 . S
C1836 H1832 0.949 . S
C1836 C1844 1.574 . S
C1836 C1852 1.368 . S
H1837 C1845 0.950 . S
H1838 C1843 0.950 . S
H1839 C1844 0.949 . S
H1840 C1846 0.950 . S
H1841 C1847 0.950 . S
H1842 C1848 0.949 . S
C1843 H1838 0.950 . S
C1843 C1845 1.327 . S
C1843 C1849 1.429 . S
C1844 C1836 1.574 . S
C1844 H1839 0.949 . S
C1844 C1850 1.368 . S
C1845 C1829 1.349 . S
C1845 H1837 0.950 . S
C1845 C1843 1.327 . S
C1846 C1834 1.349 . S
C1846 H1840 0.950 . S
C1846 C1847 1.327 . S
C1847 H1841 0.950 . S
C1847 C1846 1.327 . S
C1847 C1851 1.429 . S
C1848 C1831 1.574 . S
C1848 H1842 0.949 . S
C1848 C1852 1.368 . S
C1849 C1830 1.429 . S
C1849 C1843 1.429 . S
C1849 C1850 1.523 . S
C1850 C1831 1.368 . S
C1850 C1844 1.368 . S
C1850 C1849 1.523 . S
C1851 C1835 1.429 . S
C1851 C1847 1.429 . S
C1851 C1852 1.523 . S
C1852 C1836 1.368 . S
C1852 C1848 1.368 . S
C1852 C1851 1.523 . S
H1853 C1828 0.950 . S
H1854 C1830 0.950 . S
H1855 C1831 0.949 . S
H1856 C1833 0.950 . S
H1857 C1835 0.950 . S
C1858 C1859 1.349 . S
C1858 C1860 1.327 . S
C1858 H1883 0.950 . S
C1859 C1858 1.349 . S
C1859 C1875 1.349 . S
C1860 C1858 1.327 . S
C1860 C1879 1.429 . S
C1860 H1884 0.950 . S
C1861 C1878 1.574 . S
C1861 C1880 1.368 . S
C1861 H1885 0.949 . S
H1862 C1866 0.949 1_655 S
C1863 C1864 1.349 . S
C1863 C1865 1.327 . S
C1863 H1886 0.950 . S
C1864 C1863 1.349 . S
C1864 C1876 1.349 . S
C1865 C1863 1.327 . S
C1865 C1881 1.429 . S
C1865 H1887 0.950 . S
C1866 H1862 0.949 1_455 S
C1866 C1874 1.574 . S
C1866 C1882 1.368 . S
H1867 C1875 0.950 . S
H1868 C1873 0.950 . S
H1869 C1874 0.949 . S
H1870 C1876 0.950 1_655 S
H1871 C1877 0.950 1_655 S
H1872 C1878 0.949 . S
C1873 H1868 0.950 . S
C1873 C1875 1.327 . S
C1873 C1879 1.429 . S
C1874 C1866 1.574 . S
C1874 H1869 0.949 . S
C1874 C1880 1.368 . S
C1875 C1859 1.349 . S
C1875 H1867 0.950 . S
C1875 C1873 1.327 . S
C1876 C1864 1.349 . S
C1876 H1870 0.950 1_455 S
C1876 C1877 1.327 . S
C1877 H1871 0.950 1_455 S
C1877 C1876 1.327 . S
C1877 C1881 1.429 . S
C1878 C1861 1.574 . S
C1878 H1872 0.949 . S
C1878 C1882 1.368 . S
C1879 C1860 1.429 . S
C1879 C1873 1.429 . S
C1879 C1880 1.523 . S
C1880 C1861 1.368 . S
C1880 C1874 1.368 . S
C1880 C1879 1.523 . S
C1881 C1865 1.429 . S
C1881 C1877 1.429 . S
C1881 C1882 1.523 . S
C1882 C1866 1.368 . S
C1882 C1878 1.368 . S
C1882 C1881 1.523 . S
H1883 C1858 0.950 . S
H1884 C1860 0.950 . S
H1885 C1861 0.949 . S
H1886 C1863 0.950 . S
H1887 C1865 0.950 . S
C1888 C1889 1.349 . S
C1888 C1890 1.327 . S
C1888 H1913 0.950 . S
C1889 C1888 1.349 . S
C1889 C1905 1.349 . S
C1890 C1888 1.327 . S
C1890 C1909 1.429 . S
C1890 H1914 0.950 . S
C1891 C1908 1.574 . S
C1891 C1910 1.368 . S
C1891 H1915 0.949 . S
H1892 C1896 0.949 . S
C1893 C1894 1.349 . S
C1893 C1895 1.327 . S
C1893 H1916 0.950 . S
C1894 C1893 1.349 . S
C1894 C1906 1.349 . S
C1895 C1893 1.327 . S
C1895 C1911 1.429 . S
C1895 H1917 0.950 . S
C1896 H1892 0.949 . S
C1896 C1904 1.574 . S
C1896 C1912 1.368 . S
H1897 C1905 0.950 . S
H1898 C1903 0.950 . S
H1899 C1904 0.949 . S
H1900 C1906 0.950 . S
H1901 C1907 0.950 . S
H1902 C1908 0.949 . S
C1903 H1898 0.950 . S
C1903 C1905 1.327 . S
C1903 C1909 1.429 . S
C1904 C1896 1.574 . S
C1904 H1899 0.949 . S
C1904 C1910 1.368 . S
C1905 C1889 1.349 . S
C1905 H1897 0.950 . S
C1905 C1903 1.327 . S
C1906 C1894 1.349 . S
C1906 H1900 0.950 . S
C1906 C1907 1.327 . S
C1907 H1901 0.950 . S
C1907 C1906 1.327 . S
C1907 C1911 1.429 . S
C1908 C1891 1.574 . S
C1908 H1902 0.949 . S
C1908 C1912 1.368 . S
C1909 C1890 1.429 . S
C1909 C1903 1.429 . S
C1909 C1910 1.523 . S
C1910 C1891 1.368 . S
C1910 C1904 1.368 . S
C1910 C1909 1.523 . S
C1911 C1895 1.429 . S
C1911 C1907 1.429 . S
C1911 C1912 1.523 . S
C1912 C1896 1.368 . S
C1912 C1908 1.368 . S
C1912 C1911 1.523 . S
H1913 C1888 0.950 . S
H1914 C1890 0.950 . S
H1915 C1891 0.949 . S
H1916 C1893 0.950 . S
H1917 C1895 0.950 . S
C1918 C1919 1.349 . S
C1918 C1920 1.327 . S
C1918 H1943 0.950 . S
C1919 C1918 1.349 . S
C1919 C1935 1.349 . S
C1920 C1918 1.327 . S
C1920 C1939 1.429 . S
C1920 H1944 0.950 . S
C1921 C1938 1.574 . S
C1921 C1940 1.368 . S
C1921 H1945 0.949 . S
H1922 C1926 0.949 . S
C1923 C1924 1.349 . S
C1923 C1925 1.327 . S
C1923 H1946 0.950 . S
C1924 C1923 1.349 . S
C1924 C1936 1.349 . S
C1925 C1923 1.327 . S
C1925 C1941 1.429 . S
C1925 H1947 0.950 . S
C1926 H1922 0.949 . S
C1926 C1934 1.574 . S
C1926 C1942 1.368 . S
H1927 C1935 0.950 . S
H1928 C1933 0.950 . S
H1929 C1934 0.949 . S
H1930 C1936 0.950 . S
H1931 C1937 0.950 . S
H1932 C1938 0.949 . S
C1933 H1928 0.950 . S
C1933 C1935 1.327 . S
C1933 C1939 1.429 . S
C1934 C1926 1.574 . S
C1934 H1929 0.949 . S
C1934 C1940 1.368 . S
C1935 C1919 1.349 . S
C1935 H1927 0.950 . S
C1935 C1933 1.327 . S
C1936 C1924 1.349 . S
C1936 H1930 0.950 . S
C1936 C1937 1.327 . S
C1937 H1931 0.950 . S
C1937 C1936 1.327 . S
C1937 C1941 1.429 . S
C1938 C1921 1.574 . S
C1938 H1932 0.949 . S
C1938 C1942 1.368 . S
C1939 C1920 1.429 . S
C1939 C1933 1.429 . S
C1939 C1940 1.523 . S
C1940 C1921 1.368 . S
C1940 C1934 1.368 . S
C1940 C1939 1.523 . S
C1941 C1925 1.429 . S
C1941 C1937 1.429 . S
C1941 C1942 1.523 . S
C1942 C1926 1.368 . S
C1942 C1938 1.368 . S
C1942 C1941 1.523 . S
H1943 C1918 0.950 . S
H1944 C1920 0.950 . S
H1945 C1921 0.949 . S
H1946 C1923 0.950 . S
H1947 C1925 0.950 . S
C1948 C1949 1.349 . S
C1948 C1950 1.327 . S
C1948 H1973 0.950 . S
C1949 C1948 1.349 . S
C1949 C1965 1.349 . S
C1950 C1948 1.327 . S
C1950 C1969 1.429 . S
C1950 H1974 0.950 . S
C1951 C1968 1.574 . S
C1951 C1970 1.368 . S
C1951 H1975 0.949 . S
H1952 C1956 0.949 . S
C1953 C1954 1.349 . S
C1953 C1955 1.327 . S
C1953 H1976 0.950 . S
C1954 C1953 1.349 . S
C1954 C1966 1.349 . S
C1955 C1953 1.327 . S
C1955 C1971 1.429 . S
C1955 H1977 0.950 . S
C1956 H1952 0.949 . S
C1956 C1964 1.574 . S
C1956 C1972 1.368 . S
H1957 C1965 0.950 . S
H1958 C1963 0.950 . S
H1959 C1964 0.949 . S
H1960 C1966 0.950 . S
H1961 C1967 0.950 . S
H1962 C1968 0.949 . S
C1963 H1958 0.950 . S
C1963 C1965 1.327 . S
C1963 C1969 1.429 . S
C1964 C1956 1.574 . S
C1964 H1959 0.949 . S
C1964 C1970 1.368 . S
C1965 C1949 1.349 . S
C1965 H1957 0.950 . S
C1965 C1963 1.327 . S
C1966 C1954 1.349 . S
C1966 H1960 0.950 . S
C1966 C1967 1.327 . S
C1967 H1961 0.950 . S
C1967 C1966 1.327 . S
C1967 C1971 1.429 . S
C1968 C1951 1.574 . S
C1968 H1962 0.949 . S
C1968 C1972 1.368 . S
C1969 C1950 1.429 . S
C1969 C1963 1.429 . S
C1969 C1970 1.523 . S
C1970 C1951 1.368 . S
C1970 C1964 1.368 . S
C1970 C1969 1.523 . S
C1971 C1955 1.429 . S
C1971 C1967 1.429 . S
C1971 C1972 1.523 . S
C1972 C1956 1.368 . S
C1972 C1968 1.368 . S
C1972 C1971 1.523 . S
H1973 C1948 0.950 . S
H1974 C1950 0.950 . S
H1975 C1951 0.949 . S
H1976 C1953 0.950 . S
H1977 C1955 0.950 . S
C1978 C1979 1.349 . S
C1978 C1980 1.327 . S
C1978 H2003 0.950 . S
C1979 C1978 1.349 . S
C1979 C1995 1.349 . S
C1980 C1978 1.327 . S
C1980 C1999 1.429 . S
C1980 H2004 0.950 . S
C1981 C1998 1.574 . S
C1981 C2000 1.368 . S
C1981 H2005 0.949 . S
H1982 C1986 0.949 . S
C1983 C1984 1.349 . S
C1983 C1985 1.327 . S
C1983 H2006 0.950 . S
C1984 C1983 1.349 . S
C1984 C1996 1.349 . S
C1985 C1983 1.327 . S
C1985 C2001 1.429 . S
C1985 H2007 0.950 . S
C1986 H1982 0.949 . S
C1986 C1994 1.574 . S
C1986 C2002 1.368 . S
H1987 C1995 0.950 . S
H1988 C1993 0.950 . S
H1989 C1994 0.949 . S
H1990 C1996 0.950 . S
H1991 C1997 0.950 . S
H1992 C1998 0.949 . S
C1993 H1988 0.950 . S
C1993 C1995 1.327 . S
C1993 C1999 1.429 . S
C1994 C1986 1.574 . S
C1994 H1989 0.949 . S
C1994 C2000 1.368 . S
C1995 C1979 1.349 . S
C1995 H1987 0.950 . S
C1995 C1993 1.327 . S
C1996 C1984 1.349 . S
C1996 H1990 0.950 . S
C1996 C1997 1.327 . S
C1997 H1991 0.950 . S
C1997 C1996 1.327 . S
C1997 C2001 1.429 . S
C1998 C1981 1.574 . S
C1998 H1992 0.949 . S
C1998 C2002 1.368 . S
C1999 C1980 1.429 . S
C1999 C1993 1.429 . S
C1999 C2000 1.523 . S
C2000 C1981 1.368 . S
C2000 C1994 1.368 . S
C2000 C1999 1.523 . S
C2001 C1985 1.429 . S
C2001 C1997 1.429 . S
C2001 C2002 1.523 . S
C2002 C1986 1.368 . S
C2002 C1998 1.368 . S
C2002 C2001 1.523 . S
H2003 C1978 0.950 . S
H2004 C1980 0.950 . S
H2005 C1981 0.949 . S
H2006 C1983 0.950 . S
H2007 C1985 0.950 . S
C2008 C2009 1.349 . S
C2008 C2010 1.327 . S
C2008 H2033 0.950 . S
C2009 C2008 1.349 . S
C2009 C2025 1.349 . S
C2010 C2008 1.327 . S
C2010 C2029 1.429 . S
C2010 H2034 0.950 . S
C2011 C2028 1.574 . S
C2011 C2030 1.368 . S
C2011 H2035 0.949 . S
H2012 C2016 0.949 . S
C2013 C2014 1.349 . S
C2013 C2015 1.327 . S
C2013 H2036 0.950 . S
C2014 C2013 1.349 . S
C2014 C2026 1.349 . S
C2015 C2013 1.327 . S
C2015 C2031 1.429 . S
C2015 H2037 0.950 . S
C2016 H2012 0.949 . S
C2016 C2024 1.574 . S
C2016 C2032 1.368 . S
H2017 C2025 0.950 . S
H2018 C2023 0.950 . S
H2019 C2024 0.949 . S
H2020 C2026 0.950 . S
H2021 C2027 0.950 . S
H2022 C2028 0.949 . S
C2023 H2018 0.950 . S
C2023 C2025 1.327 . S
C2023 C2029 1.429 . S
C2024 C2016 1.574 . S
C2024 H2019 0.949 . S
C2024 C2030 1.368 . S
C2025 C2009 1.349 . S
C2025 H2017 0.950 . S
C2025 C2023 1.327 . S
C2026 C2014 1.349 . S
C2026 H2020 0.950 . S
C2026 C2027 1.327 . S
C2027 H2021 0.950 . S
C2027 C2026 1.327 . S
C2027 C2031 1.429 . S
C2028 C2011 1.574 . S
C2028 H2022 0.949 . S
C2028 C2032 1.368 . S
C2029 C2010 1.429 . S
C2029 C2023 1.429 . S
C2029 C2030 1.523 . S
C2030 C2011 1.368 . S
C2030 C2024 1.368 . S
C2030 C2029 1.523 . S
C2031 C2015 1.429 . S
C2031 C2027 1.429 . S
C2031 C2032 1.523 . S
C2032 C2016 1.368 . S
C2032 C2028 1.368 . S
C2032 C2031 1.523 . S
H2033 C2008 0.950 . S
H2034 C2010 0.950 . S
H2035 C2011 0.949 . S
H2036 C2013 0.950 . S
H2037 C2015 0.950 . S
C2038 C2039 1.349 . S
C2038 C2040 1.327 . S
C2038 H2063 0.950 . S
C2039 C2038 1.349 . S
C2039 C2055 1.349 . S
C2040 C2038 1.327 . S
C2040 C2059 1.429 . S
C2040 H2064 0.950 . S
C2041 C2058 1.574 . S
C2041 C2060 1.368 . S
C2041 H2065 0.949 . S
H2042 C2046 0.949 . S
C2043 C2044 1.349 . S
C2043 C2045 1.327 . S
C2043 H2066 0.950 . S
C2044 C2043 1.349 . S
C2044 C2056 1.349 . S
C2045 C2043 1.327 . S
C2045 C2061 1.429 . S
C2045 H2067 0.950 . S
C2046 H2042 0.949 . S
C2046 C2054 1.574 . S
C2046 C2062 1.368 . S
H2047 C2055 0.950 . S
H2048 C2053 0.950 . S
H2049 C2054 0.949 . S
H2050 C2056 0.950 . S
H2051 C2057 0.950 . S
H2052 C2058 0.949 . S
C2053 H2048 0.950 . S
C2053 C2055 1.327 . S
C2053 C2059 1.429 . S
C2054 C2046 1.574 . S
C2054 H2049 0.949 . S
C2054 C2060 1.368 . S
C2055 C2039 1.349 . S
C2055 H2047 0.950 . S
C2055 C2053 1.327 . S
C2056 C2044 1.349 . S
C2056 H2050 0.950 . S
C2056 C2057 1.327 . S
C2057 H2051 0.950 . S
C2057 C2056 1.327 . S
C2057 C2061 1.429 . S
C2058 C2041 1.574 . S
C2058 H2052 0.949 . S
C2058 C2062 1.368 . S
C2059 C2040 1.429 . S
C2059 C2053 1.429 . S
C2059 C2060 1.523 . S
C2060 C2041 1.368 . S
C2060 C2054 1.368 . S
C2060 C2059 1.523 . S
C2061 C2045 1.429 . S
C2061 C2057 1.429 . S
C2061 C2062 1.523 . S
C2062 C2046 1.368 . S
C2062 C2058 1.368 . S
C2062 C2061 1.523 . S
H2063 C2038 0.950 . S
H2064 C2040 0.950 . S
H2065 C2041 0.949 . S
H2066 C2043 0.950 . S
H2067 C2045 0.950 . S
C2068 C2069 1.349 . S
C2068 C2070 1.327 . S
C2068 H2093 0.950 . S
C2069 C2068 1.349 . S
C2069 C2085 1.349 . S
C2070 C2068 1.327 . S
C2070 C2089 1.429 . S
C2070 H2094 0.950 . S
C2071 C2088 1.574 . S
C2071 C2090 1.368 . S
C2071 H2095 0.949 . S
H2072 C2076 0.949 . S
C2073 C2074 1.349 . S
C2073 C2075 1.327 . S
C2073 H2096 0.950 . S
C2074 C2073 1.349 . S
C2074 C2086 1.349 . S
C2075 C2073 1.327 . S
C2075 C2091 1.429 . S
C2075 H2097 0.950 . S
C2076 H2072 0.949 . S
C2076 C2084 1.574 . S
C2076 C2092 1.368 . S
H2077 C2085 0.950 . S
H2078 C2083 0.950 . S
H2079 C2084 0.949 . S
H2080 C2086 0.950 . S
H2081 C2087 0.950 . S
H2082 C2088 0.949 . S
C2083 H2078 0.950 . S
C2083 C2085 1.327 . S
C2083 C2089 1.429 . S
C2084 C2076 1.574 . S
C2084 H2079 0.949 . S
C2084 C2090 1.368 . S
C2085 C2069 1.349 . S
C2085 H2077 0.950 . S
C2085 C2083 1.327 . S
C2086 C2074 1.349 . S
C2086 H2080 0.950 . S
C2086 C2087 1.327 . S
C2087 H2081 0.950 . S
C2087 C2086 1.327 . S
C2087 C2091 1.429 . S
C2088 C2071 1.574 . S
C2088 H2082 0.949 . S
C2088 C2092 1.368 . S
C2089 C2070 1.429 . S
C2089 C2083 1.429 . S
C2089 C2090 1.523 . S
C2090 C2071 1.368 . S
C2090 C2084 1.368 . S
C2090 C2089 1.523 . S
C2091 C2075 1.429 . S
C2091 C2087 1.429 . S
C2091 C2092 1.523 . S
C2092 C2076 1.368 . S
C2092 C2088 1.368 . S
C2092 C2091 1.523 . S
H2093 C2068 0.950 . S
H2094 C2070 0.950 . S
H2095 C2071 0.949 . S
H2096 C2073 0.950 . S
H2097 C2075 0.950 . S
C2098 C2099 1.349 . S
C2098 C2100 1.327 . S
C2098 H2123 0.950 . S
C2099 C2098 1.349 . S
C2099 C2115 1.349 . S
C2100 C2098 1.327 . S
C2100 C2119 1.429 . S
C2100 H2124 0.950 . S
C2101 C2118 1.574 . S
C2101 C2120 1.368 . S
C2101 H2125 0.949 . S
H2102 C2106 0.949 . S
C2103 C2104 1.349 . S
C2103 C2105 1.327 . S
C2103 H2126 0.950 . S
C2104 C2103 1.349 . S
C2104 C2116 1.349 . S
C2105 C2103 1.327 . S
C2105 C2121 1.429 . S
C2105 H2127 0.950 . S
C2106 H2102 0.949 . S
C2106 C2114 1.574 . S
C2106 C2122 1.368 . S
H2107 C2115 0.950 . S
H2108 C2113 0.950 . S
H2109 C2114 0.949 . S
H2110 C2116 0.950 . S
H2111 C2117 0.950 . S
H2112 C2118 0.949 . S
C2113 H2108 0.950 . S
C2113 C2115 1.327 . S
C2113 C2119 1.429 . S
C2114 C2106 1.574 . S
C2114 H2109 0.949 . S
C2114 C2120 1.368 . S
C2115 C2099 1.349 . S
C2115 H2107 0.950 . S
C2115 C2113 1.327 . S
C2116 C2104 1.349 . S
C2116 H2110 0.950 . S
C2116 C2117 1.327 . S
C2117 H2111 0.950 . S
C2117 C2116 1.327 . S
C2117 C2121 1.429 . S
C2118 C2101 1.574 . S
C2118 H2112 0.949 . S
C2118 C2122 1.368 . S
C2119 C2100 1.429 . S
C2119 C2113 1.429 . S
C2119 C2120 1.523 . S
C2120 C2101 1.368 . S
C2120 C2114 1.368 . S
C2120 C2119 1.523 . S
C2121 C2105 1.429 . S
C2121 C2117 1.429 . S
C2121 C2122 1.523 . S
C2122 C2106 1.368 . S
C2122 C2118 1.368 . S
C2122 C2121 1.523 . S
H2123 C2098 0.950 . S
H2124 C2100 0.950 . S
H2125 C2101 0.949 . S
H2126 C2103 0.950 . S
H2127 C2105 0.950 . S
C2128 C2129 1.349 . S
C2128 C2130 1.327 . S
C2128 H2153 0.950 . S
C2129 C2128 1.349 . S
C2129 C2145 1.349 . S
C2130 C2128 1.327 . S
C2130 C2149 1.429 . S
C2130 H2154 0.950 . S
C2131 C2148 1.574 . S
C2131 C2150 1.368 . S
C2131 H2155 0.908 1_556 S
H2132 C2136 0.949 . S
C2133 C2134 1.349 1_554 S
C2133 C2135 1.327 . S
C2133 H2156 0.950 . S
C2134 C2133 1.349 1_556 S
C2134 C2146 1.349 . S
C2135 C2133 1.327 . S
C2135 C2151 1.429 1_554 S
C2135 H2157 0.950 . S
C2136 H2132 0.949 . S
C2136 C2144 1.574 . S
C2136 C2152 1.368 . S
H2137 C2145 0.950 . S
H2138 C2143 0.950 . S
H2139 C2144 0.949 . S
H2140 C2146 0.950 . S
H2141 C2147 0.950 . S
H2142 C2148 0.949 1_554 S
C2143 H2138 0.950 . S
C2143 C2145 1.327 . S
C2143 C2149 1.429 . S
C2144 C2136 1.574 . S
C2144 H2139 0.949 . S
C2144 C2150 1.368 . S
C2145 C2129 1.349 . S
C2145 H2137 0.950 . S
C2145 C2143 1.327 . S
C2146 C2134 1.349 . S
C2146 H2140 0.950 . S
C2146 C2147 1.327 . S
C2147 H2141 0.950 . S
C2147 C2146 1.327 . S
C2147 C2151 1.429 . S
C2148 C2131 1.574 . S
C2148 H2142 0.949 1_556 S
C2148 C2152 1.368 . S
C2149 C2130 1.429 . S
C2149 C2143 1.429 . S
C2149 C2150 1.523 . S
C2150 C2131 1.368 . S
C2150 C2144 1.368 . S
C2150 C2149 1.523 . S
C2151 C2135 1.429 1_556 S
C2151 C2147 1.429 . S
C2151 C2152 1.523 . S
C2152 C2136 1.368 . S
C2152 C2148 1.368 . S
C2152 C2151 1.523 . S
H2153 C2128 0.950 . S
H2154 C2130 0.950 . S
H2155 C2131 0.908 1_554 S
H2156 C2133 0.950 . S
H2157 C2135 0.950 . S
C2158 C2159 1.349 . S
C2158 C2160 1.327 . S
C2158 H2183 0.950 . S
C2159 C2158 1.349 . S
C2159 C2175 1.349 . S
C2160 C2158 1.327 . S
C2160 C2179 1.429 . S
C2160 H2184 0.950 . S
C2161 C2178 1.574 . S
C2161 C2180 1.368 . S
C2161 H2185 0.949 . S
H2162 C2166 0.949 . S
C2163 C2164 1.349 . S
C2163 C2165 1.327 . S
C2163 H2186 0.950 . S
C2164 C2163 1.349 . S
C2164 C2176 1.349 . S
C2165 C2163 1.327 . S
C2165 C2181 1.429 . S
C2165 H2187 0.950 . S
C2166 H2162 0.949 . S
C2166 C2174 1.574 . S
C2166 C2182 1.368 . S
H2167 C2175 0.950 . S
H2168 C2173 0.950 . S
H2169 C2174 0.949 . S
H2170 C2176 0.950 . S
H2171 C2177 0.950 . S
H2172 C2178 0.949 . S
C2173 H2168 0.950 . S
C2173 C2175 1.327 . S
C2173 C2179 1.429 . S
C2174 C2166 1.574 . S
C2174 H2169 0.949 . S
C2174 C2180 1.368 . S
C2175 C2159 1.349 . S
C2175 H2167 0.950 . S
C2175 C2173 1.327 . S
C2176 C2164 1.349 . S
C2176 H2170 0.950 . S
C2176 C2177 1.327 . S
C2177 H2171 0.950 . S
C2177 C2176 1.327 . S
C2177 C2181 1.429 . S
C2178 C2161 1.574 . S
C2178 H2172 0.949 . S
C2178 C2182 1.368 . S
C2179 C2160 1.429 . S
C2179 C2173 1.429 . S
C2179 C2180 1.523 . S
C2180 C2161 1.368 . S
C2180 C2174 1.368 . S
C2180 C2179 1.523 . S
C2181 C2165 1.429 . S
C2181 C2177 1.429 . S
C2181 C2182 1.523 . S
C2182 C2166 1.368 . S
C2182 C2178 1.368 . S
C2182 C2181 1.523 . S
H2183 C2158 0.950 . S
H2184 C2160 0.950 . S
H2185 C2161 0.949 . S
H2186 C2163 0.950 . S
H2187 C2165 0.950 . S
C2188 C2189 1.349 . S
C2188 C2190 1.327 . S
C2188 H2213 0.950 . S
C2189 C2188 1.349 . S
C2189 C2205 1.349 . S
C2190 C2188 1.327 . S
C2190 C2209 1.429 . S
C2190 H2214 0.950 . S
C2191 C2208 1.574 . S
C2191 C2210 1.368 . S
C2191 H2215 0.949 . S
H2192 C2196 0.949 . S
C2193 C2194 1.349 . S
C2193 C2195 1.327 . S
C2193 H2216 0.950 . S
C2194 C2193 1.349 . S
C2194 C2206 1.349 . S
C2195 C2193 1.327 . S
C2195 C2211 1.429 . S
C2195 H2217 0.950 . S
C2196 H2192 0.949 . S
C2196 C2204 1.574 . S
C2196 C2212 1.368 . S
H2197 C2205 0.950 . S
H2198 C2203 0.950 . S
H2199 C2204 0.949 . S
H2200 C2206 0.950 1_556 S
H2201 C2207 0.950 . S
H2202 C2208 0.949 . S
C2203 H2198 0.950 . S
C2203 C2205 1.327 . S
C2203 C2209 1.429 . S
C2204 C2196 1.574 . S
C2204 H2199 0.949 . S
C2204 C2210 1.368 . S
C2205 C2189 1.349 . S
C2205 H2197 0.950 . S
C2205 C2203 1.327 . S
C2206 C2194 1.349 . S
C2206 H2200 0.950 1_554 S
C2206 C2207 1.327 . S
C2207 H2201 0.950 . S
C2207 C2206 1.327 . S
C2207 C2211 1.429 . S
C2208 C2191 1.574 . S
C2208 H2202 0.949 . S
C2208 C2212 1.368 . S
C2209 C2190 1.429 . S
C2209 C2203 1.429 . S
C2209 C2210 1.523 . S
C2210 C2191 1.368 . S
C2210 C2204 1.368 . S
C2210 C2209 1.523 . S
C2211 C2195 1.429 . S
C2211 C2207 1.429 . S
C2211 C2212 1.523 . S
C2212 C2196 1.368 . S
C2212 C2208 1.368 . S
C2212 C2211 1.523 . S
H2213 C2188 0.950 . S
H2214 C2190 0.950 . S
H2215 C2191 0.949 . S
H2216 C2193 0.950 . S
H2217 C2195 0.950 . S
C2218 C2219 1.349 . S
C2218 C2220 1.327 . S
C2218 H2243 0.950 . S
C2219 C2218 1.349 . S
C2219 C2235 1.349 . S
C2220 C2218 1.327 . S
C2220 C2239 1.429 . S
C2220 H2244 0.950 . S
C2221 C2238 1.574 . S
C2221 C2240 1.368 . S
C2221 H2245 0.949 . S
H2222 C2226 0.949 . S
C2223 C2224 1.349 . S
C2223 C2225 1.327 . S
C2223 H2246 0.936 1_554 S
C2224 C2223 1.349 . S
C2224 C2236 1.349 . S
C2225 C2223 1.327 . S
C2225 C2241 1.429 . S
C2225 H2247 0.950 . S
C2226 H2222 0.949 . S
C2226 C2234 1.574 . S
C2226 C2242 1.368 . S
H2227 C2235 0.950 . S
H2228 C2233 0.950 . S
H2229 C2234 0.949 . S
H2230 C2236 0.950 . S
H2231 C2237 0.950 . S
H2232 C2238 0.949 . S
C2233 H2228 0.950 . S
C2233 C2235 1.327 . S
C2233 C2239 1.429 . S
C2234 C2226 1.574 . S
C2234 H2229 0.949 . S
C2234 C2240 1.368 . S
C2235 C2219 1.349 . S
C2235 H2227 0.950 . S
C2235 C2233 1.327 . S
C2236 C2224 1.349 . S
C2236 H2230 0.950 . S
C2236 C2237 1.327 . S
C2237 H2231 0.950 . S
C2237 C2236 1.327 . S
C2237 C2241 1.429 . S
C2238 C2221 1.574 . S
C2238 H2232 0.949 . S
C2238 C2242 1.368 . S
C2239 C2220 1.429 . S
C2239 C2233 1.429 . S
C2239 C2240 1.523 . S
C2240 C2221 1.368 . S
C2240 C2234 1.368 . S
C2240 C2239 1.523 . S
C2241 C2225 1.429 . S
C2241 C2237 1.429 . S
C2241 C2242 1.523 . S
C2242 C2226 1.368 . S
C2242 C2238 1.368 . S
C2242 C2241 1.523 . S
H2243 C2218 0.950 . S
H2244 C2220 0.950 . S
H2245 C2221 0.949 . S
H2246 C2223 0.936 1_556 S
H2247 C2225 0.950 . S
C814 C648 1.482 . S
C809 C202 1.498 . S
C844 C661 1.487 . S
C839 C261 1.475 . S
C869 C282 1.697 . S
C874 C681 1.581 . S
C904 C695 1.354 . S
C899 C162 1.408 1_655 S
C934 C707 1.507 . S
C929 C402 1.501 . S
C964 C721 1.406 . S
C959 C482 1.399 . S
C989 C442 1.481 . S
C994 C731 1.488 . S
C1024 C746 1.529 . S
C1019 C381 1.543 . S
C1049 C461 1.560 . S
C1054 C760 1.542 . S
C1084 C779 1.324 . S
C1079 C362 1.376 . S
C1109 C415 1.446 . S
C1114 C759 1.435 . S
C1144 C777 1.424 . S
C1139 C495 1.427 . S
C1169 C301 1.743 . S
C1174 C793 1.622 . S
C1199 C175 1.503 . S
C1204 C787 1.497 . S
C1229 C215 1.486 . S
C1234 C791 1.482 . S
C1259 C242 1.494 . S
C1264 C788 1.487 . S
C1289 C141 1.557 . S
C1294 C690 1.537 . S
C1319 C581 1.528 . S
C1324 C689 1.527 . S
C1354 C653 1.307 . S
C1349 C615 1.374 1_565 S
C1384 C667 1.562 . S
C1379 C335 1.675 . S
C1409 C181 1.583 1_545 S
C1414 C704 1.578 . S
C1444 C749 1.505 . S
C1439 C455 1.510 . S
C1474 C703 1.416 . S
C1469 C375 1.420 . S
C1504 C735 1.462 . S
C1499 C501 1.458 . S
C1534 C732 1.482 . S
C1529 C562 1.498 . S
C1559 C621 1.475 . S
C1564 C745 1.487 . S
C1589 C322 1.697 . S
C1594 C709 1.581 . S
C1624 C723 1.354 . S
C1619 C522 1.408 . S
C1649 C122 1.501 . S
C1654 C679 1.507 . S
C1684 C693 1.406 . S
C1679 C2 1.399 . S
C1714 C647 1.488 . S
C1709 C42 1.481 . S
C1744 C662 1.529 . S
C1739 C101 1.532 1_455 S
C1769 C61 1.560 . S
C1774 C774 1.542 . S
C1799 C82 1.376 1_556 S
C1804 C765 1.324 . S
C1829 C135 1.446 . S
C1834 C773 1.435 . S
C1859 C15 1.427 . S
C1864 C763 1.424 . S
C1894 C807 1.622 . S
C1889 C341 1.743 . S
C1924 C801 1.497 . S
C1919 C535 1.503 . S
C1954 C805 1.482 . S
C1949 C575 1.486 . S
C1979 C602 1.477 1_554 S
C1984 C802 1.487 . S
C2009 C421 1.557 . S
C2014 C718 1.537 . S
C2044 C717 1.527 . S
C2039 C221 1.528 . S
C2074 C737 1.307 . S
C2069 C255 1.374 . S
C2104 C751 1.562 . S
C2099 C295 1.675 . S
C2129 C541 1.590 . S
C2134 C676 1.578 . S
C2164 C665 1.505 . S
C2159 C55 1.510 . S
C2189 C95 1.420 . S
C2194 C675 1.416 . S
C2224 C651 1.463 . S
C2219 C21 1.458 . S
