# Generated by pormake.
# Topology pyr, (3,6)-cn, num edge types: 1
# Building blocks:
#     Node 0, Type 0, BuildingBlock: OLANEW_clean_sbu_2, # of connection points: 3
#     Node 1, Type 0, BuildingBlock: OLANEW_clean_sbu_2, # of connection points: 3
#     Node 2, Type 0, BuildingBlock: OLANEW_clean_sbu_2, # of connection points: 3
#     Node 3, Type 0, BuildingBlock: OLANEW_clean_sbu_2, # of connection points: 3
#     Node 4, Type 0, BuildingBlock: OLANEW_clean_sbu_2, # of connection points: 3
#     Node 5, Type 0, BuildingBlock: OLANEW_clean_sbu_2, # of connection points: 3
#     Node 6, Type 0, BuildingBlock: OLANEW_clean_sbu_2, # of connection points: 3
#     Node 7, Type 0, BuildingBlock: OLANEW_clean_sbu_2, # of connection points: 3
#     Node 8, Type 1, BuildingBlock: MIDCAF_clean_sbu_0, # of connection points: 6
#     Node 9, Type 1, BuildingBlock: MIDCAF_clean_sbu_0, # of connection points: 6
#     Node 10, Type 1, BuildingBlock: MIDCAF_clean_sbu_0, # of connection points: 6
#     Node 11, Type 1, BuildingBlock: MIDCAF_clean_sbu_0, # of connection points: 6
#     Edge 12, Type (0, 1), BuildingBlock: TEMPAE_clean_linker_10, # of connection points: 2
#     Edge 13, Type (0, 1), BuildingBlock: TEMPAE_clean_linker_10, # of connection points: 2
#     Edge 14, Type (0, 1), BuildingBlock: TEMPAE_clean_linker_10, # of connection points: 2
#     Edge 15, Type (0, 1), BuildingBlock: TEMPAE_clean_linker_10, # of connection points: 2
#     Edge 16, Type (0, 1), BuildingBlock: TEMPAE_clean_linker_10, # of connection points: 2
#     Edge 17, Type (0, 1), BuildingBlock: TEMPAE_clean_linker_10, # of connection points: 2
#     Edge 18, Type (0, 1), BuildingBlock: TEMPAE_clean_linker_10, # of connection points: 2
#     Edge 19, Type (0, 1), BuildingBlock: TEMPAE_clean_linker_10, # of connection points: 2
#     Edge 20, Type (0, 1), BuildingBlock: TEMPAE_clean_linker_10, # of connection points: 2
#     Edge 21, Type (0, 1), BuildingBlock: TEMPAE_clean_linker_10, # of connection points: 2
#     Edge 22, Type (0, 1), BuildingBlock: TEMPAE_clean_linker_10, # of connection points: 2
#     Edge 23, Type (0, 1), BuildingBlock: TEMPAE_clean_linker_10, # of connection points: 2
#     Edge 24, Type (0, 1), BuildingBlock: TEMPAE_clean_linker_10, # of connection points: 2
#     Edge 25, Type (0, 1), BuildingBlock: TEMPAE_clean_linker_10, # of connection points: 2
#     Edge 26, Type (0, 1), BuildingBlock: TEMPAE_clean_linker_10, # of connection points: 2
#     Edge 27, Type (0, 1), BuildingBlock: TEMPAE_clean_linker_10, # of connection points: 2
#     Edge 28, Type (0, 1), BuildingBlock: TEMPAE_clean_linker_10, # of connection points: 2
#     Edge 29, Type (0, 1), BuildingBlock: TEMPAE_clean_linker_10, # of connection points: 2
#     Edge 30, Type (0, 1), BuildingBlock: TEMPAE_clean_linker_10, # of connection points: 2
#     Edge 31, Type (0, 1), BuildingBlock: TEMPAE_clean_linker_10, # of connection points: 2
#     Edge 32, Type (0, 1), BuildingBlock: TEMPAE_clean_linker_10, # of connection points: 2
#     Edge 33, Type (0, 1), BuildingBlock: TEMPAE_clean_linker_10, # of connection points: 2
#     Edge 34, Type (0, 1), BuildingBlock: TEMPAE_clean_linker_10, # of connection points: 2
#     Edge 35, Type (0, 1), BuildingBlock: TEMPAE_clean_linker_10, # of connection points: 2
# Relax obj value: 0.074
# Max RMSD: 0.157
# Mean RMSD: 0.119
data_MOF--net-pyr--node1-OLANEW_clean_sbu_2--node2-MIDCAF_clean_sbu_0--edge1-TEMPAE_clean_linker_10
_symmetry_space_group_name_H-M    P1
_symmetry_Int_Tables_number       1
_symmetry_cell_setting            triclinic
loop_
_symmetry_equiv_pos_as_xyz
'x, y, z'
_cell_length_a     38.126974
_cell_length_b     38.23527
_cell_length_c     37.549994
_cell_angle_alpha  94.268855
_cell_angle_beta   89.250676
_cell_angle_gamma 95.518088
loop_
_atom_site_label
_atom_site_type_symbol
_atom_site_fract_x
_atom_site_fract_y
_atom_site_fract_z
_atom_type_partial_charge
O0 O 0.30739 0.24795 0.25391 0.0
Cd1 Cd 0.25866 0.28064 0.27764 0.0
O2 O 0.2744 0.19735 0.2533 0.0
Cd3 Cd 0.22927 0.21656 0.28257 0.0
O4 O 0.18851 0.20332 0.32216 0.0
C5 C 0.19344 0.21204 0.35519 0.0
O6 O 0.22215 0.23207 0.36498 0.0
C7 C 0.30352 0.21478 0.24656 0.0
C8 C 0.22656 0.31889 0.22823 0.0
O9 O 0.2518 0.33347 0.24803 0.0
O10 O 0.21702 0.28616 0.23127 0.0
O11 O 0.34995 0.82778 0.82871 0.0
Cd12 Cd 0.31356 0.81072 0.77569 0.0
O13 O 0.30713 0.81809 0.86762 0.0
Cd14 Cd 0.26756 0.81247 0.82519 0.0
O15 O 0.23149 0.82596 0.78431 0.0
C16 C 0.21535 0.85342 0.79051 0.0
O17 O 0.22027 0.87179 0.82133 0.0
C18 C 0.33955 0.82638 0.86096 0.0
C19 C 0.34309 0.75886 0.73182 0.0
O20 O 0.35197 0.79169 0.72866 0.0
O21 O 0.31991 0.75051 0.75553 0.0
O22 O 0.8106 0.32982 0.78202 0.0
Cd23 Cd 0.75869 0.30027 0.74998 0.0
O24 O 0.79957 0.2893 0.81965 0.0
Cd25 Cd 0.79913 0.25872 0.86705 0.0
O26 O 0.77727 0.21957 0.90333 0.0
C27 C 0.75555 0.22863 0.92749 0.0
O28 O 0.74861 0.26171 0.93126 0.0
C29 C 0.81871 0.31636 0.81043 0.0
C30 C 0.71754 0.34315 0.71402 0.0
O31 O 0.71298 0.33923 0.74742 0.0
O32 O 0.74207 0.32747 0.69779 0.0
O33 O 0.88404 0.83655 0.26986 0.0
Cd34 Cd 0.85859 0.80257 0.2173 0.0
O35 O 0.84596 0.80237 0.29818 0.0
Cd36 Cd 0.81712 0.77626 0.34109 0.0
O37 O 0.77945 0.74354 0.37161 0.0
C38 C 0.74776 0.73841 0.36085 0.0
O39 O 0.73894 0.75339 0.33232 0.0
C40 C 0.87035 0.82762 0.29925 0.0
C41 C 0.90113 0.7533 0.18591 0.0
O42 O 0.90042 0.78362 0.17363 0.0
O43 O 0.88227 0.74647 0.21348 0.0
O44 O 0.98046 0.90432 0.91569 0.0
Cd45 Cd 0.94874 0.88117 0.96703 0.0
O46 O 0.94689 0.94748 0.91096 0.0
Cd47 Cd 0.91296 0.93897 0.95715 0.0
O48 O 0.86507 0.94976 0.98658 0.0
C49 C 0.85595 0.98094 0.98723 0.0
O50 O 0.87639 0.00503 0.97169 0.0
C51 C 0.9723 0.93043 0.89956 0.0
C52 C 0.96941 0.81438 0.97591 0.0
O53 O 0.94502 0.81866 0.95394 0.0
O54 O 0.98349 0.84158 0.99432 0.0
O55 O 0.5995 0.02622 0.43762 0.0
Cd56 Cd 0.62459 0.02218 0.49666 0.0
O57 O 0.59258 0.08072 0.45596 0.0
Cd58 Cd 0.58169 0.13554 0.45324 0.0
O59 O 0.5756 0.19154 0.46396 0.0
C60 C 0.58497 0.20636 0.49424 0.0
O61 O 0.59808 0.18749 0.51777 0.0
C62 C 0.58911 0.05582 0.43147 0.0
C63 C 0.69199 0.99925 0.49777 0.0
O64 O 0.6647 0.97816 0.50376 0.0
O65 O 0.68737 0.03066 0.49038 0.0
O66 O 0.5212 0.67051 0.11163 0.0
Cd67 Cd 0.54068 0.61498 0.12839 0.0
O68 O 0.46983 0.65609 0.13582 0.0
Cd69 Cd 0.41421 0.65854 0.14926 0.0
O70 O 0.3601 0.63367 0.14778 0.0
C71 C 0.35391 0.602 0.15616 0.0
O72 O 0.37999 0.58583 0.16766 0.0
C73 C 0.49007 0.67789 0.11929 0.0
C74 C 0.54114 0.6096 0.20221 0.0
O75 O 0.56872 0.62205 0.18579 0.0
O76 O 0.51334 0.60008 0.18375 0.0
O77 O 0.08825 0.52716 0.67229 0.0
Cd78 Cd 0.11004 0.54487 0.61429 0.0
O79 O 0.09256 0.47243 0.65286 0.0
Cd80 Cd 0.0943 0.41573 0.65511 0.0
O81 O 0.09592 0.35902 0.64464 0.0
C82 C 0.10331 0.34658 0.61338 0.0
O83 O 0.11041 0.36837 0.58822 0.0
C84 C 0.08488 0.49465 0.67797 0.0
C85 C 0.18329 0.54583 0.60872 0.0
O86 O 0.1688 0.57355 0.6198 0.0
O87 O 0.16313 0.51768 0.60043 0.0
Zn88 Zn 0.99055 0.04189 0.62252 0.0
Zn89 Zn 0.06534 0.96983 0.53152 0.0
Zn90 Zn 0.02329 0.00547 0.57455 0.0
C91 C 0.07899 0.04059 0.518 0.0
C92 C 0.99369 0.9492 0.51276 0.0
O93 O 0.03354 0.98839 0.62876 0.0
O94 O 0.00883 0.02594 0.66669 0.0
C95 C 0.02999 0.09147 0.58712 0.0
O96 O 0.05647 0.04369 0.54372 0.0
O97 O 0.08756 0.01055 0.507 0.0
O98 O 0.02474 0.94074 0.50791 0.0
O99 O 0.98726 0.97424 0.53615 0.0
O100 O 0.00621 0.08984 0.61071 0.0
O101 O 0.04022 0.06297 0.57142 0.0
O102 O 0.96624 0.99311 0.56186 0.0
O103 O 0.94283 0.02355 0.60694 0.0
C104 C 0.93896 0.00339 0.57881 0.0
O105 O 0.05531 0.97114 0.60434 0.0
O106 O 0.09393 0.94906 0.56648 0.0
C107 C 0.02668 1.00001 0.661 0.0
C108 C 0.08162 0.95269 0.59771 0.0
Zn109 Zn 0.50496 0.04634 0.05225 0.0
Zn110 Zn 0.57103 0.98843 0.14582 0.0
Zn111 Zn 0.53535 0.01511 0.0998 0.0
C112 C 0.62141 0.01311 0.10079 0.0
C113 C 0.5273 0.9325 0.11352 0.0
O114 O 0.50304 0.05453 0.12877 0.0
O115 O 0.48056 0.07934 0.0841 0.0
C116 C 0.57462 0.06227 0.03815 0.0
O117 O 0.59305 0.02168 0.08656 0.0
O118 O 0.61967 0.99819 0.12963 0.0
O119 O 0.55025 0.93974 0.13751 0.0
O120 O 0.51752 0.95723 0.09538 0.0
O121 O 0.54527 0.06668 0.02495 0.0
O122 O 0.5758 0.04371 0.06545 0.0
O123 O 0.50067 0.97345 0.06856 0.0
O124 O 0.47618 0.00518 0.03053 0.0
C125 C 0.47945 0.97571 0.04249 0.0
O126 O 0.52262 0.03955 0.15419 0.0
O127 O 0.55722 0.01422 0.18936 0.0
C128 C 0.48365 0.07717 0.11724 0.0
C129 C 0.53464 0.03554 0.18547 0.0
Zn130 Zn 0.56169 0.57869 0.58362 0.0
Zn131 Zn 0.48014 0.49526 0.4948 0.0
Zn132 Zn 0.52135 0.53671 0.53847 0.0
C133 C 0.51812 0.45139 0.53138 0.0
C134 C 0.52333 0.53749 0.45205 0.0
O135 O 0.48732 0.56709 0.57537 0.0
O136 O 0.52403 0.59659 0.61457 0.0
C137 C 0.57998 0.51081 0.59061 0.0
O138 O 0.53326 0.4815 0.54343 0.0
O139 O 0.49174 0.44981 0.51118 0.0
O140 O 0.50162 0.51037 0.44945 0.0
O141 O 0.53296 0.55172 0.48305 0.0
O142 O 0.58951 0.54241 0.60099 0.0
O143 O 0.55455 0.50358 0.56807 0.0
O144 O 0.55536 0.5733 0.50687 0.0
O145 O 0.58368 0.6097 0.54781 0.0
C146 C 0.57733 0.60032 0.51541 0.0
O147 O 0.46525 0.54359 0.55286 0.0
O148 O 0.43459 0.51254 0.5097 0.0
C149 C 0.49304 0.58848 0.60338 0.0
C150 C 0.43551 0.53283 0.53782 0.0
Zn151 Zn 0.10757 0.52517 0.97492 0.0
Zn152 Zn 0.00747 0.47056 0.05818 0.0
Zn153 Zn 0.05672 0.49843 0.01392 0.0
C154 C 0.07268 0.45139 0.07998 0.0
C155 C 0.99239 0.44173 0.98749 0.0
O156 O 0.04922 0.55453 0.01168 0.0
O157 O 0.09086 0.57283 0.97393 0.0
C158 C 0.14144 0.50416 0.03138 0.0
O159 O 0.08321 0.47055 0.05428 0.0
O160 O 0.04025 0.44688 0.0876 0.0
O161 O 0.98032 0.44274 0.01902 0.0
O162 O 0.02175 0.45965 0.98038 0.0
O163 O 0.14868 0.52033 0.00379 0.0
O164 O 0.10919 0.49299 0.03831 0.0
O165 O 0.04905 0.47439 0.95821 0.0
O166 O 0.09945 0.4924 0.9325 0.0
C167 C 0.06994 0.47441 0.9309 0.0
O168 O 0.0278 0.54163 0.03951 0.0
O169 O 0.98992 0.51584 0.07688 0.0
C170 C 0.0644 0.57884 0.99321 0.0
C171 C 0.00346 0.54343 0.0636 0.0
C172 C 0.17765 0.20182 0.41885 0.0
C173 C 0.17051 0.1948 0.38231 0.0
C174 C 0.16009 0.18145 0.44443 0.0
C175 C 0.13501 0.15317 0.43315 0.0
C176 C 0.12589 0.14762 0.3966 0.0
C177 C 0.14362 0.1686 0.37165 0.0
C178 C 0.17044 0.18904 0.48308 0.0
C179 C 0.09908 0.11796 0.3835 0.0
C180 C 0.12781 0.07088 0.48402 0.0
C181 C 0.09444 0.07159 0.49996 0.0
C182 C 0.14163 0.09789 0.46318 0.0
C183 C 0.12172 0.12658 0.45835 0.0
C184 C 0.0886 0.12823 0.47567 0.0
C185 C 0.0751 0.10036 0.4958 0.0
C186 C 0.17702 0.095 0.44521 0.0
C187 C 0.06637 0.15831 0.47194 0.0
H188 H 0.19807 0.22229 0.42751 0.0
H189 H 0.13759 0.1632 0.34353 0.0
H190 H 0.15027 0.17778 0.5016 0.0
H191 H 0.19553 0.17758 0.48756 0.0
H192 H 0.17504 0.2179 0.48974 0.0
H193 H 0.0938 0.11811 0.35449 0.0
H194 H 0.1087 0.0923 0.3886 0.0
H195 H 0.07392 0.11988 0.39834 0.0
H196 H 0.14286 0.04866 0.48718 0.0
H197 H 0.04884 0.10055 0.50713 0.0
H198 H 0.19544 0.11823 0.45384 0.0
H199 H 0.17414 0.09476 0.41581 0.0
H200 H 0.18899 0.07082 0.45145 0.0
H201 H 0.0821 0.18251 0.4642 0.0
H202 H 0.05225 0.16454 0.49735 0.0
H203 H 0.04614 0.15032 0.45117 0.0
C204 C 0.35682 0.8288 0.92553 0.0
C205 C 0.36439 0.83794 0.89055 0.0
C206 C 0.37777 0.84382 0.95436 0.0
C207 C 0.40627 0.86926 0.9481 0.0
C208 C 0.41524 0.87687 0.91257 0.0
C209 C 0.39448 0.86078 0.88424 0.0
C210 C 0.3685 0.83372 0.99166 0.0
C211 C 0.44491 0.90436 0.90459 0.0
C212 C 0.42484 0.94909 0.01284 0.0
C213 C 0.4586 0.94474 0.02503 0.0
C214 C 0.40672 0.92363 0.98945 0.0
C215 C 0.42252 0.89259 0.97825 0.0
C216 C 0.4555 0.88675 0.99265 0.0
C217 C 0.47349 0.91324 0.01555 0.0
C218 C 0.37179 0.93129 0.97469 0.0
C219 C 0.47256 0.85345 0.98244 0.0
H220 H 0.33399 0.81061 0.93049 0.0
H221 H 0.40057 0.86791 0.85729 0.0
H222 H 0.39173 0.82415 0.00395 0.0
H223 H 0.36144 0.85706 0.00859 0.0
H224 H 0.34617 0.81281 0.99197 0.0
H225 H 0.45054 0.90487 0.87552 0.0
H226 H 0.43779 0.93077 0.91477 0.0
H227 H 0.46934 0.89951 0.91834 0.0
H228 H 0.41328 0.97346 0.02022 0.0
H229 H 0.4998 0.91003 0.02457 0.0
H230 H 0.35139 0.90922 0.97869 0.0
H231 H 0.37436 0.93394 0.9455 0.0
H232 H 0.36243 0.9559 0.9874 0.0
H233 H 0.45319 0.83009 0.98443 0.0
H234 H 0.49551 0.85082 0.99964 0.0
H235 H 0.48174 0.85346 0.9543 0.0
C236 C 0.67321 0.38747 0.7136 0.0
C237 C 0.695 0.36493 0.6947 0.0
C238 C 0.65256 0.40902 0.69563 0.0
C239 C 0.65328 0.40764 0.65784 0.0
C240 C 0.67415 0.38389 0.6386 0.0
C241 C 0.69507 0.36316 0.65724 0.0
C242 C 0.63062 0.43392 0.71711 0.0
C243 C 0.67533 0.38093 0.59832 0.0
C244 C 0.58088 0.45054 0.61274 0.0
C245 C 0.5987 0.48285 0.60501 0.0
C246 C 0.59833 0.42529 0.6292 0.0
C247 C 0.63433 0.43291 0.63867 0.0
C248 C 0.65241 0.46549 0.63061 0.0
C249 C 0.63441 0.48995 0.61386 0.0
C250 C 0.57738 0.39137 0.63757 0.0
C251 C 0.69056 0.475 0.64064 0.0
H252 H 0.67284 0.38887 0.74253 0.0
H253 H 0.71151 0.34554 0.64235 0.0
H254 H 0.63897 0.46148 0.71106 0.0
H255 H 0.6025 0.42826 0.70954 0.0
H256 H 0.6329 0.43185 0.74633 0.0
H257 H 0.68239 0.35459 0.58774 0.0
H258 H 0.64971 0.38564 0.58689 0.0
H259 H 0.69562 0.40104 0.58899 0.0
H260 H 0.55299 0.44543 0.60711 0.0
H261 H 0.64826 0.51503 0.60808 0.0
H262 H 0.56176 0.39617 0.66229 0.0
H263 H 0.59424 0.36999 0.64172 0.0
H264 H 0.55844 0.38235 0.61579 0.0
H265 H 0.69374 0.47395 0.66987 0.0
H266 H 0.70056 0.50173 0.63316 0.0
H267 H 0.70716 0.45563 0.62721 0.0
C268 C 0.92872 0.72728 0.13089 0.0
C269 C 0.92136 0.72616 0.16742 0.0
C270 C 0.94446 0.69987 0.11189 0.0
C271 C 0.95383 0.67093 0.12996 0.0
C272 C 0.94816 0.67066 0.16732 0.0
C273 C 0.9315 0.69803 0.18553 0.0
C274 C 0.94878 0.70111 0.07214 0.0
C275 C 0.95872 0.6409 0.18786 0.0
C276 C 0.95498 0.57985 0.08248 0.0
C277 C 0.99105 0.57753 0.07663 0.0
C278 C 0.94252 0.61073 0.09828 0.0
C279 C 0.96683 0.63964 0.10962 0.0
C280 C 0.00332 0.63776 0.10285 0.0
C281 C 0.01499 0.60677 0.08605 0.0
C282 C 0.90334 0.61209 0.10358 0.0
C283 C 0.03029 0.66754 0.11508 0.0
H284 H 0.92067 0.74883 0.11668 0.0
H285 H 0.92613 0.69725 0.2139 0.0
H286 H 0.97291 0.68933 0.06264 0.0
H287 H 0.92572 0.68576 0.05898 0.0
H288 H 0.9499 0.72849 0.06386 0.0
H289 H 0.95554 0.6462 0.21716 0.0
H290 H 0.94232 0.61621 0.17937 0.0
H291 H 0.9866 0.63642 0.18197 0.0
H292 H 0.93646 0.55728 0.0749 0.0
H293 H 0.04294 0.60485 0.08178 0.0
H294 H 0.89482 0.63575 0.09201 0.0
H295 H 0.897 0.61426 0.13253 0.0
H296 H 0.88786 0.58835 0.09104 0.0
H297 H 0.02056 0.69355 0.11204 0.0
H298 H 0.05552 0.6661 0.10013 0.0
H299 H 0.03565 0.66584 0.14384 0.0
C300 C 0.32554 0.16355 0.21094 0.0
C301 C 0.33286 0.19587 0.23086 0.0
C302 C 0.35273 0.14494 0.19591 0.0
C303 C 0.38826 0.15851 0.20162 0.0
C304 C 0.3959 0.19061 0.22265 0.0
C305 C 0.36807 0.20919 0.23661 0.0
C306 C 0.34336 0.11126 0.17297 0.0
C307 C 0.43343 0.20541 0.23011 0.0
C308 C 0.45404 0.09178 0.17625 0.0
C309 C 0.46354 0.10041 0.14158 0.0
C310 C 0.43137 0.11193 0.19729 0.0
C311 C 0.41697 0.14058 0.18275 0.0
C312 C 0.42746 0.15008 0.14824 0.0
C313 C 0.45084 0.13017 0.12834 0.0
C314 C 0.42152 0.10147 0.23433 0.0
C315 C 0.4124 0.18001 0.13137 0.0
H316 H 0.29837 0.15312 0.20642 0.0
H317 H 0.37387 0.23389 0.25248 0.0
H318 H 0.35336 0.11432 0.14537 0.0
H319 H 0.35612 0.08929 0.18342 0.0
H320 H 0.31447 0.10388 0.1718 0.0
H321 H 0.43497 0.22885 0.24957 0.0
H322 H 0.44846 0.18503 0.24071 0.0
H323 H 0.44655 0.21309 0.20495 0.0
H324 H 0.46283 0.06837 0.18629 0.0
H325 H 0.45815 0.13725 0.10163 0.0
H326 H 0.39433 0.08822 0.23416 0.0
H327 H 0.42198 0.12506 0.25347 0.0
H328 H 0.43955 0.08313 0.24405 0.0
H329 H 0.38362 0.17363 0.12749 0.0
H330 H 0.42471 0.18519 0.10507 0.0
H331 H 0.41612 0.20452 0.14917 0.0
C332 C 0.17631 0.89683 0.76974 0.0
C333 C 0.19286 0.86573 0.7629 0.0
C334 C 0.15658 0.91 0.74331 0.0
C335 C 0.15317 0.89165 0.70921 0.0
C336 C 0.16902 0.85981 0.70236 0.0
C337 C 0.18869 0.84723 0.72927 0.0
C338 C 0.13997 0.944 0.75158 0.0
C339 C 0.16587 0.83946 0.66635 0.0
C340 C 0.08046 0.91416 0.64859 0.0
C341 C 0.09923 0.93752 0.62673 0.0
C342 C 0.09769 0.89853 0.6753 0.0
C343 C 0.13444 0.90685 0.6803 0.0
C344 C 0.1534 0.93045 0.65805 0.0
C345 C 0.13558 0.94523 0.6313 0.0
C346 C 0.07673 0.87219 0.69712 0.0
C347 C 0.19254 0.94005 0.66244 0.0
H348 H 0.17919 0.91128 0.79564 0.0
H349 H 0.20126 0.82314 0.72375 0.0
H350 H 0.15202 0.96444 0.73451 0.0
H351 H 0.11146 0.94005 0.74528 0.0
H352 H 0.14324 0.95405 0.77997 0.0
H353 H 0.17892 0.81466 0.66559 0.0
H354 H 0.13769 0.83288 0.65943 0.0
H355 H 0.17792 0.85593 0.64547 0.0
H356 H 0.05253 0.9074 0.64412 0.0
H357 H 0.15003 0.96315 0.61405 0.0
H358 H 0.0852 0.87497 0.72536 0.0
H359 H 0.08127 0.84519 0.68633 0.0
H360 H 0.04803 0.87476 0.69599 0.0
H361 H 0.1981 0.95246 0.68969 0.0
H362 H 0.20342 0.95853 0.6427 0.0
H363 H 0.20665 0.91593 0.65938 0.0
C364 C 0.86478 0.31413 0.85735 0.0
C365 C 0.84863 0.33307 0.83263 0.0
C366 C 0.89161 0.33051 0.8799 0.0
C367 C 0.90279 0.36669 0.87753 0.0
C368 C 0.88792 0.38546 0.8513 0.0
C369 C 0.86108 0.36844 0.82918 0.0
C370 C 0.90702 0.30944 0.90726 0.0
C371 C 0.89919 0.42398 0.84772 0.0
C372 C 0.93367 0.4186 0.9632 0.0
C373 C 0.97041 0.4221 0.95891 0.0
C374 C 0.91162 0.40068 0.93691 0.0
C375 C 0.92655 0.38584 0.90526 0.0
C376 C 0.96369 0.38919 0.90066 0.0
C377 C 0.98521 0.40696 0.92782 0.0
C378 C 0.87221 0.3978 0.94301 0.0
C379 C 0.98064 0.37413 0.86713 0.0
H380 H 0.85647 0.28648 0.85921 0.0
H381 H 0.84908 0.38323 0.80986 0.0
H382 H 0.93622 0.31267 0.90586 0.0
H383 H 0.89924 0.31939 0.93446 0.0
H384 H 0.89793 0.28093 0.90353 0.0
H385 H 0.88795 0.43381 0.82364 0.0
H386 H 0.89048 0.43977 0.87164 0.0
H387 H 0.92832 0.42851 0.84631 0.0
H388 H 0.92197 0.43029 0.98715 0.0
H389 H 0.01357 0.40847 0.92502 0.0
H390 H 0.86167 0.36967 0.94211 0.0
H391 H 0.85918 0.41002 0.92147 0.0
H392 H 0.86484 0.41082 0.96911 0.0
H393 H 0.97281 0.34541 0.86317 0.0
H394 H 0.00986 0.37856 0.86792 0.0
H395 H 0.97132 0.38641 0.84358 0.0
C396 C 0.73113 0.69697 0.40821 0.0
C397 C 0.72108 0.71619 0.38028 0.0
C398 C 0.70596 0.67661 0.42743 0.0
C399 C 0.66985 0.67557 0.41866 0.0
C400 C 0.65961 0.69433 0.38999 0.0
C401 C 0.68535 0.71438 0.37116 0.0
C402 C 0.71793 0.65681 0.45768 0.0
C403 C 0.62153 0.69468 0.37976 0.0
C404 C 0.60993 0.60218 0.45733 0.0
C405 C 0.59693 0.61992 0.48792 0.0
C406 C 0.63272 0.62011 0.43363 0.0
C407 C 0.64288 0.65658 0.44102 0.0
C408 C 0.62862 0.6748 0.47118 0.0
C409 C 0.60595 0.6562 0.49434 0.0
C410 C 0.64716 0.59918 0.40206 0.0
C411 C 0.63837 0.7137 0.47976 0.0
H412 H 0.75871 0.69799 0.41526 0.0
H413 H 0.67725 0.72917 0.34965 0.0
H414 H 0.70569 0.66635 0.48312 0.0
H415 H 0.70914 0.62834 0.45294 0.0
H416 H 0.74702 0.65993 0.46082 0.0
H417 H 0.61896 0.69562 0.35041 0.0
H418 H 0.60485 0.67146 0.38834 0.0
H419 H 0.61122 0.71872 0.39263 0.0
H420 H 0.60365 0.57396 0.45274 0.0
H421 H 0.59586 0.66993 0.51804 0.0
H422 H 0.66958 0.58564 0.41104 0.0
H423 H 0.65668 0.61588 0.38036 0.0
H424 H 0.62681 0.57854 0.39114 0.0
H425 H 0.66719 0.71873 0.48423 0.0
H426 H 0.62444 0.72408 0.50389 0.0
H427 H 0.6319 0.72861 0.45686 0.0
C428 C 0.18324 0.32236 0.17929 0.0
C429 C 0.20795 0.33949 0.20365 0.0
C430 C 0.16357 0.34155 0.15762 0.0
C431 C 0.16845 0.37885 0.16053 0.0
C432 C 0.19409 0.3963 0.18431 0.0
C433 C 0.21358 0.37642 0.20552 0.0
C434 C 0.13677 0.32191 0.13235 0.0
C435 C 0.19986 0.43599 0.18872 0.0
C436 C 0.13055 0.42607 0.08608 0.0
C437 C 0.09818 0.4344 0.10091 0.0
C438 C 0.15431 0.40914 0.1056 0.0
C439 C 0.14503 0.39939 0.1404 0.0
C440 C 0.11249 0.40801 0.15559 0.0
C441 C 0.08951 0.42538 0.13569 0.0
C442 C 0.1892 0.40139 0.08888 0.0
C443 C 0.10172 0.39845 0.19274 0.0
H444 H 0.17885 0.29385 0.17748 0.0
H445 H 0.23251 0.38994 0.22433 0.0
H446 H 0.10991 0.32826 0.14057 0.0
H447 H 0.1414 0.33035 0.1049 0.0
H448 H 0.13759 0.29291 0.13171 0.0
H449 H 0.22599 0.44514 0.20057 0.0
H450 H 0.19773 0.44778 0.16284 0.0
H451 H 0.17925 0.44605 0.20678 0.0
H452 H 0.13708 0.4322 0.05895 0.0
H453 H 0.06457 0.4318 0.14739 0.0
H454 H 0.19088 0.3725 0.08604 0.0
H455 H 0.2111 0.41309 0.10646 0.0
H456 H 0.19305 0.41196 0.06219 0.0
H457 H 0.09986 0.36942 0.19397 0.0
H458 H 0.07595 0.40783 0.20104 0.0
H459 H 0.122 0.41001 0.21225 0.0
C460 C 0.70886 0.21174 0.97216 0.0
C461 C 0.73524 0.20177 0.94817 0.0
C462 C 0.68642 0.18645 0.98871 0.0
C463 C 0.6906 0.15018 0.98147 0.0
C464 C 0.71836 0.14 0.95868 0.0
C465 C 0.74027 0.1659 0.94227 0.0
C466 C 0.65695 0.19852 0.01244 0.0
C467 C 0.72425 0.10188 0.94967 0.0
C468 C 0.6363 0.09188 0.04388 0.0
C469 C 0.60682 0.08035 0.02274 0.0
C470 C 0.66512 0.11255 0.03009 0.0
C471 C 0.66358 0.12339 0.99488 0.0
C472 C 0.63428 0.11093 0.97316 0.0
C473 C 0.60649 0.08936 0.98723 0.0
C474 C 0.69622 0.12387 0.05408 0.0
C475 C 0.63148 0.1217 0.93548 0.0
H476 H 0.70484 0.23937 0.97708 0.0
H477 H 0.76066 0.15781 0.92392 0.0
H478 H 0.63114 0.18739 0.00114 0.0
H479 H 0.65896 0.18872 0.03932 0.0
H480 H 0.65731 0.22768 0.01543 0.0
H481 H 0.75281 0.09844 0.95058 0.0
H482 H 0.7099 0.08378 0.96775 0.0
H483 H 0.71539 0.09409 0.92192 0.0
H484 H 0.63644 0.08583 0.0716 0.0
H485 H 0.58381 0.08047 0.97068 0.0
H486 H 0.69041 0.14736 0.07149 0.0
H487 H 0.7207 0.13065 0.03877 0.0
H488 H 0.70091 0.10271 0.07171 0.0
H489 H 0.63273 0.15084 0.93566 0.0
H490 H 0.60663 0.11023 0.92231 0.0
H491 H 0.654 0.11306 0.91922 0.0
C492 C 0.91741 0.86364 0.3349 0.0
C493 C 0.88352 0.84579 0.33342 0.0
C494 C 0.93074 0.88096 0.36683 0.0
C495 C 0.9097 0.88046 0.39821 0.0
C496 C 0.87529 0.86276 0.39681 0.0
C497 C 0.86247 0.84609 0.3643 0.0
C498 C 0.96769 0.89923 0.36709 0.0
C499 C 0.85158 0.86169 0.42925 0.0
C500 C 0.96553 0.89454 0.48145 0.0
C501 C 0.96607 0.931 0.48911 0.0
C502 C 0.94499 0.87727 0.45357 0.0
C503 C 0.92493 0.89707 0.43246 0.0
C504 C 0.92353 0.93356 0.44163 0.0
C505 C 0.9443 0.95019 0.46987 0.0
C506 C 0.94663 0.83822 0.44522 0.0
C507 C 0.90188 0.95541 0.42026 0.0
H508 H 0.93381 0.86372 0.3111 0.0
H509 H 0.83571 0.83385 0.36309 0.0
H510 H 0.96731 0.9273 0.37682 0.0
H511 H 0.98431 0.88684 0.38569 0.0
H512 H 0.98025 0.89798 0.34022 0.0
H513 H 0.83073 0.83929 0.42649 0.0
H514 H 0.86662 0.85951 0.45394 0.0
H515 H 0.83843 0.88637 0.43223 0.0
H516 H 0.98243 0.87974 0.49637 0.0
H517 H 0.94495 0.97846 0.47564 0.0
H518 H 0.96062 0.83367 0.41943 0.0
H519 H 0.91964 0.82465 0.44232 0.0
H520 H 0.96057 0.82607 0.46623 0.0
H521 H 0.91473 0.95916 0.39396 0.0
H522 H 0.89912 0.98175 0.43404 0.0
H523 H 0.87524 0.94168 0.41518 0.0
C524 C 0.38968 0.74086 0.68862 0.0
C525 C 0.36013 0.73146 0.70968 0.0
C526 C 0.40789 0.71509 0.66975 0.0
C527 C 0.39594 0.679 0.67144 0.0
C528 C 0.36527 0.66941 0.6916 0.0
C529 C 0.3479 0.69575 0.71062 0.0
C530 C 0.44079 0.72648 0.64915 0.0
C531 C 0.35111 0.63153 0.69471 0.0
C532 C 0.43805 0.61886 0.60129 0.0
C533 C 0.46433 0.60641 0.62129 0.0
C534 C 0.41434 0.64123 0.61742 0.0
C535 C 0.41734 0.65165 0.65441 0.0
C536 C 0.44299 0.63787 0.67492 0.0
C537 C 0.46615 0.61545 0.65809 0.0
C538 C 0.38788 0.65511 0.5939 0.0
C539 C 0.44722 0.64829 0.71433 0.0
H540 H 0.39932 0.76839 0.68773 0.0
H541 H 0.32496 0.68818 0.72668 0.0
H542 H 0.46352 0.71397 0.65906 0.0
H543 H 0.4374 0.71764 0.6205 0.0
H544 H 0.44722 0.75552 0.65145 0.0
H545 H 0.32206 0.62854 0.69125 0.0
H546 H 0.36292 0.61298 0.67505 0.0
H547 H 0.35643 0.62396 0.72195 0.0
H548 H 0.43714 0.61267 0.57265 0.0
H549 H 0.4866 0.60591 0.67356 0.0
H550 H 0.40149 0.676 0.57832 0.0
H551 H 0.36602 0.66633 0.60922 0.0
H552 H 0.37672 0.63381 0.57437 0.0
H553 H 0.4526 0.67734 0.71868 0.0
H554 H 0.46898 0.63582 0.72627 0.0
H555 H 0.42242 0.6405 0.72869 0.0
C556 C 0.97692 0.96415 0.84516 0.0
C557 C 0.9903 0.93948 0.86582 0.0
C558 C 0.99097 0.97065 0.81143 0.0
C559 C 0.01948 0.95231 0.79798 0.0
C560 C 0.03409 0.92834 0.81925 0.0
C561 C 0.0193 0.92221 0.85298 0.0
C562 C 0.97431 0.99631 0.78965 0.0
C563 C 0.06526 0.90919 0.80675 0.0
C564 C 0.01618 0.94933 0.69789 0.0
C565 C 0.03554 0.98129 0.69186 0.0
C566 C 0.01408 0.93701 0.73218 0.0
C567 C 0.03183 0.95727 0.7608 0.0
C568 C 0.05502 0.98714 0.75368 0.0
C569 C 0.05613 0.99922 0.71926 0.0
C570 C 0.98961 0.90462 0.73853 0.0
C571 C 0.07575 0.0084 0.78312 0.0
H572 H 0.9546 0.97773 0.85485 0.0
H573 H 0.03012 0.90345 0.86901 0.0
H574 H 0.99435 0.01766 0.78249 0.0
H575 H 0.9638 0.98257 0.76438 0.0
H576 H 0.95242 0.00849 0.80414 0.0
H577 H 0.06705 0.88502 0.82106 0.0
H578 H 0.06406 0.90179 0.77772 0.0
H579 H 0.08971 0.92685 0.81213 0.0
H580 H 1.00002 0.93573 0.67663 0.0
H581 H 0.07105 0.02404 0.71444 0.0
H582 H 0.96551 0.91263 0.75255 0.0
H583 H 0.00237 0.8873 0.75584 0.0
H584 H 0.98164 0.88928 0.71316 0.0
H585 H 0.05821 0.0256 0.79851 0.0
H586 H 0.09808 0.02536 0.7723 0.0
H587 H 0.08617 0.99086 0.80185 0.0
C588 C 0.58569 0.04103 0.36593 0.0
C589 C 0.57467 0.06102 0.39602 0.0
C590 C 0.57216 0.04459 0.33203 0.0
C591 C 0.54657 0.06859 0.32801 0.0
C592 C 0.53529 0.08896 0.35828 0.0
C593 C 0.5494 0.08483 0.39203 0.0
C594 C 0.58523 0.0224 0.3005 0.0
C595 C 0.50769 0.11435 0.35533 0.0
C596 C 0.54666 0.08465 0.23077 0.0
C597 C 0.52404 0.05558 0.21795 0.0
C598 C 0.55082 0.09281 0.26764 0.0
C599 C 0.53188 0.07123 0.29182 0.0
C600 C 0.50481 0.04572 0.27877 0.0
C601 C 0.50144 0.03794 0.24179 0.0
C602 C 0.57924 0.12096 0.28039 0.0
C603 C 0.48304 0.023 0.30359 0.0
H604 H 0.60519 0.02259 0.36887 0.0
H605 H 0.53988 0.0995 0.41535 0.0
H606 H 0.56296 0.00501 0.28824 0.0
H607 H 0.59644 0.03959 0.27982 0.0
H608 H 0.60576 0.00564 0.30811 0.0
H609 H 0.50713 0.13313 0.37934 0.0
H610 H 0.51227 0.12952 0.33136 0.0
H611 H 0.48138 0.09933 0.35251 0.0
H612 H 0.56437 0.09808 0.21226 0.0
H613 H 0.48408 0.01528 0.2318 0.0
H614 H 0.60343 0.10841 0.28613 0.0
H615 H 0.57114 0.13542 0.30539 0.0
H616 H 0.58583 0.14009 0.25989 0.0
H617 H 0.49865 0.00181 0.3115 0.0
H618 H 0.45852 0.01048 0.29053 0.0
H619 H 0.47593 0.03863 0.32824 0.0
C620 C 0.5733 0.61114 0.26023 0.0
C621 C 0.54168 0.60503 0.24106 0.0
C622 C 0.57455 0.60427 0.29642 0.0
C623 C 0.54347 0.59101 0.31386 0.0
C624 C 0.51121 0.58621 0.29502 0.0
C625 C 0.51072 0.59318 0.25887 0.0
C626 C 0.60934 0.61003 0.31558 0.0
C627 C 0.47736 0.57255 0.31273 0.0
C628 C 0.54425 0.53088 0.38938 0.0
C629 C 0.5356 0.55311 0.41884 0.0
C630 C 0.54933 0.5436 0.35547 0.0
C631 C 0.54483 0.57929 0.35075 0.0
C632 C 0.53806 0.60236 0.38088 0.0
C633 C 0.53369 0.58897 0.41473 0.0
C634 C 0.55721 0.51822 0.32428 0.0
C635 C 0.53253 0.64045 0.37719 0.0
H636 H 0.59734 0.62043 0.24675 0.0
H637 H 0.48611 0.58868 0.24437 0.0
H638 H 0.60599 0.6235 0.34237 0.0
H639 H 0.61913 0.58417 0.31939 0.0
H640 H 0.6296 0.62593 0.30054 0.0
H641 H 0.45416 0.57242 0.29511 0.0
H642 H 0.47937 0.54527 0.32017 0.0
H643 H 0.47281 0.58897 0.33768 0.0
H644 H 0.54577 0.50312 0.39267 0.0
H645 H 0.5266 0.60608 0.43749 0.0
H646 H 0.57983 0.52944 0.30853 0.0
H647 H 0.53409 0.51379 0.30629 0.0
H648 H 0.56335 0.49235 0.33296 0.0
H649 H 0.5492 0.65172 0.35564 0.0
H650 H 0.53824 0.65668 0.40261 0.0
H651 H 0.50459 0.64227 0.3703 0.0
C652 C 0.08354 0.50714 0.74375 0.0
C653 C 0.07468 0.48385 0.714 0.0
C654 C 0.07557 0.49769 0.77844 0.0
C655 C 0.05776 0.46415 0.78367 0.0
C656 C 0.04753 0.44089 0.7537 0.0
C657 C 0.05618 0.45103 0.7191 0.0
C658 C 0.08734 0.52334 0.80957 0.0
C659 C 0.02751 0.40546 0.75817 0.0
C660 C 0.08403 0.44182 0.87423 0.0
C661 C 0.05904 0.45816 0.89554 0.0
C662 C 0.08135 0.43904 0.83696 0.0
C663 C 0.05305 0.4532 0.82081 0.0
C664 C 0.0251 0.46494 0.84241 0.0
C665 C 0.02851 0.46747 0.87979 0.0
C666 C 0.11147 0.42569 0.81509 0.0
C667 C 0.99377 0.47881 0.82611 0.0
H668 H 0.09768 0.53259 0.73995 0.0
H669 H 0.04811 0.43346 0.69611 0.0
H670 H 0.06442 0.52921 0.82672 0.0
H671 H 0.10621 0.51148 0.82623 0.0
H672 H 0.10029 0.54858 0.80082 0.0
H673 H 0.02456 0.38909 0.73248 0.0
H674 H 0.04092 0.39079 0.77754 0.0
H675 H 1.00088 0.40932 0.76912 0.0
H676 H 0.10755 0.43444 0.88656 0.0
H677 H 0.00912 0.48005 0.89634 0.0
H678 H 0.12866 0.44848 0.80604 0.0
H679 H 0.10164 0.40936 0.79098 0.0
H680 H 0.12774 0.40985 0.8308 0.0
H681 H 0.00203 0.50444 0.815 0.0
H682 H 0.97245 0.48278 0.84603 0.0
H683 H 0.98317 0.46036 0.80377 0.0
C684 C 0.81336 0.0246 0.00685 0.0
C685 C 0.82202 0.98964 0.00361 0.0
C686 C 0.7809 0.03307 0.0215 0.0
C687 C 0.75658 0.00592 0.03317 0.0
C688 C 0.76517 0.9706 0.02993 0.0
C689 C 0.7978 0.9629 0.01529 0.0
C690 C 0.773 0.0711 0.02498 0.0
C691 C 0.73989 0.94089 0.04208 0.0
C692 C 0.68675 0.02208 0.10331 0.0
C693 C 0.65599 0.0178 0.08278 0.0
C694 C 0.71997 0.02034 0.08726 0.0
C695 C 0.72243 0.01416 0.04975 0.0
C696 C 0.69165 0.01225 0.02867 0.0
C697 C 0.65866 0.01366 0.04551 0.0
C698 C 0.75216 0.02296 0.11066 0.0
C699 C 0.69312 0.00641 0.98853 0.0
H700 H 0.83198 0.04548 0.99803 0.0
H701 H 0.80422 0.93581 0.01276 0.0
H702 H 0.74522 0.07348 0.01806 0.0
H703 H 0.77688 0.08173 0.05309 0.0
H704 H 0.79049 0.08764 0.00772 0.0
H705 H 0.75048 0.91485 0.03751 0.0
H706 H 0.73407 0.94554 0.07099 0.0
H707 H 0.71459 0.93996 0.02762 0.0
H708 H 0.68473 0.02545 0.13218 0.0
H709 H 0.63491 0.00989 0.02958 0.0
H710 H 0.77289 0.04234 0.10084 0.0
H711 H 0.76317 0.99706 0.10951 0.0
H712 H 0.74612 0.03088 0.13897 0.0
H713 H 0.71701 0.02072 0.97744 0.0
H714 H 0.66948 0.015 0.97594 0.0
H715 H 0.69417 0.97789 0.98106 0.0
C716 C 0.75626 0.00462 0.48331 0.0
C717 C 0.72793 0.989 0.50249 0.0
C718 C 0.79115 0.99985 0.49179 0.0
C719 C 0.79781 0.98011 0.52103 0.0
C720 C 0.76921 0.96232 0.53888 0.0
C721 C 0.73453 0.9666 0.52903 0.0
C722 C 0.82087 0.01824 0.47126 0.0
C723 C 0.77497 0.94166 0.57068 0.0
C724 C 0.8929 0.96549 0.54189 0.0
C725 C 0.90272 0.99535 0.5647 0.0
C726 C 0.85868 0.95971 0.52752 0.0
C727 C 0.83366 0.98397 0.53699 0.0
C728 C 0.84311 0.0133 0.56131 0.0
C729 C 0.87744 0.01872 0.57457 0.0
C730 C 0.84952 0.92819 0.50175 0.0
C731 C 0.81715 0.03948 0.57291 0.0
H732 H 0.75118 0.02158 0.46244 0.0
H733 H 0.71264 0.95454 0.54396 0.0
H734 H 0.83251 0.04176 0.48763 0.0
H735 H 0.84203 0.00061 0.46545 0.0
H736 H 0.81172 0.02698 0.44569 0.0
H737 H 0.75114 0.92413 0.5771 0.0
H738 H 0.79744 0.92549 0.56604 0.0
H739 H 0.7814 0.96029 0.59429 0.0
H740 H 0.91177 0.94656 0.53562 0.0
H741 H 0.88463 0.04185 0.59239 0.0
H742 H 0.84315 0.93728 0.47544 0.0
H743 H 0.82575 0.9123 0.51102 0.0
H744 H 0.87143 0.91107 0.49833 0.0
H745 H 0.80979 0.05346 0.54967 0.0
H746 H 0.82799 0.05944 0.59394 0.0
H747 H 0.79268 0.02561 0.58332 0.0
C748 C 0.29239 0.59883 0.13319 0.0
C749 C 0.31917 0.58217 0.14826 0.0
C750 C 0.26145 0.57947 0.12038 0.0
C751 C 0.25699 0.54247 0.12287 0.0
C752 C 0.2828 0.52586 0.14039 0.0
C753 C 0.31363 0.54592 0.15284 0.0
C754 C 0.23467 0.59837 0.10185 0.0
C755 C 0.2795 0.48669 0.1443 0.0
C756 C 0.16467 0.50853 0.09374 0.0
C757 C 0.17021 0.50245 0.05692 0.0
C758 C 0.19337 0.51763 0.11687 0.0
C759 C 0.22793 0.52151 0.10248 0.0
C760 C 0.23367 0.51109 0.06609 0.0
C761 C 0.20469 0.50165 0.04376 0.0
C762 C 0.18643 0.52605 0.15602 0.0
C763 C 0.27022 0.5133 0.04995 0.0
H764 H 0.29623 0.62686 0.12989 0.0
H765 H 0.33398 0.53277 0.16481 0.0
H766 H 0.23343 0.58904 0.07314 0.0
H767 H 0.20809 0.59237 0.11351 0.0
H768 H 0.24113 0.6274 0.10391 0.0
H769 H 0.28662 0.48143 0.17185 0.0
H770 H 0.2527 0.47387 0.13837 0.0
H771 H 0.29847 0.47425 0.12587 0.0
H772 H 0.13803 0.50891 0.10411 0.0
H773 H 0.20899 0.4962 0.01536 0.0
H774 H 0.18545 0.55489 0.16118 0.0
H775 H 0.2078 0.51804 0.17256 0.0
H776 H 0.16086 0.51265 0.16452 0.0
H777 H 0.28098 0.54134 0.04995 0.0
H778 H 0.27041 0.50136 0.02206 0.0
H779 H 0.28807 0.49969 0.06616 0.0
C780 C 0.24361 0.57836 0.60962 0.0
C781 C 0.22207 0.54655 0.60444 0.0
C782 C 0.28006 0.57978 0.60308 0.0
C783 C 0.29536 0.5487 0.59102 0.0
C784 C 0.27397 0.51626 0.58729 0.0
C785 C 0.2376 0.51559 0.59393 0.0
C786 C 0.30186 0.6148 0.60774 0.0
C787 C 0.28933 0.48239 0.57507 0.0
C788 C 0.3753 0.55034 0.53009 0.0
C789 C 0.40176 0.5429 0.5531 0.0
C790 C 0.34107 0.55443 0.54267 0.0
C791 C 0.3329 0.5503 0.57909 0.0
C792 C 0.36004 0.54459 0.60288 0.0
C793 C 0.39428 0.541 0.58955 0.0
C794 C 0.31321 0.56129 0.51651 0.0
C795 C 0.35267 0.53979 0.64185 0.0
H796 H 0.23191 0.60241 0.61792 0.0
H797 H 0.22123 0.49082 0.5902 0.0
H798 H 0.32727 0.61181 0.62058 0.0
H799 H 0.30774 0.62484 0.58113 0.0
H800 H 0.28801 0.63471 0.62409 0.0
H801 H 0.26967 0.45905 0.57588 0.0
H802 H 0.29935 0.48389 0.54729 0.0
H803 H 0.31198 0.47852 0.59213 0.0
H804 H 0.38119 0.55195 0.50189 0.0
H805 H 0.41469 0.5349 0.6073 0.0
H806 H 0.29908 0.58403 0.52681 0.0
H807 H 0.29348 0.53799 0.51326 0.0
H808 H 0.32448 0.56676 0.48984 0.0
H809 H 0.33153 0.55574 0.65245 0.0
H810 H 0.37676 0.54694 0.65817 0.0
H811 H 0.34385 0.51167 0.64502 0.0
C812 C 1.00072 0.77251 0.00908 0.0
C813 C 0.9818 0.77926 0.97903 0.0
C814 C 0.01347 0.73963 0.012 0.0
C815 C 0.00772 0.71295 0.98374 0.0
C816 C 0.98937 0.72004 0.95288 0.0
C817 C 0.97596 0.75282 0.95128 0.0
C818 C 0.03368 0.73458 0.04527 0.0
C819 C 0.98435 0.69338 0.92118 0.0
C820 C 0.07195 0.64295 0.98363 0.0
C821 C 0.05001 0.61327 0.99242 0.0
C822 C 0.05832 0.67524 0.97988 0.0
C823 C 0.02188 0.67817 0.98583 0.0
C824 C 0.99946 0.64787 0.99384 0.0
C825 C 0.01389 0.6159 0.99711 0.0
C826 C 0.08299 0.70593 0.9689 0.0
C827 C 0.95999 0.64773 0.9976 0.0
H828 H 0.00551 0.79292 0.03057 0.0
H829 H 0.96178 0.75809 0.92772 0.0
H830 H 0.03732 0.70664 0.04876 0.0
H831 H 0.06001 0.74961 0.04415 0.0
H832 H 0.02006 0.74559 0.06929 0.0
H833 H 0.97719 0.7057 0.89674 0.0
H834 H 0.00865 0.68004 0.91556 0.0
H835 H 0.9628 0.67299 0.92703 0.0
H836 H 0.09987 0.64085 0.97928 0.0
H837 H 0.99654 0.59263 0.0022 0.0
H838 H 0.09023 0.7239 0.99275 0.0
H839 H 0.07024 0.72114 0.94948 0.0
H840 H 0.10768 0.69716 0.95673 0.0
H841 H 0.95096 0.63508 0.02222 0.0
H842 H 0.94726 0.63128 0.97487 0.0
H843 H 0.95057 0.67427 0.99815 0.0
C844 C 0.48969 0.72559 0.07782 0.0
C845 C 0.47912 0.71216 0.11039 0.0
C846 C 0.48794 0.76128 0.07233 0.0
C847 C 0.47685 0.78428 0.10065 0.0
C848 C 0.46266 0.77001 0.13216 0.0
C849 C 0.4636 0.73388 0.1365 0.0
C850 C 0.5014 0.77506 0.0376 0.0
C851 C 0.45064 0.79347 0.1631 0.0
C852 C 0.53567 0.86936 0.11546 0.0
C853 C 0.51387 0.89493 0.1067 0.0
C854 C 0.52372 0.8336 0.11344 0.0
C855 C 0.48914 0.82256 0.1013 0.0
C856 C 0.46726 0.84802 0.09092 0.0
C857 C 0.47966 0.88412 0.09452 0.0
C858 C 0.54815 0.80771 0.12506 0.0
C859 C 0.43062 0.83739 0.07688 0.0
H860 H 0.50117 0.70859 0.05736 0.0
H861 H 0.45539 0.72345 0.16168 0.0
H862 H 0.48349 0.79357 0.02822 0.0
H863 H 0.52775 0.78976 0.04171 0.0
H864 H 0.50373 0.75346 0.01646 0.0
H865 H 0.43499 0.77818 0.18286 0.0
H866 H 0.47406 0.80762 0.17681 0.0
H867 H 0.43456 0.81355 0.15362 0.0
H868 H 0.56225 0.87742 0.12471 0.0
H869 H 0.46236 0.90379 0.08869 0.0
H870 H 0.55375 0.78889 0.10225 0.0
H871 H 0.53548 0.79223 0.14641 0.0
H872 H 0.57366 0.8209 0.13529 0.0
H873 H 0.43003 0.81311 0.05869 0.0
H874 H 0.42051 0.85863 0.06241 0.0
H875 H 0.4125 0.83178 0.09952 0.0
C876 C 0.10219 0.29401 0.5692 0.0
C877 C 0.10093 0.30799 0.6048 0.0
C878 C 0.0959 0.25759 0.56054 0.0
C879 C 0.0882 0.2347 0.58811 0.0
C880 C 0.08918 0.24847 0.6242 0.0
C881 C 0.09543 0.28494 0.63209 0.0
C882 C 0.09548 0.24398 0.5218 0.0
C883 C 0.08162 0.22489 0.65446 0.0
C884 C 0.02364 0.15365 0.57733 0.0
C885 C 0.04574 0.12666 0.57901 0.0
C886 C 0.03747 0.18887 0.57735 0.0
C887 C 0.07437 0.19733 0.57962 0.0
C888 C 0.097 0.16991 0.57846 0.0
C889 C 0.08234 0.13469 0.57822 0.0
C890 C 0.01237 0.21716 0.57771 0.0
C891 C 0.13648 0.17767 0.58041 0.0
H892 H 0.10672 0.31159 0.54791 0.0
H893 H 0.09492 0.29546 0.65969 0.0
H894 H 0.10716 0.21852 0.5183 0.0
H895 H 0.06782 0.23944 0.51246 0.0
H896 H 0.11006 0.26298 0.50465 0.0
H897 H 0.08664 0.23922 0.68102 0.0
H898 H 0.05362 0.21382 0.65348 0.0
H899 H 0.09809 0.20245 0.6517 0.0
H900 H 0.9953 0.14728 0.57764 0.0
H901 H 0.09941 0.11374 0.57963 0.0
H902 H 0.02054 0.23623 0.55761 0.0
H903 H 0.01296 0.23195 0.6043 0.0
H904 H 0.98482 0.20607 0.57208 0.0
H905 H 0.14567 0.20163 0.56669 0.0
H906 H 0.15005 0.15513 0.5684 0.0
H907 H 0.14438 0.1823 0.60883 0.0
C908 C 0.56735 0.26442 0.47779 0.0
C909 C 0.58001 0.24394 0.50338 0.0
C910 C 0.56094 0.29955 0.48653 0.0
C911 C 0.56712 0.31458 0.52179 0.0
C912 C 0.58085 0.29438 0.54746 0.0
C913 C 0.58716 0.25931 0.53795 0.0
C914 C 0.54667 0.32033 0.45821 0.0
C915 C 0.5881 0.30954 0.58515 0.0
C916 C 0.56839 0.4143 0.53036 0.0
C917 C 0.5328 0.41817 0.53758 0.0
C918 C 0.58072 0.38071 0.52727 0.0
C919 C 0.55686 0.35059 0.53197 0.0
C920 C 0.52158 0.35486 0.54227 0.0
C921 C 0.50988 0.38859 0.5445 0.0
C922 C 0.61838 0.37748 0.51572 0.0
C923 C 0.49546 0.32357 0.54832 0.0
H924 H 0.56201 0.25287 0.45094 0.0
H925 H 0.59712 0.24375 0.55788 0.0
H926 H 0.51985 0.32721 0.46591 0.0
H927 H 0.56355 0.34538 0.45592 0.0
H928 H 0.54523 0.30549 0.4316 0.0
H929 H 0.60151 0.2915 0.60111 0.0
H930 H 0.60479 0.33488 0.58481 0.0
H931 H 0.56293 0.315 0.59862 0.0
H932 H 0.58601 0.43721 0.52459 0.0
H933 H 0.48232 0.3917 0.55007 0.0
H934 H 0.61928 0.37209 0.48629 0.0
H935 H 0.62943 0.3554 0.52789 0.0
H936 H 0.6354 0.40222 0.52274 0.0
H937 H 0.48935 0.30838 0.52244 0.0
H938 H 0.47043 0.33161 0.56037 0.0
H939 H 0.50681 0.30569 0.56606 0.0
loop_
_geom_bond_atom_site_label_1
_geom_bond_atom_site_label_2
_geom_bond_distance
_geom_bond_site_symmetry_2
_ccdc_geom_bond_type
O0 Cd1 2.300 . S
O0 C7 1.275 . S
Cd1 O0 2.300 . S
Cd1 O9 2.381 . S
Cd1 O10 2.378 . S
O2 Cd3 2.385 . S
O2 C7 1.255 . S
Cd3 O2 2.385 . S
Cd3 O4 2.317 . S
O4 Cd3 2.317 . S
O4 C5 1.232 . S
C5 O4 1.232 . S
C5 O6 1.218 . S
O6 C5 1.218 . S
C7 O0 1.275 . S
C7 O2 1.255 . S
C8 O9 1.258 . S
C8 O10 1.256 . S
O9 Cd1 2.381 . S
O9 C8 1.258 . S
O10 Cd1 2.378 . S
O10 C8 1.256 . S
O11 Cd12 2.300 . S
O11 C18 1.275 . S
Cd12 O11 2.300 . S
Cd12 O20 2.381 . S
Cd12 O21 2.378 . S
O13 Cd14 2.385 . S
O13 C18 1.255 . S
Cd14 O13 2.385 . S
Cd14 O15 2.317 . S
O15 Cd14 2.317 . S
O15 C16 1.232 . S
C16 O15 1.232 . S
C16 O17 1.218 . S
O17 C16 1.218 . S
C18 O11 1.275 . S
C18 O13 1.255 . S
C19 O20 1.258 . S
C19 O21 1.256 . S
O20 Cd12 2.381 . S
O20 C19 1.258 . S
O21 Cd12 2.378 . S
O21 C19 1.256 . S
O22 Cd23 2.300 . S
O22 C29 1.275 . S
Cd23 O22 2.300 . S
Cd23 O31 2.381 . S
Cd23 O32 2.378 . S
O24 Cd25 2.385 . S
O24 C29 1.255 . S
Cd25 O24 2.385 . S
Cd25 O26 2.317 . S
O26 Cd25 2.317 . S
O26 C27 1.232 . S
C27 O26 1.232 . S
C27 O28 1.218 . S
O28 C27 1.218 . S
C29 O22 1.275 . S
C29 O24 1.255 . S
C30 O31 1.258 . S
C30 O32 1.256 . S
O31 Cd23 2.381 . S
O31 C30 1.258 . S
O32 Cd23 2.378 . S
O32 C30 1.256 . S
O33 Cd34 2.300 . S
O33 C40 1.275 . S
Cd34 O33 2.300 . S
Cd34 O42 2.381 . S
Cd34 O43 2.378 . S
O35 Cd36 2.385 . S
O35 C40 1.255 . S
Cd36 O35 2.385 . S
Cd36 O37 2.317 . S
O37 Cd36 2.317 . S
O37 C38 1.232 . S
C38 O37 1.232 . S
C38 O39 1.218 . S
O39 C38 1.218 . S
C40 O33 1.275 . S
C40 O35 1.255 . S
C41 O42 1.258 . S
C41 O43 1.256 . S
O42 Cd34 2.381 . S
O42 C41 1.258 . S
O43 Cd34 2.378 . S
O43 C41 1.256 . S
O44 Cd45 2.300 . S
O44 C51 1.275 . S
Cd45 O44 2.300 . S
Cd45 O53 2.381 . S
Cd45 O54 2.378 1_556 S
O46 Cd47 2.385 1_566 S
O46 C51 1.255 . S
Cd47 O46 2.385 1_544 S
Cd47 O48 2.317 1_545 S
O48 Cd47 2.317 1_565 S
O48 C49 1.232 . S
C49 O48 1.232 . S
C49 O50 1.228 1_565 S
O50 C49 1.228 1_545 S
C51 O44 1.275 . S
C51 O46 1.255 . S
C52 O53 1.258 1_554 S
C52 O54 1.256 . S
O53 Cd45 2.381 . S
O53 C52 1.258 1_556 S
O54 Cd45 2.378 1_554 S
O54 C52 1.256 . S
O55 Cd56 2.300 . S
O55 C62 1.275 . S
Cd56 O55 2.300 . S
Cd56 O64 2.381 . S
Cd56 O65 2.378 . S
O57 Cd58 2.385 . S
O57 C62 1.255 . S
Cd58 O57 2.385 . S
Cd58 O59 2.317 . S
O59 Cd58 2.317 . S
O59 C60 1.232 . S
C60 O59 1.232 . S
C60 O61 1.218 . S
O61 C60 1.218 . S
C62 O55 1.275 . S
C62 O57 1.255 . S
C63 O64 1.258 . S
C63 O65 1.256 . S
O64 Cd56 2.381 . S
O64 C63 1.258 . S
O65 Cd56 2.378 . S
O65 C63 1.256 . S
O66 Cd67 2.300 . S
O66 C73 1.275 . S
Cd67 O66 2.300 . S
Cd67 O75 2.381 . S
Cd67 O76 2.378 . S
O68 Cd69 2.385 . S
O68 C73 1.255 . S
Cd69 O68 2.385 . S
Cd69 O70 2.317 . S
O70 Cd69 2.317 . S
O70 C71 1.232 . S
C71 O70 1.232 . S
C71 O72 1.218 . S
O72 C71 1.218 . S
C73 O66 1.275 . S
C73 O68 1.255 . S
C74 O75 1.258 . S
C74 O76 1.256 . S
O75 Cd67 2.381 . S
O75 C74 1.258 . S
O76 Cd67 2.378 . S
O76 C74 1.256 . S
O77 Cd78 2.300 . S
O77 C84 1.275 . S
Cd78 O77 2.300 . S
Cd78 O86 2.381 . S
Cd78 O87 2.378 . S
O79 Cd80 2.385 . S
O79 C84 1.255 . S
Cd80 O79 2.385 . S
Cd80 O81 2.317 . S
O81 Cd80 2.317 . S
O81 C82 1.232 . S
C82 O81 1.232 . S
C82 O83 1.218 . S
O83 C82 1.218 . S
C84 O77 1.275 . S
C84 O79 1.255 . S
C85 O86 1.258 . S
C85 O87 1.256 . S
O86 Cd78 2.381 . S
O86 C85 1.258 . S
O87 Cd78 2.378 . S
O87 C85 1.256 . S
Zn88 O94 1.920 . S
Zn88 O100 1.898 . S
Zn88 O103 1.905 . S
Zn89 O97 1.905 1_565 S
Zn89 O98 1.898 . S
Zn89 O106 1.920 . S
Zn90 O93 2.080 1_455 S
Zn90 O96 2.114 . S
Zn90 O99 2.120 1_445 S
Zn90 O101 2.120 . S
Zn90 O102 2.114 1_455 S
Zn90 O105 2.080 . S
C91 O96 1.166 . S
C91 O97 1.182 . S
C92 O98 1.167 1_655 S
C92 O99 1.299 . S
O93 Zn90 2.080 1_655 S
O93 C107 1.305 . S
O94 Zn88 1.920 . S
O94 C107 1.234 . S
C95 O100 1.167 1_455 S
C95 O101 1.299 . S
O96 Zn90 2.114 . S
O96 C91 1.166 . S
O97 Zn89 1.905 1_545 S
O97 C91 1.182 . S
O98 Zn89 1.898 . S
O98 C92 1.167 1_455 S
O99 Zn90 2.120 1_665 S
O99 C92 1.299 . S
O100 Zn88 1.898 . S
O100 C95 1.167 1_655 S
O101 Zn90 2.120 . S
O101 C95 1.299 . S
O102 Zn90 2.114 1_655 S
O102 C104 1.166 . S
O103 Zn88 1.905 . S
O103 C104 1.182 . S
C104 O102 1.166 . S
C104 O103 1.182 . S
O105 Zn90 2.080 . S
O105 C108 1.305 1_545 S
O106 Zn89 1.920 . S
O106 C108 1.234 . S
C107 O93 1.305 . S
C107 O94 1.234 . S
C108 O105 1.305 1_565 S
C108 O106 1.234 . S
Zn109 O115 1.920 . S
Zn109 O121 1.898 . S
Zn109 O124 1.905 . S
Zn110 O118 1.905 . S
Zn110 O119 1.898 . S
Zn110 O127 1.920 . S
Zn111 O114 2.080 . S
Zn111 O117 2.114 1_545 S
Zn111 O120 2.120 1_545 S
Zn111 O122 2.120 . S
Zn111 O123 2.111 1_545 S
Zn111 O126 2.080 . S
C112 O117 1.166 . S
C112 O118 1.182 . S
C113 O119 1.167 . S
C113 O120 1.299 . S
O114 Zn111 2.080 . S
O114 C128 1.305 . S
O115 Zn109 1.920 . S
O115 C128 1.234 . S
C116 O121 1.167 . S
C116 O122 1.299 . S
O117 Zn111 2.114 1_565 S
O117 C112 1.166 . S
O118 Zn110 1.905 . S
O118 C112 1.182 . S
O119 Zn110 1.898 . S
O119 C113 1.167 . S
O120 Zn111 2.120 1_565 S
O120 C113 1.299 . S
O121 Zn109 1.898 . S
O121 C116 1.167 . S
O122 Zn111 2.120 . S
O122 C116 1.299 . S
O123 Zn111 2.111 1_565 S
O123 C125 1.165 . S
O124 Zn109 1.905 . S
O124 C125 1.182 1_545 S
C125 O123 1.165 . S
C125 O124 1.182 1_565 S
O126 Zn111 2.080 . S
O126 C129 1.305 . S
O127 Zn110 1.920 . S
O127 C129 1.234 1_565 S
C128 O114 1.305 . S
C128 O115 1.234 . S
C129 O126 1.305 . S
C129 O127 1.234 1_545 S
Zn130 O136 1.920 . S
Zn130 O142 1.898 . S
Zn130 O145 1.905 . S
Zn131 O139 1.905 . S
Zn131 O140 1.898 . S
Zn131 O148 1.920 . S
Zn132 O135 2.080 . S
Zn132 O138 2.114 . S
Zn132 O141 2.120 . S
Zn132 O143 2.120 . S
Zn132 O144 2.114 . S
Zn132 O147 2.080 . S
C133 O138 1.166 . S
C133 O139 1.182 . S
C134 O140 1.167 . S
C134 O141 1.299 . S
O135 Zn132 2.080 . S
O135 C149 1.305 . S
O136 Zn130 1.920 . S
O136 C149 1.234 . S
C137 O142 1.167 . S
C137 O143 1.299 . S
O138 Zn132 2.114 . S
O138 C133 1.166 . S
O139 Zn131 1.905 . S
O139 C133 1.182 . S
O140 Zn131 1.898 . S
O140 C134 1.167 . S
O141 Zn132 2.120 . S
O141 C134 1.299 . S
O142 Zn130 1.898 . S
O142 C137 1.167 . S
O143 Zn132 2.120 . S
O143 C137 1.299 . S
O144 Zn132 2.114 . S
O144 C146 1.166 . S
O145 Zn130 1.905 . S
O145 C146 1.182 . S
C146 O144 1.166 . S
C146 O145 1.182 . S
O147 Zn132 2.080 . S
O147 C150 1.305 . S
O148 Zn131 1.920 . S
O148 C150 1.234 . S
C149 O135 1.305 . S
C149 O136 1.234 . S
C150 O147 1.305 . S
C150 O148 1.234 . S
Zn151 O157 1.920 . S
Zn151 O163 1.898 . S
Zn151 O166 1.905 . S
Zn152 O160 1.905 1_655 S
Zn152 O161 1.898 . S
Zn152 O169 1.920 . S
Zn153 O156 2.080 1_554 S
Zn153 O159 2.114 . S
Zn153 O162 2.120 1_554 S
Zn153 O164 2.120 . S
Zn153 O165 2.114 1_554 S
Zn153 O168 2.080 . S
C154 O159 1.166 . S
C154 O160 1.182 . S
C155 O161 1.167 1_556 S
C155 O162 1.299 1_655 S
O156 Zn153 2.080 1_556 S
O156 C170 1.305 . S
O157 Zn151 1.920 . S
O157 C170 1.234 . S
C158 O163 1.167 1_554 S
C158 O164 1.299 . S
O159 Zn153 2.114 . S
O159 C154 1.166 . S
O160 Zn152 1.905 1_455 S
O160 C154 1.182 . S
O161 Zn152 1.898 . S
O161 C155 1.167 1_554 S
O162 Zn153 2.120 1_556 S
O162 C155 1.299 1_455 S
O163 Zn151 1.898 . S
O163 C158 1.167 1_556 S
O164 Zn153 2.120 . S
O164 C158 1.299 . S
O165 Zn153 2.114 1_556 S
O165 C167 1.166 . S
O166 Zn151 1.905 . S
O166 C167 1.182 . S
C167 O165 1.166 . S
C167 O166 1.182 . S
O168 Zn153 2.080 . S
O168 C171 1.305 . S
O169 Zn152 1.920 . S
O169 C171 1.234 1_655 S
C170 O156 1.305 . S
C170 O157 1.234 . S
C171 O168 1.305 . S
C171 O169 1.234 1_455 S
C172 C173 1.391 . S
C172 C174 1.394 . S
C172 H188 0.931 . S
C173 C172 1.391 . S
C173 C177 1.376 . S
C174 C172 1.394 . S
C174 C175 1.369 . S
C174 C178 1.531 . S
C175 C174 1.369 . S
C175 C176 1.410 . S
C175 C183 1.503 . S
C176 C175 1.410 . S
C176 C177 1.392 . S
C176 C179 1.511 . S
C177 C173 1.376 . S
C177 C176 1.392 . S
C177 H189 0.929 . S
C178 C174 1.531 . S
C178 H190 0.960 . S
C178 H191 0.962 . S
C178 H192 0.960 . S
C179 C176 1.511 . S
C179 H193 0.961 . S
C179 H194 0.961 . S
C179 H195 0.961 . S
C180 C181 1.370 . S
C180 C182 1.363 . S
C180 H196 0.931 . S
C181 C180 1.370 . S
C181 C185 1.408 . S
C182 C180 1.363 . S
C182 C183 1.370 . S
C182 C186 1.524 . S
C183 C175 1.503 . S
C183 C182 1.370 . S
C183 C184 1.403 . S
C184 C183 1.403 . S
C184 C185 1.404 . S
C184 C187 1.539 . S
C185 C181 1.408 . S
C185 C184 1.404 . S
C185 H197 0.930 . S
C186 C182 1.524 . S
C186 H198 0.956 . S
C186 H199 0.961 . S
C186 H200 0.961 . S
C187 C184 1.539 . S
C187 H201 0.958 . S
C187 H202 0.961 . S
C187 H203 0.960 . S
H188 C172 0.931 . S
H189 C177 0.929 . S
H190 C178 0.960 . S
H191 C178 0.962 . S
H192 C178 0.960 . S
H193 C179 0.961 . S
H194 C179 0.961 . S
H195 C179 0.961 . S
H196 C180 0.931 . S
H197 C185 0.930 . S
H198 C186 0.956 . S
H199 C186 0.961 . S
H200 C186 0.961 . S
H201 C187 0.958 . S
H202 C187 0.961 . S
H203 C187 0.960 . S
C204 C205 1.391 . S
C204 C206 1.394 . S
C204 H220 0.931 . S
C205 C204 1.391 . S
C205 C209 1.376 . S
C206 C204 1.394 . S
C206 C207 1.369 . S
C206 C210 1.531 . S
C207 C206 1.369 . S
C207 C208 1.410 . S
C207 C215 1.503 . S
C208 C207 1.410 . S
C208 C209 1.392 . S
C208 C211 1.511 . S
C209 C205 1.376 . S
C209 C208 1.392 . S
C209 H221 0.929 . S
C210 C206 1.531 . S
C210 H222 0.960 . S
C210 H223 0.962 . S
C210 H224 0.960 . S
C211 C208 1.511 . S
C211 H225 0.961 . S
C211 H226 0.961 . S
C211 H227 0.961 . S
C212 C213 1.370 . S
C212 C214 1.363 . S
C212 H228 0.931 1_565 S
C213 C212 1.370 . S
C213 C217 1.408 . S
C214 C212 1.363 . S
C214 C215 1.370 . S
C214 C218 1.524 . S
C215 C207 1.503 . S
C215 C214 1.370 . S
C215 C216 1.403 . S
C216 C215 1.403 . S
C216 C217 1.404 . S
C216 C219 1.539 . S
C217 C213 1.408 . S
C217 C216 1.404 . S
C217 H229 0.930 . S
C218 C214 1.524 . S
C218 H230 0.956 . S
C218 H231 0.961 . S
C218 H232 0.961 1_565 S
C219 C216 1.539 . S
C219 H233 0.958 . S
C219 H234 0.961 . S
C219 H235 0.960 . S
H220 C204 0.931 . S
H221 C209 0.929 . S
H222 C210 0.960 . S
H223 C210 0.962 . S
H224 C210 0.960 . S
H225 C211 0.961 . S
H226 C211 0.961 . S
H227 C211 0.961 . S
H228 C212 0.931 1_545 S
H229 C217 0.930 . S
H230 C218 0.956 . S
H231 C218 0.961 . S
H232 C218 0.961 1_545 S
H233 C219 0.958 . S
H234 C219 0.961 . S
H235 C219 0.960 . S
C236 C237 1.391 . S
C236 C238 1.394 . S
C236 H252 0.931 . S
C237 C236 1.391 . S
C237 C241 1.376 . S
C238 C236 1.394 . S
C238 C239 1.369 . S
C238 C242 1.531 . S
C239 C238 1.369 . S
C239 C240 1.410 . S
C239 C247 1.503 . S
C240 C239 1.410 . S
C240 C241 1.392 . S
C240 C243 1.511 . S
C241 C237 1.376 . S
C241 C240 1.392 . S
C241 H253 0.929 . S
C242 C238 1.531 . S
C242 H254 0.960 . S
C242 H255 0.962 . S
C242 H256 0.960 . S
C243 C240 1.511 . S
C243 H257 0.961 . S
C243 H258 0.961 . S
C243 H259 0.961 . S
C244 C245 1.370 . S
C244 C246 1.363 . S
C244 H260 0.931 . S
C245 C244 1.370 . S
C245 C249 1.408 . S
C246 C244 1.363 . S
C246 C247 1.370 . S
C246 C250 1.524 . S
C247 C239 1.503 . S
C247 C246 1.370 . S
C247 C248 1.403 . S
C248 C247 1.403 . S
C248 C249 1.404 . S
C248 C251 1.539 . S
C249 C245 1.408 . S
C249 C248 1.404 . S
C249 H261 0.930 . S
C250 C246 1.524 . S
C250 H262 0.956 . S
C250 H263 0.961 . S
C250 H264 0.961 . S
C251 C248 1.539 . S
C251 H265 0.958 . S
C251 H266 0.961 . S
C251 H267 0.960 . S
H252 C236 0.931 . S
H253 C241 0.929 . S
H254 C242 0.960 . S
H255 C242 0.962 . S
H256 C242 0.960 . S
H257 C243 0.961 . S
H258 C243 0.961 . S
H259 C243 0.961 . S
H260 C244 0.931 . S
H261 C249 0.930 . S
H262 C250 0.956 . S
H263 C250 0.961 . S
H264 C250 0.961 . S
H265 C251 0.958 . S
H266 C251 0.961 . S
H267 C251 0.960 . S
C268 C269 1.391 . S
C268 C270 1.394 . S
C268 H284 0.931 . S
C269 C268 1.391 . S
C269 C273 1.376 . S
C270 C268 1.394 . S
C270 C271 1.369 . S
C270 C274 1.531 1_655 S
C271 C270 1.369 . S
C271 C272 1.410 . S
C271 C279 1.503 . S
C272 C271 1.410 . S
C272 C273 1.392 . S
C272 C275 1.511 . S
C273 C269 1.376 . S
C273 C272 1.392 . S
C273 H285 0.929 . S
C274 C270 1.531 1_455 S
C274 H286 0.960 . S
C274 H287 0.962 . S
C274 H288 0.960 . S
C275 C272 1.511 . S
C275 H289 0.961 . S
C275 H290 0.961 . S
C275 H291 0.961 . S
C276 C277 1.370 1_655 S
C276 C278 1.363 . S
C276 H292 0.931 . S
C277 C276 1.370 1_455 S
C277 C281 1.408 . S
C278 C276 1.363 . S
C278 C279 1.370 . S
C278 C282 1.524 . S
C279 C271 1.503 . S
C279 C278 1.370 . S
C279 C280 1.403 1_655 S
C280 C279 1.403 1_455 S
C280 C281 1.404 . S
C280 C283 1.539 . S
C281 C277 1.408 . S
C281 C280 1.404 . S
C281 H293 0.930 . S
C282 C278 1.524 . S
C282 H294 0.956 . S
C282 H295 0.961 . S
C282 H296 0.961 . S
C283 C280 1.539 . S
C283 H297 0.958 . S
C283 H298 0.961 . S
C283 H299 0.960 . S
H284 C268 0.931 . S
H285 C273 0.929 . S
H286 C274 0.960 . S
H287 C274 0.962 . S
H288 C274 0.960 . S
H289 C275 0.961 . S
H290 C275 0.961 . S
H291 C275 0.961 . S
H292 C276 0.931 . S
H293 C281 0.930 . S
H294 C282 0.956 . S
H295 C282 0.961 . S
H296 C282 0.961 . S
H297 C283 0.958 . S
H298 C283 0.961 . S
H299 C283 0.960 . S
C300 C301 1.391 . S
C300 C302 1.394 . S
C300 H316 0.931 . S
C301 C300 1.391 . S
C301 C305 1.376 . S
C302 C300 1.394 . S
C302 C303 1.369 . S
C302 C306 1.531 . S
C303 C302 1.369 . S
C303 C304 1.410 . S
C303 C311 1.503 . S
C304 C303 1.410 . S
C304 C305 1.392 . S
C304 C307 1.511 . S
C305 C301 1.376 . S
C305 C304 1.392 . S
C305 H317 0.929 . S
C306 C302 1.531 . S
C306 H318 0.960 . S
C306 H319 0.962 . S
C306 H320 0.960 . S
C307 C304 1.511 . S
C307 H321 0.961 . S
C307 H322 0.961 . S
C307 H323 0.961 . S
C308 C309 1.370 . S
C308 C310 1.363 . S
C308 H324 0.931 . S
C309 C308 1.370 . S
C309 C313 1.408 . S
C310 C308 1.363 . S
C310 C311 1.370 . S
C310 C314 1.524 . S
C311 C303 1.503 . S
C311 C310 1.370 . S
C311 C312 1.403 . S
C312 C311 1.403 . S
C312 C313 1.404 . S
C312 C315 1.539 . S
C313 C309 1.408 . S
C313 C312 1.404 . S
C313 H325 0.930 . S
C314 C310 1.524 . S
C314 H326 0.956 . S
C314 H327 0.961 . S
C314 H328 0.961 . S
C315 C312 1.539 . S
C315 H329 0.958 . S
C315 H330 0.961 . S
C315 H331 0.960 . S
H316 C300 0.931 . S
H317 C305 0.929 . S
H318 C306 0.960 . S
H319 C306 0.962 . S
H320 C306 0.960 . S
H321 C307 0.961 . S
H322 C307 0.961 . S
H323 C307 0.961 . S
H324 C308 0.931 . S
H325 C313 0.930 . S
H326 C314 0.956 . S
H327 C314 0.961 . S
H328 C314 0.961 . S
H329 C315 0.958 . S
H330 C315 0.961 . S
H331 C315 0.960 . S
C332 C333 1.391 . S
C332 C334 1.394 . S
C332 H348 0.931 . S
C333 C332 1.391 . S
C333 C337 1.376 . S
C334 C332 1.394 . S
C334 C335 1.369 . S
C334 C338 1.531 . S
C335 C334 1.369 . S
C335 C336 1.410 . S
C335 C343 1.503 . S
C336 C335 1.410 . S
C336 C337 1.392 . S
C336 C339 1.511 . S
C337 C333 1.376 . S
C337 C336 1.392 . S
C337 H349 0.929 . S
C338 C334 1.531 . S
C338 H350 0.960 . S
C338 H351 0.962 . S
C338 H352 0.960 . S
C339 C336 1.511 . S
C339 H353 0.961 . S
C339 H354 0.961 . S
C339 H355 0.961 . S
C340 C341 1.370 . S
C340 C342 1.363 . S
C340 H356 0.931 . S
C341 C340 1.370 . S
C341 C345 1.408 . S
C342 C340 1.363 . S
C342 C343 1.370 . S
C342 C346 1.524 . S
C343 C335 1.503 . S
C343 C342 1.370 . S
C343 C344 1.403 . S
C344 C343 1.403 . S
C344 C345 1.404 . S
C344 C347 1.539 1_565 S
C345 C341 1.408 . S
C345 C344 1.404 . S
C345 H357 0.930 1_565 S
C346 C342 1.524 . S
C346 H358 0.956 . S
C346 H359 0.961 . S
C346 H360 0.961 . S
C347 C344 1.539 1_545 S
C347 H361 0.958 . S
C347 H362 0.961 . S
C347 H363 0.960 . S
H348 C332 0.931 . S
H349 C337 0.929 . S
H350 C338 0.960 . S
H351 C338 0.962 . S
H352 C338 0.960 . S
H353 C339 0.961 . S
H354 C339 0.961 . S
H355 C339 0.961 . S
H356 C340 0.931 . S
H357 C345 0.930 1_545 S
H358 C346 0.956 . S
H359 C346 0.961 . S
H360 C346 0.961 . S
H361 C347 0.958 . S
H362 C347 0.961 . S
H363 C347 0.960 . S
C364 C365 1.391 . S
C364 C366 1.394 . S
C364 H380 0.931 . S
C365 C364 1.391 . S
C365 C369 1.376 . S
C366 C364 1.394 . S
C366 C367 1.369 . S
C366 C370 1.531 . S
C367 C366 1.369 . S
C367 C368 1.410 . S
C367 C375 1.503 . S
C368 C367 1.410 . S
C368 C369 1.392 . S
C368 C371 1.511 . S
C369 C365 1.376 . S
C369 C368 1.392 . S
C369 H381 0.929 . S
C370 C366 1.531 . S
C370 H382 0.960 . S
C370 H383 0.962 . S
C370 H384 0.960 . S
C371 C368 1.511 . S
C371 H385 0.961 . S
C371 H386 0.961 . S
C371 H387 0.961 . S
C372 C373 1.370 . S
C372 C374 1.363 . S
C372 H388 0.931 1_556 S
C373 C372 1.370 . S
C373 C377 1.408 . S
C374 C372 1.363 . S
C374 C375 1.370 . S
C374 C378 1.511 1_556 S
C375 C367 1.503 . S
C375 C374 1.370 . S
C375 C376 1.403 . S
C376 C375 1.403 . S
C376 C377 1.404 . S
C376 C379 1.539 . S
C377 C373 1.408 . S
C377 C376 1.404 . S
C377 H389 0.930 . S
C378 C374 1.511 1_554 S
C378 H390 0.961 . S
C378 H391 0.950 1_554 S
C378 H392 0.981 . S
C379 C376 1.539 . S
C379 H393 0.958 . S
C379 H394 0.961 . S
C379 H395 0.960 . S
H380 C364 0.931 . S
H381 C369 0.929 . S
H382 C370 0.960 . S
H383 C370 0.962 . S
H384 C370 0.960 . S
H385 C371 0.961 . S
H386 C371 0.961 . S
H387 C371 0.961 . S
H388 C372 0.931 1_554 S
H389 C377 0.930 . S
H390 C378 0.961 . S
H391 C378 0.950 1_556 S
H392 C378 0.981 . S
H393 C379 0.958 . S
H394 C379 0.961 . S
H395 C379 0.960 . S
C396 C397 1.391 . S
C396 C398 1.394 . S
C396 H412 0.931 . S
C397 C396 1.391 . S
C397 C401 1.376 . S
C398 C396 1.394 . S
C398 C399 1.369 . S
C398 C402 1.531 . S
C399 C398 1.369 . S
C399 C400 1.410 . S
C399 C407 1.503 . S
C400 C399 1.410 . S
C400 C401 1.392 . S
C400 C403 1.511 . S
C401 C397 1.376 . S
C401 C400 1.392 . S
C401 H413 0.929 . S
C402 C398 1.531 . S
C402 H414 0.960 . S
C402 H415 0.962 . S
C402 H416 0.960 . S
C403 C400 1.511 . S
C403 H417 0.961 . S
C403 H418 0.961 . S
C403 H419 0.961 . S
C404 C405 1.370 . S
C404 C406 1.363 . S
C404 H420 0.931 . S
C405 C404 1.370 . S
C405 C409 1.408 . S
C406 C404 1.363 . S
C406 C407 1.370 . S
C406 C410 1.524 . S
C407 C399 1.503 . S
C407 C406 1.370 . S
C407 C408 1.403 . S
C408 C407 1.403 . S
C408 C409 1.404 . S
C408 C411 1.539 . S
C409 C405 1.408 . S
C409 C408 1.404 . S
C409 H421 0.930 . S
C410 C406 1.524 . S
C410 H422 0.956 . S
C410 H423 0.961 . S
C410 H424 0.961 . S
C411 C408 1.539 . S
C411 H425 0.958 . S
C411 H426 0.961 . S
C411 H427 0.960 . S
H412 C396 0.931 . S
H413 C401 0.929 . S
H414 C402 0.960 . S
H415 C402 0.962 . S
H416 C402 0.960 . S
H417 C403 0.961 . S
H418 C403 0.961 . S
H419 C403 0.961 . S
H420 C404 0.931 . S
H421 C409 0.930 . S
H422 C410 0.956 . S
H423 C410 0.961 . S
H424 C410 0.961 . S
H425 C411 0.958 . S
H426 C411 0.961 . S
H427 C411 0.960 . S
C428 C429 1.391 . S
C428 C430 1.394 . S
C428 H444 0.931 . S
C429 C428 1.391 . S
C429 C433 1.376 . S
C430 C428 1.394 . S
C430 C431 1.369 . S
C430 C434 1.531 . S
C431 C430 1.369 . S
C431 C432 1.410 . S
C431 C439 1.503 . S
C432 C431 1.410 . S
C432 C433 1.392 . S
C432 C435 1.511 . S
C433 C429 1.376 . S
C433 C432 1.392 . S
C433 H445 0.929 . S
C434 C430 1.531 . S
C434 H446 0.960 . S
C434 H447 0.962 . S
C434 H448 0.960 . S
C435 C432 1.511 . S
C435 H449 0.961 . S
C435 H450 0.961 . S
C435 H451 0.961 . S
C436 C437 1.370 . S
C436 C438 1.363 . S
C436 H452 0.931 . S
C437 C436 1.370 . S
C437 C441 1.408 . S
C438 C436 1.363 . S
C438 C439 1.370 . S
C438 C442 1.524 . S
C439 C431 1.503 . S
C439 C438 1.370 . S
C439 C440 1.403 . S
C440 C439 1.403 . S
C440 C441 1.404 . S
C440 C443 1.539 . S
C441 C437 1.408 . S
C441 C440 1.404 . S
C441 H453 0.930 . S
C442 C438 1.524 . S
C442 H454 0.956 . S
C442 H455 0.961 . S
C442 H456 0.961 . S
C443 C440 1.539 . S
C443 H457 0.958 . S
C443 H458 0.961 . S
C443 H459 0.960 . S
H444 C428 0.931 . S
H445 C433 0.929 . S
H446 C434 0.960 . S
H447 C434 0.962 . S
H448 C434 0.960 . S
H449 C435 0.961 . S
H450 C435 0.961 . S
H451 C435 0.961 . S
H452 C436 0.931 . S
H453 C441 0.930 . S
H454 C442 0.956 . S
H455 C442 0.961 . S
H456 C442 0.961 . S
H457 C443 0.958 . S
H458 C443 0.961 . S
H459 C443 0.960 . S
C460 C461 1.391 . S
C460 C462 1.394 . S
C460 H476 0.931 . S
C461 C460 1.391 . S
C461 C465 1.376 . S
C462 C460 1.394 . S
C462 C463 1.369 . S
C462 C466 1.531 1_556 S
C463 C462 1.369 . S
C463 C464 1.410 . S
C463 C471 1.503 . S
C464 C463 1.410 . S
C464 C465 1.392 . S
C464 C467 1.511 . S
C465 C461 1.376 . S
C465 C464 1.392 . S
C465 H477 0.929 . S
C466 C462 1.531 1_554 S
C466 H478 0.960 . S
C466 H479 0.962 . S
C466 H480 0.960 . S
C467 C464 1.511 . S
C467 H481 0.961 . S
C467 H482 0.961 . S
C467 H483 0.961 . S
C468 C469 1.370 . S
C468 C470 1.363 . S
C468 H484 0.931 . S
C469 C468 1.370 . S
C469 C473 1.408 . S
C470 C468 1.363 . S
C470 C471 1.370 1_554 S
C470 C474 1.524 . S
C471 C463 1.503 . S
C471 C470 1.370 1_556 S
C471 C472 1.403 . S
C472 C471 1.403 . S
C472 C473 1.404 1_556 S
C472 C475 1.539 . S
C473 C469 1.408 . S
C473 C472 1.404 1_554 S
C473 H485 0.930 . S
C474 C470 1.524 . S
C474 H486 0.956 . S
C474 H487 0.961 1_554 S
C474 H488 0.961 . S
C475 C472 1.539 . S
C475 H489 0.958 . S
C475 H490 0.961 . S
C475 H491 0.960 . S
H476 C460 0.931 . S
H477 C465 0.929 . S
H478 C466 0.960 . S
H479 C466 0.962 . S
H480 C466 0.960 . S
H481 C467 0.961 . S
H482 C467 0.961 . S
H483 C467 0.961 . S
H484 C468 0.931 . S
H485 C473 0.930 . S
H486 C474 0.956 . S
H487 C474 0.961 1_556 S
H488 C474 0.961 . S
H489 C475 0.958 . S
H490 C475 0.961 . S
H491 C475 0.960 . S
C492 C493 1.391 . S
C492 C494 1.394 . S
C492 H508 0.931 . S
C493 C492 1.391 . S
C493 C497 1.376 . S
C494 C492 1.394 . S
C494 C495 1.369 . S
C494 C498 1.531 . S
C495 C494 1.369 . S
C495 C496 1.410 . S
C495 C503 1.503 . S
C496 C495 1.410 . S
C496 C497 1.392 . S
C496 C499 1.511 . S
C497 C493 1.376 . S
C497 C496 1.392 . S
C497 H509 0.929 . S
C498 C494 1.531 . S
C498 H510 0.960 . S
C498 H511 0.962 1_655 S
C498 H512 0.960 . S
C499 C496 1.511 . S
C499 H513 0.961 . S
C499 H514 0.961 . S
C499 H515 0.961 . S
C500 C501 1.370 . S
C500 C502 1.363 . S
C500 H516 0.931 . S
C501 C500 1.370 . S
C501 C505 1.408 . S
C502 C500 1.363 . S
C502 C503 1.370 . S
C502 C506 1.524 . S
C503 C495 1.503 . S
C503 C502 1.370 . S
C503 C504 1.403 . S
C504 C503 1.403 . S
C504 C505 1.404 . S
C504 C507 1.539 . S
C505 C501 1.408 . S
C505 C504 1.404 . S
C505 H517 0.930 . S
C506 C502 1.524 . S
C506 H518 0.956 . S
C506 H519 0.961 . S
C506 H520 0.961 . S
C507 C504 1.539 . S
C507 H521 0.958 . S
C507 H522 0.961 . S
C507 H523 0.960 . S
H508 C492 0.931 . S
H509 C497 0.929 . S
H510 C498 0.960 . S
H511 C498 0.962 1_455 S
H512 C498 0.960 . S
H513 C499 0.961 . S
H514 C499 0.961 . S
H515 C499 0.961 . S
H516 C500 0.931 . S
H517 C505 0.930 . S
H518 C506 0.956 . S
H519 C506 0.961 . S
H520 C506 0.961 . S
H521 C507 0.958 . S
H522 C507 0.961 . S
H523 C507 0.960 . S
C524 C525 1.391 . S
C524 C526 1.394 . S
C524 H540 0.931 . S
C525 C524 1.391 . S
C525 C529 1.376 . S
C526 C524 1.394 . S
C526 C527 1.369 . S
C526 C530 1.531 . S
C527 C526 1.369 . S
C527 C528 1.410 . S
C527 C535 1.503 . S
C528 C527 1.410 . S
C528 C529 1.392 . S
C528 C531 1.511 . S
C529 C525 1.376 . S
C529 C528 1.392 . S
C529 H541 0.929 . S
C530 C526 1.531 . S
C530 H542 0.960 . S
C530 H543 0.962 . S
C530 H544 0.960 . S
C531 C528 1.511 . S
C531 H545 0.961 . S
C531 H546 0.961 . S
C531 H547 0.961 . S
C532 C533 1.370 . S
C532 C534 1.363 . S
C532 H548 0.931 . S
C533 C532 1.370 . S
C533 C537 1.408 . S
C534 C532 1.363 . S
C534 C535 1.370 . S
C534 C538 1.524 . S
C535 C527 1.503 . S
C535 C534 1.370 . S
C535 C536 1.403 . S
C536 C535 1.403 . S
C536 C537 1.404 . S
C536 C539 1.539 . S
C537 C533 1.408 . S
C537 C536 1.404 . S
C537 H549 0.930 . S
C538 C534 1.524 . S
C538 H550 0.956 . S
C538 H551 0.961 . S
C538 H552 0.961 . S
C539 C536 1.539 . S
C539 H553 0.958 . S
C539 H554 0.961 . S
C539 H555 0.960 . S
H540 C524 0.931 . S
H541 C529 0.929 . S
H542 C530 0.960 . S
H543 C530 0.962 . S
H544 C530 0.960 . S
H545 C531 0.961 . S
H546 C531 0.961 . S
H547 C531 0.961 . S
H548 C532 0.931 . S
H549 C537 0.930 . S
H550 C538 0.956 . S
H551 C538 0.961 . S
H552 C538 0.961 . S
H553 C539 0.958 . S
H554 C539 0.961 . S
H555 C539 0.960 . S
C556 C557 1.391 . S
C556 C558 1.394 . S
C556 H572 0.931 . S
C557 C556 1.391 . S
C557 C561 1.376 . S
C558 C556 1.394 . S
C558 C559 1.369 . S
C558 C562 1.531 . S
C559 C558 1.369 . S
C559 C560 1.410 1_655 S
C559 C567 1.503 . S
C560 C559 1.410 1_455 S
C560 C561 1.392 1_455 S
C560 C563 1.511 1_565 S
C561 C557 1.376 . S
C561 C560 1.392 1_655 S
C561 H573 0.929 1_655 S
C562 C558 1.531 . S
C562 H574 0.960 . S
C562 H575 0.962 . S
C562 H576 0.960 . S
C563 C560 1.511 1_545 S
C563 H577 0.961 1_545 S
C563 H578 0.961 1_545 S
C563 H579 0.961 . S
C564 C565 1.380 . S
C564 C566 1.363 . S
C564 H580 0.931 . S
C565 C564 1.380 . S
C565 C569 1.400 1_565 S
C566 C564 1.363 . S
C566 C567 1.370 . S
C566 C570 1.524 . S
C567 C559 1.503 . S
C567 C566 1.370 . S
C567 C568 1.403 1_565 S
C568 C567 1.403 1_545 S
C568 C569 1.404 . S
C568 C571 1.539 . S
C569 C565 1.400 1_545 S
C569 C568 1.404 . S
C569 H581 0.930 . S
C570 C566 1.524 . S
C570 H582 0.956 . S
C570 H583 0.961 1_655 S
C570 H584 0.961 . S
C571 C568 1.539 . S
C571 H585 0.958 . S
C571 H586 0.961 . S
C571 H587 0.960 . S
H572 C556 0.931 . S
H573 C561 0.929 1_455 S
H574 C562 0.960 . S
H575 C562 0.962 . S
H576 C562 0.960 . S
H577 C563 0.961 1_565 S
H578 C563 0.961 1_565 S
H579 C563 0.961 . S
H580 C564 0.931 . S
H581 C569 0.930 . S
H582 C570 0.956 . S
H583 C570 0.961 1_455 S
H584 C570 0.961 . S
H585 C571 0.958 . S
H586 C571 0.961 . S
H587 C571 0.960 . S
C588 C589 1.391 . S
C588 C590 1.394 . S
C588 H604 0.931 . S
C589 C588 1.391 . S
C589 C593 1.376 . S
C590 C588 1.394 . S
C590 C591 1.369 . S
C590 C594 1.531 . S
C591 C590 1.369 . S
C591 C592 1.410 . S
C591 C599 1.503 . S
C592 C591 1.410 . S
C592 C593 1.392 . S
C592 C595 1.511 . S
C593 C589 1.376 . S
C593 C592 1.392 . S
C593 H605 0.929 . S
C594 C590 1.531 . S
C594 H606 0.960 1_545 S
C594 H607 0.962 . S
C594 H608 0.960 1_545 S
C595 C592 1.511 . S
C595 H609 0.961 . S
C595 H610 0.961 . S
C595 H611 0.961 . S
C596 C597 1.370 . S
C596 C598 1.363 . S
C596 H612 0.931 . S
C597 C596 1.370 . S
C597 C601 1.408 . S
C598 C596 1.363 . S
C598 C599 1.370 . S
C598 C602 1.524 . S
C599 C591 1.503 . S
C599 C598 1.370 . S
C599 C600 1.403 . S
C600 C599 1.403 . S
C600 C601 1.404 . S
C600 C603 1.539 . S
C601 C597 1.408 . S
C601 C600 1.404 . S
C601 H613 0.930 . S
C602 C598 1.524 . S
C602 H614 0.956 . S
C602 H615 0.961 . S
C602 H616 0.961 . S
C603 C600 1.539 . S
C603 H617 0.958 1_545 S
C603 H618 0.961 . S
C603 H619 0.960 . S
H604 C588 0.931 . S
H605 C593 0.929 . S
H606 C594 0.960 1_565 S
H607 C594 0.962 . S
H608 C594 0.960 1_565 S
H609 C595 0.961 . S
H610 C595 0.961 . S
H611 C595 0.961 . S
H612 C596 0.931 . S
H613 C601 0.930 . S
H614 C602 0.956 . S
H615 C602 0.961 . S
H616 C602 0.961 . S
H617 C603 0.958 1_565 S
H618 C603 0.961 . S
H619 C603 0.960 . S
C620 C621 1.391 . S
C620 C622 1.394 . S
C620 H636 0.931 . S
C621 C620 1.391 . S
C621 C625 1.376 . S
C622 C620 1.394 . S
C622 C623 1.369 . S
C622 C626 1.531 . S
C623 C622 1.369 . S
C623 C624 1.410 . S
C623 C631 1.503 . S
C624 C623 1.410 . S
C624 C625 1.392 . S
C624 C627 1.511 . S
C625 C621 1.376 . S
C625 C624 1.392 . S
C625 H637 0.929 . S
C626 C622 1.531 . S
C626 H638 0.960 . S
C626 H639 0.962 . S
C626 H640 0.960 . S
C627 C624 1.511 . S
C627 H641 0.961 . S
C627 H642 0.961 . S
C627 H643 0.961 . S
C628 C629 1.370 . S
C628 C630 1.363 . S
C628 H644 0.931 . S
C629 C628 1.370 . S
C629 C633 1.408 . S
C630 C628 1.363 . S
C630 C631 1.370 . S
C630 C634 1.524 . S
C631 C623 1.503 . S
C631 C630 1.370 . S
C631 C632 1.403 . S
C632 C631 1.403 . S
C632 C633 1.404 . S
C632 C635 1.539 . S
C633 C629 1.408 . S
C633 C632 1.404 . S
C633 H645 0.930 . S
C634 C630 1.524 . S
C634 H646 0.956 . S
C634 H647 0.961 . S
C634 H648 0.961 . S
C635 C632 1.539 . S
C635 H649 0.958 . S
C635 H650 0.961 . S
C635 H651 0.960 . S
H636 C620 0.931 . S
H637 C625 0.929 . S
H638 C626 0.960 . S
H639 C626 0.962 . S
H640 C626 0.960 . S
H641 C627 0.961 . S
H642 C627 0.961 . S
H643 C627 0.961 . S
H644 C628 0.931 . S
H645 C633 0.930 . S
H646 C634 0.956 . S
H647 C634 0.961 . S
H648 C634 0.961 . S
H649 C635 0.958 . S
H650 C635 0.961 . S
H651 C635 0.960 . S
C652 C653 1.391 . S
C652 C654 1.394 . S
C652 H668 0.931 . S
C653 C652 1.391 . S
C653 C657 1.376 . S
C654 C652 1.394 . S
C654 C655 1.369 . S
C654 C658 1.531 . S
C655 C654 1.369 . S
C655 C656 1.410 . S
C655 C663 1.503 . S
C656 C655 1.410 . S
C656 C657 1.392 . S
C656 C659 1.511 . S
C657 C653 1.376 . S
C657 C656 1.392 . S
C657 H669 0.929 . S
C658 C654 1.531 . S
C658 H670 0.960 . S
C658 H671 0.962 . S
C658 H672 0.960 . S
C659 C656 1.511 . S
C659 H673 0.961 . S
C659 H674 0.961 . S
C659 H675 0.961 . S
C660 C661 1.370 . S
C660 C662 1.363 . S
C660 H676 0.931 . S
C661 C660 1.370 . S
C661 C665 1.408 . S
C662 C660 1.363 . S
C662 C663 1.370 . S
C662 C666 1.524 . S
C663 C655 1.503 . S
C663 C662 1.370 . S
C663 C664 1.403 . S
C664 C663 1.403 . S
C664 C665 1.404 . S
C664 C667 1.539 . S
C665 C661 1.408 . S
C665 C664 1.404 . S
C665 H677 0.930 . S
C666 C662 1.524 . S
C666 H678 0.956 . S
C666 H679 0.961 . S
C666 H680 0.961 . S
C667 C664 1.539 . S
C667 H681 0.958 . S
C667 H682 0.961 . S
C667 H683 0.960 . S
H668 C652 0.931 . S
H669 C657 0.929 . S
H670 C658 0.960 . S
H671 C658 0.962 . S
H672 C658 0.960 . S
H673 C659 0.961 . S
H674 C659 0.961 . S
H675 C659 0.961 . S
H676 C660 0.931 . S
H677 C665 0.930 . S
H678 C666 0.956 . S
H679 C666 0.961 . S
H680 C666 0.961 . S
H681 C667 0.958 . S
H682 C667 0.961 . S
H683 C667 0.960 . S
C684 C685 1.391 1_545 S
C684 C686 1.394 . S
C684 H700 0.931 . S
C685 C684 1.391 1_565 S
C685 C689 1.376 . S
C686 C684 1.394 . S
C686 C687 1.369 1_545 S
C686 C690 1.531 . S
C687 C686 1.369 1_565 S
C687 C688 1.410 . S
C687 C695 1.503 . S
C688 C687 1.410 . S
C688 C689 1.392 . S
C688 C691 1.511 . S
C689 C685 1.376 . S
C689 C688 1.392 . S
C689 H701 0.929 . S
C690 C686 1.531 . S
C690 H702 0.960 . S
C690 H703 0.962 . S
C690 H704 0.960 . S
C691 C688 1.511 . S
C691 H705 0.961 . S
C691 H706 0.961 . S
C691 H707 0.961 1_554 S
C692 C693 1.370 . S
C692 C694 1.363 1_545 S
C692 H708 0.931 . S
C693 C692 1.370 . S
C693 C697 1.408 1_545 S
C694 C692 1.363 1_565 S
C694 C695 1.370 . S
C694 C698 1.524 . S
C695 C687 1.503 . S
C695 C694 1.370 . S
C695 C696 1.403 . S
C696 C695 1.403 . S
C696 C697 1.404 . S
C696 C699 1.539 1_554 S
C697 C693 1.408 1_565 S
C697 C696 1.404 . S
C697 H709 0.930 1_554 S
C698 C694 1.524 . S
C698 H710 0.956 1_565 S
C698 H711 0.961 . S
C698 H712 0.961 . S
C699 C696 1.539 1_556 S
C699 H713 0.958 1_565 S
C699 H714 0.961 . S
C699 H715 0.960 . S
H700 C684 0.931 . S
H701 C689 0.929 . S
H702 C690 0.960 . S
H703 C690 0.962 . S
H704 C690 0.960 . S
H705 C691 0.961 . S
H706 C691 0.961 . S
H707 C691 0.961 1_556 S
H708 C692 0.931 . S
H709 C697 0.930 1_556 S
H710 C698 0.956 1_545 S
H711 C698 0.961 . S
H712 C698 0.961 . S
H713 C699 0.958 1_545 S
H714 C699 0.961 . S
H715 C699 0.960 . S
C716 C717 1.391 . S
C716 C718 1.394 . S
C716 H732 0.931 . S
C717 C716 1.391 . S
C717 C721 1.376 . S
C718 C716 1.394 . S
C718 C719 1.369 . S
C718 C722 1.531 . S
C719 C718 1.369 . S
C719 C720 1.410 . S
C719 C727 1.503 . S
C720 C719 1.410 . S
C720 C721 1.392 . S
C720 C723 1.511 . S
C721 C717 1.376 . S
C721 C720 1.392 . S
C721 H733 0.929 . S
C722 C718 1.531 . S
C722 H734 0.960 . S
C722 H735 0.962 . S
C722 H736 0.960 . S
C723 C720 1.511 . S
C723 H737 0.961 . S
C723 H738 0.961 . S
C723 H739 0.961 . S
C724 C725 1.370 . S
C724 C726 1.363 . S
C724 H740 0.931 1_545 S
C725 C724 1.370 . S
C725 C729 1.408 . S
C726 C724 1.363 . S
C726 C727 1.370 . S
C726 C730 1.524 1_545 S
C727 C719 1.503 . S
C727 C726 1.370 . S
C727 C728 1.403 . S
C728 C727 1.403 . S
C728 C729 1.404 . S
C728 C731 1.539 . S
C729 C725 1.408 . S
C729 C728 1.404 . S
C729 H741 0.930 . S
C730 C726 1.524 1_565 S
C730 H742 0.956 . S
C730 H743 0.961 . S
C730 H744 0.961 . S
C731 C728 1.539 . S
C731 H745 0.958 . S
C731 H746 0.961 . S
C731 H747 0.960 . S
H732 C716 0.931 . S
H733 C721 0.929 . S
H734 C722 0.960 . S
H735 C722 0.962 . S
H736 C722 0.960 . S
H737 C723 0.961 . S
H738 C723 0.961 . S
H739 C723 0.961 . S
H740 C724 0.931 1_565 S
H741 C729 0.930 . S
H742 C730 0.956 . S
H743 C730 0.961 . S
H744 C730 0.961 . S
H745 C731 0.958 . S
H746 C731 0.961 . S
H747 C731 0.960 . S
C748 C749 1.391 . S
C748 C750 1.394 . S
C748 H764 0.931 . S
C749 C748 1.391 . S
C749 C753 1.376 . S
C750 C748 1.394 . S
C750 C751 1.369 . S
C750 C754 1.531 . S
C751 C750 1.369 . S
C751 C752 1.410 . S
C751 C759 1.503 . S
C752 C751 1.410 . S
C752 C753 1.392 . S
C752 C755 1.511 1_554 S
C753 C749 1.376 . S
C753 C752 1.392 . S
C753 H765 0.929 . S
C754 C750 1.531 . S
C754 H766 0.960 . S
C754 H767 0.962 . S
C754 H768 0.960 . S
C755 C752 1.511 1_556 S
C755 H769 0.961 . S
C755 H770 0.969 . S
C755 H771 0.961 . S
C756 C757 1.370 . S
C756 C758 1.363 . S
C756 H772 0.931 . S
C757 C756 1.370 . S
C757 C761 1.408 . S
C758 C756 1.363 . S
C758 C759 1.370 . S
C758 C762 1.524 . S
C759 C751 1.503 . S
C759 C758 1.370 . S
C759 C760 1.403 . S
C760 C759 1.403 . S
C760 C761 1.404 . S
C760 C763 1.539 1_554 S
C761 C757 1.408 . S
C761 C760 1.404 . S
C761 H773 0.930 1_554 S
C762 C758 1.524 . S
C762 H774 0.956 . S
C762 H775 0.961 . S
C762 H776 0.961 . S
C763 C760 1.539 1_556 S
C763 H777 0.958 1_556 S
C763 H778 0.961 . S
C763 H779 0.960 . S
H764 C748 0.931 . S
H765 C753 0.929 . S
H766 C754 0.960 . S
H767 C754 0.962 . S
H768 C754 0.960 . S
H769 C755 0.961 . S
H770 C755 0.969 . S
H771 C755 0.961 . S
H772 C756 0.931 . S
H773 C761 0.930 1_556 S
H774 C762 0.956 . S
H775 C762 0.961 . S
H776 C762 0.961 . S
H777 C763 0.958 1_554 S
H778 C763 0.961 . S
H779 C763 0.960 . S
C780 C781 1.391 . S
C780 C782 1.394 . S
C780 H796 0.931 . S
C781 C780 1.391 . S
C781 C785 1.376 . S
C782 C780 1.394 . S
C782 C783 1.369 . S
C782 C786 1.531 . S
C783 C782 1.369 . S
C783 C784 1.410 . S
C783 C791 1.503 . S
C784 C783 1.410 . S
C784 C785 1.392 . S
C784 C787 1.511 . S
C785 C781 1.376 . S
C785 C784 1.392 . S
C785 H797 0.929 . S
C786 C782 1.531 . S
C786 H798 0.960 . S
C786 H799 0.962 . S
C786 H800 0.960 . S
C787 C784 1.511 . S
C787 H801 0.961 . S
C787 H802 0.961 . S
C787 H803 0.961 . S
C788 C789 1.370 . S
C788 C790 1.363 . S
C788 H804 0.931 . S
C789 C788 1.370 . S
C789 C793 1.408 . S
C790 C788 1.363 . S
C790 C791 1.370 . S
C790 C794 1.524 . S
C791 C783 1.503 . S
C791 C790 1.370 . S
C791 C792 1.403 . S
C792 C791 1.403 . S
C792 C793 1.404 . S
C792 C795 1.539 . S
C793 C789 1.408 . S
C793 C792 1.404 . S
C793 H805 0.930 . S
C794 C790 1.524 . S
C794 H806 0.956 . S
C794 H807 0.961 . S
C794 H808 0.961 . S
C795 C792 1.539 . S
C795 H809 0.958 . S
C795 H810 0.961 . S
C795 H811 0.960 . S
H796 C780 0.931 . S
H797 C785 0.929 . S
H798 C786 0.960 . S
H799 C786 0.962 . S
H800 C786 0.960 . S
H801 C787 0.961 . S
H802 C787 0.961 . S
H803 C787 0.961 . S
H804 C788 0.931 . S
H805 C793 0.930 . S
H806 C794 0.956 . S
H807 C794 0.961 . S
H808 C794 0.961 . S
H809 C795 0.958 . S
H810 C795 0.961 . S
H811 C795 0.960 . S
C812 C813 1.413 . S
C812 C814 1.394 . S
C812 H828 0.931 . S
C813 C812 1.413 . S
C813 C817 1.361 1_454 S
C814 C812 1.394 . S
C814 C815 1.369 . S
C814 C818 1.531 . S
C815 C814 1.369 . S
C815 C816 1.410 1_454 S
C815 C823 1.503 . S
C816 C815 1.410 1_656 S
C816 C817 1.392 . S
C816 C819 1.511 . S
C817 C813 1.361 1_656 S
C817 C816 1.392 . S
C817 H829 0.929 . S
C818 C814 1.531 . S
C818 H830 0.960 . S
C818 H831 0.962 . S
C818 H832 0.960 . S
C819 C816 1.511 . S
C819 H833 0.961 . S
C819 H834 0.961 . S
C819 H835 0.961 . S
C820 C821 1.370 1_556 S
C820 C822 1.363 . S
C820 H836 0.931 . S
C821 C820 1.370 1_554 S
C821 C825 1.408 . S
C822 C820 1.363 . S
C822 C823 1.370 1_556 S
C822 C826 1.524 . S
C823 C815 1.503 . S
C823 C822 1.370 1_554 S
C823 C824 1.403 . S
C824 C823 1.403 . S
C824 C825 1.404 . S
C824 C827 1.539 1_455 S
C825 C821 1.408 . S
C825 C824 1.404 . S
C825 H837 0.930 . S
C826 C822 1.524 . S
C826 H838 0.956 . S
C826 H839 0.961 . S
C826 H840 0.961 . S
C827 C824 1.539 1_655 S
C827 H841 0.958 . S
C827 H842 0.961 . S
C827 H843 0.960 . S
H828 C812 0.931 . S
H829 C817 0.929 . S
H830 C818 0.960 . S
H831 C818 0.962 . S
H832 C818 0.960 . S
H833 C819 0.961 . S
H834 C819 0.961 . S
H835 C819 0.961 . S
H836 C820 0.931 . S
H837 C825 0.930 . S
H838 C826 0.956 . S
H839 C826 0.961 . S
H840 C826 0.961 . S
H841 C827 0.958 . S
H842 C827 0.961 . S
H843 C827 0.960 . S
C844 C845 1.391 . S
C844 C846 1.394 . S
C844 H860 0.931 . S
C845 C844 1.391 . S
C845 C849 1.376 . S
C846 C844 1.394 . S
C846 C847 1.369 . S
C846 C850 1.531 . S
C847 C846 1.369 . S
C847 C848 1.410 . S
C847 C855 1.503 . S
C848 C847 1.410 . S
C848 C849 1.392 . S
C848 C851 1.511 . S
C849 C845 1.376 . S
C849 C848 1.392 . S
C849 H861 0.929 . S
C850 C846 1.531 . S
C850 H862 0.960 . S
C850 H863 0.962 . S
C850 H864 0.960 . S
C851 C848 1.511 . S
C851 H865 0.961 . S
C851 H866 0.961 . S
C851 H867 0.961 . S
C852 C853 1.370 . S
C852 C854 1.363 . S
C852 H868 0.931 . S
C853 C852 1.370 . S
C853 C857 1.408 . S
C854 C852 1.363 . S
C854 C855 1.370 . S
C854 C858 1.524 . S
C855 C847 1.503 . S
C855 C854 1.370 . S
C855 C856 1.403 . S
C856 C855 1.403 . S
C856 C857 1.404 . S
C856 C859 1.539 . S
C857 C853 1.408 . S
C857 C856 1.404 . S
C857 H869 0.930 . S
C858 C854 1.524 . S
C858 H870 0.956 . S
C858 H871 0.961 . S
C858 H872 0.961 . S
C859 C856 1.539 . S
C859 H873 0.958 . S
C859 H874 0.961 . S
C859 H875 0.960 . S
H860 C844 0.931 . S
H861 C849 0.929 . S
H862 C850 0.960 . S
H863 C850 0.962 . S
H864 C850 0.960 . S
H865 C851 0.961 . S
H866 C851 0.961 . S
H867 C851 0.961 . S
H868 C852 0.931 . S
H869 C857 0.930 . S
H870 C858 0.956 . S
H871 C858 0.961 . S
H872 C858 0.961 . S
H873 C859 0.958 . S
H874 C859 0.961 . S
H875 C859 0.960 . S
C876 C877 1.391 . S
C876 C878 1.394 . S
C876 H892 0.931 . S
C877 C876 1.391 . S
C877 C881 1.376 . S
C878 C876 1.394 . S
C878 C879 1.369 . S
C878 C882 1.531 . S
C879 C878 1.369 . S
C879 C880 1.410 . S
C879 C887 1.503 . S
C880 C879 1.410 . S
C880 C881 1.392 . S
C880 C883 1.511 . S
C881 C877 1.376 . S
C881 C880 1.392 . S
C881 H893 0.929 . S
C882 C878 1.531 . S
C882 H894 0.960 . S
C882 H895 0.962 1_455 S
C882 H896 0.960 1_455 S
C883 C880 1.511 . S
C883 H897 0.961 . S
C883 H898 0.961 . S
C883 H899 0.961 . S
C884 C885 1.370 . S
C884 C886 1.363 . S
C884 H900 0.931 . S
C885 C884 1.370 . S
C885 C889 1.408 . S
C886 C884 1.363 . S
C886 C887 1.370 . S
C886 C890 1.524 . S
C887 C879 1.503 . S
C887 C886 1.370 . S
C887 C888 1.403 . S
C888 C887 1.403 . S
C888 C889 1.404 . S
C888 C891 1.539 . S
C889 C885 1.408 . S
C889 C888 1.404 . S
C889 H901 0.930 . S
C890 C886 1.524 . S
C890 H902 0.956 . S
C890 H903 0.961 . S
C890 H904 0.961 . S
C891 C888 1.539 . S
C891 H905 0.958 . S
C891 H906 0.961 . S
C891 H907 0.960 . S
H892 C876 0.931 . S
H893 C881 0.929 . S
H894 C882 0.960 . S
H895 C882 0.962 1_655 S
H896 C882 0.960 1_655 S
H897 C883 0.961 . S
H898 C883 0.961 . S
H899 C883 0.961 . S
H900 C884 0.931 . S
H901 C889 0.930 . S
H902 C890 0.956 . S
H903 C890 0.961 . S
H904 C890 0.961 . S
H905 C891 0.958 . S
H906 C891 0.961 . S
H907 C891 0.960 . S
C908 C909 1.391 . S
C908 C910 1.394 . S
C908 H924 0.931 . S
C909 C908 1.391 . S
C909 C913 1.376 . S
C910 C908 1.394 . S
C910 C911 1.369 . S
C910 C914 1.531 . S
C911 C910 1.369 . S
C911 C912 1.410 . S
C911 C919 1.503 . S
C912 C911 1.410 . S
C912 C913 1.392 . S
C912 C915 1.511 . S
C913 C909 1.376 . S
C913 C912 1.392 . S
C913 H925 0.929 . S
C914 C910 1.531 . S
C914 H926 0.960 . S
C914 H927 0.962 . S
C914 H928 0.960 . S
C915 C912 1.511 . S
C915 H929 0.961 . S
C915 H930 0.961 . S
C915 H931 0.961 . S
C916 C917 1.370 . S
C916 C918 1.363 . S
C916 H932 0.931 . S
C917 C916 1.370 . S
C917 C921 1.408 . S
C918 C916 1.363 . S
C918 C919 1.370 . S
C918 C922 1.524 . S
C919 C911 1.503 . S
C919 C918 1.370 . S
C919 C920 1.403 . S
C920 C919 1.403 . S
C920 C921 1.404 . S
C920 C923 1.539 . S
C921 C917 1.408 . S
C921 C920 1.404 . S
C921 H933 0.930 . S
C922 C918 1.524 . S
C922 H934 0.956 . S
C922 H935 0.961 . S
C922 H936 0.961 . S
C923 C920 1.539 . S
C923 H937 0.958 . S
C923 H938 0.961 . S
C923 H939 0.960 . S
H924 C908 0.931 . S
H925 C913 0.929 . S
H926 C914 0.960 . S
H927 C914 0.962 . S
H928 C914 0.960 . S
H929 C915 0.961 . S
H930 C915 0.961 . S
H931 C915 0.961 . S
H932 C916 0.931 . S
H933 C921 0.930 . S
H934 C922 0.956 . S
H935 C922 0.961 . S
H936 C922 0.961 . S
H937 C923 0.958 . S
H938 C923 0.961 . S
H939 C923 0.960 . S
C173 C5 1.660 . S
C181 C91 1.738 . S
C205 C18 1.515 . S
C213 C125 1.511 1_556 S
C245 C137 1.237 . S
C237 C30 1.292 . S
C269 C41 1.236 . S
C277 C171 1.182 . S
C309 C128 1.666 . S
C301 C7 1.707 . S
C341 C108 1.650 . S
C333 C16 1.588 . S
C373 C155 1.422 . S
C365 C29 1.444 . S
C405 C146 1.042 . S
C397 C38 0.985 . S
C429 C8 1.665 . S
C437 C154 1.552 . S
C469 C116 1.560 . S
C461 C27 1.526 . S
C493 C40 1.487 . S
C501 C92 1.384 . S
C525 C19 1.255 . S
C533 C149 1.170 . S
C565 C107 1.561 1_565 S
C557 C51 1.687 . S
C589 C62 1.671 . S
C597 C129 1.634 . S
C621 C74 1.448 . S
C629 C134 1.460 . S
C653 C84 1.381 . S
C661 C167 1.395 . S
C685 C49 1.918 . S
C693 C112 1.862 1_545 S
C725 C104 1.509 . S
C717 C63 1.545 . S
C757 C158 1.398 . S
C749 C71 1.179 . S
C789 C150 1.232 . S
C781 C85 1.236 . S
C813 C52 1.694 1_455 S
C821 C170 1.627 1_554 S
C853 C113 1.799 . S
C845 C73 1.770 . S
C885 C95 1.415 . S
C877 C82 1.166 . S
C909 C60 1.357 . S
C917 C133 1.627 . S
