# Generated by pormake.
# Topology ocu, (6,8)-cn, num edge types: 1
# Building blocks:
#     Node 0, Type 0, BuildingBlock: KUMBOL_clean_sbu_0, # of connection points: 6
#     Node 1, Type 0, BuildingBlock: KUMBOL_clean_sbu_0, # of connection points: 6
#     Node 2, Type 0, BuildingBlock: KUMBOL_clean_sbu_0, # of connection points: 6
#     Node 3, Type 0, BuildingBlock: KUMBOL_clean_sbu_0, # of connection points: 6
#     Node 4, Type 0, BuildingBlock: KUMBOL_clean_sbu_0, # of connection points: 6
#     Node 5, Type 0, BuildingBlock: KUMBOL_clean_sbu_0, # of connection points: 6
#     Node 6, Type 0, BuildingBlock: KUMBOL_clean_sbu_0, # of connection points: 6
#     Node 7, Type 0, BuildingBlock: KUMBOL_clean_sbu_0, # of connection points: 6
#     Node 8, Type 1, BuildingBlock: GIZVER_clean_sbu_0, # of connection points: 8
#     Node 9, Type 1, BuildingBlock: GIZVER_clean_sbu_0, # of connection points: 8
#     Node 10, Type 1, BuildingBlock: GIZVER_clean_sbu_0, # of connection points: 8
#     Node 11, Type 1, BuildingBlock: GIZVER_clean_sbu_0, # of connection points: 8
#     Node 12, Type 1, BuildingBlock: GIZVER_clean_sbu_0, # of connection points: 8
#     Node 13, Type 1, BuildingBlock: GIZVER_clean_sbu_0, # of connection points: 8
#     Edge 14, Type (0, 1), BuildingBlock: MIFKUJ_clean_linker_0, # of connection points: 2
#     Edge 15, Type (0, 1), BuildingBlock: MIFKUJ_clean_linker_0, # of connection points: 2
#     Edge 16, Type (0, 1), BuildingBlock: MIFKUJ_clean_linker_0, # of connection points: 2
#     Edge 17, Type (0, 1), BuildingBlock: MIFKUJ_clean_linker_0, # of connection points: 2
#     Edge 18, Type (0, 1), BuildingBlock: MIFKUJ_clean_linker_0, # of connection points: 2
#     Edge 19, Type (0, 1), BuildingBlock: MIFKUJ_clean_linker_0, # of connection points: 2
#     Edge 20, Type (0, 1), BuildingBlock: MIFKUJ_clean_linker_0, # of connection points: 2
#     Edge 21, Type (0, 1), BuildingBlock: MIFKUJ_clean_linker_0, # of connection points: 2
#     Edge 22, Type (0, 1), BuildingBlock: MIFKUJ_clean_linker_0, # of connection points: 2
#     Edge 23, Type (0, 1), BuildingBlock: MIFKUJ_clean_linker_0, # of connection points: 2
#     Edge 24, Type (0, 1), BuildingBlock: MIFKUJ_clean_linker_0, # of connection points: 2
#     Edge 25, Type (0, 1), BuildingBlock: MIFKUJ_clean_linker_0, # of connection points: 2
#     Edge 26, Type (0, 1), BuildingBlock: MIFKUJ_clean_linker_0, # of connection points: 2
#     Edge 27, Type (0, 1), BuildingBlock: MIFKUJ_clean_linker_0, # of connection points: 2
#     Edge 28, Type (0, 1), BuildingBlock: MIFKUJ_clean_linker_0, # of connection points: 2
#     Edge 29, Type (0, 1), BuildingBlock: MIFKUJ_clean_linker_0, # of connection points: 2
#     Edge 30, Type (0, 1), BuildingBlock: MIFKUJ_clean_linker_0, # of connection points: 2
#     Edge 31, Type (0, 1), BuildingBlock: MIFKUJ_clean_linker_0, # of connection points: 2
#     Edge 32, Type (0, 1), BuildingBlock: MIFKUJ_clean_linker_0, # of connection points: 2
#     Edge 33, Type (0, 1), BuildingBlock: MIFKUJ_clean_linker_0, # of connection points: 2
#     Edge 34, Type (0, 1), BuildingBlock: MIFKUJ_clean_linker_0, # of connection points: 2
#     Edge 35, Type (0, 1), BuildingBlock: MIFKUJ_clean_linker_0, # of connection points: 2
#     Edge 36, Type (0, 1), BuildingBlock: MIFKUJ_clean_linker_0, # of connection points: 2
#     Edge 37, Type (0, 1), BuildingBlock: MIFKUJ_clean_linker_0, # of connection points: 2
#     Edge 38, Type (0, 1), BuildingBlock: MIFKUJ_clean_linker_0, # of connection points: 2
#     Edge 39, Type (0, 1), BuildingBlock: MIFKUJ_clean_linker_0, # of connection points: 2
#     Edge 40, Type (0, 1), BuildingBlock: MIFKUJ_clean_linker_0, # of connection points: 2
#     Edge 41, Type (0, 1), BuildingBlock: MIFKUJ_clean_linker_0, # of connection points: 2
#     Edge 42, Type (0, 1), BuildingBlock: MIFKUJ_clean_linker_0, # of connection points: 2
#     Edge 43, Type (0, 1), BuildingBlock: MIFKUJ_clean_linker_0, # of connection points: 2
#     Edge 44, Type (0, 1), BuildingBlock: MIFKUJ_clean_linker_0, # of connection points: 2
#     Edge 45, Type (0, 1), BuildingBlock: MIFKUJ_clean_linker_0, # of connection points: 2
#     Edge 46, Type (0, 1), BuildingBlock: MIFKUJ_clean_linker_0, # of connection points: 2
#     Edge 47, Type (0, 1), BuildingBlock: MIFKUJ_clean_linker_0, # of connection points: 2
#     Edge 48, Type (0, 1), BuildingBlock: MIFKUJ_clean_linker_0, # of connection points: 2
#     Edge 49, Type (0, 1), BuildingBlock: MIFKUJ_clean_linker_0, # of connection points: 2
#     Edge 50, Type (0, 1), BuildingBlock: MIFKUJ_clean_linker_0, # of connection points: 2
#     Edge 51, Type (0, 1), BuildingBlock: MIFKUJ_clean_linker_0, # of connection points: 2
#     Edge 52, Type (0, 1), BuildingBlock: MIFKUJ_clean_linker_0, # of connection points: 2
#     Edge 53, Type (0, 1), BuildingBlock: MIFKUJ_clean_linker_0, # of connection points: 2
#     Edge 54, Type (0, 1), BuildingBlock: MIFKUJ_clean_linker_0, # of connection points: 2
#     Edge 55, Type (0, 1), BuildingBlock: MIFKUJ_clean_linker_0, # of connection points: 2
#     Edge 56, Type (0, 1), BuildingBlock: MIFKUJ_clean_linker_0, # of connection points: 2
#     Edge 57, Type (0, 1), BuildingBlock: MIFKUJ_clean_linker_0, # of connection points: 2
#     Edge 58, Type (0, 1), BuildingBlock: MIFKUJ_clean_linker_0, # of connection points: 2
#     Edge 59, Type (0, 1), BuildingBlock: MIFKUJ_clean_linker_0, # of connection points: 2
#     Edge 60, Type (0, 1), BuildingBlock: MIFKUJ_clean_linker_0, # of connection points: 2
#     Edge 61, Type (0, 1), BuildingBlock: MIFKUJ_clean_linker_0, # of connection points: 2
# Relax obj value: 0.181
# Max RMSD: 0.301
# Mean RMSD: 0.218
data_MOF--net-ocu--node1-KUMBOL_clean_sbu_0--node2-GIZVER_clean_sbu_0--edge1-MIFKUJ_clean_linker_0
_symmetry_space_group_name_H-M    P1
_symmetry_Int_Tables_number       1
_symmetry_cell_setting            triclinic
loop_
_symmetry_equiv_pos_as_xyz
'x, y, z'
_cell_length_a     54.74599
_cell_length_b     54.693117
_cell_length_c     43.031976
_cell_angle_alpha  84.466456
_cell_angle_beta   94.762877
_cell_angle_gamma 109.04687
loop_
_atom_site_label
_atom_site_type_symbol
_atom_site_fract_x
_atom_site_fract_y
_atom_site_fract_z
_atom_type_partial_charge
Gd0 Gd 0.28206 0.30355 0.31041 0.0
Gd1 Gd 0.26909 0.26608 0.24726 0.0
C2 C 0.21481 0.29573 0.17887 0.0
C3 C 0.17365 0.26149 0.1846 0.0
C4 C 0.21213 0.25833 0.21514 0.0
C5 C 0.2264 0.28239 0.20212 0.0
C6 C 0.1857 0.24735 0.20587 0.0
C7 C 0.18824 0.28551 0.17096 0.0
C8 C 0.23032 0.31878 0.16399 0.0
C9 C 0.25687 0.32741 0.17144 0.0
N10 N 0.25211 0.29169 0.21015 0.0
C11 C 0.26754 0.3133 0.19423 0.0
H12 H 0.28817 0.31956 0.19841 0.0
C13 C 0.21244 0.21877 0.24215 0.0
N14 N 0.22471 0.24454 0.23415 0.0
C15 C 0.18608 0.20738 0.23455 0.0
C16 C 0.1725 0.2219 0.21679 0.0
H17 H 0.22293 0.20699 0.25498 0.0
H18 H 0.17889 0.29575 0.15387 0.0
H19 H 0.23968 0.26602 0.36494 0.0
H20 H 0.22218 0.32967 0.14618 0.0
H21 H 0.26921 0.34473 0.1593 0.0
H22 H 0.15332 0.25352 0.17751 0.0
H23 H 0.34581 0.33557 0.29967 0.0
H24 H 0.27996 0.22484 0.42638 0.0
H25 H 0.23941 0.23297 0.40731 0.0
H26 H 0.36818 0.26602 0.40283 0.0
H27 H 0.17638 0.18728 0.24197 0.0
H28 H 0.15219 0.21287 0.21034 0.0
H29 H 0.32786 0.23769 0.42495 0.0
H30 H 0.38786 0.33361 0.32076 0.0
N31 N 0.27908 0.27301 0.35439 0.0
C32 C 0.28002 0.23858 0.40644 0.0
C33 C 0.25708 0.24304 0.39569 0.0
C34 C 0.30303 0.25309 0.39267 0.0
C35 C 0.30207 0.27056 0.36645 0.0
C36 C 0.25718 0.26119 0.37052 0.0
N37 N 0.32385 0.30286 0.32813 0.0
C38 C 0.32498 0.28628 0.35353 0.0
C39 C 0.37036 0.31985 0.32985 0.0
C40 C 0.37185 0.30209 0.35475 0.0
C41 C 0.34618 0.3203 0.31716 0.0
C42 C 0.34909 0.28525 0.36717 0.0
H43 H 0.39065 0.30181 0.36455 0.0
O44 O 0.30354 0.34171 0.32565 0.0
O45 O 0.25823 0.30003 0.26354 0.0
O46 O 0.30809 0.29682 0.24257 0.0
O47 O 0.30473 0.32863 0.27181 0.0
O48 O 0.25715 0.32863 0.28981 0.0
O49 O 0.27018 0.31719 0.3505 0.0
O50 O 0.26435 0.23301 0.22032 0.0
O51 O 0.29788 0.27359 0.29029 0.0
O52 O 0.24086 0.27709 0.31135 0.0
O53 O 0.24482 0.24355 0.28639 0.0
O54 O 0.27966 0.23547 0.28082 0.0
O55 O 0.29436 0.26888 0.20962 0.0
C56 C 0.24778 0.31878 0.26358 0.0
C57 C 0.34987 0.26737 0.39256 0.0
C58 C 0.32691 0.25117 0.40508 0.0
C59 C 0.28941 0.33885 0.34951 0.0
C60 C 0.30268 0.34748 0.37954 0.0
C61 C 0.3272 0.34571 0.38917 0.0
C62 C 0.29049 0.35883 0.39843 0.0
C63 C 0.30282 0.36951 0.42628 0.0
C64 C 0.33927 0.35537 0.41742 0.0
C65 C 0.32727 0.36736 0.43586 0.0
C66 C 0.3155 0.32102 0.2501 0.0
C67 C 0.29733 0.24968 0.29941 0.0
C68 C 0.28203 0.2457 0.20119 0.0
C69 C 0.27493 0.24338 0.16758 0.0
C70 C 0.2519 0.24687 0.15437 0.0
C71 C 0.29137 0.23741 0.14843 0.0
C72 C 0.28502 0.23507 0.11618 0.0
C73 C 0.24569 0.24511 0.12239 0.0
C74 C 0.26214 0.2393 0.10332 0.0
C75 C 0.23218 0.25288 0.30408 0.0
H76 H 0.33712 0.3372 0.37489 0.0
H77 H 0.27131 0.35958 0.39101 0.0
H78 H 0.35821 0.354 0.42475 0.0
H79 H 0.33738 0.37546 0.45711 0.0
H80 H 0.23858 0.25066 0.16867 0.0
H81 H 0.30874 0.23391 0.1589 0.0
H82 H 0.22796 0.24805 0.11242 0.0
H83 H 0.2569 0.23802 0.07856 0.0
Gd84 Gd 0.7501 0.30131 0.29447 0.0
Gd85 Gd 0.80025 0.28454 0.25859 0.0
C86 C 0.83913 0.32673 0.17005 0.0
C87 C 0.82062 0.29507 0.13163 0.0
C88 C 0.80834 0.2851 0.18568 0.0
C89 C 0.82387 0.30972 0.19305 0.0
C90 C 0.80724 0.2773 0.15508 0.0
C91 C 0.83663 0.31971 0.13913 0.0
C92 C 0.85777 0.34953 0.17914 0.0
C93 C 0.86137 0.35471 0.21056 0.0
N94 N 0.82637 0.3159 0.2233 0.0
C95 C 0.84571 0.33742 0.23249 0.0
H96 H 0.84958 0.34149 0.25671 0.0
C97 C 0.78475 0.2423 0.20384 0.0
N98 N 0.7962 0.26801 0.20901 0.0
C99 C 0.78303 0.2338 0.1739 0.0
C100 C 0.79388 0.25147 0.14926 0.0
H101 H 0.77636 0.22821 0.22249 0.0
H102 H 0.8479 0.33277 0.12115 0.0
H103 H 0.71452 0.24345 0.25811 0.0
H104 H 0.87034 0.36255 0.1623 0.0
H105 H 0.87641 0.37189 0.21796 0.0
H106 H 0.81971 0.28952 0.10795 0.0
H107 H 0.76669 0.31511 0.36936 0.0
H108 H 0.64351 0.21094 0.30186 0.0
H109 H 0.6708 0.2138 0.25803 0.0
H110 H 0.66238 0.24781 0.40052 0.0
H111 H 0.77334 0.2136 0.16985 0.0
H112 H 0.79266 0.24478 0.12611 0.0
H113 H 0.64074 0.22357 0.35531 0.0
H114 H 0.74733 0.30716 0.4199 0.0
N115 N 0.71116 0.26382 0.29681 0.0
C116 C 0.66235 0.22569 0.3008 0.0
C117 C 0.67767 0.22717 0.27612 0.0
C118 C 0.67259 0.24168 0.3252 0.0
C119 C 0.69728 0.26071 0.3225 0.0
C120 C 0.70239 0.24541 0.27533 0.0
N121 N 0.73418 0.28973 0.3454 0.0
C122 C 0.70944 0.27393 0.34793 0.0
C123 C 0.73642 0.2975 0.39992 0.0
C124 C 0.71106 0.28125 0.40274 0.0
C125 C 0.74758 0.30167 0.37102 0.0
C126 C 0.69726 0.26907 0.37666 0.0
H127 H 0.70244 0.27798 0.42518 0.0
O128 O 0.7644 0.33819 0.31537 0.0
O129 O 0.78488 0.31594 0.26593 0.0
O130 O 0.81791 0.31723 0.29033 0.0
O131 O 0.78677 0.306 0.3268 0.0
O132 O 0.754 0.32801 0.24989 0.0
O133 O 0.72449 0.32397 0.2975 0.0
O134 O 0.82171 0.27256 0.29839 0.0
O135 O 0.7714 0.2733 0.29513 0.0
O136 O 0.73236 0.28872 0.24658 0.0
O137 O 0.76437 0.27664 0.22451 0.0
O138 O 0.77494 0.24366 0.27121 0.0
O139 O 0.83403 0.27319 0.25214 0.0
C140 C 0.77761 0.3302 0.24502 0.0
C141 C 0.67207 0.25159 0.37876 0.0
C142 C 0.65972 0.23791 0.353 0.0
C143 C 0.74292 0.3434 0.30889 0.0
C144 C 0.7459 0.36952 0.29415 0.0
C145 C 0.76053 0.39122 0.31016 0.0
C146 C 0.73522 0.37312 0.26395 0.0
C147 C 0.73926 0.39817 0.24967 0.0
C148 C 0.76425 0.41619 0.29623 0.0
C149 C 0.75361 0.41969 0.26619 0.0
C150 C 0.81112 0.31752 0.31908 0.0
C151 C 0.76319 0.24913 0.29288 0.0
C152 C 0.83691 0.26627 0.28155 0.0
C153 C 0.8394 0.24051 0.29002 0.0
C154 C 0.83278 0.22114 0.26876 0.0
C155 C 0.8474 0.23496 0.32087 0.0
C156 C 0.84887 0.21029 0.33086 0.0
C157 C 0.83429 0.19653 0.27846 0.0
C158 C 0.84226 0.19106 0.30932 0.0
C159 C 0.74102 0.27949 0.22366 0.0
H160 H 0.76907 0.38881 0.33342 0.0
H161 H 0.72404 0.3565 0.2513 0.0
H162 H 0.77525 0.43288 0.30879 0.0
H163 H 0.75608 0.43919 0.25614 0.0
H164 H 0.82627 0.2249 0.24487 0.0
H165 H 0.85192 0.24985 0.33734 0.0
H166 H 0.82923 0.18163 0.26204 0.0
H167 H 0.84354 0.17192 0.31617 0.0
Gd168 Gd 0.77338 0.76403 0.31431 0.0
Gd169 Gd 0.78141 0.80957 0.24826 0.0
C170 C 0.83376 0.79171 0.18216 0.0
C171 C 0.87496 0.82494 0.19206 0.0
C172 C 0.83714 0.82339 0.21936 0.0
C173 C 0.82264 0.80144 0.20465 0.0
C174 C 0.8633 0.83584 0.21241 0.0
C175 C 0.86017 0.80299 0.17682 0.0
C176 C 0.81788 0.77133 0.16513 0.0
C177 C 0.79146 0.76178 0.16986 0.0
N178 N 0.79716 0.79086 0.21036 0.0
C179 C 0.78132 0.772 0.19236 0.0
H180 H 0.76079 0.76448 0.19512 0.0
C181 C 0.8372 0.85875 0.24671 0.0
N182 N 0.82502 0.83405 0.23786 0.0
C183 C 0.86325 0.87147 0.24121 0.0
C184 C 0.87658 0.85968 0.22463 0.0
H185 H 0.82685 0.86879 0.25819 0.0
H186 H 0.86913 0.79538 0.16019 0.0
H187 H 0.79103 0.81429 0.35951 0.0
H188 H 0.8257 0.76331 0.14775 0.0
H189 H 0.77886 0.74648 0.15621 0.0
H190 H 0.89509 0.83404 0.18684 0.0
H191 H 0.73714 0.70148 0.31237 0.0
H192 H 0.72955 0.8066 0.41846 0.0
H193 H 0.77333 0.83072 0.40066 0.0
H194 H 0.6684 0.72422 0.39614 0.0
H195 H 0.87286 0.8906 0.24924 0.0
H196 H 0.89665 0.86979 0.2199 0.0
H197 H 0.68999 0.76728 0.41565 0.0
H198 H 0.69568 0.67207 0.33194 0.0
N199 N 0.75735 0.78183 0.35267 0.0
C200 C 0.73721 0.79938 0.40017 0.0
C201 C 0.76191 0.81304 0.39021 0.0
C202 C 0.72302 0.77613 0.3871 0.0
C203 C 0.73388 0.76758 0.36331 0.0
C204 C 0.77184 0.80377 0.36659 0.0
N205 N 0.73448 0.73442 0.33267 0.0
C206 C 0.72184 0.74326 0.35255 0.0
C207 C 0.70269 0.6921 0.3377 0.0
C208 C 0.68854 0.70139 0.35645 0.0
C209 C 0.7261 0.70877 0.32668 0.0
C210 C 0.69846 0.727 0.36492 0.0
H211 H 0.67061 0.68833 0.3654 0.0
O212 O 0.78366 0.73048 0.3346 0.0
O213 O 0.79578 0.77556 0.2693 0.0
O214 O 0.74579 0.776 0.23905 0.0
O215 O 0.73687 0.74894 0.28452 0.0
O216 O 0.77799 0.73649 0.28028 0.0
O217 O 0.79922 0.76697 0.35588 0.0
O218 O 0.78493 0.84478 0.21869 0.0
O219 O 0.76223 0.7995 0.29497 0.0
O220 O 0.81224 0.79529 0.31701 0.0
O221 O 0.80478 0.8301 0.28856 0.0
O222 O 0.76146 0.83337 0.272 0.0
O223 O 0.75144 0.81059 0.21224 0.0
C224 C 0.7932 0.75249 0.26062 0.0
C225 C 0.68654 0.73629 0.3867 0.0
C226 C 0.69885 0.76079 0.39786 0.0
C227 C 0.79759 0.74264 0.35778 0.0
C228 C 0.79407 0.72894 0.38894 0.0
C229 C 0.77133 0.72422 0.40459 0.0
C230 C 0.814 0.72028 0.40315 0.0
C231 C 0.8111 0.70642 0.43254 0.0
C232 C 0.76836 0.71049 0.43389 0.0
C233 C 0.78806 0.7014 0.44777 0.0
C234 C 0.73115 0.75578 0.25541 0.0
C235 C 0.75299 0.81867 0.29676 0.0
C236 C 0.76365 0.83437 0.20215 0.0
C237 C 0.76439 0.84013 0.16817 0.0
C238 C 0.78313 0.8361 0.15084 0.0
C239 C 0.74662 0.85142 0.15322 0.0
C240 C 0.74809 0.86006 0.12133 0.0
C241 C 0.78405 0.84349 0.11883 0.0
C242 C 0.76682 0.85561 0.10414 0.0
C243 C 0.81785 0.82039 0.31032 0.0
H244 H 0.75591 0.73101 0.39427 0.0
H245 H 0.83155 0.72382 0.391 0.0
H246 H 0.75071 0.70678 0.44579 0.0
H247 H 0.78542 0.69062 0.47039 0.0
H248 H 0.79723 0.8277 0.16199 0.0
H249 H 0.73199 0.85401 0.16686 0.0
H250 H 0.79863 0.84046 0.10554 0.0
H251 H 0.76876 0.86222 0.07965 0.0
Gd252 Gd 0.26044 0.80268 0.25964 0.0
Gd253 Gd 0.29868 0.75864 0.27905 0.0
C254 C 0.27929 0.677 0.24585 0.0
C255 C 0.25873 0.64985 0.29065 0.0
C256 C 0.27426 0.69684 0.2918 0.0
C257 C 0.28244 0.69924 0.26186 0.0
C258 C 0.26282 0.67208 0.30685 0.0
C259 C 0.26699 0.65231 0.26021 0.0
C260 C 0.28909 0.68022 0.21619 0.0
C261 C 0.30213 0.70511 0.20351 0.0
N262 N 0.29428 0.72341 0.24876 0.0
C263 C 0.3049 0.72656 0.22034 0.0
H264 H 0.31503 0.74563 0.21021 0.0
C265 C 0.27433 0.71703 0.33785 0.0
N266 N 0.27878 0.7187 0.30685 0.0
C267 C 0.2629 0.69294 0.3538 0.0
C268 C 0.25666 0.67036 0.33807 0.0
H269 H 0.27921 0.73437 0.3503 0.0
H270 H 0.26423 0.635 0.24821 0.0
H271 H 0.30585 0.85922 0.27003 0.0
H272 H 0.28709 0.66361 0.20318 0.0
H273 H 0.31012 0.70785 0.18079 0.0
H274 H 0.24979 0.63068 0.30173 0.0
H275 H 0.2069 0.77274 0.21665 0.0
H276 H 0.31282 0.90696 0.18427 0.0
H277 H 0.32647 0.90037 0.23995 0.0
H278 H 0.24532 0.85567 0.11703 0.0
H279 H 0.25885 0.69181 0.37818 0.0
H280 H 0.24781 0.65172 0.35046 0.0
H281 H 0.2831 0.88968 0.13812 0.0
H282 H 0.18725 0.77718 0.16349 0.0
N283 N 0.28135 0.84207 0.23172 0.0
C284 C 0.30383 0.88873 0.19738 0.0
C285 C 0.31148 0.88519 0.22878 0.0
C286 C 0.28412 0.8689 0.18347 0.0
C287 C 0.273 0.84555 0.2016 0.0
C288 C 0.2998 0.86175 0.24578 0.0
N289 N 0.24049 0.80547 0.20909 0.0
C290 C 0.25197 0.82649 0.18973 0.0
C291 C 0.20561 0.79104 0.17046 0.0
C292 C 0.21803 0.81181 0.14973 0.0
C293 C 0.21682 0.78854 0.20051 0.0
C294 C 0.2412 0.83015 0.15944 0.0
H295 H 0.20902 0.81425 0.12684 0.0
O296 O 0.22302 0.80284 0.27297 0.0
O297 O 0.26361 0.76782 0.28937 0.0
O298 O 0.26767 0.74321 0.24146 0.0
O299 O 0.26254 0.78144 0.21765 0.0
O300 O 0.22732 0.76573 0.27008 0.0
O301 O 0.25751 0.83378 0.28544 0.0
O302 O 0.32276 0.75425 0.32053 0.0
O303 O 0.29971 0.79901 0.26181 0.0
O304 O 0.28962 0.81641 0.3002 0.0
O305 O 0.29661 0.77855 0.32192 0.0
O306 O 0.32201 0.78323 0.23934 0.0
O307 O 0.33962 0.76455 0.27558 0.0
C308 C 0.2403 0.75332 0.2874 0.0
C309 C 0.25312 0.85265 0.14053 0.0
C310 C 0.27459 0.87202 0.15254 0.0
C311 C 0.23239 0.82546 0.28429 0.0
C312 C 0.21977 0.84484 0.27284 0.0
C313 C 0.2164 0.85088 0.2407 0.0
C314 C 0.21174 0.85806 0.2942 0.0
C315 C 0.2006 0.87745 0.28355 0.0
C316 C 0.20575 0.87025 0.22996 0.0
C317 C 0.198 0.88359 0.25118 0.0
C318 C 0.26014 0.7566 0.21757 0.0
C319 C 0.31481 0.80329 0.23975 0.0
C320 C 0.3426 0.75635 0.30464 0.0
C321 C 0.35357 0.73492 0.31074 0.0
C322 C 0.35981 0.72735 0.34166 0.0
C323 C 0.35653 0.72096 0.28629 0.0
C324 C 0.36555 0.6996 0.29262 0.0
C325 C 0.36861 0.70604 0.3481 0.0
C326 C 0.37141 0.69217 0.32379 0.0
C327 C 0.29766 0.80286 0.32364 0.0
H328 H 0.22196 0.84072 0.22387 0.0
H329 H 0.21385 0.85294 0.31901 0.0
H330 H 0.20351 0.87494 0.20509 0.0
H331 H 0.19005 0.89875 0.24222 0.0
H332 H 0.35756 0.73774 0.36087 0.0
H333 H 0.35152 0.72642 0.26234 0.0
H334 H 0.37331 0.70028 0.37202 0.0
H335 H 0.37867 0.67596 0.32931 0.0
Gd336 Gd 0.25735 0.79493 0.7771 0.0
Gd337 Gd 0.29989 0.75717 0.78906 0.0
C338 C 0.38546 0.78424 0.82112 0.0
C339 C 0.40642 0.80087 0.7724 0.0
C340 C 0.35956 0.78092 0.77221 0.0
C341 C 0.36119 0.77689 0.8044 0.0
C342 C 0.38238 0.79202 0.75578 0.0
C343 C 0.40795 0.79703 0.80504 0.0
C344 C 0.3865 0.77768 0.85333 0.0
C345 C 0.36392 0.76292 0.86779 0.0
N346 N 0.33924 0.76396 0.81914 0.0
C347 C 0.34042 0.75569 0.85014 0.0
H348 H 0.32305 0.74445 0.86162 0.0
C349 C 0.33454 0.77092 0.72504 0.0
N350 N 0.33598 0.77201 0.75687 0.0
C351 C 0.35661 0.78165 0.7078 0.0
C352 C 0.38054 0.79286 0.72316 0.0
H353 H 0.31655 0.76264 0.71212 0.0
H354 H 0.42672 0.80313 0.81752 0.0
H355 H 0.20886 0.74313 0.7458 0.0
H356 H 0.40474 0.78309 0.867 0.0
H357 H 0.36457 0.75711 0.89253 0.0
H358 H 0.42404 0.80984 0.76016 0.0
H359 H 0.27485 0.83413 0.83882 0.0
H360 H 0.14689 0.71871 0.80613 0.0
H361 H 0.16614 0.7152 0.7577 0.0
H362 H 0.1768 0.7713 0.89214 0.0
H363 H 0.35507 0.78147 0.68258 0.0
H364 H 0.39757 0.80125 0.70969 0.0
H365 H 0.15113 0.7394 0.85595 0.0
H366 H 0.25942 0.83665 0.88914 0.0
N367 N 0.21582 0.76418 0.78706 0.0
C368 C 0.16605 0.73164 0.80095 0.0
C369 C 0.17688 0.72955 0.7737 0.0
C370 C 0.18022 0.75006 0.82149 0.0
C371 C 0.20528 0.76646 0.8138 0.0
C372 C 0.2017 0.7459 0.76708 0.0
N373 N 0.24406 0.7998 0.82694 0.0
C374 C 0.21989 0.7844 0.83443 0.0
C375 C 0.24829 0.82149 0.87432 0.0
C376 C 0.22438 0.80477 0.88312 0.0
C377 C 0.25748 0.81924 0.8458 0.0
C378 C 0.20959 0.78637 0.86288 0.0
H379 H 0.21717 0.80675 0.90514 0.0
O380 O 0.25804 0.83454 0.7791 0.0
O381 O 0.2976 0.79566 0.76792 0.0
O382 O 0.31188 0.78564 0.82644 0.0
O383 O 0.29347 0.81646 0.80507 0.0
O384 O 0.27796 0.81023 0.73197 0.0
O385 O 0.23005 0.80923 0.74785 0.0
O386 O 0.27471 0.71963 0.77548 0.0
O387 O 0.2601 0.75716 0.79864 0.0
O388 O 0.24823 0.7708 0.73584 0.0
O389 O 0.28069 0.7515 0.74061 0.0
O390 O 0.28183 0.74731 0.83611 0.0
O391 O 0.3117 0.72277 0.79916 0.0
C392 C 0.29978 0.80656 0.74016 0.0
C393 C 0.18482 0.77007 0.87037 0.0
C394 C 0.17017 0.752 0.84972 0.0
C395 C 0.24166 0.83304 0.75508 0.0
C396 C 0.25042 0.85199 0.72846 0.0
C397 C 0.27648 0.86768 0.72664 0.0
C398 C 0.233 0.85236 0.70297 0.0
C399 C 0.24136 0.86783 0.67562 0.0
C400 C 0.28478 0.88336 0.69949 0.0
C401 C 0.26727 0.88342 0.67398 0.0
C402 C 0.30924 0.80875 0.82564 0.0
C403 C 0.25952 0.7496 0.82764 0.0
C404 C 0.28895 0.7072 0.79088 0.0
C405 C 0.27543 0.68683 0.8144 0.0
C406 C 0.25005 0.67071 0.80764 0.0
C407 C 0.2868 0.68482 0.84456 0.0
C408 C 0.27296 0.66742 0.86802 0.0
C409 C 0.23616 0.65335 0.83088 0.0
C410 C 0.24748 0.6517 0.86098 0.0
C411 C 0.26017 0.75584 0.72584 0.0
H412 H 0.29054 0.86748 0.74583 0.0
H413 H 0.21296 0.84012 0.70414 0.0
H414 H 0.3048 0.89541 0.69831 0.0
H415 H 0.27361 0.89604 0.65328 0.0
H416 H 0.24076 0.67199 0.78459 0.0
H417 H 0.3066 0.69665 0.8498 0.0
H418 H 0.2165 0.64124 0.8256 0.0
H419 H 0.23641 0.63813 0.87869 0.0
Gd420 Gd 0.29555 0.27652 0.75212 0.0
Gd421 Gd 0.26433 0.27947 0.82494 0.0
C422 C 0.28288 0.24001 0.91847 0.0
C423 C 0.24124 0.20809 0.92978 0.0
C424 C 0.24604 0.23644 0.88197 0.0
C425 C 0.27195 0.24783 0.88994 0.0
C426 C 0.23024 0.21672 0.90202 0.0
C427 C 0.26746 0.21987 0.9381 0.0
C428 C 0.30862 0.25345 0.92709 0.0
C429 C 0.32245 0.27474 0.9081 0.0
N430 N 0.28589 0.2681 0.87115 0.0
C431 C 0.31051 0.28228 0.88057 0.0
H432 H 0.32149 0.29912 0.86668 0.0
C433 C 0.20966 0.23794 0.84917 0.0
N434 N 0.23584 0.24604 0.85574 0.0
C435 C 0.19328 0.21802 0.86791 0.0
C436 C 0.20366 0.20715 0.89429 0.0
H437 H 0.20151 0.24652 0.82901 0.0
H438 H 0.27534 0.21395 0.96034 0.0
H439 H 0.2379 0.25173 0.7124 0.0
H440 H 0.31775 0.24813 0.94879 0.0
H441 H 0.34227 0.2855 0.91476 0.0
H442 H 0.22944 0.193 0.94552 0.0
H443 H 0.3568 0.31443 0.74495 0.0
H444 H 0.23381 0.30351 0.63299 0.0
H445 H 0.21405 0.26332 0.66577 0.0
H446 H 0.31846 0.36663 0.63401 0.0
H447 H 0.17266 0.21126 0.86216 0.0
H448 H 0.19089 0.19199 0.90907 0.0
H449 H 0.27273 0.34242 0.62167 0.0
H450 H 0.38174 0.35216 0.7113 0.0
N451 N 0.27112 0.28545 0.70717 0.0
C452 C 0.2445 0.29864 0.65362 0.0
C453 C 0.23331 0.27588 0.672 0.0
C454 C 0.2697 0.31426 0.66143 0.0
C455 C 0.28275 0.30693 0.68856 0.0
C456 C 0.24704 0.26939 0.6986 0.0
N457 N 0.32076 0.31177 0.72046 0.0
C458 C 0.30843 0.32053 0.69543 0.0
C459 C 0.3611 0.34354 0.70667 0.0
C460 C 0.34841 0.35367 0.68177 0.0
C461 C 0.347 0.32217 0.72555 0.0
C462 C 0.32184 0.34187 0.6755 0.0
H463 H 0.35941 0.37012 0.66703 0.0
O464 O 0.32687 0.26347 0.73909 0.0
O465 O 0.292 0.26404 0.80335 0.0
O466 O 0.30251 0.31122 0.81897 0.0
O467 O 0.31116 0.31769 0.76602 0.0
O468 O 0.32871 0.27617 0.78674 0.0
O469 O 0.28744 0.24212 0.72621 0.0
O470 O 0.23505 0.29701 0.8336 0.0
O471 O 0.26792 0.29156 0.77378 0.0
O472 O 0.25916 0.24263 0.75967 0.0
O473 O 0.24687 0.23843 0.81139 0.0
O474 O 0.23123 0.27953 0.79014 0.0
O475 O 0.2741 0.31365 0.85168 0.0
C476 C 0.31559 0.26675 0.81111 0.0
C477 C 0.30856 0.35012 0.64942 0.0
C478 C 0.28252 0.33633 0.6424 0.0
C479 C 0.31168 0.2444 0.72365 0.0
C480 C 0.31927 0.24189 0.69186 0.0
C481 C 0.31331 0.25749 0.66656 0.0
C482 C 0.33166 0.22364 0.68617 0.0
C483 C 0.33738 0.22089 0.65524 0.0
C484 C 0.31919 0.25514 0.63635 0.0
C485 C 0.33099 0.23707 0.6307 0.0
C486 C 0.31471 0.32517 0.79475 0.0
C487 C 0.24438 0.28868 0.76579 0.0
C488 C 0.25052 0.31449 0.85091 0.0
C489 C 0.2408 0.31756 0.88122 0.0
C490 C 0.24351 0.30103 0.9073 0.0
C491 C 0.22925 0.33697 0.8847 0.0
C492 C 0.22097 0.33983 0.9143 0.0
C493 C 0.23511 0.30346 0.93615 0.0
C494 C 0.224 0.32255 0.93966 0.0
C495 C 0.24529 0.22986 0.78337 0.0
H496 H 0.30384 0.27141 0.67009 0.0
H497 H 0.33625 0.21133 0.70547 0.0
H498 H 0.31444 0.26737 0.6171 0.0
H499 H 0.33537 0.23591 0.60689 0.0
H500 H 0.25232 0.28624 0.90543 0.0
H501 H 0.22724 0.35002 0.8648 0.0
H502 H 0.23729 0.29046 0.95602 0.0
H503 H 0.21751 0.32362 0.96244 0.0
Gd504 Gd 0.76958 0.29844 0.76476 0.0
Gd505 Gd 0.80465 0.25377 0.79321 0.0
C506 C 0.77648 0.17042 0.8351 0.0
C507 C 0.7695 0.17612 0.88858 0.0
C508 C 0.78154 0.21333 0.85049 0.0
C509 C 0.78164 0.19727 0.82758 0.0
C510 C 0.77536 0.20288 0.88124 0.0
C511 C 0.77049 0.16002 0.86571 0.0
C512 C 0.77885 0.15505 0.81209 0.0
C513 C 0.78704 0.1666 0.78281 0.0
N514 N 0.78884 0.20814 0.79868 0.0
C515 C 0.79261 0.19336 0.77677 0.0
H516 H 0.80068 0.20243 0.75483 0.0
C517 C 0.79015 0.25588 0.86556 0.0
N518 N 0.78864 0.2393 0.84311 0.0
C519 C 0.78378 0.24638 0.89619 0.0
C520 C 0.77627 0.21975 0.90406 0.0
H521 H 0.79586 0.27646 0.86005 0.0
H522 H 0.76715 0.13961 0.8722 0.0
H523 H 0.82125 0.35201 0.76885 0.0
H524 H 0.7753 0.13441 0.81702 0.0
H525 H 0.78987 0.15506 0.76522 0.0
H526 H 0.76498 0.1678 0.91212 0.0
H527 H 0.71273 0.27499 0.7257 0.0
H528 H 0.83242 0.39227 0.67869 0.0
H529 H 0.84577 0.38875 0.73469 0.0
H530 H 0.75864 0.3441 0.61724 0.0
H531 H 0.78477 0.25965 0.91372 0.0
H532 H 0.77162 0.21246 0.92789 0.0
H533 H 0.79963 0.37532 0.63493 0.0
H534 H 0.693 0.27778 0.67232 0.0
N535 N 0.79506 0.3333 0.73239 0.0
C536 C 0.82199 0.37553 0.69336 0.0
C537 C 0.8294 0.37376 0.72505 0.0
C538 C 0.8002 0.35656 0.68152 0.0
C539 C 0.78692 0.33551 0.70194 0.0
C540 C 0.81539 0.35267 0.74439 0.0
N541 N 0.74963 0.30135 0.71426 0.0
C542 C 0.76336 0.31871 0.69245 0.0
C543 C 0.71289 0.28929 0.67754 0.0
C544 C 0.72732 0.30609 0.65435 0.0
C545 C 0.72416 0.28773 0.70771 0.0
C546 C 0.75258 0.32171 0.66193 0.0
H547 H 0.71839 0.30775 0.63115 0.0
O548 O 0.73406 0.30673 0.77127 0.0
O549 O 0.77106 0.26612 0.79996 0.0
O550 O 0.77443 0.23264 0.75634 0.0
O551 O 0.75888 0.2651 0.73121 0.0
O552 O 0.73508 0.26471 0.7789 0.0
O553 O 0.76989 0.32936 0.79306 0.0
O554 O 0.83784 0.25828 0.82606 0.0
O555 O 0.80671 0.29033 0.76432 0.0
O556 O 0.79903 0.31733 0.80406 0.0
O557 O 0.82538 0.29151 0.81629 0.0
O558 O 0.81822 0.26342 0.74409 0.0
O559 O 0.83704 0.24216 0.78193 0.0
C560 C 0.74725 0.25286 0.79825 0.0
C561 C 0.76658 0.34139 0.64075 0.0
C562 C 0.79017 0.35903 0.6507 0.0
C563 C 0.7456 0.32672 0.7871 0.0
C564 C 0.73972 0.35071 0.77695 0.0
C565 C 0.74747 0.36402 0.74806 0.0
C566 C 0.72724 0.36106 0.79691 0.0
C567 C 0.72293 0.38486 0.78834 0.0
C568 C 0.74318 0.3876 0.7394 0.0
C569 C 0.73112 0.39809 0.75947 0.0
C570 C 0.76046 0.24105 0.73356 0.0
C571 C 0.81605 0.28632 0.74012 0.0
C572 C 0.84772 0.24509 0.81012 0.0
C573 C 0.85235 0.22187 0.82663 0.0
C574 C 0.84541 0.21389 0.85767 0.0
C575 C 0.86143 0.20603 0.8101 0.0
C576 C 0.86284 0.1821 0.82377 0.0
C577 C 0.8468 0.19012 0.87138 0.0
C578 C 0.85523 0.17413 0.85445 0.0
C579 C 0.81947 0.31281 0.81931 0.0
H580 H 0.75697 0.35633 0.73233 0.0
H581 H 0.72137 0.35087 0.81934 0.0
H582 H 0.7493 0.3978 0.7171 0.0
H583 H 0.72786 0.41636 0.75226 0.0
H584 H 0.83826 0.2256 0.87113 0.0
H585 H 0.86649 0.21188 0.78604 0.0
H586 H 0.84102 0.18394 0.89508 0.0
H587 H 0.85609 0.15572 0.86539 0.0
Gd588 Gd 0.78606 0.80269 0.8128 0.0
Gd589 Gd 0.78349 0.76405 0.74862 0.0
C590 C 0.73151 0.76906 0.66109 0.0
C591 C 0.69927 0.72619 0.66333 0.0
C592 C 0.73446 0.73727 0.70321 0.0
C593 C 0.74387 0.762 0.68894 0.0
C594 C 0.71233 0.71891 0.69027 0.0
C595 C 0.70884 0.75123 0.64876 0.0
C596 C 0.7427 0.79357 0.64597 0.0
C597 C 0.76611 0.80995 0.65809 0.0
N598 N 0.76599 0.77862 0.70128 0.0
C599 C 0.77772 0.80199 0.68567 0.0
H600 H 0.7957 0.81498 0.69473 0.0
C601 C 0.74072 0.70585 0.742 0.0
N602 N 0.74764 0.73084 0.72907 0.0
C603 C 0.71881 0.687 0.73013 0.0
C604 C 0.70436 0.69363 0.70437 0.0
H605 H 0.75169 0.7006 0.76204 0.0
H606 H 0.69894 0.7564 0.62757 0.0
H607 H 0.77438 0.75251 0.86736 0.0
H608 H 0.73376 0.79977 0.62459 0.0
H609 H 0.77518 0.82877 0.6463 0.0
H610 H 0.6821 0.71243 0.65318 0.0
H611 H 0.81652 0.86647 0.79932 0.0
H612 H 0.83621 0.76898 0.93761 0.0
H613 H 0.79486 0.73958 0.91623 0.0
H614 H 0.88696 0.85643 0.90797 0.0
H615 H 0.71305 0.6674 0.74089 0.0
H616 H 0.68743 0.67897 0.69516 0.0
H617 H 0.87078 0.81254 0.93398 0.0
H618 H 0.85432 0.90039 0.82068 0.0
N619 N 0.80401 0.78879 0.86015 0.0
C620 C 0.8273 0.77481 0.91598 0.0
C621 C 0.80395 0.75818 0.90407 0.0
C622 C 0.83841 0.79913 0.90039 0.0
C623 C 0.82604 0.80571 0.87227 0.0
C624 C 0.79236 0.76564 0.87622 0.0
N625 N 0.82164 0.83643 0.83191 0.0
C626 C 0.8351 0.83038 0.85775 0.0
C627 C 0.84928 0.88074 0.83115 0.0
C628 C 0.86411 0.87451 0.85675 0.0
C629 C 0.8278 0.86146 0.81918 0.0
C630 C 0.85685 0.84918 0.87074 0.0
H631 H 0.88068 0.88953 0.86604 0.0
O632 O 0.76764 0.83175 0.81821 0.0
O633 O 0.76722 0.79369 0.7643 0.0
O634 O 0.81466 0.80325 0.74398 0.0
O635 O 0.82575 0.81637 0.79431 0.0
O636 O 0.78163 0.83197 0.77336 0.0
O637 O 0.75897 0.79714 0.84933 0.0
O638 O 0.80055 0.73417 0.74192 0.0
O639 O 0.80209 0.77282 0.79725 0.0
O640 O 0.75506 0.76326 0.81761 0.0
O641 O 0.7438 0.75103 0.76695 0.0
O642 O 0.78782 0.73461 0.78789 0.0
O643 O 0.81175 0.77019 0.71336 0.0
C644 C 0.76882 0.81663 0.75252 0.0
C645 C 0.87006 0.84233 0.8978 0.0
C646 C 0.86086 0.81734 0.9126 0.0
C647 C 0.75582 0.81977 0.843 0.0
C648 C 0.75819 0.83593 0.86959 0.0
C649 C 0.77894 0.8389 0.89191 0.0
C650 C 0.74037 0.84936 0.8722 0.0
C651 C 0.74384 0.86608 0.89651 0.0
C652 C 0.78239 0.85533 0.91589 0.0
C653 C 0.76512 0.86895 0.9181 0.0
C654 C 0.83082 0.81766 0.76469 0.0
C655 C 0.80042 0.74983 0.80895 0.0
C656 C 0.81389 0.74705 0.71853 0.0
C657 C 0.81265 0.73234 0.69087 0.0
C658 C 0.79295 0.73076 0.66741 0.0
C659 C 0.83072 0.71918 0.68808 0.0
C660 C 0.82867 0.70422 0.66225 0.0
C661 C 0.79097 0.71626 0.64184 0.0
C662 C 0.80855 0.70305 0.63929 0.0
C663 C 0.73885 0.74916 0.79666 0.0
H664 H 0.79255 0.82859 0.89081 0.0
H665 H 0.72423 0.84721 0.85514 0.0
H666 H 0.79856 0.85753 0.93287 0.0
H667 H 0.76817 0.88148 0.93706 0.0
H668 H 0.77905 0.74074 0.66882 0.0
H669 H 0.84595 0.72017 0.70616 0.0
H670 H 0.77567 0.71522 0.62389 0.0
H671 H 0.80656 0.6921 0.61902 0.0
Co672 Co 0.05366 0.99821 0.5116 0.0
Co673 Co 0.07154 0.01577 0.56673 0.0
Co674 Co 0.02851 0.03939 0.54016 0.0
O675 O 0.05874 0.02983 0.5302 0.0
H676 H 0.07223 0.0443 0.52103 0.0
O677 O 0.99822 0.04835 0.55087 0.0
Co678 Co 1.00136 0.07482 0.57789 0.0
Co679 Co 0.98651 0.06804 0.52071 0.0
H680 H 0.984 0.0329 0.55613 0.0
O681 O 0.10391 0.01119 0.56999 0.0
O682 O 0.06645 0.98401 0.5511 0.0
O683 O 0.05187 0.01026 0.60361 0.0
O684 O 1.01691 0.01057 0.57379 0.0
O685 O 0.05151 0.06171 0.57135 0.0
O686 O 1.00122 0.09735 0.60465 0.0
O687 O 0.9703 0.05974 0.59415 0.0
O688 O 0.03502 0.09376 0.56494 0.0
O689 O 0.04029 0.0683 0.50638 0.0
O690 O 1.00812 0.08279 0.4866 0.0
O691 O 0.98603 0.09396 0.54452 0.0
O692 O 0.95248 0.06628 0.5183 0.0
C693 C 0.07522 0.98464 0.48556 0.0
C694 C 1.0028 0.99274 0.51017 0.0
C695 C 0.02756 1.00525 0.59993 0.0
C696 C 0.09085 0.98904 0.55912 0.0
C697 C 0.97861 0.08044 0.60977 0.0
C698 C 0.05352 0.08517 0.57427 0.0
C699 C 0.03103 0.08214 0.48619 0.0
C700 C 0.96187 0.08671 0.53413 0.0
O701 O 0.0519 0.9704 0.49241 0.0
O702 O 0.08521 1.00767 0.49592 0.0
O703 O 1.00555 0.01678 0.50884 0.0
O704 O 1.01978 0.98436 0.52498 0.0
Co705 Co 0.54656 0.0105 0.00818 0.0
Co706 Co 0.55279 0.0296 0.06311 0.0
Co707 Co 0.51653 0.05521 0.01677 0.0
O708 O 0.54738 0.04299 0.02285 0.0
H709 H 0.56301 0.05668 0.01727 0.0
O710 O 0.48625 0.06824 0.00928 0.0
Co711 Co 0.48707 0.10256 0.01751 0.0
Co712 Co 0.48194 0.0786 0.967 0.0
H713 H 0.47051 0.05516 0.01598 0.0
O714 O 0.58612 0.02966 0.07717 0.0
O715 O 0.55567 0.99918 0.05109 0.0
O716 O 0.5237 0.01975 0.08877 0.0
O717 O 0.49683 0.03175 0.05305 0.0
O718 O 0.53478 0.08376 0.04452 0.0
O719 O 0.48435 0.13278 0.02588 0.0
O720 O 0.45274 0.09451 0.02106 0.0
O721 O 0.52434 0.11562 0.01641 0.0
O722 O 0.5361 0.07733 0.98094 0.0
O723 O 0.50924 0.08106 0.94038 0.0
O724 O 0.48163 0.11189 0.97143 0.0
O725 O 0.45023 0.07931 0.94936 0.0
C726 C 0.57273 0.99591 0.99047 0.0
C727 C 0.49453 1.00312 0.99771 0.0
C728 C 0.50114 0.01985 0.0792 0.0
C729 C 0.57872 1.00769 0.06438 0.0
C730 C 0.4599 0.11919 0.0255 0.0
C731 C 0.53961 0.10788 0.0361 0.0
C732 C 0.53176 0.08297 0.95198 0.0
C733 C 0.45937 0.10353 0.9555 0.0
O734 O 0.54881 0.98166 0.9942 0.0
O735 O 0.58029 0.02 0.99791 0.0
O736 O 0.49832 0.02695 0.98899 0.0
O737 O 0.51107 0.99626 0.01582 0.0
Co738 Co 0.04707 0.4998 0.0512 0.0
Co739 Co 0.04995 0.51048 0.10656 0.0
Co740 Co 1.01488 0.54906 0.06249 0.0
O741 O 0.04629 0.53261 0.06925 0.0
H742 H 0.06261 0.54615 0.06619 0.0
O743 O 0.9832 0.56586 0.05873 0.0
Co744 Co 0.98069 0.59985 0.0785 0.0
Co745 Co 0.98386 0.58968 0.02335 0.0
H746 H 0.96666 0.55227 0.05896 0.0
O747 O 0.08234 0.50635 0.12688 0.0
O748 O 0.05606 0.47949 0.09405 0.0
O749 O 1.01812 0.50286 0.12876 0.0
O750 O 0.99726 0.52789 0.10022 0.0
O751 O 0.03411 0.57866 0.08823 0.0
O752 O 0.97715 0.62883 0.0981 0.0
O753 O 0.94408 0.59434 0.08841 0.0
O754 O 1.01817 0.61209 0.07488 0.0
O755 O 0.03463 0.57104 0.02435 0.0
O756 O 1.01657 0.60058 0.00289 0.0
O757 O 0.97413 0.61803 0.03504 0.0
O758 O 0.95347 0.58938 0.99959 0.0
C759 C 0.07388 0.48655 0.03143 0.0
C760 C 0.99348 0.49466 0.03696 0.0
C761 C 0.9989 0.51147 0.12319 0.0
C762 C 0.07673 0.48438 0.11429 0.0
C763 C 0.95239 0.61729 0.1002 0.0
C764 C 0.03709 0.60277 0.08056 0.0
C765 C 0.03503 0.59098 0.00518 0.0
C766 C 0.95629 0.61103 0.01185 0.0
O767 O 0.04954 0.47285 0.03237 0.0
O768 O 0.08169 0.50941 0.04282 0.0
O769 O 0.99447 0.51883 0.03551 0.0
O770 O 1.00983 0.48627 0.05441 0.0
Co771 Co 0.55188 0.49929 0.99523 0.0
Co772 Co 0.56432 0.51476 0.05095 0.0
Co773 Co 0.52409 0.5411 0.01973 0.0
O774 O 0.55476 0.53047 0.01448 0.0
H775 H 0.56933 0.54495 0.00747 0.0
O776 O 0.49313 0.55103 0.02488 0.0
Co777 Co 0.49555 0.58121 0.04511 0.0
Co778 Co 0.48326 0.56684 0.98862 0.0
H779 H 0.47866 0.53633 0.03145 0.0
O780 O 0.59767 0.51473 0.05763 0.0
O781 O 0.56366 0.48428 0.03545 0.0
O782 O 0.54151 0.50635 0.0847 0.0
O783 O 0.50943 0.51347 0.05387 0.0
O784 O 0.5446 0.56511 0.05119 0.0
O785 O 0.49492 0.6078 0.06514 0.0
O786 O 0.4639 0.56907 0.06066 0.0
O787 O 0.52996 0.59717 0.03301 0.0
O788 O 0.53862 0.56872 0.98552 0.0
O789 O 0.50653 0.57639 0.95513 0.0
O790 O 0.48117 0.59543 0.00617 0.0
O791 O 0.44931 0.56459 0.98168 0.0
C792 C 0.57597 0.48689 0.97139 0.0
C793 C 0.50023 0.49363 0.98943 0.0
C794 C 0.51783 0.50427 0.07938 0.0
C795 C 0.58763 0.49207 0.04658 0.0
C796 C 0.47214 0.59194 0.07168 0.0
C797 C 0.54674 0.58912 0.04922 0.0
C798 C 0.53017 0.57813 0.96014 0.0
C799 C 0.45704 0.58593 0.99598 0.0
O800 O 0.55236 0.47217 0.97612 0.0
O801 O 0.58451 0.50984 0.98223 0.0
O802 O 0.50359 0.51778 0.9881 0.0
O803 O 0.51647 0.48434 0.00489 0.0
Co804 Co 0.10084 0.48623 0.57461 0.0
Co805 Co 0.08986 0.48725 0.51494 0.0
Co806 Co 0.0543 0.51528 0.54673 0.0
O807 O 0.06996 0.4863 0.54808 0.0
H808 H 0.05673 0.46955 0.54988 0.0
O809 O 0.03919 0.54407 0.5469 0.0
Co810 Co 1.0066 0.54307 0.52703 0.0
Co811 Co 1.02403 0.5439 0.58376 0.0
H812 H 0.05214 0.5608 0.54292 0.0
O813 O 0.09598 0.45781 0.50296 0.0
O814 O 0.11931 0.48556 0.53779 0.0
O815 O 0.09978 0.51915 0.49007 0.0
O816 O 0.07747 0.53941 0.51325 0.0
O817 O 0.02765 0.49775 0.51384 0.0
O818 O 0.9777 0.54489 0.50729 0.0
O819 O 1.01415 0.57755 0.51825 0.0
O820 O 0.99484 0.50616 0.53259 0.0
O821 O 0.0313 0.49134 0.57928 0.0
O822 O 1.0176 0.51319 0.61125 0.0
O823 O 0.99238 0.54687 0.56796 0.0
O824 O 1.02317 0.57399 0.59823 0.0
C825 C 0.11537 0.45833 0.59865 0.0
C826 C 0.10404 0.53917 0.57718 0.0
C827 C 0.09371 0.53919 0.49334 0.0
C828 C 0.11637 0.46586 0.52166 0.0
C829 C 0.99036 0.5696 0.5065 0.0
C830 C 1.00325 0.49296 0.51574 0.0
C831 C 1.01958 0.49217 0.60349 0.0
C832 C 0.99993 0.56696 0.58507 0.0
O833 O 0.12775 0.48304 0.59923 0.0
O834 O 0.09296 0.45089 0.58292 0.0
O835 O 0.0798 0.5331 0.57968 0.0
O836 O 0.11392 0.52269 0.56983 0.0
Co837 Co 0.59373 0.98364 0.52668 0.0
Co838 Co 0.57876 0.98445 0.47003 0.0
Co839 Co 0.54156 0.01645 0.5031 0.0
O840 O 0.55844 0.98507 0.5047 0.0
H841 H 0.54516 0.96846 0.50785 0.0
O842 O 0.52614 0.04933 0.49865 0.0
Co843 Co 0.49218 0.05659 0.47426 0.0
Co844 Co 0.50554 0.04789 0.53167 0.0
H845 H 0.54037 0.06542 0.49859 0.0
O846 O 0.57972 0.95464 0.451 0.0
O847 O 0.61011 0.97682 0.48522 0.0
O848 O 0.5863 0.01696 0.44503 0.0
O849 O 0.56207 0.03646 0.46658 0.0
O850 O 0.51064 0.99782 0.47545 0.0
O851 O 0.4616 0.06316 0.45216 0.0
O852 O 0.49541 0.09502 0.46576 0.0
O853 O 0.48104 0.01931 0.47543 0.0
O854 O 0.51997 0.99483 0.54069 0.0
O855 O 0.49481 0.01579 0.55624 0.0
O856 O 0.47674 0.05684 0.51492 0.0
O857 O 0.50782 0.07747 0.5501 0.0
C858 C 0.61108 0.95578 0.55285 0.0
C859 C 0.59671 0.03822 0.53343 0.0
C860 C 0.57829 0.03617 0.44685 0.0
C861 C 0.60289 0.95891 0.46401 0.0
C862 C 0.47176 0.08818 0.45231 0.0
C863 C 0.48713 0.99856 0.4742 0.0
C864 C 0.50191 0.99583 0.55784 0.0
C865 C 0.48531 0.07437 0.53561 0.0
O866 O 0.62306 0.98058 0.54911 0.0
O867 O 0.58752 0.94754 0.53956 0.0
O868 O 0.57219 0.03556 0.53178 0.0
O869 O 0.60586 0.0223 0.52144 0.0
H870 H 0.19087 0.26514 0.32027 0.0
H871 H 0.15272 0.23631 0.34616 0.0
H872 H 0.18315 0.17267 0.34672 0.0
H873 H 0.22066 0.20118 0.31957 0.0
H874 H 0.13415 0.15564 0.33428 0.0
H875 H 0.18817 0.20908 0.41275 0.0
H876 H 0.21283 0.24988 0.43662 0.0
H877 H 0.14394 0.27139 0.43376 0.0
H878 H 0.11888 0.23082 0.40978 0.0
H879 H 0.07452 0.07635 0.4659 0.0
H880 H 0.10459 0.10568 0.42935 0.0
H881 H 0.05696 0.15543 0.41721 0.0
H882 H 0.02655 0.12598 0.45352 0.0
H883 H 0.11088 0.18066 0.4328 0.0
H884 H 0.0566 0.12305 0.35926 0.0
H885 H 0.03323 0.08043 0.33914 0.0
H886 H 0.105 0.06498 0.3362 0.0
H887 H 0.12878 0.10737 0.35675 0.0
C888 C 0.18925 0.24493 0.32579 0.0
C889 C 0.20865 0.23532 0.31815 0.0
C890 C 0.16756 0.22853 0.3407 0.0
C891 C 0.16532 0.20244 0.34899 0.0
C892 C 0.18445 0.19272 0.3406 0.0
C893 C 0.20587 0.20899 0.32513 0.0
C894 C 0.14339 0.18531 0.36696 0.0
C895 C 0.12923 0.16106 0.35596 0.0
C896 C 0.13658 0.19256 0.39494 0.0
C897 C 0.15171 0.21706 0.40913 0.0
C898 C 0.17833 0.22262 0.41698 0.0
C899 C 0.19237 0.24567 0.43056 0.0
C900 C 0.18 0.26325 0.43652 0.0
C901 C 0.15352 0.25778 0.42905 0.0
C902 C 0.13938 0.23475 0.41551 0.0
C903 C 0.07032 0.09342 0.45525 0.0
C904 C 0.0482 0.09892 0.46257 0.0
C905 C 0.08744 0.11005 0.43431 0.0
C906 C 0.08285 0.13257 0.42058 0.0
C907 C 0.0607 0.13804 0.42755 0.0
C908 C 0.04334 0.12119 0.44816 0.0
C909 C 0.10206 0.15103 0.40029 0.0
C910 C 0.11569 0.17547 0.41092 0.0
C911 C 0.10869 0.14377 0.37234 0.0
C912 C 0.09445 0.11832 0.35979 0.0
C913 C 0.06739 0.11048 0.35457 0.0
C914 C 0.05407 0.08638 0.34304 0.0
C915 C 0.06762 0.06998 0.33646 0.0
C916 C 0.09453 0.07769 0.34133 0.0
C917 C 0.10794 0.10177 0.35288 0.0
H918 H 0.05727 0.05133 0.32753 0.0
H919 H 0.1909 0.28107 0.44705 0.0
H920 H 0.82962 0.16636 0.36936 0.0
H921 H 0.84632 0.15646 0.42172 0.0
H922 H 0.90353 0.23262 0.41945 0.0
H923 H 0.88778 0.24218 0.36651 0.0
H924 H 0.92556 0.19763 0.43272 0.0
H925 H 0.85608 0.21416 0.47502 0.0
H926 H 0.81143 0.21291 0.48171 0.0
H927 H 0.78817 0.13015 0.49983 0.0
H928 H 0.83266 0.13085 0.49307 0.0
H929 H 0.97779 0.13605 0.55343 0.0
H930 H 0.95554 0.16812 0.53988 0.0
H931 H 0.88866 0.10833 0.5047 0.0
H932 H 0.91048 0.07627 0.51842 0.0
H933 H 0.87556 0.14934 0.52296 0.0
H934 H 0.93898 0.13395 0.45815 0.0
H935 H 0.98264 0.13262 0.4503 0.0
H936 H 1.01564 0.21205 0.47262 0.0
H937 H 0.97208 0.21368 0.48091 0.0
C938 C 0.84571 0.18102 0.38005 0.0
C939 C 0.85755 0.20492 0.36363 0.0
C940 C 0.8549 0.17555 0.41026 0.0
C941 C 0.87594 0.19398 0.42475 0.0
C942 C 0.88711 0.21823 0.40887 0.0
C943 C 0.87805 0.22365 0.3786 0.0
C944 C 0.88876 0.18623 0.45391 0.0
C945 C 0.91482 0.18797 0.45297 0.0
C946 C 0.87473 0.17327 0.48018 0.0
C947 C 0.84775 0.17259 0.48353 0.0
C948 C 0.84141 0.19566 0.48021 0.0
C949 C 0.81612 0.19505 0.4841 0.0
C950 C 0.79699 0.17147 0.49128 0.0
C951 C 0.80305 0.14842 0.49441 0.0
C952 C 0.82832 0.14893 0.49064 0.0
C953 C 0.95798 0.12958 0.5439 0.0
C954 C 0.94623 0.10392 0.53566 0.0
C955 C 0.94525 0.14791 0.53636 0.0
C956 C 0.92081 0.14066 0.52046 0.0
C957 C 0.90764 0.11436 0.51669 0.0
C958 C 0.92029 0.09608 0.52421 0.0
C959 C 0.91175 0.16001 0.50084 0.0
C960 C 0.88649 0.16028 0.50341 0.0
C961 C 0.92632 0.17466 0.47577 0.0
C962 C 0.95242 0.17384 0.47048 0.0
C963 C 0.95559 0.15107 0.46149 0.0
C964 C 0.9803 0.15027 0.45698 0.0
C965 C 1.00194 0.17222 0.46105 0.0
C966 C 0.99887 0.19504 0.46956 0.0
C967 C 0.97419 0.19592 0.47418 0.0
H968 H 1.02106 0.17159 0.45753 0.0
H969 H 0.77747 0.17103 0.49447 0.0
H970 H 0.8256 0.87167 0.31498 0.0
H971 H 0.85681 0.90063 0.34966 0.0
H972 H 0.88607 0.83846 0.38531 0.0
H973 H 0.85467 0.80913 0.35061 0.0
H974 H 0.87777 0.8644 0.43187 0.0
H975 H 0.92044 0.8858 0.33565 0.0
H976 H 0.92406 0.89786 0.27911 0.0
H977 H 0.91015 0.96918 0.29091 0.0
H978 H 0.90603 0.95735 0.34748 0.0
H979 H 0.99328 0.94098 0.50707 0.0
H980 H 0.96065 0.91187 0.47396 0.0
H981 H 0.93147 0.97435 0.43947 0.0
H982 H 0.96456 1.00397 0.47228 0.0
H983 H 0.93942 0.94827 0.39259 0.0
H984 H 0.89761 0.9263 0.49008 0.0
H985 H 0.89538 0.9138 0.54665 0.0
H986 H 0.9093 0.84294 0.53247 0.0
H987 H 0.91196 0.85517 0.47584 0.0
C988 C 0.83898 0.86422 0.32972 0.0
C989 C 0.83797 0.83822 0.32973 0.0
C990 C 0.85672 0.88079 0.34964 0.0
C991 C 0.87388 0.87171 0.36975 0.0
C992 C 0.87296 0.84578 0.36986 0.0
C993 C 0.85513 0.82913 0.34997 0.0
C994 C 0.89243 0.8893 0.39105 0.0
C995 C 0.8915 0.88259 0.42332 0.0
C996 C 0.90988 0.91322 0.37975 0.0
C997 C 0.91271 0.92058 0.34578 0.0
C998 C 0.91798 0.90398 0.32617 0.0
C999 C 0.92017 0.91079 0.29412 0.0
C1000 C 0.9173 0.93425 0.28142 0.0
C1001 C 0.91234 0.951 0.30078 0.0
C1002 C 0.91011 0.94426 0.33284 0.0
C1003 C 0.97981 0.94855 0.49269 0.0
C1004 C 0.98153 0.97481 0.4922 0.0
C1005 C 0.9611 0.93183 0.47387 0.0
C1006 C 0.94357 0.94095 0.45451 0.0
C1007 C 0.94488 0.96701 0.45434 0.0
C1008 C 0.96369 0.98384 0.47314 0.0
C1009 C 0.92469 0.92344 0.43343 0.0
C1010 C 0.92561 0.93014 0.40116 0.0
C1011 C 0.90737 0.89944 0.44474 0.0
C1012 C 0.90516 0.89175 0.47872 0.0
C1013 C 0.90032 0.90811 0.49903 0.0
C1014 C 0.89896 0.90106 0.53111 0.0
C1015 C 0.90222 0.87761 0.54315 0.0
C1016 C 0.90676 0.8611 0.52311 0.0
C1017 C 0.90816 0.86806 0.49101 0.0
H1018 H 0.90122 0.87222 0.568 0.0
H1019 H 0.91894 0.93947 0.25659 0.0
H1020 H 0.15679 0.89151 0.27725 0.0
H1021 H 0.14063 0.91264 0.31444 0.0
H1022 H 0.2059 0.91391 0.37842 0.0
H1023 H 0.22284 0.89352 0.3408 0.0
H1024 H 0.15796 0.89314 0.40502 0.0
H1025 H 0.20432 0.96904 0.3438 0.0
H1026 H 0.21756 0.99656 0.29531 0.0
H1027 H 0.13937 0.99604 0.27407 0.0
H1028 H 0.12556 0.96818 0.32221 0.0
H1029 H 0.12756 0.99406 0.49041 0.0
H1030 H 0.15242 0.97432 0.46159 0.0
H1031 H 0.08234 0.93213 0.41103 0.0
H1032 H 0.05727 0.95048 0.44093 0.0
H1033 H 0.13763 0.97518 0.38174 0.0
H1034 H 0.09112 0.89542 0.44203 0.0
H1035 H 0.0781 0.86239 0.48573 0.0
H1036 H 0.15718 0.86597 0.50599 0.0
H1037 H 0.17101 0.90069 0.46403 0.0
C1038 C 0.16806 0.89675 0.29891 0.0
C1039 C 0.19117 0.89086 0.30599 0.0
C1040 C 0.15874 0.90877 0.32017 0.0
C1041 C 0.17223 0.91501 0.34897 0.0
C1042 C 0.19529 0.90925 0.35621 0.0
C1043 C 0.2048 0.89744 0.3348 0.0
C1044 C 0.16124 0.92607 0.37219 0.0
C1045 C 0.15397 0.91137 0.40038 0.0
C1046 C 0.15566 0.94953 0.36548 0.0
C1047 C 0.16388 0.96634 0.33652 0.0
C1048 C 0.1899 0.97461 0.32867 0.0
C1049 C 0.19752 0.99031 0.30126 0.0
C1050 C 0.17931 0.998 0.28159 0.0
C1051 C 0.15345 0.99005 0.28932 0.0
C1052 C 0.14573 0.97433 0.31669 0.0
C1053 C 0.1175 0.98036 0.47336 0.0
C1054 C 0.09056 0.97376 0.46778 0.0
C1055 C 0.13162 0.96891 0.45726 0.0
C1056 C 0.11901 0.9512 0.43497 0.0
C1057 C 0.09222 0.94507 0.42895 0.0
C1058 C 0.07801 0.95578 0.44574 0.0
C1059 C 0.13407 0.94208 0.41462 0.0
C1060 C 0.14208 0.95722 0.38682 0.0
C1061 C 0.14028 0.91892 0.42176 0.0
C1062 C 0.13222 0.9014 0.4503 0.0
C1063 C 0.10594 0.89028 0.45671 0.0
C1064 C 0.09837 0.87101 0.48108 0.0
C1065 C 0.11683 0.86215 0.49864 0.0
C1066 C 0.14294 0.873 0.49248 0.0
C1067 C 0.15068 0.89274 0.46873 0.0
H1068 H 0.11095 0.84665 0.51679 0.0
H1069 H 0.18525 0.01016 0.26039 0.0
H1070 H 0.24339 0.86009 0.61404 0.0
H1071 H 0.21186 0.86395 0.57113 0.0
H1072 H 0.16654 0.88287 0.63711 0.0
H1073 H 0.19693 0.87781 0.6794 0.0
H1074 H 0.13538 0.85596 0.59533 0.0
H1075 H 0.21903 0.93353 0.5925 0.0
H1076 H 0.26601 0.94928 0.58473 0.0
H1077 H 0.25256 0.91224 0.49846 0.0
H1078 H 0.20557 0.89614 0.50597 0.0
H1079 H 0.14162 0.99372 0.57188 0.0
H1080 H 0.16242 0.96132 0.56741 0.0
H1081 H 0.09093 0.90999 0.52842 0.0
H1082 H 0.06933 0.94139 0.53575 0.0
H1083 H 0.17406 0.93586 0.52771 0.0
H1084 H 0.0846 0.8488 0.5557 0.0
H1085 H 0.04228 0.83808 0.57868 0.0
H1086 H 0.07265 0.9024 0.63619 0.0
H1087 H 0.11517 0.91348 0.61346 0.0
C1088 C 0.22638 0.86468 0.61909 0.0
C1089 C 0.22243 0.86882 0.64974 0.0
C1090 C 0.20842 0.86676 0.59474 0.0
C1091 C 0.18684 0.87373 0.60085 0.0
C1092 C 0.18272 0.87699 0.63176 0.0
C1093 C 0.20022 0.8744 0.65594 0.0
C1094 C 0.17031 0.88164 0.57569 0.0
C1095 C 0.14356 0.87289 0.57952 0.0
C1096 C 0.18097 0.90346 0.55481 0.0
C1097 C 0.20896 0.91368 0.54977 0.0
C1098 C 0.22617 0.92889 0.57184 0.0
C1099 C 0.25276 0.93779 0.56754 0.0
C1100 C 0.26226 0.93176 0.54112 0.0
C1101 C 0.24518 0.91689 0.51891 0.0
C1102 C 0.21858 0.90788 0.52316 0.0
C1103 C 0.13029 0.97555 0.56238 0.0
C1104 C 0.1038 0.97004 0.55449 0.0
C1105 C 0.14232 0.95718 0.55926 0.0
C1106 C 0.12817 0.93311 0.54774 0.0
C1107 C 0.10211 0.92826 0.53779 0.0
C1108 C 0.08983 0.94628 0.54198 0.0
C1109 C 0.13998 0.91221 0.55114 0.0
C1110 C 0.16542 0.91811 0.542 0.0
C1111 C 0.12851 0.88864 0.56903 0.0
C1112 C 0.10288 0.88227 0.58237 0.0
C1113 C 0.08221 0.86077 0.57303 0.0
C1114 C 0.05819 0.8546 0.58607 0.0
C1115 C 0.05472 0.86964 0.60874 0.0
C1116 C 0.07528 0.89086 0.61847 0.0
C1117 C 0.09933 0.89711 0.60549 0.0
H1118 H 0.03614 0.86471 0.6189 0.0
H1119 H 0.28286 0.9386 0.53787 0.0
H1120 H 0.24746 0.18396 0.76731 0.0
H1121 H 0.2135 0.1531 0.73671 0.0
H1122 H 0.16201 0.19705 0.7458 0.0
H1123 H 0.19528 0.2266 0.77799 0.0
H1124 H 0.1345 0.14969 0.74119 0.0
H1125 H 0.20627 0.2092 0.68252 0.0
H1126 H 0.25195 0.2279 0.66858 0.0
H1127 H 0.25327 0.15243 0.65139 0.0
H1128 H 0.20767 0.13324 0.66504 0.0
H1129 H 0.05851 0.13062 0.59993 0.0
H1130 H 0.09179 0.15214 0.63886 0.0
H1131 H 0.13084 0.09605 0.63229 0.0
H1132 H 0.0979 0.07456 0.59323 0.0
H1133 H 0.16462 0.14547 0.63676 0.0
H1134 H 0.09142 0.08721 0.68943 0.0
H1135 H 0.045 0.06918 0.69948 0.0
H1136 H 0.04602 0.14301 0.72672 0.0
H1137 H 0.09238 0.1616 0.71636 0.0
C1138 C 0.22838 0.18606 0.76404 0.0
C1139 C 0.22362 0.20719 0.77526 0.0
C1140 C 0.20918 0.16879 0.74613 0.0
C1141 C 0.18553 0.17332 0.73802 0.0
C1142 C 0.18011 0.19319 0.7516 0.0
C1143 C 0.19903 0.20996 0.77025 0.0
C1144 C 0.1676 0.15951 0.71294 0.0
C1145 C 0.14111 0.14892 0.71833 0.0
C1146 C 0.17621 0.1581 0.68315 0.0
C1147 C 0.20366 0.16976 0.67511 0.0
C1148 C 0.21636 0.19659 0.67593 0.0
C1149 C 0.2422 0.20728 0.66808 0.0
C1150 C 0.2555 0.19136 0.65934 0.0
C1151 C 0.24296 0.16472 0.65825 0.0
C1152 C 0.21712 0.15394 0.66595 0.0
C1153 C 0.07443 0.12315 0.60634 0.0
C1154 C 0.07543 0.10072 0.59382 0.0
C1155 C 0.09331 0.13536 0.6287 0.0
C1156 C 0.11341 0.12531 0.6388 0.0
C1157 C 0.11535 0.10394 0.62492 0.0
C1158 C 0.09647 0.09168 0.60267 0.0
C1159 C 0.13169 0.13622 0.66497 0.0
C1160 C 0.15814 0.14617 0.65972 0.0
C1161 C 0.12304 0.13718 0.69476 0.0
C1162 C 0.09534 0.12585 0.70189 0.0
C1163 C 0.08172 0.09964 0.69742 0.0
C1164 C 0.05541 0.08932 0.70317 0.0
C1165 C 0.04255 0.10496 0.71366 0.0
C1166 C 0.056 0.13092 0.71857 0.0
C1167 C 0.0823 0.14135 0.71279 0.0
H1168 H 1.02216 0.09695 0.71804 0.0
H1169 H 0.27547 0.19967 0.65327 0.0
H1170 H 0.9058 0.19667 0.79046 0.0
H1171 H 0.91813 0.17123 0.75475 0.0
H1172 H 0.85242 0.10481 0.7793 0.0
H1173 H 0.8399 0.13041 0.81537 0.0
H1174 H 0.89855 0.09246 0.7719 0.0
H1175 H 0.8453 0.13597 0.71523 0.0
H1176 H 0.82916 0.17263 0.69892 0.0
H1177 H 0.90198 0.21557 0.66012 0.0
H1178 H 0.91878 0.17939 0.67679 0.0
H1179 H 0.93299 0.04753 0.63219 0.0
H1180 H 0.90578 0.05717 0.66879 0.0
H1181 H 0.95975 0.1346 0.6735 0.0
H1182 H 0.98692 0.12524 0.63741 0.0
H1183 H 0.90726 0.13219 0.66297 0.0
H1184 H 0.96138 0.08996 0.73024 0.0
H1185 H 0.97633 0.05247 0.74641 0.0
H1186 H 0.89825 1.0049 0.76308 0.0
H1187 H 0.88282 0.04208 0.74663 0.0
C1188 C 0.8941 0.17659 0.78844 0.0
C1189 C 0.87178 0.16554 0.80534 0.0
C1190 C 0.90116 0.16208 0.76812 0.0
C1191 C 0.88591 0.13632 0.76406 0.0
C1192 C 0.86435 0.1247 0.78212 0.0
C1193 C 0.85728 0.13928 0.80266 0.0
C1194 C 0.89205 0.12256 0.73942 0.0
C1195 C 0.89989 0.10072 0.7479 0.0
C1196 C 0.89348 0.13323 0.70808 0.0
C1197 C 0.88335 0.15495 0.69741 0.0
C1198 C 0.85794 0.15328 0.70339 0.0
C1199 C 0.84867 0.17399 0.69408 0.0
C1200 C 0.86454 0.19642 0.6785 0.0
C1201 C 0.88971 0.19817 0.67217 0.0
C1202 C 0.89911 0.17755 0.68152 0.0
C1203 C 0.93902 0.06658 0.64109 0.0
C1204 C 0.96211 0.08562 0.63201 0.0
C1205 C 0.92349 0.07201 0.66195 0.0
C1206 C 0.93082 0.09658 0.67372 0.0
C1207 C 0.95376 0.11556 0.66452 0.0
C1208 C 0.96932 0.11011 0.64402 0.0
C1209 C 0.91503 0.10302 0.69583 0.0
C1210 C 0.90524 0.12348 0.68676 0.0
C1211 C 0.91149 0.09082 0.72639 0.0
C1212 C 0.92091 0.0687 0.73689 0.0
C1213 C 0.94739 0.07147 0.73717 0.0
C1214 C 0.95595 0.05028 0.74642 0.0
C1215 C 0.93824 0.02628 0.75568 0.0
C1216 C 0.91195 0.02347 0.75586 0.0
C1217 C 0.90328 0.0446 0.7466 0.0
H1218 H 0.94489 0.00988 0.76278 0.0
H1219 H 0.85733 0.21243 0.67132 0.0
H1220 H 0.87275 0.8464 0.79971 0.0
H1221 H 0.91117 0.88036 0.78048 0.0
H1222 H 0.88105 0.86703 0.68549 0.0
H1223 H 0.84298 0.83325 0.70433 0.0
H1224 H 0.92996 0.87084 0.69036 0.0
H1225 H 0.87731 0.9179 0.72304 0.0
H1226 H 0.85334 0.93285 0.75907 0.0
H1227 H 0.923 0.96288 0.81628 0.0
H1228 H 0.94733 0.94773 0.78082 0.0
H1229 H 0.97502 0.98521 0.59631 0.0
H1230 H 0.94735 0.95595 0.63476 0.0
H1231 H 1.01361 0.96168 0.69861 0.0
H1232 H 0.04191 0.9909 0.65987 0.0
H1233 H 0.9541 0.96205 0.71811 0.0
H1234 H 1.00625 0.91501 0.67772 0.0
H1235 H 0.02676 0.90568 0.63344 0.0
H1236 H 0.95266 0.87861 0.58395 0.0
H1237 H 0.93179 0.88858 0.62764 0.0
C1238 C 0.87429 0.85083 0.77474 0.0
C1239 C 0.85465 0.83733 0.75356 0.0
C1240 C 0.89625 0.8702 0.76382 0.0
C1241 C 0.89885 0.87633 0.73158 0.0
C1242 C 0.87947 0.86256 0.71048 0.0
C1243 C 0.85765 0.84324 0.72133 0.0
C1244 C 0.92164 0.89697 0.71926 0.0
C1245 C 0.93535 0.89069 0.69677 0.0
C1246 C 0.92883 0.9229 0.72771 0.0
C1247 C 0.91405 0.93127 0.74958 0.0
C1248 C 0.88745 0.92736 0.74354 0.0
C1249 C 0.87382 0.93598 0.76378 0.0
C1250 C 0.88663 0.94874 0.78999 0.0
C1251 C 0.91309 0.9529 0.79603 0.0
C1252 C 0.92681 0.94429 0.77588 0.0
C1253 C 0.98382 0.98062 0.61863 0.0
C1254 C 1.01076 0.99004 0.62483 0.0
C1255 C 0.96791 0.96402 0.64061 0.0
C1256 C 0.97857 0.95675 0.66927 0.0
C1257 C 1.00518 0.96726 0.67651 0.0
C1258 C 1.02126 0.98374 0.6543 0.0
C1259 C 0.96197 0.9357 0.68943 0.0
C1260 C 0.94929 0.94194 0.71294 0.0
C1261 C 0.95524 0.9098 0.68154 0.0
C1262 C 0.96752 0.9027 0.65586 0.0
C1263 C 0.99436 0.90722 0.65732 0.0
C1264 C 1.00604 0.90181 0.63232 0.0
C1265 C 0.99103 0.89151 0.6059 0.0
C1266 C 0.96426 0.88658 0.60444 0.0
C1267 C 0.9525 0.89212 0.62931 0.0
H1268 H 1.00013 0.88734 0.58656 0.0
H1269 H 0.87605 0.95544 0.80559 0.0
H1270 H 0.26964 0.20127 0.06994 0.0
H1271 H 0.29683 0.18463 0.04146 0.0
H1272 H 0.36489 0.23288 0.09027 0.0
H1273 H 0.33795 0.25059 0.11775 0.0
H1274 H 0.37458 0.23009 0.03122 0.0
H1275 H 0.33368 0.1682 0.11632 0.0
H1276 H 0.29588 0.13975 0.14417 0.0
H1277 H 0.26663 0.09868 0.06171 0.0
H1278 H 0.30415 0.12712 0.03329 0.0
H1279 H 0.46713 0.16565 0.04903 0.0
H1280 H 0.4354 0.18794 0.05102 0.0
H1281 H 0.37772 0.12618 0.00465 0.0
H1282 H 0.40913 0.10306 0.00439 0.0
H1283 H 0.35794 0.13535 0.05058 0.0
H1284 H 0.40365 0.19255 0.96887 0.0
H1285 H 0.43901 0.2231 0.93877 0.0
H1286 H 0.46006 0.27321 0.01419 0.0
H1287 H 0.42419 0.24346 0.04406 0.0
C1288 C 0.29044 0.20886 0.07404 0.0
C1289 C 0.30162 0.22701 0.09646 0.0
C1290 C 0.30594 0.19917 0.05788 0.0
C1291 C 0.33283 0.20716 0.06415 0.0
C1292 C 0.34415 0.22633 0.08518 0.0
C1293 C 0.3287 0.2362 0.10116 0.0
C1294 C 0.34912 0.19415 0.05104 0.0
C1295 C 0.37112 0.20939 0.03551 0.0
C1296 C 0.34395 0.16702 0.05555 0.0
C1297 C 0.32154 0.14987 0.07266 0.0
C1298 C 0.31911 0.15317 0.10413 0.0
C1299 C 0.29775 0.13706 0.12 0.0
C1300 C 0.27884 0.11745 0.1047 0.0
C1301 C 0.28128 0.11389 0.07352 0.0
C1302 C 0.30258 0.12998 0.05752 0.0
C1303 C 0.44766 0.15682 0.03929 0.0
C1304 C 0.44049 0.13243 0.027 0.0
C1305 C 0.42961 0.16981 0.03992 0.0
C1306 C 0.40418 0.15905 0.02745 0.0
C1307 C 0.39719 0.13494 0.01443 0.0
C1308 C 0.41509 0.12163 0.0145 0.0
C1309 C 0.38426 0.17139 0.0316 0.0
C1310 C 0.3614 0.15599 0.0455 0.0
C1311 C 0.38876 0.19842 0.02563 0.0
C1312 C 0.41125 0.21569 0.00861 0.0
C1313 C 0.41588 0.21002 0.97895 0.0
C1314 C 0.43596 0.22721 0.96195 0.0
C1315 C 0.45193 0.24992 0.97469 0.0
C1316 C 0.4477 0.25558 0.00435 0.0
C1317 C 0.42736 0.23866 0.0212 0.0
H1318 H 0.46751 0.26317 0.96152 0.0
H1319 H 0.26231 0.105 0.11703 0.0
H1320 H 0.81429 0.36703 0.27584 0.0
H1321 H 0.84614 0.4058 0.25362 0.0
H1322 H 0.81072 0.38868 0.1613 0.0
H1323 H 0.77943 0.34886 0.18381 0.0
H1324 H 0.85707 0.39928 0.15562 0.0
H1325 H 0.81467 0.44862 0.19666 0.0
H1326 H 0.79222 0.46707 0.23069 0.0
H1327 H 0.8574 0.48259 0.29707 0.0
H1328 H 0.88057 0.46481 0.26309 0.0
H1329 H 0.95739 0.52881 0.1242 0.0
H1330 H 0.91574 0.5053 0.14623 0.0
H1331 H 0.94599 0.44503 0.18629 0.0
H1332 H 0.98773 0.46818 0.16417 0.0
H1333 H 0.89661 0.48109 0.20801 0.0
H1334 H 0.91231 0.39667 0.15776 0.0
H1335 H 0.93785 0.39093 0.11594 0.0
H1336 H 0.92215 0.45386 0.0596 0.0
H1337 H 0.89647 0.45984 0.10107 0.0
C1338 C 0.81331 0.37164 0.25081 0.0
C1339 C 0.79515 0.35464 0.23128 0.0
C1340 C 0.8312 0.39416 0.23812 0.0
C1341 C 0.83091 0.40055 0.20566 0.0
C1342 C 0.81156 0.38425 0.18636 0.0
C1343 C 0.79372 0.3615 0.19912 0.0
C1344 C 0.85292 0.42199 0.1921 0.0
C1345 C 0.86554 0.41692 0.16746 0.0
C1346 C 0.86363 0.44612 0.20576 0.0
C1347 C 0.84921 0.45506 0.22748 0.0
C1348 C 0.82406 0.45557 0.21876 0.0
C1349 C 0.81123 0.46599 0.238 0.0
C1350 C 0.82314 0.47552 0.26632 0.0
C1351 C 0.8481 0.47503 0.27523 0.0
C1352 C 0.86116 0.46493 0.2559 0.0
C1353 C 0.95544 0.51082 0.13828 0.0
C1354 C 0.97582 0.50014 0.14196 0.0
C1355 C 0.93164 0.49755 0.15102 0.0
C1356 C 0.92782 0.47341 0.16757 0.0
C1357 C 0.94866 0.46367 0.17343 0.0
C1358 C 0.9725 0.47693 0.16077 0.0
C1359 C 0.90139 0.45655 0.17456 0.0
C1360 C 0.88799 0.46292 0.19714 0.0
C1361 C 0.8895 0.43403 0.15848 0.0
C1362 C 0.90219 0.4284 0.13223 0.0
C1363 C 0.91382 0.40884 0.13614 0.0
C1364 C 0.92857 0.40577 0.11267 0.0
C1365 C 0.9317 0.42211 0.08519 0.0
C1366 C 0.91975 0.44127 0.0809 0.0
C1367 C 0.90508 0.44447 0.10434 0.0
H1368 H 0.94338 0.41993 0.06721 0.0
H1369 H 0.81311 0.48348 0.28123 0.0
H1370 H 0.73219 0.89464 0.14909 0.0
H1371 H 0.70439 0.91887 0.12731 0.0
H1372 H 0.69984 0.88681 0.03833 0.0
H1373 H 0.7262 0.8605 0.06102 0.0
H1374 H 0.71134 0.95529 0.08916 0.0
H1375 H 0.64854 0.89819 0.99126 0.0
H1376 H 0.63198 0.85379 0.97403 0.0
H1377 H 0.6319 0.82277 0.06963 0.0
H1378 H 0.64848 0.86712 0.08734 0.0
H1379 H 0.62813 0.02807 0.04685 0.0
H1380 H 0.65823 1.0047 0.03963 0.0
H1381 H 0.60101 0.93269 0.07013 0.0
H1382 H 0.57009 0.95586 0.07395 0.0
H1383 H 0.62628 0.92133 0.03187 0.0
H1384 H 0.654 0.97477 0.12085 0.0
H1385 H 0.66796 0.01584 0.14674 0.0
H1386 H 0.73142 0.04664 0.08657 0.0
H1387 H 0.71766 1.00578 0.06015 0.0
C1388 C 0.72487 0.89212 0.12506 0.0
C1389 C 0.7313 0.87523 0.10703 0.0
C1390 C 0.70925 0.9065 0.11233 0.0
C1391 C 0.70017 0.90521 0.08082 0.0
C1392 C 0.70659 0.88844 0.06258 0.0
C1393 C 0.72189 0.87349 0.07558 0.0
C1394 C 0.68447 0.92201 0.06802 0.0
C1395 C 0.6927 0.94769 0.07667 0.0
C1396 C 0.6605 0.9127 0.05071 0.0
C1397 C 0.65026 0.88596 0.04052 0.0
C1398 C 0.64511 0.88192 0.00856 0.0
C1399 C 0.63568 0.85675 0.99872 0.0
C1400 C 0.63103 0.83545 0.02072 0.0
C1401 C 0.63566 0.83929 0.05261 0.0
C1402 C 0.64511 0.86444 0.06255 0.0
C1403 C 0.62215 1.00725 0.05207 0.0
C1404 C 0.5972 0.99373 0.06186 0.0
C1405 C 0.63929 0.99388 0.04791 0.0
C1406 C 0.63234 0.96697 0.05535 0.0
C1407 C 0.60702 0.95343 0.06429 0.0
C1408 C 0.58947 0.96666 0.06699 0.0
C1409 C 0.65182 0.95317 0.05671 0.0
C1410 C 0.64485 0.9287 0.04457 0.0
C1411 C 0.67637 0.96288 0.07256 0.0
C1412 C 0.68462 0.98744 0.08829 0.0
C1413 C 0.67084 0.99038 0.11306 0.0
C1414 C 0.67872 0.01359 0.12782 0.0
C1415 C 0.7005 0.03387 0.11822 0.0
C1416 C 0.71451 0.03094 0.09391 0.0
C1417 C 0.70669 1.00778 0.07903 0.0
H1418 H 0.70658 0.05183 0.12969 0.0
H1419 H 0.62373 0.81596 0.01308 0.0
H1420 H 0.27046 0.75552 0.15655 0.0
H1421 H 0.24085 0.72972 0.11653 0.0
H1422 H 0.18193 0.70077 0.18386 0.0
H1423 H 0.21171 0.72527 0.22365 0.0
H1424 H 0.19193 0.66226 0.14963 0.0
H1425 H 0.15354 0.74436 0.11077 0.0
H1426 H 0.16663 0.79044 0.09104 0.0
H1427 H 0.23159 0.78191 0.04903 0.0
H1428 H 0.21825 0.73556 0.06755 0.0
H1429 H 0.05473 0.65276 0.09746 0.0
H1430 H 0.09997 0.67999 0.10433 0.0
H1431 H 0.12469 0.62111 0.06905 0.0
H1432 H 0.07966 0.59344 0.0636 0.0
H1433 H 0.14178 0.70198 0.07116 0.0
H1434 H 0.17831 0.61738 0.11117 0.0
H1435 H 0.16177 0.57117 0.13006 0.0
H1436 H 0.09941 0.58492 0.17201 0.0
H1437 H 0.11576 0.63123 0.15363 0.0
C1438 C 0.25114 0.74354 0.16248 0.0
C1439 C 0.24318 0.74197 0.19298 0.0
C1440 C 0.23419 0.72911 0.13964 0.0
C1441 C 0.20903 0.71367 0.1471 0.0
C1442 C 0.20125 0.71252 0.17761 0.0
C1443 C 0.21825 0.72635 0.20036 0.0
C1444 C 0.1903 0.69769 0.12434 0.0
C1445 C 0.18146 0.67079 0.13161 0.0
C1446 C 0.17656 0.7088 0.10105 0.0
C1447 C 0.18536 0.73679 0.09128 0.0
C1448 C 0.17069 0.75241 0.09748 0.0
C1449 C 0.178 0.77847 0.08624 0.0
C1450 C 0.20003 0.78914 0.06897 0.0
C1451 C 0.21466 0.77369 0.06265 0.0
C1452 C 0.20723 0.74752 0.07349 0.0
C1453 C 0.06983 0.6458 0.09087 0.0
C1454 C 0.06382 0.62077 0.08082 0.0
C1455 C 0.09565 0.66141 0.09458 0.0
C1456 C 0.11574 0.65234 0.08781 0.0
C1457 C 0.10956 0.62824 0.07513 0.0
C1458 C 0.08384 0.61243 0.07214 0.0
C1459 C 0.14282 0.66679 0.09759 0.0
C1460 C 0.15292 0.69322 0.088 0.0
C1461 C 0.15775 0.65524 0.11887 0.0
C1462 C 0.14807 0.62762 0.13071 0.0
C1463 C 0.16112 0.61052 0.12451 0.0
C1464 C 0.15178 0.58432 0.13511 0.0
C1465 C 0.12949 0.57509 0.15211 0.0
C1466 C 0.11661 0.59207 0.15874 0.0
C1467 C 0.1259 0.61828 0.14825 0.0
H1468 H 0.12225 0.5548 0.16022 0.0
H1469 H 0.20573 0.80937 0.06043 0.0
H1470 H 0.33687 0.79998 0.87919 0.0
H1471 H 0.36627 0.83258 0.91201 0.0
H1472 H 0.34892 0.89326 0.85176 0.0
H1473 H 0.32045 0.86108 0.81839 0.0
H1474 H 0.39955 0.90421 0.86372 0.0
H1475 H 0.32323 0.87412 0.9227 0.0
H1476 H 0.28789 0.84149 0.95046 0.0
H1477 H 0.34331 0.82118 0.01541 0.0
H1478 H 0.37903 0.85333 0.98761 0.0
H1479 H 0.45697 0.00987 0.95505 0.0
H1480 H 0.42214 0.97602 0.92986 0.0
H1481 H 0.44592 0.91726 0.98597 0.0
H1482 H 0.48046 0.95079 0.01187 0.0
H1483 H 0.3918 0.90493 0.97771 0.0
H1484 H 0.46764 0.93297 0.91721 0.0
H1485 H 0.50327 0.9653 0.8895 0.0
H1486 H 0.44827 0.98914 0.82749 0.0
H1487 H 0.4123 0.95715 0.85514 0.0
C1488 C 0.33951 0.82027 0.87286 0.0
C1489 C 0.32644 0.82796 0.84619 0.0
C1490 C 0.35605 0.83883 0.89178 0.0
C1491 C 0.35954 0.86528 0.8844 0.0
C1492 C 0.34644 0.87293 0.85786 0.0
C1493 C 0.33008 0.85448 0.83891 0.0
C1494 C 0.37753 0.88526 0.90353 0.0
C1495 C 0.3976 0.90455 0.88855 0.0
C1496 C 0.37531 0.88526 0.93607 0.0
C1497 C 0.35383 0.86597 0.95287 0.0
C1498 C 0.32791 0.86254 0.94273 0.0
C1499 C 0.30779 0.84414 0.95849 0.0
C1500 C 0.31335 0.82923 0.98464 0.0
C1501 C 0.33903 0.83272 0.99512 0.0
C1502 C 0.35922 0.85103 0.97936 0.0
C1503 C 0.45455 0.98975 0.96242 0.0
C1504 C 0.47173 0.98299 0.98506 0.0
C1505 C 0.43465 0.97048 0.94804 0.0
C1506 C 0.43172 0.94424 0.95604 0.0
C1507 C 0.44787 0.93744 0.9798 0.0
C1508 C 0.46773 0.95665 0.99427 0.0
C1509 C 0.41342 0.92395 0.93769 0.0
C1510 C 0.39351 0.90456 0.95284 0.0
C1511 C 0.41571 0.92377 0.90526 0.0
C1512 C 0.4373 0.94287 0.88845 0.0
C1513 C 0.46315 0.94525 0.89782 0.0
C1514 C 0.4834 0.96348 0.88211 0.0
C1515 C 0.47803 0.97932 0.85681 0.0
C1516 C 0.4524 0.97689 0.84712 0.0
C1517 C 0.43207 0.9587 0.86279 0.0
H1518 H 0.49374 0.99343 0.84467 0.0
H1519 H 0.29775 0.81501 0.99684 0.0
H1520 H 0.18271 0.35496 0.87914 0.0
H1521 H 0.15975 0.38378 0.89372 0.0
H1522 H 0.20865 0.39856 0.97824 0.0
H1523 H 0.23188 0.37075 0.96339 0.0
H1524 H 0.13038 0.38047 0.9392 0.0
H1525 H 0.21486 0.45577 0.00554 0.0
H1526 H 0.26151 0.47867 1.00068 0.0
H1527 H 0.25335 0.46744 0.9025 0.0
H1528 H 0.20661 0.44483 0.90665 0.0
H1529 H 0.07372 0.4367 0.04085 0.0
H1530 H 0.10042 0.41582 0.01806 0.0
H1531 H 0.14083 0.4885 0.96871 0.0
H1532 H 0.11505 0.50987 0.99353 0.0
H1533 H 0.17381 0.46608 0.98177 0.0
H1534 H 0.08912 0.43389 0.93378 0.0
H1535 H 0.04161 0.41414 0.93153 0.0
H1536 H 0.04892 0.34425 0.97996 0.0
H1537 H 0.09646 0.36371 0.98286 0.0
C1538 C 0.18895 0.36486 0.90044 0.0
C1539 C 0.20918 0.3603 0.92006 0.0
C1540 C 0.1756 0.38119 0.90899 0.0
C1541 C 0.18231 0.39369 0.93719 0.0
C1542 C 0.20307 0.38972 0.95618 0.0
C1543 C 0.21632 0.3735 0.94769 0.0
C1544 C 0.16707 0.40975 0.94781 0.0
C1545 C 0.13997 0.39922 0.94838 0.0
C1546 C 0.17914 0.43468 0.95919 0.0
C1547 C 0.20725 0.44838 0.9565 0.0
C1548 C 0.22299 0.45828 0.98289 0.0
C1549 C 0.24946 0.4712 0.98026 0.0
C1550 C 0.2604 0.47444 0.95132 0.0
C1551 C 0.24488 0.46483 0.92492 0.0
C1552 C 0.2184 0.45193 0.92742 0.0
C1553 C 0.08843 0.44832 0.0253 0.0
C1554 C 0.09205 0.47497 0.01889 0.0
C1555 C 0.10361 0.43624 0.01187 0.0
C1556 C 0.12229 0.45009 0.99045 0.0
C1557 C 0.12653 0.47703 0.98481 0.0
C1558 C 0.11176 0.48934 0.99904 0.0
C1559 C 0.13715 0.43641 0.97415 0.0
C1560 C 0.16418 0.44738 0.9725 0.0
C1561 C 0.12492 0.41225 0.96082 0.0
C1562 C 0.09635 0.40033 0.95872 0.0
C1563 C 0.08059 0.41435 0.94406 0.0
C1564 C 0.05365 0.40321 0.94267 0.0
C1565 C 0.04226 0.37798 0.95565 0.0
C1566 C 0.05778 0.3638 0.96994 0.0
C1567 C 0.08472 0.37486 0.97142 0.0
H1568 H 1.0214 0.3694 0.95459 0.0
H1569 H 0.28089 0.48444 0.94934 0.0
H1570 H 0.73874 0.24698 0.85987 0.0
H1571 H 0.70761 0.21081 0.88749 0.0
H1572 H 0.68537 0.1727 0.80158 0.0
H1573 H 0.71974 0.2069 0.77549 0.0
H1574 H 0.66183 0.20201 0.87971 0.0
H1575 H 0.64062 0.1107 0.81195 0.0
H1576 H 0.66163 0.08532 0.78596 0.0
H1577 H 0.73189 0.1174 0.84068 0.0
H1578 H 0.71153 0.14351 0.86709 0.0
H1579 H 0.5352 0.11572 0.89909 0.0
H1580 H 0.5745 0.13968 0.87178 0.0
H1581 H 0.6182 0.10056 0.93377 0.0
H1582 H 0.57918 0.07674 0.96134 0.0
H1583 H 0.63108 0.10713 0.86987 0.0
H1584 H 0.61697 0.15422 0.95124 0.0
H1585 H 0.59089 0.17389 0.97821 0.0
H1586 H 0.59035 0.22675 0.89783 0.0
H1587 H 0.61555 0.20665 0.86983 0.0
C1588 C 0.72901 0.2297 0.84776 0.0
C1589 C 0.73326 0.2288 0.81631 0.0
C1590 C 0.71044 0.20929 0.86322 0.0
C1591 C 0.69408 0.18843 0.84687 0.0
C1592 C 0.69834 0.1876 0.81529 0.0
C1593 C 0.71793 0.20738 0.80028 0.0
C1594 C 0.67034 0.17033 0.86143 0.0
C1595 C 0.65551 0.18124 0.87765 0.0
C1596 C 0.66115 0.14312 0.85824 0.0
C1597 C 0.67464 0.12941 0.84117 0.0
C1598 C 0.66069 0.1126 0.81835 0.0
C1599 C 0.67249 0.0981 0.80356 0.0
C1600 C 0.69826 0.10014 0.81144 0.0
C1601 C 0.7122 0.11655 0.83423 0.0
C1602 C 0.70057 0.13126 0.84905 0.0
C1603 C 0.55308 0.11187 0.9065 0.0
C1604 C 0.55423 0.09461 0.93255 0.0
C1605 C 0.57547 0.12559 0.89094 0.0
C1606 C 0.5992 0.12201 0.90105 0.0
C1607 C 0.60005 0.10357 0.92573 0.0
C1608 C 0.57779 0.09013 0.94153 0.0
C1609 C 0.62354 0.13902 0.88779 0.0
C1610 C 0.63804 0.12794 0.87184 0.0
C1611 C 0.63241 0.16599 0.89101 0.0
C1612 C 0.61789 0.17865 0.90822 0.0
C1613 C 0.61097 0.16976 0.93908 0.0
C1614 C 0.59627 0.18095 0.95455 0.0
C1615 C 0.58887 0.20149 0.93969 0.0
C1616 C 0.59608 0.21081 0.9093 0.0
C1617 C 0.6105 0.19946 0.89357 0.0
H1618 H 0.57766 0.21026 0.9518 0.0
H1619 H 0.7074 0.08884 0.80008 0.0
H1620 H 0.79095 0.70065 0.83509 0.0
H1621 H 0.81752 0.68097 0.87 0.0
H1622 H 0.87613 0.75556 0.87665 0.0
H1623 H 0.8498 0.77518 0.83911 0.0
H1624 H 0.90194 0.72465 0.88055 0.0
H1625 H 0.83038 0.71503 0.94241 0.0
H1626 H 0.7849 0.70317 0.95639 0.0
H1627 H 0.77221 0.62415 0.93774 0.0
H1628 H 0.81764 0.63544 0.92398 0.0
H1629 H 0.96666 0.66556 0.00912 0.0
H1630 H 0.94269 0.69191 0.97849 0.0
H1631 H 0.88637 0.62234 0.94663 0.0
H1632 H 0.91025 0.59629 0.97647 0.0
H1633 H 0.86101 0.6542 0.95961 0.0
H1634 H 0.93481 0.66582 0.89918 0.0
H1635 H 0.98136 0.67882 0.89009 0.0
H1636 H 0.99071 0.75673 0.91074 0.0
H1637 H 0.94425 0.74409 0.92036 0.0
C1638 C 0.80936 0.71321 0.84411 0.0
C1639 C 0.81741 0.73996 0.83428 0.0
C1640 C 0.82475 0.70174 0.86484 0.0
C1641 C 0.84915 0.71632 0.87789 0.0
C1642 C 0.85753 0.74324 0.86789 0.0
C1643 C 0.84213 0.75476 0.84644 0.0
C1644 C 0.86566 0.70311 0.90065 0.0
C1645 C 0.89275 0.70961 0.89812 0.0
C1646 C 0.85472 0.68292 0.92412 0.0
C1647 C 0.82732 0.67614 0.93188 0.0
C1648 C 0.81783 0.69516 0.94111 0.0
C1649 C 0.79209 0.68853 0.94906 0.0
C1650 C 0.77565 0.66299 0.94772 0.0
C1651 C 0.78495 0.64395 0.93868 0.0
C1652 C 0.81071 0.65042 0.93095 0.0
C1653 C 0.94906 0.65576 0.99586 0.0
C1654 C 0.94076 0.62834 0.99586 0.0
C1655 C 0.93528 0.67103 0.97785 0.0
C1656 C 0.91231 0.65962 0.95932 0.0
C1657 C 0.90376 0.63225 0.96019 0.0
C1658 C 0.91768 0.61714 0.97759 0.0
C1659 C 0.89702 0.67553 0.93918 0.0
C1660 C 0.87013 0.66942 0.94216 0.0
C1661 C 0.90826 0.69632 0.91667 0.0
C1662 C 0.93612 0.70394 0.91083 0.0
C1663 C 0.94683 0.68567 0.90203 0.0
C1664 C 0.97319 0.69298 0.89674 0.0
C1665 C 0.989 0.71856 0.89993 0.0
C1666 C 0.97845 0.73691 0.90833 0.0
C1667 C 0.95211 0.72969 0.91369 0.0
H1668 H 1.0094 0.72419 0.89581 0.0
H1669 H 0.75573 0.65792 0.95382 0.0
H1670 H 0.19343 0.30057 0.2412 0.0
H1671 H 0.1658 0.32488 0.21409 0.0
H1672 H 0.23082 0.39472 0.21339 0.0
H1673 H 0.25855 0.37016 0.2383 0.0
H1674 H 0.1889 0.40786 0.22986 0.0
H1675 H 0.19786 0.37078 0.13461 0.0
H1676 H 0.19426 0.33857 0.09656 0.0
H1677 H 0.11568 0.29861 0.11983 0.0
H1678 H 0.11866 0.33102 0.15739 0.0
H1679 H 0.12535 0.49527 0.14696 0.0
H1680 H 0.15191 0.46873 0.16725 0.0
H1681 H 0.0942 0.40132 0.13273 0.0
H1682 H 0.06803 0.42876 0.11034 0.0
H1683 H 0.13148 0.38524 0.13479 0.0
H1684 H 0.12003 0.42504 0.22435 0.0
H1685 H 0.12121 0.46049 0.25644 0.0
H1686 H 0.20301 0.4944 0.24616 0.0
H1687 H 0.20227 0.45927 0.21377 0.0
C1688 C 0.20254 0.32082 0.23398 0.0
C1689 C 0.22985 0.33201 0.24082 0.0
C1690 C 0.18613 0.33532 0.21843 0.0
C1691 C 0.19506 0.36278 0.21014 0.0
C1692 C 0.22206 0.37401 0.21815 0.0
C1693 C 0.23851 0.3594 0.2326 0.0
C1694 C 0.17688 0.37978 0.19538 0.0
C1695 C 0.17667 0.40262 0.20881 0.0
C1696 C 0.15939 0.37433 0.16806 0.0
C1697 C 0.15862 0.35301 0.14909 0.0
C1698 C 0.17996 0.35488 0.13192 0.0
C1699 C 0.1779 0.33684 0.11011 0.0
C1700 C 0.15472 0.31661 0.10569 0.0
C1701 C 0.1336 0.31431 0.12322 0.0
C1702 C 0.13543 0.33255 0.14468 0.0
C1703 C 0.11778 0.47477 0.14336 0.0
C1704 C 0.09337 0.46533 0.12628 0.0
C1705 C 0.1334 0.45883 0.156 0.0
C1706 C 0.12601 0.43135 0.15394 0.0
C1707 C 0.10172 0.42183 0.13619 0.0
C1708 C 0.08617 0.43802 0.12293 0.0
C1709 C 0.14332 0.41344 0.16929 0.0
C1710 C 0.14348 0.39048 0.15599 0.0
C1711 C 0.16049 0.41855 0.1971 0.0
C1712 C 0.16103 0.43971 0.21638 0.0
C1713 C 0.13824 0.44014 0.22882 0.0
C1714 C 0.13883 0.46016 0.24706 0.0
C1715 C 0.16215 0.47973 0.25325 0.0
C1716 C 0.18495 0.47927 0.24129 0.0
C1717 C 0.18446 0.4593 0.223 0.0
H1718 H 0.16257 0.49521 0.26738 0.0
H1719 H 0.1532 0.30263 0.08886 0.0
H1720 H 0.2478 0.75304 0.88729 0.0
H1721 H 0.211 0.72567 0.9167 0.0
H1722 H 0.18344 0.67841 0.83834 0.0
H1723 H 0.21942 0.70712 0.80832 0.0
H1724 H 0.14378 0.68003 0.85939 0.0
H1725 H 0.2151 0.65957 0.91759 0.0
H1726 H 0.25669 0.66786 0.94845 0.0
H1727 H 0.23023 0.70654 0.01416 0.0
H1728 H 0.18825 0.698 0.98413 0.0
H1729 H 0.08171 0.58064 0.00266 0.0
H1730 H 0.11943 0.60523 0.97238 0.0
H1731 H 0.07973 0.65878 0.93494 0.0
H1732 H 0.04217 0.63416 0.96399 0.0
H1733 H 0.15331 0.65098 0.97113 0.0
H1734 H 0.09967 0.68835 0.86479 0.0
H1735 H 0.05801 0.67417 0.83413 0.0
H1736 H 0.05048 0.59457 0.86162 0.0
H1737 H 0.09223 0.60825 0.89212 0.0
C1738 C 0.23372 0.73693 0.87624 0.0
C1739 C 0.23622 0.73294 0.84497 0.0
C1740 C 0.2127 0.72083 0.89337 0.0
C1741 C 0.194 0.69919 0.88047 0.0
C1742 C 0.19704 0.69483 0.84934 0.0
C1743 C 0.21773 0.71138 0.83194 0.0
C1744 C 0.17109 0.68166 0.89878 0.0
C1745 C 0.14612 0.67375 0.88381 0.0
C1746 C 0.17332 0.67274 0.93082 0.0
C1747 C 0.19869 0.67839 0.94845 0.0
C1748 C 0.21824 0.66999 0.93849 0.0
C1749 C 0.24186 0.6747 0.95584 0.0
C1750 C 0.24623 0.68797 0.98299 0.0
C1751 C 0.22687 0.69635 0.99305 0.0
C1752 C 0.20312 0.69146 0.97599 0.0
C1753 C 0.08082 0.59742 0.98763 0.0
C1754 C 0.05831 0.60487 0.98578 0.0
C1755 C 0.10264 0.61172 0.97034 0.0
C1756 C 0.10277 0.63395 0.95047 0.0
C1757 C 0.0804 0.6415 0.94904 0.0
C1758 C 0.05869 0.62724 0.96607 0.0
C1759 C 0.12613 0.64956 0.93175 0.0
C1760 C 0.15108 0.6572 0.94666 0.0
C1761 C 0.12397 0.65781 0.8995 0.0
C1762 C 0.09894 0.64936 0.88102 0.0
C1763 C 0.08916 0.66782 0.86422 0.0
C1764 C 0.06552 0.65987 0.84687 0.0
C1765 C 0.05157 0.63349 0.84602 0.0
C1766 C 0.06126 0.615 0.86241 0.0
C1767 C 0.08489 0.62284 0.87976 0.0
H1768 H 0.03327 0.62738 0.8326 0.0
H1769 H 0.26456 0.69161 0.99632 0.0
H1770 H 0.2926 0.21719 0.83833 0.0
H1771 H 0.31507 0.18993 0.86929 0.0
H1772 H 0.38538 0.25529 0.87135 0.0
H1773 H 0.36339 0.28174 0.83929 0.0
H1774 H 0.39775 0.21995 0.85368 0.0
H1775 H 0.35593 0.21773 0.95083 0.0
H1776 H 0.32138 0.21101 0.98725 0.0
H1777 H 0.27978 0.13765 0.95061 0.0
H1778 H 0.31448 0.14366 0.91457 0.0
H1779 H 0.47443 0.15703 0.95309 0.0
H1780 H 0.44882 0.18505 0.93305 0.0
H1781 H 0.38333 0.11769 0.91388 0.0
H1782 H 0.40885 0.0897 0.93332 0.0
H1783 H 0.3682 0.1528 0.94045 0.0
H1784 H 0.42028 0.1543 0.85506 0.0
H1785 H 0.46113 0.16095 0.83009 0.0
H1786 H 0.48809 0.24067 0.85197 0.0
H1787 H 0.44751 0.23441 0.87743 0.0
C1788 C 0.31264 0.22583 0.84621 0.0
C1789 C 0.32619 0.25169 0.83637 0.0
C1790 C 0.32558 0.21023 0.86408 0.0
C1791 C 0.35225 0.22026 0.8728 0.0
C1792 C 0.36503 0.24667 0.86478 0.0
C1793 C 0.35234 0.26197 0.84654 0.0
C1794 C 0.36777 0.20302 0.88635 0.0
C1795 C 0.39136 0.20572 0.87316 0.0
C1796 C 0.35963 0.18363 0.91112 0.0
C1797 C 0.33737 0.18143 0.92957 0.0
C1798 C 0.33915 0.20041 0.95017 0.0
C1799 C 0.31975 0.19656 0.97103 0.0
C1800 C 0.29835 0.17397 0.97113 0.0
C1801 C 0.29632 0.15517 0.95041 0.0
C1802 C 0.31588 0.15872 0.92988 0.0
C1803 C 0.45459 0.1482 0.94461 0.0
C1804 C 0.44389 0.12107 0.94457 0.0
C1805 C 0.43987 0.16427 0.93311 0.0
C1806 C 0.41402 0.15362 0.92161 0.0
C1807 C 0.40316 0.12652 0.92243 0.0
C1808 C 0.41792 0.1105 0.93347 0.0
C1809 C 0.39826 0.17048 0.90843 0.0
C1810 C 0.37449 0.16727 0.92114 0.0
C1811 C 0.40667 0.18997 0.88393 0.0
C1812 C 0.43097 0.19382 0.8684 0.0
C1813 C 0.435 0.1732 0.85473 0.0
C1814 C 0.45809 0.17691 0.84046 0.0
C1815 C 0.47722 0.2012 0.83951 0.0
C1816 C 0.47327 0.22186 0.85276 0.0
C1817 C 0.45022 0.21825 0.86708 0.0
H1818 H 0.49509 0.20403 0.82846 0.0
H1819 H 0.28331 0.17104 0.98723 0.0
H1820 H 0.81218 0.35666 0.83945 0.0
H1821 H 0.83963 0.38715 0.87613 0.0
H1822 H 0.8939 0.34449 0.88542 0.0
H1823 H 0.86614 0.31356 0.84973 0.0
H1824 H 0.89065 0.35676 0.93972 0.0
H1825 H 0.9029 0.40833 0.8417 0.0
H1826 H 0.88874 0.42851 0.79281 0.0
H1827 H 0.85444 0.47035 0.8456 0.0
H1828 H 0.86808 0.45013 0.8948 0.0
H1829 H 0.9945 0.44777 0.01984 0.0
H1830 H 0.96529 0.41844 0.98404 0.0
H1831 H 0.91728 0.46776 0.97137 0.0
H1832 H 0.94782 0.49833 0.00586 0.0
H1833 H 0.91587 0.45219 0.91912 0.0
H1834 H 0.89647 0.39488 0.01559 0.0
H1835 H 0.90546 0.37027 0.06393 0.0
H1836 H 0.95233 0.33946 0.01422 0.0
H1837 H 0.94253 0.36284 0.96528 0.0
C1838 C 0.82999 0.35374 0.84917 0.0
C1839 C 0.83667 0.33235 0.84123 0.0
C1840 C 0.84595 0.37146 0.87019 0.0
C1841 C 0.86947 0.3688 0.88373 0.0
C1842 C 0.87607 0.34741 0.87573 0.0
C1843 C 0.86005 0.32959 0.855 0.0
C1844 C 0.88689 0.38759 0.90666 0.0
C1845 C 0.89633 0.37763 0.93481 0.0
C1846 C 0.89416 0.41508 0.90144 0.0
C1847 C 0.88631 0.42754 0.87192 0.0
C1848 C 0.89222 0.42174 0.84287 0.0
C1849 C 0.88429 0.43318 0.81511 0.0
C1850 C 0.87065 0.45066 0.8161 0.0
C1851 C 0.86498 0.45679 0.84486 0.0
C1852 C 0.87282 0.44536 0.8727 0.0
C1853 C 0.97764 0.45244 0.00977 0.0
C1854 C 0.97378 0.4757 0.01629 0.0
C1855 C 0.96046 0.4352 0.98928 0.0
C1856 C 0.93806 0.43988 0.97503 0.0
C1857 C 0.93409 0.46312 0.98169 0.0
C1858 C 0.95166 0.48075 1.00171 0.0
C1859 C 0.91969 0.42134 0.95234 0.0
C1860 C 0.91012 0.43134 0.92414 0.0
C1861 C 0.91216 0.39382 0.95747 0.0
C1862 C 0.91911 0.38087 0.98701 0.0
C1863 C 0.90884 0.38299 0.01508 0.0
C1864 C 0.91394 0.36914 0.04251 0.0
C1865 C 0.92979 0.35366 0.04227 0.0
C1866 C 0.94019 0.35159 0.01444 0.0
C1867 C 0.93465 0.3649 0.9868 0.0
H1868 H 0.93384 0.34311 0.06359 0.0
H1869 H 0.86451 0.45948 0.79458 0.0
H1870 H 0.75513 0.91827 0.89891 0.0
H1871 H 0.72675 0.94173 0.91246 0.0
H1872 H 0.66337 0.86984 0.91892 0.0
H1873 H 0.6916 0.84656 0.90393 0.0
H1874 H 0.64537 0.90576 0.89475 0.0
H1875 H 0.70386 0.90052 0.98141 0.0
H1876 H 0.74568 0.90693 0.01103 0.0
H1877 H 0.76193 0.98944 0.99972 0.0
H1878 H 0.72076 0.98362 0.96879 0.0
H1879 H 0.56476 0.94453 0.98531 0.0
H1880 H 0.59444 0.92415 0.96855 0.0
H1881 H 0.65253 0.99911 0.95538 0.0
H1882 H 0.62285 0.01978 0.97281 0.0
H1883 H 0.67357 0.96305 0.98248 0.0
H1884 H 0.61673 0.96812 0.89266 0.0
H1885 H 0.57432 0.96163 0.86427 0.0
H1886 H 0.55463 0.87929 0.88461 0.0
H1887 H 0.59679 0.88532 0.91352 0.0
C1888 C 0.73501 0.90757 0.90271 0.0
C1889 C 0.72557 0.88058 0.90034 0.0
C1890 C 0.71882 0.92096 0.91077 0.0
C1891 C 0.69295 0.90759 0.91758 0.0
C1892 C 0.68323 0.88072 0.91396 0.0
C1893 C 0.69933 0.86738 0.90529 0.0
C1894 C 0.67618 0.92142 0.92899 0.0
C1895 C 0.65156 0.91805 0.91415 0.0
C1896 C 0.68428 0.9381 0.95396 0.0
C1897 C 0.70927 0.94161 0.97231 0.0
C1898 C 0.7165 0.92007 0.98476 0.0
C1899 C 0.74013 0.9236 1.0018 0.0
C1900 C 0.75645 0.94857 0.00726 0.0
C1901 C 0.74928 0.97009 0.99546 0.0
C1902 C 0.72585 0.96668 0.97803 0.0
C1903 C 0.58377 0.95682 0.97866 0.0
C1904 C 0.59121 0.98392 0.97993 0.0
C1905 C 0.60077 0.94506 0.96905 0.0
C1906 C 0.6256 0.96006 0.95999 0.0
C1907 C 0.63341 0.98709 0.96197 0.0
C1908 C 0.61637 0.99892 0.97177 0.0
C1909 C 0.64309 0.94742 0.94805 0.0
C1910 C 0.6677 0.95096 0.96286 0.0
C1911 C 0.63507 0.93089 0.92313 0.0
C1912 C 0.60984 0.92719 0.90545 0.0
C1913 C 0.60329 0.94864 0.89123 0.0
C1914 C 0.57931 0.94505 0.87504 0.0
C1915 C 0.56177 0.92007 0.87269 0.0
C1916 C 0.56822 0.89863 0.88647 0.0
C1917 C 0.59217 0.90212 0.90273 0.0
H1918 H 0.54321 0.91733 0.86016 0.0
H1919 H 0.77463 0.95124 0.02066 0.0
H1920 H 0.77913 0.70785 0.22865 0.0
H1921 H 0.80409 0.68689 0.20247 0.0
H1922 H 0.87375 0.74903 0.22333 0.0
H1923 H 0.84835 0.77023 0.24978 0.0
H1924 H 0.88212 0.73444 0.16906 0.0
H1925 H 0.85286 0.67886 0.26066 0.0
H1926 H 0.82108 0.65163 0.29761 0.0
H1927 H 0.78146 0.6028 0.22451 0.0
H1928 H 0.81283 0.62994 0.18702 0.0
H1929 H 0.96679 0.66573 0.12584 0.0
H1930 H 0.94222 0.68777 0.15081 0.0
H1931 H 0.8728 0.62358 0.13659 0.0
H1932 H 0.89784 0.60106 0.11193 0.0
H1933 H 0.86429 0.63959 0.18731 0.0
H1934 H 0.89254 0.69455 0.09557 0.0
H1935 H 0.92334 0.72178 0.05758 0.0
H1936 H 0.96376 0.7717 0.12936 0.0
H1937 H 0.93338 0.74456 0.16788 0.0
C1938 C 0.79978 0.71752 0.22769 0.0
C1939 C 0.81073 0.74176 0.24139 0.0
C1940 C 0.81454 0.705 0.2126 0.0
C1941 C 0.8419 0.71521 0.21034 0.0
C1942 C 0.85304 0.73967 0.22386 0.0
C1943 C 0.83814 0.75225 0.23922 0.0
C1944 C 0.85818 0.70049 0.19445 0.0
C1945 C 0.87817 0.71372 0.17379 0.0
C1946 C 0.85386 0.67296 0.19855 0.0
C1947 C 0.83504 0.65658 0.22098 0.0
C1948 C 0.83727 0.66241 0.25243 0.0
C1949 C 0.81935 0.64698 0.27347 0.0
C1950 C 0.79923 0.62554 0.26339 0.0
C1951 C 0.79703 0.61944 0.23227 0.0
C1952 C 0.81489 0.63482 0.21112 0.0
C1953 C 0.94624 0.65595 0.12762 0.0
C1954 C 0.93516 0.63091 0.11583 0.0
C1955 C 0.93167 0.66911 0.14211 0.0
C1956 C 0.90447 0.6586 0.146 0.0
C1957 C 0.89334 0.63331 0.1346 0.0
C1958 C 0.90801 0.62007 0.12 0.0
C1959 C 0.88832 0.67351 0.1619 0.0
C1960 C 0.86832 0.6603 0.18257 0.0
C1961 C 0.89253 0.70104 0.15765 0.0
C1962 C 0.91086 0.71735 0.13467 0.0
C1963 C 0.90811 0.71123 0.10329 0.0
C1964 C 0.92548 0.72666 0.08166 0.0
C1965 C 0.94554 0.74842 0.09108 0.0
C1966 C 0.94824 0.75482 0.12213 0.0
C1967 C 0.93095 0.73942 0.14386 0.0
H1968 H 0.95897 0.76035 0.0743 0.0
H1969 H 0.78537 0.61362 0.27972 0.0
H1970 H 0.35375 0.84143 0.26703 0.0
H1971 H 0.38354 0.88024 0.24129 0.0
H1972 H 0.34072 0.86139 0.15322 0.0
H1973 H 0.31234 0.82141 0.17875 0.0
H1974 H 0.38656 0.87449 0.14191 0.0
H1975 H 0.35363 0.94236 0.18947 0.0
H1976 H 0.34193 0.96178 0.23316 0.0
H1977 H 0.40149 0.94351 0.29269 0.0
H1978 H 0.41357 0.92422 0.24917 0.0
H1979 H 0.45157 0.99472 0.05678 0.0
H1980 H 0.41803 0.95982 0.08408 0.0
H1981 H 0.4676 0.96873 0.16832 0.0
H1982 H 0.50109 1.0034 0.14124 0.0
H1983 H 0.4184 0.96226 0.18108 0.0
H1984 H 0.46157 0.92016 0.1223 0.0
H1985 H 0.47762 0.90892 0.07557 0.0
H1986 H 0.4 0.88166 0.03523 0.0
H1987 H 0.38349 0.89307 0.08157 0.0
C1988 C 0.35045 0.84596 0.24228 0.0
C1989 C 0.33017 0.82885 0.22507 0.0
C1990 C 0.36735 0.86851 0.22752 0.0
C1991 C 0.36422 0.87483 0.19519 0.0
C1992 C 0.34378 0.85749 0.17814 0.0
C1993 C 0.32733 0.83463 0.19276 0.0
C1994 C 0.38351 0.89765 0.1784 0.0
C1995 C 0.39298 0.89373 0.15039 0.0
C1996 C 0.3931 0.92297 0.18933 0.0
C1997 C 0.38346 0.93055 0.21667 0.0
C1998 C 0.36364 0.9418 0.21218 0.0
C1999 C 0.35725 0.95317 0.23673 0.0
C2000 C 0.37088 0.95375 0.26572 0.0
C2001 C 0.39083 0.94287 0.27028 0.0
C2002 C 0.39735 0.93161 0.24573 0.0
C2003 C 0.45509 0.98966 0.08131 0.0
C2004 C 0.47902 1.00207 0.09684 0.0
C2005 C 0.43601 0.96942 0.09681 0.0
C2006 C 0.44034 0.96129 0.12824 0.0
C2007 C 0.46374 0.97448 0.14409 0.0
C2008 C 0.48289 0.99442 0.12857 0.0
C2009 C 0.42078 0.93897 0.14475 0.0
C2010 C 0.41153 0.94299 0.17258 0.0
C2011 C 0.41139 0.91387 0.13359 0.0
C2012 C 0.42132 0.90768 0.10531 0.0
C2013 C 0.44795 0.91205 0.10332 0.0
C2014 C 0.45712 0.90557 0.07694 0.0
C2015 C 0.43983 0.89451 0.05251 0.0
C2016 C 0.41335 0.89016 0.05422 0.0
C2017 C 0.40408 0.89663 0.08054 0.0
H2018 H 0.44695 0.88917 0.03234 0.0
H2019 H 0.36602 0.96271 0.28464 0.0
H2020 H 0.68822 0.26959 0.2197 0.0
H2021 H 0.65661 0.242 0.18389 0.0
H2022 H 0.71829 0.23733 0.13114 0.0
H2023 H 0.75013 0.26468 0.16738 0.0
H2024 H 0.67537 0.24129 0.09297 0.0
H2025 H 0.69523 0.18967 0.17815 0.0
H2026 H 0.70196 0.17231 0.23199 0.0
H2027 H 0.62202 0.1582 0.24818 0.0
H2028 H 0.61489 0.17598 0.19456 0.0
H2029 H 0.57914 0.09844 0.0734 0.0
H2030 H 0.61613 0.12963 0.09888 0.0
H2031 H 0.59027 0.19238 0.05677 0.0
H2032 H 0.55353 0.16124 0.0305 0.0
H2033 H 0.61862 0.1584 0.14132 0.0
H2034 H 0.63749 0.24817 0.05105 0.0
H2035 H 0.64066 0.25885 0.99413 0.0
H2036 H 0.65651 0.18816 0.98437 0.0
H2037 H 0.65291 0.17685 0.04105 0.0
C2038 C 0.69523 0.26283 0.20051 0.0
C2039 C 0.72198 0.26823 0.19757 0.0
C2040 C 0.67701 0.24701 0.17996 0.0
C2041 C 0.68503 0.23694 0.15529 0.0
C2042 C 0.71159 0.24444 0.15035 0.0
C2043 C 0.72985 0.25987 0.17131 0.0
C2044 C 0.66571 0.21757 0.13588 0.0
C2045 C 0.6628 0.22325 0.10354 0.0
C2046 C 0.65009 0.19345 0.14936 0.0
C2047 C 0.65459 0.18447 0.18238 0.0
C2048 C 0.67917 0.1833 0.19333 0.0
C2049 C 0.68302 0.17319 0.22374 0.0
C2050 C 0.66237 0.16391 0.24336 0.0
C2051 C 0.63793 0.16516 0.23283 0.0
C2052 C 0.634 0.17534 0.20246 0.0
C2053 C 0.58139 0.11889 0.06927 0.0
C2054 C 0.56311 0.1272 0.05 0.0
C2055 C 0.60263 0.1368 0.08396 0.0
C2056 C 0.60625 0.16357 0.07992 0.0
C2057 C 0.58835 0.17198 0.06005 0.0
C2058 C 0.56714 0.15405 0.04515 0.0
C2059 C 0.62756 0.18229 0.09827 0.0
C2060 C 0.63088 0.17654 0.13061 0.0
C2061 C 0.64436 0.20572 0.08451 0.0
C2062 C 0.64468 0.21157 0.0502 0.0
C2063 C 0.64142 0.23482 0.03667 0.0
C2064 C 0.64327 0.24097 0.00446 0.0
C2065 C 0.64877 0.22419 0.98564 0.0
C2066 C 0.65212 0.20108 0.99894 0.0
C2067 C 0.64994 0.19468 0.03105 0.0
H2068 H 0.65038 0.22906 0.96075 0.0
H2069 H 0.6654 0.15596 0.26678 0.0
H2070 H 0.69462 0.72616 0.76167 0.0
H2071 H 0.65543 0.69249 0.77984 0.0
H2072 H 0.69064 0.69326 0.87335 0.0
H2073 H 0.72952 0.72697 0.85565 0.0
H2074 H 0.66563 0.64186 0.8486 0.0
H2075 H 0.65157 0.72488 0.85993 0.0
H2076 H 0.64746 0.76685 0.83819 0.0
H2077 H 0.58558 0.7276 0.77449 0.0
H2078 H 0.5896 0.68539 0.79561 0.0
H2079 H 0.58267 0.59482 0.96832 0.0
H2080 H 0.61403 0.61888 0.93062 0.0
H2081 H 0.55224 0.61748 0.86093 0.0
H2082 H 0.52039 0.59383 0.89914 0.0
H2083 H 0.58589 0.66382 0.85996 0.0
H2084 H 0.59246 0.58063 0.85559 0.0
H2085 H 0.59618 0.53779 0.87383 0.0
H2086 H 0.67047 0.57432 0.91888 0.0
H2087 H 0.66706 0.61741 0.90141 0.0
C2088 C 0.69397 0.71911 0.78609 0.0
C2089 C 0.71507 0.72924 0.80731 0.0
C2090 C 0.67164 0.69992 0.79636 0.0
C2091 C 0.67033 0.69046 0.82785 0.0
C2092 C 0.69145 0.70031 0.84892 0.0
C2093 C 0.71355 0.71971 0.83881 0.0
C2094 C 0.64675 0.67087 0.83958 0.0
C2095 C 0.64811 0.6465 0.85115 0.0
C2096 C 0.62365 0.67672 0.84143 0.0
C2097 C 0.6211 0.70205 0.82906 0.0
C2098 C 0.63724 0.72523 0.84111 0.0
C2099 C 0.6349 0.74905 0.82894 0.0
C2100 C 0.61633 0.7499 0.8049 0.0
C2101 C 0.6 0.72692 0.79306 0.0
C2102 C 0.60229 0.70304 0.80512 0.0
C2103 C 0.57564 0.59943 0.94494 0.0
C2104 C 0.549 0.59238 0.93673 0.0
C2105 C 0.59366 0.61304 0.92328 0.0
C2106 C 0.58553 0.6195 0.89271 0.0
C2107 C 0.55894 0.61252 0.88433 0.0
C2108 C 0.54079 0.59906 0.90619 0.0
C2109 C 0.60505 0.63497 0.8705 0.0
C2110 C 0.60299 0.65864 0.85681 0.0
C2111 C 0.62737 0.62823 0.86621 0.0
C2112 C 0.62945 0.60232 0.87721 0.0
C2113 C 0.60951 0.57957 0.8696 0.0
C2114 C 0.61158 0.55522 0.87978 0.0
C2115 C 0.63356 0.55336 0.89745 0.0
C2116 C 0.65348 0.57581 0.90513 0.0
C2117 C 0.6515 0.60021 0.89505 0.0
H2118 H 0.63523 0.53451 0.90505 0.0
H2119 H 0.61454 0.76836 0.7955 0.0
H2120 H 0.30368 0.70587 0.90373 0.0
H2121 H 0.33342 0.70084 0.94775 0.0
H2122 H 0.3019 0.61764 0.94553 0.0
H2123 H 0.2723 0.62253 0.90175 0.0
H2124 H 0.3184 0.63058 0.00394 0.0
H2125 H 0.34935 0.65305 0.8994 0.0
H2126 H 0.36046 0.68019 0.85019 0.0
H2127 H 0.41281 0.74168 0.90123 0.0
H2128 H 0.40135 0.71516 0.9509 0.0
H2129 H 0.40472 0.56549 0.99031 0.0
H2130 H 0.37313 0.58755 0.99273 0.0
H2131 H 0.43409 0.65721 0.01695 0.0
H2132 H 0.46621 0.6351 0.01407 0.0
H2133 H 0.40684 0.6647 0.96497 0.0
H2134 H 0.38356 0.62828 0.06747 0.0
H2135 H 0.37166 0.59474 0.11133 0.0
H2136 H 0.30533 0.551 0.05706 0.0
H2137 H 0.31647 0.58421 0.01303 0.0
C2138 C 0.30277 0.68652 0.91314 0.0
C2139 C 0.28618 0.66457 0.89888 0.0
C2140 C 0.31959 0.68369 0.93841 0.0
C2141 C 0.3202 0.6589 0.94944 0.0
C2142 C 0.30175 0.63696 0.93736 0.0
C2143 C 0.28487 0.63977 0.91224 0.0
C2144 C 0.34254 0.65548 0.969 0.0
C2145 C 0.33786 0.6382 0.99577 0.0
C2146 C 0.36802 0.66597 0.9586 0.0
C2147 C 0.37412 0.68234 0.9289 0.0
C2148 C 0.3629 0.67252 0.90018 0.0
C2149 C 0.3693 0.68776 0.8722 0.0
C2150 C 0.38732 0.71264 0.87258 0.0
C2151 C 0.39882 0.72242 0.90098 0.0
C2152 C 0.39227 0.70735 0.92907 0.0
C2153 C 0.41147 0.58539 0.99661 0.0
C2154 C 0.43801 0.59877 1.00126 0.0
C2155 C 0.39327 0.59787 0.9986 0.0
C2156 C 0.40117 0.62397 0.00541 0.0
C2157 C 0.42757 0.63698 0.01194 0.0
C2158 C 0.44589 0.62441 0.01002 0.0
C2159 C 0.38249 0.63846 0.99891 0.0
C2160 C 0.38781 0.65799 0.97443 0.0
C2161 C 0.35743 0.62915 0.01063 0.0
C2162 C 0.35083 0.60889 0.03698 0.0
C2163 C 0.36646 0.61149 0.06487 0.0
C2164 C 0.35986 0.59255 0.08975 0.0
C2165 C 0.33788 0.57078 0.08694 0.0
C2166 C 0.32234 0.56791 0.05925 0.0
C2167 C 0.32869 0.58687 0.03439 0.0
H2168 H 0.33288 0.55615 0.10624 0.0
H2169 H 0.3924 0.72433 0.85086 0.0
H2170 H 0.36061 0.32383 0.81908 0.0
H2171 H 0.39227 0.35768 0.848 0.0
H2172 H 0.34948 0.41034 0.81835 0.0
H2173 H 0.31715 0.37591 0.78994 0.0
H2174 H 0.41282 0.42928 0.82403 0.0
H2175 H 0.33334 0.39138 0.8766 0.0
H2176 H 0.29572 0.35571 0.89562 0.0
H2177 H 0.34636 0.3213 0.95145 0.0
H2178 H 0.38437 0.35627 0.93179 0.0
H2179 H 0.46581 0.50908 0.94973 0.0
H2180 H 0.4337 0.48335 0.91295 0.0
H2181 H 0.45437 0.41553 0.94686 0.0
H2182 H 0.48698 0.44123 0.98384 0.0
H2183 H 0.39957 0.40748 0.9375 0.0
H2184 H 0.47883 0.44533 0.88354 0.0
H2185 H 0.51627 0.48174 0.86538 0.0
H2186 H 0.46509 0.51783 0.81355 0.0
H2187 H 0.42731 0.48179 0.83183 0.0
C2188 C 0.35858 0.34295 0.81779 0.0
C2189 C 0.33683 0.34758 0.8023 0.0
C2190 C 0.37652 0.36216 0.83433 0.0
C2191 C 0.37294 0.38626 0.8354 0.0
C2192 C 0.35246 0.39178 0.81757 0.0
C2193 C 0.33419 0.37229 0.80129 0.0
C2194 C 0.38859 0.40385 0.85859 0.0
C2195 C 0.40968 0.42493 0.8488 0.0
C2196 C 0.38456 0.39767 0.89085 0.0
C2197 C 0.36175 0.37624 0.90224 0.0
C2198 C 0.3365 0.37593 0.8924 0.0
C2199 C 0.31508 0.35585 0.90335 0.0
C2200 C 0.31863 0.33613 0.92455 0.0
C2201 C 0.34363 0.33649 0.93486 0.0
C2202 C 0.36512 0.35639 0.92373 0.0
C2203 C 0.46348 0.48864 0.94965 0.0
C2204 C 0.47914 0.47721 0.96955 0.0
C2205 C 0.44512 0.47402 0.92855 0.0
C2206 C 0.44197 0.44772 0.92705 0.0
C2207 C 0.45669 0.4359 0.94773 0.0
C2208 C 0.47528 0.45058 0.96876 0.0
C2209 C 0.42397 0.43285 0.90302 0.0
C2210 C 0.40251 0.41212 0.91271 0.0
C2211 C 0.42754 0.43954 0.87071 0.0
C2212 C 0.45024 0.461 0.85932 0.0
C2213 C 0.47555 0.46113 0.86847 0.0
C2214 C 0.49684 0.48168 0.85812 0.0
C2215 C 0.49306 0.50212 0.83839 0.0
C2216 C 0.46799 0.502 0.82887 0.0
C2217 C 0.44663 0.48151 0.8392 0.0
H2218 H 0.50956 0.51803 0.83042 0.0
H2219 H 0.30203 0.32063 0.93306 0.0
H2220 H 0.67746 0.36056 0.81614 0.0
H2221 H 0.65458 0.37945 0.84874 0.0
H2222 H 0.71592 0.4527 0.84054 0.0
H2223 H 0.73874 0.43399 0.80756 0.0
H2224 H 0.69682 0.43365 0.90435 0.0
H2225 H 0.667 0.45046 0.79769 0.0
H2226 H 0.64869 0.43767 0.74513 0.0
H2227 H 0.58006 0.38483 0.78501 0.0
H2228 H 0.59814 0.39703 0.83787 0.0
H2229 H 0.62784 0.50947 0.96213 0.0
H2230 H 0.65508 0.49293 0.93311 0.0
H2231 H 0.5898 0.42498 0.91497 0.0
H2232 H 0.56251 0.44153 0.9432 0.0
H2233 H 0.61282 0.44345 0.86342 0.0
H2234 H 0.64015 0.4197 0.96668 0.0
H2235 H 0.65683 0.42434 0.02139 0.0
H2236 H 0.72637 0.48293 0.9918 0.0
H2237 H 0.71016 0.47832 0.93664 0.0
C2238 C 0.68613 0.38062 0.82154 0.0
C2239 C 0.70978 0.39588 0.8093 0.0
C2240 C 0.67305 0.39138 0.84002 0.0
C2241 C 0.68358 0.41746 0.84687 0.0
C2242 C 0.70754 0.43254 0.83546 0.0
C2243 C 0.72044 0.4219 0.81654 0.0
C2244 C 0.66906 0.42913 0.86512 0.0
C2245 C 0.67868 0.43628 0.89528 0.0
C2246 C 0.64502 0.43164 0.85355 0.0
C2247 C 0.63403 0.42449 0.82175 0.0
C2248 C 0.6481 0.43595 0.79527 0.0
C2249 C 0.63774 0.42884 0.76542 0.0
C2250 C 0.61325 0.41041 0.76173 0.0
C2251 C 0.59904 0.39909 0.7879 0.0
C2252 C 0.60932 0.40612 0.8178 0.0
C2253 C 0.61933 0.49101 0.95195 0.0
C2254 C 0.59296 0.47695 0.95472 0.0
C2255 C 0.63497 0.48147 0.93559 0.0
C2256 C 0.62451 0.45765 0.92191 0.0
C2257 C 0.59829 0.44346 0.92515 0.0
C2258 C 0.58271 0.45296 0.94139 0.0
C2259 C 0.64039 0.44789 0.903 0.0
C2260 C 0.63107 0.44113 0.87255 0.0
C2261 C 0.66438 0.44513 0.91462 0.0
C2262 C 0.67382 0.4489 0.94763 0.0
C2263 C 0.65888 0.43377 0.97186 0.0
C2264 C 0.66833 0.43628 0.00295 0.0
C2265 C 0.69261 0.45401 0.01016 0.0
C2266 C 0.70755 0.46922 0.9862 0.0
C2267 C 0.69829 0.46659 0.955 0.0
H2268 H 0.69986 0.45593 0.03429 0.0
H2269 H 0.60527 0.40492 0.7386 0.0
H2270 H 0.69004 0.37417 0.22723 0.0
H2271 H 0.66967 0.38375 0.17701 0.0
H2272 H 0.74212 0.44002 0.15031 0.0
H2273 H 0.76263 0.4304 0.20069 0.0
H2274 H 0.70444 0.46071 0.14737 0.0
H2275 H 0.71433 0.38612 0.10951 0.0
H2276 H 0.71249 0.3404 0.11096 0.0
H2277 H 0.62978 0.31589 0.11427 0.0
H2278 H 0.63111 0.36144 0.1134 0.0
H2279 H 0.63645 0.50431 0.02837 0.0
H2280 H 0.66694 0.48106 0.04575 0.0
H2281 H 0.60536 0.41896 0.08847 0.0
H2282 H 0.57456 0.4418 0.06975 0.0
H2283 H 0.64405 0.40116 0.07434 0.0
H2284 H 0.63608 0.47183 0.12836 0.0
H2285 H 0.63531 0.51651 0.13033 0.0
H2286 H 0.71309 0.54672 0.10031 0.0
H2287 H 0.71416 0.50213 0.09775 0.0
C2288 C 0.70178 0.38811 0.21034 0.0
C2289 C 0.7278 0.40186 0.21796 0.0
C2290 C 0.69017 0.39345 0.18156 0.0
C2291 C 0.70444 0.41246 0.15982 0.0
C2292 C 0.7308 0.42524 0.16676 0.0
C2293 C 0.7424 0.41996 0.1956 0.0
C2294 C 0.69081 0.42179 0.13249 0.0
C2295 C 0.69194 0.44784 0.13072 0.0
C2296 C 0.67384 0.40478 0.11146 0.0
C2297 C 0.67285 0.37728 0.11153 0.0
C2298 C 0.69574 0.371 0.11074 0.0
C2299 C 0.69479 0.34509 0.11145 0.0
C2300 C 0.67104 0.32525 0.11274 0.0
C2301 C 0.64817 0.33128 0.11325 0.0
C2302 C 0.64901 0.35716 0.1126 0.0
C2303 C 0.6293 0.48518 0.04031 0.0
C2304 C 0.60347 0.47494 0.04842 0.0
C2305 C 0.64667 0.47187 0.05014 0.0
C2306 C 0.63855 0.44867 0.06921 0.0
C2307 C 0.61206 0.43692 0.07396 0.0
C2308 C 0.59451 0.44999 0.06341 0.0
C2309 C 0.65779 0.43996 0.08948 0.0
C2310 C 0.65741 0.41412 0.09021 0.0
C2311 C 0.67533 0.45698 0.11004 0.0
C2312 C 0.67511 0.48374 0.11258 0.0
C2313 C 0.65299 0.48803 0.12214 0.0
C2314 C 0.65248 0.5133 0.12332 0.0
C2315 C 0.67411 0.53441 0.11535 0.0
C2316 C 0.69634 0.53032 0.1064 0.0
C2317 C 0.69692 0.50506 0.10509 0.0
H2318 H 0.67361 0.55394 0.11613 0.0
H2319 H 0.67035 0.3052 0.11333 0.0
H2320 H 0.70193 0.77011 0.2074 0.0
H2321 H 0.6681 0.74156 0.17449 0.0
H2322 H 0.67528 0.67487 0.23195 0.0
H2323 H 0.70933 0.70328 0.26465 0.0
H2324 H 0.68004 0.67246 0.16866 0.0
H2325 H 0.6223 0.69086 0.23429 0.0
H2326 H 0.60493 0.71929 0.26051 0.0
H2327 H 0.58673 0.75369 0.17139 0.0
H2328 H 0.60436 0.72573 0.14462 0.0
H2329 H 0.57711 0.57619 0.09719 0.0
H2330 H 0.60696 0.60489 0.13338 0.0
H2331 H 0.59089 0.67078 0.08351 0.0
H2332 H 0.56019 0.64197 0.04775 0.0
H2333 H 0.59049 0.6741 0.14346 0.0
H2334 H 0.64777 0.65658 0.07729 0.0
H2335 H 0.66711 0.63036 0.05002 0.0
H2336 H 0.68874 0.59712 0.13822 0.0
H2337 H 0.66884 0.62252 0.16598 0.0
C2338 C 0.69596 0.74939 0.21335 0.0
C2339 C 0.70813 0.73891 0.23879 0.0
C2340 C 0.67658 0.73313 0.19461 0.0
C2341 C 0.66917 0.70615 0.20091 0.0
C2342 C 0.68068 0.69569 0.22686 0.0
C2343 C 0.69993 0.71195 0.24576 0.0
C2344 C 0.65107 0.68883 0.17888 0.0
C2345 C 0.66028 0.67242 0.16349 0.0
C2346 C 0.62573 0.68968 0.17141 0.0
C2347 C 0.61487 0.70635 0.18746 0.0
C2348 C 0.61478 0.70462 0.22028 0.0
C2349 C 0.60485 0.72063 0.23524 0.0
C2350 C 0.59479 0.73833 0.21763 0.0
C2351 C 0.59455 0.73999 0.18501 0.0
C2352 C 0.60449 0.72405 0.16993 0.0
C2353 C 0.58007 0.59681 0.09371 0.0
C2354 C 0.56632 0.60683 0.06954 0.0
C2355 C 0.59721 0.61322 0.11441 0.0
C2356 C 0.60141 0.64005 0.11096 0.0
C2357 C 0.58794 0.65014 0.08663 0.0
C2358 C 0.5705 0.63368 0.06613 0.0
C2359 C 0.61936 0.65743 0.13326 0.0
C2360 C 0.61019 0.67397 0.14863 0.0
C2361 C 0.64492 0.65692 0.1405 0.0
C2362 C 0.65652 0.64126 0.12373 0.0
C2363 C 0.65633 0.64342 0.09087 0.0
C2364 C 0.66741 0.6287 0.07531 0.0
C2365 C 0.67902 0.61196 0.09236 0.0
C2366 C 0.67959 0.60994 0.125 0.0
C2367 C 0.66839 0.62447 0.14067 0.0
H2368 H 0.68765 0.60063 0.08028 0.0
H2369 H 0.58712 0.75072 0.22927 0.0
H2370 H 0.38884 0.72069 0.23837 0.0
H2371 H 0.39924 0.69819 0.19771 0.0
H2372 H 0.36214 0.62454 0.24735 0.0
H2373 H 0.35203 0.64715 0.28852 0.0
H2374 H 0.40683 0.62534 0.2318 0.0
H2375 H 0.33594 0.64267 0.1742 0.0
H2376 H 0.30749 0.66727 0.15105 0.0
H2377 H 0.37017 0.71928 0.09969 0.0
H2378 H 0.39897 0.69485 0.1223 0.0
H2379 H 0.43202 0.56156 0.10626 0.0
H2380 H 0.40736 0.57616 0.14141 0.0
H2381 H 0.45026 0.65582 0.11486 0.0
H2382 H 0.4752 0.64142 0.08027 0.0
H2383 H 0.39713 0.64691 0.11781 0.0
H2384 H 0.46781 0.62868 0.18055 0.0
H2385 H 0.49362 0.60071 0.20151 0.0
H2386 H 0.42645 0.54614 0.24252 0.0
H2387 H 0.40016 0.57366 0.22141 0.0
C2388 C 0.38246 0.69968 0.24033 0.0
C2389 C 0.36973 0.68567 0.26668 0.0
C2390 C 0.38832 0.6868 0.21698 0.0
C2391 C 0.38123 0.6596 0.21922 0.0
C2392 C 0.36783 0.64552 0.24511 0.0
C2393 C 0.36214 0.65844 0.26864 0.0
C2394 C 0.3899 0.64625 0.19597 0.0
C2395 C 0.40405 0.62953 0.20684 0.0
C2396 C 0.38669 0.65192 0.16338 0.0
C2397 C 0.36967 0.66706 0.15018 0.0
C2398 C 0.34372 0.65948 0.15817 0.0
C2399 C 0.32751 0.67334 0.14506 0.0
C2400 C 0.33706 0.69493 0.1241 0.0
C2401 C 0.36281 0.70259 0.11599 0.0
C2402 C 0.37905 0.68867 0.12883 0.0
C2403 C 0.43602 0.58217 0.10779 0.0
C2404 C 0.45571 0.60036 0.09089 0.0
C2405 C 0.42201 0.59046 0.1279 0.0
C2406 C 0.4272 0.61706 0.13089 0.0
C2407 C 0.44603 0.63522 0.11292 0.0
C2408 C 0.46034 0.62696 0.09333 0.0
C2409 C 0.41391 0.62615 0.1537 0.0
C2410 C 0.3992 0.64224 0.14274 0.0
C2411 C 0.41611 0.61944 0.18612 0.0
C2412 C 0.43197 0.60307 0.19912 0.0
C2413 C 0.45851 0.61063 0.19384 0.0
C2414 C 0.47323 0.59487 0.20578 0.0
C2415 C 0.46166 0.57162 0.22325 0.0
C2416 C 0.43537 0.56413 0.22893 0.0
C2417 C 0.42056 0.5798 0.21701 0.0
H2418 H 0.47308 0.55944 0.23246 0.0
H2419 H 0.32448 0.70567 0.11406 0.0
H2420 H 0.32351 0.37271 0.23959 0.0
H2421 H 0.35941 0.40508 0.21315 0.0
H2422 H 0.39245 0.34559 0.19951 0.0
H2423 H 0.35614 0.31287 0.22518 0.0
H2424 H 0.42541 0.40276 0.22856 0.0
H2425 H 0.3725 0.3551 0.14108 0.0
H2426 H 0.32984 0.3366 0.1138 0.0
H2427 H 0.31961 0.41159 0.10371 0.0
H2428 H 0.36203 0.43042 0.13148 0.0
H2429 H 0.52246 0.46538 0.12189 0.0
H2430 H 0.48881 0.43594 0.15407 0.0
H2431 H 0.43671 0.47837 0.11984 0.0
H2432 H 0.46997 0.50719 0.08666 0.0
H2433 H 0.41241 0.43028 0.1168 0.0
H2434 H 0.46408 0.4803 0.19691 0.0
H2435 H 0.50358 0.50198 0.22848 0.0
H2436 H 0.51379 0.42834 0.25699 0.0
H2437 H 0.47451 0.40624 0.22524 0.0
C2438 C 0.33846 0.36656 0.231 0.0
C2439 C 0.33711 0.34035 0.23424 0.0
C2440 C 0.35889 0.38502 0.21602 0.0
C2441 C 0.37843 0.37758 0.20463 0.0
C2442 C 0.37745 0.35154 0.20832 0.0
C2443 C 0.3567 0.33294 0.22271 0.0
C2444 C 0.39934 0.39699 0.18772 0.0
C2445 C 0.4229 0.40861 0.204 0.0
C2446 C 0.39532 0.40521 0.15621 0.0
C2447 C 0.37027 0.39408 0.13862 0.0
C2448 C 0.36105 0.36759 0.13326 0.0
C2449 C 0.33694 0.35705 0.11768 0.0
C2450 C 0.32198 0.37289 0.10711 0.0
C2451 C 0.33119 0.39933 0.11196 0.0
C2452 C 0.35527 0.40995 0.12759 0.0
C2453 C 0.50396 0.46865 0.12161 0.0
C2454 C 0.49878 0.48849 0.10171 0.0
C2455 C 0.48474 0.45186 0.14009 0.0
C2456 C 0.46024 0.45502 0.13957 0.0
C2457 C 0.4554 0.47544 0.12051 0.0
C2458 C 0.47444 0.49194 0.10163 0.0
C2459 C 0.43918 0.43608 0.15735 0.0
C2460 C 0.41531 0.42456 0.14132 0.0
C2461 C 0.44279 0.42844 0.18936 0.0
C2462 C 0.46648 0.44164 0.20843 0.0
C2463 C 0.47487 0.46875 0.2097 0.0
C2464 C 0.4972 0.48111 0.22767 0.0
C2465 C 0.51123 0.46655 0.24466 0.0
C2466 C 0.50292 0.4396 0.24378 0.0
C2467 C 0.48061 0.42713 0.22583 0.0
H2468 H 0.52851 0.47616 0.25857 0.0
H2469 H 0.3033 0.3647 0.09511 0.0
H2470 H 0.81683 0.65399 0.64754 0.0
H2471 H 0.84616 0.63126 0.63563 0.0
H2472 H 0.91159 0.6985 0.65553 0.0
H2473 H 0.88204 0.72145 0.66757 0.0
H2474 H 0.91889 0.6812 0.60373 0.0
H2475 H 0.89472 0.6401 0.70496 0.0
H2476 H 0.8647 0.61699 0.7458 0.0
H2477 H 0.83104 0.55342 0.68782 0.0
H2478 H 0.86066 0.5763 0.64645 0.0
H2479 H 1.00529 0.5982 0.63253 0.0
H2480 H 0.97685 0.62166 0.64505 0.0
H2481 H 0.92545 0.59245 0.56612 0.0
H2482 H 0.9531 0.56715 0.55459 0.0
H2483 H 0.91256 0.59202 0.64663 0.0
H2484 H 0.92455 0.67379 0.54733 0.0
H2485 H 0.9558 0.69932 0.5091 0.0
H2486 H 1.01797 0.68584 0.56812 0.0
H2487 H 0.98716 0.66109 0.60712 0.0
C2488 C 0.83749 0.66392 0.64965 0.0
C2489 C 0.84704 0.68962 0.65852 0.0
C2490 C 0.85432 0.65082 0.64287 0.0
C2491 C 0.88127 0.66301 0.64449 0.0
C2492 C 0.89093 0.68857 0.6539 0.0
C2493 C 0.87403 0.70163 0.66109 0.0
C2494 C 0.89915 0.64933 0.63547 0.0
C2495 C 0.91753 0.66172 0.6132 0.0
C2496 C 0.89752 0.62384 0.64767 0.0
C2497 C 0.87977 0.61 0.67253 0.0
C2498 C 0.8808 0.62126 0.70085 0.0
C2499 C 0.86388 0.6082 0.7241 0.0
C2500 C 0.84594 0.58378 0.71938 0.0
C2501 C 0.84493 0.57234 0.69143 0.0
C2502 C 0.8618 0.58533 0.66809 0.0
C2503 C 0.98802 0.59671 0.61759 0.0
C2504 C 0.9819 0.58107 0.59203 0.0
C2505 C 0.97179 0.61031 0.62479 0.0
C2506 C 0.94948 0.60967 0.60593 0.0
C2507 C 0.94299 0.59392 0.58051 0.0
C2508 C 0.95885 0.57946 0.57389 0.0
C2509 C 0.93214 0.62381 0.61476 0.0
C2510 C 0.91378 0.61143 0.63696 0.0
C2511 C 0.93418 0.64949 0.60284 0.0
C2512 C 0.95319 0.66419 0.57947 0.0
C2513 C 0.9448 0.67585 0.55193 0.0
C2514 C 0.96251 0.6905 0.53024 0.0
C2515 C 0.98884 0.6939 0.53593 0.0
C2516 C 0.99751 0.68285 0.56348 0.0
C2517 C 0.97984 0.66832 0.58533 0.0
H2518 H 1.00254 0.70521 0.51909 0.0
H2519 H 0.83285 0.57369 0.73741 0.0
H2520 H 0.3497 0.83477 0.76296 0.0
H2521 H 0.38572 0.86356 0.73242 0.0
H2522 H 0.3399 0.84145 0.64712 0.0
H2523 H 0.30394 0.81416 0.67742 0.0
H2524 H 0.4178 0.86221 0.69303 0.0
H2525 H 0.35232 0.87281 0.59213 0.0
H2526 H 0.31213 0.88178 0.5726 0.0
H2527 H 0.31851 0.92804 0.64989 0.0
H2528 H 0.35792 0.91813 0.67068 0.0
H2529 H 0.49676 0.94235 0.56137 0.0
H2530 H 0.46645 0.90673 0.59295 0.0
H2531 H 0.44121 0.96247 0.634 0.0
H2532 H 0.47128 0.99749 0.60398 0.0
H2533 H 0.4001 0.92275 0.60768 0.0
H2534 H 0.47607 0.93284 0.67748 0.0
H2535 H 0.52037 0.93205 0.69189 0.0
H2536 H 0.49722 0.85164 0.6735 0.0
H2537 H 0.45285 0.85207 0.65854 0.0
C2538 C 0.34742 0.83597 0.73767 0.0
C2539 C 0.32376 0.82178 0.72281 0.0
C2540 C 0.3681 0.85265 0.72 0.0
C2541 C 0.36585 0.85587 0.68687 0.0
C2542 C 0.34241 0.84086 0.67232 0.0
C2543 C 0.32176 0.82464 0.68986 0.0
C2544 C 0.38768 0.87458 0.66767 0.0
C2545 C 0.41367 0.87531 0.67434 0.0
C2546 C 0.38328 0.89194 0.64257 0.0
C2547 C 0.3575 0.89413 0.63337 0.0
C2548 C 0.34464 0.88424 0.60539 0.0
C2549 C 0.32204 0.88949 0.59411 0.0
C2550 C 0.31262 0.90527 0.61015 0.0
C2551 C 0.32558 0.91548 0.63775 0.0
C2552 C 0.34779 0.9097 0.64959 0.0
C2553 C 0.48523 0.94708 0.57767 0.0
C2554 C 0.48683 0.97323 0.57966 0.0
C2555 C 0.4677 0.92657 0.59573 0.0
C2556 C 0.4511 0.9316 0.61605 0.0
C2557 C 0.45342 0.95767 0.61863 0.0
C2558 C 0.47091 0.97791 0.60116 0.0
C2559 C 0.42994 0.91046 0.63316 0.0
C2560 C 0.40411 0.90936 0.62613 0.0
C2561 C 0.43462 0.8928 0.65754 0.0
C2562 C 0.46124 0.89258 0.66652 0.0
C2563 C 0.48049 0.91507 0.67619 0.0
C2564 C 0.5056 0.91467 0.68453 0.0
C2565 C 0.51163 0.89184 0.68351 0.0
C2566 C 0.49254 0.86933 0.67422 0.0
C2567 C 0.46741 0.86964 0.66583 0.0
H2568 H 0.53108 0.89156 0.68999 0.0
H2569 H 0.29539 0.90971 0.60108 0.0
H2570 H 0.26881 0.33763 0.73853 0.0
H2571 H 0.24808 0.36541 0.70546 0.0
H2572 H 0.17553 0.30294 0.70577 0.0
H2573 H 0.19615 0.27532 0.7386 0.0
H2574 H 0.18132 0.3304 0.64884 0.0
H2575 H 0.18725 0.34792 0.75666 0.0
H2576 H 0.20996 0.35902 0.80785 0.0
H2577 H 0.25688 0.43223 0.7667 0.0
H2578 H 0.23465 0.42137 0.7151 0.0
H2579 H 0.09446 0.40502 0.61068 0.0
H2580 H 0.11645 0.37504 0.63594 0.0
H2581 H 0.18736 0.43896 0.64526 0.0
H2582 H 0.1654 0.4688 0.62153 0.0
H2583 H 0.18295 0.41007 0.69625 0.0
H2584 H 0.17004 0.39215 0.58757 0.0
H2585 H 0.14446 0.3785 0.53861 0.0
H2586 H 0.1077 0.30312 0.58302 0.0
H2587 H 0.13231 0.31652 0.63254 0.0
C2588 C 0.24864 0.32966 0.73078 0.0
C2589 C 0.23416 0.30419 0.74088 0.0
C2590 C 0.23671 0.3456 0.71208 0.0
C2591 C 0.21005 0.33644 0.70329 0.0
C2592 C 0.19604 0.31056 0.71207 0.0
C2593 C 0.20785 0.29478 0.73091 0.0
C2594 C 0.19613 0.3542 0.68749 0.0
C2595 C 0.18153 0.34777 0.65925 0.0
C2596 C 0.19635 0.37691 0.70093 0.0
C2597 C 0.20948 0.38372 0.73197 0.0
C2598 C 0.20252 0.36631 0.75849 0.0
C2599 C 0.2153 0.37256 0.78758 0.0
C2600 C 0.23491 0.39628 0.79051 0.0
C2601 C 0.24171 0.41384 0.76437 0.0
C2602 C 0.22902 0.40766 0.7352 0.0
C2603 C 0.11471 0.41266 0.61824 0.0
C2604 C 0.12802 0.43943 0.61407 0.0
C2605 C 0.12738 0.39545 0.63256 0.0
C2606 C 0.15386 0.4045 0.64235 0.0
C2607 C 0.16701 0.43125 0.63817 0.0
C2608 C 0.15432 0.4484 0.62444 0.0
C2609 C 0.16812 0.38656 0.65715 0.0
C2610 C 0.18279 0.39289 0.68546 0.0
C2611 C 0.16756 0.36353 0.64389 0.0
C2612 C 0.15293 0.35546 0.61391 0.0
C2613 C 0.15637 0.37272 0.58699 0.0
C2614 C 0.14202 0.36504 0.55913 0.0
C2615 C 0.12454 0.33998 0.5577 0.0
C2616 C 0.12127 0.32255 0.58415 0.0
C2617 C 0.13536 0.3302 0.61215 0.0
H2618 H 0.11352 0.33406 0.53607 0.0
H2619 H 0.24479 0.40108 0.81306 0.0
H2620 H 0.71124 0.23435 0.70642 0.0
H2621 H 0.68575 0.2023 0.67033 0.0
H2622 H 0.7486 0.17113 0.67133 0.0
H2623 H 0.77426 0.20346 0.70732 0.0
H2624 H 0.72466 0.17264 0.61036 0.0
H2625 H 0.69872 0.14071 0.71308 0.0
H2626 H 0.68481 0.14434 0.76454 0.0
H2627 H 0.61397 0.15331 0.72244 0.0
H2628 H 0.62813 0.15079 0.67016 0.0
H2629 H 0.65002 0.05112 0.54665 0.0
H2630 H 0.67853 0.08587 0.57753 0.0
H2631 H 0.61388 0.11128 0.59162 0.0
H2632 H 0.58533 0.0765 0.56127 0.0
H2633 H 0.63994 0.11319 0.64434 0.0
H2634 H 0.6661 0.14593 0.54088 0.0
H2635 H 0.68161 0.14501 0.48897 0.0
H2636 H 0.75139 0.13437 0.53206 0.0
H2637 H 0.73621 0.13503 0.58423 0.0
C2638 C 0.71998 0.22116 0.69852 0.0
C2639 C 0.74516 0.22202 0.7099 0.0
C2640 C 0.70516 0.20245 0.67793 0.0
C2641 C 0.71492 0.18386 0.66766 0.0
C2642 C 0.74032 0.18505 0.67844 0.0
C2643 C 0.75502 0.20357 0.6994 0.0
C2644 C 0.69817 0.1625 0.6473 0.0
C2645 C 0.70628 0.15949 0.61804 0.0
C2646 C 0.67377 0.14528 0.65645 0.0
C2647 C 0.66462 0.14587 0.68771 0.0
C2648 C 0.68025 0.14364 0.71473 0.0
C2649 C 0.67229 0.14552 0.74409 0.0
C2650 C 0.64842 0.14901 0.74692 0.0
C2651 C 0.63247 0.15063 0.72024 0.0
C2652 C 0.6405 0.14907 0.69068 0.0
C2653 C 0.64179 0.06418 0.55604 0.0
C2654 C 0.61504 0.06061 0.55101 0.0
C2655 C 0.65831 0.08434 0.57379 0.0
C2656 C 0.64882 0.10189 0.58713 0.0
C2657 C 0.62213 0.09835 0.58197 0.0
C2658 C 0.60566 0.07827 0.56428 0.0
C2659 C 0.66621 0.12332 0.60706 0.0
C2660 C 0.65823 0.12634 0.63642 0.0
C2661 C 0.69066 0.14058 0.59782 0.0
C2662 C 0.69991 0.14029 0.56648 0.0
C2663 C 0.6847 0.14325 0.53928 0.0
C2664 C 0.69346 0.14285 0.50979 0.0
C2665 C 0.71751 0.13969 0.50717 0.0
C2666 C 0.73282 0.13692 0.53407 0.0
C2667 C 0.72415 0.13733 0.56361 0.0
H2668 H 0.72427 0.1394 0.48431 0.0
H2669 H 0.64228 0.15045 0.76975 0.0
H2670 H 0.80454 0.34396 0.36735 0.0
H2671 H 0.83754 0.37 0.40289 0.0
H2672 H 0.89667 0.35413 0.35588 0.0
H2673 H 0.86328 0.32658 0.32123 0.0
H2674 H 0.90774 0.35447 0.41952 0.0
H2675 H 0.88122 0.40875 0.33818 0.0
H2676 H 0.84779 0.4228 0.30685 0.0
H2677 H 0.8263 0.44809 0.38879 0.0
H2678 H 0.85888 0.43317 0.42096 0.0
H2679 H 1.01269 0.46169 0.47479 0.0
H2680 H 0.98095 0.43024 0.44257 0.0
H2681 H 0.91892 0.44687 0.48249 0.0
H2682 H 0.95036 0.47844 0.5143 0.0
H2683 H 0.91022 0.44582 0.42139 0.0
H2684 H 0.93309 0.3903 0.50321 0.0
H2685 H 0.96252 0.37254 0.5376 0.0
H2686 H 0.98885 0.34888 0.4578 0.0
H2687 H 0.95982 0.36686 0.42286 0.0
C2688 C 0.82432 0.34498 0.3653 0.0
C2689 C 0.83103 0.3325 0.34188 0.0
C2690 C 0.84337 0.3604 0.38535 0.0
C2691 C 0.86972 0.3643 0.38199 0.0
C2692 C 0.87651 0.35142 0.35905 0.0
C2693 C 0.85739 0.33581 0.33912 0.0
C2694 C 0.89012 0.38309 0.40102 0.0
C2695 C 0.90853 0.37454 0.41959 0.0
C2696 C 0.89088 0.4092 0.40169 0.0
C2697 C 0.87238 0.41964 0.38205 0.0
C2698 C 0.86932 0.41723 0.34957 0.0
C2699 C 0.85046 0.42527 0.33167 0.0
C2700 C 0.83495 0.43635 0.34581 0.0
C2701 C 0.83832 0.43947 0.37789 0.0
C2702 C 0.85693 0.43115 0.39599 0.0
C2703 C 0.99229 0.45855 0.47686 0.0
C2704 C 0.98419 0.47269 0.49723 0.0
C2705 C 0.97412 0.44047 0.45845 0.0
C2706 C 0.94742 0.43599 0.46011 0.0
C2707 C 0.93934 0.44996 0.4806 0.0
C2708 C 0.95744 0.46799 0.49895 0.0
C2709 C 0.92783 0.41719 0.44017 0.0
C2710 C 0.90958 0.42579 0.42128 0.0
C2711 C 0.92708 0.39109 0.43946 0.0
C2712 C 0.9445 0.38019 0.46039 0.0
C2713 C 0.94532 0.3815 0.49297 0.0
C2714 C 0.9619 0.37136 0.51257 0.0
C2715 C 0.9776 0.35965 0.49988 0.0
C2716 C 0.9767 0.358 0.46758 0.0
C2717 C 0.96018 0.36815 0.44787 0.0
H2718 H 0.99042 0.35181 0.51509 0.0
H2719 H 0.82038 0.44258 0.33191 0.0
H2720 H 0.70355 0.79628 0.32511 0.0
H2721 H 0.68053 0.81665 0.3558 0.0
H2722 H 0.74415 0.88797 0.34937 0.0
H2723 H 0.76765 0.86685 0.3211 0.0
H2724 H 0.72771 0.89618 0.39519 0.0
H2725 H 0.66906 0.86545 0.30707 0.0
H2726 H 0.64169 0.83291 0.27198 0.0
H2727 H 0.59878 0.78969 0.34968 0.0
H2728 H 0.62605 0.82189 0.38525 0.0
H2729 H 0.65085 0.94918 0.48725 0.0
H2730 H 0.67503 0.92485 0.46464 0.0
H2731 H 0.62052 0.91162 0.38516 0.0
H2732 H 0.59597 0.9344 0.40841 0.0
H2733 H 0.63259 0.87419 0.38296 0.0
H2734 H 0.72816 0.9049 0.45718 0.0
H2735 H 0.75638 0.94236 0.48482 0.0
H2736 H 0.72661 0.99375 0.42308 0.0
H2737 H 0.69839 0.95662 0.39495 0.0
C2738 C 0.71328 0.81602 0.3311 0.0
C2739 C 0.73883 0.8288 0.32112 0.0
C2740 C 0.69939 0.82844 0.34831 0.0
C2741 C 0.70926 0.85517 0.35557 0.0
C2742 C 0.73481 0.86771 0.34541 0.0
C2743 C 0.74875 0.85521 0.32881 0.0
C2744 C 0.6938 0.87012 0.37282 0.0
C2745 C 0.70684 0.89087 0.39218 0.0
C2746 C 0.66621 0.86513 0.37005 0.0
C2747 C 0.64973 0.8459 0.34881 0.0
C2748 C 0.65383 0.84895 0.31665 0.0
C2749 C 0.63835 0.83058 0.29669 0.0
C2750 C 0.61856 0.8092 0.30861 0.0
C2751 C 0.61415 0.80622 0.3405 0.0
C2752 C 0.62959 0.82453 0.36056 0.0
C2753 C 0.6439 0.94137 0.46482 0.0
C2754 C 0.62069 0.9448 0.45036 0.0
C2755 C 0.65826 0.92718 0.45121 0.0
C2756 C 0.65101 0.91575 0.42165 0.0
C2757 C 0.62779 0.91931 0.40757 0.0
C2758 C 0.61335 0.93298 0.42129 0.0
C2759 C 0.66648 0.90019 0.40545 0.0
C2760 C 0.65345 0.8794 0.38615 0.0
C2761 C 0.69413 0.90565 0.40755 0.0
C2762 C 0.711 0.92799 0.42424 0.0
C2763 C 0.72769 0.92421 0.4495 0.0
C2764 C 0.74366 0.94537 0.46525 0.0
C2765 C 0.74322 0.9704 0.45578 0.0
C2766 C 0.72687 0.97434 0.43046 0.0
C2767 C 0.71087 0.95326 0.41462 0.0
H2768 H 0.75558 0.98675 0.46801 0.0
H2769 H 0.60662 0.79498 0.29314 0.0
H2770 H 0.21162 0.70425 0.27402 0.0
H2771 H 0.18557 0.66953 0.30933 0.0
H2772 H 0.21319 0.71831 0.3864 0.0
H2773 H 0.23811 0.75353 0.35044 0.0
H2774 H 0.19388 0.64091 0.35461 0.0
H2775 H 0.17137 0.70217 0.44408 0.0
H2776 H 0.16556 0.74489 0.44586 0.0
H2777 H 0.14286 0.74553 0.34792 0.0
H2778 H 0.1482 0.70268 0.34565 0.0
H2779 H 0.14483 0.55609 0.48349 0.0
H2780 H 0.16923 0.59347 0.45068 0.0
H2781 H 0.09991 0.61409 0.42737 0.0
H2782 H 0.07562 0.57716 0.46211 0.0
H2783 H 0.13766 0.65633 0.43004 0.0
H2784 H 0.12633 0.57994 0.37771 0.0
H2785 H 0.1282 0.53623 0.3715 0.0
H2786 H 0.21094 0.56403 0.38593 0.0
H2787 H 0.20955 0.60782 0.39273 0.0
C2788 C 0.21211 0.7075 0.29849 0.0
C2789 C 0.22727 0.73137 0.3096 0.0
C2790 C 0.19724 0.68759 0.3188 0.0
C2791 C 0.19693 0.69111 0.35076 0.0
C2792 C 0.21239 0.71504 0.36187 0.0
C2793 C 0.227 0.73509 0.34142 0.0
C2794 C 0.18064 0.66967 0.37219 0.0
C2795 C 0.18161 0.6444 0.37105 0.0
C2796 C 0.16408 0.67375 0.39347 0.0
C2797 C 0.16044 0.69934 0.39465 0.0
C2798 C 0.16503 0.71139 0.42296 0.0
C2799 C 0.16184 0.73563 0.42405 0.0
C2800 C 0.15393 0.74795 0.397 0.0
C2801 C 0.14907 0.73601 0.36883 0.0
C2802 C 0.1522 0.71175 0.36762 0.0
C2803 C 0.13477 0.56868 0.47153 0.0
C2804 C 0.10818 0.56343 0.47506 0.0
C2805 C 0.14875 0.59003 0.45249 0.0
C2806 C 0.13642 0.60633 0.4354 0.0
C2807 C 0.10999 0.60177 0.43991 0.0
C2808 C 0.09605 0.58064 0.45976 0.0
C2809 C 0.1511 0.62766 0.41259 0.0
C2810 C 0.14989 0.65287 0.41353 0.0
C2811 C 0.16687 0.6234 0.39041 0.0
C2812 C 0.1678 0.59711 0.38605 0.0
C2813 C 0.14491 0.5767 0.37976 0.0
C2814 C 0.14589 0.5519 0.37613 0.0
C2815 C 0.16966 0.54733 0.37844 0.0
C2816 C 0.19253 0.56758 0.38424 0.0
C2817 C 0.19166 0.59239 0.38797 0.0
H2818 H 0.17038 0.52812 0.37566 0.0
H2819 H 0.1515 0.76673 0.39788 0.0
H2820 H 0.35402 0.26553 0.30434 0.0
H2821 H 0.38316 0.24297 0.33035 0.0
H2822 H 0.31731 0.1786 0.3586 0.0
H2823 H 0.28864 0.20225 0.33491 0.0
H2824 H 0.34614 0.16872 0.39753 0.0
H2825 H 0.37699 0.18993 0.29346 0.0
H2826 H 0.39468 0.21842 0.24703 0.0
H2827 H 0.46013 0.26166 0.30338 0.0
H2828 H 0.4427 0.23353 0.35017 0.0
H2829 H 0.41859 0.07679 0.43403 0.0
H2830 H 0.39265 0.10362 0.41099 0.0
H2831 H 0.4603 0.17109 0.41202 0.0
H2832 H 0.48647 0.14397 0.43562 0.0
H2833 H 0.43237 0.1804 0.35975 0.0
H2834 H 0.40092 0.15516 0.46328 0.0
H2835 H 0.38237 0.12452 0.50774 0.0
H2836 H 0.31673 0.08566 0.44864 0.0
H2837 H 0.33483 0.11614 0.40388 0.0
C2838 C 0.34543 0.24687 0.31672 0.0
C2839 C 0.31786 0.23708 0.31766 0.0
C2840 C 0.36265 0.23299 0.3314 0.0
C2841 C 0.35397 0.20736 0.34713 0.0
C2842 C 0.32633 0.19775 0.34764 0.0
C2843 C 0.30928 0.21177 0.33354 0.0
C2844 C 0.3725 0.19078 0.36277 0.0
C2845 C 0.36474 0.17153 0.38829 0.0
C2846 C 0.39792 0.19293 0.3532 0.0
C2847 C 0.40841 0.20985 0.3253 0.0
C2848 C 0.3951 0.20559 0.29592 0.0
C2849 C 0.40508 0.22166 0.26957 0.0
C2850 C 0.42847 0.24189 0.27228 0.0
C2851 C 0.44198 0.24603 0.30133 0.0
C2852 C 0.43208 0.23003 0.32777 0.0
C2853 C 0.42844 0.09736 0.42976 0.0
C2854 C 0.45565 0.10709 0.43777 0.0
C2855 C 0.41301 0.1133 0.41628 0.0
C2856 C 0.42318 0.14072 0.40903 0.0
C2857 C 0.45054 0.15053 0.41661 0.0
C2858 C 0.466 0.13455 0.43065 0.0
C2859 C 0.40567 0.15833 0.39393 0.0
C2860 C 0.41366 0.1777 0.36869 0.0
C2861 C 0.38026 0.15597 0.40334 0.0
C2862 C 0.36934 0.13776 0.4302 0.0
C2863 C 0.38259 0.14 0.45976 0.0
C2864 C 0.37215 0.12267 0.48501 0.0
C2865 C 0.34848 0.10305 0.48094 0.0
C2866 C 0.33509 0.10084 0.45171 0.0
C2867 C 0.34539 0.11817 0.42643 0.0
H2868 H 0.34043 0.08957 0.50041 0.0
H2869 H 0.43616 0.25432 0.25185 0.0
H2870 H 0.77807 0.86529 0.72453 0.0
H2871 H 0.75017 0.88464 0.69081 0.0
H2872 H 0.69022 0.81056 0.6906 0.0
H2873 H 0.71847 0.79093 0.72519 0.0
H2874 H 0.69056 0.83807 0.63087 0.0
H2875 H 0.68721 0.85884 0.73554 0.0
H2876 H 0.70529 0.87494 0.7869 0.0
H2877 H 0.74359 0.95011 0.74274 0.0
H2878 H 0.72606 0.93434 0.69105 0.0
H2879 H 0.59614 0.90097 0.5649 0.0
H2880 H 0.61974 0.87474 0.59627 0.0
H2881 H 0.6819 0.94438 0.61646 0.0
H2882 H 0.65852 0.97031 0.58567 0.0
H2883 H 0.67759 0.91596 0.66733 0.0
H2884 H 0.68354 0.89589 0.56317 0.0
H2885 H 0.66739 0.88063 0.51093 0.0
H2886 H 0.62584 0.8055 0.55268 0.0
H2887 H 0.64147 0.82043 0.60523 0.0
C2888 C 0.75904 0.85279 0.71724 0.0
C2889 C 0.7511 0.82621 0.72794 0.0
C2890 C 0.74278 0.86412 0.69778 0.0
C2891 C 0.71736 0.84964 0.6878 0.0
C2892 C 0.70949 0.82272 0.69752 0.0
C2893 C 0.72587 0.81129 0.71742 0.0
C2894 C 0.69936 0.86316 0.66863 0.0
C2895 C 0.68744 0.85481 0.6393 0.0
C2896 C 0.69519 0.88568 0.67831 0.0
C2897 C 0.70547 0.89534 0.70938 0.0
C2898 C 0.69961 0.87876 0.73676 0.0
C2899 C 0.70975 0.88783 0.76593 0.0
C2900 C 0.72562 0.91352 0.76807 0.0
C2901 C 0.73131 0.93021 0.74104 0.0
C2902 C 0.72126 0.92122 0.7118 0.0
C2903 C 0.61484 0.91081 0.57592 0.0
C2904 C 0.62498 0.93824 0.57214 0.0
C2905 C 0.62866 0.89559 0.594 0.0
C2906 C 0.65333 0.907 0.60928 0.0
C2907 C 0.66318 0.93438 0.60556 0.0
C2908 C 0.64955 0.94946 0.58749 0.0
C2909 C 0.66883 0.89111 0.62928 0.0
C2910 C 0.68045 0.89911 0.65885 0.0
C2911 C 0.67282 0.86843 0.61965 0.0
C2912 C 0.66342 0.85937 0.58815 0.0
C2913 C 0.67079 0.87617 0.56123 0.0
C2914 C 0.66176 0.86758 0.53156 0.0
C2915 C 0.64553 0.84213 0.5285 0.0
C2916 C 0.63836 0.82522 0.5551 0.0
C2917 C 0.64731 0.83373 0.58483 0.0
H2918 H 0.63856 0.83551 0.50551 0.0
H2919 H 0.73346 0.9205 0.79068 0.0
H2920 H 0.7512 0.25121 0.35302 0.0
H2921 H 0.71516 0.22029 0.3807 0.0
H2922 H 0.70336 0.16786 0.30769 0.0
H2923 H 0.73623 0.20059 0.27812 0.0
H2924 H 0.6601 0.16733 0.31867 0.0
H2925 H 0.73392 0.16413 0.39295 0.0
H2926 H 0.77116 0.18598 0.42795 0.0
H2927 H 0.72165 0.21218 0.47941 0.0
H2928 H 0.68425 0.19081 0.44446 0.0
H2929 H 0.60399 0.04236 0.39329 0.0
H2930 H 0.63127 0.08308 0.36833 0.0
H2931 H 0.61004 0.12597 0.43455 0.0
H2932 H 0.58244 0.08538 0.45948 0.0
H2933 H 0.6639 0.1376 0.4309 0.0
H2934 H 0.58992 0.13513 0.36216 0.0
H2935 H 0.55231 0.11518 0.32673 0.0
H2936 H 0.60219 0.09915 0.26523 0.0
H2937 H 0.64001 0.11861 0.30058 0.0
C2938 C 0.74012 0.23344 0.34264 0.0
C2939 C 0.745 0.22906 0.31261 0.0
C2940 C 0.72008 0.21529 0.35888 0.0
C2941 C 0.70608 0.19153 0.34633 0.0
C2942 C 0.7131 0.18624 0.31763 0.0
C2943 C 0.73219 0.20484 0.30087 0.0
C2944 C 0.68365 0.17223 0.36189 0.0
C2945 C 0.6613 0.16061 0.3431 0.0
C2946 C 0.68412 0.16439 0.39427 0.0
C2947 C 0.70641 0.17608 0.416 0.0
C2948 C 0.73103 0.17454 0.41176 0.0
C2949 C 0.75215 0.18691 0.43152 0.0
C2950 C 0.74877 0.2006 0.45575 0.0
C2951 C 0.72425 0.2017 0.46053 0.0
C2952 C 0.7031 0.18946 0.44078 0.0
C2953 C 0.60466 0.06047 0.40211 0.0
C2954 C 0.59105 0.06062 0.42834 0.0
C2955 C 0.62022 0.08372 0.38782 0.0
C2956 C 0.62263 0.10747 0.39967 0.0
C2957 C 0.60836 0.1078 0.42509 0.0
C2958 C 0.59247 0.08459 0.43913 0.0
C2959 C 0.64173 0.13158 0.38695 0.0
C2960 C 0.66304 0.14433 0.4064 0.0
C2961 C 0.6405 0.14028 0.35513 0.0
C2962 C 0.61778 0.12836 0.33397 0.0
C2963 C 0.59283 0.12722 0.34116 0.0
C2964 C 0.57148 0.116 0.3211 0.0
C2965 C 0.57486 0.10591 0.29374 0.0
C2966 C 0.59959 0.10698 0.28641 0.0
C2967 C 0.621 0.11817 0.30641 0.0
H2968 H 0.55831 0.09726 0.27822 0.0
H2969 H 0.76513 0.21035 0.4709 0.0
H2970 H 0.8064 0.65647 0.45162 0.0
H2971 H 0.84108 0.63856 0.46893 0.0
H2972 H 0.89687 0.71557 0.46243 0.0
H2973 H 0.86213 0.7333 0.44349 0.0
H2974 H 0.91544 0.68631 0.43765 0.0
H2975 H 0.87909 0.67924 0.53445 0.0
H2976 H 0.84555 0.66921 0.5728 0.0
H2977 H 0.82549 0.58802 0.55983 0.0
H2978 H 0.85859 0.59755 0.52094 0.0
H2979 H 1.00753 0.62262 0.50869 0.0
H2980 H 0.98115 0.65154 0.49929 0.0
H2981 H 0.91487 0.58696 0.47374 0.0
H2982 H 0.94094 0.5582 0.48199 0.0
H2983 H 0.90743 0.61637 0.52231 0.0
H2984 H 0.94231 0.62848 0.41864 0.0
H2985 H 0.97836 0.64125 0.38333 0.0
H2986 H 1.00533 0.71752 0.41681 0.0
H2987 H 0.96958 0.70508 0.45256 0.0
C2988 C 0.82603 0.66955 0.45439 0.0
C2989 C 0.8317 0.69619 0.44637 0.0
C2990 C 0.84585 0.65937 0.46445 0.0
C2991 C 0.87163 0.67574 0.46751 0.0
C2992 C 0.87718 0.70254 0.46028 0.0
C2993 C 0.85738 0.71266 0.44957 0.0
C2994 C 0.89281 0.6645 0.47594 0.0
C2995 C 0.91391 0.67145 0.45667 0.0
C2996 C 0.89101 0.6451 0.50076 0.0
C2997 C 0.87118 0.63917 0.52443 0.0
C2998 C 0.86739 0.65925 0.53954 0.0
C2999 C 0.84845 0.65366 0.56139 0.0
C3000 C 0.83326 0.62801 0.56854 0.0
C3001 C 0.83719 0.60789 0.55413 0.0
C3002 C 0.85607 0.61338 0.5322 0.0
C3003 C 0.98749 0.61473 0.50038 0.0
C3004 C 0.97632 0.58811 0.49616 0.0
C3005 C 0.97243 0.63122 0.49534 0.0
C3006 C 0.94604 0.62121 0.48635 0.0
C3007 C 0.93517 0.59493 0.48099 0.0
C3008 C 0.95019 0.57858 0.48554 0.0
C3009 C 0.92915 0.63761 0.48338 0.0
C3010 C 0.90894 0.63156 0.50371 0.0
C3011 C 0.93216 0.65827 0.46018 0.0
C3012 C 0.95348 0.66576 0.43852 0.0
C3013 C 0.95606 0.6479 0.41865 0.0
C3014 C 0.9764 0.65509 0.39851 0.0
C3015 C 0.99418 0.68015 0.3979 0.0
C3016 C 0.99158 0.6981 0.41735 0.0
C3017 C 0.97128 0.69099 0.43753 0.0
H3018 H 1.00992 0.68569 0.3823 0.0
H3019 H 0.81849 0.62372 0.58532 0.0
H3020 H 0.28534 0.83901 0.35256 0.0
H3021 H 0.31195 0.86644 0.39262 0.0
H3022 H 0.36739 0.82534 0.39508 0.0
H3023 H 0.33993 0.79676 0.35677 0.0
H3024 H 0.36789 0.84499 0.45173 0.0
H3025 H 0.3719 0.87802 0.34048 0.0
H3026 H 0.34851 0.88607 0.29115 0.0
H3027 H 0.31707 0.93494 0.33634 0.0
H3028 H 0.34044 0.92724 0.38594 0.0
H3029 H 0.48879 0.94982 0.46531 0.0
H3030 H 0.4521 0.91179 0.45151 0.0
H3031 H 0.3997 0.95541 0.4558 0.0
H3032 H 0.43568 0.99313 0.46948 0.0
H3033 H 0.3953 0.93416 0.40014 0.0
H3034 H 0.39581 0.90846 0.50847 0.0
H3035 H 0.41432 0.89877 0.5605 0.0
H3036 H 0.43383 0.83707 0.52529 0.0
H3037 H 0.41567 0.84659 0.47283 0.0
C3038 C 0.30281 0.83539 0.36242 0.0
C3039 C 0.3109 0.81618 0.35133 0.0
C3040 C 0.31796 0.85098 0.3853 0.0
C3041 C 0.34203 0.84841 0.39609 0.0
C3042 C 0.34897 0.82774 0.38699 0.0
C3043 C 0.33336 0.81155 0.36493 0.0
C3044 C 0.36182 0.86973 0.41178 0.0
C3045 C 0.37403 0.86447 0.44048 0.0
C3046 C 0.36952 0.89524 0.39732 0.0
C3047 C 0.3577 0.90191 0.36686 0.0
C3048 C 0.36012 0.8906 0.33979 0.0
C3049 C 0.3467 0.89494 0.31187 0.0
C3050 C 0.33091 0.91063 0.31078 0.0
C3051 C 0.3291 0.9226 0.33734 0.0
C3052 C 0.34252 0.91837 0.3653 0.0
C3053 C 0.46944 0.95124 0.46354 0.0
C3054 C 0.46533 0.97475 0.46785 0.0
C3055 C 0.44851 0.92946 0.45593 0.0
C3056 C 0.42327 0.93092 0.45261 0.0
C3057 C 0.41906 0.95397 0.45815 0.0
C3058 C 0.43979 0.97558 0.46582 0.0
C3059 C 0.40153 0.90953 0.44014 0.0
C3060 C 0.38912 0.91478 0.41171 0.0
C3061 C 0.39359 0.88426 0.45516 0.0
C3062 C 0.40463 0.87843 0.4866 0.0
C3063 C 0.40428 0.89299 0.51171 0.0
C3064 C 0.41465 0.88749 0.54132 0.0
C3065 C 0.42533 0.86738 0.54619 0.0
C3066 C 0.42559 0.85268 0.52146 0.0
C3067 C 0.41521 0.85809 0.49178 0.0
H3068 H 0.43334 0.86314 0.56915 0.0
H3069 H 0.32029 0.91382 0.28929 0.0
H3070 H 0.30242 0.37036 0.49037 0.0
H3071 H 0.2782 0.39084 0.51877 0.0
H3072 H 0.24907 0.41878 0.43087 0.0
H3073 H 0.27497 0.40092 0.4029 0.0
H3074 H 0.25591 0.45293 0.46699 0.0
H3075 H 0.21822 0.35806 0.47968 0.0
H3076 H 0.2158 0.31344 0.49923 0.0
H3077 H 0.22694 0.33577 0.5937 0.0
H3078 H 0.23007 0.38055 0.57468 0.0
H3079 H 0.11991 0.42856 0.48585 0.0
H3080 H 0.15768 0.41458 0.4823 0.0
H3081 H 0.19848 0.46363 0.55517 0.0
H3082 H 0.16142 0.47864 0.55804 0.0
H3083 H 0.19227 0.39582 0.53977 0.0
H3084 H 0.23315 0.49383 0.52104 0.0
H3085 H 0.22745 0.53487 0.49791 0.0
H3086 H 0.20156 0.50107 0.41012 0.0
H3087 H 0.20686 0.45974 0.43295 0.0
C3088 C 0.29132 0.38141 0.4772 0.0
C3089 C 0.29013 0.38341 0.44428 0.0
C3090 C 0.27722 0.39284 0.49346 0.0
C3091 C 0.26124 0.40584 0.47701 0.0
C3092 C 0.26109 0.40879 0.44426 0.0
C3093 C 0.27561 0.39809 0.42817 0.0
C3094 C 0.24352 0.41549 0.49296 0.0
C3095 C 0.24226 0.4404 0.48325 0.0
C3096 C 0.22572 0.39952 0.51458 0.0
C3097 C 0.225 0.37279 0.5257 0.0
C3098 C 0.22061 0.35353 0.50458 0.0
C3099 C 0.21906 0.32819 0.51559 0.0
C3100 C 0.22147 0.3218 0.54769 0.0
C3101 C 0.22537 0.34074 0.56885 0.0
C3102 C 0.22712 0.36612 0.55796 0.0
C3103 C 0.13679 0.43618 0.50136 0.0
C3104 C 0.13769 0.45482 0.52209 0.0
C3105 C 0.15828 0.42812 0.49936 0.0
C3106 C 0.18076 0.43831 0.51832 0.0
C3107 C 0.18128 0.45576 0.54025 0.0
C3108 C 0.16 0.46418 0.54189 0.0
C3109 C 0.20433 0.43237 0.51286 0.0
C3110 C 0.20657 0.40841 0.52446 0.0
C3111 C 0.22268 0.44883 0.49263 0.0
C3112 C 0.22026 0.47379 0.4787 0.0
C3113 C 0.22618 0.49518 0.49684 0.0
C3114 C 0.22301 0.51846 0.4838 0.0
C3115 C 0.2141 0.52056 0.45258 0.0
C3116 C 0.20844 0.49941 0.4343 0.0
C3117 C 0.21153 0.47608 0.44727 0.0
H3118 H 0.21161 0.53857 0.44257 0.0
H3119 H 0.22014 0.30215 0.55619 0.0
H3120 H 0.38141 0.21138 0.68247 0.0
H3121 H 0.405 0.18507 0.66305 0.0
H3122 H 0.34581 0.16145 0.58934 0.0
H3123 H 0.32215 0.18721 0.60892 0.0
H3124 H 0.36162 0.12152 0.60935 0.0
H3125 H 0.40436 0.21105 0.57715 0.0
H3126 H 0.42644 0.25734 0.58495 0.0
H3127 H 0.48609 0.23793 0.64306 0.0
H3128 H 0.46416 0.19146 0.63593 0.0
H3129 H 0.43645 0.07539 0.51236 0.0
H3130 H 0.40992 0.09862 0.53194 0.0
H3131 H 0.46995 0.12926 0.60265 0.0
H3132 H 0.4965 0.10698 0.58286 0.0
H3133 H 0.45273 0.16577 0.58289 0.0
H3134 H 0.41026 0.07594 0.61484 0.0
H3135 H 0.38802 0.02967 0.60707 0.0
H3136 H 0.32781 0.04919 0.55026 0.0
H3137 H 0.34983 0.09562 0.55752 0.0
C3138 C 0.37317 0.20014 0.66255 0.0
C3139 C 0.34989 0.20164 0.64723 0.0
C3140 C 0.38684 0.18528 0.65115 0.0
C3141 C 0.37761 0.17148 0.62415 0.0
C3142 C 0.35364 0.17188 0.60999 0.0
C3143 C 0.3401 0.18675 0.62124 0.0
C3144 C 0.39312 0.15749 0.60982 0.0
C3145 C 0.38149 0.13132 0.60333 0.0
C3146 C 0.41921 0.16987 0.60208 0.0
C3147 C 0.43248 0.19778 0.60626 0.0
C3148 C 0.42209 0.21665 0.59177 0.0
C3149 C 0.43459 0.24291 0.59604 0.0
C3150 C 0.45762 0.25056 0.61456 0.0
C3151 C 0.46823 0.23197 0.62877 0.0
C3152 C 0.45579 0.20567 0.6246 0.0
C3153 C 0.44403 0.08717 0.53197 0.0
C3154 C 0.46875 0.08907 0.54592 0.0
C3155 C 0.42872 0.10043 0.54338 0.0
C3156 C 0.43755 0.11569 0.56929 0.0
C3157 C 0.46239 0.11783 0.58272 0.0
C3158 C 0.47767 0.10486 0.57127 0.0
C3159 C 0.42142 0.12956 0.58278 0.0
C3160 C 0.43291 0.15583 0.58898 0.0
C3161 C 0.39524 0.11719 0.59035 0.0
C3162 C 0.38191 0.08928 0.58627 0.0
C3163 C 0.39239 0.07038 0.60048 0.0
C3164 C 0.3798 0.04412 0.59623 0.0
C3165 C 0.35658 0.0365 0.57806 0.0
C3166 C 0.34584 0.05512 0.56424 0.0
C3167 C 0.35836 0.0814 0.56842 0.0
H3168 H 0.34686 0.01616 0.57479 0.0
H3169 H 0.46727 0.27091 0.61784 0.0
H3170 H 0.85422 0.32728 0.76244 0.0
H3171 H 0.88944 0.35843 0.73413 0.0
H3172 H 0.86051 0.31865 0.65018 0.0
H3173 H 0.82376 0.28905 0.67797 0.0
H3174 H 0.92669 0.34798 0.70892 0.0
H3175 H 0.87404 0.34299 0.60337 0.0
H3176 H 0.83697 0.34581 0.56817 0.0
H3177 H 0.83765 0.41415 0.61015 0.0
H3178 H 0.87372 0.41071 0.6468 0.0
H3179 H 1.0138 0.44223 0.59044 0.0
H3180 H 0.98234 0.40224 0.61192 0.0
H3181 H 0.95873 0.44618 0.67449 0.0
H3182 H 0.99013 0.48606 0.65377 0.0
H3183 H 0.92125 0.40922 0.61796 0.0
H3184 H 0.97806 0.418 0.71625 0.0
H3185 H 1.0201 0.41998 0.74339 0.0
H3186 H 1.01561 0.34782 0.70785 0.0
H3187 H 0.97367 0.34565 0.68015 0.0
C3188 C 0.85472 0.326 0.73755 0.0
C3189 C 0.8355 0.30669 0.72195 0.0
C3190 C 0.87507 0.34361 0.7214 0.0
C3191 C 0.87741 0.3417 0.68949 0.0
C3192 C 0.85857 0.3218 0.67408 0.0
C3193 C 0.8377 0.30457 0.69013 0.0
C3194 C 0.90089 0.35928 0.674 0.0
C3195 C 0.92534 0.36115 0.68882 0.0
C3196 C 0.89972 0.37623 0.64721 0.0
C3197 C 0.87552 0.37569 0.62898 0.0
C3198 C 0.86546 0.35787 0.60605 0.0
C3199 C 0.84479 0.35972 0.58564 0.0
C3200 C 0.83472 0.37996 0.58717 0.0
C3201 C 0.84524 0.39829 0.60923 0.0
C3202 C 0.86545 0.39611 0.63018 0.0
C3203 C 1.00244 0.44333 0.60938 0.0
C3204 C 1.00444 0.46748 0.6202 0.0
C3205 C 0.98449 0.42044 0.6216 0.0
C3206 C 0.9684 0.42134 0.64486 0.0
C3207 C 0.97122 0.44513 0.65676 0.0
C3208 C 0.98919 0.46793 0.64479 0.0
C3209 C 0.94623 0.39844 0.65389 0.0
C3210 C 0.92235 0.39563 0.63774 0.0
C3211 C 0.94795 0.38055 0.6791 0.0
C3212 C 0.97299 0.38186 0.69583 0.0
C3213 C 0.9862 0.40273 0.71395 0.0
C3214 C 1.00996 0.40384 0.72951 0.0
C3215 C 1.02057 0.38409 0.72725 0.0
C3216 C 1.0074 0.36314 0.70952 0.0
C3217 C 0.98364 0.36195 0.69391 0.0
H3218 H 0.03896 0.38498 0.73931 0.0
H3219 H 0.81892 0.38157 0.57112 0.0
H3220 H 0.28015 0.72543 0.69567 0.0
H3221 H 0.25766 0.69519 0.65685 0.0
H3222 H 0.19219 0.723 0.65433 0.0
H3223 H 0.2153 0.75462 0.69144 0.0
H3224 H 0.21812 0.65749 0.67128 0.0
H3225 H 0.15073 0.70389 0.59188 0.0
H3226 H 0.15286 0.74601 0.56394 0.0
H3227 H 0.2353 0.76596 0.56088 0.0
H3228 H 0.23365 0.72382 0.58837 0.0
H3229 H 0.09072 0.57987 0.59474 0.0
H3230 H 0.12014 0.62237 0.60849 0.0
H3231 H 0.18537 0.60063 0.58666 0.0
H3232 H 0.15638 0.55828 0.57303 0.0
H3233 H 0.16131 0.66367 0.57689 0.0
H3234 H 0.22896 0.61634 0.64862 0.0
H3235 H 0.22777 0.57406 0.67557 0.0
H3236 H 0.14753 0.55747 0.69234 0.0
H3237 H 0.14836 0.59978 0.66591 0.0
C3238 C 0.26134 0.72581 0.68611 0.0
C3239 C 0.24924 0.74199 0.69741 0.0
C3240 C 0.24845 0.7084 0.66391 0.0
C3241 C 0.22308 0.70651 0.65292 0.0
C3242 C 0.21183 0.72416 0.66216 0.0
C3243 C 0.22499 0.74205 0.68382 0.0
C3244 C 0.20709 0.68359 0.63631 0.0
C3245 C 0.20625 0.65903 0.65017 0.0
C3246 C 0.1909 0.6854 0.60931 0.0
C3247 C 0.19207 0.71073 0.59246 0.0
C3248 C 0.16931 0.7172 0.58512 0.0
C3249 C 0.17043 0.7411 0.56938 0.0
C3250 C 0.19421 0.75868 0.56072 0.0
C3251 C 0.21691 0.75237 0.56771 0.0
C3252 C 0.21589 0.72849 0.58342 0.0
C3253 C 0.11131 0.58423 0.59262 0.0
C3254 C 0.12126 0.5655 0.58345 0.0
C3255 C 0.12802 0.60858 0.60017 0.0
C3256 C 0.15485 0.61444 0.59875 0.0
C3257 C 0.16469 0.59633 0.58804 0.0
C3258 C 0.14808 0.57207 0.58049 0.0
C3259 C 0.17276 0.6381 0.61191 0.0
C3260 C 0.17369 0.66252 0.59763 0.0
C3261 C 0.1893 0.63634 0.63841 0.0
C3262 C 0.18867 0.61107 0.65497 0.0
C3263 C 0.2111 0.60369 0.65817 0.0
C3264 C 0.21048 0.57973 0.67334 0.0
C3265 C 0.18756 0.56305 0.68555 0.0
C3266 C 0.16524 0.57036 0.68276 0.0
C3267 C 0.16577 0.59431 0.66766 0.0
H3268 H 0.18711 0.54449 0.69725 0.0
H3269 H 0.19504 0.77718 0.54856 0.0
loop_
_geom_bond_atom_site_label_1
_geom_bond_atom_site_label_2
_geom_bond_distance
_geom_bond_site_symmetry_2
_ccdc_geom_bond_type
Gd0 N31 2.661 . S
Gd0 N37 2.601 . S
Gd0 O44 2.545 . S
Gd0 O45 2.606 . S
Gd0 O47 2.429 . S
Gd0 O48 2.545 . S
Gd0 O49 2.412 . S
Gd0 O51 2.362 . S
Gd0 O52 2.324 . S
Gd0 C59 2.828 . S
Gd1 N10 2.661 . S
Gd1 N14 2.601 . S
Gd1 O45 2.362 . S
Gd1 O46 2.324 . S
Gd1 O50 2.545 . S
Gd1 O51 2.606 . S
Gd1 O53 2.429 . S
Gd1 O54 2.545 . S
Gd1 O55 2.412 . S
Gd1 C68 2.828 . S
C2 C5 1.417 . S
C2 C7 1.431 . S
C2 C8 1.412 . S
C3 C6 1.437 . S
C3 C7 1.317 . S
C3 H22 0.929 . S
C4 C5 1.426 . S
C4 C6 1.413 . S
C4 N14 1.359 . S
C5 C2 1.417 . S
C5 C4 1.426 . S
C5 N10 1.350 . S
C6 C3 1.437 . S
C6 C4 1.413 . S
C6 C16 1.391 . S
C7 C2 1.431 . S
C7 C3 1.317 . S
C7 H18 0.930 . S
C8 C2 1.412 . S
C8 C9 1.355 . S
C8 H20 0.930 . S
C9 C8 1.355 . S
C9 C11 1.402 . S
C9 H21 0.930 . S
N10 Gd1 2.661 . S
N10 C5 1.350 . S
N10 C11 1.307 . S
C11 C9 1.402 . S
C11 N10 1.307 . S
C11 H12 0.930 . S
H12 C11 0.930 . S
C13 N14 1.334 . S
C13 C15 1.394 . S
C13 H17 0.930 . S
N14 Gd1 2.601 . S
N14 C4 1.359 . S
N14 C13 1.334 . S
C15 C13 1.394 . S
C15 C16 1.359 . S
C15 H27 0.930 . S
C16 C6 1.391 . S
C16 C15 1.359 . S
C16 H28 0.929 . S
H17 C13 0.930 . S
H18 C7 0.930 . S
H19 C36 0.930 . S
H20 C8 0.930 . S
H21 C9 0.930 . S
H22 C3 0.929 . S
H23 C41 0.930 . S
H24 C32 0.930 . S
H25 C33 0.930 . S
H26 C57 0.929 . S
H27 C15 0.930 . S
H28 C16 0.929 . S
H29 C58 0.930 . S
H30 C39 0.930 . S
N31 Gd0 2.661 . S
N31 C35 1.350 . S
N31 C36 1.307 . S
C32 H24 0.930 . S
C32 C33 1.355 . S
C32 C34 1.412 . S
C33 H25 0.930 . S
C33 C32 1.355 . S
C33 C36 1.402 . S
C34 C32 1.412 . S
C34 C35 1.417 . S
C34 C58 1.431 . S
C35 N31 1.350 . S
C35 C34 1.417 . S
C35 C38 1.426 . S
C36 H19 0.930 . S
C36 N31 1.307 . S
C36 C33 1.402 . S
N37 Gd0 2.601 . S
N37 C38 1.359 . S
N37 C41 1.334 . S
C38 C35 1.426 . S
C38 N37 1.359 . S
C38 C42 1.413 . S
C39 H30 0.930 . S
C39 C40 1.359 . S
C39 C41 1.394 . S
C40 C39 1.359 . S
C40 C42 1.391 . S
C40 H43 0.929 . S
C41 H23 0.930 . S
C41 N37 1.334 . S
C41 C39 1.394 . S
C42 C38 1.413 . S
C42 C40 1.391 . S
C42 C57 1.437 . S
H43 C40 0.929 . S
O44 Gd0 2.545 . S
O44 C59 1.258 . S
O45 Gd0 2.606 . S
O45 Gd1 2.362 . S
O45 C56 1.284 . S
O46 Gd1 2.324 . S
O46 C66 1.254 . S
O47 Gd0 2.429 . S
O47 C66 1.268 . S
O48 Gd0 2.545 . S
O48 C56 1.250 . S
O49 Gd0 2.412 . S
O49 C59 1.252 . S
O50 Gd1 2.545 . S
O50 C68 1.258 . S
O51 Gd0 2.362 . S
O51 Gd1 2.606 . S
O51 C67 1.284 . S
O52 Gd0 2.324 . S
O52 C75 1.254 . S
O53 Gd1 2.429 . S
O53 C75 1.268 . S
O54 Gd1 2.545 . S
O54 C67 1.250 . S
O55 Gd1 2.412 . S
O55 C68 1.252 . S
C56 O45 1.284 . S
C56 O48 1.250 . S
C57 H26 0.929 . S
C57 C42 1.437 . S
C57 C58 1.317 . S
C58 H29 0.930 . S
C58 C34 1.431 . S
C58 C57 1.317 . S
C59 Gd0 2.828 . S
C59 O44 1.258 . S
C59 O49 1.252 . S
C59 C60 1.497 . S
C60 C59 1.497 . S
C60 C61 1.395 . S
C60 C62 1.380 . S
C61 C60 1.395 . S
C61 C64 1.398 . S
C61 H76 0.930 . S
C62 C60 1.380 . S
C62 C63 1.391 . S
C62 H77 0.930 . S
C63 C62 1.391 . S
C63 C65 1.387 . S
C64 C61 1.398 . S
C64 C65 1.380 . S
C64 H78 0.930 . S
C65 C63 1.387 . S
C65 C64 1.380 . S
C65 H79 0.930 . S
C66 O46 1.254 . S
C66 O47 1.268 . S
C67 O51 1.284 . S
C67 O54 1.250 . S
C68 Gd1 2.828 . S
C68 O50 1.258 . S
C68 O55 1.252 . S
C68 C69 1.497 . S
C69 C68 1.497 . S
C69 C70 1.395 . S
C69 C71 1.380 . S
C70 C69 1.395 . S
C70 C73 1.398 . S
C70 H80 0.930 . S
C71 C69 1.380 . S
C71 C72 1.391 . S
C71 H81 0.930 . S
C72 C71 1.391 . S
C72 C74 1.387 . S
C73 C70 1.398 . S
C73 C74 1.380 . S
C73 H82 0.930 . S
C74 C72 1.387 . S
C74 C73 1.380 . S
C74 H83 0.930 . S
C75 O52 1.254 . S
C75 O53 1.268 . S
H76 C61 0.930 . S
H77 C62 0.930 . S
H78 C64 0.930 . S
H79 C65 0.930 . S
H80 C70 0.930 . S
H81 C71 0.930 . S
H82 C73 0.930 . S
H83 C74 0.930 . S
Gd84 N115 2.661 . S
Gd84 N121 2.601 . S
Gd84 O128 2.545 . S
Gd84 O129 2.606 . S
Gd84 O131 2.429 . S
Gd84 O132 2.545 . S
Gd84 O133 2.412 . S
Gd84 O135 2.362 . S
Gd84 O136 2.324 . S
Gd84 C143 2.828 . S
Gd85 N94 2.661 . S
Gd85 N98 2.601 . S
Gd85 O129 2.362 . S
Gd85 O130 2.324 . S
Gd85 O134 2.545 . S
Gd85 O135 2.606 . S
Gd85 O137 2.429 . S
Gd85 O138 2.545 . S
Gd85 O139 2.412 . S
Gd85 C152 2.828 . S
C86 C89 1.417 . S
C86 C91 1.431 . S
C86 C92 1.412 . S
C87 C90 1.437 . S
C87 C91 1.317 . S
C87 H106 0.929 . S
C88 C89 1.426 . S
C88 C90 1.413 . S
C88 N98 1.359 . S
C89 C86 1.417 . S
C89 C88 1.426 . S
C89 N94 1.350 . S
C90 C87 1.437 . S
C90 C88 1.413 . S
C90 C100 1.391 . S
C91 C86 1.431 . S
C91 C87 1.317 . S
C91 H102 0.930 . S
C92 C86 1.412 . S
C92 C93 1.355 . S
C92 H104 0.930 . S
C93 C92 1.355 . S
C93 C95 1.402 . S
C93 H105 0.930 . S
N94 Gd85 2.661 . S
N94 C89 1.350 . S
N94 C95 1.307 . S
C95 C93 1.402 . S
C95 N94 1.307 . S
C95 H96 0.930 . S
H96 C95 0.930 . S
C97 N98 1.334 . S
C97 C99 1.394 . S
C97 H101 0.930 . S
N98 Gd85 2.601 . S
N98 C88 1.359 . S
N98 C97 1.334 . S
C99 C97 1.394 . S
C99 C100 1.359 . S
C99 H111 0.930 . S
C100 C90 1.391 . S
C100 C99 1.359 . S
C100 H112 0.929 . S
H101 C97 0.930 . S
H102 C91 0.930 . S
H103 C120 0.930 . S
H104 C92 0.930 . S
H105 C93 0.930 . S
H106 C87 0.929 . S
H107 C125 0.930 . S
H108 C116 0.930 . S
H109 C117 0.930 . S
H110 C141 0.929 . S
H111 C99 0.930 . S
H112 C100 0.929 . S
H113 C142 0.930 . S
H114 C123 0.930 . S
N115 Gd84 2.661 . S
N115 C119 1.350 . S
N115 C120 1.307 . S
C116 H108 0.930 . S
C116 C117 1.355 . S
C116 C118 1.412 . S
C117 H109 0.930 . S
C117 C116 1.355 . S
C117 C120 1.402 . S
C118 C116 1.412 . S
C118 C119 1.417 . S
C118 C142 1.431 . S
C119 N115 1.350 . S
C119 C118 1.417 . S
C119 C122 1.426 . S
C120 H103 0.930 . S
C120 N115 1.307 . S
C120 C117 1.402 . S
N121 Gd84 2.601 . S
N121 C122 1.359 . S
N121 C125 1.334 . S
C122 C119 1.426 . S
C122 N121 1.359 . S
C122 C126 1.413 . S
C123 H114 0.930 . S
C123 C124 1.359 . S
C123 C125 1.394 . S
C124 C123 1.359 . S
C124 C126 1.391 . S
C124 H127 0.929 . S
C125 H107 0.930 . S
C125 N121 1.334 . S
C125 C123 1.394 . S
C126 C122 1.413 . S
C126 C124 1.391 . S
C126 C141 1.437 . S
H127 C124 0.929 . S
O128 Gd84 2.545 . S
O128 C143 1.258 . S
O129 Gd84 2.606 . S
O129 Gd85 2.362 . S
O129 C140 1.284 . S
O130 Gd85 2.324 . S
O130 C150 1.254 . S
O131 Gd84 2.429 . S
O131 C150 1.268 . S
O132 Gd84 2.545 . S
O132 C140 1.250 . S
O133 Gd84 2.412 . S
O133 C143 1.252 . S
O134 Gd85 2.545 . S
O134 C152 1.258 . S
O135 Gd84 2.362 . S
O135 Gd85 2.606 . S
O135 C151 1.284 . S
O136 Gd84 2.324 . S
O136 C159 1.254 . S
O137 Gd85 2.429 . S
O137 C159 1.268 . S
O138 Gd85 2.545 . S
O138 C151 1.250 . S
O139 Gd85 2.412 . S
O139 C152 1.252 . S
C140 O129 1.284 . S
C140 O132 1.250 . S
C141 H110 0.929 . S
C141 C126 1.437 . S
C141 C142 1.317 . S
C142 H113 0.930 . S
C142 C118 1.431 . S
C142 C141 1.317 . S
C143 Gd84 2.828 . S
C143 O128 1.258 . S
C143 O133 1.252 . S
C143 C144 1.497 . S
C144 C143 1.497 . S
C144 C145 1.395 . S
C144 C146 1.380 . S
C145 C144 1.395 . S
C145 C148 1.398 . S
C145 H160 0.930 . S
C146 C144 1.380 . S
C146 C147 1.391 . S
C146 H161 0.930 . S
C147 C146 1.391 . S
C147 C149 1.387 . S
C148 C145 1.398 . S
C148 C149 1.380 . S
C148 H162 0.930 . S
C149 C147 1.387 . S
C149 C148 1.380 . S
C149 H163 0.930 . S
C150 O130 1.254 . S
C150 O131 1.268 . S
C151 O135 1.284 . S
C151 O138 1.250 . S
C152 Gd85 2.828 . S
C152 O134 1.258 . S
C152 O139 1.252 . S
C152 C153 1.497 . S
C153 C152 1.497 . S
C153 C154 1.395 . S
C153 C155 1.380 . S
C154 C153 1.395 . S
C154 C157 1.398 . S
C154 H164 0.930 . S
C155 C153 1.380 . S
C155 C156 1.391 . S
C155 H165 0.930 . S
C156 C155 1.391 . S
C156 C158 1.387 . S
C157 C154 1.398 . S
C157 C158 1.380 . S
C157 H166 0.930 . S
C158 C156 1.387 . S
C158 C157 1.380 . S
C158 H167 0.930 . S
C159 O136 1.254 . S
C159 O137 1.268 . S
H160 C145 0.930 . S
H161 C146 0.930 . S
H162 C148 0.930 . S
H163 C149 0.930 . S
H164 C154 0.930 . S
H165 C155 0.930 . S
H166 C157 0.930 . S
H167 C158 0.930 . S
Gd168 N199 2.661 . S
Gd168 N205 2.601 . S
Gd168 O212 2.545 . S
Gd168 O213 2.606 . S
Gd168 O215 2.429 . S
Gd168 O216 2.545 . S
Gd168 O217 2.412 . S
Gd168 O219 2.362 . S
Gd168 O220 2.324 . S
Gd168 C227 2.828 . S
Gd169 N178 2.661 . S
Gd169 N182 2.601 . S
Gd169 O213 2.362 . S
Gd169 O214 2.324 . S
Gd169 O218 2.545 . S
Gd169 O219 2.606 . S
Gd169 O221 2.429 . S
Gd169 O222 2.545 . S
Gd169 O223 2.412 . S
Gd169 C236 2.828 . S
C170 C173 1.417 . S
C170 C175 1.431 . S
C170 C176 1.412 . S
C171 C174 1.437 . S
C171 C175 1.317 . S
C171 H190 0.929 . S
C172 C173 1.426 . S
C172 C174 1.413 . S
C172 N182 1.359 . S
C173 C170 1.417 . S
C173 C172 1.426 . S
C173 N178 1.350 . S
C174 C171 1.437 . S
C174 C172 1.413 . S
C174 C184 1.391 . S
C175 C170 1.431 . S
C175 C171 1.317 . S
C175 H186 0.930 . S
C176 C170 1.412 . S
C176 C177 1.355 . S
C176 H188 0.930 . S
C177 C176 1.355 . S
C177 C179 1.402 . S
C177 H189 0.930 . S
N178 Gd169 2.661 . S
N178 C173 1.350 . S
N178 C179 1.307 . S
C179 C177 1.402 . S
C179 N178 1.307 . S
C179 H180 0.930 . S
H180 C179 0.930 . S
C181 N182 1.334 . S
C181 C183 1.394 . S
C181 H185 0.930 . S
N182 Gd169 2.601 . S
N182 C172 1.359 . S
N182 C181 1.334 . S
C183 C181 1.394 . S
C183 C184 1.359 . S
C183 H195 0.930 . S
C184 C174 1.391 . S
C184 C183 1.359 . S
C184 H196 0.929 . S
H185 C181 0.930 . S
H186 C175 0.930 . S
H187 C204 0.930 . S
H188 C176 0.930 . S
H189 C177 0.930 . S
H190 C171 0.929 . S
H191 C209 0.930 . S
H192 C200 0.930 . S
H193 C201 0.930 . S
H194 C225 0.929 . S
H195 C183 0.930 . S
H196 C184 0.929 . S
H197 C226 0.930 . S
H198 C207 0.930 . S
N199 Gd168 2.661 . S
N199 C203 1.350 . S
N199 C204 1.307 . S
C200 H192 0.930 . S
C200 C201 1.355 . S
C200 C202 1.412 . S
C201 H193 0.930 . S
C201 C200 1.355 . S
C201 C204 1.402 . S
C202 C200 1.412 . S
C202 C203 1.417 . S
C202 C226 1.431 . S
C203 N199 1.350 . S
C203 C202 1.417 . S
C203 C206 1.426 . S
C204 H187 0.930 . S
C204 N199 1.307 . S
C204 C201 1.402 . S
N205 Gd168 2.601 . S
N205 C206 1.359 . S
N205 C209 1.334 . S
C206 C203 1.426 . S
C206 N205 1.359 . S
C206 C210 1.413 . S
C207 H198 0.930 . S
C207 C208 1.359 . S
C207 C209 1.394 . S
C208 C207 1.359 . S
C208 C210 1.391 . S
C208 H211 0.929 . S
C209 H191 0.930 . S
C209 N205 1.334 . S
C209 C207 1.394 . S
C210 C206 1.413 . S
C210 C208 1.391 . S
C210 C225 1.437 . S
H211 C208 0.929 . S
O212 Gd168 2.545 . S
O212 C227 1.258 . S
O213 Gd168 2.606 . S
O213 Gd169 2.362 . S
O213 C224 1.284 . S
O214 Gd169 2.324 . S
O214 C234 1.254 . S
O215 Gd168 2.429 . S
O215 C234 1.268 . S
O216 Gd168 2.545 . S
O216 C224 1.250 . S
O217 Gd168 2.412 . S
O217 C227 1.252 . S
O218 Gd169 2.545 . S
O218 C236 1.258 . S
O219 Gd168 2.362 . S
O219 Gd169 2.606 . S
O219 C235 1.284 . S
O220 Gd168 2.324 . S
O220 C243 1.254 . S
O221 Gd169 2.429 . S
O221 C243 1.268 . S
O222 Gd169 2.545 . S
O222 C235 1.250 . S
O223 Gd169 2.412 . S
O223 C236 1.252 . S
C224 O213 1.284 . S
C224 O216 1.250 . S
C225 H194 0.929 . S
C225 C210 1.437 . S
C225 C226 1.317 . S
C226 H197 0.930 . S
C226 C202 1.431 . S
C226 C225 1.317 . S
C227 Gd168 2.828 . S
C227 O212 1.258 . S
C227 O217 1.252 . S
C227 C228 1.497 . S
C228 C227 1.497 . S
C228 C229 1.395 . S
C228 C230 1.380 . S
C229 C228 1.395 . S
C229 C232 1.398 . S
C229 H244 0.930 . S
C230 C228 1.380 . S
C230 C231 1.391 . S
C230 H245 0.930 . S
C231 C230 1.391 . S
C231 C233 1.387 . S
C232 C229 1.398 . S
C232 C233 1.380 . S
C232 H246 0.930 . S
C233 C231 1.387 . S
C233 C232 1.380 . S
C233 H247 0.930 . S
C234 O214 1.254 . S
C234 O215 1.268 . S
C235 O219 1.284 . S
C235 O222 1.250 . S
C236 Gd169 2.828 . S
C236 O218 1.258 . S
C236 O223 1.252 . S
C236 C237 1.497 . S
C237 C236 1.497 . S
C237 C238 1.395 . S
C237 C239 1.380 . S
C238 C237 1.395 . S
C238 C241 1.398 . S
C238 H248 0.930 . S
C239 C237 1.380 . S
C239 C240 1.391 . S
C239 H249 0.930 . S
C240 C239 1.391 . S
C240 C242 1.387 . S
C241 C238 1.398 . S
C241 C242 1.380 . S
C241 H250 0.930 . S
C242 C240 1.387 . S
C242 C241 1.380 . S
C242 H251 0.930 . S
C243 O220 1.254 . S
C243 O221 1.268 . S
H244 C229 0.930 . S
H245 C230 0.930 . S
H246 C232 0.930 . S
H247 C233 0.930 . S
H248 C238 0.930 . S
H249 C239 0.930 . S
H250 C241 0.930 . S
H251 C242 0.930 . S
Gd252 N283 2.661 . S
Gd252 N289 2.601 . S
Gd252 O296 2.545 . S
Gd252 O297 2.606 . S
Gd252 O299 2.429 . S
Gd252 O300 2.545 . S
Gd252 O301 2.412 . S
Gd252 O303 2.362 . S
Gd252 O304 2.324 . S
Gd252 C311 2.828 . S
Gd253 N262 2.661 . S
Gd253 N266 2.601 . S
Gd253 O297 2.362 . S
Gd253 O298 2.324 . S
Gd253 O302 2.545 . S
Gd253 O303 2.606 . S
Gd253 O305 2.429 . S
Gd253 O306 2.545 . S
Gd253 O307 2.412 . S
Gd253 C320 2.828 . S
C254 C257 1.417 . S
C254 C259 1.431 . S
C254 C260 1.412 . S
C255 C258 1.437 . S
C255 C259 1.317 . S
C255 H274 0.929 . S
C256 C257 1.426 . S
C256 C258 1.413 . S
C256 N266 1.359 . S
C257 C254 1.417 . S
C257 C256 1.426 . S
C257 N262 1.350 . S
C258 C255 1.437 . S
C258 C256 1.413 . S
C258 C268 1.391 . S
C259 C254 1.431 . S
C259 C255 1.317 . S
C259 H270 0.930 . S
C260 C254 1.412 . S
C260 C261 1.355 . S
C260 H272 0.930 . S
C261 C260 1.355 . S
C261 C263 1.402 . S
C261 H273 0.930 . S
N262 Gd253 2.661 . S
N262 C257 1.350 . S
N262 C263 1.307 . S
C263 C261 1.402 . S
C263 N262 1.307 . S
C263 H264 0.930 . S
H264 C263 0.930 . S
C265 N266 1.334 . S
C265 C267 1.394 . S
C265 H269 0.930 . S
N266 Gd253 2.601 . S
N266 C256 1.359 . S
N266 C265 1.334 . S
C267 C265 1.394 . S
C267 C268 1.359 . S
C267 H279 0.930 . S
C268 C258 1.391 . S
C268 C267 1.359 . S
C268 H280 0.929 . S
H269 C265 0.930 . S
H270 C259 0.930 . S
H271 C288 0.930 . S
H272 C260 0.930 . S
H273 C261 0.930 . S
H274 C255 0.929 . S
H275 C293 0.930 . S
H276 C284 0.930 . S
H277 C285 0.930 . S
H278 C309 0.929 . S
H279 C267 0.930 . S
H280 C268 0.929 . S
H281 C310 0.930 . S
H282 C291 0.930 . S
N283 Gd252 2.661 . S
N283 C287 1.350 . S
N283 C288 1.307 . S
C284 H276 0.930 . S
C284 C285 1.355 . S
C284 C286 1.412 . S
C285 H277 0.930 . S
C285 C284 1.355 . S
C285 C288 1.402 . S
C286 C284 1.412 . S
C286 C287 1.417 . S
C286 C310 1.431 . S
C287 N283 1.350 . S
C287 C286 1.417 . S
C287 C290 1.426 . S
C288 H271 0.930 . S
C288 N283 1.307 . S
C288 C285 1.402 . S
N289 Gd252 2.601 . S
N289 C290 1.359 . S
N289 C293 1.334 . S
C290 C287 1.426 . S
C290 N289 1.359 . S
C290 C294 1.413 . S
C291 H282 0.930 . S
C291 C292 1.359 . S
C291 C293 1.394 . S
C292 C291 1.359 . S
C292 C294 1.391 . S
C292 H295 0.929 . S
C293 H275 0.930 . S
C293 N289 1.334 . S
C293 C291 1.394 . S
C294 C290 1.413 . S
C294 C292 1.391 . S
C294 C309 1.437 . S
H295 C292 0.929 . S
O296 Gd252 2.545 . S
O296 C311 1.258 . S
O297 Gd252 2.606 . S
O297 Gd253 2.362 . S
O297 C308 1.284 . S
O298 Gd253 2.324 . S
O298 C318 1.254 . S
O299 Gd252 2.429 . S
O299 C318 1.268 . S
O300 Gd252 2.545 . S
O300 C308 1.250 . S
O301 Gd252 2.412 . S
O301 C311 1.252 . S
O302 Gd253 2.545 . S
O302 C320 1.258 . S
O303 Gd252 2.362 . S
O303 Gd253 2.606 . S
O303 C319 1.284 . S
O304 Gd252 2.324 . S
O304 C327 1.254 . S
O305 Gd253 2.429 . S
O305 C327 1.268 . S
O306 Gd253 2.545 . S
O306 C319 1.250 . S
O307 Gd253 2.412 . S
O307 C320 1.252 . S
C308 O297 1.284 . S
C308 O300 1.250 . S
C309 H278 0.929 . S
C309 C294 1.437 . S
C309 C310 1.317 . S
C310 H281 0.930 . S
C310 C286 1.431 . S
C310 C309 1.317 . S
C311 Gd252 2.828 . S
C311 O296 1.258 . S
C311 O301 1.252 . S
C311 C312 1.497 . S
C312 C311 1.497 . S
C312 C313 1.395 . S
C312 C314 1.380 . S
C313 C312 1.395 . S
C313 C316 1.398 . S
C313 H328 0.930 . S
C314 C312 1.380 . S
C314 C315 1.391 . S
C314 H329 0.930 . S
C315 C314 1.391 . S
C315 C317 1.387 . S
C316 C313 1.398 . S
C316 C317 1.380 . S
C316 H330 0.930 . S
C317 C315 1.387 . S
C317 C316 1.380 . S
C317 H331 0.930 . S
C318 O298 1.254 . S
C318 O299 1.268 . S
C319 O303 1.284 . S
C319 O306 1.250 . S
C320 Gd253 2.828 . S
C320 O302 1.258 . S
C320 O307 1.252 . S
C320 C321 1.497 . S
C321 C320 1.497 . S
C321 C322 1.395 . S
C321 C323 1.380 . S
C322 C321 1.395 . S
C322 C325 1.398 . S
C322 H332 0.930 . S
C323 C321 1.380 . S
C323 C324 1.391 . S
C323 H333 0.930 . S
C324 C323 1.391 . S
C324 C326 1.387 . S
C325 C322 1.398 . S
C325 C326 1.380 . S
C325 H334 0.930 . S
C326 C324 1.387 . S
C326 C325 1.380 . S
C326 H335 0.930 . S
C327 O304 1.254 . S
C327 O305 1.268 . S
H328 C313 0.930 . S
H329 C314 0.930 . S
H330 C316 0.930 . S
H331 C317 0.930 . S
H332 C322 0.930 . S
H333 C323 0.930 . S
H334 C325 0.930 . S
H335 C326 0.930 . S
Gd336 N367 2.661 . S
Gd336 N373 2.601 . S
Gd336 O380 2.545 . S
Gd336 O381 2.606 . S
Gd336 O383 2.429 . S
Gd336 O384 2.545 . S
Gd336 O385 2.412 . S
Gd336 O387 2.362 . S
Gd336 O388 2.324 . S
Gd336 C395 2.828 . S
Gd337 N346 2.661 . S
Gd337 N350 2.601 . S
Gd337 O381 2.362 . S
Gd337 O382 2.324 . S
Gd337 O386 2.545 . S
Gd337 O387 2.606 . S
Gd337 O389 2.429 . S
Gd337 O390 2.545 . S
Gd337 O391 2.412 . S
Gd337 C404 2.828 . S
C338 C341 1.417 . S
C338 C343 1.431 . S
C338 C344 1.412 . S
C339 C342 1.437 . S
C339 C343 1.317 . S
C339 H358 0.929 . S
C340 C341 1.426 . S
C340 C342 1.413 . S
C340 N350 1.359 . S
C341 C338 1.417 . S
C341 C340 1.426 . S
C341 N346 1.350 . S
C342 C339 1.437 . S
C342 C340 1.413 . S
C342 C352 1.391 . S
C343 C338 1.431 . S
C343 C339 1.317 . S
C343 H354 0.930 . S
C344 C338 1.412 . S
C344 C345 1.355 . S
C344 H356 0.930 . S
C345 C344 1.355 . S
C345 C347 1.402 . S
C345 H357 0.930 . S
N346 Gd337 2.661 . S
N346 C341 1.350 . S
N346 C347 1.307 . S
C347 C345 1.402 . S
C347 N346 1.307 . S
C347 H348 0.930 . S
H348 C347 0.930 . S
C349 N350 1.334 . S
C349 C351 1.394 . S
C349 H353 0.930 . S
N350 Gd337 2.601 . S
N350 C340 1.359 . S
N350 C349 1.334 . S
C351 C349 1.394 . S
C351 C352 1.359 . S
C351 H363 0.930 . S
C352 C342 1.391 . S
C352 C351 1.359 . S
C352 H364 0.929 . S
H353 C349 0.930 . S
H354 C343 0.930 . S
H355 C372 0.930 . S
H356 C344 0.930 . S
H357 C345 0.930 . S
H358 C339 0.929 . S
H359 C377 0.930 . S
H360 C368 0.930 . S
H361 C369 0.930 . S
H362 C393 0.929 . S
H363 C351 0.930 . S
H364 C352 0.929 . S
H365 C394 0.930 . S
H366 C375 0.930 . S
N367 Gd336 2.661 . S
N367 C371 1.350 . S
N367 C372 1.307 . S
C368 H360 0.930 . S
C368 C369 1.355 . S
C368 C370 1.412 . S
C369 H361 0.930 . S
C369 C368 1.355 . S
C369 C372 1.402 . S
C370 C368 1.412 . S
C370 C371 1.417 . S
C370 C394 1.431 . S
C371 N367 1.350 . S
C371 C370 1.417 . S
C371 C374 1.426 . S
C372 H355 0.930 . S
C372 N367 1.307 . S
C372 C369 1.402 . S
N373 Gd336 2.601 . S
N373 C374 1.359 . S
N373 C377 1.334 . S
C374 C371 1.426 . S
C374 N373 1.359 . S
C374 C378 1.413 . S
C375 H366 0.930 . S
C375 C376 1.359 . S
C375 C377 1.394 . S
C376 C375 1.359 . S
C376 C378 1.391 . S
C376 H379 0.929 . S
C377 H359 0.930 . S
C377 N373 1.334 . S
C377 C375 1.394 . S
C378 C374 1.413 . S
C378 C376 1.391 . S
C378 C393 1.437 . S
H379 C376 0.929 . S
O380 Gd336 2.545 . S
O380 C395 1.258 . S
O381 Gd336 2.606 . S
O381 Gd337 2.362 . S
O381 C392 1.284 . S
O382 Gd337 2.324 . S
O382 C402 1.254 . S
O383 Gd336 2.429 . S
O383 C402 1.268 . S
O384 Gd336 2.545 . S
O384 C392 1.250 . S
O385 Gd336 2.412 . S
O385 C395 1.252 . S
O386 Gd337 2.545 . S
O386 C404 1.258 . S
O387 Gd336 2.362 . S
O387 Gd337 2.606 . S
O387 C403 1.284 . S
O388 Gd336 2.324 . S
O388 C411 1.254 . S
O389 Gd337 2.429 . S
O389 C411 1.268 . S
O390 Gd337 2.545 . S
O390 C403 1.250 . S
O391 Gd337 2.412 . S
O391 C404 1.252 . S
C392 O381 1.284 . S
C392 O384 1.250 . S
C393 H362 0.929 . S
C393 C378 1.437 . S
C393 C394 1.317 . S
C394 H365 0.930 . S
C394 C370 1.431 . S
C394 C393 1.317 . S
C395 Gd336 2.828 . S
C395 O380 1.258 . S
C395 O385 1.252 . S
C395 C396 1.497 . S
C396 C395 1.497 . S
C396 C397 1.395 . S
C396 C398 1.380 . S
C397 C396 1.395 . S
C397 C400 1.398 . S
C397 H412 0.930 . S
C398 C396 1.380 . S
C398 C399 1.391 . S
C398 H413 0.930 . S
C399 C398 1.391 . S
C399 C401 1.387 . S
C400 C397 1.398 . S
C400 C401 1.380 . S
C400 H414 0.930 . S
C401 C399 1.387 . S
C401 C400 1.380 . S
C401 H415 0.930 . S
C402 O382 1.254 . S
C402 O383 1.268 . S
C403 O387 1.284 . S
C403 O390 1.250 . S
C404 Gd337 2.828 . S
C404 O386 1.258 . S
C404 O391 1.252 . S
C404 C405 1.497 . S
C405 C404 1.497 . S
C405 C406 1.395 . S
C405 C407 1.380 . S
C406 C405 1.395 . S
C406 C409 1.398 . S
C406 H416 0.930 . S
C407 C405 1.380 . S
C407 C408 1.391 . S
C407 H417 0.930 . S
C408 C407 1.391 . S
C408 C410 1.387 . S
C409 C406 1.398 . S
C409 C410 1.380 . S
C409 H418 0.930 . S
C410 C408 1.387 . S
C410 C409 1.380 . S
C410 H419 0.930 . S
C411 O388 1.254 . S
C411 O389 1.268 . S
H412 C397 0.930 . S
H413 C398 0.930 . S
H414 C400 0.930 . S
H415 C401 0.930 . S
H416 C406 0.930 . S
H417 C407 0.930 . S
H418 C409 0.930 . S
H419 C410 0.930 . S
Gd420 N451 2.661 . S
Gd420 N457 2.601 . S
Gd420 O464 2.545 . S
Gd420 O465 2.606 . S
Gd420 O467 2.429 . S
Gd420 O468 2.545 . S
Gd420 O469 2.412 . S
Gd420 O471 2.362 . S
Gd420 O472 2.324 . S
Gd420 C479 2.828 . S
Gd421 N430 2.661 . S
Gd421 N434 2.601 . S
Gd421 O465 2.362 . S
Gd421 O466 2.324 . S
Gd421 O470 2.545 . S
Gd421 O471 2.606 . S
Gd421 O473 2.429 . S
Gd421 O474 2.545 . S
Gd421 O475 2.412 . S
Gd421 C488 2.828 . S
C422 C425 1.417 . S
C422 C427 1.431 . S
C422 C428 1.412 . S
C423 C426 1.437 . S
C423 C427 1.317 . S
C423 H442 0.929 . S
C424 C425 1.426 . S
C424 C426 1.413 . S
C424 N434 1.359 . S
C425 C422 1.417 . S
C425 C424 1.426 . S
C425 N430 1.350 . S
C426 C423 1.437 . S
C426 C424 1.413 . S
C426 C436 1.391 . S
C427 C422 1.431 . S
C427 C423 1.317 . S
C427 H438 0.930 . S
C428 C422 1.412 . S
C428 C429 1.355 . S
C428 H440 0.930 . S
C429 C428 1.355 . S
C429 C431 1.402 . S
C429 H441 0.930 . S
N430 Gd421 2.661 . S
N430 C425 1.350 . S
N430 C431 1.307 . S
C431 C429 1.402 . S
C431 N430 1.307 . S
C431 H432 0.930 . S
H432 C431 0.930 . S
C433 N434 1.334 . S
C433 C435 1.394 . S
C433 H437 0.930 . S
N434 Gd421 2.601 . S
N434 C424 1.359 . S
N434 C433 1.334 . S
C435 C433 1.394 . S
C435 C436 1.359 . S
C435 H447 0.930 . S
C436 C426 1.391 . S
C436 C435 1.359 . S
C436 H448 0.929 . S
H437 C433 0.930 . S
H438 C427 0.930 . S
H439 C456 0.930 . S
H440 C428 0.930 . S
H441 C429 0.930 . S
H442 C423 0.929 . S
H443 C461 0.930 . S
H444 C452 0.930 . S
H445 C453 0.930 . S
H446 C477 0.929 . S
H447 C435 0.930 . S
H448 C436 0.929 . S
H449 C478 0.930 . S
H450 C459 0.930 . S
N451 Gd420 2.661 . S
N451 C455 1.350 . S
N451 C456 1.307 . S
C452 H444 0.930 . S
C452 C453 1.355 . S
C452 C454 1.412 . S
C453 H445 0.930 . S
C453 C452 1.355 . S
C453 C456 1.402 . S
C454 C452 1.412 . S
C454 C455 1.417 . S
C454 C478 1.431 . S
C455 N451 1.350 . S
C455 C454 1.417 . S
C455 C458 1.426 . S
C456 H439 0.930 . S
C456 N451 1.307 . S
C456 C453 1.402 . S
N457 Gd420 2.601 . S
N457 C458 1.359 . S
N457 C461 1.334 . S
C458 C455 1.426 . S
C458 N457 1.359 . S
C458 C462 1.413 . S
C459 H450 0.930 . S
C459 C460 1.359 . S
C459 C461 1.394 . S
C460 C459 1.359 . S
C460 C462 1.391 . S
C460 H463 0.929 . S
C461 H443 0.930 . S
C461 N457 1.334 . S
C461 C459 1.394 . S
C462 C458 1.413 . S
C462 C460 1.391 . S
C462 C477 1.437 . S
H463 C460 0.929 . S
O464 Gd420 2.545 . S
O464 C479 1.258 . S
O465 Gd420 2.606 . S
O465 Gd421 2.362 . S
O465 C476 1.284 . S
O466 Gd421 2.324 . S
O466 C486 1.254 . S
O467 Gd420 2.429 . S
O467 C486 1.268 . S
O468 Gd420 2.545 . S
O468 C476 1.250 . S
O469 Gd420 2.412 . S
O469 C479 1.252 . S
O470 Gd421 2.545 . S
O470 C488 1.258 . S
O471 Gd420 2.362 . S
O471 Gd421 2.606 . S
O471 C487 1.284 . S
O472 Gd420 2.324 . S
O472 C495 1.254 . S
O473 Gd421 2.429 . S
O473 C495 1.268 . S
O474 Gd421 2.545 . S
O474 C487 1.250 . S
O475 Gd421 2.412 . S
O475 C488 1.252 . S
C476 O465 1.284 . S
C476 O468 1.250 . S
C477 H446 0.929 . S
C477 C462 1.437 . S
C477 C478 1.317 . S
C478 H449 0.930 . S
C478 C454 1.431 . S
C478 C477 1.317 . S
C479 Gd420 2.828 . S
C479 O464 1.258 . S
C479 O469 1.252 . S
C479 C480 1.497 . S
C480 C479 1.497 . S
C480 C481 1.395 . S
C480 C482 1.380 . S
C481 C480 1.395 . S
C481 C484 1.398 . S
C481 H496 0.930 . S
C482 C480 1.380 . S
C482 C483 1.391 . S
C482 H497 0.930 . S
C483 C482 1.391 . S
C483 C485 1.387 . S
C484 C481 1.398 . S
C484 C485 1.380 . S
C484 H498 0.930 . S
C485 C483 1.387 . S
C485 C484 1.380 . S
C485 H499 0.930 . S
C486 O466 1.254 . S
C486 O467 1.268 . S
C487 O471 1.284 . S
C487 O474 1.250 . S
C488 Gd421 2.828 . S
C488 O470 1.258 . S
C488 O475 1.252 . S
C488 C489 1.497 . S
C489 C488 1.497 . S
C489 C490 1.395 . S
C489 C491 1.380 . S
C490 C489 1.395 . S
C490 C493 1.398 . S
C490 H500 0.930 . S
C491 C489 1.380 . S
C491 C492 1.391 . S
C491 H501 0.930 . S
C492 C491 1.391 . S
C492 C494 1.387 . S
C493 C490 1.398 . S
C493 C494 1.380 . S
C493 H502 0.930 . S
C494 C492 1.387 . S
C494 C493 1.380 . S
C494 H503 0.930 . S
C495 O472 1.254 . S
C495 O473 1.268 . S
H496 C481 0.930 . S
H497 C482 0.930 . S
H498 C484 0.930 . S
H499 C485 0.930 . S
H500 C490 0.930 . S
H501 C491 0.930 . S
H502 C493 0.930 . S
H503 C494 0.930 . S
Gd504 N535 2.661 . S
Gd504 N541 2.601 . S
Gd504 O548 2.545 . S
Gd504 O549 2.606 . S
Gd504 O551 2.429 . S
Gd504 O552 2.545 . S
Gd504 O553 2.412 . S
Gd504 O555 2.362 . S
Gd504 O556 2.324 . S
Gd504 C563 2.828 . S
Gd505 N514 2.661 . S
Gd505 N518 2.601 . S
Gd505 O549 2.362 . S
Gd505 O550 2.324 . S
Gd505 O554 2.545 . S
Gd505 O555 2.606 . S
Gd505 O557 2.429 . S
Gd505 O558 2.545 . S
Gd505 O559 2.412 . S
Gd505 C572 2.828 . S
C506 C509 1.417 . S
C506 C511 1.431 . S
C506 C512 1.412 . S
C507 C510 1.437 . S
C507 C511 1.317 . S
C507 H526 0.929 . S
C508 C509 1.426 . S
C508 C510 1.413 . S
C508 N518 1.359 . S
C509 C506 1.417 . S
C509 C508 1.426 . S
C509 N514 1.350 . S
C510 C507 1.437 . S
C510 C508 1.413 . S
C510 C520 1.391 . S
C511 C506 1.431 . S
C511 C507 1.317 . S
C511 H522 0.930 . S
C512 C506 1.412 . S
C512 C513 1.355 . S
C512 H524 0.930 . S
C513 C512 1.355 . S
C513 C515 1.402 . S
C513 H525 0.930 . S
N514 Gd505 2.661 . S
N514 C509 1.350 . S
N514 C515 1.307 . S
C515 C513 1.402 . S
C515 N514 1.307 . S
C515 H516 0.930 . S
H516 C515 0.930 . S
C517 N518 1.334 . S
C517 C519 1.394 . S
C517 H521 0.930 . S
N518 Gd505 2.601 . S
N518 C508 1.359 . S
N518 C517 1.334 . S
C519 C517 1.394 . S
C519 C520 1.359 . S
C519 H531 0.930 . S
C520 C510 1.391 . S
C520 C519 1.359 . S
C520 H532 0.929 . S
H521 C517 0.930 . S
H522 C511 0.930 . S
H523 C540 0.930 . S
H524 C512 0.930 . S
H525 C513 0.930 . S
H526 C507 0.929 . S
H527 C545 0.930 . S
H528 C536 0.930 . S
H529 C537 0.930 . S
H530 C561 0.929 . S
H531 C519 0.930 . S
H532 C520 0.929 . S
H533 C562 0.930 . S
H534 C543 0.930 . S
N535 Gd504 2.661 . S
N535 C539 1.350 . S
N535 C540 1.307 . S
C536 H528 0.930 . S
C536 C537 1.355 . S
C536 C538 1.412 . S
C537 H529 0.930 . S
C537 C536 1.355 . S
C537 C540 1.402 . S
C538 C536 1.412 . S
C538 C539 1.417 . S
C538 C562 1.431 . S
C539 N535 1.350 . S
C539 C538 1.417 . S
C539 C542 1.426 . S
C540 H523 0.930 . S
C540 N535 1.307 . S
C540 C537 1.402 . S
N541 Gd504 2.601 . S
N541 C542 1.359 . S
N541 C545 1.334 . S
C542 C539 1.426 . S
C542 N541 1.359 . S
C542 C546 1.413 . S
C543 H534 0.930 . S
C543 C544 1.359 . S
C543 C545 1.394 . S
C544 C543 1.359 . S
C544 C546 1.391 . S
C544 H547 0.929 . S
C545 H527 0.930 . S
C545 N541 1.334 . S
C545 C543 1.394 . S
C546 C542 1.413 . S
C546 C544 1.391 . S
C546 C561 1.437 . S
H547 C544 0.929 . S
O548 Gd504 2.545 . S
O548 C563 1.258 . S
O549 Gd504 2.606 . S
O549 Gd505 2.362 . S
O549 C560 1.284 . S
O550 Gd505 2.324 . S
O550 C570 1.254 . S
O551 Gd504 2.429 . S
O551 C570 1.268 . S
O552 Gd504 2.545 . S
O552 C560 1.250 . S
O553 Gd504 2.412 . S
O553 C563 1.252 . S
O554 Gd505 2.545 . S
O554 C572 1.258 . S
O555 Gd504 2.362 . S
O555 Gd505 2.606 . S
O555 C571 1.284 . S
O556 Gd504 2.324 . S
O556 C579 1.254 . S
O557 Gd505 2.429 . S
O557 C579 1.268 . S
O558 Gd505 2.545 . S
O558 C571 1.250 . S
O559 Gd505 2.412 . S
O559 C572 1.252 . S
C560 O549 1.284 . S
C560 O552 1.250 . S
C561 H530 0.929 . S
C561 C546 1.437 . S
C561 C562 1.317 . S
C562 H533 0.930 . S
C562 C538 1.431 . S
C562 C561 1.317 . S
C563 Gd504 2.828 . S
C563 O548 1.258 . S
C563 O553 1.252 . S
C563 C564 1.497 . S
C564 C563 1.497 . S
C564 C565 1.395 . S
C564 C566 1.380 . S
C565 C564 1.395 . S
C565 C568 1.398 . S
C565 H580 0.930 . S
C566 C564 1.380 . S
C566 C567 1.391 . S
C566 H581 0.930 . S
C567 C566 1.391 . S
C567 C569 1.387 . S
C568 C565 1.398 . S
C568 C569 1.380 . S
C568 H582 0.930 . S
C569 C567 1.387 . S
C569 C568 1.380 . S
C569 H583 0.930 . S
C570 O550 1.254 . S
C570 O551 1.268 . S
C571 O555 1.284 . S
C571 O558 1.250 . S
C572 Gd505 2.828 . S
C572 O554 1.258 . S
C572 O559 1.252 . S
C572 C573 1.497 . S
C573 C572 1.497 . S
C573 C574 1.395 . S
C573 C575 1.380 . S
C574 C573 1.395 . S
C574 C577 1.398 . S
C574 H584 0.930 . S
C575 C573 1.380 . S
C575 C576 1.391 . S
C575 H585 0.930 . S
C576 C575 1.391 . S
C576 C578 1.387 . S
C577 C574 1.398 . S
C577 C578 1.380 . S
C577 H586 0.930 . S
C578 C576 1.387 . S
C578 C577 1.380 . S
C578 H587 0.930 . S
C579 O556 1.254 . S
C579 O557 1.268 . S
H580 C565 0.930 . S
H581 C566 0.930 . S
H582 C568 0.930 . S
H583 C569 0.930 . S
H584 C574 0.930 . S
H585 C575 0.930 . S
H586 C577 0.930 . S
H587 C578 0.930 . S
Gd588 N619 2.661 . S
Gd588 N625 2.601 . S
Gd588 O632 2.545 . S
Gd588 O633 2.606 . S
Gd588 O635 2.429 . S
Gd588 O636 2.545 . S
Gd588 O637 2.412 . S
Gd588 O639 2.362 . S
Gd588 O640 2.324 . S
Gd588 C647 2.828 . S
Gd589 N598 2.661 . S
Gd589 N602 2.601 . S
Gd589 O633 2.362 . S
Gd589 O634 2.324 . S
Gd589 O638 2.545 . S
Gd589 O639 2.606 . S
Gd589 O641 2.429 . S
Gd589 O642 2.545 . S
Gd589 O643 2.412 . S
Gd589 C656 2.828 . S
C590 C593 1.417 . S
C590 C595 1.431 . S
C590 C596 1.412 . S
C591 C594 1.437 . S
C591 C595 1.317 . S
C591 H610 0.929 . S
C592 C593 1.426 . S
C592 C594 1.413 . S
C592 N602 1.359 . S
C593 C590 1.417 . S
C593 C592 1.426 . S
C593 N598 1.350 . S
C594 C591 1.437 . S
C594 C592 1.413 . S
C594 C604 1.391 . S
C595 C590 1.431 . S
C595 C591 1.317 . S
C595 H606 0.930 . S
C596 C590 1.412 . S
C596 C597 1.355 . S
C596 H608 0.930 . S
C597 C596 1.355 . S
C597 C599 1.402 . S
C597 H609 0.930 . S
N598 Gd589 2.661 . S
N598 C593 1.350 . S
N598 C599 1.307 . S
C599 C597 1.402 . S
C599 N598 1.307 . S
C599 H600 0.930 . S
H600 C599 0.930 . S
C601 N602 1.334 . S
C601 C603 1.394 . S
C601 H605 0.930 . S
N602 Gd589 2.601 . S
N602 C592 1.359 . S
N602 C601 1.334 . S
C603 C601 1.394 . S
C603 C604 1.359 . S
C603 H615 0.930 . S
C604 C594 1.391 . S
C604 C603 1.359 . S
C604 H616 0.929 . S
H605 C601 0.930 . S
H606 C595 0.930 . S
H607 C624 0.930 . S
H608 C596 0.930 . S
H609 C597 0.930 . S
H610 C591 0.929 . S
H611 C629 0.930 . S
H612 C620 0.930 . S
H613 C621 0.930 . S
H614 C645 0.929 . S
H615 C603 0.930 . S
H616 C604 0.929 . S
H617 C646 0.930 . S
H618 C627 0.930 . S
N619 Gd588 2.661 . S
N619 C623 1.350 . S
N619 C624 1.307 . S
C620 H612 0.930 . S
C620 C621 1.355 . S
C620 C622 1.412 . S
C621 H613 0.930 . S
C621 C620 1.355 . S
C621 C624 1.402 . S
C622 C620 1.412 . S
C622 C623 1.417 . S
C622 C646 1.431 . S
C623 N619 1.350 . S
C623 C622 1.417 . S
C623 C626 1.426 . S
C624 H607 0.930 . S
C624 N619 1.307 . S
C624 C621 1.402 . S
N625 Gd588 2.601 . S
N625 C626 1.359 . S
N625 C629 1.334 . S
C626 C623 1.426 . S
C626 N625 1.359 . S
C626 C630 1.413 . S
C627 H618 0.930 . S
C627 C628 1.359 . S
C627 C629 1.394 . S
C628 C627 1.359 . S
C628 C630 1.391 . S
C628 H631 0.929 . S
C629 H611 0.930 . S
C629 N625 1.334 . S
C629 C627 1.394 . S
C630 C626 1.413 . S
C630 C628 1.391 . S
C630 C645 1.437 . S
H631 C628 0.929 . S
O632 Gd588 2.545 . S
O632 C647 1.258 . S
O633 Gd588 2.606 . S
O633 Gd589 2.362 . S
O633 C644 1.284 . S
O634 Gd589 2.324 . S
O634 C654 1.254 . S
O635 Gd588 2.429 . S
O635 C654 1.268 . S
O636 Gd588 2.545 . S
O636 C644 1.250 . S
O637 Gd588 2.412 . S
O637 C647 1.252 . S
O638 Gd589 2.545 . S
O638 C656 1.258 . S
O639 Gd588 2.362 . S
O639 Gd589 2.606 . S
O639 C655 1.284 . S
O640 Gd588 2.324 . S
O640 C663 1.254 . S
O641 Gd589 2.429 . S
O641 C663 1.268 . S
O642 Gd589 2.545 . S
O642 C655 1.250 . S
O643 Gd589 2.412 . S
O643 C656 1.252 . S
C644 O633 1.284 . S
C644 O636 1.250 . S
C645 H614 0.929 . S
C645 C630 1.437 . S
C645 C646 1.317 . S
C646 H617 0.930 . S
C646 C622 1.431 . S
C646 C645 1.317 . S
C647 Gd588 2.828 . S
C647 O632 1.258 . S
C647 O637 1.252 . S
C647 C648 1.497 . S
C648 C647 1.497 . S
C648 C649 1.395 . S
C648 C650 1.380 . S
C649 C648 1.395 . S
C649 C652 1.398 . S
C649 H664 0.930 . S
C650 C648 1.380 . S
C650 C651 1.391 . S
C650 H665 0.930 . S
C651 C650 1.391 . S
C651 C653 1.387 . S
C652 C649 1.398 . S
C652 C653 1.380 . S
C652 H666 0.930 . S
C653 C651 1.387 . S
C653 C652 1.380 . S
C653 H667 0.930 . S
C654 O634 1.254 . S
C654 O635 1.268 . S
C655 O639 1.284 . S
C655 O642 1.250 . S
C656 Gd589 2.828 . S
C656 O638 1.258 . S
C656 O643 1.252 . S
C656 C657 1.497 . S
C657 C656 1.497 . S
C657 C658 1.395 . S
C657 C659 1.380 . S
C658 C657 1.395 . S
C658 C661 1.398 . S
C658 H668 0.930 . S
C659 C657 1.380 . S
C659 C660 1.391 . S
C659 H669 0.930 . S
C660 C659 1.391 . S
C660 C662 1.387 . S
C661 C658 1.398 . S
C661 C662 1.380 . S
C661 H670 0.930 . S
C662 C660 1.387 . S
C662 C661 1.380 . S
C662 H671 0.930 . S
C663 O640 1.254 . S
C663 O641 1.268 . S
H664 C649 0.930 . S
H665 C650 0.930 . S
H666 C652 0.930 . S
H667 C653 0.930 . S
H668 C658 0.930 . S
H669 C659 0.930 . S
H670 C661 0.930 . S
H671 C662 0.930 . S
Co672 O675 2.042 . S
Co672 O682 2.264 . S
Co672 O701 2.286 . S
Co672 O702 2.069 . S
Co672 O704 2.015 1_455 S
Co673 O675 2.122 . S
Co673 O681 2.073 . S
Co673 O682 2.327 . S
Co673 O683 1.976 1_455 S
Co674 O675 2.087 1_545 S
Co674 O677 2.087 1_455 S
Co674 O684 2.111 1_445 S
Co674 O685 2.143 . S
Co674 O689 2.111 . S
Co674 O703 2.143 1_445 S
O675 Co672 2.042 . S
O675 Co673 2.122 . S
O675 Co674 2.087 1_565 S
O675 H676 0.980 1_565 S
H676 O675 0.980 1_545 S
O677 Co674 2.087 1_655 S
O677 Co678 2.042 . S
O677 Co679 2.122 . S
O677 H680 0.980 . S
Co678 O677 2.042 . S
Co678 O686 2.286 . S
Co678 O687 2.069 . S
Co678 O688 2.015 1_655 S
Co678 O691 2.264 . S
Co679 O677 2.122 . S
Co679 O690 1.976 1_655 S
Co679 O691 2.327 . S
Co679 O692 2.073 . S
H680 O677 0.980 . S
O681 Co673 2.073 . S
O681 C696 1.245 . S
O682 Co672 2.264 . S
O682 Co673 2.327 . S
O682 C696 1.257 . S
O683 Co673 1.976 1_655 S
O683 C695 1.251 . S
O684 Co674 2.111 1_665 S
O684 C695 1.274 . S
O685 Co674 2.143 . S
O685 C698 1.246 . S
O686 Co678 2.286 . S
O686 C697 1.259 . S
O687 Co678 2.069 . S
O687 C697 1.289 . S
O688 Co678 2.015 1_455 S
O688 C698 1.257 . S
O689 Co674 2.111 . S
O689 C699 1.274 . S
O690 Co679 1.976 1_455 S
O690 C699 1.251 . S
O691 Co678 2.264 . S
O691 Co679 2.327 . S
O691 C700 1.257 . S
O692 Co679 2.073 . S
O692 C700 1.245 . S
C693 O701 1.259 . S
C693 O702 1.289 . S
C694 O703 1.246 . S
C694 O704 1.257 . S
C695 O683 1.251 . S
C695 O684 1.274 . S
C696 O681 1.245 . S
C696 O682 1.257 . S
C697 O686 1.259 . S
C697 O687 1.289 . S
C698 O685 1.246 . S
C698 O688 1.257 . S
C699 O689 1.274 . S
C699 O690 1.251 . S
C700 O691 1.257 . S
C700 O692 1.245 . S
O701 Co672 2.286 . S
O701 C693 1.259 . S
O702 Co672 2.069 . S
O702 C693 1.289 . S
O703 Co674 2.143 1_665 S
O703 C694 1.246 . S
O704 Co672 2.015 1_655 S
O704 C694 1.257 . S
Co705 O708 2.042 1_566 S
Co705 O715 2.264 1_556 S
Co705 O734 2.286 . S
Co705 O735 2.069 . S
Co705 O737 2.015 . S
Co706 O708 2.122 1_565 S
Co706 O714 2.073 . S
Co706 O715 2.327 . S
Co706 O716 1.976 . S
Co707 O708 2.087 . S
Co707 O710 2.087 1_554 S
Co707 O717 2.111 . S
Co707 O718 2.143 . S
Co707 O722 2.111 1_554 S
Co707 O736 2.143 1_554 S
O708 Co705 2.042 1_544 S
O708 Co706 2.122 1_545 S
O708 Co707 2.087 . S
O708 H709 0.980 . S
H709 O708 0.980 . S
O710 Co707 2.087 1_556 S
O710 Co711 2.042 1_556 S
O710 Co712 2.122 . S
O710 H713 0.980 . S
Co711 O710 2.042 1_554 S
Co711 O719 2.286 . S
Co711 O720 2.069 . S
Co711 O721 2.015 . S
Co711 O724 2.264 1_554 S
Co712 O710 2.122 . S
Co712 O723 1.976 . S
Co712 O724 2.327 . S
Co712 O725 2.073 . S
H713 O710 0.980 . S
O714 Co706 2.073 . S
O714 C729 1.245 . S
O715 Co705 2.264 1_554 S
O715 Co706 2.327 . S
O715 C729 1.257 . S
O716 Co706 1.976 . S
O716 C728 1.251 . S
O717 Co707 2.111 . S
O717 C728 1.274 1_545 S
O718 Co707 2.143 . S
O718 C731 1.246 . S
O719 Co711 2.286 . S
O719 C730 1.259 . S
O720 Co711 2.069 . S
O720 C730 1.289 . S
O721 Co711 2.015 . S
O721 C731 1.257 . S
O722 Co707 2.111 1_556 S
O722 C732 1.274 . S
O723 Co712 1.976 . S
O723 C732 1.251 . S
O724 Co711 2.264 1_556 S
O724 Co712 2.327 . S
O724 C733 1.257 . S
O725 Co712 2.073 . S
O725 C733 1.245 . S
C726 O734 1.259 . S
C726 O735 1.289 . S
C727 O736 1.246 1_565 S
C727 O737 1.257 . S
C728 O716 1.251 . S
C728 O717 1.274 1_565 S
C729 O714 1.245 . S
C729 O715 1.257 . S
C730 O719 1.259 . S
C730 O720 1.289 . S
C731 O718 1.246 . S
C731 O721 1.257 . S
C732 O722 1.274 . S
C732 O723 1.251 . S
C733 O724 1.257 . S
C733 O725 1.245 . S
O734 Co705 2.286 . S
O734 C726 1.259 . S
O735 Co705 2.069 . S
O735 C726 1.289 . S
O736 Co707 2.143 1_556 S
O736 C727 1.246 1_545 S
O737 Co705 2.015 . S
O737 C727 1.257 . S
Co738 O741 2.042 . S
Co738 O748 2.264 . S
Co738 O767 2.286 . S
Co738 O768 2.069 . S
Co738 O770 2.015 1_455 S
Co739 O741 2.122 . S
Co739 O747 2.073 . S
Co739 O748 2.327 . S
Co739 O749 1.976 1_455 S
Co740 O741 2.087 . S
Co740 O743 2.087 1_455 S
Co740 O750 2.111 1_455 S
Co740 O751 2.143 . S
Co740 O755 2.111 . S
Co740 O769 2.143 1_455 S
O741 Co738 2.042 . S
O741 Co739 2.122 . S
O741 Co740 2.087 . S
O741 H742 0.980 . S
H742 O741 0.980 . S
O743 Co740 2.087 1_655 S
O743 Co744 2.042 . S
O743 Co745 2.122 1_554 S
O743 H746 0.980 . S
Co744 O743 2.042 . S
Co744 O752 2.286 . S
Co744 O753 2.069 . S
Co744 O754 2.015 1_655 S
Co744 O757 2.264 . S
Co745 O743 2.122 1_556 S
Co745 O756 1.976 1_655 S
Co745 O757 2.327 1_556 S
Co745 O758 2.073 . S
H746 O743 0.980 . S
O747 Co739 2.073 . S
O747 C762 1.245 . S
O748 Co738 2.264 . S
O748 Co739 2.327 . S
O748 C762 1.257 . S
O749 Co739 1.976 1_655 S
O749 C761 1.251 . S
O750 Co740 2.111 1_655 S
O750 C761 1.274 . S
O751 Co740 2.143 . S
O751 C764 1.246 . S
O752 Co744 2.286 . S
O752 C763 1.259 . S
O753 Co744 2.069 . S
O753 C763 1.289 . S
O754 Co744 2.015 1_455 S
O754 C764 1.257 . S
O755 Co740 2.111 . S
O755 C765 1.274 . S
O756 Co745 1.976 1_455 S
O756 C765 1.251 1_556 S
O757 Co744 2.264 . S
O757 Co745 2.327 1_554 S
O757 C766 1.257 . S
O758 Co745 2.073 . S
O758 C766 1.245 1_556 S
C759 O767 1.259 . S
C759 O768 1.289 . S
C760 O769 1.246 . S
C760 O770 1.257 . S
C761 O749 1.251 . S
C761 O750 1.274 . S
C762 O747 1.245 . S
C762 O748 1.257 . S
C763 O752 1.259 . S
C763 O753 1.289 . S
C764 O751 1.246 . S
C764 O754 1.257 . S
C765 O755 1.274 . S
C765 O756 1.251 1_554 S
C766 O757 1.257 . S
C766 O758 1.245 1_554 S
O767 Co738 2.286 . S
O767 C759 1.259 . S
O768 Co738 2.069 . S
O768 C759 1.289 . S
O769 Co740 2.143 1_655 S
O769 C760 1.246 . S
O770 Co738 2.015 1_655 S
O770 C760 1.257 . S
Co771 O774 2.042 . S
Co771 O781 2.264 . S
Co771 O800 2.286 1_554 S
Co771 O801 2.066 1_554 S
Co771 O803 2.015 1_554 S
Co772 O774 2.122 . S
Co772 O780 2.073 . S
Co772 O781 2.327 . S
Co772 O782 1.976 . S
Co773 O774 2.087 . S
Co773 O776 2.087 . S
Co773 O783 2.111 . S
Co773 O784 2.143 . S
Co773 O788 2.111 1_554 S
Co773 O802 2.143 1_554 S
O774 Co771 2.042 . S
O774 Co772 2.122 . S
O774 Co773 2.087 . S
O774 H775 0.980 . S
H775 O774 0.980 . S
O776 Co773 2.087 . S
O776 Co777 2.042 . S
O776 Co778 2.122 1_554 S
O776 H779 0.980 . S
Co777 O776 2.042 . S
Co777 O785 2.286 . S
Co777 O786 2.069 . S
Co777 O787 2.015 . S
Co777 O790 2.264 1_554 S
Co778 O776 2.122 1_556 S
Co778 O789 1.976 . S
Co778 O790 2.327 . S
Co778 O791 2.073 . S
H779 O776 0.980 . S
O780 Co772 2.073 . S
O780 C795 1.245 . S
O781 Co771 2.264 . S
O781 Co772 2.327 . S
O781 C795 1.257 . S
O782 Co772 1.976 . S
O782 C794 1.251 . S
O783 Co773 2.111 . S
O783 C794 1.274 . S
O784 Co773 2.143 . S
O784 C797 1.246 . S
O785 Co777 2.286 . S
O785 C796 1.259 . S
O786 Co777 2.069 . S
O786 C796 1.289 . S
O787 Co777 2.015 . S
O787 C797 1.257 . S
O788 Co773 2.111 1_556 S
O788 C798 1.274 . S
O789 Co778 1.976 . S
O789 C798 1.251 . S
O790 Co777 2.264 1_556 S
O790 Co778 2.327 . S
O790 C799 1.257 . S
O791 Co778 2.073 . S
O791 C799 1.245 . S
C792 O800 1.259 . S
C792 O801 1.295 . S
C793 O802 1.246 . S
C793 O803 1.257 . S
C794 O782 1.251 . S
C794 O783 1.274 . S
C795 O780 1.245 . S
C795 O781 1.257 . S
C796 O785 1.259 . S
C796 O786 1.289 . S
C797 O784 1.246 . S
C797 O787 1.257 . S
C798 O788 1.274 . S
C798 O789 1.251 . S
C799 O790 1.257 . S
C799 O791 1.245 . S
O800 Co771 2.286 1_556 S
O800 C792 1.259 . S
O801 Co771 2.066 1_556 S
O801 C792 1.295 . S
O802 Co773 2.143 1_556 S
O802 C793 1.246 . S
O803 Co771 2.015 1_556 S
O803 C793 1.257 . S
Co804 O807 2.042 . S
Co804 O814 2.264 . S
Co804 O833 2.286 . S
Co804 O834 2.069 . S
Co804 O836 2.015 . S
Co805 O807 2.122 . S
Co805 O813 2.073 . S
Co805 O814 2.327 . S
Co805 O815 1.976 . S
Co806 O807 2.087 . S
Co806 O809 2.087 . S
Co806 O816 2.111 . S
Co806 O817 2.143 1_455 S
Co806 O821 2.111 . S
Co806 O835 2.143 . S
O807 Co804 2.042 . S
O807 Co805 2.122 . S
O807 Co806 2.087 . S
O807 H808 0.980 . S
H808 O807 0.980 . S
O809 Co806 2.087 . S
O809 Co810 2.042 1_455 S
O809 Co811 2.122 1_455 S
O809 H812 0.980 . S
Co810 O809 2.042 1_655 S
Co810 O818 2.286 . S
Co810 O819 2.069 . S
Co810 O820 2.015 . S
Co810 O823 2.264 . S
Co811 O809 2.122 1_655 S
Co811 O822 1.976 . S
Co811 O823 2.327 . S
Co811 O824 2.073 . S
H812 O809 0.980 . S
O813 Co805 2.073 . S
O813 C828 1.245 . S
O814 Co804 2.264 . S
O814 Co805 2.327 . S
O814 C828 1.257 . S
O815 Co805 1.976 . S
O815 C827 1.251 . S
O816 Co806 2.111 . S
O816 C827 1.274 . S
O817 Co806 2.143 1_655 S
O817 C830 1.246 . S
O818 Co810 2.286 . S
O818 C829 1.259 . S
O819 Co810 2.069 . S
O819 C829 1.289 . S
O820 Co810 2.015 . S
O820 C830 1.257 . S
O821 Co806 2.111 . S
O821 C831 1.274 1_455 S
O822 Co811 1.976 . S
O822 C831 1.251 . S
O823 Co810 2.264 . S
O823 Co811 2.327 . S
O823 C832 1.257 . S
O824 Co811 2.073 . S
O824 C832 1.245 . S
C825 O833 1.259 . S
C825 O834 1.289 . S
C826 O835 1.246 . S
C826 O836 1.257 . S
C827 O815 1.251 . S
C827 O816 1.274 . S
C828 O813 1.245 . S
C828 O814 1.257 . S
C829 O818 1.259 . S
C829 O819 1.289 . S
C830 O817 1.246 . S
C830 O820 1.257 . S
C831 O821 1.274 1_655 S
C831 O822 1.251 . S
C832 O823 1.257 . S
C832 O824 1.245 . S
O833 Co804 2.286 . S
O833 C825 1.259 . S
O834 Co804 2.069 . S
O834 C825 1.289 . S
O835 Co806 2.143 . S
O835 C826 1.246 . S
O836 Co804 2.015 . S
O836 C826 1.257 . S
Co837 O840 2.042 . S
Co837 O847 2.264 . S
Co837 O866 2.286 . S
Co837 O867 2.069 . S
Co837 O869 2.015 1_565 S
Co838 O840 2.122 . S
Co838 O846 2.095 . S
Co838 O847 2.337 . S
Co838 O848 1.957 1_565 S
Co839 O840 2.087 1_545 S
Co839 O842 2.087 . S
Co839 O849 2.111 . S
Co839 O850 2.143 1_545 S
Co839 O854 2.111 1_545 S
Co839 O868 2.143 . S
O840 Co837 2.042 . S
O840 Co838 2.122 . S
O840 Co839 2.087 1_565 S
O840 H841 0.980 . S
H841 O840 0.980 . S
O842 Co839 2.087 . S
O842 Co843 2.042 . S
O842 Co844 2.122 . S
O842 H845 0.980 . S
Co843 O842 2.042 . S
Co843 O851 2.286 . S
Co843 O852 2.069 . S
Co843 O853 2.015 1_545 S
Co843 O856 2.264 . S
Co844 O842 2.122 . S
Co844 O855 1.976 1_545 S
Co844 O856 2.327 . S
Co844 O857 2.073 . S
H845 O842 0.980 . S
O846 Co838 2.095 . S
O846 C861 1.245 . S
O847 Co837 2.264 . S
O847 Co838 2.337 . S
O847 C861 1.257 . S
O848 Co838 1.957 1_545 S
O848 C860 1.251 . S
O849 Co839 2.111 . S
O849 C860 1.274 . S
O850 Co839 2.143 1_565 S
O850 C863 1.246 . S
O851 Co843 2.286 . S
O851 C862 1.259 . S
O852 Co843 2.069 . S
O852 C862 1.289 . S
O853 Co843 2.015 1_565 S
O853 C863 1.257 . S
O854 Co839 2.111 1_565 S
O854 C864 1.274 . S
O855 Co844 1.976 1_565 S
O855 C864 1.251 . S
O856 Co843 2.264 . S
O856 Co844 2.327 . S
O856 C865 1.257 . S
O857 Co844 2.073 . S
O857 C865 1.245 . S
C858 O866 1.259 . S
C858 O867 1.289 . S
C859 O868 1.246 . S
C859 O869 1.257 . S
C860 O848 1.251 . S
C860 O849 1.274 . S
C861 O846 1.245 . S
C861 O847 1.257 . S
C862 O851 1.259 . S
C862 O852 1.289 . S
C863 O850 1.246 . S
C863 O853 1.257 . S
C864 O854 1.274 . S
C864 O855 1.251 . S
C865 O856 1.257 . S
C865 O857 1.245 . S
O866 Co837 2.286 . S
O866 C858 1.259 . S
O867 Co837 2.069 . S
O867 C858 1.289 . S
O868 Co839 2.143 . S
O868 C859 1.246 . S
O869 Co837 2.015 1_545 S
O869 C859 1.257 . S
H870 C888 0.951 . S
H871 C890 0.951 . S
H872 C892 0.950 . S
H873 C893 0.950 . S
H874 C895 0.950 . S
H875 C898 0.950 . S
H876 C899 0.950 . S
H877 C901 0.950 . S
H878 C902 0.950 . S
H879 C903 0.951 . S
H880 C905 0.951 . S
H881 C907 0.950 . S
H882 C908 0.950 . S
H883 C910 0.950 . S
H884 C913 0.950 . S
H885 C914 0.950 . S
H886 C916 0.950 . S
H887 C917 0.950 . S
C888 H870 0.951 . S
C888 C889 1.366 . S
C888 C890 1.388 . S
C889 C888 1.366 . S
C889 C893 1.385 . S
C890 H871 0.951 . S
C890 C888 1.388 . S
C890 C891 1.366 . S
C891 C890 1.366 . S
C891 C892 1.414 . S
C891 C894 1.499 . S
C892 H872 0.950 . S
C892 C891 1.414 . S
C892 C893 1.374 . S
C893 H873 0.950 . S
C893 C889 1.385 . S
C893 C892 1.374 . S
C894 C891 1.499 . S
C894 C895 1.373 . S
C894 C896 1.389 . S
C895 H874 0.950 . S
C895 C894 1.373 . S
C895 C911 1.377 . S
C896 C894 1.389 . S
C896 C897 1.524 . S
C896 C910 1.377 . S
C897 C896 1.524 . S
C897 C898 1.397 . S
C897 C902 1.363 . S
C898 H875 0.950 . S
C898 C897 1.397 . S
C898 C899 1.334 . S
C899 H876 0.950 . S
C899 C898 1.334 . S
C899 C900 1.287 . S
C900 C899 1.287 . S
C900 C901 1.524 . S
C900 H919 0.913 . S
C901 H877 0.950 . S
C901 C900 1.524 . S
C901 C902 1.415 . S
C902 H878 0.950 . S
C902 C897 1.363 . S
C902 C901 1.415 . S
C903 H879 0.951 . S
C903 C904 1.366 . S
C903 C905 1.388 . S
C904 C903 1.366 . S
C904 C908 1.385 . S
C905 H880 0.951 . S
C905 C903 1.388 . S
C905 C906 1.366 . S
C906 C905 1.366 . S
C906 C907 1.414 . S
C906 C909 1.499 . S
C907 H881 0.950 . S
C907 C906 1.414 . S
C907 C908 1.374 . S
C908 H882 0.950 . S
C908 C904 1.385 . S
C908 C907 1.374 . S
C909 C906 1.499 . S
C909 C910 1.373 . S
C909 C911 1.389 . S
C910 H883 0.950 . S
C910 C896 1.377 . S
C910 C909 1.373 . S
C911 C895 1.377 . S
C911 C909 1.389 . S
C911 C912 1.524 . S
C912 C911 1.524 . S
C912 C913 1.397 . S
C912 C917 1.363 . S
C913 H884 0.950 . S
C913 C912 1.397 . S
C913 C914 1.334 . S
C914 H885 0.950 . S
C914 C913 1.334 . S
C914 C915 1.287 . S
C915 C914 1.287 . S
C915 C916 1.524 . S
C915 H918 0.999 . S
C916 H886 0.950 . S
C916 C915 1.524 . S
C916 C917 1.415 . S
C917 H887 0.950 . S
C917 C912 1.363 . S
C917 C916 1.415 . S
H918 C915 0.999 . S
H919 C900 0.913 . S
H920 C938 0.951 . S
H921 C940 0.951 . S
H922 C942 0.950 . S
H923 C943 0.950 . S
H924 C945 0.950 . S
H925 C948 0.950 . S
H926 C949 0.950 . S
H927 C951 0.950 . S
H928 C952 0.950 . S
H929 C953 0.951 . S
H930 C955 0.951 . S
H931 C957 0.950 . S
H932 C958 0.950 . S
H933 C960 0.950 . S
H934 C963 0.950 . S
H935 C964 0.950 . S
H936 C966 0.950 . S
H937 C967 0.950 . S
C938 H920 0.951 . S
C938 C939 1.366 . S
C938 C940 1.388 . S
C939 C938 1.366 . S
C939 C943 1.385 . S
C940 H921 0.951 . S
C940 C938 1.388 . S
C940 C941 1.366 . S
C941 C940 1.366 . S
C941 C942 1.414 . S
C941 C944 1.499 . S
C942 H922 0.950 . S
C942 C941 1.414 . S
C942 C943 1.374 . S
C943 H923 0.950 . S
C943 C939 1.385 . S
C943 C942 1.374 . S
C944 C941 1.499 . S
C944 C945 1.373 . S
C944 C946 1.389 . S
C945 H924 0.950 . S
C945 C944 1.373 . S
C945 C961 1.377 . S
C946 C944 1.389 . S
C946 C947 1.524 . S
C946 C960 1.377 . S
C947 C946 1.524 . S
C947 C948 1.397 . S
C947 C952 1.363 . S
C948 H925 0.950 . S
C948 C947 1.397 . S
C948 C949 1.334 . S
C949 H926 0.950 . S
C949 C948 1.334 . S
C949 C950 1.287 . S
C950 C949 1.287 . S
C950 C951 1.524 . S
C950 H969 0.913 . S
C951 H927 0.950 . S
C951 C950 1.524 . S
C951 C952 1.415 . S
C952 H928 0.950 . S
C952 C947 1.363 . S
C952 C951 1.415 . S
C953 H929 0.951 . S
C953 C954 1.366 . S
C953 C955 1.388 . S
C954 C953 1.366 . S
C954 C958 1.385 . S
C955 H930 0.951 . S
C955 C953 1.388 . S
C955 C956 1.366 . S
C956 C955 1.366 . S
C956 C957 1.414 . S
C956 C959 1.499 . S
C957 H931 0.950 . S
C957 C956 1.414 . S
C957 C958 1.374 . S
C958 H932 0.950 . S
C958 C954 1.385 . S
C958 C957 1.374 . S
C959 C956 1.499 . S
C959 C960 1.373 . S
C959 C961 1.389 . S
C960 H933 0.950 . S
C960 C946 1.377 . S
C960 C959 1.373 . S
C961 C945 1.377 . S
C961 C959 1.389 . S
C961 C962 1.524 . S
C962 C961 1.524 . S
C962 C963 1.397 . S
C962 C967 1.363 . S
C963 H934 0.950 . S
C963 C962 1.397 . S
C963 C964 1.334 . S
C964 H935 0.950 . S
C964 C963 1.334 . S
C964 C965 1.287 . S
C965 C964 1.287 . S
C965 C966 1.524 . S
C965 H968 0.999 . S
C966 H936 0.950 . S
C966 C965 1.524 . S
C966 C967 1.415 . S
C967 H937 0.950 . S
C967 C962 1.363 . S
C967 C966 1.415 . S
H968 C965 0.999 . S
H969 C950 0.913 . S
H970 C988 0.951 . S
H971 C990 0.951 . S
H972 C992 0.950 . S
H973 C993 0.950 . S
H974 C995 0.950 . S
H975 C998 0.950 . S
H976 C999 0.950 . S
H977 C1001 0.950 . S
H978 C1002 0.950 . S
H979 C1003 0.951 . S
H980 C1005 0.951 . S
H981 C1007 0.950 . S
H982 C1008 0.950 . S
H983 C1010 0.950 . S
H984 C1013 0.950 . S
H985 C1014 0.950 . S
H986 C1016 0.950 . S
H987 C1017 0.950 . S
C988 H970 0.951 . S
C988 C989 1.366 . S
C988 C990 1.388 . S
C989 C988 1.366 . S
C989 C993 1.385 . S
C990 H971 0.951 . S
C990 C988 1.388 . S
C990 C991 1.366 . S
C991 C990 1.366 . S
C991 C992 1.414 . S
C991 C994 1.499 . S
C992 H972 0.950 . S
C992 C991 1.414 . S
C992 C993 1.374 . S
C993 H973 0.950 . S
C993 C989 1.385 . S
C993 C992 1.374 . S
C994 C991 1.499 . S
C994 C995 1.373 . S
C994 C996 1.389 . S
C995 H974 0.950 . S
C995 C994 1.373 . S
C995 C1011 1.377 . S
C996 C994 1.389 . S
C996 C997 1.524 . S
C996 C1010 1.377 . S
C997 C996 1.524 . S
C997 C998 1.397 . S
C997 C1002 1.363 . S
C998 H975 0.950 . S
C998 C997 1.397 . S
C998 C999 1.334 . S
C999 H976 0.950 . S
C999 C998 1.334 . S
C999 C1000 1.287 . S
C1000 C999 1.287 . S
C1000 C1001 1.524 . S
C1000 H1019 0.913 . S
C1001 H977 0.950 . S
C1001 C1000 1.524 . S
C1001 C1002 1.415 . S
C1002 H978 0.950 . S
C1002 C997 1.363 . S
C1002 C1001 1.415 . S
C1003 H979 0.951 . S
C1003 C1004 1.366 . S
C1003 C1005 1.388 . S
C1004 C1003 1.366 . S
C1004 C1008 1.385 . S
C1005 H980 0.951 . S
C1005 C1003 1.388 . S
C1005 C1006 1.366 . S
C1006 C1005 1.366 . S
C1006 C1007 1.414 . S
C1006 C1009 1.499 . S
C1007 H981 0.950 . S
C1007 C1006 1.414 . S
C1007 C1008 1.374 . S
C1008 H982 0.950 . S
C1008 C1004 1.385 . S
C1008 C1007 1.374 . S
C1009 C1006 1.499 . S
C1009 C1010 1.373 . S
C1009 C1011 1.389 . S
C1010 H983 0.950 . S
C1010 C996 1.377 . S
C1010 C1009 1.373 . S
C1011 C995 1.377 . S
C1011 C1009 1.389 . S
C1011 C1012 1.524 . S
C1012 C1011 1.524 . S
C1012 C1013 1.397 . S
C1012 C1017 1.363 . S
C1013 H984 0.950 . S
C1013 C1012 1.397 . S
C1013 C1014 1.334 . S
C1014 H985 0.950 . S
C1014 C1013 1.334 . S
C1014 C1015 1.287 . S
C1015 C1014 1.287 . S
C1015 C1016 1.524 . S
C1015 H1018 0.999 . S
C1016 H986 0.950 . S
C1016 C1015 1.524 . S
C1016 C1017 1.415 . S
C1017 H987 0.950 . S
C1017 C1012 1.363 . S
C1017 C1016 1.415 . S
H1018 C1015 0.999 . S
H1019 C1000 0.913 . S
H1020 C1038 0.951 . S
H1021 C1040 0.951 . S
H1022 C1042 0.950 . S
H1023 C1043 0.950 . S
H1024 C1045 0.950 . S
H1025 C1048 0.950 . S
H1026 C1049 0.950 . S
H1027 C1051 0.950 . S
H1028 C1052 0.950 . S
H1029 C1053 0.951 . S
H1030 C1055 0.951 . S
H1031 C1057 0.950 . S
H1032 C1058 0.950 . S
H1033 C1060 0.950 . S
H1034 C1063 0.950 . S
H1035 C1064 0.950 . S
H1036 C1066 0.950 . S
H1037 C1067 0.950 . S
C1038 H1020 0.951 . S
C1038 C1039 1.366 . S
C1038 C1040 1.388 . S
C1039 C1038 1.366 . S
C1039 C1043 1.385 . S
C1040 H1021 0.951 . S
C1040 C1038 1.388 . S
C1040 C1041 1.366 . S
C1041 C1040 1.366 . S
C1041 C1042 1.414 . S
C1041 C1044 1.499 . S
C1042 H1022 0.950 . S
C1042 C1041 1.414 . S
C1042 C1043 1.374 . S
C1043 H1023 0.950 . S
C1043 C1039 1.385 . S
C1043 C1042 1.374 . S
C1044 C1041 1.499 . S
C1044 C1045 1.373 . S
C1044 C1046 1.389 . S
C1045 H1024 0.950 . S
C1045 C1044 1.373 . S
C1045 C1061 1.377 . S
C1046 C1044 1.389 . S
C1046 C1047 1.524 . S
C1046 C1060 1.377 . S
C1047 C1046 1.524 . S
C1047 C1048 1.397 . S
C1047 C1052 1.363 . S
C1048 H1025 0.950 . S
C1048 C1047 1.397 . S
C1048 C1049 1.334 . S
C1049 H1026 0.950 . S
C1049 C1048 1.334 . S
C1049 C1050 1.287 . S
C1050 C1049 1.287 . S
C1050 C1051 1.524 . S
C1050 H1069 0.913 . S
C1051 H1027 0.950 . S
C1051 C1050 1.524 . S
C1051 C1052 1.415 . S
C1052 H1028 0.950 . S
C1052 C1047 1.363 . S
C1052 C1051 1.415 . S
C1053 H1029 0.951 . S
C1053 C1054 1.366 . S
C1053 C1055 1.388 . S
C1054 C1053 1.366 . S
C1054 C1058 1.385 . S
C1055 H1030 0.951 . S
C1055 C1053 1.388 . S
C1055 C1056 1.366 . S
C1056 C1055 1.366 . S
C1056 C1057 1.414 . S
C1056 C1059 1.499 . S
C1057 H1031 0.950 . S
C1057 C1056 1.414 . S
C1057 C1058 1.374 . S
C1058 H1032 0.950 . S
C1058 C1054 1.385 . S
C1058 C1057 1.374 . S
C1059 C1056 1.499 . S
C1059 C1060 1.373 . S
C1059 C1061 1.389 . S
C1060 H1033 0.950 . S
C1060 C1046 1.377 . S
C1060 C1059 1.373 . S
C1061 C1045 1.377 . S
C1061 C1059 1.389 . S
C1061 C1062 1.524 . S
C1062 C1061 1.524 . S
C1062 C1063 1.397 . S
C1062 C1067 1.363 . S
C1063 H1034 0.950 . S
C1063 C1062 1.397 . S
C1063 C1064 1.334 . S
C1064 H1035 0.950 . S
C1064 C1063 1.334 . S
C1064 C1065 1.287 . S
C1065 C1064 1.287 . S
C1065 C1066 1.524 . S
C1065 H1068 0.999 . S
C1066 H1036 0.950 . S
C1066 C1065 1.524 . S
C1066 C1067 1.415 . S
C1067 H1037 0.950 . S
C1067 C1062 1.363 . S
C1067 C1066 1.415 . S
H1068 C1065 0.999 . S
H1069 C1050 0.913 . S
H1070 C1088 0.951 . S
H1071 C1090 0.951 . S
H1072 C1092 0.950 . S
H1073 C1093 0.950 . S
H1074 C1095 0.950 . S
H1075 C1098 0.950 . S
H1076 C1099 0.950 . S
H1077 C1101 0.950 . S
H1078 C1102 0.950 . S
H1079 C1103 0.951 . S
H1080 C1105 0.951 . S
H1081 C1107 0.950 . S
H1082 C1108 0.950 . S
H1083 C1110 0.950 . S
H1084 C1113 0.950 . S
H1085 C1114 0.950 . S
H1086 C1116 0.950 . S
H1087 C1117 0.950 . S
C1088 H1070 0.951 . S
C1088 C1089 1.366 . S
C1088 C1090 1.388 . S
C1089 C1088 1.366 . S
C1089 C1093 1.385 . S
C1090 H1071 0.951 . S
C1090 C1088 1.388 . S
C1090 C1091 1.366 . S
C1091 C1090 1.366 . S
C1091 C1092 1.414 . S
C1091 C1094 1.499 . S
C1092 H1072 0.950 . S
C1092 C1091 1.414 . S
C1092 C1093 1.374 . S
C1093 H1073 0.950 . S
C1093 C1089 1.385 . S
C1093 C1092 1.374 . S
C1094 C1091 1.499 . S
C1094 C1095 1.373 . S
C1094 C1096 1.389 . S
C1095 H1074 0.950 . S
C1095 C1094 1.373 . S
C1095 C1111 1.377 . S
C1096 C1094 1.389 . S
C1096 C1097 1.524 . S
C1096 C1110 1.377 . S
C1097 C1096 1.524 . S
C1097 C1098 1.397 . S
C1097 C1102 1.363 . S
C1098 H1075 0.950 . S
C1098 C1097 1.397 . S
C1098 C1099 1.334 . S
C1099 H1076 0.950 . S
C1099 C1098 1.334 . S
C1099 C1100 1.287 . S
C1100 C1099 1.287 . S
C1100 C1101 1.524 . S
C1100 H1119 0.913 . S
C1101 H1077 0.950 . S
C1101 C1100 1.524 . S
C1101 C1102 1.415 . S
C1102 H1078 0.950 . S
C1102 C1097 1.363 . S
C1102 C1101 1.415 . S
C1103 H1079 0.951 . S
C1103 C1104 1.366 . S
C1103 C1105 1.388 . S
C1104 C1103 1.366 . S
C1104 C1108 1.385 . S
C1105 H1080 0.951 . S
C1105 C1103 1.388 . S
C1105 C1106 1.366 . S
C1106 C1105 1.366 . S
C1106 C1107 1.414 . S
C1106 C1109 1.499 . S
C1107 H1081 0.950 . S
C1107 C1106 1.414 . S
C1107 C1108 1.374 . S
C1108 H1082 0.950 . S
C1108 C1104 1.385 . S
C1108 C1107 1.374 . S
C1109 C1106 1.499 . S
C1109 C1110 1.373 . S
C1109 C1111 1.389 . S
C1110 H1083 0.950 . S
C1110 C1096 1.377 . S
C1110 C1109 1.373 . S
C1111 C1095 1.377 . S
C1111 C1109 1.389 . S
C1111 C1112 1.524 . S
C1112 C1111 1.524 . S
C1112 C1113 1.397 . S
C1112 C1117 1.363 . S
C1113 H1084 0.950 . S
C1113 C1112 1.397 . S
C1113 C1114 1.334 . S
C1114 H1085 0.950 . S
C1114 C1113 1.334 . S
C1114 C1115 1.287 . S
C1115 C1114 1.287 . S
C1115 C1116 1.524 . S
C1115 H1118 0.999 . S
C1116 H1086 0.950 . S
C1116 C1115 1.524 . S
C1116 C1117 1.415 . S
C1117 H1087 0.950 . S
C1117 C1112 1.363 . S
C1117 C1116 1.415 . S
H1118 C1115 0.999 . S
H1119 C1100 0.913 . S
H1120 C1138 0.951 . S
H1121 C1140 0.951 . S
H1122 C1142 0.950 . S
H1123 C1143 0.950 . S
H1124 C1145 0.950 . S
H1125 C1148 0.950 . S
H1126 C1149 0.950 . S
H1127 C1151 0.950 . S
H1128 C1152 0.950 . S
H1129 C1153 0.951 . S
H1130 C1155 0.951 . S
H1131 C1157 0.950 . S
H1132 C1158 0.950 . S
H1133 C1160 0.950 . S
H1134 C1163 0.950 . S
H1135 C1164 0.950 . S
H1136 C1166 0.950 . S
H1137 C1167 0.950 . S
C1138 H1120 0.951 . S
C1138 C1139 1.366 . S
C1138 C1140 1.388 . S
C1139 C1138 1.366 . S
C1139 C1143 1.385 . S
C1140 H1121 0.951 . S
C1140 C1138 1.388 . S
C1140 C1141 1.366 . S
C1141 C1140 1.366 . S
C1141 C1142 1.414 . S
C1141 C1144 1.499 . S
C1142 H1122 0.950 . S
C1142 C1141 1.414 . S
C1142 C1143 1.374 . S
C1143 H1123 0.950 . S
C1143 C1139 1.385 . S
C1143 C1142 1.374 . S
C1144 C1141 1.499 . S
C1144 C1145 1.373 . S
C1144 C1146 1.389 . S
C1145 H1124 0.950 . S
C1145 C1144 1.373 . S
C1145 C1161 1.377 . S
C1146 C1144 1.389 . S
C1146 C1147 1.524 . S
C1146 C1160 1.377 . S
C1147 C1146 1.524 . S
C1147 C1148 1.397 . S
C1147 C1152 1.363 . S
C1148 H1125 0.950 . S
C1148 C1147 1.397 . S
C1148 C1149 1.334 . S
C1149 H1126 0.950 . S
C1149 C1148 1.334 . S
C1149 C1150 1.287 . S
C1150 C1149 1.287 . S
C1150 C1151 1.524 . S
C1150 H1169 0.913 . S
C1151 H1127 0.950 . S
C1151 C1150 1.524 . S
C1151 C1152 1.415 . S
C1152 H1128 0.950 . S
C1152 C1147 1.363 . S
C1152 C1151 1.415 . S
C1153 H1129 0.951 . S
C1153 C1154 1.366 . S
C1153 C1155 1.388 . S
C1154 C1153 1.366 . S
C1154 C1158 1.385 . S
C1155 H1130 0.951 . S
C1155 C1153 1.388 . S
C1155 C1156 1.366 . S
C1156 C1155 1.366 . S
C1156 C1157 1.414 . S
C1156 C1159 1.499 . S
C1157 H1131 0.950 . S
C1157 C1156 1.414 . S
C1157 C1158 1.374 . S
C1158 H1132 0.950 . S
C1158 C1154 1.385 . S
C1158 C1157 1.374 . S
C1159 C1156 1.499 . S
C1159 C1160 1.373 . S
C1159 C1161 1.389 . S
C1160 H1133 0.950 . S
C1160 C1146 1.377 . S
C1160 C1159 1.373 . S
C1161 C1145 1.377 . S
C1161 C1159 1.389 . S
C1161 C1162 1.524 . S
C1162 C1161 1.524 . S
C1162 C1163 1.397 . S
C1162 C1167 1.363 . S
C1163 H1134 0.950 . S
C1163 C1162 1.397 . S
C1163 C1164 1.334 . S
C1164 H1135 0.950 . S
C1164 C1163 1.334 . S
C1164 C1165 1.287 . S
C1165 C1164 1.287 . S
C1165 C1166 1.524 . S
C1165 H1168 0.999 . S
C1166 H1136 0.950 . S
C1166 C1165 1.524 . S
C1166 C1167 1.415 . S
C1167 H1137 0.950 . S
C1167 C1162 1.363 . S
C1167 C1166 1.415 . S
H1168 C1165 0.999 . S
H1169 C1150 0.913 . S
H1170 C1188 0.951 . S
H1171 C1190 0.951 . S
H1172 C1192 0.950 . S
H1173 C1193 0.950 . S
H1174 C1195 0.950 . S
H1175 C1198 0.950 . S
H1176 C1199 0.950 . S
H1177 C1201 0.950 . S
H1178 C1202 0.950 . S
H1179 C1203 0.951 . S
H1180 C1205 0.951 . S
H1181 C1207 0.950 . S
H1182 C1208 0.950 . S
H1183 C1210 0.950 . S
H1184 C1213 0.950 . S
H1185 C1214 0.950 . S
H1186 C1216 0.950 . S
H1187 C1217 0.950 . S
C1188 H1170 0.951 . S
C1188 C1189 1.366 . S
C1188 C1190 1.388 . S
C1189 C1188 1.366 . S
C1189 C1193 1.385 . S
C1190 H1171 0.951 . S
C1190 C1188 1.388 . S
C1190 C1191 1.366 . S
C1191 C1190 1.366 . S
C1191 C1192 1.414 . S
C1191 C1194 1.499 . S
C1192 H1172 0.950 . S
C1192 C1191 1.414 . S
C1192 C1193 1.374 . S
C1193 H1173 0.950 . S
C1193 C1189 1.385 . S
C1193 C1192 1.374 . S
C1194 C1191 1.499 . S
C1194 C1195 1.373 . S
C1194 C1196 1.389 . S
C1195 H1174 0.950 . S
C1195 C1194 1.373 . S
C1195 C1211 1.377 . S
C1196 C1194 1.389 . S
C1196 C1197 1.524 . S
C1196 C1210 1.377 . S
C1197 C1196 1.524 . S
C1197 C1198 1.397 . S
C1197 C1202 1.363 . S
C1198 H1175 0.950 . S
C1198 C1197 1.397 . S
C1198 C1199 1.334 . S
C1199 H1176 0.950 . S
C1199 C1198 1.334 . S
C1199 C1200 1.287 . S
C1200 C1199 1.287 . S
C1200 C1201 1.524 . S
C1200 H1219 0.913 . S
C1201 H1177 0.950 . S
C1201 C1200 1.524 . S
C1201 C1202 1.415 . S
C1202 H1178 0.950 . S
C1202 C1197 1.363 . S
C1202 C1201 1.415 . S
C1203 H1179 0.951 . S
C1203 C1204 1.366 . S
C1203 C1205 1.388 . S
C1204 C1203 1.366 . S
C1204 C1208 1.385 . S
C1205 H1180 0.951 . S
C1205 C1203 1.388 . S
C1205 C1206 1.366 . S
C1206 C1205 1.366 . S
C1206 C1207 1.414 . S
C1206 C1209 1.499 . S
C1207 H1181 0.950 . S
C1207 C1206 1.414 . S
C1207 C1208 1.374 . S
C1208 H1182 0.950 . S
C1208 C1204 1.385 . S
C1208 C1207 1.374 . S
C1209 C1206 1.499 . S
C1209 C1210 1.373 . S
C1209 C1211 1.389 . S
C1210 H1183 0.950 . S
C1210 C1196 1.377 . S
C1210 C1209 1.373 . S
C1211 C1195 1.377 . S
C1211 C1209 1.389 . S
C1211 C1212 1.524 . S
C1212 C1211 1.524 . S
C1212 C1213 1.397 . S
C1212 C1217 1.363 . S
C1213 H1184 0.950 . S
C1213 C1212 1.397 . S
C1213 C1214 1.334 . S
C1214 H1185 0.950 . S
C1214 C1213 1.334 . S
C1214 C1215 1.287 . S
C1215 C1214 1.287 . S
C1215 C1216 1.524 . S
C1215 H1218 0.999 . S
C1216 H1186 0.950 . S
C1216 C1215 1.524 . S
C1216 C1217 1.415 . S
C1217 H1187 0.950 . S
C1217 C1212 1.363 . S
C1217 C1216 1.415 . S
H1218 C1215 0.999 . S
H1219 C1200 0.913 . S
H1220 C1238 0.951 . S
H1221 C1240 0.951 . S
H1222 C1242 0.950 . S
H1223 C1243 0.950 . S
H1224 C1245 0.950 . S
H1225 C1248 0.950 . S
H1226 C1249 0.950 . S
H1227 C1251 0.950 . S
H1228 C1252 0.950 . S
H1229 C1253 0.951 . S
H1230 C1255 0.951 . S
H1231 C1257 0.950 . S
H1232 C1258 0.950 . S
H1233 C1260 0.950 . S
H1234 C1263 0.950 . S
H1235 C1264 0.950 . S
H1236 C1266 0.950 . S
H1237 C1267 0.950 . S
C1238 H1220 0.951 . S
C1238 C1239 1.366 . S
C1238 C1240 1.388 . S
C1239 C1238 1.366 . S
C1239 C1243 1.385 . S
C1240 H1221 0.951 . S
C1240 C1238 1.388 . S
C1240 C1241 1.366 . S
C1241 C1240 1.366 . S
C1241 C1242 1.414 . S
C1241 C1244 1.499 . S
C1242 H1222 0.950 . S
C1242 C1241 1.414 . S
C1242 C1243 1.374 . S
C1243 H1223 0.950 . S
C1243 C1239 1.385 . S
C1243 C1242 1.374 . S
C1244 C1241 1.499 . S
C1244 C1245 1.373 . S
C1244 C1246 1.389 . S
C1245 H1224 0.950 . S
C1245 C1244 1.373 . S
C1245 C1261 1.377 . S
C1246 C1244 1.389 . S
C1246 C1247 1.524 . S
C1246 C1260 1.377 . S
C1247 C1246 1.524 . S
C1247 C1248 1.397 . S
C1247 C1252 1.363 . S
C1248 H1225 0.950 . S
C1248 C1247 1.397 . S
C1248 C1249 1.334 . S
C1249 H1226 0.950 . S
C1249 C1248 1.334 . S
C1249 C1250 1.287 . S
C1250 C1249 1.287 . S
C1250 C1251 1.524 . S
C1250 H1269 0.913 . S
C1251 H1227 0.950 . S
C1251 C1250 1.524 . S
C1251 C1252 1.415 . S
C1252 H1228 0.950 . S
C1252 C1247 1.363 . S
C1252 C1251 1.415 . S
C1253 H1229 0.951 . S
C1253 C1254 1.366 . S
C1253 C1255 1.388 . S
C1254 C1253 1.366 . S
C1254 C1258 1.385 . S
C1255 H1230 0.951 . S
C1255 C1253 1.388 . S
C1255 C1256 1.366 . S
C1256 C1255 1.366 . S
C1256 C1257 1.414 . S
C1256 C1259 1.499 . S
C1257 H1231 0.950 . S
C1257 C1256 1.414 . S
C1257 C1258 1.374 . S
C1258 H1232 0.950 . S
C1258 C1254 1.385 . S
C1258 C1257 1.374 . S
C1259 C1256 1.499 . S
C1259 C1260 1.373 . S
C1259 C1261 1.389 . S
C1260 H1233 0.950 . S
C1260 C1246 1.377 . S
C1260 C1259 1.373 . S
C1261 C1245 1.377 . S
C1261 C1259 1.389 . S
C1261 C1262 1.524 . S
C1262 C1261 1.524 . S
C1262 C1263 1.397 . S
C1262 C1267 1.363 . S
C1263 H1234 0.950 . S
C1263 C1262 1.397 . S
C1263 C1264 1.334 . S
C1264 H1235 0.950 . S
C1264 C1263 1.334 . S
C1264 C1265 1.287 . S
C1265 C1264 1.287 . S
C1265 C1266 1.524 . S
C1265 H1268 0.999 . S
C1266 H1236 0.950 . S
C1266 C1265 1.524 . S
C1266 C1267 1.415 . S
C1267 H1237 0.950 . S
C1267 C1262 1.363 . S
C1267 C1266 1.415 . S
H1268 C1265 0.999 . S
H1269 C1250 0.913 . S
H1270 C1288 0.951 . S
H1271 C1290 0.951 . S
H1272 C1292 0.950 . S
H1273 C1293 0.950 . S
H1274 C1295 0.950 . S
H1275 C1298 0.950 . S
H1276 C1299 0.950 . S
H1277 C1301 0.950 . S
H1278 C1302 0.950 . S
H1279 C1303 0.951 . S
H1280 C1305 0.951 . S
H1281 C1307 0.950 . S
H1282 C1308 0.950 . S
H1283 C1310 0.950 . S
H1284 C1313 0.950 . S
H1285 C1314 0.950 . S
H1286 C1316 0.950 . S
H1287 C1317 0.950 . S
C1288 H1270 0.951 . S
C1288 C1289 1.366 . S
C1288 C1290 1.388 . S
C1289 C1288 1.366 . S
C1289 C1293 1.385 . S
C1290 H1271 0.951 . S
C1290 C1288 1.388 . S
C1290 C1291 1.366 . S
C1291 C1290 1.366 . S
C1291 C1292 1.414 . S
C1291 C1294 1.499 . S
C1292 H1272 0.950 . S
C1292 C1291 1.414 . S
C1292 C1293 1.374 . S
C1293 H1273 0.950 . S
C1293 C1289 1.385 . S
C1293 C1292 1.374 . S
C1294 C1291 1.499 . S
C1294 C1295 1.373 . S
C1294 C1296 1.389 . S
C1295 H1274 0.950 . S
C1295 C1294 1.373 . S
C1295 C1311 1.377 . S
C1296 C1294 1.389 . S
C1296 C1297 1.524 . S
C1296 C1310 1.377 . S
C1297 C1296 1.524 . S
C1297 C1298 1.397 . S
C1297 C1302 1.363 . S
C1298 H1275 0.950 . S
C1298 C1297 1.397 . S
C1298 C1299 1.334 . S
C1299 H1276 0.950 . S
C1299 C1298 1.334 . S
C1299 C1300 1.287 . S
C1300 C1299 1.287 . S
C1300 C1301 1.524 . S
C1300 H1319 0.913 . S
C1301 H1277 0.950 . S
C1301 C1300 1.524 . S
C1301 C1302 1.415 . S
C1302 H1278 0.950 . S
C1302 C1297 1.363 . S
C1302 C1301 1.415 . S
C1303 H1279 0.951 . S
C1303 C1304 1.366 . S
C1303 C1305 1.388 . S
C1304 C1303 1.366 . S
C1304 C1308 1.385 . S
C1305 H1280 0.951 . S
C1305 C1303 1.388 . S
C1305 C1306 1.366 . S
C1306 C1305 1.366 . S
C1306 C1307 1.414 . S
C1306 C1309 1.499 . S
C1307 H1281 0.950 . S
C1307 C1306 1.414 . S
C1307 C1308 1.374 . S
C1308 H1282 0.950 . S
C1308 C1304 1.385 . S
C1308 C1307 1.374 . S
C1309 C1306 1.499 . S
C1309 C1310 1.373 . S
C1309 C1311 1.389 . S
C1310 H1283 0.950 . S
C1310 C1296 1.377 . S
C1310 C1309 1.373 . S
C1311 C1295 1.377 . S
C1311 C1309 1.389 . S
C1311 C1312 1.524 . S
C1312 C1311 1.524 . S
C1312 C1313 1.397 . S
C1312 C1317 1.363 . S
C1313 H1284 0.950 . S
C1313 C1312 1.397 . S
C1313 C1314 1.334 1_554 S
C1314 H1285 0.950 . S
C1314 C1313 1.334 1_556 S
C1314 C1315 1.287 . S
C1315 C1314 1.287 . S
C1315 C1316 1.524 1_556 S
C1315 H1318 0.999 . S
C1316 H1286 0.950 . S
C1316 C1315 1.524 1_554 S
C1316 C1317 1.415 . S
C1317 H1287 0.950 . S
C1317 C1312 1.363 . S
C1317 C1316 1.415 . S
H1318 C1315 0.999 . S
H1319 C1300 0.913 . S
H1320 C1338 0.951 . S
H1321 C1340 0.951 . S
H1322 C1342 0.950 . S
H1323 C1343 0.950 . S
H1324 C1345 0.950 . S
H1325 C1348 0.950 . S
H1326 C1349 0.950 . S
H1327 C1351 0.950 . S
H1328 C1352 0.950 . S
H1329 C1353 0.951 . S
H1330 C1355 0.951 . S
H1331 C1357 0.950 . S
H1332 C1358 0.950 . S
H1333 C1360 0.950 . S
H1334 C1363 0.950 . S
H1335 C1364 0.950 . S
H1336 C1366 0.950 . S
H1337 C1367 0.950 . S
C1338 H1320 0.951 . S
C1338 C1339 1.366 . S
C1338 C1340 1.388 . S
C1339 C1338 1.366 . S
C1339 C1343 1.385 . S
C1340 H1321 0.951 . S
C1340 C1338 1.388 . S
C1340 C1341 1.366 . S
C1341 C1340 1.366 . S
C1341 C1342 1.414 . S
C1341 C1344 1.499 . S
C1342 H1322 0.950 . S
C1342 C1341 1.414 . S
C1342 C1343 1.374 . S
C1343 H1323 0.950 . S
C1343 C1339 1.385 . S
C1343 C1342 1.374 . S
C1344 C1341 1.499 . S
C1344 C1345 1.373 . S
C1344 C1346 1.389 . S
C1345 H1324 0.950 . S
C1345 C1344 1.373 . S
C1345 C1361 1.377 . S
C1346 C1344 1.389 . S
C1346 C1347 1.524 . S
C1346 C1360 1.377 . S
C1347 C1346 1.524 . S
C1347 C1348 1.397 . S
C1347 C1352 1.363 . S
C1348 H1325 0.950 . S
C1348 C1347 1.397 . S
C1348 C1349 1.334 . S
C1349 H1326 0.950 . S
C1349 C1348 1.334 . S
C1349 C1350 1.287 . S
C1350 C1349 1.287 . S
C1350 C1351 1.524 . S
C1350 H1369 0.913 . S
C1351 H1327 0.950 . S
C1351 C1350 1.524 . S
C1351 C1352 1.415 . S
C1352 H1328 0.950 . S
C1352 C1347 1.363 . S
C1352 C1351 1.415 . S
C1353 H1329 0.951 . S
C1353 C1354 1.366 . S
C1353 C1355 1.388 . S
C1354 C1353 1.366 . S
C1354 C1358 1.385 . S
C1355 H1330 0.951 . S
C1355 C1353 1.388 . S
C1355 C1356 1.366 . S
C1356 C1355 1.366 . S
C1356 C1357 1.414 . S
C1356 C1359 1.499 . S
C1357 H1331 0.950 . S
C1357 C1356 1.414 . S
C1357 C1358 1.374 . S
C1358 H1332 0.950 . S
C1358 C1354 1.385 . S
C1358 C1357 1.374 . S
C1359 C1356 1.499 . S
C1359 C1360 1.373 . S
C1359 C1361 1.389 . S
C1360 H1333 0.950 . S
C1360 C1346 1.377 . S
C1360 C1359 1.373 . S
C1361 C1345 1.377 . S
C1361 C1359 1.389 . S
C1361 C1362 1.524 . S
C1362 C1361 1.524 . S
C1362 C1363 1.397 . S
C1362 C1367 1.363 . S
C1363 H1334 0.950 . S
C1363 C1362 1.397 . S
C1363 C1364 1.334 . S
C1364 H1335 0.950 . S
C1364 C1363 1.334 . S
C1364 C1365 1.287 . S
C1365 C1364 1.287 . S
C1365 C1366 1.524 . S
C1365 H1368 0.999 . S
C1366 H1336 0.950 . S
C1366 C1365 1.524 . S
C1366 C1367 1.415 . S
C1367 H1337 0.950 . S
C1367 C1362 1.363 . S
C1367 C1366 1.415 . S
H1368 C1365 0.999 . S
H1369 C1350 0.913 . S
H1370 C1388 0.951 . S
H1371 C1390 0.951 . S
H1372 C1392 0.950 . S
H1373 C1393 0.950 . S
H1374 C1395 0.950 . S
H1375 C1398 0.950 . S
H1376 C1399 0.950 . S
H1377 C1401 0.950 . S
H1378 C1402 0.950 . S
H1379 C1403 0.951 . S
H1380 C1405 0.951 . S
H1381 C1407 0.950 . S
H1382 C1408 0.950 . S
H1383 C1410 0.950 . S
H1384 C1413 0.950 . S
H1385 C1414 0.950 1_545 S
H1386 C1416 0.950 . S
H1387 C1417 0.950 . S
C1388 H1370 0.951 . S
C1388 C1389 1.366 . S
C1388 C1390 1.388 . S
C1389 C1388 1.366 . S
C1389 C1393 1.385 . S
C1390 H1371 0.951 . S
C1390 C1388 1.388 . S
C1390 C1391 1.366 . S
C1391 C1390 1.366 . S
C1391 C1392 1.414 . S
C1391 C1394 1.499 . S
C1392 H1372 0.950 . S
C1392 C1391 1.414 . S
C1392 C1393 1.374 . S
C1393 H1373 0.950 . S
C1393 C1389 1.385 . S
C1393 C1392 1.374 . S
C1394 C1391 1.499 . S
C1394 C1395 1.373 . S
C1394 C1396 1.389 . S
C1395 H1374 0.950 . S
C1395 C1394 1.373 . S
C1395 C1411 1.377 . S
C1396 C1394 1.389 . S
C1396 C1397 1.524 . S
C1396 C1410 1.377 . S
C1397 C1396 1.524 . S
C1397 C1398 1.397 . S
C1397 C1402 1.363 . S
C1398 H1375 0.950 . S
C1398 C1397 1.397 . S
C1398 C1399 1.334 . S
C1399 H1376 0.950 . S
C1399 C1398 1.334 . S
C1399 C1400 1.287 . S
C1400 C1399 1.287 . S
C1400 C1401 1.524 . S
C1400 H1419 0.913 . S
C1401 H1377 0.950 . S
C1401 C1400 1.524 . S
C1401 C1402 1.415 . S
C1402 H1378 0.950 . S
C1402 C1397 1.363 . S
C1402 C1401 1.415 . S
C1403 H1379 0.951 . S
C1403 C1404 1.366 . S
C1403 C1405 1.388 . S
C1404 C1403 1.366 . S
C1404 C1408 1.385 . S
C1405 H1380 0.951 . S
C1405 C1403 1.388 . S
C1405 C1406 1.366 . S
C1406 C1405 1.366 . S
C1406 C1407 1.414 . S
C1406 C1409 1.499 . S
C1407 H1381 0.950 . S
C1407 C1406 1.414 . S
C1407 C1408 1.374 . S
C1408 H1382 0.950 . S
C1408 C1404 1.385 . S
C1408 C1407 1.374 . S
C1409 C1406 1.499 . S
C1409 C1410 1.373 . S
C1409 C1411 1.389 . S
C1410 H1383 0.950 . S
C1410 C1396 1.377 . S
C1410 C1409 1.373 . S
C1411 C1395 1.377 . S
C1411 C1409 1.389 . S
C1411 C1412 1.524 . S
C1412 C1411 1.524 . S
C1412 C1413 1.397 . S
C1412 C1417 1.363 . S
C1413 H1384 0.950 . S
C1413 C1412 1.397 . S
C1413 C1414 1.334 . S
C1414 H1385 0.950 1_565 S
C1414 C1413 1.334 . S
C1414 C1415 1.287 1_565 S
C1415 C1414 1.287 1_545 S
C1415 C1416 1.524 . S
C1415 H1418 0.999 . S
C1416 H1386 0.950 . S
C1416 C1415 1.524 . S
C1416 C1417 1.415 1_545 S
C1417 H1387 0.950 . S
C1417 C1412 1.363 . S
C1417 C1416 1.415 1_565 S
H1418 C1415 0.999 . S
H1419 C1400 0.913 . S
H1420 C1438 0.951 . S
H1421 C1440 0.951 . S
H1422 C1442 0.950 . S
H1423 C1443 0.950 . S
H1424 C1445 0.950 . S
H1425 C1448 0.950 . S
H1426 C1449 0.950 . S
H1427 C1451 0.950 . S
H1428 C1452 0.950 . S
H1429 C1453 0.951 . S
H1430 C1455 0.951 . S
H1431 C1457 0.950 . S
H1432 C1458 0.950 . S
H1433 C1460 0.950 . S
H1434 C1463 0.950 . S
H1435 C1464 0.950 . S
H1436 C1466 0.950 . S
H1437 C1467 0.950 . S
C1438 H1420 0.951 . S
C1438 C1439 1.366 . S
C1438 C1440 1.388 . S
C1439 C1438 1.366 . S
C1439 C1443 1.385 . S
C1440 H1421 0.951 . S
C1440 C1438 1.388 . S
C1440 C1441 1.366 . S
C1441 C1440 1.366 . S
C1441 C1442 1.414 . S
C1441 C1444 1.499 . S
C1442 H1422 0.950 . S
C1442 C1441 1.414 . S
C1442 C1443 1.374 . S
C1443 H1423 0.950 . S
C1443 C1439 1.385 . S
C1443 C1442 1.374 . S
C1444 C1441 1.499 . S
C1444 C1445 1.373 . S
C1444 C1446 1.389 . S
C1445 H1424 0.950 . S
C1445 C1444 1.373 . S
C1445 C1461 1.377 . S
C1446 C1444 1.389 . S
C1446 C1447 1.524 . S
C1446 C1460 1.377 . S
C1447 C1446 1.524 . S
C1447 C1448 1.397 . S
C1447 C1452 1.363 . S
C1448 H1425 0.950 . S
C1448 C1447 1.397 . S
C1448 C1449 1.334 . S
C1449 H1426 0.950 . S
C1449 C1448 1.334 . S
C1449 C1450 1.287 . S
C1450 C1449 1.287 . S
C1450 C1451 1.524 . S
C1450 H1469 0.913 . S
C1451 H1427 0.950 . S
C1451 C1450 1.524 . S
C1451 C1452 1.415 . S
C1452 H1428 0.950 . S
C1452 C1447 1.363 . S
C1452 C1451 1.415 . S
C1453 H1429 0.951 . S
C1453 C1454 1.366 . S
C1453 C1455 1.388 . S
C1454 C1453 1.366 . S
C1454 C1458 1.385 . S
C1455 H1430 0.951 . S
C1455 C1453 1.388 . S
C1455 C1456 1.366 . S
C1456 C1455 1.366 . S
C1456 C1457 1.414 . S
C1456 C1459 1.499 . S
C1457 H1431 0.950 . S
C1457 C1456 1.414 . S
C1457 C1458 1.374 . S
C1458 H1432 0.950 . S
C1458 C1454 1.385 . S
C1458 C1457 1.374 . S
C1459 C1456 1.499 . S
C1459 C1460 1.373 . S
C1459 C1461 1.389 . S
C1460 H1433 0.950 . S
C1460 C1446 1.377 . S
C1460 C1459 1.373 . S
C1461 C1445 1.377 . S
C1461 C1459 1.389 . S
C1461 C1462 1.524 . S
C1462 C1461 1.524 . S
C1462 C1463 1.397 . S
C1462 C1467 1.363 . S
C1463 H1434 0.950 . S
C1463 C1462 1.397 . S
C1463 C1464 1.334 . S
C1464 H1435 0.950 . S
C1464 C1463 1.334 . S
C1464 C1465 1.287 . S
C1465 C1464 1.287 . S
C1465 C1466 1.524 . S
C1465 H1468 0.999 . S
C1466 H1436 0.950 . S
C1466 C1465 1.524 . S
C1466 C1467 1.415 . S
C1467 H1437 0.950 . S
C1467 C1462 1.363 . S
C1467 C1466 1.415 . S
H1468 C1465 0.999 . S
H1469 C1450 0.913 . S
H1470 C1488 0.951 . S
H1471 C1490 0.951 . S
H1472 C1492 0.950 . S
H1473 C1493 0.950 . S
H1474 C1495 0.950 . S
H1475 C1498 0.950 . S
H1476 C1499 0.950 . S
H1477 C1501 0.950 . S
H1478 C1502 0.950 . S
H1479 C1503 0.951 . S
H1480 C1505 0.951 . S
H1481 C1507 0.950 . S
H1482 C1508 0.950 . S
H1483 C1510 0.950 . S
H1484 C1513 0.950 . S
H1485 C1514 0.950 . S
H1486 C1516 0.950 . S
H1487 C1517 0.950 . S
C1488 H1470 0.951 . S
C1488 C1489 1.366 . S
C1488 C1490 1.388 . S
C1489 C1488 1.366 . S
C1489 C1493 1.385 . S
C1490 H1471 0.951 . S
C1490 C1488 1.388 . S
C1490 C1491 1.366 . S
C1491 C1490 1.366 . S
C1491 C1492 1.414 . S
C1491 C1494 1.499 . S
C1492 H1472 0.950 . S
C1492 C1491 1.414 . S
C1492 C1493 1.374 . S
C1493 H1473 0.950 . S
C1493 C1489 1.385 . S
C1493 C1492 1.374 . S
C1494 C1491 1.499 . S
C1494 C1495 1.373 . S
C1494 C1496 1.389 . S
C1495 H1474 0.950 . S
C1495 C1494 1.373 . S
C1495 C1511 1.377 . S
C1496 C1494 1.389 . S
C1496 C1497 1.524 . S
C1496 C1510 1.377 . S
C1497 C1496 1.524 . S
C1497 C1498 1.397 . S
C1497 C1502 1.363 . S
C1498 H1475 0.950 . S
C1498 C1497 1.397 . S
C1498 C1499 1.334 . S
C1499 H1476 0.950 . S
C1499 C1498 1.334 . S
C1499 C1500 1.287 . S
C1500 C1499 1.287 . S
C1500 C1501 1.524 . S
C1500 H1519 0.913 . S
C1501 H1477 0.950 . S
C1501 C1500 1.524 . S
C1501 C1502 1.415 . S
C1502 H1478 0.950 . S
C1502 C1497 1.363 . S
C1502 C1501 1.415 . S
C1503 H1479 0.951 . S
C1503 C1504 1.366 . S
C1503 C1505 1.388 . S
C1504 C1503 1.366 . S
C1504 C1508 1.385 . S
C1505 H1480 0.951 . S
C1505 C1503 1.388 . S
C1505 C1506 1.366 . S
C1506 C1505 1.366 . S
C1506 C1507 1.414 . S
C1506 C1509 1.499 . S
C1507 H1481 0.950 . S
C1507 C1506 1.414 . S
C1507 C1508 1.374 . S
C1508 H1482 0.950 . S
C1508 C1504 1.385 . S
C1508 C1507 1.374 . S
C1509 C1506 1.499 . S
C1509 C1510 1.373 . S
C1509 C1511 1.389 . S
C1510 H1483 0.950 . S
C1510 C1496 1.377 . S
C1510 C1509 1.373 . S
C1511 C1495 1.377 . S
C1511 C1509 1.389 . S
C1511 C1512 1.524 . S
C1512 C1511 1.524 . S
C1512 C1513 1.397 . S
C1512 C1517 1.363 . S
C1513 H1484 0.950 . S
C1513 C1512 1.397 . S
C1513 C1514 1.334 . S
C1514 H1485 0.950 . S
C1514 C1513 1.334 . S
C1514 C1515 1.287 . S
C1515 C1514 1.287 . S
C1515 C1516 1.524 . S
C1515 H1518 0.999 . S
C1516 H1486 0.950 . S
C1516 C1515 1.524 . S
C1516 C1517 1.415 . S
C1517 H1487 0.950 . S
C1517 C1512 1.363 . S
C1517 C1516 1.415 . S
H1518 C1515 0.999 . S
H1519 C1500 0.913 . S
H1520 C1538 0.951 . S
H1521 C1540 0.951 . S
H1522 C1542 0.950 . S
H1523 C1543 0.950 . S
H1524 C1545 0.950 . S
H1525 C1548 0.950 . S
H1526 C1549 0.950 . S
H1527 C1551 0.950 . S
H1528 C1552 0.950 . S
H1529 C1553 0.951 . S
H1530 C1555 0.952 . S
H1531 C1557 0.950 . S
H1532 C1558 0.950 . S
H1533 C1560 0.950 . S
H1534 C1563 0.950 . S
H1535 C1564 0.950 . S
H1536 C1566 0.950 1_554 S
H1537 C1567 0.950 . S
C1538 H1520 0.951 . S
C1538 C1539 1.366 . S
C1538 C1540 1.388 . S
C1539 C1538 1.366 . S
C1539 C1543 1.385 . S
C1540 H1521 0.951 . S
C1540 C1538 1.388 . S
C1540 C1541 1.366 . S
C1541 C1540 1.366 . S
C1541 C1542 1.414 . S
C1541 C1544 1.499 . S
C1542 H1522 0.950 . S
C1542 C1541 1.414 . S
C1542 C1543 1.374 . S
C1543 H1523 0.950 . S
C1543 C1539 1.385 . S
C1543 C1542 1.374 . S
C1544 C1541 1.499 . S
C1544 C1545 1.373 . S
C1544 C1546 1.389 . S
C1545 H1524 0.950 . S
C1545 C1544 1.373 . S
C1545 C1561 1.377 . S
C1546 C1544 1.389 . S
C1546 C1547 1.524 . S
C1546 C1560 1.377 . S
C1547 C1546 1.524 . S
C1547 C1548 1.397 . S
C1547 C1552 1.363 . S
C1548 H1525 0.950 . S
C1548 C1547 1.397 . S
C1548 C1549 1.334 . S
C1549 H1526 0.950 . S
C1549 C1548 1.334 . S
C1549 C1550 1.287 . S
C1550 C1549 1.287 . S
C1550 C1551 1.524 . S
C1550 H1569 0.913 . S
C1551 H1527 0.950 . S
C1551 C1550 1.524 . S
C1551 C1552 1.415 . S
C1552 H1528 0.950 . S
C1552 C1547 1.363 . S
C1552 C1551 1.415 . S
C1553 H1529 0.951 . S
C1553 C1554 1.366 1_554 S
C1553 C1555 1.390 . S
C1554 C1553 1.366 1_556 S
C1554 C1558 1.385 . S
C1555 H1530 0.952 . S
C1555 C1553 1.390 . S
C1555 C1556 1.362 1_554 S
C1556 C1555 1.362 1_556 S
C1556 C1557 1.414 . S
C1556 C1559 1.499 . S
C1557 H1531 0.950 . S
C1557 C1556 1.414 . S
C1557 C1558 1.374 . S
C1558 H1532 0.950 . S
C1558 C1554 1.385 . S
C1558 C1557 1.374 . S
C1559 C1556 1.499 . S
C1559 C1560 1.373 . S
C1559 C1561 1.389 . S
C1560 H1533 0.950 . S
C1560 C1546 1.377 . S
C1560 C1559 1.373 . S
C1561 C1545 1.377 . S
C1561 C1559 1.389 . S
C1561 C1562 1.524 . S
C1562 C1561 1.524 . S
C1562 C1563 1.397 . S
C1562 C1567 1.363 . S
C1563 H1534 0.950 . S
C1563 C1562 1.397 . S
C1563 C1564 1.334 . S
C1564 H1535 0.950 . S
C1564 C1563 1.334 . S
C1564 C1565 1.287 . S
C1565 C1564 1.287 . S
C1565 C1566 1.524 . S
C1565 H1568 0.999 1_455 S
C1566 H1536 0.950 1_556 S
C1566 C1565 1.524 . S
C1566 C1567 1.415 . S
C1567 H1537 0.950 . S
C1567 C1562 1.363 . S
C1567 C1566 1.415 . S
H1568 C1565 0.999 1_655 S
H1569 C1550 0.913 . S
H1570 C1588 0.951 . S
H1571 C1590 0.951 . S
H1572 C1592 0.950 . S
H1573 C1593 0.950 . S
H1574 C1595 0.950 . S
H1575 C1598 0.950 . S
H1576 C1599 0.950 . S
H1577 C1601 0.950 . S
H1578 C1602 0.950 . S
H1579 C1603 0.951 . S
H1580 C1605 0.951 . S
H1581 C1607 0.950 . S
H1582 C1608 0.950 . S
H1583 C1610 0.950 . S
H1584 C1613 0.950 . S
H1585 C1614 0.950 . S
H1586 C1616 0.950 . S
H1587 C1617 0.950 . S
C1588 H1570 0.951 . S
C1588 C1589 1.366 . S
C1588 C1590 1.388 . S
C1589 C1588 1.366 . S
C1589 C1593 1.385 . S
C1590 H1571 0.951 . S
C1590 C1588 1.388 . S
C1590 C1591 1.366 . S
C1591 C1590 1.366 . S
C1591 C1592 1.414 . S
C1591 C1594 1.499 . S
C1592 H1572 0.950 . S
C1592 C1591 1.414 . S
C1592 C1593 1.374 . S
C1593 H1573 0.950 . S
C1593 C1589 1.385 . S
C1593 C1592 1.374 . S
C1594 C1591 1.499 . S
C1594 C1595 1.373 . S
C1594 C1596 1.389 . S
C1595 H1574 0.950 . S
C1595 C1594 1.373 . S
C1595 C1611 1.377 . S
C1596 C1594 1.389 . S
C1596 C1597 1.524 . S
C1596 C1610 1.377 . S
C1597 C1596 1.524 . S
C1597 C1598 1.397 . S
C1597 C1602 1.363 . S
C1598 H1575 0.950 . S
C1598 C1597 1.397 . S
C1598 C1599 1.334 . S
C1599 H1576 0.950 . S
C1599 C1598 1.334 . S
C1599 C1600 1.287 . S
C1600 C1599 1.287 . S
C1600 C1601 1.524 . S
C1600 H1619 0.913 . S
C1601 H1577 0.950 . S
C1601 C1600 1.524 . S
C1601 C1602 1.415 . S
C1602 H1578 0.950 . S
C1602 C1597 1.363 . S
C1602 C1601 1.415 . S
C1603 H1579 0.951 . S
C1603 C1604 1.366 . S
C1603 C1605 1.388 . S
C1604 C1603 1.366 . S
C1604 C1608 1.385 . S
C1605 H1580 0.951 . S
C1605 C1603 1.388 . S
C1605 C1606 1.366 . S
C1606 C1605 1.366 . S
C1606 C1607 1.414 . S
C1606 C1609 1.499 . S
C1607 H1581 0.950 . S
C1607 C1606 1.414 . S
C1607 C1608 1.374 . S
C1608 H1582 0.950 . S
C1608 C1604 1.385 . S
C1608 C1607 1.374 . S
C1609 C1606 1.499 . S
C1609 C1610 1.373 . S
C1609 C1611 1.389 . S
C1610 H1583 0.950 . S
C1610 C1596 1.377 . S
C1610 C1609 1.373 . S
C1611 C1595 1.377 . S
C1611 C1609 1.389 . S
C1611 C1612 1.524 . S
C1612 C1611 1.524 . S
C1612 C1613 1.397 . S
C1612 C1617 1.363 . S
C1613 H1584 0.950 . S
C1613 C1612 1.397 . S
C1613 C1614 1.334 1_556 S
C1614 H1585 0.950 . S
C1614 C1613 1.334 1_554 S
C1614 C1615 1.287 . S
C1615 C1614 1.287 . S
C1615 C1616 1.524 1_554 S
C1615 H1618 0.999 . S
C1616 H1586 0.950 . S
C1616 C1615 1.524 1_556 S
C1616 C1617 1.415 . S
C1617 H1587 0.950 . S
C1617 C1612 1.363 . S
C1617 C1616 1.415 . S
H1618 C1615 0.999 . S
H1619 C1600 0.913 . S
H1620 C1638 0.951 . S
H1621 C1640 0.951 . S
H1622 C1642 0.950 . S
H1623 C1643 0.950 . S
H1624 C1645 0.950 . S
H1625 C1648 0.950 . S
H1626 C1649 0.950 . S
H1627 C1651 0.950 . S
H1628 C1652 0.950 . S
H1629 C1653 0.951 . S
H1630 C1655 0.951 . S
H1631 C1657 0.950 . S
H1632 C1658 0.950 . S
H1633 C1660 0.950 . S
H1634 C1663 0.950 . S
H1635 C1664 0.950 . S
H1636 C1666 0.950 . S
H1637 C1667 0.950 . S
C1638 H1620 0.951 . S
C1638 C1639 1.366 . S
C1638 C1640 1.388 . S
C1639 C1638 1.366 . S
C1639 C1643 1.385 . S
C1640 H1621 0.951 . S
C1640 C1638 1.388 . S
C1640 C1641 1.366 . S
C1641 C1640 1.366 . S
C1641 C1642 1.414 . S
C1641 C1644 1.499 . S
C1642 H1622 0.950 . S
C1642 C1641 1.414 . S
C1642 C1643 1.374 . S
C1643 H1623 0.950 . S
C1643 C1639 1.385 . S
C1643 C1642 1.374 . S
C1644 C1641 1.499 . S
C1644 C1645 1.373 . S
C1644 C1646 1.389 . S
C1645 H1624 0.950 . S
C1645 C1644 1.373 . S
C1645 C1661 1.377 . S
C1646 C1644 1.389 . S
C1646 C1647 1.524 . S
C1646 C1660 1.377 . S
C1647 C1646 1.524 . S
C1647 C1648 1.397 . S
C1647 C1652 1.363 . S
C1648 H1625 0.950 . S
C1648 C1647 1.397 . S
C1648 C1649 1.334 . S
C1649 H1626 0.950 . S
C1649 C1648 1.334 . S
C1649 C1650 1.287 . S
C1650 C1649 1.287 . S
C1650 C1651 1.524 . S
C1650 H1669 0.913 . S
C1651 H1627 0.950 . S
C1651 C1650 1.524 . S
C1651 C1652 1.415 . S
C1652 H1628 0.950 . S
C1652 C1647 1.363 . S
C1652 C1651 1.415 . S
C1653 H1629 0.951 . S
C1653 C1654 1.366 . S
C1653 C1655 1.388 . S
C1654 C1653 1.366 . S
C1654 C1658 1.385 . S
C1655 H1630 0.951 . S
C1655 C1653 1.388 . S
C1655 C1656 1.366 . S
C1656 C1655 1.366 . S
C1656 C1657 1.414 . S
C1656 C1659 1.499 . S
C1657 H1631 0.950 . S
C1657 C1656 1.414 . S
C1657 C1658 1.374 . S
C1658 H1632 0.950 . S
C1658 C1654 1.385 . S
C1658 C1657 1.374 . S
C1659 C1656 1.499 . S
C1659 C1660 1.373 . S
C1659 C1661 1.389 . S
C1660 H1633 0.950 . S
C1660 C1646 1.377 . S
C1660 C1659 1.373 . S
C1661 C1645 1.377 . S
C1661 C1659 1.389 . S
C1661 C1662 1.524 . S
C1662 C1661 1.524 . S
C1662 C1663 1.397 . S
C1662 C1667 1.363 . S
C1663 H1634 0.950 . S
C1663 C1662 1.397 . S
C1663 C1664 1.334 . S
C1664 H1635 0.950 . S
C1664 C1663 1.334 . S
C1664 C1665 1.287 . S
C1665 C1664 1.287 . S
C1665 C1666 1.524 . S
C1665 H1668 0.999 . S
C1666 H1636 0.950 . S
C1666 C1665 1.524 . S
C1666 C1667 1.415 . S
C1667 H1637 0.950 . S
C1667 C1662 1.363 . S
C1667 C1666 1.415 . S
H1668 C1665 0.999 . S
H1669 C1650 0.913 . S
H1670 C1688 0.951 . S
H1671 C1690 0.951 . S
H1672 C1692 0.950 . S
H1673 C1693 0.950 . S
H1674 C1695 0.950 . S
H1675 C1698 0.950 . S
H1676 C1699 0.950 . S
H1677 C1701 0.950 . S
H1678 C1702 0.950 . S
H1679 C1703 0.951 . S
H1680 C1705 0.951 . S
H1681 C1707 0.950 . S
H1682 C1708 0.950 . S
H1683 C1710 0.950 . S
H1684 C1713 0.950 . S
H1685 C1714 0.950 . S
H1686 C1716 0.950 . S
H1687 C1717 0.950 . S
C1688 H1670 0.951 . S
C1688 C1689 1.366 . S
C1688 C1690 1.388 . S
C1689 C1688 1.366 . S
C1689 C1693 1.385 . S
C1690 H1671 0.951 . S
C1690 C1688 1.388 . S
C1690 C1691 1.366 . S
C1691 C1690 1.366 . S
C1691 C1692 1.414 . S
C1691 C1694 1.499 . S
C1692 H1672 0.950 . S
C1692 C1691 1.414 . S
C1692 C1693 1.374 . S
C1693 H1673 0.950 . S
C1693 C1689 1.385 . S
C1693 C1692 1.374 . S
C1694 C1691 1.499 . S
C1694 C1695 1.373 . S
C1694 C1696 1.389 . S
C1695 H1674 0.950 . S
C1695 C1694 1.373 . S
C1695 C1711 1.377 . S
C1696 C1694 1.389 . S
C1696 C1697 1.524 . S
C1696 C1710 1.377 . S
C1697 C1696 1.524 . S
C1697 C1698 1.397 . S
C1697 C1702 1.363 . S
C1698 H1675 0.950 . S
C1698 C1697 1.397 . S
C1698 C1699 1.334 . S
C1699 H1676 0.950 . S
C1699 C1698 1.334 . S
C1699 C1700 1.287 . S
C1700 C1699 1.287 . S
C1700 C1701 1.524 . S
C1700 H1719 0.913 . S
C1701 H1677 0.950 . S
C1701 C1700 1.524 . S
C1701 C1702 1.415 . S
C1702 H1678 0.950 . S
C1702 C1697 1.363 . S
C1702 C1701 1.415 . S
C1703 H1679 0.951 . S
C1703 C1704 1.366 . S
C1703 C1705 1.388 . S
C1704 C1703 1.366 . S
C1704 C1708 1.385 . S
C1705 H1680 0.951 . S
C1705 C1703 1.388 . S
C1705 C1706 1.366 . S
C1706 C1705 1.366 . S
C1706 C1707 1.414 . S
C1706 C1709 1.499 . S
C1707 H1681 0.950 . S
C1707 C1706 1.414 . S
C1707 C1708 1.374 . S
C1708 H1682 0.950 . S
C1708 C1704 1.385 . S
C1708 C1707 1.374 . S
C1709 C1706 1.499 . S
C1709 C1710 1.373 . S
C1709 C1711 1.389 . S
C1710 H1683 0.950 . S
C1710 C1696 1.377 . S
C1710 C1709 1.373 . S
C1711 C1695 1.377 . S
C1711 C1709 1.389 . S
C1711 C1712 1.524 . S
C1712 C1711 1.524 . S
C1712 C1713 1.397 . S
C1712 C1717 1.363 . S
C1713 H1684 0.950 . S
C1713 C1712 1.397 . S
C1713 C1714 1.334 . S
C1714 H1685 0.950 . S
C1714 C1713 1.334 . S
C1714 C1715 1.287 . S
C1715 C1714 1.287 . S
C1715 C1716 1.524 . S
C1715 H1718 0.999 . S
C1716 H1686 0.950 . S
C1716 C1715 1.524 . S
C1716 C1717 1.415 . S
C1717 H1687 0.950 . S
C1717 C1712 1.363 . S
C1717 C1716 1.415 . S
H1718 C1715 0.999 . S
H1719 C1700 0.913 . S
H1720 C1738 0.951 . S
H1721 C1740 0.951 . S
H1722 C1742 0.950 . S
H1723 C1743 0.950 . S
H1724 C1745 0.950 . S
H1725 C1748 0.950 . S
H1726 C1749 0.950 . S
H1727 C1751 0.950 . S
H1728 C1752 0.950 . S
H1729 C1753 0.951 1_554 S
H1730 C1755 0.951 . S
H1731 C1757 0.950 . S
H1732 C1758 0.950 . S
H1733 C1760 0.950 . S
H1734 C1763 0.950 . S
H1735 C1764 0.950 . S
H1736 C1766 0.950 . S
H1737 C1767 0.950 . S
C1738 H1720 0.951 . S
C1738 C1739 1.366 . S
C1738 C1740 1.388 . S
C1739 C1738 1.366 . S
C1739 C1743 1.385 . S
C1740 H1721 0.951 . S
C1740 C1738 1.388 . S
C1740 C1741 1.366 . S
C1741 C1740 1.366 . S
C1741 C1742 1.414 . S
C1741 C1744 1.499 . S
C1742 H1722 0.950 . S
C1742 C1741 1.414 . S
C1742 C1743 1.374 . S
C1743 H1723 0.950 . S
C1743 C1739 1.385 . S
C1743 C1742 1.374 . S
C1744 C1741 1.499 . S
C1744 C1745 1.373 . S
C1744 C1746 1.389 . S
C1745 H1724 0.950 . S
C1745 C1744 1.373 . S
C1745 C1761 1.377 . S
C1746 C1744 1.389 . S
C1746 C1747 1.524 . S
C1746 C1760 1.377 . S
C1747 C1746 1.524 . S
C1747 C1748 1.397 . S
C1747 C1752 1.363 . S
C1748 H1725 0.950 . S
C1748 C1747 1.397 . S
C1748 C1749 1.334 . S
C1749 H1726 0.950 . S
C1749 C1748 1.334 . S
C1749 C1750 1.287 . S
C1750 C1749 1.287 . S
C1750 C1751 1.524 . S
C1750 H1769 0.913 . S
C1751 H1727 0.950 . S
C1751 C1750 1.524 . S
C1751 C1752 1.415 . S
C1752 H1728 0.950 . S
C1752 C1747 1.363 . S
C1752 C1751 1.415 . S
C1753 H1729 0.951 1_556 S
C1753 C1754 1.366 . S
C1753 C1755 1.388 . S
C1754 C1753 1.366 . S
C1754 C1758 1.385 . S
C1755 H1730 0.951 . S
C1755 C1753 1.388 . S
C1755 C1756 1.366 . S
C1756 C1755 1.366 . S
C1756 C1757 1.414 . S
C1756 C1759 1.499 . S
C1757 H1731 0.950 . S
C1757 C1756 1.414 . S
C1757 C1758 1.374 . S
C1758 H1732 0.950 . S
C1758 C1754 1.385 . S
C1758 C1757 1.374 . S
C1759 C1756 1.499 . S
C1759 C1760 1.373 . S
C1759 C1761 1.389 . S
C1760 H1733 0.950 . S
C1760 C1746 1.377 . S
C1760 C1759 1.373 . S
C1761 C1745 1.377 . S
C1761 C1759 1.389 . S
C1761 C1762 1.524 . S
C1762 C1761 1.524 . S
C1762 C1763 1.397 . S
C1762 C1767 1.363 . S
C1763 H1734 0.950 . S
C1763 C1762 1.397 . S
C1763 C1764 1.334 . S
C1764 H1735 0.950 . S
C1764 C1763 1.334 . S
C1764 C1765 1.287 . S
C1765 C1764 1.287 . S
C1765 C1766 1.524 . S
C1765 H1768 0.999 . S
C1766 H1736 0.950 . S
C1766 C1765 1.524 . S
C1766 C1767 1.415 . S
C1767 H1737 0.950 . S
C1767 C1762 1.363 . S
C1767 C1766 1.415 . S
H1768 C1765 0.999 . S
H1769 C1750 0.913 . S
H1770 C1788 0.951 . S
H1771 C1790 0.951 . S
H1772 C1792 0.950 . S
H1773 C1793 0.950 . S
H1774 C1795 0.950 . S
H1775 C1798 0.950 . S
H1776 C1799 0.950 . S
H1777 C1801 0.950 . S
H1778 C1802 0.950 . S
H1779 C1803 0.951 . S
H1780 C1805 0.951 . S
H1781 C1807 0.950 . S
H1782 C1808 0.950 . S
H1783 C1810 0.950 . S
H1784 C1813 0.950 . S
H1785 C1814 0.950 . S
H1786 C1816 0.950 . S
H1787 C1817 0.950 . S
C1788 H1770 0.951 . S
C1788 C1789 1.366 . S
C1788 C1790 1.388 . S
C1789 C1788 1.366 . S
C1789 C1793 1.385 . S
C1790 H1771 0.951 . S
C1790 C1788 1.388 . S
C1790 C1791 1.366 . S
C1791 C1790 1.366 . S
C1791 C1792 1.414 . S
C1791 C1794 1.499 . S
C1792 H1772 0.950 . S
C1792 C1791 1.414 . S
C1792 C1793 1.374 . S
C1793 H1773 0.950 . S
C1793 C1789 1.385 . S
C1793 C1792 1.374 . S
C1794 C1791 1.499 . S
C1794 C1795 1.373 . S
C1794 C1796 1.389 . S
C1795 H1774 0.950 . S
C1795 C1794 1.373 . S
C1795 C1811 1.377 . S
C1796 C1794 1.389 . S
C1796 C1797 1.524 . S
C1796 C1810 1.377 . S
C1797 C1796 1.524 . S
C1797 C1798 1.397 . S
C1797 C1802 1.363 . S
C1798 H1775 0.950 . S
C1798 C1797 1.397 . S
C1798 C1799 1.334 . S
C1799 H1776 0.950 . S
C1799 C1798 1.334 . S
C1799 C1800 1.287 . S
C1800 C1799 1.287 . S
C1800 C1801 1.524 . S
C1800 H1819 0.913 . S
C1801 H1777 0.950 . S
C1801 C1800 1.524 . S
C1801 C1802 1.415 . S
C1802 H1778 0.950 . S
C1802 C1797 1.363 . S
C1802 C1801 1.415 . S
C1803 H1779 0.951 . S
C1803 C1804 1.366 . S
C1803 C1805 1.388 . S
C1804 C1803 1.366 . S
C1804 C1808 1.385 . S
C1805 H1780 0.951 . S
C1805 C1803 1.388 . S
C1805 C1806 1.366 . S
C1806 C1805 1.366 . S
C1806 C1807 1.414 . S
C1806 C1809 1.499 . S
C1807 H1781 0.950 . S
C1807 C1806 1.414 . S
C1807 C1808 1.374 . S
C1808 H1782 0.950 . S
C1808 C1804 1.385 . S
C1808 C1807 1.374 . S
C1809 C1806 1.499 . S
C1809 C1810 1.373 . S
C1809 C1811 1.389 . S
C1810 H1783 0.950 . S
C1810 C1796 1.377 . S
C1810 C1809 1.373 . S
C1811 C1795 1.377 . S
C1811 C1809 1.389 . S
C1811 C1812 1.524 . S
C1812 C1811 1.524 . S
C1812 C1813 1.397 . S
C1812 C1817 1.363 . S
C1813 H1784 0.950 . S
C1813 C1812 1.397 . S
C1813 C1814 1.334 . S
C1814 H1785 0.950 . S
C1814 C1813 1.334 . S
C1814 C1815 1.287 . S
C1815 C1814 1.287 . S
C1815 C1816 1.524 . S
C1815 H1818 0.999 . S
C1816 H1786 0.950 . S
C1816 C1815 1.524 . S
C1816 C1817 1.415 . S
C1817 H1787 0.950 . S
C1817 C1812 1.363 . S
C1817 C1816 1.415 . S
H1818 C1815 0.999 . S
H1819 C1800 0.913 . S
H1820 C1838 0.951 . S
H1821 C1840 0.951 . S
H1822 C1842 0.950 . S
H1823 C1843 0.950 . S
H1824 C1845 0.950 . S
H1825 C1848 0.950 . S
H1826 C1849 0.950 . S
H1827 C1851 0.950 . S
H1828 C1852 0.950 . S
H1829 C1853 0.951 . S
H1830 C1855 0.951 . S
H1831 C1857 0.950 . S
H1832 C1858 0.957 . S
H1833 C1860 0.950 . S
H1834 C1863 0.950 . S
H1835 C1864 0.950 . S
H1836 C1866 0.950 . S
H1837 C1867 0.950 . S
C1838 H1820 0.951 . S
C1838 C1839 1.366 . S
C1838 C1840 1.388 . S
C1839 C1838 1.366 . S
C1839 C1843 1.385 . S
C1840 H1821 0.951 . S
C1840 C1838 1.388 . S
C1840 C1841 1.366 . S
C1841 C1840 1.366 . S
C1841 C1842 1.414 . S
C1841 C1844 1.499 . S
C1842 H1822 0.950 . S
C1842 C1841 1.414 . S
C1842 C1843 1.374 . S
C1843 H1823 0.950 . S
C1843 C1839 1.385 . S
C1843 C1842 1.374 . S
C1844 C1841 1.499 . S
C1844 C1845 1.373 . S
C1844 C1846 1.389 . S
C1845 H1824 0.950 . S
C1845 C1844 1.373 . S
C1845 C1861 1.377 . S
C1846 C1844 1.389 . S
C1846 C1847 1.524 . S
C1846 C1860 1.377 . S
C1847 C1846 1.524 . S
C1847 C1848 1.397 . S
C1847 C1852 1.363 . S
C1848 H1825 0.950 . S
C1848 C1847 1.397 . S
C1848 C1849 1.334 . S
C1849 H1826 0.950 . S
C1849 C1848 1.334 . S
C1849 C1850 1.287 . S
C1850 C1849 1.287 . S
C1850 C1851 1.524 . S
C1850 H1869 0.913 . S
C1851 H1827 0.950 . S
C1851 C1850 1.524 . S
C1851 C1852 1.415 . S
C1852 H1828 0.950 . S
C1852 C1847 1.363 . S
C1852 C1851 1.415 . S
C1853 H1829 0.951 . S
C1853 C1854 1.366 1_556 S
C1853 C1855 1.388 . S
C1854 C1853 1.366 1_554 S
C1854 C1858 1.384 . S
C1855 H1830 0.951 . S
C1855 C1853 1.388 . S
C1855 C1856 1.366 . S
C1856 C1855 1.366 . S
C1856 C1857 1.414 . S
C1856 C1859 1.499 . S
C1857 H1831 0.950 . S
C1857 C1856 1.414 . S
C1857 C1858 1.367 1_556 S
C1858 H1832 0.957 . S
C1858 C1854 1.384 . S
C1858 C1857 1.367 1_554 S
C1859 C1856 1.499 . S
C1859 C1860 1.373 . S
C1859 C1861 1.389 . S
C1860 H1833 0.950 . S
C1860 C1846 1.377 . S
C1860 C1859 1.373 . S
C1861 C1845 1.377 . S
C1861 C1859 1.389 . S
C1861 C1862 1.524 . S
C1862 C1861 1.524 . S
C1862 C1863 1.397 1_556 S
C1862 C1867 1.363 . S
C1863 H1834 0.950 . S
C1863 C1862 1.397 1_554 S
C1863 C1864 1.334 . S
C1864 H1835 0.950 . S
C1864 C1863 1.334 . S
C1864 C1865 1.287 . S
C1865 C1864 1.287 . S
C1865 C1866 1.524 1_554 S
C1865 H1868 0.999 . S
C1866 H1836 0.950 . S
C1866 C1865 1.524 1_556 S
C1866 C1867 1.415 . S
C1867 H1837 0.950 . S
C1867 C1862 1.363 . S
C1867 C1866 1.415 . S
H1868 C1865 0.999 . S
H1869 C1850 0.913 . S
H1870 C1888 0.951 . S
H1871 C1890 0.951 . S
H1872 C1892 0.950 . S
H1873 C1893 0.950 . S
H1874 C1895 0.950 . S
H1875 C1898 0.950 . S
H1876 C1899 0.950 . S
H1877 C1901 0.950 . S
H1878 C1902 0.950 . S
H1879 C1903 0.951 . S
H1880 C1905 0.951 . S
H1881 C1907 0.950 . S
H1882 C1908 0.950 . S
H1883 C1910 0.950 . S
H1884 C1913 0.950 . S
H1885 C1914 0.950 . S
H1886 C1916 0.950 . S
H1887 C1917 0.950 . S
C1888 H1870 0.951 . S
C1888 C1889 1.366 . S
C1888 C1890 1.388 . S
C1889 C1888 1.366 . S
C1889 C1893 1.385 . S
C1890 H1871 0.951 . S
C1890 C1888 1.388 . S
C1890 C1891 1.366 . S
C1891 C1890 1.366 . S
C1891 C1892 1.414 . S
C1891 C1894 1.499 . S
C1892 H1872 0.950 . S
C1892 C1891 1.414 . S
C1892 C1893 1.374 . S
C1893 H1873 0.950 . S
C1893 C1889 1.385 . S
C1893 C1892 1.374 . S
C1894 C1891 1.499 . S
C1894 C1895 1.373 . S
C1894 C1896 1.389 . S
C1895 H1874 0.950 . S
C1895 C1894 1.373 . S
C1895 C1911 1.377 . S
C1896 C1894 1.389 . S
C1896 C1897 1.524 . S
C1896 C1910 1.377 . S
C1897 C1896 1.524 . S
C1897 C1898 1.397 . S
C1897 C1902 1.363 . S
C1898 H1875 0.950 . S
C1898 C1897 1.397 . S
C1898 C1899 1.334 . S
C1899 H1876 0.950 . S
C1899 C1898 1.334 . S
C1899 C1900 1.287 . S
C1900 C1899 1.287 . S
C1900 C1901 1.524 . S
C1900 H1919 0.913 . S
C1901 H1877 0.950 . S
C1901 C1900 1.524 . S
C1901 C1902 1.415 . S
C1902 H1878 0.950 . S
C1902 C1897 1.363 . S
C1902 C1901 1.415 . S
C1903 H1879 0.951 . S
C1903 C1904 1.366 . S
C1903 C1905 1.388 . S
C1904 C1903 1.366 . S
C1904 C1908 1.385 . S
C1905 H1880 0.951 . S
C1905 C1903 1.388 . S
C1905 C1906 1.366 . S
C1906 C1905 1.366 . S
C1906 C1907 1.414 . S
C1906 C1909 1.499 . S
C1907 H1881 0.950 . S
C1907 C1906 1.414 . S
C1907 C1908 1.374 . S
C1908 H1882 0.950 . S
C1908 C1904 1.385 . S
C1908 C1907 1.374 . S
C1909 C1906 1.499 . S
C1909 C1910 1.373 . S
C1909 C1911 1.389 . S
C1910 H1883 0.950 . S
C1910 C1896 1.377 . S
C1910 C1909 1.373 . S
C1911 C1895 1.377 . S
C1911 C1909 1.389 . S
C1911 C1912 1.524 . S
C1912 C1911 1.524 . S
C1912 C1913 1.397 . S
C1912 C1917 1.363 . S
C1913 H1884 0.950 . S
C1913 C1912 1.397 . S
C1913 C1914 1.334 . S
C1914 H1885 0.950 . S
C1914 C1913 1.334 . S
C1914 C1915 1.287 . S
C1915 C1914 1.287 . S
C1915 C1916 1.524 . S
C1915 H1918 0.999 . S
C1916 H1886 0.950 . S
C1916 C1915 1.524 . S
C1916 C1917 1.415 . S
C1917 H1887 0.950 . S
C1917 C1912 1.363 . S
C1917 C1916 1.415 . S
H1918 C1915 0.999 . S
H1919 C1900 0.913 . S
H1920 C1938 0.951 . S
H1921 C1940 0.951 . S
H1922 C1942 0.950 . S
H1923 C1943 0.950 . S
H1924 C1945 0.950 . S
H1925 C1948 0.950 . S
H1926 C1949 0.950 . S
H1927 C1951 0.950 . S
H1928 C1952 0.950 . S
H1929 C1953 0.951 . S
H1930 C1955 0.951 . S
H1931 C1957 0.950 . S
H1932 C1958 0.950 . S
H1933 C1960 0.950 . S
H1934 C1963 0.950 . S
H1935 C1964 0.950 . S
H1936 C1966 0.950 . S
H1937 C1967 0.950 . S
C1938 H1920 0.951 . S
C1938 C1939 1.366 . S
C1938 C1940 1.388 . S
C1939 C1938 1.366 . S
C1939 C1943 1.385 . S
C1940 H1921 0.951 . S
C1940 C1938 1.388 . S
C1940 C1941 1.366 . S
C1941 C1940 1.366 . S
C1941 C1942 1.414 . S
C1941 C1944 1.499 . S
C1942 H1922 0.950 . S
C1942 C1941 1.414 . S
C1942 C1943 1.374 . S
C1943 H1923 0.950 . S
C1943 C1939 1.385 . S
C1943 C1942 1.374 . S
C1944 C1941 1.499 . S
C1944 C1945 1.373 . S
C1944 C1946 1.389 . S
C1945 H1924 0.950 . S
C1945 C1944 1.373 . S
C1945 C1961 1.377 . S
C1946 C1944 1.389 . S
C1946 C1947 1.524 . S
C1946 C1960 1.377 . S
C1947 C1946 1.524 . S
C1947 C1948 1.397 . S
C1947 C1952 1.363 . S
C1948 H1925 0.950 . S
C1948 C1947 1.397 . S
C1948 C1949 1.334 . S
C1949 H1926 0.950 . S
C1949 C1948 1.334 . S
C1949 C1950 1.287 . S
C1950 C1949 1.287 . S
C1950 C1951 1.524 . S
C1950 H1969 0.913 . S
C1951 H1927 0.950 . S
C1951 C1950 1.524 . S
C1951 C1952 1.415 . S
C1952 H1928 0.950 . S
C1952 C1947 1.363 . S
C1952 C1951 1.415 . S
C1953 H1929 0.951 . S
C1953 C1954 1.366 . S
C1953 C1955 1.388 . S
C1954 C1953 1.366 . S
C1954 C1958 1.385 . S
C1955 H1930 0.951 . S
C1955 C1953 1.388 . S
C1955 C1956 1.366 . S
C1956 C1955 1.366 . S
C1956 C1957 1.414 . S
C1956 C1959 1.499 . S
C1957 H1931 0.950 . S
C1957 C1956 1.414 . S
C1957 C1958 1.374 . S
C1958 H1932 0.950 . S
C1958 C1954 1.385 . S
C1958 C1957 1.374 . S
C1959 C1956 1.499 . S
C1959 C1960 1.373 . S
C1959 C1961 1.389 . S
C1960 H1933 0.950 . S
C1960 C1946 1.377 . S
C1960 C1959 1.373 . S
C1961 C1945 1.377 . S
C1961 C1959 1.389 . S
C1961 C1962 1.524 . S
C1962 C1961 1.524 . S
C1962 C1963 1.397 . S
C1962 C1967 1.363 . S
C1963 H1934 0.950 . S
C1963 C1962 1.397 . S
C1963 C1964 1.334 . S
C1964 H1935 0.950 . S
C1964 C1963 1.334 . S
C1964 C1965 1.287 . S
C1965 C1964 1.287 . S
C1965 C1966 1.524 . S
C1965 H1968 0.999 . S
C1966 H1936 0.950 . S
C1966 C1965 1.524 . S
C1966 C1967 1.415 . S
C1967 H1937 0.950 . S
C1967 C1962 1.363 . S
C1967 C1966 1.415 . S
H1968 C1965 0.999 . S
H1969 C1950 0.913 . S
H1970 C1988 0.951 . S
H1971 C1990 0.951 . S
H1972 C1992 0.950 . S
H1973 C1993 0.950 . S
H1974 C1995 0.950 . S
H1975 C1998 0.950 . S
H1976 C1999 0.950 . S
H1977 C2001 0.950 . S
H1978 C2002 0.950 . S
H1979 C2003 0.951 . S
H1980 C2005 0.951 . S
H1981 C2007 0.950 . S
H1982 C2008 0.950 . S
H1983 C2010 0.950 . S
H1984 C2013 0.950 . S
H1985 C2014 0.950 . S
H1986 C2016 0.950 . S
H1987 C2017 0.950 . S
C1988 H1970 0.951 . S
C1988 C1989 1.366 . S
C1988 C1990 1.388 . S
C1989 C1988 1.366 . S
C1989 C1993 1.385 . S
C1990 H1971 0.951 . S
C1990 C1988 1.388 . S
C1990 C1991 1.366 . S
C1991 C1990 1.366 . S
C1991 C1992 1.414 . S
C1991 C1994 1.499 . S
C1992 H1972 0.950 . S
C1992 C1991 1.414 . S
C1992 C1993 1.374 . S
C1993 H1973 0.950 . S
C1993 C1989 1.385 . S
C1993 C1992 1.374 . S
C1994 C1991 1.499 . S
C1994 C1995 1.373 . S
C1994 C1996 1.389 . S
C1995 H1974 0.950 . S
C1995 C1994 1.373 . S
C1995 C2011 1.377 . S
C1996 C1994 1.389 . S
C1996 C1997 1.524 . S
C1996 C2010 1.377 . S
C1997 C1996 1.524 . S
C1997 C1998 1.397 . S
C1997 C2002 1.363 . S
C1998 H1975 0.950 . S
C1998 C1997 1.397 . S
C1998 C1999 1.334 . S
C1999 H1976 0.950 . S
C1999 C1998 1.334 . S
C1999 C2000 1.287 . S
C2000 C1999 1.287 . S
C2000 C2001 1.524 . S
C2000 H2019 0.913 . S
C2001 H1977 0.950 . S
C2001 C2000 1.524 . S
C2001 C2002 1.415 . S
C2002 H1978 0.950 . S
C2002 C1997 1.363 . S
C2002 C2001 1.415 . S
C2003 H1979 0.951 . S
C2003 C2004 1.366 . S
C2003 C2005 1.388 . S
C2004 C2003 1.366 . S
C2004 C2008 1.385 . S
C2005 H1980 0.951 . S
C2005 C2003 1.388 . S
C2005 C2006 1.366 . S
C2006 C2005 1.366 . S
C2006 C2007 1.414 . S
C2006 C2009 1.499 . S
C2007 H1981 0.950 . S
C2007 C2006 1.414 . S
C2007 C2008 1.374 . S
C2008 H1982 0.950 . S
C2008 C2004 1.385 . S
C2008 C2007 1.374 . S
C2009 C2006 1.499 . S
C2009 C2010 1.373 . S
C2009 C2011 1.389 . S
C2010 H1983 0.950 . S
C2010 C1996 1.377 . S
C2010 C2009 1.373 . S
C2011 C1995 1.377 . S
C2011 C2009 1.389 . S
C2011 C2012 1.524 . S
C2012 C2011 1.524 . S
C2012 C2013 1.397 . S
C2012 C2017 1.363 . S
C2013 H1984 0.950 . S
C2013 C2012 1.397 . S
C2013 C2014 1.334 . S
C2014 H1985 0.950 . S
C2014 C2013 1.334 . S
C2014 C2015 1.287 . S
C2015 C2014 1.287 . S
C2015 C2016 1.524 . S
C2015 H2018 0.999 . S
C2016 H1986 0.950 . S
C2016 C2015 1.524 . S
C2016 C2017 1.415 . S
C2017 H1987 0.950 . S
C2017 C2012 1.363 . S
C2017 C2016 1.415 . S
H2018 C2015 0.999 . S
H2019 C2000 0.913 . S
H2020 C2038 0.951 . S
H2021 C2040 0.951 . S
H2022 C2042 0.950 . S
H2023 C2043 0.950 . S
H2024 C2045 0.950 . S
H2025 C2048 0.950 . S
H2026 C2049 0.950 . S
H2027 C2051 0.950 . S
H2028 C2052 0.950 . S
H2029 C2053 0.951 . S
H2030 C2055 0.951 . S
H2031 C2057 0.950 . S
H2032 C2058 0.950 . S
H2033 C2060 0.950 . S
H2034 C2063 0.950 . S
H2035 C2064 0.950 . S
H2036 C2066 0.950 . S
H2037 C2067 0.950 . S
C2038 H2020 0.951 . S
C2038 C2039 1.366 . S
C2038 C2040 1.388 . S
C2039 C2038 1.366 . S
C2039 C2043 1.385 . S
C2040 H2021 0.951 . S
C2040 C2038 1.388 . S
C2040 C2041 1.366 . S
C2041 C2040 1.366 . S
C2041 C2042 1.414 . S
C2041 C2044 1.499 . S
C2042 H2022 0.950 . S
C2042 C2041 1.414 . S
C2042 C2043 1.374 . S
C2043 H2023 0.950 . S
C2043 C2039 1.385 . S
C2043 C2042 1.374 . S
C2044 C2041 1.499 . S
C2044 C2045 1.373 . S
C2044 C2046 1.389 . S
C2045 H2024 0.950 . S
C2045 C2044 1.373 . S
C2045 C2061 1.377 . S
C2046 C2044 1.389 . S
C2046 C2047 1.524 . S
C2046 C2060 1.377 . S
C2047 C2046 1.524 . S
C2047 C2048 1.397 . S
C2047 C2052 1.363 . S
C2048 H2025 0.950 . S
C2048 C2047 1.397 . S
C2048 C2049 1.334 . S
C2049 H2026 0.950 . S
C2049 C2048 1.334 . S
C2049 C2050 1.287 . S
C2050 C2049 1.287 . S
C2050 C2051 1.524 . S
C2050 H2069 0.913 . S
C2051 H2027 0.950 . S
C2051 C2050 1.524 . S
C2051 C2052 1.415 . S
C2052 H2028 0.950 . S
C2052 C2047 1.363 . S
C2052 C2051 1.415 . S
C2053 H2029 0.951 . S
C2053 C2054 1.366 . S
C2053 C2055 1.388 . S
C2054 C2053 1.366 . S
C2054 C2058 1.385 . S
C2055 H2030 0.951 . S
C2055 C2053 1.388 . S
C2055 C2056 1.366 . S
C2056 C2055 1.366 . S
C2056 C2057 1.414 . S
C2056 C2059 1.499 . S
C2057 H2031 0.950 . S
C2057 C2056 1.414 . S
C2057 C2058 1.374 . S
C2058 H2032 0.950 . S
C2058 C2054 1.385 . S
C2058 C2057 1.374 . S
C2059 C2056 1.499 . S
C2059 C2060 1.373 . S
C2059 C2061 1.389 . S
C2060 H2033 0.950 . S
C2060 C2046 1.377 . S
C2060 C2059 1.373 . S
C2061 C2045 1.377 . S
C2061 C2059 1.389 . S
C2061 C2062 1.524 . S
C2062 C2061 1.524 . S
C2062 C2063 1.397 . S
C2062 C2067 1.363 . S
C2063 H2034 0.950 . S
C2063 C2062 1.397 . S
C2063 C2064 1.334 . S
C2064 H2035 0.950 . S
C2064 C2063 1.334 . S
C2064 C2065 1.287 . S
C2065 C2064 1.287 . S
C2065 C2066 1.524 . S
C2065 H2068 0.999 . S
C2066 H2036 0.950 . S
C2066 C2065 1.524 . S
C2066 C2067 1.415 . S
C2067 H2037 0.950 . S
C2067 C2062 1.363 . S
C2067 C2066 1.415 . S
H2068 C2065 0.999 . S
H2069 C2050 0.913 . S
H2070 C2088 0.951 . S
H2071 C2090 0.951 . S
H2072 C2092 0.950 . S
H2073 C2093 0.950 . S
H2074 C2095 0.950 . S
H2075 C2098 0.950 . S
H2076 C2099 0.950 . S
H2077 C2101 0.950 . S
H2078 C2102 0.950 . S
H2079 C2103 0.951 1_554 S
H2080 C2105 0.951 . S
H2081 C2107 0.950 . S
H2082 C2108 0.950 . S
H2083 C2110 0.950 . S
H2084 C2113 0.950 . S
H2085 C2114 0.950 . S
H2086 C2116 0.950 . S
H2087 C2117 0.950 . S
C2088 H2070 0.951 . S
C2088 C2089 1.366 . S
C2088 C2090 1.388 . S
C2089 C2088 1.366 . S
C2089 C2093 1.385 . S
C2090 H2071 0.951 . S
C2090 C2088 1.388 . S
C2090 C2091 1.366 . S
C2091 C2090 1.366 . S
C2091 C2092 1.414 . S
C2091 C2094 1.499 . S
C2092 H2072 0.950 . S
C2092 C2091 1.414 . S
C2092 C2093 1.374 . S
C2093 H2073 0.950 . S
C2093 C2089 1.385 . S
C2093 C2092 1.374 . S
C2094 C2091 1.499 . S
C2094 C2095 1.373 . S
C2094 C2096 1.389 . S
C2095 H2074 0.950 . S
C2095 C2094 1.373 . S
C2095 C2111 1.377 . S
C2096 C2094 1.389 . S
C2096 C2097 1.524 . S
C2096 C2110 1.377 . S
C2097 C2096 1.524 . S
C2097 C2098 1.397 . S
C2097 C2102 1.363 . S
C2098 H2075 0.950 . S
C2098 C2097 1.397 . S
C2098 C2099 1.334 . S
C2099 H2076 0.950 . S
C2099 C2098 1.334 . S
C2099 C2100 1.287 . S
C2100 C2099 1.287 . S
C2100 C2101 1.524 . S
C2100 H2119 0.913 . S
C2101 H2077 0.950 . S
C2101 C2100 1.524 . S
C2101 C2102 1.415 . S
C2102 H2078 0.950 . S
C2102 C2097 1.363 . S
C2102 C2101 1.415 . S
C2103 H2079 0.951 1_556 S
C2103 C2104 1.366 . S
C2103 C2105 1.388 . S
C2104 C2103 1.366 . S
C2104 C2108 1.385 . S
C2105 H2080 0.951 . S
C2105 C2103 1.388 . S
C2105 C2106 1.366 . S
C2106 C2105 1.366 . S
C2106 C2107 1.414 . S
C2106 C2109 1.499 . S
C2107 H2081 0.950 . S
C2107 C2106 1.414 . S
C2107 C2108 1.374 . S
C2108 H2082 0.950 . S
C2108 C2104 1.385 . S
C2108 C2107 1.374 . S
C2109 C2106 1.499 . S
C2109 C2110 1.373 . S
C2109 C2111 1.389 . S
C2110 H2083 0.950 . S
C2110 C2096 1.377 . S
C2110 C2109 1.373 . S
C2111 C2095 1.377 . S
C2111 C2109 1.389 . S
C2111 C2112 1.524 . S
C2112 C2111 1.524 . S
C2112 C2113 1.397 . S
C2112 C2117 1.363 . S
C2113 H2084 0.950 . S
C2113 C2112 1.397 . S
C2113 C2114 1.334 . S
C2114 H2085 0.950 . S
C2114 C2113 1.334 . S
C2114 C2115 1.287 . S
C2115 C2114 1.287 . S
C2115 C2116 1.524 . S
C2115 H2118 0.999 . S
C2116 H2086 0.950 . S
C2116 C2115 1.524 . S
C2116 C2117 1.415 . S
C2117 H2087 0.950 . S
C2117 C2112 1.363 . S
C2117 C2116 1.415 . S
H2118 C2115 0.999 . S
H2119 C2100 0.913 . S
H2120 C2138 0.951 . S
H2121 C2140 0.951 . S
H2122 C2142 0.950 . S
H2123 C2143 0.950 . S
H2124 C2145 0.950 . S
H2125 C2148 0.950 . S
H2126 C2149 0.950 . S
H2127 C2151 0.950 . S
H2128 C2152 0.950 . S
H2129 C2153 0.951 . S
H2130 C2155 0.951 . S
H2131 C2157 0.950 . S
H2132 C2158 0.950 . S
H2133 C2160 0.950 . S
H2134 C2163 0.950 . S
H2135 C2164 0.950 . S
H2136 C2166 0.950 . S
H2137 C2167 0.950 . S
C2138 H2120 0.951 . S
C2138 C2139 1.366 . S
C2138 C2140 1.388 . S
C2139 C2138 1.366 . S
C2139 C2143 1.385 . S
C2140 H2121 0.951 . S
C2140 C2138 1.388 . S
C2140 C2141 1.366 . S
C2141 C2140 1.366 . S
C2141 C2142 1.414 . S
C2141 C2144 1.499 . S
C2142 H2122 0.950 . S
C2142 C2141 1.414 . S
C2142 C2143 1.374 . S
C2143 H2123 0.950 . S
C2143 C2139 1.385 . S
C2143 C2142 1.374 . S
C2144 C2141 1.499 . S
C2144 C2145 1.373 . S
C2144 C2146 1.389 . S
C2145 H2124 0.950 . S
C2145 C2144 1.373 . S
C2145 C2161 1.377 . S
C2146 C2144 1.389 . S
C2146 C2147 1.524 . S
C2146 C2160 1.377 . S
C2147 C2146 1.524 . S
C2147 C2148 1.397 . S
C2147 C2152 1.363 . S
C2148 H2125 0.950 . S
C2148 C2147 1.397 . S
C2148 C2149 1.334 . S
C2149 H2126 0.950 . S
C2149 C2148 1.334 . S
C2149 C2150 1.287 . S
C2150 C2149 1.287 . S
C2150 C2151 1.524 . S
C2150 H2169 0.913 . S
C2151 H2127 0.950 . S
C2151 C2150 1.524 . S
C2151 C2152 1.415 . S
C2152 H2128 0.950 . S
C2152 C2147 1.363 . S
C2152 C2151 1.415 . S
C2153 H2129 0.951 . S
C2153 C2154 1.366 . S
C2153 C2155 1.388 . S
C2154 C2153 1.366 . S
C2154 C2158 1.385 . S
C2155 H2130 0.951 . S
C2155 C2153 1.388 . S
C2155 C2156 1.366 . S
C2156 C2155 1.366 . S
C2156 C2157 1.414 . S
C2156 C2159 1.499 . S
C2157 H2131 0.950 . S
C2157 C2156 1.414 . S
C2157 C2158 1.374 . S
C2158 H2132 0.950 . S
C2158 C2154 1.385 . S
C2158 C2157 1.374 . S
C2159 C2156 1.499 . S
C2159 C2160 1.373 . S
C2159 C2161 1.389 . S
C2160 H2133 0.950 . S
C2160 C2146 1.377 . S
C2160 C2159 1.373 . S
C2161 C2145 1.377 . S
C2161 C2159 1.389 . S
C2161 C2162 1.524 . S
C2162 C2161 1.524 . S
C2162 C2163 1.397 1_556 S
C2162 C2167 1.363 . S
C2163 H2134 0.950 . S
C2163 C2162 1.397 1_554 S
C2163 C2164 1.334 . S
C2164 H2135 0.950 . S
C2164 C2163 1.334 . S
C2164 C2165 1.287 . S
C2165 C2164 1.287 . S
C2165 C2166 1.524 . S
C2165 H2168 0.999 . S
C2166 H2136 0.950 . S
C2166 C2165 1.524 . S
C2166 C2167 1.415 1_554 S
C2167 H2137 0.950 . S
C2167 C2162 1.363 . S
C2167 C2166 1.415 1_556 S
H2168 C2165 0.999 . S
H2169 C2150 0.913 . S
H2170 C2188 0.951 . S
H2171 C2190 0.951 . S
H2172 C2192 0.950 . S
H2173 C2193 0.950 . S
H2174 C2195 0.950 . S
H2175 C2198 0.950 . S
H2176 C2199 0.950 . S
H2177 C2201 0.950 . S
H2178 C2202 0.950 . S
H2179 C2203 0.951 . S
H2180 C2205 0.951 . S
H2181 C2207 0.950 . S
H2182 C2208 0.950 . S
H2183 C2210 0.950 . S
H2184 C2213 0.950 . S
H2185 C2214 0.950 . S
H2186 C2216 0.950 . S
H2187 C2217 0.950 . S
C2188 H2170 0.951 . S
C2188 C2189 1.366 . S
C2188 C2190 1.388 . S
C2189 C2188 1.366 . S
C2189 C2193 1.385 . S
C2190 H2171 0.951 . S
C2190 C2188 1.388 . S
C2190 C2191 1.366 . S
C2191 C2190 1.366 . S
C2191 C2192 1.414 . S
C2191 C2194 1.499 . S
C2192 H2172 0.950 . S
C2192 C2191 1.414 . S
C2192 C2193 1.374 . S
C2193 H2173 0.950 . S
C2193 C2189 1.385 . S
C2193 C2192 1.374 . S
C2194 C2191 1.499 . S
C2194 C2195 1.373 . S
C2194 C2196 1.389 . S
C2195 H2174 0.950 . S
C2195 C2194 1.373 . S
C2195 C2211 1.377 . S
C2196 C2194 1.389 . S
C2196 C2197 1.524 . S
C2196 C2210 1.377 . S
C2197 C2196 1.524 . S
C2197 C2198 1.397 . S
C2197 C2202 1.363 . S
C2198 H2175 0.950 . S
C2198 C2197 1.397 . S
C2198 C2199 1.334 . S
C2199 H2176 0.950 . S
C2199 C2198 1.334 . S
C2199 C2200 1.287 . S
C2200 C2199 1.287 . S
C2200 C2201 1.524 . S
C2200 H2219 0.913 . S
C2201 H2177 0.950 . S
C2201 C2200 1.524 . S
C2201 C2202 1.415 . S
C2202 H2178 0.950 . S
C2202 C2197 1.363 . S
C2202 C2201 1.415 . S
C2203 H2179 0.951 . S
C2203 C2204 1.366 . S
C2203 C2205 1.388 . S
C2204 C2203 1.366 . S
C2204 C2208 1.385 . S
C2205 H2180 0.951 . S
C2205 C2203 1.388 . S
C2205 C2206 1.366 . S
C2206 C2205 1.366 . S
C2206 C2207 1.414 . S
C2206 C2209 1.499 . S
C2207 H2181 0.950 . S
C2207 C2206 1.414 . S
C2207 C2208 1.374 . S
C2208 H2182 0.950 . S
C2208 C2204 1.385 . S
C2208 C2207 1.374 . S
C2209 C2206 1.499 . S
C2209 C2210 1.373 . S
C2209 C2211 1.389 . S
C2210 H2183 0.950 . S
C2210 C2196 1.377 . S
C2210 C2209 1.373 . S
C2211 C2195 1.377 . S
C2211 C2209 1.389 . S
C2211 C2212 1.524 . S
C2212 C2211 1.524 . S
C2212 C2213 1.397 . S
C2212 C2217 1.363 . S
C2213 H2184 0.950 . S
C2213 C2212 1.397 . S
C2213 C2214 1.334 . S
C2214 H2185 0.950 . S
C2214 C2213 1.334 . S
C2214 C2215 1.287 . S
C2215 C2214 1.287 . S
C2215 C2216 1.524 . S
C2215 H2218 0.999 . S
C2216 H2186 0.950 . S
C2216 C2215 1.524 . S
C2216 C2217 1.415 . S
C2217 H2187 0.950 . S
C2217 C2212 1.363 . S
C2217 C2216 1.415 . S
H2218 C2215 0.999 . S
H2219 C2200 0.913 . S
H2220 C2238 0.951 . S
H2221 C2240 0.951 . S
H2222 C2242 0.950 . S
H2223 C2243 0.950 . S
H2224 C2245 0.950 . S
H2225 C2248 0.950 . S
H2226 C2249 0.950 . S
H2227 C2251 0.950 . S
H2228 C2252 0.950 . S
H2229 C2253 0.951 . S
H2230 C2255 0.951 . S
H2231 C2257 0.950 . S
H2232 C2258 0.950 . S
H2233 C2260 0.950 . S
H2234 C2263 0.950 . S
H2235 C2264 0.950 . S
H2236 C2266 0.950 . S
H2237 C2267 0.950 . S
C2238 H2220 0.951 . S
C2238 C2239 1.366 . S
C2238 C2240 1.388 . S
C2239 C2238 1.366 . S
C2239 C2243 1.385 . S
C2240 H2221 0.951 . S
C2240 C2238 1.388 . S
C2240 C2241 1.366 . S
C2241 C2240 1.366 . S
C2241 C2242 1.414 . S
C2241 C2244 1.499 . S
C2242 H2222 0.950 . S
C2242 C2241 1.414 . S
C2242 C2243 1.374 . S
C2243 H2223 0.950 . S
C2243 C2239 1.385 . S
C2243 C2242 1.374 . S
C2244 C2241 1.499 . S
C2244 C2245 1.373 . S
C2244 C2246 1.389 . S
C2245 H2224 0.950 . S
C2245 C2244 1.373 . S
C2245 C2261 1.377 . S
C2246 C2244 1.389 . S
C2246 C2247 1.524 . S
C2246 C2260 1.377 . S
C2247 C2246 1.524 . S
C2247 C2248 1.397 . S
C2247 C2252 1.363 . S
C2248 H2225 0.950 . S
C2248 C2247 1.397 . S
C2248 C2249 1.334 . S
C2249 H2226 0.950 . S
C2249 C2248 1.334 . S
C2249 C2250 1.287 . S
C2250 C2249 1.287 . S
C2250 C2251 1.524 . S
C2250 H2269 0.913 . S
C2251 H2227 0.950 . S
C2251 C2250 1.524 . S
C2251 C2252 1.415 . S
C2252 H2228 0.950 . S
C2252 C2247 1.363 . S
C2252 C2251 1.415 . S
C2253 H2229 0.951 . S
C2253 C2254 1.366 . S
C2253 C2255 1.388 . S
C2254 C2253 1.366 . S
C2254 C2258 1.385 . S
C2255 H2230 0.951 . S
C2255 C2253 1.388 . S
C2255 C2256 1.366 . S
C2256 C2255 1.366 . S
C2256 C2257 1.414 . S
C2256 C2259 1.499 . S
C2257 H2231 0.950 . S
C2257 C2256 1.414 . S
C2257 C2258 1.374 . S
C2258 H2232 0.950 . S
C2258 C2254 1.385 . S
C2258 C2257 1.374 . S
C2259 C2256 1.499 . S
C2259 C2260 1.373 . S
C2259 C2261 1.389 . S
C2260 H2233 0.950 . S
C2260 C2246 1.377 . S
C2260 C2259 1.373 . S
C2261 C2245 1.377 . S
C2261 C2259 1.389 . S
C2261 C2262 1.524 . S
C2262 C2261 1.524 . S
C2262 C2263 1.397 1_556 S
C2262 C2267 1.363 . S
C2263 H2234 0.950 . S
C2263 C2262 1.397 1_554 S
C2263 C2264 1.334 . S
C2264 H2235 0.950 . S
C2264 C2263 1.334 . S
C2264 C2265 1.287 . S
C2265 C2264 1.287 . S
C2265 C2266 1.524 . S
C2265 H2268 0.999 . S
C2266 H2236 0.950 . S
C2266 C2265 1.524 . S
C2266 C2267 1.415 1_554 S
C2267 H2237 0.950 . S
C2267 C2262 1.363 . S
C2267 C2266 1.415 1_556 S
H2268 C2265 0.999 . S
H2269 C2250 0.913 . S
H2270 C2288 0.951 . S
H2271 C2290 0.951 . S
H2272 C2292 0.950 . S
H2273 C2293 0.950 . S
H2274 C2295 0.950 . S
H2275 C2298 0.950 . S
H2276 C2299 0.950 . S
H2277 C2301 0.950 . S
H2278 C2302 0.950 . S
H2279 C2303 0.951 . S
H2280 C2305 0.951 . S
H2281 C2307 0.950 . S
H2282 C2308 0.950 . S
H2283 C2310 0.950 . S
H2284 C2313 0.950 . S
H2285 C2314 0.950 . S
H2286 C2316 0.950 . S
H2287 C2317 0.950 . S
C2288 H2270 0.951 . S
C2288 C2289 1.366 . S
C2288 C2290 1.388 . S
C2289 C2288 1.366 . S
C2289 C2293 1.385 . S
C2290 H2271 0.951 . S
C2290 C2288 1.388 . S
C2290 C2291 1.366 . S
C2291 C2290 1.366 . S
C2291 C2292 1.414 . S
C2291 C2294 1.499 . S
C2292 H2272 0.950 . S
C2292 C2291 1.414 . S
C2292 C2293 1.374 . S
C2293 H2273 0.950 . S
C2293 C2289 1.385 . S
C2293 C2292 1.374 . S
C2294 C2291 1.499 . S
C2294 C2295 1.373 . S
C2294 C2296 1.389 . S
C2295 H2274 0.950 . S
C2295 C2294 1.373 . S
C2295 C2311 1.377 . S
C2296 C2294 1.389 . S
C2296 C2297 1.524 . S
C2296 C2310 1.377 . S
C2297 C2296 1.524 . S
C2297 C2298 1.397 . S
C2297 C2302 1.363 . S
C2298 H2275 0.950 . S
C2298 C2297 1.397 . S
C2298 C2299 1.334 . S
C2299 H2276 0.950 . S
C2299 C2298 1.334 . S
C2299 C2300 1.287 . S
C2300 C2299 1.287 . S
C2300 C2301 1.524 . S
C2300 H2319 0.913 . S
C2301 H2277 0.950 . S
C2301 C2300 1.524 . S
C2301 C2302 1.415 . S
C2302 H2278 0.950 . S
C2302 C2297 1.363 . S
C2302 C2301 1.415 . S
C2303 H2279 0.951 . S
C2303 C2304 1.366 . S
C2303 C2305 1.388 . S
C2304 C2303 1.366 . S
C2304 C2308 1.385 . S
C2305 H2280 0.951 . S
C2305 C2303 1.388 . S
C2305 C2306 1.366 . S
C2306 C2305 1.366 . S
C2306 C2307 1.414 . S
C2306 C2309 1.499 . S
C2307 H2281 0.950 . S
C2307 C2306 1.414 . S
C2307 C2308 1.374 . S
C2308 H2282 0.950 . S
C2308 C2304 1.385 . S
C2308 C2307 1.374 . S
C2309 C2306 1.499 . S
C2309 C2310 1.373 . S
C2309 C2311 1.389 . S
C2310 H2283 0.950 . S
C2310 C2296 1.377 . S
C2310 C2309 1.373 . S
C2311 C2295 1.377 . S
C2311 C2309 1.389 . S
C2311 C2312 1.524 . S
C2312 C2311 1.524 . S
C2312 C2313 1.397 . S
C2312 C2317 1.363 . S
C2313 H2284 0.950 . S
C2313 C2312 1.397 . S
C2313 C2314 1.334 . S
C2314 H2285 0.950 . S
C2314 C2313 1.334 . S
C2314 C2315 1.287 . S
C2315 C2314 1.287 . S
C2315 C2316 1.524 . S
C2315 H2318 0.999 . S
C2316 H2286 0.950 . S
C2316 C2315 1.524 . S
C2316 C2317 1.415 . S
C2317 H2287 0.950 . S
C2317 C2312 1.363 . S
C2317 C2316 1.415 . S
H2318 C2315 0.999 . S
H2319 C2300 0.913 . S
H2320 C2338 0.951 . S
H2321 C2340 0.951 . S
H2322 C2342 0.950 . S
H2323 C2343 0.950 . S
H2324 C2345 0.950 . S
H2325 C2348 0.950 . S
H2326 C2349 0.950 . S
H2327 C2351 0.950 . S
H2328 C2352 0.950 . S
H2329 C2353 0.951 . S
H2330 C2355 0.951 . S
H2331 C2357 0.950 . S
H2332 C2358 0.950 . S
H2333 C2360 0.950 . S
H2334 C2363 0.950 . S
H2335 C2364 0.950 . S
H2336 C2366 0.950 . S
H2337 C2367 0.950 . S
C2338 H2320 0.951 . S
C2338 C2339 1.366 . S
C2338 C2340 1.388 . S
C2339 C2338 1.366 . S
C2339 C2343 1.385 . S
C2340 H2321 0.951 . S
C2340 C2338 1.388 . S
C2340 C2341 1.366 . S
C2341 C2340 1.366 . S
C2341 C2342 1.414 . S
C2341 C2344 1.499 . S
C2342 H2322 0.950 . S
C2342 C2341 1.414 . S
C2342 C2343 1.374 . S
C2343 H2323 0.950 . S
C2343 C2339 1.385 . S
C2343 C2342 1.374 . S
C2344 C2341 1.499 . S
C2344 C2345 1.373 . S
C2344 C2346 1.389 . S
C2345 H2324 0.950 . S
C2345 C2344 1.373 . S
C2345 C2361 1.377 . S
C2346 C2344 1.389 . S
C2346 C2347 1.524 . S
C2346 C2360 1.377 . S
C2347 C2346 1.524 . S
C2347 C2348 1.397 . S
C2347 C2352 1.363 . S
C2348 H2325 0.950 . S
C2348 C2347 1.397 . S
C2348 C2349 1.334 . S
C2349 H2326 0.950 . S
C2349 C2348 1.334 . S
C2349 C2350 1.287 . S
C2350 C2349 1.287 . S
C2350 C2351 1.524 . S
C2350 H2369 0.913 . S
C2351 H2327 0.950 . S
C2351 C2350 1.524 . S
C2351 C2352 1.415 . S
C2352 H2328 0.950 . S
C2352 C2347 1.363 . S
C2352 C2351 1.415 . S
C2353 H2329 0.951 . S
C2353 C2354 1.366 . S
C2353 C2355 1.388 . S
C2354 C2353 1.366 . S
C2354 C2358 1.385 . S
C2355 H2330 0.951 . S
C2355 C2353 1.388 . S
C2355 C2356 1.366 . S
C2356 C2355 1.366 . S
C2356 C2357 1.414 . S
C2356 C2359 1.499 . S
C2357 H2331 0.950 . S
C2357 C2356 1.414 . S
C2357 C2358 1.374 . S
C2358 H2332 0.950 . S
C2358 C2354 1.385 . S
C2358 C2357 1.374 . S
C2359 C2356 1.499 . S
C2359 C2360 1.373 . S
C2359 C2361 1.389 . S
C2360 H2333 0.950 . S
C2360 C2346 1.377 . S
C2360 C2359 1.373 . S
C2361 C2345 1.377 . S
C2361 C2359 1.389 . S
C2361 C2362 1.524 . S
C2362 C2361 1.524 . S
C2362 C2363 1.397 . S
C2362 C2367 1.363 . S
C2363 H2334 0.950 . S
C2363 C2362 1.397 . S
C2363 C2364 1.334 . S
C2364 H2335 0.950 . S
C2364 C2363 1.334 . S
C2364 C2365 1.287 . S
C2365 C2364 1.287 . S
C2365 C2366 1.524 . S
C2365 H2368 0.999 . S
C2366 H2336 0.950 . S
C2366 C2365 1.524 . S
C2366 C2367 1.415 . S
C2367 H2337 0.950 . S
C2367 C2362 1.363 . S
C2367 C2366 1.415 . S
H2368 C2365 0.999 . S
H2369 C2350 0.913 . S
H2370 C2388 0.951 . S
H2371 C2390 0.951 . S
H2372 C2392 0.950 . S
H2373 C2393 0.950 . S
H2374 C2395 0.950 . S
H2375 C2398 0.950 . S
H2376 C2399 0.950 . S
H2377 C2401 0.950 . S
H2378 C2402 0.950 . S
H2379 C2403 0.951 . S
H2380 C2405 0.951 . S
H2381 C2407 0.950 . S
H2382 C2408 0.950 . S
H2383 C2410 0.950 . S
H2384 C2413 0.950 . S
H2385 C2414 0.950 . S
H2386 C2416 0.950 . S
H2387 C2417 0.950 . S
C2388 H2370 0.951 . S
C2388 C2389 1.366 . S
C2388 C2390 1.388 . S
C2389 C2388 1.366 . S
C2389 C2393 1.385 . S
C2390 H2371 0.951 . S
C2390 C2388 1.388 . S
C2390 C2391 1.366 . S
C2391 C2390 1.366 . S
C2391 C2392 1.414 . S
C2391 C2394 1.499 . S
C2392 H2372 0.950 . S
C2392 C2391 1.414 . S
C2392 C2393 1.374 . S
C2393 H2373 0.950 . S
C2393 C2389 1.385 . S
C2393 C2392 1.374 . S
C2394 C2391 1.499 . S
C2394 C2395 1.373 . S
C2394 C2396 1.389 . S
C2395 H2374 0.950 . S
C2395 C2394 1.373 . S
C2395 C2411 1.377 . S
C2396 C2394 1.389 . S
C2396 C2397 1.524 . S
C2396 C2410 1.377 . S
C2397 C2396 1.524 . S
C2397 C2398 1.397 . S
C2397 C2402 1.363 . S
C2398 H2375 0.950 . S
C2398 C2397 1.397 . S
C2398 C2399 1.334 . S
C2399 H2376 0.950 . S
C2399 C2398 1.334 . S
C2399 C2400 1.287 . S
C2400 C2399 1.287 . S
C2400 C2401 1.524 . S
C2400 H2419 0.913 . S
C2401 H2377 0.950 . S
C2401 C2400 1.524 . S
C2401 C2402 1.415 . S
C2402 H2378 0.950 . S
C2402 C2397 1.363 . S
C2402 C2401 1.415 . S
C2403 H2379 0.951 . S
C2403 C2404 1.366 . S
C2403 C2405 1.388 . S
C2404 C2403 1.366 . S
C2404 C2408 1.385 . S
C2405 H2380 0.951 . S
C2405 C2403 1.388 . S
C2405 C2406 1.366 . S
C2406 C2405 1.366 . S
C2406 C2407 1.414 . S
C2406 C2409 1.499 . S
C2407 H2381 0.950 . S
C2407 C2406 1.414 . S
C2407 C2408 1.374 . S
C2408 H2382 0.950 . S
C2408 C2404 1.385 . S
C2408 C2407 1.374 . S
C2409 C2406 1.499 . S
C2409 C2410 1.373 . S
C2409 C2411 1.389 . S
C2410 H2383 0.950 . S
C2410 C2396 1.377 . S
C2410 C2409 1.373 . S
C2411 C2395 1.377 . S
C2411 C2409 1.389 . S
C2411 C2412 1.524 . S
C2412 C2411 1.524 . S
C2412 C2413 1.397 . S
C2412 C2417 1.363 . S
C2413 H2384 0.950 . S
C2413 C2412 1.397 . S
C2413 C2414 1.334 . S
C2414 H2385 0.950 . S
C2414 C2413 1.334 . S
C2414 C2415 1.287 . S
C2415 C2414 1.287 . S
C2415 C2416 1.524 . S
C2415 H2418 0.999 . S
C2416 H2386 0.950 . S
C2416 C2415 1.524 . S
C2416 C2417 1.415 . S
C2417 H2387 0.950 . S
C2417 C2412 1.363 . S
C2417 C2416 1.415 . S
H2418 C2415 0.999 . S
H2419 C2400 0.913 . S
H2420 C2438 0.951 . S
H2421 C2440 0.951 . S
H2422 C2442 0.950 . S
H2423 C2443 0.950 . S
H2424 C2445 0.950 . S
H2425 C2448 0.950 . S
H2426 C2449 0.950 . S
H2427 C2451 0.950 . S
H2428 C2452 0.950 . S
H2429 C2453 0.951 . S
H2430 C2455 0.951 . S
H2431 C2457 0.950 . S
H2432 C2458 0.950 . S
H2433 C2460 0.950 . S
H2434 C2463 0.950 . S
H2435 C2464 0.950 . S
H2436 C2466 0.950 . S
H2437 C2467 0.950 . S
C2438 H2420 0.951 . S
C2438 C2439 1.366 . S
C2438 C2440 1.388 . S
C2439 C2438 1.366 . S
C2439 C2443 1.385 . S
C2440 H2421 0.951 . S
C2440 C2438 1.388 . S
C2440 C2441 1.366 . S
C2441 C2440 1.366 . S
C2441 C2442 1.414 . S
C2441 C2444 1.499 . S
C2442 H2422 0.950 . S
C2442 C2441 1.414 . S
C2442 C2443 1.374 . S
C2443 H2423 0.950 . S
C2443 C2439 1.385 . S
C2443 C2442 1.374 . S
C2444 C2441 1.499 . S
C2444 C2445 1.373 . S
C2444 C2446 1.389 . S
C2445 H2424 0.950 . S
C2445 C2444 1.373 . S
C2445 C2461 1.377 . S
C2446 C2444 1.389 . S
C2446 C2447 1.524 . S
C2446 C2460 1.377 . S
C2447 C2446 1.524 . S
C2447 C2448 1.397 . S
C2447 C2452 1.363 . S
C2448 H2425 0.950 . S
C2448 C2447 1.397 . S
C2448 C2449 1.334 . S
C2449 H2426 0.950 . S
C2449 C2448 1.334 . S
C2449 C2450 1.287 . S
C2450 C2449 1.287 . S
C2450 C2451 1.524 . S
C2450 H2469 0.913 . S
C2451 H2427 0.950 . S
C2451 C2450 1.524 . S
C2451 C2452 1.415 . S
C2452 H2428 0.950 . S
C2452 C2447 1.363 . S
C2452 C2451 1.415 . S
C2453 H2429 0.951 . S
C2453 C2454 1.366 . S
C2453 C2455 1.388 . S
C2454 C2453 1.366 . S
C2454 C2458 1.385 . S
C2455 H2430 0.951 . S
C2455 C2453 1.388 . S
C2455 C2456 1.366 . S
C2456 C2455 1.366 . S
C2456 C2457 1.414 . S
C2456 C2459 1.499 . S
C2457 H2431 0.950 . S
C2457 C2456 1.414 . S
C2457 C2458 1.374 . S
C2458 H2432 0.950 . S
C2458 C2454 1.385 . S
C2458 C2457 1.374 . S
C2459 C2456 1.499 . S
C2459 C2460 1.373 . S
C2459 C2461 1.389 . S
C2460 H2433 0.950 . S
C2460 C2446 1.377 . S
C2460 C2459 1.373 . S
C2461 C2445 1.377 . S
C2461 C2459 1.389 . S
C2461 C2462 1.524 . S
C2462 C2461 1.524 . S
C2462 C2463 1.397 . S
C2462 C2467 1.363 . S
C2463 H2434 0.950 . S
C2463 C2462 1.397 . S
C2463 C2464 1.334 . S
C2464 H2435 0.950 . S
C2464 C2463 1.334 . S
C2464 C2465 1.287 . S
C2465 C2464 1.287 . S
C2465 C2466 1.524 . S
C2465 H2468 0.999 . S
C2466 H2436 0.950 . S
C2466 C2465 1.524 . S
C2466 C2467 1.415 . S
C2467 H2437 0.950 . S
C2467 C2462 1.363 . S
C2467 C2466 1.415 . S
H2468 C2465 0.999 . S
H2469 C2450 0.913 . S
H2470 C2488 0.951 . S
H2471 C2490 0.951 . S
H2472 C2492 0.950 . S
H2473 C2493 0.950 . S
H2474 C2495 0.950 . S
H2475 C2498 0.950 . S
H2476 C2499 0.950 . S
H2477 C2501 0.950 . S
H2478 C2502 0.950 . S
H2479 C2503 0.951 . S
H2480 C2505 0.951 . S
H2481 C2507 0.950 . S
H2482 C2508 0.950 . S
H2483 C2510 0.950 . S
H2484 C2513 0.950 . S
H2485 C2514 0.950 . S
H2486 C2516 0.950 . S
H2487 C2517 0.950 . S
C2488 H2470 0.951 . S
C2488 C2489 1.366 . S
C2488 C2490 1.388 . S
C2489 C2488 1.366 . S
C2489 C2493 1.385 . S
C2490 H2471 0.951 . S
C2490 C2488 1.388 . S
C2490 C2491 1.366 . S
C2491 C2490 1.366 . S
C2491 C2492 1.414 . S
C2491 C2494 1.499 . S
C2492 H2472 0.950 . S
C2492 C2491 1.414 . S
C2492 C2493 1.374 . S
C2493 H2473 0.950 . S
C2493 C2489 1.385 . S
C2493 C2492 1.374 . S
C2494 C2491 1.499 . S
C2494 C2495 1.373 . S
C2494 C2496 1.389 . S
C2495 H2474 0.950 . S
C2495 C2494 1.373 . S
C2495 C2511 1.377 . S
C2496 C2494 1.389 . S
C2496 C2497 1.524 . S
C2496 C2510 1.377 . S
C2497 C2496 1.524 . S
C2497 C2498 1.397 . S
C2497 C2502 1.363 . S
C2498 H2475 0.950 . S
C2498 C2497 1.397 . S
C2498 C2499 1.334 . S
C2499 H2476 0.950 . S
C2499 C2498 1.334 . S
C2499 C2500 1.287 . S
C2500 C2499 1.287 . S
C2500 C2501 1.524 . S
C2500 H2519 0.913 . S
C2501 H2477 0.950 . S
C2501 C2500 1.524 . S
C2501 C2502 1.415 . S
C2502 H2478 0.950 . S
C2502 C2497 1.363 . S
C2502 C2501 1.415 . S
C2503 H2479 0.951 . S
C2503 C2504 1.366 . S
C2503 C2505 1.388 . S
C2504 C2503 1.366 . S
C2504 C2508 1.385 . S
C2505 H2480 0.951 . S
C2505 C2503 1.388 . S
C2505 C2506 1.366 . S
C2506 C2505 1.366 . S
C2506 C2507 1.414 . S
C2506 C2509 1.499 . S
C2507 H2481 0.950 . S
C2507 C2506 1.414 . S
C2507 C2508 1.374 . S
C2508 H2482 0.950 . S
C2508 C2504 1.385 . S
C2508 C2507 1.374 . S
C2509 C2506 1.499 . S
C2509 C2510 1.373 . S
C2509 C2511 1.389 . S
C2510 H2483 0.950 . S
C2510 C2496 1.377 . S
C2510 C2509 1.373 . S
C2511 C2495 1.377 . S
C2511 C2509 1.389 . S
C2511 C2512 1.524 . S
C2512 C2511 1.524 . S
C2512 C2513 1.397 . S
C2512 C2517 1.363 . S
C2513 H2484 0.950 . S
C2513 C2512 1.397 . S
C2513 C2514 1.334 . S
C2514 H2485 0.950 . S
C2514 C2513 1.334 . S
C2514 C2515 1.287 . S
C2515 C2514 1.287 . S
C2515 C2516 1.524 . S
C2515 H2518 0.999 . S
C2516 H2486 0.950 . S
C2516 C2515 1.524 . S
C2516 C2517 1.415 . S
C2517 H2487 0.950 . S
C2517 C2512 1.363 . S
C2517 C2516 1.415 . S
H2518 C2515 0.999 . S
H2519 C2500 0.913 . S
H2520 C2538 0.951 . S
H2521 C2540 0.951 . S
H2522 C2542 0.950 . S
H2523 C2543 0.950 . S
H2524 C2545 0.950 . S
H2525 C2548 0.950 . S
H2526 C2549 0.950 . S
H2527 C2551 0.950 . S
H2528 C2552 0.950 . S
H2529 C2553 0.951 . S
H2530 C2555 0.951 . S
H2531 C2557 0.950 . S
H2532 C2558 0.950 . S
H2533 C2560 0.950 . S
H2534 C2563 0.950 . S
H2535 C2564 0.950 . S
H2536 C2566 0.950 . S
H2537 C2567 0.950 . S
C2538 H2520 0.951 . S
C2538 C2539 1.366 . S
C2538 C2540 1.388 . S
C2539 C2538 1.366 . S
C2539 C2543 1.385 . S
C2540 H2521 0.951 . S
C2540 C2538 1.388 . S
C2540 C2541 1.366 . S
C2541 C2540 1.366 . S
C2541 C2542 1.414 . S
C2541 C2544 1.499 . S
C2542 H2522 0.950 . S
C2542 C2541 1.414 . S
C2542 C2543 1.374 . S
C2543 H2523 0.950 . S
C2543 C2539 1.385 . S
C2543 C2542 1.374 . S
C2544 C2541 1.499 . S
C2544 C2545 1.373 . S
C2544 C2546 1.389 . S
C2545 H2524 0.950 . S
C2545 C2544 1.373 . S
C2545 C2561 1.377 . S
C2546 C2544 1.389 . S
C2546 C2547 1.524 . S
C2546 C2560 1.377 . S
C2547 C2546 1.524 . S
C2547 C2548 1.397 . S
C2547 C2552 1.363 . S
C2548 H2525 0.950 . S
C2548 C2547 1.397 . S
C2548 C2549 1.334 . S
C2549 H2526 0.950 . S
C2549 C2548 1.334 . S
C2549 C2550 1.287 . S
C2550 C2549 1.287 . S
C2550 C2551 1.524 . S
C2550 H2569 0.913 . S
C2551 H2527 0.950 . S
C2551 C2550 1.524 . S
C2551 C2552 1.415 . S
C2552 H2528 0.950 . S
C2552 C2547 1.363 . S
C2552 C2551 1.415 . S
C2553 H2529 0.951 . S
C2553 C2554 1.366 . S
C2553 C2555 1.388 . S
C2554 C2553 1.366 . S
C2554 C2558 1.385 . S
C2555 H2530 0.951 . S
C2555 C2553 1.388 . S
C2555 C2556 1.366 . S
C2556 C2555 1.366 . S
C2556 C2557 1.414 . S
C2556 C2559 1.499 . S
C2557 H2531 0.950 . S
C2557 C2556 1.414 . S
C2557 C2558 1.374 . S
C2558 H2532 0.950 . S
C2558 C2554 1.385 . S
C2558 C2557 1.374 . S
C2559 C2556 1.499 . S
C2559 C2560 1.373 . S
C2559 C2561 1.389 . S
C2560 H2533 0.950 . S
C2560 C2546 1.377 . S
C2560 C2559 1.373 . S
C2561 C2545 1.377 . S
C2561 C2559 1.389 . S
C2561 C2562 1.524 . S
C2562 C2561 1.524 . S
C2562 C2563 1.397 . S
C2562 C2567 1.363 . S
C2563 H2534 0.950 . S
C2563 C2562 1.397 . S
C2563 C2564 1.334 . S
C2564 H2535 0.950 . S
C2564 C2563 1.334 . S
C2564 C2565 1.287 . S
C2565 C2564 1.287 . S
C2565 C2566 1.524 . S
C2565 H2568 0.999 . S
C2566 H2536 0.950 . S
C2566 C2565 1.524 . S
C2566 C2567 1.415 . S
C2567 H2537 0.950 . S
C2567 C2562 1.363 . S
C2567 C2566 1.415 . S
H2568 C2565 0.999 . S
H2569 C2550 0.913 . S
H2570 C2588 0.951 . S
H2571 C2590 0.951 . S
H2572 C2592 0.950 . S
H2573 C2593 0.950 . S
H2574 C2595 0.950 . S
H2575 C2598 0.950 . S
H2576 C2599 0.950 . S
H2577 C2601 0.950 . S
H2578 C2602 0.950 . S
H2579 C2603 0.951 . S
H2580 C2605 0.951 . S
H2581 C2607 0.950 . S
H2582 C2608 0.950 . S
H2583 C2610 0.950 . S
H2584 C2613 0.950 . S
H2585 C2614 0.950 . S
H2586 C2616 0.950 . S
H2587 C2617 0.950 . S
C2588 H2570 0.951 . S
C2588 C2589 1.366 . S
C2588 C2590 1.388 . S
C2589 C2588 1.366 . S
C2589 C2593 1.385 . S
C2590 H2571 0.951 . S
C2590 C2588 1.388 . S
C2590 C2591 1.366 . S
C2591 C2590 1.366 . S
C2591 C2592 1.414 . S
C2591 C2594 1.499 . S
C2592 H2572 0.950 . S
C2592 C2591 1.414 . S
C2592 C2593 1.374 . S
C2593 H2573 0.950 . S
C2593 C2589 1.385 . S
C2593 C2592 1.374 . S
C2594 C2591 1.499 . S
C2594 C2595 1.373 . S
C2594 C2596 1.389 . S
C2595 H2574 0.950 . S
C2595 C2594 1.373 . S
C2595 C2611 1.377 . S
C2596 C2594 1.389 . S
C2596 C2597 1.524 . S
C2596 C2610 1.377 . S
C2597 C2596 1.524 . S
C2597 C2598 1.397 . S
C2597 C2602 1.363 . S
C2598 H2575 0.950 . S
C2598 C2597 1.397 . S
C2598 C2599 1.334 . S
C2599 H2576 0.950 . S
C2599 C2598 1.334 . S
C2599 C2600 1.287 . S
C2600 C2599 1.287 . S
C2600 C2601 1.524 . S
C2600 H2619 0.913 . S
C2601 H2577 0.950 . S
C2601 C2600 1.524 . S
C2601 C2602 1.415 . S
C2602 H2578 0.950 . S
C2602 C2597 1.363 . S
C2602 C2601 1.415 . S
C2603 H2579 0.951 . S
C2603 C2604 1.366 . S
C2603 C2605 1.388 . S
C2604 C2603 1.366 . S
C2604 C2608 1.385 . S
C2605 H2580 0.951 . S
C2605 C2603 1.388 . S
C2605 C2606 1.366 . S
C2606 C2605 1.366 . S
C2606 C2607 1.414 . S
C2606 C2609 1.499 . S
C2607 H2581 0.950 . S
C2607 C2606 1.414 . S
C2607 C2608 1.374 . S
C2608 H2582 0.950 . S
C2608 C2604 1.385 . S
C2608 C2607 1.374 . S
C2609 C2606 1.499 . S
C2609 C2610 1.373 . S
C2609 C2611 1.389 . S
C2610 H2583 0.950 . S
C2610 C2596 1.377 . S
C2610 C2609 1.373 . S
C2611 C2595 1.377 . S
C2611 C2609 1.389 . S
C2611 C2612 1.524 . S
C2612 C2611 1.524 . S
C2612 C2613 1.397 . S
C2612 C2617 1.363 . S
C2613 H2584 0.950 . S
C2613 C2612 1.397 . S
C2613 C2614 1.334 . S
C2614 H2585 0.950 . S
C2614 C2613 1.334 . S
C2614 C2615 1.287 . S
C2615 C2614 1.287 . S
C2615 C2616 1.524 . S
C2615 H2618 0.999 . S
C2616 H2586 0.950 . S
C2616 C2615 1.524 . S
C2616 C2617 1.415 . S
C2617 H2587 0.950 . S
C2617 C2612 1.363 . S
C2617 C2616 1.415 . S
H2618 C2615 0.999 . S
H2619 C2600 0.913 . S
H2620 C2638 0.951 . S
H2621 C2640 0.951 . S
H2622 C2642 0.950 . S
H2623 C2643 0.950 . S
H2624 C2645 0.950 . S
H2625 C2648 0.950 . S
H2626 C2649 0.950 . S
H2627 C2651 0.950 . S
H2628 C2652 0.950 . S
H2629 C2653 0.951 . S
H2630 C2655 0.951 . S
H2631 C2657 0.950 . S
H2632 C2658 0.950 . S
H2633 C2660 0.950 . S
H2634 C2663 0.950 . S
H2635 C2664 0.950 . S
H2636 C2666 0.950 . S
H2637 C2667 0.950 . S
C2638 H2620 0.951 . S
C2638 C2639 1.366 . S
C2638 C2640 1.388 . S
C2639 C2638 1.366 . S
C2639 C2643 1.385 . S
C2640 H2621 0.951 . S
C2640 C2638 1.388 . S
C2640 C2641 1.366 . S
C2641 C2640 1.366 . S
C2641 C2642 1.414 . S
C2641 C2644 1.499 . S
C2642 H2622 0.950 . S
C2642 C2641 1.414 . S
C2642 C2643 1.374 . S
C2643 H2623 0.950 . S
C2643 C2639 1.385 . S
C2643 C2642 1.374 . S
C2644 C2641 1.499 . S
C2644 C2645 1.373 . S
C2644 C2646 1.389 . S
C2645 H2624 0.950 . S
C2645 C2644 1.373 . S
C2645 C2661 1.377 . S
C2646 C2644 1.389 . S
C2646 C2647 1.524 . S
C2646 C2660 1.377 . S
C2647 C2646 1.524 . S
C2647 C2648 1.397 . S
C2647 C2652 1.363 . S
C2648 H2625 0.950 . S
C2648 C2647 1.397 . S
C2648 C2649 1.334 . S
C2649 H2626 0.950 . S
C2649 C2648 1.334 . S
C2649 C2650 1.287 . S
C2650 C2649 1.287 . S
C2650 C2651 1.524 . S
C2650 H2669 0.913 . S
C2651 H2627 0.950 . S
C2651 C2650 1.524 . S
C2651 C2652 1.415 . S
C2652 H2628 0.950 . S
C2652 C2647 1.363 . S
C2652 C2651 1.415 . S
C2653 H2629 0.951 . S
C2653 C2654 1.366 . S
C2653 C2655 1.388 . S
C2654 C2653 1.366 . S
C2654 C2658 1.385 . S
C2655 H2630 0.951 . S
C2655 C2653 1.388 . S
C2655 C2656 1.366 . S
C2656 C2655 1.366 . S
C2656 C2657 1.414 . S
C2656 C2659 1.499 . S
C2657 H2631 0.950 . S
C2657 C2656 1.414 . S
C2657 C2658 1.374 . S
C2658 H2632 0.950 . S
C2658 C2654 1.385 . S
C2658 C2657 1.374 . S
C2659 C2656 1.499 . S
C2659 C2660 1.373 . S
C2659 C2661 1.389 . S
C2660 H2633 0.950 . S
C2660 C2646 1.377 . S
C2660 C2659 1.373 . S
C2661 C2645 1.377 . S
C2661 C2659 1.389 . S
C2661 C2662 1.524 . S
C2662 C2661 1.524 . S
C2662 C2663 1.397 . S
C2662 C2667 1.363 . S
C2663 H2634 0.950 . S
C2663 C2662 1.397 . S
C2663 C2664 1.334 . S
C2664 H2635 0.950 . S
C2664 C2663 1.334 . S
C2664 C2665 1.287 . S
C2665 C2664 1.287 . S
C2665 C2666 1.524 . S
C2665 H2668 0.999 . S
C2666 H2636 0.950 . S
C2666 C2665 1.524 . S
C2666 C2667 1.415 . S
C2667 H2637 0.950 . S
C2667 C2662 1.363 . S
C2667 C2666 1.415 . S
H2668 C2665 0.999 . S
H2669 C2650 0.913 . S
H2670 C2688 0.951 . S
H2671 C2690 0.951 . S
H2672 C2692 0.950 . S
H2673 C2693 0.950 . S
H2674 C2695 0.950 . S
H2675 C2698 0.950 . S
H2676 C2699 0.950 . S
H2677 C2701 0.950 . S
H2678 C2702 0.950 . S
H2679 C2703 0.951 . S
H2680 C2705 0.951 . S
H2681 C2707 0.950 . S
H2682 C2708 0.950 . S
H2683 C2710 0.950 . S
H2684 C2713 0.950 . S
H2685 C2714 0.950 . S
H2686 C2716 0.950 . S
H2687 C2717 0.950 . S
C2688 H2670 0.951 . S
C2688 C2689 1.366 . S
C2688 C2690 1.388 . S
C2689 C2688 1.366 . S
C2689 C2693 1.385 . S
C2690 H2671 0.951 . S
C2690 C2688 1.388 . S
C2690 C2691 1.366 . S
C2691 C2690 1.366 . S
C2691 C2692 1.414 . S
C2691 C2694 1.499 . S
C2692 H2672 0.950 . S
C2692 C2691 1.414 . S
C2692 C2693 1.374 . S
C2693 H2673 0.950 . S
C2693 C2689 1.385 . S
C2693 C2692 1.374 . S
C2694 C2691 1.499 . S
C2694 C2695 1.373 . S
C2694 C2696 1.389 . S
C2695 H2674 0.950 . S
C2695 C2694 1.373 . S
C2695 C2711 1.377 . S
C2696 C2694 1.389 . S
C2696 C2697 1.524 . S
C2696 C2710 1.377 . S
C2697 C2696 1.524 . S
C2697 C2698 1.397 . S
C2697 C2702 1.363 . S
C2698 H2675 0.950 . S
C2698 C2697 1.397 . S
C2698 C2699 1.334 . S
C2699 H2676 0.950 . S
C2699 C2698 1.334 . S
C2699 C2700 1.287 . S
C2700 C2699 1.287 . S
C2700 C2701 1.524 . S
C2700 H2719 0.913 . S
C2701 H2677 0.950 . S
C2701 C2700 1.524 . S
C2701 C2702 1.415 . S
C2702 H2678 0.950 . S
C2702 C2697 1.363 . S
C2702 C2701 1.415 . S
C2703 H2679 0.951 . S
C2703 C2704 1.366 . S
C2703 C2705 1.388 . S
C2704 C2703 1.366 . S
C2704 C2708 1.385 . S
C2705 H2680 0.951 . S
C2705 C2703 1.388 . S
C2705 C2706 1.366 . S
C2706 C2705 1.366 . S
C2706 C2707 1.414 . S
C2706 C2709 1.499 . S
C2707 H2681 0.950 . S
C2707 C2706 1.414 . S
C2707 C2708 1.374 . S
C2708 H2682 0.950 . S
C2708 C2704 1.385 . S
C2708 C2707 1.374 . S
C2709 C2706 1.499 . S
C2709 C2710 1.373 . S
C2709 C2711 1.389 . S
C2710 H2683 0.950 . S
C2710 C2696 1.377 . S
C2710 C2709 1.373 . S
C2711 C2695 1.377 . S
C2711 C2709 1.389 . S
C2711 C2712 1.524 . S
C2712 C2711 1.524 . S
C2712 C2713 1.397 . S
C2712 C2717 1.363 . S
C2713 H2684 0.950 . S
C2713 C2712 1.397 . S
C2713 C2714 1.334 . S
C2714 H2685 0.950 . S
C2714 C2713 1.334 . S
C2714 C2715 1.287 . S
C2715 C2714 1.287 . S
C2715 C2716 1.524 . S
C2715 H2718 0.999 . S
C2716 H2686 0.950 . S
C2716 C2715 1.524 . S
C2716 C2717 1.415 . S
C2717 H2687 0.950 . S
C2717 C2712 1.363 . S
C2717 C2716 1.415 . S
H2718 C2715 0.999 . S
H2719 C2700 0.913 . S
H2720 C2738 0.951 . S
H2721 C2740 0.951 . S
H2722 C2742 0.950 . S
H2723 C2743 0.950 . S
H2724 C2745 0.950 . S
H2725 C2748 0.950 . S
H2726 C2749 0.950 . S
H2727 C2751 0.950 . S
H2728 C2752 0.950 . S
H2729 C2753 0.951 . S
H2730 C2755 0.951 . S
H2731 C2757 0.950 . S
H2732 C2758 0.950 . S
H2733 C2760 0.950 . S
H2734 C2763 0.950 . S
H2735 C2764 0.950 . S
H2736 C2766 0.950 . S
H2737 C2767 0.950 . S
C2738 H2720 0.951 . S
C2738 C2739 1.366 . S
C2738 C2740 1.388 . S
C2739 C2738 1.366 . S
C2739 C2743 1.385 . S
C2740 H2721 0.951 . S
C2740 C2738 1.388 . S
C2740 C2741 1.366 . S
C2741 C2740 1.366 . S
C2741 C2742 1.414 . S
C2741 C2744 1.499 . S
C2742 H2722 0.950 . S
C2742 C2741 1.414 . S
C2742 C2743 1.374 . S
C2743 H2723 0.950 . S
C2743 C2739 1.385 . S
C2743 C2742 1.374 . S
C2744 C2741 1.499 . S
C2744 C2745 1.373 . S
C2744 C2746 1.389 . S
C2745 H2724 0.950 . S
C2745 C2744 1.373 . S
C2745 C2761 1.377 . S
C2746 C2744 1.389 . S
C2746 C2747 1.524 . S
C2746 C2760 1.377 . S
C2747 C2746 1.524 . S
C2747 C2748 1.397 . S
C2747 C2752 1.363 . S
C2748 H2725 0.950 . S
C2748 C2747 1.397 . S
C2748 C2749 1.334 . S
C2749 H2726 0.950 . S
C2749 C2748 1.334 . S
C2749 C2750 1.287 . S
C2750 C2749 1.287 . S
C2750 C2751 1.524 . S
C2750 H2769 0.913 . S
C2751 H2727 0.950 . S
C2751 C2750 1.524 . S
C2751 C2752 1.415 . S
C2752 H2728 0.950 . S
C2752 C2747 1.363 . S
C2752 C2751 1.415 . S
C2753 H2729 0.951 . S
C2753 C2754 1.366 . S
C2753 C2755 1.388 . S
C2754 C2753 1.366 . S
C2754 C2758 1.385 . S
C2755 H2730 0.951 . S
C2755 C2753 1.388 . S
C2755 C2756 1.366 . S
C2756 C2755 1.366 . S
C2756 C2757 1.414 . S
C2756 C2759 1.499 . S
C2757 H2731 0.950 . S
C2757 C2756 1.414 . S
C2757 C2758 1.374 . S
C2758 H2732 0.950 . S
C2758 C2754 1.385 . S
C2758 C2757 1.374 . S
C2759 C2756 1.499 . S
C2759 C2760 1.373 . S
C2759 C2761 1.389 . S
C2760 H2733 0.950 . S
C2760 C2746 1.377 . S
C2760 C2759 1.373 . S
C2761 C2745 1.377 . S
C2761 C2759 1.389 . S
C2761 C2762 1.524 . S
C2762 C2761 1.524 . S
C2762 C2763 1.397 . S
C2762 C2767 1.363 . S
C2763 H2734 0.950 . S
C2763 C2762 1.397 . S
C2763 C2764 1.334 . S
C2764 H2735 0.950 . S
C2764 C2763 1.334 . S
C2764 C2765 1.287 . S
C2765 C2764 1.287 . S
C2765 C2766 1.524 . S
C2765 H2768 0.999 . S
C2766 H2736 0.950 . S
C2766 C2765 1.524 . S
C2766 C2767 1.415 . S
C2767 H2737 0.950 . S
C2767 C2762 1.363 . S
C2767 C2766 1.415 . S
H2768 C2765 0.999 . S
H2769 C2750 0.913 . S
H2770 C2788 0.951 . S
H2771 C2790 0.951 . S
H2772 C2792 0.950 . S
H2773 C2793 0.950 . S
H2774 C2795 0.950 . S
H2775 C2798 0.950 . S
H2776 C2799 0.950 . S
H2777 C2801 0.950 . S
H2778 C2802 0.950 . S
H2779 C2803 0.951 . S
H2780 C2805 0.951 . S
H2781 C2807 0.950 . S
H2782 C2808 0.950 . S
H2783 C2810 0.950 . S
H2784 C2813 0.950 . S
H2785 C2814 0.950 . S
H2786 C2816 0.950 . S
H2787 C2817 0.950 . S
C2788 H2770 0.951 . S
C2788 C2789 1.366 . S
C2788 C2790 1.388 . S
C2789 C2788 1.366 . S
C2789 C2793 1.385 . S
C2790 H2771 0.951 . S
C2790 C2788 1.388 . S
C2790 C2791 1.366 . S
C2791 C2790 1.366 . S
C2791 C2792 1.414 . S
C2791 C2794 1.499 . S
C2792 H2772 0.950 . S
C2792 C2791 1.414 . S
C2792 C2793 1.374 . S
C2793 H2773 0.950 . S
C2793 C2789 1.385 . S
C2793 C2792 1.374 . S
C2794 C2791 1.499 . S
C2794 C2795 1.373 . S
C2794 C2796 1.389 . S
C2795 H2774 0.950 . S
C2795 C2794 1.373 . S
C2795 C2811 1.377 . S
C2796 C2794 1.389 . S
C2796 C2797 1.524 . S
C2796 C2810 1.377 . S
C2797 C2796 1.524 . S
C2797 C2798 1.397 . S
C2797 C2802 1.363 . S
C2798 H2775 0.950 . S
C2798 C2797 1.397 . S
C2798 C2799 1.334 . S
C2799 H2776 0.950 . S
C2799 C2798 1.334 . S
C2799 C2800 1.287 . S
C2800 C2799 1.287 . S
C2800 C2801 1.524 . S
C2800 H2819 0.913 . S
C2801 H2777 0.950 . S
C2801 C2800 1.524 . S
C2801 C2802 1.415 . S
C2802 H2778 0.950 . S
C2802 C2797 1.363 . S
C2802 C2801 1.415 . S
C2803 H2779 0.951 . S
C2803 C2804 1.366 . S
C2803 C2805 1.388 . S
C2804 C2803 1.366 . S
C2804 C2808 1.385 . S
C2805 H2780 0.951 . S
C2805 C2803 1.388 . S
C2805 C2806 1.366 . S
C2806 C2805 1.366 . S
C2806 C2807 1.414 . S
C2806 C2809 1.499 . S
C2807 H2781 0.950 . S
C2807 C2806 1.414 . S
C2807 C2808 1.374 . S
C2808 H2782 0.950 . S
C2808 C2804 1.385 . S
C2808 C2807 1.374 . S
C2809 C2806 1.499 . S
C2809 C2810 1.373 . S
C2809 C2811 1.389 . S
C2810 H2783 0.950 . S
C2810 C2796 1.377 . S
C2810 C2809 1.373 . S
C2811 C2795 1.377 . S
C2811 C2809 1.389 . S
C2811 C2812 1.524 . S
C2812 C2811 1.524 . S
C2812 C2813 1.397 . S
C2812 C2817 1.363 . S
C2813 H2784 0.950 . S
C2813 C2812 1.397 . S
C2813 C2814 1.334 . S
C2814 H2785 0.950 . S
C2814 C2813 1.334 . S
C2814 C2815 1.287 . S
C2815 C2814 1.287 . S
C2815 C2816 1.524 . S
C2815 H2818 0.999 . S
C2816 H2786 0.950 . S
C2816 C2815 1.524 . S
C2816 C2817 1.415 . S
C2817 H2787 0.950 . S
C2817 C2812 1.363 . S
C2817 C2816 1.415 . S
H2818 C2815 0.999 . S
H2819 C2800 0.913 . S
H2820 C2838 0.951 . S
H2821 C2840 0.951 . S
H2822 C2842 0.950 . S
H2823 C2843 0.950 . S
H2824 C2845 0.950 . S
H2825 C2848 0.950 . S
H2826 C2849 0.950 . S
H2827 C2851 0.950 . S
H2828 C2852 0.950 . S
H2829 C2853 0.951 . S
H2830 C2855 0.951 . S
H2831 C2857 0.950 . S
H2832 C2858 0.950 . S
H2833 C2860 0.950 . S
H2834 C2863 0.950 . S
H2835 C2864 0.950 . S
H2836 C2866 0.950 . S
H2837 C2867 0.950 . S
C2838 H2820 0.951 . S
C2838 C2839 1.366 . S
C2838 C2840 1.388 . S
C2839 C2838 1.366 . S
C2839 C2843 1.385 . S
C2840 H2821 0.951 . S
C2840 C2838 1.388 . S
C2840 C2841 1.366 . S
C2841 C2840 1.366 . S
C2841 C2842 1.414 . S
C2841 C2844 1.499 . S
C2842 H2822 0.950 . S
C2842 C2841 1.414 . S
C2842 C2843 1.374 . S
C2843 H2823 0.950 . S
C2843 C2839 1.385 . S
C2843 C2842 1.374 . S
C2844 C2841 1.499 . S
C2844 C2845 1.373 . S
C2844 C2846 1.389 . S
C2845 H2824 0.950 . S
C2845 C2844 1.373 . S
C2845 C2861 1.377 . S
C2846 C2844 1.389 . S
C2846 C2847 1.524 . S
C2846 C2860 1.377 . S
C2847 C2846 1.524 . S
C2847 C2848 1.397 . S
C2847 C2852 1.363 . S
C2848 H2825 0.950 . S
C2848 C2847 1.397 . S
C2848 C2849 1.334 . S
C2849 H2826 0.950 . S
C2849 C2848 1.334 . S
C2849 C2850 1.287 . S
C2850 C2849 1.287 . S
C2850 C2851 1.524 . S
C2850 H2869 0.913 . S
C2851 H2827 0.950 . S
C2851 C2850 1.524 . S
C2851 C2852 1.415 . S
C2852 H2828 0.950 . S
C2852 C2847 1.363 . S
C2852 C2851 1.415 . S
C2853 H2829 0.951 . S
C2853 C2854 1.366 . S
C2853 C2855 1.388 . S
C2854 C2853 1.366 . S
C2854 C2858 1.385 . S
C2855 H2830 0.951 . S
C2855 C2853 1.388 . S
C2855 C2856 1.366 . S
C2856 C2855 1.366 . S
C2856 C2857 1.414 . S
C2856 C2859 1.499 . S
C2857 H2831 0.950 . S
C2857 C2856 1.414 . S
C2857 C2858 1.374 . S
C2858 H2832 0.950 . S
C2858 C2854 1.385 . S
C2858 C2857 1.374 . S
C2859 C2856 1.499 . S
C2859 C2860 1.373 . S
C2859 C2861 1.389 . S
C2860 H2833 0.950 . S
C2860 C2846 1.377 . S
C2860 C2859 1.373 . S
C2861 C2845 1.377 . S
C2861 C2859 1.389 . S
C2861 C2862 1.524 . S
C2862 C2861 1.524 . S
C2862 C2863 1.397 . S
C2862 C2867 1.363 . S
C2863 H2834 0.950 . S
C2863 C2862 1.397 . S
C2863 C2864 1.334 . S
C2864 H2835 0.950 . S
C2864 C2863 1.334 . S
C2864 C2865 1.287 . S
C2865 C2864 1.287 . S
C2865 C2866 1.524 . S
C2865 H2868 0.999 . S
C2866 H2836 0.950 . S
C2866 C2865 1.524 . S
C2866 C2867 1.415 . S
C2867 H2837 0.950 . S
C2867 C2862 1.363 . S
C2867 C2866 1.415 . S
H2868 C2865 0.999 . S
H2869 C2850 0.913 . S
H2870 C2888 0.951 . S
H2871 C2890 0.951 . S
H2872 C2892 0.950 . S
H2873 C2893 0.950 . S
H2874 C2895 0.950 . S
H2875 C2898 0.950 . S
H2876 C2899 0.950 . S
H2877 C2901 0.950 . S
H2878 C2902 0.950 . S
H2879 C2903 0.951 . S
H2880 C2905 0.951 . S
H2881 C2907 0.950 . S
H2882 C2908 0.950 . S
H2883 C2910 0.950 . S
H2884 C2913 0.950 . S
H2885 C2914 0.950 . S
H2886 C2916 0.950 . S
H2887 C2917 0.950 . S
C2888 H2870 0.951 . S
C2888 C2889 1.366 . S
C2888 C2890 1.388 . S
C2889 C2888 1.366 . S
C2889 C2893 1.385 . S
C2890 H2871 0.951 . S
C2890 C2888 1.388 . S
C2890 C2891 1.366 . S
C2891 C2890 1.366 . S
C2891 C2892 1.414 . S
C2891 C2894 1.499 . S
C2892 H2872 0.950 . S
C2892 C2891 1.414 . S
C2892 C2893 1.374 . S
C2893 H2873 0.950 . S
C2893 C2889 1.385 . S
C2893 C2892 1.374 . S
C2894 C2891 1.499 . S
C2894 C2895 1.373 . S
C2894 C2896 1.389 . S
C2895 H2874 0.950 . S
C2895 C2894 1.373 . S
C2895 C2911 1.377 . S
C2896 C2894 1.389 . S
C2896 C2897 1.524 . S
C2896 C2910 1.377 . S
C2897 C2896 1.524 . S
C2897 C2898 1.397 . S
C2897 C2902 1.363 . S
C2898 H2875 0.950 . S
C2898 C2897 1.397 . S
C2898 C2899 1.334 . S
C2899 H2876 0.950 . S
C2899 C2898 1.334 . S
C2899 C2900 1.287 . S
C2900 C2899 1.287 . S
C2900 C2901 1.524 . S
C2900 H2919 0.913 . S
C2901 H2877 0.950 . S
C2901 C2900 1.524 . S
C2901 C2902 1.415 . S
C2902 H2878 0.950 . S
C2902 C2897 1.363 . S
C2902 C2901 1.415 . S
C2903 H2879 0.951 . S
C2903 C2904 1.366 . S
C2903 C2905 1.388 . S
C2904 C2903 1.366 . S
C2904 C2908 1.385 . S
C2905 H2880 0.951 . S
C2905 C2903 1.388 . S
C2905 C2906 1.366 . S
C2906 C2905 1.366 . S
C2906 C2907 1.414 . S
C2906 C2909 1.499 . S
C2907 H2881 0.950 . S
C2907 C2906 1.414 . S
C2907 C2908 1.374 . S
C2908 H2882 0.950 . S
C2908 C2904 1.385 . S
C2908 C2907 1.374 . S
C2909 C2906 1.499 . S
C2909 C2910 1.373 . S
C2909 C2911 1.389 . S
C2910 H2883 0.950 . S
C2910 C2896 1.377 . S
C2910 C2909 1.373 . S
C2911 C2895 1.377 . S
C2911 C2909 1.389 . S
C2911 C2912 1.524 . S
C2912 C2911 1.524 . S
C2912 C2913 1.397 . S
C2912 C2917 1.363 . S
C2913 H2884 0.950 . S
C2913 C2912 1.397 . S
C2913 C2914 1.334 . S
C2914 H2885 0.950 . S
C2914 C2913 1.334 . S
C2914 C2915 1.287 . S
C2915 C2914 1.287 . S
C2915 C2916 1.524 . S
C2915 H2918 0.999 . S
C2916 H2886 0.950 . S
C2916 C2915 1.524 . S
C2916 C2917 1.415 . S
C2917 H2887 0.950 . S
C2917 C2912 1.363 . S
C2917 C2916 1.415 . S
H2918 C2915 0.999 . S
H2919 C2900 0.913 . S
H2920 C2938 0.951 . S
H2921 C2940 0.951 . S
H2922 C2942 0.950 . S
H2923 C2943 0.950 . S
H2924 C2945 0.950 . S
H2925 C2948 0.950 . S
H2926 C2949 0.950 . S
H2927 C2951 0.950 . S
H2928 C2952 0.950 . S
H2929 C2953 0.951 . S
H2930 C2955 0.951 . S
H2931 C2957 0.950 . S
H2932 C2958 0.950 . S
H2933 C2960 0.950 . S
H2934 C2963 0.950 . S
H2935 C2964 0.950 . S
H2936 C2966 0.950 . S
H2937 C2967 0.950 . S
C2938 H2920 0.951 . S
C2938 C2939 1.366 . S
C2938 C2940 1.388 . S
C2939 C2938 1.366 . S
C2939 C2943 1.385 . S
C2940 H2921 0.951 . S
C2940 C2938 1.388 . S
C2940 C2941 1.366 . S
C2941 C2940 1.366 . S
C2941 C2942 1.414 . S
C2941 C2944 1.499 . S
C2942 H2922 0.950 . S
C2942 C2941 1.414 . S
C2942 C2943 1.374 . S
C2943 H2923 0.950 . S
C2943 C2939 1.385 . S
C2943 C2942 1.374 . S
C2944 C2941 1.499 . S
C2944 C2945 1.373 . S
C2944 C2946 1.389 . S
C2945 H2924 0.950 . S
C2945 C2944 1.373 . S
C2945 C2961 1.377 . S
C2946 C2944 1.389 . S
C2946 C2947 1.524 . S
C2946 C2960 1.377 . S
C2947 C2946 1.524 . S
C2947 C2948 1.397 . S
C2947 C2952 1.363 . S
C2948 H2925 0.950 . S
C2948 C2947 1.397 . S
C2948 C2949 1.334 . S
C2949 H2926 0.950 . S
C2949 C2948 1.334 . S
C2949 C2950 1.287 . S
C2950 C2949 1.287 . S
C2950 C2951 1.524 . S
C2950 H2969 0.913 . S
C2951 H2927 0.950 . S
C2951 C2950 1.524 . S
C2951 C2952 1.415 . S
C2952 H2928 0.950 . S
C2952 C2947 1.363 . S
C2952 C2951 1.415 . S
C2953 H2929 0.951 . S
C2953 C2954 1.366 . S
C2953 C2955 1.388 . S
C2954 C2953 1.366 . S
C2954 C2958 1.385 . S
C2955 H2930 0.951 . S
C2955 C2953 1.388 . S
C2955 C2956 1.366 . S
C2956 C2955 1.366 . S
C2956 C2957 1.414 . S
C2956 C2959 1.499 . S
C2957 H2931 0.950 . S
C2957 C2956 1.414 . S
C2957 C2958 1.374 . S
C2958 H2932 0.950 . S
C2958 C2954 1.385 . S
C2958 C2957 1.374 . S
C2959 C2956 1.499 . S
C2959 C2960 1.373 . S
C2959 C2961 1.389 . S
C2960 H2933 0.950 . S
C2960 C2946 1.377 . S
C2960 C2959 1.373 . S
C2961 C2945 1.377 . S
C2961 C2959 1.389 . S
C2961 C2962 1.524 . S
C2962 C2961 1.524 . S
C2962 C2963 1.397 . S
C2962 C2967 1.363 . S
C2963 H2934 0.950 . S
C2963 C2962 1.397 . S
C2963 C2964 1.334 . S
C2964 H2935 0.950 . S
C2964 C2963 1.334 . S
C2964 C2965 1.287 . S
C2965 C2964 1.287 . S
C2965 C2966 1.524 . S
C2965 H2968 0.999 . S
C2966 H2936 0.950 . S
C2966 C2965 1.524 . S
C2966 C2967 1.415 . S
C2967 H2937 0.950 . S
C2967 C2962 1.363 . S
C2967 C2966 1.415 . S
H2968 C2965 0.999 . S
H2969 C2950 0.913 . S
H2970 C2988 0.951 . S
H2971 C2990 0.951 . S
H2972 C2992 0.950 . S
H2973 C2993 0.950 . S
H2974 C2995 0.950 . S
H2975 C2998 0.950 . S
H2976 C2999 0.950 . S
H2977 C3001 0.950 . S
H2978 C3002 0.950 . S
H2979 C3003 0.951 . S
H2980 C3005 0.951 . S
H2981 C3007 0.950 . S
H2982 C3008 0.950 . S
H2983 C3010 0.950 . S
H2984 C3013 0.950 . S
H2985 C3014 0.950 . S
H2986 C3016 0.950 . S
H2987 C3017 0.950 . S
C2988 H2970 0.951 . S
C2988 C2989 1.366 . S
C2988 C2990 1.388 . S
C2989 C2988 1.366 . S
C2989 C2993 1.385 . S
C2990 H2971 0.951 . S
C2990 C2988 1.388 . S
C2990 C2991 1.366 . S
C2991 C2990 1.366 . S
C2991 C2992 1.414 . S
C2991 C2994 1.499 . S
C2992 H2972 0.950 . S
C2992 C2991 1.414 . S
C2992 C2993 1.374 . S
C2993 H2973 0.950 . S
C2993 C2989 1.385 . S
C2993 C2992 1.374 . S
C2994 C2991 1.499 . S
C2994 C2995 1.373 . S
C2994 C2996 1.389 . S
C2995 H2974 0.950 . S
C2995 C2994 1.373 . S
C2995 C3011 1.377 . S
C2996 C2994 1.389 . S
C2996 C2997 1.524 . S
C2996 C3010 1.377 . S
C2997 C2996 1.524 . S
C2997 C2998 1.397 . S
C2997 C3002 1.363 . S
C2998 H2975 0.950 . S
C2998 C2997 1.397 . S
C2998 C2999 1.334 . S
C2999 H2976 0.950 . S
C2999 C2998 1.334 . S
C2999 C3000 1.287 . S
C3000 C2999 1.287 . S
C3000 C3001 1.524 . S
C3000 H3019 0.913 . S
C3001 H2977 0.950 . S
C3001 C3000 1.524 . S
C3001 C3002 1.415 . S
C3002 H2978 0.950 . S
C3002 C2997 1.363 . S
C3002 C3001 1.415 . S
C3003 H2979 0.951 . S
C3003 C3004 1.366 . S
C3003 C3005 1.388 . S
C3004 C3003 1.366 . S
C3004 C3008 1.385 . S
C3005 H2980 0.951 . S
C3005 C3003 1.388 . S
C3005 C3006 1.366 . S
C3006 C3005 1.366 . S
C3006 C3007 1.414 . S
C3006 C3009 1.499 . S
C3007 H2981 0.950 . S
C3007 C3006 1.414 . S
C3007 C3008 1.374 . S
C3008 H2982 0.950 . S
C3008 C3004 1.385 . S
C3008 C3007 1.374 . S
C3009 C3006 1.499 . S
C3009 C3010 1.373 . S
C3009 C3011 1.389 . S
C3010 H2983 0.950 . S
C3010 C2996 1.377 . S
C3010 C3009 1.373 . S
C3011 C2995 1.377 . S
C3011 C3009 1.389 . S
C3011 C3012 1.524 . S
C3012 C3011 1.524 . S
C3012 C3013 1.397 . S
C3012 C3017 1.363 . S
C3013 H2984 0.950 . S
C3013 C3012 1.397 . S
C3013 C3014 1.334 . S
C3014 H2985 0.950 . S
C3014 C3013 1.334 . S
C3014 C3015 1.287 . S
C3015 C3014 1.287 . S
C3015 C3016 1.524 . S
C3015 H3018 0.999 . S
C3016 H2986 0.950 . S
C3016 C3015 1.524 . S
C3016 C3017 1.415 . S
C3017 H2987 0.950 . S
C3017 C3012 1.363 . S
C3017 C3016 1.415 . S
H3018 C3015 0.999 . S
H3019 C3000 0.913 . S
H3020 C3038 0.951 . S
H3021 C3040 0.951 . S
H3022 C3042 0.950 . S
H3023 C3043 0.950 . S
H3024 C3045 0.950 . S
H3025 C3048 0.950 . S
H3026 C3049 0.950 . S
H3027 C3051 0.950 . S
H3028 C3052 0.950 . S
H3029 C3053 0.951 . S
H3030 C3055 0.951 . S
H3031 C3057 0.950 . S
H3032 C3058 0.950 . S
H3033 C3060 0.950 . S
H3034 C3063 0.950 . S
H3035 C3064 0.950 . S
H3036 C3066 0.950 . S
H3037 C3067 0.950 . S
C3038 H3020 0.951 . S
C3038 C3039 1.366 . S
C3038 C3040 1.388 . S
C3039 C3038 1.366 . S
C3039 C3043 1.385 . S
C3040 H3021 0.951 . S
C3040 C3038 1.388 . S
C3040 C3041 1.366 . S
C3041 C3040 1.366 . S
C3041 C3042 1.414 . S
C3041 C3044 1.499 . S
C3042 H3022 0.950 . S
C3042 C3041 1.414 . S
C3042 C3043 1.374 . S
C3043 H3023 0.950 . S
C3043 C3039 1.385 . S
C3043 C3042 1.374 . S
C3044 C3041 1.499 . S
C3044 C3045 1.373 . S
C3044 C3046 1.389 . S
C3045 H3024 0.950 . S
C3045 C3044 1.373 . S
C3045 C3061 1.377 . S
C3046 C3044 1.389 . S
C3046 C3047 1.524 . S
C3046 C3060 1.377 . S
C3047 C3046 1.524 . S
C3047 C3048 1.397 . S
C3047 C3052 1.363 . S
C3048 H3025 0.950 . S
C3048 C3047 1.397 . S
C3048 C3049 1.334 . S
C3049 H3026 0.950 . S
C3049 C3048 1.334 . S
C3049 C3050 1.287 . S
C3050 C3049 1.287 . S
C3050 C3051 1.524 . S
C3050 H3069 0.913 . S
C3051 H3027 0.950 . S
C3051 C3050 1.524 . S
C3051 C3052 1.415 . S
C3052 H3028 0.950 . S
C3052 C3047 1.363 . S
C3052 C3051 1.415 . S
C3053 H3029 0.951 . S
C3053 C3054 1.366 . S
C3053 C3055 1.388 . S
C3054 C3053 1.366 . S
C3054 C3058 1.385 . S
C3055 H3030 0.951 . S
C3055 C3053 1.388 . S
C3055 C3056 1.366 . S
C3056 C3055 1.366 . S
C3056 C3057 1.414 . S
C3056 C3059 1.499 . S
C3057 H3031 0.950 . S
C3057 C3056 1.414 . S
C3057 C3058 1.374 . S
C3058 H3032 0.950 . S
C3058 C3054 1.385 . S
C3058 C3057 1.374 . S
C3059 C3056 1.499 . S
C3059 C3060 1.373 . S
C3059 C3061 1.389 . S
C3060 H3033 0.950 . S
C3060 C3046 1.377 . S
C3060 C3059 1.373 . S
C3061 C3045 1.377 . S
C3061 C3059 1.389 . S
C3061 C3062 1.524 . S
C3062 C3061 1.524 . S
C3062 C3063 1.397 . S
C3062 C3067 1.363 . S
C3063 H3034 0.950 . S
C3063 C3062 1.397 . S
C3063 C3064 1.334 . S
C3064 H3035 0.950 . S
C3064 C3063 1.334 . S
C3064 C3065 1.287 . S
C3065 C3064 1.287 . S
C3065 C3066 1.524 . S
C3065 H3068 0.999 . S
C3066 H3036 0.950 . S
C3066 C3065 1.524 . S
C3066 C3067 1.415 . S
C3067 H3037 0.950 . S
C3067 C3062 1.363 . S
C3067 C3066 1.415 . S
H3068 C3065 0.999 . S
H3069 C3050 0.913 . S
H3070 C3088 0.951 . S
H3071 C3090 0.951 . S
H3072 C3092 0.950 . S
H3073 C3093 0.950 . S
H3074 C3095 0.950 . S
H3075 C3098 0.950 . S
H3076 C3099 0.950 . S
H3077 C3101 0.950 . S
H3078 C3102 0.950 . S
H3079 C3103 0.951 . S
H3080 C3105 0.951 . S
H3081 C3107 0.950 . S
H3082 C3108 0.950 . S
H3083 C3110 0.950 . S
H3084 C3113 0.950 . S
H3085 C3114 0.950 . S
H3086 C3116 0.950 . S
H3087 C3117 0.950 . S
C3088 H3070 0.951 . S
C3088 C3089 1.366 . S
C3088 C3090 1.388 . S
C3089 C3088 1.366 . S
C3089 C3093 1.385 . S
C3090 H3071 0.951 . S
C3090 C3088 1.388 . S
C3090 C3091 1.366 . S
C3091 C3090 1.366 . S
C3091 C3092 1.414 . S
C3091 C3094 1.499 . S
C3092 H3072 0.950 . S
C3092 C3091 1.414 . S
C3092 C3093 1.374 . S
C3093 H3073 0.950 . S
C3093 C3089 1.385 . S
C3093 C3092 1.374 . S
C3094 C3091 1.499 . S
C3094 C3095 1.373 . S
C3094 C3096 1.389 . S
C3095 H3074 0.950 . S
C3095 C3094 1.373 . S
C3095 C3111 1.377 . S
C3096 C3094 1.389 . S
C3096 C3097 1.524 . S
C3096 C3110 1.377 . S
C3097 C3096 1.524 . S
C3097 C3098 1.397 . S
C3097 C3102 1.363 . S
C3098 H3075 0.950 . S
C3098 C3097 1.397 . S
C3098 C3099 1.334 . S
C3099 H3076 0.950 . S
C3099 C3098 1.334 . S
C3099 C3100 1.287 . S
C3100 C3099 1.287 . S
C3100 C3101 1.524 . S
C3100 H3119 0.913 . S
C3101 H3077 0.950 . S
C3101 C3100 1.524 . S
C3101 C3102 1.415 . S
C3102 H3078 0.950 . S
C3102 C3097 1.363 . S
C3102 C3101 1.415 . S
C3103 H3079 0.951 . S
C3103 C3104 1.366 . S
C3103 C3105 1.388 . S
C3104 C3103 1.366 . S
C3104 C3108 1.385 . S
C3105 H3080 0.951 . S
C3105 C3103 1.388 . S
C3105 C3106 1.366 . S
C3106 C3105 1.366 . S
C3106 C3107 1.414 . S
C3106 C3109 1.499 . S
C3107 H3081 0.950 . S
C3107 C3106 1.414 . S
C3107 C3108 1.374 . S
C3108 H3082 0.950 . S
C3108 C3104 1.385 . S
C3108 C3107 1.374 . S
C3109 C3106 1.499 . S
C3109 C3110 1.373 . S
C3109 C3111 1.389 . S
C3110 H3083 0.950 . S
C3110 C3096 1.377 . S
C3110 C3109 1.373 . S
C3111 C3095 1.377 . S
C3111 C3109 1.389 . S
C3111 C3112 1.524 . S
C3112 C3111 1.524 . S
C3112 C3113 1.397 . S
C3112 C3117 1.363 . S
C3113 H3084 0.950 . S
C3113 C3112 1.397 . S
C3113 C3114 1.334 . S
C3114 H3085 0.950 . S
C3114 C3113 1.334 . S
C3114 C3115 1.287 . S
C3115 C3114 1.287 . S
C3115 C3116 1.524 . S
C3115 H3118 0.999 . S
C3116 H3086 0.950 . S
C3116 C3115 1.524 . S
C3116 C3117 1.415 . S
C3117 H3087 0.950 . S
C3117 C3112 1.363 . S
C3117 C3116 1.415 . S
H3118 C3115 0.999 . S
H3119 C3100 0.913 . S
H3120 C3138 0.951 . S
H3121 C3140 0.951 . S
H3122 C3142 0.950 . S
H3123 C3143 0.950 . S
H3124 C3145 0.950 . S
H3125 C3148 0.950 . S
H3126 C3149 0.950 . S
H3127 C3151 0.950 . S
H3128 C3152 0.950 . S
H3129 C3153 0.951 . S
H3130 C3155 0.951 . S
H3131 C3157 0.950 . S
H3132 C3158 0.950 . S
H3133 C3160 0.950 . S
H3134 C3163 0.950 . S
H3135 C3164 0.950 . S
H3136 C3166 0.950 . S
H3137 C3167 0.950 . S
C3138 H3120 0.951 . S
C3138 C3139 1.366 . S
C3138 C3140 1.388 . S
C3139 C3138 1.366 . S
C3139 C3143 1.385 . S
C3140 H3121 0.951 . S
C3140 C3138 1.388 . S
C3140 C3141 1.366 . S
C3141 C3140 1.366 . S
C3141 C3142 1.414 . S
C3141 C3144 1.499 . S
C3142 H3122 0.950 . S
C3142 C3141 1.414 . S
C3142 C3143 1.374 . S
C3143 H3123 0.950 . S
C3143 C3139 1.385 . S
C3143 C3142 1.374 . S
C3144 C3141 1.499 . S
C3144 C3145 1.373 . S
C3144 C3146 1.389 . S
C3145 H3124 0.950 . S
C3145 C3144 1.373 . S
C3145 C3161 1.377 . S
C3146 C3144 1.389 . S
C3146 C3147 1.524 . S
C3146 C3160 1.377 . S
C3147 C3146 1.524 . S
C3147 C3148 1.397 . S
C3147 C3152 1.363 . S
C3148 H3125 0.950 . S
C3148 C3147 1.397 . S
C3148 C3149 1.334 . S
C3149 H3126 0.950 . S
C3149 C3148 1.334 . S
C3149 C3150 1.287 . S
C3150 C3149 1.287 . S
C3150 C3151 1.524 . S
C3150 H3169 0.913 . S
C3151 H3127 0.950 . S
C3151 C3150 1.524 . S
C3151 C3152 1.415 . S
C3152 H3128 0.950 . S
C3152 C3147 1.363 . S
C3152 C3151 1.415 . S
C3153 H3129 0.951 . S
C3153 C3154 1.366 . S
C3153 C3155 1.388 . S
C3154 C3153 1.366 . S
C3154 C3158 1.385 . S
C3155 H3130 0.951 . S
C3155 C3153 1.388 . S
C3155 C3156 1.366 . S
C3156 C3155 1.366 . S
C3156 C3157 1.414 . S
C3156 C3159 1.499 . S
C3157 H3131 0.950 . S
C3157 C3156 1.414 . S
C3157 C3158 1.374 . S
C3158 H3132 0.950 . S
C3158 C3154 1.385 . S
C3158 C3157 1.374 . S
C3159 C3156 1.499 . S
C3159 C3160 1.373 . S
C3159 C3161 1.389 . S
C3160 H3133 0.950 . S
C3160 C3146 1.377 . S
C3160 C3159 1.373 . S
C3161 C3145 1.377 . S
C3161 C3159 1.389 . S
C3161 C3162 1.524 . S
C3162 C3161 1.524 . S
C3162 C3163 1.397 . S
C3162 C3167 1.363 . S
C3163 H3134 0.950 . S
C3163 C3162 1.397 . S
C3163 C3164 1.334 . S
C3164 H3135 0.950 . S
C3164 C3163 1.334 . S
C3164 C3165 1.287 . S
C3165 C3164 1.287 . S
C3165 C3166 1.524 . S
C3165 H3168 0.999 . S
C3166 H3136 0.950 . S
C3166 C3165 1.524 . S
C3166 C3167 1.415 . S
C3167 H3137 0.950 . S
C3167 C3162 1.363 . S
C3167 C3166 1.415 . S
H3168 C3165 0.999 . S
H3169 C3150 0.913 . S
H3170 C3188 0.951 . S
H3171 C3190 0.951 . S
H3172 C3192 0.950 . S
H3173 C3193 0.950 . S
H3174 C3195 0.950 . S
H3175 C3198 0.950 . S
H3176 C3199 0.950 . S
H3177 C3201 0.950 . S
H3178 C3202 0.950 . S
H3179 C3203 0.951 . S
H3180 C3205 0.951 . S
H3181 C3207 0.950 . S
H3182 C3208 0.950 . S
H3183 C3210 0.950 . S
H3184 C3213 0.950 . S
H3185 C3214 0.950 . S
H3186 C3216 0.950 . S
H3187 C3217 0.950 . S
C3188 H3170 0.951 . S
C3188 C3189 1.366 . S
C3188 C3190 1.388 . S
C3189 C3188 1.366 . S
C3189 C3193 1.385 . S
C3190 H3171 0.951 . S
C3190 C3188 1.388 . S
C3190 C3191 1.366 . S
C3191 C3190 1.366 . S
C3191 C3192 1.414 . S
C3191 C3194 1.499 . S
C3192 H3172 0.950 . S
C3192 C3191 1.414 . S
C3192 C3193 1.374 . S
C3193 H3173 0.950 . S
C3193 C3189 1.385 . S
C3193 C3192 1.374 . S
C3194 C3191 1.499 . S
C3194 C3195 1.373 . S
C3194 C3196 1.389 . S
C3195 H3174 0.950 . S
C3195 C3194 1.373 . S
C3195 C3211 1.377 . S
C3196 C3194 1.389 . S
C3196 C3197 1.524 . S
C3196 C3210 1.377 . S
C3197 C3196 1.524 . S
C3197 C3198 1.397 . S
C3197 C3202 1.363 . S
C3198 H3175 0.950 . S
C3198 C3197 1.397 . S
C3198 C3199 1.334 . S
C3199 H3176 0.950 . S
C3199 C3198 1.334 . S
C3199 C3200 1.287 . S
C3200 C3199 1.287 . S
C3200 C3201 1.524 . S
C3200 H3219 0.913 . S
C3201 H3177 0.950 . S
C3201 C3200 1.524 . S
C3201 C3202 1.415 . S
C3202 H3178 0.950 . S
C3202 C3197 1.363 . S
C3202 C3201 1.415 . S
C3203 H3179 0.951 . S
C3203 C3204 1.366 . S
C3203 C3205 1.388 . S
C3204 C3203 1.366 . S
C3204 C3208 1.385 . S
C3205 H3180 0.951 . S
C3205 C3203 1.388 . S
C3205 C3206 1.366 . S
C3206 C3205 1.366 . S
C3206 C3207 1.414 . S
C3206 C3209 1.499 . S
C3207 H3181 0.950 . S
C3207 C3206 1.414 . S
C3207 C3208 1.374 . S
C3208 H3182 0.950 . S
C3208 C3204 1.385 . S
C3208 C3207 1.374 . S
C3209 C3206 1.499 . S
C3209 C3210 1.373 . S
C3209 C3211 1.389 . S
C3210 H3183 0.950 . S
C3210 C3196 1.377 . S
C3210 C3209 1.373 . S
C3211 C3195 1.377 . S
C3211 C3209 1.389 . S
C3211 C3212 1.524 . S
C3212 C3211 1.524 . S
C3212 C3213 1.397 . S
C3212 C3217 1.363 . S
C3213 H3184 0.950 . S
C3213 C3212 1.397 . S
C3213 C3214 1.334 . S
C3214 H3185 0.950 . S
C3214 C3213 1.334 . S
C3214 C3215 1.287 . S
C3215 C3214 1.287 . S
C3215 C3216 1.524 . S
C3215 H3218 0.999 . S
C3216 H3186 0.950 . S
C3216 C3215 1.524 . S
C3216 C3217 1.415 . S
C3217 H3187 0.950 . S
C3217 C3212 1.363 . S
C3217 C3216 1.415 . S
H3218 C3215 0.999 . S
H3219 C3200 0.913 . S
H3220 C3238 0.951 . S
H3221 C3240 0.951 . S
H3222 C3242 0.950 . S
H3223 C3243 0.950 . S
H3224 C3245 0.950 . S
H3225 C3248 0.950 . S
H3226 C3249 0.950 . S
H3227 C3251 0.950 . S
H3228 C3252 0.950 . S
H3229 C3253 0.951 . S
H3230 C3255 0.951 . S
H3231 C3257 0.950 . S
H3232 C3258 0.950 . S
H3233 C3260 0.950 . S
H3234 C3263 0.950 . S
H3235 C3264 0.950 . S
H3236 C3266 0.950 . S
H3237 C3267 0.950 . S
C3238 H3220 0.951 . S
C3238 C3239 1.366 . S
C3238 C3240 1.388 . S
C3239 C3238 1.366 . S
C3239 C3243 1.385 . S
C3240 H3221 0.951 . S
C3240 C3238 1.388 . S
C3240 C3241 1.366 . S
C3241 C3240 1.366 . S
C3241 C3242 1.414 . S
C3241 C3244 1.499 . S
C3242 H3222 0.950 . S
C3242 C3241 1.414 . S
C3242 C3243 1.374 . S
C3243 H3223 0.950 . S
C3243 C3239 1.385 . S
C3243 C3242 1.374 . S
C3244 C3241 1.499 . S
C3244 C3245 1.373 . S
C3244 C3246 1.389 . S
C3245 H3224 0.950 . S
C3245 C3244 1.373 . S
C3245 C3261 1.377 . S
C3246 C3244 1.389 . S
C3246 C3247 1.524 . S
C3246 C3260 1.377 . S
C3247 C3246 1.524 . S
C3247 C3248 1.397 . S
C3247 C3252 1.363 . S
C3248 H3225 0.950 . S
C3248 C3247 1.397 . S
C3248 C3249 1.334 . S
C3249 H3226 0.950 . S
C3249 C3248 1.334 . S
C3249 C3250 1.287 . S
C3250 C3249 1.287 . S
C3250 C3251 1.524 . S
C3250 H3269 0.913 . S
C3251 H3227 0.950 . S
C3251 C3250 1.524 . S
C3251 C3252 1.415 . S
C3252 H3228 0.950 . S
C3252 C3247 1.363 . S
C3252 C3251 1.415 . S
C3253 H3229 0.951 . S
C3253 C3254 1.366 . S
C3253 C3255 1.388 . S
C3254 C3253 1.366 . S
C3254 C3258 1.385 . S
C3255 H3230 0.951 . S
C3255 C3253 1.388 . S
C3255 C3256 1.366 . S
C3256 C3255 1.366 . S
C3256 C3257 1.414 . S
C3256 C3259 1.499 . S
C3257 H3231 0.950 . S
C3257 C3256 1.414 . S
C3257 C3258 1.374 . S
C3258 H3232 0.950 . S
C3258 C3254 1.385 . S
C3258 C3257 1.374 . S
C3259 C3256 1.499 . S
C3259 C3260 1.373 . S
C3259 C3261 1.389 . S
C3260 H3233 0.950 . S
C3260 C3246 1.377 . S
C3260 C3259 1.373 . S
C3261 C3245 1.377 . S
C3261 C3259 1.389 . S
C3261 C3262 1.524 . S
C3262 C3261 1.524 . S
C3262 C3263 1.397 . S
C3262 C3267 1.363 . S
C3263 H3234 0.950 . S
C3263 C3262 1.397 . S
C3263 C3264 1.334 . S
C3264 H3235 0.950 . S
C3264 C3263 1.334 . S
C3264 C3265 1.287 . S
C3265 C3264 1.287 . S
C3265 C3266 1.524 . S
C3265 H3268 0.999 . S
C3266 H3236 0.950 . S
C3266 C3265 1.524 . S
C3266 C3267 1.415 . S
C3267 H3237 0.950 . S
C3267 C3262 1.363 . S
C3267 C3266 1.415 . S
H3268 C3265 0.999 . S
H3269 C3250 0.913 . S
C904 C699 1.183 . S
C889 C75 1.209 . S
C954 C700 1.118 . S
C939 C156 1.003 . S
C1004 C694 1.314 . S
C989 C243 1.283 . S
C1039 C315 0.668 . S
C1054 C693 0.572 . S
C1089 C399 0.707 . S
C1104 C696 0.517 . S
C1154 C698 1.096 . S
C1139 C495 1.064 . S
C1189 C576 1.111 . S
C1204 C697 1.211 . S
C1239 C654 1.141 . S
C1254 C695 1.121 . S
C1304 C730 1.116 . S
C1289 C72 1.032 . S
C1339 C140 1.386 . S
C1354 C761 1.378 . S
C1404 C729 1.044 . S
C1389 C240 0.993 . S
C1454 C764 0.695 . S
C1439 C318 0.708 . S
C1489 C402 0.995 . S
C1504 C727 1.022 . S
C1554 C759 1.870 1_556 S
C1539 C492 1.718 . S
C1589 C560 1.031 . S
C1604 C732 1.078 . S
C1639 C655 2.721 . S
C1654 C766 2.744 1_556 S
C1689 C56 3.127 . S
C1704 C762 3.210 . S
C1739 C403 1.689 . S
C1754 C765 1.646 1_556 S
C1804 C733 2.232 . S
C1789 C476 2.135 . S
C1854 C760 1.498 . S
C1839 C579 1.443 . S
C1889 C651 1.434 . S
C1904 C726 1.569 . S
C1939 C224 3.136 . S
C1954 C763 3.289 . S
C2004 C728 1.260 . S
C1989 C319 1.268 . S
C2039 C159 1.801 . S
C2054 C731 1.859 . S
C2089 C663 1.131 . S
C2104 C798 1.107 . S
C2139 C408 0.902 . S
C2154 C799 0.505 . S
C2204 C793 1.228 . S
C2189 C486 1.197 . S
C2254 C792 1.642 . S
C2239 C567 1.451 . S
C2289 C147 0.674 . S
C2304 C795 0.637 . S
C2354 C797 1.191 . S
C2339 C234 1.158 . S
C2389 C324 0.924 . S
C2404 C796 1.047 . S
C2439 C66 1.142 . S
C2454 C794 1.109 . S
C2489 C660 1.466 . S
C2504 C832 1.566 . S
C2554 C864 1.212 . S
C2539 C392 1.247 . S
C2589 C487 2.046 . S
C2604 C825 2.174 . S
C2639 C570 1.752 . S
C2654 C859 1.827 . S
C2704 C830 1.558 . S
C2689 C150 1.486 . S
C2739 C235 3.357 . S
C2754 C861 3.444 . S
C2804 C827 1.588 . S
C2789 C308 1.636 . S
C2854 C862 3.121 . S
C2839 C67 2.913 . S
C2904 C858 2.629 . S
C2889 C644 2.460 . S
C2939 C151 1.006 . S
C2954 C860 1.027 . S
C2989 C231 0.902 . S
C3004 C829 0.967 . S
C3054 C863 1.034 . S
C3039 C327 1.004 . S
C3089 C63 1.090 . S
C3104 C828 1.152 . S
C3139 C483 1.907 . S
C3154 C865 1.989 . S
C3204 C831 1.326 . S
C3189 C571 1.332 . S
C3254 C826 0.674 . S
C3239 C411 0.698 . S
