# Generated by pormake.
# Topology gar, (4,6)-cn, num edge types: 1
# Building blocks:
#     Node 0, Type 0, BuildingBlock: TATPOV_clean_sbu_0, # of connection points: 4
#     Node 1, Type 0, BuildingBlock: TATPOV_clean_sbu_0, # of connection points: 4
#     Node 2, Type 0, BuildingBlock: TATPOV_clean_sbu_0, # of connection points: 4
#     Node 3, Type 0, BuildingBlock: TATPOV_clean_sbu_0, # of connection points: 4
#     Node 4, Type 0, BuildingBlock: TATPOV_clean_sbu_0, # of connection points: 4
#     Node 5, Type 0, BuildingBlock: TATPOV_clean_sbu_0, # of connection points: 4
#     Node 6, Type 0, BuildingBlock: TATPOV_clean_sbu_0, # of connection points: 4
#     Node 7, Type 0, BuildingBlock: TATPOV_clean_sbu_0, # of connection points: 4
#     Node 8, Type 0, BuildingBlock: TATPOV_clean_sbu_0, # of connection points: 4
#     Node 9, Type 0, BuildingBlock: TATPOV_clean_sbu_0, # of connection points: 4
#     Node 10, Type 0, BuildingBlock: TATPOV_clean_sbu_0, # of connection points: 4
#     Node 11, Type 0, BuildingBlock: TATPOV_clean_sbu_0, # of connection points: 4
#     Node 12, Type 0, BuildingBlock: TATPOV_clean_sbu_0, # of connection points: 4
#     Node 13, Type 0, BuildingBlock: TATPOV_clean_sbu_0, # of connection points: 4
#     Node 14, Type 0, BuildingBlock: TATPOV_clean_sbu_0, # of connection points: 4
#     Node 15, Type 0, BuildingBlock: TATPOV_clean_sbu_0, # of connection points: 4
#     Node 16, Type 0, BuildingBlock: TATPOV_clean_sbu_0, # of connection points: 4
#     Node 17, Type 0, BuildingBlock: TATPOV_clean_sbu_0, # of connection points: 4
#     Node 18, Type 0, BuildingBlock: TATPOV_clean_sbu_0, # of connection points: 4
#     Node 19, Type 0, BuildingBlock: TATPOV_clean_sbu_0, # of connection points: 4
#     Node 20, Type 0, BuildingBlock: TATPOV_clean_sbu_0, # of connection points: 4
#     Node 21, Type 0, BuildingBlock: TATPOV_clean_sbu_0, # of connection points: 4
#     Node 22, Type 0, BuildingBlock: TATPOV_clean_sbu_0, # of connection points: 4
#     Node 23, Type 0, BuildingBlock: TATPOV_clean_sbu_0, # of connection points: 4
#     Node 24, Type 1, BuildingBlock: BETDAH_clean_sbu_0, # of connection points: 6
#     Node 25, Type 1, BuildingBlock: BETDAH_clean_sbu_0, # of connection points: 6
#     Node 26, Type 1, BuildingBlock: BETDAH_clean_sbu_0, # of connection points: 6
#     Node 27, Type 1, BuildingBlock: BETDAH_clean_sbu_0, # of connection points: 6
#     Node 28, Type 1, BuildingBlock: BETDAH_clean_sbu_0, # of connection points: 6
#     Node 29, Type 1, BuildingBlock: BETDAH_clean_sbu_0, # of connection points: 6
#     Node 30, Type 1, BuildingBlock: BETDAH_clean_sbu_0, # of connection points: 6
#     Node 31, Type 1, BuildingBlock: BETDAH_clean_sbu_0, # of connection points: 6
#     Node 32, Type 1, BuildingBlock: BETDAH_clean_sbu_0, # of connection points: 6
#     Node 33, Type 1, BuildingBlock: BETDAH_clean_sbu_0, # of connection points: 6
#     Node 34, Type 1, BuildingBlock: BETDAH_clean_sbu_0, # of connection points: 6
#     Node 35, Type 1, BuildingBlock: BETDAH_clean_sbu_0, # of connection points: 6
#     Node 36, Type 1, BuildingBlock: BETDAH_clean_sbu_0, # of connection points: 6
#     Node 37, Type 1, BuildingBlock: BETDAH_clean_sbu_0, # of connection points: 6
#     Node 38, Type 1, BuildingBlock: BETDAH_clean_sbu_0, # of connection points: 6
#     Node 39, Type 1, BuildingBlock: BETDAH_clean_sbu_0, # of connection points: 6
#     Edge 40, Type (0, 1), None
#     Edge 41, Type (0, 1), None
#     Edge 42, Type (0, 1), None
#     Edge 43, Type (0, 1), None
#     Edge 44, Type (0, 1), None
#     Edge 45, Type (0, 1), None
#     Edge 46, Type (0, 1), None
#     Edge 47, Type (0, 1), None
#     Edge 48, Type (0, 1), None
#     Edge 49, Type (0, 1), None
#     Edge 50, Type (0, 1), None
#     Edge 51, Type (0, 1), None
#     Edge 52, Type (0, 1), None
#     Edge 53, Type (0, 1), None
#     Edge 54, Type (0, 1), None
#     Edge 55, Type (0, 1), None
#     Edge 56, Type (0, 1), None
#     Edge 57, Type (0, 1), None
#     Edge 58, Type (0, 1), None
#     Edge 59, Type (0, 1), None
#     Edge 60, Type (0, 1), None
#     Edge 61, Type (0, 1), None
#     Edge 62, Type (0, 1), None
#     Edge 63, Type (0, 1), None
#     Edge 64, Type (0, 1), None
#     Edge 65, Type (0, 1), None
#     Edge 66, Type (0, 1), None
#     Edge 67, Type (0, 1), None
#     Edge 68, Type (0, 1), None
#     Edge 69, Type (0, 1), None
#     Edge 70, Type (0, 1), None
#     Edge 71, Type (0, 1), None
#     Edge 72, Type (0, 1), None
#     Edge 73, Type (0, 1), None
#     Edge 74, Type (0, 1), None
#     Edge 75, Type (0, 1), None
#     Edge 76, Type (0, 1), None
#     Edge 77, Type (0, 1), None
#     Edge 78, Type (0, 1), None
#     Edge 79, Type (0, 1), None
#     Edge 80, Type (0, 1), None
#     Edge 81, Type (0, 1), None
#     Edge 82, Type (0, 1), None
#     Edge 83, Type (0, 1), None
#     Edge 84, Type (0, 1), None
#     Edge 85, Type (0, 1), None
#     Edge 86, Type (0, 1), None
#     Edge 87, Type (0, 1), None
#     Edge 88, Type (0, 1), None
#     Edge 89, Type (0, 1), None
#     Edge 90, Type (0, 1), None
#     Edge 91, Type (0, 1), None
#     Edge 92, Type (0, 1), None
#     Edge 93, Type (0, 1), None
#     Edge 94, Type (0, 1), None
#     Edge 95, Type (0, 1), None
#     Edge 96, Type (0, 1), None
#     Edge 97, Type (0, 1), None
#     Edge 98, Type (0, 1), None
#     Edge 99, Type (0, 1), None
#     Edge 100, Type (0, 1), None
#     Edge 101, Type (0, 1), None
#     Edge 102, Type (0, 1), None
#     Edge 103, Type (0, 1), None
#     Edge 104, Type (0, 1), None
#     Edge 105, Type (0, 1), None
#     Edge 106, Type (0, 1), None
#     Edge 107, Type (0, 1), None
#     Edge 108, Type (0, 1), None
#     Edge 109, Type (0, 1), None
#     Edge 110, Type (0, 1), None
#     Edge 111, Type (0, 1), None
#     Edge 112, Type (0, 1), None
#     Edge 113, Type (0, 1), None
#     Edge 114, Type (0, 1), None
#     Edge 115, Type (0, 1), None
#     Edge 116, Type (0, 1), None
#     Edge 117, Type (0, 1), None
#     Edge 118, Type (0, 1), None
#     Edge 119, Type (0, 1), None
#     Edge 120, Type (0, 1), None
#     Edge 121, Type (0, 1), None
#     Edge 122, Type (0, 1), None
#     Edge 123, Type (0, 1), None
#     Edge 124, Type (0, 1), None
#     Edge 125, Type (0, 1), None
#     Edge 126, Type (0, 1), None
#     Edge 127, Type (0, 1), None
#     Edge 128, Type (0, 1), None
#     Edge 129, Type (0, 1), None
#     Edge 130, Type (0, 1), None
#     Edge 131, Type (0, 1), None
#     Edge 132, Type (0, 1), None
#     Edge 133, Type (0, 1), None
#     Edge 134, Type (0, 1), None
#     Edge 135, Type (0, 1), None
# Relax obj value: 0.462
# Max RMSD: 0.453
# Mean RMSD: 0.233
data_MOF--net-gar--node1-TATPOV_clean_sbu_0--node2-BETDAH_clean_sbu_0--edge1-none
_symmetry_space_group_name_H-M    P1
_symmetry_Int_Tables_number       1
_symmetry_cell_setting            triclinic
loop_
_symmetry_equiv_pos_as_xyz
'x, y, z'
_cell_length_a     32.58502
_cell_length_b     26.379206
_cell_length_c     25.985534
_cell_angle_alpha  101.03917
_cell_angle_beta   97.204299
_cell_angle_gamma 103.47827
loop_
_atom_site_label
_atom_site_type_symbol
_atom_site_fract_x
_atom_site_fract_y
_atom_site_fract_z
_atom_type_partial_charge
Zn0 Zn 0.24143 0.46573 0.48817 0.0
Zn1 Zn 0.24837 0.45002 0.411 0.0
O2 O 0.23992 0.53136 0.4485 0.0
O3 O 0.18654 0.48605 0.47861 0.0
O4 O 0.29945 0.4454 0.3722 0.0
O5 O 0.2608 0.42554 0.53621 0.0
O6 O 0.2378 0.38246 0.45216 0.0
C7 C 0.2059 0.53027 0.46976 0.0
C8 C 0.16635 0.41823 0.38579 0.0
O9 O 0.19559 0.42603 0.3581 0.0
O10 O 0.17683 0.42827 0.43679 0.0
C11 C 0.29213 0.40963 0.32887 0.0
O12 O 0.25231 0.38304 0.30807 0.0
C13 C 0.24421 0.38201 0.50209 0.0
Zn14 Zn 0.04104 0.67513 0.75199 0.0
Zn15 Zn 0.06597 0.76488 0.71338 0.0
O16 O 1.02074 0.78644 0.75087 0.0
O17 O 0.98739 0.70702 0.76108 0.0
O18 O 0.09379 0.82354 0.68079 0.0
O19 O 0.09176 0.69909 0.81212 0.0
O20 O 0.11476 0.75643 0.76362 0.0
C21 C 0.9899 0.75664 0.76534 0.0
C22 C 0.06564 0.66909 0.64536 0.0
O23 O 0.04694 0.70593 0.64639 0.0
O24 O 0.06943 0.65022 0.68617 0.0
C25 C 0.07748 0.82172 0.63316 0.0
O26 O 0.03889 0.79052 0.61254 0.0
C27 C 0.12184 0.73314 0.80111 0.0
Zn28 Zn 0.66356 0.9358 0.90516 0.0
Zn29 Zn 0.73949 0.9515 0.89865 0.0
O30 O 0.73715 1.01855 0.95281 0.0
O31 O 0.67552 1.01537 0.90617 0.0
O32 O 0.7972 0.94485 0.87578 0.0
O33 O 0.67311 0.9239 0.97726 0.0
O34 O 0.72136 0.8904 0.94122 0.0
C35 C 0.70452 0.0375 0.94666 0.0
C36 C 0.66792 0.91029 0.81714 0.0
O37 O 0.69938 0.95135 0.82982 0.0
O38 O 0.67074 0.87581 0.84387 0.0
C39 C 0.7929 0.91137 0.83147 0.0
O40 O 0.75412 0.8881 0.80435 0.0
C41 C 0.69777 0.89359 0.97723 0.0
Zn42 Zn 0.54135 0.17527 0.24668 0.0
Zn43 Zn 0.57124 0.26751 0.21636 0.0
O44 O 0.52403 0.28832 0.25131 0.0
O45 O 0.48791 0.20837 0.25651 0.0
O46 O 0.59934 0.32847 0.18725 0.0
O47 O 0.59038 0.19486 0.30873 0.0
O48 O 0.61806 0.25756 0.26813 0.0
C49 C 0.4918 0.25858 0.26333 0.0
C50 C 0.57124 0.17037 0.14299 0.0
O51 O 0.55789 0.21194 0.14651 0.0
O52 O 0.56884 0.14641 0.18061 0.0
C53 C 0.58033 0.32853 0.14145 0.0
O54 O 0.54071 0.29901 0.1241 0.0
C55 C 0.62208 0.2304 0.30309 0.0
Zn56 Zn 0.24449 0.88012 0.09354 0.0
Zn57 Zn 0.20223 0.8854 0.16945 0.0
O58 O 0.18237 0.94532 0.13277 0.0
O59 O 0.21855 0.94441 0.06773 0.0
O60 O 0.16567 0.88356 0.22415 0.0
O61 O 0.21471 0.79597 0.06812 0.0
O62 O 0.17957 0.80293 0.13434 0.0
C63 C 0.19174 0.96345 0.09222 0.0
C64 C 0.29899 0.89473 0.19996 0.0
O65 O 0.26362 0.89907 0.21441 0.0
O66 O 0.30119 0.88884 0.15063 0.0
C67 C 0.12672 0.87233 0.20203 0.0
O68 O 0.11732 0.86932 0.15068 0.0
C69 C 0.18947 0.77339 0.09565 0.0
Zn70 Zn 0.52714 0.80823 0.50636 0.0
Zn71 Zn 0.57889 0.81106 0.43989 0.0
O72 O 0.60535 0.89045 0.48187 0.0
O73 O 0.55844 0.89407 0.53476 0.0
O74 O 0.61665 0.81039 0.38568 0.0
O75 O 0.55188 0.74311 0.53241 0.0
O76 O 0.59574 0.74966 0.47574 0.0
C77 C 0.59034 0.91824 0.51665 0.0
C78 C 0.4789 0.80071 0.401 0.0
O79 O 0.51799 0.80591 0.39453 0.0
O80 O 0.47046 0.79581 0.44664 0.0
C81 C 0.62488 0.85032 0.36456 0.0
O82 O 0.60302 0.88629 0.37253 0.0
C83 C 0.58199 0.72748 0.5122 0.0
Zn84 Zn 0.74334 0.37685 0.59524 0.0
Zn85 Zn 0.70151 0.3855 0.67101 0.0
O86 O 0.68328 0.44505 0.63285 0.0
O87 O 0.71744 0.43951 0.566 0.0
O88 O 0.66553 0.38721 0.72613 0.0
O89 O 0.71212 0.2929 0.57262 0.0
O90 O 0.67597 0.30262 0.63753 0.0
C91 C 0.69175 0.46062 0.59079 0.0
C92 C 0.7987 0.3955 0.70204 0.0
O93 O 0.76304 0.39923 0.71596 0.0
O94 O 0.80085 0.38826 0.6526 0.0
C95 C 0.62672 0.37793 0.70422 0.0
O96 O 0.61744 0.37489 0.65286 0.0
C97 C 0.68555 0.2718 0.59954 0.0
Zn98 Zn 0.03131 0.31373 1.00648 0.0
Zn99 Zn 0.07551 0.30867 0.93181 0.0
O100 O 0.10109 0.39086 0.97147 0.0
O101 O 0.06303 0.3977 0.03468 0.0
O102 O 0.11362 0.30803 0.87763 0.0
O103 O 0.05642 0.24905 0.03283 0.0
O104 O 0.09303 0.24716 0.96811 0.0
C105 C 0.09103 0.42027 1.01026 0.0
C106 C 0.97673 0.29825 0.89918 0.0
O107 O 1.01307 0.29634 0.88582 0.0
O108 O 0.97409 0.30344 0.94841 0.0
C109 C 0.12208 0.34831 0.85703 0.0
O110 O 0.09957 0.38364 0.86418 0.0
C111 C 0.08284 0.22899 1.00844 0.0
Zn112 Zn 0.54215 1.00353 0.42785 0.0
Zn113 Zn 0.50158 0.08439 0.37153 0.0
O114 O 0.54646 0.13457 0.43086 0.0
O115 O 0.52686 0.06836 0.46628 0.0
O116 O 0.45756 0.11705 0.34163 0.0
O117 O 0.5628 1.00289 0.35351 0.0
O118 O 0.5333 0.05921 0.31733 0.0
C119 C 0.55435 0.1104 0.46668 0.0
C120 C 0.45611 0.97192 0.39467 0.0
O121 O 0.46649 1.01553 0.3802 0.0
O122 O 0.48409 0.95478 0.41949 0.0
C123 C 0.43051 0.08776 0.30109 0.0
O124 O 0.43614 0.04184 0.27748 0.0
C125 C 0.55594 1.0257 0.31522 0.0
Zn126 Zn 0.30108 0.28914 0.51756 0.0
Zn127 Zn 0.34534 0.22093 0.51599 0.0
O128 O 0.3682 0.25539 0.45243 0.0
O129 O 0.33026 0.3131 0.4504 0.0
O130 O 0.38387 0.17416 0.52219 0.0
O131 O 0.32684 0.32435 0.5996 0.0
O132 O 0.36378 0.26481 0.59587 0.0
C133 C 0.35778 0.29129 0.43066 0.0
C134 C 0.24788 0.17778 0.51029 0.0
O135 O 0.28394 0.16759 0.50587 0.0
O136 O 0.24537 0.22566 0.51335 0.0
C137 C 0.38393 0.15193 0.56138 0.0
O138 O 0.35368 0.15281 0.59029 0.0
C139 C 0.35234 0.30286 0.62341 0.0
Zn140 Zn 0.22031 0.14915 0.83179 0.0
Zn141 Zn 0.25943 0.06616 0.81452 0.0
O142 O 0.21639 0.06065 0.88463 0.0
O143 O 0.19174 0.13221 0.89782 0.0
O144 O 0.30357 1.00298 0.81351 0.0
O145 O 0.18921 0.12338 0.75277 0.0
O146 O 0.21996 0.05748 0.73279 0.0
C147 C 0.19394 0.08893 0.91139 0.0
C148 C 0.30588 0.19819 0.824 0.0
O149 O 0.30518 0.14757 0.81815 0.0
O150 O 0.27302 0.21245 0.83586 0.0
C151 C 0.30813 0.95934 0.78213 0.0
O152 O 0.2819 0.94111 0.73613 0.0
C153 C 0.1957 0.08679 0.71751 0.0
Zn154 Zn 0.51152 0.93319 0.99516 0.0
Zn155 Zn 0.43751 0.03524 0.99334 0.0
O156 O 0.41884 0.9512 0.95383 0.0
O157 O 0.45362 0.88599 0.95886 0.0
O158 O 0.3874 0.07003 0.99035 0.0
O159 O 0.48851 0.99214 0.0308 0.0
O160 O 0.45186 0.03717 0.07313 0.0
C161 C 0.4212 0.90204 0.94246 0.0
C162 C 0.51592 0.04417 0.96598 0.0
O163 O 0.49262 0.0767 0.96852 0.0
O164 O 0.49761 0.99835 0.97138 0.0
C165 C 0.39259 0.11705 1.0187 0.0
O166 O 0.43144 0.14457 0.04317 0.0
C167 C 0.47567 1.00571 0.07351 0.0
Zn168 Zn 0.48158 0.39476 0.07667 0.0
Zn169 Zn 0.43695 0.46358 0.08314 0.0
O170 O 0.41523 0.4211 1.0033 0.0
O171 O 0.45204 0.36138 0.99599 0.0
O172 O 0.39792 0.51121 0.08083 0.0
O173 O 0.45488 0.36761 0.14319 0.0
O174 O 0.41615 0.4249 0.14536 0.0
C175 C 0.42532 0.38279 0.97439 0.0
C176 C 0.53558 0.5057 0.08605 0.0
O177 O 0.4996 0.51591 0.09185 0.0
O178 O 0.5378 0.45747 0.08097 0.0
C179 C 0.39579 0.53327 0.04154 0.0
O180 O 0.42448 0.53215 1.01033 0.0
C181 C 0.42738 0.38794 0.16465 0.0
Zn182 Zn 0.77544 0.28272 0.11949 0.0
Zn183 Zn 0.84294 0.16968 0.11618 0.0
O184 O 0.83029 0.17342 0.03893 0.0
O185 O 0.79861 0.22441 0.08356 0.0
O186 O 0.88989 0.12876 0.1138 0.0
O187 O 0.83582 0.3212 0.15641 0.0
O188 O 0.86655 0.25174 0.15814 0.0
C189 C 0.81043 0.20922 0.0405 0.0
C190 C 0.76373 0.16797 0.1416 0.0
O191 O 0.78496 0.13298 0.13807 0.0
O192 O 0.78485 0.21414 0.14032 0.0
C193 C 0.88306 0.08541 0.07825 0.0
O194 O 0.84421 0.06415 0.05031 0.0
C195 C 0.86675 0.30169 0.17092 0.0
Zn196 Zn 0.25241 0.70124 0.17191 0.0
Zn197 Zn 0.28655 0.59495 0.23578 0.0
O198 O 0.25139 0.64238 0.27429 0.0
O199 O 0.22721 0.70499 0.24119 0.0
O200 O 0.30774 0.55195 0.28249 0.0
O201 O 0.26181 0.62572 0.15185 0.0
O202 O 0.24381 0.54828 0.17 0.0
C203 C 0.23044 0.6783 0.27713 0.0
C204 C 0.33749 0.67529 0.20271 0.0
O205 O 0.34435 0.63918 0.22506 0.0
O206 O 0.30133 0.66296 0.17208 0.0
C207 C 0.33688 0.5803 0.32134 0.0
O208 O 0.33966 0.63151 0.33681 0.0
C209 C 0.23367 0.58172 0.14523 0.0
Zn210 Zn 0.98022 0.89142 0.57987 0.0
Zn211 Zn 0.93581 0.96038 0.58614 0.0
O212 O 0.91379 0.91836 0.50633 0.0
O213 O 0.95046 0.85842 0.49936 0.0
O214 O 0.89765 1.00901 0.58574 0.0
O215 O 0.95366 0.86444 0.64663 0.0
O216 O 0.9149 0.92165 0.64807 0.0
C217 C 0.92396 0.88001 0.47759 0.0
C218 C 0.03415 1.00188 0.58768 0.0
O219 O 0.99831 1.0122 0.59398 0.0
O220 O 0.03648 0.95374 0.58313 0.0
C221 C 0.8947 1.03125 0.5467 0.0
O222 O 0.92187 1.02883 0.51354 0.0
C223 C 0.92602 0.88484 0.66768 0.0
Zn224 Zn 0.05549 1.03161 0.26881 0.0
Zn225 Zn 1.02057 0.1182 0.29183 0.0
O226 O 0.06104 0.12255 0.37084 0.0
O227 O 0.08829 0.05397 0.34708 0.0
O228 O 0.97995 0.18522 0.29822 0.0
O229 O 0.08369 0.05149 0.20325 0.0
O230 O 0.06373 0.12605 0.2235 0.0
C231 C 0.08405 0.09101 0.38372 0.0
C232 C 0.96995 0.98541 0.2789 0.0
O233 O 0.97249 0.03679 0.28681 0.0
O234 O 1.0016 0.96967 0.26465 0.0
C235 C 0.98645 0.23775 0.31451 0.0
O236 O 1.02617 0.26575 0.33395 0.0
C237 C 0.0841 0.09723 0.19394 0.0
Zn238 Zn 0.28314 0.79575 0.61008 0.0
Zn239 Zn 0.33995 0.67362 0.61477 0.0
O240 O 0.32264 0.6681 0.5351 0.0
O241 O 0.2994 0.72953 0.5784 0.0
O242 O 0.386 0.6302 0.61439 0.0
O243 O 0.34387 0.83063 0.64696 0.0
O244 O 0.36774 0.75665 0.65238 0.0
C245 C 0.30411 0.70491 0.53418 0.0
C246 C 0.26383 0.68537 0.64446 0.0
O247 O 0.28221 0.64749 0.64382 0.0
O248 O 0.28653 0.72746 0.63569 0.0
C249 C 0.38031 0.5872 0.57859 0.0
O250 O 0.34232 0.56641 0.54829 0.0
C251 C 0.37192 0.80772 0.6635 0.0
Zn252 Zn 0.55585 0.53347 0.76884 0.0
Zn253 Zn 0.52019 0.61949 0.78969 0.0
O254 O 0.5613 0.62444 0.86957 0.0
O255 O 0.58899 0.55612 0.84674 0.0
O256 O 0.47914 0.68603 0.7943 0.0
O257 O 0.58374 0.55271 0.70314 0.0
O258 O 0.56185 0.62616 0.71971 0.0
C259 C 0.58466 0.59336 0.88304 0.0
C260 C 0.46956 0.48718 0.77714 0.0
O261 O 0.47185 0.53843 0.78454 0.0
O262 O 0.5017 0.47171 0.76428 0.0
C263 C 0.4858 0.73852 0.81081 0.0
O264 O 0.52536 0.76591 0.83191 0.0
C265 C 0.58304 0.59733 0.69166 0.0
Zn266 Zn 0.73349 0.22322 0.70941 0.0
Zn267 Zn 0.79934 0.09334 0.72432 0.0
O268 O 0.77756 0.11808 0.79425 0.0
O269 O 0.75678 0.17233 0.75086 0.0
O270 O 0.8395 0.05063 0.74167 0.0
O271 O 0.74578 0.14479 0.68874 0.0
O272 O 0.74434 0.06005 0.66694 0.0
C273 C 0.75786 0.1542 0.79287 0.0
C274 C 0.82564 0.19512 0.70495 0.0
O275 O 0.84084 0.15566 0.70648 0.0
O276 O 0.78481 0.18559 0.69935 0.0
C277 C 0.86918 0.08119 0.77906 0.0
O278 O 0.86565 0.12867 0.80152 0.0
C279 C 0.72552 0.09695 0.66397 0.0
Zn280 Zn 0.80507 0.78762 1.02127 0.0
Zn281 Zn 0.84956 0.7184 1.02087 0.0
O282 O 0.87207 0.75361 0.95765 0.0
O283 O 0.83399 0.81128 0.95493 0.0
O284 O 0.88993 0.67329 0.02932 0.0
O285 O 0.82984 0.82333 0.10287 0.0
O286 O 0.86612 0.76305 0.10016 0.0
C287 C 0.86157 0.78938 0.9357 0.0
C288 C 0.75167 0.67627 1.01224 0.0
O289 O 0.78768 0.66532 1.00921 0.0
O290 O 0.74986 0.72437 1.01548 0.0
C291 C 0.89167 0.6529 0.06979 0.0
O292 O 0.86181 0.65353 0.09934 0.0
C293 C 0.85479 0.80151 0.12711 0.0
Zn294 Zn 0.04488 0.51161 0.93408 0.0
Zn295 Zn 1.00424 0.5922 0.87674 0.0
O296 O 0.04791 0.64327 0.93664 0.0
O297 O 1.02897 0.57665 0.97162 0.0
O298 O 0.95947 0.62421 0.84712 0.0
O299 O 0.06702 0.51176 0.86061 0.0
O300 O 0.0373 0.56729 0.82327 0.0
C301 C 0.05667 0.61827 0.97138 0.0
C302 C 0.95913 0.47989 0.90092 0.0
O303 O 0.96964 0.52348 0.88646 0.0
O304 O 0.98712 0.46204 0.92479 0.0
C305 C 0.93162 0.59329 0.80823 0.0
O306 O 0.93723 0.547 0.7861 0.0
C307 C 0.06069 0.53457 0.82217 0.0
Zn308 Zn 1.01215 0.42556 0.50601 0.0
Zn309 Zn 0.94068 0.53085 0.4969 0.0
O310 O 0.92171 0.44645 0.45954 0.0
O311 O 0.95433 0.37965 0.46598 0.0
O312 O 0.89031 0.56566 0.49367 0.0
O313 O 0.98988 0.48654 0.53718 0.0
O314 O 0.95608 0.53737 0.57726 0.0
C315 C 0.92282 0.39682 0.44848 0.0
C316 C 1.02035 0.53784 0.47286 0.0
O317 O 0.99628 0.56939 0.47142 0.0
O318 O 1.00274 0.49293 0.48141 0.0
C319 C 0.89493 0.61123 0.52475 0.0
O320 O 0.93343 0.63778 0.55121 0.0
C321 C 0.97948 0.50577 0.58005 0.0
Zn322 Zn 0.71966 0.64763 0.33141 0.0
Zn323 Zn 0.75821 0.56398 0.31455 0.0
O324 O 0.71423 0.55828 0.38397 0.0
O325 O 0.69003 0.63023 0.39653 0.0
O326 O 0.80256 0.50046 0.31321 0.0
O327 O 0.6889 0.62268 0.25234 0.0
O328 O 0.71932 0.55649 0.23232 0.0
C329 C 0.69154 0.58674 0.4101 0.0
C330 C 0.80582 0.69652 0.32537 0.0
O331 O 0.80474 0.64573 0.31934 0.0
O332 O 0.77285 0.7109 0.33656 0.0
C333 C 0.80119 0.45052 0.28987 0.0
O334 O 0.76606 0.42314 0.25607 0.0
C335 C 0.69535 0.58616 0.217 0.0
Ho336 Ho 0.10103 0.05569 1.01721 0.0
Ho337 Ho 0.17254 0.13484 0.08234 0.0
C338 C 0.1016 0.18457 0.02583 0.0
C339 C 1.02002 1.00754 0.99394 0.0
C340 C 0.98529 1.02585 1.01826 0.0
C341 C 0.99414 0.07714 0.05206 0.0
C342 C 0.96151 0.09565 0.0738 0.0
C343 C 0.91904 0.06341 0.06203 0.0
C344 C 0.9106 1.01123 0.03008 0.0
C345 C 0.94347 0.99241 1.00928 0.0
C346 C 0.16878 0.07364 0.95765 0.0
C347 C 0.17194 1.00707 0.07507 0.0
C348 C 0.25238 0.1872 0.0993 0.0
C349 C 0.28678 0.17143 0.07255 0.0
C350 C 0.28032 0.11873 0.04303 0.0
C351 C 0.31401 0.10173 1.02288 0.0
C352 C 0.35512 0.1371 0.03184 0.0
C353 C 0.36077 0.19085 0.05818 0.0
C354 C 0.32668 0.20791 0.07746 0.0
C355 C 0.11267 0.11677 0.15254 0.0
O356 O 0.08233 0.13304 1.00414 0.0
O357 O 0.13835 0.1969 0.06007 0.0
O358 O 0.03965 0.03723 0.96479 0.0
O359 O 0.04717 0.99353 0.02603 0.0
O360 O 0.14035 1.02804 0.95315 0.0
O361 O 0.15675 0.10702 0.99211 0.0
O362 O 0.19436 0.05796 0.08776 0.0
O363 O 0.13185 0.99524 0.04954 0.0
O364 O 0.23627 0.15633 0.12959 0.0
O365 O 0.22254 0.19944 0.06943 0.0
O366 O 0.15005 0.1519 0.16442 0.0
O367 O 0.10956 0.09531 0.10282 0.0
H368 H 1.02631 0.10327 0.06143 0.0
H369 H 0.96934 0.13594 0.09827 0.0
H370 H 0.87838 0.98497 1.02063 0.0
H371 H 0.93596 0.95188 0.98571 0.0
H372 H 0.24945 0.09016 0.03634 0.0
H373 H 0.30823 0.06025 1.00231 0.0
H374 H 0.3918 0.21953 0.06498 0.0
H375 H 0.33172 0.24923 0.09737 0.0
Ho376 Ho 0.41502 0.8429 0.27119 0.0
Ho377 Ho 0.3541 0.83257 0.31566 0.0
C378 C 0.41889 0.93333 0.36286 0.0
C379 C 0.46848 0.86103 0.20804 0.0
C380 C 0.47403 0.90177 0.17808 0.0
C381 C 0.45049 0.9401 0.18505 0.0
C382 C 0.4531 0.97709 0.15332 0.0
C383 C 0.47885 0.97514 0.11418 0.0
C384 C 0.50368 0.93798 0.10939 0.0
C385 C 0.50136 0.90146 0.1413 0.0
C386 C 0.44978 0.81895 0.3618 0.0
C387 C 0.35441 0.72938 0.23396 0.0
C388 C 0.29262 0.81057 0.36705 0.0
C389 C 0.28894 0.77719 0.40476 0.0
C390 C 0.30933 0.73557 0.40082 0.0
C391 C 0.31175 0.70879 0.44161 0.0
C392 C 0.29476 0.72469 0.48691 0.0
C393 C 0.27314 0.76516 0.48956 0.0
C394 C 0.27038 0.79148 0.4487 0.0
C395 C 0.33434 0.88879 0.2403 0.0
O396 O 0.4161 0.92606 0.3113 0.0
O397 O 0.40156 0.89194 0.37976 0.0
O398 O 0.47814 0.87989 0.25917 0.0
O399 O 0.43187 0.82488 0.1933 0.0
O400 O 0.46767 0.85457 0.3385 0.0
O401 O 0.41054 0.79699 0.33756 0.0
O402 O 0.33045 0.7511 0.26283 0.0
O403 O 0.39356 0.75576 0.23472 0.0
O404 O 0.2915 0.78563 0.31853 0.0
O405 O 0.32395 0.85388 0.38299 0.0
O406 O 0.33314 0.90163 0.29026 0.0
O407 O 0.35089 0.84938 0.23363 0.0
H408 H 0.42906 0.94014 0.21369 0.0
H409 H 0.43348 1.00509 0.15757 0.0
H410 H 0.52453 0.93623 0.08053 0.0
H411 H 0.51999 0.87232 0.13635 0.0
H412 H 0.32487 0.72542 0.36728 0.0
H413 H 0.32895 0.67812 0.4391 0.0
H414 H 0.25946 0.77798 0.52378 0.0
H415 H 0.25513 0.82409 0.45221 0.0
Ho416 Ho 0.67157 0.09152 0.52416 0.0
Ho417 Ho 0.6059 0.09849 0.60034 0.0
C418 C 0.60822 0.97877 0.53243 0.0
C419 C 0.74437 0.10117 0.49271 0.0
C420 C 0.78124 0.07982 0.50345 0.0
C421 C 0.78458 0.05393 0.54547 0.0
C422 C 0.82208 0.03973 0.56065 0.0
C423 C 0.85658 0.05037 0.53332 0.0
C424 C 0.85278 0.07554 0.49053 0.0
C425 C 0.81537 0.09051 0.47594 0.0
C426 C 0.59838 0.11022 0.48217 0.0
C427 C 0.66872 0.21152 0.58932 0.0
C428 C 0.53345 0.08902 0.63255 0.0
C429 C 0.49674 0.10964 0.61938 0.0
C430 C 0.49733 0.14015 0.58084 0.0
C431 C 0.46021 0.15261 0.56106 0.0
C432 C 0.42209 0.13547 0.58025 0.0
C433 C 0.42191 0.10608 0.62 0.0
C434 C 0.45908 0.09278 0.63915 0.0
C435 C 0.6802 0.08638 0.64524 0.0
O436 O 0.64467 1.00174 0.51803 0.0
O437 O 0.58675 1.00857 0.55962 0.0
O438 O 0.70885 0.06736 0.46482 0.0
O439 O 0.73803 0.13275 0.53454 0.0
O440 O 0.62033 0.08474 0.45332 0.0
O441 O 0.61755 0.12574 0.52894 0.0
O442 O 0.6321 0.18867 0.60385 0.0
O443 O 0.69042 0.18141 0.56309 0.0
O444 O 0.56881 0.12403 0.65921 0.0
O445 O 0.53996 0.05587 0.59207 0.0
O446 O 0.65641 0.11094 0.67151 0.0
O447 O 0.66163 0.06603 0.59808 0.0
H448 H 0.75838 0.04557 0.56704 0.0
H449 H 0.82374 1.01983 0.59337 0.0
H450 H 0.8787 0.08381 0.46847 0.0
H451 H 0.81332 0.11108 0.44377 0.0
H452 H 0.52625 0.15303 0.56502 0.0
H453 H 0.46157 0.17606 0.53104 0.0
H454 H 0.39303 0.09283 0.63574 0.0
H455 H 0.45818 0.06842 0.66837 0.0
Ho456 Ho 0.35852 0.37539 0.80303 0.0
Ho457 Ho 0.4149 0.30981 0.79568 0.0
C458 C 0.41001 0.36753 0.91497 0.0
C459 C 0.28906 0.4069 0.80283 0.0
C460 C 0.24593 0.39059 0.81464 0.0
C461 C 0.22657 0.33697 0.81378 0.0
C462 C 0.18524 0.32258 0.82516 0.0
C463 C 0.1629 0.36167 0.83758 0.0
C464 C 0.18238 0.41514 0.83761 0.0
C465 C 0.22354 0.42941 0.82604 0.0
C466 C 0.4306 0.44563 0.78628 0.0
C467 C 0.3655 0.31787 0.68337 0.0
C468 C 0.48591 0.28392 0.79379 0.0
C469 C 0.52244 0.30814 0.77197 0.0
C470 C 0.51641 0.33833 0.73413 0.0
C471 C 0.55105 0.36342 0.71399 0.0
C472 C 0.59217 0.35933 0.73214 0.0
C473 C 0.59856 0.33117 0.77192 0.0
C474 C 0.56361 0.3054 0.79169 0.0
C475 C 0.34385 0.23996 0.81378 0.0
O476 O 0.3788 0.38472 0.89249 0.0
O477 O 0.43047 0.33984 0.88503 0.0
O478 O 0.32077 0.4226 0.84335 0.0
O479 O 0.29718 0.3761 0.76188 0.0
O480 O 0.39586 0.45724 0.79646 0.0
O481 O 0.42723 0.39639 0.789 0.0
O482 O 0.39679 0.30158 0.70656 0.0
O483 O 0.34356 0.34382 0.71297 0.0
O484 O 0.45113 0.25887 0.75867 0.0
O485 O 0.47879 0.31592 0.83463 0.0
O486 O 0.37867 0.22857 0.80361 0.0
O487 O 0.3463 0.28901 0.81078 0.0
H488 H 0.24354 0.30649 0.80487 0.0
H489 H 0.17116 0.28116 0.82538 0.0
H490 H 0.16672 0.44645 0.84885 0.0
H491 H 0.23818 0.47097 0.82686 0.0
H492 H 0.48484 0.3422 0.71986 0.0
H493 H 0.54558 0.38519 0.68351 0.0
H494 H 0.63013 0.3272 0.78604 0.0
H495 H 0.5686 0.28321 0.82191 0.0
Ho496 Ho 0.12967 0.13486 0.57114 0.0
Ho497 Ho 0.15503 0.04351 0.5278 0.0
C498 C 0.10389 0.0917 0.44101 0.0
C499 C 0.13114 0.2339 0.5906 0.0
C500 C 0.15867 0.2732 0.5674 0.0
C501 C 0.15258 0.26934 0.51198 0.0
C502 C 0.18259 0.3014 0.48956 0.0
C503 C 0.21938 0.33782 0.52206 0.0
C504 C 0.22599 0.34038 0.57722 0.0
C505 C 0.19586 0.30887 0.59961 0.0
C506 C 0.07273 0.04599 0.58559 0.0
C507 C 0.17764 0.0856 0.65912 0.0
C508 C 0.16363 0.94781 0.50548 0.0
C509 C 0.14977 0.90636 0.53498 0.0
C510 C 0.1654 0.91597 0.5899 0.0
C511 C 0.14241 0.88753 0.62176 0.0
C512 C 0.1035 0.84906 0.59923 0.0
C513 C 0.09009 0.83586 0.54366 0.0
C514 C 0.11327 0.86402 0.51173 0.0
C515 C 0.20941 0.13397 0.51247 0.0
O516 O 0.10723 0.13166 0.48215 0.0
O517 O 0.11772 0.04997 0.44964 0.0
O518 O 0.09951 0.19756 0.55784 0.0
O519 O 0.1523 0.21353 0.62363 0.0
O520 O 0.08094 0.09392 0.61518 0.0
O521 O 0.09067 0.04923 0.54492 0.0
O522 O 0.17452 0.0455 0.61789 0.0
O523 O 0.16479 0.12767 0.64991 0.0
O524 O 0.19541 0.989 0.5305 0.0
O525 O 0.13197 0.96215 0.48157 0.0
O526 O 0.19926 0.08727 0.48039 0.0
O527 O 0.19353 0.12871 0.55412 0.0
H528 H 0.1247 0.24148 0.48572 0.0
H529 H 0.17597 0.29929 0.44719 0.0
H530 H 0.25369 0.36853 0.60362 0.0
H531 H 0.20196 0.3119 0.64221 0.0
H532 H 0.19374 0.94794 0.60908 0.0
H533 H 0.15413 0.89744 0.66431 0.0
H534 H 0.06094 0.80501 0.52494 0.0
H535 H 0.10073 0.85562 0.46945 0.0
Ho536 Ho 0.43436 0.89811 0.80686 0.0
Ho537 Ho 0.36104 0.80335 0.79955 0.0
C538 C 0.45193 0.77297 0.80717 0.0
C539 C 0.50904 0.96484 0.82941 0.0
C540 C 0.55 0.95182 0.82324 0.0
C541 C 0.55623 0.90454 0.83557 0.0
C542 C 0.59145 0.88688 0.82418 0.0
C543 C 0.62473 0.9194 0.80632 0.0
C544 C 0.61869 0.96682 0.79292 0.0
C545 C 0.58095 0.98233 0.80029 0.0
C546 C 0.40358 0.83922 0.70828 0.0
C547 C 0.34073 0.92504 0.79423 0.0
C548 C 0.2898 0.7309 0.78367 0.0
C549 C 0.2488 0.7321 0.80012 0.0
C550 C 0.23911 0.78122 0.8158 0.0
C551 C 0.19797 0.78217 0.82431 0.0
C552 C 0.16643 0.73402 0.81797 0.0
C553 C 0.17769 0.6852 0.8086 0.0
C554 C 0.21876 0.68426 0.79917 0.0
C555 C 0.39144 0.86633 0.89776 0.0
O556 O 0.46568 0.82717 0.82056 0.0
O557 O 0.40998 0.75192 0.79042 0.0
O558 O 0.48284 0.95746 0.78462 0.0
O559 O 0.48956 0.94545 0.86545 0.0
O560 O 0.41435 0.89111 0.71959 0.0
O561 O 0.40907 0.82208 0.74957 0.0
O562 O 0.32718 0.87073 0.78132 0.0
O563 O 0.38295 0.94706 0.81078 0.0
O564 O 0.32116 0.7371 0.82279 0.0
O565 O 0.30077 0.7596 0.74914 0.0
O566 O 0.38299 0.81474 0.88817 0.0
O567 O 0.38531 0.88051 0.85523 0.0
H568 H 0.5347 0.8816 0.85594 0.0
H569 H 0.59459 0.85027 0.83534 0.0
H570 H 0.64383 0.99301 0.77939 0.0
H571 H 0.57655 1.0187 0.78967 0.0
H572 H 0.26246 0.81863 0.81823 0.0
H573 H 0.18972 0.82011 0.83088 0.0
H574 H 0.15358 0.64752 0.80254 0.0
H575 H 0.22624 0.64613 0.78813 0.0
Ho576 Ho 0.64133 0.06185 0.07342 0.0
Ho577 Ho 0.64389 0.15116 1.02196 0.0
C578 C 0.56123 0.06228 0.98753 0.0
C579 C 0.62472 0.98622 0.12369 0.0
C580 C 0.60395 0.98995 0.17033 0.0
C581 C 0.58174 1.02927 0.17907 0.0
C582 C 0.56607 0.04002 0.22587 0.0
C583 C 0.57298 1.01244 0.26585 0.0
C584 C 0.59491 0.97231 0.25706 0.0
C585 C 0.61064 0.9613 0.20942 0.0
C586 C 0.68987 0.06139 0.9945 0.0
C587 C 0.71893 0.15326 0.11719 0.0
C588 C 0.66772 0.21556 0.96191 0.0
C589 C 0.69227 0.20353 0.91942 0.0
C590 C 0.71643 0.16632 0.92266 0.0
C591 C 0.7372 0.14999 0.88135 0.0
C592 C 0.73456 0.17089 0.83571 0.0
C593 C 0.7094 0.20729 0.83165 0.0
C594 C 0.6883 0.22346 0.87328 0.0
C595 C 0.59326 0.15512 0.09797 0.0
O596 O 0.57408 0.04793 0.03147 0.0
O597 O 0.58706 0.09587 0.96775 0.0
O598 O 0.66198 1.02061 0.13206 0.0
O599 O 0.60102 0.98597 0.07911 0.0
O600 O 0.6989 0.04776 0.0386 0.0
O601 O 0.65386 0.07153 0.99321 0.0
O602 O 0.70946 0.16539 0.07087 0.0
O603 O 0.69061 0.12081 0.13505 0.0
O604 O 0.6875 0.22236 1.01074 0.0
O605 O 0.62942 0.18345 0.95328 0.0
O606 O 0.59036 0.17631 0.0572 0.0
O607 O 0.62797 0.1407 0.10183 0.0
H608 H 0.57668 0.05194 0.14936 0.0
H609 H 0.54865 0.07038 0.23071 0.0
H610 H 0.60003 0.9498 0.28687 0.0
H611 H 0.6286 0.93151 0.2036 0.0
H612 H 0.71978 0.15039 0.95781 0.0
H613 H 0.75597 0.12166 0.8857 0.0
H614 H 0.70615 0.22344 0.79652 0.0
H615 H 0.66883 0.25113 0.86936 0.0
Ho616 Ho 0.42793 0.38485 0.33629 0.0
Ho617 Ho 0.35899 0.28834 0.25616 0.0
C618 C 0.32677 0.38732 0.31056 0.0
C619 C 0.47007 0.48287 0.36511 0.0
C620 C 0.44776 0.52301 0.35307 0.0
C621 C 0.426 0.51504 0.30066 0.0
C622 C 0.38991 0.53359 0.29099 0.0
C623 C 0.37551 0.56208 0.33313 0.0
C624 C 0.39998 0.57588 0.38463 0.0
C625 C 0.43582 0.55608 0.39464 0.0
C626 C 0.38609 0.31794 0.3948 0.0
C627 C 0.45863 0.28371 0.28241 0.0
C628 C 0.31307 0.19199 0.22527 0.0
C629 C 0.32772 0.14959 0.24553 0.0
C630 C 0.3437 0.15955 0.30042 0.0
C631 C 0.37608 0.13764 0.31855 0.0
C632 C 0.39219 0.10411 0.28243 0.0
C633 C 0.37231 0.08821 0.22859 0.0
C634 C 0.3403 0.11107 0.21013 0.0
C635 C 0.39983 0.35828 0.19915 0.0
O636 O 0.36719 0.41325 0.33144 0.0
O637 O 0.31525 0.33881 0.27904 0.0
O638 O 0.45387 0.45654 0.39869 0.0
O639 O 0.47714 0.45077 0.32404 0.0
O640 O 0.4196 0.35833 0.41406 0.0
O641 O 0.38069 0.31248 0.34397 0.0
O642 O 0.41778 0.25672 0.26757 0.0
O643 O 0.47114 0.33442 0.30911 0.0
O644 O 0.33837 0.21441 0.19607 0.0
O645 O 0.30238 0.22743 0.26012 0.0
O646 O 0.36777 0.31655 0.17906 0.0
O647 O 0.40502 0.36154 0.24942 0.0
H648 H 0.43418 0.49008 0.26738 0.0
H649 H 0.37269 0.52455 0.25045 0.0
H650 H 0.39013 0.59949 0.41739 0.0
H651 H 0.45197 0.56299 0.43531 0.0
H652 H 0.33477 0.18889 0.32899 0.0
H653 H 0.38999 0.14914 0.36057 0.0
H654 H 0.38375 0.0615 0.20016 0.0
H655 H 0.32886 0.10314 0.16762 0.0
Ho656 Ho 0.63229 0.63848 0.07107 0.0
Ho657 Ho 0.65573 0.54425 0.02672 0.0
C658 C 0.60493 0.59446 0.94055 0.0
C659 C 0.63518 0.73875 0.09437 0.0
C660 C 0.65451 0.77947 0.06692 0.0
C661 C 0.66976 0.76379 1.01972 0.0
C662 C 0.68815 0.80171 0.99266 0.0
C663 C 0.69101 0.85586 1.01223 0.0
C664 C 0.67766 0.87178 0.06099 0.0
C665 C 0.65967 0.83382 0.08828 0.0
C666 C 0.57441 0.54983 0.08463 0.0
C667 C 0.67761 0.58562 0.1586 0.0
C668 C 0.66148 0.44737 1.00458 0.0
C669 C 0.6479 0.40731 0.03571 0.0
C670 C 0.6665 0.41683 0.08971 0.0
C671 C 0.6449 0.39046 0.12403 0.0
C672 C 0.60443 0.35421 0.10493 0.0
C673 C 0.58772 0.34107 0.05009 0.0
C674 C 0.6095 0.36708 1.01568 0.0
C675 C 0.71224 0.63333 1.01299 0.0
O676 O 0.60817 0.63433 0.98192 0.0
O677 O 0.61919 0.55283 0.94885 0.0
O678 O 0.60109 0.70211 0.06695 0.0
O679 O 0.6628 0.71834 0.11823 0.0
O680 O 0.5835 0.59746 0.11529 0.0
O681 O 0.59245 0.55349 0.04411 0.0
O682 O 0.67538 0.54627 0.11692 0.0
O683 O 0.66437 0.62772 0.15006 0.0
O684 O 0.69448 0.48778 0.02766 0.0
O685 O 0.62989 0.46268 0.98177 0.0
O686 O 0.70164 0.58683 0.98045 0.0
O687 O 0.69535 0.62852 0.05402 0.0
H688 H 0.66672 0.72198 1.00319 0.0
H689 H 0.69747 0.78831 0.95486 0.0
H690 H 0.67936 0.91348 0.07673 0.0
H691 H 0.64885 0.84674 0.12516 0.0
H692 H 0.69629 0.44726 0.10644 0.0
H693 H 0.65907 0.40022 0.16588 0.0
H694 H 0.55721 0.31184 0.0339 0.0
H695 H 0.59463 0.35877 0.97417 0.0
Ho696 Ho 0.93043 0.39419 0.31199 0.0
Ho697 Ho 0.85951 0.29797 0.3067 0.0
C698 C 0.95196 0.2714 0.31233 0.0
C699 C 1.00433 0.46066 0.3392 0.0
C700 C 0.04532 0.44672 0.34839 0.0
C701 C 0.05174 0.41482 0.38473 0.0
C702 C 0.08988 0.40014 0.39253 0.0
C703 C 0.12237 0.41702 0.36425 0.0
C704 C 0.11504 0.44594 0.32541 0.0
C705 C 0.07674 0.46091 0.31771 0.0
C706 C 0.89853 0.33497 0.21452 0.0
C707 C 0.83627 0.4185 0.29917 0.0
C708 C 0.7895 0.2237 0.29204 0.0
C709 C 0.74835 0.22509 0.30783 0.0
C710 C 0.73979 0.27453 0.3258 0.0
C711 C 0.6985 0.27645 0.33267 0.0
C712 C 0.66567 0.22888 0.32233 0.0
C713 C 0.67566 0.17931 0.31122 0.0
C714 C 0.71692 0.17746 0.30336 0.0
C715 C 0.89177 0.36094 0.40462 0.0
O716 O 0.96485 0.32575 0.32592 0.0
O717 O 0.91005 0.24917 0.2963 0.0
O718 O 0.98406 0.44614 0.2898 0.0
O719 O 0.97894 0.45026 0.37323 0.0
O720 O 0.90775 0.38696 0.22533 0.0
O721 O 0.90597 0.31812 0.25557 0.0
O722 O 0.8237 0.36416 0.28972 0.0
O723 O 0.87842 0.44203 0.31263 0.0
O724 O 0.82086 0.23224 0.33183 0.0
O725 O 0.80003 0.25072 0.25604 0.0
O726 O 0.88403 0.30938 0.39469 0.0
O727 O 0.88337 0.37505 0.36242 0.0
H728 H 1.02767 0.40182 0.40802 0.0
H729 H 0.09498 0.37823 0.423 0.0
H730 H 0.14 0.46035 0.30378 0.0
H731 H 0.07201 0.48441 0.28863 0.0
H732 H 0.76424 0.31165 0.33112 0.0
H733 H 0.69132 0.31501 0.3408 0.0
H734 H 0.65062 0.14209 0.30228 0.0
H735 H 0.72351 0.13903 0.2906 0.0
Ho736 Ho 0.14761 0.57584 0.58295 0.0
Ho737 Ho 0.1409 0.65609 0.52657 0.0
C738 C 0.06585 0.55826 0.49323 0.0
C739 C 0.13815 0.50192 0.63621 0.0
C740 C 0.11625 0.50429 0.68206 0.0
C741 C 0.09139 0.54087 0.68856 0.0
C742 C 0.07323 0.54975 0.73372 0.0
C743 C 0.08013 0.523 0.77434 0.0
C744 C 0.10473 0.48556 0.76779 0.0
C745 C 0.12309 0.4765 0.72187 0.0
C746 C 0.19733 0.57595 0.50377 0.0
C747 C 0.21802 0.67429 0.62586 0.0
C748 C 0.15574 0.72204 0.4651 0.0
C749 C 0.17349 0.7116 0.41611 0.0
C750 C 0.19155 0.66812 0.4066 0.0
C751 C 0.20912 0.6568 0.36104 0.0
C752 C 0.20893 0.68872 0.32358 0.0
C753 C 0.18912 0.73113 0.33199 0.0
C754 C 0.17154 0.74255 0.37811 0.0
C755 C 0.08936 0.65677 0.60169 0.0
O756 O 0.07954 0.55093 0.54039 0.0
O757 O 0.09039 0.59112 0.47132 0.0
O758 O 0.1731 0.54023 0.64396 0.0
O759 O 0.11397 0.497 0.59053 0.0
O760 O 0.20966 0.57753 0.55308 0.0
O761 O 0.15912 0.57996 0.50068 0.0
O762 O 0.20665 0.68316 0.57838 0.0
O763 O 0.19148 0.6407 0.64471 0.0
O764 O 0.18152 0.72585 0.50914 0.0
O765 O 0.11802 0.69076 0.46306 0.0
O766 O 0.08287 0.67235 0.55805 0.0
O767 O 0.12656 0.64943 0.60782 0.0
H768 H 0.08583 0.56236 0.658 0.0
H769 H 0.05354 0.57761 0.73668 0.0
H770 H 0.10973 0.46355 0.79801 0.0
H771 H 0.14284 0.44864 0.71781 0.0
H772 H 0.19274 0.64332 0.43508 0.0
H773 H 0.22359 0.62354 0.35582 0.0
H774 H 0.1881 0.75625 0.30367 0.0
H775 H 0.15704 0.77573 0.3844 0.0
Ho776 Ho 0.85906 0.87409 0.30582 0.0
Ho777 Ho 0.9162 0.80846 0.29933 0.0
C778 C 0.90931 0.86513 0.41813 0.0
C779 C 0.78958 0.90565 0.30422 0.0
C780 C 0.7467 0.88993 0.31674 0.0
C781 C 0.7295 0.83799 0.32276 0.0
C782 C 0.68867 0.8241 0.33553 0.0
C783 C 0.66469 0.86212 0.34268 0.0
C784 C 0.68173 0.91365 0.33503 0.0
C785 C 0.72248 0.92739 0.32209 0.0
C786 C 0.9312 0.94405 0.28881 0.0
C787 C 0.86741 0.81657 0.1869 0.0
C788 C 0.98762 0.78329 0.29782 0.0
C789 C 1.02363 0.80582 0.27408 0.0
C790 C 1.0168 0.83319 0.23393 0.0
C791 C 0.05092 0.85665 0.21191 0.0
C792 C 0.09238 0.85385 0.23043 0.0
C793 C 0.09955 0.82823 0.27214 0.0
C794 C 0.06512 0.80405 0.29382 0.0
C795 C 0.8444 0.73845 0.31625 0.0
O796 O 0.87842 0.88259 0.39526 0.0
O797 O 0.93025 0.8377 0.38867 0.0
O798 O 0.82146 0.92249 0.34458 0.0
O799 O 0.79746 0.87336 0.2642 0.0
O800 O 0.89651 0.9558 0.29898 0.0
O801 O 0.92777 0.89489 0.29202 0.0
O802 O 0.89853 0.80027 0.21038 0.0
O803 O 0.84512 0.84247 0.21594 0.0
O804 O 0.95249 0.7567 0.26392 0.0
O805 O 0.98085 0.81703 0.33759 0.0
O806 O 0.87954 0.72717 0.30716 0.0
O807 O 0.84725 0.78759 0.31312 0.0
H808 H 0.74787 0.80855 0.31833 0.0
H809 H 0.67644 0.78412 0.34133 0.0
H810 H 0.66443 0.94407 0.34111 0.0
H811 H 0.73542 0.96759 0.31722 0.0
H812 H 0.98504 0.83627 0.21944 0.0
H813 H 0.0448 0.87649 0.17999 0.0
H814 H 0.13138 0.82529 0.28664 0.0
H815 H 0.07077 0.78395 0.32565 0.0
Ho816 Ho 0.91695 0.3503 0.77836 0.0
Ho817 Ho 0.85573 0.3432 0.82428 0.0
C818 C 0.92101 0.44223 0.8705 0.0
C819 C 0.98222 0.38456 0.7359 0.0
C820 C 0.98739 0.42211 0.70206 0.0
C821 C 0.96131 0.45757 0.70291 0.0
C822 C 0.96125 0.48861 0.66554 0.0
C823 C 0.98608 0.48265 0.62582 0.0
C824 C 1.01304 0.44806 0.62603 0.0
C825 C 1.01385 0.41802 0.66428 0.0
C826 C 0.93974 0.30001 0.85757 0.0
C827 C 0.85086 0.24598 0.73646 0.0
C828 C 0.79439 0.31765 0.87413 0.0
C829 C 0.79715 0.28939 0.9161 0.0
C830 C 0.82318 0.25366 0.91458 0.0
C831 C 0.82726 0.22705 0.95502 0.0
C832 C 0.80624 0.23703 0.99796 0.0
C833 C 0.78229 0.2752 1.00085 0.0
C834 C 0.77762 0.30122 0.95983 0.0
C835 C 0.83484 0.393 0.7436 0.0
O836 O 0.91765 0.43356 0.81882 0.0
O837 O 0.90337 0.40173 0.88849 0.0
O838 O 0.97883 0.40491 0.78431 0.0
O839 O 0.95307 0.33996 0.7147 0.0
O840 O 0.94071 0.28508 0.80769 0.0
O841 O 0.92085 0.33755 0.86247 0.0
O842 O 0.84772 0.25812 0.78644 0.0
O843 O 0.87416 0.28184 0.7167 0.0
O844 O 0.79564 0.28991 0.82743 0.0
O845 O 0.82022 0.36558 0.88581 0.0
O846 O 0.83362 0.40876 0.7933 0.0
O847 O 0.85218 0.35418 0.73958 0.0
H848 H 0.93925 0.45891 0.73058 0.0
H849 H 0.9397 0.5143 0.6656 0.0
H850 H 0.03297 0.44335 0.59618 0.0
H851 H 0.03371 0.39023 0.66307 0.0
H852 H 0.84015 0.24588 0.88196 0.0
H853 H 0.84677 0.19885 0.95261 0.0
H854 H 0.7663 0.28434 0.03393 0.0
H855 H 0.75865 0.33005 0.962 0.0
Ho856 Ho 0.9281 0.8835 0.84016 0.0
Ho857 Ho 0.85854 0.78723 0.76161 0.0
C858 C 0.82793 0.88807 0.81624 0.0
C859 C 0.97881 0.97746 0.86563 0.0
C860 C 0.96943 1.01912 0.83966 0.0
C861 C 0.95185 1.0036 0.78496 0.0
C862 C 0.92011 1.02526 0.76445 0.0
C863 C 0.90701 0.06432 0.7979 0.0
C864 C 0.92959 0.08609 0.85029 0.0
C865 C 0.96073 0.0635 0.87116 0.0
C866 C 0.88943 0.81557 0.89956 0.0
C867 C 0.95699 0.78117 0.78514 0.0
C868 C 0.81094 0.69177 0.73247 0.0
C869 C 0.82546 0.64965 0.75344 0.0
C870 C 0.84229 0.66099 0.80825 0.0
C871 C 0.87597 0.64105 0.82623 0.0
C872 C 0.89228 0.6078 0.79013 0.0
C873 C 0.87135 0.58992 0.73675 0.0
C874 C 0.83811 0.61093 0.71839 0.0
C875 C 0.8987 0.85614 0.703 0.0
O876 O 0.86856 0.91455 0.83551 0.0
O877 O 0.81612 0.83895 0.78601 0.0
O878 O 0.94991 0.9611 0.89357 0.0
O879 O 0.98853 0.93755 0.83576 0.0
O880 O 0.92235 0.85678 0.91827 0.0
O881 O 0.8827 0.81054 0.84893 0.0
O882 O 0.91625 0.754 0.77171 0.0
O883 O 0.96959 0.83208 0.81045 0.0
O884 O 0.83603 0.71291 0.70235 0.0
O885 O 0.80114 0.72831 0.76707 0.0
O886 O 0.86658 0.81429 0.68376 0.0
O887 O 0.90448 0.86019 0.75339 0.0
H888 H 0.95852 0.97007 0.75947 0.0
H889 H 0.90424 1.00941 0.72333 0.0
H890 H 0.92067 0.11733 0.87651 0.0
H891 H 0.97367 0.07602 0.91346 0.0
H892 H 0.83317 0.69031 0.8366 0.0
H893 H 0.89064 0.65385 0.86799 0.0
H894 H 0.88288 0.56321 0.70842 0.0
H895 H 0.82595 0.60181 0.67596 0.0
Ho896 Ho 0.60168 0.55553 0.52154 0.0
Ho897 Ho 0.67142 0.6316 0.58055 0.0
C898 C 0.60118 0.68363 0.52977 0.0
C899 C 0.51994 0.50836 0.50151 0.0
C900 C 0.48474 0.52672 0.52514 0.0
C901 C 0.49308 0.57736 0.56011 0.0
C902 C 0.45969 0.59615 0.57977 0.0
C903 C 0.41692 0.5648 0.56488 0.0
C904 C 0.40896 0.51305 0.5321 0.0
C905 C 0.44249 0.49399 0.51334 0.0
C906 C 0.6662 0.57236 0.45659 0.0
C907 C 0.67225 0.50386 0.57257 0.0
C908 C 0.75265 0.68024 0.60284 0.0
C909 C 0.78812 0.66356 0.57898 0.0
C910 C 0.78199 0.61125 0.54857 0.0
C911 C 0.81605 0.59481 0.5286 0.0
C912 C 0.85715 0.63041 0.53841 0.0
C913 C 0.86254 0.68367 0.56599 0.0
C914 C 0.82816 0.70015 0.58503 0.0
C915 C 0.6076 0.61285 0.64536 0.0
O916 O 0.57949 0.63237 0.5151 0.0
O917 O 0.64082 0.69541 0.55636 0.0
O918 O 0.53906 0.5365 0.47087 0.0
O919 O 0.54763 0.49602 0.53423 0.0
O920 O 0.63866 0.5267 0.45467 0.0
O921 O 0.65476 0.60636 0.49083 0.0
O922 O 0.69343 0.55521 0.58831 0.0
O923 O 0.63284 0.49167 0.54495 0.0
O924 O 0.73354 0.65032 0.63202 0.0
O925 O 0.7251 0.6933 0.57064 0.0
O926 O 0.63393 0.65924 0.64709 0.0
O927 O 0.61931 0.5796 0.61092 0.0
H928 H 0.52542 0.60286 0.57194 0.0
H929 H 0.46725 0.63601 0.60508 0.0
H930 H 0.37657 0.48734 0.52026 0.0
H931 H 0.43508 0.45383 0.48893 0.0
H932 H 0.75099 0.58276 0.54023 0.0
H933 H 0.81046 0.55369 0.50706 0.0
H934 H 0.89354 0.71256 0.57351 0.0
H935 H 0.83299 0.74134 0.60522 0.0
Ho936 Ho 0.1741 0.59311 1.01481 0.0
Ho937 Ho 0.11377 0.59998 0.10071 0.0
C938 C 0.11002 0.4807 0.02493 0.0
C939 C 0.24594 0.60149 0.98126 0.0
C940 C 0.28217 0.57884 0.99141 0.0
C941 C 0.28275 0.54784 0.02953 0.0
C942 C 0.32011 0.53425 0.04682 0.0
C943 C 0.35725 0.55061 0.02546 0.0
C944 C 0.35611 0.58027 0.98598 0.0
C945 C 0.31883 0.59472 0.96942 0.0
C946 C 0.10045 0.61551 0.98259 0.0
C947 C 0.17384 0.71305 0.08507 0.0
C948 C 0.04346 0.59215 0.13802 0.0
C949 C 1.00658 0.61337 0.12669 0.0
C950 C 1.00641 0.64486 0.08901 0.0
C951 C 0.96875 0.6567 0.06977 0.0
C952 C 0.93077 0.638 0.08867 0.0
C953 C 0.93143 0.60805 0.12794 0.0
C954 C 0.96909 0.59532 0.14644 0.0
C955 C 0.18906 0.58158 0.13348 0.0
O956 O 0.1444 0.50305 1.00593 0.0
O957 O 0.09192 0.51074 0.05755 0.0
O958 O 0.20979 0.56871 0.95362 0.0
O959 O 0.24062 0.63324 1.02371 0.0
O960 O 0.12115 0.59317 0.94899 0.0
O961 O 0.12156 0.62723 0.02837 0.0
O962 O 0.13983 0.68995 0.10435 0.0
O963 O 0.19337 0.68336 0.0542 0.0
O964 O 0.07971 0.62666 0.16288 0.0
O965 O 0.04822 0.55817 0.09694 0.0
O966 O 0.16864 0.60558 0.16611 0.0
O967 O 0.16689 0.5657 0.08792 0.0
H968 H 0.25463 0.53548 0.04695 0.0
H969 H 0.31971 0.51058 0.07663 0.0
H970 H 0.38414 0.59294 0.96847 0.0
H971 H 0.31897 0.61939 0.94051 0.0
H972 H 0.03513 0.65877 0.0732 0.0
H973 H 0.96949 0.68068 0.04024 0.0
H974 H 0.90271 0.59362 0.14354 0.0
H975 H 0.96865 0.57019 0.17493 0.0
loop_
_geom_bond_atom_site_label_1
_geom_bond_atom_site_label_2
_geom_bond_distance
_geom_bond_site_symmetry_2
_ccdc_geom_bond_type
Zn0 O3 2.031 . S
Zn0 O5 2.049 . S
Zn0 O10 2.067 . S
Zn1 O2 1.962 . S
Zn1 O4 1.986 . S
Zn1 O6 1.996 . S
Zn1 O9 1.943 . S
O2 Zn1 1.962 . S
O2 C7 1.254 . S
O3 Zn0 2.031 . S
O3 C7 1.269 . S
O4 Zn1 1.986 . S
O4 C11 1.262 . S
O5 Zn0 2.049 . S
O5 C13 1.260 . S
O6 Zn1 1.996 . S
O6 C13 1.257 . S
C7 O2 1.254 . S
C7 O3 1.269 . S
C8 O9 1.249 . S
C8 O10 1.270 . S
O9 Zn1 1.943 . S
O9 C8 1.249 . S
O10 Zn0 2.067 . S
O10 C8 1.270 . S
C11 O4 1.262 . S
C11 O12 1.232 . S
O12 C11 1.232 . S
C13 O5 1.260 . S
C13 O6 1.257 . S
Zn14 O17 2.031 1_455 S
Zn14 O19 2.049 . S
Zn14 O24 2.067 1_455 S
Zn15 O16 1.962 1_455 S
Zn15 O18 1.986 . S
Zn15 O20 1.996 . S
Zn15 O23 1.943 1_455 S
O16 Zn15 1.962 1_655 S
O16 C21 1.254 . S
O17 Zn14 2.031 1_655 S
O17 C21 1.269 . S
O18 Zn15 1.986 . S
O18 C25 1.262 . S
O19 Zn14 2.049 . S
O19 C27 1.260 . S
O20 Zn15 1.996 . S
O20 C27 1.257 . S
C21 O16 1.254 . S
C21 O17 1.269 . S
C22 O23 1.249 . S
C22 O24 1.270 . S
O23 Zn15 1.943 1_655 S
O23 C22 1.249 . S
O24 Zn14 2.067 1_655 S
O24 C22 1.270 . S
C25 O18 1.262 . S
C25 O26 1.232 1_455 S
O26 C25 1.232 1_655 S
C27 O19 1.260 . S
C27 O20 1.257 . S
Zn28 O31 2.031 1_565 S
Zn28 O33 2.049 . S
Zn28 O38 2.067 . S
Zn29 O30 1.962 1_565 S
Zn29 O32 1.986 . S
Zn29 O34 1.996 . S
Zn29 O37 1.943 . S
O30 Zn29 1.962 1_545 S
O30 C35 1.254 . S
O31 Zn28 2.031 1_545 S
O31 C35 1.269 . S
O32 Zn29 1.986 . S
O32 C39 1.262 . S
O33 Zn28 2.049 . S
O33 C41 1.260 . S
O34 Zn29 1.996 . S
O34 C41 1.257 . S
C35 O30 1.254 . S
C35 O31 1.269 . S
C36 O37 1.249 . S
C36 O38 1.270 . S
O37 Zn29 1.943 . S
O37 C36 1.249 . S
O38 Zn28 2.067 . S
O38 C36 1.270 . S
C39 O32 1.262 . S
C39 O40 1.232 . S
O40 C39 1.232 . S
C41 O33 1.260 . S
C41 O34 1.257 . S
Zn42 O45 2.031 . S
Zn42 O47 2.049 . S
Zn42 O52 2.067 . S
Zn43 O44 1.962 . S
Zn43 O46 1.986 . S
Zn43 O48 1.996 . S
Zn43 O51 1.943 . S
O44 Zn43 1.962 . S
O44 C49 1.254 . S
O45 Zn42 2.031 . S
O45 C49 1.269 . S
O46 Zn43 1.986 . S
O46 C53 1.262 . S
O47 Zn42 2.049 . S
O47 C55 1.260 . S
O48 Zn43 1.996 . S
O48 C55 1.257 . S
C49 O44 1.254 . S
C49 O45 1.269 . S
C50 O51 1.249 . S
C50 O52 1.270 . S
O51 Zn43 1.943 . S
O51 C50 1.249 . S
O52 Zn42 2.067 . S
O52 C50 1.270 . S
C53 O46 1.262 . S
C53 O54 1.232 . S
O54 C53 1.232 . S
C55 O47 1.260 . S
C55 O48 1.257 . S
Zn56 O59 2.031 . S
Zn56 O61 2.049 . S
Zn56 O66 2.067 . S
Zn57 O58 1.962 . S
Zn57 O60 1.986 . S
Zn57 O62 1.996 . S
Zn57 O65 1.943 . S
O58 Zn57 1.962 . S
O58 C63 1.254 . S
O59 Zn56 2.031 . S
O59 C63 1.269 . S
O60 Zn57 1.986 . S
O60 C67 1.262 . S
O61 Zn56 2.049 . S
O61 C69 1.260 . S
O62 Zn57 1.996 . S
O62 C69 1.257 . S
C63 O58 1.254 . S
C63 O59 1.269 . S
C64 O65 1.249 . S
C64 O66 1.270 . S
O65 Zn57 1.943 . S
O65 C64 1.249 . S
O66 Zn56 2.067 . S
O66 C64 1.270 . S
C67 O60 1.262 . S
C67 O68 1.232 . S
O68 C67 1.232 . S
C69 O61 1.260 . S
C69 O62 1.257 . S
Zn70 O73 2.031 . S
Zn70 O75 2.049 . S
Zn70 O80 2.067 . S
Zn71 O72 1.962 . S
Zn71 O74 1.986 . S
Zn71 O76 1.996 . S
Zn71 O79 1.943 . S
O72 Zn71 1.962 . S
O72 C77 1.254 . S
O73 Zn70 2.031 . S
O73 C77 1.269 . S
O74 Zn71 1.986 . S
O74 C81 1.262 . S
O75 Zn70 2.049 . S
O75 C83 1.260 . S
O76 Zn71 1.996 . S
O76 C83 1.257 . S
C77 O72 1.254 . S
C77 O73 1.269 . S
C78 O79 1.249 . S
C78 O80 1.270 . S
O79 Zn71 1.943 . S
O79 C78 1.249 . S
O80 Zn70 2.067 . S
O80 C78 1.270 . S
C81 O74 1.262 . S
C81 O82 1.232 . S
O82 C81 1.232 . S
C83 O75 1.260 . S
C83 O76 1.257 . S
Zn84 O87 2.031 . S
Zn84 O89 2.049 . S
Zn84 O94 2.067 . S
Zn85 O86 1.962 . S
Zn85 O88 1.986 . S
Zn85 O90 1.996 . S
Zn85 O93 1.943 . S
O86 Zn85 1.962 . S
O86 C91 1.254 . S
O87 Zn84 2.031 . S
O87 C91 1.269 . S
O88 Zn85 1.986 . S
O88 C95 1.262 . S
O89 Zn84 2.049 . S
O89 C97 1.260 . S
O90 Zn85 1.996 . S
O90 C97 1.257 . S
C91 O86 1.254 . S
C91 O87 1.269 . S
C92 O93 1.249 . S
C92 O94 1.270 . S
O93 Zn85 1.943 . S
O93 C92 1.249 . S
O94 Zn84 2.067 . S
O94 C92 1.270 . S
C95 O88 1.262 . S
C95 O96 1.232 . S
O96 C95 1.232 . S
C97 O89 1.260 . S
C97 O90 1.257 . S
Zn98 O101 2.031 1_655 S
Zn98 O103 2.049 . S
Zn98 O108 2.067 1_554 S
Zn99 O100 1.962 1_556 S
Zn99 O102 1.986 . S
Zn99 O104 1.996 . S
Zn99 O107 1.943 . S
O100 Zn99 1.962 1_554 S
O100 C105 1.254 . S
O101 Zn98 2.031 1_455 S
O101 C105 1.269 . S
O102 Zn99 1.986 . S
O102 C109 1.262 . S
O103 Zn98 2.049 . S
O103 C111 1.260 1_655 S
O104 Zn99 1.996 . S
O104 C111 1.257 1_556 S
C105 O100 1.254 . S
C105 O101 1.269 . S
C106 O107 1.249 1_655 S
C106 O108 1.270 . S
O107 Zn99 1.943 . S
O107 C106 1.249 1_455 S
O108 Zn98 2.067 1_556 S
O108 C106 1.270 . S
C109 O102 1.262 . S
C109 O110 1.232 . S
O110 C109 1.232 . S
C111 O103 1.260 1_455 S
C111 O104 1.257 1_554 S
Zn112 O115 2.031 . S
Zn112 O117 2.049 . S
Zn112 O122 2.067 . S
Zn113 O114 1.962 . S
Zn113 O116 1.986 . S
Zn113 O118 1.996 . S
Zn113 O121 1.943 1_545 S
O114 Zn113 1.962 . S
O114 C119 1.254 . S
O115 Zn112 2.031 . S
O115 C119 1.269 1_565 S
O116 Zn113 1.986 . S
O116 C123 1.262 . S
O117 Zn112 2.049 . S
O117 C125 1.260 . S
O118 Zn113 1.996 . S
O118 C125 1.257 1_545 S
C119 O114 1.254 . S
C119 O115 1.269 1_545 S
C120 O121 1.249 . S
C120 O122 1.270 . S
O121 Zn113 1.943 1_565 S
O121 C120 1.249 . S
O122 Zn112 2.067 . S
O122 C120 1.270 . S
C123 O116 1.262 . S
C123 O124 1.232 . S
O124 C123 1.232 . S
C125 O117 1.260 . S
C125 O118 1.257 1_565 S
Zn126 O129 2.031 . S
Zn126 O131 2.049 . S
Zn126 O136 2.067 . S
Zn127 O128 1.962 . S
Zn127 O130 1.986 . S
Zn127 O132 1.996 . S
Zn127 O135 1.943 . S
O128 Zn127 1.962 . S
O128 C133 1.254 . S
O129 Zn126 2.031 . S
O129 C133 1.269 . S
O130 Zn127 1.986 . S
O130 C137 1.262 . S
O131 Zn126 2.049 . S
O131 C139 1.260 . S
O132 Zn127 1.996 . S
O132 C139 1.257 . S
C133 O128 1.254 . S
C133 O129 1.269 . S
C134 O135 1.249 . S
C134 O136 1.270 . S
O135 Zn127 1.943 . S
O135 C134 1.249 . S
O136 Zn126 2.067 . S
O136 C134 1.270 . S
C137 O130 1.262 . S
C137 O138 1.232 . S
O138 C137 1.232 . S
C139 O131 1.260 . S
C139 O132 1.257 . S
Zn140 O143 2.031 . S
Zn140 O145 2.049 . S
Zn140 O150 2.067 . S
Zn141 O142 1.962 . S
Zn141 O144 1.986 1_545 S
Zn141 O146 1.996 . S
Zn141 O149 1.943 . S
O142 Zn141 1.962 . S
O142 C147 1.254 . S
O143 Zn140 2.031 . S
O143 C147 1.269 . S
O144 Zn141 1.986 1_565 S
O144 C151 1.262 . S
O145 Zn140 2.049 . S
O145 C153 1.260 . S
O146 Zn141 1.996 . S
O146 C153 1.257 . S
C147 O142 1.254 . S
C147 O143 1.269 . S
C148 O149 1.249 . S
C148 O150 1.270 . S
O149 Zn141 1.943 . S
O149 C148 1.249 . S
O150 Zn140 2.067 . S
O150 C148 1.270 . S
C151 O144 1.262 . S
C151 O152 1.232 . S
O152 C151 1.232 . S
C153 O145 1.260 . S
C153 O146 1.257 . S
Zn154 O157 2.031 1_554 S
Zn154 O159 2.049 . S
Zn154 O164 2.067 1_565 S
Zn155 O156 1.962 1_554 S
Zn155 O158 1.986 1_565 S
Zn155 O160 1.996 . S
Zn155 O163 1.943 1_565 S
O156 Zn155 1.962 1_556 S
O156 C161 1.254 . S
O157 Zn154 2.031 1_556 S
O157 C161 1.269 . S
O158 Zn155 1.986 1_545 S
O158 C165 1.262 . S
O159 Zn154 2.049 . S
O159 C167 1.260 . S
O160 Zn155 1.996 . S
O160 C167 1.257 . S
C161 O156 1.254 . S
C161 O157 1.269 . S
C162 O163 1.249 . S
C162 O164 1.270 . S
O163 Zn155 1.943 1_545 S
O163 C162 1.249 . S
O164 Zn154 2.067 1_545 S
O164 C162 1.270 . S
C165 O158 1.262 . S
C165 O166 1.232 1_554 S
O166 C165 1.232 1_556 S
C167 O159 1.260 . S
C167 O160 1.257 . S
Zn168 O171 2.031 1_554 S
Zn168 O173 2.049 . S
Zn168 O178 2.067 . S
Zn169 O170 1.962 1_554 S
Zn169 O172 1.986 . S
Zn169 O174 1.996 . S
Zn169 O177 1.943 . S
O170 Zn169 1.962 1_556 S
O170 C175 1.254 . S
O171 Zn168 2.031 1_556 S
O171 C175 1.269 . S
O172 Zn169 1.986 . S
O172 C179 1.262 . S
O173 Zn168 2.049 . S
O173 C181 1.260 . S
O174 Zn169 1.996 . S
O174 C181 1.257 . S
C175 O170 1.254 . S
C175 O171 1.269 . S
C176 O177 1.249 . S
C176 O178 1.270 . S
O177 Zn169 1.943 . S
O177 C176 1.249 . S
O178 Zn168 2.067 . S
O178 C176 1.270 . S
C179 O172 1.262 . S
C179 O180 1.232 . S
O180 C179 1.232 . S
C181 O173 1.260 . S
C181 O174 1.257 . S
Zn182 O185 2.031 1_554 S
Zn182 O187 2.049 . S
Zn182 O192 2.067 . S
Zn183 O184 1.962 . S
Zn183 O186 1.986 . S
Zn183 O188 1.996 . S
Zn183 O191 1.943 . S
O184 Zn183 1.962 . S
O184 C189 1.254 1_554 S
O185 Zn182 2.031 1_556 S
O185 C189 1.269 . S
O186 Zn183 1.986 . S
O186 C193 1.262 . S
O187 Zn182 2.049 . S
O187 C195 1.260 . S
O188 Zn183 1.996 . S
O188 C195 1.257 . S
C189 O184 1.254 1_556 S
C189 O185 1.269 . S
C190 O191 1.249 . S
C190 O192 1.270 . S
O191 Zn183 1.943 . S
O191 C190 1.249 . S
O192 Zn182 2.067 . S
O192 C190 1.270 . S
C193 O186 1.262 . S
C193 O194 1.232 1_554 S
O194 C193 1.232 1_556 S
C195 O187 1.260 . S
C195 O188 1.257 . S
Zn196 O199 2.031 . S
Zn196 O201 2.049 . S
Zn196 O206 2.067 . S
Zn197 O198 1.962 . S
Zn197 O200 1.986 . S
Zn197 O202 1.996 . S
Zn197 O205 1.943 . S
O198 Zn197 1.962 . S
O198 C203 1.254 . S
O199 Zn196 2.031 . S
O199 C203 1.269 . S
O200 Zn197 1.986 . S
O200 C207 1.262 . S
O201 Zn196 2.049 . S
O201 C209 1.260 . S
O202 Zn197 1.996 . S
O202 C209 1.257 . S
C203 O198 1.254 . S
C203 O199 1.269 . S
C204 O205 1.249 . S
C204 O206 1.270 . S
O205 Zn197 1.943 . S
O205 C204 1.249 . S
O206 Zn196 2.067 . S
O206 C204 1.270 . S
C207 O200 1.262 . S
C207 O208 1.232 . S
O208 C207 1.232 . S
C209 O201 1.260 . S
C209 O202 1.257 . S
Zn210 O213 2.031 . S
Zn210 O215 2.049 . S
Zn210 O220 2.069 . S
Zn211 O212 1.962 . S
Zn211 O214 1.986 . S
Zn211 O216 1.996 . S
Zn211 O219 1.943 . S
O212 Zn211 1.962 . S
O212 C217 1.254 . S
O213 Zn210 2.031 . S
O213 C217 1.269 . S
O214 Zn211 1.986 . S
O214 C221 1.262 . S
O215 Zn210 2.049 . S
O215 C223 1.260 . S
O216 Zn211 1.996 . S
O216 C223 1.257 . S
C217 O212 1.254 . S
C217 O213 1.269 . S
C218 O219 1.249 . S
C218 O220 1.277 . S
O219 Zn211 1.943 . S
O219 C218 1.249 . S
O220 Zn210 2.069 . S
O220 C218 1.277 . S
C221 O214 1.262 . S
C221 O222 1.232 . S
O222 C221 1.232 . S
C223 O215 1.260 . S
C223 O216 1.257 . S
Zn224 O227 2.031 . S
Zn224 O229 2.049 . S
Zn224 O234 2.067 1_445 S
Zn225 O226 1.962 . S
Zn225 O228 1.986 1_455 S
Zn225 O230 1.996 . S
Zn225 O233 1.943 1_455 S
O226 Zn225 1.962 . S
O226 C231 1.254 . S
O227 Zn224 2.031 . S
O227 C231 1.269 . S
O228 Zn225 1.986 1_655 S
O228 C235 1.262 . S
O229 Zn224 2.049 . S
O229 C237 1.260 . S
O230 Zn225 1.996 . S
O230 C237 1.257 . S
C231 O226 1.254 . S
C231 O227 1.269 . S
C232 O233 1.249 1_565 S
C232 O234 1.270 . S
O233 Zn225 1.943 1_655 S
O233 C232 1.249 1_545 S
O234 Zn224 2.067 1_665 S
O234 C232 1.270 . S
C235 O228 1.262 . S
C235 O236 1.232 . S
O236 C235 1.232 . S
C237 O229 1.260 . S
C237 O230 1.257 . S
Zn238 O241 2.031 . S
Zn238 O243 2.049 . S
Zn238 O248 2.067 . S
Zn239 O240 1.962 . S
Zn239 O242 1.986 . S
Zn239 O244 1.996 . S
Zn239 O247 1.943 . S
O240 Zn239 1.962 . S
O240 C245 1.254 . S
O241 Zn238 2.031 . S
O241 C245 1.269 . S
O242 Zn239 1.986 . S
O242 C249 1.262 . S
O243 Zn238 2.049 . S
O243 C251 1.260 . S
O244 Zn239 1.996 . S
O244 C251 1.257 . S
C245 O240 1.254 . S
C245 O241 1.269 . S
C246 O247 1.249 . S
C246 O248 1.270 . S
O247 Zn239 1.943 . S
O247 C246 1.249 . S
O248 Zn238 2.067 . S
O248 C246 1.270 . S
C249 O242 1.262 . S
C249 O250 1.232 . S
O250 C249 1.232 . S
C251 O243 1.260 . S
C251 O244 1.257 . S
Zn252 O255 2.031 . S
Zn252 O257 2.049 . S
Zn252 O262 2.067 . S
Zn253 O254 1.962 . S
Zn253 O256 1.986 . S
Zn253 O258 1.996 . S
Zn253 O261 1.943 . S
O254 Zn253 1.962 . S
O254 C259 1.254 . S
O255 Zn252 2.031 . S
O255 C259 1.269 . S
O256 Zn253 1.986 . S
O256 C263 1.262 . S
O257 Zn252 2.049 . S
O257 C265 1.260 . S
O258 Zn253 1.996 . S
O258 C265 1.257 . S
C259 O254 1.254 . S
C259 O255 1.269 . S
C260 O261 1.249 . S
C260 O262 1.270 . S
O261 Zn253 1.943 . S
O261 C260 1.249 . S
O262 Zn252 2.067 . S
O262 C260 1.270 . S
C263 O256 1.262 . S
C263 O264 1.232 . S
O264 C263 1.232 . S
C265 O257 1.260 . S
C265 O258 1.257 . S
Zn266 O269 2.031 . S
Zn266 O271 2.049 . S
Zn266 O276 2.067 . S
Zn267 O268 1.962 . S
Zn267 O270 1.986 . S
Zn267 O272 1.996 . S
Zn267 O275 1.943 . S
O268 Zn267 1.962 . S
O268 C273 1.254 . S
O269 Zn266 2.031 . S
O269 C273 1.269 . S
O270 Zn267 1.986 . S
O270 C277 1.262 . S
O271 Zn266 2.049 . S
O271 C279 1.260 . S
O272 Zn267 1.996 . S
O272 C279 1.257 . S
C273 O268 1.254 . S
C273 O269 1.269 . S
C274 O275 1.249 . S
C274 O276 1.270 . S
O275 Zn267 1.943 . S
O275 C274 1.249 . S
O276 Zn266 2.067 . S
O276 C274 1.270 . S
C277 O270 1.262 . S
C277 O278 1.232 . S
O278 C277 1.232 . S
C279 O271 1.260 . S
C279 O272 1.257 . S
Zn280 O283 2.031 1_554 S
Zn280 O285 2.049 . S
Zn280 O290 2.067 . S
Zn281 O282 1.945 1_554 S
Zn281 O284 1.994 . S
Zn281 O286 2.008 . S
Zn281 O289 1.946 1_554 S
O282 Zn281 1.945 1_556 S
O282 C287 1.254 . S
O283 Zn280 2.031 1_556 S
O283 C287 1.269 . S
O284 Zn281 1.994 . S
O284 C291 1.262 1_554 S
O285 Zn280 2.049 . S
O285 C293 1.260 . S
O286 Zn281 2.008 . S
O286 C293 1.257 . S
C287 O282 1.254 . S
C287 O283 1.269 . S
C288 O289 1.249 . S
C288 O290 1.270 1_556 S
O289 Zn281 1.946 1_556 S
O289 C288 1.249 . S
O290 Zn280 2.067 . S
O290 C288 1.270 1_554 S
C291 O284 1.262 1_556 S
C291 O292 1.232 . S
O292 C291 1.232 . S
C293 O285 1.260 . S
C293 O286 1.257 . S
Zn294 O297 2.031 . S
Zn294 O299 2.049 . S
Zn294 O304 2.067 1_455 S
Zn295 O296 1.962 1_655 S
Zn295 O298 1.986 . S
Zn295 O300 1.996 1_655 S
Zn295 O303 1.943 . S
O296 Zn295 1.962 1_455 S
O296 C301 1.254 . S
O297 Zn294 2.031 . S
O297 C301 1.269 . S
O298 Zn295 1.986 . S
O298 C305 1.262 . S
O299 Zn294 2.049 . S
O299 C307 1.260 . S
O300 Zn295 1.996 1_455 S
O300 C307 1.257 . S
C301 O296 1.254 . S
C301 O297 1.269 . S
C302 O303 1.249 . S
C302 O304 1.270 . S
O303 Zn295 1.943 . S
O303 C302 1.249 . S
O304 Zn294 2.067 1_655 S
O304 C302 1.270 . S
C305 O298 1.262 . S
C305 O306 1.232 . S
O306 C305 1.232 . S
C307 O299 1.260 . S
C307 O300 1.257 . S
Zn308 O311 2.031 . S
Zn308 O313 2.049 . S
Zn308 O318 2.067 1_655 S
Zn309 O310 1.962 . S
Zn309 O312 1.986 . S
Zn309 O314 1.996 . S
Zn309 O317 1.943 . S
O310 Zn309 1.962 . S
O310 C315 1.254 . S
O311 Zn308 2.031 . S
O311 C315 1.269 . S
O312 Zn309 1.986 . S
O312 C319 1.262 . S
O313 Zn308 2.049 . S
O313 C321 1.260 . S
O314 Zn309 1.996 . S
O314 C321 1.257 . S
C315 O310 1.254 . S
C315 O311 1.269 . S
C316 O317 1.249 1_455 S
C316 O318 1.270 . S
O317 Zn309 1.943 . S
O317 C316 1.249 1_655 S
O318 Zn308 2.067 1_455 S
O318 C316 1.270 . S
C319 O312 1.262 . S
C319 O320 1.232 . S
O320 C319 1.232 . S
C321 O313 1.260 . S
C321 O314 1.257 . S
Zn322 O325 2.031 . S
Zn322 O327 2.049 . S
Zn322 O332 2.067 . S
Zn323 O324 1.962 . S
Zn323 O326 1.986 . S
Zn323 O328 1.996 . S
Zn323 O331 1.943 . S
O324 Zn323 1.962 . S
O324 C329 1.254 . S
O325 Zn322 2.031 . S
O325 C329 1.269 . S
O326 Zn323 1.986 . S
O326 C333 1.262 . S
O327 Zn322 2.049 . S
O327 C335 1.260 . S
O328 Zn323 1.996 . S
O328 C335 1.257 . S
C329 O324 1.254 . S
C329 O325 1.269 . S
C330 O331 1.249 . S
C330 O332 1.270 . S
O331 Zn323 1.943 . S
O331 C330 1.249 . S
O332 Zn322 2.067 . S
O332 C330 1.270 . S
C333 O326 1.262 . S
C333 O334 1.232 . S
O334 C333 1.232 . S
C335 O327 1.260 . S
C335 O328 1.257 . S
Ho336 C339 2.811 1_455 S
Ho336 O356 2.322 . S
Ho336 O358 2.378 1_455 S
Ho336 O359 2.524 1_456 S
Ho336 O360 2.381 . S
Ho336 O361 2.669 . S
Ho336 O363 2.346 1_546 S
Ho336 O367 2.305 1_556 S
Ho337 C348 2.811 . S
Ho337 O357 2.346 . S
Ho337 O361 2.305 1_554 S
Ho337 O362 2.322 . S
Ho337 O364 2.378 . S
Ho337 O365 2.524 . S
Ho337 O366 2.381 . S
Ho337 O367 2.669 . S
C338 O356 1.259 1_554 S
C338 O357 1.268 . S
C339 Ho336 2.811 1_655 S
C339 C340 1.488 . S
C339 O358 1.215 . S
C339 O359 1.289 1_556 S
C340 C339 1.488 . S
C340 C341 1.348 . S
C340 C345 1.413 . S
C341 C340 1.348 . S
C341 C342 1.442 . S
C341 H368 0.930 1_556 S
C342 C341 1.442 . S
C342 C343 1.381 . S
C342 H369 0.931 1_556 S
C343 C342 1.381 . S
C343 C344 1.321 . S
C344 C343 1.321 . S
C344 C345 1.403 . S
C344 H370 0.934 1_545 S
C345 C340 1.413 . S
C345 C344 1.403 . S
C345 H371 0.934 . S
C346 O360 1.275 . S
C346 O361 1.256 . S
C347 O362 1.259 1_565 S
C347 O363 1.268 . S
C348 Ho337 2.811 . S
C348 C349 1.488 . S
C348 O364 1.215 . S
C348 O365 1.289 . S
C349 C348 1.488 . S
C349 C350 1.348 . S
C349 C354 1.413 . S
C350 C349 1.348 . S
C350 C351 1.442 . S
C350 H372 0.930 . S
C351 C350 1.442 . S
C351 C352 1.381 . S
C351 H373 0.931 . S
C352 C351 1.381 . S
C352 C353 1.321 . S
C353 C352 1.321 . S
C353 C354 1.403 . S
C353 H374 0.934 . S
C354 C349 1.413 . S
C354 C353 1.403 . S
C354 H375 0.930 . S
C355 O366 1.275 . S
C355 O367 1.256 . S
O356 Ho336 2.322 . S
O356 C338 1.259 1_556 S
O357 Ho337 2.346 . S
O357 C338 1.268 . S
O358 Ho336 2.378 1_655 S
O358 C339 1.215 . S
O359 Ho336 2.524 1_654 S
O359 C339 1.289 1_554 S
O360 Ho336 2.381 . S
O360 C346 1.275 . S
O361 Ho336 2.669 . S
O361 Ho337 2.305 1_556 S
O361 C346 1.256 . S
O362 Ho337 2.322 . S
O362 C347 1.259 1_545 S
O363 Ho336 2.346 1_564 S
O363 C347 1.268 . S
O364 Ho337 2.378 . S
O364 C348 1.215 . S
O365 Ho337 2.524 . S
O365 C348 1.289 . S
O366 Ho337 2.381 . S
O366 C355 1.275 . S
O367 Ho336 2.305 1_554 S
O367 Ho337 2.669 . S
O367 C355 1.256 . S
H368 C341 0.930 1_554 S
H369 C342 0.931 1_554 S
H370 C344 0.934 1_565 S
H371 C345 0.934 . S
H372 C350 0.930 . S
H373 C351 0.931 . S
H374 C353 0.934 . S
H375 C354 0.930 . S
Ho376 C379 2.811 . S
Ho376 O396 2.322 . S
Ho376 O398 2.378 . S
Ho376 O399 2.524 . S
Ho376 O400 2.381 . S
Ho376 O401 2.669 . S
Ho376 O403 2.346 . S
Ho376 O407 2.305 . S
Ho377 C388 2.811 . S
Ho377 O397 2.346 . S
Ho377 O401 2.305 . S
Ho377 O402 2.322 . S
Ho377 O404 2.378 . S
Ho377 O405 2.524 . S
Ho377 O406 2.381 . S
Ho377 O407 2.669 . S
C378 O396 1.259 . S
C378 O397 1.268 . S
C379 Ho376 2.811 . S
C379 C380 1.488 . S
C379 O398 1.215 . S
C379 O399 1.289 . S
C380 C379 1.488 . S
C380 C381 1.348 . S
C380 C385 1.413 . S
C381 C380 1.348 . S
C381 C382 1.442 . S
C381 H408 0.930 . S
C382 C381 1.442 . S
C382 C383 1.381 . S
C382 H409 0.931 . S
C383 C382 1.381 . S
C383 C384 1.321 . S
C384 C383 1.321 . S
C384 C385 1.403 . S
C384 H410 0.934 . S
C385 C380 1.413 . S
C385 C384 1.403 . S
C385 H411 0.930 . S
C386 O400 1.275 . S
C386 O401 1.256 . S
C387 O402 1.259 . S
C387 O403 1.268 . S
C388 Ho377 2.811 . S
C388 C389 1.488 . S
C388 O404 1.215 . S
C388 O405 1.289 . S
C389 C388 1.488 . S
C389 C390 1.348 . S
C389 C394 1.413 . S
C390 C389 1.348 . S
C390 C391 1.442 . S
C390 H412 0.930 . S
C391 C390 1.442 . S
C391 C392 1.381 . S
C391 H413 0.931 . S
C392 C391 1.381 . S
C392 C393 1.321 . S
C393 C392 1.321 . S
C393 C394 1.403 . S
C393 H414 0.934 . S
C394 C389 1.413 . S
C394 C393 1.403 . S
C394 H415 0.930 . S
C395 O406 1.275 . S
C395 O407 1.256 . S
O396 Ho376 2.322 . S
O396 C378 1.259 . S
O397 Ho377 2.346 . S
O397 C378 1.268 . S
O398 Ho376 2.378 . S
O398 C379 1.215 . S
O399 Ho376 2.524 . S
O399 C379 1.289 . S
O400 Ho376 2.381 . S
O400 C386 1.275 . S
O401 Ho376 2.669 . S
O401 Ho377 2.305 . S
O401 C386 1.256 . S
O402 Ho377 2.322 . S
O402 C387 1.259 . S
O403 Ho376 2.346 . S
O403 C387 1.268 . S
O404 Ho377 2.378 . S
O404 C388 1.215 . S
O405 Ho377 2.524 . S
O405 C388 1.289 . S
O406 Ho377 2.381 . S
O406 C395 1.275 . S
O407 Ho376 2.305 . S
O407 Ho377 2.669 . S
O407 C395 1.256 . S
H408 C381 0.930 . S
H409 C382 0.931 . S
H410 C384 0.934 . S
H411 C385 0.930 . S
H412 C390 0.930 . S
H413 C391 0.931 . S
H414 C393 0.934 . S
H415 C394 0.930 . S
Ho416 C419 2.811 . S
Ho416 O436 2.322 1_545 S
Ho416 O438 2.378 . S
Ho416 O439 2.524 . S
Ho416 O440 2.381 . S
Ho416 O441 2.669 . S
Ho416 O443 2.346 . S
Ho416 O447 2.305 . S
Ho417 C428 2.811 . S
Ho417 O437 2.346 1_545 S
Ho417 O441 2.305 . S
Ho417 O442 2.322 . S
Ho417 O444 2.378 . S
Ho417 O445 2.524 . S
Ho417 O446 2.381 . S
Ho417 O447 2.669 . S
C418 O436 1.259 . S
C418 O437 1.268 . S
C419 Ho416 2.811 . S
C419 C420 1.488 1_545 S
C419 O438 1.215 . S
C419 O439 1.289 . S
C420 C419 1.488 1_565 S
C420 C421 1.348 . S
C420 C425 1.413 . S
C421 C420 1.348 . S
C421 C422 1.442 . S
C421 H448 0.930 . S
C422 C421 1.442 . S
C422 C423 1.381 . S
C422 H449 0.931 . S
C423 C422 1.381 . S
C423 C424 1.321 . S
C424 C423 1.321 . S
C424 C425 1.403 . S
C424 H450 0.934 . S
C425 C420 1.413 . S
C425 C424 1.403 . S
C425 H451 0.930 . S
C426 O440 1.275 . S
C426 O441 1.256 . S
C427 O442 1.259 . S
C427 O443 1.268 . S
C428 Ho417 2.811 . S
C428 C429 1.488 . S
C428 O444 1.215 . S
C428 O445 1.289 . S
C429 C428 1.488 . S
C429 C430 1.348 . S
C429 C434 1.413 . S
C430 C429 1.348 . S
C430 C431 1.442 . S
C430 H452 0.930 . S
C431 C430 1.442 . S
C431 C432 1.381 . S
C431 H453 0.931 . S
C432 C431 1.381 . S
C432 C433 1.321 . S
C433 C432 1.321 . S
C433 C434 1.403 . S
C433 H454 0.934 . S
C434 C429 1.413 . S
C434 C433 1.403 . S
C434 H455 0.930 . S
C435 O446 1.275 . S
C435 O447 1.256 . S
O436 Ho416 2.322 1_565 S
O436 C418 1.259 . S
O437 Ho417 2.346 1_565 S
O437 C418 1.268 . S
O438 Ho416 2.378 . S
O438 C419 1.215 . S
O439 Ho416 2.524 . S
O439 C419 1.289 . S
O440 Ho416 2.381 . S
O440 C426 1.275 . S
O441 Ho416 2.669 . S
O441 Ho417 2.305 . S
O441 C426 1.256 . S
O442 Ho417 2.322 . S
O442 C427 1.259 . S
O443 Ho416 2.346 . S
O443 C427 1.268 . S
O444 Ho417 2.378 . S
O444 C428 1.215 . S
O445 Ho417 2.524 . S
O445 C428 1.289 . S
O446 Ho417 2.381 . S
O446 C435 1.275 . S
O447 Ho416 2.305 . S
O447 Ho417 2.669 . S
O447 C435 1.256 . S
H448 C421 0.930 . S
H449 C422 0.931 . S
H450 C424 0.934 . S
H451 C425 0.930 . S
H452 C430 0.930 . S
H453 C431 0.931 . S
H454 C433 0.934 . S
H455 C434 0.930 . S
Ho456 C459 2.811 . S
Ho456 O476 2.322 . S
Ho456 O478 2.378 . S
Ho456 O479 2.524 . S
Ho456 O480 2.381 . S
Ho456 O481 2.669 . S
Ho456 O483 2.346 . S
Ho456 O487 2.305 . S
Ho457 C468 2.811 . S
Ho457 O477 2.346 . S
Ho457 O481 2.305 . S
Ho457 O482 2.322 . S
Ho457 O484 2.378 . S
Ho457 O485 2.524 . S
Ho457 O486 2.381 . S
Ho457 O487 2.669 . S
C458 O476 1.259 . S
C458 O477 1.268 . S
C459 Ho456 2.811 . S
C459 C460 1.488 . S
C459 O478 1.215 . S
C459 O479 1.289 . S
C460 C459 1.488 . S
C460 C461 1.348 . S
C460 C465 1.413 . S
C461 C460 1.348 . S
C461 C462 1.442 . S
C461 H488 0.930 . S
C462 C461 1.442 . S
C462 C463 1.381 . S
C462 H489 0.931 . S
C463 C462 1.381 . S
C463 C464 1.321 . S
C464 C463 1.321 . S
C464 C465 1.403 . S
C464 H490 0.934 . S
C465 C460 1.413 . S
C465 C464 1.403 . S
C465 H491 0.930 . S
C466 O480 1.275 . S
C466 O481 1.256 . S
C467 O482 1.259 . S
C467 O483 1.268 . S
C468 Ho457 2.811 . S
C468 C469 1.488 . S
C468 O484 1.215 . S
C468 O485 1.289 . S
C469 C468 1.488 . S
C469 C470 1.348 . S
C469 C474 1.413 . S
C470 C469 1.348 . S
C470 C471 1.442 . S
C470 H492 0.930 . S
C471 C470 1.442 . S
C471 C472 1.381 . S
C471 H493 0.931 . S
C472 C471 1.381 . S
C472 C473 1.321 . S
C473 C472 1.321 . S
C473 C474 1.403 . S
C473 H494 0.934 . S
C474 C469 1.413 . S
C474 C473 1.403 . S
C474 H495 0.930 . S
C475 O486 1.275 . S
C475 O487 1.256 . S
O476 Ho456 2.322 . S
O476 C458 1.259 . S
O477 Ho457 2.346 . S
O477 C458 1.268 . S
O478 Ho456 2.378 . S
O478 C459 1.215 . S
O479 Ho456 2.524 . S
O479 C459 1.289 . S
O480 Ho456 2.381 . S
O480 C466 1.275 . S
O481 Ho456 2.669 . S
O481 Ho457 2.305 . S
O481 C466 1.256 . S
O482 Ho457 2.322 . S
O482 C467 1.259 . S
O483 Ho456 2.346 . S
O483 C467 1.268 . S
O484 Ho457 2.378 . S
O484 C468 1.215 . S
O485 Ho457 2.524 . S
O485 C468 1.289 . S
O486 Ho457 2.381 . S
O486 C475 1.275 . S
O487 Ho456 2.305 . S
O487 Ho457 2.669 . S
O487 C475 1.256 . S
H488 C461 0.930 . S
H489 C462 0.931 . S
H490 C464 0.934 . S
H491 C465 0.930 . S
H492 C470 0.930 . S
H493 C471 0.931 . S
H494 C473 0.934 . S
H495 C474 0.930 . S
Ho496 C499 2.811 . S
Ho496 O516 2.322 . S
Ho496 O518 2.378 . S
Ho496 O519 2.524 . S
Ho496 O520 2.381 . S
Ho496 O521 2.669 . S
Ho496 O523 2.346 . S
Ho496 O527 2.305 . S
Ho497 C508 2.811 . S
Ho497 O517 2.346 1_565 S
Ho497 O521 2.305 1_565 S
Ho497 O522 2.322 1_565 S
Ho497 O524 2.378 . S
Ho497 O525 2.524 . S
Ho497 O526 2.381 1_565 S
Ho497 O527 2.669 1_565 S
C498 O516 1.259 . S
C498 O517 1.268 . S
C499 Ho496 2.811 . S
C499 C500 1.488 . S
C499 O518 1.215 . S
C499 O519 1.289 . S
C500 C499 1.488 . S
C500 C501 1.348 . S
C500 C505 1.413 . S
C501 C500 1.348 . S
C501 C502 1.442 . S
C501 H528 0.930 . S
C502 C501 1.442 . S
C502 C503 1.381 . S
C502 H529 0.931 . S
C503 C502 1.381 . S
C503 C504 1.321 . S
C504 C503 1.321 . S
C504 C505 1.403 . S
C504 H530 0.934 . S
C505 C500 1.413 . S
C505 C504 1.403 . S
C505 H531 0.930 . S
C506 O520 1.275 . S
C506 O521 1.256 . S
C507 O522 1.259 . S
C507 O523 1.268 . S
C508 Ho497 2.811 . S
C508 C509 1.488 . S
C508 O524 1.215 . S
C508 O525 1.289 . S
C509 C508 1.488 . S
C509 C510 1.348 . S
C509 C514 1.413 . S
C510 C509 1.348 . S
C510 C511 1.442 . S
C510 H532 0.930 . S
C511 C510 1.442 . S
C511 C512 1.381 . S
C511 H533 0.931 . S
C512 C511 1.381 . S
C512 C513 1.321 . S
C513 C512 1.321 . S
C513 C514 1.403 . S
C513 H534 0.934 . S
C514 C509 1.413 . S
C514 C513 1.403 . S
C514 H535 0.930 . S
C515 O526 1.275 . S
C515 O527 1.256 . S
O516 Ho496 2.322 . S
O516 C498 1.259 . S
O517 Ho497 2.346 1_545 S
O517 C498 1.268 . S
O518 Ho496 2.378 . S
O518 C499 1.215 . S
O519 Ho496 2.524 . S
O519 C499 1.289 . S
O520 Ho496 2.381 . S
O520 C506 1.275 . S
O521 Ho496 2.669 . S
O521 Ho497 2.305 1_545 S
O521 C506 1.256 . S
O522 Ho497 2.322 1_545 S
O522 C507 1.259 . S
O523 Ho496 2.346 . S
O523 C507 1.268 . S
O524 Ho497 2.378 . S
O524 C508 1.215 . S
O525 Ho497 2.524 . S
O525 C508 1.289 . S
O526 Ho497 2.381 1_545 S
O526 C515 1.275 . S
O527 Ho496 2.305 . S
O527 Ho497 2.669 1_545 S
O527 C515 1.256 . S
H528 C501 0.930 . S
H529 C502 0.931 . S
H530 C504 0.934 . S
H531 C505 0.930 . S
H532 C510 0.930 . S
H533 C511 0.931 . S
H534 C513 0.934 . S
H535 C514 0.930 . S
Ho536 C539 2.811 . S
Ho536 O556 2.322 . S
Ho536 O558 2.378 . S
Ho536 O559 2.524 . S
Ho536 O560 2.381 . S
Ho536 O561 2.669 . S
Ho536 O563 2.346 . S
Ho536 O567 2.305 . S
Ho537 C548 2.811 . S
Ho537 O557 2.346 . S
Ho537 O561 2.305 . S
Ho537 O562 2.322 . S
Ho537 O564 2.378 . S
Ho537 O565 2.524 . S
Ho537 O566 2.381 . S
Ho537 O567 2.669 . S
C538 O556 1.259 . S
C538 O557 1.268 . S
C539 Ho536 2.811 . S
C539 C540 1.488 . S
C539 O558 1.215 . S
C539 O559 1.289 . S
C540 C539 1.488 . S
C540 C541 1.348 . S
C540 C545 1.413 . S
C541 C540 1.348 . S
C541 C542 1.442 . S
C541 H568 0.930 . S
C542 C541 1.442 . S
C542 C543 1.381 . S
C542 H569 0.931 . S
C543 C542 1.381 . S
C543 C544 1.321 . S
C544 C543 1.321 . S
C544 C545 1.403 . S
C544 H570 0.934 . S
C545 C540 1.413 . S
C545 C544 1.403 . S
C545 H571 0.930 . S
C546 O560 1.275 . S
C546 O561 1.256 . S
C547 O562 1.259 . S
C547 O563 1.268 . S
C548 Ho537 2.811 . S
C548 C549 1.488 . S
C548 O564 1.215 . S
C548 O565 1.289 . S
C549 C548 1.488 . S
C549 C550 1.348 . S
C549 C554 1.413 . S
C550 C549 1.348 . S
C550 C551 1.442 . S
C550 H572 0.930 . S
C551 C550 1.442 . S
C551 C552 1.381 . S
C551 H573 0.931 . S
C552 C551 1.381 . S
C552 C553 1.321 . S
C553 C552 1.321 . S
C553 C554 1.403 . S
C553 H574 0.934 . S
C554 C549 1.413 . S
C554 C553 1.403 . S
C554 H575 0.930 . S
C555 O566 1.275 . S
C555 O567 1.256 . S
O556 Ho536 2.322 . S
O556 C538 1.259 . S
O557 Ho537 2.346 . S
O557 C538 1.268 . S
O558 Ho536 2.378 . S
O558 C539 1.215 . S
O559 Ho536 2.524 . S
O559 C539 1.289 . S
O560 Ho536 2.381 . S
O560 C546 1.275 . S
O561 Ho536 2.669 . S
O561 Ho537 2.305 . S
O561 C546 1.256 . S
O562 Ho537 2.322 . S
O562 C547 1.259 . S
O563 Ho536 2.346 . S
O563 C547 1.268 . S
O564 Ho537 2.378 . S
O564 C548 1.215 . S
O565 Ho537 2.524 . S
O565 C548 1.289 . S
O566 Ho537 2.381 . S
O566 C555 1.275 . S
O567 Ho536 2.305 . S
O567 Ho537 2.669 . S
O567 C555 1.256 . S
H568 C541 0.930 . S
H569 C542 0.931 . S
H570 C544 0.934 . S
H571 C545 0.930 . S
H572 C550 0.930 . S
H573 C551 0.931 . S
H574 C553 0.934 . S
H575 C554 0.930 . S
Ho576 C579 2.811 . S
Ho576 O596 2.322 . S
Ho576 O598 2.378 . S
Ho576 O599 2.524 . S
Ho576 O600 2.381 1_545 S
Ho576 O601 2.669 1_554 S
Ho576 O603 2.346 . S
Ho576 O607 2.305 . S
Ho577 C588 2.811 . S
Ho577 O597 2.346 . S
Ho577 O601 2.305 . S
Ho577 O602 2.322 1_556 S
Ho577 O604 2.378 . S
Ho577 O605 2.524 . S
Ho577 O606 2.381 1_556 S
Ho577 O607 2.669 1_556 S
C578 O596 1.259 . S
C578 O597 1.268 1_554 S
C579 Ho576 2.811 . S
C579 C580 1.488 . S
C579 O598 1.215 . S
C579 O599 1.289 . S
C580 C579 1.488 . S
C580 C581 1.348 . S
C580 C585 1.413 1_545 S
C581 C580 1.348 . S
C581 C582 1.442 . S
C581 H608 0.930 . S
C582 C581 1.442 . S
C582 C583 1.381 1_545 S
C582 H609 0.931 . S
C583 C582 1.381 1_565 S
C583 C584 1.321 . S
C584 C583 1.321 . S
C584 C585 1.403 . S
C584 H610 0.934 . S
C585 C580 1.413 1_565 S
C585 C584 1.403 . S
C585 H611 0.930 . S
C586 O600 1.292 . S
C586 O601 1.250 1_564 S
C587 O602 1.259 . S
C587 O603 1.268 . S
C588 Ho577 2.811 . S
C588 C589 1.488 . S
C588 O604 1.215 . S
C588 O605 1.289 . S
C589 C588 1.488 . S
C589 C590 1.348 . S
C589 C594 1.413 . S
C590 C589 1.348 . S
C590 C591 1.442 . S
C590 H612 0.930 . S
C591 C590 1.442 . S
C591 C592 1.381 . S
C591 H613 0.931 . S
C592 C591 1.381 . S
C592 C593 1.321 . S
C593 C592 1.321 . S
C593 C594 1.403 . S
C593 H614 0.934 . S
C594 C589 1.413 . S
C594 C593 1.403 . S
C594 H615 0.930 . S
C595 O606 1.275 . S
C595 O607 1.256 . S
O596 Ho576 2.322 . S
O596 C578 1.259 . S
O597 Ho577 2.346 . S
O597 C578 1.268 1_556 S
O598 Ho576 2.378 . S
O598 C579 1.215 . S
O599 Ho576 2.524 . S
O599 C579 1.289 . S
O600 Ho576 2.381 1_565 S
O600 C586 1.292 . S
O601 Ho576 2.669 1_556 S
O601 Ho577 2.305 . S
O601 C586 1.250 1_546 S
O602 Ho577 2.322 1_554 S
O602 C587 1.259 . S
O603 Ho576 2.346 . S
O603 C587 1.268 . S
O604 Ho577 2.378 . S
O604 C588 1.215 . S
O605 Ho577 2.524 . S
O605 C588 1.289 . S
O606 Ho577 2.381 1_554 S
O606 C595 1.275 . S
O607 Ho576 2.305 . S
O607 Ho577 2.669 1_554 S
O607 C595 1.256 . S
H608 C581 0.930 . S
H609 C582 0.931 . S
H610 C584 0.934 . S
H611 C585 0.930 . S
H612 C590 0.930 . S
H613 C591 0.931 . S
H614 C593 0.934 . S
H615 C594 0.930 . S
Ho616 C619 2.811 . S
Ho616 O636 2.322 . S
Ho616 O638 2.378 . S
Ho616 O639 2.524 . S
Ho616 O640 2.381 . S
Ho616 O641 2.669 . S
Ho616 O643 2.346 . S
Ho616 O647 2.305 . S
Ho617 C628 2.811 . S
Ho617 O637 2.346 . S
Ho617 O641 2.305 . S
Ho617 O642 2.322 . S
Ho617 O644 2.378 . S
Ho617 O645 2.524 . S
Ho617 O646 2.381 . S
Ho617 O647 2.669 . S
C618 O636 1.259 . S
C618 O637 1.268 . S
C619 Ho616 2.811 . S
C619 C620 1.488 . S
C619 O638 1.215 . S
C619 O639 1.289 . S
C620 C619 1.488 . S
C620 C621 1.348 . S
C620 C625 1.413 . S
C621 C620 1.348 . S
C621 C622 1.442 . S
C621 H648 0.930 . S
C622 C621 1.442 . S
C622 C623 1.381 . S
C622 H649 0.931 . S
C623 C622 1.381 . S
C623 C624 1.321 . S
C624 C623 1.321 . S
C624 C625 1.403 . S
C624 H650 0.934 . S
C625 C620 1.413 . S
C625 C624 1.403 . S
C625 H651 0.930 . S
C626 O640 1.275 . S
C626 O641 1.256 . S
C627 O642 1.259 . S
C627 O643 1.268 . S
C628 Ho617 2.811 . S
C628 C629 1.488 . S
C628 O644 1.215 . S
C628 O645 1.289 . S
C629 C628 1.488 . S
C629 C630 1.348 . S
C629 C634 1.413 . S
C630 C629 1.348 . S
C630 C631 1.442 . S
C630 H652 0.930 . S
C631 C630 1.442 . S
C631 C632 1.375 1_545 S
C631 H653 0.931 . S
C632 C631 1.375 1_565 S
C632 C633 1.308 1_565 S
C633 C632 1.308 1_545 S
C633 C634 1.403 . S
C633 H654 0.934 1_545 S
C634 C629 1.413 . S
C634 C633 1.403 . S
C634 H655 0.930 . S
C635 O646 1.275 . S
C635 O647 1.256 . S
O636 Ho616 2.322 . S
O636 C618 1.259 . S
O637 Ho617 2.346 . S
O637 C618 1.268 . S
O638 Ho616 2.378 . S
O638 C619 1.215 . S
O639 Ho616 2.524 . S
O639 C619 1.289 . S
O640 Ho616 2.381 . S
O640 C626 1.275 . S
O641 Ho616 2.669 . S
O641 Ho617 2.305 . S
O641 C626 1.256 . S
O642 Ho617 2.322 . S
O642 C627 1.259 . S
O643 Ho616 2.346 . S
O643 C627 1.268 . S
O644 Ho617 2.378 . S
O644 C628 1.215 . S
O645 Ho617 2.524 . S
O645 C628 1.289 . S
O646 Ho617 2.381 . S
O646 C635 1.275 . S
O647 Ho616 2.305 . S
O647 Ho617 2.669 . S
O647 C635 1.256 . S
H648 C621 0.930 . S
H649 C622 0.931 . S
H650 C624 0.934 . S
H651 C625 0.930 . S
H652 C630 0.930 . S
H653 C631 0.931 . S
H654 C633 0.934 1_565 S
H655 C634 0.930 . S
Ho656 C659 2.811 . S
Ho656 O676 2.322 1_554 S
Ho656 O678 2.378 . S
Ho656 O679 2.524 . S
Ho656 O680 2.381 . S
Ho656 O681 2.669 . S
Ho656 O683 2.346 . S
Ho656 O687 2.305 . S
Ho657 C668 2.811 1_556 S
Ho657 O677 2.346 . S
Ho657 O681 2.305 1_556 S
Ho657 O682 2.322 1_556 S
Ho657 O684 2.378 . S
Ho657 O685 2.524 1_556 S
Ho657 O686 2.381 . S
Ho657 O687 2.669 1_556 S
C658 O676 1.259 . S
C658 O677 1.268 . S
C659 Ho656 2.811 . S
C659 C660 1.488 . S
C659 O678 1.215 . S
C659 O679 1.289 . S
C660 C659 1.488 . S
C660 C661 1.348 1_554 S
C660 C665 1.413 . S
C661 C660 1.348 1_556 S
C661 C662 1.442 . S
C661 H688 0.930 . S
C662 C661 1.442 . S
C662 C663 1.381 . S
C662 H689 0.931 . S
C663 C662 1.381 . S
C663 C664 1.321 1_556 S
C664 C663 1.321 1_554 S
C664 C665 1.403 . S
C664 H690 0.934 . S
C665 C660 1.413 . S
C665 C664 1.403 . S
C665 H691 0.930 . S
C666 O680 1.275 . S
C666 O681 1.256 . S
C667 O682 1.259 . S
C667 O683 1.268 . S
C668 Ho657 2.811 1_554 S
C668 C669 1.488 . S
C668 O684 1.215 1_554 S
C668 O685 1.289 . S
C669 C668 1.488 . S
C669 C670 1.348 . S
C669 C674 1.413 . S
C670 C669 1.348 . S
C670 C671 1.442 . S
C670 H692 0.930 . S
C671 C670 1.442 . S
C671 C672 1.381 . S
C671 H693 0.931 . S
C672 C671 1.381 . S
C672 C673 1.321 . S
C673 C672 1.321 . S
C673 C674 1.403 . S
C673 H694 0.934 . S
C674 C669 1.413 . S
C674 C673 1.403 . S
C674 H695 0.930 . S
C675 O686 1.275 1_554 S
C675 O687 1.256 . S
O676 Ho656 2.322 1_556 S
O676 C658 1.259 . S
O677 Ho657 2.346 . S
O677 C658 1.268 . S
O678 Ho656 2.378 . S
O678 C659 1.215 . S
O679 Ho656 2.524 . S
O679 C659 1.289 . S
O680 Ho656 2.381 . S
O680 C666 1.275 . S
O681 Ho656 2.669 . S
O681 Ho657 2.305 1_554 S
O681 C666 1.256 . S
O682 Ho657 2.322 1_554 S
O682 C667 1.259 . S
O683 Ho656 2.346 . S
O683 C667 1.268 . S
O684 Ho657 2.378 . S
O684 C668 1.215 1_556 S
O685 Ho657 2.524 1_554 S
O685 C668 1.289 . S
O686 Ho657 2.381 . S
O686 C675 1.275 1_556 S
O687 Ho656 2.305 . S
O687 Ho657 2.669 1_554 S
O687 C675 1.256 . S
H688 C661 0.930 . S
H689 C662 0.931 . S
H690 C664 0.934 . S
H691 C665 0.930 . S
H692 C670 0.930 . S
H693 C671 0.931 . S
H694 C673 0.934 . S
H695 C674 0.930 . S
Ho696 C699 2.811 1_655 S
Ho696 O716 2.322 . S
Ho696 O718 2.378 . S
Ho696 O719 2.524 . S
Ho696 O720 2.381 . S
Ho696 O721 2.669 . S
Ho696 O723 2.346 . S
Ho696 O727 2.305 . S
Ho697 C708 2.811 . S
Ho697 O717 2.346 . S
Ho697 O721 2.305 . S
Ho697 O722 2.322 . S
Ho697 O724 2.378 . S
Ho697 O725 2.524 . S
Ho697 O726 2.381 . S
Ho697 O727 2.669 . S
C698 O716 1.259 . S
C698 O717 1.268 . S
C699 Ho696 2.811 1_455 S
C699 C700 1.488 . S
C699 O718 1.215 1_455 S
C699 O719 1.289 1_455 S
C700 C699 1.488 . S
C700 C701 1.348 . S
C700 C705 1.413 . S
C701 C700 1.348 . S
C701 C702 1.442 . S
C701 H728 0.930 . S
C702 C701 1.442 . S
C702 C703 1.381 . S
C702 H729 0.931 . S
C703 C702 1.381 . S
C703 C704 1.321 . S
C704 C703 1.321 . S
C704 C705 1.403 . S
C704 H730 0.934 . S
C705 C700 1.413 . S
C705 C704 1.403 . S
C705 H731 0.930 . S
C706 O720 1.275 . S
C706 O721 1.256 . S
C707 O722 1.259 . S
C707 O723 1.268 . S
C708 Ho697 2.811 . S
C708 C709 1.488 . S
C708 O724 1.215 . S
C708 O725 1.289 . S
C709 C708 1.488 . S
C709 C710 1.348 . S
C709 C714 1.413 . S
C710 C709 1.348 . S
C710 C711 1.442 . S
C710 H732 0.930 . S
C711 C710 1.442 . S
C711 C712 1.381 . S
C711 H733 0.931 . S
C712 C711 1.381 . S
C712 C713 1.321 . S
C713 C712 1.321 . S
C713 C714 1.403 . S
C713 H734 0.934 . S
C714 C709 1.413 . S
C714 C713 1.403 . S
C714 H735 0.930 . S
C715 O726 1.275 . S
C715 O727 1.256 . S
O716 Ho696 2.322 . S
O716 C698 1.259 . S
O717 Ho697 2.346 . S
O717 C698 1.268 . S
O718 Ho696 2.378 . S
O718 C699 1.215 1_655 S
O719 Ho696 2.524 . S
O719 C699 1.289 1_655 S
O720 Ho696 2.381 . S
O720 C706 1.275 . S
O721 Ho696 2.669 . S
O721 Ho697 2.305 . S
O721 C706 1.256 . S
O722 Ho697 2.322 . S
O722 C707 1.259 . S
O723 Ho696 2.346 . S
O723 C707 1.268 . S
O724 Ho697 2.378 . S
O724 C708 1.215 . S
O725 Ho697 2.524 . S
O725 C708 1.289 . S
O726 Ho697 2.381 . S
O726 C715 1.275 . S
O727 Ho696 2.305 . S
O727 Ho697 2.669 . S
O727 C715 1.256 . S
H728 C701 0.930 . S
H729 C702 0.931 . S
H730 C704 0.934 . S
H731 C705 0.930 . S
H732 C710 0.930 . S
H733 C711 0.931 . S
H734 C713 0.934 . S
H735 C714 0.930 . S
Ho736 C739 2.811 . S
Ho736 O756 2.322 . S
Ho736 O758 2.378 . S
Ho736 O759 2.524 . S
Ho736 O760 2.381 . S
Ho736 O761 2.669 . S
Ho736 O763 2.346 . S
Ho736 O767 2.305 . S
Ho737 C748 2.811 . S
Ho737 O757 2.346 . S
Ho737 O761 2.305 . S
Ho737 O762 2.322 . S
Ho737 O764 2.378 . S
Ho737 O765 2.524 . S
Ho737 O766 2.381 . S
Ho737 O767 2.669 . S
C738 O756 1.259 . S
C738 O757 1.268 . S
C739 Ho736 2.811 . S
C739 C740 1.488 . S
C739 O758 1.215 . S
C739 O759 1.289 . S
C740 C739 1.488 . S
C740 C741 1.348 . S
C740 C745 1.413 . S
C741 C740 1.348 . S
C741 C742 1.442 1_455 S
C741 H768 0.930 . S
C742 C741 1.442 1_655 S
C742 C743 1.379 1_655 S
C742 H769 0.931 . S
C743 C742 1.379 1_455 S
C743 C744 1.326 . S
C744 C743 1.326 . S
C744 C745 1.403 . S
C744 H770 0.934 . S
C745 C740 1.413 . S
C745 C744 1.403 . S
C745 H771 0.930 . S
C746 O760 1.275 . S
C746 O761 1.256 . S
C747 O762 1.259 . S
C747 O763 1.268 . S
C748 Ho737 2.811 . S
C748 C749 1.488 . S
C748 O764 1.215 . S
C748 O765 1.289 . S
C749 C748 1.488 . S
C749 C750 1.348 . S
C749 C754 1.413 . S
C750 C749 1.348 . S
C750 C751 1.442 . S
C750 H772 0.930 . S
C751 C750 1.442 . S
C751 C752 1.381 . S
C751 H773 0.931 . S
C752 C751 1.381 . S
C752 C753 1.321 . S
C753 C752 1.321 . S
C753 C754 1.403 . S
C753 H774 0.934 . S
C754 C749 1.413 . S
C754 C753 1.403 . S
C754 H775 0.930 . S
C755 O766 1.275 . S
C755 O767 1.256 . S
O756 Ho736 2.322 . S
O756 C738 1.259 . S
O757 Ho737 2.346 . S
O757 C738 1.268 . S
O758 Ho736 2.378 . S
O758 C739 1.215 . S
O759 Ho736 2.524 . S
O759 C739 1.289 . S
O760 Ho736 2.381 . S
O760 C746 1.275 . S
O761 Ho736 2.669 . S
O761 Ho737 2.305 . S
O761 C746 1.256 . S
O762 Ho737 2.322 . S
O762 C747 1.259 . S
O763 Ho736 2.346 . S
O763 C747 1.268 . S
O764 Ho737 2.378 . S
O764 C748 1.215 . S
O765 Ho737 2.524 . S
O765 C748 1.289 . S
O766 Ho737 2.381 . S
O766 C755 1.275 . S
O767 Ho736 2.305 . S
O767 Ho737 2.669 . S
O767 C755 1.256 . S
H768 C741 0.930 . S
H769 C742 0.931 . S
H770 C744 0.934 . S
H771 C745 0.930 . S
H772 C750 0.930 . S
H773 C751 0.931 . S
H774 C753 0.934 . S
H775 C754 0.930 . S
Ho776 C779 2.811 . S
Ho776 O796 2.322 . S
Ho776 O798 2.378 . S
Ho776 O799 2.524 . S
Ho776 O800 2.381 . S
Ho776 O801 2.669 . S
Ho776 O803 2.346 . S
Ho776 O807 2.305 . S
Ho777 C788 2.811 . S
Ho777 O797 2.346 . S
Ho777 O801 2.305 . S
Ho777 O802 2.322 . S
Ho777 O804 2.378 . S
Ho777 O805 2.524 . S
Ho777 O806 2.381 . S
Ho777 O807 2.669 . S
C778 O796 1.259 . S
C778 O797 1.268 . S
C779 Ho776 2.811 . S
C779 C780 1.488 . S
C779 O798 1.215 . S
C779 O799 1.289 . S
C780 C779 1.488 . S
C780 C781 1.348 . S
C780 C785 1.413 . S
C781 C780 1.348 . S
C781 C782 1.442 . S
C781 H808 0.930 . S
C782 C781 1.442 . S
C782 C783 1.381 . S
C782 H809 0.931 . S
C783 C782 1.381 . S
C783 C784 1.321 . S
C784 C783 1.321 . S
C784 C785 1.403 . S
C784 H810 0.934 . S
C785 C780 1.413 . S
C785 C784 1.403 . S
C785 H811 0.930 . S
C786 O800 1.275 . S
C786 O801 1.256 . S
C787 O802 1.259 . S
C787 O803 1.268 . S
C788 Ho777 2.811 . S
C788 C789 1.499 . S
C788 O804 1.215 . S
C788 O805 1.289 . S
C789 C788 1.499 . S
C789 C790 1.345 1_655 S
C789 C794 1.405 1_655 S
C790 C789 1.345 1_455 S
C790 C791 1.442 . S
C790 H812 0.930 . S
C791 C790 1.442 . S
C791 C792 1.381 . S
C791 H813 0.931 . S
C792 C791 1.381 . S
C792 C793 1.321 . S
C793 C792 1.321 . S
C793 C794 1.403 . S
C793 H814 0.934 . S
C794 C789 1.405 1_455 S
C794 C793 1.403 . S
C794 H815 0.930 1_455 S
C795 O806 1.275 . S
C795 O807 1.256 . S
O796 Ho776 2.322 . S
O796 C778 1.259 . S
O797 Ho777 2.346 . S
O797 C778 1.268 . S
O798 Ho776 2.378 . S
O798 C779 1.215 . S
O799 Ho776 2.524 . S
O799 C779 1.289 . S
O800 Ho776 2.381 . S
O800 C786 1.275 . S
O801 Ho776 2.669 . S
O801 Ho777 2.305 . S
O801 C786 1.256 . S
O802 Ho777 2.322 . S
O802 C787 1.259 . S
O803 Ho776 2.346 . S
O803 C787 1.268 . S
O804 Ho777 2.378 . S
O804 C788 1.215 . S
O805 Ho777 2.524 . S
O805 C788 1.289 . S
O806 Ho777 2.381 . S
O806 C795 1.275 . S
O807 Ho776 2.305 . S
O807 Ho777 2.669 . S
O807 C795 1.256 . S
H808 C781 0.930 . S
H809 C782 0.931 . S
H810 C784 0.934 . S
H811 C785 0.930 . S
H812 C790 0.930 . S
H813 C791 0.931 . S
H814 C793 0.934 . S
H815 C794 0.930 1_655 S
Ho816 C819 2.811 . S
Ho816 O836 2.322 . S
Ho816 O838 2.378 . S
Ho816 O839 2.524 . S
Ho816 O840 2.381 . S
Ho816 O841 2.669 . S
Ho816 O843 2.346 . S
Ho816 O847 2.305 . S
Ho817 C828 2.811 . S
Ho817 O837 2.346 . S
Ho817 O841 2.305 . S
Ho817 O842 2.322 . S
Ho817 O844 2.378 . S
Ho817 O845 2.524 . S
Ho817 O846 2.381 . S
Ho817 O847 2.669 . S
C818 O836 1.259 . S
C818 O837 1.268 . S
C819 Ho816 2.811 . S
C819 C820 1.488 . S
C819 O838 1.215 . S
C819 O839 1.289 . S
C820 C819 1.488 . S
C820 C821 1.348 . S
C820 C825 1.413 . S
C821 C820 1.348 . S
C821 C822 1.442 . S
C821 H848 0.930 . S
C822 C821 1.442 . S
C822 C823 1.381 . S
C822 H849 0.931 . S
C823 C822 1.381 . S
C823 C824 1.317 1_655 S
C824 C823 1.317 1_455 S
C824 C825 1.400 1_455 S
C824 H850 0.942 . S
C825 C820 1.413 . S
C825 C824 1.400 1_655 S
C825 H851 0.930 . S
C826 O840 1.275 . S
C826 O841 1.256 . S
C827 O842 1.259 . S
C827 O843 1.268 . S
C828 Ho817 2.811 . S
C828 C829 1.488 . S
C828 O844 1.215 . S
C828 O845 1.289 . S
C829 C828 1.488 . S
C829 C830 1.348 . S
C829 C834 1.413 . S
C830 C829 1.348 . S
C830 C831 1.442 . S
C830 H852 0.930 . S
C831 C830 1.442 . S
C831 C832 1.381 . S
C831 H853 0.931 . S
C832 C831 1.381 . S
C832 C833 1.321 . S
C833 C832 1.321 . S
C833 C834 1.403 . S
C833 H854 0.934 . S
C834 C829 1.413 . S
C834 C833 1.403 . S
C834 H855 0.930 . S
C835 O846 1.275 . S
C835 O847 1.256 . S
O836 Ho816 2.322 . S
O836 C818 1.259 . S
O837 Ho817 2.346 . S
O837 C818 1.268 . S
O838 Ho816 2.378 . S
O838 C819 1.215 . S
O839 Ho816 2.524 . S
O839 C819 1.289 . S
O840 Ho816 2.381 . S
O840 C826 1.275 . S
O841 Ho816 2.669 . S
O841 Ho817 2.305 . S
O841 C826 1.256 . S
O842 Ho817 2.322 . S
O842 C827 1.259 . S
O843 Ho816 2.346 . S
O843 C827 1.268 . S
O844 Ho817 2.378 . S
O844 C828 1.215 . S
O845 Ho817 2.524 . S
O845 C828 1.289 . S
O846 Ho817 2.381 . S
O846 C835 1.275 . S
O847 Ho816 2.305 . S
O847 Ho817 2.669 . S
O847 C835 1.256 . S
H848 C821 0.930 . S
H849 C822 0.931 . S
H850 C824 0.942 . S
H851 C825 0.930 . S
H852 C830 0.930 . S
H853 C831 0.931 . S
H854 C833 0.934 . S
H855 C834 0.930 . S
Ho856 C859 2.811 . S
Ho856 O876 2.322 . S
Ho856 O878 2.378 . S
Ho856 O879 2.524 . S
Ho856 O880 2.381 . S
Ho856 O881 2.669 . S
Ho856 O883 2.346 . S
Ho856 O887 2.305 . S
Ho857 C868 2.811 . S
Ho857 O877 2.346 . S
Ho857 O881 2.305 . S
Ho857 O882 2.322 . S
Ho857 O884 2.378 . S
Ho857 O885 2.524 . S
Ho857 O886 2.381 . S
Ho857 O887 2.669 . S
C858 O876 1.259 . S
C858 O877 1.268 . S
C859 Ho856 2.811 . S
C859 C860 1.488 1_565 S
C859 O878 1.215 . S
C859 O879 1.289 . S
C860 C859 1.488 1_545 S
C860 C861 1.348 . S
C860 C865 1.413 . S
C861 C860 1.348 . S
C861 C862 1.442 . S
C861 H888 0.930 . S
C862 C861 1.442 . S
C862 C863 1.381 . S
C862 H889 0.931 . S
C863 C862 1.381 . S
C863 C864 1.321 . S
C864 C863 1.321 . S
C864 C865 1.403 . S
C864 H890 0.934 . S
C865 C860 1.413 . S
C865 C864 1.403 . S
C865 H891 0.930 . S
C866 O880 1.275 . S
C866 O881 1.256 . S
C867 O882 1.259 . S
C867 O883 1.268 . S
C868 Ho857 2.811 . S
C868 C869 1.488 . S
C868 O884 1.215 . S
C868 O885 1.289 . S
C869 C868 1.488 . S
C869 C870 1.348 . S
C869 C874 1.413 . S
C870 C869 1.348 . S
C870 C871 1.442 . S
C870 H892 0.930 . S
C871 C870 1.442 . S
C871 C872 1.381 . S
C871 H893 0.931 . S
C872 C871 1.381 . S
C872 C873 1.321 . S
C873 C872 1.321 . S
C873 C874 1.403 . S
C873 H894 0.934 . S
C874 C869 1.413 . S
C874 C873 1.403 . S
C874 H895 0.930 . S
C875 O886 1.275 . S
C875 O887 1.256 . S
O876 Ho856 2.322 . S
O876 C858 1.259 . S
O877 Ho857 2.346 . S
O877 C858 1.268 . S
O878 Ho856 2.378 . S
O878 C859 1.215 . S
O879 Ho856 2.524 . S
O879 C859 1.289 . S
O880 Ho856 2.381 . S
O880 C866 1.275 . S
O881 Ho856 2.669 . S
O881 Ho857 2.305 . S
O881 C866 1.256 . S
O882 Ho857 2.322 . S
O882 C867 1.259 . S
O883 Ho856 2.346 . S
O883 C867 1.268 . S
O884 Ho857 2.378 . S
O884 C868 1.215 . S
O885 Ho857 2.524 . S
O885 C868 1.289 . S
O886 Ho857 2.381 . S
O886 C875 1.275 . S
O887 Ho856 2.305 . S
O887 Ho857 2.669 . S
O887 C875 1.256 . S
H888 C861 0.930 . S
H889 C862 0.931 . S
H890 C864 0.934 . S
H891 C865 0.930 . S
H892 C870 0.930 . S
H893 C871 0.931 . S
H894 C873 0.934 . S
H895 C874 0.930 . S
Ho896 C899 2.811 . S
Ho896 O916 2.322 . S
Ho896 O918 2.378 . S
Ho896 O919 2.524 . S
Ho896 O920 2.381 . S
Ho896 O921 2.669 . S
Ho896 O923 2.346 . S
Ho896 O927 2.305 . S
Ho897 C908 2.811 . S
Ho897 O917 2.346 . S
Ho897 O921 2.305 . S
Ho897 O922 2.322 . S
Ho897 O924 2.378 . S
Ho897 O925 2.524 . S
Ho897 O926 2.381 . S
Ho897 O927 2.669 . S
C898 O916 1.259 . S
C898 O917 1.268 . S
C899 Ho896 2.811 . S
C899 C900 1.488 . S
C899 O918 1.215 . S
C899 O919 1.289 . S
C900 C899 1.488 . S
C900 C901 1.348 . S
C900 C905 1.413 . S
C901 C900 1.348 . S
C901 C902 1.442 . S
C901 H928 0.930 . S
C902 C901 1.442 . S
C902 C903 1.381 . S
C902 H929 0.931 . S
C903 C902 1.381 . S
C903 C904 1.321 . S
C904 C903 1.321 . S
C904 C905 1.403 . S
C904 H930 0.934 . S
C905 C900 1.413 . S
C905 C904 1.403 . S
C905 H931 0.930 . S
C906 O920 1.275 . S
C906 O921 1.256 . S
C907 O922 1.259 . S
C907 O923 1.268 . S
C908 Ho897 2.811 . S
C908 C909 1.488 . S
C908 O924 1.215 . S
C908 O925 1.289 . S
C909 C908 1.488 . S
C909 C910 1.348 . S
C909 C914 1.413 . S
C910 C909 1.348 . S
C910 C911 1.442 . S
C910 H932 0.930 . S
C911 C910 1.442 . S
C911 C912 1.381 . S
C911 H933 0.931 . S
C912 C911 1.381 . S
C912 C913 1.321 . S
C913 C912 1.321 . S
C913 C914 1.403 . S
C913 H934 0.934 . S
C914 C909 1.413 . S
C914 C913 1.403 . S
C914 H935 0.930 . S
C915 O926 1.275 . S
C915 O927 1.256 . S
O916 Ho896 2.322 . S
O916 C898 1.259 . S
O917 Ho897 2.346 . S
O917 C898 1.268 . S
O918 Ho896 2.378 . S
O918 C899 1.215 . S
O919 Ho896 2.524 . S
O919 C899 1.289 . S
O920 Ho896 2.381 . S
O920 C906 1.275 . S
O921 Ho896 2.669 . S
O921 Ho897 2.305 . S
O921 C906 1.256 . S
O922 Ho897 2.322 . S
O922 C907 1.259 . S
O923 Ho896 2.346 . S
O923 C907 1.268 . S
O924 Ho897 2.378 . S
O924 C908 1.215 . S
O925 Ho897 2.524 . S
O925 C908 1.289 . S
O926 Ho897 2.381 . S
O926 C915 1.275 . S
O927 Ho896 2.305 . S
O927 Ho897 2.669 . S
O927 C915 1.256 . S
H928 C901 0.930 . S
H929 C902 0.931 . S
H930 C904 0.934 . S
H931 C905 0.930 . S
H932 C910 0.930 . S
H933 C911 0.931 . S
H934 C913 0.934 . S
H935 C914 0.930 . S
Ho936 C939 2.811 1_554 S
Ho936 O956 2.322 1_554 S
Ho936 O958 2.378 1_554 S
Ho936 O959 2.524 . S
Ho936 O960 2.381 1_554 S
Ho936 O961 2.669 1_554 S
Ho936 O963 2.346 . S
Ho936 O967 2.305 . S
Ho937 C948 2.811 . S
Ho937 O957 2.346 . S
Ho937 O961 2.305 1_554 S
Ho937 O962 2.322 . S
Ho937 O964 2.378 . S
Ho937 O965 2.524 . S
Ho937 O966 2.381 . S
Ho937 O967 2.669 . S
C938 O956 1.259 1_554 S
C938 O957 1.268 . S
C939 Ho936 2.811 1_556 S
C939 C940 1.488 . S
C939 O958 1.215 . S
C939 O959 1.289 1_556 S
C940 C939 1.488 . S
C940 C941 1.348 1_556 S
C940 C945 1.413 . S
C941 C940 1.348 1_554 S
C941 C942 1.442 . S
C941 H968 0.930 . S
C942 C941 1.442 . S
C942 C943 1.381 1_554 S
C942 H969 0.931 . S
C943 C942 1.381 1_556 S
C943 C944 1.321 . S
C944 C943 1.321 . S
C944 C945 1.403 . S
C944 H970 0.934 . S
C945 C940 1.413 . S
C945 C944 1.403 . S
C945 H971 0.930 . S
C946 O960 1.275 . S
C946 O961 1.256 . S
C947 O962 1.259 . S
C947 O963 1.268 . S
C948 Ho937 2.811 . S
C948 C949 1.488 1_455 S
C948 O964 1.215 . S
C948 O965 1.289 . S
C949 C948 1.488 1_655 S
C949 C950 1.348 . S
C949 C954 1.413 . S
C950 C949 1.348 . S
C950 C951 1.442 . S
C950 H972 0.930 . S
C951 C950 1.442 . S
C951 C952 1.381 . S
C951 H973 0.931 . S
C952 C951 1.381 . S
C952 C953 1.321 . S
C953 C952 1.321 . S
C953 C954 1.403 . S
C953 H974 0.934 . S
C954 C949 1.413 . S
C954 C953 1.403 . S
C954 H975 0.930 . S
C955 O966 1.275 . S
C955 O967 1.256 . S
O956 Ho936 2.322 1_556 S
O956 C938 1.259 1_556 S
O957 Ho937 2.346 . S
O957 C938 1.268 . S
O958 Ho936 2.378 1_556 S
O958 C939 1.215 . S
O959 Ho936 2.524 . S
O959 C939 1.289 1_554 S
O960 Ho936 2.381 1_556 S
O960 C946 1.275 . S
O961 Ho936 2.669 1_556 S
O961 Ho937 2.305 1_556 S
O961 C946 1.256 . S
O962 Ho937 2.322 . S
O962 C947 1.259 . S
O963 Ho936 2.346 . S
O963 C947 1.268 . S
O964 Ho937 2.378 . S
O964 C948 1.215 . S
O965 Ho937 2.524 . S
O965 C948 1.289 . S
O966 Ho937 2.381 . S
O966 C955 1.275 . S
O967 Ho936 2.305 . S
O967 Ho937 2.669 . S
O967 C955 1.256 . S
H968 C941 0.930 . S
H969 C942 0.931 . S
H970 C944 0.934 . S
H971 C945 0.930 . S
H972 C950 0.930 . S
H973 C951 0.931 . S
H974 C953 0.934 . S
H975 C954 0.930 . S
C111 C338 3.809 . S
C64 C395 3.514 . S
C77 C418 1.869 . S
C472 C95 1.783 . S
C25 C512 3.474 . S
C543 C36 1.536 . S
C595 C50 3.841 . S
C11 C618 3.751 . S
C355 C237 3.513 . S
C245 C392 1.718 . S
C435 C279 0.951 . S
C458 C175 2.331 . S
C231 C498 2.675 . S
C546 C251 1.997 . S
C592 C273 1.154 . S
C635 C181 3.560 . S
C352 C165 3.438 . S
C288 C675 2.636 1_556 S
C707 C333 3.895 . S
C738 C316 1.307 . S
C123 C632 5.059 1_545 S
C137 C432 2.917 . S
C330 C795 2.938 . S
C818 C302 1.474 . S
C347 C63 3.825 . S
C826 C106 3.557 . S
C97 C427 2.124 . S
C81 C783 1.670 . S
C503 C13 2.907 . S
C55 C712 1.101 . S
C586 C35 3.546 1_564 S
C867 C21 3.910 . S
C346 C147 3.802 . S
C823 C321 1.085 . S
C119 C426 0.771 . S
C293 C787 2.586 . S
C153 C507 2.732 . S
C715 C315 2.111 . S
C125 C583 1.359 . S
C287 C866 3.623 . S
C193 C343 3.233 1_554 S
C176 C666 2.795 . S
C263 C538 3.773 . S
C246 C747 1.937 . S
C863 C277 4.655 . S
C221 C423 2.656 . S
C466 C260 3.105 . S
C387 C204 1.273 . S
C83 C898 3.814 . S
C835 C92 3.492 . S
C105 C938 1.848 . S
C67 C792 1.809 . S
C53 C672 3.502 . S
C703 C8 1.514 . S
C755 C22 3.788 1_455 S
C858 C39 3.796 . S
C915 C265 3.483 . S
C189 C832 1.702 . S
C955 C209 0.976 . S
C778 C217 2.337 . S
C658 C259 2.650 . S
C195 C706 1.969 . S
C752 C203 1.241 . S
C223 C875 3.546 . S
C912 C319 3.411 . S
C134 C515 2.647 . S
C547 C151 3.906 . S
C578 C162 1.317 . S
C872 C305 4.925 . S
C291 C952 2.902 1_556 S
C475 C148 2.946 . S
C378 C120 1.478 . S
C91 C907 3.826 . S
C386 C78 3.543 . S
C69 C947 2.125 . S
C109 C463 1.702 . S
C41 C663 2.898 . S
C552 C27 1.044 . S
C7 C746 3.508 . S
C49 C627 3.959 . S
C906 C329 3.791 . S
C167 C383 1.089 . S
C946 C301 0.869 . S
C139 C467 2.592 . S
C335 C667 2.725 . S
C555 C161 2.016 . S
C307 C743 1.313 . S
C626 C133 3.614 . S
C903 C249 3.217 . S
C506 C218 2.809 1_445 S
C235 C698 3.760 . S
C587 C190 1.985 . S
C207 C623 4.589 . S
C179 C943 2.658 1_554 S
C786 C232 3.066 . S
C827 C274 1.273 . S
