# Generated by pormake.
# Topology pyr, (3,6)-cn, num edge types: 1
# Building blocks:
#     Node 0, Type 0, BuildingBlock: WUSLED_clean_sbu_0, # of connection points: 3
#     Node 1, Type 0, BuildingBlock: WUSLED_clean_sbu_0, # of connection points: 3
#     Node 2, Type 0, BuildingBlock: WUSLED_clean_sbu_0, # of connection points: 3
#     Node 3, Type 0, BuildingBlock: WUSLED_clean_sbu_0, # of connection points: 3
#     Node 4, Type 0, BuildingBlock: WUSLED_clean_sbu_0, # of connection points: 3
#     Node 5, Type 0, BuildingBlock: WUSLED_clean_sbu_0, # of connection points: 3
#     Node 6, Type 0, BuildingBlock: WUSLED_clean_sbu_0, # of connection points: 3
#     Node 7, Type 0, BuildingBlock: WUSLED_clean_sbu_0, # of connection points: 3
#     Node 8, Type 1, BuildingBlock: MIFKUJ_clean_sbu_0, # of connection points: 6
#     Node 9, Type 1, BuildingBlock: MIFKUJ_clean_sbu_0, # of connection points: 6
#     Node 10, Type 1, BuildingBlock: MIFKUJ_clean_sbu_0, # of connection points: 6
#     Node 11, Type 1, BuildingBlock: MIFKUJ_clean_sbu_0, # of connection points: 6
#     Edge 12, Type (0, 1), BuildingBlock: TEMPAE_clean_linker_10, # of connection points: 2
#     Edge 13, Type (0, 1), BuildingBlock: TEMPAE_clean_linker_10, # of connection points: 2
#     Edge 14, Type (0, 1), BuildingBlock: TEMPAE_clean_linker_10, # of connection points: 2
#     Edge 15, Type (0, 1), BuildingBlock: TEMPAE_clean_linker_10, # of connection points: 2
#     Edge 16, Type (0, 1), BuildingBlock: TEMPAE_clean_linker_10, # of connection points: 2
#     Edge 17, Type (0, 1), BuildingBlock: TEMPAE_clean_linker_10, # of connection points: 2
#     Edge 18, Type (0, 1), BuildingBlock: TEMPAE_clean_linker_10, # of connection points: 2
#     Edge 19, Type (0, 1), BuildingBlock: TEMPAE_clean_linker_10, # of connection points: 2
#     Edge 20, Type (0, 1), BuildingBlock: TEMPAE_clean_linker_10, # of connection points: 2
#     Edge 21, Type (0, 1), BuildingBlock: TEMPAE_clean_linker_10, # of connection points: 2
#     Edge 22, Type (0, 1), BuildingBlock: TEMPAE_clean_linker_10, # of connection points: 2
#     Edge 23, Type (0, 1), BuildingBlock: TEMPAE_clean_linker_10, # of connection points: 2
#     Edge 24, Type (0, 1), BuildingBlock: TEMPAE_clean_linker_10, # of connection points: 2
#     Edge 25, Type (0, 1), BuildingBlock: TEMPAE_clean_linker_10, # of connection points: 2
#     Edge 26, Type (0, 1), BuildingBlock: TEMPAE_clean_linker_10, # of connection points: 2
#     Edge 27, Type (0, 1), BuildingBlock: TEMPAE_clean_linker_10, # of connection points: 2
#     Edge 28, Type (0, 1), BuildingBlock: TEMPAE_clean_linker_10, # of connection points: 2
#     Edge 29, Type (0, 1), BuildingBlock: TEMPAE_clean_linker_10, # of connection points: 2
#     Edge 30, Type (0, 1), BuildingBlock: TEMPAE_clean_linker_10, # of connection points: 2
#     Edge 31, Type (0, 1), BuildingBlock: TEMPAE_clean_linker_10, # of connection points: 2
#     Edge 32, Type (0, 1), BuildingBlock: TEMPAE_clean_linker_10, # of connection points: 2
#     Edge 33, Type (0, 1), BuildingBlock: TEMPAE_clean_linker_10, # of connection points: 2
#     Edge 34, Type (0, 1), BuildingBlock: TEMPAE_clean_linker_10, # of connection points: 2
#     Edge 35, Type (0, 1), BuildingBlock: TEMPAE_clean_linker_10, # of connection points: 2
# Relax obj value: 0.025
# Max RMSD: 0.081
# Mean RMSD: 0.045
data_MOF--net-pyr--node1-WUSLED_clean_sbu_0--node2-MIFKUJ_clean_sbu_0--edge1-TEMPAE_clean_linker_10
_symmetry_space_group_name_H-M    P1
_symmetry_Int_Tables_number       1
_symmetry_cell_setting            triclinic
loop_
_symmetry_equiv_pos_as_xyz
'x, y, z'
_cell_length_a     51.014171
_cell_length_b     46.150253
_cell_length_c     49.724228
_cell_angle_alpha  86.178134
_cell_angle_beta   89.146761
_cell_angle_gamma 95.667768
loop_
_atom_site_label
_atom_site_type_symbol
_atom_site_fract_x
_atom_site_fract_y
_atom_site_fract_z
_atom_type_partial_charge
C0 C 0.18944 0.2327 0.1458 0.0
C1 C 0.17312 0.2459 0.1633 0.0
C2 C 0.15934 0.27709 0.12579 0.0
C3 C 0.15828 0.26803 0.15339 0.0
C4 C 0.17562 0.26364 0.10835 0.0
C5 C 0.19057 0.24165 0.1183 0.0
U6 U 0.20191 0.17406 0.19978 0.0
O7 O 0.21145 0.12898 0.1961 0.0
O8 O 0.23874 0.16001 0.21613 0.0
C9 C 0.23482 0.13408 0.20658 0.0
C10 C 0.20473 0.20906 0.15586 0.0
C11 C 0.2569 0.12527 0.19078 0.0
C12 C 0.28982 0.13496 0.15463 0.0
C13 C 0.2686 0.14352 0.16928 0.0
C14 C 0.28754 0.08965 0.18256 0.0
C15 C 0.29953 0.10793 0.16113 0.0
C16 C 0.26642 0.09829 0.19726 0.0
C17 C 0.15665 0.16423 0.26287 0.0
C18 C 0.14041 0.12066 0.29076 0.0
C19 C 0.14327 0.16792 0.30955 0.0
C20 C 0.15318 0.18109 0.28485 0.0
C21 C 0.1364 0.13758 0.31271 0.0
C22 C 0.15052 0.13382 0.26613 0.0
C23 C 0.16552 0.17895 0.23657 0.0
O24 O 0.21884 0.21434 0.17724 0.0
O25 O 0.1918 0.18292 0.15738 0.0
O26 O 0.16133 0.16379 0.2153 0.0
O27 O 0.18875 0.19413 0.236 0.0
H28 H 0.17181 0.23901 0.18458 0.0
H29 H 0.14574 0.2778 0.16726 0.0
H30 H 0.17708 0.27041 0.08706 0.0
H31 H 0.203 0.23159 0.10452 0.0
H32 H 0.29848 0.14937 0.13807 0.0
H33 H 0.26135 0.16438 0.16388 0.0
H34 H 0.29476 0.06887 0.18826 0.0
H35 H 0.25761 0.08396 0.21381 0.0
H36 H 0.13506 0.0973 0.29232 0.0
H37 H 0.14089 0.18156 0.32613 0.0
H38 H 0.15783 0.20456 0.28282 0.0
H39 H 0.15305 0.12021 0.24954 0.0
C40 C 0.28351 0.85726 0.6437 0.0
C41 C 0.27918 0.88523 0.65113 0.0
C42 C 0.23796 0.8829 0.62669 0.0
C43 C 0.25663 0.89797 0.64265 0.0
C44 C 0.24233 0.8547 0.61966 0.0
C45 C 0.2649 0.84206 0.62806 0.0
U46 U 0.34263 0.8494 0.68952 0.0
O47 O 0.35912 0.80971 0.70563 0.0
O48 O 0.38331 0.84176 0.67883 0.0
C49 C 0.38132 0.81582 0.69171 0.0
C50 C 0.30731 0.8436 0.65184 0.0
C51 C 0.38996 0.79216 0.67634 0.0
C52 C 0.38081 0.7525 0.64696 0.0
C53 C 0.37219 0.77513 0.66112 0.0
C54 C 0.42511 0.76405 0.66265 0.0
C55 C 0.40738 0.74668 0.64759 0.0
C56 C 0.41645 0.78653 0.67692 0.0
C57 C 0.35538 0.89752 0.74871 0.0
C58 C 0.37414 0.88674 0.79257 0.0
C59 C 0.38072 0.9358 0.77148 0.0
C60 C 0.36599 0.92671 0.74949 0.0
C61 C 0.38489 0.91592 0.79329 0.0
C62 C 0.35963 0.87759 0.77048 0.0
C63 C 0.33984 0.88844 0.72523 0.0
O64 O 0.32974 0.86021 0.64839 0.0
O65 O 0.30547 0.82802 0.67502 0.0
O66 O 0.32667 0.86239 0.7277 0.0
O67 O 0.35155 0.89441 0.70149 0.0
H68 H 0.29332 0.89729 0.66329 0.0
H69 H 0.25405 0.91982 0.64822 0.0
H70 H 0.22819 0.84224 0.60783 0.0
H71 H 0.26785 0.82037 0.62228 0.0
H72 H 0.36675 0.73973 0.63529 0.0
H73 H 0.35168 0.77931 0.66024 0.0
H74 H 0.44563 0.75994 0.66375 0.0
H75 H 0.43044 0.79947 0.68855 0.0
H76 H 0.37732 0.87083 0.80891 0.0
H77 H 0.3886 0.95846 0.77156 0.0
H78 H 0.36289 0.94252 0.73303 0.0
H79 H 0.35185 0.8549 0.7705 0.0
C80 C 0.62482 0.36722 0.77244 0.0
C81 C 0.64306 0.38697 0.7575 0.0
C82 C 0.6092 0.39788 0.72523 0.0
C83 C 0.63532 0.40217 0.73407 0.0
C84 C 0.59098 0.37836 0.74061 0.0
C85 C 0.59875 0.36318 0.76394 0.0
U86 U 0.67185 0.35212 0.83022 0.0
O87 O 0.6627 0.33749 0.8726 0.0
O88 O 0.68385 0.31021 0.84696 0.0
C89 C 0.67252 0.31243 0.87054 0.0
C90 C 0.63254 0.35025 0.79664 0.0
C91 C 0.65587 0.28644 0.88155 0.0
C92 C 0.61557 0.25354 0.88203 0.0
C93 C 0.6311 0.27832 0.87092 0.0
C94 C 0.64953 0.24487 0.91433 0.0
C95 C 0.62459 0.23658 0.90396 0.0
C96 C 0.66497 0.26957 0.90323 0.0
C97 C 0.73539 0.40028 0.83957 0.0
C98 C 0.77086 0.385 0.86766 0.0
C99 C 0.76878 0.4363 0.85499 0.0
C100 C 0.74594 0.42938 0.84055 0.0
C101 C 0.78164 0.4142 0.86864 0.0
C102 C 0.7479 0.37813 0.85338 0.0
C103 C 0.7111 0.39342 0.82457 0.0
O104 O 0.65332 0.33591 0.79377 0.0
O105 O 0.63224 0.36341 0.81927 0.0
O106 O 0.68905 0.39651 0.83759 0.0
O107 O 0.71002 0.36945 0.81157 0.0
H108 H 0.66331 0.3904 0.76381 0.0
H109 H 0.6499 0.41685 0.72261 0.0
H110 H 0.57062 0.37491 0.73472 0.0
H111 H 0.58437 0.34814 0.77531 0.0
H112 H 0.59639 0.24788 0.87371 0.0
H113 H 0.62378 0.29117 0.85415 0.0
H114 H 0.65728 0.23205 0.93085 0.0
H115 H 0.6841 0.27548 0.91159 0.0
H116 H 0.78034 0.36737 0.87763 0.0
H117 H 0.77618 0.45905 0.85569 0.0
H118 H 0.73641 0.44679 0.83025 0.0
H119 H 0.73996 0.3555 0.85308 0.0
C120 C 0.7932 0.61384 0.31745 0.0
C121 C 0.7862 0.6299 0.33897 0.0
C122 C 0.7469 0.59613 0.34824 0.0
C123 C 0.76322 0.62114 0.35422 0.0
C124 C 0.75404 0.58015 0.32659 0.0
C125 C 0.77702 0.58897 0.31131 0.0
U126 U 0.85459 0.66586 0.30528 0.0
O127 O 0.89532 0.65851 0.29513 0.0
O128 O 0.87352 0.68605 0.26755 0.0
C129 C 0.89474 0.67238 0.27119 0.0
C130 C 0.81739 0.62298 0.30153 0.0
C131 C 0.90278 0.65628 0.24836 0.0
C132 C 0.90529 0.61082 0.22685 0.0
C133 C 0.89707 0.62588 0.24843 0.0
C134 C 0.92431 0.65646 0.20446 0.0
C135 C 0.91912 0.6259 0.20462 0.0
C136 C 0.91629 0.67146 0.22618 0.0
C137 C 0.86585 0.72668 0.35441 0.0
C138 C 0.89562 0.77118 0.348 0.0
C139 C 0.87693 0.75565 0.39234 0.0
C140 C 0.86346 0.73127 0.38185 0.0
C141 C 0.89304 0.77597 0.37553 0.0
C142 C 0.88221 0.74661 0.33752 0.0
C143 C 0.85074 0.70118 0.34404 0.0
O144 O 0.81757 0.64826 0.28766 0.0
O145 O 0.83936 0.61994 0.3144 0.0
O146 O 0.86149 0.67649 0.34724 0.0
O147 O 0.84016 0.70523 0.3203 0.0
H148 H 0.79858 0.64916 0.344 0.0
H149 H 0.75844 0.63371 0.37094 0.0
H150 H 0.7417 0.561 0.32127 0.0
H151 H 0.78215 0.57639 0.29471 0.0
H152 H 0.90121 0.5873 0.22785 0.0
H153 H 0.88646 0.61372 0.26528 0.0
H154 H 0.93447 0.66886 0.18748 0.0
H155 H 0.92065 0.69496 0.22565 0.0
H156 H 0.90805 0.78637 0.33462 0.0
H157 H 0.87422 0.75894 0.41353 0.0
H158 H 0.8509 0.71611 0.39515 0.0
H159 H 0.88443 0.7433 0.31627 0.0
C160 C 0.83435 0.77928 0.8734 0.0
C161 C 0.86141 0.77978 0.86751 0.0
C162 C 0.86303 0.73426 0.89476 0.0
C163 C 0.87566 0.75755 0.87825 0.0
C164 C 0.83584 0.73361 0.90026 0.0
C165 C 0.82164 0.75601 0.88972 0.0
U166 U 0.82489 0.83886 0.81937 0.0
O167 O 0.78914 0.85305 0.80056 0.0
O168 O 0.81487 0.8838 0.82263 0.0
C169 C 0.79224 0.87877 0.81067 0.0
C170 C 0.81926 0.8028 0.86252 0.0
C171 C 0.76928 0.88746 0.82526 0.0
C172 C 0.73224 0.87624 0.85681 0.0
C173 C 0.75356 0.86733 0.84256 0.0
C174 C 0.74237 0.92552 0.83688 0.0
C175 C 0.72651 0.90548 0.85422 0.0
C176 C 0.76353 0.91655 0.8225 0.0
C177 C 0.87476 0.85018 0.76044 0.0
C178 C 0.87162 0.88593 0.72282 0.0
C179 C 0.9097 0.85848 0.72638 0.0
C180 C 0.89907 0.84384 0.75016 0.0
C181 C 0.89612 0.87972 0.71242 0.0
C182 C 0.86102 0.87128 0.74668 0.0
C183 C 0.86427 0.83484 0.7857 0.0
O184 O 0.83143 0.82928 0.86244 0.0
O185 O 0.80701 0.79773 0.83998 0.0
O186 O 0.84118 0.81971 0.78422 0.0
O187 O 0.86643 0.8501 0.80708 0.0
H188 H 0.87153 0.7974 0.85466 0.0
H189 H 0.89652 0.7584 0.87343 0.0
H190 H 0.82565 0.71601 0.91308 0.0
H191 H 0.80076 0.75523 0.89438 0.0
H192 H 0.72052 0.8604 0.87022 0.0
H193 H 0.75787 0.84481 0.84521 0.0
H194 H 0.73826 0.94811 0.83428 0.0
H195 H 0.77551 0.93239 0.8093 0.0
H196 H 0.86056 0.90196 0.71242 0.0
H197 H 0.92878 0.85351 0.7192 0.0
H198 H 0.90997 0.8277 0.76065 0.0
H199 H 0.84218 0.87641 0.75441 0.0
C200 C 0.64218 0.16854 0.27445 0.0
C201 C 0.63332 0.13866 0.27472 0.0
C202 C 0.62314 0.14393 0.22702 0.0
C203 C 0.62383 0.12653 0.25127 0.0
C204 C 0.63258 0.17362 0.22664 0.0
C205 C 0.64187 0.18581 0.25013 0.0
U206 U 0.68735 0.17807 0.33529 0.0
O207 O 0.70295 0.21829 0.35345 0.0
O208 O 0.67727 0.18493 0.37738 0.0
C209 C 0.6896 0.21138 0.37617 0.0
C210 C 0.65049 0.18244 0.29937 0.0
C211 C 0.67433 0.23416 0.38584 0.0
C212 C 0.63608 0.26171 0.38374 0.0
C213 C 0.65047 0.24014 0.374 0.0
C214 C 0.66939 0.2716 0.41706 0.0
C215 C 0.64541 0.27772 0.40538 0.0
C216 C 0.68368 0.25001 0.40737 0.0
C217 C 0.74478 0.13113 0.34512 0.0
C218 C 0.77599 0.13673 0.38135 0.0
C219 C 0.7794 0.09884 0.35038 0.0
C220 C 0.75756 0.10774 0.33665 0.0
C221 C 0.7889 0.11319 0.37292 0.0
C222 C 0.75406 0.1456 0.36758 0.0
C223 C 0.72195 0.14016 0.33018 0.0
O224 O 0.647 0.16622 0.32216 0.0
O225 O 0.67308 0.19893 0.29787 0.0
O226 O 0.72484 0.16672 0.31854 0.0
O227 O 0.69892 0.13355 0.34242 0.0
H228 H 0.63333 0.12469 0.2931 0.0
H229 H 0.61692 0.10352 0.25212 0.0
H230 H 0.63202 0.18767 0.20835 0.0
H231 H 0.64839 0.20892 0.2494 0.0
H232 H 0.61782 0.26609 0.37415 0.0
H233 H 0.643 0.22812 0.35727 0.0
H234 H 0.67694 0.28322 0.43398 0.0
H235 H 0.70202 0.2456 0.41679 0.0
H236 H 0.78266 0.14808 0.39876 0.0
H237 H 0.7891 0.08095 0.34308 0.0
H238 H 0.7507 0.0964 0.31929 0.0
H239 H 0.74435 0.1637 0.37443 0.0
C240 C 0.29455 0.61356 0.19433 0.0
C241 C 0.29638 0.61056 0.16641 0.0
C242 C 0.24894 0.59815 0.1648 0.0
C243 C 0.27382 0.60275 0.15184 0.0
C244 C 0.2471 0.60154 0.19264 0.0
C245 C 0.2697 0.60905 0.20726 0.0
U246 U 0.35759 0.66266 0.20426 0.0
O247 O 0.37458 0.68085 0.24068 0.0
O248 O 0.39686 0.65246 0.2173 0.0
C249 C 0.39574 0.66687 0.23913 0.0
C250 C 0.31815 0.62164 0.21017 0.0
C251 C 0.40338 0.65143 0.26419 0.0
C252 C 0.39384 0.61612 0.30246 0.0
C253 C 0.38586 0.63048 0.27868 0.0
C254 C 0.43689 0.64341 0.29727 0.0
C255 C 0.41947 0.6225 0.31209 0.0
C256 C 0.4289 0.65772 0.27361 0.0
C257 C 0.37601 0.72553 0.15064 0.0
C258 C 0.40534 0.76955 0.15586 0.0
C259 C 0.39308 0.75581 0.11123 0.0
C260 C 0.37781 0.73112 0.12261 0.0
C261 C 0.40678 0.77556 0.1277 0.0
C262 C 0.39014 0.74471 0.16723 0.0
C263 C 0.35878 0.70004 0.16199 0.0
O264 O 0.34101 0.61762 0.19917 0.0
O265 O 0.3184 0.64655 0.22159 0.0
O266 O 0.34613 0.70343 0.18463 0.0
O267 O 0.36853 0.67475 0.16166 0.0
H268 H 0.31523 0.61421 0.15579 0.0
H269 H 0.2758 0.60056 0.13037 0.0
H270 H 0.22822 0.59786 0.20321 0.0
H271 H 0.26779 0.61129 0.22874 0.0
H272 H 0.37986 0.60032 0.31347 0.0
H273 H 0.36606 0.6253 0.27163 0.0
H274 H 0.4569 0.64849 0.30377 0.0
H275 H 0.44273 0.6737 0.26258 0.0
H276 H 0.41544 0.78439 0.16915 0.0
H277 H 0.39414 0.75942 0.08948 0.0
H278 H 0.36717 0.71647 0.10948 0.0
H279 H 0.38912 0.74072 0.18896 0.0
C280 C 0.12408 0.28456 0.71723 0.0
C281 C 0.14297 0.27031 0.70382 0.0
C282 C 0.1083 0.23793 0.68535 0.0
C283 C 0.13516 0.24712 0.68815 0.0
C284 C 0.08941 0.25223 0.69885 0.0
C285 C 0.09727 0.27536 0.71472 0.0
U286 U 0.17536 0.34624 0.72855 0.0
O287 O 0.17257 0.39241 0.73537 0.0
O288 O 0.1913 0.36455 0.76537 0.0
C289 C 0.18274 0.39012 0.75947 0.0
C290 C 0.13237 0.31006 0.73239 0.0
C291 C 0.16779 0.40164 0.78111 0.0
C292 C 0.12729 0.40293 0.8071 0.0
C293 C 0.14126 0.39159 0.78647 0.0
C294 C 0.16634 0.43424 0.81732 0.0
C295 C 0.13966 0.42443 0.82275 0.0
C296 C 0.18025 0.42294 0.79667 0.0
C297 C 0.23684 0.35271 0.683 0.0
C298 C 0.27066 0.39352 0.68343 0.0
C299 C 0.27518 0.35512 0.6532 0.0
C300 C 0.25124 0.34073 0.66306 0.0
C301 C 0.28507 0.38179 0.66313 0.0
C302 C 0.24672 0.37907 0.6933 0.0
C303 C 0.21122 0.33795 0.69222 0.0
O304 O 0.15271 0.30723 0.74797 0.0
O305 O 0.13397 0.33518 0.71808 0.0
O306 O 0.19095 0.35272 0.68695 0.0
O307 O 0.21039 0.3254 0.71678 0.0
H308 H 0.16377 0.27741 0.70515 0.0
H309 H 0.15015 0.23685 0.67766 0.0
H310 H 0.06859 0.2455 0.69714 0.0
H311 H 0.08243 0.28629 0.72476 0.0
H312 H 0.10671 0.39513 0.81055 0.0
H313 H 0.13136 0.37509 0.77463 0.0
H314 H 0.17658 0.45042 0.82924 0.0
H315 H 0.20078 0.4308 0.79286 0.0
H316 H 0.27792 0.41384 0.6917 0.0
H317 H 0.28565 0.3457 0.63736 0.0
H318 H 0.24379 0.32042 0.65485 0.0
H319 H 0.2358 0.38855 0.70878 0.0
Zn320 Zn 0.04695 0.02314 0.5408 0.0
Zn321 Zn 0.98326 0.0056 0.48833 0.0
C322 C 0.06849 0.07882 0.55809 0.0
O323 O 0.08474 0.07768 0.53752 0.0
C324 C 0.95422 0.95645 0.46902 0.0
O325 O 0.93657 0.9661 0.48477 0.0
O326 O 0.07758 1.00024 0.55144 0.0
O327 O 0.01269 1.00015 0.55282 0.0
O328 O 0.97793 0.99104 0.52724 0.0
C329 C 0.07543 0.97487 0.56346 0.0
O330 O 0.05184 0.96147 0.56893 0.0
O331 O 0.05035 0.05815 0.56299 0.0
C332 C 0.95195 0.03781 0.45272 0.0
O333 O 0.96945 0.03016 0.43558 0.0
O334 O 0.95413 0.0306 0.47767 0.0
O335 O 0.01799 0.02712 0.47594 0.0
O336 O 0.05243 0.03737 0.5017 0.0
O337 O 0.97716 0.97003 0.46703 0.0
C338 C 0.98922 0.98897 0.5498 0.0
C339 C 0.04145 0.03834 0.47891 0.0
Zn340 Zn 0.5336 0.98667 0.9893 0.0
Zn341 Zn 0.49844 0.02778 0.03478 0.0
C342 C 0.50195 0.95987 0.95041 0.0
O343 O 0.51484 0.93835 0.96015 0.0
C344 C 0.52851 0.06969 0.06466 0.0
O345 O 0.5131 0.08685 0.05176 0.0
O346 O 0.56523 0.97011 0.97365 0.0
O347 O 0.54626 0.02845 0.99547 0.0
O348 O 0.50779 0.04595 0.99726 0.0
C349 C 0.57323 0.9798 0.9501 0.0
O350 O 0.56092 1.00021 0.93744 0.0
O351 O 0.50607 0.98461 0.9603 0.0
C352 C 0.45945 0.0392 0.07251 0.0
O353 O 0.47519 0.02503 0.08809 0.0
O354 O 0.46508 0.04337 0.04746 0.0
O355 O 0.49208 0.98416 0.04238 0.0
O356 O 0.51944 0.95921 0.02031 0.0
O357 O 0.52674 0.04282 0.05992 0.0
C358 C 0.53188 0.04884 0.98976 0.0
C359 C 0.50135 0.96031 0.03795 0.0
Zn360 Zn 0.54563 0.49586 0.49334 0.0
Zn361 Zn 0.48575 0.5234 0.54259 0.0
C362 C 0.57983 0.52191 0.45219 0.0
O363 O 0.56043 0.50961 0.43849 0.0
C364 C 0.45067 0.49322 0.58157 0.0
O365 O 0.468 0.5064 0.59713 0.0
O366 O 0.54815 0.45646 0.47806 0.0
O367 O 0.54905 0.49137 0.53388 0.0
O368 O 0.51721 0.50623 0.55889 0.0
C369 C 0.55816 0.43593 0.49139 0.0
O370 O 0.56458 0.43933 0.51654 0.0
O371 O 0.57812 0.51982 0.4778 0.0
C372 C 0.46442 0.5777 0.54955 0.0
O373 O 0.45086 0.56948 0.52864 0.0
O374 O 0.4816 0.56177 0.55891 0.0
O375 O 0.48331 0.52974 0.50222 0.0
O376 O 0.51483 0.51461 0.47692 0.0
O377 O 0.45407 0.49681 0.55615 0.0
C378 C 0.53892 0.49513 0.55675 0.0
C379 C 0.49349 0.52643 0.47927 0.0
Zn380 Zn 0.98301 0.52089 0.98884 0.0
Zn381 Zn 0.04625 0.49829 0.03841 0.0
C382 C 0.95031 0.47578 0.9623 0.0
O383 O 0.97255 0.47103 0.9505 0.0
C384 C 0.08282 0.51972 0.07543 0.0
O385 O 0.06618 0.5019 0.09062 0.0
O386 O 0.97487 0.5599 0.97225 0.0
O387 O 0.9846 0.52476 0.02898 0.0
O388 O 0.01532 0.51228 0.05751 0.0
C389 C 0.95402 0.56912 0.98134 0.0
O390 O 0.94048 0.55353 1.00086 0.0
O391 O 0.95066 0.4943 0.98017 0.0
C392 C 0.07479 0.45023 0.04553 0.0
O393 O 0.09002 0.46848 0.02929 0.0
O394 O 0.05242 0.45753 0.05261 0.0
O395 O 0.04616 0.49794 0.99786 0.0
O396 O 0.01486 0.509 0.96953 0.0
O397 O 0.07833 0.52338 0.05037 0.0
C398 C 0.99352 0.52254 0.05269 0.0
C399 C 0.03756 0.50083 0.97405 0.0
C400 C 0.10547 0.13766 0.35245 0.0
C401 C 0.12418 0.12374 0.33841 0.0
C402 C 0.09287 0.12436 0.37603 0.0
C403 C 0.09888 0.09629 0.38571 0.0
C404 C 0.11799 0.08227 0.37192 0.0
C405 C 0.13051 0.09622 0.34853 0.0
C406 C 0.07271 0.1401 0.39028 0.0
C407 C 0.12486 0.05229 0.38159 0.0
C408 C 0.08029 0.07011 0.45824 0.0
C409 C 0.05635 0.05299 0.4551 0.0
C410 C 0.09437 0.08435 0.43585 0.0
C411 C 0.0844 0.08117 0.40968 0.0
C412 C 0.06039 0.06374 0.40634 0.0
C413 C 0.04661 0.04999 0.42908 0.0
C414 C 0.11976 0.103 0.44021 0.0
C415 C 0.04923 0.05962 0.37873 0.0
H416 H 0.10012 0.1587 0.34462 0.0
H417 H 0.14524 0.08549 0.33811 0.0
H418 H 0.05302 0.12763 0.38961 0.0
H419 H 0.07769 0.14157 0.41183 0.0
H420 H 0.07141 0.16249 0.38106 0.0
H421 H 0.14062 0.04467 0.36897 0.0
H422 H 0.13146 0.05236 0.40274 0.0
H423 H 0.10711 0.03635 0.38127 0.0
H424 H 0.08795 0.07266 0.47825 0.0
H425 H 0.02822 0.0367 0.4264 0.0
H426 H 0.11813 0.12578 0.43225 0.0
H427 H 0.13618 0.09491 0.42895 0.0
H428 H 0.12487 0.10317 0.46185 0.0
H429 H 0.04546 0.08104 0.36887 0.0
H430 H 0.03055 0.04499 0.37956 0.0
H431 H 0.06372 0.05028 0.36581 0.0
C432 C 0.42505 0.94226 0.81235 0.0
C433 C 0.40076 0.92535 0.81658 0.0
C434 C 0.44099 0.94981 0.83411 0.0
C435 C 0.43232 0.94046 0.86077 0.0
C436 C 0.40742 0.9242 0.86519 0.0
C437 C 0.39202 0.91672 0.84305 0.0
C438 C 0.46753 0.96687 0.82851 0.0
C439 C 0.39734 0.91409 0.8933 0.0
C440 C 0.48392 0.92974 0.91379 0.0
C441 C 0.48392 0.95527 0.92762 0.0
C442 C 0.46736 0.92483 0.89195 0.0
C443 C 0.45008 0.9458 0.88383 0.0
C444 C 0.44984 0.97158 0.89777 0.0
C445 C 0.46689 0.97611 0.91942 0.0
C446 C 0.46847 0.8972 0.87748 0.0
C447 C 0.43148 0.99427 0.88988 0.0
H448 H 0.43199 0.94878 0.79192 0.0
H449 H 0.37309 0.90398 0.84643 0.0
H450 H 0.46952 0.98642 0.84042 0.0
H451 H 0.48336 0.95319 0.83483 0.0
H452 H 0.47069 0.974 0.80683 0.0
H453 H 0.37678 0.90356 0.89344 0.0
H454 H 0.41012 0.89818 0.90247 0.0
H455 H 0.39812 0.93281 0.90625 0.0
H456 H 0.4971 0.91359 0.91985 0.0
H457 H 0.46674 0.99585 0.93004 0.0
H458 H 0.47335 0.90269 0.8558 0.0
H459 H 0.44891 0.88428 0.87871 0.0
H460 H 0.48332 0.88331 0.88602 0.0
H461 H 0.43546 1.0026 0.86862 0.0
H462 H 0.43353 0.01301 0.90286 0.0
H463 H 0.41076 0.98429 0.89126 0.0
C464 C 0.60947 0.44294 0.69366 0.0
C465 C 0.60087 0.41339 0.69998 0.0
C466 C 0.60103 0.45789 0.67028 0.0
C467 C 0.58353 0.44297 0.65283 0.0
C468 C 0.57509 0.41306 0.65889 0.0
C469 C 0.5839 0.39866 0.6823 0.0
C470 C 0.61052 0.48975 0.66448 0.0
C471 C 0.55649 0.39632 0.64079 0.0
C472 C 0.53914 0.48461 0.60694 0.0
C473 C 0.55165 0.48414 0.58164 0.0
C474 C 0.54967 0.47199 0.63034 0.0
C475 C 0.57341 0.45866 0.62853 0.0
C476 C 0.58665 0.45897 0.60326 0.0
C477 C 0.57562 0.47167 0.58014 0.0
C478 C 0.53491 0.4721 0.65689 0.0
C479 C 0.61207 0.44512 0.6005 0.0
H480 H 0.62237 0.45459 0.7073 0.0
H481 H 0.57754 0.3757 0.68672 0.0
H482 H 0.61986 0.4933 0.64408 0.0
H483 H 0.59352 0.503 0.66464 0.0
H484 H 0.62493 0.49789 0.67944 0.0
H485 H 0.5521 0.37305 0.64814 0.0
H486 H 0.53767 0.40646 0.63945 0.0
H487 H 0.56508 0.39726 0.62008 0.0
H488 H 0.52067 0.49421 0.60844 0.0
H489 H 0.58559 0.47132 0.56079 0.0
H490 H 0.5481 0.48161 0.67224 0.0
H491 H 0.52818 0.44935 0.66437 0.0
H492 H 0.51745 0.48466 0.65515 0.0
H493 H 0.62665 0.45394 0.61496 0.0
H494 H 0.62079 0.44883 0.57981 0.0
H495 H 0.60844 0.42125 0.60548 0.0
C496 C 0.9533 0.61813 0.16967 0.0
C497 C 0.9285 0.60977 0.18194 0.0
C498 C 0.96257 0.60304 0.14848 0.0
C499 C 0.94685 0.57869 0.13951 0.0
C500 C 0.92185 0.57004 0.15178 0.0
C501 C 0.91291 0.58578 0.17273 0.0
C502 C 0.98929 0.61308 0.13577 0.0
C503 C 0.9046 0.5441 0.14284 0.0
C504 C 0.96277 0.55669 0.06934 0.0
C505 C 0.97944 0.53472 0.07494 0.0
C506 C 0.95148 0.5707 0.09017 0.0
C507 C 0.95676 0.56233 0.1173 0.0
C508 C 0.97275 0.5394 0.12314 0.0
C509 C 0.98409 0.52603 0.10187 0.0
C510 C 0.93482 0.5953 0.08308 0.0
C511 C 0.97851 0.52956 0.15182 0.0
H512 H 0.96571 0.63628 0.1769 0.0
H513 H 0.89356 0.57939 0.18176 0.0
H514 H 1.0025 0.59545 0.13847 0.0
H515 H 0.98739 0.61791 0.11376 0.0
H516 H 0.99875 0.6329 0.14459 0.0
H517 H 0.88581 0.53996 0.15469 0.0
H518 H 0.89997 0.54766 0.12122 0.0
H519 H 0.91525 0.52426 0.14494 0.0
H520 H 0.95945 0.56388 0.04862 0.0
H521 H 0.99688 0.509 0.10635 0.0
H522 H 0.9448 0.61608 0.08954 0.0
H523 H 0.91553 0.59145 0.09396 0.0
H524 H 0.93128 0.59794 0.0611 0.0
H525 H 0.99021 0.54744 0.16145 0.0
H526 H 0.98965 0.51002 0.15299 0.0
H527 H 0.95986 0.52441 0.16372 0.0
C528 C 0.32207 0.07025 0.13805 0.0
C529 C 0.32233 0.0989 0.14594 0.0
C530 C 0.34391 0.06102 0.12475 0.0
C531 C 0.36665 0.08087 0.11933 0.0
C532 C 0.36686 0.10998 0.12678 0.0
C533 C 0.34467 0.11867 0.13994 0.0
C534 C 0.34285 0.02986 0.11696 0.0
C535 C 0.3908 0.13173 0.12152 0.0
C536 C 0.43176 0.04846 0.11229 0.0
C537 C 0.4358 0.05027 0.08424 0.0
C538 C 0.40949 0.05862 0.12393 0.0
C539 C 0.39065 0.07073 0.10711 0.0
C540 C 0.39461 0.07273 0.07877 0.0
C541 C 0.41721 0.06257 0.06766 0.0
C542 C 0.40608 0.05629 0.15425 0.0
C543 C 0.37488 0.08539 0.0602 0.0
H544 H 0.30471 0.05501 0.1423 0.0
H545 H 0.34509 0.14075 0.14622 0.0
H546 H 0.34747 0.0294 0.09513 0.0
H547 H 0.35794 0.01842 0.12806 0.0
H548 H 0.32325 0.01759 0.12141 0.0
H549 H 0.38734 0.15388 0.12735 0.0
H550 H 0.40765 0.12432 0.13305 0.0
H551 H 0.39661 0.13315 0.09985 0.0
H552 H 0.44607 0.03913 0.12529 0.0
H553 H 0.42018 0.06403 0.04596 0.0
H554 H 0.38766 0.04237 0.16021 0.0
H555 H 0.40426 0.07817 0.16164 0.0
H556 H 0.42282 0.04686 0.1645 0.0
H557 H 0.3554 0.07249 0.06317 0.0
H558 H 0.38096 0.08563 0.03863 0.0
H559 H 0.3723 0.10805 0.06511 0.0
C560 C 0.20506 0.89307 0.591 0.0
C561 C 0.21411 0.89651 0.61725 0.0
C562 C 0.1825 0.9055 0.58186 0.0
C563 C 0.16866 0.92199 0.59929 0.0
C564 C 0.17772 0.9257 0.62574 0.0
C565 C 0.20027 0.91288 0.63442 0.0
C566 C 0.17349 0.90104 0.5535 0.0
C567 C 0.16352 0.94315 0.64493 0.0
C568 C 0.12442 0.97636 0.56822 0.0
C569 C 0.09931 0.96108 0.5721 0.0
C570 C 0.14713 0.9639 0.57696 0.0
C571 C 0.14473 0.93542 0.5898 0.0
C572 C 0.11949 0.91979 0.5936 0.0
C573 C 0.09709 0.93282 0.58475 0.0
C574 C 0.17368 0.98132 0.5726 0.0
C575 C 0.11613 0.88931 0.60708 0.0
H576 H 0.21583 0.88088 0.57743 0.0
H577 H 0.20686 0.91535 0.65483 0.0
H578 H 0.15298 0.89045 0.55398 0.0
H579 H 0.17348 0.92245 0.54195 0.0
H580 H 0.18625 0.88736 0.54258 0.0
H581 H 0.17323 0.94423 0.66473 0.0
H582 H 0.16267 0.96571 0.63601 0.0
H583 H 0.14291 0.93329 0.64832 0.0
H584 H 0.12637 0.99823 0.55853 0.0
H585 H 0.07781 0.92081 0.58784 0.0
H586 H 0.18678 0.96927 0.56038 0.0
H587 H 0.18322 0.98432 0.59226 0.0
H588 H 0.1722 1.00314 0.56221 0.0
H589 H 0.12761 0.87471 0.5958 0.0
H590 H 0.09518 0.87999 0.60831 0.0
H591 H 0.12393 0.8895 0.62778 0.0
C592 C 0.82524 0.44373 0.87338 0.0
C593 C 0.80621 0.42159 0.88373 0.0
C594 C 0.84834 0.45119 0.88742 0.0
C595 C 0.85277 0.43593 0.91233 0.0
C596 C 0.83383 0.41338 0.92282 0.0
C597 C 0.81073 0.40658 0.90849 0.0
C598 C 0.868 0.47548 0.87558 0.0
C599 C 0.83791 0.39651 0.94924 0.0
C600 C 0.92414 0.44085 0.93409 0.0
C601 C 0.92483 0.46309 0.95205 0.0
C602 C 0.90058 0.43096 0.92183 0.0
C603 C 0.87721 0.44388 0.92739 0.0
C604 C 0.87759 0.46565 0.94618 0.0
C605 C 0.90134 0.47486 0.95841 0.0
C606 C 0.9009 0.40737 0.90224 0.0
C607 C 0.85316 0.48016 0.95249 0.0
H608 H 0.82223 0.45512 0.85407 0.0
H609 H 0.79603 0.38973 0.91689 0.0
H610 H 0.87118 0.49279 0.88998 0.0
H611 H 0.88728 0.46701 0.8721 0.0
H612 H 0.86146 0.48546 0.85618 0.0
H613 H 0.82164 0.37907 0.95429 0.0
H614 H 0.85673 0.38639 0.94841 0.0
H615 H 0.83938 0.41153 0.96578 0.0
H616 H 0.94216 0.43154 0.92916 0.0
H617 H 0.90167 0.49214 0.97217 0.0
H618 H 0.89699 0.41649 0.88165 0.0
H619 H 0.88507 0.38958 0.90762 0.0
H620 H 0.92009 0.3979 0.90179 0.0
H621 H 0.84705 0.49252 0.93412 0.0
H622 H 0.85634 0.49545 0.96874 0.0
H623 H 0.83664 0.4635 0.95871 0.0
C624 C 0.71602 0.5571 0.37252 0.0
C625 C 0.72254 0.58669 0.36455 0.0
C626 C 0.69292 0.54778 0.38762 0.0
C627 C 0.67591 0.56855 0.39492 0.0
C628 C 0.6825 0.59849 0.3872 0.0
C629 C 0.70575 0.60721 0.37211 0.0
C630 C 0.6866 0.51566 0.39555 0.0
C631 C 0.66478 0.62124 0.3945 0.0
C632 C 0.60467 0.5393 0.40959 0.0
C633 C 0.6039 0.53598 0.43785 0.0
C634 C 0.62781 0.55058 0.39541 0.0
C635 C 0.65078 0.55869 0.40984 0.0
C636 C 0.64997 0.55617 0.43839 0.0
C637 C 0.6265 0.54489 0.45208 0.0
C638 C 0.62784 0.55309 0.36497 0.0
C639 C 0.67409 0.56465 0.45443 0.0
H640 H 0.72911 0.54121 0.3671 0.0
H641 H 0.71054 0.63007 0.36576 0.0
H642 H 0.68405 0.51215 0.41777 0.0
H643 H 0.66772 0.50753 0.38657 0.0
H644 H 0.70222 0.50242 0.38887 0.0
H645 H 0.67321 0.64373 0.38783 0.0
H646 H 0.64533 0.61694 0.38507 0.0
H647 H 0.66127 0.62002 0.41664 0.0
H648 H 0.58726 0.53265 0.39842 0.0
H649 H 0.62605 0.54241 0.47391 0.0
H650 H 0.64162 0.53845 0.35698 0.0
H651 H 0.63488 0.57569 0.3573 0.0
H652 H 0.60798 0.54727 0.35683 0.0
H653 H 0.68969 0.55039 0.4501 0.0
H654 H 0.66985 0.5628 0.47649 0.0
H655 H 0.68209 0.58742 0.44839 0.0
C656 C 0.13003 0.29817 0.09121 0.0
C657 C 0.14388 0.30083 0.11522 0.0
C658 C 0.11653 0.32109 0.0802 0.0
C659 C 0.11709 0.34737 0.09342 0.0
C660 C 0.13045 0.34989 0.11804 0.0
C661 C 0.14362 0.32655 0.12869 0.0
C662 C 0.10232 0.31749 0.05403 0.0
C663 C 0.13169 0.37766 0.13262 0.0
C664 C 0.11067 0.41746 0.05086 0.0
C665 C 0.08476 0.42302 0.05689 0.0
C666 C 0.12128 0.39283 0.06247 0.0
C667 C 0.10555 0.37303 0.08043 0.0
C668 C 0.07919 0.37813 0.08624 0.0
C669 C 0.06911 0.40316 0.07446 0.0
C670 C 0.14953 0.38828 0.05586 0.0
C671 C 0.06179 0.35734 0.10513 0.0
H672 H 0.12985 0.27816 0.08095 0.0
H673 H 0.15449 0.3288 0.14713 0.0
H674 H 0.08173 0.32296 0.05615 0.0
H675 H 0.11214 0.33281 0.03797 0.0
H676 H 0.10201 0.29493 0.04742 0.0
H677 H 0.14138 0.37543 0.15241 0.0
H678 H 0.14285 0.39566 0.12005 0.0
H679 H 0.11158 0.38409 0.13595 0.0
H680 H 0.12295 0.43267 0.03733 0.0
H681 H 0.04907 0.40729 0.0792 0.0
H682 H 0.15043 0.36681 0.04727 0.0
H683 H 0.16115 0.38808 0.07454 0.0
H684 H 0.15901 0.40556 0.04124 0.0
H685 H 0.06083 0.33494 0.09813 0.0
H686 H 0.04144 0.36379 0.10672 0.0
H687 H 0.0703 0.35653 0.12554 0.0
C688 C 0.59491 0.19039 0.89945 0.0
C689 C 0.60833 0.21017 0.91596 0.0
C690 C 0.58085 0.16453 0.91056 0.0
C691 C 0.58023 0.15827 0.93885 0.0
C692 C 0.59314 0.17852 0.95566 0.0
C693 C 0.60697 0.20421 0.94403 0.0
C694 C 0.56729 0.1435 0.89199 0.0
C695 C 0.5929 0.1727 0.98592 0.0
C696 C 0.52907 0.10065 0.97188 0.0
C697 C 0.54377 0.07663 0.97591 0.0
C698 C 0.54052 0.12726 0.95945 0.0
C699 C 0.5673 0.1299 0.95087 0.0
C700 C 0.58211 0.10562 0.95453 0.0
C701 C 0.57018 0.07933 0.96696 0.0
C702 C 0.52409 0.15265 0.95582 0.0
C703 C 0.61072 0.10753 0.94568 0.0
H704 H 0.59604 0.19469 0.87775 0.0
H705 H 0.61687 0.21962 0.95696 0.0
H706 H 0.57672 0.12281 0.89325 0.0
H707 H 0.54633 0.13809 0.8983 0.0
H708 H 0.56817 0.15243 0.87065 0.0
H709 H 0.60293 0.19122 0.99623 0.0
H710 H 0.57233 0.16845 0.99382 0.0
H711 H 0.60291 0.15289 0.99126 0.0
H712 H 0.50865 0.0988 0.97868 0.0
H713 H 0.5817 0.06088 0.96983 0.0
H714 H 0.52433 0.16074 0.9343 0.0
H715 H 0.5326 0.17093 0.96738 0.0
H716 H 0.5033 0.14674 0.96267 0.0
H717 H 0.61284 0.11444 0.9239 0.0
H718 H 0.61927 0.08642 0.94928 0.0
H719 H 0.6224 0.12428 0.95676 0.0
C720 C 0.91832 0.8006 0.41185 0.0
C721 C 0.90619 0.80255 0.38675 0.0
C722 C 0.92835 0.82575 0.4241 0.0
C723 C 0.92616 0.85354 0.41096 0.0
C724 C 0.91498 0.85562 0.38508 0.0
C725 C 0.90515 0.83007 0.37326 0.0
C726 C 0.94031 0.82261 0.45161 0.0
C727 C 0.91228 0.88487 0.37044 0.0
C728 C 0.92162 0.91614 0.45594 0.0
C729 C 0.94724 0.93035 0.45382 0.0
C730 C 0.91452 0.89132 0.44188 0.0
C731 C 0.93349 0.88035 0.42528 0.0
C732 C 0.95937 0.89464 0.42289 0.0
C733 C 0.96595 0.91951 0.43719 0.0
C734 C 0.8867 0.87671 0.44495 0.0
C735 C 0.98011 0.88354 0.40538 0.0
H736 H 0.91955 0.77933 0.42215 0.0
H737 H 0.89562 0.83172 0.35396 0.0
H738 H 0.95995 0.83528 0.45166 0.0
H739 H 0.92764 0.83158 0.4667 0.0
H740 H 0.9425 0.79948 0.45811 0.0
H741 H 0.90541 0.88271 0.34951 0.0
H742 H 0.89794 0.8965 0.38151 0.0
H743 H 0.93139 0.89865 0.36974 0.0
H744 H 0.90701 0.92437 0.46868 0.0
H745 H 0.98578 0.93039 0.4354 0.0
H746 H 0.88696 0.8539 0.45348 0.0
H747 H 0.87745 0.87577 0.42493 0.0
H748 H 0.87418 0.88828 0.45829 0.0
H749 H 0.98343 0.86096 0.41262 0.0
H750 H 0.99918 0.89743 0.4053 0.0
H751 H 0.97325 0.8827 0.38435 0.0
C752 C 0.4402 0.72658 0.61761 0.0
C753 C 0.41656 0.72246 0.63279 0.0
C754 C 0.44916 0.70383 0.60367 0.0
C755 C 0.43423 0.67621 0.6051 0.0
C756 C 0.4104 0.67188 0.62049 0.0
C757 C 0.40182 0.69507 0.63406 0.0
C758 C 0.47452 0.7094 0.58726 0.0
C759 C 0.39401 0.64269 0.62271 0.0
C760 C 0.44213 0.62354 0.55061 0.0
C761 C 0.45825 0.60394 0.56313 0.0
C762 C 0.43468 0.64752 0.56379 0.0
C763 C 0.4433 0.65187 0.59029 0.0
C764 C 0.45994 0.63245 0.60288 0.0
C765 C 0.46734 0.60881 0.5891 0.0
C766 C 0.41719 0.66792 0.54954 0.0
C767 C 0.46939 0.63623 0.63119 0.0
H768 H 0.45154 0.74779 0.61632 0.0
H769 H 0.38371 0.69164 0.64604 0.0
H770 H 0.48869 0.69405 0.59454 0.0
H771 H 0.47066 0.70542 0.56585 0.0
H772 H 0.48386 0.73208 0.58829 0.0
H773 H 0.37616 0.64279 0.63577 0.0
H774 H 0.38775 0.63658 0.60241 0.0
H775 H 0.40597 0.62554 0.63108 0.0
H776 H 0.43513 0.62003 0.53049 0.0
H777 H 0.4797 0.59371 0.59897 0.0
H778 H 0.42645 0.69074 0.54917 0.0
H779 H 0.39809 0.66707 0.56067 0.0
H780 H 0.41325 0.66234 0.52849 0.0
H781 H 0.47983 0.65832 0.6325 0.0
H782 H 0.48284 0.61976 0.63784 0.0
H783 H 0.45225 0.6343 0.64542 0.0
C784 C 0.90687 0.92586 0.68304 0.0
C785 C 0.90785 0.89564 0.68742 0.0
C786 C 0.91904 0.94137 0.66019 0.0
C787 C 0.93261 0.92631 0.64133 0.0
C788 C 0.93324 0.89574 0.64534 0.0
C789 C 0.9208 0.88077 0.66829 0.0
C790 C 0.91788 0.97396 0.65654 0.0
C791 C 0.94746 0.8789 0.62565 0.0
C792 C 0.94816 0.96196 0.57103 0.0
C793 C 0.9746 0.97316 0.57327 0.0
C794 C 0.93418 0.94684 0.59305 0.0
C795 C 0.94696 0.94266 0.61788 0.0
C796 C 0.9736 0.95388 0.6203 0.0
C797 C 0.98706 0.96905 0.59802 0.0
C798 C 0.90575 0.9353 0.58975 0.0
C799 C 0.98795 0.94971 0.64641 0.0
H800 H 0.89716 0.93757 0.69785 0.0
H801 H 0.92126 0.85735 0.6713 0.0
H802 H 0.93805 0.98531 0.65727 0.0
H803 H 0.90995 0.97989 0.63648 0.0
H804 H 0.90543 0.98217 0.67231 0.0
H805 H 0.94546 0.85508 0.63129 0.0
H806 H 0.93968 0.88253 0.60511 0.0
H807 H 0.96872 0.88688 0.62468 0.0
H808 H 0.9383 0.96503 0.55204 0.0
H809 H 1.00745 0.97758 0.60002 0.0
H810 H 0.89306 0.94454 0.60464 0.0
H811 H 0.90336 0.91124 0.59379 0.0
H812 H 0.89859 0.94067 0.5692 0.0
H813 H 0.97759 0.95942 0.66284 0.0
H814 H 1.00866 0.9598 0.64498 0.0
H815 H 0.98802 0.92608 0.6522 0.0
C816 C 0.62399 0.13794 0.17716 0.0
C817 C 0.61153 0.13151 0.20251 0.0
C818 C 0.6125 0.12739 0.15374 0.0
C819 C 0.58783 0.1103 0.15568 0.0
C820 C 0.57536 0.10341 0.18127 0.0
C821 C 0.58741 0.11398 0.20436 0.0
C822 C 0.62656 0.13492 0.12688 0.0
C823 C 0.54892 0.08552 0.18419 0.0
C824 C 0.543 0.10871 0.09535 0.0
C825 C 0.54547 0.08086 0.08644 0.0
C826 C 0.5571 0.11876 0.11749 0.0
C827 C 0.57436 0.1007 0.13092 0.0
C828 C 0.57769 0.07299 0.12144 0.0
C829 C 0.56309 0.06333 0.09941 0.0
C830 C 0.55283 0.14836 0.12706 0.0
C831 C 0.59617 0.05327 0.13499 0.0
H832 H 0.64277 0.15123 0.17567 0.0
H833 H 0.57754 0.10924 0.22384 0.0
H834 H 0.62898 0.11473 0.11656 0.0
H835 H 0.61458 0.14852 0.11369 0.0
H836 H 0.64628 0.147 0.12898 0.0
H837 H 0.54224 0.08132 0.20558 0.0
H838 H 0.53391 0.09708 0.17305 0.0
H839 H 0.54987 0.06426 0.17523 0.0
H840 H 0.52943 0.12242 0.08551 0.0
H841 H 0.56522 0.04184 0.09258 0.0
H842 H 0.57194 0.16198 0.12789 0.0
H843 H 0.54419 0.14577 0.1478 0.0
H844 H 0.5395 0.16019 0.11381 0.0
H845 H 0.61604 0.06515 0.13649 0.0
H846 H 0.59799 0.03335 0.12401 0.0
H847 H 0.58894 0.04651 0.15584 0.0
C848 C 0.42163 0.57738 0.34306 0.0
C849 C 0.42824 0.60744 0.33736 0.0
C850 C 0.43085 0.56282 0.36626 0.0
C851 C 0.44715 0.57866 0.38415 0.0
C852 C 0.45352 0.60907 0.37875 0.0
C853 C 0.44394 0.62307 0.35553 0.0
C854 C 0.42353 0.5304 0.37137 0.0
C855 C 0.47079 0.62679 0.39734 0.0
C856 C 0.45605 0.54878 0.45628 0.0
C857 C 0.48082 0.53807 0.45461 0.0
C858 C 0.44454 0.56135 0.4334 0.0
C859 C 0.45815 0.56345 0.40821 0.0
C860 C 0.48288 0.55217 0.40625 0.0
C861 C 0.49386 0.53954 0.42942 0.0
C862 C 0.41805 0.57293 0.4363 0.0
C863 C 0.49811 0.55411 0.37981 0.0
H864 H 0.40974 0.56505 0.32904 0.0
H865 H 0.44876 0.64638 0.35158 0.0
H866 H 0.44155 0.51879 0.37094 0.0
H867 H 0.41425 0.52559 0.39171 0.0
H868 H 0.40973 0.52149 0.3562 0.0
H869 H 0.47358 0.65032 0.39049 0.0
H870 H 0.46201 0.62459 0.41801 0.0
H871 H 0.49041 0.61839 0.39856 0.0
H872 H 0.44568 0.54759 0.47556 0.0
H873 H 0.51298 0.53141 0.42783 0.0
H874 H 0.4041 0.56316 0.42172 0.0
H875 H 0.42008 0.59689 0.43157 0.0
H876 H 0.4094 0.56828 0.45696 0.0
H877 H 0.48582 0.54381 0.36415 0.0
H878 H 0.51663 0.54336 0.38144 0.0
H879 H 0.50315 0.57735 0.37279 0.0
C880 C 0.12821 0.46657 0.84855 0.0
C881 C 0.12486 0.43659 0.84468 0.0
C882 C 0.11455 0.47831 0.8693 0.0
C883 C 0.09703 0.45965 0.88654 0.0
C884 C 0.09348 0.42939 0.88272 0.0
C885 C 0.10746 0.41823 0.86187 0.0
C886 C 0.11884 0.51068 0.87274 0.0
C887 C 0.07498 0.40878 0.90072 0.0
C888 C 0.07874 0.48327 0.95555 0.0
C889 C 0.05353 0.49219 0.95123 0.0
C890 C 0.09327 0.47303 0.93459 0.0
C891 C 0.08238 0.47171 0.90864 0.0
C892 C 0.05722 0.48129 0.90395 0.0
C893 C 0.04312 0.49144 0.92527 0.0
C894 C 0.12009 0.46311 0.94037 0.0
C895 C 0.04494 0.4802 0.87654 0.0
H896 H 0.14133 0.48097 0.83513 0.0
H897 H 0.10504 0.39499 0.85927 0.0
H898 H 0.0999 0.52047 0.87063 0.0
H899 H 0.126 0.51455 0.89328 0.0
H900 H 0.1333 0.52218 0.85776 0.0
H901 H 0.07425 0.38589 0.89492 0.0
H902 H 0.08127 0.40946 0.92196 0.0
H903 H 0.05478 0.41573 0.89989 0.0
H904 H 0.08706 0.4839 0.97543 0.0
H905 H 0.02368 0.49826 0.92165 0.0
H906 H 0.13515 0.47533 0.9265 0.0
H907 H 0.12004 0.43965 0.93675 0.0
H908 H 0.12604 0.46625 0.96146 0.0
H909 H 0.05829 0.4926 0.86107 0.0
H910 H 0.02559 0.48932 0.87599 0.0
H911 H 0.04209 0.45728 0.87085 0.0
C912 C 0.67944 0.89886 0.87059 0.0
C913 C 0.70417 0.91517 0.86961 0.0
C914 C 0.65794 0.90836 0.88432 0.0
C915 C 0.66135 0.93468 0.89755 0.0
C916 C 0.68641 0.95092 0.89707 0.0
C917 C 0.70748 0.94103 0.88301 0.0
C918 C 0.63146 0.89059 0.88417 0.0
C919 C 0.69091 0.97892 0.91117 0.0
C920 C 0.60193 0.97599 0.90956 0.0
C921 C 0.5957 0.96801 0.9368 0.0
C922 C 0.62305 0.96504 0.89651 0.0
C923 C 0.63851 0.94582 0.91109 0.0
C924 C 0.63235 0.93764 0.93858 0.0
C925 C 0.61094 0.94874 0.95109 0.0
C926 C 0.62886 0.97409 0.8671 0.0
C927 C 0.64851 0.91736 0.95483 0.0
H928 H 0.67674 0.87899 0.86007 0.0
H929 H 0.72667 0.95349 0.88261 0.0
H930 H 0.62409 0.88478 0.90512 0.0
H931 H 0.61694 0.90373 0.87401 0.0
H932 H 0.63228 0.87019 0.87365 0.0
H933 H 0.71182 0.98834 0.90977 0.0
H934 H 0.67847 0.99527 0.90215 0.0
H935 H 0.68499 0.97495 0.93277 0.0
H936 H 0.59019 0.99074 0.89831 0.0
H937 H 0.60628 0.94249 0.97215 0.0
H938 H 0.6283 0.95451 0.85526 0.0
H939 H 0.64898 0.98559 0.86462 0.0
H940 H 0.6146 0.9887 0.8585 0.0
H941 H 0.64834 0.89626 0.94534 0.0
H942 H 0.64108 0.91302 0.97597 0.0
H943 H 0.66932 0.92693 0.95505 0.0
C944 C 0.81523 0.07386 0.39209 0.0
C945 C 0.81235 0.10367 0.38726 0.0
C946 C 0.83787 0.06442 0.40417 0.0
C947 C 0.8582 0.08528 0.4117 0.0
C948 C 0.85515 0.11542 0.40756 0.0
C949 C 0.83227 0.12425 0.39539 0.0
C950 C 0.84028 0.03208 0.40834 0.0
C951 C 0.87638 0.13832 0.4153 0.0
C952 C 0.90852 0.05764 0.46042 0.0
C953 C 0.92888 0.05224 0.44271 0.0
C954 C 0.88567 0.06917 0.45072 0.0
C955 C 0.88313 0.07542 0.42266 0.0
C956 C 0.90395 0.07082 0.40479 0.0
C957 C 0.92654 0.05932 0.41502 0.0
C958 C 0.86395 0.07387 0.47042 0.0
C959 C 0.90206 0.07724 0.37474 0.0
H960 H 0.79973 0.05781 0.38631 0.0
H961 H 0.83033 0.14733 0.39152 0.0
H962 H 0.85727 0.02634 0.39629 0.0
H963 H 0.8441 0.02618 0.42982 0.0
H964 H 0.82227 0.01869 0.40238 0.0
H965 H 0.8703 0.16075 0.41233 0.0
H966 H 0.88154 0.13426 0.43672 0.0
H967 H 0.89449 0.13707 0.40296 0.0
H968 H 0.91014 0.05228 0.48185 0.0
H969 H 0.94218 0.05534 0.40116 0.0
H970 H 0.84609 0.05907 0.46663 0.0
H971 H 0.85853 0.09656 0.46756 0.0
H972 H 0.86964 0.06973 0.49171 0.0
H973 H 0.88565 0.06283 0.36687 0.0
H974 H 0.9205 0.07388 0.36371 0.0
H975 H 0.89762 0.10009 0.37027 0.0
C976 C 0.20183 0.60265 0.15283 0.0
C977 C 0.22503 0.58919 0.14947 0.0
C978 C 0.17879 0.59349 0.13933 0.0
C979 C 0.17885 0.57004 0.12235 0.0
C980 C 0.20237 0.55676 0.11848 0.0
C981 C 0.2252 0.56661 0.13197 0.0
C982 C 0.15422 0.60846 0.14373 0.0
C983 C 0.20317 0.53144 0.10086 0.0
C984 C 0.11408 0.52405 0.11341 0.0
C985 C 0.10707 0.5335 0.08733 0.0
C986 C 0.13731 0.53583 0.12497 0.0
C987 C 0.15389 0.55794 0.11027 0.0
C988 C 0.14677 0.56796 0.08408 0.0
C989 C 0.12351 0.55546 0.07282 0.0
C990 C 0.14429 0.52428 0.15283 0.0
C991 C 0.16379 0.59176 0.06794 0.0
H992 H 0.20172 0.62037 0.16609 0.0
H993 H 0.24302 0.55597 0.12949 0.0
H994 H 0.14607 0.61554 0.12408 0.0
H995 H 0.13892 0.59291 0.15439 0.0
H996 H 0.15797 0.62779 0.15581 0.0
H997 H 0.22333 0.52456 0.09878 0.0
H998 H 0.1899 0.51254 0.10958 0.0
H999 H 0.19595 0.53731 0.08048 0.0
H1000 H 0.10159 0.50698 0.12475 0.0
H1001 H 0.11819 0.56293 0.05269 0.0
H1002 H 0.14626 0.54229 0.16658 0.0
H1003 H 0.16359 0.51515 0.15203 0.0
H1004 H 0.12929 0.50699 0.16156 0.0
H1005 H 0.16668 0.61151 0.07954 0.0
H1006 H 0.15509 0.59778 0.04824 0.0
H1007 H 0.18355 0.58456 0.06418 0.0
C1008 C 0.33185 0.38248 0.64666 0.0
C1009 C 0.30998 0.39763 0.65183 0.0
C1010 C 0.35526 0.39712 0.63532 0.0
C1011 C 0.35681 0.4276 0.62898 0.0
C1012 C 0.33486 0.44304 0.63429 0.0
C1013 C 0.31172 0.42786 0.64565 0.0
C1014 C 0.37832 0.37996 0.63009 0.0
C1015 C 0.33575 0.47556 0.62774 0.0
C1016 C 0.42376 0.47154 0.6217 0.0
C1017 C 0.42712 0.47544 0.59359 0.0
C1018 C 0.40113 0.45568 0.63349 0.0
C1019 C 0.38137 0.44344 0.61677 0.0
C1020 C 0.38479 0.44692 0.58839 0.0
C1021 C 0.40764 0.46287 0.57713 0.0
C1022 C 0.3982 0.45237 0.66384 0.0
C1023 C 0.36413 0.43414 0.56992 0.0
H1024 H 0.33072 0.35917 0.65169 0.0
H1025 H 0.29476 0.43961 0.64924 0.0
H1026 H 0.38382 0.38231 0.60833 0.0
H1027 H 0.39571 0.38873 0.64123 0.0
H1028 H 0.37395 0.35638 0.63625 0.0
H1029 H 0.31706 0.48434 0.63334 0.0
H1030 H 0.3521 0.48707 0.63855 0.0
H1031 H 0.33968 0.48065 0.60584 0.0
H1032 H 0.43873 0.4811 0.63459 0.0
H1033 H 0.41009 0.46576 0.55539 0.0
H1034 H 0.39504 0.42892 0.67079 0.0
H1035 H 0.38064 0.4627 0.67037 0.0
H1036 H 0.41574 0.46247 0.67399 0.0
H1037 H 0.36027 0.41024 0.57462 0.0
H1038 H 0.37007 0.43818 0.54831 0.0
H1039 H 0.34532 0.44371 0.57321 0.0
C1040 C 0.86854 0.68146 0.90538 0.0
C1041 C 0.8782 0.71085 0.90647 0.0
C1042 C 0.88239 0.65912 0.91691 0.0
C1043 C 0.90632 0.66638 0.93013 0.0
C1044 C 0.9163 0.69602 0.93106 0.0
C1045 C 0.90218 0.71791 0.91908 0.0
C1046 C 0.87127 0.62774 0.91521 0.0
C1047 C 0.94157 0.70462 0.94525 0.0
C1048 C 0.92494 0.60931 0.98294 0.0
C1049 C 0.94376 0.59561 0.96895 0.0
C1050 C 0.91325 0.633 0.97082 0.0
C1051 C 0.92026 0.64293 0.94388 0.0
C1052 C 0.93972 0.62963 0.92984 0.0
C1053 C 0.95142 0.60624 0.94264 0.0
C1054 C 0.89292 0.64692 0.98663 0.0
C1055 C 0.94749 0.63944 0.901 0.0
H1056 H 0.85017 0.67595 0.89535 0.0
H1057 H 0.90957 0.74064 0.92015 0.0
H1058 H 0.88612 0.61517 0.90603 0.0
H1059 H 0.86655 0.61753 0.93577 0.0
H1060 H 0.85311 0.62574 0.90314 0.0
H1061 H 0.94711 0.72857 0.94337 0.0
H1062 H 0.93938 0.69738 0.96696 0.0
H1063 H 0.95792 0.6936 0.93687 0.0
H1064 H 0.91912 0.60132 1.00338 0.0
H1065 H 0.96587 0.59561 0.9317 0.0
H1066 H 0.87344 0.64333 0.97712 0.0
H1067 H 0.89817 0.67085 0.98637 0.0
H1068 H 0.89101 0.63792 1.00793 0.0
H1069 H 0.93026 0.63548 0.8879 0.0
H1070 H 0.96382 0.62778 0.89335 0.0
H1071 H 0.95364 0.66323 0.89916 0.0
C1072 C 0.41181 0.81844 0.09362 0.0
C1073 C 0.42196 0.8026 0.11549 0.0
C1074 C 0.42578 0.84389 0.08173 0.0
C1075 C 0.45047 0.85401 0.09206 0.0
C1076 C 0.46082 0.8383 0.11422 0.0
C1077 C 0.44648 0.81274 0.12563 0.0
C1078 C 0.41405 0.86002 0.05812 0.0
C1079 C 0.48703 0.84849 0.12585 0.0
C1080 C 0.49538 0.90568 0.04488 0.0
C1081 C 0.49002 0.93303 0.05313 0.0
C1082 C 0.48315 0.87974 0.05781 0.0
C1083 C 0.46528 0.88116 0.07964 0.0
C1084 C 0.46045 0.90865 0.08863 0.0
C1085 C 0.47278 0.93423 0.07522 0.0
C1086 C 0.48868 0.85085 0.04752 0.0
C1087 C 0.44171 0.91108 0.11199 0.0
H1088 H 0.39268 0.81113 0.08596 0.0
H1089 H 0.45463 0.8005 0.14231 0.0
H1090 H 0.41105 0.88251 0.06323 0.0
H1091 H 0.42784 0.8619 0.04048 0.0
H1092 H 0.39486 0.84899 0.05221 0.0
H1093 H 0.4922 0.83399 0.1433 0.0
H1094 H 0.50282 0.84934 0.11016 0.0
H1095 H 0.48663 0.87093 0.13248 0.0
H1096 H 0.5086 0.9045 0.02781 0.0
H1097 H 0.46863 0.95523 0.08188 0.0
H1098 H 0.47038 0.83993 0.03946 0.0
H1099 H 0.49504 0.8362 0.06424 0.0
H1100 H 0.50414 0.85339 0.03133 0.0
H1101 H 0.42147 0.90264 0.10667 0.0
H1102 H 0.4414 0.93394 0.1176 0.0
H1103 H 0.4473 0.89753 0.12987 0.0
C1104 C 0.08022 0.21706 0.64901 0.0
C1105 C 0.10022 0.21403 0.66774 0.0
C1106 C 0.07359 0.1954 0.63105 0.0
C1107 C 0.08719 0.17006 0.63199 0.0
C1108 C 0.10697 0.16659 0.65129 0.0
C1109 C 0.11329 0.18865 0.66887 0.0
C1110 C 0.05249 0.19994 0.61066 0.0
C1111 C 0.12173 0.13975 0.65311 0.0
C1112 C 0.0575 0.1019 0.60047 0.0
C1113 C 0.07222 0.10298 0.57629 0.0
C1114 C 0.06188 0.12382 0.61863 0.0
C1115 C 0.0813 0.14747 0.61236 0.0
C1116 C 0.09578 0.14905 0.5877 0.0
C1117 C 0.09113 0.12673 0.57 0.0
C1118 C 0.04613 0.12132 0.64478 0.0
C1119 C 0.11654 0.17406 0.58022 0.0
H1120 H 0.07026 0.23679 0.64788 0.0
H1121 H 0.12854 0.18608 0.68355 0.0
H1122 H 0.06115 0.2009 0.58997 0.0
H1123 H 0.03698 0.18126 0.61242 0.0
H1124 H 0.04314 0.22036 0.61318 0.0
H1125 H 0.1359 0.13994 0.66986 0.0
H1126 H 0.10766 0.11983 0.65612 0.0
H1127 H 0.13274 0.1382 0.63393 0.0
H1128 H 0.04286 0.08361 0.60552 0.0
H1129 H 0.10251 0.12781 0.55131 0.0
H1130 H 0.03605 0.14129 0.64687 0.0
H1131 H 0.05955 0.11941 0.66203 0.0
H1132 H 0.03111 0.10211 0.6462 0.0
H1133 H 0.10794 0.19516 0.58093 0.0
H1134 H 0.12524 0.17273 0.55978 0.0
H1135 H 0.13259 0.17412 0.59505 0.0
C1136 C 0.60284 0.29576 0.41999 0.0
C1137 C 0.63026 0.30066 0.41595 0.0
C1138 C 0.58859 0.31677 0.43121 0.0
C1139 C 0.60208 0.34331 0.43849 0.0
C1140 C 0.62965 0.34863 0.43388 0.0
C1141 C 0.64337 0.32727 0.4227 0.0
C1142 C 0.55923 0.31027 0.43586 0.0
C1143 C 0.64476 0.37674 0.44117 0.0
C1144 C 0.56653 0.41038 0.44956 0.0
C1145 C 0.56606 0.41038 0.4778 0.0
C1146 C 0.57733 0.3881 0.43644 0.0
C1147 C 0.58772 0.36518 0.45192 0.0
C1148 C 0.5861 0.36433 0.48042 0.0
C1149 C 0.57538 0.38697 0.493 0.0
C1150 C 0.57873 0.38983 0.40602 0.0
C1151 C 0.59671 0.34014 0.49768 0.0
H1152 H 0.5926 0.27515 0.41505 0.0
H1153 H 0.66448 0.33141 0.41922 0.0
H1154 H 0.55453 0.30921 0.45778 0.0
H1155 H 0.54878 0.32806 0.42621 0.0
H1156 H 0.55148 0.2893 0.4278 0.0
H1157 H 0.66599 0.37793 0.43542 0.0
H1158 H 0.63625 0.39569 0.43103 0.0
H1159 H 0.64307 0.37879 0.46322 0.0
H1160 H 0.55943 0.4284 0.43764 0.0
H1161 H 0.57495 0.38668 0.51482 0.0
H1162 H 0.57066 0.36881 0.39836 0.0
H1163 H 0.59962 0.3939 0.39906 0.0
H1164 H 0.56775 0.40754 0.39694 0.0
H1165 H 0.5885 0.31855 0.49136 0.0
H1166 H 0.59201 0.34134 0.51944 0.0
H1167 H 0.61843 0.34145 0.49495 0.0
loop_
_geom_bond_atom_site_label_1
_geom_bond_atom_site_label_2
_geom_bond_distance
_geom_bond_site_symmetry_2
_ccdc_geom_bond_type
C0 C1 1.264 . S
C0 C5 1.479 . S
C0 C10 1.465 . S
C1 C0 1.264 . S
C1 C3 1.339 . S
C1 H28 0.931 . S
C2 C3 1.395 . S
C2 C4 1.320 . S
C3 C1 1.339 . S
C3 C2 1.395 . S
C3 H29 0.929 . S
C4 C2 1.320 . S
C4 C5 1.405 . S
C4 H30 0.930 . S
C5 C0 1.479 . S
C5 C4 1.405 . S
C5 H31 0.931 . S
U6 O7 2.454 . S
U6 O8 2.458 . S
U6 C9 2.984 . S
U6 C10 2.847 . S
U6 C23 2.882 . S
U6 O24 2.441 . S
U6 O25 2.420 . S
U6 O26 2.455 . S
U6 O27 2.449 . S
O7 U6 2.454 . S
O7 C9 1.353 . S
O8 U6 2.458 . S
O8 C9 1.286 . S
C9 U6 2.984 . S
C9 O7 1.353 . S
C9 O8 1.286 . S
C9 C11 1.363 . S
C10 C0 1.465 . S
C10 U6 2.847 . S
C10 O24 1.249 . S
C10 O25 1.202 . S
C11 C9 1.363 . S
C11 C13 1.408 . S
C11 C16 1.342 . S
C12 C13 1.310 . S
C12 C15 1.461 . S
C12 H32 0.932 . S
C13 C11 1.408 . S
C13 C12 1.310 . S
C13 H33 0.930 . S
C14 C15 1.474 . S
C14 C16 1.285 . S
C14 H34 0.929 . S
C15 C12 1.461 . S
C15 C14 1.474 . S
C16 C11 1.342 . S
C16 C14 1.285 . S
C16 H35 0.930 . S
C17 C20 1.424 . S
C17 C22 1.245 . S
C17 C23 1.428 . S
C18 C21 1.260 . S
C18 C22 1.477 . S
C18 H36 0.932 . S
C19 C20 1.384 . S
C19 C21 1.479 . S
C19 H37 0.929 . S
C20 C17 1.424 . S
C20 C19 1.384 . S
C20 H38 0.928 . S
C21 C18 1.260 . S
C21 C19 1.479 . S
C22 C17 1.245 . S
C22 C18 1.477 . S
C22 H39 0.932 . S
C23 U6 2.882 . S
C23 C17 1.428 . S
C23 O26 1.301 . S
C23 O27 1.282 . S
O24 U6 2.441 . S
O24 C10 1.249 . S
O25 U6 2.420 . S
O25 C10 1.202 . S
O26 U6 2.455 . S
O26 C23 1.301 . S
O27 U6 2.449 . S
O27 C23 1.282 . S
H28 C1 0.931 . S
H29 C3 0.929 . S
H30 C4 0.930 . S
H31 C5 0.931 . S
H32 C12 0.932 . S
H33 C13 0.930 . S
H34 C14 0.929 . S
H35 C16 0.930 . S
H36 C18 0.932 . S
H37 C19 0.929 . S
H38 C20 0.928 . S
H39 C22 0.932 . S
C40 C41 1.264 . S
C40 C45 1.479 . S
C40 C50 1.465 . S
C41 C40 1.264 . S
C41 C43 1.339 . S
C41 H68 0.931 . S
C42 C43 1.395 . S
C42 C44 1.320 . S
C43 C41 1.339 . S
C43 C42 1.395 . S
C43 H69 0.929 . S
C44 C42 1.320 . S
C44 C45 1.405 . S
C44 H70 0.930 . S
C45 C40 1.479 . S
C45 C44 1.405 . S
C45 H71 0.931 . S
U46 O47 2.454 . S
U46 O48 2.458 . S
U46 C49 2.984 . S
U46 C50 2.847 . S
U46 C63 2.882 . S
U46 O64 2.441 . S
U46 O65 2.420 . S
U46 O66 2.455 . S
U46 O67 2.449 . S
O47 U46 2.454 . S
O47 C49 1.353 . S
O48 U46 2.458 . S
O48 C49 1.286 . S
C49 U46 2.984 . S
C49 O47 1.353 . S
C49 O48 1.286 . S
C49 C51 1.363 . S
C50 C40 1.465 . S
C50 U46 2.847 . S
C50 O64 1.249 . S
C50 O65 1.202 . S
C51 C49 1.363 . S
C51 C53 1.408 . S
C51 C56 1.342 . S
C52 C53 1.310 . S
C52 C55 1.461 . S
C52 H72 0.932 . S
C53 C51 1.408 . S
C53 C52 1.310 . S
C53 H73 0.930 . S
C54 C55 1.474 . S
C54 C56 1.285 . S
C54 H74 0.929 . S
C55 C52 1.461 . S
C55 C54 1.474 . S
C56 C51 1.342 . S
C56 C54 1.285 . S
C56 H75 0.930 . S
C57 C60 1.424 . S
C57 C62 1.245 . S
C57 C63 1.428 . S
C58 C61 1.260 . S
C58 C62 1.477 . S
C58 H76 0.932 . S
C59 C60 1.384 . S
C59 C61 1.479 . S
C59 H77 0.929 . S
C60 C57 1.424 . S
C60 C59 1.384 . S
C60 H78 0.928 . S
C61 C58 1.260 . S
C61 C59 1.479 . S
C62 C57 1.245 . S
C62 C58 1.477 . S
C62 H79 0.932 . S
C63 U46 2.882 . S
C63 C57 1.428 . S
C63 O66 1.301 . S
C63 O67 1.282 . S
O64 U46 2.441 . S
O64 C50 1.249 . S
O65 U46 2.420 . S
O65 C50 1.202 . S
O66 U46 2.455 . S
O66 C63 1.301 . S
O67 U46 2.449 . S
O67 C63 1.282 . S
H68 C41 0.931 . S
H69 C43 0.929 . S
H70 C44 0.930 . S
H71 C45 0.931 . S
H72 C52 0.932 . S
H73 C53 0.930 . S
H74 C54 0.929 . S
H75 C56 0.930 . S
H76 C58 0.932 . S
H77 C59 0.929 . S
H78 C60 0.928 . S
H79 C62 0.932 . S
C80 C81 1.264 . S
C80 C85 1.479 . S
C80 C90 1.465 . S
C81 C80 1.264 . S
C81 C83 1.339 . S
C81 H108 0.931 . S
C82 C83 1.395 . S
C82 C84 1.320 . S
C83 C81 1.339 . S
C83 C82 1.395 . S
C83 H109 0.929 . S
C84 C82 1.320 . S
C84 C85 1.405 . S
C84 H110 0.930 . S
C85 C80 1.479 . S
C85 C84 1.405 . S
C85 H111 0.931 . S
U86 O87 2.454 . S
U86 O88 2.458 . S
U86 C89 2.984 . S
U86 C90 2.847 . S
U86 C103 2.882 . S
U86 O104 2.441 . S
U86 O105 2.420 . S
U86 O106 2.455 . S
U86 O107 2.449 . S
O87 U86 2.454 . S
O87 C89 1.353 . S
O88 U86 2.458 . S
O88 C89 1.286 . S
C89 U86 2.984 . S
C89 O87 1.353 . S
C89 O88 1.286 . S
C89 C91 1.363 . S
C90 C80 1.465 . S
C90 U86 2.847 . S
C90 O104 1.249 . S
C90 O105 1.202 . S
C91 C89 1.363 . S
C91 C93 1.408 . S
C91 C96 1.342 . S
C92 C93 1.310 . S
C92 C95 1.461 . S
C92 H112 0.932 . S
C93 C91 1.408 . S
C93 C92 1.310 . S
C93 H113 0.930 . S
C94 C95 1.474 . S
C94 C96 1.285 . S
C94 H114 0.929 . S
C95 C92 1.461 . S
C95 C94 1.474 . S
C96 C91 1.342 . S
C96 C94 1.285 . S
C96 H115 0.930 . S
C97 C100 1.424 . S
C97 C102 1.245 . S
C97 C103 1.428 . S
C98 C101 1.260 . S
C98 C102 1.477 . S
C98 H116 0.932 . S
C99 C100 1.384 . S
C99 C101 1.479 . S
C99 H117 0.929 . S
C100 C97 1.424 . S
C100 C99 1.384 . S
C100 H118 0.928 . S
C101 C98 1.260 . S
C101 C99 1.479 . S
C102 C97 1.245 . S
C102 C98 1.477 . S
C102 H119 0.932 . S
C103 U86 2.882 . S
C103 C97 1.428 . S
C103 O106 1.301 . S
C103 O107 1.282 . S
O104 U86 2.441 . S
O104 C90 1.249 . S
O105 U86 2.420 . S
O105 C90 1.202 . S
O106 U86 2.455 . S
O106 C103 1.301 . S
O107 U86 2.449 . S
O107 C103 1.282 . S
H108 C81 0.931 . S
H109 C83 0.929 . S
H110 C84 0.930 . S
H111 C85 0.931 . S
H112 C92 0.932 . S
H113 C93 0.930 . S
H114 C94 0.929 . S
H115 C96 0.930 . S
H116 C98 0.932 . S
H117 C99 0.929 . S
H118 C100 0.928 . S
H119 C102 0.932 . S
C120 C121 1.264 . S
C120 C125 1.479 . S
C120 C130 1.465 . S
C121 C120 1.264 . S
C121 C123 1.339 . S
C121 H148 0.931 . S
C122 C123 1.395 . S
C122 C124 1.320 . S
C123 C121 1.339 . S
C123 C122 1.395 . S
C123 H149 0.929 . S
C124 C122 1.320 . S
C124 C125 1.405 . S
C124 H150 0.930 . S
C125 C120 1.479 . S
C125 C124 1.405 . S
C125 H151 0.931 . S
U126 O127 2.454 . S
U126 O128 2.458 . S
U126 C129 2.984 . S
U126 C130 2.847 . S
U126 C143 2.882 . S
U126 O144 2.441 . S
U126 O145 2.420 . S
U126 O146 2.455 . S
U126 O147 2.449 . S
O127 U126 2.454 . S
O127 C129 1.353 . S
O128 U126 2.458 . S
O128 C129 1.286 . S
C129 U126 2.984 . S
C129 O127 1.353 . S
C129 O128 1.286 . S
C129 C131 1.363 . S
C130 C120 1.465 . S
C130 U126 2.847 . S
C130 O144 1.249 . S
C130 O145 1.202 . S
C131 C129 1.363 . S
C131 C133 1.408 . S
C131 C136 1.342 . S
C132 C133 1.310 . S
C132 C135 1.461 . S
C132 H152 0.932 . S
C133 C131 1.408 . S
C133 C132 1.310 . S
C133 H153 0.930 . S
C134 C135 1.474 . S
C134 C136 1.285 . S
C134 H154 0.929 . S
C135 C132 1.461 . S
C135 C134 1.474 . S
C136 C131 1.342 . S
C136 C134 1.285 . S
C136 H155 0.930 . S
C137 C140 1.424 . S
C137 C142 1.245 . S
C137 C143 1.428 . S
C138 C141 1.260 . S
C138 C142 1.477 . S
C138 H156 0.932 . S
C139 C140 1.384 . S
C139 C141 1.479 . S
C139 H157 0.929 . S
C140 C137 1.424 . S
C140 C139 1.384 . S
C140 H158 0.928 . S
C141 C138 1.260 . S
C141 C139 1.479 . S
C142 C137 1.245 . S
C142 C138 1.477 . S
C142 H159 0.932 . S
C143 U126 2.882 . S
C143 C137 1.428 . S
C143 O146 1.301 . S
C143 O147 1.282 . S
O144 U126 2.441 . S
O144 C130 1.249 . S
O145 U126 2.420 . S
O145 C130 1.202 . S
O146 U126 2.455 . S
O146 C143 1.301 . S
O147 U126 2.449 . S
O147 C143 1.282 . S
H148 C121 0.931 . S
H149 C123 0.929 . S
H150 C124 0.930 . S
H151 C125 0.931 . S
H152 C132 0.932 . S
H153 C133 0.930 . S
H154 C134 0.929 . S
H155 C136 0.930 . S
H156 C138 0.932 . S
H157 C139 0.929 . S
H158 C140 0.928 . S
H159 C142 0.932 . S
C160 C161 1.264 . S
C160 C165 1.479 . S
C160 C170 1.465 . S
C161 C160 1.264 . S
C161 C163 1.339 . S
C161 H188 0.931 . S
C162 C163 1.395 . S
C162 C164 1.320 . S
C163 C161 1.339 . S
C163 C162 1.395 . S
C163 H189 0.929 . S
C164 C162 1.320 . S
C164 C165 1.405 . S
C164 H190 0.930 . S
C165 C160 1.479 . S
C165 C164 1.405 . S
C165 H191 0.931 . S
U166 O167 2.454 . S
U166 O168 2.458 . S
U166 C169 2.984 . S
U166 C170 2.847 . S
U166 C183 2.882 . S
U166 O184 2.441 . S
U166 O185 2.420 . S
U166 O186 2.455 . S
U166 O187 2.449 . S
O167 U166 2.454 . S
O167 C169 1.353 . S
O168 U166 2.458 . S
O168 C169 1.286 . S
C169 U166 2.984 . S
C169 O167 1.353 . S
C169 O168 1.286 . S
C169 C171 1.363 . S
C170 C160 1.465 . S
C170 U166 2.847 . S
C170 O184 1.249 . S
C170 O185 1.202 . S
C171 C169 1.363 . S
C171 C173 1.408 . S
C171 C176 1.342 . S
C172 C173 1.310 . S
C172 C175 1.461 . S
C172 H192 0.932 . S
C173 C171 1.408 . S
C173 C172 1.310 . S
C173 H193 0.930 . S
C174 C175 1.474 . S
C174 C176 1.285 . S
C174 H194 0.929 . S
C175 C172 1.461 . S
C175 C174 1.474 . S
C176 C171 1.342 . S
C176 C174 1.285 . S
C176 H195 0.930 . S
C177 C180 1.424 . S
C177 C182 1.245 . S
C177 C183 1.428 . S
C178 C181 1.260 . S
C178 C182 1.477 . S
C178 H196 0.932 . S
C179 C180 1.384 . S
C179 C181 1.479 . S
C179 H197 0.929 . S
C180 C177 1.424 . S
C180 C179 1.384 . S
C180 H198 0.928 . S
C181 C178 1.260 . S
C181 C179 1.479 . S
C182 C177 1.245 . S
C182 C178 1.477 . S
C182 H199 0.932 . S
C183 U166 2.882 . S
C183 C177 1.428 . S
C183 O186 1.301 . S
C183 O187 1.282 . S
O184 U166 2.441 . S
O184 C170 1.249 . S
O185 U166 2.420 . S
O185 C170 1.202 . S
O186 U166 2.455 . S
O186 C183 1.301 . S
O187 U166 2.449 . S
O187 C183 1.282 . S
H188 C161 0.931 . S
H189 C163 0.929 . S
H190 C164 0.930 . S
H191 C165 0.931 . S
H192 C172 0.932 . S
H193 C173 0.930 . S
H194 C174 0.929 . S
H195 C176 0.930 . S
H196 C178 0.932 . S
H197 C179 0.929 . S
H198 C180 0.928 . S
H199 C182 0.932 . S
C200 C201 1.264 . S
C200 C205 1.479 . S
C200 C210 1.465 . S
C201 C200 1.264 . S
C201 C203 1.339 . S
C201 H228 0.931 . S
C202 C203 1.395 . S
C202 C204 1.320 . S
C203 C201 1.339 . S
C203 C202 1.395 . S
C203 H229 0.929 . S
C204 C202 1.320 . S
C204 C205 1.405 . S
C204 H230 0.930 . S
C205 C200 1.479 . S
C205 C204 1.405 . S
C205 H231 0.931 . S
U206 O207 2.454 . S
U206 O208 2.458 . S
U206 C209 2.984 . S
U206 C210 2.847 . S
U206 C223 2.882 . S
U206 O224 2.441 . S
U206 O225 2.420 . S
U206 O226 2.455 . S
U206 O227 2.449 . S
O207 U206 2.454 . S
O207 C209 1.353 . S
O208 U206 2.458 . S
O208 C209 1.286 . S
C209 U206 2.984 . S
C209 O207 1.353 . S
C209 O208 1.286 . S
C209 C211 1.363 . S
C210 C200 1.465 . S
C210 U206 2.847 . S
C210 O224 1.249 . S
C210 O225 1.202 . S
C211 C209 1.363 . S
C211 C213 1.408 . S
C211 C216 1.342 . S
C212 C213 1.310 . S
C212 C215 1.461 . S
C212 H232 0.932 . S
C213 C211 1.408 . S
C213 C212 1.310 . S
C213 H233 0.930 . S
C214 C215 1.474 . S
C214 C216 1.285 . S
C214 H234 0.929 . S
C215 C212 1.461 . S
C215 C214 1.474 . S
C216 C211 1.342 . S
C216 C214 1.285 . S
C216 H235 0.930 . S
C217 C220 1.424 . S
C217 C222 1.245 . S
C217 C223 1.428 . S
C218 C221 1.260 . S
C218 C222 1.477 . S
C218 H236 0.932 . S
C219 C220 1.384 . S
C219 C221 1.479 . S
C219 H237 0.929 . S
C220 C217 1.424 . S
C220 C219 1.384 . S
C220 H238 0.928 . S
C221 C218 1.260 . S
C221 C219 1.479 . S
C222 C217 1.245 . S
C222 C218 1.477 . S
C222 H239 0.932 . S
C223 U206 2.882 . S
C223 C217 1.428 . S
C223 O226 1.301 . S
C223 O227 1.282 . S
O224 U206 2.441 . S
O224 C210 1.249 . S
O225 U206 2.420 . S
O225 C210 1.202 . S
O226 U206 2.455 . S
O226 C223 1.301 . S
O227 U206 2.449 . S
O227 C223 1.282 . S
H228 C201 0.931 . S
H229 C203 0.929 . S
H230 C204 0.930 . S
H231 C205 0.931 . S
H232 C212 0.932 . S
H233 C213 0.930 . S
H234 C214 0.929 . S
H235 C216 0.930 . S
H236 C218 0.932 . S
H237 C219 0.929 . S
H238 C220 0.928 . S
H239 C222 0.932 . S
C240 C241 1.264 . S
C240 C245 1.479 . S
C240 C250 1.465 . S
C241 C240 1.264 . S
C241 C243 1.339 . S
C241 H268 0.931 . S
C242 C243 1.395 . S
C242 C244 1.320 . S
C243 C241 1.339 . S
C243 C242 1.395 . S
C243 H269 0.929 . S
C244 C242 1.320 . S
C244 C245 1.405 . S
C244 H270 0.930 . S
C245 C240 1.479 . S
C245 C244 1.405 . S
C245 H271 0.931 . S
U246 O247 2.454 . S
U246 O248 2.458 . S
U246 C249 2.984 . S
U246 C250 2.847 . S
U246 C263 2.882 . S
U246 O264 2.441 . S
U246 O265 2.420 . S
U246 O266 2.455 . S
U246 O267 2.449 . S
O247 U246 2.454 . S
O247 C249 1.353 . S
O248 U246 2.458 . S
O248 C249 1.286 . S
C249 U246 2.984 . S
C249 O247 1.353 . S
C249 O248 1.286 . S
C249 C251 1.363 . S
C250 C240 1.465 . S
C250 U246 2.847 . S
C250 O264 1.249 . S
C250 O265 1.202 . S
C251 C249 1.363 . S
C251 C253 1.408 . S
C251 C256 1.342 . S
C252 C253 1.310 . S
C252 C255 1.461 . S
C252 H272 0.932 . S
C253 C251 1.408 . S
C253 C252 1.310 . S
C253 H273 0.930 . S
C254 C255 1.474 . S
C254 C256 1.285 . S
C254 H274 0.929 . S
C255 C252 1.461 . S
C255 C254 1.474 . S
C256 C251 1.342 . S
C256 C254 1.285 . S
C256 H275 0.930 . S
C257 C260 1.424 . S
C257 C262 1.245 . S
C257 C263 1.428 . S
C258 C261 1.260 . S
C258 C262 1.477 . S
C258 H276 0.932 . S
C259 C260 1.384 . S
C259 C261 1.479 . S
C259 H277 0.929 . S
C260 C257 1.424 . S
C260 C259 1.384 . S
C260 H278 0.928 . S
C261 C258 1.260 . S
C261 C259 1.479 . S
C262 C257 1.245 . S
C262 C258 1.477 . S
C262 H279 0.932 . S
C263 U246 2.882 . S
C263 C257 1.428 . S
C263 O266 1.301 . S
C263 O267 1.282 . S
O264 U246 2.441 . S
O264 C250 1.249 . S
O265 U246 2.420 . S
O265 C250 1.202 . S
O266 U246 2.455 . S
O266 C263 1.301 . S
O267 U246 2.449 . S
O267 C263 1.282 . S
H268 C241 0.931 . S
H269 C243 0.929 . S
H270 C244 0.930 . S
H271 C245 0.931 . S
H272 C252 0.932 . S
H273 C253 0.930 . S
H274 C254 0.929 . S
H275 C256 0.930 . S
H276 C258 0.932 . S
H277 C259 0.929 . S
H278 C260 0.928 . S
H279 C262 0.932 . S
C280 C281 1.264 . S
C280 C285 1.479 . S
C280 C290 1.465 . S
C281 C280 1.264 . S
C281 C283 1.339 . S
C281 H308 0.931 . S
C282 C283 1.395 . S
C282 C284 1.320 . S
C283 C281 1.339 . S
C283 C282 1.395 . S
C283 H309 0.929 . S
C284 C282 1.320 . S
C284 C285 1.405 . S
C284 H310 0.930 . S
C285 C280 1.479 . S
C285 C284 1.405 . S
C285 H311 0.931 . S
U286 O287 2.454 . S
U286 O288 2.458 . S
U286 C289 2.984 . S
U286 C290 2.847 . S
U286 C303 2.882 . S
U286 O304 2.441 . S
U286 O305 2.420 . S
U286 O306 2.455 . S
U286 O307 2.449 . S
O287 U286 2.454 . S
O287 C289 1.353 . S
O288 U286 2.458 . S
O288 C289 1.286 . S
C289 U286 2.984 . S
C289 O287 1.353 . S
C289 O288 1.286 . S
C289 C291 1.363 . S
C290 C280 1.465 . S
C290 U286 2.847 . S
C290 O304 1.249 . S
C290 O305 1.202 . S
C291 C289 1.363 . S
C291 C293 1.408 . S
C291 C296 1.342 . S
C292 C293 1.310 . S
C292 C295 1.461 . S
C292 H312 0.932 . S
C293 C291 1.408 . S
C293 C292 1.310 . S
C293 H313 0.930 . S
C294 C295 1.474 . S
C294 C296 1.285 . S
C294 H314 0.929 . S
C295 C292 1.461 . S
C295 C294 1.474 . S
C296 C291 1.342 . S
C296 C294 1.285 . S
C296 H315 0.930 . S
C297 C300 1.424 . S
C297 C302 1.245 . S
C297 C303 1.428 . S
C298 C301 1.260 . S
C298 C302 1.477 . S
C298 H316 0.932 . S
C299 C300 1.384 . S
C299 C301 1.479 . S
C299 H317 0.929 . S
C300 C297 1.424 . S
C300 C299 1.384 . S
C300 H318 0.928 . S
C301 C298 1.260 . S
C301 C299 1.479 . S
C302 C297 1.245 . S
C302 C298 1.477 . S
C302 H319 0.932 . S
C303 U286 2.882 . S
C303 C297 1.428 . S
C303 O306 1.301 . S
C303 O307 1.282 . S
O304 U286 2.441 . S
O304 C290 1.249 . S
O305 U286 2.420 . S
O305 C290 1.202 . S
O306 U286 2.455 . S
O306 C303 1.301 . S
O307 U286 2.449 . S
O307 C303 1.282 . S
H308 C281 0.931 . S
H309 C283 0.929 . S
H310 C284 0.930 . S
H311 C285 0.931 . S
H312 C292 0.932 . S
H313 C293 0.930 . S
H314 C294 0.929 . S
H315 C296 0.930 . S
H316 C298 0.932 . S
H317 C299 0.929 . S
H318 C300 0.928 . S
H319 C302 0.932 . S
Zn320 O326 1.969 1_545 S
Zn320 O327 1.965 1_545 S
Zn320 O331 2.024 . S
Zn320 O336 1.969 . S
Zn321 O328 1.969 . S
Zn321 O334 1.969 1_565 S
Zn321 O335 1.965 1_665 S
Zn321 O337 2.024 . S
C322 O323 1.229 . S
C322 O331 1.058 . S
O323 C322 1.229 . S
C324 O325 1.229 . S
C324 O337 1.058 . S
O325 C324 1.229 . S
O326 Zn320 1.969 1_565 S
O326 C329 1.267 . S
O327 Zn320 1.965 1_565 S
O327 C338 1.260 1_455 S
O328 Zn321 1.969 . S
O328 C338 1.258 . S
C329 O326 1.267 . S
C329 O330 1.228 . S
O330 C329 1.228 . S
O331 Zn320 2.024 . S
O331 C322 1.058 . S
C332 O333 1.228 . S
C332 O334 1.267 . S
O333 C332 1.228 . S
O334 Zn321 1.969 1_545 S
O334 C332 1.267 . S
O335 Zn321 1.965 1_445 S
O335 C339 1.260 . S
O336 Zn320 1.969 . S
O336 C339 1.258 . S
O337 Zn321 2.024 . S
O337 C324 1.058 . S
C338 O327 1.260 1_655 S
C338 O328 1.258 . S
C339 O335 1.260 . S
C339 O336 1.258 . S
Zn340 O346 1.969 . S
Zn340 O347 1.965 1_565 S
Zn340 O351 2.024 . S
Zn340 O356 1.969 1_556 S
Zn341 O348 1.969 . S
Zn341 O354 1.969 . S
Zn341 O355 1.965 1_545 S
Zn341 O357 2.024 . S
C342 O343 1.229 . S
C342 O351 1.058 . S
O343 C342 1.229 . S
C344 O345 1.229 . S
C344 O357 1.058 . S
O345 C344 1.229 . S
O346 Zn340 1.969 . S
O346 C349 1.267 . S
O347 Zn340 1.965 1_545 S
O347 C358 1.260 . S
O348 Zn341 1.969 . S
O348 C358 1.258 1_554 S
C349 O346 1.267 . S
C349 O350 1.228 . S
O350 C349 1.228 . S
O351 Zn340 2.024 . S
O351 C342 1.058 . S
C352 O353 1.228 . S
C352 O354 1.267 . S
O353 C352 1.228 . S
O354 Zn341 1.969 . S
O354 C352 1.267 . S
O355 Zn341 1.965 1_565 S
O355 C359 1.260 . S
O356 Zn340 1.969 1_554 S
O356 C359 1.258 . S
O357 Zn341 2.024 . S
O357 C344 1.058 . S
C358 O347 1.260 . S
C358 O348 1.258 1_556 S
C359 O355 1.260 . S
C359 O356 1.258 . S
Zn360 O366 1.969 . S
Zn360 O367 1.965 . S
Zn360 O371 2.024 . S
Zn360 O376 1.969 . S
Zn361 O368 1.969 . S
Zn361 O374 1.969 . S
Zn361 O375 1.965 . S
Zn361 O377 2.024 . S
C362 O363 1.229 . S
C362 O371 1.058 . S
O363 C362 1.229 . S
C364 O365 1.229 . S
C364 O377 1.058 . S
O365 C364 1.229 . S
O366 Zn360 1.969 . S
O366 C369 1.267 . S
O367 Zn360 1.965 . S
O367 C378 1.260 . S
O368 Zn361 1.969 . S
O368 C378 1.258 . S
C369 O366 1.267 . S
C369 O370 1.228 . S
O370 C369 1.228 . S
O371 Zn360 2.024 . S
O371 C362 1.058 . S
C372 O373 1.228 . S
C372 O374 1.267 . S
O373 C372 1.228 . S
O374 Zn361 1.969 . S
O374 C372 1.267 . S
O375 Zn361 1.965 . S
O375 C379 1.260 . S
O376 Zn360 1.969 . S
O376 C379 1.258 . S
O377 Zn361 2.024 . S
O377 C364 1.058 . S
C378 O367 1.260 . S
C378 O368 1.258 . S
C379 O375 1.260 . S
C379 O376 1.258 . S
Zn380 O386 1.969 . S
Zn380 O387 1.965 1_556 S
Zn380 O391 2.024 . S
Zn380 O396 1.969 1_655 S
Zn381 O388 1.969 . S
Zn381 O394 1.969 . S
Zn381 O395 1.965 1_554 S
Zn381 O397 2.024 . S
C382 O383 1.229 . S
C382 O391 1.058 . S
O383 C382 1.229 . S
C384 O385 1.229 . S
C384 O397 1.058 . S
O385 C384 1.229 . S
O386 Zn380 1.969 . S
O386 C389 1.267 . S
O387 Zn380 1.965 1_554 S
O387 C398 1.260 . S
O388 Zn381 1.969 . S
O388 C398 1.258 1_455 S
C389 O386 1.267 . S
C389 O390 1.228 . S
O390 C389 1.228 . S
O391 Zn380 2.024 . S
O391 C382 1.058 . S
C392 O393 1.228 . S
C392 O394 1.267 . S
O393 C392 1.228 . S
O394 Zn381 1.969 . S
O394 C392 1.267 . S
O395 Zn381 1.965 1_556 S
O395 C399 1.260 . S
O396 Zn380 1.969 1_455 S
O396 C399 1.258 . S
O397 Zn381 2.024 . S
O397 C384 1.058 . S
C398 O387 1.260 . S
C398 O388 1.258 1_655 S
C399 O395 1.260 . S
C399 O396 1.258 . S
C400 C401 1.391 . S
C400 C402 1.394 . S
C400 H416 0.931 . S
C401 C400 1.391 . S
C401 C405 1.376 . S
C402 C400 1.394 . S
C402 C403 1.369 . S
C402 C406 1.531 . S
C403 C402 1.369 . S
C403 C404 1.410 . S
C403 C411 1.503 . S
C404 C403 1.410 . S
C404 C405 1.392 . S
C404 C407 1.511 . S
C405 C401 1.376 . S
C405 C404 1.392 . S
C405 H417 0.929 . S
C406 C402 1.531 . S
C406 H418 0.960 . S
C406 H419 0.962 . S
C406 H420 0.960 . S
C407 C404 1.511 . S
C407 H421 0.961 . S
C407 H422 0.961 . S
C407 H423 0.961 . S
C408 C409 1.370 . S
C408 C410 1.363 . S
C408 H424 0.931 . S
C409 C408 1.370 . S
C409 C413 1.408 . S
C410 C408 1.363 . S
C410 C411 1.370 . S
C410 C414 1.524 . S
C411 C403 1.503 . S
C411 C410 1.370 . S
C411 C412 1.403 . S
C412 C411 1.403 . S
C412 C413 1.404 . S
C412 C415 1.539 . S
C413 C409 1.408 . S
C413 C412 1.404 . S
C413 H425 0.930 . S
C414 C410 1.524 . S
C414 H426 0.956 . S
C414 H427 0.961 . S
C414 H428 0.961 . S
C415 C412 1.539 . S
C415 H429 0.958 . S
C415 H430 0.961 . S
C415 H431 0.960 . S
H416 C400 0.931 . S
H417 C405 0.929 . S
H418 C406 0.960 . S
H419 C406 0.962 . S
H420 C406 0.960 . S
H421 C407 0.961 . S
H422 C407 0.961 . S
H423 C407 0.961 . S
H424 C408 0.931 . S
H425 C413 0.930 . S
H426 C414 0.956 . S
H427 C414 0.961 . S
H428 C414 0.961 . S
H429 C415 0.958 . S
H430 C415 0.961 . S
H431 C415 0.960 . S
C432 C433 1.391 . S
C432 C434 1.394 . S
C432 H448 0.931 . S
C433 C432 1.391 . S
C433 C437 1.376 . S
C434 C432 1.394 . S
C434 C435 1.369 . S
C434 C438 1.531 . S
C435 C434 1.369 . S
C435 C436 1.410 . S
C435 C443 1.503 . S
C436 C435 1.410 . S
C436 C437 1.392 . S
C436 C439 1.511 . S
C437 C433 1.376 . S
C437 C436 1.392 . S
C437 H449 0.929 . S
C438 C434 1.531 . S
C438 H450 0.960 . S
C438 H451 0.962 . S
C438 H452 0.960 . S
C439 C436 1.511 . S
C439 H453 0.961 . S
C439 H454 0.961 . S
C439 H455 0.961 . S
C440 C441 1.370 . S
C440 C442 1.363 . S
C440 H456 0.931 . S
C441 C440 1.370 . S
C441 C445 1.408 . S
C442 C440 1.363 . S
C442 C443 1.370 . S
C442 C446 1.524 . S
C443 C435 1.503 . S
C443 C442 1.370 . S
C443 C444 1.403 . S
C444 C443 1.403 . S
C444 C445 1.404 . S
C444 C447 1.539 . S
C445 C441 1.408 . S
C445 C444 1.404 . S
C445 H457 0.930 . S
C446 C442 1.524 . S
C446 H458 0.956 . S
C446 H459 0.961 . S
C446 H460 0.961 . S
C447 C444 1.539 . S
C447 H461 0.958 . S
C447 H462 0.961 . S
C447 H463 0.960 . S
H448 C432 0.931 . S
H449 C437 0.929 . S
H450 C438 0.960 . S
H451 C438 0.962 . S
H452 C438 0.960 . S
H453 C439 0.961 . S
H454 C439 0.961 . S
H455 C439 0.961 . S
H456 C440 0.931 . S
H457 C445 0.930 . S
H458 C446 0.956 . S
H459 C446 0.961 . S
H460 C446 0.961 . S
H461 C447 0.958 . S
H462 C447 0.961 . S
H463 C447 0.960 . S
C464 C465 1.391 . S
C464 C466 1.394 . S
C464 H480 0.931 . S
C465 C464 1.391 . S
C465 C469 1.376 . S
C466 C464 1.394 . S
C466 C467 1.369 . S
C466 C470 1.531 . S
C467 C466 1.369 . S
C467 C468 1.410 . S
C467 C475 1.503 . S
C468 C467 1.410 . S
C468 C469 1.392 . S
C468 C471 1.511 . S
C469 C465 1.376 . S
C469 C468 1.392 . S
C469 H481 0.929 . S
C470 C466 1.531 . S
C470 H482 0.960 . S
C470 H483 0.962 . S
C470 H484 0.960 . S
C471 C468 1.511 . S
C471 H485 0.961 . S
C471 H486 0.961 . S
C471 H487 0.961 . S
C472 C473 1.370 . S
C472 C474 1.363 . S
C472 H488 0.931 . S
C473 C472 1.370 . S
C473 C477 1.408 . S
C474 C472 1.363 . S
C474 C475 1.370 . S
C474 C478 1.524 . S
C475 C467 1.503 . S
C475 C474 1.370 . S
C475 C476 1.403 . S
C476 C475 1.403 . S
C476 C477 1.404 . S
C476 C479 1.539 . S
C477 C473 1.408 . S
C477 C476 1.404 . S
C477 H489 0.930 . S
C478 C474 1.524 . S
C478 H490 0.956 . S
C478 H491 0.961 . S
C478 H492 0.961 . S
C479 C476 1.539 . S
C479 H493 0.958 . S
C479 H494 0.961 . S
C479 H495 0.960 . S
H480 C464 0.931 . S
H481 C469 0.929 . S
H482 C470 0.960 . S
H483 C470 0.962 . S
H484 C470 0.960 . S
H485 C471 0.961 . S
H486 C471 0.961 . S
H487 C471 0.961 . S
H488 C472 0.931 . S
H489 C477 0.930 . S
H490 C478 0.956 . S
H491 C478 0.961 . S
H492 C478 0.961 . S
H493 C479 0.958 . S
H494 C479 0.961 . S
H495 C479 0.960 . S
C496 C497 1.391 . S
C496 C498 1.394 . S
C496 H512 0.931 . S
C497 C496 1.391 . S
C497 C501 1.376 . S
C498 C496 1.394 . S
C498 C499 1.369 . S
C498 C502 1.531 . S
C499 C498 1.369 . S
C499 C500 1.410 . S
C499 C507 1.503 . S
C500 C499 1.410 . S
C500 C501 1.392 . S
C500 C503 1.511 . S
C501 C497 1.376 . S
C501 C500 1.392 . S
C501 H513 0.929 . S
C502 C498 1.531 . S
C502 H514 0.960 . S
C502 H515 0.962 . S
C502 H516 0.960 . S
C503 C500 1.511 . S
C503 H517 0.961 . S
C503 H518 0.961 . S
C503 H519 0.961 . S
C504 C505 1.370 . S
C504 C506 1.363 . S
C504 H520 0.931 . S
C505 C504 1.370 . S
C505 C509 1.408 . S
C506 C504 1.363 . S
C506 C507 1.370 . S
C506 C510 1.524 . S
C507 C499 1.503 . S
C507 C506 1.370 . S
C507 C508 1.403 . S
C508 C507 1.403 . S
C508 C509 1.404 . S
C508 C511 1.539 . S
C509 C505 1.408 . S
C509 C508 1.404 . S
C509 H521 0.930 . S
C510 C506 1.524 . S
C510 H522 0.956 . S
C510 H523 0.961 . S
C510 H524 0.961 . S
C511 C508 1.539 . S
C511 H525 0.958 . S
C511 H526 0.961 . S
C511 H527 0.960 . S
H512 C496 0.931 . S
H513 C501 0.929 . S
H514 C502 0.960 . S
H515 C502 0.962 . S
H516 C502 0.960 . S
H517 C503 0.961 . S
H518 C503 0.961 . S
H519 C503 0.961 . S
H520 C504 0.931 . S
H521 C509 0.930 . S
H522 C510 0.956 . S
H523 C510 0.961 . S
H524 C510 0.961 . S
H525 C511 0.958 . S
H526 C511 0.961 . S
H527 C511 0.960 . S
C528 C529 1.391 . S
C528 C530 1.394 . S
C528 H544 0.931 . S
C529 C528 1.391 . S
C529 C533 1.376 . S
C530 C528 1.394 . S
C530 C531 1.369 . S
C530 C534 1.531 . S
C531 C530 1.369 . S
C531 C532 1.410 . S
C531 C539 1.503 . S
C532 C531 1.410 . S
C532 C533 1.392 . S
C532 C535 1.511 . S
C533 C529 1.376 . S
C533 C532 1.392 . S
C533 H545 0.929 . S
C534 C530 1.531 . S
C534 H546 0.960 . S
C534 H547 0.962 . S
C534 H548 0.960 . S
C535 C532 1.511 . S
C535 H549 0.961 . S
C535 H550 0.961 . S
C535 H551 0.961 . S
C536 C537 1.370 . S
C536 C538 1.363 . S
C536 H552 0.931 . S
C537 C536 1.370 . S
C537 C541 1.408 . S
C538 C536 1.363 . S
C538 C539 1.370 . S
C538 C542 1.524 . S
C539 C531 1.503 . S
C539 C538 1.370 . S
C539 C540 1.403 . S
C540 C539 1.403 . S
C540 C541 1.404 . S
C540 C543 1.539 . S
C541 C537 1.408 . S
C541 C540 1.404 . S
C541 H553 0.930 . S
C542 C538 1.524 . S
C542 H554 0.956 . S
C542 H555 0.961 . S
C542 H556 0.961 . S
C543 C540 1.539 . S
C543 H557 0.958 . S
C543 H558 0.961 . S
C543 H559 0.960 . S
H544 C528 0.931 . S
H545 C533 0.929 . S
H546 C534 0.960 . S
H547 C534 0.962 . S
H548 C534 0.960 . S
H549 C535 0.961 . S
H550 C535 0.961 . S
H551 C535 0.961 . S
H552 C536 0.931 . S
H553 C541 0.930 . S
H554 C542 0.956 . S
H555 C542 0.961 . S
H556 C542 0.961 . S
H557 C543 0.958 . S
H558 C543 0.961 . S
H559 C543 0.960 . S
C560 C561 1.391 . S
C560 C562 1.394 . S
C560 H576 0.931 . S
C561 C560 1.391 . S
C561 C565 1.376 . S
C562 C560 1.394 . S
C562 C563 1.369 . S
C562 C566 1.531 . S
C563 C562 1.369 . S
C563 C564 1.410 . S
C563 C571 1.503 . S
C564 C563 1.410 . S
C564 C565 1.392 . S
C564 C567 1.511 . S
C565 C561 1.376 . S
C565 C564 1.392 . S
C565 H577 0.929 . S
C566 C562 1.531 . S
C566 H578 0.960 . S
C566 H579 0.962 . S
C566 H580 0.960 . S
C567 C564 1.511 . S
C567 H581 0.961 . S
C567 H582 0.961 . S
C567 H583 0.961 . S
C568 C569 1.370 . S
C568 C570 1.363 . S
C568 H584 0.931 . S
C569 C568 1.370 . S
C569 C573 1.408 . S
C570 C568 1.363 . S
C570 C571 1.370 . S
C570 C574 1.524 . S
C571 C563 1.503 . S
C571 C570 1.370 . S
C571 C572 1.403 . S
C572 C571 1.403 . S
C572 C573 1.404 . S
C572 C575 1.539 . S
C573 C569 1.408 . S
C573 C572 1.404 . S
C573 H585 0.930 . S
C574 C570 1.524 . S
C574 H586 0.956 . S
C574 H587 0.961 . S
C574 H588 0.997 . S
C575 C572 1.539 . S
C575 H589 0.958 . S
C575 H590 0.961 . S
C575 H591 0.960 . S
H576 C560 0.931 . S
H577 C565 0.929 . S
H578 C566 0.960 . S
H579 C566 0.962 . S
H580 C566 0.960 . S
H581 C567 0.961 . S
H582 C567 0.961 . S
H583 C567 0.961 . S
H584 C568 0.931 . S
H585 C573 0.930 . S
H586 C574 0.956 . S
H587 C574 0.961 . S
H588 C574 0.997 . S
H589 C575 0.958 . S
H590 C575 0.961 . S
H591 C575 0.960 . S
C592 C593 1.391 . S
C592 C594 1.394 . S
C592 H608 0.931 . S
C593 C592 1.391 . S
C593 C597 1.376 . S
C594 C592 1.394 . S
C594 C595 1.369 . S
C594 C598 1.531 . S
C595 C594 1.369 . S
C595 C596 1.410 . S
C595 C603 1.503 . S
C596 C595 1.410 . S
C596 C597 1.392 . S
C596 C599 1.511 . S
C597 C593 1.376 . S
C597 C596 1.392 . S
C597 H609 0.929 . S
C598 C594 1.531 . S
C598 H610 0.960 . S
C598 H611 0.962 . S
C598 H612 0.960 . S
C599 C596 1.511 . S
C599 H613 0.961 . S
C599 H614 0.961 . S
C599 H615 0.961 . S
C600 C601 1.370 . S
C600 C602 1.363 . S
C600 H616 0.931 . S
C601 C600 1.370 . S
C601 C605 1.408 . S
C602 C600 1.363 . S
C602 C603 1.370 . S
C602 C606 1.524 . S
C603 C595 1.503 . S
C603 C602 1.370 . S
C603 C604 1.403 . S
C604 C603 1.403 . S
C604 C605 1.404 . S
C604 C607 1.539 . S
C605 C601 1.408 . S
C605 C604 1.404 . S
C605 H617 0.930 . S
C606 C602 1.524 . S
C606 H618 0.956 . S
C606 H619 0.961 . S
C606 H620 0.961 . S
C607 C604 1.539 . S
C607 H621 0.958 . S
C607 H622 0.961 . S
C607 H623 0.960 . S
H608 C592 0.931 . S
H609 C597 0.929 . S
H610 C598 0.960 . S
H611 C598 0.962 . S
H612 C598 0.960 . S
H613 C599 0.961 . S
H614 C599 0.961 . S
H615 C599 0.961 . S
H616 C600 0.931 . S
H617 C605 0.930 . S
H618 C606 0.956 . S
H619 C606 0.961 . S
H620 C606 0.961 . S
H621 C607 0.958 . S
H622 C607 0.961 . S
H623 C607 0.960 . S
C624 C625 1.391 . S
C624 C626 1.394 . S
C624 H640 0.931 . S
C625 C624 1.391 . S
C625 C629 1.376 . S
C626 C624 1.394 . S
C626 C627 1.369 . S
C626 C630 1.531 . S
C627 C626 1.369 . S
C627 C628 1.410 . S
C627 C635 1.503 . S
C628 C627 1.410 . S
C628 C629 1.392 . S
C628 C631 1.511 . S
C629 C625 1.376 . S
C629 C628 1.392 . S
C629 H641 0.929 . S
C630 C626 1.531 . S
C630 H642 0.960 . S
C630 H643 0.962 . S
C630 H644 0.960 . S
C631 C628 1.511 . S
C631 H645 0.961 . S
C631 H646 0.961 . S
C631 H647 0.961 . S
C632 C633 1.370 . S
C632 C634 1.363 . S
C632 H648 0.931 . S
C633 C632 1.370 . S
C633 C637 1.408 . S
C634 C632 1.363 . S
C634 C635 1.370 . S
C634 C638 1.524 . S
C635 C627 1.503 . S
C635 C634 1.370 . S
C635 C636 1.403 . S
C636 C635 1.403 . S
C636 C637 1.404 . S
C636 C639 1.539 . S
C637 C633 1.408 . S
C637 C636 1.404 . S
C637 H649 0.930 . S
C638 C634 1.524 . S
C638 H650 0.956 . S
C638 H651 0.961 . S
C638 H652 0.961 . S
C639 C636 1.539 . S
C639 H653 0.958 . S
C639 H654 0.961 . S
C639 H655 0.960 . S
H640 C624 0.931 . S
H641 C629 0.929 . S
H642 C630 0.960 . S
H643 C630 0.962 . S
H644 C630 0.960 . S
H645 C631 0.961 . S
H646 C631 0.961 . S
H647 C631 0.961 . S
H648 C632 0.931 . S
H649 C637 0.930 . S
H650 C638 0.956 . S
H651 C638 0.961 . S
H652 C638 0.961 . S
H653 C639 0.958 . S
H654 C639 0.961 . S
H655 C639 0.960 . S
C656 C657 1.391 . S
C656 C658 1.394 . S
C656 H672 0.931 . S
C657 C656 1.391 . S
C657 C661 1.376 . S
C658 C656 1.394 . S
C658 C659 1.369 . S
C658 C662 1.531 . S
C659 C658 1.369 . S
C659 C660 1.410 . S
C659 C667 1.503 . S
C660 C659 1.410 . S
C660 C661 1.392 . S
C660 C663 1.511 . S
C661 C657 1.376 . S
C661 C660 1.392 . S
C661 H673 0.929 . S
C662 C658 1.531 . S
C662 H674 0.960 . S
C662 H675 0.962 . S
C662 H676 0.960 . S
C663 C660 1.511 . S
C663 H677 0.961 . S
C663 H678 0.961 . S
C663 H679 0.961 . S
C664 C665 1.370 . S
C664 C666 1.363 . S
C664 H680 0.931 . S
C665 C664 1.370 . S
C665 C669 1.408 . S
C666 C664 1.363 . S
C666 C667 1.370 . S
C666 C670 1.524 . S
C667 C659 1.503 . S
C667 C666 1.370 . S
C667 C668 1.403 . S
C668 C667 1.403 . S
C668 C669 1.404 . S
C668 C671 1.539 . S
C669 C665 1.408 . S
C669 C668 1.404 . S
C669 H681 0.930 . S
C670 C666 1.524 . S
C670 H682 0.956 . S
C670 H683 0.961 . S
C670 H684 0.961 . S
C671 C668 1.539 . S
C671 H685 0.958 . S
C671 H686 0.961 . S
C671 H687 0.960 . S
H672 C656 0.931 . S
H673 C661 0.929 . S
H674 C662 0.960 . S
H675 C662 0.962 . S
H676 C662 0.960 . S
H677 C663 0.961 . S
H678 C663 0.961 . S
H679 C663 0.961 . S
H680 C664 0.931 . S
H681 C669 0.930 . S
H682 C670 0.956 . S
H683 C670 0.961 . S
H684 C670 0.961 . S
H685 C671 0.958 . S
H686 C671 0.961 . S
H687 C671 0.960 . S
C688 C689 1.391 . S
C688 C690 1.394 . S
C688 H704 0.931 . S
C689 C688 1.391 . S
C689 C693 1.376 . S
C690 C688 1.394 . S
C690 C691 1.369 . S
C690 C694 1.531 . S
C691 C690 1.369 . S
C691 C692 1.410 . S
C691 C699 1.503 . S
C692 C691 1.410 . S
C692 C693 1.392 . S
C692 C695 1.511 . S
C693 C689 1.376 . S
C693 C692 1.392 . S
C693 H705 0.929 . S
C694 C690 1.531 . S
C694 H706 0.960 . S
C694 H707 0.962 . S
C694 H708 0.960 . S
C695 C692 1.511 . S
C695 H709 0.961 . S
C695 H710 0.961 . S
C695 H711 0.961 . S
C696 C697 1.370 . S
C696 C698 1.363 . S
C696 H712 0.931 . S
C697 C696 1.370 . S
C697 C701 1.408 . S
C698 C696 1.363 . S
C698 C699 1.370 . S
C698 C702 1.524 . S
C699 C691 1.503 . S
C699 C698 1.370 . S
C699 C700 1.403 . S
C700 C699 1.403 . S
C700 C701 1.404 . S
C700 C703 1.539 . S
C701 C697 1.408 . S
C701 C700 1.404 . S
C701 H713 0.930 . S
C702 C698 1.524 . S
C702 H714 0.956 . S
C702 H715 0.961 . S
C702 H716 0.961 . S
C703 C700 1.539 . S
C703 H717 0.958 . S
C703 H718 0.961 . S
C703 H719 0.960 . S
H704 C688 0.931 . S
H705 C693 0.929 . S
H706 C694 0.960 . S
H707 C694 0.962 . S
H708 C694 0.960 . S
H709 C695 0.961 . S
H710 C695 0.961 . S
H711 C695 0.961 . S
H712 C696 0.931 . S
H713 C701 0.930 . S
H714 C702 0.956 . S
H715 C702 0.961 . S
H716 C702 0.961 . S
H717 C703 0.958 . S
H718 C703 0.961 . S
H719 C703 0.960 . S
C720 C721 1.391 . S
C720 C722 1.394 . S
C720 H736 0.931 . S
C721 C720 1.391 . S
C721 C725 1.376 . S
C722 C720 1.394 . S
C722 C723 1.369 . S
C722 C726 1.531 . S
C723 C722 1.369 . S
C723 C724 1.410 . S
C723 C731 1.503 . S
C724 C723 1.410 . S
C724 C725 1.392 . S
C724 C727 1.511 . S
C725 C721 1.376 . S
C725 C724 1.392 . S
C725 H737 0.929 . S
C726 C722 1.531 . S
C726 H738 0.960 . S
C726 H739 0.962 . S
C726 H740 0.960 . S
C727 C724 1.511 . S
C727 H741 0.961 . S
C727 H742 0.961 . S
C727 H743 0.961 . S
C728 C729 1.370 . S
C728 C730 1.363 . S
C728 H744 0.931 . S
C729 C728 1.370 . S
C729 C733 1.408 . S
C730 C728 1.363 . S
C730 C731 1.370 . S
C730 C734 1.524 . S
C731 C723 1.503 . S
C731 C730 1.370 . S
C731 C732 1.403 . S
C732 C731 1.403 . S
C732 C733 1.404 . S
C732 C735 1.539 . S
C733 C729 1.408 . S
C733 C732 1.404 . S
C733 H745 0.930 . S
C734 C730 1.524 . S
C734 H746 0.956 . S
C734 H747 0.961 . S
C734 H748 0.961 . S
C735 C732 1.539 . S
C735 H749 0.958 . S
C735 H750 0.961 . S
C735 H751 0.960 . S
H736 C720 0.931 . S
H737 C725 0.929 . S
H738 C726 0.960 . S
H739 C726 0.962 . S
H740 C726 0.960 . S
H741 C727 0.961 . S
H742 C727 0.961 . S
H743 C727 0.961 . S
H744 C728 0.931 . S
H745 C733 0.930 . S
H746 C734 0.956 . S
H747 C734 0.961 . S
H748 C734 0.961 . S
H749 C735 0.958 . S
H750 C735 0.961 . S
H751 C735 0.960 . S
C752 C753 1.391 . S
C752 C754 1.394 . S
C752 H768 0.931 . S
C753 C752 1.391 . S
C753 C757 1.376 . S
C754 C752 1.394 . S
C754 C755 1.369 . S
C754 C758 1.531 . S
C755 C754 1.369 . S
C755 C756 1.410 . S
C755 C763 1.503 . S
C756 C755 1.410 . S
C756 C757 1.392 . S
C756 C759 1.511 . S
C757 C753 1.376 . S
C757 C756 1.392 . S
C757 H769 0.929 . S
C758 C754 1.531 . S
C758 H770 0.960 . S
C758 H771 0.962 . S
C758 H772 0.960 . S
C759 C756 1.511 . S
C759 H773 0.961 . S
C759 H774 0.961 . S
C759 H775 0.961 . S
C760 C761 1.370 . S
C760 C762 1.363 . S
C760 H776 0.931 . S
C761 C760 1.370 . S
C761 C765 1.408 . S
C762 C760 1.363 . S
C762 C763 1.370 . S
C762 C766 1.524 . S
C763 C755 1.503 . S
C763 C762 1.370 . S
C763 C764 1.403 . S
C764 C763 1.403 . S
C764 C765 1.404 . S
C764 C767 1.539 . S
C765 C761 1.408 . S
C765 C764 1.404 . S
C765 H777 0.930 . S
C766 C762 1.524 . S
C766 H778 0.956 . S
C766 H779 0.961 . S
C766 H780 0.961 . S
C767 C764 1.539 . S
C767 H781 0.958 . S
C767 H782 0.961 . S
C767 H783 0.960 . S
H768 C752 0.931 . S
H769 C757 0.929 . S
H770 C758 0.960 . S
H771 C758 0.962 . S
H772 C758 0.960 . S
H773 C759 0.961 . S
H774 C759 0.961 . S
H775 C759 0.961 . S
H776 C760 0.931 . S
H777 C765 0.930 . S
H778 C766 0.956 . S
H779 C766 0.961 . S
H780 C766 0.961 . S
H781 C767 0.958 . S
H782 C767 0.961 . S
H783 C767 0.960 . S
C784 C785 1.391 . S
C784 C786 1.394 . S
C784 H800 0.931 . S
C785 C784 1.391 . S
C785 C789 1.376 . S
C786 C784 1.394 . S
C786 C787 1.369 . S
C786 C790 1.531 . S
C787 C786 1.369 . S
C787 C788 1.410 . S
C787 C795 1.503 . S
C788 C787 1.410 . S
C788 C789 1.392 . S
C788 C791 1.511 . S
C789 C785 1.376 . S
C789 C788 1.392 . S
C789 H801 0.929 . S
C790 C786 1.531 . S
C790 H802 0.960 . S
C790 H803 0.962 . S
C790 H804 0.960 . S
C791 C788 1.511 . S
C791 H805 0.961 . S
C791 H806 0.961 . S
C791 H807 0.961 . S
C792 C793 1.370 . S
C792 C794 1.363 . S
C792 H808 0.931 . S
C793 C792 1.370 . S
C793 C797 1.408 . S
C794 C792 1.363 . S
C794 C795 1.370 . S
C794 C798 1.524 . S
C795 C787 1.503 . S
C795 C794 1.370 . S
C795 C796 1.403 . S
C796 C795 1.403 . S
C796 C797 1.404 . S
C796 C799 1.539 . S
C797 C793 1.408 . S
C797 C796 1.404 . S
C797 H809 0.930 . S
C798 C794 1.524 . S
C798 H810 0.956 . S
C798 H811 0.961 . S
C798 H812 0.961 . S
C799 C796 1.539 . S
C799 H813 0.958 . S
C799 H814 0.961 . S
C799 H815 0.960 . S
H800 C784 0.931 . S
H801 C789 0.929 . S
H802 C790 0.960 . S
H803 C790 0.962 . S
H804 C790 0.960 . S
H805 C791 0.961 . S
H806 C791 0.961 . S
H807 C791 0.961 . S
H808 C792 0.931 . S
H809 C797 0.930 . S
H810 C798 0.956 . S
H811 C798 0.961 . S
H812 C798 0.961 . S
H813 C799 0.958 . S
H814 C799 0.961 . S
H815 C799 0.960 . S
C816 C817 1.391 . S
C816 C818 1.394 . S
C816 H832 0.931 . S
C817 C816 1.391 . S
C817 C821 1.376 . S
C818 C816 1.394 . S
C818 C819 1.369 . S
C818 C822 1.531 . S
C819 C818 1.369 . S
C819 C820 1.410 . S
C819 C827 1.503 . S
C820 C819 1.410 . S
C820 C821 1.392 . S
C820 C823 1.511 . S
C821 C817 1.376 . S
C821 C820 1.392 . S
C821 H833 0.929 . S
C822 C818 1.531 . S
C822 H834 0.960 . S
C822 H835 0.962 . S
C822 H836 0.960 . S
C823 C820 1.511 . S
C823 H837 0.961 . S
C823 H838 0.961 . S
C823 H839 0.961 . S
C824 C825 1.370 . S
C824 C826 1.363 . S
C824 H840 0.931 . S
C825 C824 1.370 . S
C825 C829 1.408 . S
C826 C824 1.363 . S
C826 C827 1.370 . S
C826 C830 1.524 . S
C827 C819 1.503 . S
C827 C826 1.370 . S
C827 C828 1.403 . S
C828 C827 1.403 . S
C828 C829 1.404 . S
C828 C831 1.539 . S
C829 C825 1.408 . S
C829 C828 1.404 . S
C829 H841 0.930 . S
C830 C826 1.524 . S
C830 H842 0.956 . S
C830 H843 0.961 . S
C830 H844 0.961 . S
C831 C828 1.539 . S
C831 H845 0.958 . S
C831 H846 0.961 . S
C831 H847 0.960 . S
H832 C816 0.931 . S
H833 C821 0.929 . S
H834 C822 0.960 . S
H835 C822 0.962 . S
H836 C822 0.960 . S
H837 C823 0.961 . S
H838 C823 0.961 . S
H839 C823 0.961 . S
H840 C824 0.931 . S
H841 C829 0.930 . S
H842 C830 0.956 . S
H843 C830 0.961 . S
H844 C830 0.961 . S
H845 C831 0.958 . S
H846 C831 0.961 . S
H847 C831 0.960 . S
C848 C849 1.391 . S
C848 C850 1.394 . S
C848 H864 0.931 . S
C849 C848 1.391 . S
C849 C853 1.376 . S
C850 C848 1.394 . S
C850 C851 1.369 . S
C850 C854 1.531 . S
C851 C850 1.369 . S
C851 C852 1.410 . S
C851 C859 1.503 . S
C852 C851 1.410 . S
C852 C853 1.392 . S
C852 C855 1.511 . S
C853 C849 1.376 . S
C853 C852 1.392 . S
C853 H865 0.929 . S
C854 C850 1.531 . S
C854 H866 0.960 . S
C854 H867 0.962 . S
C854 H868 0.960 . S
C855 C852 1.511 . S
C855 H869 0.961 . S
C855 H870 0.961 . S
C855 H871 0.961 . S
C856 C857 1.370 . S
C856 C858 1.363 . S
C856 H872 0.931 . S
C857 C856 1.370 . S
C857 C861 1.408 . S
C858 C856 1.363 . S
C858 C859 1.370 . S
C858 C862 1.524 . S
C859 C851 1.503 . S
C859 C858 1.370 . S
C859 C860 1.403 . S
C860 C859 1.403 . S
C860 C861 1.404 . S
C860 C863 1.539 . S
C861 C857 1.408 . S
C861 C860 1.404 . S
C861 H873 0.930 . S
C862 C858 1.524 . S
C862 H874 0.956 . S
C862 H875 0.961 . S
C862 H876 0.961 . S
C863 C860 1.539 . S
C863 H877 0.958 . S
C863 H878 0.961 . S
C863 H879 0.960 . S
H864 C848 0.931 . S
H865 C853 0.929 . S
H866 C854 0.960 . S
H867 C854 0.962 . S
H868 C854 0.960 . S
H869 C855 0.961 . S
H870 C855 0.961 . S
H871 C855 0.961 . S
H872 C856 0.931 . S
H873 C861 0.930 . S
H874 C862 0.956 . S
H875 C862 0.961 . S
H876 C862 0.961 . S
H877 C863 0.958 . S
H878 C863 0.961 . S
H879 C863 0.960 . S
C880 C881 1.391 . S
C880 C882 1.394 . S
C880 H896 0.931 . S
C881 C880 1.391 . S
C881 C885 1.376 . S
C882 C880 1.394 . S
C882 C883 1.369 . S
C882 C886 1.531 . S
C883 C882 1.369 . S
C883 C884 1.410 . S
C883 C891 1.503 . S
C884 C883 1.410 . S
C884 C885 1.392 . S
C884 C887 1.511 . S
C885 C881 1.376 . S
C885 C884 1.392 . S
C885 H897 0.929 . S
C886 C882 1.531 . S
C886 H898 0.960 . S
C886 H899 0.962 . S
C886 H900 0.960 . S
C887 C884 1.511 . S
C887 H901 0.961 . S
C887 H902 0.961 . S
C887 H903 0.961 . S
C888 C889 1.370 . S
C888 C890 1.363 . S
C888 H904 0.931 . S
C889 C888 1.370 . S
C889 C893 1.408 . S
C890 C888 1.363 . S
C890 C891 1.370 . S
C890 C894 1.524 . S
C891 C883 1.503 . S
C891 C890 1.370 . S
C891 C892 1.403 . S
C892 C891 1.403 . S
C892 C893 1.404 . S
C892 C895 1.539 . S
C893 C889 1.408 . S
C893 C892 1.404 . S
C893 H905 0.930 . S
C894 C890 1.524 . S
C894 H906 0.956 . S
C894 H907 0.961 . S
C894 H908 0.961 . S
C895 C892 1.539 . S
C895 H909 0.958 . S
C895 H910 0.961 . S
C895 H911 0.960 . S
H896 C880 0.931 . S
H897 C885 0.929 . S
H898 C886 0.960 . S
H899 C886 0.962 . S
H900 C886 0.960 . S
H901 C887 0.961 . S
H902 C887 0.961 . S
H903 C887 0.961 . S
H904 C888 0.931 . S
H905 C893 0.930 . S
H906 C894 0.956 . S
H907 C894 0.961 . S
H908 C894 0.961 . S
H909 C895 0.958 . S
H910 C895 0.961 . S
H911 C895 0.960 . S
C912 C913 1.391 . S
C912 C914 1.394 . S
C912 H928 0.931 . S
C913 C912 1.391 . S
C913 C917 1.376 . S
C914 C912 1.394 . S
C914 C915 1.369 . S
C914 C918 1.531 . S
C915 C914 1.369 . S
C915 C916 1.410 . S
C915 C923 1.503 . S
C916 C915 1.410 . S
C916 C917 1.392 . S
C916 C919 1.511 . S
C917 C913 1.376 . S
C917 C916 1.392 . S
C917 H929 0.929 . S
C918 C914 1.531 . S
C918 H930 0.960 . S
C918 H931 0.962 . S
C918 H932 0.960 . S
C919 C916 1.511 . S
C919 H933 0.961 . S
C919 H934 0.961 . S
C919 H935 0.961 . S
C920 C921 1.370 . S
C920 C922 1.363 . S
C920 H936 0.931 . S
C921 C920 1.370 . S
C921 C925 1.408 . S
C922 C920 1.363 . S
C922 C923 1.370 . S
C922 C926 1.524 . S
C923 C915 1.503 . S
C923 C922 1.370 . S
C923 C924 1.403 . S
C924 C923 1.403 . S
C924 C925 1.404 . S
C924 C927 1.539 . S
C925 C921 1.408 . S
C925 C924 1.404 . S
C925 H937 0.930 . S
C926 C922 1.524 . S
C926 H938 0.956 . S
C926 H939 0.961 . S
C926 H940 0.961 . S
C927 C924 1.539 . S
C927 H941 0.958 . S
C927 H942 0.961 . S
C927 H943 0.960 . S
H928 C912 0.931 . S
H929 C917 0.929 . S
H930 C918 0.960 . S
H931 C918 0.962 . S
H932 C918 0.960 . S
H933 C919 0.961 . S
H934 C919 0.961 . S
H935 C919 0.961 . S
H936 C920 0.931 . S
H937 C925 0.930 . S
H938 C926 0.956 . S
H939 C926 0.961 . S
H940 C926 0.961 . S
H941 C927 0.958 . S
H942 C927 0.961 . S
H943 C927 0.960 . S
C944 C945 1.391 . S
C944 C946 1.394 . S
C944 H960 0.931 . S
C945 C944 1.391 . S
C945 C949 1.376 . S
C946 C944 1.394 . S
C946 C947 1.369 . S
C946 C950 1.531 . S
C947 C946 1.369 . S
C947 C948 1.410 . S
C947 C955 1.503 . S
C948 C947 1.410 . S
C948 C949 1.392 . S
C948 C951 1.511 . S
C949 C945 1.376 . S
C949 C948 1.392 . S
C949 H961 0.929 . S
C950 C946 1.531 . S
C950 H962 0.960 . S
C950 H963 0.962 . S
C950 H964 0.960 . S
C951 C948 1.511 . S
C951 H965 0.961 . S
C951 H966 0.961 . S
C951 H967 0.961 . S
C952 C953 1.370 . S
C952 C954 1.363 . S
C952 H968 0.931 . S
C953 C952 1.370 . S
C953 C957 1.408 . S
C954 C952 1.363 . S
C954 C955 1.370 . S
C954 C958 1.524 . S
C955 C947 1.503 . S
C955 C954 1.370 . S
C955 C956 1.403 . S
C956 C955 1.403 . S
C956 C957 1.404 . S
C956 C959 1.539 . S
C957 C953 1.408 . S
C957 C956 1.404 . S
C957 H969 0.930 . S
C958 C954 1.524 . S
C958 H970 0.956 . S
C958 H971 0.961 . S
C958 H972 0.961 . S
C959 C956 1.539 . S
C959 H973 0.958 . S
C959 H974 0.961 . S
C959 H975 0.960 . S
H960 C944 0.931 . S
H961 C949 0.929 . S
H962 C950 0.960 . S
H963 C950 0.962 . S
H964 C950 0.960 . S
H965 C951 0.961 . S
H966 C951 0.961 . S
H967 C951 0.961 . S
H968 C952 0.931 . S
H969 C957 0.930 . S
H970 C958 0.956 . S
H971 C958 0.961 . S
H972 C958 0.961 . S
H973 C959 0.958 . S
H974 C959 0.961 . S
H975 C959 0.960 . S
C976 C977 1.391 . S
C976 C978 1.394 . S
C976 H992 0.931 . S
C977 C976 1.391 . S
C977 C981 1.376 . S
C978 C976 1.394 . S
C978 C979 1.369 . S
C978 C982 1.531 . S
C979 C978 1.369 . S
C979 C980 1.410 . S
C979 C987 1.503 . S
C980 C979 1.410 . S
C980 C981 1.392 . S
C980 C983 1.511 . S
C981 C977 1.376 . S
C981 C980 1.392 . S
C981 H993 0.929 . S
C982 C978 1.531 . S
C982 H994 0.960 . S
C982 H995 0.962 . S
C982 H996 0.960 . S
C983 C980 1.511 . S
C983 H997 0.961 . S
C983 H998 0.961 . S
C983 H999 0.961 . S
C984 C985 1.370 . S
C984 C986 1.363 . S
C984 H1000 0.931 . S
C985 C984 1.370 . S
C985 C989 1.408 . S
C986 C984 1.363 . S
C986 C987 1.370 . S
C986 C990 1.524 . S
C987 C979 1.503 . S
C987 C986 1.370 . S
C987 C988 1.403 . S
C988 C987 1.403 . S
C988 C989 1.404 . S
C988 C991 1.539 . S
C989 C985 1.408 . S
C989 C988 1.404 . S
C989 H1001 0.930 . S
C990 C986 1.524 . S
C990 H1002 0.956 . S
C990 H1003 0.961 . S
C990 H1004 0.961 . S
C991 C988 1.539 . S
C991 H1005 0.958 . S
C991 H1006 0.961 . S
C991 H1007 0.960 . S
H992 C976 0.931 . S
H993 C981 0.929 . S
H994 C982 0.960 . S
H995 C982 0.962 . S
H996 C982 0.960 . S
H997 C983 0.961 . S
H998 C983 0.961 . S
H999 C983 0.961 . S
H1000 C984 0.931 . S
H1001 C989 0.930 . S
H1002 C990 0.956 . S
H1003 C990 0.961 . S
H1004 C990 0.961 . S
H1005 C991 0.958 . S
H1006 C991 0.961 . S
H1007 C991 0.960 . S
C1008 C1009 1.391 . S
C1008 C1010 1.394 . S
C1008 H1024 0.931 . S
C1009 C1008 1.391 . S
C1009 C1013 1.376 . S
C1010 C1008 1.394 . S
C1010 C1011 1.369 . S
C1010 C1014 1.531 . S
C1011 C1010 1.369 . S
C1011 C1012 1.410 . S
C1011 C1019 1.503 . S
C1012 C1011 1.410 . S
C1012 C1013 1.392 . S
C1012 C1015 1.511 . S
C1013 C1009 1.376 . S
C1013 C1012 1.392 . S
C1013 H1025 0.929 . S
C1014 C1010 1.531 . S
C1014 H1026 0.960 . S
C1014 H1027 0.962 . S
C1014 H1028 0.960 . S
C1015 C1012 1.511 . S
C1015 H1029 0.961 . S
C1015 H1030 0.961 . S
C1015 H1031 0.961 . S
C1016 C1017 1.370 . S
C1016 C1018 1.363 . S
C1016 H1032 0.931 . S
C1017 C1016 1.370 . S
C1017 C1021 1.408 . S
C1018 C1016 1.363 . S
C1018 C1019 1.370 . S
C1018 C1022 1.524 . S
C1019 C1011 1.503 . S
C1019 C1018 1.370 . S
C1019 C1020 1.403 . S
C1020 C1019 1.403 . S
C1020 C1021 1.404 . S
C1020 C1023 1.539 . S
C1021 C1017 1.408 . S
C1021 C1020 1.404 . S
C1021 H1033 0.930 . S
C1022 C1018 1.524 . S
C1022 H1034 0.956 . S
C1022 H1035 0.961 . S
C1022 H1036 0.961 . S
C1023 C1020 1.539 . S
C1023 H1037 0.958 . S
C1023 H1038 0.961 . S
C1023 H1039 0.960 . S
H1024 C1008 0.931 . S
H1025 C1013 0.929 . S
H1026 C1014 0.960 . S
H1027 C1014 0.962 . S
H1028 C1014 0.960 . S
H1029 C1015 0.961 . S
H1030 C1015 0.961 . S
H1031 C1015 0.961 . S
H1032 C1016 0.931 . S
H1033 C1021 0.930 . S
H1034 C1022 0.956 . S
H1035 C1022 0.961 . S
H1036 C1022 0.961 . S
H1037 C1023 0.958 . S
H1038 C1023 0.961 . S
H1039 C1023 0.960 . S
C1040 C1041 1.391 . S
C1040 C1042 1.394 . S
C1040 H1056 0.931 . S
C1041 C1040 1.391 . S
C1041 C1045 1.376 . S
C1042 C1040 1.394 . S
C1042 C1043 1.369 . S
C1042 C1046 1.531 . S
C1043 C1042 1.369 . S
C1043 C1044 1.410 . S
C1043 C1051 1.503 . S
C1044 C1043 1.410 . S
C1044 C1045 1.392 . S
C1044 C1047 1.511 . S
C1045 C1041 1.376 . S
C1045 C1044 1.392 . S
C1045 H1057 0.929 . S
C1046 C1042 1.531 . S
C1046 H1058 0.960 . S
C1046 H1059 0.962 . S
C1046 H1060 0.960 . S
C1047 C1044 1.511 . S
C1047 H1061 0.961 . S
C1047 H1062 0.961 . S
C1047 H1063 0.961 . S
C1048 C1049 1.370 . S
C1048 C1050 1.363 . S
C1048 H1064 0.931 . S
C1049 C1048 1.370 . S
C1049 C1053 1.408 . S
C1050 C1048 1.363 . S
C1050 C1051 1.370 . S
C1050 C1054 1.524 . S
C1051 C1043 1.503 . S
C1051 C1050 1.370 . S
C1051 C1052 1.403 . S
C1052 C1051 1.403 . S
C1052 C1053 1.404 . S
C1052 C1055 1.539 . S
C1053 C1049 1.408 . S
C1053 C1052 1.404 . S
C1053 H1065 0.930 . S
C1054 C1050 1.524 . S
C1054 H1066 0.956 . S
C1054 H1067 0.961 . S
C1054 H1068 0.961 . S
C1055 C1052 1.539 . S
C1055 H1069 0.958 . S
C1055 H1070 0.961 . S
C1055 H1071 0.960 . S
H1056 C1040 0.931 . S
H1057 C1045 0.929 . S
H1058 C1046 0.960 . S
H1059 C1046 0.962 . S
H1060 C1046 0.960 . S
H1061 C1047 0.961 . S
H1062 C1047 0.961 . S
H1063 C1047 0.961 . S
H1064 C1048 0.931 . S
H1065 C1053 0.930 . S
H1066 C1054 0.956 . S
H1067 C1054 0.961 . S
H1068 C1054 0.961 . S
H1069 C1055 0.958 . S
H1070 C1055 0.961 . S
H1071 C1055 0.960 . S
C1072 C1073 1.391 . S
C1072 C1074 1.394 . S
C1072 H1088 0.931 . S
C1073 C1072 1.391 . S
C1073 C1077 1.376 . S
C1074 C1072 1.394 . S
C1074 C1075 1.369 . S
C1074 C1078 1.531 . S
C1075 C1074 1.369 . S
C1075 C1076 1.410 . S
C1075 C1083 1.503 . S
C1076 C1075 1.410 . S
C1076 C1077 1.392 . S
C1076 C1079 1.511 . S
C1077 C1073 1.376 . S
C1077 C1076 1.392 . S
C1077 H1089 0.929 . S
C1078 C1074 1.531 . S
C1078 H1090 0.960 . S
C1078 H1091 0.962 . S
C1078 H1092 0.960 . S
C1079 C1076 1.511 . S
C1079 H1093 0.961 . S
C1079 H1094 0.961 . S
C1079 H1095 0.961 . S
C1080 C1081 1.370 . S
C1080 C1082 1.363 . S
C1080 H1096 0.931 . S
C1081 C1080 1.370 . S
C1081 C1085 1.408 . S
C1082 C1080 1.363 . S
C1082 C1083 1.370 . S
C1082 C1086 1.524 . S
C1083 C1075 1.503 . S
C1083 C1082 1.370 . S
C1083 C1084 1.403 . S
C1084 C1083 1.403 . S
C1084 C1085 1.404 . S
C1084 C1087 1.539 . S
C1085 C1081 1.408 . S
C1085 C1084 1.404 . S
C1085 H1097 0.930 . S
C1086 C1082 1.524 . S
C1086 H1098 0.956 . S
C1086 H1099 0.961 . S
C1086 H1100 0.961 . S
C1087 C1084 1.539 . S
C1087 H1101 0.958 . S
C1087 H1102 0.961 . S
C1087 H1103 0.960 . S
H1088 C1072 0.931 . S
H1089 C1077 0.929 . S
H1090 C1078 0.960 . S
H1091 C1078 0.962 . S
H1092 C1078 0.960 . S
H1093 C1079 0.961 . S
H1094 C1079 0.961 . S
H1095 C1079 0.961 . S
H1096 C1080 0.931 . S
H1097 C1085 0.930 . S
H1098 C1086 0.956 . S
H1099 C1086 0.961 . S
H1100 C1086 0.961 . S
H1101 C1087 0.958 . S
H1102 C1087 0.961 . S
H1103 C1087 0.960 . S
C1104 C1105 1.391 . S
C1104 C1106 1.394 . S
C1104 H1120 0.931 . S
C1105 C1104 1.391 . S
C1105 C1109 1.376 . S
C1106 C1104 1.394 . S
C1106 C1107 1.369 . S
C1106 C1110 1.531 . S
C1107 C1106 1.369 . S
C1107 C1108 1.410 . S
C1107 C1115 1.503 . S
C1108 C1107 1.410 . S
C1108 C1109 1.392 . S
C1108 C1111 1.511 . S
C1109 C1105 1.376 . S
C1109 C1108 1.392 . S
C1109 H1121 0.929 . S
C1110 C1106 1.531 . S
C1110 H1122 0.960 . S
C1110 H1123 0.962 . S
C1110 H1124 0.960 . S
C1111 C1108 1.511 . S
C1111 H1125 0.961 . S
C1111 H1126 0.961 . S
C1111 H1127 0.961 . S
C1112 C1113 1.370 . S
C1112 C1114 1.363 . S
C1112 H1128 0.931 . S
C1113 C1112 1.370 . S
C1113 C1117 1.408 . S
C1114 C1112 1.363 . S
C1114 C1115 1.370 . S
C1114 C1118 1.524 . S
C1115 C1107 1.503 . S
C1115 C1114 1.370 . S
C1115 C1116 1.403 . S
C1116 C1115 1.403 . S
C1116 C1117 1.404 . S
C1116 C1119 1.539 . S
C1117 C1113 1.408 . S
C1117 C1116 1.404 . S
C1117 H1129 0.930 . S
C1118 C1114 1.524 . S
C1118 H1130 0.956 . S
C1118 H1131 0.961 . S
C1118 H1132 0.961 . S
C1119 C1116 1.539 . S
C1119 H1133 0.958 . S
C1119 H1134 0.961 . S
C1119 H1135 0.960 . S
H1120 C1104 0.931 . S
H1121 C1109 0.929 . S
H1122 C1110 0.960 . S
H1123 C1110 0.962 . S
H1124 C1110 0.960 . S
H1125 C1111 0.961 . S
H1126 C1111 0.961 . S
H1127 C1111 0.961 . S
H1128 C1112 0.931 . S
H1129 C1117 0.930 . S
H1130 C1118 0.956 . S
H1131 C1118 0.961 . S
H1132 C1118 0.961 . S
H1133 C1119 0.958 . S
H1134 C1119 0.961 . S
H1135 C1119 0.960 . S
C1136 C1137 1.391 . S
C1136 C1138 1.394 . S
C1136 H1152 0.931 . S
C1137 C1136 1.391 . S
C1137 C1141 1.376 . S
C1138 C1136 1.394 . S
C1138 C1139 1.369 . S
C1138 C1142 1.531 . S
C1139 C1138 1.369 . S
C1139 C1140 1.410 . S
C1139 C1147 1.503 . S
C1140 C1139 1.410 . S
C1140 C1141 1.392 . S
C1140 C1143 1.511 . S
C1141 C1137 1.376 . S
C1141 C1140 1.392 . S
C1141 H1153 0.929 . S
C1142 C1138 1.531 . S
C1142 H1154 0.960 . S
C1142 H1155 0.962 . S
C1142 H1156 0.960 . S
C1143 C1140 1.511 . S
C1143 H1157 0.961 . S
C1143 H1158 0.961 . S
C1143 H1159 0.961 . S
C1144 C1145 1.370 . S
C1144 C1146 1.363 . S
C1144 H1160 0.931 . S
C1145 C1144 1.370 . S
C1145 C1149 1.408 . S
C1146 C1144 1.363 . S
C1146 C1147 1.370 . S
C1146 C1150 1.524 . S
C1147 C1139 1.503 . S
C1147 C1146 1.370 . S
C1147 C1148 1.403 . S
C1148 C1147 1.403 . S
C1148 C1149 1.404 . S
C1148 C1151 1.539 . S
C1149 C1145 1.408 . S
C1149 C1148 1.404 . S
C1149 H1161 0.930 . S
C1150 C1146 1.524 . S
C1150 H1162 0.956 . S
C1150 H1163 0.961 . S
C1150 H1164 0.961 . S
C1151 C1148 1.539 . S
C1151 H1165 0.958 . S
C1151 H1166 0.961 . S
C1151 H1167 0.960 . S
H1152 C1136 0.931 . S
H1153 C1141 0.929 . S
H1154 C1142 0.960 . S
H1155 C1142 0.962 . S
H1156 C1142 0.960 . S
H1157 C1143 0.961 . S
H1158 C1143 0.961 . S
H1159 C1143 0.961 . S
H1160 C1144 0.931 . S
H1161 C1149 0.930 . S
H1162 C1150 0.956 . S
H1163 C1150 0.961 . S
H1164 C1150 0.961 . S
H1165 C1151 0.958 . S
H1166 C1151 0.961 . S
H1167 C1151 0.960 . S
C401 C21 1.487 . S
C409 C339 1.542 . S
C433 C61 1.329 . S
C441 C342 1.301 . S
C473 C378 1.702 . S
C465 C82 1.700 . S
C497 C135 1.666 . S
C505 C398 1.663 . S
C537 C352 1.727 . S
C529 C15 1.738 . S
C569 C329 1.558 . S
C561 C42 1.554 . S
C601 C382 1.543 . S
C593 C101 1.647 . S
C633 C362 1.384 . S
C625 C122 1.406 . S
C657 C2 1.347 . S
C665 C392 1.364 . S
C697 C358 1.539 . S
C689 C95 1.559 . S
C721 C141 1.664 . S
C729 C324 1.638 . S
C753 C55 1.334 . S
C761 C372 1.299 . S
C793 C338 1.555 . S
C785 C181 1.586 . S
C817 C202 1.309 . S
C825 C344 1.283 . S
C849 C255 1.715 . S
C857 C379 1.694 . S
C881 C295 1.638 . S
C889 C399 1.636 . S
C913 C175 1.740 . S
C921 C349 1.721 . S
C953 C332 1.562 . S
C945 C221 1.572 . S
C985 C384 1.511 . S
C977 C242 1.615 . S
C1017 C364 1.441 . S
C1009 C301 1.453 . S
C1041 C162 1.387 . S
C1049 C389 1.328 . S
C1081 C359 1.597 . S
C1073 C261 1.594 . S
C1113 C322 1.597 . S
C1105 C282 1.630 . S
C1137 C215 1.367 . S
C1145 C369 1.340 . S
