# Generated by pormake.
# Topology anh, (6,3)-cn, num edge types: 1
# Building blocks:
#     Node 0, Type 0, BuildingBlock: BETDEL_clean_sbu_0, # of connection points: 6
#     Node 1, Type 0, BuildingBlock: BETDEL_clean_sbu_0, # of connection points: 6
#     Node 2, Type 0, BuildingBlock: BETDEL_clean_sbu_0, # of connection points: 6
#     Node 3, Type 1, BuildingBlock: OLANEW_clean_sbu_2, # of connection points: 3
#     Node 4, Type 1, BuildingBlock: OLANEW_clean_sbu_2, # of connection points: 3
#     Node 5, Type 1, BuildingBlock: OLANEW_clean_sbu_2, # of connection points: 3
#     Node 6, Type 1, BuildingBlock: OLANEW_clean_sbu_2, # of connection points: 3
#     Node 7, Type 1, BuildingBlock: OLANEW_clean_sbu_2, # of connection points: 3
#     Node 8, Type 1, BuildingBlock: OLANEW_clean_sbu_2, # of connection points: 3
#     Edge 9, Type (0, 1), BuildingBlock: FUNLAD_clean_linker_1, # of connection points: 2
#     Edge 10, Type (0, 1), BuildingBlock: FUNLAD_clean_linker_1, # of connection points: 2
#     Edge 11, Type (0, 1), BuildingBlock: FUNLAD_clean_linker_1, # of connection points: 2
#     Edge 12, Type (0, 1), BuildingBlock: FUNLAD_clean_linker_1, # of connection points: 2
#     Edge 13, Type (0, 1), BuildingBlock: FUNLAD_clean_linker_1, # of connection points: 2
#     Edge 14, Type (0, 1), BuildingBlock: FUNLAD_clean_linker_1, # of connection points: 2
#     Edge 15, Type (0, 1), BuildingBlock: FUNLAD_clean_linker_1, # of connection points: 2
#     Edge 16, Type (0, 1), BuildingBlock: FUNLAD_clean_linker_1, # of connection points: 2
#     Edge 17, Type (0, 1), BuildingBlock: FUNLAD_clean_linker_1, # of connection points: 2
#     Edge 18, Type (0, 1), BuildingBlock: FUNLAD_clean_linker_1, # of connection points: 2
#     Edge 19, Type (0, 1), BuildingBlock: FUNLAD_clean_linker_1, # of connection points: 2
#     Edge 20, Type (0, 1), BuildingBlock: FUNLAD_clean_linker_1, # of connection points: 2
#     Edge 21, Type (0, 1), BuildingBlock: FUNLAD_clean_linker_1, # of connection points: 2
#     Edge 22, Type (0, 1), BuildingBlock: FUNLAD_clean_linker_1, # of connection points: 2
#     Edge 23, Type (0, 1), BuildingBlock: FUNLAD_clean_linker_1, # of connection points: 2
#     Edge 24, Type (0, 1), BuildingBlock: FUNLAD_clean_linker_1, # of connection points: 2
#     Edge 25, Type (0, 1), BuildingBlock: FUNLAD_clean_linker_1, # of connection points: 2
#     Edge 26, Type (0, 1), BuildingBlock: FUNLAD_clean_linker_1, # of connection points: 2
# Relax obj value: 0.081
# Max RMSD: 0.105
# Mean RMSD: 0.101
data_MOF--net-anh--node1-BETDEL_clean_sbu_0--node2-OLANEW_clean_sbu_2--edge1-FUNLAD_clean_linker_1
_symmetry_space_group_name_H-M    P1
_symmetry_Int_Tables_number       1
_symmetry_cell_setting            triclinic
loop_
_symmetry_equiv_pos_as_xyz
'x, y, z'
_cell_length_a     34.501214
_cell_length_b     34.536455
_cell_length_c     51.517624
_cell_angle_alpha  89.55467
_cell_angle_beta   89.885289
_cell_angle_gamma 119.84715
loop_
_atom_site_label
_atom_site_type_symbol
_atom_site_fract_x
_atom_site_fract_y
_atom_site_fract_z
_atom_type_partial_charge
Dy0 Dy 0.04116 0.45662 0.16678 0.0
C1 C 0.90859 0.50797 0.20015 0.0
C2 C 0.09635 0.43011 0.14591 0.0
Dy3 Dy 0.97168 0.4914 0.17995 0.0
O4 O 0.06907 0.41024 0.16523 0.0
O5 O 0.09271 0.46382 0.13755 0.0
O6 O 0.0654 0.46878 0.20774 0.0
O7 O 0.99998 0.45488 0.19964 0.0
C8 C 0.02952 0.4671 0.21691 0.0
C9 C 0.9952 0.5009 0.12912 0.0
O10 O 0.03733 0.54994 0.19059 0.0
O11 O 0.08511 0.53103 0.16851 0.0
O12 O 0.90209 0.4798 0.18183 0.0
O13 O 0.94995 0.52726 0.20785 0.0
O14 O 0.96958 0.51491 0.1386 0.0
O15 O 0.00593 0.48444 0.14744 0.0
O16 O 0.97506 0.39637 0.15788 0.0
O17 O 0.92882 0.41707 0.17989 0.0
C18 C 0.07732 0.55944 0.18177 0.0
C19 C 0.93562 0.38737 0.16744 0.0
Dy20 Dy 0.45182 0.03753 0.50115 0.0
C21 C 0.63665 0.15358 0.52099 0.0
C22 C 0.37043 0.97309 0.48406 0.0
Dy23 Dy 0.55104 0.09248 0.50809 0.0
O24 O 0.38089 0.98351 0.50818 0.0
O25 O 0.40391 0.99918 0.4692 0.0
O26 O 0.44012 0.05942 0.53959 0.0
O27 O 0.49614 0.05099 0.53448 0.0
C28 C 0.47633 0.06368 0.54998 0.0
C29 C 0.52515 0.06717 0.4591 0.0
O30 O 0.54235 0.02706 0.52127 0.0
O31 O 0.47459 0.98644 0.50063 0.0
O32 O 0.62513 0.11881 0.50679 0.0
O33 O 0.60135 0.15463 0.52866 0.0
O34 O 0.56215 0.07241 0.46856 0.0
O35 O 0.50658 0.07985 0.4752 0.0
O36 O 0.45691 0.10376 0.49385 0.0
O37 O 0.52969 0.14438 0.50911 0.0
C38 C 0.51008 0.98897 0.51216 0.0
C39 C 0.49198 0.14183 0.50111 0.0
Dy40 Dy 0.58092 0.56714 0.81645 0.0
C41 C 0.5195 0.3881 0.85005 0.0
C42 C 0.59762 0.64564 0.79399 0.0
Dy43 Dy 0.53632 0.46838 0.83014 0.0
O44 O 0.61505 0.64217 0.8156 0.0
O45 O 0.5719 0.60639 0.78451 0.0
O46 O 0.61656 0.5846 0.85477 0.0
O47 O 0.55273 0.52787 0.85183 0.0
C48 C 0.58572 0.54897 0.86641 0.0
C49 C 0.53141 0.48627 0.78009 0.0
O50 O 0.48042 0.47953 0.84233 0.0
O51 O 0.5077 0.54639 0.81953 0.0
O52 O 0.49549 0.39354 0.83262 0.0
O53 O 0.55177 0.42663 0.85723 0.0
O54 O 0.5007 0.45117 0.79201 0.0
O55 O 0.56469 0.5075 0.79454 0.0
O56 O 0.63856 0.55736 0.8066 0.0
O57 O 0.60954 0.48959 0.82861 0.0
C58 C 0.47503 0.51195 0.83218 0.0
C59 C 0.64314 0.52462 0.81692 0.0
O60 O 0.52119 0.05879 0.24883 0.0
Cd61 Cd 0.52662 0.06428 0.2015 0.0
O62 O 0.48744 0.98632 0.24469 0.0
Cd63 Cd 0.4516 0.91709 0.25808 0.0
O64 O 0.40012 0.84743 0.25354 0.0
C65 C 0.3664 0.84125 0.24045 0.0
O66 O 0.36452 0.87609 0.23163 0.0
C67 C 0.50273 0.02019 0.25925 0.0
C68 C 0.61132 0.13123 0.18648 0.0
O69 O 0.57928 0.13948 0.18945 0.0
O70 O 0.60328 0.09116 0.19021 0.0
O71 O 0.51914 0.52626 0.56702 0.0
Cd72 Cd 0.48865 0.51333 0.52313 0.0
O73 O 0.4952 0.56954 0.58378 0.0
Cd74 Cd 0.46982 0.58677 0.54926 0.0
O75 O 0.45251 0.63505 0.53289 0.0
C76 C 0.48372 0.67528 0.53034 0.0
O77 O 0.52483 0.68541 0.53597 0.0
C78 C 0.51496 0.54692 0.58616 0.0
C79 C 0.46387 0.42522 0.51066 0.0
O80 O 0.50335 0.45739 0.50571 0.0
O81 O 0.43564 0.43466 0.52071 0.0
O82 O 0.07626 0.48103 0.91952 0.0
Cd83 Cd 0.08536 0.48349 0.8724 0.0
O84 O 0.01358 0.48312 0.92528 0.0
Cd85 Cd 0.99107 0.48666 0.886 0.0
O86 O 0.93777 0.4923 0.86595 0.0
C87 C 0.9102 0.49493 0.88127 0.0
O88 O 0.91596 0.49413 0.90641 0.0
C89 C 0.04692 0.48125 0.93438 0.0
C90 C 0.15888 0.47274 0.86117 0.0
O91 O 0.16387 0.51156 0.86513 0.0
O92 O 0.11922 0.43912 0.86188 0.0
O93 O 0.10219 0.53647 0.40155 0.0
Cd94 Cd 0.14651 0.54884 0.44043 0.0
O95 O 0.04828 0.53127 0.42637 0.0
Cd96 Cd 0.98003 0.51548 0.43446 0.0
O97 O 0.91439 0.47444 0.45199 0.0
C98 C 0.9124 0.44769 0.46968 0.0
O99 O 0.94912 0.44773 0.47647 0.0
C100 C 0.06286 0.53035 0.40388 0.0
C101 C 0.17877 0.63568 0.45698 0.0
O102 O 0.20106 0.62612 0.44087 0.0
O103 O 0.14142 0.60407 0.46559 0.0
O104 O 0.46506 0.95677 0.74566 0.0
Cd105 Cd 0.45071 0.91961 0.78768 0.0
O106 O 0.52647 0.01106 0.76189 0.0
Cd107 Cd 0.58415 0.07816 0.76236 0.0
O108 O 0.60797 0.143 0.7803 0.0
C109 C 0.5799 0.14342 0.7961 0.0
O110 O 0.54177 0.10642 0.80011 0.0
C111 C 0.50036 0.99434 0.74276 0.0
C112 C 0.50631 0.88347 0.79329 0.0
O113 O 0.46803 0.86145 0.78247 0.0
O114 O 0.51819 0.92248 0.80189 0.0
O115 O 0.58905 0.53138 0.08453 0.0
Cd116 Cd 0.55814 0.51087 0.12853 0.0
O117 O 0.52752 0.48131 0.0653 0.0
Cd118 Cd 0.48317 0.46244 0.0989 0.0
O119 O 0.41672 0.45088 0.10893 0.0
C120 C 0.39353 0.44982 0.0895 0.0
O121 O 0.41046 0.45474 0.06606 0.0
C122 C 0.56837 0.51162 0.06409 0.0
C123 C 0.62021 0.50288 0.15926 0.0
O124 O 0.59039 0.46951 0.1467 0.0
O125 O 0.62011 0.53991 0.15795 0.0
H126 H 0.13361 0.39379 0.14814 0.0
C127 C 0.13183 0.42072 0.13818 0.0
H128 H 0.1642 0.47631 0.11298 0.0
H129 H 0.35809 0.51541 0.13901 0.0
H130 H 0.35695 0.57848 0.15849 0.0
H131 H 0.28706 0.58144 0.16097 0.0
H132 H 0.21804 0.52157 0.14382 0.0
C133 C 0.16482 0.44802 0.12194 0.0
C134 C 0.20671 0.44585 0.11997 0.0
C135 C 0.24675 0.48103 0.13036 0.0
C136 C 0.28687 0.479 0.12934 0.0
C137 C 0.32651 0.51492 0.13953 0.0
C138 C 0.32637 0.5514 0.15076 0.0
C139 C 0.28704 0.55309 0.15213 0.0
C140 C 0.24762 0.51845 0.14212 0.0
H141 H 0.332 0.44666 0.07519 0.0
C142 C 0.34901 0.4453 0.09263 0.0
H143 H 0.3468 0.44133 0.13357 0.0
H144 H 0.13678 0.37467 0.09635 0.0
H145 H 0.1372 0.31018 0.07833 0.0
H146 H 0.2056 0.30432 0.07914 0.0
H147 H 0.27415 0.36323 0.0976 0.0
C148 C 0.32963 0.44114 0.11587 0.0
C149 C 0.28688 0.44172 0.11803 0.0
C150 C 0.24666 0.40615 0.10804 0.0
C151 C 0.20673 0.40864 0.10855 0.0
C152 C 0.16762 0.37374 0.09729 0.0
C153 C 0.16747 0.33665 0.08675 0.0
C154 C 0.20602 0.33342 0.08712 0.0
C155 C 0.24523 0.36763 0.09763 0.0
H156 H 0.7091 0.18569 0.51485 0.0
C157 C 0.68257 0.19106 0.52214 0.0
H158 H 0.66463 0.23897 0.53316 0.0
H159 H 0.86873 0.39222 0.54486 0.0
H160 H 0.84662 0.37854 0.59027 0.0
H161 H 0.77314 0.31567 0.60338 0.0
H162 H 0.72113 0.26623 0.57112 0.0
C163 C 0.69094 0.23278 0.52647 0.0
C164 C 0.73453 0.27169 0.51863 0.0
C165 C 0.76449 0.30005 0.53767 0.0
C166 C 0.80703 0.33598 0.5301 0.0
C167 C 0.83618 0.36415 0.54954 0.0
C168 C 0.82388 0.35671 0.57567 0.0
C169 C 0.78249 0.32132 0.58305 0.0
C170 C 0.75299 0.2932 0.56436 0.0
H171 H 0.83914 0.41495 0.47397 0.0
C172 C 0.86872 0.41409 0.48036 0.0
H173 H 0.89354 0.37951 0.50259 0.0
H174 H 0.68176 0.22881 0.47669 0.0
H175 H 0.70491 0.23974 0.43158 0.0
H176 H 0.78178 0.29611 0.41888 0.0
H177 H 0.83531 0.34264 0.45112 0.0
C178 C 0.86426 0.38046 0.49572 0.0
C179 C 0.81954 0.34318 0.5035 0.0
C180 C 0.78963 0.31439 0.48443 0.0
C181 C 0.74642 0.2798 0.49192 0.0
C182 C 0.71588 0.25392 0.4723 0.0
C183 C 0.72859 0.26009 0.44626 0.0
C184 C 0.77176 0.29196 0.4391 0.0
C185 C 0.80207 0.31881 0.45786 0.0
H186 H 0.57359 0.68164 0.76982 0.0
C187 C 0.59677 0.6857 0.78523 0.0
H188 H 0.63861 0.72708 0.81475 0.0
H189 H 0.56496 0.84097 0.74165 0.0
H190 H 0.60905 0.83595 0.70638 0.0
H191 H 0.65054 0.7954 0.71228 0.0
H192 H 0.64813 0.75961 0.75352 0.0
C193 C 0.6166 0.72366 0.7988 0.0
C194 C 0.59993 0.75584 0.7966 0.0
C195 C 0.60283 0.77774 0.77269 0.0
C196 C 0.5794 0.80156 0.76941 0.0
C197 C 0.58206 0.82234 0.74515 0.0
C198 C 0.60734 0.81983 0.72479 0.0
C199 C 0.63068 0.79698 0.7281 0.0
C200 C 0.62875 0.7763 0.75178 0.0
H201 H 0.56584 0.8822 0.80789 0.0
C202 C 0.53578 0.86428 0.79634 0.0
H203 H 0.49663 0.80745 0.77349 0.0
H204 H 0.59046 0.721 0.84593 0.0
H205 H 0.54751 0.72704 0.88117 0.0
H206 H 0.50635 0.76783 0.87532 0.0
H207 H 0.50807 0.80286 0.83418 0.0
C208 C 0.52571 0.82496 0.78583 0.0
C209 C 0.55386 0.80415 0.7902 0.0
C210 C 0.55284 0.78425 0.81457 0.0
C211 C 0.57625 0.76038 0.81785 0.0
C212 C 0.57369 0.73982 0.84223 0.0
C213 C 0.54899 0.74291 0.86271 0.0
C214 C 0.52586 0.7659 0.85942 0.0
C215 C 0.5274 0.78614 0.83567 0.0
H216 H 0.88481 0.54823 0.22107 0.0
C217 C 0.87517 0.52033 0.20807 0.0
H218 H 0.82504 0.47189 0.1843 0.0
H219 H 0.6574 0.47574 0.2248 0.0
H220 H 0.65127 0.41564 0.25259 0.0
H221 H 0.71415 0.40101 0.25654 0.0
H222 H 0.78372 0.44669 0.23292 0.0
C223 C 0.83465 0.50017 0.19701 0.0
C224 C 0.8019 0.51588 0.19988 0.0
C225 C 0.76171 0.48915 0.21383 0.0
C226 C 0.72525 0.49709 0.21121 0.0
C227 C 0.68563 0.47022 0.22559 0.0
C228 C 0.68183 0.43589 0.24172 0.0
C229 C 0.71725 0.42768 0.24396 0.0
C230 C 0.75685 0.45393 0.23024 0.0
H231 H 0.65701 0.46858 0.17032 0.0
C232 C 0.65566 0.4991 0.17295 0.0
H233 H 0.68774 0.56402 0.18846 0.0
H234 H 0.87629 0.57685 0.17274 0.0
H235 H 0.88346 0.63876 0.14674 0.0
H236 H 0.82029 0.65274 0.14233 0.0
H237 H 0.74958 0.60473 0.16381 0.0
C238 C 0.68821 0.533 0.18626 0.0
C239 C 0.72883 0.53121 0.1942 0.0
C240 C 0.77055 0.56082 0.18233 0.0
C241 C 0.80711 0.55295 0.18502 0.0
C242 C 0.8476 0.58148 0.17172 0.0
C243 C 0.85217 0.61718 0.15664 0.0
C244 C 0.81661 0.62504 0.15415 0.0
C245 C 0.77614 0.59717 0.16665 0.0
H246 H 0.33175 0.92239 0.45493 0.0
C247 C 0.33336 0.93015 0.47545 0.0
H248 H 0.31219 0.9049 0.51334 0.0
H249 H 0.18166 0.73823 0.43285 0.0
H250 H 0.14881 0.7835 0.42042 0.0
H251 H 0.17811 0.85936 0.43779 0.0
H252 H 0.24074 0.89053 0.46755 0.0
C253 C 0.30883 0.89766 0.4927 0.0
C254 C 0.28692 0.85013 0.48483 0.0
C255 C 0.24969 0.83209 0.46799 0.0
C256 C 0.23207 0.78795 0.45854 0.0
C257 C 0.19574 0.7712 0.44108 0.0
C258 C 0.17668 0.7969 0.43371 0.0
C259 C 0.19324 0.83965 0.44344 0.0
C260 C 0.22932 0.85722 0.46039 0.0
H261 H 0.17586 0.68801 0.4798 0.0
C262 C 0.19538 0.68181 0.46555 0.0
H263 H 0.25424 0.71017 0.44263 0.0
H264 H 0.35721 0.87364 0.51816 0.0
H265 H 0.38781 0.82719 0.53187 0.0
H266 H 0.35787 0.75108 0.51497 0.0
H267 H 0.29554 0.72013 0.4851 0.0
C268 C 0.23371 0.71593 0.45635 0.0
C269 C 0.25133 0.7618 0.46634 0.0
C270 C 0.28794 0.77947 0.48361 0.0
C271 C 0.30553 0.82355 0.49308 0.0
C272 C 0.34214 0.84029 0.5104 0.0
C273 C 0.3603 0.81406 0.51835 0.0
C274 C 0.34331 0.77113 0.50892 0.0
C275 C 0.30757 0.75384 0.49176 0.0
H276 H 0.49089 0.31588 0.84597 0.0
C277 C 0.51906 0.34576 0.8538 0.0
H278 H 0.58624 0.37573 0.86613 0.0
H279 H 0.54836 0.17001 0.86943 0.0
H280 H 0.5355 0.17596 0.91522 0.0
H281 H 0.53491 0.24243 0.93197 0.0
H282 H 0.54753 0.30362 0.90297 0.0
C283 C 0.55674 0.34544 0.85985 0.0
C284 C 0.56272 0.30806 0.85081 0.0
C285 C 0.55534 0.27284 0.86788 0.0
C286 C 0.55524 0.23441 0.85811 0.0
C287 C 0.54811 0.19972 0.87571 0.0
C288 C 0.54086 0.20279 0.90205 0.0
C289 C 0.54055 0.24022 0.91149 0.0
C290 C 0.54769 0.27499 0.89468 0.0
H291 H 0.62108 0.21508 0.80543 0.0
C292 C 0.58852 0.18548 0.80821 0.0
H293 H 0.52359 0.15876 0.82399 0.0
H294 H 0.58655 0.37389 0.81406 0.0
H295 H 0.59786 0.36821 0.76811 0.0
H296 H 0.59024 0.29881 0.75008 0.0
H297 H 0.5724 0.23538 0.77785 0.0
C298 C 0.55594 0.18845 0.8208 0.0
C299 C 0.56197 0.23119 0.83118 0.0
C300 C 0.57071 0.26731 0.81418 0.0
C301 C 0.5726 0.30639 0.82426 0.0
C302 C 0.58317 0.34281 0.80723 0.0
C303 C 0.58989 0.34008 0.78082 0.0
C304 C 0.58583 0.30111 0.77071 0.0
C305 C 0.57606 0.26499 0.78704 0.0
H306 H 0.54626 0.95261 0.52016 0.0
C307 C 0.51375 0.94846 0.51535 0.0
H308 H 0.44576 0.90309 0.50857 0.0
H309 H 0.46769 0.73947 0.47631 0.0
H310 H 0.43308 0.75102 0.43842 0.0
H311 H 0.42072 0.81536 0.43555 0.0
H312 H 0.4432 0.86869 0.4704 0.0
C313 C 0.47821 0.90716 0.51337 0.0
C314 C 0.48225 0.8662 0.51628 0.0
C315 C 0.46842 0.83495 0.49576 0.0
C316 C 0.47499 0.79741 0.49755 0.0
C317 C 0.46244 0.76781 0.47633 0.0
C318 C 0.44277 0.77421 0.45436 0.0
C319 C 0.43587 0.81046 0.45272 0.0
C320 C 0.44885 0.8408 0.47298 0.0
H321 H 0.43814 0.7018 0.52256 0.0
C322 C 0.47305 0.71075 0.52397 0.0
H323 H 0.54003 0.763 0.52388 0.0
H324 H 0.50285 0.91334 0.56172 0.0
H325 H 0.5346 0.90004 0.60027 0.0
H326 H 0.54849 0.83666 0.6027 0.0
H327 H 0.53042 0.78611 0.56661 0.0
C328 C 0.50518 0.75379 0.52161 0.0
C329 C 0.49483 0.79084 0.52001 0.0
C330 C 0.5066 0.82084 0.54104 0.0
C331 C 0.49963 0.85808 0.53938 0.0
C332 C 0.50939 0.88585 0.56132 0.0
C333 C 0.52714 0.87826 0.58377 0.0
C334 C 0.5349 0.84256 0.58516 0.0
C335 C 0.52457 0.81393 0.5642 0.0
H336 H 0.71395 0.5541 0.80458 0.0
C337 C 0.6874 0.52763 0.81606 0.0
H338 H 0.6693 0.47325 0.84175 0.0
H339 H 0.81763 0.42528 0.82309 0.0
H340 H 0.75354 0.36168 0.80402 0.0
H341 H 0.68335 0.36246 0.79667 0.0
H342 H 0.67668 0.42683 0.8084 0.0
C343 C 0.69597 0.50009 0.8305 0.0
C344 C 0.74063 0.50315 0.83142 0.0
C345 C 0.74456 0.46589 0.82365 0.0
C346 C 0.78529 0.46566 0.82755 0.0
C347 C 0.78764 0.42738 0.82038 0.0
C348 C 0.7511 0.39063 0.80941 0.0
C349 C 0.71155 0.39106 0.80529 0.0
C350 C 0.70814 0.42816 0.81222 0.0
H351 H 0.85047 0.50134 0.88645 0.0
C352 C 0.872 0.49901 0.87184 0.0
H353 H 0.8825 0.4961 0.83162 0.0
H354 H 0.74444 0.57919 0.85059 0.0
H355 H 0.8097 0.644 0.86728 0.0
H356 H 0.88215 0.64621 0.86995 0.0
H357 H 0.88923 0.58281 0.85649 0.0
C358 C 0.8625 0.49989 0.84662 0.0
C359 C 0.82223 0.50283 0.83904 0.0
C360 C 0.81926 0.54123 0.84526 0.0
C361 C 0.77809 0.54094 0.84225 0.0
C362 C 0.77524 0.57825 0.85101 0.0
C363 C 0.81247 0.61568 0.8609 0.0
C364 C 0.8532 0.61685 0.86251 0.0
C365 C 0.85673 0.58014 0.85487 0.0
H366 H 0.10776 0.62707 0.19791 0.0
C367 C 0.11514 0.60336 0.18851 0.0
H368 H 0.1662 0.59065 0.17597 0.0
H369 H 0.31194 0.79693 0.17167 0.0
H370 H 0.30302 0.7789 0.12589 0.0
H371 H 0.24445 0.70503 0.111 0.0
H372 H 0.19458 0.64861 0.14185 0.0
C373 C 0.15787 0.6136 0.18544 0.0
C374 C 0.1949 0.65697 0.19464 0.0
C375 C 0.22368 0.6895 0.17637 0.0
C376 C 0.25703 0.73226 0.18495 0.0
C377 C 0.28558 0.76409 0.16625 0.0
C378 C 0.28093 0.75415 0.13989 0.0
C379 C 0.24798 0.71255 0.13151 0.0
C380 C 0.21958 0.68047 0.14944 0.0
H381 H 0.33493 0.76768 0.24066 0.0
C382 C 0.33103 0.79559 0.23421 0.0
H383 H 0.29169 0.8158 0.21304 0.0
H384 H 0.15048 0.59941 0.23503 0.0
H385 H 0.15866 0.61736 0.28079 0.0
H386 H 0.21178 0.6935 0.29548 0.0
H387 H 0.25841 0.75158 0.26457 0.0
C388 C 0.29507 0.788 0.22028 0.0
C389 C 0.26139 0.7424 0.2118 0.0
C390 C 0.23302 0.70951 0.23015 0.0
C391 C 0.20054 0.66635 0.22158 0.0
C392 C 0.17438 0.63329 0.24036 0.0
C393 C 0.17887 0.64308 0.26672 0.0
C394 C 0.20896 0.68587 0.275 0.0
C395 C 0.23576 0.71885 0.25702 0.0
H396 H 0.51925 0.21327 0.50844 0.0
C397 C 0.49025 0.18365 0.501 0.0
H398 H 0.42608 0.15837 0.48448 0.0
H399 H 0.47046 0.3444 0.54768 0.0
H400 H 0.45495 0.29836 0.58622 0.0
H401 H 0.43825 0.22031 0.58308 0.0
H402 H 0.43769 0.18814 0.54128 0.0
C403 C 0.45506 0.18688 0.49276 0.0
C404 C 0.45629 0.2306 0.49409 0.0
C405 C 0.4544 0.24832 0.5185 0.0
C406 C 0.46222 0.29276 0.52017 0.0
C407 C 0.46303 0.31039 0.54504 0.0
C408 C 0.45447 0.28437 0.56741 0.0
C409 C 0.44521 0.24048 0.56565 0.0
C410 C 0.44521 0.22251 0.54155 0.0
H411 H 0.41754 0.35233 0.5111 0.0
C412 C 0.45147 0.37819 0.50638 0.0
H413 H 0.51535 0.39193 0.49364 0.0
H414 H 0.45865 0.20543 0.44423 0.0
H415 H 0.47106 0.25023 0.40525 0.0
H416 H 0.48257 0.32655 0.4079 0.0
H417 H 0.48194 0.35868 0.44955 0.0
C418 C 0.48153 0.36647 0.49885 0.0
C419 C 0.47015 0.31884 0.49723 0.0
C420 C 0.46994 0.30028 0.47273 0.0
C421 C 0.46293 0.25611 0.47116 0.0
C422 C 0.46365 0.23874 0.44648 0.0
C423 C 0.4707 0.26407 0.42397 0.0
C424 C 0.4772 0.30706 0.42547 0.0
C425 C 0.47686 0.32513 0.4495 0.0
H426 H 0.43004 0.53936 0.82693 0.0
C427 C 0.43235 0.51161 0.83535 0.0
H428 H 0.39842 0.45146 0.85702 0.0
H429 H 0.26382 0.5074 0.90569 0.0
H430 H 0.30867 0.51298 0.94319 0.0
H431 H 0.37511 0.50423 0.93876 0.0
H432 H 0.397 0.48963 0.8968 0.0
C433 C 0.39662 0.47888 0.84775 0.0
C434 C 0.35477 0.48118 0.85055 0.0
C435 C 0.34231 0.48952 0.87521 0.0
C436 C 0.30426 0.49504 0.87772 0.0
C437 C 0.29264 0.50337 0.90261 0.0
C438 C 0.31805 0.50657 0.92432 0.0
C439 C 0.35543 0.50161 0.92183 0.0
C440 C 0.36761 0.49321 0.89762 0.0
H441 H 0.19109 0.43283 0.85211 0.0
C442 C 0.19753 0.46627 0.85646 0.0
H443 H 0.24685 0.53297 0.86379 0.0
H444 H 0.36592 0.45976 0.80109 0.0
H445 H 0.32193 0.45545 0.76342 0.0
H446 H 0.25842 0.46905 0.7673 0.0
H447 H 0.23814 0.48642 0.80891 0.0
C448 C 0.23994 0.49982 0.8583 0.0
C449 C 0.2786 0.4921 0.85557 0.0
C450 C 0.29063 0.48304 0.83094 0.0
C451 C 0.32831 0.47684 0.82852 0.0
C452 C 0.33859 0.46625 0.80388 0.0
C453 C 0.31345 0.4634 0.78212 0.0
C454 C 0.27762 0.47093 0.78432 0.0
C455 C 0.2662 0.48067 0.80837 0.0
H456 H 0.9028 0.31665 0.15525 0.0
C457 C 0.89768 0.34151 0.16506 0.0
H458 H 0.85219 0.35429 0.18565 0.0
H459 H 0.69559 0.17799 0.12995 0.0
H460 H 0.71961 0.22179 0.09 0.0
H461 H 0.78932 0.29461 0.08843 0.0
H462 H 0.8356 0.32392 0.12668 0.0
C463 C 0.8574 0.33007 0.17516 0.0
C464 C 0.81929 0.28373 0.17462 0.0
C465 C 0.79277 0.26729 0.15206 0.0
C466 C 0.75211 0.2258 0.1531 0.0
C467 C 0.72627 0.20982 0.13031 0.0
C468 C 0.73978 0.23451 0.10725 0.0
C469 C 0.77907 0.27548 0.10636 0.0
C470 C 0.80535 0.2919 0.12846 0.0
H471 H 0.66098 0.20097 0.17704 0.0
C472 C 0.65649 0.16776 0.17998 0.0
H473 H 0.68875 0.12953 0.18332 0.0
H474 H 0.86507 0.30379 0.22037 0.0
H475 H 0.84166 0.25941 0.26008 0.0
H476 H 0.77071 0.18779 0.26204 0.0
H477 H 0.72274 0.1601 0.22435 0.0
C478 C 0.69225 0.16205 0.17931 0.0
C479 C 0.73789 0.20137 0.17678 0.0
C480 C 0.76588 0.21645 0.19883 0.0
C481 C 0.80659 0.25781 0.19776 0.0
C482 C 0.83358 0.27271 0.22022 0.0
C483 C 0.82061 0.24753 0.2431 0.0
C484 C 0.78068 0.20719 0.2442 0.0
C485 C 0.75346 0.19169 0.22241 0.0
H486 H 0.99894 0.52294 0.08871 0.0
C487 C 0.00761 0.50343 0.10165 0.0
H488 H 0.03108 0.45762 0.10427 0.0
H489 H 0.96603 0.39768 0.98826 0.0
H490 H 0.91553 0.33102 0.01286 0.0
H491 H 0.91676 0.33069 0.06075 0.0
H492 H 0.96862 0.39688 0.08433 0.0
C493 C 0.02511 0.47961 0.09183 0.0
C494 C 0.02968 0.47772 0.06322 0.0
C495 C 0.99967 0.4385 0.04978 0.0
C496 C 0.99865 0.43882 0.0222 0.0
C497 C 0.9679 0.39938 0.00923 0.0
C498 C 0.9388 0.36086 0.0231 0.0
C499 C 0.93952 0.36067 0.05006 0.0
C500 C 0.96947 0.39893 0.06336 0.0
H501 H 0.08159 0.47939 0.97006 0.0
C502 C 0.05231 0.47991 0.96275 0.0
H503 H 0.99235 0.47894 0.97261 0.0
H504 H 0.09644 0.55552 0.08306 0.0
H505 H 0.14736 0.62228 0.05859 0.0
H506 H 0.14343 0.6242 0.01081 0.0
H507 H 0.08913 0.55938 0.9872 0.0
C508 C 0.0225 0.47986 0.97958 0.0
C509 C 0.02776 0.47827 0.00814 0.0
C510 C 0.05945 0.5168 0.02156 0.0
C511 C 0.0608 0.51624 0.04915 0.0
C512 C 0.09326 0.55472 0.06215 0.0
C513 C 0.12279 0.59312 0.04834 0.0
C514 C 0.12065 0.59415 0.02144 0.0
C515 C 0.08938 0.5566 0.0081 0.0
H516 H 0.48809 0.06702 0.42422 0.0
C517 C 0.51315 0.05945 0.43151 0.0
H518 H 0.55936 0.03842 0.42264 0.0
H519 H 0.42867 0.99288 0.31756 0.0
H520 H 0.36723 0.94183 0.34531 0.0
H521 H 0.37875 0.93544 0.39205 0.0
H522 H 0.45159 0.98082 0.41139 0.0
C523 C 0.53381 0.04522 0.41527 0.0
C524 C 0.5274 0.04446 0.38666 0.0
C525 C 0.4851 0.01596 0.37544 0.0
C526 C 0.47904 0.01787 0.34822 0.0
C527 C 0.43573 0.99134 0.33786 0.0
C528 C 0.40003 0.96209 0.35362 0.0
C529 C 0.40647 0.95862 0.37995 0.0
C530 C 0.44842 0.98512 0.39084 0.0
H531 H 0.49163 0.9823 0.29594 0.0
C532 C 0.50034 0.01476 0.28775 0.0
H533 H 0.52007 0.08193 0.29534 0.0
H534 H 0.613 0.10363 0.40184 0.0
H535 H 0.67541 0.15133 0.37382 0.0
H536 H 0.66614 0.15093 0.32635 0.0
H537 H 0.59426 0.10325 0.30669 0.0
C538 C 0.51061 0.0493 0.30357 0.0
C539 C 0.51592 0.04647 0.3321 0.0
C540 C 0.55854 0.07381 0.34326 0.0
C541 C 0.56418 0.07314 0.37056 0.0
C542 C 0.60686 0.10195 0.38119 0.0
C543 C 0.64306 0.12968 0.36533 0.0
C544 C 0.63782 0.12953 0.33862 0.0
C545 C 0.59622 0.10203 0.32761 0.0
H546 H 0.49572 0.47833 0.74368 0.0
C547 C 0.52833 0.49661 0.75273 0.0
H548 H 0.59648 0.54438 0.74744 0.0
H549 H 0.48505 0.46608 0.63448 0.0
H550 H 0.47486 0.39446 0.64814 0.0
H551 H 0.50594 0.38628 0.68958 0.0
H552 H 0.5459 0.44966 0.718 0.0
C553 C 0.56382 0.5257 0.73851 0.0
C554 C 0.55838 0.53372 0.71056 0.0
C555 C 0.53879 0.4974 0.6931 0.0
C556 C 0.52437 0.50303 0.66824 0.0
C557 C 0.49984 0.46477 0.65268 0.0
C558 C 0.49322 0.42316 0.66045 0.0
C559 C 0.51045 0.41849 0.68383 0.0
C560 C 0.53293 0.45503 0.70006 0.0
H561 H 0.55447 0.52927 0.61234 0.0
C562 C 0.53217 0.54302 0.61165 0.0
H563 H 0.49652 0.5668 0.63335 0.0
H564 H 0.60196 0.61182 0.7375 0.0
H565 H 0.61821 0.68514 0.72259 0.0
H566 H 0.59723 0.69606 0.67853 0.0
H567 H 0.55946 0.63361 0.64927 0.0
C568 C 0.51857 0.55277 0.63389 0.0
C569 C 0.53369 0.54614 0.65982 0.0
C570 C 0.55662 0.58319 0.67652 0.0
C571 C 0.56899 0.57698 0.7019 0.0
C572 C 0.59128 0.61449 0.71822 0.0
C573 C 0.60111 0.65687 0.70982 0.0
C574 C 0.58931 0.66301 0.68502 0.0
C575 C 0.56748 0.6268 0.66845 0.0
H576 H 0.45831 0.06909 0.59022 0.0
C577 C 0.48204 0.065 0.57829 0.0
H578 H 0.53375 0.04921 0.57777 0.0
H579 H 0.5105 0.09096 0.70228 0.0
H580 H 0.54288 0.16829 0.68863 0.0
H581 H 0.56081 0.18995 0.64254 0.0
H582 H 0.54566 0.1341 0.60972 0.0
C583 C 0.51144 0.05561 0.5896 0.0
C584 C 0.50729 0.0441 0.61772 0.0
C585 C 0.51824 0.07731 0.63677 0.0
C586 C 0.50964 0.065 0.6635 0.0
C587 C 0.51809 0.09852 0.68188 0.0
C588 C 0.53637 0.14307 0.67428 0.0
C589 C 0.54634 0.15526 0.64831 0.0
C590 C 0.53735 0.12289 0.62968 0.0
H591 H 0.54572 0.04287 0.71333 0.0
C592 C 0.51133 0.01741 0.71733 0.0
H593 H 0.4461 0.97933 0.70285 0.0
H594 H 0.48139 0.97193 0.586 0.0
H595 H 0.45006 0.89472 0.59968 0.0
H596 H 0.44092 0.87412 0.64606 0.0
H597 H 0.4607 0.93018 0.67913 0.0
C598 C 0.48031 0.00515 0.6987 0.0
C599 C 0.49187 0.01966 0.67112 0.0
C600 C 0.48241 0.98671 0.65204 0.0
C601 C 0.48955 0.99884 0.62532 0.0
C602 C 0.47753 0.96483 0.60664 0.0
C603 C 0.45966 0.92034 0.61418 0.0
C604 C 0.45422 0.90868 0.6403 0.0
C605 C 0.46552 0.94128 0.65909 0.0
H606 H 0.55483 0.51 0.90184 0.0
C607 C 0.58531 0.53792 0.89397 0.0
H608 H 0.65042 0.59015 0.90214 0.0
H609 H 0.58442 0.59146 0.01781 0.0
H610 H 0.60294 0.66478 0.00196 0.0
H611 H 0.6283 0.6877 0.95679 0.0
H612 H 0.63486 0.63705 0.92716 0.0
C613 C 0.62019 0.56147 0.90961 0.0
C614 C 0.61568 0.55155 0.93795 0.0
C615 C 0.61415 0.58233 0.95536 0.0
C616 C 0.60047 0.5694 0.98157 0.0
C617 C 0.59605 0.59974 0.99799 0.0
C618 C 0.60628 0.64198 0.98907 0.0
C619 C 0.62047 0.65486 0.96363 0.0
C620 C 0.62413 0.62544 0.94683 0.0
H621 H 0.62614 0.55176 0.03805 0.0
C622 C 0.59122 0.52576 0.03867 0.0
H623 H 0.53422 0.48292 0.01682 0.0
H624 H 0.62395 0.48829 0.91078 0.0
H625 H 0.60785 0.4154 0.92679 0.0
H626 H 0.5839 0.39265 0.97221 0.0
H627 H 0.57596 0.44265 0.00187 0.0
C628 C 0.56889 0.50953 0.01641 0.0
C629 C 0.58974 0.5261 0.99043 0.0
C630 C 0.59451 0.49662 0.97344 0.0
C631 C 0.60782 0.50948 0.94722 0.0
C632 C 0.61279 0.47962 0.93071 0.0
C633 C 0.60401 0.43787 0.93971 0.0
C634 C 0.59055 0.42507 0.96528 0.0
C635 C 0.58594 0.45401 0.98207 0.0
H636 H 0.0567 0.49276 0.25507 0.0
C637 C 0.0267 0.48058 0.24338 0.0
H638 H 0.95892 0.46469 0.24308 0.0
H639 H 0.98285 0.43772 0.36526 0.0
H640 H 0.92636 0.36283 0.35322 0.0
H641 H 0.89845 0.34613 0.3083 0.0
H642 H 0.92726 0.40452 0.27506 0.0
C643 C 0.98996 0.47825 0.25382 0.0
C644 C 0.99185 0.49124 0.28142 0.0
C645 C 0.97295 0.45759 0.30081 0.0
C646 C 0.98868 0.46746 0.32676 0.0
C647 C 0.97166 0.4324 0.34537 0.0
C648 C 0.93926 0.38919 0.33869 0.0
C649 C 0.92357 0.37976 0.31338 0.0
C650 C 0.94034 0.41341 0.29452 0.0
H651 H 1.00033 0.51509 0.3834 0.0
C652 C 0.03415 0.52103 0.38087 0.0
H653 H 0.08362 0.52718 0.3544 0.0
H654 H 0.02513 0.5648 0.24998 0.0
H655 H 0.07789 0.64131 0.26229 0.0
H656 H 0.10494 0.65902 0.30736 0.0
H657 H 0.07965 0.6004 0.34035 0.0
C658 C 0.0493 0.51968 0.35707 0.0
C659 C 0.02251 0.51135 0.33311 0.0
C660 C 0.03657 0.54613 0.3144 0.0
C661 C 0.02104 0.53604 0.28851 0.0
C662 C 0.03644 0.57101 0.2699 0.0
C663 C 0.06639 0.61491 0.27676 0.0
C664 C 0.08162 0.62487 0.30214 0.0
C665 C 0.06709 0.59098 0.32082 0.0
loop_
_geom_bond_atom_site_label_1
_geom_bond_atom_site_label_2
_geom_bond_distance
_geom_bond_site_symmetry_2
_ccdc_geom_bond_type
Dy0 O4 2.398 . S
Dy0 O5 2.491 . S
Dy0 O6 2.403 . S
Dy0 O7 2.664 . S
Dy0 O11 2.326 . S
Dy0 O15 2.310 . S
Dy0 O16 2.351 1_455 S
C1 O12 1.185 . S
C1 O13 1.355 . S
C2 O4 1.185 . S
C2 O5 1.355 . S
Dy3 O7 2.310 1_655 S
Dy3 O10 2.351 1_655 S
Dy3 O12 2.398 . S
Dy3 O13 2.491 . S
Dy3 O14 2.403 . S
Dy3 O15 2.664 1_655 S
Dy3 O17 2.326 . S
O4 Dy0 2.398 . S
O4 C2 1.185 . S
O5 Dy0 2.491 . S
O5 C2 1.355 . S
O6 Dy0 2.403 . S
O6 C8 1.254 . S
O7 Dy0 2.664 . S
O7 Dy3 2.310 1_455 S
O7 C8 1.268 . S
C8 O6 1.254 . S
C8 O7 1.268 . S
C9 O14 1.254 1_455 S
C9 O15 1.268 . S
O10 Dy3 2.351 1_455 S
O10 C18 1.249 . S
O11 Dy0 2.326 . S
O11 C18 1.267 . S
O12 C1 1.185 . S
O12 Dy3 2.398 . S
O13 C1 1.355 . S
O13 Dy3 2.491 . S
O14 Dy3 2.403 . S
O14 C9 1.254 1_655 S
O15 Dy0 2.310 . S
O15 Dy3 2.664 1_455 S
O15 C9 1.268 . S
O16 Dy0 2.351 1_655 S
O16 C19 1.249 . S
O17 Dy3 2.326 . S
O17 C19 1.267 . S
C18 O10 1.249 . S
C18 O11 1.267 . S
C19 O16 1.249 . S
C19 O17 1.267 . S
Dy20 O24 2.398 . S
Dy20 O25 2.491 . S
Dy20 O26 2.403 . S
Dy20 O27 2.664 1_565 S
Dy20 O31 2.326 . S
Dy20 O35 2.310 1_565 S
Dy20 O36 2.351 1_565 S
C21 O32 1.185 . S
C21 O33 1.355 . S
C22 O24 1.185 . S
C22 O25 1.355 . S
Dy23 O27 2.310 . S
Dy23 O30 2.351 1_545 S
Dy23 O32 2.398 . S
Dy23 O33 2.491 . S
Dy23 O34 2.403 . S
Dy23 O35 2.664 . S
Dy23 O37 2.326 . S
O24 Dy20 2.398 . S
O24 C22 1.185 . S
O25 Dy20 2.491 . S
O25 C22 1.355 . S
O26 Dy20 2.403 . S
O26 C28 1.254 1_565 S
O27 Dy20 2.664 1_545 S
O27 Dy23 2.310 . S
O27 C28 1.268 . S
C28 O26 1.254 1_545 S
C28 O27 1.268 . S
C29 O34 1.254 . S
C29 O35 1.268 . S
O30 Dy23 2.351 1_565 S
O30 C38 1.249 . S
O31 Dy20 2.326 . S
O31 C38 1.267 . S
O32 C21 1.185 . S
O32 Dy23 2.398 . S
O33 C21 1.355 . S
O33 Dy23 2.491 . S
O34 Dy23 2.403 . S
O34 C29 1.254 . S
O35 Dy20 2.310 1_545 S
O35 Dy23 2.664 . S
O35 C29 1.268 . S
O36 Dy20 2.351 1_545 S
O36 C39 1.249 . S
O37 Dy23 2.326 . S
O37 C39 1.267 . S
C38 O30 1.249 . S
C38 O31 1.267 . S
C39 O36 1.249 . S
C39 O37 1.267 . S
Dy40 O44 2.398 . S
Dy40 O45 2.491 . S
Dy40 O46 2.403 . S
Dy40 O47 2.664 . S
Dy40 O51 2.326 . S
Dy40 O55 2.310 . S
Dy40 O56 2.351 . S
C41 O52 1.185 . S
C41 O53 1.355 . S
C42 O44 1.185 . S
C42 O45 1.355 . S
Dy43 O47 2.310 . S
Dy43 O50 2.351 . S
Dy43 O52 2.398 . S
Dy43 O53 2.491 . S
Dy43 O54 2.403 . S
Dy43 O55 2.664 . S
Dy43 O57 2.326 . S
O44 Dy40 2.398 . S
O44 C42 1.185 . S
O45 Dy40 2.491 . S
O45 C42 1.355 . S
O46 Dy40 2.403 . S
O46 C48 1.254 . S
O47 Dy40 2.664 . S
O47 Dy43 2.310 . S
O47 C48 1.268 . S
C48 O46 1.254 . S
C48 O47 1.268 . S
C49 O54 1.254 . S
C49 O55 1.268 . S
O50 Dy43 2.351 . S
O50 C58 1.249 . S
O51 Dy40 2.326 . S
O51 C58 1.267 . S
O52 C41 1.185 . S
O52 Dy43 2.398 . S
O53 C41 1.355 . S
O53 Dy43 2.491 . S
O54 Dy43 2.403 . S
O54 C49 1.254 . S
O55 Dy40 2.310 . S
O55 Dy43 2.664 . S
O55 C49 1.268 . S
O56 Dy40 2.351 . S
O56 C59 1.249 . S
O57 Dy43 2.326 . S
O57 C59 1.267 . S
C58 O50 1.249 . S
C58 O51 1.267 . S
C59 O56 1.249 . S
C59 O57 1.267 . S
O60 Cd61 2.300 . S
O60 C67 1.257 1_545 S
Cd61 O60 2.300 . S
Cd61 O69 2.381 . S
Cd61 O70 2.378 . S
O62 Cd63 2.385 . S
O62 C67 1.276 . S
Cd63 O62 2.385 . S
Cd63 O64 2.317 . S
O64 Cd63 2.317 . S
O64 C65 1.232 . S
C65 O64 1.232 . S
C65 O66 1.218 . S
O66 C65 1.218 . S
C67 O60 1.257 1_565 S
C67 O62 1.276 . S
C68 O69 1.258 . S
C68 O70 1.256 . S
O69 Cd61 2.381 . S
O69 C68 1.258 . S
O70 Cd61 2.378 . S
O70 C68 1.256 . S
O71 Cd72 2.300 . S
O71 C78 1.275 . S
Cd72 O71 2.300 . S
Cd72 O80 2.381 . S
Cd72 O81 2.378 . S
O73 Cd74 2.385 . S
O73 C78 1.255 . S
Cd74 O73 2.385 . S
Cd74 O75 2.317 . S
O75 Cd74 2.317 . S
O75 C76 1.232 . S
C76 O75 1.232 . S
C76 O77 1.218 . S
O77 C76 1.218 . S
C78 O71 1.275 . S
C78 O73 1.255 . S
C79 O80 1.258 . S
C79 O81 1.256 . S
O80 Cd72 2.381 . S
O80 C79 1.258 . S
O81 Cd72 2.378 . S
O81 C79 1.256 . S
O82 Cd83 2.300 . S
O82 C89 1.275 . S
Cd83 O82 2.300 . S
Cd83 O91 2.381 . S
Cd83 O92 2.378 . S
O84 Cd85 2.385 1_455 S
O84 C89 1.255 . S
Cd85 O84 2.385 1_655 S
Cd85 O86 2.317 . S
O86 Cd85 2.317 . S
O86 C87 1.232 . S
C87 O86 1.232 . S
C87 O88 1.218 . S
O88 C87 1.218 . S
C89 O82 1.275 . S
C89 O84 1.255 . S
C90 O91 1.258 . S
C90 O92 1.256 . S
O91 Cd83 2.381 . S
O91 C90 1.258 . S
O92 Cd83 2.378 . S
O92 C90 1.256 . S
O93 Cd94 2.300 . S
O93 C100 1.275 . S
Cd94 O93 2.300 . S
Cd94 O102 2.381 . S
Cd94 O103 2.378 . S
O95 Cd96 2.385 . S
O95 C100 1.255 1_655 S
Cd96 O95 2.385 . S
Cd96 O97 2.317 . S
O97 Cd96 2.317 . S
O97 C98 1.232 . S
C98 O97 1.232 . S
C98 O99 1.218 . S
O99 C98 1.218 . S
C100 O93 1.275 . S
C100 O95 1.255 1_455 S
C101 O102 1.258 . S
C101 O103 1.256 . S
O102 Cd94 2.381 . S
O102 C101 1.258 . S
O103 Cd94 2.378 . S
O103 C101 1.256 . S
O104 Cd105 2.300 1_565 S
O104 C111 1.275 1_565 S
Cd105 O104 2.300 1_545 S
Cd105 O113 2.381 1_545 S
Cd105 O114 2.378 1_545 S
O106 Cd107 2.385 . S
O106 C111 1.255 . S
Cd107 O106 2.385 . S
Cd107 O108 2.317 . S
O108 Cd107 2.317 . S
O108 C109 1.232 . S
C109 O108 1.232 . S
C109 O110 1.218 . S
O110 C109 1.218 . S
C111 O104 1.275 1_545 S
C111 O106 1.255 . S
C112 O113 1.258 . S
C112 O114 1.256 . S
O113 Cd105 2.381 1_565 S
O113 C112 1.258 . S
O114 Cd105 2.378 1_565 S
O114 C112 1.256 . S
O115 Cd116 2.300 . S
O115 C122 1.275 . S
Cd116 O115 2.300 . S
Cd116 O124 2.381 . S
Cd116 O125 2.378 . S
O117 Cd118 2.385 . S
O117 C122 1.255 . S
Cd118 O117 2.385 . S
Cd118 O119 2.317 . S
O119 Cd118 2.317 . S
O119 C120 1.232 . S
C120 O119 1.232 . S
C120 O121 1.218 . S
O121 C120 1.218 . S
C122 O115 1.275 . S
C122 O117 1.255 . S
C123 O124 1.258 . S
C123 O125 1.256 . S
O124 Cd116 2.381 . S
O124 C123 1.258 . S
O125 Cd116 2.378 . S
O125 C123 1.256 . S
H126 C127 0.951 . S
C127 H126 0.951 . S
C127 C133 1.265 . S
H128 C133 0.950 . S
H129 C137 0.949 . S
H130 C138 0.950 . S
H131 C139 0.951 . S
H132 C140 0.951 . S
C133 C127 1.265 . S
C133 H128 0.950 . S
C133 C134 1.478 . S
C134 C133 1.478 . S
C134 C135 1.397 . S
C134 C151 1.394 . S
C135 C134 1.397 . S
C135 C136 1.438 . S
C135 C140 1.429 . S
C136 C135 1.438 . S
C136 C137 1.428 . S
C136 C149 1.394 . S
C137 H129 0.949 . S
C137 C136 1.428 . S
C137 C138 1.345 . S
C138 H130 0.950 . S
C138 C137 1.345 . S
C138 C139 1.424 . S
C139 H131 0.951 . S
C139 C138 1.424 . S
C139 C140 1.347 . S
C140 H132 0.951 . S
C140 C135 1.429 . S
C140 C139 1.347 . S
H141 C142 0.951 . S
C142 H141 0.951 . S
C142 C148 1.265 . S
H143 C148 0.950 . S
H144 C152 0.949 . S
H145 C153 0.950 . S
H146 C154 0.951 . S
H147 C155 0.951 . S
C148 C142 1.265 . S
C148 H143 0.950 . S
C148 C149 1.478 . S
C149 C136 1.394 . S
C149 C148 1.478 . S
C149 C150 1.397 . S
C150 C149 1.397 . S
C150 C151 1.438 . S
C150 C155 1.429 . S
C151 C134 1.394 . S
C151 C150 1.438 . S
C151 C152 1.428 . S
C152 H144 0.949 . S
C152 C151 1.428 . S
C152 C153 1.345 . S
C153 H145 0.950 . S
C153 C152 1.345 . S
C153 C154 1.424 . S
C154 H146 0.951 . S
C154 C153 1.424 . S
C154 C155 1.347 . S
C155 H147 0.951 . S
C155 C150 1.429 . S
C155 C154 1.347 . S
H156 C157 0.951 . S
C157 H156 0.951 . S
C157 C163 1.265 . S
H158 C163 0.950 . S
H159 C167 0.949 . S
H160 C168 0.950 . S
H161 C169 0.951 . S
H162 C170 0.951 . S
C163 C157 1.265 . S
C163 H158 0.950 . S
C163 C164 1.478 . S
C164 C163 1.478 . S
C164 C165 1.397 . S
C164 C181 1.394 . S
C165 C164 1.397 . S
C165 C166 1.438 . S
C165 C170 1.429 . S
C166 C165 1.438 . S
C166 C167 1.428 . S
C166 C179 1.394 . S
C167 H159 0.949 . S
C167 C166 1.428 . S
C167 C168 1.345 . S
C168 H160 0.950 . S
C168 C167 1.345 . S
C168 C169 1.424 . S
C169 H161 0.951 . S
C169 C168 1.424 . S
C169 C170 1.347 . S
C170 H162 0.951 . S
C170 C165 1.429 . S
C170 C169 1.347 . S
H171 C172 0.951 . S
C172 H171 0.951 . S
C172 C178 1.265 . S
H173 C178 0.950 . S
H174 C182 0.949 . S
H175 C183 0.950 . S
H176 C184 0.951 . S
H177 C185 0.951 . S
C178 C172 1.265 . S
C178 H173 0.950 . S
C178 C179 1.478 . S
C179 C166 1.394 . S
C179 C178 1.478 . S
C179 C180 1.397 . S
C180 C179 1.397 . S
C180 C181 1.438 . S
C180 C185 1.429 . S
C181 C164 1.394 . S
C181 C180 1.438 . S
C181 C182 1.428 . S
C182 H174 0.949 . S
C182 C181 1.428 . S
C182 C183 1.345 . S
C183 H175 0.950 . S
C183 C182 1.345 . S
C183 C184 1.424 . S
C184 H176 0.951 . S
C184 C183 1.424 . S
C184 C185 1.347 . S
C185 H177 0.951 . S
C185 C180 1.429 . S
C185 C184 1.347 . S
H186 C187 0.951 . S
C187 H186 0.951 . S
C187 C193 1.265 . S
H188 C193 0.950 . S
H189 C197 0.949 . S
H190 C198 0.950 . S
H191 C199 0.951 . S
H192 C200 0.951 . S
C193 C187 1.265 . S
C193 H188 0.950 . S
C193 C194 1.478 . S
C194 C193 1.478 . S
C194 C195 1.397 . S
C194 C211 1.394 . S
C195 C194 1.397 . S
C195 C196 1.438 . S
C195 C200 1.429 . S
C196 C195 1.438 . S
C196 C197 1.428 . S
C196 C209 1.394 . S
C197 H189 0.949 . S
C197 C196 1.428 . S
C197 C198 1.345 . S
C198 H190 0.950 . S
C198 C197 1.345 . S
C198 C199 1.424 . S
C199 H191 0.951 . S
C199 C198 1.424 . S
C199 C200 1.347 . S
C200 H192 0.951 . S
C200 C195 1.429 . S
C200 C199 1.347 . S
H201 C202 0.951 . S
C202 H201 0.951 . S
C202 C208 1.265 . S
H203 C208 0.950 . S
H204 C212 0.949 . S
H205 C213 0.950 . S
H206 C214 0.951 . S
H207 C215 0.951 . S
C208 C202 1.265 . S
C208 H203 0.950 . S
C208 C209 1.478 . S
C209 C196 1.394 . S
C209 C208 1.478 . S
C209 C210 1.397 . S
C210 C209 1.397 . S
C210 C211 1.438 . S
C210 C215 1.429 . S
C211 C194 1.394 . S
C211 C210 1.438 . S
C211 C212 1.428 . S
C212 H204 0.949 . S
C212 C211 1.428 . S
C212 C213 1.345 . S
C213 H205 0.950 . S
C213 C212 1.345 . S
C213 C214 1.424 . S
C214 H206 0.951 . S
C214 C213 1.424 . S
C214 C215 1.347 . S
C215 H207 0.951 . S
C215 C210 1.429 . S
C215 C214 1.347 . S
H216 C217 0.951 . S
C217 H216 0.951 . S
C217 C223 1.265 . S
H218 C223 0.950 . S
H219 C227 0.949 . S
H220 C228 0.950 . S
H221 C229 0.951 . S
H222 C230 0.951 . S
C223 C217 1.265 . S
C223 H218 0.950 . S
C223 C224 1.478 . S
C224 C223 1.478 . S
C224 C225 1.397 . S
C224 C241 1.394 . S
C225 C224 1.397 . S
C225 C226 1.438 . S
C225 C230 1.429 . S
C226 C225 1.438 . S
C226 C227 1.428 . S
C226 C239 1.394 . S
C227 H219 0.949 . S
C227 C226 1.428 . S
C227 C228 1.345 . S
C228 H220 0.950 . S
C228 C227 1.345 . S
C228 C229 1.424 . S
C229 H221 0.951 . S
C229 C228 1.424 . S
C229 C230 1.347 . S
C230 H222 0.951 . S
C230 C225 1.429 . S
C230 C229 1.347 . S
H231 C232 0.951 . S
C232 H231 0.951 . S
C232 C238 1.265 . S
H233 C238 0.950 . S
H234 C242 0.949 . S
H235 C243 0.950 . S
H236 C244 0.951 . S
H237 C245 0.951 . S
C238 C232 1.265 . S
C238 H233 0.950 . S
C238 C239 1.478 . S
C239 C226 1.394 . S
C239 C238 1.478 . S
C239 C240 1.397 . S
C240 C239 1.397 . S
C240 C241 1.438 . S
C240 C245 1.429 . S
C241 C224 1.394 . S
C241 C240 1.438 . S
C241 C242 1.428 . S
C242 H234 0.949 . S
C242 C241 1.428 . S
C242 C243 1.345 . S
C243 H235 0.950 . S
C243 C242 1.345 . S
C243 C244 1.424 . S
C244 H236 0.951 . S
C244 C243 1.424 . S
C244 C245 1.347 . S
C245 H237 0.951 . S
C245 C240 1.429 . S
C245 C244 1.347 . S
H246 C247 0.951 . S
C247 H246 0.951 . S
C247 C253 1.265 . S
H248 C253 0.950 . S
H249 C257 0.949 . S
H250 C258 0.950 . S
H251 C259 0.951 . S
H252 C260 0.951 . S
C253 C247 1.265 . S
C253 H248 0.950 . S
C253 C254 1.478 . S
C254 C253 1.478 . S
C254 C255 1.397 . S
C254 C271 1.394 . S
C255 C254 1.397 . S
C255 C256 1.438 . S
C255 C260 1.429 . S
C256 C255 1.438 . S
C256 C257 1.428 . S
C256 C269 1.394 . S
C257 H249 0.949 . S
C257 C256 1.428 . S
C257 C258 1.345 . S
C258 H250 0.950 . S
C258 C257 1.345 . S
C258 C259 1.424 . S
C259 H251 0.951 . S
C259 C258 1.424 . S
C259 C260 1.347 . S
C260 H252 0.951 . S
C260 C255 1.429 . S
C260 C259 1.347 . S
H261 C262 0.951 . S
C262 H261 0.951 . S
C262 C268 1.265 . S
H263 C268 0.950 . S
H264 C272 0.949 . S
H265 C273 0.950 . S
H266 C274 0.951 . S
H267 C275 0.951 . S
C268 C262 1.265 . S
C268 H263 0.950 . S
C268 C269 1.478 . S
C269 C256 1.394 . S
C269 C268 1.478 . S
C269 C270 1.397 . S
C270 C269 1.397 . S
C270 C271 1.438 . S
C270 C275 1.429 . S
C271 C254 1.394 . S
C271 C270 1.438 . S
C271 C272 1.428 . S
C272 H264 0.949 . S
C272 C271 1.428 . S
C272 C273 1.345 . S
C273 H265 0.950 . S
C273 C272 1.345 . S
C273 C274 1.424 . S
C274 H266 0.951 . S
C274 C273 1.424 . S
C274 C275 1.347 . S
C275 H267 0.951 . S
C275 C270 1.429 . S
C275 C274 1.347 . S
H276 C277 0.951 . S
C277 H276 0.951 . S
C277 C283 1.265 . S
H278 C283 0.950 . S
H279 C287 0.949 . S
H280 C288 0.950 . S
H281 C289 0.951 . S
H282 C290 0.951 . S
C283 C277 1.265 . S
C283 H278 0.950 . S
C283 C284 1.478 . S
C284 C283 1.478 . S
C284 C285 1.397 . S
C284 C301 1.394 . S
C285 C284 1.397 . S
C285 C286 1.438 . S
C285 C290 1.429 . S
C286 C285 1.438 . S
C286 C287 1.428 . S
C286 C299 1.394 . S
C287 H279 0.949 . S
C287 C286 1.428 . S
C287 C288 1.345 . S
C288 H280 0.950 . S
C288 C287 1.345 . S
C288 C289 1.424 . S
C289 H281 0.951 . S
C289 C288 1.424 . S
C289 C290 1.347 . S
C290 H282 0.951 . S
C290 C285 1.429 . S
C290 C289 1.347 . S
H291 C292 0.951 . S
C292 H291 0.951 . S
C292 C298 1.265 . S
H293 C298 0.950 . S
H294 C302 0.949 . S
H295 C303 0.950 . S
H296 C304 0.951 . S
H297 C305 0.951 . S
C298 C292 1.265 . S
C298 H293 0.950 . S
C298 C299 1.478 . S
C299 C286 1.394 . S
C299 C298 1.478 . S
C299 C300 1.397 . S
C300 C299 1.397 . S
C300 C301 1.438 . S
C300 C305 1.429 . S
C301 C284 1.394 . S
C301 C300 1.438 . S
C301 C302 1.428 . S
C302 H294 0.949 . S
C302 C301 1.428 . S
C302 C303 1.345 . S
C303 H295 0.950 . S
C303 C302 1.345 . S
C303 C304 1.424 . S
C304 H296 0.951 . S
C304 C303 1.424 . S
C304 C305 1.347 . S
C305 H297 0.951 . S
C305 C300 1.429 . S
C305 C304 1.347 . S
H306 C307 0.951 . S
C307 H306 0.951 . S
C307 C313 1.265 . S
H308 C313 0.950 . S
H309 C317 0.949 . S
H310 C318 0.950 . S
H311 C319 0.951 . S
H312 C320 0.951 . S
C313 C307 1.265 . S
C313 H308 0.950 . S
C313 C314 1.478 . S
C314 C313 1.478 . S
C314 C315 1.397 . S
C314 C331 1.394 . S
C315 C314 1.397 . S
C315 C316 1.438 . S
C315 C320 1.429 . S
C316 C315 1.438 . S
C316 C317 1.428 . S
C316 C329 1.394 . S
C317 H309 0.949 . S
C317 C316 1.428 . S
C317 C318 1.345 . S
C318 H310 0.950 . S
C318 C317 1.345 . S
C318 C319 1.424 . S
C319 H311 0.951 . S
C319 C318 1.424 . S
C319 C320 1.347 . S
C320 H312 0.951 . S
C320 C315 1.429 . S
C320 C319 1.347 . S
H321 C322 0.951 . S
C322 H321 0.951 . S
C322 C328 1.265 . S
H323 C328 0.950 . S
H324 C332 0.949 . S
H325 C333 0.950 . S
H326 C334 0.951 . S
H327 C335 0.951 . S
C328 C322 1.265 . S
C328 H323 0.950 . S
C328 C329 1.478 . S
C329 C316 1.394 . S
C329 C328 1.478 . S
C329 C330 1.397 . S
C330 C329 1.397 . S
C330 C331 1.438 . S
C330 C335 1.429 . S
C331 C314 1.394 . S
C331 C330 1.438 . S
C331 C332 1.428 . S
C332 H324 0.949 . S
C332 C331 1.428 . S
C332 C333 1.345 . S
C333 H325 0.950 . S
C333 C332 1.345 . S
C333 C334 1.424 . S
C334 H326 0.951 . S
C334 C333 1.424 . S
C334 C335 1.347 . S
C335 H327 0.951 . S
C335 C330 1.429 . S
C335 C334 1.347 . S
H336 C337 0.951 . S
C337 H336 0.951 . S
C337 C343 1.265 . S
H338 C343 0.950 . S
H339 C347 0.949 . S
H340 C348 0.950 . S
H341 C349 0.951 . S
H342 C350 0.951 . S
C343 C337 1.265 . S
C343 H338 0.950 . S
C343 C344 1.478 . S
C344 C343 1.478 . S
C344 C345 1.397 . S
C344 C361 1.394 . S
C345 C344 1.397 . S
C345 C346 1.438 . S
C345 C350 1.429 . S
C346 C345 1.438 . S
C346 C347 1.428 . S
C346 C359 1.394 . S
C347 H339 0.949 . S
C347 C346 1.428 . S
C347 C348 1.345 . S
C348 H340 0.950 . S
C348 C347 1.345 . S
C348 C349 1.424 . S
C349 H341 0.951 . S
C349 C348 1.424 . S
C349 C350 1.347 . S
C350 H342 0.951 . S
C350 C345 1.429 . S
C350 C349 1.347 . S
H351 C352 0.951 . S
C352 H351 0.951 . S
C352 C358 1.265 . S
H353 C358 0.950 . S
H354 C362 0.949 . S
H355 C363 0.950 . S
H356 C364 0.951 . S
H357 C365 0.951 . S
C358 C352 1.265 . S
C358 H353 0.950 . S
C358 C359 1.478 . S
C359 C346 1.394 . S
C359 C358 1.478 . S
C359 C360 1.397 . S
C360 C359 1.397 . S
C360 C361 1.438 . S
C360 C365 1.429 . S
C361 C344 1.394 . S
C361 C360 1.438 . S
C361 C362 1.428 . S
C362 H354 0.949 . S
C362 C361 1.428 . S
C362 C363 1.345 . S
C363 H355 0.950 . S
C363 C362 1.345 . S
C363 C364 1.424 . S
C364 H356 0.951 . S
C364 C363 1.424 . S
C364 C365 1.347 . S
C365 H357 0.951 . S
C365 C360 1.429 . S
C365 C364 1.347 . S
H366 C367 0.951 . S
C367 H366 0.951 . S
C367 C373 1.265 . S
H368 C373 0.950 . S
H369 C377 0.949 . S
H370 C378 0.950 . S
H371 C379 0.951 . S
H372 C380 0.951 . S
C373 C367 1.265 . S
C373 H368 0.950 . S
C373 C374 1.478 . S
C374 C373 1.478 . S
C374 C375 1.397 . S
C374 C391 1.394 . S
C375 C374 1.397 . S
C375 C376 1.438 . S
C375 C380 1.429 . S
C376 C375 1.438 . S
C376 C377 1.428 . S
C376 C389 1.394 . S
C377 H369 0.949 . S
C377 C376 1.428 . S
C377 C378 1.345 . S
C378 H370 0.950 . S
C378 C377 1.345 . S
C378 C379 1.424 . S
C379 H371 0.951 . S
C379 C378 1.424 . S
C379 C380 1.347 . S
C380 H372 0.951 . S
C380 C375 1.429 . S
C380 C379 1.347 . S
H381 C382 0.951 . S
C382 H381 0.951 . S
C382 C388 1.265 . S
H383 C388 0.950 . S
H384 C392 0.949 . S
H385 C393 0.950 . S
H386 C394 0.951 . S
H387 C395 0.951 . S
C388 C382 1.265 . S
C388 H383 0.950 . S
C388 C389 1.478 . S
C389 C376 1.394 . S
C389 C388 1.478 . S
C389 C390 1.397 . S
C390 C389 1.397 . S
C390 C391 1.438 . S
C390 C395 1.429 . S
C391 C374 1.394 . S
C391 C390 1.438 . S
C391 C392 1.428 . S
C392 H384 0.949 . S
C392 C391 1.428 . S
C392 C393 1.345 . S
C393 H385 0.950 . S
C393 C392 1.345 . S
C393 C394 1.424 . S
C394 H386 0.951 . S
C394 C393 1.424 . S
C394 C395 1.347 . S
C395 H387 0.951 . S
C395 C390 1.429 . S
C395 C394 1.347 . S
H396 C397 0.951 . S
C397 H396 0.951 . S
C397 C403 1.265 . S
H398 C403 0.950 . S
H399 C407 0.949 . S
H400 C408 0.950 . S
H401 C409 0.951 . S
H402 C410 0.951 . S
C403 C397 1.265 . S
C403 H398 0.950 . S
C403 C404 1.478 . S
C404 C403 1.478 . S
C404 C405 1.397 . S
C404 C421 1.394 . S
C405 C404 1.397 . S
C405 C406 1.438 . S
C405 C410 1.429 . S
C406 C405 1.438 . S
C406 C407 1.428 . S
C406 C419 1.394 . S
C407 H399 0.949 . S
C407 C406 1.428 . S
C407 C408 1.345 . S
C408 H400 0.950 . S
C408 C407 1.345 . S
C408 C409 1.424 . S
C409 H401 0.951 . S
C409 C408 1.424 . S
C409 C410 1.347 . S
C410 H402 0.951 . S
C410 C405 1.429 . S
C410 C409 1.347 . S
H411 C412 0.951 . S
C412 H411 0.951 . S
C412 C418 1.265 . S
H413 C418 0.950 . S
H414 C422 0.949 . S
H415 C423 0.950 . S
H416 C424 0.951 . S
H417 C425 0.951 . S
C418 C412 1.265 . S
C418 H413 0.950 . S
C418 C419 1.478 . S
C419 C406 1.394 . S
C419 C418 1.478 . S
C419 C420 1.397 . S
C420 C419 1.397 . S
C420 C421 1.438 . S
C420 C425 1.429 . S
C421 C404 1.394 . S
C421 C420 1.438 . S
C421 C422 1.428 . S
C422 H414 0.949 . S
C422 C421 1.428 . S
C422 C423 1.345 . S
C423 H415 0.950 . S
C423 C422 1.345 . S
C423 C424 1.424 . S
C424 H416 0.951 . S
C424 C423 1.424 . S
C424 C425 1.347 . S
C425 H417 0.951 . S
C425 C420 1.429 . S
C425 C424 1.347 . S
H426 C427 0.951 . S
C427 H426 0.951 . S
C427 C433 1.265 . S
H428 C433 0.950 . S
H429 C437 0.949 . S
H430 C438 0.950 . S
H431 C439 0.951 . S
H432 C440 0.951 . S
C433 C427 1.265 . S
C433 H428 0.950 . S
C433 C434 1.478 . S
C434 C433 1.478 . S
C434 C435 1.397 . S
C434 C451 1.394 . S
C435 C434 1.397 . S
C435 C436 1.438 . S
C435 C440 1.429 . S
C436 C435 1.438 . S
C436 C437 1.428 . S
C436 C449 1.394 . S
C437 H429 0.949 . S
C437 C436 1.428 . S
C437 C438 1.345 . S
C438 H430 0.950 . S
C438 C437 1.345 . S
C438 C439 1.424 . S
C439 H431 0.951 . S
C439 C438 1.424 . S
C439 C440 1.347 . S
C440 H432 0.951 . S
C440 C435 1.429 . S
C440 C439 1.347 . S
H441 C442 0.951 . S
C442 H441 0.951 . S
C442 C448 1.265 . S
H443 C448 0.950 . S
H444 C452 0.949 . S
H445 C453 0.950 . S
H446 C454 0.951 . S
H447 C455 0.951 . S
C448 C442 1.265 . S
C448 H443 0.950 . S
C448 C449 1.478 . S
C449 C436 1.394 . S
C449 C448 1.478 . S
C449 C450 1.397 . S
C450 C449 1.397 . S
C450 C451 1.438 . S
C450 C455 1.429 . S
C451 C434 1.394 . S
C451 C450 1.438 . S
C451 C452 1.428 . S
C452 H444 0.949 . S
C452 C451 1.428 . S
C452 C453 1.345 . S
C453 H445 0.950 . S
C453 C452 1.345 . S
C453 C454 1.424 . S
C454 H446 0.951 . S
C454 C453 1.424 . S
C454 C455 1.347 . S
C455 H447 0.951 . S
C455 C450 1.429 . S
C455 C454 1.347 . S
H456 C457 0.951 . S
C457 H456 0.951 . S
C457 C463 1.265 . S
H458 C463 0.950 . S
H459 C467 0.949 . S
H460 C468 0.950 . S
H461 C469 0.951 . S
H462 C470 0.951 . S
C463 C457 1.265 . S
C463 H458 0.950 . S
C463 C464 1.478 . S
C464 C463 1.478 . S
C464 C465 1.397 . S
C464 C481 1.394 . S
C465 C464 1.397 . S
C465 C466 1.438 . S
C465 C470 1.429 . S
C466 C465 1.438 . S
C466 C467 1.428 . S
C466 C479 1.394 . S
C467 H459 0.949 . S
C467 C466 1.428 . S
C467 C468 1.345 . S
C468 H460 0.950 . S
C468 C467 1.345 . S
C468 C469 1.424 . S
C469 H461 0.951 . S
C469 C468 1.424 . S
C469 C470 1.347 . S
C470 H462 0.951 . S
C470 C465 1.429 . S
C470 C469 1.347 . S
H471 C472 0.951 . S
C472 H471 0.951 . S
C472 C478 1.265 . S
H473 C478 0.950 . S
H474 C482 0.949 . S
H475 C483 0.950 . S
H476 C484 0.951 . S
H477 C485 0.951 . S
C478 C472 1.265 . S
C478 H473 0.950 . S
C478 C479 1.478 . S
C479 C466 1.394 . S
C479 C478 1.478 . S
C479 C480 1.397 . S
C480 C479 1.397 . S
C480 C481 1.438 . S
C480 C485 1.429 . S
C481 C464 1.394 . S
C481 C480 1.438 . S
C481 C482 1.428 . S
C482 H474 0.949 . S
C482 C481 1.428 . S
C482 C483 1.345 . S
C483 H475 0.950 . S
C483 C482 1.345 . S
C483 C484 1.424 . S
C484 H476 0.951 . S
C484 C483 1.424 . S
C484 C485 1.347 . S
C485 H477 0.951 . S
C485 C480 1.429 . S
C485 C484 1.347 . S
H486 C487 0.951 . S
C487 H486 0.951 . S
C487 C493 1.265 . S
H488 C493 0.950 . S
H489 C497 0.949 . S
H490 C498 0.950 . S
H491 C499 0.951 . S
H492 C500 0.951 . S
C493 C487 1.265 . S
C493 H488 0.950 . S
C493 C494 1.478 . S
C494 C493 1.478 . S
C494 C495 1.397 . S
C494 C511 1.394 . S
C495 C494 1.397 . S
C495 C496 1.413 1_554 S
C495 C500 1.429 . S
C496 C495 1.413 1_556 S
C496 C497 1.444 . S
C496 C509 1.402 . S
C497 H489 0.949 . S
C497 C496 1.444 . S
C497 C498 1.345 . S
C498 H490 0.950 . S
C498 C497 1.345 . S
C498 C499 1.424 1_556 S
C499 H491 0.951 . S
C499 C498 1.424 1_554 S
C499 C500 1.347 . S
C500 H492 0.951 . S
C500 C495 1.429 . S
C500 C499 1.347 . S
H501 C502 0.951 . S
C502 H501 0.951 . S
C502 C508 1.265 . S
H503 C508 0.950 1_655 S
H504 C512 0.949 . S
H505 C513 0.950 . S
H506 C514 0.951 . S
H507 C515 0.907 1_556 S
C508 C502 1.265 . S
C508 H503 0.950 1_455 S
C508 C509 1.478 . S
C509 C496 1.402 . S
C509 C508 1.478 . S
C509 C510 1.397 1_556 S
C510 C509 1.397 1_554 S
C510 C511 1.438 . S
C510 C515 1.442 . S
C511 C494 1.394 . S
C511 C510 1.438 . S
C511 C512 1.428 . S
C512 H504 0.949 . S
C512 C511 1.428 . S
C512 C513 1.345 . S
C513 H505 0.950 . S
C513 C512 1.345 . S
C513 C514 1.424 . S
C514 H506 0.951 . S
C514 C513 1.424 . S
C514 C515 1.377 . S
C515 H507 0.907 1_554 S
C515 C510 1.442 . S
C515 C514 1.377 . S
H516 C517 0.951 . S
C517 H516 0.951 . S
C517 C523 1.265 . S
H518 C523 0.950 1_565 S
H519 C527 0.949 . S
H520 C528 0.950 . S
H521 C529 0.951 . S
H522 C530 0.951 . S
C523 C517 1.265 . S
C523 H518 0.950 1_545 S
C523 C524 1.478 . S
C524 C523 1.478 . S
C524 C525 1.397 1_545 S
C524 C541 1.394 . S
C525 C524 1.397 1_565 S
C525 C526 1.438 . S
C525 C530 1.429 . S
C526 C525 1.438 . S
C526 C527 1.428 . S
C526 C539 1.394 1_565 S
C527 H519 0.949 . S
C527 C526 1.428 . S
C527 C528 1.345 . S
C528 H520 0.950 . S
C528 C527 1.345 . S
C528 C529 1.424 . S
C529 H521 0.951 . S
C529 C528 1.424 . S
C529 C530 1.347 . S
C530 H522 0.951 . S
C530 C525 1.429 . S
C530 C529 1.347 . S
H531 C532 0.951 . S
C532 H531 0.951 . S
C532 C538 1.265 1_565 S
H533 C538 0.950 . S
H534 C542 0.949 . S
H535 C543 0.950 . S
H536 C544 0.951 . S
H537 C545 0.951 . S
C538 C532 1.265 1_545 S
C538 H533 0.950 . S
C538 C539 1.478 . S
C539 C526 1.394 1_545 S
C539 C538 1.478 . S
C539 C540 1.397 . S
C540 C539 1.397 . S
C540 C541 1.438 . S
C540 C545 1.429 . S
C541 C524 1.394 . S
C541 C540 1.438 . S
C541 C542 1.428 . S
C542 H534 0.949 . S
C542 C541 1.428 . S
C542 C543 1.345 . S
C543 H535 0.950 . S
C543 C542 1.345 . S
C543 C544 1.424 . S
C544 H536 0.951 . S
C544 C543 1.424 . S
C544 C545 1.347 . S
C545 H537 0.951 . S
C545 C540 1.429 . S
C545 C544 1.347 . S
H546 C547 0.951 . S
C547 H546 0.951 . S
C547 C553 1.265 . S
H548 C553 0.950 . S
H549 C557 0.949 . S
H550 C558 0.950 . S
H551 C559 0.951 . S
H552 C560 0.951 . S
C553 C547 1.265 . S
C553 H548 0.950 . S
C553 C554 1.478 . S
C554 C553 1.478 . S
C554 C555 1.397 . S
C554 C571 1.394 . S
C555 C554 1.397 . S
C555 C556 1.438 . S
C555 C560 1.429 . S
C556 C555 1.438 . S
C556 C557 1.428 . S
C556 C569 1.394 . S
C557 H549 0.949 . S
C557 C556 1.428 . S
C557 C558 1.345 . S
C558 H550 0.950 . S
C558 C557 1.345 . S
C558 C559 1.424 . S
C559 H551 0.951 . S
C559 C558 1.424 . S
C559 C560 1.347 . S
C560 H552 0.951 . S
C560 C555 1.429 . S
C560 C559 1.347 . S
H561 C562 0.951 . S
C562 H561 0.951 . S
C562 C568 1.265 . S
H563 C568 0.950 . S
H564 C572 0.949 . S
H565 C573 0.950 . S
H566 C574 0.951 . S
H567 C575 0.951 . S
C568 C562 1.265 . S
C568 H563 0.950 . S
C568 C569 1.478 . S
C569 C556 1.394 . S
C569 C568 1.478 . S
C569 C570 1.397 . S
C570 C569 1.397 . S
C570 C571 1.438 . S
C570 C575 1.429 . S
C571 C554 1.394 . S
C571 C570 1.438 . S
C571 C572 1.428 . S
C572 H564 0.949 . S
C572 C571 1.428 . S
C572 C573 1.345 . S
C573 H565 0.950 . S
C573 C572 1.345 . S
C573 C574 1.424 . S
C574 H566 0.951 . S
C574 C573 1.424 . S
C574 C575 1.347 . S
C575 H567 0.951 . S
C575 C570 1.429 . S
C575 C574 1.347 . S
H576 C577 0.951 . S
C577 H576 0.951 . S
C577 C583 1.265 . S
H578 C583 0.950 . S
H579 C587 0.949 . S
H580 C588 0.950 . S
H581 C589 0.951 . S
H582 C590 0.951 . S
C583 C577 1.265 . S
C583 H578 0.950 . S
C583 C584 1.478 . S
C584 C583 1.478 . S
C584 C585 1.397 . S
C584 C601 1.394 1_545 S
C585 C584 1.397 . S
C585 C586 1.438 . S
C585 C590 1.429 . S
C586 C585 1.438 . S
C586 C587 1.428 . S
C586 C599 1.394 . S
C587 H579 0.949 . S
C587 C586 1.428 . S
C587 C588 1.345 . S
C588 H580 0.950 . S
C588 C587 1.345 . S
C588 C589 1.424 . S
C589 H581 0.951 . S
C589 C588 1.424 . S
C589 C590 1.347 . S
C590 H582 0.951 . S
C590 C585 1.429 . S
C590 C589 1.347 . S
H591 C592 0.951 . S
C592 H591 0.951 . S
C592 C598 1.265 . S
H593 C598 0.950 . S
H594 C602 0.949 . S
H595 C603 0.950 . S
H596 C604 0.951 . S
H597 C605 0.951 . S
C598 C592 1.265 . S
C598 H593 0.950 . S
C598 C599 1.478 . S
C599 C586 1.394 . S
C599 C598 1.478 . S
C599 C600 1.397 1_545 S
C600 C599 1.397 1_565 S
C600 C601 1.438 . S
C600 C605 1.429 . S
C601 C584 1.394 1_565 S
C601 C600 1.438 . S
C601 C602 1.428 . S
C602 H594 0.949 . S
C602 C601 1.428 . S
C602 C603 1.345 . S
C603 H595 0.950 . S
C603 C602 1.345 . S
C603 C604 1.424 . S
C604 H596 0.951 . S
C604 C603 1.424 . S
C604 C605 1.347 . S
C605 H597 0.951 . S
C605 C600 1.429 . S
C605 C604 1.347 . S
H606 C607 0.951 . S
C607 H606 0.951 . S
C607 C613 1.265 . S
H608 C613 0.950 . S
H609 C617 0.949 . S
H610 C618 0.950 . S
H611 C619 0.951 . S
H612 C620 0.951 . S
C613 C607 1.265 . S
C613 H608 0.950 . S
C613 C614 1.478 . S
C614 C613 1.478 . S
C614 C615 1.397 . S
C614 C631 1.394 . S
C615 C614 1.397 . S
C615 C616 1.438 1_556 S
C615 C620 1.429 . S
C616 C615 1.438 1_554 S
C616 C617 1.428 . S
C616 C629 1.394 . S
C617 H609 0.949 . S
C617 C616 1.428 . S
C617 C618 1.345 . S
C618 H610 0.950 . S
C618 C617 1.345 . S
C618 C619 1.424 1_554 S
C619 H611 0.951 . S
C619 C618 1.424 1_556 S
C619 C620 1.347 . S
C620 H612 0.951 . S
C620 C615 1.429 . S
C620 C619 1.347 . S
H621 C622 0.951 . S
C622 H621 0.951 . S
C622 C628 1.265 . S
H623 C628 0.950 . S
H624 C632 0.949 . S
H625 C633 0.950 . S
H626 C634 0.951 . S
H627 C635 0.933 1_554 S
C628 C622 1.265 . S
C628 H623 0.950 . S
C628 C629 1.478 . S
C629 C616 1.394 . S
C629 C628 1.478 . S
C629 C630 1.397 1_554 S
C630 C629 1.397 1_556 S
C630 C631 1.438 . S
C630 C635 1.434 . S
C631 C614 1.394 . S
C631 C630 1.438 . S
C631 C632 1.428 . S
C632 H624 0.949 . S
C632 C631 1.428 . S
C632 C633 1.345 . S
C633 H625 0.950 . S
C633 C632 1.345 . S
C633 C634 1.424 . S
C634 H626 0.951 . S
C634 C633 1.424 . S
C634 C635 1.360 . S
C635 H627 0.933 1_556 S
C635 C630 1.434 . S
C635 C634 1.360 . S
H636 C637 0.951 . S
C637 H636 0.951 . S
C637 C643 1.265 1_455 S
H638 C643 0.950 . S
H639 C647 0.949 . S
H640 C648 0.950 . S
H641 C649 0.951 . S
H642 C650 0.951 . S
C643 C637 1.265 1_655 S
C643 H638 0.950 . S
C643 C644 1.478 1_655 S
C644 C643 1.478 1_455 S
C644 C645 1.397 1_455 S
C644 C661 1.394 . S
C645 C644 1.397 1_655 S
C645 C646 1.438 . S
C645 C650 1.429 . S
C646 C645 1.438 . S
C646 C647 1.428 . S
C646 C659 1.394 1_655 S
C647 H639 0.949 . S
C647 C646 1.428 . S
C647 C648 1.345 . S
C648 H640 0.950 . S
C648 C647 1.345 . S
C648 C649 1.424 . S
C649 H641 0.951 . S
C649 C648 1.424 . S
C649 C650 1.347 . S
C650 H642 0.951 . S
C650 C645 1.429 . S
C650 C649 1.347 . S
H651 C652 0.951 . S
C652 H651 0.951 . S
C652 C658 1.265 1_655 S
H653 C658 0.950 . S
H654 C662 0.949 . S
H655 C663 0.950 . S
H656 C664 0.951 . S
H657 C665 0.951 . S
C658 C652 1.265 1_455 S
C658 H653 0.950 . S
C658 C659 1.478 . S
C659 C646 1.394 1_455 S
C659 C658 1.478 . S
C659 C660 1.397 . S
C660 C659 1.397 . S
C660 C661 1.438 . S
C660 C665 1.429 . S
C661 C644 1.394 . S
C661 C660 1.438 . S
C661 C662 1.428 . S
C662 H654 0.949 . S
C662 C661 1.428 . S
C662 C663 1.345 . S
C663 H655 0.950 . S
C663 C662 1.345 . S
C663 C664 1.424 . S
C664 H656 0.951 . S
C664 C663 1.424 . S
C664 C665 1.347 . S
C665 H657 0.951 . S
C665 C660 1.429 . S
C665 C664 1.347 . S
C127 C2 1.179 . S
C142 C120 0.933 . S
C157 C21 1.078 . S
C172 C98 0.929 . S
C187 C42 0.979 . S
C202 C112 0.901 . S
C217 C1 0.849 . S
C232 C123 0.860 . S
C262 C101 0.886 . S
C247 C22 0.974 . S
C292 C109 0.921 . S
C277 C41 1.077 . S
C307 C38 2.000 . S
C322 C76 1.668 . S
C337 C59 2.079 . S
C352 C87 1.782 . S
C367 C18 1.992 . S
C382 C65 1.676 . S
C412 C79 1.726 . S
C397 C39 1.800 . S
C442 C90 1.671 . S
C427 C58 1.729 . S
C457 C19 1.796 . S
C472 C68 1.763 . S
C502 C89 1.451 . S
C487 C9 1.458 . S
C517 C29 1.553 . S
C532 C67 1.461 . S
C547 C49 1.518 . S
C562 C78 1.494 . S
C592 C111 1.337 . S
C577 C28 1.379 . S
C622 C122 1.338 . S
C607 C48 1.406 . S
C637 C8 1.377 . S
C652 C100 1.377 1_655 S
