# Generated by pormake.
# Topology iac, (4,6)-cn, num edge types: 1
# Building blocks:
#     Node 0, Type 0, BuildingBlock: NAHDIM_clean_sbu_0, # of connection points: 4
#     Node 1, Type 0, BuildingBlock: NAHDIM_clean_sbu_0, # of connection points: 4
#     Node 2, Type 0, BuildingBlock: NAHDIM_clean_sbu_0, # of connection points: 4
#     Node 3, Type 0, BuildingBlock: NAHDIM_clean_sbu_0, # of connection points: 4
#     Node 4, Type 0, BuildingBlock: NAHDIM_clean_sbu_0, # of connection points: 4
#     Node 5, Type 0, BuildingBlock: NAHDIM_clean_sbu_0, # of connection points: 4
#     Node 6, Type 0, BuildingBlock: NAHDIM_clean_sbu_0, # of connection points: 4
#     Node 7, Type 0, BuildingBlock: NAHDIM_clean_sbu_0, # of connection points: 4
#     Node 8, Type 0, BuildingBlock: NAHDIM_clean_sbu_0, # of connection points: 4
#     Node 9, Type 0, BuildingBlock: NAHDIM_clean_sbu_0, # of connection points: 4
#     Node 10, Type 0, BuildingBlock: NAHDIM_clean_sbu_0, # of connection points: 4
#     Node 11, Type 0, BuildingBlock: NAHDIM_clean_sbu_0, # of connection points: 4
#     Node 12, Type 0, BuildingBlock: NAHDIM_clean_sbu_0, # of connection points: 4
#     Node 13, Type 0, BuildingBlock: NAHDIM_clean_sbu_0, # of connection points: 4
#     Node 14, Type 0, BuildingBlock: NAHDIM_clean_sbu_0, # of connection points: 4
#     Node 15, Type 0, BuildingBlock: NAHDIM_clean_sbu_0, # of connection points: 4
#     Node 16, Type 0, BuildingBlock: NAHDIM_clean_sbu_0, # of connection points: 4
#     Node 17, Type 0, BuildingBlock: NAHDIM_clean_sbu_0, # of connection points: 4
#     Node 18, Type 0, BuildingBlock: NAHDIM_clean_sbu_0, # of connection points: 4
#     Node 19, Type 0, BuildingBlock: NAHDIM_clean_sbu_0, # of connection points: 4
#     Node 20, Type 0, BuildingBlock: NAHDIM_clean_sbu_0, # of connection points: 4
#     Node 21, Type 0, BuildingBlock: NAHDIM_clean_sbu_0, # of connection points: 4
#     Node 22, Type 0, BuildingBlock: NAHDIM_clean_sbu_0, # of connection points: 4
#     Node 23, Type 0, BuildingBlock: NAHDIM_clean_sbu_0, # of connection points: 4
#     Node 24, Type 1, BuildingBlock: JUFBIX_clean_sbu_0, # of connection points: 6
#     Node 25, Type 1, BuildingBlock: JUFBIX_clean_sbu_0, # of connection points: 6
#     Node 26, Type 1, BuildingBlock: JUFBIX_clean_sbu_0, # of connection points: 6
#     Node 27, Type 1, BuildingBlock: JUFBIX_clean_sbu_0, # of connection points: 6
#     Node 28, Type 1, BuildingBlock: JUFBIX_clean_sbu_0, # of connection points: 6
#     Node 29, Type 1, BuildingBlock: JUFBIX_clean_sbu_0, # of connection points: 6
#     Node 30, Type 1, BuildingBlock: JUFBIX_clean_sbu_0, # of connection points: 6
#     Node 31, Type 1, BuildingBlock: JUFBIX_clean_sbu_0, # of connection points: 6
#     Node 32, Type 1, BuildingBlock: JUFBIX_clean_sbu_0, # of connection points: 6
#     Node 33, Type 1, BuildingBlock: JUFBIX_clean_sbu_0, # of connection points: 6
#     Node 34, Type 1, BuildingBlock: JUFBIX_clean_sbu_0, # of connection points: 6
#     Node 35, Type 1, BuildingBlock: JUFBIX_clean_sbu_0, # of connection points: 6
#     Node 36, Type 1, BuildingBlock: JUFBIX_clean_sbu_0, # of connection points: 6
#     Node 37, Type 1, BuildingBlock: JUFBIX_clean_sbu_0, # of connection points: 6
#     Node 38, Type 1, BuildingBlock: JUFBIX_clean_sbu_0, # of connection points: 6
#     Node 39, Type 1, BuildingBlock: JUFBIX_clean_sbu_0, # of connection points: 6
#     Edge 40, Type (0, 1), BuildingBlock: EZIPEK_clean_linker_0, # of connection points: 2
#     Edge 41, Type (0, 1), BuildingBlock: EZIPEK_clean_linker_0, # of connection points: 2
#     Edge 42, Type (0, 1), BuildingBlock: EZIPEK_clean_linker_0, # of connection points: 2
#     Edge 43, Type (0, 1), BuildingBlock: EZIPEK_clean_linker_0, # of connection points: 2
#     Edge 44, Type (0, 1), BuildingBlock: EZIPEK_clean_linker_0, # of connection points: 2
#     Edge 45, Type (0, 1), BuildingBlock: EZIPEK_clean_linker_0, # of connection points: 2
#     Edge 46, Type (0, 1), BuildingBlock: EZIPEK_clean_linker_0, # of connection points: 2
#     Edge 47, Type (0, 1), BuildingBlock: EZIPEK_clean_linker_0, # of connection points: 2
#     Edge 48, Type (0, 1), BuildingBlock: EZIPEK_clean_linker_0, # of connection points: 2
#     Edge 49, Type (0, 1), BuildingBlock: EZIPEK_clean_linker_0, # of connection points: 2
#     Edge 50, Type (0, 1), BuildingBlock: EZIPEK_clean_linker_0, # of connection points: 2
#     Edge 51, Type (0, 1), BuildingBlock: EZIPEK_clean_linker_0, # of connection points: 2
#     Edge 52, Type (0, 1), BuildingBlock: EZIPEK_clean_linker_0, # of connection points: 2
#     Edge 53, Type (0, 1), BuildingBlock: EZIPEK_clean_linker_0, # of connection points: 2
#     Edge 54, Type (0, 1), BuildingBlock: EZIPEK_clean_linker_0, # of connection points: 2
#     Edge 55, Type (0, 1), BuildingBlock: EZIPEK_clean_linker_0, # of connection points: 2
#     Edge 56, Type (0, 1), BuildingBlock: EZIPEK_clean_linker_0, # of connection points: 2
#     Edge 57, Type (0, 1), BuildingBlock: EZIPEK_clean_linker_0, # of connection points: 2
#     Edge 58, Type (0, 1), BuildingBlock: EZIPEK_clean_linker_0, # of connection points: 2
#     Edge 59, Type (0, 1), BuildingBlock: EZIPEK_clean_linker_0, # of connection points: 2
#     Edge 60, Type (0, 1), BuildingBlock: EZIPEK_clean_linker_0, # of connection points: 2
#     Edge 61, Type (0, 1), BuildingBlock: EZIPEK_clean_linker_0, # of connection points: 2
#     Edge 62, Type (0, 1), BuildingBlock: EZIPEK_clean_linker_0, # of connection points: 2
#     Edge 63, Type (0, 1), BuildingBlock: EZIPEK_clean_linker_0, # of connection points: 2
#     Edge 64, Type (0, 1), BuildingBlock: EZIPEK_clean_linker_0, # of connection points: 2
#     Edge 65, Type (0, 1), BuildingBlock: EZIPEK_clean_linker_0, # of connection points: 2
#     Edge 66, Type (0, 1), BuildingBlock: EZIPEK_clean_linker_0, # of connection points: 2
#     Edge 67, Type (0, 1), BuildingBlock: EZIPEK_clean_linker_0, # of connection points: 2
#     Edge 68, Type (0, 1), BuildingBlock: EZIPEK_clean_linker_0, # of connection points: 2
#     Edge 69, Type (0, 1), BuildingBlock: EZIPEK_clean_linker_0, # of connection points: 2
#     Edge 70, Type (0, 1), BuildingBlock: EZIPEK_clean_linker_0, # of connection points: 2
#     Edge 71, Type (0, 1), BuildingBlock: EZIPEK_clean_linker_0, # of connection points: 2
#     Edge 72, Type (0, 1), BuildingBlock: EZIPEK_clean_linker_0, # of connection points: 2
#     Edge 73, Type (0, 1), BuildingBlock: EZIPEK_clean_linker_0, # of connection points: 2
#     Edge 74, Type (0, 1), BuildingBlock: EZIPEK_clean_linker_0, # of connection points: 2
#     Edge 75, Type (0, 1), BuildingBlock: EZIPEK_clean_linker_0, # of connection points: 2
#     Edge 76, Type (0, 1), BuildingBlock: EZIPEK_clean_linker_0, # of connection points: 2
#     Edge 77, Type (0, 1), BuildingBlock: EZIPEK_clean_linker_0, # of connection points: 2
#     Edge 78, Type (0, 1), BuildingBlock: EZIPEK_clean_linker_0, # of connection points: 2
#     Edge 79, Type (0, 1), BuildingBlock: EZIPEK_clean_linker_0, # of connection points: 2
#     Edge 80, Type (0, 1), BuildingBlock: EZIPEK_clean_linker_0, # of connection points: 2
#     Edge 81, Type (0, 1), BuildingBlock: EZIPEK_clean_linker_0, # of connection points: 2
#     Edge 82, Type (0, 1), BuildingBlock: EZIPEK_clean_linker_0, # of connection points: 2
#     Edge 83, Type (0, 1), BuildingBlock: EZIPEK_clean_linker_0, # of connection points: 2
#     Edge 84, Type (0, 1), BuildingBlock: EZIPEK_clean_linker_0, # of connection points: 2
#     Edge 85, Type (0, 1), BuildingBlock: EZIPEK_clean_linker_0, # of connection points: 2
#     Edge 86, Type (0, 1), BuildingBlock: EZIPEK_clean_linker_0, # of connection points: 2
#     Edge 87, Type (0, 1), BuildingBlock: EZIPEK_clean_linker_0, # of connection points: 2
#     Edge 88, Type (0, 1), BuildingBlock: EZIPEK_clean_linker_0, # of connection points: 2
#     Edge 89, Type (0, 1), BuildingBlock: EZIPEK_clean_linker_0, # of connection points: 2
#     Edge 90, Type (0, 1), BuildingBlock: EZIPEK_clean_linker_0, # of connection points: 2
#     Edge 91, Type (0, 1), BuildingBlock: EZIPEK_clean_linker_0, # of connection points: 2
#     Edge 92, Type (0, 1), BuildingBlock: EZIPEK_clean_linker_0, # of connection points: 2
#     Edge 93, Type (0, 1), BuildingBlock: EZIPEK_clean_linker_0, # of connection points: 2
#     Edge 94, Type (0, 1), BuildingBlock: EZIPEK_clean_linker_0, # of connection points: 2
#     Edge 95, Type (0, 1), BuildingBlock: EZIPEK_clean_linker_0, # of connection points: 2
#     Edge 96, Type (0, 1), BuildingBlock: EZIPEK_clean_linker_0, # of connection points: 2
#     Edge 97, Type (0, 1), BuildingBlock: EZIPEK_clean_linker_0, # of connection points: 2
#     Edge 98, Type (0, 1), BuildingBlock: EZIPEK_clean_linker_0, # of connection points: 2
#     Edge 99, Type (0, 1), BuildingBlock: EZIPEK_clean_linker_0, # of connection points: 2
#     Edge 100, Type (0, 1), BuildingBlock: EZIPEK_clean_linker_0, # of connection points: 2
#     Edge 101, Type (0, 1), BuildingBlock: EZIPEK_clean_linker_0, # of connection points: 2
#     Edge 102, Type (0, 1), BuildingBlock: EZIPEK_clean_linker_0, # of connection points: 2
#     Edge 103, Type (0, 1), BuildingBlock: EZIPEK_clean_linker_0, # of connection points: 2
#     Edge 104, Type (0, 1), BuildingBlock: EZIPEK_clean_linker_0, # of connection points: 2
#     Edge 105, Type (0, 1), BuildingBlock: EZIPEK_clean_linker_0, # of connection points: 2
#     Edge 106, Type (0, 1), BuildingBlock: EZIPEK_clean_linker_0, # of connection points: 2
#     Edge 107, Type (0, 1), BuildingBlock: EZIPEK_clean_linker_0, # of connection points: 2
#     Edge 108, Type (0, 1), BuildingBlock: EZIPEK_clean_linker_0, # of connection points: 2
#     Edge 109, Type (0, 1), BuildingBlock: EZIPEK_clean_linker_0, # of connection points: 2
#     Edge 110, Type (0, 1), BuildingBlock: EZIPEK_clean_linker_0, # of connection points: 2
#     Edge 111, Type (0, 1), BuildingBlock: EZIPEK_clean_linker_0, # of connection points: 2
#     Edge 112, Type (0, 1), BuildingBlock: EZIPEK_clean_linker_0, # of connection points: 2
#     Edge 113, Type (0, 1), BuildingBlock: EZIPEK_clean_linker_0, # of connection points: 2
#     Edge 114, Type (0, 1), BuildingBlock: EZIPEK_clean_linker_0, # of connection points: 2
#     Edge 115, Type (0, 1), BuildingBlock: EZIPEK_clean_linker_0, # of connection points: 2
#     Edge 116, Type (0, 1), BuildingBlock: EZIPEK_clean_linker_0, # of connection points: 2
#     Edge 117, Type (0, 1), BuildingBlock: EZIPEK_clean_linker_0, # of connection points: 2
#     Edge 118, Type (0, 1), BuildingBlock: EZIPEK_clean_linker_0, # of connection points: 2
#     Edge 119, Type (0, 1), BuildingBlock: EZIPEK_clean_linker_0, # of connection points: 2
#     Edge 120, Type (0, 1), BuildingBlock: EZIPEK_clean_linker_0, # of connection points: 2
#     Edge 121, Type (0, 1), BuildingBlock: EZIPEK_clean_linker_0, # of connection points: 2
#     Edge 122, Type (0, 1), BuildingBlock: EZIPEK_clean_linker_0, # of connection points: 2
#     Edge 123, Type (0, 1), BuildingBlock: EZIPEK_clean_linker_0, # of connection points: 2
#     Edge 124, Type (0, 1), BuildingBlock: EZIPEK_clean_linker_0, # of connection points: 2
#     Edge 125, Type (0, 1), BuildingBlock: EZIPEK_clean_linker_0, # of connection points: 2
#     Edge 126, Type (0, 1), BuildingBlock: EZIPEK_clean_linker_0, # of connection points: 2
#     Edge 127, Type (0, 1), BuildingBlock: EZIPEK_clean_linker_0, # of connection points: 2
#     Edge 128, Type (0, 1), BuildingBlock: EZIPEK_clean_linker_0, # of connection points: 2
#     Edge 129, Type (0, 1), BuildingBlock: EZIPEK_clean_linker_0, # of connection points: 2
#     Edge 130, Type (0, 1), BuildingBlock: EZIPEK_clean_linker_0, # of connection points: 2
#     Edge 131, Type (0, 1), BuildingBlock: EZIPEK_clean_linker_0, # of connection points: 2
#     Edge 132, Type (0, 1), BuildingBlock: EZIPEK_clean_linker_0, # of connection points: 2
#     Edge 133, Type (0, 1), BuildingBlock: EZIPEK_clean_linker_0, # of connection points: 2
#     Edge 134, Type (0, 1), BuildingBlock: EZIPEK_clean_linker_0, # of connection points: 2
#     Edge 135, Type (0, 1), BuildingBlock: EZIPEK_clean_linker_0, # of connection points: 2
# Relax obj value: 0.273
# Max RMSD: 0.247
# Mean RMSD: 0.156
data_MOF--net-iac--node1-NAHDIM_clean_sbu_0--node2-JUFBIX_clean_sbu_0--edge1-EZIPEK_clean_linker_0
_symmetry_space_group_name_H-M    P1
_symmetry_Int_Tables_number       1
_symmetry_cell_setting            triclinic
loop_
_symmetry_equiv_pos_as_xyz
'x, y, z'
_cell_length_a     41.230844
_cell_length_b     41.590948
_cell_length_c     40.248356
_cell_angle_alpha  88.839333
_cell_angle_beta   88.285266
_cell_angle_gamma 88.868953
loop_
_atom_site_label
_atom_site_type_symbol
_atom_site_fract_x
_atom_site_fract_y
_atom_site_fract_z
_atom_type_partial_charge
C0 C 0.96918 0.27544 0.19205 0.0
O1 O 0.97593 0.24565 0.18363 0.0
O2 O 0.03498 0.24158 0.13965 0.0
Zn3 Zn 0.03558 0.29013 0.1596 0.0
O4 O 0.03859 0.33049 0.12493 0.0
C5 C 0.10412 0.28366 0.18794 0.0
O6 O 0.11044 0.2673 0.16085 0.0
O7 O 0.99026 0.29713 0.18537 0.0
C8 C 0.03821 0.35946 0.13585 0.0
O9 O 0.03647 0.36323 0.16819 0.0
C10 C 0.03263 0.23041 0.11016 0.0
O11 O 0.03115 0.25093 0.08499 0.0
O12 O 0.07508 0.29473 0.19294 0.0
C13 C 0.1331 0.74876 0.39143 0.0
O14 O 0.12357 0.72269 0.40746 0.0
O15 O 0.05865 0.72482 0.41615 0.0
Zn16 Zn 0.06772 0.77048 0.40476 0.0
O17 O 0.05696 0.79801 0.44414 0.0
C18 C 0.00894 0.77957 0.37381 0.0
O19 O 0.99969 0.76412 0.40111 0.0
O20 O 0.11398 0.77297 0.38871 0.0
C21 C 0.05547 0.82815 0.43911 0.0
O22 O 0.06483 0.8402 0.41006 0.0
C23 C 0.05649 0.71551 0.44628 0.0
O24 O 0.05801 0.73644 0.47015 0.0
O25 O 0.03874 0.78516 0.36837 0.0
C26 C 0.46667 0.77866 0.68161 0.0
O27 O 0.46408 0.76375 0.65339 0.0
O28 O 0.53332 0.7432 0.62993 0.0
Zn29 Zn 0.53676 0.78664 0.65865 0.0
O30 O 0.5383 0.83024 0.62817 0.0
C31 C 0.60586 0.79537 0.6861 0.0
O32 O 0.61271 0.8104 0.65782 0.0
O33 O 0.49417 0.79002 0.68889 0.0
C34 C 0.53125 0.85857 0.63901 0.0
O35 O 0.52296 0.86135 0.6706 0.0
C36 C 0.5379 0.71397 0.6404 0.0
O37 O 0.54667 0.70923 0.67125 0.0
O38 O 0.5773 0.78394 0.6909 0.0
C39 C 0.6299 0.29101 0.92073 0.0
O40 O 0.63134 0.28145 0.95194 0.0
O41 O 0.55938 0.24781 0.94887 0.0
Zn42 Zn 0.56119 0.29373 0.93386 0.0
O43 O 0.55545 0.32348 0.97203 0.0
C44 C 0.50291 0.28571 0.89656 0.0
O45 O 0.50324 0.25626 0.90893 0.0
O46 O 0.60288 0.29929 0.90863 0.0
C47 C 0.52937 0.32077 0.98938 0.0
O48 O 0.50961 0.29725 0.9837 0.0
C49 C 0.56942 0.2383 0.97696 0.0
O50 O 0.58046 0.25912 -0.00227 0.0
O51 O 0.52512 0.30495 0.90335 0.0
C52 C 0.1934 0.94174 0.33228 0.0
O53 O 0.16318 0.9367 0.34185 0.0
O54 O 0.15574 0.00738 0.2728 0.0
Zn55 Zn 0.17286 0.00711 0.31846 0.0
O56 O 0.13548 0.00868 0.35035 0.0
C57 C 0.21585 0.05735 0.30149 0.0
O58 O 0.221 0.04123 0.27405 0.0
O59 O 0.20225 0.96963 0.32334 0.0
C60 C 0.11466 0.03009 0.34217 0.0
O61 O 0.11904 0.0469 0.31448 0.0
C62 C 0.13313 0.98818 0.26726 0.0
O63 O 0.12285 0.96832 0.29085 0.0
O64 O 0.19678 0.04671 0.32414 0.0
C65 C 0.19081 0.92507 0.53619 0.0
O66 O 0.18803 0.90551 0.56209 0.0
O67 O 0.24621 0.8761 0.5774 0.0
Zn68 Zn 0.25605 0.89936 0.53397 0.0
O69 O 0.27363 0.86875 0.49902 0.0
C70 C 0.29144 0.95607 0.55625 0.0
O71 O 0.2659 0.96464 0.57449 0.0
O72 O 0.21724 0.92555 0.51917 0.0
C73 C 0.30416 0.86321 0.49753 0.0
O74 O 0.32302 0.87652 0.5188 0.0
C75 C 0.26957 0.86649 0.59507 0.0
O76 O 0.29952 0.8705 0.58412 0.0
O77 O 0.29139 0.93053 0.53961 0.0
C78 C 0.38357 0.13174 0.79944 0.0
O79 O 0.40459 0.13084 0.82334 0.0
O80 O 0.4253 0.06126 0.74055 0.0
Zn81 Zn 0.40407 0.06726 0.78464 0.0
O82 O 0.43785 0.06636 0.81813 0.0
C83 C 0.356 0.02215 0.77257 0.0
O84 O 0.35355 0.03821 0.74431 0.0
O85 O 0.37902 0.10719 0.78235 0.0
C86 C 0.46578 0.07818 0.81354 0.0
O87 O 0.47228 0.09631 0.78725 0.0
C88 C 0.43489 0.08579 0.72413 0.0
O89 O 0.43022 0.11466 0.73622 0.0
O90 O 0.37556 0.03098 0.79408 0.0
C91 C 0.35838 0.13716 0.02566 0.0
O92 O 0.3603 0.16448 0.00883 0.0
O93 O 0.28525 0.18207 0.08564 0.0
Zn94 Zn 0.28844 0.15894 0.03825 0.0
O95 O 0.29302 0.19173 0.99678 0.0
C96 C 0.21917 0.13182 0.04567 0.0
O97 O 0.21396 0.15531 0.06659 0.0
O98 O 0.33109 0.12963 0.03949 0.0
C99 C 0.27402 0.19359 0.97203 0.0
O100 O 0.2485 0.1752 0.97226 0.0
C101 C 0.30028 0.20711 0.09473 0.0
O102 O 0.31872 0.22224 0.07255 0.0
O103 O 0.24741 0.12891 0.03153 0.0
C104 C 0.70874 0.42964 0.03358 0.0
O105 O 0.70299 0.40234 0.04938 0.0
O106 O 0.75828 0.38721 0.08542 0.0
Zn107 Zn 0.77429 0.41115 0.045 0.0
O108 O 0.79408 0.38055 0.01229 0.0
C109 C 0.80961 0.46147 0.07946 0.0
O110 O 0.78582 0.46357 0.10175 0.0
O111 O 0.73776 0.43743 0.02644 0.0
C112 C 0.82434 0.37408 0.01292 0.0
O113 O 0.84236 0.38688 0.03533 0.0
C114 C 0.77593 0.36686 0.10071 0.0
O115 O 0.80587 0.36111 0.09023 0.0
O116 O 0.80868 0.44152 0.05612 0.0
C117 C 0.88965 0.61549 0.26851 0.0
O118 O 0.90795 0.61222 0.29454 0.0
O119 O 0.94745 0.55788 0.21307 0.0
Zn120 Zn 0.91402 0.55305 0.24793 0.0
O121 O 0.93781 0.54387 0.28865 0.0
C122 C 0.85794 0.51727 0.22927 0.0
O123 O 0.84783 0.54328 0.21335 0.0
O124 O 0.88828 0.59324 0.2477 0.0
C125 C 0.92414 0.53314 0.31502 0.0
O126 O 0.89237 0.53121 0.3171 0.0
C127 C 0.96813 0.57917 0.21866 0.0
O128 O 0.96623 0.59564 0.24615 0.0
O129 O 0.88549 0.51641 0.24242 0.0
C130 C 0.85008 0.63621 0.52348 0.0
O131 O 0.85546 0.66625 0.51464 0.0
O132 O 0.78167 0.68018 0.58225 0.0
Zn133 Zn 0.7805 0.65928 0.53359 0.0
O134 O 0.78271 0.69218 0.49208 0.0
C135 C 0.7127 0.62772 0.54557 0.0
O136 O 0.70954 0.6438 0.57326 0.0
O137 O 0.82108 0.62793 0.53136 0.0
C138 C 0.7869 0.68227 0.46216 0.0
O139 O 0.79118 0.65128 0.4576 0.0
C140 C 0.78782 0.70885 0.59144 0.0
O141 O 0.79308 0.73111 0.5684 0.0
O142 O 0.73866 0.63081 0.52745 0.0
C143 C 0.70608 0.47727 0.82735 0.0
O144 O 0.67869 0.47065 0.84293 0.0
O145 O 0.62692 0.5047 0.78715 0.0
Zn146 Zn 0.64412 0.50985 0.83247 0.0
O147 O 0.60816 0.51126 0.8666 0.0
C148 C 0.68591 0.5601 0.81039 0.0
O149 O 0.68983 0.54226 0.78397 0.0
O150 O 0.6785 0.47264 0.84177 0.0
C151 C 0.58255 0.52754 0.8605 0.0
O152 O 0.57914 0.54131 0.83117 0.0
C153 C 0.6009 0.48994 0.78219 0.0
O154 O 0.58503 0.47638 0.80732 0.0
O155 O 0.66699 0.5513 0.8341 0.0
C156 C 0.10244 0.79146 0.88426 0.0
O157 O 0.10685 0.79247 0.91641 0.0
O158 O 0.03498 0.74724 0.9322 0.0
Zn159 Zn 0.03257 0.79362 0.90679 0.0
O160 O 0.03855 0.83546 0.93754 0.0
C161 C 0.96311 0.78175 0.88009 0.0
O162 O 0.9601 0.76072 0.9047 0.0
O163 O 0.07333 0.79218 0.87394 0.0
C164 C 0.03433 0.86513 0.92828 0.0
O165 O 0.02411 0.87104 0.89813 0.0
C166 C 0.03317 0.73824 0.96298 0.0
O167 O 0.028 0.76027 0.98557 0.0
O168 O 0.98965 0.79754 0.87696 0.0
C169 C 0.96133 0.30173 0.69523 0.0
O170 O 0.9858 0.29674 0.71497 0.0
O171 O 0.01579 0.27065 0.60869 0.0
Zn172 Zn 0.01026 0.30329 0.64386 0.0
O173 O 0.01472 0.34713 0.62443 0.0
C174 C 0.07248 0.30231 0.67485 0.0
O175 O 0.08004 0.32372 0.6517 0.0
O176 O 0.9662 0.30318 0.66404 0.0
C177 C 0.01884 0.37159 0.64204 0.0
O178 O 0.02302 0.36801 0.67414 0.0
C179 C 0.0406 0.27319 0.58945 0.0
O180 O 0.05864 0.29874 0.59063 0.0
O181 O 0.04385 0.29177 0.67735 0.0
C182 C 0.60041 0.28667 0.38683 0.0
O183 O 0.6049 0.28186 0.41874 0.0
O184 O 0.53059 0.24564 0.43528 0.0
Zn185 Zn 0.53006 0.2915 0.40902 0.0
O186 O 0.53488 0.33309 0.43937 0.0
C187 C 0.461 0.28233 0.38225 0.0
O188 O 0.45628 0.263 0.40808 0.0
O189 O 0.57139 0.29101 0.37689 0.0
C190 C 0.52942 0.36234 0.42957 0.0
O191 O 0.51864 0.36732 0.39948 0.0
C192 C 0.51736 0.23618 0.46306 0.0
O193 O 0.50013 0.25703 0.48058 0.0
O194 O 0.48852 0.2961 0.37843 0.0
C195 C 0.45025 0.82894 0.1522 0.0
O196 O 0.45932 0.856 0.1378 0.0
O197 O 0.52218 0.77327 0.09723 0.0
Zn198 Zn 0.51385 0.80579 0.13243 0.0
O199 O 0.52139 0.84955 0.11368 0.0
C200 C 0.5746 0.79264 0.1595 0.0
O201 O 0.58364 0.80168 0.12924 0.0
O202 O 0.46883 0.80421 0.1516 0.0
C203 C 0.53141 0.87271 0.1303 0.0
O204 O 0.5396 0.86811 0.16133 0.0
C205 C 0.5346 0.78019 0.06879 0.0
O206 O 0.53869 0.81033 0.05958 0.0
O207 O 0.54477 0.79394 0.1681 0.0
C208 C 0.87778 0.13673 0.73933 0.0
O209 O 0.9072 0.14388 0.72863 0.0
O210 O 0.93492 0.07547 0.7063 0.0
Zn211 Zn 0.90467 0.0732 0.74581 0.0
O212 O 0.92996 0.07659 0.78633 0.0
C213 C 0.89792 0.00499 0.74669 0.0
O214 O 0.92958 0.00475 0.74935 0.0
O215 O 0.87091 0.10785 0.74659 0.0
C216 C 0.91972 0.06547 0.81412 0.0
O217 O 0.89189 0.05064 0.81652 0.0
C218 C 0.96464 0.06681 0.70785 0.0
O219 O 0.9768 0.05832 0.73656 0.0
O220 O 0.88219 0.03145 0.74557 0.0
C221 C 0.86758 0.16484 0.51292 0.0
O222 O 0.86519 0.18499 0.48761 0.0
O223 O 0.79569 0.22083 0.5676 0.0
Zn224 Zn 0.80397 0.18975 0.53072 0.0
O225 O 0.80472 0.21408 0.48724 0.0
C226 C 0.73977 0.16246 0.52284 0.0
O227 O 0.73385 0.18693 0.50268 0.0
O228 O 0.84532 0.16391 0.53541 0.0
C229 C 0.79944 0.2013 0.45961 0.0
O230 O 0.79222 0.17072 0.45863 0.0
C231 C 0.77205 0.24057 0.56388 0.0
O232 O 0.75653 0.24141 0.53592 0.0
O233 O 0.76751 0.15873 0.53532 0.0
C234 C 0.68553 0.94107 0.33247 0.0
O235 O 0.67062 0.94698 0.36102 0.0
O236 O 0.64106 0.01926 0.27761 0.0
Zn237 Zn 0.66717 0.0052 0.31645 0.0
O238 O 0.64037 0.00383 0.35841 0.0
C239 C 0.6921 0.06505 0.32652 0.0
O240 O 0.66059 0.0699 0.32799 0.0
O241 O 0.68663 0.96236 0.30948 0.0
C242 C 0.61332 0.01815 0.36303 0.0
O243 O 0.60136 0.03722 0.34001 0.0
C244 C 0.61225 0.01058 0.27299 0.0
O245 O 0.59865 0.98942 0.2934 0.0
O246 O 0.70236 0.03678 0.32066 0.0
C247 C 0.72217 0.95017 0.03815 0.0
O248 O 0.71496 0.91973 0.04265 0.0
O249 O 0.78564 0.89471 0.0732 0.0
Zn250 Zn 0.78994 0.92348 0.02896 0.0
O251 O 0.78318 0.89925 0.98315 0.0
C252 C 0.85865 0.94845 0.04424 0.0
O253 O 0.86029 0.92547 0.06703 0.0
O254 O 0.75182 0.95751 0.03236 0.0
C255 C 0.78845 0.87019 0.97378 0.0
O256 O 0.80064 0.84913 0.99496 0.0
C257 C 0.80172 0.86994 0.08354 0.0
O258 O 0.82524 0.85802 0.06451 0.0
O259 O 0.83316 0.95097 0.02673 0.0
C260 C 0.38581 0.66571 0.0361 0.0
O261 O 0.39173 0.69044 0.01623 0.0
O262 O 0.30409 0.71915 0.05114 0.0
Zn263 Zn 0.31946 0.68226 0.02402 0.0
O264 O 0.32955 0.69418 0.9767 0.0
C265 C 0.27745 0.6313 0.00343 0.0
O266 O 0.29707 0.6284 0.97731 0.0
O267 O 0.35679 0.6588 0.04414 0.0
C268 C 0.34058 0.72066 0.96557 0.0
O269 O 0.34386 0.74402 0.98662 0.0
C270 C 0.27747 0.73288 0.04362 0.0
O271 O 0.26362 0.72585 0.01578 0.0
O272 O 0.28264 0.65215 0.02511 0.0
C273 C 0.17773 0.45845 0.8226 0.0
O274 O 0.17316 0.47395 0.85045 0.0
O275 O 0.11419 0.51956 0.75845 0.0
Zn276 Zn 0.14202 0.51134 0.79681 0.0
O277 O 0.11509 0.5158 0.83779 0.0
C278 C 0.17353 0.57136 0.8086 0.0
O279 O 0.15032 0.57643 0.83104 0.0
O280 O 0.16572 0.46975 0.79601 0.0
C281 C 0.10224 0.49305 0.85457 0.0
O282 O 0.10513 0.46337 0.84415 0.0
C283 C 0.09607 0.54438 0.7619 0.0
O284 O 0.09456 0.5592 0.79038 0.0
O285 O 0.17517 0.54518 0.79307 0.0
C286 C 0.21444 0.44823 0.53768 0.0
O287 O 0.20943 0.41851 0.54791 0.0
O288 O 0.27992 0.4007 0.58043 0.0
Zn289 Zn 0.28374 0.42482 0.53313 0.0
O290 O 0.27983 0.39336 0.49181 0.0
C291 C 0.35275 0.44837 0.54726 0.0
O292 O 0.35452 0.42343 0.56769 0.0
O293 O 0.24354 0.45674 0.53047 0.0
C294 C 0.28428 0.40141 0.46097 0.0
O295 O 0.29365 0.43079 0.4537 0.0
C296 C 0.29528 0.37564 0.59123 0.0
O297 O 0.31614 0.36097 0.57111 0.0
O298 O 0.32679 0.45288 0.53071 0.0
C299 C 0.39627 0.61748 0.23161 0.0
O300 O 0.42393 0.622 0.24605 0.0
O301 O 0.46548 0.56158 0.20702 0.0
Zn302 Zn 0.42409 0.55758 0.23355 0.0
O303 O 0.43352 0.56711 0.28068 0.0
C304 C 0.41381 0.49515 0.20602 0.0
O305 O 0.43546 0.50335 0.18295 0.0
O306 O 0.39086 0.59024 0.21962 0.0
C307 C 0.44231 0.54681 0.30259 0.0
O308 O 0.44325 0.51599 0.29608 0.0
C309 C 0.49149 0.54863 0.2176 0.0
O310 O 0.49114 0.53287 0.24614 0.0
O311 O 0.40644 0.514 0.2296 0.0
Co312 Co 0.03395 0.0536 0.00871 0.0
C313 C 0.02837 0.09578 0.06392 0.0
Co314 Co 0.04315 0.02951 0.05596 0.0
C315 C 0.00748 0.06365 0.94555 0.0
C316 C 0.03462 0.10453 0.959 0.0
N317 N 0.02611 0.07471 0.96944 0.0
N318 N 1.00372 0.08538 0.92091 0.0
C319 C 0.02064 0.11126 0.92889 0.0
H320 H 0.99585 0.04056 0.94665 0.0
H321 H 0.0491 0.12068 0.97282 0.0
C322 C 0.04829 0.9871 0.00084 0.0
N323 N 0.05042 0.0074 0.09478 0.0
C324 C 0.06783 0.01603 0.12075 0.0
C325 C 0.04045 0.97729 0.10231 0.0
N326 N 0.06932 0.99224 0.1438 0.0
C327 C 0.05223 0.96781 0.13252 0.0
C328 C 0.9781 0.02418 0.03664 0.0
O329 O 0.04229 0.01314 0.98465 0.0
O330 O 0.05209 0.9893 0.03199 0.0
O331 O 0.99774 0.01736 0.05966 0.0
O332 O 0.98824 0.04201 0.0126 0.0
O333 O 0.03423 0.0697 0.08021 0.0
H334 H 0.02587 0.96294 0.08665 0.0
H335 H 0.07967 0.03892 0.12251 0.0
O336 O 0.02536 0.09381 0.03256 0.0
O337 O 0.07948 0.06542 0.00463 0.0
O338 O 0.08882 0.04202 0.05253 0.0
C339 C 0.09896 0.05959 0.02813 0.0
H340 H 0.02192 0.13351 0.91452 0.0
H341 H 0.04864 0.94495 0.1453 0.0
Co342 Co 0.312 0.78406 0.29484 0.0
C343 C 0.31687 0.7278 0.2604 0.0
Co344 Co 0.2778 0.7828 0.25396 0.0
C345 C 0.32765 0.79815 0.35999 0.0
C346 C 0.36995 0.77822 0.33554 0.0
N347 N 0.33841 0.78597 0.33089 0.0
N348 N 0.35082 0.79865 0.38249 0.0
C349 C 0.37776 0.78616 0.3676 0.0
H350 H 0.30329 0.80747 0.36452 0.0
H351 H 0.38626 0.7682 0.31673 0.0
C352 C 0.27565 0.84 0.28685 0.0
N353 N 0.25012 0.7825 0.21883 0.0
C354 C 0.25749 0.77119 0.18842 0.0
C355 C 0.22089 0.79744 0.21587 0.0
N356 N 0.23445 0.77884 0.16657 0.0
C357 C 0.2113 0.7955 0.18344 0.0
C358 C 0.25052 0.76215 0.31305 0.0
O359 O 0.29758 0.8263 0.30348 0.0
O360 O 0.26262 0.82425 0.26436 0.0
O361 O 0.24512 0.76541 0.2823 0.0
O362 O 0.27849 0.76775 0.32353 0.0
O363 O 0.29432 0.74078 0.24349 0.0
H364 H 0.20816 0.8103 0.23556 0.0
H365 H 0.28013 0.75906 0.18182 0.0
O366 O 0.32707 0.74197 0.28563 0.0
O367 O 0.34482 0.8006 0.266 0.0
O368 O 0.31004 0.80076 0.22567 0.0
C369 C 0.33827 0.80594 0.23567 0.0
H370 H 0.4013 0.78389 0.3787 0.0
H371 H 0.18976 0.80628 0.17281 0.0
Co372 Co 0.50208 0.04087 0.53537 0.0
C373 C 0.52245 0.10398 0.52161 0.0
Co374 Co 0.54995 0.04904 0.55578 0.0
C375 C 0.43635 0.02169 0.53959 0.0
C376 C 0.44957 0.03648 0.48983 0.0
N377 N 0.46122 0.03314 0.52072 0.0
N378 N 0.40985 0.01731 0.52173 0.0
C379 C 0.41786 0.02651 0.49035 0.0
H380 H 0.43783 0.01568 0.56581 0.0
H381 H 0.46337 0.04513 0.46829 0.0
C382 C 0.52926 0.98577 0.56941 0.0
N383 N 0.59073 0.05715 0.57034 0.0
C384 C 0.61335 0.07366 0.55272 0.0
C385 C 0.60368 0.05147 0.60036 0.0
N386 N 0.63963 0.07888 0.57051 0.0
C387 C 0.63393 0.06514 0.6006 0.0
C388 C 0.50126 0.06279 0.5998 0.0
O389 O 0.50519 0.99638 0.55284 0.0
O390 O 0.55256 0.00493 0.57373 0.0
O391 O 0.53182 0.06287 0.59611 0.0
O392 O 0.48385 0.0542 0.57631 0.0
O393 O 0.54682 0.09337 0.53768 0.0
H394 H 0.59138 0.03944 0.62107 0.0
H395 H 0.61002 0.08321 0.52784 0.0
O396 O 0.49902 0.08493 0.51799 0.0
O397 O 0.52064 0.02803 0.49441 0.0
O398 O 0.56837 0.03533 0.5154 0.0
C399 C 0.55129 0.02806 0.49115 0.0
H400 H 0.40205 0.02564 0.4694 0.0
H401 H 0.64986 0.06609 0.62144 0.0
Co402 Co 0.30746 0.30668 0.79206 0.0
C403 C 0.28723 0.31946 0.72716 0.0
Co404 Co 0.26319 0.28104 0.78157 0.0
C405 C 0.36987 0.31113 0.81812 0.0
C406 C 0.35583 0.35619 0.79566 0.0
N407 N 0.34561 0.32595 0.80183 0.0
N408 N 0.3947 0.33076 0.8225 0.0
C409 C 0.38627 0.35927 0.80858 0.0
H410 H 0.36923 0.28643 0.82712 0.0
H411 H 0.34192 0.37479 0.78303 0.0
C412 C 0.28358 0.26766 0.84623 0.0
N413 N 0.22542 0.26093 0.77217 0.0
C414 C 0.20028 0.27474 0.75651 0.0
C415 C 0.21682 0.23007 0.77786 0.0
N416 N 0.17645 0.25395 0.75212 0.0
C417 C 0.18649 0.22562 0.76525 0.0
C418 C 0.31773 0.24624 0.76596 0.0
O419 O 0.30519 0.28785 0.83729 0.0
O420 O 0.26208 0.26111 0.82551 0.0
O421 O 0.28707 0.24605 0.76547 0.0
O422 O 0.33121 0.27053 0.7775 0.0
O423 O 0.26446 0.30095 0.7371 0.0
H424 H 0.23191 0.21189 0.78971 0.0
H425 H 0.19975 0.29933 0.74739 0.0
O426 O 0.30962 0.32514 0.74729 0.0
O427 O 0.28356 0.34298 0.80621 0.0
O428 O 0.23917 0.3164 0.79786 0.0
C429 C 0.25284 0.34186 0.8064 0.0
H430 H 0.40079 0.38068 0.80832 0.0
H431 H 0.17326 0.20342 0.76492 0.0
Co432 Co 0.01678 0.02414 0.5141 0.0
C433 C 0.02305 0.04712 0.57783 0.0
Co434 Co 0.04488 0.06825 0.51647 0.0
C435 C 0.00659 0.96096 0.49418 0.0
C436 C 0.97584 0.97147 0.53645 0.0
N437 N 0.99578 0.98532 0.51333 0.0
N438 N 0.99555 0.93239 0.50519 0.0
C439 C 0.97595 0.9387 0.53168 0.0
H440 H 0.02553 0.96347 0.47512 0.0
H441 H 0.96479 0.98366 0.55748 0.0
C442 C 0.03562 0.04729 0.45277 0.0
N443 N 0.06704 0.10598 0.51646 0.0
C444 C 0.05717 0.13277 0.53217 0.0
C445 C 0.09489 0.11392 0.5 0.0
N446 N 0.07748 0.1571 0.52607 0.0
C447 C 0.10152 0.14562 0.50607 0.0
C448 C 0.08358 0.01419 0.51939 0.0
O449 O 0.01978 0.02518 0.46747 0.0
O450 O 0.05002 0.06741 0.47012 0.0
O451 O 0.08451 0.04457 0.5212 0.0
O452 O 0.05665 0.00081 0.51589 0.0
O453 O 0.03863 0.06958 0.5632 0.0
H454 H 0.10918 0.09781 0.4844 0.0
H455 H 0.03535 0.13455 0.54775 0.0
O456 O 0.01372 0.0237 0.56101 0.0
O457 O 0.97688 0.04772 0.51226 0.0
O458 O 0.00557 0.09171 0.51193 0.0
C459 C 0.97826 0.07826 0.5116 0.0
H460 H 0.96489 0.92073 0.54796 0.0
H461 H 0.12209 0.15916 0.49665 0.0
Co462 Co 0.28675 0.80839 0.79055 0.0
C463 C 0.22514 0.78473 0.80647 0.0
Co464 Co 0.28132 0.76005 0.77197 0.0
C465 C 0.30369 0.87415 0.78865 0.0
C466 C 0.28259 0.86037 0.83599 0.0
N467 N 0.29148 0.84892 0.80582 0.0
N468 N 0.30278 0.90079 0.8069 0.0
C469 C 0.2897 0.89252 0.83676 0.0
H470 H 0.31338 0.87303 0.76339 0.0
H471 H 0.27164 0.84623 0.85604 0.0
C472 C 0.34268 0.78437 0.75635 0.0
N473 N 0.27584 0.71905 0.75752 0.0
C474 C 0.25961 0.69636 0.775 0.0
C475 C 0.2838 0.70547 0.7281 0.0
N476 N 0.25674 0.66942 0.75778 0.0
C477 C 0.27172 0.67473 0.7281 0.0
C478 C 0.26573 0.80715 0.72572 0.0
O479 O 0.33157 0.80767 0.77368 0.0
O480 O 0.32452 0.76047 0.75213 0.0
O481 O 0.26453 0.77706 0.73158 0.0
O482 O 0.27391 0.82553 0.7487 0.0
O483 O 0.23741 0.75989 0.79253 0.0
H484 H 0.29635 0.7175 0.70759 0.0
H485 H 0.24812 0.70008 0.79913 0.0
O486 O 0.24233 0.80966 0.80724 0.0
O487 O 0.30024 0.79105 0.83208 0.0
O488 O 0.29909 0.74294 0.81163 0.0
C489 C 0.30535 0.76099 0.8355 0.0
H490 H 0.28595 0.90849 0.85749 0.0
H491 H 0.27257 0.65821 0.70765 0.0
Co492 Co 0.54338 0.04092 0.01434 0.0
C493 C 0.60513 0.03149 0.04212 0.0
Co494 Co 0.54676 0.05998 0.06428 0.0
C495 C 0.52839 0.03976 0.94631 0.0
C496 C 0.56253 0.00229 0.95852 0.0
N497 N 0.54342 0.0257 0.97202 0.0
N498 N 0.53773 0.02655 0.91733 0.0
C499 C 0.55942 0.0031 0.92459 0.0
H500 H 0.51221 0.06048 0.94845 0.0
H501 H 0.57891 0.98668 0.97215 0.0
C502 C 0.48465 0.06944 0.03675 0.0
N503 N 0.54734 0.07458 0.10679 0.0
C504 C 0.56252 0.05919 0.13166 0.0
C505 C 0.52904 0.09786 0.12154 0.0
N506 N 0.55396 0.07127 0.16131 0.0
C507 C 0.53288 0.09566 0.15542 0.0
C508 C 0.5602 0.10512 0.01629 0.0
O509 O 0.49785 0.0551 0.01192 0.0
O510 O 0.50138 0.07245 0.0625 0.0
O511 O 0.55785 0.10083 0.04753 0.0
O512 O 0.55618 0.08174 0.99718 0.0
O513 O 0.59247 0.04724 0.06617 0.0
H514 H 0.51262 0.11413 0.10877 0.0
H515 H 0.57795 0.03809 0.12849 0.0
O516 O 0.58812 0.02726 0.01691 0.0
O517 O 0.53088 9e-05 0.03121 0.0
O518 O 0.53586 0.019 0.08118 0.0
C519 C 0.5309 0.9956 0.06247 0.0
H520 H 0.57237 0.98824 0.90662 0.0
H521 H 0.52051 0.10994 0.17426 0.0
Co522 Co 0.27823 0.27266 0.29659 0.0
C523 C 0.3434 0.29141 0.30274 0.0
Co524 Co 0.28868 0.31791 0.27092 0.0
C525 C 0.25773 0.20834 0.30529 0.0
C526 C 0.27922 0.2254 0.34926 0.0
N527 N 0.27059 0.23451 0.31829 0.0
N528 N 0.25831 0.18328 0.32674 0.0
C529 C 0.27159 0.19361 0.35457 0.0
H530 H 0.24885 0.20733 0.28029 0.0
H531 H 0.29117 0.24056 0.36644 0.0
C532 C 0.22343 0.29884 0.2642 0.0
N533 N 0.29667 0.35634 0.24967 0.0
C534 C 0.32459 0.36541 0.23435 0.0
C535 C 0.27771 0.38313 0.25066 0.0
N536 N 0.32414 0.39704 0.22682 0.0
C537 C 0.29469 0.40834 0.23666 0.0
C538 C 0.29524 0.26487 0.22832 0.0
O539 O 0.23292 0.27538 0.28268 0.0
O540 O 0.24335 0.32144 0.25825 0.0
O541 O 0.29799 0.29531 0.22941 0.0
O542 O 0.2887 0.24972 0.25546 0.0
O543 O 0.33413 0.31439 0.28365 0.0
H544 H 0.25402 0.38469 0.26288 0.0
H545 H 0.34583 0.3499 0.23141 0.0
O546 O 0.32312 0.26954 0.31013 0.0
O547 O 0.26797 0.29542 0.33778 0.0
O548 O 0.2797 0.34073 0.31241 0.0
C549 C 0.2724 0.32558 0.33937 0.0
H550 H 0.27606 0.17901 0.37659 0.0
H551 H 0.28703 0.43338 0.23596 0.0
Co552 Co 0.53329 0.52547 0.05092 0.0
C553 C 0.55976 0.55412 0.10539 0.0
Co554 Co 0.55986 0.56986 0.03938 0.0
C555 C 0.51835 0.45993 0.04482 0.0
C556 C 0.49456 0.47891 0.08838 0.0
N557 N 0.51379 0.48717 0.06191 0.0
N558 N 0.50306 0.43505 0.0595 0.0
C559 C 0.48789 0.44653 0.08696 0.0
H560 H 0.53333 0.45811 0.02234 0.0
H561 H 0.48658 0.49516 0.10776 0.0
C562 C 0.53244 0.54151 0.98515 0.0
N563 N 0.57922 0.6081 0.0278 0.0
C564 C 0.57154 0.63657 0.04151 0.0
C565 C 0.59733 0.61539 0.00025 0.0
N566 N 0.58319 0.66135 0.02319 0.0
C567 C 0.59959 0.64838 0.99719 0.0
C568 C 0.59942 0.51706 0.03583 0.0
O569 O 0.52304 0.52042 0.00617 0.0
O570 O 0.54966 0.56432 0.99473 0.0
O571 O 0.59963 0.54744 0.03248 0.0
O572 O 0.57319 0.50301 0.04365 0.0
O573 O 0.56968 0.57535 0.08462 0.0
H574 H 0.6059 0.59809 0.98213 0.0
H575 H 0.55511 0.63934 0.0628 0.0
O576 O 0.54358 0.53074 0.09531 0.0
O577 O 0.49341 0.54802 0.05802 0.0
O578 O 0.51989 0.59213 0.04581 0.0
C579 C 0.49352 0.57828 0.0533 0.0
H580 H 0.47362 0.43247 0.10474 0.0
H581 H 0.61026 0.66181 0.97644 0.0
Co582 Co 0.78261 0.31336 0.28765 0.0
C583 C 0.72211 0.28872 0.30674 0.0
Co584 Co 0.7776 0.26385 0.27162 0.0
C585 C 0.79446 0.37848 0.27308 0.0
C586 C 0.78563 0.37192 0.32544 0.0
N587 N 0.78666 0.35615 0.29644 0.0
N588 N 0.79908 0.40732 0.2862 0.0
C589 C 0.79354 0.40362 0.31917 0.0
H590 H 0.7987 0.37342 0.24701 0.0
H591 H 0.78066 0.3609 0.34958 0.0
C592 C 0.83847 0.28806 0.25335 0.0
N593 N 0.77336 0.22121 0.26212 0.0
C594 C 0.76484 0.19862 0.28488 0.0
C595 C 0.77359 0.20618 0.23268 0.0
N596 N 0.75883 0.17045 0.27097 0.0
C597 C 0.76422 0.17477 0.23807 0.0
C598 C 0.75669 0.30566 0.22435 0.0
O599 O 0.82634 0.31295 0.26737 0.0
O600 O 0.82118 0.26307 0.25242 0.0
O601 O 0.76121 0.27587 0.22979 0.0
O602 O 0.76489 0.32496 0.24637 0.0
O603 O 0.73369 0.26451 0.29109 0.0
H604 H 0.77859 0.21768 0.20878 0.0
H605 H 0.76057 0.20319 0.31102 0.0
O606 O 0.73942 0.31369 0.30794 0.0
O607 O 0.79975 0.30165 0.32921 0.0
O608 O 0.79369 0.25201 0.31378 0.0
C609 C 0.80072 0.27176 0.33588 0.0
H610 H 0.79613 0.42216 0.33735 0.0
H611 H 0.76019 0.15704 0.21938 0.0
Co612 Co 0.0276 0.52542 0.50778 0.0
C613 C 0.09145 0.52062 0.53043 0.0
Co614 Co 0.03488 0.55415 0.55161 0.0
C615 C 1.00115 0.51088 0.44675 0.0
C616 C 0.03494 0.47367 0.4605 0.0
N617 N 0.02111 0.50155 0.47095 0.0
N618 N 1.00193 0.49032 0.42158 0.0
C619 C 0.02328 0.46679 0.42964 0.0
H620 H 0.98723 0.53319 0.44668 0.0
H621 H 0.05295 0.45981 0.47393 0.0
C622 C 0.97118 0.56018 0.52928 0.0
N623 N 0.04044 0.57874 0.58791 0.0
C624 C 0.05327 0.56874 0.6166 0.0
C625 C 0.02985 0.60924 0.59321 0.0
N626 N 0.05073 0.59151 0.63964 0.0
C627 C 0.03614 0.61721 0.62541 0.0
C628 C 0.04667 0.58707 0.49272 0.0
O629 O 0.98213 0.54034 0.5078 0.0
O630 O 0.99005 0.56839 0.55181 0.0
O631 O 0.04569 0.58936 0.52408 0.0
O632 O 0.03951 0.5607 0.47995 0.0
O633 O 0.08014 0.54046 0.55174 0.0
H634 H 0.01735 0.62423 0.57521 0.0
H635 H 0.06323 0.54481 0.62102 0.0
O636 O 0.07268 0.51133 0.50807 0.0
O637 O 0.01636 0.48967 0.53507 0.0
O638 O 0.02454 0.51777 0.57942 0.0
C639 C 0.01835 0.49109 0.56638 0.0
H640 H 0.0305 0.44686 0.41401 0.0
H641 H 0.02984 0.6395 0.63766 0.0
Co642 Co 0.80889 0.79151 0.27937 0.0
C643 C 0.78771 0.80592 0.21506 0.0
Co644 Co 0.76395 0.76682 0.26902 0.0
C645 C 0.87243 0.79844 0.30372 0.0
C646 C 0.85662 0.84086 0.27733 0.0
N647 N 0.84698 0.81139 0.28778 0.0
N648 N 0.89757 0.81853 0.30346 0.0
C649 C 0.88801 0.84524 0.28679 0.0
H650 H 0.87287 0.77444 0.31468 0.0
H651 H 0.84199 0.85778 0.2632 0.0
C652 C 0.78565 0.75279 0.3336 0.0
N653 N 0.72564 0.74753 0.2596 0.0
C654 C 0.70168 0.76194 0.24251 0.0
C655 C 0.71489 0.71772 0.26715 0.0
N656 N 0.67653 0.74249 0.23892 0.0
C657 C 0.68437 0.71456 0.25441 0.0
C658 C 0.81813 0.73147 0.25183 0.0
O659 O 0.80792 0.772 0.32392 0.0
O660 O 0.76333 0.74682 0.31341 0.0
O661 O 0.78741 0.73157 0.25252 0.0
O662 O 0.83239 0.75551 0.26319 0.0
O663 O 0.76496 0.78716 0.2244 0.0
H664 H 0.72839 0.69953 0.28082 0.0
H665 H 0.70256 0.78634 0.23271 0.0
O666 O 0.80997 0.81091 0.23535 0.0
O667 O 0.78527 0.82724 0.29539 0.0
O668 O 0.74037 0.80194 0.2858 0.0
C669 C 0.75454 0.82644 0.29588 0.0
H670 H 0.90272 0.86618 0.28185 0.0
H671 H 0.66931 0.69353 0.25607 0.0
Co672 Co 0.80447 0.3019 0.81319 0.0
C673 C 0.80009 0.24592 0.77799 0.0
Co674 Co 0.77254 0.30677 0.77056 0.0
C675 C 0.82658 0.31101 0.87845 0.0
C676 C 0.85913 0.27994 0.8512 0.0
N677 N 0.831 0.29701 0.84887 0.0
N678 N 0.85076 0.30361 0.89899 0.0
C679 C 0.87144 0.28397 0.88232 0.0
H680 H 0.8063 0.32682 0.8848 0.0
H681 H 0.87021 0.26594 0.83139 0.0
C682 C 0.77758 0.36255 0.80575 0.0
N683 N 0.74698 0.31103 0.73395 0.0
C684 C 0.75513 0.29783 0.70464 0.0
C685 C 0.7182 0.32625 0.72899 0.0
N686 N 0.73301 0.30396 0.68163 0.0
C687 C 0.7094 0.3218 0.69647 0.0
C688 C 0.73951 0.29106 0.82851 0.0
O689 O 0.79741 0.34594 0.82278 0.0
O690 O 0.76439 0.35022 0.78102 0.0
O691 O 0.73614 0.29504 0.79742 0.0
O692 O 0.76764 0.29178 0.84054 0.0
O693 O 0.78119 0.26284 0.76018 0.0
H694 H 0.70447 0.3394 0.74777 0.0
H695 H 0.77685 0.28353 0.70013 0.0
O696 O 0.81177 0.25823 0.80345 0.0
O697 O 0.8406 0.31243 0.78612 0.0
O698 O 0.80897 0.31895 0.74387 0.0
C699 C 0.83705 0.31963 0.75568 0.0
H700 H 0.8939 0.27402 0.89171 0.0
H701 H 0.68747 0.33044 0.68485 0.0
Co702 Co 0.77868 0.76487 0.79777 0.0
C703 C 0.84312 0.78541 0.80295 0.0
Co704 Co 0.78649 0.81047 0.77173 0.0
C705 C 0.75602 0.70108 0.80614 0.0
C706 C 0.78047 0.71601 0.84928 0.0
N707 N 0.77191 0.72587 0.81853 0.0
N708 N 0.75408 0.67632 0.82797 0.0
C709 C 0.76935 0.68534 0.85522 0.0
H710 H 0.74552 0.70129 0.7818 0.0
H711 H 0.7935 0.73036 0.86638 0.0
C712 C 0.72137 0.79003 0.76826 0.0
N713 N 0.79251 0.85039 0.75185 0.0
C714 C 0.82087 0.865 0.7447 0.0
C715 C 0.76968 0.87403 0.74962 0.0
N716 N 0.81653 0.89682 0.73954 0.0
C717 C 0.78443 0.90262 0.74209 0.0
C718 C 0.79356 0.75889 0.7281 0.0
O719 O 0.73257 0.76759 0.78688 0.0
O720 O 0.7411 0.81185 0.759 0.0
O721 O 0.79684 0.78927 0.72979 0.0
O722 O 0.78739 0.74325 0.75514 0.0
O723 O 0.83214 0.80861 0.78508 0.0
H724 H 0.7443 0.87149 0.75626 0.0
H725 H 0.8445 0.85347 0.74666 0.0
O726 O 0.82433 0.762 0.80938 0.0
O727 O 0.76995 0.78659 0.83972 0.0
O728 O 0.77587 0.83201 0.81338 0.0
C729 C 0.77017 0.81718 0.84083 0.0
H730 H 0.77177 0.67097 0.87777 0.0
H731 H 0.77289 0.92623 0.7415 0.0
Co732 Co 0.52958 0.55062 0.51193 0.0
C733 C 0.52802 0.59136 0.56817 0.0
Co734 Co 0.54068 0.52492 0.55788 0.0
C735 C 0.50304 0.56015 0.44836 0.0
C736 C 0.52191 0.60407 0.46592 0.0
N737 N 0.5185 0.57259 0.47391 0.0
N738 N 0.49651 0.58248 0.42489 0.0
C739 C 0.5081 0.61031 0.43565 0.0
H740 H 0.4963 0.53522 0.44692 0.0
H741 H 0.53349 0.62138 0.48114 0.0
C742 C 0.54221 0.48415 0.50187 0.0
N743 N 0.55305 0.50213 0.59509 0.0
C744 C 0.54555 0.50673 0.62746 0.0
C745 C 0.57669 0.47914 0.59485 0.0
N746 N 0.56421 0.48794 0.64715 0.0
C747 C 0.58356 0.47039 0.62683 0.0
C748 C 0.47487 0.52063 0.5432 0.0
O749 O 0.53625 0.51064 0.48654 0.0
O750 O 0.54668 0.48543 0.53286 0.0
O751 O 0.4954 0.51291 0.56533 0.0
O752 O 0.48429 0.53898 0.5192 0.0
O753 O 0.53453 0.56485 0.58343 0.0
H754 H 0.58973 0.47075 0.57289 0.0
H755 H 0.52877 0.52514 0.63648 0.0
O756 O 0.52314 0.59022 0.5371 0.0
O757 O 0.5746 0.56222 0.50441 0.0
O758 O 0.58583 0.53674 0.5502 0.0
C759 C 0.5958 0.55363 0.52533 0.0
H760 H 0.50706 0.63316 0.42233 0.0
H761 H 0.60275 0.45405 0.6347 0.0
Co762 Co 0.01712 0.54508 0.03797 0.0
C763 C 0.04294 0.60465 0.0176 0.0
Co764 Co 0.06931 0.54637 0.04643 0.0
C765 C 0.95171 0.53184 0.05629 0.0
C766 C 0.95564 0.55027 0.00625 0.0
N767 N 0.97311 0.54352 0.03342 0.0
N768 N 0.92182 0.53002 0.04415 0.0
C769 C 0.92393 0.54176 0.01278 0.0
H770 H 0.95826 0.5228 0.08063 0.0
H771 H 0.9656 0.55936 0.98281 0.0
C772 C 0.04263 0.48667 0.06668 0.0
N773 N 0.11338 0.54779 0.05125 0.0
C774 C 0.13507 0.56145 0.02994 0.0
C775 C 0.13055 0.53844 0.07792 0.0
N776 N 0.16488 0.56172 0.04259 0.0
C777 C 0.16236 0.54718 0.07269 0.0
C778 C 0.03409 0.5668 0.0996 0.0
O779 O 0.01731 0.50056 0.05524 0.0
O780 O 0.06891 0.50245 0.06559 0.0
O781 O 0.06296 0.56324 0.08876 0.0
O782 O 0.0106 0.56024 0.08146 0.0
O783 O 0.06907 0.59058 0.02702 0.0
H784 H 0.12031 0.52733 0.10027 0.0
H785 H 0.12884 0.57274 0.00646 0.0
O786 O 0.0167 0.58908 0.02086 0.0
O787 O 0.02405 0.53021 0.99424 0.0
O788 O 0.07606 0.52963 0.00425 0.0
C789 C 0.0532 0.52493 0.9847 0.0
H790 H 0.90432 0.54268 0.99547 0.0
H791 H 0.18178 0.54444 0.09009 0.0
C792 C 0.05554 0.1722 0.11 0.0
C793 C 0.02965 0.19442 0.10337 0.0
C794 C 1.00037 0.14988 0.0772 0.0
C795 C 0.02777 0.12876 0.08035 0.0
N796 N 0.08296 0.12122 0.09776 0.0
N797 N 0.97687 0.204 0.08061 0.0
C798 C 0.05554 0.14019 0.09672 0.0
C799 C 1.00194 0.18299 0.08697 0.0
N800 N 0.08051 0.1817 0.12886 0.0
N801 N 0.97215 0.13778 0.06608 0.0
H802 H 0.97534 0.22707 0.09028 0.0
H803 H 0.9581 0.19913 0.06486 0.0
H804 H 0.96999 0.11381 0.05944 0.0
H805 H 0.95013 0.15041 0.06611 0.0
H806 H 0.09809 0.16598 0.13823 0.0
H807 H 0.08246 0.20507 0.13733 0.0
H808 H 0.10537 0.12928 0.10497 0.0
H809 H 0.08421 0.09788 0.08892 0.0
C810 C 0.17344 0.72685 0.3495 0.0
C811 C 0.16526 0.74936 0.37462 0.0
C812 C 0.21406 0.77951 0.36069 0.0
C813 C 0.22325 0.75605 0.33676 0.0
N814 N 0.21609 0.70348 0.31449 0.0
N815 N 0.18163 0.79175 0.41008 0.0
C816 C 0.20431 0.72841 0.33315 0.0
C817 C 0.18687 0.77395 0.38216 0.0
N818 N 0.15117 0.70526 0.33981 0.0
N819 N 0.22974 0.80811 0.36155 0.0
H820 H 0.16202 0.78804 0.42661 0.0
H821 H 0.19843 0.80784 0.41856 0.0
H822 H 0.24917 0.81389 0.34572 0.0
H823 H 0.2215 0.82739 0.37585 0.0
H824 H 0.15477 0.69078 0.31916 0.0
H825 H 0.12786 0.70375 0.3504 0.0
H826 H 0.2047 0.6814 0.31343 0.0
H827 H 0.23904 0.70379 0.30292 0.0
C828 C 0.55807 0.90038 0.59906 0.0
C829 C 0.53008 0.8888 0.61681 0.0
C830 C 0.50218 0.94104 0.6046 0.0
C831 C 0.52934 0.95192 0.58497 0.0
N832 N 0.58053 0.93816 0.55788 0.0
N833 N 0.4728 0.89574 0.62866 0.0
C834 C 0.55654 0.93045 0.58062 0.0
C835 C 0.50138 0.90848 0.61711 0.0
N836 N 0.58668 0.88343 0.60093 0.0
N837 N 0.47775 0.96225 0.61318 0.0
H838 H 0.47102 0.87196 0.63718 0.0
H839 H 0.45042 0.90751 0.62637 0.0
H840 H 0.47773 0.98647 0.60607 0.0
H841 H 0.45917 0.95668 0.63032 0.0
H842 H 0.60879 0.8923 0.59199 0.0
H843 H 0.58875 0.86147 0.61369 0.0
H844 H 0.59928 0.92229 0.55099 0.0
H845 H 0.57995 0.95924 0.5434 0.0
C846 C 0.47909 0.3026 0.84236 0.0
C847 C 0.47525 0.29771 0.87725 0.0
C848 C 0.4201 0.32043 0.87598 0.0
C849 C 0.42297 0.32261 0.84095 0.0
N850 N 0.45268 0.31278 0.78991 0.0
N851 N 0.44152 0.29872 0.92734 0.0
C852 C 0.4519 0.31308 0.82386 0.0
C853 C 0.44554 0.3057 0.89414 0.0
N854 N 0.5087 0.29728 0.82701 0.0
N855 N 0.39307 0.33308 0.89169 0.0
H856 H 0.45989 0.28872 0.94172 0.0
H857 H 0.4194 0.30084 0.94034 0.0
H858 H 0.37414 0.344 0.87871 0.0
H859 H 0.39045 0.33521 0.91735 0.0
H860 H 0.51396 0.30365 0.80232 0.0
H861 H 0.52876 0.28813 0.83954 0.0
H862 H 0.47169 0.30278 0.77571 0.0
H863 H 0.43312 0.32078 0.7759 0.0
C864 C 0.00558 0.85109 0.46714 0.0
C865 C 0.03995 0.8495 0.46402 0.0
C866 C 0.04329 0.89628 0.49934 0.0
C867 C 0.0095 0.90185 0.49588 0.0
N868 N 0.95822 0.88566 0.47562 0.0
N869 N 0.09213 0.8689 0.47863 0.0
C870 C 0.99041 0.87923 0.4801 0.0
C871 C 0.05905 0.87148 0.48085 0.0
N872 N 0.98753 0.82585 0.45778 0.0
N873 N 0.05992 0.91465 0.52056 0.0
H874 H 0.10423 0.84994 0.46662 0.0
H875 H 0.10752 0.88598 0.48766 0.0
H876 H 0.04837 0.93207 0.53526 0.0
H877 H 0.08421 0.91068 0.52603 0.0
H878 H 0.96253 0.82469 0.46204 0.0
H879 H 0.99798 0.80469 0.44871 0.0
H880 H 0.94382 0.87189 0.46078 0.0
H881 H 0.94648 0.9062 0.48482 0.0
C882 C 0.4322 0.76433 0.73304 0.0
C883 C 0.43675 0.78339 0.70357 0.0
C884 C 0.38156 0.80691 0.71206 0.0
C885 C 0.37586 0.78556 0.73964 0.0
N886 N 0.39516 0.74343 0.7763 0.0
N887 N 0.41558 0.82194 0.66398 0.0
C888 C 0.40113 0.76422 0.75016 0.0
C889 C 0.41139 0.80458 0.69297 0.0
N890 N 0.45773 0.74637 0.74468 0.0
N891 N 0.3584 0.82955 0.70411 0.0
H892 H 0.43758 0.82243 0.65051 0.0
H893 H 0.39705 0.83466 0.65224 0.0
H894 H 0.33577 0.83108 0.71625 0.0
H895 H 0.36208 0.84819 0.68688 0.0
H896 H 0.45749 0.73426 0.76754 0.0
H897 H 0.48029 0.74518 0.7323 0.0
H898 H 0.41076 0.72468 0.78319 0.0
H899 H 0.3736 0.74402 0.79055 0.0
C900 C 0.53802 0.18783 0.9837 0.0
C901 C 0.56782 0.20388 0.98629 0.0
C902 C 0.59348 0.1543 0.00759 0.0
C903 C 0.56429 0.1379 0.00258 0.0
N904 N 0.51118 0.13727 0.97851 0.0
N905 N 0.62573 0.20102 0.99395 0.0
C906 C 0.53742 0.15402 0.98803 0.0
C907 C 0.59613 0.18678 0.99643 0.0
N908 N 0.50981 0.20505 0.97924 0.0
N909 N 0.61863 0.13885 0.02302 0.0
H910 H 0.62884 0.22454 0.98524 0.0
H911 H 0.64758 0.18865 0.99762 0.0
H912 H 0.61839 0.11442 0.02944 0.0
H913 H 0.63895 0.15062 0.03104 0.0
H914 H 0.48695 0.19479 0.98088 0.0
H915 H 0.50879 0.23009 0.97757 0.0
H916 H 0.49272 0.14754 0.96443 0.0
H917 H 0.50893 0.11259 0.98217 0.0
C918 C 0.16011 0.30626 0.19468 0.0
C919 C 0.13227 0.29181 0.20975 0.0
C920 C 0.16199 0.28798 0.2626 0.0
C921 C 0.19138 0.29781 0.246 0.0
N922 N 0.21849 0.30932 0.19284 0.0
N923 N 0.108 0.26584 0.25808 0.0
C924 C 0.19038 0.30533 0.21119 0.0
C925 C 0.1335 0.28202 0.24383 0.0
N926 N 0.15759 0.32165 0.16451 0.0
N927 N 0.16082 0.28537 0.29649 0.0
H928 H 0.08686 0.2615 0.24544 0.0
H929 H 0.10877 0.25474 0.28148 0.0
H930 H 0.18054 0.29051 0.31098 0.0
H931 H 0.1395 0.28133 0.31033 0.0
H932 H 0.17608 0.3355 0.15381 0.0
H933 H 0.13578 0.32364 0.15204 0.0
H934 H 0.21916 0.31113 0.16696 0.0
H935 H 0.24147 0.30685 0.20256 0.0
C936 C 0.08344 0.99859 0.23467 0.0
C937 C 0.11691 0.98986 0.2353 0.0
C938 C 0.11943 0.98629 0.17472 0.0
C939 C 0.08565 0.99264 0.17451 0.0
N940 N 0.0345 0.00265 0.20275 0.0
N941 N 0.16648 0.97232 0.20709 0.0
C942 C 0.06737 0.99815 0.20411 0.0
C943 C 0.13498 0.98312 0.20559 0.0
N944 N 0.06743 0.0087 0.26296 0.0
N945 N 0.13643 0.98334 0.14522 0.0
H946 H 0.17882 0.9699 0.22925 0.0
H947 H 0.17992 0.96367 0.18677 0.0
H948 H 0.12525 0.98394 0.12231 0.0
H949 H 0.16164 0.9822 0.14314 0.0
H950 H 0.04411 0.01873 0.26341 0.0
H951 H 0.07824 0.00938 0.28595 0.0
H952 H 0.01894 0.00285 0.2236 0.0
H953 H 0.0224 0.0045 0.18038 0.0
C954 C 0.33363 0.86385 0.44247 0.0
C955 C 0.31919 0.84592 0.46922 0.0
C956 C 0.33213 0.79557 0.44083 0.0
C957 C 0.34649 0.81345 0.41421 0.0
N958 N 0.36612 0.86313 0.39105 0.0
N959 N 0.3095 0.79512 0.49725 0.0
C960 C 0.34913 0.8472 0.41573 0.0
C961 C 0.31999 0.81181 0.46949 0.0
N962 N 0.33113 0.89672 0.44197 0.0
N963 N 0.32889 0.76317 0.43773 0.0
H964 H 0.29989 0.8064 0.51837 0.0
H965 H 0.31224 0.77031 0.5003 0.0
H966 H 0.3388 0.75078 0.41741 0.0
H967 H 0.31537 0.74886 0.45427 0.0
H968 H 0.33806 0.91117 0.4217 0.0
H969 H 0.32007 0.90977 0.46121 0.0
H970 H 0.3715 0.88744 0.39157 0.0
H971 H 0.37705 0.85126 0.37094 0.0
C972 C 0.48021 0.06005 0.69151 0.0
C973 C 0.45309 0.08157 0.69262 0.0
C974 C 0.46188 0.09509 0.63381 0.0
C975 C 0.48596 0.0704 0.63195 0.0
N976 N 0.51379 0.02495 0.65757 0.0
N977 N 0.41447 0.11566 0.66373 0.0
C978 C 0.4941 0.05168 0.66038 0.0
C979 C 0.44296 0.09825 0.66352 0.0
N980 N 0.49347 0.0484 0.72016 0.0
N981 N 0.45762 0.11593 0.60751 0.0
H982 H 0.39924 0.11778 0.68475 0.0
H983 H 0.40438 0.12545 0.64228 0.0
H984 H 0.47143 0.11455 0.58542 0.0
H985 H 0.44264 0.13636 0.60879 0.0
H986 H 0.51533 0.03541 0.72058 0.0
H987 H 0.48459 0.05447 0.7437 0.0
H988 H 0.5172 0.00845 0.67704 0.0
H989 H 0.52426 0.01739 0.63512 0.0
C990 C 0.25732 0.2413 0.93562 0.0
C991 C 0.28 0.21592 0.94232 0.0
C992 C 0.3082 0.22813 0.88831 0.0
C993 C 0.28355 0.2513 0.88022 0.0
N994 N 0.23388 0.27927 0.8957 0.0
N995 N 0.32583 0.18347 0.92403 0.0
C996 C 0.25795 0.25769 0.90384 0.0
C997 C 0.30541 0.20921 0.91856 0.0
N998 N 0.23568 0.25039 0.96024 0.0
N999 N 0.33416 0.22386 0.86679 0.0
H1000 H 0.32496 0.16958 0.94589 0.0
H1001 H 0.34236 0.17452 0.90633 0.0
H1002 H 0.33604 0.23543 0.84362 0.0
H1003 H 0.35481 0.21031 0.8725 0.0
H1004 H 0.22044 0.27056 0.95867 0.0
H1005 H 0.23486 0.23921 0.98369 0.0
H1006 H 0.2124 0.2823 0.90961 0.0
H1007 H 0.23462 0.2933 0.87392 0.0
C1008 C 0.06488 0.01226 0.37376 0.0
C1009 C 0.08665 0.03719 0.36434 0.0
C1010 C 0.05765 0.07392 0.40169 0.0
C1011 C 0.04196 0.0472 0.4164 0.0
N1012 N 0.01601 0.99755 0.40525 0.0
N1013 N 0.104 0.09231 0.36928 0.0
C1014 C 0.04087 0.01821 0.39893 0.0
C1015 C 0.08249 0.06858 0.37741 0.0
N1016 N 0.0679 0.98279 0.3595 0.0
N1017 N 0.04855 0.10416 0.41126 0.0
H1018 H 0.1237 0.08933 0.35278 0.0
H1019 H 0.10397 0.11436 0.38109 0.0
H1020 H 0.02934 0.10797 0.42834 0.0
H1021 H 0.05727 0.12505 0.39974 0.0
H1022 H 0.0556 0.96254 0.3682 0.0
H1023 H 0.08381 0.9782 0.33953 0.0
H1024 H 0.0127 0.97661 0.39215 0.0
H1025 H 0.9962 0.00368 0.42072 0.0
C1026 C 0.24776 0.86558 0.65416 0.0
C1027 C 0.26355 0.8496 0.62722 0.0
C1028 C 0.28035 0.80577 0.66439 0.0
C1029 C 0.26263 0.82036 0.69127 0.0
N1030 N 0.22407 0.86115 0.70981 0.0
N1031 N 0.28641 0.80064 0.60481 0.0
C1032 C 0.24458 0.84934 0.68553 0.0
C1033 C 0.27694 0.81838 0.63176 0.0
N1034 N 0.23732 0.89681 0.65037 0.0
N1035 N 0.30272 0.78175 0.66998 0.0
H1036 H 0.28386 0.80906 0.58041 0.0
H1037 H 0.29341 0.77647 0.60667 0.0
H1038 H 0.30857 0.77326 0.69349 0.0
H1039 H 0.31854 0.77298 0.65146 0.0
H1040 H 0.22917 0.91089 0.67016 0.0
H1041 H 0.23914 0.90958 0.62785 0.0
H1042 H 0.20783 0.88025 0.70589 0.0
H1043 H 0.22114 0.85001 0.73306 0.0
C1044 C 0.51135 0.0849 0.85254 0.0
C1045 C 0.49205 0.06478 0.83364 0.0
C1046 C 0.50907 0.01751 0.86576 0.0
C1047 C 0.52756 0.03763 0.8854 0.0
N1048 N 0.55492 0.0875 0.89154 0.0
N1049 N 0.48249 0.01153 0.81365 0.0
C1050 C 0.53174 0.07043 0.87651 0.0
C1051 C 0.49447 0.03085 0.83727 0.0
N1052 N 0.50864 0.11759 0.84923 0.0
N1053 N 0.50316 0.98654 0.8757 0.0
H1054 H 0.47199 0.02074 0.7921 0.0
H1055 H 0.48608 0.98665 0.81377 0.0
H1056 H 0.51255 0.97604 0.89714 0.0
H1057 H 0.48668 0.9721 0.86413 0.0
H1058 H 0.51946 0.13338 0.86513 0.0
H1059 H 0.49394 0.12901 0.83179 0.0
H1060 H 0.56084 0.11096 0.88456 0.0
H1061 H 0.57039 0.07685 0.90883 0.0
C1062 C 0.2686 0.22452 0.1478 0.0
C1063 C 0.29874 0.21896 0.13042 0.0
C1064 C 0.32668 0.24411 0.17703 0.0
C1065 C 0.29683 0.24764 0.19529 0.0
N1066 N 0.24007 0.23454 0.20035 0.0
N1067 N 0.35711 0.21621 0.13338 0.0
C1068 C 0.26809 0.23558 0.18143 0.0
C1069 C 0.32795 0.22683 0.14644 0.0
N1070 N 0.24021 0.22123 0.13164 0.0
N1071 N 0.35405 0.25722 0.1889 0.0
H1072 H 0.35907 0.20195 0.11238 0.0
H1073 H 0.37898 0.21834 0.14536 0.0
H1074 H 0.35455 0.26833 0.21188 0.0
H1075 H 0.37569 0.25896 0.17499 0.0
H1076 H 0.2177 0.22857 0.14154 0.0
H1077 H 0.2393 0.21408 0.10703 0.0
H1078 H 0.21939 0.22284 0.19312 0.0
H1079 H 0.2382 0.24304 0.22448 0.0
C1080 C 0.18925 0.07804 0.04456 0.0
C1081 C 0.19066 0.11152 0.03649 0.0
C1082 C 0.13246 0.11099 0.02347 0.0
C1083 C 0.1312 0.07699 0.02939 0.0
N1084 N 0.16099 0.02751 0.03945 0.0
N1085 N 0.16543 0.15737 0.00976 0.0
C1086 C 0.16042 0.06035 0.03818 0.0
C1087 C 0.16283 0.12706 0.02322 0.0
N1088 N 0.21499 0.06331 0.05956 0.0
N1089 N 0.10445 0.12879 0.02059 0.0
H1090 H 0.18719 0.1698 0.00878 0.0
H1091 H 0.14702 0.16869 0.99641 0.0
H1092 H 0.08151 0.11903 0.0227 0.0
H1093 H 0.10378 0.15385 0.0202 0.0
H1094 H 0.21426 0.04009 0.06969 0.0
H1095 H 0.23645 0.07519 0.06391 0.0
H1096 H 0.1821 0.01375 0.04253 0.0
H1097 H 0.14085 0.01391 0.03421 0.0
C1098 C 0.65768 0.45081 0.00831 0.0
C1099 C 0.68258 0.45418 0.03144 0.0
C1100 C 0.65415 0.50075 0.05582 0.0
C1101 C 0.6296 0.49779 0.03222 0.0
N1102 N 0.61038 0.47474 0.98219 0.0
N1103 N 0.70744 0.48451 0.07422 0.0
C1104 C 0.63207 0.47417 0.00729 0.0
C1105 C 0.68186 0.48003 0.05404 0.0
N1106 N 0.65829 0.42499 0.98777 0.0
N1107 N 0.64999 0.52188 0.08131 0.0
H1108 H 0.7269 0.46832 0.07619 0.0
H1109 H 0.71043 0.50527 0.08773 0.0
H1110 H 0.6303 0.53785 0.08348 0.0
H1111 H 0.66477 0.52217 0.10181 0.0
H1112 H 0.63909 0.41902 0.973 0.0
H1113 H 0.67752 0.40831 0.98679 0.0
H1114 H 0.61241 0.46014 0.96152 0.0
H1115 H 0.59164 0.49189 0.98055 0.0
C1116 C 0.85171 0.45868 0.23039 0.0
C1117 C 0.83712 0.48929 0.23548 0.0
C1118 C 0.7931 0.46399 0.26792 0.0
C1119 C 0.81148 0.43494 0.26852 0.0
N1120 N 0.86123 0.406 0.25466 0.0
N1121 N 0.79439 0.52181 0.26145 0.0
C1122 C 0.84147 0.43245 0.25058 0.0
C1123 C 0.80757 0.49224 0.25441 0.0
N1124 N 0.87586 0.45503 0.20671 0.0
N1125 N 0.76176 0.46437 0.27983 0.0
H1126 H 0.80372 0.54326 0.2519 0.0
H1127 H 0.77521 0.52514 0.27855 0.0
H1128 H 0.75051 0.44377 0.28939 0.0
H1129 H 0.74615 0.48421 0.27724 0.0
H1130 H 0.88568 0.43268 0.20015 0.0
H1131 H 0.88344 0.47411 0.19129 0.0
H1132 H 0.88464 0.40433 0.24427 0.0
H1133 H 0.85576 0.38731 0.27142 0.0
C1134 C 0.89727 0.60731 0.49487 0.0
C1135 C 0.87826 0.61261 0.52431 0.0
C1136 C 0.91653 0.57758 0.55515 0.0
C1137 C 0.93794 0.57607 0.52674 0.0
N1138 N 0.95041 0.59513 0.47075 0.0
N1139 N 0.87192 0.60558 0.58372 0.0
C1140 C 0.92861 0.59217 0.49679 0.0
C1141 C 0.88832 0.59825 0.55476 0.0
N1142 N 0.88511 0.61629 0.46479 0.0
N1143 N 0.92269 0.55855 0.58235 0.0
H1144 H 0.8512 0.62035 0.58459 0.0
H1145 H 0.88027 0.59908 0.60713 0.0
H1146 H 0.94266 0.54291 0.58325 0.0
H1147 H 0.90648 0.55592 0.60252 0.0
H1148 H 0.8963 0.61024 0.44216 0.0
H1149 H 0.86209 0.6268 0.46245 0.0
H1150 H 0.94628 0.60963 0.44984 0.0
H1151 H 0.97397 0.58587 0.47145 0.0
C1152 C 0.26125 0.09553 0.30744 0.0
C1153 C 0.22766 0.09013 0.30436 0.0
C1154 C 0.21462 0.14573 0.3185 0.0
C1155 C 0.24811 0.15156 0.32 0.0
N1156 N 0.30364 0.13495 0.30994 0.0
N1157 N 0.17304 0.11119 0.29897 0.0
C1158 C 0.2716 0.12728 0.31271 0.0
C1159 C 0.20448 0.1156 0.30753 0.0
N1160 N 0.28296 0.07027 0.30666 0.0
N1161 N 0.19266 0.16887 0.32845 0.0
H1162 H 0.16507 0.08962 0.28957 0.0
H1163 H 0.15568 0.12968 0.29802 0.0
H1164 H 0.19964 0.19125 0.33674 0.0
H1165 H 0.16783 0.16499 0.33118 0.0
H1166 H 0.30728 0.07228 0.31242 0.0
H1167 H 0.27621 0.04672 0.30235 0.0
H1168 H 0.32174 0.1191 0.3014 0.0
H1169 H 0.31179 0.15815 0.31369 0.0
C1170 C 0.3207 0.00661 0.53942 0.0
C1171 C 0.32106 0.97541 0.55435 0.0
C1172 C 0.38001 0.97197 0.5474 0.0
C1173 C 0.37992 0.00356 0.53365 0.0
N1174 N 0.35174 0.05396 0.52445 0.0
N1175 N 0.35117 0.93301 0.58186 0.0
C1176 C 0.35068 0.02188 0.53215 0.0
C1177 C 0.35086 0.95964 0.56145 0.0
N1178 N 0.29205 0.02093 0.53052 0.0
N1179 N 0.40745 0.95308 0.54529 0.0
H1180 H 0.33006 0.92438 0.59355 0.0
H1181 H 0.37244 0.92196 0.59009 0.0
H1182 H 0.42884 0.96067 0.5334 0.0
H1183 H 0.40798 0.92881 0.55225 0.0
H1184 H 0.29078 0.04197 0.51609 0.0
H1185 H 0.26953 0.01072 0.53565 0.0
H1186 H 0.33147 0.06928 0.52592 0.0
H1187 H 0.37352 0.06579 0.5197 0.0
C1188 C 0.88896 0.67421 0.2538 0.0
C1189 C 0.87176 0.64556 0.2614 0.0
C1190 C 0.82115 0.67176 0.24489 0.0
C1191 C 0.837 0.7016 0.2442 0.0
N1192 N 0.88663 0.72869 0.23084 0.0
N1193 N 0.82113 0.61725 0.26657 0.0
C1194 C 0.87129 0.70217 0.24364 0.0
C1195 C 0.83777 0.64426 0.25727 0.0
N1196 N 0.92191 0.67476 0.25664 0.0
N1197 N 0.79125 0.6693 0.23156 0.0
H1198 H 0.8323 0.59672 0.27669 0.0
H1199 H 0.79588 0.61635 0.26724 0.0
H1200 H 0.78059 0.68815 0.21802 0.0
H1201 H 0.77951 0.64752 0.22937 0.0
H1202 H 0.93531 0.69572 0.25534 0.0
H1203 H 0.93601 0.65433 0.26187 0.0
H1204 H 0.91162 0.73009 0.22694 0.0
H1205 H 0.87379 0.748 0.22023 0.0
C1206 C 0.75063 0.44883 0.79611 0.0
C1207 C 0.73234 0.4526 0.82619 0.0
C1208 C 0.75138 0.40033 0.8469 0.0
C1209 C 0.76758 0.39526 0.81569 0.0
N1210 N 0.79149 0.41764 0.76535 0.0
N1211 N 0.72749 0.43944 0.88461 0.0
C1212 C 0.77021 0.42065 0.79185 0.0
C1213 C 0.7367 0.43074 0.85313 0.0
N1214 N 0.74783 0.47127 0.77103 0.0
N1215 N 0.74785 0.37573 0.86966 0.0
H1216 H 0.71845 0.46246 0.88986 0.0
H1217 H 0.7325 0.42545 0.90567 0.0
H1218 H 0.75754 0.35274 0.86619 0.0
H1219 H 0.73284 0.37737 0.89086 0.0
H1220 H 0.7573 0.46809 0.74703 0.0
H1221 H 0.73475 0.4928 0.77393 0.0
H1222 H 0.79658 0.43621 0.74838 0.0
H1223 H 0.8064 0.39728 0.76214 0.0
C1224 C 0.06347 0.91807 0.93776 0.0
C1225 C 0.04175 0.89382 0.94998 0.0
C1226 C 0.02532 0.93005 0.99619 0.0
C1227 C 0.04737 0.95419 0.98427 0.0
N1228 N 0.0918 0.96798 0.94707 0.0
N1229 N 0.00644 0.87495 0.9946 0.0
C1230 C 0.06755 0.94725 0.95589 0.0
C1231 C 0.02436 0.89922 0.98051 0.0
N1232 N 0.08043 0.91317 0.90854 0.0
N1233 N 1.00341 0.93725 0.02121 0.0
H1234 H 1.00341 0.85298 0.98324 0.0
H1235 H 0.99663 0.87552 0.01872 0.0
H1236 H 1.00247 0.95926 0.03296 0.0
H1237 H 0.98398 0.92278 0.02826 0.0
H1238 H 0.09294 0.93112 0.89548 0.0
H1239 H 0.08114 0.89114 0.89658 0.0
H1240 H 0.1097 0.96325 0.92897 0.0
H1241 H 0.0958 0.989 0.95993 0.0
C1242 C 0.90134 0.29523 0.69553 0.0
C1243 C 0.92874 0.30983 0.70883 0.0
C1244 C 0.89333 0.34001 0.74731 0.0
C1245 C 0.86625 0.32474 0.73413 0.0
N1246 N 0.84461 0.30271 0.68451 0.0
N1247 N 0.94965 0.35435 0.73904 0.0
C1248 C 0.87013 0.30707 0.7046 0.0
C1249 C 0.92452 0.33475 0.73234 0.0
N1250 N 0.90485 0.26931 0.67532 0.0
N1251 N 0.88906 0.35958 0.774 0.0
H1252 H 0.97241 0.35247 0.7272 0.0
H1253 H 0.94703 0.37462 0.75372 0.0
H1254 H 0.86605 0.36672 0.78295 0.0
H1255 H 0.90817 0.36797 0.78756 0.0
H1256 H 0.88512 0.25633 0.66764 0.0
H1257 H 0.92733 0.25873 0.66921 0.0
H1258 H 0.84709 0.29133 0.6617 0.0
H1259 H 0.82262 0.31509 0.68783 0.0
C1260 C 0.51137 0.17494 0.45819 0.0
C1261 C 0.52128 0.20181 0.47654 0.0
C1262 C 0.52957 0.16498 0.5251 0.0
C1263 C 0.52211 0.13774 0.50601 0.0
N1264 N 0.51298 0.11699 0.45151 0.0
N1265 N 0.54699 0.22046 0.52535 0.0
C1266 C 0.51498 0.14282 0.47174 0.0
C1267 C 0.53245 0.19617 0.50938 0.0
N1268 N 0.49705 0.18 0.42831 0.0
N1269 N 0.53237 0.16155 0.55874 0.0
H1270 H 0.55036 0.24319 0.51452 0.0
H1271 H 0.55876 0.21711 0.54774 0.0
H1272 H 0.52947 0.13966 0.57145 0.0
H1273 H 0.53427 0.18095 0.57448 0.0
H1274 H 0.48582 0.16191 0.41562 0.0
H1275 H 0.49383 0.20279 0.41752 0.0
H1276 H 0.51153 0.11916 0.42577 0.0
H1277 H 0.5161 0.09328 0.45985 0.0
C1278 C 0.60334 0.78999 0.21368 0.0
C1279 C 0.59842 0.7773 0.18178 0.0
C1280 C 0.64366 0.73907 0.18908 0.0
C1281 C 0.64778 0.75095 0.2213 0.0
N1282 N 0.62839 0.7825 0.26721 0.0
N1283 N 0.60802 0.73445 0.14278 0.0
C1284 C 0.6264 0.77472 0.23455 0.0
C1285 C 0.6168 0.75017 0.17055 0.0
N1286 N 0.5874 0.81756 0.22328 0.0
N1287 N 0.66635 0.71843 0.17557 0.0
H1288 H 0.5878 0.7412 0.12912 0.0
H1289 H 0.61876 0.71283 0.13521 0.0
H1290 H 0.68635 0.70985 0.18856 0.0
H1291 H 0.66672 0.7118 0.15074 0.0
H1292 H 0.59264 0.82984 0.2447 0.0
H1293 H 0.5706 0.82971 0.20854 0.0
H1294 H 0.61174 0.7976 0.27947 0.0
H1295 H 0.64519 0.77141 0.28284 0.0
C1296 C 0.0524 0.24338 0.53703 0.0
C1297 C 0.0533 0.2446 0.57217 0.0
C1298 C 0.07904 0.19118 0.57444 0.0
C1299 C 0.07396 0.18827 0.54017 0.0
N1300 N 0.05422 0.20951 0.48854 0.0
N1301 N 0.06583 0.21938 0.62513 0.0
C1302 C 0.06062 0.21399 0.5212 0.0
C1303 C 0.06635 0.21848 0.59116 0.0
N1304 N 0.04342 0.27011 0.51897 0.0
N1305 N 0.09627 0.16764 0.59072 0.0
H1306 H 0.05806 0.23942 0.6385 0.0
H1307 H 0.07145 0.19964 0.64034 0.0
H1308 H 0.10577 0.14741 0.57863 0.0
H1309 H 0.10364 0.16937 0.61512 0.0
H1310 H 0.04531 0.27165 0.49314 0.0
H1311 H 0.03608 0.29167 0.52996 0.0
H1312 H 0.04119 0.22594 0.47406 0.0
H1313 H 0.06037 0.18824 0.47638 0.0
C1314 C 0.65122 0.25906 0.36357 0.0
C1315 C 0.62948 0.28603 0.36309 0.0
C1316 C 0.6658 0.31217 0.32114 0.0
C1317 C 0.68959 0.28718 0.32518 0.0
N1318 N 0.70653 0.23941 0.35578 0.0
N1319 N 0.6186 0.34054 0.34442 0.0
C1320 C 0.68263 0.26118 0.34773 0.0
C1321 C 0.63736 0.31315 0.34252 0.0
N1322 N 0.64155 0.23091 0.37854 0.0
N1323 N 0.66973 0.33445 0.29604 0.0
H1324 H 0.59775 0.34236 0.35961 0.0
H1325 H 0.62518 0.36227 0.33307 0.0
H1326 H 0.68957 0.33394 0.27943 0.0
H1327 H 0.65183 0.35127 0.2896 0.0
H1328 H 0.65492 0.20947 0.37679 0.0
H1329 H 0.61857 0.22815 0.38967 0.0
H1330 H 0.70384 0.22209 0.37466 0.0
H1331 H 0.73025 0.24075 0.34631 0.0
C1332 C 0.55341 0.90919 0.08577 0.0
C1333 C 0.53276 0.90475 0.11421 0.0
C1334 C 0.50694 0.95744 0.10428 0.0
C1335 C 0.52931 0.963 0.07748 0.0
N1336 N 0.57751 0.9463 0.04587 0.0
N1337 N 0.49289 0.92591 0.15364 0.0
C1338 C 0.55337 0.93937 0.06879 0.0
C1339 C 0.51054 0.92934 0.12453 0.0
N1340 N 0.57328 0.88452 0.07504 0.0
N1341 N 0.48144 0.97848 0.10945 0.0
H1342 H 0.49386 0.90527 0.16865 0.0
H1343 H 0.47916 0.94448 0.16434 0.0
H1344 H 0.47756 0.99881 0.09436 0.0
H1345 H 0.46241 0.97429 0.12647 0.0
H1346 H 0.5852 0.88455 0.05186 0.0
H1347 H 0.57668 0.86314 0.0886 0.0
H1348 H 0.59809 0.93178 0.04204 0.0
H1349 H 0.57873 0.9678 0.0324 0.0
C1350 C 0.92687 0.75848 0.83632 0.0
C1351 C 0.93559 0.78522 0.85565 0.0
C1352 C 0.88461 0.81313 0.839 0.0
C1353 C 0.87628 0.78669 0.81888 0.0
N1354 N 0.89361 0.73742 0.79298 0.0
N1355 N 0.92558 0.84053 0.86977 0.0
C1356 C 0.89866 0.76029 0.81608 0.0
C1357 C 0.91546 0.8134 0.85489 0.0
N1358 N 0.9455 0.73096 0.83754 0.0
N1359 N 0.86216 0.83708 0.84509 0.0
H1360 H 0.9471 0.84131 0.88265 0.0
H1361 H 0.91414 0.86293 0.86696 0.0
H1362 H 0.83927 0.83783 0.83491 0.0
H1363 H 0.86498 0.85483 0.86258 0.0
H1364 H 0.93846 0.7092 0.82796 0.0
H1365 H 0.96753 0.72946 0.84962 0.0
H1366 H 0.91037 0.71925 0.78703 0.0
H1367 H 0.87389 0.73839 0.77731 0.0
C1368 C 0.92902 0.08768 0.87025 0.0
C1369 C 0.94007 0.06866 0.84315 0.0
C1370 C 0.99426 0.06431 0.86597 0.0
C1371 C 0.98283 0.0819 0.89366 0.0
N1372 N 0.93917 0.10617 0.9257 0.0
N1373 N 0.98063 0.03333 0.81825 0.0
C1374 C 0.95011 0.09245 0.89681 0.0
C1375 C 0.97206 0.05542 0.8418 0.0
N1376 N 0.89896 0.10213 0.87003 0.0
N1377 N 0.02653 0.05646 0.86291 0.0
H1378 H 0.96444 0.02536 0.80093 0.0
H1379 H 1.00265 0.02064 0.81772 0.0
H1380 H 0.04311 0.06247 0.88076 0.0
H1381 H 0.03727 0.04632 0.84175 0.0
H1382 H 0.89115 0.11941 0.88699 0.0
H1383 H 0.88228 0.09832 0.85165 0.0
H1384 H 0.91478 0.11113 0.93125 0.0
H1385 H 0.95441 0.11068 0.94523 0.0
C1386 C 0.76174 0.29204 0.5939 0.0
C1387 C 0.75832 0.25822 0.59254 0.0
C1388 C 0.7275 0.25826 0.64548 0.0
C1389 C 0.73495 0.29096 0.64896 0.0
N1390 N 0.75959 0.33937 0.62838 0.0
N1391 N 0.73831 0.20844 0.61657 0.0
C1392 C 0.75171 0.30814 0.62338 0.0
C1393 C 0.74102 0.24111 0.6181 0.0
N1394 N 0.77481 0.3086 0.5672 0.0
N1395 N 0.70772 0.24382 0.66891 0.0
H1396 H 0.74683 0.1951 0.59635 0.0
H1397 H 0.72901 0.19409 0.63593 0.0
H1398 H 0.69792 0.25625 0.68924 0.0
H1399 H 0.69889 0.22069 0.66701 0.0
H1400 H 0.77507 0.33359 0.56538 0.0
H1401 H 0.78364 0.29735 0.54574 0.0
H1402 H 0.77512 0.35248 0.61267 0.0
H1403 H 0.75155 0.35176 0.64946 0.0
C1404 C 0.60697 0.04386 0.4173 0.0
C1405 C 0.59884 0.01864 0.39642 0.0
C1406 C 0.56208 0.99672 0.43939 0.0
C1407 C 0.56708 0.02448 0.45833 0.0
N1408 N 0.58802 0.07844 0.46092 0.0
N1409 N 0.56711 0.97223 0.38523 0.0
C1410 C 0.58787 0.04915 0.44618 0.0
C1411 C 0.57589 0.99532 0.40673 0.0
N1412 N 0.63326 0.06249 0.4099 0.0
N1413 N 0.54534 0.9714 0.45301 0.0
H1414 H 0.57774 0.96996 0.36152 0.0
H1415 H 0.54796 0.9567 0.3901 0.0
H1416 H 0.53546 0.97144 0.47718 0.0
H1417 H 0.54363 0.94934 0.44147 0.0
H1418 H 0.64198 0.07919 0.42624 0.0
H1419 H 0.64849 0.05876 0.38919 0.0
H1420 H 0.60029 0.09815 0.45074 0.0
H1421 H 0.57294 0.08431 0.48106 0.0
C1422 C 0.78783 0.82096 0.1198 0.0
C1423 C 0.79463 0.85439 0.11729 0.0
C1424 C 0.79075 0.8567 0.17871 0.0
C1425 C 0.78828 0.82259 0.18123 0.0
N1426 N 0.78907 0.77176 0.1534 0.0
N1427 N 0.80711 0.90319 0.14525 0.0
C1428 C 0.78782 0.80461 0.15153 0.0
C1429 C 0.79708 0.87206 0.14701 0.0
N1430 N 0.78036 0.80489 0.09183 0.0
N1431 N 0.78597 0.8747 0.20653 0.0
H1432 H 0.81223 0.91533 0.12286 0.0
H1433 H 0.8131 0.91611 0.16603 0.0
H1434 H 0.78083 0.86461 0.22998 0.0
H1435 H 0.7839 0.8997 0.20587 0.0
H1436 H 0.77187 0.78146 0.09232 0.0
H1437 H 0.77949 0.81606 0.06842 0.0
H1438 H 0.79253 0.75735 0.13268 0.0
H1439 H 0.78962 0.75883 0.17584 0.0
C1440 C 0.01339 0.0724 0.66858 0.0
C1441 C 0.98261 0.05925 0.67666 0.0
C1442 C 0.97775 0.04177 0.62014 0.0
C1443 C 0.01014 0.05104 0.61235 0.0
N1444 N 0.0611 0.07027 0.63196 0.0
N1445 N 0.94232 0.02071 0.66306 0.0
C1446 C 0.0288 0.06493 0.63741 0.0
C1447 C 0.96712 0.04034 0.65344 0.0
N1448 N 0.02731 0.09284 0.68987 0.0
N1449 N 0.95583 0.0371 0.59601 0.0
H1450 H 0.93511 0.01762 0.68787 0.0
H1451 H 0.93206 0.00469 0.64694 0.0
H1452 H 0.96051 0.04236 0.57107 0.0
H1453 H 0.9314 0.03268 0.60143 0.0
H1454 H 0.04805 0.10579 0.6836 0.0
H1455 H 0.01665 0.09877 0.71282 0.0
H1456 H 0.07626 0.07758 0.65052 0.0
H1457 H 0.07346 0.06451 0.60989 0.0
C1458 C 0.78028 0.24834 0.42531 0.0
C1459 C 0.80142 0.22119 0.42879 0.0
C1460 C 0.82837 0.23457 0.37529 0.0
C1461 C 0.80488 0.25929 0.37011 0.0
N1462 N 0.75703 0.28907 0.38915 0.0
N1463 N 0.84479 0.1871 0.40685 0.0
C1464 C 0.78088 0.26652 0.39511 0.0
C1465 C 0.82532 0.21394 0.40373 0.0
N1466 N 0.75905 0.25646 0.45067 0.0
N1467 N 0.85399 0.23143 0.35312 0.0
H1468 H 0.8446 0.1722 0.42793 0.0
H1469 H 0.8599 0.17837 0.38778 0.0
H1470 H 0.85688 0.24661 0.33232 0.0
H1471 H 0.87379 0.216 0.35672 0.0
H1472 H 0.74686 0.27858 0.45198 0.0
H1473 H 0.75446 0.24163 0.47132 0.0
H1474 H 0.73594 0.29156 0.40381 0.0
H1475 H 0.75708 0.30447 0.36854 0.0
C1476 C 0.57485 0.00873 0.22478 0.0
C1477 C 0.59336 0.02687 0.24666 0.0
C1478 C 0.58355 0.07553 0.21296 0.0
C1479 C 0.56359 0.05783 0.19254 0.0
N1480 N 0.53312 0.01028 0.18359 0.0
N1481 N 0.6064 0.07949 0.26691 0.0
C1482 C 0.55679 0.02526 0.20015 0.0
C1483 C 0.59499 0.06091 0.24243 0.0
N1484 N 0.57619 0.97586 0.22581 0.0
N1485 N 0.59301 0.10568 0.20337 0.0
H1486 H 0.61336 0.07006 0.28971 0.0
H1487 H 0.60528 0.10455 0.26607 0.0
H1488 H 0.58542 0.11705 0.18155 0.0
H1489 H 0.61063 0.1182 0.21556 0.0
H1490 H 0.56562 0.96178 0.20812 0.0
H1491 H 0.59053 0.96257 0.24217 0.0
H1492 H 0.5252 0.98724 0.18985 0.0
H1493 H 0.51916 0.02229 0.16585 0.0
C1494 C 0.7924 0.87486 0.91018 0.0
C1495 C 0.77976 0.85927 0.93937 0.0
C1496 C 0.75448 0.81931 0.90351 0.0
C1497 C 0.76783 0.83472 0.87421 0.0
N1498 N 0.78463 0.8867 0.85199 0.0
N1499 N 0.74165 0.82146 0.963 0.0
C1500 C 0.78236 0.86534 0.87812 0.0
C1501 C 0.75885 0.83274 0.93576 0.0
N1502 N 0.81502 0.89816 0.91269 0.0
N1503 N 0.73642 0.7924 0.90057 0.0
H1504 H 0.74323 0.83135 0.98649 0.0
H1505 H 0.72362 0.80439 0.96203 0.0
H1506 H 0.72653 0.78595 0.87819 0.0
H1507 H 0.73089 0.77673 0.92034 0.0
H1508 H 0.82774 0.90764 0.89208 0.0
H1509 H 0.82338 0.90571 0.9354 0.0
H1510 H 0.79311 0.90996 0.85438 0.0
H1511 H 0.77299 0.88369 0.82974 0.0
C1512 C 0.89577 0.99033 0.06766 0.0
C1513 C 0.88648 0.97173 0.0402 0.0
C1514 C 0.93599 0.98944 0.00916 0.0
C1515 C 0.94507 0.00852 0.03645 0.0
N1516 N 0.92956 0.03244 0.08857 0.0
N1517 N 0.89483 0.9587 0.98247 0.0
C1518 C 0.92376 0.01037 0.06483 0.0
C1519 C 0.90552 0.97324 0.01016 0.0
N1520 N 0.87777 0.98882 0.09671 0.0
N1521 N 0.9575 0.98461 0.98315 0.0
H1522 H 0.87411 0.94478 0.98251 0.0
H1523 H 0.90512 0.96239 0.95879 0.0
H1524 H 0.98024 0.99492 0.98141 0.0
H1525 H 0.95434 0.96781 0.96476 0.0
H1526 H 0.88535 0.99793 0.11902 0.0
H1527 H 0.85562 0.97716 0.09893 0.0
H1528 H 0.91353 0.03759 0.10828 0.0
H1529 H 0.94913 0.04796 0.08684 0.0
C1530 C 0.43545 0.64838 0.06652 0.0
C1531 C 0.41183 0.64194 0.04281 0.0
C1532 C 0.4402 0.59179 0.02793 0.0
C1533 C 0.4631 0.59748 0.05272 0.0
N1534 N 0.47945 0.6273 0.09985 0.0
N1535 N 0.38836 0.60561 0.00439 0.0
C1536 C 0.45978 0.62468 0.07332 0.0
C1537 C 0.41301 0.61289 0.02485 0.0
N1538 N 0.43494 0.67734 0.08204 0.0
N1539 N 0.4456 0.56773 0.00562 0.0
H1540 H 0.36928 0.62145 -0.00111 0.0
H1541 H 0.38569 0.58294 0.9944 0.0
H1542 H 0.46492 0.55133 0.00679 0.0
H1543 H 0.43231 0.56537 0.98425 0.0
H1544 H 0.45357 0.685 0.0967 0.0
H1545 H 0.41672 0.69474 0.07854 0.0
H1546 H 0.47654 0.64501 0.11766 0.0
H1547 H 0.49699 0.60985 0.1058 0.0
C1548 C 0.22873 0.59408 0.80076 0.0
C1549 C 0.19472 0.59756 0.79699 0.0
C1550 C 0.20221 0.64776 0.7652 0.0
C1551 C 0.23615 0.6435 0.76775 0.0
N1552 N 0.28267 0.61266 0.78465 0.0
N1553 N 0.14881 0.62519 0.77254 0.0
C1554 C 0.24969 0.61651 0.78448 0.0
C1555 C 0.1813 0.62383 0.77854 0.0
N1556 N 0.24069 0.56996 0.82081 0.0
N1557 N 0.19013 0.67526 0.7506 0.0
H1558 H 0.13238 0.60869 0.78253 0.0
H1559 H 0.13822 0.64136 0.75585 0.0
H1560 H 0.20493 0.69219 0.73857 0.0
H1561 H 0.16573 0.68218 0.75168 0.0
H1562 H 0.26495 0.56738 0.82688 0.0
H1563 H 0.22581 0.55348 0.83346 0.0
H1564 H 0.29463 0.59231 0.79397 0.0
H1565 H 0.29828 0.62934 0.77336 0.0
C1566 C 0.16677 0.47675 0.56574 0.0
C1567 C 0.18593 0.47148 0.53638 0.0
C1568 C 0.14664 0.50492 0.50496 0.0
C1569 C 0.12511 0.50592 0.53328 0.0
N1570 N 0.11358 0.48837 0.59009 0.0
N1571 N 0.19275 0.47861 0.47705 0.0
C1572 C 0.13504 0.49098 0.56365 0.0
C1573 C 0.17565 0.48532 0.50574 0.0
N1574 N 0.17924 0.46867 0.59594 0.0
N1575 N 0.13989 0.52353 0.47757 0.0
H1576 H 0.21427 0.46504 0.47667 0.0
H1577 H 0.18448 0.48458 0.45347 0.0
H1578 H 0.11948 0.5387 0.47644 0.0
H1579 H 0.15602 0.52641 0.45737 0.0
H1580 H 0.16805 0.47499 0.61849 0.0
H1581 H 0.20246 0.45865 0.59844 0.0
H1582 H 0.11818 0.47436 0.61124 0.0
H1583 H 0.08984 0.49729 0.58984 0.0
C1584 C 0.87795 0.95327 0.77131 0.0
C1585 C 0.88046 0.97475 0.74358 0.0
C1586 C 0.84668 0.93988 0.71134 0.0
C1587 C 0.84078 0.92094 0.74021 0.0
N1588 N 0.84709 0.91108 0.79892 0.0
N1589 N 0.86544 0.99034 0.68775 0.0
C1590 C 0.85578 0.92769 0.77049 0.0
C1591 C 0.86445 0.96852 0.71362 0.0
N1592 N 0.89612 0.9577 0.79867 0.0
N1593 N 0.83535 0.93006 0.68173 0.0
H1594 H 0.87879 0.01131 0.68794 0.0
H1595 H 0.85133 0.9888 0.66684 0.0
H1596 H 0.82214 0.90905 0.67979 0.0
H1597 H 0.8413 0.94095 0.65891 0.0
H1598 H 0.89813 0.94073 0.81792 0.0
H1599 H 0.91107 0.97736 0.80127 0.0
H1600 H 0.8543 0.9172 0.8225 0.0
H1601 H 0.83043 0.8926 0.79947 0.0
C1602 C 0.71645 0.10754 0.52884 0.0
C1603 C 0.7134 0.1411 0.53432 0.0
C1604 C 0.66133 0.13325 0.56396 0.0
C1605 C 0.66555 0.09966 0.56042 0.0
N1606 N 0.69739 0.05389 0.54306 0.0
N1607 N 0.6857 0.18569 0.5614 0.0
C1608 C 0.69333 0.08654 0.54396 0.0
C1609 C 0.6865 0.15399 0.55292 0.0
N1610 N 0.74066 0.09603 0.50808 0.0
N1611 N 0.63282 0.14522 0.5773 0.0
H1612 H 0.7035 0.20191 0.5538 0.0
H1613 H 0.66875 0.19551 0.57819 0.0
H1614 H 0.61456 0.1305 0.58709 0.0
H1615 H 0.62637 0.16955 0.57679 0.0
H1616 H 0.74255 0.07226 0.50057 0.0
H1617 H 0.75764 0.11087 0.49609 0.0
H1618 H 0.71848 0.04237 0.53428 0.0
H1619 H 0.68023 0.03819 0.55338 0.0
C1620 C 0.22452 0.42235 0.83995 0.0
C1621 C 0.1956 0.42745 0.82196 0.0
C1622 C 0.20704 0.37874 0.79146 0.0
C1623 C 0.23305 0.37102 0.81261 0.0
N1624 N 0.26118 0.38217 0.86284 0.0
N1625 N 0.15409 0.4036 0.78946 0.0
C1626 C 0.24015 0.39172 0.83883 0.0
C1627 C 0.18504 0.40337 0.80065 0.0
N1628 N 0.23839 0.44684 0.85622 0.0
N1629 N 0.20456 0.36456 0.76138 0.0
H1630 H 0.13627 0.41998 0.79766 0.0
H1631 H 0.14533 0.38498 0.77545 0.0
H1632 H 0.22278 0.34968 0.75134 0.0
H1633 H 0.18682 0.37138 0.74454 0.0
H1634 H 0.26097 0.44439 0.86708 0.0
H1635 H 0.22954 0.47045 0.85562 0.0
H1636 H 0.26489 0.39569 0.88388 0.0
H1637 H 0.27204 0.35931 0.86363 0.0
C1638 C 0.34012 0.64053 0.24466 0.0
C1639 C 0.37207 0.64408 0.23086 0.0
C1640 C 0.36713 0.70213 0.23517 0.0
C1641 C 0.33475 0.69906 0.24795 0.0
N1642 N 0.28762 0.66601 0.2558 0.0
N1643 N 0.41037 0.67807 0.20168 0.0
C1644 C 0.32018 0.66847 0.24938 0.0
C1645 C 0.38358 0.6749 0.22224 0.0
N1646 N 0.32952 0.61111 0.25551 0.0
N1647 N 0.38294 0.73055 0.23655 0.0
H1648 H 0.42247 0.65826 0.19119 0.0
H1649 H 0.41813 0.70021 0.19217 0.0
H1650 H 0.3723 0.75124 0.24614 0.0
H1651 H 0.40761 0.7328 0.23075 0.0
H1652 H 0.30797 0.60807 0.26931 0.0
H1653 H 0.34316 0.58993 0.2531 0.0
H1654 H 0.2753 0.64449 0.25414 0.0
H1655 H 0.27248 0.68601 0.25959 0.0
C1656 C 0.55224 0.6784 0.59027 0.0
C1657 C 0.53246 0.68454 0.61916 0.0
C1658 C 0.50713 0.63106 0.61249 0.0
C1659 C 0.52899 0.62374 0.58552 0.0
N1660 N 0.57532 0.6395 0.55142 0.0
N1661 N 0.49112 0.66608 0.65822 0.0
C1662 C 0.55205 0.64738 0.57493 0.0
C1663 C 0.50997 0.66058 0.63032 0.0
N1664 N 0.57156 0.7022 0.57743 0.0
N1665 N 0.48261 0.6103 0.6202 0.0
H1666 H 0.48977 0.6883 0.6698 0.0
H1667 H 0.47762 0.64846 0.67067 0.0
H1668 H 0.47981 0.58881 0.60779 0.0
H1669 H 0.46358 0.61525 0.63698 0.0
H1670 H 0.58346 0.70108 0.5543 0.0
H1671 H 0.57392 0.7243 0.58875 0.0
H1672 H 0.59533 0.65356 0.54541 0.0
H1673 H 0.57629 0.61745 0.53966 0.0
C1674 C 0.67707 0.26189 0.89326 0.0
C1675 C 0.6592 0.29091 0.89885 0.0
C1676 C 0.69056 0.31803 0.85461 0.0
C1677 C 0.71072 0.29005 0.85124 0.0
N1678 N 0.72591 0.2366 0.87019 0.0
N1679 N 0.65384 0.34829 0.89063 0.0
C1680 C 0.70496 0.26242 0.87165 0.0
C1681 C 0.66732 0.31946 0.88114 0.0
N1682 N 0.66641 0.2335 0.90695 0.0
N1683 N 0.69323 0.34327 0.83249 0.0
H1684 H 0.63732 0.35042 0.91065 0.0
H1685 H 0.66162 0.37039 0.88104 0.0
H1686 H 0.71044 0.34419 0.81317 0.0
H1687 H 0.67658 0.36243 0.83176 0.0
H1688 H 0.67648 0.21116 0.90085 0.0
H1689 H 0.6456 0.23181 0.92218 0.0
H1690 H 0.72521 0.21745 0.88725 0.0
H1691 H 0.74529 0.23525 0.85303 0.0
C1692 C 0.01262 0.41338 0.11944 0.0
C1693 C 0.03748 0.38968 0.11365 0.0
C1694 C 0.06326 0.4279 0.07301 0.0
C1695 C 0.0409 0.45299 0.0825 0.0
N1696 N 0.99786 0.47009 0.12054 0.0
N1697 N 0.089 0.37636 0.08718 0.0
C1698 C 0.01641 0.44574 0.10713 0.0
C1699 C 0.0634 0.39743 0.09085 0.0
N1700 N 0.98473 0.40478 0.13623 0.0
N1701 N 0.08372 0.43264 0.04611 0.0
H1702 H 0.08983 0.35397 0.09929 0.0
H1703 H 0.11038 0.38204 0.07411 0.0
H1704 H 0.08388 0.45399 0.03207 0.0
H1705 H 0.09823 0.41441 0.03581 0.0
H1706 H 0.96437 0.41993 0.13832 0.0
H1707 H 0.98066 0.38131 0.1448 0.0
H1708 H 0.98198 0.46677 0.14088 0.0
H1709 H 1.00094 0.49422 0.11396 0.0
C1710 C 0.96774 0.82171 0.36025 0.0
C1711 C 0.98429 0.79283 0.35149 0.0
C1712 C 0.94811 0.78639 0.30533 0.0
C1713 C 0.92841 0.81193 0.3178 0.0
N1714 N 0.91698 0.85177 0.35934 0.0
N1715 N 0.99046 0.74667 0.31647 0.0
C1716 C 0.93771 0.82934 0.34565 0.0
C1717 C 0.97476 0.77495 0.324 0.0
N1718 N 0.98099 0.84197 0.38214 0.0
N1719 N 0.94148 0.77363 0.27535 0.0
H1720 H 0.01083 0.73828 0.32902 0.0
H1721 H 0.98228 0.73073 0.29908 0.0
H1722 H 0.92245 0.78234 0.26097 0.0
H1723 H 0.95644 0.75674 0.26342 0.0
H1724 H 0.97132 0.86469 0.38746 0.0
H1725 H 1.0036 0.83735 0.39225 0.0
H1726 H 0.92105 0.86276 0.38183 0.0
H1727 H 0.8943 0.85733 0.34977 0.0
C1728 C 0.53628 0.35297 0.04031 0.0
C1729 C 0.51875 0.34713 0.01135 0.0
C1730 C 0.48417 0.39456 0.02192 0.0
C1731 C 0.50465 0.4028 0.04773 0.0
N1732 N 0.55068 0.39171 0.08146 0.0
N1733 N 0.47769 0.3635 0.97243 0.0
C1734 C 0.5306 0.38225 0.05727 0.0
C1735 C 0.49269 0.36789 0.00182 0.0
N1736 N 0.558 0.33038 0.05166 0.0
N1737 N 0.45698 0.41293 0.01641 0.0
H1738 H 0.48374 0.34478 0.95644 0.0
H1739 H 0.46092 0.37975 0.96247 0.0
H1740 H 0.45088 0.43298 0.03065 0.0
H1741 H 0.43921 0.40687 -8e-05 0.0
H1742 H 0.56951 0.3319 0.07423 0.0
H1743 H 0.56252 0.30866 0.03971 0.0
H1744 H 0.57235 0.37985 0.0871 0.0
H1745 H 0.54634 0.41267 0.09483 0.0
C1746 C 0.93178 0.29274 0.24048 0.0
C1747 C 0.93582 0.28337 0.20677 0.0
C1748 C 0.87596 0.28295 0.20244 0.0
C1749 C 0.87204 0.28835 0.23713 0.0
N1750 N 0.89641 0.29643 0.2899 0.0
N1751 N 0.91158 0.26876 0.15556 0.0
C1752 C 0.90002 0.29317 0.25625 0.0
C1753 C 0.90779 0.2783 0.18778 0.0
N1754 N 0.95839 0.30108 0.25759 0.0
N1755 N 0.84919 0.28373 0.18312 0.0
H1756 H 0.93405 0.26787 0.14296 0.0
H1757 H 0.89273 0.26032 0.1417 0.0
H1758 H 0.82572 0.28767 0.19275 0.0
H1759 H 0.85028 0.28347 0.15726 0.0
H1760 H 0.95709 0.31154 0.28087 0.0
H1761 H 0.98193 0.29974 0.24745 0.0
H1762 H 0.91569 0.29617 0.30601 0.0
H1763 H 0.87384 0.29716 0.30226 0.0
C1764 C 0.08298 0.66736 0.47271 0.0
C1765 C 0.05713 0.68085 0.45412 0.0
C1766 C 0.0354 0.62734 0.44715 0.0
C1767 C 0.05602 0.61551 0.47228 0.0
N1768 N 0.10352 0.62169 0.5047 0.0
N1769 N 0.00734 0.67413 0.42498 0.0
C1770 C 0.08132 0.63476 0.48349 0.0
C1771 C 0.03318 0.66093 0.44126 0.0
N1772 N 0.10945 0.68533 0.47908 0.0
N1773 N 0.01867 0.60676 0.42834 0.0
H1774 H 1.00427 0.6988 0.42077 0.0
H1775 H 0.98742 0.66084 0.41845 0.0
H1776 H 0.0215 0.58191 0.43022 0.0
H1777 H 0.00527 0.61433 0.40798 0.0
H1778 H 0.13041 0.67598 0.48968 0.0
H1779 H 0.11176 0.70924 0.47132 0.0
H1780 H 0.11981 0.63513 0.51766 0.0
H1781 H 0.10508 0.59699 0.50978 0.0
C1782 C 0.64485 0.76311 0.72302 0.0
C1783 C 0.63144 0.79331 0.71255 0.0
C1784 C 0.67118 0.82036 0.7473 0.0
C1785 C 0.68681 0.79034 0.75487 0.0
N1786 N 0.67763 0.73319 0.76239 0.0
N1787 N 0.6314 0.85109 0.71552 0.0
C1788 C 0.67045 0.76167 0.74653 0.0
C1789 C 0.64442 0.82201 0.72517 0.0
N1790 N 0.63451 0.73562 0.70899 0.0
N1791 N 0.6802 0.847 0.76381 0.0
H1792 H 0.61017 0.85331 0.70212 0.0
H1793 H 0.64214 0.87303 0.71957 0.0
H1794 H 0.69697 0.84574 0.78273 0.0
H1795 H 0.66867 0.86939 0.76195 0.0
H1796 H 0.6463 0.71339 0.7118 0.0
H1797 H 0.61577 0.7354 0.69218 0.0
H1798 H 0.66466 0.71227 0.75938 0.0
H1799 H 0.69309 0.73117 0.78222 0.0
C1800 C 0.58732 0.51939 0.7295 0.0
C1801 C 0.58755 0.49024 0.74857 0.0
C1802 C 0.56321 0.46282 0.70261 0.0
C1803 C 0.56842 0.4903 0.68215 0.0
N1804 N 0.5917 0.5428 0.67431 0.0
N1805 N 0.58037 0.43252 0.75098 0.0
C1806 C 0.58196 0.51822 0.69507 0.0
C1807 C 0.57637 0.46145 0.73473 0.0
N1808 N 0.5914 0.54829 0.74423 0.0
N1809 N 0.54595 0.43797 0.69096 0.0
H1810 H 0.59176 0.42992 0.77365 0.0
H1811 H 0.57542 0.4106 0.74032 0.0
H1812 H 0.53613 0.43869 0.66734 0.0
H1813 H 0.53882 0.41835 0.70575 0.0
H1814 H 0.5884 0.57026 0.73167 0.0
H1815 H 0.59412 0.55059 0.76969 0.0
H1816 H 0.60489 0.56216 0.68233 0.0
H1817 H 0.58966 0.54238 0.64859 0.0
C1818 C 0.83055 0.32029 0.98757 0.0
C1819 C 0.83919 0.35307 0.98757 0.0
C1820 C 0.86753 0.34726 0.93381 0.0
C1821 C 0.85363 0.31669 0.93127 0.0
N1822 N 0.82333 0.27279 0.95469 0.0
N1823 N 0.8668 0.39829 0.96195 0.0
C1824 C 0.8361 0.30253 0.95822 0.0
C1825 C 0.8587 0.36657 0.96141 0.0
N1826 N 0.8172 0.30638 0.01568 0.0
N1827 N 0.88827 0.3579 0.90908 0.0
H1828 H 0.861 0.4131 0.98195 0.0
H1829 H 0.8779 0.41054 0.94204 0.0
H1830 H 0.89429 0.34412 0.88834 0.0
H1831 H 0.90143 0.37892 0.91019 0.0
H1832 H 0.81246 0.28196 0.01821 0.0
H1833 H 0.81354 0.31899 0.03765 0.0
H1834 H 0.80708 0.26231 0.97177 0.0
H1835 H 0.8282 0.25908 0.93362 0.0
C1836 C 0.99005 0.60808 0.16892 0.0
C1837 C 0.99434 0.5845 0.19423 0.0
C1838 C 0.03407 0.55505 0.16041 0.0
C1839 C 0.02727 0.57673 0.13373 0.0
N1840 N 0.0076 0.62844 0.11447 0.0
N1841 N 0.0272 0.5431 0.21945 0.0
C1842 C 0.00835 0.60506 0.1388 0.0
C1843 C 0.01904 0.5607 0.19181 0.0
N1844 N 0.96705 0.6319 0.17304 0.0
N1845 N 0.05241 0.52778 0.1551 0.0
H1846 H 0.01603 0.54712 0.24267 0.0
H1847 H 0.0468 0.52695 0.22009 0.0
H1848 H 0.0642 0.52279 0.1325 0.0
H1849 H 0.05459 0.50913 0.17257 0.0
H1850 H 0.95998 0.64777 0.15418 0.0
H1851 H 0.95424 0.63513 0.19554 0.0
H1852 H 0.99605 0.65073 0.11733 0.0
H1853 H 0.02099 0.62639 0.09217 0.0
C1854 C 0.81562 0.70437 0.41019 0.0
C1855 C 0.78767 0.70458 0.43183 0.0
C1856 C 0.75995 0.74034 0.39105 0.0
C1857 C 0.78645 0.73668 0.36775 0.0
N1858 N 0.83772 0.7106 0.35386 0.0
N1859 N 0.73155 0.72012 0.44086 0.0
C1860 C 0.8139 0.71762 0.37711 0.0
C1861 C 0.75944 0.72209 0.42181 0.0
N1862 N 0.84427 0.69213 0.42163 0.0
N1863 N 0.73563 0.76207 0.3843 0.0
H1864 H 0.73028 0.70756 0.46353 0.0
H1865 H 0.70915 0.72897 0.43312 0.0
H1866 H 0.73519 0.77587 0.36238 0.0
H1867 H 0.71747 0.76851 0.40157 0.0
H1868 H 0.86633 0.69404 0.40851 0.0
H1869 H 0.84658 0.68307 0.44582 0.0
H1870 H 0.85645 0.69398 0.358 0.0
H1871 H 0.83716 0.71895 0.32928 0.0
C1872 C 0.54967 0.56317 0.89859 0.0
C1873 C 0.55755 0.53179 0.88698 0.0
C1874 C 0.528 0.50779 0.93466 0.0
C1875 C 0.52731 0.53839 0.94916 0.0
N1876 N 0.51959 0.59491 0.93961 0.0
N1877 N 0.54971 0.47442 0.89022 0.0
C1878 C 0.53183 0.56605 0.92895 0.0
C1879 C 0.54472 0.5041 0.9036 0.0
N1880 N 0.56196 0.58991 0.88283 0.0
N1881 N 0.51184 0.48301 0.95001 0.0
H1882 H 0.55984 0.47132 0.86645 0.0
H1883 H 0.54454 0.45289 0.9027 0.0
H1884 H 0.49642 0.48659 0.97066 0.0
H1885 H 0.51032 0.46012 0.94032 0.0
H1886 H 0.56014 0.61283 0.89272 0.0
H1887 H 0.57596 0.58928 0.86091 0.0
H1888 H 0.51985 0.61594 0.92512 0.0
H1889 H 0.50609 0.59665 0.96193 0.0
C1890 C 0.76083 0.31628 0.13176 0.0
C1891 C 0.76296 0.35038 0.13082 0.0
C1892 C 0.74214 0.35254 0.18803 0.0
C1893 C 0.74755 0.31897 0.19121 0.0
N1894 N 0.74467 0.26851 0.16351 0.0
N1895 N 0.75649 0.40138 0.15847 0.0
C1896 C 0.75169 0.30046 0.16221 0.0
C1897 C 0.75306 0.36875 0.15879 0.0
N1898 N 0.76795 0.29923 0.1037 0.0
N1899 N 0.72587 0.3686 0.21284 0.0
H1900 H 0.76525 0.4144 0.13787 0.0
H1901 H 0.75333 0.41526 0.17962 0.0
H1902 H 0.71594 0.35649 0.23354 0.0
H1903 H 0.71884 0.39275 0.21097 0.0
H1904 H 0.77073 0.27432 0.10337 0.0
H1905 H 0.7719 0.31026 0.08049 0.0
H1906 H 0.74597 0.25353 0.14312 0.0
H1907 H 0.73338 0.25785 0.18436 0.0
C1908 C 0.97136 0.53907 0.35153 0.0
C1909 C 0.94472 0.52065 0.34185 0.0
C1910 C 0.95862 0.47893 0.383 0.0
C1911 C 0.98618 0.49654 0.3909 0.0
N1912 N 0.02389 0.53812 0.37678 0.0
N1913 N 0.91883 0.4688 0.34181 0.0
C1914 C 0.99429 0.52481 0.37288 0.0
C1915 C 0.93993 0.48926 0.35563 0.0
N1916 N 0.97379 0.5707 0.342 0.0
N1917 N 0.94962 0.45317 0.40244 0.0
H1918 H 0.9059 0.47464 0.3206 0.0
H1919 H 0.9168 0.44477 0.34928 0.0
H1920 H 0.9632 0.44483 0.4224 0.0
H1921 H 0.92763 0.4416 0.40009 0.0
H1922 H 0.99124 0.58581 0.35098 0.0
H1923 H 0.95634 0.58284 0.32808 0.0
H1924 H 0.03236 0.55743 0.36231 0.0
H1925 H 0.04115 0.52763 0.3923 0.0
C1926 C 0.7638 0.71416 0.65084 0.0
C1927 C 0.79058 0.71762 0.62795 0.0
C1928 C 0.82124 0.74311 0.67274 0.0
C1929 C 0.79336 0.74257 0.69442 0.0
N1930 N 0.73693 0.7296 0.70283 0.0
N1931 N 0.84546 0.73499 0.61748 0.0
C1932 C 0.76454 0.72815 0.68324 0.0
C1933 C 0.81946 0.73201 0.63913 0.0
N1934 N 0.73726 0.69769 0.64161 0.0
N1935 N 0.84995 0.75301 0.68485 0.0
H1936 H 0.84673 0.72406 0.59439 0.0
H1937 H 0.86548 0.74898 0.62181 0.0
H1938 H 0.8521 0.76078 0.70916 0.0
H1939 H 0.87217 0.75125 0.67204 0.0
H1940 H 0.71888 0.69028 0.65815 0.0
H1941 H 0.73436 0.68948 0.61764 0.0
H1942 H 0.71402 0.7239 0.69483 0.0
H1943 H 0.73637 0.7387 0.72667 0.0
C1944 C 0.66565 0.61323 0.50917 0.0
C1945 C 0.68599 0.6054 0.53624 0.0
C1946 C 0.65322 0.55695 0.54809 0.0
C1947 C 0.63022 0.56721 0.52412 0.0
N1948 N 0.62516 0.59544 0.47142 0.0
N1949 N 0.69866 0.56988 0.58225 0.0
C1950 C 0.6394 0.59264 0.50157 0.0
C1951 C 0.67967 0.57718 0.55577 0.0
N1952 N 0.67037 0.64128 0.49157 0.0
N1953 N 0.65168 0.52641 0.56112 0.0
H1954 H 0.71945 0.58256 0.58734 0.0
H1955 H 0.6928 0.55246 0.60027 0.0
H1956 H 0.63596 0.50946 0.55225 0.0
H1957 H 0.66887 0.5163 0.57682 0.0
H1958 H 0.65393 0.65068 0.47462 0.0
H1959 H 0.68954 0.65654 0.49575 0.0
H1960 H 0.63226 0.61194 0.45296 0.0
H1961 H 0.61004 0.57798 0.46259 0.0
C1962 C 0.14914 0.95159 0.49966 0.0
C1963 C 0.16531 0.94989 0.53031 0.0
C1964 C 0.12859 0.99129 0.55333 0.0
C1965 C 0.11321 0.99399 0.52237 0.0
N1966 N 0.11197 0.98144 0.46423 0.0
N1967 N 0.17626 0.97392 0.58284 0.0
C1968 C 0.12449 0.97556 0.49491 0.0
C1969 C 0.15678 0.97149 0.55613 0.0
N1970 N 0.15642 0.92955 0.47569 0.0
N1971 N 0.11536 0.00633 0.58056 0.0
H1972 H 0.19764 0.96041 0.58549 0.0
H1973 H 0.17306 0.99164 0.60064 0.0
H1974 H 0.0945 0.02082 0.57962 0.0
H1975 H 0.12336 0.0022 0.60461 0.0
H1976 H 0.14327 0.9274 0.45419 0.0
H1977 H 0.17422 0.91159 0.47835 0.0
H1978 H 0.12119 0.97111 0.4425 0.0
H1979 H 0.09394 0.99888 0.45997 0.0
C1980 C 0.30732 0.98775 0.78147 0.0
C1981 C 0.34139 0.9905 0.77717 0.0
C1982 C 0.34964 0.93438 0.79399 0.0
C1983 C 0.31566 0.9312 0.79697 0.0
N1984 N 0.26176 0.95183 0.78802 0.0
N1985 N 0.39437 0.96515 0.77095 0.0
C1986 C 0.29431 0.95704 0.78901 0.0
C1987 C 0.36241 0.96336 0.78085 0.0
N1988 N 0.28768 0.01456 0.77973 0.0
N1989 N 0.36959 0.91003 0.80494 0.0
H1990 H 0.40439 0.98591 0.76027 0.0
H1991 H 0.41013 0.94528 0.7702 0.0
H1992 H 0.36078 0.88858 0.81522 0.0
H1993 H 0.39461 0.91216 0.80659 0.0
H1994 H 0.26304 0.01457 0.7862 0.0
H1995 H 0.29645 0.03736 0.77373 0.0
H1996 H 0.24505 0.96884 0.77931 0.0
H1997 H 0.25179 0.92942 0.79358 0.0
C1998 C 0.41569 0.13302 0.04595 0.0
C1999 C 0.3892 0.11781 0.03142 0.0
C2000 C 0.42391 0.06891 0.02436 0.0
C2001 C 0.45148 0.08573 0.0349 0.0
N2002 N 0.47386 0.13685 0.0493 0.0
N2003 N 0.36917 0.07206 0.0032 0.0
C2004 C 0.44737 0.11856 0.04411 0.0
C2005 C 0.39356 0.08587 0.01978 0.0
N2006 N 0.41047 0.16111 0.06252 0.0
N2007 N 0.42627 0.03647 0.01993 0.0
H2008 H 0.34672 0.08346 -0.0002 0.0
H2009 H 0.372 0.05044 0.99074 0.0
H2010 H 0.44763 0.02323 0.02371 0.0
H2011 H 0.40639 0.02225 0.01558 0.0
H2012 H 0.428 0.17154 0.07675 0.0
H2013 H 0.38761 0.17214 0.06506 0.0
H2014 H 0.47247 0.16169 0.05213 0.0
H2015 H 0.49763 0.12815 0.04709 0.0
C2016 C 0.73814 0.58921 0.81444 0.0
C2017 C 0.70376 0.59018 0.81313 0.0
C2018 C 0.70284 0.64768 0.82461 0.0
C2019 C 0.73714 0.6471 0.82349 0.0
N2020 N 0.78782 0.61959 0.81202 0.0
N2021 N 0.65351 0.62084 0.81094 0.0
C2022 C 0.75493 0.61847 0.81683 0.0
C2023 C 0.68608 0.6196 0.81653 0.0
N2024 N 0.7546 0.56035 0.81499 0.0
N2025 N 0.68646 0.67493 0.83436 0.0
H2026 H 0.6405 0.60077 0.80443 0.0
H2027 H 0.63994 0.64219 0.80982 0.0
H2028 H 0.6983 0.69579 0.84067 0.0
H2029 H 0.66148 0.67608 0.83888 0.0
H2030 H 0.77929 0.55805 0.81944 0.0
H2031 H 0.74314 0.53831 0.81375 0.0
H2032 H 0.80197 0.60021 0.80364 0.0
H2033 H 0.80065 0.64082 0.81388 0.0
C2034 C 0.83651 0.51493 0.07392 0.0
C2035 C 0.8386 0.4814 0.08087 0.0
C2036 C 0.89645 0.48056 0.06659 0.0
C2037 C 0.89454 0.51404 0.05946 0.0
N2038 N 0.86579 0.56454 0.06446 0.0
N2039 N 0.87143 0.43488 0.09462 0.0
C2040 C 0.86546 0.53173 0.06594 0.0
C2041 C 0.86905 0.46519 0.08107 0.0
N2042 N 0.80693 0.53024 0.07286 0.0
N2043 N 0.92339 0.46298 0.05717 0.0
H2044 H 0.85145 0.4233 0.1056 0.0
H2045 H 0.89351 0.42282 0.09803 0.0
H2046 H 0.94328 0.47291 0.04446 0.0
H2047 H 0.92472 0.43797 0.05894 0.0
H2048 H 0.80373 0.55376 0.06402 0.0
H2049 H 0.78525 0.51886 0.0792 0.0
H2050 H 0.84606 0.57905 0.07169 0.0
H2051 H 0.88694 0.57718 0.05882 0.0
C2052 C 0.33418 0.16151 0.78279 0.0
C2053 C 0.36793 0.16182 0.78839 0.0
C2054 C 0.37102 0.21614 0.7642 0.0
C2055 C 0.33683 0.21608 0.76117 0.0
N2056 N 0.29166 0.18309 0.74852 0.0
N2057 N 0.42019 0.18533 0.7753 0.0
C2058 C 0.32019 0.18686 0.76419 0.0
C2059 C 0.38705 0.18799 0.77648 0.0
N2060 N 0.31527 0.13754 0.79599 0.0
N2061 N 0.38786 0.24297 0.75495 0.0
H2062 H 0.43291 0.16488 0.78332 0.0
H2063 H 0.43528 0.20242 0.76412 0.0
H2064 H 0.37731 0.26168 0.74106 0.0
H2065 H 0.41187 0.24672 0.76092 0.0
H2066 H 0.29004 0.13804 0.79469 0.0
H2067 H 0.3244 0.11899 0.81107 0.0
H2068 H 0.27958 0.1613 0.74851 0.0
H2069 H 0.2828 0.2004 0.73179 0.0
C2070 C 0.21392 0.90592 0.28792 0.0
C2071 C 0.21457 0.91498 0.32164 0.0
C2072 C 0.26458 0.88352 0.3291 0.0
C2073 C 0.26159 0.87176 0.29642 0.0
N2074 N 0.24455 0.88445 0.24103 0.0
N2075 N 0.23844 0.91147 0.37542 0.0
C2076 C 0.23956 0.88684 0.27462 0.0
C2077 C 0.23943 0.90362 0.34258 0.0
N2078 N 0.18815 0.91455 0.26892 0.0
N2079 N 0.29251 0.87796 0.34591 0.0
H2080 H 0.2202 0.92624 0.38577 0.0
H2081 H 0.25386 0.9013 0.39292 0.0
H2082 H 0.31346 0.86841 0.33451 0.0
H2083 H 0.29679 0.88714 0.36919 0.0
H2084 H 0.18483 0.90574 0.24524 0.0
H2085 H 0.16843 0.92798 0.27808 0.0
H2086 H 0.23085 0.89716 0.22365 0.0
H2087 H 0.26518 0.87304 0.23075 0.0
C2088 C 0.5188 0.39653 0.48133 0.0
C2089 C 0.53602 0.39148 0.45065 0.0
C2090 C 0.56083 0.44531 0.45602 0.0
C2091 C 0.54097 0.45175 0.48473 0.0
N2092 N 0.49807 0.43402 0.52265 0.0
N2093 N 0.57361 0.41153 0.40849 0.0
C2094 C 0.51952 0.42728 0.49705 0.0
C2095 C 0.55703 0.41611 0.43799 0.0
N2096 N 0.50136 0.37197 0.49554 0.0
N2097 N 0.5846 0.46647 0.44687 0.0
H2098 H 0.57458 0.38953 0.3965 0.0
H2099 H 0.58553 0.42974 0.39521 0.0
H2100 H 0.58845 0.48756 0.45965 0.0
H2101 H 0.60233 0.46205 0.4285 0.0
H2102 H 0.49186 0.3723 0.51979 0.0
H2103 H 0.49829 0.35006 0.48409 0.0
H2104 H 0.47887 0.41932 0.52989 0.0
H2105 H 0.49738 0.45571 0.53502 0.0
C2106 C 0.39579 0.80545 0.16018 0.0
C2107 C 0.41905 0.82728 0.17058 0.0
C2108 C 0.38439 0.84111 0.21868 0.0
C2109 C 0.36421 0.81512 0.21154 0.0
N2110 N 0.35355 0.76915 0.17745 0.0
N2111 N 0.4377 0.86384 0.21151 0.0
C2112 C 0.37028 0.79659 0.18254 0.0
C2113 C 0.41386 0.84491 0.20013 0.0
N2114 N 0.3981 0.79324 0.12889 0.0
N2115 N 0.37509 0.86246 0.24269 0.0
H2116 H 0.45991 0.86692 0.19893 0.0
H2117 H 0.43652 0.87434 0.23481 0.0
H2118 H 0.35314 0.86082 0.25616 0.0
H2119 H 0.38746 0.88355 0.2468 0.0
H2120 H 0.37993 0.77976 0.11877 0.0
H2121 H 0.41665 0.79938 0.11185 0.0
H2122 H 0.35966 0.75312 0.15861 0.0
H2123 H 0.336 0.76019 0.19402 0.0
C2124 C 0.02003 0.67782 0.96101 0.0
C2125 C 0.03812 0.70318 0.97425 0.0
C2126 C 0.05922 0.66423 0.01648 0.0
C2127 C 0.0428 0.63842 0.00188 0.0
N2128 N 0.01496 0.62028 0.95398 0.0
N2129 N 0.08206 0.71737 0.00902 0.0
C2130 C 0.02535 0.64516 0.97232 0.0
C2131 C 0.0598 0.69538 0.00035 0.0
N2132 N 0.99654 0.68483 0.93864 0.0
N2133 N 0.07306 0.65973 0.04669 0.0
H2134 H 0.08429 0.73972 0.99703 0.0
H2135 H 0.10067 0.71205 0.02533 0.0
H2136 H 0.0727 0.63794 0.05989 0.0
H2137 H 0.08214 0.6785 0.06019 0.0
H2138 H 0.98009 0.66796 0.93103 0.0
H2139 H 0.99148 0.70809 0.92998 0.0
H2140 H 1.00506 0.62351 0.9306 0.0
H2141 H 0.0196 0.59621 0.96023 0.0
C2142 C 0.09587 0.28916 0.73032 0.0
C2143 C 0.09811 0.28741 0.69512 0.0
C2144 C 0.15086 0.25968 0.69822 0.0
C2145 C 0.14826 0.26085 0.73322 0.0
N2146 N 0.11759 0.27158 0.78335 0.0
N2147 N 0.12428 0.26555 0.64567 0.0
C2148 C 0.1203 0.27381 0.74949 0.0
C2149 C 0.12462 0.27107 0.67905 0.0
N2150 N 0.07148 0.30697 0.74521 0.0
N2151 N 0.17913 0.24877 0.68342 0.0
H2152 H 0.1057 0.27368 0.6305 0.0
H2153 H 0.14103 0.25062 0.63336 0.0
H2154 H 0.19822 0.23891 0.69695 0.0
H2155 H 0.18446 0.2511 0.65804 0.0
H2156 H 0.07022 0.3118 0.77048 0.0
H2157 H 0.05351 0.31909 0.73191 0.0
H2158 H 0.09669 0.27792 0.79702 0.0
H2159 H 0.13572 0.26095 0.79769 0.0
C2160 C 0.58226 0.74757 0.04833 0.0
C2161 C 0.54823 0.75378 0.04855 0.0
C2162 C 0.53987 0.70256 0.02169 0.0
C2163 C 0.5728 0.69419 0.02688 0.0
N2164 N 0.62545 0.70708 0.04585 0.0
N2165 N 0.49426 0.7381 0.03531 0.0
C2166 C 0.59422 0.71649 0.0398 0.0
C2167 C 0.52691 0.73166 0.03478 0.0
N2168 N 0.60298 0.7711 0.0568 0.0
N2169 N 0.52125 0.68241 0.00423 0.0
H2170 H 0.48429 0.76008 0.04299 0.0
H2171 H 0.47697 0.72137 0.02947 0.0
H2172 H 0.53058 0.66114 0.99409 0.0
H2173 H 0.49762 0.68791 0.99736 0.0
H2174 H 0.62812 0.76885 0.0544 0.0
H2175 H 0.59512 0.79407 0.06353 0.0
H2176 H 0.64143 0.72066 0.05905 0.0
H2177 H 0.63479 0.68449 0.03937 0.0
C2178 C 0.15502 0.76271 0.86782 0.0
C2179 C 0.13169 0.78749 0.86106 0.0
C2180 C 0.16694 0.80585 0.81391 0.0
C2181 C 0.19215 0.78423 0.82392 0.0
N2182 N 0.21158 0.74586 0.86473 0.0
N2183 N 0.11766 0.83551 0.82962 0.0
C2184 C 0.18646 0.76351 0.85192 0.0
C2185 C 0.13812 0.80972 0.83442 0.0
N2186 N 0.14689 0.73777 0.88887 0.0
N2187 N 0.17013 0.82208 0.78423 0.0
H2188 H 0.09664 0.83944 0.84412 0.0
H2189 H 0.12293 0.85442 0.8131 0.0
H2190 H 0.1903 0.81882 0.76836 0.0
H2191 H 0.15153 0.83591 0.77387 0.0
H2192 H 0.16171 0.71747 0.89227 0.0
H2193 H 0.12386 0.7357 0.90009 0.0
H2194 H 0.20978 0.7329 0.88711 0.0
H2195 H 0.23513 0.74695 0.85481 0.0
C2196 C 0.99838 0.42859 0.63447 0.0
C2197 C 0.02072 0.40354 0.62544 0.0
C2198 C 0.04261 0.43666 0.57942 0.0
C2199 C 0.01874 0.46094 0.58676 0.0
N2200 N 0.97259 0.47967 0.61946 0.0
N2201 N 0.06392 0.38302 0.58955 0.0
C2202 C 0.99655 0.45701 0.61414 0.0
C2203 C 0.04278 0.40748 0.59805 0.0
N2204 N 0.9785 0.42497 0.66208 0.0
N2205 N 0.06639 0.442 0.55568 0.0
H2206 H 0.06859 0.36328 0.60506 0.0
H2207 H 0.07612 0.38156 0.56659 0.0
H2208 H 0.06678 0.46196 0.54003 0.0
H2209 H 0.08735 0.42784 0.55285 0.0
H2210 H 0.96461 0.44354 0.6725 0.0
H2211 H 0.97679 0.40361 0.67589 0.0
H2212 H 0.95341 0.47715 0.63662 0.0
H2213 H 0.97057 0.50057 0.60498 0.0
C2214 C 0.42355 0.2596 0.33955 0.0
C2215 C 0.43418 0.28656 0.35737 0.0
C2216 C 0.38665 0.31795 0.33731 0.0
C2217 C 0.37635 0.29114 0.31885 0.0
N2218 N 0.38967 0.23919 0.29645 0.0
N2219 N 0.42923 0.34331 0.36756 0.0
C2220 C 0.3962 0.26275 0.31834 0.0
C2221 C 0.41694 0.31637 0.35413 0.0
N2222 N 0.43951 0.23067 0.34309 0.0
N2223 N 0.36649 0.34421 0.34101 0.0
H2224 H 0.45022 0.34292 0.38138 0.0
H2225 H 0.4202 0.36643 0.36274 0.0
H2226 H 0.34399 0.34653 0.33012 0.0
H2227 H 0.37057 0.3626 0.35745 0.0
H2228 H 0.43067 0.20912 0.33468 0.0
H2229 H 0.46101 0.2279 0.35595 0.0
H2230 H 0.40481 0.21928 0.29222 0.0
H2231 H 0.37068 0.24112 0.27992 0.0
C2232 C 0.43749 0.55259 0.36428 0.0
C2233 C 0.45493 0.55839 0.33393 0.0
C2234 C 0.49993 0.58016 0.36395 0.0
C2235 C 0.48167 0.57652 0.39396 0.0
N2236 N 0.43113 0.56534 0.42273 0.0
N2237 N 0.49912 0.58526 0.30428 0.0
C2238 C 0.44979 0.56447 0.39413 0.0
C2239 C 0.48493 0.57472 0.33351 0.0
N2240 N 0.40932 0.53578 0.36457 0.0
N2241 N 0.53222 0.58683 0.36461 0.0
H2242 H 0.48916 0.58211 0.28121 0.0
H2243 H 0.51921 0.6001 0.30321 0.0
H2244 H 0.54445 0.58968 0.38661 0.0
H2245 H 0.54759 0.58623 0.3436 0.0
H2246 H 0.39748 0.52772 0.38629 0.0
H2247 H 0.39868 0.52824 0.34294 0.0
H2248 H 0.40669 0.55947 0.42402 0.0
H2249 H 0.43943 0.57484 0.44465 0.0
C2250 C 0.23417 0.73343 0.08834 0.0
C2251 C 0.25899 0.74988 0.06996 0.0
C2252 C 0.26031 0.79104 0.11225 0.0
C2253 C 0.23731 0.77341 0.13158 0.0
N2254 N 0.19644 0.73328 0.13592 0.0
N2255 N 0.29006 0.79749 0.05954 0.0
C2256 C 0.22195 0.7466 0.11857 0.0
C2257 C 0.27009 0.77993 0.08031 0.0
N2258 N 0.22419 0.7041 0.07827 0.0
N2259 N 0.27372 0.81751 0.12545 0.0
H2260 H 0.29725 0.78967 0.03591 0.0
H2261 H 0.29748 0.82064 0.06443 0.0
H2262 H 0.26554 0.82684 0.14815 0.0
H2263 H 0.29332 0.82964 0.11467 0.0
H2264 H 0.20903 0.68915 0.09245 0.0
H2265 H 0.23238 0.69362 0.05622 0.0
H2266 H 0.18206 0.71541 0.12672 0.0
H2267 H 0.18797 0.74205 0.15873 0.0
C2268 C 0.10369 0.52345 0.90699 0.0
C2269 C 0.08844 0.50011 0.88787 0.0
C2270 C 0.04853 0.49173 0.93332 0.0
C2271 C 0.06175 0.51796 0.94993 0.0
N2272 N 0.09392 0.56592 0.94561 0.0
N2273 N 0.04131 0.46749 0.87998 0.0
C2274 C 0.08671 0.53617 0.93448 0.0
C2275 C 0.05933 0.48568 0.90012 0.0
N2276 N 0.13498 0.5324 0.90031 0.0
N2277 N 0.02676 0.47204 0.94932 0.0
H2278 H 0.04741 0.46382 0.85502 0.0
H2279 H 0.01851 0.45893 0.88716 0.0
H2280 H 0.01857 0.4755 0.97376 0.0
H2281 H 0.01902 0.45074 0.93918 0.0
H2282 H 0.14729 0.54764 0.91566 0.0
H2283 H 0.15 0.52157 0.88239 0.0
H2284 H 0.11056 0.58086 0.93323 0.0
H2285 H 0.08042 0.5771 0.96451 0.0
C2286 C 0.28286 0.32928 0.63159 0.0
C2287 C 0.29008 0.36239 0.62638 0.0
C2288 C 0.29034 0.36824 0.68755 0.0
C2289 C 0.28758 0.33435 0.69243 0.0
N2290 N 0.28653 0.282 0.66773 0.0
N2291 N 0.3056 0.41239 0.65021 0.0
C2292 C 0.2851 0.31474 0.66405 0.0
C2293 C 0.29497 0.38165 0.65462 0.0
N2294 N 0.2727 0.3118 0.6056 0.0
N2295 N 0.28728 0.38793 0.71428 0.0
H2296 H 0.3096 0.42309 0.62685 0.0
H2297 H 0.31319 0.4263 0.66966 0.0
H2298 H 0.28304 0.37931 0.7385 0.0
H2299 H 0.28562 0.4129 0.71205 0.0
H2300 H 0.26382 0.28859 0.60841 0.0
H2301 H 0.26984 0.32168 0.58182 0.0
H2302 H 0.28841 0.26651 0.64772 0.0
H2303 H 0.28915 0.27027 0.69066 0.0
C2304 C 0.53944 0.52439 0.18643 0.0
C2305 C 0.52181 0.55201 0.19764 0.0
C2306 C 0.55057 0.58594 0.15659 0.0
C2307 C 0.56246 0.55746 0.14166 0.0
N2308 N 0.58319 0.50405 0.15036 0.0
N2309 N 0.51925 0.60964 0.20245 0.0
C2310 C 0.56264 0.52838 0.16016 0.0
C2311 C 0.53051 0.58317 0.1858 0.0
N2312 N 0.5319 0.4943 0.19813 0.0
N2313 N 0.55713 0.61503 0.14189 0.0
H2314 H 0.50521 0.60774 0.2244 0.0
H2315 H 0.52558 0.63311 0.19617 0.0
H2316 H 0.5746 0.61738 0.12277 0.0
H2317 H 0.54608 0.63665 0.14888 0.0
H2318 H 0.54152 0.47332 0.18775 0.0
H2319 H 0.51459 0.48988 0.2169 0.0
H2320 H 0.58622 0.48262 0.16385 0.0
H2321 H 0.59932 0.50709 0.13008 0.0
C2322 C 0.32827 0.70476 0.90761 0.0
C2323 C 0.34264 0.72678 0.92876 0.0
C2324 C 0.34467 0.76536 0.88192 0.0
C2325 C 0.3204 0.74761 0.86617 0.0
N2326 N 0.28774 0.69933 0.86691 0.0
N2327 N 0.37333 0.7753 0.93235 0.0
C2328 C 0.31206 0.71677 0.87947 0.0
C2329 C 0.35357 0.75641 0.91483 0.0
N2330 N 0.33115 0.67242 0.91351 0.0
N2331 N 0.36076 0.78916 0.86471 0.0
H2332 H 0.38543 0.7667 0.95322 0.0
H2333 H 0.378 0.79917 0.92586 0.0
H2334 H 0.35736 0.79412 0.83955 0.0
H2335 H 0.38027 0.80128 0.87402 0.0
H2336 H 0.32252 0.65551 0.89732 0.0
H2337 H 0.34648 0.66277 0.93148 0.0
H2338 H 0.27954 0.67813 0.87832 0.0
H2339 H 0.27337 0.70735 0.84766 0.0
C2340 C 0.1051 0.57618 0.7096 0.0
C2341 C 0.08323 0.56072 0.73244 0.0
C2342 C 0.03796 0.57241 0.69626 0.0
C2343 C 0.05993 0.58702 0.67325 0.0
N2344 N 0.11178 0.60924 0.65948 0.0
N2345 N 0.0285 0.54967 0.75159 0.0
C2346 C 0.09271 0.59117 0.68065 0.0
C2347 C 0.04941 0.56085 0.7272 0.0
N2348 N 0.13769 0.57565 0.71514 0.0
N2349 N 0.00662 0.5681 0.68746 0.0
H2350 H 0.03633 0.53996 0.77414 0.0
H2351 H 1.00337 0.55189 0.75049 0.0
H2352 H 0.99756 0.57728 0.6652 0.0
H2353 H 0.99007 0.5543 0.70126 0.0
H2354 H 0.15522 0.58343 0.69785 0.0
H2355 H 0.14764 0.56608 0.73676 0.0
H2356 H 0.13538 0.61572 0.66437 0.0
H2357 H 0.10284 0.62 0.63787 0.0
C2358 C 0.25538 0.38873 0.40751 0.0
C2359 C 0.27766 0.37899 0.43253 0.0
C2360 C 0.29484 0.33282 0.39759 0.0
C2361 C 0.27245 0.34249 0.37263 0.0
N2362 N 0.2272 0.37615 0.35703 0.0
N2363 N 0.31452 0.33838 0.45362 0.0
C2364 C 0.25162 0.36955 0.37855 0.0
C2365 C 0.29585 0.34983 0.42832 0.0
N2366 N 0.23767 0.4166 0.41144 0.0
N2367 N 0.31686 0.30858 0.39115 0.0
H2368 H 0.31772 0.35087 0.4754 0.0
H2369 H 0.32501 0.31542 0.45419 0.0
H2370 H 0.31715 0.29533 0.36953 0.0
H2371 H 0.33665 0.30316 0.40584 0.0
H2372 H 0.22454 0.42777 0.39264 0.0
H2373 H 0.23692 0.42934 0.43349 0.0
H2374 H 0.20892 0.39332 0.36115 0.0
H2375 H 0.22352 0.36246 0.33609 0.0
C2376 C 0.39949 0.47485 0.51446 0.0
C2377 C 0.3812 0.4711 0.54473 0.0
C2378 C 0.42107 0.50512 0.57225 0.0
C2379 C 0.44156 0.50526 0.54315 0.0
N2380 N 0.45158 0.48541 0.48753 0.0
N2381 N 0.37502 0.48241 0.60312 0.0
C2382 C 0.43085 0.48927 0.51436 0.0
C2383 C 0.39222 0.48618 0.57379 0.0
N2384 N 0.38727 0.46412 0.48558 0.0
N2385 N 0.4284 0.52434 0.59803 0.0
H2386 H 0.35235 0.47172 0.60476 0.0
H2387 H 0.38376 0.48866 0.62607 0.0
H2388 H 0.44864 0.539 0.59746 0.0
H2389 H 0.41303 0.52817 0.61861 0.0
H2390 H 0.39715 0.46992 0.46215 0.0
H2391 H 0.36572 0.45159 0.48463 0.0
H2392 H 0.44695 0.47062 0.46772 0.0
H2393 H 0.47506 0.49398 0.48634 0.0
C2394 C 0.89748 0.11738 0.48923 0.0
C2395 C 0.89482 0.14145 0.51371 0.0
C2396 C 0.94362 0.12012 0.53981 0.0
C2397 C 0.9485 0.09856 0.51304 0.0
N2398 N 0.93269 0.07956 0.45975 0.0
N2399 N 0.91713 0.16879 0.55981 0.0
C2400 C 0.92604 0.09779 0.48711 0.0
C2401 C 0.91829 0.1436 0.53844 0.0
N2402 N 0.87228 0.1126 0.46867 0.0
N2403 N 0.96252 0.11751 0.56709 0.0
H2404 H 0.89874 0.18638 0.55976 0.0
H2405 H 0.93575 0.17376 0.57574 0.0
H2406 H 0.98126 0.10057 0.56924 0.0
H2407 H 0.95776 0.13005 0.58889 0.0
H2408 H 0.87144 0.09332 0.45263 0.0
H2409 H 0.85074 0.12618 0.46986 0.0
H2410 H 0.91901 0.08087 0.43842 0.0
H2411 H 0.95348 0.06503 0.45714 0.0
C2412 C 0.69979 0.12428 0.32418 0.0
C2413 C 0.71393 0.09311 0.32295 0.0
C2414 C 0.76147 0.11476 0.29296 0.0
C2415 C 0.74374 0.1439 0.288 0.0
N2416 N 0.6947 0.17575 0.2961 0.0
N2417 N 0.76398 0.06239 0.32097 0.0
C2418 C 0.71265 0.14865 0.30318 0.0
C2419 C 0.74667 0.08924 0.31163 0.0
N2420 N 0.67515 0.13081 0.34658 0.0
N2421 N 0.79221 0.11176 0.27962 0.0
H2422 H 0.7549 0.046 0.3387 0.0
H2423 H 0.78824 0.05804 0.3145 0.0
H2424 H 0.80391 0.13077 0.26732 0.0
H2425 H 0.80581 0.09044 0.27961 0.0
H2426 H 0.66548 0.15386 0.35018 0.0
H2427 H 0.66769 0.11391 0.36462 0.0
H2428 H 0.67069 0.17904 0.30438 0.0
H2429 H 0.70258 0.19341 0.27914 0.0
C2430 C 0.67514 0.97553 0.07035 0.0
C2431 C 0.69549 0.97533 0.04123 0.0
C2432 C 0.66102 0.01867 0.01733 0.0
C2433 C 0.63794 0.015 0.04406 0.0
N2434 N 0.62132 0.9854 0.0939 0.0
N2435 N 0.70583 0.99494 0.98517 0.0
C2436 C 0.6447 0.9925 0.07025 0.0
C2437 C 0.68813 0.99672 0.01434 0.0
N2438 N 0.68518 0.95985 0.09851 0.0
N2439 N 0.65732 0.04359 0.99502 0.0
H2440 H 0.72565 0.97927 0.98183 0.0
H2441 H 0.69933 0.00714 0.96345 0.0
H2442 H 0.63819 0.06032 0.99683 0.0
H2443 H 0.67482 0.04955 0.97685 0.0
H2444 H 0.673 0.96179 0.12146 0.0
H2445 H 0.70754 0.94776 0.09974 0.0
H2446 H 0.6236 0.96651 0.11111 0.0
H2447 H 0.59824 0.99595 0.0943 0.0
C2448 C 0.37474 0.45774 0.18114 0.0
C2449 C 0.3977 0.46396 0.20567 0.0
C2450 C 0.375 0.42222 0.24225 0.0
C2451 C 0.35153 0.41644 0.21817 0.0
N2452 N 0.33332 0.42208 0.16235 0.0
N2453 N 0.42657 0.44592 0.25382 0.0
C2454 C 0.35304 0.43196 0.18665 0.0
C2455 C 0.4002 0.44386 0.23425 0.0
N2456 N 0.37225 0.47764 0.15387 0.0
N2457 N 0.37182 0.40896 0.27349 0.0
H2458 H 0.44554 0.46153 0.24803 0.0
H2459 H 0.43118 0.43005 0.27355 0.0
H2460 H 0.35296 0.39385 0.2808 0.0
H2461 H 0.38631 0.41507 0.29307 0.0
H2462 H 0.35352 0.47659 0.13717 0.0
H2463 H 0.38813 0.49639 0.14869 0.0
H2464 H 0.33493 0.43044 0.13781 0.0
H2465 H 0.31709 0.40334 0.16634 0.0
C2466 C 0.21768 0.62879 0.01104 0.0
C2467 C 0.24782 0.61216 0.00724 0.0
C2468 C 0.22104 0.56124 0.02 0.0
C2469 C 0.19243 0.57863 0.02916 0.0
N2470 N 0.16483 0.62943 0.03856 0.0
N2471 N 0.27929 0.56263 0.01035 0.0
C2472 C 0.19094 0.61256 0.02582 0.0
C2473 C 0.24984 0.57827 0.01189 0.0
N2474 N 0.21457 0.65997 4e-05 0.0
N2475 N 0.22036 0.52849 0.0187 0.0
H2476 H 0.30092 0.57425 0.00438 0.0
H2477 H 0.28257 0.53853 0.0172 0.0
H2478 H 0.19937 0.51562 0.02438 0.0
H2479 H 0.23956 0.51445 0.00925 0.0
H2480 H 0.1924 0.67241 -0.00042 0.0
H2481 H 0.23364 0.67222 0.98817 0.0
H2482 H 0.16398 0.65444 0.03971 0.0
H2483 H 0.14538 0.61846 0.05108 0.0
C2484 C 0.72554 0.89733 0.34636 0.0
C2485 C 0.7003 0.90946 0.3262 0.0
C2486 C 0.71147 0.86784 0.28566 0.0
C2487 C 0.73522 0.85431 0.30686 0.0
N2488 N 0.75903 0.8511 0.36099 0.0
N2489 N 0.66309 0.90124 0.28212 0.0
C2490 C 0.7405 0.86746 0.33839 0.0
C2491 C 0.69125 0.89304 0.29759 0.0
N2492 N 0.73647 0.91496 0.37191 0.0
N2493 N 0.70945 0.85811 0.25355 0.0
H2494 H 0.64718 0.91923 0.29079 0.0
H2495 H 0.6539 0.88792 0.26299 0.0
H2496 H 0.72499 0.84086 0.24296 0.0
H2497 H 0.69463 0.86964 0.2363 0.0
H2498 H 0.75722 0.90867 0.38488 0.0
H2499 H 0.72657 0.93731 0.37836 0.0
H2500 H 0.76095 0.85823 0.38551 0.0
H2501 H 0.76984 0.8287 0.3563 0.0
C2502 C 0.84547 0.16688 0.78233 0.0
C2503 C 0.85436 0.16249 0.74836 0.0
C2504 C 0.82245 0.21026 0.7329 0.0
C2505 C 0.81313 0.21428 0.76676 0.0
N2506 N 0.80703 0.19073 0.82163 0.0
N2507 N 0.84567 0.17496 0.69058 0.0
C2508 C 0.82182 0.19066 0.79083 0.0
C2509 C 0.84098 0.18259 0.72328 0.0
N2510 N 0.86095 0.14969 0.80667 0.0
N2511 N 0.81508 0.23438 0.71091 0.0
H2512 H 0.85956 0.15504 0.68297 0.0
H2513 H 0.83355 0.18646 0.67124 0.0
H2514 H 0.8229 0.23524 0.68604 0.0
H2515 H 0.8229 0.23524 0.68604 0.0
H2516 H 0.85785 0.15454 0.83187 0.0
H2517 H 0.87927 0.13269 0.80167 0.0
H2518 H 0.81032 0.17243 0.83933 0.0
H2519 H 0.78862 0.20723 0.82792 0.0
loop_
_geom_bond_atom_site_label_1
_geom_bond_atom_site_label_2
_geom_bond_distance
_geom_bond_site_symmetry_2
_ccdc_geom_bond_type
C0 O1 1.160 . S
C0 O7 1.185 . S
O1 C0 1.160 . S
O2 Zn3 1.899 . S
O2 C10 1.284 . S
Zn3 O2 1.899 . S
Zn3 O4 2.032 . S
Zn3 O7 2.086 1_455 S
Zn3 O12 1.977 . S
O4 Zn3 2.032 . S
O4 C8 1.278 . S
C5 O6 1.203 . S
C5 O12 1.267 . S
O6 C5 1.203 . S
O7 C0 1.185 . S
O7 Zn3 2.086 1_655 S
C8 O4 1.278 . S
C8 O9 1.211 . S
O9 C8 1.211 . S
C10 O2 1.284 . S
C10 O11 1.273 . S
O11 C10 1.273 . S
O12 Zn3 1.977 . S
O12 C5 1.267 . S
C13 O14 1.160 . S
C13 O20 1.185 . S
O14 C13 1.160 . S
O15 Zn16 1.899 . S
O15 C23 1.284 . S
Zn16 O15 1.899 . S
Zn16 O17 2.032 . S
Zn16 O20 2.086 . S
Zn16 O25 1.977 . S
O17 Zn16 2.032 . S
O17 C21 1.278 . S
C18 O19 1.203 1_455 S
C18 O25 1.267 . S
O19 C18 1.203 1_655 S
O20 C13 1.185 . S
O20 Zn16 2.086 . S
C21 O17 1.278 . S
C21 O22 1.211 . S
O22 C21 1.211 . S
C23 O15 1.284 . S
C23 O24 1.273 . S
O24 C23 1.273 . S
O25 Zn16 1.977 . S
O25 C18 1.267 . S
C26 O27 1.160 . S
C26 O33 1.185 . S
O27 C26 1.160 . S
O28 Zn29 1.899 . S
O28 C36 1.284 . S
Zn29 O28 1.899 . S
Zn29 O30 2.032 . S
Zn29 O33 2.086 . S
Zn29 O38 1.977 . S
O30 Zn29 2.032 . S
O30 C34 1.278 . S
C31 O32 1.203 . S
C31 O38 1.267 . S
O32 C31 1.203 . S
O33 C26 1.185 . S
O33 Zn29 2.086 . S
C34 O30 1.278 . S
C34 O35 1.211 . S
O35 C34 1.211 . S
C36 O28 1.284 . S
C36 O37 1.273 . S
O37 C36 1.273 . S
O38 Zn29 1.977 . S
O38 C31 1.267 . S
C39 O40 1.160 . S
C39 O46 1.185 . S
O40 C39 1.160 . S
O41 Zn42 1.899 . S
O41 C49 1.284 . S
Zn42 O41 1.899 . S
Zn42 O43 2.032 . S
Zn42 O46 2.086 . S
Zn42 O51 1.977 . S
O43 Zn42 2.032 . S
O43 C47 1.278 . S
C44 O45 1.203 . S
C44 O51 1.267 . S
O45 C44 1.203 . S
O46 C39 1.185 . S
O46 Zn42 2.086 . S
C47 O43 1.278 . S
C47 O48 1.211 . S
O48 C47 1.211 . S
C49 O41 1.284 . S
C49 O50 1.273 . S
O50 C49 1.273 . S
O51 Zn42 1.977 . S
O51 C44 1.267 . S
C52 O53 1.160 . S
C52 O59 1.185 . S
O53 C52 1.160 . S
O54 Zn55 1.899 . S
O54 C62 1.284 . S
Zn55 O54 1.899 . S
Zn55 O56 2.032 1_545 S
Zn55 O59 2.086 1_545 S
Zn55 O64 1.977 . S
O56 Zn55 2.032 1_565 S
O56 C60 1.278 1_565 S
C57 O58 1.203 . S
C57 O64 1.267 . S
O58 C57 1.203 . S
O59 C52 1.185 . S
O59 Zn55 2.086 1_565 S
C60 O56 1.278 1_545 S
C60 O61 1.211 . S
O61 C60 1.211 . S
C62 O54 1.284 . S
C62 O63 1.273 . S
O63 C62 1.273 . S
O64 Zn55 1.977 . S
O64 C57 1.267 . S
C65 O66 1.160 . S
C65 O72 1.185 . S
O66 C65 1.160 . S
O67 Zn68 1.899 . S
O67 C75 1.284 . S
Zn68 O67 1.899 . S
Zn68 O69 2.032 . S
Zn68 O72 2.086 . S
Zn68 O77 1.977 . S
O69 Zn68 2.032 . S
O69 C73 1.278 . S
C70 O71 1.203 . S
C70 O77 1.267 . S
O71 C70 1.203 . S
O72 C65 1.185 . S
O72 Zn68 2.086 . S
C73 O69 1.278 . S
C73 O74 1.211 . S
O74 C73 1.211 . S
C75 O67 1.284 . S
C75 O76 1.273 . S
O76 C75 1.273 . S
O77 Zn68 1.977 . S
O77 C70 1.267 . S
C78 O79 1.160 . S
C78 O85 1.185 . S
O79 C78 1.160 . S
O80 Zn81 1.899 . S
O80 C88 1.284 . S
Zn81 O80 1.899 . S
Zn81 O82 2.032 . S
Zn81 O85 2.086 . S
Zn81 O90 1.977 . S
O82 Zn81 2.032 . S
O82 C86 1.278 . S
C83 O84 1.203 . S
C83 O90 1.267 . S
O84 C83 1.203 . S
O85 C78 1.185 . S
O85 Zn81 2.086 . S
C86 O82 1.278 . S
C86 O87 1.211 . S
O87 C86 1.211 . S
C88 O80 1.284 . S
C88 O89 1.273 . S
O89 C88 1.273 . S
O90 Zn81 1.977 . S
O90 C83 1.267 . S
C91 O92 1.160 . S
C91 O98 1.185 . S
O92 C91 1.160 . S
O93 Zn94 1.899 . S
O93 C101 1.284 . S
Zn94 O93 1.899 . S
Zn94 O95 2.032 . S
Zn94 O98 2.086 . S
Zn94 O103 1.977 . S
O95 Zn94 2.032 . S
O95 C99 1.278 1_554 S
C96 O97 1.203 . S
C96 O103 1.267 . S
O97 C96 1.203 . S
O98 C91 1.185 . S
O98 Zn94 2.086 . S
C99 O95 1.278 1_556 S
C99 O100 1.211 . S
O100 C99 1.211 . S
C101 O93 1.284 . S
C101 O102 1.273 . S
O102 C101 1.273 . S
O103 Zn94 1.977 . S
O103 C96 1.267 . S
C104 O105 1.160 . S
C104 O111 1.185 . S
O105 C104 1.160 . S
O106 Zn107 1.899 . S
O106 C114 1.284 . S
Zn107 O106 1.899 . S
Zn107 O108 2.032 . S
Zn107 O111 2.086 . S
Zn107 O116 1.977 . S
O108 Zn107 2.032 . S
O108 C112 1.278 . S
C109 O110 1.203 . S
C109 O116 1.267 . S
O110 C109 1.203 . S
O111 C104 1.185 . S
O111 Zn107 2.086 . S
C112 O108 1.278 . S
C112 O113 1.211 . S
O113 C112 1.211 . S
C114 O106 1.284 . S
C114 O115 1.273 . S
O115 C114 1.273 . S
O116 Zn107 1.977 . S
O116 C109 1.267 . S
C117 O118 1.160 . S
C117 O124 1.185 . S
O118 C117 1.160 . S
O119 Zn120 1.899 . S
O119 C127 1.284 . S
Zn120 O119 1.899 . S
Zn120 O121 2.032 . S
Zn120 O124 2.086 . S
Zn120 O129 1.977 . S
O121 Zn120 2.032 . S
O121 C125 1.278 . S
C122 O123 1.203 . S
C122 O129 1.267 . S
O123 C122 1.203 . S
O124 C117 1.185 . S
O124 Zn120 2.086 . S
C125 O121 1.278 . S
C125 O126 1.211 . S
O126 C125 1.211 . S
C127 O119 1.284 . S
C127 O128 1.273 . S
O128 C127 1.273 . S
O129 Zn120 1.977 . S
O129 C122 1.267 . S
C130 O131 1.160 . S
C130 O137 1.185 . S
O131 C130 1.160 . S
O132 Zn133 1.899 . S
O132 C140 1.284 . S
Zn133 O132 1.899 . S
Zn133 O134 2.032 . S
Zn133 O137 2.086 . S
Zn133 O142 1.977 . S
O134 Zn133 2.032 . S
O134 C138 1.278 . S
C135 O136 1.203 . S
C135 O142 1.267 . S
O136 C135 1.203 . S
O137 C130 1.185 . S
O137 Zn133 2.086 . S
C138 O134 1.278 . S
C138 O139 1.211 . S
O139 C138 1.211 . S
C140 O132 1.284 . S
C140 O141 1.273 . S
O141 C140 1.273 . S
O142 Zn133 1.977 . S
O142 C135 1.267 . S
C143 O144 1.160 . S
C143 O150 1.185 . S
O144 C143 1.160 . S
O145 Zn146 1.899 . S
O145 C153 1.284 . S
Zn146 O145 1.899 . S
Zn146 O147 2.032 . S
Zn146 O150 2.086 . S
Zn146 O155 1.977 . S
O147 Zn146 2.032 . S
O147 C151 1.278 . S
C148 O149 1.203 . S
C148 O155 1.267 . S
O149 C148 1.203 . S
O150 C143 1.185 . S
O150 Zn146 2.086 . S
C151 O147 1.278 . S
C151 O152 1.211 . S
O152 C151 1.211 . S
C153 O145 1.284 . S
C153 O154 1.273 . S
O154 C153 1.273 . S
O155 Zn146 1.977 . S
O155 C148 1.267 . S
C156 O157 1.160 . S
C156 O163 1.185 . S
O157 C156 1.160 . S
O158 Zn159 1.899 . S
O158 C166 1.284 . S
Zn159 O158 1.899 . S
Zn159 O160 2.032 . S
Zn159 O163 2.086 . S
Zn159 O168 1.977 1_455 S
O160 Zn159 2.032 . S
O160 C164 1.278 . S
C161 O162 1.203 . S
C161 O168 1.267 . S
O162 C161 1.203 . S
O163 C156 1.185 . S
O163 Zn159 2.086 . S
C164 O160 1.278 . S
C164 O165 1.211 1_455 S
O165 C164 1.211 1_655 S
C166 O158 1.284 . S
C166 O167 1.273 . S
O167 C166 1.273 . S
O168 Zn159 1.977 1_655 S
O168 C161 1.267 . S
C169 O170 1.160 . S
C169 O176 1.185 . S
O170 C169 1.160 . S
O171 Zn172 1.899 . S
O171 C179 1.284 1_655 S
Zn172 O171 1.899 . S
Zn172 O173 2.032 . S
Zn172 O176 2.086 . S
Zn172 O181 1.977 1_655 S
O173 Zn172 2.032 . S
O173 C177 1.278 1_655 S
C174 O175 1.203 . S
C174 O181 1.267 . S
O175 C174 1.203 . S
O176 C169 1.185 . S
O176 Zn172 2.086 . S
C177 O173 1.278 1_455 S
C177 O178 1.211 . S
O178 C177 1.211 . S
C179 O171 1.284 1_455 S
C179 O180 1.273 . S
O180 C179 1.273 . S
O181 Zn172 1.977 1_455 S
O181 C174 1.267 . S
C182 O183 1.160 . S
C182 O189 1.185 . S
O183 C182 1.160 . S
O184 Zn185 1.899 . S
O184 C192 1.284 . S
Zn185 O184 1.899 . S
Zn185 O186 2.032 . S
Zn185 O189 2.086 . S
Zn185 O194 1.977 . S
O186 Zn185 2.032 . S
O186 C190 1.278 . S
C187 O188 1.203 . S
C187 O194 1.267 . S
O188 C187 1.203 . S
O189 C182 1.185 . S
O189 Zn185 2.086 . S
C190 O186 1.278 . S
C190 O191 1.211 . S
O191 C190 1.211 . S
C192 O184 1.284 . S
C192 O193 1.273 . S
O193 C192 1.273 . S
O194 Zn185 1.977 . S
O194 C187 1.267 . S
C195 O196 1.160 . S
C195 O202 1.185 . S
O196 C195 1.160 . S
O197 Zn198 1.899 . S
O197 C205 1.284 . S
Zn198 O197 1.899 . S
Zn198 O199 2.032 . S
Zn198 O202 2.086 . S
Zn198 O207 1.977 . S
O199 Zn198 2.032 . S
O199 C203 1.278 . S
C200 O201 1.203 . S
C200 O207 1.267 . S
O201 C200 1.203 . S
O202 C195 1.185 . S
O202 Zn198 2.086 . S
C203 O199 1.278 . S
C203 O204 1.211 . S
O204 C203 1.211 . S
C205 O197 1.284 . S
C205 O206 1.273 . S
O206 C205 1.273 . S
O207 Zn198 1.977 . S
O207 C200 1.267 . S
C208 O209 1.160 . S
C208 O215 1.185 . S
O209 C208 1.160 . S
O210 Zn211 1.899 . S
O210 C218 1.284 . S
Zn211 O210 1.899 . S
Zn211 O212 2.032 . S
Zn211 O215 2.086 . S
Zn211 O220 1.977 . S
O212 Zn211 2.032 . S
O212 C216 1.278 . S
C213 O214 1.203 . S
C213 O220 1.267 . S
O214 C213 1.203 . S
O215 C208 1.185 . S
O215 Zn211 2.086 . S
C216 O212 1.278 . S
C216 O217 1.211 . S
O217 C216 1.211 . S
C218 O210 1.284 . S
C218 O219 1.273 . S
O219 C218 1.273 . S
O220 Zn211 1.977 . S
O220 C213 1.267 . S
C221 O222 1.160 . S
C221 O228 1.185 . S
O222 C221 1.160 . S
O223 Zn224 1.899 . S
O223 C231 1.284 . S
Zn224 O223 1.899 . S
Zn224 O225 2.032 . S
Zn224 O228 2.086 . S
Zn224 O233 1.977 . S
O225 Zn224 2.032 . S
O225 C229 1.278 . S
C226 O227 1.203 . S
C226 O233 1.267 . S
O227 C226 1.203 . S
O228 C221 1.185 . S
O228 Zn224 2.086 . S
C229 O225 1.278 . S
C229 O230 1.211 . S
O230 C229 1.211 . S
C231 O223 1.284 . S
C231 O232 1.273 . S
O232 C231 1.273 . S
O233 Zn224 1.977 . S
O233 C226 1.267 . S
C234 O235 1.160 . S
C234 O241 1.185 . S
O235 C234 1.160 . S
O236 Zn237 1.899 . S
O236 C244 1.284 . S
Zn237 O236 1.899 . S
Zn237 O238 2.032 1_545 S
Zn237 O241 2.086 1_545 S
Zn237 O246 1.977 . S
O238 Zn237 2.032 1_565 S
O238 C242 1.278 1_565 S
C239 O240 1.203 . S
C239 O246 1.267 . S
O240 C239 1.203 . S
O241 C234 1.185 . S
O241 Zn237 2.086 1_565 S
C242 O238 1.278 1_545 S
C242 O243 1.211 . S
O243 C242 1.211 . S
C244 O236 1.284 . S
C244 O245 1.273 . S
O245 C244 1.273 . S
O246 Zn237 1.977 . S
O246 C239 1.267 . S
C247 O248 1.160 . S
C247 O254 1.185 . S
O248 C247 1.160 . S
O249 Zn250 1.899 . S
O249 C257 1.284 . S
Zn250 O249 1.899 . S
Zn250 O251 2.032 1_554 S
Zn250 O254 2.086 . S
Zn250 O259 1.977 . S
O251 Zn250 2.032 1_556 S
O251 C255 1.278 . S
C252 O253 1.203 . S
C252 O259 1.267 . S
O253 C252 1.203 . S
O254 C247 1.185 . S
O254 Zn250 2.086 . S
C255 O251 1.278 . S
C255 O256 1.211 . S
O256 C255 1.211 . S
C257 O249 1.284 . S
C257 O258 1.273 . S
O258 C257 1.273 . S
O259 Zn250 1.977 . S
O259 C252 1.267 . S
C260 O261 1.160 . S
C260 O267 1.185 1_554 S
O261 C260 1.160 . S
O262 Zn263 1.899 . S
O262 C270 1.284 . S
Zn263 O262 1.899 . S
Zn263 O264 2.032 1_554 S
Zn263 O267 2.086 1_554 S
Zn263 O272 1.977 1_554 S
O264 Zn263 2.032 1_556 S
O264 C268 1.278 . S
C265 O266 1.203 . S
C265 O272 1.267 1_554 S
O266 C265 1.203 . S
O267 C260 1.185 1_556 S
O267 Zn263 2.086 1_556 S
C268 O264 1.278 . S
C268 O269 1.211 . S
O269 C268 1.211 . S
C270 O262 1.284 . S
C270 O271 1.273 . S
O271 C270 1.273 . S
O272 Zn263 1.977 1_556 S
O272 C265 1.267 1_556 S
C273 O274 1.160 . S
C273 O280 1.185 . S
O274 C273 1.160 . S
O275 Zn276 1.899 . S
O275 C283 1.284 . S
Zn276 O275 1.899 . S
Zn276 O277 2.032 . S
Zn276 O280 2.086 . S
Zn276 O285 1.977 . S
O277 Zn276 2.032 . S
O277 C281 1.278 . S
C278 O279 1.203 . S
C278 O285 1.267 . S
O279 C278 1.203 . S
O280 C273 1.185 . S
O280 Zn276 2.086 . S
C281 O277 1.278 . S
C281 O282 1.211 . S
O282 C281 1.211 . S
C283 O275 1.284 . S
C283 O284 1.273 . S
O284 C283 1.273 . S
O285 Zn276 1.977 . S
O285 C278 1.267 . S
C286 O287 1.160 . S
C286 O293 1.185 . S
O287 C286 1.160 . S
O288 Zn289 1.899 . S
O288 C296 1.284 . S
Zn289 O288 1.899 . S
Zn289 O290 2.032 . S
Zn289 O293 2.086 . S
Zn289 O298 1.977 . S
O290 Zn289 2.032 . S
O290 C294 1.278 . S
C291 O292 1.203 . S
C291 O298 1.267 . S
O292 C291 1.203 . S
O293 C286 1.185 . S
O293 Zn289 2.086 . S
C294 O290 1.278 . S
C294 O295 1.211 . S
O295 C294 1.211 . S
C296 O288 1.284 . S
C296 O297 1.273 . S
O297 C296 1.273 . S
O298 Zn289 1.977 . S
O298 C291 1.267 . S
C299 O300 1.160 . S
C299 O306 1.185 . S
O300 C299 1.160 . S
O301 Zn302 1.899 . S
O301 C309 1.284 . S
Zn302 O301 1.899 . S
Zn302 O303 2.032 . S
Zn302 O306 2.086 . S
Zn302 O311 1.977 . S
O303 Zn302 2.032 . S
O303 C307 1.278 . S
C304 O305 1.203 . S
C304 O311 1.267 . S
O305 C304 1.203 . S
O306 C299 1.185 . S
O306 Zn302 2.086 . S
C307 O303 1.278 . S
C307 O308 1.211 . S
O308 C307 1.211 . S
C309 O301 1.284 . S
C309 O310 1.273 . S
O310 C309 1.273 . S
O311 Zn302 1.977 . S
O311 C304 1.267 . S
Co312 N317 2.057 1_554 S
Co312 O329 2.021 1_554 S
Co312 O332 2.062 1_455 S
Co312 O336 2.117 . S
Co312 O337 2.018 . S
C313 O333 1.259 . S
C313 O336 1.258 . S
Co314 N323 2.057 . S
Co314 O330 2.117 1_545 S
Co314 O331 2.020 1_455 S
Co314 O333 2.021 . S
Co314 O338 2.062 . S
C315 N317 1.324 . S
C315 N318 1.334 1_455 S
C315 H320 0.935 . S
C316 N317 1.375 1_655 S
C316 C319 1.350 . S
C316 H321 0.930 1_655 S
N317 Co312 2.057 1_556 S
N317 C315 1.324 . S
N317 C316 1.375 1_455 S
N318 C315 1.334 1_655 S
N318 C319 1.373 . S
C319 C316 1.350 . S
C319 N318 1.373 . S
C319 H340 0.931 . S
H320 C315 0.935 . S
H321 C316 0.930 1_455 S
C322 O329 1.259 1_564 S
C322 O330 1.258 . S
N323 Co314 2.057 . S
N323 C324 1.316 . S
N323 C325 1.375 1_545 S
C324 N323 1.316 . S
C324 N326 1.347 . S
C324 H335 0.931 . S
C325 N323 1.375 1_565 S
C325 C327 1.350 . S
C325 H334 0.930 . S
N326 C324 1.347 . S
N326 C327 1.373 1_545 S
C327 C325 1.350 . S
C327 N326 1.373 1_565 S
C327 H341 0.931 . S
C328 O331 1.256 . S
C328 O332 1.255 . S
O329 Co312 2.021 1_556 S
O329 C322 1.259 1_546 S
O330 Co314 2.117 1_565 S
O330 C322 1.258 . S
O331 Co314 2.020 1_655 S
O331 C328 1.256 . S
O332 Co312 2.062 1_655 S
O332 C328 1.255 . S
O333 C313 1.259 . S
O333 Co314 2.021 . S
H334 C325 0.930 . S
H335 C324 0.931 . S
O336 Co312 2.117 . S
O336 C313 1.258 . S
O337 Co312 2.018 . S
O337 C339 1.284 . S
O338 Co314 2.062 . S
O338 C339 1.255 . S
C339 O337 1.284 . S
C339 O338 1.255 . S
H340 C319 0.931 . S
H341 C327 0.931 . S
Co342 N347 2.057 . S
Co342 O359 2.021 . S
Co342 O362 2.062 . S
Co342 O366 2.117 . S
Co342 O367 2.020 . S
C343 O363 1.259 . S
C343 O366 1.258 . S
Co344 N353 2.057 . S
Co344 O360 2.117 . S
Co344 O361 2.020 . S
Co344 O363 2.021 . S
Co344 O368 2.062 . S
C345 N347 1.316 . S
C345 N348 1.347 . S
C345 H350 0.931 . S
C346 N347 1.375 . S
C346 C349 1.350 . S
C346 H351 0.930 . S
N347 Co342 2.057 . S
N347 C345 1.316 . S
N347 C346 1.375 . S
N348 C345 1.347 . S
N348 C349 1.373 . S
C349 C346 1.350 . S
C349 N348 1.373 . S
C349 H370 0.931 . S
H350 C345 0.931 . S
H351 C346 0.930 . S
C352 O359 1.259 . S
C352 O360 1.258 . S
N353 Co344 2.057 . S
N353 C354 1.316 . S
N353 C355 1.375 . S
C354 N353 1.316 . S
C354 N356 1.347 . S
C354 H365 0.931 . S
C355 N353 1.375 . S
C355 C357 1.350 . S
C355 H364 0.930 . S
N356 C354 1.347 . S
N356 C357 1.373 . S
C357 C355 1.350 . S
C357 N356 1.373 . S
C357 H371 0.931 . S
C358 O361 1.256 . S
C358 O362 1.255 . S
O359 Co342 2.021 . S
O359 C352 1.259 . S
O360 Co344 2.117 . S
O360 C352 1.258 . S
O361 Co344 2.020 . S
O361 C358 1.256 . S
O362 Co342 2.062 . S
O362 C358 1.255 . S
O363 C343 1.259 . S
O363 Co344 2.021 . S
H364 C355 0.930 . S
H365 C354 0.931 . S
O366 Co342 2.117 . S
O366 C343 1.258 . S
O367 Co342 2.020 . S
O367 C369 1.256 . S
O368 Co344 2.062 . S
O368 C369 1.255 . S
C369 O367 1.256 . S
C369 O368 1.255 . S
H370 C349 0.931 . S
H371 C357 0.931 . S
Co372 N377 2.057 . S
Co372 O389 2.021 1_545 S
Co372 O392 2.062 . S
Co372 O396 2.117 . S
Co372 O397 2.020 . S
C373 O393 1.259 . S
C373 O396 1.258 . S
Co374 N383 2.057 . S
Co374 O390 2.117 . S
Co374 O391 2.020 . S
Co374 O393 2.021 . S
Co374 O398 2.062 . S
C375 N377 1.316 1_565 S
C375 N378 1.347 1_565 S
C375 H380 0.931 . S
C376 N377 1.375 . S
C376 C379 1.350 . S
C376 H381 0.930 . S
N377 Co372 2.057 . S
N377 C375 1.316 1_545 S
N377 C376 1.375 . S
N378 C375 1.347 1_545 S
N378 C379 1.373 . S
C379 C376 1.350 . S
C379 N378 1.373 . S
C379 H400 0.931 . S
H380 C375 0.931 . S
H381 C376 0.930 . S
C382 O389 1.259 . S
C382 O390 1.258 1_565 S
N383 Co374 2.057 . S
N383 C384 1.316 . S
N383 C385 1.375 . S
C384 N383 1.316 . S
C384 N386 1.347 . S
C384 H395 0.931 . S
C385 N383 1.375 . S
C385 C387 1.350 . S
C385 H394 0.930 . S
N386 C384 1.347 . S
N386 C387 1.373 . S
C387 C385 1.350 . S
C387 N386 1.373 . S
C387 H401 0.931 . S
C388 O391 1.256 . S
C388 O392 1.255 . S
O389 Co372 2.021 1_565 S
O389 C382 1.259 . S
O390 Co374 2.117 . S
O390 C382 1.258 1_545 S
O391 Co374 2.020 . S
O391 C388 1.256 . S
O392 Co372 2.062 . S
O392 C388 1.255 . S
O393 C373 1.259 . S
O393 Co374 2.021 . S
H394 C385 0.930 . S
H395 C384 0.931 . S
O396 Co372 2.117 . S
O396 C373 1.258 . S
O397 Co372 2.020 . S
O397 C399 1.256 . S
O398 Co374 2.062 . S
O398 C399 1.255 . S
C399 O397 1.256 . S
C399 O398 1.255 . S
H400 C379 0.931 . S
H401 C387 0.931 . S
Co402 N407 2.057 . S
Co402 O419 2.021 . S
Co402 O422 2.062 . S
Co402 O426 2.117 . S
Co402 O427 2.020 . S
C403 O423 1.259 . S
C403 O426 1.258 . S
Co404 N413 2.057 . S
Co404 O420 2.117 . S
Co404 O421 2.020 . S
Co404 O423 2.021 . S
Co404 O428 2.062 . S
C405 N407 1.316 . S
C405 N408 1.347 . S
C405 H410 0.931 . S
C406 N407 1.375 . S
C406 C409 1.350 . S
C406 H411 0.930 . S
N407 Co402 2.057 . S
N407 C405 1.316 . S
N407 C406 1.375 . S
N408 C405 1.347 . S
N408 C409 1.373 . S
C409 C406 1.350 . S
C409 N408 1.373 . S
C409 H430 0.931 . S
H410 C405 0.931 . S
H411 C406 0.930 . S
C412 O419 1.259 . S
C412 O420 1.258 . S
N413 Co404 2.057 . S
N413 C414 1.316 . S
N413 C415 1.375 . S
C414 N413 1.316 . S
C414 N416 1.347 . S
C414 H425 0.931 . S
C415 N413 1.375 . S
C415 C417 1.350 . S
C415 H424 0.930 . S
N416 C414 1.347 . S
N416 C417 1.373 . S
C417 C415 1.350 . S
C417 N416 1.373 . S
C417 H431 0.931 . S
C418 O421 1.256 . S
C418 O422 1.255 . S
O419 Co402 2.021 . S
O419 C412 1.259 . S
O420 Co404 2.117 . S
O420 C412 1.258 . S
O421 Co404 2.020 . S
O421 C418 1.256 . S
O422 Co402 2.062 . S
O422 C418 1.255 . S
O423 C403 1.259 . S
O423 Co404 2.021 . S
H424 C415 0.930 . S
H425 C414 0.931 . S
O426 Co402 2.117 . S
O426 C403 1.258 . S
O427 Co402 2.020 . S
O427 C429 1.256 . S
O428 Co404 2.062 . S
O428 C429 1.255 . S
C429 O427 1.256 . S
C429 O428 1.255 . S
H430 C409 0.931 . S
H431 C417 0.931 . S
Co432 N437 2.057 1_545 S
Co432 O449 2.021 . S
Co432 O452 2.057 1_545 S
Co432 O456 2.117 . S
Co432 O457 2.020 1_455 S
C433 O453 1.259 . S
C433 O456 1.258 . S
Co434 N443 2.057 . S
Co434 O450 2.117 . S
Co434 O451 2.020 . S
Co434 O453 2.021 . S
Co434 O458 2.062 1_455 S
C435 N437 1.316 . S
C435 N438 1.347 . S
C435 H440 0.931 . S
C436 N437 1.375 1_655 S
C436 C439 1.350 . S
C436 H441 0.930 . S
N437 Co432 2.057 1_565 S
N437 C435 1.316 . S
N437 C436 1.375 1_455 S
N438 C435 1.347 . S
N438 C439 1.373 1_455 S
C439 C436 1.350 . S
C439 N438 1.373 1_655 S
C439 H460 0.931 . S
H440 C435 0.931 . S
H441 C436 0.930 . S
C442 O449 1.259 . S
C442 O450 1.258 . S
N443 Co434 2.057 . S
N443 C444 1.316 . S
N443 C445 1.375 . S
C444 N443 1.316 . S
C444 N446 1.347 . S
C444 H455 0.931 . S
C445 N443 1.375 . S
C445 C447 1.350 . S
C445 H454 0.930 . S
N446 C444 1.347 . S
N446 C447 1.373 . S
C447 C445 1.350 . S
C447 N446 1.373 . S
C447 H461 0.931 . S
C448 O451 1.256 . S
C448 O452 1.240 1_545 S
O449 Co432 2.021 . S
O449 C442 1.259 . S
O450 Co434 2.117 . S
O450 C442 1.258 . S
O451 Co434 2.020 . S
O451 C448 1.256 . S
O452 Co432 2.057 1_565 S
O452 C448 1.240 1_565 S
O453 C433 1.259 . S
O453 Co434 2.021 . S
H454 C445 0.930 . S
H455 C444 0.931 . S
O456 Co432 2.117 . S
O456 C433 1.258 . S
O457 Co432 2.020 1_655 S
O457 C459 1.256 . S
O458 Co434 2.062 1_655 S
O458 C459 1.255 . S
C459 O457 1.256 . S
C459 O458 1.255 . S
H460 C439 0.931 . S
H461 C447 0.931 . S
Co462 N467 2.057 . S
Co462 O479 2.021 . S
Co462 O482 2.062 . S
Co462 O486 2.117 . S
Co462 O487 2.020 . S
C463 O483 1.259 . S
C463 O486 1.258 . S
Co464 N473 2.057 . S
Co464 O480 2.117 . S
Co464 O481 2.020 . S
Co464 O483 2.021 . S
Co464 O488 2.062 . S
C465 N467 1.316 . S
C465 N468 1.347 . S
C465 H470 0.931 . S
C466 N467 1.375 . S
C466 C469 1.350 . S
C466 H471 0.930 . S
N467 Co462 2.057 . S
N467 C465 1.316 . S
N467 C466 1.375 . S
N468 C465 1.347 . S
N468 C469 1.373 . S
C469 C466 1.350 . S
C469 N468 1.373 . S
C469 H490 0.931 . S
H470 C465 0.931 . S
H471 C466 0.930 . S
C472 O479 1.259 . S
C472 O480 1.258 . S
N473 Co464 2.057 . S
N473 C474 1.316 . S
N473 C475 1.375 . S
C474 N473 1.316 . S
C474 N476 1.347 . S
C474 H485 0.931 . S
C475 N473 1.375 . S
C475 C477 1.350 . S
C475 H484 0.930 . S
N476 C474 1.347 . S
N476 C477 1.373 . S
C477 C475 1.350 . S
C477 N476 1.373 . S
C477 H491 0.931 . S
C478 O481 1.256 . S
C478 O482 1.255 . S
O479 Co462 2.021 . S
O479 C472 1.259 . S
O480 Co464 2.117 . S
O480 C472 1.258 . S
O481 Co464 2.020 . S
O481 C478 1.256 . S
O482 Co462 2.062 . S
O482 C478 1.255 . S
O483 C463 1.259 . S
O483 Co464 2.021 . S
H484 C475 0.930 . S
H485 C474 0.931 . S
O486 Co462 2.117 . S
O486 C463 1.258 . S
O487 Co462 2.020 . S
O487 C489 1.256 . S
O488 Co464 2.062 . S
O488 C489 1.255 . S
C489 O487 1.256 . S
C489 O488 1.255 . S
H490 C469 0.931 . S
H491 C477 0.931 . S
Co492 N497 2.057 1_554 S
Co492 O509 2.021 . S
Co492 O512 2.062 1_554 S
Co492 O516 2.117 . S
Co492 O517 2.020 1_545 S
C493 O513 1.259 . S
C493 O516 1.258 . S
Co494 N503 2.057 . S
Co494 O510 2.117 . S
Co494 O511 2.020 . S
Co494 O513 2.021 . S
Co494 O518 2.062 . S
C495 N497 1.316 . S
C495 N498 1.347 . S
C495 H500 0.931 . S
C496 N497 1.375 . S
C496 C499 1.350 . S
C496 H501 0.918 1_545 S
N497 Co492 2.057 1_556 S
N497 C495 1.316 . S
N497 C496 1.375 . S
N498 C495 1.347 . S
N498 C499 1.373 . S
C499 C496 1.350 . S
C499 N498 1.373 . S
C499 H520 0.920 1_545 S
H500 C495 0.931 . S
H501 C496 0.918 1_565 S
C502 O509 1.259 . S
C502 O510 1.258 . S
N503 Co494 2.057 . S
N503 C504 1.316 . S
N503 C505 1.375 . S
C504 N503 1.316 . S
C504 N506 1.347 . S
C504 H515 0.931 . S
C505 N503 1.375 . S
C505 C507 1.350 . S
C505 H514 0.930 . S
N506 C504 1.347 . S
N506 C507 1.373 . S
C507 C505 1.350 . S
C507 N506 1.373 . S
C507 H521 0.931 . S
C508 O511 1.256 . S
C508 O512 1.255 1_554 S
O509 Co492 2.021 . S
O509 C502 1.259 . S
O510 Co494 2.117 . S
O510 C502 1.258 . S
O511 Co494 2.020 . S
O511 C508 1.256 . S
O512 Co492 2.062 1_556 S
O512 C508 1.255 1_556 S
O513 C493 1.259 . S
O513 Co494 2.021 . S
H514 C505 0.930 . S
H515 C504 0.931 . S
O516 Co492 2.117 . S
O516 C493 1.258 . S
O517 Co492 2.020 1_565 S
O517 C519 1.256 . S
O518 Co494 2.062 . S
O518 C519 1.255 1_545 S
C519 O517 1.256 . S
C519 O518 1.255 1_565 S
H520 C499 0.920 1_565 S
H521 C507 0.931 . S
Co522 N527 2.057 . S
Co522 O539 2.021 . S
Co522 O542 2.062 . S
Co522 O546 2.117 . S
Co522 O547 2.020 . S
C523 O543 1.259 . S
C523 O546 1.258 . S
Co524 N533 2.057 . S
Co524 O540 2.117 . S
Co524 O541 2.020 . S
Co524 O543 2.021 . S
Co524 O548 2.062 . S
C525 N527 1.316 . S
C525 N528 1.347 . S
C525 H530 0.931 . S
C526 N527 1.375 . S
C526 C529 1.350 . S
C526 H531 0.930 . S
N527 Co522 2.057 . S
N527 C525 1.316 . S
N527 C526 1.375 . S
N528 C525 1.347 . S
N528 C529 1.373 . S
C529 C526 1.350 . S
C529 N528 1.373 . S
C529 H550 0.931 . S
H530 C525 0.931 . S
H531 C526 0.930 . S
C532 O539 1.259 . S
C532 O540 1.258 . S
N533 Co524 2.057 . S
N533 C534 1.316 . S
N533 C535 1.375 . S
C534 N533 1.316 . S
C534 N536 1.347 . S
C534 H545 0.931 . S
C535 N533 1.375 . S
C535 C537 1.350 . S
C535 H544 0.930 . S
N536 C534 1.347 . S
N536 C537 1.373 . S
C537 C535 1.350 . S
C537 N536 1.373 . S
C537 H551 0.931 . S
C538 O541 1.256 . S
C538 O542 1.255 . S
O539 Co522 2.021 . S
O539 C532 1.259 . S
O540 Co524 2.117 . S
O540 C532 1.258 . S
O541 Co524 2.020 . S
O541 C538 1.256 . S
O542 Co522 2.062 . S
O542 C538 1.255 . S
O543 C523 1.259 . S
O543 Co524 2.021 . S
H544 C535 0.930 . S
H545 C534 0.931 . S
O546 Co522 2.117 . S
O546 C523 1.258 . S
O547 Co522 2.020 . S
O547 C549 1.256 . S
O548 Co524 2.062 . S
O548 C549 1.255 . S
C549 O547 1.256 . S
C549 O548 1.255 . S
H550 C529 0.931 . S
H551 C537 0.931 . S
Co552 N557 2.057 . S
Co552 O569 2.021 1_554 S
Co552 O572 2.062 . S
Co552 O576 2.117 . S
Co552 O577 2.020 . S
C553 O573 1.259 . S
C553 O576 1.258 . S
Co554 N563 2.057 . S
Co554 O570 2.117 1_554 S
Co554 O571 2.020 . S
Co554 O573 2.021 . S
Co554 O578 2.062 . S
C555 N557 1.316 1_556 S
C555 N558 1.347 1_556 S
C555 H560 0.931 . S
C556 N557 1.375 . S
C556 C559 1.350 . S
C556 H561 0.930 . S
N557 Co552 2.057 . S
N557 C555 1.316 1_554 S
N557 C556 1.375 . S
N558 C555 1.347 1_554 S
N558 C559 1.373 . S
C559 C556 1.350 . S
C559 N558 1.373 . S
C559 H580 0.931 . S
H560 C555 0.931 . S
H561 C556 0.930 . S
C562 O569 1.259 . S
C562 O570 1.258 . S
N563 Co554 2.057 . S
N563 C564 1.316 . S
N563 C565 1.375 . S
C564 N563 1.316 . S
C564 N566 1.347 . S
C564 H575 0.931 . S
C565 N563 1.375 . S
C565 C567 1.350 . S
C565 H574 0.930 . S
N566 C564 1.347 . S
N566 C567 1.373 . S
C567 C565 1.350 . S
C567 N566 1.373 . S
C567 H581 0.931 . S
C568 O571 1.256 . S
C568 O572 1.255 . S
O569 Co552 2.021 1_556 S
O569 C562 1.259 . S
O570 Co554 2.117 1_556 S
O570 C562 1.258 . S
O571 Co554 2.020 . S
O571 C568 1.256 . S
O572 Co552 2.062 . S
O572 C568 1.255 . S
O573 C553 1.259 . S
O573 Co554 2.021 . S
H574 C565 0.930 . S
H575 C564 0.931 . S
O576 Co552 2.117 . S
O576 C553 1.258 . S
O577 Co552 2.020 . S
O577 C579 1.256 . S
O578 Co554 2.062 . S
O578 C579 1.255 . S
C579 O577 1.256 . S
C579 O578 1.255 . S
H580 C559 0.931 . S
H581 C567 0.931 . S
Co582 N587 2.057 . S
Co582 O599 2.021 . S
Co582 O602 2.062 . S
Co582 O606 2.117 . S
Co582 O607 2.020 . S
C583 O603 1.259 . S
C583 O606 1.258 . S
Co584 N593 2.057 . S
Co584 O600 2.117 . S
Co584 O601 2.020 . S
Co584 O603 2.021 . S
Co584 O608 2.062 . S
C585 N587 1.316 . S
C585 N588 1.347 . S
C585 H590 0.931 . S
C586 N587 1.375 . S
C586 C589 1.350 . S
C586 H591 0.930 . S
N587 Co582 2.057 . S
N587 C585 1.316 . S
N587 C586 1.375 . S
N588 C585 1.347 . S
N588 C589 1.373 . S
C589 C586 1.350 . S
C589 N588 1.373 . S
C589 H610 0.931 . S
H590 C585 0.931 . S
H591 C586 0.930 . S
C592 O599 1.259 . S
C592 O600 1.258 . S
N593 Co584 2.057 . S
N593 C594 1.316 . S
N593 C595 1.375 . S
C594 N593 1.316 . S
C594 N596 1.347 . S
C594 H605 0.931 . S
C595 N593 1.375 . S
C595 C597 1.350 . S
C595 H604 0.930 . S
N596 C594 1.347 . S
N596 C597 1.373 . S
C597 C595 1.350 . S
C597 N596 1.373 . S
C597 H611 0.931 . S
C598 O601 1.256 . S
C598 O602 1.255 . S
O599 Co582 2.021 . S
O599 C592 1.259 . S
O600 Co584 2.117 . S
O600 C592 1.258 . S
O601 Co584 2.020 . S
O601 C598 1.256 . S
O602 Co582 2.062 . S
O602 C598 1.255 . S
O603 C583 1.259 . S
O603 Co584 2.021 . S
H604 C595 0.930 . S
H605 C594 0.931 . S
O606 Co582 2.117 . S
O606 C583 1.258 . S
O607 Co582 2.020 . S
O607 C609 1.256 . S
O608 Co584 2.062 . S
O608 C609 1.255 . S
C609 O607 1.256 . S
C609 O608 1.255 . S
H610 C589 0.931 . S
H611 C597 0.931 . S
Co612 N617 2.057 . S
Co612 O629 2.021 1_455 S
Co612 O632 2.062 . S
Co612 O636 2.117 . S
Co612 O637 2.020 . S
C613 O633 1.259 . S
C613 O636 1.258 . S
Co614 N623 2.057 . S
Co614 O630 2.117 1_455 S
Co614 O631 2.020 . S
Co614 O633 2.021 . S
Co614 O638 2.062 . S
C615 N617 1.316 1_655 S
C615 N618 1.347 . S
C615 H620 0.931 . S
C616 N617 1.375 . S
C616 C619 1.350 . S
C616 H621 0.930 . S
N617 Co612 2.057 . S
N617 C615 1.316 1_455 S
N617 C616 1.375 . S
N618 C615 1.347 . S
N618 C619 1.373 1_655 S
C619 C616 1.350 . S
C619 N618 1.373 1_455 S
C619 H640 0.931 . S
H620 C615 0.931 . S
H621 C616 0.930 . S
C622 O629 1.259 . S
C622 O630 1.258 . S
N623 Co614 2.057 . S
N623 C624 1.316 . S
N623 C625 1.375 . S
C624 N623 1.316 . S
C624 N626 1.347 . S
C624 H635 0.931 . S
C625 N623 1.375 . S
C625 C627 1.350 . S
C625 H634 0.930 . S
N626 C624 1.347 . S
N626 C627 1.373 . S
C627 C625 1.350 . S
C627 N626 1.373 . S
C627 H641 0.931 . S
C628 O631 1.256 . S
C628 O632 1.255 . S
O629 Co612 2.021 1_655 S
O629 C622 1.259 . S
O630 Co614 2.117 1_655 S
O630 C622 1.258 . S
O631 Co614 2.020 . S
O631 C628 1.256 . S
O632 Co612 2.062 . S
O632 C628 1.255 . S
O633 C613 1.259 . S
O633 Co614 2.021 . S
H634 C625 0.930 . S
H635 C624 0.931 . S
O636 Co612 2.117 . S
O636 C613 1.258 . S
O637 Co612 2.020 . S
O637 C639 1.256 . S
O638 Co614 2.062 . S
O638 C639 1.255 . S
C639 O637 1.256 . S
C639 O638 1.255 . S
H640 C619 0.931 . S
H641 C627 0.931 . S
Co642 N647 2.057 . S
Co642 O659 2.021 . S
Co642 O662 2.062 . S
Co642 O666 2.117 . S
Co642 O667 2.020 . S
C643 O663 1.259 . S
C643 O666 1.258 . S
Co644 N653 2.057 . S
Co644 O660 2.117 . S
Co644 O661 2.020 . S
Co644 O663 2.021 . S
Co644 O668 2.062 . S
C645 N647 1.316 . S
C645 N648 1.347 . S
C645 H650 0.931 . S
C646 N647 1.375 . S
C646 C649 1.350 . S
C646 H651 0.930 . S
N647 Co642 2.057 . S
N647 C645 1.316 . S
N647 C646 1.375 . S
N648 C645 1.347 . S
N648 C649 1.373 . S
C649 C646 1.350 . S
C649 N648 1.373 . S
C649 H670 0.931 . S
H650 C645 0.931 . S
H651 C646 0.930 . S
C652 O659 1.259 . S
C652 O660 1.258 . S
N653 Co644 2.057 . S
N653 C654 1.316 . S
N653 C655 1.375 . S
C654 N653 1.316 . S
C654 N656 1.347 . S
C654 H665 0.931 . S
C655 N653 1.375 . S
C655 C657 1.350 . S
C655 H664 0.930 . S
N656 C654 1.347 . S
N656 C657 1.373 . S
C657 C655 1.350 . S
C657 N656 1.373 . S
C657 H671 0.931 . S
C658 O661 1.256 . S
C658 O662 1.255 . S
O659 Co642 2.021 . S
O659 C652 1.259 . S
O660 Co644 2.117 . S
O660 C652 1.258 . S
O661 Co644 2.020 . S
O661 C658 1.256 . S
O662 Co642 2.062 . S
O662 C658 1.255 . S
O663 C643 1.259 . S
O663 Co644 2.021 . S
H664 C655 0.930 . S
H665 C654 0.931 . S
O666 Co642 2.117 . S
O666 C643 1.258 . S
O667 Co642 2.020 . S
O667 C669 1.256 . S
O668 Co644 2.062 . S
O668 C669 1.255 . S
C669 O667 1.256 . S
C669 O668 1.255 . S
H670 C649 0.931 . S
H671 C657 0.931 . S
Co672 N677 2.057 . S
Co672 O689 2.021 . S
Co672 O692 2.062 . S
Co672 O696 2.117 . S
Co672 O697 2.020 . S
C673 O693 1.259 . S
C673 O696 1.258 . S
Co674 N683 2.057 . S
Co674 O690 2.117 . S
Co674 O691 2.020 . S
Co674 O693 2.021 . S
Co674 O698 2.062 . S
C675 N677 1.316 . S
C675 N678 1.347 . S
C675 H680 0.931 . S
C676 N677 1.375 . S
C676 C679 1.350 . S
C676 H681 0.930 . S
N677 Co672 2.057 . S
N677 C675 1.316 . S
N677 C676 1.375 . S
N678 C675 1.347 . S
N678 C679 1.373 . S
C679 C676 1.350 . S
C679 N678 1.373 . S
C679 H700 0.931 . S
H680 C675 0.931 . S
H681 C676 0.930 . S
C682 O689 1.259 . S
C682 O690 1.258 . S
N683 Co674 2.057 . S
N683 C684 1.316 . S
N683 C685 1.375 . S
C684 N683 1.316 . S
C684 N686 1.347 . S
C684 H695 0.931 . S
C685 N683 1.375 . S
C685 C687 1.350 . S
C685 H694 0.930 . S
N686 C684 1.347 . S
N686 C687 1.373 . S
C687 C685 1.350 . S
C687 N686 1.373 . S
C687 H701 0.931 . S
C688 O691 1.256 . S
C688 O692 1.255 . S
O689 Co672 2.021 . S
O689 C682 1.259 . S
O690 Co674 2.117 . S
O690 C682 1.258 . S
O691 Co674 2.020 . S
O691 C688 1.256 . S
O692 Co672 2.062 . S
O692 C688 1.255 . S
O693 C673 1.259 . S
O693 Co674 2.021 . S
H694 C685 0.930 . S
H695 C684 0.931 . S
O696 Co672 2.117 . S
O696 C673 1.258 . S
O697 Co672 2.020 . S
O697 C699 1.256 . S
O698 Co674 2.062 . S
O698 C699 1.255 . S
C699 O697 1.256 . S
C699 O698 1.255 . S
H700 C679 0.931 . S
H701 C687 0.931 . S
Co702 N707 2.057 . S
Co702 O719 2.021 . S
Co702 O722 2.062 . S
Co702 O726 2.117 . S
Co702 O727 2.020 . S
C703 O723 1.259 . S
C703 O726 1.258 . S
Co704 N713 2.057 . S
Co704 O720 2.117 . S
Co704 O721 2.020 . S
Co704 O723 2.021 . S
Co704 O728 2.062 . S
C705 N707 1.316 . S
C705 N708 1.347 . S
C705 H710 0.931 . S
C706 N707 1.375 . S
C706 C709 1.350 . S
C706 H711 0.930 . S
N707 Co702 2.057 . S
N707 C705 1.316 . S
N707 C706 1.375 . S
N708 C705 1.347 . S
N708 C709 1.373 . S
C709 C706 1.350 . S
C709 N708 1.373 . S
C709 H730 0.931 . S
H710 C705 0.931 . S
H711 C706 0.930 . S
C712 O719 1.259 . S
C712 O720 1.258 . S
N713 Co704 2.057 . S
N713 C714 1.316 . S
N713 C715 1.375 . S
C714 N713 1.316 . S
C714 N716 1.347 . S
C714 H725 0.931 . S
C715 N713 1.375 . S
C715 C717 1.350 . S
C715 H724 0.930 . S
N716 C714 1.347 . S
N716 C717 1.373 . S
C717 C715 1.350 . S
C717 N716 1.373 . S
C717 H731 0.931 . S
C718 O721 1.256 . S
C718 O722 1.255 . S
O719 Co702 2.021 . S
O719 C712 1.259 . S
O720 Co704 2.117 . S
O720 C712 1.258 . S
O721 Co704 2.020 . S
O721 C718 1.256 . S
O722 Co702 2.062 . S
O722 C718 1.255 . S
O723 C703 1.259 . S
O723 Co704 2.021 . S
H724 C715 0.930 . S
H725 C714 0.931 . S
O726 Co702 2.117 . S
O726 C703 1.258 . S
O727 Co702 2.020 . S
O727 C729 1.256 . S
O728 Co704 2.062 . S
O728 C729 1.255 . S
C729 O727 1.256 . S
C729 O728 1.255 . S
H730 C709 0.931 . S
H731 C717 0.931 . S
Co732 N737 2.057 . S
Co732 O749 2.021 . S
Co732 O752 2.062 . S
Co732 O756 2.117 . S
Co732 O757 2.020 . S
C733 O753 1.259 . S
C733 O756 1.258 . S
Co734 N743 2.057 . S
Co734 O750 2.117 . S
Co734 O751 2.020 . S
Co734 O753 2.021 . S
Co734 O758 2.062 . S
C735 N737 1.316 . S
C735 N738 1.347 . S
C735 H740 0.931 . S
C736 N737 1.375 . S
C736 C739 1.350 . S
C736 H741 0.930 . S
N737 Co732 2.057 . S
N737 C735 1.316 . S
N737 C736 1.375 . S
N738 C735 1.347 . S
N738 C739 1.373 . S
C739 C736 1.350 . S
C739 N738 1.373 . S
C739 H760 0.931 . S
H740 C735 0.931 . S
H741 C736 0.930 . S
C742 O749 1.259 . S
C742 O750 1.258 . S
N743 Co734 2.057 . S
N743 C744 1.316 . S
N743 C745 1.375 . S
C744 N743 1.316 . S
C744 N746 1.347 . S
C744 H755 0.931 . S
C745 N743 1.375 . S
C745 C747 1.350 . S
C745 H754 0.930 . S
N746 C744 1.347 . S
N746 C747 1.373 . S
C747 C745 1.350 . S
C747 N746 1.373 . S
C747 H761 0.931 . S
C748 O751 1.256 . S
C748 O752 1.255 . S
O749 Co732 2.021 . S
O749 C742 1.259 . S
O750 Co734 2.117 . S
O750 C742 1.258 . S
O751 Co734 2.020 . S
O751 C748 1.256 . S
O752 Co732 2.062 . S
O752 C748 1.255 . S
O753 C733 1.259 . S
O753 Co734 2.021 . S
H754 C745 0.930 . S
H755 C744 0.931 . S
O756 Co732 2.117 . S
O756 C733 1.258 . S
O757 Co732 2.020 . S
O757 C759 1.256 . S
O758 Co734 2.062 . S
O758 C759 1.255 . S
C759 O757 1.256 . S
C759 O758 1.255 . S
H760 C739 0.931 . S
H761 C747 0.931 . S
Co762 N767 2.057 1_455 S
Co762 O779 2.021 . S
Co762 O782 2.062 1_455 S
Co762 O786 2.117 . S
Co762 O787 2.020 1_554 S
C763 O783 1.259 . S
C763 O786 1.258 . S
Co764 N773 2.057 . S
Co764 O780 2.117 . S
Co764 O781 2.020 . S
Co764 O783 2.021 . S
Co764 O788 2.037 1_554 S
C765 N767 1.316 . S
C765 N768 1.347 . S
C765 H770 0.931 . S
C766 N767 1.390 . S
C766 C769 1.350 . S
C766 H771 0.919 1_554 S
N767 Co762 2.057 1_655 S
N767 C765 1.316 . S
N767 C766 1.390 . S
N768 C765 1.347 . S
N768 C769 1.385 . S
C769 C766 1.350 . S
C769 N768 1.385 . S
C769 H790 0.920 1_554 S
H770 C765 0.931 . S
H771 C766 0.919 1_556 S
C772 O779 1.259 . S
C772 O780 1.258 . S
N773 Co764 2.057 . S
N773 C774 1.316 . S
N773 C775 1.375 . S
C774 N773 1.316 . S
C774 N776 1.347 . S
C774 H785 0.931 . S
C775 N773 1.375 . S
C775 C777 1.350 . S
C775 H784 0.930 . S
N776 C774 1.347 . S
N776 C777 1.373 . S
C777 C775 1.350 . S
C777 N776 1.373 . S
C777 H791 0.931 . S
C778 O781 1.256 . S
C778 O782 1.255 1_455 S
O779 Co762 2.021 . S
O779 C772 1.259 . S
O780 Co764 2.117 . S
O780 C772 1.258 . S
O781 Co764 2.020 . S
O781 C778 1.256 . S
O782 Co762 2.062 1_655 S
O782 C778 1.255 1_655 S
O783 C763 1.259 . S
O783 Co764 2.021 . S
H784 C775 0.930 . S
H785 C774 0.931 . S
O786 Co762 2.117 . S
O786 C763 1.258 . S
O787 Co762 2.020 1_556 S
O787 C789 1.256 . S
O788 Co764 2.037 1_556 S
O788 C789 1.272 . S
C789 O787 1.256 . S
C789 O788 1.272 . S
H790 C769 0.920 1_556 S
H791 C777 0.931 . S
C792 C793 1.363 . S
C792 C798 1.379 . S
C792 N800 1.356 . S
C793 C792 1.363 . S
C793 C799 1.363 . S
C794 C795 1.363 . S
C794 C799 1.379 . S
C794 N801 1.356 1_455 S
C795 C794 1.363 . S
C795 C798 1.363 . S
N796 C798 1.356 . S
N796 H808 0.984 . S
N796 H809 0.985 . S
N797 C799 1.356 . S
N797 H802 0.984 . S
N797 H803 0.985 1_455 S
C798 C792 1.379 . S
C798 C795 1.363 . S
C798 N796 1.356 . S
C799 C793 1.363 . S
C799 C794 1.379 . S
C799 N797 1.356 . S
N800 C792 1.356 . S
N800 H806 0.984 . S
N800 H807 0.984 . S
N801 C794 1.356 1_655 S
N801 H804 0.984 . S
N801 H805 0.985 . S
H802 N797 0.984 . S
H803 N797 0.985 1_655 S
H804 N801 0.984 . S
H805 N801 0.985 . S
H806 N800 0.984 . S
H807 N800 0.984 . S
H808 N796 0.984 . S
H809 N796 0.985 . S
C810 C811 1.363 . S
C810 C816 1.379 . S
C810 N818 1.356 . S
C811 C810 1.363 . S
C811 C817 1.363 . S
C812 C813 1.363 . S
C812 C817 1.379 . S
C812 N819 1.356 . S
C813 C812 1.363 . S
C813 C816 1.363 . S
N814 C816 1.356 . S
N814 H826 0.984 . S
N814 H827 0.985 . S
N815 C817 1.356 . S
N815 H820 0.984 . S
N815 H821 0.985 . S
C816 C810 1.379 . S
C816 C813 1.363 . S
C816 N814 1.356 . S
C817 C811 1.363 . S
C817 C812 1.379 . S
C817 N815 1.356 . S
N818 C810 1.356 . S
N818 H824 0.984 . S
N818 H825 0.984 . S
N819 C812 1.356 . S
N819 H822 0.984 . S
N819 H823 0.985 . S
H820 N815 0.984 . S
H821 N815 0.985 . S
H822 N819 0.984 . S
H823 N819 0.985 . S
H824 N818 0.984 . S
H825 N818 0.984 . S
H826 N814 0.984 . S
H827 N814 0.985 . S
C828 C829 1.363 . S
C828 C834 1.379 . S
C828 N836 1.356 . S
C829 C828 1.363 . S
C829 C835 1.363 . S
C830 C831 1.363 . S
C830 C835 1.379 . S
C830 N837 1.356 . S
C831 C830 1.363 . S
C831 C834 1.363 . S
N832 C834 1.356 . S
N832 H844 0.984 . S
N832 H845 0.985 . S
N833 C835 1.356 . S
N833 H838 0.984 . S
N833 H839 0.985 . S
C834 C828 1.379 . S
C834 C831 1.363 . S
C834 N832 1.356 . S
C835 C829 1.363 . S
C835 C830 1.379 . S
C835 N833 1.356 . S
N836 C828 1.356 . S
N836 H842 0.984 . S
N836 H843 0.984 . S
N837 C830 1.356 . S
N837 H840 0.984 . S
N837 H841 0.985 . S
H838 N833 0.984 . S
H839 N833 0.985 . S
H840 N837 0.984 . S
H841 N837 0.985 . S
H842 N836 0.984 . S
H843 N836 0.984 . S
H844 N832 0.984 . S
H845 N832 0.985 . S
C846 C847 1.363 . S
C846 C852 1.379 . S
C846 N854 1.356 . S
C847 C846 1.363 . S
C847 C853 1.363 . S
C848 C849 1.363 . S
C848 C853 1.379 . S
C848 N855 1.356 . S
C849 C848 1.363 . S
C849 C852 1.363 . S
N850 C852 1.356 . S
N850 H862 0.984 . S
N850 H863 0.985 . S
N851 C853 1.356 . S
N851 H856 0.984 . S
N851 H857 0.985 . S
C852 C846 1.379 . S
C852 C849 1.363 . S
C852 N850 1.356 . S
C853 C847 1.363 . S
C853 C848 1.379 . S
C853 N851 1.356 . S
N854 C846 1.356 . S
N854 H860 0.984 . S
N854 H861 0.984 . S
N855 C848 1.356 . S
N855 H858 0.984 . S
N855 H859 0.985 . S
H856 N851 0.984 . S
H857 N851 0.985 . S
H858 N855 0.984 . S
H859 N855 0.985 . S
H860 N854 0.984 . S
H861 N854 0.984 . S
H862 N850 0.984 . S
H863 N850 0.985 . S
C864 C865 1.363 . S
C864 C870 1.379 . S
C864 N872 1.356 . S
C865 C864 1.363 . S
C865 C871 1.363 . S
C866 C867 1.363 . S
C866 C871 1.379 . S
C866 N873 1.356 . S
C867 C866 1.363 . S
C867 C870 1.363 . S
N868 C870 1.356 1_655 S
N868 H880 0.984 . S
N868 H881 0.985 . S
N869 C871 1.356 . S
N869 H874 0.984 . S
N869 H875 0.985 . S
C870 C864 1.379 . S
C870 C867 1.363 . S
C870 N868 1.356 1_455 S
C871 C865 1.363 . S
C871 C866 1.379 . S
C871 N869 1.356 . S
N872 C864 1.356 . S
N872 H878 0.984 . S
N872 H879 0.984 . S
N873 C866 1.356 . S
N873 H876 0.984 . S
N873 H877 0.985 . S
H874 N869 0.984 . S
H875 N869 0.985 . S
H876 N873 0.984 . S
H877 N873 0.985 . S
H878 N872 0.984 . S
H879 N872 0.984 . S
H880 N868 0.984 . S
H881 N868 0.985 . S
C882 C883 1.363 . S
C882 C888 1.379 . S
C882 N890 1.356 . S
C883 C882 1.363 . S
C883 C889 1.363 . S
C884 C885 1.363 . S
C884 C889 1.379 . S
C884 N891 1.356 . S
C885 C884 1.363 . S
C885 C888 1.363 . S
N886 C888 1.356 . S
N886 H898 0.984 . S
N886 H899 0.985 . S
N887 C889 1.356 . S
N887 H892 0.984 . S
N887 H893 0.985 . S
C888 C882 1.379 . S
C888 C885 1.363 . S
C888 N886 1.356 . S
C889 C883 1.363 . S
C889 C884 1.379 . S
C889 N887 1.356 . S
N890 C882 1.356 . S
N890 H896 0.984 . S
N890 H897 0.984 . S
N891 C884 1.356 . S
N891 H894 0.984 . S
N891 H895 0.985 . S
H892 N887 0.984 . S
H893 N887 0.985 . S
H894 N891 0.984 . S
H895 N891 0.985 . S
H896 N890 0.984 . S
H897 N890 0.984 . S
H898 N886 0.984 . S
H899 N886 0.985 . S
C900 C901 1.363 . S
C900 C906 1.379 . S
C900 N908 1.356 . S
C901 C900 1.363 . S
C901 C907 1.363 . S
C902 C903 1.353 1_554 S
C902 C907 1.379 1_554 S
C902 N909 1.356 . S
C903 C902 1.353 1_556 S
C903 C906 1.384 . S
N904 C906 1.356 . S
N904 H916 0.984 . S
N904 H917 0.985 . S
N905 C907 1.356 1_554 S
N905 H910 0.984 1_554 S
N905 H911 0.985 . S
C906 C900 1.379 . S
C906 C903 1.384 . S
C906 N904 1.356 . S
C907 C901 1.363 . S
C907 C902 1.379 1_556 S
C907 N905 1.356 1_556 S
N908 C900 1.356 . S
N908 H914 0.984 . S
N908 H915 0.984 . S
N909 C902 1.356 . S
N909 H912 0.984 . S
N909 H913 0.985 . S
H910 N905 0.984 1_556 S
H911 N905 0.985 . S
H912 N909 0.984 . S
H913 N909 0.985 . S
H914 N908 0.984 . S
H915 N908 0.984 . S
H916 N904 0.984 . S
H917 N904 0.985 . S
C918 C919 1.363 . S
C918 C924 1.379 . S
C918 N926 1.356 . S
C919 C918 1.363 . S
C919 C925 1.363 . S
C920 C921 1.363 . S
C920 C925 1.379 . S
C920 N927 1.356 . S
C921 C920 1.363 . S
C921 C924 1.363 . S
N922 C924 1.356 . S
N922 H934 0.984 . S
N922 H935 0.985 . S
N923 C925 1.356 . S
N923 H928 0.984 . S
N923 H929 0.985 . S
C924 C918 1.379 . S
C924 C921 1.363 . S
C924 N922 1.356 . S
C925 C919 1.363 . S
C925 C920 1.379 . S
C925 N923 1.356 . S
N926 C918 1.356 . S
N926 H932 0.984 . S
N926 H933 0.984 . S
N927 C920 1.356 . S
N927 H930 0.984 . S
N927 H931 0.985 . S
H928 N923 0.984 . S
H929 N923 0.985 . S
H930 N927 0.984 . S
H931 N927 0.985 . S
H932 N926 0.984 . S
H933 N926 0.984 . S
H934 N922 0.984 . S
H935 N922 0.985 . S
C936 C937 1.363 . S
C936 C942 1.379 . S
C936 N944 1.356 . S
C937 C936 1.363 . S
C937 C943 1.363 1_545 S
C938 C939 1.363 1_565 S
C938 C943 1.379 . S
C938 N945 1.356 . S
C939 C938 1.363 1_545 S
C939 C942 1.363 . S
N940 C942 1.356 . S
N940 H952 0.984 . S
N940 H953 0.985 . S
N941 C943 1.356 . S
N941 H946 0.984 . S
N941 H947 0.985 . S
C942 C936 1.379 . S
C942 C939 1.363 . S
C942 N940 1.356 . S
C943 C937 1.363 1_565 S
C943 C938 1.379 . S
C943 N941 1.356 . S
N944 C936 1.356 . S
N944 H950 0.984 . S
N944 H951 0.984 . S
N945 C938 1.356 . S
N945 H948 0.984 . S
N945 H949 0.985 . S
H946 N941 0.984 . S
H947 N941 0.985 . S
H948 N945 0.984 . S
H949 N945 0.985 . S
H950 N944 0.984 . S
H951 N944 0.984 . S
H952 N940 0.984 . S
H953 N940 0.985 . S
C954 C955 1.363 . S
C954 C960 1.379 . S
C954 N962 1.356 . S
C955 C954 1.363 . S
C955 C961 1.363 . S
C956 C957 1.363 . S
C956 C961 1.379 . S
C956 N963 1.356 . S
C957 C956 1.363 . S
C957 C960 1.363 . S
N958 C960 1.356 . S
N958 H970 0.984 . S
N958 H971 0.985 . S
N959 C961 1.356 . S
N959 H964 0.984 . S
N959 H965 0.985 . S
C960 C954 1.379 . S
C960 C957 1.363 . S
C960 N958 1.356 . S
C961 C955 1.363 . S
C961 C956 1.379 . S
C961 N959 1.356 . S
N962 C954 1.356 . S
N962 H968 0.984 . S
N962 H969 0.984 . S
N963 C956 1.356 . S
N963 H966 0.984 . S
N963 H967 0.985 . S
H964 N959 0.984 . S
H965 N959 0.985 . S
H966 N963 0.984 . S
H967 N963 0.985 . S
H968 N962 0.984 . S
H969 N962 0.984 . S
H970 N958 0.984 . S
H971 N958 0.985 . S
C972 C973 1.363 . S
C972 C978 1.379 . S
C972 N980 1.356 . S
C973 C972 1.363 . S
C973 C979 1.363 . S
C974 C975 1.363 . S
C974 C979 1.379 . S
C974 N981 1.356 . S
C975 C974 1.363 . S
C975 C978 1.363 . S
N976 C978 1.356 . S
N976 H988 0.984 . S
N976 H989 0.985 . S
N977 C979 1.356 . S
N977 H982 0.984 . S
N977 H983 0.985 . S
C978 C972 1.379 . S
C978 C975 1.363 . S
C978 N976 1.356 . S
C979 C973 1.363 . S
C979 C974 1.379 . S
C979 N977 1.356 . S
N980 C972 1.356 . S
N980 H986 0.984 . S
N980 H987 0.984 . S
N981 C974 1.356 . S
N981 H984 0.984 . S
N981 H985 0.985 . S
H982 N977 0.984 . S
H983 N977 0.985 . S
H984 N981 0.984 . S
H985 N981 0.985 . S
H986 N980 0.984 . S
H987 N980 0.984 . S
H988 N976 0.984 . S
H989 N976 0.985 . S
C990 C991 1.363 . S
C990 C996 1.379 . S
C990 N998 1.356 . S
C991 C990 1.363 . S
C991 C997 1.363 . S
C992 C993 1.363 . S
C992 C997 1.379 . S
C992 N999 1.356 . S
C993 C992 1.363 . S
C993 C996 1.363 . S
N994 C996 1.356 . S
N994 H1006 0.984 . S
N994 H1007 0.985 . S
N995 C997 1.356 . S
N995 H1000 0.984 . S
N995 H1001 0.985 . S
C996 C990 1.379 . S
C996 C993 1.363 . S
C996 N994 1.356 . S
C997 C991 1.363 . S
C997 C992 1.379 . S
C997 N995 1.356 . S
N998 C990 1.356 . S
N998 H1004 0.984 . S
N998 H1005 0.984 . S
N999 C992 1.356 . S
N999 H1002 0.984 . S
N999 H1003 0.985 . S
H1000 N995 0.984 . S
H1001 N995 0.985 . S
H1002 N999 0.984 . S
H1003 N999 0.985 . S
H1004 N998 0.984 . S
H1005 N998 0.984 . S
H1006 N994 0.984 . S
H1007 N994 0.985 . S
C1008 C1009 1.374 . S
C1008 C1014 1.391 . S
C1008 N1016 1.334 1_545 S
C1009 C1008 1.374 . S
C1009 C1015 1.363 . S
C1010 C1011 1.363 . S
C1010 C1015 1.379 . S
C1010 N1017 1.356 . S
C1011 C1010 1.363 . S
C1011 C1014 1.363 . S
N1012 C1014 1.356 . S
N1012 H1024 0.984 1_545 S
N1012 H1025 0.985 . S
N1013 C1015 1.356 . S
N1013 H1018 0.984 . S
N1013 H1019 0.985 . S
C1014 C1008 1.391 . S
C1014 C1011 1.363 . S
C1014 N1012 1.356 . S
C1015 C1009 1.363 . S
C1015 C1010 1.379 . S
C1015 N1013 1.356 . S
N1016 C1008 1.334 1_565 S
N1016 H1022 0.984 . S
N1016 H1023 0.984 . S
N1017 C1010 1.356 . S
N1017 H1020 0.984 . S
N1017 H1021 0.985 . S
H1018 N1013 0.984 . S
H1019 N1013 0.985 . S
H1020 N1017 0.984 . S
H1021 N1017 0.985 . S
H1022 N1016 0.984 . S
H1023 N1016 0.984 . S
H1024 N1012 0.984 1_565 S
H1025 N1012 0.985 . S
C1026 C1027 1.363 . S
C1026 C1032 1.379 . S
C1026 N1034 1.356 . S
C1027 C1026 1.363 . S
C1027 C1033 1.363 . S
C1028 C1029 1.363 . S
C1028 C1033 1.379 . S
C1028 N1035 1.356 . S
C1029 C1028 1.363 . S
C1029 C1032 1.363 . S
N1030 C1032 1.356 . S
N1030 H1042 0.984 . S
N1030 H1043 0.985 . S
N1031 C1033 1.356 . S
N1031 H1036 0.984 . S
N1031 H1037 0.985 . S
C1032 C1026 1.379 . S
C1032 C1029 1.363 . S
C1032 N1030 1.356 . S
C1033 C1027 1.363 . S
C1033 C1028 1.379 . S
C1033 N1031 1.356 . S
N1034 C1026 1.356 . S
N1034 H1040 0.984 . S
N1034 H1041 0.984 . S
N1035 C1028 1.356 . S
N1035 H1038 0.984 . S
N1035 H1039 0.985 . S
H1036 N1031 0.984 . S
H1037 N1031 0.985 . S
H1038 N1035 0.984 . S
H1039 N1035 0.985 . S
H1040 N1034 0.984 . S
H1041 N1034 0.984 . S
H1042 N1030 0.984 . S
H1043 N1030 0.985 . S
C1044 C1045 1.363 . S
C1044 C1050 1.379 . S
C1044 N1052 1.356 . S
C1045 C1044 1.363 . S
C1045 C1051 1.363 . S
C1046 C1047 1.363 . S
C1046 C1051 1.379 . S
C1046 N1053 1.356 1_545 S
C1047 C1046 1.363 . S
C1047 C1050 1.363 . S
N1048 C1050 1.356 . S
N1048 H1060 0.984 . S
N1048 H1061 0.985 . S
N1049 C1051 1.356 . S
N1049 H1054 0.984 . S
N1049 H1055 0.985 . S
C1050 C1044 1.379 . S
C1050 C1047 1.363 . S
C1050 N1048 1.356 . S
C1051 C1045 1.363 . S
C1051 C1046 1.379 . S
C1051 N1049 1.356 . S
N1052 C1044 1.356 . S
N1052 H1058 0.984 . S
N1052 H1059 0.984 . S
N1053 C1046 1.356 1_565 S
N1053 H1056 0.984 . S
N1053 H1057 0.985 . S
H1054 N1049 0.984 . S
H1055 N1049 0.985 . S
H1056 N1053 0.984 . S
H1057 N1053 0.985 . S
H1058 N1052 0.984 . S
H1059 N1052 0.984 . S
H1060 N1048 0.984 . S
H1061 N1048 0.985 . S
C1062 C1063 1.363 . S
C1062 C1068 1.379 . S
C1062 N1070 1.356 . S
C1063 C1062 1.363 . S
C1063 C1069 1.363 . S
C1064 C1065 1.363 . S
C1064 C1069 1.379 . S
C1064 N1071 1.356 . S
C1065 C1064 1.363 . S
C1065 C1068 1.363 . S
N1066 C1068 1.356 . S
N1066 H1078 0.984 . S
N1066 H1079 0.985 . S
N1067 C1069 1.356 . S
N1067 H1072 0.984 . S
N1067 H1073 0.985 . S
C1068 C1062 1.379 . S
C1068 C1065 1.363 . S
C1068 N1066 1.356 . S
C1069 C1063 1.363 . S
C1069 C1064 1.379 . S
C1069 N1067 1.356 . S
N1070 C1062 1.356 . S
N1070 H1076 0.984 . S
N1070 H1077 0.984 . S
N1071 C1064 1.356 . S
N1071 H1074 0.984 . S
N1071 H1075 0.985 . S
H1072 N1067 0.984 . S
H1073 N1067 0.985 . S
H1074 N1071 0.984 . S
H1075 N1071 0.985 . S
H1076 N1070 0.984 . S
H1077 N1070 0.984 . S
H1078 N1066 0.984 . S
H1079 N1066 0.985 . S
C1080 C1081 1.363 . S
C1080 C1086 1.379 . S
C1080 N1088 1.356 . S
C1081 C1080 1.363 . S
C1081 C1087 1.363 . S
C1082 C1083 1.363 . S
C1082 C1087 1.379 . S
C1082 N1089 1.356 1_554 S
C1083 C1082 1.363 . S
C1083 C1086 1.363 . S
N1084 C1086 1.356 . S
N1084 H1096 0.984 . S
N1084 H1097 0.985 . S
N1085 C1087 1.356 . S
N1085 H1090 0.984 . S
N1085 H1091 0.985 1_554 S
C1086 C1080 1.379 . S
C1086 C1083 1.363 . S
C1086 N1084 1.356 . S
C1087 C1081 1.363 . S
C1087 C1082 1.379 . S
C1087 N1085 1.356 . S
N1088 C1080 1.356 . S
N1088 H1094 0.984 . S
N1088 H1095 0.984 . S
N1089 C1082 1.356 1_556 S
N1089 H1092 0.984 . S
N1089 H1093 0.985 . S
H1090 N1085 0.984 . S
H1091 N1085 0.985 1_556 S
H1092 N1089 0.984 . S
H1093 N1089 0.985 . S
H1094 N1088 0.984 . S
H1095 N1088 0.984 . S
H1096 N1084 0.984 . S
H1097 N1084 0.985 . S
C1098 C1099 1.363 . S
C1098 C1104 1.379 . S
C1098 N1106 1.356 . S
C1099 C1098 1.363 . S
C1099 C1105 1.363 . S
C1100 C1101 1.363 . S
C1100 C1105 1.379 . S
C1100 N1107 1.356 . S
C1101 C1100 1.363 . S
C1101 C1104 1.363 . S
N1102 C1104 1.356 . S
N1102 H1114 0.984 . S
N1102 H1115 0.985 . S
N1103 C1105 1.356 . S
N1103 H1108 0.984 . S
N1103 H1109 0.985 . S
C1104 C1098 1.379 . S
C1104 C1101 1.363 . S
C1104 N1102 1.356 . S
C1105 C1099 1.363 . S
C1105 C1100 1.379 . S
C1105 N1103 1.356 . S
N1106 C1098 1.356 . S
N1106 H1112 0.984 . S
N1106 H1113 0.984 . S
N1107 C1100 1.356 . S
N1107 H1110 0.984 . S
N1107 H1111 0.985 . S
H1108 N1103 0.984 . S
H1109 N1103 0.985 . S
H1110 N1107 0.984 . S
H1111 N1107 0.985 . S
H1112 N1106 0.984 . S
H1113 N1106 0.984 . S
H1114 N1102 0.984 . S
H1115 N1102 0.985 . S
C1116 C1117 1.363 . S
C1116 C1122 1.379 . S
C1116 N1124 1.356 . S
C1117 C1116 1.363 . S
C1117 C1123 1.363 . S
C1118 C1119 1.363 . S
C1118 C1123 1.379 . S
C1118 N1125 1.356 . S
C1119 C1118 1.363 . S
C1119 C1122 1.363 . S
N1120 C1122 1.356 . S
N1120 H1132 0.984 . S
N1120 H1133 0.985 . S
N1121 C1123 1.356 . S
N1121 H1126 0.984 . S
N1121 H1127 0.985 . S
C1122 C1116 1.379 . S
C1122 C1119 1.363 . S
C1122 N1120 1.356 . S
C1123 C1117 1.363 . S
C1123 C1118 1.379 . S
C1123 N1121 1.356 . S
N1124 C1116 1.356 . S
N1124 H1130 0.984 . S
N1124 H1131 0.984 . S
N1125 C1118 1.356 . S
N1125 H1128 0.984 . S
N1125 H1129 0.985 . S
H1126 N1121 0.984 . S
H1127 N1121 0.985 . S
H1128 N1125 0.984 . S
H1129 N1125 0.985 . S
H1130 N1124 0.984 . S
H1131 N1124 0.984 . S
H1132 N1120 0.984 . S
H1133 N1120 0.985 . S
C1134 C1135 1.363 . S
C1134 C1140 1.379 . S
C1134 N1142 1.356 . S
C1135 C1134 1.363 . S
C1135 C1141 1.363 . S
C1136 C1137 1.363 . S
C1136 C1141 1.379 . S
C1136 N1143 1.356 . S
C1137 C1136 1.363 . S
C1137 C1140 1.363 . S
N1138 C1140 1.356 . S
N1138 H1150 0.984 . S
N1138 H1151 0.985 . S
N1139 C1141 1.356 . S
N1139 H1144 0.984 . S
N1139 H1145 0.985 . S
C1140 C1134 1.379 . S
C1140 C1137 1.363 . S
C1140 N1138 1.356 . S
C1141 C1135 1.363 . S
C1141 C1136 1.379 . S
C1141 N1139 1.356 . S
N1142 C1134 1.356 . S
N1142 H1148 0.984 . S
N1142 H1149 0.984 . S
N1143 C1136 1.356 . S
N1143 H1146 0.984 . S
N1143 H1147 0.985 . S
H1144 N1139 0.984 . S
H1145 N1139 0.985 . S
H1146 N1143 0.984 . S
H1147 N1143 0.985 . S
H1148 N1142 0.984 . S
H1149 N1142 0.984 . S
H1150 N1138 0.984 . S
H1151 N1138 0.985 . S
C1152 C1153 1.363 . S
C1152 C1158 1.379 . S
C1152 N1160 1.356 . S
C1153 C1152 1.363 . S
C1153 C1159 1.363 . S
C1154 C1155 1.363 . S
C1154 C1159 1.379 . S
C1154 N1161 1.356 . S
C1155 C1154 1.363 . S
C1155 C1158 1.363 . S
N1156 C1158 1.356 . S
N1156 H1168 0.984 . S
N1156 H1169 0.985 . S
N1157 C1159 1.356 . S
N1157 H1162 0.984 . S
N1157 H1163 0.985 . S
C1158 C1152 1.379 . S
C1158 C1155 1.363 . S
C1158 N1156 1.356 . S
C1159 C1153 1.363 . S
C1159 C1154 1.379 . S
C1159 N1157 1.356 . S
N1160 C1152 1.356 . S
N1160 H1166 0.984 . S
N1160 H1167 0.984 . S
N1161 C1154 1.356 . S
N1161 H1164 0.984 . S
N1161 H1165 0.985 . S
H1162 N1157 0.984 . S
H1163 N1157 0.985 . S
H1164 N1161 0.984 . S
H1165 N1161 0.985 . S
H1166 N1160 0.984 . S
H1167 N1160 0.984 . S
H1168 N1156 0.984 . S
H1169 N1156 0.985 . S
C1170 C1171 1.363 . S
C1170 C1176 1.379 1_565 S
C1170 N1178 1.356 . S
C1171 C1170 1.363 . S
C1171 C1177 1.363 . S
C1172 C1173 1.363 . S
C1172 C1177 1.379 . S
C1172 N1179 1.356 . S
C1173 C1172 1.363 . S
C1173 C1176 1.363 1_565 S
N1174 C1176 1.356 . S
N1174 H1186 0.984 . S
N1174 H1187 0.985 . S
N1175 C1177 1.356 . S
N1175 H1180 0.984 . S
N1175 H1181 0.985 . S
C1176 C1170 1.379 1_545 S
C1176 C1173 1.363 1_545 S
C1176 N1174 1.356 . S
C1177 C1171 1.363 . S
C1177 C1172 1.379 . S
C1177 N1175 1.356 . S
N1178 C1170 1.356 . S
N1178 H1184 0.987 1_565 S
N1178 H1185 0.983 . S
N1179 C1172 1.356 . S
N1179 H1182 0.984 . S
N1179 H1183 0.985 . S
H1180 N1175 0.984 . S
H1181 N1175 0.985 . S
H1182 N1179 0.984 . S
H1183 N1179 0.985 . S
H1184 N1178 0.987 1_545 S
H1185 N1178 0.983 . S
H1186 N1174 0.984 . S
H1187 N1174 0.985 . S
C1188 C1189 1.363 . S
C1188 C1194 1.379 . S
C1188 N1196 1.356 . S
C1189 C1188 1.363 . S
C1189 C1195 1.363 . S
C1190 C1191 1.363 . S
C1190 C1195 1.379 . S
C1190 N1197 1.356 . S
C1191 C1190 1.363 . S
C1191 C1194 1.363 . S
N1192 C1194 1.356 . S
N1192 H1204 0.984 . S
N1192 H1205 0.985 . S
N1193 C1195 1.356 . S
N1193 H1198 0.984 . S
N1193 H1199 0.985 . S
C1194 C1188 1.379 . S
C1194 C1191 1.363 . S
C1194 N1192 1.356 . S
C1195 C1189 1.363 . S
C1195 C1190 1.379 . S
C1195 N1193 1.356 . S
N1196 C1188 1.356 . S
N1196 H1202 0.984 . S
N1196 H1203 0.984 . S
N1197 C1190 1.356 . S
N1197 H1200 0.984 . S
N1197 H1201 0.985 . S
H1198 N1193 0.984 . S
H1199 N1193 0.985 . S
H1200 N1197 0.984 . S
H1201 N1197 0.985 . S
H1202 N1196 0.984 . S
H1203 N1196 0.984 . S
H1204 N1192 0.984 . S
H1205 N1192 0.985 . S
C1206 C1207 1.363 . S
C1206 C1212 1.379 . S
C1206 N1214 1.356 . S
C1207 C1206 1.363 . S
C1207 C1213 1.363 . S
C1208 C1209 1.363 . S
C1208 C1213 1.379 . S
C1208 N1215 1.356 . S
C1209 C1208 1.363 . S
C1209 C1212 1.363 . S
N1210 C1212 1.356 . S
N1210 H1222 0.984 . S
N1210 H1223 0.985 . S
N1211 C1213 1.356 . S
N1211 H1216 0.984 . S
N1211 H1217 0.985 . S
C1212 C1206 1.379 . S
C1212 C1209 1.363 . S
C1212 N1210 1.356 . S
C1213 C1207 1.363 . S
C1213 C1208 1.379 . S
C1213 N1211 1.356 . S
N1214 C1206 1.356 . S
N1214 H1220 0.984 . S
N1214 H1221 0.984 . S
N1215 C1208 1.356 . S
N1215 H1218 0.984 . S
N1215 H1219 0.985 . S
H1216 N1211 0.984 . S
H1217 N1211 0.985 . S
H1218 N1215 0.984 . S
H1219 N1215 0.985 . S
H1220 N1214 0.984 . S
H1221 N1214 0.984 . S
H1222 N1210 0.984 . S
H1223 N1210 0.985 . S
C1224 C1225 1.363 . S
C1224 C1230 1.379 . S
C1224 N1232 1.356 . S
C1225 C1224 1.363 . S
C1225 C1231 1.363 . S
C1226 C1227 1.363 1_554 S
C1226 C1231 1.379 1_554 S
C1226 N1233 1.356 . S
C1227 C1226 1.363 1_556 S
C1227 C1230 1.363 . S
N1228 C1230 1.356 . S
N1228 H1240 0.984 . S
N1228 H1241 0.985 . S
N1229 C1231 1.356 1_654 S
N1229 H1234 0.984 1_554 S
N1229 H1235 0.985 . S
C1230 C1224 1.379 . S
C1230 C1227 1.363 . S
C1230 N1228 1.356 . S
C1231 C1225 1.363 . S
C1231 C1226 1.379 1_556 S
C1231 N1229 1.356 1_456 S
N1232 C1224 1.356 . S
N1232 H1238 0.984 . S
N1232 H1239 0.984 . S
N1233 C1226 1.356 . S
N1233 H1236 0.984 . S
N1233 H1237 0.985 1_455 S
H1234 N1229 0.984 1_556 S
H1235 N1229 0.985 . S
H1236 N1233 0.984 . S
H1237 N1233 0.985 1_655 S
H1238 N1232 0.984 . S
H1239 N1232 0.984 . S
H1240 N1228 0.984 . S
H1241 N1228 0.985 . S
C1242 C1243 1.363 . S
C1242 C1248 1.379 . S
C1242 N1250 1.356 . S
C1243 C1242 1.363 . S
C1243 C1249 1.363 . S
C1244 C1245 1.363 . S
C1244 C1249 1.379 . S
C1244 N1251 1.356 . S
C1245 C1244 1.363 . S
C1245 C1248 1.363 . S
N1246 C1248 1.356 . S
N1246 H1258 0.984 . S
N1246 H1259 0.985 . S
N1247 C1249 1.356 . S
N1247 H1252 0.984 . S
N1247 H1253 0.985 . S
C1248 C1242 1.379 . S
C1248 C1245 1.363 . S
C1248 N1246 1.356 . S
C1249 C1243 1.363 . S
C1249 C1244 1.379 . S
C1249 N1247 1.356 . S
N1250 C1242 1.356 . S
N1250 H1256 0.984 . S
N1250 H1257 0.984 . S
N1251 C1244 1.356 . S
N1251 H1254 0.984 . S
N1251 H1255 0.985 . S
H1252 N1247 0.984 . S
H1253 N1247 0.985 . S
H1254 N1251 0.984 . S
H1255 N1251 0.985 . S
H1256 N1250 0.984 . S
H1257 N1250 0.984 . S
H1258 N1246 0.984 . S
H1259 N1246 0.985 . S
C1260 C1261 1.363 . S
C1260 C1266 1.379 . S
C1260 N1268 1.356 . S
C1261 C1260 1.363 . S
C1261 C1267 1.363 . S
C1262 C1263 1.363 . S
C1262 C1267 1.379 . S
C1262 N1269 1.356 . S
C1263 C1262 1.363 . S
C1263 C1266 1.363 . S
N1264 C1266 1.356 . S
N1264 H1276 0.984 . S
N1264 H1277 0.985 . S
N1265 C1267 1.356 . S
N1265 H1270 0.984 . S
N1265 H1271 0.985 . S
C1266 C1260 1.379 . S
C1266 C1263 1.363 . S
C1266 N1264 1.356 . S
C1267 C1261 1.363 . S
C1267 C1262 1.379 . S
C1267 N1265 1.356 . S
N1268 C1260 1.356 . S
N1268 H1274 0.984 . S
N1268 H1275 0.984 . S
N1269 C1262 1.356 . S
N1269 H1272 0.984 . S
N1269 H1273 0.985 . S
H1270 N1265 0.984 . S
H1271 N1265 0.985 . S
H1272 N1269 0.984 . S
H1273 N1269 0.985 . S
H1274 N1268 0.984 . S
H1275 N1268 0.984 . S
H1276 N1264 0.984 . S
H1277 N1264 0.985 . S
C1278 C1279 1.363 . S
C1278 C1284 1.379 . S
C1278 N1286 1.356 . S
C1279 C1278 1.363 . S
C1279 C1285 1.363 . S
C1280 C1281 1.363 . S
C1280 C1285 1.379 . S
C1280 N1287 1.356 . S
C1281 C1280 1.363 . S
C1281 C1284 1.363 . S
N1282 C1284 1.356 . S
N1282 H1294 0.984 . S
N1282 H1295 0.985 . S
N1283 C1285 1.356 . S
N1283 H1288 0.984 . S
N1283 H1289 0.985 . S
C1284 C1278 1.379 . S
C1284 C1281 1.363 . S
C1284 N1282 1.356 . S
C1285 C1279 1.363 . S
C1285 C1280 1.379 . S
C1285 N1283 1.356 . S
N1286 C1278 1.356 . S
N1286 H1292 0.984 . S
N1286 H1293 0.984 . S
N1287 C1280 1.356 . S
N1287 H1290 0.984 . S
N1287 H1291 0.985 . S
H1288 N1283 0.984 . S
H1289 N1283 0.985 . S
H1290 N1287 0.984 . S
H1291 N1287 0.985 . S
H1292 N1286 0.984 . S
H1293 N1286 0.984 . S
H1294 N1282 0.984 . S
H1295 N1282 0.985 . S
C1296 C1297 1.363 . S
C1296 C1302 1.379 . S
C1296 N1304 1.356 1_455 S
C1297 C1296 1.363 . S
C1297 C1303 1.363 . S
C1298 C1299 1.363 . S
C1298 C1303 1.379 . S
C1298 N1305 1.356 . S
C1299 C1298 1.363 . S
C1299 C1302 1.363 . S
N1300 C1302 1.356 . S
N1300 H1312 0.984 . S
N1300 H1313 0.985 . S
N1301 C1303 1.356 . S
N1301 H1306 0.984 . S
N1301 H1307 0.985 . S
C1302 C1296 1.379 . S
C1302 C1299 1.363 . S
C1302 N1300 1.356 . S
C1303 C1297 1.363 . S
C1303 C1298 1.379 . S
C1303 N1301 1.356 . S
N1304 C1296 1.356 1_655 S
N1304 H1310 0.984 . S
N1304 H1311 0.984 . S
N1305 C1298 1.356 . S
N1305 H1308 0.984 . S
N1305 H1309 0.985 . S
H1306 N1301 0.984 . S
H1307 N1301 0.985 . S
H1308 N1305 0.984 . S
H1309 N1305 0.985 . S
H1310 N1304 0.984 . S
H1311 N1304 0.984 . S
H1312 N1300 0.984 . S
H1313 N1300 0.985 . S
C1314 C1315 1.363 . S
C1314 C1320 1.379 . S
C1314 N1322 1.356 . S
C1315 C1314 1.363 . S
C1315 C1321 1.363 . S
C1316 C1317 1.363 . S
C1316 C1321 1.379 . S
C1316 N1323 1.356 . S
C1317 C1316 1.363 . S
C1317 C1320 1.363 . S
N1318 C1320 1.356 . S
N1318 H1330 0.984 . S
N1318 H1331 0.985 . S
N1319 C1321 1.356 . S
N1319 H1324 0.984 . S
N1319 H1325 0.985 . S
C1320 C1314 1.379 . S
C1320 C1317 1.363 . S
C1320 N1318 1.356 . S
C1321 C1315 1.363 . S
C1321 C1316 1.379 . S
C1321 N1319 1.356 . S
N1322 C1314 1.356 . S
N1322 H1328 0.984 . S
N1322 H1329 0.984 . S
N1323 C1316 1.356 . S
N1323 H1326 0.984 . S
N1323 H1327 0.985 . S
H1324 N1319 0.984 . S
H1325 N1319 0.985 . S
H1326 N1323 0.984 . S
H1327 N1323 0.985 . S
H1328 N1322 0.984 . S
H1329 N1322 0.984 . S
H1330 N1318 0.984 . S
H1331 N1318 0.985 . S
C1332 C1333 1.363 . S
C1332 C1338 1.379 . S
C1332 N1340 1.356 . S
C1333 C1332 1.363 . S
C1333 C1339 1.363 . S
C1334 C1335 1.363 . S
C1334 C1339 1.379 . S
C1334 N1341 1.356 . S
C1335 C1334 1.363 . S
C1335 C1338 1.363 . S
N1336 C1338 1.356 . S
N1336 H1348 0.984 . S
N1336 H1349 0.985 . S
N1337 C1339 1.356 . S
N1337 H1342 0.984 . S
N1337 H1343 0.985 . S
C1338 C1332 1.379 . S
C1338 C1335 1.363 . S
C1338 N1336 1.356 . S
C1339 C1333 1.363 . S
C1339 C1334 1.379 . S
C1339 N1337 1.356 . S
N1340 C1332 1.356 . S
N1340 H1346 0.984 . S
N1340 H1347 0.984 . S
N1341 C1334 1.356 . S
N1341 H1344 0.988 1_565 S
N1341 H1345 0.985 . S
H1342 N1337 0.984 . S
H1343 N1337 0.985 . S
H1344 N1341 0.988 1_545 S
H1345 N1341 0.985 . S
H1346 N1340 0.984 . S
H1347 N1340 0.984 . S
H1348 N1336 0.984 . S
H1349 N1336 0.985 . S
C1350 C1351 1.363 . S
C1350 C1356 1.379 . S
C1350 N1358 1.356 . S
C1351 C1350 1.363 . S
C1351 C1357 1.363 . S
C1352 C1353 1.363 . S
C1352 C1357 1.379 . S
C1352 N1359 1.356 . S
C1353 C1352 1.363 . S
C1353 C1356 1.363 . S
N1354 C1356 1.356 . S
N1354 H1366 0.984 . S
N1354 H1367 0.985 . S
N1355 C1357 1.356 . S
N1355 H1360 0.984 . S
N1355 H1361 0.985 . S
C1356 C1350 1.379 . S
C1356 C1353 1.363 . S
C1356 N1354 1.356 . S
C1357 C1351 1.363 . S
C1357 C1352 1.379 . S
C1357 N1355 1.356 . S
N1358 C1350 1.356 . S
N1358 H1364 0.984 . S
N1358 H1365 0.984 . S
N1359 C1352 1.356 . S
N1359 H1362 0.984 . S
N1359 H1363 0.985 . S
H1360 N1355 0.984 . S
H1361 N1355 0.985 . S
H1362 N1359 0.984 . S
H1363 N1359 0.985 . S
H1364 N1358 0.984 . S
H1365 N1358 0.984 . S
H1366 N1354 0.984 . S
H1367 N1354 0.985 . S
C1368 C1369 1.363 . S
C1368 C1374 1.379 . S
C1368 N1376 1.356 . S
C1369 C1368 1.363 . S
C1369 C1375 1.363 . S
C1370 C1371 1.363 . S
C1370 C1375 1.379 . S
C1370 N1377 1.356 1_655 S
C1371 C1370 1.363 . S
C1371 C1374 1.363 . S
N1372 C1374 1.356 . S
N1372 H1384 0.984 . S
N1372 H1385 0.985 . S
N1373 C1375 1.356 . S
N1373 H1378 0.984 . S
N1373 H1379 0.985 . S
C1374 C1368 1.379 . S
C1374 C1371 1.363 . S
C1374 N1372 1.356 . S
C1375 C1369 1.363 . S
C1375 C1370 1.379 . S
C1375 N1373 1.356 . S
N1376 C1368 1.356 . S
N1376 H1382 0.984 . S
N1376 H1383 0.984 . S
N1377 C1370 1.356 1_455 S
N1377 H1380 0.984 . S
N1377 H1381 0.985 . S
H1378 N1373 0.984 . S
H1379 N1373 0.985 . S
H1380 N1377 0.984 . S
H1381 N1377 0.985 . S
H1382 N1376 0.984 . S
H1383 N1376 0.984 . S
H1384 N1372 0.984 . S
H1385 N1372 0.985 . S
C1386 C1387 1.363 . S
C1386 C1392 1.379 . S
C1386 N1394 1.356 . S
C1387 C1386 1.363 . S
C1387 C1393 1.363 . S
C1388 C1389 1.363 . S
C1388 C1393 1.379 . S
C1388 N1395 1.356 . S
C1389 C1388 1.363 . S
C1389 C1392 1.363 . S
N1390 C1392 1.356 . S
N1390 H1402 0.984 . S
N1390 H1403 0.985 . S
N1391 C1393 1.356 . S
N1391 H1396 0.984 . S
N1391 H1397 0.985 . S
C1392 C1386 1.379 . S
C1392 C1389 1.363 . S
C1392 N1390 1.356 . S
C1393 C1387 1.363 . S
C1393 C1388 1.379 . S
C1393 N1391 1.356 . S
N1394 C1386 1.356 . S
N1394 H1400 0.984 . S
N1394 H1401 0.984 . S
N1395 C1388 1.356 . S
N1395 H1398 0.984 . S
N1395 H1399 0.985 . S
H1396 N1391 0.984 . S
H1397 N1391 0.985 . S
H1398 N1395 0.984 . S
H1399 N1395 0.985 . S
H1400 N1394 0.984 . S
H1401 N1394 0.984 . S
H1402 N1390 0.984 . S
H1403 N1390 0.985 . S
C1404 C1405 1.363 . S
C1404 C1410 1.379 . S
C1404 N1412 1.356 . S
C1405 C1404 1.363 . S
C1405 C1411 1.363 1_545 S
C1406 C1407 1.363 1_565 S
C1406 C1411 1.379 . S
C1406 N1413 1.356 . S
C1407 C1406 1.363 1_545 S
C1407 C1410 1.363 . S
N1408 C1410 1.356 . S
N1408 H1420 0.984 . S
N1408 H1421 0.985 . S
N1409 C1411 1.356 . S
N1409 H1414 0.984 . S
N1409 H1415 0.985 . S
C1410 C1404 1.379 . S
C1410 C1407 1.363 . S
C1410 N1408 1.356 . S
C1411 C1405 1.363 1_565 S
C1411 C1406 1.379 . S
C1411 N1409 1.356 . S
N1412 C1404 1.356 . S
N1412 H1418 0.984 . S
N1412 H1419 0.984 . S
N1413 C1406 1.356 . S
N1413 H1416 0.984 . S
N1413 H1417 0.985 . S
H1414 N1409 0.984 . S
H1415 N1409 0.985 . S
H1416 N1413 0.984 . S
H1417 N1413 0.985 . S
H1418 N1412 0.984 . S
H1419 N1412 0.984 . S
H1420 N1408 0.984 . S
H1421 N1408 0.985 . S
C1422 C1423 1.363 . S
C1422 C1428 1.379 . S
C1422 N1430 1.356 . S
C1423 C1422 1.363 . S
C1423 C1429 1.363 . S
C1424 C1425 1.363 . S
C1424 C1429 1.379 . S
C1424 N1431 1.356 . S
C1425 C1424 1.363 . S
C1425 C1428 1.363 . S
N1426 C1428 1.356 . S
N1426 H1438 0.984 . S
N1426 H1439 0.985 . S
N1427 C1429 1.356 . S
N1427 H1432 0.984 . S
N1427 H1433 0.985 . S
C1428 C1422 1.379 . S
C1428 C1425 1.363 . S
C1428 N1426 1.356 . S
C1429 C1423 1.363 . S
C1429 C1424 1.379 . S
C1429 N1427 1.356 . S
N1430 C1422 1.356 . S
N1430 H1436 0.984 . S
N1430 H1437 0.984 . S
N1431 C1424 1.356 . S
N1431 H1434 0.984 . S
N1431 H1435 0.985 . S
H1432 N1427 0.984 . S
H1433 N1427 0.985 . S
H1434 N1431 0.984 . S
H1435 N1431 0.985 . S
H1436 N1430 0.984 . S
H1437 N1430 0.984 . S
H1438 N1426 0.984 . S
H1439 N1426 0.985 . S
C1440 C1441 1.363 . S
C1440 C1446 1.379 1_655 S
C1440 N1448 1.356 . S
C1441 C1440 1.363 . S
C1441 C1447 1.363 . S
C1442 C1443 1.363 . S
C1442 C1447 1.379 . S
C1442 N1449 1.356 . S
C1443 C1442 1.363 . S
C1443 C1446 1.363 1_655 S
N1444 C1446 1.356 . S
N1444 H1456 0.984 . S
N1444 H1457 0.985 . S
N1445 C1447 1.356 . S
N1445 H1450 0.984 . S
N1445 H1451 0.985 . S
C1446 C1440 1.379 1_455 S
C1446 C1443 1.363 1_455 S
C1446 N1444 1.356 . S
C1447 C1441 1.363 . S
C1447 C1442 1.379 . S
C1447 N1445 1.356 . S
N1448 C1440 1.356 . S
N1448 H1454 0.984 1_655 S
N1448 H1455 0.984 . S
N1449 C1442 1.356 . S
N1449 H1452 0.984 . S
N1449 H1453 0.985 . S
H1450 N1445 0.984 . S
H1451 N1445 0.985 . S
H1452 N1449 0.984 . S
H1453 N1449 0.985 . S
H1454 N1448 0.984 1_455 S
H1455 N1448 0.984 . S
H1456 N1444 0.984 . S
H1457 N1444 0.985 . S
C1458 C1459 1.363 . S
C1458 C1464 1.379 . S
C1458 N1466 1.356 . S
C1459 C1458 1.363 . S
C1459 C1465 1.363 . S
C1460 C1461 1.363 . S
C1460 C1465 1.379 . S
C1460 N1467 1.356 . S
C1461 C1460 1.363 . S
C1461 C1464 1.363 . S
N1462 C1464 1.356 . S
N1462 H1474 0.984 . S
N1462 H1475 0.985 . S
N1463 C1465 1.356 . S
N1463 H1468 0.984 . S
N1463 H1469 0.985 . S
C1464 C1458 1.379 . S
C1464 C1461 1.363 . S
C1464 N1462 1.356 . S
C1465 C1459 1.363 . S
C1465 C1460 1.379 . S
C1465 N1463 1.356 . S
N1466 C1458 1.356 . S
N1466 H1472 0.984 . S
N1466 H1473 0.984 . S
N1467 C1460 1.356 . S
N1467 H1470 0.984 . S
N1467 H1471 0.985 . S
H1468 N1463 0.984 . S
H1469 N1463 0.985 . S
H1470 N1467 0.984 . S
H1471 N1467 0.985 . S
H1472 N1466 0.984 . S
H1473 N1466 0.984 . S
H1474 N1462 0.984 . S
H1475 N1462 0.985 . S
C1476 C1477 1.363 . S
C1476 C1482 1.379 . S
C1476 N1484 1.356 1_545 S
C1477 C1476 1.363 . S
C1477 C1483 1.363 . S
C1478 C1479 1.363 . S
C1478 C1483 1.379 . S
C1478 N1485 1.356 . S
C1479 C1478 1.363 . S
C1479 C1482 1.363 . S
N1480 C1482 1.356 . S
N1480 H1492 0.984 1_545 S
N1480 H1493 0.985 . S
N1481 C1483 1.356 . S
N1481 H1486 0.984 . S
N1481 H1487 0.985 . S
C1482 C1476 1.379 . S
C1482 C1479 1.363 . S
C1482 N1480 1.356 . S
C1483 C1477 1.363 . S
C1483 C1478 1.379 . S
C1483 N1481 1.356 . S
N1484 C1476 1.356 1_565 S
N1484 H1490 0.984 . S
N1484 H1491 0.984 . S
N1485 C1478 1.356 . S
N1485 H1488 0.984 . S
N1485 H1489 0.985 . S
H1486 N1481 0.984 . S
H1487 N1481 0.985 . S
H1488 N1485 0.984 . S
H1489 N1485 0.985 . S
H1490 N1484 0.984 . S
H1491 N1484 0.984 . S
H1492 N1480 0.984 1_565 S
H1493 N1480 0.985 . S
C1494 C1495 1.363 . S
C1494 C1500 1.379 . S
C1494 N1502 1.356 . S
C1495 C1494 1.363 . S
C1495 C1501 1.363 . S
C1496 C1497 1.363 . S
C1496 C1501 1.379 . S
C1496 N1503 1.356 . S
C1497 C1496 1.363 . S
C1497 C1500 1.363 . S
N1498 C1500 1.356 . S
N1498 H1510 0.984 . S
N1498 H1511 0.985 . S
N1499 C1501 1.356 . S
N1499 H1504 0.984 . S
N1499 H1505 0.985 . S
C1500 C1494 1.379 . S
C1500 C1497 1.363 . S
C1500 N1498 1.356 . S
C1501 C1495 1.363 . S
C1501 C1496 1.379 . S
C1501 N1499 1.356 . S
N1502 C1494 1.356 . S
N1502 H1508 0.984 . S
N1502 H1509 0.984 . S
N1503 C1496 1.356 . S
N1503 H1506 0.984 . S
N1503 H1507 0.985 . S
H1504 N1499 0.984 . S
H1505 N1499 0.985 . S
H1506 N1503 0.984 . S
H1507 N1503 0.985 . S
H1508 N1502 0.984 . S
H1509 N1502 0.984 . S
H1510 N1498 0.984 . S
H1511 N1498 0.985 . S
C1512 C1513 1.363 . S
C1512 C1518 1.379 . S
C1512 N1520 1.356 . S
C1513 C1512 1.363 . S
C1513 C1519 1.363 . S
C1514 C1515 1.363 . S
C1514 C1519 1.379 1_545 S
C1514 N1521 1.356 1_554 S
C1515 C1514 1.363 . S
C1515 C1518 1.363 1_545 S
N1516 C1518 1.356 1_545 S
N1516 H1528 0.984 . S
N1516 H1529 0.985 . S
N1517 C1519 1.356 1_556 S
N1517 H1522 0.984 . S
N1517 H1523 0.985 . S
C1518 C1512 1.379 . S
C1518 C1515 1.363 1_565 S
C1518 N1516 1.356 1_565 S
C1519 C1513 1.363 . S
C1519 C1514 1.379 1_565 S
C1519 N1517 1.356 1_554 S
N1520 C1512 1.356 . S
N1520 H1526 0.984 . S
N1520 H1527 0.984 . S
N1521 C1514 1.356 1_556 S
N1521 H1524 0.984 1_556 S
N1521 H1525 0.985 . S
H1522 N1517 0.984 . S
H1523 N1517 0.985 . S
H1524 N1521 0.984 1_554 S
H1525 N1521 0.985 . S
H1526 N1520 0.984 . S
H1527 N1520 0.984 . S
H1528 N1516 0.984 . S
H1529 N1516 0.985 . S
C1530 C1531 1.363 1_554 S
C1530 C1536 1.379 . S
C1530 N1538 1.356 . S
C1531 C1530 1.363 1_556 S
C1531 C1537 1.363 . S
C1532 C1533 1.363 1_556 S
C1532 C1537 1.379 . S
C1532 N1539 1.356 . S
C1533 C1532 1.363 1_554 S
C1533 C1536 1.363 . S
N1534 C1536 1.356 . S
N1534 H1546 0.984 . S
N1534 H1547 0.985 . S
N1535 C1537 1.356 . S
N1535 H1540 0.984 . S
N1535 H1541 0.985 . S
C1536 C1530 1.379 . S
C1536 C1533 1.363 . S
C1536 N1534 1.356 . S
C1537 C1531 1.363 . S
C1537 C1532 1.379 . S
C1537 N1535 1.356 . S
N1538 C1530 1.356 . S
N1538 H1544 0.984 . S
N1538 H1545 0.984 . S
N1539 C1532 1.356 . S
N1539 H1542 0.984 . S
N1539 H1543 0.985 . S
H1540 N1535 0.984 . S
H1541 N1535 0.985 . S
H1542 N1539 0.984 . S
H1543 N1539 0.985 . S
H1544 N1538 0.984 . S
H1545 N1538 0.984 . S
H1546 N1534 0.984 . S
H1547 N1534 0.985 . S
C1548 C1549 1.363 . S
C1548 C1554 1.379 . S
C1548 N1556 1.356 . S
C1549 C1548 1.363 . S
C1549 C1555 1.363 . S
C1550 C1551 1.363 . S
C1550 C1555 1.379 . S
C1550 N1557 1.356 . S
C1551 C1550 1.363 . S
C1551 C1554 1.363 . S
N1552 C1554 1.356 . S
N1552 H1564 0.984 . S
N1552 H1565 0.985 . S
N1553 C1555 1.356 . S
N1553 H1558 0.984 . S
N1553 H1559 0.985 . S
C1554 C1548 1.379 . S
C1554 C1551 1.363 . S
C1554 N1552 1.356 . S
C1555 C1549 1.363 . S
C1555 C1550 1.379 . S
C1555 N1553 1.356 . S
N1556 C1548 1.356 . S
N1556 H1562 0.984 . S
N1556 H1563 0.984 . S
N1557 C1550 1.356 . S
N1557 H1560 0.984 . S
N1557 H1561 0.985 . S
H1558 N1553 0.984 . S
H1559 N1553 0.985 . S
H1560 N1557 0.984 . S
H1561 N1557 0.985 . S
H1562 N1556 0.984 . S
H1563 N1556 0.984 . S
H1564 N1552 0.984 . S
H1565 N1552 0.985 . S
C1566 C1567 1.363 . S
C1566 C1572 1.379 . S
C1566 N1574 1.356 . S
C1567 C1566 1.363 . S
C1567 C1573 1.363 . S
C1568 C1569 1.363 . S
C1568 C1573 1.379 . S
C1568 N1575 1.356 . S
C1569 C1568 1.363 . S
C1569 C1572 1.363 . S
N1570 C1572 1.356 . S
N1570 H1582 0.984 . S
N1570 H1583 0.985 . S
N1571 C1573 1.356 . S
N1571 H1576 0.984 . S
N1571 H1577 0.985 . S
C1572 C1566 1.379 . S
C1572 C1569 1.363 . S
C1572 N1570 1.356 . S
C1573 C1567 1.363 . S
C1573 C1568 1.379 . S
C1573 N1571 1.356 . S
N1574 C1566 1.356 . S
N1574 H1580 0.984 . S
N1574 H1581 0.984 . S
N1575 C1568 1.356 . S
N1575 H1578 0.984 . S
N1575 H1579 0.985 . S
H1576 N1571 0.984 . S
H1577 N1571 0.985 . S
H1578 N1575 0.984 . S
H1579 N1575 0.985 . S
H1580 N1574 0.984 . S
H1581 N1574 0.984 . S
H1582 N1570 0.984 . S
H1583 N1570 0.985 . S
C1584 C1585 1.363 . S
C1584 C1590 1.379 . S
C1584 N1592 1.356 . S
C1585 C1584 1.363 . S
C1585 C1591 1.363 . S
C1586 C1587 1.363 . S
C1586 C1591 1.379 . S
C1586 N1593 1.356 . S
C1587 C1586 1.363 . S
C1587 C1590 1.363 . S
N1588 C1590 1.356 . S
N1588 H1600 0.984 . S
N1588 H1601 0.985 . S
N1589 C1591 1.356 1_545 S
N1589 H1594 0.984 . S
N1589 H1595 0.985 . S
C1590 C1584 1.379 . S
C1590 C1587 1.363 . S
C1590 N1588 1.356 . S
C1591 C1585 1.363 . S
C1591 C1586 1.379 . S
C1591 N1589 1.356 1_565 S
N1592 C1584 1.356 . S
N1592 H1598 0.984 . S
N1592 H1599 0.984 1_565 S
N1593 C1586 1.356 . S
N1593 H1596 0.984 . S
N1593 H1597 0.985 . S
H1594 N1589 0.984 . S
H1595 N1589 0.985 . S
H1596 N1593 0.984 . S
H1597 N1593 0.985 . S
H1598 N1592 0.984 . S
H1599 N1592 0.984 1_545 S
H1600 N1588 0.984 . S
H1601 N1588 0.985 . S
C1602 C1603 1.363 . S
C1602 C1608 1.379 . S
C1602 N1610 1.356 . S
C1603 C1602 1.363 . S
C1603 C1609 1.363 . S
C1604 C1605 1.363 . S
C1604 C1609 1.379 . S
C1604 N1611 1.356 . S
C1605 C1604 1.363 . S
C1605 C1608 1.363 . S
N1606 C1608 1.356 . S
N1606 H1618 0.984 . S
N1606 H1619 0.985 . S
N1607 C1609 1.356 . S
N1607 H1612 0.984 . S
N1607 H1613 0.985 . S
C1608 C1602 1.379 . S
C1608 C1605 1.363 . S
C1608 N1606 1.356 . S
C1609 C1603 1.363 . S
C1609 C1604 1.379 . S
C1609 N1607 1.356 . S
N1610 C1602 1.356 . S
N1610 H1616 0.984 . S
N1610 H1617 0.984 . S
N1611 C1604 1.356 . S
N1611 H1614 0.984 . S
N1611 H1615 0.985 . S
H1612 N1607 0.984 . S
H1613 N1607 0.985 . S
H1614 N1611 0.984 . S
H1615 N1611 0.985 . S
H1616 N1610 0.984 . S
H1617 N1610 0.984 . S
H1618 N1606 0.984 . S
H1619 N1606 0.985 . S
C1620 C1621 1.363 . S
C1620 C1626 1.379 . S
C1620 N1628 1.356 . S
C1621 C1620 1.363 . S
C1621 C1627 1.363 . S
C1622 C1623 1.363 . S
C1622 C1627 1.379 . S
C1622 N1629 1.356 . S
C1623 C1622 1.363 . S
C1623 C1626 1.363 . S
N1624 C1626 1.356 . S
N1624 H1636 0.984 . S
N1624 H1637 0.985 . S
N1625 C1627 1.356 . S
N1625 H1630 0.984 . S
N1625 H1631 0.985 . S
C1626 C1620 1.379 . S
C1626 C1623 1.363 . S
C1626 N1624 1.356 . S
C1627 C1621 1.363 . S
C1627 C1622 1.379 . S
C1627 N1625 1.356 . S
N1628 C1620 1.356 . S
N1628 H1634 0.984 . S
N1628 H1635 0.984 . S
N1629 C1622 1.356 . S
N1629 H1632 0.984 . S
N1629 H1633 0.985 . S
H1630 N1625 0.984 . S
H1631 N1625 0.985 . S
H1632 N1629 0.984 . S
H1633 N1629 0.985 . S
H1634 N1628 0.984 . S
H1635 N1628 0.984 . S
H1636 N1624 0.984 . S
H1637 N1624 0.985 . S
C1638 C1639 1.363 . S
C1638 C1644 1.379 . S
C1638 N1646 1.356 . S
C1639 C1638 1.363 . S
C1639 C1645 1.363 . S
C1640 C1641 1.363 . S
C1640 C1645 1.379 . S
C1640 N1647 1.356 . S
C1641 C1640 1.363 . S
C1641 C1644 1.363 . S
N1642 C1644 1.356 . S
N1642 H1654 0.984 . S
N1642 H1655 0.985 . S
N1643 C1645 1.356 . S
N1643 H1648 0.984 . S
N1643 H1649 0.985 . S
C1644 C1638 1.379 . S
C1644 C1641 1.363 . S
C1644 N1642 1.356 . S
C1645 C1639 1.363 . S
C1645 C1640 1.379 . S
C1645 N1643 1.356 . S
N1646 C1638 1.356 . S
N1646 H1652 0.984 . S
N1646 H1653 0.984 . S
N1647 C1640 1.356 . S
N1647 H1650 0.984 . S
N1647 H1651 0.985 . S
H1648 N1643 0.984 . S
H1649 N1643 0.985 . S
H1650 N1647 0.984 . S
H1651 N1647 0.985 . S
H1652 N1646 0.984 . S
H1653 N1646 0.984 . S
H1654 N1642 0.984 . S
H1655 N1642 0.985 . S
C1656 C1657 1.363 . S
C1656 C1662 1.379 . S
C1656 N1664 1.356 . S
C1657 C1656 1.363 . S
C1657 C1663 1.363 . S
C1658 C1659 1.363 . S
C1658 C1663 1.379 . S
C1658 N1665 1.356 . S
C1659 C1658 1.363 . S
C1659 C1662 1.363 . S
N1660 C1662 1.356 . S
N1660 H1672 0.984 . S
N1660 H1673 0.985 . S
N1661 C1663 1.356 . S
N1661 H1666 0.984 . S
N1661 H1667 0.985 . S
C1662 C1656 1.379 . S
C1662 C1659 1.363 . S
C1662 N1660 1.356 . S
C1663 C1657 1.363 . S
C1663 C1658 1.379 . S
C1663 N1661 1.356 . S
N1664 C1656 1.356 . S
N1664 H1670 0.984 . S
N1664 H1671 0.984 . S
N1665 C1658 1.356 . S
N1665 H1668 0.984 . S
N1665 H1669 0.985 . S
H1666 N1661 0.984 . S
H1667 N1661 0.985 . S
H1668 N1665 0.984 . S
H1669 N1665 0.985 . S
H1670 N1664 0.984 . S
H1671 N1664 0.984 . S
H1672 N1660 0.984 . S
H1673 N1660 0.985 . S
C1674 C1675 1.363 . S
C1674 C1680 1.379 . S
C1674 N1682 1.356 . S
C1675 C1674 1.363 . S
C1675 C1681 1.363 . S
C1676 C1677 1.363 . S
C1676 C1681 1.379 . S
C1676 N1683 1.356 . S
C1677 C1676 1.363 . S
C1677 C1680 1.363 . S
N1678 C1680 1.356 . S
N1678 H1690 0.984 . S
N1678 H1691 0.985 . S
N1679 C1681 1.356 . S
N1679 H1684 0.984 . S
N1679 H1685 0.985 . S
C1680 C1674 1.379 . S
C1680 C1677 1.363 . S
C1680 N1678 1.356 . S
C1681 C1675 1.363 . S
C1681 C1676 1.379 . S
C1681 N1679 1.356 . S
N1682 C1674 1.356 . S
N1682 H1688 0.984 . S
N1682 H1689 0.984 . S
N1683 C1676 1.356 . S
N1683 H1686 0.984 . S
N1683 H1687 0.985 . S
H1684 N1679 0.984 . S
H1685 N1679 0.985 . S
H1686 N1683 0.984 . S
H1687 N1683 0.985 . S
H1688 N1682 0.984 . S
H1689 N1682 0.984 . S
H1690 N1678 0.984 . S
H1691 N1678 0.985 . S
C1692 C1693 1.363 . S
C1692 C1698 1.379 . S
C1692 N1700 1.356 1_455 S
C1693 C1692 1.363 . S
C1693 C1699 1.363 . S
C1694 C1695 1.363 . S
C1694 C1699 1.379 . S
C1694 N1701 1.356 . S
C1695 C1694 1.363 . S
C1695 C1698 1.363 . S
N1696 C1698 1.356 . S
N1696 H1708 0.984 1_455 S
N1696 H1709 0.985 . S
N1697 C1699 1.356 . S
N1697 H1702 0.984 . S
N1697 H1703 0.985 . S
C1698 C1692 1.379 . S
C1698 C1695 1.363 . S
C1698 N1696 1.356 . S
C1699 C1693 1.363 . S
C1699 C1694 1.379 . S
C1699 N1697 1.356 . S
N1700 C1692 1.356 1_655 S
N1700 H1706 0.984 . S
N1700 H1707 0.984 . S
N1701 C1694 1.356 . S
N1701 H1704 0.984 . S
N1701 H1705 0.985 . S
H1702 N1697 0.984 . S
H1703 N1697 0.985 . S
H1704 N1701 0.984 . S
H1705 N1701 0.985 . S
H1706 N1700 0.984 . S
H1707 N1700 0.984 . S
H1708 N1696 0.984 1_655 S
H1709 N1696 0.985 . S
C1710 C1711 1.363 . S
C1710 C1716 1.379 . S
C1710 N1718 1.356 . S
C1711 C1710 1.363 . S
C1711 C1717 1.363 . S
C1712 C1713 1.363 . S
C1712 C1717 1.379 . S
C1712 N1719 1.356 . S
C1713 C1712 1.363 . S
C1713 C1716 1.363 . S
N1714 C1716 1.356 . S
N1714 H1726 0.984 . S
N1714 H1727 0.985 . S
N1715 C1717 1.356 . S
N1715 H1720 0.984 1_655 S
N1715 H1721 0.985 . S
C1716 C1710 1.379 . S
C1716 C1713 1.363 . S
C1716 N1714 1.356 . S
C1717 C1711 1.363 . S
C1717 C1712 1.379 . S
C1717 N1715 1.356 . S
N1718 C1710 1.356 . S
N1718 H1724 0.984 . S
N1718 H1725 0.984 . S
N1719 C1712 1.356 . S
N1719 H1722 0.984 . S
N1719 H1723 0.985 . S
H1720 N1715 0.984 1_455 S
H1721 N1715 0.985 . S
H1722 N1719 0.984 . S
H1723 N1719 0.985 . S
H1724 N1718 0.984 . S
H1725 N1718 0.984 . S
H1726 N1714 0.984 . S
H1727 N1714 0.985 . S
C1728 C1729 1.363 . S
C1728 C1734 1.379 1_556 S
C1728 N1736 1.356 1_556 S
C1729 C1728 1.363 . S
C1729 C1735 1.363 . S
C1730 C1731 1.363 . S
C1730 C1735 1.379 . S
C1730 N1737 1.356 . S
C1731 C1730 1.363 . S
C1731 C1734 1.363 1_556 S
N1732 C1734 1.356 . S
N1732 H1744 0.984 . S
N1732 H1745 0.985 . S
N1733 C1735 1.356 . S
N1733 H1738 0.984 . S
N1733 H1739 0.985 . S
C1734 C1728 1.379 1_554 S
C1734 C1731 1.363 1_554 S
C1734 N1732 1.356 . S
C1735 C1729 1.363 . S
C1735 C1730 1.379 . S
C1735 N1733 1.356 . S
N1736 C1728 1.356 1_554 S
N1736 H1742 0.984 . S
N1736 H1743 0.984 1_554 S
N1737 C1730 1.356 . S
N1737 H1740 0.984 . S
N1737 H1741 0.985 . S
H1738 N1733 0.984 . S
H1739 N1733 0.985 . S
H1740 N1737 0.984 . S
H1741 N1737 0.985 . S
H1742 N1736 0.984 . S
H1743 N1736 0.984 1_556 S
H1744 N1732 0.984 . S
H1745 N1732 0.985 . S
C1746 C1747 1.363 . S
C1746 C1752 1.379 . S
C1746 N1754 1.356 . S
C1747 C1746 1.363 . S
C1747 C1753 1.363 . S
C1748 C1749 1.363 . S
C1748 C1753 1.379 . S
C1748 N1755 1.356 . S
C1749 C1748 1.363 . S
C1749 C1752 1.363 . S
N1750 C1752 1.356 . S
N1750 H1762 0.984 . S
N1750 H1763 0.985 . S
N1751 C1753 1.356 . S
N1751 H1756 0.984 . S
N1751 H1757 0.985 . S
C1752 C1746 1.379 . S
C1752 C1749 1.363 . S
C1752 N1750 1.356 . S
C1753 C1747 1.363 . S
C1753 C1748 1.379 . S
C1753 N1751 1.356 . S
N1754 C1746 1.356 . S
N1754 H1760 0.984 . S
N1754 H1761 0.984 . S
N1755 C1748 1.356 . S
N1755 H1758 0.984 . S
N1755 H1759 0.985 . S
H1756 N1751 0.984 . S
H1757 N1751 0.985 . S
H1758 N1755 0.984 . S
H1759 N1755 0.985 . S
H1760 N1754 0.984 . S
H1761 N1754 0.984 . S
H1762 N1750 0.984 . S
H1763 N1750 0.985 . S
C1764 C1765 1.363 . S
C1764 C1770 1.379 . S
C1764 N1772 1.356 . S
C1765 C1764 1.363 . S
C1765 C1771 1.363 . S
C1766 C1767 1.363 . S
C1766 C1771 1.379 . S
C1766 N1773 1.356 . S
C1767 C1766 1.363 . S
C1767 C1770 1.363 . S
N1768 C1770 1.356 . S
N1768 H1780 0.984 . S
N1768 H1781 0.985 . S
N1769 C1771 1.356 . S
N1769 H1774 0.984 . S
N1769 H1775 0.962 1_455 S
C1770 C1764 1.379 . S
C1770 C1767 1.363 . S
C1770 N1768 1.356 . S
C1771 C1765 1.363 . S
C1771 C1766 1.379 . S
C1771 N1769 1.356 . S
N1772 C1764 1.356 . S
N1772 H1778 0.984 . S
N1772 H1779 0.984 . S
N1773 C1766 1.356 . S
N1773 H1776 0.984 . S
N1773 H1777 0.985 1_455 S
H1774 N1769 0.984 . S
H1775 N1769 0.962 1_655 S
H1776 N1773 0.984 . S
H1777 N1773 0.985 1_655 S
H1778 N1772 0.984 . S
H1779 N1772 0.984 . S
H1780 N1768 0.984 . S
H1781 N1768 0.985 . S
C1782 C1783 1.363 . S
C1782 C1788 1.379 . S
C1782 N1790 1.356 . S
C1783 C1782 1.363 . S
C1783 C1789 1.363 . S
C1784 C1785 1.363 . S
C1784 C1789 1.379 . S
C1784 N1791 1.356 . S
C1785 C1784 1.363 . S
C1785 C1788 1.363 . S
N1786 C1788 1.356 . S
N1786 H1798 0.984 . S
N1786 H1799 0.985 . S
N1787 C1789 1.356 . S
N1787 H1792 0.984 . S
N1787 H1793 0.985 . S
C1788 C1782 1.379 . S
C1788 C1785 1.363 . S
C1788 N1786 1.356 . S
C1789 C1783 1.363 . S
C1789 C1784 1.379 . S
C1789 N1787 1.356 . S
N1790 C1782 1.356 . S
N1790 H1796 0.984 . S
N1790 H1797 0.984 . S
N1791 C1784 1.356 . S
N1791 H1794 0.984 . S
N1791 H1795 0.985 . S
H1792 N1787 0.984 . S
H1793 N1787 0.985 . S
H1794 N1791 0.984 . S
H1795 N1791 0.985 . S
H1796 N1790 0.984 . S
H1797 N1790 0.984 . S
H1798 N1786 0.984 . S
H1799 N1786 0.985 . S
C1800 C1801 1.363 . S
C1800 C1806 1.379 . S
C1800 N1808 1.356 . S
C1801 C1800 1.363 . S
C1801 C1807 1.363 . S
C1802 C1803 1.363 . S
C1802 C1807 1.379 . S
C1802 N1809 1.356 . S
C1803 C1802 1.363 . S
C1803 C1806 1.363 . S
N1804 C1806 1.356 . S
N1804 H1816 0.984 . S
N1804 H1817 0.985 . S
N1805 C1807 1.356 . S
N1805 H1810 0.984 . S
N1805 H1811 0.985 . S
C1806 C1800 1.379 . S
C1806 C1803 1.363 . S
C1806 N1804 1.356 . S
C1807 C1801 1.363 . S
C1807 C1802 1.379 . S
C1807 N1805 1.356 . S
N1808 C1800 1.356 . S
N1808 H1814 0.984 . S
N1808 H1815 0.984 . S
N1809 C1802 1.356 . S
N1809 H1812 0.984 . S
N1809 H1813 0.985 . S
H1810 N1805 0.984 . S
H1811 N1805 0.985 . S
H1812 N1809 0.984 . S
H1813 N1809 0.985 . S
H1814 N1808 0.984 . S
H1815 N1808 0.984 . S
H1816 N1804 0.984 . S
H1817 N1804 0.985 . S
C1818 C1819 1.363 1_554 S
C1818 C1824 1.379 1_554 S
C1818 N1826 1.356 . S
C1819 C1818 1.363 1_556 S
C1819 C1825 1.363 . S
C1820 C1821 1.363 . S
C1820 C1825 1.379 . S
C1820 N1827 1.356 . S
C1821 C1820 1.363 . S
C1821 C1824 1.363 . S
N1822 C1824 1.356 . S
N1822 H1834 0.984 . S
N1822 H1835 0.985 . S
N1823 C1825 1.356 . S
N1823 H1828 0.984 . S
N1823 H1829 0.985 . S
C1824 C1818 1.379 1_556 S
C1824 C1821 1.363 . S
C1824 N1822 1.356 . S
C1825 C1819 1.363 . S
C1825 C1820 1.379 . S
C1825 N1823 1.356 . S
N1826 C1818 1.356 . S
N1826 H1832 0.984 . S
N1826 H1833 0.984 . S
N1827 C1820 1.356 . S
N1827 H1830 0.984 . S
N1827 H1831 0.985 . S
H1828 N1823 0.984 . S
H1829 N1823 0.985 . S
H1830 N1827 0.984 . S
H1831 N1827 0.985 . S
H1832 N1826 0.984 . S
H1833 N1826 0.984 . S
H1834 N1822 0.984 . S
H1835 N1822 0.985 . S
C1836 C1837 1.363 . S
C1836 C1842 1.379 . S
C1836 N1844 1.356 . S
C1837 C1836 1.363 . S
C1837 C1843 1.363 . S
C1838 C1839 1.363 1_455 S
C1838 C1843 1.379 1_455 S
C1838 N1845 1.356 . S
C1839 C1838 1.363 1_655 S
C1839 C1842 1.363 . S
N1840 C1842 1.356 . S
N1840 H1852 0.984 . S
N1840 H1853 0.985 . S
N1841 C1843 1.356 . S
N1841 H1846 0.984 . S
N1841 H1847 0.985 . S
C1842 C1836 1.379 . S
C1842 C1839 1.363 . S
C1842 N1840 1.356 . S
C1843 C1837 1.363 . S
C1843 C1838 1.379 1_655 S
C1843 N1841 1.356 . S
N1844 C1836 1.356 . S
N1844 H1850 0.984 . S
N1844 H1851 0.984 . S
N1845 C1838 1.356 . S
N1845 H1848 0.984 . S
N1845 H1849 0.985 . S
H1846 N1841 0.984 . S
H1847 N1841 0.985 . S
H1848 N1845 0.984 . S
H1849 N1845 0.985 . S
H1850 N1844 0.984 . S
H1851 N1844 0.984 . S
H1852 N1840 0.984 . S
H1853 N1840 0.985 . S
C1854 C1855 1.363 . S
C1854 C1860 1.379 . S
C1854 N1862 1.356 . S
C1855 C1854 1.363 . S
C1855 C1861 1.363 . S
C1856 C1857 1.363 . S
C1856 C1861 1.379 . S
C1856 N1863 1.356 . S
C1857 C1856 1.363 . S
C1857 C1860 1.363 . S
N1858 C1860 1.356 . S
N1858 H1870 0.984 . S
N1858 H1871 0.985 . S
N1859 C1861 1.356 . S
N1859 H1864 0.984 . S
N1859 H1865 0.985 . S
C1860 C1854 1.379 . S
C1860 C1857 1.363 . S
C1860 N1858 1.356 . S
C1861 C1855 1.363 . S
C1861 C1856 1.379 . S
C1861 N1859 1.356 . S
N1862 C1854 1.356 . S
N1862 H1868 0.984 . S
N1862 H1869 0.984 . S
N1863 C1856 1.356 . S
N1863 H1866 0.984 . S
N1863 H1867 0.985 . S
H1864 N1859 0.984 . S
H1865 N1859 0.985 . S
H1866 N1863 0.984 . S
H1867 N1863 0.985 . S
H1868 N1862 0.984 . S
H1869 N1862 0.984 . S
H1870 N1858 0.984 . S
H1871 N1858 0.985 . S
C1872 C1873 1.363 . S
C1872 C1878 1.379 . S
C1872 N1880 1.356 . S
C1873 C1872 1.363 . S
C1873 C1879 1.363 . S
C1874 C1875 1.363 . S
C1874 C1879 1.379 . S
C1874 N1881 1.356 . S
C1875 C1874 1.363 . S
C1875 C1878 1.363 . S
N1876 C1878 1.356 . S
N1876 H1888 0.984 . S
N1876 H1889 0.985 . S
N1877 C1879 1.356 . S
N1877 H1882 0.984 . S
N1877 H1883 0.985 . S
C1878 C1872 1.379 . S
C1878 C1875 1.363 . S
C1878 N1876 1.356 . S
C1879 C1873 1.363 . S
C1879 C1874 1.379 . S
C1879 N1877 1.356 . S
N1880 C1872 1.356 . S
N1880 H1886 0.984 . S
N1880 H1887 0.984 . S
N1881 C1874 1.356 . S
N1881 H1884 0.984 . S
N1881 H1885 0.985 . S
H1882 N1877 0.984 . S
H1883 N1877 0.985 . S
H1884 N1881 0.984 . S
H1885 N1881 0.985 . S
H1886 N1880 0.984 . S
H1887 N1880 0.984 . S
H1888 N1876 0.984 . S
H1889 N1876 0.985 . S
C1890 C1891 1.363 . S
C1890 C1896 1.379 . S
C1890 N1898 1.356 . S
C1891 C1890 1.363 . S
C1891 C1897 1.363 . S
C1892 C1893 1.363 . S
C1892 C1897 1.379 . S
C1892 N1899 1.356 . S
C1893 C1892 1.363 . S
C1893 C1896 1.363 . S
N1894 C1896 1.356 . S
N1894 H1906 0.984 . S
N1894 H1907 0.985 . S
N1895 C1897 1.356 . S
N1895 H1900 0.984 . S
N1895 H1901 0.985 . S
C1896 C1890 1.379 . S
C1896 C1893 1.363 . S
C1896 N1894 1.356 . S
C1897 C1891 1.363 . S
C1897 C1892 1.379 . S
C1897 N1895 1.356 . S
N1898 C1890 1.356 . S
N1898 H1904 0.984 . S
N1898 H1905 0.984 . S
N1899 C1892 1.356 . S
N1899 H1902 0.984 . S
N1899 H1903 0.985 . S
H1900 N1895 0.984 . S
H1901 N1895 0.985 . S
H1902 N1899 0.984 . S
H1903 N1899 0.985 . S
H1904 N1898 0.984 . S
H1905 N1898 0.984 . S
H1906 N1894 0.984 . S
H1907 N1894 0.985 . S
C1908 C1909 1.363 . S
C1908 C1914 1.379 . S
C1908 N1916 1.356 . S
C1909 C1908 1.363 . S
C1909 C1915 1.363 . S
C1910 C1911 1.363 . S
C1910 C1915 1.379 . S
C1910 N1917 1.356 . S
C1911 C1910 1.363 . S
C1911 C1914 1.363 . S
N1912 C1914 1.356 . S
N1912 H1924 0.984 . S
N1912 H1925 0.985 . S
N1913 C1915 1.356 . S
N1913 H1918 0.984 . S
N1913 H1919 0.985 . S
C1914 C1908 1.379 . S
C1914 C1911 1.363 . S
C1914 N1912 1.356 . S
C1915 C1909 1.363 . S
C1915 C1910 1.379 . S
C1915 N1913 1.356 . S
N1916 C1908 1.356 . S
N1916 H1922 0.984 . S
N1916 H1923 0.984 . S
N1917 C1910 1.356 . S
N1917 H1920 0.984 . S
N1917 H1921 0.985 . S
H1918 N1913 0.984 . S
H1919 N1913 0.985 . S
H1920 N1917 0.984 . S
H1921 N1917 0.985 . S
H1922 N1916 0.984 . S
H1923 N1916 0.984 . S
H1924 N1912 0.984 . S
H1925 N1912 0.985 . S
C1926 C1927 1.363 . S
C1926 C1932 1.379 . S
C1926 N1934 1.356 . S
C1927 C1926 1.363 . S
C1927 C1933 1.363 . S
C1928 C1929 1.363 . S
C1928 C1933 1.379 . S
C1928 N1935 1.356 . S
C1929 C1928 1.363 . S
C1929 C1932 1.363 . S
N1930 C1932 1.356 . S
N1930 H1942 0.984 . S
N1930 H1943 0.985 . S
N1931 C1933 1.356 . S
N1931 H1936 0.984 . S
N1931 H1937 0.985 . S
C1932 C1926 1.379 . S
C1932 C1929 1.363 . S
C1932 N1930 1.356 . S
C1933 C1927 1.363 . S
C1933 C1928 1.379 . S
C1933 N1931 1.356 . S
N1934 C1926 1.356 . S
N1934 H1940 0.984 . S
N1934 H1941 0.984 . S
N1935 C1928 1.356 . S
N1935 H1938 0.984 . S
N1935 H1939 0.985 . S
H1936 N1931 0.984 . S
H1937 N1931 0.985 . S
H1938 N1935 0.984 . S
H1939 N1935 0.985 . S
H1940 N1934 0.984 . S
H1941 N1934 0.984 . S
H1942 N1930 0.984 . S
H1943 N1930 0.985 . S
C1944 C1945 1.363 . S
C1944 C1950 1.379 . S
C1944 N1952 1.356 . S
C1945 C1944 1.363 . S
C1945 C1951 1.363 . S
C1946 C1947 1.363 . S
C1946 C1951 1.379 . S
C1946 N1953 1.356 . S
C1947 C1946 1.363 . S
C1947 C1950 1.363 . S
N1948 C1950 1.356 . S
N1948 H1960 0.984 . S
N1948 H1961 0.985 . S
N1949 C1951 1.356 . S
N1949 H1954 0.984 . S
N1949 H1955 0.985 . S
C1950 C1944 1.379 . S
C1950 C1947 1.363 . S
C1950 N1948 1.356 . S
C1951 C1945 1.363 . S
C1951 C1946 1.379 . S
C1951 N1949 1.356 . S
N1952 C1944 1.356 . S
N1952 H1958 0.984 . S
N1952 H1959 0.984 . S
N1953 C1946 1.356 . S
N1953 H1956 0.984 . S
N1953 H1957 0.985 . S
H1954 N1949 0.984 . S
H1955 N1949 0.985 . S
H1956 N1953 0.984 . S
H1957 N1953 0.985 . S
H1958 N1952 0.984 . S
H1959 N1952 0.984 . S
H1960 N1948 0.984 . S
H1961 N1948 0.985 . S
C1962 C1963 1.363 . S
C1962 C1968 1.379 1_565 S
C1962 N1970 1.356 . S
C1963 C1962 1.363 . S
C1963 C1969 1.363 . S
C1964 C1965 1.363 1_565 S
C1964 C1969 1.379 . S
C1964 N1971 1.356 . S
C1965 C1964 1.363 1_545 S
C1965 C1968 1.363 . S
N1966 C1968 1.356 . S
N1966 H1978 0.984 . S
N1966 H1979 0.985 . S
N1967 C1969 1.356 . S
N1967 H1972 0.984 . S
N1967 H1973 0.985 . S
C1968 C1962 1.379 1_545 S
C1968 C1965 1.363 . S
C1968 N1966 1.356 . S
C1969 C1963 1.363 . S
C1969 C1964 1.379 . S
C1969 N1967 1.356 . S
N1970 C1962 1.356 . S
N1970 H1976 0.984 . S
N1970 H1977 0.984 . S
N1971 C1964 1.356 . S
N1971 H1974 0.984 1_565 S
N1971 H1975 0.985 . S
H1972 N1967 0.984 . S
H1973 N1967 0.985 . S
H1974 N1971 0.984 1_545 S
H1975 N1971 0.985 . S
H1976 N1970 0.984 . S
H1977 N1970 0.984 . S
H1978 N1966 0.984 . S
H1979 N1966 0.985 . S
C1980 C1981 1.363 . S
C1980 C1986 1.379 . S
C1980 N1988 1.356 1_565 S
C1981 C1980 1.363 . S
C1981 C1987 1.363 . S
C1982 C1983 1.363 . S
C1982 C1987 1.379 . S
C1982 N1989 1.356 . S
C1983 C1982 1.363 . S
C1983 C1986 1.363 . S
N1984 C1986 1.356 . S
N1984 H1996 0.984 . S
N1984 H1997 0.985 . S
N1985 C1987 1.356 . S
N1985 H1990 0.984 1_565 S
N1985 H1991 0.985 . S
C1986 C1980 1.379 . S
C1986 C1983 1.363 . S
C1986 N1984 1.356 . S
C1987 C1981 1.363 . S
C1987 C1982 1.379 . S
C1987 N1985 1.356 . S
N1988 C1980 1.356 1_545 S
N1988 H1994 0.984 . S
N1988 H1995 0.984 . S
N1989 C1982 1.356 . S
N1989 H1992 0.984 . S
N1989 H1993 0.985 . S
H1990 N1985 0.984 1_545 S
H1991 N1985 0.985 . S
H1992 N1989 0.984 . S
H1993 N1989 0.985 . S
H1994 N1988 0.984 . S
H1995 N1988 0.984 . S
H1996 N1984 0.984 . S
H1997 N1984 0.985 . S
C1998 C1999 1.363 . S
C1998 C2004 1.379 . S
C1998 N2006 1.356 . S
C1999 C1998 1.363 . S
C1999 C2005 1.363 . S
C2000 C2001 1.363 . S
C2000 C2005 1.379 . S
C2000 N2007 1.356 . S
C2001 C2000 1.363 . S
C2001 C2004 1.363 . S
N2002 C2004 1.356 . S
N2002 H2014 0.984 . S
N2002 H2015 0.985 . S
N2003 C2005 1.356 . S
N2003 H2008 0.984 . S
N2003 H2009 0.985 1_554 S
C2004 C1998 1.379 . S
C2004 C2001 1.363 . S
C2004 N2002 1.356 . S
C2005 C1999 1.363 . S
C2005 C2000 1.379 . S
C2005 N2003 1.356 . S
N2006 C1998 1.356 . S
N2006 H2012 0.984 . S
N2006 H2013 0.984 . S
N2007 C2000 1.356 . S
N2007 H2010 0.984 . S
N2007 H2011 0.996 . S
H2008 N2003 0.984 . S
H2009 N2003 0.985 1_556 S
H2010 N2007 0.984 . S
H2011 N2007 0.996 . S
H2012 N2006 0.984 . S
H2013 N2006 0.984 . S
H2014 N2002 0.984 . S
H2015 N2002 0.985 . S
C2016 C2017 1.363 . S
C2016 C2022 1.379 . S
C2016 N2024 1.356 . S
C2017 C2016 1.363 . S
C2017 C2023 1.363 . S
C2018 C2019 1.363 . S
C2018 C2023 1.379 . S
C2018 N2025 1.356 . S
C2019 C2018 1.363 . S
C2019 C2022 1.363 . S
N2020 C2022 1.356 . S
N2020 H2032 0.984 . S
N2020 H2033 0.985 . S
N2021 C2023 1.356 . S
N2021 H2026 0.984 . S
N2021 H2027 0.985 . S
C2022 C2016 1.379 . S
C2022 C2019 1.363 . S
C2022 N2020 1.356 . S
C2023 C2017 1.363 . S
C2023 C2018 1.379 . S
C2023 N2021 1.356 . S
N2024 C2016 1.356 . S
N2024 H2030 0.984 . S
N2024 H2031 0.984 . S
N2025 C2018 1.356 . S
N2025 H2028 0.984 . S
N2025 H2029 0.985 . S
H2026 N2021 0.984 . S
H2027 N2021 0.985 . S
H2028 N2025 0.984 . S
H2029 N2025 0.985 . S
H2030 N2024 0.984 . S
H2031 N2024 0.984 . S
H2032 N2020 0.984 . S
H2033 N2020 0.985 . S
C2034 C2035 1.363 . S
C2034 C2040 1.379 . S
C2034 N2042 1.356 . S
C2035 C2034 1.363 . S
C2035 C2041 1.363 . S
C2036 C2037 1.363 . S
C2036 C2041 1.379 . S
C2036 N2043 1.356 . S
C2037 C2036 1.363 . S
C2037 C2040 1.363 . S
N2038 C2040 1.356 . S
N2038 H2050 0.984 . S
N2038 H2051 0.985 . S
N2039 C2041 1.356 . S
N2039 H2044 0.984 . S
N2039 H2045 0.985 . S
C2040 C2034 1.379 . S
C2040 C2037 1.363 . S
C2040 N2038 1.356 . S
C2041 C2035 1.363 . S
C2041 C2036 1.379 . S
C2041 N2039 1.356 . S
N2042 C2034 1.356 . S
N2042 H2048 0.984 . S
N2042 H2049 0.984 . S
N2043 C2036 1.356 . S
N2043 H2046 0.984 1_554 S
N2043 H2047 0.987 . S
H2044 N2039 0.984 . S
H2045 N2039 0.985 . S
H2046 N2043 0.984 1_556 S
H2047 N2043 0.987 . S
H2048 N2042 0.984 . S
H2049 N2042 0.984 . S
H2050 N2038 0.984 . S
H2051 N2038 0.985 . S
C2052 C2053 1.363 . S
C2052 C2058 1.379 . S
C2052 N2060 1.356 . S
C2053 C2052 1.363 . S
C2053 C2059 1.363 . S
C2054 C2055 1.363 . S
C2054 C2059 1.379 . S
C2054 N2061 1.356 . S
C2055 C2054 1.363 . S
C2055 C2058 1.363 . S
N2056 C2058 1.356 . S
N2056 H2068 0.984 . S
N2056 H2069 0.985 . S
N2057 C2059 1.356 . S
N2057 H2062 0.984 . S
N2057 H2063 0.985 . S
C2058 C2052 1.379 . S
C2058 C2055 1.363 . S
C2058 N2056 1.356 . S
C2059 C2053 1.363 . S
C2059 C2054 1.379 . S
C2059 N2057 1.356 . S
N2060 C2052 1.356 . S
N2060 H2066 0.984 . S
N2060 H2067 0.984 . S
N2061 C2054 1.356 . S
N2061 H2064 0.984 . S
N2061 H2065 0.985 . S
H2062 N2057 0.984 . S
H2063 N2057 0.985 . S
H2064 N2061 0.984 . S
H2065 N2061 0.985 . S
H2066 N2060 0.984 . S
H2067 N2060 0.984 . S
H2068 N2056 0.984 . S
H2069 N2056 0.985 . S
C2070 C2071 1.363 . S
C2070 C2076 1.379 . S
C2070 N2078 1.356 . S
C2071 C2070 1.363 . S
C2071 C2077 1.363 . S
C2072 C2073 1.363 . S
C2072 C2077 1.379 . S
C2072 N2079 1.356 . S
C2073 C2072 1.363 . S
C2073 C2076 1.363 . S
N2074 C2076 1.356 . S
N2074 H2086 0.984 . S
N2074 H2087 0.985 . S
N2075 C2077 1.356 . S
N2075 H2080 0.984 . S
N2075 H2081 0.985 . S
C2076 C2070 1.379 . S
C2076 C2073 1.363 . S
C2076 N2074 1.356 . S
C2077 C2071 1.363 . S
C2077 C2072 1.379 . S
C2077 N2075 1.356 . S
N2078 C2070 1.356 . S
N2078 H2084 0.984 . S
N2078 H2085 0.984 . S
N2079 C2072 1.356 . S
N2079 H2082 0.984 . S
N2079 H2083 0.985 . S
H2080 N2075 0.984 . S
H2081 N2075 0.985 . S
H2082 N2079 0.984 . S
H2083 N2079 0.985 . S
H2084 N2078 0.984 . S
H2085 N2078 0.984 . S
H2086 N2074 0.984 . S
H2087 N2074 0.985 . S
C2088 C2089 1.363 . S
C2088 C2094 1.379 . S
C2088 N2096 1.356 . S
C2089 C2088 1.363 . S
C2089 C2095 1.363 . S
C2090 C2091 1.363 . S
C2090 C2095 1.379 . S
C2090 N2097 1.356 . S
C2091 C2090 1.363 . S
C2091 C2094 1.363 . S
N2092 C2094 1.356 . S
N2092 H2104 0.984 . S
N2092 H2105 0.985 . S
N2093 C2095 1.356 . S
N2093 H2098 0.984 . S
N2093 H2099 0.985 . S
C2094 C2088 1.379 . S
C2094 C2091 1.363 . S
C2094 N2092 1.356 . S
C2095 C2089 1.363 . S
C2095 C2090 1.379 . S
C2095 N2093 1.356 . S
N2096 C2088 1.356 . S
N2096 H2102 0.984 . S
N2096 H2103 0.984 . S
N2097 C2090 1.356 . S
N2097 H2100 0.984 . S
N2097 H2101 0.985 . S
H2098 N2093 0.984 . S
H2099 N2093 0.985 . S
H2100 N2097 0.984 . S
H2101 N2097 0.985 . S
H2102 N2096 0.984 . S
H2103 N2096 0.984 . S
H2104 N2092 0.984 . S
H2105 N2092 0.985 . S
C2106 C2107 1.363 . S
C2106 C2112 1.379 . S
C2106 N2114 1.356 . S
C2107 C2106 1.363 . S
C2107 C2113 1.363 . S
C2108 C2109 1.363 . S
C2108 C2113 1.379 . S
C2108 N2115 1.356 . S
C2109 C2108 1.363 . S
C2109 C2112 1.363 . S
N2110 C2112 1.356 . S
N2110 H2122 0.984 . S
N2110 H2123 0.985 . S
N2111 C2113 1.356 . S
N2111 H2116 0.984 . S
N2111 H2117 0.985 . S
C2112 C2106 1.379 . S
C2112 C2109 1.363 . S
C2112 N2110 1.356 . S
C2113 C2107 1.363 . S
C2113 C2108 1.379 . S
C2113 N2111 1.356 . S
N2114 C2106 1.356 . S
N2114 H2120 0.984 . S
N2114 H2121 0.984 . S
N2115 C2108 1.356 . S
N2115 H2118 0.984 . S
N2115 H2119 0.985 . S
H2116 N2111 0.984 . S
H2117 N2111 0.985 . S
H2118 N2115 0.984 . S
H2119 N2115 0.985 . S
H2120 N2114 0.984 . S
H2121 N2114 0.984 . S
H2122 N2110 0.984 . S
H2123 N2110 0.985 . S
C2124 C2125 1.363 . S
C2124 C2130 1.382 . S
C2124 N2132 1.356 1_455 S
C2125 C2124 1.363 . S
C2125 C2131 1.363 . S
C2126 C2127 1.363 1_554 S
C2126 C2131 1.379 1_554 S
C2126 N2133 1.356 . S
C2127 C2126 1.363 1_556 S
C2127 C2130 1.382 . S
N2128 C2130 1.338 1_655 S
N2128 H2140 0.984 . S
N2128 H2141 0.985 . S
N2129 C2131 1.356 1_554 S
N2129 H2134 0.984 1_554 S
N2129 H2135 0.985 . S
C2130 C2124 1.382 . S
C2130 C2127 1.382 . S
C2130 N2128 1.338 1_455 S
C2131 C2125 1.363 . S
C2131 C2126 1.379 1_556 S
C2131 N2129 1.356 1_556 S
N2132 C2124 1.356 1_655 S
N2132 H2138 0.984 . S
N2132 H2139 0.984 . S
N2133 C2126 1.356 . S
N2133 H2136 0.984 . S
N2133 H2137 0.985 . S
H2134 N2129 0.984 1_556 S
H2135 N2129 0.985 . S
H2136 N2133 0.984 . S
H2137 N2133 0.985 . S
H2138 N2132 0.984 . S
H2139 N2132 0.984 . S
H2140 N2128 0.984 . S
H2141 N2128 0.985 . S
C2142 C2143 1.363 . S
C2142 C2148 1.379 . S
C2142 N2150 1.356 . S
C2143 C2142 1.363 . S
C2143 C2149 1.363 . S
C2144 C2145 1.363 . S
C2144 C2149 1.379 . S
C2144 N2151 1.356 . S
C2145 C2144 1.363 . S
C2145 C2148 1.363 . S
N2146 C2148 1.356 . S
N2146 H2158 0.984 . S
N2146 H2159 0.985 . S
N2147 C2149 1.356 . S
N2147 H2152 0.984 . S
N2147 H2153 0.985 . S
C2148 C2142 1.379 . S
C2148 C2145 1.363 . S
C2148 N2146 1.356 . S
C2149 C2143 1.363 . S
C2149 C2144 1.379 . S
C2149 N2147 1.356 . S
N2150 C2142 1.356 . S
N2150 H2156 0.984 . S
N2150 H2157 0.984 . S
N2151 C2144 1.356 . S
N2151 H2154 0.984 . S
N2151 H2155 0.985 . S
H2152 N2147 0.984 . S
H2153 N2147 0.985 . S
H2154 N2151 0.984 . S
H2155 N2151 0.985 . S
H2156 N2150 0.984 . S
H2157 N2150 0.984 . S
H2158 N2146 0.984 . S
H2159 N2146 0.985 . S
C2160 C2161 1.363 . S
C2160 C2166 1.379 . S
C2160 N2168 1.356 . S
C2161 C2160 1.363 . S
C2161 C2167 1.363 . S
C2162 C2163 1.363 . S
C2162 C2167 1.379 . S
C2162 N2169 1.356 . S
C2163 C2162 1.363 . S
C2163 C2166 1.363 . S
N2164 C2166 1.356 . S
N2164 H2176 0.984 . S
N2164 H2177 0.985 . S
N2165 C2167 1.356 . S
N2165 H2170 0.984 . S
N2165 H2171 0.985 . S
C2166 C2160 1.379 . S
C2166 C2163 1.363 . S
C2166 N2164 1.356 . S
C2167 C2161 1.363 . S
C2167 C2162 1.379 . S
C2167 N2165 1.356 . S
N2168 C2160 1.356 . S
N2168 H2174 0.984 . S
N2168 H2175 0.984 . S
N2169 C2162 1.356 . S
N2169 H2172 0.984 . S
N2169 H2173 0.985 . S
H2170 N2165 0.984 . S
H2171 N2165 0.985 . S
H2172 N2169 0.984 . S
H2173 N2169 0.985 . S
H2174 N2168 0.984 . S
H2175 N2168 0.984 . S
H2176 N2164 0.984 . S
H2177 N2164 0.985 . S
C2178 C2179 1.363 . S
C2178 C2184 1.379 . S
C2178 N2186 1.356 . S
C2179 C2178 1.363 . S
C2179 C2185 1.363 . S
C2180 C2181 1.363 . S
C2180 C2185 1.379 . S
C2180 N2187 1.356 . S
C2181 C2180 1.363 . S
C2181 C2184 1.363 . S
N2182 C2184 1.356 . S
N2182 H2194 0.984 . S
N2182 H2195 0.985 . S
N2183 C2185 1.356 . S
N2183 H2188 0.984 . S
N2183 H2189 0.985 . S
C2184 C2178 1.379 . S
C2184 C2181 1.363 . S
C2184 N2182 1.356 . S
C2185 C2179 1.363 . S
C2185 C2180 1.379 . S
C2185 N2183 1.356 . S
N2186 C2178 1.356 . S
N2186 H2192 0.984 . S
N2186 H2193 0.984 . S
N2187 C2180 1.356 . S
N2187 H2190 0.984 . S
N2187 H2191 0.985 . S
H2188 N2183 0.984 . S
H2189 N2183 0.985 . S
H2190 N2187 0.984 . S
H2191 N2187 0.985 . S
H2192 N2186 0.984 . S
H2193 N2186 0.984 . S
H2194 N2182 0.984 . S
H2195 N2182 0.985 . S
C2196 C2197 1.363 1_655 S
C2196 C2202 1.379 . S
C2196 N2204 1.356 . S
C2197 C2196 1.363 1_455 S
C2197 C2203 1.363 . S
C2198 C2199 1.363 . S
C2198 C2203 1.379 . S
C2198 N2205 1.356 . S
C2199 C2198 1.363 . S
C2199 C2202 1.363 1_455 S
N2200 C2202 1.356 . S
N2200 H2212 0.984 . S
N2200 H2213 0.985 . S
N2201 C2203 1.356 . S
N2201 H2206 0.984 . S
N2201 H2207 0.985 . S
C2202 C2196 1.379 . S
C2202 C2199 1.363 1_655 S
C2202 N2200 1.356 . S
C2203 C2197 1.363 . S
C2203 C2198 1.379 . S
C2203 N2201 1.356 . S
N2204 C2196 1.356 . S
N2204 H2210 0.984 . S
N2204 H2211 0.984 . S
N2205 C2198 1.356 . S
N2205 H2208 0.984 . S
N2205 H2209 0.985 . S
H2206 N2201 0.984 . S
H2207 N2201 0.985 . S
H2208 N2205 0.984 . S
H2209 N2205 0.985 . S
H2210 N2204 0.984 . S
H2211 N2204 0.984 . S
H2212 N2200 0.984 . S
H2213 N2200 0.985 . S
C2214 C2215 1.363 . S
C2214 C2220 1.379 . S
C2214 N2222 1.356 . S
C2215 C2214 1.363 . S
C2215 C2221 1.363 . S
C2216 C2217 1.363 . S
C2216 C2221 1.379 . S
C2216 N2223 1.356 . S
C2217 C2216 1.363 . S
C2217 C2220 1.363 . S
N2218 C2220 1.356 . S
N2218 H2230 0.984 . S
N2218 H2231 0.985 . S
N2219 C2221 1.356 . S
N2219 H2224 0.984 . S
N2219 H2225 0.985 . S
C2220 C2214 1.379 . S
C2220 C2217 1.363 . S
C2220 N2218 1.356 . S
C2221 C2215 1.363 . S
C2221 C2216 1.379 . S
C2221 N2219 1.356 . S
N2222 C2214 1.356 . S
N2222 H2228 0.984 . S
N2222 H2229 0.984 . S
N2223 C2216 1.356 . S
N2223 H2226 0.984 . S
N2223 H2227 0.985 . S
H2224 N2219 0.984 . S
H2225 N2219 0.985 . S
H2226 N2223 0.984 . S
H2227 N2223 0.985 . S
H2228 N2222 0.984 . S
H2229 N2222 0.984 . S
H2230 N2218 0.984 . S
H2231 N2218 0.985 . S
C2232 C2233 1.363 . S
C2232 C2238 1.379 . S
C2232 N2240 1.356 . S
C2233 C2232 1.363 . S
C2233 C2239 1.363 . S
C2234 C2235 1.363 . S
C2234 C2239 1.379 . S
C2234 N2241 1.356 . S
C2235 C2234 1.363 . S
C2235 C2238 1.363 . S
N2236 C2238 1.356 . S
N2236 H2248 0.984 . S
N2236 H2249 0.985 . S
N2237 C2239 1.356 . S
N2237 H2242 0.984 . S
N2237 H2243 0.985 . S
C2238 C2232 1.379 . S
C2238 C2235 1.363 . S
C2238 N2236 1.356 . S
C2239 C2233 1.363 . S
C2239 C2234 1.379 . S
C2239 N2237 1.356 . S
N2240 C2232 1.356 . S
N2240 H2246 0.984 . S
N2240 H2247 0.984 . S
N2241 C2234 1.356 . S
N2241 H2244 0.984 . S
N2241 H2245 0.985 . S
H2242 N2237 0.984 . S
H2243 N2237 0.985 . S
H2244 N2241 0.984 . S
H2245 N2241 0.985 . S
H2246 N2240 0.984 . S
H2247 N2240 0.984 . S
H2248 N2236 0.984 . S
H2249 N2236 0.985 . S
C2250 C2251 1.363 . S
C2250 C2256 1.379 . S
C2250 N2258 1.356 . S
C2251 C2250 1.363 . S
C2251 C2257 1.363 . S
C2252 C2253 1.363 . S
C2252 C2257 1.379 . S
C2252 N2259 1.356 . S
C2253 C2252 1.363 . S
C2253 C2256 1.363 . S
N2254 C2256 1.356 . S
N2254 H2266 0.984 . S
N2254 H2267 0.985 . S
N2255 C2257 1.356 . S
N2255 H2260 0.984 . S
N2255 H2261 0.985 . S
C2256 C2250 1.379 . S
C2256 C2253 1.363 . S
C2256 N2254 1.356 . S
C2257 C2251 1.363 . S
C2257 C2252 1.379 . S
C2257 N2255 1.356 . S
N2258 C2250 1.356 . S
N2258 H2264 0.984 . S
N2258 H2265 0.984 . S
N2259 C2252 1.356 . S
N2259 H2262 0.984 . S
N2259 H2263 0.985 . S
H2260 N2255 0.984 . S
H2261 N2255 0.985 . S
H2262 N2259 0.984 . S
H2263 N2259 0.985 . S
H2264 N2258 0.984 . S
H2265 N2258 0.984 . S
H2266 N2254 0.984 . S
H2267 N2254 0.985 . S
C2268 C2269 1.363 . S
C2268 C2274 1.379 . S
C2268 N2276 1.356 . S
C2269 C2268 1.363 . S
C2269 C2275 1.363 . S
C2270 C2271 1.363 . S
C2270 C2275 1.379 . S
C2270 N2277 1.356 . S
C2271 C2270 1.363 . S
C2271 C2274 1.363 . S
N2272 C2274 1.356 . S
N2272 H2284 0.984 . S
N2272 H2285 0.985 . S
N2273 C2275 1.356 . S
N2273 H2278 0.984 . S
N2273 H2279 0.985 . S
C2274 C2268 1.379 . S
C2274 C2271 1.363 . S
C2274 N2272 1.356 . S
C2275 C2269 1.363 . S
C2275 C2270 1.379 . S
C2275 N2273 1.356 . S
N2276 C2268 1.356 . S
N2276 H2282 0.984 . S
N2276 H2283 0.984 . S
N2277 C2270 1.356 . S
N2277 H2280 0.984 . S
N2277 H2281 0.985 . S
H2278 N2273 0.984 . S
H2279 N2273 0.985 . S
H2280 N2277 0.984 . S
H2281 N2277 0.985 . S
H2282 N2276 0.984 . S
H2283 N2276 0.984 . S
H2284 N2272 0.984 . S
H2285 N2272 0.985 . S
C2286 C2287 1.363 . S
C2286 C2292 1.379 . S
C2286 N2294 1.356 . S
C2287 C2286 1.363 . S
C2287 C2293 1.363 . S
C2288 C2289 1.363 . S
C2288 C2293 1.379 . S
C2288 N2295 1.356 . S
C2289 C2288 1.363 . S
C2289 C2292 1.363 . S
N2290 C2292 1.356 . S
N2290 H2302 0.984 . S
N2290 H2303 0.985 . S
N2291 C2293 1.356 . S
N2291 H2296 0.984 . S
N2291 H2297 0.985 . S
C2292 C2286 1.379 . S
C2292 C2289 1.363 . S
C2292 N2290 1.356 . S
C2293 C2287 1.363 . S
C2293 C2288 1.379 . S
C2293 N2291 1.356 . S
N2294 C2286 1.356 . S
N2294 H2300 0.984 . S
N2294 H2301 0.984 . S
N2295 C2288 1.356 . S
N2295 H2298 0.984 . S
N2295 H2299 0.985 . S
H2296 N2291 0.984 . S
H2297 N2291 0.985 . S
H2298 N2295 0.984 . S
H2299 N2295 0.985 . S
H2300 N2294 0.984 . S
H2301 N2294 0.984 . S
H2302 N2290 0.984 . S
H2303 N2290 0.985 . S
C2304 C2305 1.363 . S
C2304 C2310 1.379 . S
C2304 N2312 1.356 . S
C2305 C2304 1.363 . S
C2305 C2311 1.363 . S
C2306 C2307 1.363 . S
C2306 C2311 1.379 . S
C2306 N2313 1.356 . S
C2307 C2306 1.363 . S
C2307 C2310 1.363 . S
N2308 C2310 1.356 . S
N2308 H2320 0.984 . S
N2308 H2321 0.985 . S
N2309 C2311 1.356 . S
N2309 H2314 0.984 . S
N2309 H2315 0.985 . S
C2310 C2304 1.379 . S
C2310 C2307 1.363 . S
C2310 N2308 1.356 . S
C2311 C2305 1.363 . S
C2311 C2306 1.379 . S
C2311 N2309 1.356 . S
N2312 C2304 1.356 . S
N2312 H2318 0.984 . S
N2312 H2319 0.984 . S
N2313 C2306 1.356 . S
N2313 H2316 0.984 . S
N2313 H2317 0.985 . S
H2314 N2309 0.984 . S
H2315 N2309 0.985 . S
H2316 N2313 0.984 . S
H2317 N2313 0.985 . S
H2318 N2312 0.984 . S
H2319 N2312 0.984 . S
H2320 N2308 0.984 . S
H2321 N2308 0.985 . S
C2322 C2323 1.363 . S
C2322 C2328 1.379 . S
C2322 N2330 1.356 . S
C2323 C2322 1.363 . S
C2323 C2329 1.363 . S
C2324 C2325 1.363 . S
C2324 C2329 1.379 . S
C2324 N2331 1.356 . S
C2325 C2324 1.363 . S
C2325 C2328 1.363 . S
N2326 C2328 1.356 . S
N2326 H2338 0.984 . S
N2326 H2339 0.985 . S
N2327 C2329 1.356 . S
N2327 H2332 0.984 . S
N2327 H2333 0.985 . S
C2328 C2322 1.379 . S
C2328 C2325 1.363 . S
C2328 N2326 1.356 . S
C2329 C2323 1.363 . S
C2329 C2324 1.379 . S
C2329 N2327 1.356 . S
N2330 C2322 1.356 . S
N2330 H2336 0.984 . S
N2330 H2337 0.984 . S
N2331 C2324 1.356 . S
N2331 H2334 0.984 . S
N2331 H2335 0.985 . S
H2332 N2327 0.984 . S
H2333 N2327 0.985 . S
H2334 N2331 0.984 . S
H2335 N2331 0.985 . S
H2336 N2330 0.984 . S
H2337 N2330 0.984 . S
H2338 N2326 0.984 . S
H2339 N2326 0.985 . S
C2340 C2341 1.363 . S
C2340 C2346 1.379 . S
C2340 N2348 1.356 . S
C2341 C2340 1.363 . S
C2341 C2347 1.363 . S
C2342 C2343 1.363 . S
C2342 C2347 1.379 . S
C2342 N2349 1.356 . S
C2343 C2342 1.363 . S
C2343 C2346 1.363 . S
N2344 C2346 1.356 . S
N2344 H2356 0.984 . S
N2344 H2357 0.985 . S
N2345 C2347 1.356 . S
N2345 H2350 0.984 . S
N2345 H2351 0.985 . S
C2346 C2340 1.379 . S
C2346 C2343 1.363 . S
C2346 N2344 1.356 . S
C2347 C2341 1.363 . S
C2347 C2342 1.379 . S
C2347 N2345 1.356 . S
N2348 C2340 1.356 . S
N2348 H2354 0.984 . S
N2348 H2355 0.984 . S
N2349 C2342 1.356 . S
N2349 H2352 0.984 . S
N2349 H2353 0.985 . S
H2350 N2345 0.984 . S
H2351 N2345 0.985 . S
H2352 N2349 0.984 . S
H2353 N2349 0.985 . S
H2354 N2348 0.984 . S
H2355 N2348 0.984 . S
H2356 N2344 0.984 . S
H2357 N2344 0.985 . S
C2358 C2359 1.363 . S
C2358 C2364 1.379 . S
C2358 N2366 1.356 . S
C2359 C2358 1.363 . S
C2359 C2365 1.363 . S
C2360 C2361 1.363 . S
C2360 C2365 1.379 . S
C2360 N2367 1.356 . S
C2361 C2360 1.363 . S
C2361 C2364 1.363 . S
N2362 C2364 1.356 . S
N2362 H2374 0.984 . S
N2362 H2375 0.985 . S
N2363 C2365 1.356 . S
N2363 H2368 0.984 . S
N2363 H2369 0.985 . S
C2364 C2358 1.379 . S
C2364 C2361 1.363 . S
C2364 N2362 1.356 . S
C2365 C2359 1.363 . S
C2365 C2360 1.379 . S
C2365 N2363 1.356 . S
N2366 C2358 1.356 . S
N2366 H2372 0.984 . S
N2366 H2373 0.984 . S
N2367 C2360 1.356 . S
N2367 H2370 0.984 . S
N2367 H2371 0.985 . S
H2368 N2363 0.984 . S
H2369 N2363 0.985 . S
H2370 N2367 0.984 . S
H2371 N2367 0.985 . S
H2372 N2366 0.984 . S
H2373 N2366 0.984 . S
H2374 N2362 0.984 . S
H2375 N2362 0.985 . S
C2376 C2377 1.363 . S
C2376 C2382 1.379 . S
C2376 N2384 1.356 . S
C2377 C2376 1.363 . S
C2377 C2383 1.363 . S
C2378 C2379 1.363 . S
C2378 C2383 1.379 . S
C2378 N2385 1.356 . S
C2379 C2378 1.363 . S
C2379 C2382 1.363 . S
N2380 C2382 1.356 . S
N2380 H2392 0.984 . S
N2380 H2393 0.985 . S
N2381 C2383 1.356 . S
N2381 H2386 0.984 . S
N2381 H2387 0.985 . S
C2382 C2376 1.379 . S
C2382 C2379 1.363 . S
C2382 N2380 1.356 . S
C2383 C2377 1.363 . S
C2383 C2378 1.379 . S
C2383 N2381 1.356 . S
N2384 C2376 1.356 . S
N2384 H2390 0.984 . S
N2384 H2391 0.984 . S
N2385 C2378 1.356 . S
N2385 H2388 0.984 . S
N2385 H2389 0.985 . S
H2386 N2381 0.984 . S
H2387 N2381 0.985 . S
H2388 N2385 0.984 . S
H2389 N2385 0.985 . S
H2390 N2384 0.984 . S
H2391 N2384 0.984 . S
H2392 N2380 0.984 . S
H2393 N2380 0.985 . S
C2394 C2395 1.363 . S
C2394 C2400 1.379 . S
C2394 N2402 1.356 . S
C2395 C2394 1.363 . S
C2395 C2401 1.363 . S
C2396 C2397 1.363 . S
C2396 C2401 1.379 . S
C2396 N2403 1.356 . S
C2397 C2396 1.363 . S
C2397 C2400 1.363 . S
N2398 C2400 1.356 . S
N2398 H2410 0.984 . S
N2398 H2411 0.985 . S
N2399 C2401 1.356 . S
N2399 H2404 0.984 . S
N2399 H2405 0.985 . S
C2400 C2394 1.379 . S
C2400 C2397 1.363 . S
C2400 N2398 1.356 . S
C2401 C2395 1.363 . S
C2401 C2396 1.379 . S
C2401 N2399 1.356 . S
N2402 C2394 1.356 . S
N2402 H2408 0.984 . S
N2402 H2409 0.984 . S
N2403 C2396 1.356 . S
N2403 H2406 0.984 . S
N2403 H2407 0.985 . S
H2404 N2399 0.984 . S
H2405 N2399 0.985 . S
H2406 N2403 0.984 . S
H2407 N2403 0.985 . S
H2408 N2402 0.984 . S
H2409 N2402 0.984 . S
H2410 N2398 0.984 . S
H2411 N2398 0.985 . S
C2412 C2413 1.363 . S
C2412 C2418 1.379 . S
C2412 N2420 1.356 . S
C2413 C2412 1.363 . S
C2413 C2419 1.363 . S
C2414 C2415 1.363 . S
C2414 C2419 1.379 . S
C2414 N2421 1.356 . S
C2415 C2414 1.363 . S
C2415 C2418 1.363 . S
N2416 C2418 1.356 . S
N2416 H2428 0.984 . S
N2416 H2429 0.985 . S
N2417 C2419 1.356 . S
N2417 H2422 0.984 . S
N2417 H2423 0.985 . S
C2418 C2412 1.379 . S
C2418 C2415 1.363 . S
C2418 N2416 1.356 . S
C2419 C2413 1.363 . S
C2419 C2414 1.379 . S
C2419 N2417 1.356 . S
N2420 C2412 1.356 . S
N2420 H2426 0.984 . S
N2420 H2427 0.984 . S
N2421 C2414 1.356 . S
N2421 H2424 0.984 . S
N2421 H2425 0.985 . S
H2422 N2417 0.984 . S
H2423 N2417 0.985 . S
H2424 N2421 0.984 . S
H2425 N2421 0.985 . S
H2426 N2420 0.984 . S
H2427 N2420 0.984 . S
H2428 N2416 0.984 . S
H2429 N2416 0.985 . S
C2430 C2431 1.363 . S
C2430 C2436 1.379 . S
C2430 N2438 1.356 . S
C2431 C2430 1.363 . S
C2431 C2437 1.363 . S
C2432 C2433 1.363 1_556 S
C2432 C2437 1.379 1_546 S
C2432 N2439 1.356 . S
C2433 C2432 1.363 1_554 S
C2433 C2436 1.363 1_545 S
N2434 C2436 1.356 . S
N2434 H2446 0.984 . S
N2434 H2447 0.985 . S
N2435 C2437 1.356 1_556 S
N2435 H2440 0.984 . S
N2435 H2441 0.985 1_565 S
C2436 C2430 1.379 . S
C2436 C2433 1.363 1_565 S
C2436 N2434 1.356 . S
C2437 C2431 1.363 . S
C2437 C2432 1.379 1_564 S
C2437 N2435 1.356 1_554 S
N2438 C2430 1.356 . S
N2438 H2444 0.984 . S
N2438 H2445 0.984 . S
N2439 C2432 1.356 . S
N2439 H2442 0.984 . S
N2439 H2443 0.985 . S
H2440 N2435 0.984 . S
H2441 N2435 0.985 1_545 S
H2442 N2439 0.984 . S
H2443 N2439 0.985 . S
H2444 N2438 0.984 . S
H2445 N2438 0.984 . S
H2446 N2434 0.984 . S
H2447 N2434 0.985 . S
C2448 C2449 1.363 . S
C2448 C2454 1.379 . S
C2448 N2456 1.356 . S
C2449 C2448 1.363 . S
C2449 C2455 1.363 . S
C2450 C2451 1.363 . S
C2450 C2455 1.379 . S
C2450 N2457 1.356 . S
C2451 C2450 1.363 . S
C2451 C2454 1.363 . S
N2452 C2454 1.356 . S
N2452 H2464 0.984 . S
N2452 H2465 0.985 . S
N2453 C2455 1.356 . S
N2453 H2458 0.984 . S
N2453 H2459 0.985 . S
C2454 C2448 1.379 . S
C2454 C2451 1.363 . S
C2454 N2452 1.356 . S
C2455 C2449 1.363 . S
C2455 C2450 1.379 . S
C2455 N2453 1.356 . S
N2456 C2448 1.356 . S
N2456 H2462 0.984 . S
N2456 H2463 0.984 . S
N2457 C2450 1.356 . S
N2457 H2460 0.984 . S
N2457 H2461 0.985 . S
H2458 N2453 0.984 . S
H2459 N2453 0.985 . S
H2460 N2457 0.984 . S
H2461 N2457 0.985 . S
H2462 N2456 0.984 . S
H2463 N2456 0.984 . S
H2464 N2452 0.984 . S
H2465 N2452 0.985 . S
C2466 C2467 1.363 . S
C2466 C2472 1.379 . S
C2466 N2474 1.356 . S
C2467 C2466 1.363 . S
C2467 C2473 1.363 1_554 S
C2468 C2469 1.363 . S
C2468 C2473 1.379 1_554 S
C2468 N2475 1.356 . S
C2469 C2468 1.363 . S
C2469 C2472 1.363 . S
N2470 C2472 1.356 . S
N2470 H2482 0.984 . S
N2470 H2483 0.985 . S
N2471 C2473 1.356 . S
N2471 H2476 0.984 . S
N2471 H2477 0.985 . S
C2472 C2466 1.379 . S
C2472 C2469 1.363 . S
C2472 N2470 1.356 . S
C2473 C2467 1.363 1_556 S
C2473 C2468 1.379 1_556 S
C2473 N2471 1.356 . S
N2474 C2466 1.356 . S
N2474 H2480 0.984 . S
N2474 H2481 0.984 . S
N2475 C2468 1.356 . S
N2475 H2478 0.984 . S
N2475 H2479 0.985 1_554 S
H2476 N2471 0.984 . S
H2477 N2471 0.985 . S
H2478 N2475 0.984 . S
H2479 N2475 0.985 1_556 S
H2480 N2474 0.984 . S
H2481 N2474 0.984 . S
H2482 N2470 0.984 . S
H2483 N2470 0.985 . S
C2484 C2485 1.363 . S
C2484 C2490 1.379 . S
C2484 N2492 1.356 . S
C2485 C2484 1.363 . S
C2485 C2491 1.363 . S
C2486 C2487 1.363 . S
C2486 C2491 1.379 . S
C2486 N2493 1.356 . S
C2487 C2486 1.363 . S
C2487 C2490 1.363 . S
N2488 C2490 1.356 . S
N2488 H2500 0.984 . S
N2488 H2501 0.985 . S
N2489 C2491 1.356 . S
N2489 H2494 0.984 . S
N2489 H2495 0.985 . S
C2490 C2484 1.379 . S
C2490 C2487 1.363 . S
C2490 N2488 1.356 . S
C2491 C2485 1.363 . S
C2491 C2486 1.379 . S
C2491 N2489 1.356 . S
N2492 C2484 1.356 . S
N2492 H2498 0.984 . S
N2492 H2499 0.984 . S
N2493 C2486 1.356 . S
N2493 H2496 0.984 . S
N2493 H2497 0.985 . S
H2494 N2489 0.984 . S
H2495 N2489 0.985 . S
H2496 N2493 0.984 . S
H2497 N2493 0.985 . S
H2498 N2492 0.984 . S
H2499 N2492 0.984 . S
H2500 N2488 0.984 . S
H2501 N2488 0.985 . S
C2502 C2503 1.363 . S
C2502 C2508 1.379 . S
C2502 N2510 1.356 . S
C2503 C2502 1.363 . S
C2503 C2509 1.363 . S
C2504 C2505 1.363 . S
C2504 C2509 1.379 . S
C2504 N2511 1.356 . S
C2505 C2504 1.363 . S
C2505 C2508 1.363 . S
N2506 C2508 1.356 . S
N2506 H2518 0.984 . S
N2506 H2519 0.985 . S
N2507 C2509 1.356 . S
N2507 H2512 0.984 . S
N2507 H2513 0.985 . S
C2508 C2502 1.379 . S
C2508 C2505 1.363 . S
C2508 N2506 1.356 . S
C2509 C2503 1.363 . S
C2509 C2504 1.379 . S
C2509 N2507 1.356 . S
N2510 C2502 1.356 . S
N2510 H2516 0.984 . S
N2510 H2517 0.984 . S
N2511 C2504 1.356 . S
N2511 H2514 0.984 . S
N2511 H2515 0.985 . S
H2512 N2507 0.984 . S
H2513 N2507 0.985 . S
H2514 N2511 0.984 . S
H2515 N2511 0.985 . S
H2516 N2510 0.984 . S
H2517 N2510 0.984 . S
H2518 N2506 0.984 . S
H2519 N2506 0.985 . S
C795 C313 1.871 . S
C793 C10 1.899 . S
C811 C13 0.973 . S
C813 C358 0.978 . S
C829 C34 1.707 . S
C831 C382 1.742 . S
C849 N408 1.177 . S
C847 C44 1.154 . S
C865 C21 1.144 . S
C867 N438 1.254 . S
C885 C472 1.556 . S
C883 C26 1.523 . S
C903 C508 1.186 1_556 S
C901 C49 1.196 . S
C919 C5 1.798 . S
C921 C532 1.773 . S
C937 C62 1.044 . S
C939 N326 1.046 . S
C955 C73 1.130 . S
C957 N348 1.236 . S
C975 C388 1.023 . S
C973 C88 1.022 . S
C993 C412 1.733 . S
C991 C99 1.705 . S
C1009 C60 1.159 . S
C1011 C442 1.195 . S
C1029 C478 1.084 . S
C1027 C75 1.080 . S
C1047 N498 1.204 . S
C1045 C86 1.102 . S
C1065 C538 1.747 . S
C1063 C101 1.771 . S
C1083 C339 1.720 . S
C1081 C96 1.729 . S
C1101 C568 0.998 . S
C1099 C104 0.995 . S
C1117 C122 1.196 . S
C1119 N588 1.217 . S
C1137 C622 1.566 . S
C1135 C130 1.534 . S
C1153 C57 0.968 . S
C1155 N528 0.982 . S
C1173 N378 1.216 1_565 S
C1171 C70 1.193 . S
C1189 C117 1.007 . S
C1191 C658 1.010 . S
C1209 C682 1.034 . S
C1207 C143 1.007 . S
C1225 C164 1.940 . S
C1227 C322 1.931 1_556 S
C1245 C699 1.050 . S
C1243 C169 1.023 . S
C1261 C192 1.833 . S
C1263 C373 1.794 . S
C1279 C200 1.147 . S
C1281 N656 1.216 . S
C1299 N446 1.290 . S
C1297 C179 1.266 . S
C1317 C583 1.603 . S
C1315 C182 1.609 . S
C1335 C519 1.282 . S
C1333 C203 1.244 . S
C1353 C703 1.825 . S
C1351 C161 1.822 . S
C1371 N318 1.076 . S
C1369 C216 1.061 . S
C1387 C231 1.239 . S
C1389 N686 1.268 . S
C1407 C399 1.103 . S
C1405 C242 1.075 . S
C1423 C257 1.828 . S
C1425 C643 1.791 . S
C1441 C218 1.291 . S
C1443 C433 1.254 1_655 S
C1459 C229 1.135 . S
C1461 C609 1.170 . S
C1479 N506 1.224 . S
C1477 C244 1.201 . S
C1495 C255 1.825 . S
C1497 C729 1.804 . S
C1513 C252 1.753 . S
C1515 C328 1.770 . S
C1531 C260 1.039 1_556 S
C1533 C579 1.066 . S
C1549 C278 1.178 . S
C1551 N476 1.250 . S
C1567 C286 1.628 . S
C1569 C613 1.620 . S
C1587 N716 1.007 . S
C1585 C213 0.986 1_565 S
C1605 N386 1.246 . S
C1603 C226 1.173 . S
C1623 C429 1.077 . S
C1621 C273 1.050 . S
C1641 C343 1.082 . S
C1639 C299 1.144 . S
C1657 C36 1.899 . S
C1659 C733 1.871 . S
C1677 C688 0.978 . S
C1675 C39 0.973 . S
C1695 C772 1.742 . S
C1693 C8 1.707 . S
C1711 C18 1.154 1_655 S
C1713 N648 1.177 . S
C1729 C47 1.144 . S
C1731 N558 1.254 1_556 S
C1749 C592 1.556 . S
C1747 C0 1.523 . S
C1767 C628 1.194 . S
C1765 C23 1.196 . S
C1785 C712 1.773 . S
C1783 C31 1.798 . S
C1803 N746 1.047 . S
C1801 C153 1.044 . S
C1819 C112 1.130 1_556 S
C1821 N678 1.236 . S
C1837 C127 1.022 . S
C1839 C778 1.023 1_655 S
C1857 C652 1.733 . S
C1855 C138 1.705 . S
C1875 C562 1.195 . S
C1873 C151 1.159 . S
C1891 C114 1.080 . S
C1893 C598 1.084 . S
C1911 N618 1.204 . S
C1909 C125 1.102 . S
C1927 C140 1.771 . S
C1929 C718 1.747 . S
C1947 C759 1.720 . S
C1945 C135 1.729 . S
C1965 C448 0.998 . S
C1963 C65 0.995 . S
C1983 N468 1.217 . S
C1981 C83 1.196 1_565 S
C1999 C91 1.534 . S
C2001 C502 1.566 . S
C2019 N708 0.982 . S
C2017 C148 0.968 . S
C2035 C109 1.193 . S
C2037 N768 1.216 . S
C2055 C418 1.010 . S
C2053 C78 1.007 . S
C2073 C352 1.034 . S
C2071 C52 1.007 . S
C2089 C190 1.940 . S
C2091 C742 1.931 . S
C2109 C369 1.050 . S
C2107 C195 1.023 . S
C2127 C763 1.794 1_556 S
C2125 C166 1.833 . S
C2143 C174 1.147 . S
C2145 N416 1.216 . S
C2161 C205 1.266 . S
C2163 N566 1.290 . S
C2179 C156 1.609 . S
C2181 C463 1.603 . S
C2197 C177 1.244 . S
C2199 C639 1.282 . S
C2215 C187 1.822 . S
C2217 C523 1.825 . S
C2235 N738 1.076 . S
C2233 C307 1.061 . S
C2251 C270 1.239 . S
C2253 N356 1.264 . S
C2271 C789 1.103 . S
C2269 C281 1.075 . S
C2287 C296 1.828 . S
C2289 C403 1.791 . S
C2305 C309 1.291 . S
C2307 C553 1.254 . S
C2325 C489 1.170 . S
C2323 C268 1.139 . S
C2341 C283 1.201 . S
C2343 N626 1.224 . S
C2361 C549 1.804 . S
C2359 C294 1.825 . S
C2379 C748 1.770 . S
C2377 C291 1.753 . S
C2397 C459 1.067 . S
C2395 C221 1.039 . S
C2413 C239 1.178 . S
C2415 N596 1.250 . S
C2433 C493 1.620 . S
C2431 C247 1.628 . S
C2451 N536 1.007 . S
C2449 C304 0.986 . S
C2467 C265 1.173 . S
C2469 N776 1.245 . S
C2487 C669 1.077 . S
C2485 C234 1.050 . S
C2505 C673 1.082 . S
C2503 C208 1.144 . S
