# Generated by pormake.
# Topology eea, (3,6)-cn, num edge types: 1
# Building blocks:
#     Node 0, Type 0, BuildingBlock: WUSLED_clean_sbu_0, # of connection points: 3
#     Node 1, Type 0, BuildingBlock: WUSLED_clean_sbu_0, # of connection points: 3
#     Node 2, Type 0, BuildingBlock: WUSLED_clean_sbu_0, # of connection points: 3
#     Node 3, Type 0, BuildingBlock: WUSLED_clean_sbu_0, # of connection points: 3
#     Node 4, Type 0, BuildingBlock: WUSLED_clean_sbu_0, # of connection points: 3
#     Node 5, Type 0, BuildingBlock: WUSLED_clean_sbu_0, # of connection points: 3
#     Node 6, Type 0, BuildingBlock: WUSLED_clean_sbu_0, # of connection points: 3
#     Node 7, Type 0, BuildingBlock: WUSLED_clean_sbu_0, # of connection points: 3
#     Node 8, Type 0, BuildingBlock: WUSLED_clean_sbu_0, # of connection points: 3
#     Node 9, Type 0, BuildingBlock: WUSLED_clean_sbu_0, # of connection points: 3
#     Node 10, Type 0, BuildingBlock: WUSLED_clean_sbu_0, # of connection points: 3
#     Node 11, Type 0, BuildingBlock: WUSLED_clean_sbu_0, # of connection points: 3
#     Node 12, Type 0, BuildingBlock: WUSLED_clean_sbu_0, # of connection points: 3
#     Node 13, Type 0, BuildingBlock: WUSLED_clean_sbu_0, # of connection points: 3
#     Node 14, Type 0, BuildingBlock: WUSLED_clean_sbu_0, # of connection points: 3
#     Node 15, Type 0, BuildingBlock: WUSLED_clean_sbu_0, # of connection points: 3
#     Node 16, Type 0, BuildingBlock: WUSLED_clean_sbu_0, # of connection points: 3
#     Node 17, Type 0, BuildingBlock: WUSLED_clean_sbu_0, # of connection points: 3
#     Node 18, Type 1, BuildingBlock: CUKXOW_clean_sbu_0, # of connection points: 6
#     Node 19, Type 1, BuildingBlock: CUKXOW_clean_sbu_0, # of connection points: 6
#     Node 20, Type 1, BuildingBlock: CUKXOW_clean_sbu_0, # of connection points: 6
#     Node 21, Type 1, BuildingBlock: CUKXOW_clean_sbu_0, # of connection points: 6
#     Node 22, Type 1, BuildingBlock: CUKXOW_clean_sbu_0, # of connection points: 6
#     Node 23, Type 1, BuildingBlock: CUKXOW_clean_sbu_0, # of connection points: 6
#     Node 24, Type 1, BuildingBlock: CUKXOW_clean_sbu_0, # of connection points: 6
#     Node 25, Type 1, BuildingBlock: CUKXOW_clean_sbu_0, # of connection points: 6
#     Node 26, Type 1, BuildingBlock: CUKXOW_clean_sbu_0, # of connection points: 6
#     Edge 27, Type (0, 1), BuildingBlock: ZUJKAS_clean_linker_0, # of connection points: 2
#     Edge 28, Type (0, 1), BuildingBlock: ZUJKAS_clean_linker_0, # of connection points: 2
#     Edge 29, Type (0, 1), BuildingBlock: ZUJKAS_clean_linker_0, # of connection points: 2
#     Edge 30, Type (0, 1), BuildingBlock: ZUJKAS_clean_linker_0, # of connection points: 2
#     Edge 31, Type (0, 1), BuildingBlock: ZUJKAS_clean_linker_0, # of connection points: 2
#     Edge 32, Type (0, 1), BuildingBlock: ZUJKAS_clean_linker_0, # of connection points: 2
#     Edge 33, Type (0, 1), BuildingBlock: ZUJKAS_clean_linker_0, # of connection points: 2
#     Edge 34, Type (0, 1), BuildingBlock: ZUJKAS_clean_linker_0, # of connection points: 2
#     Edge 35, Type (0, 1), BuildingBlock: ZUJKAS_clean_linker_0, # of connection points: 2
#     Edge 36, Type (0, 1), BuildingBlock: ZUJKAS_clean_linker_0, # of connection points: 2
#     Edge 37, Type (0, 1), BuildingBlock: ZUJKAS_clean_linker_0, # of connection points: 2
#     Edge 38, Type (0, 1), BuildingBlock: ZUJKAS_clean_linker_0, # of connection points: 2
#     Edge 39, Type (0, 1), BuildingBlock: ZUJKAS_clean_linker_0, # of connection points: 2
#     Edge 40, Type (0, 1), BuildingBlock: ZUJKAS_clean_linker_0, # of connection points: 2
#     Edge 41, Type (0, 1), BuildingBlock: ZUJKAS_clean_linker_0, # of connection points: 2
#     Edge 42, Type (0, 1), BuildingBlock: ZUJKAS_clean_linker_0, # of connection points: 2
#     Edge 43, Type (0, 1), BuildingBlock: ZUJKAS_clean_linker_0, # of connection points: 2
#     Edge 44, Type (0, 1), BuildingBlock: ZUJKAS_clean_linker_0, # of connection points: 2
#     Edge 45, Type (0, 1), BuildingBlock: ZUJKAS_clean_linker_0, # of connection points: 2
#     Edge 46, Type (0, 1), BuildingBlock: ZUJKAS_clean_linker_0, # of connection points: 2
#     Edge 47, Type (0, 1), BuildingBlock: ZUJKAS_clean_linker_0, # of connection points: 2
#     Edge 48, Type (0, 1), BuildingBlock: ZUJKAS_clean_linker_0, # of connection points: 2
#     Edge 49, Type (0, 1), BuildingBlock: ZUJKAS_clean_linker_0, # of connection points: 2
#     Edge 50, Type (0, 1), BuildingBlock: ZUJKAS_clean_linker_0, # of connection points: 2
#     Edge 51, Type (0, 1), BuildingBlock: ZUJKAS_clean_linker_0, # of connection points: 2
#     Edge 52, Type (0, 1), BuildingBlock: ZUJKAS_clean_linker_0, # of connection points: 2
#     Edge 53, Type (0, 1), BuildingBlock: ZUJKAS_clean_linker_0, # of connection points: 2
#     Edge 54, Type (0, 1), BuildingBlock: ZUJKAS_clean_linker_0, # of connection points: 2
#     Edge 55, Type (0, 1), BuildingBlock: ZUJKAS_clean_linker_0, # of connection points: 2
#     Edge 56, Type (0, 1), BuildingBlock: ZUJKAS_clean_linker_0, # of connection points: 2
#     Edge 57, Type (0, 1), BuildingBlock: ZUJKAS_clean_linker_0, # of connection points: 2
#     Edge 58, Type (0, 1), BuildingBlock: ZUJKAS_clean_linker_0, # of connection points: 2
#     Edge 59, Type (0, 1), BuildingBlock: ZUJKAS_clean_linker_0, # of connection points: 2
#     Edge 60, Type (0, 1), BuildingBlock: ZUJKAS_clean_linker_0, # of connection points: 2
#     Edge 61, Type (0, 1), BuildingBlock: ZUJKAS_clean_linker_0, # of connection points: 2
#     Edge 62, Type (0, 1), BuildingBlock: ZUJKAS_clean_linker_0, # of connection points: 2
#     Edge 63, Type (0, 1), BuildingBlock: ZUJKAS_clean_linker_0, # of connection points: 2
#     Edge 64, Type (0, 1), BuildingBlock: ZUJKAS_clean_linker_0, # of connection points: 2
#     Edge 65, Type (0, 1), BuildingBlock: ZUJKAS_clean_linker_0, # of connection points: 2
#     Edge 66, Type (0, 1), BuildingBlock: ZUJKAS_clean_linker_0, # of connection points: 2
#     Edge 67, Type (0, 1), BuildingBlock: ZUJKAS_clean_linker_0, # of connection points: 2
#     Edge 68, Type (0, 1), BuildingBlock: ZUJKAS_clean_linker_0, # of connection points: 2
#     Edge 69, Type (0, 1), BuildingBlock: ZUJKAS_clean_linker_0, # of connection points: 2
#     Edge 70, Type (0, 1), BuildingBlock: ZUJKAS_clean_linker_0, # of connection points: 2
#     Edge 71, Type (0, 1), BuildingBlock: ZUJKAS_clean_linker_0, # of connection points: 2
#     Edge 72, Type (0, 1), BuildingBlock: ZUJKAS_clean_linker_0, # of connection points: 2
#     Edge 73, Type (0, 1), BuildingBlock: ZUJKAS_clean_linker_0, # of connection points: 2
#     Edge 74, Type (0, 1), BuildingBlock: ZUJKAS_clean_linker_0, # of connection points: 2
#     Edge 75, Type (0, 1), BuildingBlock: ZUJKAS_clean_linker_0, # of connection points: 2
#     Edge 76, Type (0, 1), BuildingBlock: ZUJKAS_clean_linker_0, # of connection points: 2
#     Edge 77, Type (0, 1), BuildingBlock: ZUJKAS_clean_linker_0, # of connection points: 2
#     Edge 78, Type (0, 1), BuildingBlock: ZUJKAS_clean_linker_0, # of connection points: 2
#     Edge 79, Type (0, 1), BuildingBlock: ZUJKAS_clean_linker_0, # of connection points: 2
#     Edge 80, Type (0, 1), BuildingBlock: ZUJKAS_clean_linker_0, # of connection points: 2
# Relax obj value: 0.017
# Max RMSD: 0.123
# Mean RMSD: 0.052
data_MOF--net-eea--node1-WUSLED_clean_sbu_0--node2-CUKXOW_clean_sbu_0--edge1-ZUJKAS_clean_linker_0
_symmetry_space_group_name_H-M    P1
_symmetry_Int_Tables_number       1
_symmetry_cell_setting            triclinic
loop_
_symmetry_equiv_pos_as_xyz
'x, y, z'
_cell_length_a     87.330505
_cell_length_b     84.682379
_cell_length_c     94.785247
_cell_angle_alpha  92.544245
_cell_angle_beta   92.779208
_cell_angle_gamma 119.89673
loop_
_atom_site_label
_atom_site_type_symbol
_atom_site_fract_x
_atom_site_fract_y
_atom_site_fract_z
_atom_type_partial_charge
C0 C 0.23563 0.15751 0.41399 0.0
C1 C 0.23287 0.16926 0.42308 0.0
C2 C 0.23016 0.18499 0.40293 0.0
C3 C 0.23015 0.18287 0.4176 0.0
C4 C 0.2333 0.17338 0.39396 0.0
C5 C 0.23598 0.1598 0.39944 0.0
U6 U 0.24828 0.13405 0.44275 0.0
O7 O 0.23481 0.10508 0.44714 0.0
O8 O 0.2619 0.11817 0.44047 0.0
C9 C 0.24793 0.10285 0.4433 0.0
C10 C 0.23767 0.14246 0.41926 0.0
C11 C 0.24321 0.08655 0.4337 0.0
C12 C 0.22294 0.06177 0.41639 0.0
C13 C 0.2275 0.07785 0.42469 0.0
C14 C 0.24992 0.06312 0.42569 0.0
C15 C 0.23405 0.05413 0.41685 0.0
C16 C 0.2544 0.0791 0.43402 0.0
C17 C 0.26652 0.15735 0.48033 0.0
C18 C 0.26716 0.1425 0.5016 0.0
C19 C 0.28563 0.17529 0.50128 0.0
C20 C 0.27909 0.17423 0.48728 0.0
C21 C 0.27968 0.15946 0.50869 0.0
C22 C 0.26069 0.14145 0.48755 0.0
C23 C 0.2596 0.15676 0.46565 0.0
O24 O 0.25402 0.14604 0.42214 0.0
O25 O 0.22689 0.13293 0.42871 0.0
O26 O 0.2428 0.14469 0.46229 0.0
O27 O 0.2699 0.15767 0.45569 0.0
H28 H 0.23258 0.16775 0.43437 0.0
H29 H 0.22763 0.19144 0.42481 0.0
H30 H 0.23375 0.1748 0.38267 0.0
H31 H 0.23818 0.15095 0.39226 0.0
H32 H 0.21073 0.05532 0.40958 0.0
H33 H 0.21865 0.08335 0.42418 0.0
H34 H 0.25868 0.05753 0.42646 0.0
H35 H 0.26654 0.08552 0.44094 0.0
H36 H 0.26212 0.13004 0.50696 0.0
H37 H 0.29549 0.18854 0.50624 0.0
H38 H 0.28385 0.18665 0.48188 0.0
H39 H 0.25103 0.12823 0.48238 0.0
C40 C 0.93103 0.15465 0.42129 0.0
C41 C 0.94618 0.16523 0.43066 0.0
C42 C 0.96297 0.1815 0.41106 0.0
C43 C 0.962 0.17853 0.42558 0.0
C44 C 0.94759 0.17113 0.40183 0.0
C45 C 0.93184 0.15786 0.4069 0.0
U46 U 0.89607 0.13154 0.44842 0.0
O47 O 0.86704 0.11525 0.44467 0.0
O48 O 0.88185 0.10261 0.45313 0.0
C49 C 0.8664 0.1001 0.4482 0.0
C50 C 0.91448 0.13968 0.42603 0.0
C51 C 0.85531 0.0834 0.43866 0.0
C52 C 0.83868 0.06797 0.41611 0.0
C53 C 0.85012 0.08411 0.42453 0.0
C54 C 0.83776 0.0502 0.4357 0.0
C55 C 0.83228 0.05081 0.42163 0.0
C56 C 0.8491 0.0663 0.44411 0.0
C57 C 0.90095 0.15495 0.48534 0.0
C58 C 0.87731 0.14645 0.50111 0.0
C59 C 0.90784 0.16643 0.51015 0.0
C60 C 0.91337 0.16539 0.4967 0.0
C61 C 0.88972 0.15708 0.51254 0.0
C62 C 0.88287 0.14535 0.48765 0.0
C63 C 0.90716 0.15444 0.47119 0.0
O64 O 0.91621 0.13034 0.43609 0.0
O65 O 0.90158 0.14319 0.42766 0.0
O66 O 0.89757 0.15518 0.46039 0.0
O67 O 0.91227 0.14243 0.46882 0.0
H68 H 0.94587 0.16302 0.44183 0.0
H69 H 0.97358 0.18614 0.43299 0.0
H70 H 0.94769 0.17326 0.39065 0.0
H71 H 0.9203 0.1499 0.3995 0.0
H72 H 0.83487 0.06892 0.40528 0.0
H73 H 0.85475 0.09711 0.42002 0.0
H74 H 0.83293 0.03727 0.44037 0.0
H75 H 0.8528 0.0654 0.45499 0.0
H76 H 0.86325 0.13921 0.50247 0.0
H77 H 0.91782 0.17447 0.51872 0.0
H78 H 0.92739 0.1728 0.49516 0.0
H79 H 0.87304 0.13715 0.47903 0.0
C80 C 0.875 0.783 0.42553 0.0
C81 C 0.86333 0.78357 0.43496 0.0
C82 C 0.84741 0.78906 0.41568 0.0
C83 C 0.84968 0.7866 0.43008 0.0
C84 C 0.85901 0.78817 0.40629 0.0
C85 C 0.87266 0.78521 0.41118 0.0
U86 U 0.89782 0.76714 0.45234 0.0
O87 O 0.91276 0.75295 0.44871 0.0
O88 O 0.926 0.78019 0.46005 0.0
C89 C 0.9278 0.76685 0.45431 0.0
C90 C 0.88977 0.78035 0.43044 0.0
C91 C 0.94318 0.77242 0.44588 0.0
C92 C 0.95706 0.78043 0.42366 0.0
C93 C 0.94241 0.77572 0.43155 0.0
C94 C 0.97344 0.77889 0.4444 0.0
C95 C 0.97273 0.78194 0.42996 0.0
C96 C 0.95881 0.77416 0.45225 0.0
C97 C 0.87468 0.74565 0.48567 0.0
C98 C 0.88842 0.74262 0.50757 0.0
C99 C 0.8565 0.72533 0.50285 0.0
C100 C 0.85801 0.73304 0.48989 0.0
C101 C 0.87166 0.73012 0.51192 0.0
C102 C 0.88992 0.75027 0.49453 0.0
C103 C 0.87571 0.75406 0.4722 0.0
O104 O 0.89942 0.7905 0.44186 0.0
O105 O 0.88612 0.7633 0.43045 0.0
O106 O 0.87468 0.74422 0.46069 0.0
O107 O 0.88776 0.77143 0.47211 0.0
H108 H 0.86489 0.78184 0.44609 0.0
H109 H 0.84112 0.78736 0.43765 0.0
H110 H 0.85748 0.78964 0.3951 0.0
H111 H 0.88147 0.78469 0.40373 0.0
H112 H 0.95597 0.78252 0.41255 0.0
H113 H 0.93044 0.77447 0.42645 0.0
H114 H 0.98536 0.78025 0.44969 0.0
H115 H 0.95968 0.77176 0.46332 0.0
H116 H 0.90037 0.74645 0.51422 0.0
H117 H 0.84339 0.71595 0.50593 0.0
H118 H 0.84609 0.72932 0.48321 0.0
H119 H 0.90295 0.75989 0.49144 0.0
C120 C 0.08562 0.23146 0.58975 0.0
C121 C 0.08022 0.24441 0.5881 0.0
C122 C 0.05348 0.22572 0.60003 0.0
C123 C 0.06431 0.24158 0.59322 0.0
C124 C 0.05882 0.21264 0.60135 0.0
C125 C 0.07472 0.21552 0.5963 0.0
U126 U 0.12277 0.24781 0.56411 0.0
O127 O 0.15163 0.26155 0.56886 0.0
O128 O 0.13761 0.23439 0.55737 0.0
C129 C 0.15265 0.24744 0.56374 0.0
C130 C 0.1027 0.23435 0.58518 0.0
C131 C 0.16296 0.24148 0.57267 0.0
C132 C 0.17995 0.24379 0.59461 0.0
C133 C 0.16919 0.24872 0.58676 0.0
C134 C 0.17809 0.22397 0.5746 0.0
C135 C 0.18464 0.23146 0.58859 0.0
C136 C 0.16744 0.22899 0.56672 0.0
C137 C 0.12012 0.2698 0.53016 0.0
C138 C 0.13435 0.27094 0.50846 0.0
C139 C 0.12408 0.29226 0.51342 0.0
C140 C 0.11809 0.28445 0.52616 0.0
C141 C 0.13214 0.2855 0.50435 0.0
C142 C 0.12847 0.26322 0.52128 0.0
C143 C 0.11307 0.26141 0.54343 0.0
O144 O 0.10177 0.22431 0.57383 0.0
O145 O 0.11574 0.25136 0.58552 0.0
O146 O 0.12199 0.27106 0.55524 0.0
O147 O 0.10779 0.24393 0.5437 0.0
H148 H 0.08839 0.25682 0.58304 0.0
H149 H 0.06072 0.25202 0.59211 0.0
H150 H 0.05069 0.20011 0.60626 0.0
H151 H 0.07858 0.2053 0.59761 0.0
H152 H 0.18461 0.24964 0.60542 0.0
H153 H 0.16595 0.25835 0.59169 0.0
H154 H 0.18161 0.2146 0.56959 0.0
H155 H 0.16294 0.22333 0.55586 0.0
H156 H 0.1407 0.26557 0.5018 0.0
H157 H 0.12203 0.30333 0.5105 0.0
H158 H 0.11168 0.28973 0.53285 0.0
H159 H 0.13034 0.25203 0.52417 0.0
C160 C 0.78575 0.8586 0.60483 0.0
C161 C 0.78765 0.84631 0.59565 0.0
C162 C 0.79135 0.83117 0.61584 0.0
C163 C 0.79043 0.83272 0.60111 0.0
C164 C 0.7891 0.84336 0.62491 0.0
C165 C 0.78636 0.85692 0.61945 0.0
U166 U 0.77251 0.88139 0.57596 0.0
O167 O 0.75865 0.89705 0.57813 0.0
O168 O 0.78565 0.91023 0.57125 0.0
C169 C 0.77247 0.91236 0.57509 0.0
C170 C 0.78352 0.87352 0.59953 0.0
C171 C 0.7772 0.92876 0.58456 0.0
C172 C 0.79703 0.95307 0.60235 0.0
C173 C 0.79237 0.93688 0.59417 0.0
C174 C 0.7712 0.95297 0.59174 0.0
C175 C 0.78656 0.96139 0.60117 0.0
C176 C 0.76661 0.93687 0.58353 0.0
C177 C 0.75417 0.85741 0.53865 0.0
C178 C 0.74904 0.87183 0.51873 0.0
C179 C 0.73886 0.83942 0.51655 0.0
C180 C 0.74566 0.84064 0.53048 0.0
C181 C 0.74046 0.85499 0.51047 0.0
C182 C 0.75579 0.87302 0.53271 0.0
C183 C 0.76124 0.85828 0.55329 0.0
O184 O 0.79415 0.88298 0.58997 0.0
O185 O 0.76711 0.86975 0.59671 0.0
O186 O 0.75099 0.85746 0.56326 0.0
O187 O 0.77799 0.87064 0.55647 0.0
H188 H 0.78718 0.84735 0.58431 0.0
H189 H 0.79224 0.8237 0.59381 0.0
H190 H 0.78938 0.8424 0.63626 0.0
H191 H 0.78483 0.8662 0.6267 0.0
H192 H 0.80883 0.95907 0.60963 0.0
H193 H 0.80072 0.93084 0.59523 0.0
H194 H 0.76294 0.95908 0.59041 0.0
H195 H 0.75489 0.93088 0.57615 0.0
H196 H 0.75032 0.88404 0.51445 0.0
H197 H 0.73255 0.82629 0.51047 0.0
H198 H 0.74431 0.82845 0.53488 0.0
H199 H 0.76225 0.88609 0.53888 0.0
C200 C 0.09071 0.86157 0.59699 0.0
C201 C 0.0755 0.85088 0.58771 0.0
C202 C 0.05885 0.83488 0.60746 0.0
C203 C 0.05972 0.83767 0.5929 0.0
C204 C 0.07429 0.84538 0.61661 0.0
C205 C 0.08999 0.85857 0.61143 0.0
U206 U 0.1252 0.88393 0.56946 0.0
O207 O 0.13969 0.91274 0.56448 0.0
O208 O 0.15428 0.89985 0.57287 0.0
C209 C 0.15516 0.91498 0.56901 0.0
C210 C 0.10724 0.87639 0.5921 0.0
C211 C 0.16682 0.9317 0.57823 0.0
C212 C 0.17645 0.94902 0.60125 0.0
C213 C 0.16474 0.93302 0.59275 0.0
C214 C 0.19223 0.96248 0.58075 0.0
C215 C 0.19044 0.96391 0.59536 0.0
C216 C 0.18056 0.94655 0.57231 0.0
C217 C 0.11969 0.85978 0.53277 0.0
C218 C 0.13466 0.87444 0.51212 0.0
C219 C 0.12098 0.84164 0.51271 0.0
C220 C 0.11562 0.84282 0.52621 0.0
C221 C 0.1305 0.85741 0.50542 0.0
C222 C 0.12937 0.87562 0.52566 0.0
C223 C 0.11365 0.86057 0.54695 0.0
O224 O 0.12001 0.87269 0.59038 0.0
O225 O 0.10547 0.88565 0.582 0.0
O226 O 0.10862 0.87265 0.54934 0.0
O227 O 0.12338 0.85993 0.55769 0.0
H228 H 0.07573 0.85292 0.57651 0.0
H229 H 0.0481 0.82997 0.58555 0.0
H230 H 0.07426 0.84341 0.62782 0.0
H231 H 0.10158 0.86661 0.61877 0.0
H232 H 0.17473 0.9496 0.61247 0.0
H233 H 0.15418 0.92167 0.59752 0.0
H234 H 0.2026 0.97375 0.57578 0.0
H235 H 0.18233 0.94581 0.56111 0.0
H236 H 0.14179 0.88687 0.50681 0.0
H237 H 0.1178 0.82833 0.50807 0.0
H238 H 0.10826 0.83045 0.53155 0.0
H239 H 0.13274 0.88889 0.53054 0.0
C240 C 0.89629 0.48746 0.74802 0.0
C241 C 0.90678 0.50565 0.75372 0.0
C242 C 0.89104 0.51527 0.73738 0.0
C243 C 0.90421 0.51944 0.74841 0.0
C244 C 0.88051 0.49698 0.73184 0.0
C245 C 0.88313 0.48326 0.7371 0.0
U246 U 0.9105 0.46466 0.77622 0.0
O247 O 0.8978 0.43573 0.78061 0.0
O248 O 0.92471 0.44941 0.77358 0.0
C249 C 0.91104 0.43391 0.77651 0.0
C250 C 0.89899 0.47267 0.75298 0.0
C251 C 0.90639 0.41771 0.76681 0.0
C252 C 0.88611 0.39301 0.74945 0.0
C253 C 0.89069 0.40907 0.75779 0.0
C254 C 0.91307 0.39429 0.75869 0.0
C255 C 0.89718 0.38534 0.74988 0.0
C256 C 0.91758 0.41025 0.76708 0.0
C257 C 0.92833 0.48797 0.81385 0.0
C258 C 0.94353 0.47926 0.83134 0.0
C259 C 0.93362 0.50031 0.83839 0.0
C260 C 0.9268 0.49905 0.82446 0.0
C261 C 0.94218 0.49052 0.84203 0.0
C262 C 0.93664 0.47797 0.81739 0.0
C263 C 0.92129 0.48721 0.7992 0.0
O264 O 0.91551 0.4767 0.75567 0.0
O265 O 0.88848 0.46282 0.76246 0.0
O266 O 0.90464 0.47465 0.79595 0.0
O267 O 0.93166 0.48852 0.78917 0.0
H268 H 0.91697 0.50919 0.76221 0.0
H269 H 0.91242 0.53333 0.75303 0.0
H270 H 0.87041 0.49329 0.72324 0.0
H271 H 0.87494 0.46933 0.73252 0.0
H272 H 0.87389 0.3866 0.74265 0.0
H273 H 0.88186 0.41459 0.75731 0.0
H274 H 0.9218 0.38867 0.75943 0.0
H275 H 0.92971 0.41663 0.77399 0.0
H276 H 0.95019 0.47167 0.83368 0.0
H277 H 0.93202 0.50885 0.84634 0.0
H278 H 0.92033 0.50679 0.82195 0.0
H279 H 0.93793 0.46929 0.80935 0.0
C280 C 0.59734 0.48781 0.75473 0.0
C281 C 0.61128 0.49997 0.7646 0.0
C282 C 0.62952 0.51538 0.74538 0.0
C283 C 0.62725 0.51361 0.75997 0.0
C284 C 0.61539 0.50322 0.7356 0.0
C285 C 0.59951 0.4896 0.74023 0.0
U286 U 0.56179 0.46469 0.78136 0.0
O287 O 0.5327 0.44925 0.77716 0.0
O288 O 0.54665 0.4357 0.78558 0.0
C289 C 0.53148 0.43379 0.78051 0.0
C290 C 0.58056 0.4729 0.75917 0.0
C291 C 0.52013 0.41759 0.77058 0.0
C292 C 0.51586 0.39277 0.75384 0.0
C293 C 0.52715 0.40878 0.76245 0.0
C294 C 0.49046 0.39443 0.76106 0.0
C295 C 0.49735 0.38532 0.75312 0.0
C296 C 0.50172 0.41034 0.7697 0.0
C297 C 0.56653 0.48794 0.81841 0.0
C298 C 0.55151 0.4732 0.83903 0.0
C299 C 0.56519 0.50601 0.8385 0.0
C300 C 0.57056 0.50487 0.825 0.0
C301 C 0.5557 0.49021 0.84577 0.0
C302 C 0.55683 0.47207 0.82548 0.0
C303 C 0.57282 0.48729 0.80431 0.0
O304 O 0.58193 0.46327 0.76916 0.0
O305 O 0.56788 0.47674 0.76079 0.0
O306 O 0.56353 0.48845 0.79349 0.0
O307 O 0.57762 0.47503 0.80186 0.0
H308 H 0.60985 0.49887 0.77586 0.0
H309 H 0.63776 0.52285 0.7678 0.0
H310 H 0.61671 0.50396 0.72431 0.0
H311 H 0.58893 0.48031 0.73245 0.0
H312 H 0.52162 0.38622 0.74774 0.0
H313 H 0.54132 0.41412 0.76287 0.0
H314 H 0.47629 0.38899 0.76091 0.0
H315 H 0.49601 0.41685 0.77592 0.0
H316 H 0.5444 0.46076 0.84433 0.0
H317 H 0.56837 0.5193 0.84317 0.0
H318 H 0.57794 0.51727 0.8197 0.0
H319 H 0.5535 0.45882 0.82059 0.0
C320 C 0.54053 0.1163 0.76099 0.0
C321 C 0.52801 0.11528 0.7702 0.0
C322 C 0.51229 0.12128 0.75108 0.0
C323 C 0.51402 0.11779 0.76529 0.0
C324 C 0.52491 0.12223 0.74194 0.0
C325 C 0.53886 0.11977 0.74686 0.0
U326 U 0.56527 0.10305 0.78838 0.0
O327 O 0.57944 0.08794 0.78481 0.0
O328 O 0.59383 0.11613 0.79445 0.0
C329 C 0.59495 0.10219 0.78907 0.0
C330 C 0.55542 0.11383 0.76584 0.0
C331 C 0.6092 0.10655 0.77954 0.0
C332 C 0.62824 0.12492 0.76183 0.0
C333 C 0.61429 0.12067 0.77042 0.0
C334 C 0.63191 0.10071 0.77109 0.0
C335 C 0.63726 0.11502 0.76209 0.0
C336 C 0.61806 0.09656 0.77974 0.0
C337 C 0.5453 0.08667 0.82409 0.0
C338 C 0.54865 0.06657 0.84001 0.0
C339 C 0.53758 0.08611 0.84844 0.0
C340 C 0.53917 0.09302 0.83514 0.0
C341 C 0.542 0.07256 0.85101 0.0
C342 C 0.55029 0.07356 0.82667 0.0
C343 C 0.54545 0.0933 0.80991 0.0
O344 O 0.56601 0.12512 0.77647 0.0
O345 O 0.55154 0.09685 0.76704 0.0
O346 O 0.54311 0.08201 0.79895 0.0
O347 O 0.55763 0.11029 0.80844 0.0
H348 H 0.52905 0.11253 0.78116 0.0
H349 H 0.50445 0.11679 0.77258 0.0
H350 H 0.52417 0.12517 0.731 0.0
H351 H 0.54843 0.12064 0.73961 0.0
H352 H 0.63189 0.13587 0.7549 0.0
H353 H 0.60754 0.12848 0.76999 0.0
H354 H 0.63868 0.09294 0.77167 0.0
H355 H 0.61435 0.08562 0.7867 0.0
H356 H 0.55207 0.05608 0.84155 0.0
H357 H 0.53276 0.09132 0.85671 0.0
H358 H 0.53532 0.10318 0.83341 0.0
H359 H 0.55511 0.06846 0.81833 0.0
C360 C 0.75511 0.56791 0.92471 0.0
C361 C 0.74127 0.56627 0.91544 0.0
C362 C 0.72296 0.56169 0.93525 0.0
C363 C 0.72532 0.56317 0.92067 0.0
C364 C 0.73705 0.56367 0.94447 0.0
C365 C 0.75292 0.56671 0.93924 0.0
U366 U 0.79023 0.58306 0.89748 0.0
O367 O 0.81932 0.59732 0.90126 0.0
O368 O 0.805 0.5699 0.89019 0.0
C369 C 0.8203 0.58331 0.89588 0.0
C370 C 0.7718 0.57052 0.91954 0.0
C371 C 0.83135 0.57801 0.90442 0.0
C372 C 0.83477 0.55857 0.92094 0.0
C373 C 0.82394 0.56363 0.91332 0.0
C374 C 0.86054 0.58244 0.91106 0.0
C375 C 0.85322 0.56783 0.91982 0.0
C376 C 0.84971 0.58742 0.90343 0.0
C377 C 0.7854 0.60367 0.8635 0.0
C378 C 0.80023 0.60533 0.84206 0.0
C379 C 0.78763 0.62479 0.84606 0.0
C380 C 0.78199 0.61723 0.85894 0.0
C381 C 0.79673 0.61886 0.83741 0.0
C382 C 0.7947 0.59787 0.85501 0.0
C383 C 0.77906 0.59573 0.87704 0.0
O384 O 0.77027 0.56008 0.90825 0.0
O385 O 0.78457 0.58754 0.91923 0.0
O386 O 0.78854 0.6058 0.88854 0.0
O387 O 0.77401 0.57833 0.87757 0.0
H388 H 0.74272 0.5672 0.90418 0.0
H389 H 0.71474 0.56158 0.91324 0.0
H390 H 0.73588 0.56297 0.95578 0.0
H391 H 0.76349 0.56805 0.94657 0.0
H392 H 0.82864 0.54717 0.92748 0.0
H393 H 0.80978 0.55622 0.91428 0.0
H394 H 0.87469 0.59013 0.91014 0.0
H395 H 0.8557 0.59863 0.89669 0.0
H396 H 0.80741 0.60063 0.83574 0.0
H397 H 0.78457 0.63505 0.84273 0.0
H398 H 0.77485 0.6219 0.86534 0.0
H399 H 0.79765 0.58754 0.85836 0.0
C400 C 0.45558 0.19383 0.93607 0.0
C401 C 0.45241 0.1789 0.92685 0.0
C402 C 0.46118 0.16596 0.94604 0.0
C403 C 0.45518 0.16507 0.93179 0.0
C404 C 0.46416 0.18094 0.95522 0.0
C405 C 0.4614 0.19471 0.95027 0.0
U406 U 0.44104 0.21623 0.90794 0.0
O407 O 0.42695 0.23159 0.9106 0.0
O408 O 0.45366 0.24503 0.90316 0.0
C409 C 0.44053 0.24698 0.90738 0.0
C410 C 0.453 0.20868 0.93118 0.0
C411 C 0.44538 0.26333 0.91696 0.0
C412 C 0.4656 0.28774 0.93452 0.0
C413 C 0.46088 0.27163 0.9262 0.0
C414 C 0.43917 0.28717 0.92478 0.0
C415 C 0.45485 0.29578 0.93385 0.0
C416 C 0.43453 0.27116 0.91642 0.0
C417 C 0.42192 0.19199 0.87079 0.0
C418 C 0.41694 0.20629 0.85072 0.0
C419 C 0.40561 0.17365 0.84906 0.0
C420 C 0.41268 0.17502 0.86292 0.0
C421 C 0.40768 0.18926 0.84275 0.0
C422 C 0.42395 0.20764 0.86463 0.0
C423 C 0.4294 0.19304 0.88531 0.0
O424 O 0.46324 0.2182 0.92144 0.0
O425 O 0.43647 0.20469 0.92871 0.0
O426 O 0.41937 0.19212 0.8955 0.0
O427 O 0.44615 0.20556 0.88823 0.0
H428 H 0.44791 0.178 0.91583 0.0
H429 H 0.4529 0.15384 0.9244 0.0
H430 H 0.46848 0.18195 0.96629 0.0
H431 H 0.46383 0.20609 0.95756 0.0
H432 H 0.47765 0.29389 0.94151 0.0
H433 H 0.46944 0.2658 0.92688 0.0
H434 H 0.43069 0.29308 0.92386 0.0
H435 H 0.42255 0.26503 0.90934 0.0
H436 H 0.41859 0.21855 0.84626 0.0
H437 H 0.39877 0.16037 0.84319 0.0
H438 H 0.411 0.1628 0.86749 0.0
H439 H 0.43097 0.22087 0.87057 0.0
C440 C 0.75358 0.19274 0.92702 0.0
C441 C 0.73767 0.18686 0.91863 0.0
C442 C 0.72087 0.16558 0.93597 0.0
C443 C 0.72148 0.17346 0.92309 0.0
C444 C 0.73686 0.17128 0.94419 0.0
C445 C 0.753 0.18474 0.93978 0.0
U446 U 0.79031 0.21631 0.90141 0.0
O447 O 0.80622 0.24537 0.89764 0.0
O448 O 0.81933 0.231 0.90609 0.0
C449 C 0.82108 0.24675 0.90294 0.0
C450 C 0.77079 0.2077 0.92313 0.0
C451 C 0.83253 0.2627 0.91311 0.0
C452 C 0.83826 0.29 0.92743 0.0
C453 C 0.82659 0.27408 0.9189 0.0
C454 C 0.86184 0.28316 0.92489 0.0
C455 C 0.85612 0.2949 0.93038 0.0
C456 C 0.8502 0.26731 0.91632 0.0
C457 C 0.78591 0.19414 0.86416 0.0
C458 C 0.80867 0.2076 0.8476 0.0
C459 C 0.78157 0.17912 0.84067 0.0
C460 C 0.77549 0.17966 0.85397 0.0
C461 C 0.79824 0.19308 0.83729 0.0
C462 C 0.80254 0.20813 0.86091 0.0
C463 C 0.77921 0.19435 0.87809 0.0
O464 O 0.78335 0.20362 0.92168 0.0
O465 O 0.77028 0.21814 0.91347 0.0
O466 O 0.77494 0.20699 0.88065 0.0
O467 O 0.78807 0.1926 0.88893 0.0
H468 H 0.73768 0.19273 0.90871 0.0
H469 H 0.70944 0.16924 0.91644 0.0
H470 H 0.73688 0.16568 0.95425 0.0
H471 H 0.76505 0.18912 0.94649 0.0
H472 H 0.83341 0.29877 0.93134 0.0
H473 H 0.81305 0.27093 0.9166 0.0
H474 H 0.87538 0.28628 0.92712 0.0
H475 H 0.85512 0.25879 0.91198 0.0
H476 H 0.82147 0.21868 0.84532 0.0
H477 H 0.7733 0.1676 0.83311 0.0
H478 H 0.76263 0.16871 0.85631 0.0
H479 H 0.81076 0.21945 0.86866 0.0
C480 C 0.5639 0.82175 0.08393 0.0
C481 C 0.55884 0.83154 0.0931 0.0
C482 C 0.55914 0.85023 0.0741 0.0
C483 C 0.55642 0.84559 0.08821 0.0
C484 C 0.56456 0.84062 0.06507 0.0
C485 C 0.56686 0.82651 0.06994 0.0
U486 U 0.57672 0.7973 0.11145 0.0
O487 O 0.56259 0.76832 0.11608 0.0
O488 O 0.58927 0.78052 0.10863 0.0
C489 C 0.5752 0.76551 0.11182 0.0
C490 C 0.56557 0.80617 0.08851 0.0
C491 C 0.5694 0.74884 0.10233 0.0
C492 C 0.56876 0.73354 0.07973 0.0
C493 C 0.57352 0.74962 0.08813 0.0
C494 C 0.55536 0.7157 0.09949 0.0
C495 C 0.55971 0.71638 0.08534 0.0
C496 C 0.56019 0.73174 0.10787 0.0
C497 C 0.59684 0.8211 0.14872 0.0
C498 C 0.59758 0.80677 0.17025 0.0
C499 C 0.61695 0.83931 0.16914 0.0
C500 C 0.61005 0.83798 0.15523 0.0
C501 C 0.61072 0.82376 0.17691 0.0
C502 C 0.59074 0.80545 0.15629 0.0
C503 C 0.58945 0.82032 0.13418 0.0
O504 O 0.5818 0.80914 0.09075 0.0
O505 O 0.55507 0.79663 0.09812 0.0
O506 O 0.57247 0.80857 0.13126 0.0
O507 O 0.5992 0.82066 0.12393 0.0
H508 H 0.55659 0.82823 0.10399 0.0
H509 H 0.55246 0.85287 0.0955 0.0
H510 H 0.56659 0.84368 0.05412 0.0
H511 H 0.57073 0.81912 0.06268 0.0
H512 H 0.57214 0.73455 0.06884 0.0
H513 H 0.58056 0.76263 0.08356 0.0
H514 H 0.54862 0.70277 0.10422 0.0
H515 H 0.55696 0.73081 0.11881 0.0
H516 H 0.59233 0.79453 0.17591 0.0
H517 H 0.62728 0.85255 0.17376 0.0
H518 H 0.61501 0.8502 0.14955 0.0
H519 H 0.58057 0.79224 0.15147 0.0
C520 C 0.26267 0.81623 0.08976 0.0
C521 C 0.27539 0.83038 0.09933 0.0
C522 C 0.2954 0.84281 0.08051 0.0
C523 C 0.29162 0.84357 0.09474 0.0
C524 C 0.28245 0.82865 0.071 0.0
C525 C 0.2663 0.81552 0.07559 0.0
U526 U 0.227 0.79508 0.11647 0.0
O527 O 0.19792 0.78071 0.11235 0.0
O528 O 0.21089 0.76633 0.12104 0.0
C529 C 0.19601 0.76504 0.1159 0.0
C530 C 0.24559 0.80198 0.09422 0.0
C531 C 0.18433 0.74889 0.10607 0.0
C532 C 0.17956 0.72428 0.0889 0.0
C533 C 0.19109 0.74024 0.09746 0.0
C534 C 0.15443 0.72571 0.09712 0.0
C535 C 0.16108 0.71675 0.08871 0.0
C536 C 0.16594 0.74157 0.10572 0.0
C537 C 0.23268 0.81871 0.15329 0.0
C538 C 0.2094 0.80745 0.16955 0.0
C539 C 0.23851 0.83294 0.17726 0.0
C540 C 0.24427 0.83193 0.1639 0.0
C541 C 0.221 0.82073 0.18027 0.0
C542 C 0.2152 0.80643 0.15619 0.0
C543 C 0.23904 0.81793 0.1393 0.0
O544 O 0.24645 0.79223 0.10432 0.0
O545 O 0.23352 0.80671 0.09581 0.0
O546 O 0.23007 0.81948 0.12844 0.0
O547 O 0.24301 0.80502 0.13696 0.0
H548 H 0.2728 0.83115 0.11033 0.0
H549 H 0.30131 0.85417 0.10238 0.0
H550 H 0.28471 0.82779 0.05993 0.0
H551 H 0.2566 0.80476 0.06803 0.0
H552 H 0.18512 0.71785 0.08242 0.0
H553 H 0.20525 0.74568 0.09746 0.0
H554 H 0.14029 0.72019 0.09737 0.0
H555 H 0.16044 0.74799 0.11231 0.0
H556 H 0.1959 0.7977 0.17155 0.0
H557 H 0.24773 0.84349 0.18517 0.0
H558 H 0.2578 0.84154 0.16185 0.0
H559 H 0.20607 0.79605 0.14813 0.0
C560 C 0.20439 0.44555 0.09113 0.0
C561 C 0.19753 0.45344 0.10041 0.0
C562 C 0.17677 0.4516 0.08136 0.0
C563 C 0.18391 0.45651 0.09554 0.0
C564 C 0.18349 0.44344 0.07218 0.0
C565 C 0.19719 0.44051 0.07702 0.0
U566 U 0.22823 0.42994 0.11738 0.0
O567 O 0.24258 0.41521 0.11305 0.0
O568 O 0.25655 0.44254 0.12428 0.0
C569 C 0.25792 0.4291 0.11815 0.0
C570 C 0.21926 0.44281 0.09575 0.0
C571 C 0.27282 0.43426 0.10915 0.0
C572 C 0.29585 0.45602 0.09532 0.0
C573 C 0.28132 0.45129 0.10334 0.0
C574 C 0.29335 0.42664 0.0985 0.0
C575 C 0.30215 0.4438 0.09287 0.0
C576 C 0.27891 0.42198 0.10658 0.0
C577 C 0.20649 0.40938 0.15148 0.0
C578 C 0.22076 0.40705 0.17337 0.0
C579 C 0.18883 0.38918 0.16893 0.0
C580 C 0.18999 0.39661 0.15588 0.0
C581 C 0.20417 0.39442 0.17791 0.0
C582 C 0.22192 0.41441 0.16025 0.0
C583 C 0.20711 0.41756 0.13795 0.0
O584 O 0.22961 0.45318 0.10685 0.0
O585 O 0.21553 0.42573 0.09581 0.0
O586 O 0.20543 0.40743 0.12643 0.0
O587 O 0.21927 0.43484 0.13754 0.0
H588 H 0.20275 0.45734 0.11139 0.0
H589 H 0.17889 0.46264 0.10291 0.0
H590 H 0.17842 0.43968 0.06116 0.0
H591 H 0.2023 0.43445 0.06967 0.0
H592 H 0.30237 0.46942 0.0913 0.0
H593 H 0.27687 0.46103 0.10512 0.0
H594 H 0.29755 0.41672 0.09662 0.0
H595 H 0.27253 0.40874 0.11089 0.0
H596 H 0.23284 0.41122 0.17996 0.0
H597 H 0.17584 0.37969 0.17216 0.0
H598 H 0.17794 0.39257 0.14929 0.0
H599 H 0.23482 0.42417 0.15702 0.0
C600 C 0.42187 0.89908 0.25745 0.0
C601 C 0.40835 0.89854 0.24843 0.0
C602 C 0.38996 0.89315 0.2683 0.0
C603 C 0.39252 0.8956 0.25381 0.0
C604 C 0.40372 0.894 0.27726 0.0
C605 C 0.41947 0.89691 0.27189 0.0
U606 U 0.45645 0.91288 0.2297 0.0
O607 O 0.48558 0.92749 0.2333 0.0
O608 O 0.47136 0.89953 0.22319 0.0
C609 C 0.48665 0.91328 0.22856 0.0
C610 C 0.43846 0.90159 0.25214 0.0
C611 C 0.49792 0.90865 0.23753 0.0
C612 C 0.50174 0.88982 0.25444 0.0
C613 C 0.49068 0.89429 0.24647 0.0
C614 C 0.52738 0.91427 0.24488 0.0
C615 C 0.52025 0.89967 0.25366 0.0
C616 C 0.51633 0.91865 0.23689 0.0
C617 C 0.451 0.93122 0.1947 0.0
C618 C 0.46731 0.93316 0.17412 0.0
C619 C 0.45146 0.94978 0.1757 0.0
C620 C 0.44594 0.94299 0.18883 0.0
C621 C 0.46215 0.94489 0.16811 0.0
C622 C 0.46184 0.92644 0.18731 0.0
C623 C 0.44483 0.92411 0.2085 0.0
O624 O 0.43676 0.89058 0.24119 0.0
O625 O 0.45102 0.91857 0.25123 0.0
O626 O 0.45438 0.93485 0.21973 0.0
O627 O 0.44001 0.90686 0.2097 0.0
H628 H 0.40997 0.90021 0.23724 0.0
H629 H 0.38217 0.8949 0.24658 0.0
H630 H 0.40239 0.89254 0.2885 0.0
H631 H 0.42979 0.89739 0.27903 0.0
H632 H 0.49574 0.8784 0.26098 0.0
H633 H 0.47648 0.8864 0.24717 0.0
H634 H 0.54156 0.92241 0.24422 0.0
H635 H 0.52219 0.92986 0.23013 0.0
H636 H 0.47535 0.92891 0.16856 0.0
H637 H 0.4475 0.95904 0.17157 0.0
H638 H 0.43768 0.94694 0.19442 0.0
H639 H 0.46598 0.91743 0.19168 0.0
C640 C 0.11833 0.52369 0.26955 0.0
C641 C 0.12817 0.51736 0.26234 0.0
C642 C 0.12358 0.49585 0.28025 0.0
C643 C 0.1308 0.50362 0.26766 0.0
C644 C 0.11342 0.50196 0.28724 0.0
C645 C 0.11089 0.51575 0.28198 0.0
U646 U 0.10653 0.54916 0.24192 0.0
O647 O 0.09287 0.56494 0.24483 0.0
O648 O 0.12014 0.57843 0.23854 0.0
C649 C 0.10692 0.58044 0.24243 0.0
C650 C 0.11644 0.53917 0.2649 0.0
C651 C 0.11151 0.59639 0.25241 0.0
C652 C 0.13167 0.62061 0.27014 0.0
C653 C 0.12695 0.60456 0.26172 0.0
C654 C 0.10533 0.62022 0.26041 0.0
C655 C 0.12102 0.62876 0.26947 0.0
C656 C 0.10068 0.60425 0.25196 0.0
C657 C 0.08973 0.528 0.20351 0.0
C658 C 0.08926 0.52073 0.1783 0.0
C659 C 0.0709 0.5327 0.18641 0.0
C660 C 0.07741 0.5337 0.20044 0.0
C661 C 0.07663 0.52604 0.17515 0.0
C662 C 0.09568 0.52166 0.19231 0.0
C663 C 0.09614 0.52791 0.21824 0.0
O664 O 0.12757 0.5496 0.25597 0.0
O665 O 0.10017 0.5358 0.26197 0.0
O666 O 0.08549 0.52623 0.22814 0.0
O667 O 0.11283 0.53994 0.22202 0.0
H668 H 0.13404 0.52316 0.2527 0.0
H669 H 0.13851 0.49909 0.2619 0.0
H670 H 0.10784 0.49647 0.29704 0.0
H671 H 0.10335 0.52047 0.28779 0.0
H672 H 0.14372 0.62669 0.27713 0.0
H673 H 0.13552 0.59873 0.26233 0.0
H674 H 0.09692 0.6262 0.25948 0.0
H675 H 0.08876 0.59825 0.24481 0.0
H676 H 0.09425 0.51587 0.16993 0.0
H677 H 0.06108 0.53674 0.18444 0.0
H678 H 0.07261 0.53869 0.20888 0.0
H679 H 0.10524 0.51727 0.19441 0.0
C680 C 0.4246 0.52767 0.26336 0.0
C681 C 0.40934 0.51745 0.25404 0.0
C682 C 0.39244 0.50135 0.27365 0.0
C683 C 0.3934 0.5044 0.25914 0.0
C684 C 0.40792 0.51135 0.28283 0.0
C685 C 0.42377 0.52436 0.27774 0.0
U686 U 0.45991 0.55059 0.23633 0.0
O687 O 0.47518 0.57961 0.23227 0.0
O688 O 0.48901 0.56582 0.24042 0.0
C689 C 0.49032 0.58137 0.23723 0.0
C690 C 0.44134 0.54236 0.25864 0.0
C691 C 0.50167 0.59739 0.24729 0.0
C692 C 0.50578 0.62131 0.2649 0.0
C693 C 0.49455 0.60549 0.25608 0.0
C694 C 0.53132 0.62085 0.25655 0.0
C695 C 0.52432 0.62925 0.26518 0.0
C696 C 0.52012 0.60513 0.2477 0.0
C697 C 0.45502 0.52801 0.19916 0.0
C698 C 0.47766 0.54122 0.18245 0.0
C699 C 0.45024 0.51306 0.17556 0.0
C700 C 0.44435 0.51366 0.18894 0.0
C701 C 0.46699 0.52682 0.17212 0.0
C702 C 0.47172 0.54182 0.19584 0.0
C703 C 0.44856 0.52825 0.21321 0.0
O704 O 0.45387 0.53834 0.25684 0.0
O705 O 0.43998 0.55212 0.24875 0.0
O706 O 0.44401 0.54067 0.2158 0.0
O707 O 0.4578 0.52687 0.22396 0.0
H708 H 0.40966 0.51975 0.24287 0.0
H709 H 0.38174 0.49706 0.25177 0.0
H710 H 0.40781 0.50915 0.294 0.0
H711 H 0.4354 0.53203 0.28511 0.0
H712 H 0.49994 0.6273 0.27154 0.0
H713 H 0.48034 0.59972 0.25603 0.0
H714 H 0.54552 0.62669 0.25635 0.0
H715 H 0.5259 0.59916 0.24097 0.0
H716 H 0.49052 0.55216 0.18014 0.0
H717 H 0.44177 0.50163 0.16799 0.0
H718 H 0.43144 0.50285 0.19132 0.0
H719 H 0.48014 0.55305 0.2036 0.0
Tb720 Tb 0.52788 0.01941 1.00687 0.0
C721 C 0.51741 0.98105 0.01725 0.0
Tb722 Tb 0.4884 0.99325 0.01176 0.0
O723 O 0.53582 0.02141 0.02945 0.0
O724 O 0.51051 0.01615 0.0228 0.0
O725 O 0.52903 0.99474 0.01029 0.0
C726 C 0.45768 0.97073 0.02241 0.0
O727 O 0.50183 0.97915 0.02012 0.0
C728 C 0.49611 0.99576 0.98521 0.0
C729 C 0.49896 0.0318 1.00165 0.0
O730 O 0.46456 0.96631 0.01219 0.0
O731 O 0.46803 0.98788 0.02653 0.0
O732 O 0.48053 0.99134 0.98919 0.0
O733 O 0.50577 0.99654 0.99585 0.0
O734 O 0.48725 0.01796 0.00845 0.0
O735 O 0.51458 0.03377 0.99883 0.0
C736 C 0.55843 0.04149 0.99582 0.0
O737 O 0.55219 0.04599 1.00648 0.0
O738 O 0.54755 0.02452 0.99151 0.0
C739 C 0.52024 0.01702 0.03343 0.0
Tb740 Tb 0.99552 0.51353 1.00566 0.0
C741 C 0.03431 0.5418 0.01737 0.0
Tb742 Tb 0.02148 0.49931 0.01146 0.0
O743 O 0.99702 0.52173 0.02811 0.0
O744 O 1.00098 0.50013 0.0219 0.0
O745 O 0.01999 0.53964 0.00993 0.0
C746 C 0.04519 0.4911 0.02255 0.0
O747 O 0.03652 0.52781 0.02031 0.0
C748 C 0.01507 0.5028 0.98478 0.0
C749 C 0.98231 0.47073 1.00081 0.0
O750 O 0.04781 0.50194 0.01253 0.0
O751 O 0.02917 0.48478 0.02625 0.0
O752 O 0.01951 0.4911 0.98889 0.0
O753 O 0.01616 0.51292 0.99539 0.0
O754 O 0.99705 0.47314 0.00767 0.0
O755 O 0.97976 0.48456 0.99801 0.0
C756 C 0.97298 0.52234 0.99309 0.0
O757 O 0.97079 0.51446 1.00487 0.0
O758 O 0.9879 0.52539 0.98852 0.0
C759 C 1.00181 0.51033 0.0324 0.0
Tb760 Tb 0.49016 0.49995 0.01052 0.0
C761 C 0.50213 0.47219 1.00089 0.0
Tb762 Tb 0.53009 0.51483 1.00677 0.0
O763 O 0.48316 0.49227 0.98773 0.0
O764 O 0.50816 0.51354 0.99509 0.0
O765 O 0.49007 0.47426 0.00744 0.0
C766 C 0.56117 0.52424 0.99627 0.0
O767 O 0.5177 0.48625 0.99835 0.0
C768 C 0.52184 0.51181 0.03319 0.0
C769 C 0.51828 0.54252 0.01701 0.0
O770 O 0.55455 0.51352 1.00639 0.0
O771 O 0.55038 0.52981 0.99219 0.0
O772 O 0.5377 0.52252 0.02948 0.0
O773 O 0.51223 0.50175 0.02241 0.0
O774 O 0.53038 0.54059 0.01033 0.0
O775 O 0.50269 0.52838 0.01949 0.0
C776 C 0.4584 0.48949 0.02015 0.0
O777 O 0.46661 0.50281 0.01212 0.0
O778 O 0.46797 0.48197 0.02259 0.0
C779 C 0.49894 0.50358 0.98422 0.0
Tb780 Tb 0.19756 0.35648 0.3424 0.0
C781 C 0.18716 0.31494 0.34633 0.0
Tb782 Tb 0.15791 0.32671 0.34264 0.0
O783 O 0.19826 0.36629 0.36451 0.0
O784 O 0.18062 0.3395 0.35701 0.0
O785 O 0.19955 0.33152 0.3432 0.0
C786 C 0.12576 0.30648 0.35195 0.0
O787 O 0.17052 0.31076 0.34799 0.0
C788 C 0.17084 0.3322 0.31765 0.0
C789 C 0.16828 0.3682 0.33861 0.0
O790 O 0.13105 0.30277 0.34032 0.0
O791 O 0.13847 0.32172 0.35816 0.0
O792 O 0.15713 0.31694 0.32051 0.0
O793 O 0.17485 0.34365 0.32803 0.0
O794 O 0.15595 0.35169 0.34191 0.0
O795 O 0.18487 0.37229 0.33682 0.0
C796 C 0.22977 0.37671 0.33317 0.0
O797 O 0.22429 0.38063 0.34461 0.0
O798 O 0.21722 0.36126 0.32713 0.0
C799 C 0.18461 0.35098 0.36736 0.0
Tb800 Tb 0.66352 0.84745 0.34055 0.0
C801 C 0.70241 0.87612 0.35177 0.0
Tb802 Tb 0.68964 0.83351 0.34657 0.0
O803 O 0.66521 0.85582 0.36302 0.0
O804 O 0.66892 0.83407 0.35682 0.0
O805 O 0.68791 0.8737 0.34446 0.0
C806 C 0.7133 0.8255 0.35808 0.0
O807 O 0.70476 0.86226 0.35489 0.0
C808 C 0.68323 0.83663 0.31983 0.0
C809 C 0.65061 0.80472 0.33571 0.0
O810 O 0.71551 0.8351 0.34726 0.0
O811 O 0.69771 0.8203 0.36235 0.0
O812 O 0.68778 0.82506 0.3241 0.0
O813 O 0.68423 0.84687 0.33033 0.0
O814 O 0.6653 0.80725 0.34276 0.0
O815 O 0.64802 0.81849 0.33276 0.0
C816 C 0.64054 0.85589 0.32822 0.0
O817 O 0.65555 0.8593 0.32361 0.0
O818 O 0.6385 0.84782 0.3399 0.0
C819 C 0.66981 0.84429 0.3673 0.0
Tb820 Tb 0.15886 0.83474 0.34548 0.0
C821 C 0.16983 0.80627 0.33539 0.0
Tb822 Tb 0.19875 0.84879 0.3416 0.0
O823 O 0.15113 0.82744 0.32272 0.0
O824 O 0.17687 0.84752 0.32992 0.0
O825 O 0.1578 0.80863 0.34178 0.0
C826 C 0.23007 0.85833 0.33144 0.0
O827 O 0.1857 0.82011 0.33308 0.0
C828 C 0.18993 0.84535 0.36788 0.0
C829 C 0.18759 0.87723 0.35132 0.0
O830 O 0.22226 0.84585 0.34022 0.0
O831 O 0.22035 0.86557 0.32854 0.0
O832 O 0.2058 0.85648 0.3644 0.0
O833 O 0.18067 0.83555 0.35696 0.0
O834 O 0.1995 0.87481 0.34483 0.0
O835 O 0.17185 0.86341 0.35386 0.0
C836 C 0.12821 0.82572 0.3566 0.0
O837 O 0.13475 0.83666 0.34658 0.0
O838 O 0.13882 0.81975 0.36019 0.0
C839 C 0.16714 0.83775 0.31911 0.0
Tb840 Tb 0.86368 0.68929 0.67565 0.0
C841 C 0.85314 0.64761 0.67915 0.0
Tb842 Tb 0.82393 0.65951 0.6758 0.0
O843 O 0.86428 0.69884 0.69784 0.0
O844 O 0.84668 0.67213 0.6901 0.0
O845 O 0.86561 0.66428 0.67627 0.0
C846 C 0.7921 0.63949 0.6857 0.0
O847 O 0.83647 0.64338 0.68072 0.0
C848 C 0.83685 0.66523 0.65083 0.0
C849 C 0.8344 0.70108 0.67198 0.0
O850 O 0.80513 0.65454 0.69187 0.0
O851 O 0.79686 0.63587 0.67374 0.0
O852 O 0.82305 0.64996 0.65359 0.0
O853 O 0.84093 0.67657 0.6613 0.0
O854 O 0.82201 0.68451 0.67514 0.0
O855 O 0.85102 0.7052 0.67026 0.0
C856 C 0.89594 0.70974 0.66657 0.0
O857 O 0.89041 0.71343 0.67807 0.0
O858 O 0.88341 0.69438 0.66036 0.0
C859 C 0.85062 0.68345 0.70054 0.0
Tb860 Tb 0.33073 0.18089 0.67278 0.0
C861 C 0.36981 0.20913 0.68396 0.0
Tb862 Tb 0.35636 0.16634 0.67872 0.0
O863 O 0.33242 0.18923 0.69524 0.0
O864 O 0.33587 0.16731 0.68903 0.0
O865 O 0.35529 0.20694 0.67684 0.0
C866 C 0.37946 0.15766 0.69042 0.0
O867 O 0.37206 0.19514 0.68684 0.0
C868 C 0.35007 0.16964 0.65197 0.0
C869 C 0.3173 0.1381 0.66762 0.0
O870 O 0.36431 0.15367 0.69506 0.0
O871 O 0.38155 0.16641 0.67911 0.0
O872 O 0.35439 0.15789 0.65621 0.0
O873 O 0.35122 0.17993 0.6625 0.0
O874 O 0.33174 0.1403 0.67487 0.0
O875 O 0.31517 0.15212 0.66455 0.0
C876 C 0.30788 0.18971 0.66082 0.0
O877 O 0.30506 0.17985 0.67154 0.0
O878 O 0.3236 0.19471 0.65693 0.0
C879 C 0.33689 0.17761 0.69951 0.0
Tb880 Tb 0.82179 0.16649 0.67626 0.0
C881 C 0.83347 0.13838 0.66683 0.0
Tb882 Tb 0.86162 0.18105 0.67224 0.0
O883 O 0.81466 0.15878 0.65347 0.0
O884 O 0.83968 0.18 0.66079 0.0
O885 O 0.82148 0.14067 0.67331 0.0
C886 C 0.89247 0.19032 0.66137 0.0
O887 O 0.84909 0.1523 0.66421 0.0
C888 C 0.85363 0.1782 0.69871 0.0
C889 C 0.85026 0.20901 0.68267 0.0
O890 O 0.88659 0.18072 0.6722 0.0
O891 O 0.88104 0.19483 0.65677 0.0
O892 O 0.86945 0.1889 0.6949 0.0
O893 O 0.84388 0.1681 0.68799 0.0
O894 O 0.86219 0.20692 0.67587 0.0
O895 O 0.83465 0.19496 0.68526 0.0
C896 C 0.79023 0.1566 0.68614 0.0
O897 O 0.79874 0.17013 0.67836 0.0
O898 O 0.79936 0.14851 0.68814 0.0
C899 C 0.83042 0.1701 0.64993 0.0
H900 H 0.31553 0.83705 0.0619 0.0
H901 H 0.34313 0.8597 0.05283 0.0
H902 H 0.34236 0.90244 0.07868 0.0
H903 H 0.31453 0.87987 0.08769 0.0
H904 H 0.34859 0.89029 0.0381 0.0
H905 H 0.39291 0.91133 0.08773 0.0
H906 H 0.37161 0.89058 0.08561 0.0
H907 H 0.3729 0.91227 0.08895 0.0
C908 C 0.32115 0.85127 0.06564 0.0
C909 C 0.31271 0.8566 0.07551 0.0
C910 C 0.337 0.8642 0.06049 0.0
C911 C 0.34492 0.88275 0.06516 0.0
C912 C 0.33667 0.88816 0.07511 0.0
H913 H 0.44177 0.97883 0.04339 0.0
H914 H 0.4141 0.95791 0.05359 0.0
C915 C 0.32076 0.87522 0.08026 0.0
C916 C 0.36142 0.89641 0.05918 0.0
H917 H 0.4052 0.92754 0.06774 0.0
C918 C 0.36098 0.89842 0.04457 0.0
C919 C 0.37754 0.90711 0.06766 0.0
C920 C 0.37892 0.90519 0.08334 0.0
C921 C 0.37616 0.9109 0.03821 0.0
C922 C 0.39239 0.92135 0.04662 0.0
C923 C 0.39278 0.91951 0.06128 0.0
C924 C 0.40915 0.93406 0.04038 0.0
C925 C 0.37454 0.91298 0.02256 0.0
C926 C 0.41574 0.92761 0.02969 0.0
C927 C 0.43145 0.93956 0.02379 0.0
C928 C 0.441 0.95816 0.02858 0.0
C929 C 0.4346 0.96457 0.03944 0.0
C930 C 0.41883 0.95263 0.04529 0.0
H931 H 0.36064 0.90841 0.01868 0.0
H932 H 0.38307 0.92738 0.02011 0.0
H933 H 0.37876 0.9044 0.01662 0.0
H934 H 0.4088 0.91328 0.02598 0.0
H935 H 0.43617 0.93421 0.01554 0.0
H936 H 0.14668 0.42888 0.06428 0.0
H937 H 0.12404 0.43542 0.05479 0.0
H938 H 0.15231 0.48921 0.07668 0.0
H939 H 0.17487 0.48265 0.08638 0.0
H940 H 0.11711 0.47341 0.07906 0.0
H941 H 0.12926 0.46718 0.02279 0.0
H942 H 0.12386 0.44701 0.0317 0.0
H943 H 0.14396 0.46804 0.03722 0.0
C944 C 0.14811 0.44214 0.06702 0.0
C945 C 0.16264 0.45529 0.07601 0.0
C946 C 0.13519 0.44588 0.06155 0.0
C947 C 0.13665 0.46296 0.06476 0.0
C948 C 0.15093 0.47597 0.07399 0.0
H949 H 0.07998 0.50643 0.01748 0.0
H950 H 0.10212 0.49996 0.02826 0.0
C951 C 0.16379 0.47218 0.07957 0.0
C952 C 0.1233 0.46726 0.05855 0.0
H953 H 0.1038 0.46941 0.02713 0.0
C954 C 0.11423 0.47259 0.0677 0.0
C955 C 0.11975 0.46649 0.04372 0.0
C956 C 0.12984 0.46205 0.03328 0.0
C957 C 0.10155 0.47693 0.06245 0.0
C958 C 0.09749 0.47545 0.04763 0.0
C959 C 0.10674 0.47035 0.03848 0.0
C960 C 0.08399 0.4795 0.04133 0.0
C961 C 0.09295 0.48346 0.07284 0.0
C962 C 0.06637 0.47004 0.04496 0.0
C963 C 0.05374 0.47387 0.0389 0.0
C964 C 0.05845 0.48699 0.02893 0.0
C965 C 0.076 0.49624 0.02514 0.0
C966 C 0.08864 0.49254 0.03129 0.0
H967 H 0.10111 0.48895 0.08312 0.0
H968 H 0.09078 0.49425 0.06857 0.0
H969 H 0.07991 0.4718 0.07495 0.0
H970 H 0.06231 0.45958 0.05238 0.0
H971 H 0.04028 0.46646 0.04194 0.0
H972 H 0.5803 0.71058 0.06722 0.0
H973 H 0.57333 0.682 0.0539 0.0
H974 H 0.52228 0.65469 0.07094 0.0
H975 H 0.52896 0.68325 0.084 0.0
H976 H 0.56543 0.64895 0.06518 0.0
H977 H 0.50973 0.63978 0.02843 0.0
H978 H 0.52485 0.6613 0.03823 0.0
H979 H 0.50711 0.64344 0.04674 0.0
C980 C 0.56746 0.69857 0.06793 0.0
C981 C 0.55518 0.69924 0.07667 0.0
C982 C 0.56354 0.68222 0.06039 0.0
C983 C 0.5472 0.66624 0.06128 0.0
C984 C 0.53485 0.6669 0.06988 0.0
H985 H 0.49805 0.55189 0.03271 0.0
H986 H 0.5057 0.58217 0.04288 0.0
C987 C 0.53877 0.68321 0.07747 0.0
C988 C 0.54337 0.64868 0.05379 0.0
H989 H 0.51401 0.61419 0.02971 0.0
C990 C 0.5543 0.64143 0.05732 0.0
C991 C 0.5288 0.63884 0.04357 0.0
C992 C 0.51703 0.64629 0.0389 0.0
C993 C 0.55075 0.62437 0.05123 0.0
C994 C 0.53607 0.61444 0.04112 0.0
C995 C 0.52526 0.6218 0.03746 0.0
C996 C 0.53141 0.59616 0.03452 0.0
C997 C 0.56242 0.61685 0.05602 0.0
C998 C 0.5432 0.59395 0.02621 0.0
C999 C 0.53888 0.5766 0.02035 0.0
C1000 C 0.52261 0.5611 0.02261 0.0
C1001 C 0.51069 0.56346 0.03071 0.0
C1002 C 0.51503 0.5808 0.03655 0.0
H1003 H 0.57035 0.62397 0.06616 0.0
H1004 H 0.55438 0.60201 0.0574 0.0
H1005 H 0.57176 0.61873 0.04787 0.0
H1006 H 0.55577 0.60565 0.02426 0.0
H1007 H 0.54836 0.57535 0.01414 0.0
H1008 H 0.85051 0.31127 0.95376 0.0
H1009 H 0.87122 0.34081 0.9665 0.0
H1010 H 0.91153 0.34756 0.93889 0.0
H1011 H 0.89078 0.31852 0.92575 0.0
H1012 H 0.90388 0.3533 0.98113 0.0
H1013 H 0.91051 0.39472 0.93572 0.0
H1014 H 0.89343 0.37107 0.93565 0.0
H1015 H 0.91558 0.37696 0.9319 0.0
C1016 C 0.86372 0.31911 0.95029 0.0
C1017 C 0.86889 0.31249 0.93864 0.0
C1018 C 0.87559 0.33594 0.95767 0.0
C1019 C 0.89285 0.34655 0.95352 0.0
C1020 C 0.89818 0.3398 0.94213 0.0
H1021 H 0.98369 0.43902 1.00097 0.0
H1022 H 0.96159 0.40872 0.99026 0.0
C1023 C 0.88633 0.32303 0.93473 0.0
C1024 C 0.90528 0.3647 0.96106 0.0
H1025 H 0.93084 0.41 0.95591 0.0
C1026 C 0.90973 0.36572 0.97564 0.0
C1027 C 0.91271 0.38095 0.95394 0.0
C1028 C 0.9077 0.38096 0.93847 0.0
C1029 C 0.92166 0.38248 0.98323 0.0
C1030 C 0.92961 0.39862 0.97598 0.0
C1031 C 0.92489 0.39762 0.96145 0.0
C1032 C 0.9427 0.41676 0.98321 0.0
C1033 C 0.92541 0.38278 0.99897 0.0
C1034 C 0.9396 0.43149 0.98267 0.0
C1035 C 0.95228 0.44887 0.98867 0.0
C1036 C 0.96839 0.45197 0.99535 0.0
C1037 C 0.97138 0.43714 0.99605 0.0
C1038 C 0.9587 0.41974 0.98997 0.0
H1039 H 0.91475 0.37061 1.0035 0.0
H1040 H 0.93799 0.38269 1.00099 0.0
H1041 H 0.92684 0.39527 1.00462 0.0
H1042 H 0.9274 0.42956 0.97747 0.0
H1043 H 0.94949 0.45993 0.98789 0.0
H1044 H 0.70565 0.53929 0.95602 0.0
H1045 H 0.67816 0.53374 0.96577 0.0
H1046 H 0.67383 0.56964 0.93704 0.0
H1047 H 0.70152 0.57552 0.92733 0.0
H1048 H 0.67101 0.55984 0.9788 0.0
H1049 H 0.6248 0.5228 0.93113 0.0
H1050 H 0.64693 0.52618 0.93308 0.0
H1051 H 0.64356 0.54459 0.92833 0.0
C1052 C 0.69895 0.54612 0.9518 0.0
C1053 C 0.70588 0.55791 0.94088 0.0
C1054 C 0.68316 0.54284 0.95735 0.0
C1055 C 0.67384 0.55111 0.95204 0.0
C1056 C 0.68063 0.56284 0.94112 0.0
H1057 H 0.57547 0.54555 0.97442 0.0
H1058 H 0.60312 0.55281 0.96386 0.0
C1059 C 0.69647 0.56617 0.93557 0.0
C1060 C 0.65731 0.54785 0.95828 0.0
H1061 H 0.61274 0.52954 0.95076 0.0
C1062 C 0.65826 0.5532 0.97268 0.0
C1063 C 0.64071 0.53926 0.95026 0.0
C1064 C 0.63881 0.53272 0.93487 0.0
C1065 C 0.64309 0.5503 0.97926 0.0
C1066 C 0.62643 0.54146 0.9713 0.0
C1067 C 0.62551 0.53629 0.95686 0.0
C1068 C 0.60977 0.5372 0.97783 0.0
C1069 C 0.64511 0.55704 0.99462 0.0
C1070 C 0.6042 0.52585 0.98908 0.0
C1071 C 0.58847 0.52175 0.99515 0.0
C1072 C 0.57795 0.52883 0.99002 0.0
C1073 C 0.58341 0.54002 0.97866 0.0
C1074 C 0.59916 0.54413 0.9726 0.0
H1075 H 0.65895 0.5679 0.99796 0.0
H1076 H 0.63613 0.5625 0.99663 0.0
H1077 H 0.64168 0.54551 1.00134 0.0
H1078 H 0.61194 0.51999 0.99309 0.0
H1079 H 0.58449 0.51295 1.00381 0.0
H1080 H 0.48846 0.17031 0.96444 0.0
H1081 H 0.49348 0.14664 0.97366 0.0
H1082 H 0.44652 0.10514 0.94906 0.0
H1083 H 0.44128 0.12876 0.93984 0.0
H1084 H 0.47171 0.1176 0.98919 0.0
H1085 H 0.48441 0.09268 0.93835 0.0
H1086 H 0.48444 0.11399 0.94051 0.0
H1087 H 0.46383 0.0927 0.9381 0.0
C1088 C 0.47911 0.15615 0.96103 0.0
C1089 C 0.46444 0.15148 0.95138 0.0
C1090 C 0.48206 0.14263 0.96628 0.0
C1091 C 0.4705 0.12412 0.96195 0.0
C1092 C 0.45582 0.11936 0.95235 0.0
H1093 H 0.46839 0.03309 1.00463 0.0
H1094 H 0.46068 0.05491 0.99515 0.0
C1095 C 0.45285 0.13289 0.94707 0.0
C1096 C 0.47374 0.10988 0.96772 0.0
H1097 H 0.48302 0.07631 0.95829 0.0
C1098 C 0.47414 0.10853 0.98244 0.0
C1099 C 0.47709 0.09818 0.95891 0.0
C1100 C 0.47759 0.0995 0.9431 0.0
C1101 C 0.47779 0.09583 0.98859 0.0
C1102 C 0.4809 0.08396 0.97976 0.0
C1103 C 0.48049 0.0853 0.96504 0.0
C1104 C 0.48541 0.07062 0.98561 0.0
C1105 C 0.47879 0.09558 1.00451 0.0
C1106 C 0.50173 0.07197 0.9832 0.0
C1107 C 0.50615 0.05951 0.98855 0.0
C1108 C 0.49431 0.04531 0.99641 0.0
C1109 C 0.4779 0.04392 0.99875 0.0
C1110 C 0.47349 0.05644 0.99338 0.0
H1111 H 0.48021 0.10824 0.00985 0.0
H1112 H 0.46643 0.08381 0.00763 0.0
H1113 H 0.49012 0.09401 0.0084 0.0
H1114 H 0.51112 0.08275 0.97721 0.0
H1115 H 0.51886 0.06099 0.98643 0.0
H1116 H 0.71312 0.13401 0.94832 0.0
H1117 H 0.68522 0.11212 0.95756 0.0
H1118 H 0.66189 0.14421 0.94468 0.0
H1119 H 0.6897 0.16607 0.93532 0.0
H1120 H 0.66809 0.11746 0.97847 0.0
H1121 H 0.62429 0.0937 0.92867 0.0
H1122 H 0.64813 0.1068 0.92886 0.0
H1123 H 0.63567 0.11805 0.93229 0.0
C1124 C 0.70203 0.13639 0.94741 0.0
C1125 C 0.70365 0.15179 0.94103 0.0
C1126 C 0.68606 0.12383 0.95267 0.0
C1127 C 0.67133 0.12633 0.95165 0.0
C1128 C 0.67289 0.14169 0.94528 0.0
H1129 H 0.58167 0.07749 1.0036 0.0
H1130 H 0.609 0.0979 0.99284 0.0
C1131 C 0.68883 0.15421 0.93994 0.0
C1132 C 0.65463 0.11334 0.95783 0.0
H1133 H 0.61004 0.08527 0.95013 0.0
C1134 C 0.65542 0.11036 0.97225 0.0
C1135 C 0.6381 0.10387 0.94969 0.0
C1136 C 0.63647 0.1056 0.93399 0.0
C1137 C 0.64014 0.09846 0.97879 0.0
C1138 C 0.6235 0.08955 0.97079 0.0
C1139 C 0.62275 0.09225 0.95631 0.0
C1140 C 0.60676 0.07725 0.97722 0.0
C1141 C 0.64204 0.0953 0.99416 0.0
C1142 C 0.59608 0.05898 0.97177 0.0
C1143 C 0.58037 0.04734 0.97783 0.0
C1144 C 0.57503 0.05378 0.98943 0.0
C1145 C 0.58556 0.07212 0.99475 0.0
C1146 C 0.60124 0.08376 0.98866 0.0
H1147 H 0.65582 0.09882 0.99753 0.0
H1148 H 0.63876 0.10412 1.00085 0.0
H1149 H 0.63291 0.08085 0.99619 0.0
H1150 H 0.59998 0.05367 0.96289 0.0
H1151 H 0.57243 0.0333 0.97345 0.0
H1152 H 0.88174 0.56633 0.91046 0.0
H1153 H 0.90132 0.55815 0.92343 0.0
H1154 H 0.87064 0.54823 0.95964 0.0
H1155 H 0.85112 0.55675 0.94686 0.0
H1156 H 0.92165 0.57511 0.9499 0.0
H1157 H 0.87376 0.50119 0.95274 0.0
H1158 H 0.87016 0.51488 0.94039 0.0
H1159 H 0.86645 0.5166 0.95872 0.0
C1160 C 0.87918 0.56254 0.92122 0.0
C1161 C 0.86483 0.56227 0.92761 0.0
C1162 C 0.89034 0.55776 0.92858 0.0
C1163 C 0.88734 0.5524 0.94244 0.0
C1164 C 0.87301 0.55201 0.94886 0.0
H1165 H 0.94256 0.519 1.0026 0.0
H1166 H 0.92189 0.52666 0.99053 0.0
C1167 C 0.86185 0.55687 0.94152 0.0
C1168 C 0.89958 0.54782 0.95027 0.0
H1169 H 0.90193 0.51296 0.96508 0.0
C1170 C 0.91736 0.56152 0.95321 0.0
C1171 C 0.89392 0.53011 0.95463 0.0
C1172 C 0.87507 0.51476 0.95139 0.0
C1173 C 0.92963 0.55805 0.96051 0.0
C1174 C 0.92406 0.54025 0.96469 0.0
C1175 C 0.90621 0.52658 0.96185 0.0
C1176 C 0.93656 0.53553 0.97195 0.0
C1177 C 0.94836 0.57359 0.96394 0.0
C1178 C 0.95154 0.5377 0.96543 0.0
C1179 C 0.96342 0.53349 0.97236 0.0
C1180 C 0.9604 0.52678 0.98585 0.0
C1181 C 0.94524 0.52424 0.99224 0.0
C1182 C 0.93342 0.52857 0.98534 0.0
H1183 H 0.94914 0.58708 0.96374 0.0
H1184 H 0.95377 0.57269 0.97453 0.0
H1185 H 0.9569 0.57296 0.9559 0.0
H1186 H 0.95402 0.54257 0.95495 0.0
H1187 H 0.9749 0.53538 0.96712 0.0
H1188 H 0.48787 0.32627 0.93804 0.0
H1189 H 0.49623 0.3556 0.95078 0.0
H1190 H 0.44218 0.33464 0.96088 0.0
H1191 H 0.43377 0.30517 0.9484 0.0
H1192 H 0.48209 0.37851 0.94449 0.0
H1193 H 0.47096 0.35732 0.99941 0.0
H1194 H 0.4731 0.34364 0.98531 0.0
H1195 H 0.45265 0.34369 0.98651 0.0
C1196 C 0.47781 0.32779 0.94318 0.0
C1197 C 0.46014 0.31333 0.94221 0.0
C1198 C 0.4826 0.3446 0.95038 0.0
C1199 C 0.46988 0.34726 0.95692 0.0
C1200 C 0.45228 0.33282 0.95611 0.0
H1201 H 0.47054 0.44 1.00107 0.0
H1202 H 0.46297 0.40982 0.99052 0.0
C1203 C 0.44746 0.31603 0.94885 0.0
C1204 C 0.47485 0.36541 0.96396 0.0
H1205 H 0.47673 0.38728 0.99574 0.0
C1206 C 0.48102 0.38046 0.95571 0.0
C1207 C 0.47333 0.3679 0.97858 0.0
C1208 C 0.46729 0.35234 0.98803 0.0
C1209 C 0.48543 0.39787 0.96162 0.0
C1210 C 0.48402 0.40042 0.97628 0.0
C1211 C 0.47783 0.38534 0.98452 0.0
C1212 C 0.4889 0.41861 0.98321 0.0
C1213 C 0.49108 0.41327 0.95202 0.0
C1214 C 0.50612 0.43353 0.98293 0.0
C1215 C 0.51049 0.45081 0.9889 0.0
C1216 C 0.49777 0.45355 0.99544 0.0
C1217 C 0.48068 0.43844 0.99612 0.0
C1218 C 0.47631 0.42115 0.99009 0.0
H1219 H 0.48672 0.40806 0.94073 0.0
H1220 H 0.48565 0.42222 0.955 0.0
H1221 H 0.50576 0.42168 0.95296 0.0
H1222 H 0.51619 0.43183 0.978 0.0
H1223 H 0.52382 0.46205 0.98825 0.0
H1224 H 0.16334 0.68566 0.08558 0.0
H1225 H 0.14229 0.65661 0.07235 0.0
H1226 H 0.10948 0.67908 0.05962 0.0
H1227 H 0.13062 0.70828 0.07259 0.0
H1228 H 0.1058 0.63439 0.07685 0.0
H1229 H 0.11485 0.6564 0.02205 0.0
H1230 H 0.1307 0.66958 0.03685 0.0
H1231 H 0.1105 0.6702 0.03433 0.0
C1232 C 0.1518 0.68453 0.07977 0.0
C1233 C 0.1487 0.69934 0.08012 0.0
C1234 C 0.13972 0.66788 0.07229 0.0
C1235 C 0.12441 0.66573 0.06487 0.0
C1236 C 0.12134 0.6805 0.06509 0.0
H1237 H 0.0338 0.57396 0.01639 0.0
H1238 H 0.05554 0.60397 0.02792 0.0
C1239 C 0.13336 0.69714 0.07262 0.0
C1240 C 0.11128 0.64779 0.05743 0.0
H1241 H 0.0913 0.62655 0.02483 0.0
C1242 C 0.10268 0.63265 0.06547 0.0
C1243 C 0.10714 0.64558 0.0426 0.0
C1244 C 0.11636 0.66124 0.03339 0.0
C1245 C 0.08988 0.6154 0.05911 0.0
C1246 C 0.08585 0.61312 0.04424 0.0
C1247 C 0.0944 0.6283 0.03621 0.0
C1248 C 0.07297 0.59505 0.03684 0.0
C1249 C 0.08051 0.59987 0.06843 0.0
C1250 C 0.07574 0.58015 0.03772 0.0
C1251 C 0.06335 0.56299 0.03118 0.0
C1252 C 0.04795 0.56036 0.02347 0.0
C1253 C 0.04547 0.57545 0.02223 0.0
C1254 C 0.05788 0.59263 0.02883 0.0
H1255 H 0.0813 0.60494 0.07961 0.0
H1256 H 0.06634 0.59102 0.0646 0.0
H1257 H 0.0869 0.59136 0.06828 0.0
H1258 H 0.08748 0.58177 0.04353 0.0
H1259 H 0.06581 0.55176 0.03231 0.0
H1260 H 0.32875 0.43589 0.09779 0.0
H1261 H 0.35433 0.44389 0.08416 0.0
H1262 H 0.33742 0.4718 0.05595 0.0
H1263 H 0.31145 0.46344 0.06928 0.0
H1264 H 0.35347 0.43524 0.0535 0.0
H1265 H 0.39047 0.50978 0.06981 0.0
H1266 H 0.3732 0.49342 0.07981 0.0
H1267 H 0.36754 0.49993 0.06347 0.0
C1268 C 0.3303 0.44356 0.08861 0.0
C1269 C 0.31793 0.44896 0.08465 0.0
C1270 C 0.34502 0.44823 0.08088 0.0
C1271 C 0.34784 0.45856 0.06913 0.0
C1272 C 0.33561 0.46403 0.06512 0.0
H1273 H 0.43625 0.50306 0.01497 0.0
H1274 H 0.40864 0.49508 0.02593 0.0
C1275 C 0.3208 0.45927 0.07279 0.0
C1276 C 0.36345 0.46329 0.06097 0.0
H1277 H 0.40324 0.49893 0.05346 0.0
C1278 C 0.36435 0.44916 0.05346 0.0
C1279 C 0.37753 0.48147 0.06085 0.0
C1280 C 0.37731 0.49708 0.06897 0.0
C1281 C 0.37898 0.45273 0.04581 0.0
C1282 C 0.39334 0.47086 0.046 0.0
C1283 C 0.39227 0.48503 0.05333 0.0
C1284 C 0.4098 0.47535 0.03904 0.0
C1285 C 0.37876 0.43703 0.03742 0.0
C1286 C 0.41973 0.46707 0.04285 0.0
C1287 C 0.43537 0.47148 0.03651 0.0
C1288 C 0.44153 0.48446 0.02639 0.0
C1289 C 0.43173 0.49292 0.02268 0.0
C1290 C 0.416 0.4884 0.02896 0.0
H1291 H 0.365 0.42561 0.03468 0.0
H1292 H 0.38541 0.44143 0.02748 0.0
H1293 H 0.38585 0.4317 0.0439 0.0
H1294 H 0.41553 0.45735 0.05088 0.0
H1295 H 0.44278 0.46492 0.03971 0.0
H1296 H 0.53169 0.85619 0.07903 0.0
H1297 H 0.52574 0.87908 0.06931 0.0
H1298 H 0.57333 0.89994 0.0473 0.0
H1299 H 0.57929 0.87701 0.0569 0.0
H1300 H 0.54491 0.91646 0.07175 0.0
H1301 H 0.53666 0.89087 0.01539 0.0
H1302 H 0.53733 0.87796 0.02981 0.0
H1303 H 0.55752 0.89641 0.02432 0.0
C1304 C 0.54096 0.86573 0.0722 0.0
C1305 C 0.55591 0.86467 0.06868 0.0
C1306 C 0.5375 0.87877 0.0666 0.0
C1307 C 0.54888 0.89102 0.05734 0.0
C1308 C 0.56407 0.89032 0.0541 0.0
H1309 H 0.54722 0.97874 0.0131 0.0
H1310 H 0.55538 0.95746 0.02303 0.0
C1311 C 0.56749 0.87723 0.05963 0.0
C1312 C 0.54489 0.90458 0.05118 0.0
H1313 H 0.53686 0.91874 0.01985 0.0
C1314 C 0.54311 0.91692 0.0604 0.0
C1315 C 0.54255 0.90522 0.03636 0.0
C1316 C 0.54344 0.89181 0.02588 0.0
C1317 C 0.53923 0.92995 0.05523 0.0
C1318 C 0.53682 0.93052 0.04042 0.0
C1319 C 0.53876 0.91832 0.03119 0.0
C1320 C 0.53183 0.94337 0.03432 0.0
C1321 C 0.53798 0.94317 0.06567 0.0
C1322 C 0.51574 0.94231 0.03715 0.0
C1323 C 0.51101 0.9544 0.03147 0.0
C1324 C 0.52224 0.96779 0.02276 0.0
C1325 C 0.53825 0.96864 0.01976 0.0
C1326 C 0.54295 0.95648 0.02543 0.0
H1327 H 0.54474 0.94422 0.07619 0.0
H1328 H 0.54389 0.95701 0.06173 0.0
H1329 H 0.52383 0.93832 0.06713 0.0
H1330 H 0.50677 0.93208 0.04374 0.0
H1331 H 0.49857 0.95328 0.03403 0.0
H1332 H 0.97641 0.17816 0.38626 0.0
H1333 H 1.00392 0.20036 0.37681 0.0
H1334 H 0.01577 0.23765 0.41354 0.0
H1335 H 0.98811 0.21557 0.42304 0.0
H1336 H 0.01458 0.2362 0.3702 0.0
H1337 H 0.0614 0.23518 0.41149 0.0
H1338 H 0.03824 0.21787 0.40927 0.0
H1339 H 0.04499 0.23984 0.41808 0.0
C1340 C 0.98477 0.19112 0.39232 0.0
C1341 C 0.97996 0.19504 0.40543 0.0
C1342 C 1.00057 0.20378 0.38691 0.0
C1343 C 0.01204 0.2206 0.39452 0.0
C1344 C 1.00732 0.22462 0.4076 0.0
H1345 H 0.11451 0.31222 0.37699 0.0
H1346 H 0.0866 0.29202 0.38717 0.0
C1347 C 0.99148 0.21196 0.41302 0.0
C1348 C 0.02871 0.234 0.38856 0.0
H1349 H 0.07386 0.25671 0.39438 0.0
C1350 C 0.02755 0.24067 0.37548 0.0
C1351 C 0.04562 0.23989 0.39547 0.0
C1352 C 0.04774 0.23274 0.4093 0.0
C1353 C 0.0428 0.25314 0.36918 0.0
C1354 C 0.05974 0.25885 0.37599 0.0
C1355 C 0.06089 0.25234 0.38915 0.0
C1356 C 0.07642 0.27134 0.36956 0.0
C1357 C 0.04062 0.26035 0.3554 0.0
C1358 C 0.08007 0.26643 0.35632 0.0
C1359 C 0.09598 0.27798 0.35047 0.0
C1360 C 0.10859 0.29463 0.35779 0.0
C1361 C 0.10496 0.29953 0.37105 0.0
C1362 C 0.08905 0.28798 0.3769 0.0
H1363 H 0.02728 0.25888 0.35372 0.0
H1364 H 0.05079 0.27497 0.35505 0.0
H1365 H 0.04218 0.25245 0.34648 0.0
H1366 H 0.07074 0.25349 0.35059 0.0
H1367 H 0.0985 0.27378 0.3403 0.0
H1368 H 0.81325 0.77387 0.42351 0.0
H1369 H 0.78983 0.77958 0.41445 0.0
H1370 H 0.82566 0.81791 0.38689 0.0
H1371 H 0.84922 0.81263 0.39604 0.0
H1372 H 0.78997 0.81396 0.414 0.0
H1373 H 0.78194 0.78096 0.36009 0.0
H1374 H 0.79299 0.77716 0.37506 0.0
H1375 H 0.80432 0.79781 0.3662 0.0
C1376 C 0.81622 0.78366 0.41562 0.0
C1377 C 0.83313 0.79267 0.41043 0.0
C1378 C 0.80278 0.78683 0.41041 0.0
C1379 C 0.80593 0.79895 0.39985 0.0
C1380 C 0.82284 0.80822 0.39484 0.0
H1381 H 0.74669 0.83695 0.35046 0.0
H1382 H 0.76876 0.83042 0.36129 0.0
C1383 C 0.83628 0.80512 0.40006 0.0
C1384 C 0.79161 0.802 0.39403 0.0
H1385 H 0.76704 0.79763 0.36343 0.0
C1386 C 0.78484 0.81029 0.40297 0.0
C1387 C 0.78497 0.7972 0.37964 0.0
C1388 C 0.79128 0.78764 0.36968 0.0
C1389 C 0.77198 0.81443 0.39779 0.0
C1390 C 0.76545 0.80978 0.38335 0.0
C1391 C 0.77207 0.80125 0.37448 0.0
C1392 C 0.75204 0.81396 0.37709 0.0
C1393 C 0.76595 0.82429 0.40773 0.0
C1394 C 0.73522 0.80676 0.38228 0.0
C1395 C 0.72261 0.81056 0.37613 0.0
C1396 C 0.72655 0.82145 0.3646 0.0
C1397 C 0.7433 0.82851 0.35934 0.0
C1398 C 0.75592 0.82478 0.36552 0.0
H1399 H 0.7755 0.83114 0.41719 0.0
H1400 H 0.7642 0.83471 0.4023 0.0
H1401 H 0.75301 0.81428 0.41147 0.0
H1402 H 0.73176 0.79803 0.39097 0.0
H1403 H 0.70976 0.80489 0.38036 0.0
H1404 H 0.25532 0.04534 0.40198 0.0
H1405 H 0.24729 0.01604 0.38941 0.0
H1406 H 0.19344 0.99387 0.40049 0.0
H1407 H 0.20135 0.02313 0.41303 0.0
H1408 H 0.2347 0.98289 0.40017 0.0
H1409 H 0.18589 0.97886 0.35845 0.0
H1410 H 0.20067 0.99972 0.36917 0.0
H1411 H 0.18086 0.98236 0.37604 0.0
C1412 C 0.24174 0.03425 0.40171 0.0
C1413 C 0.22897 0.03663 0.4085 0.0
C1414 C 0.23716 0.01752 0.39447 0.0
C1415 C 0.2197 1.00279 0.39381 0.0
C1416 C 0.2069 1.00514 0.40052 0.0
H1417 H 0.16685 0.88794 0.36489 0.0
H1418 H 0.17506 0.91856 0.3747 0.0
C1419 C 0.21145 0.02189 0.40771 0.0
C1420 C 0.21514 0.98474 0.38674 0.0
H1421 H 0.18716 0.95167 0.36115 0.0
C1422 C 0.22441 0.97615 0.39155 0.0
C1423 C 0.20167 0.97589 0.37551 0.0
C1424 C 0.19181 0.98474 0.36938 0.0
C1425 C 0.22032 0.95881 0.3857 0.0
C1426 C 0.20676 0.9499 0.37457 0.0
C1427 C 0.19755 0.95851 0.36968 0.0
C1428 C 0.20172 0.93147 0.36807 0.0
C1429 C 0.23023 0.94995 0.39174 0.0
C1430 C 0.21387 0.92858 0.36083 0.0
C1431 C 0.20922 0.91105 0.35517 0.0
C1432 C 0.19228 0.89604 0.3566 0.0
C1433 C 0.18002 0.89911 0.36359 0.0
C1434 C 0.18468 0.91664 0.36921 0.0
H1435 H 0.23726 0.9566 0.40226 0.0
H1436 H 0.22107 0.93521 0.39284 0.0
H1437 H 0.24024 0.95111 0.38445 0.0
H1438 H 0.227 0.93988 0.35961 0.0
H1439 H 0.219 0.90926 0.34983 0.0
H1440 H 0.55482 0.63781 0.28125 0.0
H1441 H 0.57544 0.66671 0.29482 0.0
H1442 H 0.54203 0.68871 0.28266 0.0
H1443 H 0.52133 0.65984 0.26912 0.0
H1444 H 0.59423 0.70041 0.28508 0.0
H1445 H 0.55057 0.70195 0.32499 0.0
H1446 H 0.54493 0.68159 0.31393 0.0
H1447 H 0.5414 0.69909 0.30708 0.0
C1448 C 0.55183 0.64878 0.2815 0.0
C1449 C 0.53638 0.64647 0.27411 0.0
C1450 C 0.5636 0.66528 0.28931 0.0
C1451 C 0.56019 0.67983 0.28996 0.0
C1452 C 0.54475 0.67755 0.28265 0.0
H1453 H 0.61859 0.79383 0.32116 0.0
H1454 H 0.59692 0.76329 0.31068 0.0
C1455 C 0.53292 0.66102 0.27488 0.0
C1456 C 0.57326 0.69768 0.29763 0.0
H1457 H 0.57791 0.72959 0.32349 0.0
C1458 C 0.59069 0.70671 0.29356 0.0
C1459 C 0.56865 0.70593 0.3087 0.0
C1460 C 0.55042 0.69657 0.31404 0.0
C1461 C 0.6035 0.72392 0.29999 0.0
C1462 C 0.59884 0.73224 0.31094 0.0
C1463 C 0.58145 0.72319 0.31509 0.0
C1464 C 0.61173 0.75057 0.31795 0.0
C1465 C 0.62178 0.73329 0.29472 0.0
C1466 C 0.62712 0.75352 0.32578 0.0
C1467 C 0.63958 0.771 0.33183 0.0
C1468 C 0.63687 0.7859 0.33019 0.0
C1469 C 0.62119 0.78275 0.32264 0.0
C1470 C 0.60874 0.76526 0.31663 0.0
H1471 H 0.62206 0.72705 0.28425 0.0
H1472 H 0.62663 0.74805 0.29382 0.0
H1473 H 0.6311 0.73211 0.30239 0.0
H1474 H 0.62956 0.74231 0.32714 0.0
H1475 H 0.65145 0.77286 0.3376 0.0
H1476 H 0.36969 0.90881 0.26181 0.0
H1477 H 0.34247 0.90352 0.27214 0.0
H1478 H 0.34471 0.8642 0.29823 0.0
H1479 H 0.37172 0.86921 0.28791 0.0
H1480 H 0.30949 0.87088 0.27297 0.0
H1481 H 0.34149 0.89987 0.32706 0.0
H1482 H 0.35401 0.90357 0.31172 0.0
H1483 H 0.34555 0.8824 0.31997 0.0
C1484 C 0.36432 0.89892 0.26966 0.0
C1485 C 0.37304 0.88959 0.27413 0.0
C1486 C 0.3488 0.89598 0.2756 0.0
C1487 C 0.34175 0.88373 0.28616 0.0
C1488 C 0.35015 0.87405 0.29036 0.0
H1489 H 0.25155 0.84409 0.33677 0.0
H1490 H 0.27847 0.85053 0.32535 0.0
C1491 C 0.36562 0.87697 0.28444 0.0
C1492 C 0.32557 0.88093 0.29277 0.0
H1493 H 0.31 0.88387 0.32461 0.0
C1494 C 0.30961 0.87385 0.28423 0.0
C1495 C 0.32575 0.88481 0.30748 0.0
C1496 C 0.34264 0.89325 0.3171 0.0
C1497 C 0.29372 0.87003 0.29008 0.0
C1498 C 0.29387 0.8737 0.30482 0.0
C1499 C 0.30988 0.88099 0.31332 0.0
C1500 C 0.27755 0.8699 0.3117 0.0
C1501 C 0.27681 0.86161 0.28049 0.0
C1502 C 0.26822 0.87885 0.30797 0.0
C1503 C 0.25288 0.87522 0.31451 0.0
C1504 C 0.24663 0.86263 0.32493 0.0
C1505 C 0.25608 0.85385 0.32878 0.0
C1506 C 0.27144 0.85752 0.32226 0.0
H1507 H 0.27811 0.85551 0.27031 0.0
H1508 H 0.26559 0.85085 0.28571 0.0
H1509 H 0.27355 0.87234 0.27804 0.0
H1510 H 0.27286 0.88872 0.30006 0.0
H1511 H 0.24585 0.88218 0.31134 0.0
H1512 H 0.15486 0.49556 0.28225 0.0
H1513 H 0.16087 0.47323 0.29299 0.0
H1514 H 0.10655 0.44256 0.30322 0.0
H1515 H 0.10032 0.46464 0.29227 0.0
H1516 H 0.15627 0.46347 0.32175 0.0
H1517 H 0.11534 0.40371 0.28301 0.0
H1518 H 0.12201 0.42684 0.27908 0.0
H1519 H 0.10428 0.41497 0.29022 0.0
C1520 C 0.1441 0.48392 0.28659 0.0
C1521 C 0.12708 0.48188 0.28634 0.0
C1522 C 0.1476 0.47124 0.29282 0.0
C1523 C 0.13413 0.45613 0.2988 0.0
C1524 C 0.1171 0.45397 0.29851 0.0
H1525 H 0.13507 0.36455 0.33796 0.0
H1526 H 0.12625 0.38605 0.32956 0.0
C1527 C 0.1136 0.46671 0.29235 0.0
C1528 C 0.1381 0.44298 0.3057 0.0
H1529 H 0.12894 0.39868 0.30309 0.0
C1530 C 0.1503 0.4493 0.31768 0.0
C1531 C 0.13017 0.42445 0.30046 0.0
C1532 C 0.11731 0.41703 0.28742 0.0
C1533 C 0.15479 0.43761 0.32456 0.0
C1534 C 0.1472 0.41918 0.31912 0.0
C1535 C 0.13475 0.41278 0.30728 0.0
C1536 C 0.15266 0.40657 0.32509 0.0
C1537 C 0.16748 0.44511 0.3377 0.0
C1538 C 0.17043 0.41091 0.32541 0.0
C1539 C 0.17552 0.39872 0.33027 0.0
C1540 C 0.16294 0.38175 0.3348 0.0
C1541 C 0.14515 0.3775 0.33464 0.0
C1542 C 0.14006 0.38976 0.32978 0.0
H1543 H 0.16755 0.45714 0.34296 0.0
H1544 H 0.16406 0.43459 0.34543 0.0
H1545 H 0.1811 0.44961 0.3347 0.0
H1546 H 0.18034 0.42357 0.32155 0.0
H1547 H 0.18932 0.40248 0.33013 0.0
H1548 H 0.36669 0.4675 0.26175 0.0
H1549 H 0.33877 0.44602 0.2713 0.0
H1550 H 0.35188 0.48347 0.30815 0.0
H1551 H 0.37942 0.50521 0.29852 0.0
H1552 H 0.33338 0.42915 0.29667 0.0
H1553 H 0.30204 0.47217 0.29534 0.0
H1554 H 0.32125 0.47715 0.28594 0.0
H1555 H 0.32366 0.4834 0.30464 0.0
C1556 C 0.36353 0.47128 0.2718 0.0
C1557 C 0.37535 0.48814 0.27933 0.0
C1558 C 0.34761 0.45892 0.27729 0.0
C1559 C 0.34309 0.46322 0.29036 0.0
C1560 C 0.3549 0.47997 0.29793 0.0
H1561 H 0.2567 0.40984 0.34448 0.0
H1562 H 0.28437 0.43019 0.33404 0.0
C1563 C 0.37078 0.4923 0.29247 0.0
C1564 C 0.32625 0.45008 0.29628 0.0
H1565 H 0.28813 0.44574 0.30826 0.0
C1566 C 0.32342 0.43272 0.29911 0.0
C1567 C 0.31325 0.45474 0.29948 0.0
C1568 C 0.31508 0.47281 0.29608 0.0
C1569 C 0.30819 0.42009 0.30538 0.0
C1570 C 0.29529 0.42484 0.30873 0.0
C1571 C 0.29806 0.44214 0.30578 0.0
C1572 C 0.27881 0.41209 0.31527 0.0
C1573 C 0.30628 0.40198 0.30874 0.0
C1574 C 0.26642 0.39517 0.30818 0.0
C1575 C 0.25064 0.38352 0.31415 0.0
C1576 C 0.24689 0.38861 0.32728 0.0
C1577 C 0.25929 0.40552 0.33439 0.0
C1578 C 0.27507 0.41717 0.32841 0.0
H1579 H 0.31919 0.40233 0.30898 0.0
H1580 H 0.30066 0.39795 0.31911 0.0
H1581 H 0.29714 0.3913 0.30043 0.0
H1582 H 0.2688 0.3911 0.2979 0.0
H1583 H 0.24124 0.37065 0.30836 0.0
H1584 H 0.5177 0.88843 0.2807 0.0
H1585 H 0.53755 0.88071 0.29397 0.0
H1586 H 0.56953 0.89205 0.25847 0.0
H1587 H 0.54964 0.8994 0.24502 0.0
H1588 H 0.54743 0.85359 0.28618 0.0
H1589 H 0.60513 0.92417 0.29247 0.0
H1590 H 0.58283 0.91933 0.28779 0.0
H1591 H 0.59538 0.91616 0.27462 0.0
C1592 C 0.52886 0.88913 0.27565 0.0
C1593 C 0.53211 0.8947 0.2618 0.0
C1594 C 0.54024 0.8848 0.28329 0.0
C1595 C 0.55516 0.88609 0.27728 0.0
C1596 C 0.55829 0.89134 0.26341 0.0
H1597 H 0.64254 0.86985 0.30263 0.0
H1598 H 0.62122 0.87658 0.29059 0.0
C1599 C 0.54691 0.89559 0.25575 0.0
C1600 C 0.56742 0.8818 0.28542 0.0
H1601 H 0.61034 0.90048 0.29911 0.0
C1602 C 0.56116 0.86384 0.28911 0.0
C1603 C 0.58532 0.8952 0.28919 0.0
C1604 C 0.5926 0.91485 0.28594 0.0
C1605 C 0.57246 0.85881 0.29612 0.0
C1606 C 0.59042 0.8722 0.29981 0.0
C1607 C 0.5966 0.89021 0.29626 0.0
C1608 C 0.60314 0.86782 0.30715 0.0
C1609 C 0.56521 0.83907 0.29908 0.0
C1610 C 0.60017 0.86081 0.32054 0.0
C1611 C 0.61231 0.85688 0.32741 0.0
C1612 C 0.62772 0.86009 0.32108 0.0
C1613 C 0.63077 0.86728 0.30776 0.0
C1614 C 0.61861 0.87112 0.30088 0.0
H1615 H 0.55284 0.82984 0.29232 0.0
H1616 H 0.57506 0.83469 0.29729 0.0
H1617 H 0.56207 0.83742 0.31031 0.0
H1618 H 0.58855 0.85853 0.32575 0.0
H1619 H 0.60969 0.85143 0.3377 0.0
H1620 H 0.1002 0.63876 0.28383 0.0
H1621 H 0.10895 0.66858 0.29589 0.0
H1622 H 0.16294 0.68854 0.28606 0.0
H1623 H 0.15427 0.65893 0.27372 0.0
H1624 H 0.13504 0.68902 0.31903 0.0
H1625 H 0.15046 0.72565 0.26988 0.0
H1626 H 0.13777 0.70105 0.2696 0.0
H1627 H 0.16147 0.71281 0.27289 0.0
C1628 C 0.11393 0.64951 0.28418 0.0
C1629 C 0.1265 0.64646 0.2777 0.0
C1630 C 0.11892 0.66651 0.29116 0.0
C1631 C 0.13654 0.68087 0.2917 0.0
C1632 C 0.14921 0.67774 0.28559 0.0
H1633 H 0.19087 0.7956 0.32226 0.0
H1634 H 0.18286 0.76503 0.31254 0.0
C1635 C 0.14426 0.66073 0.27866 0.0
C1636 C 0.1416 0.69918 0.29848 0.0
H1637 H 0.15747 0.74371 0.29152 0.0
C1638 C 0.1399 0.70099 0.31303 0.0
C1639 C 0.14795 0.71477 0.29062 0.0
C1640 C 0.1494 0.71354 0.27486 0.0
C1641 C 0.14471 0.71804 0.32 0.0
C1642 C 0.15103 0.73364 0.31213 0.0
C1643 C 0.15268 0.73179 0.29757 0.0
C1644 C 0.15599 0.75204 0.31872 0.0
C1645 C 0.14339 0.71925 0.33578 0.0
C1646 C 0.14354 0.75501 0.32543 0.0
C1647 C 0.14809 0.77251 0.33108 0.0
C1648 C 0.16517 0.78749 0.33004 0.0
C1649 C 0.17761 0.78444 0.32333 0.0
C1650 C 0.17305 0.76694 0.31772 0.0
H1651 H 0.14323 0.70754 0.34077 0.0
H1652 H 0.15461 0.73214 0.34097 0.0
H1653 H 0.13087 0.719 0.33782 0.0
H1654 H 0.13016 0.74385 0.32604 0.0
H1655 H 0.13811 0.77433 0.33605 0.0
H1656 H 0.80368 0.0442 0.40371 0.0
H1657 H 0.78178 0.01523 0.39077 0.0
H1658 H 0.8102 0.98949 0.40695 0.0
H1659 H 0.83212 0.01833 0.41989 0.0
H1660 H 0.78496 0.9924 0.37021 0.0
H1661 H 0.7603 0.95682 0.41891 0.0
H1662 H 0.77424 0.9813 0.41921 0.0
H1663 H 0.78378 0.96678 0.41808 0.0
C1664 C 0.80539 0.03242 0.4044 0.0
C1665 C 0.81959 0.03356 0.41297 0.0
C1666 C 0.79281 0.01586 0.39704 0.0
C1667 C 0.79414 1.00009 0.39812 0.0
C1668 C 0.80864 1.00135 0.40625 0.0
H1669 H 0.73372 0.88641 0.36716 0.0
H1670 H 0.75573 0.91683 0.37749 0.0
C1671 C 0.82117 0.01786 0.41363 0.0
C1672 C 0.78029 0.98227 0.39092 0.0
H1673 H 0.75024 0.93837 0.39715 0.0
C1674 C 0.77728 0.98061 0.37609 0.0
C1675 C 0.77022 0.9669 0.39861 0.0
C1676 C 0.77214 0.96802 0.41459 0.0
C1677 C 0.76486 0.96384 0.36873 0.0
C1678 C 0.755 0.94841 0.37642 0.0
C1679 C 0.75786 0.95017 0.39125 0.0
C1680 C 0.7419 0.93017 0.36936 0.0
C1681 C 0.76276 0.96266 0.35276 0.0
C1682 C 0.72674 0.9275 0.36132 0.0
C1683 C 0.71405 0.91004 0.35533 0.0
C1684 C 0.71624 0.89488 0.35735 0.0
C1685 C 0.73154 0.8977 0.36533 0.0
C1686 C 0.74418 0.91512 0.37128 0.0
H1687 H 0.77414 0.97431 0.34836 0.0
H1688 H 0.76145 0.94971 0.34816 0.0
H1689 H 0.75055 0.96291 0.34935 0.0
H1690 H 0.72451 0.93884 0.35992 0.0
H1691 H 0.7024 0.90839 0.34935 0.0
H1692 H 0.98596 0.80658 0.40964 0.0
H1693 H 0.01143 0.81378 0.39594 0.0
H1694 H 0.02043 0.77528 0.41792 0.0
H1695 H 0.99469 0.7675 0.43124 0.0
H1696 H 0.04662 0.82784 0.40553 0.0
H1697 H 0.02047 0.75985 0.37673 0.0
H1698 H 1.00653 0.76618 0.38603 0.0
H1699 H 0.01997 0.75893 0.39559 0.0
C1700 C 0.99319 0.79944 0.41141 0.0
C1701 C 0.9882 0.78641 0.42154 0.0
C1702 C 1.00783 0.80367 0.40364 0.0
C1703 C 0.0177 0.79488 0.40574 0.0
C1704 C 0.01283 0.78198 0.4159 0.0
H1705 H 0.11386 0.80312 0.37764 0.0
H1706 H 0.08691 0.79617 0.38917 0.0
C1707 C 0.99822 0.77773 0.42365 0.0
C1708 C 0.0334 0.79953 0.39765 0.0
H1709 H 0.05134 0.78089 0.37591 0.0
C1710 C 0.04759 0.81762 0.39894 0.0
C1711 C 0.03465 0.78618 0.38904 0.0
C1712 C 0.01953 0.76674 0.38663 0.0
C1713 C 0.0632 0.82259 0.39221 0.0
C1714 C 0.06455 0.80916 0.38383 0.0
C1715 C 0.05029 0.79114 0.38238 0.0
C1716 C 0.08082 0.81344 0.37673 0.0
C1717 C 0.07834 0.84203 0.39446 0.0
C1718 C 0.08624 0.82531 0.3658 0.0
C1719 C 0.10159 0.82923 0.35915 0.0
C1720 C 0.11176 0.82132 0.36332 0.0
C1721 C 0.10625 0.80937 0.37419 0.0
C1722 C 0.09088 0.8054 0.38079 0.0
H1723 H 0.07657 0.84976 0.4034 0.0
H1724 H 0.09112 0.84235 0.3966 0.0
H1725 H 0.07918 0.84911 0.38471 0.0
H1726 H 0.07853 0.83146 0.36236 0.0
H1727 H 0.10554 0.83848 0.35078 0.0
H1728 H 0.24173 0.22018 0.41377 0.0
H1729 H 0.23562 0.24284 0.40377 0.0
H1730 H 0.20456 0.20427 0.36839 0.0
H1731 H 0.21042 0.18151 0.37835 0.0
H1732 H 0.22808 0.23917 0.36028 0.0
H1733 H 0.1884 0.24238 0.40322 0.0
H1734 H 0.21006 0.24656 0.4091 0.0
H1735 H 0.19372 0.22442 0.40109 0.0
C1736 C 0.23345 0.21643 0.40394 0.0
C1737 C 0.22656 0.19895 0.3969 0.0
C1738 C 0.22999 0.22943 0.39822 0.0
C1739 C 0.21948 0.22521 0.38539 0.0
C1740 C 0.21273 0.20786 0.37829 0.0
H1741 H 0.1656 0.27954 0.3523 0.0
H1742 H 0.17424 0.25822 0.36103 0.0
C1743 C 0.21617 0.19487 0.38399 0.0
C1744 C 0.21546 0.23878 0.37932 0.0
H1745 H 0.19473 0.26327 0.38564 0.0
C1746 C 0.22081 0.24448 0.36583 0.0
C1747 C 0.20581 0.24554 0.38649 0.0
C1748 C 0.199 0.23933 0.40072 0.0
C1749 C 0.21683 0.25678 0.35934 0.0
C1750 C 0.20741 0.26375 0.36661 0.0
C1751 C 0.20204 0.25802 0.38009 0.0
C1752 C 0.20239 0.2765 0.36029 0.0
C1753 C 0.22234 0.26184 0.34461 0.0
C1754 C 0.21533 0.29388 0.35678 0.0
C1755 C 0.21042 0.30617 0.35169 0.0
C1756 C 0.19246 0.30136 0.35013 0.0
C1757 C 0.17955 0.28378 0.35337 0.0
C1758 C 0.18447 0.27154 0.35841 0.0
H1759 H 0.22551 0.25204 0.3392 0.0
H1760 H 0.21174 0.26232 0.33802 0.0
H1761 H 0.23437 0.27559 0.3453 0.0
H1762 H 0.22926 0.29815 0.35836 0.0
H1763 H 0.22073 0.31961 0.34942 0.0
H1764 H 0.66345 0.5262 0.75599 0.0
H1765 H 0.69133 0.54857 0.74695 0.0
H1766 H 0.66218 0.55847 0.71391 0.0
H1767 H 0.6343 0.53659 0.72311 0.0
H1768 H 0.70297 0.54758 0.72057 0.0
H1769 H 0.69845 0.61014 0.72988 0.0
H1770 H 0.68451 0.58927 0.73797 0.0
H1771 H 0.67931 0.59182 0.71992 0.0
C1772 C 0.66296 0.53338 0.74696 0.0
C1773 C 0.64658 0.52958 0.74031 0.0
C1774 C 0.67892 0.54608 0.74174 0.0
C1775 C 0.67889 0.55539 0.72984 0.0
C1776 C 0.66259 0.55173 0.72324 0.0
H1777 H 0.76344 0.60802 0.67369 0.0
H1778 H 0.73612 0.58778 0.6846 0.0
C1779 C 0.64663 0.53903 0.72843 0.0
C1780 C 0.69584 0.56832 0.72396 0.0
H1781 H 0.72064 0.61232 0.71508 0.0
C1782 C 0.70688 0.56176 0.71944 0.0
C1783 C 0.70108 0.58689 0.72263 0.0
C1784 C 0.69032 0.59503 0.72798 0.0
C1785 C 0.72275 0.57312 0.71335 0.0
C1786 C 0.72762 0.5915 0.71149 0.0
C1787 C 0.71681 0.59818 0.71633 0.0
C1788 C 0.74396 0.60404 0.70468 0.0
C1789 C 0.7343 0.56539 0.70915 0.0
C1790 C 0.75723 0.62022 0.71215 0.0
C1791 C 0.77275 0.63189 0.70588 0.0
C1792 C 0.77527 0.62763 0.69199 0.0
C1793 C 0.76187 0.61161 0.68442 0.0
C1794 C 0.74632 0.59998 0.69069 0.0
H1795 H 0.7313 0.55302 0.71472 0.0
H1796 H 0.73185 0.56143 0.69759 0.0
H1797 H 0.74856 0.57566 0.71148 0.0
H1798 H 0.75571 0.62369 0.72294 0.0
H1799 H 0.78289 0.64411 0.71199 0.0
H1800 H 0.49232 0.10832 0.72563 0.0
H1801 H 0.46929 0.11435 0.71631 0.0
H1802 H 0.47532 0.14609 0.75517 0.0
H1803 H 0.49877 0.14057 0.76443 0.0
H1804 H 0.43698 0.10651 0.72663 0.0
H1805 H 0.48151 0.18125 0.72462 0.0
H1806 H 0.48979 0.16574 0.727 0.0
H1807 H 0.48171 0.17282 0.74165 0.0
C1808 C 0.48887 0.11671 0.73217 0.0
C1809 C 0.49755 0.12411 0.74574 0.0
C1810 C 0.4756 0.12003 0.72686 0.0
C1811 C 0.47076 0.1309 0.73495 0.0
C1812 C 0.47905 0.13792 0.74864 0.0
H1813 H 0.37719 0.14116 0.71494 0.0
H1814 H 0.399 0.13444 0.72617 0.0
C1815 C 0.49232 0.13459 0.75398 0.0
C1816 C 0.45715 0.13493 0.72895 0.0
H1817 H 0.45093 0.16972 0.71887 0.0
C1818 C 0.44 0.12033 0.72496 0.0
C1819 C 0.46118 0.15295 0.72661 0.0
C1820 C 0.47958 0.16911 0.73006 0.0
C1821 C 0.42676 0.12327 0.71876 0.0
C1822 C 0.43071 0.14132 0.71665 0.0
C1823 C 0.44788 0.15591 0.72059 0.0
C1824 C 0.41741 0.14534 0.70995 0.0
C1825 C 0.40879 0.10697 0.71418 0.0
C1826 C 0.42067 0.15408 0.69727 0.0
C1827 C 0.40829 0.15801 0.6909 0.0
C1828 C 0.39244 0.15334 0.69711 0.0
C1829 C 0.38923 0.14475 0.70986 0.0
C1830 C 0.40164 0.14084 0.71625 0.0
H1831 H 0.40922 0.09407 0.71333 0.0
H1832 H 0.39937 0.10562 0.72212 0.0
H1833 H 0.40358 0.1087 0.70379 0.0
H1834 H 0.43277 0.15776 0.69226 0.0
H1835 H 0.41113 0.16471 0.68111 0.0
H1836 H 0.91828 0.37642 0.73488 0.0
H1837 H 0.91005 0.34711 0.72221 0.0
H1838 H 0.85634 0.32513 0.73357 0.0
H1839 H 0.86444 0.3544 0.74619 0.0
H1840 H 0.89749 0.31391 0.73269 0.0
H1841 H 0.8483 0.31031 0.69155 0.0
H1842 H 0.86318 0.33107 0.70233 0.0
H1843 H 0.84343 0.31366 0.70924 0.0
C1844 C 0.9047 0.36536 0.73465 0.0
C1845 C 0.89201 0.3678 0.74153 0.0
C1846 C 0.9 0.34863 0.72736 0.0
C1847 C 0.88251 0.33395 0.72673 0.0
C1848 C 0.8698 0.33635 0.73356 0.0
H1849 H 0.82968 0.21909 0.69723 0.0
H1850 H 0.83781 0.24951 0.70753 0.0
C1851 C 0.87447 0.35312 0.7408 0.0
C1852 C 0.8778 0.31591 0.71955 0.0
H1853 H 0.8495 0.28303 0.69396 0.0
C1854 C 0.88709 0.30724 0.72415 0.0
C1855 C 0.8642 0.30715 0.7084 0.0
C1856 C 0.85431 0.31609 0.70248 0.0
C1857 C 0.88292 0.28995 0.71814 0.0
C1858 C 0.86923 0.28114 0.70709 0.0
C1859 C 0.85997 0.2898 0.70245 0.0
C1860 C 0.86421 0.26282 0.70037 0.0
C1861 C 0.8929 0.28102 0.72389 0.0
C1862 C 0.87625 0.26024 0.6927 0.0
C1863 C 0.87164 0.24285 0.68674 0.0
C1864 C 0.85486 0.22767 0.68831 0.0
C1865 C 0.84272 0.23041 0.69578 0.0
C1866 C 0.84733 0.24781 0.70169 0.0
H1867 H 0.90017 0.28764 0.73435 0.0
H1868 H 0.88374 0.26628 0.72502 0.0
H1869 H 0.90271 0.28213 0.7164 0.0
H1870 H 0.88926 0.27168 0.69136 0.0
H1871 H 0.88133 0.24131 0.68104 0.0
H1872 H 0.18352 0.98183 0.61685 0.0
H1873 H 0.20446 0.01071 0.63044 0.0
H1874 H 0.24711 0.01335 0.60766 0.0
H1875 H 0.22639 0.98451 0.59417 0.0
H1876 H 0.23613 0.0214 0.64787 0.0
H1877 H 0.24922 0.0621 0.60106 0.0
H1878 H 0.23076 0.03912 0.60103 0.0
H1879 H 0.25264 0.04295 0.59875 0.0
C1880 C 0.19738 0.98844 0.61484 0.0
C1881 C 0.2032 0.98092 0.60427 0.0
C1882 C 0.20933 1.00499 0.62258 0.0
C1883 C 0.22729 0.01436 0.61988 0.0
C1884 C 0.23324 1.00658 0.6097 0.0
H1885 H 0.31738 0.10577 0.66913 0.0
H1886 H 0.29511 0.07554 0.65835 0.0
C1887 C 0.22135 0.99009 0.60197 0.0
C1888 C 0.23981 0.03243 0.62748 0.0
H1889 H 0.26773 0.07723 0.62209 0.0
C1890 C 0.243 0.03364 0.64226 0.0
C1891 C 0.2486 0.04843 0.62017 0.0
C1892 C 0.24505 0.0482 0.6044 0.0
C1893 C 0.25503 0.05036 0.64989 0.0
C1894 C 0.26426 0.06623 0.6425 0.0
C1895 C 0.26079 0.06505 0.62775 0.0
C1896 C 0.27739 0.08433 0.6498 0.0
C1897 C 0.25753 0.05092 0.6658 0.0
C1898 C 0.275 0.09942 0.64846 0.0
C1899 C 0.28776 0.11673 0.65451 0.0
C1900 C 0.30329 0.11942 0.66203 0.0
C1901 C 0.30556 0.10423 0.66352 0.0
C1902 C 0.29277 0.08688 0.65742 0.0
H1903 H 0.24627 0.03905 0.6701 0.0
H1904 H 0.26977 0.0505 0.66873 0.0
H1905 H 0.25895 0.06369 0.67091 0.0
H1906 H 0.26329 0.09782 0.64259 0.0
H1907 H 0.28551 0.12806 0.65311 0.0
H1908 H 0.04045 0.2113 0.62499 0.0
H1909 H 0.01296 0.20598 0.63456 0.0
H1910 H 1.00173 0.22928 0.59873 0.0
H1911 H 0.02888 0.23395 0.58874 0.0
H1912 H 1.00263 0.23049 0.64249 0.0
H1913 H 0.95565 0.18115 0.59927 0.0
H1914 H 0.97875 0.1876 0.60107 0.0
H1915 H 0.97212 0.20255 0.59345 0.0
C1916 C 0.03202 0.21504 0.619 0.0
C1917 C 0.03685 0.22289 0.60599 0.0
C1918 C 0.01636 0.21212 0.62456 0.0
C1919 C 1.00511 0.21695 0.61727 0.0
C1920 C 0.01 0.22508 0.60441 0.0
H1921 H 0.90461 0.2081 0.63753 0.0
H1922 H 0.93221 0.21537 0.62686 0.0
C1923 C 0.02566 0.22796 0.5988 0.0
C1924 C 0.98849 0.21375 0.62334 0.0
H1925 H 0.94339 0.19097 0.61702 0.0
C1926 C 0.98968 0.22183 0.63692 0.0
C1927 C 0.97158 0.20248 0.61607 0.0
C1928 C 0.96936 0.1928 0.60171 0.0
C1929 C 0.97446 0.21901 0.64339 0.0
C1930 C 0.95756 0.2076 0.63618 0.0
C1931 C 0.95636 0.19971 0.62253 0.0
C1932 C 0.94096 0.20337 0.64275 0.0
C1933 C 0.97662 0.22846 0.65783 0.0
C1934 C 0.93662 0.19403 0.65513 0.0
C1935 C 0.92088 0.18986 0.66122 0.0
C1936 C 0.90919 0.19492 0.65503 0.0
C1937 C 0.91346 0.20415 0.64258 0.0
C1938 C 0.92918 0.20827 0.63646 0.0
H1939 H 0.99023 0.24028 0.66025 0.0
H1940 H 0.96699 0.23334 0.65864 0.0
H1941 H 0.97413 0.21865 0.66601 0.0
H1942 H 0.94533 0.1898 0.66 0.0
H1943 H 0.91784 0.18262 0.67076 0.0
H1944 H 0.81236 0.83505 0.63971 0.0
H1945 H 0.81816 0.8122 0.64958 0.0
H1946 H 0.78453 0.77277 0.61546 0.0
H1947 H 0.77846 0.79551 0.60555 0.0
H1948 H 0.79451 0.77779 0.65871 0.0
H1949 H 0.83106 0.77188 0.6143 0.0
H1950 H 0.82646 0.79034 0.61659 0.0
H1951 H 0.80937 0.76819 0.60921 0.0
C1952 C 0.80604 0.82148 0.63434 0.0
C1953 C 0.79493 0.81717 0.62179 0.0
C1954 C 0.80944 0.80844 0.63998 0.0
C1955 C 0.80194 0.79082 0.6332 0.0
C1956 C 0.79073 0.78638 0.62075 0.0
H1957 H 0.80093 0.69674 0.66964 0.0
H1958 H 0.79233 0.71819 0.66076 0.0
C1959 C 0.7873 0.79943 0.61508 0.0
C1960 C 0.80592 0.77719 0.63921 0.0
H1961 H 0.8255 0.75169 0.63231 0.0
C1962 C 0.80125 0.77204 0.65294 0.0
C1963 C 0.81487 0.76984 0.63172 0.0
C1964 C 0.8209 0.77542 0.61719 0.0
C1965 C 0.80527 0.75973 0.65937 0.0
C1966 C 0.81403 0.75221 0.65181 0.0
C1967 C 0.81869 0.75737 0.63808 0.0
C1968 C 0.81912 0.7395 0.65807 0.0
C1969 C 0.80052 0.75525 0.67433 0.0
C1970 C 0.83702 0.74428 0.65951 0.0
C1971 C 0.84197 0.73206 0.66454 0.0
C1972 C 0.82912 0.71467 0.66819 0.0
C1973 C 0.8112 0.71004 0.66704 0.0
C1974 C 0.80625 0.72232 0.66199 0.0
H1975 H 0.7977 0.7653 0.67978 0.0
H1976 H 0.78847 0.74156 0.67409 0.0
H1977 H 0.81138 0.75488 0.68063 0.0
H1978 H 0.84719 0.75745 0.65657 0.0
H1979 H 0.85589 0.73616 0.66527 0.0
H1980 H 0.04554 0.8385 0.63226 0.0
H1981 H 0.01817 0.81638 0.64192 0.0
H1982 H 1.0058 0.77897 0.60516 0.0
H1983 H 0.03354 0.80077 0.59563 0.0
H1984 H 0.9837 0.80168 0.63084 0.0
H1985 H 0.99986 0.74665 0.63737 0.0
H1986 H 0.01637 0.76961 0.63409 0.0
H1987 H 1.00147 0.75404 0.61977 0.0
C1988 C 0.03717 0.82546 0.6263 0.0
C1989 C 0.04192 0.8214 0.6132 0.0
C1990 C 0.02142 0.81287 0.6318 0.0
C1991 C 0.01002 0.79587 0.6244 0.0
C1992 C 0.01454 0.79183 0.61122 0.0
H1993 H 0.90763 0.70416 0.6417 0.0
H1994 H 0.93522 0.72499 0.63138 0.0
C1995 C 0.03033 0.80443 0.6057 0.0
C1996 C 0.99325 0.78264 0.63036 0.0
H1997 H 0.97071 0.73963 0.6417 0.0
C1998 C 0.98089 0.78814 0.63325 0.0
C1999 C 0.98953 0.76493 0.63348 0.0
C2000 C 1.00255 0.75846 0.63115 0.0
C2001 C 0.9649 0.77639 0.63903 0.0
C2002 C 0.96125 0.75874 0.64226 0.0
C2003 C 0.97352 0.75317 0.63925 0.0
C2004 C 0.94479 0.74589 0.64877 0.0
C2005 C 0.95188 0.78287 0.64137 0.0
C2006 C 0.94114 0.75052 0.66212 0.0
C2007 C 0.9254 0.73863 0.66803 0.0
C2008 C 0.91306 0.72183 0.66075 0.0
C2009 C 0.91691 0.71701 0.64756 0.0
C2010 C 0.93266 0.7289 0.64165 0.0
H2011 H 0.95442 0.7945 0.63498 0.0
H2012 H 0.93804 0.77165 0.63863 0.0
H2013 H 0.95316 0.78754 0.65271 0.0
H2014 H 0.95045 0.76338 0.66795 0.0
H2015 H 0.9228 0.74268 0.67824 0.0
H2016 H 0.21506 0.25469 0.60511 0.0
H2017 H 0.23564 0.24734 0.61758 0.0
H2018 H 0.20218 0.19053 0.603 0.0
H2019 H 0.18164 0.19782 0.59037 0.0
H2020 H 0.2315 0.22525 0.6386 0.0
H2021 H 0.24965 0.20048 0.59065 0.0
H2022 H 0.23743 0.21247 0.58971 0.0
H2023 H 0.22628 0.18854 0.5926 0.0
C2024 C 0.21202 0.24061 0.60463 0.0
C2025 C 0.19676 0.22685 0.59667 0.0
C2026 C 0.22383 0.23644 0.61172 0.0
C2027 C 0.22066 0.21844 0.61101 0.0
C2028 C 0.20518 0.20459 0.60339 0.0
H2029 H 0.27395 0.17838 0.66712 0.0
H2030 H 0.25266 0.18529 0.65524 0.0
C2031 C 0.19342 0.20877 0.59621 0.0
C2032 C 0.2335 0.2142 0.61833 0.0
H2033 H 0.25997 0.19579 0.61283 0.0
C2034 C 0.23775 0.21885 0.63297 0.0
C2035 C 0.24188 0.20608 0.61094 0.0
C2036 C 0.23874 0.20176 0.59509 0.0
C2037 C 0.24997 0.21542 0.64043 0.0
C2038 C 0.25788 0.20674 0.63313 0.0
C2039 C 0.25377 0.20228 0.61847 0.0
C2040 C 0.27072 0.20248 0.64041 0.0
C2041 C 0.25458 0.22154 0.65601 0.0
C2042 C 0.2878 0.20939 0.63579 0.0
C2043 C 0.29989 0.20528 0.64247 0.0
C2044 C 0.29513 0.19416 0.65388 0.0
C2045 C 0.27801 0.18713 0.65844 0.0
C2046 C 0.26588 0.19116 0.65171 0.0
H2047 H 0.2514 0.23235 0.65902 0.0
H2048 H 0.24674 0.20973 0.66228 0.0
H2049 H 0.26886 0.22683 0.65897 0.0
H2050 H 0.29181 0.21805 0.62705 0.0
H2051 H 0.31297 0.21079 0.63869 0.0
H2052 H 0.76529 0.97141 0.61475 0.0
H2053 H 0.77375 1.00113 0.62683 0.0
H2054 H 0.82818 0.021 0.61842 0.0
H2055 H 0.8198 0.99146 0.60607 0.0
H2056 H 0.79921 0.02118 0.65057 0.0
H2057 H 0.81641 0.05847 0.60175 0.0
H2058 H 0.80352 0.03386 0.60126 0.0
H2059 H 0.82715 0.04544 0.60505 0.0
C2060 C 0.77905 0.98212 0.61541 0.0
C2061 C 0.79184 0.97907 0.60934 0.0
C2062 C 0.78388 0.99907 0.6224 0.0
C2063 C 0.80155 0.01336 0.62336 0.0
C2064 C 0.81442 0.01024 0.61763 0.0
H2065 H 0.85498 0.12786 0.65436 0.0
H2066 H 0.8473 0.09735 0.64474 0.0
C2067 C 0.80963 0.99328 0.61069 0.0
C2068 C 0.80645 0.0316 0.63017 0.0
H2069 H 0.82259 0.07623 0.62342 0.0
C2070 C 0.80429 0.03323 0.64465 0.0
C2071 C 0.81308 0.0473 0.62242 0.0
C2072 C 0.81507 0.04625 0.60673 0.0
C2073 C 0.80889 0.05021 0.65165 0.0
C2074 C 0.81547 0.06591 0.64388 0.0
C2075 C 0.81759 0.06423 0.62939 0.0
C2076 C 0.82023 0.08424 0.65049 0.0
C2077 C 0.80708 0.05122 0.66736 0.0
C2078 C 0.80758 0.0871 0.65695 0.0
C2079 C 0.81195 0.10457 0.66256 0.0
C2080 C 0.82904 0.11961 0.6617 0.0
C2081 C 0.8417 0.11665 0.65527 0.0
C2082 C 0.83733 0.09918 0.64972 0.0
H2083 H 0.80681 0.03948 0.67238 0.0
H2084 H 0.81812 0.06409 0.67274 0.0
H2085 H 0.79445 0.05087 0.66913 0.0
H2086 H 0.79417 0.0759 0.65738 0.0
H2087 H 0.80181 0.10633 0.6673 0.0
H2088 H 0.49959 0.35416 0.75067 0.0
H2089 H 0.47875 0.32496 0.73754 0.0
H2090 H 0.4464 0.34738 0.72342 0.0
H2091 H 0.46735 0.37674 0.73626 0.0
H2092 H 0.44251 0.30303 0.74174 0.0
H2093 H 0.45161 0.32355 0.68658 0.0
H2094 H 0.46733 0.33721 0.70131 0.0
H2095 H 0.44705 0.33761 0.69839 0.0
C2096 C 0.48822 0.353 0.74456 0.0
C2097 C 0.48519 0.36784 0.7445 0.0
C2098 C 0.47626 0.33625 0.73713 0.0
C2099 C 0.46111 0.33402 0.72936 0.0
C2100 C 0.45813 0.34885 0.72914 0.0
H2101 H 0.36959 0.24139 0.68253 0.0
H2102 H 0.39177 0.27164 0.6934 0.0
C2103 C 0.47004 0.36558 0.73662 0.0
C2104 C 0.44798 0.31593 0.72211 0.0
H2105 H 0.42779 0.29392 0.68973 0.0
C2106 C 0.43936 0.30101 0.73036 0.0
C2107 C 0.44378 0.31334 0.70727 0.0
C2108 C 0.45301 0.32872 0.69782 0.0
C2109 C 0.4265 0.28365 0.72423 0.0
C2110 C 0.42238 0.28101 0.70937 0.0
C2111 C 0.43095 0.29594 0.70111 0.0
C2112 C 0.4093 0.2628 0.70223 0.0
C2113 C 0.41712 0.26841 0.73378 0.0
C2114 C 0.41197 0.24785 0.70328 0.0
C2115 C 0.39932 0.23055 0.69712 0.0
C2116 C 0.38375 0.22781 0.68964 0.0
C2117 C 0.38138 0.24295 0.68822 0.0
C2118 C 0.39405 0.26027 0.69443 0.0
H2119 H 0.41814 0.27375 0.74491 0.0
H2120 H 0.40288 0.25969 0.73009 0.0
H2121 H 0.4233 0.25971 0.73366 0.0
H2122 H 0.42381 0.24953 0.70897 0.0
H2123 H 0.4017 0.21928 0.69837 0.0
H2124 H 0.66451 0.14906 0.7577 0.0
H2125 H 0.68985 0.15676 0.7437 0.0
H2126 H 0.66985 0.09949 0.73272 0.0
H2127 H 0.64437 0.09169 0.74653 0.0
H2128 H 0.7153 0.14504 0.74782 0.0
H2129 H 0.67988 0.12275 0.69411 0.0
H2130 H 0.67029 0.12707 0.70923 0.0
H2131 H 0.67072 0.10613 0.70697 0.0
C2132 C 0.66537 0.13811 0.75215 0.0
C2133 C 0.65238 0.11976 0.75321 0.0
C2134 C 0.67991 0.14253 0.74422 0.0
C2135 C 0.68164 0.12871 0.73705 0.0
C2136 C 0.66866 0.11039 0.73801 0.0
H2137 H 0.77428 0.13165 0.70541 0.0
H2138 H 0.74794 0.12538 0.71761 0.0
C2139 C 0.65419 0.10595 0.74601 0.0
C2140 C 0.69737 0.13341 0.72902 0.0
H2141 H 0.71005 0.13028 0.69593 0.0
C2142 C 0.71417 0.14189 0.73647 0.0
C2143 C 0.69589 0.12944 0.71419 0.0
C2144 C 0.67826 0.12099 0.70559 0.0
C2145 C 0.72947 0.14611 0.72954 0.0
C2146 C 0.72792 0.14163 0.71478 0.0
C2147 C 0.71118 0.13356 0.70726 0.0
C2148 C 0.74353 0.14506 0.70703 0.0
C2149 C 0.74723 0.15543 0.73803 0.0
C2150 C 0.74955 0.15791 0.69681 0.0
C2151 C 0.76463 0.16154 0.68984 0.0
C2152 C 0.77378 0.15219 0.69286 0.0
C2153 C 0.76748 0.13904 0.70286 0.0
C2154 C 0.7525 0.13552 0.70989 0.0
H2155 H 0.7467 0.16158 0.74846 0.0
H2156 H 0.75139 0.14523 0.73996 0.0
H2157 H 0.75748 0.16629 0.73213 0.0
H2158 H 0.74277 0.16537 0.69442 0.0
H2159 H 0.76922 0.17175 0.68219 0.0
H2160 H 0.91621 0.54981 0.73147 0.0
H2161 H 0.91142 0.57336 0.72143 0.0
H2162 H 0.85492 0.53706 0.71969 0.0
H2163 H 0.85955 0.51368 0.73 0.0
H2164 H 0.89328 0.5714 0.69518 0.0
H2165 H 0.86177 0.584 0.74039 0.0
H2166 H 0.87407 0.57212 0.7419 0.0
H2167 H 0.85159 0.56034 0.73413 0.0
C2168 C 0.90276 0.54693 0.72913 0.0
C2169 C 0.88826 0.52984 0.73159 0.0
C2170 C 0.90005 0.56036 0.7233 0.0
C2171 C 0.88281 0.55707 0.71995 0.0
C2172 C 0.86834 0.54004 0.72238 0.0
H2173 H 0.83136 0.61196 0.68434 0.0
H2174 H 0.83974 0.5906 0.69341 0.0
C2175 C 0.87102 0.5266 0.72815 0.0
C2176 C 0.87985 0.57122 0.71367 0.0
H2177 H 0.85952 0.59633 0.71882 0.0
C2178 C 0.88604 0.577 0.70039 0.0
C2179 C 0.87045 0.57854 0.7205 0.0
C2180 C 0.86422 0.57359 0.73508 0.0
C2181 C 0.8825 0.58938 0.69352 0.0
C2182 C 0.87274 0.59638 0.70022 0.0
C2183 C 0.8669 0.59088 0.71364 0.0
C2184 C 0.86796 0.60903 0.69343 0.0
C2185 C 0.8887 0.59438 0.67895 0.0
C2186 C 0.88105 0.62649 0.69019 0.0
C2187 C 0.87629 0.63881 0.68492 0.0
C2188 C 0.85835 0.63395 0.6829 0.0
C2189 C 0.84531 0.61625 0.68577 0.0
C2190 C 0.85007 0.60399 0.691 0.0
H2191 H 0.89227 0.58467 0.67394 0.0
H2192 H 0.87831 0.59466 0.67191 0.0
H2193 H 0.90062 0.60822 0.6798 0.0
H2194 H 0.89495 0.63082 0.6922 0.0
H2195 H 0.8867 0.65235 0.68293 0.0
H2196 H 0.44299 0.95025 0.1469 0.0
H2197 H 0.45256 0.96243 0.12402 0.0
H2198 H 0.50353 0.96751 0.13419 0.0
H2199 H 0.49429 0.95578 0.15726 0.0
H2200 H 0.48322 0.9974 0.11915 0.0
H2201 H 0.48593 0.93808 0.09462 0.0
H2202 H 0.47374 0.93646 0.10988 0.0
H2203 H 0.49744 0.94686 0.1119 0.0
C2204 C 0.4563 0.95409 0.14437 0.0
C2205 C 0.46785 0.952 0.154 0.0
C2206 C 0.4617 0.96095 0.13123 0.0
C2207 C 0.47867 0.96568 0.12735 0.0
C2208 C 0.49025 0.96364 0.13688 0.0
H2209 H 0.53656 0.007 0.05329 0.0
H2210 H 0.52625 0.99506 0.0761 0.0
C2211 C 0.48491 0.95687 0.15006 0.0
C2212 C 0.48441 0.97317 0.11346 0.0
H2213 H 0.49694 0.96444 0.08183 0.0
C2214 C 0.48615 0.99018 0.11094 0.0
C2215 C 0.48827 0.96375 0.10282 0.0
C2216 C 0.48614 0.9452 0.10482 0.0
C2217 C 0.49207 0.99824 0.09818 0.0
C2218 C 0.49589 0.98878 0.08748 0.0
C2219 C 0.49402 0.97169 0.09 0.0
C2220 C 0.50219 0.99648 0.07371 0.0
C2221 C 0.4947 0.01705 0.09649 0.0
C2222 C 0.49212 1.00125 0.06471 0.0
C2223 C 0.49814 0.00833 0.05173 0.0
C2224 C 0.51414 0.0104 0.04739 0.0
C2225 C 0.5242 1.00562 0.05639 0.0
C2226 C 0.51826 0.99869 0.06939 0.0
H2227 H 0.49616 0.02443 0.10691 0.0
H2228 H 0.50659 0.02542 0.09075 0.0
H2229 H 0.48295 0.01576 0.09032 0.0
H2230 H 0.47952 0.99936 0.06765 0.0
H2231 H 0.49035 0.01228 0.04513 0.0
H2232 H 0.0685 0.54956 0.16195 0.0
H2233 H 0.05592 0.54625 0.13763 0.0
H2234 H 0.05614 0.49581 0.12999 0.0
H2235 H 0.06806 0.4986 0.1544 0.0
H2236 H 0.06949 0.54391 0.11205 0.0
H2237 H 1.00523 0.481 0.11721 0.0
H2238 H 0.01999 0.49473 0.13237 0.0
H2239 H 0.02432 0.47913 0.12223 0.0
C2240 C 0.06567 0.53763 0.15517 0.0
C2241 C 0.06925 0.52431 0.16023 0.0
C2242 C 0.05859 0.53584 0.14122 0.0
C2243 C 0.05483 0.52065 0.13202 0.0
C2244 C 0.05861 0.50748 0.13695 0.0
H2245 H 0.00848 0.48533 0.04451 0.0
H2246 H 0.02252 0.48816 0.0683 0.0
C2247 C 0.06566 0.50923 0.15089 0.0
C2248 C 0.04717 0.51872 0.11724 0.0
H2249 H 0.01128 0.49093 0.09412 0.0
C2250 C 0.05674 0.53236 0.10813 0.0
C2251 C 0.03057 0.50359 0.1121 0.0
C2252 C 0.01933 0.48885 0.1215 0.0
C2253 C 0.05028 0.53118 0.09401 0.0
C2254 C 0.03359 0.51612 0.08892 0.0
C2255 C 0.02408 0.50243 0.098 0.0
C2256 C 0.0255 0.51457 0.07435 0.0
C2257 C 0.06157 0.54593 0.08462 0.0
C2258 C 0.02225 0.52829 0.06989 0.0
C2259 C 0.01448 0.52678 0.05628 0.0
C2260 C 0.00965 0.51145 0.04687 0.0
C2261 C 0.01251 0.4975 0.05141 0.0
C2262 C 0.02038 0.49905 0.06504 0.0
H2263 H 0.07578 0.55311 0.08859 0.0
H2264 H 0.06025 0.54023 0.07356 0.0
H2265 H 0.05725 0.55623 0.08452 0.0
H2266 H 0.02559 0.54014 0.07697 0.0
H2267 H 0.01233 0.53771 0.0531 0.0
H2268 H 0.4478 0.5167 0.14625 0.0
H2269 H 0.45778 0.51426 0.12301 0.0
H2270 H 0.51041 0.53329 0.14223 0.0
H2271 H 0.50042 0.5352 0.16559 0.0
H2272 H 0.48398 0.54081 0.1083 0.0
H2273 H 0.49965 0.48638 0.11946 0.0
H2274 H 0.48687 0.4922 0.13078 0.0
H2275 H 0.51061 0.50621 0.13183 0.0
C2276 C 0.46146 0.52018 0.14558 0.0
C2277 C 0.47325 0.526 0.15786 0.0
C2278 C 0.46718 0.51889 0.13226 0.0
C2279 C 0.48478 0.5233 0.13088 0.0
C2280 C 0.49668 0.52947 0.14304 0.0
H2281 H 0.54259 0.52399 0.05801 0.0
H2282 H 0.53387 0.5271 0.08176 0.0
C2283 C 0.49099 0.53077 0.15639 0.0
C2284 C 0.49064 0.52158 0.11668 0.0
H2285 H 0.50781 0.49967 0.0976 0.0
C2286 C 0.48915 0.53178 0.10595 0.0
C2287 C 0.4974 0.5098 0.11361 0.0
C2288 C 0.4986 0.49788 0.12447 0.0
C2289 C 0.4944 0.53068 0.09232 0.0
C2290 C 0.50109 0.51885 0.08925 0.0
C2291 C 0.5027 0.50874 0.09998 0.0
C2292 C 0.50628 0.51662 0.07491 0.0
C2293 C 0.49304 0.54242 0.08137 0.0
C2294 C 0.49366 0.50947 0.0632 0.0
C2295 C 0.49863 0.50762 0.04968 0.0
C2296 C 0.51623 0.51271 0.04757 0.0
C2297 C 0.52885 0.5198 0.05932 0.0
C2298 C 0.5239 0.52158 0.07288 0.0
H2299 H 0.49196 0.55394 0.08631 0.0
H2300 H 0.50472 0.54807 0.075 0.0
H2301 H 0.48101 0.53397 0.07407 0.0
H2302 H 0.47995 0.50543 0.06449 0.0
H2303 H 0.48885 0.50284 0.04084 0.0
H2304 H 0.9594 0.52123 0.86058 0.0
H2305 H 0.97162 0.52386 0.8849 0.0
H2306 H 0.95457 0.46642 0.88151 0.0
H2307 H 0.94202 0.46355 0.85725 0.0
H2308 H 0.95435 0.50505 0.90864 0.0
H2309 H 1.00773 0.49113 0.89462 0.0
H2310 H 0.99587 0.49705 0.88175 0.0
H2311 H 0.98591 0.47422 0.8873 0.0
C2312 C 0.95808 0.50909 0.86502 0.0
C2313 C 0.94973 0.49217 0.85687 0.0
C2314 C 0.96516 0.51066 0.87892 0.0
C2315 C 0.96421 0.4954 0.88497 0.0
C2316 C 0.95576 0.47846 0.87696 0.0
H2317 H 1.00007 0.47419 0.96483 0.0
H2318 H 0.98738 0.47297 0.94094 0.0
C2319 C 0.94863 0.47686 0.86307 0.0
C2320 C 0.97197 0.49718 0.89968 0.0
H2321 H 1.00324 0.49237 0.919 0.0
C2322 C 0.9651 0.50236 0.91093 0.0
C2323 C 0.98602 0.49372 0.90263 0.0
C2324 C 0.99446 0.48888 0.89095 0.0
C2325 C 0.97155 0.50367 0.92509 0.0
C2326 C 0.98552 0.50006 0.92805 0.0
C2327 C 0.99251 0.49508 0.91676 0.0
C2328 C 0.99288 0.50093 0.94276 0.0
C2329 C 0.963 0.50843 0.93674 0.0
C2330 C 1.00039 0.5171 0.95174 0.0
C2331 C 1.00762 0.51779 0.96544 0.0
C2332 C 1.00756 0.50236 0.97036 0.0
C2333 C 1.00029 0.48629 0.96131 0.0
C2334 C 0.993 0.48557 0.94767 0.0
H2335 H 0.94955 0.50569 0.9331 0.0
H2336 H 0.96195 0.50062 0.9461 0.0
H2337 H 0.97123 0.52321 0.94011 0.0
H2338 H 1.00091 0.52928 0.94809 0.0
H2339 H 0.01353 0.53046 0.9721 0.0
H2340 H 0.57446 0.51684 0.86742 0.0
H2341 H 0.56541 0.51932 0.89104 0.0
H2342 H 0.51597 0.46911 0.88099 0.0
H2343 H 0.52469 0.46668 0.85721 0.0
H2344 H 0.53445 0.52068 0.89811 0.0
H2345 H 0.53595 0.46114 0.91893 0.0
H2346 H 0.54689 0.47163 0.90344 0.0
H2347 H 0.52332 0.45651 0.9022 0.0
C2348 C 0.56158 0.50637 0.87014 0.0
C2349 C 0.55032 0.49155 0.86032 0.0
C2350 C 0.55648 0.50777 0.88371 0.0
C2351 C 0.54011 0.4943 0.88785 0.0
C2352 C 0.52881 0.47949 0.87812 0.0
H2353 H 0.48339 0.47596 0.96342 0.0
H2354 H 0.49381 0.47443 0.94016 0.0
C2355 C 0.53385 0.47811 0.86452 0.0
C2356 C 0.53467 0.49601 0.90221 0.0
H2357 H 0.52394 0.47528 0.9332 0.0
C2358 C 0.53224 0.51082 0.90582 0.0
C2359 C 0.53176 0.48311 0.91224 0.0
C2360 C 0.53474 0.46726 0.90911 0.0
C2361 C 0.52654 0.51284 0.91907 0.0
C2362 C 0.52361 0.49993 0.92913 0.0
C2363 C 0.52619 0.48519 0.92552 0.0
C2364 C 0.5174 0.50114 0.94329 0.0
C2365 C 0.52316 0.52846 0.92196 0.0
C2366 C 0.52722 0.51662 0.95288 0.0
C2367 C 0.52115 0.51759 0.96614 0.0
C2368 C 0.50535 0.50297 0.97015 0.0
C2369 C 0.49561 0.48747 0.9606 0.0
C2370 C 0.50159 0.48654 0.94733 0.0
H2371 H 0.52129 0.53397 0.912 0.0
H2372 H 0.51125 0.52415 0.92794 0.0
H2373 H 0.53473 0.53971 0.92841 0.0
H2374 H 0.53961 0.52795 0.95014 0.0
H2375 H 0.5287 0.52985 0.97318 0.0
H2376 H 0.51396 0.06341 0.86706 0.0
H2377 H 0.50885 0.04995 0.88979 0.0
H2378 H 0.55745 0.04849 0.88903 0.0
H2379 H 0.56303 0.06262 0.86641 0.0
H2380 H 0.50487 0.01641 0.89571 0.0
H2381 H 0.56229 0.07276 0.92862 0.0
H2382 H 0.55508 0.07586 0.91131 0.0
H2383 H 0.56752 0.06428 0.91295 0.0
C2384 C 0.52376 0.06055 0.8718 0.0
C2385 C 0.53901 0.0643 0.86492 0.0
C2386 C 0.52073 0.0527 0.88477 0.0
C2387 C 0.53287 0.04842 0.89123 0.0
C2388 C 0.54806 0.05198 0.88439 0.0
H2389 H 0.5253 0.99941 0.97275 0.0
H2390 H 0.5354 0.01167 0.94981 0.0
C2391 C 0.55112 0.05987 0.87137 0.0
C2392 C 0.52912 0.03969 0.90489 0.0
H2393 H 0.5436 0.04636 0.93999 0.0
C2394 C 0.51339 0.02294 0.90537 0.0
C2395 C 0.54032 0.04812 0.91748 0.0
C2396 C 0.55719 0.06631 0.91768 0.0
C2397 C 0.50837 0.01456 0.91811 0.0
C2398 C 0.51922 0.0233 0.93079 0.0
C2399 C 0.53528 0.03972 0.93026 0.0
C2400 C 0.51349 0.01616 0.94479 0.0
C2401 C 0.49144 0.99641 0.91789 0.0
C2402 C 0.49803 0.0149 0.94966 0.0
C2403 C 0.49239 0.0081 0.96274 0.0
C2404 C 0.50219 1.00259 0.9713 0.0
C2405 C 0.51772 1.00392 0.96648 0.0
C2406 C 0.52341 0.01078 0.95336 0.0
H2407 H 0.48753 0.98911 0.90715 0.0
H2408 H 0.49278 0.9875 0.9255 0.0
H2409 H 0.48059 0.99877 0.92095 0.0
H2410 H 0.49035 0.01929 0.94337 0.0
H2411 H 0.48044 0.00738 0.96624 0.0
H2412 H 0.14974 0.32162 0.49885 0.0
H2413 H 0.15832 0.33439 0.47592 0.0
H2414 H 0.13625 0.28005 0.45571 0.0
H2415 H 0.12745 0.26716 0.47854 0.0
H2416 H 0.18065 0.32879 0.45659 0.0
H2417 H 0.11247 0.3042 0.43262 0.0
H2418 H 0.11761 0.30582 0.45151 0.0
H2419 H 0.11594 0.28717 0.44045 0.0
C2420 C 0.14662 0.31239 0.48951 0.0
C2421 C 0.13785 0.29336 0.49052 0.0
C2422 C 0.1516 0.31971 0.47644 0.0
C2423 C 0.14772 0.30816 0.4641 0.0
C2424 C 0.13916 0.28919 0.46508 0.0
H2425 H 0.16232 0.317 0.37531 0.0
H2426 H 0.15362 0.30806 0.39903 0.0
C2427 C 0.13429 0.28186 0.47816 0.0
C2428 C 0.1528 0.31589 0.45021 0.0
H2429 H 0.13566 0.31681 0.4173 0.0
C2430 C 0.17085 0.32633 0.44801 0.0
C2431 C 0.13996 0.31262 0.43906 0.0
C2432 C 0.12039 0.30197 0.44099 0.0
C2433 C 0.17643 0.33306 0.43479 0.0
C2434 C 0.16358 0.32964 0.42357 0.0
C2435 C 0.14551 0.31947 0.42589 0.0
C2436 C 0.16851 0.33554 0.40912 0.0
C2437 C 0.19601 0.34309 0.43281 0.0
C2438 C 0.17951 0.35405 0.40678 0.0
C2439 C 0.18457 0.35922 0.39315 0.0
C2440 C 0.17853 0.34598 0.38163 0.0
C2441 C 0.16713 0.32755 0.38395 0.0
C2442 C 0.16216 0.32241 0.39753 0.0
H2443 H 0.2037 0.34056 0.44118 0.0
H2444 H 0.19862 0.33896 0.42232 0.0
H2445 H 0.20096 0.35799 0.43334 0.0
H2446 H 0.18424 0.36449 0.41549 0.0
H2447 H 0.19329 0.37352 0.39165 0.0
H2448 H 0.70883 0.82804 0.49735 0.0
H2449 H 0.69712 0.82539 0.47284 0.0
H2450 H 0.74349 0.87622 0.46547 0.0
H2451 H 0.75551 0.87878 0.4899 0.0
H2452 H 0.68936 0.8496 0.4593 0.0
H2453 H 0.74013 0.841 0.43243 0.0
H2454 H 0.73724 0.83822 0.45108 0.0
H2455 H 0.74895 0.8607 0.4449 0.0
C2456 C 0.71665 0.83856 0.49048 0.0
C2457 C 0.73318 0.85358 0.4956 0.0
C2458 C 0.70988 0.83707 0.47649 0.0
C2459 C 0.71953 0.85046 0.46725 0.0
C2460 C 0.73595 0.86555 0.47233 0.0
H2461 H 0.68082 0.87141 0.38832 0.0
H2462 H 0.69265 0.87243 0.41251 0.0
C2463 C 0.7427 0.8671 0.48635 0.0
C2464 C 0.71214 0.84885 0.45244 0.0
H2465 H 0.7199 0.84533 0.41774 0.0
C2466 C 0.69602 0.84862 0.45022 0.0
C2467 C 0.72071 0.84732 0.44058 0.0
C2468 C 0.73763 0.84665 0.4423 0.0
C2469 C 0.68842 0.84729 0.43649 0.0
C2470 C 0.69727 0.84636 0.42463 0.0
C2471 C 0.7132 0.84619 0.42683 0.0
C2472 C 0.69026 0.84575 0.40989 0.0
C2473 C 0.67086 0.84668 0.43478 0.0
C2474 C 0.68527 0.83056 0.40027 0.0
C2475 C 0.67846 0.82994 0.38643 0.0
C2476 C 0.67676 0.84462 0.38193 0.0
C2477 C 0.68187 0.85985 0.39153 0.0
C2478 C 0.68861 0.86044 0.40536 0.0
H2479 H 0.66372 0.84283 0.44456 0.0
H2480 H 0.67319 0.86041 0.43248 0.0
H2481 H 0.66224 0.83681 0.42583 0.0
H2482 H 0.68642 0.81907 0.40354 0.0
H2483 H 0.67429 0.8179 0.37933 0.0
H2484 H 0.1616 0.88102 0.49416 0.0
H2485 H 0.17058 0.87871 0.47049 0.0
H2486 H 0.12155 0.82802 0.4604 0.0
H2487 H 0.11207 0.83066 0.48376 0.0
H2488 H 0.17617 0.85279 0.45835 0.0
H2489 H 0.12261 0.85506 0.42623 0.0
H2490 H 0.12654 0.8608 0.44512 0.0
H2491 H 0.11452 0.83727 0.43816 0.0
C2492 C 0.15254 0.86954 0.48684 0.0
C2493 C 0.13604 0.85608 0.49093 0.0
C2494 C 0.15778 0.86817 0.47331 0.0
C2495 C 0.14664 0.85335 0.46353 0.0
C2496 C 0.13023 0.83981 0.4676 0.0
H2497 H 0.16037 0.81888 0.37895 0.0
H2498 H 0.14947 0.82059 0.40207 0.0
C2499 C 0.12494 0.84121 0.48109 0.0
C2500 C 0.15254 0.85173 0.44931 0.0
H2501 H 0.14127 0.84742 0.41369 0.0
C2502 C 0.16857 0.85172 0.4486 0.0
C2503 C 0.1426 0.85023 0.43654 0.0
C2504 C 0.1257 0.85101 0.4365 0.0
C2505 C 0.17483 0.85009 0.43554 0.0
C2506 C 0.16491 0.84863 0.4228 0.0
C2507 C 0.14882 0.84849 0.42347 0.0
C2508 C 0.17127 0.84768 0.40869 0.0
C2509 C 0.19189 0.84966 0.43548 0.0
C2510 C 0.18698 0.86241 0.40467 0.0
C2511 C 0.19305 0.86153 0.39143 0.0
C2512 C 0.18346 0.84596 0.38191 0.0
C2513 C 0.16774 0.83121 0.38593 0.0
C2514 C 0.16161 0.83212 0.39917 0.0
H2515 H 0.19553 0.84633 0.44588 0.0
H2516 H 0.19088 0.83948 0.42714 0.0
H2517 H 0.20277 0.8633 0.43321 0.0
H2518 H 0.1945 0.87465 0.41174 0.0
H2519 H 0.20517 0.87314 0.38857 0.0
H2520 H 0.61805 0.79979 0.19022 0.0
H2521 H 0.62974 0.80252 0.21473 0.0
H2522 H 0.63217 0.85439 0.22185 0.0
H2523 H 0.61973 0.8514 0.1976 0.0
H2524 H 0.66137 0.82844 0.22791 0.0
H2525 H 0.60686 0.82861 0.25548 0.0
H2526 H 0.60472 0.82218 0.23677 0.0
H2527 H 0.61619 0.84591 0.2432 0.0
C2528 C 0.62076 0.81164 0.19705 0.0
C2529 C 0.61785 0.82533 0.19188 0.0
C2530 C 0.62759 0.81324 0.21105 0.0
C2531 C 0.63159 0.82852 0.22024 0.0
C2532 C 0.62883 0.84228 0.2151 0.0
H2533 H 0.68009 0.86354 0.30729 0.0
H2534 H 0.66757 0.86203 0.28313 0.0
C2535 C 0.62194 0.84066 0.20112 0.0
C2536 C 0.63926 0.83035 0.235 0.0
H2537 H 0.63293 0.83578 0.26983 0.0
C2538 C 0.6551 0.82996 0.23707 0.0
C2539 C 0.63113 0.83243 0.24698 0.0
C2540 C 0.6137 0.83214 0.24555 0.0
C2541 C 0.66309 0.83173 0.25072 0.0
C2542 C 0.65492 0.83373 0.26267 0.0
C2543 C 0.63919 0.8343 0.26064 0.0
C2544 C 0.66224 0.83463 0.27736 0.0
C2545 C 0.68035 0.83169 0.25224 0.0
C2546 C 0.66316 0.81967 0.28218 0.0
C2547 C 0.67008 0.82045 0.29597 0.0
C2548 C 0.6761 0.83616 0.30525 0.0
C2549 C 0.67517 0.85113 0.30045 0.0
C2550 C 0.66816 0.85033 0.28664 0.0
H2551 H 0.68711 0.83475 0.24226 0.0
H2552 H 0.68946 0.84184 0.26087 0.0
H2553 H 0.67766 0.81797 0.25495 0.0
H2554 H 0.65841 0.80732 0.27529 0.0
H2555 H 0.67055 0.80866 0.29941 0.0
H2556 H 0.23904 0.82696 0.2063 0.0
H2557 H 0.22932 0.8297 0.2296 0.0
H2558 H 0.17959 0.82015 0.20989 0.0
H2559 H 0.18921 0.81743 0.18653 0.0
H2560 H 0.21984 0.85443 0.23987 0.0
H2561 H 0.16356 0.78355 0.24008 0.0
H2562 H 0.18017 0.79008 0.2275 0.0
H2563 H 0.16258 0.79514 0.22495 0.0
C2564 C 0.22604 0.82548 0.2069 0.0
C2565 C 0.2149 0.82194 0.19451 0.0
C2566 C 0.22048 0.82698 0.22024 0.0
C2567 C 0.20363 0.82488 0.22153 0.0
C2568 C 0.19248 0.8214 0.2092 0.0
H2569 H 0.14779 0.83051 0.29389 0.0
H2570 H 0.15674 0.82814 0.27007 0.0
C2571 C 0.19801 0.81986 0.19584 0.0
C2572 C 0.198 0.82693 0.23575 0.0
H2573 H 0.16653 0.80461 0.25883 0.0
C2574 C 0.20821 0.84352 0.24404 0.0
C2575 C 0.1828 0.8127 0.24117 0.0
C2576 C 0.17171 0.7943 0.23304 0.0
C2577 C 0.20352 0.84638 0.2575 0.0
C2578 C 0.18835 0.83213 0.26295 0.0
C2579 C 0.1781 0.81556 0.25464 0.0
C2580 C 0.18307 0.83401 0.27736 0.0
C2581 C 0.21469 0.86478 0.26563 0.0
C2582 C 0.19473 0.83779 0.2894 0.0
C2583 C 0.18965 0.83928 0.30293 0.0
C2584 C 0.17283 0.83694 0.30477 0.0
C2585 C 0.16098 0.83269 0.29277 0.0
C2586 C 0.16607 0.8313 0.27918 0.0
H2587 H 0.22238 0.87561 0.25849 0.0
H2588 H 0.20638 0.86882 0.27158 0.0
H2589 H 0.22428 0.86408 0.27332 0.0
H2590 H 0.20765 0.83922 0.28836 0.0
H2591 H 0.19859 0.84142 0.31197 0.0
H2592 H 0.18287 0.3593 0.18493 0.0
H2593 H 0.17879 0.34806 0.20861 0.0
H2594 H 0.21818 0.40172 0.22672 0.0
H2595 H 0.22209 0.41318 0.20313 0.0
H2596 H 0.2041 0.34874 0.23 0.0
H2597 H 0.17321 0.38913 0.24758 0.0
H2598 H 0.17563 0.38517 0.22916 0.0
H2599 H 0.19434 0.40205 0.24047 0.0
C2600 C 0.19065 0.36873 0.19395 0.0
C2601 C 0.2027 0.38719 0.19214 0.0
C2602 C 0.18838 0.36224 0.20746 0.0
C2603 C 0.19801 0.37411 0.21943 0.0
C2604 C 0.21045 0.39239 0.21763 0.0
H2605 H 0.19456 0.36588 0.30995 0.0
H2606 H 0.20218 0.37517 0.28611 0.0
C2607 C 0.21278 0.39887 0.20413 0.0
C2608 C 0.19463 0.36751 0.23383 0.0
H2609 H 0.179 0.37314 0.26487 0.0
C2610 C 0.19858 0.35402 0.23764 0.0
C2611 C 0.18739 0.3744 0.24374 0.0
C2612 C 0.18223 0.38838 0.24006 0.0
C2613 C 0.19584 0.34752 0.25123 0.0
C2614 C 0.18862 0.35445 0.26115 0.0
C2615 C 0.18459 0.36787 0.25728 0.0
C2616 C 0.18519 0.34817 0.27567 0.0
C2617 C 0.20109 0.33364 0.25495 0.0
C2618 C 0.17322 0.32982 0.2778 0.0
C2619 C 0.16896 0.32441 0.29151 0.0
C2620 C 0.1765 0.3373 0.30329 0.0
C2621 C 0.18868 0.35557 0.30113 0.0
C2622 C 0.19299 0.36093 0.28748 0.0
H2623 H 0.21063 0.33342 0.24771 0.0
H2624 H 0.20714 0.3365 0.26601 0.0
H2625 H 0.18911 0.31984 0.25401 0.0
H2626 H 0.16674 0.31979 0.26885 0.0
H2627 H 0.15942 0.31027 0.29286 0.0
H2628 H 0.79396 0.60055 0.812 0.0
H2629 H 0.80292 0.61332 0.78914 0.0
H2630 H 0.82079 0.66735 0.80845 0.0
H2631 H 0.81207 0.65473 0.8314 0.0
H2632 H 0.79088 0.6355 0.77425 0.0
H2633 H 0.86379 0.6715 0.78767 0.0
H2634 H 0.84837 0.65323 0.79757 0.0
H2635 H 0.85089 0.67556 0.80002 0.0
C2636 C 0.79997 0.61518 0.81142 0.0
C2637 C 0.80236 0.62663 0.82354 0.0
C2638 C 0.80496 0.62243 0.79834 0.0
C2639 C 0.81264 0.64129 0.79714 0.0
C2640 C 0.81505 0.65278 0.80919 0.0
H2641 H 0.85778 0.70585 0.72468 0.0
H2642 H 0.8476 0.6966 0.74826 0.0
C2643 C 0.80993 0.64552 0.82226 0.0
C2644 C 0.81791 0.64887 0.78322 0.0
H2645 H 0.85391 0.67521 0.76516 0.0
C2646 C 0.80465 0.64422 0.77225 0.0
C2647 C 0.83586 0.66035 0.78069 0.0
C2648 C 0.85062 0.66542 0.79204 0.0
C2649 C 0.80887 0.65073 0.75878 0.0
C2650 C 0.82689 0.66184 0.75611 0.0
C2651 C 0.84012 0.66674 0.76719 0.0
C2652 C 0.83237 0.66767 0.74175 0.0
C2653 C 0.79395 0.64581 0.74759 0.0
C2654 C 0.82735 0.65452 0.7303 0.0
C2655 C 0.83305 0.65978 0.71691 0.0
C2656 C 0.84407 0.6783 0.71466 0.0
C2657 C 0.84921 0.6915 0.7261 0.0
C2658 C 0.84341 0.68622 0.73955 0.0
H2659 H 0.78152 0.64273 0.75243 0.0
H2660 H 0.79735 0.657 0.74051 0.0
H2661 H 0.79131 0.63338 0.74105 0.0
H2662 H 0.8193 0.64011 0.73177 0.0
H2663 H 0.8291 0.64924 0.70836 0.0
H2664 H 0.37542 0.16288 0.83014 0.0
H2665 H 0.36354 0.15993 0.80565 0.0
H2666 H 0.41087 0.20934 0.79733 0.0
H2667 H 0.42305 0.21218 0.82174 0.0
H2668 H 0.35679 0.18446 0.79153 0.0
H2669 H 0.4058 0.17247 0.76502 0.0
H2670 H 0.40306 0.17045 0.78374 0.0
H2671 H 0.41537 0.19259 0.7771 0.0
C2672 C 0.38341 0.17303 0.82307 0.0
C2673 C 0.40026 0.18772 0.82791 0.0
C2674 C 0.37654 0.17136 0.80909 0.0
C2675 C 0.38641 0.18425 0.79959 0.0
C2676 C 0.40314 0.19905 0.8044 0.0
H2677 H 0.34885 0.20518 0.72022 0.0
H2678 H 0.36059 0.20623 0.74443 0.0
C2679 C 0.41 0.20077 0.81841 0.0
C2680 C 0.37897 0.18244 0.78476 0.0
H2681 H 0.38616 0.17745 0.75012 0.0
C2682 C 0.36318 0.18287 0.78248 0.0
C2683 C 0.38719 0.18012 0.77296 0.0
C2684 C 0.40371 0.1787 0.77476 0.0
C2685 C 0.3556 0.18145 0.76873 0.0
C2686 C 0.36414 0.17975 0.75691 0.0
C2687 C 0.37971 0.1789 0.75919 0.0
C2688 C 0.35721 0.17911 0.74213 0.0
C2689 C 0.3384 0.18158 0.76696 0.0
C2690 C 0.35174 0.16366 0.73268 0.0
C2691 C 0.34499 0.16303 0.71881 0.0
C2692 C 0.34384 0.17794 0.71413 0.0
C2693 C 0.34947 0.19343 0.72357 0.0
C2694 C 0.35615 0.19404 0.73741 0.0
H2695 H 0.33128 0.17815 0.77677 0.0
H2696 H 0.34125 0.19544 0.76453 0.0
H2697 H 0.32954 0.17174 0.75808 0.0
H2698 H 0.35245 0.15198 0.73609 0.0
H2699 H 0.34043 0.1508 0.71183 0.0
H2700 H 0.77921 0.18261 0.81137 0.0
H2701 H 0.78945 0.1803 0.78822 0.0
H2702 H 0.84216 0.20032 0.8077 0.0
H2703 H 0.83189 0.20206 0.83098 0.0
H2704 H 0.81531 0.20696 0.77353 0.0
H2705 H 0.83243 0.15367 0.7852 0.0
H2706 H 0.81938 0.15922 0.79643 0.0
H2707 H 0.84308 0.17361 0.79748 0.0
C2708 C 0.79294 0.18632 0.81078 0.0
C2709 C 0.80467 0.19236 0.82309 0.0
C2710 C 0.79881 0.18512 0.79751 0.0
C2711 C 0.81651 0.18984 0.79623 0.0
C2712 C 0.82836 0.19625 0.80844 0.0
H2713 H 0.87478 0.1918 0.72331 0.0
H2714 H 0.86616 0.19502 0.74708 0.0
C2715 C 0.8225 0.19745 0.82174 0.0
C2716 C 0.82253 0.18822 0.7821 0.0
H2717 H 0.84043 0.16686 0.76329 0.0
C2718 C 0.82077 0.19816 0.77128 0.0
C2719 C 0.82966 0.17673 0.77917 0.0
C2720 C 0.83112 0.16506 0.79012 0.0
C2721 C 0.82608 0.19706 0.75768 0.0
C2722 C 0.83314 0.18554 0.75476 0.0
C2723 C 0.83505 0.17571 0.76558 0.0
C2724 C 0.83832 0.18326 0.74044 0.0
C2725 C 0.82432 0.20843 0.74659 0.0
C2726 C 0.82552 0.17535 0.72888 0.0
C2727 C 0.83044 0.1734 0.71537 0.0
C2728 C 0.84816 0.17923 0.71312 0.0
C2729 C 0.86096 0.18707 0.72473 0.0
C2730 C 0.85606 0.18892 0.7383 0.0
H2731 H 0.8228 0.21974 0.75139 0.0
H2732 H 0.83604 0.21433 0.74026 0.0
H2733 H 0.81241 0.19962 0.73926 0.0
H2734 H 0.81173 0.17076 0.73029 0.0
H2735 H 0.82049 0.16789 0.70665 0.0
H2736 H 0.28765 0.1357 0.52162 0.0
H2737 H 0.29885 0.13787 0.54619 0.0
H2738 H 0.29936 0.18865 0.55424 0.0
H2739 H 0.28737 0.18616 0.52992 0.0
H2740 H 0.32977 0.16382 0.56002 0.0
H2741 H 0.27386 0.16133 0.5872 0.0
H2742 H 0.27229 0.15568 0.5684 0.0
H2743 H 0.28314 0.17919 0.57536 0.0
C2744 C 0.28982 0.14717 0.52866 0.0
C2745 C 0.28649 0.1607 0.52372 0.0
C2746 C 0.29637 0.14847 0.5427 0.0
C2747 C 0.29971 0.16328 0.55217 0.0
C2748 C 0.29654 0.17688 0.54727 0.0
H2749 H 0.34644 0.1965 0.63981 0.0
H2750 H 0.33418 0.19536 0.61564 0.0
C2751 C 0.28991 0.17556 0.53325 0.0
C2752 C 0.30713 0.16481 0.56699 0.0
H2753 H 0.29986 0.16878 0.60178 0.0
C2754 C 0.32317 0.16482 0.56914 0.0
C2755 C 0.29858 0.1662 0.57893 0.0
C2756 C 0.28093 0.16543 0.5774 0.0
C2757 C 0.33094 0.16633 0.58284 0.0
C2758 C 0.32237 0.16765 0.59474 0.0
C2759 C 0.30643 0.16782 0.59263 0.0
C2760 C 0.32949 0.1683 0.60946 0.0
C2761 C 0.34841 0.16673 0.58445 0.0
C2762 C 0.33069 0.1534 0.61406 0.0
C2763 C 0.33747 0.15396 0.62786 0.0
C2764 C 0.34307 0.16939 0.63738 0.0
C2765 C 0.34185 0.1843 0.6328 0.0
C2766 C 0.33498 0.18371 0.61897 0.0
H2767 H 0.35537 0.17022 0.57457 0.0
H2768 H 0.35724 0.17678 0.59325 0.0
H2769 H 0.34598 0.15304 0.58697 0.0
H2770 H 0.32628 0.14127 0.60698 0.0
H2771 H 0.33816 0.14222 0.63113 0.0
H2772 H 0.90325 0.18731 0.5315 0.0
H2773 H 0.89402 0.18959 0.55507 0.0
H2774 H 0.85308 0.13291 0.5494 0.0
H2775 H 0.86272 0.13027 0.52608 0.0
H2776 H 0.86246 0.18457 0.56292 0.0
H2777 H 0.87692 0.13481 0.58761 0.0
H2778 H 0.88482 0.1436 0.57083 0.0
H2779 H 0.86236 0.12545 0.57171 0.0
C2780 C 0.89247 0.17522 0.53533 0.0
C2781 C 0.88386 0.15855 0.52686 0.0
C2782 C 0.88711 0.1766 0.54879 0.0
C2783 C 0.87304 0.16136 0.55415 0.0
C2784 C 0.86422 0.14477 0.54566 0.0
H2785 H 0.81607 0.14169 0.62974 0.0
H2786 H 0.82681 0.14019 0.60658 0.0
C2787 C 0.86961 0.14335 0.53221 0.0
C2788 C 0.86733 0.16298 0.56844 0.0
H2789 H 0.86048 0.14503 0.60069 0.0
C2790 C 0.86215 0.17601 0.5712 0.0
C2791 C 0.86695 0.15184 0.57929 0.0
C2792 C 0.87322 0.13826 0.57729 0.0
C2793 C 0.8562 0.1779 0.58436 0.0
C2794 C 0.85562 0.1666 0.59513 0.0
C2795 C 0.8609 0.15366 0.59241 0.0
C2796 C 0.84922 0.16773 0.60919 0.0
C2797 C 0.85016 0.19164 0.58652 0.0
C2798 C 0.8583 0.18368 0.6184 0.0
C2799 C 0.85214 0.18457 0.63163 0.0
C2800 C 0.8369 0.16948 0.6359 0.0
C2801 C 0.82783 0.15355 0.62668 0.0
C2802 C 0.834 0.15265 0.61349 0.0
H2803 H 0.84766 0.19626 0.57631 0.0
H2804 H 0.83787 0.18581 0.59217 0.0
H2805 H 0.86061 0.20379 0.59309 0.0
H2806 H 0.87019 0.19541 0.61538 0.0
H2807 H 0.85917 0.1971 0.63844 0.0
H2808 H 0.84976 0.69491 0.51844 0.0
H2809 H 0.84525 0.6831 0.54194 0.0
H2810 H 0.88506 0.73617 0.56076 0.0
H2811 H 0.88942 0.7482 0.53737 0.0
H2812 H 0.87026 0.68293 0.56325 0.0
H2813 H 0.83998 0.72366 0.58151 0.0
H2814 H 0.84245 0.72001 0.56304 0.0
H2815 H 0.86119 0.73654 0.57451 0.0
C2816 C 0.85754 0.70408 0.52759 0.0
C2817 C 0.86986 0.72255 0.52603 0.0
C2818 C 0.85502 0.69728 0.54099 0.0
C2819 C 0.86465 0.70881 0.5531 0.0
C2820 C 0.87733 0.72709 0.55156 0.0
H2821 H 0.86072 0.69898 0.64338 0.0
H2822 H 0.86841 0.70861 0.61962 0.0
C2823 C 0.87991 0.7339 0.53816 0.0
C2824 C 0.86107 0.70188 0.56739 0.0
H2825 H 0.84543 0.70714 0.59852 0.0
C2826 C 0.86479 0.68816 0.57098 0.0
C2827 C 0.85389 0.70871 0.57741 0.0
C2828 C 0.84898 0.72293 0.57394 0.0
C2829 C 0.86191 0.68139 0.58447 0.0
C2830 C 0.85477 0.68827 0.59452 0.0
C2831 C 0.85095 0.70191 0.59085 0.0
C2832 C 0.85128 0.68177 0.60897 0.0
C2833 C 0.86695 0.66729 0.58798 0.0
C2834 C 0.8392 0.6634 0.61096 0.0
C2835 C 0.83492 0.65779 0.62462 0.0
C2836 C 0.84252 0.67051 0.63649 0.0
C2837 C 0.8548 0.6888 0.63448 0.0
C2838 C 0.85914 0.69436 0.62088 0.0
H2839 H 0.87644 0.66707 0.58069 0.0
H2840 H 0.87295 0.66989 0.59904 0.0
H2841 H 0.85487 0.65356 0.58691 0.0
H2842 H 0.83267 0.65351 0.60193 0.0
H2843 H 0.8253 0.64365 0.62586 0.0
loop_
_geom_bond_atom_site_label_1
_geom_bond_atom_site_label_2
_geom_bond_distance
_geom_bond_site_symmetry_2
_ccdc_geom_bond_type
C0 C1 1.264 . S
C0 C5 1.479 . S
C0 C10 1.465 . S
C1 C0 1.264 . S
C1 C3 1.339 . S
C1 H28 0.931 . S
C2 C3 1.395 . S
C2 C4 1.320 . S
C3 C1 1.339 . S
C3 C2 1.395 . S
C3 H29 0.929 . S
C4 C2 1.320 . S
C4 C5 1.405 . S
C4 H30 0.930 . S
C5 C0 1.479 . S
C5 C4 1.405 . S
C5 H31 0.931 . S
U6 O7 2.454 . S
U6 O8 2.458 . S
U6 C9 2.984 . S
U6 C10 2.847 . S
U6 C23 2.882 . S
U6 O24 2.441 . S
U6 O25 2.420 . S
U6 O26 2.455 . S
U6 O27 2.449 . S
O7 U6 2.454 . S
O7 C9 1.353 . S
O8 U6 2.458 . S
O8 C9 1.286 . S
C9 U6 2.984 . S
C9 O7 1.353 . S
C9 O8 1.286 . S
C9 C11 1.363 . S
C10 C0 1.465 . S
C10 U6 2.847 . S
C10 O24 1.249 . S
C10 O25 1.202 . S
C11 C9 1.363 . S
C11 C13 1.408 . S
C11 C16 1.342 . S
C12 C13 1.310 . S
C12 C15 1.461 . S
C12 H32 0.932 . S
C13 C11 1.408 . S
C13 C12 1.310 . S
C13 H33 0.930 . S
C14 C15 1.474 . S
C14 C16 1.285 . S
C14 H34 0.929 . S
C15 C12 1.461 . S
C15 C14 1.474 . S
C16 C11 1.342 . S
C16 C14 1.285 . S
C16 H35 0.930 . S
C17 C20 1.424 . S
C17 C22 1.245 . S
C17 C23 1.428 . S
C18 C21 1.260 . S
C18 C22 1.477 . S
C18 H36 0.932 . S
C19 C20 1.384 . S
C19 C21 1.479 . S
C19 H37 0.929 . S
C20 C17 1.424 . S
C20 C19 1.384 . S
C20 H38 0.928 . S
C21 C18 1.260 . S
C21 C19 1.479 . S
C22 C17 1.245 . S
C22 C18 1.477 . S
C22 H39 0.932 . S
C23 U6 2.882 . S
C23 C17 1.428 . S
C23 O26 1.301 . S
C23 O27 1.282 . S
O24 U6 2.441 . S
O24 C10 1.249 . S
O25 U6 2.420 . S
O25 C10 1.202 . S
O26 U6 2.455 . S
O26 C23 1.301 . S
O27 U6 2.449 . S
O27 C23 1.282 . S
H28 C1 0.931 . S
H29 C3 0.929 . S
H30 C4 0.930 . S
H31 C5 0.931 . S
H32 C12 0.932 . S
H33 C13 0.930 . S
H34 C14 0.929 . S
H35 C16 0.930 . S
H36 C18 0.932 . S
H37 C19 0.929 . S
H38 C20 0.928 . S
H39 C22 0.932 . S
C40 C41 1.264 . S
C40 C45 1.479 . S
C40 C50 1.465 . S
C41 C40 1.264 . S
C41 C43 1.339 . S
C41 H68 0.931 . S
C42 C43 1.395 . S
C42 C44 1.320 . S
C43 C41 1.339 . S
C43 C42 1.395 . S
C43 H69 0.929 . S
C44 C42 1.320 . S
C44 C45 1.405 . S
C44 H70 0.930 . S
C45 C40 1.479 . S
C45 C44 1.405 . S
C45 H71 0.931 . S
U46 O47 2.454 . S
U46 O48 2.458 . S
U46 C49 2.984 . S
U46 C50 2.847 . S
U46 C63 2.882 . S
U46 O64 2.441 . S
U46 O65 2.420 . S
U46 O66 2.455 . S
U46 O67 2.449 . S
O47 U46 2.454 . S
O47 C49 1.353 . S
O48 U46 2.458 . S
O48 C49 1.286 . S
C49 U46 2.984 . S
C49 O47 1.353 . S
C49 O48 1.286 . S
C49 C51 1.363 . S
C50 C40 1.465 . S
C50 U46 2.847 . S
C50 O64 1.249 . S
C50 O65 1.202 . S
C51 C49 1.363 . S
C51 C53 1.408 . S
C51 C56 1.342 . S
C52 C53 1.310 . S
C52 C55 1.461 . S
C52 H72 0.932 . S
C53 C51 1.408 . S
C53 C52 1.310 . S
C53 H73 0.930 . S
C54 C55 1.474 . S
C54 C56 1.285 . S
C54 H74 0.929 . S
C55 C52 1.461 . S
C55 C54 1.474 . S
C56 C51 1.342 . S
C56 C54 1.285 . S
C56 H75 0.930 . S
C57 C60 1.424 . S
C57 C62 1.245 . S
C57 C63 1.428 . S
C58 C61 1.260 . S
C58 C62 1.477 . S
C58 H76 0.932 . S
C59 C60 1.384 . S
C59 C61 1.479 . S
C59 H77 0.929 . S
C60 C57 1.424 . S
C60 C59 1.384 . S
C60 H78 0.928 . S
C61 C58 1.260 . S
C61 C59 1.479 . S
C62 C57 1.245 . S
C62 C58 1.477 . S
C62 H79 0.932 . S
C63 U46 2.882 . S
C63 C57 1.428 . S
C63 O66 1.301 . S
C63 O67 1.282 . S
O64 U46 2.441 . S
O64 C50 1.249 . S
O65 U46 2.420 . S
O65 C50 1.202 . S
O66 U46 2.455 . S
O66 C63 1.301 . S
O67 U46 2.449 . S
O67 C63 1.282 . S
H68 C41 0.931 . S
H69 C43 0.929 . S
H70 C44 0.930 . S
H71 C45 0.931 . S
H72 C52 0.932 . S
H73 C53 0.930 . S
H74 C54 0.929 . S
H75 C56 0.930 . S
H76 C58 0.932 . S
H77 C59 0.929 . S
H78 C60 0.928 . S
H79 C62 0.932 . S
C80 C81 1.264 . S
C80 C85 1.479 . S
C80 C90 1.465 . S
C81 C80 1.264 . S
C81 C83 1.339 . S
C81 H108 0.931 . S
C82 C83 1.395 . S
C82 C84 1.320 . S
C83 C81 1.339 . S
C83 C82 1.395 . S
C83 H109 0.929 . S
C84 C82 1.320 . S
C84 C85 1.405 . S
C84 H110 0.930 . S
C85 C80 1.479 . S
C85 C84 1.405 . S
C85 H111 0.931 . S
U86 O87 2.454 . S
U86 O88 2.458 . S
U86 C89 2.984 . S
U86 C90 2.847 . S
U86 C103 2.882 . S
U86 O104 2.441 . S
U86 O105 2.420 . S
U86 O106 2.455 . S
U86 O107 2.449 . S
O87 U86 2.454 . S
O87 C89 1.353 . S
O88 U86 2.458 . S
O88 C89 1.286 . S
C89 U86 2.984 . S
C89 O87 1.353 . S
C89 O88 1.286 . S
C89 C91 1.363 . S
C90 C80 1.465 . S
C90 U86 2.847 . S
C90 O104 1.249 . S
C90 O105 1.202 . S
C91 C89 1.363 . S
C91 C93 1.408 . S
C91 C96 1.342 . S
C92 C93 1.310 . S
C92 C95 1.461 . S
C92 H112 0.932 . S
C93 C91 1.408 . S
C93 C92 1.310 . S
C93 H113 0.930 . S
C94 C95 1.474 . S
C94 C96 1.285 . S
C94 H114 0.929 . S
C95 C92 1.461 . S
C95 C94 1.474 . S
C96 C91 1.342 . S
C96 C94 1.285 . S
C96 H115 0.930 . S
C97 C100 1.424 . S
C97 C102 1.245 . S
C97 C103 1.428 . S
C98 C101 1.260 . S
C98 C102 1.477 . S
C98 H116 0.932 . S
C99 C100 1.384 . S
C99 C101 1.479 . S
C99 H117 0.929 . S
C100 C97 1.424 . S
C100 C99 1.384 . S
C100 H118 0.928 . S
C101 C98 1.260 . S
C101 C99 1.479 . S
C102 C97 1.245 . S
C102 C98 1.477 . S
C102 H119 0.932 . S
C103 U86 2.882 . S
C103 C97 1.428 . S
C103 O106 1.301 . S
C103 O107 1.282 . S
O104 U86 2.441 . S
O104 C90 1.249 . S
O105 U86 2.420 . S
O105 C90 1.202 . S
O106 U86 2.455 . S
O106 C103 1.301 . S
O107 U86 2.449 . S
O107 C103 1.282 . S
H108 C81 0.931 . S
H109 C83 0.929 . S
H110 C84 0.930 . S
H111 C85 0.931 . S
H112 C92 0.932 . S
H113 C93 0.930 . S
H114 C94 0.929 . S
H115 C96 0.930 . S
H116 C98 0.932 . S
H117 C99 0.929 . S
H118 C100 0.928 . S
H119 C102 0.932 . S
C120 C121 1.264 . S
C120 C125 1.479 . S
C120 C130 1.465 . S
C121 C120 1.264 . S
C121 C123 1.339 . S
C121 H148 0.931 . S
C122 C123 1.395 . S
C122 C124 1.320 . S
C123 C121 1.339 . S
C123 C122 1.395 . S
C123 H149 0.929 . S
C124 C122 1.320 . S
C124 C125 1.405 . S
C124 H150 0.930 . S
C125 C120 1.479 . S
C125 C124 1.405 . S
C125 H151 0.931 . S
U126 O127 2.454 . S
U126 O128 2.458 . S
U126 C129 2.984 . S
U126 C130 2.847 . S
U126 C143 2.882 . S
U126 O144 2.441 . S
U126 O145 2.420 . S
U126 O146 2.455 . S
U126 O147 2.449 . S
O127 U126 2.454 . S
O127 C129 1.353 . S
O128 U126 2.458 . S
O128 C129 1.286 . S
C129 U126 2.984 . S
C129 O127 1.353 . S
C129 O128 1.286 . S
C129 C131 1.363 . S
C130 C120 1.465 . S
C130 U126 2.847 . S
C130 O144 1.249 . S
C130 O145 1.202 . S
C131 C129 1.363 . S
C131 C133 1.408 . S
C131 C136 1.342 . S
C132 C133 1.310 . S
C132 C135 1.461 . S
C132 H152 0.932 . S
C133 C131 1.408 . S
C133 C132 1.310 . S
C133 H153 0.930 . S
C134 C135 1.474 . S
C134 C136 1.285 . S
C134 H154 0.929 . S
C135 C132 1.461 . S
C135 C134 1.474 . S
C136 C131 1.342 . S
C136 C134 1.285 . S
C136 H155 0.930 . S
C137 C140 1.424 . S
C137 C142 1.245 . S
C137 C143 1.428 . S
C138 C141 1.260 . S
C138 C142 1.477 . S
C138 H156 0.932 . S
C139 C140 1.384 . S
C139 C141 1.479 . S
C139 H157 0.929 . S
C140 C137 1.424 . S
C140 C139 1.384 . S
C140 H158 0.928 . S
C141 C138 1.260 . S
C141 C139 1.479 . S
C142 C137 1.245 . S
C142 C138 1.477 . S
C142 H159 0.932 . S
C143 U126 2.882 . S
C143 C137 1.428 . S
C143 O146 1.301 . S
C143 O147 1.282 . S
O144 U126 2.441 . S
O144 C130 1.249 . S
O145 U126 2.420 . S
O145 C130 1.202 . S
O146 U126 2.455 . S
O146 C143 1.301 . S
O147 U126 2.449 . S
O147 C143 1.282 . S
H148 C121 0.931 . S
H149 C123 0.929 . S
H150 C124 0.930 . S
H151 C125 0.931 . S
H152 C132 0.932 . S
H153 C133 0.930 . S
H154 C134 0.929 . S
H155 C136 0.930 . S
H156 C138 0.932 . S
H157 C139 0.929 . S
H158 C140 0.928 . S
H159 C142 0.932 . S
C160 C161 1.264 . S
C160 C165 1.479 . S
C160 C170 1.465 . S
C161 C160 1.264 . S
C161 C163 1.339 . S
C161 H188 0.931 . S
C162 C163 1.395 . S
C162 C164 1.320 . S
C163 C161 1.339 . S
C163 C162 1.395 . S
C163 H189 0.929 . S
C164 C162 1.320 . S
C164 C165 1.405 . S
C164 H190 0.930 . S
C165 C160 1.479 . S
C165 C164 1.405 . S
C165 H191 0.931 . S
U166 O167 2.454 . S
U166 O168 2.458 . S
U166 C169 2.984 . S
U166 C170 2.847 . S
U166 C183 2.882 . S
U166 O184 2.441 . S
U166 O185 2.420 . S
U166 O186 2.455 . S
U166 O187 2.449 . S
O167 U166 2.454 . S
O167 C169 1.353 . S
O168 U166 2.458 . S
O168 C169 1.286 . S
C169 U166 2.984 . S
C169 O167 1.353 . S
C169 O168 1.286 . S
C169 C171 1.363 . S
C170 C160 1.465 . S
C170 U166 2.847 . S
C170 O184 1.249 . S
C170 O185 1.202 . S
C171 C169 1.363 . S
C171 C173 1.408 . S
C171 C176 1.342 . S
C172 C173 1.310 . S
C172 C175 1.461 . S
C172 H192 0.932 . S
C173 C171 1.408 . S
C173 C172 1.310 . S
C173 H193 0.930 . S
C174 C175 1.474 . S
C174 C176 1.285 . S
C174 H194 0.929 . S
C175 C172 1.461 . S
C175 C174 1.474 . S
C176 C171 1.342 . S
C176 C174 1.285 . S
C176 H195 0.930 . S
C177 C180 1.424 . S
C177 C182 1.245 . S
C177 C183 1.428 . S
C178 C181 1.260 . S
C178 C182 1.477 . S
C178 H196 0.932 . S
C179 C180 1.384 . S
C179 C181 1.479 . S
C179 H197 0.929 . S
C180 C177 1.424 . S
C180 C179 1.384 . S
C180 H198 0.928 . S
C181 C178 1.260 . S
C181 C179 1.479 . S
C182 C177 1.245 . S
C182 C178 1.477 . S
C182 H199 0.932 . S
C183 U166 2.882 . S
C183 C177 1.428 . S
C183 O186 1.301 . S
C183 O187 1.282 . S
O184 U166 2.441 . S
O184 C170 1.249 . S
O185 U166 2.420 . S
O185 C170 1.202 . S
O186 U166 2.455 . S
O186 C183 1.301 . S
O187 U166 2.449 . S
O187 C183 1.282 . S
H188 C161 0.931 . S
H189 C163 0.929 . S
H190 C164 0.930 . S
H191 C165 0.931 . S
H192 C172 0.932 . S
H193 C173 0.930 . S
H194 C174 0.929 . S
H195 C176 0.930 . S
H196 C178 0.932 . S
H197 C179 0.929 . S
H198 C180 0.928 . S
H199 C182 0.932 . S
C200 C201 1.264 . S
C200 C205 1.479 . S
C200 C210 1.465 . S
C201 C200 1.264 . S
C201 C203 1.339 . S
C201 H228 0.931 . S
C202 C203 1.395 . S
C202 C204 1.320 . S
C203 C201 1.339 . S
C203 C202 1.395 . S
C203 H229 0.929 . S
C204 C202 1.320 . S
C204 C205 1.405 . S
C204 H230 0.930 . S
C205 C200 1.479 . S
C205 C204 1.405 . S
C205 H231 0.931 . S
U206 O207 2.454 . S
U206 O208 2.458 . S
U206 C209 2.984 . S
U206 C210 2.847 . S
U206 C223 2.882 . S
U206 O224 2.441 . S
U206 O225 2.420 . S
U206 O226 2.455 . S
U206 O227 2.449 . S
O207 U206 2.454 . S
O207 C209 1.353 . S
O208 U206 2.458 . S
O208 C209 1.286 . S
C209 U206 2.984 . S
C209 O207 1.353 . S
C209 O208 1.286 . S
C209 C211 1.363 . S
C210 C200 1.465 . S
C210 U206 2.847 . S
C210 O224 1.249 . S
C210 O225 1.202 . S
C211 C209 1.363 . S
C211 C213 1.408 . S
C211 C216 1.342 . S
C212 C213 1.310 . S
C212 C215 1.461 . S
C212 H232 0.932 . S
C213 C211 1.408 . S
C213 C212 1.310 . S
C213 H233 0.930 . S
C214 C215 1.474 . S
C214 C216 1.285 . S
C214 H234 0.929 . S
C215 C212 1.461 . S
C215 C214 1.474 . S
C216 C211 1.342 . S
C216 C214 1.285 . S
C216 H235 0.930 . S
C217 C220 1.424 . S
C217 C222 1.245 . S
C217 C223 1.428 . S
C218 C221 1.260 . S
C218 C222 1.477 . S
C218 H236 0.932 . S
C219 C220 1.384 . S
C219 C221 1.479 . S
C219 H237 0.929 . S
C220 C217 1.424 . S
C220 C219 1.384 . S
C220 H238 0.928 . S
C221 C218 1.260 . S
C221 C219 1.479 . S
C222 C217 1.245 . S
C222 C218 1.477 . S
C222 H239 0.932 . S
C223 U206 2.882 . S
C223 C217 1.428 . S
C223 O226 1.301 . S
C223 O227 1.282 . S
O224 U206 2.441 . S
O224 C210 1.249 . S
O225 U206 2.420 . S
O225 C210 1.202 . S
O226 U206 2.455 . S
O226 C223 1.301 . S
O227 U206 2.449 . S
O227 C223 1.282 . S
H228 C201 0.931 . S
H229 C203 0.929 . S
H230 C204 0.930 . S
H231 C205 0.931 . S
H232 C212 0.932 . S
H233 C213 0.930 . S
H234 C214 0.929 . S
H235 C216 0.930 . S
H236 C218 0.932 . S
H237 C219 0.929 . S
H238 C220 0.928 . S
H239 C222 0.932 . S
C240 C241 1.264 . S
C240 C245 1.479 . S
C240 C250 1.465 . S
C241 C240 1.264 . S
C241 C243 1.339 . S
C241 H268 0.931 . S
C242 C243 1.395 . S
C242 C244 1.320 . S
C243 C241 1.339 . S
C243 C242 1.395 . S
C243 H269 0.929 . S
C244 C242 1.320 . S
C244 C245 1.405 . S
C244 H270 0.930 . S
C245 C240 1.479 . S
C245 C244 1.405 . S
C245 H271 0.931 . S
U246 O247 2.454 . S
U246 O248 2.458 . S
U246 C249 2.984 . S
U246 C250 2.847 . S
U246 C263 2.882 . S
U246 O264 2.441 . S
U246 O265 2.420 . S
U246 O266 2.455 . S
U246 O267 2.449 . S
O247 U246 2.454 . S
O247 C249 1.353 . S
O248 U246 2.458 . S
O248 C249 1.286 . S
C249 U246 2.984 . S
C249 O247 1.353 . S
C249 O248 1.286 . S
C249 C251 1.363 . S
C250 C240 1.465 . S
C250 U246 2.847 . S
C250 O264 1.249 . S
C250 O265 1.202 . S
C251 C249 1.363 . S
C251 C253 1.408 . S
C251 C256 1.342 . S
C252 C253 1.310 . S
C252 C255 1.461 . S
C252 H272 0.932 . S
C253 C251 1.408 . S
C253 C252 1.310 . S
C253 H273 0.930 . S
C254 C255 1.474 . S
C254 C256 1.285 . S
C254 H274 0.929 . S
C255 C252 1.461 . S
C255 C254 1.474 . S
C256 C251 1.342 . S
C256 C254 1.285 . S
C256 H275 0.930 . S
C257 C260 1.424 . S
C257 C262 1.245 . S
C257 C263 1.428 . S
C258 C261 1.260 . S
C258 C262 1.477 . S
C258 H276 0.932 . S
C259 C260 1.384 . S
C259 C261 1.479 . S
C259 H277 0.929 . S
C260 C257 1.424 . S
C260 C259 1.384 . S
C260 H278 0.928 . S
C261 C258 1.260 . S
C261 C259 1.479 . S
C262 C257 1.245 . S
C262 C258 1.477 . S
C262 H279 0.932 . S
C263 U246 2.882 . S
C263 C257 1.428 . S
C263 O266 1.301 . S
C263 O267 1.282 . S
O264 U246 2.441 . S
O264 C250 1.249 . S
O265 U246 2.420 . S
O265 C250 1.202 . S
O266 U246 2.455 . S
O266 C263 1.301 . S
O267 U246 2.449 . S
O267 C263 1.282 . S
H268 C241 0.931 . S
H269 C243 0.929 . S
H270 C244 0.930 . S
H271 C245 0.931 . S
H272 C252 0.932 . S
H273 C253 0.930 . S
H274 C254 0.929 . S
H275 C256 0.930 . S
H276 C258 0.932 . S
H277 C259 0.929 . S
H278 C260 0.928 . S
H279 C262 0.932 . S
C280 C281 1.264 . S
C280 C285 1.479 . S
C280 C290 1.465 . S
C281 C280 1.264 . S
C281 C283 1.339 . S
C281 H308 0.931 . S
C282 C283 1.395 . S
C282 C284 1.320 . S
C283 C281 1.339 . S
C283 C282 1.395 . S
C283 H309 0.929 . S
C284 C282 1.320 . S
C284 C285 1.405 . S
C284 H310 0.930 . S
C285 C280 1.479 . S
C285 C284 1.405 . S
C285 H311 0.931 . S
U286 O287 2.454 . S
U286 O288 2.458 . S
U286 C289 2.984 . S
U286 C290 2.847 . S
U286 C303 2.882 . S
U286 O304 2.441 . S
U286 O305 2.420 . S
U286 O306 2.455 . S
U286 O307 2.449 . S
O287 U286 2.454 . S
O287 C289 1.353 . S
O288 U286 2.458 . S
O288 C289 1.286 . S
C289 U286 2.984 . S
C289 O287 1.353 . S
C289 O288 1.286 . S
C289 C291 1.363 . S
C290 C280 1.465 . S
C290 U286 2.847 . S
C290 O304 1.249 . S
C290 O305 1.202 . S
C291 C289 1.363 . S
C291 C293 1.408 . S
C291 C296 1.342 . S
C292 C293 1.310 . S
C292 C295 1.461 . S
C292 H312 0.932 . S
C293 C291 1.408 . S
C293 C292 1.310 . S
C293 H313 0.930 . S
C294 C295 1.474 . S
C294 C296 1.285 . S
C294 H314 0.929 . S
C295 C292 1.461 . S
C295 C294 1.474 . S
C296 C291 1.342 . S
C296 C294 1.285 . S
C296 H315 0.930 . S
C297 C300 1.424 . S
C297 C302 1.245 . S
C297 C303 1.428 . S
C298 C301 1.260 . S
C298 C302 1.477 . S
C298 H316 0.932 . S
C299 C300 1.384 . S
C299 C301 1.479 . S
C299 H317 0.929 . S
C300 C297 1.424 . S
C300 C299 1.384 . S
C300 H318 0.928 . S
C301 C298 1.260 . S
C301 C299 1.479 . S
C302 C297 1.245 . S
C302 C298 1.477 . S
C302 H319 0.932 . S
C303 U286 2.882 . S
C303 C297 1.428 . S
C303 O306 1.301 . S
C303 O307 1.282 . S
O304 U286 2.441 . S
O304 C290 1.249 . S
O305 U286 2.420 . S
O305 C290 1.202 . S
O306 U286 2.455 . S
O306 C303 1.301 . S
O307 U286 2.449 . S
O307 C303 1.282 . S
H308 C281 0.931 . S
H309 C283 0.929 . S
H310 C284 0.930 . S
H311 C285 0.931 . S
H312 C292 0.932 . S
H313 C293 0.930 . S
H314 C294 0.929 . S
H315 C296 0.930 . S
H316 C298 0.932 . S
H317 C299 0.929 . S
H318 C300 0.928 . S
H319 C302 0.932 . S
C320 C321 1.264 . S
C320 C325 1.479 . S
C320 C330 1.465 . S
C321 C320 1.264 . S
C321 C323 1.339 . S
C321 H348 0.931 . S
C322 C323 1.395 . S
C322 C324 1.320 . S
C323 C321 1.339 . S
C323 C322 1.395 . S
C323 H349 0.929 . S
C324 C322 1.320 . S
C324 C325 1.405 . S
C324 H350 0.930 . S
C325 C320 1.479 . S
C325 C324 1.405 . S
C325 H351 0.931 . S
U326 O327 2.454 . S
U326 O328 2.458 . S
U326 C329 2.984 . S
U326 C330 2.847 . S
U326 C343 2.882 . S
U326 O344 2.441 . S
U326 O345 2.420 . S
U326 O346 2.455 . S
U326 O347 2.449 . S
O327 U326 2.454 . S
O327 C329 1.353 . S
O328 U326 2.458 . S
O328 C329 1.286 . S
C329 U326 2.984 . S
C329 O327 1.353 . S
C329 O328 1.286 . S
C329 C331 1.363 . S
C330 C320 1.465 . S
C330 U326 2.847 . S
C330 O344 1.249 . S
C330 O345 1.202 . S
C331 C329 1.363 . S
C331 C333 1.408 . S
C331 C336 1.342 . S
C332 C333 1.310 . S
C332 C335 1.461 . S
C332 H352 0.932 . S
C333 C331 1.408 . S
C333 C332 1.310 . S
C333 H353 0.930 . S
C334 C335 1.474 . S
C334 C336 1.285 . S
C334 H354 0.929 . S
C335 C332 1.461 . S
C335 C334 1.474 . S
C336 C331 1.342 . S
C336 C334 1.285 . S
C336 H355 0.930 . S
C337 C340 1.424 . S
C337 C342 1.245 . S
C337 C343 1.428 . S
C338 C341 1.260 . S
C338 C342 1.477 . S
C338 H356 0.932 . S
C339 C340 1.384 . S
C339 C341 1.479 . S
C339 H357 0.929 . S
C340 C337 1.424 . S
C340 C339 1.384 . S
C340 H358 0.928 . S
C341 C338 1.260 . S
C341 C339 1.479 . S
C342 C337 1.245 . S
C342 C338 1.477 . S
C342 H359 0.932 . S
C343 U326 2.882 . S
C343 C337 1.428 . S
C343 O346 1.301 . S
C343 O347 1.282 . S
O344 U326 2.441 . S
O344 C330 1.249 . S
O345 U326 2.420 . S
O345 C330 1.202 . S
O346 U326 2.455 . S
O346 C343 1.301 . S
O347 U326 2.449 . S
O347 C343 1.282 . S
H348 C321 0.931 . S
H349 C323 0.929 . S
H350 C324 0.930 . S
H351 C325 0.931 . S
H352 C332 0.932 . S
H353 C333 0.930 . S
H354 C334 0.929 . S
H355 C336 0.930 . S
H356 C338 0.932 . S
H357 C339 0.929 . S
H358 C340 0.928 . S
H359 C342 0.932 . S
C360 C361 1.264 . S
C360 C365 1.479 . S
C360 C370 1.465 . S
C361 C360 1.264 . S
C361 C363 1.339 . S
C361 H388 0.931 . S
C362 C363 1.395 . S
C362 C364 1.320 . S
C363 C361 1.339 . S
C363 C362 1.395 . S
C363 H389 0.929 . S
C364 C362 1.320 . S
C364 C365 1.405 . S
C364 H390 0.930 . S
C365 C360 1.479 . S
C365 C364 1.405 . S
C365 H391 0.931 . S
U366 O367 2.454 . S
U366 O368 2.458 . S
U366 C369 2.984 . S
U366 C370 2.847 . S
U366 C383 2.882 . S
U366 O384 2.441 . S
U366 O385 2.420 . S
U366 O386 2.455 . S
U366 O387 2.449 . S
O367 U366 2.454 . S
O367 C369 1.353 . S
O368 U366 2.458 . S
O368 C369 1.286 . S
C369 U366 2.984 . S
C369 O367 1.353 . S
C369 O368 1.286 . S
C369 C371 1.363 . S
C370 C360 1.465 . S
C370 U366 2.847 . S
C370 O384 1.249 . S
C370 O385 1.202 . S
C371 C369 1.363 . S
C371 C373 1.408 . S
C371 C376 1.342 . S
C372 C373 1.310 . S
C372 C375 1.461 . S
C372 H392 0.932 . S
C373 C371 1.408 . S
C373 C372 1.310 . S
C373 H393 0.930 . S
C374 C375 1.474 . S
C374 C376 1.285 . S
C374 H394 0.929 . S
C375 C372 1.461 . S
C375 C374 1.474 . S
C376 C371 1.342 . S
C376 C374 1.285 . S
C376 H395 0.930 . S
C377 C380 1.424 . S
C377 C382 1.245 . S
C377 C383 1.428 . S
C378 C381 1.260 . S
C378 C382 1.477 . S
C378 H396 0.932 . S
C379 C380 1.384 . S
C379 C381 1.479 . S
C379 H397 0.929 . S
C380 C377 1.424 . S
C380 C379 1.384 . S
C380 H398 0.928 . S
C381 C378 1.260 . S
C381 C379 1.479 . S
C382 C377 1.245 . S
C382 C378 1.477 . S
C382 H399 0.932 . S
C383 U366 2.882 . S
C383 C377 1.428 . S
C383 O386 1.301 . S
C383 O387 1.282 . S
O384 U366 2.441 . S
O384 C370 1.249 . S
O385 U366 2.420 . S
O385 C370 1.202 . S
O386 U366 2.455 . S
O386 C383 1.301 . S
O387 U366 2.449 . S
O387 C383 1.282 . S
H388 C361 0.931 . S
H389 C363 0.929 . S
H390 C364 0.930 . S
H391 C365 0.931 . S
H392 C372 0.932 . S
H393 C373 0.930 . S
H394 C374 0.929 . S
H395 C376 0.930 . S
H396 C378 0.932 . S
H397 C379 0.929 . S
H398 C380 0.928 . S
H399 C382 0.932 . S
C400 C401 1.264 . S
C400 C405 1.479 . S
C400 C410 1.465 . S
C401 C400 1.264 . S
C401 C403 1.339 . S
C401 H428 0.931 . S
C402 C403 1.395 . S
C402 C404 1.320 . S
C403 C401 1.339 . S
C403 C402 1.395 . S
C403 H429 0.929 . S
C404 C402 1.320 . S
C404 C405 1.405 . S
C404 H430 0.930 . S
C405 C400 1.479 . S
C405 C404 1.405 . S
C405 H431 0.931 . S
U406 O407 2.454 . S
U406 O408 2.458 . S
U406 C409 2.984 . S
U406 C410 2.847 . S
U406 C423 2.882 . S
U406 O424 2.441 . S
U406 O425 2.420 . S
U406 O426 2.455 . S
U406 O427 2.449 . S
O407 U406 2.454 . S
O407 C409 1.353 . S
O408 U406 2.458 . S
O408 C409 1.286 . S
C409 U406 2.984 . S
C409 O407 1.353 . S
C409 O408 1.286 . S
C409 C411 1.363 . S
C410 C400 1.465 . S
C410 U406 2.847 . S
C410 O424 1.249 . S
C410 O425 1.202 . S
C411 C409 1.363 . S
C411 C413 1.408 . S
C411 C416 1.342 . S
C412 C413 1.310 . S
C412 C415 1.461 . S
C412 H432 0.932 . S
C413 C411 1.408 . S
C413 C412 1.310 . S
C413 H433 0.930 . S
C414 C415 1.474 . S
C414 C416 1.285 . S
C414 H434 0.929 . S
C415 C412 1.461 . S
C415 C414 1.474 . S
C416 C411 1.342 . S
C416 C414 1.285 . S
C416 H435 0.930 . S
C417 C420 1.424 . S
C417 C422 1.245 . S
C417 C423 1.428 . S
C418 C421 1.260 . S
C418 C422 1.477 . S
C418 H436 0.932 . S
C419 C420 1.384 . S
C419 C421 1.479 . S
C419 H437 0.929 . S
C420 C417 1.424 . S
C420 C419 1.384 . S
C420 H438 0.928 . S
C421 C418 1.260 . S
C421 C419 1.479 . S
C422 C417 1.245 . S
C422 C418 1.477 . S
C422 H439 0.932 . S
C423 U406 2.882 . S
C423 C417 1.428 . S
C423 O426 1.301 . S
C423 O427 1.282 . S
O424 U406 2.441 . S
O424 C410 1.249 . S
O425 U406 2.420 . S
O425 C410 1.202 . S
O426 U406 2.455 . S
O426 C423 1.301 . S
O427 U406 2.449 . S
O427 C423 1.282 . S
H428 C401 0.931 . S
H429 C403 0.929 . S
H430 C404 0.930 . S
H431 C405 0.931 . S
H432 C412 0.932 . S
H433 C413 0.930 . S
H434 C414 0.929 . S
H435 C416 0.930 . S
H436 C418 0.932 . S
H437 C419 0.929 . S
H438 C420 0.928 . S
H439 C422 0.932 . S
C440 C441 1.264 . S
C440 C445 1.479 . S
C440 C450 1.465 . S
C441 C440 1.264 . S
C441 C443 1.339 . S
C441 H468 0.931 . S
C442 C443 1.395 . S
C442 C444 1.320 . S
C443 C441 1.339 . S
C443 C442 1.395 . S
C443 H469 0.929 . S
C444 C442 1.320 . S
C444 C445 1.405 . S
C444 H470 0.930 . S
C445 C440 1.479 . S
C445 C444 1.405 . S
C445 H471 0.931 . S
U446 O447 2.454 . S
U446 O448 2.458 . S
U446 C449 2.984 . S
U446 C450 2.847 . S
U446 C463 2.882 . S
U446 O464 2.441 . S
U446 O465 2.420 . S
U446 O466 2.455 . S
U446 O467 2.449 . S
O447 U446 2.454 . S
O447 C449 1.353 . S
O448 U446 2.458 . S
O448 C449 1.286 . S
C449 U446 2.984 . S
C449 O447 1.353 . S
C449 O448 1.286 . S
C449 C451 1.363 . S
C450 C440 1.465 . S
C450 U446 2.847 . S
C450 O464 1.249 . S
C450 O465 1.202 . S
C451 C449 1.363 . S
C451 C453 1.408 . S
C451 C456 1.342 . S
C452 C453 1.310 . S
C452 C455 1.461 . S
C452 H472 0.932 . S
C453 C451 1.408 . S
C453 C452 1.310 . S
C453 H473 0.930 . S
C454 C455 1.474 . S
C454 C456 1.285 . S
C454 H474 0.929 . S
C455 C452 1.461 . S
C455 C454 1.474 . S
C456 C451 1.342 . S
C456 C454 1.285 . S
C456 H475 0.930 . S
C457 C460 1.424 . S
C457 C462 1.245 . S
C457 C463 1.428 . S
C458 C461 1.260 . S
C458 C462 1.477 . S
C458 H476 0.932 . S
C459 C460 1.384 . S
C459 C461 1.479 . S
C459 H477 0.929 . S
C460 C457 1.424 . S
C460 C459 1.384 . S
C460 H478 0.928 . S
C461 C458 1.260 . S
C461 C459 1.479 . S
C462 C457 1.245 . S
C462 C458 1.477 . S
C462 H479 0.932 . S
C463 U446 2.882 . S
C463 C457 1.428 . S
C463 O466 1.301 . S
C463 O467 1.282 . S
O464 U446 2.441 . S
O464 C450 1.249 . S
O465 U446 2.420 . S
O465 C450 1.202 . S
O466 U446 2.455 . S
O466 C463 1.301 . S
O467 U446 2.449 . S
O467 C463 1.282 . S
H468 C441 0.931 . S
H469 C443 0.929 . S
H470 C444 0.930 . S
H471 C445 0.931 . S
H472 C452 0.932 . S
H473 C453 0.930 . S
H474 C454 0.929 . S
H475 C456 0.930 . S
H476 C458 0.932 . S
H477 C459 0.929 . S
H478 C460 0.928 . S
H479 C462 0.932 . S
C480 C481 1.264 . S
C480 C485 1.479 . S
C480 C490 1.465 . S
C481 C480 1.264 . S
C481 C483 1.339 . S
C481 H508 0.931 . S
C482 C483 1.395 . S
C482 C484 1.320 . S
C483 C481 1.339 . S
C483 C482 1.395 . S
C483 H509 0.929 . S
C484 C482 1.320 . S
C484 C485 1.405 . S
C484 H510 0.930 . S
C485 C480 1.479 . S
C485 C484 1.405 . S
C485 H511 0.931 . S
U486 O487 2.454 . S
U486 O488 2.458 . S
U486 C489 2.984 . S
U486 C490 2.847 . S
U486 C503 2.882 . S
U486 O504 2.441 . S
U486 O505 2.420 . S
U486 O506 2.455 . S
U486 O507 2.449 . S
O487 U486 2.454 . S
O487 C489 1.353 . S
O488 U486 2.458 . S
O488 C489 1.286 . S
C489 U486 2.984 . S
C489 O487 1.353 . S
C489 O488 1.286 . S
C489 C491 1.363 . S
C490 C480 1.465 . S
C490 U486 2.847 . S
C490 O504 1.249 . S
C490 O505 1.202 . S
C491 C489 1.363 . S
C491 C493 1.408 . S
C491 C496 1.342 . S
C492 C493 1.310 . S
C492 C495 1.461 . S
C492 H512 0.932 . S
C493 C491 1.408 . S
C493 C492 1.310 . S
C493 H513 0.930 . S
C494 C495 1.474 . S
C494 C496 1.285 . S
C494 H514 0.929 . S
C495 C492 1.461 . S
C495 C494 1.474 . S
C496 C491 1.342 . S
C496 C494 1.285 . S
C496 H515 0.930 . S
C497 C500 1.424 . S
C497 C502 1.245 . S
C497 C503 1.428 . S
C498 C501 1.260 . S
C498 C502 1.477 . S
C498 H516 0.932 . S
C499 C500 1.384 . S
C499 C501 1.479 . S
C499 H517 0.929 . S
C500 C497 1.424 . S
C500 C499 1.384 . S
C500 H518 0.928 . S
C501 C498 1.260 . S
C501 C499 1.479 . S
C502 C497 1.245 . S
C502 C498 1.477 . S
C502 H519 0.932 . S
C503 U486 2.882 . S
C503 C497 1.428 . S
C503 O506 1.301 . S
C503 O507 1.282 . S
O504 U486 2.441 . S
O504 C490 1.249 . S
O505 U486 2.420 . S
O505 C490 1.202 . S
O506 U486 2.455 . S
O506 C503 1.301 . S
O507 U486 2.449 . S
O507 C503 1.282 . S
H508 C481 0.931 . S
H509 C483 0.929 . S
H510 C484 0.930 . S
H511 C485 0.931 . S
H512 C492 0.932 . S
H513 C493 0.930 . S
H514 C494 0.929 . S
H515 C496 0.930 . S
H516 C498 0.932 . S
H517 C499 0.929 . S
H518 C500 0.928 . S
H519 C502 0.932 . S
C520 C521 1.264 . S
C520 C525 1.479 . S
C520 C530 1.465 . S
C521 C520 1.264 . S
C521 C523 1.339 . S
C521 H548 0.931 . S
C522 C523 1.395 . S
C522 C524 1.320 . S
C523 C521 1.339 . S
C523 C522 1.395 . S
C523 H549 0.929 . S
C524 C522 1.320 . S
C524 C525 1.405 . S
C524 H550 0.930 . S
C525 C520 1.479 . S
C525 C524 1.405 . S
C525 H551 0.931 . S
U526 O527 2.454 . S
U526 O528 2.458 . S
U526 C529 2.984 . S
U526 C530 2.847 . S
U526 C543 2.882 . S
U526 O544 2.441 . S
U526 O545 2.420 . S
U526 O546 2.455 . S
U526 O547 2.449 . S
O527 U526 2.454 . S
O527 C529 1.353 . S
O528 U526 2.458 . S
O528 C529 1.286 . S
C529 U526 2.984 . S
C529 O527 1.353 . S
C529 O528 1.286 . S
C529 C531 1.363 . S
C530 C520 1.465 . S
C530 U526 2.847 . S
C530 O544 1.249 . S
C530 O545 1.202 . S
C531 C529 1.363 . S
C531 C533 1.408 . S
C531 C536 1.342 . S
C532 C533 1.310 . S
C532 C535 1.461 . S
C532 H552 0.932 . S
C533 C531 1.408 . S
C533 C532 1.310 . S
C533 H553 0.930 . S
C534 C535 1.474 . S
C534 C536 1.285 . S
C534 H554 0.929 . S
C535 C532 1.461 . S
C535 C534 1.474 . S
C536 C531 1.342 . S
C536 C534 1.285 . S
C536 H555 0.930 . S
C537 C540 1.424 . S
C537 C542 1.245 . S
C537 C543 1.428 . S
C538 C541 1.260 . S
C538 C542 1.477 . S
C538 H556 0.932 . S
C539 C540 1.384 . S
C539 C541 1.479 . S
C539 H557 0.929 . S
C540 C537 1.424 . S
C540 C539 1.384 . S
C540 H558 0.928 . S
C541 C538 1.260 . S
C541 C539 1.479 . S
C542 C537 1.245 . S
C542 C538 1.477 . S
C542 H559 0.932 . S
C543 U526 2.882 . S
C543 C537 1.428 . S
C543 O546 1.301 . S
C543 O547 1.282 . S
O544 U526 2.441 . S
O544 C530 1.249 . S
O545 U526 2.420 . S
O545 C530 1.202 . S
O546 U526 2.455 . S
O546 C543 1.301 . S
O547 U526 2.449 . S
O547 C543 1.282 . S
H548 C521 0.931 . S
H549 C523 0.929 . S
H550 C524 0.930 . S
H551 C525 0.931 . S
H552 C532 0.932 . S
H553 C533 0.930 . S
H554 C534 0.929 . S
H555 C536 0.930 . S
H556 C538 0.932 . S
H557 C539 0.929 . S
H558 C540 0.928 . S
H559 C542 0.932 . S
C560 C561 1.264 . S
C560 C565 1.479 . S
C560 C570 1.465 . S
C561 C560 1.264 . S
C561 C563 1.339 . S
C561 H588 0.931 . S
C562 C563 1.395 . S
C562 C564 1.320 . S
C563 C561 1.339 . S
C563 C562 1.395 . S
C563 H589 0.929 . S
C564 C562 1.320 . S
C564 C565 1.405 . S
C564 H590 0.930 . S
C565 C560 1.479 . S
C565 C564 1.405 . S
C565 H591 0.931 . S
U566 O567 2.454 . S
U566 O568 2.458 . S
U566 C569 2.984 . S
U566 C570 2.847 . S
U566 C583 2.882 . S
U566 O584 2.441 . S
U566 O585 2.420 . S
U566 O586 2.455 . S
U566 O587 2.449 . S
O567 U566 2.454 . S
O567 C569 1.353 . S
O568 U566 2.458 . S
O568 C569 1.286 . S
C569 U566 2.984 . S
C569 O567 1.353 . S
C569 O568 1.286 . S
C569 C571 1.363 . S
C570 C560 1.465 . S
C570 U566 2.847 . S
C570 O584 1.249 . S
C570 O585 1.202 . S
C571 C569 1.363 . S
C571 C573 1.408 . S
C571 C576 1.342 . S
C572 C573 1.310 . S
C572 C575 1.461 . S
C572 H592 0.932 . S
C573 C571 1.408 . S
C573 C572 1.310 . S
C573 H593 0.930 . S
C574 C575 1.474 . S
C574 C576 1.285 . S
C574 H594 0.929 . S
C575 C572 1.461 . S
C575 C574 1.474 . S
C576 C571 1.342 . S
C576 C574 1.285 . S
C576 H595 0.930 . S
C577 C580 1.424 . S
C577 C582 1.245 . S
C577 C583 1.428 . S
C578 C581 1.260 . S
C578 C582 1.477 . S
C578 H596 0.932 . S
C579 C580 1.384 . S
C579 C581 1.479 . S
C579 H597 0.929 . S
C580 C577 1.424 . S
C580 C579 1.384 . S
C580 H598 0.928 . S
C581 C578 1.260 . S
C581 C579 1.479 . S
C582 C577 1.245 . S
C582 C578 1.477 . S
C582 H599 0.932 . S
C583 U566 2.882 . S
C583 C577 1.428 . S
C583 O586 1.301 . S
C583 O587 1.282 . S
O584 U566 2.441 . S
O584 C570 1.249 . S
O585 U566 2.420 . S
O585 C570 1.202 . S
O586 U566 2.455 . S
O586 C583 1.301 . S
O587 U566 2.449 . S
O587 C583 1.282 . S
H588 C561 0.931 . S
H589 C563 0.929 . S
H590 C564 0.930 . S
H591 C565 0.931 . S
H592 C572 0.932 . S
H593 C573 0.930 . S
H594 C574 0.929 . S
H595 C576 0.930 . S
H596 C578 0.932 . S
H597 C579 0.929 . S
H598 C580 0.928 . S
H599 C582 0.932 . S
C600 C601 1.264 . S
C600 C605 1.479 . S
C600 C610 1.465 . S
C601 C600 1.264 . S
C601 C603 1.339 . S
C601 H628 0.931 . S
C602 C603 1.395 . S
C602 C604 1.320 . S
C603 C601 1.339 . S
C603 C602 1.395 . S
C603 H629 0.929 . S
C604 C602 1.320 . S
C604 C605 1.405 . S
C604 H630 0.930 . S
C605 C600 1.479 . S
C605 C604 1.405 . S
C605 H631 0.931 . S
U606 O607 2.454 . S
U606 O608 2.458 . S
U606 C609 2.984 . S
U606 C610 2.847 . S
U606 C623 2.882 . S
U606 O624 2.441 . S
U606 O625 2.420 . S
U606 O626 2.455 . S
U606 O627 2.449 . S
O607 U606 2.454 . S
O607 C609 1.353 . S
O608 U606 2.458 . S
O608 C609 1.286 . S
C609 U606 2.984 . S
C609 O607 1.353 . S
C609 O608 1.286 . S
C609 C611 1.363 . S
C610 C600 1.465 . S
C610 U606 2.847 . S
C610 O624 1.249 . S
C610 O625 1.202 . S
C611 C609 1.363 . S
C611 C613 1.408 . S
C611 C616 1.342 . S
C612 C613 1.310 . S
C612 C615 1.461 . S
C612 H632 0.932 . S
C613 C611 1.408 . S
C613 C612 1.310 . S
C613 H633 0.930 . S
C614 C615 1.474 . S
C614 C616 1.285 . S
C614 H634 0.929 . S
C615 C612 1.461 . S
C615 C614 1.474 . S
C616 C611 1.342 . S
C616 C614 1.285 . S
C616 H635 0.930 . S
C617 C620 1.424 . S
C617 C622 1.245 . S
C617 C623 1.428 . S
C618 C621 1.260 . S
C618 C622 1.477 . S
C618 H636 0.932 . S
C619 C620 1.384 . S
C619 C621 1.479 . S
C619 H637 0.929 . S
C620 C617 1.424 . S
C620 C619 1.384 . S
C620 H638 0.928 . S
C621 C618 1.260 . S
C621 C619 1.479 . S
C622 C617 1.245 . S
C622 C618 1.477 . S
C622 H639 0.932 . S
C623 U606 2.882 . S
C623 C617 1.428 . S
C623 O626 1.301 . S
C623 O627 1.282 . S
O624 U606 2.441 . S
O624 C610 1.249 . S
O625 U606 2.420 . S
O625 C610 1.202 . S
O626 U606 2.455 . S
O626 C623 1.301 . S
O627 U606 2.449 . S
O627 C623 1.282 . S
H628 C601 0.931 . S
H629 C603 0.929 . S
H630 C604 0.930 . S
H631 C605 0.931 . S
H632 C612 0.932 . S
H633 C613 0.930 . S
H634 C614 0.929 . S
H635 C616 0.930 . S
H636 C618 0.932 . S
H637 C619 0.929 . S
H638 C620 0.928 . S
H639 C622 0.932 . S
C640 C641 1.264 . S
C640 C645 1.479 . S
C640 C650 1.465 . S
C641 C640 1.264 . S
C641 C643 1.339 . S
C641 H668 0.931 . S
C642 C643 1.395 . S
C642 C644 1.320 . S
C643 C641 1.339 . S
C643 C642 1.395 . S
C643 H669 0.929 . S
C644 C642 1.320 . S
C644 C645 1.405 . S
C644 H670 0.930 . S
C645 C640 1.479 . S
C645 C644 1.405 . S
C645 H671 0.931 . S
U646 O647 2.454 . S
U646 O648 2.458 . S
U646 C649 2.984 . S
U646 C650 2.847 . S
U646 C663 2.882 . S
U646 O664 2.441 . S
U646 O665 2.420 . S
U646 O666 2.455 . S
U646 O667 2.449 . S
O647 U646 2.454 . S
O647 C649 1.353 . S
O648 U646 2.458 . S
O648 C649 1.286 . S
C649 U646 2.984 . S
C649 O647 1.353 . S
C649 O648 1.286 . S
C649 C651 1.363 . S
C650 C640 1.465 . S
C650 U646 2.847 . S
C650 O664 1.249 . S
C650 O665 1.202 . S
C651 C649 1.363 . S
C651 C653 1.408 . S
C651 C656 1.342 . S
C652 C653 1.310 . S
C652 C655 1.461 . S
C652 H672 0.932 . S
C653 C651 1.408 . S
C653 C652 1.310 . S
C653 H673 0.930 . S
C654 C655 1.474 . S
C654 C656 1.285 . S
C654 H674 0.929 . S
C655 C652 1.461 . S
C655 C654 1.474 . S
C656 C651 1.342 . S
C656 C654 1.285 . S
C656 H675 0.930 . S
C657 C660 1.424 . S
C657 C662 1.245 . S
C657 C663 1.428 . S
C658 C661 1.260 . S
C658 C662 1.477 . S
C658 H676 0.932 . S
C659 C660 1.384 . S
C659 C661 1.479 . S
C659 H677 0.929 . S
C660 C657 1.424 . S
C660 C659 1.384 . S
C660 H678 0.928 . S
C661 C658 1.260 . S
C661 C659 1.479 . S
C662 C657 1.245 . S
C662 C658 1.477 . S
C662 H679 0.932 . S
C663 U646 2.882 . S
C663 C657 1.428 . S
C663 O666 1.301 . S
C663 O667 1.282 . S
O664 U646 2.441 . S
O664 C650 1.249 . S
O665 U646 2.420 . S
O665 C650 1.202 . S
O666 U646 2.455 . S
O666 C663 1.301 . S
O667 U646 2.449 . S
O667 C663 1.282 . S
H668 C641 0.931 . S
H669 C643 0.929 . S
H670 C644 0.930 . S
H671 C645 0.931 . S
H672 C652 0.932 . S
H673 C653 0.930 . S
H674 C654 0.929 . S
H675 C656 0.930 . S
H676 C658 0.932 . S
H677 C659 0.929 . S
H678 C660 0.928 . S
H679 C662 0.932 . S
C680 C681 1.264 . S
C680 C685 1.479 . S
C680 C690 1.465 . S
C681 C680 1.264 . S
C681 C683 1.339 . S
C681 H708 0.931 . S
C682 C683 1.395 . S
C682 C684 1.320 . S
C683 C681 1.339 . S
C683 C682 1.395 . S
C683 H709 0.929 . S
C684 C682 1.320 . S
C684 C685 1.405 . S
C684 H710 0.930 . S
C685 C680 1.479 . S
C685 C684 1.405 . S
C685 H711 0.931 . S
U686 O687 2.454 . S
U686 O688 2.458 . S
U686 C689 2.984 . S
U686 C690 2.847 . S
U686 C703 2.882 . S
U686 O704 2.441 . S
U686 O705 2.420 . S
U686 O706 2.455 . S
U686 O707 2.449 . S
O687 U686 2.454 . S
O687 C689 1.353 . S
O688 U686 2.458 . S
O688 C689 1.286 . S
C689 U686 2.984 . S
C689 O687 1.353 . S
C689 O688 1.286 . S
C689 C691 1.363 . S
C690 C680 1.465 . S
C690 U686 2.847 . S
C690 O704 1.249 . S
C690 O705 1.202 . S
C691 C689 1.363 . S
C691 C693 1.408 . S
C691 C696 1.342 . S
C692 C693 1.310 . S
C692 C695 1.461 . S
C692 H712 0.932 . S
C693 C691 1.408 . S
C693 C692 1.310 . S
C693 H713 0.930 . S
C694 C695 1.474 . S
C694 C696 1.285 . S
C694 H714 0.929 . S
C695 C692 1.461 . S
C695 C694 1.474 . S
C696 C691 1.342 . S
C696 C694 1.285 . S
C696 H715 0.930 . S
C697 C700 1.424 . S
C697 C702 1.245 . S
C697 C703 1.428 . S
C698 C701 1.260 . S
C698 C702 1.477 . S
C698 H716 0.932 . S
C699 C700 1.384 . S
C699 C701 1.479 . S
C699 H717 0.929 . S
C700 C697 1.424 . S
C700 C699 1.384 . S
C700 H718 0.928 . S
C701 C698 1.260 . S
C701 C699 1.479 . S
C702 C697 1.245 . S
C702 C698 1.477 . S
C702 H719 0.932 . S
C703 U686 2.882 . S
C703 C697 1.428 . S
C703 O706 1.301 . S
C703 O707 1.282 . S
O704 U686 2.441 . S
O704 C690 1.249 . S
O705 U686 2.420 . S
O705 C690 1.202 . S
O706 U686 2.455 . S
O706 C703 1.301 . S
O707 U686 2.449 . S
O707 C703 1.282 . S
H708 C681 0.931 . S
H709 C683 0.929 . S
H710 C684 0.930 . S
H711 C685 0.931 . S
H712 C692 0.932 . S
H713 C693 0.930 . S
H714 C694 0.929 . S
H715 C696 0.930 . S
H716 C698 0.932 . S
H717 C699 0.929 . S
H718 C700 0.928 . S
H719 C702 0.932 . S
Tb720 O723 2.453 . S
Tb720 O724 2.596 1_545 S
Tb720 O725 2.374 1_545 S
Tb720 O733 2.343 1_554 S
Tb720 O735 2.353 . S
Tb720 O737 2.427 1_554 S
Tb720 O738 2.513 1_554 S
C721 O725 1.251 . S
C721 O727 1.247 1_554 S
Tb722 O724 2.343 1_556 S
Tb722 O727 2.360 . S
Tb722 O730 2.427 1_556 S
Tb722 O731 2.513 1_556 S
Tb722 O732 2.453 . S
Tb722 O733 2.596 1_565 S
Tb722 O734 2.374 1_565 S
O723 Tb720 2.453 . S
O723 C739 1.279 . S
O724 Tb720 2.596 1_565 S
O724 Tb722 2.343 1_554 S
O724 C739 1.254 1_565 S
O725 Tb720 2.374 1_565 S
O725 C721 1.251 . S
C726 O730 1.275 . S
C726 O731 1.246 . S
O727 C721 1.247 1_556 S
O727 Tb722 2.360 . S
C728 O732 1.227 1_545 S
C728 O733 1.264 . S
C729 O734 1.250 . S
C729 O735 1.263 1_556 S
O730 Tb722 2.427 1_554 S
O730 C726 1.275 . S
O731 Tb722 2.513 1_554 S
O731 C726 1.246 . S
O732 Tb722 2.453 . S
O732 C728 1.227 1_565 S
O733 Tb720 2.343 1_556 S
O733 Tb722 2.596 1_545 S
O733 C728 1.264 . S
O734 Tb722 2.374 1_545 S
O734 C729 1.250 . S
O735 Tb720 2.353 . S
O735 C729 1.263 1_554 S
C736 O737 1.275 . S
C736 O738 1.246 . S
O737 Tb720 2.427 1_556 S
O737 C736 1.275 . S
O738 Tb720 2.513 1_556 S
O738 C736 1.246 . S
C739 O723 1.279 . S
C739 O724 1.254 1_545 S
Tb740 O743 2.453 . S
Tb740 O744 2.596 1_655 S
Tb740 O745 2.374 1_655 S
Tb740 O753 2.343 1_554 S
Tb740 O755 2.353 . S
Tb740 O757 2.427 1_554 S
Tb740 O758 2.513 1_554 S
C741 O745 1.251 . S
C741 O747 1.263 . S
Tb742 O744 2.343 1_556 S
Tb742 O747 2.353 1_556 S
Tb742 O750 2.427 1_556 S
Tb742 O751 2.513 1_556 S
Tb742 O752 2.453 . S
Tb742 O753 2.596 1_455 S
Tb742 O754 2.374 1_455 S
O743 Tb740 2.453 . S
O743 C759 1.245 1_655 S
O744 Tb740 2.596 1_455 S
O744 Tb742 2.343 1_554 S
O744 C759 1.259 . S
O745 Tb740 2.374 1_455 S
O745 C741 1.251 . S
C746 O750 1.275 . S
C746 O751 1.246 . S
O747 C741 1.263 . S
O747 Tb742 2.353 1_554 S
C748 O752 1.245 . S
C748 O753 1.259 1_455 S
C749 O754 1.250 . S
C749 O755 1.263 1_556 S
O750 Tb742 2.427 1_554 S
O750 C746 1.275 . S
O751 Tb742 2.513 1_554 S
O751 C746 1.246 . S
O752 Tb742 2.453 . S
O752 C748 1.245 . S
O753 Tb740 2.343 1_556 S
O753 Tb742 2.596 1_655 S
O753 C748 1.259 1_655 S
O754 Tb742 2.374 1_655 S
O754 C749 1.250 . S
O755 Tb740 2.353 . S
O755 C749 1.263 1_554 S
C756 O757 1.275 . S
C756 O758 1.246 . S
O757 Tb740 2.427 1_556 S
O757 C756 1.275 . S
O758 Tb740 2.513 1_556 S
O758 C756 1.246 . S
C759 O743 1.245 1_455 S
C759 O744 1.259 . S
Tb760 O763 2.453 . S
Tb760 O764 2.596 . S
Tb760 O765 2.374 . S
Tb760 O773 2.343 1_556 S
Tb760 O775 2.345 1_556 S
Tb760 O777 2.427 1_556 S
Tb760 O778 2.513 1_556 S
C761 O765 1.251 . S
C761 O767 1.263 1_556 S
Tb762 O764 2.343 1_554 S
Tb762 O767 2.353 . S
Tb762 O770 2.427 1_554 S
Tb762 O771 2.513 1_554 S
Tb762 O772 2.453 . S
Tb762 O773 2.596 . S
Tb762 O774 2.374 . S
O763 Tb760 2.453 . S
O763 C779 1.245 . S
O764 Tb760 2.596 . S
O764 Tb762 2.343 1_556 S
O764 C779 1.259 . S
O765 Tb760 2.374 . S
O765 C761 1.251 . S
C766 O770 1.275 . S
C766 O771 1.246 . S
O767 C761 1.263 1_554 S
O767 Tb762 2.353 . S
C768 O772 1.245 . S
C768 O773 1.259 . S
C769 O774 1.250 . S
C769 O775 1.298 . S
O770 Tb762 2.427 1_556 S
O770 C766 1.275 . S
O771 Tb762 2.513 1_556 S
O771 C766 1.246 . S
O772 Tb762 2.453 . S
O772 C768 1.245 . S
O773 Tb760 2.343 1_554 S
O773 Tb762 2.596 . S
O773 C768 1.259 . S
O774 Tb762 2.374 . S
O774 C769 1.250 . S
O775 Tb760 2.345 1_554 S
O775 C769 1.298 . S
C776 O777 1.275 . S
C776 O778 1.246 . S
O777 Tb760 2.427 1_554 S
O777 C776 1.275 . S
O778 Tb760 2.513 1_554 S
O778 C776 1.246 . S
C779 O763 1.245 . S
C779 O764 1.259 . S
Tb780 O783 2.453 . S
Tb780 O784 2.596 . S
Tb780 O785 2.374 . S
Tb780 O793 2.343 . S
Tb780 O795 2.353 . S
Tb780 O797 2.427 . S
Tb780 O798 2.513 . S
C781 O785 1.251 . S
C781 O787 1.263 . S
Tb782 O784 2.343 . S
Tb782 O787 2.353 . S
Tb782 O790 2.427 . S
Tb782 O791 2.513 . S
Tb782 O792 2.453 . S
Tb782 O793 2.596 . S
Tb782 O794 2.374 . S
O783 Tb780 2.453 . S
O783 C799 1.245 . S
O784 Tb780 2.596 . S
O784 Tb782 2.343 . S
O784 C799 1.259 . S
O785 Tb780 2.374 . S
O785 C781 1.251 . S
C786 O790 1.275 . S
C786 O791 1.246 . S
O787 C781 1.263 . S
O787 Tb782 2.353 . S
C788 O792 1.245 . S
C788 O793 1.259 . S
C789 O794 1.250 . S
C789 O795 1.263 . S
O790 Tb782 2.427 . S
O790 C786 1.275 . S
O791 Tb782 2.513 . S
O791 C786 1.246 . S
O792 Tb782 2.453 . S
O792 C788 1.245 . S
O793 Tb780 2.343 . S
O793 Tb782 2.596 . S
O793 C788 1.259 . S
O794 Tb782 2.374 . S
O794 C789 1.250 . S
O795 Tb780 2.353 . S
O795 C789 1.263 . S
C796 O797 1.275 . S
C796 O798 1.246 . S
O797 Tb780 2.427 . S
O797 C796 1.275 . S
O798 Tb780 2.513 . S
O798 C796 1.246 . S
C799 O783 1.245 . S
C799 O784 1.259 . S
Tb800 O803 2.453 . S
Tb800 O804 2.596 . S
Tb800 O805 2.374 . S
Tb800 O813 2.343 . S
Tb800 O815 2.353 . S
Tb800 O817 2.427 . S
Tb800 O818 2.513 . S
C801 O805 1.251 . S
C801 O807 1.263 . S
Tb802 O804 2.343 . S
Tb802 O807 2.353 . S
Tb802 O810 2.427 . S
Tb802 O811 2.513 . S
Tb802 O812 2.453 . S
Tb802 O813 2.596 . S
Tb802 O814 2.374 . S
O803 Tb800 2.453 . S
O803 C819 1.245 . S
O804 Tb800 2.596 . S
O804 Tb802 2.343 . S
O804 C819 1.259 . S
O805 Tb800 2.374 . S
O805 C801 1.251 . S
C806 O810 1.275 . S
C806 O811 1.246 . S
O807 C801 1.263 . S
O807 Tb802 2.353 . S
C808 O812 1.245 . S
C808 O813 1.259 . S
C809 O814 1.250 . S
C809 O815 1.263 . S
O810 Tb802 2.427 . S
O810 C806 1.275 . S
O811 Tb802 2.513 . S
O811 C806 1.246 . S
O812 Tb802 2.453 . S
O812 C808 1.245 . S
O813 Tb800 2.343 . S
O813 Tb802 2.596 . S
O813 C808 1.259 . S
O814 Tb802 2.374 . S
O814 C809 1.250 . S
O815 Tb800 2.353 . S
O815 C809 1.263 . S
C816 O817 1.275 . S
C816 O818 1.246 . S
O817 Tb800 2.427 . S
O817 C816 1.275 . S
O818 Tb800 2.513 . S
O818 C816 1.246 . S
C819 O803 1.245 . S
C819 O804 1.259 . S
Tb820 O823 2.453 . S
Tb820 O824 2.596 . S
Tb820 O825 2.374 . S
Tb820 O833 2.343 . S
Tb820 O835 2.353 . S
Tb820 O837 2.427 . S
Tb820 O838 2.513 . S
C821 O825 1.251 . S
C821 O827 1.263 . S
Tb822 O824 2.343 . S
Tb822 O827 2.353 . S
Tb822 O830 2.427 . S
Tb822 O831 2.513 . S
Tb822 O832 2.453 . S
Tb822 O833 2.596 . S
Tb822 O834 2.374 . S
O823 Tb820 2.453 . S
O823 C839 1.245 . S
O824 Tb820 2.596 . S
O824 Tb822 2.343 . S
O824 C839 1.259 . S
O825 Tb820 2.374 . S
O825 C821 1.251 . S
C826 O830 1.275 . S
C826 O831 1.246 . S
O827 C821 1.263 . S
O827 Tb822 2.353 . S
C828 O832 1.245 . S
C828 O833 1.259 . S
C829 O834 1.250 . S
C829 O835 1.263 . S
O830 Tb822 2.427 . S
O830 C826 1.275 . S
O831 Tb822 2.513 . S
O831 C826 1.246 . S
O832 Tb822 2.453 . S
O832 C828 1.245 . S
O833 Tb820 2.343 . S
O833 Tb822 2.596 . S
O833 C828 1.259 . S
O834 Tb822 2.374 . S
O834 C829 1.250 . S
O835 Tb820 2.353 . S
O835 C829 1.263 . S
C836 O837 1.275 . S
C836 O838 1.246 . S
O837 Tb820 2.427 . S
O837 C836 1.275 . S
O838 Tb820 2.513 . S
O838 C836 1.246 . S
C839 O823 1.245 . S
C839 O824 1.259 . S
Tb840 O843 2.453 . S
Tb840 O844 2.596 . S
Tb840 O845 2.374 . S
Tb840 O853 2.343 . S
Tb840 O855 2.353 . S
Tb840 O857 2.427 . S
Tb840 O858 2.513 . S
C841 O845 1.251 . S
C841 O847 1.263 . S
Tb842 O844 2.343 . S
Tb842 O847 2.353 . S
Tb842 O850 2.427 . S
Tb842 O851 2.513 . S
Tb842 O852 2.453 . S
Tb842 O853 2.596 . S
Tb842 O854 2.374 . S
O843 Tb840 2.453 . S
O843 C859 1.245 . S
O844 Tb840 2.596 . S
O844 Tb842 2.343 . S
O844 C859 1.259 . S
O845 Tb840 2.374 . S
O845 C841 1.251 . S
C846 O850 1.275 . S
C846 O851 1.246 . S
O847 C841 1.263 . S
O847 Tb842 2.353 . S
C848 O852 1.245 . S
C848 O853 1.259 . S
C849 O854 1.250 . S
C849 O855 1.263 . S
O850 Tb842 2.427 . S
O850 C846 1.275 . S
O851 Tb842 2.513 . S
O851 C846 1.246 . S
O852 Tb842 2.453 . S
O852 C848 1.245 . S
O853 Tb840 2.343 . S
O853 Tb842 2.596 . S
O853 C848 1.259 . S
O854 Tb842 2.374 . S
O854 C849 1.250 . S
O855 Tb840 2.353 . S
O855 C849 1.263 . S
C856 O857 1.275 . S
C856 O858 1.246 . S
O857 Tb840 2.427 . S
O857 C856 1.275 . S
O858 Tb840 2.513 . S
O858 C856 1.246 . S
C859 O843 1.245 . S
C859 O844 1.259 . S
Tb860 O863 2.453 . S
Tb860 O864 2.596 . S
Tb860 O865 2.374 . S
Tb860 O873 2.343 . S
Tb860 O875 2.353 . S
Tb860 O877 2.427 . S
Tb860 O878 2.513 . S
C861 O865 1.251 . S
C861 O867 1.263 . S
Tb862 O864 2.343 . S
Tb862 O867 2.353 . S
Tb862 O870 2.427 . S
Tb862 O871 2.513 . S
Tb862 O872 2.453 . S
Tb862 O873 2.596 . S
Tb862 O874 2.374 . S
O863 Tb860 2.453 . S
O863 C879 1.245 . S
O864 Tb860 2.596 . S
O864 Tb862 2.343 . S
O864 C879 1.259 . S
O865 Tb860 2.374 . S
O865 C861 1.251 . S
C866 O870 1.275 . S
C866 O871 1.246 . S
O867 C861 1.263 . S
O867 Tb862 2.353 . S
C868 O872 1.245 . S
C868 O873 1.259 . S
C869 O874 1.250 . S
C869 O875 1.263 . S
O870 Tb862 2.427 . S
O870 C866 1.275 . S
O871 Tb862 2.513 . S
O871 C866 1.246 . S
O872 Tb862 2.453 . S
O872 C868 1.245 . S
O873 Tb860 2.343 . S
O873 Tb862 2.596 . S
O873 C868 1.259 . S
O874 Tb862 2.374 . S
O874 C869 1.250 . S
O875 Tb860 2.353 . S
O875 C869 1.263 . S
C876 O877 1.275 . S
C876 O878 1.246 . S
O877 Tb860 2.427 . S
O877 C876 1.275 . S
O878 Tb860 2.513 . S
O878 C876 1.246 . S
C879 O863 1.245 . S
C879 O864 1.259 . S
Tb880 O883 2.453 . S
Tb880 O884 2.596 . S
Tb880 O885 2.374 . S
Tb880 O893 2.343 . S
Tb880 O895 2.353 . S
Tb880 O897 2.427 . S
Tb880 O898 2.513 . S
C881 O885 1.251 . S
C881 O887 1.263 . S
Tb882 O884 2.343 . S
Tb882 O887 2.353 . S
Tb882 O890 2.427 . S
Tb882 O891 2.513 . S
Tb882 O892 2.453 . S
Tb882 O893 2.596 . S
Tb882 O894 2.374 . S
O883 Tb880 2.453 . S
O883 C899 1.245 . S
O884 Tb880 2.596 . S
O884 Tb882 2.343 . S
O884 C899 1.259 . S
O885 Tb880 2.374 . S
O885 C881 1.251 . S
C886 O890 1.275 . S
C886 O891 1.246 . S
O887 C881 1.263 . S
O887 Tb882 2.353 . S
C888 O892 1.245 . S
C888 O893 1.259 . S
C889 O894 1.250 . S
C889 O895 1.263 . S
O890 Tb882 2.427 . S
O890 C886 1.275 . S
O891 Tb882 2.513 . S
O891 C886 1.246 . S
O892 Tb882 2.453 . S
O892 C888 1.245 . S
O893 Tb880 2.343 . S
O893 Tb882 2.596 . S
O893 C888 1.259 . S
O894 Tb882 2.374 . S
O894 C889 1.250 . S
O895 Tb880 2.353 . S
O895 C889 1.263 . S
C896 O897 1.275 . S
C896 O898 1.246 . S
O897 Tb880 2.427 . S
O897 C896 1.275 . S
O898 Tb880 2.513 . S
O898 C896 1.246 . S
C899 O883 1.245 . S
C899 O884 1.259 . S
H900 C908 0.929 . S
H901 C910 0.930 . S
H902 C912 0.930 . S
H903 C915 0.929 . S
H904 C918 0.930 . S
H905 C920 0.960 . S
H906 C920 0.960 . S
H907 C920 0.960 . S
C908 H900 0.929 . S
C908 C909 1.377 . S
C908 C910 1.384 . S
C909 C908 1.377 . S
C909 C915 1.390 . S
C910 H901 0.930 . S
C910 C908 1.384 . S
C910 C911 1.372 . S
C911 C910 1.372 . S
C911 C912 1.400 . S
C911 C916 1.490 . S
C912 H902 0.930 . S
C912 C911 1.400 . S
C912 C915 1.386 . S
H913 C929 0.930 . S
H914 C930 0.931 . S
C915 H903 0.929 . S
C915 C909 1.390 . S
C915 C912 1.386 . S
C916 C911 1.490 . S
C916 C918 1.395 . S
C916 C919 1.403 . S
H917 C923 0.930 . S
C918 H904 0.930 . S
C918 C916 1.395 . S
C918 C921 1.403 . S
C919 C916 1.403 . S
C919 C920 1.524 . S
C919 C923 1.400 . S
C920 H905 0.960 . S
C920 H906 0.960 . S
C920 H907 0.960 . S
C920 C919 1.524 . S
C921 C918 1.403 . S
C921 C922 1.392 . S
C921 C925 1.495 . S
C922 C921 1.392 . S
C922 C923 1.385 . S
C922 C924 1.478 . S
C923 H917 0.930 . S
C923 C919 1.400 . S
C923 C922 1.385 . S
C924 C922 1.478 . S
C924 C926 1.381 . S
C924 C930 1.383 . S
C925 C921 1.495 . S
C925 H931 0.959 . S
C925 H932 0.961 . S
C925 H933 0.960 . S
C926 C924 1.381 . S
C926 C927 1.394 . S
C926 H934 0.930 . S
C927 C926 1.394 . S
C927 C928 1.383 . S
C927 H935 0.929 . S
C928 C927 1.383 . S
C928 C929 1.377 . S
C929 H913 0.930 . S
C929 C928 1.377 . S
C929 C930 1.379 . S
C930 H914 0.931 . S
C930 C924 1.383 . S
C930 C929 1.379 . S
H931 C925 0.959 . S
H932 C925 0.961 . S
H933 C925 0.960 . S
H934 C926 0.930 . S
H935 C927 0.929 . S
H936 C944 0.929 . S
H937 C946 0.930 . S
H938 C948 0.930 . S
H939 C951 0.929 . S
H940 C954 0.930 . S
H941 C956 0.960 . S
H942 C956 0.960 . S
H943 C956 0.960 . S
C944 H936 0.929 . S
C944 C945 1.377 . S
C944 C946 1.384 . S
C945 C944 1.377 . S
C945 C951 1.390 . S
C946 H937 0.930 . S
C946 C944 1.384 . S
C946 C947 1.372 . S
C947 C946 1.372 . S
C947 C948 1.400 . S
C947 C952 1.490 . S
C948 H938 0.930 . S
C948 C947 1.400 . S
C948 C951 1.386 . S
H949 C965 0.930 . S
H950 C966 0.931 . S
C951 H939 0.929 . S
C951 C945 1.390 . S
C951 C948 1.386 . S
C952 C947 1.490 . S
C952 C954 1.395 . S
C952 C955 1.403 . S
H953 C959 0.930 . S
C954 H940 0.930 . S
C954 C952 1.395 . S
C954 C957 1.403 . S
C955 C952 1.403 . S
C955 C956 1.524 . S
C955 C959 1.400 . S
C956 H941 0.960 . S
C956 H942 0.960 . S
C956 H943 0.960 . S
C956 C955 1.524 . S
C957 C954 1.403 . S
C957 C958 1.392 . S
C957 C961 1.495 . S
C958 C957 1.392 . S
C958 C959 1.385 . S
C958 C960 1.478 . S
C959 H953 0.930 . S
C959 C955 1.400 . S
C959 C958 1.385 . S
C960 C958 1.478 . S
C960 C962 1.381 . S
C960 C966 1.383 . S
C961 C957 1.495 . S
C961 H967 0.959 . S
C961 H968 0.961 . S
C961 H969 0.960 . S
C962 C960 1.381 . S
C962 C963 1.394 . S
C962 H970 0.930 . S
C963 C962 1.394 . S
C963 C964 1.383 . S
C963 H971 0.929 . S
C964 C963 1.383 . S
C964 C965 1.377 . S
C965 H949 0.930 . S
C965 C964 1.377 . S
C965 C966 1.379 . S
C966 H950 0.931 . S
C966 C960 1.383 . S
C966 C965 1.379 . S
H967 C961 0.959 . S
H968 C961 0.961 . S
H969 C961 0.960 . S
H970 C962 0.930 . S
H971 C963 0.929 . S
H972 C980 0.929 . S
H973 C982 0.930 . S
H974 C984 0.930 . S
H975 C987 0.929 . S
H976 C990 0.930 . S
H977 C992 0.960 . S
H978 C992 0.960 . S
H979 C992 0.960 . S
C980 H972 0.929 . S
C980 C981 1.377 . S
C980 C982 1.384 . S
C981 C980 1.377 . S
C981 C987 1.390 . S
C982 H973 0.930 . S
C982 C980 1.384 . S
C982 C983 1.372 . S
C983 C982 1.372 . S
C983 C984 1.400 . S
C983 C988 1.490 . S
C984 H974 0.930 . S
C984 C983 1.400 . S
C984 C987 1.386 . S
H985 C1001 0.930 . S
H986 C1002 0.931 . S
C987 H975 0.929 . S
C987 C981 1.390 . S
C987 C984 1.386 . S
C988 C983 1.490 . S
C988 C990 1.395 . S
C988 C991 1.403 . S
H989 C995 0.930 . S
C990 H976 0.930 . S
C990 C988 1.395 . S
C990 C993 1.403 . S
C991 C988 1.403 . S
C991 C992 1.524 . S
C991 C995 1.400 . S
C992 H977 0.960 . S
C992 H978 0.960 . S
C992 H979 0.960 . S
C992 C991 1.524 . S
C993 C990 1.403 . S
C993 C994 1.392 . S
C993 C997 1.495 . S
C994 C993 1.392 . S
C994 C995 1.385 . S
C994 C996 1.478 . S
C995 H989 0.930 . S
C995 C991 1.400 . S
C995 C994 1.385 . S
C996 C994 1.478 . S
C996 C998 1.381 . S
C996 C1002 1.383 . S
C997 C993 1.495 . S
C997 H1003 0.959 . S
C997 H1004 0.961 . S
C997 H1005 0.960 . S
C998 C996 1.381 . S
C998 C999 1.394 . S
C998 H1006 0.930 . S
C999 C998 1.394 . S
C999 C1000 1.383 . S
C999 H1007 0.929 1_554 S
C1000 C999 1.383 . S
C1000 C1001 1.377 . S
C1001 H985 0.930 . S
C1001 C1000 1.377 . S
C1001 C1002 1.379 . S
C1002 H986 0.931 . S
C1002 C996 1.383 . S
C1002 C1001 1.379 . S
H1003 C997 0.959 . S
H1004 C997 0.961 . S
H1005 C997 0.960 . S
H1006 C998 0.930 . S
H1007 C999 0.929 1_556 S
H1008 C1016 0.929 . S
H1009 C1018 0.930 . S
H1010 C1020 0.930 . S
H1011 C1023 0.929 . S
H1012 C1026 0.930 . S
H1013 C1028 0.960 . S
H1014 C1028 0.960 . S
H1015 C1028 0.960 . S
C1016 H1008 0.929 . S
C1016 C1017 1.377 . S
C1016 C1018 1.384 . S
C1017 C1016 1.377 . S
C1017 C1023 1.390 . S
C1018 H1009 0.930 . S
C1018 C1016 1.384 . S
C1018 C1019 1.372 . S
C1019 C1018 1.372 . S
C1019 C1020 1.400 . S
C1019 C1024 1.490 . S
C1020 H1010 0.930 . S
C1020 C1019 1.400 . S
C1020 C1023 1.386 . S
H1021 C1037 0.930 . S
H1022 C1038 0.931 . S
C1023 H1011 0.929 . S
C1023 C1017 1.390 . S
C1023 C1020 1.386 . S
C1024 C1019 1.490 . S
C1024 C1026 1.395 . S
C1024 C1027 1.403 . S
H1025 C1031 0.930 . S
C1026 H1012 0.930 . S
C1026 C1024 1.395 . S
C1026 C1029 1.403 . S
C1027 C1024 1.403 . S
C1027 C1028 1.524 . S
C1027 C1031 1.400 . S
C1028 H1013 0.960 . S
C1028 H1014 0.960 . S
C1028 H1015 0.960 . S
C1028 C1027 1.524 . S
C1029 C1026 1.403 . S
C1029 C1030 1.392 . S
C1029 C1033 1.495 . S
C1030 C1029 1.392 . S
C1030 C1031 1.385 . S
C1030 C1032 1.478 . S
C1031 H1025 0.930 . S
C1031 C1027 1.400 . S
C1031 C1030 1.385 . S
C1032 C1030 1.478 . S
C1032 C1034 1.381 . S
C1032 C1038 1.383 . S
C1033 C1029 1.495 . S
C1033 H1039 0.959 . S
C1033 H1040 0.961 . S
C1033 H1041 0.960 1_556 S
C1034 C1032 1.381 . S
C1034 C1035 1.394 . S
C1034 H1042 0.942 . S
C1035 C1034 1.394 . S
C1035 C1036 1.383 . S
C1035 H1043 0.929 1_556 S
C1036 C1035 1.383 . S
C1036 C1037 1.377 . S
C1037 H1021 0.930 . S
C1037 C1036 1.377 . S
C1037 C1038 1.379 . S
C1038 H1022 0.931 . S
C1038 C1032 1.383 . S
C1038 C1037 1.379 . S
H1039 C1033 0.959 . S
H1040 C1033 0.961 . S
H1041 C1033 0.960 1_554 S
H1042 C1034 0.942 . S
H1043 C1035 0.929 1_554 S
H1044 C1052 0.929 . S
H1045 C1054 0.930 . S
H1046 C1056 0.930 . S
H1047 C1059 0.929 . S
H1048 C1062 0.930 . S
H1049 C1064 0.960 . S
H1050 C1064 0.960 . S
H1051 C1064 0.960 . S
C1052 H1044 0.929 . S
C1052 C1053 1.377 . S
C1052 C1054 1.384 . S
C1053 C1052 1.377 . S
C1053 C1059 1.390 . S
C1054 H1045 0.930 . S
C1054 C1052 1.384 . S
C1054 C1055 1.372 . S
C1055 C1054 1.372 . S
C1055 C1056 1.400 . S
C1055 C1060 1.490 . S
C1056 H1046 0.930 . S
C1056 C1055 1.400 . S
C1056 C1059 1.386 . S
H1057 C1073 0.930 . S
H1058 C1074 0.931 . S
C1059 H1047 0.929 . S
C1059 C1053 1.390 . S
C1059 C1056 1.386 . S
C1060 C1055 1.490 . S
C1060 C1062 1.395 . S
C1060 C1063 1.403 . S
H1061 C1067 0.930 . S
C1062 H1048 0.930 . S
C1062 C1060 1.395 . S
C1062 C1065 1.403 . S
C1063 C1060 1.403 . S
C1063 C1064 1.524 . S
C1063 C1067 1.400 . S
C1064 H1049 0.960 . S
C1064 H1050 0.960 . S
C1064 H1051 0.960 . S
C1064 C1063 1.524 . S
C1065 C1062 1.403 . S
C1065 C1066 1.392 . S
C1065 C1069 1.495 . S
C1066 C1065 1.392 . S
C1066 C1067 1.385 . S
C1066 C1068 1.478 . S
C1067 H1061 0.930 . S
C1067 C1063 1.400 . S
C1067 C1066 1.385 . S
C1068 C1066 1.478 . S
C1068 C1070 1.381 . S
C1068 C1074 1.383 . S
C1069 C1065 1.495 . S
C1069 H1075 0.959 . S
C1069 H1076 0.961 . S
C1069 H1077 0.960 . S
C1070 C1068 1.381 . S
C1070 C1071 1.394 . S
C1070 H1078 0.930 . S
C1071 C1070 1.394 . S
C1071 C1072 1.383 . S
C1071 H1079 0.929 . S
C1072 C1071 1.383 . S
C1072 C1073 1.377 . S
C1073 H1057 0.930 . S
C1073 C1072 1.377 . S
C1073 C1074 1.379 . S
C1074 H1058 0.931 . S
C1074 C1068 1.383 . S
C1074 C1073 1.379 . S
H1075 C1069 0.959 . S
H1076 C1069 0.961 . S
H1077 C1069 0.960 . S
H1078 C1070 0.930 . S
H1079 C1071 0.929 . S
H1080 C1088 0.929 . S
H1081 C1090 0.930 . S
H1082 C1092 0.930 . S
H1083 C1095 0.929 . S
H1084 C1098 0.930 . S
H1085 C1100 0.960 . S
H1086 C1100 0.960 . S
H1087 C1100 0.960 . S
C1088 H1080 0.929 . S
C1088 C1089 1.377 . S
C1088 C1090 1.384 . S
C1089 C1088 1.377 . S
C1089 C1095 1.390 . S
C1090 H1081 0.930 . S
C1090 C1088 1.384 . S
C1090 C1091 1.372 . S
C1091 C1090 1.372 . S
C1091 C1092 1.400 . S
C1091 C1096 1.490 . S
C1092 H1082 0.930 . S
C1092 C1091 1.400 . S
C1092 C1095 1.386 . S
H1093 C1109 0.930 . S
H1094 C1110 0.931 . S
C1095 H1083 0.929 . S
C1095 C1089 1.390 . S
C1095 C1092 1.386 . S
C1096 C1091 1.490 . S
C1096 C1098 1.395 . S
C1096 C1099 1.403 . S
H1097 C1103 0.930 . S
C1098 H1084 0.930 . S
C1098 C1096 1.395 . S
C1098 C1101 1.403 . S
C1099 C1096 1.403 . S
C1099 C1100 1.524 . S
C1099 C1103 1.400 . S
C1100 H1085 0.960 . S
C1100 H1086 0.960 . S
C1100 H1087 0.960 . S
C1100 C1099 1.524 . S
C1101 C1098 1.403 . S
C1101 C1102 1.392 . S
C1101 C1105 1.495 1_556 S
C1102 C1101 1.392 . S
C1102 C1103 1.385 . S
C1102 C1104 1.478 . S
C1103 H1097 0.930 . S
C1103 C1099 1.400 . S
C1103 C1102 1.385 . S
C1104 C1102 1.478 . S
C1104 C1106 1.381 . S
C1104 C1110 1.383 . S
C1105 C1101 1.495 1_554 S
C1105 H1111 0.959 . S
C1105 H1112 0.961 . S
C1105 H1113 0.960 . S
C1106 C1104 1.381 . S
C1106 C1107 1.394 . S
C1106 H1114 0.930 . S
C1107 C1106 1.394 . S
C1107 C1108 1.383 . S
C1107 H1115 0.929 . S
C1108 C1107 1.383 . S
C1108 C1109 1.377 . S
C1109 H1093 0.930 . S
C1109 C1108 1.377 . S
C1109 C1110 1.379 . S
C1110 H1094 0.931 . S
C1110 C1104 1.383 . S
C1110 C1109 1.379 . S
H1111 C1105 0.959 . S
H1112 C1105 0.961 . S
H1113 C1105 0.960 . S
H1114 C1106 0.930 . S
H1115 C1107 0.929 . S
H1116 C1124 0.929 . S
H1117 C1126 0.930 . S
H1118 C1128 0.930 . S
H1119 C1131 0.929 . S
H1120 C1134 0.930 . S
H1121 C1136 0.960 . S
H1122 C1136 0.960 . S
H1123 C1136 0.960 . S
C1124 H1116 0.929 . S
C1124 C1125 1.377 . S
C1124 C1126 1.384 . S
C1125 C1124 1.377 . S
C1125 C1131 1.390 . S
C1126 H1117 0.930 . S
C1126 C1124 1.384 . S
C1126 C1127 1.372 . S
C1127 C1126 1.372 . S
C1127 C1128 1.400 . S
C1127 C1132 1.490 . S
C1128 H1118 0.930 . S
C1128 C1127 1.400 . S
C1128 C1131 1.386 . S
H1129 C1145 0.930 . S
H1130 C1146 0.931 . S
C1131 H1119 0.929 . S
C1131 C1125 1.390 . S
C1131 C1128 1.386 . S
C1132 C1127 1.490 . S
C1132 C1134 1.395 . S
C1132 C1135 1.403 . S
H1133 C1139 0.930 . S
C1134 H1120 0.930 . S
C1134 C1132 1.395 . S
C1134 C1137 1.403 . S
C1135 C1132 1.403 . S
C1135 C1136 1.524 . S
C1135 C1139 1.400 . S
C1136 H1121 0.960 . S
C1136 H1122 0.960 . S
C1136 H1123 0.960 . S
C1136 C1135 1.524 . S
C1137 C1134 1.403 . S
C1137 C1138 1.392 . S
C1137 C1141 1.495 . S
C1138 C1137 1.392 . S
C1138 C1139 1.385 . S
C1138 C1140 1.478 . S
C1139 H1133 0.930 . S
C1139 C1135 1.400 . S
C1139 C1138 1.385 . S
C1140 C1138 1.478 . S
C1140 C1142 1.381 . S
C1140 C1146 1.383 . S
C1141 C1137 1.495 . S
C1141 H1147 0.959 . S
C1141 H1148 0.961 . S
C1141 H1149 0.960 . S
C1142 C1140 1.381 . S
C1142 C1143 1.394 . S
C1142 H1150 0.930 . S
C1143 C1142 1.394 . S
C1143 C1144 1.383 . S
C1143 H1151 0.929 . S
C1144 C1143 1.383 . S
C1144 C1145 1.377 . S
C1145 H1129 0.930 . S
C1145 C1144 1.377 . S
C1145 C1146 1.379 . S
C1146 H1130 0.931 . S
C1146 C1140 1.383 . S
C1146 C1145 1.379 . S
H1147 C1141 0.959 . S
H1148 C1141 0.961 . S
H1149 C1141 0.960 . S
H1150 C1142 0.930 . S
H1151 C1143 0.929 . S
H1152 C1160 0.929 . S
H1153 C1162 0.930 . S
H1154 C1164 0.930 . S
H1155 C1167 0.929 . S
H1156 C1170 0.930 . S
H1157 C1172 0.960 . S
H1158 C1172 0.960 . S
H1159 C1172 0.960 . S
C1160 H1152 0.929 . S
C1160 C1161 1.377 . S
C1160 C1162 1.384 . S
C1161 C1160 1.377 . S
C1161 C1167 1.390 . S
C1162 H1153 0.930 . S
C1162 C1160 1.384 . S
C1162 C1163 1.372 . S
C1163 C1162 1.372 . S
C1163 C1164 1.400 . S
C1163 C1168 1.490 . S
C1164 H1154 0.930 . S
C1164 C1163 1.400 . S
C1164 C1167 1.386 . S
H1165 C1181 0.930 . S
H1166 C1182 0.931 . S
C1167 H1155 0.929 . S
C1167 C1161 1.390 . S
C1167 C1164 1.386 . S
C1168 C1163 1.490 . S
C1168 C1170 1.395 . S
C1168 C1171 1.403 . S
H1169 C1175 0.930 . S
C1170 H1156 0.930 . S
C1170 C1168 1.395 . S
C1170 C1173 1.403 . S
C1171 C1168 1.403 . S
C1171 C1172 1.524 . S
C1171 C1175 1.400 . S
C1172 H1157 0.960 . S
C1172 H1158 0.960 . S
C1172 H1159 0.960 . S
C1172 C1171 1.524 . S
C1173 C1170 1.403 . S
C1173 C1174 1.392 . S
C1173 C1177 1.495 . S
C1174 C1173 1.392 . S
C1174 C1175 1.385 . S
C1174 C1176 1.478 . S
C1175 H1169 0.930 . S
C1175 C1171 1.400 . S
C1175 C1174 1.385 . S
C1176 C1174 1.478 . S
C1176 C1178 1.381 . S
C1176 C1182 1.383 . S
C1177 C1173 1.495 . S
C1177 H1183 0.959 . S
C1177 H1184 0.961 . S
C1177 H1185 0.960 . S
C1178 C1176 1.381 . S
C1178 C1179 1.394 . S
C1178 H1186 0.930 . S
C1179 C1178 1.394 . S
C1179 C1180 1.383 . S
C1179 H1187 0.929 . S
C1180 C1179 1.383 . S
C1180 C1181 1.377 . S
C1181 H1165 0.930 . S
C1181 C1180 1.377 . S
C1181 C1182 1.379 . S
C1182 H1166 0.931 . S
C1182 C1176 1.383 . S
C1182 C1181 1.379 . S
H1183 C1177 0.959 . S
H1184 C1177 0.961 . S
H1185 C1177 0.960 . S
H1186 C1178 0.930 . S
H1187 C1179 0.929 . S
H1188 C1196 0.929 . S
H1189 C1198 0.930 . S
H1190 C1200 0.930 . S
H1191 C1203 0.929 . S
H1192 C1206 0.930 . S
H1193 C1208 0.960 . S
H1194 C1208 0.960 . S
H1195 C1208 0.960 . S
C1196 H1188 0.929 . S
C1196 C1197 1.377 . S
C1196 C1198 1.384 . S
C1197 C1196 1.377 . S
C1197 C1203 1.390 . S
C1198 H1189 0.930 . S
C1198 C1196 1.384 . S
C1198 C1199 1.372 . S
C1199 C1198 1.372 . S
C1199 C1200 1.400 . S
C1199 C1204 1.490 . S
C1200 H1190 0.930 . S
C1200 C1199 1.400 . S
C1200 C1203 1.386 . S
H1201 C1217 0.930 . S
H1202 C1218 0.931 . S
C1203 H1191 0.929 . S
C1203 C1197 1.390 . S
C1203 C1200 1.386 . S
C1204 C1199 1.490 . S
C1204 C1206 1.395 . S
C1204 C1207 1.403 . S
H1205 C1211 0.930 . S
C1206 H1192 0.930 . S
C1206 C1204 1.395 . S
C1206 C1209 1.403 . S
C1207 C1204 1.403 . S
C1207 C1208 1.524 . S
C1207 C1211 1.400 . S
C1208 H1193 0.960 . S
C1208 H1194 0.960 . S
C1208 H1195 0.960 . S
C1208 C1207 1.524 . S
C1209 C1206 1.403 . S
C1209 C1210 1.392 . S
C1209 C1213 1.495 . S
C1210 C1209 1.392 . S
C1210 C1211 1.385 . S
C1210 C1212 1.478 . S
C1211 H1205 0.930 . S
C1211 C1207 1.400 . S
C1211 C1210 1.385 . S
C1212 C1210 1.478 . S
C1212 C1214 1.381 . S
C1212 C1218 1.383 . S
C1213 C1209 1.495 . S
C1213 H1219 0.959 . S
C1213 H1220 0.961 . S
C1213 H1221 0.960 . S
C1214 C1212 1.381 . S
C1214 C1215 1.394 . S
C1214 H1222 0.980 . S
C1215 C1214 1.394 . S
C1215 C1216 1.383 . S
C1215 H1223 0.929 1_556 S
C1216 C1215 1.383 . S
C1216 C1217 1.377 . S
C1217 H1201 0.930 . S
C1217 C1216 1.377 . S
C1217 C1218 1.379 . S
C1218 H1202 0.931 . S
C1218 C1212 1.383 . S
C1218 C1217 1.379 . S
H1219 C1213 0.959 . S
H1220 C1213 0.961 . S
H1221 C1213 0.960 . S
H1222 C1214 0.980 . S
H1223 C1215 0.929 1_554 S
H1224 C1232 0.929 . S
H1225 C1234 0.930 . S
H1226 C1236 0.930 . S
H1227 C1239 0.929 . S
H1228 C1242 0.930 . S
H1229 C1244 0.960 . S
H1230 C1244 0.960 . S
H1231 C1244 0.960 . S
C1232 H1224 0.929 . S
C1232 C1233 1.377 . S
C1232 C1234 1.384 . S
C1233 C1232 1.377 . S
C1233 C1239 1.390 . S
C1234 H1225 0.930 . S
C1234 C1232 1.384 . S
C1234 C1235 1.372 . S
C1235 C1234 1.372 . S
C1235 C1236 1.400 . S
C1235 C1240 1.490 . S
C1236 H1226 0.930 . S
C1236 C1235 1.400 . S
C1236 C1239 1.386 . S
H1237 C1253 0.930 . S
H1238 C1254 0.931 . S
C1239 H1227 0.929 . S
C1239 C1233 1.390 . S
C1239 C1236 1.386 . S
C1240 C1235 1.490 . S
C1240 C1242 1.395 . S
C1240 C1243 1.403 . S
H1241 C1247 0.930 . S
C1242 H1228 0.930 . S
C1242 C1240 1.395 . S
C1242 C1245 1.403 . S
C1243 C1240 1.403 . S
C1243 C1244 1.524 . S
C1243 C1247 1.400 . S
C1244 H1229 0.960 . S
C1244 H1230 0.960 . S
C1244 H1231 0.960 . S
C1244 C1243 1.524 . S
C1245 C1242 1.403 . S
C1245 C1246 1.392 . S
C1245 C1249 1.495 . S
C1246 C1245 1.392 . S
C1246 C1247 1.385 . S
C1246 C1248 1.478 . S
C1247 H1241 0.930 . S
C1247 C1243 1.400 . S
C1247 C1246 1.385 . S
C1248 C1246 1.478 . S
C1248 C1250 1.381 . S
C1248 C1254 1.383 . S
C1249 C1245 1.495 . S
C1249 H1255 0.959 . S
C1249 H1256 0.961 . S
C1249 H1257 0.960 . S
C1250 C1248 1.381 . S
C1250 C1251 1.394 . S
C1250 H1258 0.930 . S
C1251 C1250 1.394 . S
C1251 C1252 1.383 . S
C1251 H1259 0.929 . S
C1252 C1251 1.383 . S
C1252 C1253 1.377 . S
C1253 H1237 0.930 . S
C1253 C1252 1.377 . S
C1253 C1254 1.379 . S
C1254 H1238 0.931 . S
C1254 C1248 1.383 . S
C1254 C1253 1.379 . S
H1255 C1249 0.959 . S
H1256 C1249 0.961 . S
H1257 C1249 0.960 . S
H1258 C1250 0.930 . S
H1259 C1251 0.929 . S
H1260 C1268 0.929 . S
H1261 C1270 0.930 . S
H1262 C1272 0.930 . S
H1263 C1275 0.929 . S
H1264 C1278 0.930 . S
H1265 C1280 0.960 . S
H1266 C1280 0.960 . S
H1267 C1280 0.960 . S
C1268 H1260 0.929 . S
C1268 C1269 1.377 . S
C1268 C1270 1.384 . S
C1269 C1268 1.377 . S
C1269 C1275 1.390 . S
C1270 H1261 0.930 . S
C1270 C1268 1.384 . S
C1270 C1271 1.372 . S
C1271 C1270 1.372 . S
C1271 C1272 1.400 . S
C1271 C1276 1.490 . S
C1272 H1262 0.930 . S
C1272 C1271 1.400 . S
C1272 C1275 1.386 . S
H1273 C1289 0.930 . S
H1274 C1290 0.931 . S
C1275 H1263 0.929 . S
C1275 C1269 1.390 . S
C1275 C1272 1.386 . S
C1276 C1271 1.490 . S
C1276 C1278 1.395 . S
C1276 C1279 1.403 . S
H1277 C1283 0.930 . S
C1278 H1264 0.930 . S
C1278 C1276 1.395 . S
C1278 C1281 1.403 . S
C1279 C1276 1.403 . S
C1279 C1280 1.524 . S
C1279 C1283 1.400 . S
C1280 H1265 0.960 . S
C1280 H1266 0.960 . S
C1280 H1267 0.960 . S
C1280 C1279 1.524 . S
C1281 C1278 1.403 . S
C1281 C1282 1.392 . S
C1281 C1285 1.495 . S
C1282 C1281 1.392 . S
C1282 C1283 1.385 . S
C1282 C1284 1.478 . S
C1283 H1277 0.930 . S
C1283 C1279 1.400 . S
C1283 C1282 1.385 . S
C1284 C1282 1.478 . S
C1284 C1286 1.381 . S
C1284 C1290 1.383 . S
C1285 C1281 1.495 . S
C1285 H1291 0.959 . S
C1285 H1292 0.961 . S
C1285 H1293 0.960 . S
C1286 C1284 1.381 . S
C1286 C1287 1.394 . S
C1286 H1294 0.930 . S
C1287 C1286 1.394 . S
C1287 C1288 1.383 . S
C1287 H1295 0.929 . S
C1288 C1287 1.383 . S
C1288 C1289 1.377 . S
C1289 H1273 0.930 . S
C1289 C1288 1.377 . S
C1289 C1290 1.379 . S
C1290 H1274 0.931 . S
C1290 C1284 1.383 . S
C1290 C1289 1.379 . S
H1291 C1285 0.959 . S
H1292 C1285 0.961 . S
H1293 C1285 0.960 . S
H1294 C1286 0.930 . S
H1295 C1287 0.929 . S
H1296 C1304 0.929 . S
H1297 C1306 0.930 . S
H1298 C1308 0.930 . S
H1299 C1311 0.929 . S
H1300 C1314 0.930 . S
H1301 C1316 0.960 . S
H1302 C1316 0.960 . S
H1303 C1316 0.960 . S
C1304 H1296 0.929 . S
C1304 C1305 1.377 . S
C1304 C1306 1.384 . S
C1305 C1304 1.377 . S
C1305 C1311 1.390 . S
C1306 H1297 0.930 . S
C1306 C1304 1.384 . S
C1306 C1307 1.372 . S
C1307 C1306 1.372 . S
C1307 C1308 1.400 . S
C1307 C1312 1.490 . S
C1308 H1298 0.930 . S
C1308 C1307 1.400 . S
C1308 C1311 1.386 . S
H1309 C1325 0.930 1_556 S
H1310 C1326 0.931 . S
C1311 H1299 0.929 . S
C1311 C1305 1.390 . S
C1311 C1308 1.386 . S
C1312 C1307 1.490 . S
C1312 C1314 1.395 . S
C1312 C1315 1.403 . S
H1313 C1319 0.930 . S
C1314 H1300 0.930 . S
C1314 C1312 1.395 . S
C1314 C1317 1.403 . S
C1315 C1312 1.403 . S
C1315 C1316 1.524 . S
C1315 C1319 1.400 . S
C1316 H1301 0.960 . S
C1316 H1302 0.960 . S
C1316 H1303 0.960 . S
C1316 C1315 1.524 . S
C1317 C1314 1.403 . S
C1317 C1318 1.392 . S
C1317 C1321 1.495 . S
C1318 C1317 1.392 . S
C1318 C1319 1.385 . S
C1318 C1320 1.478 . S
C1319 H1313 0.930 . S
C1319 C1315 1.400 . S
C1319 C1318 1.385 . S
C1320 C1318 1.478 . S
C1320 C1322 1.381 . S
C1320 C1326 1.383 . S
C1321 C1317 1.495 . S
C1321 H1327 0.959 . S
C1321 H1328 0.961 . S
C1321 H1329 0.960 . S
C1322 C1320 1.381 . S
C1322 C1323 1.394 . S
C1322 H1330 0.930 . S
C1323 C1322 1.394 . S
C1323 C1324 1.383 . S
C1323 H1331 0.929 . S
C1324 C1323 1.383 . S
C1324 C1325 1.377 . S
C1325 H1309 0.930 1_554 S
C1325 C1324 1.377 . S
C1325 C1326 1.379 . S
C1326 H1310 0.931 . S
C1326 C1320 1.383 . S
C1326 C1325 1.379 . S
H1327 C1321 0.959 . S
H1328 C1321 0.961 . S
H1329 C1321 0.960 . S
H1330 C1322 0.930 . S
H1331 C1323 0.929 . S
H1332 C1340 0.929 . S
H1333 C1342 0.930 . S
H1334 C1344 0.930 1_455 S
H1335 C1347 0.929 . S
H1336 C1350 0.930 . S
H1337 C1352 0.960 . S
H1338 C1352 0.960 . S
H1339 C1352 0.960 . S
C1340 H1332 0.929 . S
C1340 C1341 1.377 . S
C1340 C1342 1.384 . S
C1341 C1340 1.377 . S
C1341 C1347 1.390 . S
C1342 H1333 0.930 . S
C1342 C1340 1.384 . S
C1342 C1343 1.365 1_655 S
C1343 C1342 1.365 1_455 S
C1343 C1344 1.391 1_455 S
C1343 C1348 1.505 . S
C1344 H1334 0.930 1_655 S
C1344 C1343 1.391 1_655 S
C1344 C1347 1.386 . S
H1345 C1361 0.930 . S
H1346 C1362 0.931 . S
C1347 H1335 0.929 . S
C1347 C1341 1.390 . S
C1347 C1344 1.386 . S
C1348 C1343 1.505 . S
C1348 C1350 1.395 . S
C1348 C1351 1.403 . S
H1349 C1355 0.930 . S
C1350 H1336 0.930 . S
C1350 C1348 1.395 . S
C1350 C1353 1.403 . S
C1351 C1348 1.403 . S
C1351 C1352 1.524 . S
C1351 C1355 1.400 . S
C1352 H1337 0.960 . S
C1352 H1338 0.960 . S
C1352 H1339 0.960 . S
C1352 C1351 1.524 . S
C1353 C1350 1.403 . S
C1353 C1354 1.392 . S
C1353 C1357 1.495 . S
C1354 C1353 1.392 . S
C1354 C1355 1.385 . S
C1354 C1356 1.478 . S
C1355 H1349 0.930 . S
C1355 C1351 1.400 . S
C1355 C1354 1.385 . S
C1356 C1354 1.478 . S
C1356 C1358 1.381 . S
C1356 C1362 1.383 . S
C1357 C1353 1.495 . S
C1357 H1363 0.959 . S
C1357 H1364 0.961 . S
C1357 H1365 0.960 . S
C1358 C1356 1.381 . S
C1358 C1359 1.394 . S
C1358 H1366 0.930 . S
C1359 C1358 1.394 . S
C1359 C1360 1.383 . S
C1359 H1367 0.929 . S
C1360 C1359 1.383 . S
C1360 C1361 1.377 . S
C1361 H1345 0.930 . S
C1361 C1360 1.377 . S
C1361 C1362 1.379 . S
C1362 H1346 0.931 . S
C1362 C1356 1.383 . S
C1362 C1361 1.379 . S
H1363 C1357 0.959 . S
H1364 C1357 0.961 . S
H1365 C1357 0.960 . S
H1366 C1358 0.930 . S
H1367 C1359 0.929 . S
H1368 C1376 0.929 . S
H1369 C1378 0.930 . S
H1370 C1380 0.930 . S
H1371 C1383 0.929 . S
H1372 C1386 0.930 . S
H1373 C1388 0.960 . S
H1374 C1388 0.960 . S
H1375 C1388 0.960 . S
C1376 H1368 0.929 . S
C1376 C1377 1.377 . S
C1376 C1378 1.384 . S
C1377 C1376 1.377 . S
C1377 C1383 1.390 . S
C1378 H1369 0.930 . S
C1378 C1376 1.384 . S
C1378 C1379 1.372 . S
C1379 C1378 1.372 . S
C1379 C1380 1.400 . S
C1379 C1384 1.490 . S
C1380 H1370 0.930 . S
C1380 C1379 1.400 . S
C1380 C1383 1.386 . S
H1381 C1397 0.930 . S
H1382 C1398 0.931 . S
C1383 H1371 0.929 . S
C1383 C1377 1.390 . S
C1383 C1380 1.386 . S
C1384 C1379 1.490 . S
C1384 C1386 1.395 . S
C1384 C1387 1.403 . S
H1385 C1391 0.930 . S
C1386 H1372 0.930 . S
C1386 C1384 1.395 . S
C1386 C1389 1.403 . S
C1387 C1384 1.403 . S
C1387 C1388 1.524 . S
C1387 C1391 1.400 . S
C1388 H1373 0.960 . S
C1388 H1374 0.960 . S
C1388 H1375 0.960 . S
C1388 C1387 1.524 . S
C1389 C1386 1.403 . S
C1389 C1390 1.392 . S
C1389 C1393 1.495 . S
C1390 C1389 1.392 . S
C1390 C1391 1.385 . S
C1390 C1392 1.478 . S
C1391 H1385 0.930 . S
C1391 C1387 1.400 . S
C1391 C1390 1.385 . S
C1392 C1390 1.478 . S
C1392 C1394 1.381 . S
C1392 C1398 1.383 . S
C1393 C1389 1.495 . S
C1393 H1399 0.959 . S
C1393 H1400 0.961 . S
C1393 H1401 0.960 . S
C1394 C1392 1.381 . S
C1394 C1395 1.394 . S
C1394 H1402 0.930 . S
C1395 C1394 1.394 . S
C1395 C1396 1.383 . S
C1395 H1403 0.929 . S
C1396 C1395 1.383 . S
C1396 C1397 1.377 . S
C1397 H1381 0.930 . S
C1397 C1396 1.377 . S
C1397 C1398 1.379 . S
C1398 H1382 0.931 . S
C1398 C1392 1.383 . S
C1398 C1397 1.379 . S
H1399 C1393 0.959 . S
H1400 C1393 0.961 . S
H1401 C1393 0.960 . S
H1402 C1394 0.930 . S
H1403 C1395 0.929 . S
H1404 C1412 0.929 . S
H1405 C1414 0.930 . S
H1406 C1416 0.930 . S
H1407 C1419 0.929 . S
H1408 C1422 0.930 . S
H1409 C1424 0.960 . S
H1410 C1424 0.960 . S
H1411 C1424 0.960 . S
C1412 H1404 0.929 . S
C1412 C1413 1.377 . S
C1412 C1414 1.384 . S
C1413 C1412 1.377 . S
C1413 C1419 1.390 . S
C1414 H1405 0.930 . S
C1414 C1412 1.384 . S
C1414 C1415 1.372 . S
C1415 C1414 1.372 . S
C1415 C1416 1.400 . S
C1415 C1420 1.490 1_545 S
C1416 H1406 0.930 . S
C1416 C1415 1.400 . S
C1416 C1419 1.386 . S
H1417 C1433 0.930 . S
H1418 C1434 0.931 . S
C1419 H1407 0.929 . S
C1419 C1413 1.390 . S
C1419 C1416 1.386 . S
C1420 C1415 1.490 1_565 S
C1420 C1422 1.395 . S
C1420 C1423 1.403 . S
H1421 C1427 0.930 . S
C1422 H1408 0.930 . S
C1422 C1420 1.395 . S
C1422 C1425 1.403 . S
C1423 C1420 1.403 . S
C1423 C1424 1.524 . S
C1423 C1427 1.400 . S
C1424 H1409 0.960 . S
C1424 H1410 0.960 . S
C1424 H1411 0.960 . S
C1424 C1423 1.524 . S
C1425 C1422 1.403 . S
C1425 C1426 1.392 . S
C1425 C1429 1.495 . S
C1426 C1425 1.392 . S
C1426 C1427 1.385 . S
C1426 C1428 1.478 . S
C1427 H1421 0.930 . S
C1427 C1423 1.400 . S
C1427 C1426 1.385 . S
C1428 C1426 1.478 . S
C1428 C1430 1.381 . S
C1428 C1434 1.383 . S
C1429 C1425 1.495 . S
C1429 H1435 0.959 . S
C1429 H1436 0.961 . S
C1429 H1437 0.960 . S
C1430 C1428 1.381 . S
C1430 C1431 1.394 . S
C1430 H1438 0.930 . S
C1431 C1430 1.394 . S
C1431 C1432 1.383 . S
C1431 H1439 0.929 . S
C1432 C1431 1.383 . S
C1432 C1433 1.377 . S
C1433 H1417 0.930 . S
C1433 C1432 1.377 . S
C1433 C1434 1.379 . S
C1434 H1418 0.931 . S
C1434 C1428 1.383 . S
C1434 C1433 1.379 . S
H1435 C1429 0.959 . S
H1436 C1429 0.961 . S
H1437 C1429 0.960 . S
H1438 C1430 0.930 . S
H1439 C1431 0.929 . S
H1440 C1448 0.929 . S
H1441 C1450 0.930 . S
H1442 C1452 0.930 . S
H1443 C1455 0.929 . S
H1444 C1458 0.930 . S
H1445 C1460 0.960 . S
H1446 C1460 0.960 . S
H1447 C1460 0.960 . S
C1448 H1440 0.929 . S
C1448 C1449 1.377 . S
C1448 C1450 1.384 . S
C1449 C1448 1.377 . S
C1449 C1455 1.390 . S
C1450 H1441 0.930 . S
C1450 C1448 1.384 . S
C1450 C1451 1.372 . S
C1451 C1450 1.372 . S
C1451 C1452 1.400 . S
C1451 C1456 1.490 . S
C1452 H1442 0.930 . S
C1452 C1451 1.400 . S
C1452 C1455 1.386 . S
H1453 C1469 0.930 . S
H1454 C1470 0.931 . S
C1455 H1443 0.929 . S
C1455 C1449 1.390 . S
C1455 C1452 1.386 . S
C1456 C1451 1.490 . S
C1456 C1458 1.395 . S
C1456 C1459 1.403 . S
H1457 C1463 0.930 . S
C1458 H1444 0.930 . S
C1458 C1456 1.395 . S
C1458 C1461 1.403 . S
C1459 C1456 1.403 . S
C1459 C1460 1.524 . S
C1459 C1463 1.400 . S
C1460 H1445 0.960 . S
C1460 H1446 0.960 . S
C1460 H1447 0.960 . S
C1460 C1459 1.524 . S
C1461 C1458 1.403 . S
C1461 C1462 1.392 . S
C1461 C1465 1.495 . S
C1462 C1461 1.392 . S
C1462 C1463 1.385 . S
C1462 C1464 1.478 . S
C1463 H1457 0.930 . S
C1463 C1459 1.400 . S
C1463 C1462 1.385 . S
C1464 C1462 1.478 . S
C1464 C1466 1.381 . S
C1464 C1470 1.383 . S
C1465 C1461 1.495 . S
C1465 H1471 0.959 . S
C1465 H1472 0.961 . S
C1465 H1473 0.960 . S
C1466 C1464 1.381 . S
C1466 C1467 1.394 . S
C1466 H1474 0.930 . S
C1467 C1466 1.394 . S
C1467 C1468 1.383 . S
C1467 H1475 0.929 . S
C1468 C1467 1.383 . S
C1468 C1469 1.377 . S
C1469 H1453 0.930 . S
C1469 C1468 1.377 . S
C1469 C1470 1.379 . S
C1470 H1454 0.931 . S
C1470 C1464 1.383 . S
C1470 C1469 1.379 . S
H1471 C1465 0.959 . S
H1472 C1465 0.961 . S
H1473 C1465 0.960 . S
H1474 C1466 0.930 . S
H1475 C1467 0.929 . S
H1476 C1484 0.929 . S
H1477 C1486 0.930 . S
H1478 C1488 0.930 . S
H1479 C1491 0.929 . S
H1480 C1494 0.930 . S
H1481 C1496 0.960 . S
H1482 C1496 0.960 . S
H1483 C1496 0.960 . S
C1484 H1476 0.929 . S
C1484 C1485 1.377 . S
C1484 C1486 1.384 . S
C1485 C1484 1.377 . S
C1485 C1491 1.390 . S
C1486 H1477 0.930 . S
C1486 C1484 1.384 . S
C1486 C1487 1.372 . S
C1487 C1486 1.372 . S
C1487 C1488 1.400 . S
C1487 C1492 1.490 . S
C1488 H1478 0.930 . S
C1488 C1487 1.400 . S
C1488 C1491 1.386 . S
H1489 C1505 0.930 . S
H1490 C1506 0.931 . S
C1491 H1479 0.929 . S
C1491 C1485 1.390 . S
C1491 C1488 1.386 . S
C1492 C1487 1.490 . S
C1492 C1494 1.395 . S
C1492 C1495 1.403 . S
H1493 C1499 0.930 . S
C1494 H1480 0.930 . S
C1494 C1492 1.395 . S
C1494 C1497 1.403 . S
C1495 C1492 1.403 . S
C1495 C1496 1.524 . S
C1495 C1499 1.400 . S
C1496 H1481 0.960 . S
C1496 H1482 0.960 . S
C1496 H1483 0.960 . S
C1496 C1495 1.524 . S
C1497 C1494 1.403 . S
C1497 C1498 1.392 . S
C1497 C1501 1.495 . S
C1498 C1497 1.392 . S
C1498 C1499 1.385 . S
C1498 C1500 1.478 . S
C1499 H1493 0.930 . S
C1499 C1495 1.400 . S
C1499 C1498 1.385 . S
C1500 C1498 1.478 . S
C1500 C1502 1.381 . S
C1500 C1506 1.383 . S
C1501 C1497 1.495 . S
C1501 H1507 0.959 . S
C1501 H1508 0.961 . S
C1501 H1509 0.960 . S
C1502 C1500 1.381 . S
C1502 C1503 1.394 . S
C1502 H1510 0.930 . S
C1503 C1502 1.394 . S
C1503 C1504 1.383 . S
C1503 H1511 0.929 . S
C1504 C1503 1.383 . S
C1504 C1505 1.377 . S
C1505 H1489 0.930 . S
C1505 C1504 1.377 . S
C1505 C1506 1.379 . S
C1506 H1490 0.931 . S
C1506 C1500 1.383 . S
C1506 C1505 1.379 . S
H1507 C1501 0.959 . S
H1508 C1501 0.961 . S
H1509 C1501 0.960 . S
H1510 C1502 0.930 . S
H1511 C1503 0.929 . S
H1512 C1520 0.929 . S
H1513 C1522 0.930 . S
H1514 C1524 0.930 . S
H1515 C1527 0.929 . S
H1516 C1530 0.930 . S
H1517 C1532 0.960 . S
H1518 C1532 0.960 . S
H1519 C1532 0.960 . S
C1520 H1512 0.929 . S
C1520 C1521 1.377 . S
C1520 C1522 1.384 . S
C1521 C1520 1.377 . S
C1521 C1527 1.390 . S
C1522 H1513 0.930 . S
C1522 C1520 1.384 . S
C1522 C1523 1.372 . S
C1523 C1522 1.372 . S
C1523 C1524 1.400 . S
C1523 C1528 1.490 . S
C1524 H1514 0.930 . S
C1524 C1523 1.400 . S
C1524 C1527 1.386 . S
H1525 C1541 0.930 . S
H1526 C1542 0.931 . S
C1527 H1515 0.929 . S
C1527 C1521 1.390 . S
C1527 C1524 1.386 . S
C1528 C1523 1.490 . S
C1528 C1530 1.395 . S
C1528 C1531 1.403 . S
H1529 C1535 0.930 . S
C1530 H1516 0.930 . S
C1530 C1528 1.395 . S
C1530 C1533 1.403 . S
C1531 C1528 1.403 . S
C1531 C1532 1.524 . S
C1531 C1535 1.400 . S
C1532 H1517 0.960 . S
C1532 H1518 0.960 . S
C1532 H1519 0.960 . S
C1532 C1531 1.524 . S
C1533 C1530 1.403 . S
C1533 C1534 1.392 . S
C1533 C1537 1.495 . S
C1534 C1533 1.392 . S
C1534 C1535 1.385 . S
C1534 C1536 1.478 . S
C1535 H1529 0.930 . S
C1535 C1531 1.400 . S
C1535 C1534 1.385 . S
C1536 C1534 1.478 . S
C1536 C1538 1.381 . S
C1536 C1542 1.383 . S
C1537 C1533 1.495 . S
C1537 H1543 0.959 . S
C1537 H1544 0.961 . S
C1537 H1545 0.960 . S
C1538 C1536 1.381 . S
C1538 C1539 1.394 . S
C1538 H1546 0.930 . S
C1539 C1538 1.394 . S
C1539 C1540 1.383 . S
C1539 H1547 0.929 . S
C1540 C1539 1.383 . S
C1540 C1541 1.377 . S
C1541 H1525 0.930 . S
C1541 C1540 1.377 . S
C1541 C1542 1.379 . S
C1542 H1526 0.931 . S
C1542 C1536 1.383 . S
C1542 C1541 1.379 . S
H1543 C1537 0.959 . S
H1544 C1537 0.961 . S
H1545 C1537 0.960 . S
H1546 C1538 0.930 . S
H1547 C1539 0.929 . S
H1548 C1556 0.929 . S
H1549 C1558 0.930 . S
H1550 C1560 0.930 . S
H1551 C1563 0.929 . S
H1552 C1566 0.930 . S
H1553 C1568 0.960 . S
H1554 C1568 0.960 . S
H1555 C1568 0.960 . S
C1556 H1548 0.929 . S
C1556 C1557 1.377 . S
C1556 C1558 1.384 . S
C1557 C1556 1.377 . S
C1557 C1563 1.390 . S
C1558 H1549 0.930 . S
C1558 C1556 1.384 . S
C1558 C1559 1.372 . S
C1559 C1558 1.372 . S
C1559 C1560 1.400 . S
C1559 C1564 1.490 . S
C1560 H1550 0.930 . S
C1560 C1559 1.400 . S
C1560 C1563 1.386 . S
H1561 C1577 0.930 . S
H1562 C1578 0.931 . S
C1563 H1551 0.929 . S
C1563 C1557 1.390 . S
C1563 C1560 1.386 . S
C1564 C1559 1.490 . S
C1564 C1566 1.395 . S
C1564 C1567 1.403 . S
H1565 C1571 0.930 . S
C1566 H1552 0.930 . S
C1566 C1564 1.395 . S
C1566 C1569 1.403 . S
C1567 C1564 1.403 . S
C1567 C1568 1.524 . S
C1567 C1571 1.400 . S
C1568 H1553 0.960 . S
C1568 H1554 0.960 . S
C1568 H1555 0.960 . S
C1568 C1567 1.524 . S
C1569 C1566 1.403 . S
C1569 C1570 1.392 . S
C1569 C1573 1.495 . S
C1570 C1569 1.392 . S
C1570 C1571 1.385 . S
C1570 C1572 1.478 . S
C1571 H1565 0.930 . S
C1571 C1567 1.400 . S
C1571 C1570 1.385 . S
C1572 C1570 1.478 . S
C1572 C1574 1.381 . S
C1572 C1578 1.383 . S
C1573 C1569 1.495 . S
C1573 H1579 0.959 . S
C1573 H1580 0.961 . S
C1573 H1581 0.960 . S
C1574 C1572 1.381 . S
C1574 C1575 1.394 . S
C1574 H1582 0.930 . S
C1575 C1574 1.394 . S
C1575 C1576 1.383 . S
C1575 H1583 0.929 . S
C1576 C1575 1.383 . S
C1576 C1577 1.377 . S
C1577 H1561 0.930 . S
C1577 C1576 1.377 . S
C1577 C1578 1.379 . S
C1578 H1562 0.931 . S
C1578 C1572 1.383 . S
C1578 C1577 1.379 . S
H1579 C1573 0.959 . S
H1580 C1573 0.961 . S
H1581 C1573 0.960 . S
H1582 C1574 0.930 . S
H1583 C1575 0.929 . S
H1584 C1592 0.929 . S
H1585 C1594 0.930 . S
H1586 C1596 0.930 . S
H1587 C1599 0.929 . S
H1588 C1602 0.930 . S
H1589 C1604 0.960 . S
H1590 C1604 0.960 . S
H1591 C1604 0.960 . S
C1592 H1584 0.929 . S
C1592 C1593 1.377 . S
C1592 C1594 1.384 . S
C1593 C1592 1.377 . S
C1593 C1599 1.390 . S
C1594 H1585 0.930 . S
C1594 C1592 1.384 . S
C1594 C1595 1.372 . S
C1595 C1594 1.372 . S
C1595 C1596 1.400 . S
C1595 C1600 1.490 . S
C1596 H1586 0.930 . S
C1596 C1595 1.400 . S
C1596 C1599 1.386 . S
H1597 C1613 0.930 . S
H1598 C1614 0.931 . S
C1599 H1587 0.929 . S
C1599 C1593 1.390 . S
C1599 C1596 1.386 . S
C1600 C1595 1.490 . S
C1600 C1602 1.395 . S
C1600 C1603 1.403 . S
H1601 C1607 0.930 . S
C1602 H1588 0.930 . S
C1602 C1600 1.395 . S
C1602 C1605 1.403 . S
C1603 C1600 1.403 . S
C1603 C1604 1.524 . S
C1603 C1607 1.400 . S
C1604 H1589 0.960 . S
C1604 H1590 0.960 . S
C1604 H1591 0.960 . S
C1604 C1603 1.524 . S
C1605 C1602 1.403 . S
C1605 C1606 1.392 . S
C1605 C1609 1.495 . S
C1606 C1605 1.392 . S
C1606 C1607 1.385 . S
C1606 C1608 1.478 . S
C1607 H1601 0.930 . S
C1607 C1603 1.400 . S
C1607 C1606 1.385 . S
C1608 C1606 1.478 . S
C1608 C1610 1.381 . S
C1608 C1614 1.383 . S
C1609 C1605 1.495 . S
C1609 H1615 0.959 . S
C1609 H1616 0.961 . S
C1609 H1617 0.960 . S
C1610 C1608 1.381 . S
C1610 C1611 1.394 . S
C1610 H1618 0.930 . S
C1611 C1610 1.394 . S
C1611 C1612 1.383 . S
C1611 H1619 0.929 . S
C1612 C1611 1.383 . S
C1612 C1613 1.377 . S
C1613 H1597 0.930 . S
C1613 C1612 1.377 . S
C1613 C1614 1.379 . S
C1614 H1598 0.931 . S
C1614 C1608 1.383 . S
C1614 C1613 1.379 . S
H1615 C1609 0.959 . S
H1616 C1609 0.961 . S
H1617 C1609 0.960 . S
H1618 C1610 0.930 . S
H1619 C1611 0.929 . S
H1620 C1628 0.929 . S
H1621 C1630 0.930 . S
H1622 C1632 0.930 . S
H1623 C1635 0.929 . S
H1624 C1638 0.930 . S
H1625 C1640 0.960 . S
H1626 C1640 0.960 . S
H1627 C1640 0.960 . S
C1628 H1620 0.929 . S
C1628 C1629 1.377 . S
C1628 C1630 1.384 . S
C1629 C1628 1.377 . S
C1629 C1635 1.390 . S
C1630 H1621 0.930 . S
C1630 C1628 1.384 . S
C1630 C1631 1.372 . S
C1631 C1630 1.372 . S
C1631 C1632 1.400 . S
C1631 C1636 1.490 . S
C1632 H1622 0.930 . S
C1632 C1631 1.400 . S
C1632 C1635 1.386 . S
H1633 C1649 0.930 . S
H1634 C1650 0.931 . S
C1635 H1623 0.929 . S
C1635 C1629 1.390 . S
C1635 C1632 1.386 . S
C1636 C1631 1.490 . S
C1636 C1638 1.395 . S
C1636 C1639 1.403 . S
H1637 C1643 0.930 . S
C1638 H1624 0.930 . S
C1638 C1636 1.395 . S
C1638 C1641 1.403 . S
C1639 C1636 1.403 . S
C1639 C1640 1.524 . S
C1639 C1643 1.400 . S
C1640 H1625 0.960 . S
C1640 H1626 0.960 . S
C1640 H1627 0.960 . S
C1640 C1639 1.524 . S
C1641 C1638 1.403 . S
C1641 C1642 1.392 . S
C1641 C1645 1.495 . S
C1642 C1641 1.392 . S
C1642 C1643 1.385 . S
C1642 C1644 1.478 . S
C1643 H1637 0.930 . S
C1643 C1639 1.400 . S
C1643 C1642 1.385 . S
C1644 C1642 1.478 . S
C1644 C1646 1.381 . S
C1644 C1650 1.383 . S
C1645 C1641 1.495 . S
C1645 H1651 0.959 . S
C1645 H1652 0.961 . S
C1645 H1653 0.960 . S
C1646 C1644 1.381 . S
C1646 C1647 1.394 . S
C1646 H1654 0.930 . S
C1647 C1646 1.394 . S
C1647 C1648 1.383 . S
C1647 H1655 0.929 . S
C1648 C1647 1.383 . S
C1648 C1649 1.377 . S
C1649 H1633 0.930 . S
C1649 C1648 1.377 . S
C1649 C1650 1.379 . S
C1650 H1634 0.931 . S
C1650 C1644 1.383 . S
C1650 C1649 1.379 . S
H1651 C1645 0.959 . S
H1652 C1645 0.961 . S
H1653 C1645 0.960 . S
H1654 C1646 0.930 . S
H1655 C1647 0.929 . S
H1656 C1664 0.929 . S
H1657 C1666 0.930 . S
H1658 C1668 0.930 1_565 S
H1659 C1671 0.929 . S
H1660 C1674 0.930 . S
H1661 C1676 0.960 . S
H1662 C1676 0.960 . S
H1663 C1676 0.960 . S
C1664 H1656 0.929 . S
C1664 C1665 1.377 . S
C1664 C1666 1.384 . S
C1665 C1664 1.377 . S
C1665 C1671 1.390 . S
C1666 H1657 0.930 . S
C1666 C1664 1.384 . S
C1666 C1667 1.372 1_545 S
C1667 C1666 1.372 1_565 S
C1667 C1668 1.400 1_565 S
C1667 C1672 1.490 . S
C1668 H1658 0.930 1_545 S
C1668 C1667 1.400 1_545 S
C1668 C1671 1.386 . S
H1669 C1685 0.930 . S
H1670 C1686 0.931 . S
C1671 H1659 0.929 . S
C1671 C1665 1.390 . S
C1671 C1668 1.386 . S
C1672 C1667 1.490 . S
C1672 C1674 1.395 . S
C1672 C1675 1.403 . S
H1673 C1679 0.930 . S
C1674 H1660 0.930 . S
C1674 C1672 1.395 . S
C1674 C1677 1.403 . S
C1675 C1672 1.403 . S
C1675 C1676 1.524 . S
C1675 C1679 1.400 . S
C1676 H1661 0.960 . S
C1676 H1662 0.960 . S
C1676 H1663 0.960 . S
C1676 C1675 1.524 . S
C1677 C1674 1.403 . S
C1677 C1678 1.392 . S
C1677 C1681 1.495 . S
C1678 C1677 1.392 . S
C1678 C1679 1.385 . S
C1678 C1680 1.478 . S
C1679 H1673 0.930 . S
C1679 C1675 1.400 . S
C1679 C1678 1.385 . S
C1680 C1678 1.478 . S
C1680 C1682 1.381 . S
C1680 C1686 1.383 . S
C1681 C1677 1.495 . S
C1681 H1687 0.959 . S
C1681 H1688 0.961 . S
C1681 H1689 0.960 . S
C1682 C1680 1.381 . S
C1682 C1683 1.394 . S
C1682 H1690 0.930 . S
C1683 C1682 1.394 . S
C1683 C1684 1.383 . S
C1683 H1691 0.929 . S
C1684 C1683 1.383 . S
C1684 C1685 1.377 . S
C1685 H1669 0.930 . S
C1685 C1684 1.377 . S
C1685 C1686 1.379 . S
C1686 H1670 0.931 . S
C1686 C1680 1.383 . S
C1686 C1685 1.379 . S
H1687 C1681 0.959 . S
H1688 C1681 0.961 . S
H1689 C1681 0.960 . S
H1690 C1682 0.930 . S
H1691 C1683 0.929 . S
H1692 C1700 0.929 . S
H1693 C1702 0.930 1_455 S
H1694 C1704 0.930 . S
H1695 C1707 0.929 . S
H1696 C1710 0.930 . S
H1697 C1712 0.960 . S
H1698 C1712 0.960 . S
H1699 C1712 0.960 . S
C1700 H1692 0.929 . S
C1700 C1701 1.377 . S
C1700 C1702 1.385 . S
C1701 C1700 1.377 . S
C1701 C1707 1.390 . S
C1702 H1693 0.930 1_655 S
C1702 C1700 1.385 . S
C1702 C1703 1.370 1_655 S
C1703 C1702 1.370 1_455 S
C1703 C1704 1.400 . S
C1703 C1708 1.490 . S
C1704 H1694 0.930 . S
C1704 C1703 1.400 . S
C1704 C1707 1.386 1_455 S
H1705 C1721 0.930 . S
H1706 C1722 0.931 . S
C1707 H1695 0.929 . S
C1707 C1701 1.390 . S
C1707 C1704 1.386 1_655 S
C1708 C1703 1.490 . S
C1708 C1710 1.395 . S
C1708 C1711 1.403 . S
H1709 C1715 0.930 . S
C1710 H1696 0.930 . S
C1710 C1708 1.395 . S
C1710 C1713 1.403 . S
C1711 C1708 1.403 . S
C1711 C1712 1.524 . S
C1711 C1715 1.400 . S
C1712 H1697 0.960 . S
C1712 H1698 0.960 . S
C1712 H1699 0.960 . S
C1712 C1711 1.524 . S
C1713 C1710 1.403 . S
C1713 C1714 1.392 . S
C1713 C1717 1.495 . S
C1714 C1713 1.392 . S
C1714 C1715 1.385 . S
C1714 C1716 1.478 . S
C1715 H1709 0.930 . S
C1715 C1711 1.400 . S
C1715 C1714 1.385 . S
C1716 C1714 1.478 . S
C1716 C1718 1.381 . S
C1716 C1722 1.383 . S
C1717 C1713 1.495 . S
C1717 H1723 0.959 . S
C1717 H1724 0.961 . S
C1717 H1725 0.960 . S
C1718 C1716 1.381 . S
C1718 C1719 1.394 . S
C1718 H1726 0.930 . S
C1719 C1718 1.394 . S
C1719 C1720 1.383 . S
C1719 H1727 0.929 . S
C1720 C1719 1.383 . S
C1720 C1721 1.377 . S
C1721 H1705 0.930 . S
C1721 C1720 1.377 . S
C1721 C1722 1.379 . S
C1722 H1706 0.931 . S
C1722 C1716 1.383 . S
C1722 C1721 1.379 . S
H1723 C1717 0.959 . S
H1724 C1717 0.961 . S
H1725 C1717 0.960 . S
H1726 C1718 0.930 . S
H1727 C1719 0.929 . S
H1728 C1736 0.929 . S
H1729 C1738 0.930 . S
H1730 C1740 0.930 . S
H1731 C1743 0.929 . S
H1732 C1746 0.930 . S
H1733 C1748 0.960 . S
H1734 C1748 0.960 . S
H1735 C1748 0.960 . S
C1736 H1728 0.929 . S
C1736 C1737 1.377 . S
C1736 C1738 1.384 . S
C1737 C1736 1.377 . S
C1737 C1743 1.390 . S
C1738 H1729 0.930 . S
C1738 C1736 1.384 . S
C1738 C1739 1.372 . S
C1739 C1738 1.372 . S
C1739 C1740 1.400 . S
C1739 C1744 1.490 . S
C1740 H1730 0.930 . S
C1740 C1739 1.400 . S
C1740 C1743 1.386 . S
H1741 C1757 0.930 . S
H1742 C1758 0.931 . S
C1743 H1731 0.929 . S
C1743 C1737 1.390 . S
C1743 C1740 1.386 . S
C1744 C1739 1.490 . S
C1744 C1746 1.395 . S
C1744 C1747 1.403 . S
H1745 C1751 0.930 . S
C1746 H1732 0.930 . S
C1746 C1744 1.395 . S
C1746 C1749 1.403 . S
C1747 C1744 1.403 . S
C1747 C1748 1.524 . S
C1747 C1751 1.400 . S
C1748 H1733 0.960 . S
C1748 H1734 0.960 . S
C1748 H1735 0.960 . S
C1748 C1747 1.524 . S
C1749 C1746 1.403 . S
C1749 C1750 1.392 . S
C1749 C1753 1.495 . S
C1750 C1749 1.392 . S
C1750 C1751 1.385 . S
C1750 C1752 1.478 . S
C1751 H1745 0.930 . S
C1751 C1747 1.400 . S
C1751 C1750 1.385 . S
C1752 C1750 1.478 . S
C1752 C1754 1.381 . S
C1752 C1758 1.383 . S
C1753 C1749 1.495 . S
C1753 H1759 0.959 . S
C1753 H1760 0.961 . S
C1753 H1761 0.960 . S
C1754 C1752 1.381 . S
C1754 C1755 1.394 . S
C1754 H1762 0.930 . S
C1755 C1754 1.394 . S
C1755 C1756 1.383 . S
C1755 H1763 0.929 . S
C1756 C1755 1.383 . S
C1756 C1757 1.377 . S
C1757 H1741 0.930 . S
C1757 C1756 1.377 . S
C1757 C1758 1.379 . S
C1758 H1742 0.931 . S
C1758 C1752 1.383 . S
C1758 C1757 1.379 . S
H1759 C1753 0.959 . S
H1760 C1753 0.961 . S
H1761 C1753 0.960 . S
H1762 C1754 0.930 . S
H1763 C1755 0.929 . S
H1764 C1772 0.929 . S
H1765 C1774 0.930 . S
H1766 C1776 0.930 . S
H1767 C1779 0.929 . S
H1768 C1782 0.930 . S
H1769 C1784 0.960 . S
H1770 C1784 0.960 . S
H1771 C1784 0.960 . S
C1772 H1764 0.929 . S
C1772 C1773 1.377 . S
C1772 C1774 1.384 . S
C1773 C1772 1.377 . S
C1773 C1779 1.390 . S
C1774 H1765 0.930 . S
C1774 C1772 1.384 . S
C1774 C1775 1.372 . S
C1775 C1774 1.372 . S
C1775 C1776 1.400 . S
C1775 C1780 1.490 . S
C1776 H1766 0.930 . S
C1776 C1775 1.400 . S
C1776 C1779 1.386 . S
H1777 C1793 0.930 . S
H1778 C1794 0.931 . S
C1779 H1767 0.929 . S
C1779 C1773 1.390 . S
C1779 C1776 1.386 . S
C1780 C1775 1.490 . S
C1780 C1782 1.395 . S
C1780 C1783 1.403 . S
H1781 C1787 0.930 . S
C1782 H1768 0.930 . S
C1782 C1780 1.395 . S
C1782 C1785 1.403 . S
C1783 C1780 1.403 . S
C1783 C1784 1.524 . S
C1783 C1787 1.400 . S
C1784 H1769 0.960 . S
C1784 H1770 0.960 . S
C1784 H1771 0.960 . S
C1784 C1783 1.524 . S
C1785 C1782 1.403 . S
C1785 C1786 1.392 . S
C1785 C1789 1.495 . S
C1786 C1785 1.392 . S
C1786 C1787 1.385 . S
C1786 C1788 1.478 . S
C1787 H1781 0.930 . S
C1787 C1783 1.400 . S
C1787 C1786 1.385 . S
C1788 C1786 1.478 . S
C1788 C1790 1.381 . S
C1788 C1794 1.383 . S
C1789 C1785 1.495 . S
C1789 H1795 0.959 . S
C1789 H1796 0.961 . S
C1789 H1797 0.960 . S
C1790 C1788 1.381 . S
C1790 C1791 1.394 . S
C1790 H1798 0.930 . S
C1791 C1790 1.394 . S
C1791 C1792 1.383 . S
C1791 H1799 0.929 . S
C1792 C1791 1.383 . S
C1792 C1793 1.377 . S
C1793 H1777 0.930 . S
C1793 C1792 1.377 . S
C1793 C1794 1.379 . S
C1794 H1778 0.931 . S
C1794 C1788 1.383 . S
C1794 C1793 1.379 . S
H1795 C1789 0.959 . S
H1796 C1789 0.961 . S
H1797 C1789 0.960 . S
H1798 C1790 0.930 . S
H1799 C1791 0.929 . S
H1800 C1808 0.929 . S
H1801 C1810 0.930 . S
H1802 C1812 0.930 . S
H1803 C1815 0.929 . S
H1804 C1818 0.930 . S
H1805 C1820 0.960 . S
H1806 C1820 0.960 . S
H1807 C1820 0.960 . S
C1808 H1800 0.929 . S
C1808 C1809 1.377 . S
C1808 C1810 1.384 . S
C1809 C1808 1.377 . S
C1809 C1815 1.390 . S
C1810 H1801 0.930 . S
C1810 C1808 1.384 . S
C1810 C1811 1.372 . S
C1811 C1810 1.372 . S
C1811 C1812 1.400 . S
C1811 C1816 1.490 . S
C1812 H1802 0.930 . S
C1812 C1811 1.400 . S
C1812 C1815 1.386 . S
H1813 C1829 0.930 . S
H1814 C1830 0.931 . S
C1815 H1803 0.929 . S
C1815 C1809 1.390 . S
C1815 C1812 1.386 . S
C1816 C1811 1.490 . S
C1816 C1818 1.395 . S
C1816 C1819 1.403 . S
H1817 C1823 0.930 . S
C1818 H1804 0.930 . S
C1818 C1816 1.395 . S
C1818 C1821 1.403 . S
C1819 C1816 1.403 . S
C1819 C1820 1.524 . S
C1819 C1823 1.400 . S
C1820 H1805 0.960 . S
C1820 H1806 0.960 . S
C1820 H1807 0.960 . S
C1820 C1819 1.524 . S
C1821 C1818 1.403 . S
C1821 C1822 1.392 . S
C1821 C1825 1.495 . S
C1822 C1821 1.392 . S
C1822 C1823 1.385 . S
C1822 C1824 1.478 . S
C1823 H1817 0.930 . S
C1823 C1819 1.400 . S
C1823 C1822 1.385 . S
C1824 C1822 1.478 . S
C1824 C1826 1.381 . S
C1824 C1830 1.383 . S
C1825 C1821 1.495 . S
C1825 H1831 0.959 . S
C1825 H1832 0.961 . S
C1825 H1833 0.960 . S
C1826 C1824 1.381 . S
C1826 C1827 1.394 . S
C1826 H1834 0.930 . S
C1827 C1826 1.394 . S
C1827 C1828 1.383 . S
C1827 H1835 0.929 . S
C1828 C1827 1.383 . S
C1828 C1829 1.377 . S
C1829 H1813 0.930 . S
C1829 C1828 1.377 . S
C1829 C1830 1.379 . S
C1830 H1814 0.931 . S
C1830 C1824 1.383 . S
C1830 C1829 1.379 . S
H1831 C1825 0.959 . S
H1832 C1825 0.961 . S
H1833 C1825 0.960 . S
H1834 C1826 0.930 . S
H1835 C1827 0.929 . S
H1836 C1844 0.929 . S
H1837 C1846 0.930 . S
H1838 C1848 0.930 . S
H1839 C1851 0.929 . S
H1840 C1854 0.930 . S
H1841 C1856 0.960 . S
H1842 C1856 0.960 . S
H1843 C1856 0.960 . S
C1844 H1836 0.929 . S
C1844 C1845 1.377 . S
C1844 C1846 1.384 . S
C1845 C1844 1.377 . S
C1845 C1851 1.390 . S
C1846 H1837 0.930 . S
C1846 C1844 1.384 . S
C1846 C1847 1.372 . S
C1847 C1846 1.372 . S
C1847 C1848 1.400 . S
C1847 C1852 1.490 . S
C1848 H1838 0.930 . S
C1848 C1847 1.400 . S
C1848 C1851 1.386 . S
H1849 C1865 0.930 . S
H1850 C1866 0.931 . S
C1851 H1839 0.929 . S
C1851 C1845 1.390 . S
C1851 C1848 1.386 . S
C1852 C1847 1.490 . S
C1852 C1854 1.395 . S
C1852 C1855 1.403 . S
H1853 C1859 0.930 . S
C1854 H1840 0.930 . S
C1854 C1852 1.395 . S
C1854 C1857 1.403 . S
C1855 C1852 1.403 . S
C1855 C1856 1.524 . S
C1855 C1859 1.400 . S
C1856 H1841 0.960 . S
C1856 H1842 0.960 . S
C1856 H1843 0.960 . S
C1856 C1855 1.524 . S
C1857 C1854 1.403 . S
C1857 C1858 1.392 . S
C1857 C1861 1.495 . S
C1858 C1857 1.392 . S
C1858 C1859 1.385 . S
C1858 C1860 1.478 . S
C1859 H1853 0.930 . S
C1859 C1855 1.400 . S
C1859 C1858 1.385 . S
C1860 C1858 1.478 . S
C1860 C1862 1.381 . S
C1860 C1866 1.383 . S
C1861 C1857 1.495 . S
C1861 H1867 0.959 . S
C1861 H1868 0.961 . S
C1861 H1869 0.960 . S
C1862 C1860 1.381 . S
C1862 C1863 1.394 . S
C1862 H1870 0.930 . S
C1863 C1862 1.394 . S
C1863 C1864 1.383 . S
C1863 H1871 0.929 . S
C1864 C1863 1.383 . S
C1864 C1865 1.377 . S
C1865 H1849 0.930 . S
C1865 C1864 1.377 . S
C1865 C1866 1.379 . S
C1866 H1850 0.931 . S
C1866 C1860 1.383 . S
C1866 C1865 1.379 . S
H1867 C1861 0.959 . S
H1868 C1861 0.961 . S
H1869 C1861 0.960 . S
H1870 C1862 0.930 . S
H1871 C1863 0.929 . S
H1872 C1880 0.929 . S
H1873 C1882 0.930 . S
H1874 C1884 0.930 1_545 S
H1875 C1887 0.929 . S
H1876 C1890 0.930 . S
H1877 C1892 0.960 . S
H1878 C1892 0.960 . S
H1879 C1892 0.960 . S
C1880 H1872 0.929 . S
C1880 C1881 1.377 . S
C1880 C1882 1.384 . S
C1881 C1880 1.377 . S
C1881 C1887 1.390 . S
C1882 H1873 0.930 . S
C1882 C1880 1.384 . S
C1882 C1883 1.372 1_565 S
C1883 C1882 1.372 1_545 S
C1883 C1884 1.400 1_545 S
C1883 C1888 1.490 . S
C1884 H1874 0.930 1_565 S
C1884 C1883 1.400 1_565 S
C1884 C1887 1.386 . S
H1885 C1901 0.930 . S
H1886 C1902 0.931 . S
C1887 H1875 0.929 . S
C1887 C1881 1.390 . S
C1887 C1884 1.386 . S
C1888 C1883 1.490 . S
C1888 C1890 1.395 . S
C1888 C1891 1.403 . S
H1889 C1895 0.930 . S
C1890 H1876 0.930 . S
C1890 C1888 1.395 . S
C1890 C1893 1.403 . S
C1891 C1888 1.403 . S
C1891 C1892 1.524 . S
C1891 C1895 1.400 . S
C1892 H1877 0.960 . S
C1892 H1878 0.960 . S
C1892 H1879 0.960 . S
C1892 C1891 1.524 . S
C1893 C1890 1.403 . S
C1893 C1894 1.392 . S
C1893 C1897 1.495 . S
C1894 C1893 1.392 . S
C1894 C1895 1.385 . S
C1894 C1896 1.478 . S
C1895 H1889 0.930 . S
C1895 C1891 1.400 . S
C1895 C1894 1.385 . S
C1896 C1894 1.478 . S
C1896 C1898 1.381 . S
C1896 C1902 1.383 . S
C1897 C1893 1.495 . S
C1897 H1903 0.959 . S
C1897 H1904 0.961 . S
C1897 H1905 0.960 . S
C1898 C1896 1.381 . S
C1898 C1899 1.394 . S
C1898 H1906 0.930 . S
C1899 C1898 1.394 . S
C1899 C1900 1.383 . S
C1899 H1907 0.929 . S
C1900 C1899 1.383 . S
C1900 C1901 1.377 . S
C1901 H1885 0.930 . S
C1901 C1900 1.377 . S
C1901 C1902 1.379 . S
C1902 H1886 0.931 . S
C1902 C1896 1.383 . S
C1902 C1901 1.379 . S
H1903 C1897 0.959 . S
H1904 C1897 0.961 . S
H1905 C1897 0.960 . S
H1906 C1898 0.930 . S
H1907 C1899 0.929 . S
H1908 C1916 0.929 . S
H1909 C1918 0.930 . S
H1910 C1920 0.930 . S
H1911 C1923 0.929 . S
H1912 C1926 0.930 . S
H1913 C1928 0.960 . S
H1914 C1928 0.960 . S
H1915 C1928 0.960 . S
C1916 H1908 0.929 . S
C1916 C1917 1.377 . S
C1916 C1918 1.384 . S
C1917 C1916 1.377 . S
C1917 C1923 1.390 . S
C1918 H1909 0.930 . S
C1918 C1916 1.384 . S
C1918 C1919 1.372 1_455 S
C1919 C1918 1.372 1_655 S
C1919 C1920 1.400 . S
C1919 C1924 1.490 . S
C1920 H1910 0.930 . S
C1920 C1919 1.400 . S
C1920 C1923 1.386 1_655 S
H1921 C1937 0.930 . S
H1922 C1938 0.931 . S
C1923 H1911 0.929 . S
C1923 C1917 1.390 . S
C1923 C1920 1.386 1_455 S
C1924 C1919 1.490 . S
C1924 C1926 1.395 . S
C1924 C1927 1.403 . S
H1925 C1931 0.930 . S
C1926 H1912 0.930 . S
C1926 C1924 1.395 . S
C1926 C1929 1.403 . S
C1927 C1924 1.403 . S
C1927 C1928 1.524 . S
C1927 C1931 1.400 . S
C1928 H1913 0.960 . S
C1928 H1914 0.960 . S
C1928 H1915 0.960 . S
C1928 C1927 1.524 . S
C1929 C1926 1.403 . S
C1929 C1930 1.392 . S
C1929 C1933 1.495 . S
C1930 C1929 1.392 . S
C1930 C1931 1.385 . S
C1930 C1932 1.478 . S
C1931 H1925 0.930 . S
C1931 C1927 1.400 . S
C1931 C1930 1.385 . S
C1932 C1930 1.478 . S
C1932 C1934 1.381 . S
C1932 C1938 1.383 . S
C1933 C1929 1.495 . S
C1933 H1939 0.959 . S
C1933 H1940 0.961 . S
C1933 H1941 0.960 . S
C1934 C1932 1.381 . S
C1934 C1935 1.394 . S
C1934 H1942 0.930 . S
C1935 C1934 1.394 . S
C1935 C1936 1.383 . S
C1935 H1943 0.929 . S
C1936 C1935 1.383 . S
C1936 C1937 1.377 . S
C1937 H1921 0.930 . S
C1937 C1936 1.377 . S
C1937 C1938 1.379 . S
C1938 H1922 0.931 . S
C1938 C1932 1.383 . S
C1938 C1937 1.379 . S
H1939 C1933 0.959 . S
H1940 C1933 0.961 . S
H1941 C1933 0.960 . S
H1942 C1934 0.930 . S
H1943 C1935 0.929 . S
H1944 C1952 0.929 . S
H1945 C1954 0.930 . S
H1946 C1956 0.930 . S
H1947 C1959 0.929 . S
H1948 C1962 0.930 . S
H1949 C1964 0.960 . S
H1950 C1964 0.960 . S
H1951 C1964 0.960 . S
C1952 H1944 0.929 . S
C1952 C1953 1.377 . S
C1952 C1954 1.384 . S
C1953 C1952 1.377 . S
C1953 C1959 1.390 . S
C1954 H1945 0.930 . S
C1954 C1952 1.384 . S
C1954 C1955 1.372 . S
C1955 C1954 1.372 . S
C1955 C1956 1.400 . S
C1955 C1960 1.490 . S
C1956 H1946 0.930 . S
C1956 C1955 1.400 . S
C1956 C1959 1.386 . S
H1957 C1973 0.930 . S
H1958 C1974 0.931 . S
C1959 H1947 0.929 . S
C1959 C1953 1.390 . S
C1959 C1956 1.386 . S
C1960 C1955 1.490 . S
C1960 C1962 1.395 . S
C1960 C1963 1.403 . S
H1961 C1967 0.930 . S
C1962 H1948 0.930 . S
C1962 C1960 1.395 . S
C1962 C1965 1.403 . S
C1963 C1960 1.403 . S
C1963 C1964 1.524 . S
C1963 C1967 1.400 . S
C1964 H1949 0.960 . S
C1964 H1950 0.960 . S
C1964 H1951 0.960 . S
C1964 C1963 1.524 . S
C1965 C1962 1.403 . S
C1965 C1966 1.392 . S
C1965 C1969 1.495 . S
C1966 C1965 1.392 . S
C1966 C1967 1.385 . S
C1966 C1968 1.478 . S
C1967 H1961 0.930 . S
C1967 C1963 1.400 . S
C1967 C1966 1.385 . S
C1968 C1966 1.478 . S
C1968 C1970 1.381 . S
C1968 C1974 1.383 . S
C1969 C1965 1.495 . S
C1969 H1975 0.959 . S
C1969 H1976 0.961 . S
C1969 H1977 0.960 . S
C1970 C1968 1.381 . S
C1970 C1971 1.394 . S
C1970 H1978 0.930 . S
C1971 C1970 1.394 . S
C1971 C1972 1.383 . S
C1971 H1979 0.929 . S
C1972 C1971 1.383 . S
C1972 C1973 1.377 . S
C1973 H1957 0.930 . S
C1973 C1972 1.377 . S
C1973 C1974 1.379 . S
C1974 H1958 0.931 . S
C1974 C1968 1.383 . S
C1974 C1973 1.379 . S
H1975 C1969 0.959 . S
H1976 C1969 0.961 . S
H1977 C1969 0.960 . S
H1978 C1970 0.930 . S
H1979 C1971 0.929 . S
H1980 C1988 0.929 . S
H1981 C1990 0.930 . S
H1982 C1992 0.930 1_655 S
H1983 C1995 0.929 . S
H1984 C1998 0.930 . S
H1985 C2000 0.960 . S
H1986 C2000 0.960 . S
H1987 C2000 0.960 . S
C1988 H1980 0.929 . S
C1988 C1989 1.377 . S
C1988 C1990 1.384 . S
C1989 C1988 1.377 . S
C1989 C1995 1.390 . S
C1990 H1981 0.930 . S
C1990 C1988 1.384 . S
C1990 C1991 1.372 . S
C1991 C1990 1.372 . S
C1991 C1992 1.400 . S
C1991 C1996 1.490 1_455 S
C1992 H1982 0.930 1_455 S
C1992 C1991 1.400 . S
C1992 C1995 1.386 . S
H1993 C2009 0.930 . S
H1994 C2010 0.931 . S
C1995 H1983 0.929 . S
C1995 C1989 1.390 . S
C1995 C1992 1.386 . S
C1996 C1991 1.490 1_655 S
C1996 C1998 1.395 . S
C1996 C1999 1.403 . S
H1997 C2003 0.930 . S
C1998 H1984 0.930 . S
C1998 C1996 1.395 . S
C1998 C2001 1.403 . S
C1999 C1996 1.403 . S
C1999 C2000 1.524 . S
C1999 C2003 1.400 . S
C2000 H1985 0.960 . S
C2000 H1986 0.960 . S
C2000 H1987 0.960 . S
C2000 C1999 1.524 . S
C2001 C1998 1.403 . S
C2001 C2002 1.392 . S
C2001 C2005 1.495 . S
C2002 C2001 1.392 . S
C2002 C2003 1.385 . S
C2002 C2004 1.478 . S
C2003 H1997 0.930 . S
C2003 C1999 1.400 . S
C2003 C2002 1.385 . S
C2004 C2002 1.478 . S
C2004 C2006 1.381 . S
C2004 C2010 1.383 . S
C2005 C2001 1.495 . S
C2005 H2011 0.959 . S
C2005 H2012 0.961 . S
C2005 H2013 0.960 . S
C2006 C2004 1.381 . S
C2006 C2007 1.394 . S
C2006 H2014 0.930 . S
C2007 C2006 1.394 . S
C2007 C2008 1.383 . S
C2007 H2015 0.929 . S
C2008 C2007 1.383 . S
C2008 C2009 1.377 . S
C2009 H1993 0.930 . S
C2009 C2008 1.377 . S
C2009 C2010 1.379 . S
C2010 H1994 0.931 . S
C2010 C2004 1.383 . S
C2010 C2009 1.379 . S
H2011 C2005 0.959 . S
H2012 C2005 0.961 . S
H2013 C2005 0.960 . S
H2014 C2006 0.930 . S
H2015 C2007 0.929 . S
H2016 C2024 0.929 . S
H2017 C2026 0.930 . S
H2018 C2028 0.930 . S
H2019 C2031 0.929 . S
H2020 C2034 0.930 . S
H2021 C2036 0.960 . S
H2022 C2036 0.960 . S
H2023 C2036 0.960 . S
C2024 H2016 0.929 . S
C2024 C2025 1.377 . S
C2024 C2026 1.384 . S
C2025 C2024 1.377 . S
C2025 C2031 1.390 . S
C2026 H2017 0.930 . S
C2026 C2024 1.384 . S
C2026 C2027 1.372 . S
C2027 C2026 1.372 . S
C2027 C2028 1.400 . S
C2027 C2032 1.490 . S
C2028 H2018 0.930 . S
C2028 C2027 1.400 . S
C2028 C2031 1.386 . S
H2029 C2045 0.930 . S
H2030 C2046 0.931 . S
C2031 H2019 0.929 . S
C2031 C2025 1.390 . S
C2031 C2028 1.386 . S
C2032 C2027 1.490 . S
C2032 C2034 1.395 . S
C2032 C2035 1.403 . S
H2033 C2039 0.930 . S
C2034 H2020 0.930 . S
C2034 C2032 1.395 . S
C2034 C2037 1.403 . S
C2035 C2032 1.403 . S
C2035 C2036 1.524 . S
C2035 C2039 1.400 . S
C2036 H2021 0.960 . S
C2036 H2022 0.960 . S
C2036 H2023 0.960 . S
C2036 C2035 1.524 . S
C2037 C2034 1.403 . S
C2037 C2038 1.392 . S
C2037 C2041 1.495 . S
C2038 C2037 1.392 . S
C2038 C2039 1.385 . S
C2038 C2040 1.478 . S
C2039 H2033 0.930 . S
C2039 C2035 1.400 . S
C2039 C2038 1.385 . S
C2040 C2038 1.478 . S
C2040 C2042 1.381 . S
C2040 C2046 1.383 . S
C2041 C2037 1.495 . S
C2041 H2047 0.959 . S
C2041 H2048 0.961 . S
C2041 H2049 0.960 . S
C2042 C2040 1.381 . S
C2042 C2043 1.394 . S
C2042 H2050 0.930 . S
C2043 C2042 1.394 . S
C2043 C2044 1.383 . S
C2043 H2051 0.929 . S
C2044 C2043 1.383 . S
C2044 C2045 1.377 . S
C2045 H2029 0.930 . S
C2045 C2044 1.377 . S
C2045 C2046 1.379 . S
C2046 H2030 0.931 . S
C2046 C2040 1.383 . S
C2046 C2045 1.379 . S
H2047 C2041 0.959 . S
H2048 C2041 0.961 . S
H2049 C2041 0.960 . S
H2050 C2042 0.930 . S
H2051 C2043 0.929 . S
H2052 C2060 0.929 . S
H2053 C2062 0.930 . S
H2054 C2064 0.930 . S
H2055 C2067 0.929 . S
H2056 C2070 0.930 . S
H2057 C2072 0.960 . S
H2058 C2072 0.960 . S
H2059 C2072 0.960 . S
C2060 H2052 0.929 . S
C2060 C2061 1.377 . S
C2060 C2062 1.384 . S
C2061 C2060 1.377 . S
C2061 C2067 1.390 . S
C2062 H2053 0.930 . S
C2062 C2060 1.384 . S
C2062 C2063 1.379 . S
C2063 C2062 1.379 . S
C2063 C2064 1.443 . S
C2063 C2068 1.443 1_565 S
C2064 H2054 0.930 . S
C2064 C2063 1.443 . S
C2064 C2067 1.386 . S
H2065 C2081 0.930 . S
H2066 C2082 0.931 . S
C2067 H2055 0.929 . S
C2067 C2061 1.390 . S
C2067 C2064 1.386 . S
C2068 C2063 1.443 1_545 S
C2068 C2070 1.395 . S
C2068 C2071 1.403 . S
H2069 C2075 0.930 . S
C2070 H2056 0.930 . S
C2070 C2068 1.395 . S
C2070 C2073 1.403 . S
C2071 C2068 1.403 . S
C2071 C2072 1.524 . S
C2071 C2075 1.400 . S
C2072 H2057 0.960 . S
C2072 H2058 0.960 . S
C2072 H2059 0.960 . S
C2072 C2071 1.524 . S
C2073 C2070 1.403 . S
C2073 C2074 1.392 . S
C2073 C2077 1.495 . S
C2074 C2073 1.392 . S
C2074 C2075 1.385 . S
C2074 C2076 1.478 . S
C2075 H2069 0.930 . S
C2075 C2071 1.400 . S
C2075 C2074 1.385 . S
C2076 C2074 1.478 . S
C2076 C2078 1.381 . S
C2076 C2082 1.383 . S
C2077 C2073 1.495 . S
C2077 H2083 0.959 . S
C2077 H2084 0.961 . S
C2077 H2085 0.960 . S
C2078 C2076 1.381 . S
C2078 C2079 1.394 . S
C2078 H2086 0.930 . S
C2079 C2078 1.394 . S
C2079 C2080 1.383 . S
C2079 H2087 0.929 . S
C2080 C2079 1.383 . S
C2080 C2081 1.377 . S
C2081 H2065 0.930 . S
C2081 C2080 1.377 . S
C2081 C2082 1.379 . S
C2082 H2066 0.931 . S
C2082 C2076 1.383 . S
C2082 C2081 1.379 . S
H2083 C2077 0.959 . S
H2084 C2077 0.961 . S
H2085 C2077 0.960 . S
H2086 C2078 0.930 . S
H2087 C2079 0.929 . S
H2088 C2096 0.929 . S
H2089 C2098 0.930 . S
H2090 C2100 0.930 . S
H2091 C2103 0.929 . S
H2092 C2106 0.930 . S
H2093 C2108 0.960 . S
H2094 C2108 0.960 . S
H2095 C2108 0.960 . S
C2096 H2088 0.929 . S
C2096 C2097 1.377 . S
C2096 C2098 1.384 . S
C2097 C2096 1.377 . S
C2097 C2103 1.390 . S
C2098 H2089 0.930 . S
C2098 C2096 1.384 . S
C2098 C2099 1.372 . S
C2099 C2098 1.372 . S
C2099 C2100 1.400 . S
C2099 C2104 1.490 . S
C2100 H2090 0.930 . S
C2100 C2099 1.400 . S
C2100 C2103 1.386 . S
H2101 C2117 0.930 . S
H2102 C2118 0.931 . S
C2103 H2091 0.929 . S
C2103 C2097 1.390 . S
C2103 C2100 1.386 . S
C2104 C2099 1.490 . S
C2104 C2106 1.395 . S
C2104 C2107 1.403 . S
H2105 C2111 0.930 . S
C2106 H2092 0.930 . S
C2106 C2104 1.395 . S
C2106 C2109 1.403 . S
C2107 C2104 1.403 . S
C2107 C2108 1.524 . S
C2107 C2111 1.400 . S
C2108 H2093 0.960 . S
C2108 H2094 0.960 . S
C2108 H2095 0.960 . S
C2108 C2107 1.524 . S
C2109 C2106 1.403 . S
C2109 C2110 1.392 . S
C2109 C2113 1.495 . S
C2110 C2109 1.392 . S
C2110 C2111 1.385 . S
C2110 C2112 1.478 . S
C2111 H2105 0.930 . S
C2111 C2107 1.400 . S
C2111 C2110 1.385 . S
C2112 C2110 1.478 . S
C2112 C2114 1.381 . S
C2112 C2118 1.383 . S
C2113 C2109 1.495 . S
C2113 H2119 0.959 . S
C2113 H2120 0.961 . S
C2113 H2121 0.960 . S
C2114 C2112 1.381 . S
C2114 C2115 1.394 . S
C2114 H2122 0.930 . S
C2115 C2114 1.394 . S
C2115 C2116 1.383 . S
C2115 H2123 0.929 . S
C2116 C2115 1.383 . S
C2116 C2117 1.377 . S
C2117 H2101 0.930 . S
C2117 C2116 1.377 . S
C2117 C2118 1.379 . S
C2118 H2102 0.931 . S
C2118 C2112 1.383 . S
C2118 C2117 1.379 . S
H2119 C2113 0.959 . S
H2120 C2113 0.961 . S
H2121 C2113 0.960 . S
H2122 C2114 0.930 . S
H2123 C2115 0.929 . S
H2124 C2132 0.929 . S
H2125 C2134 0.930 . S
H2126 C2136 0.930 . S
H2127 C2139 0.929 . S
H2128 C2142 0.930 . S
H2129 C2144 0.960 . S
H2130 C2144 0.960 . S
H2131 C2144 0.960 . S
C2132 H2124 0.929 . S
C2132 C2133 1.377 . S
C2132 C2134 1.384 . S
C2133 C2132 1.377 . S
C2133 C2139 1.390 . S
C2134 H2125 0.930 . S
C2134 C2132 1.384 . S
C2134 C2135 1.372 . S
C2135 C2134 1.372 . S
C2135 C2136 1.400 . S
C2135 C2140 1.490 . S
C2136 H2126 0.930 . S
C2136 C2135 1.400 . S
C2136 C2139 1.386 . S
H2137 C2153 0.930 . S
H2138 C2154 0.931 . S
C2139 H2127 0.929 . S
C2139 C2133 1.390 . S
C2139 C2136 1.386 . S
C2140 C2135 1.490 . S
C2140 C2142 1.395 . S
C2140 C2143 1.403 . S
H2141 C2147 0.930 . S
C2142 H2128 0.930 . S
C2142 C2140 1.395 . S
C2142 C2145 1.403 . S
C2143 C2140 1.403 . S
C2143 C2144 1.524 . S
C2143 C2147 1.400 . S
C2144 H2129 0.960 . S
C2144 H2130 0.960 . S
C2144 H2131 0.960 . S
C2144 C2143 1.524 . S
C2145 C2142 1.403 . S
C2145 C2146 1.392 . S
C2145 C2149 1.495 . S
C2146 C2145 1.392 . S
C2146 C2147 1.385 . S
C2146 C2148 1.478 . S
C2147 H2141 0.930 . S
C2147 C2143 1.400 . S
C2147 C2146 1.385 . S
C2148 C2146 1.478 . S
C2148 C2150 1.381 . S
C2148 C2154 1.383 . S
C2149 C2145 1.495 . S
C2149 H2155 0.959 . S
C2149 H2156 0.961 . S
C2149 H2157 0.960 . S
C2150 C2148 1.381 . S
C2150 C2151 1.394 . S
C2150 H2158 0.930 . S
C2151 C2150 1.394 . S
C2151 C2152 1.383 . S
C2151 H2159 0.929 . S
C2152 C2151 1.383 . S
C2152 C2153 1.377 . S
C2153 H2137 0.930 . S
C2153 C2152 1.377 . S
C2153 C2154 1.379 . S
C2154 H2138 0.931 . S
C2154 C2148 1.383 . S
C2154 C2153 1.379 . S
H2155 C2149 0.959 . S
H2156 C2149 0.961 . S
H2157 C2149 0.960 . S
H2158 C2150 0.930 . S
H2159 C2151 0.929 . S
H2160 C2168 0.929 . S
H2161 C2170 0.930 . S
H2162 C2172 0.930 . S
H2163 C2175 0.929 . S
H2164 C2178 0.930 . S
H2165 C2180 0.960 . S
H2166 C2180 0.960 . S
H2167 C2180 0.960 . S
C2168 H2160 0.929 . S
C2168 C2169 1.377 . S
C2168 C2170 1.384 . S
C2169 C2168 1.377 . S
C2169 C2175 1.390 . S
C2170 H2161 0.930 . S
C2170 C2168 1.384 . S
C2170 C2171 1.372 . S
C2171 C2170 1.372 . S
C2171 C2172 1.400 . S
C2171 C2176 1.490 . S
C2172 H2162 0.930 . S
C2172 C2171 1.400 . S
C2172 C2175 1.386 . S
H2173 C2189 0.930 . S
H2174 C2190 0.931 . S
C2175 H2163 0.929 . S
C2175 C2169 1.390 . S
C2175 C2172 1.386 . S
C2176 C2171 1.490 . S
C2176 C2178 1.395 . S
C2176 C2179 1.403 . S
H2177 C2183 0.930 . S
C2178 H2164 0.930 . S
C2178 C2176 1.395 . S
C2178 C2181 1.403 . S
C2179 C2176 1.403 . S
C2179 C2180 1.524 . S
C2179 C2183 1.400 . S
C2180 H2165 0.960 . S
C2180 H2166 0.960 . S
C2180 H2167 0.960 . S
C2180 C2179 1.524 . S
C2181 C2178 1.403 . S
C2181 C2182 1.392 . S
C2181 C2185 1.495 . S
C2182 C2181 1.392 . S
C2182 C2183 1.385 . S
C2182 C2184 1.478 . S
C2183 H2177 0.930 . S
C2183 C2179 1.400 . S
C2183 C2182 1.385 . S
C2184 C2182 1.478 . S
C2184 C2186 1.381 . S
C2184 C2190 1.383 . S
C2185 C2181 1.495 . S
C2185 H2191 0.959 . S
C2185 H2192 0.961 . S
C2185 H2193 0.960 . S
C2186 C2184 1.381 . S
C2186 C2187 1.394 . S
C2186 H2194 0.930 . S
C2187 C2186 1.394 . S
C2187 C2188 1.383 . S
C2187 H2195 0.929 . S
C2188 C2187 1.383 . S
C2188 C2189 1.377 . S
C2189 H2173 0.930 . S
C2189 C2188 1.377 . S
C2189 C2190 1.379 . S
C2190 H2174 0.931 . S
C2190 C2184 1.383 . S
C2190 C2189 1.379 . S
H2191 C2185 0.959 . S
H2192 C2185 0.961 . S
H2193 C2185 0.960 . S
H2194 C2186 0.930 . S
H2195 C2187 0.929 . S
H2196 C2204 0.929 . S
H2197 C2206 0.930 . S
H2198 C2208 0.930 . S
H2199 C2211 0.929 . S
H2200 C2214 0.930 . S
H2201 C2216 0.960 . S
H2202 C2216 0.960 . S
H2203 C2216 0.960 . S
C2204 H2196 0.929 . S
C2204 C2205 1.377 . S
C2204 C2206 1.384 . S
C2205 C2204 1.377 . S
C2205 C2211 1.390 . S
C2206 H2197 0.930 . S
C2206 C2204 1.384 . S
C2206 C2207 1.372 . S
C2207 C2206 1.372 . S
C2207 C2208 1.400 . S
C2207 C2212 1.490 . S
C2208 H2198 0.930 . S
C2208 C2207 1.400 . S
C2208 C2211 1.386 . S
H2209 C2225 0.930 . S
H2210 C2226 0.931 . S
C2211 H2199 0.929 . S
C2211 C2205 1.390 . S
C2211 C2208 1.386 . S
C2212 C2207 1.490 . S
C2212 C2214 1.395 . S
C2212 C2215 1.403 . S
H2213 C2219 0.930 . S
C2214 H2200 0.930 . S
C2214 C2212 1.395 . S
C2214 C2217 1.403 . S
C2215 C2212 1.403 . S
C2215 C2216 1.524 . S
C2215 C2219 1.400 . S
C2216 H2201 0.960 . S
C2216 H2202 0.960 . S
C2216 H2203 0.960 . S
C2216 C2215 1.524 . S
C2217 C2214 1.403 . S
C2217 C2218 1.392 . S
C2217 C2221 1.495 . S
C2218 C2217 1.392 . S
C2218 C2219 1.385 . S
C2218 C2220 1.478 . S
C2219 H2213 0.930 . S
C2219 C2215 1.400 . S
C2219 C2218 1.385 . S
C2220 C2218 1.478 . S
C2220 C2222 1.381 . S
C2220 C2226 1.383 1_565 S
C2221 C2217 1.495 . S
C2221 H2227 0.959 . S
C2221 H2228 0.961 . S
C2221 H2229 0.960 . S
C2222 C2220 1.381 . S
C2222 C2223 1.394 . S
C2222 H2230 0.930 . S
C2223 C2222 1.394 . S
C2223 C2224 1.383 . S
C2223 H2231 0.929 . S
C2224 C2223 1.383 . S
C2224 C2225 1.377 1_565 S
C2225 H2209 0.930 . S
C2225 C2224 1.377 1_545 S
C2225 C2226 1.379 . S
C2226 H2210 0.931 . S
C2226 C2220 1.383 1_545 S
C2226 C2225 1.379 . S
H2227 C2221 0.959 . S
H2228 C2221 0.961 . S
H2229 C2221 0.960 . S
H2230 C2222 0.930 . S
H2231 C2223 0.929 . S
H2232 C2240 0.929 . S
H2233 C2242 0.930 1_655 S
H2234 C2244 0.930 . S
H2235 C2247 0.929 . S
H2236 C2250 0.930 . S
H2237 C2252 0.960 . S
H2238 C2252 0.960 . S
H2239 C2252 0.960 . S
C2240 H2232 0.929 . S
C2240 C2241 1.377 . S
C2240 C2242 1.384 . S
C2241 C2240 1.377 . S
C2241 C2247 1.390 . S
C2242 H2233 0.930 1_455 S
C2242 C2240 1.384 . S
C2242 C2243 1.372 . S
C2243 C2242 1.372 . S
C2243 C2244 1.400 . S
C2243 C2248 1.490 . S
C2244 H2234 0.930 . S
C2244 C2243 1.400 . S
C2244 C2247 1.386 . S
H2245 C2261 0.930 . S
H2246 C2262 0.931 . S
C2247 H2235 0.929 . S
C2247 C2241 1.390 . S
C2247 C2244 1.386 . S
C2248 C2243 1.490 . S
C2248 C2250 1.395 . S
C2248 C2251 1.403 . S
H2249 C2255 0.930 . S
C2250 H2236 0.930 . S
C2250 C2248 1.395 . S
C2250 C2253 1.403 . S
C2251 C2248 1.403 . S
C2251 C2252 1.524 . S
C2251 C2255 1.400 . S
C2252 H2237 0.960 . S
C2252 H2238 0.960 . S
C2252 H2239 0.960 . S
C2252 C2251 1.524 . S
C2253 C2250 1.403 . S
C2253 C2254 1.392 . S
C2253 C2257 1.495 1_455 S
C2254 C2253 1.392 . S
C2254 C2255 1.385 . S
C2254 C2256 1.478 . S
C2255 H2249 0.930 . S
C2255 C2251 1.400 . S
C2255 C2254 1.385 . S
C2256 C2254 1.478 . S
C2256 C2258 1.381 1_455 S
C2256 C2262 1.383 . S
C2257 C2253 1.495 1_655 S
C2257 H2263 0.959 . S
C2257 H2264 0.961 . S
C2257 H2265 0.960 . S
C2258 C2256 1.381 1_655 S
C2258 C2259 1.394 . S
C2258 H2266 0.930 . S
C2259 C2258 1.394 . S
C2259 C2260 1.383 1_655 S
C2259 H2267 0.929 . S
C2260 C2259 1.383 1_455 S
C2260 C2261 1.377 . S
C2261 H2245 0.930 . S
C2261 C2260 1.377 . S
C2261 C2262 1.379 . S
C2262 H2246 0.931 . S
C2262 C2256 1.383 . S
C2262 C2261 1.379 . S
H2263 C2257 0.959 . S
H2264 C2257 0.961 . S
H2265 C2257 0.960 . S
H2266 C2258 0.930 . S
H2267 C2259 0.929 . S
H2268 C2276 0.929 . S
H2269 C2278 0.930 . S
H2270 C2280 0.930 . S
H2271 C2283 0.929 . S
H2272 C2286 0.930 . S
H2273 C2288 0.960 . S
H2274 C2288 0.960 . S
H2275 C2288 0.960 . S
C2276 H2268 0.929 . S
C2276 C2277 1.377 . S
C2276 C2278 1.384 . S
C2277 C2276 1.377 . S
C2277 C2283 1.390 . S
C2278 H2269 0.930 . S
C2278 C2276 1.384 . S
C2278 C2279 1.372 . S
C2279 C2278 1.372 . S
C2279 C2280 1.400 . S
C2279 C2284 1.490 . S
C2280 H2270 0.930 . S
C2280 C2279 1.400 . S
C2280 C2283 1.386 . S
H2281 C2297 0.930 . S
H2282 C2298 0.931 . S
C2283 H2271 0.929 . S
C2283 C2277 1.390 . S
C2283 C2280 1.386 . S
C2284 C2279 1.490 . S
C2284 C2286 1.395 . S
C2284 C2287 1.403 . S
H2285 C2291 0.930 . S
C2286 H2272 0.930 . S
C2286 C2284 1.395 . S
C2286 C2289 1.403 . S
C2287 C2284 1.403 . S
C2287 C2288 1.524 . S
C2287 C2291 1.400 . S
C2288 H2273 0.960 . S
C2288 H2274 0.960 . S
C2288 H2275 0.960 . S
C2288 C2287 1.524 . S
C2289 C2286 1.403 . S
C2289 C2290 1.392 . S
C2289 C2293 1.495 . S
C2290 C2289 1.392 . S
C2290 C2291 1.385 . S
C2290 C2292 1.478 . S
C2291 H2285 0.930 . S
C2291 C2287 1.400 . S
C2291 C2290 1.385 . S
C2292 C2290 1.478 . S
C2292 C2294 1.381 . S
C2292 C2298 1.383 . S
C2293 C2289 1.495 . S
C2293 H2299 0.959 . S
C2293 H2300 0.961 . S
C2293 H2301 0.960 . S
C2294 C2292 1.381 . S
C2294 C2295 1.394 . S
C2294 H2302 0.930 . S
C2295 C2294 1.394 . S
C2295 C2296 1.383 . S
C2295 H2303 0.929 . S
C2296 C2295 1.383 . S
C2296 C2297 1.377 . S
C2297 H2281 0.930 . S
C2297 C2296 1.377 . S
C2297 C2298 1.379 . S
C2298 H2282 0.931 . S
C2298 C2292 1.383 . S
C2298 C2297 1.379 . S
H2299 C2293 0.959 . S
H2300 C2293 0.961 . S
H2301 C2293 0.960 . S
H2302 C2294 0.930 . S
H2303 C2295 0.929 . S
H2304 C2312 0.929 . S
H2305 C2314 0.930 . S
H2306 C2316 0.930 . S
H2307 C2319 0.929 . S
H2308 C2322 0.930 . S
H2309 C2324 0.960 . S
H2310 C2324 0.960 . S
H2311 C2324 0.960 . S
C2312 H2304 0.929 . S
C2312 C2313 1.377 . S
C2312 C2314 1.384 . S
C2313 C2312 1.377 . S
C2313 C2319 1.390 . S
C2314 H2305 0.930 . S
C2314 C2312 1.384 . S
C2314 C2315 1.372 . S
C2315 C2314 1.372 . S
C2315 C2316 1.400 . S
C2315 C2320 1.490 . S
C2316 H2306 0.930 . S
C2316 C2315 1.400 . S
C2316 C2319 1.386 . S
H2317 C2333 0.930 . S
H2318 C2334 0.931 . S
C2319 H2307 0.929 . S
C2319 C2313 1.390 . S
C2319 C2316 1.386 . S
C2320 C2315 1.490 . S
C2320 C2322 1.395 . S
C2320 C2323 1.403 . S
H2321 C2327 0.930 1_455 S
C2322 H2308 0.930 . S
C2322 C2320 1.395 . S
C2322 C2325 1.403 . S
C2323 C2320 1.403 . S
C2323 C2324 1.524 1_655 S
C2323 C2327 1.400 . S
C2324 H2309 0.960 . S
C2324 H2310 0.960 . S
C2324 H2311 0.960 . S
C2324 C2323 1.524 1_455 S
C2325 C2322 1.403 . S
C2325 C2326 1.392 . S
C2325 C2329 1.495 . S
C2326 C2325 1.392 . S
C2326 C2327 1.385 . S
C2326 C2328 1.478 . S
C2327 H2321 0.930 1_655 S
C2327 C2323 1.400 . S
C2327 C2326 1.385 . S
C2328 C2326 1.478 . S
C2328 C2330 1.381 . S
C2328 C2334 1.383 . S
C2329 C2325 1.495 . S
C2329 H2335 0.959 . S
C2329 H2336 0.961 . S
C2329 H2337 0.960 . S
C2330 C2328 1.381 . S
C2330 C2331 1.394 . S
C2330 H2338 0.930 . S
C2331 C2330 1.394 . S
C2331 C2332 1.383 . S
C2331 H2339 0.929 1_655 S
C2332 C2331 1.383 . S
C2332 C2333 1.377 . S
C2333 H2317 0.930 . S
C2333 C2332 1.377 . S
C2333 C2334 1.379 . S
C2334 H2318 0.931 . S
C2334 C2328 1.383 . S
C2334 C2333 1.379 . S
H2335 C2329 0.959 . S
H2336 C2329 0.961 . S
H2337 C2329 0.960 . S
H2338 C2330 0.930 . S
H2339 C2331 0.929 1_455 S
H2340 C2348 0.929 . S
H2341 C2350 0.930 . S
H2342 C2352 0.930 . S
H2343 C2355 0.929 . S
H2344 C2358 0.930 . S
H2345 C2360 0.960 . S
H2346 C2360 0.960 . S
H2347 C2360 0.960 . S
C2348 H2340 0.929 . S
C2348 C2349 1.377 . S
C2348 C2350 1.384 . S
C2349 C2348 1.377 . S
C2349 C2355 1.390 . S
C2350 H2341 0.930 . S
C2350 C2348 1.384 . S
C2350 C2351 1.372 . S
C2351 C2350 1.372 . S
C2351 C2352 1.400 . S
C2351 C2356 1.490 . S
C2352 H2342 0.930 . S
C2352 C2351 1.400 . S
C2352 C2355 1.386 . S
H2353 C2369 0.930 . S
H2354 C2370 0.931 . S
C2355 H2343 0.929 . S
C2355 C2349 1.390 . S
C2355 C2352 1.386 . S
C2356 C2351 1.490 . S
C2356 C2358 1.395 . S
C2356 C2359 1.403 . S
H2357 C2363 0.930 . S
C2358 H2344 0.930 . S
C2358 C2356 1.395 . S
C2358 C2361 1.403 . S
C2359 C2356 1.403 . S
C2359 C2360 1.524 . S
C2359 C2363 1.400 . S
C2360 H2345 0.960 . S
C2360 H2346 0.960 . S
C2360 H2347 0.960 . S
C2360 C2359 1.524 . S
C2361 C2358 1.403 . S
C2361 C2362 1.392 . S
C2361 C2365 1.495 . S
C2362 C2361 1.392 . S
C2362 C2363 1.385 . S
C2362 C2364 1.478 . S
C2363 H2357 0.930 . S
C2363 C2359 1.400 . S
C2363 C2362 1.385 . S
C2364 C2362 1.478 . S
C2364 C2366 1.381 . S
C2364 C2370 1.383 . S
C2365 C2361 1.495 . S
C2365 H2371 0.959 . S
C2365 H2372 0.961 . S
C2365 H2373 0.960 . S
C2366 C2364 1.381 . S
C2366 C2367 1.394 . S
C2366 H2374 0.930 . S
C2367 C2366 1.394 . S
C2367 C2368 1.383 . S
C2367 H2375 0.929 . S
C2368 C2367 1.383 . S
C2368 C2369 1.377 . S
C2369 H2353 0.930 . S
C2369 C2368 1.377 . S
C2369 C2370 1.379 . S
C2370 H2354 0.931 . S
C2370 C2364 1.383 . S
C2370 C2369 1.379 . S
H2371 C2365 0.959 . S
H2372 C2365 0.961 . S
H2373 C2365 0.960 . S
H2374 C2366 0.930 . S
H2375 C2367 0.929 . S
H2376 C2384 0.929 . S
H2377 C2386 0.930 . S
H2378 C2388 0.930 . S
H2379 C2391 0.929 . S
H2380 C2394 0.930 . S
H2381 C2396 0.960 . S
H2382 C2396 0.960 . S
H2383 C2396 0.960 . S
C2384 H2376 0.929 . S
C2384 C2385 1.377 . S
C2384 C2386 1.384 . S
C2385 C2384 1.377 . S
C2385 C2391 1.390 . S
C2386 H2377 0.930 . S
C2386 C2384 1.384 . S
C2386 C2387 1.372 . S
C2387 C2386 1.372 . S
C2387 C2388 1.400 . S
C2387 C2392 1.490 . S
C2388 H2378 0.930 . S
C2388 C2387 1.400 . S
C2388 C2391 1.386 . S
H2389 C2405 0.930 . S
H2390 C2406 0.931 . S
C2391 H2379 0.929 . S
C2391 C2385 1.390 . S
C2391 C2388 1.386 . S
C2392 C2387 1.490 . S
C2392 C2394 1.395 . S
C2392 C2395 1.403 . S
H2393 C2399 0.930 . S
C2394 H2380 0.930 . S
C2394 C2392 1.395 . S
C2394 C2397 1.403 . S
C2395 C2392 1.403 . S
C2395 C2396 1.524 . S
C2395 C2399 1.400 . S
C2396 H2381 0.960 . S
C2396 H2382 0.960 . S
C2396 H2383 0.960 . S
C2396 C2395 1.524 . S
C2397 C2394 1.403 . S
C2397 C2398 1.392 . S
C2397 C2401 1.495 1_545 S
C2398 C2397 1.392 . S
C2398 C2399 1.385 . S
C2398 C2400 1.478 . S
C2399 H2393 0.930 . S
C2399 C2395 1.400 . S
C2399 C2398 1.385 . S
C2400 C2398 1.478 . S
C2400 C2402 1.381 . S
C2400 C2406 1.383 . S
C2401 C2397 1.495 1_565 S
C2401 H2407 0.959 . S
C2401 H2408 0.961 . S
C2401 H2409 0.960 . S
C2402 C2400 1.381 . S
C2402 C2403 1.394 . S
C2402 H2410 0.930 . S
C2403 C2402 1.394 . S
C2403 C2404 1.383 . S
C2403 H2411 0.921 . S
C2404 C2403 1.383 . S
C2404 C2405 1.377 . S
C2405 H2389 0.930 . S
C2405 C2404 1.377 . S
C2405 C2406 1.379 . S
C2406 H2390 0.931 . S
C2406 C2400 1.383 . S
C2406 C2405 1.379 . S
H2407 C2401 0.959 . S
H2408 C2401 0.961 . S
H2409 C2401 0.960 . S
H2410 C2402 0.930 . S
H2411 C2403 0.921 . S
H2412 C2420 0.929 . S
H2413 C2422 0.930 . S
H2414 C2424 0.930 . S
H2415 C2427 0.929 . S
H2416 C2430 0.930 . S
H2417 C2432 0.960 . S
H2418 C2432 0.960 . S
H2419 C2432 0.960 . S
C2420 H2412 0.929 . S
C2420 C2421 1.377 . S
C2420 C2422 1.384 . S
C2421 C2420 1.377 . S
C2421 C2427 1.390 . S
C2422 H2413 0.930 . S
C2422 C2420 1.384 . S
C2422 C2423 1.372 . S
C2423 C2422 1.372 . S
C2423 C2424 1.400 . S
C2423 C2428 1.490 . S
C2424 H2414 0.930 . S
C2424 C2423 1.400 . S
C2424 C2427 1.386 . S
H2425 C2441 0.930 . S
H2426 C2442 0.931 . S
C2427 H2415 0.929 . S
C2427 C2421 1.390 . S
C2427 C2424 1.386 . S
C2428 C2423 1.490 . S
C2428 C2430 1.395 . S
C2428 C2431 1.403 . S
H2429 C2435 0.930 . S
C2430 H2416 0.930 . S
C2430 C2428 1.395 . S
C2430 C2433 1.403 . S
C2431 C2428 1.403 . S
C2431 C2432 1.524 . S
C2431 C2435 1.400 . S
C2432 H2417 0.960 . S
C2432 H2418 0.960 . S
C2432 H2419 0.960 . S
C2432 C2431 1.524 . S
C2433 C2430 1.403 . S
C2433 C2434 1.392 . S
C2433 C2437 1.495 . S
C2434 C2433 1.392 . S
C2434 C2435 1.385 . S
C2434 C2436 1.478 . S
C2435 H2429 0.930 . S
C2435 C2431 1.400 . S
C2435 C2434 1.385 . S
C2436 C2434 1.478 . S
C2436 C2438 1.381 . S
C2436 C2442 1.383 . S
C2437 C2433 1.495 . S
C2437 H2443 0.959 . S
C2437 H2444 0.961 . S
C2437 H2445 0.960 . S
C2438 C2436 1.381 . S
C2438 C2439 1.394 . S
C2438 H2446 0.930 . S
C2439 C2438 1.394 . S
C2439 C2440 1.383 . S
C2439 H2447 0.929 . S
C2440 C2439 1.383 . S
C2440 C2441 1.377 . S
C2441 H2425 0.930 . S
C2441 C2440 1.377 . S
C2441 C2442 1.379 . S
C2442 H2426 0.931 . S
C2442 C2436 1.383 . S
C2442 C2441 1.379 . S
H2443 C2437 0.959 . S
H2444 C2437 0.961 . S
H2445 C2437 0.960 . S
H2446 C2438 0.930 . S
H2447 C2439 0.929 . S
H2448 C2456 0.929 . S
H2449 C2458 0.930 . S
H2450 C2460 0.930 . S
H2451 C2463 0.929 . S
H2452 C2466 0.930 . S
H2453 C2468 0.960 . S
H2454 C2468 0.960 . S
H2455 C2468 0.960 . S
C2456 H2448 0.929 . S
C2456 C2457 1.377 . S
C2456 C2458 1.384 . S
C2457 C2456 1.377 . S
C2457 C2463 1.390 . S
C2458 H2449 0.930 . S
C2458 C2456 1.384 . S
C2458 C2459 1.372 . S
C2459 C2458 1.372 . S
C2459 C2460 1.400 . S
C2459 C2464 1.490 . S
C2460 H2450 0.930 . S
C2460 C2459 1.400 . S
C2460 C2463 1.386 . S
H2461 C2477 0.930 . S
H2462 C2478 0.931 . S
C2463 H2451 0.929 . S
C2463 C2457 1.390 . S
C2463 C2460 1.386 . S
C2464 C2459 1.490 . S
C2464 C2466 1.395 . S
C2464 C2467 1.403 . S
H2465 C2471 0.930 . S
C2466 H2452 0.930 . S
C2466 C2464 1.395 . S
C2466 C2469 1.403 . S
C2467 C2464 1.403 . S
C2467 C2468 1.524 . S
C2467 C2471 1.400 . S
C2468 H2453 0.960 . S
C2468 H2454 0.960 . S
C2468 H2455 0.960 . S
C2468 C2467 1.524 . S
C2469 C2466 1.403 . S
C2469 C2470 1.392 . S
C2469 C2473 1.495 . S
C2470 C2469 1.392 . S
C2470 C2471 1.385 . S
C2470 C2472 1.478 . S
C2471 H2465 0.930 . S
C2471 C2467 1.400 . S
C2471 C2470 1.385 . S
C2472 C2470 1.478 . S
C2472 C2474 1.381 . S
C2472 C2478 1.383 . S
C2473 C2469 1.495 . S
C2473 H2479 0.959 . S
C2473 H2480 0.961 . S
C2473 H2481 0.960 . S
C2474 C2472 1.381 . S
C2474 C2475 1.394 . S
C2474 H2482 0.930 . S
C2475 C2474 1.394 . S
C2475 C2476 1.383 . S
C2475 H2483 0.929 . S
C2476 C2475 1.383 . S
C2476 C2477 1.377 . S
C2477 H2461 0.930 . S
C2477 C2476 1.377 . S
C2477 C2478 1.379 . S
C2478 H2462 0.931 . S
C2478 C2472 1.383 . S
C2478 C2477 1.379 . S
H2479 C2473 0.959 . S
H2480 C2473 0.961 . S
H2481 C2473 0.960 . S
H2482 C2474 0.930 . S
H2483 C2475 0.929 . S
H2484 C2492 0.929 . S
H2485 C2494 0.930 . S
H2486 C2496 0.930 . S
H2487 C2499 0.929 . S
H2488 C2502 0.930 . S
H2489 C2504 0.960 . S
H2490 C2504 0.960 . S
H2491 C2504 0.960 . S
C2492 H2484 0.929 . S
C2492 C2493 1.377 . S
C2492 C2494 1.384 . S
C2493 C2492 1.377 . S
C2493 C2499 1.390 . S
C2494 H2485 0.930 . S
C2494 C2492 1.384 . S
C2494 C2495 1.372 . S
C2495 C2494 1.372 . S
C2495 C2496 1.400 . S
C2495 C2500 1.490 . S
C2496 H2486 0.930 . S
C2496 C2495 1.400 . S
C2496 C2499 1.386 . S
H2497 C2513 0.930 . S
H2498 C2514 0.931 . S
C2499 H2487 0.929 . S
C2499 C2493 1.390 . S
C2499 C2496 1.386 . S
C2500 C2495 1.490 . S
C2500 C2502 1.395 . S
C2500 C2503 1.403 . S
H2501 C2507 0.930 . S
C2502 H2488 0.930 . S
C2502 C2500 1.395 . S
C2502 C2505 1.403 . S
C2503 C2500 1.403 . S
C2503 C2504 1.524 . S
C2503 C2507 1.400 . S
C2504 H2489 0.960 . S
C2504 H2490 0.960 . S
C2504 H2491 0.960 . S
C2504 C2503 1.524 . S
C2505 C2502 1.403 . S
C2505 C2506 1.392 . S
C2505 C2509 1.495 . S
C2506 C2505 1.392 . S
C2506 C2507 1.385 . S
C2506 C2508 1.478 . S
C2507 H2501 0.930 . S
C2507 C2503 1.400 . S
C2507 C2506 1.385 . S
C2508 C2506 1.478 . S
C2508 C2510 1.381 . S
C2508 C2514 1.383 . S
C2509 C2505 1.495 . S
C2509 H2515 0.959 . S
C2509 H2516 0.961 . S
C2509 H2517 0.960 . S
C2510 C2508 1.381 . S
C2510 C2511 1.394 . S
C2510 H2518 0.930 . S
C2511 C2510 1.394 . S
C2511 C2512 1.383 . S
C2511 H2519 0.929 . S
C2512 C2511 1.383 . S
C2512 C2513 1.377 . S
C2513 H2497 0.930 . S
C2513 C2512 1.377 . S
C2513 C2514 1.379 . S
C2514 H2498 0.931 . S
C2514 C2508 1.383 . S
C2514 C2513 1.379 . S
H2515 C2509 0.959 . S
H2516 C2509 0.961 . S
H2517 C2509 0.960 . S
H2518 C2510 0.930 . S
H2519 C2511 0.929 . S
H2520 C2528 0.929 . S
H2521 C2530 0.930 . S
H2522 C2532 0.930 . S
H2523 C2535 0.929 . S
H2524 C2538 0.930 . S
H2525 C2540 0.960 . S
H2526 C2540 0.960 . S
H2527 C2540 0.960 . S
C2528 H2520 0.929 . S
C2528 C2529 1.377 . S
C2528 C2530 1.384 . S
C2529 C2528 1.377 . S
C2529 C2535 1.390 . S
C2530 H2521 0.930 . S
C2530 C2528 1.384 . S
C2530 C2531 1.372 . S
C2531 C2530 1.372 . S
C2531 C2532 1.400 . S
C2531 C2536 1.490 . S
C2532 H2522 0.930 . S
C2532 C2531 1.400 . S
C2532 C2535 1.386 . S
H2533 C2549 0.930 . S
H2534 C2550 0.931 . S
C2535 H2523 0.929 . S
C2535 C2529 1.390 . S
C2535 C2532 1.386 . S
C2536 C2531 1.490 . S
C2536 C2538 1.395 . S
C2536 C2539 1.403 . S
H2537 C2543 0.930 . S
C2538 H2524 0.930 . S
C2538 C2536 1.395 . S
C2538 C2541 1.403 . S
C2539 C2536 1.403 . S
C2539 C2540 1.524 . S
C2539 C2543 1.400 . S
C2540 H2525 0.960 . S
C2540 H2526 0.960 . S
C2540 H2527 0.960 . S
C2540 C2539 1.524 . S
C2541 C2538 1.403 . S
C2541 C2542 1.392 . S
C2541 C2545 1.495 . S
C2542 C2541 1.392 . S
C2542 C2543 1.385 . S
C2542 C2544 1.478 . S
C2543 H2537 0.930 . S
C2543 C2539 1.400 . S
C2543 C2542 1.385 . S
C2544 C2542 1.478 . S
C2544 C2546 1.381 . S
C2544 C2550 1.383 . S
C2545 C2541 1.495 . S
C2545 H2551 0.959 . S
C2545 H2552 0.961 . S
C2545 H2553 0.960 . S
C2546 C2544 1.381 . S
C2546 C2547 1.394 . S
C2546 H2554 0.930 . S
C2547 C2546 1.394 . S
C2547 C2548 1.383 . S
C2547 H2555 0.929 . S
C2548 C2547 1.383 . S
C2548 C2549 1.377 . S
C2549 H2533 0.930 . S
C2549 C2548 1.377 . S
C2549 C2550 1.379 . S
C2550 H2534 0.931 . S
C2550 C2544 1.383 . S
C2550 C2549 1.379 . S
H2551 C2545 0.959 . S
H2552 C2545 0.961 . S
H2553 C2545 0.960 . S
H2554 C2546 0.930 . S
H2555 C2547 0.929 . S
H2556 C2564 0.929 . S
H2557 C2566 0.930 . S
H2558 C2568 0.930 . S
H2559 C2571 0.929 . S
H2560 C2574 0.930 . S
H2561 C2576 0.960 . S
H2562 C2576 0.960 . S
H2563 C2576 0.960 . S
C2564 H2556 0.929 . S
C2564 C2565 1.377 . S
C2564 C2566 1.384 . S
C2565 C2564 1.377 . S
C2565 C2571 1.390 . S
C2566 H2557 0.930 . S
C2566 C2564 1.384 . S
C2566 C2567 1.372 . S
C2567 C2566 1.372 . S
C2567 C2568 1.400 . S
C2567 C2572 1.490 . S
C2568 H2558 0.930 . S
C2568 C2567 1.400 . S
C2568 C2571 1.386 . S
H2569 C2585 0.930 . S
H2570 C2586 0.931 . S
C2571 H2559 0.929 . S
C2571 C2565 1.390 . S
C2571 C2568 1.386 . S
C2572 C2567 1.490 . S
C2572 C2574 1.395 . S
C2572 C2575 1.403 . S
H2573 C2579 0.930 . S
C2574 H2560 0.930 . S
C2574 C2572 1.395 . S
C2574 C2577 1.403 . S
C2575 C2572 1.403 . S
C2575 C2576 1.524 . S
C2575 C2579 1.400 . S
C2576 H2561 0.960 . S
C2576 H2562 0.960 . S
C2576 H2563 0.960 . S
C2576 C2575 1.524 . S
C2577 C2574 1.403 . S
C2577 C2578 1.392 . S
C2577 C2581 1.495 . S
C2578 C2577 1.392 . S
C2578 C2579 1.385 . S
C2578 C2580 1.478 . S
C2579 H2573 0.930 . S
C2579 C2575 1.400 . S
C2579 C2578 1.385 . S
C2580 C2578 1.478 . S
C2580 C2582 1.381 . S
C2580 C2586 1.383 . S
C2581 C2577 1.495 . S
C2581 H2587 0.959 . S
C2581 H2588 0.961 . S
C2581 H2589 0.960 . S
C2582 C2580 1.381 . S
C2582 C2583 1.394 . S
C2582 H2590 0.930 . S
C2583 C2582 1.394 . S
C2583 C2584 1.383 . S
C2583 H2591 0.929 . S
C2584 C2583 1.383 . S
C2584 C2585 1.377 . S
C2585 H2569 0.930 . S
C2585 C2584 1.377 . S
C2585 C2586 1.379 . S
C2586 H2570 0.931 . S
C2586 C2580 1.383 . S
C2586 C2585 1.379 . S
H2587 C2581 0.959 . S
H2588 C2581 0.961 . S
H2589 C2581 0.960 . S
H2590 C2582 0.930 . S
H2591 C2583 0.929 . S
H2592 C2600 0.929 . S
H2593 C2602 0.930 . S
H2594 C2604 0.930 . S
H2595 C2607 0.929 . S
H2596 C2610 0.930 . S
H2597 C2612 0.960 . S
H2598 C2612 0.960 . S
H2599 C2612 0.960 . S
C2600 H2592 0.929 . S
C2600 C2601 1.377 . S
C2600 C2602 1.384 . S
C2601 C2600 1.377 . S
C2601 C2607 1.390 . S
C2602 H2593 0.930 . S
C2602 C2600 1.384 . S
C2602 C2603 1.372 . S
C2603 C2602 1.372 . S
C2603 C2604 1.400 . S
C2603 C2608 1.490 . S
C2604 H2594 0.930 . S
C2604 C2603 1.400 . S
C2604 C2607 1.386 . S
H2605 C2621 0.930 . S
H2606 C2622 0.931 . S
C2607 H2595 0.929 . S
C2607 C2601 1.390 . S
C2607 C2604 1.386 . S
C2608 C2603 1.490 . S
C2608 C2610 1.395 . S
C2608 C2611 1.403 . S
H2609 C2615 0.930 . S
C2610 H2596 0.930 . S
C2610 C2608 1.395 . S
C2610 C2613 1.403 . S
C2611 C2608 1.403 . S
C2611 C2612 1.524 . S
C2611 C2615 1.400 . S
C2612 H2597 0.960 . S
C2612 H2598 0.960 . S
C2612 H2599 0.960 . S
C2612 C2611 1.524 . S
C2613 C2610 1.403 . S
C2613 C2614 1.392 . S
C2613 C2617 1.495 . S
C2614 C2613 1.392 . S
C2614 C2615 1.385 . S
C2614 C2616 1.478 . S
C2615 H2609 0.930 . S
C2615 C2611 1.400 . S
C2615 C2614 1.385 . S
C2616 C2614 1.478 . S
C2616 C2618 1.381 . S
C2616 C2622 1.383 . S
C2617 C2613 1.495 . S
C2617 H2623 0.959 . S
C2617 H2624 0.961 . S
C2617 H2625 0.960 . S
C2618 C2616 1.381 . S
C2618 C2619 1.394 . S
C2618 H2626 0.930 . S
C2619 C2618 1.394 . S
C2619 C2620 1.383 . S
C2619 H2627 0.929 . S
C2620 C2619 1.383 . S
C2620 C2621 1.377 . S
C2621 H2605 0.930 . S
C2621 C2620 1.377 . S
C2621 C2622 1.379 . S
C2622 H2606 0.931 . S
C2622 C2616 1.383 . S
C2622 C2621 1.379 . S
H2623 C2617 0.959 . S
H2624 C2617 0.961 . S
H2625 C2617 0.960 . S
H2626 C2618 0.930 . S
H2627 C2619 0.929 . S
H2628 C2636 0.929 . S
H2629 C2638 0.930 . S
H2630 C2640 0.930 . S
H2631 C2643 0.929 . S
H2632 C2646 0.930 . S
H2633 C2648 0.960 . S
H2634 C2648 0.960 . S
H2635 C2648 0.960 . S
C2636 H2628 0.929 . S
C2636 C2637 1.377 . S
C2636 C2638 1.384 . S
C2637 C2636 1.377 . S
C2637 C2643 1.390 . S
C2638 H2629 0.930 . S
C2638 C2636 1.384 . S
C2638 C2639 1.372 . S
C2639 C2638 1.372 . S
C2639 C2640 1.400 . S
C2639 C2644 1.490 . S
C2640 H2630 0.930 . S
C2640 C2639 1.400 . S
C2640 C2643 1.386 . S
H2641 C2657 0.930 . S
H2642 C2658 0.931 . S
C2643 H2631 0.929 . S
C2643 C2637 1.390 . S
C2643 C2640 1.386 . S
C2644 C2639 1.490 . S
C2644 C2646 1.395 . S
C2644 C2647 1.403 . S
H2645 C2651 0.930 . S
C2646 H2632 0.930 . S
C2646 C2644 1.395 . S
C2646 C2649 1.403 . S
C2647 C2644 1.403 . S
C2647 C2648 1.524 . S
C2647 C2651 1.400 . S
C2648 H2633 0.960 . S
C2648 H2634 0.960 . S
C2648 H2635 0.960 . S
C2648 C2647 1.524 . S
C2649 C2646 1.403 . S
C2649 C2650 1.392 . S
C2649 C2653 1.495 . S
C2650 C2649 1.392 . S
C2650 C2651 1.385 . S
C2650 C2652 1.478 . S
C2651 H2645 0.930 . S
C2651 C2647 1.400 . S
C2651 C2650 1.385 . S
C2652 C2650 1.478 . S
C2652 C2654 1.381 . S
C2652 C2658 1.383 . S
C2653 C2649 1.495 . S
C2653 H2659 0.959 . S
C2653 H2660 0.961 . S
C2653 H2661 0.960 . S
C2654 C2652 1.381 . S
C2654 C2655 1.394 . S
C2654 H2662 0.930 . S
C2655 C2654 1.394 . S
C2655 C2656 1.383 . S
C2655 H2663 0.929 . S
C2656 C2655 1.383 . S
C2656 C2657 1.377 . S
C2657 H2641 0.930 . S
C2657 C2656 1.377 . S
C2657 C2658 1.379 . S
C2658 H2642 0.931 . S
C2658 C2652 1.383 . S
C2658 C2657 1.379 . S
H2659 C2653 0.959 . S
H2660 C2653 0.961 . S
H2661 C2653 0.960 . S
H2662 C2654 0.930 . S
H2663 C2655 0.929 . S
H2664 C2672 0.929 . S
H2665 C2674 0.930 . S
H2666 C2676 0.930 . S
H2667 C2679 0.929 . S
H2668 C2682 0.930 . S
H2669 C2684 0.960 . S
H2670 C2684 0.960 . S
H2671 C2684 0.960 . S
C2672 H2664 0.929 . S
C2672 C2673 1.377 . S
C2672 C2674 1.384 . S
C2673 C2672 1.377 . S
C2673 C2679 1.390 . S
C2674 H2665 0.930 . S
C2674 C2672 1.384 . S
C2674 C2675 1.372 . S
C2675 C2674 1.372 . S
C2675 C2676 1.400 . S
C2675 C2680 1.490 . S
C2676 H2666 0.930 . S
C2676 C2675 1.400 . S
C2676 C2679 1.386 . S
H2677 C2693 0.930 . S
H2678 C2694 0.931 . S
C2679 H2667 0.929 . S
C2679 C2673 1.390 . S
C2679 C2676 1.386 . S
C2680 C2675 1.490 . S
C2680 C2682 1.395 . S
C2680 C2683 1.403 . S
H2681 C2687 0.930 . S
C2682 H2668 0.930 . S
C2682 C2680 1.395 . S
C2682 C2685 1.403 . S
C2683 C2680 1.403 . S
C2683 C2684 1.524 . S
C2683 C2687 1.400 . S
C2684 H2669 0.960 . S
C2684 H2670 0.960 . S
C2684 H2671 0.960 . S
C2684 C2683 1.524 . S
C2685 C2682 1.403 . S
C2685 C2686 1.392 . S
C2685 C2689 1.495 . S
C2686 C2685 1.392 . S
C2686 C2687 1.385 . S
C2686 C2688 1.478 . S
C2687 H2681 0.930 . S
C2687 C2683 1.400 . S
C2687 C2686 1.385 . S
C2688 C2686 1.478 . S
C2688 C2690 1.381 . S
C2688 C2694 1.383 . S
C2689 C2685 1.495 . S
C2689 H2695 0.959 . S
C2689 H2696 0.961 . S
C2689 H2697 0.960 . S
C2690 C2688 1.381 . S
C2690 C2691 1.394 . S
C2690 H2698 0.930 . S
C2691 C2690 1.394 . S
C2691 C2692 1.383 . S
C2691 H2699 0.929 . S
C2692 C2691 1.383 . S
C2692 C2693 1.377 . S
C2693 H2677 0.930 . S
C2693 C2692 1.377 . S
C2693 C2694 1.379 . S
C2694 H2678 0.931 . S
C2694 C2688 1.383 . S
C2694 C2693 1.379 . S
H2695 C2689 0.959 . S
H2696 C2689 0.961 . S
H2697 C2689 0.960 . S
H2698 C2690 0.930 . S
H2699 C2691 0.929 . S
H2700 C2708 0.929 . S
H2701 C2710 0.930 . S
H2702 C2712 0.930 . S
H2703 C2715 0.929 . S
H2704 C2718 0.930 . S
H2705 C2720 0.960 . S
H2706 C2720 0.960 . S
H2707 C2720 0.960 . S
C2708 H2700 0.929 . S
C2708 C2709 1.377 . S
C2708 C2710 1.384 . S
C2709 C2708 1.377 . S
C2709 C2715 1.390 . S
C2710 H2701 0.930 . S
C2710 C2708 1.384 . S
C2710 C2711 1.372 . S
C2711 C2710 1.372 . S
C2711 C2712 1.400 . S
C2711 C2716 1.490 . S
C2712 H2702 0.930 . S
C2712 C2711 1.400 . S
C2712 C2715 1.386 . S
H2713 C2729 0.930 . S
H2714 C2730 0.931 . S
C2715 H2703 0.929 . S
C2715 C2709 1.390 . S
C2715 C2712 1.386 . S
C2716 C2711 1.490 . S
C2716 C2718 1.395 . S
C2716 C2719 1.403 . S
H2717 C2723 0.930 . S
C2718 H2704 0.930 . S
C2718 C2716 1.395 . S
C2718 C2721 1.403 . S
C2719 C2716 1.403 . S
C2719 C2720 1.524 . S
C2719 C2723 1.400 . S
C2720 H2705 0.960 . S
C2720 H2706 0.960 . S
C2720 H2707 0.960 . S
C2720 C2719 1.524 . S
C2721 C2718 1.403 . S
C2721 C2722 1.392 . S
C2721 C2725 1.495 . S
C2722 C2721 1.392 . S
C2722 C2723 1.385 . S
C2722 C2724 1.478 . S
C2723 H2717 0.930 . S
C2723 C2719 1.400 . S
C2723 C2722 1.385 . S
C2724 C2722 1.478 . S
C2724 C2726 1.381 . S
C2724 C2730 1.383 . S
C2725 C2721 1.495 . S
C2725 H2731 0.959 . S
C2725 H2732 0.961 . S
C2725 H2733 0.960 . S
C2726 C2724 1.381 . S
C2726 C2727 1.394 . S
C2726 H2734 0.930 . S
C2727 C2726 1.394 . S
C2727 C2728 1.383 . S
C2727 H2735 0.929 . S
C2728 C2727 1.383 . S
C2728 C2729 1.377 . S
C2729 H2713 0.930 . S
C2729 C2728 1.377 . S
C2729 C2730 1.379 . S
C2730 H2714 0.931 . S
C2730 C2724 1.383 . S
C2730 C2729 1.379 . S
H2731 C2725 0.959 . S
H2732 C2725 0.961 . S
H2733 C2725 0.960 . S
H2734 C2726 0.930 . S
H2735 C2727 0.929 . S
H2736 C2744 0.929 . S
H2737 C2746 0.930 . S
H2738 C2748 0.930 . S
H2739 C2751 0.929 . S
H2740 C2754 0.930 . S
H2741 C2756 0.960 . S
H2742 C2756 0.960 . S
H2743 C2756 0.960 . S
C2744 H2736 0.929 . S
C2744 C2745 1.377 . S
C2744 C2746 1.384 . S
C2745 C2744 1.377 . S
C2745 C2751 1.390 . S
C2746 H2737 0.930 . S
C2746 C2744 1.384 . S
C2746 C2747 1.372 . S
C2747 C2746 1.372 . S
C2747 C2748 1.400 . S
C2747 C2752 1.490 . S
C2748 H2738 0.930 . S
C2748 C2747 1.400 . S
C2748 C2751 1.386 . S
H2749 C2765 0.930 . S
H2750 C2766 0.931 . S
C2751 H2739 0.929 . S
C2751 C2745 1.390 . S
C2751 C2748 1.386 . S
C2752 C2747 1.490 . S
C2752 C2754 1.395 . S
C2752 C2755 1.403 . S
H2753 C2759 0.930 . S
C2754 H2740 0.930 . S
C2754 C2752 1.395 . S
C2754 C2757 1.403 . S
C2755 C2752 1.403 . S
C2755 C2756 1.524 . S
C2755 C2759 1.400 . S
C2756 H2741 0.960 . S
C2756 H2742 0.960 . S
C2756 H2743 0.960 . S
C2756 C2755 1.524 . S
C2757 C2754 1.403 . S
C2757 C2758 1.392 . S
C2757 C2761 1.495 . S
C2758 C2757 1.392 . S
C2758 C2759 1.385 . S
C2758 C2760 1.478 . S
C2759 H2753 0.930 . S
C2759 C2755 1.400 . S
C2759 C2758 1.385 . S
C2760 C2758 1.478 . S
C2760 C2762 1.381 . S
C2760 C2766 1.383 . S
C2761 C2757 1.495 . S
C2761 H2767 0.959 . S
C2761 H2768 0.961 . S
C2761 H2769 0.960 . S
C2762 C2760 1.381 . S
C2762 C2763 1.394 . S
C2762 H2770 0.930 . S
C2763 C2762 1.394 . S
C2763 C2764 1.383 . S
C2763 H2771 0.929 . S
C2764 C2763 1.383 . S
C2764 C2765 1.377 . S
C2765 H2749 0.930 . S
C2765 C2764 1.377 . S
C2765 C2766 1.379 . S
C2766 H2750 0.931 . S
C2766 C2760 1.383 . S
C2766 C2765 1.379 . S
H2767 C2761 0.959 . S
H2768 C2761 0.961 . S
H2769 C2761 0.960 . S
H2770 C2762 0.930 . S
H2771 C2763 0.929 . S
H2772 C2780 0.929 . S
H2773 C2782 0.930 . S
H2774 C2784 0.930 . S
H2775 C2787 0.929 . S
H2776 C2790 0.930 . S
H2777 C2792 0.960 . S
H2778 C2792 0.960 . S
H2779 C2792 0.960 . S
C2780 H2772 0.929 . S
C2780 C2781 1.377 . S
C2780 C2782 1.384 . S
C2781 C2780 1.377 . S
C2781 C2787 1.390 . S
C2782 H2773 0.930 . S
C2782 C2780 1.384 . S
C2782 C2783 1.372 . S
C2783 C2782 1.372 . S
C2783 C2784 1.400 . S
C2783 C2788 1.490 . S
C2784 H2774 0.930 . S
C2784 C2783 1.400 . S
C2784 C2787 1.386 . S
H2785 C2801 0.930 . S
H2786 C2802 0.931 . S
C2787 H2775 0.929 . S
C2787 C2781 1.390 . S
C2787 C2784 1.386 . S
C2788 C2783 1.490 . S
C2788 C2790 1.395 . S
C2788 C2791 1.403 . S
H2789 C2795 0.930 . S
C2790 H2776 0.930 . S
C2790 C2788 1.395 . S
C2790 C2793 1.403 . S
C2791 C2788 1.403 . S
C2791 C2792 1.524 . S
C2791 C2795 1.400 . S
C2792 H2777 0.960 . S
C2792 H2778 0.960 . S
C2792 H2779 0.960 . S
C2792 C2791 1.524 . S
C2793 C2790 1.403 . S
C2793 C2794 1.392 . S
C2793 C2797 1.495 . S
C2794 C2793 1.392 . S
C2794 C2795 1.385 . S
C2794 C2796 1.478 . S
C2795 H2789 0.930 . S
C2795 C2791 1.400 . S
C2795 C2794 1.385 . S
C2796 C2794 1.478 . S
C2796 C2798 1.381 . S
C2796 C2802 1.383 . S
C2797 C2793 1.495 . S
C2797 H2803 0.959 . S
C2797 H2804 0.961 . S
C2797 H2805 0.960 . S
C2798 C2796 1.381 . S
C2798 C2799 1.394 . S
C2798 H2806 0.930 . S
C2799 C2798 1.394 . S
C2799 C2800 1.383 . S
C2799 H2807 0.929 . S
C2800 C2799 1.383 . S
C2800 C2801 1.377 . S
C2801 H2785 0.930 . S
C2801 C2800 1.377 . S
C2801 C2802 1.379 . S
C2802 H2786 0.931 . S
C2802 C2796 1.383 . S
C2802 C2801 1.379 . S
H2803 C2797 0.959 . S
H2804 C2797 0.961 . S
H2805 C2797 0.960 . S
H2806 C2798 0.930 . S
H2807 C2799 0.929 . S
H2808 C2816 0.929 . S
H2809 C2818 0.930 . S
H2810 C2820 0.930 . S
H2811 C2823 0.929 . S
H2812 C2826 0.930 . S
H2813 C2828 0.960 . S
H2814 C2828 0.960 . S
H2815 C2828 0.960 . S
C2816 H2808 0.929 . S
C2816 C2817 1.377 . S
C2816 C2818 1.384 . S
C2817 C2816 1.377 . S
C2817 C2823 1.390 . S
C2818 H2809 0.930 . S
C2818 C2816 1.384 . S
C2818 C2819 1.372 . S
C2819 C2818 1.372 . S
C2819 C2820 1.400 . S
C2819 C2824 1.490 . S
C2820 H2810 0.930 . S
C2820 C2819 1.400 . S
C2820 C2823 1.386 . S
H2821 C2837 0.930 . S
H2822 C2838 0.931 . S
C2823 H2811 0.929 . S
C2823 C2817 1.390 . S
C2823 C2820 1.386 . S
C2824 C2819 1.490 . S
C2824 C2826 1.395 . S
C2824 C2827 1.403 . S
H2825 C2831 0.930 . S
C2826 H2812 0.930 . S
C2826 C2824 1.395 . S
C2826 C2829 1.403 . S
C2827 C2824 1.403 . S
C2827 C2828 1.524 . S
C2827 C2831 1.400 . S
C2828 H2813 0.960 . S
C2828 H2814 0.960 . S
C2828 H2815 0.960 . S
C2828 C2827 1.524 . S
C2829 C2826 1.403 . S
C2829 C2830 1.392 . S
C2829 C2833 1.495 . S
C2830 C2829 1.392 . S
C2830 C2831 1.385 . S
C2830 C2832 1.478 . S
C2831 H2825 0.930 . S
C2831 C2827 1.400 . S
C2831 C2830 1.385 . S
C2832 C2830 1.478 . S
C2832 C2834 1.381 . S
C2832 C2838 1.383 . S
C2833 C2829 1.495 . S
C2833 H2839 0.959 . S
C2833 H2840 0.961 . S
C2833 H2841 0.960 . S
C2834 C2832 1.381 . S
C2834 C2835 1.394 . S
C2834 H2842 0.930 . S
C2835 C2834 1.394 . S
C2835 C2836 1.383 . S
C2835 H2843 0.929 . S
C2836 C2835 1.383 . S
C2836 C2837 1.377 . S
C2837 H2821 0.930 . S
C2837 C2836 1.377 . S
C2837 C2838 1.379 . S
C2838 H2822 0.931 . S
C2838 C2832 1.383 . S
C2838 C2837 1.379 . S
H2839 C2833 0.959 . S
H2840 C2833 0.961 . S
H2841 C2833 0.960 . S
H2842 C2834 0.930 . S
H2843 C2835 0.929 . S
C909 C522 1.577 . S
C928 C726 1.541 . S
C945 C562 1.542 . S
C964 C746 1.518 . S
C981 C495 1.591 . S
C1000 C769 1.581 . S
C1017 C455 1.454 . S
C1036 C749 1.435 . S
C1072 C766 1.365 . S
C1053 C362 1.398 . S
C1089 C402 1.452 . S
C1108 C729 1.427 . S
C1144 C736 1.555 . S
C1125 C442 1.562 . S
C1180 C756 1.484 . S
C1161 C375 1.517 . S
C1197 C415 1.598 . S
C1216 C761 1.599 . S
C1233 C535 1.458 . S
C1252 C741 1.462 . S
C1269 C575 1.375 . S
C1288 C776 1.356 . S
C1324 C721 1.460 . S
C1305 C482 1.427 . S
C1360 C786 1.527 . S
C1341 C42 1.575 . S
C1377 C82 1.542 . S
C1396 C806 1.523 . S
C1413 C15 1.593 . S
C1432 C829 1.591 . S
C1449 C695 1.457 . S
C1468 C809 1.453 . S
C1485 C602 1.398 . S
C1504 C826 1.402 . S
C1521 C642 1.453 . S
C1540 C789 1.446 . S
C1557 C682 1.558 . S
C1576 C796 1.554 . S
C1593 C615 1.519 . S
C1612 C816 1.473 . S
C1648 C821 1.576 . S
C1629 C655 1.592 . S
C1665 C55 1.459 . S
C1684 C801 1.438 . S
C1720 C836 1.371 . S
C1701 C95 1.376 . S
C1737 C2 1.431 . S
C1756 C781 1.447 . S
C1792 C846 1.550 . S
C1773 C282 1.578 . S
C1809 C322 1.542 . S
C1828 C866 1.511 . S
C1864 C889 1.591 . S
C1845 C255 1.593 . S
C1900 C869 1.434 . S
C1881 C215 1.453 . S
C1936 C886 1.368 . S
C1917 C122 1.396 . S
C1953 C162 1.452 . S
C1972 C849 1.424 . S
C1989 C202 1.560 . S
C2008 C856 1.582 . S
C2025 C135 1.519 . S
C2044 C876 1.464 . S
C2080 C881 1.574 . S
C2061 C175 1.592 . S
C2097 C295 1.458 . S
C2116 C861 1.462 . S
C2133 C335 1.375 . S
C2152 C896 1.374 . S
C2169 C242 1.435 . S
C2188 C841 1.450 . S
C2205 C621 1.186 . S
C2224 C739 1.155 1_565 S
C2260 C759 1.648 . S
C2241 C661 1.753 . S
C2277 C701 1.499 . S
C2296 C768 1.501 . S
C2313 C261 1.727 . S
C2332 C748 1.722 1_655 S
C2349 C301 1.511 . S
C2368 C779 1.439 . S
C2404 C728 1.133 . S
C2385 C341 1.177 . S
C2421 C141 1.185 . S
C2440 C799 1.129 . S
C2457 C181 1.753 . S
C2476 C819 1.646 . S
C2493 C221 1.494 . S
C2512 C828 1.457 . S
C2529 C501 1.721 . S
C2548 C808 1.674 . S
C2584 C839 1.462 . S
C2565 C541 1.510 . S
C2601 C581 1.175 . S
C2620 C788 1.145 . S
C2637 C381 1.185 . S
C2656 C859 1.184 . S
C2673 C421 1.753 . S
C2692 C879 1.645 . S
C2728 C888 1.489 . S
C2709 C461 1.496 . S
C2745 C21 1.721 . S
C2764 C868 1.674 . S
C2781 C61 1.511 . S
C2800 C899 1.433 . S
C2817 C101 1.176 . S
C2836 C848 1.130 . S
