# Generated by pormake.
# Topology ocu, (6,8)-cn, num edge types: 1
# Building blocks:
#     Node 0, Type 0, BuildingBlock: NUHQIS_clean_sbu_0, # of connection points: 6
#     Node 1, Type 0, BuildingBlock: NUHQIS_clean_sbu_0, # of connection points: 6
#     Node 2, Type 0, BuildingBlock: NUHQIS_clean_sbu_0, # of connection points: 6
#     Node 3, Type 0, BuildingBlock: NUHQIS_clean_sbu_0, # of connection points: 6
#     Node 4, Type 0, BuildingBlock: NUHQIS_clean_sbu_0, # of connection points: 6
#     Node 5, Type 0, BuildingBlock: NUHQIS_clean_sbu_0, # of connection points: 6
#     Node 6, Type 0, BuildingBlock: NUHQIS_clean_sbu_0, # of connection points: 6
#     Node 7, Type 0, BuildingBlock: NUHQIS_clean_sbu_0, # of connection points: 6
#     Node 8, Type 1, BuildingBlock: TAGTUT_clean_sbu_1, # of connection points: 8
#     Node 9, Type 1, BuildingBlock: TAGTUT_clean_sbu_1, # of connection points: 8
#     Node 10, Type 1, BuildingBlock: TAGTUT_clean_sbu_1, # of connection points: 8
#     Node 11, Type 1, BuildingBlock: TAGTUT_clean_sbu_1, # of connection points: 8
#     Node 12, Type 1, BuildingBlock: TAGTUT_clean_sbu_1, # of connection points: 8
#     Node 13, Type 1, BuildingBlock: TAGTUT_clean_sbu_1, # of connection points: 8
#     Edge 14, Type (0, 1), BuildingBlock: EZIPEK_clean_linker_0, # of connection points: 2
#     Edge 15, Type (0, 1), BuildingBlock: EZIPEK_clean_linker_0, # of connection points: 2
#     Edge 16, Type (0, 1), BuildingBlock: EZIPEK_clean_linker_0, # of connection points: 2
#     Edge 17, Type (0, 1), BuildingBlock: EZIPEK_clean_linker_0, # of connection points: 2
#     Edge 18, Type (0, 1), BuildingBlock: EZIPEK_clean_linker_0, # of connection points: 2
#     Edge 19, Type (0, 1), BuildingBlock: EZIPEK_clean_linker_0, # of connection points: 2
#     Edge 20, Type (0, 1), BuildingBlock: EZIPEK_clean_linker_0, # of connection points: 2
#     Edge 21, Type (0, 1), BuildingBlock: EZIPEK_clean_linker_0, # of connection points: 2
#     Edge 22, Type (0, 1), BuildingBlock: EZIPEK_clean_linker_0, # of connection points: 2
#     Edge 23, Type (0, 1), BuildingBlock: EZIPEK_clean_linker_0, # of connection points: 2
#     Edge 24, Type (0, 1), BuildingBlock: EZIPEK_clean_linker_0, # of connection points: 2
#     Edge 25, Type (0, 1), BuildingBlock: EZIPEK_clean_linker_0, # of connection points: 2
#     Edge 26, Type (0, 1), BuildingBlock: EZIPEK_clean_linker_0, # of connection points: 2
#     Edge 27, Type (0, 1), BuildingBlock: EZIPEK_clean_linker_0, # of connection points: 2
#     Edge 28, Type (0, 1), BuildingBlock: EZIPEK_clean_linker_0, # of connection points: 2
#     Edge 29, Type (0, 1), BuildingBlock: EZIPEK_clean_linker_0, # of connection points: 2
#     Edge 30, Type (0, 1), BuildingBlock: EZIPEK_clean_linker_0, # of connection points: 2
#     Edge 31, Type (0, 1), BuildingBlock: EZIPEK_clean_linker_0, # of connection points: 2
#     Edge 32, Type (0, 1), BuildingBlock: EZIPEK_clean_linker_0, # of connection points: 2
#     Edge 33, Type (0, 1), BuildingBlock: EZIPEK_clean_linker_0, # of connection points: 2
#     Edge 34, Type (0, 1), BuildingBlock: EZIPEK_clean_linker_0, # of connection points: 2
#     Edge 35, Type (0, 1), BuildingBlock: EZIPEK_clean_linker_0, # of connection points: 2
#     Edge 36, Type (0, 1), BuildingBlock: EZIPEK_clean_linker_0, # of connection points: 2
#     Edge 37, Type (0, 1), BuildingBlock: EZIPEK_clean_linker_0, # of connection points: 2
#     Edge 38, Type (0, 1), BuildingBlock: EZIPEK_clean_linker_0, # of connection points: 2
#     Edge 39, Type (0, 1), BuildingBlock: EZIPEK_clean_linker_0, # of connection points: 2
#     Edge 40, Type (0, 1), BuildingBlock: EZIPEK_clean_linker_0, # of connection points: 2
#     Edge 41, Type (0, 1), BuildingBlock: EZIPEK_clean_linker_0, # of connection points: 2
#     Edge 42, Type (0, 1), BuildingBlock: EZIPEK_clean_linker_0, # of connection points: 2
#     Edge 43, Type (0, 1), BuildingBlock: EZIPEK_clean_linker_0, # of connection points: 2
#     Edge 44, Type (0, 1), BuildingBlock: EZIPEK_clean_linker_0, # of connection points: 2
#     Edge 45, Type (0, 1), BuildingBlock: EZIPEK_clean_linker_0, # of connection points: 2
#     Edge 46, Type (0, 1), BuildingBlock: EZIPEK_clean_linker_0, # of connection points: 2
#     Edge 47, Type (0, 1), BuildingBlock: EZIPEK_clean_linker_0, # of connection points: 2
#     Edge 48, Type (0, 1), BuildingBlock: EZIPEK_clean_linker_0, # of connection points: 2
#     Edge 49, Type (0, 1), BuildingBlock: EZIPEK_clean_linker_0, # of connection points: 2
#     Edge 50, Type (0, 1), BuildingBlock: EZIPEK_clean_linker_0, # of connection points: 2
#     Edge 51, Type (0, 1), BuildingBlock: EZIPEK_clean_linker_0, # of connection points: 2
#     Edge 52, Type (0, 1), BuildingBlock: EZIPEK_clean_linker_0, # of connection points: 2
#     Edge 53, Type (0, 1), BuildingBlock: EZIPEK_clean_linker_0, # of connection points: 2
#     Edge 54, Type (0, 1), BuildingBlock: EZIPEK_clean_linker_0, # of connection points: 2
#     Edge 55, Type (0, 1), BuildingBlock: EZIPEK_clean_linker_0, # of connection points: 2
#     Edge 56, Type (0, 1), BuildingBlock: EZIPEK_clean_linker_0, # of connection points: 2
#     Edge 57, Type (0, 1), BuildingBlock: EZIPEK_clean_linker_0, # of connection points: 2
#     Edge 58, Type (0, 1), BuildingBlock: EZIPEK_clean_linker_0, # of connection points: 2
#     Edge 59, Type (0, 1), BuildingBlock: EZIPEK_clean_linker_0, # of connection points: 2
#     Edge 60, Type (0, 1), BuildingBlock: EZIPEK_clean_linker_0, # of connection points: 2
#     Edge 61, Type (0, 1), BuildingBlock: EZIPEK_clean_linker_0, # of connection points: 2
# Relax obj value: 0.193
# Max RMSD: 0.268
# Mean RMSD: 0.132
data_MOF--net-ocu--node1-NUHQIS_clean_sbu_0--node2-TAGTUT_clean_sbu_1--edge1-EZIPEK_clean_linker_0
_symmetry_space_group_name_H-M    P1
_symmetry_Int_Tables_number       1
_symmetry_cell_setting            triclinic
loop_
_symmetry_equiv_pos_as_xyz
'x, y, z'
_cell_length_a     30.681159
_cell_length_b     30.897398
_cell_length_c     32.016394
_cell_angle_alpha  96.925794
_cell_angle_beta   86.006872
_cell_angle_gamma 118.10647
loop_
_atom_site_label
_atom_site_type_symbol
_atom_site_fract_x
_atom_site_fract_y
_atom_site_fract_z
_atom_type_partial_charge
Tb0 Tb 0.27394 0.25814 0.27646 0.0
Eu1 Eu 0.36377 0.31647 0.33551 0.0
C2 C 0.36482 0.2272 0.26226 0.0
C3 C 0.27041 0.2203 0.36458 0.0
C4 C 0.15288 0.21762 0.22947 0.0
C5 C 0.08576 0.20324 0.18506 0.0
C6 C 0.11689 0.18698 0.19977 0.0
C7 C 0.15124 0.25973 0.2497 0.0
C8 C 0.12063 0.27614 0.23491 0.0
C9 C 0.09188 0.25061 0.19948 0.0
C10 C 0.19903 0.21438 0.23005 0.0
O11 O 0.25428 0.31589 0.31325 0.0
O12 O 0.30898 0.34499 0.36662 0.0
O13 O 0.37491 0.3685 0.28721 0.0
O14 O 0.33333 0.30783 0.23635 0.0
C15 C 0.26873 0.34249 0.35086 0.0
O16 O 0.39753 0.3408 0.39736 0.0
O17 O 0.44231 0.36762 0.34185 0.0
O18 O 0.38986 0.26679 0.28934 0.0
O19 O 0.31708 0.21471 0.25701 0.0
O20 O 0.24589 0.22621 0.3359 0.0
O21 O 0.3188 0.245 0.36537 0.0
C22 C 0.36656 0.35338 0.24725 0.0
O23 O 0.2383 0.25487 0.22212 0.0
O24 O 0.20571 0.19523 0.26152 0.0
C25 C 0.4761 0.34623 0.39473 0.0
C26 C 0.5195 0.29298 0.42191 0.0
C27 C 0.50536 0.3217 0.4513 0.0
C28 C 0.48385 0.34838 0.43772 0.0
C29 C 0.49358 0.32018 0.36523 0.0
C30 C 0.51537 0.2939 0.37888 0.0
C31 C 0.44219 0.36307 0.3818 0.0
H32 H 0.06327 0.18287 0.15784 0.0
H33 H 0.11732 0.15412 0.184 0.0
H34 H 0.17877 0.284 0.27229 0.0
H35 H 0.12552 0.31253 0.24668 0.0
H36 H 0.50859 0.32135 0.48473 0.0
H37 H 0.47032 0.36798 0.46088 0.0
H38 H 0.4876 0.31738 0.33184 0.0
H39 H 0.52536 0.27098 0.35628 0.0
Tb40 Tb 0.83271 0.24653 0.28811 0.0
Eu41 Eu 0.77733 0.31542 0.30119 0.0
C42 C 0.72887 0.20978 0.25284 0.0
C43 C 0.85628 0.3293 0.22895 0.0
C44 C 0.90967 0.18201 0.29163 0.0
C45 C 0.98071 0.16743 0.29085 0.0
C46 C 0.94902 0.17791 0.26988 0.0
C47 C 0.90062 0.17326 0.33407 0.0
C48 C 0.93133 0.16116 0.35471 0.0
C49 C 0.9719 0.15893 0.33335 0.0
C50 C 0.8818 0.20003 0.27042 0.0
O51 O 0.85596 0.28958 0.34784 0.0
O52 O 0.85432 0.35408 0.32441 0.0
O53 O 0.74447 0.26608 0.3537 0.0
O54 O 0.7808 0.2145 0.34094 0.0
C55 C 0.86873 0.33645 0.35237 0.0
O56 O 0.75573 0.36405 0.2758 0.0
O57 O 0.75238 0.36094 0.34345 0.0
O58 O 0.71921 0.23994 0.27931 0.0
O59 O 0.77445 0.21955 0.24261 0.0
O60 O 0.87486 0.31108 0.25327 0.0
O61 O 0.81134 0.32345 0.23587 0.0
C62 C 0.75001 0.22834 0.36239 0.0
O63 O 0.83405 0.17873 0.27612 0.0
O64 O 0.90071 0.24782 0.27314 0.0
C65 C 0.698 0.3827 0.31262 0.0
C66 C 0.61396 0.37792 0.27946 0.0
C67 C 0.65884 0.42186 0.28053 0.0
C68 C 0.70053 0.42431 0.29733 0.0
C69 C 0.65196 0.34122 0.31721 0.0
C70 C 0.60965 0.3395 0.30156 0.0
C71 C 0.74393 0.37956 0.31236 0.0
H72 H 1.01214 0.16621 0.27414 0.0
H73 H 0.956 0.18423 0.23696 0.0
H74 H 0.87067 0.17688 0.35136 0.0
H75 H 0.92448 0.15507 0.38769 0.0
H76 H 0.66309 0.45254 0.26438 0.0
H77 H 0.73583 0.45668 0.2938 0.0
H78 H 0.64946 0.30872 0.32908 0.0
H79 H 0.57507 0.30595 0.30196 0.0
Tb80 Tb 0.76365 0.73458 0.32065 0.0
Eu81 Eu 0.86667 0.81069 0.28995 0.0
C82 C 0.80939 0.70213 0.24161 0.0
C83 C 0.85608 0.72568 0.35755 0.0
C84 C 0.63686 0.70029 0.34406 0.0
C85 C 0.6025 0.73958 0.39611 0.0
C86 C 0.61283 0.70064 0.38285 0.0
C87 C 0.64052 0.73302 0.31541 0.0
C88 C 0.63236 0.77311 0.32919 0.0
C89 C 0.61693 0.77839 0.37079 0.0
C90 C 0.67469 0.68371 0.34172 0.0
O91 O 0.79944 0.78827 0.37399 0.0
O92 O 0.83549 0.8503 0.33466 0.0
O93 O 0.82098 0.83727 0.25417 0.0
O94 O 0.7464 0.78083 0.27791 0.0
C95 C 0.82351 0.83575 0.37206 0.0
O96 O 0.94185 0.86399 0.30934 0.0
O97 O 0.92197 0.85159 0.24392 0.0
O98 O 0.83923 0.74874 0.23783 0.0
O99 O 0.78505 0.68896 0.27687 0.0
O100 O 0.80705 0.70536 0.35299 0.0
O101 O 0.88388 0.76545 0.33675 0.0
C102 C 0.77209 0.81836 0.25382 0.0
O103 O 0.69231 0.67805 0.30438 0.0
O104 O 0.71006 0.70939 0.36848 0.0
C105 C 0.99637 0.85523 0.25767 0.0
C106 C 1.03268 0.79881 0.20735 0.0
C107 C 0.04548 0.84659 0.19778 0.0
C108 C 1.02659 0.87452 0.22265 0.0
C109 C 0.99109 0.81128 0.27087 0.0
C110 C 1.00847 0.78286 0.24551 0.0
C111 C 0.95802 0.86969 0.27055 0.0
H112 H 0.58967 0.74283 0.42816 0.0
H113 H 0.60906 0.67544 0.4053 0.0
H114 H 0.65604 0.73158 0.28423 0.0
H115 H 0.64269 0.80216 0.30886 0.0
H116 H 0.06499 0.85969 0.16871 0.0
H117 H 1.03087 0.90827 0.21191 0.0
H118 H 0.96831 0.79579 0.29795 0.0
H119 H 0.99905 0.74644 0.25379 0.0
Tb120 Tb 0.3217 0.74929 0.32305 0.0
Eu121 Eu 0.27312 0.8074 0.28084 0.0
C122 C 0.33417 0.85462 0.36614 0.0
C123 C 0.22025 0.73651 0.3483 0.0
C124 C 0.39547 0.69293 0.34078 0.0
C125 C 0.46638 0.72833 0.29438 0.0
C126 C 0.43878 0.73398 0.32868 0.0
C127 C 0.38603 0.64535 0.32376 0.0
C128 C 0.41445 0.63967 0.28981 0.0
C129 C 0.45224 0.68159 0.27346 0.0
C130 C 0.3537 0.70075 0.35686 0.0
O131 O 0.31286 0.72019 0.25625 0.0
O132 O 0.2454 0.73084 0.24751 0.0
O133 O 0.34729 0.82792 0.24946 0.0
O134 O 0.38563 0.80003 0.29103 0.0
C135 C 0.27286 0.70916 0.23527 0.0
O136 O 0.20918 0.81719 0.2691 0.0
O137 O 0.27808 0.85793 0.23629 0.0
O138 O 0.31908 0.86353 0.33237 0.0
O139 O 0.32967 0.81068 0.37031 0.0
O140 O 0.24246 0.71479 0.32573 0.0
O141 O 0.23191 0.78142 0.34163 0.0
C142 C 0.38633 0.82577 0.26134 0.0
O143 O 0.36442 0.74613 0.37003 0.0
O144 O 0.31579 0.6805 0.33204 0.0
C145 C 0.2391 0.90233 0.27098 0.0
C146 C 0.24254 0.95087 0.35061 0.0
C147 C 0.19737 0.92522 0.32945 0.0
C148 C 0.19566 0.90106 0.28936 0.0
C149 C 0.28497 0.93779 0.2881 0.0
C150 C 0.28664 0.96116 0.32839 0.0
C151 C 0.23607 0.85615 0.24927 0.0
H152 H 0.49554 0.76072 0.2816 0.0
H153 H 0.44752 0.77118 0.34154 0.0
H154 H 0.35297 0.61329 0.33278 0.0
H155 H 0.40389 0.60327 0.27376 0.0
H156 H 0.163 0.91772 0.34619 0.0
H157 H 0.15995 0.87486 0.27641 0.0
H158 H 0.31942 0.94107 0.27405 0.0
H159 H 0.32184 0.98151 0.34412 0.0
Tb160 Tb 0.35255 0.75564 0.79111 0.0
Eu161 Eu 0.28239 0.80557 0.82655 0.0
C162 C 0.25536 0.72934 0.73763 0.0
C163 C 0.36375 0.85004 0.75569 0.0
C164 C 0.44853 0.71763 0.79549 0.0
C165 C 0.51816 0.7018 0.8024 0.0
C166 C 0.48841 0.71131 0.7774 0.0
C167 C 0.43901 0.71477 0.83886 0.0
C168 C 0.46841 0.70503 0.86369 0.0
C169 C 0.50801 0.69813 0.84567 0.0
C170 C 0.41733 0.72825 0.76977 0.0
O171 O 0.38903 0.80377 0.85004 0.0
O172 O 0.3347 0.83023 0.88103 0.0
O173 O 0.25803 0.73998 0.86302 0.0
O174 O 0.30379 0.70249 0.83281 0.0
C175 C 0.37573 0.82693 0.88213 0.0
O176 O 0.26909 0.86935 0.8411 0.0
O177 O 0.21102 0.79642 0.85135 0.0
O178 O 0.24873 0.76327 0.7627 0.0
O179 O 0.29102 0.71838 0.74505 0.0
O180 O 0.35668 0.80493 0.74613 0.0
O181 O 0.3487 0.86169 0.79258 0.0
C182 C 0.27025 0.70437 0.85943 0.0
O183 O 0.37003 0.69819 0.77141 0.0
O184 O 0.4261 0.77412 0.77362 0.0
C185 C 0.18739 0.85206 0.82825 0.0
C186 C 0.13321 0.87206 0.7736 0.0
C187 C 0.1709 0.91088 0.79765 0.0
C188 C 0.19777 0.90091 0.825 0.0
C189 C 0.14634 0.81316 0.80719 0.0
C190 C 0.11938 0.82318 0.78002 0.0
C191 C 0.22235 0.84251 0.84991 0.0
H192 H 0.54863 0.6967 0.78813 0.0
H193 H 0.49634 0.7136 0.74403 0.0
H194 H 0.40872 0.72001 0.85348 0.0
H195 H 0.46014 0.70264 0.89706 0.0
H196 H 0.18212 0.94881 0.79272 0.0
H197 H 0.2288 0.93141 0.84137 0.0
H198 H 0.13689 0.77504 0.80952 0.0
H199 H 0.09057 0.79294 0.76131 0.0
Tb200 Tb 0.32305 0.32063 0.76992 0.0
Eu201 Eu 0.30524 0.2382 0.83511 0.0
C202 C 0.38258 0.35038 0.8528 0.0
C203 C 0.38081 0.25933 0.7553 0.0
C204 C 0.28585 0.38643 0.70744 0.0
C205 C 0.25465 0.43197 0.67359 0.0
C206 C 0.29451 0.42745 0.68712 0.0
C207 C 0.23709 0.3509 0.71549 0.0
C208 C 0.19734 0.35554 0.70222 0.0
C209 C 0.20601 0.39564 0.68055 0.0
C210 C 0.32705 0.38029 0.72088 0.0
O211 O 0.27608 0.24831 0.73976 0.0
O212 O 0.23737 0.20471 0.7961 0.0
O213 O 0.26487 0.27942 0.86384 0.0
O214 O 0.2536 0.30605 0.80345 0.0
C215 C 0.23964 0.21096 0.75622 0.0
O216 O 0.28744 0.16301 0.84475 0.0
O217 O 0.30528 0.21844 0.89814 0.0
O218 O 0.37687 0.30549 0.85165 0.0
O219 O 0.35995 0.36252 0.8271 0.0
O220 O 0.38453 0.30366 0.75539 0.0
O221 O 0.34866 0.22681 0.77928 0.0
C222 C 0.24446 0.29965 0.84364 0.0
O223 O 0.33681 0.39221 0.7607 0.0
O224 O 0.32558 0.33804 0.70808 0.0
C225 C 0.33563 0.16183 0.89758 0.0
C226 C 0.40914 0.1455 0.92853 0.0
C227 C 0.36004 0.12007 0.94284 0.0
C228 C 0.32339 0.12819 0.92739 0.0
C229 C 0.38435 0.18581 0.88196 0.0
C230 C 0.42106 0.17769 0.89739 0.0
C231 C 0.29851 0.17422 0.88451 0.0
H232 H 0.26167 0.46284 0.65643 0.0
H233 H 0.3319 0.45528 0.681 0.0
H234 H 0.22977 0.31891 0.73109 0.0
H235 H 0.15999 0.32695 0.70724 0.0
H236 H 0.35058 0.09556 0.96728 0.0
H237 H 0.28597 0.10954 0.9397 0.0
H238 H 0.39418 0.21206 0.85899 0.0
H239 H 0.45894 0.19806 0.88656 0.0
Tb240 Tb 0.8574 0.2695 0.81021 0.0
Eu241 Eu 0.75719 0.27557 0.79829 0.0
C242 C 0.83223 0.345 0.87206 0.0
C243 C 0.76559 0.20945 0.87016 0.0
C244 C 0.96601 0.26791 0.76787 0.0
C245 C 0.97222 0.20864 0.71445 0.0
C246 C 0.97589 0.22812 0.75652 0.0
C247 C 0.96256 0.29371 0.73601 0.0
C248 C 0.95472 0.27209 0.69478 0.0
C249 C 0.95636 0.22757 0.68426 0.0
C250 C 0.93899 0.26858 0.80744 0.0
O251 O 0.808 0.20241 0.7716 0.0
O252 O 0.77592 0.24132 0.73926 0.0
O253 O 0.81378 0.33926 0.76253 0.0
O254 O 0.87103 0.31099 0.75369 0.0
C255 C 0.78425 0.20401 0.73998 0.0
O256 O 0.68344 0.22808 0.77309 0.0
O257 O 0.70482 0.30427 0.79535 0.0
O258 O 0.78756 0.32779 0.85728 0.0
O259 O 0.86363 0.32946 0.85626 0.0
O260 O 0.8142 0.2311 0.86482 0.0
O261 O 0.7377 0.21728 0.84532 0.0
C262 C 0.85442 0.34118 0.74403 0.0
O263 O 0.93451 0.30836 0.818 0.0
O264 O 0.89662 0.22913 0.81013 0.0
C265 C 0.62722 0.2448 0.81654 0.0
C266 C 0.61565 0.26606 0.90163 0.0
C267 C 0.6017 0.28784 0.87254 0.0
C268 C 0.60786 0.27735 0.82955 0.0
C269 C 0.62537 0.21249 0.84489 0.0
C270 C 0.62083 0.22397 0.88778 0.0
C271 C 0.66803 0.26042 0.78553 0.0
H272 H 0.97502 0.17492 0.70661 0.0
H273 H 0.97951 0.20807 0.78045 0.0
H274 H 0.95812 0.32649 0.74363 0.0
H275 H 0.94336 0.28797 0.67209 0.0
H276 H 0.59562 0.31932 0.88284 0.0
H277 H 0.6071 0.30141 0.80795 0.0
H278 H 0.63714 0.18473 0.83526 0.0
H279 H 0.62882 0.2046 0.90953 0.0
Tb280 Tb 0.76249 0.75495 0.78452 0.0
Eu281 Eu 0.8704 0.80133 0.82796 0.0
C282 C 0.8385 0.71585 0.74809 0.0
C283 C 0.781 0.70214 0.8569 0.0
C284 C 0.65459 0.75362 0.74063 0.0
C285 C 0.59153 0.756 0.70075 0.0
C286 C 0.61114 0.72907 0.71726 0.0
C287 C 0.67735 0.80523 0.74861 0.0
C288 C 0.65794 0.83214 0.73194 0.0
C289 C 0.61558 0.80775 0.70713 0.0
C290 C 0.67813 0.72599 0.75417 0.0
O291 O 0.76957 0.82086 0.82536 0.0
O292 O 0.8231 0.82487 0.87341 0.0
O293 O 0.87797 0.85776 0.78498 0.0
O294 O 0.81358 0.807 0.74126 0.0
C295 C 0.78735 0.83376 0.86376 0.0
O296 O 0.91608 0.82215 0.88354 0.0
O297 O 0.95078 0.83626 0.82214 0.0
O298 O 0.87374 0.75175 0.7711 0.0
O299 O 0.79163 0.70566 0.7539 0.0
O300 O 0.75036 0.71185 0.83791 0.0
O301 O 0.82883 0.72529 0.84986 0.0
C302 C 0.85582 0.84707 0.74866 0.0
O303 O 0.71645 0.72928 0.73188 0.0
O304 O 0.68656 0.73188 0.79422 0.0
C305 C 0.9843 0.80679 0.8696 0.0
C306 C 1.0259 0.7467 0.88641 0.0
C307 C 1.0095 0.7699 0.91949 0.0
C308 C 0.98916 0.79985 0.91119 0.0
C309 C 1.00219 0.78475 0.83644 0.0
C310 C 1.02311 0.75516 0.84487 0.0
C311 C 0.95657 0.83306 0.86139 0.0
H312 H 0.55918 0.73674 0.68115 0.0
H313 H 0.59325 0.6893 0.71075 0.0
H314 H 0.71119 0.82481 0.76631 0.0
H315 H 0.6773 0.87206 0.73662 0.0
H316 H 1.01181 0.76419 0.95183 0.0
H317 H 0.97582 0.81642 0.93728 0.0
H318 H 0.999 0.78931 0.80396 0.0
H319 H 1.03591 0.73779 0.81903 0.0
C320 C 0.94159 0.10922 0.55772 0.0
C321 C 1.04007 0.10566 0.45944 0.0
C322 C 0.98207 0.92288 0.48701 0.0
Mg323 Mg 0.04885 0.12348 0.5541 0.0
O324 O 1.01371 0.05619 0.56008 0.0
Mg325 Mg 0.9599 0.01381 0.5192 0.0
Mg326 Mg 0.05386 0.0212 0.54798 0.0
O327 O 0.09466 0.98726 0.53532 0.0
Mg328 Mg 0.06943 0.91875 0.53161 0.0
Mg329 Mg 0.15264 0.03239 0.57178 0.0
C330 C 0.12089 0.11596 0.61396 0.0
C331 C 0.15389 0.09224 0.49421 0.0
O332 O 0.92384 0.06398 0.54225 0.0
O333 O 0.98757 0.13681 0.56527 0.0
O334 O 1.00079 0.06505 0.46508 0.0
O335 O 0.06744 0.13279 0.48994 0.0
O336 O 0.1041 0.14312 0.60144 0.0
O337 O 0.10667 0.07136 0.5984 0.0
C338 C 0.95307 0.95589 0.60211 0.0
O339 O 0.99985 0.97048 0.59694 0.0
O340 O 0.92902 0.96626 0.57682 0.0
O341 O 0.19293 0.99195 0.53859 0.0
O342 O 0.13701 0.9216 0.50421 0.0
O343 O 0.12343 0.97736 0.62202 0.0
C344 C 0.18196 0.95362 0.51257 0.0
O345 O 0.064 0.90378 0.59581 0.0
O346 O 1.0019 0.8963 0.49513 0.0
C347 C 0.0912 0.93267 0.62597 0.0
O348 O 1.00056 0.96882 0.49962 0.0
O349 O 0.10671 0.07351 0.49847 0.0
O350 O 0.17918 0.08314 0.51851 0.0
C351 C 0.47901 0.11826 0.16489 0.0
C352 C 0.52388 0.10532 0.03462 0.0
C353 C 0.50911 0.91944 0.03007 0.0
Mg354 Mg 0.58202 0.12716 0.11682 0.0
O355 O 0.55998 0.05674 0.11063 0.0
Mg356 Mg 0.48848 0.01454 0.09611 0.0
Mg357 Mg 0.59764 0.01362 0.08395 0.0
O358 O 0.63145 0.9694 0.06115 0.0
Mg359 Mg 0.60567 0.89957 0.06056 0.0
Mg360 Mg 0.7038 1.00945 0.07497 0.0
C361 C 0.65663 0.08908 0.13815 0.0
C362 C 0.68013 0.07635 1.0091 0.0
O363 O 0.4595 0.07271 0.14608 0.0
O364 O 0.52643 0.14462 0.16034 0.0
O365 O 0.49503 0.06193 0.04459 0.0
O366 O 0.56206 0.13562 0.05592 0.0
O367 O 0.65098 0.11805 0.11566 0.0
O368 O 0.67152 0.0584 0.12107 0.0
C369 C 0.51906 0.95468 0.15661 0.0
O370 O 0.56066 0.96654 0.13769 0.0
O371 O 0.48802 0.9688 0.14719 0.0
O372 O 0.72375 0.95889 1.02185 0.0
O373 O 0.65303 0.88906 1.00889 0.0
O374 O 0.70561 0.95287 0.12784 0.0
C375 C 0.69905 0.9165 1.00065 0.0
O376 O 0.6379 0.8811 0.1183 0.0
O377 O 0.53358 0.89479 0.03354 0.0
C378 C 0.68018 0.90728 0.1373 0.0
O379 O 0.52335 0.96396 0.04928 0.0
O380 O 0.63705 0.06392 0.02646 0.0
O381 O 0.70844 0.06058 0.02211 0.0
C382 C 0.04266 0.6473 0.09063 0.0
C383 C 0.07115 0.61847 0.9659 0.0
C384 C 0.97715 0.43097 0.98131 0.0
Mg385 Mg 0.11665 0.61496 0.04269 0.0
O386 O 0.06536 0.55683 0.06309 0.0
Mg387 Mg 0.99982 0.53694 0.03682 0.0
Mg388 Mg 0.0783 0.50241 0.03787 0.0
O389 O 0.09268 0.45087 1.00882 0.0
Mg390 Mg 0.04593 0.38416 1.00018 0.0
Mg391 Mg 0.15841 0.47199 0.03282 0.0
C392 C 0.18048 0.57931 0.08502 0.0
C393 C 0.1714 0.5537 0.97313 0.0
O394 O 1.0052 0.6053 0.07993 0.0
O395 O 0.08726 0.65885 0.07878 0.0
O396 O 1.0305 0.59013 0.98359 0.0
O397 O 0.11214 0.62503 0.97874 0.0
O398 O 0.18116 0.60768 0.05857 0.0
O399 O 0.14856 0.5328 0.08129 0.0
C400 C 0.98398 0.45586 0.10276 0.0
O401 O 1.02404 0.45526 0.08856 0.0
O402 O 0.96902 0.48405 0.08927 0.0
O403 O 0.16391 0.41337 0.98168 0.0
O404 O 0.08858 0.35988 0.9561 0.0
O405 O 0.12127 0.41208 0.07862 0.0
C406 C 0.13554 0.37649 0.95625 0.0
O407 O 0.04386 0.3574 0.05934 0.0
O408 O 0.98387 0.39274 0.97963 0.0
C409 C 0.07997 0.37394 0.0845 0.0
O410 O 1.00912 0.47364 0.9974 0.0
O411 O 0.12962 0.54894 0.98753 0.0
O412 O 0.19076 0.52894 0.98549 0.0
C413 C 0.52421 0.65749 0.10779 0.0
C414 C 0.57605 0.64177 0.97937 0.0
C415 C 0.49757 0.45235 0.99397 0.0
Mg416 Mg 0.61383 0.64965 0.06663 0.0
O417 O 0.56625 0.58379 0.07406 0.0
Mg418 Mg 0.50164 0.55489 0.04472 0.0
Mg419 Mg 0.58615 0.53282 0.05525 0.0
O420 O 0.60785 0.48235 0.03585 0.0
Mg421 Mg 0.55987 0.41814 0.04236 0.0
Mg422 Mg 0.66808 0.51039 0.0717 0.0
C423 C 0.67982 0.61553 0.1118 0.0
C424 C 0.68446 0.58065 0.99505 0.0
O425 O 0.49415 0.61604 0.08829 0.0
O426 O 0.57084 0.67953 0.10064 0.0
O427 O 0.53591 0.6066 0.99193 0.0
O428 O 0.61529 0.66161 1.00117 0.0
O429 O 0.6746 0.65181 0.10158 0.0
O430 O 0.64946 0.57073 0.09983 0.0
C431 C 0.48576 0.48128 0.11632 0.0
O432 O 0.52925 0.48662 0.10642 0.0
O433 O 0.46736 0.50305 0.09757 0.0
O434 O 0.68118 0.44581 0.04145 0.0
O435 O 0.60549 0.38474 0.02331 0.0
O436 O 0.62413 0.46101 0.12648 0.0
C437 C 0.65221 0.40157 0.02646 0.0
O438 O 0.54611 0.41049 0.10694 0.0
O439 O 0.50538 0.41711 1.00255 0.0
C440 C 0.57973 0.42833 0.13427 0.0
O441 O 0.52339 0.49703 1.00943 0.0
O442 O 0.64167 0.57703 1.00502 0.0
O443 O 0.70325 0.55928 1.0147 0.0
C444 C 0.9241 0.63101 0.61314 0.0
C445 C 0.94706 0.64108 0.478 0.0
C446 C 0.94433 0.44703 0.48862 0.0
Mg447 Mg 1.02036 0.65131 0.55732 0.0
O448 O 0.99504 0.58186 0.558 0.0
Mg449 Mg 0.92381 0.53985 0.53976 0.0
Mg450 Mg 1.03153 0.5402 0.5362 0.0
O451 O 0.06865 0.50074 0.50839 0.0
Mg452 Mg 0.04544 0.43218 0.49761 0.0
Mg453 Mg 0.13785 0.5395 0.52893 0.0
C454 C 0.11794 0.6347 0.59137 0.0
C455 C 0.11343 0.60419 0.46969 0.0
O456 O 0.90056 0.58903 0.59101 0.0
O457 O 0.97046 0.65924 0.60715 0.0
O458 O 0.92312 0.59492 0.48579 0.0
O459 O 0.98738 0.6687 0.49934 0.0
O460 O 0.09351 0.65895 0.58584 0.0
O461 O 0.10276 0.58892 0.57517 0.0
C462 C 0.94649 0.47466 0.60713 0.0
O463 O 0.99063 0.48839 0.59173 0.0
O464 O 0.91797 0.48932 0.5928 0.0
O465 O 0.16868 0.48645 0.47569 0.0
O466 O 0.1022 0.41664 0.45557 0.0
O467 O 0.12322 0.48298 0.57573 0.0
C468 C 0.14985 0.44287 0.45352 0.0
O469 O 0.05313 0.41425 0.55836 0.0
O470 O 0.97081 0.42398 0.4858 0.0
C471 C 0.0906 0.43902 0.58187 0.0
O472 O 0.962 0.49365 0.49938 0.0
O473 O 0.06893 0.58836 0.48322 0.0
O474 O 0.14342 0.59129 0.48363 0.0
C475 C 0.47709 0.16608 0.64416 0.0
C476 C 0.54364 0.16803 0.51809 0.0
C477 C 0.4482 0.96913 0.50608 0.0
Mg478 Mg 0.56992 0.15901 0.60656 0.0
O479 O 0.52476 0.09176 0.59686 0.0
Mg480 Mg 0.46085 0.07039 0.56857 0.0
Mg481 Mg 0.5456 0.0465 0.56233 0.0
O482 O 0.56711 1.00084 0.53009 0.0
Mg483 Mg 0.52422 0.93382 0.53128 0.0
Mg484 Mg 0.63518 0.0259 0.5532 0.0
C485 C 0.64119 0.11523 0.62524 0.0
C486 C 0.63769 0.10883 0.49756 0.0
O487 O 0.45007 0.12798 0.61897 0.0
O488 O 0.52408 0.18357 0.64576 0.0
O489 O 0.50099 0.1312 0.5235 0.0
O490 O 0.57684 0.18432 0.54603 0.0
O491 O 0.63069 0.1512 0.63154 0.0
O492 O 0.61473 0.0757 0.60191 0.0
C493 C 0.45211 0.98631 0.62566 0.0
O494 O 0.49448 0.99244 0.61037 0.0
O495 O 0.43093 1.01015 0.61404 0.0
O496 O 0.64368 0.97246 0.49965 0.0
O497 O 0.56598 0.91238 0.48603 0.0
O498 O 0.61022 0.9653 0.5984 0.0
C499 C 0.61264 0.93251 0.47889 0.0
O500 O 0.53116 0.9097 0.58943 0.0
O501 O 0.45885 0.93425 0.50975 0.0
C502 C 0.57176 0.92689 0.60872 0.0
O503 O 0.47647 0.01429 0.52101 0.0
O504 O 0.59552 0.10196 0.51356 0.0
O505 O 0.65914 0.08497 0.50785 0.0
C506 C 0.21485 0.13551 0.38792 0.0
C507 C 0.24174 0.18739 0.39823 0.0
C508 C 0.20978 0.17693 0.47129 0.0
C509 C 0.1809 0.1254 0.46042 0.0
N510 N 0.15139 0.05588 0.40763 0.0
N511 N 0.25919 0.25847 0.4479 0.0
C512 C 0.18199 0.10484 0.4184 0.0
C513 C 0.2378 0.20833 0.4395 0.0
N514 N 0.22233 0.1154 0.3494 0.0
N515 N 0.2109 0.19585 0.51232 0.0
H516 H 0.28088 0.28263 0.42599 0.0
H517 H 0.25283 0.27634 0.47549 0.0
H518 H 0.18848 0.17483 0.53586 0.0
H519 H 0.23582 0.23164 0.52361 0.0
H520 H 0.2083 0.07769 0.34107 0.0
H521 H 0.24605 0.13669 0.32654 0.0
H522 H 0.14615 0.0393 0.37684 0.0
H523 H 0.12817 0.03215 0.4293 0.0
C524 C 1.03655 0.1877 0.3879 0.0
C525 C 1.00647 0.15049 0.3568 0.0
C526 C 1.02939 0.09258 0.38183 0.0
C527 C 0.04849 0.12565 0.41801 0.0
N528 N 0.09866 0.21162 0.44086 0.0
N529 N 0.97916 0.0692 0.31983 0.0
C530 C 0.06139 0.17578 0.41656 0.0
C531 C 1.00571 0.10383 0.35147 0.0
N532 N 1.03925 0.2334 0.39131 0.0
N533 N 1.03559 0.05147 0.37653 0.0
H534 H 0.96072 0.07592 0.29734 0.0
H535 H 0.97374 0.0331 0.31669 0.0
H536 H 0.05373 0.04422 0.39904 0.0
H537 H 1.02844 0.02874 0.34839 0.0
H538 H 0.05526 0.25977 0.41672 0.0
H539 H 1.02402 0.24439 0.36918 0.0
H540 H 0.1118 0.24918 0.43903 0.0
H541 H 0.12114 0.20374 0.4582 0.0
C542 C 0.84904 0.84958 0.44834 0.0
C543 C 0.85535 0.86758 0.40828 0.0
C544 C 0.94297 0.91951 0.42083 0.0
C545 C 0.93798 0.90152 0.46028 0.0
N546 N 0.88502 0.85669 0.51592 0.0
N547 N 0.902 0.93913 0.37057 0.0
C548 C 0.89045 0.86878 0.47557 0.0
C549 C 0.90025 0.90893 0.39907 0.0
N550 N 0.80365 0.81438 0.46009 0.0
N551 N 0.98844 0.94449 0.40274 0.0
H552 H 0.87003 0.93555 0.3576 0.0
H553 H 0.93405 0.97132 0.36488 0.0
H554 H 1.02126 0.95286 0.41733 0.0
H555 H 0.99243 0.95116 0.3712 0.0
H556 H 0.79735 0.79494 0.48614 0.0
H557 H 0.77193 0.80471 0.44324 0.0
H558 H 0.85104 0.83665 0.5305 0.0
H559 H 0.91493 0.86924 0.53579 0.0
C560 C 0.22424 0.90823 0.41598 0.0
C561 C 0.24231 0.9531 0.39694 0.0
C562 C 0.2539 0.99813 0.46633 0.0
C563 C 0.22106 0.95325 0.48283 0.0
N564 N 0.18947 0.86604 0.47921 0.0
N565 N 0.27829 0.04189 0.40405 0.0
C566 C 0.21194 0.90826 0.45952 0.0
C567 C 0.25942 0.99868 0.42214 0.0
N568 N 0.21811 0.86606 0.39217 0.0
N569 N 0.27965 0.03953 0.49281 0.0
H570 H 0.28288 0.04344 0.37158 0.0
H571 H 0.28621 0.07559 0.42118 0.0
H572 H 0.27903 0.03834 0.52529 0.0
H573 H 0.30616 0.07274 0.48233 0.0
H574 H 0.20529 0.83223 0.40397 0.0
H575 H 0.22864 0.8655 0.36053 0.0
H576 H 0.17765 0.83066 0.46423 0.0
H577 H 0.18282 0.8673 0.51169 0.0
C578 C 0.13946 0.87674 0.6963 0.0
C579 C 0.11698 0.88246 0.7354 0.0
C580 C 0.07364 0.91834 0.70215 0.0
C581 C 0.09481 0.9108 0.66298 0.0
N582 N 0.13955 0.87402 0.62061 0.0
N583 N 0.0573 0.90092 0.77531 0.0
C584 C 0.1247 0.88678 0.65937 0.0
C585 C 0.08219 0.90078 0.73825 0.0
N586 N 0.17727 0.86476 0.69477 0.0
N587 N 0.04653 0.94324 0.70481 0.0
H588 H 0.0634 0.88871 0.80226 0.0
H589 H 1.02835 0.90975 0.77866 0.0
H590 H 1.03849 0.955 0.6785 0.0
H591 H 1.03394 0.95427 0.73302 0.0
H592 H 0.19921 0.86633 0.66809 0.0
H593 H 0.19 0.85734 0.72098 0.0
H594 H 0.15592 0.85093 0.6159 0.0
H595 H 0.13217 0.88302 0.59252 0.0
C596 C 0.2217 0.15298 0.69276 0.0
C597 C 0.20336 0.17358 0.72684 0.0
C598 C 0.12584 0.14328 0.69052 0.0
C599 C 0.14867 0.13296 0.65322 0.0
N600 N 0.22055 0.13285 0.61764 0.0
N601 N 0.13883 0.19082 0.75849 0.0
C602 C 0.19697 0.13824 0.65405 0.0
C603 C 0.15526 0.16873 0.72626 0.0
N604 N 0.26336 0.14867 0.69744 0.0
N605 N 0.07613 0.12814 0.69197 0.0
H606 H 0.15912 0.20894 0.78563 0.0
H607 H 0.10646 0.19367 0.7571 0.0
H608 H 0.05299 0.10819 0.66665 0.0
H609 H 0.05714 0.13103 0.71955 0.0
H610 H 0.27658 0.13064 0.67453 0.0
H611 H 0.28149 0.15866 0.72612 0.0
H612 H 0.25761 0.14091 0.61607 0.0
H613 H 0.20442 0.12539 0.58842 0.0
C614 C 0.94915 0.21443 0.60478 0.0
C615 C 0.93348 0.19643 0.64493 0.0
C616 C 0.88366 0.11311 0.61103 0.0
C617 C 0.90882 0.13031 0.57339 0.0
N618 N 0.93667 0.19529 0.52917 0.0
N619 N 0.86914 0.13364 0.68441 0.0
C620 C 0.92926 0.18077 0.56866 0.0
C621 C 0.89481 0.14719 0.64754 0.0
N622 N 0.98621 0.26106 0.60084 0.0
N623 N 0.85353 0.06382 0.61218 0.0
H624 H 0.87498 0.15863 0.71107 0.0
H625 H 0.83891 0.09925 0.68746 0.0
H626 H 0.84471 0.03968 0.58465 0.0
H627 H 0.83823 0.04714 0.63965 0.0
H628 H 1.00062 0.27394 0.57182 0.0
H629 H 1.00573 0.28542 0.62628 0.0
H630 H 0.95005 0.23189 0.52326 0.0
H631 H 0.92503 0.16918 0.50288 0.0
C632 C 0.87036 0.91353 0.70141 0.0
C633 C 0.88209 0.8772 0.71264 0.0
C634 C 0.93404 0.88756 0.64843 0.0
C635 C 0.92682 0.92769 0.63941 0.0
N636 N 0.89572 0.9854 0.66359 0.0
N637 N 0.934 0.83758 0.70114 0.0
C638 C 0.8968 0.94236 0.66751 0.0
C639 C 0.91667 0.86673 0.68745 0.0
N640 N 0.83385 0.92054 0.72304 0.0
N641 N 0.9556 0.86758 0.61896 0.0
H642 H 0.92327 0.82272 0.72984 0.0
H643 H 0.9629 0.83266 0.6863 0.0
H644 H 0.96767 0.88056 0.58959 0.0
H645 H 0.95693 0.83501 0.62192 0.0
H646 H 0.81966 0.94241 0.71347 0.0
H647 H 0.81529 0.90161 0.7489 0.0
H648 H 0.87856 1.00039 0.68554 0.0
H649 H 0.91618 1.00896 0.64089 0.0
C650 C 0.38235 0.17483 0.19416 0.0
C651 C 0.39172 0.19652 0.23745 0.0
C652 C 0.45988 0.1703 0.23237 0.0
C653 C 0.44702 0.14333 0.19086 0.0
N654 N 0.38828 0.11848 0.13545 0.0
N655 N 0.43444 0.20021 0.29906 0.0
C656 C 0.40561 0.14496 0.17328 0.0
C657 C 0.42924 0.19008 0.25646 0.0
N658 N 0.35341 0.18541 0.17113 0.0
N659 N 0.50266 0.17851 0.24974 0.0
H660 H 0.41205 0.21148 0.31822 0.0
H661 H 0.45648 0.19131 0.31592 0.0
H662 H 0.52521 0.16451 0.23545 0.0
H663 H 0.5179 0.20307 0.27639 0.0
H664 H 0.34934 0.17669 0.13872 0.0
H665 H 0.33776 0.20775 0.1835 0.0
H666 H 0.35512 0.11219 0.12293 0.0
H667 H 0.40528 0.09984 0.11788 0.0
C668 C 0.90696 0.41336 0.20309 0.0
C669 C 0.88879 0.36143 0.19642 0.0
C670 C 0.93272 0.37093 0.12798 0.0
C671 C 0.95338 0.42312 0.13581 0.0
N672 N 0.96814 0.49424 0.18462 0.0
N673 N 0.89071 0.29129 0.15595 0.0
C674 C 0.94251 0.44437 0.17439 0.0
C675 C 0.90378 0.34044 0.15995 0.0
N676 N 0.89039 0.43325 0.23698 0.0
N677 N 0.93903 0.3502 0.08937 0.0
H678 H 0.86738 0.26722 0.17735 0.0
H679 H 0.90569 0.27499 0.13306 0.0
H680 H 0.96029 0.37087 0.06528 0.0
H681 H 0.92021 0.31255 0.07997 0.0
H682 H 0.89735 0.46987 0.24083 0.0
H683 H 0.86683 0.41248 0.26011 0.0
H684 H 0.966 0.51169 0.21402 0.0
H685 H 0.99543 0.51798 0.1651 0.0
C686 C 0.75805 0.89199 0.22911 0.0
C687 C 0.74595 0.84041 0.22556 0.0
C688 C 0.69309 0.83267 0.16318 0.0
C689 C 0.7018 0.88356 0.16885 0.0
N690 N 0.73772 0.95736 0.21679 0.0
N691 N 0.69263 0.7611 0.19016 0.0
C692 C 0.7333 0.91169 0.20436 0.0
C693 C 0.71035 0.81098 0.19316 0.0
N694 N 0.79376 0.92341 0.25694 0.0
N695 N 0.67119 0.80478 0.12693 0.0
H696 H 0.70587 0.74417 0.20839 0.0
H697 H 0.66225 0.7364 0.17206 0.0
H698 H 0.66074 0.81823 0.10335 0.0
H699 H 0.66868 0.77018 0.1178 0.0
H700 H 0.81017 0.96164 0.25756 0.0
H701 H 0.80923 0.91121 0.27778 0.0
H702 H 0.75451 0.97814 0.24458 0.0
H703 H 0.71966 0.97227 0.20178 0.0
C704 C 0.25671 0.62825 0.18822 0.0
C705 C 0.25838 0.67571 0.1949 0.0
C706 C 0.19986 0.65068 0.13907 0.0
C707 C 0.20281 0.60655 0.12692 0.0
N708 N 0.24093 0.55634 0.138 0.0
N709 N 0.24759 0.73645 0.16217 0.0
C710 C 0.23345 0.59602 0.15089 0.0
C711 C 0.23579 0.68844 0.16512 0.0
N712 N 0.27533 0.6131 0.21753 0.0
N713 N 0.16036 0.65525 0.12826 0.0
H714 H 0.2764 0.76572 0.17918 0.0
H715 H 0.23258 0.74662 0.13922 0.0
H716 H 0.12895 0.62432 0.11633 0.0
H717 H 0.15637 0.68675 0.13763 0.0
H718 H 0.27085 0.57737 0.21601 0.0
H719 H 0.29252 0.63526 0.24469 0.0
H720 H 0.26646 0.54946 0.15194 0.0
H721 H 0.22379 0.5323 0.11153 0.0
C722 C 0.45679 0.89314 0.91721 0.0
C723 C 0.40903 0.85186 0.92084 0.0
C724 C 0.42489 0.85716 0.99742 0.0
C725 C 0.47174 0.89956 0.99413 0.0
N726 N 0.52942 0.96163 0.95108 0.0
N727 N 0.34485 0.79973 0.96681 0.0
C728 C 0.4866 0.91858 0.95403 0.0
C729 C 0.39234 0.83563 0.96174 0.0
N730 N 0.47416 0.90799 0.8782 0.0
N731 N 0.41182 0.83662 0.03472 0.0
H732 H 0.32066 0.78172 0.94185 0.0
H733 H 0.32818 0.78982 0.99599 0.0
H734 H 0.43302 0.85291 0.06171 0.0
H735 H 0.38164 0.80237 0.03847 0.0
H736 H 0.51057 0.93316 0.87184 0.0
H737 H 0.45275 0.89306 0.85124 0.0
H738 H 0.54 0.98112 0.92469 0.0
H739 H 0.5532 0.98023 0.97621 0.0
C740 C 0.22328 0.36812 0.86981 0.0
C741 C 0.21184 0.3176 0.8679 0.0
C742 C 0.14809 0.30456 0.92301 0.0
C743 C 0.15875 0.35467 0.92393 0.0
N744 N 0.1961 0.4298 0.89 0.0
N745 N 0.1558 0.23542 0.88529 0.0
C746 C 0.19312 0.38506 0.89472 0.0
C747 C 0.1719 0.28511 0.89231 0.0
N748 N 0.26472 0.40086 0.85012 0.0
N749 N 0.11676 0.27599 0.95247 0.0
H750 H 0.17188 0.21988 0.86268 0.0
H751 H 0.12373 0.20936 0.89888 0.0
H752 H 0.09737 0.28818 0.97458 0.0
H753 H 0.11245 0.24133 0.95684 0.0
H754 H 0.27788 0.4389 0.85469 0.0
H755 H 0.28884 0.39087 0.83237 0.0
H756 H 0.21655 0.45122 0.86602 0.0
H757 H 0.17411 0.44323 0.90725 0.0
C758 C 0.71903 0.18765 0.94171 0.0
C759 C 0.74117 0.17432 0.90506 0.0
C760 C 0.71403 0.09343 0.93328 0.0
C761 C 0.6984 0.10951 0.97246 0.0
N762 N 0.69197 0.1762 1.01487 0.0
N763 N 0.76313 0.1143 0.86864 0.0
C764 C 0.70235 0.15778 0.97673 0.0
C765 C 0.73981 0.12722 0.90187 0.0
N766 N 0.71303 0.22873 0.94291 0.0
N767 N 0.70129 0.04462 0.92472 0.0
H768 H 0.78018 0.13648 0.84425 0.0
H769 H 0.76851 0.08326 0.86683 0.0
H770 H 0.68035 0.01868 0.94565 0.0
H771 H 0.7064 0.02908 0.89528 0.0
H772 H 0.69389 0.23894 0.96679 0.0
H773 H 0.72252 0.24969 0.91748 0.0
H774 H 0.69931 0.21278 1.02184 0.0
H775 H 0.67987 0.15599 0.04087 0.0
C776 C 1.02102 0.66254 0.88606 0.0
C777 C 0.04656 0.71437 0.89652 0.0
C778 C 0.09622 0.70447 0.94721 0.0
C779 C 0.07065 0.65237 0.93689 0.0
N780 N 1.02355 0.58534 0.88583 0.0
N781 N 0.12004 0.78463 0.92424 0.0
C782 C 1.03787 0.63257 0.90267 0.0
C783 C 0.08843 0.73523 0.92251 0.0
N784 N 0.97918 0.6415 0.8626 0.0
N785 N 0.12433 0.72485 0.98251 0.0
H786 H 0.11508 0.80789 0.90617 0.0
H787 H 0.15362 0.8011 0.93987 0.0
H788 H 0.12985 0.7047 1.00341 0.0
H789 H 0.13863 0.76209 0.99337 0.0
H790 H 0.9566 0.6035 0.85802 0.0
H791 H 0.96491 0.66187 0.85033 0.0
H792 H 1.00258 0.56977 0.85868 0.0
H793 H 1.03853 0.56458 0.89627 0.0
C794 C 0.052 0.30005 0.17875 0.0
C795 C 0.08544 0.28026 0.16977 0.0
C796 C 0.10928 0.31714 0.10329 0.0
C797 C 0.0796 0.34076 0.11386 0.0
N798 N 1.02755 0.36071 0.16336 0.0
N799 N 0.15727 0.28398 0.12995 0.0
C800 C 0.05188 0.33367 0.152 0.0
C801 C 0.11717 0.2925 0.13377 0.0
N802 N 1.02092 0.287 0.21286 0.0
N803 N 0.1298 0.3178 0.06388 0.0
H804 H 0.16735 0.26916 0.15273 0.0
H805 H 0.1842 0.29722 0.10642 0.0
H806 H 0.12573 0.33616 0.04038 0.0
H807 H 0.14693 0.29621 0.05331 0.0
H808 H 0.99215 0.29591 0.21878 0.0
H809 H 1.02242 0.26478 0.23417 0.0
H810 H 1.01 0.36057 0.1924 0.0
H811 H 1.02822 0.38639 0.14463 0.0
C812 C 0.27306 0.66124 0.91974 0.0
C813 C 0.24567 0.66468 0.88753 0.0
C814 C 0.17305 0.58982 0.90681 0.0
C815 C 0.19835 0.59013 0.9424 0.0
N816 N 0.27039 0.63161 0.98676 0.0
N817 N 0.16788 0.636 0.85321 0.0
C818 C 0.24798 0.62701 0.94984 0.0
C819 C 0.19505 0.63021 0.88203 0.0
N820 N 0.32303 0.69086 0.92191 0.0
N821 N 0.12902 0.54981 0.89549 0.0
H822 H 0.18324 0.66365 0.83297 0.0
H823 H 0.12955 0.61559 0.85146 0.0
H824 H 0.11277 0.51844 0.91171 0.0
H825 H 0.11123 0.54542 0.86757 0.0
H826 H 0.34567 0.68557 0.94128 0.0
H827 H 0.34257 0.71881 0.90242 0.0
H828 H 0.30401 0.66161 0.99593 0.0
H829 H 0.25382 0.60812 1.01026 0.0
C830 C 0.46773 0.111 0.93552 0.0
C831 C 0.44841 0.14354 0.95112 0.0
C832 C 0.48489 0.15636 1.01958 0.0
C833 C 0.50477 0.12408 1.00421 0.0
N834 N 0.52437 0.07878 0.94617 0.0
N835 N 0.45125 0.20865 1.00237 0.0
C836 C 0.49927 0.10407 0.96153 0.0
C837 C 0.46143 0.17016 0.99129 0.0
N838 N 0.45426 0.08542 0.89671 0.0
N839 N 0.48596 0.17186 0.06156 0.0
H840 H 0.43378 0.21964 0.98228 0.0
H841 H 0.46456 0.23268 0.02959 0.0
H842 H 0.50297 0.16325 0.08388 0.0
H843 H 0.46659 0.19031 0.07491 0.0
H844 H 0.46265 0.05717 0.88526 0.0
H845 H 0.4324 0.09095 0.87659 0.0
H846 H 0.52528 0.06658 0.91453 0.0
H847 H 0.54781 0.07362 0.96483 0.0
C848 C 0.84406 0.37161 0.94867 0.0
C849 C 0.85147 0.38491 0.90718 0.0
C850 C 0.93725 0.44343 0.9214 0.0
C851 C 0.93254 0.42504 0.96087 0.0
N852 N 0.8796 0.38277 1.01739 0.0
N853 N 0.89384 0.45104 0.86455 0.0
C854 C 0.88494 0.393 0.97651 0.0
C855 C 0.89433 0.42744 0.89754 0.0
N856 N 0.79811 0.33814 0.96047 0.0
N857 N 0.98267 0.47172 0.90458 0.0
H858 H 0.86102 0.43952 0.84857 0.0
H859 H 0.92348 0.48417 0.85688 0.0
H860 H 1.01542 0.48438 0.92083 0.0
H861 H 0.98758 0.47937 0.87325 0.0
H862 H 0.78926 0.32308 0.98913 0.0
H863 H 0.76834 0.32738 0.94085 0.0
H864 H 0.84614 0.3601 0.03144 0.0
H865 H 0.9091 0.39996 0.03807 0.0
C866 C 0.77267 0.90512 0.89899 0.0
C867 C 0.76453 0.85571 0.89805 0.0
C868 C 0.72075 0.8497 0.96694 0.0
C869 C 0.72432 0.89725 0.96608 0.0
N870 N 0.74983 0.96831 0.92798 0.0
N871 N 0.7214 0.77786 0.92753 0.0
C872 C 0.74951 0.92453 0.93124 0.0
C873 C 0.73595 0.82725 0.93109 0.0
N874 N 0.80364 0.93406 0.86959 0.0
N875 N 0.70506 0.82667 1.00298 0.0
H876 H 0.73049 0.7599 0.90148 0.0
H877 H 0.69645 0.75399 0.94824 0.0
H878 H 0.6953 0.84234 0.0303 0.0
H879 H 0.7067 0.79456 1.00724 0.0
H880 H 0.81595 0.97187 0.87094 0.0
H881 H 0.82003 0.92082 0.84527 0.0
H882 H 0.76227 0.98737 0.90135 0.0
H883 H 0.73434 0.98402 0.95087 0.0
C884 C 1.00993 0.74688 0.13765 0.0
C885 C 1.03736 0.76223 0.17556 0.0
C886 C 0.05654 0.69379 0.16115 0.0
C887 C 1.03579 0.68333 0.12076 0.0
N888 N 0.99934 0.70444 0.06745 0.0
N889 N 0.09496 0.75601 0.21905 0.0
C890 C 1.01445 0.71124 0.10796 0.0
C891 C 0.0633 0.73744 0.18597 0.0
N892 N 0.97737 0.76385 0.13096 0.0
N893 N 0.06791 0.66099 0.17645 0.0
H894 H 0.10175 0.78884 0.2373 0.0
H895 H 0.11802 0.74149 0.22555 0.0
H896 H 0.06094 0.62728 0.15969 0.0
H897 H 0.0793 0.66492 0.20722 0.0
H898 H 0.95329 0.74992 0.10568 0.0
H899 H 0.97048 0.78794 0.15265 0.0
H900 H 0.98864 0.72777 0.05533 0.0
H901 H 1.00115 0.67779 0.04508 0.0
C902 C 0.46914 0.89801 0.25702 0.0
C903 C 0.43268 0.85218 0.2385 0.0
C904 C 0.47519 0.86795 0.17078 0.0
C905 C 0.50253 0.91782 0.18669 0.0
N906 N 0.53332 0.98021 0.24499 0.0
N907 N 0.40259 0.79015 0.17936 0.0
C908 C 0.50272 0.93263 0.23017 0.0
C909 C 0.43683 0.83559 0.19598 0.0
N910 N 0.47067 0.9085 0.29975 0.0
N911 N 0.48554 0.85227 0.13145 0.0
H912 H 0.37533 0.76478 0.19773 0.0
H913 H 0.39998 0.77838 0.14734 0.0
H914 H 0.51437 0.87584 0.11299 0.0
H915 H 0.46922 0.81546 0.11903 0.0
H916 H 0.4985 0.93996 0.31532 0.0
H917 H 0.446 0.88365 0.32 0.0
H918 H 0.53158 0.99545 0.27548 0.0
H919 H 0.56029 1.00469 0.22582 0.0
C920 C 0.64542 0.15723 0.21956 0.0
C921 C 0.6889 0.16173 0.23676 0.0
C922 C 0.6653 0.07647 0.20891 0.0
C923 C 0.63541 0.08189 0.18118 0.0
N924 N 0.56464 0.09232 0.20048 0.0
N925 N 0.72704 0.11735 0.26311 0.0
C926 C 0.6144 0.11177 0.19764 0.0
C927 C 0.69452 0.11825 0.23686 0.0
N928 N 0.63422 0.19518 0.22195 0.0
N929 N 0.66666 0.03286 0.20667 0.0
H930 H 0.74402 0.14554 0.28687 0.0
H931 H 0.73547 0.08839 0.26257 0.0
H932 H 0.64484 1.00335 0.18515 0.0
H933 H 0.68634 0.02523 0.22723 0.0
H934 H 0.60388 0.19167 0.20631 0.0
H935 H 0.65617 0.23019 0.23669 0.0
H936 H 0.54802 0.10926 0.22071 0.0
H937 H 0.54147 0.05674 0.18729 0.0
C938 C 0.76559 0.69197 0.93422 0.0
C939 C 0.76131 0.66975 0.8922 0.0
C940 C 0.71318 0.58797 0.91861 0.0
C941 C 0.71259 0.611 0.95979 0.0
N942 N 0.72831 0.68597 1.0036 0.0
N943 N 0.72796 0.59657 0.84349 0.0
C944 C 0.73606 0.66328 0.96669 0.0
C945 C 0.73423 0.61761 0.88413 0.0
N946 N 0.79822 0.74061 0.94351 0.0
N947 N 0.69339 0.53778 0.91244 0.0
H948 H 0.7447 0.61704 0.818 0.0
H949 H 0.70424 0.55954 0.8348 0.0
H950 H 0.67627 0.51511 0.93653 0.0
H951 H 0.69669 0.51879 0.88428 0.0
H952 H 0.80639 0.75736 0.97421 0.0
H953 H 0.82071 0.76309 0.92091 0.0
H954 H 0.7399 0.72375 1.00851 0.0
H955 H 0.70572 0.66648 0.02764 0.0
C956 C 0.56794 0.72424 0.90424 0.0
C957 C 0.53826 0.68719 0.87303 0.0
C958 C 0.55474 0.62738 0.90354 0.0
C959 C 0.5742 0.66132 0.93968 0.0
N960 N 0.59694 0.74249 0.97563 0.0
N961 N 0.50236 0.60242 0.84278 0.0
C962 C 0.58137 0.71034 0.94007 0.0
C963 C 0.53215 0.63858 0.87205 0.0
N964 N 0.58278 0.77264 0.89974 0.0
N965 N 0.55766 0.58429 0.89972 0.0
H966 H 0.48532 0.6091 0.81907 0.0
H967 H 0.49191 0.56521 0.84365 0.0
H968 H 0.57487 0.57595 0.92222 0.0
H969 H 0.54776 0.55957 0.87265 0.0
H970 H 0.60837 0.80169 0.91939 0.0
H971 H 0.57335 0.78366 0.87369 0.0
H972 H 0.59676 0.77636 0.97912 0.0
H973 H 0.60691 0.73429 1.0029 0.0
C974 C 0.46501 0.40966 0.88221 0.0
C975 C 0.41296 0.38781 0.88585 0.0
C976 C 0.41792 0.42377 0.95881 0.0
C977 C 0.46955 0.44258 0.95591 0.0
N978 N 0.54393 0.46726 0.9136 0.0
N979 N 0.34045 0.38618 0.92209 0.0
C980 C 0.49366 0.44048 0.91689 0.0
C981 C 0.38955 0.39914 0.92232 0.0
N982 N 0.48672 0.39939 0.84631 0.0
N983 N 0.39614 0.42733 0.99687 0.0
H984 H 0.31876 0.36828 0.89578 0.0
H985 H 0.32227 0.3971 0.94638 0.0
H986 H 0.41673 0.44739 0.02353 0.0
H987 H 0.35817 0.40904 1.00248 0.0
H988 H 0.52422 0.40952 0.84341 0.0
H989 H 0.46661 0.37858 0.81965 0.0
H990 H 0.5636 0.47058 0.88532 0.0
H991 H 0.5657 0.48998 0.93885 0.0
C992 C 0.62539 0.28282 0.98071 0.0
C993 C 0.64175 0.29727 0.93992 0.0
C994 C 0.69861 0.38061 0.96987 0.0
C995 C 0.67214 0.36863 1.00798 0.0
N996 N 0.62807 0.30617 0.05493 0.0
N997 N 0.70954 0.35211 0.898 0.0
C998 C 0.64344 0.31877 1.01532 0.0
C999 C 0.6839 0.34384 0.93524 0.0
N1000 N 0.59139 0.23582 0.98677 0.0
N1001 N 0.73484 0.4277 0.96648 0.0
H1002 H 0.70128 0.32417 0.87356 0.0
H1003 H 0.74143 0.38441 0.89259 0.0
H1004 H 0.74774 0.45344 0.99282 0.0
H1005 H 0.75227 0.44115 0.93839 0.0
H1006 H 0.58084 0.2247 1.01694 0.0
H1007 H 0.57459 0.2087 0.96206 0.0
H1008 H 0.63981 0.33198 0.08139 0.0
H1009 H 0.63981 0.33198 0.08139 0.0
C1010 C 0.57424 0.34195 0.20953 0.0
C1011 C 0.5771 0.37108 0.24821 0.0
C1012 C 0.56246 0.42819 0.21215 0.0
C1013 C 0.56873 0.40425 0.1734 0.0
N1014 N 0.55825 0.3277 0.13491 0.0
N1015 N 0.55323 0.42714 0.28832 0.0
C1016 C 0.56664 0.35728 0.172 0.0
C1017 C 0.5629 0.40866 0.25 0.0
N1018 N 0.58354 0.30264 0.20777 0.0
N1019 N 0.55793 0.47012 0.21258 0.0
H1020 H 0.55462 0.41287 0.31589 0.0
H1021 H 0.54033 0.45309 0.29248 0.0
H1022 H 0.55599 0.48387 0.18497 0.0
H1023 H 0.55729 0.4918 0.23989 0.0
H1024 H 0.59103 0.28605 0.17988 0.0
H1025 H 0.58443 0.28645 0.23405 0.0
H1026 H 0.55033 0.29083 0.13311 0.0
H1027 H 0.55494 0.33826 0.10612 0.0
C1028 C 0.80559 0.68205 0.16258 0.0
C1029 C 0.79173 0.66595 0.20327 0.0
C1030 C 0.71032 0.60452 0.17892 0.0
C1031 C 0.72065 0.62588 0.14012 0.0
N1032 N 0.78255 0.66995 0.0892 0.0
N1033 N 0.74582 0.59367 0.23963 0.0
C1034 C 0.76999 0.66002 0.12996 0.0
C1035 C 0.74918 0.62052 0.20762 0.0
N1036 N 0.8524 0.71803 0.15557 0.0
N1037 N 0.66322 0.57254 0.19034 0.0
H1038 H 0.77542 0.60462 0.2597 0.0
H1039 H 0.71669 0.55851 0.24273 0.0
H1040 H 0.63255 0.56155 0.17177 0.0
H1041 H 0.65408 0.56042 0.22026 0.0
H1042 H 0.8638 0.73592 0.12829 0.0
H1043 H 0.88018 0.72917 0.17759 0.0
H1044 H 0.81815 0.69296 0.0789 0.0
H1045 H 0.75762 0.65091 0.06491 0.0
C1046 C 0.45033 0.68429 0.19634 0.0
C1047 C 0.47211 0.67768 0.23119 0.0
C1048 C 0.52772 0.65813 0.18495 0.0
C1049 C 0.50864 0.66848 0.15013 0.0
N1050 N 0.45784 0.69817 0.12261 0.0
N1051 N 0.53605 0.66685 0.2605 0.0
C1052 C 0.47167 0.68361 0.15578 0.0
C1053 C 0.51244 0.66752 0.22607 0.0
N1054 N 0.40841 0.68955 0.2019 0.0
N1055 N 0.55795 0.63642 0.17876 0.0
H1056 H 0.52508 0.67262 0.29135 0.0
H1057 H 0.56877 0.6643 0.25858 0.0
H1058 H 0.56921 0.62674 0.14933 0.0
H1059 H 0.56798 0.62294 0.20265 0.0
H1060 H 0.38746 0.68817 0.17707 0.0
H1061 H 0.39225 0.69153 0.23135 0.0
H1062 H 0.43449 0.71426 0.12562 0.0
H1063 H 0.4731 0.69787 0.09247 0.0
C1064 C 0.41745 0.36845 0.17898 0.0
C1065 C 0.39739 0.38675 0.21398 0.0
C1066 C 0.44049 0.46897 0.18732 0.0
C1067 C 0.45537 0.44887 0.15009 0.0
N1068 N 0.44379 0.37545 0.10601 0.0
N1069 N 0.38229 0.45345 0.24601 0.0
C1070 C 0.43976 0.39745 0.14464 0.0
C1071 C 0.40701 0.43688 0.21675 0.0
N1072 N 0.41785 0.32446 0.17917 0.0
N1073 N 0.45897 0.51888 0.19507 0.0
H1074 H 0.35578 0.43087 0.26665 0.0
H1075 H 0.38414 0.48809 0.24684 0.0
H1076 H 0.48287 0.54326 0.17418 0.0
H1077 H 0.45395 0.53617 0.22364 0.0
H1078 H 0.43618 0.31197 0.15612 0.0
H1079 H 0.40539 0.30353 0.20471 0.0
H1080 H 0.42861 0.33731 0.09939 0.0
H1081 H 0.45813 0.39506 0.07974 0.0
C1082 C 0.88164 0.6642 0.72343 0.0
C1083 C 0.85386 0.6876 0.71341 0.0
C1084 C 0.86524 0.66617 0.63762 0.0
C1085 C 0.89738 0.64763 0.64768 0.0
N1086 N 0.93995 0.63319 0.70053 0.0
N1087 N 0.82533 0.71703 0.66024 0.0
C1088 C 0.90655 0.64783 0.69075 0.0
C1089 C 0.84678 0.68969 0.67027 0.0
N1090 N 0.88297 0.65629 0.76432 0.0
N1091 N 0.85262 0.66178 0.59664 0.0
H1092 H 0.81135 0.73474 0.68271 0.0
H1093 H 0.82482 0.72553 0.62984 0.0
H1094 H 0.86713 0.64715 0.5718 0.0
H1095 H 0.82513 0.66924 0.5875 0.0
H1096 H 0.89836 0.63538 0.77366 0.0
H1097 H 0.86443 0.6668 0.7887 0.0
H1098 H 0.95303 0.63793 0.73076 0.0
H1099 H 0.95722 0.61904 0.67784 0.0
C1100 C 0.41588 0.87838 0.68956 0.0
C1101 C 0.38665 0.88644 0.7232 0.0
C1102 C 0.40561 0.9643 0.69536 0.0
C1103 C 0.42749 0.95145 0.65857 0.0
N1104 N 0.43436 0.88522 0.61558 0.0
N1105 N 0.34037 0.93103 0.74695 0.0
C1106 C 0.42675 0.90506 0.654 0.0
C1107 C 0.37757 0.92772 0.72315 0.0
N1108 N 0.43598 0.84769 0.69196 0.0
N1109 N 0.41236 0.01132 0.70479 0.0
H1110 H 0.31411 0.90243 0.76317 0.0
H1111 H 0.33118 0.95925 0.74522 0.0
H1112 H 0.43497 0.04014 0.68695 0.0
H1113 H 0.39997 0.02257 0.73312 0.0
H1114 H 0.45855 0.8425 0.66814 0.0
H1115 H 0.43686 0.83403 0.71986 0.0
H1116 H 0.43011 0.84944 0.61066 0.0
H1117 H 0.43919 0.90231 0.58822 0.0
C1118 C 0.15079 0.37105 0.61921 0.0
C1119 C 0.16482 0.3963 0.6599 0.0
C1120 C 0.11353 0.43644 0.65429 0.0
C1121 C 0.10258 0.41412 0.6124 0.0
N1122 N 0.09708 0.3482 0.55997 0.0
N1123 N 0.15108 0.44248 0.72068 0.0
C1124 C 0.11617 0.37702 0.5967 0.0
C1125 C 0.14303 0.42537 0.67908 0.0
N1126 N 0.17307 0.34395 0.60096 0.0
N1127 N 0.09707 0.46953 0.66943 0.0
H1128 H 0.17287 0.43491 0.7392 0.0
H1129 H 0.13361 0.46099 0.73764 0.0
H1130 H 0.07283 0.47558 0.65255 0.0
H1131 H 0.10792 0.49155 0.69787 0.0
H1132 H 0.16997 0.33064 0.56927 0.0
H1133 H 0.19758 0.33728 0.61673 0.0
H1134 H 0.10172 0.31736 0.54961 0.0
H1135 H 0.07209 0.35115 0.54172 0.0
C1136 C 0.76952 0.16639 0.66648 0.0
C1137 C 0.7566 0.16093 0.70947 0.0
C1138 C 0.67145 0.10224 0.69028 0.0
C1139 C 0.68207 0.11835 0.64947 0.0
N1140 N 0.74129 0.15636 0.59516 0.0
N1141 N 0.69824 0.11759 0.76271 0.0
C1142 C 0.73151 0.14665 0.63618 0.0
C1143 C 0.70873 0.12552 0.72131 0.0
N1144 N 0.81811 0.19196 0.65545 0.0
N1145 N 0.62542 0.06586 0.69928 0.0
H1146 H 0.72564 0.13271 0.78542 0.0
H1147 H 0.66281 0.09708 0.77472 0.0
H1148 H 0.59779 0.04868 0.67676 0.0
H1149 H 0.61581 0.04987 0.72754 0.0
H1150 H 0.83131 0.19527 0.62455 0.0
H1151 H 0.84558 0.20756 0.67815 0.0
H1152 H 0.77568 0.18092 0.5837 0.0
H1153 H 0.71392 0.13929 0.57248 0.0
C1154 C 0.87871 0.34276 0.43097 0.0
C1155 C 0.88489 0.36621 0.3935 0.0
C1156 C 0.88935 0.4388 0.43648 0.0
C1157 C 0.89428 0.41931 0.47174 0.0
N1158 N 0.86322 0.34677 0.50675 0.0
N1159 N 0.91154 0.44364 0.36328 0.0
C1160 C 0.87581 0.36821 0.47004 0.0
C1161 C 0.89385 0.41624 0.39676 0.0
N1162 N 0.8811 0.29962 0.43004 0.0
N1163 N 0.88466 0.48071 0.44129 0.0
H1164 H 0.92363 0.43114 0.3354 0.0
H1165 H 0.92083 0.48093 0.36547 0.0
H1166 H 0.88212 0.49695 0.47126 0.0
H1167 H 0.87793 0.49507 0.41608 0.0
H1168 H 0.87796 0.2823 0.45686 0.0
H1169 H 0.89423 0.28536 0.40399 0.0
H1170 H 0.84775 0.30886 0.50819 0.0
H1171 H 0.86476 0.36775 0.53532 0.0
C1172 C 0.66231 0.85041 0.42293 0.0
C1173 C 0.62636 0.8276 0.39094 0.0
C1174 C 0.60302 0.89321 0.40607 0.0
C1175 C 0.62927 0.90763 0.44429 0.0
N1176 N 0.69013 0.90324 0.4863 0.0
N1177 N 0.56402 0.82847 0.34973 0.0
C1178 C 0.66139 0.88825 0.4516 0.0
C1179 C 0.59789 0.85 0.38107 0.0
N1180 N 0.69664 0.83487 0.42698 0.0
N1181 N 0.58274 0.92085 0.39434 0.0
H1182 H 0.55965 0.79683 0.33088 0.0
H1183 H 0.5385 0.84024 0.34399 0.0
H1184 H 0.58709 0.95321 0.41219 0.0
H1185 H 0.56623 0.91466 0.36538 0.0
H1186 H 0.72306 0.85049 0.45059 0.0
H1187 H 0.70037 0.80867 0.40535 0.0
H1188 H 0.69194 0.93055 0.50971 0.0
H1189 H 0.69194 0.93055 0.50971 0.0
C1190 C 0.1459 0.70793 0.39899 0.0
C1191 C 0.19268 0.71242 0.38543 0.0
C1192 C 0.17382 0.63751 0.41367 0.0
C1193 C 0.13256 0.63725 0.43584 0.0
N1194 N 0.08489 0.68173 0.45515 0.0
N1195 N 0.25759 0.69566 0.40411 0.0
C1196 C 0.11945 0.67502 0.43019 0.0
C1197 C 0.20889 0.68184 0.40072 0.0
N1198 N 0.12647 0.73347 0.38224 0.0
N1199 N 0.18053 0.59663 0.40596 0.0
H1200 H 0.28386 0.73163 0.39999 0.0
H1201 H 0.26983 0.67371 0.41673 0.0
H1202 H 0.1528 0.56162 0.41197 0.0
H1203 H 0.2114 0.59758 0.38922 0.0
H1204 H 0.09054 0.72779 0.38912 0.0
H1205 H 0.1451 0.75761 0.35947 0.0
H1206 H 0.07808 0.71152 0.45356 0.0
H1207 H 0.06684 0.66099 0.47999 0.0
C1208 C 0.57983 0.27755 0.458 0.0
C1209 C 0.53456 0.25863 0.43654 0.0
C1210 C 0.51466 0.17532 0.44975 0.0
C1211 C 0.55161 0.19553 0.48058 0.0
N1212 N 0.63413 0.25986 0.49648 0.0
N1213 N 0.45764 0.18876 0.41209 0.0
C1214 C 0.58913 0.24508 0.47947 0.0
C1215 C 0.50215 0.20711 0.43136 0.0
N1216 N 0.61275 0.3266 0.45875 0.0
N1217 N 0.49255 0.12589 0.43769 0.0
H1218 H 0.44545 0.21068 0.39954 0.0
H1219 H 0.43081 0.15198 0.41181 0.0
H1220 H 0.5043 0.10296 0.44916 0.0
H1221 H 0.46782 0.10932 0.41292 0.0
H1222 H 0.6439 0.34434 0.4775 0.0
H1223 H 0.60814 0.35026 0.44092 0.0
H1224 H 0.66409 0.29476 0.49526 0.0
H1225 H 0.64351 0.23505 0.50738 0.0
C1226 C 0.57641 0.86275 0.70183 0.0
C1227 C 0.6014 0.83664 0.68239 0.0
C1228 C 0.60022 0.86476 0.61468 0.0
C1229 C 0.5789 0.89419 0.63439 0.0
N1230 N 0.55103 0.92575 0.69709 0.0
N1231 N 0.64004 0.81514 0.62049 0.0
C1232 C 0.56799 0.89437 0.67815 0.0
C1233 C 0.61405 0.83838 0.63901 0.0
N1234 N 0.55952 0.85603 0.74239 0.0
N1235 N 0.60853 0.86139 0.57233 0.0
H1236 H 0.65326 0.7967 0.63695 0.0
H1237 H 0.64989 0.81582 0.5886 0.0
H1238 H 0.59887 0.87847 0.55116 0.0
H1239 H 0.59887 0.87847 0.55116 0.0
H1240 H 0.5368 0.86997 0.75718 0.0
H1241 H 0.56522 0.83315 0.76035 0.0
H1242 H 0.54708 0.93156 0.72953 0.0
H1243 H 0.54326 0.94811 0.68022 0.0
C1244 C 0.72703 0.22006 0.43993 0.0
C1245 C 0.71851 0.19919 0.39732 0.0
C1246 C 0.65037 0.12233 0.42079 0.0
C1247 C 0.6614 0.14204 0.46342 0.0
N1248 N 0.71244 0.20779 0.51419 0.0
N1249 N 0.66239 0.1367 0.34705 0.0
C1250 C 0.70018 0.19051 0.47309 0.0
C1251 C 0.67753 0.15188 0.38772 0.0
N1252 N 0.7589 0.26901 0.44867 0.0
N1253 N 0.61517 0.07443 0.41192 0.0
H1254 H 0.67958 0.15879 0.3228 0.0
H1255 H 0.63015 0.10505 0.33779 0.0
H1256 H 0.59323 0.05235 0.43508 0.0
H1257 H 0.60949 0.0554 0.38203 0.0
H1258 H 0.76205 0.2881 0.47833 0.0
H1259 H 0.77889 0.29184 0.42544 0.0
H1260 H 0.74463 0.23951 0.52353 0.0
H1261 H 0.69082 0.18923 0.53919 0.0
C1262 C 0.87473 0.65452 0.38129 0.0
C1263 C 0.88064 0.70412 0.38769 0.0
C1264 C 0.92711 0.71155 0.4542 0.0
C1265 C 0.92536 0.66357 0.44581 0.0
N1266 N 0.90361 0.59494 0.39281 0.0
N1267 N 0.92248 0.78166 0.42985 0.0
C1268 C 0.90038 0.63677 0.40707 0.0
C1269 C 0.91017 0.73285 0.42381 0.0
N1270 N 0.8444 0.62341 0.34981 0.0
N1271 N 0.94182 0.73641 0.49307 0.0
H1272 H 0.9093 0.79805 0.41099 0.0
H1273 H 0.9489 0.80652 0.45133 0.0
H1274 H 0.95149 0.72236 0.51675 0.0
H1275 H 0.93887 0.76818 0.50359 0.0
H1276 H 0.83275 0.58562 0.34605 0.0
H1277 H 0.82809 0.63499 0.32916 0.0
H1278 H 0.89138 0.57572 0.36341 0.0
H1279 H 0.92383 0.58271 0.40837 0.0
C1280 C 0.39879 0.93955 0.39573 0.0
C1281 C 0.35557 0.89447 0.402 0.0
C1282 C 0.363 0.91879 0.47859 0.0
C1283 C 0.41161 0.95661 0.47239 0.0
N1284 N 0.47706 1.00234 0.42426 0.0
N1285 N 0.29321 0.84351 0.44988 0.0
C1286 C 0.42926 0.96786 0.43076 0.0
C1287 C 0.33629 0.88519 0.44365 0.0
N1288 N 0.41189 0.95507 0.35645 0.0
N1289 N 0.34321 0.91469 0.51835 0.0
H1290 H 0.27131 0.81975 0.42516 0.0
H1291 H 0.27982 0.83149 0.47933 0.0
H1292 H 0.36281 0.93917 0.54386 0.0
H1293 H 0.30663 0.89058 0.52541 0.0
H1294 H 0.43974 0.99017 0.35117 0.0
H1295 H 0.39265 0.93516 0.32937 0.0
H1296 H 0.49443 1.00693 0.39478 0.0
H1297 H 0.50062 0.02446 0.44863 0.0
C1298 C 0.18669 0.35234 0.37301 0.0
C1299 C 0.23912 0.36999 0.3764 0.0
C1300 C 0.23345 0.43335 0.43351 0.0
C1301 C 0.18248 0.42001 0.42566 0.0
N1302 N 0.11854 0.3724 0.37428 0.0
N1303 N 0.3125 0.43978 0.40575 0.0
C1304 C 0.16174 0.38115 0.39143 0.0
C1305 C 0.26219 0.414 0.40554 0.0
N1306 N 0.15893 0.30606 0.35401 0.0
N1307 N 0.25506 0.4631 0.46905 0.0
H1308 H 0.33481 0.43019 0.38486 0.0
H1309 H 0.33162 0.47414 0.42279 0.0
H1310 H 0.23645 0.47604 0.49123 0.0
H1311 H 0.28962 0.46999 0.47891 0.0
H1312 H 0.12069 0.28983 0.3518 0.0
H1313 H 0.17332 0.28167 0.34546 0.0
H1314 H 0.10372 0.34799 0.34748 0.0
H1315 H 0.10149 0.39447 0.38276 0.0
C1316 C 0.44299 0.22794 0.74261 0.0
C1317 C 0.41119 0.24286 0.7258 0.0
C1318 C 0.42714 0.21248 0.6547 0.0
C1319 C 0.45362 0.19183 0.67223 0.0
N1320 N 0.48057 0.17371 0.73394 0.0
N1321 N 0.3676 0.24357 0.66615 0.0
C1322 C 0.46014 0.19814 0.71651 0.0
C1323 C 0.402 0.23385 0.68187 0.0
N1324 N 0.45756 0.24317 0.78348 0.0
N1325 N 0.42749 0.21346 0.61209 0.0
H1326 H 0.34931 0.26034 0.68453 0.0
H1327 H 0.35455 0.23172 0.63553 0.0
H1328 H 0.44596 0.19894 0.59111 0.0
H1329 H 0.4134 0.23271 0.59782 0.0
H1330 H 0.48434 0.23754 0.7967 0.0
H1331 H 0.44644 0.26591 0.80296 0.0
H1332 H 0.48169 0.17279 0.76624 0.0
H1333 H 0.4922 0.15036 0.71613 0.0
C1334 C 0.89766 0.42789 0.7174 0.0
C1335 C 0.88043 0.37601 0.70925 0.0
C1336 C 0.91534 0.39064 0.63636 0.0
C1337 C 0.92716 0.44141 0.64318 0.0
N1338 N 0.92583 0.50753 0.69055 0.0
N1339 N 0.86527 0.30789 0.65706 0.0
C1340 C 0.91695 0.45958 0.68381 0.0
C1341 C 0.88781 0.35756 0.66772 0.0
N1342 N 0.89801 0.4475 0.75794 0.0
N1343 N 0.93009 0.37356 0.59966 0.0
H1344 H 0.84281 0.2832 0.67822 0.0
H1345 H 0.86443 0.29165 0.62647 0.0
H1346 H 0.94821 0.39568 0.57545 0.0
H1347 H 0.92791 0.33865 0.59464 0.0
H1348 H 0.91452 0.48518 0.76734 0.0
H1349 H 0.88599 0.42564 0.78281 0.0
H1350 H 0.91362 0.52173 0.71727 0.0
H1351 H 0.94321 0.53264 0.66824 0.0
C1352 C 0.23972 0.70761 0.65696 0.0
C1353 C 0.22101 0.70283 0.69942 0.0
C1354 C 0.13684 0.64777 0.67005 0.0
C1355 C 0.15486 0.65576 0.62784 0.0
N1356 N 0.22337 0.6972 0.58153 0.0
N1357 N 0.14922 0.67238 0.74519 0.0
C1358 C 0.2064 0.68662 0.62154 0.0
C1359 C 0.16884 0.67405 0.70541 0.0
N1360 N 0.2896 0.73271 0.65029 0.0
N1361 N 0.08879 0.61375 0.67653 0.0
H1362 H 0.17074 0.68842 0.77191 0.0
H1363 H 0.11152 0.65811 0.75168 0.0
H1364 H 0.064 0.59457 0.6521 0.0
H1365 H 0.07441 0.60127 0.70568 0.0
H1366 H 0.30664 0.73334 0.62096 0.0
H1367 H 0.31463 0.75105 0.67462 0.0
H1368 H 0.25896 0.72354 0.57424 0.0
H1369 H 0.20052 0.68133 0.55541 0.0
loop_
_geom_bond_atom_site_label_1
_geom_bond_atom_site_label_2
_geom_bond_distance
_geom_bond_site_symmetry_2
_ccdc_geom_bond_type
Tb0 C10 2.825 . S
Tb0 O11 2.347 . S
Tb0 O14 2.366 . S
Tb0 O19 2.418 . S
Tb0 O20 2.384 . S
Tb0 O23 2.479 . S
Tb0 O24 2.471 . S
Eu1 O12 2.418 . S
Eu1 O13 2.384 . S
Eu1 O16 2.479 . S
Eu1 O17 2.471 . S
Eu1 O18 2.347 . S
Eu1 O21 2.366 . S
Eu1 C31 2.825 . S
C2 O18 1.259 . S
C2 O19 1.265 . S
C3 O20 1.255 . S
C3 O21 1.265 . S
C4 C6 1.380 . S
C4 C7 1.374 . S
C4 C10 1.507 . S
C5 C6 1.384 . S
C5 C9 1.387 . S
C5 H32 0.930 . S
C6 C4 1.380 . S
C6 C5 1.384 . S
C6 H33 0.931 . S
C7 C4 1.374 . S
C7 C8 1.390 . S
C7 H34 0.930 . S
C8 C7 1.390 . S
C8 C9 1.391 . S
C8 H35 0.930 . S
C9 C5 1.387 . S
C9 C8 1.391 . S
C10 Tb0 2.825 . S
C10 C4 1.507 . S
C10 O23 1.238 . S
C10 O24 1.247 . S
O11 Tb0 2.347 . S
O11 C15 1.259 . S
O12 Eu1 2.418 . S
O12 C15 1.265 . S
O13 Eu1 2.384 . S
O13 C22 1.255 . S
O14 Tb0 2.366 . S
O14 C22 1.265 . S
C15 O11 1.259 . S
C15 O12 1.265 . S
O16 Eu1 2.479 . S
O16 C31 1.238 . S
O17 Eu1 2.471 . S
O17 C31 1.247 . S
O18 Eu1 2.347 . S
O18 C2 1.259 . S
O19 Tb0 2.418 . S
O19 C2 1.265 . S
O20 Tb0 2.384 . S
O20 C3 1.255 . S
O21 Eu1 2.366 . S
O21 C3 1.265 . S
C22 O13 1.255 . S
C22 O14 1.265 . S
O23 Tb0 2.479 . S
O23 C10 1.238 . S
O24 Tb0 2.471 . S
O24 C10 1.247 . S
C25 C28 1.380 . S
C25 C29 1.374 . S
C25 C31 1.507 . S
C26 C27 1.387 . S
C26 C30 1.391 . S
C27 C26 1.387 . S
C27 C28 1.384 . S
C27 H36 0.930 . S
C28 C25 1.380 . S
C28 C27 1.384 . S
C28 H37 0.931 . S
C29 C25 1.374 . S
C29 C30 1.390 . S
C29 H38 0.930 . S
C30 C26 1.391 . S
C30 C29 1.390 . S
C30 H39 0.930 . S
C31 Eu1 2.825 . S
C31 O16 1.238 . S
C31 O17 1.247 . S
C31 C25 1.507 . S
H32 C5 0.930 . S
H33 C6 0.931 . S
H34 C7 0.930 . S
H35 C8 0.930 . S
H36 C27 0.930 . S
H37 C28 0.931 . S
H38 C29 0.930 . S
H39 C30 0.930 . S
Tb40 C50 2.825 . S
Tb40 O51 2.347 . S
Tb40 O54 2.366 . S
Tb40 O59 2.418 . S
Tb40 O60 2.384 . S
Tb40 O63 2.479 . S
Tb40 O64 2.471 . S
Eu41 O52 2.418 . S
Eu41 O53 2.384 . S
Eu41 O56 2.479 . S
Eu41 O57 2.471 . S
Eu41 O58 2.347 . S
Eu41 O61 2.366 . S
Eu41 C71 2.825 . S
C42 O58 1.259 . S
C42 O59 1.265 . S
C43 O60 1.255 . S
C43 O61 1.265 . S
C44 C46 1.380 . S
C44 C47 1.374 . S
C44 C50 1.507 . S
C45 C46 1.384 . S
C45 C49 1.387 . S
C45 H72 0.930 . S
C46 C44 1.380 . S
C46 C45 1.384 . S
C46 H73 0.931 . S
C47 C44 1.374 . S
C47 C48 1.390 . S
C47 H74 0.930 . S
C48 C47 1.390 . S
C48 C49 1.391 . S
C48 H75 0.930 . S
C49 C45 1.387 . S
C49 C48 1.391 . S
C50 Tb40 2.825 . S
C50 C44 1.507 . S
C50 O63 1.238 . S
C50 O64 1.247 . S
O51 Tb40 2.347 . S
O51 C55 1.259 . S
O52 Eu41 2.418 . S
O52 C55 1.265 . S
O53 Eu41 2.384 . S
O53 C62 1.255 . S
O54 Tb40 2.366 . S
O54 C62 1.265 . S
C55 O51 1.259 . S
C55 O52 1.265 . S
O56 Eu41 2.479 . S
O56 C71 1.238 . S
O57 Eu41 2.471 . S
O57 C71 1.247 . S
O58 Eu41 2.347 . S
O58 C42 1.259 . S
O59 Tb40 2.418 . S
O59 C42 1.265 . S
O60 Tb40 2.384 . S
O60 C43 1.255 . S
O61 Eu41 2.366 . S
O61 C43 1.265 . S
C62 O53 1.255 . S
C62 O54 1.265 . S
O63 Tb40 2.479 . S
O63 C50 1.238 . S
O64 Tb40 2.471 . S
O64 C50 1.247 . S
C65 C68 1.380 . S
C65 C69 1.374 . S
C65 C71 1.507 . S
C66 C67 1.387 . S
C66 C70 1.391 . S
C67 C66 1.387 . S
C67 C68 1.384 . S
C67 H76 0.930 . S
C68 C65 1.380 . S
C68 C67 1.384 . S
C68 H77 0.931 . S
C69 C65 1.374 . S
C69 C70 1.390 . S
C69 H78 0.930 . S
C70 C66 1.391 . S
C70 C69 1.390 . S
C70 H79 0.930 . S
C71 Eu41 2.825 . S
C71 O56 1.238 . S
C71 O57 1.247 . S
C71 C65 1.507 . S
H72 C45 0.930 . S
H73 C46 0.931 . S
H74 C47 0.930 . S
H75 C48 0.930 . S
H76 C67 0.930 . S
H77 C68 0.931 . S
H78 C69 0.930 . S
H79 C70 0.930 . S
Tb80 C90 2.825 . S
Tb80 O91 2.347 . S
Tb80 O94 2.366 . S
Tb80 O99 2.418 . S
Tb80 O100 2.384 . S
Tb80 O103 2.479 . S
Tb80 O104 2.471 . S
Eu81 O92 2.418 . S
Eu81 O93 2.384 . S
Eu81 O96 2.479 . S
Eu81 O97 2.471 . S
Eu81 O98 2.347 . S
Eu81 O101 2.366 . S
Eu81 C111 2.825 . S
C82 O98 1.259 . S
C82 O99 1.265 . S
C83 O100 1.255 . S
C83 O101 1.265 . S
C84 C86 1.380 . S
C84 C87 1.374 . S
C84 C90 1.507 . S
C85 C86 1.384 . S
C85 C89 1.387 . S
C85 H112 0.930 . S
C86 C84 1.380 . S
C86 C85 1.384 . S
C86 H113 0.931 . S
C87 C84 1.374 . S
C87 C88 1.390 . S
C87 H114 0.930 . S
C88 C87 1.390 . S
C88 C89 1.391 . S
C88 H115 0.930 . S
C89 C85 1.387 . S
C89 C88 1.391 . S
C90 Tb80 2.825 . S
C90 C84 1.507 . S
C90 O103 1.238 . S
C90 O104 1.247 . S
O91 Tb80 2.347 . S
O91 C95 1.259 . S
O92 Eu81 2.418 . S
O92 C95 1.265 . S
O93 Eu81 2.384 . S
O93 C102 1.255 . S
O94 Tb80 2.366 . S
O94 C102 1.265 . S
C95 O91 1.259 . S
C95 O92 1.265 . S
O96 Eu81 2.479 . S
O96 C111 1.238 . S
O97 Eu81 2.471 . S
O97 C111 1.247 . S
O98 Eu81 2.347 . S
O98 C82 1.259 . S
O99 Tb80 2.418 . S
O99 C82 1.265 . S
O100 Tb80 2.384 . S
O100 C83 1.255 . S
O101 Eu81 2.366 . S
O101 C83 1.265 . S
C102 O93 1.255 . S
C102 O94 1.265 . S
O103 Tb80 2.479 . S
O103 C90 1.238 . S
O104 Tb80 2.471 . S
O104 C90 1.247 . S
C105 C108 1.380 . S
C105 C109 1.374 . S
C105 C111 1.507 . S
C106 C107 1.387 . S
C106 C110 1.391 . S
C107 C106 1.387 . S
C107 C108 1.384 . S
C107 H116 0.930 1_655 S
C108 C105 1.380 . S
C108 C107 1.384 . S
C108 H117 0.931 . S
C109 C105 1.374 . S
C109 C110 1.390 . S
C109 H118 0.930 . S
C110 C106 1.391 . S
C110 C109 1.390 . S
C110 H119 0.930 . S
C111 Eu81 2.825 . S
C111 O96 1.238 . S
C111 O97 1.247 . S
C111 C105 1.507 . S
H112 C85 0.930 . S
H113 C86 0.931 . S
H114 C87 0.930 . S
H115 C88 0.930 . S
H116 C107 0.930 1_455 S
H117 C108 0.931 . S
H118 C109 0.930 . S
H119 C110 0.930 . S
Tb120 C130 2.825 . S
Tb120 O131 2.347 . S
Tb120 O134 2.366 . S
Tb120 O139 2.418 . S
Tb120 O140 2.384 . S
Tb120 O143 2.479 . S
Tb120 O144 2.471 . S
Eu121 O132 2.418 . S
Eu121 O133 2.384 . S
Eu121 O136 2.479 . S
Eu121 O137 2.471 . S
Eu121 O138 2.347 . S
Eu121 O141 2.366 . S
Eu121 C151 2.825 . S
C122 O138 1.259 . S
C122 O139 1.265 . S
C123 O140 1.255 . S
C123 O141 1.265 . S
C124 C126 1.380 . S
C124 C127 1.374 . S
C124 C130 1.507 . S
C125 C126 1.384 . S
C125 C129 1.387 . S
C125 H152 0.930 . S
C126 C124 1.380 . S
C126 C125 1.384 . S
C126 H153 0.931 . S
C127 C124 1.374 . S
C127 C128 1.390 . S
C127 H154 0.930 . S
C128 C127 1.390 . S
C128 C129 1.391 . S
C128 H155 0.930 . S
C129 C125 1.387 . S
C129 C128 1.391 . S
C130 Tb120 2.825 . S
C130 C124 1.507 . S
C130 O143 1.238 . S
C130 O144 1.247 . S
O131 Tb120 2.347 . S
O131 C135 1.259 . S
O132 Eu121 2.418 . S
O132 C135 1.265 . S
O133 Eu121 2.384 . S
O133 C142 1.255 . S
O134 Tb120 2.366 . S
O134 C142 1.265 . S
C135 O131 1.259 . S
C135 O132 1.265 . S
O136 Eu121 2.479 . S
O136 C151 1.238 . S
O137 Eu121 2.471 . S
O137 C151 1.247 . S
O138 Eu121 2.347 . S
O138 C122 1.259 . S
O139 Tb120 2.418 . S
O139 C122 1.265 . S
O140 Tb120 2.384 . S
O140 C123 1.255 . S
O141 Eu121 2.366 . S
O141 C123 1.265 . S
C142 O133 1.255 . S
C142 O134 1.265 . S
O143 Tb120 2.479 . S
O143 C130 1.238 . S
O144 Tb120 2.471 . S
O144 C130 1.247 . S
C145 C148 1.380 . S
C145 C149 1.374 . S
C145 C151 1.507 . S
C146 C147 1.387 . S
C146 C150 1.391 . S
C147 C146 1.387 . S
C147 C148 1.384 . S
C147 H156 0.930 . S
C148 C145 1.380 . S
C148 C147 1.384 . S
C148 H157 0.931 . S
C149 C145 1.374 . S
C149 C150 1.390 . S
C149 H158 0.930 . S
C150 C146 1.391 . S
C150 C149 1.390 . S
C150 H159 0.930 . S
C151 Eu121 2.825 . S
C151 O136 1.238 . S
C151 O137 1.247 . S
C151 C145 1.507 . S
H152 C125 0.930 . S
H153 C126 0.931 . S
H154 C127 0.930 . S
H155 C128 0.930 . S
H156 C147 0.930 . S
H157 C148 0.931 . S
H158 C149 0.930 . S
H159 C150 0.930 . S
Tb160 C170 2.825 . S
Tb160 O171 2.347 . S
Tb160 O174 2.366 . S
Tb160 O179 2.418 . S
Tb160 O180 2.384 . S
Tb160 O183 2.479 . S
Tb160 O184 2.471 . S
Eu161 O172 2.418 . S
Eu161 O173 2.384 . S
Eu161 O176 2.479 . S
Eu161 O177 2.471 . S
Eu161 O178 2.347 . S
Eu161 O181 2.366 . S
Eu161 C191 2.825 . S
C162 O178 1.259 . S
C162 O179 1.265 . S
C163 O180 1.255 . S
C163 O181 1.265 . S
C164 C166 1.380 . S
C164 C167 1.374 . S
C164 C170 1.507 . S
C165 C166 1.384 . S
C165 C169 1.387 . S
C165 H192 0.930 . S
C166 C164 1.380 . S
C166 C165 1.384 . S
C166 H193 0.931 . S
C167 C164 1.374 . S
C167 C168 1.390 . S
C167 H194 0.930 . S
C168 C167 1.390 . S
C168 C169 1.391 . S
C168 H195 0.930 . S
C169 C165 1.387 . S
C169 C168 1.391 . S
C170 Tb160 2.825 . S
C170 C164 1.507 . S
C170 O183 1.238 . S
C170 O184 1.247 . S
O171 Tb160 2.347 . S
O171 C175 1.259 . S
O172 Eu161 2.418 . S
O172 C175 1.265 . S
O173 Eu161 2.384 . S
O173 C182 1.255 . S
O174 Tb160 2.366 . S
O174 C182 1.265 . S
C175 O171 1.259 . S
C175 O172 1.265 . S
O176 Eu161 2.479 . S
O176 C191 1.238 . S
O177 Eu161 2.471 . S
O177 C191 1.247 . S
O178 Eu161 2.347 . S
O178 C162 1.259 . S
O179 Tb160 2.418 . S
O179 C162 1.265 . S
O180 Tb160 2.384 . S
O180 C163 1.255 . S
O181 Eu161 2.366 . S
O181 C163 1.265 . S
C182 O173 1.255 . S
C182 O174 1.265 . S
O183 Tb160 2.479 . S
O183 C170 1.238 . S
O184 Tb160 2.471 . S
O184 C170 1.247 . S
C185 C188 1.380 . S
C185 C189 1.374 . S
C185 C191 1.507 . S
C186 C187 1.387 . S
C186 C190 1.391 . S
C187 C186 1.387 . S
C187 C188 1.384 . S
C187 H196 0.930 . S
C188 C185 1.380 . S
C188 C187 1.384 . S
C188 H197 0.931 . S
C189 C185 1.374 . S
C189 C190 1.390 . S
C189 H198 0.930 . S
C190 C186 1.391 . S
C190 C189 1.390 . S
C190 H199 0.930 . S
C191 Eu161 2.825 . S
C191 O176 1.238 . S
C191 O177 1.247 . S
C191 C185 1.507 . S
H192 C165 0.930 . S
H193 C166 0.931 . S
H194 C167 0.930 . S
H195 C168 0.930 . S
H196 C187 0.930 . S
H197 C188 0.931 . S
H198 C189 0.930 . S
H199 C190 0.930 . S
Tb200 C210 2.825 . S
Tb200 O211 2.347 . S
Tb200 O214 2.366 . S
Tb200 O219 2.418 . S
Tb200 O220 2.384 . S
Tb200 O223 2.479 . S
Tb200 O224 2.471 . S
Eu201 O212 2.418 . S
Eu201 O213 2.384 . S
Eu201 O216 2.479 . S
Eu201 O217 2.471 . S
Eu201 O218 2.347 . S
Eu201 O221 2.366 . S
Eu201 C231 2.825 . S
C202 O218 1.259 . S
C202 O219 1.265 . S
C203 O220 1.255 . S
C203 O221 1.265 . S
C204 C206 1.380 . S
C204 C207 1.374 . S
C204 C210 1.507 . S
C205 C206 1.384 . S
C205 C209 1.387 . S
C205 H232 0.930 . S
C206 C204 1.380 . S
C206 C205 1.384 . S
C206 H233 0.931 . S
C207 C204 1.374 . S
C207 C208 1.390 . S
C207 H234 0.930 . S
C208 C207 1.390 . S
C208 C209 1.391 . S
C208 H235 0.930 . S
C209 C205 1.387 . S
C209 C208 1.391 . S
C210 Tb200 2.825 . S
C210 C204 1.507 . S
C210 O223 1.238 . S
C210 O224 1.247 . S
O211 Tb200 2.347 . S
O211 C215 1.259 . S
O212 Eu201 2.418 . S
O212 C215 1.265 . S
O213 Eu201 2.384 . S
O213 C222 1.255 . S
O214 Tb200 2.366 . S
O214 C222 1.265 . S
C215 O211 1.259 . S
C215 O212 1.265 . S
O216 Eu201 2.479 . S
O216 C231 1.238 . S
O217 Eu201 2.471 . S
O217 C231 1.247 . S
O218 Eu201 2.347 . S
O218 C202 1.259 . S
O219 Tb200 2.418 . S
O219 C202 1.265 . S
O220 Tb200 2.384 . S
O220 C203 1.255 . S
O221 Eu201 2.366 . S
O221 C203 1.265 . S
C222 O213 1.255 . S
C222 O214 1.265 . S
O223 Tb200 2.479 . S
O223 C210 1.238 . S
O224 Tb200 2.471 . S
O224 C210 1.247 . S
C225 C228 1.380 . S
C225 C229 1.374 . S
C225 C231 1.507 . S
C226 C227 1.387 . S
C226 C230 1.391 . S
C227 C226 1.387 . S
C227 C228 1.384 . S
C227 H236 0.930 . S
C228 C225 1.380 . S
C228 C227 1.384 . S
C228 H237 0.931 . S
C229 C225 1.374 . S
C229 C230 1.390 . S
C229 H238 0.930 . S
C230 C226 1.391 . S
C230 C229 1.390 . S
C230 H239 0.930 . S
C231 Eu201 2.825 . S
C231 O216 1.238 . S
C231 O217 1.247 . S
C231 C225 1.507 . S
H232 C205 0.930 . S
H233 C206 0.931 . S
H234 C207 0.930 . S
H235 C208 0.930 . S
H236 C227 0.930 . S
H237 C228 0.931 . S
H238 C229 0.930 . S
H239 C230 0.930 . S
Tb240 C250 2.825 . S
Tb240 O251 2.347 . S
Tb240 O254 2.366 . S
Tb240 O259 2.418 . S
Tb240 O260 2.384 . S
Tb240 O263 2.479 . S
Tb240 O264 2.471 . S
Eu241 O252 2.418 . S
Eu241 O253 2.384 . S
Eu241 O256 2.479 . S
Eu241 O257 2.471 . S
Eu241 O258 2.347 . S
Eu241 O261 2.366 . S
Eu241 C271 2.825 . S
C242 O258 1.259 . S
C242 O259 1.265 . S
C243 O260 1.255 . S
C243 O261 1.265 . S
C244 C246 1.380 . S
C244 C247 1.374 . S
C244 C250 1.507 . S
C245 C246 1.384 . S
C245 C249 1.387 . S
C245 H272 0.930 . S
C246 C244 1.380 . S
C246 C245 1.384 . S
C246 H273 0.931 . S
C247 C244 1.374 . S
C247 C248 1.390 . S
C247 H274 0.930 . S
C248 C247 1.390 . S
C248 C249 1.391 . S
C248 H275 0.930 . S
C249 C245 1.387 . S
C249 C248 1.391 . S
C250 Tb240 2.825 . S
C250 C244 1.507 . S
C250 O263 1.238 . S
C250 O264 1.247 . S
O251 Tb240 2.347 . S
O251 C255 1.259 . S
O252 Eu241 2.418 . S
O252 C255 1.265 . S
O253 Eu241 2.384 . S
O253 C262 1.255 . S
O254 Tb240 2.366 . S
O254 C262 1.265 . S
C255 O251 1.259 . S
C255 O252 1.265 . S
O256 Eu241 2.479 . S
O256 C271 1.238 . S
O257 Eu241 2.471 . S
O257 C271 1.247 . S
O258 Eu241 2.347 . S
O258 C242 1.259 . S
O259 Tb240 2.418 . S
O259 C242 1.265 . S
O260 Tb240 2.384 . S
O260 C243 1.255 . S
O261 Eu241 2.366 . S
O261 C243 1.265 . S
C262 O253 1.255 . S
C262 O254 1.265 . S
O263 Tb240 2.479 . S
O263 C250 1.238 . S
O264 Tb240 2.471 . S
O264 C250 1.247 . S
C265 C268 1.380 . S
C265 C269 1.374 . S
C265 C271 1.507 . S
C266 C267 1.387 . S
C266 C270 1.391 . S
C267 C266 1.387 . S
C267 C268 1.384 . S
C267 H276 0.930 . S
C268 C265 1.380 . S
C268 C267 1.384 . S
C268 H277 0.931 . S
C269 C265 1.374 . S
C269 C270 1.390 . S
C269 H278 0.930 . S
C270 C266 1.391 . S
C270 C269 1.390 . S
C270 H279 0.930 . S
C271 Eu241 2.825 . S
C271 O256 1.238 . S
C271 O257 1.247 . S
C271 C265 1.507 . S
H272 C245 0.930 . S
H273 C246 0.931 . S
H274 C247 0.930 . S
H275 C248 0.930 . S
H276 C267 0.930 . S
H277 C268 0.931 . S
H278 C269 0.930 . S
H279 C270 0.930 . S
Tb280 C290 2.825 . S
Tb280 O291 2.347 . S
Tb280 O294 2.366 . S
Tb280 O299 2.418 . S
Tb280 O300 2.384 . S
Tb280 O303 2.479 . S
Tb280 O304 2.471 . S
Eu281 O292 2.418 . S
Eu281 O293 2.384 . S
Eu281 O296 2.479 . S
Eu281 O297 2.471 . S
Eu281 O298 2.347 . S
Eu281 O301 2.366 . S
Eu281 C311 2.825 . S
C282 O298 1.259 . S
C282 O299 1.265 . S
C283 O300 1.255 . S
C283 O301 1.265 . S
C284 C286 1.380 . S
C284 C287 1.374 . S
C284 C290 1.507 . S
C285 C286 1.384 . S
C285 C289 1.387 . S
C285 H312 0.930 . S
C286 C284 1.380 . S
C286 C285 1.384 . S
C286 H313 0.931 . S
C287 C284 1.374 . S
C287 C288 1.390 . S
C287 H314 0.930 . S
C288 C287 1.390 . S
C288 C289 1.391 . S
C288 H315 0.930 . S
C289 C285 1.387 . S
C289 C288 1.391 . S
C290 Tb280 2.825 . S
C290 C284 1.507 . S
C290 O303 1.238 . S
C290 O304 1.247 . S
O291 Tb280 2.347 . S
O291 C295 1.259 . S
O292 Eu281 2.418 . S
O292 C295 1.265 . S
O293 Eu281 2.384 . S
O293 C302 1.255 . S
O294 Tb280 2.366 . S
O294 C302 1.265 . S
C295 O291 1.259 . S
C295 O292 1.265 . S
O296 Eu281 2.479 . S
O296 C311 1.238 . S
O297 Eu281 2.471 . S
O297 C311 1.247 . S
O298 Eu281 2.347 . S
O298 C282 1.259 . S
O299 Tb280 2.418 . S
O299 C282 1.265 . S
O300 Tb280 2.384 . S
O300 C283 1.255 . S
O301 Eu281 2.366 . S
O301 C283 1.265 . S
C302 O293 1.255 . S
C302 O294 1.265 . S
O303 Tb280 2.479 . S
O303 C290 1.238 . S
O304 Tb280 2.471 . S
O304 C290 1.247 . S
C305 C308 1.380 . S
C305 C309 1.374 . S
C305 C311 1.507 . S
C306 C307 1.387 . S
C306 C310 1.391 . S
C307 C306 1.387 . S
C307 C308 1.384 . S
C307 H316 0.930 . S
C308 C305 1.380 . S
C308 C307 1.384 . S
C308 H317 0.931 . S
C309 C305 1.374 . S
C309 C310 1.390 . S
C309 H318 0.930 . S
C310 C306 1.391 . S
C310 C309 1.390 . S
C310 H319 0.930 . S
C311 Eu281 2.825 . S
C311 O296 1.238 . S
C311 O297 1.247 . S
C311 C305 1.507 . S
H312 C285 0.930 . S
H313 C286 0.931 . S
H314 C287 0.930 . S
H315 C288 0.930 . S
H316 C307 0.930 . S
H317 C308 0.931 . S
H318 C309 0.930 . S
H319 C310 0.930 . S
C320 O332 1.241 . S
C320 O333 1.280 . S
C321 O334 1.277 . S
C321 O335 1.249 . S
C322 O346 1.247 . S
C322 O348 1.289 . S
Mg323 O324 1.926 1_455 S
Mg323 O333 1.984 1_455 S
Mg323 O335 1.985 1_455 S
Mg323 O336 2.061 . S
O324 Mg323 1.926 1_655 S
O324 Mg325 1.986 . S
O324 Mg326 1.917 1_655 S
Mg325 O324 1.986 . S
Mg325 O332 2.042 . S
Mg325 O334 2.041 . S
Mg325 O340 2.038 1_545 S
Mg325 O348 2.238 1_545 S
Mg326 O324 1.917 1_455 S
Mg326 O327 1.917 1_545 S
Mg326 O337 2.106 . S
Mg326 O339 2.079 1_445 S
Mg326 O348 2.106 1_445 S
Mg326 O349 2.079 . S
O327 Mg326 1.917 1_565 S
O327 Mg328 1.926 . S
O327 Mg329 1.986 1_565 S
Mg328 O327 1.926 . S
Mg328 O342 1.984 . S
Mg328 O345 1.988 . S
Mg328 O346 2.061 1_455 S
Mg329 O327 1.986 1_545 S
Mg329 O337 2.238 . S
Mg329 O341 2.042 1_545 S
Mg329 O343 2.041 1_545 S
Mg329 O350 2.038 . S
C330 O336 1.247 . S
C330 O337 1.289 . S
C331 O349 1.245 . S
C331 O350 1.274 . S
O332 C320 1.241 . S
O332 Mg325 2.042 . S
O333 C320 1.280 . S
O333 Mg323 1.984 1_655 S
O334 C321 1.277 . S
O334 Mg325 2.041 . S
O335 C321 1.249 . S
O335 Mg323 1.985 1_655 S
O336 Mg323 2.061 . S
O336 C330 1.247 . S
O337 Mg326 2.106 . S
O337 Mg329 2.238 . S
O337 C330 1.289 . S
C338 O339 1.245 . S
C338 O340 1.274 . S
O339 Mg326 2.079 1_665 S
O339 C338 1.245 . S
O340 Mg325 2.038 1_565 S
O340 C338 1.274 . S
O341 Mg329 2.042 1_565 S
O341 C344 1.241 . S
O342 Mg328 1.984 . S
O342 C344 1.280 . S
O343 Mg329 2.041 1_565 S
O343 C347 1.277 . S
C344 O341 1.241 . S
C344 O342 1.280 . S
O345 Mg328 1.988 . S
O345 C347 1.245 . S
O346 C322 1.247 . S
O346 Mg328 2.061 1_655 S
C347 O343 1.277 . S
C347 O345 1.245 . S
O348 C322 1.289 . S
O348 Mg325 2.238 1_565 S
O348 Mg326 2.106 1_665 S
O349 Mg326 2.079 . S
O349 C331 1.245 . S
O350 Mg329 2.038 . S
O350 C331 1.274 . S
C351 O363 1.241 . S
C351 O364 1.280 . S
C352 O365 1.277 . S
C352 O366 1.245 . S
C353 O377 1.247 . S
C353 O379 1.289 1_556 S
Mg354 O355 1.926 . S
Mg354 O364 1.984 . S
Mg354 O366 1.988 . S
Mg354 O367 2.061 . S
O355 Mg354 1.926 . S
O355 Mg356 1.986 1_545 S
O355 Mg357 1.917 . S
Mg356 O355 1.986 1_565 S
Mg356 O363 2.042 1_565 S
Mg356 O365 2.041 1_565 S
Mg356 O371 2.038 . S
Mg356 O379 2.238 . S
Mg357 O355 1.917 . S
Mg357 O358 1.917 1_545 S
Mg357 O368 2.106 . S
Mg357 O370 2.079 1_545 S
Mg357 O379 2.106 1_545 S
Mg357 O380 2.079 . S
O358 Mg357 1.917 1_565 S
O358 Mg359 1.926 . S
O358 Mg360 1.986 1_565 S
Mg359 O358 1.926 . S
Mg359 O373 1.984 1_554 S
Mg359 O376 1.988 . S
Mg359 O377 2.061 1_554 S
Mg360 O358 1.986 1_545 S
Mg360 O368 2.238 . S
Mg360 O372 2.042 1_545 S
Mg360 O374 2.041 1_545 S
Mg360 O381 2.038 . S
C361 O367 1.247 . S
C361 O368 1.289 . S
C362 O380 1.245 1_556 S
C362 O381 1.274 1_556 S
O363 C351 1.241 . S
O363 Mg356 2.042 1_545 S
O364 C351 1.280 . S
O364 Mg354 1.984 . S
O365 C352 1.277 . S
O365 Mg356 2.041 1_545 S
O366 C352 1.245 . S
O366 Mg354 1.988 . S
O367 Mg354 2.061 . S
O367 C361 1.247 . S
O368 Mg357 2.106 . S
O368 Mg360 2.238 . S
O368 C361 1.289 . S
C369 O370 1.245 . S
C369 O371 1.274 . S
O370 Mg357 2.079 1_565 S
O370 C369 1.245 . S
O371 Mg356 2.038 . S
O371 C369 1.274 . S
O372 Mg360 2.042 1_565 S
O372 C375 1.241 1_554 S
O373 Mg359 1.984 1_556 S
O373 C375 1.280 . S
O374 Mg360 2.041 1_565 S
O374 C378 1.277 . S
C375 O372 1.241 1_556 S
C375 O373 1.280 . S
O376 Mg359 1.988 . S
O376 C378 1.245 . S
O377 C353 1.247 . S
O377 Mg359 2.061 1_556 S
C378 O374 1.277 . S
C378 O376 1.245 . S
O379 C353 1.289 1_554 S
O379 Mg356 2.238 . S
O379 Mg357 2.106 1_565 S
O380 Mg357 2.079 . S
O380 C362 1.245 1_554 S
O381 Mg360 2.038 . S
O381 C362 1.274 1_554 S
C382 O394 1.241 . S
C382 O395 1.280 . S
C383 O396 1.277 . S
C383 O397 1.245 1_655 S
C384 O408 1.247 . S
C384 O410 1.289 . S
Mg385 O386 1.926 . S
Mg385 O395 1.984 1_455 S
Mg385 O397 1.988 1_554 S
Mg385 O398 2.061 . S
O386 Mg385 1.926 . S
O386 Mg387 1.986 1_455 S
O386 Mg388 1.917 . S
Mg387 O386 1.986 1_655 S
Mg387 O394 2.042 . S
Mg387 O396 2.041 1_554 S
Mg387 O402 2.038 . S
Mg387 O410 2.238 1_554 S
Mg388 O386 1.917 . S
Mg388 O389 1.917 1_554 S
Mg388 O399 2.106 . S
Mg388 O401 2.079 . S
Mg388 O410 2.106 1_454 S
Mg388 O411 2.079 1_554 S
O389 Mg388 1.917 1_556 S
O389 Mg390 1.926 . S
O389 Mg391 1.986 1_556 S
Mg390 O389 1.926 . S
Mg390 O404 1.984 . S
Mg390 O407 1.988 1_556 S
Mg390 O408 2.061 1_455 S
Mg391 O389 1.986 1_554 S
Mg391 O399 2.238 . S
Mg391 O403 2.042 1_554 S
Mg391 O405 2.041 . S
Mg391 O412 2.038 1_554 S
C392 O398 1.247 . S
C392 O399 1.289 . S
C393 O411 1.245 . S
C393 O412 1.274 . S
O394 C382 1.241 . S
O394 Mg387 2.042 . S
O395 C382 1.280 . S
O395 Mg385 1.984 1_655 S
O396 C383 1.277 . S
O396 Mg387 2.041 1_556 S
O397 C383 1.245 1_455 S
O397 Mg385 1.988 1_556 S
O398 Mg385 2.061 . S
O398 C392 1.247 . S
O399 Mg388 2.106 . S
O399 Mg391 2.238 . S
O399 C392 1.289 . S
C400 O401 1.245 1_655 S
C400 O402 1.274 . S
O401 Mg388 2.079 . S
O401 C400 1.245 1_455 S
O402 Mg387 2.038 . S
O402 C400 1.274 . S
O403 Mg391 2.042 1_556 S
O403 C406 1.241 . S
O404 Mg390 1.984 . S
O404 C406 1.280 . S
O405 Mg391 2.041 . S
O405 C409 1.277 . S
C406 O403 1.241 . S
C406 O404 1.280 . S
O407 Mg390 1.988 1_554 S
O407 C409 1.245 . S
O408 C384 1.247 . S
O408 Mg390 2.061 1_655 S
C409 O405 1.277 . S
C409 O407 1.245 . S
O410 C384 1.289 . S
O410 Mg387 2.238 1_556 S
O410 Mg388 2.106 1_656 S
O411 Mg388 2.079 1_556 S
O411 C393 1.245 . S
O412 Mg391 2.038 1_556 S
O412 C393 1.274 . S
C413 O425 1.241 . S
C413 O426 1.280 . S
C414 O427 1.277 . S
C414 O428 1.245 1_556 S
C415 O439 1.247 . S
C415 O441 1.289 . S
Mg416 O417 1.926 . S
Mg416 O426 1.984 . S
Mg416 O428 1.988 . S
Mg416 O429 2.061 . S
O417 Mg416 1.926 . S
O417 Mg418 1.986 . S
O417 Mg419 1.917 . S
Mg418 O417 1.986 . S
Mg418 O425 2.042 . S
Mg418 O427 2.041 1_554 S
Mg418 O433 2.038 . S
Mg418 O441 2.238 1_554 S
Mg419 O417 1.917 . S
Mg419 O420 1.917 . S
Mg419 O430 2.106 . S
Mg419 O432 2.079 . S
Mg419 O441 2.106 1_554 S
Mg419 O442 2.079 1_554 S
O420 Mg419 1.917 . S
O420 Mg421 1.926 . S
O420 Mg422 1.986 . S
Mg421 O420 1.926 . S
Mg421 O435 1.984 1_554 S
Mg421 O438 1.988 . S
Mg421 O439 2.061 1_554 S
Mg422 O420 1.986 . S
Mg422 O430 2.238 . S
Mg422 O434 2.042 1_554 S
Mg422 O436 2.041 . S
Mg422 O443 2.038 1_554 S
C423 O429 1.247 . S
C423 O430 1.289 . S
C424 O442 1.245 . S
C424 O443 1.274 . S
O425 C413 1.241 . S
O425 Mg418 2.042 . S
O426 C413 1.280 . S
O426 Mg416 1.984 . S
O427 C414 1.277 . S
O427 Mg418 2.041 1_556 S
O428 C414 1.245 1_554 S
O428 Mg416 1.988 . S
O429 Mg416 2.061 . S
O429 C423 1.247 . S
O430 Mg419 2.106 . S
O430 Mg422 2.238 . S
O430 C423 1.289 . S
C431 O432 1.245 . S
C431 O433 1.274 . S
O432 Mg419 2.079 . S
O432 C431 1.245 . S
O433 Mg418 2.038 . S
O433 C431 1.274 . S
O434 Mg422 2.042 1_556 S
O434 C437 1.241 . S
O435 Mg421 1.984 1_556 S
O435 C437 1.280 . S
O436 Mg422 2.041 . S
O436 C440 1.277 . S
C437 O434 1.241 . S
C437 O435 1.280 . S
O438 Mg421 1.988 . S
O438 C440 1.245 . S
O439 C415 1.247 . S
O439 Mg421 2.061 1_556 S
C440 O436 1.277 . S
C440 O438 1.245 . S
O441 C415 1.289 . S
O441 Mg418 2.238 1_556 S
O441 Mg419 2.106 1_556 S
O442 Mg419 2.079 1_556 S
O442 C424 1.245 . S
O443 Mg422 2.038 1_556 S
O443 C424 1.274 . S
C444 O456 1.241 . S
C444 O457 1.280 . S
C445 O458 1.277 . S
C445 O459 1.245 . S
C446 O470 1.247 . S
C446 O472 1.289 . S
Mg447 O448 1.926 1_455 S
Mg447 O457 1.984 1_455 S
Mg447 O459 1.988 1_455 S
Mg447 O460 2.061 . S
O448 Mg447 1.926 1_655 S
O448 Mg449 1.986 . S
O448 Mg450 1.917 1_655 S
Mg449 O448 1.986 . S
Mg449 O456 2.042 . S
Mg449 O458 2.041 . S
Mg449 O464 2.038 . S
Mg449 O472 2.238 . S
Mg450 O448 1.917 1_455 S
Mg450 O451 1.917 . S
Mg450 O461 2.106 . S
Mg450 O463 2.079 1_455 S
Mg450 O472 2.106 1_455 S
Mg450 O473 2.079 . S
O451 Mg450 1.917 . S
O451 Mg452 1.926 . S
O451 Mg453 1.986 . S
Mg452 O451 1.926 . S
Mg452 O466 1.984 . S
Mg452 O469 1.988 . S
Mg452 O470 2.061 1_455 S
Mg453 O451 1.986 . S
Mg453 O461 2.238 . S
Mg453 O465 2.042 . S
Mg453 O467 2.041 . S
Mg453 O474 2.038 . S
C454 O460 1.247 . S
C454 O461 1.289 . S
C455 O473 1.245 . S
C455 O474 1.274 . S
O456 C444 1.241 . S
O456 Mg449 2.042 . S
O457 C444 1.280 . S
O457 Mg447 1.984 1_655 S
O458 C445 1.277 . S
O458 Mg449 2.041 . S
O459 C445 1.245 . S
O459 Mg447 1.988 1_655 S
O460 Mg447 2.061 . S
O460 C454 1.247 . S
O461 Mg450 2.106 . S
O461 Mg453 2.238 . S
O461 C454 1.289 . S
C462 O463 1.245 . S
C462 O464 1.274 . S
O463 Mg450 2.079 1_655 S
O463 C462 1.245 . S
O464 Mg449 2.038 . S
O464 C462 1.274 . S
O465 Mg453 2.042 . S
O465 C468 1.241 . S
O466 Mg452 1.984 . S
O466 C468 1.280 . S
O467 Mg453 2.041 . S
O467 C471 1.277 . S
C468 O465 1.241 . S
C468 O466 1.280 . S
O469 Mg452 1.988 . S
O469 C471 1.245 . S
O470 C446 1.247 . S
O470 Mg452 2.061 1_655 S
C471 O467 1.277 . S
C471 O469 1.245 . S
O472 C446 1.289 . S
O472 Mg449 2.238 . S
O472 Mg450 2.106 1_655 S
O473 Mg450 2.079 . S
O473 C455 1.245 . S
O474 Mg453 2.038 . S
O474 C455 1.274 . S
C475 O487 1.241 . S
C475 O488 1.280 . S
C476 O489 1.277 . S
C476 O490 1.245 . S
C477 O501 1.247 . S
C477 O503 1.289 . S
Mg478 O479 1.926 . S
Mg478 O488 1.984 . S
Mg478 O490 1.988 . S
Mg478 O491 2.061 . S
O479 Mg478 1.926 . S
O479 Mg480 1.986 . S
O479 Mg481 1.917 . S
Mg480 O479 1.986 . S
Mg480 O487 2.042 . S
Mg480 O489 2.041 . S
Mg480 O495 2.038 1_545 S
Mg480 O503 2.238 1_545 S
Mg481 O479 1.917 . S
Mg481 O482 1.917 . S
Mg481 O492 2.106 . S
Mg481 O494 2.079 1_545 S
Mg481 O503 2.106 1_545 S
Mg481 O504 2.079 . S
O482 Mg481 1.917 . S
O482 Mg483 1.926 1_545 S
O482 Mg484 1.986 . S
Mg483 O482 1.926 1_565 S
Mg483 O497 1.984 . S
Mg483 O500 1.988 . S
Mg483 O501 2.061 . S
Mg484 O482 1.986 . S
Mg484 O492 2.238 . S
Mg484 O496 2.042 . S
Mg484 O498 2.041 . S
Mg484 O505 2.038 . S
C485 O491 1.247 . S
C485 O492 1.289 . S
C486 O504 1.245 . S
C486 O505 1.274 . S
O487 C475 1.241 . S
O487 Mg480 2.042 . S
O488 C475 1.280 . S
O488 Mg478 1.984 . S
O489 C476 1.277 . S
O489 Mg480 2.041 . S
O490 C476 1.245 . S
O490 Mg478 1.988 . S
O491 Mg478 2.061 . S
O491 C485 1.247 . S
O492 Mg481 2.106 . S
O492 Mg484 2.238 . S
O492 C485 1.289 . S
C493 O494 1.245 . S
C493 O495 1.274 . S
O494 Mg481 2.079 1_565 S
O494 C493 1.245 . S
O495 Mg480 2.038 1_565 S
O495 C493 1.274 . S
O496 Mg484 2.042 . S
O496 C499 1.241 1_545 S
O497 Mg483 1.984 . S
O497 C499 1.280 . S
O498 Mg484 2.041 . S
O498 C502 1.277 1_545 S
C499 O496 1.241 1_565 S
C499 O497 1.280 . S
O500 Mg483 1.988 . S
O500 C502 1.245 . S
O501 C477 1.247 . S
O501 Mg483 2.061 . S
C502 O498 1.277 1_565 S
C502 O500 1.245 . S
O503 C477 1.289 . S
O503 Mg480 2.238 1_565 S
O503 Mg481 2.106 1_565 S
O504 Mg481 2.079 . S
O504 C486 1.245 . S
O505 Mg484 2.038 . S
O505 C486 1.274 . S
C506 C507 1.363 . S
C506 C512 1.379 . S
C506 N514 1.356 . S
C507 C506 1.363 . S
C507 C513 1.363 . S
C508 C509 1.363 . S
C508 C513 1.379 . S
C508 N515 1.356 . S
C509 C508 1.363 . S
C509 C512 1.363 . S
N510 C512 1.356 . S
N510 H522 0.984 . S
N510 H523 0.985 . S
N511 C513 1.356 . S
N511 H516 0.984 . S
N511 H517 0.985 . S
C512 C506 1.379 . S
C512 C509 1.363 . S
C512 N510 1.356 . S
C513 C507 1.363 . S
C513 C508 1.379 . S
C513 N511 1.356 . S
N514 C506 1.356 . S
N514 H520 0.984 . S
N514 H521 0.984 . S
N515 C508 1.356 . S
N515 H518 0.984 . S
N515 H519 0.985 . S
H516 N511 0.984 . S
H517 N511 0.985 . S
H518 N515 0.984 . S
H519 N515 0.985 . S
H520 N514 0.984 . S
H521 N514 0.984 . S
H522 N510 0.984 . S
H523 N510 0.985 . S
C524 C525 1.363 . S
C524 C530 1.379 . S
C524 N532 1.356 . S
C525 C524 1.363 . S
C525 C531 1.363 . S
C526 C527 1.363 . S
C526 C531 1.379 . S
C526 N533 1.356 . S
C527 C526 1.363 . S
C527 C530 1.363 . S
N528 C530 1.356 1_455 S
N528 H540 0.984 . S
N528 H541 0.985 . S
N529 C531 1.356 . S
N529 H534 0.984 . S
N529 H535 0.985 . S
C530 C524 1.379 . S
C530 C527 1.363 . S
C530 N528 1.356 1_655 S
C531 C525 1.363 . S
C531 C526 1.379 . S
C531 N529 1.356 . S
N532 C524 1.356 . S
N532 H538 0.984 . S
N532 H539 0.984 . S
N533 C526 1.356 . S
N533 H536 0.984 . S
N533 H537 0.985 . S
H534 N529 0.984 . S
H535 N529 0.985 . S
H536 N533 0.984 . S
H537 N533 0.985 . S
H538 N532 0.984 . S
H539 N532 0.984 . S
H540 N528 0.984 . S
H541 N528 0.985 . S
C542 C543 1.363 . S
C542 C548 1.379 . S
C542 N550 1.356 . S
C543 C542 1.363 . S
C543 C549 1.363 . S
C544 C545 1.363 . S
C544 C549 1.379 . S
C544 N551 1.356 . S
C545 C544 1.363 . S
C545 C548 1.363 . S
N546 C548 1.356 . S
N546 H558 0.984 . S
N546 H559 0.985 . S
N547 C549 1.356 . S
N547 H552 0.984 . S
N547 H553 0.985 . S
C548 C542 1.379 . S
C548 C545 1.363 . S
C548 N546 1.356 . S
C549 C543 1.363 . S
C549 C544 1.379 . S
C549 N547 1.356 . S
N550 C542 1.356 . S
N550 H556 0.984 . S
N550 H557 0.984 . S
N551 C544 1.356 . S
N551 H554 0.984 . S
N551 H555 0.985 1_655 S
H552 N547 0.984 . S
H553 N547 0.985 . S
H554 N551 0.984 . S
H555 N551 0.985 1_455 S
H556 N550 0.984 . S
H557 N550 0.984 . S
H558 N546 0.984 . S
H559 N546 0.985 . S
C560 C561 1.363 . S
C560 C566 1.379 . S
C560 N568 1.356 . S
C561 C560 1.363 . S
C561 C567 1.363 . S
C562 C563 1.363 . S
C562 C567 1.379 . S
C562 N569 1.356 . S
C563 C562 1.363 . S
C563 C566 1.363 . S
N564 C566 1.356 . S
N564 H576 0.984 . S
N564 H577 0.985 . S
N565 C567 1.356 . S
N565 H570 0.984 . S
N565 H571 0.985 . S
C566 C560 1.379 . S
C566 C563 1.363 . S
C566 N564 1.356 . S
C567 C561 1.363 . S
C567 C562 1.379 . S
C567 N565 1.356 . S
N568 C560 1.356 . S
N568 H574 0.984 . S
N568 H575 0.984 . S
N569 C562 1.356 . S
N569 H572 0.984 1_565 S
N569 H573 0.985 . S
H570 N565 0.984 . S
H571 N565 0.985 . S
H572 N569 0.984 1_545 S
H573 N569 0.985 . S
H574 N568 0.984 . S
H575 N568 0.984 . S
H576 N564 0.984 . S
H577 N564 0.985 . S
C578 C579 1.363 . S
C578 C584 1.379 . S
C578 N586 1.356 . S
C579 C578 1.363 . S
C579 C585 1.363 . S
C580 C581 1.363 . S
C580 C585 1.379 . S
C580 N587 1.356 . S
C581 C580 1.363 . S
C581 C584 1.363 . S
N582 C584 1.356 . S
N582 H594 0.984 . S
N582 H595 0.985 . S
N583 C585 1.356 1_545 S
N583 H588 0.984 . S
N583 H589 0.985 . S
C584 C578 1.379 . S
C584 C581 1.363 . S
C584 N582 1.356 . S
C585 C579 1.363 . S
C585 C580 1.379 . S
C585 N583 1.356 1_565 S
N586 C578 1.356 . S
N586 H592 0.984 . S
N586 H593 0.984 . S
N587 C580 1.356 . S
N587 H590 0.984 . S
N587 H591 0.985 1_565 S
H588 N583 0.984 . S
H589 N583 0.985 . S
H590 N587 0.984 . S
H591 N587 0.985 1_545 S
H592 N586 0.984 . S
H593 N586 0.984 . S
H594 N582 0.984 . S
H595 N582 0.985 . S
C596 C597 1.363 . S
C596 C602 1.379 . S
C596 N604 1.356 . S
C597 C596 1.363 . S
C597 C603 1.363 . S
C598 C599 1.363 . S
C598 C603 1.379 . S
C598 N605 1.356 . S
C599 C598 1.363 . S
C599 C602 1.363 . S
N600 C602 1.356 . S
N600 H612 0.984 . S
N600 H613 0.985 . S
N601 C603 1.356 . S
N601 H606 0.984 . S
N601 H607 0.985 . S
C602 C596 1.379 . S
C602 C599 1.363 . S
C602 N600 1.356 . S
C603 C597 1.363 . S
C603 C598 1.379 . S
C603 N601 1.356 . S
N604 C596 1.356 . S
N604 H610 0.984 . S
N604 H611 0.984 . S
N605 C598 1.356 . S
N605 H608 0.984 . S
N605 H609 0.985 . S
H606 N601 0.984 . S
H607 N601 0.985 . S
H608 N605 0.984 . S
H609 N605 0.985 . S
H610 N604 0.984 . S
H611 N604 0.984 . S
H612 N600 0.984 . S
H613 N600 0.985 . S
C614 C615 1.363 . S
C614 C620 1.379 . S
C614 N622 1.356 . S
C615 C614 1.363 . S
C615 C621 1.363 . S
C616 C617 1.363 . S
C616 C621 1.379 . S
C616 N623 1.356 . S
C617 C616 1.363 . S
C617 C620 1.363 . S
N618 C620 1.356 . S
N618 H630 0.984 . S
N618 H631 0.985 . S
N619 C621 1.356 1_455 S
N619 H624 0.984 . S
N619 H625 0.985 . S
C620 C614 1.379 . S
C620 C617 1.363 . S
C620 N618 1.356 . S
C621 C615 1.363 . S
C621 C616 1.379 . S
C621 N619 1.356 1_655 S
N622 C614 1.356 . S
N622 H628 0.984 . S
N622 H629 0.984 . S
N623 C616 1.356 . S
N623 H626 0.984 . S
N623 H627 0.985 1_655 S
H624 N619 0.984 . S
H625 N619 0.985 . S
H626 N623 0.984 . S
H627 N623 0.985 1_455 S
H628 N622 0.984 . S
H629 N622 0.984 . S
H630 N618 0.984 . S
H631 N618 0.985 . S
C632 C633 1.363 . S
C632 C638 1.379 . S
C632 N640 1.356 . S
C633 C632 1.363 . S
C633 C639 1.363 . S
C634 C635 1.363 . S
C634 C639 1.379 . S
C634 N641 1.356 . S
C635 C634 1.363 . S
C635 C638 1.363 . S
N636 C638 1.356 . S
N636 H648 0.984 . S
N636 H649 0.985 . S
N637 C639 1.356 . S
N637 H642 0.984 . S
N637 H643 0.985 . S
C638 C632 1.379 . S
C638 C635 1.363 . S
C638 N636 1.356 . S
C639 C633 1.363 . S
C639 C634 1.379 . S
C639 N637 1.356 . S
N640 C632 1.356 . S
N640 H646 0.984 . S
N640 H647 0.984 . S
N641 C634 1.356 . S
N641 H644 0.984 . S
N641 H645 0.985 . S
H642 N637 0.984 . S
H643 N637 0.985 . S
H644 N641 0.984 . S
H645 N641 0.985 . S
H646 N640 0.984 . S
H647 N640 0.984 . S
H648 N636 0.984 . S
H649 N636 0.985 . S
C650 C651 1.363 . S
C650 C656 1.379 . S
C650 N658 1.356 . S
C651 C650 1.363 . S
C651 C657 1.363 . S
C652 C653 1.363 . S
C652 C657 1.379 . S
C652 N659 1.356 . S
C653 C652 1.363 . S
C653 C656 1.363 . S
N654 C656 1.356 . S
N654 H666 0.984 . S
N654 H667 0.985 . S
N655 C657 1.356 . S
N655 H660 0.984 . S
N655 H661 0.985 . S
C656 C650 1.379 . S
C656 C653 1.363 . S
C656 N654 1.356 . S
C657 C651 1.363 . S
C657 C652 1.379 . S
C657 N655 1.356 . S
N658 C650 1.356 . S
N658 H664 0.984 . S
N658 H665 0.984 . S
N659 C652 1.356 . S
N659 H662 0.984 . S
N659 H663 0.985 . S
H660 N655 0.984 . S
H661 N655 0.985 . S
H662 N659 0.984 . S
H663 N659 0.985 . S
H664 N658 0.984 . S
H665 N658 0.984 . S
H666 N654 0.984 . S
H667 N654 0.985 . S
C668 C669 1.363 . S
C668 C674 1.379 . S
C668 N676 1.356 . S
C669 C668 1.363 . S
C669 C675 1.363 . S
C670 C671 1.363 . S
C670 C675 1.379 . S
C670 N677 1.356 . S
C671 C670 1.363 . S
C671 C674 1.363 . S
N672 C674 1.356 . S
N672 H684 0.984 . S
N672 H685 0.985 . S
N673 C675 1.356 . S
N673 H678 0.984 . S
N673 H679 0.985 . S
C674 C668 1.379 . S
C674 C671 1.363 . S
C674 N672 1.356 . S
C675 C669 1.363 . S
C675 C670 1.379 . S
C675 N673 1.356 . S
N676 C668 1.356 . S
N676 H682 0.984 . S
N676 H683 0.984 . S
N677 C670 1.356 . S
N677 H680 0.984 . S
N677 H681 0.985 . S
H678 N673 0.984 . S
H679 N673 0.985 . S
H680 N677 0.984 . S
H681 N677 0.985 . S
H682 N676 0.984 . S
H683 N676 0.984 . S
H684 N672 0.984 . S
H685 N672 0.985 . S
C686 C687 1.363 . S
C686 C692 1.379 . S
C686 N694 1.356 . S
C687 C686 1.363 . S
C687 C693 1.363 . S
C688 C689 1.363 . S
C688 C693 1.379 . S
C688 N695 1.356 . S
C689 C688 1.363 . S
C689 C692 1.363 . S
N690 C692 1.356 . S
N690 H702 0.998 . S
N690 H703 0.985 . S
N691 C693 1.356 . S
N691 H696 0.984 . S
N691 H697 0.985 . S
C692 C686 1.379 . S
C692 C689 1.363 . S
C692 N690 1.356 . S
C693 C687 1.363 . S
C693 C688 1.379 . S
C693 N691 1.356 . S
N694 C686 1.356 . S
N694 H700 0.984 . S
N694 H701 0.984 . S
N695 C688 1.356 . S
N695 H698 0.984 . S
N695 H699 0.985 . S
H696 N691 0.984 . S
H697 N691 0.985 . S
H698 N695 0.984 . S
H699 N695 0.985 . S
H700 N694 0.984 . S
H701 N694 0.984 . S
H702 N690 0.998 . S
H703 N690 0.985 . S
C704 C705 1.363 . S
C704 C710 1.379 . S
C704 N712 1.356 . S
C705 C704 1.363 . S
C705 C711 1.363 . S
C706 C707 1.363 . S
C706 C711 1.379 . S
C706 N713 1.356 . S
C707 C706 1.363 . S
C707 C710 1.363 . S
N708 C710 1.356 . S
N708 H720 0.984 . S
N708 H721 0.985 . S
N709 C711 1.356 . S
N709 H714 0.984 . S
N709 H715 0.985 . S
C710 C704 1.379 . S
C710 C707 1.363 . S
C710 N708 1.356 . S
C711 C705 1.363 . S
C711 C706 1.379 . S
C711 N709 1.356 . S
N712 C704 1.356 . S
N712 H718 0.984 . S
N712 H719 0.984 . S
N713 C706 1.356 . S
N713 H716 0.984 . S
N713 H717 0.985 . S
H714 N709 0.984 . S
H715 N709 0.985 . S
H716 N713 0.984 . S
H717 N713 0.985 . S
H718 N712 0.984 . S
H719 N712 0.984 . S
H720 N708 0.984 . S
H721 N708 0.985 . S
C722 C723 1.363 . S
C722 C728 1.379 . S
C722 N730 1.356 . S
C723 C722 1.363 . S
C723 C729 1.363 . S
C724 C725 1.363 . S
C724 C729 1.379 . S
C724 N731 1.356 . S
C725 C724 1.363 . S
C725 C728 1.363 . S
N726 C728 1.356 . S
N726 H738 0.984 . S
N726 H739 0.985 . S
N727 C729 1.356 . S
N727 H732 0.984 . S
N727 H733 0.985 . S
C728 C722 1.379 . S
C728 C725 1.363 . S
C728 N726 1.356 . S
C729 C723 1.363 . S
C729 C724 1.379 . S
C729 N727 1.356 . S
N730 C722 1.356 . S
N730 H736 0.984 . S
N730 H737 0.984 . S
N731 C724 1.356 . S
N731 H734 0.984 1_556 S
N731 H735 0.985 . S
H732 N727 0.984 . S
H733 N727 0.985 . S
H734 N731 0.984 1_554 S
H735 N731 0.985 . S
H736 N730 0.984 . S
H737 N730 0.984 . S
H738 N726 0.984 . S
H739 N726 0.985 . S
C740 C741 1.363 . S
C740 C746 1.379 . S
C740 N748 1.356 . S
C741 C740 1.363 . S
C741 C747 1.363 . S
C742 C743 1.363 . S
C742 C747 1.379 . S
C742 N749 1.356 . S
C743 C742 1.363 . S
C743 C746 1.363 . S
N744 C746 1.356 . S
N744 H756 0.984 . S
N744 H757 0.985 . S
N745 C747 1.356 . S
N745 H750 0.984 . S
N745 H751 0.985 . S
C746 C740 1.379 . S
C746 C743 1.363 . S
C746 N744 1.356 . S
C747 C741 1.363 . S
C747 C742 1.379 . S
C747 N745 1.356 . S
N748 C740 1.356 . S
N748 H754 0.984 . S
N748 H755 0.984 . S
N749 C742 1.356 . S
N749 H752 0.984 . S
N749 H753 0.985 . S
H750 N745 0.984 . S
H751 N745 0.985 . S
H752 N749 0.984 . S
H753 N749 0.985 . S
H754 N748 0.984 . S
H755 N748 0.984 . S
H756 N744 0.984 . S
H757 N744 0.985 . S
C758 C759 1.363 . S
C758 C764 1.379 . S
C758 N766 1.356 . S
C759 C758 1.363 . S
C759 C765 1.363 . S
C760 C761 1.363 . S
C760 C765 1.379 . S
C760 N767 1.356 . S
C761 C760 1.363 . S
C761 C764 1.363 . S
N762 C764 1.356 . S
N762 H774 0.984 1_556 S
N762 H775 0.985 1_556 S
N763 C765 1.356 . S
N763 H768 0.984 . S
N763 H769 0.985 . S
C764 C758 1.379 . S
C764 C761 1.363 . S
C764 N762 1.356 . S
C765 C759 1.363 . S
C765 C760 1.379 . S
C765 N763 1.356 . S
N766 C758 1.356 . S
N766 H772 0.984 . S
N766 H773 0.984 . S
N767 C760 1.356 . S
N767 H770 0.984 . S
N767 H771 0.985 . S
H768 N763 0.984 . S
H769 N763 0.985 . S
H770 N767 0.984 . S
H771 N767 0.985 . S
H772 N766 0.984 . S
H773 N766 0.984 . S
H774 N762 0.984 1_554 S
H775 N762 0.985 1_554 S
C776 C777 1.363 . S
C776 C782 1.379 . S
C776 N784 1.356 . S
C777 C776 1.363 . S
C777 C783 1.363 . S
C778 C779 1.363 . S
C778 C783 1.379 . S
C778 N785 1.356 1_655 S
C779 C778 1.363 . S
C779 C782 1.363 . S
N780 C782 1.356 . S
N780 H792 0.984 . S
N780 H793 0.985 . S
N781 C783 1.356 1_554 S
N781 H786 0.984 . S
N781 H787 0.985 . S
C782 C776 1.379 . S
C782 C779 1.363 . S
C782 N780 1.356 . S
C783 C777 1.363 . S
C783 C778 1.379 . S
C783 N781 1.356 1_556 S
N784 C776 1.356 . S
N784 H790 0.984 . S
N784 H791 0.984 . S
N785 C778 1.356 1_455 S
N785 H788 0.984 . S
N785 H789 0.985 1_556 S
H786 N781 0.984 . S
H787 N781 0.985 . S
H788 N785 0.984 . S
H789 N785 0.985 1_554 S
H790 N784 0.984 . S
H791 N784 0.984 . S
H792 N780 0.984 . S
H793 N780 0.985 . S
C794 C795 1.363 . S
C794 C800 1.379 . S
C794 N802 1.356 . S
C795 C794 1.363 . S
C795 C801 1.363 . S
C796 C797 1.363 . S
C796 C801 1.379 . S
C796 N803 1.356 . S
C797 C796 1.363 . S
C797 C800 1.363 . S
N798 C800 1.356 . S
N798 H810 0.984 . S
N798 H811 0.985 . S
N799 C801 1.356 . S
N799 H804 0.984 . S
N799 H805 0.985 . S
C800 C794 1.379 . S
C800 C797 1.363 . S
C800 N798 1.356 . S
C801 C795 1.363 . S
C801 C796 1.379 . S
C801 N799 1.356 . S
N802 C794 1.356 . S
N802 H808 0.984 . S
N802 H809 0.984 . S
N803 C796 1.356 . S
N803 H806 0.984 . S
N803 H807 0.985 . S
H804 N799 0.984 . S
H805 N799 0.985 . S
H806 N803 0.984 . S
H807 N803 0.985 . S
H808 N802 0.984 . S
H809 N802 0.984 . S
H810 N798 0.984 . S
H811 N798 0.985 . S
C812 C813 1.363 . S
C812 C818 1.379 . S
C812 N820 1.356 . S
C813 C812 1.363 . S
C813 C819 1.363 . S
C814 C815 1.363 . S
C814 C819 1.379 . S
C814 N821 1.356 . S
C815 C814 1.363 . S
C815 C818 1.363 . S
N816 C818 1.356 . S
N816 H828 0.984 . S
N816 H829 0.985 . S
N817 C819 1.356 . S
N817 H822 0.984 . S
N817 H823 0.985 . S
C818 C812 1.379 . S
C818 C815 1.363 . S
C818 N816 1.356 . S
C819 C813 1.363 . S
C819 C814 1.379 . S
C819 N817 1.356 . S
N820 C812 1.356 . S
N820 H826 0.984 . S
N820 H827 0.984 . S
N821 C814 1.356 . S
N821 H824 0.984 . S
N821 H825 0.985 . S
H822 N817 0.984 . S
H823 N817 0.985 . S
H824 N821 0.984 . S
H825 N821 0.985 . S
H826 N820 0.984 . S
H827 N820 0.984 . S
H828 N816 0.984 . S
H829 N816 0.985 . S
C830 C831 1.363 . S
C830 C836 1.379 . S
C830 N838 1.358 . S
C831 C830 1.363 . S
C831 C837 1.363 . S
C832 C833 1.363 . S
C832 C837 1.379 . S
C832 N839 1.356 . S
C833 C832 1.363 . S
C833 C836 1.363 . S
N834 C836 1.356 . S
N834 H846 0.984 1_545 S
N834 H847 0.985 . S
N835 C837 1.356 . S
N835 H840 0.984 . S
N835 H841 0.985 . S
C836 C830 1.379 . S
C836 C833 1.363 . S
C836 N834 1.356 . S
C837 C831 1.363 . S
C837 C832 1.379 . S
C837 N835 1.356 . S
N838 C830 1.358 . S
N838 H844 0.977 1_545 S
N838 H845 0.990 . S
N839 C832 1.356 . S
N839 H842 0.984 . S
N839 H843 0.985 . S
H840 N835 0.984 . S
H841 N835 0.985 . S
H842 N839 0.984 . S
H843 N839 0.985 . S
H844 N838 0.977 1_565 S
H845 N838 0.990 . S
H846 N834 0.984 1_565 S
H847 N834 0.985 . S
C848 C849 1.363 . S
C848 C854 1.379 . S
C848 N856 1.356 . S
C849 C848 1.363 . S
C849 C855 1.363 . S
C850 C851 1.363 . S
C850 C855 1.379 . S
C850 N857 1.356 . S
C851 C850 1.363 . S
C851 C854 1.363 . S
N852 C854 1.356 . S
N852 H864 0.984 . S
N852 H865 0.985 . S
N853 C855 1.356 . S
N853 H858 0.984 . S
N853 H859 0.985 . S
C854 C848 1.379 . S
C854 C851 1.363 . S
C854 N852 1.356 . S
C855 C849 1.363 . S
C855 C850 1.379 . S
C855 N853 1.356 . S
N856 C848 1.356 . S
N856 H862 0.984 . S
N856 H863 0.984 . S
N857 C850 1.356 . S
N857 H860 0.984 1_655 S
N857 H861 0.985 1_655 S
H858 N853 0.984 . S
H859 N853 0.985 . S
H860 N857 0.984 1_455 S
H861 N857 0.985 1_455 S
H862 N856 0.984 . S
H863 N856 0.984 . S
H864 N852 0.984 . S
H865 N852 0.985 . S
C866 C867 1.363 . S
C866 C872 1.379 . S
C866 N874 1.356 . S
C867 C866 1.363 . S
C867 C873 1.363 . S
C868 C869 1.363 . S
C868 C873 1.379 . S
C868 N875 1.356 . S
C869 C868 1.363 . S
C869 C872 1.363 . S
N870 C872 1.356 . S
N870 H882 0.984 . S
N870 H883 0.985 . S
N871 C873 1.356 . S
N871 H876 0.984 . S
N871 H877 0.985 . S
C872 C866 1.379 . S
C872 C869 1.363 . S
C872 N870 1.356 . S
C873 C867 1.363 . S
C873 C868 1.379 . S
C873 N871 1.356 . S
N874 C866 1.356 . S
N874 H880 0.984 . S
N874 H881 0.984 . S
N875 C868 1.356 . S
N875 H878 0.984 . S
N875 H879 0.975 1_556 S
H876 N871 0.984 . S
H877 N871 0.985 . S
H878 N875 0.984 . S
H879 N875 0.975 1_554 S
H880 N874 0.984 . S
H881 N874 0.984 . S
H882 N870 0.984 . S
H883 N870 0.985 . S
C884 C885 1.363 . S
C884 C890 1.379 . S
C884 N892 1.356 . S
C885 C884 1.363 . S
C885 C891 1.363 . S
C886 C887 1.363 . S
C886 C891 1.379 . S
C886 N893 1.356 . S
C887 C886 1.363 . S
C887 C890 1.363 . S
N888 C890 1.356 . S
N888 H900 0.984 . S
N888 H901 0.985 . S
N889 C891 1.356 . S
N889 H894 0.984 . S
N889 H895 0.985 . S
C890 C884 1.379 . S
C890 C887 1.363 . S
C890 N888 1.356 . S
C891 C885 1.363 . S
C891 C886 1.379 . S
C891 N889 1.356 . S
N892 C884 1.356 . S
N892 H898 0.984 . S
N892 H899 0.984 . S
N893 C886 1.356 . S
N893 H896 0.984 . S
N893 H897 0.985 . S
H894 N889 0.984 . S
H895 N889 0.985 . S
H896 N893 0.984 . S
H897 N893 0.985 . S
H898 N892 0.984 . S
H899 N892 0.984 . S
H900 N888 0.984 . S
H901 N888 0.985 . S
C902 C903 1.363 . S
C902 C908 1.379 . S
C902 N910 1.356 . S
C903 C902 1.363 . S
C903 C909 1.363 . S
C904 C905 1.363 . S
C904 C909 1.379 . S
C904 N911 1.356 . S
C905 C904 1.363 . S
C905 C908 1.363 . S
N906 C908 1.356 . S
N906 H918 0.984 . S
N906 H919 0.985 . S
N907 C909 1.356 . S
N907 H912 0.984 . S
N907 H913 0.985 . S
C908 C902 1.379 . S
C908 C905 1.363 . S
C908 N906 1.356 . S
C909 C903 1.363 . S
C909 C904 1.379 . S
C909 N907 1.356 . S
N910 C902 1.356 . S
N910 H916 0.984 . S
N910 H917 0.984 . S
N911 C904 1.356 . S
N911 H914 0.984 . S
N911 H915 0.985 . S
H912 N907 0.984 . S
H913 N907 0.985 . S
H914 N911 0.984 . S
H915 N911 0.985 . S
H916 N910 0.984 . S
H917 N910 0.984 . S
H918 N906 0.984 . S
H919 N906 0.985 . S
C920 C921 1.363 . S
C920 C926 1.379 . S
C920 N928 1.356 . S
C921 C920 1.363 . S
C921 C927 1.363 . S
C922 C923 1.363 . S
C922 C927 1.379 . S
C922 N929 1.356 . S
C923 C922 1.363 . S
C923 C926 1.363 . S
N924 C926 1.356 . S
N924 H936 0.984 . S
N924 H937 0.985 . S
N925 C927 1.356 . S
N925 H930 0.984 . S
N925 H931 0.985 . S
C926 C920 1.379 . S
C926 C923 1.363 . S
C926 N924 1.356 . S
C927 C921 1.363 . S
C927 C922 1.379 . S
C927 N925 1.356 . S
N928 C920 1.356 . S
N928 H934 0.984 . S
N928 H935 0.984 . S
N929 C922 1.356 . S
N929 H932 0.984 . S
N929 H933 0.985 . S
H930 N925 0.984 . S
H931 N925 0.985 . S
H932 N929 0.984 . S
H933 N929 0.985 . S
H934 N928 0.984 . S
H935 N928 0.984 . S
H936 N924 0.984 . S
H937 N924 0.985 . S
C938 C939 1.363 . S
C938 C944 1.379 . S
C938 N946 1.356 . S
C939 C938 1.363 . S
C939 C945 1.363 . S
C940 C941 1.363 . S
C940 C945 1.379 . S
C940 N947 1.356 . S
C941 C940 1.363 . S
C941 C944 1.363 . S
N942 C944 1.356 . S
N942 H954 0.984 . S
N942 H955 0.985 . S
N943 C945 1.356 . S
N943 H948 0.984 . S
N943 H949 0.985 . S
C944 C938 1.379 . S
C944 C941 1.363 . S
C944 N942 1.356 . S
C945 C939 1.363 . S
C945 C940 1.379 . S
C945 N943 1.356 . S
N946 C938 1.356 . S
N946 H952 0.984 . S
N946 H953 0.984 . S
N947 C940 1.356 . S
N947 H950 0.984 . S
N947 H951 0.985 . S
H948 N943 0.984 . S
H949 N943 0.985 . S
H950 N947 0.984 . S
H951 N947 0.985 . S
H952 N946 0.984 . S
H953 N946 0.984 . S
H954 N942 0.984 . S
H955 N942 0.985 . S
C956 C957 1.363 . S
C956 C962 1.379 . S
C956 N964 1.356 . S
C957 C956 1.363 . S
C957 C963 1.363 . S
C958 C959 1.363 . S
C958 C963 1.379 . S
C958 N965 1.356 . S
C959 C958 1.363 . S
C959 C962 1.363 . S
N960 C962 1.356 . S
N960 H972 0.984 . S
N960 H973 0.985 . S
N961 C963 1.356 . S
N961 H966 0.984 . S
N961 H967 0.985 . S
C962 C956 1.379 . S
C962 C959 1.363 . S
C962 N960 1.356 . S
C963 C957 1.363 . S
C963 C958 1.379 . S
C963 N961 1.356 . S
N964 C956 1.356 . S
N964 H970 0.984 . S
N964 H971 0.984 . S
N965 C958 1.356 . S
N965 H968 0.984 . S
N965 H969 0.985 . S
H966 N961 0.984 . S
H967 N961 0.985 . S
H968 N965 0.984 . S
H969 N965 0.985 . S
H970 N964 0.984 . S
H971 N964 0.984 . S
H972 N960 0.984 . S
H973 N960 0.985 . S
C974 C975 1.363 . S
C974 C980 1.379 . S
C974 N982 1.356 . S
C975 C974 1.363 . S
C975 C981 1.363 . S
C976 C977 1.363 . S
C976 C981 1.379 . S
C976 N983 1.356 . S
C977 C976 1.363 . S
C977 C980 1.363 . S
N978 C980 1.356 . S
N978 H990 0.984 . S
N978 H991 0.985 . S
N979 C981 1.356 . S
N979 H984 0.984 . S
N979 H985 0.985 . S
C980 C974 1.379 . S
C980 C977 1.363 . S
C980 N978 1.356 . S
C981 C975 1.363 . S
C981 C976 1.379 . S
C981 N979 1.356 . S
N982 C974 1.356 . S
N982 H988 0.984 . S
N982 H989 0.984 . S
N983 C976 1.356 . S
N983 H986 0.984 . S
N983 H987 0.985 . S
H984 N979 0.984 . S
H985 N979 0.985 . S
H986 N983 0.984 . S
H987 N983 0.985 . S
H988 N982 0.984 . S
H989 N982 0.984 . S
H990 N978 0.984 . S
H991 N978 0.985 . S
C992 C993 1.363 . S
C992 C998 1.379 . S
C992 N1000 1.356 1_556 S
C993 C992 1.363 . S
C993 C999 1.363 . S
C994 C995 1.363 . S
C994 C999 1.379 . S
C994 N1001 1.356 . S
C995 C994 1.363 . S
C995 C998 1.363 . S
N996 C998 1.356 . S
N996 H1008 0.984 1_556 S
N996 H1009 0.985 . S
N997 C999 1.356 . S
N997 H1002 0.984 . S
N997 H1003 0.985 . S
C998 C992 1.379 . S
C998 C995 1.363 . S
C998 N996 1.356 . S
C999 C993 1.363 . S
C999 C994 1.379 . S
C999 N997 1.356 . S
N1000 C992 1.356 1_554 S
N1000 H1006 0.984 . S
N1000 H1007 0.985 . S
N1001 C994 1.356 . S
N1001 H1004 0.984 . S
N1001 H1005 0.985 . S
H1002 N997 0.984 . S
H1003 N997 0.985 . S
H1004 N1001 0.984 . S
H1005 N1001 0.985 . S
H1006 N1000 0.984 . S
H1007 N1000 0.985 . S
H1008 N996 0.984 1_554 S
H1009 N996 0.985 . S
C1010 C1011 1.363 . S
C1010 C1016 1.379 . S
C1010 N1018 1.356 . S
C1011 C1010 1.363 . S
C1011 C1017 1.363 . S
C1012 C1013 1.363 . S
C1012 C1017 1.379 . S
C1012 N1019 1.356 . S
C1013 C1012 1.363 . S
C1013 C1016 1.363 . S
N1014 C1016 1.356 . S
N1014 H1026 0.984 . S
N1014 H1027 0.985 . S
N1015 C1017 1.356 . S
N1015 H1020 0.984 . S
N1015 H1021 0.985 . S
C1016 C1010 1.379 . S
C1016 C1013 1.363 . S
C1016 N1014 1.356 . S
C1017 C1011 1.363 . S
C1017 C1012 1.379 . S
C1017 N1015 1.356 . S
N1018 C1010 1.356 . S
N1018 H1024 0.984 . S
N1018 H1025 0.984 . S
N1019 C1012 1.356 . S
N1019 H1022 0.984 . S
N1019 H1023 0.985 . S
H1020 N1015 0.984 . S
H1021 N1015 0.985 . S
H1022 N1019 0.984 . S
H1023 N1019 0.985 . S
H1024 N1018 0.984 . S
H1025 N1018 0.984 . S
H1026 N1014 0.984 . S
H1027 N1014 0.985 . S
C1028 C1029 1.363 . S
C1028 C1034 1.379 . S
C1028 N1036 1.356 . S
C1029 C1028 1.363 . S
C1029 C1035 1.363 . S
C1030 C1031 1.363 . S
C1030 C1035 1.379 . S
C1030 N1037 1.356 . S
C1031 C1030 1.363 . S
C1031 C1034 1.363 . S
N1032 C1034 1.356 . S
N1032 H1044 0.984 . S
N1032 H1045 0.985 . S
N1033 C1035 1.356 . S
N1033 H1038 0.984 . S
N1033 H1039 0.985 . S
C1034 C1028 1.379 . S
C1034 C1031 1.363 . S
C1034 N1032 1.356 . S
C1035 C1029 1.363 . S
C1035 C1030 1.379 . S
C1035 N1033 1.356 . S
N1036 C1028 1.356 . S
N1036 H1042 0.984 . S
N1036 H1043 0.984 . S
N1037 C1030 1.356 . S
N1037 H1040 0.984 . S
N1037 H1041 0.985 . S
H1038 N1033 0.984 . S
H1039 N1033 0.985 . S
H1040 N1037 0.984 . S
H1041 N1037 0.985 . S
H1042 N1036 0.984 . S
H1043 N1036 0.984 . S
H1044 N1032 0.984 . S
H1045 N1032 0.985 . S
C1046 C1047 1.363 . S
C1046 C1052 1.379 . S
C1046 N1054 1.356 . S
C1047 C1046 1.363 . S
C1047 C1053 1.363 . S
C1048 C1049 1.363 . S
C1048 C1053 1.379 . S
C1048 N1055 1.356 . S
C1049 C1048 1.363 . S
C1049 C1052 1.363 . S
N1050 C1052 1.356 . S
N1050 H1062 0.984 . S
N1050 H1063 0.985 . S
N1051 C1053 1.356 . S
N1051 H1056 0.984 . S
N1051 H1057 0.985 . S
C1052 C1046 1.379 . S
C1052 C1049 1.363 . S
C1052 N1050 1.356 . S
C1053 C1047 1.363 . S
C1053 C1048 1.379 . S
C1053 N1051 1.356 . S
N1054 C1046 1.356 . S
N1054 H1060 0.984 . S
N1054 H1061 0.984 . S
N1055 C1048 1.356 . S
N1055 H1058 0.984 . S
N1055 H1059 0.985 . S
H1056 N1051 0.984 . S
H1057 N1051 0.985 . S
H1058 N1055 0.984 . S
H1059 N1055 0.985 . S
H1060 N1054 0.984 . S
H1061 N1054 0.984 . S
H1062 N1050 0.984 . S
H1063 N1050 0.985 . S
C1064 C1065 1.363 . S
C1064 C1070 1.379 . S
C1064 N1072 1.356 . S
C1065 C1064 1.363 . S
C1065 C1071 1.363 . S
C1066 C1067 1.363 . S
C1066 C1071 1.379 . S
C1066 N1073 1.356 . S
C1067 C1066 1.363 . S
C1067 C1070 1.363 . S
N1068 C1070 1.356 . S
N1068 H1080 0.984 . S
N1068 H1081 0.985 . S
N1069 C1071 1.356 . S
N1069 H1074 0.984 . S
N1069 H1075 0.985 . S
C1070 C1064 1.379 . S
C1070 C1067 1.363 . S
C1070 N1068 1.356 . S
C1071 C1065 1.363 . S
C1071 C1066 1.379 . S
C1071 N1069 1.356 . S
N1072 C1064 1.356 . S
N1072 H1078 0.984 . S
N1072 H1079 0.984 . S
N1073 C1066 1.356 . S
N1073 H1076 0.984 . S
N1073 H1077 0.985 . S
H1074 N1069 0.984 . S
H1075 N1069 0.985 . S
H1076 N1073 0.984 . S
H1077 N1073 0.985 . S
H1078 N1072 0.984 . S
H1079 N1072 0.984 . S
H1080 N1068 0.984 . S
H1081 N1068 0.985 . S
C1082 C1083 1.363 . S
C1082 C1088 1.379 . S
C1082 N1090 1.356 . S
C1083 C1082 1.363 . S
C1083 C1089 1.363 . S
C1084 C1085 1.363 . S
C1084 C1089 1.379 . S
C1084 N1091 1.356 . S
C1085 C1084 1.363 . S
C1085 C1088 1.363 . S
N1086 C1088 1.356 . S
N1086 H1098 0.984 . S
N1086 H1099 0.985 . S
N1087 C1089 1.356 . S
N1087 H1092 0.984 . S
N1087 H1093 0.985 . S
C1088 C1082 1.379 . S
C1088 C1085 1.363 . S
C1088 N1086 1.356 . S
C1089 C1083 1.363 . S
C1089 C1084 1.379 . S
C1089 N1087 1.356 . S
N1090 C1082 1.356 . S
N1090 H1096 0.984 . S
N1090 H1097 0.984 . S
N1091 C1084 1.356 . S
N1091 H1094 0.984 . S
N1091 H1095 0.985 . S
H1092 N1087 0.984 . S
H1093 N1087 0.985 . S
H1094 N1091 0.984 . S
H1095 N1091 0.985 . S
H1096 N1090 0.984 . S
H1097 N1090 0.984 . S
H1098 N1086 0.984 . S
H1099 N1086 0.985 . S
C1100 C1101 1.363 . S
C1100 C1106 1.379 . S
C1100 N1108 1.356 . S
C1101 C1100 1.363 . S
C1101 C1107 1.363 . S
C1102 C1103 1.363 . S
C1102 C1107 1.379 . S
C1102 N1109 1.356 . S
C1103 C1102 1.363 . S
C1103 C1106 1.363 . S
N1104 C1106 1.356 . S
N1104 H1116 0.984 . S
N1104 H1117 0.985 . S
N1105 C1107 1.356 . S
N1105 H1110 0.984 . S
N1105 H1111 0.985 . S
C1106 C1100 1.379 . S
C1106 C1103 1.363 . S
C1106 N1104 1.356 . S
C1107 C1101 1.363 . S
C1107 C1102 1.379 . S
C1107 N1105 1.356 . S
N1108 C1100 1.356 . S
N1108 H1114 0.984 . S
N1108 H1115 0.984 . S
N1109 C1102 1.356 . S
N1109 H1112 0.984 1_565 S
N1109 H1113 0.985 . S
H1110 N1105 0.984 . S
H1111 N1105 0.985 . S
H1112 N1109 0.984 1_545 S
H1113 N1109 0.985 . S
H1114 N1108 0.984 . S
H1115 N1108 0.984 . S
H1116 N1104 0.984 . S
H1117 N1104 0.985 . S
C1118 C1119 1.363 . S
C1118 C1124 1.379 . S
C1118 N1126 1.356 . S
C1119 C1118 1.363 . S
C1119 C1125 1.363 . S
C1120 C1121 1.363 . S
C1120 C1125 1.379 . S
C1120 N1127 1.356 . S
C1121 C1120 1.363 . S
C1121 C1124 1.363 . S
N1122 C1124 1.356 . S
N1122 H1134 0.984 . S
N1122 H1135 0.985 . S
N1123 C1125 1.356 . S
N1123 H1128 0.984 . S
N1123 H1129 0.985 . S
C1124 C1118 1.379 . S
C1124 C1121 1.363 . S
C1124 N1122 1.356 . S
C1125 C1119 1.363 . S
C1125 C1120 1.379 . S
C1125 N1123 1.356 . S
N1126 C1118 1.356 . S
N1126 H1132 0.984 . S
N1126 H1133 0.984 . S
N1127 C1120 1.356 . S
N1127 H1130 0.984 . S
N1127 H1131 0.985 . S
H1128 N1123 0.984 . S
H1129 N1123 0.985 . S
H1130 N1127 0.984 . S
H1131 N1127 0.985 . S
H1132 N1126 0.984 . S
H1133 N1126 0.984 . S
H1134 N1122 0.984 . S
H1135 N1122 0.985 . S
C1136 C1137 1.363 . S
C1136 C1142 1.379 . S
C1136 N1144 1.356 . S
C1137 C1136 1.363 . S
C1137 C1143 1.363 . S
C1138 C1139 1.363 . S
C1138 C1143 1.379 . S
C1138 N1145 1.356 . S
C1139 C1138 1.363 . S
C1139 C1142 1.363 . S
N1140 C1142 1.356 . S
N1140 H1152 0.984 . S
N1140 H1153 0.985 . S
N1141 C1143 1.356 . S
N1141 H1146 0.984 . S
N1141 H1147 0.985 . S
C1142 C1136 1.379 . S
C1142 C1139 1.363 . S
C1142 N1140 1.356 . S
C1143 C1137 1.363 . S
C1143 C1138 1.379 . S
C1143 N1141 1.356 . S
N1144 C1136 1.356 . S
N1144 H1150 0.984 . S
N1144 H1151 0.984 . S
N1145 C1138 1.356 . S
N1145 H1148 0.984 . S
N1145 H1149 0.985 . S
H1146 N1141 0.984 . S
H1147 N1141 0.985 . S
H1148 N1145 0.984 . S
H1149 N1145 0.985 . S
H1150 N1144 0.984 . S
H1151 N1144 0.984 . S
H1152 N1140 0.984 . S
H1153 N1140 0.985 . S
C1154 C1155 1.363 . S
C1154 C1160 1.379 . S
C1154 N1162 1.356 . S
C1155 C1154 1.363 . S
C1155 C1161 1.363 . S
C1156 C1157 1.363 . S
C1156 C1161 1.379 . S
C1156 N1163 1.356 . S
C1157 C1156 1.363 . S
C1157 C1160 1.363 . S
N1158 C1160 1.356 . S
N1158 H1170 0.984 . S
N1158 H1171 0.985 . S
N1159 C1161 1.356 . S
N1159 H1164 0.984 . S
N1159 H1165 0.985 . S
C1160 C1154 1.379 . S
C1160 C1157 1.363 . S
C1160 N1158 1.356 . S
C1161 C1155 1.363 . S
C1161 C1156 1.379 . S
C1161 N1159 1.356 . S
N1162 C1154 1.356 . S
N1162 H1168 0.984 . S
N1162 H1169 0.984 . S
N1163 C1156 1.356 . S
N1163 H1166 0.984 . S
N1163 H1167 0.985 . S
H1164 N1159 0.984 . S
H1165 N1159 0.985 . S
H1166 N1163 0.984 . S
H1167 N1163 0.985 . S
H1168 N1162 0.984 . S
H1169 N1162 0.984 . S
H1170 N1158 0.984 . S
H1171 N1158 0.985 . S
C1172 C1173 1.363 . S
C1172 C1178 1.379 . S
C1172 N1180 1.356 . S
C1173 C1172 1.363 . S
C1173 C1179 1.363 . S
C1174 C1175 1.363 . S
C1174 C1179 1.379 . S
C1174 N1181 1.356 . S
C1175 C1174 1.363 . S
C1175 C1178 1.363 . S
N1176 C1178 1.356 . S
N1176 H1188 0.984 . S
N1176 H1189 0.985 . S
N1177 C1179 1.356 . S
N1177 H1182 0.984 . S
N1177 H1183 0.985 . S
C1178 C1172 1.379 . S
C1178 C1175 1.363 . S
C1178 N1176 1.356 . S
C1179 C1173 1.363 . S
C1179 C1174 1.379 . S
C1179 N1177 1.356 . S
N1180 C1172 1.356 . S
N1180 H1186 0.984 . S
N1180 H1187 0.984 . S
N1181 C1174 1.356 . S
N1181 H1184 0.984 1_565 S
N1181 H1185 0.985 . S
H1182 N1177 0.984 . S
H1183 N1177 0.985 . S
H1184 N1181 0.984 1_545 S
H1185 N1181 0.985 . S
H1186 N1180 0.984 . S
H1187 N1180 0.984 . S
H1188 N1176 0.984 . S
H1189 N1176 0.985 . S
C1190 C1191 1.363 . S
C1190 C1196 1.379 . S
C1190 N1198 1.356 . S
C1191 C1190 1.363 . S
C1191 C1197 1.363 . S
C1192 C1193 1.363 . S
C1192 C1197 1.379 . S
C1192 N1199 1.356 . S
C1193 C1192 1.363 . S
C1193 C1196 1.363 . S
N1194 C1196 1.356 . S
N1194 H1206 0.984 . S
N1194 H1207 0.985 . S
N1195 C1197 1.356 . S
N1195 H1200 0.984 . S
N1195 H1201 0.985 . S
C1196 C1190 1.379 . S
C1196 C1193 1.363 . S
C1196 N1194 1.356 . S
C1197 C1191 1.363 . S
C1197 C1192 1.379 . S
C1197 N1195 1.356 . S
N1198 C1190 1.356 . S
N1198 H1204 0.984 . S
N1198 H1205 0.984 . S
N1199 C1192 1.356 . S
N1199 H1202 0.984 . S
N1199 H1203 0.985 . S
H1200 N1195 0.984 . S
H1201 N1195 0.985 . S
H1202 N1199 0.984 . S
H1203 N1199 0.985 . S
H1204 N1198 0.984 . S
H1205 N1198 0.984 . S
H1206 N1194 0.984 . S
H1207 N1194 0.985 . S
C1208 C1209 1.363 . S
C1208 C1214 1.379 . S
C1208 N1216 1.356 . S
C1209 C1208 1.363 . S
C1209 C1215 1.363 . S
C1210 C1211 1.363 . S
C1210 C1215 1.379 . S
C1210 N1217 1.356 . S
C1211 C1210 1.363 . S
C1211 C1214 1.363 . S
N1212 C1214 1.356 . S
N1212 H1224 0.984 . S
N1212 H1225 0.985 . S
N1213 C1215 1.356 . S
N1213 H1218 0.984 . S
N1213 H1219 0.985 . S
C1214 C1208 1.379 . S
C1214 C1211 1.363 . S
C1214 N1212 1.356 . S
C1215 C1209 1.363 . S
C1215 C1210 1.379 . S
C1215 N1213 1.356 . S
N1216 C1208 1.356 . S
N1216 H1222 0.984 . S
N1216 H1223 0.984 . S
N1217 C1210 1.356 . S
N1217 H1220 0.984 . S
N1217 H1221 0.985 . S
H1218 N1213 0.984 . S
H1219 N1213 0.985 . S
H1220 N1217 0.984 . S
H1221 N1217 0.985 . S
H1222 N1216 0.984 . S
H1223 N1216 0.984 . S
H1224 N1212 0.984 . S
H1225 N1212 0.985 . S
C1226 C1227 1.363 . S
C1226 C1232 1.379 . S
C1226 N1234 1.356 . S
C1227 C1226 1.363 . S
C1227 C1233 1.363 . S
C1228 C1229 1.363 . S
C1228 C1233 1.379 . S
C1228 N1235 1.356 . S
C1229 C1228 1.363 . S
C1229 C1232 1.363 . S
N1230 C1232 1.356 . S
N1230 H1242 0.984 . S
N1230 H1243 0.985 . S
N1231 C1233 1.356 . S
N1231 H1236 0.984 . S
N1231 H1237 0.985 . S
C1232 C1226 1.379 . S
C1232 C1229 1.363 . S
C1232 N1230 1.356 . S
C1233 C1227 1.363 . S
C1233 C1228 1.379 . S
C1233 N1231 1.356 . S
N1234 C1226 1.356 . S
N1234 H1240 0.984 . S
N1234 H1241 0.984 . S
N1235 C1228 1.356 . S
N1235 H1238 0.984 . S
N1235 H1239 0.985 . S
H1236 N1231 0.984 . S
H1237 N1231 0.985 . S
H1238 N1235 0.984 . S
H1239 N1235 0.985 . S
H1240 N1234 0.984 . S
H1241 N1234 0.984 . S
H1242 N1230 0.984 . S
H1243 N1230 0.985 . S
C1244 C1245 1.363 . S
C1244 C1250 1.379 . S
C1244 N1252 1.356 . S
C1245 C1244 1.363 . S
C1245 C1251 1.363 . S
C1246 C1247 1.363 . S
C1246 C1251 1.379 . S
C1246 N1253 1.356 . S
C1247 C1246 1.363 . S
C1247 C1250 1.363 . S
N1248 C1250 1.356 . S
N1248 H1260 0.984 . S
N1248 H1261 0.985 . S
N1249 C1251 1.356 . S
N1249 H1254 0.984 . S
N1249 H1255 0.985 . S
C1250 C1244 1.379 . S
C1250 C1247 1.363 . S
C1250 N1248 1.356 . S
C1251 C1245 1.363 . S
C1251 C1246 1.379 . S
C1251 N1249 1.356 . S
N1252 C1244 1.356 . S
N1252 H1258 0.984 . S
N1252 H1259 0.984 . S
N1253 C1246 1.356 . S
N1253 H1256 0.984 . S
N1253 H1257 0.985 . S
H1254 N1249 0.984 . S
H1255 N1249 0.985 . S
H1256 N1253 0.984 . S
H1257 N1253 0.985 . S
H1258 N1252 0.984 . S
H1259 N1252 0.984 . S
H1260 N1248 0.984 . S
H1261 N1248 0.985 . S
C1262 C1263 1.363 . S
C1262 C1268 1.379 . S
C1262 N1270 1.356 . S
C1263 C1262 1.363 . S
C1263 C1269 1.363 . S
C1264 C1265 1.363 . S
C1264 C1269 1.379 . S
C1264 N1271 1.356 . S
C1265 C1264 1.363 . S
C1265 C1268 1.363 . S
N1266 C1268 1.356 . S
N1266 H1278 0.984 . S
N1266 H1279 0.985 . S
N1267 C1269 1.356 . S
N1267 H1272 0.984 . S
N1267 H1273 0.985 . S
C1268 C1262 1.379 . S
C1268 C1265 1.363 . S
C1268 N1266 1.356 . S
C1269 C1263 1.363 . S
C1269 C1264 1.379 . S
C1269 N1267 1.356 . S
N1270 C1262 1.356 . S
N1270 H1276 0.984 . S
N1270 H1277 0.984 . S
N1271 C1264 1.356 . S
N1271 H1274 0.984 . S
N1271 H1275 0.985 . S
H1272 N1267 0.984 . S
H1273 N1267 0.985 . S
H1274 N1271 0.984 . S
H1275 N1271 0.985 . S
H1276 N1270 0.984 . S
H1277 N1270 0.984 . S
H1278 N1266 0.984 . S
H1279 N1266 0.985 . S
C1280 C1281 1.363 . S
C1280 C1286 1.379 . S
C1280 N1288 1.356 . S
C1281 C1280 1.363 . S
C1281 C1287 1.363 . S
C1282 C1283 1.363 . S
C1282 C1287 1.379 . S
C1282 N1289 1.356 . S
C1283 C1282 1.363 . S
C1283 C1286 1.363 . S
N1284 C1286 1.356 . S
N1284 H1296 0.984 1_565 S
N1284 H1297 0.985 1_565 S
N1285 C1287 1.356 . S
N1285 H1290 0.984 . S
N1285 H1291 0.985 . S
C1286 C1280 1.379 . S
C1286 C1283 1.363 . S
C1286 N1284 1.356 . S
C1287 C1281 1.363 . S
C1287 C1282 1.379 . S
C1287 N1285 1.356 . S
N1288 C1280 1.356 . S
N1288 H1294 0.984 . S
N1288 H1295 0.984 . S
N1289 C1282 1.356 . S
N1289 H1292 0.984 . S
N1289 H1293 0.985 . S
H1290 N1285 0.984 . S
H1291 N1285 0.985 . S
H1292 N1289 0.984 . S
H1293 N1289 0.985 . S
H1294 N1288 0.984 . S
H1295 N1288 0.984 . S
H1296 N1284 0.984 1_545 S
H1297 N1284 0.985 1_545 S
C1298 C1299 1.363 . S
C1298 C1304 1.379 . S
C1298 N1306 1.356 . S
C1299 C1298 1.363 . S
C1299 C1305 1.363 . S
C1300 C1301 1.363 . S
C1300 C1305 1.379 . S
C1300 N1307 1.356 . S
C1301 C1300 1.363 . S
C1301 C1304 1.363 . S
N1302 C1304 1.356 . S
N1302 H1314 0.984 . S
N1302 H1315 0.985 . S
N1303 C1305 1.356 . S
N1303 H1308 0.984 . S
N1303 H1309 0.985 . S
C1304 C1298 1.379 . S
C1304 C1301 1.363 . S
C1304 N1302 1.356 . S
C1305 C1299 1.363 . S
C1305 C1300 1.379 . S
C1305 N1303 1.356 . S
N1306 C1298 1.356 . S
N1306 H1312 0.984 . S
N1306 H1313 0.984 . S
N1307 C1300 1.356 . S
N1307 H1310 0.984 . S
N1307 H1311 0.985 . S
H1308 N1303 0.984 . S
H1309 N1303 0.985 . S
H1310 N1307 0.984 . S
H1311 N1307 0.985 . S
H1312 N1306 0.984 . S
H1313 N1306 0.984 . S
H1314 N1302 0.984 . S
H1315 N1302 0.985 . S
C1316 C1317 1.363 . S
C1316 C1322 1.379 . S
C1316 N1324 1.356 . S
C1317 C1316 1.363 . S
C1317 C1323 1.363 . S
C1318 C1319 1.363 . S
C1318 C1323 1.379 . S
C1318 N1325 1.356 . S
C1319 C1318 1.363 . S
C1319 C1322 1.363 . S
N1320 C1322 1.356 . S
N1320 H1332 0.984 . S
N1320 H1333 0.985 . S
N1321 C1323 1.356 . S
N1321 H1326 0.984 . S
N1321 H1327 0.985 . S
C1322 C1316 1.379 . S
C1322 C1319 1.363 . S
C1322 N1320 1.356 . S
C1323 C1317 1.363 . S
C1323 C1318 1.379 . S
C1323 N1321 1.356 . S
N1324 C1316 1.356 . S
N1324 H1330 0.984 . S
N1324 H1331 0.984 . S
N1325 C1318 1.356 . S
N1325 H1328 0.984 . S
N1325 H1329 0.985 . S
H1326 N1321 0.984 . S
H1327 N1321 0.985 . S
H1328 N1325 0.984 . S
H1329 N1325 0.985 . S
H1330 N1324 0.984 . S
H1331 N1324 0.984 . S
H1332 N1320 0.984 . S
H1333 N1320 0.985 . S
C1334 C1335 1.363 . S
C1334 C1340 1.379 . S
C1334 N1342 1.356 . S
C1335 C1334 1.363 . S
C1335 C1341 1.363 . S
C1336 C1337 1.363 . S
C1336 C1341 1.379 . S
C1336 N1343 1.356 . S
C1337 C1336 1.363 . S
C1337 C1340 1.363 . S
N1338 C1340 1.356 . S
N1338 H1350 0.984 . S
N1338 H1351 0.985 . S
N1339 C1341 1.356 . S
N1339 H1344 0.984 . S
N1339 H1345 0.985 . S
C1340 C1334 1.379 . S
C1340 C1337 1.363 . S
C1340 N1338 1.356 . S
C1341 C1335 1.363 . S
C1341 C1336 1.379 . S
C1341 N1339 1.356 . S
N1342 C1334 1.356 . S
N1342 H1348 0.984 . S
N1342 H1349 0.984 . S
N1343 C1336 1.356 . S
N1343 H1346 0.984 . S
N1343 H1347 0.985 . S
H1344 N1339 0.984 . S
H1345 N1339 0.985 . S
H1346 N1343 0.984 . S
H1347 N1343 0.985 . S
H1348 N1342 0.984 . S
H1349 N1342 0.984 . S
H1350 N1338 0.984 . S
H1351 N1338 0.985 . S
C1352 C1353 1.363 . S
C1352 C1358 1.379 . S
C1352 N1360 1.356 . S
C1353 C1352 1.363 . S
C1353 C1359 1.363 . S
C1354 C1355 1.363 . S
C1354 C1359 1.379 . S
C1354 N1361 1.356 . S
C1355 C1354 1.363 . S
C1355 C1358 1.363 . S
N1356 C1358 1.356 . S
N1356 H1368 0.984 . S
N1356 H1369 0.985 . S
N1357 C1359 1.356 . S
N1357 H1362 0.984 . S
N1357 H1363 0.985 . S
C1358 C1352 1.379 . S
C1358 C1355 1.363 . S
C1358 N1356 1.356 . S
C1359 C1353 1.363 . S
C1359 C1354 1.379 . S
C1359 N1357 1.356 . S
N1360 C1352 1.356 . S
N1360 H1366 0.984 . S
N1360 H1367 0.984 . S
N1361 C1354 1.356 . S
N1361 H1364 0.984 . S
N1361 H1365 0.985 . S
H1362 N1357 0.984 . S
H1363 N1357 0.985 . S
H1364 N1361 0.984 . S
H1365 N1361 0.985 . S
H1366 N1360 0.984 . S
H1367 N1360 0.984 . S
H1368 N1356 0.984 . S
H1369 N1356 0.985 . S
C509 C331 1.962 . S
C507 C3 1.976 . S
C527 C321 0.987 . S
C525 C49 0.997 . S
C545 C322 1.278 . S
C543 C95 1.280 . S
C561 C146 0.711 . S
C563 C344 0.718 . S
C579 C186 1.143 . S
C581 C347 1.167 . S
C599 C330 1.258 . S
C597 C215 1.270 . S
C615 C249 0.723 . S
C617 C320 0.769 . S
C633 C302 1.967 . S
C635 C338 1.966 . S
C653 C351 3.182 . S
C651 C2 3.341 . S
C669 C43 2.244 . S
C671 C400 2.197 . S
C689 C378 3.247 . S
C687 C102 3.279 . S
C707 C392 1.587 . S
C705 C135 1.648 . S
C723 C175 1.601 . S
C725 C353 1.607 . S
C743 C406 2.210 . S
C741 C222 2.294 . S
C759 C243 2.240 . S
C761 C362 2.260 . S
C777 C306 1.598 . S
C779 C383 1.455 . S
C795 C9 1.022 . S
C797 C409 0.979 . S
C813 C182 1.724 . S
C815 C393 1.686 . S
C833 C352 1.684 1_556 S
C831 C226 1.674 . S
C851 C384 0.942 . S
C849 C242 0.928 . S
C867 C295 2.867 . S
C869 C375 2.795 . S
C885 C106 1.012 . S
C887 C382 0.987 . S
C905 C369 1.671 . S
C903 C142 1.713 . S
C921 C42 0.954 . S
C923 C361 0.945 . S
C939 C283 1.967 . S
C941 C424 1.965 . S
C957 C169 1.143 . S
C959 C414 1.167 . S
C977 C415 1.258 . S
C975 C202 1.271 . S
C995 C437 0.769 . S
C993 C266 0.723 . S
C1011 C66 0.997 . S
C1013 C440 0.987 . S
C1031 C423 1.278 . S
C1029 C82 1.280 . S
C1047 C129 0.711 . S
C1049 C413 0.718 . S
C1065 C22 1.976 . S
C1067 C431 1.962 . S
C1083 C282 2.867 . S
C1085 C444 2.795 . S
C1103 C493 1.686 . S
C1101 C163 1.724 . S
C1119 C209 1.674 . S
C1121 C471 1.684 . S
C1137 C255 0.927 . S
C1139 C485 0.942 . S
C1157 C446 0.945 . S
C1155 C55 0.954 . S
C1173 C89 1.011 . S
C1175 C499 0.986 . S
C1193 C455 1.671 . S
C1191 C123 1.713 . S
C1211 C476 0.979 . S
C1209 C26 1.022 . S
C1229 C502 1.455 . S
C1227 C289 1.598 . S
C1245 C62 2.244 . S
C1247 C486 2.197 . S
C1263 C83 3.279 . S
C1265 C445 3.247 . S
C1283 C477 1.586 . S
C1281 C122 1.648 . S
C1299 C15 3.341 . S
C1301 C468 3.182 . S
C1317 C203 2.294 . S
C1319 C475 2.210 . S
C1337 C462 2.260 . S
C1335 C262 2.240 . S
C1355 C454 1.608 . S
C1353 C162 1.601 . S
