# Generated by pormake.
# Topology iac, (4,6)-cn, num edge types: 1
# Building blocks:
#     Node 0, Type 0, BuildingBlock: UXUYUI_clean_sbu_0, # of connection points: 4
#     Node 1, Type 0, BuildingBlock: UXUYUI_clean_sbu_0, # of connection points: 4
#     Node 2, Type 0, BuildingBlock: UXUYUI_clean_sbu_0, # of connection points: 4
#     Node 3, Type 0, BuildingBlock: UXUYUI_clean_sbu_0, # of connection points: 4
#     Node 4, Type 0, BuildingBlock: UXUYUI_clean_sbu_0, # of connection points: 4
#     Node 5, Type 0, BuildingBlock: UXUYUI_clean_sbu_0, # of connection points: 4
#     Node 6, Type 0, BuildingBlock: UXUYUI_clean_sbu_0, # of connection points: 4
#     Node 7, Type 0, BuildingBlock: UXUYUI_clean_sbu_0, # of connection points: 4
#     Node 8, Type 0, BuildingBlock: UXUYUI_clean_sbu_0, # of connection points: 4
#     Node 9, Type 0, BuildingBlock: UXUYUI_clean_sbu_0, # of connection points: 4
#     Node 10, Type 0, BuildingBlock: UXUYUI_clean_sbu_0, # of connection points: 4
#     Node 11, Type 0, BuildingBlock: UXUYUI_clean_sbu_0, # of connection points: 4
#     Node 12, Type 0, BuildingBlock: UXUYUI_clean_sbu_0, # of connection points: 4
#     Node 13, Type 0, BuildingBlock: UXUYUI_clean_sbu_0, # of connection points: 4
#     Node 14, Type 0, BuildingBlock: UXUYUI_clean_sbu_0, # of connection points: 4
#     Node 15, Type 0, BuildingBlock: UXUYUI_clean_sbu_0, # of connection points: 4
#     Node 16, Type 0, BuildingBlock: UXUYUI_clean_sbu_0, # of connection points: 4
#     Node 17, Type 0, BuildingBlock: UXUYUI_clean_sbu_0, # of connection points: 4
#     Node 18, Type 0, BuildingBlock: UXUYUI_clean_sbu_0, # of connection points: 4
#     Node 19, Type 0, BuildingBlock: UXUYUI_clean_sbu_0, # of connection points: 4
#     Node 20, Type 0, BuildingBlock: UXUYUI_clean_sbu_0, # of connection points: 4
#     Node 21, Type 0, BuildingBlock: UXUYUI_clean_sbu_0, # of connection points: 4
#     Node 22, Type 0, BuildingBlock: UXUYUI_clean_sbu_0, # of connection points: 4
#     Node 23, Type 0, BuildingBlock: UXUYUI_clean_sbu_0, # of connection points: 4
#     Node 24, Type 1, BuildingBlock: LEVNOQ01_clean_sbu_1, # of connection points: 6
#     Node 25, Type 1, BuildingBlock: LEVNOQ01_clean_sbu_1, # of connection points: 6
#     Node 26, Type 1, BuildingBlock: LEVNOQ01_clean_sbu_1, # of connection points: 6
#     Node 27, Type 1, BuildingBlock: LEVNOQ01_clean_sbu_1, # of connection points: 6
#     Node 28, Type 1, BuildingBlock: LEVNOQ01_clean_sbu_1, # of connection points: 6
#     Node 29, Type 1, BuildingBlock: LEVNOQ01_clean_sbu_1, # of connection points: 6
#     Node 30, Type 1, BuildingBlock: LEVNOQ01_clean_sbu_1, # of connection points: 6
#     Node 31, Type 1, BuildingBlock: LEVNOQ01_clean_sbu_1, # of connection points: 6
#     Node 32, Type 1, BuildingBlock: LEVNOQ01_clean_sbu_1, # of connection points: 6
#     Node 33, Type 1, BuildingBlock: LEVNOQ01_clean_sbu_1, # of connection points: 6
#     Node 34, Type 1, BuildingBlock: LEVNOQ01_clean_sbu_1, # of connection points: 6
#     Node 35, Type 1, BuildingBlock: LEVNOQ01_clean_sbu_1, # of connection points: 6
#     Node 36, Type 1, BuildingBlock: LEVNOQ01_clean_sbu_1, # of connection points: 6
#     Node 37, Type 1, BuildingBlock: LEVNOQ01_clean_sbu_1, # of connection points: 6
#     Node 38, Type 1, BuildingBlock: LEVNOQ01_clean_sbu_1, # of connection points: 6
#     Node 39, Type 1, BuildingBlock: LEVNOQ01_clean_sbu_1, # of connection points: 6
#     Edge 40, Type (0, 1), None
#     Edge 41, Type (0, 1), None
#     Edge 42, Type (0, 1), None
#     Edge 43, Type (0, 1), None
#     Edge 44, Type (0, 1), None
#     Edge 45, Type (0, 1), None
#     Edge 46, Type (0, 1), None
#     Edge 47, Type (0, 1), None
#     Edge 48, Type (0, 1), None
#     Edge 49, Type (0, 1), None
#     Edge 50, Type (0, 1), None
#     Edge 51, Type (0, 1), None
#     Edge 52, Type (0, 1), None
#     Edge 53, Type (0, 1), None
#     Edge 54, Type (0, 1), None
#     Edge 55, Type (0, 1), None
#     Edge 56, Type (0, 1), None
#     Edge 57, Type (0, 1), None
#     Edge 58, Type (0, 1), None
#     Edge 59, Type (0, 1), None
#     Edge 60, Type (0, 1), None
#     Edge 61, Type (0, 1), None
#     Edge 62, Type (0, 1), None
#     Edge 63, Type (0, 1), None
#     Edge 64, Type (0, 1), None
#     Edge 65, Type (0, 1), None
#     Edge 66, Type (0, 1), None
#     Edge 67, Type (0, 1), None
#     Edge 68, Type (0, 1), None
#     Edge 69, Type (0, 1), None
#     Edge 70, Type (0, 1), None
#     Edge 71, Type (0, 1), None
#     Edge 72, Type (0, 1), None
#     Edge 73, Type (0, 1), None
#     Edge 74, Type (0, 1), None
#     Edge 75, Type (0, 1), None
#     Edge 76, Type (0, 1), None
#     Edge 77, Type (0, 1), None
#     Edge 78, Type (0, 1), None
#     Edge 79, Type (0, 1), None
#     Edge 80, Type (0, 1), None
#     Edge 81, Type (0, 1), None
#     Edge 82, Type (0, 1), None
#     Edge 83, Type (0, 1), None
#     Edge 84, Type (0, 1), None
#     Edge 85, Type (0, 1), None
#     Edge 86, Type (0, 1), None
#     Edge 87, Type (0, 1), None
#     Edge 88, Type (0, 1), None
#     Edge 89, Type (0, 1), None
#     Edge 90, Type (0, 1), None
#     Edge 91, Type (0, 1), None
#     Edge 92, Type (0, 1), None
#     Edge 93, Type (0, 1), None
#     Edge 94, Type (0, 1), None
#     Edge 95, Type (0, 1), None
#     Edge 96, Type (0, 1), None
#     Edge 97, Type (0, 1), None
#     Edge 98, Type (0, 1), None
#     Edge 99, Type (0, 1), None
#     Edge 100, Type (0, 1), None
#     Edge 101, Type (0, 1), None
#     Edge 102, Type (0, 1), None
#     Edge 103, Type (0, 1), None
#     Edge 104, Type (0, 1), None
#     Edge 105, Type (0, 1), None
#     Edge 106, Type (0, 1), None
#     Edge 107, Type (0, 1), None
#     Edge 108, Type (0, 1), None
#     Edge 109, Type (0, 1), None
#     Edge 110, Type (0, 1), None
#     Edge 111, Type (0, 1), None
#     Edge 112, Type (0, 1), None
#     Edge 113, Type (0, 1), None
#     Edge 114, Type (0, 1), None
#     Edge 115, Type (0, 1), None
#     Edge 116, Type (0, 1), None
#     Edge 117, Type (0, 1), None
#     Edge 118, Type (0, 1), None
#     Edge 119, Type (0, 1), None
#     Edge 120, Type (0, 1), None
#     Edge 121, Type (0, 1), None
#     Edge 122, Type (0, 1), None
#     Edge 123, Type (0, 1), None
#     Edge 124, Type (0, 1), None
#     Edge 125, Type (0, 1), None
#     Edge 126, Type (0, 1), None
#     Edge 127, Type (0, 1), None
#     Edge 128, Type (0, 1), None
#     Edge 129, Type (0, 1), None
#     Edge 130, Type (0, 1), None
#     Edge 131, Type (0, 1), None
#     Edge 132, Type (0, 1), None
#     Edge 133, Type (0, 1), None
#     Edge 134, Type (0, 1), None
#     Edge 135, Type (0, 1), None
# Relax obj value: 0.125
# Max RMSD: 0.163
# Mean RMSD: 0.151
data_MOF--net-iac--node1-UXUYUI_clean_sbu_0--node2-LEVNOQ01_clean_sbu_1--edge1-none
_symmetry_space_group_name_H-M    P1
_symmetry_Int_Tables_number       1
_symmetry_cell_setting            triclinic
loop_
_symmetry_equiv_pos_as_xyz
'x, y, z'
_cell_length_a     37.892054
_cell_length_b     37.623593
_cell_length_c     37.893831
_cell_angle_alpha  89.754739
_cell_angle_beta   89.691463
_cell_angle_gamma 89.785195
loop_
_atom_site_label
_atom_site_type_symbol
_atom_site_fract_x
_atom_site_fract_y
_atom_site_fract_z
_atom_type_partial_charge
Li0 Li 0.01035 0.27805 0.10432 0.0
Li1 Li 0.03912 0.25156 0.15656 0.0
Li2 Li 0.00823 0.21385 0.11019 0.0
Li3 Li 0.97538 0.25261 0.15139 0.0
C4 C 0.07509 0.25872 0.08217 0.0
N5 N 0.12175 0.29075 0.03575 0.0
C6 C 0.10595 0.27439 0.09472 0.0
C7 C 0.06824 0.25887 0.04597 0.0
C8 C 0.1292 0.29045 0.07082 0.0
C9 C 0.09199 0.27546 0.02296 0.0
C10 C 0.00197 0.31822 0.17918 0.0
C11 C 0.00234 0.33645 0.24012 0.0
N12 N -0.00479 0.37037 0.22984 0.0
C13 C -0.0056 0.35322 0.16926 0.0
C14 C 0.00598 0.30972 0.21489 0.0
C15 C 0.99119 0.37922 0.19528 0.0
C16 C 0.9891 0.32655 0.04859 0.0
N17 N 0.01248 0.31796 0.0745 0.0
C18 C 0.04476 0.37105 0.06458 0.0
C19 C 0.03936 0.33982 0.08324 0.0
C20 C 0.02181 0.38028 0.03717 0.0
C21 C -0.00671 0.35816 0.02933 0.0
H22 H 0.9674 0.309 0.04281 0.0
H23 H 0.05669 0.33277 0.10476 0.0
C24 C 0.09102 0.22728 0.20592 0.0
N25 N 0.07605 0.25559 0.18923 0.0
C26 C 0.1196 0.23243 0.2286 0.0
C27 C 0.11433 0.29577 0.2184 0.0
C28 C 0.08697 0.2893 0.19517 0.0
C29 C 0.13202 0.26709 0.23445 0.0
H30 H 0.08157 0.20073 0.20071 0.0
H31 H 0.07503 0.3112 0.18102 0.0
C32 C 0.94691 0.24229 0.07293 0.0
N33 N 0.90107 0.22947 0.01796 0.0
C34 C 0.91072 0.24849 0.07716 0.0
C35 C 0.95977 0.22982 0.04062 0.0
C36 C 0.88797 0.24183 0.04907 0.0
C37 C 0.93618 0.22343 0.01318 0.0
C38 C -0.00579 0.18878 0.1883 0.0
C39 C 0.99318 0.15216 0.18227 0.0
C40 C 0.98217 0.2022 0.22055 0.0
C41 C 0.97906 0.12971 0.20812 0.0
C42 C 0.96809 0.1789 0.24569 0.0
N43 N 0.96672 0.14346 0.23895 0.0
C44 C 0.02598 0.15658 0.06224 0.0
C45 C 0.97145 0.15488 0.09326 0.0
C46 C 0.01566 0.12766 0.04156 0.0
N47 N 0.0033 0.17001 0.08679 0.0
C48 C 0.96006 0.12647 0.07323 0.0
C49 C 0.98181 0.11337 0.04642 0.0
H50 H 0.05091 0.16963 0.05722 0.0
H51 H 0.95397 0.16628 0.1126 0.0
C52 C 0.91848 0.27631 0.19862 0.0
N53 N 0.93259 0.25309 0.17494 0.0
C54 C 0.88733 0.2673 0.21645 0.0
C55 C 0.88599 0.21226 0.18341 0.0
C56 C 0.91642 0.2224 0.16629 0.0
C57 C 0.87191 0.23428 0.20944 0.0
H58 H 0.93188 0.30082 0.20465 0.0
H59 H 0.9283 0.20506 0.14714 0.0
O60 O 0.05189 0.24313 0.10522 0.0
O61 O 0.00752 0.293 0.15383 0.0
O62 O 0.96935 0.24748 0.10064 0.0
O63 O 0.00674 0.21116 0.16255 0.0
H64 H 0.11184 0.27422 0.12262 0.0
H65 H 0.04468 0.24665 0.03576 0.0
H66 H 0.15314 0.30274 0.08017 0.0
H67 H 0.08677 0.27617 -0.00507 0.0
H68 H 0.00554 0.3303 0.26783 0.0
H69 H 0.99152 0.36034 0.14172 0.0
H70 H 0.0126 0.28299 0.223 0.0
H71 H 0.9858 0.40646 0.18799 0.0
H72 H 0.067 0.38773 0.07124 0.0
H73 H 0.97538 0.3646 0.00804 0.0
H74 H 0.13275 0.20959 0.24013 0.0
H75 H 0.12311 0.32292 0.22158 0.0
H76 H 0.90026 0.25837 0.10188 0.0
H77 H 0.98759 0.22467 0.03689 0.0
H78 H 0.85991 0.24644 0.05201 0.0
H79 H 0.94577 0.21355 0.98813 0.0
H80 H 0.00333 0.14112 0.15794 0.0
H81 H 0.98283 0.23034 0.22584 0.0
H82 H 0.978 0.10134 0.20371 0.0
H83 H 0.95814 0.189 0.27052 0.0
H84 H 0.03261 0.11854 0.02031 0.0
H85 H 0.93355 0.11637 0.07708 0.0
H86 H 0.8767 0.28465 0.23666 0.0
H87 H 0.87437 0.1867 0.17742 0.0
Li88 Li 0.96664 0.74545 0.34477 0.0
Li89 Li -0.00122 0.7828 0.38472 0.0
Li90 Li 0.03017 0.74233 0.34111 0.0
Li91 Li 0.00064 0.71882 0.39499 0.0
C92 C 0.98217 0.80257 0.30585 0.0
N93 N 0.94438 0.83727 0.25378 0.0
C94 C 0.9649 0.8346 0.3132 0.0
C95 C 0.98099 0.7887 0.27173 0.0
C96 C 0.94574 0.85162 0.28661 0.0
C97 C 0.96153 0.80648 0.24584 0.0
C98 C 0.93798 0.76318 0.42318 0.0
C99 C 0.92985 0.77983 0.48413 0.0
N100 N 0.89563 0.78829 0.47735 0.0
C101 C 0.9026 0.77168 0.41695 0.0
C102 C 0.95158 0.76695 0.45714 0.0
C103 C 0.88165 0.78442 0.44463 0.0
C104 C 0.91911 0.7114 0.29992 0.0
N105 N 0.92489 0.74164 0.31841 0.0
C106 C 0.86955 0.7658 0.30028 0.0
C107 C 0.901 0.76866 0.31892 0.0
C108 C 0.86302 0.73495 0.28075 0.0
C109 C 0.88826 0.70755 0.2806 0.0
H110 H 0.93827 0.69013 0.30036 0.0
H111 H 0.90628 0.79233 0.33403 0.0
C112 C 0.03149 0.83535 0.4237 0.0
N113 N 0.0003 0.82642 0.40876 0.0
C114 C 0.0342 0.86635 0.44331 0.0
C115 C 0.97295 0.87932 0.43056 0.0
C116 C 0.97121 0.8475 0.41182 0.0
C117 C 0.00467 0.88867 0.44692 0.0
H118 H 0.05422 0.81821 0.42068 0.0
H119 H 0.94663 0.83946 0.39994 0.0
C120 C 0.00702 0.67471 0.32442 0.0
N121 N 0.03337 0.62082 0.28242 0.0
C122 C 0.01446 0.64132 0.33901 0.0
C123 C 0.01182 0.68023 0.28822 0.0
C124 C 0.02779 0.61443 0.31734 0.0
C125 C 0.02572 0.65288 0.26755 0.0
C126 C 0.06796 0.74484 0.41433 0.0
C127 C 0.10202 0.73797 0.4016 0.0
C128 C 0.06143 0.74312 0.45063 0.0
C129 C 0.12853 0.72811 0.42521 0.0
C130 C 0.08847 0.73268 0.47333 0.0
N131 N 0.12118 0.72539 0.46026 0.0
C132 C 0.08394 0.76043 0.29017 0.0
C133 C 0.08728 0.70303 0.31586 0.0
C134 C 0.11572 0.75466 0.27187 0.0
N135 N 0.07076 0.73486 0.312 0.0
C136 C 0.11805 0.69563 0.29723 0.0
C137 C 0.1333 0.72191 0.27561 0.0
H138 H 0.07047 0.78567 0.28812 0.0
H139 H 0.07731 0.68376 0.33458 0.0
C140 C 0.97808 0.67103 0.45092 0.0
N141 N 0.00443 0.68212 0.42895 0.0
C142 C 0.98345 0.64157 0.47312 0.0
C143 C 0.04332 0.63764 0.45091 0.0
C144 C 0.03639 0.66586 0.42846 0.0
C145 C 0.01647 0.62444 0.47304 0.0
H146 H 0.95266 0.68419 0.45032 0.0
H147 H 0.05627 0.67415 0.40965 0.0
O148 O 0.00022 0.78502 0.33187 0.0
O149 O 0.95884 0.75056 0.39632 0.0
O150 O -0.00393 0.70203 0.34564 0.0
O151 O 0.04113 0.75234 0.39127 0.0
H152 H 0.96613 0.84617 0.33916 0.0
H153 H -0.00523 0.76439 0.26533 0.0
H154 H 0.93205 0.87629 0.29206 0.0
H155 H 0.9601 0.79583 0.21942 0.0
H156 H 0.94016 0.78302 0.51048 0.0
H157 H 0.89122 0.76814 0.39117 0.0
H158 H 0.9786 0.76009 0.46263 0.0
H159 H 0.85424 0.79109 0.44012 0.0
H160 H 0.85077 0.78756 0.30089 0.0
H161 H 0.88401 0.68319 0.26613 0.0
H162 H 0.05917 0.87283 0.45548 0.0
H163 H 0.94958 0.8958 0.43314 0.0
H164 H 0.01018 0.63622 0.36679 0.0
H165 H 0.00596 0.70571 0.27641 0.0
H166 H 0.03397 0.58858 0.32832 0.0
H167 H 0.03051 0.65716 0.2397 0.0
H168 H 0.10805 0.74026 0.37382 0.0
H169 H 0.03555 0.74863 0.46115 0.0
H170 H 0.15488 0.7224 0.41566 0.0
H171 H 0.08337 0.73017 0.50134 0.0
H172 H 0.12693 0.77581 0.25594 0.0
H173 H 0.13098 0.67031 0.30178 0.0
H174 H 0.96192 0.63174 0.4893 0.0
H175 H 0.0689 0.62482 0.449 0.0
Li176 Li 0.53962 0.7509 0.65607 0.0
Li177 Li 0.51075 0.77653 0.60351 0.0
Li178 Li 0.47621 0.75028 0.6501 0.0
Li179 Li 0.51023 0.71211 0.6095 0.0
C180 C 0.50106 0.81705 0.67771 0.0
N181 N 0.49288 0.87012 0.72725 0.0
C182 C 0.49165 0.85141 0.66714 0.0
C183 C 0.5062 0.80968 0.71352 0.0
C184 C 0.48771 0.87788 0.69259 0.0
C185 C 0.50185 0.83684 0.73817 0.0
C186 C 0.57572 0.7589 0.5816 0.0
C187 C 0.59113 0.77708 0.52242 0.0
N188 N 0.62084 0.79269 0.53493 0.0
C189 C 0.6065 0.77493 0.59387 0.0
C190 C 0.56817 0.75955 0.54555 0.0
C191 C 0.629 0.79186 0.56984 0.0
C192 C 0.59081 0.72813 0.70656 0.0
N193 N 0.57623 0.75603 0.68889 0.0
C194 C 0.61443 0.79681 0.71732 0.0
C195 C 0.58724 0.78985 0.69402 0.0
C196 C 0.63176 0.76848 0.73437 0.0
C197 C 0.61915 0.73376 0.7294 0.0
H198 H 0.58124 0.70149 0.70201 0.0
H199 H 0.57544 0.81141 0.67921 0.0
C200 C 0.48913 0.82466 0.54726 0.0
N201 N 0.51217 0.81657 0.57364 0.0
C202 C 0.49296 0.85641 0.52814 0.0
C203 C 0.54335 0.87046 0.56447 0.0
C204 C 0.53834 0.83905 0.58293 0.0
C205 C 0.52075 0.87921 0.53661 0.0
H206 H 0.46801 0.80663 0.54094 0.0
H207 H 0.55544 0.83234 0.60474 0.0
C208 C 0.49328 0.68825 0.68754 0.0
N209 N 0.46056 0.64581 0.73755 0.0
C210 C 0.48992 0.65171 0.68196 0.0
C211 C 0.48116 0.70292 0.71921 0.0
C212 C 0.47311 0.63074 0.70742 0.0
C213 C 0.46435 0.68111 0.74398 0.0
C214 C 0.4488 0.74119 0.57117 0.0
C215 C 0.41309 0.75016 0.57451 0.0
C216 C 0.46144 0.72758 0.53923 0.0
C217 C 0.39056 0.74504 0.54592 0.0
C218 C 0.43807 0.72279 0.51128 0.0
N219 N 0.40341 0.73149 0.51519 0.0
C220 C 0.41925 0.77309 0.69722 0.0
C221 C 0.41556 0.72065 0.66273 0.0
C222 C 0.38785 0.76437 0.71472 0.0
N223 N 0.43274 0.7504 0.67268 0.0
C224 C 0.38477 0.71083 0.6795 0.0
C225 C 0.37142 0.73218 0.70649 0.0
H226 H 0.43341 0.79682 0.70433 0.0
H227 H 0.42694 0.70364 0.64291 0.0
C228 C 0.529 0.65615 0.56049 0.0
N229 N 0.5064 0.66844 0.58569 0.0
C230 C 0.51878 0.6279 0.53887 0.0
C231 C 0.46359 0.62481 0.57115 0.0
C232 C 0.47479 0.65274 0.59195 0.0
C233 C 0.48516 0.61302 0.54359 0.0
H234 H 0.55362 0.66982 0.55552 0.0
H235 H 0.45724 0.6635 0.61166 0.0
O236 O 0.50721 0.79146 0.65286 0.0
O237 O 0.55314 0.74264 0.60483 0.0
O238 O 0.50849 0.70929 0.66212 0.0
O239 O 0.47087 0.74459 0.59946 0.0
H240 H 0.48783 0.85768 0.63952 0.0
H241 H 0.51415 0.78347 0.72216 0.0
H242 H 0.48078 0.90462 0.68477 0.0
H243 H 0.50591 0.83156 0.76594 0.0
H244 H 0.58532 0.77828 0.49453 0.0
H245 H 0.61292 0.77437 0.62165 0.0
H246 H 0.5446 0.74715 0.53559 0.0
H247 H 0.65288 0.80443 0.57895 0.0
H248 H 0.62339 0.82399 0.71984 0.0
H249 H 0.632 0.71117 0.74171 0.0
H250 H 0.47535 0.86245 0.50648 0.0
H251 H 0.56506 0.88764 0.57159 0.0
H252 H 0.50042 0.63954 0.65832 0.0
H253 H 0.48386 0.73097 0.72428 0.0
H254 H 0.47017 0.60247 0.7033 0.0
H255 H 0.45421 0.69228 0.76828 0.0
H256 H 0.40283 0.76088 0.59897 0.0
H257 H 0.4889 0.72038 0.53613 0.0
H258 H 0.36285 0.75175 0.54817 0.0
H259 H 0.44747 0.71203 0.48651 0.0
H260 H 0.37788 0.78117 0.7357 0.0
H261 H 0.37238 0.68589 0.6726 0.0
H262 H 0.53552 0.61988 0.51702 0.0
H263 H 0.43721 0.61434 0.57484 0.0
Li264 Li 0.46776 0.24639 0.84552 0.0
Li265 Li 0.50074 0.28233 0.88555 0.0
Li266 Li 0.53087 0.2426 0.84098 0.0
Li267 Li 0.50183 0.21848 0.89477 0.0
C268 C 0.48247 0.30381 0.80775 0.0
N269 N 0.44197 0.33877 0.75793 0.0
C270 C 0.46556 0.33577 0.81618 0.0
C271 C 0.47966 0.29023 0.77362 0.0
C272 C 0.44497 0.35289 0.79074 0.0
C273 C 0.45884 0.30813 0.74889 0.0
C274 C 0.43989 0.26273 0.92442 0.0
C275 C 0.43289 0.28077 0.98512 0.0
N276 N 0.39808 0.28727 0.97929 0.0
C277 C 0.40392 0.2692 0.9192 0.0
C278 C 0.45438 0.26824 0.95777 0.0
C279 C 0.38327 0.28171 0.9472 0.0
C280 C 0.41993 0.21471 0.79954 0.0
N281 N 0.42574 0.24378 0.81976 0.0
C282 C 0.37007 0.26867 0.80389 0.0
C283 C 0.40176 0.27061 0.82219 0.0
C284 C 0.36343 0.23898 0.78273 0.0
C285 C 0.38883 0.21183 0.78049 0.0
H286 H 0.43923 0.1936 0.79845 0.0
H287 H 0.40717 0.29335 0.83861 0.0
C288 C 0.53412 0.33324 0.92579 0.0
N289 N 0.50294 0.32491 0.91051 0.0
C290 C 0.53668 0.3633 0.94677 0.0
C291 C 0.47533 0.37652 0.93449 0.0
C292 C 0.47375 0.34566 0.9144 0.0
C293 C 0.50699 0.38519 0.95128 0.0
H294 H 0.5569 0.31633 0.92204 0.0
H295 H 0.44918 0.33797 0.90226 0.0
C296 C 0.50737 0.1755 0.82361 0.0
N297 N 0.5334 0.12213 0.78079 0.0
C298 C 0.51475 0.1419 0.83773 0.0
C299 C 0.51206 0.18153 0.78747 0.0
C300 C 0.52794 0.11528 0.81565 0.0
C301 C 0.52578 0.15441 0.76639 0.0
C302 C 0.56964 0.24356 0.9139 0.0
C303 C 0.60368 0.23713 0.90089 0.0
C304 C 0.5633 0.24116 0.9502 0.0
C305 C 0.63039 0.22713 0.92422 0.0
C306 C 0.59055 0.23063 0.97261 0.0
N307 N 0.62325 0.22384 0.95927 0.0
C308 C 0.58374 0.26156 0.78976 0.0
C309 C 0.58769 0.20378 0.81456 0.0
C310 C 0.61528 0.25623 0.77096 0.0
N311 N 0.57098 0.23559 0.81135 0.0
C312 C 0.61823 0.19683 0.79541 0.0
C313 C 0.63302 0.22351 0.77398 0.0
H314 H 0.57014 0.28678 0.78825 0.0
H315 H 0.57801 0.18419 0.8331 0.0
C316 C 0.47966 0.17136 0.95122 0.0
N317 N 0.50559 0.18167 0.92841 0.0
C318 C 0.48514 0.14212 0.97365 0.0
C319 C 0.54431 0.13684 0.94984 0.0
C320 C 0.53725 0.16489 0.92723 0.0
C321 C 0.51787 0.12445 0.97291 0.0
H322 H 0.4545 0.18504 0.95123 0.0
H323 H 0.55682 0.17277 0.90792 0.0
O324 O 0.50152 0.2859 0.83281 0.0
O325 O 0.46053 0.25065 0.89712 0.0
O326 O 0.49642 0.20251 0.84522 0.0
O327 O 0.54267 0.25134 0.89108 0.0
H328 H 0.46811 0.34719 0.84209 0.0
H329 H 0.49309 0.26596 0.76639 0.0
H330 H 0.4315 0.37747 0.79705 0.0
H331 H 0.45607 0.29765 0.72252 0.0
H332 H 0.4439 0.28535 0.01098 0.0
H333 H 0.3919 0.26428 0.89394 0.0
H334 H 0.48194 0.26328 0.96245 0.0
H335 H 0.35543 0.28686 0.94344 0.0
H336 H 0.35111 0.29017 0.80615 0.0
H337 H 0.38444 0.18831 0.76476 0.0
H338 H 0.56161 0.36941 0.95921 0.0
H339 H 0.45189 0.39279 0.93774 0.0
H340 H 0.5105 0.13642 0.86544 0.0
H341 H 0.50625 0.20719 0.77604 0.0
H342 H 0.53406 0.08926 0.82626 0.0
H343 H 0.53044 0.15906 0.73856 0.0
H344 H 0.60954 0.23986 0.87311 0.0
H345 H 0.53741 0.24614 0.96092 0.0
H346 H 0.65674 0.22176 0.91446 0.0
H347 H 0.58561 0.22765 0.0006 0.0
H348 H 0.62619 0.27766 0.7552 0.0
H349 H 0.63138 0.17152 0.7994 0.0
H350 H 0.46392 0.13292 0.9906 0.0
H351 H 0.56964 0.1236 0.94746 0.0
Li352 Li 0.10126 -0.00434 0.27185 0.0
Li353 Li 0.13942 0.03489 0.2358 0.0
Li354 Li 0.09224 -0.00445 0.20833 0.0
Li355 Li 0.14606 0.97044 0.23463 0.0
C356 C 0.06179 0.05721 0.25678 0.0
N357 N 0.01237 0.09892 0.29125 0.0
C358 C 0.06631 0.09402 0.25876 0.0
C359 C 0.03141 0.04186 0.27119 0.0
C360 C 0.04121 0.1146 0.27653 0.0
C361 C 0.00693 0.06331 0.28884 0.0
C362 C 0.18093 0.004 0.29556 0.0
C363 C 0.24033 0.02371 0.30671 0.0
N364 N 0.23797 0.01066 0.34016 0.0
C365 C 0.17926 0.99044 0.32995 0.0
C366 C 0.21182 0.02051 0.28374 0.0
C367 C 0.20834 0.99416 0.35212 0.0
C368 C 0.05497 0.97321 0.32856 0.0
N369 N 0.08154 0.99446 0.31679 0.0
C370 C 0.0775 0.03107 0.3674 0.0
C371 C 0.09407 0.02175 0.33623 0.0
C372 C 0.04759 0.01229 0.37809 0.0
C373 C 0.0372 0.9819 0.35971 0.0
H374 H 0.04565 0.95158 0.31254 0.0
H375 H 0.11519 0.03802 0.32601 0.0
C376 C 0.18709 0.09208 0.21678 0.0
N377 N 0.1622 0.07898 0.2393 0.0
C378 C 0.20829 0.1205 0.2274 0.0
C379 C 0.17605 0.12217 0.28269 0.0
C380 C 0.15572 0.09403 0.27116 0.0
C381 C 0.20345 0.13469 0.26129 0.0
H382 H 0.19228 0.07882 0.192 0.0
H383 H 0.13634 0.08244 0.28866 0.0
C384 C 0.07218 0.92922 0.24572 0.0
N385 N 0.02224 0.87622 0.25187 0.0
C386 C 0.08256 0.89431 0.25307 0.0
C387 C 0.03635 0.93717 0.24156 0.0
C388 C 0.05692 0.86789 0.25598 0.0
C389 C 0.01151 0.91003 0.24489 0.0
C390 C 0.16628 0.98897 0.17006 0.0
C391 C 0.15451 0.97315 0.13898 0.0
C392 C 0.20219 0.9883 0.17821 0.0
C393 C 0.17891 0.95632 0.11682 0.0
C394 C 0.22566 0.97078 0.15562 0.0
N395 N 0.21365 0.95534 0.12562 0.0
C396 C 0.03962 0.01804 0.15881 0.0
C397 C 0.05417 0.95671 0.16064 0.0
C398 C 0.01644 0.01237 0.13073 0.0
N399 N 0.05838 0.99038 0.17247 0.0
C400 C 0.03055 0.94965 0.13373 0.0
C401 C 0.01222 0.9778 0.11745 0.0
H402 H 0.04357 0.04459 0.16888 0.0
H403 H 0.06993 0.93537 0.17156 0.0
C404 C 0.2024 0.9218 0.25476 0.0
N405 N 0.17593 0.93043 0.23202 0.0
C406 C 0.22083 0.8897 0.25077 0.0
C407 C 0.18393 0.87654 0.20057 0.0
C408 C 0.16606 0.90825 0.20582 0.0
C409 C 0.21169 0.86713 0.22303 0.0
H410 H 0.20921 0.93955 0.27593 0.0
H411 H 0.1441 0.9153 0.18905 0.0
O412 O 0.08686 0.03661 0.24044 0.0
O413 O 0.15195 0.00241 0.27419 0.0
O414 O 0.0972 0.95486 0.2405 0.0
O415 O 0.14267 0.00473 0.19254 0.0
H416 H 0.08882 0.10667 0.24646 0.0
H417 H 0.02703 0.01362 0.26943 0.0
H418 H 0.04454 0.14307 0.27843 0.0
H419 H 0.98364 0.05163 0.30068 0.0
H420 H 0.26427 0.0367 0.29799 0.0
H421 H 0.15568 0.97733 0.33951 0.0
H422 H 0.21372 0.03107 0.25725 0.0
H423 H 0.20733 0.984 0.37887 0.0
H424 H 0.08557 0.05503 0.38091 0.0
H425 H 0.01358 0.96749 0.36719 0.0
H426 H 0.23004 0.12908 0.21078 0.0
H427 H 0.17227 0.13212 0.30926 0.0
H428 H 0.11018 0.8876 0.25607 0.0
H429 H 0.02784 0.96382 0.23511 0.0
H430 H 0.06461 0.84074 0.2612 0.0
H431 H 0.98372 0.91577 0.24158 0.0
H432 H 0.12681 0.97368 0.13217 0.0
H433 H 0.21172 0.00048 0.2021 0.0
H434 H 0.17019 0.94387 0.09273 0.0
H435 H 0.25343 0.9694 0.16199 0.0
H436 H 0.00318 0.03484 0.11862 0.0
H437 H 0.02875 0.92264 0.12417 0.0
H438 H 0.24239 0.88312 0.2683 0.0
H439 H 0.17622 0.8595 0.17896 0.0
Li440 Li 0.21613 0.90044 0.50004 0.0
Li441 Li 0.24382 0.84823 0.52935 0.0
Li442 Li 0.27965 0.89545 0.49834 0.0
Li443 Li 0.2474 0.85223 0.46585 0.0
C444 C 0.23843 0.92256 0.56675 0.0
N445 N 0.21238 0.96834 0.61756 0.0
C446 C 0.2289 0.90967 0.60013 0.0
C447 C 0.23599 0.959 0.55978 0.0
C448 C 0.21568 0.93319 0.6254 0.0
C449 C 0.22228 0.98162 0.58561 0.0
C450 C 0.17757 0.82681 0.50599 0.0
C451 C 0.1577 0.76839 0.52324 0.0
N452 N 0.12576 0.7823 0.5323 0.0
C453 C 0.14423 0.84034 0.51466 0.0
C454 C 0.18402 0.79035 0.50938 0.0
C455 C 0.11843 0.81745 0.52802 0.0
C456 C 0.16602 0.95251 0.47505 0.0
N457 N 0.17724 0.93235 0.50277 0.0
C458 C 0.13091 0.95454 0.53926 0.0
C459 C 0.16018 0.93293 0.53432 0.0
C460 C 0.1176 0.97459 0.51089 0.0
C461 C 0.13564 0.97368 0.47842 0.0
H462 H 0.1799 0.95122 0.45006 0.0
H463 H 0.16857 0.91551 0.5554 0.0
C464 C 0.26674 0.79671 0.58093 0.0
N465 N 0.23955 0.81704 0.56878 0.0
C466 C 0.2626 0.77648 0.61185 0.0
C467 C 0.20204 0.79673 0.61521 0.0
C468 C 0.20773 0.81737 0.58535 0.0
C469 C 0.22993 0.77676 0.62958 0.0
H470 H 0.29195 0.79722 0.56741 0.0
H471 H 0.18705 0.83487 0.57618 0.0
C472 C 0.26189 0.93119 0.43821 0.0
N473 N 0.29249 0.98487 0.39861 0.0
C474 C 0.27637 0.92388 0.405 0.0
C475 C 0.26213 0.96604 0.45078 0.0
C476 C 0.29188 0.95131 0.38548 0.0
C477 C 0.27797 0.99275 0.43054 0.0
C478 C 0.30676 0.81604 0.48598 0.0
C479 C 0.34074 0.82281 0.47315 0.0
C480 C 0.29381 0.78133 0.48554 0.0
C481 C 0.36079 0.79494 0.45917 0.0
C482 C 0.31459 0.75417 0.47124 0.0
N483 N 0.34735 0.7615 0.45839 0.0
C484 C 0.32754 0.94249 0.52781 0.0
C485 C 0.34343 0.92173 0.47081 0.0
C486 C 0.35758 0.96349 0.529 0.0
N487 N 0.32104 0.92237 0.49896 0.0
C488 C 0.37425 0.94182 0.47116 0.0
C489 C 0.38132 0.96317 0.50046 0.0
H490 H 0.30944 0.94221 0.5499 0.0
H491 H 0.33733 0.90558 0.44813 0.0
C492 C 0.21824 0.8053 0.41782 0.0
N493 N 0.2474 0.82482 0.42482 0.0
C494 C 0.21717 0.78427 0.38781 0.0
C495 C 0.2758 0.80464 0.37222 0.0
C496 C 0.27602 0.82473 0.40303 0.0
C497 C 0.24615 0.78397 0.36462 0.0
H498 H 0.1958 0.80614 0.43547 0.0
H499 H 0.29895 0.84034 0.40959 0.0
O500 O 0.2494 0.8995 0.54097 0.0
O501 O 0.20383 0.84926 0.49491 0.0
O502 O 0.2471 0.90449 0.45797 0.0
O503 O 0.28668 0.84311 0.49961 0.0
H504 H 0.23158 0.88181 0.6065 0.0
H505 H 0.24378 0.96963 0.53448 0.0
H506 H 0.20791 0.92349 0.6512 0.0
H507 H 0.21954 0.00976 0.58025 0.0
H508 H 0.16266 0.74027 0.52677 0.0
H509 H 0.13827 0.86821 0.51124 0.0
H510 H 0.20931 0.77923 0.50226 0.0
H511 H 0.09264 0.82765 0.53514 0.0
H512 H 0.11747 0.9535 0.56455 0.0
H513 H 0.12584 0.98828 0.45578 0.0
H514 H 0.28488 0.76185 0.62237 0.0
H515 H 0.1766 0.79856 0.62826 0.0
H516 H 0.27556 0.89739 0.39428 0.0
H517 H 0.25028 0.97241 0.4759 0.0
H518 H 0.30332 0.94593 0.35983 0.0
H519 H 0.27863 0.01976 0.44017 0.0
H520 H 0.35172 0.84919 0.47418 0.0
H521 H 0.26801 0.77539 0.49609 0.0
H522 H 0.38707 0.79988 0.44905 0.0
H523 H 0.30472 0.72725 0.47047 0.0
H524 H 0.36246 0.9794 0.55223 0.0
H525 H 0.39196 0.94114 0.44864 0.0
H526 H 0.19371 0.76884 0.38252 0.0
H527 H 0.29867 0.80474 0.35495 0.0
Li528 Li 0.36129 0.96655 0.7482 0.0
Li529 Li 0.40132 0.00318 0.78062 0.0
Li530 Li 0.35128 0.03039 0.74662 0.0
Li531 Li 0.40516 0.00648 0.71723 0.0
C532 C 0.32302 0.98502 0.80888 0.0
N533 N 0.26929 0.9575 0.85035 0.0
C534 C 0.32947 0.97511 0.84387 0.0
C535 C 0.289 0.98161 0.79531 0.0
C536 C 0.30203 0.96116 0.86436 0.0
C537 C 0.26225 0.96744 0.81657 0.0
C538 C 0.43963 0.94575 0.76529 0.0
C539 C 0.49919 0.94143 0.78711 0.0
N540 N 0.49081 0.91049 0.80379 0.0
C541 C 0.43184 0.91353 0.78204 0.0
C542 C 0.47375 0.95951 0.76732 0.0
C543 C 0.45797 0.89624 0.80159 0.0
C544 C 0.32157 0.91492 0.71525 0.0
N545 N 0.33683 0.92344 0.74639 0.0
C546 C 0.31369 0.8713 0.77393 0.0
C547 C 0.33341 0.90246 0.77551 0.0
C548 C 0.2968 0.86255 0.74235 0.0
C549 C 0.30096 0.88459 0.71271 0.0
H550 H 0.32505 0.93187 0.69246 0.0
H551 H 0.34568 0.91013 0.8 0.0
C552 C 0.44625 0.03701 0.82806 0.0
N553 N 0.42773 0.00677 0.82235 0.0
C554 C 0.46596 0.04071 0.85867 0.0
C555 C 0.44652 0.98235 0.87736 0.0
C556 C 0.42749 0.97964 0.84614 0.0
C557 C 0.46617 0.01315 0.88375 0.0
H558 H 0.44561 0.05836 0.80897 0.0
H559 H 0.41243 0.95593 0.84088 0.0
C560 C 0.3318 0.00414 0.67916 0.0
N561 N 0.28547 0.02151 0.62559 0.0
C562 C 0.3444 0.01074 0.645 0.0
C563 C 0.29547 0.00519 0.68566 0.0
C564 C 0.32059 0.01956 0.61831 0.0
C565 C 0.27255 0.01452 0.65842 0.0
C566 C 0.42197 0.07392 0.73989 0.0
C567 C 0.40732 0.10713 0.73184 0.0
C568 C 0.45818 0.06837 0.73526 0.0
C569 C 0.429 0.13386 0.71818 0.0
C570 C 0.47883 0.09554 0.72095 0.0
N571 N 0.46395 0.12747 0.7128 0.0
C572 C 0.29676 0.07771 0.77127 0.0
C573 C 0.31549 0.08332 0.7117 0.0
C574 C 0.27418 0.10706 0.7675 0.0
N575 N 0.31713 0.06694 0.74358 0.0
C576 C 0.29254 0.11156 0.7064 0.0
C577 C 0.27218 0.12446 0.73471 0.0
H578 H 0.29902 0.06442 0.79653 0.0
H579 H 0.33303 0.07523 0.69062 0.0
C580 C 0.45598 0.9875 0.66379 0.0
N581 N 0.43438 0.0134 0.67669 0.0
C582 C 0.47416 0.99273 0.63184 0.0
C583 C 0.44922 0.0519 0.62885 0.0
C584 C 0.43069 0.04505 0.65979 0.0
C585 C 0.47055 0.02526 0.61385 0.0
H586 H 0.45795 0.96241 0.67757 0.0
H587 H 0.41212 0.06454 0.66956 0.0
O588 O 0.34972 -0.00144 0.78836 0.0
O589 O 0.41401 0.96363 0.74698 0.0
O590 O 0.35498 -0.00274 0.70605 0.0
O591 O 0.4008 0.04679 0.75139 0.0
H592 H 0.35526 0.97842 0.85528 0.0
H593 H 0.28327 0.9897 0.76868 0.0
H594 H 0.30673 0.95333 0.89144 0.0
H595 H 0.23588 0.96443 0.80624 0.0
H596 H 0.52559 0.95201 0.78923 0.0
H597 H 0.40591 0.902 0.7801 0.0
H598 H 0.48047 0.98402 0.754 0.0
H599 H 0.45217 0.87143 0.8149 0.0
H600 H 0.31076 0.85491 0.79732 0.0
H601 H 0.28848 0.87842 0.68782 0.0
H602 H 0.4805 0.06504 0.86285 0.0
H603 H 0.44619 0.96047 0.89602 0.0
H604 H 0.37222 0.00896 0.639 0.0
H605 H 0.28506 -0.00017 0.71161 0.0
H606 H 0.33003 0.02503 0.59186 0.0
H607 H 0.24448 0.01638 0.66345 0.0
H608 H 0.37949 0.11218 0.73587 0.0
H609 H 0.47 0.04299 0.74155 0.0
H610 H 0.418 0.1596 0.71157 0.0
H611 H 0.5067 0.09122 0.71626 0.0
H612 H 0.25937 0.11669 0.79007 0.0
H613 H 0.29276 0.1247 0.6809 0.0
H614 H 0.4899 0.97133 0.62085 0.0
H615 H 0.44479 0.07707 0.61558 0.0
Li616 Li 0.2408 0.14446 0.04173 0.0
Li617 Li 0.27047 0.0965 0.00844 0.0
Li618 Li 0.24068 0.14403 0.97784 0.0
Li619 Li 0.20633 0.09686 0.00729 0.0
C620 C 0.30658 0.17306 0.01184 0.0
N621 N 0.35855 0.22383 0.01943 0.0
C622 C 0.3419 0.16452 0.00491 0.0
C623 C 0.29774 0.20754 0.02238 0.0
C624 C 0.36779 0.19052 0.00898 0.0
C625 C 0.32437 0.23282 0.02605 0.0
C626 C 0.25257 0.06643 0.07083 0.0
C627 C 0.27446 0.00679 0.07966 0.0
N628 N 0.28593 0.01606 0.11229 0.0
C629 C 0.26397 0.07514 0.10471 0.0
C630 C 0.25727 0.03179 0.05843 0.0
C631 C 0.28089 0.04936 0.12522 0.0
C632 C 0.21438 0.19646 0.08805 0.0
N633 N 0.24202 0.17416 0.08198 0.0
C634 C 0.27132 0.19462 0.13372 0.0
C635 C 0.27052 0.17333 0.10362 0.0
C636 C 0.24295 0.21763 0.14088 0.0
C637 C 0.21443 0.21877 0.11735 0.0
H638 H 0.1922 0.19675 0.07023 0.0
H639 H 0.29245 0.15583 0.09765 0.0
C640 C 0.32224 0.04572 0.98343 0.0
N641 N 0.31181 0.06944 0.00851 0.0
C642 C 0.35416 0.02729 0.98735 0.0
C643 C 0.36358 0.05918 0.04191 0.0
C644 C 0.33201 0.07694 0.03687 0.0
C645 C 0.37461 0.03382 0.01728 0.0
H646 H 0.3057 0.04079 0.96083 0.0
H647 H 0.3232 0.09654 0.0558 0.0
C648 C 0.17841 0.1756 -0.00494 0.0
N649 N 0.13764 0.22749 0.96305 0.0
C650 C 0.14436 0.16774 0.9835 0.0
C651 C 0.19138 0.21013 0.99103 0.0
C652 C 0.12422 0.19427 0.96728 0.0
C653 C 0.17047 0.23591 0.97458 0.0
C654 C 0.23612 0.06734 0.94234 0.0
C655 C 0.24277 0.07548 0.90687 0.0
C656 C 0.22493 0.03318 0.95162 0.0
C657 C 0.23762 0.04944 0.88124 0.0
C658 C 0.22012 0.00787 0.92522 0.0
N659 N 0.2264 0.01649 0.89088 0.0
C660 C 0.26535 0.19599 0.92736 0.0
C661 C 0.21303 0.16327 0.91627 0.0
C662 C 0.26074 0.21557 0.89626 0.0
N663 N 0.24107 0.17107 0.93681 0.0
C664 C 0.20741 0.18202 0.8854 0.0
C665 C 0.23101 0.20882 0.87563 0.0
H666 H 0.28759 0.20129 0.94424 0.0
H667 H 0.19457 0.14298 0.92455 0.0
C668 C 0.15874 0.04591 0.0337 0.0
N669 N 0.16528 0.06796 0.00596 0.0
C670 C 0.12865 0.02463 0.03405 0.0
C671 C 0.11239 0.0493 0.97735 0.0
C672 C 0.14329 0.0695 0.97772 0.0
C673 C 0.10477 0.02657 0.00584 0.0
H674 H 0.17678 0.04504 0.0557 0.0
H675 H 0.14958 0.08679 0.9557 0.0
O676 O 0.28112 0.14742 0.00941 0.0
O677 O 0.23687 0.0917 0.05002 0.0
O678 O 0.1987 0.1497 0.0105 0.0
O679 O 0.23948 0.09307 0.96755 0.0
H680 H 0.3493 0.13808 -0.00351 0.0
H681 H 0.27071 0.21467 0.02815 0.0
H682 H 0.39522 0.18423 0.00386 0.0
H683 H 0.31787 0.25954 0.03434 0.0
H684 H 0.27872 0.98002 0.0702 0.0
H685 H 0.2597 0.10147 0.11516 0.0
H686 H 0.24841 0.02447 0.03244 0.0
H687 H 0.29001 0.05582 0.15142 0.0
H688 H 0.29387 0.19317 0.15112 0.0
H689 H 0.19193 0.23601 0.12204 0.0
H690 H 0.36206 0.00746 0.96819 0.0
H691 H 0.37892 0.06459 0.06534 0.0
H692 H 0.13345 0.14152 0.98724 0.0
H693 H 0.21749 0.21683 -1e-05 0.0
H694 H 0.09788 0.18846 0.95811 0.0
H695 H 0.18036 0.26262 0.97095 0.0
H696 H 0.25179 0.10163 0.89915 0.0
H697 H 0.21949 0.02637 0.97881 0.0
H698 H 0.24249 0.05543 0.85369 0.0
H699 H 0.21123 0.98142 0.93203 0.0
H700 H 0.279 0.2366 0.88934 0.0
H701 H 0.18406 0.17659 0.86994 0.0
H702 H 0.12367 0.00756 0.05662 0.0
H703 H 0.09477 0.05132 0.95502 0.0
Li704 Li 0.71826 0.39916 -0.00066 0.0
Li705 Li 0.74646 0.34672 0.02779 0.0
Li706 Li 0.78187 0.39449 -0.00306 0.0
Li707 Li 0.74952 0.35137 0.96425 0.0
C708 C 0.74167 0.42069 0.066 0.0
N709 N 0.717 0.46601 0.11786 0.0
C710 C 0.73404 0.40768 0.0998 0.0
C711 C 0.73809 0.45704 0.05907 0.0
C712 C 0.7215 0.43098 0.12562 0.0
C713 C 0.72508 0.47942 0.08544 0.0
C714 C 0.6802 0.32521 0.00445 0.0
C715 C 0.66103 0.26658 0.02176 0.0
N716 N 0.62875 0.28003 0.03027 0.0
C717 C 0.64651 0.33825 0.01252 0.0
C718 C 0.68719 0.28888 0.00816 0.0
C719 C 0.6209 0.31502 0.02564 0.0
C720 C 0.6673 0.45213 0.97739 0.0
N721 N 0.67912 0.43055 0.00377 0.0
C722 C 0.6331 0.45009 0.04212 0.0
C723 C 0.66257 0.42918 0.03556 0.0
C724 C 0.61912 0.47152 0.0151 0.0
C725 C 0.63674 0.47272 0.98239 0.0
H726 H 0.68083 0.45246 0.95218 0.0
H727 H 0.67161 0.41082 0.05558 0.0
C728 C 0.76827 0.29421 0.07929 0.0
N729 N 0.74186 0.31558 0.06718 0.0
C730 C 0.76341 0.27421 0.11027 0.0
C731 C 0.70371 0.29692 0.11376 0.0
C732 C 0.71013 0.31724 0.08383 0.0
C733 C 0.73081 0.27581 0.12806 0.0
H734 H 0.79343 0.29367 0.06568 0.0
H735 H 0.69011 0.3355 0.0746 0.0
C736 C 0.76282 0.43078 0.93693 0.0
N737 N 0.79072 0.48514 0.89624 0.0
C738 C 0.77667 0.4237 0.90341 0.0
C739 C 0.76248 0.46568 0.94937 0.0
C740 C 0.79077 0.45149 0.88331 0.0
C741 C 0.77693 0.49275 0.92855 0.0
C742 C 0.80934 0.31529 0.9837 0.0
C743 C 0.8428 0.32263 0.96983 0.0
C744 C 0.79712 0.28031 0.98403 0.0
C745 C 0.8631 0.295 0.95574 0.0
C746 C 0.81813 0.2534 0.96959 0.0
N747 N 0.85039 0.26125 0.95581 0.0
C748 C 0.82952 0.44106 0.0273 0.0
C749 C 0.84521 0.42234 0.96955 0.0
C750 C 0.85934 0.46233 0.02899 0.0
N751 N 0.82301 0.42182 -0.00215 0.0
C752 C 0.87585 0.44269 0.97039 0.0
C753 C 0.88289 0.46314 0.00033 0.0
H754 H 0.81162 0.43986 0.04951 0.0
H755 H 0.8391 0.4069 0.94638 0.0
C756 C 0.7201 0.30427 0.91639 0.0
N757 N 0.74919 0.32402 0.92305 0.0
C758 C 0.7188 0.28322 0.88639 0.0
C759 C 0.7771 0.30396 0.87013 0.0
C760 C 0.77756 0.32409 0.90093 0.0
C761 C 0.74748 0.28311 0.86283 0.0
H762 H 0.69785 0.30496 0.93428 0.0
H763 H 0.80045 0.33989 0.90717 0.0
O764 O 0.7519 0.3978 0.03977 0.0
O765 O 0.70626 0.34803 -0.00631 0.0
O766 O 0.74888 0.40382 0.95697 0.0
O767 O 0.78914 0.34208 -0.00232 0.0
H768 H 0.73772 0.37992 0.10612 0.0
H769 H 0.74439 0.46775 0.03339 0.0
H770 H 0.71522 0.42119 0.15178 0.0
H771 H 0.72141 0.50747 0.08015 0.0
H772 H 0.66639 0.23856 0.02555 0.0
H773 H 0.64015 0.366 0.00878 0.0
H774 H 0.71279 0.27816 0.00151 0.0
H775 H 0.59484 0.32483 0.03229 0.0
H776 H 0.62005 0.44747 0.0675 0.0
H777 H 0.62645 0.48847 0.96074 0.0
H778 H 0.78509 0.25866 0.12075 0.0
H779 H 0.6784 0.29982 0.12688 0.0
H780 H 0.77634 0.39713 0.89284 0.0
H781 H 0.75115 0.47185 0.97478 0.0
H782 H 0.80165 0.44631 0.85737 0.0
H783 H 0.77705 0.51983 0.93802 0.0
H784 H 0.85317 0.34929 0.97013 0.0
H785 H 0.77174 0.27395 -0.00465 0.0
H786 H 0.88899 0.30038 0.94485 0.0
H787 H 0.80885 0.22625 0.96948 0.0
H788 H 0.86422 0.47752 0.05268 0.0
H789 H 0.89344 0.44294 0.94776 0.0
H790 H 0.69533 0.26773 0.88135 0.0
H791 H 0.79974 0.30429 0.85256 0.0
Li792 Li 0.90124 0.50124 0.28051 0.0
Li793 Li 0.86135 0.46501 0.24753 0.0
Li794 Li 0.90564 0.50489 0.21724 0.0
Li795 Li 0.85175 0.52879 0.24625 0.0
C796 C 0.93921 0.44377 0.2657 0.0
N797 N 0.98918 0.40854 0.30576 0.0
C798 C 0.93076 0.41181 0.28261 0.0
C799 C 0.9734 0.45725 0.26832 0.0
C800 C 0.95628 0.39454 0.30296 0.0
C801 C -0.00179 0.4392 0.28891 0.0
C802 C 0.82261 0.484 0.30835 0.0
C803 C 0.7618 0.46647 0.31584 0.0
N804 N 0.76829 0.45824 0.35017 0.0
C805 C 0.82851 0.47575 0.34385 0.0
C806 C 0.78886 0.47968 0.29436 0.0
C807 C 0.80077 0.46268 0.36452 0.0
C808 C 0.94601 0.53466 0.32812 0.0
N809 N 0.9272 0.5046 0.32251 0.0
C810 C 0.94527 0.48044 0.37788 0.0
C811 C 0.92642 0.47769 0.34654 0.0
C812 C 0.96521 0.51108 0.38415 0.0
C813 C 0.96548 0.53842 0.35885 0.0
H814 H 0.94576 0.55586 0.30888 0.0
H815 H 0.91102 0.45417 0.34142 0.0
C816 C 0.82141 0.41398 0.21392 0.0
N817 N 0.83646 0.42233 0.24522 0.0
C818 C 0.80022 0.38407 0.21129 0.0
C819 C 0.81193 0.37091 0.27276 0.0
C820 C 0.83226 0.40162 0.2744 0.0
C821 C 0.79527 0.36232 0.24101 0.0
H822 H 0.82548 0.43076 0.1911 0.0
H823 H 0.84431 0.40924 0.29903 0.0
C824 C 0.9228 0.57197 0.24039 0.0
N825 N 0.96557 0.62511 0.21376 0.0
C826 C 0.90865 0.60547 0.23265 0.0
C827 C 0.95894 0.56594 0.23577 0.0
C828 C 0.93071 0.63198 0.21917 0.0
C829 C 0.98 0.59293 0.22172 0.0
C830 C 0.83265 0.50313 0.17855 0.0
C831 C 0.84549 0.50933 0.1444 0.0
C832 C 0.79633 0.50518 0.18496 0.0
C833 C 0.82198 0.51882 0.11766 0.0
C834 C 0.77374 0.51517 0.15767 0.0
N835 N 0.78692 0.52179 0.12487 0.0
C836 C 0.95699 0.48679 0.16398 0.0
C837 C 0.93089 0.54399 0.1603 0.0
C838 C 0.97536 0.49259 0.13225 0.0
N839 N 0.93495 0.51225 0.17695 0.0
C840 C 0.94959 0.55143 0.12961 0.0
C841 C 0.97144 0.52525 0.11456 0.0
H842 H 0.95916 0.46158 0.17752 0.0
H843 H 0.91197 0.56311 0.17012 0.0
C844 C 0.7954 0.57587 0.26843 0.0
N845 N 0.81798 0.56539 0.24237 0.0
C846 C 0.77291 0.60504 0.26293 0.0
C847 C 0.79612 0.60987 0.20348 0.0
C848 C 0.81882 0.58191 0.21055 0.0
C849 C 0.77335 0.62247 0.23006 0.0
H850 H 0.79566 0.56241 0.2937 0.0
H851 H 0.83798 0.57393 0.19088 0.0
O852 O 0.91412 0.46175 0.24675 0.0
O853 O 0.8496 0.49678 0.28772 0.0
O854 O 0.90121 0.54503 0.25157 0.0
O855 O 0.85561 0.49588 0.20554 0.0
H856 H 0.90478 0.4005 0.28023 0.0
H857 H 0.98064 0.48153 0.25487 0.0
H858 H 0.94997 0.36994 0.31643 0.0
H859 H 0.02465 0.44958 0.29151 0.0
H860 H 0.73564 0.4628 0.30521 0.0
H861 H 0.85411 0.47971 0.35551 0.0
H862 H 0.78361 0.48622 0.26723 0.0
H863 H 0.80504 0.45617 0.39201 0.0
H864 H 0.94451 0.45875 0.39675 0.0
H865 H 0.98023 0.56265 0.36291 0.0
H866 H 0.78796 0.37796 0.18627 0.0
H867 H 0.80842 0.35471 0.29621 0.0
H868 H 0.88092 0.61094 0.2368 0.0
H869 H 0.97039 0.54035 0.24186 0.0
H870 H 0.92008 0.65792 0.21275 0.0
H871 H 0.00782 0.58826 0.21707 0.0
H872 H 0.87327 0.5068 0.13847 0.0
H873 H 0.78574 0.50027 0.21092 0.0
H874 H 0.83162 0.52401 0.09123 0.0
H875 H 0.74572 0.51786 0.16264 0.0
H876 H 0.99147 0.47152 0.12117 0.0
H877 H 0.94488 0.57666 0.11655 0.0
H878 H 0.75621 0.61443 0.28424 0.0
H879 H 0.79828 0.62295 0.17804 0.0
Li880 Li 0.74143 0.64662 0.54026 0.0
Li881 Li 0.77107 0.59906 0.50633 0.0
Li882 Li 0.74072 0.64698 0.47609 0.0
Li883 Li 0.707 0.59914 0.5055 0.0
C884 C 0.80678 0.67576 0.51129 0.0
N885 N 0.85819 0.72657 0.52164 0.0
C886 C 0.8424 0.66733 0.506 0.0
C887 C 0.79735 0.71017 0.52152 0.0
C888 C 0.86799 0.69335 0.51145 0.0
C889 C 0.82371 0.73547 0.52664 0.0
C890 C 0.75271 0.56818 0.56895 0.0
C891 C 0.7727 0.50793 0.57832 0.0
N892 N 0.78347 0.51682 0.61128 0.0
C893 C 0.7635 0.57655 0.60313 0.0
C894 C 0.75689 0.53345 0.55661 0.0
C895 C 0.7791 0.55027 0.62407 0.0
C896 C 0.71485 0.6978 0.58756 0.0
N897 N 0.74264 0.67579 0.58115 0.0
C898 C 0.77144 0.69524 0.63365 0.0
C899 C 0.77097 0.67461 0.60303 0.0
C900 C 0.74293 0.71798 0.6411 0.0
C901 C 0.71458 0.71947 0.61737 0.0
H902 H 0.69276 0.69836 0.56963 0.0
H903 H 0.79302 0.65732 0.59688 0.0
C904 C 0.8223 0.54795 0.48116 0.0
N905 N 0.81213 0.57176 0.50624 0.0
C906 C 0.85377 0.52881 0.48532 0.0
C907 C 0.86335 0.56032 0.54008 0.0
C908 C 0.83219 0.57871 0.53484 0.0
C909 C 0.87404 0.53479 0.51548 0.0
H910 H 0.80582 0.54339 0.45844 0.0
H911 H 0.82349 0.59828 0.55386 0.0
C912 C 0.67791 0.67745 0.49457 0.0
N913 N 0.63537 0.72867 0.4639 0.0
C914 C 0.64368 0.66901 0.48398 0.0
C915 C 0.69017 0.71221 0.49028 0.0
C916 C 0.62263 0.69522 0.46842 0.0
C917 C 0.66837 0.73766 0.47451 0.0
C918 C 0.73582 0.57049 0.44006 0.0
C919 C 0.74077 0.57918 0.40445 0.0
C920 C 0.72575 0.53599 0.44936 0.0
C921 C 0.73514 0.55331 0.37874 0.0
C922 C 0.72043 0.51086 0.42289 0.0
N923 N 0.7251 0.52 0.38843 0.0
C924 C 0.76579 0.69815 0.42473 0.0
C925 C 0.71195 0.66752 0.41517 0.0
C926 C 0.76152 0.71726 0.39324 0.0
N927 N 0.74068 0.67441 0.43507 0.0
C928 C 0.70659 0.68589 0.38402 0.0
C929 C 0.73122 0.71134 0.37314 0.0
H930 H 0.78862 0.70265 0.44107 0.0
H931 H 0.69295 0.64797 0.42397 0.0
C932 C 0.6598 0.54762 0.53165 0.0
N933 N 0.66625 0.56984 0.50403 0.0
C934 C 0.62998 0.52595 0.53173 0.0
C935 C 0.61382 0.55059 0.475 0.0
C936 C 0.64443 0.57121 0.47566 0.0
C937 C 0.60629 0.52767 0.50337 0.0
H938 H 0.67769 0.54692 0.55378 0.0
H939 H 0.65061 0.58869 0.45376 0.0
O940 O 0.78152 0.65013 0.50737 0.0
O941 O 0.73783 0.59381 0.54793 0.0
O942 O 0.69907 0.65187 0.50932 0.0
O943 O 0.73996 0.59596 0.46544 0.0
H944 H 0.85025 0.64097 0.49774 0.0
H945 H 0.77006 0.7172 0.526 0.0
H946 H 0.89565 0.68713 0.5076 0.0
H947 H 0.81677 0.76214 0.53476 0.0
H948 H 0.77641 0.48105 0.56895 0.0
H949 H 0.75963 0.60295 0.61353 0.0
H950 H 0.74853 0.52638 0.5304 0.0
H951 H 0.78766 0.55645 0.65053 0.0
H952 H 0.79388 0.69354 0.65117 0.0
H953 H 0.69198 0.73652 0.62223 0.0
H954 H 0.86138 0.50882 0.46622 0.0
H955 H 0.87853 0.56524 0.56373 0.0
H956 H 0.63335 0.64258 0.48794 0.0
H957 H 0.71642 0.71934 0.4985 0.0
H958 H 0.59614 0.68897 0.46 0.0
H959 H 0.67768 0.76455 0.47068 0.0
H960 H 0.74895 0.60559 0.39667 0.0
H961 H 0.72155 0.52875 0.47665 0.0
H962 H 0.73874 0.55973 0.3511 0.0
H963 H 0.71243 0.48412 0.42975 0.0
H964 H 0.78066 0.73717 0.38547 0.0
H965 H 0.68287 0.68098 0.36896 0.0
H966 H 0.62505 0.50878 0.55424 0.0
H967 H 0.59631 0.55249 0.45256 0.0
Li968 Li 0.63622 0.5354 0.73714 0.0
Li969 Li 0.59499 0.49726 0.77041 0.0
Li970 Li 0.6419 0.47088 0.73657 0.0
Li971 Li 0.5899 0.49681 0.70709 0.0
C972 C 0.67364 0.50609 0.7989 0.0
N973 N 0.7292 0.51559 0.84485 0.0
C974 C 0.66989 0.49717 0.83459 0.0
C975 C 0.70576 0.51957 0.78657 0.0
C976 C 0.69828 0.5022 0.85741 0.0
C977 C 0.7335 0.52425 0.81022 0.0
C978 C 0.55826 0.55952 0.75348 0.0
C979 C 0.50162 0.56683 0.782 0.0
N980 N 0.50848 0.60196 0.78651 0.0
C981 C 0.56428 0.59591 0.75758 0.0
C982 C 0.52628 0.54503 0.76502 0.0
C983 C 0.53893 0.61687 0.77453 0.0
C984 C 0.685 0.59199 0.71878 0.0
N985 N 0.66019 0.57905 0.74147 0.0
C986 C 0.67491 0.62207 0.78483 0.0
C987 C 0.65421 0.59416 0.77341 0.0
C988 C 0.70203 0.63459 0.7631 0.0
C989 C 0.70646 0.62033 0.72918 0.0
H990 H 0.68973 0.57886 0.69384 0.0
H991 H 0.63477 0.583 0.79099 0.0
C992 C 0.54745 0.47437 0.82708 0.0
N993 N 0.572 0.49705 0.81355 0.0
C994 C 0.53011 0.48307 0.85856 0.0
C995 C 0.5654 0.53662 0.86149 0.0
C996 C 0.58201 0.52679 0.83067 0.0
C997 C 0.53851 0.51523 0.87496 0.0
H998 H 0.54031 0.45062 0.81296 0.0
H999 H 0.60183 0.54374 0.81926 0.0
C1000 C 0.66465 0.48813 0.67208 0.0
N1001 N 0.7115 0.45373 0.62763 0.0
C1002 C 0.65248 0.4715 0.64158 0.0
C1003 C 0.7007 0.48772 0.67969 0.0
C1004 C 0.6766 0.45427 0.61942 0.0
C1005 C 0.72391 0.4699 0.65707 0.0
C1006 C 0.56718 0.43084 0.74517 0.0
C1007 C 0.57716 0.39631 0.75459 0.0
C1008 C 0.53155 0.43869 0.73951 0.0
C1009 C 0.55133 0.37011 0.75786 0.0
C1010 C 0.50651 0.41179 0.74322 0.0
N1011 N 0.51688 0.37832 0.75212 0.0
C1012 C 0.6989 0.42365 0.75788 0.0
C1013 C 0.66168 0.4073 0.71048 0.0
C1014 C 0.7184 0.39215 0.7542 0.0
N1015 N 0.67163 0.43071 0.73559 0.0
C1016 C 0.6803 0.37589 0.70585 0.0
C1017 C 0.70918 0.36834 0.72754 0.0
H1018 H 0.70587 0.44246 0.77808 0.0
H1019 H 0.63941 0.41339 0.69374 0.0
C1020 C 0.54002 0.51992 0.65544 0.0
N1021 N 0.55751 0.49194 0.67011 0.0
C1022 C 0.51724 0.51438 0.62704 0.0
C1023 C 0.52902 0.45128 0.63185 0.0
C1024 C 0.5523 0.45815 0.65907 0.0
C1025 C 0.5121 0.47967 0.6145 0.0
H1026 H 0.54462 0.54653 0.66505 0.0
H1027 H 0.56696 0.43653 0.67093 0.0
O1028 O 0.64558 0.50275 0.77653 0.0
O1029 O 0.58356 0.53845 0.73811 0.0
O1030 O 0.64137 0.50485 0.69424 0.0
O1031 O 0.59246 0.45613 0.73944 0.0
H1032 H 0.64529 0.48655 0.84462 0.0
H1033 H 0.70917 0.52672 0.75914 0.0
H1034 H 0.69571 0.49552 0.88511 0.0
H1035 H 0.75842 0.53488 0.80106 0.0
H1036 H 0.47708 0.55579 0.79169 0.0
H1037 H 0.58817 0.60796 0.74754 0.0
H1038 H 0.52087 0.51712 0.76179 0.0
H1039 H 0.54339 0.64502 0.77804 0.0
H1040 H 0.6714 0.63209 0.8114 0.0
H1041 H 0.72794 0.62894 0.71225 0.0
H1042 H 0.5092 0.46626 0.86868 0.0
H1043 H 0.5724 0.56152 0.87388 0.0
H1044 H 0.62472 0.47188 0.63509 0.0
H1045 H 0.71059 0.50062 0.70304 0.0
H1046 H 0.66755 0.44126 0.59575 0.0
H1047 H 0.75181 0.46894 0.66292 0.0
H1048 H 0.60462 0.38967 0.75889 0.0
H1049 H 0.52337 0.46502 0.73153 0.0
H1050 H 0.55869 0.34322 0.76472 0.0
H1051 H 0.47888 0.41742 0.73871 0.0
H1052 H 0.74107 0.3872 0.77083 0.0
H1053 H 0.67292 0.35812 0.68472 0.0
H1054 H 0.50503 0.53701 0.61415 0.0
H1055 H 0.52639 0.4241 0.62293 0.0
Li1056 Li 0.97637 0.74716 0.83095 0.0
Li1057 Li 0.99307 0.78514 0.88226 0.0
Li1058 Li 0.03586 0.75635 0.84696 0.0
Li1059 Li -0.00043 0.71767 0.88306 0.0
C1060 C 0.01524 0.81554 0.80692 0.0
N1061 N 0.046 0.86135 0.75859 0.0
C1062 C 0.01331 0.85231 0.81191 0.0
C1063 C 0.032 0.80219 0.77679 0.0
C1064 C 0.02911 0.87501 0.78726 0.0
C1065 C 0.04767 0.82573 0.75285 0.0
C1066 C 0.9354 0.74684 0.9093 0.0
C1067 C 0.9299 0.74331 0.97263 0.0
N1068 N 0.89419 0.74213 0.96942 0.0
C1069 C 0.89866 0.74569 0.90663 0.0
C1070 C 0.95122 0.74568 0.94254 0.0
C1071 C 0.87827 0.74338 0.93736 0.0
C1072 C 0.92743 0.70503 0.80106 0.0
N1073 N 0.93938 0.7389 0.79921 0.0
C1074 C 0.88641 0.75787 0.77073 0.0
C1075 C 0.92033 0.76515 0.78336 0.0
C1076 C 0.87277 0.72331 0.7745 0.0
C1077 C 0.89482 0.69633 0.78755 0.0
H1078 H 0.94159 0.68529 0.81609 0.0
H1079 H 0.92997 0.79219 0.78354 0.0
C1080 C 0.01793 0.84719 0.90431 0.0
N1081 N 0.98816 0.82754 0.90796 0.0
C1082 C 0.02362 0.87636 0.92576 0.0
C1083 C 0.96645 0.86641 0.95276 0.0
C1084 C 0.96187 0.83707 0.93066 0.0
C1085 C -0.0018 0.88545 0.95096 0.0
H1086 H 0.0384 0.83858 0.88632 0.0
H1087 H 0.93843 0.82095 0.93307 0.0
C1088 C 0.01042 0.68464 0.80983 0.0
N1089 N -0.00331 0.63214 0.76115 0.0
C1090 C 0.0069 0.64925 0.82076 0.0
C1091 C 0.00795 0.69309 0.77397 0.0
C1092 C -0.00014 0.62312 0.79575 0.0
C1093 C 0.00069 0.66623 0.74982 0.0
C1094 C 0.06535 0.75476 0.91337 0.0
C1095 C 0.08908 0.72758 0.90474 0.0
C1096 C 0.07552 0.78121 0.93699 0.0
C1097 C 0.12297 0.72791 0.91912 0.0
C1098 C 0.10959 0.78056 0.95088 0.0
N1099 N 0.13245 0.75422 0.94163 0.0
C1100 C 0.09563 0.79647 0.8326 0.0
C1101 C 0.09932 0.736 0.81505 0.0
C1102 C 0.12693 0.80417 0.81501 0.0
N1103 N 0.08178 0.76331 0.83067 0.0
C1104 C 0.13141 0.74223 0.79816 0.0
C1105 C 0.14441 0.77701 0.79678 0.0
H1106 H 0.08115 0.81741 0.84569 0.0
H1107 H 0.08759 0.70985 0.81435 0.0
C1108 C 0.95996 0.66165 0.90696 0.0
N1109 N 0.99309 0.67519 0.90875 0.0
C1110 C 0.95108 0.63145 0.92624 0.0
C1111 C 0.01156 0.62744 0.9461 0.0
C1112 C 0.01908 0.65849 0.92715 0.0
C1113 C 0.97695 0.61437 0.94637 0.0
H1114 H 0.94017 0.67484 0.89113 0.0
H1115 H 0.04531 0.66958 0.92772 0.0
O1116 O 0.00053 0.79297 0.83134 0.0
O1117 O 0.95569 0.74753 0.87936 0.0
O1118 O 0.01532 0.71078 0.83432 0.0
O1119 O 0.03196 0.75493 0.89973 0.0
H1120 H -0.00041 0.86327 0.83449 0.0
H1121 H 0.03392 0.77395 0.77248 0.0
H1122 H 0.02789 0.9035 0.79089 0.0
H1123 H 0.06131 0.81567 0.72979 0.0
H1124 H 0.94172 0.74229 -0.00147 0.0
H1125 H 0.88607 0.74627 0.88104 0.0
H1126 H 0.97961 0.74631 0.94512 0.0
H1127 H 0.84981 0.7424 0.93577 0.0
H1128 H 0.87014 0.77949 0.76101 0.0
H1129 H 0.88556 0.66933 0.79111 0.0
H1130 H 0.04863 0.89019 0.92432 0.0
H1131 H 0.9467 0.87255 0.97262 0.0
H1132 H 0.0093 0.64201 0.84826 0.0
H1133 H 0.01029 0.7202 0.76495 0.0
H1134 H -0.00326 0.59569 0.80385 0.0
H1135 H -0.00203 0.67252 0.72208 0.0
H1136 H 0.0815 0.70663 0.88686 0.0
H1137 H 0.05718 0.80174 0.945 0.0
H1138 H 0.14169 0.70722 0.91243 0.0
H1139 H 0.11778 0.80088 0.96918 0.0
H1140 H 0.13647 0.83128 0.81419 0.0
H1141 H 0.14432 0.72086 0.78393 0.0
H1142 H 0.92409 0.62202 0.92613 0.0
H1143 H 0.03194 0.61503 0.96194 0.0
Li1144 Li 0.00785 0.27982 0.59953 0.0
Li1145 Li 0.03793 0.24458 0.64679 0.0
Li1146 Li 0.00855 0.21454 0.60269 0.0
Li1147 Li 0.97562 0.25003 0.64867 0.0
C1148 C 0.07118 0.23639 0.56948 0.0
N1149 N 0.11583 0.21087 0.51746 0.0
C1150 C 0.10735 0.23294 0.57586 0.0
C1151 C 0.05802 0.22825 0.5361 0.0
C1152 C 0.12945 0.21981 0.54931 0.0
C1153 C 0.08092 0.21498 0.5103 0.0
C1154 C -0.00266 0.31466 0.67385 0.0
C1155 C 0.97406 0.33167 0.73077 0.0
N1156 N 0.9689 0.3653 0.71853 0.0
C1157 C 0.99239 0.3496 0.66208 0.0
C1158 C 0.98873 0.30583 0.70872 0.0
C1159 C 0.97786 0.37477 0.685 0.0
C1160 C 0.97086 0.33471 0.5732 0.0
N1161 N 0.00387 0.32091 0.57076 0.0
C1162 C 0.02305 0.37081 0.53625 0.0
C1163 C 0.02977 0.33751 0.55189 0.0
C1164 C 0.98939 0.38618 0.54021 0.0
C1165 C 0.96282 0.36686 0.55741 0.0
H1166 H 0.95116 0.32166 0.58926 0.0
H1167 H 0.05596 0.326 0.55069 0.0
C1168 C 0.10101 0.21338 0.66715 0.0
N1169 N 0.07737 0.23964 0.67455 0.0
C1170 C 0.12883 0.20669 0.69007 0.0
C1171 C 0.10601 0.2532 0.72812 0.0
C1172 C 0.0794 0.25968 0.70405 0.0
C1173 C 0.13084 0.22643 0.72108 0.0
H1174 H 0.09769 0.19718 0.64392 0.0
H1175 H 0.05987 0.27998 0.70922 0.0
C1176 C 0.94233 0.25311 0.5722 0.0
N1177 N 0.89141 0.27195 0.52365 0.0
C1178 C 0.90666 0.25304 0.58181 0.0
C1179 C 0.95195 0.26152 0.53749 0.0
C1180 C 0.88132 0.26279 0.55693 0.0
C1181 C 0.92585 0.27124 0.51341 0.0
C1182 C 0.01908 0.18522 0.67936 0.0
C1183 C 0.0357 0.15328 0.67028 0.0
C1184 C 0.01998 0.19677 0.71434 0.0
C1185 C 0.05452 0.13444 0.6959 0.0
C1186 C 0.03945 0.17745 0.73912 0.0
N1187 N 0.05629 0.14701 0.72943 0.0
C1188 C 0.03896 0.15334 0.57271 0.0
C1189 C 0.97984 0.16669 0.55653 0.0
C1190 C 0.03986 0.12449 0.54973 0.0
N1191 N 0.00935 0.17383 0.57518 0.0
C1192 C 0.97978 0.13874 0.53293 0.0
C1193 C 0.01015 0.11778 0.52917 0.0
H1194 H 0.06209 0.16 0.58789 0.0
H1195 H 0.95663 0.18314 0.55946 0.0
C1196 C 0.91578 0.28638 0.6663 0.0
N1197 N 0.93328 0.25599 0.6746 0.0
C1198 C 0.8821 0.29246 0.67943 0.0
C1199 C 0.8854 0.23664 0.71125 0.0
C1200 C 0.91942 0.23158 0.69733 0.0
C1201 C 0.86603 0.26689 0.70115 0.0
H1202 H 0.92735 0.30506 0.6479 0.0
H1203 H 0.934 0.20753 0.70329 0.0
O1204 O 0.04898 0.24765 0.59585 0.0
O1205 O 0.01094 0.2895 0.65143 0.0
O1206 O 0.96766 0.24677 0.59716 0.0
O1207 O 0.00261 0.2053 0.65402 0.0
H1208 H 0.11835 0.2405 0.60098 0.0
H1209 H 0.03027 0.23093 0.53051 0.0
H1210 H 0.15744 0.21674 0.55401 0.0
H1211 H 0.07093 0.20781 0.48462 0.0
H1212 H 0.96682 0.325 0.75764 0.0
H1213 H -5e-05 0.35736 0.63564 0.0
H1214 H 0.99267 0.27917 0.71851 0.0
H1215 H 0.97377 0.40184 0.67615 0.0
H1216 H 0.04437 0.38536 0.52375 0.0
H1217 H 0.93663 0.37793 0.56125 0.0
H1218 H 0.14806 0.18618 0.68404 0.0
H1219 H 0.10765 0.26941 0.75164 0.0
H1220 H 0.89857 0.24577 0.60825 0.0
H1221 H 0.97932 0.26206 0.52956 0.0
H1222 H 0.85365 0.26324 0.56411 0.0
H1223 H 0.93299 0.27859 0.48669 0.0
H1224 H 0.03435 0.14322 0.64373 0.0
H1225 H 0.0066 0.22087 0.7221 0.0
H1226 H 0.06782 0.10991 0.6891 0.0
H1227 H 0.04112 0.18662 0.76608 0.0
H1228 H 0.06362 0.1086 0.54709 0.0
H1229 H 0.95636 0.13372 0.51743 0.0
H1230 H 0.86799 0.31611 0.67104 0.0
H1231 H 0.8736 0.21616 0.7276 0.0
Li1232 Li 0.47737 0.24681 0.33024 0.0
Li1233 Li 0.49316 0.28439 0.38186 0.0
Li1234 Li 0.53707 0.25539 0.34703 0.0
Li1235 Li 0.49946 0.21689 0.38241 0.0
C1236 C 0.51555 0.315 0.30629 0.0
N1237 N 0.5436 0.36149 0.25697 0.0
C1238 C 0.51148 0.3517 0.31051 0.0
C1239 C 0.53328 0.302 0.27656 0.0
C1240 C 0.52589 0.37476 0.28533 0.0
C1241 C 0.54751 0.32591 0.25208 0.0
C1242 C 0.43551 0.24655 0.40826 0.0
C1243 C 0.43006 0.24261 0.47155 0.0
N1244 N 0.39433 0.24234 0.46839 0.0
C1245 C 0.39875 0.24637 0.40564 0.0
C1246 C 0.45137 0.24473 0.44146 0.0
C1247 C 0.37837 0.2443 0.43639 0.0
C1248 C 0.42872 0.20526 0.29916 0.0
N1249 N 0.44062 0.23918 0.29797 0.0
C1250 C 0.38719 0.25873 0.27067 0.0
C1251 C 0.4213 0.26576 0.283 0.0
C1252 C 0.37365 0.22407 0.27384 0.0
C1253 C 0.39597 0.19683 0.28583 0.0
H1254 H 0.4429 0.18523 0.31374 0.0
H1255 H 0.43084 0.29282 0.28381 0.0
C1256 C 0.51852 0.3466 0.40291 0.0
N1257 N 0.48874 0.32705 0.40721 0.0
C1258 C 0.52461 0.37598 0.42399 0.0
C1259 C 0.46779 0.36646 0.45188 0.0
C1260 C 0.46285 0.33684 0.43022 0.0
C1261 C 0.49952 0.38546 0.44937 0.0
H1262 H 0.53872 0.33773 0.38476 0.0
H1263 H 0.43945 0.32074 0.4332 0.0
C1264 C 0.51138 0.18442 0.30891 0.0
N1265 N 0.49688 0.13312 0.25924 0.0
C1266 C 0.50707 0.14893 0.31921 0.0
C1267 C 0.50942 0.19354 0.27317 0.0
C1268 C 0.49965 0.12341 0.2937 0.0
C1269 C 0.50174 0.16728 0.24851 0.0
C1270 C 0.56246 0.25699 0.41774 0.0
C1271 C 0.59102 0.2346 0.41038 0.0
C1272 C 0.56511 0.28194 0.44485 0.0
C1273 C 0.6223 0.2386 0.42928 0.0
C1274 C 0.59678 0.28502 0.46323 0.0
N1275 N 0.62456 0.26359 0.45499 0.0
C1276 C 0.59637 0.29552 0.3325 0.0
C1277 C 0.60035 0.2348 0.31576 0.0
C1278 C 0.62695 0.30338 0.3138 0.0
N1279 N 0.58293 0.26216 0.33141 0.0
C1280 C 0.63173 0.24123 0.29772 0.0
C1281 C 0.64404 0.27619 0.29527 0.0
H1282 H 0.58187 0.3165 0.3455 0.0
H1283 H 0.58883 0.20855 0.31563 0.0
C1284 C 0.45976 0.16092 0.40597 0.0
N1285 N 0.49293 0.17435 0.40776 0.0
C1286 C 0.45085 0.13065 0.4251 0.0
C1287 C 0.51141 0.12633 0.44475 0.0
C1288 C 0.51898 0.15744 0.42588 0.0
C1289 C 0.47671 0.11341 0.44512 0.0
H1290 H 0.43996 0.1743 0.39029 0.0
H1291 H 0.54529 0.16849 0.42625 0.0
O1292 O 0.50225 0.29216 0.33127 0.0
O1293 O 0.4557 0.24697 0.37827 0.0
O1294 O 0.51611 0.21008 0.33391 0.0
O1295 O 0.53163 0.254 0.39936 0.0
H1296 H 0.49722 0.36231 0.33294 0.0
H1297 H 0.53707 0.27384 0.27297 0.0
H1298 H 0.52295 0.40321 0.28832 0.0
H1299 H 0.56183 0.31617 0.2293 0.0
H1300 H 0.4419 0.24106 0.49742 0.0
H1301 H 0.38614 0.2475 0.38008 0.0
H1302 H 0.47977 0.24461 0.44401 0.0
H1303 H 0.3499 0.24407 0.43486 0.0
H1304 H 0.37071 0.28056 0.26181 0.0
H1305 H 0.38682 0.16973 0.28888 0.0
H1306 H 0.54964 0.38972 0.42207 0.0
H1307 H 0.44832 0.37288 0.47192 0.0
H1308 H 0.50897 0.1412 0.34662 0.0
H1309 H 0.51233 0.22075 0.26464 0.0
H1310 H 0.49586 0.09593 0.3013 0.0
H1311 H 0.49933 0.17411 0.22087 0.0
H1312 H 0.58911 0.21447 0.39018 0.0
H1313 H 0.5428 0.29843 0.45201 0.0
H1314 H 0.64471 0.22174 0.42357 0.0
H1315 H 0.59921 0.30433 0.48415 0.0
H1316 H 0.63611 0.3306 0.31229 0.0
H1317 H 0.64449 0.21983 0.28339 0.0
H1318 H 0.42383 0.12133 0.42504 0.0
H1319 H 0.53178 0.11378 0.46049 0.0
Li1320 Li 0.50571 0.77962 0.09731 0.0
Li1321 Li 0.53621 0.74557 0.14536 0.0
Li1322 Li 0.50806 0.71467 0.1009 0.0
Li1323 Li 0.47345 0.74973 0.14607 0.0
C1324 C 0.57027 0.73765 0.06831 0.0
N1325 N 0.61528 0.71117 0.01708 0.0
C1326 C 0.6064 0.73435 0.07499 0.0
C1327 C 0.55737 0.72897 0.03496 0.0
C1328 C 0.62867 0.72067 0.04887 0.0
C1329 C 0.58045 0.71525 0.00956 0.0
C1330 C 0.4946 0.81474 0.17185 0.0
C1331 C 0.47261 0.83166 0.2293 0.0
N1332 N 0.46764 0.86543 0.21738 0.0
C1333 C 0.48971 0.84978 0.16035 0.0
C1334 C 0.48646 0.80577 0.20678 0.0
C1335 C 0.47597 0.87498 0.18371 0.0
C1336 C 0.46936 0.83526 0.07043 0.0
N1337 N 0.50212 0.82076 0.06859 0.0
C1338 C 0.52331 0.87074 0.03541 0.0
C1339 C 0.52885 0.83706 0.05063 0.0
C1340 C 0.49001 0.88691 0.03896 0.0
C1341 C 0.46255 0.86801 0.0552 0.0
H1342 H 0.44898 0.82234 0.08576 0.0
H1343 H 0.55481 0.825 0.04997 0.0
C1344 C 0.59889 0.71443 0.16549 0.0
N1345 N 0.57566 0.74091 0.17337 0.0
C1346 C 0.62683 0.70707 0.18803 0.0
C1347 C 0.60503 0.75339 0.22688 0.0
C1348 C 0.57822 0.76054 0.20312 0.0
C1349 C 0.62946 0.72637 0.21925 0.0
H1350 H 0.59513 0.69852 0.14214 0.0
H1351 H 0.55892 0.78098 0.20874 0.0
C1352 C 0.44125 0.75255 0.0691 0.0
N1353 N 0.39113 0.77287 0.02023 0.0
C1354 C 0.40546 0.75286 0.07828 0.0
C1355 C 0.45136 0.76137 0.03462 0.0
C1356 C 0.38054 0.76337 0.05327 0.0
C1357 C 0.42567 0.77183 0.01039 0.0
C1358 C 0.51787 0.68561 0.1777 0.0
C1359 C 0.53381 0.65326 0.16883 0.0
C1360 C 0.51945 0.69752 0.21254 0.0
C1361 C 0.55302 0.63463 0.19429 0.0
C1362 C 0.53918 0.67833 0.23721 0.0
N1363 N 0.5556 0.64764 0.22759 0.0
C1364 C 0.54293 0.65516 0.07471 0.0
C1365 C 0.48337 0.66192 0.05631 0.0
C1366 C 0.54691 0.62463 0.05448 0.0
N1367 N 0.51166 0.67313 0.07487 0.0
C1368 C 0.48612 0.6315 0.03588 0.0
C1369 C 0.51823 0.61292 0.03486 0.0
H1370 H 0.56486 0.66487 0.08999 0.0
H1371 H 0.45898 0.67692 0.05701 0.0
C1372 C 0.41216 0.78448 0.16351 0.0
N1373 N 0.43101 0.75498 0.17211 0.0
C1374 C 0.37835 0.78935 0.17699 0.0
C1375 C 0.38473 0.73471 0.21031 0.0
C1376 C 0.41858 0.73063 0.19572 0.0
C1377 C 0.36391 0.76381 0.19985 0.0
H1378 H 0.42277 0.80329 0.14463 0.0
H1379 H 0.43426 0.70738 0.20201 0.0
O1380 O 0.54778 0.74877 0.09451 0.0
O1381 O 0.50794 0.7897 0.14916 0.0
O1382 O 0.46616 0.74539 0.09426 0.0
O1383 O 0.50152 0.70578 0.1523 0.0
H1384 H 0.6172 0.74224 0.10009 0.0
H1385 H 0.52964 0.73136 0.02918 0.0
H1386 H 0.6566 0.71759 0.05385 0.0
H1387 H 0.57064 0.70761 0.98394 0.0
H1388 H 0.46587 0.82491 0.25628 0.0
H1389 H 0.49685 0.85763 0.13382 0.0
H1390 H 0.49029 0.77902 0.21634 0.0
H1391 H 0.47203 0.90216 0.17511 0.0
H1392 H 0.54527 0.88498 0.0237 0.0
H1393 H 0.43664 0.87981 0.05876 0.0
H1394 H 0.64573 0.68641 0.18151 0.0
H1395 H 0.60717 0.76927 0.25057 0.0
H1396 H 0.39696 0.74525 0.1045 0.0
H1397 H 0.47881 0.7617 0.027 0.0
H1398 H 0.3528 0.7641 0.06014 0.0
H1399 H 0.43322 0.77949 0.98387 0.0
H1400 H 0.53157 0.64263 0.1426 0.0
H1401 H 0.50653 0.72188 0.22023 0.0
H1402 H 0.56588 0.60983 0.18757 0.0
H1403 H 0.54144 0.68784 0.26399 0.0
H1404 H 0.57206 0.61087 0.05357 0.0
H1405 H 0.46379 0.62304 0.02028 0.0
H1406 H 0.36299 0.81209 0.16833 0.0
H1407 H 0.37415 0.71427 0.22754 0.0
Li1408 Li 0.91688 0.00056 0.77098 0.0
Li1409 Li 0.86652 0.96242 0.75202 0.0
Li1410 Li 0.90402 0.99213 0.71018 0.0
Li1411 Li 0.86535 0.02979 0.74632 0.0
C1412 C 0.94191 0.93184 0.73198 0.0
N1413 N 0.98996 0.88468 0.70296 0.0
C1414 C 0.93486 0.89538 0.73197 0.0
C1415 C 0.97376 0.94419 0.71788 0.0
C1416 C 0.95945 0.87198 0.71715 0.0
C1417 C -0.00242 0.91998 0.70308 0.0
C1418 C 0.83761 -0.00057 0.80977 0.0
C1419 C 0.77418 0.0007 0.81454 0.0
N1420 N 0.77693 0.00241 0.85026 0.0
C1421 C 0.83983 0.00105 0.84653 0.0
C1422 C 0.80456 -0.00085 0.79357 0.0
C1423 C 0.80881 0.0025 0.86656 0.0
C1424 C 0.94337 0.04197 0.82205 0.0
N1425 N 0.94709 0.00854 0.80935 0.0
C1426 C 0.97586 0.9898 0.86229 0.0
C1427 C 0.96386 0.98264 0.82809 0.0
C1428 C 0.97057 0.02392 0.87653 0.0
C1429 C 0.95616 0.05062 0.85497 0.0
H1430 H 0.92764 0.06127 0.80803 0.0
H1431 H 0.96517 0.95587 0.81783 0.0
C1432 C 0.84119 0.9037 0.723 0.0
N1433 N 0.8405 0.92009 0.75483 0.0
C1434 C 0.81969 0.87469 0.71671 0.0
C1435 C 0.79902 0.87789 0.77719 0.0
C1436 C 0.82081 0.90744 0.78223 0.0
C1437 C 0.79777 0.86212 0.74371 0.0
H1438 H 0.85715 0.91456 0.70185 0.0
H1439 H 0.82076 0.9211 0.80729 0.0
C1440 C 0.93893 0.06354 0.73929 0.0
N1441 N 0.98699 0.11529 0.75722 0.0
C1442 C 0.9278 0.09869 0.74416 0.0
C1443 C 0.97469 0.05499 0.74248 0.0
C1444 C 0.9525 0.12444 0.75332 0.0
C1445 C -0.00147 0.08147 0.75189 0.0
C1446 C 0.83331 -0.00422 0.68162 0.0
C1447 C 0.84315 0.02102 0.6563 0.0
C1448 C 0.80431 0.97385 0.67541 0.0
C1449 C 0.82422 0.0234 0.62482 0.0
C1450 C 0.78606 0.97705 0.64362 0.0
N1451 N 0.79637 0.00149 0.61916 0.0
C1452 C 0.9204 0.95279 0.65034 0.0
C1453 C 0.93643 0.01371 0.64708 0.0
C1454 C 0.93743 0.94596 0.61851 0.0
N1455 N 0.92163 0.98585 0.66453 0.0
C1456 C 0.9527 0.00833 0.61448 0.0
C1457 C 0.95436 0.97384 0.60078 0.0
H1458 H 0.90784 0.93138 0.66469 0.0
H1459 H 0.93661 0.03974 0.65907 0.0
C1460 C 0.83863 0.08495 0.78546 0.0
N1461 N 0.83868 0.07202 0.75203 0.0
C1462 C 0.81912 0.11515 0.79379 0.0
C1463 C 0.80267 0.12044 0.73239 0.0
C1464 C 0.82187 0.08939 0.72536 0.0
C1465 C 0.80059 0.13294 0.76717 0.0
H1466 H 0.85337 0.07141 0.80585 0.0
H1467 H 0.82291 0.07895 0.69888 0.0
O1468 O 0.91782 0.95509 0.74605 0.0
O1469 O 0.86778 -0.00066 0.78985 0.0
O1470 O 0.9147 0.03765 0.73233 0.0
O1471 O 0.85164 0.99262 0.71251 0.0
H1472 H 0.91073 0.8852 0.74347 0.0
H1473 H 0.97968 0.9722 0.71757 0.0
H1474 H 0.9543 0.84371 0.71696 0.0
H1475 H 0.0221 0.92925 0.69163 0.0
H1476 H 0.74839 0.00063 0.80242 0.0
H1477 H 0.86528 0.00149 0.85939 0.0
H1478 H 0.8024 -0.00194 0.76513 0.0
H1479 H 0.81006 0.00383 0.89503 0.0
H1480 H 0.98661 0.9684 0.87818 0.0
H1481 H 0.95126 0.07724 0.86467 0.0
H1482 H 0.81889 0.86329 0.69052 0.0
H1483 H 0.78176 0.86901 0.7983 0.0
H1484 H 0.90037 0.106 0.74124 0.0
H1485 H 0.98383 0.02806 0.7389 0.0
H1486 H 0.94424 0.15167 0.7575 0.0
H1487 H 0.02619 0.07509 0.75516 0.0
H1488 H 0.86511 0.03865 0.66096 0.0
H1489 H 0.79573 0.95478 0.69506 0.0
H1490 H 0.83162 0.04272 0.60493 0.0
H1491 H 0.76363 0.96018 0.63846 0.0
H1492 H 0.93859 0.91903 0.60854 0.0
H1493 H 0.96607 0.03023 0.60149 0.0
H1494 H 0.8179 0.12413 0.82091 0.0
H1495 H 0.78814 0.13339 0.71138 0.0
Li1496 Li 0.74535 0.14323 0.53303 0.0
Li1497 Li 0.7755 0.09644 0.4962 0.0
Li1498 Li 0.74739 0.14807 0.46891 0.0
Li1499 Li 0.71236 0.10168 0.50164 0.0
C1500 C 0.81234 0.1725 0.49471 0.0
N1501 N 0.86149 0.22203 0.47287 0.0
C1502 C 0.84738 0.16227 0.48871 0.0
C1503 C 0.8026 0.20813 0.49066 0.0
C1504 C 0.87182 0.18771 0.47762 0.0
C1505 C 0.82776 0.23272 0.47931 0.0
C1506 C 0.73487 0.06565 0.56237 0.0
C1507 C 0.71395 0.00626 0.57413 0.0
N1508 N 0.70924 0.01483 0.60867 0.0
C1509 C 0.73031 0.07368 0.59811 0.0
C1510 C 0.72712 0.0315 0.55038 0.0
C1511 C 0.7172 0.04769 0.62106 0.0
C1512 C 0.71061 0.16707 0.59156 0.0
N1513 N 0.74231 0.16784 0.57455 0.0
C1514 C 0.76607 0.20705 0.61683 0.0
C1515 C 0.77002 0.18685 0.58652 0.0
C1516 C 0.73331 0.2075 0.63419 0.0
C1517 C 0.70534 0.18723 0.62176 0.0
H1518 H 0.68928 0.15138 0.58113 0.0
H1519 H 0.79477 0.18677 0.57216 0.0
C1520 C 0.8292 0.07508 0.45538 0.0
N1521 N 0.81583 0.06828 0.48792 0.0
C1522 C 0.8609 0.06028 0.44487 0.0
C1523 C 0.86575 0.03196 0.50211 0.0
C1524 C 0.83271 0.04643 0.5111 0.0
C1525 C 0.88063 0.03997 0.46891 0.0
H1526 H 0.81606 0.09366 0.43812 0.0
H1527 H 0.82155 0.0419 0.53706 0.0
C1528 C 0.6823 0.17895 0.51017 0.0
N1529 N 0.63346 0.22944 0.53132 0.0
C1530 C 0.64633 0.17075 0.5111 0.0
C1531 C 0.69331 0.21307 0.51939 0.0
C1532 C 0.62207 0.1966 0.52191 0.0
C1533 C 0.66825 0.23813 0.53026 0.0
C1534 C 0.74879 0.07336 0.43173 0.0
C1535 C 0.75446 0.08522 0.39714 0.0
C1536 C 0.75422 0.03754 0.44005 0.0
C1537 C 0.76691 0.06136 0.37181 0.0
C1538 C 0.76701 0.01458 0.41407 0.0
N1539 N 0.7732 0.02691 0.38083 0.0
C1540 C 0.78608 0.17255 0.41392 0.0
C1541 C 0.72825 0.19685 0.4127 0.0
C1542 C 0.79383 0.18732 0.38136 0.0
N1543 N 0.75366 0.1769 0.42862 0.0
C1544 C 0.7347 0.21177 0.3793 0.0
C1545 C 0.76753 0.20573 0.36293 0.0
H1546 H 0.80529 0.15552 0.42642 0.0
H1547 H 0.70253 0.19922 0.42489 0.0
C1548 C 0.65385 0.07959 0.53843 0.0
N1549 N 0.67007 0.07852 0.50634 0.0
C1550 C 0.62258 0.0612 0.54397 0.0
C1551 C 0.62439 0.04341 0.4825 0.0
C1552 C 0.65604 0.0614 0.47839 0.0
C1553 C 0.60791 0.04297 0.51571 0.0
H1554 H 0.66555 0.09427 0.55979 0.0
H1555 H 0.66967 0.06145 0.45324 0.0
O1556 O 0.7875 0.14737 0.50273 0.0
O1557 O 0.74732 0.09106 0.53954 0.0
O1558 O 0.70636 0.15362 0.5001 0.0
O1559 O 0.73953 0.09708 0.4575 0.0
H1560 H 0.85553 0.13491 0.49216 0.0
H1561 H 0.77566 0.21647 0.49496 0.0
H1562 H 0.89895 0.18013 0.47256 0.0
H1563 H 0.82042 0.26027 0.47539 0.0
H1564 H 0.70744 0.97987 0.56509 0.0
H1565 H 0.73703 0.09962 0.60812 0.0
H1566 H 0.73062 0.0247 0.52297 0.0
H1567 H 0.71347 0.05361 0.64874 0.0
H1568 H 0.78793 0.22292 0.62612 0.0
H1569 H 0.67984 0.18749 0.63481 0.0
H1570 H 0.87111 0.06731 0.41902 0.0
H1571 H 0.8803 0.01675 0.52156 0.0
H1572 H 0.63715 0.14479 0.50332 0.0
H1573 H 0.72091 0.21997 0.51895 0.0
H1574 H 0.59419 0.19058 0.52275 0.0
H1575 H 0.67648 0.26449 0.53788 0.0
H1576 H 0.74968 0.11265 0.38997 0.0
H1577 H 0.74996 0.02785 0.46654 0.0
H1578 H 0.77181 0.07026 0.34505 0.0
H1579 H 0.77215 0.98698 0.42037 0.0
H1580 H 0.81933 0.18188 0.36943 0.0
H1581 H 0.71357 0.22524 0.36541 0.0
H1582 H 0.61024 0.06095 0.56982 0.0
H1583 H 0.61348 0.02899 0.46041 0.0
Li1584 Li 0.60112 -0.00188 0.27409 0.0
Li1585 Li 0.64688 0.0327 0.23947 0.0
Li1586 Li 0.60252 0.0021 0.21109 0.0
Li1587 Li 0.64998 0.96802 0.24231 0.0
C1588 C 0.57027 0.06232 0.22901 0.0
N1589 N 0.52116 0.10057 0.19053 0.0
C1590 C 0.57929 0.09506 0.21395 0.0
C1591 C 0.53557 0.0502 0.22629 0.0
C1592 C 0.55426 0.1138 0.19429 0.0
C1593 C 0.51131 0.06955 0.2062 0.0
C1594 C 0.6777 0.99351 0.30669 0.0
C1595 C 0.7358 0.97218 0.32193 0.0
N1596 N 0.72544 0.9693 0.35622 0.0
C1597 C 0.66804 0.99142 0.3423 0.0
C1598 C 0.71216 0.98468 0.29656 0.0
C1599 C 0.69247 0.97894 0.3669 0.0
C1600 C 0.5821 0.96244 0.33436 0.0
N1601 N 0.5745 0.99269 0.31625 0.0
C1602 C 0.53655 0.01272 0.36284 0.0
C1603 C 0.55147 0.01732 0.32917 0.0
C1604 C 0.54605 0.98276 0.38294 0.0
C1605 C 0.56824 0.95699 0.36792 0.0
H1606 H 0.60053 0.94342 0.3234 0.0
H1607 H 0.54592 0.04115 0.31408 0.0
C1608 C 0.67271 0.09269 0.20494 0.0
N1609 N 0.67338 0.07397 0.23577 0.0
C1610 C 0.69313 0.12312 0.201 0.0
C1611 C 0.71425 0.11412 0.26068 0.0
C1612 C 0.69339 0.084 0.2635 0.0
C1613 C 0.71409 0.13372 0.22914 0.0
H1614 H 0.65655 0.0837 0.18334 0.0
H1615 H 0.69345 0.06834 0.28749 0.0
C1616 C 0.57497 0.93308 0.25181 0.0
N1617 N 0.5285 0.88217 0.27673 0.0
C1618 C 0.58598 0.89778 0.25581 0.0
C1619 C 0.54005 0.94224 0.25982 0.0
C1620 C 0.56215 0.87247 0.26854 0.0
C1621 C 0.51705 0.91622 0.27261 0.0
C1622 C 0.67956 0.01018 0.17768 0.0
C1623 C 0.67283 0.01417 0.14162 0.0
C1624 C 0.71293 0.01864 0.19067 0.0
C1625 C 0.69886 0.02844 0.11959 0.0
C1626 C 0.73825 0.03295 0.16783 0.0
N1627 N 0.73065 0.03777 0.13311 0.0
C1628 C 0.58279 0.03356 0.14849 0.0
C1629 C 0.54579 0.98634 0.16785 0.0
C1630 C 0.5607 0.04075 0.12017 0.0
N1631 N 0.575 0.00663 0.17128 0.0
C1632 C 0.52249 0.99324 0.14057 0.0
C1633 C 0.53003 0.02075 0.11665 0.0
H1634 H 0.60571 0.04993 0.15291 0.0
H1635 H 0.54021 0.96555 0.1868 0.0
C1636 C 0.67492 0.91182 0.27889 0.0
N1637 N 0.6781 0.92651 0.24633 0.0
C1638 C 0.68994 0.87911 0.28619 0.0
C1639 C 0.71192 0.87656 0.22617 0.0
C1640 C 0.69698 0.9103 0.2202 0.0
C1641 C 0.7072 0.86028 0.2593 0.0
H1642 H 0.65887 0.92466 0.29875 0.0
H1643 H 0.69869 0.92251 0.19434 0.0
O1644 O 0.5954 0.04203 0.24563 0.0
O1645 O 0.653 0.00253 0.28188 0.0
O1646 O 0.5982 0.95827 0.23967 0.0
O1647 O 0.65347 -0.00166 0.19996 0.0
H1648 H 0.60531 0.10594 0.21726 0.0
H1649 H 0.52772 0.02555 0.23853 0.0
H1650 H 0.56114 0.13888 0.18205 0.0
H1651 H 0.48469 0.05987 0.20301 0.0
H1652 H 0.76226 0.96441 0.3143 0.0
H1653 H 0.6419 -0.00084 0.35088 0.0
H1654 H 0.72018 0.98583 0.26925 0.0
H1655 H 0.6852 0.97678 0.39447 0.0
H1656 H 0.51987 0.03335 0.37389 0.0
H1657 H 0.57619 0.93361 0.38271 0.0
H1658 H 0.69312 0.13767 0.17627 0.0
H1659 H 0.73083 0.12175 0.2826 0.0
H1660 H 0.61252 0.88983 0.2488 0.0
H1661 H 0.53089 0.96921 0.25676 0.0
H1662 H 0.57038 0.84509 0.2718 0.0
H1663 H 0.49008 0.9231 0.27924 0.0
H1664 H 0.64779 0.0063 0.13067 0.0
H1665 H 0.71882 0.01559 0.2183 0.0
H1666 H 0.69382 0.03207 0.09173 0.0
H1667 H 0.76387 0.04045 0.17775 0.0
H1668 H 0.56709 0.06186 0.1017 0.0
H1669 H 0.49917 0.97692 0.13777 0.0
H1670 H 0.68554 0.86734 0.31199 0.0
H1671 H 0.72448 0.86242 0.20462 0.0
Li1672 Li 0.70003 0.89031 0.00681 0.0
Li1673 Li 0.73875 0.85523 0.04557 0.0
Li1674 Li 0.76398 0.90063 0.00769 0.0
Li1675 Li 0.73849 0.8454 0.9816 0.0
C1676 C 0.74517 0.93232 0.06809 0.0
N1677 N 0.78138 0.98104 0.10846 0.0
C1678 C 0.75319 0.92469 0.10331 0.0
C1679 C 0.75365 0.96572 0.0542 0.0
C1680 C 0.77177 0.9495 0.12318 0.0
C1681 C 0.77261 0.98967 0.07474 0.0
C1682 C 0.67849 0.81289 -0.00049 0.0
C1683 C 0.67323 0.75551 0.97187 0.0
N1684 N 0.63973 0.76383 0.96204 0.0
C1685 C 0.64349 0.82021 0.9904 0.0
C1686 C 0.69295 0.77965 0.99146 0.0
C1687 C 0.62444 0.79523 0.9712 0.0
C1688 C 0.64248 0.90801 0.96666 0.0
N1689 N 0.65573 0.91123 -0.0003 0.0
C1690 C 0.60999 0.95168 0.0159 0.0
C1691 C 0.6395 0.93126 0.02478 0.0
C1692 C 0.59812 0.95156 0.98086 0.0
C1693 C 0.6135 0.92819 0.95656 0.0
H1694 H 0.6559 0.89146 0.94752 0.0
H1695 H 0.65081 0.93315 0.05086 0.0
C1696 C 0.77881 0.83785 0.10315 0.0
N1697 N 0.74584 0.83429 0.08977 0.0
C1698 C 0.78887 0.81804 0.13239 0.0
C1699 C 0.72961 0.79426 0.13586 0.0
C1700 C 0.7208 0.81424 0.10605 0.0
C1701 C 0.76456 0.79482 0.14798 0.0
H1702 H 0.79788 0.85449 0.08973 0.0
H1703 H 0.69478 0.81211 0.09464 0.0
C1704 C 0.72633 0.92196 0.94294 0.0
N1705 N 0.71052 0.97505 0.89491 0.0
C1706 C 0.73208 0.91653 0.90691 0.0
C1707 C 0.71287 0.95455 0.95457 0.0
C1708 C 0.7238 0.94364 0.88303 0.0
C1709 C 0.70501 0.98104 0.92987 0.0
C1710 C 0.80332 0.82452 0.01945 0.0
C1711 C 0.83923 0.83049 0.01339 0.0
C1712 C 0.79228 0.79175 0.03303 0.0
C1713 C 0.86356 0.80373 0.02145 0.0
C1714 C 0.81742 0.76565 0.04072 0.0
N1715 N 0.85225 0.77216 0.0349 0.0
C1716 C 0.83112 0.92541 0.02741 0.0
C1717 C 0.80631 0.95784 0.97983 0.0
C1718 C 0.862 0.94567 0.02566 0.0
N1719 N 0.80422 0.93154 0.00444 0.0
C1720 C 0.83625 0.97924 0.97773 0.0
C1721 C 0.86475 0.97306 0.00059 0.0
H1722 H 0.82868 0.90448 0.04692 0.0
H1723 H 0.7849 0.96225 0.96171 0.0
C1724 C 0.72014 0.82103 0.91387 0.0
N1725 N 0.74249 0.81471 0.94124 0.0
C1726 C 0.72257 0.801 0.88289 0.0
C1727 C 0.76978 0.76713 0.90955 0.0
C1728 C 0.76705 0.78835 0.93956 0.0
C1729 C 0.74765 0.77358 0.88055 0.0
H1730 H 0.70058 0.84194 0.91602 0.0
H1731 H 0.78463 0.7837 0.96137 0.0
O1732 O 0.72849 0.90756 0.04768 0.0
O1733 O 0.69821 0.83788 0.01669 0.0
O1734 O 0.73281 0.89504 0.96648 0.0
O1735 O 0.77934 0.85108 0.01314 0.0
H1736 H 0.74483 0.9001 0.11543 0.0
H1737 H 0.74663 0.97275 0.02749 0.0
H1738 H 0.77845 0.94371 0.15033 0.0
H1739 H 0.78025 0.01517 0.06391 0.0
H1740 H 0.68452 0.73013 0.96456 0.0
H1741 H 0.63092 0.84469 -0.00164 0.0
H1742 H 0.71951 0.77289 -0.00072 0.0
H1743 H 0.59747 0.80077 0.96365 0.0
H1744 H 0.59892 0.96985 0.03515 0.0
H1745 H 0.605 0.9277 0.9293 0.0
H1746 H 0.81604 0.81889 0.14113 0.0
H1747 H 0.71037 0.77618 0.14711 0.0
H1748 H 0.7428 0.89164 0.89743 0.0
H1749 H 0.70795 0.95914 0.98228 0.0
H1750 H 0.72797 0.93971 0.85505 0.0
H1751 H 0.69432 0.00627 0.93849 0.0
H1752 H 0.84826 0.85554 0.0026 0.0
H1753 H 0.76467 0.78673 0.03814 0.0
H1754 H 0.89144 0.80806 0.01699 0.0
H1755 H 0.80925 0.7403 0.05151 0.0
H1756 H 0.88332 0.94014 0.04383 0.0
H1757 H 0.83738 -8e-05 0.95779 0.0
H1758 H 0.70489 0.80668 0.86121 0.0
H1759 H 0.7896 0.74634 0.90878 0.0
Li1760 Li 0.24679 0.64389 0.03355 0.0
Li1761 Li 0.27798 0.59733 -0.00298 0.0
Li1762 Li 0.25075 0.64876 0.96964 0.0
Li1763 Li 0.21452 0.60239 0.00058 0.0
C1764 C 0.31475 0.67282 -0.0058 0.0
N1765 N 0.36328 0.7211 0.96834 0.0
C1766 C 0.34945 0.66211 0.98711 0.0
C1767 C 0.30515 0.70839 0.98938 0.0
C1768 C 0.37355 0.68688 0.97392 0.0
C1769 C 0.32994 0.73231 0.97591 0.0
C1770 C 0.23501 0.56695 0.06255 0.0
C1771 C 0.21239 0.5084 0.07533 0.0
N1772 N 0.20783 0.51773 0.10969 0.0
C1773 C 0.23052 0.57577 0.09811 0.0
C1774 C 0.22635 0.5328 0.05117 0.0
C1775 C 0.21666 0.55057 0.1215 0.0
C1776 C 0.20906 0.66928 0.08972 0.0
N1777 N 0.24218 0.66703 0.07589 0.0
C1778 C 0.26638 0.6971 0.12488 0.0
C1779 C 0.27079 0.67999 0.09274 0.0
C1780 C 0.23223 0.70111 0.13885 0.0
C1781 C 0.20329 0.68711 0.12122 0.0
H1782 H 0.18709 0.65753 0.07604 0.0
H1783 H 0.29675 0.67725 0.08103 0.0
C1784 C 0.33368 0.57416 0.95852 0.0
N1785 N 0.31828 0.56871 0.99046 0.0
C1786 C 0.36677 0.56032 0.95133 0.0
C1787 C 0.36753 0.53397 0.00972 0.0
C1788 C 0.33376 0.54817 0.01568 0.0
C1789 C 0.38475 0.54146 0.97764 0.0
H1790 H 0.32131 0.59141 0.93942 0.0
H1791 H 0.32094 0.54477 0.04102 0.0
C1792 C 0.18468 0.68038 0.007 0.0
N1793 N 0.13549 0.73198 0.0243 0.0
C1794 C 0.14861 0.67276 0.00583 0.0
C1795 C 0.19568 0.71444 0.01646 0.0
C1796 C 0.12417 0.69917 0.01473 0.0
C1797 C 0.17042 0.74011 0.02526 0.0
C1798 C 0.25245 0.57305 0.93277 0.0
C1799 C 0.25799 0.58328 0.89766 0.0
C1800 C 0.2576 0.53758 0.94264 0.0
C1801 C 0.26996 0.55814 0.87333 0.0
C1802 C 0.26981 0.51329 0.9176 0.0
N1803 N 0.27589 0.52404 0.88381 0.0
C1804 C 0.28881 0.66984 0.91331 0.0
C1805 C 0.23349 0.69961 0.91436 0.0
C1806 C 0.29639 0.68345 0.88019 0.0
N1807 N 0.25755 0.67728 0.92927 0.0
C1808 C 0.2399 0.71373 0.88062 0.0
C1809 C 0.27117 0.70429 0.86279 0.0
H1810 H 0.30695 0.65134 0.92536 0.0
H1811 H 0.20865 0.70469 0.92763 0.0
C1812 C 0.15491 0.58229 0.03608 0.0
N1813 N 0.17193 0.57954 0.00451 0.0
C1814 C 0.12368 0.56392 0.04194 0.0
C1815 C 0.12724 0.54246 0.98172 0.0
C1816 C 0.15877 0.56064 0.97727 0.0
C1817 C 0.10997 0.54375 0.01451 0.0
H1818 H 0.1661 0.59813 0.05691 0.0
H1819 H 0.17306 0.55928 0.95253 0.0
O1820 O 0.29021 0.64832 0.0048 0.0
O1821 O 0.2483 0.59157 0.0393 0.0
O1822 O 0.20891 0.6543 -0.0004 0.0
O1823 O 0.24324 0.59795 0.95745 0.0
H1824 H 0.35767 0.63493 0.99153 0.0
H1825 H 0.27856 0.7172 -0.0052 0.0
H1826 H 0.40038 0.67888 0.96798 0.0
H1827 H 0.32264 0.75977 0.97134 0.0
H1828 H 0.20517 0.48203 0.06676 0.0
H1829 H 0.2379 0.60168 0.10771 0.0
H1830 H 0.22965 0.52537 0.02391 0.0
H1831 H 0.21302 0.5571 0.14905 0.0
H1832 H 0.28911 0.70835 0.13794 0.0
H1833 H 0.17673 0.69015 0.13153 0.0
H1834 H 0.37933 0.56674 0.92636 0.0
H1835 H 0.381 0.51998 0.03079 0.0
H1836 H 0.13953 0.64674 -0.0019 0.0
H1837 H 0.22337 0.72078 0.01791 0.0
H1838 H 0.0962 0.69358 0.01401 0.0
H1839 H 0.17859 0.76644 0.03303 0.0
H1840 H 0.25333 0.61038 0.88929 0.0
H1841 H 0.25351 0.52917 0.96957 0.0
H1842 H 0.2747 0.56576 0.84616 0.0
H1843 H 0.27464 0.48592 0.92506 0.0
H1844 H 0.32075 0.67554 0.86727 0.0
H1845 H 0.21966 0.72938 0.86768 0.0
H1846 H 0.11076 0.56497 0.06749 0.0
H1847 H 0.11705 0.52657 0.96029 0.0
Li1848 Li 0.14528 0.53374 0.73918 0.0
Li1849 Li 0.09963 0.49935 0.77397 0.0
Li1850 Li 0.14875 0.46909 0.7432 0.0
Li1851 Li 0.10138 0.50237 0.71088 0.0
C1852 C 0.17584 0.49565 0.80719 0.0
N1853 N 0.22333 0.47244 0.85743 0.0
C1854 C 0.16596 0.49415 0.84277 0.0
C1855 C 0.21035 0.48662 0.79741 0.0
C1856 C 0.19029 0.48221 0.86774 0.0
C1857 C 0.23386 0.47463 0.82314 0.0
C1858 C 0.06867 0.56272 0.72795 0.0
C1859 C 0.00935 0.57025 0.70621 0.0
N1860 N 0.01926 0.60083 0.68973 0.0
C1861 C 0.07788 0.59488 0.71181 0.0
C1862 C 0.03377 0.55099 0.72617 0.0
C1863 C 0.05265 0.61361 0.6924 0.0
C1864 C 0.17246 0.59259 0.70369 0.0
N1865 N 0.17105 0.57538 0.73534 0.0
C1866 C 0.20825 0.61815 0.76169 0.0
C1867 C 0.18803 0.58755 0.76423 0.0
C1868 C 0.21079 0.63581 0.72915 0.0
C1869 C 0.19272 0.62313 0.69986 0.0
H1870 H 0.1582 0.58227 0.68135 0.0
H1871 H 0.18626 0.57317 0.78894 0.0
C1872 C 0.08058 0.46359 0.83372 0.0
N1873 N 0.07315 0.49413 0.81604 0.0
C1874 C 0.06711 0.45794 0.86735 0.0
C1875 C 0.03625 0.51424 0.86336 0.0
C1876 C 0.0507 0.51898 0.82952 0.0
C1877 C 0.04562 0.48391 0.88297 0.0
H1878 H 0.09857 0.44443 0.82235 0.0
H1879 H 0.04536 0.54308 0.81478 0.0
C1880 C 0.17888 0.50975 0.67795 0.0
N1881 N 0.23069 0.53537 0.63307 0.0
C1882 C 0.17254 0.51266 0.64172 0.0
C1883 C 0.21213 0.51849 0.69105 0.0
C1884 C 0.19895 0.52592 0.61951 0.0
C1885 C 0.23786 0.53172 0.66801 0.0
C1886 C 0.07379 0.43384 0.75193 0.0
C1887 C 0.08465 0.39844 0.75546 0.0
C1888 C 0.03901 0.44312 0.76039 0.0
C1889 C 0.06085 0.37316 0.7683 0.0
C1890 C 0.01605 0.41713 0.77331 0.0
N1891 N 0.02738 0.383 0.77706 0.0
C1892 C 0.17159 0.41352 0.78166 0.0
C1893 C 0.19678 0.41095 0.72428 0.0
C1894 C 0.18602 0.38087 0.79034 0.0
N1895 N 0.17653 0.42761 0.74904 0.0
C1896 C 0.21143 0.3774 0.73173 0.0
C1897 C 0.20488 0.36167 0.76483 0.0
H1898 H 0.15474 0.42688 0.80046 0.0
H1899 H 0.19996 0.42271 0.69836 0.0
C1900 C 0.08165 0.5326 0.64759 0.0
N1901 N 0.07377 0.50633 0.67108 0.0
C1902 C 0.0591 0.53968 0.61958 0.0
C1903 C 0.0203 0.49349 0.6418 0.0
C1904 C 0.04406 0.48662 0.66868 0.0
C1905 C 0.02787 0.52034 0.61714 0.0
H1906 H 0.10495 0.54863 0.65124 0.0
H1907 H 0.03841 0.46639 0.68818 0.0
O1908 O 0.15132 0.50435 0.7821 0.0
O1909 O 0.09377 0.54264 0.74482 0.0
O1910 O 0.15249 0.49873 0.70028 0.0
O1911 O 0.09713 0.45907 0.74013 0.0
H1912 H 0.13974 0.50196 0.85105 0.0
H1913 H 0.21853 0.48727 0.77013 0.0
H1914 H 0.18286 0.48056 0.89531 0.0
H1915 H 0.26037 0.46674 0.8158 0.0
H1916 H 0.98251 0.5609 0.70383 0.0
H1917 H 0.10421 0.60531 0.71408 0.0
H1918 H 0.02584 0.52674 0.73917 0.0
H1919 H 0.05961 0.6383 0.67944 0.0
H1920 H 0.22269 0.62731 0.78452 0.0
H1921 H 0.19484 0.63617 0.6744 0.0
H1922 H 0.07494 0.43427 0.88176 0.0
H1923 H 0.0201 0.53502 0.87491 0.0
H1924 H 0.14751 0.50473 0.63078 0.0
H1925 H 0.21763 0.51647 0.71885 0.0
H1926 H 0.19424 0.52868 0.5915 0.0
H1927 H 0.26342 0.53936 0.67796 0.0
H1928 H 0.11108 0.39042 0.74809 0.0
H1929 H 0.02998 0.47019 0.75771 0.0
H1930 H 0.06897 0.34572 0.77124 0.0
H1931 H 0.98921 0.4241 0.78038 0.0
H1932 H 0.18025 0.3696 0.81609 0.0
H1933 H 0.22535 0.36299 0.71121 0.0
H1934 H 0.06557 0.56021 0.60051 0.0
H1935 H -0.00338 0.47756 0.63984 0.0
Li1936 Li 0.20275 0.39214 0.50466 0.0
Li1937 Li 0.24161 0.35585 0.54222 0.0
Li1938 Li 0.26648 0.40212 0.50533 0.0
Li1939 Li 0.24056 0.3474 0.47832 0.0
C1940 C 0.24854 0.4328 0.56604 0.0
N1941 N 0.28486 0.48175 0.60605 0.0
C1942 C 0.25921 0.42422 0.60032 0.0
C1943 C 0.25485 0.46697 0.55286 0.0
C1944 C 0.27769 0.44923 0.62004 0.0
C1945 C 0.27381 0.4911 0.5732 0.0
C1946 C 0.17992 0.31494 0.49737 0.0
C1947 C 0.17236 0.25734 0.47072 0.0
N1948 N 0.13833 0.26583 0.46308 0.0
C1949 C 0.14444 0.32247 0.49047 0.0
C1950 C 0.19355 0.2815 0.48868 0.0
C1951 C 0.12394 0.29746 0.47285 0.0
C1952 C 0.14458 0.40965 0.46553 0.0
N1953 N 0.15845 0.41301 0.49831 0.0
C1954 C 0.11242 0.45261 0.51559 0.0
C1955 C 0.14247 0.43274 0.52377 0.0
C1956 C 0.09977 0.45228 0.48083 0.0
C1957 C 0.1151 0.4294 0.45608 0.0
H1958 H 0.15776 0.3932 0.44614 0.0
H1959 H 0.15424 0.43466 0.54963 0.0
C1960 C 0.28071 0.33326 0.59935 0.0
N1961 N 0.24778 0.33274 0.58537 0.0
C1962 C 0.2889 0.31114 0.62756 0.0
C1963 C 0.22804 0.29151 0.62894 0.0
C1964 C 0.22122 0.31338 0.59996 0.0
C1965 C 0.26254 0.28948 0.64187 0.0
H1966 H 0.30106 0.34936 0.58724 0.0
H1967 H 0.19536 0.3136 0.58801 0.0
C1968 C 0.22737 0.42384 0.44043 0.0
N1969 N 0.20882 0.47594 0.39229 0.0
C1970 C 0.23158 0.41787 0.40427 0.0
C1971 C 0.21407 0.45649 0.45209 0.0
C1972 C 0.22193 0.44448 0.38036 0.0
C1973 C 0.2048 0.48246 0.42735 0.0
C1974 C 0.30584 0.32568 0.51605 0.0
C1975 C 0.34193 0.33193 0.51166 0.0
C1976 C 0.29442 0.2925 0.52825 0.0
C1977 C 0.36603 0.30509 0.52014 0.0
C1978 C 0.31933 0.26634 0.53642 0.0
N1979 N 0.35433 0.27317 0.53235 0.0
C1980 C 0.33351 0.42709 0.52469 0.0
C1981 C 0.30754 0.46042 0.47836 0.0
C1982 C 0.36427 0.44747 0.52267 0.0
N1983 N 0.30618 0.43351 0.50235 0.0
C1984 C 0.33734 0.482 0.47606 0.0
C1985 C 0.36641 0.47533 0.49804 0.0
H1986 H 0.33155 0.40576 0.54382 0.0
H1987 H 0.2857 0.4651 0.46082 0.0
C1988 C 0.22055 0.32197 0.41148 0.0
N1989 N 0.24379 0.31669 0.4383 0.0
C1990 C 0.22235 0.30104 0.38109 0.0
C1991 C 0.27077 0.26857 0.40734 0.0
C1992 C 0.26869 0.29068 0.43664 0.0
C1993 C 0.24767 0.27384 0.37894 0.0
H1994 H 0.20076 0.34265 0.41365 0.0
H1995 H 0.28705 0.28697 0.45791 0.0
O1996 O 0.23155 0.40811 0.54582 0.0
O1997 O 0.20075 0.33977 0.51345 0.0
O1998 O 0.23525 0.3974 0.46409 0.0
O1999 O 0.28198 0.35229 0.50939 0.0
H2000 H 0.25297 0.39873 0.61183 0.0
H2001 H 0.2461 0.47455 0.52683 0.0
H2002 H 0.2863 0.44279 0.64649 0.0
H2003 H 0.27963 0.5173 0.56292 0.0
H2004 H 0.18294 0.23177 0.46298 0.0
H2005 H 0.13258 0.3471 0.49903 0.0
H2006 H 0.22047 0.27452 0.49487 0.0
H2007 H 0.09656 0.30314 0.46708 0.0
H2008 H 0.10132 0.47039 0.53517 0.0
H2009 H 0.10591 0.42871 0.42906 0.0
H2010 H 0.31578 0.30981 0.6371 0.0
H2011 H 0.20739 0.27458 0.63944 0.0
H2012 H 0.24218 0.39295 0.39474 0.0
H2013 H 0.21027 0.46147 0.4799 0.0
H2014 H 0.22495 0.44015 0.3523 0.0
H2015 H 0.19419 0.50771 0.43603 0.0
H2016 H 0.35129 0.35722 0.50179 0.0
H2017 H 0.26666 0.28721 0.53202 0.0
H2018 H 0.39405 0.30963 0.51698 0.0
H2019 H 0.31085 0.24069 0.54622 0.0
H2020 H 0.38601 0.4416 0.54023 0.0
H2021 H 0.33796 0.50313 0.45657 0.0
H2022 H 0.20403 0.30583 0.35973 0.0
H2023 H 0.29088 0.24806 0.40654 0.0
Li2024 Li 0.4164 0.49993 0.26996 0.0
Li2025 Li 0.36529 0.46215 0.25323 0.0
Li2026 Li 0.40106 0.49152 0.20992 0.0
Li2027 Li 0.36437 0.52945 0.24746 0.0
C2028 C 0.44024 0.43154 0.23037 0.0
N2029 N 0.48781 0.38504 0.19952 0.0
C2030 C 0.43413 0.39491 0.23136 0.0
C2031 C 0.47098 0.44439 0.21434 0.0
C2032 C 0.45845 0.37186 0.21558 0.0
C2033 C 0.49455 0.42051 0.19864 0.0
C2034 C 0.33772 0.49914 0.31082 0.0
C2035 C 0.2743 0.50186 0.31532 0.0
N2036 N 0.27691 0.50243 0.35109 0.0
C2037 C 0.33978 0.4996 0.34762 0.0
C2038 C 0.30474 0.50018 0.29446 0.0
C2039 C 0.3087 0.5012 0.36753 0.0
C2040 C 0.44576 0.54173 0.31892 0.0
N2041 N 0.44821 0.50796 0.30684 0.0
C2042 C 0.47735 0.48936 0.35957 0.0
C2043 C 0.46463 0.48194 0.32571 0.0
C2044 C 0.47315 0.52385 0.37327 0.0
C2045 C 0.45945 0.55063 0.35136 0.0
H2046 H 0.43012 0.56117 0.30503 0.0
H2047 H 0.46487 0.45493 0.31599 0.0
C2048 C 0.34138 0.40272 0.22501 0.0
N2049 N 0.33942 0.41979 0.25644 0.0
C2050 C 0.32002 0.3737 0.21838 0.0
C2051 C 0.29668 0.37841 0.27777 0.0
C2052 C 0.31844 0.4079 0.2832 0.0
C2053 C 0.29684 0.3619 0.24461 0.0
H2054 H 0.35806 0.41317 0.20429 0.0
H2055 H 0.31728 0.42217 0.30789 0.0
C2056 C 0.43776 0.56276 0.23657 0.0
N2057 N 0.48681 0.61452 0.2516 0.0
C2058 C 0.42708 0.59811 0.24097 0.0
C2059 C 0.47356 0.55401 0.23872 0.0
C2060 C 0.45227 0.62387 0.24865 0.0
C2061 C 0.49791 0.58049 0.24667 0.0
C2062 C 0.3283 0.49253 0.18499 0.0
C2063 C 0.33619 0.51474 0.15641 0.0
C2064 C 0.29881 0.47036 0.18353 0.0
C2065 C 0.315 0.51361 0.12636 0.0
C2066 C 0.27828 0.47 0.15304 0.0
N2067 N 0.28683 0.49135 0.12527 0.0
C2068 C 0.41552 0.45192 0.15031 0.0
C2069 C 0.43308 0.51243 0.14697 0.0
C2070 C 0.43402 0.44416 0.11959 0.0
N2071 N 0.4171 0.48509 0.16414 0.0
C2072 C 0.45092 0.50614 0.11543 0.0
C2073 C 0.45279 0.4713 0.10269 0.0
H2074 H 0.40221 0.43094 0.16455 0.0
H2075 H 0.43356 0.53855 0.15876 0.0
C2076 C 0.34007 0.58488 0.28723 0.0
N2077 N 0.33865 0.57181 0.2539 0.0
C2078 C 0.32107 0.6152 0.29617 0.0
C2079 C 0.30227 0.62029 0.23541 0.0
C2080 C 0.321 0.58911 0.22778 0.0
C2081 C 0.30156 0.63288 0.27021 0.0
H2082 H 0.35544 0.57125 0.30709 0.0
H2083 H 0.32097 0.57842 0.20134 0.0
O2084 O 0.41625 0.45447 0.24518 0.0
O2085 O 0.36802 0.49915 0.29107 0.0
O2086 O 0.41305 0.53686 0.23144 0.0
O2087 O 0.34906 0.49246 0.21443 0.0
H2088 H 0.41093 0.38434 0.24435 0.0
H2089 H 0.47611 0.47252 0.21307 0.0
H2090 H 0.45399 0.34347 0.21614 0.0
H2091 H 0.51812 0.4302 0.18562 0.0
H2092 H 0.24859 0.50285 0.30308 0.0
H2093 H 0.36516 0.49906 0.36061 0.0
H2094 H 0.30264 0.50008 0.26602 0.0
H2095 H 0.30981 0.50164 0.39603 0.0
H2096 H 0.48756 0.46789 0.37574 0.0
H2097 H 0.45546 0.57755 0.36064 0.0
H2098 H 0.32021 0.36181 0.19237 0.0
H2099 H 0.27835 0.37016 0.29824 0.0
H2100 H 0.3996 0.60557 0.2389 0.0
H2101 H 0.48238 0.52692 0.23566 0.0
H2102 H 0.44437 0.65125 0.2525 0.0
H2103 H 0.52561 0.57395 0.24921 0.0
H2104 H 0.35846 0.53261 0.15738 0.0
H2105 H 0.29163 0.45378 0.2058 0.0
H2106 H 0.32091 0.53047 0.10397 0.0
H2107 H 0.2555 0.45283 0.1515 0.0
H2108 H 0.43518 0.41703 0.11016 0.0
H2109 H 0.46552 0.52748 0.10286 0.0
H2110 H 0.32086 0.62426 0.32328 0.0
H2111 H 0.28693 0.63318 0.21494 0.0
O2112 O 0.96182 0.06044 0.92574 0.0
Mg2113 Mg 0.93847 0.05903 0.97515 0.0
O2114 O 0.97879 0.00562 0.93673 0.0
Mg2115 Mg 0.98603 0.00016 -0.0016 0.0
O2116 O 0.97523 0.0589 0.0139 0.0
O2117 O 0.93977 0.10534 0.00166 0.0
O2118 O -0.00406 -0.00363 0.05992 0.0
O2119 O 0.04434 0.01714 0.99099 0.0
Mg2120 Mg 0.02534 0.94365 0.02675 0.0
O2121 O -0.00337 0.94114 0.98172 0.0
O2122 O -0.00585 0.93996 0.07219 0.0
O2123 O 0.0703 0.9779 0.02586 0.0
O2124 O 0.03126 0.89681 0.00209 0.0
C2125 C 0.89709 -0.0052 -0.00281 0.0
C2126 C 0.97283 0.03076 0.9148 0.0
C2127 C 0.96558 0.09163 0.01923 0.0
C2128 C -0.00448 0.97152 0.08289 0.0
C2129 C 0.0717 0.00587 0.00707 0.0
C2130 C 0.00859 0.90878 0.97966 0.0
O2131 O 0.89465 0.02528 0.98305 0.0
O2132 O 0.92712 0.98223 0.00627 0.0
O2133 O 0.22674 0.73375 0.33373 0.0
Mg2134 Mg 0.22857 0.69648 0.29228 0.0
O2135 O 0.2614 0.77104 0.305 0.0
Mg2136 Mg 0.25309 0.74805 0.24953 0.0
O2137 O 0.2735 0.69008 0.26397 0.0
O2138 O 0.25423 0.652 0.30605 0.0
O2139 O 0.24651 0.71863 0.19606 0.0
O2140 O 0.31299 0.75644 0.23725 0.0
Mg2141 Mg 0.2515 0.78253 0.19234 0.0
O2142 O 0.23489 0.80866 0.23595 0.0
O2143 O 0.21359 0.75373 0.16456 0.0
O2144 O 0.30556 0.77449 0.18257 0.0
O2145 O 0.24247 0.83303 0.1817 0.0
C2146 C 0.16982 0.71643 0.26271 0.0
C2147 C 0.24507 0.76178 0.33299 0.0
C2148 C 0.27593 0.65996 0.28091 0.0
C2149 C 0.22719 0.72366 0.16933 0.0
C2150 C 0.32582 0.76517 0.20732 0.0
C2151 C 0.23222 0.8355 0.21404 0.0
O2152 O 0.18255 0.68556 0.26465 0.0
O2153 O 0.19114 0.74259 0.26101 0.0
O2154 O 0.56312 0.97001 0.44093 0.0
Mg2155 Mg 0.55347 0.96201 0.49487 0.0
O2156 O 0.50915 0.99032 0.43425 0.0
Mg2157 Mg 0.49652 -0.00169 0.49429 0.0
O2158 O 0.50918 0.93765 0.51263 0.0
O2159 O 0.56218 0.91109 0.50369 0.0
O2160 O 0.48457 0.00386 0.55615 0.0
O2161 O 0.44097 0.97594 0.48525 0.0
Mg2162 Mg 0.45434 0.05008 0.5183 0.0
O2163 O 0.48295 0.05641 0.47356 0.0
O2164 O 0.48198 0.06102 0.56428 0.0
O2165 O 0.41257 0.01308 0.52023 0.0
O2166 O 0.44065 0.09444 0.49236 0.0
C2167 C 0.57745 0.0205 0.5207 0.0
C2168 C 0.53863 0.98068 0.42103 0.0
C2169 C 0.53009 0.91 0.51497 0.0
C2170 C 0.48336 0.03021 0.57725 0.0
C2171 C 0.41307 0.98521 0.50168 0.0
C2172 C 0.46593 0.08645 0.47085 0.0
O2173 O 0.58267 0.98966 0.5323 0.0
O2174 O 0.55036 0.0266 0.50216 0.0
O2175 O 0.32839 0.21448 0.73767 0.0
Mg2176 Mg 0.28524 0.21337 0.7018 0.0
O2177 O 0.30326 0.25392 0.77304 0.0
Mg2178 Mg 0.24653 0.24419 0.75592 0.0
O2179 O 0.2591 0.25991 0.6976 0.0
O2180 O 0.29442 0.23725 0.65511 0.0
O2181 O 0.19051 0.23314 0.73387 0.0
O2182 O 0.23559 0.30589 0.75786 0.0
Mg2183 Mg 0.19082 0.2543 0.79978 0.0
O2184 O 0.23598 0.23103 0.81654 0.0
O2185 O 0.15393 0.2215 0.77731 0.0
O2186 O 0.18678 0.30787 0.78929 0.0
O2187 O 0.19031 0.24821 0.85143 0.0
C2188 C 0.25473 0.15932 0.73072 0.0
C2189 C 0.33013 0.23587 0.76342 0.0
C2190 C 0.27239 0.26109 0.66598 0.0
C2191 C 0.16045 0.22281 0.74477 0.0
C2192 C 0.21008 0.32347 0.77126 0.0
C2193 C 0.22022 0.23231 0.84722 0.0
O2194 O 0.25009 0.17055 0.69978 0.0
O2195 O 0.25849 0.18226 0.75503 0.0
O2196 O 0.02844 0.92045 0.49454 0.0
Mg2197 Mg 0.02542 0.96049 0.53377 0.0
O2198 O 0.98804 0.9478 0.46287 0.0
Mg2199 Mg -0.00109 0.00291 0.48684 0.0
O2200 O 0.97962 0.98574 0.54394 0.0
O2201 O 0.00224 0.9414 0.57741 0.0
O2202 O 0.00971 0.05784 0.51176 0.0
O2203 O 0.93844 0.01711 0.48219 0.0
Mg2204 Mg 0.98408 0.06519 0.43332 0.0
O2205 O 0.01386 0.02097 0.43109 0.0
O2206 O 0.00224 0.10015 0.47137 0.0
O2207 O 0.93127 0.05235 0.43587 0.0
O2208 O 0.00961 0.06066 0.38691 0.0
C2209 C 0.08211 0.99054 0.5145 0.0
C2210 C 0.00705 0.92053 0.46901 0.0
C2211 C 0.97898 0.96596 0.57219 0.0
C2212 C 0.01 0.0904 0.50236 0.0
C2213 C 0.91844 0.03439 0.4611 0.0
C2214 C 0.02223 0.03134 0.39953 0.0
O2215 O 0.06907 0.99226 0.54503 0.0
O2216 O 0.06083 0.98972 0.48855 0.0
O2217 O 0.29062 0.68489 0.8076 0.0
Mg2218 Mg 0.29785 0.68722 0.75333 0.0
O2219 O 0.26188 0.73595 0.80851 0.0
Mg2220 Mg 0.25596 0.74911 0.74847 0.0
O2221 O 0.31369 0.73391 0.7322 0.0
O2222 O 0.34827 0.68536 0.73997 0.0
O2223 O 0.2522 0.76177 0.68655 0.0
O2224 O 0.28006 0.80388 0.75878 0.0
Mg2225 Mg 0.20807 0.79295 0.72323 0.0
O2226 O 0.19979 0.76599 0.76862 0.0
O2227 O 0.1954 0.76271 0.67912 0.0
O2228 O 0.24786 0.83224 0.7195 0.0
O2229 O 0.16583 0.8115 0.74936 0.0
C2230 C 0.23606 0.66435 0.72576 0.0
C2231 C 0.27524 0.70933 0.82455 0.0
C2232 C 0.34362 0.7173 0.72827 0.0
C2233 C 0.22584 0.76233 0.6657 0.0
C2234 C 0.2739 0.8314 0.74022 0.0
C2235 C 0.17185 0.78594 0.77134 0.0
O2236 O 0.26773 0.65545 0.72107 0.0
O2237 O 0.22851 0.69458 0.73875 0.0
O2238 O 0.46818 0.94089 0.059 0.0
Mg2239 Mg 0.45489 0.99377 0.0545 0.0
O2240 O 0.4967 0.94302 0.00843 0.0
Mg2241 Mg 0.49682 0.00533 -0.00012 0.0
O2242 O 0.43491 0.01537 0.00989 0.0
O2243 O 0.40294 -0.00409 0.05673 0.0
O2244 O 0.4983 0.06739 0.99005 0.0
O2245 O 0.48023 -0.00293 0.94273 0.0
Mg2246 Mg 0.55547 0.03929 0.95252 0.0
O2247 O 0.55526 -0.00206 0.98753 0.0
O2248 O 0.55488 0.07865 0.99149 0.0
O2249 O 0.51214 0.03895 0.91654 0.0
O2250 O 0.58979 -0.00179 0.94064 0.0
C2251 C 0.50723 0.02525 0.08644 0.0
C2252 C 0.48495 0.92539 0.03475 0.0
C2253 C 0.40492 0.01203 0.02673 0.0
C2254 C 0.52345 0.08997 0.99071 0.0
C2255 C 0.48717 0.01655 0.91604 0.0
C2256 C 0.57719 0.98131 0.96742 0.0
O2257 O 0.47461 0.02776 0.09202 0.0
O2258 O 0.51846 0.01448 0.05666 0.0
O2259 O 0.22256 0.26655 0.17479 0.0
Mg2260 Mg 0.22211 0.30157 0.21919 0.0
O2261 O 0.25901 0.22873 0.20053 0.0
Mg2262 Mg 0.25166 0.2462 0.25836 0.0
O2263 O 0.26748 0.30545 0.24711 0.0
O2264 O 0.24588 0.34871 0.21187 0.0
O2265 O 0.24383 0.26418 0.31681 0.0
O2266 O 0.31321 0.2414 0.26541 0.0
Mg2267 Mg 0.27522 0.18596 0.30815 0.0
O2268 O 0.23782 0.18771 0.27019 0.0
O2269 O 0.26466 0.22074 0.35059 0.0
O2270 O 0.32499 0.18758 0.28537 0.0
O2271 O 0.24828 0.13971 0.30378 0.0
C2272 C 0.16698 0.2734 0.25024 0.0
C2273 C 0.24205 0.23908 0.17341 0.0
C2274 C 0.26872 0.33766 0.23458 0.0
C2275 C 0.25135 0.25153 0.3472 0.0
C2276 C 0.3354 0.21686 0.2727 0.0
C2277 C 0.2314 0.15481 0.27827 0.0
O2278 O 0.17752 0.30501 0.25164 0.0
O2279 O 0.1901 0.24877 0.24903 0.0
O2280 O 0.43938 0.56197 0.95806 0.0
Mg2281 Mg 0.49337 0.56014 0.94936 0.0
O2282 O 0.43958 0.5107 0.98651 0.0
Mg2283 Mg 0.49995 0.4987 0.99137 0.0
O2284 O 0.51444 0.51361 0.93325 0.0
O2285 O 0.50498 0.56174 0.8985 0.0
O2286 O 0.56192 0.48683 -0.00585 0.0
O2287 O 0.4903 0.44363 0.96809 0.0
Mg2288 Mg 0.52713 0.45475 0.04001 0.0
O2289 O 0.48144 0.48146 0.04755 0.0
O2290 O 0.57076 0.48655 0.05074 0.0
O2291 O 0.53019 0.4156 -0.0 0.0
O2292 O 0.50122 0.43724 0.08289 0.0
C2293 C 0.52188 0.584 0.01005 0.0
C2294 C 0.42302 0.53719 0.97354 0.0
C2295 C 0.51718 0.52998 0.90309 0.0
C2296 C 0.58341 0.48666 0.01997 0.0
C2297 C 0.50914 0.41628 0.97418 0.0
C2298 C 0.47896 0.46235 0.07605 0.0
O2299 O 0.52616 0.59247 0.97821 0.0
O2300 O 0.50927 0.55373 0.01818 0.0
O2301 O 0.78911 0.18634 0.30871 0.0
Mg2302 Mg 0.7982 0.1887 0.25493 0.0
O2303 O 0.7593 0.23674 0.30806 0.0
Mg2304 Mg 0.75507 0.24895 0.24756 0.0
O2305 O 0.81353 0.23528 0.23333 0.0
O2306 O 0.84921 0.18815 0.24408 0.0
O2307 O 0.75211 0.26097 0.18542 0.0
O2308 O 0.77787 0.30411 0.25785 0.0
Mg2309 Mg 0.70676 0.29272 0.2209 0.0
O2310 O 0.69879 0.26539 0.26623 0.0
O2311 O 0.69539 0.26183 0.17693 0.0
O2312 O 0.74668 0.33194 0.21739 0.0
O2313 O 0.66435 0.31067 0.24726 0.0
C2314 C 0.73844 0.16309 0.22571 0.0
C2315 C 0.7726 0.21055 0.32483 0.0
C2316 C 0.84406 0.21953 0.23116 0.0
C2317 C 0.72609 0.26138 0.16409 0.0
C2318 C 0.77219 0.33135 0.23878 0.0
C2319 C 0.67072 0.28505 0.26909 0.0
O2320 O 0.77053 0.1552 0.22238 0.0
O2321 O 0.72936 0.1934 0.23764 0.0
O2322 O 0.96473 0.43955 0.55857 0.0
Mg2323 Mg 0.95221 0.49248 0.55441 0.0
O2324 O -0.00403 0.44236 0.5097 0.0
Mg2325 Mg -0.00422 0.50459 0.50014 0.0
O2326 O 0.93404 0.51512 0.50949 0.0
O2327 O 0.90029 0.49556 0.55504 0.0
O2328 O -0.00281 0.56684 0.48943 0.0
O2329 O 0.97946 0.49483 0.44311 0.0
Mg2330 Mg 0.05239 0.53758 0.45468 0.0
O2331 O 0.05458 0.49588 0.48922 0.0
O2332 O 0.05363 0.57863 0.49157 0.0
O2333 O 0.01017 0.53777 0.41764 0.0
O2334 O 0.08803 0.49872 0.44124 0.0
C2335 C 0.00476 0.52433 0.58706 0.0
C2336 C 0.98305 0.42442 0.53525 0.0
C2337 C 0.90351 0.51209 0.52535 0.0
C2338 C 0.02213 0.58968 0.49036 0.0
C2339 C 0.98591 0.51468 0.41662 0.0
C2340 C 0.07705 0.48101 0.46825 0.0
O2341 O 0.97207 0.52538 0.59275 0.0
O2342 O 0.0164 0.51479 0.55702 0.0
O2343 O 0.68817 0.80644 0.28244 0.0
Mg2344 Mg 0.69243 0.75341 0.29469 0.0
O2345 O 0.73746 0.80411 0.25181 0.0
Mg2346 Mg 0.74653 0.74182 0.25134 0.0
O2347 O 0.73738 0.73102 0.31312 0.0
O2348 O 0.69153 0.75025 0.3466 0.0
O2349 O 0.75678 0.67974 0.24951 0.0
O2350 O 0.80381 0.7509 0.26731 0.0
Mg2351 Mg 0.79218 0.70876 0.19353 0.0
O2352 O 0.75742 0.75033 0.19258 0.0
O2353 O 0.75458 0.66822 0.19302 0.0
O2354 O 0.82935 0.70858 0.23573 0.0
O2355 O 0.8047 0.74855 0.15829 0.0
C2356 C 0.6596 0.72216 0.24223 0.0
C2357 C 0.71177 0.82186 0.2647 0.0
C2358 C 0.72132 0.73392 0.34356 0.0
C2359 C 0.75576 0.65704 0.22449 0.0
C2360 C 0.83038 0.73131 0.26032 0.0
C2361 C 0.77783 0.7659 0.17008 0.0
O2362 O 0.65402 0.72048 0.27491 0.0
O2363 O 0.68956 0.73212 0.23069 0.0
O2364 O 0.72669 0.23401 0.83083 0.0
Mg2365 Mg 0.7283 0.19803 0.7881 0.0
O2366 O 0.76256 0.27069 0.80307 0.0
Mg2367 Mg 0.75253 0.24932 0.7473 0.0
O2368 O 0.77321 0.19051 0.75989 0.0
O2369 O 0.75279 0.15296 0.80192 0.0
O2370 O 0.74318 0.22333 0.69266 0.0
O2371 O 0.81288 0.25665 0.73471 0.0
Mg2372 Mg 0.75535 0.29008 0.69019 0.0
O2373 O 0.73414 0.30974 0.73538 0.0
O2374 O 0.72176 0.26327 0.65665 0.0
O2375 O 0.80943 0.28382 0.68341 0.0
O2376 O 0.74538 0.34134 0.68558 0.0
C2377 C 0.66931 0.21843 0.76045 0.0
C2378 C 0.74592 0.26141 0.83084 0.0
C2379 C 0.77489 0.16037 0.77698 0.0
C2380 C 0.72866 0.23135 0.66359 0.0
C2381 C 0.82776 0.26962 0.70733 0.0
C2382 C 0.73226 0.33916 0.71693 0.0
O2383 O 0.68194 0.18746 0.76085 0.0
O2384 O 0.69072 0.24453 0.7597 0.0
O2385 O 0.72262 0.7668 0.6752 0.0
Mg2386 Mg 0.72284 0.80128 0.71992 0.0
O2387 O 0.75857 0.72872 0.70112 0.0
Mg2388 Mg 0.75111 0.74658 0.75917 0.0
O2389 O 0.76824 0.80575 0.74793 0.0
O2390 O 0.74672 0.84805 0.71146 0.0
O2391 O 0.74333 0.76467 0.81803 0.0
O2392 O 0.81253 0.74112 0.76631 0.0
Mg2393 Mg 0.7743 0.68689 0.8078 0.0
O2394 O 0.736 0.68808 0.77063 0.0
O2395 O 0.76532 0.72124 0.851 0.0
O2396 O 0.82384 0.68667 0.78444 0.0
O2397 O 0.74719 0.64075 0.80509 0.0
C2398 C 0.66668 0.77491 0.75019 0.0
C2399 C 0.74185 0.73918 0.67386 0.0
C2400 C 0.76953 0.8376 0.73447 0.0
C2401 C 0.75164 0.75192 0.84823 0.0
C2402 C 0.83455 0.7162 0.77271 0.0
C2403 C 0.72991 0.6553 0.77953 0.0
O2404 O 0.67749 0.80646 0.75102 0.0
O2405 O 0.68957 0.75003 0.74973 0.0
O2406 O 0.57177 0.47903 0.5235 0.0
Mg2407 Mg 0.52677 0.44477 0.52424 0.0
O2408 O 0.54614 0.51781 0.48794 0.0
Mg2409 Mg 0.48784 0.50106 0.49509 0.0
O2410 O 0.49832 0.44174 0.47911 0.0
O2411 O 0.53281 0.39761 0.50018 0.0
O2412 O 0.42885 0.48391 0.50262 0.0
O2413 O 0.48104 0.50612 0.43357 0.0
Mg2414 Mg 0.43992 0.56146 0.47117 0.0
O2415 O 0.47692 0.55974 0.50954 0.0
O2416 O 0.39634 0.52748 0.48022 0.0
O2417 O 0.46392 0.56084 0.42198 0.0
O2418 O 0.44343 0.60767 0.49811 0.0
C2419 C 0.4961 0.47322 0.57968 0.0
C2420 C 0.57334 0.50678 0.50441 0.0
C2421 C 0.51019 0.40931 0.47756 0.0
C2422 C 0.39881 0.49686 0.49413 0.0
C2423 C 0.47517 0.53107 0.41144 0.0
C2424 C 0.46864 0.59268 0.51553 0.0
O2425 O 0.49484 0.44159 0.56918 0.0
O2426 O 0.49704 0.4979 0.55657 0.0
O2427 O 0.06364 0.47007 0.94033 0.0
Mg2428 Mg 0.05526 0.4623 -0.00564 0.0
O2429 O 0.01005 0.49183 0.935 0.0
Mg2430 Mg -0.00215 0.49934 -0.00494 0.0
O2431 O 0.01091 0.43883 0.01317 0.0
O2432 O 0.06328 0.4113 0.00343 0.0
O2433 O 0.986 0.50448 0.05685 0.0
O2434 O 0.94251 0.47662 0.98582 0.0
Mg2435 Mg 0.95491 0.55059 0.01929 0.0
O2436 O 0.98369 0.55739 0.9747 0.0
O2437 O 0.98245 0.56155 0.06532 0.0
O2438 O 0.91348 0.51317 0.02088 0.0
O2439 O 0.94086 0.59489 -0.0066 0.0
C2440 C 0.07979 0.52102 0.02016 0.0
C2441 C 0.03898 0.48157 0.92111 0.0
C2442 C 0.03138 0.41084 0.01531 0.0
C2443 C 0.98436 0.53069 0.07809 0.0
C2444 C 0.9144 0.48548 0.00208 0.0
C2445 C 0.96634 0.58724 0.97199 0.0
O2446 O 0.08571 0.48989 0.03059 0.0
O2447 O 0.05188 0.52751 0.00294 0.0
loop_
_geom_bond_atom_site_label_1
_geom_bond_atom_site_label_2
_geom_bond_distance
_geom_bond_site_symmetry_2
_ccdc_geom_bond_type
Li0 N17 1.990 . S
Li0 O60 1.956 . S
Li0 O61 1.970 . S
Li0 O62 1.961 1_455 S
Li1 N25 1.990 . S
Li1 O60 1.970 . S
Li1 O61 1.956 . S
Li1 O63 1.961 . S
Li2 N47 1.990 . S
Li2 O60 1.961 . S
Li2 O62 1.956 1_455 S
Li2 O63 1.970 . S
Li3 N53 1.990 . S
Li3 O61 1.961 1_655 S
Li3 O62 1.970 . S
Li3 O63 1.956 1_655 S
C4 C6 1.348 . S
C4 C7 1.356 . S
C4 O60 1.325 . S
N5 C8 1.314 . S
N5 C9 1.279 . S
C6 C4 1.348 . S
C6 C8 1.353 . S
C6 H64 0.929 . S
C7 C4 1.356 . S
C7 C9 1.358 . S
C7 H65 0.930 . S
C8 N5 1.314 . S
C8 C6 1.353 . S
C8 H66 0.930 . S
C9 N5 1.279 . S
C9 C7 1.358 . S
C9 H67 0.930 1_554 S
C10 C13 1.348 . S
C10 C14 1.356 1_455 S
C10 O61 1.325 . S
C11 N12 1.279 1_655 S
C11 C14 1.358 . S
C11 H68 0.930 . S
N12 C11 1.279 1_455 S
N12 C15 1.314 . S
C13 C10 1.348 . S
C13 C15 1.353 . S
C13 H69 0.929 . S
C14 C10 1.356 1_655 S
C14 C11 1.358 . S
C14 H70 0.930 . S
C15 N12 1.314 . S
C15 C13 1.353 . S
C15 H71 0.930 . S
C16 N17 1.314 1_655 S
C16 C21 1.353 . S
C16 H22 0.930 . S
N17 Li0 1.990 . S
N17 C16 1.314 1_455 S
N17 C19 1.279 . S
C18 C19 1.358 . S
C18 C20 1.356 . S
C18 H72 0.930 . S
C19 N17 1.279 . S
C19 C18 1.358 . S
C19 H23 0.930 . S
C20 C18 1.356 . S
C20 C21 1.348 1_455 S
C21 C16 1.353 . S
C21 C20 1.348 1_655 S
C21 H73 0.929 . S
H22 C16 0.930 . S
H23 C19 0.930 . S
C24 N25 1.314 . S
C24 C26 1.353 . S
C24 H30 0.930 . S
N25 Li1 1.990 . S
N25 C24 1.314 . S
N25 C28 1.279 . S
C26 C24 1.353 . S
C26 C29 1.348 . S
C26 H74 0.929 . S
C27 C28 1.358 . S
C27 C29 1.356 . S
C27 H75 0.930 . S
C28 N25 1.279 . S
C28 C27 1.358 . S
C28 H31 0.930 . S
C29 C26 1.348 . S
C29 C27 1.356 . S
H30 C24 0.930 . S
H31 C28 0.930 . S
C32 C34 1.348 . S
C32 C35 1.356 . S
C32 O62 1.325 . S
N33 C36 1.314 . S
N33 C37 1.279 . S
C34 C32 1.348 . S
C34 C36 1.353 . S
C34 H76 0.929 . S
C35 C32 1.356 . S
C35 C37 1.358 . S
C35 H77 0.930 . S
C36 N33 1.314 . S
C36 C34 1.353 . S
C36 H78 0.930 . S
C37 N33 1.279 . S
C37 C35 1.358 . S
C37 H79 0.930 1_554 S
C38 C39 1.348 1_455 S
C38 C40 1.356 . S
C38 O63 1.325 . S
C39 C38 1.348 1_655 S
C39 C41 1.353 . S
C39 H80 0.929 . S
C40 C38 1.356 . S
C40 C42 1.358 . S
C40 H81 0.930 . S
C41 C39 1.353 . S
C41 N43 1.314 . S
C41 H82 0.930 . S
C42 C40 1.358 . S
C42 N43 1.280 1_455 S
C42 H83 0.930 . S
N43 C41 1.314 . S
N43 C42 1.280 1_655 S
C44 C46 1.353 . S
C44 N47 1.314 . S
C44 H50 0.930 . S
C45 N47 1.279 1_655 S
C45 C48 1.358 . S
C45 H51 0.930 . S
C46 C44 1.353 . S
C46 C49 1.348 . S
C46 H84 0.929 . S
N47 Li2 1.990 . S
N47 C44 1.314 . S
N47 C45 1.279 1_455 S
C48 C45 1.358 . S
C48 C49 1.356 1_655 S
C48 H85 0.930 . S
C49 C46 1.348 . S
C49 C48 1.356 1_455 S
H50 C44 0.930 . S
H51 C45 0.930 . S
C52 N53 1.314 . S
C52 C54 1.353 . S
C52 H58 0.930 . S
N53 Li3 1.990 . S
N53 C52 1.314 . S
N53 C56 1.279 . S
C54 C52 1.353 . S
C54 C57 1.348 . S
C54 H86 0.929 . S
C55 C56 1.358 . S
C55 C57 1.356 . S
C55 H87 0.930 . S
C56 N53 1.279 . S
C56 C55 1.358 . S
C56 H59 0.930 . S
C57 C54 1.348 . S
C57 C55 1.356 . S
H58 C52 0.930 . S
H59 C56 0.930 . S
O60 Li0 1.956 . S
O60 Li1 1.970 . S
O60 Li2 1.961 . S
O60 C4 1.325 . S
O61 Li0 1.970 . S
O61 Li1 1.956 . S
O61 Li3 1.961 1_455 S
O61 C10 1.325 . S
O62 Li0 1.961 1_655 S
O62 Li2 1.956 1_655 S
O62 Li3 1.970 . S
O62 C32 1.325 . S
O63 Li1 1.961 . S
O63 Li2 1.970 . S
O63 Li3 1.956 1_455 S
O63 C38 1.325 . S
H64 C6 0.929 . S
H65 C7 0.930 . S
H66 C8 0.930 . S
H67 C9 0.930 1_556 S
H68 C11 0.930 . S
H69 C13 0.929 . S
H70 C14 0.930 . S
H71 C15 0.930 . S
H72 C18 0.930 . S
H73 C21 0.929 . S
H74 C26 0.929 . S
H75 C27 0.930 . S
H76 C34 0.929 . S
H77 C35 0.930 . S
H78 C36 0.930 . S
H79 C37 0.930 1_556 S
H80 C39 0.929 . S
H81 C40 0.930 . S
H82 C41 0.930 . S
H83 C42 0.930 . S
H84 C46 0.929 . S
H85 C48 0.930 . S
H86 C54 0.929 . S
H87 C55 0.930 . S
Li88 N105 1.990 . S
Li88 O148 1.956 1_655 S
Li88 O149 1.970 . S
Li88 O150 1.961 1_655 S
Li89 N113 1.990 . S
Li89 O148 1.970 . S
Li89 O149 1.956 1_455 S
Li89 O151 1.961 . S
Li90 N135 1.990 . S
Li90 O148 1.961 . S
Li90 O150 1.956 . S
Li90 O151 1.970 . S
Li91 N141 1.990 . S
Li91 O149 1.961 1_455 S
Li91 O150 1.970 . S
Li91 O151 1.956 . S
C92 C94 1.348 1_455 S
C92 C95 1.356 . S
C92 O148 1.325 . S
N93 C96 1.314 1_455 S
N93 C97 1.279 . S
C94 C92 1.348 1_655 S
C94 C96 1.353 . S
C94 H152 0.929 . S
C95 C92 1.356 . S
C95 C97 1.358 . S
C95 H153 0.930 . S
C96 N93 1.314 1_655 S
C96 C94 1.353 . S
C96 H154 0.930 . S
C97 N93 1.279 . S
C97 C95 1.358 . S
C97 H155 0.930 . S
C98 C101 1.348 . S
C98 C102 1.356 . S
C98 O149 1.325 . S
C99 N100 1.279 . S
C99 C102 1.358 . S
C99 H156 0.930 . S
N100 C99 1.279 . S
N100 C103 1.314 . S
C101 C98 1.348 . S
C101 C103 1.353 . S
C101 H157 0.929 . S
C102 C98 1.356 . S
C102 C99 1.358 . S
C102 H158 0.930 . S
C103 N100 1.314 . S
C103 C101 1.353 . S
C103 H159 0.930 . S
C104 N105 1.314 . S
C104 C109 1.353 . S
C104 H110 0.930 . S
N105 Li88 1.990 . S
N105 C104 1.314 . S
N105 C107 1.279 . S
C106 C107 1.358 . S
C106 C108 1.356 . S
C106 H160 0.930 . S
C107 N105 1.279 . S
C107 C106 1.358 . S
C107 H111 0.930 . S
C108 C106 1.356 . S
C108 C109 1.348 . S
C109 C104 1.353 . S
C109 C108 1.348 . S
C109 H161 0.929 . S
H110 C104 0.930 . S
H111 C107 0.930 . S
C112 N113 1.314 . S
C112 C114 1.353 . S
C112 H118 0.930 . S
N113 Li89 1.990 . S
N113 C112 1.314 . S
N113 C116 1.279 1_455 S
C114 C112 1.353 . S
C114 C117 1.348 . S
C114 H162 0.929 . S
C115 C116 1.358 . S
C115 C117 1.356 1_655 S
C115 H163 0.930 . S
C116 N113 1.279 1_655 S
C116 C115 1.358 . S
C116 H119 0.930 . S
C117 C114 1.348 . S
C117 C115 1.356 1_455 S
H118 C112 0.930 . S
H119 C116 0.930 . S
C120 C122 1.348 . S
C120 C123 1.353 1_455 S
C120 O150 1.325 . S
N121 C124 1.314 . S
N121 C125 1.280 . S
C122 C120 1.348 . S
C122 C124 1.353 . S
C122 H164 0.929 . S
C123 C120 1.353 1_655 S
C123 C125 1.358 1_655 S
C123 H165 0.933 . S
C124 N121 1.314 . S
C124 C122 1.353 . S
C124 H166 0.930 . S
C125 N121 1.280 . S
C125 C123 1.358 1_455 S
C125 H167 0.929 1_455 S
C126 C127 1.348 . S
C126 C128 1.356 . S
C126 O151 1.325 . S
C127 C126 1.348 . S
C127 C129 1.353 . S
C127 H168 0.929 . S
C128 C126 1.356 . S
C128 C130 1.358 . S
C128 H169 0.930 . S
C129 C127 1.353 . S
C129 N131 1.314 . S
C129 H170 0.930 . S
C130 C128 1.358 . S
C130 N131 1.279 . S
C130 H171 0.930 . S
N131 C129 1.314 . S
N131 C130 1.279 . S
C132 C134 1.353 . S
C132 N135 1.314 . S
C132 H138 0.930 . S
C133 N135 1.279 . S
C133 C136 1.358 . S
C133 H139 0.930 . S
C134 C132 1.353 . S
C134 C137 1.348 . S
C134 H172 0.929 . S
N135 Li90 1.990 . S
N135 C132 1.314 . S
N135 C133 1.279 . S
C136 C133 1.358 . S
C136 C137 1.356 . S
C136 H173 0.930 . S
C137 C134 1.348 . S
C137 C136 1.356 . S
H138 C132 0.930 . S
H139 C133 0.930 . S
C140 N141 1.314 1_655 S
C140 C142 1.353 . S
C140 H146 0.930 . S
N141 Li91 1.990 . S
N141 C140 1.314 1_455 S
N141 C144 1.279 . S
C142 C140 1.353 . S
C142 C145 1.348 1_655 S
C142 H174 0.929 . S
C143 C144 1.358 . S
C143 C145 1.356 . S
C143 H175 0.930 . S
C144 N141 1.279 . S
C144 C143 1.358 . S
C144 H147 0.930 . S
C145 C142 1.348 1_455 S
C145 C143 1.356 . S
H146 C140 0.930 . S
H147 C144 0.930 . S
O148 Li88 1.956 1_455 S
O148 Li89 1.970 . S
O148 Li90 1.961 . S
O148 C92 1.325 . S
O149 Li88 1.970 . S
O149 Li89 1.956 1_655 S
O149 Li91 1.961 1_655 S
O149 C98 1.325 . S
O150 Li88 1.961 1_455 S
O150 Li90 1.956 . S
O150 Li91 1.970 . S
O150 C120 1.325 . S
O151 Li89 1.961 . S
O151 Li90 1.970 . S
O151 Li91 1.956 . S
O151 C126 1.325 . S
H152 C94 0.929 . S
H153 C95 0.930 . S
H154 C96 0.930 . S
H155 C97 0.930 . S
H156 C99 0.930 . S
H157 C101 0.929 . S
H158 C102 0.930 . S
H159 C103 0.930 . S
H160 C106 0.930 . S
H161 C109 0.929 . S
H162 C114 0.929 . S
H163 C115 0.930 . S
H164 C122 0.929 . S
H165 C123 0.933 . S
H166 C124 0.930 . S
H167 C125 0.929 1_655 S
H168 C127 0.929 . S
H169 C128 0.930 . S
H170 C129 0.930 . S
H171 C130 0.930 . S
H172 C134 0.929 . S
H173 C136 0.930 . S
H174 C142 0.929 . S
H175 C143 0.930 . S
Li176 N193 1.990 . S
Li176 O236 1.956 . S
Li176 O237 1.970 . S
Li176 O238 1.961 . S
Li177 N201 1.990 . S
Li177 O236 1.970 . S
Li177 O237 1.956 . S
Li177 O239 1.961 . S
Li178 N223 1.990 . S
Li178 O236 1.961 . S
Li178 O238 1.956 . S
Li178 O239 1.970 . S
Li179 N229 1.990 . S
Li179 O237 1.961 . S
Li179 O238 1.970 . S
Li179 O239 1.956 . S
C180 C182 1.348 . S
C180 C183 1.356 . S
C180 O236 1.325 . S
N181 C184 1.314 . S
N181 C185 1.279 . S
C182 C180 1.348 . S
C182 C184 1.353 . S
C182 H240 0.929 . S
C183 C180 1.356 . S
C183 C185 1.358 . S
C183 H241 0.930 . S
C184 N181 1.314 . S
C184 C182 1.353 . S
C184 H242 0.930 . S
C185 N181 1.279 . S
C185 C183 1.358 . S
C185 H243 0.930 . S
C186 C189 1.348 . S
C186 C190 1.356 . S
C186 O237 1.325 . S
C187 N188 1.279 . S
C187 C190 1.358 . S
C187 H244 0.930 . S
N188 C187 1.279 . S
N188 C191 1.314 . S
C189 C186 1.348 . S
C189 C191 1.353 . S
C189 H245 0.929 . S
C190 C186 1.356 . S
C190 C187 1.358 . S
C190 H246 0.930 . S
C191 N188 1.314 . S
C191 C189 1.353 . S
C191 H247 0.930 . S
C192 N193 1.314 . S
C192 C197 1.353 . S
C192 H198 0.930 . S
N193 Li176 1.990 . S
N193 C192 1.314 . S
N193 C195 1.279 . S
C194 C195 1.358 . S
C194 C196 1.356 . S
C194 H248 0.930 . S
C195 N193 1.279 . S
C195 C194 1.358 . S
C195 H199 0.930 . S
C196 C194 1.356 . S
C196 C197 1.348 . S
C197 C192 1.353 . S
C197 C196 1.348 . S
C197 H249 0.929 . S
H198 C192 0.930 . S
H199 C195 0.930 . S
C200 N201 1.314 . S
C200 C202 1.353 . S
C200 H206 0.930 . S
N201 Li177 1.990 . S
N201 C200 1.314 . S
N201 C204 1.279 . S
C202 C200 1.353 . S
C202 C205 1.348 . S
C202 H250 0.929 . S
C203 C204 1.358 . S
C203 C205 1.356 . S
C203 H251 0.930 . S
C204 N201 1.279 . S
C204 C203 1.358 . S
C204 H207 0.930 . S
C205 C202 1.348 . S
C205 C203 1.356 . S
H206 C200 0.930 . S
H207 C204 0.930 . S
C208 C210 1.348 . S
C208 C211 1.356 . S
C208 O238 1.325 . S
N209 C212 1.314 . S
N209 C213 1.279 . S
C210 C208 1.348 . S
C210 C212 1.353 . S
C210 H252 0.929 . S
C211 C208 1.356 . S
C211 C213 1.358 . S
C211 H253 0.930 . S
C212 N209 1.314 . S
C212 C210 1.353 . S
C212 H254 0.930 . S
C213 N209 1.279 . S
C213 C211 1.358 . S
C213 H255 0.930 . S
C214 C215 1.348 . S
C214 C216 1.356 . S
C214 O239 1.325 . S
C215 C214 1.348 . S
C215 C217 1.353 . S
C215 H256 0.929 . S
C216 C214 1.356 . S
C216 C218 1.358 . S
C216 H257 0.930 . S
C217 C215 1.353 . S
C217 N219 1.314 . S
C217 H258 0.930 . S
C218 C216 1.358 . S
C218 N219 1.279 . S
C218 H259 0.930 . S
N219 C217 1.314 . S
N219 C218 1.279 . S
C220 C222 1.353 . S
C220 N223 1.314 . S
C220 H226 0.930 . S
C221 N223 1.279 . S
C221 C224 1.358 . S
C221 H227 0.930 . S
C222 C220 1.353 . S
C222 C225 1.348 . S
C222 H260 0.929 . S
N223 Li178 1.990 . S
N223 C220 1.314 . S
N223 C221 1.279 . S
C224 C221 1.358 . S
C224 C225 1.356 . S
C224 H261 0.930 . S
C225 C222 1.348 . S
C225 C224 1.356 . S
H226 C220 0.930 . S
H227 C221 0.930 . S
C228 N229 1.314 . S
C228 C230 1.353 . S
C228 H234 0.930 . S
N229 Li179 1.990 . S
N229 C228 1.314 . S
N229 C232 1.279 . S
C230 C228 1.353 . S
C230 C233 1.348 . S
C230 H262 0.929 . S
C231 C232 1.358 . S
C231 C233 1.356 . S
C231 H263 0.930 . S
C232 N229 1.279 . S
C232 C231 1.358 . S
C232 H235 0.930 . S
C233 C230 1.348 . S
C233 C231 1.356 . S
H234 C228 0.930 . S
H235 C232 0.930 . S
O236 Li176 1.956 . S
O236 Li177 1.970 . S
O236 Li178 1.961 . S
O236 C180 1.325 . S
O237 Li176 1.970 . S
O237 Li177 1.956 . S
O237 Li179 1.961 . S
O237 C186 1.325 . S
O238 Li176 1.961 . S
O238 Li178 1.956 . S
O238 Li179 1.970 . S
O238 C208 1.325 . S
O239 Li177 1.961 . S
O239 Li178 1.970 . S
O239 Li179 1.956 . S
O239 C214 1.325 . S
H240 C182 0.929 . S
H241 C183 0.930 . S
H242 C184 0.930 . S
H243 C185 0.930 . S
H244 C187 0.930 . S
H245 C189 0.929 . S
H246 C190 0.930 . S
H247 C191 0.930 . S
H248 C194 0.930 . S
H249 C197 0.929 . S
H250 C202 0.929 . S
H251 C203 0.930 . S
H252 C210 0.929 . S
H253 C211 0.930 . S
H254 C212 0.930 . S
H255 C213 0.930 . S
H256 C215 0.929 . S
H257 C216 0.930 . S
H258 C217 0.930 . S
H259 C218 0.930 . S
H260 C222 0.929 . S
H261 C224 0.930 . S
H262 C230 0.929 . S
H263 C231 0.930 . S
Li264 N281 1.990 . S
Li264 O324 1.956 . S
Li264 O325 1.970 . S
Li264 O326 1.961 . S
Li265 N289 1.990 . S
Li265 O324 1.970 . S
Li265 O325 1.956 . S
Li265 O327 1.961 . S
Li266 N311 1.990 . S
Li266 O324 1.961 . S
Li266 O326 1.956 . S
Li266 O327 1.970 . S
Li267 N317 1.990 . S
Li267 O325 1.961 . S
Li267 O326 1.970 . S
Li267 O327 1.956 . S
C268 C270 1.348 . S
C268 C271 1.356 . S
C268 O324 1.325 . S
N269 C272 1.314 . S
N269 C273 1.279 . S
C270 C268 1.348 . S
C270 C272 1.353 . S
C270 H328 0.929 . S
C271 C268 1.356 . S
C271 C273 1.358 . S
C271 H329 0.930 . S
C272 N269 1.314 . S
C272 C270 1.353 . S
C272 H330 0.930 . S
C273 N269 1.279 . S
C273 C271 1.358 . S
C273 H331 0.930 . S
C274 C277 1.348 . S
C274 C278 1.356 . S
C274 O325 1.325 . S
C275 N276 1.279 . S
C275 C278 1.358 . S
C275 H332 0.930 1_556 S
N276 C275 1.279 . S
N276 C279 1.314 . S
C277 C274 1.348 . S
C277 C279 1.353 . S
C277 H333 0.929 . S
C278 C274 1.356 . S
C278 C275 1.358 . S
C278 H334 0.930 . S
C279 N276 1.314 . S
C279 C277 1.353 . S
C279 H335 0.930 . S
C280 N281 1.314 . S
C280 C285 1.353 . S
C280 H286 0.930 . S
N281 Li264 1.990 . S
N281 C280 1.314 . S
N281 C283 1.279 . S
C282 C283 1.358 . S
C282 C284 1.356 . S
C282 H336 0.930 . S
C283 N281 1.279 . S
C283 C282 1.358 . S
C283 H287 0.930 . S
C284 C282 1.356 . S
C284 C285 1.348 . S
C285 C280 1.353 . S
C285 C284 1.348 . S
C285 H337 0.929 . S
H286 C280 0.930 . S
H287 C283 0.930 . S
C288 N289 1.314 . S
C288 C290 1.353 . S
C288 H294 0.930 . S
N289 Li265 1.990 . S
N289 C288 1.314 . S
N289 C292 1.279 . S
C290 C288 1.353 . S
C290 C293 1.348 . S
C290 H338 0.929 . S
C291 C292 1.358 . S
C291 C293 1.356 . S
C291 H339 0.930 . S
C292 N289 1.279 . S
C292 C291 1.358 . S
C292 H295 0.930 . S
C293 C290 1.348 . S
C293 C291 1.356 . S
H294 C288 0.930 . S
H295 C292 0.930 . S
C296 C298 1.348 . S
C296 C299 1.356 . S
C296 O326 1.325 . S
N297 C300 1.314 . S
N297 C301 1.279 . S
C298 C296 1.348 . S
C298 C300 1.353 . S
C298 H340 0.929 . S
C299 C296 1.356 . S
C299 C301 1.358 . S
C299 H341 0.930 . S
C300 N297 1.314 . S
C300 C298 1.353 . S
C300 H342 0.930 . S
C301 N297 1.279 . S
C301 C299 1.358 . S
C301 H343 0.930 . S
C302 C303 1.348 . S
C302 C304 1.356 . S
C302 O327 1.325 . S
C303 C302 1.348 . S
C303 C305 1.353 . S
C303 H344 0.929 . S
C304 C302 1.356 . S
C304 C306 1.358 . S
C304 H345 0.930 . S
C305 C303 1.353 . S
C305 N307 1.314 . S
C305 H346 0.930 . S
C306 C304 1.358 . S
C306 N307 1.279 . S
C306 H347 0.930 1_556 S
N307 C305 1.314 . S
N307 C306 1.279 . S
C308 C310 1.353 . S
C308 N311 1.314 . S
C308 H314 0.930 . S
C309 N311 1.279 . S
C309 C312 1.358 . S
C309 H315 0.930 . S
C310 C308 1.353 . S
C310 C313 1.348 . S
C310 H348 0.929 . S
N311 Li266 1.990 . S
N311 C308 1.314 . S
N311 C309 1.279 . S
C312 C309 1.358 . S
C312 C313 1.356 . S
C312 H349 0.930 . S
C313 C310 1.348 . S
C313 C312 1.356 . S
H314 C308 0.930 . S
H315 C309 0.930 . S
C316 N317 1.314 . S
C316 C318 1.353 . S
C316 H322 0.930 . S
N317 Li267 1.990 . S
N317 C316 1.314 . S
N317 C320 1.279 . S
C318 C316 1.353 . S
C318 C321 1.348 . S
C318 H350 0.929 . S
C319 C320 1.358 . S
C319 C321 1.356 . S
C319 H351 0.930 . S
C320 N317 1.279 . S
C320 C319 1.358 . S
C320 H323 0.930 . S
C321 C318 1.348 . S
C321 C319 1.356 . S
H322 C316 0.930 . S
H323 C320 0.930 . S
O324 Li264 1.956 . S
O324 Li265 1.970 . S
O324 Li266 1.961 . S
O324 C268 1.325 . S
O325 Li264 1.970 . S
O325 Li265 1.956 . S
O325 Li267 1.961 . S
O325 C274 1.325 . S
O326 Li264 1.961 . S
O326 Li266 1.956 . S
O326 Li267 1.970 . S
O326 C296 1.325 . S
O327 Li265 1.961 . S
O327 Li266 1.970 . S
O327 Li267 1.956 . S
O327 C302 1.325 . S
H328 C270 0.929 . S
H329 C271 0.930 . S
H330 C272 0.930 . S
H331 C273 0.930 . S
H332 C275 0.930 1_554 S
H333 C277 0.929 . S
H334 C278 0.930 . S
H335 C279 0.930 . S
H336 C282 0.930 . S
H337 C285 0.929 . S
H338 C290 0.929 . S
H339 C291 0.930 . S
H340 C298 0.929 . S
H341 C299 0.930 . S
H342 C300 0.930 . S
H343 C301 0.930 . S
H344 C303 0.929 . S
H345 C304 0.930 . S
H346 C305 0.930 . S
H347 C306 0.930 1_554 S
H348 C310 0.929 . S
H349 C312 0.930 . S
H350 C318 0.929 . S
H351 C319 0.930 . S
Li352 N369 1.990 . S
Li352 O412 1.956 . S
Li352 O413 1.970 . S
Li352 O414 1.961 1_545 S
Li353 N377 1.990 . S
Li353 O412 1.970 . S
Li353 O413 1.956 . S
Li353 O415 1.961 . S
Li354 N399 1.990 . S
Li354 O412 1.961 . S
Li354 O414 1.956 1_545 S
Li354 O415 1.970 . S
Li355 N405 1.990 . S
Li355 O413 1.961 1_565 S
Li355 O414 1.970 . S
Li355 O415 1.956 1_565 S
C356 C358 1.348 . S
C356 C359 1.356 . S
C356 O412 1.325 . S
N357 C360 1.314 . S
N357 C361 1.279 . S
C358 C356 1.348 . S
C358 C360 1.353 . S
C358 H416 0.929 . S
C359 C356 1.356 . S
C359 C361 1.358 . S
C359 H417 0.930 . S
C360 N357 1.314 . S
C360 C358 1.353 . S
C360 H418 0.930 . S
C361 N357 1.279 . S
C361 C359 1.358 . S
C361 H419 0.930 . S
C362 C365 1.348 . S
C362 C366 1.356 1_545 S
C362 O413 1.325 . S
C363 N364 1.279 1_565 S
C363 C366 1.358 . S
C363 H420 0.930 . S
N364 C363 1.279 1_545 S
N364 C367 1.314 . S
C365 C362 1.348 . S
C365 C367 1.353 . S
C365 H421 0.929 . S
C366 C362 1.356 1_565 S
C366 C363 1.358 . S
C366 H422 0.930 . S
C367 N364 1.314 . S
C367 C365 1.353 . S
C367 H423 0.930 . S
C368 N369 1.314 1_565 S
C368 C373 1.353 . S
C368 H374 0.930 . S
N369 Li352 1.990 . S
N369 C368 1.314 1_545 S
N369 C371 1.279 . S
C370 C371 1.358 . S
C370 C372 1.356 . S
C370 H424 0.930 . S
C371 N369 1.279 . S
C371 C370 1.358 . S
C371 H375 0.930 . S
C372 C370 1.356 . S
C372 C373 1.348 1_545 S
C373 C368 1.353 . S
C373 C372 1.348 1_565 S
C373 H425 0.929 . S
H374 C368 0.930 . S
H375 C371 0.930 . S
C376 N377 1.314 . S
C376 C378 1.353 . S
C376 H382 0.930 . S
N377 Li353 1.990 . S
N377 C376 1.314 . S
N377 C380 1.279 . S
C378 C376 1.353 . S
C378 C381 1.348 . S
C378 H426 0.929 . S
C379 C380 1.358 . S
C379 C381 1.356 . S
C379 H427 0.930 . S
C380 N377 1.279 . S
C380 C379 1.358 . S
C380 H383 0.930 . S
C381 C378 1.348 . S
C381 C379 1.356 . S
H382 C376 0.930 . S
H383 C380 0.930 . S
C384 C386 1.348 . S
C384 C387 1.356 . S
C384 O414 1.325 . S
N385 C388 1.314 . S
N385 C389 1.279 . S
C386 C384 1.348 . S
C386 C388 1.353 . S
C386 H428 0.929 . S
C387 C384 1.356 . S
C387 C389 1.358 . S
C387 H429 0.930 . S
C388 N385 1.314 . S
C388 C386 1.353 . S
C388 H430 0.930 . S
C389 N385 1.279 . S
C389 C387 1.358 . S
C389 H431 0.930 . S
C390 C391 1.348 1_545 S
C390 C392 1.356 . S
C390 O415 1.325 . S
C391 C390 1.348 1_565 S
C391 C393 1.353 . S
C391 H432 0.929 . S
C392 C390 1.356 . S
C392 C394 1.358 . S
C392 H433 0.930 . S
C393 C391 1.353 . S
C393 N395 1.314 . S
C393 H434 0.930 . S
C394 C392 1.358 . S
C394 N395 1.280 1_545 S
C394 H435 0.930 . S
N395 C393 1.314 . S
N395 C394 1.280 1_565 S
C396 C398 1.353 . S
C396 N399 1.325 . S
C396 H402 0.930 . S
C397 N399 1.269 1_565 S
C397 C400 1.358 . S
C397 H403 0.930 . S
C398 C396 1.353 . S
C398 C401 1.348 . S
C398 H436 0.929 . S
N399 Li354 1.990 . S
N399 C396 1.325 . S
N399 C397 1.269 1_545 S
C400 C397 1.358 . S
C400 C401 1.356 1_565 S
C400 H437 0.930 . S
C401 C398 1.348 . S
C401 C400 1.356 1_545 S
H402 C396 0.930 . S
H403 C397 0.930 . S
C404 N405 1.314 . S
C404 C406 1.353 . S
C404 H410 0.930 . S
N405 Li355 1.990 . S
N405 C404 1.314 . S
N405 C408 1.279 . S
C406 C404 1.353 . S
C406 C409 1.348 . S
C406 H438 0.929 . S
C407 C408 1.358 . S
C407 C409 1.356 . S
C407 H439 0.930 . S
C408 N405 1.279 . S
C408 C407 1.358 . S
C408 H411 0.930 . S
C409 C406 1.348 . S
C409 C407 1.356 . S
H410 C404 0.930 . S
H411 C408 0.930 . S
O412 Li352 1.956 . S
O412 Li353 1.970 . S
O412 Li354 1.961 . S
O412 C356 1.325 . S
O413 Li352 1.970 . S
O413 Li353 1.956 . S
O413 Li355 1.961 1_545 S
O413 C362 1.325 . S
O414 Li352 1.961 1_565 S
O414 Li354 1.956 1_565 S
O414 Li355 1.970 . S
O414 C384 1.325 . S
O415 Li353 1.961 . S
O415 Li354 1.970 . S
O415 Li355 1.956 1_545 S
O415 C390 1.325 . S
H416 C358 0.929 . S
H417 C359 0.930 . S
H418 C360 0.930 . S
H419 C361 0.930 . S
H420 C363 0.930 . S
H421 C365 0.929 . S
H422 C366 0.930 . S
H423 C367 0.930 . S
H424 C370 0.930 . S
H425 C373 0.929 . S
H426 C378 0.929 . S
H427 C379 0.930 . S
H428 C386 0.929 . S
H429 C387 0.930 . S
H430 C388 0.930 . S
H431 C389 0.930 . S
H432 C391 0.929 . S
H433 C392 0.930 . S
H434 C393 0.930 . S
H435 C394 0.930 . S
H436 C398 0.929 . S
H437 C400 0.930 . S
H438 C406 0.929 . S
H439 C407 0.930 . S
Li440 N457 1.990 . S
Li440 O500 1.956 . S
Li440 O501 1.970 . S
Li440 O502 1.961 . S
Li441 N465 1.990 . S
Li441 O500 1.970 . S
Li441 O501 1.956 . S
Li441 O503 1.961 . S
Li442 N487 1.990 . S
Li442 O500 1.961 . S
Li442 O502 1.956 . S
Li442 O503 1.970 . S
Li443 N493 1.990 . S
Li443 O501 1.961 . S
Li443 O502 1.970 . S
Li443 O503 1.956 . S
C444 C446 1.348 . S
C444 C447 1.356 . S
C444 O500 1.325 . S
N445 C448 1.314 . S
N445 C449 1.279 . S
C446 C444 1.348 . S
C446 C448 1.353 . S
C446 H504 0.929 . S
C447 C444 1.356 . S
C447 C449 1.358 . S
C447 H505 0.930 . S
C448 N445 1.314 . S
C448 C446 1.353 . S
C448 H506 0.930 . S
C449 N445 1.279 . S
C449 C447 1.358 . S
C449 H507 0.930 1_565 S
C450 C453 1.348 . S
C450 C454 1.356 . S
C450 O501 1.325 . S
C451 N452 1.279 . S
C451 C454 1.358 . S
C451 H508 0.930 . S
N452 C451 1.279 . S
N452 C455 1.314 . S
C453 C450 1.348 . S
C453 C455 1.353 . S
C453 H509 0.929 . S
C454 C450 1.356 . S
C454 C451 1.358 . S
C454 H510 0.930 . S
C455 N452 1.314 . S
C455 C453 1.353 . S
C455 H511 0.930 . S
C456 N457 1.314 . S
C456 C461 1.353 . S
C456 H462 0.930 . S
N457 Li440 1.990 . S
N457 C456 1.314 . S
N457 C459 1.279 . S
C458 C459 1.358 . S
C458 C460 1.356 . S
C458 H512 0.930 . S
C459 N457 1.279 . S
C459 C458 1.358 . S
C459 H463 0.930 . S
C460 C458 1.356 . S
C460 C461 1.348 . S
C461 C456 1.353 . S
C461 C460 1.348 . S
C461 H513 0.929 . S
H462 C456 0.930 . S
H463 C459 0.930 . S
C464 N465 1.314 . S
C464 C466 1.353 . S
C464 H470 0.930 . S
N465 Li441 1.990 . S
N465 C464 1.314 . S
N465 C468 1.279 . S
C466 C464 1.353 . S
C466 C469 1.348 . S
C466 H514 0.929 . S
C467 C468 1.358 . S
C467 C469 1.356 . S
C467 H515 0.930 . S
C468 N465 1.279 . S
C468 C467 1.358 . S
C468 H471 0.930 . S
C469 C466 1.348 . S
C469 C467 1.356 . S
H470 C464 0.930 . S
H471 C468 0.930 . S
C472 C474 1.348 . S
C472 C475 1.356 . S
C472 O502 1.325 . S
N473 C476 1.314 . S
N473 C477 1.279 . S
C474 C472 1.348 . S
C474 C476 1.353 . S
C474 H516 0.929 . S
C475 C472 1.356 . S
C475 C477 1.358 . S
C475 H517 0.930 . S
C476 N473 1.314 . S
C476 C474 1.353 . S
C476 H518 0.930 . S
C477 N473 1.279 . S
C477 C475 1.358 . S
C477 H519 0.930 1_565 S
C478 C479 1.348 . S
C478 C480 1.356 . S
C478 O503 1.325 . S
C479 C478 1.348 . S
C479 C481 1.353 . S
C479 H520 0.929 . S
C480 C478 1.356 . S
C480 C482 1.358 . S
C480 H521 0.930 . S
C481 C479 1.353 . S
C481 N483 1.314 . S
C481 H522 0.930 . S
C482 C480 1.358 . S
C482 N483 1.279 . S
C482 H523 0.930 . S
N483 C481 1.314 . S
N483 C482 1.279 . S
C484 C486 1.353 . S
C484 N487 1.314 . S
C484 H490 0.930 . S
C485 N487 1.279 . S
C485 C488 1.358 . S
C485 H491 0.930 . S
C486 C484 1.353 . S
C486 C489 1.348 . S
C486 H524 0.929 . S
N487 Li442 1.990 . S
N487 C484 1.314 . S
N487 C485 1.279 . S
C488 C485 1.358 . S
C488 C489 1.356 . S
C488 H525 0.930 . S
C489 C486 1.348 . S
C489 C488 1.356 . S
H490 C484 0.930 . S
H491 C485 0.930 . S
C492 N493 1.314 . S
C492 C494 1.353 . S
C492 H498 0.930 . S
N493 Li443 1.990 . S
N493 C492 1.314 . S
N493 C496 1.279 . S
C494 C492 1.353 . S
C494 C497 1.348 . S
C494 H526 0.929 . S
C495 C496 1.358 . S
C495 C497 1.356 . S
C495 H527 0.930 . S
C496 N493 1.279 . S
C496 C495 1.358 . S
C496 H499 0.930 . S
C497 C494 1.348 . S
C497 C495 1.356 . S
H498 C492 0.930 . S
H499 C496 0.930 . S
O500 Li440 1.956 . S
O500 Li441 1.970 . S
O500 Li442 1.961 . S
O500 C444 1.325 . S
O501 Li440 1.970 . S
O501 Li441 1.956 . S
O501 Li443 1.961 . S
O501 C450 1.325 . S
O502 Li440 1.961 . S
O502 Li442 1.956 . S
O502 Li443 1.970 . S
O502 C472 1.325 . S
O503 Li441 1.961 . S
O503 Li442 1.970 . S
O503 Li443 1.956 . S
O503 C478 1.325 . S
H504 C446 0.929 . S
H505 C447 0.930 . S
H506 C448 0.930 . S
H507 C449 0.930 1_545 S
H508 C451 0.930 . S
H509 C453 0.929 . S
H510 C454 0.930 . S
H511 C455 0.930 . S
H512 C458 0.930 . S
H513 C461 0.929 . S
H514 C466 0.929 . S
H515 C467 0.930 . S
H516 C474 0.929 . S
H517 C475 0.930 . S
H518 C476 0.930 . S
H519 C477 0.930 1_545 S
H520 C479 0.929 . S
H521 C480 0.930 . S
H522 C481 0.930 . S
H523 C482 0.930 . S
H524 C486 0.929 . S
H525 C488 0.930 . S
H526 C494 0.929 . S
H527 C495 0.930 . S
Li528 N545 1.990 . S
Li528 O588 1.956 1_565 S
Li528 O589 1.970 . S
Li528 O590 1.961 1_565 S
Li529 N553 1.990 . S
Li529 O588 1.970 . S
Li529 O589 1.956 1_545 S
Li529 O591 1.961 . S
Li530 N575 1.990 . S
Li530 O588 1.961 . S
Li530 O590 1.956 . S
Li530 O591 1.970 . S
Li531 N581 1.990 . S
Li531 O589 1.961 1_545 S
Li531 O590 1.970 . S
Li531 O591 1.956 . S
C532 C534 1.348 1_545 S
C532 C535 1.356 . S
C532 O588 1.325 . S
N533 C536 1.314 1_545 S
N533 C537 1.279 . S
C534 C532 1.348 1_565 S
C534 C536 1.353 . S
C534 H592 0.929 . S
C535 C532 1.356 . S
C535 C537 1.358 . S
C535 H593 0.930 . S
C536 N533 1.314 1_565 S
C536 C534 1.353 . S
C536 H594 0.930 . S
C537 N533 1.279 . S
C537 C535 1.358 . S
C537 H595 0.930 . S
C538 C541 1.348 . S
C538 C542 1.356 . S
C538 O589 1.325 . S
C539 N540 1.279 . S
C539 C542 1.358 . S
C539 H596 0.930 . S
N540 C539 1.279 . S
N540 C543 1.314 . S
C541 C538 1.348 . S
C541 C543 1.353 . S
C541 H597 0.929 . S
C542 C538 1.356 . S
C542 C539 1.358 . S
C542 H598 0.930 . S
C543 N540 1.314 . S
C543 C541 1.353 . S
C543 H599 0.930 . S
C544 N545 1.314 . S
C544 C549 1.353 . S
C544 H550 0.930 . S
N545 Li528 1.990 . S
N545 C544 1.314 . S
N545 C547 1.279 . S
C546 C547 1.358 . S
C546 C548 1.356 . S
C546 H600 0.930 . S
C547 N545 1.279 . S
C547 C546 1.358 . S
C547 H551 0.930 . S
C548 C546 1.356 . S
C548 C549 1.348 . S
C549 C544 1.353 . S
C549 C548 1.348 . S
C549 H601 0.929 . S
H550 C544 0.930 . S
H551 C547 0.930 . S
C552 N553 1.314 . S
C552 C554 1.353 . S
C552 H558 0.930 . S
N553 Li529 1.990 . S
N553 C552 1.314 . S
N553 C556 1.279 1_545 S
C554 C552 1.353 . S
C554 C557 1.348 . S
C554 H602 0.929 . S
C555 C556 1.358 . S
C555 C557 1.356 1_565 S
C555 H603 0.930 . S
C556 N553 1.279 1_565 S
C556 C555 1.358 . S
C556 H559 0.930 . S
C557 C554 1.348 . S
C557 C555 1.356 1_545 S
H558 C552 0.930 . S
H559 C556 0.930 . S
C560 C562 1.348 . S
C560 C563 1.356 1_545 S
C560 O590 1.325 . S
N561 C564 1.314 . S
N561 C565 1.277 1_545 S
C562 C560 1.348 . S
C562 C564 1.353 . S
C562 H604 0.929 . S
C563 C560 1.356 1_565 S
C563 C565 1.359 . S
C563 H605 0.930 . S
C564 N561 1.314 . S
C564 C562 1.353 . S
C564 H606 0.930 . S
C565 N561 1.277 1_565 S
C565 C563 1.359 . S
C565 H607 0.932 . S
C566 C567 1.348 . S
C566 C568 1.356 . S
C566 O591 1.325 . S
C567 C566 1.348 . S
C567 C569 1.353 . S
C567 H608 0.929 . S
C568 C566 1.356 . S
C568 C570 1.358 . S
C568 H609 0.930 . S
C569 C567 1.353 . S
C569 N571 1.314 . S
C569 H610 0.930 . S
C570 C568 1.358 . S
C570 N571 1.279 . S
C570 H611 0.930 . S
N571 C569 1.314 . S
N571 C570 1.279 . S
C572 C574 1.353 . S
C572 N575 1.314 . S
C572 H578 0.930 . S
C573 N575 1.279 . S
C573 C576 1.358 . S
C573 H579 0.930 . S
C574 C572 1.353 . S
C574 C577 1.348 . S
C574 H612 0.929 . S
N575 Li530 1.990 . S
N575 C572 1.314 . S
N575 C573 1.279 . S
C576 C573 1.358 . S
C576 C577 1.356 . S
C576 H613 0.930 . S
C577 C574 1.348 . S
C577 C576 1.356 . S
H578 C572 0.930 . S
H579 C573 0.930 . S
C580 N581 1.314 1_565 S
C580 C582 1.353 . S
C580 H586 0.930 . S
N581 Li531 1.990 . S
N581 C580 1.314 1_545 S
N581 C584 1.279 . S
C582 C580 1.353 . S
C582 C585 1.348 1_565 S
C582 H614 0.929 . S
C583 C584 1.358 . S
C583 C585 1.356 . S
C583 H615 0.930 . S
C584 N581 1.279 . S
C584 C583 1.358 . S
C584 H587 0.930 . S
C585 C582 1.348 1_545 S
C585 C583 1.356 . S
H586 C580 0.930 . S
H587 C584 0.930 . S
O588 Li528 1.956 1_545 S
O588 Li529 1.970 . S
O588 Li530 1.961 . S
O588 C532 1.325 . S
O589 Li528 1.970 . S
O589 Li529 1.956 1_565 S
O589 Li531 1.961 1_565 S
O589 C538 1.325 . S
O590 Li528 1.961 1_545 S
O590 Li530 1.956 . S
O590 Li531 1.970 . S
O590 C560 1.325 . S
O591 Li529 1.961 . S
O591 Li530 1.970 . S
O591 Li531 1.956 . S
O591 C566 1.325 . S
H592 C534 0.929 . S
H593 C535 0.930 . S
H594 C536 0.930 . S
H595 C537 0.930 . S
H596 C539 0.930 . S
H597 C541 0.929 . S
H598 C542 0.930 . S
H599 C543 0.930 . S
H600 C546 0.930 . S
H601 C549 0.929 . S
H602 C554 0.929 . S
H603 C555 0.930 . S
H604 C562 0.929 . S
H605 C563 0.930 . S
H606 C564 0.930 . S
H607 C565 0.932 . S
H608 C567 0.929 . S
H609 C568 0.930 . S
H610 C569 0.930 . S
H611 C570 0.930 . S
H612 C574 0.929 . S
H613 C576 0.930 . S
H614 C582 0.929 . S
H615 C583 0.930 . S
Li616 N633 1.990 . S
Li616 O676 1.956 . S
Li616 O677 1.970 . S
Li616 O678 1.961 . S
Li617 N641 1.990 . S
Li617 O676 1.970 . S
Li617 O677 1.956 . S
Li617 O679 1.961 1_554 S
Li618 N663 1.990 . S
Li618 O676 1.961 1_556 S
Li618 O678 1.956 1_556 S
Li618 O679 1.970 . S
Li619 N669 1.990 . S
Li619 O677 1.961 . S
Li619 O678 1.970 . S
Li619 O679 1.956 1_554 S
C620 C622 1.348 . S
C620 C623 1.352 1_554 S
C620 O676 1.325 . S
N621 C624 1.314 . S
N621 C625 1.281 . S
C622 C620 1.348 . S
C622 C624 1.353 . S
C622 H680 0.929 . S
C623 C620 1.352 1_556 S
C623 C625 1.358 1_556 S
C623 H681 0.935 . S
C624 N621 1.314 . S
C624 C622 1.353 . S
C624 H682 0.930 . S
C625 N621 1.281 . S
C625 C623 1.358 1_554 S
C625 H683 0.928 1_554 S
C626 C629 1.348 . S
C626 C630 1.356 . S
C626 O677 1.325 . S
C627 N628 1.279 . S
C627 C630 1.358 . S
C627 H684 0.930 . S
N628 C627 1.279 . S
N628 C631 1.314 . S
C629 C626 1.348 . S
C629 C631 1.353 . S
C629 H685 0.929 . S
C630 C626 1.356 . S
C630 C627 1.358 . S
C630 H686 0.930 . S
C631 N628 1.314 . S
C631 C629 1.353 . S
C631 H687 0.930 . S
C632 N633 1.314 . S
C632 C637 1.353 . S
C632 H638 0.930 . S
N633 Li616 1.990 . S
N633 C632 1.314 . S
N633 C635 1.279 . S
C634 C635 1.358 . S
C634 C636 1.356 . S
C634 H688 0.930 . S
C635 N633 1.279 . S
C635 C634 1.358 . S
C635 H639 0.930 . S
C636 C634 1.356 . S
C636 C637 1.348 . S
C637 C632 1.353 . S
C637 C636 1.348 . S
C637 H689 0.929 . S
H638 C632 0.930 . S
H639 C635 0.930 . S
C640 N641 1.314 1_556 S
C640 C642 1.353 . S
C640 H646 0.930 . S
N641 Li617 1.990 . S
N641 C640 1.314 1_554 S
N641 C644 1.279 . S
C642 C640 1.353 . S
C642 C645 1.348 1_556 S
C642 H690 0.929 . S
C643 C644 1.358 . S
C643 C645 1.356 . S
C643 H691 0.930 . S
C644 N641 1.279 . S
C644 C643 1.358 . S
C644 H647 0.930 . S
C645 C642 1.348 1_554 S
C645 C643 1.356 . S
H646 C640 0.930 . S
H647 C644 0.930 . S
C648 C650 1.348 1_554 S
C648 C651 1.356 . S
C648 O678 1.325 . S
N649 C652 1.314 1_554 S
N649 C653 1.279 . S
C650 C648 1.348 1_556 S
C650 C652 1.353 . S
C650 H692 0.929 . S
C651 C648 1.356 . S
C651 C653 1.358 . S
C651 H693 0.930 . S
C652 N649 1.314 1_556 S
C652 C650 1.353 . S
C652 H694 0.930 . S
C653 N649 1.279 . S
C653 C651 1.358 . S
C653 H695 0.930 . S
C654 C655 1.348 . S
C654 C656 1.356 . S
C654 O679 1.325 . S
C655 C654 1.348 . S
C655 C657 1.353 . S
C655 H696 0.929 . S
C656 C654 1.356 . S
C656 C658 1.358 . S
C656 H697 0.930 . S
C657 C655 1.353 . S
C657 N659 1.314 . S
C657 H698 0.930 . S
C658 C656 1.358 . S
C658 N659 1.279 . S
C658 H699 0.947 . S
N659 C657 1.314 . S
N659 C658 1.279 . S
C660 C662 1.353 . S
C660 N663 1.314 . S
C660 H666 0.930 . S
C661 N663 1.279 . S
C661 C664 1.358 . S
C661 H667 0.930 . S
C662 C660 1.353 . S
C662 C665 1.348 . S
C662 H700 0.929 . S
N663 Li618 1.990 . S
N663 C660 1.314 . S
N663 C661 1.279 . S
C664 C661 1.358 . S
C664 C665 1.356 . S
C664 H701 0.930 . S
C665 C662 1.348 . S
C665 C664 1.356 . S
H666 C660 0.930 . S
H667 C661 0.930 . S
C668 N669 1.314 . S
C668 C670 1.353 . S
C668 H674 0.930 . S
N669 Li619 1.990 . S
N669 C668 1.314 . S
N669 C672 1.279 1_554 S
C670 C668 1.353 . S
C670 C673 1.348 . S
C670 H702 0.929 . S
C671 C672 1.358 . S
C671 C673 1.356 1_556 S
C671 H703 0.930 . S
C672 N669 1.279 1_556 S
C672 C671 1.358 . S
C672 H675 0.930 . S
C673 C670 1.348 . S
C673 C671 1.356 1_554 S
H674 C668 0.930 . S
H675 C672 0.930 . S
O676 Li616 1.956 . S
O676 Li617 1.970 . S
O676 Li618 1.961 1_554 S
O676 C620 1.325 . S
O677 Li616 1.970 . S
O677 Li617 1.956 . S
O677 Li619 1.961 . S
O677 C626 1.325 . S
O678 Li616 1.961 . S
O678 Li618 1.956 1_554 S
O678 Li619 1.970 . S
O678 C648 1.325 . S
O679 Li617 1.961 1_556 S
O679 Li618 1.970 . S
O679 Li619 1.956 1_556 S
O679 C654 1.325 . S
H680 C622 0.929 . S
H681 C623 0.935 . S
H682 C624 0.930 . S
H683 C625 0.928 1_556 S
H684 C627 0.930 . S
H685 C629 0.929 . S
H686 C630 0.930 . S
H687 C631 0.930 . S
H688 C634 0.930 . S
H689 C637 0.929 . S
H690 C642 0.929 . S
H691 C643 0.930 . S
H692 C650 0.929 . S
H693 C651 0.930 . S
H694 C652 0.930 . S
H695 C653 0.930 . S
H696 C655 0.929 . S
H697 C656 0.930 . S
H698 C657 0.930 . S
H699 C658 0.947 . S
H700 C662 0.929 . S
H701 C664 0.930 . S
H702 C670 0.929 . S
H703 C671 0.930 . S
Li704 N721 1.990 . S
Li704 O764 1.956 . S
Li704 O765 1.970 . S
Li704 O766 1.961 1_554 S
Li705 N729 1.990 . S
Li705 O764 1.970 . S
Li705 O765 1.956 . S
Li705 O767 1.961 . S
Li706 N751 1.990 . S
Li706 O764 1.961 . S
Li706 O766 1.956 1_554 S
Li706 O767 1.970 . S
Li707 N757 1.990 . S
Li707 O765 1.961 1_556 S
Li707 O766 1.970 . S
Li707 O767 1.956 1_556 S
C708 C710 1.348 . S
C708 C711 1.356 . S
C708 O764 1.325 . S
N709 C712 1.314 . S
N709 C713 1.279 . S
C710 C708 1.348 . S
C710 C712 1.353 . S
C710 H768 0.929 . S
C711 C708 1.356 . S
C711 C713 1.358 . S
C711 H769 0.930 . S
C712 N709 1.314 . S
C712 C710 1.353 . S
C712 H770 0.930 . S
C713 N709 1.279 . S
C713 C711 1.358 . S
C713 H771 0.930 . S
C714 C717 1.348 . S
C714 C718 1.356 1_554 S
C714 O765 1.325 . S
C715 N716 1.273 1_556 S
C715 C718 1.360 . S
C715 H772 0.937 . S
N716 C715 1.273 1_554 S
N716 C719 1.314 . S
C717 C714 1.348 . S
C717 C719 1.353 . S
C717 H773 0.929 . S
C718 C714 1.356 1_556 S
C718 C715 1.360 . S
C718 H774 0.930 . S
C719 N716 1.314 . S
C719 C717 1.353 . S
C719 H775 0.930 . S
C720 N721 1.314 1_556 S
C720 C725 1.353 . S
C720 H726 0.930 . S
N721 Li704 1.990 . S
N721 C720 1.314 1_554 S
N721 C723 1.279 . S
C722 C723 1.358 . S
C722 C724 1.356 . S
C722 H776 0.930 . S
C723 N721 1.279 . S
C723 C722 1.358 . S
C723 H727 0.930 . S
C724 C722 1.356 . S
C724 C725 1.348 1_554 S
C725 C720 1.353 . S
C725 C724 1.348 1_556 S
C725 H777 0.929 . S
H726 C720 0.930 . S
H727 C723 0.930 . S
C728 N729 1.314 . S
C728 C730 1.353 . S
C728 H734 0.930 . S
N729 Li705 1.990 . S
N729 C728 1.314 . S
N729 C732 1.279 . S
C730 C728 1.353 . S
C730 C733 1.348 . S
C730 H778 0.929 . S
C731 C732 1.358 . S
C731 C733 1.356 . S
C731 H779 0.930 . S
C732 N729 1.279 . S
C732 C731 1.358 . S
C732 H735 0.930 . S
C733 C730 1.348 . S
C733 C731 1.356 . S
H734 C728 0.930 . S
H735 C732 0.930 . S
C736 C738 1.348 . S
C736 C739 1.356 . S
C736 O766 1.325 . S
N737 C740 1.314 . S
N737 C741 1.279 . S
C738 C736 1.348 . S
C738 C740 1.353 . S
C738 H780 0.929 . S
C739 C736 1.356 . S
C739 C741 1.358 . S
C739 H781 0.930 . S
C740 N737 1.314 . S
C740 C738 1.353 . S
C740 H782 0.930 . S
C741 N737 1.279 . S
C741 C739 1.358 . S
C741 H783 0.930 . S
C742 C743 1.348 1_554 S
C742 C744 1.356 . S
C742 O767 1.325 . S
C743 C742 1.348 1_556 S
C743 C745 1.353 . S
C743 H784 0.929 . S
C744 C742 1.356 . S
C744 C746 1.358 . S
C744 H785 0.930 . S
C745 C743 1.353 . S
C745 N747 1.314 1_556 S
C745 H786 0.930 . S
C746 C744 1.358 . S
C746 N747 1.279 . S
C746 H787 0.930 . S
N747 C745 1.314 1_554 S
N747 C746 1.279 . S
C748 C750 1.353 . S
C748 N751 1.314 . S
C748 H754 0.930 . S
C749 N751 1.279 1_556 S
C749 C752 1.358 . S
C749 H755 0.930 . S
C750 C748 1.353 . S
C750 C753 1.348 . S
C750 H788 0.929 . S
N751 Li706 1.990 . S
N751 C748 1.314 . S
N751 C749 1.279 1_554 S
C752 C749 1.358 . S
C752 C753 1.356 1_556 S
C752 H789 0.930 . S
C753 C750 1.348 . S
C753 C752 1.356 1_554 S
H754 C748 0.930 . S
H755 C749 0.930 . S
C756 N757 1.314 . S
C756 C758 1.353 . S
C756 H762 0.930 . S
N757 Li707 1.990 . S
N757 C756 1.314 . S
N757 C760 1.279 . S
C758 C756 1.353 . S
C758 C761 1.348 . S
C758 H790 0.929 . S
C759 C760 1.358 . S
C759 C761 1.356 . S
C759 H791 0.930 . S
C760 N757 1.279 . S
C760 C759 1.358 . S
C760 H763 0.930 . S
C761 C758 1.348 . S
C761 C759 1.356 . S
H762 C756 0.930 . S
H763 C760 0.930 . S
O764 Li704 1.956 . S
O764 Li705 1.970 . S
O764 Li706 1.961 . S
O764 C708 1.325 . S
O765 Li704 1.970 . S
O765 Li705 1.956 . S
O765 Li707 1.961 1_554 S
O765 C714 1.325 . S
O766 Li704 1.961 1_556 S
O766 Li706 1.956 1_556 S
O766 Li707 1.970 . S
O766 C736 1.325 . S
O767 Li705 1.961 . S
O767 Li706 1.970 . S
O767 Li707 1.956 1_554 S
O767 C742 1.325 . S
H768 C710 0.929 . S
H769 C711 0.930 . S
H770 C712 0.930 . S
H771 C713 0.930 . S
H772 C715 0.937 . S
H773 C717 0.929 . S
H774 C718 0.930 . S
H775 C719 0.930 . S
H776 C722 0.930 . S
H777 C725 0.929 . S
H778 C730 0.929 . S
H779 C731 0.930 . S
H780 C738 0.929 . S
H781 C739 0.930 . S
H782 C740 0.930 . S
H783 C741 0.930 . S
H784 C743 0.929 . S
H785 C744 0.930 . S
H786 C745 0.930 . S
H787 C746 0.930 . S
H788 C750 0.929 . S
H789 C752 0.930 . S
H790 C758 0.929 . S
H791 C759 0.930 . S
Li792 N809 1.990 . S
Li792 O852 1.956 . S
Li792 O853 1.970 . S
Li792 O854 1.961 . S
Li793 N817 1.990 . S
Li793 O852 1.970 . S
Li793 O853 1.956 . S
Li793 O855 1.961 . S
Li794 N839 1.990 . S
Li794 O852 1.961 . S
Li794 O854 1.956 . S
Li794 O855 1.970 . S
Li795 N845 1.990 . S
Li795 O853 1.961 . S
Li795 O854 1.970 . S
Li795 O855 1.956 . S
C796 C798 1.348 . S
C796 C799 1.356 . S
C796 O852 1.325 . S
N797 C800 1.314 . S
N797 C801 1.279 . S
C798 C796 1.348 . S
C798 C800 1.353 . S
C798 H856 0.929 . S
C799 C796 1.356 . S
C799 C801 1.358 . S
C799 H857 0.930 . S
C800 N797 1.314 . S
C800 C798 1.353 . S
C800 H858 0.930 . S
C801 N797 1.279 . S
C801 C799 1.358 . S
C801 H859 0.930 1_655 S
C802 C805 1.348 . S
C802 C806 1.356 . S
C802 O853 1.325 . S
C803 N804 1.279 . S
C803 C806 1.358 . S
C803 H860 0.930 . S
N804 C803 1.279 . S
N804 C807 1.314 . S
C805 C802 1.348 . S
C805 C807 1.353 . S
C805 H861 0.929 . S
C806 C802 1.356 . S
C806 C803 1.358 . S
C806 H862 0.930 . S
C807 N804 1.314 . S
C807 C805 1.353 . S
C807 H863 0.930 . S
C808 N809 1.314 . S
C808 C813 1.353 . S
C808 H814 0.930 . S
N809 Li792 1.990 . S
N809 C808 1.314 . S
N809 C811 1.279 . S
C810 C811 1.358 . S
C810 C812 1.356 . S
C810 H864 0.930 . S
C811 N809 1.279 . S
C811 C810 1.358 . S
C811 H815 0.930 . S
C812 C810 1.356 . S
C812 C813 1.348 . S
C813 C808 1.353 . S
C813 C812 1.348 . S
C813 H865 0.929 . S
H814 C808 0.930 . S
H815 C811 0.930 . S
C816 N817 1.314 . S
C816 C818 1.353 . S
C816 H822 0.930 . S
N817 Li793 1.990 . S
N817 C816 1.314 . S
N817 C820 1.279 . S
C818 C816 1.353 . S
C818 C821 1.348 . S
C818 H866 0.929 . S
C819 C820 1.358 . S
C819 C821 1.356 . S
C819 H867 0.930 . S
C820 N817 1.279 . S
C820 C819 1.358 . S
C820 H823 0.930 . S
C821 C818 1.348 . S
C821 C819 1.356 . S
H822 C816 0.930 . S
H823 C820 0.930 . S
C824 C826 1.348 . S
C824 C827 1.356 . S
C824 O854 1.325 . S
N825 C828 1.314 . S
N825 C829 1.279 . S
C826 C824 1.348 . S
C826 C828 1.353 . S
C826 H868 0.929 . S
C827 C824 1.356 . S
C827 C829 1.358 . S
C827 H869 0.930 . S
C828 N825 1.314 . S
C828 C826 1.353 . S
C828 H870 0.930 . S
C829 N825 1.279 . S
C829 C827 1.358 . S
C829 H871 0.930 1_655 S
C830 C831 1.348 . S
C830 C832 1.356 . S
C830 O855 1.325 . S
C831 C830 1.348 . S
C831 C833 1.353 . S
C831 H872 0.929 . S
C832 C830 1.356 . S
C832 C834 1.358 . S
C832 H873 0.930 . S
C833 C831 1.353 . S
C833 N835 1.314 . S
C833 H874 0.930 . S
C834 C832 1.358 . S
C834 N835 1.279 . S
C834 H875 0.930 . S
N835 C833 1.314 . S
N835 C834 1.279 . S
C836 C838 1.353 . S
C836 N839 1.314 . S
C836 H842 0.930 . S
C837 N839 1.279 . S
C837 C840 1.358 . S
C837 H843 0.930 . S
C838 C836 1.353 . S
C838 C841 1.348 . S
C838 H876 0.929 . S
N839 Li794 1.990 . S
N839 C836 1.314 . S
N839 C837 1.279 . S
C840 C837 1.358 . S
C840 C841 1.356 . S
C840 H877 0.930 . S
C841 C838 1.348 . S
C841 C840 1.356 . S
H842 C836 0.930 . S
H843 C837 0.930 . S
C844 N845 1.314 . S
C844 C846 1.353 . S
C844 H850 0.930 . S
N845 Li795 1.990 . S
N845 C844 1.314 . S
N845 C848 1.279 . S
C846 C844 1.353 . S
C846 C849 1.348 . S
C846 H878 0.929 . S
C847 C848 1.358 . S
C847 C849 1.356 . S
C847 H879 0.930 . S
C848 N845 1.279 . S
C848 C847 1.358 . S
C848 H851 0.930 . S
C849 C846 1.348 . S
C849 C847 1.356 . S
H850 C844 0.930 . S
H851 C848 0.930 . S
O852 Li792 1.956 . S
O852 Li793 1.970 . S
O852 Li794 1.961 . S
O852 C796 1.325 . S
O853 Li792 1.970 . S
O853 Li793 1.956 . S
O853 Li795 1.961 . S
O853 C802 1.325 . S
O854 Li792 1.961 . S
O854 Li794 1.956 . S
O854 Li795 1.970 . S
O854 C824 1.325 . S
O855 Li793 1.961 . S
O855 Li794 1.970 . S
O855 Li795 1.956 . S
O855 C830 1.325 . S
H856 C798 0.929 . S
H857 C799 0.930 . S
H858 C800 0.930 . S
H859 C801 0.930 1_455 S
H860 C803 0.930 . S
H861 C805 0.929 . S
H862 C806 0.930 . S
H863 C807 0.930 . S
H864 C810 0.930 . S
H865 C813 0.929 . S
H866 C818 0.929 . S
H867 C819 0.930 . S
H868 C826 0.929 . S
H869 C827 0.930 . S
H870 C828 0.930 . S
H871 C829 0.930 1_455 S
H872 C831 0.929 . S
H873 C832 0.930 . S
H874 C833 0.930 . S
H875 C834 0.930 . S
H876 C838 0.929 . S
H877 C840 0.930 . S
H878 C846 0.929 . S
H879 C847 0.930 . S
Li880 N897 1.990 . S
Li880 O940 1.956 . S
Li880 O941 1.970 . S
Li880 O942 1.961 . S
Li881 N905 1.990 . S
Li881 O940 1.970 . S
Li881 O941 1.956 . S
Li881 O943 1.961 . S
Li882 N927 1.990 . S
Li882 O940 1.961 . S
Li882 O942 1.956 . S
Li882 O943 1.970 . S
Li883 N933 1.990 . S
Li883 O941 1.961 . S
Li883 O942 1.970 . S
Li883 O943 1.956 . S
C884 C886 1.348 . S
C884 C887 1.356 . S
C884 O940 1.325 . S
N885 C888 1.314 . S
N885 C889 1.279 . S
C886 C884 1.348 . S
C886 C888 1.353 . S
C886 H944 0.929 . S
C887 C884 1.356 . S
C887 C889 1.358 . S
C887 H945 0.930 . S
C888 N885 1.314 . S
C888 C886 1.353 . S
C888 H946 0.930 . S
C889 N885 1.279 . S
C889 C887 1.358 . S
C889 H947 0.930 . S
C890 C893 1.348 . S
C890 C894 1.356 . S
C890 O941 1.325 . S
C891 N892 1.279 . S
C891 C894 1.358 . S
C891 H948 0.930 . S
N892 C891 1.279 . S
N892 C895 1.314 . S
C893 C890 1.348 . S
C893 C895 1.353 . S
C893 H949 0.929 . S
C894 C890 1.356 . S
C894 C891 1.358 . S
C894 H950 0.930 . S
C895 N892 1.314 . S
C895 C893 1.353 . S
C895 H951 0.930 . S
C896 N897 1.314 . S
C896 C901 1.353 . S
C896 H902 0.930 . S
N897 Li880 1.990 . S
N897 C896 1.314 . S
N897 C899 1.279 . S
C898 C899 1.358 . S
C898 C900 1.356 . S
C898 H952 0.930 . S
C899 N897 1.279 . S
C899 C898 1.358 . S
C899 H903 0.930 . S
C900 C898 1.356 . S
C900 C901 1.348 . S
C901 C896 1.353 . S
C901 C900 1.348 . S
C901 H953 0.929 . S
H902 C896 0.930 . S
H903 C899 0.930 . S
C904 N905 1.314 . S
C904 C906 1.353 . S
C904 H910 0.930 . S
N905 Li881 1.990 . S
N905 C904 1.314 . S
N905 C908 1.279 . S
C906 C904 1.353 . S
C906 C909 1.348 . S
C906 H954 0.929 . S
C907 C908 1.358 . S
C907 C909 1.356 . S
C907 H955 0.930 . S
C908 N905 1.279 . S
C908 C907 1.358 . S
C908 H911 0.930 . S
C909 C906 1.348 . S
C909 C907 1.356 . S
H910 C904 0.930 . S
H911 C908 0.930 . S
C912 C914 1.348 . S
C912 C915 1.356 . S
C912 O942 1.325 . S
N913 C916 1.314 . S
N913 C917 1.279 . S
C914 C912 1.348 . S
C914 C916 1.353 . S
C914 H956 0.929 . S
C915 C912 1.356 . S
C915 C917 1.358 . S
C915 H957 0.930 . S
C916 N913 1.314 . S
C916 C914 1.353 . S
C916 H958 0.930 . S
C917 N913 1.279 . S
C917 C915 1.358 . S
C917 H959 0.930 . S
C918 C919 1.348 . S
C918 C920 1.356 . S
C918 O943 1.325 . S
C919 C918 1.348 . S
C919 C921 1.353 . S
C919 H960 0.929 . S
C920 C918 1.356 . S
C920 C922 1.358 . S
C920 H961 0.930 . S
C921 C919 1.353 . S
C921 N923 1.314 . S
C921 H962 0.930 . S
C922 C920 1.358 . S
C922 N923 1.279 . S
C922 H963 0.930 . S
N923 C921 1.314 . S
N923 C922 1.279 . S
C924 C926 1.353 . S
C924 N927 1.314 . S
C924 H930 0.930 . S
C925 N927 1.279 . S
C925 C928 1.358 . S
C925 H931 0.930 . S
C926 C924 1.353 . S
C926 C929 1.348 . S
C926 H964 0.929 . S
N927 Li882 1.990 . S
N927 C924 1.314 . S
N927 C925 1.279 . S
C928 C925 1.358 . S
C928 C929 1.356 . S
C928 H965 0.930 . S
C929 C926 1.348 . S
C929 C928 1.356 . S
H930 C924 0.930 . S
H931 C925 0.930 . S
C932 N933 1.314 . S
C932 C934 1.353 . S
C932 H938 0.930 . S
N933 Li883 1.990 . S
N933 C932 1.314 . S
N933 C936 1.279 . S
C934 C932 1.353 . S
C934 C937 1.348 . S
C934 H966 0.929 . S
C935 C936 1.358 . S
C935 C937 1.356 . S
C935 H967 0.930 . S
C936 N933 1.279 . S
C936 C935 1.358 . S
C936 H939 0.930 . S
C937 C934 1.348 . S
C937 C935 1.356 . S
H938 C932 0.930 . S
H939 C936 0.930 . S
O940 Li880 1.956 . S
O940 Li881 1.970 . S
O940 Li882 1.961 . S
O940 C884 1.325 . S
O941 Li880 1.970 . S
O941 Li881 1.956 . S
O941 Li883 1.961 . S
O941 C890 1.325 . S
O942 Li880 1.961 . S
O942 Li882 1.956 . S
O942 Li883 1.970 . S
O942 C912 1.325 . S
O943 Li881 1.961 . S
O943 Li882 1.970 . S
O943 Li883 1.956 . S
O943 C918 1.325 . S
H944 C886 0.929 . S
H945 C887 0.930 . S
H946 C888 0.930 . S
H947 C889 0.930 . S
H948 C891 0.930 . S
H949 C893 0.929 . S
H950 C894 0.930 . S
H951 C895 0.930 . S
H952 C898 0.930 . S
H953 C901 0.929 . S
H954 C906 0.929 . S
H955 C907 0.930 . S
H956 C914 0.929 . S
H957 C915 0.930 . S
H958 C916 0.930 . S
H959 C917 0.930 . S
H960 C919 0.929 . S
H961 C920 0.930 . S
H962 C921 0.930 . S
H963 C922 0.930 . S
H964 C926 0.929 . S
H965 C928 0.930 . S
H966 C934 0.929 . S
H967 C935 0.930 . S
Li968 N985 1.990 . S
Li968 O1028 1.956 . S
Li968 O1029 1.970 . S
Li968 O1030 1.961 . S
Li969 N993 1.990 . S
Li969 O1028 1.970 . S
Li969 O1029 1.956 . S
Li969 O1031 1.961 . S
Li970 N1015 1.990 . S
Li970 O1028 1.961 . S
Li970 O1030 1.956 . S
Li970 O1031 1.970 . S
Li971 N1021 1.990 . S
Li971 O1029 1.961 . S
Li971 O1030 1.970 . S
Li971 O1031 1.956 . S
C972 C974 1.348 . S
C972 C975 1.356 . S
C972 O1028 1.325 . S
N973 C976 1.314 . S
N973 C977 1.279 . S
C974 C972 1.348 . S
C974 C976 1.353 . S
C974 H1032 0.929 . S
C975 C972 1.356 . S
C975 C977 1.358 . S
C975 H1033 0.930 . S
C976 N973 1.314 . S
C976 C974 1.353 . S
C976 H1034 0.930 . S
C977 N973 1.279 . S
C977 C975 1.358 . S
C977 H1035 0.930 . S
C978 C981 1.348 . S
C978 C982 1.356 . S
C978 O1029 1.325 . S
C979 N980 1.279 . S
C979 C982 1.358 . S
C979 H1036 0.930 . S
N980 C979 1.279 . S
N980 C983 1.314 . S
C981 C978 1.348 . S
C981 C983 1.353 . S
C981 H1037 0.929 . S
C982 C978 1.356 . S
C982 C979 1.358 . S
C982 H1038 0.930 . S
C983 N980 1.314 . S
C983 C981 1.353 . S
C983 H1039 0.930 . S
C984 N985 1.314 . S
C984 C989 1.353 . S
C984 H990 0.930 . S
N985 Li968 1.990 . S
N985 C984 1.314 . S
N985 C987 1.279 . S
C986 C987 1.358 . S
C986 C988 1.356 . S
C986 H1040 0.930 . S
C987 N985 1.279 . S
C987 C986 1.358 . S
C987 H991 0.930 . S
C988 C986 1.356 . S
C988 C989 1.348 . S
C989 C984 1.353 . S
C989 C988 1.348 . S
C989 H1041 0.929 . S
H990 C984 0.930 . S
H991 C987 0.930 . S
C992 N993 1.314 . S
C992 C994 1.353 . S
C992 H998 0.930 . S
N993 Li969 1.990 . S
N993 C992 1.314 . S
N993 C996 1.279 . S
C994 C992 1.353 . S
C994 C997 1.348 . S
C994 H1042 0.929 . S
C995 C996 1.358 . S
C995 C997 1.356 . S
C995 H1043 0.930 . S
C996 N993 1.279 . S
C996 C995 1.358 . S
C996 H999 0.930 . S
C997 C994 1.348 . S
C997 C995 1.356 . S
H998 C992 0.930 . S
H999 C996 0.930 . S
C1000 C1002 1.348 . S
C1000 C1003 1.356 . S
C1000 O1030 1.325 . S
N1001 C1004 1.314 . S
N1001 C1005 1.279 . S
C1002 C1000 1.348 . S
C1002 C1004 1.353 . S
C1002 H1044 0.929 . S
C1003 C1000 1.356 . S
C1003 C1005 1.358 . S
C1003 H1045 0.930 . S
C1004 N1001 1.314 . S
C1004 C1002 1.353 . S
C1004 H1046 0.930 . S
C1005 N1001 1.279 . S
C1005 C1003 1.358 . S
C1005 H1047 0.930 . S
C1006 C1007 1.348 . S
C1006 C1008 1.356 . S
C1006 O1031 1.325 . S
C1007 C1006 1.348 . S
C1007 C1009 1.353 . S
C1007 H1048 0.929 . S
C1008 C1006 1.356 . S
C1008 C1010 1.358 . S
C1008 H1049 0.930 . S
C1009 C1007 1.353 . S
C1009 N1011 1.314 . S
C1009 H1050 0.930 . S
C1010 C1008 1.358 . S
C1010 N1011 1.279 . S
C1010 H1051 0.930 . S
N1011 C1009 1.314 . S
N1011 C1010 1.279 . S
C1012 C1014 1.353 . S
C1012 N1015 1.314 . S
C1012 H1018 0.930 . S
C1013 N1015 1.279 . S
C1013 C1016 1.358 . S
C1013 H1019 0.930 . S
C1014 C1012 1.353 . S
C1014 C1017 1.348 . S
C1014 H1052 0.929 . S
N1015 Li970 1.990 . S
N1015 C1012 1.314 . S
N1015 C1013 1.279 . S
C1016 C1013 1.358 . S
C1016 C1017 1.356 . S
C1016 H1053 0.930 . S
C1017 C1014 1.348 . S
C1017 C1016 1.356 . S
H1018 C1012 0.930 . S
H1019 C1013 0.930 . S
C1020 N1021 1.314 . S
C1020 C1022 1.353 . S
C1020 H1026 0.930 . S
N1021 Li971 1.990 . S
N1021 C1020 1.314 . S
N1021 C1024 1.279 . S
C1022 C1020 1.353 . S
C1022 C1025 1.348 . S
C1022 H1054 0.929 . S
C1023 C1024 1.358 . S
C1023 C1025 1.356 . S
C1023 H1055 0.930 . S
C1024 N1021 1.279 . S
C1024 C1023 1.358 . S
C1024 H1027 0.930 . S
C1025 C1022 1.348 . S
C1025 C1023 1.356 . S
H1026 C1020 0.930 . S
H1027 C1024 0.930 . S
O1028 Li968 1.956 . S
O1028 Li969 1.970 . S
O1028 Li970 1.961 . S
O1028 C972 1.325 . S
O1029 Li968 1.970 . S
O1029 Li969 1.956 . S
O1029 Li971 1.961 . S
O1029 C978 1.325 . S
O1030 Li968 1.961 . S
O1030 Li970 1.956 . S
O1030 Li971 1.970 . S
O1030 C1000 1.325 . S
O1031 Li969 1.961 . S
O1031 Li970 1.970 . S
O1031 Li971 1.956 . S
O1031 C1006 1.325 . S
H1032 C974 0.929 . S
H1033 C975 0.930 . S
H1034 C976 0.930 . S
H1035 C977 0.930 . S
H1036 C979 0.930 . S
H1037 C981 0.929 . S
H1038 C982 0.930 . S
H1039 C983 0.930 . S
H1040 C986 0.930 . S
H1041 C989 0.929 . S
H1042 C994 0.929 . S
H1043 C995 0.930 . S
H1044 C1002 0.929 . S
H1045 C1003 0.930 . S
H1046 C1004 0.930 . S
H1047 C1005 0.930 . S
H1048 C1007 0.929 . S
H1049 C1008 0.930 . S
H1050 C1009 0.930 . S
H1051 C1010 0.930 . S
H1052 C1014 0.929 . S
H1053 C1016 0.930 . S
H1054 C1022 0.929 . S
H1055 C1023 0.930 . S
Li1056 N1073 1.990 . S
Li1056 O1116 1.956 1_655 S
Li1056 O1117 1.970 . S
Li1056 O1118 1.961 1_655 S
Li1057 N1081 1.990 . S
Li1057 O1116 1.970 . S
Li1057 O1117 1.956 1_455 S
Li1057 O1119 1.961 . S
Li1058 N1103 1.990 . S
Li1058 O1116 1.961 . S
Li1058 O1118 1.956 . S
Li1058 O1119 1.970 . S
Li1059 N1109 1.990 . S
Li1059 O1117 1.961 1_455 S
Li1059 O1118 1.970 . S
Li1059 O1119 1.956 . S
C1060 C1062 1.348 1_455 S
C1060 C1063 1.356 . S
C1060 O1116 1.325 . S
N1061 C1064 1.314 1_455 S
N1061 C1065 1.279 . S
C1062 C1060 1.348 1_655 S
C1062 C1064 1.353 . S
C1062 H1120 0.929 . S
C1063 C1060 1.356 . S
C1063 C1065 1.358 . S
C1063 H1121 0.930 . S
C1064 N1061 1.314 1_655 S
C1064 C1062 1.353 . S
C1064 H1122 0.930 . S
C1065 N1061 1.279 . S
C1065 C1063 1.358 . S
C1065 H1123 0.930 . S
C1066 C1069 1.348 . S
C1066 C1070 1.356 . S
C1066 O1117 1.325 . S
C1067 N1068 1.279 . S
C1067 C1070 1.358 . S
C1067 H1124 0.930 1_556 S
N1068 C1067 1.279 . S
N1068 C1071 1.314 . S
C1069 C1066 1.348 . S
C1069 C1071 1.353 . S
C1069 H1125 0.929 . S
C1070 C1066 1.356 . S
C1070 C1067 1.358 . S
C1070 H1126 0.930 . S
C1071 N1068 1.314 . S
C1071 C1069 1.353 . S
C1071 H1127 0.930 . S
C1072 N1073 1.314 . S
C1072 C1077 1.353 . S
C1072 H1078 0.930 . S
N1073 Li1056 1.990 . S
N1073 C1072 1.314 . S
N1073 C1075 1.279 . S
C1074 C1075 1.358 . S
C1074 C1076 1.356 . S
C1074 H1128 0.930 . S
C1075 N1073 1.279 . S
C1075 C1074 1.358 . S
C1075 H1079 0.930 . S
C1076 C1074 1.356 . S
C1076 C1077 1.348 . S
C1077 C1072 1.353 . S
C1077 C1076 1.348 . S
C1077 H1129 0.929 . S
H1078 C1072 0.930 . S
H1079 C1075 0.930 . S
C1080 N1081 1.314 . S
C1080 C1082 1.353 . S
C1080 H1086 0.930 . S
N1081 Li1057 1.990 . S
N1081 C1080 1.314 . S
N1081 C1084 1.279 1_455 S
C1082 C1080 1.353 . S
C1082 C1085 1.348 . S
C1082 H1130 0.929 . S
C1083 C1084 1.358 . S
C1083 C1085 1.356 1_655 S
C1083 H1131 0.930 . S
C1084 N1081 1.279 1_655 S
C1084 C1083 1.358 . S
C1084 H1087 0.930 . S
C1085 C1082 1.348 . S
C1085 C1083 1.356 1_455 S
H1086 C1080 0.930 . S
H1087 C1084 0.930 . S
C1088 C1090 1.348 . S
C1088 C1091 1.356 . S
C1088 O1118 1.325 . S
N1089 C1092 1.314 . S
N1089 C1093 1.279 . S
C1090 C1088 1.348 . S
C1090 C1092 1.353 . S
C1090 H1132 0.929 . S
C1091 C1088 1.356 . S
C1091 C1093 1.358 . S
C1091 H1133 0.930 1_455 S
C1092 N1089 1.314 . S
C1092 C1090 1.353 . S
C1092 H1134 0.930 . S
C1093 N1089 1.279 . S
C1093 C1091 1.358 . S
C1093 H1135 0.930 1_455 S
C1094 C1095 1.348 . S
C1094 C1096 1.356 . S
C1094 O1119 1.325 . S
C1095 C1094 1.348 . S
C1095 C1097 1.353 . S
C1095 H1136 0.929 . S
C1096 C1094 1.356 . S
C1096 C1098 1.358 . S
C1096 H1137 0.930 . S
C1097 C1095 1.353 . S
C1097 N1099 1.314 . S
C1097 H1138 0.930 . S
C1098 C1096 1.358 . S
C1098 N1099 1.279 . S
C1098 H1139 0.930 1_556 S
N1099 C1097 1.314 . S
N1099 C1098 1.279 . S
C1100 C1102 1.353 . S
C1100 N1103 1.314 . S
C1100 H1106 0.930 . S
C1101 N1103 1.279 . S
C1101 C1104 1.358 . S
C1101 H1107 0.930 . S
C1102 C1100 1.353 . S
C1102 C1105 1.348 . S
C1102 H1140 0.929 . S
N1103 Li1058 1.990 . S
N1103 C1100 1.314 . S
N1103 C1101 1.279 . S
C1104 C1101 1.358 . S
C1104 C1105 1.356 . S
C1104 H1141 0.930 . S
C1105 C1102 1.348 . S
C1105 C1104 1.356 . S
H1106 C1100 0.930 . S
H1107 C1101 0.930 . S
C1108 N1109 1.314 1_655 S
C1108 C1110 1.353 . S
C1108 H1114 0.930 . S
N1109 Li1059 1.990 . S
N1109 C1108 1.314 1_455 S
N1109 C1112 1.279 . S
C1110 C1108 1.353 . S
C1110 C1113 1.348 1_655 S
C1110 H1142 0.929 . S
C1111 C1112 1.358 . S
C1111 C1113 1.356 . S
C1111 H1143 0.930 . S
C1112 N1109 1.279 . S
C1112 C1111 1.358 . S
C1112 H1115 0.930 . S
C1113 C1110 1.348 1_455 S
C1113 C1111 1.356 . S
H1114 C1108 0.930 . S
H1115 C1112 0.930 . S
O1116 Li1056 1.956 1_455 S
O1116 Li1057 1.970 . S
O1116 Li1058 1.961 . S
O1116 C1060 1.325 . S
O1117 Li1056 1.970 . S
O1117 Li1057 1.956 1_655 S
O1117 Li1059 1.961 1_655 S
O1117 C1066 1.325 . S
O1118 Li1056 1.961 1_455 S
O1118 Li1058 1.956 . S
O1118 Li1059 1.970 . S
O1118 C1088 1.325 . S
O1119 Li1057 1.961 . S
O1119 Li1058 1.970 . S
O1119 Li1059 1.956 . S
O1119 C1094 1.325 . S
H1120 C1062 0.929 . S
H1121 C1063 0.930 . S
H1122 C1064 0.930 . S
H1123 C1065 0.930 . S
H1124 C1067 0.930 1_554 S
H1125 C1069 0.929 . S
H1126 C1070 0.930 . S
H1127 C1071 0.930 . S
H1128 C1074 0.930 . S
H1129 C1077 0.929 . S
H1130 C1082 0.929 . S
H1131 C1083 0.930 . S
H1132 C1090 0.929 . S
H1133 C1091 0.930 1_655 S
H1134 C1092 0.930 . S
H1135 C1093 0.930 1_655 S
H1136 C1095 0.929 . S
H1137 C1096 0.930 . S
H1138 C1097 0.930 . S
H1139 C1098 0.930 1_554 S
H1140 C1102 0.929 . S
H1141 C1104 0.930 . S
H1142 C1110 0.929 . S
H1143 C1111 0.930 . S
Li1144 N1161 1.990 . S
Li1144 O1204 1.956 . S
Li1144 O1205 1.970 . S
Li1144 O1206 1.961 1_455 S
Li1145 N1169 1.990 . S
Li1145 O1204 1.970 . S
Li1145 O1205 1.956 . S
Li1145 O1207 1.961 . S
Li1146 N1191 1.990 . S
Li1146 O1204 1.961 . S
Li1146 O1206 1.956 1_455 S
Li1146 O1207 1.970 . S
Li1147 N1197 1.990 . S
Li1147 O1205 1.961 1_655 S
Li1147 O1206 1.970 . S
Li1147 O1207 1.956 1_655 S
C1148 C1150 1.348 . S
C1148 C1151 1.356 . S
C1148 O1204 1.325 . S
N1149 C1152 1.314 . S
N1149 C1153 1.279 . S
C1150 C1148 1.348 . S
C1150 C1152 1.353 . S
C1150 H1208 0.929 . S
C1151 C1148 1.356 . S
C1151 C1153 1.358 . S
C1151 H1209 0.930 . S
C1152 N1149 1.314 . S
C1152 C1150 1.353 . S
C1152 H1210 0.930 . S
C1153 N1149 1.279 . S
C1153 C1151 1.358 . S
C1153 H1211 0.930 . S
C1154 C1157 1.348 . S
C1154 C1158 1.356 1_455 S
C1154 O1205 1.325 . S
C1155 N1156 1.279 1_655 S
C1155 C1158 1.358 . S
C1155 H1212 0.930 . S
N1156 C1155 1.279 1_455 S
N1156 C1159 1.314 . S
C1157 C1154 1.348 . S
C1157 C1159 1.353 . S
C1157 H1213 0.929 . S
C1158 C1154 1.356 1_655 S
C1158 C1155 1.358 . S
C1158 H1214 0.930 . S
C1159 N1156 1.314 . S
C1159 C1157 1.353 . S
C1159 H1215 0.930 . S
C1160 N1161 1.314 1_655 S
C1160 C1165 1.353 . S
C1160 H1166 0.930 . S
N1161 Li1144 1.990 . S
N1161 C1160 1.314 1_455 S
N1161 C1163 1.279 . S
C1162 C1163 1.358 . S
C1162 C1164 1.356 . S
C1162 H1216 0.930 . S
C1163 N1161 1.279 . S
C1163 C1162 1.358 . S
C1163 H1167 0.930 . S
C1164 C1162 1.356 . S
C1164 C1165 1.348 1_455 S
C1165 C1160 1.353 . S
C1165 C1164 1.348 1_655 S
C1165 H1217 0.929 . S
H1166 C1160 0.930 . S
H1167 C1163 0.930 . S
C1168 N1169 1.314 . S
C1168 C1170 1.353 . S
C1168 H1174 0.930 . S
N1169 Li1145 1.990 . S
N1169 C1168 1.314 . S
N1169 C1172 1.279 . S
C1170 C1168 1.353 . S
C1170 C1173 1.348 . S
C1170 H1218 0.929 . S
C1171 C1172 1.358 . S
C1171 C1173 1.356 . S
C1171 H1219 0.930 . S
C1172 N1169 1.279 . S
C1172 C1171 1.358 . S
C1172 H1175 0.930 . S
C1173 C1170 1.348 . S
C1173 C1171 1.356 . S
H1174 C1168 0.930 . S
H1175 C1172 0.930 . S
C1176 C1178 1.348 . S
C1176 C1179 1.356 . S
C1176 O1206 1.325 . S
N1177 C1180 1.314 . S
N1177 C1181 1.279 . S
C1178 C1176 1.348 . S
C1178 C1180 1.353 . S
C1178 H1220 0.929 . S
C1179 C1176 1.356 . S
C1179 C1181 1.358 . S
C1179 H1221 0.930 . S
C1180 N1177 1.314 . S
C1180 C1178 1.353 . S
C1180 H1222 0.930 . S
C1181 N1177 1.279 . S
C1181 C1179 1.358 . S
C1181 H1223 0.930 . S
C1182 C1183 1.348 1_455 S
C1182 C1184 1.356 . S
C1182 O1207 1.325 . S
C1183 C1182 1.348 1_655 S
C1183 C1185 1.353 . S
C1183 H1224 0.929 . S
C1184 C1182 1.356 . S
C1184 C1186 1.358 . S
C1184 H1225 0.930 . S
C1185 C1183 1.353 . S
C1185 N1187 1.314 1_655 S
C1185 H1226 0.930 . S
C1186 C1184 1.358 . S
C1186 N1187 1.279 . S
C1186 H1227 0.930 . S
N1187 C1185 1.314 1_455 S
N1187 C1186 1.279 . S
C1188 C1190 1.353 . S
C1188 N1191 1.314 . S
C1188 H1194 0.930 . S
C1189 N1191 1.279 1_655 S
C1189 C1192 1.358 . S
C1189 H1195 0.930 . S
C1190 C1188 1.353 . S
C1190 C1193 1.348 . S
C1190 H1228 0.929 . S
N1191 Li1146 1.990 . S
N1191 C1188 1.314 . S
N1191 C1189 1.279 1_455 S
C1192 C1189 1.358 . S
C1192 C1193 1.356 1_655 S
C1192 H1229 0.930 . S
C1193 C1190 1.348 . S
C1193 C1192 1.356 1_455 S
H1194 C1188 0.930 . S
H1195 C1189 0.930 . S
C1196 N1197 1.314 . S
C1196 C1198 1.353 . S
C1196 H1202 0.930 . S
N1197 Li1147 1.990 . S
N1197 C1196 1.314 . S
N1197 C1200 1.279 . S
C1198 C1196 1.353 . S
C1198 C1201 1.348 . S
C1198 H1230 0.929 . S
C1199 C1200 1.358 . S
C1199 C1201 1.356 . S
C1199 H1231 0.930 . S
C1200 N1197 1.279 . S
C1200 C1199 1.358 . S
C1200 H1203 0.930 . S
C1201 C1198 1.348 . S
C1201 C1199 1.356 . S
H1202 C1196 0.930 . S
H1203 C1200 0.930 . S
O1204 Li1144 1.956 . S
O1204 Li1145 1.970 . S
O1204 Li1146 1.961 . S
O1204 C1148 1.325 . S
O1205 Li1144 1.970 . S
O1205 Li1145 1.956 . S
O1205 Li1147 1.961 1_455 S
O1205 C1154 1.325 . S
O1206 Li1144 1.961 1_655 S
O1206 Li1146 1.956 1_655 S
O1206 Li1147 1.970 . S
O1206 C1176 1.325 . S
O1207 Li1145 1.961 . S
O1207 Li1146 1.970 . S
O1207 Li1147 1.956 1_455 S
O1207 C1182 1.325 . S
H1208 C1150 0.929 . S
H1209 C1151 0.930 . S
H1210 C1152 0.930 . S
H1211 C1153 0.930 . S
H1212 C1155 0.930 . S
H1213 C1157 0.929 . S
H1214 C1158 0.930 . S
H1215 C1159 0.930 . S
H1216 C1162 0.930 . S
H1217 C1165 0.929 . S
H1218 C1170 0.929 . S
H1219 C1171 0.930 . S
H1220 C1178 0.929 . S
H1221 C1179 0.930 . S
H1222 C1180 0.930 . S
H1223 C1181 0.930 . S
H1224 C1183 0.929 . S
H1225 C1184 0.930 . S
H1226 C1185 0.930 . S
H1227 C1186 0.930 . S
H1228 C1190 0.929 . S
H1229 C1192 0.930 . S
H1230 C1198 0.929 . S
H1231 C1199 0.930 . S
Li1232 N1249 1.990 . S
Li1232 O1292 1.956 . S
Li1232 O1293 1.970 . S
Li1232 O1294 1.961 . S
Li1233 N1257 1.990 . S
Li1233 O1292 1.970 . S
Li1233 O1293 1.956 . S
Li1233 O1295 1.961 . S
Li1234 N1279 1.990 . S
Li1234 O1292 1.961 . S
Li1234 O1294 1.956 . S
Li1234 O1295 1.970 . S
Li1235 N1285 1.990 . S
Li1235 O1293 1.961 . S
Li1235 O1294 1.970 . S
Li1235 O1295 1.956 . S
C1236 C1238 1.348 . S
C1236 C1239 1.356 . S
C1236 O1292 1.325 . S
N1237 C1240 1.314 . S
N1237 C1241 1.279 . S
C1238 C1236 1.348 . S
C1238 C1240 1.353 . S
C1238 H1296 0.929 . S
C1239 C1236 1.356 . S
C1239 C1241 1.358 . S
C1239 H1297 0.930 . S
C1240 N1237 1.314 . S
C1240 C1238 1.353 . S
C1240 H1298 0.930 . S
C1241 N1237 1.279 . S
C1241 C1239 1.358 . S
C1241 H1299 0.930 . S
C1242 C1245 1.348 . S
C1242 C1246 1.356 . S
C1242 O1293 1.325 . S
C1243 N1244 1.279 . S
C1243 C1246 1.358 . S
C1243 H1300 0.930 . S
N1244 C1243 1.279 . S
N1244 C1247 1.314 . S
C1245 C1242 1.348 . S
C1245 C1247 1.353 . S
C1245 H1301 0.929 . S
C1246 C1242 1.356 . S
C1246 C1243 1.358 . S
C1246 H1302 0.930 . S
C1247 N1244 1.314 . S
C1247 C1245 1.353 . S
C1247 H1303 0.930 . S
C1248 N1249 1.314 . S
C1248 C1253 1.353 . S
C1248 H1254 0.930 . S
N1249 Li1232 1.990 . S
N1249 C1248 1.314 . S
N1249 C1251 1.279 . S
C1250 C1251 1.358 . S
C1250 C1252 1.356 . S
C1250 H1304 0.930 . S
C1251 N1249 1.279 . S
C1251 C1250 1.358 . S
C1251 H1255 0.930 . S
C1252 C1250 1.356 . S
C1252 C1253 1.348 . S
C1253 C1248 1.353 . S
C1253 C1252 1.348 . S
C1253 H1305 0.929 . S
H1254 C1248 0.930 . S
H1255 C1251 0.930 . S
C1256 N1257 1.314 . S
C1256 C1258 1.353 . S
C1256 H1262 0.930 . S
N1257 Li1233 1.990 . S
N1257 C1256 1.314 . S
N1257 C1260 1.279 . S
C1258 C1256 1.353 . S
C1258 C1261 1.348 . S
C1258 H1306 0.929 . S
C1259 C1260 1.358 . S
C1259 C1261 1.356 . S
C1259 H1307 0.930 . S
C1260 N1257 1.279 . S
C1260 C1259 1.358 . S
C1260 H1263 0.930 . S
C1261 C1258 1.348 . S
C1261 C1259 1.356 . S
H1262 C1256 0.930 . S
H1263 C1260 0.930 . S
C1264 C1266 1.348 . S
C1264 C1267 1.356 . S
C1264 O1294 1.325 . S
N1265 C1268 1.314 . S
N1265 C1269 1.279 . S
C1266 C1264 1.348 . S
C1266 C1268 1.353 . S
C1266 H1308 0.929 . S
C1267 C1264 1.356 . S
C1267 C1269 1.358 . S
C1267 H1309 0.930 . S
C1268 N1265 1.314 . S
C1268 C1266 1.353 . S
C1268 H1310 0.930 . S
C1269 N1265 1.279 . S
C1269 C1267 1.358 . S
C1269 H1311 0.930 . S
C1270 C1271 1.348 . S
C1270 C1272 1.356 . S
C1270 O1295 1.325 . S
C1271 C1270 1.348 . S
C1271 C1273 1.353 . S
C1271 H1312 0.929 . S
C1272 C1270 1.356 . S
C1272 C1274 1.358 . S
C1272 H1313 0.930 . S
C1273 C1271 1.353 . S
C1273 N1275 1.314 . S
C1273 H1314 0.930 . S
C1274 C1272 1.358 . S
C1274 N1275 1.279 . S
C1274 H1315 0.930 . S
N1275 C1273 1.314 . S
N1275 C1274 1.279 . S
C1276 C1278 1.353 . S
C1276 N1279 1.314 . S
C1276 H1282 0.930 . S
C1277 N1279 1.279 . S
C1277 C1280 1.358 . S
C1277 H1283 0.930 . S
C1278 C1276 1.353 . S
C1278 C1281 1.348 . S
C1278 H1316 0.929 . S
N1279 Li1234 1.990 . S
N1279 C1276 1.314 . S
N1279 C1277 1.279 . S
C1280 C1277 1.358 . S
C1280 C1281 1.356 . S
C1280 H1317 0.930 . S
C1281 C1278 1.348 . S
C1281 C1280 1.356 . S
H1282 C1276 0.930 . S
H1283 C1277 0.930 . S
C1284 N1285 1.314 . S
C1284 C1286 1.353 . S
C1284 H1290 0.930 . S
N1285 Li1235 1.990 . S
N1285 C1284 1.314 . S
N1285 C1288 1.279 . S
C1286 C1284 1.353 . S
C1286 C1289 1.348 . S
C1286 H1318 0.929 . S
C1287 C1288 1.358 . S
C1287 C1289 1.356 . S
C1287 H1319 0.930 . S
C1288 N1285 1.279 . S
C1288 C1287 1.358 . S
C1288 H1291 0.930 . S
C1289 C1286 1.348 . S
C1289 C1287 1.356 . S
H1290 C1284 0.930 . S
H1291 C1288 0.930 . S
O1292 Li1232 1.956 . S
O1292 Li1233 1.970 . S
O1292 Li1234 1.961 . S
O1292 C1236 1.325 . S
O1293 Li1232 1.970 . S
O1293 Li1233 1.956 . S
O1293 Li1235 1.961 . S
O1293 C1242 1.325 . S
O1294 Li1232 1.961 . S
O1294 Li1234 1.956 . S
O1294 Li1235 1.970 . S
O1294 C1264 1.325 . S
O1295 Li1233 1.961 . S
O1295 Li1234 1.970 . S
O1295 Li1235 1.956 . S
O1295 C1270 1.325 . S
H1296 C1238 0.929 . S
H1297 C1239 0.930 . S
H1298 C1240 0.930 . S
H1299 C1241 0.930 . S
H1300 C1243 0.930 . S
H1301 C1245 0.929 . S
H1302 C1246 0.930 . S
H1303 C1247 0.930 . S
H1304 C1250 0.930 . S
H1305 C1253 0.929 . S
H1306 C1258 0.929 . S
H1307 C1259 0.930 . S
H1308 C1266 0.929 . S
H1309 C1267 0.930 . S
H1310 C1268 0.930 . S
H1311 C1269 0.930 . S
H1312 C1271 0.929 . S
H1313 C1272 0.930 . S
H1314 C1273 0.930 . S
H1315 C1274 0.930 . S
H1316 C1278 0.929 . S
H1317 C1280 0.930 . S
H1318 C1286 0.929 . S
H1319 C1287 0.930 . S
Li1320 N1337 1.990 . S
Li1320 O1380 1.956 . S
Li1320 O1381 1.970 . S
Li1320 O1382 1.961 . S
Li1321 N1345 1.990 . S
Li1321 O1380 1.970 . S
Li1321 O1381 1.956 . S
Li1321 O1383 1.961 . S
Li1322 N1367 1.990 . S
Li1322 O1380 1.961 . S
Li1322 O1382 1.956 . S
Li1322 O1383 1.970 . S
Li1323 N1373 1.990 . S
Li1323 O1381 1.961 . S
Li1323 O1382 1.970 . S
Li1323 O1383 1.956 . S
C1324 C1326 1.348 . S
C1324 C1327 1.356 . S
C1324 O1380 1.325 . S
N1325 C1328 1.314 . S
N1325 C1329 1.279 . S
C1326 C1324 1.348 . S
C1326 C1328 1.353 . S
C1326 H1384 0.929 . S
C1327 C1324 1.356 . S
C1327 C1329 1.358 . S
C1327 H1385 0.930 . S
C1328 N1325 1.314 . S
C1328 C1326 1.353 . S
C1328 H1386 0.930 . S
C1329 N1325 1.279 . S
C1329 C1327 1.358 . S
C1329 H1387 0.930 . S
C1330 C1333 1.348 . S
C1330 C1334 1.356 . S
C1330 O1381 1.325 . S
C1331 N1332 1.279 . S
C1331 C1334 1.358 . S
C1331 H1388 0.930 . S
N1332 C1331 1.279 . S
N1332 C1335 1.314 . S
C1333 C1330 1.348 . S
C1333 C1335 1.353 . S
C1333 H1389 0.929 . S
C1334 C1330 1.356 . S
C1334 C1331 1.358 . S
C1334 H1390 0.930 . S
C1335 N1332 1.314 . S
C1335 C1333 1.353 . S
C1335 H1391 0.930 . S
C1336 N1337 1.314 . S
C1336 C1341 1.353 . S
C1336 H1342 0.930 . S
N1337 Li1320 1.990 . S
N1337 C1336 1.314 . S
N1337 C1339 1.279 . S
C1338 C1339 1.358 . S
C1338 C1340 1.356 . S
C1338 H1392 0.930 . S
C1339 N1337 1.279 . S
C1339 C1338 1.358 . S
C1339 H1343 0.930 . S
C1340 C1338 1.356 . S
C1340 C1341 1.348 . S
C1341 C1336 1.353 . S
C1341 C1340 1.348 . S
C1341 H1393 0.929 . S
H1342 C1336 0.930 . S
H1343 C1339 0.930 . S
C1344 N1345 1.314 . S
C1344 C1346 1.353 . S
C1344 H1350 0.930 . S
N1345 Li1321 1.990 . S
N1345 C1344 1.314 . S
N1345 C1348 1.279 . S
C1346 C1344 1.353 . S
C1346 C1349 1.348 . S
C1346 H1394 0.929 . S
C1347 C1348 1.358 . S
C1347 C1349 1.356 . S
C1347 H1395 0.930 . S
C1348 N1345 1.279 . S
C1348 C1347 1.358 . S
C1348 H1351 0.930 . S
C1349 C1346 1.348 . S
C1349 C1347 1.356 . S
H1350 C1344 0.930 . S
H1351 C1348 0.930 . S
C1352 C1354 1.348 . S
C1352 C1355 1.356 . S
C1352 O1382 1.325 . S
N1353 C1356 1.314 . S
N1353 C1357 1.279 . S
C1354 C1352 1.348 . S
C1354 C1356 1.353 . S
C1354 H1396 0.929 . S
C1355 C1352 1.356 . S
C1355 C1357 1.358 . S
C1355 H1397 0.930 . S
C1356 N1353 1.314 . S
C1356 C1354 1.353 . S
C1356 H1398 0.930 . S
C1357 N1353 1.279 . S
C1357 C1355 1.358 . S
C1357 H1399 0.930 . S
C1358 C1359 1.348 . S
C1358 C1360 1.356 . S
C1358 O1383 1.325 . S
C1359 C1358 1.348 . S
C1359 C1361 1.353 . S
C1359 H1400 0.929 . S
C1360 C1358 1.356 . S
C1360 C1362 1.358 . S
C1360 H1401 0.930 . S
C1361 C1359 1.353 . S
C1361 N1363 1.314 . S
C1361 H1402 0.930 . S
C1362 C1360 1.358 . S
C1362 N1363 1.279 . S
C1362 H1403 0.930 . S
N1363 C1361 1.314 . S
N1363 C1362 1.279 . S
C1364 C1366 1.353 . S
C1364 N1367 1.314 . S
C1364 H1370 0.930 . S
C1365 N1367 1.279 . S
C1365 C1368 1.358 . S
C1365 H1371 0.930 . S
C1366 C1364 1.353 . S
C1366 C1369 1.348 . S
C1366 H1404 0.929 . S
N1367 Li1322 1.990 . S
N1367 C1364 1.314 . S
N1367 C1365 1.279 . S
C1368 C1365 1.358 . S
C1368 C1369 1.356 . S
C1368 H1405 0.930 . S
C1369 C1366 1.348 . S
C1369 C1368 1.356 . S
H1370 C1364 0.930 . S
H1371 C1365 0.930 . S
C1372 N1373 1.314 . S
C1372 C1374 1.353 . S
C1372 H1378 0.930 . S
N1373 Li1323 1.990 . S
N1373 C1372 1.314 . S
N1373 C1376 1.279 . S
C1374 C1372 1.353 . S
C1374 C1377 1.348 . S
C1374 H1406 0.929 . S
C1375 C1376 1.358 . S
C1375 C1377 1.356 . S
C1375 H1407 0.930 . S
C1376 N1373 1.279 . S
C1376 C1375 1.358 . S
C1376 H1379 0.930 . S
C1377 C1374 1.348 . S
C1377 C1375 1.356 . S
H1378 C1372 0.930 . S
H1379 C1376 0.930 . S
O1380 Li1320 1.956 . S
O1380 Li1321 1.970 . S
O1380 Li1322 1.961 . S
O1380 C1324 1.325 . S
O1381 Li1320 1.970 . S
O1381 Li1321 1.956 . S
O1381 Li1323 1.961 . S
O1381 C1330 1.325 . S
O1382 Li1320 1.961 . S
O1382 Li1322 1.956 . S
O1382 Li1323 1.970 . S
O1382 C1352 1.325 . S
O1383 Li1321 1.961 . S
O1383 Li1322 1.970 . S
O1383 Li1323 1.956 . S
O1383 C1358 1.325 . S
H1384 C1326 0.929 . S
H1385 C1327 0.930 . S
H1386 C1328 0.930 . S
H1387 C1329 0.930 . S
H1388 C1331 0.930 . S
H1389 C1333 0.929 . S
H1390 C1334 0.930 . S
H1391 C1335 0.930 . S
H1392 C1338 0.930 . S
H1393 C1341 0.929 . S
H1394 C1346 0.929 . S
H1395 C1347 0.930 . S
H1396 C1354 0.929 . S
H1397 C1355 0.930 . S
H1398 C1356 0.930 . S
H1399 C1357 0.930 . S
H1400 C1359 0.929 . S
H1401 C1360 0.930 . S
H1402 C1361 0.930 . S
H1403 C1362 0.930 . S
H1404 C1366 0.929 . S
H1405 C1368 0.930 . S
H1406 C1374 0.929 . S
H1407 C1375 0.930 . S
Li1408 N1425 1.990 . S
Li1408 O1468 1.945 1_545 S
Li1408 O1469 1.971 . S
Li1408 O1470 1.972 . S
Li1409 N1433 1.990 . S
Li1409 O1468 1.970 . S
Li1409 O1469 1.956 1_565 S
Li1409 O1471 1.959 1_565 S
Li1410 N1455 1.990 . S
Li1410 O1468 1.961 1_545 S
Li1410 O1470 1.956 . S
Li1410 O1471 1.970 . S
Li1411 N1461 1.990 . S
Li1411 O1469 1.961 . S
Li1411 O1470 1.970 . S
Li1411 O1471 1.958 . S
C1412 C1414 1.348 . S
C1412 C1415 1.356 . S
C1412 O1468 1.325 . S
N1413 C1416 1.314 . S
N1413 C1417 1.279 . S
C1414 C1412 1.348 . S
C1414 C1416 1.353 . S
C1414 H1472 0.929 . S
C1415 C1412 1.356 . S
C1415 C1417 1.358 . S
C1415 H1473 0.930 . S
C1416 N1413 1.314 . S
C1416 C1414 1.353 . S
C1416 H1474 0.930 . S
C1417 N1413 1.279 . S
C1417 C1415 1.358 . S
C1417 H1475 0.930 1_655 S
C1418 C1421 1.348 1_545 S
C1418 C1422 1.356 . S
C1418 O1469 1.325 . S
C1419 N1420 1.273 1_545 S
C1419 C1422 1.358 . S
C1419 H1476 0.930 . S
N1420 C1419 1.273 1_565 S
N1420 C1423 1.321 . S
C1421 C1418 1.348 1_565 S
C1421 C1423 1.353 . S
C1421 H1477 0.929 . S
C1422 C1418 1.356 . S
C1422 C1419 1.358 . S
C1422 H1478 0.930 . S
C1423 N1420 1.321 . S
C1423 C1421 1.353 . S
C1423 H1479 0.930 . S
C1424 N1425 1.314 . S
C1424 C1429 1.353 . S
C1424 H1430 0.930 . S
N1425 Li1408 1.990 . S
N1425 C1424 1.314 . S
N1425 C1427 1.280 1_545 S
C1426 C1427 1.358 . S
C1426 C1428 1.356 1_565 S
C1426 H1480 0.930 . S
C1427 N1425 1.280 1_565 S
C1427 C1426 1.358 . S
C1427 H1431 0.930 . S
C1428 C1426 1.356 1_545 S
C1428 C1429 1.348 . S
C1429 C1424 1.353 . S
C1429 C1428 1.348 . S
C1429 H1481 0.929 . S
H1430 C1424 0.930 . S
H1431 C1427 0.930 . S
C1432 N1433 1.314 . S
C1432 C1434 1.353 . S
C1432 H1438 0.930 . S
N1433 Li1409 1.990 . S
N1433 C1432 1.314 . S
N1433 C1436 1.279 . S
C1434 C1432 1.353 . S
C1434 C1437 1.348 . S
C1434 H1482 0.929 . S
C1435 C1436 1.358 . S
C1435 C1437 1.356 . S
C1435 H1483 0.930 . S
C1436 N1433 1.279 . S
C1436 C1435 1.358 . S
C1436 H1439 0.930 . S
C1437 C1434 1.348 . S
C1437 C1435 1.356 . S
H1438 C1432 0.930 . S
H1439 C1436 0.930 . S
C1440 C1442 1.348 . S
C1440 C1443 1.356 . S
C1440 O1470 1.325 . S
N1441 C1444 1.314 . S
N1441 C1445 1.279 . S
C1442 C1440 1.348 . S
C1442 C1444 1.353 . S
C1442 H1484 0.929 . S
C1443 C1440 1.356 . S
C1443 C1445 1.358 . S
C1443 H1485 0.930 . S
C1444 N1441 1.314 . S
C1444 C1442 1.353 . S
C1444 H1486 0.930 . S
C1445 N1441 1.279 . S
C1445 C1443 1.358 . S
C1445 H1487 0.930 1_655 S
C1446 C1447 1.357 . S
C1446 C1448 1.351 1_545 S
C1446 O1471 1.324 . S
C1447 C1446 1.357 . S
C1447 C1449 1.353 . S
C1447 H1488 0.929 . S
C1448 C1446 1.351 1_565 S
C1448 C1450 1.358 . S
C1448 H1489 0.930 . S
C1449 C1447 1.353 . S
C1449 N1451 1.314 . S
C1449 H1490 0.930 . S
C1450 C1448 1.358 . S
C1450 N1451 1.279 1_565 S
C1450 H1491 0.930 . S
N1451 C1449 1.314 . S
N1451 C1450 1.279 1_545 S
C1452 C1454 1.353 . S
C1452 N1455 1.314 1_565 S
C1452 H1458 0.930 . S
C1453 N1455 1.279 . S
C1453 C1456 1.358 . S
C1453 H1459 0.930 . S
C1454 C1452 1.353 . S
C1454 C1457 1.323 1_565 S
C1454 H1492 0.929 . S
N1455 Li1410 1.990 . S
N1455 C1452 1.314 1_545 S
N1455 C1453 1.279 . S
C1456 C1453 1.358 . S
C1456 C1457 1.381 . S
C1456 H1493 0.930 . S
C1457 C1454 1.323 1_545 S
C1457 C1456 1.381 . S
H1458 C1452 0.930 . S
H1459 C1453 0.930 . S
C1460 N1461 1.314 . S
C1460 C1462 1.353 . S
C1460 H1466 0.930 . S
N1461 Li1411 1.990 . S
N1461 C1460 1.314 . S
N1461 C1464 1.279 . S
C1462 C1460 1.353 . S
C1462 C1465 1.348 . S
C1462 H1494 0.929 . S
C1463 C1464 1.358 . S
C1463 C1465 1.356 . S
C1463 H1495 0.930 . S
C1464 N1461 1.279 . S
C1464 C1463 1.358 . S
C1464 H1467 0.930 . S
C1465 C1462 1.348 . S
C1465 C1463 1.356 . S
H1466 C1460 0.930 . S
H1467 C1464 0.930 . S
O1468 Li1408 1.945 1_565 S
O1468 Li1409 1.970 . S
O1468 Li1410 1.961 1_565 S
O1468 C1412 1.325 . S
O1469 Li1408 1.971 . S
O1469 Li1409 1.956 1_545 S
O1469 Li1411 1.961 . S
O1469 C1418 1.325 . S
O1470 Li1408 1.972 . S
O1470 Li1410 1.956 . S
O1470 Li1411 1.970 . S
O1470 C1440 1.325 . S
O1471 Li1409 1.959 1_545 S
O1471 Li1410 1.970 . S
O1471 Li1411 1.958 . S
O1471 C1446 1.324 . S
H1472 C1414 0.929 . S
H1473 C1415 0.930 . S
H1474 C1416 0.930 . S
H1475 C1417 0.930 1_455 S
H1476 C1419 0.930 . S
H1477 C1421 0.929 . S
H1478 C1422 0.930 . S
H1479 C1423 0.930 . S
H1480 C1426 0.930 . S
H1481 C1429 0.929 . S
H1482 C1434 0.929 . S
H1483 C1435 0.930 . S
H1484 C1442 0.929 . S
H1485 C1443 0.930 . S
H1486 C1444 0.930 . S
H1487 C1445 0.930 1_455 S
H1488 C1447 0.929 . S
H1489 C1448 0.930 . S
H1490 C1449 0.930 . S
H1491 C1450 0.930 . S
H1492 C1454 0.929 . S
H1493 C1456 0.930 . S
H1494 C1462 0.929 . S
H1495 C1463 0.930 . S
Li1496 N1513 1.990 . S
Li1496 O1556 1.956 . S
Li1496 O1557 1.970 . S
Li1496 O1558 1.961 . S
Li1497 N1521 1.990 . S
Li1497 O1556 1.970 . S
Li1497 O1557 1.956 . S
Li1497 O1559 1.961 . S
Li1498 N1543 1.990 . S
Li1498 O1556 1.961 . S
Li1498 O1558 1.956 . S
Li1498 O1559 1.970 . S
Li1499 N1549 1.990 . S
Li1499 O1557 1.961 . S
Li1499 O1558 1.970 . S
Li1499 O1559 1.956 . S
C1500 C1502 1.348 . S
C1500 C1503 1.356 . S
C1500 O1556 1.325 . S
N1501 C1504 1.314 . S
N1501 C1505 1.279 . S
C1502 C1500 1.348 . S
C1502 C1504 1.353 . S
C1502 H1560 0.929 . S
C1503 C1500 1.356 . S
C1503 C1505 1.358 . S
C1503 H1561 0.930 . S
C1504 N1501 1.314 . S
C1504 C1502 1.353 . S
C1504 H1562 0.930 . S
C1505 N1501 1.279 . S
C1505 C1503 1.358 . S
C1505 H1563 0.930 . S
C1506 C1509 1.348 . S
C1506 C1510 1.356 . S
C1506 O1557 1.325 . S
C1507 N1508 1.279 . S
C1507 C1510 1.358 . S
C1507 H1564 0.928 . S
N1508 C1507 1.279 . S
N1508 C1511 1.314 . S
C1509 C1506 1.348 . S
C1509 C1511 1.353 . S
C1509 H1565 0.929 . S
C1510 C1506 1.356 . S
C1510 C1507 1.358 . S
C1510 H1566 0.930 . S
C1511 N1508 1.314 . S
C1511 C1509 1.353 . S
C1511 H1567 0.930 . S
C1512 N1513 1.314 . S
C1512 C1517 1.353 . S
C1512 H1518 0.930 . S
N1513 Li1496 1.990 . S
N1513 C1512 1.314 . S
N1513 C1515 1.279 . S
C1514 C1515 1.358 . S
C1514 C1516 1.356 . S
C1514 H1568 0.930 . S
C1515 N1513 1.279 . S
C1515 C1514 1.358 . S
C1515 H1519 0.930 . S
C1516 C1514 1.356 . S
C1516 C1517 1.348 . S
C1517 C1512 1.353 . S
C1517 C1516 1.348 . S
C1517 H1569 0.929 . S
H1518 C1512 0.930 . S
H1519 C1515 0.930 . S
C1520 N1521 1.314 . S
C1520 C1522 1.353 . S
C1520 H1526 0.930 . S
N1521 Li1497 1.990 . S
N1521 C1520 1.314 . S
N1521 C1524 1.279 . S
C1522 C1520 1.353 . S
C1522 C1525 1.348 . S
C1522 H1570 0.929 . S
C1523 C1524 1.358 . S
C1523 C1525 1.356 . S
C1523 H1571 0.930 . S
C1524 N1521 1.279 . S
C1524 C1523 1.358 . S
C1524 H1527 0.930 . S
C1525 C1522 1.348 . S
C1525 C1523 1.356 . S
H1526 C1520 0.930 . S
H1527 C1524 0.930 . S
C1528 C1530 1.348 . S
C1528 C1531 1.356 . S
C1528 O1558 1.325 . S
N1529 C1532 1.314 . S
N1529 C1533 1.279 . S
C1530 C1528 1.348 . S
C1530 C1532 1.353 . S
C1530 H1572 0.929 . S
C1531 C1528 1.356 . S
C1531 C1533 1.358 . S
C1531 H1573 0.930 . S
C1532 N1529 1.314 . S
C1532 C1530 1.353 . S
C1532 H1574 0.930 . S
C1533 N1529 1.279 . S
C1533 C1531 1.358 . S
C1533 H1575 0.930 . S
C1534 C1535 1.348 . S
C1534 C1536 1.356 . S
C1534 O1559 1.325 . S
C1535 C1534 1.348 . S
C1535 C1537 1.353 . S
C1535 H1576 0.929 . S
C1536 C1534 1.356 . S
C1536 C1538 1.358 . S
C1536 H1577 0.930 . S
C1537 C1535 1.353 . S
C1537 N1539 1.314 . S
C1537 H1578 0.930 . S
C1538 C1536 1.358 . S
C1538 N1539 1.279 . S
C1538 H1579 0.950 . S
N1539 C1537 1.314 . S
N1539 C1538 1.279 . S
C1540 C1542 1.353 . S
C1540 N1543 1.314 . S
C1540 H1546 0.930 . S
C1541 N1543 1.279 . S
C1541 C1544 1.358 . S
C1541 H1547 0.930 . S
C1542 C1540 1.353 . S
C1542 C1545 1.348 . S
C1542 H1580 0.929 . S
N1543 Li1498 1.990 . S
N1543 C1540 1.314 . S
N1543 C1541 1.279 . S
C1544 C1541 1.358 . S
C1544 C1545 1.356 . S
C1544 H1581 0.930 . S
C1545 C1542 1.348 . S
C1545 C1544 1.356 . S
H1546 C1540 0.930 . S
H1547 C1541 0.930 . S
C1548 N1549 1.314 . S
C1548 C1550 1.353 . S
C1548 H1554 0.930 . S
N1549 Li1499 1.990 . S
N1549 C1548 1.314 . S
N1549 C1552 1.279 . S
C1550 C1548 1.353 . S
C1550 C1553 1.348 . S
C1550 H1582 0.929 . S
C1551 C1552 1.358 . S
C1551 C1553 1.356 . S
C1551 H1583 0.930 . S
C1552 N1549 1.279 . S
C1552 C1551 1.358 . S
C1552 H1555 0.930 . S
C1553 C1550 1.348 . S
C1553 C1551 1.356 . S
H1554 C1548 0.930 . S
H1555 C1552 0.930 . S
O1556 Li1496 1.956 . S
O1556 Li1497 1.970 . S
O1556 Li1498 1.961 . S
O1556 C1500 1.325 . S
O1557 Li1496 1.970 . S
O1557 Li1497 1.956 . S
O1557 Li1499 1.961 . S
O1557 C1506 1.325 . S
O1558 Li1496 1.961 . S
O1558 Li1498 1.956 . S
O1558 Li1499 1.970 . S
O1558 C1528 1.325 . S
O1559 Li1497 1.961 . S
O1559 Li1498 1.970 . S
O1559 Li1499 1.956 . S
O1559 C1534 1.325 . S
H1560 C1502 0.929 . S
H1561 C1503 0.930 . S
H1562 C1504 0.930 . S
H1563 C1505 0.930 . S
H1564 C1507 0.928 . S
H1565 C1509 0.929 . S
H1566 C1510 0.930 . S
H1567 C1511 0.930 . S
H1568 C1514 0.930 . S
H1569 C1517 0.929 . S
H1570 C1522 0.929 . S
H1571 C1523 0.930 . S
H1572 C1530 0.929 . S
H1573 C1531 0.930 . S
H1574 C1532 0.930 . S
H1575 C1533 0.930 . S
H1576 C1535 0.929 . S
H1577 C1536 0.930 . S
H1578 C1537 0.930 . S
H1579 C1538 0.950 . S
H1580 C1542 0.929 . S
H1581 C1544 0.930 . S
H1582 C1550 0.929 . S
H1583 C1551 0.930 . S
Li1584 N1601 1.990 . S
Li1584 O1644 1.956 . S
Li1584 O1645 1.970 . S
Li1584 O1646 1.961 1_545 S
Li1585 N1609 1.990 . S
Li1585 O1644 1.970 . S
Li1585 O1645 1.956 . S
Li1585 O1647 1.961 . S
Li1586 N1631 1.990 . S
Li1586 O1644 1.961 . S
Li1586 O1646 1.956 1_545 S
Li1586 O1647 1.970 . S
Li1587 N1637 1.990 . S
Li1587 O1645 1.961 1_565 S
Li1587 O1646 1.970 . S
Li1587 O1647 1.956 1_565 S
C1588 C1590 1.348 . S
C1588 C1591 1.356 . S
C1588 O1644 1.325 . S
N1589 C1592 1.314 . S
N1589 C1593 1.279 . S
C1590 C1588 1.348 . S
C1590 C1592 1.353 . S
C1590 H1648 0.929 . S
C1591 C1588 1.356 . S
C1591 C1593 1.358 . S
C1591 H1649 0.930 . S
C1592 N1589 1.314 . S
C1592 C1590 1.353 . S
C1592 H1650 0.930 . S
C1593 N1589 1.279 . S
C1593 C1591 1.358 . S
C1593 H1651 0.930 . S
C1594 C1597 1.348 . S
C1594 C1598 1.356 1_545 S
C1594 O1645 1.325 . S
C1595 N1596 1.279 1_565 S
C1595 C1598 1.358 . S
C1595 H1652 0.930 . S
N1596 C1595 1.279 1_545 S
N1596 C1599 1.314 . S
C1597 C1594 1.348 . S
C1597 C1599 1.353 . S
C1597 H1653 0.929 . S
C1598 C1594 1.356 1_565 S
C1598 C1595 1.358 . S
C1598 H1654 0.930 . S
C1599 N1596 1.314 . S
C1599 C1597 1.353 . S
C1599 H1655 0.930 . S
C1600 N1601 1.314 1_565 S
C1600 C1605 1.353 . S
C1600 H1606 0.930 . S
N1601 Li1584 1.990 . S
N1601 C1600 1.314 1_545 S
N1601 C1603 1.279 . S
C1602 C1603 1.358 . S
C1602 C1604 1.356 . S
C1602 H1656 0.930 . S
C1603 N1601 1.279 . S
C1603 C1602 1.358 . S
C1603 H1607 0.930 . S
C1604 C1602 1.356 . S
C1604 C1605 1.348 1_545 S
C1605 C1600 1.353 . S
C1605 C1604 1.348 1_565 S
C1605 H1657 0.929 . S
H1606 C1600 0.930 . S
H1607 C1603 0.930 . S
C1608 N1609 1.314 . S
C1608 C1610 1.353 . S
C1608 H1614 0.930 . S
N1609 Li1585 1.990 . S
N1609 C1608 1.314 . S
N1609 C1612 1.279 . S
C1610 C1608 1.353 . S
C1610 C1613 1.348 . S
C1610 H1658 0.929 . S
C1611 C1612 1.358 . S
C1611 C1613 1.356 . S
C1611 H1659 0.930 . S
C1612 N1609 1.279 . S
C1612 C1611 1.358 . S
C1612 H1615 0.930 . S
C1613 C1610 1.348 . S
C1613 C1611 1.356 . S
H1614 C1608 0.930 . S
H1615 C1612 0.930 . S
C1616 C1618 1.348 . S
C1616 C1619 1.356 . S
C1616 O1646 1.325 . S
N1617 C1620 1.314 . S
N1617 C1621 1.279 . S
C1618 C1616 1.348 . S
C1618 C1620 1.353 . S
C1618 H1660 0.929 . S
C1619 C1616 1.356 . S
C1619 C1621 1.358 . S
C1619 H1661 0.930 . S
C1620 N1617 1.314 . S
C1620 C1618 1.353 . S
C1620 H1662 0.930 . S
C1621 N1617 1.279 . S
C1621 C1619 1.358 . S
C1621 H1663 0.930 . S
C1622 C1623 1.348 1_545 S
C1622 C1624 1.356 . S
C1622 O1647 1.325 . S
C1623 C1622 1.348 1_565 S
C1623 C1625 1.353 . S
C1623 H1664 0.929 . S
C1624 C1622 1.356 . S
C1624 C1626 1.358 . S
C1624 H1665 0.930 . S
C1625 C1623 1.353 . S
C1625 N1627 1.319 . S
C1625 H1666 0.930 . S
C1626 C1624 1.358 . S
C1626 N1627 1.274 1_545 S
C1626 H1667 0.930 . S
N1627 C1625 1.319 . S
N1627 C1626 1.274 1_565 S
C1628 C1630 1.353 . S
C1628 N1631 1.328 . S
C1628 H1634 0.930 . S
C1629 N1631 1.266 1_565 S
C1629 C1632 1.358 . S
C1629 H1635 0.930 . S
C1630 C1628 1.353 . S
C1630 C1633 1.348 . S
C1630 H1668 0.929 . S
N1631 Li1586 1.990 . S
N1631 C1628 1.328 . S
N1631 C1629 1.266 1_545 S
C1632 C1629 1.358 . S
C1632 C1633 1.356 1_565 S
C1632 H1669 0.930 . S
C1633 C1630 1.348 . S
C1633 C1632 1.356 1_545 S
H1634 C1628 0.930 . S
H1635 C1629 0.930 . S
C1636 N1637 1.314 . S
C1636 C1638 1.353 . S
C1636 H1642 0.930 . S
N1637 Li1587 1.990 . S
N1637 C1636 1.314 . S
N1637 C1640 1.279 . S
C1638 C1636 1.353 . S
C1638 C1641 1.348 . S
C1638 H1670 0.929 . S
C1639 C1640 1.358 . S
C1639 C1641 1.356 . S
C1639 H1671 0.930 . S
C1640 N1637 1.279 . S
C1640 C1639 1.358 . S
C1640 H1643 0.930 . S
C1641 C1638 1.348 . S
C1641 C1639 1.356 . S
H1642 C1636 0.930 . S
H1643 C1640 0.930 . S
O1644 Li1584 1.956 . S
O1644 Li1585 1.970 . S
O1644 Li1586 1.961 . S
O1644 C1588 1.325 . S
O1645 Li1584 1.970 . S
O1645 Li1585 1.956 . S
O1645 Li1587 1.961 1_545 S
O1645 C1594 1.325 . S
O1646 Li1584 1.961 1_565 S
O1646 Li1586 1.956 1_565 S
O1646 Li1587 1.970 . S
O1646 C1616 1.325 . S
O1647 Li1585 1.961 . S
O1647 Li1586 1.970 . S
O1647 Li1587 1.956 1_545 S
O1647 C1622 1.325 . S
H1648 C1590 0.929 . S
H1649 C1591 0.930 . S
H1650 C1592 0.930 . S
H1651 C1593 0.930 . S
H1652 C1595 0.930 . S
H1653 C1597 0.929 . S
H1654 C1598 0.930 . S
H1655 C1599 0.930 . S
H1656 C1602 0.930 . S
H1657 C1605 0.929 . S
H1658 C1610 0.929 . S
H1659 C1611 0.930 . S
H1660 C1618 0.929 . S
H1661 C1619 0.930 . S
H1662 C1620 0.930 . S
H1663 C1621 0.930 . S
H1664 C1623 0.929 . S
H1665 C1624 0.930 . S
H1666 C1625 0.930 . S
H1667 C1626 0.930 . S
H1668 C1630 0.929 . S
H1669 C1632 0.930 . S
H1670 C1638 0.929 . S
H1671 C1639 0.930 . S
Li1672 N1689 1.990 . S
Li1672 O1732 1.956 . S
Li1672 O1733 1.970 . S
Li1672 O1734 1.961 1_554 S
Li1673 N1697 1.990 . S
Li1673 O1732 1.970 . S
Li1673 O1733 1.956 . S
Li1673 O1735 1.961 . S
Li1674 N1719 1.990 . S
Li1674 O1732 1.961 . S
Li1674 O1734 1.956 1_554 S
Li1674 O1735 1.970 . S
Li1675 N1725 1.990 . S
Li1675 O1733 1.961 1_556 S
Li1675 O1734 1.970 . S
Li1675 O1735 1.956 1_556 S
C1676 C1678 1.348 . S
C1676 C1679 1.356 . S
C1676 O1732 1.325 . S
N1677 C1680 1.314 . S
N1677 C1681 1.279 . S
C1678 C1676 1.348 . S
C1678 C1680 1.353 . S
C1678 H1736 0.929 . S
C1679 C1676 1.356 . S
C1679 C1681 1.358 . S
C1679 H1737 0.930 . S
C1680 N1677 1.314 . S
C1680 C1678 1.353 . S
C1680 H1738 0.930 . S
C1681 N1677 1.279 . S
C1681 C1679 1.358 . S
C1681 H1739 0.930 1_565 S
C1682 C1685 1.348 . S
C1682 C1686 1.356 . S
C1682 O1733 1.325 . S
C1683 N1684 1.279 . S
C1683 C1686 1.358 . S
C1683 H1740 0.930 1_554 S
N1684 C1683 1.279 . S
N1684 C1687 1.314 . S
C1685 C1682 1.348 . S
C1685 C1687 1.353 . S
C1685 H1741 0.929 . S
C1686 C1682 1.356 . S
C1686 C1683 1.358 . S
C1686 H1742 0.930 1_554 S
C1687 N1684 1.314 . S
C1687 C1685 1.353 . S
C1687 H1743 0.930 . S
C1688 N1689 1.314 1_556 S
C1688 C1693 1.353 . S
C1688 H1694 0.930 . S
N1689 Li1672 1.990 . S
N1689 C1688 1.314 1_554 S
N1689 C1691 1.279 . S
C1690 C1691 1.358 . S
C1690 C1692 1.356 . S
C1690 H1744 0.930 . S
C1691 N1689 1.279 . S
C1691 C1690 1.358 . S
C1691 H1695 0.930 . S
C1692 C1690 1.356 . S
C1692 C1693 1.348 1_554 S
C1693 C1688 1.353 . S
C1693 C1692 1.348 1_556 S
C1693 H1745 0.929 . S
H1694 C1688 0.930 . S
H1695 C1691 0.930 . S
C1696 N1697 1.314 . S
C1696 C1698 1.353 . S
C1696 H1702 0.930 . S
N1697 Li1673 1.990 . S
N1697 C1696 1.314 . S
N1697 C1700 1.279 . S
C1698 C1696 1.353 . S
C1698 C1701 1.348 . S
C1698 H1746 0.929 . S
C1699 C1700 1.358 . S
C1699 C1701 1.356 . S
C1699 H1747 0.930 . S
C1700 N1697 1.279 . S
C1700 C1699 1.358 . S
C1700 H1703 0.930 . S
C1701 C1698 1.348 . S
C1701 C1699 1.356 . S
H1702 C1696 0.930 . S
H1703 C1700 0.930 . S
C1704 C1706 1.348 . S
C1704 C1707 1.356 . S
C1704 O1734 1.325 . S
N1705 C1708 1.314 . S
N1705 C1709 1.279 . S
C1706 C1704 1.348 . S
C1706 C1708 1.353 . S
C1706 H1748 0.929 . S
C1707 C1704 1.356 . S
C1707 C1709 1.358 . S
C1707 H1749 0.930 . S
C1708 N1705 1.314 . S
C1708 C1706 1.353 . S
C1708 H1750 0.930 . S
C1709 N1705 1.279 . S
C1709 C1707 1.358 . S
C1709 H1751 0.930 1_565 S
C1710 C1711 1.344 1_554 S
C1710 C1712 1.356 . S
C1710 O1735 1.325 . S
C1711 C1710 1.344 1_556 S
C1711 C1713 1.353 . S
C1711 H1752 0.933 . S
C1712 C1710 1.356 . S
C1712 C1714 1.358 . S
C1712 H1753 0.930 . S
C1713 C1711 1.353 . S
C1713 N1715 1.312 1_556 S
C1713 H1754 0.932 . S
C1714 C1712 1.358 . S
C1714 N1715 1.279 . S
C1714 H1755 0.930 . S
N1715 C1713 1.312 1_554 S
N1715 C1714 1.279 . S
C1716 C1718 1.353 . S
C1716 N1719 1.314 . S
C1716 H1722 0.930 . S
C1717 N1719 1.279 1_556 S
C1717 C1720 1.358 . S
C1717 H1723 0.930 . S
C1718 C1716 1.353 . S
C1718 C1721 1.348 . S
C1718 H1756 0.929 . S
N1719 Li1674 1.990 . S
N1719 C1716 1.314 . S
N1719 C1717 1.279 1_554 S
C1720 C1717 1.358 . S
C1720 C1721 1.356 1_556 S
C1720 H1757 0.930 . S
C1721 C1718 1.348 . S
C1721 C1720 1.356 1_554 S
H1722 C1716 0.930 . S
H1723 C1717 0.930 . S
C1724 N1725 1.314 . S
C1724 C1726 1.353 . S
C1724 H1730 0.930 . S
N1725 Li1675 1.990 . S
N1725 C1724 1.314 . S
N1725 C1728 1.279 . S
C1726 C1724 1.353 . S
C1726 C1729 1.348 . S
C1726 H1758 0.929 . S
C1727 C1728 1.358 . S
C1727 C1729 1.356 . S
C1727 H1759 0.930 . S
C1728 N1725 1.279 . S
C1728 C1727 1.358 . S
C1728 H1731 0.930 . S
C1729 C1726 1.348 . S
C1729 C1727 1.356 . S
H1730 C1724 0.930 . S
H1731 C1728 0.930 . S
O1732 Li1672 1.956 . S
O1732 Li1673 1.970 . S
O1732 Li1674 1.961 . S
O1732 C1676 1.325 . S
O1733 Li1672 1.970 . S
O1733 Li1673 1.956 . S
O1733 Li1675 1.961 1_554 S
O1733 C1682 1.325 . S
O1734 Li1672 1.961 1_556 S
O1734 Li1674 1.956 1_556 S
O1734 Li1675 1.970 . S
O1734 C1704 1.325 . S
O1735 Li1673 1.961 . S
O1735 Li1674 1.970 . S
O1735 Li1675 1.956 1_554 S
O1735 C1710 1.325 . S
H1736 C1678 0.929 . S
H1737 C1679 0.930 . S
H1738 C1680 0.930 . S
H1739 C1681 0.930 1_545 S
H1740 C1683 0.930 1_556 S
H1741 C1685 0.929 . S
H1742 C1686 0.930 1_556 S
H1743 C1687 0.930 . S
H1744 C1690 0.930 . S
H1745 C1693 0.929 . S
H1746 C1698 0.929 . S
H1747 C1699 0.930 . S
H1748 C1706 0.929 . S
H1749 C1707 0.930 . S
H1750 C1708 0.930 . S
H1751 C1709 0.930 1_545 S
H1752 C1711 0.933 . S
H1753 C1712 0.930 . S
H1754 C1713 0.932 . S
H1755 C1714 0.930 . S
H1756 C1718 0.929 . S
H1757 C1720 0.930 . S
H1758 C1726 0.929 . S
H1759 C1727 0.930 . S
Li1760 N1777 1.990 . S
Li1760 O1820 1.956 1_554 S
Li1760 O1821 1.970 . S
Li1760 O1822 1.961 . S
Li1761 N1785 1.990 . S
Li1761 O1820 1.970 1_554 S
Li1761 O1821 1.956 . S
Li1761 O1823 1.961 1_554 S
Li1762 N1807 1.990 . S
Li1762 O1820 1.961 . S
Li1762 O1822 1.956 1_556 S
Li1762 O1823 1.970 . S
Li1763 N1813 1.990 . S
Li1763 O1821 1.952 1_556 S
Li1763 O1822 1.970 1_556 S
Li1763 O1823 1.965 . S
C1764 C1766 1.357 . S
C1764 C1767 1.351 1_554 S
C1764 O1820 1.324 1_554 S
N1765 C1768 1.314 . S
N1765 C1769 1.279 1_554 S
C1766 C1764 1.357 . S
C1766 C1768 1.353 . S
C1766 H1824 0.929 . S
C1767 C1764 1.351 1_556 S
C1767 C1769 1.358 . S
C1767 H1825 0.930 . S
C1768 N1765 1.314 . S
C1768 C1766 1.353 . S
C1768 H1826 0.930 . S
C1769 N1765 1.279 1_556 S
C1769 C1767 1.358 . S
C1769 H1827 0.930 . S
C1770 C1773 1.348 . S
C1770 C1774 1.356 . S
C1770 O1821 1.325 . S
C1771 N1772 1.279 . S
C1771 C1774 1.358 . S
C1771 H1828 0.930 . S
N1772 C1771 1.279 . S
N1772 C1775 1.314 . S
C1773 C1770 1.348 . S
C1773 C1775 1.353 . S
C1773 H1829 0.929 . S
C1774 C1770 1.356 . S
C1774 C1771 1.358 . S
C1774 H1830 0.930 . S
C1775 N1772 1.314 . S
C1775 C1773 1.353 . S
C1775 H1831 0.930 . S
C1776 N1777 1.314 . S
C1776 C1781 1.353 . S
C1776 H1782 0.930 . S
N1777 Li1760 1.990 . S
N1777 C1776 1.314 . S
N1777 C1779 1.279 . S
C1778 C1779 1.358 . S
C1778 C1780 1.356 . S
C1778 H1832 0.930 . S
C1779 N1777 1.279 . S
C1779 C1778 1.358 . S
C1779 H1783 0.930 . S
C1780 C1778 1.356 . S
C1780 C1781 1.348 . S
C1781 C1776 1.353 . S
C1781 C1780 1.348 . S
C1781 H1833 0.929 . S
H1782 C1776 0.930 . S
H1783 C1779 0.930 . S
C1784 N1785 1.314 1_556 S
C1784 C1786 1.353 . S
C1784 H1790 0.930 . S
N1785 Li1761 1.990 . S
N1785 C1784 1.314 1_554 S
N1785 C1788 1.279 . S
C1786 C1784 1.353 . S
C1786 C1789 1.349 1_556 S
C1786 H1834 0.929 . S
C1787 C1788 1.358 . S
C1787 C1789 1.355 . S
C1787 H1835 0.930 . S
C1788 N1785 1.279 . S
C1788 C1787 1.358 . S
C1788 H1791 0.930 . S
C1789 C1786 1.349 1_554 S
C1789 C1787 1.355 . S
H1790 C1784 0.930 . S
H1791 C1788 0.930 . S
C1792 C1794 1.348 1_554 S
C1792 C1795 1.356 . S
C1792 O1822 1.325 . S
N1793 C1796 1.314 . S
N1793 C1797 1.279 1_556 S
C1794 C1792 1.348 1_556 S
C1794 C1796 1.353 . S
C1794 H1836 0.929 . S
C1795 C1792 1.356 . S
C1795 C1797 1.358 . S
C1795 H1837 0.930 . S
C1796 N1793 1.314 . S
C1796 C1794 1.353 . S
C1796 H1838 0.930 . S
C1797 N1793 1.279 1_554 S
C1797 C1795 1.358 . S
C1797 H1839 0.930 . S
C1798 C1799 1.348 . S
C1798 C1800 1.356 . S
C1798 O1823 1.325 . S
C1799 C1798 1.348 . S
C1799 C1801 1.353 . S
C1799 H1840 0.929 . S
C1800 C1798 1.356 . S
C1800 C1802 1.358 . S
C1800 H1841 0.930 . S
C1801 C1799 1.353 . S
C1801 N1803 1.314 . S
C1801 H1842 0.930 . S
C1802 C1800 1.358 . S
C1802 N1803 1.279 . S
C1802 H1843 0.930 . S
N1803 C1801 1.314 . S
N1803 C1802 1.279 . S
C1804 C1806 1.353 . S
C1804 N1807 1.314 . S
C1804 H1810 0.930 . S
C1805 N1807 1.279 . S
C1805 C1808 1.358 . S
C1805 H1811 0.930 . S
C1806 C1804 1.353 . S
C1806 C1809 1.348 . S
C1806 H1844 0.929 . S
N1807 Li1762 1.990 . S
N1807 C1804 1.314 . S
N1807 C1805 1.279 . S
C1808 C1805 1.358 . S
C1808 C1809 1.356 . S
C1808 H1845 0.930 . S
C1809 C1806 1.348 . S
C1809 C1808 1.356 . S
H1810 C1804 0.930 . S
H1811 C1805 0.930 . S
C1812 N1813 1.314 1_554 S
C1812 C1814 1.353 . S
C1812 H1818 0.930 . S
N1813 Li1763 1.990 . S
N1813 C1812 1.314 1_556 S
N1813 C1816 1.279 . S
C1814 C1812 1.353 . S
C1814 C1817 1.345 . S
C1814 H1846 0.929 . S
C1815 C1816 1.358 . S
C1815 C1817 1.358 1_556 S
C1815 H1847 0.930 . S
C1816 N1813 1.279 . S
C1816 C1815 1.358 . S
C1816 H1819 0.930 . S
C1817 C1814 1.345 . S
C1817 C1815 1.358 1_554 S
H1818 C1812 0.930 . S
H1819 C1816 0.930 . S
O1820 Li1760 1.956 1_556 S
O1820 Li1761 1.970 1_556 S
O1820 Li1762 1.961 . S
O1820 C1764 1.324 1_556 S
O1821 Li1760 1.970 . S
O1821 Li1761 1.956 . S
O1821 Li1763 1.952 1_554 S
O1821 C1770 1.325 . S
O1822 Li1760 1.961 . S
O1822 Li1762 1.956 1_554 S
O1822 Li1763 1.970 1_554 S
O1822 C1792 1.325 . S
O1823 Li1761 1.961 1_556 S
O1823 Li1762 1.970 . S
O1823 Li1763 1.965 . S
O1823 C1798 1.325 . S
H1824 C1766 0.929 . S
H1825 C1767 0.930 . S
H1826 C1768 0.930 . S
H1827 C1769 0.930 . S
H1828 C1771 0.930 . S
H1829 C1773 0.929 . S
H1830 C1774 0.930 . S
H1831 C1775 0.930 . S
H1832 C1778 0.930 . S
H1833 C1781 0.929 . S
H1834 C1786 0.929 . S
H1835 C1787 0.930 . S
H1836 C1794 0.929 . S
H1837 C1795 0.930 . S
H1838 C1796 0.930 . S
H1839 C1797 0.930 . S
H1840 C1799 0.929 . S
H1841 C1800 0.930 . S
H1842 C1801 0.930 . S
H1843 C1802 0.930 . S
H1844 C1806 0.929 . S
H1845 C1808 0.930 . S
H1846 C1814 0.929 . S
H1847 C1815 0.930 . S
Li1848 N1865 1.990 . S
Li1848 O1908 1.956 . S
Li1848 O1909 1.970 . S
Li1848 O1910 1.961 . S
Li1849 N1873 1.990 . S
Li1849 O1908 1.970 . S
Li1849 O1909 1.956 . S
Li1849 O1911 1.961 . S
Li1850 N1895 1.990 . S
Li1850 O1908 1.961 . S
Li1850 O1910 1.956 . S
Li1850 O1911 1.970 . S
Li1851 N1901 1.990 . S
Li1851 O1909 1.961 . S
Li1851 O1910 1.970 . S
Li1851 O1911 1.956 . S
C1852 C1854 1.348 . S
C1852 C1855 1.356 . S
C1852 O1908 1.325 . S
N1853 C1856 1.314 . S
N1853 C1857 1.279 . S
C1854 C1852 1.348 . S
C1854 C1856 1.353 . S
C1854 H1912 0.929 . S
C1855 C1852 1.356 . S
C1855 C1857 1.358 . S
C1855 H1913 0.930 . S
C1856 N1853 1.314 . S
C1856 C1854 1.353 . S
C1856 H1914 0.930 . S
C1857 N1853 1.279 . S
C1857 C1855 1.358 . S
C1857 H1915 0.930 . S
C1858 C1861 1.348 . S
C1858 C1862 1.356 . S
C1858 O1909 1.325 . S
C1859 N1860 1.279 . S
C1859 C1862 1.358 . S
C1859 H1916 0.930 . S
N1860 C1859 1.279 . S
N1860 C1863 1.314 . S
C1861 C1858 1.348 . S
C1861 C1863 1.353 . S
C1861 H1917 0.929 . S
C1862 C1858 1.356 . S
C1862 C1859 1.358 . S
C1862 H1918 0.930 . S
C1863 N1860 1.314 . S
C1863 C1861 1.353 . S
C1863 H1919 0.930 . S
C1864 N1865 1.314 . S
C1864 C1869 1.353 . S
C1864 H1870 0.930 . S
N1865 Li1848 1.990 . S
N1865 C1864 1.314 . S
N1865 C1867 1.279 . S
C1866 C1867 1.358 . S
C1866 C1868 1.356 . S
C1866 H1920 0.930 . S
C1867 N1865 1.279 . S
C1867 C1866 1.358 . S
C1867 H1871 0.930 . S
C1868 C1866 1.356 . S
C1868 C1869 1.348 . S
C1869 C1864 1.353 . S
C1869 C1868 1.348 . S
C1869 H1921 0.929 . S
H1870 C1864 0.930 . S
H1871 C1867 0.930 . S
C1872 N1873 1.314 . S
C1872 C1874 1.353 . S
C1872 H1878 0.930 . S
N1873 Li1849 1.990 . S
N1873 C1872 1.314 . S
N1873 C1876 1.279 . S
C1874 C1872 1.353 . S
C1874 C1877 1.348 . S
C1874 H1922 0.929 . S
C1875 C1876 1.358 . S
C1875 C1877 1.356 . S
C1875 H1923 0.930 . S
C1876 N1873 1.279 . S
C1876 C1875 1.358 . S
C1876 H1879 0.930 . S
C1877 C1874 1.348 . S
C1877 C1875 1.356 . S
H1878 C1872 0.930 . S
H1879 C1876 0.930 . S
C1880 C1882 1.348 . S
C1880 C1883 1.356 . S
C1880 O1910 1.325 . S
N1881 C1884 1.314 . S
N1881 C1885 1.279 . S
C1882 C1880 1.348 . S
C1882 C1884 1.353 . S
C1882 H1924 0.929 . S
C1883 C1880 1.356 . S
C1883 C1885 1.358 . S
C1883 H1925 0.930 . S
C1884 N1881 1.314 . S
C1884 C1882 1.353 . S
C1884 H1926 0.930 . S
C1885 N1881 1.279 . S
C1885 C1883 1.358 . S
C1885 H1927 0.930 . S
C1886 C1887 1.348 . S
C1886 C1888 1.356 . S
C1886 O1911 1.325 . S
C1887 C1886 1.348 . S
C1887 C1889 1.353 . S
C1887 H1928 0.929 . S
C1888 C1886 1.356 . S
C1888 C1890 1.358 . S
C1888 H1929 0.930 . S
C1889 C1887 1.353 . S
C1889 N1891 1.314 . S
C1889 H1930 0.930 . S
C1890 C1888 1.358 . S
C1890 N1891 1.279 . S
C1890 H1931 0.930 . S
N1891 C1889 1.314 . S
N1891 C1890 1.279 . S
C1892 C1894 1.353 . S
C1892 N1895 1.314 . S
C1892 H1898 0.930 . S
C1893 N1895 1.279 . S
C1893 C1896 1.358 . S
C1893 H1899 0.930 . S
C1894 C1892 1.353 . S
C1894 C1897 1.348 . S
C1894 H1932 0.929 . S
N1895 Li1850 1.990 . S
N1895 C1892 1.314 . S
N1895 C1893 1.279 . S
C1896 C1893 1.358 . S
C1896 C1897 1.356 . S
C1896 H1933 0.930 . S
C1897 C1894 1.348 . S
C1897 C1896 1.356 . S
H1898 C1892 0.930 . S
H1899 C1893 0.930 . S
C1900 N1901 1.314 . S
C1900 C1902 1.353 . S
C1900 H1906 0.930 . S
N1901 Li1851 1.990 . S
N1901 C1900 1.314 . S
N1901 C1904 1.279 . S
C1902 C1900 1.353 . S
C1902 C1905 1.348 . S
C1902 H1934 0.929 . S
C1903 C1904 1.358 . S
C1903 C1905 1.356 . S
C1903 H1935 0.930 . S
C1904 N1901 1.279 . S
C1904 C1903 1.358 . S
C1904 H1907 0.930 . S
C1905 C1902 1.348 . S
C1905 C1903 1.356 . S
H1906 C1900 0.930 . S
H1907 C1904 0.930 . S
O1908 Li1848 1.956 . S
O1908 Li1849 1.970 . S
O1908 Li1850 1.961 . S
O1908 C1852 1.325 . S
O1909 Li1848 1.970 . S
O1909 Li1849 1.956 . S
O1909 Li1851 1.961 . S
O1909 C1858 1.325 . S
O1910 Li1848 1.961 . S
O1910 Li1850 1.956 . S
O1910 Li1851 1.970 . S
O1910 C1880 1.325 . S
O1911 Li1849 1.961 . S
O1911 Li1850 1.970 . S
O1911 Li1851 1.956 . S
O1911 C1886 1.325 . S
H1912 C1854 0.929 . S
H1913 C1855 0.930 . S
H1914 C1856 0.930 . S
H1915 C1857 0.930 . S
H1916 C1859 0.930 . S
H1917 C1861 0.929 . S
H1918 C1862 0.930 . S
H1919 C1863 0.930 . S
H1920 C1866 0.930 . S
H1921 C1869 0.929 . S
H1922 C1874 0.929 . S
H1923 C1875 0.930 . S
H1924 C1882 0.929 . S
H1925 C1883 0.930 . S
H1926 C1884 0.930 . S
H1927 C1885 0.930 . S
H1928 C1887 0.929 . S
H1929 C1888 0.930 . S
H1930 C1889 0.930 . S
H1931 C1890 0.930 . S
H1932 C1894 0.929 . S
H1933 C1896 0.930 . S
H1934 C1902 0.929 . S
H1935 C1903 0.930 . S
Li1936 N1953 1.990 . S
Li1936 O1996 1.956 . S
Li1936 O1997 1.970 . S
Li1936 O1998 1.961 . S
Li1937 N1961 1.990 . S
Li1937 O1996 1.970 . S
Li1937 O1997 1.956 . S
Li1937 O1999 1.961 . S
Li1938 N1983 1.990 . S
Li1938 O1996 1.961 . S
Li1938 O1998 1.956 . S
Li1938 O1999 1.970 . S
Li1939 N1989 1.990 . S
Li1939 O1997 1.961 . S
Li1939 O1998 1.970 . S
Li1939 O1999 1.956 . S
C1940 C1942 1.348 . S
C1940 C1943 1.356 . S
C1940 O1996 1.325 . S
N1941 C1944 1.314 . S
N1941 C1945 1.279 . S
C1942 C1940 1.348 . S
C1942 C1944 1.353 . S
C1942 H2000 0.929 . S
C1943 C1940 1.356 . S
C1943 C1945 1.358 . S
C1943 H2001 0.930 . S
C1944 N1941 1.314 . S
C1944 C1942 1.353 . S
C1944 H2002 0.930 . S
C1945 N1941 1.279 . S
C1945 C1943 1.358 . S
C1945 H2003 0.930 . S
C1946 C1949 1.348 . S
C1946 C1950 1.356 . S
C1946 O1997 1.325 . S
C1947 N1948 1.279 . S
C1947 C1950 1.358 . S
C1947 H2004 0.930 . S
N1948 C1947 1.279 . S
N1948 C1951 1.314 . S
C1949 C1946 1.348 . S
C1949 C1951 1.353 . S
C1949 H2005 0.929 . S
C1950 C1946 1.356 . S
C1950 C1947 1.358 . S
C1950 H2006 0.930 . S
C1951 N1948 1.314 . S
C1951 C1949 1.353 . S
C1951 H2007 0.930 . S
C1952 N1953 1.314 . S
C1952 C1957 1.353 . S
C1952 H1958 0.930 . S
N1953 Li1936 1.990 . S
N1953 C1952 1.314 . S
N1953 C1955 1.279 . S
C1954 C1955 1.358 . S
C1954 C1956 1.356 . S
C1954 H2008 0.930 . S
C1955 N1953 1.279 . S
C1955 C1954 1.358 . S
C1955 H1959 0.930 . S
C1956 C1954 1.356 . S
C1956 C1957 1.348 . S
C1957 C1952 1.353 . S
C1957 C1956 1.348 . S
C1957 H2009 0.929 . S
H1958 C1952 0.930 . S
H1959 C1955 0.930 . S
C1960 N1961 1.314 . S
C1960 C1962 1.353 . S
C1960 H1966 0.930 . S
N1961 Li1937 1.990 . S
N1961 C1960 1.314 . S
N1961 C1964 1.279 . S
C1962 C1960 1.353 . S
C1962 C1965 1.348 . S
C1962 H2010 0.929 . S
C1963 C1964 1.358 . S
C1963 C1965 1.356 . S
C1963 H2011 0.930 . S
C1964 N1961 1.279 . S
C1964 C1963 1.358 . S
C1964 H1967 0.930 . S
C1965 C1962 1.348 . S
C1965 C1963 1.356 . S
H1966 C1960 0.930 . S
H1967 C1964 0.930 . S
C1968 C1970 1.348 . S
C1968 C1971 1.356 . S
C1968 O1998 1.325 . S
N1969 C1972 1.314 . S
N1969 C1973 1.279 . S
C1970 C1968 1.348 . S
C1970 C1972 1.353 . S
C1970 H2012 0.929 . S
C1971 C1968 1.356 . S
C1971 C1973 1.358 . S
C1971 H2013 0.930 . S
C1972 N1969 1.314 . S
C1972 C1970 1.353 . S
C1972 H2014 0.930 . S
C1973 N1969 1.279 . S
C1973 C1971 1.358 . S
C1973 H2015 0.930 . S
C1974 C1975 1.348 . S
C1974 C1976 1.356 . S
C1974 O1999 1.325 . S
C1975 C1974 1.348 . S
C1975 C1977 1.353 . S
C1975 H2016 0.929 . S
C1976 C1974 1.356 . S
C1976 C1978 1.358 . S
C1976 H2017 0.930 . S
C1977 C1975 1.353 . S
C1977 N1979 1.314 . S
C1977 H2018 0.930 . S
C1978 C1976 1.358 . S
C1978 N1979 1.279 . S
C1978 H2019 0.930 . S
N1979 C1977 1.314 . S
N1979 C1978 1.279 . S
C1980 C1982 1.353 . S
C1980 N1983 1.314 . S
C1980 H1986 0.930 . S
C1981 N1983 1.279 . S
C1981 C1984 1.358 . S
C1981 H1987 0.930 . S
C1982 C1980 1.353 . S
C1982 C1985 1.348 . S
C1982 H2020 0.929 . S
N1983 Li1938 1.990 . S
N1983 C1980 1.314 . S
N1983 C1981 1.279 . S
C1984 C1981 1.358 . S
C1984 C1985 1.356 . S
C1984 H2021 0.930 . S
C1985 C1982 1.348 . S
C1985 C1984 1.356 . S
H1986 C1980 0.930 . S
H1987 C1981 0.930 . S
C1988 N1989 1.314 . S
C1988 C1990 1.353 . S
C1988 H1994 0.930 . S
N1989 Li1939 1.990 . S
N1989 C1988 1.314 . S
N1989 C1992 1.279 . S
C1990 C1988 1.353 . S
C1990 C1993 1.348 . S
C1990 H2022 0.929 . S
C1991 C1992 1.358 . S
C1991 C1993 1.356 . S
C1991 H2023 0.930 . S
C1992 N1989 1.279 . S
C1992 C1991 1.358 . S
C1992 H1995 0.930 . S
C1993 C1990 1.348 . S
C1993 C1991 1.356 . S
H1994 C1988 0.930 . S
H1995 C1992 0.930 . S
O1996 Li1936 1.956 . S
O1996 Li1937 1.970 . S
O1996 Li1938 1.961 . S
O1996 C1940 1.325 . S
O1997 Li1936 1.970 . S
O1997 Li1937 1.956 . S
O1997 Li1939 1.961 . S
O1997 C1946 1.325 . S
O1998 Li1936 1.961 . S
O1998 Li1938 1.956 . S
O1998 Li1939 1.970 . S
O1998 C1968 1.325 . S
O1999 Li1937 1.961 . S
O1999 Li1938 1.970 . S
O1999 Li1939 1.956 . S
O1999 C1974 1.325 . S
H2000 C1942 0.929 . S
H2001 C1943 0.930 . S
H2002 C1944 0.930 . S
H2003 C1945 0.930 . S
H2004 C1947 0.930 . S
H2005 C1949 0.929 . S
H2006 C1950 0.930 . S
H2007 C1951 0.930 . S
H2008 C1954 0.930 . S
H2009 C1957 0.929 . S
H2010 C1962 0.929 . S
H2011 C1963 0.930 . S
H2012 C1970 0.929 . S
H2013 C1971 0.930 . S
H2014 C1972 0.930 . S
H2015 C1973 0.930 . S
H2016 C1975 0.929 . S
H2017 C1976 0.930 . S
H2018 C1977 0.930 . S
H2019 C1978 0.930 . S
H2020 C1982 0.929 . S
H2021 C1984 0.930 . S
H2022 C1990 0.929 . S
H2023 C1991 0.930 . S
Li2024 N2041 1.990 . S
Li2024 O2084 1.956 . S
Li2024 O2085 1.970 . S
Li2024 O2086 1.961 . S
Li2025 N2049 1.990 . S
Li2025 O2084 1.970 . S
Li2025 O2085 1.956 . S
Li2025 O2087 1.961 . S
Li2026 N2071 1.990 . S
Li2026 O2084 1.961 . S
Li2026 O2086 1.956 . S
Li2026 O2087 1.970 . S
Li2027 N2077 1.990 . S
Li2027 O2085 1.961 . S
Li2027 O2086 1.970 . S
Li2027 O2087 1.956 . S
C2028 C2030 1.348 . S
C2028 C2031 1.356 . S
C2028 O2084 1.325 . S
N2029 C2032 1.314 . S
N2029 C2033 1.279 . S
C2030 C2028 1.348 . S
C2030 C2032 1.353 . S
C2030 H2088 0.929 . S
C2031 C2028 1.356 . S
C2031 C2033 1.358 . S
C2031 H2089 0.930 . S
C2032 N2029 1.314 . S
C2032 C2030 1.353 . S
C2032 H2090 0.930 . S
C2033 N2029 1.279 . S
C2033 C2031 1.358 . S
C2033 H2091 0.930 . S
C2034 C2037 1.348 . S
C2034 C2038 1.356 . S
C2034 O2085 1.325 . S
C2035 N2036 1.279 . S
C2035 C2038 1.358 . S
C2035 H2092 0.930 . S
N2036 C2035 1.279 . S
N2036 C2039 1.314 . S
C2037 C2034 1.348 . S
C2037 C2039 1.353 . S
C2037 H2093 0.929 . S
C2038 C2034 1.356 . S
C2038 C2035 1.358 . S
C2038 H2094 0.930 . S
C2039 N2036 1.314 . S
C2039 C2037 1.353 . S
C2039 H2095 0.930 . S
C2040 N2041 1.314 . S
C2040 C2045 1.353 . S
C2040 H2046 0.930 . S
N2041 Li2024 1.990 . S
N2041 C2040 1.314 . S
N2041 C2043 1.279 . S
C2042 C2043 1.358 . S
C2042 C2044 1.356 . S
C2042 H2096 0.930 . S
C2043 N2041 1.279 . S
C2043 C2042 1.358 . S
C2043 H2047 0.930 . S
C2044 C2042 1.356 . S
C2044 C2045 1.348 . S
C2045 C2040 1.353 . S
C2045 C2044 1.348 . S
C2045 H2097 0.929 . S
H2046 C2040 0.930 . S
H2047 C2043 0.930 . S
C2048 N2049 1.314 . S
C2048 C2050 1.353 . S
C2048 H2054 0.930 . S
N2049 Li2025 1.990 . S
N2049 C2048 1.314 . S
N2049 C2052 1.279 . S
C2050 C2048 1.353 . S
C2050 C2053 1.348 . S
C2050 H2098 0.929 . S
C2051 C2052 1.358 . S
C2051 C2053 1.356 . S
C2051 H2099 0.930 . S
C2052 N2049 1.279 . S
C2052 C2051 1.358 . S
C2052 H2055 0.930 . S
C2053 C2050 1.348 . S
C2053 C2051 1.356 . S
H2054 C2048 0.930 . S
H2055 C2052 0.930 . S
C2056 C2058 1.348 . S
C2056 C2059 1.356 . S
C2056 O2086 1.325 . S
N2057 C2060 1.314 . S
N2057 C2061 1.279 . S
C2058 C2056 1.348 . S
C2058 C2060 1.353 . S
C2058 H2100 0.929 . S
C2059 C2056 1.356 . S
C2059 C2061 1.358 . S
C2059 H2101 0.930 . S
C2060 N2057 1.314 . S
C2060 C2058 1.353 . S
C2060 H2102 0.930 . S
C2061 N2057 1.279 . S
C2061 C2059 1.358 . S
C2061 H2103 0.930 . S
C2062 C2063 1.348 . S
C2062 C2064 1.356 . S
C2062 O2087 1.325 . S
C2063 C2062 1.348 . S
C2063 C2065 1.353 . S
C2063 H2104 0.929 . S
C2064 C2062 1.356 . S
C2064 C2066 1.358 . S
C2064 H2105 0.930 . S
C2065 C2063 1.353 . S
C2065 N2067 1.314 . S
C2065 H2106 0.930 . S
C2066 C2064 1.358 . S
C2066 N2067 1.279 . S
C2066 H2107 0.930 . S
N2067 C2065 1.314 . S
N2067 C2066 1.279 . S
C2068 C2070 1.353 . S
C2068 N2071 1.314 . S
C2068 H2074 0.930 . S
C2069 N2071 1.279 . S
C2069 C2072 1.358 . S
C2069 H2075 0.930 . S
C2070 C2068 1.353 . S
C2070 C2073 1.348 . S
C2070 H2108 0.929 . S
N2071 Li2026 1.990 . S
N2071 C2068 1.314 . S
N2071 C2069 1.279 . S
C2072 C2069 1.358 . S
C2072 C2073 1.356 . S
C2072 H2109 0.930 . S
C2073 C2070 1.348 . S
C2073 C2072 1.356 . S
H2074 C2068 0.930 . S
H2075 C2069 0.930 . S
C2076 N2077 1.314 . S
C2076 C2078 1.353 . S
C2076 H2082 0.930 . S
N2077 Li2027 1.990 . S
N2077 C2076 1.314 . S
N2077 C2080 1.279 . S
C2078 C2076 1.353 . S
C2078 C2081 1.348 . S
C2078 H2110 0.929 . S
C2079 C2080 1.358 . S
C2079 C2081 1.356 . S
C2079 H2111 0.930 . S
C2080 N2077 1.279 . S
C2080 C2079 1.358 . S
C2080 H2083 0.930 . S
C2081 C2078 1.348 . S
C2081 C2079 1.356 . S
H2082 C2076 0.930 . S
H2083 C2080 0.930 . S
O2084 Li2024 1.956 . S
O2084 Li2025 1.970 . S
O2084 Li2026 1.961 . S
O2084 C2028 1.325 . S
O2085 Li2024 1.970 . S
O2085 Li2025 1.956 . S
O2085 Li2027 1.961 . S
O2085 C2034 1.325 . S
O2086 Li2024 1.961 . S
O2086 Li2026 1.956 . S
O2086 Li2027 1.970 . S
O2086 C2056 1.325 . S
O2087 Li2025 1.961 . S
O2087 Li2026 1.970 . S
O2087 Li2027 1.956 . S
O2087 C2062 1.325 . S
H2088 C2030 0.929 . S
H2089 C2031 0.930 . S
H2090 C2032 0.930 . S
H2091 C2033 0.930 . S
H2092 C2035 0.930 . S
H2093 C2037 0.929 . S
H2094 C2038 0.930 . S
H2095 C2039 0.930 . S
H2096 C2042 0.930 . S
H2097 C2045 0.929 . S
H2098 C2050 0.929 . S
H2099 C2051 0.930 . S
H2100 C2058 0.929 . S
H2101 C2059 0.930 . S
H2102 C2060 0.930 . S
H2103 C2061 0.930 . S
H2104 C2063 0.929 . S
H2105 C2064 0.930 . S
H2106 C2065 0.930 . S
H2107 C2066 0.930 . S
H2108 C2070 0.929 . S
H2109 C2072 0.930 . S
H2110 C2078 0.929 . S
H2111 C2079 0.930 . S
O2112 Mg2113 1.990 . S
O2112 C2126 1.253 . S
Mg2113 O2112 1.990 . S
Mg2113 O2116 2.180 1_556 S
Mg2113 O2117 2.117 1_556 S
Mg2113 O2131 2.033 . S
O2114 Mg2115 2.072 1_656 S
O2114 C2126 1.260 . S
Mg2115 O2114 2.072 1_454 S
Mg2115 O2116 2.099 1_455 S
Mg2115 O2118 2.079 1_545 S
Mg2115 O2119 2.070 1_554 S
Mg2115 O2121 2.099 1_544 S
Mg2115 O2132 2.079 1_445 S
O2116 Mg2113 2.180 1_554 S
O2116 Mg2115 2.099 1_655 S
O2116 C2127 1.279 . S
O2117 Mg2113 2.117 1_554 S
O2117 C2127 1.250 . S
O2118 Mg2115 2.079 1_565 S
O2118 C2128 1.264 . S
O2119 Mg2115 2.070 1_556 S
O2119 C2129 1.262 . S
Mg2120 O2121 2.180 1_554 S
Mg2120 O2122 2.030 . S
Mg2120 O2123 1.990 1_554 S
Mg2120 O2124 2.117 1_554 S
O2121 Mg2115 2.099 1_566 S
O2121 Mg2120 2.180 1_556 S
O2121 C2130 1.279 . S
O2122 Mg2120 2.030 . S
O2122 C2128 1.248 . S
O2123 Mg2120 1.990 1_556 S
O2123 C2129 1.253 1_565 S
O2124 Mg2120 2.117 1_556 S
O2124 C2130 1.250 . S
C2125 O2131 1.233 1_564 S
C2125 O2132 1.264 . S
C2126 O2112 1.253 . S
C2126 O2114 1.260 . S
C2127 O2116 1.279 . S
C2127 O2117 1.250 . S
C2128 O2118 1.264 . S
C2128 O2122 1.248 . S
C2129 O2119 1.262 . S
C2129 O2123 1.253 1_545 S
C2130 O2121 1.279 . S
C2130 O2124 1.250 . S
O2131 Mg2113 2.033 . S
O2131 C2125 1.233 1_546 S
O2132 Mg2115 2.079 1_665 S
O2132 C2125 1.264 . S
O2133 Mg2134 1.990 . S
O2133 C2147 1.253 . S
Mg2134 O2133 1.990 . S
Mg2134 O2137 2.180 . S
Mg2134 O2138 2.117 . S
Mg2134 O2152 2.030 . S
O2135 Mg2136 2.072 . S
O2135 C2147 1.260 . S
Mg2136 O2135 2.072 . S
Mg2136 O2137 2.099 . S
Mg2136 O2139 2.079 . S
Mg2136 O2140 2.072 . S
Mg2136 O2142 2.099 . S
Mg2136 O2153 2.079 . S
O2137 Mg2134 2.180 . S
O2137 Mg2136 2.099 . S
O2137 C2148 1.279 . S
O2138 Mg2134 2.117 . S
O2138 C2148 1.250 . S
O2139 Mg2136 2.079 . S
O2139 C2149 1.264 . S
O2140 Mg2136 2.072 . S
O2140 C2150 1.260 . S
Mg2141 O2142 2.180 . S
Mg2141 O2143 2.030 . S
Mg2141 O2144 1.990 . S
Mg2141 O2145 2.117 . S
O2142 Mg2136 2.099 . S
O2142 Mg2141 2.180 . S
O2142 C2151 1.279 . S
O2143 Mg2141 2.030 . S
O2143 C2149 1.248 . S
O2144 Mg2141 1.990 . S
O2144 C2150 1.253 . S
O2145 Mg2141 2.117 . S
O2145 C2151 1.250 . S
C2146 O2152 1.248 . S
C2146 O2153 1.264 . S
C2147 O2133 1.253 . S
C2147 O2135 1.260 . S
C2148 O2137 1.279 . S
C2148 O2138 1.250 . S
C2149 O2139 1.264 . S
C2149 O2143 1.248 . S
C2150 O2140 1.260 . S
C2150 O2144 1.253 . S
C2151 O2142 1.279 . S
C2151 O2145 1.250 . S
O2152 Mg2134 2.030 . S
O2152 C2146 1.248 . S
O2153 Mg2136 2.079 . S
O2153 C2146 1.264 . S
O2154 Mg2155 1.990 . S
O2154 C2168 1.253 . S
Mg2155 O2154 1.990 . S
Mg2155 O2158 2.180 . S
Mg2155 O2159 2.117 . S
Mg2155 O2173 2.030 1_565 S
O2156 Mg2157 2.072 . S
O2156 C2168 1.260 1_545 S
Mg2157 O2156 2.072 . S
Mg2157 O2158 2.099 1_545 S
Mg2157 O2160 2.079 . S
Mg2157 O2161 2.072 1_545 S
Mg2157 O2163 2.099 . S
Mg2157 O2174 2.079 . S
O2158 Mg2155 2.180 . S
O2158 Mg2157 2.099 1_565 S
O2158 C2169 1.279 . S
O2159 Mg2155 2.117 . S
O2159 C2169 1.250 . S
O2160 Mg2157 2.079 . S
O2160 C2170 1.264 . S
O2161 Mg2157 2.072 1_565 S
O2161 C2171 1.260 . S
Mg2162 O2163 2.180 . S
Mg2162 O2164 2.030 . S
Mg2162 O2165 1.990 . S
Mg2162 O2166 2.117 . S
O2163 Mg2157 2.099 . S
O2163 Mg2162 2.180 . S
O2163 C2172 1.279 . S
O2164 Mg2162 2.030 . S
O2164 C2170 1.248 . S
O2165 Mg2162 1.990 . S
O2165 C2171 1.253 1_545 S
O2166 Mg2162 2.117 . S
O2166 C2172 1.250 . S
C2167 O2173 1.248 . S
C2167 O2174 1.264 . S
C2168 O2154 1.253 . S
C2168 O2156 1.260 1_565 S
C2169 O2158 1.279 . S
C2169 O2159 1.250 . S
C2170 O2160 1.264 . S
C2170 O2164 1.248 . S
C2171 O2161 1.260 . S
C2171 O2165 1.253 1_565 S
C2172 O2163 1.279 . S
C2172 O2166 1.250 . S
O2173 Mg2155 2.030 1_545 S
O2173 C2167 1.248 . S
O2174 Mg2157 2.079 . S
O2174 C2167 1.264 . S
O2175 Mg2176 1.990 . S
O2175 C2189 1.253 . S
Mg2176 O2175 1.990 . S
Mg2176 O2179 2.180 . S
Mg2176 O2180 2.117 . S
Mg2176 O2194 2.030 . S
O2177 Mg2178 2.072 . S
O2177 C2189 1.260 . S
Mg2178 O2177 2.072 . S
Mg2178 O2179 2.099 . S
Mg2178 O2181 2.079 . S
Mg2178 O2182 2.072 . S
Mg2178 O2184 2.099 . S
Mg2178 O2195 2.079 . S
O2179 Mg2176 2.180 . S
O2179 Mg2178 2.099 . S
O2179 C2190 1.279 . S
O2180 Mg2176 2.117 . S
O2180 C2190 1.250 . S
O2181 Mg2178 2.079 . S
O2181 C2191 1.264 . S
O2182 Mg2178 2.072 . S
O2182 C2192 1.260 . S
Mg2183 O2184 2.180 . S
Mg2183 O2185 2.030 . S
Mg2183 O2186 1.990 . S
Mg2183 O2187 2.117 . S
O2184 Mg2178 2.099 . S
O2184 Mg2183 2.180 . S
O2184 C2193 1.279 . S
O2185 Mg2183 2.030 . S
O2185 C2191 1.248 . S
O2186 Mg2183 1.990 . S
O2186 C2192 1.253 . S
O2187 Mg2183 2.117 . S
O2187 C2193 1.250 . S
C2188 O2194 1.248 . S
C2188 O2195 1.264 . S
C2189 O2175 1.253 . S
C2189 O2177 1.260 . S
C2190 O2179 1.279 . S
C2190 O2180 1.250 . S
C2191 O2181 1.264 . S
C2191 O2185 1.248 . S
C2192 O2182 1.260 . S
C2192 O2186 1.253 . S
C2193 O2184 1.279 . S
C2193 O2187 1.250 . S
O2194 Mg2176 2.030 . S
O2194 C2188 1.248 . S
O2195 Mg2178 2.079 . S
O2195 C2188 1.264 . S
O2196 Mg2197 1.990 1_655 S
O2196 C2210 1.253 . S
Mg2197 O2196 1.990 1_455 S
Mg2197 O2200 2.179 1_455 S
Mg2197 O2201 2.117 1_455 S
Mg2197 O2215 2.030 . S
O2198 Mg2199 2.072 1_565 S
O2198 C2210 1.260 1_455 S
Mg2199 O2198 2.072 1_545 S
Mg2199 O2200 2.098 1_445 S
Mg2199 O2202 2.079 . S
Mg2199 O2203 2.072 1_455 S
Mg2199 O2205 2.099 . S
Mg2199 O2216 2.079 1_545 S
O2200 Mg2197 2.179 1_655 S
O2200 Mg2199 2.098 1_665 S
O2200 C2211 1.282 . S
O2201 Mg2197 2.117 1_655 S
O2201 C2211 1.250 . S
O2202 Mg2199 2.079 . S
O2202 C2212 1.264 . S
O2203 Mg2199 2.072 1_655 S
O2203 C2213 1.260 . S
Mg2204 O2205 2.180 1_655 S
Mg2204 O2206 2.028 1_655 S
Mg2204 O2207 1.990 . S
Mg2204 O2208 2.117 1_655 S
O2205 Mg2199 2.099 . S
O2205 Mg2204 2.180 1_455 S
O2205 C2214 1.279 . S
O2206 Mg2204 2.028 1_455 S
O2206 C2212 1.260 . S
O2207 Mg2204 1.990 . S
O2207 C2213 1.253 . S
O2208 Mg2204 2.117 1_455 S
O2208 C2214 1.250 . S
C2209 O2215 1.248 . S
C2209 O2216 1.264 . S
C2210 O2196 1.253 . S
C2210 O2198 1.260 1_655 S
C2211 O2200 1.282 . S
C2211 O2201 1.250 . S
C2212 O2202 1.264 . S
C2212 O2206 1.260 . S
C2213 O2203 1.260 . S
C2213 O2207 1.253 . S
C2214 O2205 1.279 . S
C2214 O2208 1.250 . S
O2215 Mg2197 2.030 . S
O2215 C2209 1.248 . S
O2216 Mg2199 2.079 1_565 S
O2216 C2209 1.264 . S
O2217 Mg2218 1.990 . S
O2217 C2231 1.253 . S
Mg2218 O2217 1.990 . S
Mg2218 O2221 2.180 . S
Mg2218 O2222 2.117 . S
Mg2218 O2236 2.030 . S
O2219 Mg2220 2.072 . S
O2219 C2231 1.260 . S
Mg2220 O2219 2.072 . S
Mg2220 O2221 2.099 . S
Mg2220 O2223 2.079 . S
Mg2220 O2224 2.072 . S
Mg2220 O2226 2.099 . S
Mg2220 O2237 2.079 . S
O2221 Mg2218 2.180 . S
O2221 Mg2220 2.099 . S
O2221 C2232 1.279 . S
O2222 Mg2218 2.117 . S
O2222 C2232 1.250 . S
O2223 Mg2220 2.079 . S
O2223 C2233 1.264 . S
O2224 Mg2220 2.072 . S
O2224 C2234 1.260 . S
Mg2225 O2226 2.180 . S
Mg2225 O2227 2.030 . S
Mg2225 O2228 1.990 . S
Mg2225 O2229 2.117 . S
O2226 Mg2220 2.099 . S
O2226 Mg2225 2.180 . S
O2226 C2235 1.279 . S
O2227 Mg2225 2.030 . S
O2227 C2233 1.248 . S
O2228 Mg2225 1.990 . S
O2228 C2234 1.253 . S
O2229 Mg2225 2.117 . S
O2229 C2235 1.250 . S
C2230 O2236 1.248 . S
C2230 O2237 1.264 . S
C2231 O2217 1.253 . S
C2231 O2219 1.260 . S
C2232 O2221 1.279 . S
C2232 O2222 1.250 . S
C2233 O2223 1.264 . S
C2233 O2227 1.248 . S
C2234 O2224 1.260 . S
C2234 O2228 1.253 . S
C2235 O2226 1.279 . S
C2235 O2229 1.250 . S
O2236 Mg2218 2.030 . S
O2236 C2230 1.248 . S
O2237 Mg2220 2.079 . S
O2237 C2230 1.264 . S
O2238 Mg2239 1.990 . S
O2238 C2252 1.253 . S
Mg2239 O2238 1.990 . S
Mg2239 O2242 2.180 1_565 S
Mg2239 O2243 2.117 1_565 S
Mg2239 O2257 2.030 . S
O2240 Mg2241 2.072 1_565 S
O2240 C2252 1.260 . S
Mg2241 O2240 2.072 1_545 S
Mg2241 O2242 2.099 . S
Mg2241 O2244 2.079 1_554 S
Mg2241 O2245 2.072 1_544 S
Mg2241 O2247 2.099 1_544 S
Mg2241 O2258 2.079 . S
O2242 Mg2239 2.180 1_545 S
O2242 Mg2241 2.099 . S
O2242 C2253 1.279 . S
O2243 Mg2239 2.117 1_545 S
O2243 C2253 1.250 . S
O2244 Mg2241 2.079 1_556 S
O2244 C2254 1.264 . S
O2245 Mg2241 2.072 1_566 S
O2245 C2255 1.260 . S
Mg2246 O2247 2.180 1_545 S
Mg2246 O2248 2.030 . S
Mg2246 O2249 1.990 1_545 S
Mg2246 O2250 2.117 1_545 S
O2247 Mg2241 2.099 1_566 S
O2247 Mg2246 2.180 1_565 S
O2247 C2256 1.279 . S
O2248 Mg2246 2.030 . S
O2248 C2254 1.248 . S
O2249 Mg2246 1.990 1_565 S
O2249 C2255 1.253 . S
O2250 Mg2246 2.117 1_565 S
O2250 C2256 1.250 . S
C2251 O2257 1.248 1_545 S
C2251 O2258 1.264 . S
C2252 O2238 1.253 . S
C2252 O2240 1.260 . S
C2253 O2242 1.279 . S
C2253 O2243 1.250 . S
C2254 O2244 1.264 . S
C2254 O2248 1.248 . S
C2255 O2245 1.260 . S
C2255 O2249 1.253 . S
C2256 O2247 1.279 . S
C2256 O2250 1.250 . S
O2257 Mg2239 2.030 . S
O2257 C2251 1.248 1_565 S
O2258 Mg2241 2.079 . S
O2258 C2251 1.264 . S
O2259 Mg2260 1.990 . S
O2259 C2273 1.253 . S
Mg2260 O2259 1.990 . S
Mg2260 O2263 2.180 . S
Mg2260 O2264 2.117 . S
Mg2260 O2278 2.030 . S
O2261 Mg2262 2.072 . S
O2261 C2273 1.260 . S
Mg2262 O2261 2.072 . S
Mg2262 O2263 2.099 . S
Mg2262 O2265 2.079 . S
Mg2262 O2266 2.072 . S
Mg2262 O2268 2.099 . S
Mg2262 O2279 2.079 . S
O2263 Mg2260 2.180 . S
O2263 Mg2262 2.099 . S
O2263 C2274 1.279 . S
O2264 Mg2260 2.117 . S
O2264 C2274 1.250 . S
O2265 Mg2262 2.079 . S
O2265 C2275 1.264 . S
O2266 Mg2262 2.072 . S
O2266 C2276 1.260 . S
Mg2267 O2268 2.180 . S
Mg2267 O2269 2.030 . S
Mg2267 O2270 1.990 . S
Mg2267 O2271 2.117 . S
O2268 Mg2262 2.099 . S
O2268 Mg2267 2.180 . S
O2268 C2277 1.279 . S
O2269 Mg2267 2.030 . S
O2269 C2275 1.248 . S
O2270 Mg2267 1.990 . S
O2270 C2276 1.253 . S
O2271 Mg2267 2.117 . S
O2271 C2277 1.250 . S
C2272 O2278 1.248 . S
C2272 O2279 1.264 . S
C2273 O2259 1.253 . S
C2273 O2261 1.260 . S
C2274 O2263 1.279 . S
C2274 O2264 1.250 . S
C2275 O2265 1.264 . S
C2275 O2269 1.248 . S
C2276 O2266 1.260 . S
C2276 O2270 1.253 . S
C2277 O2268 1.279 . S
C2277 O2271 1.250 . S
O2278 Mg2260 2.030 . S
O2278 C2272 1.248 . S
O2279 Mg2262 2.079 . S
O2279 C2272 1.264 . S
O2280 Mg2281 1.990 . S
O2280 C2294 1.253 . S
Mg2281 O2280 1.990 . S
Mg2281 O2284 2.180 . S
Mg2281 O2285 2.117 . S
Mg2281 O2299 2.010 1_556 S
O2282 Mg2283 2.072 . S
O2282 C2294 1.260 1_554 S
Mg2283 O2282 2.072 . S
Mg2283 O2284 2.099 1_554 S
Mg2283 O2286 2.079 . S
Mg2283 O2287 2.072 1_554 S
Mg2283 O2289 2.099 . S
Mg2283 O2300 2.079 . S
O2284 Mg2281 2.180 . S
O2284 Mg2283 2.099 1_556 S
O2284 C2295 1.279 . S
O2285 Mg2281 2.117 . S
O2285 C2295 1.250 . S
O2286 Mg2283 2.079 . S
O2286 C2296 1.264 . S
O2287 Mg2283 2.072 1_556 S
O2287 C2297 1.260 . S
Mg2288 O2289 2.180 . S
Mg2288 O2290 2.030 . S
Mg2288 O2291 1.990 . S
Mg2288 O2292 2.117 . S
O2289 Mg2283 2.099 . S
O2289 Mg2288 2.180 . S
O2289 C2298 1.279 . S
O2290 Mg2288 2.030 . S
O2290 C2296 1.248 . S
O2291 Mg2288 1.990 . S
O2291 C2297 1.253 1_554 S
O2292 Mg2288 2.117 . S
O2292 C2298 1.250 . S
C2293 O2299 1.265 . S
C2293 O2300 1.264 . S
C2294 O2280 1.253 . S
C2294 O2282 1.260 1_556 S
C2295 O2284 1.279 . S
C2295 O2285 1.250 . S
C2296 O2286 1.264 . S
C2296 O2290 1.248 . S
C2297 O2287 1.260 . S
C2297 O2291 1.253 1_556 S
C2298 O2289 1.279 . S
C2298 O2292 1.250 . S
O2299 Mg2281 2.010 1_554 S
O2299 C2293 1.265 . S
O2300 Mg2283 2.079 . S
O2300 C2293 1.264 . S
O2301 Mg2302 1.990 . S
O2301 C2315 1.253 . S
Mg2302 O2301 1.990 . S
Mg2302 O2305 2.180 . S
Mg2302 O2306 2.117 . S
Mg2302 O2320 2.030 . S
O2303 Mg2304 2.072 . S
O2303 C2315 1.260 . S
Mg2304 O2303 2.072 . S
Mg2304 O2305 2.099 . S
Mg2304 O2307 2.079 . S
Mg2304 O2308 2.072 . S
Mg2304 O2310 2.099 . S
Mg2304 O2321 2.079 . S
O2305 Mg2302 2.180 . S
O2305 Mg2304 2.099 . S
O2305 C2316 1.279 . S
O2306 Mg2302 2.117 . S
O2306 C2316 1.250 . S
O2307 Mg2304 2.079 . S
O2307 C2317 1.264 . S
O2308 Mg2304 2.072 . S
O2308 C2318 1.260 . S
Mg2309 O2310 2.180 . S
Mg2309 O2311 2.030 . S
Mg2309 O2312 1.990 . S
Mg2309 O2313 2.117 . S
O2310 Mg2304 2.099 . S
O2310 Mg2309 2.180 . S
O2310 C2319 1.279 . S
O2311 Mg2309 2.030 . S
O2311 C2317 1.248 . S
O2312 Mg2309 1.990 . S
O2312 C2318 1.253 . S
O2313 Mg2309 2.117 . S
O2313 C2319 1.250 . S
C2314 O2320 1.248 . S
C2314 O2321 1.264 . S
C2315 O2301 1.253 . S
C2315 O2303 1.260 . S
C2316 O2305 1.279 . S
C2316 O2306 1.250 . S
C2317 O2307 1.264 . S
C2317 O2311 1.248 . S
C2318 O2308 1.260 . S
C2318 O2312 1.253 . S
C2319 O2310 1.279 . S
C2319 O2313 1.250 . S
O2320 Mg2302 2.030 . S
O2320 C2314 1.248 . S
O2321 Mg2304 2.079 . S
O2321 C2314 1.264 . S
O2322 Mg2323 1.990 . S
O2322 C2336 1.253 . S
Mg2323 O2322 1.990 . S
Mg2323 O2326 2.180 . S
Mg2323 O2327 2.117 . S
Mg2323 O2341 2.031 1_655 S
O2324 Mg2325 2.072 . S
O2324 C2336 1.260 1_455 S
Mg2325 O2324 2.072 . S
Mg2325 O2326 2.099 1_455 S
Mg2325 O2328 2.079 . S
Mg2325 O2329 2.072 1_455 S
Mg2325 O2331 2.099 . S
Mg2325 O2342 2.079 . S
O2326 Mg2323 2.180 . S
O2326 Mg2325 2.099 1_655 S
O2326 C2337 1.279 . S
O2327 Mg2323 2.117 . S
O2327 C2337 1.250 . S
O2328 Mg2325 2.079 . S
O2328 C2338 1.264 . S
O2329 Mg2325 2.072 1_655 S
O2329 C2339 1.260 . S
Mg2330 O2331 2.180 . S
Mg2330 O2332 2.030 . S
Mg2330 O2333 1.990 . S
Mg2330 O2334 2.117 . S
O2331 Mg2325 2.099 . S
O2331 Mg2330 2.180 . S
O2331 C2340 1.279 . S
O2332 Mg2330 2.030 . S
O2332 C2338 1.248 . S
O2333 Mg2330 1.990 . S
O2333 C2339 1.253 1_455 S
O2334 Mg2330 2.117 . S
O2334 C2340 1.250 . S
C2335 O2341 1.247 . S
C2335 O2342 1.264 . S
C2336 O2322 1.253 . S
C2336 O2324 1.260 1_655 S
C2337 O2326 1.279 . S
C2337 O2327 1.250 . S
C2338 O2328 1.264 . S
C2338 O2332 1.248 . S
C2339 O2329 1.260 . S
C2339 O2333 1.253 1_655 S
C2340 O2331 1.279 . S
C2340 O2334 1.250 . S
O2341 Mg2323 2.031 1_455 S
O2341 C2335 1.247 . S
O2342 Mg2325 2.079 . S
O2342 C2335 1.264 . S
O2343 Mg2344 1.990 . S
O2343 C2357 1.253 . S
Mg2344 O2343 1.990 . S
Mg2344 O2347 2.180 . S
Mg2344 O2348 2.117 . S
Mg2344 O2362 2.030 . S
O2345 Mg2346 2.072 . S
O2345 C2357 1.260 . S
Mg2346 O2345 2.072 . S
Mg2346 O2347 2.099 . S
Mg2346 O2349 2.079 . S
Mg2346 O2350 2.072 . S
Mg2346 O2352 2.099 . S
Mg2346 O2363 2.079 . S
O2347 Mg2344 2.180 . S
O2347 Mg2346 2.099 . S
O2347 C2358 1.279 . S
O2348 Mg2344 2.117 . S
O2348 C2358 1.250 . S
O2349 Mg2346 2.079 . S
O2349 C2359 1.264 . S
O2350 Mg2346 2.072 . S
O2350 C2360 1.260 . S
Mg2351 O2352 2.180 . S
Mg2351 O2353 2.030 . S
Mg2351 O2354 1.990 . S
Mg2351 O2355 2.117 . S
O2352 Mg2346 2.099 . S
O2352 Mg2351 2.180 . S
O2352 C2361 1.279 . S
O2353 Mg2351 2.030 . S
O2353 C2359 1.248 . S
O2354 Mg2351 1.990 . S
O2354 C2360 1.253 . S
O2355 Mg2351 2.117 . S
O2355 C2361 1.250 . S
C2356 O2362 1.248 . S
C2356 O2363 1.264 . S
C2357 O2343 1.253 . S
C2357 O2345 1.260 . S
C2358 O2347 1.279 . S
C2358 O2348 1.250 . S
C2359 O2349 1.264 . S
C2359 O2353 1.248 . S
C2360 O2350 1.260 . S
C2360 O2354 1.253 . S
C2361 O2352 1.279 . S
C2361 O2355 1.250 . S
O2362 Mg2344 2.030 . S
O2362 C2356 1.248 . S
O2363 Mg2346 2.079 . S
O2363 C2356 1.264 . S
O2364 Mg2365 1.990 . S
O2364 C2378 1.253 . S
Mg2365 O2364 1.990 . S
Mg2365 O2368 2.180 . S
Mg2365 O2369 2.117 . S
Mg2365 O2383 2.030 . S
O2366 Mg2367 2.072 . S
O2366 C2378 1.260 . S
Mg2367 O2366 2.072 . S
Mg2367 O2368 2.099 . S
Mg2367 O2370 2.079 . S
Mg2367 O2371 2.072 . S
Mg2367 O2373 2.099 . S
Mg2367 O2384 2.079 . S
O2368 Mg2365 2.180 . S
O2368 Mg2367 2.099 . S
O2368 C2379 1.279 . S
O2369 Mg2365 2.117 . S
O2369 C2379 1.250 . S
O2370 Mg2367 2.079 . S
O2370 C2380 1.264 . S
O2371 Mg2367 2.072 . S
O2371 C2381 1.260 . S
Mg2372 O2373 2.180 . S
Mg2372 O2374 2.030 . S
Mg2372 O2375 1.990 . S
Mg2372 O2376 2.117 . S
O2373 Mg2367 2.099 . S
O2373 Mg2372 2.180 . S
O2373 C2382 1.279 . S
O2374 Mg2372 2.030 . S
O2374 C2380 1.248 . S
O2375 Mg2372 1.990 . S
O2375 C2381 1.253 . S
O2376 Mg2372 2.117 . S
O2376 C2382 1.250 . S
C2377 O2383 1.248 . S
C2377 O2384 1.264 . S
C2378 O2364 1.253 . S
C2378 O2366 1.260 . S
C2379 O2368 1.279 . S
C2379 O2369 1.250 . S
C2380 O2370 1.264 . S
C2380 O2374 1.248 . S
C2381 O2371 1.260 . S
C2381 O2375 1.253 . S
C2382 O2373 1.279 . S
C2382 O2376 1.250 . S
O2383 Mg2365 2.030 . S
O2383 C2377 1.248 . S
O2384 Mg2367 2.079 . S
O2384 C2377 1.264 . S
O2385 Mg2386 1.990 . S
O2385 C2399 1.253 . S
Mg2386 O2385 1.990 . S
Mg2386 O2389 2.180 . S
Mg2386 O2390 2.117 . S
Mg2386 O2404 2.030 . S
O2387 Mg2388 2.072 . S
O2387 C2399 1.260 . S
Mg2388 O2387 2.072 . S
Mg2388 O2389 2.099 . S
Mg2388 O2391 2.079 . S
Mg2388 O2392 2.072 . S
Mg2388 O2394 2.099 . S
Mg2388 O2405 2.079 . S
O2389 Mg2386 2.180 . S
O2389 Mg2388 2.099 . S
O2389 C2400 1.279 . S
O2390 Mg2386 2.117 . S
O2390 C2400 1.250 . S
O2391 Mg2388 2.079 . S
O2391 C2401 1.264 . S
O2392 Mg2388 2.072 . S
O2392 C2402 1.260 . S
Mg2393 O2394 2.180 . S
Mg2393 O2395 2.030 . S
Mg2393 O2396 1.990 . S
Mg2393 O2397 2.117 . S
O2394 Mg2388 2.099 . S
O2394 Mg2393 2.180 . S
O2394 C2403 1.279 . S
O2395 Mg2393 2.030 . S
O2395 C2401 1.248 . S
O2396 Mg2393 1.990 . S
O2396 C2402 1.253 . S
O2397 Mg2393 2.117 . S
O2397 C2403 1.250 . S
C2398 O2404 1.248 . S
C2398 O2405 1.264 . S
C2399 O2385 1.253 . S
C2399 O2387 1.260 . S
C2400 O2389 1.279 . S
C2400 O2390 1.250 . S
C2401 O2391 1.264 . S
C2401 O2395 1.248 . S
C2402 O2392 1.260 . S
C2402 O2396 1.253 . S
C2403 O2394 1.279 . S
C2403 O2397 1.250 . S
O2404 Mg2386 2.030 . S
O2404 C2398 1.248 . S
O2405 Mg2388 2.079 . S
O2405 C2398 1.264 . S
O2406 Mg2407 1.990 . S
O2406 C2420 1.253 . S
Mg2407 O2406 1.990 . S
Mg2407 O2410 2.180 . S
Mg2407 O2411 2.117 . S
Mg2407 O2425 2.030 . S
O2408 Mg2409 2.072 . S
O2408 C2420 1.260 . S
Mg2409 O2408 2.072 . S
Mg2409 O2410 2.099 . S
Mg2409 O2412 2.079 . S
Mg2409 O2413 2.072 . S
Mg2409 O2415 2.099 . S
Mg2409 O2426 2.079 . S
O2410 Mg2407 2.180 . S
O2410 Mg2409 2.099 . S
O2410 C2421 1.279 . S
O2411 Mg2407 2.117 . S
O2411 C2421 1.250 . S
O2412 Mg2409 2.079 . S
O2412 C2422 1.264 . S
O2413 Mg2409 2.072 . S
O2413 C2423 1.260 . S
Mg2414 O2415 2.180 . S
Mg2414 O2416 2.030 . S
Mg2414 O2417 1.990 . S
Mg2414 O2418 2.117 . S
O2415 Mg2409 2.099 . S
O2415 Mg2414 2.180 . S
O2415 C2424 1.279 . S
O2416 Mg2414 2.030 . S
O2416 C2422 1.248 . S
O2417 Mg2414 1.990 . S
O2417 C2423 1.253 . S
O2418 Mg2414 2.117 . S
O2418 C2424 1.250 . S
C2419 O2425 1.248 . S
C2419 O2426 1.264 . S
C2420 O2406 1.253 . S
C2420 O2408 1.260 . S
C2421 O2410 1.279 . S
C2421 O2411 1.250 . S
C2422 O2412 1.264 . S
C2422 O2416 1.248 . S
C2423 O2413 1.260 . S
C2423 O2417 1.253 . S
C2424 O2415 1.279 . S
C2424 O2418 1.250 . S
O2425 Mg2407 2.030 . S
O2425 C2419 1.248 . S
O2426 Mg2409 2.079 . S
O2426 C2419 1.264 . S
O2427 Mg2428 1.990 . S
O2427 C2441 1.253 . S
Mg2428 O2427 1.990 . S
Mg2428 O2431 2.180 1_556 S
Mg2428 O2432 2.117 1_556 S
Mg2428 O2446 2.030 . S
O2429 Mg2430 2.072 1_556 S
O2429 C2441 1.260 . S
Mg2430 O2429 2.072 1_554 S
Mg2430 O2431 2.099 . S
Mg2430 O2433 2.079 1_455 S
Mg2430 O2434 2.072 1_454 S
Mg2430 O2436 2.099 1_454 S
Mg2430 O2447 2.079 . S
O2431 Mg2428 2.180 1_554 S
O2431 Mg2430 2.099 . S
O2431 C2442 1.279 . S
O2432 Mg2428 2.117 1_554 S
O2432 C2442 1.250 . S
O2433 Mg2430 2.079 1_655 S
O2433 C2443 1.264 . S
O2434 Mg2430 2.072 1_656 S
O2434 C2444 1.260 . S
Mg2435 O2436 2.180 1_554 S
Mg2435 O2437 2.030 . S
Mg2435 O2438 1.990 1_554 S
Mg2435 O2439 2.117 1_554 S
O2436 Mg2430 2.099 1_656 S
O2436 Mg2435 2.180 1_556 S
O2436 C2445 1.279 . S
O2437 Mg2435 2.030 . S
O2437 C2443 1.248 . S
O2438 Mg2435 1.990 1_556 S
O2438 C2444 1.253 . S
O2439 Mg2435 2.117 1_556 S
O2439 C2445 1.250 . S
C2440 O2446 1.248 1_554 S
C2440 O2447 1.264 . S
C2441 O2427 1.253 . S
C2441 O2429 1.260 . S
C2442 O2431 1.279 . S
C2442 O2432 1.250 . S
C2443 O2433 1.264 . S
C2443 O2437 1.248 . S
C2444 O2434 1.260 . S
C2444 O2438 1.253 . S
C2445 O2436 1.279 . S
C2445 O2439 1.250 . S
O2446 Mg2428 2.030 . S
O2446 C2440 1.248 1_556 S
O2447 Mg2430 2.079 . S
O2447 C2440 1.264 . S
C2127 C49 1.364 1_655 S
C137 C2146 1.630 . S
C205 C2169 1.433 . S
C2189 C284 1.339 . S
C117 C2210 1.251 1_455 S
C2232 C225 1.439 . S
C2254 C321 1.524 . S
C29 C2272 1.560 . S
C401 C2128 1.560 1_545 S
C497 C2147 1.291 . S
C2170 C585 1.630 . S
C2193 C665 1.437 . S
C372 C2214 1.439 . S
C2233 C469 1.596 . S
C2255 C557 1.339 1_565 S
C2273 C636 1.267 . S
C2129 C673 1.267 1_556 S
C2296 C724 1.596 . S
C821 C2318 1.250 . S
C2337 C909 1.437 . S
C381 C2277 1.364 . S
C2171 C489 1.291 . S
C849 C2359 1.523 . S
C2382 C1017 1.433 . S
C1085 C2130 1.614 . S
C2381 C1201 1.589 . S
C1289 C2172 1.834 . S
C1349 C2356 1.107 . S
C2212 C1193 1.108 . S
C2319 C1281 1.714 . S
C2252 C1340 1.651 . S
C2402 C1076 1.854 . S
C2126 C1428 1.854 . S
C1516 C2380 1.167 . S
C2168 C1604 1.589 1_565 S
C1701 C2361 1.810 . S
C1457 C2211 1.695 1_545 S
C1545 C2315 1.624 . S
C2251 C1633 1.106 . S
C1729 C2401 1.173 . S
C1721 C2125 1.173 . S
C1789 C2294 1.624 1_554 S
C1868 C2230 1.108 . S
C1956 C2340 1.810 . S
C2400 C1437 1.614 . S
C2167 C1553 1.166 . S
C2192 C1897 1.651 . S
C2148 C2081 1.835 . S
C233 C2424 1.364 . S
C2377 C313 1.630 . S
C2442 C20 1.433 . S
C108 C2360 1.339 . S
C293 C2297 1.251 . S
C2316 C57 1.439 . S
C2338 C145 1.524 . S
C2398 C196 1.560 . S
C2419 C1025 1.560 . S
C761 C2378 1.291 . S
C841 C2443 1.631 . S
C2358 C929 1.437 . S
C2295 C997 1.439 . S
C733 C2317 1.596 . S
C2339 C812 1.339 . S
C900 C2399 1.267 . S
C2420 C937 1.267 . S
C2209 C460 1.596 . S
C2234 C548 1.250 . S
C645 C2253 1.437 . S
C2403 C988 1.364 . S
C753 C2444 1.291 1_554 S
C2188 C577 1.523 . S
C2151 C409 1.433 . S
C1261 C2421 1.614 . S
C2150 C1377 1.589 . S
C2445 C1113 1.834 1_655 S
C1173 C2191 1.107 . S
C1369 C2293 1.108 . S
C1105 C2235 1.714 . S
C1164 C2336 1.651 1_455 S
C1252 C2276 1.854 . S
C2423 C2044 1.854 . S
C1780 C2149 1.166 . S
C2441 C1877 1.589 . S
C1965 C2190 1.810 . S
C2073 C2298 1.714 . S
C2231 C1809 1.624 . S
C1905 C2335 1.106 . S
C2275 C1993 1.173 . S
C2422 C1985 1.173 . S
C2213 C1525 1.624 . S
C1613 C2314 1.108 . S
C2256 C1692 1.810 1_556 S
C2274 C2053 1.614 . S
C1817 C2440 1.165 . S
C2357 C1641 1.651 . S
C2379 C1465 1.835 . S
