# Generated by pormake.
# Topology gar, (4,6)-cn, num edge types: 1
# Building blocks:
#     Node 0, Type 0, BuildingBlock: UXUYUI_clean_sbu_0, # of connection points: 4
#     Node 1, Type 0, BuildingBlock: UXUYUI_clean_sbu_0, # of connection points: 4
#     Node 2, Type 0, BuildingBlock: UXUYUI_clean_sbu_0, # of connection points: 4
#     Node 3, Type 0, BuildingBlock: UXUYUI_clean_sbu_0, # of connection points: 4
#     Node 4, Type 0, BuildingBlock: UXUYUI_clean_sbu_0, # of connection points: 4
#     Node 5, Type 0, BuildingBlock: UXUYUI_clean_sbu_0, # of connection points: 4
#     Node 6, Type 0, BuildingBlock: UXUYUI_clean_sbu_0, # of connection points: 4
#     Node 7, Type 0, BuildingBlock: UXUYUI_clean_sbu_0, # of connection points: 4
#     Node 8, Type 0, BuildingBlock: UXUYUI_clean_sbu_0, # of connection points: 4
#     Node 9, Type 0, BuildingBlock: UXUYUI_clean_sbu_0, # of connection points: 4
#     Node 10, Type 0, BuildingBlock: UXUYUI_clean_sbu_0, # of connection points: 4
#     Node 11, Type 0, BuildingBlock: UXUYUI_clean_sbu_0, # of connection points: 4
#     Node 12, Type 0, BuildingBlock: UXUYUI_clean_sbu_0, # of connection points: 4
#     Node 13, Type 0, BuildingBlock: UXUYUI_clean_sbu_0, # of connection points: 4
#     Node 14, Type 0, BuildingBlock: UXUYUI_clean_sbu_0, # of connection points: 4
#     Node 15, Type 0, BuildingBlock: UXUYUI_clean_sbu_0, # of connection points: 4
#     Node 16, Type 0, BuildingBlock: UXUYUI_clean_sbu_0, # of connection points: 4
#     Node 17, Type 0, BuildingBlock: UXUYUI_clean_sbu_0, # of connection points: 4
#     Node 18, Type 0, BuildingBlock: UXUYUI_clean_sbu_0, # of connection points: 4
#     Node 19, Type 0, BuildingBlock: UXUYUI_clean_sbu_0, # of connection points: 4
#     Node 20, Type 0, BuildingBlock: UXUYUI_clean_sbu_0, # of connection points: 4
#     Node 21, Type 0, BuildingBlock: UXUYUI_clean_sbu_0, # of connection points: 4
#     Node 22, Type 0, BuildingBlock: UXUYUI_clean_sbu_0, # of connection points: 4
#     Node 23, Type 0, BuildingBlock: UXUYUI_clean_sbu_0, # of connection points: 4
#     Node 24, Type 1, BuildingBlock: KUMBOL_clean_sbu_1, # of connection points: 6
#     Node 25, Type 1, BuildingBlock: KUMBOL_clean_sbu_1, # of connection points: 6
#     Node 26, Type 1, BuildingBlock: KUMBOL_clean_sbu_1, # of connection points: 6
#     Node 27, Type 1, BuildingBlock: KUMBOL_clean_sbu_1, # of connection points: 6
#     Node 28, Type 1, BuildingBlock: KUMBOL_clean_sbu_1, # of connection points: 6
#     Node 29, Type 1, BuildingBlock: KUMBOL_clean_sbu_1, # of connection points: 6
#     Node 30, Type 1, BuildingBlock: KUMBOL_clean_sbu_1, # of connection points: 6
#     Node 31, Type 1, BuildingBlock: KUMBOL_clean_sbu_1, # of connection points: 6
#     Node 32, Type 1, BuildingBlock: KUMBOL_clean_sbu_1, # of connection points: 6
#     Node 33, Type 1, BuildingBlock: KUMBOL_clean_sbu_1, # of connection points: 6
#     Node 34, Type 1, BuildingBlock: KUMBOL_clean_sbu_1, # of connection points: 6
#     Node 35, Type 1, BuildingBlock: KUMBOL_clean_sbu_1, # of connection points: 6
#     Node 36, Type 1, BuildingBlock: KUMBOL_clean_sbu_1, # of connection points: 6
#     Node 37, Type 1, BuildingBlock: KUMBOL_clean_sbu_1, # of connection points: 6
#     Node 38, Type 1, BuildingBlock: KUMBOL_clean_sbu_1, # of connection points: 6
#     Node 39, Type 1, BuildingBlock: KUMBOL_clean_sbu_1, # of connection points: 6
#     Edge 40, Type (0, 1), BuildingBlock: XUDNAN_clean_linker_2, # of connection points: 2
#     Edge 41, Type (0, 1), BuildingBlock: XUDNAN_clean_linker_2, # of connection points: 2
#     Edge 42, Type (0, 1), BuildingBlock: XUDNAN_clean_linker_2, # of connection points: 2
#     Edge 43, Type (0, 1), BuildingBlock: XUDNAN_clean_linker_2, # of connection points: 2
#     Edge 44, Type (0, 1), BuildingBlock: XUDNAN_clean_linker_2, # of connection points: 2
#     Edge 45, Type (0, 1), BuildingBlock: XUDNAN_clean_linker_2, # of connection points: 2
#     Edge 46, Type (0, 1), BuildingBlock: XUDNAN_clean_linker_2, # of connection points: 2
#     Edge 47, Type (0, 1), BuildingBlock: XUDNAN_clean_linker_2, # of connection points: 2
#     Edge 48, Type (0, 1), BuildingBlock: XUDNAN_clean_linker_2, # of connection points: 2
#     Edge 49, Type (0, 1), BuildingBlock: XUDNAN_clean_linker_2, # of connection points: 2
#     Edge 50, Type (0, 1), BuildingBlock: XUDNAN_clean_linker_2, # of connection points: 2
#     Edge 51, Type (0, 1), BuildingBlock: XUDNAN_clean_linker_2, # of connection points: 2
#     Edge 52, Type (0, 1), BuildingBlock: XUDNAN_clean_linker_2, # of connection points: 2
#     Edge 53, Type (0, 1), BuildingBlock: XUDNAN_clean_linker_2, # of connection points: 2
#     Edge 54, Type (0, 1), BuildingBlock: XUDNAN_clean_linker_2, # of connection points: 2
#     Edge 55, Type (0, 1), BuildingBlock: XUDNAN_clean_linker_2, # of connection points: 2
#     Edge 56, Type (0, 1), BuildingBlock: XUDNAN_clean_linker_2, # of connection points: 2
#     Edge 57, Type (0, 1), BuildingBlock: XUDNAN_clean_linker_2, # of connection points: 2
#     Edge 58, Type (0, 1), BuildingBlock: XUDNAN_clean_linker_2, # of connection points: 2
#     Edge 59, Type (0, 1), BuildingBlock: XUDNAN_clean_linker_2, # of connection points: 2
#     Edge 60, Type (0, 1), BuildingBlock: XUDNAN_clean_linker_2, # of connection points: 2
#     Edge 61, Type (0, 1), BuildingBlock: XUDNAN_clean_linker_2, # of connection points: 2
#     Edge 62, Type (0, 1), BuildingBlock: XUDNAN_clean_linker_2, # of connection points: 2
#     Edge 63, Type (0, 1), BuildingBlock: XUDNAN_clean_linker_2, # of connection points: 2
#     Edge 64, Type (0, 1), BuildingBlock: XUDNAN_clean_linker_2, # of connection points: 2
#     Edge 65, Type (0, 1), BuildingBlock: XUDNAN_clean_linker_2, # of connection points: 2
#     Edge 66, Type (0, 1), BuildingBlock: XUDNAN_clean_linker_2, # of connection points: 2
#     Edge 67, Type (0, 1), BuildingBlock: XUDNAN_clean_linker_2, # of connection points: 2
#     Edge 68, Type (0, 1), BuildingBlock: XUDNAN_clean_linker_2, # of connection points: 2
#     Edge 69, Type (0, 1), BuildingBlock: XUDNAN_clean_linker_2, # of connection points: 2
#     Edge 70, Type (0, 1), BuildingBlock: XUDNAN_clean_linker_2, # of connection points: 2
#     Edge 71, Type (0, 1), BuildingBlock: XUDNAN_clean_linker_2, # of connection points: 2
#     Edge 72, Type (0, 1), BuildingBlock: XUDNAN_clean_linker_2, # of connection points: 2
#     Edge 73, Type (0, 1), BuildingBlock: XUDNAN_clean_linker_2, # of connection points: 2
#     Edge 74, Type (0, 1), BuildingBlock: XUDNAN_clean_linker_2, # of connection points: 2
#     Edge 75, Type (0, 1), BuildingBlock: XUDNAN_clean_linker_2, # of connection points: 2
#     Edge 76, Type (0, 1), BuildingBlock: XUDNAN_clean_linker_2, # of connection points: 2
#     Edge 77, Type (0, 1), BuildingBlock: XUDNAN_clean_linker_2, # of connection points: 2
#     Edge 78, Type (0, 1), BuildingBlock: XUDNAN_clean_linker_2, # of connection points: 2
#     Edge 79, Type (0, 1), BuildingBlock: XUDNAN_clean_linker_2, # of connection points: 2
#     Edge 80, Type (0, 1), BuildingBlock: XUDNAN_clean_linker_2, # of connection points: 2
#     Edge 81, Type (0, 1), BuildingBlock: XUDNAN_clean_linker_2, # of connection points: 2
#     Edge 82, Type (0, 1), BuildingBlock: XUDNAN_clean_linker_2, # of connection points: 2
#     Edge 83, Type (0, 1), BuildingBlock: XUDNAN_clean_linker_2, # of connection points: 2
#     Edge 84, Type (0, 1), BuildingBlock: XUDNAN_clean_linker_2, # of connection points: 2
#     Edge 85, Type (0, 1), BuildingBlock: XUDNAN_clean_linker_2, # of connection points: 2
#     Edge 86, Type (0, 1), BuildingBlock: XUDNAN_clean_linker_2, # of connection points: 2
#     Edge 87, Type (0, 1), BuildingBlock: XUDNAN_clean_linker_2, # of connection points: 2
#     Edge 88, Type (0, 1), BuildingBlock: XUDNAN_clean_linker_2, # of connection points: 2
#     Edge 89, Type (0, 1), BuildingBlock: XUDNAN_clean_linker_2, # of connection points: 2
#     Edge 90, Type (0, 1), BuildingBlock: XUDNAN_clean_linker_2, # of connection points: 2
#     Edge 91, Type (0, 1), BuildingBlock: XUDNAN_clean_linker_2, # of connection points: 2
#     Edge 92, Type (0, 1), BuildingBlock: XUDNAN_clean_linker_2, # of connection points: 2
#     Edge 93, Type (0, 1), BuildingBlock: XUDNAN_clean_linker_2, # of connection points: 2
#     Edge 94, Type (0, 1), BuildingBlock: XUDNAN_clean_linker_2, # of connection points: 2
#     Edge 95, Type (0, 1), BuildingBlock: XUDNAN_clean_linker_2, # of connection points: 2
#     Edge 96, Type (0, 1), BuildingBlock: XUDNAN_clean_linker_2, # of connection points: 2
#     Edge 97, Type (0, 1), BuildingBlock: XUDNAN_clean_linker_2, # of connection points: 2
#     Edge 98, Type (0, 1), BuildingBlock: XUDNAN_clean_linker_2, # of connection points: 2
#     Edge 99, Type (0, 1), BuildingBlock: XUDNAN_clean_linker_2, # of connection points: 2
#     Edge 100, Type (0, 1), BuildingBlock: XUDNAN_clean_linker_2, # of connection points: 2
#     Edge 101, Type (0, 1), BuildingBlock: XUDNAN_clean_linker_2, # of connection points: 2
#     Edge 102, Type (0, 1), BuildingBlock: XUDNAN_clean_linker_2, # of connection points: 2
#     Edge 103, Type (0, 1), BuildingBlock: XUDNAN_clean_linker_2, # of connection points: 2
#     Edge 104, Type (0, 1), BuildingBlock: XUDNAN_clean_linker_2, # of connection points: 2
#     Edge 105, Type (0, 1), BuildingBlock: XUDNAN_clean_linker_2, # of connection points: 2
#     Edge 106, Type (0, 1), BuildingBlock: XUDNAN_clean_linker_2, # of connection points: 2
#     Edge 107, Type (0, 1), BuildingBlock: XUDNAN_clean_linker_2, # of connection points: 2
#     Edge 108, Type (0, 1), BuildingBlock: XUDNAN_clean_linker_2, # of connection points: 2
#     Edge 109, Type (0, 1), BuildingBlock: XUDNAN_clean_linker_2, # of connection points: 2
#     Edge 110, Type (0, 1), BuildingBlock: XUDNAN_clean_linker_2, # of connection points: 2
#     Edge 111, Type (0, 1), BuildingBlock: XUDNAN_clean_linker_2, # of connection points: 2
#     Edge 112, Type (0, 1), BuildingBlock: XUDNAN_clean_linker_2, # of connection points: 2
#     Edge 113, Type (0, 1), BuildingBlock: XUDNAN_clean_linker_2, # of connection points: 2
#     Edge 114, Type (0, 1), BuildingBlock: XUDNAN_clean_linker_2, # of connection points: 2
#     Edge 115, Type (0, 1), BuildingBlock: XUDNAN_clean_linker_2, # of connection points: 2
#     Edge 116, Type (0, 1), BuildingBlock: XUDNAN_clean_linker_2, # of connection points: 2
#     Edge 117, Type (0, 1), BuildingBlock: XUDNAN_clean_linker_2, # of connection points: 2
#     Edge 118, Type (0, 1), BuildingBlock: XUDNAN_clean_linker_2, # of connection points: 2
#     Edge 119, Type (0, 1), BuildingBlock: XUDNAN_clean_linker_2, # of connection points: 2
#     Edge 120, Type (0, 1), BuildingBlock: XUDNAN_clean_linker_2, # of connection points: 2
#     Edge 121, Type (0, 1), BuildingBlock: XUDNAN_clean_linker_2, # of connection points: 2
#     Edge 122, Type (0, 1), BuildingBlock: XUDNAN_clean_linker_2, # of connection points: 2
#     Edge 123, Type (0, 1), BuildingBlock: XUDNAN_clean_linker_2, # of connection points: 2
#     Edge 124, Type (0, 1), BuildingBlock: XUDNAN_clean_linker_2, # of connection points: 2
#     Edge 125, Type (0, 1), BuildingBlock: XUDNAN_clean_linker_2, # of connection points: 2
#     Edge 126, Type (0, 1), BuildingBlock: XUDNAN_clean_linker_2, # of connection points: 2
#     Edge 127, Type (0, 1), BuildingBlock: XUDNAN_clean_linker_2, # of connection points: 2
#     Edge 128, Type (0, 1), BuildingBlock: XUDNAN_clean_linker_2, # of connection points: 2
#     Edge 129, Type (0, 1), BuildingBlock: XUDNAN_clean_linker_2, # of connection points: 2
#     Edge 130, Type (0, 1), BuildingBlock: XUDNAN_clean_linker_2, # of connection points: 2
#     Edge 131, Type (0, 1), BuildingBlock: XUDNAN_clean_linker_2, # of connection points: 2
#     Edge 132, Type (0, 1), BuildingBlock: XUDNAN_clean_linker_2, # of connection points: 2
#     Edge 133, Type (0, 1), BuildingBlock: XUDNAN_clean_linker_2, # of connection points: 2
#     Edge 134, Type (0, 1), BuildingBlock: XUDNAN_clean_linker_2, # of connection points: 2
#     Edge 135, Type (0, 1), BuildingBlock: XUDNAN_clean_linker_2, # of connection points: 2
# Relax obj value: 0.086
# Max RMSD: 0.200
# Mean RMSD: 0.155
data_MOF--net-gar--node1-UXUYUI_clean_sbu_0--node2-KUMBOL_clean_sbu_1--edge1-XUDNAN_clean_linker_2
_symmetry_space_group_name_H-M    P1
_symmetry_Int_Tables_number       1
_symmetry_cell_setting            triclinic
loop_
_symmetry_equiv_pos_as_xyz
'x, y, z'
_cell_length_a     72.962696
_cell_length_b     73.147052
_cell_length_c     68.73185
_cell_angle_alpha  95.848424
_cell_angle_beta   95.774182
_cell_angle_gamma 100.78003
loop_
_atom_site_label
_atom_site_type_symbol
_atom_site_fract_x
_atom_site_fract_y
_atom_site_fract_z
_atom_type_partial_charge
Li0 Li 0.02253 0.30027 0.34722 0.0
Li1 Li 0.04483 0.32249 0.37517 0.0
Li2 Li 0.06045 0.30216 0.34858 0.0
Li3 Li 0.04229 0.28662 0.37477 0.0
C4 C 0.04072 0.33398 0.33179 0.0
N5 N 0.03434 0.35775 0.30427 0.0
C6 C 0.03357 0.34995 0.33713 0.0
C7 C 0.04461 0.33004 0.3125 0.0
C8 C 0.03042 0.3618 0.32298 0.0
C9 C 0.0413 0.34225 0.29879 0.0
C10 C 0.01074 0.30369 0.39036 0.0
C11 C 1.00304 0.30077 0.42333 0.0
N12 N 0.98632 0.30579 0.41831 0.0
C13 C 0.9935 0.30881 0.3855 0.0
C14 C 0.01557 0.29961 0.40939 0.0
C15 C 0.98134 0.3098 0.39985 0.0
C16 C 0.98277 0.28144 0.3365 0.0
N17 N 0.99531 0.29704 0.33363 0.0
C18 C 0.9692 0.30945 0.31889 0.0
C19 C 0.98872 0.31084 0.32469 0.0
C20 C 0.95595 0.2938 0.32234 0.0
C21 C 0.96319 0.27962 0.33112 0.0
H22 H 0.98783 0.27068 0.34395 0.0
H23 H 0.99844 0.32343 0.32281 0.0
C24 C 0.06376 0.35754 0.40011 0.0
N25 N 0.04663 0.34712 0.39228 0.0
C26 C 0.06531 0.37455 0.41242 0.0
C27 C 0.03163 0.37032 0.40852 0.0
C28 C 0.03072 0.35341 0.39616 0.0
C29 C 0.04912 0.38126 0.41717 0.0
H30 H 0.07635 0.35265 0.39686 0.0
H31 H 0.01715 0.34527 0.38974 0.0
C32 C 0.03877 0.2655 0.33123 0.0
N33 N 0.03909 0.23616 0.30273 0.0
C34 C 0.04623 0.25013 0.33626 0.0
C35 C 0.03148 0.26601 0.31175 0.0
C36 C 0.04626 0.23542 0.32162 0.0
C37 C 0.03178 0.25103 0.29754 0.0
C38 C 0.0781 0.3085 0.39452 0.0
C39 C 0.09616 0.30538 0.39247 0.0
C40 C 0.07317 0.31299 0.41328 0.0
C41 C 0.10896 0.30654 0.4093 0.0
C42 C 0.08638 0.31404 0.42976 0.0
N43 N 0.10384 0.31079 0.42744 0.0
C44 C 0.09314 0.31301 0.32474 0.0
C45 C 0.09366 0.28545 0.33951 0.0
C46 C 0.11042 0.31178 0.31731 0.0
N47 N 0.08485 0.29992 0.33569 0.0
C48 C 0.11115 0.28393 0.33269 0.0
C49 C 0.11998 0.29715 0.32125 0.0
H50 H 0.0865 0.32465 0.32185 0.0
H51 H 0.08731 0.2751 0.34829 0.0
C52 C 0.02486 0.25428 0.39259 0.0
N53 N 0.04164 0.26532 0.39053 0.0
C54 C 0.02412 0.23886 0.4034 0.0
C55 C 0.05791 0.24618 0.40977 0.0
C56 C 0.05801 0.26135 0.39874 0.0
C57 C 0.04081 0.23461 0.41237 0.0
H58 H 0.01196 0.25745 0.38582 0.0
H59 H 0.07127 0.26983 0.39662 0.0
O60 O 0.0443 0.32247 0.34552 0.0
O61 O 0.02261 0.30219 0.37639 0.0
O62 O 0.03819 0.2798 0.3454 0.0
O63 O 0.06537 0.30733 0.37821 0.0
H64 H 0.03052 0.35316 0.35203 0.0
H65 H 0.05018 0.31771 0.3082 0.0
H66 H 0.0249 0.37423 0.32688 0.0
H67 H 0.04429 0.33944 0.2838 0.0
H68 H 1.00657 0.29761 0.43812 0.0
H69 H 0.98957 0.31208 0.37085 0.0
H70 H 0.02878 0.29541 0.41331 0.0
H71 H 0.96794 0.31374 0.3963 0.0
H72 H 0.96444 0.32102 0.31267 0.0
H73 H 0.95367 0.26743 0.33448 0.0
H74 H 0.07924 0.3824 0.41806 0.0
H75 H 0.01865 0.37451 0.41157 0.0
H76 H 0.05185 0.24955 0.35133 0.0
H77 H 0.02559 0.27783 0.3077 0.0
H78 H 0.05194 0.22339 0.32528 0.0
H79 H 0.02617 0.25119 0.28239 0.0
H80 H 0.10029 0.30212 0.37807 0.0
H81 H 0.05933 0.31571 0.41508 0.0
H82 H 0.12297 0.30408 0.40793 0.0
H83 H 0.08276 0.31746 0.44438 0.0
H84 H 0.11641 0.32251 0.30873 0.0
H85 H 0.11755 0.27223 0.3361 0.0
H86 H 0.01055 0.23055 0.40499 0.0
H87 H 0.0712 0.2434 0.41597 0.0
Li88 Li 0.02144 0.76746 0.6759 0.0
Li89 Li 0.0391 0.75367 0.7038 0.0
Li90 Li 0.01668 0.73133 0.67548 0.0
Li91 Li 1.00116 0.7518 0.70186 0.0
C92 C 0.05205 0.75142 0.66099 0.0
N93 N 0.07649 0.75403 0.63278 0.0
C94 C 0.07082 0.7604 0.66618 0.0
C95 C 0.04568 0.74375 0.64148 0.0
C96 C 0.08297 0.76157 0.6517 0.0
C97 C 0.05827 0.74523 0.62743 0.0
C98 C 0.02877 0.78932 0.71923 0.0
C99 C 0.0296 0.80394 0.75243 0.0
N100 N 0.03936 0.82019 0.74748 0.0
C101 C 0.0388 0.80613 0.71443 0.0
C102 C 0.02409 0.78816 0.73834 0.0
C103 C 0.04404 0.82159 0.72894 0.0
C104 C 0.01057 0.80039 0.66186 0.0
N105 N 0.02304 0.78874 0.65995 0.0
C106 C 0.03741 0.80709 0.6363 0.0
C107 C 0.03644 0.79203 0.64755 0.0
C108 C 0.02474 0.81927 0.63798 0.0
C109 C 0.01125 0.81585 0.65109 0.0
H110 H 1.00004 0.7977 0.67179 0.0
H111 H 0.04646 0.78302 0.64626 0.0
C112 C 0.07364 0.74077 0.71944 0.0
N113 N 0.06571 0.75622 0.71804 0.0
C114 C 0.09319 0.74252 0.72527 0.0
C115 C 0.09632 0.77598 0.72872 0.0
C116 C 0.07677 0.77363 0.72303 0.0
C117 C 0.10511 0.76035 0.72946 0.0
H118 H 0.06499 0.72696 0.71506 0.0
H119 H 0.07067 0.78587 0.72155 0.0
C120 C 0.98365 0.74481 0.65654 0.0
N121 N 0.95549 0.73877 0.62527 0.0
C122 C 0.96493 0.73889 0.65959 0.0
C123 C 0.9881 0.74767 0.63765 0.0
C124 C 0.95089 0.73591 0.64357 0.0
C125 C 0.97364 0.74453 0.62201 0.0
C126 C 0.01728 0.71878 0.71817 0.0
C127 C 0.01059 0.69975 0.71167 0.0
C128 C 0.02412 0.72461 0.73798 0.0
C129 C 0.01083 0.68678 0.72521 0.0
C130 C 0.02414 0.71119 0.75105 0.0
N131 N 0.01755 0.69272 0.74446 0.0
C132 C 0.03104 0.69967 0.65735 0.0
C133 C 0.99862 0.6974 0.64802 0.0
C134 C 0.0309 0.68295 0.64499 0.0
N135 N 0.0151 0.70678 0.65856 0.0
C136 C 0.99783 0.6806 0.63563 0.0
C137 C 0.01417 0.67308 0.63357 0.0
H138 H 0.04409 0.70718 0.66577 0.0
H139 H 0.986 0.70299 0.64911 0.0
C140 C 0.96925 0.76999 0.71021 0.0
N141 N 0.97642 0.75449 0.71382 0.0
C142 C 0.95148 0.77234 0.71558 0.0
C143 C 0.94839 0.74317 0.72913 0.0
C144 C 0.96621 0.74123 0.72332 0.0
C145 C 0.94053 0.75884 0.72515 0.0
H146 H 0.97708 0.78042 0.70249 0.0
H147 H 0.97156 0.72875 0.72594 0.0
O148 O 0.03992 0.75032 0.6749 0.0
O149 O 0.02318 0.77416 0.70516 0.0
O150 O 0.99752 0.74802 0.67208 0.0
O151 O 0.0174 0.73161 0.70508 0.0
H152 H 0.07594 0.76651 0.68118 0.0
H153 H 0.03116 0.73684 0.63723 0.0
H154 H 0.09753 0.76851 0.6555 0.0
H155 H 0.05355 0.73941 0.61225 0.0
H156 H 0.02607 0.80328 0.76729 0.0
H157 H 0.04247 0.80722 0.69966 0.0
H158 H 0.01624 0.77522 0.7422 0.0
H159 H 0.0518 0.83472 0.72546 0.0
H160 H 0.04808 0.80928 0.62643 0.0
H161 H 1.00114 0.82484 0.65272 0.0
H162 H 0.09907 0.72999 0.72533 0.0
H163 H 0.10463 0.79008 0.73186 0.0
H164 H 0.9613 0.73663 0.67416 0.0
H165 H 1.00254 0.75235 0.63512 0.0
H166 H 0.93632 0.73134 0.64569 0.0
H167 H 0.97684 0.74672 0.60729 0.0
H168 H 1.00529 0.69507 0.69635 0.0
H169 H 0.02942 0.73933 0.74315 0.0
H170 H 1.00568 0.67199 0.72042 0.0
H171 H 0.02943 0.71546 0.76644 0.0
H172 H 0.04397 0.67814 0.64407 0.0
H173 H 0.98436 0.67358 0.62776 0.0
H174 H 0.9461 0.78452 0.71179 0.0
H175 H 0.94047 0.73207 0.73599 0.0
Li176 Li 0.52317 0.8019 0.84657 0.0
Li177 Li 0.54504 0.82447 0.87498 0.0
Li178 Li 0.56107 0.80466 0.84786 0.0
Li179 Li 0.54315 0.78876 0.87378 0.0
C180 C 0.54117 0.83622 0.83158 0.0
N181 N 0.5351 0.86002 0.80401 0.0
C182 C 0.53457 0.85251 0.83698 0.0
C183 C 0.54478 0.83202 0.81223 0.0
C184 C 0.53153 0.86435 0.8228 0.0
C185 C 0.54161 0.84425 0.79848 0.0
C186 C 0.51129 0.80204 0.88991 0.0
C187 C 0.5059 0.79765 0.92329 0.0
N188 N 0.48759 0.79879 0.91879 0.0
C189 C 0.49243 0.80311 0.88558 0.0
C190 C 0.51812 0.79929 0.90889 0.0
C191 C 0.48067 0.80147 0.9004 0.0
C192 C 0.48416 0.78237 0.8277 0.0
N193 N 0.49632 0.79927 0.83282 0.0
C194 C 0.47037 0.81499 0.82617 0.0
C195 C 0.48961 0.81539 0.83174 0.0
C196 C 0.45728 0.79784 0.82158 0.0
C197 C 0.46469 0.78135 0.8219 0.0
H198 H 0.48933 0.76956 0.82896 0.0
H199 H 0.49902 0.82874 0.83621 0.0
C200 C 0.56074 0.86351 0.89259 0.0
N201 N 0.5462 0.84875 0.89242 0.0
C202 C 0.56171 0.8806 0.90458 0.0
C203 C 0.5328 0.86739 0.91629 0.0
C204 C 0.53228 0.85061 0.90393 0.0
C205 C 0.54773 0.88288 0.91699 0.0
H206 H 0.57164 0.86209 0.8833 0.0
H207 H 0.52062 0.83907 0.90366 0.0
C208 C 0.53916 0.76698 0.83087 0.0
N209 N 0.53828 0.73635 0.80354 0.0
C210 C 0.54642 0.75168 0.8365 0.0
C211 C 0.53141 0.76672 0.81139 0.0
C212 C 0.54587 0.73632 0.82244 0.0
C213 C 0.5311 0.75109 0.79777 0.0
C214 C 0.57956 0.81139 0.89293 0.0
C215 C 0.59669 0.80633 0.88988 0.0
C216 C 0.57646 0.81797 0.91188 0.0
C217 C 0.61042 0.80777 0.90595 0.0
C218 C 0.59055 0.8192 0.92757 0.0
N219 N 0.60709 0.81411 0.92431 0.0
C220 C 0.59628 0.81916 0.83002 0.0
C221 C 0.59202 0.78691 0.83273 0.0
C222 C 0.61384 0.81892 0.8229 0.0
N223 N 0.58549 0.80331 0.83484 0.0
C224 C 0.60953 0.78605 0.8256 0.0
C225 C 0.62102 0.8022 0.82041 0.0
H226 H 0.59149 0.83228 0.83205 0.0
H227 H 0.58381 0.77435 0.83692 0.0
C228 C 0.52711 0.75404 0.88784 0.0
N229 N 0.54289 0.7677 0.88956 0.0
C230 C 0.52656 0.73869 0.8987 0.0
C231 C 0.55845 0.75163 0.913 0.0
C232 C 0.55846 0.76656 0.90175 0.0
C233 C 0.54236 0.73738 0.91166 0.0
H234 H 0.51489 0.75503 0.87799 0.0
H235 H 0.57105 0.7771 0.90277 0.0
O236 O 0.54452 0.82465 0.84531 0.0
O237 O 0.52304 0.80382 0.87565 0.0
O238 O 0.53922 0.78196 0.84446 0.0
O239 O 0.56588 0.80983 0.87745 0.0
H240 H 0.53178 0.85593 0.85196 0.0
H241 H 0.55002 0.81949 0.80792 0.0
H242 H 0.52638 0.877 0.82674 0.0
H243 H 0.54435 0.84123 0.78344 0.0
H244 H 0.51097 0.79551 0.93806 0.0
H245 H 0.48693 0.80532 0.871 0.0
H246 H 0.53271 0.79845 0.91247 0.0
H247 H 0.46605 0.80234 0.89728 0.0
H248 H 0.4657 0.82819 0.82604 0.0
H249 H 0.45539 0.76775 0.81872 0.0
H250 H 0.57335 0.89198 0.90386 0.0
H251 H 0.52167 0.86798 0.92547 0.0
H252 H 0.55241 0.75168 0.85156 0.0
H253 H 0.52563 0.77845 0.80688 0.0
H254 H 0.55144 0.72437 0.82657 0.0
H255 H 0.52513 0.75067 0.78264 0.0
H256 H 0.59928 0.80121 0.87529 0.0
H257 H 0.56328 0.822 0.91444 0.0
H258 H 0.62372 0.80382 0.90384 0.0
H259 H 0.58834 0.8242 0.94235 0.0
H260 H 0.62189 0.83206 0.81983 0.0
H261 H 0.6139 0.77268 0.82407 0.0
H262 H 0.51377 0.72813 0.8972 0.0
H263 H 0.5711 0.75113 0.92246 0.0
Li264 Li 0.52016 0.26853 0.17496 0.0
Li265 Li 0.53822 0.25443 0.20156 0.0
Li266 Li 0.51553 0.23263 0.17318 0.0
Li267 Li 0.50086 0.25227 0.20067 0.0
C268 C 0.55146 0.25433 0.15966 0.0
N269 N 0.57774 0.25935 0.13349 0.0
C270 C 0.56908 0.26586 0.16569 0.0
C271 C 0.54716 0.24538 0.14035 0.0
C272 C 0.5822 0.26819 0.15223 0.0
C273 C 0.56064 0.24812 0.12732 0.0
C274 C 0.52925 0.28933 0.21877 0.0
C275 C 0.53121 0.30324 0.25242 0.0
N276 N 0.5418 0.31925 0.24786 0.0
C277 C 0.54019 0.30586 0.21439 0.0
C278 C 0.52471 0.28795 0.2379 0.0
C279 C 0.54639 0.32085 0.22932 0.0
C280 C 0.51044 0.30273 0.16556 0.0
N281 N 0.52114 0.29012 0.1602 0.0
C282 C 0.53314 0.30917 0.13603 0.0
C283 C 0.53227 0.29303 0.1456 0.0
C284 C 0.52245 0.32261 0.14142 0.0
C285 C 0.51087 0.31906 0.15637 0.0
H286 H 0.50166 0.30019 0.17718 0.0
H287 H 0.54069 0.28298 0.14142 0.0
C288 C 0.57238 0.24124 0.20785 0.0
N289 N 0.56464 0.25576 0.21486 0.0
C290 C 0.59135 0.24076 0.21341 0.0
C291 C 0.59473 0.27016 0.23378 0.0
C292 C 0.57554 0.2702 0.22761 0.0
C293 C 0.60309 0.25523 0.22674 0.0
H294 H 0.56388 0.23014 0.19731 0.0
H295 H 0.56954 0.28197 0.23281 0.0
C296 C 0.4828 0.24599 0.15502 0.0
N297 N 0.45556 0.23969 0.12288 0.0
C298 C 0.46393 0.24003 0.15743 0.0
C299 C 0.48788 0.2488 0.13633 0.0
C300 C 0.45034 0.2369 0.14097 0.0
C301 C 0.47387 0.24552 0.12024 0.0
C302 C 0.51706 0.21959 0.21614 0.0
C303 C 0.51026 0.20048 0.21021 0.0
C304 C 0.52424 0.22588 0.23579 0.0
C305 C 0.5108 0.18788 0.22412 0.0
C306 C 0.52453 0.21282 0.24926 0.0
N307 N 0.51786 0.19426 0.24319 0.0
C308 C 0.52819 0.19911 0.16187 0.0
C309 C 0.50232 0.20174 0.13951 0.0
C310 C 0.52962 0.1821 0.15122 0.0
N311 N 0.51456 0.20855 0.15616 0.0
C312 C 0.50336 0.18473 0.12826 0.0
C313 C 0.51701 0.17444 0.1342 0.0
H314 H 0.53802 0.20478 0.17488 0.0
H315 H 0.49167 0.20941 0.1349 0.0
C316 C 0.47337 0.2727 0.2153 0.0
N317 N 0.47706 0.25502 0.21354 0.0
C318 C 0.45635 0.27631 0.22142 0.0
C319 C 0.44679 0.24367 0.22466 0.0
C320 C 0.46409 0.24061 0.21835 0.0
C321 C 0.44235 0.26172 0.22589 0.0
H322 H 0.48349 0.2841 0.21135 0.0
H323 H 0.4668 0.22652 0.21669 0.0
O324 O 0.53851 0.25169 0.17265 0.0
O325 O 0.52256 0.27473 0.20425 0.0
O326 O 0.49622 0.24916 0.17096 0.0
O327 O 0.51694 0.23205 0.20267 0.0
H328 H 0.57256 0.27297 0.18057 0.0
H329 H 0.53352 0.23652 0.13545 0.0
H330 H 0.59592 0.27704 0.15668 0.0
H331 H 0.55751 0.24132 0.11231 0.0
H332 H 0.52778 0.30242 0.2673 0.0
H333 H 0.54376 0.30711 0.19961 0.0
H334 H 0.51617 0.27523 0.24144 0.0
H335 H 0.55481 0.33378 0.22615 0.0
H336 H 0.54248 0.31128 0.12482 0.0
H337 H 0.50213 0.32876 0.16092 0.0
H338 H 0.5968 0.22915 0.20679 0.0
H339 H 0.60286 0.28173 0.24404 0.0
H340 H 0.45983 0.23784 0.17185 0.0
H341 H 0.50247 0.25341 0.13429 0.0
H342 H 0.43567 0.23227 0.14259 0.0
H343 H 0.47756 0.24761 0.10566 0.0
H344 H 0.50463 0.19544 0.19504 0.0
H345 H 0.52961 0.24066 0.24054 0.0
H346 H 0.5056 0.17303 0.21975 0.0
H347 H 0.53007 0.21745 0.26452 0.0
H348 H 0.54058 0.17497 0.15636 0.0
H349 H 0.49325 0.17945 0.11535 0.0
H350 H 0.45407 0.29057 0.22232 0.0
H351 H 0.43664 0.23182 0.22771 0.0
Li352 Li 0.05813 0.80625 0.09691 0.0
Li353 Li 0.07808 0.79139 0.12427 0.0
Li354 Li 0.05653 0.76862 0.09516 0.0
Li355 Li 0.04203 0.78614 0.12217 0.0
C356 C 0.09142 0.79124 0.08136 0.0
N357 N 0.1171 0.79244 0.05445 0.0
C358 C 0.11054 0.79781 0.08767 0.0
C359 C 0.0853 0.78526 0.06142 0.0
C360 C 0.12332 0.79833 0.07381 0.0
C361 C 0.09853 0.78597 0.04803 0.0
C362 C 0.06421 0.82425 0.14214 0.0
C363 C 0.06566 0.83444 0.17682 0.0
N364 N 0.07028 0.85258 0.17323 0.0
C365 C 0.06898 0.84297 0.13877 0.0
C366 C 0.06254 0.81991 0.16129 0.0
C367 C 0.07199 0.8571 0.15469 0.0
C368 C 0.0381 0.83562 0.08624 0.0
N369 N 0.05489 0.83036 0.08432 0.0
C370 C 0.06502 0.85912 0.0698 0.0
C371 C 0.06822 0.84182 0.076 0.0
C372 C 0.048 0.86519 0.0723 0.0
C373 C 0.03442 0.85271 0.08039 0.0
H374 H 0.02753 0.82671 0.09287 0.0
H375 H 0.08165 0.83788 0.07459 0.0
C376 C 0.10966 0.77748 0.14303 0.0
N377 N 0.1022 0.79322 0.14212 0.0
C378 C 0.12647 0.77777 0.15533 0.0
C379 C 0.12779 0.81039 0.16592 0.0
C380 C 0.11096 0.80949 0.15345 0.0
C381 C 0.13605 0.79445 0.16699 0.0
H382 H 0.10259 0.76459 0.13407 0.0
H383 H 0.10494 0.82188 0.15286 0.0
C384 C 0.02137 0.77939 0.07809 0.0
N385 N 0.99149 0.77106 0.04849 0.0
C386 C 1.00397 0.76947 0.08162 0.0
C387 C 0.02363 0.78506 0.05953 0.0
C388 C 0.98902 0.7654 0.06646 0.0
C389 C 0.00833 0.7807 0.04474 0.0
C390 C 0.05612 0.7559 0.13795 0.0
C391 C 0.04652 0.73744 0.13223 0.0
C392 C 0.0628 0.76193 0.15777 0.0
C393 C 0.04366 0.72528 0.14653 0.0
C394 C 0.05967 0.74933 0.17162 0.0
N395 N 0.05025 0.73142 0.16576 0.0
C396 C 0.07034 0.73455 0.08611 0.0
C397 C 0.0394 0.73111 0.0705 0.0
C398 C 0.07009 0.71536 0.08078 0.0
N399 N 0.05507 0.7422 0.08131 0.0
C400 C 0.03865 0.71173 0.06465 0.0
C401 C 0.05399 0.70333 0.07022 0.0
H402 H 0.08259 0.74322 0.09497 0.0
H403 H 0.0271 0.73701 0.06708 0.0
C404 C 0.01448 0.79903 0.14505 0.0
N405 N 0.02011 0.7836 0.13674 0.0
C406 C 0.99793 0.79719 0.15417 0.0
C407 C 0.99311 0.76367 0.14596 0.0
C408 C 0.0098 0.76613 0.1372 0.0
C409 C 0.98681 0.77932 0.15449 0.0
H410 H 0.02259 0.81285 0.14423 0.0
H411 H 0.01424 0.75404 0.13023 0.0
O412 O 0.07879 0.79045 0.09473 0.0
O413 O 0.06102 0.8103 0.12669 0.0
O414 O 0.03599 0.78406 0.09289 0.0
O415 O 0.05927 0.76793 0.12415 0.0
H416 H 0.11544 0.80244 0.1031 0.0
H417 H 0.07051 0.78006 0.05639 0.0
H418 H 0.13818 0.80339 0.07845 0.0
H419 H 0.09404 0.78136 0.03254 0.0
H420 H 0.06437 0.83131 0.19173 0.0
H421 H 0.07033 0.84654 0.12401 0.0
H422 H 0.05873 0.80548 0.16409 0.0
H423 H 0.07567 0.87166 0.15231 0.0
H424 H 0.07613 0.86802 0.06384 0.0
H425 H 0.02092 0.8562 0.0825 0.0
H426 H 0.1321 0.76509 0.15532 0.0
H427 H 0.13419 0.82356 0.17476 0.0
H428 H 1.00199 0.76504 0.09592 0.0
H429 H 0.03702 0.79285 0.05663 0.0
H430 H 0.97544 0.75778 0.069 0.0
H431 H 0.00984 0.78504 0.03031 0.0
H432 H 0.04125 0.73258 0.11694 0.0
H433 H 0.07042 0.77613 0.16238 0.0
H434 H 0.03623 0.71095 0.14233 0.0
H435 H 0.06477 0.75378 0.18702 0.0
H436 H 0.08239 0.70984 0.08542 0.0
H437 H 0.02579 0.70321 0.05676 0.0
H438 H 0.99359 0.80969 0.16035 0.0
H439 H 0.98518 0.74959 0.14599 0.0
Li440 Li 0.50751 0.7861 0.45277 0.0
Li441 Li 0.4858 0.76394 0.42445 0.0
Li442 Li 0.50596 0.74823 0.45143 0.0
Li443 Li 0.5216 0.76687 0.42563 0.0
C444 C 0.47373 0.76826 0.46759 0.0
N445 N 0.44989 0.77584 0.4947 0.0
C446 C 0.45809 0.77581 0.46193 0.0
C447 C 0.47728 0.76452 0.48698 0.0
C448 C 0.4462 0.77957 0.47588 0.0
C449 C 0.46504 0.76846 0.50049 0.0
C450 C 0.50509 0.79775 0.40927 0.0
C451 C 0.50627 0.80312 0.37537 0.0
N452 N 0.50394 0.82098 0.38013 0.0
C453 C 0.5027 0.81614 0.41385 0.0
C454 C 0.50688 0.79114 0.3899 0.0
C455 C 0.50214 0.82767 0.3989 0.0
C456 C 0.52767 0.82461 0.46599 0.0
N457 N 0.51072 0.81311 0.46646 0.0
C458 C 0.49846 0.84042 0.47833 0.0
C459 C 0.4963 0.82077 0.47288 0.0
C460 C 0.51555 0.85271 0.47697 0.0
C461 C 0.53035 0.84421 0.47114 0.0
H462 H 0.539 0.81869 0.46062 0.0
H463 H 0.48272 0.81183 0.47291 0.0
C464 C 0.45025 0.74537 0.40015 0.0
N465 N 0.46155 0.76231 0.40692 0.0
C466 C 0.43349 0.74407 0.38746 0.0
C467 C 0.43988 0.77765 0.38878 0.0
C468 C 0.45644 0.77832 0.4016 0.0
C469 C 0.42802 0.76033 0.38121 0.0
H470 H 0.45425 0.73273 0.40453 0.0
H471 H 0.46528 0.79176 0.4072 0.0
C472 C 0.54292 0.77157 0.46897 0.0
N473 N 0.57303 0.77355 0.49737 0.0
C474 C 0.55844 0.76413 0.46426 0.0
C475 C 0.54268 0.78003 0.48808 0.0
C476 C 0.57354 0.76527 0.47884 0.0
C477 C 0.55805 0.78088 0.50225 0.0
C478 C 0.50201 0.7309 0.40593 0.0
C479 C 0.50939 0.71494 0.4088 0.0
C480 C 0.49517 0.73365 0.38695 0.0
C481 C 0.50998 0.70204 0.39254 0.0
C482 C 0.49599 0.72041 0.37107 0.0
N483 N 0.50332 0.70502 0.37417 0.0
C484 C 0.49656 0.70706 0.45768 0.0
C485 C 0.52277 0.72416 0.4789 0.0
C486 C 0.49918 0.69007 0.46501 0.0
N487 N 0.50829 0.72392 0.46454 0.0
C488 C 0.52584 0.70757 0.48663 0.0
C489 C 0.51403 0.6899 0.47986 0.0
H490 H 0.48521 0.7066 0.44611 0.0
H491 H 0.53232 0.73724 0.48432 0.0
C492 C 0.552 0.78424 0.40471 0.0
N493 N 0.54318 0.76783 0.41033 0.0
C494 C 0.56793 0.78488 0.39461 0.0
C495 C 0.56544 0.75177 0.39607 0.0
C496 C 0.54973 0.7518 0.40624 0.0
C497 C 0.57505 0.7685 0.39022 0.0
H498 H 0.5469 0.79697 0.40837 0.0
H499 H 0.543 0.739 0.41122 0.0
O500 O 0.48531 0.76416 0.45409 0.0
O501 O 0.50591 0.78635 0.42376 0.0
O502 O 0.52806 0.77069 0.45493 0.0
O503 O 0.50108 0.74354 0.42168 0.0
H504 H 0.45518 0.77873 0.44692 0.0
H505 H 0.48933 0.75858 0.49151 0.0
H506 H 0.43402 0.78543 0.47173 0.0
H507 H 0.46758 0.76562 0.51557 0.0
H508 H 0.5077 0.79823 0.36031 0.0
H509 H 0.5012 0.82145 0.42874 0.0
H510 H 0.5089 0.77699 0.38617 0.0
H511 H 0.50029 0.84194 0.40222 0.0
H512 H 0.48649 0.84601 0.48251 0.0
H513 H 0.54392 0.85276 0.46996 0.0
H514 H 0.42487 0.73031 0.3827 0.0
H515 H 0.43668 0.79066 0.38455 0.0
H516 H 0.5588 0.75752 0.44952 0.0
H517 H 0.53073 0.78586 0.4919 0.0
H518 H 0.58566 0.75958 0.47542 0.0
H519 H 0.55808 0.78737 0.51711 0.0
H520 H 0.51484 0.71266 0.42338 0.0
H521 H 0.4892 0.74582 0.38453 0.0
H522 H 0.51575 0.68967 0.39453 0.0
H523 H 0.49075 0.72235 0.35629 0.0
H524 H 0.48945 0.67717 0.45913 0.0
H525 H 0.53778 0.70869 0.49768 0.0
H526 H 0.57486 0.79823 0.3908 0.0
H527 H 0.57 0.73864 0.39291 0.0
Li528 Li 0.55779 0.30811 0.5992 0.0
Li529 Li 0.57756 0.29276 0.62617 0.0
Li530 Li 0.55518 0.27041 0.59759 0.0
Li531 Li 0.54151 0.28858 0.62487 0.0
C532 C 0.59007 0.29201 0.58295 0.0
N533 N 0.61512 0.29251 0.55542 0.0
C534 C 0.60928 0.29846 0.58882 0.0
C535 C 0.58354 0.28581 0.56314 0.0
C536 C 0.62174 0.29861 0.57465 0.0
C537 C 0.59645 0.28616 0.54943 0.0
C538 C 0.56514 0.32608 0.64469 0.0
C539 C 0.56598 0.33598 0.67934 0.0
N540 N 0.57204 0.35406 0.67616 0.0
C541 C 0.57143 0.34472 0.64175 0.0
C542 C 0.56243 0.32161 0.66361 0.0
C543 C 0.57483 0.35868 0.65786 0.0
C544 C 0.54392 0.34317 0.59317 0.0
N545 N 0.55582 0.3323 0.58626 0.0
C546 C 0.5645 0.35494 0.56357 0.0
C547 C 0.56608 0.3381 0.57166 0.0
C548 C 0.55227 0.36649 0.57035 0.0
C549 C 0.54201 0.36017 0.58557 0.0
H550 H 0.53579 0.33872 0.60478 0.0
H551 H 0.57566 0.32972 0.56621 0.0
C552 C 0.60929 0.27745 0.63837 0.0
N553 N 0.60176 0.29279 0.64296 0.0
C554 C 0.62536 0.27442 0.64966 0.0
C555 C 0.62643 0.30328 0.67032 0.0
C556 C 0.61017 0.30576 0.65857 0.0
C557 C 0.63414 0.28719 0.66622 0.0
H558 H 0.60254 0.26723 0.62602 0.0
H559 H 0.60407 0.31786 0.66226 0.0
C560 C 0.52043 0.28051 0.58091 0.0
N561 N 0.49055 0.26913 0.55152 0.0
C562 C 0.50363 0.26974 0.58493 0.0
C563 C 0.5221 0.2855 0.56199 0.0
C564 C 0.48866 0.26413 0.56986 0.0
C565 C 0.50681 0.27959 0.54731 0.0
C566 C 0.55516 0.25751 0.63999 0.0
C567 C 0.54505 0.23926 0.63404 0.0
C568 C 0.56255 0.26296 0.65972 0.0
C569 C 0.54247 0.22672 0.64801 0.0
C570 C 0.55966 0.25 0.67324 0.0
N571 N 0.54977 0.2323 0.66715 0.0
C572 C 0.56952 0.23688 0.58758 0.0
C573 C 0.53771 0.23219 0.57425 0.0
C574 C 0.56971 0.21776 0.58236 0.0
N575 N 0.55363 0.24388 0.58386 0.0
C576 C 0.53735 0.21284 0.56862 0.0
C577 C 0.55339 0.20509 0.57313 0.0
H578 H 0.58201 0.24603 0.59543 0.0
H579 H 0.52497 0.23758 0.57166 0.0
C580 C 0.51477 0.30388 0.64605 0.0
N581 N 0.5201 0.28749 0.64032 0.0
C582 C 0.499 0.304 0.65616 0.0
C583 C 0.49421 0.27036 0.65439 0.0
C584 C 0.51017 0.27089 0.64438 0.0
C585 C 0.48821 0.28707 0.66033 0.0
H586 H 0.52264 0.31694 0.64255 0.0
H587 H 0.51432 0.25794 0.63944 0.0
O588 O 0.57774 0.29157 0.59664 0.0
O589 O 0.56131 0.31233 0.62901 0.0
O590 O 0.53504 0.28655 0.59556 0.0
O591 O 0.55808 0.26988 0.6265 0.0
H592 H 0.6145 0.30328 0.60414 0.0
H593 H 0.56868 0.28071 0.55845 0.0
H594 H 0.63666 0.30357 0.57896 0.0
H595 H 0.59164 0.28138 0.53402 0.0
H596 H 0.56388 0.33277 0.69407 0.0
H597 H 0.57366 0.34836 0.62718 0.0
H598 H 0.55749 0.30723 0.66607 0.0
H599 H 0.57965 0.37318 0.65581 0.0
H600 H 0.5731 0.35895 0.55217 0.0
H601 H 0.53224 0.36811 0.59141 0.0
H602 H 0.63075 0.26195 0.6455 0.0
H603 H 0.63246 0.31351 0.68291 0.0
H604 H 0.50214 0.26584 0.59955 0.0
H605 H 0.53503 0.29391 0.55872 0.0
H606 H 0.47554 0.25584 0.57275 0.0
H607 H 0.50786 0.28336 0.53259 0.0
H608 H 0.53919 0.23485 0.61883 0.0
H609 H 0.57048 0.27702 0.66451 0.0
H610 H 0.53467 0.21255 0.64362 0.0
H611 H 0.56531 0.254 0.68857 0.0
H612 H 0.5826 0.21287 0.58601 0.0
H613 H 0.52432 0.20387 0.56169 0.0
H614 H 0.49535 0.31735 0.66062 0.0
H615 H 0.48637 0.25689 0.65688 0.0
Li616 Li 0.00816 0.28501 0.95129 0.0
Li617 Li 0.98607 0.26296 0.92248 0.0
Li618 Li 1.00644 0.2472 0.94921 0.0
Li619 Li 0.02209 0.2664 0.924 0.0
C620 C 0.97407 0.26668 0.96562 0.0
N621 N 0.9502 0.27396 0.99282 0.0
C622 C 0.95821 0.27391 0.95997 0.0
C623 C 0.97783 0.2631 0.98505 0.0
C624 C 0.94631 0.27751 0.97396 0.0
C625 C 0.96558 0.2669 0.9986 0.0
C626 C 0.00832 0.29784 0.9086 0.0
C627 C 0.01381 0.30419 0.87571 0.0
N628 N 0.01239 0.32233 0.88057 0.0
C629 C 1.00664 0.31647 0.91317 0.0
C630 C 0.01161 0.29154 0.88962 0.0
C631 C 0.00882 0.32866 0.89883 0.0
C632 C 0.02576 0.32519 0.96245 0.0
N633 N 0.01107 0.31163 0.96565 0.0
C634 C 0.99824 0.33569 0.98343 0.0
C635 C 0.9975 0.31674 0.97612 0.0
C636 C 0.01295 0.35009 0.97993 0.0
C637 C 0.02687 0.34438 0.96926 0.0
H638 H 0.03636 0.32124 0.95387 0.0
H639 H 0.98572 0.30621 0.97849 0.0
C640 C 0.94639 0.24791 0.9027 0.0
N641 N 0.96175 0.26227 0.90537 0.0
C642 C 0.9295 0.24944 0.89136 0.0
C643 C 0.94462 0.28003 0.88517 0.0
C644 C 0.96089 0.27806 0.89669 0.0
C645 C 0.92829 0.2659 0.88264 0.0
H646 H 0.94702 0.23542 0.90969 0.0
H647 H 0.97271 0.28955 0.89895 0.0
C648 C 0.04362 0.27058 0.96697 0.0
N649 N 0.07407 0.27263 0.99495 0.0
C650 C 0.05943 0.26396 0.96176 0.0
C651 C 0.04325 0.27828 0.98635 0.0
C652 C 0.0747 0.26511 0.97615 0.0
C653 C 0.0588 0.27917 1.0003 0.0
C654 C 1.00308 0.22989 0.90422 0.0
C655 C 0.01131 0.21461 0.90792 0.0
C656 C 0.99584 0.23155 0.88502 0.0
C657 C 0.01222 0.2012 0.89225 0.0
C658 C 0.99704 0.21783 0.86975 0.0
N659 N 1.00512 0.20307 0.87365 0.0
C660 C 0.99602 0.20626 0.95583 0.0
C661 C 0.02345 0.22267 0.97565 0.0
C662 C 0.99838 0.18917 0.96309 0.0
N663 N 0.00847 0.22281 0.96207 0.0
C664 C 0.02632 0.20598 0.98324 0.0
C665 C 0.01374 0.18862 0.97717 0.0
H666 H 0.98427 0.20611 0.94484 0.0
H667 H 0.03358 0.2355 0.98051 0.0
C668 C 0.05325 0.28702 0.90823 0.0
N669 N 0.0436 0.26924 0.90858 0.0
C670 C 0.06825 0.29047 0.89698 0.0
C671 C 0.06402 0.2572 0.88733 0.0
C672 C 0.04892 0.2544 0.8986 0.0
C673 C 0.07379 0.27548 0.88615 0.0
H674 H 0.04914 0.29864 0.91654 0.0
H675 H 0.04145 0.24033 0.89924 0.0
O676 O 0.9858 0.26297 0.95214 0.0
O677 O 1.00605 0.28567 0.92242 0.0
O678 O 0.02857 0.26963 0.95315 0.0
O679 O 1.00165 0.2429 0.9194 0.0
H680 H 0.95517 0.27676 0.94495 0.0
H681 H 0.99008 0.25748 0.98958 0.0
H682 H 0.93397 0.28313 0.96983 0.0
H683 H 0.96828 0.26421 0.01371 0.0
H684 H 0.01657 0.29957 0.86103 0.0
H685 H 1.00328 0.3214 0.92748 0.0
H686 H 0.01252 0.27706 0.8857 0.0
H687 H 0.00756 0.34311 0.90218 0.0
H688 H 0.98695 0.33905 0.99133 0.0
H689 H 0.03864 0.35465 0.96622 0.0
H690 H 0.91738 0.2381 0.89 0.0
H691 H 0.94485 0.29285 0.87851 0.0
H692 H 0.05988 0.25797 0.94679 0.0
H693 H 0.03107 0.28347 0.99054 0.0
H694 H 0.08705 0.26004 0.97236 0.0
H695 H 0.05874 0.28507 0.01537 0.0
H696 H 0.01706 0.21321 0.9227 0.0
H697 H 0.98933 0.24326 0.88198 0.0
H698 H 0.01858 0.18931 0.89488 0.0
H699 H 0.99149 0.2189 0.8548 0.0
H700 H 0.98807 0.17652 0.95777 0.0
H701 H 0.0387 0.20678 0.99362 0.0
H702 H 0.07554 0.30478 0.89688 0.0
H703 H 0.06774 0.24519 0.87927 0.0
Li704 Li 0.39644 0.017 0.31622 0.0
Li705 Li 0.36835 1.00185 0.29262 0.0
Li706 Li 0.39459 0.02135 0.28087 0.0
Li707 Li 0.37329 0.03387 0.30197 0.0
C708 C 0.40566 0.98542 0.2935 0.0
N709 N 0.42862 0.95943 0.29496 0.0
C710 C 0.39823 0.96691 0.29612 0.0
C711 C 0.4248 0.99076 0.2918 0.0
C712 C 0.41006 0.95397 0.29679 0.0
C713 C 0.43616 0.97739 0.29251 0.0
C714 C 0.35863 0.0186 0.33357 0.0
C715 C 0.32935 0.02542 0.34273 0.0
N716 N 0.33596 0.02602 0.36206 0.0
C717 C 0.36505 0.01911 0.35351 0.0
C718 C 0.34055 0.02157 0.32811 0.0
C719 C 0.35342 0.02295 0.36769 0.0
C720 C 0.41486 0.03104 0.35334 0.0
N721 N 0.41211 0.01598 0.33932 0.0
C722 C 0.42939 0.99969 0.36044 0.0
C723 C 0.41916 1.00051 0.3425 0.0
C724 C 0.43169 0.0146 0.37567 0.0
C725 C 0.42441 0.03055 0.37184 0.0
H726 H 0.40885 0.04308 0.35041 0.0
H727 H 0.41657 0.98856 0.33141 0.0
C728 C 0.35303 0.96702 0.27126 0.0
N729 N 0.35134 0.97927 0.28689 0.0
C730 C 0.34368 0.94844 0.2697 0.0
C731 C 0.33018 0.95605 0.29959 0.0
C732 C 0.33968 0.97443 0.3005 0.0
C733 C 0.33292 0.94278 0.28459 0.0
H734 H 0.36279 0.97133 0.26097 0.0
H735 H 0.33886 0.98443 0.31287 0.0
C736 C 0.41651 0.05376 0.30348 0.0
N737 N 0.44782 0.08077 0.3009 0.0
C738 C 0.41443 0.07122 0.29802 0.0
C739 C 0.43447 0.05003 0.3077 0.0
C740 C 0.43044 0.0847 0.2968 0.0
C741 C 0.45014 0.06387 0.30626 0.0
C742 C 0.35428 0.01129 0.25973 0.0
C743 C 0.35959 0.0057 0.24141 0.0
C744 C 0.33548 0.00632 0.263 0.0
C745 C 0.34607 0.99489 0.22681 0.0
C746 C 0.3224 0.99546 0.24804 0.0
N747 N 0.32792 0.99001 0.23042 0.0
C748 C 0.41064 0.00582 0.2509 0.0
C749 C 0.42011 0.03896 0.25546 0.0
C750 C 0.42332 1.00426 0.23738 0.0
N751 N 0.40977 0.02288 0.26017 0.0
C752 C 0.4329 0.03807 0.24172 0.0
C753 C 0.43494 0.02048 0.23307 0.0
H754 H 0.40177 0.99332 0.25441 0.0
H755 H 0.41879 0.05239 0.26259 0.0
C756 C 0.3727 0.06902 0.32056 0.0
N757 N 0.36264 0.05454 0.30756 0.0
C758 C 0.36786 0.08657 0.3211 0.0
C759 C 0.34115 0.07311 0.29664 0.0
C760 C 0.34678 0.05597 0.29622 0.0
C761 C 0.35235 0.08873 0.30847 0.0
H762 H 0.38537 0.06732 0.32919 0.0
H763 H 0.33934 0.04422 0.28582 0.0
O764 O 0.39426 0.99825 0.29276 0.0
O765 O 0.36952 0.01391 0.31951 0.0
O766 O 0.40101 0.04046 0.30483 0.0
O767 O 0.36738 0.02165 0.27431 0.0
H768 H 0.38353 0.96261 0.29784 0.0
H769 H 0.43082 0.00508 0.28999 0.0
H770 H 0.4045 0.93961 0.29882 0.0
H771 H 0.45098 0.9813 0.29115 0.0
H772 H 0.31534 0.02777 0.3387 0.0
H773 H 0.37867 0.01609 0.35802 0.0
H774 H 0.33515 0.02068 0.31274 0.0
H775 H 0.35821 0.02332 0.38317 0.0
H776 H 0.43523 0.98734 0.36229 0.0
H777 H 0.42553 0.04232 0.38309 0.0
H778 H 0.34621 0.93834 0.25813 0.0
H779 H 0.32197 0.95193 0.31129 0.0
H780 H 0.4006 0.07426 0.29451 0.0
H781 H 0.43628 0.03659 0.31201 0.0
H782 H 0.42905 0.09826 0.29253 0.0
H783 H 0.46415 0.06119 0.30942 0.0
H784 H 0.37396 0.00968 0.23846 0.0
H785 H 0.33111 0.01045 0.27709 0.0
H786 H 0.35002 0.99039 0.21261 0.0
H787 H 0.30787 0.99132 0.25048 0.0
H788 H 0.42419 0.99049 0.2305 0.0
H789 H 0.44149 0.05085 0.23838 0.0
H790 H 0.37688 0.09855 0.33007 0.0
H791 H 0.32932 0.07456 0.28645 0.0
Li792 Li 0.27036 0.18686 0.5335 0.0
Li793 Li 0.28393 0.16212 0.51472 0.0
Li794 Li 0.26914 0.18501 0.49616 0.0
Li795 Li 0.24901 0.15888 0.5109 0.0
C796 C 0.3062 0.20438 0.51852 0.0
N797 N 0.33647 0.2339 0.52136 0.0
C798 C 0.32439 0.20168 0.52391 0.0
C799 C 0.30338 0.22204 0.51445 0.0
C800 C 0.33952 0.21679 0.5253 0.0
C801 C 0.31888 0.23681 0.51601 0.0
C802 C 0.26887 0.146 0.5471 0.0
C803 C 0.26437 0.1136 0.55284 0.0
N804 N 0.27327 0.11898 0.57148 0.0
C805 C 0.27791 0.15124 0.56631 0.0
C806 C 0.26198 0.12707 0.5403 0.0
C807 C 0.28003 0.13736 0.5784 0.0
C808 C 0.25993 0.19545 0.57139 0.0
N809 N 0.27252 0.20165 0.55901 0.0
C810 C 0.28819 0.22657 0.58394 0.0
C811 C 0.28656 0.21687 0.56496 0.0
C812 C 0.27539 0.22048 0.59709 0.0
C813 C 0.26114 0.20462 0.59055 0.0
H814 H 0.24901 0.1832 0.56643 0.0
H815 H 0.29662 0.22144 0.55509 0.0
C816 C 0.31017 0.14158 0.49959 0.0
N817 N 0.30473 0.14966 0.5162 0.0
C818 C 0.32628 0.13376 0.5007 0.0
C819 C 0.33105 0.14302 0.5359 0.0
C820 C 0.31478 0.15048 0.53413 0.0
C821 C 0.33704 0.13462 0.51903 0.0
H822 H 0.30228 0.14159 0.48542 0.0
H823 H 0.31047 0.15744 0.54702 0.0
C824 C 0.23792 0.19933 0.50916 0.0
N825 N 0.21657 0.22567 0.50123 0.0
C826 C 0.22008 0.19373 0.49847 0.0
C827 C 0.24493 0.21826 0.51591 0.0
C828 C 0.20949 0.20728 0.49459 0.0
C829 C 0.23391 0.23138 0.5117 0.0
C830 C 0.26235 0.14302 0.47511 0.0
C831 C 0.25826 0.14667 0.45575 0.0
C832 C 0.26288 0.12472 0.47892 0.0
C833 C 0.2548 0.13188 0.44046 0.0
C834 C 0.25933 0.11031 0.46323 0.0
N835 N 0.25541 0.11416 0.44448 0.0
C836 C 0.28823 0.19721 0.46492 0.0
C837 C 0.25884 0.20651 0.46379 0.0
C838 C 0.29138 0.20407 0.447 0.0
N839 N 0.27206 0.19823 0.47287 0.0
C840 C 0.26148 0.21368 0.44579 0.0
C841 C 0.27776 0.21211 0.43687 0.0
H842 H 0.29851 0.19049 0.47225 0.0
H843 H 0.24595 0.20705 0.4701 0.0
C844 C 0.21687 0.13844 0.52523 0.0
N845 N 0.22505 0.14164 0.50861 0.0
C846 C 0.19917 0.12661 0.5241 0.0
C847 C 0.1988 0.12127 0.48882 0.0
C848 C 0.21641 0.13325 0.49062 0.0
C849 C 0.18971 0.11799 0.50566 0.0
H850 H 0.22398 0.14532 0.53939 0.0
H851 H 0.22305 0.13601 0.47758 0.0
O852 O 0.29128 0.18969 0.5169 0.0
O853 O 0.26633 0.15942 0.53522 0.0
O854 O 0.24831 0.18626 0.51336 0.0
O855 O 0.26616 0.15742 0.49016 0.0
H856 H 0.32683 0.18807 0.52698 0.0
H857 H 0.28938 0.2243 0.5101 0.0
H858 H 0.35368 0.21491 0.52948 0.0
H859 H 0.31693 0.25058 0.51294 0.0
H860 H 0.2591 0.09888 0.54779 0.0
H861 H 0.28328 0.16586 0.57179 0.0
H862 H 0.25473 0.12282 0.52555 0.0
H863 H 0.28703 0.14119 0.5933 0.0
H864 H 0.29955 0.23857 0.58838 0.0
H865 H 0.25086 0.1995 0.60005 0.0
H866 H 0.33056 0.12758 0.48732 0.0
H867 H 0.33886 0.14383 0.55032 0.0
H868 H 0.21449 0.17907 0.49326 0.0
H869 H 0.25867 0.22272 0.52437 0.0
H870 H 0.19564 0.20319 0.48634 0.0
H871 H 0.23912 0.2461 0.51681 0.0
H872 H 0.25782 0.16078 0.45256 0.0
H873 H 0.2662 0.12172 0.49381 0.0
H874 H 0.25167 0.1345 0.42539 0.0
H875 H 0.25976 0.09608 0.46594 0.0
H876 H 0.30427 0.20274 0.44094 0.0
H877 H 0.25051 0.21961 0.43851 0.0
H878 H 0.19275 0.12473 0.53748 0.0
H879 H 0.19233 0.11473 0.4743 0.0
Li880 Li 0.15002 0.06174 0.78789 0.0
Li881 Li 0.12405 0.04159 0.80295 0.0
Li882 Li 0.14673 0.02681 0.7838 0.0
Li883 Li 0.12159 0.04083 0.76552 0.0
C884 C 0.16614 0.0467 0.82337 0.0
N885 N 0.19497 0.05059 0.85369 0.0
C886 C 0.16291 0.05095 0.84286 0.0
C887 C 0.184 0.04442 0.81926 0.0
C888 C 0.17767 0.05286 0.85799 0.0
C889 C 0.1984 0.04646 0.83481 0.0
C890 C 0.10935 0.07284 0.79 0.0
C891 C 0.07705 0.07626 0.78751 0.0
N892 N 0.08257 0.09384 0.79741 0.0
C893 C 0.11475 0.09091 0.80012 0.0
C894 C 0.0904 0.06541 0.78357 0.0
C895 C 0.10098 0.10132 0.80373 0.0
C896 C 0.16846 0.09466 0.77366 0.0
N897 N 0.16747 0.08548 0.78991 0.0
C898 C 0.19059 0.11031 0.80861 0.0
C899 C 0.17832 0.09291 0.80717 0.0
C900 C 0.19166 0.12039 0.79221 0.0
C901 C 0.1805 0.11216 0.77447 0.0
H902 H 0.1597 0.08847 0.76008 0.0
H903 H 0.17736 0.08544 0.81992 0.0
C904 C 0.11311 0.0229 0.83488 0.0
N905 N 0.11087 0.03839 0.82626 0.0
C906 C 0.10517 0.01909 0.85212 0.0
C907 C 0.09245 0.04717 0.85155 0.0
C908 C 0.10082 0.05055 0.83431 0.0
C909 C 0.09448 0.03118 0.86079 0.0
H910 H 0.12136 0.01355 0.82846 0.0
H911 H 0.09931 0.06294 0.82749 0.0
C912 C 0.1623 0.04392 0.75096 0.0
N913 N 0.18919 0.04275 0.72559 0.0
C914 C 0.1569 0.03746 0.73099 0.0
C915 C 0.18134 0.04988 0.75804 0.0
C916 C 0.17072 0.03693 0.7184 0.0
C917 C 0.19473 0.04917 0.74497 0.0
C918 C 0.10508 1.00423 0.78037 0.0
C919 C 0.10871 0.98652 0.77457 0.0
C920 C 0.08716 0.00598 0.78474 0.0
C921 C 0.09427 0.97077 0.7732 0.0
C922 C 0.07309 0.98988 0.78321 0.0
N923 N 0.07691 0.97276 0.77752 0.0
C924 C 0.16375 0.99761 0.79782 0.0
C925 C 0.16189 0.99893 0.76341 0.0
C926 C 0.17124 0.98131 0.79576 0.0
N927 N 0.1592 0.006 0.78172 0.0
C928 C 0.16938 0.98281 0.76068 0.0
C929 C 0.1739 0.97356 0.77692 0.0
H930 H 0.16111 1.00328 0.8122 0.0
H931 H 0.15771 0.00548 0.75077 0.0
C932 C 0.10837 0.05326 0.72936 0.0
N933 N 0.10642 0.03849 0.74008 0.0
C934 C 0.09982 0.05117 0.70978 0.0
C935 C 0.0869 0.01889 0.71281 0.0
C936 C 0.0957 0.02158 0.73225 0.0
C937 C 0.08924 0.03365 0.70103 0.0
H938 H 0.11723 0.0665 0.73575 0.0
H939 H 0.09449 0.00992 0.74083 0.0
O940 O 0.15174 0.04447 0.80845 0.0
O941 O 0.12264 0.06263 0.78606 0.0
O942 O 0.14896 0.04447 0.76345 0.0
O943 O 0.11908 0.01976 0.78192 0.0
H944 H 0.14914 0.05275 0.84626 0.0
H945 H 0.18666 0.04097 0.80426 0.0
H946 H 0.17538 0.05612 0.87315 0.0
H947 H 0.2123 0.0447 0.83188 0.0
H948 H 0.06231 0.07072 0.78265 0.0
H949 H 0.12943 0.09682 0.80506 0.0
H950 H 0.0861 0.05146 0.7756 0.0
H951 H 0.10492 0.11535 0.81154 0.0
H952 H 0.19912 0.11581 0.82253 0.0
H953 H 0.18062 0.11938 0.76148 0.0
H954 H 0.10774 0.00685 0.85873 0.0
H955 H 0.08432 0.05693 0.85739 0.0
H956 H 0.14219 0.03278 0.72531 0.0
H957 H 0.18571 0.05505 0.77344 0.0
H958 H 0.16676 0.03189 0.70292 0.0
H959 H 0.20953 0.05373 0.75023 0.0
H960 H 0.12251 0.98493 0.77112 0.0
H961 H 0.08418 0.01961 0.78933 0.0
H962 H 0.09687 0.95697 0.76871 0.0
H963 H 0.05914 0.99099 0.78657 0.0
H964 H 0.17437 0.97456 0.80866 0.0
H965 H 0.17147 0.97755 0.74593 0.0
H966 H 0.10225 0.06291 0.70132 0.0
H967 H 0.07868 0.00518 0.70692 0.0
Li968 Li 0.27955 0.93896 0.99666 0.0
Li969 Li 0.28994 0.91663 0.01752 0.0
Li970 Li 0.31136 0.94186 0.00622 0.0
Li971 Li 0.29476 0.91489 0.98284 0.0
C972 C 0.30168 0.95652 0.03937 0.0
N973 N 0.32238 0.98166 0.07004 0.0
C974 C 0.3061 0.95055 0.05765 0.0
C975 C 0.30756 0.97533 0.03678 0.0
C976 C 0.31663 0.96346 0.07294 0.0
C977 C 0.31808 0.98781 0.05244 0.0
C978 C 0.25742 0.89634 0.99543 0.0
C979 C 0.24716 0.86292 0.99448 0.0
N980 N 0.22984 0.86557 0.9983 0.0
C981 C 0.23952 0.89874 0.99931 0.0
C982 C 0.26128 0.8783 0.99296 0.0
C983 C 0.22577 0.88301 1.00072 0.0
C984 C 0.24528 0.94122 0.97748 0.0
N985 N 0.25952 0.95058 0.99122 0.0
C986 C 0.24026 0.97049 0.00404 0.0
C987 C 0.25768 0.96547 0.00381 0.0
C988 C 0.22486 0.95977 0.99145 0.0
C989 C 0.2275 0.94553 0.97746 0.0
H990 H 0.24727 0.92919 0.96799 0.0
H991 H 0.26923 0.97227 0.0148 0.0
C992 C 0.30215 0.89785 0.04705 0.0
N993 N 0.2862 0.90182 0.038 0.0
C994 C 0.30125 0.88693 0.06243 0.0
C995 C 0.26745 0.88418 0.05882 0.0
C996 C 0.26905 0.89552 0.0437 0.0
C997 C 0.28374 0.87997 0.06833 0.0
H998 H 0.31561 0.9034 0.04247 0.0
H999 H 0.25669 0.89942 0.03671 0.0
C1000 C 0.29343 0.95204 0.96552 0.0
N1001 N 0.28161 0.97317 0.93746 0.0
C1002 C 0.28766 0.94386 0.94607 0.0
C1003 C 0.29332 0.97098 0.9707 0.0
C1004 C 0.28174 0.95478 0.93209 0.0
C1005 C 0.2872 0.98141 0.95631 0.0
C1006 C 0.32516 0.90371 1.00182 0.0
C1007 C 0.34303 0.9111 0.99712 0.0
C1008 C 0.31972 0.88442 0.00223 0.0
C1009 C 0.35514 0.89898 0.99272 0.0
C1010 C 0.33222 0.87276 0.99769 0.0
N1011 N 0.34952 0.88021 0.99307 0.0
C1012 C 0.34544 0.95546 0.02948 0.0
C1013 C 0.34198 0.96774 0.99889 0.0
C1014 C 0.36454 0.96325 0.03236 0.0
N1015 N 0.33482 0.95746 0.01273 0.0
C1016 C 0.36108 0.97546 1.00099 0.0
C1017 C 0.37255 0.97256 0.01753 0.0
H1018 H 0.3394 0.94658 0.0398 0.0
H1019 H 0.33319 0.96863 0.98553 0.0
C1020 C 0.27673 0.8916 0.9504 0.0
N1021 N 0.29426 0.89854 0.95989 0.0
C1022 C 0.27427 0.88044 0.93243 0.0
C1023 C 0.30805 0.88383 0.9341 0.0
C1024 C 0.30986 0.89497 0.95218 0.0
C1025 C 0.29005 0.8767 0.92393 0.0
H1026 H 0.26462 0.89525 0.95647 0.0
H1027 H 0.32366 0.90124 0.95966 0.0
O1028 O 0.29147 0.94406 0.02419 0.0
O1029 O 0.27099 0.91158 0.99382 0.0
O1030 O 0.29996 0.94175 0.97923 0.0
O1031 O 0.31318 0.91535 0.00639 0.0
H1032 H 0.30147 0.93612 0.06002 0.0
H1033 H 0.30426 0.98019 0.02274 0.0
H1034 H 0.32023 0.95901 0.08712 0.0
H1035 H 0.32287 1.00237 0.05059 0.0
H1036 H 0.24995 0.84888 0.9926 0.0
H1037 H 0.23633 0.91261 1.00148 0.0
H1038 H 0.27501 0.8762 0.9898 0.0
H1039 H 0.21188 0.88466 0.0038 0.0
H1040 H 0.2384 0.98131 0.01525 0.0
H1041 H 0.21569 0.93685 0.9679 0.0
H1042 H 0.31407 0.88397 0.06969 0.0
H1043 H 0.2538 0.87917 0.06336 0.0
H1044 H 0.28799 0.92932 0.94171 0.0
H1045 H 0.29791 0.97754 0.98567 0.0
H1046 H 0.27732 0.94866 0.91695 0.0
H1047 H 0.28697 0.99608 0.96011 0.0
H1048 H 0.34747 0.926 0.99672 0.0
H1049 H 0.30603 0.87852 0.00609 0.0
H1050 H 0.36899 0.90448 0.989 0.0
H1051 H 0.32818 0.85778 0.9979 0.0
H1052 H 0.37322 0.96049 0.04504 0.0
H1053 H 0.36706 0.98238 0.98921 0.0
H1054 H 0.26015 0.87506 0.92509 0.0
H1055 H 0.32055 0.88142 0.92781 0.0
Li1056 Li 0.27859 0.39298 0.03595 0.0
Li1057 Li 0.29178 0.36945 0.05453 0.0
Li1058 Li 0.3134 0.39488 0.03908 0.0
Li1059 Li 0.2923 0.3674 0.01719 0.0
C1060 C 0.29561 0.41154 0.07448 0.0
N1061 N 0.29347 0.43994 0.1034 0.0
C1062 C 0.28844 0.40725 0.09193 0.0
C1063 C 0.30175 0.43027 0.07175 0.0
C1064 C 0.28745 0.4218 0.10636 0.0
C1065 C 0.30053 0.44443 0.08654 0.0
C1066 C 0.2555 0.3511 0.03351 0.0
C1067 C 0.24147 0.3182 0.02923 0.0
N1068 N 0.22526 0.32247 0.03483 0.0
C1069 C 0.2387 0.35521 0.03913 0.0
C1070 C 0.25694 0.33249 0.02845 0.0
C1071 C 0.22357 0.34052 0.03975 0.0
C1072 C 0.252 0.40909 0.01478 0.0
N1073 N 0.259 0.40736 0.03345 0.0
C1074 C 0.2389 0.42668 0.04664 0.0
C1075 C 0.25252 0.41565 0.0493 0.0
C1076 C 0.23191 0.42923 0.02749 0.0
C1077 C 0.23851 0.42005 0.01145 0.0
H1078 H 0.2571 0.40209 0.0024 0.0
H1079 H 0.25796 0.41384 0.06402 0.0
C1080 C 0.30364 0.35097 0.08822 0.0
N1081 N 0.28887 0.35615 0.07788 0.0
C1082 C 0.30159 0.34366 0.10625 0.0
C1083 C 0.26917 0.34681 0.10255 0.0
C1084 C 0.27178 0.35387 0.08462 0.0
C1085 C 0.28426 0.34194 0.11393 0.0
H1086 H 0.31723 0.35313 0.08286 0.0
H1087 H 0.2603 0.35838 0.07653 0.0
C1088 C 0.29872 0.40884 0.00371 0.0
N1089 N 0.30293 0.43715 0.97984 0.0
C1090 C 0.30266 0.40516 0.98438 0.0
C1091 C 0.29704 0.42693 0.01094 0.0
C1092 C 0.30472 0.41966 0.97254 0.0
C1093 C 0.2992 0.44105 0.99864 0.0
C1094 C 0.32408 0.35432 0.03708 0.0
C1095 C 0.34216 0.35911 0.03172 0.0
C1096 C 0.31725 0.33605 0.04088 0.0
C1097 C 0.35316 0.34545 0.03018 0.0
C1098 C 0.32869 0.32278 0.03918 0.0
N1099 N 0.34625 0.32772 0.03391 0.0
C1100 C 0.34519 0.42221 0.0582 0.0
C1101 C 0.34657 0.41229 0.02457 0.0
C1102 C 0.36221 0.43499 0.05922 0.0
N1103 N 0.33756 0.41141 0.04096 0.0
C1104 C 0.36383 0.42463 0.02504 0.0
C1105 C 0.37169 0.43639 0.04247 0.0
H1106 H 0.33796 0.42106 0.07113 0.0
H1107 H 0.34025 0.40351 0.01105 0.0
C1108 C 0.278 0.35599 0.97663 0.0
N1109 N 0.29017 0.35243 0.9915 0.0
C1110 C 0.27706 0.34704 0.95737 0.0
C1111 C 0.30088 0.33059 0.969 0.0
C1112 C 0.30147 0.33993 0.98796 0.0
C1113 C 0.28863 0.33411 0.95329 0.0
H1114 H 0.26925 0.36611 0.97966 0.0
H1115 H 0.31125 0.33737 0.9997 0.0
O1116 O 0.29707 0.39743 0.06042 0.0
O1117 O 0.27031 0.3653 0.03255 0.0
O1118 O 0.29574 0.39461 0.01516 0.0
O1119 O 0.31322 0.36753 0.03882 0.0
H1120 H 0.28376 0.39285 0.09436 0.0
H1121 H 0.3076 0.43385 0.05848 0.0
H1122 H 0.28193 0.41867 0.11995 0.0
H1123 H 0.30529 0.45899 0.08466 0.0
H1124 H 0.24235 0.3037 0.02535 0.0
H1125 H 0.2374 0.3696 0.04299 0.0
H1126 H 0.26985 0.32915 0.02392 0.0
H1127 H 0.21048 0.34347 0.04412 0.0
H1128 H 0.2342 0.43347 0.05944 0.0
H1129 H 0.23323 0.42125 0.99643 0.0
H1130 H 0.31367 0.34028 0.11454 0.0
H1131 H 0.25551 0.34562 0.10773 0.0
H1132 H 0.30404 0.39124 0.97856 0.0
H1133 H 0.29374 0.42995 0.02576 0.0
H1134 H 0.30767 0.41699 0.95751 0.0
H1135 H 0.29778 0.45508 0.004 0.0
H1136 H 0.34764 0.37322 0.02879 0.0
H1137 H 0.30325 0.33217 0.04505 0.0
H1138 H 0.36719 0.34895 0.02604 0.0
H1139 H 0.3236 0.30857 0.04204 0.0
H1140 H 0.36791 0.44374 0.07297 0.0
H1141 H 0.37066 0.42539 0.01178 0.0
H1142 H 0.26727 0.35013 0.94583 0.0
H1143 H 0.31029 0.32097 0.96662 0.0
Li1144 Li 0.77317 0.14373 0.06725 0.0
Li1145 Li 0.78933 0.12055 0.05009 0.0
Li1146 Li 0.77513 0.14315 0.03205 0.0
Li1147 Li 0.75596 0.11667 0.04407 0.0
C1148 C 0.80956 0.16393 0.05377 0.0
N1149 N 0.83731 0.19541 0.0545 0.0
C1150 C 0.82741 0.16208 0.04925 0.0
C1151 C 0.80581 0.18174 0.05878 0.0
C1152 C 0.84127 0.17818 0.04972 0.0
C1153 C 0.82001 0.1975 0.05896 0.0
C1154 C 0.76568 0.10306 0.08036 0.0
C1155 C 0.75801 0.07027 0.08435 0.0
N1156 N 0.75571 0.07498 0.10349 0.0
C1157 C 0.76319 0.10759 0.10003 0.0
C1158 C 0.76312 0.08428 0.07241 0.0
C1159 C 0.75818 0.09318 0.1115 0.0
C1160 C 0.75546 0.15855 0.09651 0.0
N1161 N 0.77253 0.15783 0.09067 0.0
C1162 C 0.78831 0.17611 0.1202 0.0
C1163 C 0.78882 0.16619 0.10199 0.0
C1164 C 0.77083 0.17736 0.12659 0.0
C1165 C 0.75425 0.16854 0.11444 0.0
H1166 H 0.74282 0.15126 0.08724 0.0
H1167 H 0.80215 0.16487 0.09698 0.0
C1168 C 0.81825 0.10612 0.03744 0.0
N1169 N 0.80843 0.10775 0.05301 0.0
C1170 C 0.83224 0.09568 0.03806 0.0
C1171 C 0.82562 0.08883 0.07076 0.0
C1172 C 0.81183 0.09961 0.06957 0.0
C1173 C 0.83585 0.08692 0.05483 0.0
H1174 H 0.81499 0.11279 0.02453 0.0
H1175 H 0.8038 0.10141 0.08175 0.0
C1176 C 0.73942 0.15307 0.04341 0.0
N1177 N 0.71078 0.17291 0.04036 0.0
C1178 C 0.72224 0.14493 0.03219 0.0
C1179 C 0.74212 0.17138 0.05285 0.0
C1180 C 0.7079 0.15516 0.03092 0.0
C1181 C 0.72748 0.18118 0.05114 0.0
C1182 C 0.76682 0.10385 0.00774 0.0
C1183 C 0.75283 0.1079 0.99437 0.0
C1184 C 0.77336 0.08718 0.00419 0.0
C1185 C 0.74565 0.09517 0.97756 0.0
C1186 C 0.76577 0.0748 0.98725 0.0
N1187 N 0.7522 0.07903 0.97439 0.0
C1188 C 0.77938 0.15259 0.99354 0.0
C1189 C 0.77398 0.17677 0.01662 0.0
C1190 C 0.77774 0.16364 0.9783 0.0
N1191 N 0.77687 0.15911 0.01211 0.0
C1192 C 0.7725 0.18837 0.00195 0.0
C1193 C 0.77374 0.18163 0.98235 0.0
H1194 H 0.78192 0.13857 0.99041 0.0
H1195 H 0.77224 0.18166 0.03153 0.0
C1196 C 0.72063 0.10418 0.05278 0.0
N1197 N 0.73323 0.09938 0.04095 0.0
C1198 C 0.70235 0.09386 0.0503 0.0
C1199 C 0.71084 0.07309 0.02448 0.0
C1200 C 0.72901 0.0837 0.02764 0.0
C1201 C 0.69721 0.07854 0.0355 0.0
H1202 H 0.72462 0.11653 0.06354 0.0
H1203 H 0.73947 0.07959 0.01912 0.0
O1204 O 0.79615 0.14829 0.05427 0.0
O1205 O 0.77138 0.11703 0.06925 0.0
O1206 O 0.75303 0.14272 0.04619 0.0
O1207 O 0.77418 0.11613 0.0242 0.0
H1208 H 0.83058 0.14835 0.04564 0.0
H1209 H 0.79215 0.18335 0.06267 0.0
H1210 H 0.8552 0.17697 0.04637 0.0
H1211 H 0.81732 0.21139 0.06277 0.0
H1212 H 0.75598 0.05566 0.07843 0.0
H1213 H 0.76537 0.12208 0.10645 0.0
H1214 H 0.76518 0.0806 0.05723 0.0
H1215 H 0.75633 0.09648 0.1268 0.0
H1216 H 0.80141 0.18237 0.1293 0.0
H1217 H 0.74051 0.16936 0.11868 0.0
H1218 H 0.84008 0.09433 0.02559 0.0
H1219 H 0.82836 0.08223 0.08387 0.0
H1220 H 0.71993 0.13078 0.02475 0.0
H1221 H 0.75533 0.17788 0.06161 0.0
H1222 H 0.69445 0.14895 0.02249 0.0
H1223 H 0.72934 0.19532 0.05849 0.0
H1224 H 0.74753 0.12069 0.99701 0.0
H1225 H 0.78406 0.08377 0.0145 0.0
H1226 H 0.73483 0.09811 0.96706 0.0
H1227 H 0.77064 0.06181 0.98434 0.0
H1228 H 0.77866 0.15775 0.96341 0.0
H1229 H 0.76985 0.20228 0.00584 0.0
H1230 H 0.69213 0.09842 0.05908 0.0
H1231 H 0.70735 0.06108 0.01322 0.0
Li1232 Li 0.19438 0.55341 0.25372 0.0
Li1233 Li 0.16961 0.53561 0.26909 0.0
Li1234 Li 0.18842 0.51974 0.24814 0.0
Li1235 Li 0.16535 0.53746 0.23504 0.0
C1236 C 0.20738 0.54212 0.29078 0.0
N1237 N 0.22912 0.5555 0.32643 0.0
C1238 C 0.20339 0.55717 0.30271 0.0
C1239 C 0.22252 0.53399 0.29689 0.0
C1240 C 0.21449 0.56366 0.32075 0.0
C1241 C 0.23336 0.54097 0.31495 0.0
C1242 C 0.15656 0.56972 0.25255 0.0
C1243 C 0.12496 0.57372 0.24295 0.0
N1244 N 0.13117 0.59262 0.24507 0.0
C1245 C 0.16255 0.5892 0.25495 0.0
C1246 C 0.13754 0.56194 0.24686 0.0
C1247 C 0.14954 0.60053 0.25099 0.0
C1248 C 0.208 0.58757 0.24444 0.0
N1249 N 0.21275 0.57468 0.25576 0.0
C1250 C 0.23987 0.59608 0.27186 0.0
C1251 C 0.22873 0.57819 0.26862 0.0
C1252 C 0.23433 0.61019 0.26166 0.0
C1253 C 0.21852 0.60565 0.24733 0.0
H1254 H 0.19534 0.58402 0.23405 0.0
H1255 H 0.23254 0.56739 0.27684 0.0
C1256 C 0.15719 0.5198 0.30225 0.0
N1257 N 0.15852 0.53502 0.29229 0.0
C1258 C 0.15056 0.52046 0.32058 0.0
C1259 C 0.14721 0.55249 0.31793 0.0
C1260 C 0.1535 0.55108 0.29956 0.0
C1261 C 0.14593 0.53712 0.32865 0.0
H1262 H 0.16162 0.50735 0.29613 0.0
H1263 H 0.15501 0.56303 0.29143 0.0
C1264 C 0.20532 0.54076 0.21737 0.0
N1265 N 0.23449 0.54731 0.19473 0.0
C1266 C 0.20162 0.54269 0.19742 0.0
C1267 C 0.22382 0.54209 0.22583 0.0
C1268 C 0.21656 0.54595 0.1862 0.0
C1269 C 0.23839 0.54549 0.21413 0.0
C1270 C 0.14733 0.50115 0.25361 0.0
C1271 C 0.1498 0.48265 0.25341 0.0
C1272 C 0.13049 0.50575 0.25859 0.0
C1273 C 0.13543 0.46906 0.25832 0.0
C1274 C 0.11646 0.49177 0.26342 0.0
N1275 N 0.11919 0.47387 0.26317 0.0
C1276 C 0.20126 0.49135 0.2618 0.0
C1277 C 0.2073 0.49407 0.22875 0.0
C1278 C 0.21082 0.47678 0.26261 0.0
N1279 N 0.19986 0.49966 0.24515 0.0
C1280 C 0.21713 0.47948 0.22892 0.0
C1281 C 0.21915 0.47092 0.24615 0.0
H1282 H 0.19501 0.49622 0.27447 0.0
H1283 H 0.20583 0.50109 0.21575 0.0
C1284 C 0.15188 0.55082 0.20092 0.0
N1285 N 0.14898 0.53723 0.21298 0.0
C1286 C 0.14104 0.54849 0.18265 0.0
C1287 C 0.12429 0.51871 0.19032 0.0
C1288 C 0.13539 0.52158 0.20826 0.0
C1289 C 0.12747 0.53198 0.17713 0.0
H1290 H 0.16309 0.56296 0.20517 0.0
H1291 H 0.13366 0.51098 0.21809 0.0
O1292 O 0.19687 0.53553 0.273 0.0
O1293 O 0.16917 0.55847 0.25656 0.0
O1294 O 0.1908 0.53745 0.22844 0.0
O1295 O 0.16086 0.51435 0.24775 0.0
H1296 H 0.19205 0.56395 0.29796 0.0
H1297 H 0.22598 0.52253 0.28767 0.0
H1298 H 0.21154 0.57526 0.33017 0.0
H1299 H 0.24515 0.53484 0.31982 0.0
H1300 H 0.11025 0.56783 0.23828 0.0
H1301 H 0.17703 0.59558 0.26017 0.0
H1302 H 0.13255 0.54697 0.24522 0.0
H1303 H 0.15403 0.61563 0.25274 0.0
H1304 H 0.25226 0.59898 0.28263 0.0
H1305 H 0.21363 0.61613 0.23923 0.0
H1306 H 0.14958 0.50838 0.3286 0.0
H1307 H 0.14348 0.56545 0.32376 0.0
H1308 H 0.18734 0.54152 0.19064 0.0
H1309 H 0.22687 0.54053 0.24125 0.0
H1310 H 0.2139 0.5474 0.17072 0.0
H1311 H 0.25281 0.54664 0.22047 0.0
H1312 H 0.16252 0.47872 0.24912 0.0
H1313 H 0.12826 0.51993 0.25877 0.0
H1314 H 0.13713 0.45467 0.25813 0.0
H1315 H 0.10338 0.49515 0.26731 0.0
H1316 H 0.21161 0.47012 0.27596 0.0
H1317 H 0.22331 0.47514 0.21597 0.0
H1318 H 0.14375 0.55896 0.17267 0.0
H1319 H 0.11365 0.50599 0.18657 0.0
Li1320 Li 0.7801 0.89418 0.53538 0.0
Li1321 Li 0.79417 0.87087 0.55361 0.0
Li1322 Li 0.8149 0.89709 0.53766 0.0
Li1323 Li 0.79393 0.86933 0.51588 0.0
C1324 C 0.79911 0.91254 0.57442 0.0
N1325 N 0.79913 0.94038 0.60474 0.0
C1326 C 0.79284 0.90787 0.59217 0.0
C1327 C 0.80547 0.93134 0.5721 0.0
C1328 C 0.79293 0.92216 0.60732 0.0
C1329 C 0.80535 0.94521 0.58761 0.0
C1330 C 0.75678 0.85272 0.53038 0.0
C1331 C 0.74124 0.82034 0.52236 0.0
N1332 N 0.72503 0.82489 0.52765 0.0
C1333 C 0.73998 0.85712 0.53568 0.0
C1334 C 0.75746 0.83422 0.52363 0.0
C1335 C 0.72408 0.84284 0.53422 0.0
C1336 C 0.74985 0.90851 0.51734 0.0
N1337 N 0.75992 0.90764 0.53486 0.0
C1338 C 0.74063 0.92513 0.55207 0.0
C1339 C 0.75547 0.91559 0.55204 0.0
C1340 C 0.72973 0.92609 0.53428 0.0
C1341 C 0.73459 0.91762 0.5167 0.0
H1342 H 0.7535 0.90185 0.50388 0.0
H1343 H 0.76324 0.91438 0.56586 0.0
C1344 C 0.80619 0.85912 0.59156 0.0
N1345 N 0.79158 0.85741 0.57701 0.0
C1346 C 0.8037 0.85056 0.60885 0.0
C1347 C 0.77124 0.83866 0.59599 0.0
C1348 C 0.7743 0.8475 0.57914 0.0
C1349 C 0.78601 0.83999 0.61122 0.0
H1350 H 0.81978 0.86733 0.58988 0.0
H1351 H 0.76266 0.84663 0.56791 0.0
C1352 C 0.79788 0.91049 0.50229 0.0
N1353 N 0.79994 0.93855 0.47816 0.0
C1354 C 0.79987 0.90654 0.48239 0.0
C1355 C 0.79688 0.92866 0.50994 0.0
C1356 C 0.80092 0.92094 0.47042 0.0
C1357 C 0.79796 0.94267 0.49749 0.0
C1358 C 0.82577 0.8562 0.53538 0.0
C1359 C 0.84458 0.86093 0.53218 0.0
C1360 C 0.81774 0.83764 0.53704 0.0
C1361 C 0.8551 0.84687 0.53057 0.0
C1362 C 0.82874 0.82397 0.53536 0.0
N1363 N 0.84703 0.82883 0.53218 0.0
C1364 C 0.84821 0.92156 0.55735 0.0
C1365 C 0.8463 0.91823 0.52255 0.0
C1366 C 0.86591 0.93334 0.55896 0.0
N1367 N 0.83883 0.91415 0.53935 0.0
C1368 C 0.86403 0.92993 0.52348 0.0
C1369 C 0.87427 0.93745 0.54189 0.0
H1370 H 0.84205 0.9181 0.57051 0.0
H1371 H 0.83867 0.91206 0.50838 0.0
C1372 C 0.77598 0.84848 0.47814 0.0
N1373 N 0.79249 0.85428 0.49026 0.0
C1374 C 0.77562 0.83906 0.45913 0.0
C1375 C 0.80918 0.8418 0.46535 0.0
C1376 C 0.80892 0.85122 0.48409 0.0
C1377 C 0.7924 0.8355 0.45246 0.0
H1378 H 0.76309 0.85137 0.4831 0.0
H1379 H 0.82198 0.85645 0.49357 0.0
O1380 O 0.79903 0.89872 0.55943 0.0
O1381 O 0.77252 0.86646 0.53193 0.0
O1382 O 0.79658 0.89649 0.51409 0.0
O1383 O 0.81538 0.86981 0.53717 0.0
H1384 H 0.7878 0.89339 0.59417 0.0
H1385 H 0.81049 0.93516 0.5585 0.0
H1386 H 0.78806 0.91877 0.62112 0.0
H1387 H 0.81022 0.95983 0.58603 0.0
H1388 H 0.74153 0.80594 0.51718 0.0
H1389 H 0.73928 0.87139 0.54099 0.0
H1390 H 0.77039 0.83063 0.51946 0.0
H1391 H 0.71099 0.84601 0.53834 0.0
H1392 H 0.73778 0.93165 0.566 0.0
H1393 H 0.72648 0.91761 0.50262 0.0
H1394 H 0.81555 0.85199 0.62011 0.0
H1395 H 0.75724 0.83106 0.59717 0.0
H1396 H 0.80059 0.89249 0.47626 0.0
H1397 H 0.79513 0.93186 0.52527 0.0
H1398 H 0.80247 0.9181 0.45498 0.0
H1399 H 0.79717 0.95681 0.50318 0.0
H1400 H 0.85095 0.87531 0.53093 0.0
H1401 H 0.8032 0.83386 0.53965 0.0
H1402 H 0.86968 0.85029 0.52807 0.0
H1403 H 0.82274 0.80952 0.5366 0.0
H1404 H 0.87306 0.939 0.5735 0.0
H1405 H 0.86992 0.93248 0.50993 0.0
H1406 H 0.76232 0.83448 0.44984 0.0
H1407 H 0.82256 0.83984 0.46085 0.0
Li1408 Li 0.94178 0.0152 0.28174 0.0
Li1409 Li 0.91338 0.9931 0.25999 0.0
Li1410 Li 0.93955 0.01432 0.24375 0.0
Li1411 Li 0.91672 0.02817 0.2623 0.0
C1412 C 0.95404 0.98229 0.26138 0.0
N1413 N 0.98021 0.95957 0.26296 0.0
C1414 C 0.94894 0.96396 0.26585 0.0
C1415 C 0.97238 0.98911 0.25769 0.0
C1416 C 0.9624 0.95269 0.2666 0.0
C1417 C 0.98543 0.97738 0.25855 0.0
C1418 C 0.90149 0.01478 0.296 0.0
C1419 C 0.87014 0.01861 0.3011 0.0
N1420 N 0.8751 0.02041 0.32092 0.0
C1421 C 0.90626 0.0166 0.3164 0.0
C1422 C 0.88325 0.01568 0.28825 0.0
C1423 C 0.89273 0.01945 0.32876 0.0
C1424 C 0.95788 0.03263 0.32104 0.0
N1425 N 0.95704 0.01752 0.30734 0.0
C1426 C 0.97273 1.00235 0.33143 0.0
C1427 C 0.96468 1.00275 0.31215 0.0
C1428 C 0.97277 0.01716 0.34623 0.0
C1429 C 0.96574 0.03276 0.34065 0.0
H1430 H 0.95149 0.04415 0.31704 0.0
H1431 H 0.96379 0.99079 0.30129 0.0
C1432 C 0.89559 0.95349 0.24637 0.0
N1433 N 0.8965 0.96883 0.25977 0.0
C1434 C 0.88427 0.93611 0.24857 0.0
C1435 C 0.87449 0.95091 0.27762 0.0
C1436 C 0.88609 0.96767 0.27507 0.0
C1437 C 0.87379 0.93457 0.26469 0.0
H1438 H 0.90406 0.95455 0.23433 0.0
H1439 H 0.88704 0.97962 0.2858 0.0
C1440 C 0.95658 0.05272 0.26637 0.0
N1441 N 0.98153 0.08645 0.2685 0.0
C1442 C 0.95106 0.0676 0.25767 0.0
C1443 C 0.97473 0.05495 0.27616 0.0
C1444 C 0.9639 0.08456 0.25891 0.0
C1445 C 0.98715 0.07213 0.27707 0.0
C1446 C 0.89771 0.0107 0.22387 0.0
C1447 C 0.90251 0.01916 0.20726 0.0
C1448 C 0.87886 1.0037 0.22562 0.0
C1449 C 0.88827 0.02067 0.19269 0.0
C1450 C 0.86502 0.0055 0.21073 0.0
N1451 N 0.86998 0.01388 0.19472 0.0
C1452 C 0.94873 1.00306 0.2046 0.0
C1453 C 0.96545 0.0329 0.21936 0.0
C1454 C 0.95653 0.00572 0.18691 0.0
N1455 N 0.95306 0.0167 0.22036 0.0
C1456 C 0.97339 0.03619 0.20199 0.0
C1457 C 0.96873 0.02269 0.18526 0.0
H1458 H 0.93871 0.99035 0.20551 0.0
H1459 H 0.96888 0.04362 0.23185 0.0
C1460 C 0.90296 0.05732 0.28249 0.0
N1461 N 0.90306 0.04841 0.26414 0.0
C1462 C 0.89221 0.07106 0.28538 0.0
C1463 C 0.88306 0.0675 0.25024 0.0
C1464 C 0.89371 0.05354 0.24807 0.0
C1465 C 0.88192 0.07615 0.26914 0.0
H1466 H 0.91099 0.05351 0.295 0.0
H1467 H 0.89439 0.04684 0.23354 0.0
O1468 O 0.94105 0.99346 0.26056 0.0
O1469 O 0.91446 0.01153 0.28368 0.0
O1470 O 0.94432 0.03599 0.26529 0.0
O1471 O 0.91146 0.00893 0.23816 0.0
H1472 H 0.93477 0.95855 0.26879 0.0
H1473 H 0.97646 1.0033 0.25421 0.0
H1474 H 0.95869 0.93847 0.27008 0.0
H1475 H 0.9997 0.98243 0.25573 0.0
H1476 H 0.856 0.01941 0.29532 0.0
H1477 H 0.92018 0.01555 0.32264 0.0
H1478 H 0.8793 0.01412 0.27248 0.0
H1479 H 0.89621 0.02082 0.34458 0.0
H1480 H 0.97825 0.99015 0.33487 0.0
H1481 H 0.96531 0.04443 0.35151 0.0
H1482 H 0.88427 0.92394 0.23819 0.0
H1483 H 0.86636 0.95077 0.28996 0.0
H1484 H 0.93707 0.06603 0.24996 0.0
H1485 H 0.97918 0.04351 0.28291 0.0
H1486 H 0.95987 0.09621 0.25223 0.0
H1487 H 1.00127 0.07407 0.28457 0.0
H1488 H 0.91706 0.02463 0.20571 0.0
H1489 H 0.87497 0.99693 0.23831 0.0
H1490 H 0.89175 0.02725 0.17978 0.0
H1491 H 0.85036 1.00021 0.21189 0.0
H1492 H 0.95239 0.99495 0.1744 0.0
H1493 H 0.9829 0.04939 0.20157 0.0
H1494 H 0.89204 0.07772 0.30015 0.0
H1495 H 0.87547 0.0712 0.23732 0.0
Li1496 Li 0.27061 0.64584 0.56658 0.0
Li1497 Li 0.28624 0.62235 0.55 0.0
Li1498 Li 0.27198 0.64449 0.53167 0.0
Li1499 Li 0.25257 0.61838 0.54447 0.0
C1500 C 0.30731 0.66447 0.55068 0.0
N1501 N 0.33583 0.69402 0.54686 0.0
C1502 C 0.32507 0.6612 0.54742 0.0
C1503 C 0.30404 0.68273 0.55209 0.0
C1504 C 0.33933 0.67634 0.54557 0.0
C1505 C 0.31862 0.69749 0.55001 0.0
C1506 C 0.2679 0.60523 0.58115 0.0
C1507 C 0.26315 0.57242 0.58525 0.0
N1508 N 0.26685 0.57707 0.60512 0.0
C1509 C 0.27159 0.60971 0.6016 0.0
C1510 C 0.26362 0.58646 0.57286 0.0
C1511 C 0.27103 0.59527 0.61347 0.0
C1512 C 0.25597 0.66342 0.59834 0.0
N1513 N 0.2717 0.66048 0.59051 0.0
C1514 C 0.29134 0.67618 0.61938 0.0
C1515 C 0.28914 0.66655 0.60053 0.0
C1516 C 0.2754 0.67958 0.62779 0.0
C1517 C 0.25754 0.67328 0.61707 0.0
H1518 H 0.24225 0.65781 0.59026 0.0
H1519 H 0.30129 0.66356 0.59399 0.0
C1520 C 0.31044 0.60435 0.53327 0.0
N1521 N 0.30488 0.60864 0.55111 0.0
C1522 C 0.32179 0.5913 0.53099 0.0
C1523 C 0.32266 0.58843 0.56591 0.0
C1524 C 0.31095 0.60139 0.56745 0.0
C1525 C 0.32763 0.58298 0.54736 0.0
H1526 H 0.30547 0.61061 0.52069 0.0
H1527 H 0.30634 0.60528 0.58147 0.0
C1528 C 0.23731 0.65609 0.5489 0.0
N1529 N 0.21224 0.67935 0.55554 0.0
C1530 C 0.2182 0.64851 0.5485 0.0
C1531 C 0.24365 0.6755 0.55244 0.0
C1532 C 0.20575 0.6605 0.55191 0.0
C1533 C 0.23077 0.68702 0.55588 0.0
C1534 C 0.2646 0.60353 0.50923 0.0
C1535 C 0.25675 0.60765 0.49119 0.0
C1536 C 0.26673 0.58519 0.51129 0.0
C1537 C 0.25107 0.59332 0.4755 0.0
C1538 C 0.26086 0.57124 0.49524 0.0
N1539 N 0.25322 0.57556 0.47784 0.0
C1540 C 0.28835 0.66029 0.50012 0.0
C1541 C 0.25613 0.66083 0.50216 0.0
C1542 C 0.28715 0.66667 0.48165 0.0
N1543 N 0.27287 0.65738 0.50974 0.0
C1544 C 0.25426 0.66697 0.48377 0.0
C1545 C 0.26977 0.66952 0.47318 0.0
H1546 H 0.30131 0.65687 0.50635 0.0
H1547 H 0.24396 0.65782 0.50989 0.0
C1548 C 0.22276 0.60121 0.55921 0.0
N1549 N 0.23063 0.60068 0.54219 0.0
C1550 C 0.20629 0.58883 0.56066 0.0
C1551 C 0.20659 0.57516 0.52709 0.0
C1552 C 0.22293 0.58814 0.52618 0.0
C1553 C 0.19801 0.57556 0.54446 0.0
H1554 H 0.22918 0.61159 0.57153 0.0
H1555 H 0.22919 0.58825 0.51266 0.0
O1556 O 0.29347 0.64989 0.55329 0.0
O1557 O 0.26827 0.61925 0.56941 0.0
O1558 O 0.24962 0.64452 0.54534 0.0
O1559 O 0.27037 0.61743 0.52469 0.0
H1560 H 0.32786 0.64713 0.54655 0.0
H1561 H 0.29046 0.68549 0.55488 0.0
H1562 H 0.3532 0.67405 0.54316 0.0
H1563 H 0.31628 0.71171 0.55102 0.0
H1564 H 0.25984 0.55782 0.57906 0.0
H1565 H 0.27487 0.6242 0.60821 0.0
H1566 H 0.26064 0.58279 0.55707 0.0
H1567 H 0.27389 0.59852 0.62932 0.0
H1568 H 0.30532 0.68097 0.62727 0.0
H1569 H 0.24497 0.67557 0.6233 0.0
H1570 H 0.32595 0.58773 0.51662 0.0
H1571 H 0.32742 0.58244 0.57881 0.0
H1572 H 0.21299 0.63354 0.54539 0.0
H1573 H 0.25834 0.68159 0.5526 0.0
H1574 H 0.19091 0.65482 0.55162 0.0
H1575 H 0.23549 0.70207 0.55878 0.0
H1576 H 0.25501 0.62175 0.48932 0.0
H1577 H 0.27275 0.58172 0.52514 0.0
H1578 H 0.24495 0.5963 0.46147 0.0
H1579 H 0.26237 0.55699 0.49663 0.0
H1580 H 0.29934 0.66854 0.47373 0.0
H1581 H 0.24072 0.66927 0.47766 0.0
H1582 H 0.19982 0.59018 0.57409 0.0
H1583 H 0.20058 0.5652 0.51426 0.0
Li1584 Li 0.41353 0.4943 0.76266 0.0
Li1585 Li 0.44182 0.51542 0.78412 0.0
Li1586 Li 0.41695 0.52911 0.76489 0.0
Li1587 Li 0.43952 0.51481 0.74661 0.0
C1588 C 0.40056 0.51344 0.79783 0.0
N1589 N 0.37212 0.51439 0.82128 0.0
C1590 C 0.40425 0.5135 0.81818 0.0
C1591 C 0.38245 0.5139 0.78938 0.0
C1592 C 0.38967 0.51397 0.82979 0.0
C1593 C 0.36825 0.51439 0.8015 0.0
C1594 C 0.45436 0.48327 0.76517 0.0
C1595 C 0.48639 0.4796 0.76433 0.0
N1596 N 0.48148 0.46174 0.76867 0.0
C1597 C 0.44958 0.4649 0.76961 0.0
C1598 C 0.47286 0.49074 0.76249 0.0
C1599 C 0.46352 0.45423 0.77134 0.0
C1600 C 0.3938 0.4585 0.74378 0.0
N1601 N 0.39644 0.47042 0.76079 0.0
C1602 C 0.37499 0.44835 0.77532 0.0
C1603 C 0.38746 0.46558 0.77648 0.0
C1604 C 0.37186 0.43567 0.75792 0.0
C1605 C 0.38164 0.441 0.74206 0.0
H1606 H 0.40124 0.46256 0.73156 0.0
H1607 H 0.38993 0.47508 0.78999 0.0
C1608 C 0.45719 0.53447 0.8216 0.0
N1609 N 0.45688 0.51831 0.80977 0.0
C1610 C 0.46603 0.53737 0.84104 0.0
C1611 C 0.47437 0.50701 0.83598 0.0
C1612 C 0.4652 0.50462 0.81661 0.0
C1613 C 0.4749 0.52359 0.84861 0.0
H1614 H 0.45012 0.54498 0.81606 0.0
H1615 H 0.46453 0.4917 0.80718 0.0
C1616 C 0.39796 0.51104 0.72628 0.0
N1617 N 0.37031 0.51262 0.69634 0.0
C1618 C 0.40268 0.51975 0.70979 0.0
C1619 C 0.37924 0.50301 0.72751 0.0
C1620 C 0.38848 0.52043 0.69481 0.0
C1621 C 0.36545 0.50401 0.71223 0.0
C1622 C 0.45792 0.55192 0.76608 0.0
C1623 C 0.45253 0.56736 0.7584 0.0
C1624 C 0.47684 0.55241 0.77226 0.0
C1625 C 0.46629 0.58305 0.75689 0.0
C1626 C 0.49017 0.56837 0.77052 0.0
N1627 N 0.48467 0.58323 0.76293 0.0
C1628 C 0.40818 0.56119 0.78416 0.0
C1629 C 0.39294 0.5538 0.75144 0.0
C1630 C 0.40067 0.57737 0.7867 0.0
N1631 N 0.4043 0.54983 0.76673 0.0
C1632 C 0.38505 0.5698 0.75337 0.0
C1633 C 0.38902 0.58192 0.77113 0.0
H1634 H 0.41734 0.55777 0.79604 0.0
H1635 H 0.39018 0.54483 0.73762 0.0
C1636 C 0.45326 0.49941 0.71254 0.0
N1637 N 0.45249 0.51599 0.72302 0.0
C1638 C 0.46126 0.49905 0.69484 0.0
C1639 C 0.46745 0.53284 0.69864 0.0
C1640 C 0.45925 0.53255 0.7163 0.0
C1641 C 0.46869 0.51591 0.68763 0.0
H1642 H 0.44742 0.48639 0.71783 0.0
H1643 H 0.45812 0.54561 0.72446 0.0
O1644 O 0.41461 0.51265 0.78626 0.0
O1645 O 0.44086 0.49375 0.76311 0.0
O1646 O 0.41168 0.51008 0.74098 0.0
O1647 O 0.44465 0.53658 0.76798 0.0
H1648 H 0.4182 0.51305 0.8249 0.0
H1649 H 0.37942 0.51388 0.77364 0.0
H1650 H 0.39229 0.51395 0.84556 0.0
H1651 H 0.35415 0.51474 0.79518 0.0
H1652 H 0.50078 0.48515 0.76226 0.0
H1653 H 0.43526 0.45897 0.77165 0.0
H1654 H 0.47668 0.50494 0.75896 0.0
H1655 H 0.46006 0.43997 0.77476 0.0
H1656 H 0.36772 0.44517 0.78791 0.0
H1657 H 0.38015 0.43168 0.72846 0.0
H1658 H 0.4655 0.55019 0.85013 0.0
H1659 H 0.48104 0.496 0.84093 0.0
H1660 H 0.41713 0.52597 0.70861 0.0
H1661 H 0.37541 0.49607 0.74011 0.0
H1662 H 0.3919 0.52716 0.68197 0.0
H1663 H 0.35088 0.49791 0.71299 0.0
H1664 H 0.43792 0.56718 0.75356 0.0
H1665 H 0.48116 0.54059 0.77838 0.0
H1666 H 0.46236 0.59509 0.75092 0.0
H1667 H 0.50489 0.56897 0.77523 0.0
H1668 H 0.40388 0.58617 0.80075 0.0
H1669 H 0.37628 0.57287 0.74093 0.0
H1670 H 0.46142 0.48558 0.68677 0.0
H1671 H 0.473 0.5462 0.69385 0.0
Li1672 Li 0.66543 0.03511 0.76742 0.0
Li1673 Li 0.6923 0.0554 0.75662 0.0
Li1674 Li 0.66471 0.03891 0.73337 0.0
Li1675 Li 0.68741 0.02169 0.74829 0.0
C1676 C 0.65429 0.07076 0.75205 0.0
N1677 N 0.6306 0.09543 0.74534 0.0
C1678 C 0.66094 0.09007 0.75668 0.0
C1679 C 0.63551 0.06399 0.74434 0.0
C1680 C 0.64877 0.10232 0.7531 0.0
C1681 C 0.62378 0.07668 0.74094 0.0
C1682 C 0.70504 0.03989 0.79107 0.0
C1683 C 0.73582 0.04016 0.8077 0.0
N1684 N 0.73086 0.04835 0.82453 0.0
C1685 C 0.70022 0.04826 0.80852 0.0
C1686 C 0.72296 0.03577 0.79062 0.0
C1687 C 0.71349 0.05244 0.82528 0.0
C1688 C 0.64974 0.01719 0.79815 0.0
N1689 N 0.65135 0.03263 0.78851 0.0
C1690 C 0.63428 0.04745 0.81089 0.0
C1691 C 0.64392 0.0476 0.79452 0.0
C1692 C 0.63246 0.03182 0.8213 0.0
C1693 C 0.64013 0.01642 0.81469 0.0
H1694 H 0.65618 0.00567 0.79317 0.0
H1695 H 0.64576 0.05982 0.78686 0.0
C1696 C 0.70726 0.08971 0.74833 0.0
N1697 N 0.70978 0.07784 0.7618 0.0
C1698 C 0.71692 0.10817 0.75168 0.0
C1699 C 0.73299 0.1013 0.78182 0.0
C1700 C 0.72264 0.08306 0.77809 0.0
C1701 C 0.72974 0.11426 0.76884 0.0
H1702 H 0.69685 0.08505 0.73556 0.0
H1703 H 0.72455 0.07344 0.78856 0.0
C1704 C 0.64559 1.00146 0.74883 0.0
N1705 N 0.61682 0.97374 0.75638 0.0
C1706 C 0.649 0.98371 0.75175 0.0
C1707 C 0.62752 0.00507 0.7496 0.0
C1708 C 0.63427 0.96988 0.75557 0.0
C1709 C 0.61318 0.9909 0.75352 0.0
C1710 C 0.70518 0.04201 0.71855 0.0
C1711 C 0.70019 0.03869 0.69815 0.0
C1712 C 0.72412 0.04615 0.72635 0.0
C1713 C 0.71433 0.03955 0.68581 0.0
C1714 C 0.73784 0.04691 0.71351 0.0
N1715 N 0.73271 0.04362 0.69368 0.0
C1716 C 0.65053 0.05476 0.70063 0.0
C1717 C 0.64034 0.02205 0.70133 0.0
C1718 C 0.64074 0.05349 0.68189 0.0
N1719 N 0.65013 0.0391 0.70977 0.0
C1720 C 0.6305 0.02012 0.68268 0.0
C1721 C 0.63092 0.0359 0.67266 0.0
H1722 H 0.65881 0.06805 0.7077 0.0
H1723 H 0.64061 0.00983 0.70886 0.0
C1724 C 0.70178 0.99367 0.7618 0.0
N1725 N 0.69975 1.00203 0.74524 0.0
C1726 C 0.71122 0.97896 0.76205 0.0
C1727 C 0.71602 0.98148 0.72795 0.0
C1728 C 0.70637 0.99624 0.72837 0.0
C1729 C 0.71868 0.9729 0.74506 0.0
H1730 H 0.69596 0.99847 0.7748 0.0
H1731 H 0.70421 1.00305 0.71534 0.0
O1732 O 0.66599 0.0586 0.75582 0.0
O1733 O 0.69229 0.03571 0.77451 0.0
O1734 O 0.65969 0.01496 0.74442 0.0
O1735 O 0.6915 0.04148 0.73074 0.0
H1736 H 0.67523 0.09557 0.76331 0.0
H1737 H 0.63006 0.04912 0.74087 0.0
H1738 H 0.65375 0.1173 0.75661 0.0
H1739 H 0.60924 0.07163 0.73483 0.0
H1740 H 0.74976 0.03713 0.80757 0.0
H1741 H 0.68644 0.05162 0.80908 0.0
H1742 H 0.72695 0.02945 0.77716 0.0
H1743 H 0.70999 0.05898 0.83889 0.0
H1744 H 0.62832 0.05949 0.81535 0.0
H1745 H 0.63908 1.00419 0.82247 0.0
H1746 H 0.71362 0.11769 0.7414 0.0
H1747 H 0.74303 0.1053 0.79497 0.0
H1748 H 0.66281 0.98055 0.75085 0.0
H1749 H 0.62459 0.01864 0.74721 0.0
H1750 H 0.6367 0.95606 0.75779 0.0
H1751 H 0.59914 0.99353 0.75421 0.0
H1752 H 0.68556 0.03549 0.69193 0.0
H1753 H 0.72815 0.04877 0.74213 0.0
H1754 H 0.71069 0.03701 0.66999 0.0
H1755 H 0.75258 0.05014 0.71929 0.0
H1756 H 0.64137 0.0659 0.67443 0.0
H1757 H 0.62287 0.00638 0.67603 0.0
H1758 H 0.71253 0.9723 0.77536 0.0
H1759 H 0.7215 0.97698 0.71458 0.0
Li1760 Li 0.76989 0.68569 0.03179 0.0
Li1761 Li 0.78305 0.66066 0.01272 0.0
Li1762 Li 0.7675 0.68353 0.99435 0.0
Li1763 Li 0.74786 0.65754 0.0103 0.0
C1764 C 0.80547 0.70293 0.01868 0.0
N1765 N 0.83641 0.73192 0.02636 0.0
C1766 C 0.82268 0.6997 0.02696 0.0
C1767 C 0.80394 0.72084 0.01428 0.0
C1768 C 0.83818 0.71455 0.03073 0.0
C1769 C 0.81976 0.73534 0.01831 0.0
C1770 C 0.76859 0.64584 0.04679 0.0
C1771 C 0.7652 0.61399 0.05423 0.0
N1772 N 0.77303 0.62042 0.07307 0.0
C1773 C 0.77653 0.65217 0.06623 0.0
C1774 C 0.76281 0.62663 0.04072 0.0
C1775 C 0.77869 0.63907 0.07929 0.0
C1776 C 0.75415 0.6986 0.06436 0.0
N1777 N 0.77102 0.70063 0.0572 0.0
C1778 C 0.78626 0.71829 0.08792 0.0
C1779 C 0.78695 0.71052 0.06842 0.0
C1780 C 0.76908 0.71558 0.09593 0.0
C1781 C 0.75285 0.70598 0.08363 0.0
H1782 H 0.74172 0.6905 0.05529 0.0
H1783 H 0.8003 0.71173 0.06261 0.0
C1784 C 0.80976 0.6423 0.99555 0.0
N1785 N 0.80341 0.64716 0.0129 0.0
C1786 C 0.82473 0.6328 0.99512 0.0
C1787 C 0.82644 0.63349 0.03045 0.0
C1788 C 0.81156 0.6431 0.0302 0.0
C1789 C 0.83332 0.6282 0.01274 0.0
H1790 H 0.8033 0.64595 0.982 0.0
H1791 H 0.80664 0.64743 0.04389 0.0
C1792 C 0.73682 0.69814 0.01068 0.0
N1793 N 0.71537 0.72519 0.00723 0.0
C1794 C 0.71779 0.69295 0.00336 0.0
C1795 C 0.74498 0.71702 0.01635 0.0
C1796 C 0.70717 0.70686 1.00169 0.0
C1797 C 0.73387 0.73051 0.01447 0.0
C1798 C 0.7606 0.64119 0.97388 0.0
C1799 C 0.75614 0.64446 0.95446 0.0
C1800 C 0.76202 0.62315 0.97795 0.0
C1801 C 0.75314 0.62955 0.93935 0.0
C1802 C 0.75891 0.6086 0.96243 0.0
N1803 N 0.75459 0.61208 0.94362 0.0
C1804 C 0.78387 0.69824 0.96133 0.0
C1805 C 0.75363 0.70454 0.96459 0.0
C1806 C 0.78488 0.70751 0.94439 0.0
N1807 N 0.76845 0.69702 0.97117 0.0
C1808 C 0.75413 0.71407 0.94791 0.0
C1809 C 0.76994 0.7158 0.93756 0.0
H1810 H 0.79545 0.692 0.96664 0.0
H1811 H 0.7413 0.70311 0.97218 0.0
C1812 C 0.71885 0.63815 0.02832 0.0
N1813 N 0.72388 0.64077 0.01013 0.0
C1814 C 0.7021 0.6261 0.03044 0.0
C1815 C 0.69529 0.6201 0.99501 0.0
C1816 C 0.71241 0.63219 0.99356 0.0
C1817 C 0.69011 0.61668 0.01369 0.0
H1818 H 0.72796 0.64538 0.04128 0.0
H1819 H 0.71658 0.63461 0.97922 0.0
O1820 O 0.79038 0.68842 0.01421 0.0
O1821 O 0.76627 0.65846 0.03387 0.0
O1822 O 0.74741 0.68474 0.01226 0.0
O1823 O 0.76411 0.65576 0.98872 0.0
H1824 H 0.82408 0.68584 0.03029 0.0
H1825 H 0.79073 0.72347 0.00767 0.0
H1826 H 0.85163 0.71227 0.03706 0.0
H1827 H 0.81883 0.74929 0.01496 0.0
H1828 H 0.7608 0.59906 0.04975 0.0
H1829 H 0.78102 0.66702 0.07115 0.0
H1830 H 0.75646 0.62155 0.02577 0.0
H1831 H 0.78485 0.64375 0.09437 0.0
H1832 H 0.79914 0.72542 0.09693 0.0
H1833 H 0.7393 0.70363 0.0891 0.0
H1834 H 0.82969 0.62939 0.98114 0.0
H1835 H 0.83234 0.63012 0.04441 0.0
H1836 H 0.71134 0.67834 0.99893 0.0
H1837 H 0.7597 0.72119 0.02213 0.0
H1838 H 0.69242 0.70308 0.99598 0.0
H1839 H 0.73997 0.7452 0.01877 0.0
H1840 H 0.75509 0.6584 0.95109 0.0
H1841 H 0.76568 0.62047 0.99289 0.0
H1842 H 0.74973 0.63187 0.92424 0.0
H1843 H 0.76002 0.59457 0.96533 0.0
H1844 H 0.79739 0.70853 0.937 0.0
H1845 H 0.74211 0.71991 0.94307 0.0
H1846 H 0.69857 0.62415 0.04512 0.0
H1847 H 0.68649 0.61311 0.98172 0.0
Li1848 Li 0.86774 0.49963 0.78808 0.0
Li1849 Li 0.89478 0.51648 0.81093 0.0
Li1850 Li 0.87039 0.53129 0.79717 0.0
Li1851 Li 0.89274 0.52057 0.77605 0.0
C1852 C 0.85813 0.51587 0.82986 0.0
N1853 N 0.83703 0.52239 0.86013 0.0
C1854 C 0.86559 0.51602 0.84944 0.0
C1855 C 0.8398 0.51875 0.82569 0.0
C1856 C 0.85472 0.51938 0.86453 0.0
C1857 C 0.82942 0.52218 0.84119 0.0
C1858 C 0.90508 0.48475 0.79052 0.0
C1859 C 0.93483 0.475 0.7901 0.0
N1860 N 0.92717 0.45852 0.79633 0.0
C1861 C 0.89748 0.46773 0.79694 0.0
C1862 C 0.92388 0.48842 0.78702 0.0
C1863 C 0.90889 0.45463 0.79976 0.0
C1864 C 0.85372 0.46387 0.76806 0.0
N1865 N 0.85123 0.47691 0.78255 0.0
C1866 C 0.8278 0.45523 0.79429 0.0
C1867 C 0.8381 0.47322 0.795 0.0
C1868 C 0.83128 0.44114 0.78068 0.0
C1869 C 0.84365 0.44558 0.76677 0.0
H1870 H 0.86442 0.4674 0.7585 0.0
H1871 H 0.83647 0.48392 0.80628 0.0
C1872 C 0.91369 0.53422 0.84565 0.0
N1873 N 0.91165 0.51794 0.83353 0.0
C1874 C 0.92669 0.53793 0.86245 0.0
C1875 C 0.93522 0.50795 0.85395 0.0
C1876 C 0.92175 0.50467 0.83755 0.0
C1877 C 0.93794 0.52486 0.86654 0.0
H1878 H 0.9052 0.54436 0.84214 0.0
H1879 H 0.91967 0.49168 0.82801 0.0
C1880 C 0.85202 0.50802 0.75541 0.0
N1881 N 0.82544 0.48649 0.72648 0.0
C1882 C 0.85712 0.50242 0.737 0.0
C1883 C 0.83335 0.5028 0.75903 0.0
C1884 C 0.84349 0.4915 0.72259 0.0
C1885 C 0.82014 0.49187 0.74424 0.0
C1886 C 0.91425 0.55266 0.8014 0.0
C1887 C 0.91421 0.57181 0.80216 0.0
C1888 C 0.9313 0.54654 0.80299 0.0
C1889 C 0.93131 0.58459 0.80446 0.0
C1890 C 0.94812 0.55977 0.80537 0.0
N1891 N 0.94777 0.57836 0.80603 0.0
C1892 C 0.86199 0.56289 0.81852 0.0
C1893 C 0.84272 0.55016 0.78845 0.0
C1894 C 0.85186 0.57714 0.82115 0.0
N1895 N 0.85728 0.54999 0.80225 0.0
C1896 C 0.83206 0.5638 0.79063 0.0
C1897 C 0.83677 0.57759 0.80698 0.0
H1898 H 0.87381 0.56229 0.82912 0.0
H1899 H 0.83968 0.54 0.77549 0.0
C1900 C 0.90954 0.50792 0.74514 0.0
N1901 N 0.90736 0.524 0.75552 0.0
C1902 C 0.92068 0.50863 0.72992 0.0
C1903 C 0.92703 0.54254 0.73622 0.0
C1904 C 0.91565 0.54115 0.75136 0.0
C1905 C 0.92971 0.52611 0.72541 0.0
H1906 H 0.90252 0.49451 0.74869 0.0
H1907 H 0.91351 0.55369 0.75983 0.0
O1908 O 0.86822 0.51142 0.81492 0.0
O1909 O 0.89417 0.49773 0.78761 0.0
O1910 O 0.86517 0.51882 0.76967 0.0
O1911 O 0.89759 0.54008 0.7993 0.0
H1912 H 0.87943 0.51308 0.85296 0.0
H1913 H 0.83356 0.51811 0.81061 0.0
H1914 H 0.8603 0.51941 0.87973 0.0
H1915 H 0.81525 0.52449 0.83816 0.0
H1916 H 0.94943 0.47769 0.78755 0.0
H1917 H 0.88302 0.46474 0.79993 0.0
H1918 H 0.92998 0.50155 0.78211 0.0
H1919 H 0.90322 0.44141 0.80474 0.0
H1920 H 0.81831 0.45203 0.80519 0.0
H1921 H 0.84668 0.43479 0.75627 0.0
H1922 H 0.92791 0.55089 0.87205 0.0
H1923 H 0.94366 0.49751 0.85646 0.0
H1924 H 0.8714 0.50653 0.73381 0.0
H1925 H 0.82914 0.50689 0.77323 0.0
H1926 H 0.84726 0.48705 0.70829 0.0
H1927 H 0.80569 0.48763 0.7469 0.0
H1928 H 0.90107 0.57672 0.80095 0.0
H1929 H 0.93154 0.53176 0.80248 0.0
H1930 H 0.9315 0.59946 0.80502 0.0
H1931 H 0.96144 0.55527 0.8067 0.0
H1932 H 0.85602 0.58793 0.83365 0.0
H1933 H 0.82096 0.5642 0.77905 0.0
H1934 H 0.92203 0.49564 0.72162 0.0
H1935 H 0.93381 0.55625 0.73317 0.0
Li1936 Li 0.79161 0.41691 0.51808 0.0
Li1937 Li 0.77825 0.43755 0.49729 0.0
Li1938 Li 0.79437 0.41439 0.48306 0.0
Li1939 Li 0.81029 0.44243 0.50499 0.0
C1940 C 0.75797 0.39535 0.49835 0.0
N1941 N 0.73014 0.36546 0.50301 0.0
C1942 C 0.74087 0.39849 0.50409 0.0
C1943 C 0.76092 0.37703 0.49493 0.0
C1944 C 0.72697 0.38319 0.50638 0.0
C1945 C 0.74667 0.3621 0.49738 0.0
C1946 C 0.8021 0.45725 0.53866 0.0
C1947 C 0.81776 0.48913 0.55027 0.0
N1948 N 0.8232 0.48374 0.56795 0.0
C1949 C 0.80766 0.45209 0.55704 0.0
C1950 C 0.80698 0.47598 0.53532 0.0
C1951 C 0.81838 0.46565 0.57162 0.0
C1952 C 0.80754 0.40176 0.54834 0.0
N1953 N 0.7905 0.40347 0.53964 0.0
C1954 C 0.77507 0.38952 0.565 0.0
C1955 C 0.77436 0.39751 0.54745 0.0
C1956 C 0.79259 0.3883 0.57458 0.0
C1957 C 0.80894 0.39422 0.56601 0.0
H1958 H 0.82015 0.40709 0.54203 0.0
H1959 H 0.76109 0.39958 0.54053 0.0
C1960 C 0.74371 0.43817 0.47801 0.0
N1961 N 0.7575 0.44782 0.49205 0.0
C1962 C 0.72605 0.44281 0.47663 0.0
C1963 C 0.73801 0.46837 0.50283 0.0
C1964 C 0.75531 0.46299 0.50397 0.0
C1965 C 0.72307 0.45769 0.48958 0.0
H1966 H 0.74607 0.42604 0.46895 0.0
H1967 H 0.76659 0.47011 0.51513 0.0
C1968 C 0.8258 0.40449 0.50098 0.0
N1969 N 0.8491 0.37998 0.4919 0.0
C1970 C 0.84359 0.41125 0.49569 0.0
C1971 C 0.81989 0.38531 0.50179 0.0
C1972 C 0.85517 0.39862 0.49115 0.0
C1973 C 0.83186 0.37313 0.49707 0.0
C1974 C 0.79114 0.45118 0.46481 0.0
C1975 C 0.78818 0.44392 0.4449 0.0
C1976 C 0.78916 0.46957 0.47035 0.0
C1977 C 0.7833 0.45521 0.43081 0.0
C1978 C 0.78419 0.48039 0.45583 0.0
N1979 N 0.78143 0.47306 0.43652 0.0
C1980 C 0.77553 0.39145 0.45132 0.0
C1981 C 0.80852 0.39389 0.45219 0.0
C1982 C 0.77237 0.37995 0.43353 0.0
N1983 N 0.79332 0.39802 0.46028 0.0
C1984 C 0.80601 0.38233 0.43433 0.0
C1985 C 0.78773 0.37544 0.42477 0.0
H1986 H 0.76378 0.39552 0.4578 0.0
H1987 H 0.82253 0.39991 0.45925 0.0
C1988 C 0.84578 0.45693 0.52381 0.0
N1989 N 0.83267 0.45929 0.50932 0.0
C1990 C 0.86445 0.46539 0.52374 0.0
C1991 C 0.85519 0.47956 0.49482 0.0
C1992 C 0.83676 0.47085 0.49545 0.0
C1993 C 0.86913 0.47608 0.50856 0.0
H1994 H 0.84196 0.44718 0.53425 0.0
H1995 H 0.82609 0.47201 0.4839 0.0
O1996 O 0.77152 0.41014 0.49553 0.0
O1997 O 0.7915 0.44416 0.52422 0.0
O1998 O 0.81432 0.41664 0.5056 0.0
O1999 O 0.79726 0.44078 0.47863 0.0
H2000 H 0.73839 0.4126 0.50687 0.0
H2001 H 0.774 0.37437 0.49027 0.0
H2002 H 0.71368 0.3854 0.51084 0.0
H2003 H 0.74874 0.34783 0.49475 0.0
H2004 H 0.82179 0.50363 0.54781 0.0
H2005 H 0.80362 0.43783 0.56014 0.0
H2006 H 0.80267 0.48028 0.52125 0.0
H2007 H 0.8228 0.46181 0.58589 0.0
H2008 H 0.76226 0.38507 0.57143 0.0
H2009 H 0.82264 0.39333 0.5731 0.0
H2010 H 0.71461 0.43425 0.46648 0.0
H2011 H 0.7359 0.47972 0.51325 0.0
H2012 H 0.84836 0.42605 0.49494 0.0
H2013 H 0.80623 0.37991 0.50603 0.0
H2014 H 0.86896 0.40363 0.48697 0.0
H2015 H 0.82746 0.35823 0.49756 0.0
H2016 H 0.79001 0.42984 0.44033 0.0
H2017 H 0.79167 0.47548 0.48568 0.0
H2018 H 0.78114 0.44983 0.41532 0.0
H2019 H 0.78268 0.49466 0.4599 0.0
H2020 H 0.75807 0.3748 0.4266 0.0
H2021 H 0.81818 0.37934 0.42776 0.0
H2022 H 0.87522 0.46233 0.53425 0.0
H2023 H 0.85873 0.48754 0.4828 0.0
Li2024 Li 0.62329 0.53963 0.3041 0.0
Li2025 Li 0.64892 0.56008 0.28907 0.0
Li2026 Li 0.62128 0.53819 0.26652 0.0
Li2027 Li 0.6467 0.52512 0.28534 0.0
C2028 C 0.60855 0.57076 0.29034 0.0
N2029 N 0.58248 0.59281 0.29702 0.0
C2030 C 0.61435 0.58885 0.30036 0.0
C2031 C 0.58956 0.56385 0.28367 0.0
C2032 C 0.60093 0.59979 0.3036 0.0
C2033 C 0.57657 0.57522 0.28722 0.0
C2034 C 0.66575 0.54694 0.32477 0.0
C2035 C 0.69835 0.54848 0.33639 0.0
N2036 N 0.69492 0.55348 0.35508 0.0
C2037 C 0.66252 0.55209 0.34407 0.0
C2038 C 0.68377 0.54505 0.32085 0.0
C2039 C 0.67746 0.55533 0.35921 0.0
C2040 C 0.61143 0.52123 0.33603 0.0
N2041 N 0.60985 0.53682 0.32729 0.0
C2042 C 0.59162 0.54652 0.35235 0.0
C2043 C 0.60025 0.54948 0.33519 0.0
C2044 C 0.59291 0.53042 0.36168 0.0
C2045 C 0.60318 0.51781 0.3532 0.0
H2046 H 0.61935 0.51149 0.32975 0.0
H2047 H 0.59929 0.56195 0.32829 0.0
C2048 C 0.66736 0.59021 0.27209 0.0
N2049 N 0.66543 0.5843 0.29003 0.0
C2050 C 0.67949 0.607 0.27037 0.0
C2051 C 0.6868 0.61216 0.30578 0.0
C2052 C 0.67467 0.59498 0.30681 0.0
C2053 C 0.68958 0.61814 0.2873 0.0
H2054 H 0.65962 0.5817 0.25898 0.0
H2055 H 0.67283 0.5901 0.32096 0.0
C2056 C 0.60468 0.50209 0.27944 0.0
N2057 N 0.57607 0.4708 0.27238 0.0
C2058 C 0.60831 0.48481 0.27196 0.0
C2059 C 0.58655 0.50351 0.28335 0.0
C2060 C 0.59364 0.46914 0.26848 0.0
C2061 C 0.57226 0.4875 0.27967 0.0
C2062 C 0.66201 0.54253 0.25238 0.0
C2063 C 0.65666 0.53666 0.23228 0.0
C2064 C 0.68103 0.54857 0.25953 0.0
C2065 C 0.67051 0.53681 0.21964 0.0
C2066 C 0.69445 0.54857 0.2464 0.0
N2067 N 0.68896 0.54272 0.2269 0.0
C2068 C 0.606 0.55297 0.23384 0.0
C2069 C 0.59837 0.51982 0.2296 0.0
C2070 C 0.59707 0.5535 0.21496 0.0
N2071 N 0.60643 0.53634 0.2409 0.0
C2072 C 0.58922 0.51971 0.21051 0.0
C2073 C 0.58835 0.53675 0.20293 0.0
H2074 H 0.6129 0.56591 0.24283 0.0
H2075 H 0.5992 0.5067 0.23528 0.0
C2076 C 0.66438 0.49602 0.29921 0.0
N2077 N 0.65973 0.50462 0.28329 0.0
C2078 C 0.67215 0.47989 0.29686 0.0
C2079 C 0.67051 0.48209 0.26194 0.0
C2080 C 0.66269 0.49798 0.26492 0.0
C2081 C 0.67503 0.47255 0.27793 0.0
H2082 H 0.66158 0.50138 0.31364 0.0
H2083 H 0.65845 0.50466 0.25241 0.0
O2084 O 0.62149 0.56003 0.2867 0.0
O2085 O 0.65115 0.5431 0.30993 0.0
O2086 O 0.61896 0.51742 0.28346 0.0
O2087 O 0.64862 0.54252 0.26491 0.0
H2088 H 0.62907 0.59436 0.3055 0.0
H2089 H 0.58494 0.54988 0.27579 0.0
H2090 H 0.60519 0.61384 0.31132 0.0
H2091 H 0.5618 0.57009 0.28215 0.0
H2092 H 0.71238 0.54705 0.3336 0.0
H2093 H 0.64859 0.55344 0.34733 0.0
H2094 H 0.68641 0.54078 0.30603 0.0
H2095 H 0.67516 0.55927 0.37423 0.0
H2096 H 0.58383 0.55667 0.35807 0.0
H2097 H 0.60517 0.50545 0.3599 0.0
H2098 H 0.6811 0.61117 0.25585 0.0
H2099 H 0.6944 0.62033 0.31917 0.0
H2100 H 0.62231 0.4835 0.26896 0.0
H2101 H 0.5836 0.51679 0.28929 0.0
H2102 H 0.59624 0.45566 0.26274 0.0
H2103 H 0.55815 0.48835 0.28266 0.0
H2104 H 0.64198 0.53196 0.22654 0.0
H2105 H 0.68535 0.55335 0.27501 0.0
H2106 H 0.66659 0.53224 0.20406 0.0
H2107 H 0.70922 0.55325 0.25171 0.0
H2108 H 0.59726 0.56701 0.20976 0.0
H2109 H 0.58272 0.50643 0.2019 0.0
H2110 H 0.67528 0.47292 0.3096 0.0
H2111 H 0.67278 0.4772 0.24713 0.0
C2112 C 0.99577 0.97351 0.98929 0.0
C2113 C 0.98253 0.95506 0.0139 0.0
C2114 C 0.99101 0.97241 0.00838 0.0
C2115 C 0.97903 0.93887 1.00015 0.0
C2116 C 0.99205 0.95728 0.97543 0.0
C2117 C 0.98375 0.93998 0.98099 0.0
N2118 N 1.00391 0.99042 0.98427 0.0
C2119 C 0.00782 0.99221 0.96547 0.0
C2120 C 0.99662 0.95893 0.95629 0.0
C2121 C 1.00443 0.97649 0.95128 0.0
Gd2122 Gd 0.05607 0.03578 0.03781 0.0
Gd2123 Gd 0.00731 0.01585 0.00884 0.0
N2124 N 0.99473 0.98829 0.02152 0.0
C2125 C 0.97753 0.95454 0.033 0.0
C2126 C 0.98884 0.98801 0.03972 0.0
C2127 C 0.9805 0.97113 0.04588 0.0
H2128 H 0.98999 1.00078 0.04933 0.0
H2129 H 0.97611 0.97098 0.06046 0.0
H2130 H 0.07694 0.05018 0.9991 0.0
H2131 H 0.01302 0.00583 0.96119 0.0
H2132 H 0.09261 0.07967 0.98861 0.0
H2133 H 0.97098 0.94148 0.0378 0.0
H2134 H 0.97252 0.92543 0.00414 0.0
H2135 H 0.04922 0.04601 0.08524 0.0
H2136 H 0.99391 0.94679 0.94521 0.0
H2137 H 0.00761 0.97797 0.9364 0.0
H2138 H 0.09545 0.12543 0.04457 0.0
H2139 H 0.98079 0.92737 0.97052 0.0
H2140 H 0.07028 0.10463 0.10207 0.0
H2141 H 0.05463 0.07377 0.11006 0.0
N2142 N 0.06047 0.06113 0.06281 0.0
C2143 C 0.06964 0.07785 0.0583 0.0
C2144 C 0.05538 0.05948 0.08124 0.0
C2145 C 0.06766 0.09252 0.09096 0.0
C2146 C 0.05874 0.07515 0.0955 0.0
C2147 C 0.07334 0.09403 0.07223 0.0
H2148 H 0.0855 0.12374 0.07759 0.0
N2149 N 0.07123 0.06304 0.02632 0.0
C2150 C 0.07521 0.07882 0.03957 0.0
C2151 C 0.09055 0.09631 0.01571 0.0
C2152 C 0.0847 0.09597 0.03447 0.0
C2153 C 0.07806 0.06304 0.00859 0.0
C2154 C 0.08745 0.07971 0.00283 0.0
O2155 O 0.02645 0.99432 0.01543 0.0
O2156 O 0.04264 0.00712 0.04521 0.0
O2157 O 0.08139 0.0256 0.03162 0.0
O2158 O 0.07826 0.03735 0.06157 0.0
O2159 O 0.00826 0.03176 0.03949 0.0
O2160 O 0.03389 0.02436 0.05637 0.0
O2161 O 0.03905 0.05832 0.03054 0.0
O2162 O 0.01709 0.04657 0.00352 0.0
O2163 O 0.97936 0.01823 0.01493 0.0
O2164 O 0.9855 0.01489 0.98469 0.0
O2165 O 0.05438 0.02186 0.00611 0.0
O2166 O 0.02816 0.02886 0.98983 0.0
C2167 C 0.03564 0.99224 0.03243 0.0
C2168 C 0.0176 0.0294 0.05613 0.0
C2169 C 0.10731 0.0272 0.05743 0.0
C2170 C 0.13299 0.01091 0.0542 0.0
C2171 C 0.13325 0.03215 0.0837 0.0
C2172 C 0.11608 0.03593 0.07608 0.0
C2173 C 0.14164 0.01952 0.07287 0.0
C2174 C 0.11599 0.01493 0.04638 0.0
C2175 C 0.08872 0.0301 0.05001 0.0
C2176 C 0.08823 0.11213 0.04827 0.0
C2177 C 0.08258 0.11116 0.06708 0.0
H2178 H 0.0979 0.1092 0.01124 0.0
C2179 C 0.02736 0.06094 0.01552 0.0
C2180 C 0.0452 0.02567 0.98999 0.0
C2181 C 0.96257 0.0325 0.99222 0.0
C2182 C 0.93689 0.04754 0.9998 0.0
C2183 C 0.95689 0.05906 0.97577 0.0
C2184 C 0.96747 0.0453 0.97878 0.0
C2185 C 0.94177 0.06037 0.98641 0.0
C2186 C 0.94721 0.03359 0.00247 0.0
C2187 C 0.97324 0.01805 0.99642 0.0
H2188 H 0.13995 0.03886 0.09808 0.0
H2189 H 0.10962 0.04555 0.08483 0.0
H2190 H 0.15488 0.01652 0.07898 0.0
H2191 H 0.10928 0.00801 0.03203 0.0
H2192 H 0.96035 0.06869 0.96517 0.0
H2193 H 0.97938 0.04472 0.97068 0.0
H2194 H 0.93379 0.07122 0.98409 0.0
H2195 H 0.94358 0.02383 0.01302 0.0
C2196 C 0.30825 0.73988 0.22502 0.0
C2197 C 0.28076 0.72276 0.20342 0.0
C2198 C 0.28949 0.73808 0.21758 0.0
C2199 C 0.29108 0.70942 0.19694 0.0
C2200 C 0.31859 0.72638 0.21872 0.0
C2201 C 0.30993 0.71121 0.20459 0.0
N2202 N 0.31623 0.7545 0.23893 0.0
C2203 C 0.3344 0.75648 0.2472 0.0
C2204 C 0.33731 0.72841 0.227 0.0
C2205 C 0.34522 0.74351 0.24133 0.0
Gd2206 Gd 0.26649 0.77553 0.29574 0.0
Gd2207 Gd 0.29734 0.77568 0.24802 0.0
N2208 N 0.27977 0.75114 0.22435 0.0
C2209 C 0.26188 0.72125 0.19614 0.0
C2210 C 0.26163 0.75016 0.21637 0.0
C2211 C 0.25234 0.73511 0.20253 0.0
H2212 H 0.25416 0.76101 0.21993 0.0
H2213 H 0.23788 0.73438 0.19656 0.0
H2214 H 0.30379 0.7852 0.33248 0.0
H2215 H 0.34064 0.76815 0.25827 0.0
H2216 H 0.31872 0.81104 0.35772 0.0
H2217 H 0.25465 0.70965 0.18536 0.0
H2218 H 0.28456 0.69759 0.18609 0.0
H2219 H 0.2247 0.78474 0.28035 0.0
H2220 H 0.34571 0.71834 0.22252 0.0
H2221 H 0.35965 0.74517 0.24787 0.0
H2222 H 0.2765 0.85384 0.35665 0.0
H2223 H 0.31765 0.70071 0.19956 0.0
H2224 H 0.21948 0.83655 0.31215 0.0
H2225 H 0.20651 0.80947 0.28678 0.0
N2226 N 0.2479 0.79788 0.30156 0.0
C2227 C 0.25514 0.81241 0.31584 0.0
C2228 C 0.23062 0.79661 0.29127 0.0
C2229 C 0.22757 0.82577 0.30933 0.0
C2230 C 0.22021 0.81053 0.29498 0.0
C2231 C 0.24521 0.82685 0.32 0.0
H2232 H 0.24574 0.8531 0.33799 0.0
N2233 N 0.2817 0.79855 0.32204 0.0
C2234 C 0.27258 0.81284 0.32627 0.0
C2235 C 0.29746 0.8273 0.35225 0.0
C2236 C 0.28036 0.82771 0.3413 0.0
C2237 C 0.29758 0.79739 0.33386 0.0
C2238 C 0.30592 0.8119 0.34874 0.0
O2239 O 0.29183 0.74805 0.25916 0.0
O2240 O 0.266 0.75531 0.26937 0.0
O2241 O 0.26609 0.75501 0.31615 0.0
O2242 O 0.24017 0.76304 0.30572 0.0
O2243 O 0.26934 0.78627 0.2451 0.0
O2244 O 0.24937 0.7709 0.26525 0.0
O2245 O 0.27515 0.80343 0.2853 0.0
O2246 O 0.3014 0.79662 0.27469 0.0
O2247 O 0.2963 0.79163 0.22315 0.0
O2248 O 0.32336 0.79116 0.23994 0.0
O2249 O 0.29607 0.76843 0.30159 0.0
O2250 O 0.31558 0.7779 0.27765 0.0
C2251 C 0.27781 0.7441 0.26908 0.0
C2252 C 0.2524 0.78141 0.25083 0.0
C2253 C 0.24416 0.75559 0.33831 0.0
C2254 C 0.24471 0.74286 0.36947 0.0
C2255 C 0.23804 0.77392 0.36753 0.0
C2256 C 0.23995 0.77213 0.34743 0.0
C2257 C 0.2406 0.75941 0.37861 0.0
C2258 C 0.2463 0.74095 0.34933 0.0
C2259 C 0.24838 0.75382 0.31797 0.0
C2260 C 0.27067 0.84229 0.34523 0.0
C2261 C 0.25313 0.84184 0.33464 0.0
H2262 H 0.30391 0.83846 0.36388 0.0
C2263 C 0.29052 0.80848 0.2775 0.0
C2264 C 0.31272 0.77159 0.29481 0.0
C2265 C 0.32418 0.80941 0.21244 0.0
C2266 C 0.32296 0.82576 0.18349 0.0
C2267 C 0.35237 0.82931 0.20478 0.0
C2268 C 0.34343 0.81723 0.21692 0.0
C2269 C 0.34221 0.83364 0.18816 0.0
C2270 C 0.31404 0.81365 0.19567 0.0
C2271 C 0.31449 0.79719 0.22537 0.0
H2272 H 0.23485 0.78668 0.37458 0.0
H2273 H 0.23846 0.7837 0.33917 0.0
H2274 H 0.23933 0.76103 0.39424 0.0
H2275 H 0.24992 0.72831 0.34239 0.0
H2276 H 0.3672 0.83537 0.2083 0.0
H2277 H 0.35151 0.81414 0.22984 0.0
H2278 H 0.34939 0.843 0.17887 0.0
H2279 H 0.29913 0.8078 0.19223 0.0
C2280 C 0.57807 0.07175 0.49481 0.0
C2281 C 0.59668 0.09209 0.52303 0.0
C2282 C 0.58522 0.07477 0.51479 0.0
C2283 C 0.60059 0.10651 0.51117 0.0
C2284 C 0.58269 0.08606 0.48277 0.0
C2285 C 0.59364 0.1035 0.49113 0.0
N2286 N 0.56748 0.05467 0.48695 0.0
C2287 C 0.56309 0.05049 0.46694 0.0
C2288 C 0.57669 0.08227 0.46253 0.0
C2289 C 0.56717 0.06432 0.45456 0.0
Gd2290 Gd 0.50643 0.02643 0.53267 0.0
Gd2291 Gd 0.56148 0.03328 0.51006 0.0
N2292 N 0.58091 0.06077 0.52622 0.0
C2293 C 0.60412 0.09433 0.54293 0.0
C2294 C 0.58919 0.06239 0.54518 0.0
C2295 C 0.6006 0.07931 0.55396 0.0
H2296 H 0.58703 0.05066 0.55345 0.0
H2297 H 0.60677 0.08071 0.56916 0.0
H2298 H 0.47423 1.00449 0.49566 0.0
H2299 H 0.55675 0.03644 0.46024 0.0
H2300 H 0.45317 0.97348 0.48664 0.0
H2301 H 0.61298 0.10744 0.54978 0.0
H2302 H 0.60927 0.11995 0.51729 0.0
H2303 H 0.51325 0.03375 0.58306 0.0
H2304 H 0.57999 0.09289 0.45283 0.0
H2305 H 0.56326 0.06102 0.4388 0.0
H2306 H 0.45831 0.94378 0.54556 0.0
H2307 H 0.59716 0.11465 0.48209 0.0
H2308 H 0.49233 0.9815 0.60366 0.0
H2309 H 0.5089 0.01465 0.61038 0.0
N2310 N 0.50091 0.0111 0.56073 0.0
C2311 C 0.4906 0.99331 0.55689 0.0
C2312 C 0.50653 0.01911 0.57979 0.0
C2313 C 0.49454 0.98969 0.59153 0.0
C2314 C 0.50389 0.0084 0.59538 0.0
C2315 C 0.48726 0.98208 0.57217 0.0
H2316 H 0.47361 0.95505 0.57931 0.0
N2317 N 0.48451 0.99842 0.52372 0.0
C2318 C 0.482 0.98685 0.53785 0.0
C2319 C 0.45988 0.96407 0.51474 0.0
C2320 C 0.46983 0.96917 0.53364 0.0
C2321 C 0.47365 0.99428 0.50591 0.0
C2322 C 0.46147 0.97689 0.50096 0.0
O2323 O 0.55281 0.05941 0.52607 0.0
O2324 O 0.5241 0.05617 0.53978 0.0
O2325 O 0.48557 0.03724 0.51452 0.0
O2326 O 0.48826 0.04243 0.54646 0.0
O2327 O 0.54761 0.02027 0.53427 0.0
O2328 O 0.53131 0.03284 0.55591 0.0
O2329 O 0.51333 0.99874 0.51739 0.0
O2330 O 0.54319 1.00331 0.50539 0.0
O2331 O 0.58444 0.02161 0.52352 0.0
O2332 O 0.58264 0.02586 0.49276 0.0
O2333 O 0.52434 0.03328 0.50964 0.0
O2334 O 0.53857 0.02685 0.48461 0.0
C2335 C 0.54 0.06627 0.53552 0.0
C2336 C 0.54725 0.02886 0.55168 0.0
C2337 C 0.45864 0.04178 0.52979 0.0
C2338 C 0.43045 0.05518 0.52921 0.0
C2339 C 0.42921 0.02295 0.53582 0.0
C2340 C 0.44833 0.02481 0.53413 0.0
C2341 C 0.42028 0.03799 0.53337 0.0
C2342 C 0.44971 0.05697 0.52746 0.0
C2343 C 0.47906 0.04456 0.52988 0.0
C2344 C 0.46741 0.95752 0.54857 0.0
C2345 C 0.47613 0.96395 0.56779 0.0
H2346 H 0.45035 0.95063 0.51094 0.0
C2347 C 0.52708 0.99247 0.5087 0.0
C2348 C 0.52276 0.02859 0.49072 0.0
C2349 C 0.59621 1.00068 0.50153 0.0
C2350 C 0.61863 0.97997 0.50428 0.0
C2351 C 0.59142 0.97164 0.47939 0.0
C2352 C 0.58552 0.98804 0.48589 0.0
C2353 C 0.60801 0.9677 0.48837 0.0
C2354 C 0.61261 0.9964 0.51095 0.0
C2355 C 0.59131 0.01901 0.50692 0.0
H2356 H 0.42133 0.00989 0.53935 0.0
H2357 H 0.45513 0.0132 0.53667 0.0
H2358 H 0.4055 0.03632 0.53515 0.0
H2359 H 0.45779 0.0702 0.52448 0.0
H2360 H 0.58322 0.96206 0.46722 0.0
H2361 H 0.57287 0.99106 0.47839 0.0
H2362 H 0.61246 0.95496 0.48308 0.0
H2363 H 0.62095 0.00607 0.52302 0.0
C2364 C 0.23919 0.29624 0.73149 0.0
C2365 C 0.22445 0.26713 0.71095 0.0
C2366 C 0.23425 0.27672 0.72892 0.0
C2367 C 0.21971 0.27736 0.69563 0.0
C2368 C 0.23444 0.30653 0.71614 0.0
C2369 C 0.22468 0.29699 0.69822 0.0
N2370 N 0.24897 0.30512 0.74884 0.0
C2371 C 0.25391 0.32419 0.75209 0.0
C2372 C 0.23977 0.32612 0.71922 0.0
C2373 C 0.24948 0.33498 0.73729 0.0
Gd2374 Gd 0.30642 0.26998 0.77602 0.0
Gd2375 Gd 0.25608 0.28575 0.7723 0.0
N2376 N 0.23956 0.26713 0.7438 0.0
C2377 C 0.21974 0.24751 0.7089 0.0
C2378 C 0.23418 0.2481 0.74223 0.0
C2379 C 0.22446 0.23799 0.72469 0.0
H2380 H 0.23705 0.24067 0.7545 0.0
H2381 H 0.22048 0.22286 0.72341 0.0
H2382 H 0.3293 0.31388 0.79291 0.0
H2383 H 0.26116 0.33113 0.76614 0.0
H2384 H 0.34774 0.33103 0.82355 0.0
H2385 H 0.21225 0.23963 0.69531 0.0
H2386 H 0.2122 0.27022 0.68171 0.0
H2387 H 0.29953 0.22415 0.78169 0.0
H2388 H 0.2364 0.33452 0.70777 0.0
H2389 H 0.25353 0.35011 0.73985 0.0
H2390 H 0.35312 0.28297 0.8652 0.0
H2391 H 0.22094 0.30467 0.68625 0.0
H2392 H 0.32464 0.21948 0.83951 0.0
H2393 H 0.30636 0.20466 0.8077 0.0
N2394 N 0.31309 0.24983 0.79894 0.0
C2395 C 0.3236 0.25824 0.81612 0.0
C2396 C 0.30717 0.23082 0.79566 0.0
C2397 C 0.32157 0.22814 0.82821 0.0
C2398 C 0.3112 0.21972 0.81029 0.0
C2399 C 0.32801 0.2476 0.83127 0.0
H2400 H 0.34208 0.24874 0.86081 0.0
N2401 N 0.32473 0.28765 0.80404 0.0
C2402 C 0.32977 0.27765 0.81867 0.0
C2403 C 0.34675 0.30625 0.8382 0.0
C2404 C 0.34058 0.28677 0.83633 0.0
C2405 C 0.33168 0.30641 0.80528 0.0
C2406 C 0.34251 0.31607 0.82249 0.0
O2407 O 0.27108 0.28187 0.7449 0.0
O2408 O 0.28613 0.2574 0.74904 0.0
O2409 O 0.32835 0.28047 0.7579 0.0
O2410 O 0.32852 0.25475 0.77063 0.0
O2411 O 0.25976 0.25958 0.78597 0.0
O2412 O 0.28088 0.24622 0.76931 0.0
O2413 O 0.29369 0.27612 0.80443 0.0
O2414 O 0.27485 0.29794 0.80063 0.0
O2415 O 0.23014 0.27292 0.78274 0.0
O2416 O 0.23646 0.30282 0.78227 0.0
O2417 O 0.30424 0.29808 0.76537 0.0
O2418 O 0.28082 0.30996 0.78003 0.0
C2419 C 0.27812 0.26768 0.7376 0.0
C2420 C 0.26653 0.2449 0.77969 0.0
C2421 C 0.3451 0.25848 0.74276 0.0
C2422 C 0.37155 0.2591 0.72303 0.0
C2423 C 0.34639 0.23151 0.71955 0.0
C2424 C 0.33723 0.24029 0.73353 0.0
C2425 C 0.36348 0.24071 0.7145 0.0
C2426 C 0.36217 0.26802 0.73715 0.0
C2427 C 0.33691 0.26652 0.75983 0.0
C2428 C 0.34489 0.2762 0.85148 0.0
C2429 C 0.33862 0.25669 0.84897 0.0
H2430 H 0.35511 0.31378 0.85153 0.0
C2431 C 0.28514 0.28914 0.81174 0.0
C2432 C 0.29632 0.31209 0.77145 0.0
C2433 C 0.21818 0.29118 0.80677 0.0
C2434 C 0.19247 0.2901 0.8274 0.0
C2435 C 0.225 0.29575 0.84242 0.0
C2436 C 0.23115 0.2946 0.82385 0.0
C2437 C 0.20584 0.29343 0.84421 0.0
C2438 C 0.19875 0.28912 0.80857 0.0
C2439 C 0.22486 0.28872 0.78721 0.0
H2440 H 0.34031 0.21739 0.71272 0.0
H2441 H 0.32421 0.23265 0.7375 0.0
H2442 H 0.37027 0.23354 0.70359 0.0
H2443 H 0.36843 0.28205 0.74419 0.0
H2444 H 0.23513 0.29827 0.85551 0.0
H2445 H 0.24603 0.29615 0.82281 0.0
H2446 H 0.20144 0.29445 0.85881 0.0
H2447 H 0.1886 0.28639 0.79545 0.0
C2448 C 0.0158 0.07192 0.56547 0.0
C2449 C 0.0453 0.09074 0.58217 0.0
C2450 C 0.03509 0.07858 0.56582 0.0
C2451 C 0.03596 0.09617 0.59803 0.0
C2452 C 1.00641 0.07751 0.58132 0.0
C2453 C 0.0166 0.08961 0.59759 0.0
N2454 N 1.0063 0.05977 0.5498 0.0
C2455 C 0.9873 0.05372 0.54843 0.0
C2456 C 0.98703 0.07076 0.58036 0.0
C2457 C 0.97742 0.05896 0.56377 0.0
Gd2458 Gd 0.03971 1.00078 0.52232 0.0
Gd2459 Gd 0.02436 0.0524 0.52506 0.0
N2460 N 0.04397 0.07257 0.55057 0.0
C2461 C 0.0647 0.09674 0.5823 0.0
C2462 C 0.06276 0.07874 0.55038 0.0
C2463 C 0.07344 0.09078 0.56631 0.0
H2464 H 0.06957 0.07461 0.53795 0.0
H2465 H 0.0884 0.09551 0.56621 0.0
H2466 H 0.99844 0.97177 0.51242 0.0
H2467 H 0.97961 0.04509 0.53542 0.0
H2468 H 0.98089 0.94807 0.48523 0.0
H2469 H 0.07305 0.10598 0.59466 0.0
H2470 H 0.04362 0.10539 0.61078 0.0
H2471 H 0.08505 0.00901 0.51219 0.0
H2472 H 0.97931 0.07477 0.59223 0.0
H2473 H 0.96237 0.05399 0.56272 0.0
H2474 H 0.02297 0.94904 0.43566 0.0
H2475 H 0.00962 0.09395 0.60995 0.0
H2476 H 0.08542 0.98511 0.45297 0.0
H2477 H 0.10214 1.00378 0.48381 0.0
N2478 N 0.05819 0.99572 0.49685 0.0
C2479 C 0.04899 0.98436 0.4805 0.0
C2480 C 0.07724 1.00183 0.4985 0.0
C2481 C 0.07765 0.98793 0.46518 0.0
C2482 C 0.08713 0.99851 0.48255 0.0
C2483 C 0.05847 0.98023 0.4642 0.0
H2484 H 0.05579 0.96472 0.43511 0.0
N2485 N 0.02175 0.9795 0.49674 0.0
C2486 C 0.03039 0.97564 0.48064 0.0
C2487 C 1.0028 0.95264 0.46635 0.0
C2488 C 0.02094 0.96241 0.46476 0.0
C2489 C 1.00456 0.96928 0.49895 0.0
C2490 C 0.99471 0.95586 0.48367 0.0
O2491 O 0.03243 0.04097 0.55415 0.0
O2492 O 0.05452 0.024 0.54581 0.0
O2493 O 0.03088 0.98098 0.54322 0.0
O2494 O 0.05492 0.97862 0.52815 0.0
O2495 O 0.05058 0.0498 0.5111 0.0
O2496 O 0.06375 0.02647 0.52451 0.0
O2497 O 0.01862 0.00667 0.49804 0.0
O2498 O 0.0286 0.0378 0.49563 0.0
O2499 O 0.03042 0.08106 0.51655 0.0
O2500 O 1.00235 0.06332 0.50935 0.0
O2501 O 0.01548 0.00687 0.5381 0.0
O2502 O 1.00044 0.02669 0.52134 0.0
C2503 C 0.04609 0.03217 0.55922 0.0
C2504 C 0.06485 0.04152 0.51508 0.0
C2505 C 0.05219 0.96274 0.55681 0.0
C2506 C 0.05095 0.93692 0.57752 0.0
C2507 C 0.07827 0.96254 0.58164 0.0
C2508 C 0.07023 0.97074 0.56635 0.0
C2509 C 0.06876 0.94587 0.58722 0.0
C2510 C 0.04266 0.9456 0.56227 0.0
C2511 C 0.04382 0.97132 0.54021 0.0
C2512 C 0.03007 0.95897 0.44813 0.0
C2513 C 0.04876 0.96792 0.44782 0.0
H2514 H 0.99511 0.9423 0.4545 0.0
C2515 C 0.0198 0.021 0.48776 0.0
C2516 C 1.00001 0.01181 0.53086 0.0
C2517 C 1.0059 0.09451 0.4987 0.0
C2518 C 0.00925 0.12256 0.48103 0.0
C2519 C 0.97849 0.1071 0.48815 0.0
C2520 C 0.98645 0.09383 0.49724 0.0
C2521 C 0.98969 0.12125 0.48011 0.0
C2522 C 0.01745 0.10919 0.49076 0.0
C2523 C 0.01326 0.07941 0.5082 0.0
H2524 H 0.09212 0.969 0.58903 0.0
H2525 H 0.07817 0.98341 0.562 0.0
H2526 H 0.07572 0.93963 0.59873 0.0
H2527 H 0.02896 0.93897 0.55456 0.0
H2528 H 0.96348 0.10641 0.48729 0.0
H2529 H 0.97727 0.08298 0.50327 0.0
H2530 H 0.98295 0.13141 0.4733 0.0
H2531 H 0.03248 0.10991 0.49168 0.0
C2532 C 0.24544 0.72901 0.80433 0.0
C2533 C 0.22228 0.71051 0.77824 0.0
C2534 C 0.23975 0.72273 0.78432 0.0
C2535 C 0.21037 0.70506 0.79232 0.0
C2536 C 0.23385 0.72265 0.81851 0.0
C2537 C 0.21615 0.71106 0.81237 0.0
N2538 N 0.26269 0.74022 0.81002 0.0
C2539 C 0.27003 0.74354 0.82945 0.0
C2540 C 0.24067 0.72754 0.83851 0.0
C2541 C 0.25897 0.73769 0.84398 0.0
Gd2542 Gd 0.28412 0.80678 0.76599 0.0
Gd2543 Gd 0.27902 0.74939 0.78379 0.0
N2544 N 0.25143 0.7282 0.77084 0.0
C2545 C 0.21739 0.70389 0.75817 0.0
C2546 C 0.24719 0.72111 0.75138 0.0
C2547 C 0.22998 0.70905 0.74472 0.0
H2548 H 0.25684 0.72533 0.74098 0.0
H2549 H 0.22641 0.7038 0.72924 0.0
H2550 H 0.30624 0.83177 0.80861 0.0
H2551 H 0.28444 0.75071 0.83386 0.0
H2552 H 0.33711 0.85232 0.82049 0.0
H2553 H 0.20405 0.69455 0.75295 0.0
H2554 H 0.19681 0.69584 0.78789 0.0
H2555 H 0.27722 0.80982 0.71696 0.0
H2556 H 0.23219 0.72291 0.84982 0.0
H2557 H 0.26465 0.74082 0.85938 0.0
H2558 H 0.36741 0.85876 0.76208 0.0
H2559 H 0.20701 0.70626 0.82308 0.0
H2560 H 0.3298 0.83619 0.7002 0.0
H2561 H 0.29642 0.82074 0.69116 0.0
N2562 N 0.29999 0.81776 0.74006 0.0
C2563 C 0.31777 0.8277 0.7456 0.0
C2564 C 0.29188 0.81637 0.72098 0.0
C2565 C 0.32152 0.83124 0.71154 0.0
C2566 C 0.30267 0.82256 0.70636 0.0
C2567 C 0.32913 0.83444 0.7314 0.0
H2568 H 0.35635 0.85 0.72678 0.0
N2569 N 0.31211 0.82767 0.77896 0.0
C2570 C 0.32399 0.83283 0.7656 0.0
C2571 C 0.34665 0.85115 0.79179 0.0
C2572 C 0.34173 0.84455 0.77173 0.0
C2573 C 0.31617 0.83532 0.79829 0.0
C2574 C 0.33364 0.84687 0.80505 0.0
O2575 O 0.25109 0.75643 0.7689 0.0
O2576 O 0.25565 0.78657 0.7582 0.0
O2577 O 0.27613 0.83018 0.78291 0.0
O2578 O 0.26409 0.82166 0.75267 0.0
O2579 O 0.28515 0.76955 0.76283 0.0
O2580 O 0.28584 0.78665 0.73935 0.0
O2581 O 0.3093 0.79907 0.78481 0.0
O2582 O 0.30872 0.7665 0.7816 0.0
O2583 O 0.28642 0.72506 0.76801 0.0
O2584 O 0.29895 0.73506 0.79806 0.0
O2585 O 0.27221 0.78845 0.78774 0.0
O2586 O 0.28348 0.77191 0.8096 0.0
C2587 C 0.24493 0.77007 0.76004 0.0
C2588 C 0.28603 0.77012 0.74421 0.0
C2589 C 0.26666 0.85318 0.76475 0.0
C2590 C 0.2521 0.88029 0.7627 0.0
C2591 C 0.2838 0.88147 0.75432 0.0
C2592 C 0.28294 0.86303 0.75841 0.0
C2593 C 0.26848 0.89012 0.75652 0.0
C2594 C 0.25121 0.86179 0.76677 0.0
C2595 C 0.26511 0.8336 0.76826 0.0
C2596 C 0.35362 0.85 0.75762 0.0
C2597 C 0.34732 0.84498 0.73751 0.0
H2598 H 0.36017 0.86014 0.79707 0.0
C2599 C 0.3176 0.78435 0.78612 0.0
C2600 C 0.27955 0.78789 0.80565 0.0
C2601 C 0.29637 0.70312 0.78751 0.0
C2602 C 0.31046 0.67555 0.7888 0.0
C2603 C 0.28047 0.67613 0.80119 0.0
C2604 C 0.2811 0.69425 0.79624 0.0
C2605 C 0.29501 0.66676 0.79743 0.0
C2606 C 0.31109 0.69382 0.78394 0.0
C2607 C 0.29769 0.72239 0.78295 0.0
H2608 H 0.29631 0.88902 0.7493 0.0
H2609 H 0.29484 0.85644 0.75648 0.0
H2610 H 0.26927 0.90437 0.75312 0.0
H2611 H 0.23849 0.85409 0.77136 0.0
H2612 H 0.26874 0.66934 0.80805 0.0
H2613 H 0.26981 0.70139 0.79936 0.0
H2614 H 0.29434 0.65276 0.80153 0.0
H2615 H 0.32298 0.70077 0.77734 0.0
C2616 C 0.56535 0.99496 0.0714 0.0
C2617 C 0.58576 0.02016 0.0936 0.0
C2618 C 0.56957 0.01356 0.07983 0.0
C2619 C 0.59728 0.00772 0.09912 0.0
C2620 C 0.57698 0.98246 0.07676 0.0
C2621 C 0.59288 0.98891 0.09075 0.0
N2622 N 0.55018 0.98921 0.05756 0.0
C2623 C 0.54546 0.97113 0.0488 0.0
C2624 C 0.57235 0.96388 0.06773 0.0
C2625 C 0.5565 0.95818 0.05371 0.0
Gd2626 Gd 0.53 0.04325 1.00082 0.0
Gd2627 Gd 0.53215 0.01139 0.0506 0.0
N2628 N 0.55837 0.02535 0.07383 0.0
C2629 C 0.59014 0.03918 0.10109 0.0
C2630 C 0.56294 0.04403 0.08073 0.0
C2631 C 0.57873 0.05117 0.09454 0.0
H2632 H 0.55491 0.05374 0.07541 0.0
H2633 H 0.58224 0.06598 0.09989 0.0
H2634 H 0.51853 1.00409 0.96731 0.0
H2635 H 0.5331 0.96661 0.03813 0.0
H2636 H 0.49395 0.99038 0.9401 0.0
H2637 H 0.6025 0.04481 0.11161 0.0
H2638 H 0.60975 0.01255 0.10968 0.0
H2639 H 0.52406 0.08704 0.0127 0.0
H2640 H 0.58091 0.95383 0.07146 0.0
H2641 H 0.55276 0.94383 0.04672 0.0
H2642 H 0.45617 0.03711 0.93438 0.0
H2643 H 0.60198 0.97951 0.09505 0.0
H2644 H 0.47447 0.09451 0.97815 0.0
H2645 H 0.50104 0.10671 0.00437 0.0
N2646 N 0.50974 0.06346 0.99278 0.0
C2647 C 0.49589 0.05687 0.97757 0.0
C2648 C 0.51206 0.08132 0.0019 0.0
C2649 C 0.48436 0.08572 0.98202 0.0
C2650 C 0.49927 0.09262 0.99689 0.0
C2651 C 0.48266 0.06774 0.97194 0.0
H2652 H 0.45793 0.06853 0.95198 0.0
N2653 N 0.50787 0.02903 0.97347 0.0
C2654 C 0.49503 0.03925 0.96745 0.0
C2655 C 0.48026 0.01404 0.94198 0.0
C2656 C 0.48073 0.03191 0.95174 0.0
C2657 C 0.5079 0.0119 0.96344 0.0
C2658 C 0.49401 1.00408 0.94775 0.0
O2659 O 0.55965 0.0183 0.03919 0.0
O2660 O 0.55072 0.0434 0.02771 0.0
O2661 O 0.54819 0.04212 0.97813 0.0
O2662 O 0.54707 0.06892 0.99399 0.0
O2663 O 0.52558 0.04083 0.05666 0.0
O2664 O 0.5279 0.06027 0.03095 0.0
O2665 O 0.50094 0.02751 0.00265 0.0
O2666 O 0.51858 0.02347 0.0276 0.0
O2667 O 0.51816 0.01128 0.07684 0.0
O2668 O 0.50957 0.98787 0.05287 0.0
O2669 O 0.53859 0.01414 0.9974 0.0
O2670 O 0.52727 0.99388 0.02024 0.0
C2671 C 0.56289 0.0323 0.02886 0.0
C2672 C 0.52533 0.05717 0.04952 0.0
C2673 C 0.55394 0.06829 0.96088 0.0
C2674 C 0.56378 0.06715 0.92817 0.0
C2675 C 0.54955 0.09274 0.94051 0.0
C2676 C 0.5476 0.08496 0.95813 0.0
C2677 C 0.55777 0.08397 0.92561 0.0
C2678 C 0.56188 0.05944 0.94579 0.0
C2679 C 0.55355 0.06024 0.97955 0.0
C2680 C 0.46732 0.04255 0.94635 0.0
C2681 C 0.4683 0.06043 0.9564 0.0
H2682 H 0.46947 0.0079 0.92987 0.0
C2683 C 0.5019 0.01945 0.01821 0.0
C2684 C 0.53417 0.99721 0.00344 0.0
C2685 C 0.49287 0.98628 0.08179 0.0
C2686 C 0.4797 0.98481 0.11274 0.0
C2687 C 0.46674 0.96126 0.08492 0.0
C2688 C 0.47976 0.97007 0.07356 0.0
C2689 C 0.46673 0.96855 0.1045 0.0
C2690 C 0.49264 0.99373 0.10137 0.0
C2691 C 0.50706 0.99524 0.07025 0.0
H2692 H 0.54482 0.10565 0.93847 0.0
H2693 H 0.5414 0.09208 0.9696 0.0
H2694 H 0.5593 0.0902 0.91207 0.0
H2695 H 0.56707 0.04673 0.94795 0.0
H2696 H 0.45665 0.94877 0.07854 0.0
H2697 H 0.4796 0.96419 0.05841 0.0
H2698 H 0.45663 0.96155 0.11321 0.0
H2699 H 0.50272 0.0062 0.10797 0.0
C2700 C 0.33488 0.3124 0.31035 0.0
C2701 C 0.35303 0.32741 0.28647 0.0
C2702 C 0.33579 0.31816 0.29169 0.0
C2703 C 0.36934 0.33047 0.30004 0.0
C2704 C 0.35122 0.3157 0.32407 0.0
C2705 C 0.36844 0.32465 0.31877 0.0
N2706 N 0.31801 0.30383 0.31516 0.0
C2707 C 0.3164 0.29892 0.33364 0.0
C2708 C 0.34974 0.31016 0.34284 0.0
C2709 C 0.33223 0.30183 0.34768 0.0
Gd2710 Gd 0.2712 0.25353 0.26011 0.0
Gd2711 Gd 0.29228 0.3011 0.29097 0.0
N2712 N 0.31978 0.31493 0.27875 0.0
C2713 C 0.3533 0.3337 0.26792 0.0
C2714 C 0.3198 0.32211 0.2612 0.0
C2715 C 0.33655 0.33128 0.25536 0.0
H2716 H 0.30692 0.32141 0.25189 0.0
H2717 H 0.33648 0.3367 0.24128 0.0
H2718 H 0.25464 0.23567 0.29981 0.0
H2719 H 0.30285 0.29341 0.3379 0.0
H2720 H 0.22432 0.22222 0.3101 0.0
H2721 H 0.36625 0.3409 0.26339 0.0
H2722 H 0.38269 0.33755 0.29627 0.0
H2723 H 0.26236 0.25975 0.21247 0.0
H2724 H 0.36196 0.31253 0.35382 0.0
H2725 H 0.33087 0.29792 0.36231 0.0
H2726 H 0.18022 0.21867 0.25257 0.0
H2727 H 0.38112 0.32731 0.32913 0.0
H2728 H 0.20349 0.24052 0.19462 0.0
H2729 H 0.23508 0.2546 0.18696 0.0
N2730 N 0.24628 0.24973 0.23476 0.0
C2731 C 0.2291 0.24167 0.23921 0.0
C2732 C 0.24858 0.25425 0.21624 0.0
C2733 C 0.21538 0.24304 0.206 0.0
C2734 C 0.23318 0.25106 0.20164 0.0
C2735 C 0.21316 0.23819 0.22493 0.0
H2736 H 0.18319 0.2271 0.21914 0.0
N2737 N 0.24304 0.24043 0.27165 0.0
C2738 C 0.22742 0.23684 0.25813 0.0
C2739 C 0.20863 0.2236 0.28221 0.0
C2740 C 0.20977 0.2285 0.26314 0.0
C2741 C 0.24215 0.23463 0.28983 0.0
C2742 C 0.22494 0.22652 0.29554 0.0
O2743 O 0.31366 0.28248 0.28289 0.0
O2744 O 0.30029 0.26633 0.25305 0.0
O2745 O 0.27959 0.22759 0.26655 0.0
O2746 O 0.26954 0.23126 0.23623 0.0
O2747 O 0.277 0.30112 0.26019 0.0
O2748 O 0.28323 0.27563 0.24188 0.0
O2749 O 0.24991 0.27213 0.26728 0.0
O2750 O 0.26196 0.2899 0.29683 0.0
O2751 O 0.28843 0.32874 0.28574 0.0
O2752 O 0.29324 0.32235 0.31572 0.0
O2753 O 0.28589 0.2538 0.29116 0.0
O2754 O 0.2799 0.27943 0.30939 0.0
C2755 C 0.31531 0.27334 0.26573 0.0
C2756 C 0.2795 0.29251 0.24314 0.0
C2757 C 0.27824 0.20163 0.24109 0.0
C2758 C 0.29445 0.176 0.24488 0.0
C2759 C 0.27301 0.17522 0.21539 0.0
C2760 C 0.26936 0.19255 0.22263 0.0
C2761 C 0.28568 0.16701 0.2264 0.0
C2762 C 0.29054 0.19313 0.25233 0.0
C2763 C 0.27575 0.22045 0.24807 0.0
C2764 C 0.19388 0.22511 0.24897 0.0
C2765 C 0.19557 0.22991 0.22993 0.0
H2766 H 0.19532 0.21718 0.28664 0.0
C2767 C 0.24744 0.28181 0.28378 0.0
C2768 C 0.28332 0.26246 0.30815 0.0
C2769 C 0.27375 0.34412 0.30936 0.0
C2770 C 0.2549 0.36683 0.30125 0.0
C2771 C 0.25062 0.35134 0.33045 0.0
C2772 C 0.26451 0.34125 0.32612 0.0
C2773 C 0.2459 0.36427 0.31814 0.0
C2774 C 0.26878 0.35686 0.297 0.0
C2775 C 0.28885 0.33446 0.30439 0.0
H2776 H 0.26621 0.16828 0.20113 0.0
H2777 H 0.25979 0.19892 0.21373 0.0
H2778 H 0.28866 0.1537 0.22054 0.0
H2779 H 0.29766 0.20013 0.2665 0.0
H2780 H 0.24358 0.34923 0.34341 0.0
H2781 H 0.26805 0.33138 0.33588 0.0
H2782 H 0.23526 0.37216 0.32169 0.0
H2783 H 0.27599 0.35933 0.28415 0.0
C2784 C 0.51719 0.57968 0.06458 0.0
C2785 C 0.54716 0.59769 0.08088 0.0
C2786 C 0.53664 0.5845 0.06552 0.0
C2787 C 0.53795 0.60542 0.0957 0.0
C2788 C 0.50784 0.58804 0.07901 0.0
C2789 C 0.51835 0.6006 0.09477 0.0
N2790 N 0.50736 0.56755 0.04912 0.0
C2791 C 0.48822 0.56494 0.04606 0.0
C2792 C 0.48817 0.58399 0.07684 0.0
C2793 C 0.47831 0.57266 0.06008 0.0
Gd2794 Gd 0.53617 0.50145 0.02424 0.0
Gd2795 Gd 0.5255 0.55559 0.02641 0.0
N2796 N 0.54525 0.57659 0.05116 0.0
C2797 C 0.56658 0.60307 0.08062 0.0
C2798 C 0.56386 0.58294 0.04995 0.0
C2799 C 0.57491 0.59591 0.06487 0.0
H2800 H 0.5701 0.57821 0.03737 0.0
H2801 H 0.58976 0.60058 0.06406 0.0
H2802 H 0.49246 0.48268 1.00083 0.0
H2803 H 0.48059 0.55727 0.03247 0.0
H2804 H 0.47811 0.46134 0.97114 0.0
H2805 H 0.57515 0.61321 0.09213 0.0
H2806 H 0.54582 0.61546 0.1077 0.0
H2807 H 0.5828 0.50619 0.02391 0.0
H2808 H 0.48047 0.59013 0.0876 0.0
H2809 H 0.46311 0.57016 0.05776 0.0
H2810 H 0.53055 0.44997 0.93832 0.0
H2811 H 0.51141 0.60702 0.10607 0.0
H2812 H 0.59253 0.47811 0.96939 0.0
H2813 H 0.60479 0.49743 1.00134 0.0
N2814 N 0.55836 0.4934 0.0043 0.0
C2815 C 0.55129 0.4821 0.9872 0.0
C2816 C 0.57728 0.49844 0.0097 0.0
C2817 C 0.5828 0.48221 0.97911 0.0
C2818 C 0.58978 0.49319 0.99709 0.0
C2819 C 0.56336 0.47631 0.97407 0.0
H2820 H 0.56479 0.46029 0.94614 0.0
N2821 N 0.52056 0.48242 0.99546 0.0
C2822 C 0.5319 0.47623 0.98278 0.0
C2823 C 0.50467 0.4589 0.9611 0.0
C2824 C 0.52422 0.4645 0.96513 0.0
C2825 C 0.50148 0.47731 0.99134 0.0
C2826 C 0.49326 0.46533 0.97428 0.0
O2827 O 0.54151 0.54818 0.05369 0.0
O2828 O 0.53028 0.51645 0.05288 0.0
O2829 O 0.52588 0.47382 0.03277 0.0
O2830 O 0.55426 0.48854 0.04342 0.0
O2831 O 0.55137 0.54856 0.01371 0.0
O2832 O 0.56032 0.5263 0.03214 0.0
O2833 O 0.5322 0.5142 0.99537 0.0
O2834 O 0.51108 0.53298 0.00204 0.0
O2835 O 0.53622 0.57494 0.00553 0.0
O2836 O 0.51119 0.57753 0.01863 0.0
O2837 O 0.50687 0.50293 0.03023 0.0
O2838 O 0.49958 0.53285 0.02926 0.0
C2839 C 0.53872 0.53284 0.06241 0.0
C2840 C 0.56447 0.54085 0.02238 0.0
C2841 C 0.54744 0.45537 0.04426 0.0
C2842 C 0.54677 0.42614 0.05935 0.0
C2843 C 0.56647 0.43342 0.03336 0.0
C2844 C 0.56031 0.45025 0.03199 0.0
C2845 C 0.55987 0.42152 0.04691 0.0
C2846 C 0.54065 0.44327 0.05787 0.0
C2847 C 0.54143 0.47355 0.04372 0.0
C2848 C 0.53622 0.45887 0.95199 0.0
C2849 C 0.55572 0.46478 0.95642 0.0
H2850 H 0.49824 0.44988 0.94772 0.0
C2851 C 0.51995 0.52429 0.98948 0.0
C2852 C 0.49524 0.51466 0.03141 0.0
C2853 C 0.51501 0.59287 0.99026 0.0
C2854 C 0.5161 0.61986 0.97139 0.0
C2855 C 0.48751 0.59591 0.96871 0.0
C2856 C 0.49632 0.58598 0.98181 0.0
C2857 C 0.49722 0.6127 0.96363 0.0
C2858 C 0.5249 0.60984 0.98492 0.0
C2859 C 0.52295 0.58448 0.00715 0.0
H2860 H 0.5766 0.42964 0.024 0.0
H2861 H 0.56573 0.45932 0.02151 0.0
H2862 H 0.56536 0.40884 0.04786 0.0
H2863 H 0.5306 0.44724 0.06725 0.0
H2864 H 0.47293 0.59079 0.96277 0.0
H2865 H 0.48826 0.57328 0.98596 0.0
H2866 H 0.48973 0.62032 0.95389 0.0
H2867 H 0.5392 0.61543 0.99164 0.0
C2868 C 0.74438 0.23433 0.31262 0.0
C2869 C 0.71995 0.21207 0.29121 0.0
C2870 C 0.73762 0.22434 0.29428 0.0
C2871 C 0.70818 0.21174 0.30616 0.0
C2872 C 0.73324 0.2327 0.32822 0.0
C2873 C 0.71478 0.22213 0.32463 0.0
N2874 N 0.76259 0.24367 0.31576 0.0
C2875 C 0.77115 0.24935 0.33465 0.0
C2876 C 0.74138 0.2407 0.34721 0.0
C2877 C 0.76055 0.24859 0.35052 0.0
Gd2878 Gd 0.78151 0.30255 0.26539 0.0
Gd2879 Gd 0.77722 0.24726 0.28669 0.0
N2880 N 0.74928 0.22495 0.28014 0.0
C2881 C 0.71523 0.19963 0.27375 0.0
C2882 C 0.74578 0.21147 0.26426 0.0
C2883 C 0.72852 0.19885 0.26054 0.0
H2884 H 0.75632 0.21045 0.2545 0.0
H2885 H 0.72551 0.18858 0.24756 0.0
H2886 H 0.80524 0.32374 0.30898 0.0
H2887 H 0.78611 0.25489 0.33758 0.0
H2888 H 0.83635 0.34352 0.32118 0.0
H2889 H 0.70185 0.18987 0.27087 0.0
H2890 H 0.69436 0.20274 0.30393 0.0
H2891 H 0.77505 0.30488 0.21622 0.0
H2892 H 0.73327 0.23984 0.35958 0.0
H2893 H 0.76722 0.2539 0.36531 0.0
H2894 H 0.86456 0.35526 0.26244 0.0
H2895 H 0.70591 0.22101 0.33635 0.0
H2896 H 0.82698 0.33377 0.20034 0.0
H2897 H 0.79414 0.31684 0.19081 0.0
N2898 N 0.79739 0.31376 0.23967 0.0
C2899 C 0.81498 0.32416 0.24546 0.0
C2900 C 0.78954 0.31192 0.22048 0.0
C2901 C 0.81877 0.32834 0.21153 0.0
C2902 C 0.80023 0.31879 0.20608 0.0
C2903 C 0.82623 0.33151 0.23144 0.0
H2904 H 0.85317 0.34788 0.22711 0.0
N2905 N 0.80993 0.32232 0.27894 0.0
C2906 C 0.82137 0.32863 0.26556 0.0
C2907 C 0.84474 0.34515 0.29212 0.0
C2908 C 0.8392 0.34011 0.27187 0.0
C2909 C 0.81476 0.32813 0.29863 0.0
C2910 C 0.83236 0.33935 0.30553 0.0
O2911 O 0.7498 0.2531 0.27059 0.0
O2912 O 0.75173 0.2835 0.26047 0.0
O2913 O 0.77487 0.3269 0.28197 0.0
O2914 O 0.76313 0.31873 0.25143 0.0
O2915 O 0.7807 0.26563 0.26348 0.0
O2916 O 0.78051 0.28165 0.23894 0.0
O2917 O 0.80918 0.29336 0.27793 0.0
O2918 O 0.80635 0.26616 0.29456 0.0
O2919 O 0.79083 0.2301 0.26724 0.0
O2920 O 0.78776 0.22381 0.29702 0.0
O2921 O 0.77003 0.28699 0.28928 0.0
O2922 O 0.78509 0.27197 0.31012 0.0
C2923 C 0.7422 0.26649 0.26278 0.0
C2924 C 0.78035 0.26533 0.24451 0.0
C2925 C 0.76626 0.35044 0.26379 0.0
C2926 C 0.7523 0.37808 0.26229 0.0
C2927 C 0.78394 0.37874 0.25389 0.0
C2928 C 0.78269 0.36016 0.25764 0.0
C2929 C 0.76886 0.38771 0.25627 0.0
C2930 C 0.75102 0.35939 0.26599 0.0
C2931 C 0.76432 0.33073 0.26708 0.0
C2932 C 0.85075 0.34656 0.25785 0.0
C2933 C 0.84428 0.34232 0.23771 0.0
H2934 H 0.85835 0.35391 0.29752 0.0
C2935 C 0.81636 0.28115 0.28827 0.0
C2936 C 0.77933 0.28724 0.30645 0.0
C2937 C 0.8131 0.21479 0.28289 0.0
C2938 C 0.83246 0.19106 0.28356 0.0
C2939 C 0.84694 0.22412 0.29068 0.0
C2940 C 0.82929 0.22887 0.28789 0.0
C2941 C 0.84857 0.20533 0.28837 0.0
C2942 C 0.8147 0.19587 0.28096 0.0
C2943 C 0.79435 0.21939 0.28066 0.0
H2944 H 0.79658 0.38617 0.249 0.0
H2945 H 0.79443 0.35336 0.25559 0.0
H2946 H 0.76997 0.40206 0.25312 0.0
H2947 H 0.73817 0.35183 0.27043 0.0
H2948 H 0.85937 0.23502 0.29475 0.0
H2949 H 0.82833 0.24348 0.28977 0.0
H2950 H 0.86237 0.20189 0.29067 0.0
H2951 H 0.80218 0.18492 0.27737 0.0
C2952 C 0.06933 0.50376 0.57353 0.0
C2953 C 0.07733 0.52681 0.60249 0.0
C2954 C 0.06538 0.51883 0.58503 0.0
C2955 C 0.09378 0.52008 0.60748 0.0
C2956 C 0.08535 0.49634 0.57899 0.0
C2957 C 0.09779 0.50489 0.59573 0.0
N2958 N 0.05697 0.49571 0.55757 0.0
C2959 C 0.05905 0.47941 0.54723 0.0
C2960 C 0.08812 0.48024 0.56777 0.0
C2961 C 0.07472 0.47156 0.55202 0.0
Gd2962 Gd 0.03249 0.54339 0.50232 0.0
Gd2963 Gd 0.03241 0.51118 0.54892 0.0
N2964 N 0.04958 0.52531 0.57953 0.0
C2965 C 0.07227 0.54119 0.6145 0.0
C2966 C 0.04381 0.53817 0.59215 0.0
C2967 C 0.05524 0.54659 0.60952 0.0
H2968 H 0.03027 0.54189 0.58923 0.0
H2969 H 0.05078 0.5571 0.61918 0.0
H2970 H 0.02525 0.50821 0.46364 0.0
H2971 H 0.04855 0.47218 0.53541 0.0
H2972 H 0.99857 0.49009 0.4407 0.0
H2973 H 0.08108 0.54772 0.62798 0.0
H2974 H 0.10327 0.52626 0.62063 0.0
H2975 H 0.02183 0.5854 0.5142 0.0
H2976 H 0.10022 0.47409 0.5715 0.0
H2977 H 0.07638 0.45876 0.54361 0.0
H2978 H 0.94889 0.52366 0.44939 0.0
H2979 H 0.1103 0.49954 0.60001 0.0
H2980 H 0.96492 0.58303 0.48986 0.0
H2981 H 0.99426 0.60039 0.50989 0.0
N2982 N 0.00816 0.55985 0.49686 0.0
C2983 C 0.99258 0.55049 0.48494 0.0
C2984 C 0.0091 0.57775 0.50535 0.0
C2985 C 0.97699 0.57642 0.49163 0.0
C2986 C 0.99354 0.58629 0.50291 0.0
C2987 C 0.97644 0.55839 0.48224 0.0
H2988 H 0.94786 0.55402 0.46785 0.0
N2989 N 0.00937 0.52677 0.47676 0.0
C2990 C 0.99319 0.53342 0.47455 0.0
C2991 C 0.97942 0.5076 0.44942 0.0
C2992 C 0.97764 0.52381 0.46113 0.0
C2993 C 0.01175 0.51209 0.46394 0.0
C2994 C 0.99673 0.50203 0.45044 0.0
O2995 O 0.05729 0.52376 0.53502 0.0
O2996 O 0.05597 0.55269 0.52668 0.0
O2997 O 0.05606 0.54614 0.48537 0.0
O2998 O 0.03879 0.56732 0.48626 0.0
O2999 O 0.02462 0.54042 0.55505 0.0
O3000 O 0.03417 0.56103 0.53212 0.0
O3001 O 0.00886 0.53059 0.51751 0.0
O3002 O 0.01133 0.50141 0.52264 0.0
O3003 O 1.0053 0.50562 0.55977 0.0
O3004 O 0.02361 0.48517 0.56083 0.0
O3005 O 0.04138 0.5149 0.49541 0.0
O3006 O 0.03504 0.49483 0.51956 0.0
C3007 C 0.06419 0.54167 0.53677 0.0
C3008 C 0.02804 0.55744 0.54921 0.0
C3009 C 0.05004 0.55915 0.4563 0.0
C3010 C 0.06447 0.55405 0.42649 0.0
C3011 C 0.03141 0.55567 0.42434 0.0
C3012 C 0.03274 0.55842 0.44487 0.0
C3013 C 0.04718 0.55342 0.41514 0.0
C3014 C 0.06582 0.55705 0.44704 0.0
C3015 C 0.05174 0.56067 0.47782 0.0
C3016 C 0.96109 0.53102 0.45935 0.0
C3017 C 0.96051 0.54832 0.46984 0.0
H3018 H 0.96781 0.49981 0.43893 0.0
C3019 C 1.00247 0.51269 0.51401 0.0
C3020 C 0.03991 0.49826 0.502 0.0
C3021 C 0.99965 0.48234 0.58155 0.0
C3022 C 0.9874 0.48715 0.61285 0.0
C3023 C 0.98516 0.45556 0.5965 0.0
C3024 C 0.99408 0.4629 0.58125 0.0
C3025 C 0.98168 0.46757 0.61213 0.0
C3026 C 0.99646 0.49451 0.59741 0.0
C3027 C 0.0075 0.48915 0.56431 0.0
H3028 H 0.01811 0.55515 0.41555 0.0
H3029 H 0.02026 0.55975 0.45175 0.0
H3030 H 0.04593 0.55132 0.39919 0.0
H3031 H 0.07906 0.55722 0.45588 0.0
H3032 H 0.98064 0.44055 0.59604 0.0
H3033 H 0.99634 0.45338 0.56897 0.0
H3034 H 0.97414 0.46147 0.62346 0.0
H3035 H 1.00089 0.50954 0.59767 0.0
C3036 C 0.73693 0.79306 0.23151 0.0
C3037 C 0.71843 0.76403 0.2135 0.0
C3038 C 0.73032 0.77371 0.23028 0.0
C3039 C 0.71347 0.7739 0.19794 0.0
C3040 C 0.73196 0.80295 0.21588 0.0
C3041 C 0.72023 0.79326 0.19912 0.0
N3042 N 0.74857 0.8021 0.24779 0.0
C3043 C 0.75512 0.82102 0.24968 0.0
C3044 C 0.73901 0.82229 0.21753 0.0
C3045 C 0.75057 0.83136 0.23453 0.0
Gd3046 Gd 0.80674 0.77023 0.27261 0.0
Gd3047 Gd 0.75476 0.78319 0.27213 0.0
N3048 N 0.73583 0.76432 0.2453 0.0
C3049 C 0.71178 0.74472 0.21291 0.0
C3050 C 0.72859 0.74575 0.24526 0.0
C3051 C 0.71668 0.7356 0.22896 0.0
H3052 H 0.73163 0.73876 0.25786 0.0
H3053 H 0.71119 0.72078 0.22885 0.0
H3054 H 0.83302 0.81317 0.28396 0.0
H3055 H 0.76353 0.82829 0.26301 0.0
H3056 H 0.85568 0.83139 0.3114 0.0
H3057 H 0.70259 0.73679 0.20028 0.0
H3058 H 0.70438 0.76667 0.18491 0.0
H3059 H 0.8024 0.72485 0.27927 0.0
H3060 H 0.7355 0.83037 0.20583 0.0
H3061 H 0.75586 0.84634 0.23603 0.0
H3062 H 0.8659 0.78556 0.35451 0.0
H3063 H 0.71627 0.80064 0.18696 0.0
H3064 H 0.83496 0.72169 0.33371 0.0
H3065 H 0.81307 0.70608 0.30435 0.0
N3066 N 0.81707 0.75091 0.29481 0.0
C3067 C 0.82952 0.7597 0.31051 0.0
C3068 C 0.81145 0.73188 0.29228 0.0
C3069 C 0.83008 0.73003 0.32287 0.0
C3070 C 0.8177 0.72117 0.30635 0.0
C3071 C 0.83634 0.74951 0.32501 0.0
H3072 H 0.85458 0.75145 0.35236 0.0
N3073 N 0.82892 0.78829 0.29755 0.0
C3074 C 0.83569 0.77897 0.31189 0.0
C3075 C 0.85592 0.80772 0.32767 0.0
C3076 C 0.84913 0.78849 0.32756 0.0
C3077 C 0.8366 0.80659 0.29671 0.0
C3078 C 0.84987 0.81674 0.31196 0.0
O3079 O 0.76789 0.77882 0.2432 0.0
O3080 O 0.78463 0.75596 0.24814 0.0
O3081 O 0.82694 0.78175 0.25336 0.0
O3082 O 0.82465 0.75313 0.25942 0.0
O3083 O 0.75797 0.75564 0.28355 0.0
O3084 O 0.78195 0.74578 0.26817 0.0
O3085 O 0.79698 0.77617 0.30288 0.0
O3086 O 0.77346 0.79379 0.30093 0.0
O3087 O 0.73111 0.77328 0.28852 0.0
O3088 O 0.73377 0.79987 0.27707 0.0
O3089 O 0.80067 0.79751 0.26258 0.0
O3090 O 0.77917 0.80748 0.28141 0.0
C3091 C 0.77528 0.76476 0.23632 0.0
C3092 C 0.76684 0.74241 0.27738 0.0
C3093 C 0.85446 0.76865 0.25295 0.0
C3094 C 0.88423 0.77128 0.23846 0.0
C3095 C 0.88372 0.7698 0.27367 0.0
C3096 C 0.86433 0.76858 0.27151 0.0
C3097 C 0.89358 0.77112 0.25736 0.0
C3098 C 0.86446 0.76991 0.23634 0.0
C3099 C 0.83373 0.76651 0.25087 0.0
C3100 C 0.85567 0.77847 0.34227 0.0
C3101 C 0.84926 0.75903 0.34102 0.0
H3102 H 0.8663 0.81556 0.3394 0.0
C3103 C 0.78608 0.78655 0.3111 0.0
C3104 C 0.79463 0.81085 0.2729 0.0
C3105 C 0.71569 0.79652 0.30389 0.0
C3106 C 0.68934 0.79595 0.32376 0.0
C3107 C 0.71326 0.82429 0.3254 0.0
C3108 C 0.72279 0.81525 0.31201 0.0
C3109 C 0.69659 0.81483 0.33105 0.0
C3110 C 0.69906 0.78675 0.31017 0.0
C3111 C 0.72399 0.78822 0.28698 0.0
H3112 H 0.89113 0.76953 0.28807 0.0
H3113 H 0.85703 0.76726 0.28434 0.0
H3114 H 0.90859 0.77162 0.25954 0.0
H3115 H 0.85691 0.76986 0.22192 0.0
H3116 H 0.71873 0.83881 0.33127 0.0
H3117 H 0.73545 0.82314 0.30755 0.0
H3118 H 0.6895 0.82222 0.34149 0.0
H3119 H 0.69336 0.77232 0.30404 0.0
C3120 C 0.81184 0.24428 0.72812 0.0
C3121 C 0.78952 0.23127 0.69912 0.0
C3122 C 0.79519 0.24427 0.71625 0.0
C3123 C 0.8007 0.21825 0.69413 0.0
C3124 C 0.82318 0.23135 0.72299 0.0
C3125 C 0.81748 0.2183 0.70601 0.0
N3126 N 0.81697 0.25701 0.74458 0.0
C3127 C 0.83366 0.25805 0.756 0.0
C3128 C 0.84002 0.232 0.735 0.0
C3129 C 0.84532 0.24548 0.7515 0.0
Gd3130 Gd 0.76475 0.27686 0.80056 0.0
Gd3131 Gd 0.79631 0.2774 0.75061 0.0
N3132 N 0.78442 0.2568 0.72168 0.0
C3133 C 0.77279 0.23178 0.68747 0.0
C3134 C 0.76851 0.25785 0.70991 0.0
C3135 C 0.76234 0.24523 0.69281 0.0
H3136 H 0.7606 0.26854 0.71334 0.0
H3137 H 0.74961 0.246 0.68365 0.0
H3138 H 0.80063 0.28417 0.83807 0.0
H3139 H 0.83832 0.26878 0.76839 0.0
H3140 H 0.8172 0.30991 0.86298 0.0
H3141 H 0.76796 0.22202 0.6742 0.0
H3142 H 0.79654 0.20813 0.68105 0.0
H3143 H 0.72514 0.28927 0.78342 0.0
H3144 H 0.84913 0.22232 0.73154 0.0
H3145 H 0.85848 0.24631 0.76066 0.0
H3146 H 0.78053 0.35764 0.85826 0.0
H3147 H 0.826 0.20823 0.70189 0.0
H3148 H 0.72437 0.34385 0.81221 0.0
H3149 H 0.70959 0.31642 0.78787 0.0
N3150 N 0.74857 0.30149 0.80468 0.0
C3151 C 0.75648 0.31598 0.81881 0.0
C3152 C 0.73168 0.30121 0.79403 0.0
C3153 C 0.7312 0.33196 0.81036 0.0
C3154 C 0.72283 0.31652 0.79657 0.0
C3155 C 0.74819 0.33179 0.82177 0.0
H3156 H 0.75102 0.35921 0.83834 0.0
N3157 N 0.78077 0.29955 0.8266 0.0
C3158 C 0.77323 0.3151 0.82986 0.0
C3159 C 0.79826 0.3283 0.85607 0.0
C3160 C 0.78193 0.33001 0.84447 0.0
C3161 C 0.7958 0.29723 0.83898 0.0
C3162 C 0.80501 0.31169 0.85355 0.0
O3163 O 0.78337 0.24758 0.75219 0.0
O3164 O 0.77726 0.26326 0.77753 0.0
O3165 O 0.75786 0.26623 0.82756 0.0
O3166 O 0.73915 0.25603 0.80069 0.0
O3167 O 0.7656 0.28244 0.74657 0.0
O3168 O 0.74728 0.26959 0.77034 0.0
O3169 O 0.76972 0.30322 0.78644 0.0
O3170 O 0.79654 0.29637 0.77809 0.0
O3171 O 0.79506 0.29967 0.7323 0.0
O3172 O 0.8218 0.29225 0.74125 0.0
O3173 O 0.79396 0.26852 0.80579 0.0
O3174 O 0.81295 0.27975 0.78172 0.0
C3175 C 0.77543 0.24681 0.76789 0.0
C3176 C 0.74919 0.27606 0.75307 0.0
C3177 C 0.73847 0.23643 0.82655 0.0
C3178 C 0.74001 0.21786 0.85383 0.0
C3179 C 0.72355 0.20343 0.822 0.0
C3180 C 0.72759 0.22063 0.81455 0.0
C3181 C 0.7298 0.20199 0.84158 0.0
C3182 C 0.74439 0.23495 0.84629 0.0
C3183 C 0.74248 0.25491 0.81945 0.0
C3184 C 0.77394 0.34599 0.84724 0.0
C3185 C 0.7571 0.34687 0.83593 0.0
H3186 H 0.8054 0.33945 0.86741 0.0
C3187 C 0.7852 0.30805 0.77873 0.0
C3188 C 0.81059 0.27298 0.7989 0.0
C3189 C 0.81649 0.3003 0.70921 0.0
C3190 C 0.81442 0.3129 0.67803 0.0
C3191 C 0.82425 0.2832 0.68 0.0
C3192 C 0.82252 0.28475 0.70011 0.0
C3193 C 0.8201 0.29717 0.66891 0.0
C3194 C 0.81265 0.3144 0.69816 0.0
C3195 C 0.81273 0.3015 0.72975 0.0
H3196 H 0.71543 0.19122 0.81262 0.0
H3197 H 0.72244 0.22149 0.7994 0.0
H3198 H 0.72624 0.18869 0.84731 0.0
H3199 H 0.75205 0.2472 0.85602 0.0
H3200 H 0.82877 0.27114 0.67301 0.0
H3201 H 0.82578 0.27376 0.70841 0.0
H3202 H 0.82158 0.29586 0.65333 0.0
H3203 H 0.80784 0.32634 0.70514 0.0
C3204 C 0.83747 0.81239 0.8056 0.0
C3205 C 0.8563 0.8238 0.78047 0.0
C3206 C 0.83864 0.81673 0.78641 0.0
C3207 C 0.87251 0.82737 0.7942 0.0
C3208 C 0.85388 0.81557 0.81926 0.0
C3209 C 0.87131 0.82324 0.81351 0.0
N3210 N 0.8204 0.80491 0.81085 0.0
C3211 C 0.81881 0.80115 0.82977 0.0
C3212 C 0.85232 0.81108 0.8384 0.0
C3213 C 0.8347 0.8039 0.84368 0.0
Gd3214 Gd 0.77006 0.75338 0.76612 0.0
Gd3215 Gd 0.79459 0.80399 0.78704 0.0
N3216 N 0.8227 0.81327 0.77335 0.0
C3217 C 0.85724 0.82681 0.7608 0.0
C3218 C 0.82368 0.81581 0.75405 0.0
C3219 C 0.84088 0.82257 0.7475 0.0
H3220 H 0.81146 0.8123 0.74347 0.0
H3221 H 0.8415 0.82448 0.73215 0.0
H3222 H 0.75141 0.73873 0.8058 0.0
H3223 H 0.80531 0.79702 0.83467 0.0
H3224 H 0.72023 0.72509 0.81474 0.0
H3225 H 0.87056 0.83207 0.75566 0.0
H3226 H 0.88613 0.83299 0.78992 0.0
H3227 H 0.76744 0.74236 0.71742 0.0
H3228 H 0.86459 0.81338 0.8493 0.0
H3229 H 0.83327 0.80091 0.85862 0.0
H3230 H 0.67979 0.71451 0.75344 0.0
H3231 H 0.88401 0.82587 0.82386 0.0
H3232 H 0.70952 0.72136 0.69485 0.0
H3233 H 0.7428 0.73029 0.68913 0.0
N3234 N 0.74802 0.74134 0.73851 0.0
C3235 C 0.73005 0.73541 0.74213 0.0
C3236 C 0.75286 0.73875 0.71991 0.0
C3237 C 0.72021 0.72689 0.70723 0.0
C3238 C 0.73899 0.73184 0.70394 0.0
C3239 C 0.7156 0.72813 0.72655 0.0
H3240 H 0.68596 0.71595 0.71903 0.0
N3241 N 0.74118 0.74015 0.77606 0.0
C3242 C 0.72653 0.73465 0.76152 0.0
C3243 C 0.70619 0.7236 0.78531 0.0
C3244 C 0.70854 0.72651 0.76581 0.0
C3245 C 0.73935 0.73582 0.79475 0.0
C3246 C 0.72175 0.72795 0.79978 0.0
O3247 O 0.81281 0.78189 0.78035 0.0
O3248 O 0.79616 0.76547 0.75243 0.0
O3249 O 0.78951 0.73701 0.77759 0.0
O3250 O 0.76631 0.72407 0.75505 0.0
O3251 O 0.78216 0.80412 0.75541 0.0
O3252 O 0.77241 0.77277 0.74202 0.0
O3253 O 0.75033 0.7691 0.7818 0.0
O3254 O 0.76236 0.7999 0.77884 0.0
O3255 O 0.79741 0.83374 0.78451 0.0
O3256 O 0.79531 0.82364 0.8128 0.0
O3257 O 0.78402 0.75866 0.79777 0.0
O3258 O 0.77918 0.78754 0.80841 0.0
C3259 C 0.81257 0.77236 0.76292 0.0
C3260 C 0.7756 0.79099 0.74038 0.0
C3261 C 0.79368 0.71203 0.75546 0.0
C3262 C 0.80656 0.68406 0.75193 0.0
C3263 C 0.8159 0.7089 0.73202 0.0
C3264 C 0.80389 0.71922 0.74076 0.0
C3265 C 0.8174 0.69134 0.73771 0.0
C3266 C 0.79493 0.69455 0.76083 0.0
C3267 C 0.78141 0.72207 0.76561 0.0
C3268 C 0.69378 0.72055 0.75041 0.0
C3269 C 0.6973 0.72137 0.7308 0.0
H3270 H 0.69261 0.71725 0.78917 0.0
C3271 C 0.74823 0.78657 0.78181 0.0
C3272 C 0.78035 0.77048 0.81174 0.0
C3273 C 0.7799 0.84814 0.80664 0.0
C3274 C 0.76063 0.87001 0.79688 0.0
C3275 C 0.75658 0.85629 0.82713 0.0
C3276 C 0.7707 0.84633 0.82364 0.0
C3277 C 0.75162 0.86823 0.81386 0.0
C3278 C 0.77467 0.85997 0.79325 0.0
C3279 C 0.79481 0.8377 0.80283 0.0
H3280 H 0.82402 0.7145 0.72086 0.0
H3281 H 0.80254 0.73263 0.73613 0.0
H3282 H 0.82677 0.68343 0.73098 0.0
H3283 H 0.78698 0.68917 0.77229 0.0
H3284 H 0.7496 0.85488 0.84023 0.0
H3285 H 0.77442 0.83727 0.83427 0.0
H3286 H 0.74085 0.87616 0.81686 0.0
H3287 H 0.78176 0.86174 0.78023 0.0
C3288 C 0.49473 0.47678 0.48972 0.0
C3289 C 0.48398 0.45606 0.51353 0.0
C3290 C 0.49142 0.47411 0.50893 0.0
C3291 C 0.48014 0.44073 0.49867 0.0
C3292 C 0.49062 0.46143 0.47473 0.0
C3293 C 0.48342 0.44341 0.47933 0.0
N3294 N 0.5018 0.49438 0.48569 0.0
C3295 C 0.50428 0.49769 0.46684 0.0
C3296 C 0.49369 0.46468 0.45549 0.0
C3297 C 0.50043 0.4829 0.45152 0.0
Gd3298 Gd 0.55729 0.53713 0.53859 0.0
Gd3299 Gd 0.50736 0.51816 0.51251 0.0
N3300 N 0.4955 0.48919 0.5231 0.0
C3301 C 0.48032 0.454 0.53288 0.0
C3302 C 0.49053 0.48744 0.54152 0.0
C3303 C 0.48335 0.46982 0.54686 0.0
H3304 H 0.49135 0.49958 0.55192 0.0
H3305 H 0.47978 0.46852 0.56163 0.0
H3306 H 0.57723 0.55064 0.49894 0.0
H3307 H 0.50882 0.5118 0.46346 0.0
H3308 H 0.59247 0.57987 0.4876 0.0
H3309 H 0.47462 0.44037 0.53701 0.0
H3310 H 0.47443 0.42677 0.50194 0.0
H3311 H 0.55059 0.54843 0.58583 0.0
H3312 H 0.49066 0.45326 0.44355 0.0
H3313 H 0.50252 0.4856 0.43662 0.0
H3314 H 0.59561 0.6267 0.54257 0.0
H3315 H 0.4802 0.43146 0.46799 0.0
H3316 H 0.57174 0.60722 0.60116 0.0
H3317 H 0.55633 0.57665 0.61007 0.0
N3318 N 0.56156 0.56296 0.5629 0.0
C3319 C 0.57054 0.57953 0.55784 0.0
C3320 C 0.5567 0.56174 0.58146 0.0
C3321 C 0.56901 0.59489 0.59032 0.0
C3322 C 0.56023 0.57768 0.59538 0.0
C3323 C 0.57436 0.59598 0.57141 0.0
H3324 H 0.58634 0.62573 0.57592 0.0
N3325 N 0.57169 0.56404 0.52599 0.0
C3326 C 0.57565 0.5801 0.53887 0.0
C3327 C 0.59049 0.59705 0.51435 0.0
C3328 C 0.5849 0.5971 0.53324 0.0
C3329 C 0.57829 0.56368 0.50813 0.0
C3330 C 0.58742 0.5802 0.50187 0.0
O3331 O 0.52643 0.49639 0.51584 0.0
O3332 O 0.5458 0.50704 0.54454 0.0
O3333 O 0.58318 0.52883 0.53184 0.0
O3334 O 0.5797 0.53869 0.56233 0.0
O3335 O 0.50991 0.53054 0.54515 0.0
O3336 O 0.53758 0.52378 0.55808 0.0
O3337 O 0.53844 0.55906 0.53451 0.0
O3338 O 0.51824 0.54831 0.50627 0.0
O3339 O 0.48182 0.52462 0.52249 0.0
O3340 O 0.48291 0.5165 0.49142 0.0
O3341 O 0.55418 0.52363 0.50666 0.0
O3342 O 0.52737 0.53135 0.49255 0.0
C3343 C 0.53672 0.493 0.5315 0.0
C3344 C 0.52086 0.52704 0.56021 0.0
C3345 C 0.60919 0.5297 0.55703 0.0
C3346 C 0.63463 0.51348 0.55228 0.0
C3347 C 0.63565 0.53384 0.58258 0.0
C3348 C 0.61832 0.53784 0.57573 0.0
C3349 C 0.64379 0.52157 0.57092 0.0
C3350 C 0.61752 0.51769 0.54527 0.0
C3351 C 0.59037 0.53238 0.55033 0.0
C3352 C 0.58857 0.61351 0.54668 0.0
C3353 C 0.58333 0.61295 0.5657 0.0
H3354 H 0.59768 0.60981 0.50949 0.0
C3355 C 0.52801 0.56243 0.51887 0.0
C3356 C 0.54402 0.52739 0.49121 0.0
C3357 C 0.46307 0.53699 0.49971 0.0
C3358 C 0.43525 0.54995 0.50194 0.0
C3359 C 0.45974 0.56464 0.4841 0.0
C3360 C 0.47027 0.55116 0.48858 0.0
C3361 C 0.44226 0.56414 0.49086 0.0
C3362 C 0.44561 0.53645 0.50634 0.0
C3363 C 0.47316 0.52242 0.50463 0.0
H3364 H 0.64265 0.54007 0.597 0.0
H3365 H 0.612 0.5471 0.5851 0.0
H3366 H 0.65713 0.51837 0.57638 0.0
H3367 H 0.61048 0.51112 0.53091 0.0
H3368 H 0.46498 0.57538 0.47528 0.0
H3369 H 0.48382 0.5517 0.48329 0.0
H3370 H 0.43419 0.57464 0.48737 0.0
H3371 H 0.44007 0.52551 0.51497 0.0
C3372 C 0.07449 0.56596 0.99416 0.0
C3373 C 0.09267 0.58772 0.02157 0.0
C3374 C 0.08092 0.5703 0.01429 0.0
C3375 C 0.09795 0.60071 0.00845 0.0
C3376 C 0.07979 0.57901 0.98102 0.0
C3377 C 0.09155 0.59637 0.98827 0.0
N3378 N 0.06286 0.54916 0.9875 0.0
C3379 C 0.05662 0.54422 0.96797 0.0
C3380 C 0.07306 0.57424 0.96097 0.0
C3381 C 0.06148 0.55676 0.95442 0.0
Gd3382 Gd 0.00739 0.52606 0.03439 0.0
Gd3383 Gd 0.05641 0.52951 0.01158 0.0
N3384 N 0.07497 0.55778 0.02685 0.0
C3385 C 0.09867 0.59159 0.04184 0.0
C3386 C 0.08131 0.56112 0.04646 0.0
C3387 C 0.09311 0.57816 0.0543 0.0
H3388 H 0.07736 0.55064 0.056 0.0
H3389 H 0.09791 0.58093 0.06993 0.0
H3390 H 0.98213 0.50644 0.99165 0.0
H3391 H 0.0481 0.53052 0.96278 0.0
H3392 H 0.95959 0.47705 0.97856 0.0
H3393 H 0.10771 0.60483 0.048 0.0
H3394 H 0.10697 0.61419 0.01377 0.0
H3395 H 0.01789 0.52435 0.08297 0.0
H3396 H 0.07681 0.58391 0.95041 0.0
H3397 H 0.05641 0.55288 0.93893 0.0
H3398 H 0.9527 0.44354 0.03481 0.0
H3399 H 0.09575 0.60658 0.97838 0.0
H3400 H 0.98784 0.47213 0.09661 0.0
H3401 H 0.01009 0.50229 0.1071 0.0
N3402 N 1.00118 0.50636 0.05876 0.0
C3403 C 0.98842 0.49016 0.0528 0.0
C3404 C 0.00867 0.51097 0.07805 0.0
C3405 C 0.9914 0.48166 0.08588 0.0
C3406 C 1.00404 0.49863 0.09184 0.0
C3407 C 0.98333 0.47728 0.06619 0.0
H3408 H 0.96637 0.4504 0.0696 0.0
N3409 N 0.98629 0.4987 0.02039 0.0
C3410 C 0.9806 0.48629 0.03312 0.0
C3411 C 0.96024 0.46605 0.00647 0.0
C3412 C 0.96766 0.46946 0.0264 0.0
C3413 C 0.97854 0.49588 1.0012 0.0
C3414 C 0.96558 0.4794 0.99387 0.0
O3415 O 0.04485 0.55705 0.01806 0.0
O3416 O 0.02868 0.55285 0.04474 0.0
O3417 O 0.98332 0.53938 0.02502 0.0
O3418 O 0.9909 0.53548 0.05571 0.0
O3419 O 0.05243 0.51677 0.03933 0.0
O3420 O 0.03408 0.53427 0.05485 0.0
O3421 O 0.01616 0.49786 0.02575 0.0
O3422 O 0.03834 0.49983 0.00356 0.0
O3423 O 0.08251 0.52255 0.02369 0.0
O3424 O 0.07536 0.51995 0.99209 0.0
O3425 O 0.01073 0.53612 0.00484 0.0
O3426 O 0.03058 0.51923 0.99031 0.0
C3427 C 0.03767 0.56403 0.03349 0.0
C3428 C 0.0465 0.52356 0.05523 0.0
C3429 C 0.9636 0.54898 0.0504 0.0
C3430 C 0.93726 0.56535 0.04664 0.0
C3431 C 0.94545 0.55378 0.07764 0.0
C3432 C 0.96002 0.5469 0.0699 0.0
C3433 C 0.93415 0.56287 0.06617 0.0
C3434 C 0.952 0.55814 0.03864 0.0
C3435 C 0.97945 0.54128 0.04318 0.0
C3436 C 0.96261 0.45658 0.03971 0.0
C3437 C 0.97041 0.46048 0.05953 0.0
H3438 H 0.95023 0.45327 1.00073 0.0
C3439 C 0.0259 0.4899 0.0132 0.0
C3440 C 0.01634 0.52775 0.98938 0.0
C3441 C 0.09359 0.49927 0.00485 0.0
C3442 C 0.11873 0.48146 0.00824 0.0
C3443 C 0.08618 0.46529 1.00024 0.0
C3444 C 0.08037 0.48239 1.00061 0.0
C3445 C 0.10518 0.46477 0.00403 0.0
C3446 C 0.11287 0.49879 0.00853 0.0
C3447 C 0.08723 0.51726 0.00653 0.0
H3448 H 0.94284 0.55197 0.09262 0.0
H3449 H 0.96847 0.53983 0.07931 0.0
H3450 H 0.9227 0.56777 0.07258 0.0
H3451 H 0.95454 0.55985 0.02361 0.0
H3452 H 0.07591 0.45238 0.99719 0.0
H3453 H 0.06554 0.48243 0.99779 0.0
H3454 H 0.10933 0.45127 0.0035 0.0
H3455 H 0.12319 0.51178 0.01196 0.0
H3456 H 1.00394 0.15019 0.96029 0.0
H3457 H 0.02991 0.18528 0.0145 0.0
H3458 H 0.03594 0.15737 0.02901 0.0
H3459 H 0.98123 0.11015 0.98416 0.0
H3460 H 0.98542 0.09311 0.96511 0.0
H3461 H 0.98275 0.11601 0.95942 0.0
H3462 H 0.01496 0.11928 0.94565 0.0
H3463 H 0.0175 0.09662 0.95238 0.0
H3464 H 0.03545 0.11701 0.96151 0.0
H3465 H 0.03938 0.12547 0.03848 0.0
H3466 H 0.0396 0.09249 0.04208 0.0
H3467 H 0.01161 0.07599 0.98243 0.0
C3468 C 0.01079 0.1521 0.97527 0.0
C3469 C 0.01662 0.17058 0.9859 0.0
C3470 C 0.02562 0.17183 0.0055 0.0
C3471 C 0.02902 0.15584 0.01408 0.0
C3472 C 0.02334 0.13812 0.00321 0.0
C3473 C 0.01435 0.13607 0.98422 0.0
C3474 C 0.00982 0.11518 0.97591 0.0
C3475 C 0.98851 0.10822 0.97087 0.0
C3476 C 0.02004 0.11183 0.95778 0.0
C3477 C 0.01755 0.10588 0.99317 0.0
C3478 C 0.02532 0.11954 0.00872 0.0
C3479 C 0.03338 0.11475 0.0263 0.0
C3480 C 0.03358 0.09575 0.02816 0.0
C3481 C 0.02597 0.08115 0.01257 0.0
C3482 C 0.01766 0.08652 0.99477 0.0
H3483 H 0.14898 0.76733 0.18824 0.0
H3484 H 0.16629 0.82407 0.17413 0.0
H3485 H 0.19672 0.82676 0.19425 0.0
H3486 H 0.1715 0.77557 0.23874 0.0
H3487 H 0.17884 0.75334 0.23804 0.0
H3488 H 0.15814 0.75556 0.22251 0.0
H3489 H 0.1721 0.74317 0.19179 0.0
H3490 H 0.19282 0.74092 0.20726 0.0
H3491 H 0.19499 0.75471 0.18702 0.0
H3492 H 0.22619 0.82329 0.21491 0.0
H3493 H 0.25183 0.81419 0.23569 0.0
H3494 H 0.21622 0.76016 0.23824 0.0
C3495 C 0.15916 0.78033 0.18929 0.0
C3496 C 0.15478 0.79557 0.1795 0.0
C3497 C 0.16876 0.81226 0.18159 0.0
C3498 C 0.1863 0.81391 0.19295 0.0
C3499 C 0.19005 0.79877 0.2024 0.0
C3500 C 0.17688 0.78228 0.20077 0.0
C3501 C 0.18468 0.76818 0.21256 0.0
C3502 C 0.17257 0.76285 0.22894 0.0
C3503 C 0.18624 0.75071 0.19884 0.0
C3504 C 0.20414 0.7794 0.22118 0.0
C3505 C 0.20696 0.79695 0.21486 0.0
C3506 C 0.22403 0.80964 0.22005 0.0
C3507 C 0.23857 0.80433 0.23189 0.0
C3508 C 0.23611 0.78658 0.23888 0.0
C3509 C 0.2185 0.77399 0.23349 0.0
H3510 H 0.50324 0.87758 0.50544 0.0
H3511 H 0.53253 0.8769 0.45349 0.0
H3512 H 0.53719 0.91119 0.45593 0.0
H3513 H 0.4797 0.91648 0.49529 0.0
H3514 H 0.48277 0.92721 0.5205 0.0
H3515 H 0.48113 0.90226 0.51512 0.0
H3516 H 0.51298 0.90485 0.5365 0.0
H3517 H 0.51456 0.92977 0.54199 0.0
H3518 H 0.53332 0.92097 0.53142 0.0
H3519 H 0.53931 0.9455 0.46328 0.0
H3520 H 0.53946 0.97818 0.47576 0.0
H3521 H 0.50928 0.95954 0.52373 0.0
C3522 C 0.51056 0.88464 0.49453 0.0
C3523 C 0.51767 0.87407 0.47928 0.0
C3524 C 0.52721 0.88424 0.4655 0.0
C3525 C 0.52984 0.9039 0.46668 0.0
C3526 C 0.52293 0.91379 0.48179 0.0
C3527 C 0.51352 0.90464 0.49559 0.0
C3528 C 0.50808 0.91922 0.51058 0.0
C3529 C 0.48664 0.9161 0.51036 0.0
C3530 C 0.51781 0.91866 0.53136 0.0
C3531 C 0.51571 0.93778 0.50281 0.0
C3532 C 0.52423 0.93407 0.48617 0.0
C3533 C 0.5327 0.94852 0.47632 0.0
C3534 C 0.5328 0.9672 0.48365 0.0
C3535 C 0.52456 0.97183 0.50086 0.0
C3536 C 0.51559 0.9567 0.51043 0.0
H3537 H 0.47282 0.26295 0.68609 0.0
H3538 H 0.46282 0.31047 0.65641 0.0
H3539 H 0.43393 0.31047 0.67202 0.0
H3540 H 0.42524 0.23873 0.67997 0.0
H3541 H 0.42647 0.23025 0.7037 0.0
H3542 H 0.4473 0.23503 0.69161 0.0
H3543 H 0.46426 0.25748 0.72241 0.0
H3544 H 0.44337 0.2529 0.73452 0.0
H3545 H 0.45392 0.27664 0.73168 0.0
H3546 H 0.40523 0.30492 0.69034 0.0
H3547 H 0.37787 0.29209 0.70696 0.0
H3548 H 0.40517 0.24712 0.72306 0.0
C3549 C 0.46461 0.27338 0.6828 0.0
C3550 C 0.47054 0.28691 0.67009 0.0
C3551 C 0.45915 0.30027 0.66643 0.0
C3552 C 0.44254 0.30033 0.67519 0.0
C3553 C 0.43723 0.28692 0.68765 0.0
C3554 C 0.44785 0.27359 0.69134 0.0
C3555 C 0.43849 0.26014 0.70455 0.0
C3556 C 0.43411 0.23984 0.69434 0.0
C3557 C 0.45074 0.2619 0.72447 0.0
C3558 C 0.42062 0.26755 0.70704 0.0
C3559 C 0.42039 0.28331 0.69761 0.0
C3560 C 0.40531 0.29261 0.69781 0.0
C3561 C 0.38986 0.28531 0.7074 0.0
C3562 C 0.38938 0.26867 0.71636 0.0
C3563 C 0.40517 0.25991 0.71641 0.0
H3564 H 0.03407 0.85741 0.64994 0.0
H3565 H 0.0174 0.81657 0.59799 0.0
H3566 H 0.01934 0.84226 0.57689 0.0
H3567 H 0.01041 0.89386 0.63266 0.0
H3568 H 0.02934 0.9128 0.64349 0.0
H3569 H 0.02507 0.89133 0.65455 0.0
H3570 H 0.05948 0.88781 0.65215 0.0
H3571 H 0.06385 0.90929 0.64119 0.0
H3572 H 0.06836 0.88803 0.62861 0.0
H3573 H 0.02397 0.87291 0.56128 0.0
H3574 H 0.03382 0.90504 0.55257 0.0
H3575 H 0.04871 0.92587 0.6146 0.0
C3576 C 0.03058 0.85394 0.63414 0.0
C3577 C 0.02532 0.83499 0.62558 0.0
C3578 C 0.0213 0.83099 0.60482 0.0
C3579 C 0.02233 0.84551 0.59275 0.0
C3580 C 0.02763 0.86408 0.60158 0.0
C3581 C 0.03186 0.86831 0.62182 0.0
C3582 C 0.03848 0.88932 0.62752 0.0
C3583 C 0.02502 0.89729 0.64031 0.0
C3584 C 0.05874 0.89387 0.63798 0.0
C3585 C 0.03748 0.89624 0.60739 0.0
C3586 C 0.03091 0.88152 0.59261 0.0
C3587 C 0.02908 0.88451 0.57279 0.0
C3588 C 0.03458 0.90288 0.56796 0.0
C3589 C 0.04209 0.9181 0.58283 0.0
C3590 C 0.04312 0.9146 0.60282 0.0
H3591 H 0.42813 0.77483 0.79418 0.0
H3592 H 0.43795 0.82021 0.84224 0.0
H3593 H 0.40437 0.8214 0.83812 0.0
H3594 H 0.39249 0.7932 0.76439 0.0
H3595 H 0.37809 0.77051 0.75546 0.0
H3596 H 0.40307 0.77285 0.76178 0.0
H3597 H 0.39702 0.74799 0.78582 0.0
H3598 H 0.37203 0.74562 0.77953 0.0
H3599 H 0.38229 0.75133 0.80491 0.0
H3600 H 0.36951 0.81821 0.82927 0.0
H3601 H 0.33583 0.81034 0.81641 0.0
H3602 H 0.34656 0.76704 0.77364 0.0
C3603 C 0.42322 0.78497 0.80389 0.0
C3604 C 0.43618 0.79762 0.8185 0.0
C3605 C 0.42879 0.81062 0.83071 0.0
C3606 C 0.40955 0.81135 0.82856 0.0
C3607 C 0.39732 0.799 0.81402 0.0
C3608 C 0.40378 0.78602 0.80182 0.0
C3609 C 0.38733 0.77462 0.78719 0.0
C3610 C 0.39043 0.77799 0.76594 0.0
C3611 C 0.38451 0.75364 0.78951 0.0
C3612 C 0.37071 0.78291 0.79348 0.0
C3613 C 0.37696 0.79712 0.80887 0.0
C3614 C 0.36454 0.80717 0.81714 0.0
C3615 C 0.34535 0.80272 0.80957 0.0
C3616 C 0.33833 0.78831 0.79377 0.0
C3617 C 0.35132 0.77814 0.78576 0.0
H3618 H 0.51395 0.16194 0.09359 0.0
H3619 H 0.52139 0.14329 0.15132 0.0
H3620 H 0.52351 0.11208 0.1358 0.0
H3621 H 0.48588 0.11704 0.0682 0.0
H3622 H 0.49661 0.11869 0.04578 0.0
H3623 H 0.49485 0.13972 0.06102 0.0
H3624 H 0.53081 0.15142 0.06303 0.0
H3625 H 0.5326 0.13041 0.04781 0.0
H3626 H 0.54644 0.13675 0.07162 0.0
H3627 H 0.52431 0.08268 0.11471 0.0
H3628 H 0.52585 0.0572 0.08943 0.0
H3629 H 0.51963 0.09378 0.0442 0.0
C3630 C 0.51587 0.15123 0.10293 0.0
C3631 C 0.51759 0.15532 0.12386 0.0
C3632 C 0.52027 0.14081 0.1354 0.0
C3633 C 0.52138 0.1229 0.12668 0.0
C3634 C 0.51985 0.1194 0.10622 0.0
C3635 C 0.51723 0.13309 0.09438 0.0
C3636 C 0.51661 0.1254 0.0727 0.0
C3637 C 0.49734 0.12521 0.06125 0.0
C3638 C 0.53257 0.13667 0.06323 0.0
C3639 C 0.51953 0.10543 0.07436 0.0
C3640 C 0.52106 0.10233 0.09388 0.0
C3641 C 0.52329 0.08502 0.09938 0.0
C3642 C 0.52417 0.07052 0.08469 0.0
C3643 C 0.52324 0.07318 0.06442 0.0
C3644 C 0.52072 0.09104 0.05933 0.0
H3645 H 0.15343 0.28764 0.33872 0.0
H3646 H 0.12872 0.3026 0.28399 0.0
H3647 H 0.15766 0.29999 0.26914 0.0
H3648 H 0.20088 0.31369 0.33664 0.0
H3649 H 0.21259 0.29653 0.34675 0.0
H3650 H 0.18969 0.29878 0.35317 0.0
H3651 H 0.17712 0.26351 0.34117 0.0
H3652 H 0.20002 0.26126 0.33473 0.0
H3653 H 0.17971 0.25435 0.31645 0.0
H3654 H 0.18909 0.29411 0.25909 0.0
H3655 H 0.22126 0.28901 0.25603 0.0
H3656 H 0.22828 0.28067 0.31765 0.0
C3657 C 0.15404 0.2903 0.32358 0.0
C3658 C 0.13833 0.29537 0.31266 0.0
C3659 C 0.14023 0.29887 0.29292 0.0
C3660 C 0.15673 0.29731 0.28424 0.0
C3661 C 0.17182 0.2924 0.29533 0.0
C3662 C 0.17077 0.28916 0.31468 0.0
C3663 C 0.18946 0.28475 0.32341 0.0
C3664 C 0.1987 0.29931 0.34104 0.0
C3665 C 0.18639 0.26478 0.3293 0.0
C3666 C 0.20116 0.28621 0.30607 0.0
C3667 C 0.19045 0.29023 0.2899 0.0
C3668 C 0.1976 0.29125 0.27181 0.0
C3669 C 0.21601 0.2883 0.27019 0.0
C3670 C 0.22773 0.28482 0.28659 0.0
C3671 C 0.22001 0.28376 0.30486 0.0
H3672 H 0.98328 1.0 0.15824 0.0
H3673 H 0.9697 0.05517 0.16858 0.0
H3674 H 0.98052 0.06278 0.13695 0.0
H3675 H 0.02577 0.01505 0.13631 0.0
H3676 H 0.02208 0.99445 0.11848 0.0
H3677 H 0.01283 0.99302 0.14173 0.0
H3678 H 0.97946 0.97967 0.12329 0.0
H3679 H 0.98874 0.98109 0.10004 0.0
H3680 H 0.96967 0.99258 0.10526 0.0
H3681 H 0.99109 0.06389 0.10299 0.0
H3682 H 1.00369 0.05932 0.071 0.0
H3683 H 0.01328 0.00493 0.08389 0.0
C3684 C 0.98252 0.01365 0.1538 0.0
C3685 C 0.97558 0.02697 0.16602 0.0
C3686 C 0.97507 0.04476 0.15967 0.0
C3687 C 0.98109 0.04919 0.14163 0.0
C3688 C 0.98782 0.0358 0.12997 0.0
C3689 C 0.98879 0.01845 0.13588 0.0
C3690 C 0.99717 0.00684 0.12077 0.0
C3691 C 0.01556 1.00207 0.12987 0.0
C3692 C 0.98291 0.98899 0.11182 0.0
C3693 C 1.00079 0.0204 0.10557 0.0
C3694 C 0.99494 0.03689 0.11096 0.0
C3695 C 0.99586 0.05108 0.09872 0.0
C3696 C 1.00293 0.04836 0.08055 0.0
C3697 C 0.00944 0.0318 0.07498 0.0
C3698 C 0.0085 0.01777 0.0878 0.0
H3699 H 0.28912 0.69994 0.45928 0.0
H3700 H 0.24418 0.65127 0.44285 0.0
H3701 H 0.23584 0.66299 0.41138 0.0
H3702 H 0.26534 0.7318 0.44496 0.0
H3703 H 0.2838 0.74669 0.43505 0.0
H3704 H 0.28966 0.73254 0.4537 0.0
H3705 H 0.31021 0.71702 0.43103 0.0
H3706 H 0.30471 0.73142 0.41233 0.0
H3707 H 0.30022 0.70628 0.40655 0.0
H3708 H 0.2291 0.68197 0.3849 0.0
H3709 H 0.22431 0.70737 0.36491 0.0
H3710 H 0.27254 0.74445 0.39928 0.0
C3711 C 0.27808 0.69145 0.44861 0.0
C3712 C 0.26734 0.67472 0.45318 0.0
C3713 C 0.25256 0.66412 0.43936 0.0
C3714 C 0.24782 0.67059 0.42147 0.0
C3715 C 0.25811 0.6876 0.41768 0.0
C3716 C 0.27308 0.69783 0.43074 0.0
C3717 C 0.28018 0.7168 0.42435 0.0
C3718 C 0.27969 0.73289 0.44048 0.0
C3719 C 0.30001 0.71794 0.4182 0.0
C3720 C 0.26586 0.71623 0.4067 0.0
C3721 C 0.25372 0.699 0.40266 0.0
C3722 C 0.23869 0.69541 0.38768 0.0
C3723 C 0.23598 0.70987 0.37655 0.0
C3724 C 0.24795 0.72769 0.3809 0.0
C3725 C 0.26318 0.73087 0.39594 0.0
H3726 H 0.60677 0.0566 0.6573 0.0
H3727 H 0.63387 0.00984 0.64274 0.0
H3728 H 0.61616 1.00395 0.60948 0.0
H3729 H 0.56207 0.0356 0.63359 0.0
H3730 H 0.55657 0.05646 0.62454 0.0
H3731 H 0.57269 0.05838 0.6466 0.0
H3732 H 0.59816 0.08018 0.63125 0.0
H3733 H 0.58204 0.0784 0.60915 0.0
H3734 H 0.60474 0.07236 0.60769 0.0
H3735 H 0.59459 1.00175 0.57925 0.0
H3736 H 0.56998 1.00349 0.55267 0.0
H3737 H 0.55637 0.05149 0.58662 0.0
C3738 C 0.60922 0.04541 0.64691 0.0
C3739 C 0.62158 0.03364 0.6524 0.0
C3740 C 0.62429 0.01888 0.6387 0.0
C3741 C 0.61442 0.0155 0.61982 0.0
C3742 C 0.60202 0.02709 0.61497 0.0
C3743 C 0.59941 0.0418 0.628 0.0
C3744 C 0.58444 0.05142 0.6193 0.0
C3745 C 0.56797 0.05039 0.63175 0.0
C3746 C 0.59285 0.0718 0.6167 0.0
C3747 C 0.5787 0.03942 0.59962 0.0
C3748 C 0.58924 0.02566 0.59737 0.0
C3749 C 0.58639 0.0126 0.58066 0.0
C3750 C 0.57244 0.01373 0.56567 0.0
C3751 C 0.56159 0.02779 0.56764 0.0
C3752 C 0.5646 0.04068 0.58486 0.0
H3753 H 0.28575 0.34834 0.91733 0.0
H3754 H 0.28987 0.29722 0.94303 0.0
H3755 H 0.28982 0.28068 0.90994 0.0
H3756 H 0.2546 0.32696 0.87411 0.0
H3757 H 0.26563 0.34181 0.85746 0.0
H3758 H 0.26669 0.35055 0.8831 0.0
H3759 H 0.3029 0.35878 0.88674 0.0
H3760 H 0.30228 0.35068 0.86097 0.0
H3761 H 0.31581 0.34105 0.87929 0.0
H3762 H 0.29036 0.26971 0.87431 0.0
H3763 H 0.2893 0.26451 0.83817 0.0
H3764 H 0.28341 0.32206 0.83464 0.0
C3765 C 0.28647 0.33362 0.91599 0.0
C3766 C 0.28793 0.32416 0.93295 0.0
C3767 C 0.28906 0.30493 0.93043 0.0
C3768 C 0.28896 0.29535 0.91164 0.0
C3769 C 0.28772 0.30511 0.89533 0.0
C3770 C 0.28643 0.3238 0.89725 0.0
C3771 C 0.28533 0.33093 0.8772 0.0
C3772 C 0.26697 0.33797 0.87269 0.0
C3773 C 0.3026 0.34627 0.87599 0.0
C3774 C 0.28567 0.3132 0.86373 0.0
C3775 C 0.28741 0.29858 0.87459 0.0
C3776 C 0.28884 0.28101 0.86565 0.0
C3777 C 0.28832 0.27822 0.84509 0.0
C3778 C 0.28614 0.29282 0.83353 0.0
C3779 C 0.28483 0.31056 0.84306 0.0
H3780 H 0.99401 0.04373 0.37636 0.0
H3781 H 0.96348 0.98601 0.36445 0.0
H3782 H 0.97189 0.98147 0.39886 0.0
H3783 H 0.03225 0.03505 0.40954 0.0
H3784 H 0.03427 0.05619 0.42625 0.0
H3785 H 0.02562 0.05554 0.40065 0.0
H3786 H 0.99544 0.0658 0.41066 0.0
H3787 H 1.00402 0.06644 0.4363 0.0
H3788 H 0.98141 0.05231 0.42637 0.0
H3789 H 0.98191 0.98302 0.43445 0.0
H3790 H 0.99537 0.98994 0.4691 0.0
H3791 H 0.02221 0.04569 0.45917 0.0
C3792 C 0.98906 0.03018 0.38104 0.0
C3793 C 0.9782 0.01515 0.36745 0.0
C3794 C 0.97208 0.99764 0.37429 0.0
C3795 C 0.97666 0.99494 0.39392 0.0
C3796 C 0.98742 0.00986 0.40682 0.0
C3797 C 0.99368 0.02714 0.40077 0.0
C3798 C 1.00541 0.04057 0.41791 0.0
C3799 C 0.02559 0.04723 0.4133 0.0
C3800 C 0.99601 0.05727 0.42311 0.0
C3801 C 1.00494 0.02797 0.43429 0.0
C3802 C 0.99417 0.01044 0.4275 0.0
C3803 C 0.99075 0.99656 0.43982 0.0
C3804 C 0.99875 1.00052 0.45953 0.0
C3805 C 0.01068 0.01795 0.46687 0.0
C3806 C 0.01353 0.03202 0.45402 0.0
H3807 H 0.26103 0.71016 0.63903 0.0
H3808 H 0.29495 0.67212 0.66092 0.0
H3809 H 0.30048 0.69071 0.69386 0.0
H3810 H 0.29022 0.75148 0.66533 0.0
H3811 H 0.27109 0.7631 0.6699 0.0
H3812 H 0.26888 0.7462 0.64839 0.0
H3813 H 0.23857 0.72709 0.6589 0.0
H3814 H 0.24061 0.74403 0.68035 0.0
H3815 H 0.23918 0.71957 0.68311 0.0
H3816 H 0.30534 0.71534 0.72279 0.0
H3817 H 0.30649 0.743 0.74718 0.0
H3818 H 0.26701 0.76309 0.70754 0.0
C3819 C 0.26931 0.70559 0.6509 0.0
C3820 C 0.27755 0.68979 0.64766 0.0
C3821 C 0.28865 0.68433 0.66327 0.0
C3822 C 0.29182 0.69473 0.68195 0.0
C3823 C 0.28378 0.71048 0.6846 0.0
C3824 C 0.27268 0.71585 0.66957 0.0
C3825 C 0.26646 0.73386 0.67603 0.0
C3826 C 0.27465 0.74958 0.66421 0.0
C3827 C 0.24492 0.73095 0.67451 0.0
C3828 C 0.27541 0.7375 0.6972 0.0
C3829 C 0.28563 0.72405 0.70174 0.0
C3830 C 0.29672 0.7255 0.71975 0.0
C3831 C 0.29701 0.74095 0.73365 0.0
C3832 C 0.28564 0.75405 0.72972 0.0
C3833 C 0.2751 0.75262 0.71114 0.0
H3834 H 0.63608 0.06061 0.85064 0.0
H3835 H 0.60633 1.00347 0.83138 0.0
H3836 H 0.58698 0.00542 0.8588 0.0
H3837 H 0.63432 0.05933 0.90427 0.0
H3838 H 0.63085 0.08315 0.90782 0.0
H3839 H 0.64429 0.07608 0.88879 0.0
H3840 H 0.62234 0.08781 0.86289 0.0
H3841 H 0.6087 0.09469 0.88172 0.0
H3842 H 0.59736 0.07872 0.86035 0.0
H3843 H 0.56893 0.01478 0.88603 0.0
H3844 H 0.55357 0.03081 0.91138 0.0
H3845 H 0.59419 0.08226 0.91119 0.0
C3846 C 0.62566 0.04841 0.85236 0.0
C3847 C 0.6226 0.0319 0.83896 0.0
C3848 C 0.60899 0.01616 0.8417 0.0
C3849 C 0.59793 0.01717 0.85715 0.0
C3850 C 0.60085 0.03395 0.86967 0.0
C3851 C 0.61449 0.04923 0.86753 0.0
C3852 C 0.61386 0.06612 0.88186 0.0
C3853 C 0.6319 0.07148 0.89656 0.0
C3854 C 0.61035 0.08281 0.87105 0.0
C3855 C 0.59715 0.05822 0.89182 0.0
C3856 C 0.59009 0.03954 0.88491 0.0
C3857 C 0.5744 0.02936 0.89166 0.0
C3858 C 0.56575 0.03855 0.90592 0.0
C3859 C 0.57266 0.05774 0.91287 0.0
C3860 C 0.58856 0.06764 0.9058 0.0
H3861 H 0.29631 0.31309 0.13225 0.0
H3862 H 0.26752 0.35943 0.14203 0.0
H3863 H 0.26323 0.35169 0.17552 0.0
H3864 H 0.26676 0.28122 0.15884 0.0
H3865 H 0.28566 0.2711 0.16919 0.0
H3866 H 0.28692 0.28025 0.14588 0.0
H3867 H 0.31888 0.30194 0.15959 0.0
H3868 H 0.3177 0.2928 0.18291 0.0
H3869 H 0.32058 0.31769 0.18194 0.0
H3870 H 0.26228 0.3396 0.2082 0.0
H3871 H 0.26399 0.32316 0.23774 0.0
H3872 H 0.29267 0.28389 0.20751 0.0
C3873 C 0.28918 0.32163 0.14149 0.0
C3874 C 0.28213 0.33684 0.13432 0.0
C3875 C 0.27279 0.34756 0.14694 0.0
C3876 C 0.27036 0.34334 0.16609 0.0
C3877 C 0.27725 0.32824 0.17263 0.0
C3878 C 0.28642 0.31746 0.16075 0.0
C3879 C 0.29211 0.30178 0.17151 0.0
C3880 C 0.28228 0.28244 0.16071 0.0
C3881 C 0.31359 0.30367 0.17414 0.0
C3882 C 0.28481 0.30558 0.19123 0.0
C3883 C 0.27635 0.32097 0.19151 0.0
C3884 C 0.26879 0.32747 0.20811 0.0
C3885 C 0.26984 0.31803 0.22487 0.0
C3886 C 0.27829 0.30211 0.225 0.0
C3887 C 0.28588 0.29586 0.20786 0.0
H3888 H 0.2035 0.98525 0.98259 0.0
H3889 H 0.2054 0.93661 0.01313 0.0
H3890 H 0.17739 0.94149 0.02872 0.0
H3891 H 0.19389 0.01355 0.01903 0.0
H3892 H 0.17741 0.02449 0.0054 0.0
H3893 H 0.19455 0.01475 0.99302 0.0
H3894 H 0.16815 0.99375 0.96802 0.0
H3895 H 0.1508 1.00361 0.98021 0.0
H3896 H 0.14918 0.97857 0.97684 0.0
H3897 H 0.15524 0.95565 0.04656 0.0
H3898 H 0.13774 0.97697 0.06363 0.0
H3899 H 0.14812 0.01539 0.0202 0.0
C3900 C 0.19733 0.9752 0.99181 0.0
C3901 C 0.20606 0.9604 0.9965 0.0
C3902 C 0.19837 0.94775 0.00914 0.0
C3903 C 0.18254 0.95041 0.01801 0.0
C3904 C 0.17446 0.96552 0.01365 0.0
C3905 C 0.18127 0.97748 1.00049 0.0
C3906 C 0.17122 0.99375 1.00002 0.0
C3907 C 0.1851 0.01274 0.00467 0.0
C3908 C 0.15911 0.99233 0.98009 0.0
C3909 C 0.15909 0.99005 0.01634 0.0
C3910 C 0.16087 0.97346 0.02369 0.0
C3911 C 0.15313 0.9683 0.04053 0.0
C3912 C 0.14341 0.98049 0.05021 0.0
C3913 C 0.14161 0.99749 0.04295 0.0
C3914 C 0.14909 1.00215 0.02561 0.0
H3915 H 0.65372 0.61224 0.99467 0.0
H3916 H 0.68756 0.58966 0.03825 0.0
H3917 H 0.65942 0.56754 0.04419 0.0
H3918 H 0.61324 0.60972 0.02089 0.0
H3919 H 0.59624 0.6031 0.99922 0.0
H3920 H 0.61913 0.61686 0.99757 0.0
H3921 H 0.62434 0.59198 0.97013 0.0
H3922 H 0.60144 0.57821 0.97172 0.0
H3923 H 0.62195 0.56785 0.97468 0.0
H3924 H 0.62791 0.54905 0.04693 0.0
H3925 H 0.59457 0.53452 0.04584 0.0
H3926 H 0.58017 0.56764 0.99971 0.0
C3927 C 0.6552 0.60246 0.00526 0.0
C3928 C 0.67291 0.60277 0.01607 0.0
C3929 C 0.67418 0.58988 0.02998 0.0
C3930 C 0.65827 0.57718 0.03339 0.0
C3931 C 0.64105 0.57742 0.02279 0.0
C3932 C 0.63932 0.58964 0.00896 0.0
C3933 C 0.61888 0.58719 1.00014 0.0
C3934 C 0.61144 0.6053 0.00473 0.0
C3935 C 0.61652 0.58093 0.97784 0.0
C3936 C 0.60953 0.57166 0.01113 0.0
C3937 C 0.62265 0.56634 0.02415 0.0
C3938 C 0.61752 0.55288 0.03658 0.0
C3939 C 0.59849 0.54459 0.03573 0.0
C3940 C 0.58466 0.54953 0.02237 0.0
C3941 C 0.59037 0.5633 0.00988 0.0
H3942 H 0.70309 0.46064 0.30045 0.0
H3943 H 0.66312 0.44428 0.2475 0.0
H3944 H 0.67655 0.41633 0.23976 0.0
H3945 H 0.74165 0.4486 0.2814 0.0
H3946 H 0.75082 0.43918 0.30272 0.0
H3947 H 0.73663 0.45666 0.30561 0.0
H3948 H 0.71377 0.43449 0.32343 0.0
H3949 H 0.72795 0.41689 0.32059 0.0
H3950 H 0.70327 0.41127 0.3115 0.0
H3951 H 0.69586 0.3917 0.23602 0.0
H3952 H 0.72075 0.37281 0.23622 0.0
H3953 H 0.74829 0.40491 0.29124 0.0
C3954 C 0.69686 0.45095 0.28749 0.0
C3955 C 0.68213 0.4548 0.27451 0.0
C3956 C 0.67461 0.44186 0.25752 0.0
C3957 C 0.682 0.4258 0.25309 0.0
C3958 C 0.69677 0.42263 0.26592 0.0
C3959 C 0.70406 0.43474 0.28286 0.0
C3960 C 0.72074 0.42865 0.29346 0.0
C3961 C 0.7385 0.4442 0.29592 0.0
C3962 C 0.71616 0.42246 0.31343 0.0
C3963 C 0.7224 0.41201 0.27915 0.0
C3964 C 0.70808 0.40843 0.26367 0.0
C3965 C 0.70699 0.39419 0.24821 0.0
C3966 C 0.72112 0.38355 0.24841 0.0
C3967 C 0.7362 0.38745 0.26378 0.0
C3968 C 0.73672 0.40164 0.27946 0.0
H3969 H 0.89583 0.50645 0.52365 0.0
H3970 H 0.88511 0.4542 0.48468 0.0
H3971 H 0.91839 0.45975 0.47841 0.0
H3972 H 0.93042 0.53318 0.49609 0.0
H3973 H 0.94496 0.54507 0.51818 0.0
H3974 H 0.91991 0.53816 0.51818 0.0
H3975 H 0.92506 0.51943 0.54773 0.0
H3976 H 0.95005 0.52656 0.5481 0.0
H3977 H 0.93951 0.502 0.54593 0.0
H3978 H 0.95283 0.46851 0.48036 0.0
H3979 H 0.98695 0.4812 0.4893 0.0
H3980 H 0.97447 0.52875 0.52483 0.0
C3981 C 0.90058 0.49648 0.51355 0.0
C3982 C 0.88841 0.48006 0.50448 0.0
C3983 C 0.89465 0.46692 0.49156 0.0
C3984 C 0.91333 0.46998 0.48787 0.0
C3985 C 0.92521 0.48631 0.49712 0.0
C3986 C 0.91911 0.49942 0.50959 0.0
C3987 C 0.93503 0.51502 0.51885 0.0
C3988 C 0.93241 0.53398 0.51243 0.0
C3989 C 0.93756 0.51578 0.54148 0.0
C3990 C 0.951 0.5084 0.50995 0.0
C3991 C 0.94511 0.4918 0.49749 0.0
C3992 C 0.95766 0.48178 0.48959 0.0
C3993 C 0.97683 0.48892 0.49479 0.0
C3994 C 0.98284 0.50595 0.50732 0.0
C3995 C 0.96992 0.51596 0.51469 0.0
H3996 H 0.32434 0.10717 0.31646 0.0
H3997 H 0.37514 0.11056 0.28832 0.0
H3998 H 0.36806 0.13764 0.2725 0.0
H3999 H 0.29568 0.11453 0.27918 0.0
H4000 H 0.28271 0.12946 0.29222 0.0
H4001 H 0.29377 0.11344 0.30502 0.0
H4002 H 0.31219 0.14079 0.33063 0.0
H4003 H 0.30097 0.15703 0.31807 0.0
H4004 H 0.32625 0.16084 0.32239 0.0
H4005 H 0.35207 0.15815 0.25399 0.0
H4006 H 0.32944 0.17397 0.23642 0.0
H4007 H 0.28993 0.15944 0.27803 0.0
C4008 C 0.33435 0.11435 0.30777 0.0
C4009 C 0.35043 0.10733 0.30382 0.0
C4010 C 0.36304 0.1163 0.29183 0.0
C4011 C 0.35911 0.13159 0.28279 0.0
C4012 C 0.34278 0.13791 0.28637 0.0
C4013 C 0.33083 0.12994 0.299 0.0
C4014 C 0.31334 0.13824 0.29879 0.0
C4015 C 0.29533 0.123 0.29347 0.0
C4016 C 0.31318 0.14992 0.31864 0.0
C4017 C 0.31648 0.15066 0.28266 0.0
C4018 C 0.33374 0.15056 0.27599 0.0
C4019 C 0.33882 0.15896 0.2595 0.0
C4020 C 0.3259 0.16769 0.24952 0.0
C4021 C 0.30826 0.16786 0.25615 0.0
C4022 C 0.30359 0.15965 0.27308 0.0
H4023 H 0.34218 0.10072 0.50203 0.0
H4024 H 0.37112 0.15097 0.53997 0.0
H4025 H 0.3996 0.13732 0.54429 0.0
H4026 H 0.35978 0.06895 0.52945 0.0
H4027 H 0.36195 0.0528 0.50858 0.0
H4028 H 0.34468 0.06734 0.50664 0.0
H4029 H 0.3587 0.08046 0.47647 0.0
H4030 H 0.37602 0.06589 0.47829 0.0
H4031 H 0.38336 0.09086 0.47864 0.0
H4032 H 0.42433 0.11721 0.546 0.0
H4033 H 0.4423 0.09163 0.54651 0.0
H4034 H 0.3968 0.05467 0.50782 0.0
C4035 C 0.35464 0.109 0.5109 0.0
C4036 C 0.35448 0.12691 0.52062 0.0
C4037 C 0.37093 0.13716 0.53249 0.0
C4038 C 0.38721 0.12959 0.5349 0.0
C4039 C 0.38681 0.11176 0.52532 0.0
C4040 C 0.37094 0.10161 0.51356 0.0
C4041 C 0.37362 0.08223 0.5061 0.0
C4042 C 0.35915 0.06693 0.51312 0.0
C4043 C 0.37288 0.07972 0.48353 0.0
C4044 C 0.39325 0.08285 0.51593 0.0
C4045 C 0.40081 0.1001 0.52666 0.0
C4046 C 0.4186 0.10369 0.53751 0.0
C4047 C 0.42872 0.08913 0.53766 0.0
C4048 C 0.42086 0.07118 0.52725 0.0
C4049 C 0.40308 0.06822 0.516 0.0
H4050 H 0.69339 0.65473 0.30519 0.0
H4051 H 0.71769 0.6198 0.26425 0.0
H4052 H 0.74046 0.64754 0.25844 0.0
H4053 H 0.69696 0.69392 0.27725 0.0
H4054 H 0.70274 0.71163 0.29834 0.0
H4055 H 0.68887 0.68896 0.30046 0.0
H4056 H 0.71286 0.68493 0.32939 0.0
H4057 H 0.72673 0.70763 0.32736 0.0
H4058 H 0.73733 0.68724 0.32598 0.0
H4059 H 0.75959 0.6786 0.25573 0.0
H4060 H 0.7744 0.71165 0.25619 0.0
H4061 H 0.73837 0.72775 0.29881 0.0
C4062 C 0.70371 0.65297 0.29524 0.0
C4063 C 0.70381 0.63508 0.28517 0.0
C4064 C 0.71731 0.63335 0.27202 0.0
C4065 C 0.73034 0.64902 0.26867 0.0
C4066 C 0.72972 0.66645 0.27851 0.0
C4067 C 0.7168 0.66863 0.29153 0.0
C4068 C 0.71884 0.68923 0.29942 0.0
C4069 C 0.70078 0.69635 0.29351 0.0
C4070 C 0.72426 0.69244 0.32188 0.0
C4071 C 0.73491 0.69816 0.28881 0.0
C4072 C 0.74092 0.68467 0.27689 0.0
C4073 C 0.75518 0.68929 0.2652 0.0
C4074 C 0.76361 0.70819 0.26568 0.0
C4075 C 0.7579 0.72242 0.27786 0.0
C4076 C 0.74326 0.71724 0.28954 0.0
H4077 H 0.8099 0.41271 0.75452 0.0
H4078 H 0.83968 0.42623 0.81369 0.0
H4079 H 0.83134 0.39311 0.81922 0.0
H4080 H 0.77145 0.37878 0.76713 0.0
H4081 H 0.76937 0.36337 0.74448 0.0
H4082 H 0.77785 0.3882 0.74496 0.0
H4083 H 0.80802 0.38153 0.73093 0.0
H4084 H 0.79967 0.3567 0.7306 0.0
H4085 H 0.8223 0.36781 0.7437 0.0
H4086 H 0.82153 0.35929 0.81799 0.0
H4087 H 0.80765 0.32552 0.811 0.0
H4088 H 0.78217 0.33382 0.75369 0.0
C4089 C 0.81449 0.40856 0.7686 0.0
C4090 C 0.8252 0.4217 0.78378 0.0
C4091 C 0.83119 0.41614 0.80208 0.0
C4092 C 0.82667 0.39746 0.80529 0.0
C4093 C 0.81611 0.38475 0.79006 0.0
C4094 C 0.80988 0.38996 0.77216 0.0
C4095 C 0.7983 0.37341 0.75856 0.0
C4096 C 0.77804 0.37611 0.75349 0.0
C4097 C 0.80764 0.36965 0.73985 0.0
C4098 C 0.79906 0.35818 0.77169 0.0
C4099 C 0.80964 0.36506 0.78967 0.0
C4100 C 0.81299 0.35371 0.80411 0.0
C4101 C 0.80504 0.33471 0.8001 0.0
C4102 C 0.79365 0.32765 0.78211 0.0
C4103 C 0.79066 0.3393 0.76764 0.0
H4104 H 0.05761 0.8868 0.04096 0.0
H4105 H 0.03077 0.88864 0.09451 0.0
H4106 H 0.02413 0.91955 0.08915 0.0
H4107 H 0.07887 0.93688 0.04638 0.0
H4108 H 0.07484 0.93928 0.02055 0.0
H4109 H 0.07777 0.91703 0.02815 0.0
H4110 H 0.04579 0.90114 0.00817 0.0
H4111 H 0.0428 0.92339 1.0006 0.0
H4112 H 0.02501 0.91009 0.0128 0.0
H4113 H 0.02139 0.95131 0.07945 0.0
H4114 H 0.02185 0.98094 0.06526 0.0
H4115 H 0.04828 0.96003 0.01632 0.0
C4116 C 0.05036 0.8937 0.05159 0.0
C4117 C 0.04461 0.88467 0.06821 0.0
C4118 C 0.03511 0.89459 0.08152 0.0
C4119 C 0.03132 0.91241 0.07865 0.0
C4120 C 0.03692 0.9207 0.06223 0.0
C4121 C 0.04618 0.91171 0.04879 0.0
C4122 C 0.05043 0.92409 0.03233 0.0
C4123 C 0.07175 0.92964 0.03182 0.0
C4124 C 0.04042 0.91407 0.01228 0.0
C4125 C 0.04222 0.94132 0.0387 0.0
C4126 C 0.03466 0.93897 0.05614 0.0
C4127 C 0.02709 0.95311 0.06567 0.0
C4128 C 0.02737 0.97003 0.05743 0.0
C4129 C 0.03467 0.97302 0.03942 0.0
C4130 C 0.04213 0.95821 0.02985 0.0
H4131 H 0.89936 0.24088 0.85734 0.0
H4132 H 0.91566 0.29889 0.88412 0.0
H4133 H 0.88805 0.3063 0.86568 0.0
H4134 H 0.88077 0.25039 0.80935 0.0
H4135 H 0.86107 0.23092 0.80571 0.0
H4136 H 0.88231 0.22955 0.82085 0.0
H4137 H 0.86324 0.22226 0.8499 0.0
H4138 H 0.84195 0.22355 0.83479 0.0
H4139 H 0.84859 0.23805 0.85819 0.0
H4140 H 0.85988 0.30856 0.84324 0.0
H4141 H 0.83098 0.30459 0.81992 0.0
H4142 H 0.82995 0.24502 0.80867 0.0
C4143 C 0.89704 0.2551 0.85946 0.0
C4144 C 0.91024 0.26935 0.87204 0.0
C4145 C 0.90638 0.28774 0.87425 0.0
C4146 C 0.89054 0.29214 0.86389 0.0
C4147 C 0.87817 0.27801 0.85139 0.0
C4148 C 0.881 0.25979 0.84922 0.0
C4149 C 0.8651 0.24739 0.83481 0.0
C4150 C 0.87278 0.23907 0.81661 0.0
C4151 C 0.85407 0.23189 0.84504 0.0
C4152 C 0.85307 0.26153 0.82935 0.0
C4153 C 0.8611 0.27914 0.83901 0.0
C4154 C 0.85331 0.29478 0.83584 0.0
C4155 C 0.83685 0.2924 0.82259 0.0
C4156 C 0.82794 0.27449 0.81291 0.0
C4157 C 0.83624 0.25882 0.81625 0.0
H4158 H 0.53598 0.17742 0.54121 0.0
H4159 H 0.56985 0.18427 0.59811 0.0
H4160 H 0.57068 0.15067 0.59409 0.0
H4161 H 0.50808 0.13153 0.54483 0.0
H4162 H 0.50793 0.12246 0.51942 0.0
H4163 H 0.51002 0.14727 0.52625 0.0
H4164 H 0.54071 0.15374 0.50998 0.0
H4165 H 0.53866 0.12892 0.50318 0.0
H4166 H 0.55977 0.14247 0.51748 0.0
H4167 H 0.56821 0.11585 0.58434 0.0
H4168 H 0.56141 0.08252 0.56982 0.0
H4169 H 0.52879 0.09652 0.51927 0.0
C4170 C 0.54353 0.17187 0.55287 0.0
C4171 C 0.55308 0.18401 0.56997 0.0
C4172 C 0.56276 0.17578 0.58468 0.0
C4173 C 0.56324 0.15651 0.58259 0.0
C4174 C 0.554 0.1451 0.5656 0.0
C4175 C 0.54429 0.15242 0.55094 0.0
C4176 C 0.53565 0.13679 0.53414 0.0
C4177 C 0.51414 0.13438 0.53098 0.0
C4178 C 0.5442 0.14072 0.51507 0.0
C4179 C 0.54157 0.11961 0.54195 0.0
C4180 C 0.55238 0.12486 0.56006 0.0
C4181 C 0.55972 0.11165 0.57019 0.0
C4182 C 0.55581 0.09269 0.56182 0.0
C4183 C 0.54454 0.08677 0.54347 0.0
C4184 C 0.53741 0.10055 0.53338 0.0
H4185 H 0.58849 0.79067 0.36192 0.0
H4186 H 0.60226 0.7474 0.39639 0.0
H4187 H 0.63088 0.74737 0.38035 0.0
H4188 H 0.60707 0.77436 0.31711 0.0
H4189 H 0.61626 0.79773 0.31187 0.0
H4190 H 0.59584 0.79339 0.32475 0.0
H4191 H 0.61248 0.8186 0.35349 0.0
H4192 H 0.63281 0.82314 0.34059 0.0
H4193 H 0.63522 0.81693 0.36531 0.0
H4194 H 0.65884 0.7524 0.36105 0.0
H4195 H 0.68524 0.76474 0.34289 0.0
H4196 H 0.65474 0.806 0.32253 0.0
C4197 C 0.59748 0.78118 0.36618 0.0
C4198 C 0.59265 0.7688 0.38034 0.0
C4199 C 0.60505 0.75665 0.38525 0.0
C4200 C 0.62152 0.75658 0.37626 0.0
C4201 C 0.6257 0.7688 0.36232 0.0
C4202 C 0.61413 0.78101 0.35742 0.0
C4203 C 0.62241 0.7934 0.34271 0.0
C4204 C 0.60963 0.78949 0.32294 0.0
C4205 C 0.62594 0.81425 0.35103 0.0
C4206 C 0.64074 0.78672 0.34071 0.0
C4207 C 0.64214 0.77217 0.35174 0.0
C4208 C 0.65785 0.76376 0.35231 0.0
C4209 C 0.67273 0.77074 0.34183 0.0
C4210 C 0.67202 0.78623 0.33121 0.0
C4211 C 0.65562 0.79406 0.33042 0.0
H4212 H 0.01738 0.19934 0.40592 0.0
H4213 H 0.06331 0.23322 0.44672 0.0
H4214 H 0.06264 0.2072 0.46705 0.0
H4215 H 0.9916 0.17826 0.44163 0.0
H4216 H 0.98418 0.15568 0.42701 0.0
H4217 H 0.98921 0.17654 0.41511 0.0
H4218 H 0.01324 0.1623 0.39619 0.0
H4219 H 0.00838 0.14143 0.4082 0.0
H4220 H 0.03214 0.15445 0.40978 0.0
H4221 H 0.0556 0.17734 0.4843 0.0
H4222 H 0.04176 0.14785 0.49696 0.0
H4223 H 1.00094 0.13358 0.44471 0.0
C4224 C 0.02732 0.20136 0.41912 0.0
C4225 C 0.04046 0.21851 0.42453 0.0
C4226 C 0.05328 0.22025 0.44193 0.0
C4227 C 0.05297 0.2055 0.45368 0.0
C4228 C 0.03986 0.18883 0.4479 0.0
C4229 C 0.02729 0.18671 0.43098 0.0
C4230 C 0.01422 0.16762 0.42827 0.0
C4231 C 0.99358 0.16965 0.428 0.0
C4232 C 0.01718 0.15575 0.40949 0.0
C4233 C 0.02093 0.15958 0.44661 0.0
C4234 C 0.03591 0.17186 0.45767 0.0
C4235 C 0.04396 0.16759 0.47561 0.0
C4236 C 0.03612 0.1507 0.48265 0.0
C4237 C 0.02025 0.13829 0.4719 0.0
C4238 C 0.01305 0.14271 0.45336 0.0
H4239 H 0.63541 0.2843 0.23813 0.0
H4240 H 0.61787 0.22358 0.23068 0.0
H4241 H 0.6506 0.22058 0.23802 0.0
H4242 H 0.67918 0.28701 0.21798 0.0
H4243 H 0.69249 0.30562 0.236 0.0
H4244 H 0.6675 0.30371 0.23025 0.0
H4245 H 0.66329 0.30262 0.26708 0.0
H4246 H 0.6883 0.30468 0.2729 0.0
H4247 H 0.67231 0.28534 0.28007 0.0
H4248 H 0.68535 0.22331 0.24453 0.0
H4249 H 0.71964 0.23198 0.25231 0.0
H4250 H 0.71663 0.2908 0.25855 0.0
C4251 C 0.63835 0.27035 0.23819 0.0
C4252 C 0.62354 0.25417 0.23309 0.0
C4253 C 0.62852 0.2363 0.23361 0.0
C4254 C 0.64725 0.23438 0.23803 0.0
C4255 C 0.66135 0.25042 0.2424 0.0
C4256 C 0.65722 0.26812 0.24289 0.0
C4257 C 0.67538 0.28293 0.24856 0.0
C4258 C 0.67883 0.29557 0.23222 0.0
C4259 C 0.67478 0.29459 0.26832 0.0
C4260 C 0.69024 0.27074 0.25057 0.0
C4261 C 0.68166 0.25202 0.247 0.0
C4262 C 0.69213 0.23795 0.24764 0.0
C4263 C 0.71176 0.24301 0.25228 0.0
C4264 C 0.72118 0.26199 0.25654 0.0
C4265 C 0.71008 0.27609 0.25542 0.0
H4266 H 0.5188 0.899 0.93179 0.0
H4267 H 0.57966 0.90832 0.93427 0.0
H4268 H 0.58232 0.93793 0.95559 0.0
H4269 H 0.51443 0.94741 0.93218 0.0
H4270 H 0.49605 0.94582 0.94796 0.0
H4271 H 0.49852 0.92537 0.93223 0.0
H4272 H 0.50097 0.9072 0.96248 0.0
H4273 H 0.49842 0.92757 0.97828 0.0
H4274 H 0.51848 0.91688 0.9832 0.0
H4275 H 0.57876 0.96759 0.97606 0.0
H4276 H 0.5691 0.99359 0.99586 0.0
H4277 H 0.51094 0.96463 0.98334 0.0
C4278 C 0.53276 0.90707 0.93687 0.0
C4279 C 0.549 0.901 0.93067 0.0
C4280 C 0.56684 0.9125 0.93792 0.0
C4281 C 0.56857 0.92944 0.95034 0.0
C4282 C 0.55238 0.93498 0.95591 0.0
C4283 C 0.53479 0.92406 0.9496 0.0
C4284 C 0.51968 0.93322 0.95818 0.0
C4285 C 0.50638 0.93825 0.94165 0.0
C4286 C 0.50874 0.92045 0.97132 0.0
C4287 C 0.53154 0.95088 0.97036 0.0
C4288 C 0.55038 0.95168 0.96857 0.0
C4289 C 0.56407 0.96696 0.97768 0.0
C4290 C 0.55846 0.98171 0.9889 0.0
C4291 C 0.53935 0.98113 0.99137 0.0
C4292 C 0.52571 0.96539 0.98198 0.0
H4293 H 0.92421 0.76718 0.76013 0.0
H4294 H 0.91051 0.75335 0.69689 0.0
H4295 H 0.87741 0.75525 0.69988 0.0
H4296 H 0.8799 0.74191 0.77369 0.0
H4297 H 0.87827 0.75942 0.79353 0.0
H4298 H 0.90097 0.75668 0.78689 0.0
H4299 H 0.90903 0.79182 0.78143 0.0
H4300 H 0.88665 0.79413 0.78914 0.0
H4301 H 0.89258 0.80109 0.76574 0.0
H4302 H 0.84525 0.75834 0.70939 0.0
H4303 H 0.81697 0.76315 0.72434 0.0
H4304 H 0.84989 0.77631 0.78195 0.0
C4305 C 0.91421 0.76448 0.74693 0.0
C4306 C 0.92023 0.75995 0.72814 0.0
C4307 C 0.90651 0.75676 0.71137 0.0
C4308 C 0.88755 0.75783 0.71296 0.0
C4309 C 0.88208 0.76236 0.7315 0.0
C4310 C 0.895 0.76575 0.74825 0.0
C4311 C 0.88518 0.77071 0.76629 0.0
C4312 C 0.88614 0.75632 0.78097 0.0
C4313 C 0.89389 0.79064 0.77622 0.0
C4314 C 0.86483 0.7695 0.75709 0.0
C4315 C 0.86347 0.76455 0.73696 0.0
C4316 C 0.84626 0.76224 0.72513 0.0
C4317 C 0.83011 0.76497 0.73386 0.0
C4318 C 0.83073 0.76999 0.75446 0.0
C4319 C 0.84862 0.77245 0.76617 0.0
H4320 H 0.08756 0.05599 0.89175 0.0
H4321 H 0.08061 0.9965 0.87173 0.0
H4322 H 0.06831 0.98902 0.90255 0.0
H4323 H 0.10078 0.05383 0.9431 0.0
H4324 H 0.08764 0.07097 0.95164 0.0
H4325 H 0.09652 0.07184 0.92816 0.0
H4326 H 0.06279 0.07055 0.91126 0.0
H4327 H 0.05396 0.06962 0.93477 0.0
H4328 H 0.0441 0.05162 0.91459 0.0
H4329 H 0.05907 0.98772 0.93688 0.0
H4330 H 0.04926 0.99288 0.97016 0.0
H4331 H 0.0576 0.05257 0.96641 0.0
C4332 C 0.08326 0.04136 0.89364 0.0
C4333 C 0.08563 0.0269 0.87918 0.0
C4334 C 0.07973 0.00798 0.88262 0.0
C4335 C 0.07252 1.00351 0.90011 0.0
C4336 C 0.07084 0.01804 0.91414 0.0
C4337 C 0.07567 0.03659 0.91097 0.0
C4338 C 0.07194 0.04947 0.92834 0.0
C4339 C 0.09032 0.06228 0.9384 0.0
C4340 C 0.05732 0.06099 0.92185 0.0
C4341 C 0.06421 0.03525 0.94165 0.0
C4342 C 0.06411 0.01721 0.93334 0.0
C4343 C 0.05885 1.00177 0.94339 0.0
C4344 C 0.05339 0.00481 0.96232 0.0
C4345 C 0.05262 0.02305 0.97078 0.0
C4346 C 0.05801 0.03845 0.96023 0.0
H4347 H 0.77676 0.35405 0.58347 0.0
H4348 H 0.81274 0.40706 0.60825 0.0
H4349 H 0.81879 0.39436 0.63971 0.0
H4350 H 0.75829 0.34114 0.63071 0.0
H4351 H 0.75887 0.31676 0.62426 0.0
H4352 H 0.75426 0.33111 0.60522 0.0
H4353 H 0.78197 0.32209 0.58813 0.0
H4354 H 0.78677 0.30789 0.60713 0.0
H4355 H 0.80506 0.32631 0.60188 0.0
H4356 H 0.82389 0.37523 0.66648 0.0
H4357 H 0.82902 0.35015 0.6867 0.0
H4358 H 0.79091 0.30912 0.64396 0.0
C4359 C 0.78536 0.36308 0.59582 0.0
C4360 C 0.79414 0.38149 0.59381 0.0
C4361 C 0.80584 0.39292 0.60983 0.0
C4362 C 0.80924 0.38588 0.62769 0.0
C4363 C 0.80078 0.36745 0.62913 0.0
C4364 C 0.78906 0.35618 0.61366 0.0
C4365 C 0.7837 0.33623 0.61819 0.0
C4366 C 0.76252 0.33101 0.61969 0.0
C4367 C 0.78975 0.32233 0.60293 0.0
C4368 C 0.79509 0.33786 0.63811 0.0
C4369 C 0.80437 0.35609 0.6444 0.0
C4370 C 0.8165 0.36094 0.6619 0.0
C4371 C 0.81937 0.34667 0.67321 0.0
C4372 C 0.81041 0.32787 0.66666 0.0
C4373 C 0.79795 0.32345 0.64909 0.0
H4374 H 0.45294 0.0433 0.40259 0.0
H4375 H 0.4324 0.98286 0.39383 0.0
H4376 H 0.45163 0.98008 0.42432 0.0
H4377 H 0.49827 0.04401 0.42175 0.0
H4378 H 0.5005 0.0639 0.4402 0.0
H4379 H 0.48431 0.06156 0.41815 0.0
H4380 H 0.45699 0.06362 0.43918 0.0
H4381 H 0.47318 0.06609 0.46135 0.0
H4382 H 0.45248 0.04768 0.4573 0.0
H4383 H 0.47833 0.98324 0.45041 0.0
H4384 H 0.50556 0.99282 0.47581 0.0
H4385 H 0.50317 0.05116 0.47321 0.0
C4386 C 0.45192 0.02951 0.40728 0.0
C4387 C 0.44146 0.01327 0.39535 0.0
C4388 C 0.44088 0.9955 0.40213 0.0
C4389 C 0.45153 0.99375 0.41963 0.0
C4390 C 0.46206 0.00995 0.43063 0.0
C4391 C 0.46188 0.02755 0.42512 0.0
C4392 C 0.4748 0.04265 0.43955 0.0
C4393 C 0.49038 0.05367 0.4293 0.0
C4394 C 0.46369 0.05578 0.44996 0.0
C4395 C 0.48267 0.03066 0.45364 0.0
C4396 C 0.47543 0.01181 0.44792 0.0
C4397 C 0.48327 0.99791 0.45595 0.0
C4398 C 0.49871 1.00347 0.47047 0.0
C4399 C 0.50521 0.02262 0.47768 0.0
C4400 C 0.49724 0.03638 0.46905 0.0
H4401 H 0.78354 0.74953 0.11999 0.0
H4402 H 0.75234 0.69296 0.1206 0.0
H4403 H 0.74916 0.70029 0.15568 0.0
H4404 H 0.80879 0.75459 0.16918 0.0
H4405 H 0.8074 0.77883 0.17509 0.0
H4406 H 0.80742 0.76937 0.14985 0.0
H4407 H 0.77619 0.78012 0.14034 0.0
H4408 H 0.77604 0.78944 0.16562 0.0
H4409 H 0.75616 0.77249 0.15299 0.0
H4410 H 0.75045 0.7126 0.19071 0.0
H4411 H 0.75607 0.72968 0.22427 0.0
H4412 H 0.78442 0.77941 0.20212 0.0
C4413 C 0.77609 0.73873 0.12757 0.0
C4414 C 0.76802 0.72066 0.1174 0.0
C4415 C 0.75837 0.70694 0.1279 0.0
C4416 C 0.75653 0.71095 0.14788 0.0
C4417 C 0.76429 0.72886 0.15738 0.0
C4418 C 0.77388 0.7426 0.14768 0.0
C4419 C 0.7808 0.7607 0.16172 0.0
C4420 C 0.80238 0.76619 0.1641 0.0
C4421 C 0.77176 0.77663 0.15474 0.0
C4422 C 0.77374 0.75482 0.18073 0.0
C4423 C 0.76432 0.73634 0.17776 0.0
C4424 C 0.75748 0.72718 0.19315 0.0
C4425 C 0.76061 0.73702 0.21214 0.0
C4426 C 0.77003 0.75599 0.21564 0.0
C4427 C 0.77656 0.7651 0.19968 0.0
H4428 H 0.07329 0.05697 0.67736 0.0
H4429 H 0.08944 1.00262 0.67542 0.0
H4430 H 0.07851 0.99635 0.63997 0.0
H4431 H 0.03113 0.04196 0.64112 0.0
H4432 H 0.03458 0.06337 0.62989 0.0
H4433 H 0.04292 0.06371 0.65555 0.0
H4434 H 0.07646 0.07897 0.64924 0.0
H4435 H 0.06813 0.07868 0.62361 0.0
H4436 H 0.08754 0.06765 0.63045 0.0
H4437 H 0.06754 0.99607 0.60491 0.0
H4438 H 0.05676 1.00193 0.57147 0.0
H4439 H 0.04663 0.05585 0.59435 0.0
C4440 C 0.07447 0.04373 0.66947 0.0
C4441 C 0.08205 0.03018 0.67945 0.0
C4442 C 0.08332 0.01307 0.66844 0.0
C4443 C 0.07725 0.0094 0.64819 0.0
C4444 C 0.06983 0.02292 0.6389 0.0
C4445 C 0.06833 0.03975 0.64907 0.0
C4446 C 0.06002 0.05186 0.63509 0.0
C4447 C 0.04103 0.05544 0.64076 0.0
C4448 C 0.07387 0.07039 0.63457 0.0
C4449 C 0.05745 0.03929 0.61552 0.0
C4450 C 0.06323 0.02269 0.61826 0.0
C4451 C 0.06294 0.009 0.60261 0.0
C4452 C 0.05689 0.01243 0.58363 0.0
C4453 C 0.05104 0.02927 0.58012 0.0
C4454 C 0.05098 0.0428 0.59643 0.0
H4455 H 0.80398 0.34602 0.41291 0.0
H4456 H 0.76436 0.37972 0.39296 0.0
H4457 H 0.75762 0.36012 0.36078 0.0
H4458 H 0.82298 0.33933 0.36684 0.0
H4459 H 0.82517 0.3155 0.36921 0.0
H4460 H 0.82678 0.332 0.39094 0.0
H4461 H 0.79987 0.30955 0.40363 0.0
H4462 H 0.79813 0.29305 0.38186 0.0
H4463 H 0.77769 0.30172 0.38823 0.0
H4464 H 0.75383 0.33651 0.33211 0.0
H4465 H 0.75519 0.31126 0.30627 0.0
H4466 H 0.79931 0.2942 0.34322 0.0
C4467 C 0.79404 0.34933 0.40167 0.0
C4468 C 0.78453 0.3642 0.40535 0.0
C4469 C 0.7715 0.36813 0.39045 0.0
C4470 C 0.76764 0.35716 0.37216 0.0
C4471 C 0.77702 0.34245 0.36909 0.0
C4472 C 0.79006 0.33856 0.38327 0.0
C4473 C 0.79819 0.32193 0.37593 0.0
C4474 C 0.81955 0.32753 0.37571 0.0
C4475 C 0.79317 0.3056 0.38814 0.0
C4476 C 0.78786 0.31737 0.35531 0.0
C4477 C 0.77554 0.32924 0.35188 0.0
C4478 C 0.76373 0.32738 0.33437 0.0
C4479 C 0.76479 0.31315 0.31972 0.0
C4480 C 0.77797 0.30142 0.3225 0.0
C4481 C 0.78941 0.3033 0.34064 0.0
H4482 H 0.43871 0.03611 0.19901 0.0
H4483 H 0.46183 0.99965 0.23639 0.0
H4484 H 0.48114 0.99111 0.21077 0.0
H4485 H 0.43145 0.00709 0.15737 0.0
H4486 H 0.43782 0.02395 0.1406 0.0
H4487 H 0.42979 0.03126 0.16342 0.0
H4488 H 0.46032 0.05646 0.1729 0.0
H4489 H 0.46845 0.04935 0.14991 0.0
H4490 H 0.48283 0.04969 0.17291 0.0
H4491 H 0.49194 0.9812 0.17956 0.0
H4492 H 0.49452 0.97131 0.1446 0.0
H4493 H 0.46499 0.01419 0.1269 0.0
C4494 C 0.44853 0.02703 0.20203 0.0
C4495 C 0.44904 0.01862 0.21956 0.0
C4496 C 0.46145 0.00626 0.22298 0.0
C4497 C 0.47251 1.00144 0.20859 0.0
C4498 C 0.47109 0.00925 0.19099 0.0
C4499 C 0.45962 0.022 0.18771 0.0
C4500 C 0.45864 0.02622 0.16656 0.0
C4501 C 0.43822 0.02185 0.15641 0.0
C4502 C 0.46813 0.04664 0.16551 0.0
C4503 C 0.47002 0.0127 0.15814 0.0
C4504 C 0.47752 1.00345 0.17262 0.0
C4505 C 0.48667 0.98871 0.16816 0.0
C4506 C 0.48794 0.98309 0.14836 0.0
C4507 C 0.48005 0.99217 0.13342 0.0
C4508 C 0.4714 0.00739 0.13831 0.0
H4509 H 0.7828 0.70732 0.90151 0.0
H4510 H 0.75932 0.74935 0.93445 0.0
H4511 H 0.75966 0.76748 0.90615 0.0
H4512 H 0.81363 0.73989 0.87642 0.0
H4513 H 0.80983 0.72458 0.8535 0.0
H4514 H 0.80814 0.71482 0.87645 0.0
H4515 H 0.77451 0.69648 0.86327 0.0
H4516 H 0.77612 0.70624 0.84033 0.0
H4517 H 0.75701 0.70905 0.85431 0.0
H4518 H 0.76208 0.78109 0.87449 0.0
H4519 H 0.76642 0.78943 0.84124 0.0
H4520 H 0.78836 0.73896 0.82776 0.0
C4521 C 0.77788 0.72041 0.90281 0.0
C4522 C 0.77089 0.7268 0.92029 0.0
C4523 C 0.76444 0.74395 0.92122 0.0
C4524 C 0.76468 0.75444 0.90522 0.0
C4525 C 0.7714 0.74768 0.88821 0.0
C4526 C 0.7779 0.73108 0.88682 0.0
C4527 C 0.7841 0.72699 0.86657 0.0
C4528 C 0.80518 0.72655 0.86835 0.0
C4529 C 0.77222 0.7086 0.85547 0.0
C4530 C 0.78002 0.74385 0.85688 0.0
C4531 C 0.77275 0.75559 0.86973 0.0
C4532 C 0.7678 0.77202 0.86432 0.0
C4533 C 0.77035 0.77665 0.84534 0.0
C4534 C 0.7778 0.76493 0.83178 0.0
C4535 C 0.78265 0.74825 0.83772 0.0
H4536 H 0.87256 0.10117 0.05824 0.0
H4537 H 0.83172 0.0491 0.05032 0.0
H4538 H 0.85605 0.03178 0.04042 0.0
H4539 H 0.89026 0.09417 0.01741 0.0
H4540 H 0.91459 0.10446 0.02564 0.0
H4541 H 0.89655 0.11199 0.03842 0.0
H4542 H 0.91141 0.10365 0.07137 0.0
H4543 H 0.93003 0.09663 0.05888 0.0
H4544 H 0.91639 0.08055 0.07267 0.0
H4545 H 0.88179 0.02185 0.02408 0.0
H4546 H 0.9079 0.01946 0.00426 0.0
H4547 H 0.9315 0.07846 0.02188 0.0
C4548 C 0.8692 0.08599 0.05555 0.0
C4549 C 0.85072 0.07621 0.05537 0.0
C4550 C 0.84613 0.05653 0.05098 0.0
C4551 C 0.85981 0.04668 0.04533 0.0
C4552 C 0.87781 0.05688 0.04441 0.0
C4553 C 0.88263 0.0761 0.04977 0.0
C4554 C 0.90171 0.08428 0.04433 0.0
C4555 C 0.90068 0.09961 0.03064 0.0
C4556 C 0.91572 0.09171 0.06292 0.0
C4557 C 0.90624 0.06697 0.03368 0.0
C4558 C 0.89258 0.05121 0.03435 0.0
C4559 C 0.89285 0.03395 0.02391 0.0
C4560 C 0.90756 0.03276 0.01259 0.0
C4561 C 0.92146 0.04885 0.0116 0.0
C4562 C 0.9209 0.06605 0.02241 0.0
H4563 H 0.40585 0.43153 0.03109 0.0
H4564 H 0.37676 0.4737 0.05488 0.0
H4565 H 0.40522 0.49815 0.05515 0.0
H4566 H 0.45113 0.45191 0.06023 0.0
H4567 H 0.46464 0.44578 0.04088 0.0
H4568 H 0.44198 0.43154 0.04246 0.0
H4569 H 0.43097 0.43591 0.0065 0.0
H4570 H 0.45359 0.45021 0.00486 0.0
H4571 H 0.43251 0.45927 0.99971 0.0
H4572 H 0.43637 0.51816 0.05198 0.0
H4573 H 0.46841 0.53213 0.04667 0.0
H4574 H 0.47821 0.47701 0.02697 0.0
C4575 C 0.40553 0.44593 0.03633 0.0
C4576 C 0.38911 0.45078 0.04294 0.0
C4577 C 0.38924 0.46971 0.04989 0.0
C4578 C 0.4053 0.48368 0.05004 0.0
C4579 C 0.42125 0.47849 0.04344 0.0
C4580 C 0.42161 0.46005 0.03693 0.0
C4581 C 0.44079 0.45828 0.0311 0.0
C4582 C 0.45019 0.44616 0.04447 0.0
C4583 C 0.43937 0.45045 0.00924 0.0
C4584 C 0.4509 0.47866 0.03485 0.0
C4585 C 0.43936 0.49005 0.04191 0.0
C4586 C 0.44546 0.50938 0.04618 0.0
C4587 C 0.46372 0.51734 0.04279 0.0
C4588 C 0.47581 0.50614 0.03517 0.0
C4589 C 0.46931 0.48637 0.03181 0.0
H4590 H 0.35312 0.58593 0.75908 0.0
H4591 H 0.40697 0.61693 0.78863 0.0
H4592 H 0.3934 0.6453 0.7939 0.0
H4593 H 0.33947 0.62531 0.73511 0.0
H4594 H 0.3151 0.61815 0.73844 0.0
H4595 H 0.32955 0.60084 0.73527 0.0
H4596 H 0.32093 0.58883 0.76805 0.0
H4597 H 0.30653 0.60608 0.77134 0.0
H4598 H 0.32513 0.6051 0.79032 0.0
H4599 H 0.37345 0.66996 0.79728 0.0
H4600 H 0.34813 0.68806 0.80041 0.0
H4601 H 0.30745 0.64059 0.76933 0.0
C4602 C 0.36217 0.59878 0.76631 0.0
C4603 C 0.38112 0.59922 0.77343 0.0
C4604 C 0.39237 0.61622 0.78321 0.0
C4605 C 0.38483 0.63245 0.78611 0.0
C4606 C 0.36604 0.63148 0.77908 0.0
C4607 C 0.35486 0.61506 0.76939 0.0
C4608 C 0.3348 0.61735 0.76442 0.0
C4609 C 0.32942 0.61529 0.74197 0.0
C4610 C 0.32105 0.60352 0.77412 0.0
C4611 C 0.33627 0.63736 0.77351 0.0
C4612 C 0.35448 0.64546 0.78149 0.0
C4613 C 0.35915 0.66379 0.79099 0.0
C4614 C 0.34474 0.67396 0.79267 0.0
C4615 C 0.32591 0.66561 0.7852 0.0
C4616 C 0.32175 0.64721 0.77526 0.0
H4617 H 0.16878 0.56628 0.51482 0.0
H4618 H 0.18494 0.55934 0.57585 0.0
H4619 H 0.15164 0.54925 0.58002 0.0
H4620 H 0.13143 0.58472 0.52023 0.0
H4621 H 0.11604 0.57229 0.49892 0.0
H4622 H 0.14109 0.5758 0.49892 0.0
H4623 H 0.13937 0.54003 0.49146 0.0
H4624 H 0.11416 0.53647 0.49047 0.0
H4625 H 0.12723 0.52434 0.50671 0.0
H4626 H 0.11804 0.54942 0.5801 0.0
H4627 H 0.08396 0.54852 0.57288 0.0
H4628 H 0.08926 0.54879 0.5109 0.0
C4629 C 0.16549 0.56168 0.52876 0.0
C4630 C 0.17936 0.56402 0.54517 0.0
C4631 C 0.1744 0.55816 0.56327 0.0
C4632 C 0.15559 0.55233 0.56577 0.0
C4633 C 0.14218 0.55167 0.54976 0.0
C4634 C 0.14684 0.55524 0.53133 0.0
C4635 C 0.12956 0.55421 0.51683 0.0
C4636 C 0.12955 0.57287 0.50825 0.0
C4637 C 0.12745 0.53778 0.5004 0.0
C4638 C 0.11466 0.5506 0.5304 0.0
C4639 C 0.12228 0.54948 0.54938 0.0
C4640 C 0.11167 0.54896 0.5651 0.0
C4641 C 0.09245 0.54824 0.56097 0.0
C4642 C 0.08427 0.54721 0.54141 0.0
C4643 C 0.09542 0.54905 0.52597 0.0
H4644 H 0.74511 0.96885 0.7738 0.0
H4645 H 0.7141 0.94176 0.718 0.0
H4646 H 0.72605 0.91286 0.723 0.0
H4647 H 0.78544 0.94338 0.77419 0.0
H4648 H 0.78562 0.94215 0.80027 0.0
H4649 H 0.7789 0.96187 0.78975 0.0
H4650 H 0.74747 0.95549 0.8048 0.0
H4651 H 0.75387 0.93564 0.81505 0.0
H4652 H 0.73218 0.93276 0.79895 0.0
H4653 H 0.73667 0.88567 0.73685 0.0
H4654 H 0.74521 0.86253 0.75842 0.0
H4655 H 0.7668 0.90738 0.80591 0.0
C4656 C 0.74134 0.95701 0.76235 0.0
C4657 C 0.72879 0.95737 0.74554 0.0
C4658 C 0.72398 0.94171 0.73085 0.0
C4659 C 0.73065 0.92528 0.7336 0.0
C4660 C 0.74214 0.925 0.75101 0.0
C4661 C 0.74756 0.94055 0.76506 0.0
C4662 C 0.75748 0.93604 0.78375 0.0
C4663 C 0.77809 0.94648 0.78718 0.0
C4664 C 0.74712 0.94022 0.80167 0.0
C4665 C 0.75599 0.9153 0.77843 0.0
C4666 C 0.74756 0.90921 0.75934 0.0
C4667 C 0.74359 0.89031 0.75169 0.0
C4668 C 0.74832 0.87732 0.76398 0.0
C4669 C 0.75642 0.88344 0.78365 0.0
C4670 C 0.76053 0.90257 0.79085 0.0
H4671 H 0.7156 0.94545 0.50555 0.0
H4672 H 0.70573 0.92753 0.56266 0.0
H4673 H 0.67853 0.94288 0.56275 0.0
H4674 H 0.7001 0.99002 0.51294 0.0
H4675 H 0.68878 0.98773 0.48802 0.0
H4676 H 0.70895 0.97728 0.49331 0.0
H4677 H 0.68979 0.94484 0.47717 0.0
H4678 H 0.66969 0.95523 0.47168 0.0
H4679 H 0.66774 0.93554 0.48565 0.0
H4680 H 0.65157 0.95913 0.55629 0.0
H4681 H 0.62486 0.97193 0.54182 0.0
H4682 H 0.65056 0.97671 0.48795 0.0
C4683 C 0.70777 0.94466 0.5181 0.0
C4684 C 0.71319 0.93544 0.53424 0.0
C4685 C 0.70241 0.93495 0.55035 0.0
C4686 C 0.6868 0.94356 0.55052 0.0
C4687 C 0.68193 0.95249 0.53441 0.0
C4688 C 0.69195 0.95291 0.51839 0.0
C4689 C 0.6829 0.96219 0.50228 0.0
C4690 C 0.69596 0.98038 0.49895 0.0
C4691 C 0.67719 0.94863 0.48307 0.0
C4692 C 0.66589 0.96632 0.5115 0.0
C4693 C 0.66586 0.96109 0.53026 0.0
C4694 C 0.65146 0.96333 0.54164 0.0
C4695 C 0.63642 0.97064 0.53339 0.0
C4696 C 0.63581 0.97522 0.51388 0.0
C4697 C 0.65085 0.97332 0.50295 0.0
H4698 H 0.36383 0.41295 0.78724 0.0
H4699 H 0.34918 0.41616 0.72495 0.0
H4700 H 0.32778 0.38546 0.72199 0.0
H4701 H 0.36251 0.36379 0.78355 0.0
H4702 H 0.35215 0.36071 0.80601 0.0
H4703 H 0.36659 0.38289 0.80325 0.0
H4704 H 0.33933 0.39965 0.81085 0.0
H4705 H 0.32484 0.37747 0.81359 0.0
H4706 H 0.31667 0.39203 0.79633 0.0
H4707 H 0.30905 0.35354 0.7253 0.0
H4708 H 0.29353 0.32339 0.73524 0.0
H4709 H 0.31744 0.34236 0.79582 0.0
C4710 C 0.35596 0.40744 0.77299 0.0
C4711 C 0.35849 0.41715 0.7563 0.0
C4712 C 0.348 0.409 0.73793 0.0
C4713 C 0.3356 0.39158 0.7361 0.0
C4714 C 0.33353 0.38247 0.75282 0.0
C4715 C 0.34328 0.39018 0.77095 0.0
C4716 C 0.33846 0.37748 0.78663 0.0
C4717 C 0.35597 0.37082 0.79537 0.0
C4718 C 0.32928 0.38725 0.80281 0.0
C4719 C 0.32449 0.36142 0.77445 0.0
C4720 C 0.32199 0.36449 0.75492 0.0
C4721 C 0.3107 0.35111 0.74059 0.0
C4722 C 0.30193 0.33408 0.74633 0.0
C4723 C 0.30419 0.33075 0.76624 0.0
C4724 C 0.31535 0.3447 0.78052 0.0
H4725 H 0.24165 0.63648 0.23666 0.0
H4726 H 0.24788 0.62838 0.29857 0.0
H4727 H 0.2606 0.66223 0.30744 0.0
H4728 H 0.28203 0.67384 0.23781 0.0
H4729 H 0.26964 0.68591 0.2209 0.0
H4730 H 0.2634 0.6608 0.21959 0.0
H4731 H 0.22883 0.66362 0.22314 0.0
H4732 H 0.23532 0.68876 0.22482 0.0
H4733 H 0.22395 0.67805 0.24411 0.0
H4734 H 0.27265 0.69679 0.30931 0.0
H4735 H 0.28191 0.73002 0.30395 0.0
H4736 H 0.2628 0.71531 0.24165 0.0
C4737 C 0.24575 0.64176 0.25209 0.0
C4738 C 0.24395 0.62984 0.2669 0.0
C4739 C 0.24961 0.63725 0.28693 0.0
C4740 C 0.25665 0.65644 0.29214 0.0
C4741 C 0.25767 0.66784 0.27714 0.0
C4742 C 0.25229 0.6608 0.25755 0.0
C4743 C 0.25363 0.67607 0.24434 0.0
C4744 C 0.26805 0.67402 0.22981 0.0
C4745 C 0.23428 0.67665 0.23347 0.0
C4746 C 0.26054 0.69283 0.25958 0.0
C4747 C 0.26304 0.68784 0.27839 0.0
C4748 C 0.27032 0.70096 0.29475 0.0
C4749 C 0.27519 0.71975 0.29168 0.0
C4750 C 0.27203 0.72494 0.27262 0.0
C4751 C 0.26476 0.71145 0.25641 0.0
H4752 H 0.50672 0.65167 0.46241 0.0
H4753 H 0.52818 0.68655 0.51796 0.0
H4754 H 0.53413 0.65877 0.53283 0.0
H4755 H 0.48334 0.61025 0.4834 0.0
H4756 H 0.48986 0.5943 0.46467 0.0
H4757 H 0.48692 0.61723 0.45942 0.0
H4758 H 0.52069 0.62185 0.44903 0.0
H4759 H 0.52335 0.59928 0.45593 0.0
H4760 H 0.54007 0.62007 0.46674 0.0
H4761 H 0.53785 0.6268 0.54256 0.0
H4762 H 0.53841 0.59379 0.54615 0.0
H4763 H 0.51475 0.57778 0.48499 0.0
C4764 C 0.51257 0.65356 0.47775 0.0
C4765 C 0.51709 0.67195 0.4887 0.0
C4766 C 0.52487 0.67318 0.50876 0.0
C4767 C 0.52822 0.65725 0.51753 0.0
C4768 C 0.52379 0.6396 0.50637 0.0
C4769 C 0.51612 0.6376 0.48687 0.0
C4770 C 0.51286 0.61685 0.47826 0.0
C4771 C 0.49197 0.60922 0.47104 0.0
C4772 C 0.52496 0.61437 0.46149 0.0
C4773 C 0.51944 0.6075 0.49603 0.0
C4774 C 0.52586 0.62106 0.51202 0.0
C4775 C 0.53284 0.61617 0.53006 0.0
C4776 C 0.53325 0.59718 0.53194 0.0
C4777 C 0.52685 0.58272 0.51597 0.0
C4778 C 0.51974 0.5882 0.49768 0.0
H4779 H 0.66731 0.31113 0.68567 0.0
H4780 H 0.6377 0.25307 0.67742 0.0
H4781 H 0.66364 0.24451 0.69784 0.0
H4782 H 0.71408 0.30162 0.68411 0.0
H4783 H 0.7254 0.32022 0.70318 0.0
H4784 H 0.70434 0.32239 0.68823 0.0
H4785 H 0.68835 0.328 0.71965 0.0
H4786 H 0.70942 0.32592 0.73465 0.0
H4787 H 0.68727 0.31113 0.7371 0.0
H4788 H 0.69226 0.24172 0.7198 0.0
H4789 H 0.72237 0.24497 0.74106 0.0
H4790 H 0.73546 0.30423 0.73496 0.0
C4791 C 0.66623 0.29663 0.68825 0.0
C4792 C 0.65026 0.28277 0.67951 0.0
C4793 C 0.6497 0.26398 0.68339 0.0
C4794 C 0.66441 0.25894 0.69518 0.0
C4795 C 0.67992 0.27276 0.70326 0.0
C4796 C 0.68103 0.29125 0.70001 0.0
C4797 C 0.6996 0.30316 0.71047 0.0
C4798 C 0.71156 0.31239 0.69561 0.0
C4799 C 0.69593 0.31793 0.72641 0.0
C4800 C 0.70873 0.28841 0.71977 0.0
C4801 C 0.69691 0.27103 0.71558 0.0
C4802 C 0.70166 0.25525 0.72304 0.0
C4803 C 0.71883 0.25722 0.73514 0.0
C4804 C 0.73142 0.27473 0.73952 0.0
C4805 C 0.7263 0.29056 0.73159 0.0
H4806 H 0.02471 0.38315 0.96266 0.0
H4807 H 1.00325 0.36419 0.01534 0.0
H4808 H 1.00397 0.39692 0.02859 0.0
H4809 H 0.05609 0.42388 0.986 0.0
H4810 H 0.052 0.43947 0.96791 0.0
H4811 H 0.04874 0.4146 0.96061 0.0
H4812 H 0.01472 0.41221 0.94586 0.0
H4813 H 0.01746 0.43725 0.95166 0.0
H4814 H 0.99862 0.42173 0.96031 0.0
H4815 H 1.00694 0.43203 0.03665 0.0
H4816 H 0.01263 0.46639 0.03924 0.0
H4817 H 0.03253 0.46445 0.98181 0.0
C4818 C 0.0202 0.38583 0.97702 0.0
C4819 C 0.01379 0.37061 0.98777 0.0
C4820 C 0.00793 0.37516 0.00647 0.0
C4821 C 0.00837 0.39389 0.01424 0.0
C4822 C 0.01462 0.40839 0.00328 0.0
C4823 C 0.02035 0.40462 0.985 0.0
C4824 C 0.02644 0.423 0.97636 0.0
C4825 C 0.04706 0.42542 0.9725 0.0
C4826 C 0.01354 0.42358 0.95742 0.0
C4827 C 0.02375 0.4377 0.99285 0.0
C4828 C 0.01663 0.42879 0.00808 0.0
C4829 C 0.01248 0.43905 0.02475 0.0
C4830 C 0.01563 0.45877 0.026 0.0
C4831 C 0.0229 0.46857 0.01074 0.0
C4832 C 0.02707 0.45766 0.99389 0.0
H4833 H 0.97883 0.7974 0.18907 0.0
H4834 H 0.95335 0.75569 0.13962 0.0
H4835 H 0.92347 0.7508 0.1542 0.0
H4836 H 0.95727 0.77365 0.22576 0.0
H4837 H 0.95407 0.79455 0.2402 0.0
H4838 H 0.97299 0.79571 0.22518 0.0
H4839 H 0.96086 0.82156 0.20746 0.0
H4840 H 0.94186 0.82044 0.22243 0.0
H4841 H 0.93688 0.81716 0.19594 0.0
H4842 H 0.89627 0.74964 0.17515 0.0
H4843 H 0.87548 0.75098 0.20144 0.0
H4844 H 0.91873 0.79351 0.23689 0.0
C4845 C 0.9669 0.78744 0.18115 0.0
C4846 C 0.96855 0.77693 0.16315 0.0
C4847 C 0.95259 0.76378 0.1535 0.0
C4848 C 0.93547 0.761 0.16161 0.0
C4849 C 0.93437 0.77146 0.17943 0.0
C4850 C 0.94971 0.7844 0.1891 0.0
C4851 C 0.94517 0.79314 0.20856 0.0
C4852 C 0.95815 0.78901 0.22595 0.0
C4853 C 0.94626 0.81433 0.20859 0.0
C4854 C 0.92506 0.78291 0.20851 0.0
C4855 C 0.91893 0.77062 0.19149 0.0
C4856 C 0.90094 0.75931 0.18848 0.0
C4857 C 0.88914 0.76024 0.20345 0.0
C4858 C 0.89542 0.77228 0.22133 0.0
C4859 C 0.9135 0.78402 0.22352 0.0
H4860 H 0.52629 0.32756 0.10247 0.0
H4861 H 0.52188 0.35817 0.15878 0.0
H4862 H 0.52519 0.38756 0.14355 0.0
H4863 H 0.56157 0.36184 0.08796 0.0
H4864 H 0.55221 0.358 0.06226 0.0
H4865 H 0.54805 0.3392 0.07725 0.0
H4866 H 0.51213 0.33525 0.06765 0.0
H4867 H 0.51618 0.35407 0.05263 0.0
H4868 H 0.50111 0.35518 0.07177 0.0
H4869 H 0.53107 0.41431 0.12232 0.0
H4870 H 0.53932 0.43554 0.09739 0.0
H4871 H 0.53944 0.38736 0.05495 0.0
C4872 C 0.52601 0.3404 0.11167 0.0
C4873 C 0.52375 0.34036 0.13192 0.0
C4874 C 0.52328 0.35761 0.14321 0.0
C4875 C 0.52524 0.37447 0.13469 0.0
C4876 C 0.52761 0.37399 0.11477 0.0
C4877 C 0.52792 0.35736 0.1034 0.0
C4878 C 0.53121 0.3607 0.08248 0.0
C4879 C 0.54934 0.35457 0.07719 0.0
C4880 C 0.51414 0.35071 0.06776 0.0
C4881 C 0.53324 0.38183 0.08397 0.0
C4882 C 0.53093 0.38927 0.10264 0.0
C4883 C 0.53274 0.40857 0.10761 0.0
C4884 C 0.53733 0.42056 0.09325 0.0
C4885 C 0.54015 0.41328 0.07407 0.0
C4886 C 0.53769 0.39355 0.06946 0.0
H4887 H 0.92968 0.28795 0.28779 0.0
H4888 H 0.93416 0.29861 0.35144 0.0
H4889 H 0.90001 0.2979 0.34929 0.0
H4890 H 0.89323 0.31509 0.27648 0.0
H4891 H 0.88064 0.29846 0.25619 0.0
H4892 H 0.90559 0.30037 0.26228 0.0
H4893 H 0.90021 0.26502 0.2653 0.0
H4894 H 0.87517 0.26282 0.25966 0.0
H4895 H 0.88469 0.25539 0.28208 0.0
H4896 H 0.86497 0.29545 0.34072 0.0
H4897 H 0.8317 0.29059 0.32636 0.0
H4898 H 0.84806 0.28125 0.26788 0.0
C4899 C 0.92346 0.29027 0.30125 0.0
C4900 C 0.9349 0.29348 0.31991 0.0
C4901 C 0.92594 0.29616 0.33705 0.0
C4902 C 0.90645 0.2958 0.33595 0.0
C4903 C 0.8956 0.29256 0.31752 0.0
C4904 C 0.90371 0.28974 0.30041 0.0
C4905 C 0.88843 0.28587 0.28258 0.0
C4906 C 0.89221 0.30084 0.26855 0.0
C4907 C 0.88704 0.2661 0.27176 0.0
C4908 C 0.87064 0.28722 0.29233 0.0
C4909 C 0.87521 0.29107 0.31254 0.0
C4910 C 0.86133 0.29252 0.32491 0.0
C4911 C 0.84237 0.28978 0.3166 0.0
C4912 C 0.83707 0.28579 0.29599 0.0
C4913 C 0.85157 0.28464 0.28368 0.0
H4914 H 0.03637 0.6452 0.635 0.0
H4915 H 0.99128 0.66117 0.59837 0.0
H4916 H 0.98918 0.63297 0.57507 0.0
H4917 H 0.05929 0.62777 0.59463 0.0
H4918 H 0.06557 0.60848 0.60637 0.0
H4919 H 0.06308 0.62947 0.62114 0.0
H4920 H 0.0388 0.60969 0.63954 0.0
H4921 H 0.04122 0.58868 0.62474 0.0
H4922 H 0.01837 0.5945 0.62564 0.0
H4923 H 0.99042 0.60211 0.55606 0.0
H4924 H 0.99796 0.57296 0.54052 0.0
H4925 H 0.0451 0.57796 0.58563 0.0
C4926 C 0.02607 0.6429 0.62207 0.0
C4927 C 0.01366 0.65564 0.61913 0.0
C4928 C 1.00053 0.65167 0.60176 0.0
C4929 C 0.9993 0.63561 0.58818 0.0
C4930 C 0.01141 0.62334 0.59171 0.0
C4931 C 0.02476 0.62685 0.60806 0.0
C4932 C 0.03643 0.61147 0.60779 0.0
C4933 C 0.05734 0.6198 0.60746 0.0
C4934 C 0.03354 0.60043 0.62548 0.0
C4935 C 0.02787 0.59915 0.58846 0.0
C4936 C 0.01312 0.60612 0.57979 0.0
C4937 C 1.00225 0.59685 0.5625 0.0
C4938 C 1.0068 0.58039 0.55354 0.0
C4939 C 0.02253 0.57349 0.5612 0.0
C4940 C 0.03304 0.58288 0.57921 0.0
H4941 H 0.64726 0.77812 0.82631 0.0
H4942 H 0.63857 0.82518 0.79516 0.0
H4943 H 0.66917 0.82635 0.78302 0.0
H4944 H 0.69765 0.79367 0.83983 0.0
H4945 H 0.70303 0.77061 0.83586 0.0
H4946 H 0.6804 0.77332 0.84274 0.0
H4947 H 0.6636 0.75093 0.81167 0.0
H4948 H 0.68636 0.74789 0.80568 0.0
H4949 H 0.67044 0.75544 0.78783 0.0
H4950 H 0.70218 0.82378 0.77499 0.0
H4951 H 0.73287 0.8157 0.76965 0.0
H4952 H 0.72049 0.76874 0.80317 0.0
C4953 C 0.6516 0.78864 0.81683 0.0
C4954 C 0.63999 0.80186 0.81232 0.0
C4955 C 0.64686 0.81522 0.79973 0.0
C4956 C 0.66441 0.81592 0.79247 0.0
C4957 C 0.67545 0.80304 0.79747 0.0
C4958 C 0.66923 0.78946 0.80919 0.0
C4959 C 0.68395 0.77714 0.81204 0.0
C4960 C 0.69171 0.77878 0.83392 0.0
C4961 C 0.67557 0.75663 0.80379 0.0
C4962 C 0.69922 0.7858 0.79998 0.0
C4963 C 0.69408 0.80094 0.79196 0.0
C4964 C 0.70615 0.8118 0.78105 0.0
C4965 C 0.72373 0.80712 0.77811 0.0
C4966 C 0.72935 0.79141 0.78564 0.0
C4967 C 0.7167 0.78064 0.79679 0.0
H4968 H 0.4681 0.53925 0.65774 0.0
H4969 H 0.49119 0.49205 0.67563 0.0
H4970 H 0.50605 0.49011 0.64521 0.0
H4971 H 0.45825 0.52318 0.60595 0.0
H4972 H 0.46555 0.54585 0.59795 0.0
H4973 H 0.45669 0.54417 0.62138 0.0
H4974 H 0.48722 0.56608 0.6389 0.0
H4975 H 0.49612 0.56787 0.61548 0.0
H4976 H 0.50963 0.56013 0.63531 0.0
H4977 H 0.51881 0.49298 0.61367 0.0
H4978 H 0.5287 0.5003 0.58186 0.0
H4979 H 0.49743 0.54524 0.58214 0.0
C4980 C 0.47639 0.52859 0.65533 0.0
C4981 C 0.47815 0.5156 0.66917 0.0
C4982 C 0.48914 0.50188 0.66525 0.0
C4983 C 0.49781 0.50074 0.64801 0.0
C4984 C 0.49558 0.51348 0.63466 0.0
C4985 C 0.48524 0.52722 0.63802 0.0
C4986 C 0.48529 0.53909 0.62097 0.0
C4987 C 0.46525 0.538 0.61097 0.0
C4988 C 0.49515 0.55951 0.62809 0.0
C4989 C 0.49685 0.5295 0.60735 0.0
C4990 C 0.5028 0.51496 0.61586 0.0
C4991 C 0.51415 0.50427 0.60682 0.0
C4992 C 0.51969 0.50855 0.58867 0.0
C4993 C 0.51371 0.52318 0.57929 0.0
C4994 C 0.50198 0.53377 0.58875 0.0
H4995 H 0.78982 0.18448 0.94788 0.0
H4996 H 0.7465 0.20265 0.97961 0.0
H4997 H 0.73622 0.21777 0.9513 0.0
H4998 H 0.79874 0.22604 0.91956 0.0
H4999 H 0.80197 0.21163 0.89779 0.0
H5000 H 0.80851 0.20537 0.92186 0.0
H5001 H 0.7871 0.1725 0.91219 0.0
H5002 H 0.78046 0.17865 0.88819 0.0
H5003 H 0.76261 0.17074 0.90346 0.0
H5004 H 0.72781 0.22728 0.91863 0.0
H5005 H 0.72153 0.22996 0.88306 0.0
H5006 H 0.76888 0.20427 0.87168 0.0
C5007 C 0.77838 0.19191 0.949 0.0
C5008 C 0.76914 0.19253 0.9661 0.0
C5009 C 0.75418 0.20237 0.96693 0.0
C5010 C 0.74815 0.21097 0.95087 0.0
C5011 C 0.75724 0.20966 0.93409 0.0
C5012 C 0.77209 0.20047 0.93303 0.0
C5013 C 0.77817 0.19954 0.91258 0.0
C5014 C 0.79803 0.21135 0.91297 0.0
C5015 C 0.777 0.17914 0.90359 0.0
C5016 C 0.76355 0.20844 0.90201 0.0
C5017 C 0.752 0.21471 0.91486 0.0
C5018 C 0.73688 0.22265 0.90846 0.0
C5019 C 0.73335 0.22401 0.88833 0.0
C5020 C 0.74467 0.21716 0.87495 0.0
C5021 C 0.76009 0.20953 0.88182 0.0
H5022 H 0.10872 0.55513 0.158 0.0
H5023 H 0.12252 0.49976 0.15241 0.0
H5024 H 0.1012 0.49102 0.12136 0.0
H5025 H 0.06069 0.54141 0.14041 0.0
H5026 H 0.05949 0.5609 0.12657 0.0
H5027 H 0.07664 0.56357 0.14796 0.0
H5028 H 0.10367 0.57413 0.12717 0.0
H5029 H 0.08648 0.57209 0.10594 0.0
H5030 H 0.1055 0.55961 0.10491 0.0
H5031 H 0.07828 0.48783 0.09229 0.0
H5032 H 0.05704 0.49161 0.06338 0.0
H5033 H 0.05745 0.54876 0.08795 0.0
C5034 C 0.10745 0.54132 0.14999 0.0
C5035 C 0.1169 0.52797 0.1575 0.0
C5036 C 0.11502 0.50999 0.14685 0.0
C5037 C 0.10301 0.50492 0.12931 0.0
C5038 C 0.09322 0.51809 0.12272 0.0
C5039 C 0.09553 0.53603 0.13241 0.0
C5040 C 0.08335 0.54744 0.1219 0.0
C5041 C 0.0692 0.55369 0.135 0.0
C5042 C 0.09548 0.56431 0.11454 0.0
C5043 C 0.07366 0.53294 0.10501 0.0
C5044 C 0.07961 0.51614 0.10582 0.0
C5045 C 0.07344 0.50086 0.09141 0.0
C5046 C 0.06141 0.5031 0.07519 0.0
C5047 C 0.05578 0.52041 0.0738 0.0
C5048 C 0.06139 0.5353 0.08909 0.0
H5049 H 0.77226 0.83841 0.41655 0.0
H5050 H 0.81321 0.80913 0.44274 0.0
H5051 H 0.81556 0.79338 0.40993 0.0
H5052 H 0.7488 0.79914 0.37886 0.0
H5053 H 0.74504 0.81422 0.3603 0.0
H5054 H 0.74579 0.8227 0.38598 0.0
H5055 H 0.77223 0.85075 0.38231 0.0
H5056 H 0.77157 0.84225 0.35667 0.0
H5057 H 0.79336 0.84633 0.37283 0.0
H5058 H 0.81399 0.78091 0.37422 0.0
H5059 H 0.80858 0.77279 0.33826 0.0
H5060 H 0.76936 0.81054 0.33427 0.0
C5061 C 0.78153 0.82849 0.41543 0.0
C5062 C 0.79267 0.82521 0.43242 0.0
C5063 C 0.80476 0.81223 0.43009 0.0
C5064 C 0.80611 0.80307 0.41146 0.0
C5065 C 0.79524 0.80686 0.39507 0.0
C5066 C 0.78309 0.81919 0.39682 0.0
C5067 C 0.77332 0.82098 0.37664 0.0
C5068 C 0.75197 0.81384 0.37538 0.0
C5069 C 0.7779 0.84129 0.37183 0.0
C5070 C 0.78216 0.80805 0.36334 0.0
C5071 C 0.79461 0.79992 0.37434 0.0
C5072 C 0.80435 0.78733 0.36547 0.0
C5073 C 0.80133 0.78293 0.34488 0.0
C5074 C 0.78892 0.79129 0.33309 0.0
C5075 C 0.77912 0.80397 0.34265 0.0
H5076 H 0.47784 0.4975 0.87524 0.0
H5077 H 0.49423 0.55681 0.86957 0.0
H5078 H 0.50842 0.56275 0.90413 0.0
H5079 H 0.46646 0.50249 0.92429 0.0
H5080 H 0.47622 0.48306 0.93183 0.0
H5081 H 0.4676 0.48309 0.90634 0.0
H5082 H 0.49998 0.47871 0.89636 0.0
H5083 H 0.50864 0.47876 0.92188 0.0
H5084 H 0.52091 0.49515 0.90742 0.0
H5085 H 0.51925 0.56298 0.93972 0.0
H5086 H 0.52686 0.55706 0.97382 0.0
H5087 H 0.50555 0.49773 0.9572 0.0
C5088 C 0.48467 0.51171 0.8811 0.0
C5089 C 0.48457 0.5267 0.86944 0.0
C5090 C 0.49356 0.54507 0.87805 0.0
C5091 C 0.50189 0.54861 0.89772 0.0
C5092 C 0.50149 0.53364 0.90876 0.0
C5093 C 0.49329 0.5155 0.90079 0.0
C5094 C 0.49469 0.50205 0.91617 0.0
C5095 C 0.47507 0.49209 0.91987 0.0
C5096 C 0.50677 0.48782 0.91009 0.0
C5097 C 0.50452 0.51556 0.93408 0.0
C5098 C 0.50832 0.5337 0.92936 0.0
C5099 C 0.51647 0.5488 0.9435 0.0
C5100 C 0.52064 0.54534 0.96297 0.0
C5101 C 0.51679 0.527 0.96834 0.0
C5102 C 0.50889 0.51186 0.95356 0.0
H5103 H 0.79388 0.20998 0.1443 0.0
H5104 H 0.74569 0.16781 0.15263 0.0
H5105 H 0.74346 0.18552 0.18442 0.0
H5106 H 0.81511 0.21725 0.19513 0.0
H5107 H 0.82324 0.24207 0.19505 0.0
H5108 H 0.82091 0.22634 0.17261 0.0
H5109 H 0.7991 0.24558 0.15526 0.0
H5110 H 0.80138 0.26136 0.17765 0.0
H5111 H 0.7784 0.24959 0.16593 0.0
H5112 H 0.74412 0.20948 0.21272 0.0
H5113 H 0.75042 0.23638 0.23855 0.0
H5114 H 0.80127 0.25971 0.21535 0.0
C5115 C 0.78305 0.20426 0.15292 0.0
C5116 C 0.76987 0.1876 0.14592 0.0
C5117 C 0.75568 0.18079 0.1575 0.0
C5118 C 0.75438 0.19063 0.17563 0.0
C5119 C 0.76758 0.207 0.18203 0.0
C5120 C 0.78179 0.21366 0.17121 0.0
C5121 C 0.7942 0.2316 0.18156 0.0
C5122 C 0.81457 0.22915 0.18638 0.0
C5123 C 0.7932 0.24799 0.16938 0.0
C5124 C 0.78478 0.23383 0.19997 0.0
C5125 C 0.76923 0.2197 0.19971 0.0
C5126 C 0.75686 0.22002 0.21376 0.0
C5127 C 0.76077 0.23505 0.22875 0.0
C5128 C 0.7773 0.2488 0.23011 0.0
C5129 C 0.78923 0.24849 0.2153 0.0
H5130 H 0.1155 0.51577 0.34025 0.0
H5131 H 0.16142 0.56289 0.35995 0.0
H5132 H 0.1477 0.56898 0.39082 0.0
H5133 H 0.08127 0.53726 0.3537 0.0
H5134 H 0.06654 0.51749 0.36172 0.0
H5135 H 0.08212 0.51368 0.34378 0.0
H5136 H 0.0976 0.49271 0.36592 0.0
H5137 H 0.08189 0.49632 0.38396 0.0
H5138 H 0.10695 0.50175 0.39106 0.0
H5139 H 0.12687 0.57312 0.41627 0.0
H5140 H 0.09962 0.57584 0.43419 0.0
H5141 H 0.0666 0.52668 0.3974 0.0
C5142 C 0.12299 0.52682 0.35152 0.0
C5143 C 0.13956 0.5387 0.34815 0.0
C5144 C 0.14878 0.55357 0.36262 0.0
C5145 C 0.14116 0.55703 0.38016 0.0
C5146 C 0.12439 0.54545 0.38285 0.0
C5147 C 0.11543 0.53058 0.36898 0.0
C5148 C 0.09622 0.52211 0.374 0.0
C5149 C 0.08064 0.52269 0.35731 0.0
C5150 C 0.09564 0.50203 0.37904 0.0
C5151 C 0.0953 0.53532 0.39208 0.0
C5152 C 0.11191 0.54829 0.39732 0.0
C5153 C 0.11392 0.56283 0.4126 0.0
C5154 C 0.0984 0.5643 0.42261 0.0
C5155 C 0.08112 0.55151 0.41699 0.0
C5156 C 0.0797 0.53665 0.40184 0.0
H5157 H 0.79916 0.85219 0.65096 0.0
H5158 H 0.76548 0.80479 0.61189 0.0
H5159 H 0.75828 0.78831 0.6405 0.0
H5160 H 0.8186 0.82446 0.68621 0.0
H5161 H 0.81781 0.84075 0.70747 0.0
H5162 H 0.82067 0.84909 0.68396 0.0
H5163 H 0.79146 0.86427 0.68632 0.0
H5164 H 0.78851 0.85586 0.70978 0.0
H5165 H 0.76942 0.84996 0.69001 0.0
H5166 H 0.75387 0.77697 0.67307 0.0
H5167 H 0.75423 0.77078 0.70747 0.0
H5168 H 0.79045 0.82497 0.72655 0.0
C5169 C 0.7904 0.83828 0.64842 0.0
C5170 C 0.78275 0.82994 0.62899 0.0
C5171 C 0.77126 0.81172 0.62648 0.0
C5172 C 0.76712 0.80216 0.64269 0.0
C5173 C 0.77456 0.81087 0.66155 0.0
C5174 C 0.78603 0.82847 0.66458 0.0
C5175 C 0.7921 0.83447 0.68656 0.0
C5176 C 0.81357 0.83737 0.69132 0.0
C5177 C 0.78494 0.8522 0.69357 0.0
C5178 C 0.78224 0.81751 0.69528 0.0
C5179 C 0.77226 0.8041 0.68051 0.0
C5180 C 0.76199 0.78724 0.68471 0.0
C5181 C 0.76248 0.78368 0.70441 0.0
C5182 C 0.77331 0.79664 0.71994 0.0
C5183 C 0.78267 0.81422 0.71521 0.0
H5184 H 0.70823 0.4884 0.48471 0.0
H5185 H 0.69643 0.43263 0.50221 0.0
H5186 H 0.66803 0.43939 0.51577 0.0
H5187 H 0.69932 0.51181 0.52445 0.0
H5188 H 0.68768 0.52859 0.51345 0.0
H5189 H 0.70385 0.51798 0.50038 0.0
H5190 H 0.67818 0.50604 0.47061 0.0
H5191 H 0.66185 0.51693 0.48344 0.0
H5192 H 0.65587 0.4923 0.47432 0.0
H5193 H 0.64679 0.4545 0.53445 0.0
H5194 H 0.63154 0.47628 0.55418 0.0
H5195 H 0.6559 0.52184 0.52336 0.0
C5196 C 0.699 0.47739 0.49045 0.0
C5197 C 0.70401 0.45996 0.49217 0.0
C5198 C 0.69229 0.44589 0.50037 0.0
C5199 C 0.67623 0.44963 0.50812 0.0
C5200 C 0.67201 0.46731 0.50705 0.0
C5201 C 0.68277 0.48082 0.49794 0.0
C5202 C 0.67653 0.49937 0.50079 0.0
C5203 C 0.69282 0.51535 0.51035 0.0
C5204 C 0.66757 0.50393 0.48112 0.0
C5205 C 0.66197 0.4947 0.51457 0.0
C5206 C 0.65922 0.47602 0.51763 0.0
C5207 C 0.64827 0.46898 0.5317 0.0
C5208 C 0.63989 0.48138 0.54295 0.0
C5209 C 0.64275 0.50046 0.54002 0.0
C5210 C 0.65352 0.50715 0.52549 0.0
H5211 H 0.1737 0.0933 0.53058 0.0
H5212 H 0.16097 0.117 0.47652 0.0
H5213 H 0.12891 0.09824 0.4724 0.0
H5214 H 0.14574 0.0465 0.51483 0.0
H5215 H 0.13751 0.04359 0.5384 0.0
H5216 H 0.16002 0.0583 0.53713 0.0
H5217 H 0.14977 0.08617 0.5566 0.0
H5218 H 0.12732 0.07147 0.55803 0.0
H5219 H 0.1284 0.09326 0.54769 0.0
H5220 H 0.09821 0.07806 0.47408 0.0
H5221 H 0.06964 0.05819 0.48229 0.0
H5222 H 0.10077 0.04706 0.53552 0.0
C5223 C 0.16417 0.09457 0.51789 0.0
C5224 C 0.17016 0.10649 0.50368 0.0
C5225 C 0.1571 0.10767 0.48734 0.0
C5226 C 0.13873 0.09713 0.48491 0.0
C5227 C 0.13341 0.08543 0.49896 0.0
C5228 C 0.14562 0.08411 0.51522 0.0
C5229 C 0.13587 0.07075 0.52834 0.0
C5230 C 0.14536 0.05378 0.52976 0.0
C5231 C 0.13531 0.08103 0.54888 0.0
C5232 C 0.11629 0.06493 0.51692 0.0
C5233 C 0.11535 0.07359 0.49999 0.0
C5234 C 0.09879 0.07109 0.48722 0.0
C5235 C 0.08264 0.05974 0.49201 0.0
C5236 C 0.08302 0.05092 0.50941 0.0
C5237 C 0.10018 0.0533 0.5219 0.0
H5238 H 0.20215 0.96232 0.79961 0.0
H5239 H 0.16169 0.94463 0.74721 0.0
H5240 H 0.17518 0.91659 0.7401 0.0
H5241 H 0.24043 0.95026 0.78053 0.0
H5242 H 0.25006 0.94145 0.80204 0.0
H5243 H 0.23565 0.95875 0.8047 0.0
H5244 H 0.21335 0.93682 0.82333 0.0
H5245 H 0.22776 0.91941 0.82072 0.0
H5246 H 0.20301 0.91334 0.812 0.0
H5247 H 0.19481 0.89221 0.73674 0.0
H5248 H 0.2202 0.87392 0.73698 0.0
H5249 H 0.24796 0.9073 0.79123 0.0
C5250 C 0.19581 0.9523 0.78694 0.0
C5251 C 0.18093 0.95578 0.7739 0.0
C5252 C 0.17327 0.94245 0.75726 0.0
C5253 C 0.1807 0.92635 0.7532 0.0
C5254 C 0.19563 0.92356 0.76607 0.0
C5255 C 0.20303 0.93607 0.7827 0.0
C5256 C 0.21997 0.93045 0.7933 0.0
C5257 C 0.23756 0.94616 0.79523 0.0
C5258 C 0.21577 0.92467 0.81354 0.0
C5259 C 0.22166 0.91363 0.77931 0.0
C5260 C 0.20712 0.90953 0.76403 0.0
C5261 C 0.2061 0.89509 0.74879 0.0
C5262 C 0.22051 0.88481 0.74901 0.0
C5263 C 0.23579 0.88929 0.76416 0.0
C5264 C 0.23624 0.90363 0.77963 0.0
H5265 H 0.40005 0.99591 0.04338 0.0
H5266 H 0.39025 0.95523 0.99107 0.0
H5267 H 0.42442 0.95793 0.99093 0.0
H5268 H 0.43734 0.02597 0.02774 0.0
H5269 H 0.45042 0.03276 0.0519 0.0
H5270 H 0.42532 0.0253 0.04941 0.0
H5271 H 0.42984 1.0007 0.07283 0.0
H5272 H 0.45512 0.00669 0.07433 0.0
H5273 H 0.44289 0.98293 0.06619 0.0
H5274 H 0.45821 0.96707 0.9938 0.0
H5275 H 0.48997 0.98639 0.996 0.0
H5276 H 0.47908 0.02138 0.04644 0.0
C5277 C 0.40526 0.98748 0.03212 0.0
C5278 C 0.39285 0.97535 0.01727 0.0
C5279 C 0.3998 0.96466 0.00247 0.0
C5280 C 0.41908 0.96587 0.00247 0.0
C5281 C 0.4311 0.97781 0.0174 0.0
C5282 C 0.42455 0.98874 0.03173 0.0
C5283 C 0.44054 1.00238 0.0443 0.0
C5284 C 0.43827 0.0228 0.04325 0.0
C5285 C 0.44221 0.99792 0.06569 0.0
C5286 C 0.45695 0.99799 0.03413 0.0
C5287 C 0.45118 0.98329 0.01909 0.0
C5288 C 0.46311 0.97819 0.00586 0.0
C5289 C 0.48111 0.98911 0.00726 0.0
C5290 C 0.48681 0.00478 0.02175 0.0
C5291 C 0.47504 0.00886 0.03587 0.0
H5292 H 0.85469 0.61331 0.80782 0.0
H5293 H 0.7994 0.5778 0.80314 0.0
H5294 H 0.78525 0.60267 0.78968 0.0
H5295 H 0.83898 0.66023 0.81786 0.0
H5296 H 0.85609 0.67108 0.8032 0.0
H5297 H 0.86105 0.65264 0.81718 0.0
H5298 H 0.86773 0.63445 0.78515 0.0
H5299 H 0.86194 0.65229 0.77086 0.0
H5300 H 0.84962 0.62834 0.76438 0.0
H5301 H 0.7782 0.62771 0.77064 0.0
H5302 H 0.77767 0.6549 0.75216 0.0
H5303 H 0.83771 0.67382 0.76863 0.0
C5304 C 0.83951 0.61132 0.80517 0.0
C5305 C 0.82799 0.59395 0.80672 0.0
C5306 C 0.80827 0.59128 0.8023 0.0
C5307 C 0.80018 0.60522 0.79453 0.0
C5308 C 0.81209 0.62167 0.79163 0.0
C5309 C 0.83128 0.62505 0.79731 0.0
C5310 C 0.84115 0.64291 0.7905 0.0
C5311 C 0.84982 0.65759 0.80824 0.0
C5312 C 0.85597 0.63925 0.77692 0.0
C5313 C 0.82467 0.64845 0.77922 0.0
C5314 C 0.80804 0.6361 0.78019 0.0
C5315 C 0.79105 0.63771 0.77008 0.0
C5316 C 0.79093 0.65292 0.7594 0.0
C5317 C 0.80772 0.66609 0.75891 0.0
C5318 C 0.82482 0.66366 0.76858 0.0
H5319 H 0.86417 0.63258 0.0408 0.0
H5320 H 0.83878 0.60046 0.9848 0.0
H5321 H 0.86487 0.58328 0.98524 0.0
H5322 H 0.91296 0.63561 0.03279 0.0
H5323 H 0.92036 0.63265 0.0579 0.0
H5324 H 0.90053 0.6435 0.05238 0.0
H5325 H 0.87963 0.61901 0.06969 0.0
H5326 H 0.89943 0.60825 0.07542 0.0
H5327 H 0.878 0.59437 0.06207 0.0
H5328 H 0.89302 0.56787 0.99314 0.0
H5329 H 0.91917 0.55493 0.0088 0.0
H5330 H 0.92576 0.59747 0.05913 0.0
C5331 C 0.86398 0.62193 0.02859 0.0
C5332 C 0.84932 0.61803 0.01272 0.0
C5333 C 0.84994 0.60405 0.99699 0.0
C5334 C 0.8647 0.59412 0.99713 0.0
C5335 C 0.87883 0.59829 0.01307 0.0
C5336 C 0.87852 0.61185 0.02853 0.0
C5337 C 0.89472 0.61302 0.04448 0.0
C5338 C 0.90792 0.63235 0.04703 0.0
C5339 C 0.88751 0.60838 0.06406 0.0
C5340 C 0.90409 0.59786 0.03573 0.0
C5341 C 0.89486 0.58955 0.01755 0.0
C5342 C 0.90046 0.57443 0.00729 0.0
C5343 C 0.91542 0.56725 0.01619 0.0
C5344 C 0.92449 0.57515 0.03518 0.0
C5345 C 0.91909 0.59108 0.04461 0.0
H5346 H 0.21241 0.13723 0.76454 0.0
H5347 H 0.19768 0.14771 0.82381 0.0
H5348 H 0.21704 0.17945 0.82739 0.0
H5349 H 0.26056 0.16374 0.77422 0.0
H5350 H 0.26 0.17305 0.75093 0.0
H5351 H 0.2456 0.1506 0.75296 0.0
H5352 H 0.21594 0.16227 0.7395 0.0
H5353 H 0.23028 0.18469 0.73736 0.0
H5354 H 0.21069 0.18343 0.75153 0.0
H5355 H 0.2365 0.21037 0.82448 0.0
H5356 H 0.25476 0.23921 0.81492 0.0
H5357 H 0.25766 0.20983 0.75756 0.0
C5358 C 0.21323 0.14619 0.77828 0.0
C5359 C 0.20362 0.13968 0.79401 0.0
C5360 C 0.20519 0.152 0.8117 0.0
C5361 C 0.21609 0.17017 0.81385 0.0
C5362 C 0.22541 0.17604 0.79819 0.0
C5363 C 0.22411 0.16451 0.7807 0.0
C5364 C 0.23524 0.17469 0.76604 0.0
C5365 C 0.2513 0.16493 0.76073 0.0
C5366 C 0.22226 0.17637 0.74751 0.0
C5367 C 0.24284 0.19374 0.77803 0.0
C5368 C 0.23695 0.1941 0.79655 0.0
C5369 C 0.24133 0.21022 0.8101 0.0
C5370 C 0.25172 0.22654 0.80453 0.0
C5371 C 0.25778 0.22668 0.78561 0.0
C5372 C 0.25356 0.20997 0.77228 0.0
H5373 H 0.3113 0.91472 0.25806 0.0
H5374 H 0.34393 0.92652 0.31588 0.0
H5375 H 0.33733 0.89288 0.3197 0.0
H5376 H 0.2751 0.87891 0.27098 0.0
H5377 H 0.27223 0.8645 0.24756 0.0
H5378 H 0.2799 0.88953 0.249 0.0
H5379 H 0.3094 0.88458 0.23252 0.0
H5380 H 0.30184 0.85954 0.23121 0.0
H5381 H 0.3248 0.87077 0.2434 0.0
H5382 H 0.32817 0.85877 0.31723 0.0
H5383 H 0.31432 0.82497 0.3094 0.0
H5384 H 0.28617 0.83516 0.25414 0.0
C5385 C 0.31693 0.91009 0.27148 0.0
C5386 C 0.3279 0.92293 0.28678 0.0
C5387 C 0.33521 0.9167 0.3042 0.0
C5388 C 0.3317 0.89771 0.30642 0.0
C5389 C 0.32082 0.88534 0.29111 0.0
C5390 C 0.31335 0.89117 0.27406 0.0
C5391 C 0.30157 0.87488 0.26024 0.0
C5392 C 0.28098 0.87709 0.25675 0.0
C5393 C 0.30991 0.8723 0.24069 0.0
C5394 C 0.30357 0.8591 0.27232 0.0
C5395 C 0.31495 0.86546 0.28995 0.0
C5396 C 0.31914 0.85357 0.30356 0.0
C5397 C 0.31124 0.83455 0.29908 0.0
C5398 C 0.29918 0.82802 0.28142 0.0
C5399 C 0.29533 0.84021 0.26779 0.0
H5400 H 0.54474 0.40088 0.58774 0.0
H5401 H 0.55411 0.37338 0.53164 0.0
H5402 H 0.5507 0.40166 0.51619 0.0
H5403 H 0.50977 0.42645 0.56659 0.0
H5404 H 0.51783 0.44714 0.58415 0.0
H5405 H 0.52028 0.42448 0.59098 0.0
H5406 H 0.55603 0.43675 0.60062 0.0
H5407 H 0.55359 0.4594 0.59383 0.0
H5408 H 0.56995 0.4471 0.58281 0.0
H5409 H 0.54473 0.43314 0.50582 0.0
H5410 H 0.54032 0.46553 0.50277 0.0
H5411 H 0.53719 0.47446 0.56551 0.0
C5412 C 0.54598 0.40066 0.57217 0.0
C5413 C 0.5499 0.3844 0.56116 0.0
C5414 C 0.55149 0.38532 0.54079 0.0
C5415 C 0.54938 0.40145 0.53171 0.0
C5416 C 0.54565 0.41708 0.54293 0.0
C5417 C 0.54408 0.41689 0.56279 0.0
C5418 C 0.5404 0.43585 0.57151 0.0
C5419 C 0.52092 0.43333 0.57875 0.0
C5420 C 0.55592 0.44533 0.58818 0.0
C5421 C 0.54083 0.44687 0.55369 0.0
C5422 C 0.54331 0.43553 0.53721 0.0
C5423 C 0.54307 0.44213 0.51877 0.0
C5424 C 0.54052 0.46066 0.51714 0.0
C5425 C 0.53877 0.47299 0.53387 0.0
C5426 C 0.53888 0.46576 0.55241 0.0
H5427 H 0.40386 0.78605 0.37699 0.0
H5428 H 0.41217 0.73182 0.35137 0.0
H5429 H 0.38378 0.72884 0.32793 0.0
H5430 H 0.35313 0.77501 0.37198 0.0
H5431 H 0.35018 0.79754 0.3652 0.0
H5432 H 0.37108 0.79557 0.38054 0.0
H5433 H 0.39173 0.81095 0.3558 0.0
H5434 H 0.37088 0.81306 0.34047 0.0
H5435 H 0.38781 0.80101 0.33028 0.0
H5436 H 0.3543 0.73143 0.30654 0.0
H5437 H 0.3264 0.73989 0.28885 0.0
H5438 H 0.33699 0.79285 0.32661 0.0
C5439 C 0.39988 0.77355 0.36642 0.0
C5440 C 0.41052 0.75903 0.3666 0.0
C5441 C 0.40434 0.74299 0.3523 0.0
C5442 C 0.38817 0.7412 0.33864 0.0
C5443 C 0.37806 0.75561 0.33903 0.0
C5444 C 0.3837 0.77156 0.35247 0.0
C5445 C 0.37033 0.78508 0.3494 0.0
C5446 C 0.36061 0.7885 0.36788 0.0
C5447 C 0.38082 0.80362 0.34365 0.0
C5448 C 0.35628 0.77418 0.33225 0.0
C5449 C 0.36107 0.75719 0.32654 0.0
C5450 C 0.35043 0.74467 0.31098 0.0
C5451 C 0.33456 0.74956 0.301 0.0
C5452 C 0.32926 0.76682 0.3065 0.0
C5453 C 0.3404 0.77935 0.32231 0.0
H5454 H 0.04024 0.67663 0.03637 0.0
H5455 H 0.06517 0.6815 0.09719 0.0
H5456 H 0.0645 0.64758 0.09372 0.0
H5457 H 0.00952 0.63085 0.03543 0.0
H5458 H 0.0129 0.62215 0.01083 0.0
H5459 H 0.01498 0.64697 0.01769 0.0
H5460 H 0.04839 0.653 0.007 0.0
H5461 H 0.04636 0.62818 1.0002 0.0
H5462 H 0.06579 0.64108 0.0175 0.0
H5463 H 0.06004 0.61275 0.08474 0.0
H5464 H 0.05317 0.57957 0.07028 0.0
H5465 H 0.0331 0.59544 0.01415 0.0
C5466 C 0.04553 0.67055 0.04897 0.0
C5467 C 0.05292 0.68216 0.06714 0.0
C5468 C 0.0597 0.67333 0.08308 0.0
C5469 C 0.0593 0.6539 0.08127 0.0
C5470 C 0.05221 0.64299 0.0633 0.0
C5471 C 0.04552 0.65092 0.04731 0.0
C5472 C 0.03892 0.63566 0.02963 0.0
C5473 C 0.01783 0.63381 0.023 0.0
C5474 C 0.05056 0.63973 0.01257 0.0
C5475 C 0.04282 0.61805 0.03827 0.0
C5476 C 0.05035 0.62274 0.05781 0.0
C5477 C 0.05433 0.60902 0.0694 0.0
C5478 C 0.05038 0.59011 0.06101 0.0
C5479 C 0.04288 0.58471 0.04097 0.0
C5480 C 0.03922 0.59904 0.02939 0.0
H5481 H 0.10283 0.25633 0.88209 0.0
H5482 H 0.08036 0.30286 0.86178 0.0
H5483 H 0.10659 0.30967 0.84182 0.0
H5484 H 0.15052 0.27845 0.88767 0.0
H5485 H 0.15902 0.25778 0.87925 0.0
H5486 H 0.13757 0.2555 0.89041 0.0
H5487 H 0.11986 0.23377 0.85942 0.0
H5488 H 0.14129 0.23609 0.8481 0.0
H5489 H 0.12063 0.24188 0.83557 0.0
H5490 H 0.13615 0.31208 0.82463 0.0
H5491 H 0.16788 0.31173 0.81473 0.0
H5492 H 0.17171 0.26457 0.84718 0.0
C5493 C 0.10325 0.26776 0.8732 0.0
C5494 C 0.08942 0.27903 0.87354 0.0
C5495 C 0.09079 0.29409 0.86194 0.0
C5496 C 0.10559 0.29798 0.85039 0.0
C5497 C 0.11903 0.28671 0.85049 0.0
C5498 C 0.11805 0.27196 0.86169 0.0
C5499 C 0.13495 0.26275 0.86021 0.0
C5500 C 0.14618 0.26369 0.8806 0.0
C5501 C 0.12881 0.24241 0.85024 0.0
C5502 C 0.14591 0.27501 0.84705 0.0
C5503 C 0.13627 0.28846 0.84115 0.0
C5504 C 0.14375 0.30154 0.82911 0.0
C5505 C 0.16173 0.30119 0.82344 0.0
C5506 C 0.17219 0.28809 0.83011 0.0
C5507 C 0.16396 0.27466 0.84178 0.0
H5508 H 0.52731 0.69977 0.90046 0.0
H5509 H 0.55692 0.73878 0.95044 0.0
H5510 H 0.55641 0.71261 0.97062 0.0
H5511 H 0.49667 0.67126 0.92687 0.0
H5512 H 0.49741 0.64961 0.91216 0.0
H5513 H 0.50124 0.6713 0.90157 0.0
H5514 H 0.5332 0.66496 0.89205 0.0
H5515 H 0.52956 0.64334 0.90288 0.0
H5516 H 0.55054 0.66092 0.91088 0.0
H5517 H 0.5506 0.68175 0.98615 0.0
H5518 H 0.53913 0.64999 0.99519 0.0
H5519 H 0.51446 0.63143 0.9347 0.0
C5520 C 0.53369 0.70285 0.91565 0.0
C5521 C 0.54216 0.72143 0.92378 0.0
C5522 C 0.55052 0.72469 0.94372 0.0
C5523 C 0.55028 0.70989 0.95535 0.0
C5524 C 0.5418 0.69175 0.94686 0.0
C5525 C 0.53373 0.68821 0.92741 0.0
C5526 C 0.52506 0.6676 0.92187 0.0
C5527 C 0.50384 0.66479 0.91523 0.0
C5528 C 0.5352 0.65868 0.90598 0.0
C5529 C 0.52886 0.66018 0.94136 0.0
C5530 C 0.53873 0.6742 0.95561 0.0
C5531 C 0.54301 0.67066 0.975 0.0
C5532 C 0.53654 0.65252 0.98 0.0
C5533 C 0.52578 0.63814 0.96571 0.0
C5534 C 0.52248 0.64208 0.94605 0.0
H5535 H 0.12949 0.74227 0.75248 0.0
H5536 H 0.12983 0.78438 0.71225 0.0
H5537 H 0.16427 0.78967 0.71513 0.0
H5538 H 0.17224 0.76736 0.78448 0.0
H5539 H 0.18103 0.74654 0.78905 0.0
H5540 H 0.15608 0.74535 0.7839 0.0
H5541 H 0.15436 0.71912 0.75514 0.0
H5542 H 0.17933 0.7204 0.76026 0.0
H5543 H 0.16925 0.72322 0.73597 0.0
H5544 H 0.19837 0.79046 0.72105 0.0
H5545 H 0.2309 0.78888 0.73192 0.0
H5546 H 0.21161 0.74748 0.7703 0.0
C5547 C 0.13683 0.75256 0.74424 0.0
C5548 C 0.12652 0.76298 0.73212 0.0
C5549 C 0.13699 0.77636 0.72181 0.0
C5550 C 0.15672 0.7794 0.72324 0.0
C5551 C 0.16635 0.76909 0.7352 0.0
C5552 C 0.15691 0.75605 0.74576 0.0
C5553 C 0.17128 0.74755 0.75806 0.0
C5554 C 0.17008 0.75196 0.78019 0.0
C5555 C 0.16837 0.7263 0.75199 0.0
C5556 C 0.19008 0.75774 0.75252 0.0
C5557 C 0.18661 0.76996 0.73917 0.0
C5558 C 0.20122 0.78101 0.73159 0.0
C5559 C 0.21985 0.77996 0.73796 0.0
C5560 C 0.22432 0.7681 0.75213 0.0
C5561 C 0.20897 0.75657 0.75932 0.0
H5562 H 0.02539 0.40775 0.41878 0.0
H5563 H 0.07611 0.39541 0.44892 0.0
H5564 H 0.07972 0.4242 0.47182 0.0
H5565 H 0.04081 0.45848 0.42427 0.0
H5566 H 0.01824 0.46342 0.42887 0.0
H5567 H 0.01959 0.44205 0.414 0.0
H5568 H 1.0002 0.42257 0.43702 0.0
H5569 H 0.99864 0.4439 0.45181 0.0
H5570 H 0.00799 0.42585 0.4631 0.0
H5571 H 0.07838 0.45466 0.49196 0.0
H5572 H 0.07089 0.48339 0.50875 0.0
H5573 H 0.01986 0.47573 0.46819 0.0
C5574 C 0.03724 0.41097 0.43021 0.0
C5575 C 0.05067 0.39905 0.43145 0.0
C5576 C 0.06588 0.40422 0.44687 0.0
C5577 C 0.06801 0.42063 0.46022 0.0
C5578 C 0.05478 0.43205 0.45839 0.0
C5579 C 0.03956 0.4274 0.4439 0.0
C5580 C 0.02715 0.44206 0.44567 0.0
C5581 C 0.0264 0.45209 0.42709 0.0
C5582 C 0.00732 0.43305 0.44964 0.0
C5583 C 0.0377 0.45548 0.46349 0.0
C5584 C 0.05373 0.44948 0.47041 0.0
C5585 C 0.06586 0.45945 0.48662 0.0
C5586 C 0.06149 0.4758 0.49612 0.0
C5587 C 0.04501 0.48218 0.48971 0.0
C5588 C 0.03292 0.47175 0.47312 0.0
H5589 H 0.41815 0.24708 0.25309 0.0
H5590 H 0.42203 0.28477 0.20813 0.0
H5591 H 0.39134 0.2919 0.2141 0.0
H5592 H 0.36734 0.22917 0.24227 0.0
H5593 H 0.36343 0.22818 0.26765 0.0
H5594 H 0.38584 0.22557 0.26004 0.0
H5595 H 0.40258 0.253 0.2864 0.0
H5596 H 0.3802 0.25566 0.29404 0.0
H5597 H 0.39553 0.27537 0.28665 0.0
H5598 H 0.35893 0.29381 0.22307 0.0
H5599 H 0.32847 0.29196 0.23625 0.0
H5600 H 0.34497 0.25565 0.27791 0.0
C5601 C 0.41255 0.2568 0.24445 0.0
C5602 C 0.42305 0.26543 0.23012 0.0
C5603 C 0.41486 0.27812 0.21938 0.0
C5604 C 0.39719 0.28221 0.22259 0.0
C5605 C 0.38739 0.27369 0.23677 0.0
C5606 C 0.39477 0.26132 0.24768 0.0
C5607 C 0.38112 0.25439 0.26221 0.0
C5608 C 0.37402 0.23306 0.25778 0.0
C5609 C 0.39042 0.25994 0.28359 0.0
C5610 C 0.36511 0.26485 0.25778 0.0
C5611 C 0.369 0.27567 0.24279 0.0
C5612 C 0.35599 0.28568 0.23509 0.0
C5613 C 0.33868 0.28467 0.2428 0.0
C5614 C 0.33442 0.27432 0.25866 0.0
C5615 C 0.34795 0.26421 0.26622 0.0
H5616 H 0.58682 0.5558 0.39256 0.0
H5617 H 0.57742 0.49614 0.37242 0.0
H5618 H 0.5643 0.48922 0.40301 0.0
H5619 H 0.59916 0.5531 0.44393 0.0
H5620 H 0.58695 0.57115 0.45218 0.0
H5621 H 0.59605 0.57131 0.42881 0.0
H5622 H 0.56266 0.57171 0.41194 0.0
H5623 H 0.55367 0.5712 0.4354 0.0
H5624 H 0.54321 0.5535 0.41512 0.0
H5625 H 0.55443 0.48839 0.43707 0.0
H5626 H 0.54518 0.4941 0.47053 0.0
H5627 H 0.55678 0.55392 0.46728 0.0
C5628 C 0.5818 0.54127 0.39436 0.0
C5629 C 0.58367 0.52656 0.37994 0.0
C5630 C 0.57688 0.50776 0.38328 0.0
C5631 C 0.56919 0.50363 0.40063 0.0
C5632 C 0.56796 0.51839 0.41462 0.0
C5633 C 0.57376 0.53685 0.41157 0.0
C5634 C 0.57055 0.55004 0.42895 0.0
C5635 C 0.5893 0.5621 0.43906 0.0
C5636 C 0.55669 0.56234 0.42246 0.0
C5637 C 0.56208 0.5361 0.44219 0.0
C5638 C 0.56103 0.5179 0.43375 0.0
C5639 C 0.55494 0.50258 0.44369 0.0
C5640 C 0.54977 0.50592 0.46269 0.0
C5641 C 0.55013 0.52438 0.47137 0.0
C5642 C 0.55623 0.53965 0.46089 0.0
H5643 H 0.29913 0.89232 0.10564 0.0
H5644 H 0.26741 0.84323 0.06799 0.0
H5645 H 0.27088 0.82392 0.09531 0.0
H5646 H 0.33251 0.87194 0.1271 0.0
H5647 H 0.33455 0.88449 0.15145 0.0
H5648 H 0.32667 0.89487 0.13037 0.0
H5649 H 0.29622 0.89879 0.14543 0.0
H5650 H 0.30411 0.88858 0.16676 0.0
H5651 H 0.28151 0.87869 0.15289 0.0
H5652 H 0.28186 0.80963 0.12508 0.0
H5653 H 0.2987 0.80157 0.15513 0.0
H5654 H 0.32281 0.86045 0.17293 0.0
C5655 C 0.29245 0.87761 0.10345 0.0
C5656 C 0.28291 0.8691 0.08504 0.0
C5657 C 0.27454 0.84985 0.08226 0.0
C5658 C 0.27645 0.83886 0.09763 0.0
C5659 C 0.28648 0.84758 0.11558 0.0
C5660 C 0.29408 0.86659 0.11862 0.0
C5661 C 0.30554 0.87235 0.13856 0.0
C5662 C 0.32602 0.88143 0.13674 0.0
C5663 C 0.29629 0.88537 0.15169 0.0
C5664 C 0.30419 0.85346 0.14583 0.0
C5665 C 0.29284 0.83937 0.13261 0.0
C5666 C 0.29049 0.82058 0.13571 0.0
C5667 C 0.30011 0.81614 0.15273 0.0
C5668 C 0.31207 0.83044 0.16615 0.0
C5669 C 0.31385 0.84929 0.16277 0.0
H5670 H 0.94839 0.50001 0.89061 0.0
H5671 H 0.96041 0.55879 0.88142 0.0
H5672 H 0.98361 0.56564 0.91112 0.0
H5673 H 0.95201 0.50629 0.94193 0.0
H5674 H 0.96337 0.48675 0.94515 0.0
H5675 H 0.94802 0.48656 0.92294 0.0
H5676 H 0.97504 0.4814 0.90238 0.0
H5677 H 0.99042 0.48181 0.92471 0.0
H5678 H 0.99726 0.49772 0.90715 0.0
H5679 H 1.00252 0.56666 0.94342 0.0
H5680 H 0.01795 0.56111 0.97548 0.0
H5681 H 0.9969 0.50133 0.96086 0.0
C5682 C 0.95618 0.51426 0.8945 0.0
C5683 C 0.95248 0.52888 0.88377 0.0
C5684 C 0.9627 0.54742 0.88969 0.0
C5685 C 0.97606 0.55143 0.90637 0.0
C5686 C 0.97927 0.53669 0.91662 0.0
C5687 C 0.96983 0.51844 0.9108 0.0
C5688 C 0.9756 0.50522 0.92464 0.0
C5689 C 0.95874 0.49566 0.93423 0.0
C5690 C 0.98515 0.49068 0.91409 0.0
C5691 C 0.98944 0.519 0.93941 0.0
C5692 C 0.99126 0.53711 0.93461 0.0
C5693 C 1.00161 0.55252 0.94716 0.0
C5694 C 0.01018 0.54931 0.96524 0.0
C5695 C 0.00852 0.53085 0.97014 0.0
C5696 C 0.99848 0.5155 0.95701 0.0
H5697 H 0.27121 0.20608 0.63252 0.0
H5698 H 0.28229 0.25853 0.60736 0.0
H5699 H 0.28376 0.27605 0.64031 0.0
H5700 H 0.24203 0.22093 0.66845 0.0
H5701 H 0.25109 0.20843 0.68731 0.0
H5702 H 0.25053 0.19983 0.66169 0.0
H5703 H 0.28637 0.20038 0.66717 0.0
H5704 H 0.28693 0.2089 0.69279 0.0
H5705 H 0.30225 0.22183 0.67776 0.0
H5706 H 0.28222 0.28796 0.67569 0.0
H5707 H 0.28148 0.29347 0.71167 0.0
H5708 H 0.27366 0.23363 0.71466 0.0
C5709 C 0.27385 0.22125 0.63392 0.0
C5710 C 0.27659 0.2309 0.61723 0.0
C5711 C 0.28029 0.25078 0.61985 0.0
C5712 C 0.28103 0.26088 0.63852 0.0
C5713 C 0.27817 0.25095 0.65458 0.0
C5714 C 0.27487 0.23159 0.65255 0.0
C5715 C 0.27276 0.22441 0.67238 0.0
C5716 C 0.25293 0.2127 0.67245 0.0
C5717 C 0.28799 0.21322 0.67784 0.0
C5718 C 0.27563 0.24276 0.68585 0.0
C5719 C 0.27833 0.25788 0.6752 0.0
C5720 C 0.28037 0.27623 0.6842 0.0
C5721 C 0.2799 0.27923 0.70463 0.0
C5722 C 0.27787 0.26402 0.71596 0.0
C5723 C 0.27564 0.24555 0.70639 0.0
H5724 H 0.58674 0.5134 0.16757 0.0
H5725 H 0.56648 0.56165 0.19284 0.0
H5726 H 0.55123 0.56486 0.1602 0.0
H5727 H 0.59659 0.53036 0.12214 0.0
H5728 H 0.58841 0.50817 0.10693 0.0
H5729 H 0.59731 0.50877 0.13245 0.0
H5730 H 0.56619 0.48759 0.13826 0.0
H5731 H 0.55724 0.48689 0.11272 0.0
H5732 H 0.5442 0.49463 0.1318 0.0
H5733 H 0.53881 0.56387 0.12517 0.0
H5734 H 0.52958 0.55827 0.08944 0.0
H5735 H 0.55747 0.51104 0.08509 0.0
C5736 C 0.57888 0.52448 0.16629 0.0
C5737 C 0.57812 0.53744 0.18297 0.0
C5738 C 0.56774 0.55179 0.18043 0.0
C5739 C 0.55884 0.55366 0.1619 0.0
C5740 C 0.56017 0.54097 0.14582 0.0
C5741 C 0.56978 0.52655 0.14772 0.0
C5742 C 0.56915 0.51513 0.1277 0.0
C5743 C 0.58905 0.51565 0.12197 0.0
C5744 C 0.55857 0.49486 0.12762 0.0
C5745 C 0.55807 0.52568 0.11432 0.0
C5746 C 0.55298 0.54045 0.12524 0.0
C5747 C 0.54286 0.55242 0.11647 0.0
C5748 C 0.53794 0.54938 0.09601 0.0
C5749 C 0.54327 0.53472 0.08426 0.0
C5750 C 0.55322 0.52246 0.09365 0.0
H5751 H 0.30769 0.84852 0.91103 0.0
H5752 H 0.26675 0.88127 0.89218 0.0
H5753 H 0.26053 0.86242 0.85962 0.0
H5754 H 0.32627 0.84296 0.86344 0.0
H5755 H 0.3292 0.81933 0.86577 0.0
H5756 H 0.33117 0.83592 0.88751 0.0
H5757 H 0.3054 0.81305 0.90131 0.0
H5758 H 0.3033 0.79648 0.87956 0.0
H5759 H 0.28286 0.80468 0.88672 0.0
H5760 H 0.25629 0.8387 0.83102 0.0
H5761 H 0.25624 0.81241 0.80573 0.0
H5762 H 0.3019 0.79637 0.84115 0.0
C5763 C 0.29767 0.85189 0.89991 0.0
C5764 C 0.28754 0.86618 0.9041 0.0
C5765 C 0.27438 0.87012 0.88932 0.0
C5766 C 0.27084 0.85961 0.87078 0.0
C5767 C 0.28075 0.84539 0.86724 0.0
C5768 C 0.29404 0.84158 0.88121 0.0
C5769 C 0.30231 0.82515 0.87354 0.0
C5770 C 0.3235 0.83121 0.8725 0.0
C5771 C 0.29822 0.80888 0.88603 0.0
C5772 C 0.2914 0.82026 0.85317 0.0
C5773 C 0.279 0.83211 0.84999 0.0
C5774 C 0.26635 0.8297 0.833 0.0
C5775 C 0.26659 0.81489 0.81865 0.0
C5776 C 0.27976 0.80315 0.82114 0.0
C5777 C 0.29211 0.80561 0.83873 0.0
H5778 H 0.9548 0.50401 0.71724 0.0
H5779 H 0.93074 0.54957 0.69673 0.0
H5780 H 0.94759 0.54797 0.66734 0.0
H5781 H 1.00056 0.51521 0.69763 0.0
H5782 H 1.0006 0.49076 0.69078 0.0
H5783 H 0.98942 0.49779 0.71176 0.0
H5784 H 0.95832 0.47524 0.69664 0.0
H5785 H 0.96933 0.46814 0.67568 0.0
H5786 H 0.94815 0.47734 0.67215 0.0
H5787 H 0.96271 0.53788 0.63793 0.0
H5788 H 0.97472 0.52016 0.61114 0.0
H5789 H 0.98949 0.48187 0.65158 0.0
C5790 C 0.95335 0.5139 0.70675 0.0
C5791 C 0.94154 0.52694 0.70921 0.0
C5792 C 0.93997 0.53965 0.69521 0.0
C5793 C 0.94945 0.53882 0.67849 0.0
C5794 C 0.96053 0.52534 0.67619 0.0
C5795 C 0.9626 0.51319 0.69003 0.0
C5796 C 0.97352 0.49865 0.68323 0.0
C5797 C 0.99214 0.50074 0.69665 0.0
C5798 C 0.96162 0.47868 0.68184 0.0
C5799 C 0.97681 0.50414 0.66311 0.0
C5800 C 0.96939 0.51966 0.65933 0.0
C5801 C 0.96899 0.526 0.64087 0.0
C5802 C 0.97591 0.51589 0.62577 0.0
C5803 C 0.98302 0.49963 0.62931 0.0
C5804 C 0.98405 0.49419 0.64841 0.0
H5805 H 0.27 0.2436 0.42026 0.0
H5806 H 0.29049 0.19224 0.40708 0.0
H5807 H 0.29473 0.20003 0.37362 0.0
H5808 H 0.24422 0.2429 0.37246 0.0
H5809 H 0.25043 0.26787 0.37192 0.0
H5810 H 0.24924 0.25862 0.39517 0.0
H5811 H 0.2835 0.27602 0.40689 0.0
H5812 H 0.28478 0.28525 0.38361 0.0
H5813 H 0.3019 0.27214 0.39226 0.0
H5814 H 0.2964 0.21271 0.34134 0.0
H5815 H 0.2953 0.22963 0.31218 0.0
H5816 H 0.27351 0.27297 0.34516 0.0
C5817 C 0.27534 0.23399 0.41031 0.0
C5818 C 0.28008 0.21733 0.41654 0.0
C5819 C 0.28709 0.20523 0.40296 0.0
C5820 C 0.28947 0.20948 0.38381 0.0
C5821 C 0.28484 0.22598 0.37822 0.0
C5822 C 0.27795 0.23811 0.39102 0.0
C5823 C 0.27414 0.25494 0.38105 0.0
C5824 C 0.25327 0.25614 0.38009 0.0
C5825 C 0.28683 0.27317 0.39158 0.0
C5826 C 0.27958 0.25009 0.36061 0.0
C5827 C 0.28584 0.23337 0.35942 0.0
C5828 C 0.29157 0.22585 0.34212 0.0
C5829 C 0.29088 0.2356 0.32557 0.0
C5830 C 0.28446 0.25275 0.32625 0.0
C5831 C 0.27871 0.26002 0.34412 0.0
H5832 H 0.36324 0.58725 0.56419 0.0
H5833 H 0.31991 0.55022 0.52321 0.0
H5834 H 0.3435 0.53322 0.5111 0.0
H5835 H 0.39348 0.59554 0.53331 0.0
H5836 H 0.41495 0.59618 0.54906 0.0
H5837 H 0.3947 0.60123 0.55963 0.0
H5838 H 0.39563 0.57498 0.58208 0.0
H5839 H 0.41636 0.57011 0.57201 0.0
H5840 H 0.39611 0.55156 0.57136 0.0
H5841 H 0.37145 0.52593 0.49793 0.0
H5842 H 0.40246 0.52744 0.48579 0.0
H5843 H 0.42791 0.57005 0.53427 0.0
C5844 C 0.35871 0.5748 0.55358 0.0
C5845 C 0.33997 0.56962 0.54482 0.0
C5846 C 0.3343 0.55396 0.53024 0.0
C5847 C 0.34757 0.54427 0.52334 0.0
C5848 C 0.36628 0.55048 0.53131 0.0
C5849 C 0.37186 0.5652 0.54638 0.0
C5850 C 0.39301 0.57132 0.54986 0.0
C5851 C 0.39938 0.5923 0.54782 0.0
C5852 C 0.40074 0.56671 0.57003 0.0
C5853 C 0.39828 0.55895 0.53329 0.0
C5854 C 0.38273 0.5466 0.52317 0.0
C5855 C 0.38381 0.53512 0.50603 0.0
C5856 C 0.40128 0.53622 0.4991 0.0
C5857 C 0.4171 0.54899 0.50914 0.0
C5858 C 0.41575 0.56026 0.52651 0.0
H5859 H 0.88972 0.964 0.51854 0.0
H5860 H 0.90386 0.93523 0.56856 0.0
H5861 H 0.93649 0.95245 0.5717 0.0
H5862 H 0.93278 0.96364 0.49731 0.0
H5863 H 0.93464 0.98666 0.48956 0.0
H5864 H 0.91187 0.9728 0.49148 0.0
H5865 H 0.90478 0.99984 0.5151 0.0
H5866 H 0.92757 0.01374 0.51327 0.0
H5867 H 0.92082 0.00912 0.53708 0.0
H5868 H 0.96744 0.97134 0.56924 0.0
H5869 H 0.99594 0.99104 0.56113 0.0
H5870 H 0.96342 0.00836 0.51229 0.0
C5871 C 0.89968 0.96134 0.53015 0.0
C5872 C 0.894 0.94836 0.5435 0.0
C5873 C 0.90758 0.94536 0.55847 0.0
C5874 C 0.92625 0.95501 0.5603 0.0
C5875 C 0.93132 0.96769 0.54707 0.0
C5876 C 0.91855 0.97095 0.53226 0.0
C5877 C 0.92811 0.98518 0.51985 0.0
C5878 C 0.92677 0.97655 0.49827 0.0
C5879 C 0.91982 1.00303 0.52142 0.0
C5880 C 0.94827 0.98906 0.52986 0.0
C5881 C 0.94961 0.97882 0.54559 0.0
C5882 C 0.96659 0.97949 0.55702 0.0
C5883 C 0.98275 0.99076 0.55221 0.0
C5884 C 0.98202 1.00132 0.53605 0.0
C5885 C 0.96443 1.00062 0.52484 0.0
H5886 H 0.88121 0.10689 0.24962 0.0
H5887 H 0.8565 0.07785 0.29552 0.0
H5888 H 0.8382 0.10264 0.30178 0.0
H5889 H 0.88789 0.15191 0.27452 0.0
H5890 H 0.88243 0.16316 0.25313 0.0
H5891 H 0.89158 0.14198 0.25046 0.0
H5892 H 0.86271 0.12626 0.22516 0.0
H5893 H 0.85345 0.14745 0.22779 0.0
H5894 H 0.83936 0.1255 0.23192 0.0
H5895 H 0.82397 0.13159 0.3043 0.0
H5896 H 0.81722 0.16363 0.30472 0.0
H5897 H 0.85244 0.17424 0.25836 0.0
C5898 C 0.87164 0.10558 0.26068 0.0
C5899 C 0.87015 0.09044 0.27202 0.0
C5900 C 0.85784 0.08939 0.28672 0.0
C5901 C 0.8473 0.10331 0.29027 0.0
C5902 C 0.84926 0.11821 0.27901 0.0
C5903 C 0.86118 0.11946 0.26456 0.0
C5904 C 0.86201 0.13769 0.25573 0.0
C5905 C 0.88217 0.14937 0.25865 0.0
C5906 C 0.8539 0.134 0.23385 0.0
C5907 C 0.8493 0.1468 0.26798 0.0
C5908 C 0.84165 0.13516 0.28097 0.0
C5909 C 0.82979 0.14077 0.2941 0.0
C5910 C 0.826 0.15892 0.29424 0.0
C5911 C 0.83439 0.17125 0.28161 0.0
C5912 C 0.8459 0.16499 0.26814 0.0
H5913 H 0.67212 0.06638 0.06056 0.0
H5914 H 0.67772 0.0712 0.99892 0.0
H5915 H 0.64367 0.05904 0.99029 0.0
H5916 H 0.63544 0.02328 0.05181 0.0
H5917 H 0.62345 0.0307 0.07196 0.0
H5918 H 0.64854 0.03823 0.07309 0.0
H5919 H 0.64486 0.07289 0.07908 0.0
H5920 H 0.61978 0.0654 0.07775 0.0
H5921 H 0.62951 0.08168 0.06169 0.0
H5922 H 0.60937 0.04723 0.98844 0.0
H5923 H 0.57648 0.03599 0.99374 0.0
H5924 H 0.59297 0.04118 0.05654 0.0
C5925 C 0.66616 0.06463 0.04525 0.0
C5926 C 0.67739 0.0695 0.03034 0.0
C5927 C 0.66927 0.06714 0.01044 0.0
C5928 C 0.65 0.06038 0.00543 0.0
C5929 C 0.63924 0.05599 0.02051 0.0
C5930 C 0.64699 0.05784 0.03999 0.0
C5931 C 0.63216 0.0526 0.05338 0.0
C5932 C 0.63508 0.03517 0.06313 0.0
C5933 C 0.63155 0.06914 0.06888 0.0
C5934 C 0.61487 0.04818 0.03841 0.0
C5935 C 0.61928 0.04998 0.01954 0.0
C5936 C 0.60566 0.04613 0.0032 0.0
C5937 C 0.58697 0.04025 0.00632 0.0
C5938 C 0.58221 0.03893 0.02555 0.0
C5939 C 0.59631 0.04266 0.04175 0.0
H5940 H 0.24431 0.46684 0.27616 0.0
H5941 H 0.21581 0.44 0.21917 0.0
H5942 H 0.22646 0.41076 0.22541 0.0
H5943 H 0.28345 0.43922 0.28 0.0
H5944 H 0.28178 0.43844 0.3059 0.0
H5945 H 0.27703 0.45847 0.29449 0.0
H5946 H 0.24451 0.454 0.30733 0.0
H5947 H 0.24881 0.43373 0.31831 0.0
H5948 H 0.22823 0.4319 0.3008 0.0
H5949 H 0.23459 0.38331 0.24038 0.0
H5950 H 0.24056 0.35985 0.26261 0.0
H5951 H 0.26078 0.40434 0.3108 0.0
C5952 C 0.24092 0.45498 0.26472 0.0
C5953 C 0.22931 0.45549 0.24724 0.0
C5954 C 0.22497 0.43983 0.23255 0.0
C5955 C 0.23089 0.4232 0.23601 0.0
C5956 C 0.24116 0.4227 0.25412 0.0
C5957 C 0.24633 0.43828 0.26816 0.0
C5958 C 0.25459 0.4335 0.28757 0.0
C5959 C 0.27546 0.44296 0.29226 0.0
C5960 C 0.24335 0.43858 0.30447 0.0
C5961 C 0.25219 0.41259 0.28266 0.0
C5962 C 0.24495 0.40668 0.26317 0.0
C5963 C 0.24052 0.38778 0.25558 0.0
C5964 C 0.24371 0.37461 0.26826 0.0
C5965 C 0.25072 0.38052 0.28829 0.0
C5966 C 0.25513 0.39966 0.29554 0.0
H5967 H 0.20055 0.43134 0.04624 0.0
H5968 H 0.23158 0.4546 1.00083 0.0
H5969 H 0.20769 0.47365 0.99374 0.0
H5970 H 0.1558 0.42633 0.02093 0.0
H5971 H 0.14464 0.43276 0.04212 0.0
H5972 H 0.16525 0.42267 0.04517 0.0
H5973 H 0.1818 0.4514 0.07016 0.0
H5974 H 0.16122 0.46166 0.06706 0.0
H5975 H 0.18375 0.47465 0.06298 0.0
H5976 H 0.17935 0.48881 0.99014 0.0
H5977 H 0.14753 0.49638 0.98842 0.0
H5978 H 0.13479 0.46284 0.03558 0.0
C5979 C 0.20253 0.44075 0.0351 0.0
C5980 C 0.21799 0.44148 0.02412 0.0
C5981 C 0.2198 0.45367 0.00934 0.0
C5982 C 0.20639 0.4647 0.00533 0.0
C5983 C 0.19123 0.4635 0.01627 0.0
C5984 C 0.18921 0.4518 0.03083 0.0
C5985 C 0.1709 0.45202 0.0394 0.0
C5986 C 0.15841 0.43228 0.03673 0.0
C5987 C 0.17465 0.46043 0.0612 0.0
C5988 C 0.16257 0.46499 0.02679 0.0
C5989 C 0.17473 0.47189 0.0139 0.0
C5990 C 0.1698 0.48363 1.0003 0.0
C5991 C 0.15176 0.48795 0.99948 0.0
C5992 C 0.13882 0.48024 0.01191 0.0
C5993 C 0.14452 0.469 0.02602 0.0
H5994 H 0.85299 0.90422 0.23855 0.0
H5995 H 0.87037 0.92281 0.3009 0.0
H5996 H 0.85077 0.89432 0.30918 0.0
H5997 H 0.80525 0.88175 0.24311 0.0
H5998 H 0.80456 0.86213 0.22476 0.0
H5999 H 0.81938 0.88446 0.22314 0.0
H6000 H 0.84837 0.86877 0.22252 0.0
H6001 H 0.8336 0.84639 0.22393 0.0
H6002 H 0.85391 0.85512 0.24192 0.0
H6003 H 0.82775 0.86515 0.3113 0.0
H6004 H 0.80669 0.83395 0.30681 0.0
H6005 H 0.80691 0.8314 0.24354 0.0
C6006 C 0.85281 0.90224 0.25393 0.0
C6007 C 0.86291 0.91623 0.26904 0.0
C6008 C 0.86227 0.91284 0.28898 0.0
C6009 C 0.85124 0.89657 0.2939 0.0
C6010 C 0.84107 0.88343 0.27877 0.0
C6011 C 0.842 0.88579 0.25918 0.0
C6012 C 0.83011 0.86892 0.24592 0.0
C6013 C 0.81387 0.87466 0.2335 0.0
C6014 C 0.84223 0.85922 0.2328 0.0
C6015 C 0.82273 0.85669 0.26119 0.0
C6016 C 0.82884 0.86566 0.28004 0.0
C6017 C 0.82305 0.85786 0.29664 0.0
C6018 C 0.81098 0.84024 0.29396 0.0
C6019 C 0.80539 0.83032 0.27491 0.0
C6020 C 0.81124 0.83868 0.25829 0.0
H6021 H 0.74124 0.13879 0.74309 0.0
H6022 H 0.7377 0.13519 0.8054 0.0
H6023 H 0.74941 0.16935 0.81259 0.0
H6024 H 0.78143 0.17722 0.74776 0.0
H6025 H 0.77143 0.18745 0.72749 0.0
H6026 H 0.76583 0.16246 0.72792 0.0
H6027 H 0.73028 0.16361 0.72427 0.0
H6028 H 0.73583 0.18863 0.72425 0.0
H6029 H 0.72158 0.17871 0.74201 0.0
H6030 H 0.76269 0.20407 0.81257 0.0
H6031 H 0.77207 0.23663 0.80491 0.0
H6032 H 0.76041 0.21665 0.74251 0.0
C6033 C 0.7429 0.14506 0.75828 0.0
C6034 C 0.73862 0.13427 0.77365 0.0
C6035 C 0.74133 0.1431 0.79338 0.0
C6036 C 0.74782 0.16251 0.79762 0.0
C6037 C 0.75121 0.17275 0.78195 0.0
C6038 C 0.74867 0.16432 0.76268 0.0
C6039 C 0.75163 0.17844 0.74827 0.0
C6040 C 0.76859 0.17626 0.73722 0.0
C6041 C 0.73376 0.17727 0.73386 0.0
C6042 C 0.75576 0.19617 0.76243 0.0
C6043 C 0.75615 0.19271 0.78182 0.0
C6044 C 0.76172 0.20705 0.79744 0.0
C6045 C 0.76676 0.22547 0.793 0.0
C6046 C 0.7661 0.22905 0.77319 0.0
C6047 C 0.76029 0.21428 0.75782 0.0
loop_
_geom_bond_atom_site_label_1
_geom_bond_atom_site_label_2
_geom_bond_distance
_geom_bond_site_symmetry_2
_ccdc_geom_bond_type
Li0 N17 1.990 1_455 S
Li0 O60 1.956 . S
Li0 O61 1.970 . S
Li0 O62 1.961 . S
Li1 N25 1.990 . S
Li1 O60 1.970 . S
Li1 O61 1.956 . S
Li1 O63 1.961 . S
Li2 N47 1.990 . S
Li2 O60 1.961 . S
Li2 O62 1.956 . S
Li2 O63 1.970 . S
Li3 N53 1.990 . S
Li3 O61 1.961 . S
Li3 O62 1.970 . S
Li3 O63 1.956 . S
C4 C6 1.348 . S
C4 C7 1.356 . S
C4 O60 1.325 . S
N5 C8 1.314 . S
N5 C9 1.279 . S
C6 C4 1.348 . S
C6 C8 1.353 . S
C6 H64 0.929 . S
C7 C4 1.356 . S
C7 C9 1.358 . S
C7 H65 0.930 . S
C8 N5 1.314 . S
C8 C6 1.353 . S
C8 H66 0.930 . S
C9 N5 1.279 . S
C9 C7 1.358 . S
C9 H67 0.930 . S
C10 C13 1.348 1_455 S
C10 C14 1.356 . S
C10 O61 1.325 . S
C11 N12 1.279 . S
C11 C14 1.358 1_655 S
C11 H68 0.930 . S
N12 C11 1.279 . S
N12 C15 1.314 . S
C13 C10 1.348 1_655 S
C13 C15 1.353 . S
C13 H69 0.929 . S
C14 C10 1.356 . S
C14 C11 1.358 1_455 S
C14 H70 0.930 . S
C15 N12 1.314 . S
C15 C13 1.353 . S
C15 H71 0.930 . S
C16 N17 1.314 . S
C16 C21 1.353 . S
C16 H22 0.930 . S
N17 Li0 1.990 1_655 S
N17 C16 1.314 . S
N17 C19 1.279 . S
C18 C19 1.358 . S
C18 C20 1.356 . S
C18 H72 0.930 . S
C19 N17 1.279 . S
C19 C18 1.358 . S
C19 H23 0.930 . S
C20 C18 1.356 . S
C20 C21 1.348 . S
C21 C16 1.353 . S
C21 C20 1.348 . S
C21 H73 0.929 . S
H22 C16 0.930 . S
H23 C19 0.930 . S
C24 N25 1.314 . S
C24 C26 1.353 . S
C24 H30 0.930 . S
N25 Li1 1.990 . S
N25 C24 1.314 . S
N25 C28 1.279 . S
C26 C24 1.353 . S
C26 C29 1.348 . S
C26 H74 0.929 . S
C27 C28 1.358 . S
C27 C29 1.356 . S
C27 H75 0.930 . S
C28 N25 1.279 . S
C28 C27 1.358 . S
C28 H31 0.930 . S
C29 C26 1.348 . S
C29 C27 1.356 . S
H30 C24 0.930 . S
H31 C28 0.930 . S
C32 C34 1.348 . S
C32 C35 1.356 . S
C32 O62 1.325 . S
N33 C36 1.314 . S
N33 C37 1.279 . S
C34 C32 1.348 . S
C34 C36 1.353 . S
C34 H76 0.929 . S
C35 C32 1.356 . S
C35 C37 1.358 . S
C35 H77 0.930 . S
C36 N33 1.314 . S
C36 C34 1.353 . S
C36 H78 0.930 . S
C37 N33 1.279 . S
C37 C35 1.358 . S
C37 H79 0.930 . S
C38 C39 1.348 . S
C38 C40 1.356 . S
C38 O63 1.325 . S
C39 C38 1.348 . S
C39 C41 1.353 . S
C39 H80 0.929 . S
C40 C38 1.356 . S
C40 C42 1.358 . S
C40 H81 0.930 . S
C41 C39 1.353 . S
C41 N43 1.314 . S
C41 H82 0.930 . S
C42 C40 1.358 . S
C42 N43 1.279 . S
C42 H83 0.930 . S
N43 C41 1.314 . S
N43 C42 1.279 . S
C44 C46 1.353 . S
C44 N47 1.314 . S
C44 H50 0.930 . S
C45 N47 1.279 . S
C45 C48 1.358 . S
C45 H51 0.930 . S
C46 C44 1.353 . S
C46 C49 1.348 . S
C46 H84 0.929 . S
N47 Li2 1.990 . S
N47 C44 1.314 . S
N47 C45 1.279 . S
C48 C45 1.358 . S
C48 C49 1.356 . S
C48 H85 0.930 . S
C49 C46 1.348 . S
C49 C48 1.356 . S
H50 C44 0.930 . S
H51 C45 0.930 . S
C52 N53 1.314 . S
C52 C54 1.353 . S
C52 H58 0.930 . S
N53 Li3 1.990 . S
N53 C52 1.314 . S
N53 C56 1.279 . S
C54 C52 1.353 . S
C54 C57 1.348 . S
C54 H86 0.929 . S
C55 C56 1.358 . S
C55 C57 1.356 . S
C55 H87 0.930 . S
C56 N53 1.279 . S
C56 C55 1.358 . S
C56 H59 0.930 . S
C57 C54 1.348 . S
C57 C55 1.356 . S
H58 C52 0.930 . S
H59 C56 0.930 . S
O60 Li0 1.956 . S
O60 Li1 1.970 . S
O60 Li2 1.961 . S
O60 C4 1.325 . S
O61 Li0 1.970 . S
O61 Li1 1.956 . S
O61 Li3 1.961 . S
O61 C10 1.325 . S
O62 Li0 1.961 . S
O62 Li2 1.956 . S
O62 Li3 1.970 . S
O62 C32 1.325 . S
O63 Li1 1.961 . S
O63 Li2 1.970 . S
O63 Li3 1.956 . S
O63 C38 1.325 . S
H64 C6 0.929 . S
H65 C7 0.930 . S
H66 C8 0.930 . S
H67 C9 0.930 . S
H68 C11 0.930 . S
H69 C13 0.929 . S
H70 C14 0.930 . S
H71 C15 0.930 . S
H72 C18 0.930 . S
H73 C21 0.929 . S
H74 C26 0.929 . S
H75 C27 0.930 . S
H76 C34 0.929 . S
H77 C35 0.930 . S
H78 C36 0.930 . S
H79 C37 0.930 . S
H80 C39 0.929 . S
H81 C40 0.930 . S
H82 C41 0.930 . S
H83 C42 0.930 . S
H84 C46 0.929 . S
H85 C48 0.930 . S
H86 C54 0.929 . S
H87 C55 0.930 . S
Li88 N105 1.990 . S
Li88 O148 1.956 . S
Li88 O149 1.970 . S
Li88 O150 1.961 1_455 S
Li89 N113 1.990 . S
Li89 O148 1.970 . S
Li89 O149 1.956 . S
Li89 O151 1.961 . S
Li90 N135 1.990 . S
Li90 O148 1.961 . S
Li90 O150 1.956 1_455 S
Li90 O151 1.970 . S
Li91 N141 1.990 . S
Li91 O149 1.961 1_655 S
Li91 O150 1.970 . S
Li91 O151 1.956 1_655 S
C92 C94 1.348 . S
C92 C95 1.356 . S
C92 O148 1.325 . S
N93 C96 1.314 . S
N93 C97 1.279 . S
C94 C92 1.348 . S
C94 C96 1.353 . S
C94 H152 0.929 . S
C95 C92 1.356 . S
C95 C97 1.358 . S
C95 H153 0.930 . S
C96 N93 1.314 . S
C96 C94 1.353 . S
C96 H154 0.930 . S
C97 N93 1.279 . S
C97 C95 1.358 . S
C97 H155 0.930 . S
C98 C101 1.348 . S
C98 C102 1.356 . S
C98 O149 1.325 . S
C99 N100 1.279 . S
C99 C102 1.358 . S
C99 H156 0.930 . S
N100 C99 1.279 . S
N100 C103 1.314 . S
C101 C98 1.348 . S
C101 C103 1.353 . S
C101 H157 0.929 . S
C102 C98 1.356 . S
C102 C99 1.358 . S
C102 H158 0.930 . S
C103 N100 1.314 . S
C103 C101 1.353 . S
C103 H159 0.930 . S
C104 N105 1.314 . S
C104 C109 1.353 . S
C104 H110 0.930 1_455 S
N105 Li88 1.990 . S
N105 C104 1.314 . S
N105 C107 1.279 . S
C106 C107 1.358 . S
C106 C108 1.356 . S
C106 H160 0.930 . S
C107 N105 1.279 . S
C107 C106 1.358 . S
C107 H111 0.930 . S
C108 C106 1.356 . S
C108 C109 1.348 . S
C109 C104 1.353 . S
C109 C108 1.348 . S
C109 H161 0.929 1_455 S
H110 C104 0.930 1_655 S
H111 C107 0.930 . S
C112 N113 1.314 . S
C112 C114 1.353 . S
C112 H118 0.930 . S
N113 Li89 1.990 . S
N113 C112 1.314 . S
N113 C116 1.279 . S
C114 C112 1.353 . S
C114 C117 1.348 . S
C114 H162 0.929 . S
C115 C116 1.358 . S
C115 C117 1.356 . S
C115 H163 0.930 . S
C116 N113 1.279 . S
C116 C115 1.358 . S
C116 H119 0.930 . S
C117 C114 1.348 . S
C117 C115 1.356 . S
H118 C112 0.930 . S
H119 C116 0.930 . S
C120 C122 1.348 . S
C120 C123 1.356 . S
C120 O150 1.325 . S
N121 C124 1.314 . S
N121 C125 1.279 . S
C122 C120 1.348 . S
C122 C124 1.353 . S
C122 H164 0.929 . S
C123 C120 1.356 . S
C123 C125 1.358 . S
C123 H165 0.930 . S
C124 N121 1.314 . S
C124 C122 1.353 . S
C124 H166 0.930 . S
C125 N121 1.279 . S
C125 C123 1.358 . S
C125 H167 0.930 . S
C126 C127 1.348 . S
C126 C128 1.356 . S
C126 O151 1.325 . S
C127 C126 1.348 . S
C127 C129 1.353 . S
C127 H168 0.939 . S
C128 C126 1.356 . S
C128 C130 1.358 . S
C128 H169 0.930 . S
C129 C127 1.353 . S
C129 N131 1.314 . S
C129 H170 0.931 . S
C130 C128 1.358 . S
C130 N131 1.279 . S
C130 H171 0.930 . S
N131 C129 1.314 . S
N131 C130 1.279 . S
C132 C134 1.353 . S
C132 N135 1.314 . S
C132 H138 0.930 . S
C133 N135 1.279 1_655 S
C133 C136 1.358 . S
C133 H139 0.930 . S
C134 C132 1.353 . S
C134 C137 1.348 . S
C134 H172 0.929 . S
N135 Li90 1.990 . S
N135 C132 1.314 . S
N135 C133 1.279 1_455 S
C136 C133 1.358 . S
C136 C137 1.356 1_655 S
C136 H173 0.930 . S
C137 C134 1.348 . S
C137 C136 1.356 1_455 S
H138 C132 0.930 . S
H139 C133 0.930 . S
C140 N141 1.314 . S
C140 C142 1.353 . S
C140 H146 0.930 . S
N141 Li91 1.990 . S
N141 C140 1.314 . S
N141 C144 1.279 . S
C142 C140 1.353 . S
C142 C145 1.348 . S
C142 H174 0.929 . S
C143 C144 1.358 . S
C143 C145 1.356 . S
C143 H175 0.930 . S
C144 N141 1.279 . S
C144 C143 1.358 . S
C144 H147 0.930 . S
C145 C142 1.348 . S
C145 C143 1.356 . S
H146 C140 0.930 . S
H147 C144 0.930 . S
O148 Li88 1.956 . S
O148 Li89 1.970 . S
O148 Li90 1.961 . S
O148 C92 1.325 . S
O149 Li88 1.970 . S
O149 Li89 1.956 . S
O149 Li91 1.961 1_455 S
O149 C98 1.325 . S
O150 Li88 1.961 1_655 S
O150 Li90 1.956 1_655 S
O150 Li91 1.970 . S
O150 C120 1.325 . S
O151 Li89 1.961 . S
O151 Li90 1.970 . S
O151 Li91 1.956 1_455 S
O151 C126 1.325 . S
H152 C94 0.929 . S
H153 C95 0.930 . S
H154 C96 0.930 . S
H155 C97 0.930 . S
H156 C99 0.930 . S
H157 C101 0.929 . S
H158 C102 0.930 . S
H159 C103 0.930 . S
H160 C106 0.930 . S
H161 C109 0.929 1_655 S
H162 C114 0.929 . S
H163 C115 0.930 . S
H164 C122 0.929 . S
H165 C123 0.930 . S
H166 C124 0.930 . S
H167 C125 0.930 . S
H168 C127 0.939 . S
H169 C128 0.930 . S
H170 C129 0.931 . S
H171 C130 0.930 . S
H172 C134 0.929 . S
H173 C136 0.930 . S
H174 C142 0.929 . S
H175 C143 0.930 . S
Li176 N193 1.990 . S
Li176 O236 1.956 . S
Li176 O237 1.970 . S
Li176 O238 1.961 . S
Li177 N201 1.990 . S
Li177 O236 1.970 . S
Li177 O237 1.956 . S
Li177 O239 1.961 . S
Li178 N223 1.990 . S
Li178 O236 1.961 . S
Li178 O238 1.956 . S
Li178 O239 1.970 . S
Li179 N229 1.990 . S
Li179 O237 1.961 . S
Li179 O238 1.970 . S
Li179 O239 1.956 . S
C180 C182 1.348 . S
C180 C183 1.356 . S
C180 O236 1.325 . S
N181 C184 1.314 . S
N181 C185 1.279 . S
C182 C180 1.348 . S
C182 C184 1.353 . S
C182 H240 0.929 . S
C183 C180 1.356 . S
C183 C185 1.358 . S
C183 H241 0.930 . S
C184 N181 1.314 . S
C184 C182 1.353 . S
C184 H242 0.930 . S
C185 N181 1.279 . S
C185 C183 1.358 . S
C185 H243 0.930 . S
C186 C189 1.348 . S
C186 C190 1.356 . S
C186 O237 1.325 . S
C187 N188 1.279 . S
C187 C190 1.358 . S
C187 H244 0.930 . S
N188 C187 1.279 . S
N188 C191 1.314 . S
C189 C186 1.348 . S
C189 C191 1.353 . S
C189 H245 0.929 . S
C190 C186 1.356 . S
C190 C187 1.358 . S
C190 H246 0.930 . S
C191 N188 1.314 . S
C191 C189 1.353 . S
C191 H247 0.930 . S
C192 N193 1.314 . S
C192 C197 1.353 . S
C192 H198 0.930 . S
N193 Li176 1.990 . S
N193 C192 1.314 . S
N193 C195 1.279 . S
C194 C195 1.358 . S
C194 C196 1.356 . S
C194 H248 0.930 . S
C195 N193 1.279 . S
C195 C194 1.358 . S
C195 H199 0.930 . S
C196 C194 1.356 . S
C196 C197 1.348 . S
C197 C192 1.353 . S
C197 C196 1.348 . S
C197 H249 0.929 . S
H198 C192 0.930 . S
H199 C195 0.930 . S
C200 N201 1.314 . S
C200 C202 1.353 . S
C200 H206 0.930 . S
N201 Li177 1.990 . S
N201 C200 1.314 . S
N201 C204 1.279 . S
C202 C200 1.353 . S
C202 C205 1.348 . S
C202 H250 0.929 . S
C203 C204 1.358 . S
C203 C205 1.356 . S
C203 H251 0.930 . S
C204 N201 1.279 . S
C204 C203 1.358 . S
C204 H207 0.930 . S
C205 C202 1.348 . S
C205 C203 1.356 . S
H206 C200 0.930 . S
H207 C204 0.930 . S
C208 C210 1.348 . S
C208 C211 1.356 . S
C208 O238 1.325 . S
N209 C212 1.314 . S
N209 C213 1.279 . S
C210 C208 1.348 . S
C210 C212 1.353 . S
C210 H252 0.929 . S
C211 C208 1.356 . S
C211 C213 1.358 . S
C211 H253 0.930 . S
C212 N209 1.314 . S
C212 C210 1.353 . S
C212 H254 0.930 . S
C213 N209 1.279 . S
C213 C211 1.358 . S
C213 H255 0.930 . S
C214 C215 1.348 . S
C214 C216 1.356 . S
C214 O239 1.325 . S
C215 C214 1.348 . S
C215 C217 1.353 . S
C215 H256 0.929 . S
C216 C214 1.356 . S
C216 C218 1.358 . S
C216 H257 0.930 . S
C217 C215 1.353 . S
C217 N219 1.314 . S
C217 H258 0.930 . S
C218 C216 1.358 . S
C218 N219 1.279 . S
C218 H259 0.930 . S
N219 C217 1.314 . S
N219 C218 1.279 . S
C220 C222 1.353 . S
C220 N223 1.314 . S
C220 H226 0.930 . S
C221 N223 1.279 . S
C221 C224 1.358 . S
C221 H227 0.930 . S
C222 C220 1.353 . S
C222 C225 1.348 . S
C222 H260 0.929 . S
N223 Li178 1.990 . S
N223 C220 1.314 . S
N223 C221 1.279 . S
C224 C221 1.358 . S
C224 C225 1.356 . S
C224 H261 0.930 . S
C225 C222 1.348 . S
C225 C224 1.356 . S
H226 C220 0.930 . S
H227 C221 0.930 . S
C228 N229 1.314 . S
C228 C230 1.353 . S
C228 H234 0.930 . S
N229 Li179 1.990 . S
N229 C228 1.314 . S
N229 C232 1.279 . S
C230 C228 1.353 . S
C230 C233 1.348 . S
C230 H262 0.929 . S
C231 C232 1.358 . S
C231 C233 1.356 . S
C231 H263 0.930 . S
C232 N229 1.279 . S
C232 C231 1.358 . S
C232 H235 0.930 . S
C233 C230 1.348 . S
C233 C231 1.356 . S
H234 C228 0.930 . S
H235 C232 0.930 . S
O236 Li176 1.956 . S
O236 Li177 1.970 . S
O236 Li178 1.961 . S
O236 C180 1.325 . S
O237 Li176 1.970 . S
O237 Li177 1.956 . S
O237 Li179 1.961 . S
O237 C186 1.325 . S
O238 Li176 1.961 . S
O238 Li178 1.956 . S
O238 Li179 1.970 . S
O238 C208 1.325 . S
O239 Li177 1.961 . S
O239 Li178 1.970 . S
O239 Li179 1.956 . S
O239 C214 1.325 . S
H240 C182 0.929 . S
H241 C183 0.930 . S
H242 C184 0.930 . S
H243 C185 0.930 . S
H244 C187 0.930 . S
H245 C189 0.929 . S
H246 C190 0.930 . S
H247 C191 0.930 . S
H248 C194 0.930 . S
H249 C197 0.929 . S
H250 C202 0.929 . S
H251 C203 0.930 . S
H252 C210 0.929 . S
H253 C211 0.930 . S
H254 C212 0.930 . S
H255 C213 0.930 . S
H256 C215 0.929 . S
H257 C216 0.930 . S
H258 C217 0.930 . S
H259 C218 0.930 . S
H260 C222 0.929 . S
H261 C224 0.930 . S
H262 C230 0.929 . S
H263 C231 0.930 . S
Li264 N281 1.990 . S
Li264 O324 1.956 . S
Li264 O325 1.970 . S
Li264 O326 1.961 . S
Li265 N289 1.990 . S
Li265 O324 1.970 . S
Li265 O325 1.956 . S
Li265 O327 1.961 . S
Li266 N311 1.990 . S
Li266 O324 1.961 . S
Li266 O326 1.956 . S
Li266 O327 1.970 . S
Li267 N317 1.990 . S
Li267 O325 1.961 . S
Li267 O326 1.970 . S
Li267 O327 1.956 . S
C268 C270 1.348 . S
C268 C271 1.356 . S
C268 O324 1.325 . S
N269 C272 1.314 . S
N269 C273 1.279 . S
C270 C268 1.348 . S
C270 C272 1.353 . S
C270 H328 0.929 . S
C271 C268 1.356 . S
C271 C273 1.358 . S
C271 H329 0.930 . S
C272 N269 1.314 . S
C272 C270 1.353 . S
C272 H330 0.930 . S
C273 N269 1.279 . S
C273 C271 1.358 . S
C273 H331 0.930 . S
C274 C277 1.348 . S
C274 C278 1.356 . S
C274 O325 1.325 . S
C275 N276 1.279 . S
C275 C278 1.358 . S
C275 H332 0.930 . S
N276 C275 1.279 . S
N276 C279 1.314 . S
C277 C274 1.348 . S
C277 C279 1.353 . S
C277 H333 0.929 . S
C278 C274 1.356 . S
C278 C275 1.358 . S
C278 H334 0.930 . S
C279 N276 1.314 . S
C279 C277 1.353 . S
C279 H335 0.930 . S
C280 N281 1.314 . S
C280 C285 1.353 . S
C280 H286 0.930 . S
N281 Li264 1.990 . S
N281 C280 1.314 . S
N281 C283 1.279 . S
C282 C283 1.358 . S
C282 C284 1.356 . S
C282 H336 0.930 . S
C283 N281 1.279 . S
C283 C282 1.358 . S
C283 H287 0.930 . S
C284 C282 1.356 . S
C284 C285 1.348 . S
C285 C280 1.353 . S
C285 C284 1.348 . S
C285 H337 0.929 . S
H286 C280 0.930 . S
H287 C283 0.930 . S
C288 N289 1.314 . S
C288 C290 1.353 . S
C288 H294 0.930 . S
N289 Li265 1.990 . S
N289 C288 1.314 . S
N289 C292 1.279 . S
C290 C288 1.353 . S
C290 C293 1.348 . S
C290 H338 0.929 . S
C291 C292 1.358 . S
C291 C293 1.356 . S
C291 H339 0.930 . S
C292 N289 1.279 . S
C292 C291 1.358 . S
C292 H295 0.930 . S
C293 C290 1.348 . S
C293 C291 1.356 . S
H294 C288 0.930 . S
H295 C292 0.930 . S
C296 C298 1.348 . S
C296 C299 1.356 . S
C296 O326 1.325 . S
N297 C300 1.314 . S
N297 C301 1.279 . S
C298 C296 1.348 . S
C298 C300 1.353 . S
C298 H340 0.929 . S
C299 C296 1.356 . S
C299 C301 1.358 . S
C299 H341 0.930 . S
C300 N297 1.314 . S
C300 C298 1.353 . S
C300 H342 0.930 . S
C301 N297 1.279 . S
C301 C299 1.358 . S
C301 H343 0.930 . S
C302 C303 1.348 . S
C302 C304 1.356 . S
C302 O327 1.325 . S
C303 C302 1.348 . S
C303 C305 1.353 . S
C303 H344 0.929 . S
C304 C302 1.356 . S
C304 C306 1.358 . S
C304 H345 0.930 . S
C305 C303 1.353 . S
C305 N307 1.314 . S
C305 H346 0.930 . S
C306 C304 1.358 . S
C306 N307 1.279 . S
C306 H347 0.930 . S
N307 C305 1.314 . S
N307 C306 1.279 . S
C308 C310 1.353 . S
C308 N311 1.314 . S
C308 H314 0.930 . S
C309 N311 1.279 . S
C309 C312 1.358 . S
C309 H315 0.930 . S
C310 C308 1.353 . S
C310 C313 1.348 . S
C310 H348 0.929 . S
N311 Li266 1.990 . S
N311 C308 1.314 . S
N311 C309 1.279 . S
C312 C309 1.358 . S
C312 C313 1.356 . S
C312 H349 0.930 . S
C313 C310 1.348 . S
C313 C312 1.356 . S
H314 C308 0.930 . S
H315 C309 0.930 . S
C316 N317 1.314 . S
C316 C318 1.353 . S
C316 H322 0.930 . S
N317 Li267 1.990 . S
N317 C316 1.314 . S
N317 C320 1.279 . S
C318 C316 1.353 . S
C318 C321 1.348 . S
C318 H350 0.929 . S
C319 C320 1.358 . S
C319 C321 1.356 . S
C319 H351 0.930 . S
C320 N317 1.279 . S
C320 C319 1.358 . S
C320 H323 0.930 . S
C321 C318 1.348 . S
C321 C319 1.356 . S
H322 C316 0.930 . S
H323 C320 0.930 . S
O324 Li264 1.956 . S
O324 Li265 1.970 . S
O324 Li266 1.961 . S
O324 C268 1.325 . S
O325 Li264 1.970 . S
O325 Li265 1.956 . S
O325 Li267 1.961 . S
O325 C274 1.325 . S
O326 Li264 1.961 . S
O326 Li266 1.956 . S
O326 Li267 1.970 . S
O326 C296 1.325 . S
O327 Li265 1.961 . S
O327 Li266 1.970 . S
O327 Li267 1.956 . S
O327 C302 1.325 . S
H328 C270 0.929 . S
H329 C271 0.930 . S
H330 C272 0.930 . S
H331 C273 0.930 . S
H332 C275 0.930 . S
H333 C277 0.929 . S
H334 C278 0.930 . S
H335 C279 0.930 . S
H336 C282 0.930 . S
H337 C285 0.929 . S
H338 C290 0.929 . S
H339 C291 0.930 . S
H340 C298 0.929 . S
H341 C299 0.930 . S
H342 C300 0.930 . S
H343 C301 0.930 . S
H344 C303 0.929 . S
H345 C304 0.930 . S
H346 C305 0.930 . S
H347 C306 0.930 . S
H348 C310 0.929 . S
H349 C312 0.930 . S
H350 C318 0.929 . S
H351 C319 0.930 . S
Li352 N369 1.990 . S
Li352 O412 1.956 . S
Li352 O413 1.970 . S
Li352 O414 1.961 . S
Li353 N377 1.990 . S
Li353 O412 1.970 . S
Li353 O413 1.956 . S
Li353 O415 1.961 . S
Li354 N399 1.990 . S
Li354 O412 1.961 . S
Li354 O414 1.956 . S
Li354 O415 1.970 . S
Li355 N405 1.990 . S
Li355 O413 1.961 . S
Li355 O414 1.970 . S
Li355 O415 1.956 . S
C356 C358 1.348 . S
C356 C359 1.356 . S
C356 O412 1.325 . S
N357 C360 1.314 . S
N357 C361 1.279 . S
C358 C356 1.348 . S
C358 C360 1.353 . S
C358 H416 0.929 . S
C359 C356 1.356 . S
C359 C361 1.358 . S
C359 H417 0.930 . S
C360 N357 1.314 . S
C360 C358 1.353 . S
C360 H418 0.930 . S
C361 N357 1.279 . S
C361 C359 1.358 . S
C361 H419 0.930 . S
C362 C365 1.348 . S
C362 C366 1.356 . S
C362 O413 1.325 . S
C363 N364 1.279 . S
C363 C366 1.358 . S
C363 H420 0.930 . S
N364 C363 1.279 . S
N364 C367 1.314 . S
C365 C362 1.348 . S
C365 C367 1.353 . S
C365 H421 0.929 . S
C366 C362 1.356 . S
C366 C363 1.358 . S
C366 H422 0.930 . S
C367 N364 1.314 . S
C367 C365 1.353 . S
C367 H423 0.930 . S
C368 N369 1.314 . S
C368 C373 1.353 . S
C368 H374 0.930 . S
N369 Li352 1.990 . S
N369 C368 1.314 . S
N369 C371 1.279 . S
C370 C371 1.358 . S
C370 C372 1.356 . S
C370 H424 0.930 . S
C371 N369 1.279 . S
C371 C370 1.358 . S
C371 H375 0.930 . S
C372 C370 1.356 . S
C372 C373 1.348 . S
C373 C368 1.353 . S
C373 C372 1.348 . S
C373 H425 0.929 . S
H374 C368 0.930 . S
H375 C371 0.930 . S
C376 N377 1.314 . S
C376 C378 1.353 . S
C376 H382 0.930 . S
N377 Li353 1.990 . S
N377 C376 1.314 . S
N377 C380 1.279 . S
C378 C376 1.353 . S
C378 C381 1.348 . S
C378 H426 0.929 . S
C379 C380 1.358 . S
C379 C381 1.356 . S
C379 H427 0.930 . S
C380 N377 1.279 . S
C380 C379 1.358 . S
C380 H383 0.930 . S
C381 C378 1.348 . S
C381 C379 1.356 . S
H382 C376 0.930 . S
H383 C380 0.930 . S
C384 C386 1.348 1_455 S
C384 C387 1.356 . S
C384 O414 1.325 . S
N385 C388 1.314 . S
N385 C389 1.279 . S
C386 C384 1.348 1_655 S
C386 C388 1.353 . S
C386 H428 0.929 . S
C387 C384 1.356 . S
C387 C389 1.358 1_455 S
C387 H429 0.930 . S
C388 N385 1.314 . S
C388 C386 1.353 . S
C388 H430 0.930 . S
C389 N385 1.279 . S
C389 C387 1.358 1_655 S
C389 H431 0.930 . S
C390 C391 1.348 . S
C390 C392 1.356 . S
C390 O415 1.325 . S
C391 C390 1.348 . S
C391 C393 1.353 . S
C391 H432 0.929 . S
C392 C390 1.356 . S
C392 C394 1.358 . S
C392 H433 0.930 . S
C393 C391 1.353 . S
C393 N395 1.314 . S
C393 H434 0.930 . S
C394 C392 1.358 . S
C394 N395 1.279 . S
C394 H435 0.930 . S
N395 C393 1.314 . S
N395 C394 1.279 . S
C396 C398 1.353 . S
C396 N399 1.314 . S
C396 H402 0.930 . S
C397 N399 1.279 . S
C397 C400 1.358 . S
C397 H403 0.930 . S
C398 C396 1.353 . S
C398 C401 1.348 . S
C398 H436 0.929 . S
N399 Li354 1.990 . S
N399 C396 1.314 . S
N399 C397 1.279 . S
C400 C397 1.358 . S
C400 C401 1.356 . S
C400 H437 0.930 . S
C401 C398 1.348 . S
C401 C400 1.356 . S
H402 C396 0.930 . S
H403 C397 0.930 . S
C404 N405 1.314 . S
C404 C406 1.353 1_455 S
C404 H410 0.930 . S
N405 Li355 1.990 . S
N405 C404 1.314 . S
N405 C408 1.279 . S
C406 C404 1.353 1_655 S
C406 C409 1.348 . S
C406 H438 0.929 . S
C407 C408 1.358 1_655 S
C407 C409 1.356 . S
C407 H439 0.930 . S
C408 N405 1.279 . S
C408 C407 1.358 1_455 S
C408 H411 0.930 . S
C409 C406 1.348 . S
C409 C407 1.356 . S
H410 C404 0.930 . S
H411 C408 0.930 . S
O412 Li352 1.956 . S
O412 Li353 1.970 . S
O412 Li354 1.961 . S
O412 C356 1.325 . S
O413 Li352 1.970 . S
O413 Li353 1.956 . S
O413 Li355 1.961 . S
O413 C362 1.325 . S
O414 Li352 1.961 . S
O414 Li354 1.956 . S
O414 Li355 1.970 . S
O414 C384 1.325 . S
O415 Li353 1.961 . S
O415 Li354 1.970 . S
O415 Li355 1.956 . S
O415 C390 1.325 . S
H416 C358 0.929 . S
H417 C359 0.930 . S
H418 C360 0.930 . S
H419 C361 0.930 . S
H420 C363 0.930 . S
H421 C365 0.929 . S
H422 C366 0.930 . S
H423 C367 0.930 . S
H424 C370 0.930 . S
H425 C373 0.929 . S
H426 C378 0.929 . S
H427 C379 0.930 . S
H428 C386 0.929 . S
H429 C387 0.930 . S
H430 C388 0.930 . S
H431 C389 0.930 . S
H432 C391 0.929 . S
H433 C392 0.930 . S
H434 C393 0.930 . S
H435 C394 0.930 . S
H436 C398 0.929 . S
H437 C400 0.930 . S
H438 C406 0.929 . S
H439 C407 0.930 . S
Li440 N457 1.990 . S
Li440 O500 1.956 . S
Li440 O501 1.970 . S
Li440 O502 1.961 . S
Li441 N465 1.990 . S
Li441 O500 1.970 . S
Li441 O501 1.956 . S
Li441 O503 1.961 . S
Li442 N487 1.990 . S
Li442 O500 1.961 . S
Li442 O502 1.956 . S
Li442 O503 1.970 . S
Li443 N493 1.990 . S
Li443 O501 1.961 . S
Li443 O502 1.970 . S
Li443 O503 1.956 . S
C444 C446 1.348 . S
C444 C447 1.356 . S
C444 O500 1.325 . S
N445 C448 1.314 . S
N445 C449 1.279 . S
C446 C444 1.348 . S
C446 C448 1.353 . S
C446 H504 0.929 . S
C447 C444 1.356 . S
C447 C449 1.358 . S
C447 H505 0.930 . S
C448 N445 1.314 . S
C448 C446 1.353 . S
C448 H506 0.930 . S
C449 N445 1.279 . S
C449 C447 1.358 . S
C449 H507 0.930 . S
C450 C453 1.348 . S
C450 C454 1.356 . S
C450 O501 1.325 . S
C451 N452 1.279 . S
C451 C454 1.358 . S
C451 H508 0.930 . S
N452 C451 1.279 . S
N452 C455 1.314 . S
C453 C450 1.348 . S
C453 C455 1.353 . S
C453 H509 0.929 . S
C454 C450 1.356 . S
C454 C451 1.358 . S
C454 H510 0.930 . S
C455 N452 1.314 . S
C455 C453 1.353 . S
C455 H511 0.930 . S
C456 N457 1.314 . S
C456 C461 1.353 . S
C456 H462 0.930 . S
N457 Li440 1.990 . S
N457 C456 1.314 . S
N457 C459 1.279 . S
C458 C459 1.358 . S
C458 C460 1.356 . S
C458 H512 0.930 . S
C459 N457 1.279 . S
C459 C458 1.358 . S
C459 H463 0.930 . S
C460 C458 1.356 . S
C460 C461 1.348 . S
C461 C456 1.353 . S
C461 C460 1.348 . S
C461 H513 0.929 . S
H462 C456 0.930 . S
H463 C459 0.930 . S
C464 N465 1.314 . S
C464 C466 1.353 . S
C464 H470 0.930 . S
N465 Li441 1.990 . S
N465 C464 1.314 . S
N465 C468 1.279 . S
C466 C464 1.353 . S
C466 C469 1.348 . S
C466 H514 0.929 . S
C467 C468 1.358 . S
C467 C469 1.356 . S
C467 H515 0.930 . S
C468 N465 1.279 . S
C468 C467 1.358 . S
C468 H471 0.930 . S
C469 C466 1.348 . S
C469 C467 1.356 . S
H470 C464 0.930 . S
H471 C468 0.930 . S
C472 C474 1.348 . S
C472 C475 1.356 . S
C472 O502 1.325 . S
N473 C476 1.314 . S
N473 C477 1.279 . S
C474 C472 1.348 . S
C474 C476 1.353 . S
C474 H516 0.929 . S
C475 C472 1.356 . S
C475 C477 1.358 . S
C475 H517 0.930 . S
C476 N473 1.314 . S
C476 C474 1.353 . S
C476 H518 0.930 . S
C477 N473 1.279 . S
C477 C475 1.358 . S
C477 H519 0.930 . S
C478 C479 1.348 . S
C478 C480 1.356 . S
C478 O503 1.325 . S
C479 C478 1.348 . S
C479 C481 1.353 . S
C479 H520 0.929 . S
C480 C478 1.356 . S
C480 C482 1.358 . S
C480 H521 0.930 . S
C481 C479 1.353 . S
C481 N483 1.314 . S
C481 H522 0.930 . S
C482 C480 1.358 . S
C482 N483 1.279 . S
C482 H523 0.930 . S
N483 C481 1.314 . S
N483 C482 1.279 . S
C484 C486 1.353 . S
C484 N487 1.314 . S
C484 H490 0.930 . S
C485 N487 1.279 . S
C485 C488 1.358 . S
C485 H491 0.930 . S
C486 C484 1.353 . S
C486 C489 1.348 . S
C486 H524 0.929 . S
N487 Li442 1.990 . S
N487 C484 1.314 . S
N487 C485 1.279 . S
C488 C485 1.358 . S
C488 C489 1.356 . S
C488 H525 0.930 . S
C489 C486 1.348 . S
C489 C488 1.356 . S
H490 C484 0.930 . S
H491 C485 0.930 . S
C492 N493 1.314 . S
C492 C494 1.353 . S
C492 H498 0.930 . S
N493 Li443 1.990 . S
N493 C492 1.314 . S
N493 C496 1.279 . S
C494 C492 1.353 . S
C494 C497 1.348 . S
C494 H526 0.929 . S
C495 C496 1.358 . S
C495 C497 1.356 . S
C495 H527 0.930 . S
C496 N493 1.279 . S
C496 C495 1.358 . S
C496 H499 0.930 . S
C497 C494 1.348 . S
C497 C495 1.356 . S
H498 C492 0.930 . S
H499 C496 0.930 . S
O500 Li440 1.956 . S
O500 Li441 1.970 . S
O500 Li442 1.961 . S
O500 C444 1.325 . S
O501 Li440 1.970 . S
O501 Li441 1.956 . S
O501 Li443 1.961 . S
O501 C450 1.325 . S
O502 Li440 1.961 . S
O502 Li442 1.956 . S
O502 Li443 1.970 . S
O502 C472 1.325 . S
O503 Li441 1.961 . S
O503 Li442 1.970 . S
O503 Li443 1.956 . S
O503 C478 1.325 . S
H504 C446 0.929 . S
H505 C447 0.930 . S
H506 C448 0.930 . S
H507 C449 0.930 . S
H508 C451 0.930 . S
H509 C453 0.929 . S
H510 C454 0.930 . S
H511 C455 0.930 . S
H512 C458 0.930 . S
H513 C461 0.929 . S
H514 C466 0.929 . S
H515 C467 0.930 . S
H516 C474 0.929 . S
H517 C475 0.930 . S
H518 C476 0.930 . S
H519 C477 0.930 . S
H520 C479 0.929 . S
H521 C480 0.930 . S
H522 C481 0.930 . S
H523 C482 0.930 . S
H524 C486 0.929 . S
H525 C488 0.930 . S
H526 C494 0.929 . S
H527 C495 0.930 . S
Li528 N545 1.990 . S
Li528 O588 1.956 . S
Li528 O589 1.970 . S
Li528 O590 1.961 . S
Li529 N553 1.990 . S
Li529 O588 1.970 . S
Li529 O589 1.956 . S
Li529 O591 1.961 . S
Li530 N575 1.990 . S
Li530 O588 1.961 . S
Li530 O590 1.956 . S
Li530 O591 1.970 . S
Li531 N581 1.990 . S
Li531 O589 1.961 . S
Li531 O590 1.970 . S
Li531 O591 1.956 . S
C532 C534 1.348 . S
C532 C535 1.356 . S
C532 O588 1.325 . S
N533 C536 1.314 . S
N533 C537 1.279 . S
C534 C532 1.348 . S
C534 C536 1.353 . S
C534 H592 0.929 . S
C535 C532 1.356 . S
C535 C537 1.358 . S
C535 H593 0.930 . S
C536 N533 1.314 . S
C536 C534 1.353 . S
C536 H594 0.930 . S
C537 N533 1.279 . S
C537 C535 1.358 . S
C537 H595 0.930 . S
C538 C541 1.348 . S
C538 C542 1.356 . S
C538 O589 1.325 . S
C539 N540 1.279 . S
C539 C542 1.358 . S
C539 H596 0.930 . S
N540 C539 1.279 . S
N540 C543 1.314 . S
C541 C538 1.348 . S
C541 C543 1.353 . S
C541 H597 0.929 . S
C542 C538 1.356 . S
C542 C539 1.358 . S
C542 H598 0.930 . S
C543 N540 1.314 . S
C543 C541 1.353 . S
C543 H599 0.930 . S
C544 N545 1.314 . S
C544 C549 1.353 . S
C544 H550 0.930 . S
N545 Li528 1.990 . S
N545 C544 1.314 . S
N545 C547 1.279 . S
C546 C547 1.358 . S
C546 C548 1.356 . S
C546 H600 0.930 . S
C547 N545 1.279 . S
C547 C546 1.358 . S
C547 H551 0.930 . S
C548 C546 1.356 . S
C548 C549 1.348 . S
C549 C544 1.353 . S
C549 C548 1.348 . S
C549 H601 0.929 . S
H550 C544 0.930 . S
H551 C547 0.930 . S
C552 N553 1.314 . S
C552 C554 1.353 . S
C552 H558 0.930 . S
N553 Li529 1.990 . S
N553 C552 1.314 . S
N553 C556 1.279 . S
C554 C552 1.353 . S
C554 C557 1.348 . S
C554 H602 0.929 . S
C555 C556 1.358 . S
C555 C557 1.356 . S
C555 H603 0.930 . S
C556 N553 1.279 . S
C556 C555 1.358 . S
C556 H559 0.930 . S
C557 C554 1.348 . S
C557 C555 1.356 . S
H558 C552 0.930 . S
H559 C556 0.930 . S
C560 C562 1.348 . S
C560 C563 1.356 . S
C560 O590 1.325 . S
N561 C564 1.314 . S
N561 C565 1.279 . S
C562 C560 1.348 . S
C562 C564 1.353 . S
C562 H604 0.929 . S
C563 C560 1.356 . S
C563 C565 1.358 . S
C563 H605 0.930 . S
C564 N561 1.314 . S
C564 C562 1.353 . S
C564 H606 0.930 . S
C565 N561 1.279 . S
C565 C563 1.358 . S
C565 H607 0.930 . S
C566 C567 1.348 . S
C566 C568 1.356 . S
C566 O591 1.325 . S
C567 C566 1.348 . S
C567 C569 1.353 . S
C567 H608 0.929 . S
C568 C566 1.356 . S
C568 C570 1.358 . S
C568 H609 0.930 . S
C569 C567 1.353 . S
C569 N571 1.314 . S
C569 H610 0.930 . S
C570 C568 1.358 . S
C570 N571 1.279 . S
C570 H611 0.930 . S
N571 C569 1.314 . S
N571 C570 1.279 . S
C572 C574 1.353 . S
C572 N575 1.314 . S
C572 H578 0.930 . S
C573 N575 1.279 . S
C573 C576 1.358 . S
C573 H579 0.930 . S
C574 C572 1.353 . S
C574 C577 1.348 . S
C574 H612 0.929 . S
N575 Li530 1.990 . S
N575 C572 1.314 . S
N575 C573 1.279 . S
C576 C573 1.358 . S
C576 C577 1.356 . S
C576 H613 0.930 . S
C577 C574 1.348 . S
C577 C576 1.356 . S
H578 C572 0.930 . S
H579 C573 0.930 . S
C580 N581 1.314 . S
C580 C582 1.353 . S
C580 H586 0.930 . S
N581 Li531 1.990 . S
N581 C580 1.314 . S
N581 C584 1.279 . S
C582 C580 1.353 . S
C582 C585 1.348 . S
C582 H614 0.929 . S
C583 C584 1.358 . S
C583 C585 1.356 . S
C583 H615 0.930 . S
C584 N581 1.279 . S
C584 C583 1.358 . S
C584 H587 0.930 . S
C585 C582 1.348 . S
C585 C583 1.356 . S
H586 C580 0.930 . S
H587 C584 0.930 . S
O588 Li528 1.956 . S
O588 Li529 1.970 . S
O588 Li530 1.961 . S
O588 C532 1.325 . S
O589 Li528 1.970 . S
O589 Li529 1.956 . S
O589 Li531 1.961 . S
O589 C538 1.325 . S
O590 Li528 1.961 . S
O590 Li530 1.956 . S
O590 Li531 1.970 . S
O590 C560 1.325 . S
O591 Li529 1.961 . S
O591 Li530 1.970 . S
O591 Li531 1.956 . S
O591 C566 1.325 . S
H592 C534 0.929 . S
H593 C535 0.930 . S
H594 C536 0.930 . S
H595 C537 0.930 . S
H596 C539 0.930 . S
H597 C541 0.929 . S
H598 C542 0.930 . S
H599 C543 0.930 . S
H600 C546 0.930 . S
H601 C549 0.929 . S
H602 C554 0.929 . S
H603 C555 0.930 . S
H604 C562 0.929 . S
H605 C563 0.930 . S
H606 C564 0.930 . S
H607 C565 0.930 . S
H608 C567 0.929 . S
H609 C568 0.930 . S
H610 C569 0.930 . S
H611 C570 0.930 . S
H612 C574 0.929 . S
H613 C576 0.930 . S
H614 C582 0.929 . S
H615 C583 0.930 . S
Li616 N633 1.990 . S
Li616 O676 1.956 1_455 S
Li616 O677 1.970 . S
Li616 O678 1.961 . S
Li617 N641 1.990 . S
Li617 O676 1.970 . S
Li617 O677 1.956 1_655 S
Li617 O679 1.961 . S
Li618 N663 1.992 1_455 S
Li618 O676 1.966 1_455 S
Li618 O678 1.952 . S
Li618 O679 1.970 1_455 S
Li619 N669 1.990 . S
Li619 O677 1.961 . S
Li619 O678 1.970 . S
Li619 O679 1.956 1_455 S
C620 C622 1.348 . S
C620 C623 1.356 . S
C620 O676 1.325 . S
N621 C624 1.314 . S
N621 C625 1.279 . S
C622 C620 1.348 . S
C622 C624 1.353 . S
C622 H680 0.929 . S
C623 C620 1.356 . S
C623 C625 1.358 . S
C623 H681 0.930 . S
C624 N621 1.314 . S
C624 C622 1.353 . S
C624 H682 0.930 . S
C625 N621 1.279 . S
C625 C623 1.358 . S
C625 H683 0.930 1_556 S
C626 C629 1.348 1_455 S
C626 C630 1.356 . S
C626 O677 1.325 . S
C627 N628 1.279 . S
C627 C630 1.358 . S
C627 H684 0.930 . S
N628 C627 1.279 . S
N628 C631 1.302 1_455 S
C629 C626 1.348 1_655 S
C629 C631 1.351 . S
C629 H685 0.929 . S
C630 C626 1.356 . S
C630 C627 1.358 . S
C630 H686 0.930 . S
C631 N628 1.302 1_655 S
C631 C629 1.351 . S
C631 H687 0.948 . S
C632 N633 1.314 . S
C632 C637 1.353 . S
C632 H638 0.930 . S
N633 Li616 1.990 . S
N633 C632 1.314 . S
N633 C635 1.279 1_455 S
C634 C635 1.358 . S
C634 C636 1.356 1_655 S
C634 H688 0.930 . S
C635 N633 1.279 1_655 S
C635 C634 1.358 . S
C635 H639 0.930 . S
C636 C634 1.356 1_455 S
C636 C637 1.348 . S
C637 C632 1.353 . S
C637 C636 1.348 . S
C637 H689 0.929 . S
H638 C632 0.930 . S
H639 C635 0.930 . S
C640 N641 1.314 . S
C640 C642 1.353 . S
C640 H646 0.930 . S
N641 Li617 1.990 . S
N641 C640 1.314 . S
N641 C644 1.279 . S
C642 C640 1.353 . S
C642 C645 1.348 . S
C642 H690 0.929 . S
C643 C644 1.358 . S
C643 C645 1.356 . S
C643 H691 0.930 . S
C644 N641 1.279 . S
C644 C643 1.358 . S
C644 H647 0.930 . S
C645 C642 1.348 . S
C645 C643 1.356 . S
H646 C640 0.930 . S
H647 C644 0.930 . S
C648 C650 1.348 . S
C648 C651 1.356 . S
C648 O678 1.325 . S
N649 C652 1.314 . S
N649 C653 1.279 . S
C650 C648 1.348 . S
C650 C652 1.353 . S
C650 H692 0.929 . S
C651 C648 1.356 . S
C651 C653 1.358 . S
C651 H693 0.930 . S
C652 N649 1.314 . S
C652 C650 1.353 . S
C652 H694 0.930 . S
C653 N649 1.279 . S
C653 C651 1.358 . S
C653 H695 0.930 1_556 S
C654 C655 1.348 . S
C654 C656 1.356 . S
C654 O679 1.325 . S
C655 C654 1.348 . S
C655 C657 1.353 . S
C655 H696 0.929 1_655 S
C656 C654 1.356 . S
C656 C658 1.358 . S
C656 H697 0.930 . S
C657 C655 1.353 . S
C657 N659 1.314 . S
C657 H698 0.930 . S
C658 C656 1.358 . S
C658 N659 1.279 . S
C658 H699 0.930 . S
N659 C657 1.314 . S
N659 C658 1.279 . S
C660 C662 1.353 . S
C660 N663 1.339 . S
C660 H666 0.930 . S
C661 N663 1.253 1_455 S
C661 C664 1.358 . S
C661 H667 0.930 . S
C662 C660 1.353 . S
C662 C665 1.348 . S
C662 H700 0.929 . S
N663 Li618 1.992 1_655 S
N663 C660 1.339 . S
N663 C661 1.253 1_655 S
C664 C661 1.358 . S
C664 C665 1.356 1_455 S
C664 H701 0.930 . S
C665 C662 1.348 . S
C665 C664 1.356 1_655 S
H666 C660 0.930 . S
H667 C661 0.930 . S
C668 N669 1.314 . S
C668 C670 1.353 . S
C668 H674 0.930 . S
N669 Li619 1.990 . S
N669 C668 1.314 . S
N669 C672 1.279 . S
C670 C668 1.353 . S
C670 C673 1.348 . S
C670 H702 0.929 . S
C671 C672 1.358 . S
C671 C673 1.356 . S
C671 H703 0.930 . S
C672 N669 1.279 . S
C672 C671 1.358 . S
C672 H675 0.930 . S
C673 C670 1.348 . S
C673 C671 1.356 . S
H674 C668 0.930 . S
H675 C672 0.930 . S
O676 Li616 1.956 1_655 S
O676 Li617 1.970 . S
O676 Li618 1.966 1_655 S
O676 C620 1.325 . S
O677 Li616 1.970 . S
O677 Li617 1.956 1_455 S
O677 Li619 1.961 . S
O677 C626 1.325 . S
O678 Li616 1.961 . S
O678 Li618 1.952 . S
O678 Li619 1.970 . S
O678 C648 1.325 . S
O679 Li617 1.961 . S
O679 Li618 1.970 1_655 S
O679 Li619 1.956 1_655 S
O679 C654 1.325 . S
H680 C622 0.929 . S
H681 C623 0.930 . S
H682 C624 0.930 . S
H683 C625 0.930 1_554 S
H684 C627 0.930 . S
H685 C629 0.929 . S
H686 C630 0.930 . S
H687 C631 0.948 . S
H688 C634 0.930 . S
H689 C637 0.929 . S
H690 C642 0.929 . S
H691 C643 0.930 . S
H692 C650 0.929 . S
H693 C651 0.930 . S
H694 C652 0.930 . S
H695 C653 0.930 1_554 S
H696 C655 0.929 1_455 S
H697 C656 0.930 . S
H698 C657 0.930 . S
H699 C658 0.930 . S
H700 C662 0.929 . S
H701 C664 0.930 . S
H702 C670 0.929 . S
H703 C671 0.930 . S
Li704 N721 1.990 . S
Li704 O764 1.956 1_545 S
Li704 O765 1.970 . S
Li704 O766 1.961 . S
Li705 N729 1.990 . S
Li705 O764 1.970 . S
Li705 O765 1.956 1_565 S
Li705 O767 1.961 1_565 S
Li706 N751 1.990 . S
Li706 O764 1.961 1_545 S
Li706 O766 1.956 . S
Li706 O767 1.970 . S
Li707 N757 1.990 . S
Li707 O765 1.961 . S
Li707 O766 1.970 . S
Li707 O767 1.956 . S
C708 C710 1.348 . S
C708 C711 1.356 . S
C708 O764 1.325 . S
N709 C712 1.314 . S
N709 C713 1.279 . S
C710 C708 1.348 . S
C710 C712 1.353 . S
C710 H768 0.929 . S
C711 C708 1.356 . S
C711 C713 1.358 . S
C711 H769 0.930 . S
C712 N709 1.314 . S
C712 C710 1.353 . S
C712 H770 0.930 . S
C713 N709 1.279 . S
C713 C711 1.358 . S
C713 H771 0.930 . S
C714 C717 1.348 . S
C714 C718 1.356 . S
C714 O765 1.325 . S
C715 N716 1.279 . S
C715 C718 1.358 . S
C715 H772 0.930 . S
N716 C715 1.279 . S
N716 C719 1.319 . S
C717 C714 1.348 . S
C717 C719 1.353 . S
C717 H773 0.908 1_545 S
C718 C714 1.356 . S
C718 C715 1.358 . S
C718 H774 0.930 . S
C719 N716 1.319 . S
C719 C717 1.353 . S
C719 H775 0.924 1_545 S
C720 N721 1.314 . S
C720 C725 1.353 . S
C720 H726 0.930 . S
N721 Li704 1.990 . S
N721 C720 1.314 . S
N721 C723 1.279 1_545 S
C722 C723 1.362 1_545 S
C722 C724 1.380 . S
C722 H776 0.902 1_545 S
C723 N721 1.279 1_565 S
C723 C722 1.362 1_565 S
C723 H727 0.930 . S
C724 C722 1.380 . S
C724 C725 1.348 . S
C725 C720 1.353 . S
C725 C724 1.348 . S
C725 H777 0.929 . S
H726 C720 0.930 . S
H727 C723 0.930 . S
C728 N729 1.314 . S
C728 C730 1.353 . S
C728 H734 0.930 . S
N729 Li705 1.990 . S
N729 C728 1.314 . S
N729 C732 1.279 . S
C730 C728 1.353 . S
C730 C733 1.348 . S
C730 H778 0.929 . S
C731 C732 1.358 . S
C731 C733 1.356 . S
C731 H779 0.930 . S
C732 N729 1.279 . S
C732 C731 1.358 . S
C732 H735 0.930 . S
C733 C730 1.348 . S
C733 C731 1.356 . S
H734 C728 0.930 . S
H735 C732 0.930 . S
C736 C738 1.348 . S
C736 C739 1.356 . S
C736 O766 1.325 . S
N737 C740 1.314 . S
N737 C741 1.279 . S
C738 C736 1.348 . S
C738 C740 1.353 . S
C738 H780 0.929 . S
C739 C736 1.356 . S
C739 C741 1.358 . S
C739 H781 0.930 . S
C740 N737 1.314 . S
C740 C738 1.353 . S
C740 H782 0.930 . S
C741 N737 1.279 . S
C741 C739 1.358 . S
C741 H783 0.930 . S
C742 C743 1.354 . S
C742 C744 1.354 1_545 S
C742 O767 1.323 . S
C743 C742 1.354 . S
C743 C745 1.353 . S
C743 H784 0.929 . S
C744 C742 1.354 1_565 S
C744 C746 1.358 . S
C744 H785 0.930 . S
C745 C743 1.353 . S
C745 N747 1.314 1_545 S
C745 H786 0.930 . S
C746 C744 1.358 . S
C746 N747 1.279 . S
C746 H787 0.930 . S
N747 C745 1.314 1_565 S
N747 C746 1.279 . S
C748 C750 1.353 . S
C748 N751 1.314 1_565 S
C748 H754 0.930 . S
C749 N751 1.279 . S
C749 C752 1.358 . S
C749 H755 0.930 . S
C750 C748 1.353 . S
C750 C753 1.348 1_565 S
C750 H788 0.929 . S
N751 Li706 1.990 . S
N751 C748 1.314 1_545 S
N751 C749 1.279 . S
C752 C749 1.358 . S
C752 C753 1.356 . S
C752 H789 0.930 . S
C753 C750 1.348 1_545 S
C753 C752 1.356 . S
H754 C748 0.930 . S
H755 C749 0.930 . S
C756 N757 1.314 . S
C756 C758 1.353 . S
C756 H762 0.930 . S
N757 Li707 1.990 . S
N757 C756 1.314 . S
N757 C760 1.279 . S
C758 C756 1.353 . S
C758 C761 1.348 . S
C758 H790 0.929 . S
C759 C760 1.358 . S
C759 C761 1.356 . S
C759 H791 0.930 . S
C760 N757 1.279 . S
C760 C759 1.358 . S
C760 H763 0.930 . S
C761 C758 1.348 . S
C761 C759 1.356 . S
H762 C756 0.930 . S
H763 C760 0.930 . S
O764 Li704 1.956 1_565 S
O764 Li705 1.970 . S
O764 Li706 1.961 1_565 S
O764 C708 1.325 . S
O765 Li704 1.970 . S
O765 Li705 1.956 1_545 S
O765 Li707 1.961 . S
O765 C714 1.325 . S
O766 Li704 1.961 . S
O766 Li706 1.956 . S
O766 Li707 1.970 . S
O766 C736 1.325 . S
O767 Li705 1.961 1_545 S
O767 Li706 1.970 . S
O767 Li707 1.956 . S
O767 C742 1.323 . S
H768 C710 0.929 . S
H769 C711 0.930 . S
H770 C712 0.930 . S
H771 C713 0.930 . S
H772 C715 0.930 . S
H773 C717 0.908 1_565 S
H774 C718 0.930 . S
H775 C719 0.924 1_565 S
H776 C722 0.902 1_565 S
H777 C725 0.929 . S
H778 C730 0.929 . S
H779 C731 0.930 . S
H780 C738 0.929 . S
H781 C739 0.930 . S
H782 C740 0.930 . S
H783 C741 0.930 . S
H784 C743 0.929 . S
H785 C744 0.930 . S
H786 C745 0.930 . S
H787 C746 0.930 . S
H788 C750 0.929 . S
H789 C752 0.930 . S
H790 C758 0.929 . S
H791 C759 0.930 . S
Li792 N809 1.990 . S
Li792 O852 1.956 . S
Li792 O853 1.970 . S
Li792 O854 1.961 . S
Li793 N817 1.990 . S
Li793 O852 1.970 . S
Li793 O853 1.956 . S
Li793 O855 1.961 . S
Li794 N839 1.990 . S
Li794 O852 1.961 . S
Li794 O854 1.956 . S
Li794 O855 1.970 . S
Li795 N845 1.990 . S
Li795 O853 1.961 . S
Li795 O854 1.970 . S
Li795 O855 1.956 . S
C796 C798 1.348 . S
C796 C799 1.356 . S
C796 O852 1.325 . S
N797 C800 1.314 . S
N797 C801 1.279 . S
C798 C796 1.348 . S
C798 C800 1.353 . S
C798 H856 0.929 . S
C799 C796 1.356 . S
C799 C801 1.358 . S
C799 H857 0.930 . S
C800 N797 1.314 . S
C800 C798 1.353 . S
C800 H858 0.930 . S
C801 N797 1.279 . S
C801 C799 1.358 . S
C801 H859 0.930 . S
C802 C805 1.348 . S
C802 C806 1.356 . S
C802 O853 1.325 . S
C803 N804 1.279 . S
C803 C806 1.358 . S
C803 H860 0.930 . S
N804 C803 1.279 . S
N804 C807 1.314 . S
C805 C802 1.348 . S
C805 C807 1.353 . S
C805 H861 0.929 . S
C806 C802 1.356 . S
C806 C803 1.358 . S
C806 H862 0.930 . S
C807 N804 1.314 . S
C807 C805 1.353 . S
C807 H863 0.930 . S
C808 N809 1.314 . S
C808 C813 1.353 . S
C808 H814 0.930 . S
N809 Li792 1.990 . S
N809 C808 1.314 . S
N809 C811 1.279 . S
C810 C811 1.358 . S
C810 C812 1.356 . S
C810 H864 0.930 . S
C811 N809 1.279 . S
C811 C810 1.358 . S
C811 H815 0.930 . S
C812 C810 1.356 . S
C812 C813 1.348 . S
C813 C808 1.353 . S
C813 C812 1.348 . S
C813 H865 0.929 . S
H814 C808 0.930 . S
H815 C811 0.930 . S
C816 N817 1.314 . S
C816 C818 1.353 . S
C816 H822 0.930 . S
N817 Li793 1.990 . S
N817 C816 1.314 . S
N817 C820 1.279 . S
C818 C816 1.353 . S
C818 C821 1.348 . S
C818 H866 0.929 . S
C819 C820 1.358 . S
C819 C821 1.356 . S
C819 H867 0.930 . S
C820 N817 1.279 . S
C820 C819 1.358 . S
C820 H823 0.930 . S
C821 C818 1.348 . S
C821 C819 1.356 . S
H822 C816 0.930 . S
H823 C820 0.930 . S
C824 C826 1.348 . S
C824 C827 1.356 . S
C824 O854 1.325 . S
N825 C828 1.314 . S
N825 C829 1.279 . S
C826 C824 1.348 . S
C826 C828 1.353 . S
C826 H868 0.929 . S
C827 C824 1.356 . S
C827 C829 1.358 . S
C827 H869 0.930 . S
C828 N825 1.314 . S
C828 C826 1.353 . S
C828 H870 0.930 . S
C829 N825 1.279 . S
C829 C827 1.358 . S
C829 H871 0.930 . S
C830 C831 1.348 . S
C830 C832 1.356 . S
C830 O855 1.325 . S
C831 C830 1.348 . S
C831 C833 1.353 . S
C831 H872 0.929 . S
C832 C830 1.356 . S
C832 C834 1.358 . S
C832 H873 0.930 . S
C833 C831 1.353 . S
C833 N835 1.314 . S
C833 H874 0.930 . S
C834 C832 1.358 . S
C834 N835 1.279 . S
C834 H875 0.930 . S
N835 C833 1.314 . S
N835 C834 1.279 . S
C836 C838 1.353 . S
C836 N839 1.314 . S
C836 H842 0.930 . S
C837 N839 1.279 . S
C837 C840 1.358 . S
C837 H843 0.930 . S
C838 C836 1.353 . S
C838 C841 1.348 . S
C838 H876 0.929 . S
N839 Li794 1.990 . S
N839 C836 1.314 . S
N839 C837 1.279 . S
C840 C837 1.358 . S
C840 C841 1.356 . S
C840 H877 0.930 . S
C841 C838 1.348 . S
C841 C840 1.356 . S
H842 C836 0.930 . S
H843 C837 0.930 . S
C844 N845 1.314 . S
C844 C846 1.353 . S
C844 H850 0.930 . S
N845 Li795 1.990 . S
N845 C844 1.314 . S
N845 C848 1.279 . S
C846 C844 1.353 . S
C846 C849 1.348 . S
C846 H878 0.929 . S
C847 C848 1.358 . S
C847 C849 1.356 . S
C847 H879 0.930 . S
C848 N845 1.279 . S
C848 C847 1.358 . S
C848 H851 0.930 . S
C849 C846 1.348 . S
C849 C847 1.356 . S
H850 C844 0.930 . S
H851 C848 0.930 . S
O852 Li792 1.956 . S
O852 Li793 1.970 . S
O852 Li794 1.961 . S
O852 C796 1.325 . S
O853 Li792 1.970 . S
O853 Li793 1.956 . S
O853 Li795 1.961 . S
O853 C802 1.325 . S
O854 Li792 1.961 . S
O854 Li794 1.956 . S
O854 Li795 1.970 . S
O854 C824 1.325 . S
O855 Li793 1.961 . S
O855 Li794 1.970 . S
O855 Li795 1.956 . S
O855 C830 1.325 . S
H856 C798 0.929 . S
H857 C799 0.930 . S
H858 C800 0.930 . S
H859 C801 0.930 . S
H860 C803 0.930 . S
H861 C805 0.929 . S
H862 C806 0.930 . S
H863 C807 0.930 . S
H864 C810 0.930 . S
H865 C813 0.929 . S
H866 C818 0.929 . S
H867 C819 0.930 . S
H868 C826 0.929 . S
H869 C827 0.930 . S
H870 C828 0.930 . S
H871 C829 0.930 . S
H872 C831 0.929 . S
H873 C832 0.930 . S
H874 C833 0.930 . S
H875 C834 0.930 . S
H876 C838 0.929 . S
H877 C840 0.930 . S
H878 C846 0.929 . S
H879 C847 0.930 . S
Li880 N897 1.990 . S
Li880 O940 1.956 . S
Li880 O941 1.970 . S
Li880 O942 1.961 . S
Li881 N905 1.990 . S
Li881 O940 1.970 . S
Li881 O941 1.956 . S
Li881 O943 1.961 . S
Li882 N927 1.990 1_545 S
Li882 O940 1.961 . S
Li882 O942 1.956 . S
Li882 O943 1.970 . S
Li883 N933 1.990 . S
Li883 O941 1.961 . S
Li883 O942 1.970 . S
Li883 O943 1.956 . S
C884 C886 1.348 . S
C884 C887 1.356 . S
C884 O940 1.325 . S
N885 C888 1.314 . S
N885 C889 1.279 . S
C886 C884 1.348 . S
C886 C888 1.353 . S
C886 H944 0.929 . S
C887 C884 1.356 . S
C887 C889 1.358 . S
C887 H945 0.930 . S
C888 N885 1.314 . S
C888 C886 1.353 . S
C888 H946 0.930 . S
C889 N885 1.279 . S
C889 C887 1.358 . S
C889 H947 0.930 . S
C890 C893 1.348 . S
C890 C894 1.356 . S
C890 O941 1.325 . S
C891 N892 1.279 . S
C891 C894 1.358 . S
C891 H948 0.930 . S
N892 C891 1.279 . S
N892 C895 1.314 . S
C893 C890 1.348 . S
C893 C895 1.353 . S
C893 H949 0.929 . S
C894 C890 1.356 . S
C894 C891 1.358 . S
C894 H950 0.930 . S
C895 N892 1.314 . S
C895 C893 1.353 . S
C895 H951 0.930 . S
C896 N897 1.314 . S
C896 C901 1.353 . S
C896 H902 0.930 . S
N897 Li880 1.990 . S
N897 C896 1.314 . S
N897 C899 1.279 . S
C898 C899 1.358 . S
C898 C900 1.356 . S
C898 H952 0.930 . S
C899 N897 1.279 . S
C899 C898 1.358 . S
C899 H903 0.930 . S
C900 C898 1.356 . S
C900 C901 1.348 . S
C901 C896 1.353 . S
C901 C900 1.348 . S
C901 H953 0.929 . S
H902 C896 0.930 . S
H903 C899 0.930 . S
C904 N905 1.314 . S
C904 C906 1.353 . S
C904 H910 0.930 . S
N905 Li881 1.990 . S
N905 C904 1.314 . S
N905 C908 1.279 . S
C906 C904 1.353 . S
C906 C909 1.348 . S
C906 H954 0.929 . S
C907 C908 1.358 . S
C907 C909 1.356 . S
C907 H955 0.930 . S
C908 N905 1.279 . S
C908 C907 1.358 . S
C908 H911 0.930 . S
C909 C906 1.348 . S
C909 C907 1.356 . S
H910 C904 0.930 . S
H911 C908 0.930 . S
C912 C914 1.348 . S
C912 C915 1.356 . S
C912 O942 1.325 . S
N913 C916 1.314 . S
N913 C917 1.279 . S
C914 C912 1.348 . S
C914 C916 1.353 . S
C914 H956 0.929 . S
C915 C912 1.356 . S
C915 C917 1.358 . S
C915 H957 0.930 . S
C916 N913 1.314 . S
C916 C914 1.353 . S
C916 H958 0.930 . S
C917 N913 1.279 . S
C917 C915 1.358 . S
C917 H959 0.930 . S
C918 C919 1.348 . S
C918 C920 1.356 . S
C918 O943 1.325 1_565 S
C919 C918 1.348 . S
C919 C921 1.353 . S
C919 H960 0.929 . S
C920 C918 1.356 . S
C920 C922 1.358 . S
C920 H961 0.930 1_565 S
C921 C919 1.353 . S
C921 N923 1.314 . S
C921 H962 0.930 . S
C922 C920 1.358 . S
C922 N923 1.279 . S
C922 H963 0.930 . S
N923 C921 1.314 . S
N923 C922 1.279 . S
C924 C926 1.353 . S
C924 N927 1.314 . S
C924 H930 0.930 . S
C925 N927 1.279 . S
C925 C928 1.358 . S
C925 H931 0.930 . S
C926 C924 1.353 . S
C926 C929 1.348 . S
C926 H964 0.929 . S
N927 Li882 1.990 1_565 S
N927 C924 1.314 . S
N927 C925 1.279 . S
C928 C925 1.358 . S
C928 C929 1.356 . S
C928 H965 0.930 . S
C929 C926 1.348 . S
C929 C928 1.356 . S
H930 C924 0.930 . S
H931 C925 0.930 . S
C932 N933 1.314 . S
C932 C934 1.353 . S
C932 H938 0.930 . S
N933 Li883 1.990 . S
N933 C932 1.314 . S
N933 C936 1.279 . S
C934 C932 1.353 . S
C934 C937 1.348 . S
C934 H966 0.929 . S
C935 C936 1.358 . S
C935 C937 1.356 . S
C935 H967 0.930 1_545 S
C936 N933 1.279 . S
C936 C935 1.358 . S
C936 H939 0.901 1_545 S
C937 C934 1.348 . S
C937 C935 1.356 . S
H938 C932 0.930 . S
H939 C936 0.901 1_565 S
O940 Li880 1.956 . S
O940 Li881 1.970 . S
O940 Li882 1.961 . S
O940 C884 1.325 . S
O941 Li880 1.970 . S
O941 Li881 1.956 . S
O941 Li883 1.961 . S
O941 C890 1.325 . S
O942 Li880 1.961 . S
O942 Li882 1.956 . S
O942 Li883 1.970 . S
O942 C912 1.325 . S
O943 Li881 1.961 . S
O943 Li882 1.970 . S
O943 Li883 1.956 . S
O943 C918 1.325 1_545 S
H944 C886 0.929 . S
H945 C887 0.930 . S
H946 C888 0.930 . S
H947 C889 0.930 . S
H948 C891 0.930 . S
H949 C893 0.929 . S
H950 C894 0.930 . S
H951 C895 0.930 . S
H952 C898 0.930 . S
H953 C901 0.929 . S
H954 C906 0.929 . S
H955 C907 0.930 . S
H956 C914 0.929 . S
H957 C915 0.930 . S
H958 C916 0.930 . S
H959 C917 0.930 . S
H960 C919 0.929 . S
H961 C920 0.930 1_545 S
H962 C921 0.930 . S
H963 C922 0.930 . S
H964 C926 0.929 . S
H965 C928 0.930 . S
H966 C934 0.929 . S
H967 C935 0.930 1_565 S
Li968 N985 1.990 . S
Li968 O1028 1.979 . S
Li968 O1029 1.971 1_554 S
Li968 O1030 1.934 1_554 S
Li969 N993 1.990 . S
Li969 O1028 1.970 . S
Li969 O1029 1.956 1_554 S
Li969 O1031 1.996 . S
Li970 N1015 1.990 . S
Li970 O1028 1.961 . S
Li970 O1030 1.956 1_554 S
Li970 O1031 1.967 . S
Li971 N1021 1.990 . S
Li971 O1029 1.961 . S
Li971 O1030 1.970 . S
Li971 O1031 1.923 1_556 S
C972 C974 1.348 . S
C972 C975 1.356 . S
C972 O1028 1.325 . S
N973 C976 1.314 . S
N973 C977 1.279 . S
C974 C972 1.348 . S
C974 C976 1.353 . S
C974 H1032 0.929 . S
C975 C972 1.356 . S
C975 C977 1.358 . S
C975 H1033 0.930 . S
C976 N973 1.314 . S
C976 C974 1.353 . S
C976 H1034 0.930 . S
C977 N973 1.279 . S
C977 C975 1.358 . S
C977 H1035 0.930 . S
C978 C981 1.348 1_556 S
C978 C982 1.356 . S
C978 O1029 1.325 . S
C979 N980 1.279 . S
C979 C982 1.358 . S
C979 H1036 0.930 . S
N980 C979 1.279 . S
N980 C983 1.324 . S
C981 C978 1.348 1_554 S
C981 C983 1.357 1_554 S
C981 H1037 0.929 . S
C982 C978 1.356 . S
C982 C979 1.358 . S
C982 H1038 0.930 . S
C983 N980 1.324 . S
C983 C981 1.357 1_556 S
C983 H1039 0.917 1_556 S
C984 N985 1.272 1_556 S
C984 C989 1.353 . S
C984 H990 0.930 . S
N985 Li968 1.990 . S
N985 C984 1.272 1_554 S
N985 C987 1.323 . S
C986 C987 1.358 . S
C986 C988 1.343 1_554 S
C986 H1040 0.930 . S
C987 N985 1.323 . S
C987 C986 1.358 . S
C987 H991 0.930 . S
C988 C986 1.343 1_556 S
C988 C989 1.361 . S
C989 C984 1.353 . S
C989 C988 1.361 . S
C989 H1041 0.929 . S
H990 C984 0.930 . S
H991 C987 0.930 . S
C992 N993 1.314 . S
C992 C994 1.353 . S
C992 H998 0.930 . S
N993 Li969 1.990 . S
N993 C992 1.314 . S
N993 C996 1.279 . S
C994 C992 1.353 . S
C994 C997 1.348 . S
C994 H1042 0.929 . S
C995 C996 1.358 . S
C995 C997 1.356 . S
C995 H1043 0.930 . S
C996 N993 1.279 . S
C996 C995 1.358 . S
C996 H999 0.930 . S
C997 C994 1.348 . S
C997 C995 1.356 . S
H998 C992 0.930 . S
H999 C996 0.930 . S
C1000 C1002 1.348 . S
C1000 C1003 1.356 . S
C1000 O1030 1.325 . S
N1001 C1004 1.314 . S
N1001 C1005 1.279 . S
C1002 C1000 1.348 . S
C1002 C1004 1.353 . S
C1002 H1044 0.929 . S
C1003 C1000 1.356 . S
C1003 C1005 1.358 . S
C1003 H1045 0.930 . S
C1004 N1001 1.314 . S
C1004 C1002 1.353 . S
C1004 H1046 0.930 . S
C1005 N1001 1.279 . S
C1005 C1003 1.358 . S
C1005 H1047 0.930 . S
C1006 C1007 1.341 1_554 S
C1006 C1008 1.361 . S
C1006 O1031 1.324 . S
C1007 C1006 1.341 1_556 S
C1007 C1009 1.353 . S
C1007 H1048 0.929 . S
C1008 C1006 1.361 . S
C1008 C1010 1.358 . S
C1008 H1049 0.930 . S
C1009 C1007 1.353 . S
C1009 N1011 1.314 . S
C1009 H1050 0.930 . S
C1010 C1008 1.358 . S
C1010 N1011 1.279 1_554 S
C1010 H1051 0.930 . S
N1011 C1009 1.314 . S
N1011 C1010 1.279 1_556 S
C1012 C1014 1.353 . S
C1012 N1015 1.314 . S
C1012 H1018 0.930 . S
C1013 N1015 1.279 1_556 S
C1013 C1016 1.358 . S
C1013 H1019 0.930 . S
C1014 C1012 1.353 . S
C1014 C1017 1.348 . S
C1014 H1052 0.929 . S
N1015 Li970 1.990 . S
N1015 C1012 1.314 . S
N1015 C1013 1.279 1_554 S
C1016 C1013 1.358 . S
C1016 C1017 1.356 1_556 S
C1016 H1053 0.930 . S
C1017 C1014 1.348 . S
C1017 C1016 1.356 1_554 S
H1018 C1012 0.930 . S
H1019 C1013 0.930 . S
C1020 N1021 1.314 . S
C1020 C1022 1.353 . S
C1020 H1026 0.930 . S
N1021 Li971 1.990 . S
N1021 C1020 1.314 . S
N1021 C1024 1.279 . S
C1022 C1020 1.353 . S
C1022 C1025 1.348 . S
C1022 H1054 0.929 . S
C1023 C1024 1.358 . S
C1023 C1025 1.356 . S
C1023 H1055 0.930 . S
C1024 N1021 1.279 . S
C1024 C1023 1.358 . S
C1024 H1027 0.930 . S
C1025 C1022 1.348 . S
C1025 C1023 1.356 . S
H1026 C1020 0.930 . S
H1027 C1024 0.930 . S
O1028 Li968 1.979 . S
O1028 Li969 1.970 . S
O1028 Li970 1.961 . S
O1028 C972 1.325 . S
O1029 Li968 1.971 1_556 S
O1029 Li969 1.956 1_556 S
O1029 Li971 1.961 . S
O1029 C978 1.325 . S
O1030 Li968 1.934 1_556 S
O1030 Li970 1.956 1_556 S
O1030 Li971 1.970 . S
O1030 C1000 1.325 . S
O1031 Li969 1.996 . S
O1031 Li970 1.967 . S
O1031 Li971 1.923 1_554 S
O1031 C1006 1.324 . S
H1032 C974 0.929 . S
H1033 C975 0.930 . S
H1034 C976 0.930 . S
H1035 C977 0.930 . S
H1036 C979 0.930 . S
H1037 C981 0.929 . S
H1038 C982 0.930 . S
H1039 C983 0.917 1_554 S
H1040 C986 0.930 . S
H1041 C989 0.929 . S
H1042 C994 0.929 . S
H1043 C995 0.930 . S
H1044 C1002 0.929 . S
H1045 C1003 0.930 . S
H1046 C1004 0.930 . S
H1047 C1005 0.930 . S
H1048 C1007 0.929 . S
H1049 C1008 0.930 . S
H1050 C1009 0.930 . S
H1051 C1010 0.930 . S
H1052 C1014 0.929 . S
H1053 C1016 0.930 . S
H1054 C1022 0.929 . S
H1055 C1023 0.930 . S
Li1056 N1073 1.990 . S
Li1056 O1116 1.956 . S
Li1056 O1117 1.970 . S
Li1056 O1118 1.961 . S
Li1057 N1081 1.990 . S
Li1057 O1116 1.970 . S
Li1057 O1117 1.956 . S
Li1057 O1119 1.961 . S
Li1058 N1103 1.990 . S
Li1058 O1116 1.961 . S
Li1058 O1118 1.956 . S
Li1058 O1119 1.970 . S
Li1059 N1109 1.990 1_554 S
Li1059 O1117 1.961 . S
Li1059 O1118 1.970 . S
Li1059 O1119 1.956 . S
C1060 C1062 1.348 . S
C1060 C1063 1.356 . S
C1060 O1116 1.325 . S
N1061 C1064 1.314 . S
N1061 C1065 1.279 . S
C1062 C1060 1.348 . S
C1062 C1064 1.353 . S
C1062 H1120 0.929 . S
C1063 C1060 1.356 . S
C1063 C1065 1.358 . S
C1063 H1121 0.930 . S
C1064 N1061 1.314 . S
C1064 C1062 1.353 . S
C1064 H1122 0.930 . S
C1065 N1061 1.279 . S
C1065 C1063 1.358 . S
C1065 H1123 0.930 . S
C1066 C1069 1.348 . S
C1066 C1070 1.356 . S
C1066 O1117 1.325 . S
C1067 N1068 1.279 . S
C1067 C1070 1.358 . S
C1067 H1124 0.930 . S
N1068 C1067 1.279 . S
N1068 C1071 1.314 . S
C1069 C1066 1.348 . S
C1069 C1071 1.353 . S
C1069 H1125 0.929 . S
C1070 C1066 1.356 . S
C1070 C1067 1.358 . S
C1070 H1126 0.930 . S
C1071 N1068 1.314 . S
C1071 C1069 1.353 . S
C1071 H1127 0.930 . S
C1072 N1073 1.314 . S
C1072 C1077 1.353 . S
C1072 H1078 0.930 . S
N1073 Li1056 1.990 . S
N1073 C1072 1.314 . S
N1073 C1075 1.279 . S
C1074 C1075 1.358 . S
C1074 C1076 1.356 . S
C1074 H1128 0.930 . S
C1075 N1073 1.279 . S
C1075 C1074 1.358 . S
C1075 H1079 0.930 . S
C1076 C1074 1.356 . S
C1076 C1077 1.348 . S
C1077 C1072 1.353 . S
C1077 C1076 1.348 . S
C1077 H1129 0.929 . S
H1078 C1072 0.930 . S
H1079 C1075 0.930 . S
C1080 N1081 1.314 . S
C1080 C1082 1.353 . S
C1080 H1086 0.930 . S
N1081 Li1057 1.990 . S
N1081 C1080 1.314 . S
N1081 C1084 1.279 . S
C1082 C1080 1.353 . S
C1082 C1085 1.348 . S
C1082 H1130 0.929 . S
C1083 C1084 1.358 . S
C1083 C1085 1.356 . S
C1083 H1131 0.930 . S
C1084 N1081 1.279 . S
C1084 C1083 1.358 . S
C1084 H1087 0.930 . S
C1085 C1082 1.348 . S
C1085 C1083 1.356 . S
H1086 C1080 0.930 . S
H1087 C1084 0.930 . S
C1088 C1090 1.348 1_554 S
C1088 C1091 1.356 . S
C1088 O1118 1.325 . S
N1089 C1092 1.314 . S
N1089 C1093 1.279 . S
C1090 C1088 1.348 1_556 S
C1090 C1092 1.353 . S
C1090 H1132 0.929 . S
C1091 C1088 1.356 . S
C1091 C1093 1.358 1_554 S
C1091 H1133 0.930 . S
C1092 N1089 1.314 . S
C1092 C1090 1.353 . S
C1092 H1134 0.930 . S
C1093 N1089 1.279 . S
C1093 C1091 1.358 1_556 S
C1093 H1135 0.930 . S
C1094 C1095 1.348 . S
C1094 C1096 1.356 . S
C1094 O1119 1.325 . S
C1095 C1094 1.348 . S
C1095 C1097 1.353 . S
C1095 H1136 0.929 . S
C1096 C1094 1.356 . S
C1096 C1098 1.358 . S
C1096 H1137 0.930 . S
C1097 C1095 1.353 . S
C1097 N1099 1.314 . S
C1097 H1138 0.930 . S
C1098 C1096 1.358 . S
C1098 N1099 1.279 . S
C1098 H1139 0.930 . S
N1099 C1097 1.314 . S
N1099 C1098 1.279 . S
C1100 C1102 1.353 . S
C1100 N1103 1.314 . S
C1100 H1106 0.930 . S
C1101 N1103 1.279 . S
C1101 C1104 1.358 . S
C1101 H1107 0.930 . S
C1102 C1100 1.353 . S
C1102 C1105 1.348 . S
C1102 H1140 0.929 . S
N1103 Li1058 1.990 . S
N1103 C1100 1.314 . S
N1103 C1101 1.279 . S
C1104 C1101 1.358 . S
C1104 C1105 1.356 . S
C1104 H1141 0.930 . S
C1105 C1102 1.348 . S
C1105 C1104 1.356 . S
H1106 C1100 0.930 . S
H1107 C1101 0.930 . S
C1108 N1109 1.314 . S
C1108 C1110 1.353 . S
C1108 H1114 0.930 . S
N1109 Li1059 1.990 1_556 S
N1109 C1108 1.314 . S
N1109 C1112 1.279 . S
C1110 C1108 1.353 . S
C1110 C1113 1.348 . S
C1110 H1142 0.929 . S
C1111 C1112 1.358 . S
C1111 C1113 1.356 . S
C1111 H1143 0.930 . S
C1112 N1109 1.279 . S
C1112 C1111 1.358 . S
C1112 H1115 0.930 . S
C1113 C1110 1.348 . S
C1113 C1111 1.356 . S
H1114 C1108 0.930 . S
H1115 C1112 0.930 . S
O1116 Li1056 1.956 . S
O1116 Li1057 1.970 . S
O1116 Li1058 1.961 . S
O1116 C1060 1.325 . S
O1117 Li1056 1.970 . S
O1117 Li1057 1.956 . S
O1117 Li1059 1.961 . S
O1117 C1066 1.325 . S
O1118 Li1056 1.961 . S
O1118 Li1058 1.956 . S
O1118 Li1059 1.970 . S
O1118 C1088 1.325 . S
O1119 Li1057 1.961 . S
O1119 Li1058 1.970 . S
O1119 Li1059 1.956 . S
O1119 C1094 1.325 . S
H1120 C1062 0.929 . S
H1121 C1063 0.930 . S
H1122 C1064 0.930 . S
H1123 C1065 0.930 . S
H1124 C1067 0.930 . S
H1125 C1069 0.929 . S
H1126 C1070 0.930 . S
H1127 C1071 0.930 . S
H1128 C1074 0.930 . S
H1129 C1077 0.929 . S
H1130 C1082 0.929 . S
H1131 C1083 0.930 . S
H1132 C1090 0.929 . S
H1133 C1091 0.930 . S
H1134 C1092 0.930 . S
H1135 C1093 0.930 . S
H1136 C1095 0.929 . S
H1137 C1096 0.930 . S
H1138 C1097 0.930 . S
H1139 C1098 0.930 . S
H1140 C1102 0.929 . S
H1141 C1104 0.930 . S
H1142 C1110 0.929 . S
H1143 C1111 0.930 . S
Li1144 N1161 1.990 . S
Li1144 O1204 1.956 . S
Li1144 O1205 1.970 . S
Li1144 O1206 1.961 . S
Li1145 N1169 1.990 . S
Li1145 O1204 1.970 . S
Li1145 O1205 1.956 . S
Li1145 O1207 1.961 . S
Li1146 N1191 1.990 . S
Li1146 O1204 1.961 . S
Li1146 O1206 1.956 . S
Li1146 O1207 1.970 . S
Li1147 N1197 1.990 . S
Li1147 O1205 1.961 . S
Li1147 O1206 1.970 . S
Li1147 O1207 1.956 . S
C1148 C1150 1.348 . S
C1148 C1151 1.356 . S
C1148 O1204 1.325 . S
N1149 C1152 1.314 . S
N1149 C1153 1.279 . S
C1150 C1148 1.348 . S
C1150 C1152 1.353 . S
C1150 H1208 0.929 . S
C1151 C1148 1.356 . S
C1151 C1153 1.358 . S
C1151 H1209 0.930 . S
C1152 N1149 1.314 . S
C1152 C1150 1.353 . S
C1152 H1210 0.930 . S
C1153 N1149 1.279 . S
C1153 C1151 1.358 . S
C1153 H1211 0.930 . S
C1154 C1157 1.348 . S
C1154 C1158 1.356 . S
C1154 O1205 1.325 . S
C1155 N1156 1.279 . S
C1155 C1158 1.358 . S
C1155 H1212 0.930 . S
N1156 C1155 1.279 . S
N1156 C1159 1.314 . S
C1157 C1154 1.348 . S
C1157 C1159 1.353 . S
C1157 H1213 0.929 . S
C1158 C1154 1.356 . S
C1158 C1155 1.358 . S
C1158 H1214 0.930 . S
C1159 N1156 1.314 . S
C1159 C1157 1.353 . S
C1159 H1215 0.930 . S
C1160 N1161 1.314 . S
C1160 C1165 1.353 . S
C1160 H1166 0.930 . S
N1161 Li1144 1.990 . S
N1161 C1160 1.314 . S
N1161 C1163 1.279 . S
C1162 C1163 1.358 . S
C1162 C1164 1.356 . S
C1162 H1216 0.930 . S
C1163 N1161 1.279 . S
C1163 C1162 1.358 . S
C1163 H1167 0.930 . S
C1164 C1162 1.356 . S
C1164 C1165 1.348 . S
C1165 C1160 1.353 . S
C1165 C1164 1.348 . S
C1165 H1217 0.929 . S
H1166 C1160 0.930 . S
H1167 C1163 0.930 . S
C1168 N1169 1.314 . S
C1168 C1170 1.353 . S
C1168 H1174 0.930 . S
N1169 Li1145 1.990 . S
N1169 C1168 1.314 . S
N1169 C1172 1.279 . S
C1170 C1168 1.353 . S
C1170 C1173 1.348 . S
C1170 H1218 0.929 . S
C1171 C1172 1.358 . S
C1171 C1173 1.356 . S
C1171 H1219 0.930 . S
C1172 N1169 1.279 . S
C1172 C1171 1.358 . S
C1172 H1175 0.930 . S
C1173 C1170 1.348 . S
C1173 C1171 1.356 . S
H1174 C1168 0.930 . S
H1175 C1172 0.930 . S
C1176 C1178 1.348 . S
C1176 C1179 1.356 . S
C1176 O1206 1.325 . S
N1177 C1180 1.314 . S
N1177 C1181 1.279 . S
C1178 C1176 1.348 . S
C1178 C1180 1.353 . S
C1178 H1220 0.929 . S
C1179 C1176 1.356 . S
C1179 C1181 1.358 . S
C1179 H1221 0.930 . S
C1180 N1177 1.314 . S
C1180 C1178 1.353 . S
C1180 H1222 0.930 . S
C1181 N1177 1.279 . S
C1181 C1179 1.358 . S
C1181 H1223 0.930 . S
C1182 C1183 1.348 1_554 S
C1182 C1184 1.356 . S
C1182 O1207 1.325 . S
C1183 C1182 1.348 1_556 S
C1183 C1185 1.353 . S
C1183 H1224 0.929 . S
C1184 C1182 1.356 . S
C1184 C1186 1.358 1_554 S
C1184 H1225 0.930 . S
C1185 C1183 1.353 . S
C1185 N1187 1.314 . S
C1185 H1226 0.930 . S
C1186 C1184 1.358 1_556 S
C1186 N1187 1.279 . S
C1186 H1227 0.930 . S
N1187 C1185 1.314 . S
N1187 C1186 1.279 . S
C1188 C1190 1.353 . S
C1188 N1191 1.314 1_556 S
C1188 H1194 0.929 1_556 S
C1189 N1191 1.279 1_556 S
C1189 C1192 1.358 . S
C1189 H1195 0.930 1_556 S
C1190 C1188 1.353 . S
C1190 C1193 1.348 . S
C1190 H1228 0.929 . S
N1191 Li1146 1.990 . S
N1191 C1188 1.314 1_554 S
N1191 C1189 1.279 1_554 S
C1192 C1189 1.358 . S
C1192 C1193 1.356 . S
C1192 H1229 0.930 . S
C1193 C1190 1.348 . S
C1193 C1192 1.356 . S
H1194 C1188 0.929 1_554 S
H1195 C1189 0.930 1_554 S
C1196 N1197 1.314 . S
C1196 C1198 1.353 . S
C1196 H1202 0.930 . S
N1197 Li1147 1.990 . S
N1197 C1196 1.314 . S
N1197 C1200 1.279 . S
C1198 C1196 1.353 . S
C1198 C1201 1.348 . S
C1198 H1230 0.929 . S
C1199 C1200 1.358 . S
C1199 C1201 1.356 . S
C1199 H1231 0.930 . S
C1200 N1197 1.279 . S
C1200 C1199 1.358 . S
C1200 H1203 0.930 . S
C1201 C1198 1.348 . S
C1201 C1199 1.356 . S
H1202 C1196 0.930 . S
H1203 C1200 0.930 . S
O1204 Li1144 1.956 . S
O1204 Li1145 1.970 . S
O1204 Li1146 1.961 . S
O1204 C1148 1.325 . S
O1205 Li1144 1.970 . S
O1205 Li1145 1.956 . S
O1205 Li1147 1.961 . S
O1205 C1154 1.325 . S
O1206 Li1144 1.961 . S
O1206 Li1146 1.956 . S
O1206 Li1147 1.970 . S
O1206 C1176 1.325 . S
O1207 Li1145 1.961 . S
O1207 Li1146 1.970 . S
O1207 Li1147 1.956 . S
O1207 C1182 1.325 . S
H1208 C1150 0.929 . S
H1209 C1151 0.930 . S
H1210 C1152 0.930 . S
H1211 C1153 0.930 . S
H1212 C1155 0.930 . S
H1213 C1157 0.929 . S
H1214 C1158 0.930 . S
H1215 C1159 0.930 . S
H1216 C1162 0.930 . S
H1217 C1165 0.929 . S
H1218 C1170 0.929 . S
H1219 C1171 0.930 . S
H1220 C1178 0.929 . S
H1221 C1179 0.930 . S
H1222 C1180 0.930 . S
H1223 C1181 0.930 . S
H1224 C1183 0.929 . S
H1225 C1184 0.930 . S
H1226 C1185 0.930 . S
H1227 C1186 0.930 . S
H1228 C1190 0.929 . S
H1229 C1192 0.930 . S
H1230 C1198 0.929 . S
H1231 C1199 0.930 . S
Li1232 N1249 1.990 . S
Li1232 O1292 1.956 . S
Li1232 O1293 1.970 . S
Li1232 O1294 1.961 . S
Li1233 N1257 1.990 . S
Li1233 O1292 1.970 . S
Li1233 O1293 1.956 . S
Li1233 O1295 1.961 . S
Li1234 N1279 1.990 . S
Li1234 O1292 1.961 . S
Li1234 O1294 1.956 . S
Li1234 O1295 1.970 . S
Li1235 N1285 1.990 . S
Li1235 O1293 1.961 . S
Li1235 O1294 1.970 . S
Li1235 O1295 1.956 . S
C1236 C1238 1.348 . S
C1236 C1239 1.356 . S
C1236 O1292 1.325 . S
N1237 C1240 1.314 . S
N1237 C1241 1.279 . S
C1238 C1236 1.348 . S
C1238 C1240 1.353 . S
C1238 H1296 0.929 . S
C1239 C1236 1.356 . S
C1239 C1241 1.358 . S
C1239 H1297 0.930 . S
C1240 N1237 1.314 . S
C1240 C1238 1.353 . S
C1240 H1298 0.930 . S
C1241 N1237 1.279 . S
C1241 C1239 1.358 . S
C1241 H1299 0.930 . S
C1242 C1245 1.348 . S
C1242 C1246 1.356 . S
C1242 O1293 1.325 . S
C1243 N1244 1.279 . S
C1243 C1246 1.358 . S
C1243 H1300 0.930 . S
N1244 C1243 1.279 . S
N1244 C1247 1.314 . S
C1245 C1242 1.348 . S
C1245 C1247 1.353 . S
C1245 H1301 0.929 . S
C1246 C1242 1.356 . S
C1246 C1243 1.358 . S
C1246 H1302 0.930 . S
C1247 N1244 1.314 . S
C1247 C1245 1.353 . S
C1247 H1303 0.930 . S
C1248 N1249 1.314 . S
C1248 C1253 1.353 . S
C1248 H1254 0.930 . S
N1249 Li1232 1.990 . S
N1249 C1248 1.314 . S
N1249 C1251 1.279 . S
C1250 C1251 1.358 . S
C1250 C1252 1.356 . S
C1250 H1304 0.930 . S
C1251 N1249 1.279 . S
C1251 C1250 1.358 . S
C1251 H1255 0.930 . S
C1252 C1250 1.356 . S
C1252 C1253 1.348 . S
C1253 C1248 1.353 . S
C1253 C1252 1.348 . S
C1253 H1305 0.929 . S
H1254 C1248 0.930 . S
H1255 C1251 0.930 . S
C1256 N1257 1.314 . S
C1256 C1258 1.353 . S
C1256 H1262 0.930 . S
N1257 Li1233 1.990 . S
N1257 C1256 1.314 . S
N1257 C1260 1.279 . S
C1258 C1256 1.353 . S
C1258 C1261 1.348 . S
C1258 H1306 0.929 . S
C1259 C1260 1.358 . S
C1259 C1261 1.356 . S
C1259 H1307 0.930 . S
C1260 N1257 1.279 . S
C1260 C1259 1.358 . S
C1260 H1263 0.930 . S
C1261 C1258 1.348 . S
C1261 C1259 1.356 . S
H1262 C1256 0.930 . S
H1263 C1260 0.930 . S
C1264 C1266 1.348 . S
C1264 C1267 1.356 . S
C1264 O1294 1.325 . S
N1265 C1268 1.314 . S
N1265 C1269 1.279 . S
C1266 C1264 1.348 . S
C1266 C1268 1.353 . S
C1266 H1308 0.929 . S
C1267 C1264 1.356 . S
C1267 C1269 1.358 . S
C1267 H1309 0.930 . S
C1268 N1265 1.314 . S
C1268 C1266 1.353 . S
C1268 H1310 0.930 . S
C1269 N1265 1.279 . S
C1269 C1267 1.358 . S
C1269 H1311 0.930 . S
C1270 C1271 1.348 . S
C1270 C1272 1.356 . S
C1270 O1295 1.325 . S
C1271 C1270 1.348 . S
C1271 C1273 1.353 . S
C1271 H1312 0.929 . S
C1272 C1270 1.356 . S
C1272 C1274 1.358 . S
C1272 H1313 0.930 . S
C1273 C1271 1.353 . S
C1273 N1275 1.314 . S
C1273 H1314 0.930 . S
C1274 C1272 1.358 . S
C1274 N1275 1.279 . S
C1274 H1315 0.930 . S
N1275 C1273 1.314 . S
N1275 C1274 1.279 . S
C1276 C1278 1.353 . S
C1276 N1279 1.314 . S
C1276 H1282 0.930 . S
C1277 N1279 1.279 . S
C1277 C1280 1.358 . S
C1277 H1283 0.930 . S
C1278 C1276 1.353 . S
C1278 C1281 1.348 . S
C1278 H1316 0.929 . S
N1279 Li1234 1.990 . S
N1279 C1276 1.314 . S
N1279 C1277 1.279 . S
C1280 C1277 1.358 . S
C1280 C1281 1.356 . S
C1280 H1317 0.930 . S
C1281 C1278 1.348 . S
C1281 C1280 1.356 . S
H1282 C1276 0.930 . S
H1283 C1277 0.930 . S
C1284 N1285 1.314 . S
C1284 C1286 1.353 . S
C1284 H1290 0.930 . S
N1285 Li1235 1.990 . S
N1285 C1284 1.314 . S
N1285 C1288 1.279 . S
C1286 C1284 1.353 . S
C1286 C1289 1.348 . S
C1286 H1318 0.929 . S
C1287 C1288 1.358 . S
C1287 C1289 1.356 . S
C1287 H1319 0.930 . S
C1288 N1285 1.279 . S
C1288 C1287 1.358 . S
C1288 H1291 0.930 . S
C1289 C1286 1.348 . S
C1289 C1287 1.356 . S
H1290 C1284 0.930 . S
H1291 C1288 0.930 . S
O1292 Li1232 1.956 . S
O1292 Li1233 1.970 . S
O1292 Li1234 1.961 . S
O1292 C1236 1.325 . S
O1293 Li1232 1.970 . S
O1293 Li1233 1.956 . S
O1293 Li1235 1.961 . S
O1293 C1242 1.325 . S
O1294 Li1232 1.961 . S
O1294 Li1234 1.956 . S
O1294 Li1235 1.970 . S
O1294 C1264 1.325 . S
O1295 Li1233 1.961 . S
O1295 Li1234 1.970 . S
O1295 Li1235 1.956 . S
O1295 C1270 1.325 . S
H1296 C1238 0.929 . S
H1297 C1239 0.930 . S
H1298 C1240 0.930 . S
H1299 C1241 0.930 . S
H1300 C1243 0.930 . S
H1301 C1245 0.929 . S
H1302 C1246 0.930 . S
H1303 C1247 0.930 . S
H1304 C1250 0.930 . S
H1305 C1253 0.929 . S
H1306 C1258 0.929 . S
H1307 C1259 0.930 . S
H1308 C1266 0.929 . S
H1309 C1267 0.930 . S
H1310 C1268 0.930 . S
H1311 C1269 0.930 . S
H1312 C1271 0.929 . S
H1313 C1272 0.930 . S
H1314 C1273 0.930 . S
H1315 C1274 0.930 . S
H1316 C1278 0.929 . S
H1317 C1280 0.930 . S
H1318 C1286 0.929 . S
H1319 C1287 0.930 . S
Li1320 N1337 1.990 . S
Li1320 O1380 1.956 . S
Li1320 O1381 1.970 . S
Li1320 O1382 1.961 . S
Li1321 N1345 1.990 . S
Li1321 O1380 1.970 . S
Li1321 O1381 1.956 . S
Li1321 O1383 1.961 . S
Li1322 N1367 1.990 . S
Li1322 O1380 1.961 . S
Li1322 O1382 1.956 . S
Li1322 O1383 1.970 . S
Li1323 N1373 1.990 . S
Li1323 O1381 1.961 . S
Li1323 O1382 1.970 . S
Li1323 O1383 1.956 . S
C1324 C1326 1.348 . S
C1324 C1327 1.356 . S
C1324 O1380 1.325 . S
N1325 C1328 1.314 . S
N1325 C1329 1.279 . S
C1326 C1324 1.348 . S
C1326 C1328 1.353 . S
C1326 H1384 0.929 . S
C1327 C1324 1.356 . S
C1327 C1329 1.358 . S
C1327 H1385 0.930 . S
C1328 N1325 1.314 . S
C1328 C1326 1.353 . S
C1328 H1386 0.930 . S
C1329 N1325 1.279 . S
C1329 C1327 1.358 . S
C1329 H1387 0.930 . S
C1330 C1333 1.348 . S
C1330 C1334 1.356 . S
C1330 O1381 1.325 . S
C1331 N1332 1.279 . S
C1331 C1334 1.358 . S
C1331 H1388 0.930 . S
N1332 C1331 1.279 . S
N1332 C1335 1.314 . S
C1333 C1330 1.348 . S
C1333 C1335 1.353 . S
C1333 H1389 0.929 . S
C1334 C1330 1.356 . S
C1334 C1331 1.358 . S
C1334 H1390 0.930 . S
C1335 N1332 1.314 . S
C1335 C1333 1.353 . S
C1335 H1391 0.930 . S
C1336 N1337 1.314 . S
C1336 C1341 1.353 . S
C1336 H1342 0.930 . S
N1337 Li1320 1.990 . S
N1337 C1336 1.314 . S
N1337 C1339 1.279 . S
C1338 C1339 1.358 . S
C1338 C1340 1.356 . S
C1338 H1392 0.930 . S
C1339 N1337 1.279 . S
C1339 C1338 1.358 . S
C1339 H1343 0.930 . S
C1340 C1338 1.356 . S
C1340 C1341 1.348 . S
C1341 C1336 1.353 . S
C1341 C1340 1.348 . S
C1341 H1393 0.929 . S
H1342 C1336 0.930 . S
H1343 C1339 0.930 . S
C1344 N1345 1.314 . S
C1344 C1346 1.353 . S
C1344 H1350 0.930 . S
N1345 Li1321 1.990 . S
N1345 C1344 1.314 . S
N1345 C1348 1.279 . S
C1346 C1344 1.353 . S
C1346 C1349 1.348 . S
C1346 H1394 0.929 . S
C1347 C1348 1.358 . S
C1347 C1349 1.356 . S
C1347 H1395 0.930 . S
C1348 N1345 1.279 . S
C1348 C1347 1.358 . S
C1348 H1351 0.930 . S
C1349 C1346 1.348 . S
C1349 C1347 1.356 . S
H1350 C1344 0.930 . S
H1351 C1348 0.930 . S
C1352 C1354 1.348 . S
C1352 C1355 1.356 . S
C1352 O1382 1.325 . S
N1353 C1356 1.314 . S
N1353 C1357 1.279 . S
C1354 C1352 1.348 . S
C1354 C1356 1.353 . S
C1354 H1396 0.929 . S
C1355 C1352 1.356 . S
C1355 C1357 1.358 . S
C1355 H1397 0.930 . S
C1356 N1353 1.314 . S
C1356 C1354 1.353 . S
C1356 H1398 0.930 . S
C1357 N1353 1.279 . S
C1357 C1355 1.358 . S
C1357 H1399 0.930 . S
C1358 C1359 1.348 . S
C1358 C1360 1.356 . S
C1358 O1383 1.325 . S
C1359 C1358 1.348 . S
C1359 C1361 1.353 . S
C1359 H1400 0.929 . S
C1360 C1358 1.356 . S
C1360 C1362 1.358 . S
C1360 H1401 0.930 . S
C1361 C1359 1.353 . S
C1361 N1363 1.314 . S
C1361 H1402 0.930 . S
C1362 C1360 1.358 . S
C1362 N1363 1.279 . S
C1362 H1403 0.930 . S
N1363 C1361 1.314 . S
N1363 C1362 1.279 . S
C1364 C1366 1.353 . S
C1364 N1367 1.314 . S
C1364 H1370 0.930 . S
C1365 N1367 1.279 . S
C1365 C1368 1.358 . S
C1365 H1371 0.930 . S
C1366 C1364 1.353 . S
C1366 C1369 1.348 . S
C1366 H1404 0.929 . S
N1367 Li1322 1.990 . S
N1367 C1364 1.314 . S
N1367 C1365 1.279 . S
C1368 C1365 1.358 . S
C1368 C1369 1.356 . S
C1368 H1405 0.930 . S
C1369 C1366 1.348 . S
C1369 C1368 1.356 . S
H1370 C1364 0.930 . S
H1371 C1365 0.930 . S
C1372 N1373 1.314 . S
C1372 C1374 1.353 . S
C1372 H1378 0.930 . S
N1373 Li1323 1.990 . S
N1373 C1372 1.314 . S
N1373 C1376 1.279 . S
C1374 C1372 1.353 . S
C1374 C1377 1.348 . S
C1374 H1406 0.929 . S
C1375 C1376 1.358 . S
C1375 C1377 1.356 . S
C1375 H1407 0.930 . S
C1376 N1373 1.279 . S
C1376 C1375 1.358 . S
C1376 H1379 0.930 . S
C1377 C1374 1.348 . S
C1377 C1375 1.356 . S
H1378 C1372 0.930 . S
H1379 C1376 0.930 . S
O1380 Li1320 1.956 . S
O1380 Li1321 1.970 . S
O1380 Li1322 1.961 . S
O1380 C1324 1.325 . S
O1381 Li1320 1.970 . S
O1381 Li1321 1.956 . S
O1381 Li1323 1.961 . S
O1381 C1330 1.325 . S
O1382 Li1320 1.961 . S
O1382 Li1322 1.956 . S
O1382 Li1323 1.970 . S
O1382 C1352 1.325 . S
O1383 Li1321 1.961 . S
O1383 Li1322 1.970 . S
O1383 Li1323 1.956 . S
O1383 C1358 1.325 . S
H1384 C1326 0.929 . S
H1385 C1327 0.930 . S
H1386 C1328 0.930 . S
H1387 C1329 0.930 . S
H1388 C1331 0.930 . S
H1389 C1333 0.929 . S
H1390 C1334 0.930 . S
H1391 C1335 0.930 . S
H1392 C1338 0.930 . S
H1393 C1341 0.929 . S
H1394 C1346 0.929 . S
H1395 C1347 0.930 . S
H1396 C1354 0.929 . S
H1397 C1355 0.930 . S
H1398 C1356 0.930 . S
H1399 C1357 0.930 . S
H1400 C1359 0.929 . S
H1401 C1360 0.930 . S
H1402 C1361 0.930 . S
H1403 C1362 0.930 . S
H1404 C1366 0.929 . S
H1405 C1368 0.930 . S
H1406 C1374 0.929 . S
H1407 C1375 0.930 . S
Li1408 N1425 1.990 . S
Li1408 O1468 1.956 1_545 S
Li1408 O1469 1.970 . S
Li1408 O1470 1.961 . S
Li1409 N1433 1.990 . S
Li1409 O1468 1.970 . S
Li1409 O1469 1.956 1_565 S
Li1409 O1471 1.961 1_565 S
Li1410 N1455 1.990 . S
Li1410 O1468 1.961 1_545 S
Li1410 O1470 1.956 . S
Li1410 O1471 1.970 . S
Li1411 N1461 1.990 . S
Li1411 O1469 1.961 . S
Li1411 O1470 1.970 . S
Li1411 O1471 1.956 . S
C1412 C1414 1.348 . S
C1412 C1415 1.356 . S
C1412 O1468 1.325 . S
N1413 C1416 1.314 . S
N1413 C1417 1.279 . S
C1414 C1412 1.348 . S
C1414 C1416 1.353 . S
C1414 H1472 0.929 . S
C1415 C1412 1.356 . S
C1415 C1417 1.358 . S
C1415 H1473 0.930 . S
C1416 N1413 1.314 . S
C1416 C1414 1.353 . S
C1416 H1474 0.930 . S
C1417 N1413 1.279 . S
C1417 C1415 1.358 . S
C1417 H1475 0.930 . S
C1418 C1421 1.348 . S
C1418 C1422 1.356 . S
C1418 O1469 1.325 . S
C1419 N1420 1.279 . S
C1419 C1422 1.358 . S
C1419 H1476 0.930 . S
N1420 C1419 1.279 . S
N1420 C1423 1.314 . S
C1421 C1418 1.348 . S
C1421 C1423 1.353 . S
C1421 H1477 0.929 . S
C1422 C1418 1.356 . S
C1422 C1419 1.358 . S
C1422 H1478 0.930 . S
C1423 N1420 1.314 . S
C1423 C1421 1.353 . S
C1423 H1479 0.930 . S
C1424 N1425 1.314 . S
C1424 C1429 1.353 . S
C1424 H1430 0.930 . S
N1425 Li1408 1.990 . S
N1425 C1424 1.314 . S
N1425 C1427 1.279 . S
C1426 C1427 1.358 . S
C1426 C1428 1.356 . S
C1426 H1480 0.930 1_545 S
C1427 N1425 1.279 . S
C1427 C1426 1.358 . S
C1427 H1431 0.930 1_545 S
C1428 C1426 1.356 . S
C1428 C1429 1.348 . S
C1429 C1424 1.353 . S
C1429 C1428 1.348 . S
C1429 H1481 0.929 . S
H1430 C1424 0.930 . S
H1431 C1427 0.930 1_565 S
C1432 N1433 1.314 . S
C1432 C1434 1.353 . S
C1432 H1438 0.930 . S
N1433 Li1409 1.990 . S
N1433 C1432 1.314 . S
N1433 C1436 1.279 . S
C1434 C1432 1.353 . S
C1434 C1437 1.348 . S
C1434 H1482 0.929 . S
C1435 C1436 1.358 . S
C1435 C1437 1.356 . S
C1435 H1483 0.930 . S
C1436 N1433 1.279 . S
C1436 C1435 1.358 . S
C1436 H1439 0.930 . S
C1437 C1434 1.348 . S
C1437 C1435 1.356 . S
H1438 C1432 0.930 . S
H1439 C1436 0.930 . S
C1440 C1442 1.348 . S
C1440 C1443 1.356 . S
C1440 O1470 1.325 . S
N1441 C1444 1.314 . S
N1441 C1445 1.279 . S
C1442 C1440 1.348 . S
C1442 C1444 1.353 . S
C1442 H1484 0.929 . S
C1443 C1440 1.356 . S
C1443 C1445 1.358 . S
C1443 H1485 0.930 . S
C1444 N1441 1.314 . S
C1444 C1442 1.353 . S
C1444 H1486 0.930 . S
C1445 N1441 1.279 . S
C1445 C1443 1.358 . S
C1445 H1487 0.930 . S
C1446 C1447 1.348 . S
C1446 C1448 1.356 . S
C1446 O1471 1.325 . S
C1447 C1446 1.348 . S
C1447 C1449 1.353 . S
C1447 H1488 0.929 . S
C1448 C1446 1.356 . S
C1448 C1450 1.355 . S
C1448 H1489 0.926 1_545 S
C1449 C1447 1.353 . S
C1449 N1451 1.314 . S
C1449 H1490 0.930 . S
C1450 C1448 1.355 . S
C1450 N1451 1.288 . S
C1450 H1491 0.925 1_545 S
N1451 C1449 1.314 . S
N1451 C1450 1.288 . S
C1452 C1454 1.350 1_545 S
C1452 N1455 1.344 . S
C1452 H1458 0.899 1_545 S
C1453 N1455 1.279 . S
C1453 C1456 1.358 . S
C1453 H1459 0.930 . S
C1454 C1452 1.350 1_565 S
C1454 C1457 1.333 1_565 S
C1454 H1492 0.946 . S
N1455 Li1410 1.990 . S
N1455 C1452 1.344 . S
N1455 C1453 1.279 . S
C1456 C1453 1.358 . S
C1456 C1457 1.356 . S
C1456 H1493 0.930 . S
C1457 C1454 1.333 1_545 S
C1457 C1456 1.356 . S
H1458 C1452 0.899 1_565 S
H1459 C1453 0.930 . S
C1460 N1461 1.314 . S
C1460 C1462 1.353 . S
C1460 H1466 0.930 . S
N1461 Li1411 1.990 . S
N1461 C1460 1.314 . S
N1461 C1464 1.279 . S
C1462 C1460 1.353 . S
C1462 C1465 1.348 . S
C1462 H1494 0.929 . S
C1463 C1464 1.358 . S
C1463 C1465 1.356 . S
C1463 H1495 0.930 . S
C1464 N1461 1.279 . S
C1464 C1463 1.358 . S
C1464 H1467 0.930 . S
C1465 C1462 1.348 . S
C1465 C1463 1.356 . S
H1466 C1460 0.930 . S
H1467 C1464 0.930 . S
O1468 Li1408 1.956 1_565 S
O1468 Li1409 1.970 . S
O1468 Li1410 1.961 1_565 S
O1468 C1412 1.325 . S
O1469 Li1408 1.970 . S
O1469 Li1409 1.956 1_545 S
O1469 Li1411 1.961 . S
O1469 C1418 1.325 . S
O1470 Li1408 1.961 . S
O1470 Li1410 1.956 . S
O1470 Li1411 1.970 . S
O1470 C1440 1.325 . S
O1471 Li1409 1.961 1_545 S
O1471 Li1410 1.970 . S
O1471 Li1411 1.956 . S
O1471 C1446 1.325 . S
H1472 C1414 0.929 . S
H1473 C1415 0.930 . S
H1474 C1416 0.930 . S
H1475 C1417 0.930 . S
H1476 C1419 0.930 . S
H1477 C1421 0.929 . S
H1478 C1422 0.930 . S
H1479 C1423 0.930 . S
H1480 C1426 0.930 1_565 S
H1481 C1429 0.929 . S
H1482 C1434 0.929 . S
H1483 C1435 0.930 . S
H1484 C1442 0.929 . S
H1485 C1443 0.930 . S
H1486 C1444 0.930 . S
H1487 C1445 0.930 . S
H1488 C1447 0.929 . S
H1489 C1448 0.926 1_565 S
H1490 C1449 0.930 . S
H1491 C1450 0.925 1_565 S
H1492 C1454 0.946 . S
H1493 C1456 0.930 . S
H1494 C1462 0.929 . S
H1495 C1463 0.930 . S
Li1496 N1513 1.990 . S
Li1496 O1556 1.956 . S
Li1496 O1557 1.970 . S
Li1496 O1558 1.961 . S
Li1497 N1521 1.990 . S
Li1497 O1556 1.970 . S
Li1497 O1557 1.956 . S
Li1497 O1559 1.961 . S
Li1498 N1543 1.990 . S
Li1498 O1556 1.961 . S
Li1498 O1558 1.956 . S
Li1498 O1559 1.970 . S
Li1499 N1549 1.990 . S
Li1499 O1557 1.961 . S
Li1499 O1558 1.970 . S
Li1499 O1559 1.956 . S
C1500 C1502 1.348 . S
C1500 C1503 1.356 . S
C1500 O1556 1.325 . S
N1501 C1504 1.314 . S
N1501 C1505 1.279 . S
C1502 C1500 1.348 . S
C1502 C1504 1.353 . S
C1502 H1560 0.929 . S
C1503 C1500 1.356 . S
C1503 C1505 1.358 . S
C1503 H1561 0.930 . S
C1504 N1501 1.314 . S
C1504 C1502 1.353 . S
C1504 H1562 0.930 . S
C1505 N1501 1.279 . S
C1505 C1503 1.358 . S
C1505 H1563 0.930 . S
C1506 C1509 1.348 . S
C1506 C1510 1.356 . S
C1506 O1557 1.325 . S
C1507 N1508 1.279 . S
C1507 C1510 1.358 . S
C1507 H1564 0.930 . S
N1508 C1507 1.279 . S
N1508 C1511 1.314 . S
C1509 C1506 1.348 . S
C1509 C1511 1.353 . S
C1509 H1565 0.929 . S
C1510 C1506 1.356 . S
C1510 C1507 1.358 . S
C1510 H1566 0.930 . S
C1511 N1508 1.314 . S
C1511 C1509 1.353 . S
C1511 H1567 0.930 . S
C1512 N1513 1.314 . S
C1512 C1517 1.353 . S
C1512 H1518 0.930 . S
N1513 Li1496 1.990 . S
N1513 C1512 1.314 . S
N1513 C1515 1.279 . S
C1514 C1515 1.358 . S
C1514 C1516 1.356 . S
C1514 H1568 0.930 . S
C1515 N1513 1.279 . S
C1515 C1514 1.358 . S
C1515 H1519 0.930 . S
C1516 C1514 1.356 . S
C1516 C1517 1.348 . S
C1517 C1512 1.353 . S
C1517 C1516 1.348 . S
C1517 H1569 0.929 . S
H1518 C1512 0.930 . S
H1519 C1515 0.930 . S
C1520 N1521 1.314 . S
C1520 C1522 1.353 . S
C1520 H1526 0.930 . S
N1521 Li1497 1.990 . S
N1521 C1520 1.314 . S
N1521 C1524 1.279 . S
C1522 C1520 1.353 . S
C1522 C1525 1.348 . S
C1522 H1570 0.929 . S
C1523 C1524 1.358 . S
C1523 C1525 1.356 . S
C1523 H1571 0.930 . S
C1524 N1521 1.279 . S
C1524 C1523 1.358 . S
C1524 H1527 0.930 . S
C1525 C1522 1.348 . S
C1525 C1523 1.356 . S
H1526 C1520 0.930 . S
H1527 C1524 0.930 . S
C1528 C1530 1.348 . S
C1528 C1531 1.356 . S
C1528 O1558 1.325 . S
N1529 C1532 1.314 . S
N1529 C1533 1.279 . S
C1530 C1528 1.348 . S
C1530 C1532 1.353 . S
C1530 H1572 0.929 . S
C1531 C1528 1.356 . S
C1531 C1533 1.358 . S
C1531 H1573 0.930 . S
C1532 N1529 1.314 . S
C1532 C1530 1.353 . S
C1532 H1574 0.930 . S
C1533 N1529 1.279 . S
C1533 C1531 1.358 . S
C1533 H1575 0.930 . S
C1534 C1535 1.348 . S
C1534 C1536 1.356 . S
C1534 O1559 1.325 . S
C1535 C1534 1.348 . S
C1535 C1537 1.353 . S
C1535 H1576 0.929 . S
C1536 C1534 1.356 . S
C1536 C1538 1.358 . S
C1536 H1577 0.930 . S
C1537 C1535 1.353 . S
C1537 N1539 1.314 . S
C1537 H1578 0.930 . S
C1538 C1536 1.358 . S
C1538 N1539 1.279 . S
C1538 H1579 0.930 . S
N1539 C1537 1.314 . S
N1539 C1538 1.279 . S
C1540 C1542 1.353 . S
C1540 N1543 1.314 . S
C1540 H1546 0.930 . S
C1541 N1543 1.279 . S
C1541 C1544 1.358 . S
C1541 H1547 0.930 . S
C1542 C1540 1.353 . S
C1542 C1545 1.348 . S
C1542 H1580 0.929 . S
N1543 Li1498 1.990 . S
N1543 C1540 1.314 . S
N1543 C1541 1.279 . S
C1544 C1541 1.358 . S
C1544 C1545 1.356 . S
C1544 H1581 0.930 . S
C1545 C1542 1.348 . S
C1545 C1544 1.356 . S
H1546 C1540 0.930 . S
H1547 C1541 0.930 . S
C1548 N1549 1.314 . S
C1548 C1550 1.353 . S
C1548 H1554 0.930 . S
N1549 Li1499 1.990 . S
N1549 C1548 1.314 . S
N1549 C1552 1.279 . S
C1550 C1548 1.353 . S
C1550 C1553 1.348 . S
C1550 H1582 0.929 . S
C1551 C1552 1.358 . S
C1551 C1553 1.356 . S
C1551 H1583 0.930 . S
C1552 N1549 1.279 . S
C1552 C1551 1.358 . S
C1552 H1555 0.930 . S
C1553 C1550 1.348 . S
C1553 C1551 1.356 . S
H1554 C1548 0.930 . S
H1555 C1552 0.930 . S
O1556 Li1496 1.956 . S
O1556 Li1497 1.970 . S
O1556 Li1498 1.961 . S
O1556 C1500 1.325 . S
O1557 Li1496 1.970 . S
O1557 Li1497 1.956 . S
O1557 Li1499 1.961 . S
O1557 C1506 1.325 . S
O1558 Li1496 1.961 . S
O1558 Li1498 1.956 . S
O1558 Li1499 1.970 . S
O1558 C1528 1.325 . S
O1559 Li1497 1.961 . S
O1559 Li1498 1.970 . S
O1559 Li1499 1.956 . S
O1559 C1534 1.325 . S
H1560 C1502 0.929 . S
H1561 C1503 0.930 . S
H1562 C1504 0.930 . S
H1563 C1505 0.930 . S
H1564 C1507 0.930 . S
H1565 C1509 0.929 . S
H1566 C1510 0.930 . S
H1567 C1511 0.930 . S
H1568 C1514 0.930 . S
H1569 C1517 0.929 . S
H1570 C1522 0.929 . S
H1571 C1523 0.930 . S
H1572 C1530 0.929 . S
H1573 C1531 0.930 . S
H1574 C1532 0.930 . S
H1575 C1533 0.930 . S
H1576 C1535 0.929 . S
H1577 C1536 0.930 . S
H1578 C1537 0.930 . S
H1579 C1538 0.930 . S
H1580 C1542 0.929 . S
H1581 C1544 0.930 . S
H1582 C1550 0.929 . S
H1583 C1551 0.930 . S
Li1584 N1601 1.990 . S
Li1584 O1644 1.956 . S
Li1584 O1645 1.970 . S
Li1584 O1646 1.961 . S
Li1585 N1609 1.990 . S
Li1585 O1644 1.970 . S
Li1585 O1645 1.956 . S
Li1585 O1647 1.961 . S
Li1586 N1631 1.990 . S
Li1586 O1644 1.961 . S
Li1586 O1646 1.956 . S
Li1586 O1647 1.970 . S
Li1587 N1637 1.990 . S
Li1587 O1645 1.961 . S
Li1587 O1646 1.970 . S
Li1587 O1647 1.956 . S
C1588 C1590 1.348 . S
C1588 C1591 1.356 . S
C1588 O1644 1.325 . S
N1589 C1592 1.314 . S
N1589 C1593 1.279 . S
C1590 C1588 1.348 . S
C1590 C1592 1.353 . S
C1590 H1648 0.929 . S
C1591 C1588 1.356 . S
C1591 C1593 1.358 . S
C1591 H1649 0.930 . S
C1592 N1589 1.314 . S
C1592 C1590 1.353 . S
C1592 H1650 0.930 . S
C1593 N1589 1.279 . S
C1593 C1591 1.358 . S
C1593 H1651 0.930 . S
C1594 C1597 1.348 . S
C1594 C1598 1.356 . S
C1594 O1645 1.325 . S
C1595 N1596 1.279 . S
C1595 C1598 1.358 . S
C1595 H1652 0.930 . S
N1596 C1595 1.279 . S
N1596 C1599 1.314 . S
C1597 C1594 1.348 . S
C1597 C1599 1.353 . S
C1597 H1653 0.929 . S
C1598 C1594 1.356 . S
C1598 C1595 1.358 . S
C1598 H1654 0.930 . S
C1599 N1596 1.314 . S
C1599 C1597 1.353 . S
C1599 H1655 0.930 . S
C1600 N1601 1.314 . S
C1600 C1605 1.353 . S
C1600 H1606 0.930 . S
N1601 Li1584 1.990 . S
N1601 C1600 1.314 . S
N1601 C1603 1.279 . S
C1602 C1603 1.358 . S
C1602 C1604 1.356 . S
C1602 H1656 0.930 . S
C1603 N1601 1.279 . S
C1603 C1602 1.358 . S
C1603 H1607 0.930 . S
C1604 C1602 1.356 . S
C1604 C1605 1.348 . S
C1605 C1600 1.353 . S
C1605 C1604 1.348 . S
C1605 H1657 0.929 . S
H1606 C1600 0.930 . S
H1607 C1603 0.930 . S
C1608 N1609 1.314 . S
C1608 C1610 1.353 . S
C1608 H1614 0.930 . S
N1609 Li1585 1.990 . S
N1609 C1608 1.314 . S
N1609 C1612 1.279 . S
C1610 C1608 1.353 . S
C1610 C1613 1.348 . S
C1610 H1658 0.929 . S
C1611 C1612 1.358 . S
C1611 C1613 1.356 . S
C1611 H1659 0.930 . S
C1612 N1609 1.279 . S
C1612 C1611 1.358 . S
C1612 H1615 0.930 . S
C1613 C1610 1.348 . S
C1613 C1611 1.356 . S
H1614 C1608 0.930 . S
H1615 C1612 0.930 . S
C1616 C1618 1.348 . S
C1616 C1619 1.356 . S
C1616 O1646 1.325 . S
N1617 C1620 1.314 . S
N1617 C1621 1.279 . S
C1618 C1616 1.348 . S
C1618 C1620 1.353 . S
C1618 H1660 0.929 . S
C1619 C1616 1.356 . S
C1619 C1621 1.358 . S
C1619 H1661 0.930 . S
C1620 N1617 1.314 . S
C1620 C1618 1.353 . S
C1620 H1662 0.930 . S
C1621 N1617 1.279 . S
C1621 C1619 1.358 . S
C1621 H1663 0.930 . S
C1622 C1623 1.348 . S
C1622 C1624 1.356 . S
C1622 O1647 1.325 . S
C1623 C1622 1.348 . S
C1623 C1625 1.353 . S
C1623 H1664 0.929 . S
C1624 C1622 1.356 . S
C1624 C1626 1.358 . S
C1624 H1665 0.930 . S
C1625 C1623 1.353 . S
C1625 N1627 1.314 . S
C1625 H1666 0.930 . S
C1626 C1624 1.358 . S
C1626 N1627 1.279 . S
C1626 H1667 0.930 . S
N1627 C1625 1.314 . S
N1627 C1626 1.279 . S
C1628 C1630 1.353 . S
C1628 N1631 1.314 . S
C1628 H1634 0.930 . S
C1629 N1631 1.279 . S
C1629 C1632 1.358 . S
C1629 H1635 0.930 . S
C1630 C1628 1.353 . S
C1630 C1633 1.348 . S
C1630 H1668 0.929 . S
N1631 Li1586 1.990 . S
N1631 C1628 1.314 . S
N1631 C1629 1.279 . S
C1632 C1629 1.358 . S
C1632 C1633 1.356 . S
C1632 H1669 0.930 . S
C1633 C1630 1.348 . S
C1633 C1632 1.356 . S
H1634 C1628 0.930 . S
H1635 C1629 0.930 . S
C1636 N1637 1.314 . S
C1636 C1638 1.353 . S
C1636 H1642 0.930 . S
N1637 Li1587 1.990 . S
N1637 C1636 1.314 . S
N1637 C1640 1.279 . S
C1638 C1636 1.353 . S
C1638 C1641 1.348 . S
C1638 H1670 0.929 . S
C1639 C1640 1.358 . S
C1639 C1641 1.356 . S
C1639 H1671 0.930 . S
C1640 N1637 1.279 . S
C1640 C1639 1.358 . S
C1640 H1643 0.930 . S
C1641 C1638 1.348 . S
C1641 C1639 1.356 . S
H1642 C1636 0.930 . S
H1643 C1640 0.930 . S
O1644 Li1584 1.956 . S
O1644 Li1585 1.970 . S
O1644 Li1586 1.961 . S
O1644 C1588 1.325 . S
O1645 Li1584 1.970 . S
O1645 Li1585 1.956 . S
O1645 Li1587 1.961 . S
O1645 C1594 1.325 . S
O1646 Li1584 1.961 . S
O1646 Li1586 1.956 . S
O1646 Li1587 1.970 . S
O1646 C1616 1.325 . S
O1647 Li1585 1.961 . S
O1647 Li1586 1.970 . S
O1647 Li1587 1.956 . S
O1647 C1622 1.325 . S
H1648 C1590 0.929 . S
H1649 C1591 0.930 . S
H1650 C1592 0.930 . S
H1651 C1593 0.930 . S
H1652 C1595 0.930 . S
H1653 C1597 0.929 . S
H1654 C1598 0.930 . S
H1655 C1599 0.930 . S
H1656 C1602 0.930 . S
H1657 C1605 0.929 . S
H1658 C1610 0.929 . S
H1659 C1611 0.930 . S
H1660 C1618 0.929 . S
H1661 C1619 0.930 . S
H1662 C1620 0.930 . S
H1663 C1621 0.930 . S
H1664 C1623 0.929 . S
H1665 C1624 0.930 . S
H1666 C1625 0.930 . S
H1667 C1626 0.930 . S
H1668 C1630 0.929 . S
H1669 C1632 0.930 . S
H1670 C1638 0.929 . S
H1671 C1639 0.930 . S
Li1672 N1689 1.990 . S
Li1672 O1732 1.956 . S
Li1672 O1733 1.970 . S
Li1672 O1734 1.961 . S
Li1673 N1697 1.990 . S
Li1673 O1732 1.970 . S
Li1673 O1733 1.956 . S
Li1673 O1735 1.961 . S
Li1674 N1719 1.990 . S
Li1674 O1732 1.961 . S
Li1674 O1734 1.956 . S
Li1674 O1735 1.970 . S
Li1675 N1725 1.990 . S
Li1675 O1733 1.961 . S
Li1675 O1734 1.970 . S
Li1675 O1735 1.956 . S
C1676 C1678 1.348 . S
C1676 C1679 1.356 . S
C1676 O1732 1.325 . S
N1677 C1680 1.314 . S
N1677 C1681 1.279 . S
C1678 C1676 1.348 . S
C1678 C1680 1.353 . S
C1678 H1736 0.929 . S
C1679 C1676 1.356 . S
C1679 C1681 1.358 . S
C1679 H1737 0.930 . S
C1680 N1677 1.314 . S
C1680 C1678 1.353 . S
C1680 H1738 0.930 . S
C1681 N1677 1.279 . S
C1681 C1679 1.358 . S
C1681 H1739 0.930 . S
C1682 C1685 1.348 . S
C1682 C1686 1.356 . S
C1682 O1733 1.325 . S
C1683 N1684 1.279 . S
C1683 C1686 1.358 . S
C1683 H1740 0.930 . S
N1684 C1683 1.279 . S
N1684 C1687 1.314 . S
C1685 C1682 1.348 . S
C1685 C1687 1.353 . S
C1685 H1741 0.929 . S
C1686 C1682 1.356 . S
C1686 C1683 1.358 . S
C1686 H1742 0.930 . S
C1687 N1684 1.314 . S
C1687 C1685 1.353 . S
C1687 H1743 0.930 . S
C1688 N1689 1.314 . S
C1688 C1693 1.353 . S
C1688 H1694 0.930 . S
N1689 Li1672 1.990 . S
N1689 C1688 1.314 . S
N1689 C1691 1.279 . S
C1690 C1691 1.358 . S
C1690 C1692 1.356 . S
C1690 H1744 0.930 . S
C1691 N1689 1.279 . S
C1691 C1690 1.358 . S
C1691 H1695 0.930 . S
C1692 C1690 1.356 . S
C1692 C1693 1.348 . S
C1693 C1688 1.353 . S
C1693 C1692 1.348 . S
C1693 H1745 0.929 . S
H1694 C1688 0.930 . S
H1695 C1691 0.930 . S
C1696 N1697 1.314 . S
C1696 C1698 1.353 . S
C1696 H1702 0.930 . S
N1697 Li1673 1.990 . S
N1697 C1696 1.314 . S
N1697 C1700 1.279 . S
C1698 C1696 1.353 . S
C1698 C1701 1.348 . S
C1698 H1746 0.929 . S
C1699 C1700 1.358 . S
C1699 C1701 1.356 . S
C1699 H1747 0.930 . S
C1700 N1697 1.279 . S
C1700 C1699 1.358 . S
C1700 H1703 0.930 . S
C1701 C1698 1.348 . S
C1701 C1699 1.356 . S
H1702 C1696 0.930 . S
H1703 C1700 0.930 . S
C1704 C1706 1.348 1_545 S
C1704 C1707 1.350 . S
C1704 O1734 1.325 . S
N1705 C1708 1.314 . S
N1705 C1709 1.279 . S
C1706 C1704 1.348 1_565 S
C1706 C1708 1.353 . S
C1706 H1748 0.929 . S
C1707 C1704 1.350 . S
C1707 C1709 1.308 1_545 S
C1707 H1749 0.989 . S
C1708 N1705 1.314 . S
C1708 C1706 1.353 . S
C1708 H1750 0.930 . S
C1709 N1705 1.279 . S
C1709 C1707 1.308 1_565 S
C1709 H1751 0.930 . S
C1710 C1711 1.348 . S
C1710 C1712 1.356 . S
C1710 O1735 1.325 . S
C1711 C1710 1.348 . S
C1711 C1713 1.353 . S
C1711 H1752 0.929 . S
C1712 C1710 1.356 . S
C1712 C1714 1.358 . S
C1712 H1753 0.930 . S
C1713 C1711 1.353 . S
C1713 N1715 1.314 . S
C1713 H1754 0.930 . S
C1714 C1712 1.358 . S
C1714 N1715 1.279 . S
C1714 H1755 0.930 . S
N1715 C1713 1.314 . S
N1715 C1714 1.279 . S
C1716 C1718 1.353 . S
C1716 N1719 1.314 . S
C1716 H1722 0.930 . S
C1717 N1719 1.279 . S
C1717 C1720 1.358 . S
C1717 H1723 0.930 . S
C1718 C1716 1.353 . S
C1718 C1721 1.348 . S
C1718 H1756 0.929 . S
N1719 Li1674 1.990 . S
N1719 C1716 1.314 . S
N1719 C1717 1.279 . S
C1720 C1717 1.358 . S
C1720 C1721 1.356 . S
C1720 H1757 0.930 . S
C1721 C1718 1.348 . S
C1721 C1720 1.356 . S
H1722 C1716 0.930 . S
H1723 C1717 0.930 . S
C1724 N1725 1.314 1_565 S
C1724 C1726 1.353 . S
C1724 H1730 0.930 . S
N1725 Li1675 1.990 . S
N1725 C1724 1.314 1_545 S
N1725 C1728 1.279 1_545 S
C1726 C1724 1.353 . S
C1726 C1729 1.348 . S
C1726 H1758 0.929 . S
C1727 C1728 1.358 . S
C1727 C1729 1.356 . S
C1727 H1759 0.930 . S
C1728 N1725 1.279 1_565 S
C1728 C1727 1.358 . S
C1728 H1731 0.930 1_565 S
C1729 C1726 1.348 . S
C1729 C1727 1.356 . S
H1730 C1724 0.930 . S
H1731 C1728 0.930 1_545 S
O1732 Li1672 1.956 . S
O1732 Li1673 1.970 . S
O1732 Li1674 1.961 . S
O1732 C1676 1.325 . S
O1733 Li1672 1.970 . S
O1733 Li1673 1.956 . S
O1733 Li1675 1.961 . S
O1733 C1682 1.325 . S
O1734 Li1672 1.961 . S
O1734 Li1674 1.956 . S
O1734 Li1675 1.970 . S
O1734 C1704 1.325 . S
O1735 Li1673 1.961 . S
O1735 Li1674 1.970 . S
O1735 Li1675 1.956 . S
O1735 C1710 1.325 . S
H1736 C1678 0.929 . S
H1737 C1679 0.930 . S
H1738 C1680 0.930 . S
H1739 C1681 0.930 . S
H1740 C1683 0.930 . S
H1741 C1685 0.929 . S
H1742 C1686 0.930 . S
H1743 C1687 0.930 . S
H1744 C1690 0.930 . S
H1745 C1693 0.929 . S
H1746 C1698 0.929 . S
H1747 C1699 0.930 . S
H1748 C1706 0.929 . S
H1749 C1707 0.989 . S
H1750 C1708 0.930 . S
H1751 C1709 0.930 . S
H1752 C1711 0.929 . S
H1753 C1712 0.930 . S
H1754 C1713 0.930 . S
H1755 C1714 0.930 . S
H1756 C1718 0.929 . S
H1757 C1720 0.930 . S
H1758 C1726 0.929 . S
H1759 C1727 0.930 . S
Li1760 N1777 1.990 . S
Li1760 O1820 1.956 . S
Li1760 O1821 1.970 . S
Li1760 O1822 1.961 . S
Li1761 N1785 1.990 . S
Li1761 O1820 1.970 . S
Li1761 O1821 1.956 . S
Li1761 O1823 1.961 1_554 S
Li1762 N1807 1.990 . S
Li1762 O1820 1.961 1_556 S
Li1762 O1822 1.956 1_556 S
Li1762 O1823 1.970 . S
Li1763 N1813 1.990 . S
Li1763 O1821 1.961 . S
Li1763 O1822 1.970 . S
Li1763 O1823 1.956 1_554 S
C1764 C1766 1.348 . S
C1764 C1767 1.356 . S
C1764 O1820 1.325 . S
N1765 C1768 1.314 . S
N1765 C1769 1.279 . S
C1766 C1764 1.348 . S
C1766 C1768 1.353 . S
C1766 H1824 0.929 . S
C1767 C1764 1.356 . S
C1767 C1769 1.358 . S
C1767 H1825 0.930 . S
C1768 N1765 1.314 . S
C1768 C1766 1.353 . S
C1768 H1826 0.930 . S
C1769 N1765 1.279 . S
C1769 C1767 1.358 . S
C1769 H1827 0.930 . S
C1770 C1773 1.348 . S
C1770 C1774 1.356 . S
C1770 O1821 1.325 . S
C1771 N1772 1.279 . S
C1771 C1774 1.358 . S
C1771 H1828 0.930 . S
N1772 C1771 1.279 . S
N1772 C1775 1.314 . S
C1773 C1770 1.348 . S
C1773 C1775 1.353 . S
C1773 H1829 0.929 . S
C1774 C1770 1.356 . S
C1774 C1771 1.358 . S
C1774 H1830 0.930 . S
C1775 N1772 1.314 . S
C1775 C1773 1.353 . S
C1775 H1831 0.930 . S
C1776 N1777 1.314 . S
C1776 C1781 1.353 . S
C1776 H1782 0.930 . S
N1777 Li1760 1.990 . S
N1777 C1776 1.314 . S
N1777 C1779 1.279 . S
C1778 C1779 1.358 . S
C1778 C1780 1.356 . S
C1778 H1832 0.930 . S
C1779 N1777 1.279 . S
C1779 C1778 1.358 . S
C1779 H1783 0.930 . S
C1780 C1778 1.356 . S
C1780 C1781 1.348 . S
C1781 C1776 1.353 . S
C1781 C1780 1.348 . S
C1781 H1833 0.929 . S
H1782 C1776 0.930 . S
H1783 C1779 0.930 . S
C1784 N1785 1.314 1_556 S
C1784 C1786 1.353 . S
C1784 H1790 0.930 . S
N1785 Li1761 1.990 . S
N1785 C1784 1.314 1_554 S
N1785 C1788 1.279 . S
C1786 C1784 1.353 . S
C1786 C1789 1.348 1_556 S
C1786 H1834 0.929 . S
C1787 C1788 1.358 . S
C1787 C1789 1.356 . S
C1787 H1835 0.930 . S
C1788 N1785 1.279 . S
C1788 C1787 1.358 . S
C1788 H1791 0.930 . S
C1789 C1786 1.348 1_554 S
C1789 C1787 1.356 . S
H1790 C1784 0.930 . S
H1791 C1788 0.930 . S
C1792 C1794 1.348 . S
C1792 C1795 1.356 . S
C1792 O1822 1.325 . S
N1793 C1796 1.314 . S
N1793 C1797 1.279 . S
C1794 C1792 1.348 . S
C1794 C1796 1.353 . S
C1794 H1836 0.929 1_554 S
C1795 C1792 1.356 . S
C1795 C1797 1.358 . S
C1795 H1837 0.930 . S
C1796 N1793 1.314 . S
C1796 C1794 1.353 . S
C1796 H1838 0.930 1_554 S
C1797 N1793 1.279 . S
C1797 C1795 1.358 . S
C1797 H1839 0.930 . S
C1798 C1799 1.348 . S
C1798 C1800 1.356 . S
C1798 O1823 1.325 . S
C1799 C1798 1.348 . S
C1799 C1801 1.353 . S
C1799 H1840 0.929 . S
C1800 C1798 1.356 . S
C1800 C1802 1.358 . S
C1800 H1841 0.930 . S
C1801 C1799 1.353 . S
C1801 N1803 1.314 . S
C1801 H1842 0.930 . S
C1802 C1800 1.358 . S
C1802 N1803 1.279 . S
C1802 H1843 0.930 . S
N1803 C1801 1.314 . S
N1803 C1802 1.279 . S
C1804 C1806 1.353 . S
C1804 N1807 1.314 . S
C1804 H1810 0.930 . S
C1805 N1807 1.279 . S
C1805 C1808 1.358 . S
C1805 H1811 0.930 . S
C1806 C1804 1.353 . S
C1806 C1809 1.348 . S
C1806 H1844 0.929 . S
N1807 Li1762 1.990 . S
N1807 C1804 1.314 . S
N1807 C1805 1.279 . S
C1808 C1805 1.358 . S
C1808 C1809 1.356 . S
C1808 H1845 0.930 . S
C1809 C1806 1.348 . S
C1809 C1808 1.356 . S
H1810 C1804 0.930 . S
H1811 C1805 0.930 . S
C1812 N1813 1.314 . S
C1812 C1814 1.353 . S
C1812 H1818 0.930 . S
N1813 Li1763 1.990 . S
N1813 C1812 1.314 . S
N1813 C1816 1.279 1_554 S
C1814 C1812 1.353 . S
C1814 C1817 1.366 . S
C1814 H1846 0.929 . S
C1815 C1816 1.358 . S
C1815 C1817 1.336 1_556 S
C1815 H1847 0.930 . S
C1816 N1813 1.279 1_556 S
C1816 C1815 1.358 . S
C1816 H1819 0.930 . S
C1817 C1814 1.366 . S
C1817 C1815 1.336 1_554 S
H1818 C1812 0.930 . S
H1819 C1816 0.930 . S
O1820 Li1760 1.956 . S
O1820 Li1761 1.970 . S
O1820 Li1762 1.961 1_554 S
O1820 C1764 1.325 . S
O1821 Li1760 1.970 . S
O1821 Li1761 1.956 . S
O1821 Li1763 1.961 . S
O1821 C1770 1.325 . S
O1822 Li1760 1.961 . S
O1822 Li1762 1.956 1_554 S
O1822 Li1763 1.970 . S
O1822 C1792 1.325 . S
O1823 Li1761 1.961 1_556 S
O1823 Li1762 1.970 . S
O1823 Li1763 1.956 1_556 S
O1823 C1798 1.325 . S
H1824 C1766 0.929 . S
H1825 C1767 0.930 . S
H1826 C1768 0.930 . S
H1827 C1769 0.930 . S
H1828 C1771 0.930 . S
H1829 C1773 0.929 . S
H1830 C1774 0.930 . S
H1831 C1775 0.930 . S
H1832 C1778 0.930 . S
H1833 C1781 0.929 . S
H1834 C1786 0.929 . S
H1835 C1787 0.930 . S
H1836 C1794 0.929 1_556 S
H1837 C1795 0.930 . S
H1838 C1796 0.930 1_556 S
H1839 C1797 0.930 . S
H1840 C1799 0.929 . S
H1841 C1800 0.930 . S
H1842 C1801 0.930 . S
H1843 C1802 0.930 . S
H1844 C1806 0.929 . S
H1845 C1808 0.930 . S
H1846 C1814 0.929 . S
H1847 C1815 0.930 . S
Li1848 N1865 1.990 . S
Li1848 O1908 1.956 . S
Li1848 O1909 1.970 . S
Li1848 O1910 1.961 . S
Li1849 N1873 1.990 . S
Li1849 O1908 1.970 . S
Li1849 O1909 1.956 . S
Li1849 O1911 1.961 . S
Li1850 N1895 1.990 . S
Li1850 O1908 1.961 . S
Li1850 O1910 1.956 . S
Li1850 O1911 1.970 . S
Li1851 N1901 1.990 . S
Li1851 O1909 1.961 . S
Li1851 O1910 1.970 . S
Li1851 O1911 1.956 . S
C1852 C1854 1.348 . S
C1852 C1855 1.356 . S
C1852 O1908 1.325 . S
N1853 C1856 1.314 . S
N1853 C1857 1.279 . S
C1854 C1852 1.348 . S
C1854 C1856 1.353 . S
C1854 H1912 0.929 . S
C1855 C1852 1.356 . S
C1855 C1857 1.358 . S
C1855 H1913 0.930 . S
C1856 N1853 1.314 . S
C1856 C1854 1.353 . S
C1856 H1914 0.930 . S
C1857 N1853 1.279 . S
C1857 C1855 1.358 . S
C1857 H1915 0.930 . S
C1858 C1861 1.348 . S
C1858 C1862 1.356 . S
C1858 O1909 1.325 . S
C1859 N1860 1.279 . S
C1859 C1862 1.358 . S
C1859 H1916 0.930 . S
N1860 C1859 1.279 . S
N1860 C1863 1.314 . S
C1861 C1858 1.348 . S
C1861 C1863 1.353 . S
C1861 H1917 0.929 . S
C1862 C1858 1.356 . S
C1862 C1859 1.358 . S
C1862 H1918 0.930 . S
C1863 N1860 1.314 . S
C1863 C1861 1.353 . S
C1863 H1919 0.930 . S
C1864 N1865 1.314 . S
C1864 C1869 1.353 . S
C1864 H1870 0.930 . S
N1865 Li1848 1.990 . S
N1865 C1864 1.314 . S
N1865 C1867 1.279 . S
C1866 C1867 1.358 . S
C1866 C1868 1.356 . S
C1866 H1920 0.930 . S
C1867 N1865 1.279 . S
C1867 C1866 1.358 . S
C1867 H1871 0.930 . S
C1868 C1866 1.356 . S
C1868 C1869 1.348 . S
C1869 C1864 1.353 . S
C1869 C1868 1.348 . S
C1869 H1921 0.929 . S
H1870 C1864 0.930 . S
H1871 C1867 0.930 . S
C1872 N1873 1.314 . S
C1872 C1874 1.353 . S
C1872 H1878 0.930 . S
N1873 Li1849 1.990 . S
N1873 C1872 1.314 . S
N1873 C1876 1.279 . S
C1874 C1872 1.353 . S
C1874 C1877 1.348 . S
C1874 H1922 0.929 . S
C1875 C1876 1.358 . S
C1875 C1877 1.356 . S
C1875 H1923 0.930 . S
C1876 N1873 1.279 . S
C1876 C1875 1.358 . S
C1876 H1879 0.930 . S
C1877 C1874 1.348 . S
C1877 C1875 1.356 . S
H1878 C1872 0.930 . S
H1879 C1876 0.930 . S
C1880 C1882 1.348 . S
C1880 C1883 1.356 . S
C1880 O1910 1.325 . S
N1881 C1884 1.314 . S
N1881 C1885 1.279 . S
C1882 C1880 1.348 . S
C1882 C1884 1.353 . S
C1882 H1924 0.929 . S
C1883 C1880 1.356 . S
C1883 C1885 1.358 . S
C1883 H1925 0.930 . S
C1884 N1881 1.314 . S
C1884 C1882 1.353 . S
C1884 H1926 0.930 . S
C1885 N1881 1.279 . S
C1885 C1883 1.358 . S
C1885 H1927 0.930 . S
C1886 C1887 1.348 . S
C1886 C1888 1.356 . S
C1886 O1911 1.325 . S
C1887 C1886 1.348 . S
C1887 C1889 1.353 . S
C1887 H1928 0.929 . S
C1888 C1886 1.356 . S
C1888 C1890 1.358 . S
C1888 H1929 0.930 . S
C1889 C1887 1.353 . S
C1889 N1891 1.314 . S
C1889 H1930 0.930 . S
C1890 C1888 1.358 . S
C1890 N1891 1.279 . S
C1890 H1931 0.930 . S
N1891 C1889 1.314 . S
N1891 C1890 1.279 . S
C1892 C1894 1.353 . S
C1892 N1895 1.314 . S
C1892 H1898 0.930 . S
C1893 N1895 1.279 . S
C1893 C1896 1.358 . S
C1893 H1899 0.930 . S
C1894 C1892 1.353 . S
C1894 C1897 1.348 . S
C1894 H1932 0.929 . S
N1895 Li1850 1.990 . S
N1895 C1892 1.314 . S
N1895 C1893 1.279 . S
C1896 C1893 1.358 . S
C1896 C1897 1.356 . S
C1896 H1933 0.930 . S
C1897 C1894 1.348 . S
C1897 C1896 1.356 . S
H1898 C1892 0.930 . S
H1899 C1893 0.930 . S
C1900 N1901 1.314 . S
C1900 C1902 1.353 . S
C1900 H1906 0.930 . S
N1901 Li1851 1.990 . S
N1901 C1900 1.314 . S
N1901 C1904 1.279 . S
C1902 C1900 1.353 . S
C1902 C1905 1.348 . S
C1902 H1934 0.929 . S
C1903 C1904 1.358 . S
C1903 C1905 1.356 . S
C1903 H1935 0.930 . S
C1904 N1901 1.279 . S
C1904 C1903 1.358 . S
C1904 H1907 0.930 . S
C1905 C1902 1.348 . S
C1905 C1903 1.356 . S
H1906 C1900 0.930 . S
H1907 C1904 0.930 . S
O1908 Li1848 1.956 . S
O1908 Li1849 1.970 . S
O1908 Li1850 1.961 . S
O1908 C1852 1.325 . S
O1909 Li1848 1.970 . S
O1909 Li1849 1.956 . S
O1909 Li1851 1.961 . S
O1909 C1858 1.325 . S
O1910 Li1848 1.961 . S
O1910 Li1850 1.956 . S
O1910 Li1851 1.970 . S
O1910 C1880 1.325 . S
O1911 Li1849 1.961 . S
O1911 Li1850 1.970 . S
O1911 Li1851 1.956 . S
O1911 C1886 1.325 . S
H1912 C1854 0.929 . S
H1913 C1855 0.930 . S
H1914 C1856 0.930 . S
H1915 C1857 0.930 . S
H1916 C1859 0.930 . S
H1917 C1861 0.929 . S
H1918 C1862 0.930 . S
H1919 C1863 0.930 . S
H1920 C1866 0.930 . S
H1921 C1869 0.929 . S
H1922 C1874 0.929 . S
H1923 C1875 0.930 . S
H1924 C1882 0.929 . S
H1925 C1883 0.930 . S
H1926 C1884 0.930 . S
H1927 C1885 0.930 . S
H1928 C1887 0.929 . S
H1929 C1888 0.930 . S
H1930 C1889 0.930 . S
H1931 C1890 0.930 . S
H1932 C1894 0.929 . S
H1933 C1896 0.930 . S
H1934 C1902 0.929 . S
H1935 C1903 0.930 . S
Li1936 N1953 1.990 . S
Li1936 O1996 1.956 . S
Li1936 O1997 1.970 . S
Li1936 O1998 1.961 . S
Li1937 N1961 1.990 . S
Li1937 O1996 1.970 . S
Li1937 O1997 1.956 . S
Li1937 O1999 1.961 . S
Li1938 N1983 1.990 . S
Li1938 O1996 1.961 . S
Li1938 O1998 1.956 . S
Li1938 O1999 1.970 . S
Li1939 N1989 1.990 . S
Li1939 O1997 1.961 . S
Li1939 O1998 1.970 . S
Li1939 O1999 1.956 . S
C1940 C1942 1.348 . S
C1940 C1943 1.356 . S
C1940 O1996 1.325 . S
N1941 C1944 1.314 . S
N1941 C1945 1.279 . S
C1942 C1940 1.348 . S
C1942 C1944 1.353 . S
C1942 H2000 0.929 . S
C1943 C1940 1.356 . S
C1943 C1945 1.358 . S
C1943 H2001 0.930 . S
C1944 N1941 1.314 . S
C1944 C1942 1.353 . S
C1944 H2002 0.930 . S
C1945 N1941 1.279 . S
C1945 C1943 1.358 . S
C1945 H2003 0.930 . S
C1946 C1949 1.348 . S
C1946 C1950 1.356 . S
C1946 O1997 1.325 . S
C1947 N1948 1.279 . S
C1947 C1950 1.358 . S
C1947 H2004 0.930 . S
N1948 C1947 1.279 . S
N1948 C1951 1.314 . S
C1949 C1946 1.348 . S
C1949 C1951 1.353 . S
C1949 H2005 0.929 . S
C1950 C1946 1.356 . S
C1950 C1947 1.358 . S
C1950 H2006 0.930 . S
C1951 N1948 1.314 . S
C1951 C1949 1.353 . S
C1951 H2007 0.930 . S
C1952 N1953 1.314 . S
C1952 C1957 1.353 . S
C1952 H1958 0.930 . S
N1953 Li1936 1.990 . S
N1953 C1952 1.314 . S
N1953 C1955 1.279 . S
C1954 C1955 1.358 . S
C1954 C1956 1.356 . S
C1954 H2008 0.930 . S
C1955 N1953 1.279 . S
C1955 C1954 1.358 . S
C1955 H1959 0.930 . S
C1956 C1954 1.356 . S
C1956 C1957 1.348 . S
C1957 C1952 1.353 . S
C1957 C1956 1.348 . S
C1957 H2009 0.929 . S
H1958 C1952 0.930 . S
H1959 C1955 0.930 . S
C1960 N1961 1.314 . S
C1960 C1962 1.353 . S
C1960 H1966 0.930 . S
N1961 Li1937 1.990 . S
N1961 C1960 1.314 . S
N1961 C1964 1.279 . S
C1962 C1960 1.353 . S
C1962 C1965 1.348 . S
C1962 H2010 0.929 . S
C1963 C1964 1.358 . S
C1963 C1965 1.356 . S
C1963 H2011 0.930 . S
C1964 N1961 1.279 . S
C1964 C1963 1.358 . S
C1964 H1967 0.930 . S
C1965 C1962 1.348 . S
C1965 C1963 1.356 . S
H1966 C1960 0.930 . S
H1967 C1964 0.930 . S
C1968 C1970 1.348 . S
C1968 C1971 1.356 . S
C1968 O1998 1.325 . S
N1969 C1972 1.314 . S
N1969 C1973 1.279 . S
C1970 C1968 1.348 . S
C1970 C1972 1.353 . S
C1970 H2012 0.929 . S
C1971 C1968 1.356 . S
C1971 C1973 1.358 . S
C1971 H2013 0.930 . S
C1972 N1969 1.314 . S
C1972 C1970 1.353 . S
C1972 H2014 0.930 . S
C1973 N1969 1.279 . S
C1973 C1971 1.358 . S
C1973 H2015 0.930 . S
C1974 C1975 1.348 . S
C1974 C1976 1.356 . S
C1974 O1999 1.325 . S
C1975 C1974 1.348 . S
C1975 C1977 1.353 . S
C1975 H2016 0.929 . S
C1976 C1974 1.356 . S
C1976 C1978 1.358 . S
C1976 H2017 0.930 . S
C1977 C1975 1.353 . S
C1977 N1979 1.314 . S
C1977 H2018 0.930 . S
C1978 C1976 1.358 . S
C1978 N1979 1.279 . S
C1978 H2019 0.930 . S
N1979 C1977 1.314 . S
N1979 C1978 1.279 . S
C1980 C1982 1.353 . S
C1980 N1983 1.314 . S
C1980 H1986 0.930 . S
C1981 N1983 1.279 . S
C1981 C1984 1.358 . S
C1981 H1987 0.930 . S
C1982 C1980 1.353 . S
C1982 C1985 1.348 . S
C1982 H2020 0.929 . S
N1983 Li1938 1.990 . S
N1983 C1980 1.314 . S
N1983 C1981 1.279 . S
C1984 C1981 1.358 . S
C1984 C1985 1.356 . S
C1984 H2021 0.930 . S
C1985 C1982 1.348 . S
C1985 C1984 1.356 . S
H1986 C1980 0.930 . S
H1987 C1981 0.930 . S
C1988 N1989 1.314 . S
C1988 C1990 1.353 . S
C1988 H1994 0.930 . S
N1989 Li1939 1.990 . S
N1989 C1988 1.314 . S
N1989 C1992 1.279 . S
C1990 C1988 1.353 . S
C1990 C1993 1.348 . S
C1990 H2022 0.929 . S
C1991 C1992 1.358 . S
C1991 C1993 1.356 . S
C1991 H2023 0.930 . S
C1992 N1989 1.279 . S
C1992 C1991 1.358 . S
C1992 H1995 0.930 . S
C1993 C1990 1.348 . S
C1993 C1991 1.356 . S
H1994 C1988 0.930 . S
H1995 C1992 0.930 . S
O1996 Li1936 1.956 . S
O1996 Li1937 1.970 . S
O1996 Li1938 1.961 . S
O1996 C1940 1.325 . S
O1997 Li1936 1.970 . S
O1997 Li1937 1.956 . S
O1997 Li1939 1.961 . S
O1997 C1946 1.325 . S
O1998 Li1936 1.961 . S
O1998 Li1938 1.956 . S
O1998 Li1939 1.970 . S
O1998 C1968 1.325 . S
O1999 Li1937 1.961 . S
O1999 Li1938 1.970 . S
O1999 Li1939 1.956 . S
O1999 C1974 1.325 . S
H2000 C1942 0.929 . S
H2001 C1943 0.930 . S
H2002 C1944 0.930 . S
H2003 C1945 0.930 . S
H2004 C1947 0.930 . S
H2005 C1949 0.929 . S
H2006 C1950 0.930 . S
H2007 C1951 0.930 . S
H2008 C1954 0.930 . S
H2009 C1957 0.929 . S
H2010 C1962 0.929 . S
H2011 C1963 0.930 . S
H2012 C1970 0.929 . S
H2013 C1971 0.930 . S
H2014 C1972 0.930 . S
H2015 C1973 0.930 . S
H2016 C1975 0.929 . S
H2017 C1976 0.930 . S
H2018 C1977 0.930 . S
H2019 C1978 0.930 . S
H2020 C1982 0.929 . S
H2021 C1984 0.930 . S
H2022 C1990 0.929 . S
H2023 C1991 0.930 . S
Li2024 N2041 1.990 . S
Li2024 O2084 1.956 . S
Li2024 O2085 1.970 . S
Li2024 O2086 1.961 . S
Li2025 N2049 1.990 . S
Li2025 O2084 1.970 . S
Li2025 O2085 1.956 . S
Li2025 O2087 1.961 . S
Li2026 N2071 1.990 . S
Li2026 O2084 1.961 . S
Li2026 O2086 1.956 . S
Li2026 O2087 1.970 . S
Li2027 N2077 1.990 . S
Li2027 O2085 1.961 . S
Li2027 O2086 1.970 . S
Li2027 O2087 1.956 . S
C2028 C2030 1.348 . S
C2028 C2031 1.356 . S
C2028 O2084 1.325 . S
N2029 C2032 1.314 . S
N2029 C2033 1.279 . S
C2030 C2028 1.348 . S
C2030 C2032 1.353 . S
C2030 H2088 0.929 . S
C2031 C2028 1.356 . S
C2031 C2033 1.358 . S
C2031 H2089 0.930 . S
C2032 N2029 1.314 . S
C2032 C2030 1.353 . S
C2032 H2090 0.930 . S
C2033 N2029 1.279 . S
C2033 C2031 1.358 . S
C2033 H2091 0.930 . S
C2034 C2037 1.348 . S
C2034 C2038 1.356 . S
C2034 O2085 1.325 . S
C2035 N2036 1.279 . S
C2035 C2038 1.358 . S
C2035 H2092 0.930 . S
N2036 C2035 1.279 . S
N2036 C2039 1.314 . S
C2037 C2034 1.348 . S
C2037 C2039 1.353 . S
C2037 H2093 0.929 . S
C2038 C2034 1.356 . S
C2038 C2035 1.358 . S
C2038 H2094 0.930 . S
C2039 N2036 1.314 . S
C2039 C2037 1.353 . S
C2039 H2095 0.930 . S
C2040 N2041 1.314 . S
C2040 C2045 1.353 . S
C2040 H2046 0.930 . S
N2041 Li2024 1.990 . S
N2041 C2040 1.314 . S
N2041 C2043 1.279 . S
C2042 C2043 1.358 . S
C2042 C2044 1.356 . S
C2042 H2096 0.930 . S
C2043 N2041 1.279 . S
C2043 C2042 1.358 . S
C2043 H2047 0.930 . S
C2044 C2042 1.356 . S
C2044 C2045 1.348 . S
C2045 C2040 1.353 . S
C2045 C2044 1.348 . S
C2045 H2097 0.929 . S
H2046 C2040 0.930 . S
H2047 C2043 0.930 . S
C2048 N2049 1.314 . S
C2048 C2050 1.353 . S
C2048 H2054 0.930 . S
N2049 Li2025 1.990 . S
N2049 C2048 1.314 . S
N2049 C2052 1.279 . S
C2050 C2048 1.353 . S
C2050 C2053 1.348 . S
C2050 H2098 0.929 . S
C2051 C2052 1.358 . S
C2051 C2053 1.356 . S
C2051 H2099 0.930 . S
C2052 N2049 1.279 . S
C2052 C2051 1.358 . S
C2052 H2055 0.930 . S
C2053 C2050 1.348 . S
C2053 C2051 1.356 . S
H2054 C2048 0.930 . S
H2055 C2052 0.930 . S
C2056 C2058 1.348 . S
C2056 C2059 1.356 . S
C2056 O2086 1.325 . S
N2057 C2060 1.314 . S
N2057 C2061 1.279 . S
C2058 C2056 1.348 . S
C2058 C2060 1.353 . S
C2058 H2100 0.929 . S
C2059 C2056 1.356 . S
C2059 C2061 1.358 . S
C2059 H2101 0.930 . S
C2060 N2057 1.314 . S
C2060 C2058 1.353 . S
C2060 H2102 0.930 . S
C2061 N2057 1.279 . S
C2061 C2059 1.358 . S
C2061 H2103 0.930 . S
C2062 C2063 1.348 . S
C2062 C2064 1.356 . S
C2062 O2087 1.325 . S
C2063 C2062 1.348 . S
C2063 C2065 1.353 . S
C2063 H2104 0.929 . S
C2064 C2062 1.356 . S
C2064 C2066 1.358 . S
C2064 H2105 0.930 . S
C2065 C2063 1.353 . S
C2065 N2067 1.314 . S
C2065 H2106 0.930 . S
C2066 C2064 1.358 . S
C2066 N2067 1.279 . S
C2066 H2107 0.930 . S
N2067 C2065 1.314 . S
N2067 C2066 1.279 . S
C2068 C2070 1.353 . S
C2068 N2071 1.314 . S
C2068 H2074 0.930 . S
C2069 N2071 1.279 . S
C2069 C2072 1.358 . S
C2069 H2075 0.930 . S
C2070 C2068 1.353 . S
C2070 C2073 1.348 . S
C2070 H2108 0.929 . S
N2071 Li2026 1.990 . S
N2071 C2068 1.314 . S
N2071 C2069 1.279 . S
C2072 C2069 1.358 . S
C2072 C2073 1.356 . S
C2072 H2109 0.930 . S
C2073 C2070 1.348 . S
C2073 C2072 1.356 . S
H2074 C2068 0.930 . S
H2075 C2069 0.930 . S
C2076 N2077 1.314 . S
C2076 C2078 1.353 . S
C2076 H2082 0.930 . S
N2077 Li2027 1.990 . S
N2077 C2076 1.314 . S
N2077 C2080 1.279 . S
C2078 C2076 1.353 . S
C2078 C2081 1.348 . S
C2078 H2110 0.929 . S
C2079 C2080 1.358 . S
C2079 C2081 1.356 . S
C2079 H2111 0.930 . S
C2080 N2077 1.279 . S
C2080 C2079 1.358 . S
C2080 H2083 0.930 . S
C2081 C2078 1.348 . S
C2081 C2079 1.356 . S
H2082 C2076 0.930 . S
H2083 C2080 0.930 . S
O2084 Li2024 1.956 . S
O2084 Li2025 1.970 . S
O2084 Li2026 1.961 . S
O2084 C2028 1.325 . S
O2085 Li2024 1.970 . S
O2085 Li2025 1.956 . S
O2085 Li2027 1.961 . S
O2085 C2034 1.325 . S
O2086 Li2024 1.961 . S
O2086 Li2026 1.956 . S
O2086 Li2027 1.970 . S
O2086 C2056 1.325 . S
O2087 Li2025 1.961 . S
O2087 Li2026 1.970 . S
O2087 Li2027 1.956 . S
O2087 C2062 1.325 . S
H2088 C2030 0.929 . S
H2089 C2031 0.930 . S
H2090 C2032 0.930 . S
H2091 C2033 0.930 . S
H2092 C2035 0.930 . S
H2093 C2037 0.929 . S
H2094 C2038 0.930 . S
H2095 C2039 0.930 . S
H2096 C2042 0.930 . S
H2097 C2045 0.929 . S
H2098 C2050 0.929 . S
H2099 C2051 0.930 . S
H2100 C2058 0.929 . S
H2101 C2059 0.930 . S
H2102 C2060 0.930 . S
H2103 C2061 0.930 . S
H2104 C2063 0.929 . S
H2105 C2064 0.930 . S
H2106 C2065 0.930 . S
H2107 C2066 0.930 . S
H2108 C2070 0.929 . S
H2109 C2072 0.930 . S
H2110 C2078 0.929 . S
H2111 C2079 0.930 . S
C2112 C2114 1.422 1_556 S
C2112 C2116 1.415 . S
C2112 N2118 1.369 . S
C2113 C2114 1.421 . S
C2113 C2115 1.417 1_554 S
C2113 C2125 1.422 . S
C2114 C2112 1.422 1_554 S
C2114 C2113 1.421 . S
C2114 N2124 1.359 . S
C2115 C2113 1.417 1_556 S
C2115 C2117 1.329 . S
C2115 H2134 0.953 . S
C2116 C2112 1.415 . S
C2116 C2117 1.437 . S
C2116 C2120 1.413 . S
C2117 C2115 1.329 . S
C2117 C2116 1.437 . S
C2117 H2139 0.929 . S
N2118 C2112 1.369 . S
N2118 C2119 1.338 . S
N2118 Gd2123 2.622 1_566 S
C2119 N2118 1.338 . S
C2119 C2121 1.378 . S
C2119 H2131 0.929 . S
C2120 C2116 1.413 . S
C2120 C2121 1.348 . S
C2120 H2136 0.931 . S
C2121 C2119 1.378 . S
C2121 C2120 1.348 . S
C2121 H2137 0.930 . S
Gd2122 N2142 2.622 . S
Gd2122 N2149 2.570 . S
Gd2122 O2156 2.337 1_545 S
Gd2122 O2157 2.468 . S
Gd2122 O2158 2.427 . S
Gd2122 O2160 2.388 . S
Gd2122 O2161 2.386 . S
Gd2122 O2165 2.307 . S
Gd2122 C2175 2.805 . S
Gd2123 N2118 2.622 1_544 S
Gd2123 N2124 2.570 1_545 S
Gd2123 O2155 2.386 1_645 S
Gd2123 O2159 2.307 1_655 S
Gd2123 O2162 2.353 1_655 S
Gd2123 O2163 2.468 . S
Gd2123 O2164 2.427 1_554 S
Gd2123 O2166 2.388 1_654 S
Gd2123 C2187 2.805 . S
N2124 C2114 1.359 . S
N2124 Gd2123 2.570 1_565 S
N2124 C2126 1.343 . S
C2125 C2113 1.422 . S
C2125 C2127 1.321 . S
C2125 H2133 0.931 . S
C2126 N2124 1.343 . S
C2126 C2127 1.390 . S
C2126 H2128 0.931 . S
C2127 C2125 1.321 . S
C2127 C2126 1.390 . S
C2127 H2129 0.930 . S
H2128 C2126 0.931 . S
H2129 C2127 0.930 . S
H2130 C2153 0.934 1_556 S
H2131 C2119 0.929 . S
H2132 C2154 0.930 1_556 S
H2133 C2125 0.931 . S
H2134 C2115 0.953 . S
H2135 C2144 0.929 . S
H2136 C2120 0.931 . S
H2137 C2121 0.930 . S
H2138 C2176 0.930 . S
H2139 C2117 0.929 . S
H2140 C2145 0.931 . S
H2141 C2146 0.930 . S
N2142 Gd2122 2.622 . S
N2142 C2143 1.369 . S
N2142 C2144 1.338 . S
C2143 N2142 1.369 . S
C2143 C2147 1.415 . S
C2143 C2150 1.422 . S
C2144 H2135 0.929 . S
C2144 N2142 1.338 . S
C2144 C2146 1.378 . S
C2145 H2140 0.931 . S
C2145 C2146 1.348 . S
C2145 C2147 1.413 . S
C2146 H2141 0.930 . S
C2146 C2144 1.378 . S
C2146 C2145 1.348 . S
C2147 C2143 1.415 . S
C2147 C2145 1.413 . S
C2147 C2177 1.437 . S
H2148 C2177 0.929 . S
N2149 Gd2122 2.570 . S
N2149 C2150 1.359 . S
N2149 C2153 1.343 . S
C2150 C2143 1.422 . S
C2150 N2149 1.359 . S
C2150 C2152 1.421 . S
C2151 C2152 1.422 . S
C2151 C2154 1.321 . S
C2151 H2178 0.931 . S
C2152 C2150 1.421 . S
C2152 C2151 1.422 . S
C2152 C2176 1.417 . S
C2153 H2130 0.934 1_554 S
C2153 N2149 1.343 . S
C2153 C2154 1.390 . S
C2154 H2132 0.930 1_554 S
C2154 C2151 1.321 . S
C2154 C2153 1.390 . S
O2155 Gd2123 2.386 1_465 S
O2155 C2167 1.265 . S
O2156 Gd2122 2.337 1_565 S
O2156 C2167 1.251 . S
O2157 Gd2122 2.468 . S
O2157 C2175 1.263 . S
O2158 Gd2122 2.427 . S
O2158 C2175 1.252 . S
O2159 Gd2123 2.307 1_455 S
O2159 C2168 1.261 . S
O2160 Gd2122 2.388 . S
O2160 C2168 1.252 . S
O2161 Gd2122 2.386 . S
O2161 C2179 1.265 . S
O2162 Gd2123 2.353 1_455 S
O2162 C2179 1.242 . S
O2163 Gd2123 2.468 . S
O2163 C2187 1.263 . S
O2164 Gd2123 2.427 1_556 S
O2164 C2187 1.252 1_556 S
O2165 Gd2122 2.307 . S
O2165 C2180 1.261 1_554 S
O2166 Gd2123 2.388 1_456 S
O2166 C2180 1.252 . S
C2167 O2155 1.265 . S
C2167 O2156 1.251 . S
C2168 O2159 1.261 . S
C2168 O2160 1.252 . S
C2169 C2172 1.394 . S
C2169 C2174 1.370 . S
C2169 C2175 1.500 . S
C2170 C2173 1.378 . S
C2170 C2174 1.395 1_565 S
C2171 C2172 1.396 . S
C2171 C2173 1.354 1_545 S
C2171 H2188 0.929 . S
C2172 C2169 1.394 . S
C2172 C2171 1.396 . S
C2172 H2189 0.930 . S
C2173 C2170 1.378 . S
C2173 C2171 1.354 1_565 S
C2173 H2190 0.950 . S
C2174 C2169 1.370 . S
C2174 C2170 1.395 1_545 S
C2174 H2191 0.930 . S
C2175 Gd2122 2.805 . S
C2175 O2157 1.263 . S
C2175 O2158 1.252 . S
C2175 C2169 1.500 . S
C2176 H2138 0.930 . S
C2176 C2152 1.417 . S
C2176 C2177 1.329 . S
C2177 C2147 1.437 . S
C2177 H2148 0.929 . S
C2177 C2176 1.329 . S
H2178 C2151 0.931 . S
C2179 O2161 1.265 . S
C2179 O2162 1.242 . S
C2180 O2165 1.261 1_556 S
C2180 O2166 1.252 . S
C2181 C2184 1.394 . S
C2181 C2186 1.370 1_556 S
C2181 C2187 1.500 1_556 S
C2182 C2185 1.383 1_554 S
C2182 C2186 1.395 . S
C2183 C2184 1.396 . S
C2183 C2185 1.365 . S
C2183 H2192 0.929 . S
C2184 C2181 1.394 . S
C2184 C2183 1.396 . S
C2184 H2193 0.930 . S
C2185 C2182 1.383 1_556 S
C2185 C2183 1.365 . S
C2185 H2194 0.931 . S
C2186 C2181 1.370 1_554 S
C2186 C2182 1.395 . S
C2186 H2195 0.930 . S
C2187 Gd2123 2.805 . S
C2187 O2163 1.263 . S
C2187 O2164 1.252 1_554 S
C2187 C2181 1.500 1_554 S
H2188 C2171 0.929 . S
H2189 C2172 0.930 . S
H2190 C2173 0.950 . S
H2191 C2174 0.930 . S
H2192 C2183 0.929 . S
H2193 C2184 0.930 . S
H2194 C2185 0.931 . S
H2195 C2186 0.930 . S
C2196 C2198 1.422 . S
C2196 C2200 1.415 . S
C2196 N2202 1.369 . S
C2197 C2198 1.421 . S
C2197 C2199 1.417 . S
C2197 C2209 1.422 . S
C2198 C2196 1.422 . S
C2198 C2197 1.421 . S
C2198 N2208 1.359 . S
C2199 C2197 1.417 . S
C2199 C2201 1.329 . S
C2199 H2218 0.930 . S
C2200 C2196 1.415 . S
C2200 C2201 1.437 . S
C2200 C2204 1.413 . S
C2201 C2199 1.329 . S
C2201 C2200 1.437 . S
C2201 H2223 0.929 . S
N2202 C2196 1.369 . S
N2202 C2203 1.338 . S
N2202 Gd2207 2.622 . S
C2203 N2202 1.338 . S
C2203 C2205 1.378 . S
C2203 H2215 0.929 . S
C2204 C2200 1.413 . S
C2204 C2205 1.348 . S
C2204 H2220 0.931 . S
C2205 C2203 1.378 . S
C2205 C2204 1.348 . S
C2205 H2221 0.930 . S
Gd2206 N2226 2.622 . S
Gd2206 N2233 2.570 . S
Gd2206 O2240 2.353 . S
Gd2206 O2241 2.468 . S
Gd2206 O2242 2.427 . S
Gd2206 O2244 2.388 . S
Gd2206 O2245 2.386 . S
Gd2206 O2249 2.307 . S
Gd2206 C2259 2.805 . S
Gd2207 N2202 2.622 . S
Gd2207 N2208 2.570 . S
Gd2207 O2239 2.386 . S
Gd2207 O2243 2.307 . S
Gd2207 O2246 2.353 . S
Gd2207 O2247 2.468 . S
Gd2207 O2248 2.427 . S
Gd2207 O2250 2.388 . S
Gd2207 C2271 2.805 . S
N2208 C2198 1.359 . S
N2208 Gd2207 2.570 . S
N2208 C2210 1.343 . S
C2209 C2197 1.422 . S
C2209 C2211 1.321 . S
C2209 H2217 0.931 . S
C2210 N2208 1.343 . S
C2210 C2211 1.390 . S
C2210 H2212 0.931 . S
C2211 C2209 1.321 . S
C2211 C2210 1.390 . S
C2211 H2213 0.930 . S
H2212 C2210 0.931 . S
H2213 C2211 0.930 . S
H2214 C2237 0.931 . S
H2215 C2203 0.929 . S
H2216 C2238 0.930 . S
H2217 C2209 0.931 . S
H2218 C2199 0.930 . S
H2219 C2228 0.929 . S
H2220 C2204 0.931 . S
H2221 C2205 0.930 . S
H2222 C2260 0.930 . S
H2223 C2201 0.929 . S
H2224 C2229 0.931 . S
H2225 C2230 0.930 . S
N2226 Gd2206 2.622 . S
N2226 C2227 1.369 . S
N2226 C2228 1.338 . S
C2227 N2226 1.369 . S
C2227 C2231 1.415 . S
C2227 C2234 1.422 . S
C2228 H2219 0.929 . S
C2228 N2226 1.338 . S
C2228 C2230 1.378 . S
C2229 H2224 0.931 . S
C2229 C2230 1.348 . S
C2229 C2231 1.413 . S
C2230 H2225 0.930 . S
C2230 C2228 1.378 . S
C2230 C2229 1.348 . S
C2231 C2227 1.415 . S
C2231 C2229 1.413 . S
C2231 C2261 1.437 . S
H2232 C2261 0.929 . S
N2233 Gd2206 2.570 . S
N2233 C2234 1.359 . S
N2233 C2237 1.343 . S
C2234 C2227 1.422 . S
C2234 N2233 1.359 . S
C2234 C2236 1.421 . S
C2235 C2236 1.422 . S
C2235 C2238 1.321 . S
C2235 H2262 0.931 . S
C2236 C2234 1.421 . S
C2236 C2235 1.422 . S
C2236 C2260 1.417 . S
C2237 H2214 0.931 . S
C2237 N2233 1.343 . S
C2237 C2238 1.390 . S
C2238 H2216 0.930 . S
C2238 C2235 1.321 . S
C2238 C2237 1.390 . S
O2239 Gd2207 2.386 . S
O2239 C2251 1.265 . S
O2240 Gd2206 2.353 . S
O2240 C2251 1.242 . S
O2241 Gd2206 2.468 . S
O2241 C2259 1.263 . S
O2242 Gd2206 2.427 . S
O2242 C2259 1.252 . S
O2243 Gd2207 2.307 . S
O2243 C2252 1.261 . S
O2244 Gd2206 2.388 . S
O2244 C2252 1.252 . S
O2245 Gd2206 2.386 . S
O2245 C2263 1.265 . S
O2246 Gd2207 2.353 . S
O2246 C2263 1.242 . S
O2247 Gd2207 2.468 . S
O2247 C2271 1.263 . S
O2248 Gd2207 2.427 . S
O2248 C2271 1.252 . S
O2249 Gd2206 2.307 . S
O2249 C2264 1.261 . S
O2250 Gd2207 2.388 . S
O2250 C2264 1.252 . S
C2251 O2239 1.265 . S
C2251 O2240 1.242 . S
C2252 O2243 1.261 . S
C2252 O2244 1.252 . S
C2253 C2256 1.394 . S
C2253 C2258 1.370 . S
C2253 C2259 1.500 . S
C2254 C2257 1.383 . S
C2254 C2258 1.395 . S
C2255 C2256 1.396 . S
C2255 C2257 1.365 . S
C2255 H2272 0.929 . S
C2256 C2253 1.394 . S
C2256 C2255 1.396 . S
C2256 H2273 0.930 . S
C2257 C2254 1.383 . S
C2257 C2255 1.365 . S
C2257 H2274 0.931 . S
C2258 C2253 1.370 . S
C2258 C2254 1.395 . S
C2258 H2275 0.930 . S
C2259 Gd2206 2.805 . S
C2259 O2241 1.263 . S
C2259 O2242 1.252 . S
C2259 C2253 1.500 . S
C2260 H2222 0.930 . S
C2260 C2236 1.417 . S
C2260 C2261 1.329 . S
C2261 C2231 1.437 . S
C2261 H2232 0.929 . S
C2261 C2260 1.329 . S
H2262 C2235 0.931 . S
C2263 O2245 1.265 . S
C2263 O2246 1.242 . S
C2264 O2249 1.261 . S
C2264 O2250 1.252 . S
C2265 C2268 1.394 . S
C2265 C2270 1.370 . S
C2265 C2271 1.500 . S
C2266 C2269 1.383 . S
C2266 C2270 1.395 . S
C2267 C2268 1.396 . S
C2267 C2269 1.365 . S
C2267 H2276 0.929 . S
C2268 C2265 1.394 . S
C2268 C2267 1.396 . S
C2268 H2277 0.930 . S
C2269 C2266 1.383 . S
C2269 C2267 1.365 . S
C2269 H2278 0.931 . S
C2270 C2265 1.370 . S
C2270 C2266 1.395 . S
C2270 H2279 0.930 . S
C2271 Gd2207 2.805 . S
C2271 O2247 1.263 . S
C2271 O2248 1.252 . S
C2271 C2265 1.500 . S
H2272 C2255 0.929 . S
H2273 C2256 0.930 . S
H2274 C2257 0.931 . S
H2275 C2258 0.930 . S
H2276 C2267 0.929 . S
H2277 C2268 0.930 . S
H2278 C2269 0.931 . S
H2279 C2270 0.930 . S
C2280 C2282 1.422 . S
C2280 C2284 1.415 . S
C2280 N2286 1.369 . S
C2281 C2282 1.421 . S
C2281 C2283 1.417 . S
C2281 C2293 1.422 . S
C2282 C2280 1.422 . S
C2282 C2281 1.421 . S
C2282 N2292 1.359 . S
C2283 C2281 1.417 . S
C2283 C2285 1.329 . S
C2283 H2302 0.930 . S
C2284 C2280 1.415 . S
C2284 C2285 1.437 . S
C2284 C2288 1.413 . S
C2285 C2283 1.329 . S
C2285 C2284 1.437 . S
C2285 H2307 0.929 . S
N2286 C2280 1.369 . S
N2286 C2287 1.338 . S
N2286 Gd2291 2.622 . S
C2287 N2286 1.338 . S
C2287 C2289 1.378 . S
C2287 H2299 0.929 . S
C2288 C2284 1.413 . S
C2288 C2289 1.348 . S
C2288 H2304 0.931 . S
C2289 C2287 1.378 . S
C2289 C2288 1.348 . S
C2289 H2305 0.930 . S
Gd2290 N2310 2.622 1_545 S
Gd2290 N2317 2.570 1_545 S
Gd2290 O2324 2.353 . S
Gd2290 O2325 2.468 . S
Gd2290 O2326 2.427 . S
Gd2290 O2328 2.388 . S
Gd2290 O2329 2.386 1_545 S
Gd2290 O2333 2.307 . S
Gd2290 C2343 2.805 . S
Gd2291 N2286 2.622 . S
Gd2291 N2292 2.570 . S
Gd2291 O2323 2.386 . S
Gd2291 O2327 2.307 . S
Gd2291 O2330 2.353 1_545 S
Gd2291 O2331 2.468 . S
Gd2291 O2332 2.427 . S
Gd2291 O2334 2.388 . S
Gd2291 C2355 2.805 . S
N2292 C2282 1.359 . S
N2292 Gd2291 2.570 . S
N2292 C2294 1.343 . S
C2293 C2281 1.422 . S
C2293 C2295 1.321 . S
C2293 H2301 0.931 . S
C2294 N2292 1.343 . S
C2294 C2295 1.390 . S
C2294 H2296 0.931 . S
C2295 C2293 1.321 . S
C2295 C2294 1.390 . S
C2295 H2297 0.930 . S
H2296 C2294 0.931 . S
H2297 C2295 0.930 . S
H2298 C2321 0.931 . S
H2299 C2287 0.929 . S
H2300 C2322 0.930 . S
H2301 C2293 0.931 . S
H2302 C2283 0.930 . S
H2303 C2312 0.954 . S
H2304 C2288 0.931 . S
H2305 C2289 0.930 . S
H2306 C2344 0.930 . S
H2307 C2285 0.929 . S
H2308 C2313 0.931 . S
H2309 C2314 0.930 . S
N2310 Gd2290 2.622 1_565 S
N2310 C2311 1.369 . S
N2310 C2312 1.340 1_565 S
C2311 N2310 1.369 . S
C2311 C2315 1.415 . S
C2311 C2318 1.422 . S
C2312 H2303 0.954 . S
C2312 N2310 1.340 1_545 S
C2312 C2314 1.353 1_545 S
C2313 H2308 0.931 . S
C2313 C2314 1.348 . S
C2313 C2315 1.413 . S
C2314 H2309 0.930 . S
C2314 C2312 1.353 1_565 S
C2314 C2313 1.348 . S
C2315 C2311 1.415 . S
C2315 C2313 1.413 . S
C2315 C2345 1.437 . S
H2316 C2345 0.929 . S
N2317 Gd2290 2.570 1_565 S
N2317 C2318 1.359 . S
N2317 C2321 1.343 . S
C2318 C2311 1.422 . S
C2318 N2317 1.359 . S
C2318 C2320 1.421 . S
C2319 C2320 1.422 . S
C2319 C2322 1.321 . S
C2319 H2346 0.931 . S
C2320 C2318 1.421 . S
C2320 C2319 1.422 . S
C2320 C2344 1.417 . S
C2321 H2298 0.931 . S
C2321 N2317 1.343 . S
C2321 C2322 1.390 . S
C2322 H2300 0.930 . S
C2322 C2319 1.321 . S
C2322 C2321 1.390 . S
O2323 Gd2291 2.386 . S
O2323 C2335 1.265 . S
O2324 Gd2290 2.353 . S
O2324 C2335 1.242 . S
O2325 Gd2290 2.468 . S
O2325 C2343 1.263 . S
O2326 Gd2290 2.427 . S
O2326 C2343 1.252 . S
O2327 Gd2291 2.307 . S
O2327 C2336 1.261 . S
O2328 Gd2290 2.388 . S
O2328 C2336 1.252 . S
O2329 Gd2290 2.386 1_565 S
O2329 C2347 1.265 . S
O2330 Gd2291 2.353 1_565 S
O2330 C2347 1.242 . S
O2331 Gd2291 2.468 . S
O2331 C2355 1.263 . S
O2332 Gd2291 2.427 . S
O2332 C2355 1.252 . S
O2333 Gd2290 2.307 . S
O2333 C2348 1.261 . S
O2334 Gd2291 2.388 . S
O2334 C2348 1.252 . S
C2335 O2323 1.265 . S
C2335 O2324 1.242 . S
C2336 O2327 1.261 . S
C2336 O2328 1.252 . S
C2337 C2340 1.394 . S
C2337 C2342 1.370 . S
C2337 C2343 1.500 . S
C2338 C2341 1.383 . S
C2338 C2342 1.395 . S
C2339 C2340 1.396 . S
C2339 C2341 1.365 . S
C2339 H2356 0.929 . S
C2340 C2337 1.394 . S
C2340 C2339 1.396 . S
C2340 H2357 0.930 . S
C2341 C2338 1.383 . S
C2341 C2339 1.365 . S
C2341 H2358 0.931 . S
C2342 C2337 1.370 . S
C2342 C2338 1.395 . S
C2342 H2359 0.930 . S
C2343 Gd2290 2.805 . S
C2343 O2325 1.263 . S
C2343 O2326 1.252 . S
C2343 C2337 1.500 . S
C2344 H2306 0.930 . S
C2344 C2320 1.417 . S
C2344 C2345 1.329 . S
C2345 C2315 1.437 . S
C2345 H2316 0.929 . S
C2345 C2344 1.329 . S
H2346 C2319 0.931 . S
C2347 O2329 1.265 . S
C2347 O2330 1.242 . S
C2348 O2333 1.261 . S
C2348 O2334 1.252 . S
C2349 C2352 1.394 . S
C2349 C2354 1.370 . S
C2349 C2355 1.500 1_565 S
C2350 C2353 1.383 . S
C2350 C2354 1.395 . S
C2351 C2352 1.396 . S
C2351 C2353 1.365 . S
C2351 H2360 0.929 . S
C2352 C2349 1.394 . S
C2352 C2351 1.396 . S
C2352 H2361 0.930 . S
C2353 C2350 1.383 . S
C2353 C2351 1.365 . S
C2353 H2362 0.931 . S
C2354 C2349 1.370 . S
C2354 C2350 1.395 . S
C2354 H2363 0.930 . S
C2355 Gd2291 2.805 . S
C2355 O2331 1.263 . S
C2355 O2332 1.252 . S
C2355 C2349 1.500 1_545 S
H2356 C2339 0.929 . S
H2357 C2340 0.930 . S
H2358 C2341 0.931 . S
H2359 C2342 0.930 . S
H2360 C2351 0.929 . S
H2361 C2352 0.930 . S
H2362 C2353 0.931 . S
H2363 C2354 0.930 . S
C2364 C2366 1.422 . S
C2364 C2368 1.415 . S
C2364 N2370 1.369 . S
C2365 C2366 1.421 . S
C2365 C2367 1.417 . S
C2365 C2377 1.422 . S
C2366 C2364 1.422 . S
C2366 C2365 1.421 . S
C2366 N2376 1.359 . S
C2367 C2365 1.417 . S
C2367 C2369 1.329 . S
C2367 H2386 0.930 . S
C2368 C2364 1.415 . S
C2368 C2369 1.437 . S
C2368 C2372 1.413 . S
C2369 C2367 1.329 . S
C2369 C2368 1.437 . S
C2369 H2391 0.929 . S
N2370 C2364 1.369 . S
N2370 C2371 1.338 . S
N2370 Gd2375 2.622 . S
C2371 N2370 1.338 . S
C2371 C2373 1.378 . S
C2371 H2383 0.929 . S
C2372 C2368 1.413 . S
C2372 C2373 1.348 . S
C2372 H2388 0.931 . S
C2373 C2371 1.378 . S
C2373 C2372 1.348 . S
C2373 H2389 0.930 . S
Gd2374 N2394 2.622 . S
Gd2374 N2401 2.570 . S
Gd2374 O2408 2.353 . S
Gd2374 O2409 2.468 . S
Gd2374 O2410 2.427 . S
Gd2374 O2412 2.388 . S
Gd2374 O2413 2.386 . S
Gd2374 O2417 2.307 . S
Gd2374 C2427 2.805 . S
Gd2375 N2370 2.622 . S
Gd2375 N2376 2.570 . S
Gd2375 O2407 2.386 . S
Gd2375 O2411 2.307 . S
Gd2375 O2414 2.353 . S
Gd2375 O2415 2.468 . S
Gd2375 O2416 2.427 . S
Gd2375 O2418 2.388 . S
Gd2375 C2439 2.805 . S
N2376 C2366 1.359 . S
N2376 Gd2375 2.570 . S
N2376 C2378 1.343 . S
C2377 C2365 1.422 . S
C2377 C2379 1.321 . S
C2377 H2385 0.931 . S
C2378 N2376 1.343 . S
C2378 C2379 1.390 . S
C2378 H2380 0.931 . S
C2379 C2377 1.321 . S
C2379 C2378 1.390 . S
C2379 H2381 0.930 . S
H2380 C2378 0.931 . S
H2381 C2379 0.930 . S
H2382 C2405 0.931 . S
H2383 C2371 0.929 . S
H2384 C2406 0.930 . S
H2385 C2377 0.931 . S
H2386 C2367 0.930 . S
H2387 C2396 0.929 . S
H2388 C2372 0.931 . S
H2389 C2373 0.930 . S
H2390 C2428 0.930 . S
H2391 C2369 0.929 . S
H2392 C2397 0.931 . S
H2393 C2398 0.930 . S
N2394 Gd2374 2.622 . S
N2394 C2395 1.369 . S
N2394 C2396 1.338 . S
C2395 N2394 1.369 . S
C2395 C2399 1.415 . S
C2395 C2402 1.422 . S
C2396 H2387 0.929 . S
C2396 N2394 1.338 . S
C2396 C2398 1.378 . S
C2397 H2392 0.931 . S
C2397 C2398 1.348 . S
C2397 C2399 1.413 . S
C2398 H2393 0.930 . S
C2398 C2396 1.378 . S
C2398 C2397 1.348 . S
C2399 C2395 1.415 . S
C2399 C2397 1.413 . S
C2399 C2429 1.437 . S
H2400 C2429 0.929 . S
N2401 Gd2374 2.570 . S
N2401 C2402 1.359 . S
N2401 C2405 1.343 . S
C2402 C2395 1.422 . S
C2402 N2401 1.359 . S
C2402 C2404 1.421 . S
C2403 C2404 1.422 . S
C2403 C2406 1.321 . S
C2403 H2430 0.931 . S
C2404 C2402 1.421 . S
C2404 C2403 1.422 . S
C2404 C2428 1.417 . S
C2405 H2382 0.931 . S
C2405 N2401 1.343 . S
C2405 C2406 1.390 . S
C2406 H2384 0.930 . S
C2406 C2403 1.321 . S
C2406 C2405 1.390 . S
O2407 Gd2375 2.386 . S
O2407 C2419 1.265 . S
O2408 Gd2374 2.353 . S
O2408 C2419 1.242 . S
O2409 Gd2374 2.468 . S
O2409 C2427 1.263 . S
O2410 Gd2374 2.427 . S
O2410 C2427 1.252 . S
O2411 Gd2375 2.307 . S
O2411 C2420 1.261 . S
O2412 Gd2374 2.388 . S
O2412 C2420 1.252 . S
O2413 Gd2374 2.386 . S
O2413 C2431 1.265 . S
O2414 Gd2375 2.353 . S
O2414 C2431 1.242 . S
O2415 Gd2375 2.468 . S
O2415 C2439 1.263 . S
O2416 Gd2375 2.427 . S
O2416 C2439 1.252 . S
O2417 Gd2374 2.307 . S
O2417 C2432 1.261 . S
O2418 Gd2375 2.388 . S
O2418 C2432 1.252 . S
C2419 O2407 1.265 . S
C2419 O2408 1.242 . S
C2420 O2411 1.261 . S
C2420 O2412 1.252 . S
C2421 C2424 1.394 . S
C2421 C2426 1.370 . S
C2421 C2427 1.500 . S
C2422 C2425 1.383 . S
C2422 C2426 1.395 . S
C2423 C2424 1.396 . S
C2423 C2425 1.365 . S
C2423 H2440 0.929 . S
C2424 C2421 1.394 . S
C2424 C2423 1.396 . S
C2424 H2441 0.930 . S
C2425 C2422 1.383 . S
C2425 C2423 1.365 . S
C2425 H2442 0.931 . S
C2426 C2421 1.370 . S
C2426 C2422 1.395 . S
C2426 H2443 0.930 . S
C2427 Gd2374 2.805 . S
C2427 O2409 1.263 . S
C2427 O2410 1.252 . S
C2427 C2421 1.500 . S
C2428 H2390 0.930 . S
C2428 C2404 1.417 . S
C2428 C2429 1.329 . S
C2429 C2399 1.437 . S
C2429 H2400 0.929 . S
C2429 C2428 1.329 . S
H2430 C2403 0.931 . S
C2431 O2413 1.265 . S
C2431 O2414 1.242 . S
C2432 O2417 1.261 . S
C2432 O2418 1.252 . S
C2433 C2436 1.394 . S
C2433 C2438 1.370 . S
C2433 C2439 1.500 . S
C2434 C2437 1.383 . S
C2434 C2438 1.395 . S
C2435 C2436 1.396 . S
C2435 C2437 1.365 . S
C2435 H2444 0.929 . S
C2436 C2433 1.394 . S
C2436 C2435 1.396 . S
C2436 H2445 0.930 . S
C2437 C2434 1.383 . S
C2437 C2435 1.365 . S
C2437 H2446 0.931 . S
C2438 C2433 1.370 . S
C2438 C2434 1.395 . S
C2438 H2447 0.930 . S
C2439 Gd2375 2.805 . S
C2439 O2415 1.263 . S
C2439 O2416 1.252 . S
C2439 C2433 1.500 . S
H2440 C2423 0.929 . S
H2441 C2424 0.930 . S
H2442 C2425 0.931 . S
H2443 C2426 0.930 . S
H2444 C2435 0.929 . S
H2445 C2436 0.930 . S
H2446 C2437 0.931 . S
H2447 C2438 0.930 . S
C2448 C2450 1.422 . S
C2448 C2452 1.415 1_455 S
C2448 N2454 1.369 1_455 S
C2449 C2450 1.421 . S
C2449 C2451 1.417 . S
C2449 C2461 1.422 . S
C2450 C2448 1.422 . S
C2450 C2449 1.421 . S
C2450 N2460 1.359 . S
C2451 C2449 1.417 . S
C2451 C2453 1.329 . S
C2451 H2470 0.930 . S
C2452 C2448 1.415 1_655 S
C2452 C2453 1.437 1_655 S
C2452 C2456 1.413 . S
C2453 C2451 1.329 . S
C2453 C2452 1.437 1_455 S
C2453 H2475 0.929 1_455 S
N2454 C2448 1.369 1_655 S
N2454 C2455 1.338 . S
N2454 Gd2459 2.622 1_655 S
C2455 N2454 1.338 . S
C2455 C2457 1.378 . S
C2455 H2467 0.929 . S
C2456 C2452 1.413 . S
C2456 C2457 1.348 . S
C2456 H2472 0.931 . S
C2457 C2455 1.378 . S
C2457 C2456 1.348 . S
C2457 H2473 0.930 . S
Gd2458 N2478 2.622 . S
Gd2458 N2485 2.570 . S
Gd2458 O2492 2.353 1_565 S
Gd2458 O2493 2.468 . S
Gd2458 O2494 2.427 . S
Gd2458 O2496 2.388 1_565 S
Gd2458 O2497 2.386 1_565 S
Gd2458 O2501 2.307 1_565 S
Gd2458 C2511 2.805 . S
Gd2459 N2454 2.622 1_455 S
Gd2459 N2460 2.570 . S
Gd2459 O2491 2.386 . S
Gd2459 O2495 2.307 . S
Gd2459 O2498 2.353 . S
Gd2459 O2499 2.468 . S
Gd2459 O2500 2.427 1_455 S
Gd2459 O2502 2.388 1_455 S
Gd2459 C2523 2.805 . S
N2460 C2450 1.359 . S
N2460 Gd2459 2.570 . S
N2460 C2462 1.343 . S
C2461 C2449 1.422 . S
C2461 C2463 1.321 . S
C2461 H2469 0.931 . S
C2462 N2460 1.343 . S
C2462 C2463 1.390 . S
C2462 H2464 0.931 . S
C2463 C2461 1.321 . S
C2463 C2462 1.390 . S
C2463 H2465 0.930 . S
H2464 C2462 0.931 . S
H2465 C2463 0.930 . S
H2466 C2489 0.934 1_655 S
H2467 C2455 0.929 . S
H2468 C2490 0.930 . S
H2469 C2461 0.931 . S
H2470 C2451 0.930 . S
H2471 C2480 0.929 1_545 S
H2472 C2456 0.931 . S
H2473 C2457 0.930 . S
H2474 C2512 0.930 . S
H2475 C2453 0.929 1_655 S
H2476 C2481 0.931 . S
H2477 C2482 0.930 . S
N2478 Gd2458 2.622 . S
N2478 C2479 1.369 . S
N2478 C2480 1.338 . S
C2479 N2478 1.369 . S
C2479 C2483 1.415 . S
C2479 C2486 1.422 . S
C2480 H2471 0.929 1_565 S
C2480 N2478 1.338 . S
C2480 C2482 1.378 . S
C2481 H2476 0.931 . S
C2481 C2482 1.348 . S
C2481 C2483 1.413 . S
C2482 H2477 0.930 . S
C2482 C2480 1.378 . S
C2482 C2481 1.348 . S
C2483 C2479 1.415 . S
C2483 C2481 1.413 . S
C2483 C2513 1.437 . S
H2484 C2513 0.929 . S
N2485 Gd2458 2.570 . S
N2485 C2486 1.359 . S
N2485 C2489 1.338 . S
C2486 C2479 1.422 . S
C2486 N2485 1.359 . S
C2486 C2488 1.421 . S
C2487 C2488 1.422 1_655 S
C2487 C2490 1.321 . S
C2487 H2514 0.931 . S
C2488 C2486 1.421 . S
C2488 C2487 1.422 1_455 S
C2488 C2512 1.417 . S
C2489 H2466 0.934 1_455 S
C2489 N2485 1.338 . S
C2489 C2490 1.392 1_455 S
C2490 H2468 0.930 . S
C2490 C2487 1.321 . S
C2490 C2489 1.392 1_655 S
O2491 Gd2459 2.386 . S
O2491 C2503 1.265 . S
O2492 Gd2458 2.353 1_545 S
O2492 C2503 1.242 . S
O2493 Gd2458 2.468 . S
O2493 C2511 1.263 . S
O2494 Gd2458 2.427 . S
O2494 C2511 1.252 . S
O2495 Gd2459 2.307 . S
O2495 C2504 1.261 . S
O2496 Gd2458 2.388 1_545 S
O2496 C2504 1.252 . S
O2497 Gd2458 2.386 1_545 S
O2497 C2515 1.265 . S
O2498 Gd2459 2.353 . S
O2498 C2515 1.242 . S
O2499 Gd2459 2.468 . S
O2499 C2523 1.263 . S
O2500 Gd2459 2.427 1_655 S
O2500 C2523 1.252 1_655 S
O2501 Gd2458 2.307 1_545 S
O2501 C2516 1.261 1_455 S
O2502 Gd2459 2.388 1_655 S
O2502 C2516 1.252 . S
C2503 O2491 1.265 . S
C2503 O2492 1.242 . S
C2504 O2495 1.261 . S
C2504 O2496 1.252 . S
C2505 C2508 1.394 . S
C2505 C2510 1.370 . S
C2505 C2511 1.500 . S
C2506 C2509 1.383 . S
C2506 C2510 1.395 . S
C2507 C2508 1.396 . S
C2507 C2509 1.365 . S
C2507 H2524 0.929 . S
C2508 C2505 1.394 . S
C2508 C2507 1.396 . S
C2508 H2525 0.930 . S
C2509 C2506 1.383 . S
C2509 C2507 1.365 . S
C2509 H2526 0.931 . S
C2510 C2505 1.370 . S
C2510 C2506 1.395 . S
C2510 H2527 0.930 . S
C2511 Gd2458 2.805 . S
C2511 O2493 1.263 . S
C2511 O2494 1.252 . S
C2511 C2505 1.500 . S
C2512 H2474 0.930 . S
C2512 C2488 1.417 . S
C2512 C2513 1.329 . S
C2513 C2483 1.437 . S
C2513 H2484 0.929 . S
C2513 C2512 1.329 . S
H2514 C2487 0.931 . S
C2515 O2497 1.265 . S
C2515 O2498 1.242 . S
C2516 O2501 1.261 1_655 S
C2516 O2502 1.252 . S
C2517 C2520 1.394 1_455 S
C2517 C2522 1.370 . S
C2517 C2523 1.500 . S
C2518 C2521 1.383 1_455 S
C2518 C2522 1.395 . S
C2519 C2520 1.396 . S
C2519 C2521 1.365 . S
C2519 H2528 0.929 . S
C2520 C2517 1.394 1_655 S
C2520 C2519 1.396 . S
C2520 H2529 0.930 . S
C2521 C2518 1.383 1_655 S
C2521 C2519 1.365 . S
C2521 H2530 0.931 . S
C2522 C2517 1.370 . S
C2522 C2518 1.395 . S
C2522 H2531 0.930 . S
C2523 Gd2459 2.805 . S
C2523 O2499 1.263 . S
C2523 O2500 1.252 1_455 S
C2523 C2517 1.500 . S
H2524 C2507 0.929 . S
H2525 C2508 0.930 . S
H2526 C2509 0.931 . S
H2527 C2510 0.930 . S
H2528 C2519 0.929 . S
H2529 C2520 0.930 . S
H2530 C2521 0.931 . S
H2531 C2522 0.930 . S
C2532 C2534 1.422 . S
C2532 C2536 1.415 . S
C2532 N2538 1.369 . S
C2533 C2534 1.421 . S
C2533 C2535 1.417 . S
C2533 C2545 1.422 . S
C2534 C2532 1.422 . S
C2534 C2533 1.421 . S
C2534 N2544 1.359 . S
C2535 C2533 1.417 . S
C2535 C2537 1.329 . S
C2535 H2554 0.930 . S
C2536 C2532 1.415 . S
C2536 C2537 1.437 . S
C2536 C2540 1.413 . S
C2537 C2535 1.329 . S
C2537 C2536 1.437 . S
C2537 H2559 0.929 . S
N2538 C2532 1.369 . S
N2538 C2539 1.338 . S
N2538 Gd2543 2.622 . S
C2539 N2538 1.338 . S
C2539 C2541 1.378 . S
C2539 H2551 0.929 . S
C2540 C2536 1.413 . S
C2540 C2541 1.348 . S
C2540 H2556 0.931 . S
C2541 C2539 1.378 . S
C2541 C2540 1.348 . S
C2541 H2557 0.930 . S
Gd2542 N2562 2.622 . S
Gd2542 N2569 2.570 . S
Gd2542 O2576 2.353 . S
Gd2542 O2577 2.468 . S
Gd2542 O2578 2.427 . S
Gd2542 O2580 2.388 . S
Gd2542 O2581 2.386 . S
Gd2542 O2585 2.307 . S
Gd2542 C2595 2.805 . S
Gd2543 N2538 2.622 . S
Gd2543 N2544 2.570 . S
Gd2543 O2575 2.386 . S
Gd2543 O2579 2.307 . S
Gd2543 O2582 2.353 . S
Gd2543 O2583 2.468 . S
Gd2543 O2584 2.427 . S
Gd2543 O2586 2.388 . S
Gd2543 C2607 2.805 . S
N2544 C2534 1.359 . S
N2544 Gd2543 2.570 . S
N2544 C2546 1.343 . S
C2545 C2533 1.422 . S
C2545 C2547 1.321 . S
C2545 H2553 0.931 . S
C2546 N2544 1.343 . S
C2546 C2547 1.390 . S
C2546 H2548 0.931 . S
C2547 C2545 1.321 . S
C2547 C2546 1.390 . S
C2547 H2549 0.930 . S
H2548 C2546 0.931 . S
H2549 C2547 0.930 . S
H2550 C2573 0.931 . S
H2551 C2539 0.929 . S
H2552 C2574 0.930 . S
H2553 C2545 0.931 . S
H2554 C2535 0.930 . S
H2555 C2564 0.929 . S
H2556 C2540 0.931 . S
H2557 C2541 0.930 . S
H2558 C2596 0.930 . S
H2559 C2537 0.929 . S
H2560 C2565 0.931 . S
H2561 C2566 0.930 . S
N2562 Gd2542 2.622 . S
N2562 C2563 1.369 . S
N2562 C2564 1.338 . S
C2563 N2562 1.369 . S
C2563 C2567 1.415 . S
C2563 C2570 1.422 . S
C2564 H2555 0.929 . S
C2564 N2562 1.338 . S
C2564 C2566 1.378 . S
C2565 H2560 0.931 . S
C2565 C2566 1.348 . S
C2565 C2567 1.413 . S
C2566 H2561 0.930 . S
C2566 C2564 1.378 . S
C2566 C2565 1.348 . S
C2567 C2563 1.415 . S
C2567 C2565 1.413 . S
C2567 C2597 1.437 . S
H2568 C2597 0.929 . S
N2569 Gd2542 2.570 . S
N2569 C2570 1.359 . S
N2569 C2573 1.343 . S
C2570 C2563 1.422 . S
C2570 N2569 1.359 . S
C2570 C2572 1.421 . S
C2571 C2572 1.422 . S
C2571 C2574 1.321 . S
C2571 H2598 0.931 . S
C2572 C2570 1.421 . S
C2572 C2571 1.422 . S
C2572 C2596 1.417 . S
C2573 H2550 0.931 . S
C2573 N2569 1.343 . S
C2573 C2574 1.390 . S
C2574 H2552 0.930 . S
C2574 C2571 1.321 . S
C2574 C2573 1.390 . S
O2575 Gd2543 2.386 . S
O2575 C2587 1.265 . S
O2576 Gd2542 2.353 . S
O2576 C2587 1.242 . S
O2577 Gd2542 2.468 . S
O2577 C2595 1.263 . S
O2578 Gd2542 2.427 . S
O2578 C2595 1.252 . S
O2579 Gd2543 2.307 . S
O2579 C2588 1.261 . S
O2580 Gd2542 2.388 . S
O2580 C2588 1.252 . S
O2581 Gd2542 2.386 . S
O2581 C2599 1.265 . S
O2582 Gd2543 2.353 . S
O2582 C2599 1.242 . S
O2583 Gd2543 2.468 . S
O2583 C2607 1.263 . S
O2584 Gd2543 2.427 . S
O2584 C2607 1.252 . S
O2585 Gd2542 2.307 . S
O2585 C2600 1.261 . S
O2586 Gd2543 2.388 . S
O2586 C2600 1.252 . S
C2587 O2575 1.265 . S
C2587 O2576 1.242 . S
C2588 O2579 1.261 . S
C2588 O2580 1.252 . S
C2589 C2592 1.394 . S
C2589 C2594 1.370 . S
C2589 C2595 1.500 . S
C2590 C2593 1.383 . S
C2590 C2594 1.395 . S
C2591 C2592 1.396 . S
C2591 C2593 1.365 . S
C2591 H2608 0.929 . S
C2592 C2589 1.394 . S
C2592 C2591 1.396 . S
C2592 H2609 0.930 . S
C2593 C2590 1.383 . S
C2593 C2591 1.365 . S
C2593 H2610 0.931 . S
C2594 C2589 1.370 . S
C2594 C2590 1.395 . S
C2594 H2611 0.930 . S
C2595 Gd2542 2.805 . S
C2595 O2577 1.263 . S
C2595 O2578 1.252 . S
C2595 C2589 1.500 . S
C2596 H2558 0.930 . S
C2596 C2572 1.417 . S
C2596 C2597 1.329 . S
C2597 C2567 1.437 . S
C2597 H2568 0.929 . S
C2597 C2596 1.329 . S
H2598 C2571 0.931 . S
C2599 O2581 1.265 . S
C2599 O2582 1.242 . S
C2600 O2585 1.261 . S
C2600 O2586 1.252 . S
C2601 C2604 1.394 . S
C2601 C2606 1.370 . S
C2601 C2607 1.500 . S
C2602 C2605 1.383 . S
C2602 C2606 1.395 . S
C2603 C2604 1.396 . S
C2603 C2605 1.365 . S
C2603 H2612 0.929 . S
C2604 C2601 1.394 . S
C2604 C2603 1.396 . S
C2604 H2613 0.930 . S
C2605 C2602 1.383 . S
C2605 C2603 1.365 . S
C2605 H2614 0.931 . S
C2606 C2601 1.370 . S
C2606 C2602 1.395 . S
C2606 H2615 0.930 . S
C2607 Gd2543 2.805 . S
C2607 O2583 1.263 . S
C2607 O2584 1.252 . S
C2607 C2601 1.500 . S
H2608 C2591 0.929 . S
H2609 C2592 0.930 . S
H2610 C2593 0.931 . S
H2611 C2594 0.930 . S
H2612 C2603 0.929 . S
H2613 C2604 0.930 . S
H2614 C2605 0.931 . S
H2615 C2606 0.930 . S
C2616 C2618 1.422 1_565 S
C2616 C2620 1.415 . S
C2616 N2622 1.369 . S
C2617 C2618 1.421 . S
C2617 C2619 1.417 . S
C2617 C2629 1.422 . S
C2618 C2616 1.422 1_545 S
C2618 C2617 1.421 . S
C2618 N2628 1.359 . S
C2619 C2617 1.417 . S
C2619 C2621 1.329 1_545 S
C2619 H2638 0.930 . S
C2620 C2616 1.415 . S
C2620 C2621 1.437 . S
C2620 C2624 1.413 . S
C2621 C2619 1.329 1_565 S
C2621 C2620 1.437 . S
C2621 H2643 0.929 . S
N2622 C2616 1.369 . S
N2622 C2623 1.338 . S
N2622 Gd2627 2.622 1_565 S
C2623 N2622 1.338 . S
C2623 C2625 1.378 . S
C2623 H2635 0.929 . S
C2624 C2620 1.413 . S
C2624 C2625 1.348 . S
C2624 H2640 0.931 . S
C2625 C2623 1.378 . S
C2625 C2624 1.348 . S
C2625 H2641 0.930 . S
Gd2626 N2646 2.622 . S
Gd2626 N2653 2.570 . S
Gd2626 O2660 2.353 1_556 S
Gd2626 O2661 2.468 . S
Gd2626 O2662 2.427 . S
Gd2626 O2664 2.388 1_556 S
Gd2626 O2665 2.386 1_556 S
Gd2626 O2669 2.311 . S
Gd2626 C2679 2.805 . S
Gd2627 N2622 2.622 1_545 S
Gd2627 N2628 2.570 . S
Gd2627 O2659 2.386 . S
Gd2627 O2663 2.307 . S
Gd2627 O2666 2.353 . S
Gd2627 O2667 2.468 . S
Gd2627 O2668 2.427 1_545 S
Gd2627 O2670 2.388 1_545 S
Gd2627 C2691 2.803 1_545 S
N2628 C2618 1.359 . S
N2628 Gd2627 2.570 . S
N2628 C2630 1.343 . S
C2629 C2617 1.422 . S
C2629 C2631 1.321 . S
C2629 H2637 0.931 . S
C2630 N2628 1.343 . S
C2630 C2631 1.390 . S
C2630 H2632 0.931 . S
C2631 C2629 1.321 . S
C2631 C2630 1.390 . S
C2631 H2633 0.930 . S
H2632 C2630 0.931 . S
H2633 C2631 0.930 . S
H2634 C2657 0.931 1_565 S
H2635 C2623 0.929 . S
H2636 C2658 0.930 . S
H2637 C2629 0.931 . S
H2638 C2619 0.930 . S
H2639 C2648 0.929 1_554 S
H2640 C2624 0.931 . S
H2641 C2625 0.930 . S
H2642 C2680 0.930 . S
H2643 C2621 0.929 . S
H2644 C2649 0.931 . S
H2645 C2650 0.930 . S
N2646 Gd2626 2.622 . S
N2646 C2647 1.369 . S
N2646 C2648 1.338 . S
C2647 N2646 1.369 . S
C2647 C2651 1.415 . S
C2647 C2654 1.422 . S
C2648 H2639 0.929 1_556 S
C2648 N2646 1.338 . S
C2648 C2650 1.378 . S
C2649 H2644 0.931 . S
C2649 C2650 1.348 . S
C2649 C2651 1.413 . S
C2650 H2645 0.930 . S
C2650 C2648 1.378 . S
C2650 C2649 1.348 . S
C2651 C2647 1.415 . S
C2651 C2649 1.413 . S
C2651 C2681 1.437 . S
H2652 C2681 0.929 . S
N2653 Gd2626 2.570 . S
N2653 C2654 1.359 . S
N2653 C2657 1.343 . S
C2654 C2647 1.422 . S
C2654 N2653 1.359 . S
C2654 C2656 1.421 . S
C2655 C2656 1.422 . S
C2655 C2658 1.321 1_545 S
C2655 H2682 0.931 1_545 S
C2656 C2654 1.421 . S
C2656 C2655 1.422 . S
C2656 C2680 1.417 . S
C2657 H2634 0.931 1_545 S
C2657 N2653 1.343 . S
C2657 C2658 1.390 1_545 S
C2658 H2636 0.930 . S
C2658 C2655 1.321 1_565 S
C2658 C2657 1.390 1_565 S
O2659 Gd2627 2.386 . S
O2659 C2671 1.265 . S
O2660 Gd2626 2.353 1_554 S
O2660 C2671 1.242 . S
O2661 Gd2626 2.468 . S
O2661 C2679 1.263 . S
O2662 Gd2626 2.427 . S
O2662 C2679 1.252 . S
O2663 Gd2627 2.307 . S
O2663 C2672 1.261 . S
O2664 Gd2626 2.388 1_554 S
O2664 C2672 1.252 . S
O2665 Gd2626 2.386 1_554 S
O2665 C2683 1.265 . S
O2666 Gd2627 2.353 . S
O2666 C2683 1.242 . S
O2667 Gd2627 2.468 . S
O2667 C2691 1.253 1_545 S
O2668 Gd2627 2.427 1_565 S
O2668 C2691 1.260 . S
O2669 Gd2626 2.311 . S
O2669 C2684 1.253 1_546 S
O2670 Gd2627 2.388 1_565 S
O2670 C2684 1.252 . S
C2671 O2659 1.265 . S
C2671 O2660 1.242 . S
C2672 O2663 1.261 . S
C2672 O2664 1.252 . S
C2673 C2676 1.394 . S
C2673 C2678 1.370 . S
C2673 C2679 1.500 . S
C2674 C2677 1.383 . S
C2674 C2678 1.395 . S
C2675 C2676 1.396 . S
C2675 C2677 1.365 . S
C2675 H2692 0.929 . S
C2676 C2673 1.394 . S
C2676 C2675 1.396 . S
C2676 H2693 0.930 . S
C2677 C2674 1.383 . S
C2677 C2675 1.365 . S
C2677 H2694 0.931 . S
C2678 C2673 1.370 . S
C2678 C2674 1.395 . S
C2678 H2695 0.930 . S
C2679 Gd2626 2.805 . S
C2679 O2661 1.263 . S
C2679 O2662 1.252 . S
C2679 C2673 1.500 . S
C2680 H2642 0.930 . S
C2680 C2656 1.417 . S
C2680 C2681 1.329 . S
C2681 C2651 1.437 . S
C2681 H2652 0.929 . S
C2681 C2680 1.329 . S
H2682 C2655 0.931 1_565 S
C2683 O2665 1.265 . S
C2683 O2666 1.242 . S
C2684 O2669 1.253 1_564 S
C2684 O2670 1.252 . S
C2685 C2688 1.394 . S
C2685 C2690 1.370 1_565 S
C2685 C2691 1.503 . S
C2686 C2689 1.383 1_545 S
C2686 C2690 1.395 . S
C2687 C2688 1.396 . S
C2687 C2689 1.365 . S
C2687 H2696 0.929 . S
C2688 C2685 1.394 . S
C2688 C2687 1.396 . S
C2688 H2697 0.930 . S
C2689 C2686 1.383 1_565 S
C2689 C2687 1.365 . S
C2689 H2698 0.931 . S
C2690 C2685 1.370 1_545 S
C2690 C2686 1.395 . S
C2690 H2699 0.930 . S
C2691 Gd2627 2.803 1_565 S
C2691 O2667 1.253 1_565 S
C2691 O2668 1.260 . S
C2691 C2685 1.503 . S
H2692 C2675 0.929 . S
H2693 C2676 0.930 . S
H2694 C2677 0.931 . S
H2695 C2678 0.930 . S
H2696 C2687 0.929 . S
H2697 C2688 0.930 . S
H2698 C2689 0.931 . S
H2699 C2690 0.930 . S
C2700 C2702 1.422 . S
C2700 C2704 1.415 . S
C2700 N2706 1.369 . S
C2701 C2702 1.421 . S
C2701 C2703 1.417 . S
C2701 C2713 1.422 . S
C2702 C2700 1.422 . S
C2702 C2701 1.421 . S
C2702 N2712 1.359 . S
C2703 C2701 1.417 . S
C2703 C2705 1.329 . S
C2703 H2722 0.930 . S
C2704 C2700 1.415 . S
C2704 C2705 1.437 . S
C2704 C2708 1.413 . S
C2705 C2703 1.329 . S
C2705 C2704 1.437 . S
C2705 H2727 0.929 . S
N2706 C2700 1.369 . S
N2706 C2707 1.338 . S
N2706 Gd2711 2.622 . S
C2707 N2706 1.338 . S
C2707 C2709 1.378 . S
C2707 H2719 0.929 . S
C2708 C2704 1.413 . S
C2708 C2709 1.348 . S
C2708 H2724 0.931 . S
C2709 C2707 1.378 . S
C2709 C2708 1.348 . S
C2709 H2725 0.930 . S
Gd2710 N2730 2.622 . S
Gd2710 N2737 2.570 . S
Gd2710 O2744 2.353 . S
Gd2710 O2745 2.468 . S
Gd2710 O2746 2.427 . S
Gd2710 O2748 2.388 . S
Gd2710 O2749 2.386 . S
Gd2710 O2753 2.307 . S
Gd2710 C2763 2.805 . S
Gd2711 N2706 2.622 . S
Gd2711 N2712 2.570 . S
Gd2711 O2743 2.386 . S
Gd2711 O2747 2.307 . S
Gd2711 O2750 2.353 . S
Gd2711 O2751 2.468 . S
Gd2711 O2752 2.427 . S
Gd2711 O2754 2.388 . S
Gd2711 C2775 2.805 . S
N2712 C2702 1.359 . S
N2712 Gd2711 2.570 . S
N2712 C2714 1.343 . S
C2713 C2701 1.422 . S
C2713 C2715 1.321 . S
C2713 H2721 0.931 . S
C2714 N2712 1.343 . S
C2714 C2715 1.390 . S
C2714 H2716 0.931 . S
C2715 C2713 1.321 . S
C2715 C2714 1.390 . S
C2715 H2717 0.930 . S
H2716 C2714 0.931 . S
H2717 C2715 0.930 . S
H2718 C2741 0.931 . S
H2719 C2707 0.929 . S
H2720 C2742 0.930 . S
H2721 C2713 0.931 . S
H2722 C2703 0.930 . S
H2723 C2732 0.929 . S
H2724 C2708 0.931 . S
H2725 C2709 0.930 . S
H2726 C2764 0.930 . S
H2727 C2705 0.929 . S
H2728 C2733 0.931 . S
H2729 C2734 0.930 . S
N2730 Gd2710 2.622 . S
N2730 C2731 1.369 . S
N2730 C2732 1.338 . S
C2731 N2730 1.369 . S
C2731 C2735 1.415 . S
C2731 C2738 1.422 . S
C2732 H2723 0.929 . S
C2732 N2730 1.338 . S
C2732 C2734 1.378 . S
C2733 H2728 0.931 . S
C2733 C2734 1.348 . S
C2733 C2735 1.413 . S
C2734 H2729 0.930 . S
C2734 C2732 1.378 . S
C2734 C2733 1.348 . S
C2735 C2731 1.415 . S
C2735 C2733 1.413 . S
C2735 C2765 1.437 . S
H2736 C2765 0.929 . S
N2737 Gd2710 2.570 . S
N2737 C2738 1.359 . S
N2737 C2741 1.343 . S
C2738 C2731 1.422 . S
C2738 N2737 1.359 . S
C2738 C2740 1.421 . S
C2739 C2740 1.422 . S
C2739 C2742 1.321 . S
C2739 H2766 0.931 . S
C2740 C2738 1.421 . S
C2740 C2739 1.422 . S
C2740 C2764 1.417 . S
C2741 H2718 0.931 . S
C2741 N2737 1.343 . S
C2741 C2742 1.390 . S
C2742 H2720 0.930 . S
C2742 C2739 1.321 . S
C2742 C2741 1.390 . S
O2743 Gd2711 2.386 . S
O2743 C2755 1.265 . S
O2744 Gd2710 2.353 . S
O2744 C2755 1.242 . S
O2745 Gd2710 2.468 . S
O2745 C2763 1.263 . S
O2746 Gd2710 2.427 . S
O2746 C2763 1.252 . S
O2747 Gd2711 2.307 . S
O2747 C2756 1.261 . S
O2748 Gd2710 2.388 . S
O2748 C2756 1.252 . S
O2749 Gd2710 2.386 . S
O2749 C2767 1.265 . S
O2750 Gd2711 2.353 . S
O2750 C2767 1.242 . S
O2751 Gd2711 2.468 . S
O2751 C2775 1.263 . S
O2752 Gd2711 2.427 . S
O2752 C2775 1.252 . S
O2753 Gd2710 2.307 . S
O2753 C2768 1.261 . S
O2754 Gd2711 2.388 . S
O2754 C2768 1.252 . S
C2755 O2743 1.265 . S
C2755 O2744 1.242 . S
C2756 O2747 1.261 . S
C2756 O2748 1.252 . S
C2757 C2760 1.394 . S
C2757 C2762 1.370 . S
C2757 C2763 1.500 . S
C2758 C2761 1.383 . S
C2758 C2762 1.395 . S
C2759 C2760 1.396 . S
C2759 C2761 1.365 . S
C2759 H2776 0.929 . S
C2760 C2757 1.394 . S
C2760 C2759 1.396 . S
C2760 H2777 0.930 . S
C2761 C2758 1.383 . S
C2761 C2759 1.365 . S
C2761 H2778 0.931 . S
C2762 C2757 1.370 . S
C2762 C2758 1.395 . S
C2762 H2779 0.930 . S
C2763 Gd2710 2.805 . S
C2763 O2745 1.263 . S
C2763 O2746 1.252 . S
C2763 C2757 1.500 . S
C2764 H2726 0.930 . S
C2764 C2740 1.417 . S
C2764 C2765 1.329 . S
C2765 C2735 1.437 . S
C2765 H2736 0.929 . S
C2765 C2764 1.329 . S
H2766 C2739 0.931 . S
C2767 O2749 1.265 . S
C2767 O2750 1.242 . S
C2768 O2753 1.261 . S
C2768 O2754 1.252 . S
C2769 C2772 1.394 . S
C2769 C2774 1.370 . S
C2769 C2775 1.500 . S
C2770 C2773 1.383 . S
C2770 C2774 1.395 . S
C2771 C2772 1.396 . S
C2771 C2773 1.365 . S
C2771 H2780 0.929 . S
C2772 C2769 1.394 . S
C2772 C2771 1.396 . S
C2772 H2781 0.930 . S
C2773 C2770 1.383 . S
C2773 C2771 1.365 . S
C2773 H2782 0.931 . S
C2774 C2769 1.370 . S
C2774 C2770 1.395 . S
C2774 H2783 0.930 . S
C2775 Gd2711 2.805 . S
C2775 O2751 1.263 . S
C2775 O2752 1.252 . S
C2775 C2769 1.500 . S
H2776 C2759 0.929 . S
H2777 C2760 0.930 . S
H2778 C2761 0.931 . S
H2779 C2762 0.930 . S
H2780 C2771 0.929 . S
H2781 C2772 0.930 . S
H2782 C2773 0.931 . S
H2783 C2774 0.930 . S
C2784 C2786 1.422 . S
C2784 C2788 1.415 . S
C2784 N2790 1.369 . S
C2785 C2786 1.421 . S
C2785 C2787 1.417 . S
C2785 C2797 1.422 . S
C2786 C2784 1.422 . S
C2786 C2785 1.421 . S
C2786 N2796 1.359 . S
C2787 C2785 1.417 . S
C2787 C2789 1.329 . S
C2787 H2806 0.930 . S
C2788 C2784 1.415 . S
C2788 C2789 1.437 . S
C2788 C2792 1.413 . S
C2789 C2787 1.329 . S
C2789 C2788 1.437 . S
C2789 H2811 0.929 . S
N2790 C2784 1.369 . S
N2790 C2791 1.338 . S
N2790 Gd2795 2.622 . S
C2791 N2790 1.338 . S
C2791 C2793 1.378 . S
C2791 H2803 0.929 . S
C2792 C2788 1.413 . S
C2792 C2793 1.348 . S
C2792 H2808 0.931 . S
C2793 C2791 1.378 . S
C2793 C2792 1.348 . S
C2793 H2809 0.930 . S
Gd2794 N2814 2.622 1_554 S
Gd2794 N2821 2.570 1_554 S
Gd2794 O2828 2.353 . S
Gd2794 O2829 2.468 . S
Gd2794 O2830 2.427 . S
Gd2794 O2832 2.388 . S
Gd2794 O2833 2.386 1_554 S
Gd2794 O2837 2.307 . S
Gd2794 C2847 2.805 . S
Gd2795 N2790 2.622 . S
Gd2795 N2796 2.570 . S
Gd2795 O2827 2.386 . S
Gd2795 O2831 2.307 . S
Gd2795 O2834 2.353 1_554 S
Gd2795 O2835 2.468 . S
Gd2795 O2836 2.427 . S
Gd2795 O2838 2.388 . S
Gd2795 C2859 2.805 . S
N2796 C2786 1.359 . S
N2796 Gd2795 2.570 . S
N2796 C2798 1.343 . S
C2797 C2785 1.422 . S
C2797 C2799 1.321 . S
C2797 H2805 0.931 . S
C2798 N2796 1.343 . S
C2798 C2799 1.390 . S
C2798 H2800 0.931 . S
C2799 C2797 1.321 . S
C2799 C2798 1.390 . S
C2799 H2801 0.930 . S
H2800 C2798 0.931 . S
H2801 C2799 0.930 . S
H2802 C2825 0.931 1_554 S
H2803 C2791 0.929 . S
H2804 C2826 0.930 . S
H2805 C2797 0.931 . S
H2806 C2787 0.930 . S
H2807 C2816 0.929 1_554 S
H2808 C2792 0.931 . S
H2809 C2793 0.930 . S
H2810 C2848 0.930 . S
H2811 C2789 0.929 . S
H2812 C2817 0.931 . S
H2813 C2818 0.930 . S
N2814 Gd2794 2.622 1_556 S
N2814 C2815 1.369 . S
N2814 C2816 1.338 . S
C2815 N2814 1.369 . S
C2815 C2819 1.415 . S
C2815 C2822 1.422 . S
C2816 H2807 0.929 1_556 S
C2816 N2814 1.338 . S
C2816 C2818 1.378 . S
C2817 H2812 0.931 . S
C2817 C2818 1.348 . S
C2817 C2819 1.413 . S
C2818 H2813 0.930 . S
C2818 C2816 1.378 . S
C2818 C2817 1.348 . S
C2819 C2815 1.415 . S
C2819 C2817 1.413 . S
C2819 C2849 1.437 . S
H2820 C2849 0.929 . S
N2821 Gd2794 2.570 1_556 S
N2821 C2822 1.359 . S
N2821 C2825 1.343 . S
C2822 C2815 1.422 . S
C2822 N2821 1.359 . S
C2822 C2824 1.421 . S
C2823 C2824 1.422 . S
C2823 C2826 1.321 . S
C2823 H2850 0.931 . S
C2824 C2822 1.421 . S
C2824 C2823 1.422 . S
C2824 C2848 1.417 . S
C2825 H2802 0.931 1_556 S
C2825 N2821 1.343 . S
C2825 C2826 1.390 . S
C2826 H2804 0.930 . S
C2826 C2823 1.321 . S
C2826 C2825 1.390 . S
O2827 Gd2795 2.386 . S
O2827 C2839 1.265 . S
O2828 Gd2794 2.353 . S
O2828 C2839 1.242 . S
O2829 Gd2794 2.468 . S
O2829 C2847 1.263 . S
O2830 Gd2794 2.427 . S
O2830 C2847 1.252 . S
O2831 Gd2795 2.307 . S
O2831 C2840 1.261 . S
O2832 Gd2794 2.388 . S
O2832 C2840 1.252 . S
O2833 Gd2794 2.386 1_556 S
O2833 C2851 1.265 . S
O2834 Gd2795 2.353 1_556 S
O2834 C2851 1.242 . S
O2835 Gd2795 2.468 . S
O2835 C2859 1.263 . S
O2836 Gd2795 2.427 . S
O2836 C2859 1.252 . S
O2837 Gd2794 2.307 . S
O2837 C2852 1.261 . S
O2838 Gd2795 2.388 . S
O2838 C2852 1.252 . S
C2839 O2827 1.265 . S
C2839 O2828 1.242 . S
C2840 O2831 1.261 . S
C2840 O2832 1.252 . S
C2841 C2844 1.394 . S
C2841 C2846 1.370 . S
C2841 C2847 1.500 . S
C2842 C2845 1.383 . S
C2842 C2846 1.395 . S
C2843 C2844 1.396 . S
C2843 C2845 1.365 . S
C2843 H2860 0.929 . S
C2844 C2841 1.394 . S
C2844 C2843 1.396 . S
C2844 H2861 0.930 . S
C2845 C2842 1.383 . S
C2845 C2843 1.365 . S
C2845 H2862 0.931 . S
C2846 C2841 1.370 . S
C2846 C2842 1.395 . S
C2846 H2863 0.930 . S
C2847 Gd2794 2.805 . S
C2847 O2829 1.263 . S
C2847 O2830 1.252 . S
C2847 C2841 1.500 . S
C2848 H2810 0.930 . S
C2848 C2824 1.417 . S
C2848 C2849 1.329 . S
C2849 C2819 1.437 . S
C2849 H2820 0.929 . S
C2849 C2848 1.329 . S
H2850 C2823 0.931 . S
C2851 O2833 1.265 . S
C2851 O2834 1.242 . S
C2852 O2837 1.261 . S
C2852 O2838 1.252 . S
C2853 C2856 1.394 . S
C2853 C2858 1.370 . S
C2853 C2859 1.500 1_556 S
C2854 C2857 1.383 . S
C2854 C2858 1.395 . S
C2855 C2856 1.396 . S
C2855 C2857 1.365 . S
C2855 H2864 0.929 . S
C2856 C2853 1.394 . S
C2856 C2855 1.396 . S
C2856 H2865 0.930 . S
C2857 C2854 1.383 . S
C2857 C2855 1.365 . S
C2857 H2866 0.931 . S
C2858 C2853 1.370 . S
C2858 C2854 1.395 . S
C2858 H2867 0.930 . S
C2859 Gd2795 2.805 . S
C2859 O2835 1.263 . S
C2859 O2836 1.252 . S
C2859 C2853 1.500 1_554 S
H2860 C2843 0.929 . S
H2861 C2844 0.930 . S
H2862 C2845 0.931 . S
H2863 C2846 0.930 . S
H2864 C2855 0.929 . S
H2865 C2856 0.930 . S
H2866 C2857 0.931 . S
H2867 C2858 0.930 . S
C2868 C2870 1.422 . S
C2868 C2872 1.415 . S
C2868 N2874 1.369 . S
C2869 C2870 1.421 . S
C2869 C2871 1.417 . S
C2869 C2881 1.422 . S
C2870 C2868 1.422 . S
C2870 C2869 1.421 . S
C2870 N2880 1.359 . S
C2871 C2869 1.417 . S
C2871 C2873 1.329 . S
C2871 H2890 0.930 . S
C2872 C2868 1.415 . S
C2872 C2873 1.437 . S
C2872 C2876 1.413 . S
C2873 C2871 1.329 . S
C2873 C2872 1.437 . S
C2873 H2895 0.929 . S
N2874 C2868 1.369 . S
N2874 C2875 1.338 . S
N2874 Gd2879 2.622 . S
C2875 N2874 1.338 . S
C2875 C2877 1.378 . S
C2875 H2887 0.929 . S
C2876 C2872 1.413 . S
C2876 C2877 1.348 . S
C2876 H2892 0.931 . S
C2877 C2875 1.378 . S
C2877 C2876 1.348 . S
C2877 H2893 0.930 . S
Gd2878 N2898 2.622 . S
Gd2878 N2905 2.570 . S
Gd2878 O2912 2.353 . S
Gd2878 O2913 2.468 . S
Gd2878 O2914 2.427 . S
Gd2878 O2916 2.388 . S
Gd2878 O2917 2.386 . S
Gd2878 O2921 2.307 . S
Gd2878 C2931 2.805 . S
Gd2879 N2874 2.622 . S
Gd2879 N2880 2.570 . S
Gd2879 O2911 2.386 . S
Gd2879 O2915 2.307 . S
Gd2879 O2918 2.353 . S
Gd2879 O2919 2.468 . S
Gd2879 O2920 2.427 . S
Gd2879 O2922 2.388 . S
Gd2879 C2943 2.805 . S
N2880 C2870 1.359 . S
N2880 Gd2879 2.570 . S
N2880 C2882 1.343 . S
C2881 C2869 1.422 . S
C2881 C2883 1.321 . S
C2881 H2889 0.931 . S
C2882 N2880 1.343 . S
C2882 C2883 1.390 . S
C2882 H2884 0.931 . S
C2883 C2881 1.321 . S
C2883 C2882 1.390 . S
C2883 H2885 0.930 . S
H2884 C2882 0.931 . S
H2885 C2883 0.930 . S
H2886 C2909 0.931 . S
H2887 C2875 0.929 . S
H2888 C2910 0.930 . S
H2889 C2881 0.931 . S
H2890 C2871 0.930 . S
H2891 C2900 0.929 . S
H2892 C2876 0.931 . S
H2893 C2877 0.930 . S
H2894 C2932 0.930 . S
H2895 C2873 0.929 . S
H2896 C2901 0.931 . S
H2897 C2902 0.930 . S
N2898 Gd2878 2.622 . S
N2898 C2899 1.369 . S
N2898 C2900 1.338 . S
C2899 N2898 1.369 . S
C2899 C2903 1.415 . S
C2899 C2906 1.422 . S
C2900 H2891 0.929 . S
C2900 N2898 1.338 . S
C2900 C2902 1.378 . S
C2901 H2896 0.931 . S
C2901 C2902 1.348 . S
C2901 C2903 1.413 . S
C2902 H2897 0.930 . S
C2902 C2900 1.378 . S
C2902 C2901 1.348 . S
C2903 C2899 1.415 . S
C2903 C2901 1.413 . S
C2903 C2933 1.437 . S
H2904 C2933 0.929 . S
N2905 Gd2878 2.570 . S
N2905 C2906 1.359 . S
N2905 C2909 1.343 . S
C2906 C2899 1.422 . S
C2906 N2905 1.359 . S
C2906 C2908 1.421 . S
C2907 C2908 1.422 . S
C2907 C2910 1.321 . S
C2907 H2934 0.931 . S
C2908 C2906 1.421 . S
C2908 C2907 1.422 . S
C2908 C2932 1.417 . S
C2909 H2886 0.931 . S
C2909 N2905 1.343 . S
C2909 C2910 1.390 . S
C2910 H2888 0.930 . S
C2910 C2907 1.321 . S
C2910 C2909 1.390 . S
O2911 Gd2879 2.386 . S
O2911 C2923 1.265 . S
O2912 Gd2878 2.353 . S
O2912 C2923 1.242 . S
O2913 Gd2878 2.468 . S
O2913 C2931 1.263 . S
O2914 Gd2878 2.427 . S
O2914 C2931 1.252 . S
O2915 Gd2879 2.307 . S
O2915 C2924 1.261 . S
O2916 Gd2878 2.388 . S
O2916 C2924 1.252 . S
O2917 Gd2878 2.386 . S
O2917 C2935 1.265 . S
O2918 Gd2879 2.353 . S
O2918 C2935 1.242 . S
O2919 Gd2879 2.468 . S
O2919 C2943 1.263 . S
O2920 Gd2879 2.427 . S
O2920 C2943 1.252 . S
O2921 Gd2878 2.307 . S
O2921 C2936 1.261 . S
O2922 Gd2879 2.388 . S
O2922 C2936 1.252 . S
C2923 O2911 1.265 . S
C2923 O2912 1.242 . S
C2924 O2915 1.261 . S
C2924 O2916 1.252 . S
C2925 C2928 1.394 . S
C2925 C2930 1.370 . S
C2925 C2931 1.500 . S
C2926 C2929 1.383 . S
C2926 C2930 1.395 . S
C2927 C2928 1.396 . S
C2927 C2929 1.365 . S
C2927 H2944 0.929 . S
C2928 C2925 1.394 . S
C2928 C2927 1.396 . S
C2928 H2945 0.930 . S
C2929 C2926 1.383 . S
C2929 C2927 1.365 . S
C2929 H2946 0.931 . S
C2930 C2925 1.370 . S
C2930 C2926 1.395 . S
C2930 H2947 0.930 . S
C2931 Gd2878 2.805 . S
C2931 O2913 1.263 . S
C2931 O2914 1.252 . S
C2931 C2925 1.500 . S
C2932 H2894 0.930 . S
C2932 C2908 1.417 . S
C2932 C2933 1.329 . S
C2933 C2903 1.437 . S
C2933 H2904 0.929 . S
C2933 C2932 1.329 . S
H2934 C2907 0.931 . S
C2935 O2917 1.265 . S
C2935 O2918 1.242 . S
C2936 O2921 1.261 . S
C2936 O2922 1.252 . S
C2937 C2940 1.394 . S
C2937 C2942 1.370 . S
C2937 C2943 1.500 . S
C2938 C2941 1.383 . S
C2938 C2942 1.395 . S
C2939 C2940 1.396 . S
C2939 C2941 1.365 . S
C2939 H2948 0.929 . S
C2940 C2937 1.394 . S
C2940 C2939 1.396 . S
C2940 H2949 0.930 . S
C2941 C2938 1.383 . S
C2941 C2939 1.365 . S
C2941 H2950 0.931 . S
C2942 C2937 1.370 . S
C2942 C2938 1.395 . S
C2942 H2951 0.930 . S
C2943 Gd2879 2.805 . S
C2943 O2919 1.263 . S
C2943 O2920 1.252 . S
C2943 C2937 1.500 . S
H2944 C2927 0.929 . S
H2945 C2928 0.930 . S
H2946 C2929 0.931 . S
H2947 C2930 0.930 . S
H2948 C2939 0.929 . S
H2949 C2940 0.930 . S
H2950 C2941 0.931 . S
H2951 C2942 0.930 . S
C2952 C2954 1.422 . S
C2952 C2956 1.415 . S
C2952 N2958 1.369 . S
C2953 C2954 1.421 . S
C2953 C2955 1.417 . S
C2953 C2965 1.422 . S
C2954 C2952 1.422 . S
C2954 C2953 1.421 . S
C2954 N2964 1.359 . S
C2955 C2953 1.417 . S
C2955 C2957 1.329 . S
C2955 H2974 0.930 . S
C2956 C2952 1.415 . S
C2956 C2957 1.437 . S
C2956 C2960 1.413 . S
C2957 C2955 1.329 . S
C2957 C2956 1.437 . S
C2957 H2979 0.929 . S
N2958 C2952 1.369 . S
N2958 C2959 1.338 . S
N2958 Gd2963 2.622 . S
C2959 N2958 1.338 . S
C2959 C2961 1.378 . S
C2959 H2971 0.929 . S
C2960 C2956 1.413 . S
C2960 C2961 1.348 . S
C2960 H2976 0.931 . S
C2961 C2959 1.378 . S
C2961 C2960 1.348 . S
C2961 H2977 0.930 . S
Gd2962 N2982 2.622 1_455 S
Gd2962 N2989 2.570 1_455 S
Gd2962 O2996 2.353 . S
Gd2962 O2997 2.468 . S
Gd2962 O2998 2.427 . S
Gd2962 O3000 2.388 . S
Gd2962 O3001 2.386 1_455 S
Gd2962 O3005 2.307 . S
Gd2962 C3015 2.805 . S
Gd2963 N2958 2.622 . S
Gd2963 N2964 2.570 . S
Gd2963 O2995 2.386 . S
Gd2963 O2999 2.307 . S
Gd2963 O3002 2.353 1_455 S
Gd2963 O3003 2.468 . S
Gd2963 O3004 2.427 . S
Gd2963 O3006 2.388 . S
Gd2963 C3027 2.805 . S
N2964 C2954 1.359 . S
N2964 Gd2963 2.570 . S
N2964 C2966 1.343 . S
C2965 C2953 1.422 . S
C2965 C2967 1.321 . S
C2965 H2973 0.931 . S
C2966 N2964 1.343 . S
C2966 C2967 1.390 . S
C2966 H2968 0.931 . S
C2967 C2965 1.321 . S
C2967 C2966 1.390 . S
C2967 H2969 0.930 . S
H2968 C2966 0.931 . S
H2969 C2967 0.930 . S
H2970 C2993 0.931 1_455 S
H2971 C2959 0.929 . S
H2972 C2994 0.930 . S
H2973 C2965 0.931 . S
H2974 C2955 0.930 . S
H2975 C2984 0.910 1_455 S
H2976 C2960 0.931 . S
H2977 C2961 0.930 . S
H2978 C3016 0.930 . S
H2979 C2957 0.929 . S
H2980 C2985 0.931 . S
H2981 C2986 0.930 . S
N2982 Gd2962 2.622 1_655 S
N2982 C2983 1.369 . S
N2982 C2984 1.333 . S
C2983 N2982 1.369 . S
C2983 C2987 1.415 . S
C2983 C2990 1.422 . S
C2984 H2975 0.910 1_655 S
C2984 N2982 1.333 . S
C2984 C2986 1.402 . S
C2985 H2980 0.931 . S
C2985 C2986 1.348 . S
C2985 C2987 1.413 . S
C2986 H2981 0.930 . S
C2986 C2984 1.402 . S
C2986 C2985 1.348 . S
C2987 C2983 1.415 . S
C2987 C2985 1.413 . S
C2987 C3017 1.437 . S
H2988 C3017 0.929 . S
N2989 Gd2962 2.570 1_655 S
N2989 C2990 1.359 . S
N2989 C2993 1.343 . S
C2990 C2983 1.422 . S
C2990 N2989 1.359 . S
C2990 C2992 1.421 . S
C2991 C2992 1.422 . S
C2991 C2994 1.321 . S
C2991 H3018 0.931 . S
C2992 C2990 1.421 . S
C2992 C2991 1.422 . S
C2992 C3016 1.417 . S
C2993 H2970 0.931 1_655 S
C2993 N2989 1.343 . S
C2993 C2994 1.390 . S
C2994 H2972 0.930 . S
C2994 C2991 1.321 . S
C2994 C2993 1.390 . S
O2995 Gd2963 2.386 . S
O2995 C3007 1.265 . S
O2996 Gd2962 2.353 . S
O2996 C3007 1.242 . S
O2997 Gd2962 2.468 . S
O2997 C3015 1.263 . S
O2998 Gd2962 2.427 . S
O2998 C3015 1.252 . S
O2999 Gd2963 2.307 . S
O2999 C3008 1.261 . S
O3000 Gd2962 2.388 . S
O3000 C3008 1.252 . S
O3001 Gd2962 2.386 1_655 S
O3001 C3019 1.265 . S
O3002 Gd2963 2.353 1_655 S
O3002 C3019 1.242 . S
O3003 Gd2963 2.468 . S
O3003 C3027 1.263 . S
O3004 Gd2963 2.427 . S
O3004 C3027 1.252 . S
O3005 Gd2962 2.307 . S
O3005 C3020 1.261 . S
O3006 Gd2963 2.388 . S
O3006 C3020 1.252 . S
C3007 O2995 1.265 . S
C3007 O2996 1.242 . S
C3008 O2999 1.261 . S
C3008 O3000 1.252 . S
C3009 C3012 1.394 . S
C3009 C3014 1.370 . S
C3009 C3015 1.500 . S
C3010 C3013 1.383 . S
C3010 C3014 1.395 . S
C3011 C3012 1.396 . S
C3011 C3013 1.365 . S
C3011 H3028 0.929 . S
C3012 C3009 1.394 . S
C3012 C3011 1.396 . S
C3012 H3029 0.930 . S
C3013 C3010 1.383 . S
C3013 C3011 1.365 . S
C3013 H3030 0.931 . S
C3014 C3009 1.370 . S
C3014 C3010 1.395 . S
C3014 H3031 0.930 . S
C3015 Gd2962 2.805 . S
C3015 O2997 1.263 . S
C3015 O2998 1.252 . S
C3015 C3009 1.500 . S
C3016 H2978 0.930 . S
C3016 C2992 1.417 . S
C3016 C3017 1.329 . S
C3017 C2987 1.437 . S
C3017 H2988 0.929 . S
C3017 C3016 1.329 . S
H3018 C2991 0.931 . S
C3019 O3001 1.265 . S
C3019 O3002 1.242 . S
C3020 O3005 1.261 . S
C3020 O3006 1.252 . S
C3021 C3024 1.394 . S
C3021 C3026 1.370 . S
C3021 C3027 1.500 1_655 S
C3022 C3025 1.383 . S
C3022 C3026 1.395 . S
C3023 C3024 1.396 . S
C3023 C3025 1.365 . S
C3023 H3032 0.929 . S
C3024 C3021 1.394 . S
C3024 C3023 1.396 . S
C3024 H3033 0.930 . S
C3025 C3022 1.383 . S
C3025 C3023 1.365 . S
C3025 H3034 0.931 . S
C3026 C3021 1.370 . S
C3026 C3022 1.395 . S
C3026 H3035 0.930 . S
C3027 Gd2963 2.805 . S
C3027 O3003 1.263 . S
C3027 O3004 1.252 . S
C3027 C3021 1.500 1_455 S
H3028 C3011 0.929 . S
H3029 C3012 0.930 . S
H3030 C3013 0.931 . S
H3031 C3014 0.930 . S
H3032 C3023 0.929 . S
H3033 C3024 0.930 . S
H3034 C3025 0.931 . S
H3035 C3026 0.930 . S
C3036 C3038 1.422 . S
C3036 C3040 1.415 . S
C3036 N3042 1.369 . S
C3037 C3038 1.421 . S
C3037 C3039 1.417 . S
C3037 C3049 1.422 . S
C3038 C3036 1.422 . S
C3038 C3037 1.421 . S
C3038 N3048 1.359 . S
C3039 C3037 1.417 . S
C3039 C3041 1.329 . S
C3039 H3058 0.930 . S
C3040 C3036 1.415 . S
C3040 C3041 1.437 . S
C3040 C3044 1.413 . S
C3041 C3039 1.329 . S
C3041 C3040 1.437 . S
C3041 H3063 0.929 . S
N3042 C3036 1.369 . S
N3042 C3043 1.338 . S
N3042 Gd3047 2.622 . S
C3043 N3042 1.338 . S
C3043 C3045 1.378 . S
C3043 H3055 0.929 . S
C3044 C3040 1.413 . S
C3044 C3045 1.348 . S
C3044 H3060 0.931 . S
C3045 C3043 1.378 . S
C3045 C3044 1.348 . S
C3045 H3061 0.930 . S
Gd3046 N3066 2.622 . S
Gd3046 N3073 2.570 . S
Gd3046 O3080 2.353 . S
Gd3046 O3081 2.468 . S
Gd3046 O3082 2.427 . S
Gd3046 O3084 2.388 . S
Gd3046 O3085 2.386 . S
Gd3046 O3089 2.307 . S
Gd3046 C3099 2.805 . S
Gd3047 N3042 2.622 . S
Gd3047 N3048 2.570 . S
Gd3047 O3079 2.386 . S
Gd3047 O3083 2.307 . S
Gd3047 O3086 2.353 . S
Gd3047 O3087 2.468 . S
Gd3047 O3088 2.427 . S
Gd3047 O3090 2.388 . S
Gd3047 C3111 2.805 . S
N3048 C3038 1.359 . S
N3048 Gd3047 2.570 . S
N3048 C3050 1.343 . S
C3049 C3037 1.422 . S
C3049 C3051 1.321 . S
C3049 H3057 0.931 . S
C3050 N3048 1.343 . S
C3050 C3051 1.390 . S
C3050 H3052 0.931 . S
C3051 C3049 1.321 . S
C3051 C3050 1.390 . S
C3051 H3053 0.930 . S
H3052 C3050 0.931 . S
H3053 C3051 0.930 . S
H3054 C3077 0.931 . S
H3055 C3043 0.929 . S
H3056 C3078 0.930 . S
H3057 C3049 0.931 . S
H3058 C3039 0.930 . S
H3059 C3068 0.929 . S
H3060 C3044 0.931 . S
H3061 C3045 0.930 . S
H3062 C3100 0.930 . S
H3063 C3041 0.929 . S
H3064 C3069 0.931 . S
H3065 C3070 0.930 . S
N3066 Gd3046 2.622 . S
N3066 C3067 1.369 . S
N3066 C3068 1.338 . S
C3067 N3066 1.369 . S
C3067 C3071 1.415 . S
C3067 C3074 1.422 . S
C3068 H3059 0.929 . S
C3068 N3066 1.338 . S
C3068 C3070 1.378 . S
C3069 H3064 0.931 . S
C3069 C3070 1.348 . S
C3069 C3071 1.413 . S
C3070 H3065 0.930 . S
C3070 C3068 1.378 . S
C3070 C3069 1.348 . S
C3071 C3067 1.415 . S
C3071 C3069 1.413 . S
C3071 C3101 1.437 . S
H3072 C3101 0.929 . S
N3073 Gd3046 2.570 . S
N3073 C3074 1.359 . S
N3073 C3077 1.343 . S
C3074 C3067 1.422 . S
C3074 N3073 1.359 . S
C3074 C3076 1.421 . S
C3075 C3076 1.422 . S
C3075 C3078 1.321 . S
C3075 H3102 0.931 . S
C3076 C3074 1.421 . S
C3076 C3075 1.422 . S
C3076 C3100 1.417 . S
C3077 H3054 0.931 . S
C3077 N3073 1.343 . S
C3077 C3078 1.390 . S
C3078 H3056 0.930 . S
C3078 C3075 1.321 . S
C3078 C3077 1.390 . S
O3079 Gd3047 2.386 . S
O3079 C3091 1.265 . S
O3080 Gd3046 2.353 . S
O3080 C3091 1.242 . S
O3081 Gd3046 2.468 . S
O3081 C3099 1.263 . S
O3082 Gd3046 2.427 . S
O3082 C3099 1.252 . S
O3083 Gd3047 2.307 . S
O3083 C3092 1.261 . S
O3084 Gd3046 2.388 . S
O3084 C3092 1.252 . S
O3085 Gd3046 2.386 . S
O3085 C3103 1.265 . S
O3086 Gd3047 2.353 . S
O3086 C3103 1.242 . S
O3087 Gd3047 2.468 . S
O3087 C3111 1.263 . S
O3088 Gd3047 2.427 . S
O3088 C3111 1.252 . S
O3089 Gd3046 2.307 . S
O3089 C3104 1.261 . S
O3090 Gd3047 2.388 . S
O3090 C3104 1.252 . S
C3091 O3079 1.265 . S
C3091 O3080 1.242 . S
C3092 O3083 1.261 . S
C3092 O3084 1.252 . S
C3093 C3096 1.394 . S
C3093 C3098 1.370 . S
C3093 C3099 1.500 . S
C3094 C3097 1.383 . S
C3094 C3098 1.395 . S
C3095 C3096 1.396 . S
C3095 C3097 1.365 . S
C3095 H3112 0.929 . S
C3096 C3093 1.394 . S
C3096 C3095 1.396 . S
C3096 H3113 0.930 . S
C3097 C3094 1.383 . S
C3097 C3095 1.365 . S
C3097 H3114 0.931 . S
C3098 C3093 1.370 . S
C3098 C3094 1.395 . S
C3098 H3115 0.930 . S
C3099 Gd3046 2.805 . S
C3099 O3081 1.263 . S
C3099 O3082 1.252 . S
C3099 C3093 1.500 . S
C3100 H3062 0.930 . S
C3100 C3076 1.417 . S
C3100 C3101 1.329 . S
C3101 C3071 1.437 . S
C3101 H3072 0.929 . S
C3101 C3100 1.329 . S
H3102 C3075 0.931 . S
C3103 O3085 1.265 . S
C3103 O3086 1.242 . S
C3104 O3089 1.261 . S
C3104 O3090 1.252 . S
C3105 C3108 1.394 . S
C3105 C3110 1.370 . S
C3105 C3111 1.500 . S
C3106 C3109 1.383 . S
C3106 C3110 1.395 . S
C3107 C3108 1.396 . S
C3107 C3109 1.365 . S
C3107 H3116 0.929 . S
C3108 C3105 1.394 . S
C3108 C3107 1.396 . S
C3108 H3117 0.930 . S
C3109 C3106 1.383 . S
C3109 C3107 1.365 . S
C3109 H3118 0.931 . S
C3110 C3105 1.370 . S
C3110 C3106 1.395 . S
C3110 H3119 0.930 . S
C3111 Gd3047 2.805 . S
C3111 O3087 1.263 . S
C3111 O3088 1.252 . S
C3111 C3105 1.500 . S
H3112 C3095 0.929 . S
H3113 C3096 0.930 . S
H3114 C3097 0.931 . S
H3115 C3098 0.930 . S
H3116 C3107 0.929 . S
H3117 C3108 0.930 . S
H3118 C3109 0.931 . S
H3119 C3110 0.930 . S
C3120 C3122 1.422 . S
C3120 C3124 1.415 . S
C3120 N3126 1.369 . S
C3121 C3122 1.421 . S
C3121 C3123 1.417 . S
C3121 C3133 1.422 . S
C3122 C3120 1.422 . S
C3122 C3121 1.421 . S
C3122 N3132 1.359 . S
C3123 C3121 1.417 . S
C3123 C3125 1.329 . S
C3123 H3142 0.930 . S
C3124 C3120 1.415 . S
C3124 C3125 1.437 . S
C3124 C3128 1.413 . S
C3125 C3123 1.329 . S
C3125 C3124 1.437 . S
C3125 H3147 0.929 . S
N3126 C3120 1.369 . S
N3126 C3127 1.338 . S
N3126 Gd3131 2.622 . S
C3127 N3126 1.338 . S
C3127 C3129 1.378 . S
C3127 H3139 0.929 . S
C3128 C3124 1.413 . S
C3128 C3129 1.348 . S
C3128 H3144 0.931 . S
C3129 C3127 1.378 . S
C3129 C3128 1.348 . S
C3129 H3145 0.930 . S
Gd3130 N3150 2.622 . S
Gd3130 N3157 2.570 . S
Gd3130 O3164 2.353 . S
Gd3130 O3165 2.468 . S
Gd3130 O3166 2.427 . S
Gd3130 O3168 2.388 . S
Gd3130 O3169 2.386 . S
Gd3130 O3173 2.307 . S
Gd3130 C3183 2.805 . S
Gd3131 N3126 2.622 . S
Gd3131 N3132 2.570 . S
Gd3131 O3163 2.386 . S
Gd3131 O3167 2.307 . S
Gd3131 O3170 2.353 . S
Gd3131 O3171 2.468 . S
Gd3131 O3172 2.427 . S
Gd3131 O3174 2.388 . S
Gd3131 C3195 2.805 . S
N3132 C3122 1.359 . S
N3132 Gd3131 2.570 . S
N3132 C3134 1.343 . S
C3133 C3121 1.422 . S
C3133 C3135 1.321 . S
C3133 H3141 0.931 . S
C3134 N3132 1.343 . S
C3134 C3135 1.390 . S
C3134 H3136 0.931 . S
C3135 C3133 1.321 . S
C3135 C3134 1.390 . S
C3135 H3137 0.930 . S
H3136 C3134 0.931 . S
H3137 C3135 0.930 . S
H3138 C3161 0.931 . S
H3139 C3127 0.929 . S
H3140 C3162 0.930 . S
H3141 C3133 0.931 . S
H3142 C3123 0.930 . S
H3143 C3152 0.929 . S
H3144 C3128 0.931 . S
H3145 C3129 0.930 . S
H3146 C3184 0.930 . S
H3147 C3125 0.929 . S
H3148 C3153 0.931 . S
H3149 C3154 0.930 . S
N3150 Gd3130 2.622 . S
N3150 C3151 1.369 . S
N3150 C3152 1.338 . S
C3151 N3150 1.369 . S
C3151 C3155 1.415 . S
C3151 C3158 1.422 . S
C3152 H3143 0.929 . S
C3152 N3150 1.338 . S
C3152 C3154 1.378 . S
C3153 H3148 0.931 . S
C3153 C3154 1.348 . S
C3153 C3155 1.413 . S
C3154 H3149 0.930 . S
C3154 C3152 1.378 . S
C3154 C3153 1.348 . S
C3155 C3151 1.415 . S
C3155 C3153 1.413 . S
C3155 C3185 1.437 . S
H3156 C3185 0.929 . S
N3157 Gd3130 2.570 . S
N3157 C3158 1.359 . S
N3157 C3161 1.343 . S
C3158 C3151 1.422 . S
C3158 N3157 1.359 . S
C3158 C3160 1.421 . S
C3159 C3160 1.422 . S
C3159 C3162 1.321 . S
C3159 H3186 0.931 . S
C3160 C3158 1.421 . S
C3160 C3159 1.422 . S
C3160 C3184 1.417 . S
C3161 H3138 0.931 . S
C3161 N3157 1.343 . S
C3161 C3162 1.390 . S
C3162 H3140 0.930 . S
C3162 C3159 1.321 . S
C3162 C3161 1.390 . S
O3163 Gd3131 2.386 . S
O3163 C3175 1.265 . S
O3164 Gd3130 2.353 . S
O3164 C3175 1.242 . S
O3165 Gd3130 2.468 . S
O3165 C3183 1.263 . S
O3166 Gd3130 2.427 . S
O3166 C3183 1.252 . S
O3167 Gd3131 2.307 . S
O3167 C3176 1.261 . S
O3168 Gd3130 2.388 . S
O3168 C3176 1.252 . S
O3169 Gd3130 2.386 . S
O3169 C3187 1.265 . S
O3170 Gd3131 2.353 . S
O3170 C3187 1.242 . S
O3171 Gd3131 2.468 . S
O3171 C3195 1.263 . S
O3172 Gd3131 2.427 . S
O3172 C3195 1.252 . S
O3173 Gd3130 2.307 . S
O3173 C3188 1.261 . S
O3174 Gd3131 2.388 . S
O3174 C3188 1.252 . S
C3175 O3163 1.265 . S
C3175 O3164 1.242 . S
C3176 O3167 1.261 . S
C3176 O3168 1.252 . S
C3177 C3180 1.394 . S
C3177 C3182 1.370 . S
C3177 C3183 1.500 . S
C3178 C3181 1.383 . S
C3178 C3182 1.395 . S
C3179 C3180 1.396 . S
C3179 C3181 1.365 . S
C3179 H3196 0.929 . S
C3180 C3177 1.394 . S
C3180 C3179 1.396 . S
C3180 H3197 0.930 . S
C3181 C3178 1.383 . S
C3181 C3179 1.365 . S
C3181 H3198 0.931 . S
C3182 C3177 1.370 . S
C3182 C3178 1.395 . S
C3182 H3199 0.930 . S
C3183 Gd3130 2.805 . S
C3183 O3165 1.263 . S
C3183 O3166 1.252 . S
C3183 C3177 1.500 . S
C3184 H3146 0.930 . S
C3184 C3160 1.417 . S
C3184 C3185 1.329 . S
C3185 C3155 1.437 . S
C3185 H3156 0.929 . S
C3185 C3184 1.329 . S
H3186 C3159 0.931 . S
C3187 O3169 1.265 . S
C3187 O3170 1.242 . S
C3188 O3173 1.261 . S
C3188 O3174 1.252 . S
C3189 C3192 1.394 . S
C3189 C3194 1.370 . S
C3189 C3195 1.500 . S
C3190 C3193 1.383 . S
C3190 C3194 1.395 . S
C3191 C3192 1.396 . S
C3191 C3193 1.365 . S
C3191 H3200 0.929 . S
C3192 C3189 1.394 . S
C3192 C3191 1.396 . S
C3192 H3201 0.930 . S
C3193 C3190 1.383 . S
C3193 C3191 1.365 . S
C3193 H3202 0.931 . S
C3194 C3189 1.370 . S
C3194 C3190 1.395 . S
C3194 H3203 0.930 . S
C3195 Gd3131 2.805 . S
C3195 O3171 1.263 . S
C3195 O3172 1.252 . S
C3195 C3189 1.500 . S
H3196 C3179 0.929 . S
H3197 C3180 0.930 . S
H3198 C3181 0.931 . S
H3199 C3182 0.930 . S
H3200 C3191 0.929 . S
H3201 C3192 0.930 . S
H3202 C3193 0.931 . S
H3203 C3194 0.930 . S
C3204 C3206 1.422 . S
C3204 C3208 1.415 . S
C3204 N3210 1.369 . S
C3205 C3206 1.421 . S
C3205 C3207 1.417 . S
C3205 C3217 1.422 . S
C3206 C3204 1.422 . S
C3206 C3205 1.421 . S
C3206 N3216 1.359 . S
C3207 C3205 1.417 . S
C3207 C3209 1.329 . S
C3207 H3226 0.930 . S
C3208 C3204 1.415 . S
C3208 C3209 1.437 . S
C3208 C3212 1.413 . S
C3209 C3207 1.329 . S
C3209 C3208 1.437 . S
C3209 H3231 0.929 . S
N3210 C3204 1.369 . S
N3210 C3211 1.338 . S
N3210 Gd3215 2.622 . S
C3211 N3210 1.338 . S
C3211 C3213 1.378 . S
C3211 H3223 0.929 . S
C3212 C3208 1.413 . S
C3212 C3213 1.348 . S
C3212 H3228 0.931 . S
C3213 C3211 1.378 . S
C3213 C3212 1.348 . S
C3213 H3229 0.930 . S
Gd3214 N3234 2.622 . S
Gd3214 N3241 2.570 . S
Gd3214 O3248 2.353 . S
Gd3214 O3249 2.468 . S
Gd3214 O3250 2.427 . S
Gd3214 O3252 2.388 . S
Gd3214 O3253 2.386 . S
Gd3214 O3257 2.307 . S
Gd3214 C3267 2.805 . S
Gd3215 N3210 2.622 . S
Gd3215 N3216 2.570 . S
Gd3215 O3247 2.386 . S
Gd3215 O3251 2.307 . S
Gd3215 O3254 2.353 . S
Gd3215 O3255 2.468 . S
Gd3215 O3256 2.427 . S
Gd3215 O3258 2.388 . S
Gd3215 C3279 2.805 . S
N3216 C3206 1.359 . S
N3216 Gd3215 2.570 . S
N3216 C3218 1.343 . S
C3217 C3205 1.422 . S
C3217 C3219 1.321 . S
C3217 H3225 0.931 . S
C3218 N3216 1.343 . S
C3218 C3219 1.390 . S
C3218 H3220 0.931 . S
C3219 C3217 1.321 . S
C3219 C3218 1.390 . S
C3219 H3221 0.930 . S
H3220 C3218 0.931 . S
H3221 C3219 0.930 . S
H3222 C3245 0.931 . S
H3223 C3211 0.929 . S
H3224 C3246 0.930 . S
H3225 C3217 0.931 . S
H3226 C3207 0.930 . S
H3227 C3236 0.929 . S
H3228 C3212 0.931 . S
H3229 C3213 0.930 . S
H3230 C3268 0.930 . S
H3231 C3209 0.929 . S
H3232 C3237 0.931 . S
H3233 C3238 0.930 . S
N3234 Gd3214 2.622 . S
N3234 C3235 1.369 . S
N3234 C3236 1.338 . S
C3235 N3234 1.369 . S
C3235 C3239 1.415 . S
C3235 C3242 1.422 . S
C3236 H3227 0.929 . S
C3236 N3234 1.338 . S
C3236 C3238 1.378 . S
C3237 H3232 0.931 . S
C3237 C3238 1.348 . S
C3237 C3239 1.413 . S
C3238 H3233 0.930 . S
C3238 C3236 1.378 . S
C3238 C3237 1.348 . S
C3239 C3235 1.415 . S
C3239 C3237 1.413 . S
C3239 C3269 1.437 . S
H3240 C3269 0.929 . S
N3241 Gd3214 2.570 . S
N3241 C3242 1.359 . S
N3241 C3245 1.343 . S
C3242 C3235 1.422 . S
C3242 N3241 1.359 . S
C3242 C3244 1.421 . S
C3243 C3244 1.422 . S
C3243 C3246 1.321 . S
C3243 H3270 0.931 . S
C3244 C3242 1.421 . S
C3244 C3243 1.422 . S
C3244 C3268 1.417 . S
C3245 H3222 0.931 . S
C3245 N3241 1.343 . S
C3245 C3246 1.390 . S
C3246 H3224 0.930 . S
C3246 C3243 1.321 . S
C3246 C3245 1.390 . S
O3247 Gd3215 2.386 . S
O3247 C3259 1.265 . S
O3248 Gd3214 2.353 . S
O3248 C3259 1.242 . S
O3249 Gd3214 2.468 . S
O3249 C3267 1.263 . S
O3250 Gd3214 2.427 . S
O3250 C3267 1.252 . S
O3251 Gd3215 2.307 . S
O3251 C3260 1.261 . S
O3252 Gd3214 2.388 . S
O3252 C3260 1.252 . S
O3253 Gd3214 2.386 . S
O3253 C3271 1.265 . S
O3254 Gd3215 2.353 . S
O3254 C3271 1.242 . S
O3255 Gd3215 2.468 . S
O3255 C3279 1.263 . S
O3256 Gd3215 2.427 . S
O3256 C3279 1.252 . S
O3257 Gd3214 2.307 . S
O3257 C3272 1.261 . S
O3258 Gd3215 2.388 . S
O3258 C3272 1.252 . S
C3259 O3247 1.265 . S
C3259 O3248 1.242 . S
C3260 O3251 1.261 . S
C3260 O3252 1.252 . S
C3261 C3264 1.394 . S
C3261 C3266 1.370 . S
C3261 C3267 1.500 . S
C3262 C3265 1.383 . S
C3262 C3266 1.395 . S
C3263 C3264 1.396 . S
C3263 C3265 1.365 . S
C3263 H3280 0.929 . S
C3264 C3261 1.394 . S
C3264 C3263 1.396 . S
C3264 H3281 0.930 . S
C3265 C3262 1.383 . S
C3265 C3263 1.365 . S
C3265 H3282 0.931 . S
C3266 C3261 1.370 . S
C3266 C3262 1.395 . S
C3266 H3283 0.930 . S
C3267 Gd3214 2.805 . S
C3267 O3249 1.263 . S
C3267 O3250 1.252 . S
C3267 C3261 1.500 . S
C3268 H3230 0.930 . S
C3268 C3244 1.417 . S
C3268 C3269 1.329 . S
C3269 C3239 1.437 . S
C3269 H3240 0.929 . S
C3269 C3268 1.329 . S
H3270 C3243 0.931 . S
C3271 O3253 1.265 . S
C3271 O3254 1.242 . S
C3272 O3257 1.261 . S
C3272 O3258 1.252 . S
C3273 C3276 1.394 . S
C3273 C3278 1.370 . S
C3273 C3279 1.500 . S
C3274 C3277 1.383 . S
C3274 C3278 1.395 . S
C3275 C3276 1.396 . S
C3275 C3277 1.365 . S
C3275 H3284 0.929 . S
C3276 C3273 1.394 . S
C3276 C3275 1.396 . S
C3276 H3285 0.930 . S
C3277 C3274 1.383 . S
C3277 C3275 1.365 . S
C3277 H3286 0.931 . S
C3278 C3273 1.370 . S
C3278 C3274 1.395 . S
C3278 H3287 0.930 . S
C3279 Gd3215 2.805 . S
C3279 O3255 1.263 . S
C3279 O3256 1.252 . S
C3279 C3273 1.500 . S
H3280 C3263 0.929 . S
H3281 C3264 0.930 . S
H3282 C3265 0.931 . S
H3283 C3266 0.930 . S
H3284 C3275 0.929 . S
H3285 C3276 0.930 . S
H3286 C3277 0.931 . S
H3287 C3278 0.930 . S
C3288 C3290 1.422 . S
C3288 C3292 1.415 . S
C3288 N3294 1.369 . S
C3289 C3290 1.421 . S
C3289 C3291 1.417 . S
C3289 C3301 1.422 . S
C3290 C3288 1.422 . S
C3290 C3289 1.421 . S
C3290 N3300 1.359 . S
C3291 C3289 1.417 . S
C3291 C3293 1.329 . S
C3291 H3310 0.930 . S
C3292 C3288 1.415 . S
C3292 C3293 1.437 . S
C3292 C3296 1.413 . S
C3293 C3291 1.329 . S
C3293 C3292 1.437 . S
C3293 H3315 0.929 . S
N3294 C3288 1.369 . S
N3294 C3295 1.338 . S
N3294 Gd3299 2.622 . S
C3295 N3294 1.338 . S
C3295 C3297 1.378 . S
C3295 H3307 0.929 . S
C3296 C3292 1.413 . S
C3296 C3297 1.348 . S
C3296 H3312 0.931 . S
C3297 C3295 1.378 . S
C3297 C3296 1.348 . S
C3297 H3313 0.930 . S
Gd3298 N3318 2.622 . S
Gd3298 N3325 2.570 . S
Gd3298 O3332 2.353 . S
Gd3298 O3333 2.468 . S
Gd3298 O3334 2.427 . S
Gd3298 O3336 2.388 . S
Gd3298 O3337 2.386 . S
Gd3298 O3341 2.307 . S
Gd3298 C3351 2.805 . S
Gd3299 N3294 2.622 . S
Gd3299 N3300 2.570 . S
Gd3299 O3331 2.386 . S
Gd3299 O3335 2.307 . S
Gd3299 O3338 2.353 . S
Gd3299 O3339 2.468 . S
Gd3299 O3340 2.427 . S
Gd3299 O3342 2.388 . S
Gd3299 C3363 2.805 . S
N3300 C3290 1.359 . S
N3300 Gd3299 2.570 . S
N3300 C3302 1.343 . S
C3301 C3289 1.422 . S
C3301 C3303 1.321 . S
C3301 H3309 0.931 . S
C3302 N3300 1.343 . S
C3302 C3303 1.390 . S
C3302 H3304 0.931 . S
C3303 C3301 1.321 . S
C3303 C3302 1.390 . S
C3303 H3305 0.930 . S
H3304 C3302 0.931 . S
H3305 C3303 0.930 . S
H3306 C3329 0.931 . S
H3307 C3295 0.929 . S
H3308 C3330 0.930 . S
H3309 C3301 0.931 . S
H3310 C3291 0.930 . S
H3311 C3320 0.929 . S
H3312 C3296 0.931 . S
H3313 C3297 0.930 . S
H3314 C3352 0.930 . S
H3315 C3293 0.929 . S
H3316 C3321 0.931 . S
H3317 C3322 0.930 . S
N3318 Gd3298 2.622 . S
N3318 C3319 1.369 . S
N3318 C3320 1.338 . S
C3319 N3318 1.369 . S
C3319 C3323 1.415 . S
C3319 C3326 1.422 . S
C3320 H3311 0.929 . S
C3320 N3318 1.338 . S
C3320 C3322 1.378 . S
C3321 H3316 0.931 . S
C3321 C3322 1.348 . S
C3321 C3323 1.413 . S
C3322 H3317 0.930 . S
C3322 C3320 1.378 . S
C3322 C3321 1.348 . S
C3323 C3319 1.415 . S
C3323 C3321 1.413 . S
C3323 C3353 1.437 . S
H3324 C3353 0.929 . S
N3325 Gd3298 2.570 . S
N3325 C3326 1.359 . S
N3325 C3329 1.343 . S
C3326 C3319 1.422 . S
C3326 N3325 1.359 . S
C3326 C3328 1.421 . S
C3327 C3328 1.422 . S
C3327 C3330 1.321 . S
C3327 H3354 0.931 . S
C3328 C3326 1.421 . S
C3328 C3327 1.422 . S
C3328 C3352 1.417 . S
C3329 H3306 0.931 . S
C3329 N3325 1.343 . S
C3329 C3330 1.390 . S
C3330 H3308 0.930 . S
C3330 C3327 1.321 . S
C3330 C3329 1.390 . S
O3331 Gd3299 2.386 . S
O3331 C3343 1.265 . S
O3332 Gd3298 2.353 . S
O3332 C3343 1.242 . S
O3333 Gd3298 2.468 . S
O3333 C3351 1.263 . S
O3334 Gd3298 2.427 . S
O3334 C3351 1.252 . S
O3335 Gd3299 2.307 . S
O3335 C3344 1.261 . S
O3336 Gd3298 2.388 . S
O3336 C3344 1.252 . S
O3337 Gd3298 2.386 . S
O3337 C3355 1.265 . S
O3338 Gd3299 2.353 . S
O3338 C3355 1.242 . S
O3339 Gd3299 2.468 . S
O3339 C3363 1.263 . S
O3340 Gd3299 2.427 . S
O3340 C3363 1.252 . S
O3341 Gd3298 2.307 . S
O3341 C3356 1.261 . S
O3342 Gd3299 2.388 . S
O3342 C3356 1.252 . S
C3343 O3331 1.265 . S
C3343 O3332 1.242 . S
C3344 O3335 1.261 . S
C3344 O3336 1.252 . S
C3345 C3348 1.394 . S
C3345 C3350 1.370 . S
C3345 C3351 1.500 . S
C3346 C3349 1.383 . S
C3346 C3350 1.395 . S
C3347 C3348 1.396 . S
C3347 C3349 1.365 . S
C3347 H3364 0.929 . S
C3348 C3345 1.394 . S
C3348 C3347 1.396 . S
C3348 H3365 0.930 . S
C3349 C3346 1.383 . S
C3349 C3347 1.365 . S
C3349 H3366 0.931 . S
C3350 C3345 1.370 . S
C3350 C3346 1.395 . S
C3350 H3367 0.930 . S
C3351 Gd3298 2.805 . S
C3351 O3333 1.263 . S
C3351 O3334 1.252 . S
C3351 C3345 1.500 . S
C3352 H3314 0.930 . S
C3352 C3328 1.417 . S
C3352 C3353 1.329 . S
C3353 C3323 1.437 . S
C3353 H3324 0.929 . S
C3353 C3352 1.329 . S
H3354 C3327 0.931 . S
C3355 O3337 1.265 . S
C3355 O3338 1.242 . S
C3356 O3341 1.261 . S
C3356 O3342 1.252 . S
C3357 C3360 1.394 . S
C3357 C3362 1.370 . S
C3357 C3363 1.500 . S
C3358 C3361 1.383 . S
C3358 C3362 1.395 . S
C3359 C3360 1.396 . S
C3359 C3361 1.365 . S
C3359 H3368 0.929 . S
C3360 C3357 1.394 . S
C3360 C3359 1.396 . S
C3360 H3369 0.930 . S
C3361 C3358 1.383 . S
C3361 C3359 1.365 . S
C3361 H3370 0.931 . S
C3362 C3357 1.370 . S
C3362 C3358 1.395 . S
C3362 H3371 0.930 . S
C3363 Gd3299 2.805 . S
C3363 O3339 1.263 . S
C3363 O3340 1.252 . S
C3363 C3357 1.500 . S
H3364 C3347 0.929 . S
H3365 C3348 0.930 . S
H3366 C3349 0.931 . S
H3367 C3350 0.930 . S
H3368 C3359 0.929 . S
H3369 C3360 0.930 . S
H3370 C3361 0.931 . S
H3371 C3362 0.930 . S
C3372 C3374 1.422 1_556 S
C3372 C3376 1.415 . S
C3372 N3378 1.369 . S
C3373 C3374 1.421 . S
C3373 C3375 1.417 . S
C3373 C3385 1.422 . S
C3374 C3372 1.422 1_554 S
C3374 C3373 1.421 . S
C3374 N3384 1.359 . S
C3375 C3373 1.417 . S
C3375 C3377 1.329 1_554 S
C3375 H3394 0.930 . S
C3376 C3372 1.415 . S
C3376 C3377 1.437 . S
C3376 C3380 1.413 . S
C3377 C3375 1.329 1_556 S
C3377 C3376 1.437 . S
C3377 H3399 0.929 . S
N3378 C3372 1.369 . S
N3378 C3379 1.338 . S
N3378 Gd3383 2.622 1_556 S
C3379 N3378 1.338 . S
C3379 C3381 1.378 . S
C3379 H3391 0.929 . S
C3380 C3376 1.413 . S
C3380 C3381 1.348 . S
C3380 H3396 0.931 . S
C3381 C3379 1.378 . S
C3381 C3380 1.348 . S
C3381 H3397 0.930 . S
Gd3382 N3402 2.625 . S
Gd3382 N3409 2.579 . S
Gd3382 O3416 2.349 1_655 S
Gd3382 O3417 2.480 . S
Gd3382 O3418 2.437 . S
Gd3382 O3420 2.378 1_655 S
Gd3382 O3421 2.378 1_655 S
Gd3382 O3425 2.304 1_655 S
Gd3382 C3435 2.818 . S
Gd3383 N3378 2.622 1_554 S
Gd3383 N3384 2.570 . S
Gd3383 O3415 2.386 . S
Gd3383 O3419 2.307 . S
Gd3383 O3422 2.353 . S
Gd3383 O3423 2.468 . S
Gd3383 O3424 2.427 1_554 S
Gd3383 O3426 2.388 1_554 S
Gd3383 C3447 2.805 . S
N3384 C3374 1.359 . S
N3384 Gd3383 2.570 . S
N3384 C3386 1.343 . S
C3385 C3373 1.422 . S
C3385 C3387 1.321 . S
C3385 H3393 0.931 . S
C3386 N3384 1.343 . S
C3386 C3387 1.390 . S
C3386 H3388 0.931 . S
C3387 C3385 1.321 . S
C3387 C3386 1.390 . S
C3387 H3389 0.930 . S
H3388 C3386 0.931 . S
H3389 C3387 0.930 . S
H3390 C3413 0.931 1_556 S
H3391 C3379 0.929 . S
H3392 C3414 0.930 . S
H3393 C3385 0.931 . S
H3394 C3375 0.930 . S
H3395 C3404 0.929 1_455 S
H3396 C3380 0.931 . S
H3397 C3381 0.930 . S
H3398 C3436 0.930 . S
H3399 C3377 0.929 . S
H3400 C3405 0.931 . S
H3401 C3406 0.930 . S
N3402 Gd3382 2.625 . S
N3402 C3403 1.369 . S
N3402 C3404 1.338 . S
C3403 N3402 1.369 . S
C3403 C3407 1.415 . S
C3403 C3410 1.422 . S
C3404 H3395 0.929 1_655 S
C3404 N3402 1.338 . S
C3404 C3406 1.378 . S
C3405 H3400 0.931 . S
C3405 C3406 1.348 . S
C3405 C3407 1.413 . S
C3406 H3401 0.930 . S
C3406 C3404 1.378 . S
C3406 C3405 1.348 . S
C3407 C3403 1.415 . S
C3407 C3405 1.413 . S
C3407 C3437 1.437 . S
H3408 C3437 0.929 . S
N3409 Gd3382 2.579 . S
N3409 C3410 1.359 . S
N3409 C3413 1.343 . S
C3410 C3403 1.422 . S
C3410 N3409 1.359 . S
C3410 C3412 1.421 . S
C3411 C3412 1.422 . S
C3411 C3414 1.321 1_554 S
C3411 H3438 0.931 . S
C3412 C3410 1.421 . S
C3412 C3411 1.422 . S
C3412 C3436 1.417 . S
C3413 H3390 0.931 1_554 S
C3413 N3409 1.343 . S
C3413 C3414 1.390 1_554 S
C3414 H3392 0.930 . S
C3414 C3411 1.321 1_556 S
C3414 C3413 1.390 1_556 S
O3415 Gd3383 2.386 . S
O3415 C3427 1.265 . S
O3416 Gd3382 2.349 1_455 S
O3416 C3427 1.242 . S
O3417 Gd3382 2.480 . S
O3417 C3435 1.263 . S
O3418 Gd3382 2.437 . S
O3418 C3435 1.252 . S
O3419 Gd3383 2.307 . S
O3419 C3428 1.261 . S
O3420 Gd3382 2.378 1_455 S
O3420 C3428 1.252 . S
O3421 Gd3382 2.378 1_455 S
O3421 C3439 1.265 . S
O3422 Gd3383 2.353 . S
O3422 C3439 1.242 . S
O3423 Gd3383 2.468 . S
O3423 C3447 1.263 . S
O3424 Gd3383 2.427 1_556 S
O3424 C3447 1.252 1_556 S
O3425 Gd3382 2.304 1_455 S
O3425 C3440 1.261 1_554 S
O3426 Gd3383 2.388 1_556 S
O3426 C3440 1.252 . S
C3427 O3415 1.265 . S
C3427 O3416 1.242 . S
C3428 O3419 1.261 . S
C3428 O3420 1.252 . S
C3429 C3432 1.394 . S
C3429 C3434 1.370 . S
C3429 C3435 1.500 . S
C3430 C3433 1.383 . S
C3430 C3434 1.395 . S
C3431 C3432 1.396 . S
C3431 C3433 1.365 . S
C3431 H3448 0.929 . S
C3432 C3429 1.394 . S
C3432 C3431 1.396 . S
C3432 H3449 0.930 . S
C3433 C3430 1.383 . S
C3433 C3431 1.365 . S
C3433 H3450 0.931 . S
C3434 C3429 1.370 . S
C3434 C3430 1.395 . S
C3434 H3451 0.930 . S
C3435 Gd3382 2.818 . S
C3435 O3417 1.263 . S
C3435 O3418 1.252 . S
C3435 C3429 1.500 . S
C3436 H3398 0.930 . S
C3436 C3412 1.417 . S
C3436 C3437 1.329 . S
C3437 C3407 1.437 . S
C3437 H3408 0.929 . S
C3437 C3436 1.329 . S
H3438 C3411 0.931 . S
C3439 O3421 1.265 . S
C3439 O3422 1.242 . S
C3440 O3425 1.261 1_556 S
C3440 O3426 1.252 . S
C3441 C3444 1.394 . S
C3441 C3446 1.370 1_556 S
C3441 C3447 1.500 1_556 S
C3442 C3445 1.383 1_554 S
C3442 C3446 1.395 . S
C3443 C3444 1.396 . S
C3443 C3445 1.365 . S
C3443 H3452 0.929 . S
C3444 C3441 1.394 . S
C3444 C3443 1.396 . S
C3444 H3453 0.930 . S
C3445 C3442 1.383 1_556 S
C3445 C3443 1.365 . S
C3445 H3454 0.931 . S
C3446 C3441 1.370 1_554 S
C3446 C3442 1.395 . S
C3446 H3455 0.930 . S
C3447 Gd3383 2.805 . S
C3447 O3423 1.263 . S
C3447 O3424 1.252 1_554 S
C3447 C3441 1.500 1_554 S
H3448 C3431 0.929 . S
H3449 C3432 0.930 . S
H3450 C3433 0.931 . S
H3451 C3434 0.930 . S
H3452 C3443 0.929 . S
H3453 C3444 0.930 . S
H3454 C3445 0.931 . S
H3455 C3446 0.930 . S
H3456 C3468 0.930 . S
H3457 C3470 0.930 . S
H3458 C3471 0.930 . S
H3459 C3475 0.959 . S
H3460 C3475 0.959 . S
H3461 C3475 0.961 . S
H3462 C3476 0.960 . S
H3463 C3476 0.961 . S
H3464 C3476 0.959 . S
H3465 C3479 0.929 . S
H3466 C3480 0.931 . S
H3467 C3482 0.930 . S
C3468 H3456 0.930 . S
C3468 C3469 1.399 1_655 S
C3468 C3473 1.399 1_655 S
C3469 C3468 1.399 1_455 S
C3469 C3470 1.376 1_556 S
C3470 H3457 0.930 . S
C3470 C3469 1.376 1_554 S
C3470 C3471 1.388 . S
C3471 H3458 0.930 . S
C3471 C3470 1.388 . S
C3471 C3472 1.390 . S
C3472 C3471 1.390 . S
C3472 C3473 1.394 1_554 S
C3472 C3478 1.465 . S
C3473 C3468 1.399 1_455 S
C3473 C3472 1.394 1_556 S
C3473 C3474 1.516 . S
C3474 C3473 1.516 . S
C3474 C3475 1.502 1_455 S
C3474 C3476 1.561 . S
C3474 C3477 1.526 . S
C3475 H3459 0.959 . S
C3475 H3460 0.959 . S
C3475 H3461 0.961 . S
C3475 C3474 1.502 1_655 S
C3476 H3462 0.960 . S
C3476 H3463 0.961 . S
C3476 H3464 0.959 . S
C3476 C3474 1.561 . S
C3477 C3474 1.526 . S
C3477 C3478 1.396 1_556 S
C3477 C3482 1.390 . S
C3478 C3472 1.465 . S
C3478 C3477 1.396 1_554 S
C3478 C3479 1.399 . S
C3479 H3465 0.929 . S
C3479 C3478 1.399 . S
C3479 C3480 1.385 . S
C3480 H3466 0.931 . S
C3480 C3479 1.385 . S
C3480 C3481 1.389 . S
C3481 C3480 1.389 . S
C3481 C3482 1.387 1_554 S
C3482 H3467 0.930 . S
C3482 C3477 1.390 . S
C3482 C3481 1.387 1_556 S
H3483 C3495 0.930 . S
H3484 C3497 0.930 . S
H3485 C3498 0.930 . S
H3486 C3502 0.959 . S
H3487 C3502 0.959 . S
H3488 C3502 0.961 . S
H3489 C3503 0.960 . S
H3490 C3503 0.961 . S
H3491 C3503 0.959 . S
H3492 C3506 0.929 . S
H3493 C3507 0.931 . S
H3494 C3509 0.930 . S
C3495 H3483 0.930 . S
C3495 C3496 1.399 . S
C3495 C3500 1.399 . S
C3496 C3495 1.399 . S
C3496 C3497 1.376 . S
C3497 H3484 0.930 . S
C3497 C3496 1.376 . S
C3497 C3498 1.388 . S
C3498 H3485 0.930 . S
C3498 C3497 1.388 . S
C3498 C3499 1.390 . S
C3499 C3498 1.390 . S
C3499 C3500 1.394 . S
C3499 C3505 1.465 . S
C3500 C3495 1.399 . S
C3500 C3499 1.394 . S
C3500 C3501 1.516 . S
C3501 C3500 1.516 . S
C3501 C3502 1.502 . S
C3501 C3503 1.561 . S
C3501 C3504 1.526 . S
C3502 H3486 0.959 . S
C3502 H3487 0.959 . S
C3502 H3488 0.961 . S
C3502 C3501 1.502 . S
C3503 H3489 0.960 . S
C3503 H3490 0.961 . S
C3503 H3491 0.959 . S
C3503 C3501 1.561 . S
C3504 C3501 1.526 . S
C3504 C3505 1.396 . S
C3504 C3509 1.390 . S
C3505 C3499 1.465 . S
C3505 C3504 1.396 . S
C3505 C3506 1.399 . S
C3506 H3492 0.929 . S
C3506 C3505 1.399 . S
C3506 C3507 1.385 . S
C3507 H3493 0.931 . S
C3507 C3506 1.385 . S
C3507 C3508 1.389 . S
C3508 C3507 1.389 . S
C3508 C3509 1.387 . S
C3509 H3494 0.930 . S
C3509 C3504 1.390 . S
C3509 C3508 1.387 . S
H3510 C3522 0.930 . S
H3511 C3524 0.930 . S
H3512 C3525 0.930 . S
H3513 C3529 0.959 . S
H3514 C3529 0.959 . S
H3515 C3529 0.961 . S
H3516 C3530 0.960 . S
H3517 C3530 0.961 . S
H3518 C3530 0.959 . S
H3519 C3533 0.929 . S
H3520 C3534 0.931 . S
H3521 C3536 0.930 . S
C3522 H3510 0.930 . S
C3522 C3523 1.399 . S
C3522 C3527 1.399 . S
C3523 C3522 1.399 . S
C3523 C3524 1.376 . S
C3524 H3511 0.930 . S
C3524 C3523 1.376 . S
C3524 C3525 1.388 . S
C3525 H3512 0.930 . S
C3525 C3524 1.388 . S
C3525 C3526 1.390 . S
C3526 C3525 1.390 . S
C3526 C3527 1.394 . S
C3526 C3532 1.465 . S
C3527 C3522 1.399 . S
C3527 C3526 1.394 . S
C3527 C3528 1.516 . S
C3528 C3527 1.516 . S
C3528 C3529 1.502 . S
C3528 C3530 1.561 . S
C3528 C3531 1.526 . S
C3529 H3513 0.959 . S
C3529 H3514 0.959 . S
C3529 H3515 0.961 . S
C3529 C3528 1.502 . S
C3530 H3516 0.960 . S
C3530 H3517 0.961 . S
C3530 H3518 0.959 . S
C3530 C3528 1.561 . S
C3531 C3528 1.526 . S
C3531 C3532 1.396 . S
C3531 C3536 1.390 . S
C3532 C3526 1.465 . S
C3532 C3531 1.396 . S
C3532 C3533 1.399 . S
C3533 H3519 0.929 . S
C3533 C3532 1.399 . S
C3533 C3534 1.385 . S
C3534 H3520 0.931 . S
C3534 C3533 1.385 . S
C3534 C3535 1.389 . S
C3535 C3534 1.389 . S
C3535 C3536 1.387 . S
C3536 H3521 0.930 . S
C3536 C3531 1.390 . S
C3536 C3535 1.387 . S
H3537 C3549 0.930 . S
H3538 C3551 0.930 . S
H3539 C3552 0.930 . S
H3540 C3556 0.959 . S
H3541 C3556 0.959 . S
H3542 C3556 0.961 . S
H3543 C3557 0.960 . S
H3544 C3557 0.961 . S
H3545 C3557 0.959 . S
H3546 C3560 0.929 . S
H3547 C3561 0.931 . S
H3548 C3563 0.930 . S
C3549 H3537 0.930 . S
C3549 C3550 1.399 . S
C3549 C3554 1.399 . S
C3550 C3549 1.399 . S
C3550 C3551 1.376 . S
C3551 H3538 0.930 . S
C3551 C3550 1.376 . S
C3551 C3552 1.388 . S
C3552 H3539 0.930 . S
C3552 C3551 1.388 . S
C3552 C3553 1.390 . S
C3553 C3552 1.390 . S
C3553 C3554 1.394 . S
C3553 C3559 1.465 . S
C3554 C3549 1.399 . S
C3554 C3553 1.394 . S
C3554 C3555 1.516 . S
C3555 C3554 1.516 . S
C3555 C3556 1.502 . S
C3555 C3557 1.561 . S
C3555 C3558 1.526 . S
C3556 H3540 0.959 . S
C3556 H3541 0.959 . S
C3556 H3542 0.961 . S
C3556 C3555 1.502 . S
C3557 H3543 0.960 . S
C3557 H3544 0.961 . S
C3557 H3545 0.959 . S
C3557 C3555 1.561 . S
C3558 C3555 1.526 . S
C3558 C3559 1.396 . S
C3558 C3563 1.390 . S
C3559 C3553 1.465 . S
C3559 C3558 1.396 . S
C3559 C3560 1.399 . S
C3560 H3546 0.929 . S
C3560 C3559 1.399 . S
C3560 C3561 1.385 . S
C3561 H3547 0.931 . S
C3561 C3560 1.385 . S
C3561 C3562 1.389 . S
C3562 C3561 1.389 . S
C3562 C3563 1.387 . S
C3563 H3548 0.930 . S
C3563 C3558 1.390 . S
C3563 C3562 1.387 . S
H3564 C3576 0.930 . S
H3565 C3578 0.930 . S
H3566 C3579 0.930 . S
H3567 C3583 0.959 . S
H3568 C3583 0.959 . S
H3569 C3583 0.961 . S
H3570 C3584 0.960 . S
H3571 C3584 0.961 . S
H3572 C3584 0.959 . S
H3573 C3587 0.929 . S
H3574 C3588 0.931 . S
H3575 C3590 0.930 . S
C3576 H3564 0.930 . S
C3576 C3577 1.399 . S
C3576 C3581 1.399 . S
C3577 C3576 1.399 . S
C3577 C3578 1.376 . S
C3578 H3565 0.930 . S
C3578 C3577 1.376 . S
C3578 C3579 1.388 . S
C3579 H3566 0.930 . S
C3579 C3578 1.388 . S
C3579 C3580 1.390 . S
C3580 C3579 1.390 . S
C3580 C3581 1.394 . S
C3580 C3586 1.465 . S
C3581 C3576 1.399 . S
C3581 C3580 1.394 . S
C3581 C3582 1.516 . S
C3582 C3581 1.516 . S
C3582 C3583 1.502 . S
C3582 C3584 1.561 . S
C3582 C3585 1.526 . S
C3583 H3567 0.959 . S
C3583 H3568 0.959 . S
C3583 H3569 0.961 . S
C3583 C3582 1.502 . S
C3584 H3570 0.960 . S
C3584 H3571 0.961 . S
C3584 H3572 0.959 . S
C3584 C3582 1.561 . S
C3585 C3582 1.526 . S
C3585 C3586 1.396 . S
C3585 C3590 1.390 . S
C3586 C3580 1.465 . S
C3586 C3585 1.396 . S
C3586 C3587 1.399 . S
C3587 H3573 0.929 . S
C3587 C3586 1.399 . S
C3587 C3588 1.385 . S
C3588 H3574 0.931 . S
C3588 C3587 1.385 . S
C3588 C3589 1.389 . S
C3589 C3588 1.389 . S
C3589 C3590 1.387 . S
C3590 H3575 0.930 . S
C3590 C3585 1.390 . S
C3590 C3589 1.387 . S
H3591 C3603 0.930 . S
H3592 C3605 0.930 . S
H3593 C3606 0.930 . S
H3594 C3610 0.959 . S
H3595 C3610 0.959 . S
H3596 C3610 0.961 . S
H3597 C3611 0.960 . S
H3598 C3611 0.961 . S
H3599 C3611 0.959 . S
H3600 C3614 0.929 . S
H3601 C3615 0.931 . S
H3602 C3617 0.930 . S
C3603 H3591 0.930 . S
C3603 C3604 1.399 . S
C3603 C3608 1.399 . S
C3604 C3603 1.399 . S
C3604 C3605 1.376 . S
C3605 H3592 0.930 . S
C3605 C3604 1.376 . S
C3605 C3606 1.388 . S
C3606 H3593 0.930 . S
C3606 C3605 1.388 . S
C3606 C3607 1.390 . S
C3607 C3606 1.390 . S
C3607 C3608 1.394 . S
C3607 C3613 1.465 . S
C3608 C3603 1.399 . S
C3608 C3607 1.394 . S
C3608 C3609 1.516 . S
C3609 C3608 1.516 . S
C3609 C3610 1.502 . S
C3609 C3611 1.561 . S
C3609 C3612 1.526 . S
C3610 H3594 0.959 . S
C3610 H3595 0.959 . S
C3610 H3596 0.961 . S
C3610 C3609 1.502 . S
C3611 H3597 0.960 . S
C3611 H3598 0.961 . S
C3611 H3599 0.959 . S
C3611 C3609 1.561 . S
C3612 C3609 1.526 . S
C3612 C3613 1.396 . S
C3612 C3617 1.390 . S
C3613 C3607 1.465 . S
C3613 C3612 1.396 . S
C3613 C3614 1.399 . S
C3614 H3600 0.929 . S
C3614 C3613 1.399 . S
C3614 C3615 1.385 . S
C3615 H3601 0.931 . S
C3615 C3614 1.385 . S
C3615 C3616 1.389 . S
C3616 C3615 1.389 . S
C3616 C3617 1.387 . S
C3617 H3602 0.930 . S
C3617 C3612 1.390 . S
C3617 C3616 1.387 . S
H3618 C3630 0.930 . S
H3619 C3632 0.930 . S
H3620 C3633 0.930 . S
H3621 C3637 0.959 . S
H3622 C3637 0.959 . S
H3623 C3637 0.961 . S
H3624 C3638 0.960 . S
H3625 C3638 0.961 . S
H3626 C3638 0.959 . S
H3627 C3641 0.929 . S
H3628 C3642 0.931 . S
H3629 C3644 0.930 . S
C3630 H3618 0.930 . S
C3630 C3631 1.399 . S
C3630 C3635 1.399 . S
C3631 C3630 1.399 . S
C3631 C3632 1.376 . S
C3632 H3619 0.930 . S
C3632 C3631 1.376 . S
C3632 C3633 1.388 . S
C3633 H3620 0.930 . S
C3633 C3632 1.388 . S
C3633 C3634 1.390 . S
C3634 C3633 1.390 . S
C3634 C3635 1.394 . S
C3634 C3640 1.465 . S
C3635 C3630 1.399 . S
C3635 C3634 1.394 . S
C3635 C3636 1.516 . S
C3636 C3635 1.516 . S
C3636 C3637 1.502 . S
C3636 C3638 1.561 . S
C3636 C3639 1.526 . S
C3637 H3621 0.959 . S
C3637 H3622 0.959 . S
C3637 H3623 0.961 . S
C3637 C3636 1.502 . S
C3638 H3624 0.960 . S
C3638 H3625 0.961 . S
C3638 H3626 0.959 . S
C3638 C3636 1.561 . S
C3639 C3636 1.526 . S
C3639 C3640 1.396 . S
C3639 C3644 1.390 . S
C3640 C3634 1.465 . S
C3640 C3639 1.396 . S
C3640 C3641 1.399 . S
C3641 H3627 0.929 . S
C3641 C3640 1.399 . S
C3641 C3642 1.385 . S
C3642 H3628 0.931 . S
C3642 C3641 1.385 . S
C3642 C3643 1.389 . S
C3643 C3642 1.389 . S
C3643 C3644 1.387 . S
C3644 H3629 0.930 . S
C3644 C3639 1.390 . S
C3644 C3643 1.387 . S
H3645 C3657 0.930 . S
H3646 C3659 0.930 . S
H3647 C3660 0.930 . S
H3648 C3664 0.959 . S
H3649 C3664 0.959 . S
H3650 C3664 0.961 . S
H3651 C3665 0.960 . S
H3652 C3665 0.961 . S
H3653 C3665 0.959 . S
H3654 C3668 0.929 . S
H3655 C3669 0.931 . S
H3656 C3671 0.930 . S
C3657 H3645 0.930 . S
C3657 C3658 1.399 . S
C3657 C3662 1.399 . S
C3658 C3657 1.399 . S
C3658 C3659 1.376 . S
C3659 H3646 0.930 . S
C3659 C3658 1.376 . S
C3659 C3660 1.388 . S
C3660 H3647 0.930 . S
C3660 C3659 1.388 . S
C3660 C3661 1.390 . S
C3661 C3660 1.390 . S
C3661 C3662 1.394 . S
C3661 C3667 1.465 . S
C3662 C3657 1.399 . S
C3662 C3661 1.394 . S
C3662 C3663 1.516 . S
C3663 C3662 1.516 . S
C3663 C3664 1.502 . S
C3663 C3665 1.561 . S
C3663 C3666 1.526 . S
C3664 H3648 0.959 . S
C3664 H3649 0.959 . S
C3664 H3650 0.961 . S
C3664 C3663 1.502 . S
C3665 H3651 0.960 . S
C3665 H3652 0.961 . S
C3665 H3653 0.959 . S
C3665 C3663 1.561 . S
C3666 C3663 1.526 . S
C3666 C3667 1.396 . S
C3666 C3671 1.390 . S
C3667 C3661 1.465 . S
C3667 C3666 1.396 . S
C3667 C3668 1.399 . S
C3668 H3654 0.929 . S
C3668 C3667 1.399 . S
C3668 C3669 1.385 . S
C3669 H3655 0.931 . S
C3669 C3668 1.385 . S
C3669 C3670 1.389 . S
C3670 C3669 1.389 . S
C3670 C3671 1.387 . S
C3671 H3656 0.930 . S
C3671 C3666 1.390 . S
C3671 C3670 1.387 . S
H3672 C3684 0.930 1_565 S
H3673 C3686 0.930 . S
H3674 C3687 0.930 . S
H3675 C3691 0.959 . S
H3676 C3691 0.959 . S
H3677 C3691 0.961 1_655 S
H3678 C3692 0.960 . S
H3679 C3692 0.961 . S
H3680 C3692 0.959 . S
H3681 C3695 0.929 . S
H3682 C3696 0.931 . S
H3683 C3698 0.950 . S
C3684 H3672 0.930 1_545 S
C3684 C3685 1.399 . S
C3684 C3689 1.399 . S
C3685 C3684 1.399 . S
C3685 C3686 1.376 . S
C3686 H3673 0.930 . S
C3686 C3685 1.376 . S
C3686 C3687 1.388 . S
C3687 H3674 0.930 . S
C3687 C3686 1.388 . S
C3687 C3688 1.390 . S
C3688 C3687 1.390 . S
C3688 C3689 1.394 . S
C3688 C3694 1.465 . S
C3689 C3684 1.399 . S
C3689 C3688 1.394 . S
C3689 C3690 1.516 . S
C3690 C3689 1.516 . S
C3690 C3691 1.501 1_645 S
C3690 C3692 1.561 1_545 S
C3690 C3693 1.526 . S
C3691 H3675 0.959 . S
C3691 H3676 0.959 . S
C3691 H3677 0.961 1_455 S
C3691 C3690 1.501 1_465 S
C3692 H3678 0.960 . S
C3692 H3679 0.961 . S
C3692 H3680 0.959 . S
C3692 C3690 1.561 1_565 S
C3693 C3690 1.526 . S
C3693 C3694 1.396 . S
C3693 C3698 1.363 1_655 S
C3694 C3688 1.465 . S
C3694 C3693 1.396 . S
C3694 C3695 1.399 . S
C3695 H3681 0.929 . S
C3695 C3694 1.399 . S
C3695 C3696 1.385 1_655 S
C3696 H3682 0.931 . S
C3696 C3695 1.385 1_455 S
C3696 C3697 1.389 . S
C3697 C3696 1.389 . S
C3697 C3698 1.397 . S
C3698 H3683 0.950 . S
C3698 C3693 1.363 1_455 S
C3698 C3697 1.397 . S
H3699 C3711 0.930 . S
H3700 C3713 0.930 . S
H3701 C3714 0.930 . S
H3702 C3718 0.959 . S
H3703 C3718 0.959 . S
H3704 C3718 0.961 . S
H3705 C3719 0.960 . S
H3706 C3719 0.961 . S
H3707 C3719 0.959 . S
H3708 C3722 0.929 . S
H3709 C3723 0.931 . S
H3710 C3725 0.930 . S
C3711 H3699 0.930 . S
C3711 C3712 1.399 . S
C3711 C3716 1.399 . S
C3712 C3711 1.399 . S
C3712 C3713 1.376 . S
C3713 H3700 0.930 . S
C3713 C3712 1.376 . S
C3713 C3714 1.388 . S
C3714 H3701 0.930 . S
C3714 C3713 1.388 . S
C3714 C3715 1.390 . S
C3715 C3714 1.390 . S
C3715 C3716 1.394 . S
C3715 C3721 1.465 . S
C3716 C3711 1.399 . S
C3716 C3715 1.394 . S
C3716 C3717 1.516 . S
C3717 C3716 1.516 . S
C3717 C3718 1.502 . S
C3717 C3719 1.561 . S
C3717 C3720 1.526 . S
C3718 H3702 0.959 . S
C3718 H3703 0.959 . S
C3718 H3704 0.961 . S
C3718 C3717 1.502 . S
C3719 H3705 0.960 . S
C3719 H3706 0.961 . S
C3719 H3707 0.959 . S
C3719 C3717 1.561 . S
C3720 C3717 1.526 . S
C3720 C3721 1.396 . S
C3720 C3725 1.390 . S
C3721 C3715 1.465 . S
C3721 C3720 1.396 . S
C3721 C3722 1.399 . S
C3722 H3708 0.929 . S
C3722 C3721 1.399 . S
C3722 C3723 1.385 . S
C3723 H3709 0.931 . S
C3723 C3722 1.385 . S
C3723 C3724 1.389 . S
C3724 C3723 1.389 . S
C3724 C3725 1.387 . S
C3725 H3710 0.930 . S
C3725 C3720 1.390 . S
C3725 C3724 1.387 . S
H3726 C3738 0.930 . S
H3727 C3740 0.930 . S
H3728 C3741 0.930 1_565 S
H3729 C3745 0.959 . S
H3730 C3745 0.959 . S
H3731 C3745 0.961 . S
H3732 C3746 0.960 . S
H3733 C3746 0.961 . S
H3734 C3746 0.959 . S
H3735 C3749 0.929 1_565 S
H3736 C3750 0.931 1_565 S
H3737 C3752 0.930 . S
C3738 H3726 0.930 . S
C3738 C3739 1.399 . S
C3738 C3743 1.399 . S
C3739 C3738 1.399 . S
C3739 C3740 1.376 . S
C3740 H3727 0.930 . S
C3740 C3739 1.376 . S
C3740 C3741 1.388 . S
C3741 H3728 0.930 1_545 S
C3741 C3740 1.388 . S
C3741 C3742 1.390 . S
C3742 C3741 1.390 . S
C3742 C3743 1.394 . S
C3742 C3748 1.465 . S
C3743 C3738 1.399 . S
C3743 C3742 1.394 . S
C3743 C3744 1.516 . S
C3744 C3743 1.516 . S
C3744 C3745 1.502 . S
C3744 C3746 1.561 . S
C3744 C3747 1.526 . S
C3745 H3729 0.959 . S
C3745 H3730 0.959 . S
C3745 H3731 0.961 . S
C3745 C3744 1.502 . S
C3746 H3732 0.960 . S
C3746 H3733 0.961 . S
C3746 H3734 0.959 . S
C3746 C3744 1.561 . S
C3747 C3744 1.526 . S
C3747 C3748 1.396 . S
C3747 C3752 1.390 . S
C3748 C3742 1.465 . S
C3748 C3747 1.396 . S
C3748 C3749 1.399 . S
C3749 H3735 0.929 1_545 S
C3749 C3748 1.399 . S
C3749 C3750 1.385 . S
C3750 H3736 0.931 1_545 S
C3750 C3749 1.385 . S
C3750 C3751 1.389 . S
C3751 C3750 1.389 . S
C3751 C3752 1.387 . S
C3752 H3737 0.930 . S
C3752 C3747 1.390 . S
C3752 C3751 1.387 . S
H3753 C3765 0.930 . S
H3754 C3767 0.930 . S
H3755 C3768 0.930 . S
H3756 C3772 0.959 . S
H3757 C3772 0.959 . S
H3758 C3772 0.961 . S
H3759 C3773 0.960 . S
H3760 C3773 0.961 . S
H3761 C3773 0.959 . S
H3762 C3776 0.929 . S
H3763 C3777 0.931 . S
H3764 C3779 0.930 . S
C3765 H3753 0.930 . S
C3765 C3766 1.399 . S
C3765 C3770 1.399 . S
C3766 C3765 1.399 . S
C3766 C3767 1.376 . S
C3767 H3754 0.930 . S
C3767 C3766 1.376 . S
C3767 C3768 1.388 . S
C3768 H3755 0.930 . S
C3768 C3767 1.388 . S
C3768 C3769 1.390 . S
C3769 C3768 1.390 . S
C3769 C3770 1.394 . S
C3769 C3775 1.465 . S
C3770 C3765 1.399 . S
C3770 C3769 1.394 . S
C3770 C3771 1.516 . S
C3771 C3770 1.516 . S
C3771 C3772 1.502 . S
C3771 C3773 1.561 . S
C3771 C3774 1.526 . S
C3772 H3756 0.959 . S
C3772 H3757 0.959 . S
C3772 H3758 0.961 . S
C3772 C3771 1.502 . S
C3773 H3759 0.960 . S
C3773 H3760 0.961 . S
C3773 H3761 0.959 . S
C3773 C3771 1.561 . S
C3774 C3771 1.526 . S
C3774 C3775 1.396 . S
C3774 C3779 1.390 . S
C3775 C3769 1.465 . S
C3775 C3774 1.396 . S
C3775 C3776 1.399 . S
C3776 H3762 0.929 . S
C3776 C3775 1.399 . S
C3776 C3777 1.385 . S
C3777 H3763 0.931 . S
C3777 C3776 1.385 . S
C3777 C3778 1.389 . S
C3778 C3777 1.389 . S
C3778 C3779 1.387 . S
C3779 H3764 0.930 . S
C3779 C3774 1.390 . S
C3779 C3778 1.387 . S
H3780 C3792 0.930 . S
H3781 C3794 0.930 1_565 S
H3782 C3795 0.872 1_565 S
H3783 C3799 0.959 . S
H3784 C3799 0.959 . S
H3785 C3799 0.961 . S
H3786 C3800 0.960 . S
H3787 C3800 0.961 . S
H3788 C3800 0.959 . S
H3789 C3803 0.929 . S
H3790 C3804 0.931 1_565 S
H3791 C3806 0.930 . S
C3792 H3780 0.930 . S
C3792 C3793 1.399 . S
C3792 C3797 1.399 . S
C3793 C3792 1.399 . S
C3793 C3794 1.376 . S
C3794 H3781 0.930 1_545 S
C3794 C3793 1.376 . S
C3794 C3795 1.414 . S
C3795 H3782 0.872 1_545 S
C3795 C3794 1.414 . S
C3795 C3796 1.426 . S
C3796 C3795 1.426 . S
C3796 C3797 1.394 . S
C3796 C3802 1.465 . S
C3797 C3792 1.399 . S
C3797 C3796 1.394 . S
C3797 C3798 1.516 1_655 S
C3798 C3797 1.516 1_455 S
C3798 C3799 1.502 . S
C3798 C3800 1.561 1_455 S
C3798 C3801 1.526 . S
C3799 H3783 0.959 . S
C3799 H3784 0.959 . S
C3799 H3785 0.961 . S
C3799 C3798 1.502 . S
C3800 H3786 0.960 . S
C3800 H3787 0.961 . S
C3800 H3788 0.959 . S
C3800 C3798 1.561 1_655 S
C3801 C3798 1.526 . S
C3801 C3802 1.396 1_455 S
C3801 C3806 1.390 . S
C3802 C3796 1.465 . S
C3802 C3801 1.396 1_655 S
C3802 C3803 1.399 1_545 S
C3803 H3789 0.929 . S
C3803 C3802 1.399 1_565 S
C3803 C3804 1.385 1_565 S
C3804 H3790 0.931 1_545 S
C3804 C3803 1.385 1_545 S
C3804 C3805 1.389 1_655 S
C3805 C3804 1.389 1_455 S
C3805 C3806 1.387 . S
C3806 H3791 0.930 . S
C3806 C3801 1.390 . S
C3806 C3805 1.387 . S
H3807 C3819 0.930 . S
H3808 C3821 0.930 . S
H3809 C3822 0.930 . S
H3810 C3826 0.959 . S
H3811 C3826 0.959 . S
H3812 C3826 0.961 . S
H3813 C3827 0.960 . S
H3814 C3827 0.961 . S
H3815 C3827 0.959 . S
H3816 C3830 0.929 . S
H3817 C3831 0.931 . S
H3818 C3833 0.930 . S
C3819 H3807 0.930 . S
C3819 C3820 1.399 . S
C3819 C3824 1.399 . S
C3820 C3819 1.399 . S
C3820 C3821 1.376 . S
C3821 H3808 0.930 . S
C3821 C3820 1.376 . S
C3821 C3822 1.388 . S
C3822 H3809 0.930 . S
C3822 C3821 1.388 . S
C3822 C3823 1.390 . S
C3823 C3822 1.390 . S
C3823 C3824 1.394 . S
C3823 C3829 1.465 . S
C3824 C3819 1.399 . S
C3824 C3823 1.394 . S
C3824 C3825 1.516 . S
C3825 C3824 1.516 . S
C3825 C3826 1.502 . S
C3825 C3827 1.561 . S
C3825 C3828 1.526 . S
C3826 H3810 0.959 . S
C3826 H3811 0.959 . S
C3826 H3812 0.961 . S
C3826 C3825 1.502 . S
C3827 H3813 0.960 . S
C3827 H3814 0.961 . S
C3827 H3815 0.959 . S
C3827 C3825 1.561 . S
C3828 C3825 1.526 . S
C3828 C3829 1.396 . S
C3828 C3833 1.390 . S
C3829 C3823 1.465 . S
C3829 C3828 1.396 . S
C3829 C3830 1.399 . S
C3830 H3816 0.929 . S
C3830 C3829 1.399 . S
C3830 C3831 1.385 . S
C3831 H3817 0.931 . S
C3831 C3830 1.385 . S
C3831 C3832 1.389 . S
C3832 C3831 1.389 . S
C3832 C3833 1.387 . S
C3833 H3818 0.930 . S
C3833 C3828 1.390 . S
C3833 C3832 1.387 . S
H3834 C3846 0.930 . S
H3835 C3848 0.930 . S
H3836 C3849 0.930 . S
H3837 C3853 0.959 . S
H3838 C3853 0.959 . S
H3839 C3853 0.961 . S
H3840 C3854 0.960 . S
H3841 C3854 0.961 . S
H3842 C3854 0.959 . S
H3843 C3857 0.929 . S
H3844 C3858 0.931 . S
H3845 C3860 0.930 . S
C3846 H3834 0.930 . S
C3846 C3847 1.399 . S
C3846 C3851 1.399 . S
C3847 C3846 1.399 . S
C3847 C3848 1.376 . S
C3848 H3835 0.930 . S
C3848 C3847 1.376 . S
C3848 C3849 1.388 . S
C3849 H3836 0.930 . S
C3849 C3848 1.388 . S
C3849 C3850 1.390 . S
C3850 C3849 1.390 . S
C3850 C3851 1.394 . S
C3850 C3856 1.465 . S
C3851 C3846 1.399 . S
C3851 C3850 1.394 . S
C3851 C3852 1.516 . S
C3852 C3851 1.516 . S
C3852 C3853 1.502 . S
C3852 C3854 1.561 . S
C3852 C3855 1.526 . S
C3853 H3837 0.959 . S
C3853 H3838 0.959 . S
C3853 H3839 0.961 . S
C3853 C3852 1.502 . S
C3854 H3840 0.960 . S
C3854 H3841 0.961 . S
C3854 H3842 0.959 . S
C3854 C3852 1.561 . S
C3855 C3852 1.526 . S
C3855 C3856 1.396 . S
C3855 C3860 1.390 . S
C3856 C3850 1.465 . S
C3856 C3855 1.396 . S
C3856 C3857 1.399 . S
C3857 H3843 0.929 . S
C3857 C3856 1.399 . S
C3857 C3858 1.385 . S
C3858 H3844 0.931 . S
C3858 C3857 1.385 . S
C3858 C3859 1.389 . S
C3859 C3858 1.389 . S
C3859 C3860 1.387 . S
C3860 H3845 0.930 . S
C3860 C3855 1.390 . S
C3860 C3859 1.387 . S
H3861 C3873 0.930 . S
H3862 C3875 0.930 . S
H3863 C3876 0.930 . S
H3864 C3880 0.959 . S
H3865 C3880 0.959 . S
H3866 C3880 0.961 . S
H3867 C3881 0.960 . S
H3868 C3881 0.961 . S
H3869 C3881 0.959 . S
H3870 C3884 0.929 . S
H3871 C3885 0.931 . S
H3872 C3887 0.930 . S
C3873 H3861 0.930 . S
C3873 C3874 1.399 . S
C3873 C3878 1.399 . S
C3874 C3873 1.399 . S
C3874 C3875 1.376 . S
C3875 H3862 0.930 . S
C3875 C3874 1.376 . S
C3875 C3876 1.388 . S
C3876 H3863 0.930 . S
C3876 C3875 1.388 . S
C3876 C3877 1.390 . S
C3877 C3876 1.390 . S
C3877 C3878 1.394 . S
C3877 C3883 1.465 . S
C3878 C3873 1.399 . S
C3878 C3877 1.394 . S
C3878 C3879 1.516 . S
C3879 C3878 1.516 . S
C3879 C3880 1.502 . S
C3879 C3881 1.561 . S
C3879 C3882 1.526 . S
C3880 H3864 0.959 . S
C3880 H3865 0.959 . S
C3880 H3866 0.961 . S
C3880 C3879 1.502 . S
C3881 H3867 0.960 . S
C3881 H3868 0.961 . S
C3881 H3869 0.959 . S
C3881 C3879 1.561 . S
C3882 C3879 1.526 . S
C3882 C3883 1.396 . S
C3882 C3887 1.390 . S
C3883 C3877 1.465 . S
C3883 C3882 1.396 . S
C3883 C3884 1.399 . S
C3884 H3870 0.929 . S
C3884 C3883 1.399 . S
C3884 C3885 1.385 . S
C3885 H3871 0.931 . S
C3885 C3884 1.385 . S
C3885 C3886 1.389 . S
C3886 C3885 1.389 . S
C3886 C3887 1.387 . S
C3887 H3872 0.930 . S
C3887 C3882 1.390 . S
C3887 C3886 1.387 . S
H3888 C3900 0.930 . S
H3889 C3902 0.930 . S
H3890 C3903 0.930 . S
H3891 C3907 0.959 . S
H3892 C3907 0.959 . S
H3893 C3907 0.961 . S
H3894 C3908 0.960 . S
H3895 C3908 0.961 . S
H3896 C3908 0.959 . S
H3897 C3911 0.929 . S
H3898 C3912 0.931 . S
H3899 C3914 0.919 1_556 S
C3900 H3888 0.930 . S
C3900 C3901 1.399 1_556 S
C3900 C3905 1.415 . S
C3901 C3900 1.399 1_554 S
C3901 C3902 1.376 . S
C3902 H3889 0.930 . S
C3902 C3901 1.376 . S
C3902 C3903 1.388 . S
C3903 H3890 0.930 . S
C3903 C3902 1.388 . S
C3903 C3904 1.390 . S
C3904 C3903 1.390 . S
C3904 C3905 1.363 1_554 S
C3904 C3910 1.465 . S
C3905 C3900 1.415 . S
C3905 C3904 1.363 1_556 S
C3905 C3906 1.528 . S
C3906 C3905 1.528 . S
C3906 C3907 1.502 1_565 S
C3906 C3908 1.561 . S
C3906 C3909 1.526 1_556 S
C3907 H3891 0.959 . S
C3907 H3892 0.959 . S
C3907 H3893 0.961 . S
C3907 C3906 1.502 1_545 S
C3908 H3894 0.960 . S
C3908 H3895 0.961 . S
C3908 H3896 0.959 . S
C3908 C3906 1.561 . S
C3909 C3906 1.526 1_554 S
C3909 C3910 1.396 . S
C3909 C3914 1.390 . S
C3910 C3904 1.465 . S
C3910 C3909 1.396 . S
C3910 C3911 1.399 . S
C3911 H3897 0.929 . S
C3911 C3910 1.399 . S
C3911 C3912 1.385 . S
C3912 H3898 0.931 . S
C3912 C3911 1.385 . S
C3912 C3913 1.389 . S
C3913 C3912 1.389 . S
C3913 C3914 1.387 . S
C3914 H3899 0.919 1_554 S
C3914 C3909 1.390 . S
C3914 C3913 1.387 . S
H3915 C3927 0.930 . S
H3916 C3929 0.930 . S
H3917 C3930 0.930 . S
H3918 C3934 0.959 1_554 S
H3919 C3934 0.959 . S
H3920 C3934 0.961 . S
H3921 C3935 0.960 . S
H3922 C3935 0.961 . S
H3923 C3935 0.959 . S
H3924 C3938 0.929 . S
H3925 C3939 0.931 . S
H3926 C3941 0.930 1_556 S
C3927 H3915 0.930 . S
C3927 C3928 1.399 1_556 S
C3927 C3932 1.399 . S
C3928 C3927 1.399 1_554 S
C3928 C3929 1.376 . S
C3929 H3916 0.930 . S
C3929 C3928 1.376 . S
C3929 C3930 1.388 . S
C3930 H3917 0.930 . S
C3930 C3929 1.388 . S
C3930 C3931 1.390 . S
C3931 C3930 1.390 . S
C3931 C3932 1.394 1_554 S
C3931 C3937 1.465 . S
C3932 C3927 1.399 . S
C3932 C3931 1.394 1_556 S
C3932 C3933 1.516 . S
C3933 C3932 1.516 . S
C3933 C3934 1.502 . S
C3933 C3935 1.561 . S
C3933 C3936 1.526 1_556 S
C3934 H3918 0.959 1_556 S
C3934 H3919 0.959 . S
C3934 H3920 0.961 . S
C3934 C3933 1.502 . S
C3935 H3921 0.960 . S
C3935 H3922 0.961 . S
C3935 H3923 0.959 . S
C3935 C3933 1.561 . S
C3936 C3933 1.526 1_554 S
C3936 C3937 1.396 . S
C3936 C3941 1.390 . S
C3937 C3931 1.465 . S
C3937 C3936 1.396 . S
C3937 C3938 1.399 . S
C3938 H3924 0.929 . S
C3938 C3937 1.399 . S
C3938 C3939 1.385 . S
C3939 H3925 0.931 . S
C3939 C3938 1.385 . S
C3939 C3940 1.389 . S
C3940 C3939 1.389 . S
C3940 C3941 1.387 . S
C3941 H3926 0.930 1_554 S
C3941 C3936 1.390 . S
C3941 C3940 1.387 . S
H3942 C3954 0.930 . S
H3943 C3956 0.930 . S
H3944 C3957 0.930 . S
H3945 C3961 0.959 . S
H3946 C3961 0.959 . S
H3947 C3961 0.961 . S
H3948 C3962 0.960 . S
H3949 C3962 0.961 . S
H3950 C3962 0.959 . S
H3951 C3965 0.929 . S
H3952 C3966 0.931 . S
H3953 C3968 0.930 . S
C3954 H3942 0.930 . S
C3954 C3955 1.399 . S
C3954 C3959 1.399 . S
C3955 C3954 1.399 . S
C3955 C3956 1.376 . S
C3956 H3943 0.930 . S
C3956 C3955 1.376 . S
C3956 C3957 1.388 . S
C3957 H3944 0.930 . S
C3957 C3956 1.388 . S
C3957 C3958 1.390 . S
C3958 C3957 1.390 . S
C3958 C3959 1.394 . S
C3958 C3964 1.465 . S
C3959 C3954 1.399 . S
C3959 C3958 1.394 . S
C3959 C3960 1.516 . S
C3960 C3959 1.516 . S
C3960 C3961 1.502 . S
C3960 C3962 1.561 . S
C3960 C3963 1.526 . S
C3961 H3945 0.959 . S
C3961 H3946 0.959 . S
C3961 H3947 0.961 . S
C3961 C3960 1.502 . S
C3962 H3948 0.960 . S
C3962 H3949 0.961 . S
C3962 H3950 0.959 . S
C3962 C3960 1.561 . S
C3963 C3960 1.526 . S
C3963 C3964 1.396 . S
C3963 C3968 1.390 . S
C3964 C3958 1.465 . S
C3964 C3963 1.396 . S
C3964 C3965 1.399 . S
C3965 H3951 0.929 . S
C3965 C3964 1.399 . S
C3965 C3966 1.385 . S
C3966 H3952 0.931 . S
C3966 C3965 1.385 . S
C3966 C3967 1.389 . S
C3967 C3966 1.389 . S
C3967 C3968 1.387 . S
C3968 H3953 0.930 . S
C3968 C3963 1.390 . S
C3968 C3967 1.387 . S
H3969 C3981 0.930 . S
H3970 C3983 0.930 . S
H3971 C3984 0.930 . S
H3972 C3988 0.959 . S
H3973 C3988 0.959 . S
H3974 C3988 0.961 . S
H3975 C3989 0.960 . S
H3976 C3989 0.961 . S
H3977 C3989 0.959 . S
H3978 C3992 0.929 . S
H3979 C3993 0.931 . S
H3980 C3995 0.930 . S
C3981 H3969 0.930 . S
C3981 C3982 1.399 . S
C3981 C3986 1.399 . S
C3982 C3981 1.399 . S
C3982 C3983 1.376 . S
C3983 H3970 0.930 . S
C3983 C3982 1.376 . S
C3983 C3984 1.388 . S
C3984 H3971 0.930 . S
C3984 C3983 1.388 . S
C3984 C3985 1.390 . S
C3985 C3984 1.390 . S
C3985 C3986 1.394 . S
C3985 C3991 1.465 . S
C3986 C3981 1.399 . S
C3986 C3985 1.394 . S
C3986 C3987 1.516 . S
C3987 C3986 1.516 . S
C3987 C3988 1.502 . S
C3987 C3989 1.561 . S
C3987 C3990 1.526 . S
C3988 H3972 0.959 . S
C3988 H3973 0.959 . S
C3988 H3974 0.961 . S
C3988 C3987 1.502 . S
C3989 H3975 0.960 . S
C3989 H3976 0.961 . S
C3989 H3977 0.959 . S
C3989 C3987 1.561 . S
C3990 C3987 1.526 . S
C3990 C3991 1.396 . S
C3990 C3995 1.390 . S
C3991 C3985 1.465 . S
C3991 C3990 1.396 . S
C3991 C3992 1.399 . S
C3992 H3978 0.929 . S
C3992 C3991 1.399 . S
C3992 C3993 1.385 . S
C3993 H3979 0.931 . S
C3993 C3992 1.385 . S
C3993 C3994 1.389 . S
C3994 C3993 1.389 . S
C3994 C3995 1.387 . S
C3995 H3980 0.930 . S
C3995 C3990 1.390 . S
C3995 C3994 1.387 . S
H3996 C4008 0.930 . S
H3997 C4010 0.930 . S
H3998 C4011 0.930 . S
H3999 C4015 0.959 . S
H4000 C4015 0.959 . S
H4001 C4015 0.961 . S
H4002 C4016 0.960 . S
H4003 C4016 0.961 . S
H4004 C4016 0.959 . S
H4005 C4019 0.929 . S
H4006 C4020 0.931 . S
H4007 C4022 0.930 . S
C4008 H3996 0.930 . S
C4008 C4009 1.399 . S
C4008 C4013 1.399 . S
C4009 C4008 1.399 . S
C4009 C4010 1.376 . S
C4010 H3997 0.930 . S
C4010 C4009 1.376 . S
C4010 C4011 1.388 . S
C4011 H3998 0.930 . S
C4011 C4010 1.388 . S
C4011 C4012 1.390 . S
C4012 C4011 1.390 . S
C4012 C4013 1.394 . S
C4012 C4018 1.465 . S
C4013 C4008 1.399 . S
C4013 C4012 1.394 . S
C4013 C4014 1.516 . S
C4014 C4013 1.516 . S
C4014 C4015 1.502 . S
C4014 C4016 1.561 . S
C4014 C4017 1.526 . S
C4015 H3999 0.959 . S
C4015 H4000 0.959 . S
C4015 H4001 0.961 . S
C4015 C4014 1.502 . S
C4016 H4002 0.960 . S
C4016 H4003 0.961 . S
C4016 H4004 0.959 . S
C4016 C4014 1.561 . S
C4017 C4014 1.526 . S
C4017 C4018 1.396 . S
C4017 C4022 1.390 . S
C4018 C4012 1.465 . S
C4018 C4017 1.396 . S
C4018 C4019 1.399 . S
C4019 H4005 0.929 . S
C4019 C4018 1.399 . S
C4019 C4020 1.385 . S
C4020 H4006 0.931 . S
C4020 C4019 1.385 . S
C4020 C4021 1.389 . S
C4021 C4020 1.389 . S
C4021 C4022 1.387 . S
C4022 H4007 0.930 . S
C4022 C4017 1.390 . S
C4022 C4021 1.387 . S
H4023 C4035 0.930 . S
H4024 C4037 0.930 . S
H4025 C4038 0.930 . S
H4026 C4042 0.959 . S
H4027 C4042 0.959 . S
H4028 C4042 0.961 . S
H4029 C4043 0.960 . S
H4030 C4043 0.961 . S
H4031 C4043 0.959 . S
H4032 C4046 0.929 . S
H4033 C4047 0.931 . S
H4034 C4049 0.930 . S
C4035 H4023 0.930 . S
C4035 C4036 1.399 . S
C4035 C4040 1.399 . S
C4036 C4035 1.399 . S
C4036 C4037 1.376 . S
C4037 H4024 0.930 . S
C4037 C4036 1.376 . S
C4037 C4038 1.388 . S
C4038 H4025 0.930 . S
C4038 C4037 1.388 . S
C4038 C4039 1.390 . S
C4039 C4038 1.390 . S
C4039 C4040 1.394 . S
C4039 C4045 1.465 . S
C4040 C4035 1.399 . S
C4040 C4039 1.394 . S
C4040 C4041 1.516 . S
C4041 C4040 1.516 . S
C4041 C4042 1.502 . S
C4041 C4043 1.561 . S
C4041 C4044 1.526 . S
C4042 H4026 0.959 . S
C4042 H4027 0.959 . S
C4042 H4028 0.961 . S
C4042 C4041 1.502 . S
C4043 H4029 0.960 . S
C4043 H4030 0.961 . S
C4043 H4031 0.959 . S
C4043 C4041 1.561 . S
C4044 C4041 1.526 . S
C4044 C4045 1.396 . S
C4044 C4049 1.390 . S
C4045 C4039 1.465 . S
C4045 C4044 1.396 . S
C4045 C4046 1.399 . S
C4046 H4032 0.929 . S
C4046 C4045 1.399 . S
C4046 C4047 1.385 . S
C4047 H4033 0.931 . S
C4047 C4046 1.385 . S
C4047 C4048 1.389 . S
C4048 C4047 1.389 . S
C4048 C4049 1.387 . S
C4049 H4034 0.930 . S
C4049 C4044 1.390 . S
C4049 C4048 1.387 . S
H4050 C4062 0.930 . S
H4051 C4064 0.930 . S
H4052 C4065 0.930 . S
H4053 C4069 0.959 . S
H4054 C4069 0.959 . S
H4055 C4069 0.961 . S
H4056 C4070 0.960 . S
H4057 C4070 0.961 . S
H4058 C4070 0.959 . S
H4059 C4073 0.929 . S
H4060 C4074 0.931 . S
H4061 C4076 0.930 . S
C4062 H4050 0.930 . S
C4062 C4063 1.399 . S
C4062 C4067 1.399 . S
C4063 C4062 1.399 . S
C4063 C4064 1.376 . S
C4064 H4051 0.930 . S
C4064 C4063 1.376 . S
C4064 C4065 1.388 . S
C4065 H4052 0.930 . S
C4065 C4064 1.388 . S
C4065 C4066 1.390 . S
C4066 C4065 1.390 . S
C4066 C4067 1.394 . S
C4066 C4072 1.465 . S
C4067 C4062 1.399 . S
C4067 C4066 1.394 . S
C4067 C4068 1.516 . S
C4068 C4067 1.516 . S
C4068 C4069 1.502 . S
C4068 C4070 1.561 . S
C4068 C4071 1.526 . S
C4069 H4053 0.959 . S
C4069 H4054 0.959 . S
C4069 H4055 0.961 . S
C4069 C4068 1.502 . S
C4070 H4056 0.960 . S
C4070 H4057 0.961 . S
C4070 H4058 0.959 . S
C4070 C4068 1.561 . S
C4071 C4068 1.526 . S
C4071 C4072 1.396 . S
C4071 C4076 1.390 . S
C4072 C4066 1.465 . S
C4072 C4071 1.396 . S
C4072 C4073 1.399 . S
C4073 H4059 0.929 . S
C4073 C4072 1.399 . S
C4073 C4074 1.385 . S
C4074 H4060 0.931 . S
C4074 C4073 1.385 . S
C4074 C4075 1.389 . S
C4075 C4074 1.389 . S
C4075 C4076 1.387 . S
C4076 H4061 0.930 . S
C4076 C4071 1.390 . S
C4076 C4075 1.387 . S
H4077 C4089 0.930 . S
H4078 C4091 0.930 . S
H4079 C4092 0.930 . S
H4080 C4096 0.959 . S
H4081 C4096 0.959 . S
H4082 C4096 0.961 . S
H4083 C4097 0.960 . S
H4084 C4097 0.961 . S
H4085 C4097 0.959 . S
H4086 C4100 0.929 . S
H4087 C4101 0.931 . S
H4088 C4103 0.930 . S
C4089 H4077 0.930 . S
C4089 C4090 1.399 . S
C4089 C4094 1.399 . S
C4090 C4089 1.399 . S
C4090 C4091 1.376 . S
C4091 H4078 0.930 . S
C4091 C4090 1.376 . S
C4091 C4092 1.388 . S
C4092 H4079 0.930 . S
C4092 C4091 1.388 . S
C4092 C4093 1.390 . S
C4093 C4092 1.390 . S
C4093 C4094 1.394 . S
C4093 C4099 1.465 . S
C4094 C4089 1.399 . S
C4094 C4093 1.394 . S
C4094 C4095 1.516 . S
C4095 C4094 1.516 . S
C4095 C4096 1.502 . S
C4095 C4097 1.561 . S
C4095 C4098 1.526 . S
C4096 H4080 0.959 . S
C4096 H4081 0.959 . S
C4096 H4082 0.961 . S
C4096 C4095 1.502 . S
C4097 H4083 0.960 . S
C4097 H4084 0.961 . S
C4097 H4085 0.959 . S
C4097 C4095 1.561 . S
C4098 C4095 1.526 . S
C4098 C4099 1.396 . S
C4098 C4103 1.390 . S
C4099 C4093 1.465 . S
C4099 C4098 1.396 . S
C4099 C4100 1.399 . S
C4100 H4086 0.929 . S
C4100 C4099 1.399 . S
C4100 C4101 1.385 . S
C4101 H4087 0.931 . S
C4101 C4100 1.385 . S
C4101 C4102 1.389 . S
C4102 C4101 1.389 . S
C4102 C4103 1.387 . S
C4103 H4088 0.930 . S
C4103 C4098 1.390 . S
C4103 C4102 1.387 . S
H4104 C4116 0.930 . S
H4105 C4118 0.930 . S
H4106 C4119 0.930 . S
H4107 C4123 0.959 . S
H4108 C4123 0.959 . S
H4109 C4123 0.961 . S
H4110 C4124 0.970 . S
H4111 C4124 0.985 . S
H4112 C4124 0.951 1_554 S
H4113 C4127 0.929 . S
H4114 C4128 0.931 . S
H4115 C4130 0.930 . S
C4116 H4104 0.930 . S
C4116 C4117 1.399 . S
C4116 C4121 1.399 . S
C4117 C4116 1.399 . S
C4117 C4118 1.376 . S
C4118 H4105 0.930 . S
C4118 C4117 1.376 . S
C4118 C4119 1.388 . S
C4119 H4106 0.930 . S
C4119 C4118 1.388 . S
C4119 C4120 1.390 . S
C4120 C4119 1.390 . S
C4120 C4121 1.394 . S
C4120 C4126 1.465 . S
C4121 C4116 1.399 . S
C4121 C4120 1.394 . S
C4121 C4122 1.516 . S
C4122 C4121 1.516 . S
C4122 C4123 1.502 . S
C4122 C4124 1.536 1_554 S
C4122 C4125 1.526 . S
C4123 H4107 0.959 . S
C4123 H4108 0.959 . S
C4123 H4109 0.961 . S
C4123 C4122 1.502 . S
C4124 H4110 0.970 . S
C4124 H4111 0.985 . S
C4124 H4112 0.951 1_556 S
C4124 C4122 1.536 1_556 S
C4125 C4122 1.526 . S
C4125 C4126 1.396 . S
C4125 C4130 1.390 . S
C4126 C4120 1.465 . S
C4126 C4125 1.396 . S
C4126 C4127 1.399 . S
C4127 H4113 0.929 . S
C4127 C4126 1.399 . S
C4127 C4128 1.385 . S
C4128 H4114 0.931 . S
C4128 C4127 1.385 . S
C4128 C4129 1.389 . S
C4129 C4128 1.389 . S
C4129 C4130 1.387 . S
C4130 H4115 0.930 . S
C4130 C4125 1.390 . S
C4130 C4129 1.387 . S
H4131 C4143 0.930 . S
H4132 C4145 0.930 . S
H4133 C4146 0.930 . S
H4134 C4150 0.959 . S
H4135 C4150 0.959 . S
H4136 C4150 0.961 . S
H4137 C4151 0.960 . S
H4138 C4151 0.961 . S
H4139 C4151 0.959 . S
H4140 C4154 0.929 . S
H4141 C4155 0.931 . S
H4142 C4157 0.930 . S
C4143 H4131 0.930 . S
C4143 C4144 1.399 . S
C4143 C4148 1.399 . S
C4144 C4143 1.399 . S
C4144 C4145 1.376 . S
C4145 H4132 0.930 . S
C4145 C4144 1.376 . S
C4145 C4146 1.388 . S
C4146 H4133 0.930 . S
C4146 C4145 1.388 . S
C4146 C4147 1.390 . S
C4147 C4146 1.390 . S
C4147 C4148 1.394 . S
C4147 C4153 1.465 . S
C4148 C4143 1.399 . S
C4148 C4147 1.394 . S
C4148 C4149 1.516 . S
C4149 C4148 1.516 . S
C4149 C4150 1.502 . S
C4149 C4151 1.561 . S
C4149 C4152 1.526 . S
C4150 H4134 0.959 . S
C4150 H4135 0.959 . S
C4150 H4136 0.961 . S
C4150 C4149 1.502 . S
C4151 H4137 0.960 . S
C4151 H4138 0.961 . S
C4151 H4139 0.959 . S
C4151 C4149 1.561 . S
C4152 C4149 1.526 . S
C4152 C4153 1.396 . S
C4152 C4157 1.390 . S
C4153 C4147 1.465 . S
C4153 C4152 1.396 . S
C4153 C4154 1.399 . S
C4154 H4140 0.929 . S
C4154 C4153 1.399 . S
C4154 C4155 1.385 . S
C4155 H4141 0.931 . S
C4155 C4154 1.385 . S
C4155 C4156 1.389 . S
C4156 C4155 1.389 . S
C4156 C4157 1.387 . S
C4157 H4142 0.930 . S
C4157 C4152 1.390 . S
C4157 C4156 1.387 . S
H4158 C4170 0.930 . S
H4159 C4172 0.930 . S
H4160 C4173 0.930 . S
H4161 C4177 0.959 . S
H4162 C4177 0.959 . S
H4163 C4177 0.961 . S
H4164 C4178 0.960 . S
H4165 C4178 0.961 . S
H4166 C4178 0.959 . S
H4167 C4181 0.929 . S
H4168 C4182 0.931 . S
H4169 C4184 0.930 . S
C4170 H4158 0.930 . S
C4170 C4171 1.399 . S
C4170 C4175 1.399 . S
C4171 C4170 1.399 . S
C4171 C4172 1.376 . S
C4172 H4159 0.930 . S
C4172 C4171 1.376 . S
C4172 C4173 1.388 . S
C4173 H4160 0.930 . S
C4173 C4172 1.388 . S
C4173 C4174 1.390 . S
C4174 C4173 1.390 . S
C4174 C4175 1.394 . S
C4174 C4180 1.465 . S
C4175 C4170 1.399 . S
C4175 C4174 1.394 . S
C4175 C4176 1.516 . S
C4176 C4175 1.516 . S
C4176 C4177 1.502 . S
C4176 C4178 1.561 . S
C4176 C4179 1.526 . S
C4177 H4161 0.959 . S
C4177 H4162 0.959 . S
C4177 H4163 0.961 . S
C4177 C4176 1.502 . S
C4178 H4164 0.960 . S
C4178 H4165 0.961 . S
C4178 H4166 0.959 . S
C4178 C4176 1.561 . S
C4179 C4176 1.526 . S
C4179 C4180 1.396 . S
C4179 C4184 1.390 . S
C4180 C4174 1.465 . S
C4180 C4179 1.396 . S
C4180 C4181 1.399 . S
C4181 H4167 0.929 . S
C4181 C4180 1.399 . S
C4181 C4182 1.385 . S
C4182 H4168 0.931 . S
C4182 C4181 1.385 . S
C4182 C4183 1.389 . S
C4183 C4182 1.389 . S
C4183 C4184 1.387 . S
C4184 H4169 0.930 . S
C4184 C4179 1.390 . S
C4184 C4183 1.387 . S
H4185 C4197 0.930 . S
H4186 C4199 0.930 . S
H4187 C4200 0.930 . S
H4188 C4204 0.959 . S
H4189 C4204 0.959 . S
H4190 C4204 0.961 . S
H4191 C4205 0.960 . S
H4192 C4205 0.961 . S
H4193 C4205 0.959 . S
H4194 C4208 0.929 . S
H4195 C4209 0.931 . S
H4196 C4211 0.930 . S
C4197 H4185 0.930 . S
C4197 C4198 1.399 . S
C4197 C4202 1.399 . S
C4198 C4197 1.399 . S
C4198 C4199 1.376 . S
C4199 H4186 0.930 . S
C4199 C4198 1.376 . S
C4199 C4200 1.388 . S
C4200 H4187 0.930 . S
C4200 C4199 1.388 . S
C4200 C4201 1.390 . S
C4201 C4200 1.390 . S
C4201 C4202 1.394 . S
C4201 C4207 1.465 . S
C4202 C4197 1.399 . S
C4202 C4201 1.394 . S
C4202 C4203 1.516 . S
C4203 C4202 1.516 . S
C4203 C4204 1.502 . S
C4203 C4205 1.561 . S
C4203 C4206 1.526 . S
C4204 H4188 0.959 . S
C4204 H4189 0.959 . S
C4204 H4190 0.961 . S
C4204 C4203 1.502 . S
C4205 H4191 0.960 . S
C4205 H4192 0.961 . S
C4205 H4193 0.959 . S
C4205 C4203 1.561 . S
C4206 C4203 1.526 . S
C4206 C4207 1.396 . S
C4206 C4211 1.390 . S
C4207 C4201 1.465 . S
C4207 C4206 1.396 . S
C4207 C4208 1.399 . S
C4208 H4194 0.929 . S
C4208 C4207 1.399 . S
C4208 C4209 1.385 . S
C4209 H4195 0.931 . S
C4209 C4208 1.385 . S
C4209 C4210 1.389 . S
C4210 C4209 1.389 . S
C4210 C4211 1.387 . S
C4211 H4196 0.930 . S
C4211 C4206 1.390 . S
C4211 C4210 1.387 . S
H4212 C4224 0.930 . S
H4213 C4226 0.930 . S
H4214 C4227 0.930 . S
H4215 C4231 0.959 . S
H4216 C4231 0.959 . S
H4217 C4231 0.961 . S
H4218 C4232 0.960 . S
H4219 C4232 0.961 . S
H4220 C4232 0.959 . S
H4221 C4235 0.929 . S
H4222 C4236 0.931 . S
H4223 C4238 0.930 . S
C4224 H4212 0.930 . S
C4224 C4225 1.399 . S
C4224 C4229 1.399 . S
C4225 C4224 1.399 . S
C4225 C4226 1.376 . S
C4226 H4213 0.930 . S
C4226 C4225 1.376 . S
C4226 C4227 1.388 . S
C4227 H4214 0.930 . S
C4227 C4226 1.388 . S
C4227 C4228 1.390 . S
C4228 C4227 1.390 . S
C4228 C4229 1.394 . S
C4228 C4234 1.465 . S
C4229 C4224 1.399 . S
C4229 C4228 1.394 . S
C4229 C4230 1.516 . S
C4230 C4229 1.516 . S
C4230 C4231 1.502 1_455 S
C4230 C4232 1.561 . S
C4230 C4233 1.526 . S
C4231 H4215 0.959 . S
C4231 H4216 0.959 . S
C4231 H4217 0.961 . S
C4231 C4230 1.502 1_655 S
C4232 H4218 0.960 . S
C4232 H4219 0.961 . S
C4232 H4220 0.959 . S
C4232 C4230 1.561 . S
C4233 C4230 1.526 . S
C4233 C4234 1.396 . S
C4233 C4238 1.390 . S
C4234 C4228 1.465 . S
C4234 C4233 1.396 . S
C4234 C4235 1.399 . S
C4235 H4221 0.929 . S
C4235 C4234 1.399 . S
C4235 C4236 1.385 . S
C4236 H4222 0.931 . S
C4236 C4235 1.385 . S
C4236 C4237 1.389 . S
C4237 C4236 1.389 . S
C4237 C4238 1.387 . S
C4238 H4223 0.930 . S
C4238 C4233 1.390 . S
C4238 C4237 1.387 . S
H4239 C4251 0.930 . S
H4240 C4253 0.930 . S
H4241 C4254 0.930 . S
H4242 C4258 0.959 . S
H4243 C4258 0.959 . S
H4244 C4258 0.961 . S
H4245 C4259 0.960 . S
H4246 C4259 0.961 . S
H4247 C4259 0.959 . S
H4248 C4262 0.929 . S
H4249 C4263 0.931 . S
H4250 C4265 0.930 . S
C4251 H4239 0.930 . S
C4251 C4252 1.399 . S
C4251 C4256 1.399 . S
C4252 C4251 1.399 . S
C4252 C4253 1.376 . S
C4253 H4240 0.930 . S
C4253 C4252 1.376 . S
C4253 C4254 1.388 . S
C4254 H4241 0.930 . S
C4254 C4253 1.388 . S
C4254 C4255 1.390 . S
C4255 C4254 1.390 . S
C4255 C4256 1.394 . S
C4255 C4261 1.465 . S
C4256 C4251 1.399 . S
C4256 C4255 1.394 . S
C4256 C4257 1.516 . S
C4257 C4256 1.516 . S
C4257 C4258 1.502 . S
C4257 C4259 1.561 . S
C4257 C4260 1.526 . S
C4258 H4242 0.959 . S
C4258 H4243 0.959 . S
C4258 H4244 0.961 . S
C4258 C4257 1.502 . S
C4259 H4245 0.960 . S
C4259 H4246 0.961 . S
C4259 H4247 0.959 . S
C4259 C4257 1.561 . S
C4260 C4257 1.526 . S
C4260 C4261 1.396 . S
C4260 C4265 1.390 . S
C4261 C4255 1.465 . S
C4261 C4260 1.396 . S
C4261 C4262 1.399 . S
C4262 H4248 0.929 . S
C4262 C4261 1.399 . S
C4262 C4263 1.385 . S
C4263 H4249 0.931 . S
C4263 C4262 1.385 . S
C4263 C4264 1.389 . S
C4264 C4263 1.389 . S
C4264 C4265 1.387 . S
C4265 H4250 0.930 . S
C4265 C4260 1.390 . S
C4265 C4264 1.387 . S
H4266 C4278 0.930 . S
H4267 C4280 0.930 . S
H4268 C4281 0.930 . S
H4269 C4285 0.959 . S
H4270 C4285 0.959 . S
H4271 C4285 0.961 . S
H4272 C4286 0.960 . S
H4273 C4286 0.961 . S
H4274 C4286 0.959 . S
H4275 C4289 0.929 . S
H4276 C4290 0.931 . S
H4277 C4292 0.930 . S
C4278 H4266 0.930 . S
C4278 C4279 1.399 . S
C4278 C4283 1.399 . S
C4279 C4278 1.399 . S
C4279 C4280 1.376 . S
C4280 H4267 0.930 . S
C4280 C4279 1.376 . S
C4280 C4281 1.388 . S
C4281 H4268 0.930 . S
C4281 C4280 1.388 . S
C4281 C4282 1.390 . S
C4282 C4281 1.390 . S
C4282 C4283 1.394 . S
C4282 C4288 1.465 . S
C4283 C4278 1.399 . S
C4283 C4282 1.394 . S
C4283 C4284 1.516 . S
C4284 C4283 1.516 . S
C4284 C4285 1.502 . S
C4284 C4286 1.561 . S
C4284 C4287 1.526 . S
C4285 H4269 0.959 . S
C4285 H4270 0.959 . S
C4285 H4271 0.961 . S
C4285 C4284 1.502 . S
C4286 H4272 0.960 . S
C4286 H4273 0.961 . S
C4286 H4274 0.959 . S
C4286 C4284 1.561 . S
C4287 C4284 1.526 . S
C4287 C4288 1.396 . S
C4287 C4292 1.390 . S
C4288 C4282 1.465 . S
C4288 C4287 1.396 . S
C4288 C4289 1.399 . S
C4289 H4275 0.929 . S
C4289 C4288 1.399 . S
C4289 C4290 1.385 . S
C4290 H4276 0.931 . S
C4290 C4289 1.385 . S
C4290 C4291 1.389 . S
C4291 C4290 1.389 . S
C4291 C4292 1.387 . S
C4292 H4277 0.930 . S
C4292 C4287 1.390 . S
C4292 C4291 1.387 . S
H4293 C4305 0.930 . S
H4294 C4307 0.930 . S
H4295 C4308 0.930 . S
H4296 C4312 0.959 . S
H4297 C4312 0.959 . S
H4298 C4312 0.961 . S
H4299 C4313 0.960 . S
H4300 C4313 0.961 . S
H4301 C4313 0.959 . S
H4302 C4316 0.929 . S
H4303 C4317 0.931 . S
H4304 C4319 0.930 . S
C4305 H4293 0.930 . S
C4305 C4306 1.399 . S
C4305 C4310 1.399 . S
C4306 C4305 1.399 . S
C4306 C4307 1.376 . S
C4307 H4294 0.930 . S
C4307 C4306 1.376 . S
C4307 C4308 1.388 . S
C4308 H4295 0.930 . S
C4308 C4307 1.388 . S
C4308 C4309 1.390 . S
C4309 C4308 1.390 . S
C4309 C4310 1.394 . S
C4309 C4315 1.465 . S
C4310 C4305 1.399 . S
C4310 C4309 1.394 . S
C4310 C4311 1.516 . S
C4311 C4310 1.516 . S
C4311 C4312 1.502 . S
C4311 C4313 1.561 . S
C4311 C4314 1.526 . S
C4312 H4296 0.959 . S
C4312 H4297 0.959 . S
C4312 H4298 0.961 . S
C4312 C4311 1.502 . S
C4313 H4299 0.960 . S
C4313 H4300 0.961 . S
C4313 H4301 0.959 . S
C4313 C4311 1.561 . S
C4314 C4311 1.526 . S
C4314 C4315 1.396 . S
C4314 C4319 1.390 . S
C4315 C4309 1.465 . S
C4315 C4314 1.396 . S
C4315 C4316 1.399 . S
C4316 H4302 0.929 . S
C4316 C4315 1.399 . S
C4316 C4317 1.385 . S
C4317 H4303 0.931 . S
C4317 C4316 1.385 . S
C4317 C4318 1.389 . S
C4318 C4317 1.389 . S
C4318 C4319 1.387 . S
C4319 H4304 0.930 . S
C4319 C4314 1.390 . S
C4319 C4318 1.387 . S
H4320 C4332 0.930 . S
H4321 C4334 0.930 . S
H4322 C4335 0.930 1_565 S
H4323 C4339 0.959 . S
H4324 C4339 0.959 . S
H4325 C4339 0.961 . S
H4326 C4340 0.960 . S
H4327 C4340 0.961 . S
H4328 C4340 0.959 . S
H4329 C4343 0.929 . S
H4330 C4344 0.934 . S
H4331 C4346 0.930 . S
C4332 H4320 0.930 . S
C4332 C4333 1.399 . S
C4332 C4337 1.399 . S
C4333 C4332 1.399 . S
C4333 C4334 1.376 . S
C4334 H4321 0.930 . S
C4334 C4333 1.376 . S
C4334 C4335 1.388 . S
C4335 H4322 0.930 1_545 S
C4335 C4334 1.388 . S
C4335 C4336 1.390 . S
C4336 C4335 1.390 . S
C4336 C4337 1.394 . S
C4336 C4342 1.465 . S
C4337 C4332 1.399 . S
C4337 C4336 1.394 . S
C4337 C4338 1.516 . S
C4338 C4337 1.516 . S
C4338 C4339 1.502 . S
C4338 C4340 1.561 . S
C4338 C4341 1.526 . S
C4339 H4323 0.959 . S
C4339 H4324 0.959 . S
C4339 H4325 0.961 . S
C4339 C4338 1.502 . S
C4340 H4326 0.960 . S
C4340 H4327 0.961 . S
C4340 H4328 0.959 . S
C4340 C4338 1.561 . S
C4341 C4338 1.526 . S
C4341 C4342 1.396 . S
C4341 C4346 1.390 . S
C4342 C4336 1.465 . S
C4342 C4341 1.396 . S
C4342 C4343 1.399 1_545 S
C4343 H4329 0.929 . S
C4343 C4342 1.399 1_565 S
C4343 C4344 1.385 . S
C4344 H4330 0.934 . S
C4344 C4343 1.385 . S
C4344 C4345 1.386 1_565 S
C4345 C4344 1.386 1_545 S
C4345 C4346 1.387 . S
C4346 H4331 0.930 . S
C4346 C4341 1.390 . S
C4346 C4345 1.387 . S
H4347 C4359 0.930 . S
H4348 C4361 0.930 . S
H4349 C4362 0.930 . S
H4350 C4366 0.959 . S
H4351 C4366 0.959 . S
H4352 C4366 0.961 . S
H4353 C4367 0.960 . S
H4354 C4367 0.961 . S
H4355 C4367 0.959 . S
H4356 C4370 0.929 . S
H4357 C4371 0.931 . S
H4358 C4373 0.930 . S
C4359 H4347 0.930 . S
C4359 C4360 1.399 . S
C4359 C4364 1.399 . S
C4360 C4359 1.399 . S
C4360 C4361 1.376 . S
C4361 H4348 0.930 . S
C4361 C4360 1.376 . S
C4361 C4362 1.388 . S
C4362 H4349 0.930 . S
C4362 C4361 1.388 . S
C4362 C4363 1.390 . S
C4363 C4362 1.390 . S
C4363 C4364 1.394 . S
C4363 C4369 1.465 . S
C4364 C4359 1.399 . S
C4364 C4363 1.394 . S
C4364 C4365 1.516 . S
C4365 C4364 1.516 . S
C4365 C4366 1.502 . S
C4365 C4367 1.561 . S
C4365 C4368 1.526 . S
C4366 H4350 0.959 . S
C4366 H4351 0.959 . S
C4366 H4352 0.961 . S
C4366 C4365 1.502 . S
C4367 H4353 0.960 . S
C4367 H4354 0.961 . S
C4367 H4355 0.959 . S
C4367 C4365 1.561 . S
C4368 C4365 1.526 . S
C4368 C4369 1.396 . S
C4368 C4373 1.390 . S
C4369 C4363 1.465 . S
C4369 C4368 1.396 . S
C4369 C4370 1.399 . S
C4370 H4356 0.929 . S
C4370 C4369 1.399 . S
C4370 C4371 1.385 . S
C4371 H4357 0.931 . S
C4371 C4370 1.385 . S
C4371 C4372 1.389 . S
C4372 C4371 1.389 . S
C4372 C4373 1.387 . S
C4373 H4358 0.930 . S
C4373 C4368 1.390 . S
C4373 C4372 1.387 . S
H4374 C4386 0.930 . S
H4375 C4388 0.941 . S
H4376 C4389 0.930 . S
H4377 C4393 0.959 . S
H4378 C4393 0.959 . S
H4379 C4393 0.961 . S
H4380 C4394 0.960 . S
H4381 C4394 0.961 . S
H4382 C4394 0.959 . S
H4383 C4397 0.954 . S
H4384 C4398 0.931 1_565 S
H4385 C4400 0.930 . S
C4386 H4374 0.930 . S
C4386 C4387 1.399 . S
C4386 C4391 1.399 . S
C4387 C4386 1.399 . S
C4387 C4388 1.360 1_545 S
C4388 H4375 0.941 . S
C4388 C4387 1.360 1_565 S
C4388 C4389 1.395 . S
C4389 H4376 0.930 . S
C4389 C4388 1.395 . S
C4389 C4390 1.390 1_565 S
C4390 C4389 1.390 1_545 S
C4390 C4391 1.394 . S
C4390 C4396 1.465 . S
C4391 C4386 1.399 . S
C4391 C4390 1.394 . S
C4391 C4392 1.516 . S
C4392 C4391 1.516 . S
C4392 C4393 1.502 . S
C4392 C4394 1.561 . S
C4392 C4395 1.526 . S
C4393 H4377 0.959 . S
C4393 H4378 0.959 . S
C4393 H4379 0.961 . S
C4393 C4392 1.502 . S
C4394 H4380 0.960 . S
C4394 H4381 0.961 . S
C4394 H4382 0.959 . S
C4394 C4392 1.561 . S
C4395 C4392 1.526 . S
C4395 C4396 1.396 . S
C4395 C4400 1.390 . S
C4396 C4390 1.465 . S
C4396 C4395 1.396 . S
C4396 C4397 1.375 1_545 S
C4397 H4383 0.954 . S
C4397 C4396 1.375 1_565 S
C4397 C4398 1.384 1_565 S
C4398 H4384 0.931 1_545 S
C4398 C4397 1.384 1_545 S
C4398 C4399 1.389 . S
C4399 C4398 1.389 . S
C4399 C4400 1.387 . S
C4400 H4385 0.930 . S
C4400 C4395 1.390 . S
C4400 C4399 1.387 . S
H4401 C4413 0.930 . S
H4402 C4415 0.930 . S
H4403 C4416 0.930 . S
H4404 C4420 0.959 . S
H4405 C4420 0.959 . S
H4406 C4420 0.961 . S
H4407 C4421 0.960 . S
H4408 C4421 0.961 . S
H4409 C4421 0.959 . S
H4410 C4424 0.929 . S
H4411 C4425 0.931 . S
H4412 C4427 0.930 . S
C4413 H4401 0.930 . S
C4413 C4414 1.399 . S
C4413 C4418 1.399 . S
C4414 C4413 1.399 . S
C4414 C4415 1.376 . S
C4415 H4402 0.930 . S
C4415 C4414 1.376 . S
C4415 C4416 1.388 . S
C4416 H4403 0.930 . S
C4416 C4415 1.388 . S
C4416 C4417 1.390 . S
C4417 C4416 1.390 . S
C4417 C4418 1.394 . S
C4417 C4423 1.465 . S
C4418 C4413 1.399 . S
C4418 C4417 1.394 . S
C4418 C4419 1.516 . S
C4419 C4418 1.516 . S
C4419 C4420 1.502 . S
C4419 C4421 1.561 . S
C4419 C4422 1.526 . S
C4420 H4404 0.959 . S
C4420 H4405 0.959 . S
C4420 H4406 0.961 . S
C4420 C4419 1.502 . S
C4421 H4407 0.960 . S
C4421 H4408 0.961 . S
C4421 H4409 0.959 . S
C4421 C4419 1.561 . S
C4422 C4419 1.526 . S
C4422 C4423 1.396 . S
C4422 C4427 1.390 . S
C4423 C4417 1.465 . S
C4423 C4422 1.396 . S
C4423 C4424 1.399 . S
C4424 H4410 0.929 . S
C4424 C4423 1.399 . S
C4424 C4425 1.385 . S
C4425 H4411 0.931 . S
C4425 C4424 1.385 . S
C4425 C4426 1.389 . S
C4426 C4425 1.389 . S
C4426 C4427 1.387 . S
C4427 H4412 0.930 . S
C4427 C4422 1.390 . S
C4427 C4426 1.387 . S
H4428 C4440 0.930 . S
H4429 C4442 0.930 1_565 S
H4430 C4443 0.930 1_565 S
H4431 C4447 0.959 . S
H4432 C4447 0.959 . S
H4433 C4447 0.961 . S
H4434 C4448 0.960 . S
H4435 C4448 0.961 . S
H4436 C4448 0.959 . S
H4437 C4451 0.929 1_565 S
H4438 C4452 0.931 1_565 S
H4439 C4454 0.930 . S
C4440 H4428 0.930 . S
C4440 C4441 1.399 . S
C4440 C4445 1.399 . S
C4441 C4440 1.399 . S
C4441 C4442 1.376 . S
C4442 H4429 0.930 1_545 S
C4442 C4441 1.376 . S
C4442 C4443 1.388 . S
C4443 H4430 0.930 1_545 S
C4443 C4442 1.388 . S
C4443 C4444 1.390 . S
C4444 C4443 1.390 . S
C4444 C4445 1.394 . S
C4444 C4450 1.465 . S
C4445 C4440 1.399 . S
C4445 C4444 1.394 . S
C4445 C4446 1.516 . S
C4446 C4445 1.516 . S
C4446 C4447 1.502 . S
C4446 C4448 1.561 . S
C4446 C4449 1.526 . S
C4447 H4431 0.959 . S
C4447 H4432 0.959 . S
C4447 H4433 0.961 . S
C4447 C4446 1.502 . S
C4448 H4434 0.960 . S
C4448 H4435 0.961 . S
C4448 H4436 0.959 . S
C4448 C4446 1.561 . S
C4449 C4446 1.526 . S
C4449 C4450 1.396 . S
C4449 C4454 1.390 . S
C4450 C4444 1.465 . S
C4450 C4449 1.396 . S
C4450 C4451 1.399 . S
C4451 H4437 0.929 1_545 S
C4451 C4450 1.399 . S
C4451 C4452 1.385 . S
C4452 H4438 0.931 1_545 S
C4452 C4451 1.385 . S
C4452 C4453 1.389 . S
C4453 C4452 1.389 . S
C4453 C4454 1.387 . S
C4454 H4439 0.930 . S
C4454 C4449 1.390 . S
C4454 C4453 1.387 . S
H4455 C4467 0.930 . S
H4456 C4469 0.930 . S
H4457 C4470 0.930 . S
H4458 C4474 0.959 . S
H4459 C4474 0.959 . S
H4460 C4474 0.961 . S
H4461 C4475 0.960 . S
H4462 C4475 0.961 . S
H4463 C4475 0.959 . S
H4464 C4478 0.929 . S
H4465 C4479 0.931 . S
H4466 C4481 0.930 . S
C4467 H4455 0.930 . S
C4467 C4468 1.399 . S
C4467 C4472 1.399 . S
C4468 C4467 1.399 . S
C4468 C4469 1.376 . S
C4469 H4456 0.930 . S
C4469 C4468 1.376 . S
C4469 C4470 1.388 . S
C4470 H4457 0.930 . S
C4470 C4469 1.388 . S
C4470 C4471 1.390 . S
C4471 C4470 1.390 . S
C4471 C4472 1.394 . S
C4471 C4477 1.465 . S
C4472 C4467 1.399 . S
C4472 C4471 1.394 . S
C4472 C4473 1.516 . S
C4473 C4472 1.516 . S
C4473 C4474 1.502 . S
C4473 C4475 1.561 . S
C4473 C4476 1.526 . S
C4474 H4458 0.959 . S
C4474 H4459 0.959 . S
C4474 H4460 0.961 . S
C4474 C4473 1.502 . S
C4475 H4461 0.960 . S
C4475 H4462 0.961 . S
C4475 H4463 0.959 . S
C4475 C4473 1.561 . S
C4476 C4473 1.526 . S
C4476 C4477 1.396 . S
C4476 C4481 1.390 . S
C4477 C4471 1.465 . S
C4477 C4476 1.396 . S
C4477 C4478 1.399 . S
C4478 H4464 0.929 . S
C4478 C4477 1.399 . S
C4478 C4479 1.385 . S
C4479 H4465 0.931 . S
C4479 C4478 1.385 . S
C4479 C4480 1.389 . S
C4480 C4479 1.389 . S
C4480 C4481 1.387 . S
C4481 H4466 0.930 . S
C4481 C4476 1.390 . S
C4481 C4480 1.387 . S
H4482 C4494 0.930 . S
H4483 C4496 0.930 . S
H4484 C4497 0.930 . S
H4485 C4501 0.959 . S
H4486 C4501 0.959 . S
H4487 C4501 0.961 . S
H4488 C4502 0.960 . S
H4489 C4502 0.961 . S
H4490 C4502 0.959 . S
H4491 C4505 0.929 . S
H4492 C4506 0.931 . S
H4493 C4508 0.930 . S
C4494 H4482 0.930 . S
C4494 C4495 1.399 . S
C4494 C4499 1.399 . S
C4495 C4494 1.399 . S
C4495 C4496 1.376 1_545 S
C4496 H4483 0.930 . S
C4496 C4495 1.376 1_565 S
C4496 C4497 1.388 . S
C4497 H4484 0.930 . S
C4497 C4496 1.388 . S
C4497 C4498 1.356 1_565 S
C4498 C4497 1.356 1_545 S
C4498 C4499 1.437 . S
C4498 C4504 1.465 . S
C4499 C4494 1.399 . S
C4499 C4498 1.437 . S
C4499 C4500 1.516 . S
C4500 C4499 1.516 . S
C4500 C4501 1.502 . S
C4500 C4502 1.561 . S
C4500 C4503 1.526 . S
C4501 H4485 0.959 . S
C4501 H4486 0.959 . S
C4501 H4487 0.961 . S
C4501 C4500 1.502 . S
C4502 H4488 0.960 . S
C4502 H4489 0.961 . S
C4502 H4490 0.959 . S
C4502 C4500 1.561 . S
C4503 C4500 1.526 . S
C4503 C4504 1.429 . S
C4503 C4508 1.390 . S
C4504 C4498 1.465 . S
C4504 C4503 1.429 . S
C4504 C4505 1.372 1_545 S
C4505 H4491 0.929 . S
C4505 C4504 1.372 1_565 S
C4505 C4506 1.385 . S
C4506 H4492 0.931 . S
C4506 C4505 1.385 . S
C4506 C4507 1.389 1_565 S
C4507 C4506 1.389 1_545 S
C4507 C4508 1.387 . S
C4508 H4493 0.930 . S
C4508 C4503 1.390 . S
C4508 C4507 1.387 . S
H4509 C4521 0.930 . S
H4510 C4523 0.930 . S
H4511 C4524 0.930 . S
H4512 C4528 0.959 . S
H4513 C4528 0.959 . S
H4514 C4528 0.961 . S
H4515 C4529 0.960 . S
H4516 C4529 0.961 . S
H4517 C4529 0.959 . S
H4518 C4532 0.929 . S
H4519 C4533 0.931 . S
H4520 C4535 0.930 . S
C4521 H4509 0.930 . S
C4521 C4522 1.399 . S
C4521 C4526 1.399 . S
C4522 C4521 1.399 . S
C4522 C4523 1.376 . S
C4523 H4510 0.930 . S
C4523 C4522 1.376 . S
C4523 C4524 1.388 . S
C4524 H4511 0.930 . S
C4524 C4523 1.388 . S
C4524 C4525 1.390 . S
C4525 C4524 1.390 . S
C4525 C4526 1.394 . S
C4525 C4531 1.465 . S
C4526 C4521 1.399 . S
C4526 C4525 1.394 . S
C4526 C4527 1.516 . S
C4527 C4526 1.516 . S
C4527 C4528 1.502 . S
C4527 C4529 1.561 . S
C4527 C4530 1.526 . S
C4528 H4512 0.959 . S
C4528 H4513 0.959 . S
C4528 H4514 0.961 . S
C4528 C4527 1.502 . S
C4529 H4515 0.960 . S
C4529 H4516 0.961 . S
C4529 H4517 0.959 . S
C4529 C4527 1.561 . S
C4530 C4527 1.526 . S
C4530 C4531 1.396 . S
C4530 C4535 1.390 . S
C4531 C4525 1.465 . S
C4531 C4530 1.396 . S
C4531 C4532 1.399 . S
C4532 H4518 0.929 . S
C4532 C4531 1.399 . S
C4532 C4533 1.385 . S
C4533 H4519 0.931 . S
C4533 C4532 1.385 . S
C4533 C4534 1.389 . S
C4534 C4533 1.389 . S
C4534 C4535 1.387 . S
C4535 H4520 0.930 . S
C4535 C4530 1.390 . S
C4535 C4534 1.387 . S
H4536 C4548 0.930 . S
H4537 C4550 0.930 . S
H4538 C4551 0.930 . S
H4539 C4555 0.959 . S
H4540 C4555 0.959 . S
H4541 C4555 0.961 . S
H4542 C4556 0.960 . S
H4543 C4556 0.961 . S
H4544 C4556 0.959 . S
H4545 C4559 0.929 . S
H4546 C4560 0.931 . S
H4547 C4562 0.930 . S
C4548 H4536 0.930 . S
C4548 C4549 1.399 . S
C4548 C4553 1.399 . S
C4549 C4548 1.399 . S
C4549 C4550 1.376 . S
C4550 H4537 0.930 . S
C4550 C4549 1.376 . S
C4550 C4551 1.388 . S
C4551 H4538 0.930 . S
C4551 C4550 1.388 . S
C4551 C4552 1.390 . S
C4552 C4551 1.390 . S
C4552 C4553 1.394 . S
C4552 C4558 1.465 . S
C4553 C4548 1.399 . S
C4553 C4552 1.394 . S
C4553 C4554 1.516 . S
C4554 C4553 1.516 . S
C4554 C4555 1.502 . S
C4554 C4556 1.561 . S
C4554 C4557 1.526 . S
C4555 H4539 0.959 . S
C4555 H4540 0.959 . S
C4555 H4541 0.961 . S
C4555 C4554 1.502 . S
C4556 H4542 0.960 . S
C4556 H4543 0.961 . S
C4556 H4544 0.959 . S
C4556 C4554 1.561 . S
C4557 C4554 1.526 . S
C4557 C4558 1.396 . S
C4557 C4562 1.390 . S
C4558 C4552 1.465 . S
C4558 C4557 1.396 . S
C4558 C4559 1.399 . S
C4559 H4545 0.929 . S
C4559 C4558 1.399 . S
C4559 C4560 1.385 . S
C4560 H4546 0.931 . S
C4560 C4559 1.385 . S
C4560 C4561 1.389 . S
C4561 C4560 1.389 . S
C4561 C4562 1.387 . S
C4562 H4547 0.930 . S
C4562 C4557 1.390 . S
C4562 C4561 1.387 . S
H4563 C4575 0.930 . S
H4564 C4577 0.930 . S
H4565 C4578 0.930 . S
H4566 C4582 0.959 . S
H4567 C4582 0.959 . S
H4568 C4582 0.961 . S
H4569 C4583 0.960 . S
H4570 C4583 0.961 . S
H4571 C4583 0.965 . S
H4572 C4586 0.929 . S
H4573 C4587 0.931 . S
H4574 C4589 0.930 . S
C4575 H4563 0.930 . S
C4575 C4576 1.399 . S
C4575 C4580 1.399 . S
C4576 C4575 1.399 . S
C4576 C4577 1.376 . S
C4577 H4564 0.930 . S
C4577 C4576 1.376 . S
C4577 C4578 1.388 . S
C4578 H4565 0.930 . S
C4578 C4577 1.388 . S
C4578 C4579 1.390 . S
C4579 C4578 1.390 . S
C4579 C4580 1.394 . S
C4579 C4585 1.465 . S
C4580 C4575 1.399 . S
C4580 C4579 1.394 . S
C4580 C4581 1.516 . S
C4581 C4580 1.516 . S
C4581 C4582 1.502 . S
C4581 C4583 1.561 . S
C4581 C4584 1.526 . S
C4582 H4566 0.959 . S
C4582 H4567 0.959 . S
C4582 H4568 0.961 . S
C4582 C4581 1.502 . S
C4583 H4569 0.960 . S
C4583 H4570 0.961 . S
C4583 H4571 0.965 . S
C4583 C4581 1.561 . S
C4584 C4581 1.526 . S
C4584 C4585 1.396 . S
C4584 C4589 1.390 . S
C4585 C4579 1.465 . S
C4585 C4584 1.396 . S
C4585 C4586 1.399 . S
C4586 H4572 0.929 . S
C4586 C4585 1.399 . S
C4586 C4587 1.385 . S
C4587 H4573 0.931 . S
C4587 C4586 1.385 . S
C4587 C4588 1.389 . S
C4588 C4587 1.389 . S
C4588 C4589 1.387 . S
C4589 H4574 0.930 . S
C4589 C4584 1.390 . S
C4589 C4588 1.387 . S
H4590 C4602 0.930 . S
H4591 C4604 0.930 . S
H4592 C4605 0.930 . S
H4593 C4609 0.959 . S
H4594 C4609 0.959 . S
H4595 C4609 0.961 . S
H4596 C4610 0.960 . S
H4597 C4610 0.961 . S
H4598 C4610 0.959 . S
H4599 C4613 0.929 . S
H4600 C4614 0.931 . S
H4601 C4616 0.930 . S
C4602 H4590 0.930 . S
C4602 C4603 1.399 . S
C4602 C4607 1.399 . S
C4603 C4602 1.399 . S
C4603 C4604 1.376 . S
C4604 H4591 0.930 . S
C4604 C4603 1.376 . S
C4604 C4605 1.388 . S
C4605 H4592 0.930 . S
C4605 C4604 1.388 . S
C4605 C4606 1.390 . S
C4606 C4605 1.390 . S
C4606 C4607 1.394 . S
C4606 C4612 1.465 . S
C4607 C4602 1.399 . S
C4607 C4606 1.394 . S
C4607 C4608 1.516 . S
C4608 C4607 1.516 . S
C4608 C4609 1.502 . S
C4608 C4610 1.561 . S
C4608 C4611 1.526 . S
C4609 H4593 0.959 . S
C4609 H4594 0.959 . S
C4609 H4595 0.961 . S
C4609 C4608 1.502 . S
C4610 H4596 0.960 . S
C4610 H4597 0.961 . S
C4610 H4598 0.959 . S
C4610 C4608 1.561 . S
C4611 C4608 1.526 . S
C4611 C4612 1.396 . S
C4611 C4616 1.390 . S
C4612 C4606 1.465 . S
C4612 C4611 1.396 . S
C4612 C4613 1.399 . S
C4613 H4599 0.929 . S
C4613 C4612 1.399 . S
C4613 C4614 1.385 . S
C4614 H4600 0.931 . S
C4614 C4613 1.385 . S
C4614 C4615 1.389 . S
C4615 C4614 1.389 . S
C4615 C4616 1.387 . S
C4616 H4601 0.930 . S
C4616 C4611 1.390 . S
C4616 C4615 1.387 . S
H4617 C4629 0.930 . S
H4618 C4631 0.930 . S
H4619 C4632 0.930 . S
H4620 C4636 0.959 . S
H4621 C4636 0.959 . S
H4622 C4636 0.961 . S
H4623 C4637 0.960 . S
H4624 C4637 0.961 . S
H4625 C4637 0.959 . S
H4626 C4640 0.929 . S
H4627 C4641 0.931 . S
H4628 C4643 0.930 . S
C4629 H4617 0.930 . S
C4629 C4630 1.399 . S
C4629 C4634 1.399 . S
C4630 C4629 1.399 . S
C4630 C4631 1.376 . S
C4631 H4618 0.930 . S
C4631 C4630 1.376 . S
C4631 C4632 1.388 . S
C4632 H4619 0.930 . S
C4632 C4631 1.388 . S
C4632 C4633 1.390 . S
C4633 C4632 1.390 . S
C4633 C4634 1.394 . S
C4633 C4639 1.465 . S
C4634 C4629 1.399 . S
C4634 C4633 1.394 . S
C4634 C4635 1.516 . S
C4635 C4634 1.516 . S
C4635 C4636 1.502 . S
C4635 C4637 1.561 . S
C4635 C4638 1.526 . S
C4636 H4620 0.959 . S
C4636 H4621 0.959 . S
C4636 H4622 0.961 . S
C4636 C4635 1.502 . S
C4637 H4623 0.960 . S
C4637 H4624 0.961 . S
C4637 H4625 0.959 . S
C4637 C4635 1.561 . S
C4638 C4635 1.526 . S
C4638 C4639 1.396 . S
C4638 C4643 1.390 . S
C4639 C4633 1.465 . S
C4639 C4638 1.396 . S
C4639 C4640 1.399 . S
C4640 H4626 0.929 . S
C4640 C4639 1.399 . S
C4640 C4641 1.385 . S
C4641 H4627 0.931 . S
C4641 C4640 1.385 . S
C4641 C4642 1.389 . S
C4642 C4641 1.389 . S
C4642 C4643 1.387 . S
C4643 H4628 0.930 . S
C4643 C4638 1.390 . S
C4643 C4642 1.387 . S
H4644 C4656 0.930 . S
H4645 C4658 0.930 . S
H4646 C4659 0.930 . S
H4647 C4663 0.959 . S
H4648 C4663 0.959 . S
H4649 C4663 0.961 . S
H4650 C4664 0.960 . S
H4651 C4664 0.961 . S
H4652 C4664 0.959 . S
H4653 C4667 0.929 . S
H4654 C4668 0.931 . S
H4655 C4670 0.930 . S
C4656 H4644 0.930 . S
C4656 C4657 1.399 . S
C4656 C4661 1.399 . S
C4657 C4656 1.399 . S
C4657 C4658 1.376 . S
C4658 H4645 0.930 . S
C4658 C4657 1.376 . S
C4658 C4659 1.388 . S
C4659 H4646 0.930 . S
C4659 C4658 1.388 . S
C4659 C4660 1.390 . S
C4660 C4659 1.390 . S
C4660 C4661 1.394 . S
C4660 C4666 1.465 . S
C4661 C4656 1.399 . S
C4661 C4660 1.394 . S
C4661 C4662 1.516 . S
C4662 C4661 1.516 . S
C4662 C4663 1.502 . S
C4662 C4664 1.561 . S
C4662 C4665 1.526 . S
C4663 H4647 0.959 . S
C4663 H4648 0.959 . S
C4663 H4649 0.961 . S
C4663 C4662 1.502 . S
C4664 H4650 0.960 . S
C4664 H4651 0.961 . S
C4664 H4652 0.959 . S
C4664 C4662 1.561 . S
C4665 C4662 1.526 . S
C4665 C4666 1.396 . S
C4665 C4670 1.390 . S
C4666 C4660 1.465 . S
C4666 C4665 1.396 . S
C4666 C4667 1.399 . S
C4667 H4653 0.929 . S
C4667 C4666 1.399 . S
C4667 C4668 1.385 . S
C4668 H4654 0.931 . S
C4668 C4667 1.385 . S
C4668 C4669 1.389 . S
C4669 C4668 1.389 . S
C4669 C4670 1.387 . S
C4670 H4655 0.930 . S
C4670 C4665 1.390 . S
C4670 C4669 1.387 . S
H4671 C4683 0.930 . S
H4672 C4685 0.930 . S
H4673 C4686 0.930 . S
H4674 C4690 0.959 . S
H4675 C4690 0.959 . S
H4676 C4690 0.961 . S
H4677 C4691 0.960 . S
H4678 C4691 0.961 . S
H4679 C4691 0.959 . S
H4680 C4694 0.929 . S
H4681 C4695 0.931 . S
H4682 C4697 0.930 . S
C4683 H4671 0.930 . S
C4683 C4684 1.399 . S
C4683 C4688 1.399 . S
C4684 C4683 1.399 . S
C4684 C4685 1.376 . S
C4685 H4672 0.930 . S
C4685 C4684 1.376 . S
C4685 C4686 1.388 . S
C4686 H4673 0.930 . S
C4686 C4685 1.388 . S
C4686 C4687 1.390 . S
C4687 C4686 1.390 . S
C4687 C4688 1.394 . S
C4687 C4693 1.465 . S
C4688 C4683 1.399 . S
C4688 C4687 1.394 . S
C4688 C4689 1.516 . S
C4689 C4688 1.516 . S
C4689 C4690 1.502 . S
C4689 C4691 1.561 . S
C4689 C4692 1.526 . S
C4690 H4674 0.959 . S
C4690 H4675 0.959 . S
C4690 H4676 0.961 . S
C4690 C4689 1.502 . S
C4691 H4677 0.960 . S
C4691 H4678 0.961 . S
C4691 H4679 0.959 . S
C4691 C4689 1.561 . S
C4692 C4689 1.526 . S
C4692 C4693 1.396 . S
C4692 C4697 1.390 . S
C4693 C4687 1.465 . S
C4693 C4692 1.396 . S
C4693 C4694 1.399 . S
C4694 H4680 0.929 . S
C4694 C4693 1.399 . S
C4694 C4695 1.385 . S
C4695 H4681 0.931 . S
C4695 C4694 1.385 . S
C4695 C4696 1.389 . S
C4696 C4695 1.389 . S
C4696 C4697 1.387 . S
C4697 H4682 0.930 . S
C4697 C4692 1.390 . S
C4697 C4696 1.387 . S
H4698 C4710 0.930 . S
H4699 C4712 0.930 . S
H4700 C4713 0.930 . S
H4701 C4717 0.959 . S
H4702 C4717 0.959 . S
H4703 C4717 0.961 . S
H4704 C4718 0.960 . S
H4705 C4718 0.961 . S
H4706 C4718 0.959 . S
H4707 C4721 0.929 . S
H4708 C4722 0.931 . S
H4709 C4724 0.930 . S
C4710 H4698 0.930 . S
C4710 C4711 1.399 . S
C4710 C4715 1.399 . S
C4711 C4710 1.399 . S
C4711 C4712 1.376 . S
C4712 H4699 0.930 . S
C4712 C4711 1.376 . S
C4712 C4713 1.388 . S
C4713 H4700 0.930 . S
C4713 C4712 1.388 . S
C4713 C4714 1.390 . S
C4714 C4713 1.390 . S
C4714 C4715 1.394 . S
C4714 C4720 1.465 . S
C4715 C4710 1.399 . S
C4715 C4714 1.394 . S
C4715 C4716 1.516 . S
C4716 C4715 1.516 . S
C4716 C4717 1.502 . S
C4716 C4718 1.561 . S
C4716 C4719 1.526 . S
C4717 H4701 0.959 . S
C4717 H4702 0.959 . S
C4717 H4703 0.961 . S
C4717 C4716 1.502 . S
C4718 H4704 0.960 . S
C4718 H4705 0.961 . S
C4718 H4706 0.959 . S
C4718 C4716 1.561 . S
C4719 C4716 1.526 . S
C4719 C4720 1.396 . S
C4719 C4724 1.390 . S
C4720 C4714 1.465 . S
C4720 C4719 1.396 . S
C4720 C4721 1.399 . S
C4721 H4707 0.929 . S
C4721 C4720 1.399 . S
C4721 C4722 1.385 . S
C4722 H4708 0.931 . S
C4722 C4721 1.385 . S
C4722 C4723 1.389 . S
C4723 C4722 1.389 . S
C4723 C4724 1.387 . S
C4724 H4709 0.930 . S
C4724 C4719 1.390 . S
C4724 C4723 1.387 . S
H4725 C4737 0.930 . S
H4726 C4739 0.930 . S
H4727 C4740 0.930 . S
H4728 C4744 0.959 . S
H4729 C4744 0.959 . S
H4730 C4744 0.961 . S
H4731 C4745 0.960 . S
H4732 C4745 0.961 . S
H4733 C4745 0.959 . S
H4734 C4748 0.929 . S
H4735 C4749 0.931 . S
H4736 C4751 0.930 . S
C4737 H4725 0.930 . S
C4737 C4738 1.399 . S
C4737 C4742 1.399 . S
C4738 C4737 1.399 . S
C4738 C4739 1.376 . S
C4739 H4726 0.930 . S
C4739 C4738 1.376 . S
C4739 C4740 1.388 . S
C4740 H4727 0.930 . S
C4740 C4739 1.388 . S
C4740 C4741 1.390 . S
C4741 C4740 1.390 . S
C4741 C4742 1.394 . S
C4741 C4747 1.465 . S
C4742 C4737 1.399 . S
C4742 C4741 1.394 . S
C4742 C4743 1.516 . S
C4743 C4742 1.516 . S
C4743 C4744 1.502 . S
C4743 C4745 1.561 . S
C4743 C4746 1.526 . S
C4744 H4728 0.959 . S
C4744 H4729 0.959 . S
C4744 H4730 0.961 . S
C4744 C4743 1.502 . S
C4745 H4731 0.960 . S
C4745 H4732 0.961 . S
C4745 H4733 0.959 . S
C4745 C4743 1.561 . S
C4746 C4743 1.526 . S
C4746 C4747 1.396 . S
C4746 C4751 1.390 . S
C4747 C4741 1.465 . S
C4747 C4746 1.396 . S
C4747 C4748 1.399 . S
C4748 H4734 0.929 . S
C4748 C4747 1.399 . S
C4748 C4749 1.385 . S
C4749 H4735 0.931 . S
C4749 C4748 1.385 . S
C4749 C4750 1.389 . S
C4750 C4749 1.389 . S
C4750 C4751 1.387 . S
C4751 H4736 0.930 . S
C4751 C4746 1.390 . S
C4751 C4750 1.387 . S
H4752 C4764 0.930 . S
H4753 C4766 0.930 . S
H4754 C4767 0.930 . S
H4755 C4771 0.959 . S
H4756 C4771 0.959 . S
H4757 C4771 0.961 . S
H4758 C4772 0.960 . S
H4759 C4772 0.961 . S
H4760 C4772 0.959 . S
H4761 C4775 0.929 . S
H4762 C4776 0.931 . S
H4763 C4778 0.930 . S
C4764 H4752 0.930 . S
C4764 C4765 1.399 . S
C4764 C4769 1.399 . S
C4765 C4764 1.399 . S
C4765 C4766 1.376 . S
C4766 H4753 0.930 . S
C4766 C4765 1.376 . S
C4766 C4767 1.388 . S
C4767 H4754 0.930 . S
C4767 C4766 1.388 . S
C4767 C4768 1.390 . S
C4768 C4767 1.390 . S
C4768 C4769 1.394 . S
C4768 C4774 1.465 . S
C4769 C4764 1.399 . S
C4769 C4768 1.394 . S
C4769 C4770 1.516 . S
C4770 C4769 1.516 . S
C4770 C4771 1.502 . S
C4770 C4772 1.561 . S
C4770 C4773 1.526 . S
C4771 H4755 0.959 . S
C4771 H4756 0.959 . S
C4771 H4757 0.961 . S
C4771 C4770 1.502 . S
C4772 H4758 0.960 . S
C4772 H4759 0.961 . S
C4772 H4760 0.959 . S
C4772 C4770 1.561 . S
C4773 C4770 1.526 . S
C4773 C4774 1.396 . S
C4773 C4778 1.390 . S
C4774 C4768 1.465 . S
C4774 C4773 1.396 . S
C4774 C4775 1.399 . S
C4775 H4761 0.929 . S
C4775 C4774 1.399 . S
C4775 C4776 1.385 . S
C4776 H4762 0.931 . S
C4776 C4775 1.385 . S
C4776 C4777 1.389 . S
C4777 C4776 1.389 . S
C4777 C4778 1.387 . S
C4778 H4763 0.930 . S
C4778 C4773 1.390 . S
C4778 C4777 1.387 . S
H4779 C4791 0.930 . S
H4780 C4793 0.930 . S
H4781 C4794 0.930 . S
H4782 C4798 0.959 . S
H4783 C4798 0.959 . S
H4784 C4798 0.961 . S
H4785 C4799 0.960 . S
H4786 C4799 0.961 . S
H4787 C4799 0.959 . S
H4788 C4802 0.929 . S
H4789 C4803 0.931 . S
H4790 C4805 0.930 . S
C4791 H4779 0.930 . S
C4791 C4792 1.399 . S
C4791 C4796 1.399 . S
C4792 C4791 1.399 . S
C4792 C4793 1.376 . S
C4793 H4780 0.930 . S
C4793 C4792 1.376 . S
C4793 C4794 1.388 . S
C4794 H4781 0.930 . S
C4794 C4793 1.388 . S
C4794 C4795 1.390 . S
C4795 C4794 1.390 . S
C4795 C4796 1.394 . S
C4795 C4801 1.465 . S
C4796 C4791 1.399 . S
C4796 C4795 1.394 . S
C4796 C4797 1.516 . S
C4797 C4796 1.516 . S
C4797 C4798 1.502 . S
C4797 C4799 1.561 . S
C4797 C4800 1.526 . S
C4798 H4782 0.959 . S
C4798 H4783 0.959 . S
C4798 H4784 0.961 . S
C4798 C4797 1.502 . S
C4799 H4785 0.960 . S
C4799 H4786 0.961 . S
C4799 H4787 0.959 . S
C4799 C4797 1.561 . S
C4800 C4797 1.526 . S
C4800 C4801 1.396 . S
C4800 C4805 1.390 . S
C4801 C4795 1.465 . S
C4801 C4800 1.396 . S
C4801 C4802 1.399 . S
C4802 H4788 0.929 . S
C4802 C4801 1.399 . S
C4802 C4803 1.385 . S
C4803 H4789 0.931 . S
C4803 C4802 1.385 . S
C4803 C4804 1.389 . S
C4804 C4803 1.389 . S
C4804 C4805 1.387 . S
C4805 H4790 0.930 . S
C4805 C4800 1.390 . S
C4805 C4804 1.387 . S
H4806 C4818 0.930 . S
H4807 C4820 0.930 . S
H4808 C4821 0.930 . S
H4809 C4825 0.959 . S
H4810 C4825 0.959 . S
H4811 C4825 0.961 . S
H4812 C4826 0.960 . S
H4813 C4826 0.961 . S
H4814 C4826 0.959 1_655 S
H4815 C4829 0.929 . S
H4816 C4830 0.931 . S
H4817 C4832 0.930 . S
C4818 H4806 0.930 . S
C4818 C4819 1.399 1_556 S
C4818 C4823 1.399 . S
C4819 C4818 1.399 1_554 S
C4819 C4820 1.376 . S
C4820 H4807 0.930 . S
C4820 C4819 1.376 . S
C4820 C4821 1.388 . S
C4821 H4808 0.930 . S
C4821 C4820 1.388 . S
C4821 C4822 1.390 . S
C4822 C4821 1.390 . S
C4822 C4823 1.394 1_554 S
C4822 C4828 1.465 . S
C4823 C4818 1.399 . S
C4823 C4822 1.394 1_556 S
C4823 C4824 1.516 . S
C4824 C4823 1.516 . S
C4824 C4825 1.502 . S
C4824 C4826 1.561 . S
C4824 C4827 1.529 . S
C4825 H4809 0.959 . S
C4825 H4810 0.959 . S
C4825 H4811 0.961 . S
C4825 C4824 1.502 . S
C4826 H4812 0.960 . S
C4826 H4813 0.961 . S
C4826 H4814 0.959 1_455 S
C4826 C4824 1.561 . S
C4827 C4824 1.529 . S
C4827 C4828 1.392 1_556 S
C4827 C4832 1.390 . S
C4828 C4822 1.465 . S
C4828 C4827 1.392 1_554 S
C4828 C4829 1.399 . S
C4829 H4815 0.929 . S
C4829 C4828 1.399 . S
C4829 C4830 1.385 . S
C4830 H4816 0.931 . S
C4830 C4829 1.385 . S
C4830 C4831 1.389 . S
C4831 C4830 1.389 . S
C4831 C4832 1.387 1_554 S
C4832 H4817 0.930 . S
C4832 C4827 1.390 . S
C4832 C4831 1.387 1_556 S
H4833 C4845 0.930 . S
H4834 C4847 0.930 . S
H4835 C4848 0.930 . S
H4836 C4852 0.959 . S
H4837 C4852 0.959 . S
H4838 C4852 0.961 . S
H4839 C4853 0.960 . S
H4840 C4853 0.961 . S
H4841 C4853 0.959 . S
H4842 C4856 0.929 . S
H4843 C4857 0.931 . S
H4844 C4859 0.930 . S
C4845 H4833 0.930 . S
C4845 C4846 1.399 . S
C4845 C4850 1.399 . S
C4846 C4845 1.399 . S
C4846 C4847 1.376 . S
C4847 H4834 0.930 . S
C4847 C4846 1.376 . S
C4847 C4848 1.388 . S
C4848 H4835 0.930 . S
C4848 C4847 1.388 . S
C4848 C4849 1.390 . S
C4849 C4848 1.390 . S
C4849 C4850 1.394 . S
C4849 C4855 1.465 . S
C4850 C4845 1.399 . S
C4850 C4849 1.394 . S
C4850 C4851 1.516 . S
C4851 C4850 1.516 . S
C4851 C4852 1.502 . S
C4851 C4853 1.561 . S
C4851 C4854 1.526 . S
C4852 H4836 0.959 . S
C4852 H4837 0.959 . S
C4852 H4838 0.961 . S
C4852 C4851 1.502 . S
C4853 H4839 0.960 . S
C4853 H4840 0.961 . S
C4853 H4841 0.959 . S
C4853 C4851 1.561 . S
C4854 C4851 1.526 . S
C4854 C4855 1.396 . S
C4854 C4859 1.390 . S
C4855 C4849 1.465 . S
C4855 C4854 1.396 . S
C4855 C4856 1.399 . S
C4856 H4842 0.929 . S
C4856 C4855 1.399 . S
C4856 C4857 1.385 . S
C4857 H4843 0.931 . S
C4857 C4856 1.385 . S
C4857 C4858 1.389 . S
C4858 C4857 1.389 . S
C4858 C4859 1.387 . S
C4859 H4844 0.930 . S
C4859 C4854 1.390 . S
C4859 C4858 1.387 . S
H4860 C4872 0.930 . S
H4861 C4874 0.930 . S
H4862 C4875 0.930 . S
H4863 C4879 0.959 . S
H4864 C4879 0.959 . S
H4865 C4879 0.961 . S
H4866 C4880 0.960 . S
H4867 C4880 0.961 . S
H4868 C4880 0.959 . S
H4869 C4883 0.929 . S
H4870 C4884 0.931 . S
H4871 C4886 0.930 . S
C4872 H4860 0.930 . S
C4872 C4873 1.399 . S
C4872 C4877 1.399 . S
C4873 C4872 1.399 . S
C4873 C4874 1.376 . S
C4874 H4861 0.930 . S
C4874 C4873 1.376 . S
C4874 C4875 1.388 . S
C4875 H4862 0.930 . S
C4875 C4874 1.388 . S
C4875 C4876 1.390 . S
C4876 C4875 1.390 . S
C4876 C4877 1.394 . S
C4876 C4882 1.465 . S
C4877 C4872 1.399 . S
C4877 C4876 1.394 . S
C4877 C4878 1.516 . S
C4878 C4877 1.516 . S
C4878 C4879 1.502 . S
C4878 C4880 1.561 . S
C4878 C4881 1.526 . S
C4879 H4863 0.959 . S
C4879 H4864 0.959 . S
C4879 H4865 0.961 . S
C4879 C4878 1.502 . S
C4880 H4866 0.960 . S
C4880 H4867 0.961 . S
C4880 H4868 0.959 . S
C4880 C4878 1.561 . S
C4881 C4878 1.526 . S
C4881 C4882 1.396 . S
C4881 C4886 1.390 . S
C4882 C4876 1.465 . S
C4882 C4881 1.396 . S
C4882 C4883 1.399 . S
C4883 H4869 0.929 . S
C4883 C4882 1.399 . S
C4883 C4884 1.385 . S
C4884 H4870 0.931 . S
C4884 C4883 1.385 . S
C4884 C4885 1.389 . S
C4885 C4884 1.389 . S
C4885 C4886 1.387 . S
C4886 H4871 0.930 . S
C4886 C4881 1.390 . S
C4886 C4885 1.387 . S
H4887 C4899 0.930 . S
H4888 C4901 0.930 . S
H4889 C4902 0.930 . S
H4890 C4906 0.959 . S
H4891 C4906 0.959 . S
H4892 C4906 0.961 . S
H4893 C4907 0.960 . S
H4894 C4907 0.961 . S
H4895 C4907 0.959 . S
H4896 C4910 0.929 . S
H4897 C4911 0.931 . S
H4898 C4913 0.930 . S
C4899 H4887 0.930 . S
C4899 C4900 1.399 . S
C4899 C4904 1.399 . S
C4900 C4899 1.399 . S
C4900 C4901 1.376 . S
C4901 H4888 0.930 . S
C4901 C4900 1.376 . S
C4901 C4902 1.388 . S
C4902 H4889 0.930 . S
C4902 C4901 1.388 . S
C4902 C4903 1.390 . S
C4903 C4902 1.390 . S
C4903 C4904 1.394 . S
C4903 C4909 1.465 . S
C4904 C4899 1.399 . S
C4904 C4903 1.394 . S
C4904 C4905 1.516 . S
C4905 C4904 1.516 . S
C4905 C4906 1.502 . S
C4905 C4907 1.561 . S
C4905 C4908 1.526 . S
C4906 H4890 0.959 . S
C4906 H4891 0.959 . S
C4906 H4892 0.961 . S
C4906 C4905 1.502 . S
C4907 H4893 0.960 . S
C4907 H4894 0.961 . S
C4907 H4895 0.959 . S
C4907 C4905 1.561 . S
C4908 C4905 1.526 . S
C4908 C4909 1.396 . S
C4908 C4913 1.390 . S
C4909 C4903 1.465 . S
C4909 C4908 1.396 . S
C4909 C4910 1.399 . S
C4910 H4896 0.929 . S
C4910 C4909 1.399 . S
C4910 C4911 1.385 . S
C4911 H4897 0.931 . S
C4911 C4910 1.385 . S
C4911 C4912 1.389 . S
C4912 C4911 1.389 . S
C4912 C4913 1.387 . S
C4913 H4898 0.930 . S
C4913 C4908 1.390 . S
C4913 C4912 1.387 . S
H4914 C4926 0.930 . S
H4915 C4928 0.930 . S
H4916 C4929 0.930 . S
H4917 C4933 0.959 . S
H4918 C4933 0.959 . S
H4919 C4933 0.961 . S
H4920 C4934 0.960 . S
H4921 C4934 0.961 . S
H4922 C4934 0.959 1_655 S
H4923 C4937 0.929 . S
H4924 C4938 0.928 1_655 S
H4925 C4940 0.930 . S
C4926 H4914 0.930 . S
C4926 C4927 1.399 . S
C4926 C4931 1.399 . S
C4927 C4926 1.399 . S
C4927 C4928 1.376 1_455 S
C4928 H4915 0.930 . S
C4928 C4927 1.376 1_655 S
C4928 C4929 1.388 . S
C4929 H4916 0.930 . S
C4929 C4928 1.388 . S
C4929 C4930 1.390 1_655 S
C4930 C4929 1.390 1_455 S
C4930 C4931 1.394 . S
C4930 C4936 1.465 . S
C4931 C4926 1.399 . S
C4931 C4930 1.394 . S
C4931 C4932 1.516 . S
C4932 C4931 1.516 . S
C4932 C4933 1.502 . S
C4932 C4934 1.561 . S
C4932 C4935 1.526 . S
C4933 H4917 0.959 . S
C4933 H4918 0.959 . S
C4933 H4919 0.961 . S
C4933 C4932 1.502 . S
C4934 H4920 0.960 . S
C4934 H4921 0.961 . S
C4934 H4922 0.959 1_455 S
C4934 C4932 1.561 . S
C4935 C4932 1.526 . S
C4935 C4936 1.396 . S
C4935 C4940 1.390 . S
C4936 C4930 1.465 . S
C4936 C4935 1.396 . S
C4936 C4937 1.399 1_455 S
C4937 H4923 0.929 . S
C4937 C4936 1.399 1_655 S
C4937 C4938 1.385 1_655 S
C4938 H4924 0.928 1_455 S
C4938 C4937 1.385 1_455 S
C4938 C4939 1.389 . S
C4939 C4938 1.389 . S
C4939 C4940 1.387 . S
C4940 H4925 0.930 . S
C4940 C4935 1.390 . S
C4940 C4939 1.387 . S
H4941 C4953 0.930 . S
H4942 C4955 0.930 . S
H4943 C4956 0.930 . S
H4944 C4960 0.959 . S
H4945 C4960 0.959 . S
H4946 C4960 0.961 . S
H4947 C4961 0.960 . S
H4948 C4961 0.961 . S
H4949 C4961 0.959 . S
H4950 C4964 0.929 . S
H4951 C4965 0.931 . S
H4952 C4967 0.930 . S
C4953 H4941 0.930 . S
C4953 C4954 1.399 . S
C4953 C4958 1.399 . S
C4954 C4953 1.399 . S
C4954 C4955 1.376 . S
C4955 H4942 0.930 . S
C4955 C4954 1.376 . S
C4955 C4956 1.388 . S
C4956 H4943 0.930 . S
C4956 C4955 1.388 . S
C4956 C4957 1.390 . S
C4957 C4956 1.390 . S
C4957 C4958 1.394 . S
C4957 C4963 1.465 . S
C4958 C4953 1.399 . S
C4958 C4957 1.394 . S
C4958 C4959 1.516 . S
C4959 C4958 1.516 . S
C4959 C4960 1.502 . S
C4959 C4961 1.561 . S
C4959 C4962 1.526 . S
C4960 H4944 0.959 . S
C4960 H4945 0.959 . S
C4960 H4946 0.961 . S
C4960 C4959 1.502 . S
C4961 H4947 0.960 . S
C4961 H4948 0.961 . S
C4961 H4949 0.959 . S
C4961 C4959 1.561 . S
C4962 C4959 1.526 . S
C4962 C4963 1.396 . S
C4962 C4967 1.390 . S
C4963 C4957 1.465 . S
C4963 C4962 1.396 . S
C4963 C4964 1.399 . S
C4964 H4950 0.929 . S
C4964 C4963 1.399 . S
C4964 C4965 1.385 . S
C4965 H4951 0.931 . S
C4965 C4964 1.385 . S
C4965 C4966 1.389 . S
C4966 C4965 1.389 . S
C4966 C4967 1.387 . S
C4967 H4952 0.930 . S
C4967 C4962 1.390 . S
C4967 C4966 1.387 . S
H4968 C4980 0.930 . S
H4969 C4982 0.930 . S
H4970 C4983 0.930 . S
H4971 C4987 0.959 . S
H4972 C4987 0.959 . S
H4973 C4987 0.961 . S
H4974 C4988 0.960 . S
H4975 C4988 0.961 . S
H4976 C4988 0.959 . S
H4977 C4991 0.929 . S
H4978 C4992 0.931 . S
H4979 C4994 0.930 . S
C4980 H4968 0.930 . S
C4980 C4981 1.399 . S
C4980 C4985 1.399 . S
C4981 C4980 1.399 . S
C4981 C4982 1.376 . S
C4982 H4969 0.930 . S
C4982 C4981 1.376 . S
C4982 C4983 1.388 . S
C4983 H4970 0.930 . S
C4983 C4982 1.388 . S
C4983 C4984 1.390 . S
C4984 C4983 1.390 . S
C4984 C4985 1.394 . S
C4984 C4990 1.465 . S
C4985 C4980 1.399 . S
C4985 C4984 1.394 . S
C4985 C4986 1.516 . S
C4986 C4985 1.516 . S
C4986 C4987 1.502 . S
C4986 C4988 1.561 . S
C4986 C4989 1.526 . S
C4987 H4971 0.959 . S
C4987 H4972 0.959 . S
C4987 H4973 0.961 . S
C4987 C4986 1.502 . S
C4988 H4974 0.960 . S
C4988 H4975 0.961 . S
C4988 H4976 0.959 . S
C4988 C4986 1.561 . S
C4989 C4986 1.526 . S
C4989 C4990 1.396 . S
C4989 C4994 1.390 . S
C4990 C4984 1.465 . S
C4990 C4989 1.396 . S
C4990 C4991 1.399 . S
C4991 H4977 0.929 . S
C4991 C4990 1.399 . S
C4991 C4992 1.385 . S
C4992 H4978 0.931 . S
C4992 C4991 1.385 . S
C4992 C4993 1.389 . S
C4993 C4992 1.389 . S
C4993 C4994 1.387 . S
C4994 H4979 0.930 . S
C4994 C4989 1.390 . S
C4994 C4993 1.387 . S
H4995 C5007 0.930 . S
H4996 C5009 0.930 . S
H4997 C5010 0.930 . S
H4998 C5014 0.959 . S
H4999 C5014 0.959 . S
H5000 C5014 0.961 . S
H5001 C5015 0.960 . S
H5002 C5015 0.961 . S
H5003 C5015 0.959 . S
H5004 C5018 0.929 . S
H5005 C5019 0.931 . S
H5006 C5021 0.930 . S
C5007 H4995 0.930 . S
C5007 C5008 1.399 . S
C5007 C5012 1.399 . S
C5008 C5007 1.399 . S
C5008 C5009 1.376 . S
C5009 H4996 0.930 . S
C5009 C5008 1.376 . S
C5009 C5010 1.388 . S
C5010 H4997 0.930 . S
C5010 C5009 1.388 . S
C5010 C5011 1.390 . S
C5011 C5010 1.390 . S
C5011 C5012 1.394 . S
C5011 C5017 1.465 . S
C5012 C5007 1.399 . S
C5012 C5011 1.394 . S
C5012 C5013 1.516 . S
C5013 C5012 1.516 . S
C5013 C5014 1.502 . S
C5013 C5015 1.561 . S
C5013 C5016 1.526 . S
C5014 H4998 0.959 . S
C5014 H4999 0.959 . S
C5014 H5000 0.961 . S
C5014 C5013 1.502 . S
C5015 H5001 0.960 . S
C5015 H5002 0.961 . S
C5015 H5003 0.959 . S
C5015 C5013 1.561 . S
C5016 C5013 1.526 . S
C5016 C5017 1.396 . S
C5016 C5021 1.390 . S
C5017 C5011 1.465 . S
C5017 C5016 1.396 . S
C5017 C5018 1.399 . S
C5018 H5004 0.929 . S
C5018 C5017 1.399 . S
C5018 C5019 1.385 . S
C5019 H5005 0.931 . S
C5019 C5018 1.385 . S
C5019 C5020 1.389 . S
C5020 C5019 1.389 . S
C5020 C5021 1.387 . S
C5021 H5006 0.930 . S
C5021 C5016 1.390 . S
C5021 C5020 1.387 . S
H5022 C5034 0.930 . S
H5023 C5036 0.930 . S
H5024 C5037 0.930 . S
H5025 C5041 0.959 . S
H5026 C5041 0.959 . S
H5027 C5041 0.961 . S
H5028 C5042 0.960 . S
H5029 C5042 0.961 . S
H5030 C5042 0.959 . S
H5031 C5045 0.929 . S
H5032 C5046 0.931 . S
H5033 C5048 0.930 . S
C5034 H5022 0.930 . S
C5034 C5035 1.399 . S
C5034 C5039 1.399 . S
C5035 C5034 1.399 . S
C5035 C5036 1.376 . S
C5036 H5023 0.930 . S
C5036 C5035 1.376 . S
C5036 C5037 1.388 . S
C5037 H5024 0.930 . S
C5037 C5036 1.388 . S
C5037 C5038 1.390 . S
C5038 C5037 1.390 . S
C5038 C5039 1.394 . S
C5038 C5044 1.465 . S
C5039 C5034 1.399 . S
C5039 C5038 1.394 . S
C5039 C5040 1.516 . S
C5040 C5039 1.516 . S
C5040 C5041 1.502 . S
C5040 C5042 1.561 . S
C5040 C5043 1.526 . S
C5041 H5025 0.959 . S
C5041 H5026 0.959 . S
C5041 H5027 0.961 . S
C5041 C5040 1.502 . S
C5042 H5028 0.960 . S
C5042 H5029 0.961 . S
C5042 H5030 0.959 . S
C5042 C5040 1.561 . S
C5043 C5040 1.526 . S
C5043 C5044 1.396 . S
C5043 C5048 1.390 . S
C5044 C5038 1.465 . S
C5044 C5043 1.396 . S
C5044 C5045 1.399 . S
C5045 H5031 0.929 . S
C5045 C5044 1.399 . S
C5045 C5046 1.385 . S
C5046 H5032 0.931 . S
C5046 C5045 1.385 . S
C5046 C5047 1.389 . S
C5047 C5046 1.389 . S
C5047 C5048 1.387 . S
C5048 H5033 0.930 . S
C5048 C5043 1.390 . S
C5048 C5047 1.387 . S
H5049 C5061 0.930 . S
H5050 C5063 0.930 . S
H5051 C5064 0.930 . S
H5052 C5068 0.959 . S
H5053 C5068 0.959 . S
H5054 C5068 0.961 . S
H5055 C5069 0.960 . S
H5056 C5069 0.961 . S
H5057 C5069 0.959 . S
H5058 C5072 0.929 . S
H5059 C5073 0.931 . S
H5060 C5075 0.930 . S
C5061 H5049 0.930 . S
C5061 C5062 1.399 . S
C5061 C5066 1.399 . S
C5062 C5061 1.399 . S
C5062 C5063 1.376 . S
C5063 H5050 0.930 . S
C5063 C5062 1.376 . S
C5063 C5064 1.388 . S
C5064 H5051 0.930 . S
C5064 C5063 1.388 . S
C5064 C5065 1.390 . S
C5065 C5064 1.390 . S
C5065 C5066 1.394 . S
C5065 C5071 1.465 . S
C5066 C5061 1.399 . S
C5066 C5065 1.394 . S
C5066 C5067 1.516 . S
C5067 C5066 1.516 . S
C5067 C5068 1.502 . S
C5067 C5069 1.561 . S
C5067 C5070 1.526 . S
C5068 H5052 0.959 . S
C5068 H5053 0.959 . S
C5068 H5054 0.961 . S
C5068 C5067 1.502 . S
C5069 H5055 0.960 . S
C5069 H5056 0.961 . S
C5069 H5057 0.959 . S
C5069 C5067 1.561 . S
C5070 C5067 1.526 . S
C5070 C5071 1.396 . S
C5070 C5075 1.390 . S
C5071 C5065 1.465 . S
C5071 C5070 1.396 . S
C5071 C5072 1.399 . S
C5072 H5058 0.929 . S
C5072 C5071 1.399 . S
C5072 C5073 1.385 . S
C5073 H5059 0.931 . S
C5073 C5072 1.385 . S
C5073 C5074 1.389 . S
C5074 C5073 1.389 . S
C5074 C5075 1.387 . S
C5075 H5060 0.930 . S
C5075 C5070 1.390 . S
C5075 C5074 1.387 . S
H5076 C5088 0.930 . S
H5077 C5090 0.930 . S
H5078 C5091 0.930 . S
H5079 C5095 0.959 . S
H5080 C5095 0.959 . S
H5081 C5095 0.961 . S
H5082 C5096 0.960 . S
H5083 C5096 0.961 . S
H5084 C5096 0.959 . S
H5085 C5099 0.929 . S
H5086 C5100 0.931 . S
H5087 C5102 0.930 . S
C5088 H5076 0.930 . S
C5088 C5089 1.399 . S
C5088 C5093 1.399 . S
C5089 C5088 1.399 . S
C5089 C5090 1.376 . S
C5090 H5077 0.930 . S
C5090 C5089 1.376 . S
C5090 C5091 1.388 . S
C5091 H5078 0.930 . S
C5091 C5090 1.388 . S
C5091 C5092 1.390 . S
C5092 C5091 1.390 . S
C5092 C5093 1.394 . S
C5092 C5098 1.465 . S
C5093 C5088 1.399 . S
C5093 C5092 1.394 . S
C5093 C5094 1.516 . S
C5094 C5093 1.516 . S
C5094 C5095 1.502 . S
C5094 C5096 1.561 . S
C5094 C5097 1.526 . S
C5095 H5079 0.959 . S
C5095 H5080 0.959 . S
C5095 H5081 0.961 . S
C5095 C5094 1.502 . S
C5096 H5082 0.960 . S
C5096 H5083 0.961 . S
C5096 H5084 0.959 . S
C5096 C5094 1.561 . S
C5097 C5094 1.526 . S
C5097 C5098 1.396 . S
C5097 C5102 1.390 . S
C5098 C5092 1.465 . S
C5098 C5097 1.396 . S
C5098 C5099 1.399 . S
C5099 H5085 0.929 . S
C5099 C5098 1.399 . S
C5099 C5100 1.385 . S
C5100 H5086 0.931 . S
C5100 C5099 1.385 . S
C5100 C5101 1.389 . S
C5101 C5100 1.389 . S
C5101 C5102 1.387 . S
C5102 H5087 0.930 . S
C5102 C5097 1.390 . S
C5102 C5101 1.387 . S
H5103 C5115 0.930 . S
H5104 C5117 0.930 . S
H5105 C5118 0.930 . S
H5106 C5122 0.959 . S
H5107 C5122 0.959 . S
H5108 C5122 0.961 . S
H5109 C5123 0.960 . S
H5110 C5123 0.961 . S
H5111 C5123 0.959 . S
H5112 C5126 0.929 . S
H5113 C5127 0.931 . S
H5114 C5129 0.930 . S
C5115 H5103 0.930 . S
C5115 C5116 1.399 . S
C5115 C5120 1.399 . S
C5116 C5115 1.399 . S
C5116 C5117 1.376 . S
C5117 H5104 0.930 . S
C5117 C5116 1.376 . S
C5117 C5118 1.388 . S
C5118 H5105 0.930 . S
C5118 C5117 1.388 . S
C5118 C5119 1.390 . S
C5119 C5118 1.390 . S
C5119 C5120 1.394 . S
C5119 C5125 1.465 . S
C5120 C5115 1.399 . S
C5120 C5119 1.394 . S
C5120 C5121 1.516 . S
C5121 C5120 1.516 . S
C5121 C5122 1.502 . S
C5121 C5123 1.561 . S
C5121 C5124 1.526 . S
C5122 H5106 0.959 . S
C5122 H5107 0.959 . S
C5122 H5108 0.961 . S
C5122 C5121 1.502 . S
C5123 H5109 0.960 . S
C5123 H5110 0.961 . S
C5123 H5111 0.959 . S
C5123 C5121 1.561 . S
C5124 C5121 1.526 . S
C5124 C5125 1.396 . S
C5124 C5129 1.390 . S
C5125 C5119 1.465 . S
C5125 C5124 1.396 . S
C5125 C5126 1.399 . S
C5126 H5112 0.929 . S
C5126 C5125 1.399 . S
C5126 C5127 1.385 . S
C5127 H5113 0.931 . S
C5127 C5126 1.385 . S
C5127 C5128 1.389 . S
C5128 C5127 1.389 . S
C5128 C5129 1.387 . S
C5129 H5114 0.930 . S
C5129 C5124 1.390 . S
C5129 C5128 1.387 . S
H5130 C5142 0.930 . S
H5131 C5144 0.930 . S
H5132 C5145 0.930 . S
H5133 C5149 0.959 . S
H5134 C5149 0.959 . S
H5135 C5149 0.961 . S
H5136 C5150 0.960 . S
H5137 C5150 0.961 . S
H5138 C5150 0.959 . S
H5139 C5153 0.929 . S
H5140 C5154 0.931 . S
H5141 C5156 0.930 . S
C5142 H5130 0.930 . S
C5142 C5143 1.399 . S
C5142 C5147 1.399 . S
C5143 C5142 1.399 . S
C5143 C5144 1.376 . S
C5144 H5131 0.930 . S
C5144 C5143 1.376 . S
C5144 C5145 1.388 . S
C5145 H5132 0.930 . S
C5145 C5144 1.388 . S
C5145 C5146 1.390 . S
C5146 C5145 1.390 . S
C5146 C5147 1.394 . S
C5146 C5152 1.465 . S
C5147 C5142 1.399 . S
C5147 C5146 1.394 . S
C5147 C5148 1.516 . S
C5148 C5147 1.516 . S
C5148 C5149 1.502 . S
C5148 C5150 1.561 . S
C5148 C5151 1.526 . S
C5149 H5133 0.959 . S
C5149 H5134 0.959 . S
C5149 H5135 0.961 . S
C5149 C5148 1.502 . S
C5150 H5136 0.960 . S
C5150 H5137 0.961 . S
C5150 H5138 0.959 . S
C5150 C5148 1.561 . S
C5151 C5148 1.526 . S
C5151 C5152 1.396 . S
C5151 C5156 1.390 . S
C5152 C5146 1.465 . S
C5152 C5151 1.396 . S
C5152 C5153 1.399 . S
C5153 H5139 0.929 . S
C5153 C5152 1.399 . S
C5153 C5154 1.385 . S
C5154 H5140 0.931 . S
C5154 C5153 1.385 . S
C5154 C5155 1.389 . S
C5155 C5154 1.389 . S
C5155 C5156 1.387 . S
C5156 H5141 0.930 . S
C5156 C5151 1.390 . S
C5156 C5155 1.387 . S
H5157 C5169 0.930 . S
H5158 C5171 0.930 . S
H5159 C5172 0.930 . S
H5160 C5176 0.959 . S
H5161 C5176 0.959 . S
H5162 C5176 0.961 . S
H5163 C5177 0.960 . S
H5164 C5177 0.961 . S
H5165 C5177 0.959 . S
H5166 C5180 0.929 . S
H5167 C5181 0.931 . S
H5168 C5183 0.930 . S
C5169 H5157 0.930 . S
C5169 C5170 1.399 . S
C5169 C5174 1.399 . S
C5170 C5169 1.399 . S
C5170 C5171 1.376 . S
C5171 H5158 0.930 . S
C5171 C5170 1.376 . S
C5171 C5172 1.388 . S
C5172 H5159 0.930 . S
C5172 C5171 1.388 . S
C5172 C5173 1.390 . S
C5173 C5172 1.390 . S
C5173 C5174 1.394 . S
C5173 C5179 1.465 . S
C5174 C5169 1.399 . S
C5174 C5173 1.394 . S
C5174 C5175 1.516 . S
C5175 C5174 1.516 . S
C5175 C5176 1.502 . S
C5175 C5177 1.561 . S
C5175 C5178 1.526 . S
C5176 H5160 0.959 . S
C5176 H5161 0.959 . S
C5176 H5162 0.961 . S
C5176 C5175 1.502 . S
C5177 H5163 0.960 . S
C5177 H5164 0.961 . S
C5177 H5165 0.959 . S
C5177 C5175 1.561 . S
C5178 C5175 1.526 . S
C5178 C5179 1.396 . S
C5178 C5183 1.390 . S
C5179 C5173 1.465 . S
C5179 C5178 1.396 . S
C5179 C5180 1.399 . S
C5180 H5166 0.929 . S
C5180 C5179 1.399 . S
C5180 C5181 1.385 . S
C5181 H5167 0.931 . S
C5181 C5180 1.385 . S
C5181 C5182 1.389 . S
C5182 C5181 1.389 . S
C5182 C5183 1.387 . S
C5183 H5168 0.930 . S
C5183 C5178 1.390 . S
C5183 C5182 1.387 . S
H5184 C5196 0.930 . S
H5185 C5198 0.930 . S
H5186 C5199 0.930 . S
H5187 C5203 0.959 . S
H5188 C5203 0.959 . S
H5189 C5203 0.961 . S
H5190 C5204 0.960 . S
H5191 C5204 0.961 . S
H5192 C5204 0.959 . S
H5193 C5207 0.929 . S
H5194 C5208 0.931 . S
H5195 C5210 0.930 . S
C5196 H5184 0.930 . S
C5196 C5197 1.399 . S
C5196 C5201 1.399 . S
C5197 C5196 1.399 . S
C5197 C5198 1.376 . S
C5198 H5185 0.930 . S
C5198 C5197 1.376 . S
C5198 C5199 1.388 . S
C5199 H5186 0.930 . S
C5199 C5198 1.388 . S
C5199 C5200 1.390 . S
C5200 C5199 1.390 . S
C5200 C5201 1.394 . S
C5200 C5206 1.465 . S
C5201 C5196 1.399 . S
C5201 C5200 1.394 . S
C5201 C5202 1.516 . S
C5202 C5201 1.516 . S
C5202 C5203 1.502 . S
C5202 C5204 1.561 . S
C5202 C5205 1.526 . S
C5203 H5187 0.959 . S
C5203 H5188 0.959 . S
C5203 H5189 0.961 . S
C5203 C5202 1.502 . S
C5204 H5190 0.960 . S
C5204 H5191 0.961 . S
C5204 H5192 0.959 . S
C5204 C5202 1.561 . S
C5205 C5202 1.526 . S
C5205 C5206 1.396 . S
C5205 C5210 1.390 . S
C5206 C5200 1.465 . S
C5206 C5205 1.396 . S
C5206 C5207 1.399 . S
C5207 H5193 0.929 . S
C5207 C5206 1.399 . S
C5207 C5208 1.385 . S
C5208 H5194 0.931 . S
C5208 C5207 1.385 . S
C5208 C5209 1.389 . S
C5209 C5208 1.389 . S
C5209 C5210 1.387 . S
C5210 H5195 0.930 . S
C5210 C5205 1.390 . S
C5210 C5209 1.387 . S
H5211 C5223 0.930 . S
H5212 C5225 0.930 . S
H5213 C5226 0.930 . S
H5214 C5230 0.959 . S
H5215 C5230 0.959 . S
H5216 C5230 0.961 . S
H5217 C5231 0.960 . S
H5218 C5231 0.961 . S
H5219 C5231 0.959 . S
H5220 C5234 0.929 . S
H5221 C5235 0.931 . S
H5222 C5237 0.930 . S
C5223 H5211 0.930 . S
C5223 C5224 1.399 . S
C5223 C5228 1.399 . S
C5224 C5223 1.399 . S
C5224 C5225 1.376 . S
C5225 H5212 0.930 . S
C5225 C5224 1.376 . S
C5225 C5226 1.388 . S
C5226 H5213 0.930 . S
C5226 C5225 1.388 . S
C5226 C5227 1.390 . S
C5227 C5226 1.390 . S
C5227 C5228 1.394 . S
C5227 C5233 1.465 . S
C5228 C5223 1.399 . S
C5228 C5227 1.394 . S
C5228 C5229 1.516 . S
C5229 C5228 1.516 . S
C5229 C5230 1.502 . S
C5229 C5231 1.561 . S
C5229 C5232 1.526 . S
C5230 H5214 0.959 . S
C5230 H5215 0.959 . S
C5230 H5216 0.961 . S
C5230 C5229 1.502 . S
C5231 H5217 0.960 . S
C5231 H5218 0.961 . S
C5231 H5219 0.959 . S
C5231 C5229 1.561 . S
C5232 C5229 1.526 . S
C5232 C5233 1.396 . S
C5232 C5237 1.390 . S
C5233 C5227 1.465 . S
C5233 C5232 1.396 . S
C5233 C5234 1.399 . S
C5234 H5220 0.929 . S
C5234 C5233 1.399 . S
C5234 C5235 1.385 . S
C5235 H5221 0.931 . S
C5235 C5234 1.385 . S
C5235 C5236 1.389 . S
C5236 C5235 1.389 . S
C5236 C5237 1.387 . S
C5237 H5222 0.930 . S
C5237 C5232 1.390 . S
C5237 C5236 1.387 . S
H5238 C5250 0.930 . S
H5239 C5252 0.930 . S
H5240 C5253 0.930 . S
H5241 C5257 0.959 . S
H5242 C5257 0.959 . S
H5243 C5257 0.961 . S
H5244 C5258 0.960 . S
H5245 C5258 0.961 . S
H5246 C5258 0.959 . S
H5247 C5261 0.929 . S
H5248 C5262 0.931 . S
H5249 C5264 0.930 . S
C5250 H5238 0.930 . S
C5250 C5251 1.399 . S
C5250 C5255 1.399 . S
C5251 C5250 1.399 . S
C5251 C5252 1.376 . S
C5252 H5239 0.930 . S
C5252 C5251 1.376 . S
C5252 C5253 1.388 . S
C5253 H5240 0.930 . S
C5253 C5252 1.388 . S
C5253 C5254 1.390 . S
C5254 C5253 1.390 . S
C5254 C5255 1.394 . S
C5254 C5260 1.465 . S
C5255 C5250 1.399 . S
C5255 C5254 1.394 . S
C5255 C5256 1.516 . S
C5256 C5255 1.516 . S
C5256 C5257 1.502 . S
C5256 C5258 1.561 . S
C5256 C5259 1.526 . S
C5257 H5241 0.959 . S
C5257 H5242 0.959 . S
C5257 H5243 0.961 . S
C5257 C5256 1.502 . S
C5258 H5244 0.960 . S
C5258 H5245 0.961 . S
C5258 H5246 0.959 . S
C5258 C5256 1.561 . S
C5259 C5256 1.526 . S
C5259 C5260 1.396 . S
C5259 C5264 1.390 . S
C5260 C5254 1.465 . S
C5260 C5259 1.396 . S
C5260 C5261 1.399 . S
C5261 H5247 0.929 . S
C5261 C5260 1.399 . S
C5261 C5262 1.385 . S
C5262 H5248 0.931 . S
C5262 C5261 1.385 . S
C5262 C5263 1.389 . S
C5263 C5262 1.389 . S
C5263 C5264 1.387 . S
C5264 H5249 0.930 . S
C5264 C5259 1.390 . S
C5264 C5263 1.387 . S
H5265 C5277 0.930 . S
H5266 C5279 0.930 . S
H5267 C5280 0.930 . S
H5268 C5284 0.959 . S
H5269 C5284 0.959 . S
H5270 C5284 0.961 . S
H5271 C5285 0.960 . S
H5272 C5285 0.961 . S
H5273 C5285 0.959 . S
H5274 C5288 0.929 . S
H5275 C5289 0.931 . S
H5276 C5291 0.930 . S
C5277 H5265 0.930 . S
C5277 C5278 1.399 . S
C5277 C5282 1.399 . S
C5278 C5277 1.399 . S
C5278 C5279 1.376 1_554 S
C5279 H5266 0.930 . S
C5279 C5278 1.376 1_556 S
C5279 C5280 1.388 . S
C5280 H5267 0.930 . S
C5280 C5279 1.388 . S
C5280 C5281 1.390 1_556 S
C5281 C5280 1.390 1_554 S
C5281 C5282 1.394 . S
C5281 C5287 1.465 . S
C5282 C5277 1.399 . S
C5282 C5281 1.394 . S
C5282 C5283 1.516 1_565 S
C5283 C5282 1.516 1_545 S
C5283 C5284 1.502 . S
C5283 C5285 1.561 1_545 S
C5283 C5286 1.526 . S
C5284 H5268 0.959 . S
C5284 H5269 0.959 . S
C5284 H5270 0.961 . S
C5284 C5283 1.502 . S
C5285 H5271 0.960 . S
C5285 H5272 0.961 . S
C5285 H5273 0.959 . S
C5285 C5283 1.561 1_565 S
C5286 C5283 1.526 . S
C5286 C5287 1.396 1_545 S
C5286 C5291 1.390 . S
C5287 C5281 1.465 . S
C5287 C5286 1.396 1_565 S
C5287 C5288 1.399 1_554 S
C5288 H5274 0.929 . S
C5288 C5287 1.399 1_556 S
C5288 C5289 1.385 . S
C5289 H5275 0.931 . S
C5289 C5288 1.385 . S
C5289 C5290 1.389 1_566 S
C5290 C5289 1.389 1_544 S
C5290 C5291 1.387 . S
C5291 H5276 0.930 . S
C5291 C5286 1.390 . S
C5291 C5290 1.387 . S
H5292 C5304 0.930 . S
H5293 C5306 0.930 . S
H5294 C5307 0.930 . S
H5295 C5311 0.959 . S
H5296 C5311 0.959 . S
H5297 C5311 0.961 . S
H5298 C5312 0.960 . S
H5299 C5312 0.961 . S
H5300 C5312 0.959 . S
H5301 C5315 0.929 . S
H5302 C5316 0.931 . S
H5303 C5318 0.930 . S
C5304 H5292 0.930 . S
C5304 C5305 1.399 . S
C5304 C5309 1.399 . S
C5305 C5304 1.399 . S
C5305 C5306 1.376 . S
C5306 H5293 0.930 . S
C5306 C5305 1.376 . S
C5306 C5307 1.388 . S
C5307 H5294 0.930 . S
C5307 C5306 1.388 . S
C5307 C5308 1.390 . S
C5308 C5307 1.390 . S
C5308 C5309 1.394 . S
C5308 C5314 1.465 . S
C5309 C5304 1.399 . S
C5309 C5308 1.394 . S
C5309 C5310 1.516 . S
C5310 C5309 1.516 . S
C5310 C5311 1.502 . S
C5310 C5312 1.561 . S
C5310 C5313 1.526 . S
C5311 H5295 0.959 . S
C5311 H5296 0.959 . S
C5311 H5297 0.961 . S
C5311 C5310 1.502 . S
C5312 H5298 0.960 . S
C5312 H5299 0.961 . S
C5312 H5300 0.959 . S
C5312 C5310 1.561 . S
C5313 C5310 1.526 . S
C5313 C5314 1.396 . S
C5313 C5318 1.390 . S
C5314 C5308 1.465 . S
C5314 C5313 1.396 . S
C5314 C5315 1.399 . S
C5315 H5301 0.929 . S
C5315 C5314 1.399 . S
C5315 C5316 1.385 . S
C5316 H5302 0.931 . S
C5316 C5315 1.385 . S
C5316 C5317 1.389 . S
C5317 C5316 1.389 . S
C5317 C5318 1.387 . S
C5318 H5303 0.930 . S
C5318 C5313 1.390 . S
C5318 C5317 1.387 . S
H5319 C5331 0.930 . S
H5320 C5333 0.930 . S
H5321 C5334 0.930 . S
H5322 C5338 0.959 . S
H5323 C5338 0.959 . S
H5324 C5338 0.961 . S
H5325 C5339 0.960 . S
H5326 C5339 0.961 . S
H5327 C5339 0.959 . S
H5328 C5342 0.924 1_556 S
H5329 C5343 0.931 1_556 S
H5330 C5345 0.930 . S
C5331 H5319 0.930 . S
C5331 C5332 1.399 . S
C5331 C5336 1.399 . S
C5332 C5331 1.399 . S
C5332 C5333 1.376 1_554 S
C5333 H5320 0.930 . S
C5333 C5332 1.376 1_556 S
C5333 C5334 1.388 . S
C5334 H5321 0.930 . S
C5334 C5333 1.388 . S
C5334 C5335 1.390 1_556 S
C5335 C5334 1.390 1_554 S
C5335 C5336 1.394 . S
C5335 C5341 1.465 . S
C5336 C5331 1.399 . S
C5336 C5335 1.394 . S
C5336 C5337 1.516 . S
C5337 C5336 1.516 . S
C5337 C5338 1.502 . S
C5337 C5339 1.561 . S
C5337 C5340 1.526 . S
C5338 H5322 0.959 . S
C5338 H5323 0.959 . S
C5338 H5324 0.961 . S
C5338 C5337 1.502 . S
C5339 H5325 0.960 . S
C5339 H5326 0.961 . S
C5339 H5327 0.959 . S
C5339 C5337 1.561 . S
C5340 C5337 1.526 . S
C5340 C5341 1.396 . S
C5340 C5345 1.390 . S
C5341 C5335 1.465 . S
C5341 C5340 1.396 . S
C5341 C5342 1.402 . S
C5342 H5328 0.924 1_554 S
C5342 C5341 1.402 . S
C5342 C5343 1.387 . S
C5343 H5329 0.931 1_554 S
C5343 C5342 1.387 . S
C5343 C5344 1.389 . S
C5344 C5343 1.389 . S
C5344 C5345 1.387 . S
C5345 H5330 0.930 . S
C5345 C5340 1.390 . S
C5345 C5344 1.387 . S
H5346 C5358 0.930 . S
H5347 C5360 0.930 . S
H5348 C5361 0.930 . S
H5349 C5365 0.959 . S
H5350 C5365 0.959 . S
H5351 C5365 0.961 . S
H5352 C5366 0.960 . S
H5353 C5366 0.961 . S
H5354 C5366 0.959 . S
H5355 C5369 0.929 . S
H5356 C5370 0.931 . S
H5357 C5372 0.930 . S
C5358 H5346 0.930 . S
C5358 C5359 1.399 . S
C5358 C5363 1.399 . S
C5359 C5358 1.399 . S
C5359 C5360 1.376 . S
C5360 H5347 0.930 . S
C5360 C5359 1.376 . S
C5360 C5361 1.388 . S
C5361 H5348 0.930 . S
C5361 C5360 1.388 . S
C5361 C5362 1.390 . S
C5362 C5361 1.390 . S
C5362 C5363 1.394 . S
C5362 C5368 1.465 . S
C5363 C5358 1.399 . S
C5363 C5362 1.394 . S
C5363 C5364 1.516 . S
C5364 C5363 1.516 . S
C5364 C5365 1.502 . S
C5364 C5366 1.561 . S
C5364 C5367 1.526 . S
C5365 H5349 0.959 . S
C5365 H5350 0.959 . S
C5365 H5351 0.961 . S
C5365 C5364 1.502 . S
C5366 H5352 0.960 . S
C5366 H5353 0.961 . S
C5366 H5354 0.959 . S
C5366 C5364 1.561 . S
C5367 C5364 1.526 . S
C5367 C5368 1.396 . S
C5367 C5372 1.390 . S
C5368 C5362 1.465 . S
C5368 C5367 1.396 . S
C5368 C5369 1.399 . S
C5369 H5355 0.929 . S
C5369 C5368 1.399 . S
C5369 C5370 1.385 . S
C5370 H5356 0.931 . S
C5370 C5369 1.385 . S
C5370 C5371 1.389 . S
C5371 C5370 1.389 . S
C5371 C5372 1.387 . S
C5372 H5357 0.930 . S
C5372 C5367 1.390 . S
C5372 C5371 1.387 . S
H5373 C5385 0.930 . S
H5374 C5387 0.930 . S
H5375 C5388 0.930 . S
H5376 C5392 0.959 . S
H5377 C5392 0.959 . S
H5378 C5392 0.961 . S
H5379 C5393 0.960 . S
H5380 C5393 0.961 . S
H5381 C5393 0.959 . S
H5382 C5396 0.929 . S
H5383 C5397 0.931 . S
H5384 C5399 0.930 . S
C5385 H5373 0.930 . S
C5385 C5386 1.399 . S
C5385 C5390 1.399 . S
C5386 C5385 1.399 . S
C5386 C5387 1.376 . S
C5387 H5374 0.930 . S
C5387 C5386 1.376 . S
C5387 C5388 1.388 . S
C5388 H5375 0.930 . S
C5388 C5387 1.388 . S
C5388 C5389 1.390 . S
C5389 C5388 1.390 . S
C5389 C5390 1.394 . S
C5389 C5395 1.465 . S
C5390 C5385 1.399 . S
C5390 C5389 1.394 . S
C5390 C5391 1.516 . S
C5391 C5390 1.516 . S
C5391 C5392 1.502 . S
C5391 C5393 1.561 . S
C5391 C5394 1.526 . S
C5392 H5376 0.959 . S
C5392 H5377 0.959 . S
C5392 H5378 0.961 . S
C5392 C5391 1.502 . S
C5393 H5379 0.960 . S
C5393 H5380 0.961 . S
C5393 H5381 0.959 . S
C5393 C5391 1.561 . S
C5394 C5391 1.526 . S
C5394 C5395 1.396 . S
C5394 C5399 1.390 . S
C5395 C5389 1.465 . S
C5395 C5394 1.396 . S
C5395 C5396 1.399 . S
C5396 H5382 0.929 . S
C5396 C5395 1.399 . S
C5396 C5397 1.385 . S
C5397 H5383 0.931 . S
C5397 C5396 1.385 . S
C5397 C5398 1.389 . S
C5398 C5397 1.389 . S
C5398 C5399 1.387 . S
C5399 H5384 0.930 . S
C5399 C5394 1.390 . S
C5399 C5398 1.387 . S
H5400 C5412 0.930 . S
H5401 C5414 0.930 . S
H5402 C5415 0.930 . S
H5403 C5419 0.959 . S
H5404 C5419 0.959 . S
H5405 C5419 0.961 . S
H5406 C5420 0.960 . S
H5407 C5420 0.961 . S
H5408 C5420 0.959 . S
H5409 C5423 0.929 . S
H5410 C5424 0.931 . S
H5411 C5426 0.930 . S
C5412 H5400 0.930 . S
C5412 C5413 1.399 . S
C5412 C5417 1.399 . S
C5413 C5412 1.399 . S
C5413 C5414 1.376 . S
C5414 H5401 0.930 . S
C5414 C5413 1.376 . S
C5414 C5415 1.388 . S
C5415 H5402 0.930 . S
C5415 C5414 1.388 . S
C5415 C5416 1.390 . S
C5416 C5415 1.390 . S
C5416 C5417 1.394 . S
C5416 C5422 1.465 . S
C5417 C5412 1.399 . S
C5417 C5416 1.394 . S
C5417 C5418 1.516 . S
C5418 C5417 1.516 . S
C5418 C5419 1.502 . S
C5418 C5420 1.561 . S
C5418 C5421 1.526 . S
C5419 H5403 0.959 . S
C5419 H5404 0.959 . S
C5419 H5405 0.961 . S
C5419 C5418 1.502 . S
C5420 H5406 0.960 . S
C5420 H5407 0.961 . S
C5420 H5408 0.959 . S
C5420 C5418 1.561 . S
C5421 C5418 1.526 . S
C5421 C5422 1.396 . S
C5421 C5426 1.390 . S
C5422 C5416 1.465 . S
C5422 C5421 1.396 . S
C5422 C5423 1.399 . S
C5423 H5409 0.929 . S
C5423 C5422 1.399 . S
C5423 C5424 1.385 . S
C5424 H5410 0.931 . S
C5424 C5423 1.385 . S
C5424 C5425 1.389 . S
C5425 C5424 1.389 . S
C5425 C5426 1.387 . S
C5426 H5411 0.930 . S
C5426 C5421 1.390 . S
C5426 C5425 1.387 . S
H5427 C5439 0.930 . S
H5428 C5441 0.930 . S
H5429 C5442 0.930 . S
H5430 C5446 0.959 . S
H5431 C5446 0.959 . S
H5432 C5446 0.961 . S
H5433 C5447 0.960 . S
H5434 C5447 0.961 . S
H5435 C5447 0.959 . S
H5436 C5450 0.929 . S
H5437 C5451 0.931 . S
H5438 C5453 0.930 . S
C5439 H5427 0.930 . S
C5439 C5440 1.399 . S
C5439 C5444 1.399 . S
C5440 C5439 1.399 . S
C5440 C5441 1.376 . S
C5441 H5428 0.930 . S
C5441 C5440 1.376 . S
C5441 C5442 1.388 . S
C5442 H5429 0.930 . S
C5442 C5441 1.388 . S
C5442 C5443 1.390 . S
C5443 C5442 1.390 . S
C5443 C5444 1.394 . S
C5443 C5449 1.465 . S
C5444 C5439 1.399 . S
C5444 C5443 1.394 . S
C5444 C5445 1.516 . S
C5445 C5444 1.516 . S
C5445 C5446 1.502 . S
C5445 C5447 1.561 . S
C5445 C5448 1.526 . S
C5446 H5430 0.959 . S
C5446 H5431 0.959 . S
C5446 H5432 0.961 . S
C5446 C5445 1.502 . S
C5447 H5433 0.960 . S
C5447 H5434 0.961 . S
C5447 H5435 0.959 . S
C5447 C5445 1.561 . S
C5448 C5445 1.526 . S
C5448 C5449 1.396 . S
C5448 C5453 1.390 . S
C5449 C5443 1.465 . S
C5449 C5448 1.396 . S
C5449 C5450 1.399 . S
C5450 H5436 0.929 . S
C5450 C5449 1.399 . S
C5450 C5451 1.385 . S
C5451 H5437 0.931 . S
C5451 C5450 1.385 . S
C5451 C5452 1.389 . S
C5452 C5451 1.389 . S
C5452 C5453 1.387 . S
C5453 H5438 0.930 . S
C5453 C5448 1.390 . S
C5453 C5452 1.387 . S
H5454 C5466 0.930 . S
H5455 C5468 0.930 . S
H5456 C5469 0.930 . S
H5457 C5473 0.959 1_655 S
H5458 C5473 0.959 1_556 S
H5459 C5473 0.934 1_556 S
H5460 C5474 0.960 . S
H5461 C5474 0.961 . S
H5462 C5474 0.959 1_554 S
H5463 C5477 0.929 . S
H5464 C5478 0.931 . S
H5465 C5480 0.930 . S
C5466 H5454 0.930 . S
C5466 C5467 1.399 . S
C5466 C5471 1.399 . S
C5467 C5466 1.399 . S
C5467 C5468 1.376 . S
C5468 H5455 0.930 . S
C5468 C5467 1.376 . S
C5468 C5469 1.388 . S
C5469 H5456 0.930 . S
C5469 C5468 1.388 . S
C5469 C5470 1.390 . S
C5470 C5469 1.390 . S
C5470 C5471 1.394 . S
C5470 C5476 1.465 . S
C5471 C5466 1.399 . S
C5471 C5470 1.394 . S
C5471 C5472 1.516 . S
C5472 C5471 1.516 . S
C5472 C5473 1.502 . S
C5472 C5474 1.561 1_554 S
C5472 C5475 1.526 . S
C5473 H5457 0.959 1_455 S
C5473 H5458 0.959 1_554 S
C5473 H5459 0.934 1_554 S
C5473 C5472 1.502 . S
C5474 H5460 0.960 . S
C5474 H5461 0.961 . S
C5474 H5462 0.959 1_556 S
C5474 C5472 1.561 1_556 S
C5475 C5472 1.526 . S
C5475 C5476 1.396 . S
C5475 C5480 1.390 . S
C5476 C5470 1.465 . S
C5476 C5475 1.396 . S
C5476 C5477 1.399 . S
C5477 H5463 0.929 . S
C5477 C5476 1.399 . S
C5477 C5478 1.385 . S
C5478 H5464 0.931 . S
C5478 C5477 1.385 . S
C5478 C5479 1.389 . S
C5479 C5478 1.389 . S
C5479 C5480 1.387 . S
C5480 H5465 0.930 . S
C5480 C5475 1.390 . S
C5480 C5479 1.387 . S
H5481 C5493 0.930 . S
H5482 C5495 0.930 . S
H5483 C5496 0.930 . S
H5484 C5500 0.959 . S
H5485 C5500 0.959 . S
H5486 C5500 0.961 . S
H5487 C5501 0.960 . S
H5488 C5501 0.961 . S
H5489 C5501 0.959 . S
H5490 C5504 0.929 . S
H5491 C5505 0.931 . S
H5492 C5507 0.930 . S
C5493 H5481 0.930 . S
C5493 C5494 1.399 . S
C5493 C5498 1.399 . S
C5494 C5493 1.399 . S
C5494 C5495 1.376 . S
C5495 H5482 0.930 . S
C5495 C5494 1.376 . S
C5495 C5496 1.388 . S
C5496 H5483 0.930 . S
C5496 C5495 1.388 . S
C5496 C5497 1.390 . S
C5497 C5496 1.390 . S
C5497 C5498 1.394 . S
C5497 C5503 1.465 . S
C5498 C5493 1.399 . S
C5498 C5497 1.394 . S
C5498 C5499 1.516 . S
C5499 C5498 1.516 . S
C5499 C5500 1.502 . S
C5499 C5501 1.561 . S
C5499 C5502 1.526 . S
C5500 H5484 0.959 . S
C5500 H5485 0.959 . S
C5500 H5486 0.961 . S
C5500 C5499 1.502 . S
C5501 H5487 0.960 . S
C5501 H5488 0.961 . S
C5501 H5489 0.959 . S
C5501 C5499 1.561 . S
C5502 C5499 1.526 . S
C5502 C5503 1.396 . S
C5502 C5507 1.390 . S
C5503 C5497 1.465 . S
C5503 C5502 1.396 . S
C5503 C5504 1.399 . S
C5504 H5490 0.929 . S
C5504 C5503 1.399 . S
C5504 C5505 1.385 . S
C5505 H5491 0.931 . S
C5505 C5504 1.385 . S
C5505 C5506 1.389 . S
C5506 C5505 1.389 . S
C5506 C5507 1.387 . S
C5507 H5492 0.930 . S
C5507 C5502 1.390 . S
C5507 C5506 1.387 . S
H5508 C5520 0.930 . S
H5509 C5522 0.930 . S
H5510 C5523 0.930 . S
H5511 C5527 0.959 . S
H5512 C5527 0.959 . S
H5513 C5527 0.961 . S
H5514 C5528 0.960 . S
H5515 C5528 0.961 . S
H5516 C5528 0.959 . S
H5517 C5531 0.929 . S
H5518 C5532 0.931 . S
H5519 C5534 0.930 . S
C5520 H5508 0.930 . S
C5520 C5521 1.399 . S
C5520 C5525 1.399 . S
C5521 C5520 1.399 . S
C5521 C5522 1.376 . S
C5522 H5509 0.930 . S
C5522 C5521 1.376 . S
C5522 C5523 1.388 . S
C5523 H5510 0.930 . S
C5523 C5522 1.388 . S
C5523 C5524 1.390 . S
C5524 C5523 1.390 . S
C5524 C5525 1.394 . S
C5524 C5530 1.465 . S
C5525 C5520 1.399 . S
C5525 C5524 1.394 . S
C5525 C5526 1.516 . S
C5526 C5525 1.516 . S
C5526 C5527 1.502 . S
C5526 C5528 1.561 . S
C5526 C5529 1.526 . S
C5527 H5511 0.959 . S
C5527 H5512 0.959 . S
C5527 H5513 0.961 . S
C5527 C5526 1.502 . S
C5528 H5514 0.960 . S
C5528 H5515 0.961 . S
C5528 H5516 0.959 . S
C5528 C5526 1.561 . S
C5529 C5526 1.526 . S
C5529 C5530 1.396 . S
C5529 C5534 1.390 . S
C5530 C5524 1.465 . S
C5530 C5529 1.396 . S
C5530 C5531 1.399 . S
C5531 H5517 0.929 . S
C5531 C5530 1.399 . S
C5531 C5532 1.385 . S
C5532 H5518 0.931 . S
C5532 C5531 1.385 . S
C5532 C5533 1.389 . S
C5533 C5532 1.389 . S
C5533 C5534 1.387 . S
C5534 H5519 0.930 . S
C5534 C5529 1.390 . S
C5534 C5533 1.387 . S
H5535 C5547 0.930 . S
H5536 C5549 0.930 . S
H5537 C5550 0.930 . S
H5538 C5554 0.959 . S
H5539 C5554 0.959 . S
H5540 C5554 0.961 . S
H5541 C5555 0.960 . S
H5542 C5555 0.961 . S
H5543 C5555 0.959 . S
H5544 C5558 0.929 . S
H5545 C5559 0.931 . S
H5546 C5561 0.930 . S
C5547 H5535 0.930 . S
C5547 C5548 1.399 . S
C5547 C5552 1.399 . S
C5548 C5547 1.399 . S
C5548 C5549 1.376 . S
C5549 H5536 0.930 . S
C5549 C5548 1.376 . S
C5549 C5550 1.388 . S
C5550 H5537 0.930 . S
C5550 C5549 1.388 . S
C5550 C5551 1.390 . S
C5551 C5550 1.390 . S
C5551 C5552 1.394 . S
C5551 C5557 1.465 . S
C5552 C5547 1.399 . S
C5552 C5551 1.394 . S
C5552 C5553 1.516 . S
C5553 C5552 1.516 . S
C5553 C5554 1.502 . S
C5553 C5555 1.561 . S
C5553 C5556 1.526 . S
C5554 H5538 0.959 . S
C5554 H5539 0.959 . S
C5554 H5540 0.961 . S
C5554 C5553 1.502 . S
C5555 H5541 0.960 . S
C5555 H5542 0.961 . S
C5555 H5543 0.959 . S
C5555 C5553 1.561 . S
C5556 C5553 1.526 . S
C5556 C5557 1.396 . S
C5556 C5561 1.390 . S
C5557 C5551 1.465 . S
C5557 C5556 1.396 . S
C5557 C5558 1.399 . S
C5558 H5544 0.929 . S
C5558 C5557 1.399 . S
C5558 C5559 1.385 . S
C5559 H5545 0.931 . S
C5559 C5558 1.385 . S
C5559 C5560 1.389 . S
C5560 C5559 1.389 . S
C5560 C5561 1.387 . S
C5561 H5546 0.930 . S
C5561 C5556 1.390 . S
C5561 C5560 1.387 . S
H5562 C5574 0.930 . S
H5563 C5576 0.930 . S
H5564 C5577 0.930 . S
H5565 C5581 0.959 . S
H5566 C5581 0.959 . S
H5567 C5581 0.961 . S
H5568 C5582 0.956 1_655 S
H5569 C5582 0.916 1_655 S
H5570 C5582 0.957 . S
H5571 C5585 0.929 . S
H5572 C5586 0.931 . S
H5573 C5588 0.930 . S
C5574 H5562 0.930 . S
C5574 C5575 1.399 . S
C5574 C5579 1.399 . S
C5575 C5574 1.399 . S
C5575 C5576 1.376 . S
C5576 H5563 0.930 . S
C5576 C5575 1.376 . S
C5576 C5577 1.388 . S
C5577 H5564 0.930 . S
C5577 C5576 1.388 . S
C5577 C5578 1.390 . S
C5578 C5577 1.390 . S
C5578 C5579 1.394 . S
C5578 C5584 1.465 . S
C5579 C5574 1.399 . S
C5579 C5578 1.394 . S
C5579 C5580 1.516 . S
C5580 C5579 1.516 . S
C5580 C5581 1.502 . S
C5580 C5582 1.617 . S
C5580 C5583 1.526 . S
C5581 H5565 0.959 . S
C5581 H5566 0.959 . S
C5581 H5567 0.961 . S
C5581 C5580 1.502 . S
C5582 H5568 0.956 1_455 S
C5582 H5569 0.916 1_455 S
C5582 H5570 0.957 . S
C5582 C5580 1.617 . S
C5583 C5580 1.526 . S
C5583 C5584 1.396 . S
C5583 C5588 1.390 . S
C5584 C5578 1.465 . S
C5584 C5583 1.396 . S
C5584 C5585 1.399 . S
C5585 H5571 0.929 . S
C5585 C5584 1.399 . S
C5585 C5586 1.385 . S
C5586 H5572 0.931 . S
C5586 C5585 1.385 . S
C5586 C5587 1.389 . S
C5587 C5586 1.389 . S
C5587 C5588 1.387 . S
C5588 H5573 0.930 . S
C5588 C5583 1.390 . S
C5588 C5587 1.387 . S
H5589 C5601 0.930 . S
H5590 C5603 0.930 . S
H5591 C5604 0.930 . S
H5592 C5608 0.959 . S
H5593 C5608 0.959 . S
H5594 C5608 0.961 . S
H5595 C5609 0.960 . S
H5596 C5609 0.961 . S
H5597 C5609 0.959 . S
H5598 C5612 0.929 . S
H5599 C5613 0.931 . S
H5600 C5615 0.930 . S
C5601 H5589 0.930 . S
C5601 C5602 1.399 . S
C5601 C5606 1.399 . S
C5602 C5601 1.399 . S
C5602 C5603 1.376 . S
C5603 H5590 0.930 . S
C5603 C5602 1.376 . S
C5603 C5604 1.388 . S
C5604 H5591 0.930 . S
C5604 C5603 1.388 . S
C5604 C5605 1.390 . S
C5605 C5604 1.390 . S
C5605 C5606 1.394 . S
C5605 C5611 1.465 . S
C5606 C5601 1.399 . S
C5606 C5605 1.394 . S
C5606 C5607 1.516 . S
C5607 C5606 1.516 . S
C5607 C5608 1.502 . S
C5607 C5609 1.561 . S
C5607 C5610 1.526 . S
C5608 H5592 0.959 . S
C5608 H5593 0.959 . S
C5608 H5594 0.961 . S
C5608 C5607 1.502 . S
C5609 H5595 0.960 . S
C5609 H5596 0.961 . S
C5609 H5597 0.959 . S
C5609 C5607 1.561 . S
C5610 C5607 1.526 . S
C5610 C5611 1.396 . S
C5610 C5615 1.390 . S
C5611 C5605 1.465 . S
C5611 C5610 1.396 . S
C5611 C5612 1.399 . S
C5612 H5598 0.929 . S
C5612 C5611 1.399 . S
C5612 C5613 1.385 . S
C5613 H5599 0.931 . S
C5613 C5612 1.385 . S
C5613 C5614 1.389 . S
C5614 C5613 1.389 . S
C5614 C5615 1.387 . S
C5615 H5600 0.930 . S
C5615 C5610 1.390 . S
C5615 C5614 1.387 . S
H5616 C5628 0.930 . S
H5617 C5630 0.930 . S
H5618 C5631 0.930 . S
H5619 C5635 0.959 . S
H5620 C5635 0.959 . S
H5621 C5635 0.961 . S
H5622 C5636 0.960 . S
H5623 C5636 0.961 . S
H5624 C5636 0.959 . S
H5625 C5639 0.929 . S
H5626 C5640 0.931 . S
H5627 C5642 0.930 . S
C5628 H5616 0.930 . S
C5628 C5629 1.399 . S
C5628 C5633 1.399 . S
C5629 C5628 1.399 . S
C5629 C5630 1.376 . S
C5630 H5617 0.930 . S
C5630 C5629 1.376 . S
C5630 C5631 1.388 . S
C5631 H5618 0.930 . S
C5631 C5630 1.388 . S
C5631 C5632 1.390 . S
C5632 C5631 1.390 . S
C5632 C5633 1.394 . S
C5632 C5638 1.465 . S
C5633 C5628 1.399 . S
C5633 C5632 1.394 . S
C5633 C5634 1.516 . S
C5634 C5633 1.516 . S
C5634 C5635 1.502 . S
C5634 C5636 1.561 . S
C5634 C5637 1.526 . S
C5635 H5619 0.959 . S
C5635 H5620 0.959 . S
C5635 H5621 0.961 . S
C5635 C5634 1.502 . S
C5636 H5622 0.960 . S
C5636 H5623 0.961 . S
C5636 H5624 0.959 . S
C5636 C5634 1.561 . S
C5637 C5634 1.526 . S
C5637 C5638 1.396 . S
C5637 C5642 1.390 . S
C5638 C5632 1.465 . S
C5638 C5637 1.396 . S
C5638 C5639 1.399 . S
C5639 H5625 0.929 . S
C5639 C5638 1.399 . S
C5639 C5640 1.385 . S
C5640 H5626 0.931 . S
C5640 C5639 1.385 . S
C5640 C5641 1.389 . S
C5641 C5640 1.389 . S
C5641 C5642 1.387 . S
C5642 H5627 0.930 . S
C5642 C5637 1.390 . S
C5642 C5641 1.387 . S
H5643 C5655 0.930 . S
H5644 C5657 0.930 . S
H5645 C5658 0.930 . S
H5646 C5662 0.959 . S
H5647 C5662 0.959 . S
H5648 C5662 0.961 . S
H5649 C5663 0.960 . S
H5650 C5663 0.961 . S
H5651 C5663 0.959 . S
H5652 C5666 0.929 . S
H5653 C5667 0.931 . S
H5654 C5669 0.930 . S
C5655 H5643 0.930 . S
C5655 C5656 1.399 . S
C5655 C5660 1.399 . S
C5656 C5655 1.399 . S
C5656 C5657 1.376 . S
C5657 H5644 0.930 . S
C5657 C5656 1.376 . S
C5657 C5658 1.388 . S
C5658 H5645 0.930 . S
C5658 C5657 1.388 . S
C5658 C5659 1.390 . S
C5659 C5658 1.390 . S
C5659 C5660 1.394 . S
C5659 C5665 1.465 . S
C5660 C5655 1.399 . S
C5660 C5659 1.394 . S
C5660 C5661 1.516 . S
C5661 C5660 1.516 . S
C5661 C5662 1.502 . S
C5661 C5663 1.561 . S
C5661 C5664 1.526 . S
C5662 H5646 0.959 . S
C5662 H5647 0.959 . S
C5662 H5648 0.961 . S
C5662 C5661 1.502 . S
C5663 H5649 0.960 . S
C5663 H5650 0.961 . S
C5663 H5651 0.959 . S
C5663 C5661 1.561 . S
C5664 C5661 1.526 . S
C5664 C5665 1.396 . S
C5664 C5669 1.390 . S
C5665 C5659 1.465 . S
C5665 C5664 1.396 . S
C5665 C5666 1.399 . S
C5666 H5652 0.929 . S
C5666 C5665 1.399 . S
C5666 C5667 1.385 . S
C5667 H5653 0.931 . S
C5667 C5666 1.385 . S
C5667 C5668 1.389 . S
C5668 C5667 1.389 . S
C5668 C5669 1.387 . S
C5669 H5654 0.930 . S
C5669 C5664 1.390 . S
C5669 C5668 1.387 . S
H5670 C5682 0.930 . S
H5671 C5684 0.930 . S
H5672 C5685 0.930 . S
H5673 C5689 0.959 . S
H5674 C5689 0.959 . S
H5675 C5689 0.961 . S
H5676 C5690 0.960 . S
H5677 C5690 0.961 . S
H5678 C5690 0.959 . S
H5679 C5693 0.929 . S
H5680 C5694 0.931 . S
H5681 C5696 0.930 . S
C5682 H5670 0.930 . S
C5682 C5683 1.399 . S
C5682 C5687 1.399 . S
C5683 C5682 1.399 . S
C5683 C5684 1.376 . S
C5684 H5671 0.930 . S
C5684 C5683 1.376 . S
C5684 C5685 1.388 . S
C5685 H5672 0.930 . S
C5685 C5684 1.388 . S
C5685 C5686 1.390 . S
C5686 C5685 1.390 . S
C5686 C5687 1.394 . S
C5686 C5692 1.465 . S
C5687 C5682 1.399 . S
C5687 C5686 1.394 . S
C5687 C5688 1.516 . S
C5688 C5687 1.516 . S
C5688 C5689 1.502 . S
C5688 C5690 1.561 . S
C5688 C5691 1.526 . S
C5689 H5673 0.959 . S
C5689 H5674 0.959 . S
C5689 H5675 0.961 . S
C5689 C5688 1.502 . S
C5690 H5676 0.960 . S
C5690 H5677 0.961 . S
C5690 H5678 0.959 . S
C5690 C5688 1.561 . S
C5691 C5688 1.526 . S
C5691 C5692 1.396 . S
C5691 C5696 1.390 . S
C5692 C5686 1.465 . S
C5692 C5691 1.396 . S
C5692 C5693 1.399 . S
C5693 H5679 0.929 . S
C5693 C5692 1.399 . S
C5693 C5694 1.385 1_655 S
C5694 H5680 0.931 . S
C5694 C5693 1.385 1_455 S
C5694 C5695 1.389 1_455 S
C5695 C5694 1.389 1_655 S
C5695 C5696 1.387 . S
C5696 H5681 0.930 . S
C5696 C5691 1.390 . S
C5696 C5695 1.387 . S
H5697 C5709 0.930 . S
H5698 C5711 0.930 . S
H5699 C5712 0.930 . S
H5700 C5716 0.959 . S
H5701 C5716 0.959 . S
H5702 C5716 0.961 . S
H5703 C5717 0.960 . S
H5704 C5717 0.961 . S
H5705 C5717 0.959 . S
H5706 C5720 0.929 . S
H5707 C5721 0.931 . S
H5708 C5723 0.930 . S
C5709 H5697 0.930 . S
C5709 C5710 1.399 . S
C5709 C5714 1.399 . S
C5710 C5709 1.399 . S
C5710 C5711 1.376 . S
C5711 H5698 0.930 . S
C5711 C5710 1.376 . S
C5711 C5712 1.388 . S
C5712 H5699 0.930 . S
C5712 C5711 1.388 . S
C5712 C5713 1.390 . S
C5713 C5712 1.390 . S
C5713 C5714 1.394 . S
C5713 C5719 1.465 . S
C5714 C5709 1.399 . S
C5714 C5713 1.394 . S
C5714 C5715 1.516 . S
C5715 C5714 1.516 . S
C5715 C5716 1.502 . S
C5715 C5717 1.561 . S
C5715 C5718 1.526 . S
C5716 H5700 0.959 . S
C5716 H5701 0.959 . S
C5716 H5702 0.961 . S
C5716 C5715 1.502 . S
C5717 H5703 0.960 . S
C5717 H5704 0.961 . S
C5717 H5705 0.959 . S
C5717 C5715 1.561 . S
C5718 C5715 1.526 . S
C5718 C5719 1.396 . S
C5718 C5723 1.390 . S
C5719 C5713 1.465 . S
C5719 C5718 1.396 . S
C5719 C5720 1.399 . S
C5720 H5706 0.929 . S
C5720 C5719 1.399 . S
C5720 C5721 1.385 . S
C5721 H5707 0.931 . S
C5721 C5720 1.385 . S
C5721 C5722 1.389 . S
C5722 C5721 1.389 . S
C5722 C5723 1.387 . S
C5723 H5708 0.930 . S
C5723 C5718 1.390 . S
C5723 C5722 1.387 . S
H5724 C5736 0.930 . S
H5725 C5738 0.930 . S
H5726 C5739 0.930 . S
H5727 C5743 0.959 . S
H5728 C5743 0.959 . S
H5729 C5743 0.961 . S
H5730 C5744 0.960 . S
H5731 C5744 0.961 . S
H5732 C5744 0.959 . S
H5733 C5747 0.929 . S
H5734 C5748 0.931 . S
H5735 C5750 0.930 . S
C5736 H5724 0.930 . S
C5736 C5737 1.399 . S
C5736 C5741 1.399 . S
C5737 C5736 1.399 . S
C5737 C5738 1.376 . S
C5738 H5725 0.930 . S
C5738 C5737 1.376 . S
C5738 C5739 1.388 . S
C5739 H5726 0.930 . S
C5739 C5738 1.388 . S
C5739 C5740 1.390 . S
C5740 C5739 1.390 . S
C5740 C5741 1.394 . S
C5740 C5746 1.465 . S
C5741 C5736 1.399 . S
C5741 C5740 1.394 . S
C5741 C5742 1.516 . S
C5742 C5741 1.516 . S
C5742 C5743 1.502 . S
C5742 C5744 1.561 . S
C5742 C5745 1.526 . S
C5743 H5727 0.959 . S
C5743 H5728 0.959 . S
C5743 H5729 0.961 . S
C5743 C5742 1.502 . S
C5744 H5730 0.960 . S
C5744 H5731 0.961 . S
C5744 H5732 0.959 . S
C5744 C5742 1.561 . S
C5745 C5742 1.526 . S
C5745 C5746 1.396 . S
C5745 C5750 1.390 . S
C5746 C5740 1.465 . S
C5746 C5745 1.396 . S
C5746 C5747 1.399 . S
C5747 H5733 0.929 . S
C5747 C5746 1.399 . S
C5747 C5748 1.385 . S
C5748 H5734 0.931 . S
C5748 C5747 1.385 . S
C5748 C5749 1.389 . S
C5749 C5748 1.389 . S
C5749 C5750 1.387 . S
C5750 H5735 0.930 . S
C5750 C5745 1.390 . S
C5750 C5749 1.387 . S
H5751 C5763 0.930 . S
H5752 C5765 0.930 . S
H5753 C5766 0.930 . S
H5754 C5770 0.959 . S
H5755 C5770 0.959 . S
H5756 C5770 0.961 . S
H5757 C5771 0.960 . S
H5758 C5771 0.961 . S
H5759 C5771 0.959 . S
H5760 C5774 0.929 . S
H5761 C5775 0.931 . S
H5762 C5777 0.930 . S
C5763 H5751 0.930 . S
C5763 C5764 1.399 . S
C5763 C5768 1.399 . S
C5764 C5763 1.399 . S
C5764 C5765 1.376 . S
C5765 H5752 0.930 . S
C5765 C5764 1.376 . S
C5765 C5766 1.388 . S
C5766 H5753 0.930 . S
C5766 C5765 1.388 . S
C5766 C5767 1.390 . S
C5767 C5766 1.390 . S
C5767 C5768 1.394 . S
C5767 C5773 1.465 . S
C5768 C5763 1.399 . S
C5768 C5767 1.394 . S
C5768 C5769 1.516 . S
C5769 C5768 1.516 . S
C5769 C5770 1.502 . S
C5769 C5771 1.561 . S
C5769 C5772 1.526 . S
C5770 H5754 0.959 . S
C5770 H5755 0.959 . S
C5770 H5756 0.961 . S
C5770 C5769 1.502 . S
C5771 H5757 0.960 . S
C5771 H5758 0.961 . S
C5771 H5759 0.959 . S
C5771 C5769 1.561 . S
C5772 C5769 1.526 . S
C5772 C5773 1.396 . S
C5772 C5777 1.390 . S
C5773 C5767 1.465 . S
C5773 C5772 1.396 . S
C5773 C5774 1.399 . S
C5774 H5760 0.929 . S
C5774 C5773 1.399 . S
C5774 C5775 1.385 . S
C5775 H5761 0.931 . S
C5775 C5774 1.385 . S
C5775 C5776 1.389 . S
C5776 C5775 1.389 . S
C5776 C5777 1.387 . S
C5777 H5762 0.930 . S
C5777 C5772 1.390 . S
C5777 C5776 1.387 . S
H5778 C5790 0.930 . S
H5779 C5792 0.930 . S
H5780 C5793 0.930 . S
H5781 C5797 0.959 . S
H5782 C5797 0.959 . S
H5783 C5797 0.961 . S
H5784 C5798 0.960 . S
H5785 C5798 0.961 . S
H5786 C5798 0.959 . S
H5787 C5801 0.929 . S
H5788 C5802 0.931 . S
H5789 C5804 0.930 . S
C5790 H5778 0.930 . S
C5790 C5791 1.399 . S
C5790 C5795 1.399 . S
C5791 C5790 1.399 . S
C5791 C5792 1.376 . S
C5792 H5779 0.930 . S
C5792 C5791 1.376 . S
C5792 C5793 1.388 . S
C5793 H5780 0.930 . S
C5793 C5792 1.388 . S
C5793 C5794 1.390 . S
C5794 C5793 1.390 . S
C5794 C5795 1.394 . S
C5794 C5800 1.465 . S
C5795 C5790 1.399 . S
C5795 C5794 1.394 . S
C5795 C5796 1.516 . S
C5796 C5795 1.516 . S
C5796 C5797 1.502 . S
C5796 C5798 1.561 . S
C5796 C5799 1.526 . S
C5797 H5781 0.959 . S
C5797 H5782 0.959 . S
C5797 H5783 0.961 . S
C5797 C5796 1.502 . S
C5798 H5784 0.960 . S
C5798 H5785 0.961 . S
C5798 H5786 0.959 . S
C5798 C5796 1.561 . S
C5799 C5796 1.526 . S
C5799 C5800 1.396 . S
C5799 C5804 1.390 . S
C5800 C5794 1.465 . S
C5800 C5799 1.396 . S
C5800 C5801 1.399 . S
C5801 H5787 0.929 . S
C5801 C5800 1.399 . S
C5801 C5802 1.385 . S
C5802 H5788 0.931 . S
C5802 C5801 1.385 . S
C5802 C5803 1.389 . S
C5803 C5802 1.389 . S
C5803 C5804 1.387 . S
C5804 H5789 0.930 . S
C5804 C5799 1.390 . S
C5804 C5803 1.387 . S
H5805 C5817 0.930 . S
H5806 C5819 0.930 . S
H5807 C5820 0.930 . S
H5808 C5824 0.959 . S
H5809 C5824 0.959 . S
H5810 C5824 0.961 . S
H5811 C5825 0.960 . S
H5812 C5825 0.961 . S
H5813 C5825 0.959 . S
H5814 C5828 0.929 . S
H5815 C5829 0.931 . S
H5816 C5831 0.930 . S
C5817 H5805 0.930 . S
C5817 C5818 1.399 . S
C5817 C5822 1.399 . S
C5818 C5817 1.399 . S
C5818 C5819 1.376 . S
C5819 H5806 0.930 . S
C5819 C5818 1.376 . S
C5819 C5820 1.388 . S
C5820 H5807 0.930 . S
C5820 C5819 1.388 . S
C5820 C5821 1.390 . S
C5821 C5820 1.390 . S
C5821 C5822 1.394 . S
C5821 C5827 1.465 . S
C5822 C5817 1.399 . S
C5822 C5821 1.394 . S
C5822 C5823 1.516 . S
C5823 C5822 1.516 . S
C5823 C5824 1.502 . S
C5823 C5825 1.561 . S
C5823 C5826 1.526 . S
C5824 H5808 0.959 . S
C5824 H5809 0.959 . S
C5824 H5810 0.961 . S
C5824 C5823 1.502 . S
C5825 H5811 0.960 . S
C5825 H5812 0.961 . S
C5825 H5813 0.959 . S
C5825 C5823 1.561 . S
C5826 C5823 1.526 . S
C5826 C5827 1.396 . S
C5826 C5831 1.390 . S
C5827 C5821 1.465 . S
C5827 C5826 1.396 . S
C5827 C5828 1.399 . S
C5828 H5814 0.929 . S
C5828 C5827 1.399 . S
C5828 C5829 1.385 . S
C5829 H5815 0.931 . S
C5829 C5828 1.385 . S
C5829 C5830 1.389 . S
C5830 C5829 1.389 . S
C5830 C5831 1.387 . S
C5831 H5816 0.930 . S
C5831 C5826 1.390 . S
C5831 C5830 1.387 . S
H5832 C5844 0.930 . S
H5833 C5846 0.930 . S
H5834 C5847 0.930 . S
H5835 C5851 0.959 . S
H5836 C5851 0.959 . S
H5837 C5851 0.961 . S
H5838 C5852 0.960 . S
H5839 C5852 0.961 . S
H5840 C5852 0.959 . S
H5841 C5855 0.929 . S
H5842 C5856 0.931 . S
H5843 C5858 0.930 . S
C5844 H5832 0.930 . S
C5844 C5845 1.399 . S
C5844 C5849 1.399 . S
C5845 C5844 1.399 . S
C5845 C5846 1.376 . S
C5846 H5833 0.930 . S
C5846 C5845 1.376 . S
C5846 C5847 1.388 . S
C5847 H5834 0.930 . S
C5847 C5846 1.388 . S
C5847 C5848 1.390 . S
C5848 C5847 1.390 . S
C5848 C5849 1.394 . S
C5848 C5854 1.465 . S
C5849 C5844 1.399 . S
C5849 C5848 1.394 . S
C5849 C5850 1.516 . S
C5850 C5849 1.516 . S
C5850 C5851 1.502 . S
C5850 C5852 1.561 . S
C5850 C5853 1.526 . S
C5851 H5835 0.959 . S
C5851 H5836 0.959 . S
C5851 H5837 0.961 . S
C5851 C5850 1.502 . S
C5852 H5838 0.960 . S
C5852 H5839 0.961 . S
C5852 H5840 0.959 . S
C5852 C5850 1.561 . S
C5853 C5850 1.526 . S
C5853 C5854 1.396 . S
C5853 C5858 1.390 . S
C5854 C5848 1.465 . S
C5854 C5853 1.396 . S
C5854 C5855 1.399 . S
C5855 H5841 0.929 . S
C5855 C5854 1.399 . S
C5855 C5856 1.385 . S
C5856 H5842 0.931 . S
C5856 C5855 1.385 . S
C5856 C5857 1.389 . S
C5857 C5856 1.389 . S
C5857 C5858 1.387 . S
C5858 H5843 0.930 . S
C5858 C5853 1.390 . S
C5858 C5857 1.387 . S
H5859 C5871 0.930 . S
H5860 C5873 0.930 . S
H5861 C5874 0.930 . S
H5862 C5878 0.959 . S
H5863 C5878 0.959 . S
H5864 C5878 0.961 . S
H5865 C5879 0.958 . S
H5866 C5879 0.933 1_545 S
H5867 C5879 0.948 1_545 S
H5868 C5882 0.929 . S
H5869 C5883 0.931 . S
H5870 C5885 0.970 . S
C5871 H5859 0.930 . S
C5871 C5872 1.399 . S
C5871 C5876 1.399 . S
C5872 C5871 1.399 . S
C5872 C5873 1.376 . S
C5873 H5860 0.930 . S
C5873 C5872 1.376 . S
C5873 C5874 1.388 . S
C5874 H5861 0.930 . S
C5874 C5873 1.388 . S
C5874 C5875 1.390 . S
C5875 C5874 1.390 . S
C5875 C5876 1.394 . S
C5875 C5881 1.465 . S
C5876 C5871 1.399 . S
C5876 C5875 1.394 . S
C5876 C5877 1.516 . S
C5877 C5876 1.516 . S
C5877 C5878 1.502 . S
C5877 C5879 1.605 . S
C5877 C5880 1.526 . S
C5878 H5862 0.959 . S
C5878 H5863 0.959 . S
C5878 H5864 0.961 . S
C5878 C5877 1.502 . S
C5879 H5865 0.958 . S
C5879 H5866 0.933 1_565 S
C5879 H5867 0.948 1_565 S
C5879 C5877 1.605 . S
C5880 C5877 1.526 . S
C5880 C5881 1.396 . S
C5880 C5885 1.390 . S
C5881 C5875 1.465 . S
C5881 C5880 1.396 . S
C5881 C5882 1.399 . S
C5882 H5868 0.929 . S
C5882 C5881 1.399 . S
C5882 C5883 1.385 . S
C5883 H5869 0.931 . S
C5883 C5882 1.385 . S
C5883 C5884 1.389 . S
C5884 C5883 1.389 . S
C5884 C5885 1.387 . S
C5885 H5870 0.970 . S
C5885 C5880 1.390 . S
C5885 C5884 1.387 . S
H5886 C5898 0.930 . S
H5887 C5900 0.930 . S
H5888 C5901 0.930 . S
H5889 C5905 0.959 . S
H5890 C5905 0.959 . S
H5891 C5905 0.961 . S
H5892 C5906 0.960 . S
H5893 C5906 0.961 . S
H5894 C5906 0.959 . S
H5895 C5909 0.929 . S
H5896 C5910 0.931 . S
H5897 C5912 0.930 . S
C5898 H5886 0.930 . S
C5898 C5899 1.399 . S
C5898 C5903 1.399 . S
C5899 C5898 1.399 . S
C5899 C5900 1.376 . S
C5900 H5887 0.930 . S
C5900 C5899 1.376 . S
C5900 C5901 1.388 . S
C5901 H5888 0.930 . S
C5901 C5900 1.388 . S
C5901 C5902 1.390 . S
C5902 C5901 1.390 . S
C5902 C5903 1.394 . S
C5902 C5908 1.465 . S
C5903 C5898 1.399 . S
C5903 C5902 1.394 . S
C5903 C5904 1.516 . S
C5904 C5903 1.516 . S
C5904 C5905 1.502 . S
C5904 C5906 1.561 . S
C5904 C5907 1.526 . S
C5905 H5889 0.959 . S
C5905 H5890 0.959 . S
C5905 H5891 0.961 . S
C5905 C5904 1.502 . S
C5906 H5892 0.960 . S
C5906 H5893 0.961 . S
C5906 H5894 0.959 . S
C5906 C5904 1.561 . S
C5907 C5904 1.526 . S
C5907 C5908 1.396 . S
C5907 C5912 1.390 . S
C5908 C5902 1.465 . S
C5908 C5907 1.396 . S
C5908 C5909 1.399 . S
C5909 H5895 0.929 . S
C5909 C5908 1.399 . S
C5909 C5910 1.385 . S
C5910 H5896 0.931 . S
C5910 C5909 1.385 . S
C5910 C5911 1.389 . S
C5911 C5910 1.389 . S
C5911 C5912 1.387 . S
C5912 H5897 0.930 . S
C5912 C5907 1.390 . S
C5912 C5911 1.387 . S
H5913 C5925 0.930 . S
H5914 C5927 0.930 . S
H5915 C5928 0.879 1_556 S
H5916 C5932 0.959 . S
H5917 C5932 0.959 . S
H5918 C5932 0.961 . S
H5919 C5933 0.960 . S
H5920 C5933 0.961 . S
H5921 C5933 0.959 . S
H5922 C5936 0.929 1_556 S
H5923 C5937 0.931 1_556 S
H5924 C5939 0.930 . S
C5925 H5913 0.930 . S
C5925 C5926 1.399 . S
C5925 C5930 1.399 . S
C5926 C5925 1.399 . S
C5926 C5927 1.376 . S
C5927 H5914 0.930 . S
C5927 C5926 1.376 . S
C5927 C5928 1.388 . S
C5928 H5915 0.879 1_554 S
C5928 C5927 1.388 . S
C5928 C5929 1.390 . S
C5929 C5928 1.390 . S
C5929 C5930 1.394 . S
C5929 C5935 1.465 . S
C5930 C5925 1.399 . S
C5930 C5929 1.394 . S
C5930 C5931 1.516 . S
C5931 C5930 1.516 . S
C5931 C5932 1.502 . S
C5931 C5933 1.561 . S
C5931 C5934 1.526 . S
C5932 H5916 0.959 . S
C5932 H5917 0.959 . S
C5932 H5918 0.961 . S
C5932 C5931 1.502 . S
C5933 H5919 0.960 . S
C5933 H5920 0.961 . S
C5933 H5921 0.959 . S
C5933 C5931 1.561 . S
C5934 C5931 1.526 . S
C5934 C5935 1.396 . S
C5934 C5939 1.390 . S
C5935 C5929 1.465 . S
C5935 C5934 1.396 . S
C5935 C5936 1.399 . S
C5936 H5922 0.929 1_554 S
C5936 C5935 1.399 . S
C5936 C5937 1.385 . S
C5937 H5923 0.931 1_554 S
C5937 C5936 1.385 . S
C5937 C5938 1.389 . S
C5938 C5937 1.389 . S
C5938 C5939 1.387 . S
C5939 H5924 0.930 . S
C5939 C5934 1.390 . S
C5939 C5938 1.387 . S
H5940 C5952 0.930 . S
H5941 C5954 0.930 . S
H5942 C5955 0.930 . S
H5943 C5959 0.959 . S
H5944 C5959 0.959 . S
H5945 C5959 0.961 . S
H5946 C5960 0.960 . S
H5947 C5960 0.961 . S
H5948 C5960 0.959 . S
H5949 C5963 0.929 . S
H5950 C5964 0.931 . S
H5951 C5966 0.930 . S
C5952 H5940 0.930 . S
C5952 C5953 1.399 . S
C5952 C5957 1.399 . S
C5953 C5952 1.399 . S
C5953 C5954 1.376 . S
C5954 H5941 0.930 . S
C5954 C5953 1.376 . S
C5954 C5955 1.388 . S
C5955 H5942 0.930 . S
C5955 C5954 1.388 . S
C5955 C5956 1.390 . S
C5956 C5955 1.390 . S
C5956 C5957 1.394 . S
C5956 C5962 1.465 . S
C5957 C5952 1.399 . S
C5957 C5956 1.394 . S
C5957 C5958 1.516 . S
C5958 C5957 1.516 . S
C5958 C5959 1.502 . S
C5958 C5960 1.561 . S
C5958 C5961 1.526 . S
C5959 H5943 0.959 . S
C5959 H5944 0.959 . S
C5959 H5945 0.961 . S
C5959 C5958 1.502 . S
C5960 H5946 0.960 . S
C5960 H5947 0.961 . S
C5960 H5948 0.959 . S
C5960 C5958 1.561 . S
C5961 C5958 1.526 . S
C5961 C5962 1.396 . S
C5961 C5966 1.390 . S
C5962 C5956 1.465 . S
C5962 C5961 1.396 . S
C5962 C5963 1.399 . S
C5963 H5949 0.929 . S
C5963 C5962 1.399 . S
C5963 C5964 1.385 . S
C5964 H5950 0.931 . S
C5964 C5963 1.385 . S
C5964 C5965 1.389 . S
C5965 C5964 1.389 . S
C5965 C5966 1.387 . S
C5966 H5951 0.930 . S
C5966 C5961 1.390 . S
C5966 C5965 1.387 . S
H5967 C5979 0.930 . S
H5968 C5981 0.930 . S
H5969 C5982 0.930 1_556 S
H5970 C5986 0.959 . S
H5971 C5986 0.959 . S
H5972 C5986 0.961 . S
H5973 C5987 0.960 . S
H5974 C5987 0.961 . S
H5975 C5987 0.959 . S
H5976 C5990 0.929 . S
H5977 C5991 0.955 . S
H5978 C5993 0.930 . S
C5979 H5967 0.930 . S
C5979 C5980 1.399 . S
C5979 C5984 1.399 . S
C5980 C5979 1.399 . S
C5980 C5981 1.376 . S
C5981 H5968 0.930 . S
C5981 C5980 1.376 . S
C5981 C5982 1.388 . S
C5982 H5969 0.930 1_554 S
C5982 C5981 1.388 . S
C5982 C5983 1.390 . S
C5983 C5982 1.390 . S
C5983 C5984 1.394 . S
C5983 C5989 1.465 . S
C5984 C5979 1.399 . S
C5984 C5983 1.394 . S
C5984 C5985 1.516 . S
C5985 C5984 1.516 . S
C5985 C5986 1.502 . S
C5985 C5987 1.561 . S
C5985 C5988 1.526 . S
C5986 H5970 0.959 . S
C5986 H5971 0.959 . S
C5986 H5972 0.961 . S
C5986 C5985 1.502 . S
C5987 H5973 0.960 . S
C5987 H5974 0.961 . S
C5987 H5975 0.959 . S
C5987 C5985 1.561 . S
C5988 C5985 1.526 . S
C5988 C5989 1.396 . S
C5988 C5993 1.390 . S
C5989 C5983 1.465 . S
C5989 C5988 1.396 . S
C5989 C5990 1.399 1_554 S
C5990 H5976 0.929 . S
C5990 C5989 1.399 1_556 S
C5990 C5991 1.388 . S
C5991 H5977 0.955 . S
C5991 C5990 1.388 . S
C5991 C5992 1.363 1_556 S
C5992 C5991 1.363 1_554 S
C5992 C5993 1.387 . S
C5993 H5978 0.930 . S
C5993 C5988 1.390 . S
C5993 C5992 1.387 . S
H5994 C6006 0.930 . S
H5995 C6008 0.930 . S
H5996 C6009 0.930 . S
H5997 C6013 0.959 . S
H5998 C6013 0.959 . S
H5999 C6013 0.961 . S
H6000 C6014 0.960 . S
H6001 C6014 0.961 . S
H6002 C6014 0.959 . S
H6003 C6017 0.929 . S
H6004 C6018 0.931 . S
H6005 C6020 0.930 . S
C6006 H5994 0.930 . S
C6006 C6007 1.399 . S
C6006 C6011 1.399 . S
C6007 C6006 1.399 . S
C6007 C6008 1.376 . S
C6008 H5995 0.930 . S
C6008 C6007 1.376 . S
C6008 C6009 1.388 . S
C6009 H5996 0.930 . S
C6009 C6008 1.388 . S
C6009 C6010 1.390 . S
C6010 C6009 1.390 . S
C6010 C6011 1.394 . S
C6010 C6016 1.465 . S
C6011 C6006 1.399 . S
C6011 C6010 1.394 . S
C6011 C6012 1.516 . S
C6012 C6011 1.516 . S
C6012 C6013 1.502 . S
C6012 C6014 1.561 . S
C6012 C6015 1.526 . S
C6013 H5997 0.959 . S
C6013 H5998 0.959 . S
C6013 H5999 0.961 . S
C6013 C6012 1.502 . S
C6014 H6000 0.960 . S
C6014 H6001 0.961 . S
C6014 H6002 0.959 . S
C6014 C6012 1.561 . S
C6015 C6012 1.526 . S
C6015 C6016 1.396 . S
C6015 C6020 1.390 . S
C6016 C6010 1.465 . S
C6016 C6015 1.396 . S
C6016 C6017 1.399 . S
C6017 H6003 0.929 . S
C6017 C6016 1.399 . S
C6017 C6018 1.385 . S
C6018 H6004 0.931 . S
C6018 C6017 1.385 . S
C6018 C6019 1.389 . S
C6019 C6018 1.389 . S
C6019 C6020 1.387 . S
C6020 H6005 0.930 . S
C6020 C6015 1.390 . S
C6020 C6019 1.387 . S
H6021 C6033 0.930 . S
H6022 C6035 0.930 . S
H6023 C6036 0.930 . S
H6024 C6040 0.959 . S
H6025 C6040 0.959 . S
H6026 C6040 0.961 . S
H6027 C6041 0.960 . S
H6028 C6041 0.961 . S
H6029 C6041 0.959 . S
H6030 C6044 0.929 . S
H6031 C6045 0.931 . S
H6032 C6047 0.930 . S
C6033 H6021 0.930 . S
C6033 C6034 1.399 . S
C6033 C6038 1.399 . S
C6034 C6033 1.399 . S
C6034 C6035 1.376 . S
C6035 H6022 0.930 . S
C6035 C6034 1.376 . S
C6035 C6036 1.388 . S
C6036 H6023 0.930 . S
C6036 C6035 1.388 . S
C6036 C6037 1.390 . S
C6037 C6036 1.390 . S
C6037 C6038 1.394 . S
C6037 C6043 1.465 . S
C6038 C6033 1.399 . S
C6038 C6037 1.394 . S
C6038 C6039 1.516 . S
C6039 C6038 1.516 . S
C6039 C6040 1.502 . S
C6039 C6041 1.561 . S
C6039 C6042 1.526 . S
C6040 H6024 0.959 . S
C6040 H6025 0.959 . S
C6040 H6026 0.961 . S
C6040 C6039 1.502 . S
C6041 H6027 0.960 . S
C6041 H6028 0.961 . S
C6041 H6029 0.959 . S
C6041 C6039 1.561 . S
C6042 C6039 1.526 . S
C6042 C6043 1.396 . S
C6042 C6047 1.390 . S
C6043 C6037 1.465 . S
C6043 C6042 1.396 . S
C6043 C6044 1.399 . S
C6044 H6030 0.929 . S
C6044 C6043 1.399 . S
C6044 C6045 1.385 . S
C6045 H6031 0.931 . S
C6045 C6044 1.385 . S
C6045 C6046 1.389 . S
C6046 C6045 1.389 . S
C6046 C6047 1.387 . S
C6047 H6032 0.930 . S
C6047 C6042 1.390 . S
C6047 C6046 1.387 . S
C3469 C665 2.032 1_455 S
C3481 C2179 2.070 . S
C3496 C381 1.813 . S
C3508 C2252 1.813 . S
C3523 C460 1.855 . S
C3535 C2347 1.925 . S
C3562 C2422 1.465 . S
C3550 C585 1.532 . S
C3577 C108 1.532 . S
C3589 C2506 1.405 . S
C3616 C2599 1.933 . S
C3604 C196 1.841 . S
C3643 C2672 1.801 . S
C3631 C313 1.790 . S
C3658 C49 2.047 . S
C3670 C2767 2.063 . S
C3697 C2168 1.544 . S
C3685 C1457 1.539 . S
C3712 C1545 0.800 . S
C3724 C2254 0.715 . S
C3751 C2336 1.053 . S
C3739 C1721 1.035 . S
C3778 C2431 1.623 . S
C3766 C1113 1.636 . S
C3793 C1428 1.592 . S
C3805 C2515 1.650 . S
C3832 C2588 1.031 . S
C3820 C1516 1.031 . S
C3859 C2674 0.869 . S
C3847 C1692 0.815 . S
C3886 C2756 1.540 . S
C3874 C1085 1.539 . S
C3913 C2170 0.866 . S
C3901 C988 0.886 1_554 S
C3928 C1817 1.660 . S
C3940 C2840 1.611 . S
C3967 C2926 1.210 . S
C3955 C2081 1.319 . S
C3994 C3019 0.853 . S
C3982 C1993 0.765 . S
C4009 C761 0.889 . S
C4021 C2758 0.868 . S
C4036 C821 1.326 . S
C4048 C2338 1.230 . S
C4063 C2053 1.656 . S
C4075 C3092 1.612 . S
C4102 C3187 0.846 . S
C4090 C1868 0.778 . S
C4129 C2167 2.076 . S
C4117 C372 2.007 . S
C4156 C3188 1.789 . S
C4144 C645 1.782 . S
C4171 C577 1.844 . S
C4183 C2335 1.929 . S
C4198 C497 1.527 . S
C4210 C3106 1.448 . S
C4237 C2518 1.447 . S
C4225 C57 1.529 . S
C4252 C293 1.869 . S
C4264 C2923 1.924 . S
C4291 C2684 1.806 1_556 S
C4279 C205 1.808 . S
C4318 C3259 2.071 . S
C4306 C145 2.005 . S
C4345 C2180 1.519 . S
C4333 C909 1.559 . S
C4372 C3190 0.707 . S
C4360 C1956 0.804 . S
C4387 C724 1.023 . S
C4399 C2348 0.991 . S
C4414 C1780 1.591 . S
C4426 C3091 1.645 . S
C4441 C937 1.602 . S
C4453 C2503 1.624 . S
C4480 C2936 1.047 . S
C4468 C1985 1.034 . S
C4495 C753 0.809 . S
C4507 C2686 0.702 . S
C4522 C1809 1.566 . S
C4534 C3272 1.472 . S
C4549 C1173 0.966 . S
C4561 C2182 0.895 . S
C4576 C1105 1.649 . S
C4588 C2852 1.616 . S
C4603 C1633 1.318 . S
C4615 C2602 1.217 . S
C4630 C1553 0.847 . S
C4642 C3007 0.819 . S
C4669 C3274 0.971 . S
C4657 C1729 0.922 . S
C4684 C1340 1.336 . S
C4696 C2350 1.304 . S
C4723 C2432 1.638 . S
C4711 C1604 1.660 . S
C4750 C2251 0.813 . S
C4738 C1252 0.781 . S
C4765 C489 2.035 . S
C4777 C3355 2.069 . S
C4804 C3176 1.786 . S
C4792 C557 1.786 . S
C4819 C636 1.888 1_554 S
C4831 C3439 1.913 . S
C4846 C409 1.528 . S
C4858 C3094 1.382 . S
C4873 C284 1.530 . S
C4885 C2842 1.425 . S
C4912 C2935 1.932 . S
C4900 C20 1.843 . S
C4939 C3008 1.800 . S
C4927 C137 1.812 . S
C4966 C3271 2.061 . S
C4954 C225 2.051 . S
C4993 C3344 1.474 . S
C4981 C1641 1.572 . S
C5008 C1193 0.803 . S
C5020 C3178 0.698 . S
C5047 C3428 1.053 . S
C5035 C1289 1.035 . S
C5074 C3103 1.643 . S
C5062 C1377 1.606 . S
C5101 C2851 1.619 . S
C5089 C1613 1.640 . S
C5116 C1164 1.027 . S
C5128 C2924 1.005 . S
C5155 C3010 0.717 . S
C5143 C1261 0.800 . S
C5170 C1349 1.556 . S
C5182 C3260 1.511 . S
C5209 C3346 0.883 . S
C5197 C1965 0.893 . S
C5224 C849 1.648 . S
C5236 C2504 1.657 . S
C5263 C2590 1.211 . S
C5251 C929 1.319 . S
C5290 C2683 0.846 . S
C5278 C1017 0.780 . S
C5317 C3262 0.884 . S
C5305 C1897 0.936 . S
C5332 C1789 1.339 . S
C5344 C3430 1.305 . S
C5371 C2420 1.656 . S
C5359 C900 1.652 . S
C5398 C2263 0.847 . S
C5386 C733 0.777 . S
C5413 C548 2.051 . S
C5425 C3343 2.055 . S
C5452 C2264 1.800 . S
C5440 C469 1.802 . S
C5467 C401 1.844 . S
C5479 C3427 1.928 . S
C5494 C673 1.529 . S
C5506 C2434 1.357 . S
C5521 C233 1.529 . S
C5533 C2854 1.424 . S
C5560 C2587 1.920 . S
C5548 C117 1.838 . S
C5575 C29 1.797 . S
C5587 C3020 1.795 . S
C5602 C321 2.011 . S
C5614 C2755 2.076 . S
C5641 C3356 1.520 . S
C5629 C2044 1.558 . S
C5656 C997 0.808 . S
C5668 C2266 0.817 . S
C5695 C3440 1.038 1_655 S
C5683 C1877 1.029 . S
C5710 C812 1.636 . S
C5722 C2419 1.614 . S
C5737 C2073 1.626 . S
C5749 C2839 1.634 . S
C5776 C2600 1.050 . S
C5764 C1025 1.039 . S
C5791 C1905 0.799 . S
C5803 C3022 0.876 . S
C5830 C2768 1.537 . S
C5818 C841 1.534 . S
C5857 C3358 0.856 . S
C5845 C1525 0.938 . S
C5884 C2516 1.653 1_565 S
C5872 C1369 1.658 . S
C5899 C1465 1.323 . S
C5911 C2938 1.216 . S
C5938 C2671 0.818 . S
C5926 C1201 0.774 . S
C5953 C1281 0.928 . S
C5965 C2770 0.975 . S
C5980 C1076 1.321 . S
C5992 C3442 1.211 . S
C6019 C3104 1.628 . S
C6007 C1437 1.629 . S
C6046 C3175 0.824 . S
C6034 C1701 0.768 . S
