# Generated by pormake.
# Topology nia, (6,6)-cn, num edge types: 1
# Building blocks:
#     Node 0, Type 0, BuildingBlock: BETDEL_clean_sbu_0, # of connection points: 6
#     Node 1, Type 0, BuildingBlock: BETDEL_clean_sbu_0, # of connection points: 6
#     Node 2, Type 1, BuildingBlock: MIDCAF_clean_sbu_0, # of connection points: 6
#     Node 3, Type 1, BuildingBlock: MIDCAF_clean_sbu_0, # of connection points: 6
#     Edge 4, Type (0, 1), BuildingBlock: CIFDUS_clean_linker_0, # of connection points: 2
#     Edge 5, Type (0, 1), BuildingBlock: CIFDUS_clean_linker_0, # of connection points: 2
#     Edge 6, Type (0, 1), BuildingBlock: CIFDUS_clean_linker_0, # of connection points: 2
#     Edge 7, Type (0, 1), BuildingBlock: CIFDUS_clean_linker_0, # of connection points: 2
#     Edge 8, Type (0, 1), BuildingBlock: CIFDUS_clean_linker_0, # of connection points: 2
#     Edge 9, Type (0, 1), BuildingBlock: CIFDUS_clean_linker_0, # of connection points: 2
#     Edge 10, Type (0, 1), BuildingBlock: CIFDUS_clean_linker_0, # of connection points: 2
#     Edge 11, Type (0, 1), BuildingBlock: CIFDUS_clean_linker_0, # of connection points: 2
#     Edge 12, Type (0, 1), BuildingBlock: CIFDUS_clean_linker_0, # of connection points: 2
#     Edge 13, Type (0, 1), BuildingBlock: CIFDUS_clean_linker_0, # of connection points: 2
#     Edge 14, Type (0, 1), BuildingBlock: CIFDUS_clean_linker_0, # of connection points: 2
#     Edge 15, Type (0, 1), BuildingBlock: CIFDUS_clean_linker_0, # of connection points: 2
# Relax obj value: 0.214
# Max RMSD: 0.246
# Mean RMSD: 0.206
data_MOF--net-nia--node1-BETDEL_clean_sbu_0--node2-MIDCAF_clean_sbu_0--edge1-CIFDUS_clean_linker_0
_symmetry_space_group_name_H-M    P1
_symmetry_Int_Tables_number       1
_symmetry_cell_setting            triclinic
loop_
_symmetry_equiv_pos_as_xyz
'x, y, z'
_cell_length_a     21.797553
_cell_length_b     23.180523
_cell_length_c     25.129779
_cell_angle_alpha  80.445467
_cell_angle_beta   93.332248
_cell_angle_gamma 124.66251
loop_
_atom_site_label
_atom_site_type_symbol
_atom_site_fract_x
_atom_site_fract_y
_atom_site_fract_z
_atom_type_partial_charge
Dy0 Dy 0.00576 0.00832 0.12427 0.0
C1 C 0.85666 0.77963 1.00794 0.0
C2 C 0.07619 0.11985 0.17993 0.0
Dy3 Dy 0.93808 0.90678 1.04507 0.0
O4 O 0.01732 0.05744 0.19737 0.0
O5 O 0.09719 0.12135 0.13208 0.0
O6 O 0.91296 0.92487 0.18415 0.0
O7 O 0.89113 0.93393 0.10241 0.0
C8 C 0.86246 0.89954 0.14861 0.0
C9 C 0.08031 0.01566 1.01811 0.0
O10 O 0.89405 -0.02743 1.01265 0.0
O11 O -0.02071 0.06649 1.05647 0.0
O12 O 0.90133 0.84087 0.97784 0.0
O13 O 0.85472 0.78882 1.05718 0.0
O14 O 0.03054 -0.01571 0.98296 0.0
O15 O 0.05287 -0.01691 1.06504 0.0
O16 O 0.05673 -0.05014 0.15399 0.0
O17 O -0.02362 0.85432 0.11049 0.0
C18 C 0.92778 0.03956 1.02 0.0
C19 C 0.0277 0.88412 0.14663 0.0
Dy20 Dy 0.93379 -0.01349 0.60124 0.0
C21 C 0.03328 0.82728 0.52496 0.0
C22 C 0.89253 0.06909 0.62908 0.0
Dy23 Dy -0.00034 0.91448 0.55556 0.0
O24 O 0.91862 0.03948 0.66222 0.0
O25 O 0.89072 0.05475 0.58107 0.0
O26 O 0.84853 0.88437 0.65206 0.0
O27 O -0.04774 0.90419 0.63359 0.0
C28 C 0.88774 0.858 0.65496 0.0
C29 C 0.0376 0.04076 0.49971 0.0
O30 O 0.88008 0.84978 0.53228 0.0
O31 O 0.84689 0.9267 0.54318 0.0
O32 O 0.04336 0.88343 0.49485 0.0
O33 O 0.00504 0.81876 0.57211 0.0
O34 O 0.0819 0.01973 0.50311 0.0
O35 O -0.02431 -0.00772 0.52312 0.0
O36 O 0.05576 0.0544 0.6181 0.0
O37 O 0.08523 -0.02708 0.61468 0.0
C38 C 0.83305 0.86922 0.52636 0.0
C39 C 0.10087 0.03289 0.6279 0.0
Zn40 Zn 0.30381 0.64449 0.23303 0.0
Zn41 Zn 0.27162 0.57177 0.4406 0.0
Zn42 Zn 0.29137 0.61007 0.33386 0.0
C43 C 0.42566 0.67052 0.41461 0.0
C44 C 0.21507 0.44829 0.4007 0.0
O45 O 0.22349 0.65458 0.307 0.0
O46 O 0.23872 0.67667 0.21801 0.0
C47 C 0.44792 0.71801 0.26293 0.0
O48 O 0.40248 0.67193 0.36641 0.0
O49 O 0.38057 0.62862 0.45396 0.0
O50 O 0.21816 0.46811 0.44514 0.0
O51 O 0.24007 0.49346 0.35642 0.0
O52 O 0.41095 0.71569 0.22191 0.0
O53 O 0.4133 0.68281 0.30906 0.0
O54 O 0.24965 0.5119 0.30002 0.0
O55 O 0.27191 0.55377 0.21261 0.0
C56 C 0.25026 0.50274 0.25088 0.0
O57 O 0.22624 0.64655 0.36386 0.0
O58 O 0.21473 0.61156 0.45236 0.0
C59 C 0.20974 0.67637 0.26005 0.0
C60 C 0.2033 0.64324 0.41128 0.0
Zn61 Zn 0.64833 0.27679 0.92629 0.0
Zn62 Zn 0.6513 0.31936 0.72076 0.0
Zn63 Zn 0.64746 0.29587 0.82348 0.0
C64 C 0.73397 0.45169 0.74588 0.0
C65 C 0.50277 0.23269 0.74826 0.0
O66 O 0.70111 0.23715 0.85242 0.0
O67 O 0.69939 0.22862 0.94142 0.0
C68 C 0.71559 0.42122 0.89728 0.0
O69 O 0.71482 0.41364 0.79346 0.0
O70 O 0.71136 0.42242 0.70442 0.0
O71 O 0.54515 0.26924 0.7068 0.0
O72 O 0.5302 0.23529 0.79549 0.0
O73 O 0.70134 0.3755 0.93848 0.0
O74 O 0.70124 0.40237 0.85005 0.0
O75 O 0.52776 0.2346 0.85285 0.0
O76 O 0.53953 0.22132 0.94106 0.0
C77 C 0.49842 0.2124 0.9014 0.0
O78 O 0.70706 0.25259 0.79552 0.0
O79 O 0.70044 0.27402 0.70713 0.0
C80 C 0.71571 0.21615 0.89939 0.0
C81 C 0.72096 0.24938 0.74723 0.0
H82 H -0.01829 0.7642 0.22162 0.0
H83 H 0.16665 0.93538 0.11606 0.0
H84 H 0.24107 0.88913 0.14574 0.0
H85 H 0.25238 0.79828 0.19795 0.0
H86 H 0.07177 0.62547 0.30528 0.0
H87 H -0.00295 0.67446 0.28007 0.0
C88 C 0.0383 0.79094 0.20547 0.0
C89 C 0.06907 0.85296 0.16666 0.0
C90 C 0.08143 0.7641 0.22334 0.0
C91 C 0.14241 0.88789 0.14612 0.0
C92 C 0.18489 0.86145 0.16302 0.0
C93 C 0.1968 0.77166 0.21621 0.0
C94 C 0.16717 0.70849 0.25304 0.0
C95 C 0.15484 0.79953 0.20118 0.0
C96 C 0.09555 0.67451 0.27689 0.0
C97 C 0.05285 0.70223 0.26214 0.0
H98 H 0.17466 -0.00625 0.69922 0.0
H99 H 0.18811 0.17671 0.60994 0.0
H100 H 0.31219 0.25541 0.64309 0.0
H101 H 0.42046 0.27152 0.69166 0.0
H102 H 0.40647 0.09077 0.7853 0.0
H103 H 0.27827 0.01151 0.75722 0.0
C104 C 0.2048 0.0509 0.68742 0.0
C105 C 0.17305 0.07957 0.65169 0.0
C106 C 0.2756 0.09594 0.70754 0.0
C107 C 0.21167 0.15359 0.63734 0.0
C108 C 0.28259 0.19855 0.65617 0.0
C109 C 0.38866 0.21483 0.70653 0.0
C110 C 0.42226 0.18653 0.74008 0.0
C111 C 0.31551 0.17023 0.69049 0.0
C112 C 0.38109 0.11333 0.75955 0.0
C113 C 0.30823 0.0682 0.74319 0.0
H114 H 0.19806 0.25116 0.14727 0.0
H115 H 0.02333 0.12784 0.27233 0.0
H116 H 0.06485 0.2357 0.30884 0.0
H117 H 0.14223 0.36723 0.29781 0.0
H118 H 0.31723 0.48818 0.17274 0.0
H119 H 0.2833 0.37939 0.1428 0.0
C120 C 0.16977 0.24786 0.18295 0.0
C121 C 0.10745 0.18228 0.20672 0.0
C122 C 0.19321 0.30981 0.20311 0.0
C123 C 0.0714 0.17822 0.25319 0.0
C124 C 0.09483 0.23981 0.2739 0.0
C125 C 0.17423 0.3693 0.26529 0.0
C126 C 0.23215 0.4353 0.23772 0.0
C127 C 0.15447 0.30623 0.24824 0.0
C128 C 0.2718 0.43777 0.19425 0.0
C129 C 0.25271 0.37568 0.17719 0.0
H130 H 0.9063 0.12041 0.72292 0.0
H131 H 0.80241 0.09552 0.56908 0.0
H132 H 0.73751 0.14513 0.59405 0.0
H133 H 0.70873 0.19363 0.65889 0.0
H134 H 0.82237 0.23475 0.80819 0.0
H135 H 0.88329 0.17857 0.78686 0.0
C136 C 0.86974 0.12637 0.69496 0.0
C137 C 0.85889 0.10427 0.6443 0.0
C138 C 0.83336 0.15638 0.70923 0.0
C139 C 0.81184 0.11245 0.60817 0.0
C140 C 0.77441 0.14048 0.62249 0.0
C141 C 0.74688 0.1905 0.68696 0.0
C142 C 0.75861 0.21561 0.73629 0.0
C143 C 0.78453 0.16227 0.67285 0.0
C144 C 0.80903 0.21196 0.7716 0.0
C145 C 0.84509 0.18131 0.75871 0.0
H146 H 0.7868 0.82466 0.24529 0.0
H147 H 0.76074 0.90178 0.08282 0.0
H148 H 0.63396 0.86043 0.10678 0.0
H149 H 0.53112 0.80317 0.17274 0.0
H150 H 0.54679 0.70856 0.33119 0.0
H151 H 0.67807 0.75898 0.31111 0.0
C152 C 0.75291 0.8317 0.21518 0.0
C153 C 0.7831 0.86629 0.16243 0.0
C154 C 0.67908 0.80659 0.22899 0.0
C155 C 0.73876 0.87499 0.12361 0.0
C156 C 0.6664 0.8519 0.13737 0.0
C157 C 0.5631 0.79384 0.20332 0.0
C158 C 0.52954 0.7543 0.25442 0.0
C159 C 0.63627 0.81806 0.1899 0.0
C160 C 0.57199 0.742 0.29282 0.0
C161 C 0.64668 0.76934 0.28071 0.0
H162 H 0.94585 0.78767 0.70911 0.0
H163 H 0.75018 0.75671 0.63057 0.0
H164 H 0.68616 0.62849 0.65187 0.0
H165 H 0.68455 0.52516 0.693 0.0
H166 H 0.87238 0.55064 0.77992 0.0
H167 H 0.94056 0.68096 0.75661 0.0
C168 C 0.88944 0.75243 0.69659 0.0
C169 C 0.853 0.78109 0.66751 0.0
C170 C 0.85139 0.67814 0.71121 0.0
C171 C 0.77941 0.73554 0.65244 0.0
C172 C 0.74262 0.66229 0.6648 0.0
C173 C 0.74035 0.55946 0.70703 0.0
C174 C 0.77388 0.52929 0.73779 0.0
C175 C 0.77788 0.63314 0.69427 0.0
C176 C 0.84577 0.57346 0.75629 0.0
C177 C 0.88463 0.64763 0.74271 0.0
H178 H 0.10702 0.84934 0.43229 0.0
H179 H 0.00398 0.70258 0.58077 0.0
H180 H 0.04154 0.629 0.55573 0.0
H181 H 0.10953 0.61008 0.49433 0.0
H182 H 0.22157 0.76155 0.34945 0.0
H183 H 0.17279 0.82846 0.36932 0.0
C184 C 0.09242 0.80096 0.45893 0.0
C185 C 0.05313 0.78144 0.50842 0.0
C186 C 0.1152 0.75951 0.44459 0.0
C187 C 0.03455 0.71879 0.54263 0.0
C188 C 0.05593 0.67672 0.52829 0.0
C189 C 0.12266 0.65737 0.46677 0.0
C190 C 0.16765 0.67982 0.41969 0.0
C191 C 0.09712 0.6971 0.47977 0.0
C192 C 0.18477 0.74157 0.38477 0.0
C193 C 0.15791 0.78053 0.39667 0.0
H194 H 0.15115 0.07832 0.91848 0.0
H195 H 0.19184 0.05098 0.08787 0.0
H196 H 0.32318 0.10491 1.06612 0.0
H197 H 0.42478 0.15472 0.99931 0.0
H198 H 0.39163 0.20275 0.83167 0.0
H199 H 0.25865 0.14414 0.85177 0.0
C200 C 0.18904 0.08483 0.95057 0.0
C201 C 0.1614 0.05868 1.00464 0.0
C202 C 0.26529 0.11794 0.93784 0.0
C203 C 0.21132 0.06895 1.04589 0.0
C204 C 0.28649 0.09986 1.03349 0.0
C205 C 0.38873 0.15232 0.96686 0.0
C206 C 0.41765 0.17902 0.91302 0.0
C207 C 0.31372 0.12332 0.97958 0.0
C208 C 0.37005 0.17762 0.87238 0.0
C209 C 0.29423 0.14577 0.88431 0.0
H210 H 0.16935 0.15241 0.44856 0.0
H211 H 0.94608 0.08551 0.48836 0.0
H212 H -0.02059 0.20576 0.45745 0.0
H213 H 0.07604 0.33269 0.42763 0.0
H214 H 0.29595 0.39881 0.37903 0.0
H215 H 0.25981 0.27594 0.4029 0.0
C216 C 0.12796 0.16418 0.44989 0.0
C217 C 0.05641 0.11122 0.47343 0.0
C218 C 0.14688 0.23312 0.42995 0.0
C219 C 0.0026 0.12643 0.47329 0.0
C220 C 0.02134 0.19495 0.45487 0.0
C221 C 0.1152 0.31956 0.42105 0.0
C222 C 0.18832 0.37393 0.40193 0.0
C223 C 0.09389 0.24914 0.4346 0.0
C224 C 0.23912 0.35714 0.39346 0.0
C225 C 0.21865 0.28717 0.40754 0.0
H226 H 0.81383 0.00449 0.94937 0.0
H227 H -0.01279 0.17735 1.02731 0.0
H228 H 0.94038 0.24859 0.99263 0.0
H229 H 0.8437 0.25877 0.9481 0.0
H230 H 0.67091 0.09041 0.86772 0.0
H231 H 0.72426 0.02109 0.89455 0.0
C232 C 0.84194 0.05807 0.9581 0.0
C233 C 0.90337 0.08464 0.99184 0.0
C234 C 0.81464 0.09967 0.93774 0.0
C235 C 0.93932 0.15461 1.00222 0.0
C236 C 0.91261 0.19578 0.98236 0.0
C237 C 0.81863 0.20739 0.93568 0.0
C238 C 0.75374 0.17946 0.90618 0.0
C239 C 0.84936 0.16829 0.95133 0.0
C240 C 0.72132 0.11292 0.89024 0.0
C241 C 0.75158 0.07326 0.90588 0.0
H242 H 0.75271 0.90961 0.4654 0.0
H243 H 0.75205 0.72575 0.53359 0.0
H244 H 0.62561 0.64754 0.5039 0.0
H245 H 0.51203 0.63142 0.46408 0.0
H246 H 0.51584 0.81428 0.38819 0.0
H247 H 0.64474 0.89341 0.41476 0.0
C248 C 0.72493 0.85243 0.47329 0.0
C249 C 0.76075 0.82325 0.50252 0.0
C250 C 0.653 0.80788 0.45485 0.0
C251 C 0.72518 0.74929 0.51153 0.0
C252 C 0.65289 0.70457 0.4947 0.0
C253 C 0.54163 0.68865 0.45311 0.0
C254 C 0.50506 0.71758 0.42514 0.0
C255 C 0.6158 0.73326 0.46729 0.0
C256 C 0.54349 0.79141 0.41005 0.0
C257 C 0.61682 0.83641 0.42531 0.0
H258 H 0.81336 0.73482 0.90933 0.0
H259 H 0.84164 0.66896 1.0746 0.0
H260 H 0.80795 0.55611 1.05316 0.0
H261 H 0.77076 0.47615 0.9887 0.0
H262 H 0.71799 0.52845 0.82796 0.0
H263 H 0.76357 0.6473 0.84521 0.0
C264 C 0.81157 0.69535 0.94047 0.0
C265 C 0.82991 0.71004 0.99345 0.0
C266 C 0.78956 0.62893 0.92825 0.0
C267 C 0.82706 0.65858 1.03366 0.0
C268 C 0.80832 0.59419 1.02139 0.0
C269 C 0.76942 0.51343 0.95708 0.0
C270 C 0.74486 0.49455 0.9058 0.0
C271 C 0.78962 0.57888 0.96893 0.0
C272 C 0.74175 0.54326 0.86624 0.0
C273 C 0.7659 0.61062 0.87676 0.0
loop_
_geom_bond_atom_site_label_1
_geom_bond_atom_site_label_2
_geom_bond_distance
_geom_bond_site_symmetry_2
_ccdc_geom_bond_type
Dy0 O4 2.398 . S
Dy0 O5 2.491 . S
Dy0 O6 2.403 1_455 S
Dy0 O7 2.664 1_445 S
Dy0 O11 2.326 1_455 S
Dy0 O15 2.310 1_554 S
Dy0 O16 2.351 1_545 S
C1 O12 1.185 . S
C1 O13 1.355 . S
C2 O4 1.185 . S
C2 O5 1.355 . S
Dy3 O7 2.310 1_556 S
Dy3 O10 2.351 1_565 S
Dy3 O12 2.398 . S
Dy3 O13 2.491 . S
Dy3 O14 2.403 1_665 S
Dy3 O15 2.664 1_665 S
Dy3 O17 2.326 1_656 S
O4 Dy0 2.398 . S
O4 C2 1.185 . S
O5 Dy0 2.491 . S
O5 C2 1.355 . S
O6 Dy0 2.403 1_655 S
O6 C8 1.254 1_545 S
O7 Dy0 2.664 1_665 S
O7 Dy3 2.310 1_554 S
O7 C8 1.268 . S
C8 O6 1.254 1_565 S
C8 O7 1.268 . S
C9 O14 1.254 . S
C9 O15 1.268 . S
O10 Dy3 2.351 1_545 S
O10 C18 1.249 . S
O11 Dy0 2.326 1_655 S
O11 C18 1.267 1_554 S
O12 C1 1.185 . S
O12 Dy3 2.398 . S
O13 C1 1.355 . S
O13 Dy3 2.491 . S
O14 Dy3 2.403 1_445 S
O14 C9 1.254 . S
O15 Dy0 2.310 1_556 S
O15 Dy3 2.664 1_445 S
O15 C9 1.268 . S
O16 Dy0 2.351 1_565 S
O16 C19 1.249 . S
O17 Dy3 2.326 1_454 S
O17 C19 1.267 . S
C18 O10 1.249 . S
C18 O11 1.267 1_556 S
C19 O16 1.249 . S
C19 O17 1.267 . S
Dy20 O24 2.398 . S
Dy20 O25 2.491 . S
Dy20 O26 2.403 1_545 S
Dy20 O27 2.664 1_545 S
Dy20 O31 2.326 1_545 S
Dy20 O35 2.310 1_655 S
Dy20 O36 2.351 1_655 S
C21 O32 1.185 . S
C21 O33 1.355 . S
C22 O24 1.185 . S
C22 O25 1.355 . S
Dy23 O27 2.310 1_455 S
Dy23 O30 2.351 1_455 S
Dy23 O32 2.398 . S
Dy23 O33 2.491 . S
Dy23 O34 2.403 1_565 S
Dy23 O35 2.664 1_565 S
Dy23 O37 2.326 1_565 S
O24 Dy20 2.398 . S
O24 C22 1.185 . S
O25 Dy20 2.491 . S
O25 C22 1.355 . S
O26 Dy20 2.403 1_565 S
O26 C28 1.254 . S
O27 Dy20 2.664 1_565 S
O27 Dy23 2.310 1_655 S
O27 C28 1.268 . S
C28 O26 1.254 . S
C28 O27 1.268 . S
C29 O34 1.254 . S
C29 O35 1.268 . S
O30 Dy23 2.351 1_655 S
O30 C38 1.249 . S
O31 Dy20 2.326 1_565 S
O31 C38 1.267 . S
O32 C21 1.185 . S
O32 Dy23 2.398 . S
O33 C21 1.355 . S
O33 Dy23 2.491 . S
O34 Dy23 2.403 1_545 S
O34 C29 1.254 . S
O35 Dy20 2.310 1_455 S
O35 Dy23 2.664 1_545 S
O35 C29 1.268 . S
O36 Dy20 2.351 1_455 S
O36 C39 1.249 . S
O37 Dy23 2.326 1_545 S
O37 C39 1.267 . S
C38 O30 1.249 . S
C38 O31 1.267 . S
C39 O36 1.249 . S
C39 O37 1.267 . S
Zn40 O46 1.920 . S
Zn40 O52 1.898 . S
Zn40 O55 1.905 . S
Zn41 O49 1.905 . S
Zn41 O50 1.898 . S
Zn41 O58 1.920 . S
Zn42 O45 2.080 . S
Zn42 O48 2.114 . S
Zn42 O51 2.120 . S
Zn42 O53 2.120 . S
Zn42 O54 2.114 . S
Zn42 O57 2.080 . S
C43 O48 1.166 . S
C43 O49 1.182 . S
C44 O50 1.167 . S
C44 O51 1.299 . S
O45 Zn42 2.080 . S
O45 C59 1.305 . S
O46 Zn40 1.920 . S
O46 C59 1.234 . S
C47 O52 1.167 . S
C47 O53 1.299 . S
O48 Zn42 2.114 . S
O48 C43 1.166 . S
O49 Zn41 1.905 . S
O49 C43 1.182 . S
O50 Zn41 1.898 . S
O50 C44 1.167 . S
O51 Zn42 2.120 . S
O51 C44 1.299 . S
O52 Zn40 1.898 . S
O52 C47 1.167 . S
O53 Zn42 2.120 . S
O53 C47 1.299 . S
O54 Zn42 2.114 . S
O54 C56 1.166 . S
O55 Zn40 1.905 . S
O55 C56 1.182 . S
C56 O54 1.166 . S
C56 O55 1.182 . S
O57 Zn42 2.080 . S
O57 C60 1.305 . S
O58 Zn41 1.920 . S
O58 C60 1.234 . S
C59 O45 1.305 . S
C59 O46 1.234 . S
C60 O57 1.305 . S
C60 O58 1.234 . S
Zn61 O67 1.920 . S
Zn61 O73 1.898 . S
Zn61 O76 1.905 . S
Zn62 O70 1.905 . S
Zn62 O71 1.898 . S
Zn62 O79 1.920 . S
Zn63 O66 2.080 . S
Zn63 O69 2.114 . S
Zn63 O72 2.120 . S
Zn63 O74 2.120 . S
Zn63 O75 2.114 . S
Zn63 O78 2.080 . S
C64 O69 1.166 . S
C64 O70 1.182 . S
C65 O71 1.167 . S
C65 O72 1.299 . S
O66 Zn63 2.080 . S
O66 C80 1.305 . S
O67 Zn61 1.920 . S
O67 C80 1.234 . S
C68 O73 1.167 . S
C68 O74 1.299 . S
O69 Zn63 2.114 . S
O69 C64 1.166 . S
O70 Zn62 1.905 . S
O70 C64 1.182 . S
O71 Zn62 1.898 . S
O71 C65 1.167 . S
O72 Zn63 2.120 . S
O72 C65 1.299 . S
O73 Zn61 1.898 . S
O73 C68 1.167 . S
O74 Zn63 2.120 . S
O74 C68 1.299 . S
O75 Zn63 2.114 . S
O75 C77 1.166 . S
O76 Zn61 1.905 . S
O76 C77 1.182 . S
C77 O75 1.166 . S
C77 O76 1.182 . S
O78 Zn63 2.080 . S
O78 C81 1.305 . S
O79 Zn62 1.920 . S
O79 C81 1.234 . S
C80 O66 1.305 . S
C80 O67 1.234 . S
C81 O78 1.305 . S
C81 O79 1.234 . S
H82 C88 0.930 . S
H83 C91 0.930 . S
H84 C92 0.930 . S
H85 C93 0.930 . S
H86 C96 0.930 . S
H87 C97 0.930 . S
C88 H82 0.930 . S
C88 C89 1.355 . S
C88 C90 1.415 . S
C89 C88 1.355 . S
C89 C91 1.419 . S
C90 C88 1.415 . S
C90 C95 1.425 . S
C90 C97 1.409 . S
C91 H83 0.930 . S
C91 C89 1.419 . S
C91 C92 1.362 . S
C92 H84 0.930 . S
C92 C91 1.362 . S
C92 C95 1.409 . S
C93 H85 0.930 . S
C93 C94 1.355 . S
C93 C95 1.415 . S
C94 C93 1.355 . S
C94 C96 1.419 . S
C95 C90 1.425 . S
C95 C92 1.409 . S
C95 C93 1.415 . S
C96 H86 0.930 . S
C96 C94 1.419 . S
C96 C97 1.362 . S
C97 H87 0.930 . S
C97 C90 1.409 . S
C97 C96 1.362 . S
H98 C104 0.930 . S
H99 C107 0.930 . S
H100 C108 0.930 . S
H101 C109 0.930 . S
H102 C112 0.930 . S
H103 C113 0.930 . S
C104 H98 0.930 . S
C104 C105 1.355 . S
C104 C106 1.415 . S
C105 C104 1.355 . S
C105 C107 1.419 . S
C106 C104 1.415 . S
C106 C111 1.425 . S
C106 C113 1.409 . S
C107 H99 0.930 . S
C107 C105 1.419 . S
C107 C108 1.362 . S
C108 H100 0.930 . S
C108 C107 1.362 . S
C108 C111 1.409 . S
C109 H101 0.930 . S
C109 C110 1.355 . S
C109 C111 1.415 . S
C110 C109 1.355 . S
C110 C112 1.419 . S
C111 C106 1.425 . S
C111 C108 1.409 . S
C111 C109 1.415 . S
C112 H102 0.930 . S
C112 C110 1.419 . S
C112 C113 1.362 . S
C113 H103 0.930 . S
C113 C106 1.409 . S
C113 C112 1.362 . S
H114 C120 0.930 . S
H115 C123 0.930 . S
H116 C124 0.930 . S
H117 C125 0.930 . S
H118 C128 0.930 . S
H119 C129 0.930 . S
C120 H114 0.930 . S
C120 C121 1.355 . S
C120 C122 1.415 . S
C121 C120 1.355 . S
C121 C123 1.419 . S
C122 C120 1.415 . S
C122 C127 1.425 . S
C122 C129 1.409 . S
C123 H115 0.930 . S
C123 C121 1.419 . S
C123 C124 1.362 . S
C124 H116 0.930 . S
C124 C123 1.362 . S
C124 C127 1.409 . S
C125 H117 0.930 . S
C125 C126 1.355 . S
C125 C127 1.415 . S
C126 C125 1.355 . S
C126 C128 1.419 . S
C127 C122 1.425 . S
C127 C124 1.409 . S
C127 C125 1.415 . S
C128 H118 0.930 . S
C128 C126 1.419 . S
C128 C129 1.362 . S
C129 H119 0.930 . S
C129 C122 1.409 . S
C129 C128 1.362 . S
H130 C136 0.930 . S
H131 C139 0.930 . S
H132 C140 0.930 . S
H133 C141 0.930 . S
H134 C144 0.930 . S
H135 C145 0.930 . S
C136 H130 0.930 . S
C136 C137 1.355 . S
C136 C138 1.415 . S
C137 C136 1.355 . S
C137 C139 1.419 . S
C138 C136 1.415 . S
C138 C143 1.425 . S
C138 C145 1.409 . S
C139 H131 0.930 . S
C139 C137 1.419 . S
C139 C140 1.362 . S
C140 H132 0.930 . S
C140 C139 1.362 . S
C140 C143 1.409 . S
C141 H133 0.930 . S
C141 C142 1.355 . S
C141 C143 1.415 . S
C142 C141 1.355 . S
C142 C144 1.419 . S
C143 C138 1.425 . S
C143 C140 1.409 . S
C143 C141 1.415 . S
C144 H134 0.930 . S
C144 C142 1.419 . S
C144 C145 1.362 . S
C145 H135 0.930 . S
C145 C138 1.409 . S
C145 C144 1.362 . S
H146 C152 0.930 . S
H147 C155 0.930 . S
H148 C156 0.930 . S
H149 C157 0.930 . S
H150 C160 0.930 . S
H151 C161 0.930 . S
C152 H146 0.930 . S
C152 C153 1.355 . S
C152 C154 1.415 . S
C153 C152 1.355 . S
C153 C155 1.419 . S
C154 C152 1.415 . S
C154 C159 1.425 . S
C154 C161 1.409 . S
C155 H147 0.930 . S
C155 C153 1.419 . S
C155 C156 1.362 . S
C156 H148 0.930 . S
C156 C155 1.362 . S
C156 C159 1.409 . S
C157 H149 0.930 . S
C157 C158 1.355 . S
C157 C159 1.415 . S
C158 C157 1.355 . S
C158 C160 1.419 . S
C159 C154 1.425 . S
C159 C156 1.409 . S
C159 C157 1.415 . S
C160 H150 0.930 . S
C160 C158 1.419 . S
C160 C161 1.362 . S
C161 H151 0.930 . S
C161 C154 1.409 . S
C161 C160 1.362 . S
H162 C168 0.930 . S
H163 C171 0.930 . S
H164 C172 0.930 . S
H165 C173 0.930 . S
H166 C176 0.930 . S
H167 C177 0.930 . S
C168 H162 0.930 . S
C168 C169 1.355 . S
C168 C170 1.415 . S
C169 C168 1.355 . S
C169 C171 1.419 . S
C170 C168 1.415 . S
C170 C175 1.425 . S
C170 C177 1.409 . S
C171 H163 0.930 . S
C171 C169 1.419 . S
C171 C172 1.362 . S
C172 H164 0.930 . S
C172 C171 1.362 . S
C172 C175 1.409 . S
C173 H165 0.930 . S
C173 C174 1.355 . S
C173 C175 1.415 . S
C174 C173 1.355 . S
C174 C176 1.419 . S
C175 C170 1.425 . S
C175 C172 1.409 . S
C175 C173 1.415 . S
C176 H166 0.930 . S
C176 C174 1.419 . S
C176 C177 1.362 . S
C177 H167 0.930 . S
C177 C170 1.409 . S
C177 C176 1.362 . S
H178 C184 0.930 . S
H179 C187 0.930 . S
H180 C188 0.930 . S
H181 C189 0.930 . S
H182 C192 0.930 . S
H183 C193 0.930 . S
C184 H178 0.930 . S
C184 C185 1.355 . S
C184 C186 1.415 . S
C185 C184 1.355 . S
C185 C187 1.419 . S
C186 C184 1.415 . S
C186 C191 1.425 . S
C186 C193 1.409 . S
C187 H179 0.930 . S
C187 C185 1.419 . S
C187 C188 1.362 . S
C188 H180 0.930 . S
C188 C187 1.362 . S
C188 C191 1.409 . S
C189 H181 0.930 . S
C189 C190 1.355 . S
C189 C191 1.415 . S
C190 C189 1.355 . S
C190 C192 1.419 . S
C191 C186 1.425 . S
C191 C188 1.409 . S
C191 C189 1.415 . S
C192 H182 0.930 . S
C192 C190 1.419 . S
C192 C193 1.362 . S
C193 H183 0.930 . S
C193 C186 1.409 . S
C193 C192 1.362 . S
H194 C200 0.930 . S
H195 C203 0.930 . S
H196 C204 0.930 . S
H197 C205 0.930 . S
H198 C208 0.930 . S
H199 C209 0.930 . S
C200 H194 0.930 . S
C200 C201 1.355 . S
C200 C202 1.415 . S
C201 C200 1.355 . S
C201 C203 1.419 . S
C202 C200 1.415 . S
C202 C207 1.425 . S
C202 C209 1.409 . S
C203 H195 0.930 . S
C203 C201 1.419 . S
C203 C204 1.362 . S
C204 H196 0.930 . S
C204 C203 1.362 . S
C204 C207 1.409 . S
C205 H197 0.930 . S
C205 C206 1.355 . S
C205 C207 1.415 . S
C206 C205 1.355 . S
C206 C208 1.419 . S
C207 C202 1.425 . S
C207 C204 1.409 . S
C207 C205 1.415 . S
C208 H198 0.930 . S
C208 C206 1.419 . S
C208 C209 1.362 . S
C209 H199 0.930 . S
C209 C202 1.409 . S
C209 C208 1.362 . S
H210 C216 0.930 . S
H211 C219 0.930 1_655 S
H212 C220 0.930 . S
H213 C221 0.930 . S
H214 C224 0.930 . S
H215 C225 0.930 . S
C216 H210 0.930 . S
C216 C217 1.355 . S
C216 C218 1.415 . S
C217 C216 1.355 . S
C217 C219 1.419 . S
C218 C216 1.415 . S
C218 C223 1.425 . S
C218 C225 1.409 . S
C219 H211 0.930 1_455 S
C219 C217 1.419 . S
C219 C220 1.362 . S
C220 H212 0.930 . S
C220 C219 1.362 . S
C220 C223 1.409 . S
C221 H213 0.930 . S
C221 C222 1.355 . S
C221 C223 1.415 . S
C222 C221 1.355 . S
C222 C224 1.419 . S
C223 C218 1.425 . S
C223 C220 1.409 . S
C223 C221 1.415 . S
C224 H214 0.930 . S
C224 C222 1.419 . S
C224 C225 1.362 . S
C225 H215 0.930 . S
C225 C218 1.409 . S
C225 C224 1.362 . S
H226 C232 0.930 . S
H227 C235 0.930 1_455 S
H228 C236 0.930 . S
H229 C237 0.930 . S
H230 C240 0.930 . S
H231 C241 0.930 . S
C232 H226 0.930 . S
C232 C233 1.355 . S
C232 C234 1.415 . S
C233 C232 1.355 . S
C233 C235 1.419 . S
C234 C232 1.415 . S
C234 C239 1.425 . S
C234 C241 1.409 . S
C235 H227 0.930 1_655 S
C235 C233 1.419 . S
C235 C236 1.362 . S
C236 H228 0.930 . S
C236 C235 1.362 . S
C236 C239 1.409 . S
C237 H229 0.930 . S
C237 C238 1.355 . S
C237 C239 1.415 . S
C238 C237 1.355 . S
C238 C240 1.419 . S
C239 C234 1.425 . S
C239 C236 1.409 . S
C239 C237 1.415 . S
C240 H230 0.930 . S
C240 C238 1.419 . S
C240 C241 1.362 . S
C241 H231 0.930 . S
C241 C234 1.409 . S
C241 C240 1.362 . S
H242 C248 0.930 . S
H243 C251 0.930 . S
H244 C252 0.930 . S
H245 C253 0.930 . S
H246 C256 0.930 . S
H247 C257 0.930 . S
C248 H242 0.930 . S
C248 C249 1.355 . S
C248 C250 1.415 . S
C249 C248 1.355 . S
C249 C251 1.419 . S
C250 C248 1.415 . S
C250 C255 1.425 . S
C250 C257 1.409 . S
C251 H243 0.930 . S
C251 C249 1.419 . S
C251 C252 1.362 . S
C252 H244 0.930 . S
C252 C251 1.362 . S
C252 C255 1.409 . S
C253 H245 0.930 . S
C253 C254 1.355 . S
C253 C255 1.415 . S
C254 C253 1.355 . S
C254 C256 1.419 . S
C255 C250 1.425 . S
C255 C252 1.409 . S
C255 C253 1.415 . S
C256 H246 0.930 . S
C256 C254 1.419 . S
C256 C257 1.362 . S
C257 H247 0.930 . S
C257 C250 1.409 . S
C257 C256 1.362 . S
H258 C264 0.930 . S
H259 C267 0.930 1_455 S
H260 C268 0.930 1_455 S
H261 C269 0.930 . S
H262 C272 0.930 . S
H263 C273 0.930 . S
C264 H258 0.930 . S
C264 C265 1.355 . S
C264 C266 1.415 . S
C265 C264 1.355 . S
C265 C267 1.419 . S
C266 C264 1.415 . S
C266 C271 1.425 . S
C266 C273 1.409 . S
C267 H259 0.930 1_655 S
C267 C265 1.419 . S
C267 C268 1.362 . S
C268 H260 0.930 1_655 S
C268 C267 1.362 . S
C268 C271 1.409 . S
C269 H261 0.930 . S
C269 C270 1.355 . S
C269 C271 1.415 . S
C270 C269 1.355 . S
C270 C272 1.419 . S
C271 C266 1.425 . S
C271 C268 1.409 . S
C271 C269 1.415 . S
C272 H262 0.930 . S
C272 C270 1.419 . S
C272 C273 1.362 . S
C273 H263 0.930 . S
C273 C266 1.409 . S
C273 C272 1.362 . S
C89 C19 1.639 . S
C94 C59 1.589 . S
C105 C39 1.276 . S
C110 C65 1.231 . S
C121 C2 1.075 . S
C126 C56 0.990 . S
C137 C22 1.434 . S
C142 C81 1.360 . S
C153 C8 1.765 . S
C158 C47 1.681 . S
C174 C64 1.796 . S
C169 C28 1.864 . S
C185 C21 1.335 . S
C190 C60 1.299 . S
C206 C77 1.627 . S
C201 C9 1.683 . S
C222 C44 1.718 . S
C217 C29 1.859 . S
C238 C80 1.583 . S
C233 C18 1.709 . S
C254 C43 1.285 . S
C249 C38 1.331 . S
C270 C68 1.056 . S
C265 C1 1.172 . S
