# Generated by pormake.
# Topology pyr, (3,6)-cn, num edge types: 1
# Building blocks:
#     Node 0, Type 0, BuildingBlock: OLANEW_clean_sbu_2, # of connection points: 3
#     Node 1, Type 0, BuildingBlock: OLANEW_clean_sbu_2, # of connection points: 3
#     Node 2, Type 0, BuildingBlock: OLANEW_clean_sbu_2, # of connection points: 3
#     Node 3, Type 0, BuildingBlock: OLANEW_clean_sbu_2, # of connection points: 3
#     Node 4, Type 0, BuildingBlock: OLANEW_clean_sbu_2, # of connection points: 3
#     Node 5, Type 0, BuildingBlock: OLANEW_clean_sbu_2, # of connection points: 3
#     Node 6, Type 0, BuildingBlock: OLANEW_clean_sbu_2, # of connection points: 3
#     Node 7, Type 0, BuildingBlock: OLANEW_clean_sbu_2, # of connection points: 3
#     Node 8, Type 1, BuildingBlock: JUFBIX_clean_sbu_0, # of connection points: 6
#     Node 9, Type 1, BuildingBlock: JUFBIX_clean_sbu_0, # of connection points: 6
#     Node 10, Type 1, BuildingBlock: JUFBIX_clean_sbu_0, # of connection points: 6
#     Node 11, Type 1, BuildingBlock: JUFBIX_clean_sbu_0, # of connection points: 6
#     Edge 12, Type (0, 1), BuildingBlock: ZUJKAS_clean_linker_0, # of connection points: 2
#     Edge 13, Type (0, 1), BuildingBlock: ZUJKAS_clean_linker_0, # of connection points: 2
#     Edge 14, Type (0, 1), BuildingBlock: ZUJKAS_clean_linker_0, # of connection points: 2
#     Edge 15, Type (0, 1), BuildingBlock: ZUJKAS_clean_linker_0, # of connection points: 2
#     Edge 16, Type (0, 1), BuildingBlock: ZUJKAS_clean_linker_0, # of connection points: 2
#     Edge 17, Type (0, 1), BuildingBlock: ZUJKAS_clean_linker_0, # of connection points: 2
#     Edge 18, Type (0, 1), BuildingBlock: ZUJKAS_clean_linker_0, # of connection points: 2
#     Edge 19, Type (0, 1), BuildingBlock: ZUJKAS_clean_linker_0, # of connection points: 2
#     Edge 20, Type (0, 1), BuildingBlock: ZUJKAS_clean_linker_0, # of connection points: 2
#     Edge 21, Type (0, 1), BuildingBlock: ZUJKAS_clean_linker_0, # of connection points: 2
#     Edge 22, Type (0, 1), BuildingBlock: ZUJKAS_clean_linker_0, # of connection points: 2
#     Edge 23, Type (0, 1), BuildingBlock: ZUJKAS_clean_linker_0, # of connection points: 2
#     Edge 24, Type (0, 1), BuildingBlock: ZUJKAS_clean_linker_0, # of connection points: 2
#     Edge 25, Type (0, 1), BuildingBlock: ZUJKAS_clean_linker_0, # of connection points: 2
#     Edge 26, Type (0, 1), BuildingBlock: ZUJKAS_clean_linker_0, # of connection points: 2
#     Edge 27, Type (0, 1), BuildingBlock: ZUJKAS_clean_linker_0, # of connection points: 2
#     Edge 28, Type (0, 1), BuildingBlock: ZUJKAS_clean_linker_0, # of connection points: 2
#     Edge 29, Type (0, 1), BuildingBlock: ZUJKAS_clean_linker_0, # of connection points: 2
#     Edge 30, Type (0, 1), BuildingBlock: ZUJKAS_clean_linker_0, # of connection points: 2
#     Edge 31, Type (0, 1), BuildingBlock: ZUJKAS_clean_linker_0, # of connection points: 2
#     Edge 32, Type (0, 1), BuildingBlock: ZUJKAS_clean_linker_0, # of connection points: 2
#     Edge 33, Type (0, 1), BuildingBlock: ZUJKAS_clean_linker_0, # of connection points: 2
#     Edge 34, Type (0, 1), BuildingBlock: ZUJKAS_clean_linker_0, # of connection points: 2
#     Edge 35, Type (0, 1), BuildingBlock: ZUJKAS_clean_linker_0, # of connection points: 2
# Relax obj value: 0.099
# Max RMSD: 0.169
# Mean RMSD: 0.118
data_MOF--net-pry--node1-OLANEW_clean_sbu_2--node2-JUFBIX_clean_sbu_0--edge1-ZUJKAS_clean_linker_0
_symmetry_space_group_name_H-M    P1
_symmetry_Int_Tables_number       1
_symmetry_cell_setting            triclinic
loop_
_symmetry_equiv_pos_as_xyz
'x, y, z'
_cell_length_a     51.077218
_cell_length_b     48.876011
_cell_length_c     50.115809
_cell_angle_alpha  90.365005
_cell_angle_beta   89.595625
_cell_angle_gamma 96.153974
loop_
_atom_site_label
_atom_site_type_symbol
_atom_site_fract_x
_atom_site_fract_y
_atom_site_fract_z
_atom_type_partial_charge
O0 O 0.21963 0.17637 0.17706 0.0
Cd1 Cd 0.17809 0.19465 0.19092 0.0
O2 O 0.21908 0.14223 0.20614 0.0
Cd3 Cd 0.1842 0.14594 0.23193 0.0
O4 O 0.15774 0.13564 0.26671 0.0
C5 C 0.168 0.12805 0.28818 0.0
O6 O 0.19363 0.12734 0.28881 0.0
C7 C 0.22986 0.15578 0.18651 0.0
C8 C 0.15845 0.2349 0.15829 0.0
O9 O 0.17449 0.24173 0.17736 0.0
O10 O 0.15228 0.20913 0.15403 0.0
O11 O 0.49317 0.92718 0.68405 0.0
Cd12 Cd 0.49447 0.91543 0.63668 0.0
O13 O 0.45067 0.91549 0.68271 0.0
Cd14 Cd 0.40948 0.91239 0.69578 0.0
O15 O 0.36684 0.9134 0.69442 0.0
C16 C 0.35835 0.92322 0.67314 0.0
O17 O 0.3754 0.93171 0.65441 0.0
C18 C 0.47099 0.92458 0.69591 0.0
C19 C 0.49713 0.85948 0.62777 0.0
O20 O 0.51809 0.87632 0.62954 0.0
O21 O 0.47487 0.8691 0.63039 0.0
O22 O 0.69916 0.46805 0.90486 0.0
Cd23 Cd 0.65451 0.46413 0.88687 0.0
O24 O 0.69024 0.42408 0.91187 0.0
Cd25 Cd 0.69228 0.38234 0.92652 0.0
O26 O 0.67601 0.34034 0.93599 0.0
C27 C 0.65481 0.3376 0.94961 0.0
O28 O 0.64475 0.3598 0.95795 0.0
C29 C 0.70623 0.44579 0.91396 0.0
C30 C 0.65002 0.47689 0.83305 0.0
O31 O 0.64806 0.49512 0.85125 0.0
O32 O 0.65483 0.45282 0.84026 0.0
O33 O 0.95778 0.68564 0.44236 0.0
Cd34 Cd 0.9305 0.64362 0.42919 0.0
O35 O 0.98282 0.66535 0.46996 0.0
Cd36 Cd 0.95911 0.62593 0.46425 0.0
O37 O 0.92126 0.60067 0.46617 0.0
C38 C 0.90968 0.59886 0.48871 0.0
O39 O 0.92195 0.6102 0.50963 0.0
C40 C 0.9769 0.68708 0.45865 0.0
C41 C 0.93369 0.63205 0.37482 0.0
O42 O 0.91572 0.646 0.38399 0.0
O43 O 0.95015 0.62379 0.39135 0.0
O44 O 0.87658 0.85684 0.87023 0.0
Cd45 Cd 0.85839 0.83245 0.91054 0.0
O46 O 0.85053 0.89022 0.86633 0.0
Cd47 Cd 0.82141 0.88539 0.89949 0.0
O48 O 0.78781 0.89722 0.92402 0.0
C49 C 0.76631 0.90115 0.9126 0.0
O50 O 0.76443 0.8971 0.88671 0.0
C51 C 0.86991 0.87789 0.85807 0.0
C52 C 0.88425 0.78701 0.92708 0.0
O53 O 0.86519 0.78403 0.91044 0.0
O54 O 0.89153 0.81145 0.93551 0.0
O55 O 0.59679 0.07536 0.44126 0.0
Cd56 Cd 0.61258 0.07826 0.48713 0.0
O57 O 0.60411 0.12018 0.439 0.0
Cd58 Cd 0.60316 0.16141 0.42261 0.0
O59 O 0.59992 0.20557 0.42201 0.0
C60 C 0.57829 0.21352 0.42997 0.0
O61 O 0.55893 0.19491 0.43672 0.0
C62 C 0.59648 0.09728 0.42785 0.0
C63 C 0.66706 0.07766 0.48883 0.0
O64 O 0.6515 0.05528 0.48835 0.0
O65 O 0.65685 0.1005 0.48862 0.0
O66 O 0.39644 0.70821 0.18776 0.0
Cd67 Cd 0.37507 0.66244 0.19883 0.0
O68 O 0.38305 0.7053 0.14609 0.0
Cd69 Cd 0.35881 0.66594 0.14952 0.0
O70 O 0.32352 0.63868 0.13956 0.0
C71 C 0.31932 0.63297 0.11507 0.0
O72 O 0.33706 0.64225 0.09728 0.0
C73 C 0.39583 0.71858 0.16459 0.0
C74 C 0.39636 0.64175 0.24473 0.0
O75 O 0.40571 0.637 0.22156 0.0
O76 O 0.37689 0.65623 0.24618 0.0
O77 O 0.1084 0.48225 0.65547 0.0
Cd78 Cd 0.111 0.48761 0.6071 0.0
O79 O 0.09842 0.43787 0.65044 0.0
Cd80 Cd 0.0858 0.39526 0.66171 0.0
O81 O 0.07245 0.35128 0.66227 0.0
C82 C 0.05009 0.34284 0.65254 0.0
O83 O 0.03529 0.36096 0.64325 0.0
C84 C 0.10311 0.45861 0.6658 0.0
C85 C 0.16364 0.49266 0.59127 0.0
O86 O 0.15013 0.46904 0.59256 0.0
O87 O 0.15207 0.51399 0.59697 0.0
Co88 Co 0.9965 0.00756 0.56518 0.0
C89 C 0.02143 0.95989 0.55588 0.0
Co90 Co 0.03659 0.00854 0.58153 0.0
C91 C 0.94792 0.02245 0.54176 0.0
C92 C 0.94569 0.9804 0.55409 0.0
N93 N 0.96225 0.00377 0.55272 0.0
N94 N 0.92309 0.01152 0.53616 0.0
C95 C 0.92173 0.98506 0.54393 0.0
H96 H 0.95552 0.04364 0.53815 0.0
H97 H 0.95054 0.96128 0.56254 0.0
C98 C 0.01174 0.05629 0.5907 0.0
N99 N 0.07085 0.01222 0.59393 0.0
C100 C 0.08518 0.99317 0.60423 0.0
C101 C 0.08776 0.0353 0.59204 0.0
N102 N 0.11043 1.00347 0.60847 0.0
C103 C 0.11205 0.02999 0.60091 0.0
C104 C 0.03405 0.02818 0.52877 0.0
O105 O 0.99263 0.04359 0.57805 0.0
O106 O 0.03236 0.04446 0.59442 0.0
O107 O 0.04911 0.02359 0.54799 0.0
O108 O 0.00929 0.0226 0.53177 0.0
O109 O 0.04052 0.97258 0.56854 0.0
H110 H 0.08295 0.05457 0.5839 0.0
H111 H 0.07757 0.97189 0.60741 0.0
O112 O 1.00075 0.97165 0.55234 0.0
O113 O 0.98396 0.99252 0.59869 0.0
O114 O 0.02377 0.99341 0.61493 0.0
C115 C 0.999 0.98778 0.61787 0.0
H116 H 0.90436 0.9703 0.54325 0.0
H117 H 0.12967 0.04442 0.60136 0.0
Co118 Co 0.49506 0.02965 0.04139 0.0
C119 C 0.49076 0.99073 0.08249 0.0
Co120 Co 0.51796 0.04183 0.07752 0.0
C121 C 0.48153 0.01557 0.98658 0.0
C122 C 0.44855 0.00885 0.01319 0.0
N123 N 0.47436 0.01815 0.01239 0.0
N124 N 0.46123 0.00483 0.97128 0.0
C125 C 0.44043 1.00071 0.98802 0.0
H126 H 0.50148 0.02063 0.9794 0.0
H127 H 0.43649 0.00754 0.03106 0.0
C128 C 0.5227 0.08062 0.03644 0.0
N129 N 0.53878 0.05331 0.10639 0.0
C130 C 0.53301 0.05252 0.13273 0.0
C131 C 0.56388 0.06496 0.10484 0.0
N132 N 0.55362 0.06318 0.14768 0.0
C133 C 0.57303 0.07104 0.13009 0.0
C134 C 0.54542 0.0134 0.03923 0.0
O135 O 0.50702 0.06324 0.02381 0.0
O136 O 0.52944 0.0751 0.05997 0.0
O137 O 0.54695 0.02492 0.0621 0.0
O138 O 0.524 0.01295 0.02638 0.0
O139 O 0.50633 0.00835 0.09491 0.0
H140 H 0.57479 0.06896 0.08644 0.0
H141 H 0.51415 0.04404 0.14072 0.0
O142 O 0.48347 0.99617 0.05908 0.0
O143 O 0.46624 0.04642 0.05673 0.0
O144 O 0.48881 0.05862 0.09268 0.0
C145 C 0.46747 0.05793 0.07958 0.0
H146 H 0.42072 0.99229 0.98257 0.0
H147 H 0.59237 0.08095 0.13503 0.0
Co148 Co 0.55545 0.54599 0.51837 0.0
C149 C 0.51413 0.54802 0.48253 0.0
Co150 Co 0.51682 0.52815 0.53366 0.0
C151 C 0.61114 0.55344 0.50686 0.0
C152 C 0.59109 0.58644 0.49203 0.0
N153 N 0.58712 0.5624 0.50522 0.0
N154 N 0.63001 0.57095 0.49519 0.0
C155 C 0.61739 0.59175 0.48584 0.0
H156 H 0.61461 0.53433 0.51634 0.0
H157 H 0.57585 0.5994 0.48745 0.0
C158 C 0.55809 0.52653 0.56965 0.0
N159 N 0.48524 0.51145 0.54683 0.0
C160 C 0.46078 0.5192 0.54446 0.0
C161 C 0.48197 0.48756 0.56035 0.0
N162 N 0.44236 0.50092 0.55582 0.0
C163 C 0.45569 0.48104 0.56589 0.0
C164 C 0.54574 0.49082 0.507 0.0
O165 O 0.57201 0.53775 0.55078 0.0
O166 O 0.5335 0.5207 0.56624 0.0
O167 O 0.52451 0.49376 0.51951 0.0
O168 O 0.56268 0.51156 0.50385 0.0
O169 O 0.50038 0.53592 0.50107 0.0
H170 H 0.49772 0.47549 0.56561 0.0
H171 H 0.45654 0.53753 0.53404 0.0
O172 O 0.53867 0.55418 0.48606 0.0
O173 O 0.548 0.58032 0.53305 0.0
O174 O 0.5093 0.56262 0.54764 0.0
C175 C 0.52646 0.58328 0.54506 0.0
H176 H 0.62655 0.60988 0.47579 0.0
H177 H 0.44711 0.4631 0.57664 0.0
Co178 Co 0.01875 0.49533 0.00844 0.0
C179 C 0.96631 0.4763 0.02158 0.0
Co180 Co 0.00715 0.50206 0.05028 0.0
C181 C 0.04564 0.48353 0.95831 0.0
C182 C 0.00807 0.49857 0.95342 0.0
N183 N 0.02493 0.49154 0.97218 0.0
N184 N 0.04229 0.48585 0.93172 0.0
C185 C 0.01873 0.49526 0.92864 0.0
H186 H 0.06305 0.47697 0.96744 0.0
H187 H 0.98929 0.50611 0.95753 0.0
C188 C 0.05948 0.52122 0.03706 0.0
N189 N 1.00058 0.50604 0.08651 0.0
C190 C 0.98278 0.52004 0.09935 0.0
C191 C 0.01437 0.49551 0.10613 0.0
N192 N 0.98483 0.51829 0.12614 0.0
C193 C 1.00466 0.50284 0.13041 0.0
C194 C 0.02903 0.45196 0.0396 0.0
O195 O 0.05333 0.51275 0.01365 0.0
O196 O 0.0422 0.51849 0.05552 0.0
O197 O 0.01844 0.46654 0.05687 0.0
O198 O 0.03115 0.46044 0.01564 0.0
O199 O 0.97207 0.48574 0.04475 0.0
H200 H 0.03092 0.48377 0.10306 0.0
H201 H 0.96872 0.5314 0.08929 0.0
O202 O 0.98404 0.47787 1.00357 0.0
O203 O 0.00656 0.53046 1.00158 0.0
O204 O 0.99596 0.53746 0.04323 0.0
C205 C 0.99726 0.54565 0.01918 0.0
H206 H 0.0099 0.49948 0.90972 0.0
H207 H 0.01227 0.49806 0.14974 0.0
H208 H 0.18509 0.11335 0.33702 0.0
H209 H 0.15885 0.09819 0.37611 0.0
H210 H 0.08767 0.10817 0.33324 0.0
H211 H 0.11389 0.12325 0.2937 0.0
H212 H 0.12286 0.1264 0.40537 0.0
H213 H 0.0742 0.02906 0.36206 0.0
H214 H 0.10277 0.04786 0.34686 0.0
H215 H 0.07094 0.05982 0.34345 0.0
C216 C 0.16385 0.11233 0.33577 0.0
C217 C 0.15164 0.11946 0.31207 0.0
C218 C 0.14885 0.10365 0.35823 0.0
C219 C 0.12125 0.10167 0.3576 0.0
C220 C 0.10892 0.10905 0.3341 0.0
H221 H 0.00821 0.04133 0.4833 0.0
H222 H 0.02774 0.06057 0.44166 0.0
C223 C 0.12395 0.11785 0.31155 0.0
C224 C 0.10572 0.09221 0.38178 0.0
H225 H 0.0627 0.03971 0.40627 0.0
C226 C 0.10962 0.1075 0.40552 0.0
C227 C 0.08831 0.06762 0.382 0.0
C228 C 0.08385 0.04994 0.35733 0.0
C229 C 0.09683 0.09881 0.42943 0.0
C230 C 0.08007 0.07377 0.42989 0.0
C231 C 0.07559 0.05885 0.40599 0.0
C232 C 0.06802 0.06217 0.45518 0.0
C233 C 0.1013 0.1167 0.45398 0.0
C234 C 0.0841 0.05623 0.47654 0.0
C235 C 0.07302 0.04531 0.50032 0.0
C236 C 0.04554 0.0398 0.50331 0.0
C237 C 0.02943 0.0454 0.48176 0.0
C238 C 0.04057 0.05638 0.45791 0.0
H239 H 0.10759 0.13846 0.44865 0.0
H240 H 0.08323 0.116 0.4665 0.0
H241 H 0.11718 0.10921 0.46606 0.0
H242 H 0.10533 0.05984 0.47477 0.0
H243 H 0.0861 0.0411 0.51636 0.0
H244 H 0.50329 0.96354 0.72203 0.0
H245 H 0.50119 0.97734 0.76896 0.0
H246 H 0.43273 0.91881 0.78056 0.0
H247 H 0.43523 0.90427 0.73388 0.0
H248 H 0.45923 0.99876 0.79678 0.0
H249 H 0.48342 0.9 0.83958 0.0
H250 H 0.48891 0.90861 0.80487 0.0
H251 H 0.45635 0.89692 0.81668 0.0
C252 C 0.4878 0.95358 0.73459 0.0
C253 C 0.46914 0.93313 0.72415 0.0
C254 C 0.48659 0.96155 0.76135 0.0
C255 C 0.46692 0.94897 0.77823 0.0
C256 C 0.4482 0.9286 0.76789 0.0
H257 H 0.42883 0.96588 0.94545 0.0
H258 H 0.42995 0.95365 0.89825 0.0
C259 C 0.44938 0.92064 0.74109 0.0
C260 C 0.46601 0.95731 0.80665 0.0
H261 H 0.47098 0.93353 0.8701 0.0
C262 C 0.46187 0.98456 0.81285 0.0
C263 C 0.46949 0.9387 0.82749 0.0
C264 C 0.47502 0.90948 0.82193 0.0
C265 C 0.46065 0.9936 0.83943 0.0
C266 C 0.46414 0.97499 0.86028 0.0
C267 C 0.4683 0.94774 0.85405 0.0
C268 C 0.46325 0.98321 0.88874 0.0
C269 C 0.45504 0.0228 0.84498 0.0
C270 C 0.48173 0.0038 0.89911 0.0
C271 C 0.48102 0.01103 0.92613 0.0
C272 C 0.46188 0.9977 0.94331 0.0
C273 C 0.44353 0.97695 0.93279 0.0
C274 C 0.44425 0.96976 0.90582 0.0
H275 H 0.44636 0.03213 0.8274 0.0
H276 H 0.44136 0.02368 0.86221 0.0
H277 H 0.47373 0.03547 0.84993 0.0
H278 H 0.49686 0.0141 0.88635 0.0
H279 H 0.49534 0.02718 0.93349 0.0
H280 H 0.62902 0.52138 0.81282 0.0
H281 H 0.6171 0.52909 0.76655 0.0
H282 H 0.64917 0.45446 0.74272 0.0
H283 H 0.66029 0.44608 0.78917 0.0
H284 H 0.64412 0.53625 0.72075 0.0
H285 H 0.57556 0.44041 0.71435 0.0
H286 H 0.58988 0.45308 0.74541 0.0
H287 H 0.60867 0.43453 0.72232 0.0
C288 C 0.63367 0.50667 0.79772 0.0
C289 C 0.64532 0.48295 0.80469 0.0
C290 C 0.62686 0.51112 0.77126 0.0
C291 C 0.6317 0.49204 0.75124 0.0
C292 C 0.64454 0.46905 0.75794 0.0
H293 H 0.61054 0.52832 0.58157 0.0
H294 H 0.63002 0.51931 0.62474 0.0
C295 C 0.65105 0.46439 0.78447 0.0
C296 C 0.62261 0.496 0.72358 0.0
H297 H 0.58275 0.46611 0.67472 0.0
C298 C 0.63074 0.52091 0.71064 0.0
C299 C 0.60485 0.4761 0.71056 0.0
C300 C 0.594 0.44965 0.72393 0.0
C301 C 0.62144 0.52658 0.68516 0.0
C302 C 0.60411 0.50644 0.67194 0.0
C303 C 0.59621 0.48143 0.68477 0.0
C304 C 0.59265 0.5114 0.64547 0.0
C305 C 0.62952 0.55448 0.67315 0.0
C306 C 0.56519 0.50901 0.64251 0.0
C307 C 0.55404 0.51363 0.61781 0.0
C308 C 0.57012 0.5209 0.59554 0.0
C309 C 0.59763 0.52301 0.59842 0.0
C310 C 0.6088 0.51806 0.62312 0.0
H311 H 0.63686 0.56982 0.68855 0.0
H312 H 0.64565 0.55276 0.6585 0.0
H313 H 0.61281 0.56231 0.66262 0.0
H314 H 0.55233 0.50382 0.65943 0.0
H315 H 0.53277 0.51184 0.61629 0.0
H316 H 0.97224 0.6075 0.34902 0.0
H317 H 0.97412 0.59474 0.30192 0.0
H318 H 0.90054 0.62799 0.28834 0.0
H319 H 0.89843 0.6409 0.33563 0.0
H320 H 0.90319 0.57376 0.26763 0.0
H321 H 0.98928 0.64523 0.23642 0.0
H322 H 0.99515 0.62653 0.26614 0.0
H323 H 0.97064 0.65036 0.26649 0.0
C324 C 0.95653 0.61232 0.33602 0.0
C325 C 0.93521 0.62526 0.34606 0.0
C326 C 0.95773 0.60516 0.30907 0.0
C327 C 0.93767 0.6108 0.29161 0.0
C328 C 0.91632 0.62369 0.30149 0.0
H329 H 0.96824 0.56909 0.12397 0.0
H330 H 0.95058 0.59438 0.16141 0.0
C331 C 0.91518 0.63105 0.32848 0.0
C332 C 0.93855 0.60171 0.26342 0.0
H333 H 0.97861 0.60536 0.20854 0.0
C334 C 0.91937 0.58103 0.25448 0.0
C335 C 0.95939 0.61157 0.24614 0.0
C336 C 0.97965 0.63485 0.25415 0.0
C337 C 0.92161 0.56854 0.22938 0.0
C338 C 0.9437 0.57681 0.21304 0.0
C339 C 0.96178 0.59888 0.22118 0.0
C340 C 0.95032 0.56069 0.18927 0.0
C341 C 0.90076 0.54603 0.22093 0.0
C342 C 0.95568 0.53337 0.19247 0.0
C343 C 0.9658 0.51907 0.17129 0.0
C344 C 0.97081 0.53179 0.14647 0.0
C345 C 0.9643 0.55874 0.14284 0.0
C346 C 0.95435 0.5732 0.16419 0.0
H347 H 0.88154 0.5485 0.23068 0.0
H348 H 0.89812 0.54574 0.19894 0.0
H349 H 0.90676 0.52584 0.22704 0.0
H350 H 0.95322 0.52348 0.21175 0.0
H351 H 0.97049 0.49827 0.17454 0.0
H352 H 0.24974 0.10635 0.19185 0.0
H353 H 0.29075 0.09239 0.17376 0.0
H354 H 0.30822 0.17215 0.13758 0.0
H355 H 0.26645 0.18587 0.15474 0.0
H356 H 0.32063 0.13479 0.10421 0.0
H357 H 0.36307 0.11073 0.20116 0.0
H358 H 0.33199 0.09072 0.19622 0.0
H359 H 0.33352 0.12768 0.19878 0.0
C360 C 0.2623 0.12101 0.1801 0.0
C361 C 0.2548 0.14735 0.17495 0.0
C362 C 0.28597 0.11305 0.16993 0.0
C363 C 0.30317 0.13141 0.15489 0.0
C364 C 0.29551 0.1576 0.14931 0.0
H365 H 0.46517 0.09391 0.1218 0.0
H366 H 0.42637 0.11378 0.13929 0.0
C367 C 0.27157 0.16545 0.15913 0.0
C368 C 0.32868 0.12297 0.1444 0.0
H369 H 0.38344 0.09298 0.1624 0.0
C370 C 0.33445 0.12589 0.11703 0.0
C371 C 0.34722 0.11188 0.16105 0.0
C372 C 0.34378 0.11037 0.19096 0.0
C373 C 0.3576 0.11731 0.1058 0.0
C374 C 0.37522 0.10445 0.12214 0.0
C375 C 0.36988 0.10235 0.14966 0.0
C376 C 0.39905 0.09277 0.11115 0.0
C377 C 0.36307 0.12268 0.07656 0.0
C378 C 0.39682 0.07397 0.08972 0.0
C379 C 0.41904 0.06298 0.07942 0.0
C380 C 0.44406 0.06992 0.09069 0.0
C381 C 0.44624 0.08817 0.11258 0.0
C382 C 0.42402 0.09953 0.12262 0.0
H383 H 0.35338 0.1406 0.06953 0.0
H384 H 0.38451 0.12667 0.07241 0.0
H385 H 0.35497 0.10447 0.06476 0.0
H386 H 0.3778 0.0675 0.08105 0.0
H387 H 0.41652 0.04867 0.06281 0.0
H388 H 0.33533 0.9464 0.63132 0.0
H389 H 0.28882 0.95134 0.62513 0.0
H390 H 0.27019 0.90965 0.69957 0.0
H391 H 0.31706 0.90507 0.70626 0.0
H392 H 0.24606 0.91156 0.62142 0.0
H393 H 0.23592 0.981 0.70868 0.0
H394 H 0.26761 0.97359 0.69611 0.0
H395 H 0.24769 0.9484 0.71545 0.0
C396 C 0.32142 0.93827 0.64645 0.0
C397 C 0.32995 0.9255 0.66938 0.0
C398 C 0.2948 0.94105 0.64282 0.0
C399 C 0.27608 0.93113 0.66201 0.0
C400 C 0.28437 0.91789 0.68474 0.0
H401 H 0.10888 0.96221 0.6446 0.0
H402 H 0.14653 0.93898 0.65996 0.0
C403 C 0.31113 0.91519 0.68847 0.0
C404 C 0.24805 0.93523 0.65791 0.0
H405 H 0.19952 0.97272 0.68034 0.0
C406 C 0.23571 0.92454 0.63456 0.0
C407 C 0.23454 0.95209 0.67514 0.0
C408 C 0.24707 0.96464 0.70018 0.0
C409 C 0.21079 0.93143 0.62728 0.0
C410 C 0.19798 0.94945 0.64373 0.0
C411 C 0.20949 0.95878 0.66789 0.0
C412 C 0.17483 0.96211 0.63419 0.0
C413 C 0.19877 0.92045 0.60143 0.0
C414 C 0.17848 0.98268 0.61478 0.0
C415 C 0.15728 0.99601 0.60626 0.0
C416 C 0.13195 0.98892 0.61689 0.0
C417 C 0.12819 0.96792 0.63603 0.0
C418 C 0.1496 0.95476 0.64484 0.0
H419 H 0.20814 0.90235 0.59398 0.0
H420 H 0.1773 0.91453 0.60397 0.0
H421 H 0.20147 0.9368 0.58608 0.0
H422 H 0.19787 0.98867 0.60644 0.0
H423 H 0.16069 0.01181 0.59122 0.0
H424 H 0.73643 0.4029 0.92003 0.0
H425 H 0.77931 0.40415 0.94175 0.0
H426 H 0.77755 0.49045 0.95919 0.0
H427 H 0.73472 0.48932 0.93762 0.0
H428 H 0.82365 0.47932 0.93595 0.0
H429 H 0.79877 0.40868 0.02089 0.0
H430 H 0.78948 0.39445 0.98876 0.0
H431 H 0.77398 0.42318 1.00157 0.0
C432 C 0.74483 0.42195 0.92907 0.0
C433 C 0.73193 0.44589 0.9275 0.0
C434 C 0.7694 0.42265 0.94144 0.0
C435 C 0.78142 0.44728 0.95254 0.0
C436 C 0.76857 0.47118 0.95094 0.0
H437 H 0.92114 0.48105 0.05048 0.0
H438 H 0.8757 0.47159 0.03465 0.0
C439 C 0.74411 0.4705 0.93853 0.0
C440 C 0.80812 0.44876 0.9643 0.0
H441 H 0.84423 0.42327 0.01376 0.0
C442 C 0.82812 0.46709 0.95299 0.0
C443 C 0.81385 0.43299 0.9867 0.0
C444 C 0.79287 0.41388 1.0004 0.0
C445 C 0.85372 0.46993 0.96327 0.0
C446 C 0.85966 0.45361 0.98519 0.0
C447 C 0.83964 0.43551 0.99678 0.0
C448 C 0.88661 0.45552 0.9963 0.0
C449 C 0.87412 0.49074 0.95084 0.0
C450 C 0.90762 0.44856 0.9804 0.0
C451 C 0.93349 0.454 0.98929 0.0
C452 C 0.93886 0.46632 0.01439 0.0
C453 C 0.91766 0.47156 0.03105 0.0
C454 C 0.8917 0.4662 0.02204 0.0
H455 H 0.86495 0.50608 0.93873 0.0
H456 H 0.88657 0.50185 0.96638 0.0
H457 H 0.88711 0.47994 0.93749 0.0
H458 H 0.90404 0.43984 0.96067 0.0
H459 H 0.94934 0.44946 0.97606 0.0
H460 H 0.87703 0.57836 0.4485 0.0
H461 H 0.82915 0.56753 0.45084 0.0
H462 H 0.8307 0.58436 0.53538 0.0
H463 H 0.8785 0.5953 0.53333 0.0
H464 H 0.79361 0.52967 0.48556 0.0
H465 H 0.78526 0.64144 0.50005 0.0
H466 H 0.81491 0.62866 0.48759 0.0
H467 H 0.80685 0.62623 0.52247 0.0
C468 C 0.86727 0.57929 0.46769 0.0
C469 C 0.88154 0.58806 0.49067 0.0
C470 C 0.83993 0.57304 0.46897 0.0
C471 C 0.82648 0.57551 0.4932 0.0
C472 C 0.84079 0.58261 0.51645 0.0
H473 H 0.65883 0.54284 0.52881 0.0
H474 H 0.70656 0.54139 0.52773 0.0
C475 C 0.8681 0.58883 0.51522 0.0
C476 C 0.7974 0.5732 0.4937 0.0
H477 H 0.74585 0.61165 0.50104 0.0
C478 C 0.78308 0.54751 0.48902 0.0
C479 C 0.78389 0.59664 0.4979 0.0
C480 C 0.79841 0.62489 0.5021 0.0
C481 C 0.75541 0.54464 0.48865 0.0
C482 C 0.74193 0.56807 0.49315 0.0
C483 C 0.75631 0.59373 0.49771 0.0
C484 C 0.71288 0.56678 0.4926 0.0
C485 C 0.74077 0.51679 0.48293 0.0
C486 C 0.70071 0.58156 0.47324 0.0
C487 C 0.67349 0.5824 0.47375 0.0
C488 C 0.65789 0.56863 0.49379 0.0
C489 C 0.67015 0.55338 0.5129 0.0
C490 C 0.69743 0.55251 0.51233 0.0
H491 H 0.75399 0.5021 0.47479 0.0
H492 H 0.73177 0.50815 0.5017 0.0
H493 H 0.72464 0.5186 0.4685 0.0
H494 H 0.71235 0.59273 0.45786 0.0
H495 H 0.66471 0.59395 0.45848 0.0
H496 H 0.12381 0.22689 0.11663 0.0
H497 H 0.10256 0.26165 0.09224 0.0
H498 H 0.14404 0.32558 0.14021 0.0
H499 H 0.16568 0.29103 0.16434 0.0
H500 H 0.06968 0.29722 0.11089 0.0
H501 H 0.15733 0.35645 0.0661 0.0
H502 H 0.1586 0.32307 0.08096 0.0
H503 H 0.15981 0.35343 0.10163 0.0
C504 C 0.12867 0.24837 0.1218 0.0
C505 C 0.14659 0.25611 0.14242 0.0
C506 C 0.11644 0.26825 0.10784 0.0
C507 C 0.12192 0.29637 0.11403 0.0
C508 C 0.1399 0.30414 0.13453 0.0
H509 H 0.02595 0.42847 0.08899 0.0
H510 H 0.04763 0.38963 0.10476 0.0
C511 C 0.15217 0.28429 0.14847 0.0
C512 C 0.10782 0.31737 0.10008 0.0
H513 H 0.11736 0.37794 0.06569 0.0
C514 C 0.08015 0.31473 0.10081 0.0
C515 C 0.12132 0.34008 0.0865 0.0
C516 C 0.15089 0.34333 0.08347 0.0
C517 C 0.06573 0.33453 0.08923 0.0
C518 C 0.07928 0.35799 0.07692 0.0
C519 C 0.1069 0.36015 0.07533 0.0
C520 C 0.06523 0.38103 0.06665 0.0
C521 C 0.03605 0.33003 0.09022 0.0
C522 C 0.06813 0.38963 0.03995 0.0
C523 C 0.05574 0.41209 0.03078 0.0
C524 C 0.04038 0.42659 0.04822 0.0
C525 C 0.03741 0.41775 0.07487 0.0
C526 C 0.04974 0.39536 0.08396 0.0
H527 H 0.02888 0.30788 0.09245 0.0
H528 H 0.02889 0.34118 0.10772 0.0
H529 H 0.02728 0.33789 0.07196 0.0
H530 H 0.08011 0.37904 0.02622 0.0
H531 H 0.05866 0.41845 0.01022 0.0
H532 H 0.66621 0.2878 0.92978 0.0
H533 H 0.64242 0.24246 0.93829 0.0
H534 H 0.58895 0.27963 0.99088 0.0
H535 H 0.61214 0.32495 0.98201 0.0
H536 H 0.63536 0.21485 0.98409 0.0
H537 H 0.53795 0.23257 0.94436 0.0
H538 H 0.56724 0.25575 0.93795 0.0
H539 H 0.5492 0.25807 0.96875 0.0
C540 C 0.64931 0.28632 0.94306 0.0
C541 C 0.64099 0.31 0.95512 0.0
C542 C 0.6357 0.26041 0.94784 0.0
C543 C 0.61353 0.25772 0.96474 0.0
C544 C 0.60548 0.28128 0.97712 0.0
H545 H 0.5517 0.12346 0.0607 0.0
H546 H 0.57337 0.16499 0.04027 0.0
C547 C 0.61894 0.30718 0.97222 0.0
C548 C 0.5997 0.23017 0.97074 0.0
H549 H 0.53864 0.19415 0.97422 0.0
C550 C 0.61427 0.21021 0.98157 0.0
C551 C 0.57225 0.22386 0.96697 0.0
C552 C 0.55581 0.24361 0.95359 0.0
C553 C 0.60195 0.18469 0.99004 0.0
C554 C 0.57424 0.17924 0.98818 0.0
C555 C 0.55983 0.19855 0.97602 0.0
C556 C 0.55987 0.15442 1.00033 0.0
C557 C 0.61872 0.1639 1.00117 0.0
C558 C 0.54407 0.13522 0.98481 0.0
C559 C 0.53133 0.1114 0.99654 0.0
C560 C 0.53417 0.10657 0.02395 0.0
C561 C 0.5493 0.12637 0.03948 0.0
C562 C 0.56187 0.15007 0.02781 0.0
H563 H 0.63927 0.16734 0.9935 0.0
H564 H 0.6194 0.16599 0.02322 0.0
H565 H 0.61051 0.14255 0.99611 0.0
H566 H 0.54207 0.13838 0.96358 0.0
H567 H 0.51977 0.09655 0.98407 0.0
H568 H 0.01343 0.69889 0.49805 0.0
H569 H 0.03029 0.74452 0.51486 0.0
H570 H 0.98748 0.78237 0.45386 0.0
H571 H 0.97065 0.73702 0.4368 0.0
H572 H 0.04048 0.80923 0.46503 0.0
H573 H 0.97679 0.78944 0.55513 0.0
H574 H 0.99934 0.76464 0.54732 0.0
H575 H 0.97243 0.76856 0.52533 0.0
C576 C 0.00798 0.71691 0.48789 0.0
C577 C 0.99041 0.71431 0.46628 0.0
C578 C 0.01759 0.74294 0.49758 0.0
C579 C 0.00982 0.76672 0.4858 0.0
C580 C 0.99365 0.76422 0.46324 0.0
H581 H 0.98224 0.9266 0.53192 0.0
H582 H 0.98353 0.87956 0.5159 0.0
C583 C 0.98398 0.73826 0.45358 0.0
C584 C 0.01632 0.79409 0.49825 0.0
H585 H 0.99961 0.83346 0.55093 0.0
C586 C 0.03196 0.81449 0.48403 0.0
C587 C 1.00487 0.80082 0.5229 0.0
C588 C 0.98727 0.77986 0.53859 0.0
C589 C 0.03591 0.8417 0.49356 0.0
C590 C 0.02388 0.84851 0.51781 0.0
C591 C 0.00892 0.82797 0.53241 0.0
C592 C 0.02408 0.87731 0.52695 0.0
C593 C 0.05184 0.86334 0.47716 0.0
C594 C 0.04654 0.89154 0.5385 0.0
C595 C 0.04587 0.91853 0.54785 0.0
C596 C 0.02273 0.9316 0.54568 0.0
C597 C 1.0004 0.91721 0.53388 0.0
C598 C 1.00106 0.89031 0.52472 0.0
H599 H 0.05872 0.85497 0.45799 0.0
H600 H 0.03987 0.88045 0.47283 0.0
H601 H 0.06928 0.87207 0.48869 0.0
H602 H 0.06441 0.88166 0.54053 0.0
H603 H 0.06338 0.92907 0.55687 0.0
H604 H 0.45654 0.81813 0.62587 0.0
H605 H 0.45913 0.76942 0.61573 0.0
H606 H 0.54338 0.78544 0.60642 0.0
H607 H 0.54106 0.83393 0.61707 0.0
H608 H 0.47676 0.74679 0.57016 0.0
H609 H 0.537 0.71966 0.65549 0.0
H610 H 0.52141 0.75108 0.65462 0.0
H611 H 0.55217 0.74878 0.63742 0.0
C612 C 0.47565 0.81123 0.62191 0.0
C613 C 0.49862 0.82988 0.62238 0.0
C614 C 0.47708 0.7834 0.61612 0.0
C615 C 0.50149 0.77371 0.61078 0.0
C616 C 0.52442 0.79231 0.61116 0.0
H617 H 0.56094 0.62992 0.54702 0.0
H618 H 0.55286 0.67517 0.56421 0.0
C619 C 0.52303 0.82008 0.61707 0.0
C620 C 0.50292 0.74448 0.6034 0.0
H621 H 0.53381 0.68801 0.61858 0.0
C622 C 0.48893 0.7338 0.58096 0.0
C623 C 0.51875 0.72755 0.61759 0.0
C624 C 0.53297 0.73725 0.64278 0.0
C625 C 0.49122 0.707 0.57167 0.0
C626 C 0.50778 0.69048 0.58531 0.0
C627 C 0.52124 0.70086 0.60813 0.0
C628 C 0.51238 0.66284 0.57543 0.0
C629 C 0.47671 0.69683 0.5468 0.0
C630 C 0.4923 0.6409 0.57633 0.0
C631 C 0.49686 0.61493 0.56661 0.0
C632 C 0.52157 0.61055 0.55578 0.0
C633 C 0.54166 0.6326 0.55514 0.0
C634 C 0.53713 0.65846 0.565 0.0
H635 H 0.4679 0.71357 0.53635 0.0
H636 H 0.49019 0.68746 0.53279 0.0
H637 H 0.46064 0.68069 0.55226 0.0
H638 H 0.47314 0.64389 0.58457 0.0
H639 H 0.48099 0.59836 0.56742 0.0
H640 H 0.86305 0.92384 0.8289 0.0
H641 H 0.887 0.94099 0.78899 0.0
H642 H 0.93475 0.87356 0.79222 0.0
H643 H 0.91075 0.85604 0.83217 0.0
H644 H 0.94118 0.95725 0.78187 0.0
H645 H 0.9066 0.86964 0.71527 0.0
H646 H 0.891 0.87557 0.74691 0.0
H647 H 0.92151 0.86041 0.74584 0.0
C648 C 0.87859 0.91253 0.82117 0.0
C649 C 0.8848 0.8884 0.83382 0.0
C650 C 0.89233 0.92245 0.79832 0.0
C651 C 0.9125 0.90844 0.78736 0.0
C652 C 0.91899 0.88451 0.80002 0.0
H653 H 0.02451 0.97711 0.6643 0.0
H654 H 1.00491 0.95753 0.70575 0.0
C655 C 0.90529 0.87458 0.82298 0.0
C656 C 0.92669 0.91909 0.7628 0.0
H657 H 0.93791 0.9038 0.69728 0.0
C658 C 0.94057 0.94552 0.7634 0.0
C659 C 0.92567 0.90391 0.7386 0.0
C660 C 0.91024 0.8759 0.73638 0.0
C661 C 0.95341 0.95715 0.74054 0.0
C662 C 0.95261 0.94186 0.71641 0.0
C663 C 0.93873 0.91543 0.71581 0.0
C664 C 0.96487 0.95344 0.69123 0.0
C665 C 0.96708 0.98604 0.74219 0.0
C666 C 0.94902 0.95719 0.66906 0.0
C667 C 0.96014 0.96832 0.64538 0.0
C668 C 0.98748 0.97582 0.64317 0.0
C669 C 1.0034 0.97171 0.66531 0.0
C670 C 0.9922 0.96063 0.68908 0.0
H671 H 0.96109 0.9971 0.76029 0.0
H672 H 0.98868 0.98518 0.74298 0.0
H673 H 0.96277 0.99806 0.72431 0.0
H674 H 0.92792 0.95174 0.67017 0.0
H675 H 0.94724 0.97104 0.62877 0.0
H676 H 0.56066 0.05868 0.40584 0.0
H677 H 0.54868 0.05311 0.35877 0.0
H678 H 0.60082 0.12569 0.33943 0.0
H679 H 0.6129 0.13136 0.38645 0.0
H680 H 0.55236 0.12221 0.31226 0.0
H681 H 0.59964 0.02524 0.30408 0.0
H682 H 0.57482 0.0252 0.32964 0.0
H683 H 0.60459 0.04822 0.33233 0.0
C684 C 0.56937 0.07361 0.39158 0.0
C685 C 0.58752 0.09563 0.39987 0.0
C686 C 0.56256 0.07035 0.36471 0.0
C687 C 0.57412 0.08879 0.3456 0.0
C688 C 0.59161 0.11129 0.35391 0.0
H689 H 0.59735 0.06536 0.17816 0.0
H690 H 0.60015 0.07189 0.22631 0.0
C691 C 0.59833 0.11465 0.38083 0.0
C692 C 0.56901 0.08389 0.31681 0.0
H693 H 0.57731 0.03865 0.26607 0.0
C694 C 0.5577 0.10391 0.30212 0.0
C695 C 0.5763 0.06013 0.30366 0.0
C696 C 0.58973 0.03855 0.31812 0.0
C697 C 0.55355 0.10083 0.27453 0.0
C698 C 0.56057 0.07691 0.26146 0.0
C699 C 0.57172 0.05684 0.27621 0.0
C700 C 0.55829 0.07308 0.23218 0.0
C701 C 0.5425 0.12358 0.25945 0.0
C702 C 0.53374 0.07125 0.21949 0.0
C703 C 0.53209 0.06774 0.19178 0.0
C704 C 0.55496 0.0659 0.17633 0.0
C705 C 0.57941 0.06723 0.18929 0.0
C706 C 0.58104 0.07077 0.21688 0.0
H707 H 0.54351 0.14298 0.27127 0.0
H708 H 0.55329 0.12776 0.24035 0.0
H709 H 0.52153 0.1172 0.25474 0.0
H710 H 0.51589 0.07249 0.23101 0.0
H711 H 0.51298 0.06692 0.18246 0.0
H712 H 0.38178 0.64962 0.29661 0.0
H713 H 0.40129 0.63252 0.33685 0.0
H714 H 0.45632 0.59272 0.28843 0.0
H715 H 0.43683 0.60954 0.24803 0.0
H716 H 0.43184 0.55931 0.3299 0.0
H717 H 0.47412 0.66193 0.36692 0.0
H718 H 0.43956 0.65917 0.35951 0.0
H719 H 0.463 0.65614 0.33304 0.0
C720 C 0.39804 0.63723 0.29449 0.0
C721 C 0.40784 0.63106 0.26911 0.0
C722 C 0.40922 0.62758 0.31752 0.0
C723 C 0.43045 0.61167 0.3156 0.0
C724 C 0.44 0.60507 0.29031 0.0
H725 H 0.53788 0.57548 0.44004 0.0
H726 H 0.51721 0.58963 0.39928 0.0
C727 C 0.42887 0.61475 0.26727 0.0
C728 C 0.44272 0.60188 0.33996 0.0
H729 H 0.4767 0.62416 0.3958 0.0
C730 C 0.44167 0.57345 0.34433 0.0
C731 C 0.45576 0.62041 0.35854 0.0
C732 C 0.45845 0.65112 0.35426 0.0
C733 C 0.45308 0.56303 0.36703 0.0
C734 C 0.4656 0.58158 0.38591 0.0
C735 C 0.46689 0.61 0.38137 0.0
C736 C 0.478 0.57199 0.41028 0.0
C737 C 0.45206 0.53228 0.3704 0.0
C738 C 0.46275 0.55744 0.43001 0.0
C739 C 0.4745 0.54929 0.45338 0.0
C740 C 0.50171 0.55566 0.45743 0.0
C741 C 0.5169 0.57016 0.43753 0.0
C742 C 0.50513 0.57831 0.41424 0.0
H743 H 0.44727 0.52108 0.3514 0.0
H744 H 0.47115 0.52652 0.37783 0.0
H745 H 0.43659 0.52538 0.38527 0.0
H746 H 0.4417 0.55277 0.42753 0.0
H747 H 0.46222 0.53829 0.46837 0.0
H748 H 0.11374 0.41461 0.69641 0.0
H749 H 0.11285 0.41157 0.74524 0.0
H750 H 0.09122 0.49435 0.75032 0.0
H751 H 0.09168 0.49737 0.70171 0.0
H752 H 0.13376 0.48284 0.78455 0.0
H753 H 0.04582 0.40518 0.79342 0.0
H754 H 0.07242 0.39738 0.7719 0.0
H755 H 0.05306 0.42447 0.76317 0.0
C756 C 0.10809 0.43185 0.7079 0.0
C757 C 0.10207 0.45596 0.69518 0.0
C758 C 0.10789 0.43019 0.7358 0.0
C759 C 0.10172 0.45264 0.75134 0.0
C760 C 0.09602 0.47679 0.73866 0.0
H761 H 0.05669 0.51951 0.89121 0.0
H762 H 0.07885 0.50761 0.85011 0.0
C763 C 0.09623 0.47845 0.7109 0.0
C764 C 0.10098 0.45147 0.78084 0.0
H765 H 0.06206 0.42662 0.83273 0.0
C766 C 0.11843 0.47014 0.79518 0.0
C767 C 0.0812 0.4346 0.79468 0.0
C768 C 0.06191 0.41431 0.78014 0.0
C769 C 0.11552 0.4737 0.82279 0.0
C770 C 0.09437 0.45851 0.83626 0.0
C771 C 0.07826 0.43824 0.82232 0.0
C772 C 0.08561 0.46679 0.86308 0.0
C773 C 0.13438 0.49458 0.83711 0.0
C774 C 0.0823 0.44791 0.88419 0.0
C775 C 0.06973 0.45488 0.90788 0.0
C776 C 0.05987 0.48051 0.91034 0.0
C777 C 0.06426 0.49969 0.88967 0.0
C778 C 0.07705 0.49294 0.86631 0.0
H779 H 0.15398 0.49684 0.82713 0.0
H780 H 0.12659 0.51491 0.83666 0.0
H781 H 0.13685 0.48879 0.85826 0.0
H782 H 0.0885 0.42751 0.88194 0.0
H783 H 0.0662 0.43972 0.92352 0.0
H784 H 0.71732 0.90824 0.89399 0.0
H785 H 0.68096 0.92628 0.91785 0.0
H786 H 0.72764 0.93485 0.98932 0.0
H787 H 0.76437 0.91689 0.96547 0.0
H788 H 0.65354 0.90632 0.96413 0.0
H789 H 0.70319 0.01196 0.98004 0.0
H790 H 0.71529 0.98815 0.95646 0.0
H791 H 0.72087 0.98446 0.99153 0.0
C792 C 0.71996 0.91393 0.9148 0.0
C793 C 0.74393 0.91119 0.92773 0.0
C794 C 0.69906 0.92424 0.92843 0.0
C795 C 0.70161 0.93231 0.9553 0.0
C796 C 0.72533 0.92923 0.96847 0.0
H797 H 0.59341 0.00878 0.06217 0.0
H798 H 0.63096 0.98816 0.0429 0.0
C799 C 0.74628 0.91878 0.95484 0.0
C800 C 0.67928 0.94377 0.96933 0.0
H801 H 0.66077 1.00208 0.99883 0.0
C802 C 0.65513 0.92725 0.97175 0.0
C803 C 0.68133 0.97106 0.97936 0.0
C804 C 0.70646 0.9901 0.9766 0.0
C805 C 0.63309 0.93717 0.984 0.0
C806 C 0.63496 0.96466 0.99358 0.0
C807 C 0.65924 0.98105 0.99149 0.0
C808 C 0.61189 0.97693 0.00538 0.0
C809 C 0.60813 0.91788 0.98696 0.0
C810 C 0.58867 0.97788 0.99067 0.0
C811 C 0.56711 0.98955 1.00169 0.0
C812 C 0.56831 1.00083 0.02763 0.0
C813 C 0.59171 1.0002 0.0422 0.0
C814 C 0.61325 0.98844 0.03118 0.0
H815 H 0.61217 0.896 0.98626 0.0
H816 H 0.59783 0.92163 0.00601 0.0
H817 H 0.59472 0.92122 0.97025 0.0
H818 H 0.58729 0.96984 0.97049 0.0
H819 H 0.54954 0.98988 0.98976 0.0
H820 H 0.70498 0.12054 0.4986 0.0
H821 H 0.7527 0.11865 0.50178 0.0
H822 H 0.74191 0.03167 0.48448 0.0
H823 H 0.69439 0.03326 0.48147 0.0
H824 H 0.77734 0.08232 0.53841 0.0
H825 H 0.80153 0.06439 0.43214 0.0
H826 H 0.77227 0.07945 0.44259 0.0
H827 H 0.77333 0.04287 0.44443 0.0
C828 C 0.71282 0.10106 0.49527 0.0
C829 C 0.69593 0.07703 0.48981 0.0
C830 C 0.74003 0.10005 0.49707 0.0
C831 C 0.75077 0.07511 0.493 0.0
C832 C 0.734 0.0512 0.48725 0.0
H833 H 0.8814 0.98825 0.50821 0.0
H834 H 0.84211 0.00941 0.49623 0.0
C835 C 0.70684 0.05212 0.48572 0.0
C836 C 0.77926 0.0733 0.49644 0.0
H837 H 0.83295 0.05275 0.4643 0.0
C838 C 0.78977 0.07643 0.52218 0.0
C839 C 0.79527 0.06569 0.47514 0.0
C840 C 0.78515 0.06313 0.44694 0.0
C841 C 0.81539 0.07015 0.52759 0.0
C842 C 0.83102 0.06114 0.50648 0.0
C843 C 0.82095 0.05963 0.48045 0.0
C844 C 0.85627 0.04975 0.51156 0.0
C845 C 0.8248 0.07141 0.5561 0.0
C846 C 0.87768 0.0656 0.52346 0.0
C847 C 0.90016 0.05338 0.5307 0.0
C848 C 0.90158 0.02515 0.52601 0.0
C849 C 0.88069 0.00984 0.51269 0.0
C850 C 0.8583 0.02199 0.5056 0.0
H851 H 0.80857 0.0739 0.5705 0.0
H852 H 0.83383 0.05246 0.56125 0.0
H853 H 0.83999 0.08922 0.55858 0.0
H854 H 0.87673 0.08722 0.52774 0.0
H855 H 0.91591 0.06575 0.54089 0.0
H856 H 0.30438 0.61752 0.06441 0.0
H857 H 0.26081 0.59772 0.04963 0.0
H858 H 0.2329 0.59622 0.13104 0.0
H859 H 0.27633 0.61611 0.14607 0.0
H860 H 0.22914 0.54748 0.06585 0.0
H861 H 0.18239 0.64229 0.08982 0.0
H862 H 0.21763 0.64202 0.08694 0.0
H863 H 0.20065 0.62925 0.11659 0.0
C864 C 0.28904 0.6128 0.07922 0.0
C865 C 0.29377 0.61862 0.10641 0.0
C866 C 0.26418 0.60148 0.07072 0.0
C867 C 0.24361 0.59596 0.08921 0.0
C868 C 0.24847 0.60078 0.11644 0.0
H869 H 0.07876 0.53895 0.08547 0.0
H870 H 0.12384 0.5568 0.09645 0.0
C871 C 0.27333 0.61201 0.12499 0.0
C872 C 0.21685 0.58578 0.07998 0.0
H873 H 0.15391 0.60294 0.07726 0.0
C874 C 0.21267 0.5596 0.06817 0.0
C875 C 0.19553 0.60177 0.08298 0.0
C876 C 0.19919 0.6305 0.09456 0.0
C877 C 0.18744 0.54857 0.06003 0.0
C878 C 0.16603 0.56444 0.06334 0.0
C879 C 0.17036 0.59081 0.07478 0.0
C880 C 0.13874 0.55372 0.05615 0.0
C881 C 0.18376 0.51971 0.04879 0.0
C882 C 0.13207 0.54645 0.02972 0.0
C883 C 0.10623 0.53614 0.02333 0.0
C884 C 0.08662 0.53315 0.04327 0.0
C885 C 0.09335 0.54097 0.06961 0.0
C886 C 0.11913 0.55117 0.07595 0.0
H887 H 0.2007 0.50808 0.0534 0.0
H888 H 0.1655 0.50817 0.05677 0.0
H889 H 0.182 0.52068 0.02677 0.0
H890 H 0.14681 0.5488 0.01403 0.0
H891 H 0.10166 0.5304 1.00284 0.0
H892 H 0.19394 0.45112 0.58049 0.0
H893 H 0.24144 0.45499 0.57235 0.0
H894 H 0.24519 0.54333 0.57871 0.0
H895 H 0.19758 0.53974 0.58676 0.0
H896 H 0.27508 0.52227 0.53459 0.0
H897 H 0.29553 0.47686 0.63263 0.0
H898 H 0.27106 0.45688 0.61298 0.0
H899 H 0.26471 0.49014 0.62535 0.0
C900 C 0.2048 0.4714 0.58 0.0
C901 C 0.19202 0.49512 0.58447 0.0
C902 C 0.23194 0.47355 0.57544 0.0
C903 C 0.24678 0.49941 0.57533 0.0
C904 C 0.23403 0.52319 0.57886 0.0
H905 H 0.41622 0.54643 0.55619 0.0
H906 H 0.36849 0.54774 0.55979 0.0
C907 C 0.20686 0.52107 0.58349 0.0
C908 C 0.27573 0.50146 0.57226 0.0
H909 H 0.33116 0.48338 0.60201 0.0
C910 C 0.28744 0.51396 0.54936 0.0
C911 C 0.29168 0.49068 0.59167 0.0
C912 C 0.28021 0.47809 0.61718 0.0
C913 C 0.31472 0.5151 0.54491 0.0
C914 C 0.33061 0.50387 0.56413 0.0
C915 C 0.3189 0.49186 0.58726 0.0
C916 C 0.35935 0.50346 0.56045 0.0
C917 C 0.3262 0.52749 0.51933 0.0
C918 C 0.37001 0.4782 0.55991 0.0
C919 C 0.39717 0.47742 0.55802 0.0
C920 C 0.41428 0.50191 0.5567 0.0
C921 C 0.40354 0.52723 0.55685 0.0
C922 C 0.37628 0.528 0.55886 0.0
H923 H 0.3108 0.52929 0.50409 0.0
H924 H 0.33599 0.54843 0.52353 0.0
H925 H 0.34119 0.51495 0.5109 0.0
H926 H 0.35727 0.45903 0.5611 0.0
H927 H 0.40476 0.45758 0.55752 0.0
H928 H 0.8727 0.73262 0.91343 0.0
H929 H 0.89269 0.69296 0.93049 0.0
H930 H 0.94432 0.74682 0.98009 0.0
H931 H 0.92465 0.78666 0.96287 0.0
H932 H 0.97049 0.70771 0.9543 0.0
H933 H 0.88042 0.65811 1.00379 0.0
H934 H 0.876 0.66502 0.96907 0.0
H935 H 0.88312 0.69316 0.9921 0.0
C936 C 0.88831 0.73608 0.92796 0.0
C937 C 0.89695 0.7629 0.93683 0.0
C938 C 0.89961 0.71331 0.93786 0.0
C939 C 0.91971 0.71676 0.95699 0.0
C940 C 0.92873 0.74355 0.96549 0.0
H941 H 0.9737 0.58248 0.05071 0.0
H942 H 0.95603 0.62486 0.03669 0.0
C943 C 0.91744 0.76635 0.95561 0.0
C944 C 0.93157 0.69252 0.96781 0.0
H945 H 0.91665 0.6314 1.00029 0.0
C946 C 0.95872 0.6911 0.96446 0.0
C947 C 0.91636 0.67097 0.98148 0.0
C948 C 0.88741 0.67192 0.9871 0.0
C949 C 0.9709 0.66847 0.97372 0.0
C950 C 0.95549 0.64638 0.98639 0.0
C951 C 0.92847 0.64815 0.99039 0.0
C952 C 0.9669 0.62104 0.99513 0.0
C953 C 1.00026 0.66859 0.97008 0.0
C954 C 0.97872 0.6046 0.97646 0.0
C955 C 0.98885 0.58044 0.9844 0.0
C956 C 0.9873 0.57197 0.01123 0.0
C957 C 0.97539 0.58843 0.02994 0.0
C958 C 0.96521 0.61264 0.02193 0.0
H959 H 0.0101 0.68979 0.96735 0.0
H960 H 0.0092 0.65918 0.98745 0.0
H961 H 1.00422 0.65645 0.95199 0.0
H962 H 0.97976 0.61023 0.95558 0.0
H963 H 0.99767 0.56823 0.96937 0.0
H964 H 0.39591 0.74711 0.118 0.0
H965 H 0.41424 0.79445 0.10972 0.0
H966 H 0.44291 0.80147 0.19043 0.0
H967 H 0.42456 0.75384 0.19906 0.0
H968 H 0.39987 0.8417 0.14212 0.0
H969 H 0.50727 0.83006 0.1404 0.0
H970 H 0.48266 0.80136 0.13422 0.0
H971 H 0.48752 0.81469 0.16742 0.0
C972 C 0.40631 0.75853 0.13399 0.0
C973 C 0.40871 0.74666 0.15924 0.0
C974 C 0.41674 0.78561 0.1292 0.0
C975 C 0.42997 0.80133 0.14942 0.0
C976 C 0.43295 0.78951 0.17451 0.0
H977 H 0.50306 0.97157 0.1317 0.0
H978 H 0.48796 0.9267 0.15124 0.0
C979 C 0.4224 0.76234 0.1794 0.0
C980 C 0.43941 0.83048 0.14429 0.0
H981 H 0.49478 0.87403 0.13136 0.0
C982 C 0.42062 0.84888 0.14 0.0
C983 C 0.46648 0.83972 0.14184 0.0
C984 C 0.48729 0.82053 0.14606 0.0
C985 C 0.42817 0.8762 0.13259 0.0
C986 C 0.4552 0.88513 0.1288 0.0
C987 C 0.47407 0.86705 0.13418 0.0
C988 C 0.46406 0.91248 0.11742 0.0
C989 C 0.40711 0.8952 0.12869 0.0
C990 C 0.45585 0.91915 0.09184 0.0
C991 C 0.46436 0.94465 0.08066 0.0
C992 C 0.48146 0.96396 0.09477 0.0
C993 C 0.48982 0.95718 0.12036 0.0
C994 C 0.48126 0.93157 0.13155 0.0
H995 H 0.38896 0.8882 0.14017 0.0
H996 H 0.41409 0.91658 0.13488 0.0
H997 H 0.40183 0.89536 0.10725 0.0
H998 H 0.44304 0.90446 0.08036 0.0
H999 H 0.45766 0.94911 0.06086 0.0
H1000 H 1.00431 0.31812 0.63118 0.0
H1001 H 0.99173 0.26888 0.6243 0.0
H1002 H 0.06425 0.25088 0.66049 0.0
H1003 H 0.07686 0.29998 0.66776 0.0
H1004 H 0.01908 0.23415 0.59383 0.0
H1005 H 0.0098 0.19703 0.69801 0.0
H1006 H 0.01044 0.23297 0.68954 0.0
H1007 H 0.04061 0.21717 0.69139 0.0
C1008 C 0.01745 0.30368 0.638 0.0
C1009 C 0.04161 0.313 0.65003 0.0
C1010 C 0.01021 0.27555 0.63404 0.0
C1011 C 0.02688 0.25621 0.64221 0.0
C1012 C 0.05081 0.26541 0.65457 0.0
H1013 H 0.04904 0.08784 0.6192 0.0
H1014 H 0.04919 0.13602 0.63221 0.0
C1015 C 0.05807 0.29352 0.65855 0.0
C1016 C 0.02025 0.22658 0.63605 0.0
H1017 H 0.01344 0.16274 0.66415 0.0
C1018 C 0.01743 0.21852 0.6092 0.0
C1019 C 0.01809 0.20629 0.65617 0.0
C1020 C 0.01963 0.21378 0.68541 0.0
C1021 C 0.01377 0.19063 0.60183 0.0
C1022 C 0.01246 0.17032 0.62191 0.0
C1023 C 0.01446 0.17839 0.64881 0.0
C1024 C 0.0111 0.14063 0.61526 0.0
C1025 C 0.01256 0.1831 0.57257 0.0
C1026 C 0.98934 0.12709 0.60185 0.0
C1027 C 0.98918 0.09944 0.59429 0.0
C1028 C 0.01077 0.08493 0.60013 0.0
C1029 C 0.03213 0.09841 0.61429 0.0
C1030 C 0.03225 0.12595 0.62181 0.0
H1031 H 0.01892 0.20101 0.55964 0.0
H1032 H 0.02517 0.16647 0.56811 0.0
H1033 H 0.992 0.17543 0.56731 0.0
H1034 H 0.97264 0.13798 0.59698 0.0
H1035 H 0.97239 0.08961 0.58351 0.0
H1036 H 0.61535 0.25742 0.42078 0.0
H1037 H 0.61193 0.30593 0.43149 0.0
H1038 H 0.53214 0.28509 0.45889 0.0
H1039 H 0.53533 0.23668 0.44845 0.0
H1040 H 0.57398 0.34279 0.41446 0.0
H1041 H 0.57145 0.32367 0.5236 0.0
H1042 H 0.58232 0.29938 0.49974 0.0
H1043 H 0.54776 0.3017 0.50482 0.0
C1044 C 0.597 0.26319 0.42889 0.0
C1045 C 0.57569 0.24314 0.43402 0.0
C1046 C 0.5951 0.29089 0.43497 0.0
C1047 C 0.57195 0.29893 0.44637 0.0
C1048 C 0.55033 0.27917 0.45052 0.0
H1049 H 0.51272 0.44324 0.50962 0.0
H1050 H 0.52075 0.3977 0.49342 0.0
C1051 C 0.55217 0.25153 0.44444 0.0
C1052 C 0.57048 0.3278 0.45475 0.0
H1053 H 0.56139 0.3676 0.50951 0.0
C1054 C 0.57146 0.34835 0.43524 0.0
C1055 C 0.56735 0.33488 0.4819 0.0
C1056 C 0.56739 0.31383 0.50379 0.0
C1057 C 0.56829 0.37573 0.4421 0.0
C1058 C 0.56449 0.38265 0.46921 0.0
C1059 C 0.56418 0.36218 0.48874 0.0
C1060 C 0.55965 0.41072 0.4778 0.0
C1061 C 0.5681 0.39682 0.42027 0.0
C1062 C 0.57895 0.43315 0.47445 0.0
C1063 C 0.57442 0.45933 0.48368 0.0
C1064 C 0.55056 0.46341 0.49656 0.0
C1065 C 0.5313 0.44085 0.49979 0.0
C1066 C 0.53584 0.41478 0.49055 0.0
H1067 H 0.56563 0.38707 0.40023 0.0
H1068 H 0.55202 0.41008 0.42362 0.0
H1069 H 0.58706 0.41021 0.42036 0.0
H1070 H 0.59766 0.43033 0.4651 0.0
H1071 H 0.58969 0.47627 0.481 0.0
loop_
_geom_bond_atom_site_label_1
_geom_bond_atom_site_label_2
_geom_bond_distance
_geom_bond_site_symmetry_2
_ccdc_geom_bond_type
O0 Cd1 2.300 . S
O0 C7 1.275 . S
Cd1 O0 2.300 . S
Cd1 O9 2.381 . S
Cd1 O10 2.378 . S
O2 Cd3 2.385 . S
O2 C7 1.255 . S
Cd3 O2 2.385 . S
Cd3 O4 2.317 . S
O4 Cd3 2.317 . S
O4 C5 1.232 . S
C5 O4 1.232 . S
C5 O6 1.218 . S
O6 C5 1.218 . S
C7 O0 1.275 . S
C7 O2 1.255 . S
C8 O9 1.258 . S
C8 O10 1.256 . S
O9 Cd1 2.381 . S
O9 C8 1.258 . S
O10 Cd1 2.378 . S
O10 C8 1.256 . S
O11 Cd12 2.300 . S
O11 C18 1.275 . S
Cd12 O11 2.300 . S
Cd12 O20 2.381 . S
Cd12 O21 2.378 . S
O13 Cd14 2.385 . S
O13 C18 1.255 . S
Cd14 O13 2.385 . S
Cd14 O15 2.317 . S
O15 Cd14 2.317 . S
O15 C16 1.232 . S
C16 O15 1.232 . S
C16 O17 1.218 . S
O17 C16 1.218 . S
C18 O11 1.275 . S
C18 O13 1.255 . S
C19 O20 1.258 . S
C19 O21 1.256 . S
O20 Cd12 2.381 . S
O20 C19 1.258 . S
O21 Cd12 2.378 . S
O21 C19 1.256 . S
O22 Cd23 2.300 . S
O22 C29 1.275 . S
Cd23 O22 2.300 . S
Cd23 O31 2.381 . S
Cd23 O32 2.378 . S
O24 Cd25 2.385 . S
O24 C29 1.255 . S
Cd25 O24 2.385 . S
Cd25 O26 2.317 . S
O26 Cd25 2.317 . S
O26 C27 1.232 . S
C27 O26 1.232 . S
C27 O28 1.218 . S
O28 C27 1.218 . S
C29 O22 1.275 . S
C29 O24 1.255 . S
C30 O31 1.258 . S
C30 O32 1.256 . S
O31 Cd23 2.381 . S
O31 C30 1.258 . S
O32 Cd23 2.378 . S
O32 C30 1.256 . S
O33 Cd34 2.300 . S
O33 C40 1.275 . S
Cd34 O33 2.300 . S
Cd34 O42 2.381 . S
Cd34 O43 2.378 . S
O35 Cd36 2.385 . S
O35 C40 1.255 . S
Cd36 O35 2.385 . S
Cd36 O37 2.317 . S
O37 Cd36 2.317 . S
O37 C38 1.232 . S
C38 O37 1.232 . S
C38 O39 1.218 . S
O39 C38 1.218 . S
C40 O33 1.275 . S
C40 O35 1.255 . S
C41 O42 1.258 . S
C41 O43 1.256 . S
O42 Cd34 2.381 . S
O42 C41 1.258 . S
O43 Cd34 2.378 . S
O43 C41 1.256 . S
O44 Cd45 2.300 . S
O44 C51 1.275 . S
Cd45 O44 2.300 . S
Cd45 O53 2.381 . S
Cd45 O54 2.378 . S
O46 Cd47 2.385 . S
O46 C51 1.255 . S
Cd47 O46 2.385 . S
Cd47 O48 2.317 . S
O48 Cd47 2.317 . S
O48 C49 1.232 . S
C49 O48 1.232 . S
C49 O50 1.218 . S
O50 C49 1.218 . S
C51 O44 1.275 . S
C51 O46 1.255 . S
C52 O53 1.258 . S
C52 O54 1.256 . S
O53 Cd45 2.381 . S
O53 C52 1.258 . S
O54 Cd45 2.378 . S
O54 C52 1.256 . S
O55 Cd56 2.300 . S
O55 C62 1.275 . S
Cd56 O55 2.300 . S
Cd56 O64 2.381 . S
Cd56 O65 2.378 . S
O57 Cd58 2.385 . S
O57 C62 1.255 . S
Cd58 O57 2.385 . S
Cd58 O59 2.317 . S
O59 Cd58 2.317 . S
O59 C60 1.232 . S
C60 O59 1.232 . S
C60 O61 1.218 . S
O61 C60 1.218 . S
C62 O55 1.275 . S
C62 O57 1.255 . S
C63 O64 1.258 . S
C63 O65 1.256 . S
O64 Cd56 2.381 . S
O64 C63 1.258 . S
O65 Cd56 2.378 . S
O65 C63 1.256 . S
O66 Cd67 2.300 . S
O66 C73 1.275 . S
Cd67 O66 2.300 . S
Cd67 O75 2.381 . S
Cd67 O76 2.378 . S
O68 Cd69 2.385 . S
O68 C73 1.255 . S
Cd69 O68 2.385 . S
Cd69 O70 2.317 . S
O70 Cd69 2.317 . S
O70 C71 1.232 . S
C71 O70 1.232 . S
C71 O72 1.218 . S
O72 C71 1.218 . S
C73 O66 1.275 . S
C73 O68 1.255 . S
C74 O75 1.258 . S
C74 O76 1.256 . S
O75 Cd67 2.381 . S
O75 C74 1.258 . S
O76 Cd67 2.378 . S
O76 C74 1.256 . S
O77 Cd78 2.300 . S
O77 C84 1.275 . S
Cd78 O77 2.300 . S
Cd78 O86 2.381 . S
Cd78 O87 2.378 . S
O79 Cd80 2.385 . S
O79 C84 1.255 . S
Cd80 O79 2.385 . S
Cd80 O81 2.317 . S
O81 Cd80 2.317 . S
O81 C82 1.232 . S
C82 O81 1.232 . S
C82 O83 1.218 . S
O83 C82 1.218 . S
C84 O77 1.275 . S
C84 O79 1.255 . S
C85 O86 1.258 . S
C85 O87 1.256 . S
O86 Cd78 2.381 . S
O86 C85 1.258 . S
O87 Cd78 2.378 . S
O87 C85 1.256 . S
Co88 N93 2.057 . S
Co88 O105 2.021 . S
Co88 O108 2.062 . S
Co88 O112 2.117 1_545 S
Co88 O113 2.033 . S
C89 O109 1.259 1_655 S
C89 O112 1.258 . S
Co90 N99 2.057 . S
Co90 O106 2.117 1_565 S
Co90 O107 2.020 1_565 S
Co90 O109 2.021 . S
Co90 O114 2.062 . S
C91 N93 1.316 . S
C91 N94 1.347 . S
C91 H96 0.931 . S
C92 N93 1.375 1_565 S
C92 C95 1.350 1_565 S
C92 H97 0.930 . S
N93 Co88 2.057 . S
N93 C91 1.316 . S
N93 C92 1.375 1_545 S
N94 C91 1.347 . S
N94 C95 1.373 . S
C95 C92 1.350 1_545 S
C95 N94 1.373 . S
C95 H116 0.931 1_545 S
H96 C91 0.931 . S
H97 C92 0.930 . S
C98 O105 1.259 1_455 S
C98 O106 1.258 . S
N99 Co90 2.057 . S
N99 C100 1.316 . S
N99 C101 1.375 1_565 S
C100 N99 1.316 . S
C100 N102 1.347 . S
C100 H111 0.931 . S
C101 N99 1.375 1_545 S
C101 C103 1.350 . S
C101 H110 0.930 . S
N102 C100 1.347 . S
N102 C103 1.373 1_565 S
C103 C101 1.350 . S
C103 N102 1.373 1_545 S
C103 H117 0.931 . S
C104 O107 1.256 . S
C104 O108 1.255 1_455 S
O105 Co88 2.021 . S
O105 C98 1.259 1_655 S
O106 Co90 2.117 1_545 S
O106 C98 1.258 . S
O107 Co90 2.020 1_545 S
O107 C104 1.256 . S
O108 Co88 2.062 . S
O108 C104 1.255 1_655 S
O109 C89 1.259 1_455 S
O109 Co90 2.021 . S
H110 C101 0.930 . S
H111 C100 0.931 . S
O112 Co88 2.117 1_565 S
O112 C89 1.258 . S
O113 Co88 2.033 . S
O113 C115 1.235 1_545 S
O114 Co90 2.062 . S
O114 C115 1.255 1_455 S
C115 O113 1.235 1_565 S
C115 O114 1.255 1_655 S
H116 C95 0.931 1_565 S
H117 C103 0.931 . S
Co118 N123 2.068 1_554 S
Co118 O135 2.021 . S
Co118 O138 2.062 . S
Co118 O142 2.117 1_545 S
Co118 O143 2.020 . S
C119 O139 1.259 . S
C119 O142 1.258 . S
Co120 N129 2.057 . S
Co120 O136 2.117 . S
Co120 O137 2.020 . S
Co120 O139 2.021 1_545 S
Co120 O144 2.062 . S
C121 N123 1.324 . S
C121 N124 1.347 1_545 S
C121 H126 0.931 . S
C122 N123 1.353 1_565 S
C122 C125 1.350 . S
C122 H127 0.930 1_556 S
N123 Co118 2.068 1_556 S
N123 C121 1.324 . S
N123 C122 1.353 1_545 S
N124 C121 1.347 1_565 S
N124 C125 1.373 . S
C125 C122 1.350 . S
C125 N124 1.373 . S
C125 H146 0.931 . S
H126 C121 0.931 . S
H127 C122 0.930 1_554 S
C128 O135 1.259 . S
C128 O136 1.258 . S
N129 Co120 2.057 . S
N129 C130 1.316 . S
N129 C131 1.375 . S
C130 N129 1.316 . S
C130 N132 1.347 . S
C130 H141 0.931 . S
C131 N129 1.375 . S
C131 C133 1.350 . S
C131 H140 0.930 . S
N132 C130 1.347 . S
N132 C133 1.373 . S
C133 C131 1.350 . S
C133 N132 1.373 . S
C133 H147 0.931 . S
C134 O137 1.256 . S
C134 O138 1.255 . S
O135 Co118 2.021 . S
O135 C128 1.259 . S
O136 Co120 2.117 . S
O136 C128 1.258 . S
O137 Co120 2.020 . S
O137 C134 1.256 . S
O138 Co118 2.062 . S
O138 C134 1.255 . S
O139 C119 1.259 . S
O139 Co120 2.021 1_565 S
H140 C131 0.930 . S
H141 C130 0.931 . S
O142 Co118 2.117 1_565 S
O142 C119 1.258 . S
O143 Co118 2.020 . S
O143 C145 1.256 . S
O144 Co120 2.062 . S
O144 C145 1.255 . S
C145 O143 1.256 . S
C145 O144 1.255 . S
H146 C125 0.931 . S
H147 C133 0.931 . S
Co148 N153 2.057 . S
Co148 O165 2.021 . S
Co148 O168 2.062 . S
Co148 O172 2.117 . S
Co148 O173 2.020 . S
C149 O169 1.259 . S
C149 O172 1.258 . S
Co150 N159 2.057 . S
Co150 O166 2.117 . S
Co150 O167 2.020 . S
Co150 O169 2.021 . S
Co150 O174 2.062 . S
C151 N153 1.316 . S
C151 N154 1.347 . S
C151 H156 0.931 . S
C152 N153 1.375 . S
C152 C155 1.350 . S
C152 H157 0.930 . S
N153 Co148 2.057 . S
N153 C151 1.316 . S
N153 C152 1.375 . S
N154 C151 1.347 . S
N154 C155 1.373 . S
C155 C152 1.350 . S
C155 N154 1.373 . S
C155 H176 0.931 . S
H156 C151 0.931 . S
H157 C152 0.930 . S
C158 O165 1.259 . S
C158 O166 1.258 . S
N159 Co150 2.057 . S
N159 C160 1.316 . S
N159 C161 1.375 . S
C160 N159 1.316 . S
C160 N162 1.347 . S
C160 H171 0.931 . S
C161 N159 1.375 . S
C161 C163 1.350 . S
C161 H170 0.930 . S
N162 C160 1.347 . S
N162 C163 1.373 . S
C163 C161 1.350 . S
C163 N162 1.373 . S
C163 H177 0.931 . S
C164 O167 1.256 . S
C164 O168 1.255 . S
O165 Co148 2.021 . S
O165 C158 1.259 . S
O166 Co150 2.117 . S
O166 C158 1.258 . S
O167 Co150 2.020 . S
O167 C164 1.256 . S
O168 Co148 2.062 . S
O168 C164 1.255 . S
O169 C149 1.259 . S
O169 Co150 2.021 . S
H170 C161 0.930 . S
H171 C160 0.931 . S
O172 Co148 2.117 . S
O172 C149 1.258 . S
O173 Co148 2.020 . S
O173 C175 1.256 . S
O174 Co150 2.062 . S
O174 C175 1.255 . S
C175 O173 1.256 . S
C175 O174 1.255 . S
H176 C155 0.931 . S
H177 C163 0.931 . S
Co178 N183 2.057 . S
Co178 O195 2.021 1_556 S
Co178 O198 2.062 1_556 S
Co178 O202 2.117 1_455 S
Co178 O203 2.020 . S
C179 O199 1.259 . S
C179 O202 1.258 1_554 S
Co180 N189 2.057 . S
Co180 O196 2.117 . S
Co180 O197 2.020 . S
Co180 O199 2.021 1_455 S
Co180 O204 2.062 . S
C181 N183 1.316 . S
C181 N184 1.347 . S
C181 H186 0.931 . S
C182 N183 1.375 . S
C182 C185 1.350 . S
C182 H187 0.930 1_455 S
N183 Co178 2.057 . S
N183 C181 1.316 . S
N183 C182 1.375 . S
N184 C181 1.347 . S
N184 C185 1.373 . S
C185 C182 1.350 . S
C185 N184 1.373 . S
C185 H206 0.931 . S
H186 C181 0.931 . S
H187 C182 0.930 1_655 S
C188 O195 1.259 . S
C188 O196 1.258 . S
N189 Co180 2.057 . S
N189 C190 1.316 1_455 S
N189 C191 1.375 . S
C190 N189 1.316 1_655 S
C190 N192 1.347 . S
C190 H201 0.931 . S
C191 N189 1.375 . S
C191 C193 1.350 . S
C191 H200 0.930 . S
N192 C190 1.347 . S
N192 C193 1.373 1_655 S
C193 C191 1.350 . S
C193 N192 1.373 1_455 S
C193 H207 0.931 . S
C194 O197 1.256 . S
C194 O198 1.255 . S
O195 Co178 2.021 1_554 S
O195 C188 1.259 . S
O196 Co180 2.117 . S
O196 C188 1.258 . S
O197 Co180 2.020 . S
O197 C194 1.256 . S
O198 Co178 2.062 1_554 S
O198 C194 1.255 . S
O199 C179 1.259 . S
O199 Co180 2.021 1_655 S
H200 C191 0.930 . S
H201 C190 0.931 . S
O202 Co178 2.117 1_655 S
O202 C179 1.258 1_556 S
O203 Co178 2.020 . S
O203 C205 1.256 1_556 S
O204 Co180 2.062 . S
O204 C205 1.255 . S
C205 O203 1.256 1_554 S
C205 O204 1.255 . S
H206 C185 0.931 . S
H207 C193 0.931 . S
H208 C216 0.929 . S
H209 C218 0.930 . S
H210 C220 0.930 . S
H211 C223 0.929 . S
H212 C226 0.930 . S
H213 C228 0.960 . S
H214 C228 0.960 . S
H215 C228 0.960 . S
C216 H208 0.929 . S
C216 C217 1.377 . S
C216 C218 1.384 . S
C217 C216 1.377 . S
C217 C223 1.390 . S
C218 H209 0.930 . S
C218 C216 1.384 . S
C218 C219 1.372 . S
C219 C218 1.372 . S
C219 C220 1.400 . S
C219 C224 1.490 . S
C220 H210 0.930 . S
C220 C219 1.400 . S
C220 C223 1.386 . S
H221 C237 0.930 . S
H222 C238 0.931 . S
C223 H211 0.929 . S
C223 C217 1.390 . S
C223 C220 1.386 . S
C224 C219 1.490 . S
C224 C226 1.395 . S
C224 C227 1.403 . S
H225 C231 0.930 . S
C226 H212 0.930 . S
C226 C224 1.395 . S
C226 C229 1.403 . S
C227 C224 1.403 . S
C227 C228 1.524 . S
C227 C231 1.400 . S
C228 H213 0.960 . S
C228 H214 0.960 . S
C228 H215 0.960 . S
C228 C227 1.524 . S
C229 C226 1.403 . S
C229 C230 1.392 . S
C229 C233 1.495 . S
C230 C229 1.392 . S
C230 C231 1.385 . S
C230 C232 1.478 . S
C231 H225 0.930 . S
C231 C227 1.400 . S
C231 C230 1.385 . S
C232 C230 1.478 . S
C232 C234 1.381 . S
C232 C238 1.383 . S
C233 C229 1.495 . S
C233 H239 0.959 . S
C233 H240 0.961 . S
C233 H241 0.960 . S
C234 C232 1.381 . S
C234 C235 1.394 . S
C234 H242 0.930 . S
C235 C234 1.394 . S
C235 C236 1.383 . S
C235 H243 0.929 . S
C236 C235 1.383 . S
C236 C237 1.377 . S
C237 H221 0.930 . S
C237 C236 1.377 . S
C237 C238 1.379 . S
C238 H222 0.931 . S
C238 C232 1.383 . S
C238 C237 1.379 . S
H239 C233 0.959 . S
H240 C233 0.961 . S
H241 C233 0.960 . S
H242 C234 0.930 . S
H243 C235 0.929 . S
H244 C252 0.929 . S
H245 C254 0.930 . S
H246 C256 0.930 . S
H247 C259 0.929 . S
H248 C262 0.930 . S
H249 C264 0.960 . S
H250 C264 0.960 . S
H251 C264 0.960 . S
C252 H244 0.929 . S
C252 C253 1.377 . S
C252 C254 1.384 . S
C253 C252 1.377 . S
C253 C259 1.390 . S
C254 H245 0.930 . S
C254 C252 1.384 . S
C254 C255 1.372 . S
C255 C254 1.372 . S
C255 C256 1.400 . S
C255 C260 1.490 . S
C256 H246 0.930 . S
C256 C255 1.400 . S
C256 C259 1.386 . S
H257 C273 0.930 . S
H258 C274 0.931 . S
C259 H247 0.929 . S
C259 C253 1.390 . S
C259 C256 1.386 . S
C260 C255 1.490 . S
C260 C262 1.395 . S
C260 C263 1.403 . S
H261 C267 0.930 . S
C262 H248 0.930 . S
C262 C260 1.395 . S
C262 C265 1.403 . S
C263 C260 1.403 . S
C263 C264 1.524 . S
C263 C267 1.400 . S
C264 H249 0.960 . S
C264 H250 0.960 . S
C264 H251 0.960 . S
C264 C263 1.524 . S
C265 C262 1.403 . S
C265 C266 1.392 . S
C265 C269 1.495 . S
C266 C265 1.392 . S
C266 C267 1.385 . S
C266 C268 1.478 . S
C267 H261 0.930 . S
C267 C263 1.400 . S
C267 C266 1.385 . S
C268 C266 1.478 . S
C268 C270 1.381 . S
C268 C274 1.383 . S
C269 C265 1.495 . S
C269 H275 0.959 . S
C269 H276 0.961 . S
C269 H277 0.960 1_565 S
C270 C268 1.381 . S
C270 C271 1.394 1_565 S
C270 H278 0.930 1_565 S
C271 C270 1.394 1_545 S
C271 C272 1.383 1_545 S
C271 H279 0.929 . S
C272 C271 1.383 1_565 S
C272 C273 1.377 . S
C273 H257 0.930 . S
C273 C272 1.377 . S
C273 C274 1.379 . S
C274 H258 0.931 . S
C274 C268 1.383 . S
C274 C273 1.379 . S
H275 C269 0.959 . S
H276 C269 0.961 . S
H277 C269 0.960 1_545 S
H278 C270 0.930 1_545 S
H279 C271 0.929 . S
H280 C288 0.929 . S
H281 C290 0.930 . S
H282 C292 0.930 . S
H283 C295 0.929 . S
H284 C298 0.930 . S
H285 C300 0.960 . S
H286 C300 0.960 . S
H287 C300 0.960 . S
C288 H280 0.929 . S
C288 C289 1.377 . S
C288 C290 1.384 . S
C289 C288 1.377 . S
C289 C295 1.390 . S
C290 H281 0.930 . S
C290 C288 1.384 . S
C290 C291 1.372 . S
C291 C290 1.372 . S
C291 C292 1.400 . S
C291 C296 1.490 . S
C292 H282 0.930 . S
C292 C291 1.400 . S
C292 C295 1.386 . S
H293 C309 0.930 . S
H294 C310 0.931 . S
C295 H283 0.929 . S
C295 C289 1.390 . S
C295 C292 1.386 . S
C296 C291 1.490 . S
C296 C298 1.395 . S
C296 C299 1.403 . S
H297 C303 0.930 . S
C298 H284 0.930 . S
C298 C296 1.395 . S
C298 C301 1.403 . S
C299 C296 1.403 . S
C299 C300 1.524 . S
C299 C303 1.400 . S
C300 H285 0.960 . S
C300 H286 0.960 . S
C300 H287 0.960 . S
C300 C299 1.524 . S
C301 C298 1.403 . S
C301 C302 1.392 . S
C301 C305 1.495 . S
C302 C301 1.392 . S
C302 C303 1.385 . S
C302 C304 1.478 . S
C303 H297 0.930 . S
C303 C299 1.400 . S
C303 C302 1.385 . S
C304 C302 1.478 . S
C304 C306 1.381 . S
C304 C310 1.383 . S
C305 C301 1.495 . S
C305 H311 0.959 . S
C305 H312 0.961 . S
C305 H313 0.960 . S
C306 C304 1.381 . S
C306 C307 1.394 . S
C306 H314 0.930 . S
C307 C306 1.394 . S
C307 C308 1.383 . S
C307 H315 0.929 . S
C308 C307 1.383 . S
C308 C309 1.377 . S
C309 H293 0.930 . S
C309 C308 1.377 . S
C309 C310 1.379 . S
C310 H294 0.931 . S
C310 C304 1.383 . S
C310 C309 1.379 . S
H311 C305 0.959 . S
H312 C305 0.961 . S
H313 C305 0.960 . S
H314 C306 0.930 . S
H315 C307 0.929 . S
H316 C324 0.929 . S
H317 C326 0.930 . S
H318 C328 0.930 . S
H319 C331 0.929 . S
H320 C334 0.930 . S
H321 C336 0.960 . S
H322 C336 0.960 . S
H323 C336 0.960 . S
C324 H316 0.929 . S
C324 C325 1.377 . S
C324 C326 1.384 . S
C325 C324 1.377 . S
C325 C331 1.390 . S
C326 H317 0.930 . S
C326 C324 1.384 . S
C326 C327 1.372 . S
C327 C326 1.372 . S
C327 C328 1.400 . S
C327 C332 1.490 . S
C328 H318 0.930 . S
C328 C327 1.400 . S
C328 C331 1.386 . S
H329 C345 0.930 . S
H330 C346 0.931 . S
C331 H319 0.929 . S
C331 C325 1.390 . S
C331 C328 1.386 . S
C332 C327 1.490 . S
C332 C334 1.395 . S
C332 C335 1.403 . S
H333 C339 0.930 1_455 S
C334 H320 0.930 . S
C334 C332 1.395 . S
C334 C337 1.403 . S
C335 C332 1.403 . S
C335 C336 1.524 1_655 S
C335 C339 1.400 . S
C336 H321 0.960 . S
C336 H322 0.960 . S
C336 H323 0.960 . S
C336 C335 1.524 1_455 S
C337 C334 1.403 . S
C337 C338 1.392 . S
C337 C341 1.495 . S
C338 C337 1.392 . S
C338 C339 1.385 . S
C338 C340 1.478 . S
C339 H333 0.930 1_655 S
C339 C335 1.400 . S
C339 C338 1.385 . S
C340 C338 1.478 . S
C340 C342 1.381 . S
C340 C346 1.383 . S
C341 C337 1.495 . S
C341 H347 0.959 . S
C341 H348 0.961 . S
C341 H349 0.960 . S
C342 C340 1.381 . S
C342 C343 1.394 . S
C342 H350 0.930 . S
C343 C342 1.394 . S
C343 C344 1.383 . S
C343 H351 0.929 . S
C344 C343 1.383 . S
C344 C345 1.377 . S
C345 H329 0.930 . S
C345 C344 1.377 . S
C345 C346 1.379 . S
C346 H330 0.931 . S
C346 C340 1.383 . S
C346 C345 1.379 . S
H347 C341 0.959 . S
H348 C341 0.961 . S
H349 C341 0.960 . S
H350 C342 0.930 . S
H351 C343 0.929 . S
H352 C360 0.929 . S
H353 C362 0.930 . S
H354 C364 0.930 . S
H355 C367 0.929 . S
H356 C370 0.930 . S
H357 C372 0.960 . S
H358 C372 0.960 . S
H359 C372 0.960 . S
C360 H352 0.929 . S
C360 C361 1.377 . S
C360 C362 1.384 . S
C361 C360 1.377 . S
C361 C367 1.390 . S
C362 H353 0.930 . S
C362 C360 1.384 . S
C362 C363 1.372 . S
C363 C362 1.372 . S
C363 C364 1.400 . S
C363 C368 1.490 . S
C364 H354 0.930 . S
C364 C363 1.400 . S
C364 C367 1.386 . S
H365 C381 0.930 . S
H366 C382 0.931 . S
C367 H355 0.929 . S
C367 C361 1.390 . S
C367 C364 1.386 . S
C368 C363 1.490 . S
C368 C370 1.395 . S
C368 C371 1.403 . S
H369 C375 0.930 . S
C370 H356 0.930 . S
C370 C368 1.395 . S
C370 C373 1.403 . S
C371 C368 1.403 . S
C371 C372 1.524 . S
C371 C375 1.400 . S
C372 H357 0.960 . S
C372 H358 0.960 . S
C372 H359 0.960 . S
C372 C371 1.524 . S
C373 C370 1.403 . S
C373 C374 1.392 . S
C373 C377 1.495 . S
C374 C373 1.392 . S
C374 C375 1.385 . S
C374 C376 1.478 . S
C375 H369 0.930 . S
C375 C371 1.400 . S
C375 C374 1.385 . S
C376 C374 1.478 . S
C376 C378 1.381 . S
C376 C382 1.383 . S
C377 C373 1.495 . S
C377 H383 0.959 . S
C377 H384 0.961 . S
C377 H385 0.960 . S
C378 C376 1.381 . S
C378 C379 1.394 . S
C378 H386 0.930 . S
C379 C378 1.394 . S
C379 C380 1.383 . S
C379 H387 0.929 . S
C380 C379 1.383 . S
C380 C381 1.377 . S
C381 H365 0.930 . S
C381 C380 1.377 . S
C381 C382 1.379 . S
C382 H366 0.931 . S
C382 C376 1.383 . S
C382 C381 1.379 . S
H383 C377 0.959 . S
H384 C377 0.961 . S
H385 C377 0.960 . S
H386 C378 0.930 . S
H387 C379 0.929 . S
H388 C396 0.929 . S
H389 C398 0.930 . S
H390 C400 0.930 . S
H391 C403 0.929 . S
H392 C406 0.930 . S
H393 C408 0.960 . S
H394 C408 0.960 . S
H395 C408 0.960 . S
C396 H388 0.929 . S
C396 C397 1.377 . S
C396 C398 1.384 . S
C397 C396 1.377 . S
C397 C403 1.390 . S
C398 H389 0.930 . S
C398 C396 1.384 . S
C398 C399 1.372 . S
C399 C398 1.372 . S
C399 C400 1.400 . S
C399 C404 1.490 . S
C400 H390 0.930 . S
C400 C399 1.400 . S
C400 C403 1.386 . S
H401 C417 0.930 . S
H402 C418 0.931 . S
C403 H391 0.929 . S
C403 C397 1.390 . S
C403 C400 1.386 . S
C404 C399 1.490 . S
C404 C406 1.395 . S
C404 C407 1.403 . S
H405 C411 0.930 . S
C406 H392 0.930 . S
C406 C404 1.395 . S
C406 C409 1.403 . S
C407 C404 1.403 . S
C407 C408 1.524 . S
C407 C411 1.400 . S
C408 H393 0.960 . S
C408 H394 0.960 . S
C408 H395 0.960 . S
C408 C407 1.524 . S
C409 C406 1.403 . S
C409 C410 1.392 . S
C409 C413 1.495 . S
C410 C409 1.392 . S
C410 C411 1.385 . S
C410 C412 1.478 . S
C411 H405 0.930 . S
C411 C407 1.400 . S
C411 C410 1.385 . S
C412 C410 1.478 . S
C412 C414 1.381 . S
C412 C418 1.383 . S
C413 C409 1.495 . S
C413 H419 0.959 . S
C413 H420 0.961 . S
C413 H421 0.960 . S
C414 C412 1.381 . S
C414 C415 1.394 . S
C414 H422 0.930 . S
C415 C414 1.394 . S
C415 C416 1.383 . S
C415 H423 0.929 . S
C416 C415 1.383 . S
C416 C417 1.377 . S
C417 H401 0.930 . S
C417 C416 1.377 . S
C417 C418 1.379 . S
C418 H402 0.931 . S
C418 C412 1.383 . S
C418 C417 1.379 . S
H419 C413 0.959 . S
H420 C413 0.961 . S
H421 C413 0.960 . S
H422 C414 0.930 . S
H423 C415 0.929 . S
H424 C432 0.929 . S
H425 C434 0.930 . S
H426 C436 0.930 . S
H427 C439 0.929 . S
H428 C442 0.930 . S
H429 C444 0.960 . S
H430 C444 0.960 . S
H431 C444 0.960 1_556 S
C432 H424 0.929 . S
C432 C433 1.377 . S
C432 C434 1.384 . S
C433 C432 1.377 . S
C433 C439 1.390 . S
C434 H425 0.930 . S
C434 C432 1.384 . S
C434 C435 1.372 . S
C435 C434 1.372 . S
C435 C436 1.400 . S
C435 C440 1.490 . S
C436 H426 0.930 . S
C436 C435 1.400 . S
C436 C439 1.386 . S
H437 C453 0.930 . S
H438 C454 0.931 . S
C439 H427 0.929 . S
C439 C433 1.390 . S
C439 C436 1.386 . S
C440 C435 1.490 . S
C440 C442 1.395 . S
C440 C443 1.403 . S
H441 C447 0.930 1_554 S
C442 H428 0.930 . S
C442 C440 1.395 . S
C442 C445 1.403 . S
C443 C440 1.403 . S
C443 C444 1.524 1_556 S
C443 C447 1.400 . S
C444 H429 0.960 . S
C444 H430 0.960 . S
C444 H431 0.960 1_554 S
C444 C443 1.524 1_554 S
C445 C442 1.403 . S
C445 C446 1.392 . S
C445 C449 1.495 . S
C446 C445 1.392 . S
C446 C447 1.385 . S
C446 C448 1.478 . S
C447 H441 0.930 1_556 S
C447 C443 1.400 . S
C447 C446 1.385 . S
C448 C446 1.478 . S
C448 C450 1.381 . S
C448 C454 1.383 . S
C449 C445 1.495 . S
C449 H455 0.959 . S
C449 H456 0.961 . S
C449 H457 0.960 . S
C450 C448 1.381 . S
C450 C451 1.394 . S
C450 H458 0.930 . S
C451 C450 1.394 . S
C451 C452 1.383 . S
C451 H459 0.929 1_556 S
C452 C451 1.383 . S
C452 C453 1.377 . S
C453 H437 0.930 . S
C453 C452 1.377 . S
C453 C454 1.379 . S
C454 H438 0.931 . S
C454 C448 1.383 . S
C454 C453 1.379 . S
H455 C449 0.959 . S
H456 C449 0.961 . S
H457 C449 0.960 . S
H458 C450 0.930 . S
H459 C451 0.929 1_554 S
H460 C468 0.929 . S
H461 C470 0.930 . S
H462 C472 0.930 . S
H463 C475 0.929 . S
H464 C478 0.930 . S
H465 C480 0.960 . S
H466 C480 0.960 . S
H467 C480 0.960 . S
C468 H460 0.929 . S
C468 C469 1.377 . S
C468 C470 1.384 . S
C469 C468 1.377 . S
C469 C475 1.390 . S
C470 H461 0.930 . S
C470 C468 1.384 . S
C470 C471 1.372 . S
C471 C470 1.372 . S
C471 C472 1.400 . S
C471 C476 1.490 . S
C472 H462 0.930 . S
C472 C471 1.400 . S
C472 C475 1.386 . S
H473 C489 0.930 . S
H474 C490 0.931 . S
C475 H463 0.929 . S
C475 C469 1.390 . S
C475 C472 1.386 . S
C476 C471 1.490 . S
C476 C478 1.395 . S
C476 C479 1.403 . S
H477 C483 0.930 . S
C478 H464 0.930 . S
C478 C476 1.395 . S
C478 C481 1.403 . S
C479 C476 1.403 . S
C479 C480 1.524 . S
C479 C483 1.400 . S
C480 H465 0.960 . S
C480 H466 0.960 . S
C480 H467 0.960 . S
C480 C479 1.524 . S
C481 C478 1.403 . S
C481 C482 1.392 . S
C481 C485 1.495 . S
C482 C481 1.392 . S
C482 C483 1.385 . S
C482 C484 1.478 . S
C483 H477 0.930 . S
C483 C479 1.400 . S
C483 C482 1.385 . S
C484 C482 1.478 . S
C484 C486 1.381 . S
C484 C490 1.383 . S
C485 C481 1.495 . S
C485 H491 0.959 . S
C485 H492 0.961 . S
C485 H493 0.960 . S
C486 C484 1.381 . S
C486 C487 1.394 . S
C486 H494 0.930 . S
C487 C486 1.394 . S
C487 C488 1.383 . S
C487 H495 0.929 . S
C488 C487 1.383 . S
C488 C489 1.377 . S
C489 H473 0.930 . S
C489 C488 1.377 . S
C489 C490 1.379 . S
C490 H474 0.931 . S
C490 C484 1.383 . S
C490 C489 1.379 . S
H491 C485 0.959 . S
H492 C485 0.961 . S
H493 C485 0.960 . S
H494 C486 0.930 . S
H495 C487 0.929 . S
H496 C504 0.929 . S
H497 C506 0.930 . S
H498 C508 0.930 . S
H499 C511 0.929 . S
H500 C514 0.930 . S
H501 C516 0.960 . S
H502 C516 0.960 . S
H503 C516 0.960 . S
C504 H496 0.929 . S
C504 C505 1.377 . S
C504 C506 1.384 . S
C505 C504 1.377 . S
C505 C511 1.390 . S
C506 H497 0.930 . S
C506 C504 1.384 . S
C506 C507 1.372 . S
C507 C506 1.372 . S
C507 C508 1.400 . S
C507 C512 1.490 . S
C508 H498 0.930 . S
C508 C507 1.400 . S
C508 C511 1.386 . S
H509 C525 0.930 . S
H510 C526 0.931 . S
C511 H499 0.929 . S
C511 C505 1.390 . S
C511 C508 1.386 . S
C512 C507 1.490 . S
C512 C514 1.395 . S
C512 C515 1.403 . S
H513 C519 0.930 . S
C514 H500 0.930 . S
C514 C512 1.395 . S
C514 C517 1.403 . S
C515 C512 1.403 . S
C515 C516 1.524 . S
C515 C519 1.400 . S
C516 H501 0.960 . S
C516 H502 0.960 . S
C516 H503 0.960 . S
C516 C515 1.524 . S
C517 C514 1.403 . S
C517 C518 1.392 . S
C517 C521 1.495 . S
C518 C517 1.392 . S
C518 C519 1.385 . S
C518 C520 1.478 . S
C519 H513 0.930 . S
C519 C515 1.400 . S
C519 C518 1.385 . S
C520 C518 1.478 . S
C520 C522 1.381 . S
C520 C526 1.383 . S
C521 C517 1.495 . S
C521 H527 0.945 1_455 S
C521 H528 0.961 . S
C521 H529 0.969 . S
C522 C520 1.381 . S
C522 C523 1.394 . S
C522 H530 0.930 . S
C523 C522 1.394 . S
C523 C524 1.383 . S
C523 H531 0.929 . S
C524 C523 1.383 . S
C524 C525 1.377 . S
C525 H509 0.930 . S
C525 C524 1.377 . S
C525 C526 1.379 . S
C526 H510 0.931 . S
C526 C520 1.383 . S
C526 C525 1.379 . S
H527 C521 0.945 1_655 S
H528 C521 0.961 . S
H529 C521 0.969 . S
H530 C522 0.930 . S
H531 C523 0.929 . S
H532 C540 0.929 . S
H533 C542 0.930 . S
H534 C544 0.930 1_554 S
H535 C547 0.954 . S
H536 C550 0.930 . S
H537 C552 0.960 . S
H538 C552 0.960 1_556 S
H539 C552 0.960 . S
C540 H532 0.929 . S
C540 C541 1.377 . S
C540 C542 1.384 . S
C541 C540 1.377 . S
C541 C547 1.390 . S
C542 H533 0.930 . S
C542 C540 1.384 . S
C542 C543 1.372 . S
C543 C542 1.372 . S
C543 C544 1.400 . S
C543 C548 1.490 . S
C544 H534 0.930 1_556 S
C544 C543 1.400 . S
C544 C547 1.386 . S
H545 C561 0.930 . S
H546 C562 0.931 . S
C547 H535 0.954 . S
C547 C541 1.390 . S
C547 C544 1.386 . S
C548 C543 1.490 . S
C548 C550 1.395 . S
C548 C551 1.403 . S
H549 C555 0.930 . S
C550 H536 0.930 . S
C550 C548 1.395 . S
C550 C553 1.403 . S
C551 C548 1.403 . S
C551 C552 1.524 1_556 S
C551 C555 1.400 1_556 S
C552 H537 0.960 . S
C552 H538 0.960 1_554 S
C552 H539 0.960 . S
C552 C551 1.524 1_554 S
C553 C550 1.403 . S
C553 C554 1.392 . S
C553 C557 1.495 . S
C554 C553 1.392 . S
C554 C555 1.385 1_556 S
C554 C556 1.478 1_556 S
C555 H549 0.930 . S
C555 C551 1.400 1_554 S
C555 C554 1.385 1_554 S
C556 C554 1.478 1_554 S
C556 C558 1.381 1_554 S
C556 C562 1.383 . S
C557 C553 1.495 . S
C557 H563 0.959 . S
C557 H564 0.961 . S
C557 H565 0.960 . S
C558 C556 1.381 1_556 S
C558 C559 1.394 . S
C558 H566 0.930 . S
C559 C558 1.394 . S
C559 C560 1.383 1_556 S
C559 H567 0.929 . S
C560 C559 1.383 1_554 S
C560 C561 1.377 . S
C561 H545 0.930 . S
C561 C560 1.377 . S
C561 C562 1.379 . S
C562 H546 0.931 . S
C562 C556 1.383 . S
C562 C561 1.379 . S
H563 C557 0.959 . S
H564 C557 0.961 . S
H565 C557 0.960 . S
H566 C558 0.930 . S
H567 C559 0.929 . S
H568 C576 0.929 . S
H569 C578 0.930 . S
H570 C580 0.930 . S
H571 C583 0.929 . S
H572 C586 0.930 . S
H573 C588 0.960 . S
H574 C588 0.960 . S
H575 C588 0.960 . S
C576 H568 0.929 . S
C576 C577 1.377 . S
C576 C578 1.384 . S
C577 C576 1.377 . S
C577 C583 1.390 . S
C578 H569 0.930 . S
C578 C576 1.384 . S
C578 C579 1.372 . S
C579 C578 1.372 . S
C579 C580 1.400 . S
C579 C584 1.490 . S
C580 H570 0.930 . S
C580 C579 1.400 . S
C580 C583 1.386 . S
H581 C597 0.930 . S
H582 C598 0.931 . S
C583 H571 0.929 . S
C583 C577 1.390 . S
C583 C580 1.386 . S
C584 C579 1.490 . S
C584 C586 1.395 . S
C584 C587 1.403 . S
H585 C591 0.930 . S
C586 H572 0.930 . S
C586 C584 1.395 . S
C586 C589 1.403 . S
C587 C584 1.403 . S
C587 C588 1.524 . S
C587 C591 1.400 . S
C588 H573 0.960 . S
C588 H574 0.960 . S
C588 H575 0.960 . S
C588 C587 1.524 . S
C589 C586 1.403 . S
C589 C590 1.392 . S
C589 C593 1.495 1_655 S
C590 C589 1.392 . S
C590 C591 1.385 . S
C590 C592 1.478 . S
C591 H585 0.930 . S
C591 C587 1.400 . S
C591 C590 1.385 . S
C592 C590 1.478 . S
C592 C594 1.381 . S
C592 C598 1.383 . S
C593 C589 1.495 1_455 S
C593 H599 0.959 . S
C593 H600 0.961 . S
C593 H601 0.960 . S
C594 C592 1.381 . S
C594 C595 1.394 . S
C594 H602 0.930 . S
C595 C594 1.394 . S
C595 C596 1.383 . S
C595 H603 0.929 . S
C596 C595 1.383 . S
C596 C597 1.377 . S
C597 H581 0.930 . S
C597 C596 1.377 . S
C597 C598 1.379 . S
C598 H582 0.931 . S
C598 C592 1.383 . S
C598 C597 1.379 . S
H599 C593 0.959 . S
H600 C593 0.961 . S
H601 C593 0.960 . S
H602 C594 0.930 . S
H603 C595 0.929 . S
H604 C612 0.929 . S
H605 C614 0.930 . S
H606 C616 0.930 . S
H607 C619 0.929 . S
H608 C622 0.930 . S
H609 C624 0.960 . S
H610 C624 0.960 . S
H611 C624 0.960 . S
C612 H604 0.929 . S
C612 C613 1.377 . S
C612 C614 1.384 . S
C613 C612 1.377 . S
C613 C619 1.390 . S
C614 H605 0.930 . S
C614 C612 1.384 . S
C614 C615 1.372 . S
C615 C614 1.372 . S
C615 C616 1.400 . S
C615 C620 1.490 . S
C616 H606 0.930 . S
C616 C615 1.400 . S
C616 C619 1.386 . S
H617 C633 0.930 . S
H618 C634 0.931 . S
C619 H607 0.929 . S
C619 C613 1.390 . S
C619 C616 1.386 . S
C620 C615 1.490 . S
C620 C622 1.395 . S
C620 C623 1.403 . S
H621 C627 0.930 . S
C622 H608 0.930 . S
C622 C620 1.395 . S
C622 C625 1.403 . S
C623 C620 1.403 . S
C623 C624 1.524 . S
C623 C627 1.400 . S
C624 H609 0.960 . S
C624 H610 0.960 . S
C624 H611 0.960 . S
C624 C623 1.524 . S
C625 C622 1.403 . S
C625 C626 1.392 . S
C625 C629 1.495 . S
C626 C625 1.392 . S
C626 C627 1.385 . S
C626 C628 1.478 . S
C627 H621 0.930 . S
C627 C623 1.400 . S
C627 C626 1.385 . S
C628 C626 1.478 . S
C628 C630 1.381 . S
C628 C634 1.383 . S
C629 C625 1.495 . S
C629 H635 0.959 . S
C629 H636 0.961 . S
C629 H637 0.960 . S
C630 C628 1.381 . S
C630 C631 1.394 . S
C630 H638 0.930 . S
C631 C630 1.394 . S
C631 C632 1.383 . S
C631 H639 0.929 . S
C632 C631 1.383 . S
C632 C633 1.377 . S
C633 H617 0.930 . S
C633 C632 1.377 . S
C633 C634 1.379 . S
C634 H618 0.931 . S
C634 C628 1.383 . S
C634 C633 1.379 . S
H635 C629 0.959 . S
H636 C629 0.961 . S
H637 C629 0.960 . S
H638 C630 0.930 . S
H639 C631 0.929 . S
H640 C648 0.929 . S
H641 C650 0.930 . S
H642 C652 0.930 . S
H643 C655 0.929 . S
H644 C658 0.930 . S
H645 C660 0.960 . S
H646 C660 0.960 . S
H647 C660 0.960 . S
C648 H640 0.929 . S
C648 C649 1.377 . S
C648 C650 1.384 . S
C649 C648 1.377 . S
C649 C655 1.390 . S
C650 H641 0.930 . S
C650 C648 1.384 . S
C650 C651 1.372 . S
C651 C650 1.372 . S
C651 C652 1.400 . S
C651 C656 1.490 . S
C652 H642 0.930 . S
C652 C651 1.400 . S
C652 C655 1.386 . S
H653 C669 0.930 1_455 S
H654 C670 0.931 . S
C655 H643 0.929 . S
C655 C649 1.390 . S
C655 C652 1.386 . S
C656 C651 1.490 . S
C656 C658 1.395 . S
C656 C659 1.403 . S
H657 C663 0.930 . S
C658 H644 0.930 . S
C658 C656 1.395 . S
C658 C661 1.403 . S
C659 C656 1.403 . S
C659 C660 1.524 . S
C659 C663 1.400 . S
C660 H645 0.960 . S
C660 H646 0.960 . S
C660 H647 0.960 . S
C660 C659 1.524 . S
C661 C658 1.403 . S
C661 C662 1.392 . S
C661 C665 1.495 1_565 S
C662 C661 1.392 . S
C662 C663 1.385 . S
C662 C664 1.478 . S
C663 H657 0.930 . S
C663 C659 1.400 . S
C663 C662 1.385 . S
C664 C662 1.478 . S
C664 C666 1.381 . S
C664 C670 1.383 . S
C665 C661 1.495 1_545 S
C665 H671 0.959 . S
C665 H672 0.961 . S
C665 H673 0.960 . S
C666 C664 1.381 . S
C666 C667 1.394 . S
C666 H674 0.930 1_565 S
C667 C666 1.394 . S
C667 C668 1.383 . S
C667 H675 0.929 1_565 S
C668 C667 1.383 . S
C668 C669 1.377 . S
C669 H653 0.930 1_655 S
C669 C668 1.377 . S
C669 C670 1.379 . S
C670 H654 0.931 . S
C670 C664 1.383 . S
C670 C669 1.379 . S
H671 C665 0.959 . S
H672 C665 0.961 . S
H673 C665 0.960 . S
H674 C666 0.930 1_545 S
H675 C667 0.929 1_545 S
H676 C684 0.929 . S
H677 C686 0.930 . S
H678 C688 0.930 . S
H679 C691 0.929 . S
H680 C694 0.930 . S
H681 C696 0.960 . S
H682 C696 0.960 . S
H683 C696 0.960 . S
C684 H676 0.929 . S
C684 C685 1.377 . S
C684 C686 1.384 . S
C685 C684 1.377 . S
C685 C691 1.390 . S
C686 H677 0.930 . S
C686 C684 1.384 . S
C686 C687 1.372 . S
C687 C686 1.372 . S
C687 C688 1.400 . S
C687 C692 1.490 . S
C688 H678 0.930 . S
C688 C687 1.400 . S
C688 C691 1.386 . S
H689 C705 0.930 . S
H690 C706 0.931 . S
C691 H679 0.929 . S
C691 C685 1.390 . S
C691 C688 1.386 . S
C692 C687 1.490 . S
C692 C694 1.395 . S
C692 C695 1.403 . S
H693 C699 0.930 . S
C694 H680 0.930 . S
C694 C692 1.395 . S
C694 C697 1.403 . S
C695 C692 1.403 . S
C695 C696 1.524 . S
C695 C699 1.400 . S
C696 H681 0.960 . S
C696 H682 0.960 . S
C696 H683 0.960 . S
C696 C695 1.524 . S
C697 C694 1.403 . S
C697 C698 1.392 . S
C697 C701 1.495 . S
C698 C697 1.392 . S
C698 C699 1.385 . S
C698 C700 1.478 . S
C699 H693 0.930 . S
C699 C695 1.400 . S
C699 C698 1.385 . S
C700 C698 1.478 . S
C700 C702 1.381 . S
C700 C706 1.383 . S
C701 C697 1.495 . S
C701 H707 0.959 . S
C701 H708 0.961 . S
C701 H709 0.960 . S
C702 C700 1.381 . S
C702 C703 1.394 . S
C702 H710 0.930 . S
C703 C702 1.394 . S
C703 C704 1.383 . S
C703 H711 0.929 . S
C704 C703 1.383 . S
C704 C705 1.377 . S
C705 H689 0.930 . S
C705 C704 1.377 . S
C705 C706 1.379 . S
C706 H690 0.931 . S
C706 C700 1.383 . S
C706 C705 1.379 . S
H707 C701 0.959 . S
H708 C701 0.961 . S
H709 C701 0.960 . S
H710 C702 0.930 . S
H711 C703 0.929 . S
H712 C720 0.929 . S
H713 C722 0.930 . S
H714 C724 0.930 . S
H715 C727 0.929 . S
H716 C730 0.930 . S
H717 C732 0.960 . S
H718 C732 0.960 . S
H719 C732 0.960 . S
C720 H712 0.929 . S
C720 C721 1.377 . S
C720 C722 1.384 . S
C721 C720 1.377 . S
C721 C727 1.390 . S
C722 H713 0.930 . S
C722 C720 1.384 . S
C722 C723 1.372 . S
C723 C722 1.372 . S
C723 C724 1.400 . S
C723 C728 1.490 . S
C724 H714 0.930 . S
C724 C723 1.400 . S
C724 C727 1.386 . S
H725 C741 0.930 . S
H726 C742 0.931 . S
C727 H715 0.929 . S
C727 C721 1.390 . S
C727 C724 1.386 . S
C728 C723 1.490 . S
C728 C730 1.395 . S
C728 C731 1.403 . S
H729 C735 0.930 . S
C730 H716 0.930 . S
C730 C728 1.395 . S
C730 C733 1.403 . S
C731 C728 1.403 . S
C731 C732 1.524 . S
C731 C735 1.400 . S
C732 H717 0.960 . S
C732 H718 0.960 . S
C732 H719 0.960 . S
C732 C731 1.524 . S
C733 C730 1.403 . S
C733 C734 1.392 . S
C733 C737 1.495 . S
C734 C733 1.392 . S
C734 C735 1.385 . S
C734 C736 1.478 . S
C735 H729 0.930 . S
C735 C731 1.400 . S
C735 C734 1.385 . S
C736 C734 1.478 . S
C736 C738 1.381 . S
C736 C742 1.383 . S
C737 C733 1.495 . S
C737 H743 0.959 . S
C737 H744 0.961 . S
C737 H745 0.960 . S
C738 C736 1.381 . S
C738 C739 1.394 . S
C738 H746 0.930 . S
C739 C738 1.394 . S
C739 C740 1.383 . S
C739 H747 0.929 . S
C740 C739 1.383 . S
C740 C741 1.377 . S
C741 H725 0.930 . S
C741 C740 1.377 . S
C741 C742 1.379 . S
C742 H726 0.931 . S
C742 C736 1.383 . S
C742 C741 1.379 . S
H743 C737 0.959 . S
H744 C737 0.961 . S
H745 C737 0.960 . S
H746 C738 0.930 . S
H747 C739 0.929 . S
H748 C756 0.929 . S
H749 C758 0.930 . S
H750 C760 0.930 . S
H751 C763 0.929 . S
H752 C766 0.930 . S
H753 C768 0.960 . S
H754 C768 0.960 . S
H755 C768 0.960 . S
C756 H748 0.929 . S
C756 C757 1.377 . S
C756 C758 1.384 . S
C757 C756 1.377 . S
C757 C763 1.390 . S
C758 H749 0.930 . S
C758 C756 1.384 . S
C758 C759 1.372 . S
C759 C758 1.372 . S
C759 C760 1.400 . S
C759 C764 1.490 . S
C760 H750 0.930 . S
C760 C759 1.400 . S
C760 C763 1.386 . S
H761 C777 0.930 . S
H762 C778 0.931 . S
C763 H751 0.929 . S
C763 C757 1.390 . S
C763 C760 1.386 . S
C764 C759 1.490 . S
C764 C766 1.395 . S
C764 C767 1.403 . S
H765 C771 0.930 . S
C766 H752 0.930 . S
C766 C764 1.395 . S
C766 C769 1.403 . S
C767 C764 1.403 . S
C767 C768 1.524 . S
C767 C771 1.400 . S
C768 H753 0.960 . S
C768 H754 0.960 . S
C768 H755 0.960 . S
C768 C767 1.524 . S
C769 C766 1.403 . S
C769 C770 1.392 . S
C769 C773 1.495 . S
C770 C769 1.392 . S
C770 C771 1.385 . S
C770 C772 1.478 . S
C771 H765 0.930 . S
C771 C767 1.400 . S
C771 C770 1.385 . S
C772 C770 1.478 . S
C772 C774 1.381 . S
C772 C778 1.383 . S
C773 C769 1.495 . S
C773 H779 0.959 . S
C773 H780 0.961 . S
C773 H781 0.960 . S
C774 C772 1.381 . S
C774 C775 1.394 . S
C774 H782 0.930 . S
C775 C774 1.394 . S
C775 C776 1.383 . S
C775 H783 0.929 . S
C776 C775 1.383 . S
C776 C777 1.377 . S
C777 H761 0.930 . S
C777 C776 1.377 . S
C777 C778 1.379 . S
C778 H762 0.931 . S
C778 C772 1.383 . S
C778 C777 1.379 . S
H779 C773 0.959 . S
H780 C773 0.961 . S
H781 C773 0.960 . S
H782 C774 0.930 . S
H783 C775 0.929 . S
H784 C792 0.929 . S
H785 C794 0.930 . S
H786 C796 0.930 1_554 S
H787 C799 0.929 1_554 S
H788 C802 0.930 . S
H789 C804 0.960 . S
H790 C804 0.960 1_556 S
H791 C804 0.960 1_565 S
C792 H784 0.929 . S
C792 C793 1.377 . S
C792 C794 1.384 . S
C793 C792 1.377 . S
C793 C799 1.390 . S
C794 H785 0.930 . S
C794 C792 1.384 . S
C794 C795 1.372 . S
C795 C794 1.372 . S
C795 C796 1.400 . S
C795 C800 1.490 . S
C796 H786 0.930 1_556 S
C796 C795 1.400 . S
C796 C799 1.386 . S
H797 C813 0.930 . S
H798 C814 0.931 . S
C799 H787 0.929 1_556 S
C799 C793 1.390 . S
C799 C796 1.386 . S
C800 C795 1.490 . S
C800 C802 1.395 . S
C800 C803 1.403 . S
H801 C807 0.930 1_545 S
C802 H788 0.930 . S
C802 C800 1.395 . S
C802 C805 1.403 . S
C803 C800 1.403 . S
C803 C804 1.524 1_566 S
C803 C807 1.400 1_556 S
C804 H789 0.960 . S
C804 H790 0.960 1_554 S
C804 H791 0.960 1_545 S
C804 C803 1.524 1_544 S
C805 C802 1.403 . S
C805 C806 1.392 . S
C805 C809 1.495 . S
C806 C805 1.392 . S
C806 C807 1.385 1_556 S
C806 C808 1.478 1_556 S
C807 H801 0.930 1_565 S
C807 C803 1.400 1_554 S
C807 C806 1.385 1_554 S
C808 C806 1.478 1_554 S
C808 C810 1.381 1_554 S
C808 C814 1.383 . S
C809 C805 1.495 . S
C809 H815 0.959 . S
C809 H816 0.961 . S
C809 H817 0.960 . S
C810 C808 1.381 1_556 S
C810 C811 1.394 . S
C810 H818 0.930 . S
C811 C810 1.394 . S
C811 C812 1.383 1_556 S
C811 H819 0.929 1_565 S
C812 C811 1.383 1_554 S
C812 C813 1.377 . S
C813 H797 0.930 . S
C813 C812 1.377 . S
C813 C814 1.379 . S
C814 H798 0.931 . S
C814 C808 1.383 . S
C814 C813 1.379 . S
H815 C809 0.959 . S
H816 C809 0.961 . S
H817 C809 0.960 . S
H818 C810 0.930 . S
H819 C811 0.929 1_545 S
H820 C828 0.929 . S
H821 C830 0.930 . S
H822 C832 0.930 . S
H823 C835 0.929 . S
H824 C838 0.930 . S
H825 C840 0.960 . S
H826 C840 0.960 . S
H827 C840 0.960 . S
C828 H820 0.929 . S
C828 C829 1.377 . S
C828 C830 1.384 . S
C829 C828 1.377 . S
C829 C835 1.390 . S
C830 H821 0.930 . S
C830 C828 1.384 . S
C830 C831 1.372 . S
C831 C830 1.372 . S
C831 C832 1.400 . S
C831 C836 1.490 . S
C832 H822 0.930 . S
C832 C831 1.400 . S
C832 C835 1.386 . S
H833 C849 0.930 . S
H834 C850 0.931 . S
C835 H823 0.929 . S
C835 C829 1.390 . S
C835 C832 1.386 . S
C836 C831 1.490 . S
C836 C838 1.395 . S
C836 C839 1.403 . S
H837 C843 0.930 . S
C838 H824 0.930 . S
C838 C836 1.395 . S
C838 C841 1.403 . S
C839 C836 1.403 . S
C839 C840 1.524 . S
C839 C843 1.400 . S
C840 H825 0.960 . S
C840 H826 0.960 . S
C840 H827 0.960 . S
C840 C839 1.524 . S
C841 C838 1.403 . S
C841 C842 1.392 . S
C841 C845 1.495 . S
C842 C841 1.392 . S
C842 C843 1.385 . S
C842 C844 1.478 . S
C843 H837 0.930 . S
C843 C839 1.400 . S
C843 C842 1.385 . S
C844 C842 1.478 . S
C844 C846 1.381 . S
C844 C850 1.383 . S
C845 C841 1.495 . S
C845 H851 0.959 . S
C845 H852 0.961 . S
C845 H853 0.960 . S
C846 C844 1.381 . S
C846 C847 1.394 . S
C846 H854 0.930 . S
C847 C846 1.394 . S
C847 C848 1.383 . S
C847 H855 0.929 . S
C848 C847 1.383 . S
C848 C849 1.377 . S
C849 H833 0.930 . S
C849 C848 1.377 . S
C849 C850 1.379 . S
C850 H834 0.931 . S
C850 C844 1.383 . S
C850 C849 1.379 . S
H851 C845 0.959 . S
H852 C845 0.961 . S
H853 C845 0.960 . S
H854 C846 0.930 . S
H855 C847 0.929 . S
H856 C864 0.929 . S
H857 C866 0.930 . S
H858 C868 0.930 . S
H859 C871 0.929 . S
H860 C874 0.930 . S
H861 C876 0.960 . S
H862 C876 0.960 . S
H863 C876 0.960 . S
C864 H856 0.929 . S
C864 C865 1.377 . S
C864 C866 1.384 . S
C865 C864 1.377 . S
C865 C871 1.390 . S
C866 H857 0.930 . S
C866 C864 1.384 . S
C866 C867 1.372 . S
C867 C866 1.372 . S
C867 C868 1.400 . S
C867 C872 1.490 . S
C868 H858 0.930 . S
C868 C867 1.400 . S
C868 C871 1.386 . S
H869 C885 0.930 . S
H870 C886 0.931 . S
C871 H859 0.929 . S
C871 C865 1.390 . S
C871 C868 1.386 . S
C872 C867 1.490 . S
C872 C874 1.395 . S
C872 C875 1.403 . S
H873 C879 0.930 . S
C874 H860 0.930 . S
C874 C872 1.395 . S
C874 C877 1.403 . S
C875 C872 1.403 . S
C875 C876 1.524 . S
C875 C879 1.400 . S
C876 H861 0.960 . S
C876 H862 0.960 . S
C876 H863 0.960 . S
C876 C875 1.524 . S
C877 C874 1.403 . S
C877 C878 1.392 . S
C877 C881 1.495 . S
C878 C877 1.392 . S
C878 C879 1.385 . S
C878 C880 1.478 . S
C879 H873 0.930 . S
C879 C875 1.400 . S
C879 C878 1.385 . S
C880 C878 1.478 . S
C880 C882 1.381 . S
C880 C886 1.383 . S
C881 C877 1.495 . S
C881 H887 0.959 . S
C881 H888 0.961 . S
C881 H889 0.960 . S
C882 C880 1.381 . S
C882 C883 1.394 . S
C882 H890 0.930 . S
C883 C882 1.394 . S
C883 C884 1.383 . S
C883 H891 0.929 . S
C884 C883 1.383 . S
C884 C885 1.377 . S
C885 H869 0.930 . S
C885 C884 1.377 . S
C885 C886 1.379 . S
C886 H870 0.931 . S
C886 C880 1.383 . S
C886 C885 1.379 . S
H887 C881 0.959 . S
H888 C881 0.961 . S
H889 C881 0.960 . S
H890 C882 0.930 . S
H891 C883 0.929 . S
H892 C900 0.929 . S
H893 C902 0.930 . S
H894 C904 0.930 . S
H895 C907 0.929 . S
H896 C910 0.930 . S
H897 C912 0.960 . S
H898 C912 0.960 . S
H899 C912 0.960 . S
C900 H892 0.929 . S
C900 C901 1.377 . S
C900 C902 1.384 . S
C901 C900 1.377 . S
C901 C907 1.390 . S
C902 H893 0.930 . S
C902 C900 1.384 . S
C902 C903 1.372 . S
C903 C902 1.372 . S
C903 C904 1.400 . S
C903 C908 1.490 . S
C904 H894 0.930 . S
C904 C903 1.400 . S
C904 C907 1.386 . S
H905 C921 0.930 . S
H906 C922 0.931 . S
C907 H895 0.929 . S
C907 C901 1.390 . S
C907 C904 1.386 . S
C908 C903 1.490 . S
C908 C910 1.395 . S
C908 C911 1.403 . S
H909 C915 0.930 . S
C910 H896 0.930 . S
C910 C908 1.395 . S
C910 C913 1.403 . S
C911 C908 1.403 . S
C911 C912 1.524 . S
C911 C915 1.400 . S
C912 H897 0.960 . S
C912 H898 0.960 . S
C912 H899 0.960 . S
C912 C911 1.524 . S
C913 C910 1.403 . S
C913 C914 1.392 . S
C913 C917 1.495 . S
C914 C913 1.392 . S
C914 C915 1.385 . S
C914 C916 1.478 . S
C915 H909 0.930 . S
C915 C911 1.400 . S
C915 C914 1.385 . S
C916 C914 1.478 . S
C916 C918 1.381 . S
C916 C922 1.383 . S
C917 C913 1.495 . S
C917 H923 0.959 . S
C917 H924 0.961 . S
C917 H925 0.960 . S
C918 C916 1.381 . S
C918 C919 1.394 . S
C918 H926 0.930 . S
C919 C918 1.394 . S
C919 C920 1.383 . S
C919 H927 0.929 . S
C920 C919 1.383 . S
C920 C921 1.377 . S
C921 H905 0.930 . S
C921 C920 1.377 . S
C921 C922 1.379 . S
C922 H906 0.931 . S
C922 C916 1.383 . S
C922 C921 1.379 . S
H923 C917 0.959 . S
H924 C917 0.961 . S
H925 C917 0.960 . S
H926 C918 0.930 . S
H927 C919 0.929 . S
H928 C936 0.929 . S
H929 C938 0.930 . S
H930 C940 0.930 1_554 S
H931 C943 0.929 . S
H932 C946 0.930 . S
H933 C948 0.960 . S
H934 C948 0.960 . S
H935 C948 0.960 . S
C936 H928 0.929 . S
C936 C937 1.377 . S
C936 C938 1.384 . S
C937 C936 1.377 . S
C937 C943 1.390 . S
C938 H929 0.930 . S
C938 C936 1.384 . S
C938 C939 1.372 . S
C939 C938 1.372 . S
C939 C940 1.400 . S
C939 C944 1.490 . S
C940 H930 0.930 1_556 S
C940 C939 1.400 . S
C940 C943 1.386 . S
H941 C957 0.930 . S
H942 C958 0.931 . S
C943 H931 0.929 . S
C943 C937 1.390 . S
C943 C940 1.386 . S
C944 C939 1.490 . S
C944 C946 1.395 . S
C944 C947 1.403 . S
H945 C951 0.930 . S
C946 H932 0.930 . S
C946 C944 1.395 . S
C946 C949 1.403 . S
C947 C944 1.403 . S
C947 C948 1.524 . S
C947 C951 1.400 . S
C948 H933 0.960 . S
C948 H934 0.960 . S
C948 H935 0.960 . S
C948 C947 1.524 . S
C949 C946 1.403 . S
C949 C950 1.392 . S
C949 C953 1.495 1_655 S
C950 C949 1.392 . S
C950 C951 1.385 . S
C950 C952 1.478 . S
C951 H945 0.930 . S
C951 C947 1.400 . S
C951 C950 1.385 . S
C952 C950 1.478 . S
C952 C954 1.381 1_655 S
C952 C958 1.383 1_556 S
C953 C949 1.495 1_455 S
C953 H959 0.959 . S
C953 H960 0.961 1_556 S
C953 H961 0.960 . S
C954 C952 1.381 1_455 S
C954 C955 1.394 . S
C954 H962 0.930 . S
C955 C954 1.394 . S
C955 C956 1.387 . S
C955 H963 0.929 . S
C956 C955 1.387 . S
C956 C957 1.369 1_456 S
C957 H941 0.930 . S
C957 C956 1.369 1_654 S
C957 C958 1.379 . S
C958 H942 0.931 . S
C958 C952 1.383 1_554 S
C958 C957 1.379 . S
H959 C953 0.959 . S
H960 C953 0.961 1_554 S
H961 C953 0.960 . S
H962 C954 0.930 . S
H963 C955 0.929 . S
H964 C972 0.929 . S
H965 C974 0.930 . S
H966 C976 0.930 . S
H967 C979 0.929 . S
H968 C982 0.930 . S
H969 C984 0.960 . S
H970 C984 0.960 . S
H971 C984 0.960 . S
C972 H964 0.929 . S
C972 C973 1.377 . S
C972 C974 1.384 . S
C973 C972 1.377 . S
C973 C979 1.390 . S
C974 H965 0.930 . S
C974 C972 1.384 . S
C974 C975 1.372 . S
C975 C974 1.372 . S
C975 C976 1.400 . S
C975 C980 1.490 . S
C976 H966 0.930 . S
C976 C975 1.400 . S
C976 C979 1.386 . S
H977 C993 0.930 . S
H978 C994 0.931 . S
C979 H967 0.929 . S
C979 C973 1.390 . S
C979 C976 1.386 . S
C980 C975 1.490 . S
C980 C982 1.395 . S
C980 C983 1.403 . S
H981 C987 0.930 . S
C982 H968 0.930 . S
C982 C980 1.395 . S
C982 C985 1.403 . S
C983 C980 1.403 . S
C983 C984 1.524 . S
C983 C987 1.400 . S
C984 H969 0.960 . S
C984 H970 0.960 . S
C984 H971 0.960 . S
C984 C983 1.524 . S
C985 C982 1.403 . S
C985 C986 1.392 . S
C985 C989 1.495 . S
C986 C985 1.392 . S
C986 C987 1.385 . S
C986 C988 1.478 . S
C987 H981 0.930 . S
C987 C983 1.400 . S
C987 C986 1.385 . S
C988 C986 1.478 . S
C988 C990 1.381 . S
C988 C994 1.383 . S
C989 C985 1.495 . S
C989 H995 0.959 . S
C989 H996 0.961 . S
C989 H997 0.960 . S
C990 C988 1.381 . S
C990 C991 1.394 . S
C990 H998 0.930 . S
C991 C990 1.394 . S
C991 C992 1.383 . S
C991 H999 0.929 . S
C992 C991 1.383 . S
C992 C993 1.377 . S
C993 H977 0.930 . S
C993 C992 1.377 . S
C993 C994 1.379 . S
C994 H978 0.931 . S
C994 C988 1.383 . S
C994 C993 1.379 . S
H995 C989 0.959 . S
H996 C989 0.961 . S
H997 C989 0.960 . S
H998 C990 0.930 . S
H999 C991 0.929 . S
H1000 C1008 0.929 . S
H1001 C1010 0.930 . S
H1002 C1012 0.930 . S
H1003 C1015 0.929 . S
H1004 C1018 0.930 . S
H1005 C1020 0.960 . S
H1006 C1020 0.960 . S
H1007 C1020 0.960 . S
C1008 H1000 0.929 . S
C1008 C1009 1.377 . S
C1008 C1010 1.384 . S
C1009 C1008 1.377 . S
C1009 C1015 1.390 . S
C1010 H1001 0.930 . S
C1010 C1008 1.384 . S
C1010 C1011 1.372 . S
C1011 C1010 1.372 . S
C1011 C1012 1.400 . S
C1011 C1016 1.490 . S
C1012 H1002 0.930 . S
C1012 C1011 1.400 . S
C1012 C1015 1.386 . S
H1013 C1029 0.930 . S
H1014 C1030 0.931 . S
C1015 H1003 0.929 . S
C1015 C1009 1.390 . S
C1015 C1012 1.386 . S
C1016 C1011 1.490 . S
C1016 C1018 1.395 . S
C1016 C1019 1.403 . S
H1017 C1023 0.930 . S
C1018 H1004 0.930 . S
C1018 C1016 1.395 . S
C1018 C1021 1.403 . S
C1019 C1016 1.403 . S
C1019 C1020 1.524 . S
C1019 C1023 1.400 . S
C1020 H1005 0.960 . S
C1020 H1006 0.960 . S
C1020 H1007 0.960 . S
C1020 C1019 1.524 . S
C1021 C1018 1.403 . S
C1021 C1022 1.392 . S
C1021 C1025 1.530 . S
C1022 C1021 1.392 . S
C1022 C1023 1.385 . S
C1022 C1024 1.478 . S
C1023 H1017 0.930 . S
C1023 C1019 1.400 . S
C1023 C1022 1.385 . S
C1024 C1022 1.478 . S
C1024 C1026 1.381 . S
C1024 C1030 1.383 . S
C1025 C1021 1.530 . S
C1025 H1031 0.938 1_455 S
C1025 H1032 0.975 . S
C1025 H1033 0.934 1_455 S
C1026 C1024 1.381 . S
C1026 C1027 1.394 . S
C1026 H1034 0.947 . S
C1027 C1026 1.394 . S
C1027 C1028 1.383 . S
C1027 H1035 0.929 1_455 S
C1028 C1027 1.383 . S
C1028 C1029 1.377 . S
C1029 H1013 0.930 . S
C1029 C1028 1.377 . S
C1029 C1030 1.379 . S
C1030 H1014 0.931 . S
C1030 C1024 1.383 . S
C1030 C1029 1.379 . S
H1031 C1025 0.938 1_655 S
H1032 C1025 0.975 . S
H1033 C1025 0.934 1_655 S
H1034 C1026 0.947 . S
H1035 C1027 0.929 1_655 S
H1036 C1044 0.929 . S
H1037 C1046 0.930 . S
H1038 C1048 0.930 . S
H1039 C1051 0.929 . S
H1040 C1054 0.930 . S
H1041 C1056 0.960 . S
H1042 C1056 0.960 . S
H1043 C1056 0.960 . S
C1044 H1036 0.929 . S
C1044 C1045 1.377 . S
C1044 C1046 1.384 . S
C1045 C1044 1.377 . S
C1045 C1051 1.390 . S
C1046 H1037 0.930 . S
C1046 C1044 1.384 . S
C1046 C1047 1.372 . S
C1047 C1046 1.372 . S
C1047 C1048 1.400 . S
C1047 C1052 1.490 . S
C1048 H1038 0.930 . S
C1048 C1047 1.400 . S
C1048 C1051 1.386 . S
H1049 C1065 0.930 . S
H1050 C1066 0.931 . S
C1051 H1039 0.929 . S
C1051 C1045 1.390 . S
C1051 C1048 1.386 . S
C1052 C1047 1.490 . S
C1052 C1054 1.395 . S
C1052 C1055 1.403 . S
H1053 C1059 0.930 . S
C1054 H1040 0.930 . S
C1054 C1052 1.395 . S
C1054 C1057 1.403 . S
C1055 C1052 1.403 . S
C1055 C1056 1.524 . S
C1055 C1059 1.400 . S
C1056 H1041 0.960 . S
C1056 H1042 0.960 . S
C1056 H1043 0.960 . S
C1056 C1055 1.524 . S
C1057 C1054 1.403 . S
C1057 C1058 1.392 . S
C1057 C1061 1.495 . S
C1058 C1057 1.392 . S
C1058 C1059 1.385 . S
C1058 C1060 1.478 . S
C1059 H1053 0.930 . S
C1059 C1055 1.400 . S
C1059 C1058 1.385 . S
C1060 C1058 1.478 . S
C1060 C1062 1.381 . S
C1060 C1066 1.383 . S
C1061 C1057 1.495 . S
C1061 H1067 0.959 . S
C1061 H1068 0.961 . S
C1061 H1069 0.960 . S
C1062 C1060 1.381 . S
C1062 C1063 1.394 . S
C1062 H1070 0.930 . S
C1063 C1062 1.394 . S
C1063 C1064 1.383 . S
C1063 H1071 0.929 . S
C1064 C1063 1.383 . S
C1064 C1065 1.377 . S
C1065 H1049 0.930 . S
C1065 C1064 1.377 . S
C1065 C1066 1.379 . S
C1066 H1050 0.931 . S
C1066 C1060 1.383 . S
C1066 C1065 1.379 . S
H1067 C1061 0.959 . S
H1068 C1061 0.961 . S
H1069 C1061 0.960 . S
H1070 C1062 0.930 . S
H1071 C1063 0.929 . S
C217 C5 2.413 . S
C236 C104 2.555 . S
C253 C18 1.136 . S
C272 N124 1.158 . S
C308 C158 1.712 . S
C289 C30 1.683 . S
C325 C41 1.017 . S
C344 N192 1.009 . S
C380 C145 2.688 . S
C361 C7 2.636 . S
C416 N102 1.391 . S
C397 C16 1.185 . S
C452 C179 2.008 1_556 S
C433 C29 1.900 . S
C488 N154 0.619 . S
C469 C38 0.649 . S
C505 C8 1.964 . S
C524 C194 1.958 . S
C560 C128 1.838 . S
C541 C27 1.541 . S
C577 C40 1.392 . S
C596 C89 1.373 . S
C613 C19 0.975 . S
C632 C175 0.995 . S
C668 C115 2.240 . S
C649 C51 2.175 . S
C685 C62 1.218 . S
C704 N132 1.241 . S
C721 C74 1.782 . S
C740 C149 1.819 . S
C757 C84 1.055 . S
C776 N184 1.115 . S
C793 C49 2.602 . S
C812 C134 2.762 1_565 S
C848 N94 1.074 . S
C829 C63 1.093 . S
C884 C188 1.823 . S
C865 C71 1.515 . S
C920 N162 0.715 . S
C901 C85 0.675 . S
C937 C52 1.898 . S
C956 C205 1.902 1_556 S
C992 C119 1.961 . S
C973 C73 1.847 . S
C1028 C98 1.153 . S
C1009 C82 0.937 . S
C1045 C60 1.313 . S
C1064 C164 1.613 . S
