# Generated by pormake.
# Topology eea, (3,6)-cn, num edge types: 1
# Building blocks:
#     Node 0, Type 0, BuildingBlock: WUSLED_clean_sbu_0, # of connection points: 3
#     Node 1, Type 0, BuildingBlock: WUSLED_clean_sbu_0, # of connection points: 3
#     Node 2, Type 0, BuildingBlock: WUSLED_clean_sbu_0, # of connection points: 3
#     Node 3, Type 0, BuildingBlock: WUSLED_clean_sbu_0, # of connection points: 3
#     Node 4, Type 0, BuildingBlock: WUSLED_clean_sbu_0, # of connection points: 3
#     Node 5, Type 0, BuildingBlock: WUSLED_clean_sbu_0, # of connection points: 3
#     Node 6, Type 0, BuildingBlock: WUSLED_clean_sbu_0, # of connection points: 3
#     Node 7, Type 0, BuildingBlock: WUSLED_clean_sbu_0, # of connection points: 3
#     Node 8, Type 0, BuildingBlock: WUSLED_clean_sbu_0, # of connection points: 3
#     Node 9, Type 0, BuildingBlock: WUSLED_clean_sbu_0, # of connection points: 3
#     Node 10, Type 0, BuildingBlock: WUSLED_clean_sbu_0, # of connection points: 3
#     Node 11, Type 0, BuildingBlock: WUSLED_clean_sbu_0, # of connection points: 3
#     Node 12, Type 0, BuildingBlock: WUSLED_clean_sbu_0, # of connection points: 3
#     Node 13, Type 0, BuildingBlock: WUSLED_clean_sbu_0, # of connection points: 3
#     Node 14, Type 0, BuildingBlock: WUSLED_clean_sbu_0, # of connection points: 3
#     Node 15, Type 0, BuildingBlock: WUSLED_clean_sbu_0, # of connection points: 3
#     Node 16, Type 0, BuildingBlock: WUSLED_clean_sbu_0, # of connection points: 3
#     Node 17, Type 0, BuildingBlock: WUSLED_clean_sbu_0, # of connection points: 3
#     Node 18, Type 1, BuildingBlock: KUMJIN_clean_sbu_0, # of connection points: 6
#     Node 19, Type 1, BuildingBlock: KUMJIN_clean_sbu_0, # of connection points: 6
#     Node 20, Type 1, BuildingBlock: KUMJIN_clean_sbu_0, # of connection points: 6
#     Node 21, Type 1, BuildingBlock: KUMJIN_clean_sbu_0, # of connection points: 6
#     Node 22, Type 1, BuildingBlock: KUMJIN_clean_sbu_0, # of connection points: 6
#     Node 23, Type 1, BuildingBlock: KUMJIN_clean_sbu_0, # of connection points: 6
#     Node 24, Type 1, BuildingBlock: KUMJIN_clean_sbu_0, # of connection points: 6
#     Node 25, Type 1, BuildingBlock: KUMJIN_clean_sbu_0, # of connection points: 6
#     Node 26, Type 1, BuildingBlock: KUMJIN_clean_sbu_0, # of connection points: 6
#     Edge 27, Type (0, 1), BuildingBlock: EZIPEK_clean_linker_0, # of connection points: 2
#     Edge 28, Type (0, 1), BuildingBlock: EZIPEK_clean_linker_0, # of connection points: 2
#     Edge 29, Type (0, 1), BuildingBlock: EZIPEK_clean_linker_0, # of connection points: 2
#     Edge 30, Type (0, 1), BuildingBlock: EZIPEK_clean_linker_0, # of connection points: 2
#     Edge 31, Type (0, 1), BuildingBlock: EZIPEK_clean_linker_0, # of connection points: 2
#     Edge 32, Type (0, 1), BuildingBlock: EZIPEK_clean_linker_0, # of connection points: 2
#     Edge 33, Type (0, 1), BuildingBlock: EZIPEK_clean_linker_0, # of connection points: 2
#     Edge 34, Type (0, 1), BuildingBlock: EZIPEK_clean_linker_0, # of connection points: 2
#     Edge 35, Type (0, 1), BuildingBlock: EZIPEK_clean_linker_0, # of connection points: 2
#     Edge 36, Type (0, 1), BuildingBlock: EZIPEK_clean_linker_0, # of connection points: 2
#     Edge 37, Type (0, 1), BuildingBlock: EZIPEK_clean_linker_0, # of connection points: 2
#     Edge 38, Type (0, 1), BuildingBlock: EZIPEK_clean_linker_0, # of connection points: 2
#     Edge 39, Type (0, 1), BuildingBlock: EZIPEK_clean_linker_0, # of connection points: 2
#     Edge 40, Type (0, 1), BuildingBlock: EZIPEK_clean_linker_0, # of connection points: 2
#     Edge 41, Type (0, 1), BuildingBlock: EZIPEK_clean_linker_0, # of connection points: 2
#     Edge 42, Type (0, 1), BuildingBlock: EZIPEK_clean_linker_0, # of connection points: 2
#     Edge 43, Type (0, 1), BuildingBlock: EZIPEK_clean_linker_0, # of connection points: 2
#     Edge 44, Type (0, 1), BuildingBlock: EZIPEK_clean_linker_0, # of connection points: 2
#     Edge 45, Type (0, 1), BuildingBlock: EZIPEK_clean_linker_0, # of connection points: 2
#     Edge 46, Type (0, 1), BuildingBlock: EZIPEK_clean_linker_0, # of connection points: 2
#     Edge 47, Type (0, 1), BuildingBlock: EZIPEK_clean_linker_0, # of connection points: 2
#     Edge 48, Type (0, 1), BuildingBlock: EZIPEK_clean_linker_0, # of connection points: 2
#     Edge 49, Type (0, 1), BuildingBlock: EZIPEK_clean_linker_0, # of connection points: 2
#     Edge 50, Type (0, 1), BuildingBlock: EZIPEK_clean_linker_0, # of connection points: 2
#     Edge 51, Type (0, 1), BuildingBlock: EZIPEK_clean_linker_0, # of connection points: 2
#     Edge 52, Type (0, 1), BuildingBlock: EZIPEK_clean_linker_0, # of connection points: 2
#     Edge 53, Type (0, 1), BuildingBlock: EZIPEK_clean_linker_0, # of connection points: 2
#     Edge 54, Type (0, 1), BuildingBlock: EZIPEK_clean_linker_0, # of connection points: 2
#     Edge 55, Type (0, 1), BuildingBlock: EZIPEK_clean_linker_0, # of connection points: 2
#     Edge 56, Type (0, 1), BuildingBlock: EZIPEK_clean_linker_0, # of connection points: 2
#     Edge 57, Type (0, 1), BuildingBlock: EZIPEK_clean_linker_0, # of connection points: 2
#     Edge 58, Type (0, 1), BuildingBlock: EZIPEK_clean_linker_0, # of connection points: 2
#     Edge 59, Type (0, 1), BuildingBlock: EZIPEK_clean_linker_0, # of connection points: 2
#     Edge 60, Type (0, 1), BuildingBlock: EZIPEK_clean_linker_0, # of connection points: 2
#     Edge 61, Type (0, 1), BuildingBlock: EZIPEK_clean_linker_0, # of connection points: 2
#     Edge 62, Type (0, 1), BuildingBlock: EZIPEK_clean_linker_0, # of connection points: 2
#     Edge 63, Type (0, 1), BuildingBlock: EZIPEK_clean_linker_0, # of connection points: 2
#     Edge 64, Type (0, 1), BuildingBlock: EZIPEK_clean_linker_0, # of connection points: 2
#     Edge 65, Type (0, 1), BuildingBlock: EZIPEK_clean_linker_0, # of connection points: 2
#     Edge 66, Type (0, 1), BuildingBlock: EZIPEK_clean_linker_0, # of connection points: 2
#     Edge 67, Type (0, 1), BuildingBlock: EZIPEK_clean_linker_0, # of connection points: 2
#     Edge 68, Type (0, 1), BuildingBlock: EZIPEK_clean_linker_0, # of connection points: 2
#     Edge 69, Type (0, 1), BuildingBlock: EZIPEK_clean_linker_0, # of connection points: 2
#     Edge 70, Type (0, 1), BuildingBlock: EZIPEK_clean_linker_0, # of connection points: 2
#     Edge 71, Type (0, 1), BuildingBlock: EZIPEK_clean_linker_0, # of connection points: 2
#     Edge 72, Type (0, 1), BuildingBlock: EZIPEK_clean_linker_0, # of connection points: 2
#     Edge 73, Type (0, 1), BuildingBlock: EZIPEK_clean_linker_0, # of connection points: 2
#     Edge 74, Type (0, 1), BuildingBlock: EZIPEK_clean_linker_0, # of connection points: 2
#     Edge 75, Type (0, 1), BuildingBlock: EZIPEK_clean_linker_0, # of connection points: 2
#     Edge 76, Type (0, 1), BuildingBlock: EZIPEK_clean_linker_0, # of connection points: 2
#     Edge 77, Type (0, 1), BuildingBlock: EZIPEK_clean_linker_0, # of connection points: 2
#     Edge 78, Type (0, 1), BuildingBlock: EZIPEK_clean_linker_0, # of connection points: 2
#     Edge 79, Type (0, 1), BuildingBlock: EZIPEK_clean_linker_0, # of connection points: 2
#     Edge 80, Type (0, 1), BuildingBlock: EZIPEK_clean_linker_0, # of connection points: 2
# Relax obj value: 0.008
# Max RMSD: 0.089
# Mean RMSD: 0.069
data_MOF--net-eea--node1-WUSLED_clean_sbu_0--node2-KUMJIN_clean_sbu_0--edge1-EZIPEK_clean_linker_0
_symmetry_space_group_name_H-M    P1
_symmetry_Int_Tables_number       1
_symmetry_cell_setting            triclinic
loop_
_symmetry_equiv_pos_as_xyz
'x, y, z'
_cell_length_a     52.921904
_cell_length_b     54.243951
_cell_length_c     74.832797
_cell_angle_alpha  89.879536
_cell_angle_beta   90.101393
_cell_angle_gamma 119.91498
loop_
_atom_site_label
_atom_site_type_symbol
_atom_site_fract_x
_atom_site_fract_y
_atom_site_fract_z
_atom_type_partial_charge
C0 C 0.2212 0.16685 0.40841 0.0
C1 C 0.24563 0.19435 0.4069 0.0
C2 C 0.21492 0.21234 0.39525 0.0
C3 C 0.24247 0.21692 0.40037 0.0
C4 C 0.1905 0.18514 0.39714 0.0
C5 C 0.19363 0.16261 0.40362 0.0
U6 U 0.24076 0.12317 0.44098 0.0
O7 O 0.2167 0.07696 0.44604 0.0
O8 O 0.26127 0.09734 0.43541 0.0
C9 C 0.23755 0.07329 0.43935 0.0
C10 C 0.22395 0.14188 0.41358 0.0
C11 C 0.22842 0.04928 0.42669 0.0
C12 C 0.23675 0.02853 0.40003 0.0
C13 C 0.24349 0.05233 0.41059 0.0
C14 C 0.19906 0.99837 0.421 0.0
C15 C 0.21488 1.00132 0.40536 0.0
C16 C 0.20581 0.02212 0.43158 0.0
C17 C 0.27178 0.15616 0.48771 0.0
C18 C 0.28659 0.13622 0.51203 0.0
C19 C 0.29154 0.18293 0.51508 0.0
C20 C 0.28 0.18055 0.498 0.0
C21 C 0.29508 0.16092 0.52221 0.0
C22 C 0.27505 0.13388 0.49479 0.0
C23 C 0.26017 0.15516 0.46968 0.0
O24 O 0.25043 0.14573 0.41523 0.0
O25 O 0.20597 0.12523 0.42601 0.0
O26 O 0.23252 0.13652 0.46706 0.0
O27 O 0.27699 0.15707 0.45623 0.0
H28 H 0.26719 0.19838 0.41046 0.0
H29 H 0.26153 0.23786 0.3991 0.0
H30 H 0.16906 0.18127 0.39335 0.0
H31 H 0.17449 0.14167 0.40457 0.0
H32 H 0.24922 0.03116 0.388 0.0
H33 H 0.26105 0.07291 0.40641 0.0
H34 H 0.18218 0.97753 0.42534 0.0
H35 H 0.19396 0.01911 0.44393 0.0
H36 H 0.28913 0.11901 0.51738 0.0
H37 H 0.2979 0.20208 0.52274 0.0
H38 H 0.27759 0.19791 0.49276 0.0
H39 H 0.26879 0.11487 0.48701 0.0
C40 C 0.96424 0.17592 0.40078 0.0
C41 C 0.967 0.18602 0.38319 0.0
C42 C 0.01738 0.2222 0.38867 0.0
C43 C 0.99332 0.20887 0.37716 0.0
C44 C 0.01465 0.21245 0.40638 0.0
C45 C 0.98825 0.18948 0.41243 0.0
U46 U 0.90152 0.12793 0.43361 0.0
O47 O 0.85435 0.10279 0.42799 0.0
O48 O 0.87838 0.08128 0.4361 0.0
C49 C 0.85336 0.07838 0.43073 0.0
C50 C 0.93662 0.15031 0.40604 0.0
C51 C 0.83583 0.05508 0.41799 0.0
C52 C 0.83067 0.01976 0.39596 0.0
C53 C 0.84844 0.04419 0.40611 0.0
C54 C 0.78765 0.0174 0.40897 0.0
C55 C 0.80014 1.00586 0.39763 0.0
C56 C 0.80533 0.0418 0.419 0.0
C57 C 0.90359 0.15338 0.4825 0.0
C58 C 0.86946 0.12773 0.50651 0.0
C59 C 0.91032 0.17441 0.51193 0.0
C60 C 0.91897 0.17614 0.49415 0.0
C61 C 0.88683 0.14918 0.5191 0.0
C62 C 0.87819 0.12946 0.4886 0.0
C63 C 0.91457 0.15576 0.4641 0.0
O64 O 0.93842 0.13274 0.41743 0.0
O65 O 0.91421 0.15391 0.40903 0.0
O66 O 0.89961 0.15935 0.45135 0.0
O67 O 0.92372 0.13808 0.45971 0.0
H68 H 0.94884 0.17587 0.37398 0.0
H69 H 0.99504 0.21605 0.36346 0.0
H70 H 0.03304 0.22247 0.41544 0.0
H71 H 0.98673 0.1821 0.42606 0.0
H72 H 0.8407 0.01107 0.38732 0.0
H73 H 0.87191 0.05399 0.40508 0.0
H74 H 0.7642 1.00698 0.41048 0.0
H75 H 0.79511 0.04973 0.42809 0.0
H76 H 0.84871 0.10968 0.50992 0.0
H77 H 0.92228 0.1934 0.51987 0.0
H78 H 0.93782 0.19549 0.48947 0.0
H79 H 0.865 0.11222 0.47951 0.0
C80 C 0.8503 0.79512 0.40127 0.0
C81 C 0.82462 0.78292 0.41155 0.0
C82 C 0.80209 0.80063 0.39039 0.0
C83 C 0.80066 0.78569 0.40613 0.0
C84 C 0.82777 0.81271 0.38023 0.0
C85 C 0.85159 0.80999 0.38563 0.0
U86 U 0.89872 0.77861 0.433 0.0
O87 O 0.92506 0.75872 0.42623 0.0
O88 O 0.94656 0.80273 0.43596 0.0
C89 C 0.94986 0.78165 0.43017 0.0
C90 C 0.87611 0.79268 0.40615 0.0
C91 C 0.97518 0.78895 0.41849 0.0
C92 C 1.00085 0.80222 0.38991 0.0
C93 C 0.97615 0.79599 0.40029 0.0
C94 C 0.02359 0.79452 0.4158 0.0
C95 C 0.02468 0.8013 0.39762 0.0
C96 C 0.99915 0.78843 0.42609 0.0
C97 C 0.87288 0.75236 0.48187 0.0
C98 C 0.86542 0.71472 0.50278 0.0
C99 C 0.87354 0.75991 0.51404 0.0
C100 C 0.87614 0.76995 0.49652 0.0
C101 C 0.86742 0.73199 0.51728 0.0
C102 C 0.86809 0.72478 0.48522 0.0
C103 C 0.87051 0.76175 0.46355 0.0
O104 O 0.89416 0.8111 0.41786 0.0
O105 O 0.87193 0.76689 0.40855 0.0
O106 O 0.86651 0.74441 0.45021 0.0
O107 O 0.88814 0.78862 0.45953 0.0
H108 H 0.82314 0.77138 0.4237 0.0
H109 H 0.7811 0.77638 0.41423 0.0
H110 H 0.82945 0.82446 0.36815 0.0
H111 H 0.87115 0.81959 0.37753 0.0
H112 H 1.00133 0.80752 0.37591 0.0
H113 H 0.95789 0.79656 0.39416 0.0
H114 H 0.0417 0.79379 0.42203 0.0
H115 H 0.99891 0.78311 0.44008 0.0
H116 H 0.86068 0.69309 0.50504 0.0
H117 H 0.8751 0.7735 0.52508 0.0
H118 H 0.87949 0.79114 0.49441 0.0
H119 H 0.86527 0.71055 0.47431 0.0
C120 C 0.06175 0.22227 0.64612 0.0
C121 C 0.06057 0.23593 0.66179 0.0
C122 C 1.00806 0.21533 0.65869 0.0
C123 C 0.03406 0.23246 0.66803 0.0
C124 C 1.00916 0.20216 0.64277 0.0
C125 C 0.03574 0.20554 0.63653 0.0
U126 U 0.1282 0.23864 0.61538 0.0
O127 O 0.17435 0.25758 0.62322 0.0
O128 O 0.15111 0.21426 0.61237 0.0
C129 C 0.17542 0.23444 0.61947 0.0
C130 C 0.08971 0.22364 0.64135 0.0
C131 C 0.19123 0.22554 0.63206 0.0
C132 C 0.22344 0.23469 0.65772 0.0
C133 C 0.20489 0.24101 0.64768 0.0
C134 C 0.21456 0.19702 0.63701 0.0
C135 C 0.22898 0.21306 0.6522 0.0
C136 C 0.19596 0.20319 0.62707 0.0
C137 C 0.1326 0.26948 0.56744 0.0
C138 C 0.15288 0.26548 0.53904 0.0
C139 C 0.14126 0.30297 0.54331 0.0
C140 C 0.1319 0.2933 0.5607 0.0
C141 C 0.15153 0.289 0.53228 0.0
C142 C 0.14352 0.25578 0.55653 0.0
C143 C 0.11948 0.25833 0.5852 0.0
O144 O 0.08903 0.20581 0.62921 0.0
O145 O 0.11283 0.2491 0.64007 0.0
O146 O 0.13266 0.27456 0.59907 0.0
O147 O 0.1094 0.23114 0.58833 0.0
H148 H 0.08016 0.24873 0.66952 0.0
H149 H 0.03374 0.24277 0.68034 0.0
H150 H 0.98934 0.18884 0.63535 0.0
H151 H 0.0358 0.19459 0.62447 0.0
H152 H 0.23416 0.24719 0.66948 0.0
H153 H 0.20196 0.25852 0.65187 0.0
H154 H 0.21833 0.18013 0.63255 0.0
H155 H 0.18607 0.19108 0.61504 0.0
H156 H 0.16081 0.25448 0.53071 0.0
H157 H 0.14008 0.32115 0.53835 0.0
H158 H 0.12343 0.30409 0.56878 0.0
H159 H 0.14428 0.23733 0.56136 0.0
C160 C 0.79969 0.84883 0.648 0.0
C161 C 0.79137 0.82505 0.63697 0.0
C162 C 0.80821 0.80395 0.65951 0.0
C163 C 0.79556 0.80267 0.64273 0.0
C164 C 0.81648 0.82777 0.67042 0.0
C165 C 0.8122 0.84996 0.66472 0.0
U166 U 0.78101 0.89174 0.61431 0.0
O167 O 0.75775 0.91537 0.61912 0.0
O168 O 0.80339 0.93806 0.61034 0.0
C169 C 0.78087 0.94013 0.61569 0.0
C170 C 0.79591 0.87294 0.64256 0.0
C171 C 0.787 0.96352 0.62817 0.0
C172 C 0.81349 0.99445 0.65317 0.0
C173 C 0.80649 0.97052 0.64259 0.0
C174 C 0.78111 1.00407 0.63533 0.0
C175 C 0.8011 0.01158 0.64942 0.0
C176 C 0.7741 0.98023 0.62483 0.0
C177 C 0.75784 0.86388 0.56608 0.0
C178 C 0.74461 0.88648 0.54265 0.0
C179 C 0.74762 0.84459 0.53608 0.0
C180 C 0.75481 0.84321 0.55386 0.0
C181 C 0.74479 0.86764 0.52956 0.0
C182 C 0.75187 0.88511 0.56054 0.0
C183 C 0.76665 0.86221 0.58451 0.0
O184 O 0.81483 0.89066 0.6309 0.0
O185 O 0.76907 0.86718 0.63938 0.0
O186 O 0.74779 0.85832 0.59715 0.0
O187 O 0.79364 0.8809 0.58879 0.0
H188 H 0.78174 0.82383 0.62398 0.0
H189 H 0.78912 0.78448 0.6341 0.0
H190 H 0.82632 0.82918 0.68336 0.0
H191 H 0.81877 0.86814 0.67339 0.0
H192 H 0.82907 1.00004 0.66397 0.0
H193 H 0.8167 0.9579 0.6454 0.0
H194 H 0.77143 0.01708 0.63221 0.0
H195 H 0.75907 0.97522 0.61377 0.0
H196 H 0.73828 0.90205 0.53964 0.0
H197 H 0.74393 0.82695 0.52767 0.0
H198 H 0.75786 0.82575 0.55809 0.0
H199 H 0.75256 0.90047 0.57006 0.0
C200 C 0.06029 0.83579 0.64665 0.0
C201 C 0.05932 0.82116 0.66238 0.0
C202 C 1.00699 0.79017 0.65918 0.0
C203 C 0.03296 0.79863 0.66861 0.0
C204 C 1.00789 0.80423 0.64318 0.0
C205 C 0.03433 0.82688 0.63695 0.0
U206 U 0.12502 0.88468 0.61522 0.0
O207 O 0.14771 0.93126 0.61258 0.0
O208 O 0.17161 0.91044 0.62222 0.0
C209 C 0.17229 0.93466 0.61921 0.0
C210 C 0.08805 0.86168 0.64184 0.0
C211 C 0.18795 0.95793 0.63243 0.0
C212 C 0.23165 0.98641 0.65039 0.0
C213 C 0.21379 0.96183 0.64047 0.0
C214 C 0.19771 1.00327 0.64507 0.0
C215 C 0.22408 0.00763 0.65235 0.0
C216 C 0.17981 0.9787 0.6352 0.0
C217 C 0.12742 0.86106 0.56646 0.0
C218 C 0.1653 0.86442 0.54644 0.0
C219 C 0.11948 0.85675 0.53428 0.0
C220 C 0.10974 0.85739 0.55153 0.0
C221 C 0.14706 0.85966 0.53166 0.0
C222 C 0.15558 0.86514 0.56374 0.0
C223 C 0.11476 0.85776 0.58454 0.0
O224 O 0.11093 0.85852 0.63969 0.0
O225 O 0.08686 0.87932 0.63023 0.0
O226 O 0.10445 0.87465 0.58857 0.0
O227 O 0.12847 0.85375 0.59792 0.0
H228 H 0.07893 0.8277 0.67017 0.0
H229 H 0.0327 0.78811 0.68099 0.0
H230 H 0.98804 0.798 0.63572 0.0
H231 H 0.03431 0.83776 0.6248 0.0
H232 H 0.25199 0.98948 0.65584 0.0
H233 H 0.22089 0.94647 0.63841 0.0
H234 H 0.19157 0.01948 0.6464 0.0
H235 H 0.16027 0.97665 0.62911 0.0
H236 H 0.18667 0.86671 0.54462 0.0
H237 H 0.10515 0.85305 0.523 0.0
H238 H 0.08794 0.85408 0.55326 0.0
H239 H 0.16974 0.86803 0.57497 0.0
C240 C 0.8962 0.50217 0.73492 0.0
C241 C 0.90505 0.52611 0.74589 0.0
C242 C 0.88711 0.5468 0.72379 0.0
C243 C 0.90057 0.54837 0.74032 0.0
C244 C 0.87841 0.52287 0.71292 0.0
C245 C 0.88296 0.5008 0.71844 0.0
U246 U 0.91738 0.45982 0.76755 0.0
O247 O 0.89472 0.41366 0.77215 0.0
O248 O 0.93918 0.43521 0.7613 0.0
C249 C 0.91592 0.41079 0.76522 0.0
C250 C 0.90007 0.47809 0.74018 0.0
C251 C 0.90755 0.38726 0.7523 0.0
C252 C 0.91975 0.35446 0.73769 0.0
C253 C 0.92791 0.37876 0.74802 0.0
C254 C 0.87085 0.34714 0.73512 0.0
C255 C 0.89102 0.33814 0.7315 0.0
C256 C 0.87903 0.37153 0.74543 0.0
C257 C 0.94599 0.48879 0.81511 0.0
C258 C 0.98268 0.4892 0.83498 0.0
C259 C 0.94353 0.49499 0.84713 0.0
C260 C 0.93207 0.4925 0.82997 0.0
C261 C 0.96924 0.49398 0.84968 0.0
C262 C 0.97113 0.48658 0.81779 0.0
C263 C 0.93525 0.48991 0.79703 0.0
O264 O 0.92705 0.48356 0.74223 0.0
O265 O 0.88227 0.46111 0.75255 0.0
O266 O 0.9077 0.47163 0.79375 0.0
O267 O 0.95255 0.49353 0.78346 0.0
H268 H 0.91528 0.52751 0.75869 0.0
H269 H 0.90737 0.56669 0.74889 0.0
H270 H 0.86797 0.52127 0.70017 0.0
H271 H 0.876 0.48249 0.70983 0.0
H272 H 0.93557 0.34779 0.73506 0.0
H273 H 0.94996 0.39042 0.75318 0.0
H274 H 0.84856 0.33475 0.73046 0.0
H275 H 0.8628 0.3775 0.74847 0.0
H276 H 1.00256 0.48836 0.83678 0.0
H277 H 0.93294 0.49868 0.85834 0.0
H278 H 0.91276 0.49437 0.82824 0.0
H279 H 0.98233 0.48367 0.8066 0.0
C280 C 0.63275 0.51018 0.73644 0.0
C281 C 0.65388 0.52792 0.74895 0.0
C282 C 0.68621 0.55624 0.72472 0.0
C283 C 0.68048 0.55089 0.7431 0.0
C284 C 0.66498 0.53864 0.71233 0.0
C285 C 0.63848 0.51591 0.71815 0.0
U286 U 0.5693 0.46307 0.76908 0.0
O287 O 0.52239 0.4377 0.76284 0.0
O288 O 0.5462 0.41646 0.77188 0.0
C289 C 0.52152 0.41334 0.76562 0.0
C290 C 0.60502 0.48492 0.74175 0.0
C291 C 0.50528 0.39029 0.75235 0.0
C292 C 0.49609 0.34624 0.73789 0.0
C293 C 0.51421 0.37053 0.74799 0.0
C294 C 0.46029 0.36144 0.73562 0.0
C295 C 0.46868 0.34117 0.73201 0.0
C296 C 0.47838 0.38572 0.7457 0.0
C297 C 0.57054 0.48898 0.81776 0.0
C298 C 0.53527 0.46428 0.84141 0.0
C299 C 0.57813 0.50933 0.84745 0.0
C300 C 0.58691 0.51101 0.8297 0.0
C301 C 0.55344 0.48475 0.85428 0.0
C302 C 0.54413 0.46596 0.82354 0.0
C303 C 0.58167 0.49117 0.79944 0.0
O304 O 0.60663 0.46766 0.75347 0.0
O305 O 0.58275 0.48885 0.74444 0.0
O306 O 0.56676 0.49447 0.78651 0.0
O307 O 0.59102 0.47356 0.79532 0.0
H308 H 0.64994 0.52386 0.76314 0.0
H309 H 0.69671 0.56423 0.75284 0.0
H310 H 0.66904 0.54243 0.69812 0.0
H311 H 0.6225 0.50247 0.70831 0.0
H312 H 0.50288 0.33076 0.73532 0.0
H313 H 0.53464 0.37316 0.75296 0.0
H314 H 0.43916 0.35785 0.7313 0.0
H315 H 0.47071 0.40032 0.74897 0.0
H316 H 0.51384 0.44709 0.84458 0.0
H317 H 0.59096 0.52786 0.85562 0.0
H318 H 0.60665 0.52975 0.82528 0.0
H319 H 0.53027 0.4494 0.81423 0.0
C320 C 0.51351 0.127 0.73581 0.0
C321 C 0.50077 0.11765 0.71889 0.0
C322 C 0.46584 0.13347 0.72475 0.0
C323 C 0.47729 0.12091 0.71338 0.0
C324 C 0.47803 0.14224 0.7419 0.0
C325 C 0.50168 0.13906 0.7474 0.0
U326 U 0.56481 0.11351 0.76687 0.0
O327 O 0.5906 0.09291 0.76037 0.0
O328 O 0.61281 0.13771 0.76857 0.0
C329 C 0.61565 0.11607 0.76341 0.0
C330 C 0.54024 0.12573 0.74025 0.0
C331 C 0.64021 0.12202 0.75136 0.0
C332 C 0.66919 0.14181 0.72432 0.0
C333 C 0.64487 0.13619 0.73489 0.0
C334 C 0.68427 0.11931 0.7466 0.0
C335 C 0.6892 0.13353 0.7302 0.0
C336 C 0.66006 0.1136 0.75702 0.0
C337 C 0.54088 0.08892 0.81624 0.0
C338 C 0.53705 0.05264 0.83716 0.0
C339 C 0.53927 0.09551 0.84837 0.0
C340 C 0.54146 0.10546 0.83085 0.0
C341 C 0.5363 0.06872 0.85161 0.0
C342 C 0.53931 0.06262 0.8196 0.0
C343 C 0.53796 0.09782 0.79791 0.0
O344 O 0.55886 0.14486 0.75144 0.0
O345 O 0.53703 0.10033 0.74275 0.0
O346 O 0.53334 0.08002 0.78475 0.0
O347 O 0.55556 0.12453 0.79351 0.0
H348 H 0.50951 0.10839 0.70969 0.0
H349 H 0.46834 0.1141 0.7001 0.0
H350 H 0.4696 0.15205 0.75087 0.0
H351 H 0.51103 0.14651 0.76052 0.0
H352 H 0.67252 0.15271 0.71166 0.0
H353 H 0.62985 0.14292 0.73026 0.0
H354 H 0.69928 0.11265 0.75138 0.0
H355 H 0.65692 0.10268 0.76967 0.0
H356 H 0.53478 0.03189 0.83944 0.0
H357 H 0.53869 0.10818 0.85936 0.0
H358 H 0.54237 0.12564 0.82869 0.0
H359 H 0.53868 0.04924 0.80869 0.0
C360 C 0.72805 0.5536 0.98264 0.0
C361 C 0.70978 0.55694 0.9704 0.0
C362 C 0.6747 0.54847 0.99419 0.0
C363 C 0.68326 0.55438 0.97615 0.0
C364 C 0.69307 0.54525 1.00634 0.0
C365 C 0.71949 0.54789 1.00062 0.0
U366 U 0.79154 0.5684 0.94987 0.0
O367 O 0.83829 0.58691 0.95601 0.0
O368 O 0.81327 0.543 0.94625 0.0
C369 C 0.83865 0.56357 0.9518 0.0
C370 C 0.75566 0.55501 0.97723 0.0
C371 C 0.85662 0.55567 0.96303 0.0
C372 C 0.87113 0.54429 0.9915 0.0
C373 C 0.85208 0.55011 0.98148 0.0
C374 C 0.89894 0.54926 0.96474 0.0
C375 C 0.89505 0.54433 0.98319 0.0
C376 C 0.87996 0.55483 0.9548 0.0
C377 C 0.79126 0.59571 0.90155 0.0
C378 C 0.82923 0.61232 0.87885 0.0
C379 C 0.78184 0.60508 0.87122 0.0
C380 C 0.77263 0.597 0.88883 0.0
C381 C 0.80957 0.61054 0.86525 0.0
C382 C 0.81998 0.60422 0.89659 0.0
C383 C 0.78011 0.58656 0.9199 0.0
O384 O 0.75371 0.53655 0.96517 0.0
O385 O 0.77837 0.58047 0.97484 0.0
O386 O 0.7954 0.60353 0.93304 0.0
O387 O 0.76977 0.55953 0.92362 0.0
H388 H 0.71585 0.56124 0.95645 0.0
H389 H 0.66926 0.55668 0.96653 0.0
H390 H 0.68683 0.54046 1.02023 0.0
H391 H 0.73317 0.54512 1.01026 0.0
H392 H 0.8677 0.54049 1.00573 0.0
H393 H 0.83421 0.55065 0.98812 0.0
H394 H 0.91713 0.54935 0.95804 0.0
H395 H 0.88388 0.55904 0.94061 0.0
H396 H 0.85209 0.62063 0.87631 0.0
H397 H 0.76688 0.60746 0.86256 0.0
H398 H 0.75082 0.59205 0.89257 0.0
H399 H 0.83537 0.60498 0.90645 0.0
C400 C 0.4628 0.17981 0.98162 0.0
C401 C 0.4523 0.15532 0.97095 0.0
C402 C 0.47132 0.13456 0.99229 0.0
C403 C 0.45653 0.13278 0.97628 0.0
C404 C 0.4819 0.15912 1.00281 0.0
C405 C 0.47766 0.18152 0.99751 0.0
U406 U 0.44287 0.22301 0.94903 0.0
O407 O 0.41891 0.24579 0.95448 0.0
O408 O 0.46441 0.26939 0.94549 0.0
C409 C 0.44167 0.27084 0.95113 0.0
C410 C 0.45856 0.20388 0.97675 0.0
C411 C 0.44757 0.2938 0.9639 0.0
C412 C 0.47255 0.32288 0.98986 0.0
C413 C 0.46575 0.29943 0.97886 0.0
C414 C 0.44258 0.33481 0.97132 0.0
C415 C 0.46136 0.341 0.98597 0.0
C416 C 0.43574 0.31141 0.96041 0.0
C417 C 0.41963 0.19582 0.90064 0.0
C418 C 0.41059 0.2206 0.87658 0.0
C419 C 0.40578 0.17469 0.87122 0.0
C420 C 0.41271 0.17325 0.88904 0.0
C421 C 0.4071 0.1995 0.86404 0.0
C422 C 0.4176 0.21916 0.89451 0.0
C423 C 0.42874 0.19415 0.91898 0.0
O424 O 0.47723 0.22217 0.96522 0.0
O425 O 0.43157 0.19786 0.97383 0.0
O426 O 0.40985 0.18964 0.93172 0.0
O427 O 0.45563 0.21318 0.92324 0.0
H428 H 0.44084 0.15362 0.95859 0.0
H429 H 0.44827 0.11398 0.96798 0.0
H430 H 0.4934 0.16091 1.01516 0.0
H431 H 0.48595 0.20024 1.00589 0.0
H432 H 0.48711 0.32735 1.00111 0.0
H433 H 0.47511 0.28609 0.9818 0.0
H434 H 0.43376 0.34851 0.96809 0.0
H435 H 0.42167 0.30742 0.94895 0.0
H436 H 0.40749 0.23817 0.87311 0.0
H437 H 0.39918 0.15587 0.86325 0.0
H438 H 0.41269 0.15433 0.89376 0.0
H439 H 0.42132 0.2362 0.90358 0.0
C440 C 0.7232 0.17509 0.98046 0.0
C441 C 0.70847 0.15031 0.97005 0.0
C442 C 0.67034 0.12869 0.99272 0.0
C443 C 0.68212 0.12722 0.97616 0.0
C444 C 0.68518 0.15348 1.003 0.0
C445 C 0.71128 0.17643 0.9969 0.0
U446 U 0.78812 0.22181 0.94823 0.0
O447 O 0.81023 0.26836 0.945 0.0
O448 O 0.8345 0.24843 0.95549 0.0
C449 C 0.83484 0.27236 0.95193 0.0
C450 C 0.7511 0.19997 0.97497 0.0
C451 C 0.8501 0.29649 0.96468 0.0
C452 C 0.88528 0.32019 0.98881 0.0
C453 C 0.86691 0.2955 0.97903 0.0
C454 C 0.86962 0.34701 0.9706 0.0
C455 C 0.88744 0.34633 0.98427 0.0
C456 C 0.85122 0.32242 0.96091 0.0
C457 C 0.79068 0.19701 0.89969 0.0
C458 C 0.82878 0.20094 0.87961 0.0
C459 C 0.78214 0.19106 0.86757 0.0
C460 C 0.77252 0.19204 0.88481 0.0
C461 C 0.81012 0.19499 0.86489 0.0
C462 C 0.81916 0.20195 0.89691 0.0
C463 C 0.77824 0.19421 0.91782 0.0
O464 O 0.77345 0.19599 0.9728 0.0
O465 O 0.74974 0.21685 0.96285 0.0
O466 O 0.76763 0.21093 0.92157 0.0
O467 O 0.79223 0.19085 0.93131 0.0
H468 H 0.7173 0.14884 0.9573 0.0
H469 H 0.67093 0.10825 0.96803 0.0
H470 H 0.67648 0.15506 1.01577 0.0
H471 H 0.7223 0.19533 1.00511 0.0
H472 H 0.89888 0.31922 0.99931 0.0
H473 H 0.86683 0.27599 0.98223 0.0
H474 H 0.87093 0.36692 0.96687 0.0
H475 H 0.83885 0.32406 0.94988 0.0
H476 H 0.85047 0.20402 0.87776 0.0
H477 H 0.76747 0.18643 0.85636 0.0
H478 H 0.75047 0.18802 0.88658 0.0
H479 H 0.83369 0.20583 0.90809 0.0
C480 C 0.5617 0.83696 0.07325 0.0
C481 C 0.58499 0.8652 0.07235 0.0
C482 C 0.5522 0.88116 0.06135 0.0
C483 C 0.58024 0.8871 0.06644 0.0
C484 C 0.52886 0.8532 0.06271 0.0
C485 C 0.53359 0.83133 0.06858 0.0
U486 U 0.58552 0.7941 0.10369 0.0
O487 O 0.5646 0.74791 0.10777 0.0
O488 O 0.60847 0.77105 0.09614 0.0
C489 C 0.58597 0.7461 0.10011 0.0
C490 C 0.56632 0.81275 0.07749 0.0
C491 C 0.57778 0.72285 0.08692 0.0
C492 C 0.59196 0.69365 0.06952 0.0
C493 C 0.59948 0.71796 0.07977 0.0
C494 C 0.5409 0.67915 0.07274 0.0
C495 C 0.56257 0.6737 0.06637 0.0
C496 C 0.54839 0.70349 0.08289 0.0
C497 C 0.61577 0.82485 0.15107 0.0
C498 C 0.62106 0.80187 0.17769 0.0
C499 C 0.64174 0.85305 0.17699 0.0
C500 C 0.63155 0.85127 0.15957 0.0
C501 C 0.63639 0.82842 0.18622 0.0
C502 C 0.61073 0.80007 0.16016 0.0
C503 C 0.6037 0.82419 0.1332 0.0
O504 O 0.59341 0.81816 0.07865 0.0
O505 O 0.54914 0.79471 0.08968 0.0
O506 O 0.57642 0.8046 0.1304 0.0
O507 O 0.62081 0.82821 0.11948 0.0
H508 H 0.60694 0.8703 0.07584 0.0
H509 H 0.59848 0.90861 0.06555 0.0
H510 H 0.50707 0.84824 0.0589 0.0
H511 H 0.5153 0.80981 0.06906 0.0
H512 H 0.60895 0.68969 0.06481 0.0
H513 H 0.62226 0.73235 0.08275 0.0
H514 H 0.51808 0.66391 0.07049 0.0
H515 H 0.53106 0.70648 0.08817 0.0
H516 H 0.6168 0.78266 0.18467 0.0
H517 H 0.65356 0.87367 0.18337 0.0
H518 H 0.63558 0.87058 0.15281 0.0
H519 H 0.59854 0.77945 0.15383 0.0
C520 C 0.30019 0.83944 0.0703 0.0
C521 C 0.31543 0.86376 0.08106 0.0
C522 C 0.35297 0.88605 0.05812 0.0
C523 C 0.34171 0.88696 0.07498 0.0
C524 C 0.33763 0.86175 0.04747 0.0
C525 C 0.31153 0.83869 0.05352 0.0
U526 U 0.23749 0.79439 0.10378 0.0
O527 O 0.19048 0.76772 0.09827 0.0
O528 O 0.21532 0.74806 0.10822 0.0
C529 C 0.18999 0.74397 0.10257 0.0
C530 C 0.27253 0.81441 0.07599 0.0
C531 C 0.17299 0.71918 0.09082 0.0
C532 C 0.16486 0.69338 0.06283 0.0
C533 C 0.18189 0.71755 0.07338 0.0
C534 C 0.1301 0.67238 0.087 0.0
C535 C 0.13883 0.67062 0.0696 0.0
C536 C 0.14701 0.69643 0.09748 0.0
C537 C 0.239 0.82308 0.15151 0.0
C538 C 0.20034 0.80375 0.17376 0.0
C539 C 0.2485 0.84067 0.18198 0.0
C540 C 0.25796 0.84155 0.16446 0.0
C541 C 0.22005 0.82015 0.18756 0.0
C542 C 0.20987 0.80461 0.15614 0.0
C543 C 0.25019 0.8247 0.13325 0.0
O544 O 0.2745 0.79801 0.08821 0.0
O545 O 0.25018 0.81832 0.07844 0.0
O546 O 0.23488 0.82679 0.12009 0.0
O547 O 0.26017 0.80739 0.1297 0.0
H548 H 0.30707 0.86476 0.09408 0.0
H549 H 0.3533 0.90553 0.0834 0.0
H550 H 0.34595 0.86062 0.03446 0.0
H551 H 0.30015 0.82014 0.04505 0.0
H552 H 0.17195 0.69238 0.04941 0.0
H553 H 0.20188 0.73487 0.06799 0.0
H554 H 0.11014 0.6551 0.09246 0.0
H555 H 0.13976 0.69727 0.11089 0.0
H556 H 0.17728 0.79067 0.176 0.0
H557 H 0.26383 0.85686 0.19089 0.0
H558 H 0.28021 0.85706 0.16097 0.0
H559 H 0.19437 0.79115 0.14609 0.0
C560 C 0.18188 0.46476 0.06807 0.0
C561 C 0.15753 0.45571 0.07929 0.0
C562 C 0.13399 0.47076 0.05708 0.0
C563 C 0.13373 0.45871 0.07382 0.0
C564 C 0.15836 0.47981 0.04597 0.0
C565 C 0.18203 0.47683 0.05142 0.0
U566 U 0.22946 0.44711 0.09992 0.0
O567 O 0.25606 0.42761 0.09297 0.0
O568 O 0.27725 0.47123 0.10336 0.0
C569 C 0.28082 0.45071 0.09678 0.0
C570 C 0.20752 0.46209 0.0731 0.0
C571 C 0.30594 0.45912 0.08452 0.0
C572 C 0.32799 0.45172 0.05786 0.0
C573 C 0.30311 0.44599 0.06782 0.0
C574 C 0.35876 0.48414 0.08087 0.0
C575 C 0.35604 0.47031 0.06457 0.0
C576 C 0.33403 0.47861 0.09072 0.0
C577 C 0.20109 0.41999 0.14845 0.0
C578 C 0.22203 0.40469 0.17204 0.0
C579 C 0.17988 0.40915 0.17817 0.0
C580 C 0.17971 0.41727 0.16047 0.0
C581 C 0.20248 0.40498 0.18496 0.0
C582 C 0.22185 0.41286 0.15419 0.0
C583 C 0.20007 0.42948 0.13007 0.0
O584 O 0.22521 0.48006 0.08512 0.0
O585 O 0.20319 0.43621 0.07525 0.0
O586 O 0.19731 0.4123 0.1169 0.0
O587 O 0.21811 0.45639 0.12641 0.0
H588 H 0.15694 0.44639 0.09221 0.0
H589 H 0.11515 0.45167 0.08262 0.0
H590 H 0.15905 0.48922 0.03307 0.0
H591 H 0.20059 0.48401 0.04258 0.0
H592 H 0.32543 0.44103 0.04522 0.0
H593 H 0.28181 0.43078 0.06267 0.0
H594 H 0.38015 0.49875 0.08622 0.0
H595 H 0.33692 0.48889 0.10356 0.0
H596 H 0.2372 0.39755 0.17513 0.0
H597 H 0.16163 0.40584 0.18632 0.0
H598 H 0.16251 0.42124 0.15612 0.0
H599 H 0.23769 0.41329 0.14485 0.0
C600 C 0.3922 0.87989 0.31468 0.0
C601 C 0.37557 0.88607 0.30273 0.0
C602 C 0.33853 0.87435 0.32573 0.0
C603 C 0.34889 0.88332 0.30825 0.0
C604 C 0.35513 0.86808 0.33756 0.0
C605 C 0.38169 0.87083 0.33207 0.0
U606 U 0.45791 0.89779 0.28302 0.0
O607 O 0.50442 0.91749 0.2902 0.0
O608 O 0.48126 0.8739 0.27977 0.0
C609 C 0.5057 0.89444 0.28648 0.0
C610 C 0.4205 0.88254 0.30966 0.0
C611 C 0.52217 0.88604 0.29888 0.0
C612 C 0.55507 0.89583 0.32424 0.0
C613 C 0.53606 0.90176 0.31438 0.0
C614 C 0.54618 0.85809 0.30358 0.0
C615 C 0.56081 0.87437 0.31865 0.0
C616 C 0.52714 0.86387 0.29382 0.0
C617 C 0.45948 0.92519 0.23446 0.0
C618 C 0.49667 0.95937 0.21429 0.0
C619 C 0.45046 0.92286 0.20239 0.0
C620 C 0.44132 0.91217 0.21964 0.0
C621 C 0.47795 0.94683 0.19964 0.0
C622 C 0.48753 0.94865 0.2316 0.0
C623 C 0.44732 0.91549 0.25263 0.0
O624 O 0.41982 0.86471 0.29755 0.0
O625 O 0.44263 0.90846 0.30765 0.0
O626 O 0.46101 0.9325 0.26613 0.0
O627 O 0.43744 0.88851 0.25634 0.0
H628 H 0.38325 0.89309 0.28924 0.0
H629 H 0.33641 0.88837 0.29895 0.0
H630 H 0.3476 0.86127 0.35109 0.0
H631 H 0.39417 0.86596 0.34148 0.0
H632 H 0.56596 0.90851 0.33591 0.0
H633 H 0.53294 0.91913 0.31862 0.0
H634 H 0.55011 0.84133 0.29908 0.0
H635 H 0.51705 0.85158 0.28188 0.0
H636 H 0.51799 0.97792 0.21237 0.0
H637 H 0.43574 0.91296 0.19124 0.0
H638 H 0.41959 0.8942 0.22148 0.0
H639 H 0.50204 0.95919 0.24273 0.0
C640 C 0.12935 0.50015 0.2933 0.0
C641 C 0.15214 0.49527 0.28846 0.0
C642 C 0.14296 0.46528 0.31457 0.0
C643 C 0.15893 0.47804 0.29901 0.0
C644 C 0.12095 0.47097 0.31988 0.0
C645 C 0.11415 0.48824 0.30933 0.0
U646 U 0.11617 0.56146 0.27837 0.0
O647 O 0.15034 0.59777 0.29319 0.0
O648 O 0.1058 0.57473 0.30389 0.0
C649 C 0.13217 0.59679 0.30552 0.0
C650 C 0.12006 0.5151 0.28057 0.0
C651 C 0.13412 0.62408 0.31057 0.0
C652 C 0.15355 0.67493 0.30629 0.0
C653 C 0.14957 0.64884 0.30016 0.0
C654 C 0.12601 0.6519 0.33302 0.0
C655 C 0.14214 0.67667 0.32286 0.0
C656 C 0.12208 0.62584 0.32692 0.0
C657 C 0.08445 0.56031 0.23136 0.0
C658 C 0.04768 0.54942 0.20849 0.0
C659 C 0.08966 0.54432 0.20189 0.0
C660 C 0.10003 0.55294 0.21932 0.0
C661 C 0.06361 0.5429 0.19635 0.0
C662 C 0.05802 0.55806 0.22583 0.0
C663 C 0.09604 0.57254 0.24916 0.0
O664 O 0.14077 0.53911 0.2738 0.0
O665 O 0.09621 0.51584 0.28443 0.0
O666 O 0.12394 0.58218 0.25208 0.0
O667 O 0.07948 0.55896 0.26293 0.0
H668 H 0.16407 0.504 0.27615 0.0
H669 H 0.17594 0.47383 0.29469 0.0
H670 H 0.10838 0.46123 0.33185 0.0
H671 H 0.09642 0.49149 0.31345 0.0
H672 H 0.1659 0.69386 0.29824 0.0
H673 H 0.15905 0.6482 0.28748 0.0
H674 H 0.1169 0.65286 0.34577 0.0
H675 H 0.11014 0.60709 0.33518 0.0
H676 H 0.02753 0.54841 0.20439 0.0
H677 H 0.10218 0.53934 0.19263 0.0
H678 H 0.12047 0.55444 0.22322 0.0
H679 H 0.0457 0.56371 0.23483 0.0
C680 C 0.39024 0.50557 0.31293 0.0
C681 C 0.37371 0.48269 0.30134 0.0
C682 C 0.3366 0.4594 0.32442 0.0
C683 C 0.347 0.45974 0.30707 0.0
C684 C 0.35316 0.48226 0.33591 0.0
C685 C 0.37972 0.50512 0.3302 0.0
U686 U 0.4557 0.54935 0.28083 0.0
O687 O 0.47989 0.5957 0.2765 0.0
O688 O 0.50232 0.5745 0.28785 0.0
C689 C 0.50403 0.59886 0.2837 0.0
C690 C 0.41853 0.53017 0.30765 0.0
C691 C 0.52 0.62321 0.29622 0.0
C692 C 0.55744 0.6477 0.31909 0.0
C693 C 0.53924 0.62307 0.30924 0.0
C694 C 0.5371 0.67292 0.30348 0.0
C695 C 0.55682 0.67294 0.31605 0.0
C696 C 0.51897 0.6484 0.29366 0.0
C697 C 0.45571 0.51863 0.23361 0.0
C698 C 0.4857 0.54212 0.20749 0.0
C699 C 0.45354 0.49103 0.20752 0.0
C700 C 0.44448 0.49245 0.2248 0.0
C701 C 0.47409 0.51578 0.19869 0.0
C702 C 0.47655 0.54355 0.2249 0.0
C703 C 0.44409 0.51888 0.25149 0.0
O704 O 0.44054 0.52554 0.30612 0.0
O705 O 0.41792 0.54669 0.29498 0.0
O706 O 0.43551 0.53752 0.25418 0.0
O707 O 0.45785 0.51597 0.26525 0.0
H708 H 0.38144 0.48259 0.28796 0.0
H709 H 0.33449 0.44221 0.29802 0.0
H710 H 0.34552 0.48236 0.34932 0.0
H711 H 0.39216 0.52254 0.33933 0.0
H712 H 0.57255 0.64731 0.32871 0.0
H713 H 0.54095 0.60422 0.31144 0.0
H714 H 0.53632 0.6922 0.30092 0.0
H715 H 0.50483 0.6495 0.28359 0.0
H716 H 0.50161 0.56144 0.20085 0.0
H717 H 0.44438 0.47055 0.20095 0.0
H718 H 0.42835 0.47303 0.23125 0.0
H719 H 0.48548 0.564 0.23146 0.0
Eu720 Eu 0.50405 0.99328 1.00275 0.0
C721 C 0.55572 0.08799 0.0595 0.0
C722 C 0.60709 0.10339 0.05763 0.0
C723 C 0.59166 0.13758 0.06471 0.0
C724 C 0.57763 0.08194 0.05612 0.0
C725 C 0.56243 0.11565 0.06446 0.0
C726 C 0.61399 0.13145 0.06129 0.0
C727 C 0.51137 0.09695 0.07101 0.0
N728 N 0.52787 0.06621 0.05944 0.0
C729 C 0.50597 0.06985 0.06617 0.0
C730 C 0.53966 0.1201 0.06979 0.0
Eu731 Eu 0.51967 0.02169 0.04878 0.0
N732 N 0.57009 0.05457 0.05282 0.0
C733 C 0.59087 0.04663 0.05302 0.0
C734 C 0.62863 0.09572 0.05626 0.0
C735 C 0.62042 0.06708 0.05448 0.0
H736 H 0.48416 0.0519 0.06729 0.0
H737 H 0.63682 0.06074 0.05403 0.0
H738 H 0.6365 0.14832 0.06221 0.0
H739 H 0.49375 0.09992 0.07572 0.0
H740 H 0.585 0.02466 0.05165 0.0
H741 H 0.38623 0.94981 0.99748 0.0
H742 H 0.65153 0.11153 0.05732 0.0
H743 H 0.54197 0.96589 0.98387 0.0
H744 H 0.43758 0.98742 0.99998 0.0
H745 H 0.5346 0.91878 0.97504 0.0
H746 H 0.59728 0.15909 0.06823 0.0
H747 H 0.37368 0.89963 0.99385 0.0
H748 H 0.39089 0.86453 0.98859 0.0
H749 H 0.54388 0.14104 0.07368 0.0
H750 H 0.43159 0.85599 0.98239 0.0
N751 N 0.45416 0.95889 0.99859 0.0
C752 C 0.43255 0.96569 0.99846 0.0
C753 C 0.39633 0.9161 0.99497 0.0
C754 C 0.41874 0.90964 0.99349 0.0
C755 C 0.40332 0.94439 0.99695 0.0
C756 C 0.44781 0.9319 0.9951 0.0
H757 H 0.48538 0.87624 0.97694 0.0
N758 N 0.49796 0.94965 0.99185 0.0
C759 C 0.51641 0.92074 0.97987 0.0
C760 C 0.47055 0.92708 0.99168 0.0
C761 C 0.52056 0.94731 0.98493 0.0
C762 C 0.48862 0.89678 0.98101 0.0
C763 C 0.46508 0.89991 0.98647 0.0
O764 O 0.52998 0.00893 0.97833 0.0
O765 O 0.53559 0.02887 1.02041 0.0
O766 O 0.50704 0.0499 0.03336 0.0
O767 O 0.48655 0.02374 1.00723 0.0
O768 O 0.55302 0.01352 1.0018 0.0
O769 O 0.48892 0.00807 0.98014 0.0
O770 O 0.4946 0.00882 0.07363 0.0
O771 O 0.48808 0.98628 0.03109 0.0
O772 O 0.51677 0.96495 1.01802 0.0
O773 O 0.53596 0.99031 0.04456 0.0
O774 O 0.47062 1.0014 0.04978 0.0
O775 O 0.5329 1.00466 0.07108 0.0
C776 C 0.55947 0.03243 1.01404 0.0
C777 C 0.50386 1.00203 0.95165 0.0
C778 C 0.50738 0.0103 0.91952 0.0
C779 C 0.51389 0.02091 0.93706 0.0
C780 C 0.4909 0.98084 0.91671 0.0
C781 C 0.4873 0.97266 0.94861 0.0
C782 C 0.48095 0.96215 0.9312 0.0
C783 C 0.49316 0.04556 1.01795 0.0
C784 C 0.51089 0.01307 0.96994 0.0
C785 C 0.43626 0.87715 0.98609 0.0
C786 C 0.41309 0.88202 0.98962 0.0
C787 C 0.46417 0.98256 0.0375 0.0
C788 C 0.5211 0.01318 0.09983 0.0
C789 C 0.50867 0.99493 0.11456 0.0
C790 C 0.51719 1.0054 0.13201 0.0
C791 C 0.53801 0.03414 0.13458 0.0
C792 C 0.54195 0.04183 0.10261 0.0
C793 C 0.55033 0.05223 0.11994 0.0
C794 C 0.52995 0.96887 0.03366 0.0
C795 C 0.51224 1.0022 0.08165 0.0
H796 H 0.52655 0.04366 0.93931 0.0
H797 H 0.48563 0.97237 0.90327 0.0
H798 H 0.47919 0.95787 0.95965 0.0
H799 H 0.46818 0.93945 0.92894 0.0
H800 H 0.49248 0.97277 0.11249 0.0
H801 H 0.54468 0.04254 0.14795 0.0
H802 H 0.55179 0.05611 0.09142 0.0
H803 H 0.56639 0.07437 0.12202 0.0
Eu804 Eu 0.03451 0.52024 1.00098 0.0
C805 C 0.92962 0.47222 0.05251 0.0
C806 C 0.91487 0.50784 0.05223 0.0
C807 C 0.87869 0.45813 0.05686 0.0
C808 C 0.93656 0.50017 0.05041 0.0
C809 C 0.90075 0.45094 0.05623 0.0
C810 C 0.88574 0.48657 0.05485 0.0
C811 C 0.91809 0.41758 0.05978 0.0
N812 N 0.95151 0.46614 0.05198 0.0
C813 C 0.9464 0.43948 0.05616 0.0
C814 C 0.89509 0.42325 0.05962 0.0
Eu815 Eu 0.99841 0.50378 0.04421 0.0
N816 N 0.96495 0.52015 0.04823 0.0
C817 C 0.97359 0.54828 0.0499 0.0
C818 C 0.92335 0.53675 0.05229 0.0
C819 C 0.95295 0.55706 0.05167 0.0
H820 H 0.96405 0.43489 0.05616 0.0
H821 H 0.95989 0.57947 0.05248 0.0
H822 H 0.86869 0.492 0.05602 0.0
H823 H 0.91403 0.39634 0.06265 0.0
H824 H 0.99641 0.56409 0.04976 0.0
H825 H 0.0821 0.45155 0.99587 0.0
H826 H 0.90739 0.54357 0.05366 0.0
H827 H 0.06417 0.58861 0.98791 0.0
H828 H 0.04234 0.46288 0.99768 0.0
H829 H 0.11308 0.62974 0.98216 0.0
H830 H 0.85628 0.44203 0.05945 0.0
H831 H 0.13343 0.49047 0.99476 0.0
H832 H 0.16893 0.54293 0.99212 0.0
H833 H 0.87317 0.40626 0.06247 0.0
H834 H 0.17735 0.59152 0.98808 0.0
N835 N 0.07096 0.50751 0.99832 0.0
C836 C 0.06469 0.47994 0.99738 0.0
C837 C 0.11607 0.49551 0.99559 0.0
C838 C 0.12214 0.52375 0.99512 0.0
C839 C 0.08714 0.47349 0.99619 0.0
C840 C 0.09873 0.5291 0.99623 0.0
H841 H 0.15659 0.62404 0.98401 0.0
N842 N 0.08008 0.56036 0.99373 0.0
C843 C 0.11069 0.60927 0.98553 0.0
C844 C 0.10346 0.55638 0.99374 0.0
C845 C 0.08304 0.58597 0.9888 0.0
C846 C 0.1352 0.60597 0.98662 0.0
C847 C 0.13172 0.57915 0.9904 0.0
O848 O 0.01982 0.53059 0.97616 0.0
O849 O 0.99614 0.51592 1.01613 0.0
O850 O 0.96787 0.46901 0.02504 0.0
O851 O 1.00078 0.47231 1.00356 0.0
O852 O 0.01604 0.55023 0.99944 0.0
O853 O 0.02984 0.49658 0.97669 0.0
O854 O 1.00694 0.48873 0.06932 0.0
O855 O 0.03589 0.50641 0.02901 0.0
O856 O 0.06555 0.55505 1.01929 0.0
O857 O 0.03344 0.55165 0.04158 0.0
O858 O 1.01347 0.47146 0.04517 0.0
O859 O 0.01463 0.53177 0.06742 0.0
C860 C 0.99431 0.53687 1.01017 0.0
C861 C 0.03539 0.51992 0.94936 0.0
C862 C 0.03024 0.51959 0.91712 0.0
C863 C 0.01761 0.51234 0.93415 0.0
C864 C 0.06071 0.53479 0.91542 0.0
C865 C 0.0658 0.53501 0.94755 0.0
C866 C 0.07838 0.54247 0.93061 0.0
C867 C 0.97411 0.45897 1.01058 0.0
C868 C 0.02178 0.51132 0.96693 0.0
C869 C 0.15539 0.57424 0.99042 0.0
C870 C 0.1506 0.54657 0.99276 0.0
C871 C 0.03558 0.48417 0.03472 0.0
C872 C 1.00153 0.50938 0.09548 0.0
C873 C 0.01952 0.51703 0.11061 0.0
C874 C 1.00749 0.51415 0.12768 0.0
C875 C 0.97741 0.50344 0.12954 0.0
C876 C 0.97152 0.49883 0.09745 0.0
C877 C 0.95953 0.49584 0.11445 0.0
C878 C 0.05935 0.56515 0.03353 0.0
C879 C 0.01436 0.51232 0.0778 0.0
H880 H 0.99406 0.50068 0.93551 0.0
H881 H 0.07073 0.54068 0.90234 0.0
H882 H 0.07977 0.54082 0.95916 0.0
H883 H 0.10187 0.55414 0.92924 0.0
H884 H 0.04275 0.5252 0.10914 0.0
H885 H 0.96785 0.50106 0.14267 0.0
H886 H 0.95742 0.49291 0.08589 0.0
H887 H 0.93635 0.48764 0.11593 0.0
Eu888 Eu 0.52339 0.50024 0.04917 0.0
C889 C 0.46526 0.53912 0.99206 0.0
C890 C 0.41473 0.50306 0.99619 0.0
C891 C 0.42689 0.54948 0.98439 0.0
C892 C 0.44469 0.51214 0.99744 0.0
C893 C 0.45663 0.5578 0.98485 0.0
C894 C 0.40596 0.52218 0.99013 0.0
C895 C 0.50711 0.59009 0.97739 0.0
N896 N 0.49371 0.54638 0.9927 0.0
C897 C 0.51459 0.57096 0.98493 0.0
C898 C 0.47806 0.58374 0.97767 0.0
Eu899 Eu 0.50482 0.51256 1.00442 0.0
N900 N 0.45397 0.49421 1.00297 0.0
C901 C 0.43452 0.46621 1.006 0.0
C902 C 0.39457 0.47482 1.00056 0.0
C903 C 0.40453 0.45618 1.00521 0.0
H904 H 0.53708 0.57597 0.98482 0.0
H905 H 0.38918 0.43411 1.00817 0.0
H906 H 0.38305 0.51575 0.98929 0.0
H907 H 0.52377 0.6098 0.97154 0.0
H908 H 0.44215 0.45178 1.00938 0.0
H909 H 0.62002 0.59791 0.07318 0.0
H910 H 0.37134 0.46703 0.99989 0.0
H911 H 0.51982 0.43512 0.05126 0.0
H912 H 0.56792 0.56441 0.06982 0.0
H913 H 0.55191 0.41565 0.0458 0.0
H914 H 0.41981 0.56368 0.97915 0.0
H915 H 0.65614 0.58469 0.06309 0.0
H916 H 0.66606 0.54732 0.05107 0.0
H917 H 0.47233 0.59864 0.97191 0.0
H918 H 0.64724 0.49738 0.04266 0.0
N919 N 0.57358 0.53321 0.05576 0.0
C920 C 0.58306 0.55858 0.06443 0.0
C921 C 0.63308 0.56998 0.06121 0.0
C922 C 0.62328 0.54286 0.05417 0.0
C923 C 0.6128 0.57756 0.06683 0.0
C924 C 0.59298 0.52452 0.05191 0.0
H925 H 0.60467 0.44785 0.04112 0.0
N926 N 0.55318 0.4786 0.04756 0.0
C927 C 0.56078 0.43846 0.04579 0.0
C928 C 0.58241 0.49642 0.04732 0.0
C929 C 0.54251 0.44982 0.04856 0.0
C930 C 0.59049 0.45668 0.04313 0.0
C931 C 0.60186 0.48601 0.04471 0.0
O932 O 0.50181 0.46518 0.06822 0.0
O933 O 0.48588 0.49368 0.03127 0.0
O934 O 0.51424 0.55242 1.02043 0.0
O935 O 0.5333 0.54627 0.04706 0.0
O936 O 0.48722 0.50866 0.05668 0.0
O937 O 0.52582 0.50901 0.07798 0.0
O938 O 0.53035 0.52389 0.9797 0.0
O939 O 0.53898 0.50976 1.02084 0.0
O940 O 0.49818 0.4568 0.03563 0.0
O941 O 0.49617 0.46717 1.00567 0.0
O942 O 0.5524 0.54567 1.00508 0.0
O943 O 0.48929 0.48483 0.981 0.0
C944 C 0.47267 0.50167 0.04206 0.0
C945 C 0.50198 0.47167 0.10039 0.0
C946 C 0.49322 0.47834 0.13156 0.0
C947 C 0.50193 0.48935 0.11419 0.0
C948 C 0.48511 0.44992 0.13506 0.0
C949 C 0.49357 0.44325 0.1042 0.0
C950 C 0.48532 0.43253 0.12145 0.0
C951 C 0.52563 0.56126 0.03664 0.0
C952 C 0.50975 0.48219 0.08192 0.0
C953 C 0.63203 0.50488 0.04507 0.0
C954 C 0.64274 0.53327 0.04992 0.0
C955 C 0.56124 0.53247 1.01541 0.0
C956 C 0.50515 0.50595 0.95258 0.0
C957 C 0.51732 0.49839 0.93844 0.0
C958 C 0.51202 0.50286 0.92065 0.0
C959 C 0.49449 0.51497 0.91712 0.0
C960 C 0.48737 0.51769 0.94886 0.0
C961 C 0.4822 0.52228 0.93119 0.0
C962 C 0.49308 0.44937 1.01862 0.0
C963 C 0.51142 0.50151 0.97104 0.0
H964 H 0.50811 0.51127 0.11143 0.0
H965 H 0.47846 0.44118 0.14838 0.0
H966 H 0.49341 0.42928 0.09382 0.0
H967 H 0.47895 0.41061 0.12428 0.0
H968 H 0.53093 0.48909 0.94123 0.0
H969 H 0.4902 0.51854 0.90348 0.0
H970 H 0.47742 0.5232 0.95953 0.0
H971 H 0.46853 0.53145 0.92841 0.0
Eu972 Eu 0.1692 0.32374 0.33457 0.0
C973 C 0.22248 0.42312 0.38862 0.0
C974 C 0.27432 0.44059 0.38668 0.0
C975 C 0.25674 0.4735 0.39255 0.0
C976 C 0.24526 0.41815 0.38554 0.0
C977 C 0.22793 0.4507 0.39264 0.0
C978 C 0.27992 0.46844 0.38958 0.0
C979 C 0.17638 0.43064 0.3983 0.0
N980 N 0.19498 0.40057 0.38869 0.0
C981 C 0.17212 0.40364 0.39433 0.0
C982 C 0.20434 0.45436 0.39716 0.0
Eu983 Eu 0.18933 0.35616 0.37979 0.0
N984 N 0.23904 0.39098 0.38297 0.0
C985 C 0.26068 0.38429 0.38356 0.0
C986 C 0.29679 0.43412 0.38577 0.0
C987 C 0.28988 0.40574 0.38477 0.0
H988 H 0.15043 0.38536 0.39499 0.0
H989 H 0.30702 0.40036 0.38475 0.0
H990 H 0.30211 0.48604 0.39022 0.0
H991 H 0.1581 0.43315 0.40218 0.0
H992 H 0.25556 0.36243 0.38288 0.0
H993 H 0.05106 0.27774 0.33245 0.0
H994 H 0.31943 0.45072 0.38661 0.0
H995 H 0.20746 0.29655 0.31585 0.0
H996 H 0.10248 0.31605 0.33351 0.0
H997 H 0.20079 0.24954 0.30771 0.0
H998 H 0.26139 0.49495 0.39536 0.0
H999 H 0.03931 0.22772 0.32901 0.0
H1000 H 0.0573 0.19323 0.32346 0.0
H1001 H 0.2076 0.47524 0.40029 0.0
H1002 H 0.09838 0.1855 0.31668 0.0
N1003 N 0.11951 0.28825 0.33179 0.0
C1004 C 0.09755 0.29445 0.3322 0.0
C1005 C 0.06187 0.24455 0.32957 0.0
C1006 C 0.0846 0.23862 0.32758 0.0
C1007 C 0.06841 0.27273 0.33147 0.0
C1008 C 0.11354 0.26133 0.32853 0.0
H1009 H 0.15208 0.20651 0.31042 0.0
N1010 N 0.16354 0.28001 0.32418 0.0
C1011 C 0.18251 0.25128 0.3126 0.0
C1012 C 0.13643 0.25703 0.32465 0.0
C1013 C 0.18625 0.27785 0.31729 0.0
C1014 C 0.15501 0.22705 0.3142 0.0
C1015 C 0.13135 0.22984 0.31984 0.0
O1016 O 0.19404 0.33941 0.30977 0.0
O1017 O 0.20297 0.35903 0.35119 0.0
O1018 O 0.18029 0.3855 0.3629 0.0
O1019 O 0.15419 0.35643 0.33894 0.0
O1020 O 0.21778 0.34144 0.33244 0.0
O1021 O 0.1524 0.33731 0.31216 0.0
O1022 O 0.16462 0.34158 0.40463 0.0
O1023 O 0.15516 0.32091 0.36313 0.0
O1024 O 0.18125 0.29579 0.3509 0.0
O1025 O 0.20577 0.3249 0.37544 0.0
O1026 O 0.14084 0.33605 0.38355 0.0
O1027 O 0.2068 0.34458 0.40285 0.0
C1028 C 0.2259 0.36093 0.34443 0.0
C1029 C 0.16775 0.33324 0.28321 0.0
C1030 C 0.17326 0.34382 0.25127 0.0
C1031 C 0.17935 0.35301 0.26913 0.0
C1032 C 0.1557 0.3147 0.24765 0.0
C1033 C 0.15031 0.30421 0.27938 0.0
C1034 C 0.14436 0.29503 0.26165 0.0
C1035 C 0.16452 0.38045 0.34824 0.0
C1036 C 0.17443 0.3432 0.30176 0.0
C1037 C 0.10274 0.20666 0.3201 0.0
C1038 C 0.07936 0.21106 0.32396 0.0
C1039 C 0.13219 0.31754 0.3709 0.0
C1040 C 0.1913 0.35098 0.43121 0.0
C1041 C 0.18163 0.33265 0.44608 0.0
C1042 C 0.18625 0.34389 0.46347 0.0
C1043 C 0.20087 0.37352 0.4658 0.0
C1044 C 0.20597 0.3805 0.43379 0.0
C1045 C 0.21072 0.39168 0.45103 0.0
C1046 C 0.19676 0.30149 0.36582 0.0
C1047 C 0.18472 0.33911 0.41312 0.0
H1048 H 0.193 0.37548 0.27203 0.0
H1049 H 0.15083 0.30725 0.23398 0.0
H1050 H 0.14134 0.28872 0.29007 0.0
H1051 H 0.13088 0.2726 0.25876 0.0
H1052 H 0.17027 0.30979 0.44415 0.0
H1053 H 0.2047 0.38257 0.47909 0.0
H1054 H 0.21356 0.39486 0.4225 0.0
H1055 H 0.22199 0.41448 0.45295 0.0
Eu1056 Eu 0.69769 0.84479 0.33589 0.0
C1057 C 0.59788 0.79945 0.39352 0.0
C1058 C 0.57748 0.83022 0.3891 0.0
C1059 C 0.54765 0.78317 0.40195 0.0
C1060 C 0.6009 0.82491 0.38768 0.0
C1061 C 0.57157 0.77867 0.40134 0.0
C1062 C 0.55056 0.80886 0.39574 0.0
C1063 C 0.59543 0.75184 0.4088 0.0
N1064 N 0.62134 0.79572 0.39263 0.0
C1065 C 0.62086 0.77283 0.4006 0.0
C1066 C 0.57048 0.7545 0.40888 0.0
Eu1067 Eu 0.66447 0.83304 0.38041 0.0
N1068 N 0.62736 0.84523 0.38174 0.0
C1069 C 0.63263 0.87219 0.37853 0.0
C1070 C 0.58216 0.85719 0.38447 0.0
C1071 C 0.61002 0.87842 0.37945 0.0
H1072 H 0.64008 0.7707 0.4006 0.0
H1073 H 0.6141 0.89956 0.37626 0.0
H1074 H 0.53219 0.8124 0.39674 0.0
H1075 H 0.595 0.73353 0.4149 0.0
H1076 H 0.65401 0.88881 0.37462 0.0
H1077 H 0.6975 0.74524 0.31892 0.0
H1078 H 0.56469 0.86208 0.38526 0.0
H1079 H 0.7571 0.91064 0.32867 0.0
H1080 H 0.67751 0.77701 0.31926 0.0
H1081 H 0.81031 0.9336 0.33129 0.0
H1082 H 0.5271 0.76727 0.40765 0.0
H1083 H 0.74885 0.76301 0.32739 0.0
H1084 H 0.7975 0.80443 0.33524 0.0
H1085 H 0.55074 0.73812 0.41512 0.0
H1086 H 0.82852 0.85614 0.33867 0.0
N1087 N 0.71558 0.81239 0.33052 0.0
C1088 C 0.69934 0.78516 0.32414 0.0
C1089 C 0.73991 0.77712 0.32803 0.0
C1090 C 0.75748 0.80582 0.33232 0.0
C1091 C 0.71092 0.76699 0.32335 0.0
C1092 C 0.7447 0.8233 0.33306 0.0
H1093 H 0.83365 0.90454 0.3367 0.0
N1094 N 0.74966 0.86884 0.33418 0.0
C1095 C 0.79707 0.91075 0.33268 0.0
C1096 C 0.76221 0.85237 0.33503 0.0
C1097 C 0.76676 0.89754 0.33135 0.0
C1098 C 0.81013 0.89429 0.33574 0.0
C1099 C 0.79279 0.86467 0.33628 0.0
O1100 O 0.70431 0.87936 0.31802 0.0
O1101 O 0.66627 0.8511 0.35318 0.0
O1102 O 0.63403 0.79297 0.36409 0.0
O1103 O 0.66106 0.79855 0.33832 0.0
O1104 O 0.65285 0.83604 0.32772 0.0
O1105 O 0.6962 0.83849 0.3069 0.0
O1106 O 0.6849 0.82846 0.40474 0.0
O1107 O 0.70246 0.83733 0.36452 0.0
O1108 O 0.72263 0.8856 0.35233 0.0
O1109 O 0.69463 0.88059 0.37737 0.0
O1110 O 0.68336 0.80373 0.38212 0.0
O1111 O 0.67224 0.86046 0.40352 0.0
C1112 C 0.6452 0.84316 0.34217 0.0
C1113 C 0.70281 0.87535 0.28567 0.0
C1114 C 0.68861 0.86857 0.25429 0.0
C1115 C 0.68721 0.85718 0.27139 0.0
C1116 C 0.70598 0.89796 0.25151 0.0
C1117 C 0.71986 0.90473 0.28266 0.0
C1118 C 0.72153 0.91591 0.26563 0.0
C1119 C 0.63738 0.7837 0.34824 0.0
C1120 C 0.70083 0.86411 0.3038 0.0
C1121 C 0.80518 0.8471 0.33722 0.0
C1122 C 0.78753 0.81768 0.33524 0.0
C1123 C 0.70446 0.81675 0.37095 0.0
C1124 C 0.67237 0.84148 0.43189 0.0
C1125 C 0.69268 0.85067 0.44589 0.0
C1126 C 0.68315 0.84451 0.46369 0.0
C1127 C 0.6532 0.82902 0.46738 0.0
C1128 C 0.64247 0.82633 0.43576 0.0
C1129 C 0.63297 0.82 0.45344 0.0
C1130 C 0.71755 0.89566 0.36714 0.0
C1131 C 0.68286 0.84808 0.41342 0.0
H1132 H 0.67369 0.83448 0.27358 0.0
H1133 H 0.70732 0.90701 0.23838 0.0
H1134 H 0.73199 0.91904 0.29348 0.0
H1135 H 0.7348 0.93857 0.26339 0.0
H1136 H 0.71584 0.86265 0.44299 0.0
H1137 H 0.64556 0.82415 0.48105 0.0
H1138 H 0.6265 0.81959 0.42521 0.0
H1139 H 0.60987 0.80823 0.45634 0.0
Eu1140 Eu 0.1907 0.83486 0.38036 0.0
C1141 C 0.14235 0.8899 0.32786 0.0
C1142 C 0.09015 0.85846 0.32953 0.0
C1143 C 0.10969 0.90887 0.32383 0.0
C1144 C 0.1188 0.86312 0.33075 0.0
C1145 C 0.1381 0.91302 0.32403 0.0
C1146 C 0.08574 0.8816 0.32654 0.0
C1147 C 0.19006 0.94204 0.31949 0.0
N1148 N 0.16946 0.89311 0.32813 0.0
C1149 C 0.19315 0.91843 0.32327 0.0
C1150 C 0.16246 0.93944 0.32012 0.0
Eu1151 Eu 0.173 0.85272 0.33654 0.0
N1152 N 0.12385 0.84129 0.33363 0.0
C1153 C 0.10135 0.81399 0.33357 0.0
C1154 C 0.06685 0.83055 0.33069 0.0
C1155 C 0.07252 0.80814 0.33227 0.0
H1156 H 0.2146 0.92071 0.32284 0.0
H1157 H 0.05473 0.78639 0.33274 0.0
H1158 H 0.0639 0.87851 0.3258 0.0
H1159 H 0.20897 0.96223 0.31611 0.0
H1160 H 0.10558 0.79674 0.33516 0.0
H1161 H 0.30867 0.90342 0.38414 0.0
H1162 H 0.0445 0.82603 0.3298 0.0
H1163 H 0.15113 0.76745 0.39526 0.0
H1164 H 0.25728 0.89176 0.38258 0.0
H1165 H 0.15795 0.72662 0.40203 0.0
H1166 H 0.10597 0.92643 0.32111 0.0
H1167 H 0.32034 0.86462 0.3862 0.0
H1168 H 0.30225 0.8123 0.39016 0.0
H1169 H 0.16012 0.95776 0.31716 0.0
H1170 H 0.26103 0.76404 0.39544 0.0
N1171 N 0.24025 0.84733 0.38301 0.0
C1172 C 0.2622 0.87488 0.38337 0.0
C1173 C 0.2978 0.85953 0.3855 0.0
C1174 C 0.27502 0.83136 0.38666 0.0
C1175 C 0.29131 0.88147 0.38437 0.0
C1176 C 0.2461 0.82598 0.38567 0.0
H1177 H 0.20713 0.73196 0.40023 0.0
N1178 N 0.19586 0.79548 0.38917 0.0
C1179 C 0.17647 0.74688 0.39831 0.0
C1180 C 0.22311 0.79911 0.38893 0.0
C1181 C 0.17271 0.7701 0.39452 0.0
C1182 C 0.20425 0.74996 0.39723 0.0
C1183 C 0.2281 0.77647 0.39285 0.0
O1184 O 0.16622 0.82338 0.40541 0.0
O1185 O 0.15705 0.83877 0.36452 0.0
O1186 O 0.18043 0.88894 0.35456 0.0
O1187 O 0.20476 0.88246 0.37849 0.0
O1188 O 0.1424 0.80419 0.38133 0.0
O1189 O 0.20689 0.86308 0.40346 0.0
O1190 O 0.19906 0.86283 0.31226 0.0
O1191 O 0.20632 0.84801 0.35229 0.0
O1192 O 0.18033 0.79718 0.36273 0.0
O1193 O 0.15864 0.80526 0.33816 0.0
O1194 O 0.2215 0.88272 0.33567 0.0
O1195 O 0.15495 0.82734 0.31233 0.0
C1196 C 0.13416 0.81708 0.37036 0.0
C1197 C 0.19341 0.84141 0.43177 0.0
C1198 C 0.18848 0.84267 0.464 0.0
C1199 C 0.18108 0.847 0.44672 0.0
C1200 C 0.20812 0.83262 0.46621 0.0
C1201 C 0.21303 0.83139 0.43413 0.0
C1202 C 0.22033 0.82703 0.45132 0.0
C1203 C 0.19501 0.89747 0.36972 0.0
C1204 C 0.18549 0.84597 0.41382 0.0
C1205 C 0.25674 0.78123 0.39268 0.0
C1206 C 0.28019 0.80867 0.38962 0.0
C1207 C 0.22951 0.86935 0.34643 0.0
C1208 C 0.17503 0.84956 0.28463 0.0
C1209 C 0.18423 0.83896 0.27051 0.0
C1210 C 0.18276 0.84678 0.2528 0.0
C1211 C 0.17179 0.86512 0.24934 0.0
C1212 C 0.16404 0.86781 0.28103 0.0
C1213 C 0.16241 0.87551 0.26341 0.0
C1214 C 0.16637 0.78905 0.34727 0.0
C1215 C 0.17853 0.8424 0.30298 0.0
H1216 H 0.16576 0.85459 0.44495 0.0
H1217 H 0.2139 0.82905 0.47947 0.0
H1218 H 0.22268 0.827 0.42272 0.0
H1219 H 0.23546 0.81928 0.4531 0.0
H1220 H 0.19287 0.82493 0.27327 0.0
H1221 H 0.17048 0.87133 0.23575 0.0
H1222 H 0.15695 0.87621 0.2918 0.0
H1223 H 0.15399 0.88967 0.26067 0.0
Eu1224 Eu 0.83653 0.66002 0.66894 0.0
C1225 C 0.89547 0.75496 0.72505 0.0
C1226 C 0.94601 0.76737 0.72242 0.0
C1227 C 0.93385 0.80387 0.7296 0.0
C1228 C 0.91604 0.74714 0.72144 0.0
C1229 C 0.90413 0.78318 0.72989 0.0
C1230 C 0.95478 0.79597 0.72585 0.0
C1231 C 0.85399 0.76738 0.73756 0.0
N1232 N 0.86707 0.73437 0.72546 0.0
C1233 C 0.84663 0.73968 0.73281 0.0
C1234 C 0.88278 0.78939 0.73569 0.0
Eu1235 Eu 0.85566 0.68872 0.71507 0.0
N1236 N 0.90675 0.71931 0.71833 0.0
C1237 C 0.9263 0.70981 0.71813 0.0
C1238 C 0.96621 0.75805 0.72064 0.0
C1239 C 0.95627 0.72902 0.71896 0.0
H1240 H 0.82447 0.72256 0.73447 0.0
H1241 H 0.97165 0.72142 0.71819 0.0
H1242 H 0.97769 0.81192 0.72633 0.0
H1243 H 0.83751 0.77171 0.74273 0.0
H1244 H 0.91916 0.68751 0.71695 0.0
H1245 H 0.72114 0.6299 0.6658 0.0
H1246 H 0.98943 0.77291 0.72123 0.0
H1247 H 0.86606 0.62455 0.64959 0.0
H1248 H 0.77377 0.66279 0.66715 0.0
H1249 H 0.85175 0.57507 0.64144 0.0
H1250 H 0.94093 0.82579 0.73298 0.0
H1251 H 0.70211 0.57817 0.66299 0.0
H1252 H 0.71251 0.53826 0.65803 0.0
H1253 H 0.88852 0.81081 0.73952 0.0
H1254 H 0.74831 0.52317 0.65134 0.0
N1255 N 0.78519 0.63025 0.66583 0.0
C1256 C 0.76617 0.64041 0.66598 0.0
C1257 C 0.72542 0.59259 0.66356 0.0
C1258 C 0.74505 0.58257 0.66186 0.0
C1259 C 0.73608 0.62176 0.66509 0.0
C1260 C 0.77519 0.60227 0.66276 0.0
H1261 H 0.80035 0.53687 0.64472 0.0
N1262 N 0.82376 0.6139 0.65859 0.0
C1263 C 0.83565 0.57995 0.64659 0.0
C1264 C 0.79519 0.59378 0.65908 0.0
C1265 C 0.84371 0.60786 0.65128 0.0
C1266 C 0.80664 0.55845 0.6485 0.0
C1267 C 0.78582 0.56538 0.6543 0.0
O1268 O 0.86062 0.67082 0.64376 0.0
O1269 O 0.86986 0.69476 0.68639 0.0
O1270 O 0.84386 0.71817 0.7003 0.0
O1271 O 0.82312 0.69343 0.67377 0.0
O1272 O 0.88525 0.67882 0.66683 0.0
O1273 O 0.82446 0.67828 0.64672 0.0
O1274 O 0.8299 0.67518 0.7396 0.0
O1275 O 0.82259 0.65375 0.69767 0.0
O1276 O 0.84947 0.63131 0.6835 0.0
O1277 O 0.86973 0.65582 0.71018 0.0
O1278 O 0.80686 0.66977 0.71693 0.0
O1279 O 0.86955 0.67327 0.73804 0.0
C1280 C 0.89301 0.69769 0.67924 0.0
C1281 C 0.83401 0.66767 0.61788 0.0
C1282 C 0.83568 0.67499 0.58569 0.0
C1283 C 0.84507 0.68581 0.60299 0.0
C1284 C 0.81524 0.64605 0.58344 0.0
C1285 C 0.81352 0.63882 0.61541 0.0
C1286 C 0.80426 0.62809 0.59825 0.0
C1287 C 0.83007 0.71477 0.68493 0.0
C1288 C 0.84403 0.67891 0.6359 0.0
C1289 C 0.75594 0.5452 0.65468 0.0
C1290 C 0.73556 0.5538 0.65848 0.0
C1291 C 0.7993 0.65073 0.70464 0.0
C1292 C 0.85482 0.68019 0.76656 0.0
C1293 C 0.84414 0.66084 0.78089 0.0
C1294 C 0.84912 0.67073 0.79864 0.0
C1295 C 0.86498 0.70011 0.80188 0.0
C1296 C 0.87099 0.70945 0.77005 0.0
C1297 C 0.87597 0.71932 0.78764 0.0
C1298 C 0.86319 0.63472 0.69888 0.0
C1299 C 0.8479 0.66962 0.74812 0.0
H1300 H 0.86078 0.70818 0.60482 0.0
H1301 H 0.80772 0.63744 0.5702 0.0
H1302 H 0.80465 0.62464 0.62672 0.0
H1303 H 0.78845 0.60581 0.59642 0.0
H1304 H 0.83172 0.63817 0.77827 0.0
H1305 H 0.86902 0.70811 0.81545 0.0
H1306 H 0.87961 0.72464 0.75922 0.0
H1307 H 0.88833 0.74193 0.79024 0.0
Eu1308 Eu 0.36386 0.18093 0.67013 0.0
C1309 C 0.26311 0.13583 0.72691 0.0
C1310 C 0.24373 0.16751 0.72273 0.0
C1311 C 0.2128 0.12011 0.73482 0.0
C1312 C 0.26684 0.16171 0.7214 0.0
C1313 C 0.23634 0.11503 0.73423 0.0
C1314 C 0.21646 0.14627 0.72899 0.0
C1315 C 0.25881 0.0867 0.74099 0.0
N1316 N 0.2862 0.13153 0.726 0.0
C1317 C 0.2848 0.10784 0.73341 0.0
C1318 C 0.23433 0.09012 0.74119 0.0
Eu1319 Eu 0.33012 0.16888 0.71451 0.0
N1320 N 0.2936 0.18187 0.71577 0.0
C1321 C 0.29944 0.20906 0.71275 0.0
C1322 C 0.24905 0.19478 0.71834 0.0
C1323 C 0.27717 0.21578 0.71361 0.0
H1324 H 0.3037 0.10517 0.73335 0.0
H1325 H 0.28172 0.23713 0.71059 0.0
H1326 H 0.19834 0.1502 0.72992 0.0
H1327 H 0.25764 0.06774 0.74659 0.0
H1328 H 0.32102 0.22552 0.70906 0.0
H1329 H 0.36236 0.0807 0.65334 0.0
H1330 H 0.23184 0.20004 0.71907 0.0
H1331 H 0.42339 0.24654 0.66303 0.0
H1332 H 0.34283 0.11283 0.65363 0.0
H1333 H 0.47663 0.26917 0.66502 0.0
H1334 H 0.19191 0.10423 0.74015 0.0
H1335 H 0.41378 0.09817 0.66144 0.0
H1336 H 0.46288 0.13953 0.66838 0.0
H1337 H 0.21418 0.07367 0.747 0.0
H1338 H 0.49436 0.19127 0.67124 0.0
N1339 N 0.38124 0.14814 0.66471 0.0
C1340 C 0.36471 0.12087 0.65843 0.0
C1341 C 0.40503 0.11243 0.66215 0.0
C1342 C 0.42292 0.14119 0.66617 0.0
C1343 C 0.376 0.10248 0.65765 0.0
C1344 C 0.41038 0.15888 0.66702 0.0
H1345 H 0.49979 0.23978 0.66969 0.0
N1346 N 0.41577 0.20463 0.6683 0.0
C1347 C 0.46329 0.24634 0.66642 0.0
C1348 C 0.42814 0.18797 0.66883 0.0
C1349 C 0.43297 0.23332 0.66548 0.0
C1350 C 0.47625 0.22969 0.66905 0.0
C1351 C 0.45875 0.20009 0.66962 0.0
O1352 O 0.37073 0.21558 0.65221 0.0
O1353 O 0.33262 0.18757 0.68738 0.0
O1354 O 0.29963 0.12917 0.69812 0.0
O1355 O 0.3268 0.1349 0.6724 0.0
O1356 O 0.31936 0.17292 0.66183 0.0
O1357 O 0.36207 0.17445 0.6412 0.0
O1358 O 0.34927 0.1631 0.73905 0.0
O1359 O 0.36817 0.17299 0.69873 0.0
O1360 O 0.38912 0.22153 0.68679 0.0
O1361 O 0.3609 0.21628 0.71178 0.0
O1362 O 0.34875 0.13934 0.71629 0.0
O1363 O 0.33814 0.19619 0.73769 0.0
C1364 C 0.31176 0.1801 0.67627 0.0
C1365 C 0.36848 0.211 0.61985 0.0
C1366 C 0.35295 0.20362 0.5887 0.0
C1367 C 0.35238 0.19255 0.6058 0.0
C1368 C 0.37018 0.23297 0.58568 0.0
C1369 C 0.38537 0.24032 0.61661 0.0
C1370 C 0.38633 0.25118 0.59957 0.0
C1371 C 0.30308 0.12007 0.68227 0.0
C1372 C 0.36679 0.20009 0.63804 0.0
C1373 C 0.47098 0.18235 0.67019 0.0
C1374 C 0.45306 0.15292 0.66856 0.0
C1375 C 0.36999 0.15235 0.70522 0.0
C1376 C 0.33677 0.17656 0.76602 0.0
C1377 C 0.3567 0.18482 0.78019 0.0
C1378 C 0.34671 0.17898 0.79789 0.0
C1379 C 0.31667 0.16477 0.80135 0.0
C1380 C 0.30678 0.16257 0.76962 0.0
C1381 C 0.29681 0.15661 0.78723 0.0
C1382 C 0.38398 0.23141 0.70168 0.0
C1383 C 0.3478 0.18307 0.74768 0.0
H1384 H 0.33899 0.16989 0.60818 0.0
H1385 H 0.37097 0.24179 0.57255 0.0
H1386 H 0.39785 0.25484 0.62726 0.0
H1387 H 0.39948 0.2738 0.59714 0.0
H1388 H 0.37994 0.19582 0.77749 0.0
H1389 H 0.30869 0.16016 0.81496 0.0
H1390 H 0.29113 0.15645 0.7589 0.0
H1391 H 0.27364 0.14578 0.78993 0.0
Eu1392 Eu 0.85473 0.16754 0.71371 0.0
C1393 C 0.80555 0.21539 0.65592 0.0
C1394 C 0.75356 0.18331 0.65786 0.0
C1395 C 0.77209 0.2326 0.64923 0.0
C1396 C 0.78242 0.18882 0.65975 0.0
C1397 C 0.80071 0.23738 0.65003 0.0
C1398 C 0.74852 0.20558 0.65316 0.0
C1399 C 0.85227 0.26561 0.64383 0.0
N1400 N 0.83275 0.21899 0.65651 0.0
C1401 C 0.8558 0.24296 0.64956 0.0
C1402 C 0.82466 0.26302 0.64439 0.0
Eu1403 Eu 0.8378 0.18103 0.66811 0.0
N1404 N 0.78817 0.16781 0.66397 0.0
C1405 C 0.76615 0.14019 0.66439 0.0
C1406 C 0.73072 0.15534 0.65995 0.0
C1407 C 0.73709 0.13358 0.66278 0.0
H1408 H 0.87707 0.24484 0.64887 0.0
H1409 H 0.71966 0.11172 0.66379 0.0
H1410 H 0.7265 0.20186 0.65185 0.0
H1411 H 0.87079 0.28495 0.6389 0.0
H1412 H 0.77075 0.12316 0.66643 0.0
H1413 H 0.97026 0.24854 0.7188 0.0
H1414 H 0.70821 0.15018 0.65866 0.0
H1415 H 0.82357 0.10185 0.73107 0.0
H1416 H 0.91773 0.23085 0.71697 0.0
H1417 H 0.83698 0.06531 0.73841 0.0
H1418 H 0.7679 0.24932 0.64495 0.0
H1419 H 0.9886 0.21472 0.72129 0.0
H1420 H 0.97741 0.16423 0.72533 0.0
H1421 H 0.82189 0.28047 0.63978 0.0
H1422 H 0.94092 0.11399 0.73065 0.0
N1423 N 0.90582 0.18704 0.71753 0.0
C1424 C 0.92509 0.21564 0.71793 0.0
C1425 C 0.96535 0.20674 0.72045 0.0
C1426 C 0.94541 0.1776 0.72157 0.0
C1427 C 0.95509 0.22588 0.71909 0.0
C1428 C 0.91539 0.16836 0.72029 0.0
H1429 H 0.88842 0.07693 0.73594 0.0
N1430 N 0.8665 0.13283 0.72337 0.0
C1431 C 0.8535 0.08622 0.73398 0.0
C1432 C 0.895 0.14023 0.72322 0.0
C1433 C 0.84595 0.10684 0.72975 0.0
C1434 C 0.88254 0.09283 0.73252 0.0
C1435 C 0.90385 0.12038 0.72758 0.0
O1436 O 0.8302 0.15321 0.73869 0.0
O1437 O 0.82209 0.17158 0.69653 0.0
O1438 O 0.84917 0.22127 0.68353 0.0
O1439 O 0.86849 0.21428 0.70998 0.0
O1440 O 0.80591 0.13853 0.71469 0.0
O1441 O 0.86576 0.19637 0.73637 0.0
O1442 O 0.86353 0.18925 0.64371 0.0
O1443 O 0.87033 0.17697 0.68538 0.0
O1444 O 0.84343 0.12794 0.69764 0.0
O1445 O 0.82005 0.13352 0.67271 0.0
O1446 O 0.88664 0.2093 0.66675 0.0
O1447 O 0.82147 0.1512 0.64577 0.0
C1448 C 0.79863 0.15119 0.70288 0.0
C1449 C 0.85585 0.1755 0.76493 0.0
C1450 C 0.85206 0.17883 0.79714 0.0
C1451 C 0.84288 0.18055 0.77978 0.0
C1452 C 0.87417 0.17201 0.79951 0.0
C1453 C 0.878 0.16879 0.76748 0.0
C1454 C 0.88708 0.16705 0.78472 0.0
C1455 C 0.86221 0.22992 0.69924 0.0
C1456 C 0.84615 0.17726 0.74687 0.0
C1457 C 0.93367 0.12901 0.72762 0.0
C1458 C 0.95444 0.15761 0.72461 0.0
C1459 C 0.89386 0.197 0.67883 0.0
C1460 C 0.83748 0.17055 0.61701 0.0
C1461 C 0.84972 0.16274 0.60304 0.0
C1462 C 0.84434 0.16674 0.58517 0.0
C1463 C 0.82652 0.17845 0.58141 0.0
C1464 C 0.81968 0.1822 0.61309 0.0
C1465 C 0.81424 0.1861 0.59533 0.0
C1466 C 0.82834 0.11856 0.68264 0.0
C1467 C 0.84378 0.16668 0.63555 0.0
H1468 H 0.82569 0.18568 0.77789 0.0
H1469 H 0.88138 0.1705 0.81281 0.0
H1470 H 0.88825 0.16494 0.75617 0.0
H1471 H 0.90414 0.16182 0.78664 0.0
H1472 H 0.86351 0.15372 0.60602 0.0
H1473 H 0.82214 0.18162 0.56771 0.0
H1474 H 0.80999 0.18822 0.6237 0.0
H1475 H 0.80048 0.1951 0.59236 0.0
C1476 C 0.40612 0.90728 0.05057 0.0
C1477 C 0.38105 0.91025 0.05148 0.0
C1478 C 0.40951 0.95886 0.03966 0.0
C1479 C 0.43468 0.95578 0.03831 0.0
N1480 N 0.45279 0.92282 0.03698 0.0
N1481 N 0.35701 0.93636 0.0433 0.0
C1482 C 0.43176 0.92873 0.04209 0.0
C1483 C 0.3822 0.93535 0.04498 0.0
N1484 N 0.40584 0.88432 0.05835 0.0
N1485 N 0.41173 0.98444 0.03567 0.0
H1486 H 0.33671 0.91966 0.04717 0.0
H1487 H 0.35577 0.95271 0.0368 0.0
H1488 H 0.42995 1.00063 0.0293 0.0
H1489 H 0.39588 0.98971 0.03889 0.0
H1490 H 0.42451 0.88267 0.05999 0.0
H1491 H 0.38755 0.86812 0.06472 0.0
H1492 H 0.45059 0.90267 0.03773 0.0
H1493 H 0.47057 0.93709 0.02968 0.0
C1494 C 0.10852 0.49949 0.05551 0.0
C1495 C 0.10892 0.47428 0.05118 0.0
C1496 C 0.06154 0.45577 0.03595 0.0
C1497 C 0.0619 0.48178 0.03938 0.0
N1498 N 0.07973 0.52228 0.05912 0.0
N1499 N 0.0878 0.4296 0.0356 0.0
C1500 C 0.08389 0.50217 0.05087 0.0
C1501 C 0.08587 0.45267 0.04102 0.0
N1502 N 0.13208 0.52136 0.06379 0.0
N1503 N 0.03723 0.43342 0.02859 0.0
H1504 H 0.10472 0.42615 0.03951 0.0
H1505 H 0.07389 0.41492 0.02624 0.0
H1506 H 0.01924 0.43487 0.02431 0.0
H1507 H 0.03393 0.41288 0.02774 0.0
H1508 H 0.13462 0.54155 0.06532 0.0
H1509 H 0.15018 0.52001 0.06794 0.0
H1510 H 0.09255 0.5347 0.0697 0.0
H1511 H 0.06207 0.52512 0.05654 0.0
C1512 C 0.55028 0.62299 0.06958 0.0
C1513 C 0.5539 0.64547 0.05831 0.0
C1514 C 0.53129 0.61159 0.03362 0.0
C1515 C 0.53056 0.58944 0.0443 0.0
N1516 N 0.5228 0.57275 0.07486 0.0
N1517 N 0.55123 0.6623 0.02903 0.0
C1518 C 0.53571 0.59474 0.06301 0.0
C1519 C 0.54548 0.64009 0.04014 0.0
N1520 N 0.56069 0.6285 0.0867 0.0
N1521 N 0.51447 0.60502 1.0187 0.0
H1522 H 0.56106 0.6833 0.03348 0.0
H1523 H 0.54871 0.66018 1.01521 0.0
H1524 H 0.49801 0.5844 1.01623 0.0
H1525 H 0.51242 0.61999 1.01106 0.0
H1526 H 0.56195 0.61338 0.09469 0.0
H1527 H 0.57043 0.6487 0.0924 0.0
H1528 H 0.52372 0.57536 0.08868 0.0
H1529 H 0.50702 0.55257 0.07091 0.0
C1530 C 0.90166 0.38819 1.00467 0.0
C1531 C 0.91004 0.37376 0.99238 0.0
C1532 C 0.95745 0.41704 0.98879 0.0
C1533 C 0.95061 0.43091 1.00255 0.0
N1534 N 0.91015 0.43358 1.01542 0.0
N1535 N 0.94765 0.37313 0.97459 0.0
C1536 C 0.92105 0.41752 1.00851 0.0
C1537 C 0.93862 0.38767 0.98526 0.0
N1538 N 0.87517 0.37368 1.01292 0.0
N1539 N 0.97877 0.43289 0.9768 0.0
H1540 H 0.93414 0.35204 0.97079 0.0
H1541 H 0.96934 0.38133 0.97081 0.0
H1542 H 0.9851 0.45414 0.97504 0.0
H1543 H 0.98449 0.42448 0.96607 0.0
H1544 H 0.8691 0.38197 0.02356 0.0
H1545 H 0.86044 0.35232 1.01027 0.0
H1546 H 0.8882 0.42548 1.01844 0.0
H1547 H 0.9217 0.4557 1.01536 0.0
C1548 C 0.64411 0.56594 1.00987 0.0
C1549 C 0.64586 0.54429 1.00022 0.0
C1550 C 0.59254 0.51538 1.00018 0.0
C1551 C 0.59044 0.53563 1.01122 0.0
N1552 N 0.61381 0.5834 0.02282 0.0
N1553 N 0.62206 0.49599 0.9895 0.0
C1554 C 0.61621 0.56187 1.01502 0.0
C1555 C 0.62019 0.51836 0.99638 0.0
N1556 N 0.66927 0.59003 1.0146 0.0
N1557 N 0.56856 0.49502 0.99147 0.0
H1558 H 0.64183 0.49718 0.98634 0.0
H1559 H 0.60412 0.47555 0.9885 0.0
H1560 H 0.54779 0.49198 0.99334 0.0
H1561 H 0.56967 0.48262 0.98121 0.0
H1562 H 0.67019 0.60513 0.02351 0.0
H1563 H 0.68981 0.59428 1.01033 0.0
H1564 H 0.63098 0.60411 0.02421 0.0
H1565 H 0.59405 0.58097 0.02731 0.0
C1566 C 0.4981 0.10716 0.99028 0.0
C1567 C 0.47594 0.11085 0.99827 0.0
C1568 C 0.46657 0.07336 1.02014 0.0
C1569 C 0.48705 0.06799 1.01127 0.0
N1570 N 0.52061 0.07805 0.98676 0.0
N1571 N 0.43596 0.09493 1.01895 0.0
C1572 C 0.50217 0.08428 0.99593 0.0
C1573 C 0.45933 0.09325 1.01271 0.0
N1574 N 0.51627 0.12641 0.9779 0.0
N1575 N 0.45423 0.05971 0.03579 0.0
H1576 H 0.42999 0.1092 1.01382 0.0
H1577 H 0.421 0.08066 0.0281 0.0
H1578 H 0.45789 0.0441 0.04121 0.0
H1579 H 0.44206 0.06522 0.04408 0.0
H1580 H 0.53513 0.12713 0.9732 0.0
H1581 H 0.51385 0.14327 0.97328 0.0
H1582 H 0.52908 0.08638 0.97421 0.0
H1583 H 0.52644 0.06336 0.99118 0.0
C1584 C 0.61722 0.10743 1.00043 0.0
C1585 C 0.64234 0.10453 0.9995 0.0
C1586 C 0.61408 0.05609 1.01157 0.0
C1587 C 0.58894 0.05919 1.01308 0.0
N1588 N 0.57085 0.09217 1.01435 0.0
N1589 N 0.66658 0.07872 1.008 0.0
C1590 C 0.59177 0.08617 1.00917 0.0
C1591 C 0.64133 0.07959 1.00618 0.0
N1592 N 0.61724 0.13012 0.99241 0.0
N1593 N 0.61192 0.03048 1.01541 0.0
H1594 H 0.68688 0.09546 1.00415 0.0
H1595 H 0.66784 0.06249 1.01465 0.0
H1596 H 0.59371 0.01414 0.0217 0.0
H1597 H 0.62781 0.02532 1.01208 0.0
H1598 H 0.5985 0.13165 0.99084 0.0
H1599 H 0.63534 0.1461 0.98576 0.0
H1600 H 0.57305 0.11232 1.01347 0.0
H1601 H 0.55325 0.07808 0.02185 0.0
C1602 C 0.91775 0.51478 0.99175 0.0
C1603 C 0.91721 0.54049 0.99345 0.0
C1604 C 0.96489 0.56222 1.00855 0.0
C1605 C 0.96629 0.53684 1.00604 0.0
N1606 N 0.94794 0.49341 0.98896 0.0
N1607 N 0.93794 0.58759 1.00566 0.0
C1608 C 0.94351 0.514 0.99623 0.0
C1609 C 0.94013 0.56388 1.00252 0.0
N1610 N 0.89356 0.49099 0.98563 0.0
N1611 N 0.98821 0.58547 1.01581 0.0
H1612 H 0.92084 0.59004 1.00082 0.0
H1613 H 0.95185 0.60417 1.014 0.0
H1614 H 1.00505 0.5841 0.02189 0.0
H1615 H 0.99131 0.60596 1.01563 0.0
H1616 H 0.89145 0.47084 0.9859 0.0
H1617 H 0.87449 0.49099 0.98203 0.0
H1618 H 0.93328 0.47779 0.9803 0.0
H1619 H 0.96788 0.49411 0.98951 0.0
C1620 C 0.49888 0.39104 0.99445 0.0
C1621 C 0.47038 0.36746 0.9965 0.0
C1622 C 0.45692 0.39663 1.01496 0.0
C1623 C 0.48568 0.42 1.01321 0.0
N1624 N 0.53584 0.43646 1.00586 0.0
N1625 N 0.42404 0.34579 1.01156 0.0
C1626 C 0.50719 0.41622 1.00437 0.0
C1627 C 0.44993 0.36965 1.00768 0.0
N1628 N 0.51763 0.39005 0.9823 0.0
N1629 N 0.43606 0.40041 0.02308 0.0
H1630 H 0.41838 0.32578 1.00649 0.0
H1631 H 0.40927 0.34527 1.02094 0.0
H1632 H 0.4409 0.41935 0.02931 0.0
H1633 H 0.41391 0.38548 0.02283 0.0
H1634 H 0.53735 0.4078 0.97873 0.0
H1635 H 0.51248 0.37215 0.9746 0.0
H1636 H 0.55288 0.43363 1.00144 0.0
H1637 H 0.5426 0.45489 1.0133 0.0
C1638 C 0.09571 0.64218 0.04941 0.0
C1639 C 0.12044 0.64481 0.05857 0.0
C1640 C 0.10907 0.59767 0.0475 0.0
C1641 C 0.08236 0.59363 0.04037 0.0
N1642 N 0.05964 0.61731 0.02644 0.0
N1643 N 0.15003 0.62454 0.06741 0.0
C1644 C 0.07806 0.61732 0.03916 0.0
C1645 C 0.12716 0.62254 0.05772 0.0
N1646 N 0.08878 0.66323 0.05071 0.0
N1647 N 0.11831 0.57891 0.04346 0.0
H1648 H 0.16416 0.6426 0.07471 0.0
H1649 H 0.15373 0.60757 0.06928 0.0
H1650 H 0.1066 0.56126 0.03532 0.0
H1651 H 0.13909 0.5825 0.04645 0.0
H1652 H 0.06909 0.66094 0.04618 0.0
H1653 H 0.10192 0.68239 0.05732 0.0
H1654 H 0.05686 0.63464 0.02371 0.0
H1655 H 0.05071 0.60134 1.01682 0.0
C1656 C 0.39305 0.45559 0.0567 0.0
C1657 C 0.38304 0.47534 0.05502 0.0
C1658 C 0.4295 0.50995 0.0413 0.0
C1659 C 0.44038 0.49077 0.04341 0.0
N1660 N 0.43356 0.44674 0.05575 0.0
N1661 N 0.38813 0.51776 0.04155 0.0
C1662 C 0.42212 0.46366 0.05146 0.0
C1663 C 0.40019 0.50139 0.04598 0.0
N1664 N 0.3747 0.42903 0.06335 0.0
N1665 N 0.44784 0.53726 0.03607 0.0
H1666 H 0.36676 0.51208 0.04487 0.0
H1667 H 0.39814 0.53538 0.03313 0.0
H1668 H 0.46903 0.54408 0.0322 0.0
H1669 H 0.44275 0.55346 0.03657 0.0
H1670 H 0.37898 0.41229 0.06288 0.0
H1671 H 0.35396 0.4229 0.06822 0.0
H1672 H 0.42327 0.42875 0.06382 0.0
H1673 H 0.45444 0.45161 0.0521 0.0
C1674 C 0.53235 0.91441 0.06493 0.0
C1675 C 0.54714 0.90404 0.05427 0.0
C1676 C 0.553 0.93785 0.03054 0.0
C1677 C 0.53581 0.94634 0.0405 0.0
N1678 N 0.50341 0.93749 0.06552 0.0
N1679 N 0.56692 0.90206 0.02565 0.0
C1680 C 0.52393 0.93321 0.05727 0.0
C1681 C 0.55615 0.91467 0.03669 0.0
N1682 N 0.52693 0.90681 0.08253 0.0
N1683 N 0.56742 0.95267 1.01562 0.0
H1684 H 0.56971 0.88515 0.02967 0.0
H1685 H 0.57069 0.90672 1.01207 0.0
H1686 H 0.56592 0.9699 1.01084 0.0
H1687 H 0.58279 0.9495 1.00892 0.0
H1688 H 0.51916 0.91621 0.09145 0.0
H1689 H 0.53272 0.89303 0.08863 0.0
H1690 H 0.49168 0.92598 0.07668 0.0
H1691 H 0.4958 0.95037 0.06026 0.0
C1692 C 0.0677 0.2404 0.37627 0.0
C1693 C 0.04569 0.24604 0.38203 0.0
C1694 C 0.07818 0.29711 0.37634 0.0
C1695 C 0.1016 0.292 0.37195 0.0
N1696 N 0.11848 0.25786 0.37103 0.0
N1697 N 0.02717 0.27827 0.3843 0.0
C1698 C 0.09616 0.26335 0.37253 0.0
C1699 C 0.05014 0.27398 0.38106 0.0
N1700 N 0.06114 0.21283 0.37384 0.0
N1701 N 0.08319 0.3244 0.37714 0.0
H1702 H 1.00694 0.26225 0.3888 0.0
H1703 H 0.02717 0.29704 0.38146 0.0
H1704 H 0.10257 0.34213 0.37327 0.0
H1705 H 0.06883 0.33013 0.38263 0.0
H1706 H 0.07486 0.2072 0.36727 0.0
H1707 H 0.04078 0.19541 0.37682 0.0
H1708 H 0.1168 0.23833 0.37401 0.0
H1709 H 0.13936 0.27338 0.36815 0.0
C1710 C 0.75193 0.7822 0.37688 0.0
C1711 C 0.77733 0.8048 0.38472 0.0
C1712 C 0.75855 0.83726 0.37863 0.0
C1713 C 0.73131 0.81396 0.37291 0.0
N1714 N 0.70163 0.76342 0.36778 0.0
N1715 N 0.80285 0.85284 0.39577 0.0
C1716 C 0.72792 0.78618 0.37246 0.0
C1717 C 0.78007 0.83204 0.38631 0.0
N1718 N 0.75114 0.75722 0.37302 0.0
N1719 N 0.76461 0.86458 0.37635 0.0
H1720 H 0.81907 0.84995 0.40164 0.0
H1721 H 0.80415 0.87201 0.39933 0.0
H1722 H 0.75041 0.86978 0.37026 0.0
H1723 H 0.78519 0.88223 0.37835 0.0
H1724 H 0.73479 0.74111 0.3654 0.0
H1725 H 0.76817 0.7535 0.37615 0.0
H1726 H 0.69655 0.74237 0.36946 0.0
H1727 H 0.68436 0.76548 0.36279 0.0
C1728 C 0.23071 0.96633 0.39692 0.0
C1729 C 0.21011 0.9756 0.3954 0.0
C1730 C 0.17855 0.9334 0.3774 0.0
C1731 C 0.20051 0.92531 0.37757 0.0
N1732 N 0.25119 0.94047 0.38293 0.0
N1733 N 0.16736 0.9714 0.38115 0.0
C1734 C 0.22761 0.94356 0.3861 0.0
C1735 C 0.18497 0.96022 0.38465 0.0
N1736 N 0.25308 0.97888 0.40893 0.0
N1737 N 0.15101 0.91517 0.37136 0.0
H1738 H 0.17119 0.99075 0.38645 0.0
H1739 H 0.15066 0.96287 0.37171 0.0
H1740 H 0.14425 0.89494 0.36648 0.0
H1741 H 0.13367 0.91893 0.37289 0.0
H1742 H 0.2668 0.97079 0.41192 0.0
H1743 H 0.2563 0.99574 0.41713 0.0
H1744 H 0.27213 0.95468 0.38748 0.0
H1745 H 0.25043 0.926 0.37367 0.0
C1746 C 0.60076 0.72158 0.31525 0.0
C1747 C 0.57767 0.70006 0.32522 0.0
C1748 C 0.59015 0.73363 0.35026 0.0
C1749 C 0.61349 0.75559 0.34012 0.0
N1750 N 0.62691 0.77158 0.30951 0.0
N1751 N 0.54728 0.68616 0.35131 0.0
C1752 C 0.61505 0.74992 0.32163 0.0
C1753 C 0.57171 0.70613 0.34259 0.0
N1754 N 0.60889 0.71517 0.2994 0.0
N1755 N 0.58387 0.73941 0.36672 0.0
H1756 H 0.53372 0.66583 0.34621 0.0
H1757 H 0.5394 0.68989 0.36312 0.0
H1758 H 0.58653 0.75926 0.36946 0.0
H1759 H 0.5725 0.72391 0.37635 0.0
H1760 H 0.6275 0.72979 0.29247 0.0
H1761 H 0.59879 0.69461 0.29416 0.0
H1762 H 0.6266 0.76832 0.29576 0.0
H1763 H 0.63235 0.7922 0.31278 0.0
C1764 C 0.28394 0.84688 0.32975 0.0
C1765 C 0.31078 0.8725 0.33187 0.0
C1766 C 0.28458 0.89601 0.34322 0.0
C1767 C 0.25756 0.86989 0.34198 0.0
N1768 N 0.23205 0.82557 0.32582 0.0
N1769 N 0.33749 0.9202 0.34331 0.0
C1770 C 0.25727 0.84645 0.33321 0.0
C1771 C 0.3113 0.89669 0.33938 0.0
N1772 N 0.28383 0.82268 0.32458 0.0
N1773 N 0.28464 0.92076 0.34667 0.0
H1774 H 0.35749 0.9219 0.34016 0.0
H1775 H 0.33952 0.93704 0.35103 0.0
H1776 H 0.26568 0.92181 0.34798 0.0
H1777 H 0.30317 0.94081 0.34606 0.0
H1778 H 0.26519 0.80263 0.32497 0.0
H1779 H 0.3028 0.82228 0.32138 0.0
H1780 H 0.23115 0.80981 0.31746 0.0
H1781 H 0.21252 0.82569 0.32627 0.0
C1782 C 0.17325 0.45322 0.33493 0.0
C1783 C 0.14784 0.44416 0.32445 0.0
C1784 C 0.13086 0.39504 0.33348 0.0
C1785 C 0.15837 0.40313 0.34145 0.0
N1786 N 0.20797 0.44138 0.34722 0.0
N1787 N 0.10454 0.40565 0.31123 0.0
C1788 C 0.18015 0.43267 0.34168 0.0
C1789 C 0.12727 0.41485 0.32298 0.0
N1790 N 0.19073 0.48149 0.33858 0.0
N1791 N 0.10745 0.3689 0.33679 0.0
H1792 H 0.101 0.41939 0.30321 0.0
H1793 H 0.09082 0.38421 0.30826 0.0
H1794 H 0.10858 0.3549 0.34572 0.0
H1795 H 0.08632 0.36282 0.33266 0.0
H1796 H 0.20769 0.48913 0.34783 0.0
H1797 H 0.18651 0.49708 0.33364 0.0
H1798 H 0.22509 0.46215 0.3457 0.0
H1799 H 0.21517 0.42781 0.35163 0.0
C1800 C 0.30795 0.41114 0.33885 0.0
C1801 C 0.30841 0.43495 0.33065 0.0
C1802 C 0.25503 0.41098 0.33218 0.0
C1803 C 0.25433 0.38768 0.34146 0.0
N1804 N 0.27962 0.36264 0.34967 0.0
N1805 N 0.28322 0.46007 0.32264 0.0
C1806 C 0.28074 0.387 0.34367 0.0
C1807 C 0.28221 0.43565 0.32836 0.0
N1808 N 0.33372 0.41215 0.34272 0.0
N1809 N 0.23009 0.40833 0.32493 0.0
H1810 H 0.30255 0.47831 0.31906 0.0
H1811 H 0.26516 0.46294 0.32287 0.0
H1812 H 0.2098 0.39017 0.32624 0.0
H1813 H 0.22988 0.42307 0.31608 0.0
H1814 H 0.3354 0.39729 0.35068 0.0
H1815 H 0.35396 0.42911 0.33899 0.0
H1816 H 0.29713 0.359 0.34926 0.0
H1817 H 0.26058 0.34529 0.35446 0.0
C1818 C 0.57272 0.84267 0.33706 0.0
C1819 C 0.5825 0.8689 0.32812 0.0
C1820 C 0.63315 0.88153 0.33465 0.0
C1821 C 0.62353 0.85336 0.34077 0.0
N1822 N 0.58322 0.80594 0.34575 0.0
N1823 N 0.62253 0.91253 0.31668 0.0
C1824 C 0.59302 0.83366 0.3415 0.0
C1825 C 0.61287 0.88833 0.32665 0.0
N1826 N 0.54394 0.82641 0.34148 0.0
N1827 N 0.66175 0.90183 0.33639 0.0
H1828 H 0.60854 0.91827 0.31051 0.0
H1829 H 0.64433 0.92576 0.3133 0.0
H1830 H 0.67694 0.89755 0.34227 0.0
H1831 H 0.6697 0.92334 0.33383 0.0
H1832 H 0.53598 0.80851 0.34966 0.0
H1833 H 0.52857 0.83251 0.33849 0.0
H1834 H 0.56159 0.78988 0.34434 0.0
H1835 H 0.59713 0.79876 0.34972 0.0
C1836 C 0.12787 0.71425 0.325 0.0
C1837 C 0.14742 0.70469 0.32955 0.0
C1838 C 0.18011 0.75047 0.34378 0.0
C1839 C 0.16025 0.76053 0.33973 0.0
N1840 N 0.11919 0.75319 0.32077 0.0
N1841 N 0.18854 0.7106 0.34661 0.0
C1842 C 0.13513 0.74279 0.32884 0.0
C1843 C 0.17241 0.72189 0.33993 0.0
N1844 N 0.10156 0.69555 0.31749 0.0
N1845 N 0.20779 0.76891 0.34956 0.0
H1846 H 0.18424 0.69009 0.3436 0.0
H1847 H 0.2044 0.72048 0.35646 0.0
H1848 H 0.21621 0.79062 0.351 0.0
H1849 H 0.22405 0.76352 0.35074 0.0
H1850 H 0.0842 0.69941 0.31649 0.0
H1851 H 0.09587 0.67486 0.31384 0.0
H1852 H 0.10351 0.7422 0.31102 0.0
H1853 H 0.12344 0.77382 0.32144 0.0
C1854 C 0.76746 0.9765 0.37222 0.0
C1855 C 0.78105 0.97784 0.38884 0.0
C1856 C 0.75387 0.92568 0.39089 0.0
C1857 C 0.74053 0.9241 0.37401 0.0
N1858 N 0.73907 0.94791 0.34705 0.0
N1859 N 0.79114 0.95414 0.41269 0.0
C1860 C 0.74877 0.94949 0.36417 0.0
C1861 C 0.7754 0.95252 0.39776 0.0
N1862 N 0.77181 1.0011 0.36438 0.0
N1863 N 0.74587 0.90144 0.40051 0.0
H1864 H 0.80627 0.97334 0.41856 0.0
H1865 H 0.79095 0.93667 0.41861 0.0
H1866 H 0.73295 0.88114 0.39535 0.0
H1867 H 0.75103 0.90126 0.41392 0.0
H1868 H 0.75986 1.00169 0.35349 0.0
H1869 H 0.78624 0.0212 0.3695 0.0
H1870 H 0.74668 0.96533 0.3385 0.0
H1871 H 0.72513 0.9288 0.34075 0.0
C1872 C 0.07691 0.83388 0.38914 0.0
C1873 C 0.0512 0.80725 0.38714 0.0
C1874 C 0.07934 0.78849 0.37195 0.0
C1875 C 0.10545 0.81515 0.37436 0.0
N1876 N 0.12914 0.85834 0.39185 0.0
N1877 N 0.02644 0.76046 0.37431 0.0
C1878 C 0.10432 0.83683 0.38445 0.0
C1879 C 0.052 0.78493 0.3778 0.0
N1880 N 0.07518 0.85647 0.3957 0.0
N1881 N 0.081 0.76596 0.36507 0.0
H1882 H 1.00628 0.75701 0.37877 0.0
H1883 H 0.0247 0.74446 0.36589 0.0
H1884 H 0.10029 0.76767 0.36026 0.0
H1885 H 0.06376 0.74513 0.36495 0.0
H1886 H 0.09277 0.8772 0.39569 0.0
H1887 H 0.05546 0.85493 0.39949 0.0
H1888 H 0.12913 0.87261 0.40115 0.0
H1889 H 0.14951 0.86022 0.39037 0.0
C1890 C 0.19853 0.24828 0.39849 0.0
C1891 C 0.21141 0.23595 0.38784 0.0
C1892 C 0.21794 0.26893 0.36343 0.0
C1893 C 0.20222 0.27915 0.37335 0.0
N1894 N 0.17261 0.27441 0.39918 0.0
N1895 N 0.22918 0.23116 0.35914 0.0
C1896 C 0.19122 0.26775 0.3906 0.0
C1897 C 0.21995 0.24533 0.37 0.0
N1898 N 0.19387 0.2419 0.41629 0.0
N1899 N 0.23207 0.28254 0.34814 0.0
H1900 H 0.23118 0.21393 0.36349 0.0
H1901 H 0.23249 0.23495 0.34546 0.0
H1902 H 0.23161 0.30026 0.34319 0.0
H1903 H 0.24635 0.27796 0.3413 0.0
H1904 H 0.18761 0.25266 0.42515 0.0
H1905 H 0.19886 0.22765 0.42256 0.0
H1906 H 0.16124 0.26411 0.41072 0.0
H1907 H 0.16628 0.28829 0.39396 0.0
C1908 C 0.71739 0.60629 0.71334 0.0
C1909 C 0.71471 0.57984 0.71822 0.0
C1910 C 0.76492 0.59675 0.70823 0.0
C1911 C 0.76921 0.62466 0.70556 0.0
N1912 N 0.74863 0.65553 0.70487 0.0
N1913 N 0.73608 0.54998 0.72154 0.0
C1914 C 0.74503 0.62913 0.70791 0.0
C1915 C 0.73851 0.57511 0.71596 0.0
N1916 N 0.69326 0.60937 0.71358 0.0
N1917 N 0.78542 0.59033 0.70275 0.0
H1918 H 0.71675 0.53308 0.72647 0.0
H1919 H 0.75372 0.54655 0.72259 0.0
H1920 H 0.804 0.60492 0.69627 0.0
H1921 H 0.78241 0.56985 0.70243 0.0
H1922 H 0.69267 0.62676 0.70817 0.0
H1923 H 0.67301 0.59361 0.71825 0.0
H1924 H 0.73393 0.66185 0.70894 0.0
H1925 H 0.76681 0.67134 0.69826 0.0
C1926 C 0.41347 0.11547 0.7154 0.0
C1927 C 0.44201 0.1386 0.7183 0.0
C1928 C 0.42497 0.17203 0.71068 0.0
C1929 C 0.39646 0.14882 0.7069 0.0
N1930 N 0.36608 0.09847 0.70171 0.0
N1931 N 0.47649 0.18841 0.7144 0.0
C1932 C 0.39159 0.12056 0.70804 0.0
C1933 C 0.44818 0.16671 0.71468 0.0
N1934 N 0.40685 0.08867 0.72042 0.0
N1935 N 0.43012 0.19924 0.71104 0.0
H1936 H 0.49414 0.18543 0.71707 0.0
H1937 H 0.48274 0.20878 0.70977 0.0
H1938 H 0.41539 0.20496 0.70645 0.0
H1939 H 0.44888 0.21618 0.71647 0.0
H1940 H 0.3857 0.07141 0.72056 0.0
H1941 H 0.42214 0.0841 0.72598 0.0
H1942 H 0.36242 0.07783 0.70037 0.0
H1943 H 0.34975 0.10131 0.69594 0.0
C1944 C 0.86558 0.28475 0.73227 0.0
C1945 C 0.88166 0.31041 0.72252 0.0
C1946 C 0.8855 0.28364 0.69726 0.0
C1947 C 0.86772 0.25775 0.70654 0.0
N1948 N 0.83508 0.23365 0.73125 0.0
N1949 N 0.90218 0.33408 0.69461 0.0
C1950 C 0.85604 0.25832 0.72356 0.0
C1951 C 0.89009 0.30976 0.70463 0.0
N1952 N 0.86043 0.28558 0.7501 0.0
N1953 N 0.89944 0.28357 0.68196 0.0
H1954 H 0.90605 0.35358 0.69967 0.0
H1955 H 0.90597 0.33442 0.68094 0.0
H1956 H 0.89715 0.26502 0.67642 0.0
H1957 H 0.9152 0.30198 0.67566 0.0
H1958 H 0.85201 0.26773 0.75836 0.0
H1959 H 0.86688 0.30445 0.75705 0.0
H1960 H 0.82345 0.23316 0.74259 0.0
H1961 H 0.82721 0.21373 0.72542 0.0
C1962 C 0.2414 0.04153 0.67839 0.0
C1963 C 0.24479 0.03574 0.66042 0.0
C1964 C 0.28018 0.08617 0.65576 0.0
C1965 C 0.27946 0.09185 0.67435 0.0
N1966 N 0.24574 0.07717 0.69905 0.0
N1967 N 0.27052 0.05165 0.63249 0.0
C1968 C 0.25658 0.0701 0.68474 0.0
C1969 C 0.26522 0.05777 0.64931 0.0
N1970 N 0.22366 0.01966 0.68948 0.0
N1971 N 0.29148 0.10803 0.64374 0.0
H1972 H 0.25931 0.03132 0.62696 0.0
H1973 H 0.28788 0.06621 0.62467 0.0
H1974 H 0.29719 0.12861 0.64732 0.0
H1975 H 0.29051 0.10523 0.62995 0.0
H1976 H 0.22293 0.02208 0.70325 0.0
H1977 H 0.21176 0.9986 0.68516 0.0
H1978 H 0.22765 0.0625 0.7063 0.0
H1979 H 0.25053 0.0979 0.70113 0.0
C1980 C 0.95879 0.18352 0.67262 0.0
C1981 C 0.97962 0.2106 0.66593 0.0
C1982 C 0.94748 0.22893 0.67474 0.0
C1983 C 0.92425 0.20084 0.67815 0.0
N1984 N 0.90845 0.15052 0.67892 0.0
N1985 N 0.99227 0.25871 0.65867 0.0
C1986 C 0.93012 0.17788 0.67684 0.0
C1987 C 0.97362 0.23327 0.66655 0.0
N1988 N 0.96657 0.16328 0.67542 0.0
N1989 N 0.94478 0.25168 0.67979 0.0
H1990 H 1.01144 0.26267 0.65229 0.0
H1991 H 0.98734 0.27493 0.657 0.0
H1992 H 0.9267 0.24921 0.68682 0.0
H1993 H 0.96181 0.27265 0.6791 0.0
H1994 H 0.95341 0.1443 0.6822 0.0
H1995 H 0.98735 0.16663 0.67259 0.0
H1996 H 0.91051 0.13298 0.67553 0.0
H1997 H 0.88804 0.14537 0.68335 0.0
C1998 C 0.79682 0.76298 0.68018 0.0
C1999 C 0.81334 0.78066 0.66574 0.0
C2000 C 0.83946 0.75404 0.66321 0.0
C2001 C 0.82465 0.73785 0.67865 0.0
N2002 N 0.79262 0.73022 0.70355 0.0
N2003 N 0.85438 0.79689 0.64584 0.0
C2004 C 0.80445 0.74342 0.6877 0.0
C2005 C 0.83571 0.7772 0.65785 0.0
N2006 N 0.77309 0.76411 0.68628 0.0
N2007 N 0.85716 0.74739 0.65355 0.0
H2008 H 0.85249 0.81423 0.64161 0.0
H2009 H 0.87329 0.79755 0.64129 0.0
H2010 H 0.86247 0.73212 0.65747 0.0
H2011 H 0.86527 0.75588 0.64097 0.0
H2012 H 0.75826 0.74967 0.69542 0.0
H2013 H 0.76663 0.77792 0.68099 0.0
H2014 H 0.78057 0.73591 0.71183 0.0
H2015 H 0.79671 0.715 0.70913 0.0
C2016 C 0.97258 0.73869 0.66677 0.0
C2017 C 0.97872 0.76724 0.66647 0.0
C2018 C 0.9296 0.75195 0.67785 0.0
C2019 C 0.92349 0.72316 0.67869 0.0
N2020 N 0.9436 0.69195 0.67972 0.0
N2021 N 0.9663 0.80196 0.67659 0.0
C2022 C 0.94646 0.71751 0.67493 0.0
C2023 C 0.95822 0.77414 0.67354 0.0
N2024 N 0.99113 0.73149 0.65869 0.0
N2025 N 0.90819 0.7584 0.6805 0.0
H2026 H 0.98705 0.81878 0.67363 0.0
H2027 H 0.95345 0.80817 0.68366 0.0
H2028 H 0.88793 0.74368 0.68513 0.0
H2029 H 0.91031 0.77811 0.67748 0.0
H2030 H 0.98608 0.71049 0.65681 0.0
H2031 H 1.01038 0.74632 0.65243 0.0
H2032 H 0.96043 0.68732 0.67874 0.0
H2033 H 0.92563 0.67692 0.68689 0.0
C2034 C 0.2807 0.22635 0.66071 0.0
C2035 C 0.25022 0.20716 0.66188 0.0
C2036 C 0.25988 0.17132 0.67517 0.0
C2037 C 0.29045 0.19076 0.67479 0.0
N2038 N 0.32918 0.23912 0.6709 0.0
N2039 N 0.21104 0.16464 0.6748 0.0
C2040 C 0.30054 0.2191 0.66885 0.0
C2041 C 0.23994 0.18074 0.67066 0.0
N2042 N 0.29087 0.25074 0.65087 0.0
N2043 N 0.2497 0.14341 0.67905 0.0
H2044 H 0.19592 0.17104 0.67174 0.0
H2045 H 0.2027 0.14656 0.68284 0.0
H2046 H 0.26348 0.13591 0.68266 0.0
H2047 H 0.22801 0.12758 0.6775 0.0
H2048 H 0.31279 0.26382 0.64771 0.0
H2049 H 0.27722 0.2568 0.64459 0.0
H2050 H 0.33744 0.26071 0.66845 0.0
H2051 H 0.34404 0.23448 0.67689 0.0
C2052 C 0.79512 0.03852 0.67496 0.0
C2053 C 0.81025 0.03855 0.65931 0.0
C2054 C 0.83766 0.09074 0.65935 0.0
C2055 C 0.82295 0.09085 0.67525 0.0
N2056 N 0.79119 0.06511 0.69979 0.0
N2057 N 0.84952 0.06384 0.63846 0.0
C2058 C 0.80288 0.06478 0.68361 0.0
C2059 C 0.83264 0.06445 0.65209 0.0
N2060 N 0.77256 0.01343 0.68112 0.0
N2061 N 0.85612 0.1158 0.65096 0.0
H2062 H 0.84616 0.045 0.6326 0.0
H2063 H 0.86833 0.08167 0.63388 0.0
H2064 H 0.86223 0.13565 0.65637 0.0
H2065 H 0.86429 0.11709 0.63814 0.0
H2066 H 0.75826 0.01207 0.69111 0.0
H2067 H 0.76698 0.99379 0.67547 0.0
H2068 H 0.77911 0.04709 0.70762 0.0
H2069 H 0.79512 0.08383 0.706 0.0
C2070 C 0.43387 0.2887 0.73475 0.0
C2071 C 0.44751 0.31327 0.72381 0.0
C2072 C 0.41864 0.28485 0.69809 0.0
C2073 C 0.40679 0.25976 0.70877 0.0
N2074 N 0.41034 0.23762 0.73609 0.0
N2075 N 0.45663 0.33419 0.69446 0.0
C2076 C 0.41642 0.26165 0.72678 0.0
C2077 C 0.44097 0.31118 0.70528 0.0
N2078 N 0.43685 0.29118 0.75292 0.0
N2079 N 0.40787 0.28393 0.68137 0.0
H2080 H 0.47285 0.35378 0.69931 0.0
H2081 H 0.45525 0.33324 0.68057 0.0
H2082 H 0.39217 0.26522 0.67541 0.0
H2083 H 0.413 0.30202 0.67387 0.0
H2084 H 0.42464 0.27435 0.76163 0.0
H2085 H 0.44937 0.31058 0.75941 0.0
H2086 H 0.41952 0.238 0.74849 0.0
H2087 H 0.39886 0.21733 0.73067 0.0
C2088 C 0.7169 0.11595 0.71186 0.0
C2089 C 0.71532 0.13913 0.71935 0.0
C2090 C 0.76468 0.17159 0.70821 0.0
C2091 C 0.76863 0.1481 0.70414 0.0
N2092 N 0.74718 0.09732 0.70105 0.0
N2093 N 0.73901 0.18922 0.72611 0.0
C2094 C 0.74418 0.1201 0.70559 0.0
C2095 C 0.73943 0.16705 0.71774 0.0
N2096 N 0.69211 0.09004 0.71048 0.0
N2097 N 0.78441 0.19817 0.70259 0.0
H2098 H 0.72106 0.18695 0.73323 0.0
H2099 H 0.75738 0.20935 0.72726 0.0
H2100 H 0.80184 0.20183 0.69467 0.0
H2101 H 0.78132 0.21563 0.70369 0.0
H2102 H 0.69106 0.07285 0.70365 0.0
H2103 H 0.6718 0.08647 0.71477 0.0
H2104 H 0.73196 0.07636 0.70423 0.0
H2105 H 0.76548 0.09963 0.69436 0.0
C2106 C 0.89753 0.58748 0.70319 0.0
C2107 C 0.88154 0.56986 0.71777 0.0
C2108 C 0.85455 0.59561 0.72046 0.0
C2109 C 0.86906 0.61189 0.70499 0.0
N2110 N 0.9005 0.61959 0.67973 0.0
N2111 N 0.84095 0.55323 0.73807 0.0
C2112 C 0.8893 0.60661 0.69574 0.0
C2113 C 0.85904 0.57291 0.72585 0.0
N2114 N 0.92133 0.58667 0.69686 0.0
N2115 N 0.83635 0.60169 0.73005 0.0
H2116 H 0.84346 0.53628 0.74237 0.0
H2117 H 0.82195 0.55219 0.7428 0.0
H2118 H 0.83034 0.61641 0.72598 0.0
H2119 H 0.82839 0.59323 0.74265 0.0
H2120 H 0.93581 0.60113 0.68759 0.0
H2121 H 0.92819 0.57312 0.70208 0.0
H2122 H 0.91252 0.614 0.67135 0.0
H2123 H 0.89592 0.63446 0.67412 0.0
C2124 C 0.50498 0.9545 0.1706 0.0
C2125 C 0.48633 0.95985 0.18152 0.0
C2126 C 0.48246 0.98902 0.15773 0.0
C2127 C 0.50409 0.98681 0.14788 0.0
N2128 N 0.53703 0.96852 0.14479 0.0
N2129 N 0.45929 0.98425 0.18641 0.0
C2130 C 0.51547 0.9696 0.15419 0.0
C2131 C 0.47541 0.97751 0.17528 0.0
N2132 N 0.51222 0.93465 0.17582 0.0
N2133 N 0.46837 1.00177 0.15013 0.0
H2134 H 0.45346 0.97613 0.19933 0.0
H2135 H 0.45357 0.99958 0.1834 0.0
H2136 H 0.47304 0.01036 0.13726 0.0
H2137 H 0.45032 1.00154 0.15583 0.0
H2138 H 0.52319 0.92752 0.1677 0.0
H2139 H 0.50529 0.92361 0.1879 0.0
H2140 H 0.5487 0.95913 0.14961 0.0
H2141 H 0.54448 0.97849 0.13244 0.0
C2142 C 0.03781 0.50704 0.172 0.0
C2143 C 0.05329 0.53584 0.1776 0.0
C2144 C 0.04162 0.55103 0.14939 0.0
C2145 C 0.02616 0.52221 0.14383 0.0
N2146 N 0.01556 0.47387 0.14746 0.0
N2147 N 0.07561 0.58572 0.17047 0.0
C2148 C 0.02625 0.50054 0.1544 0.0
C2149 C 0.05705 0.55802 0.16587 0.0
N2150 N 0.03294 0.48583 0.18379 0.0
N2151 N 0.04052 0.57149 0.13926 0.0
H2152 H 0.08712 0.59152 0.18251 0.0
H2153 H 0.08155 0.60281 0.16184 0.0
H2154 H 0.03012 0.56728 0.12687 0.0
H2155 H 0.04837 0.59231 0.14353 0.0
H2156 H 0.01888 0.46436 0.18121 0.0
H2157 H 0.04147 0.48978 0.19672 0.0
H2158 H 0.01761 0.45783 0.15378 0.0
H2159 H 1.00693 0.4685 0.13458 0.0
C2160 C 0.50855 0.51199 0.17717 0.0
C2161 C 0.48284 0.51344 0.18014 0.0
C2162 C 0.46703 0.4982 0.14926 0.0
C2163 C 0.49229 0.49588 0.14654 0.0
N2164 N 0.54066 0.50794 0.15568 0.0
N2165 N 0.4413 0.51482 0.1682 0.0
C2166 C 0.51431 0.5054 0.15979 0.0
C2167 C 0.46335 0.50893 0.16583 0.0
N2168 N 0.52655 0.51523 0.19118 0.0
N2169 N 0.44592 0.48876 0.13637 0.0
H2170 H 0.43808 0.52254 0.18024 0.0
H2171 H 0.4278 0.51441 0.15794 0.0
H2172 H 0.44843 0.48177 0.12387 0.0
H2173 H 0.42541 0.48654 0.13828 0.0
H2174 H 0.54361 0.51092 0.19038 0.0
H2175 H 0.52336 0.5206 0.20402 0.0
H2176 H 0.55863 0.51713 0.16418 0.0
H2177 H 0.54531 0.50328 0.14299 0.0
C2178 C 0.98166 0.47736 0.87803 0.0
C2179 C 0.98316 0.49991 0.86758 0.0
C2180 C 1.0098 0.53371 0.89157 0.0
C2181 C 1.01176 0.512 0.9009 0.0
N2182 N 1.00139 0.46343 0.90287 0.0
N2183 N 1.00183 0.55021 0.86321 0.0
C2184 C 0.99798 0.48378 0.89418 0.0
C2185 C 0.99796 0.52828 0.87406 0.0
N2186 N 0.96419 0.44984 0.87267 0.0
N2187 N 0.01872 0.55936 0.89964 0.0
H2188 H 0.99366 0.54722 0.85022 0.0
H2189 H 0.01525 0.57153 0.86651 0.0
H2190 H 0.02732 0.56397 0.91255 0.0
H2191 H 0.01504 0.57502 0.89425 0.0
H2192 H 0.95971 0.43231 0.88057 0.0
H2193 H 0.95219 0.44446 0.86082 0.0
H2194 H 0.99468 0.44333 0.89763 0.0
H2195 H 1.01274 0.46721 0.91489 0.0
C2196 C 0.51845 0.46198 0.88115 0.0
C2197 C 0.54579 0.48278 0.87415 0.0
C2198 C 0.55445 0.51107 0.90133 0.0
C2199 C 0.52443 0.49446 0.90561 0.0
N2200 N 0.47801 0.45195 0.90067 0.0
N2201 N 0.59448 0.51152 0.8856 0.0
C2202 C 0.50645 0.46917 0.89588 0.0
C2203 C 0.56553 0.50299 0.88659 0.0
N2204 N 0.50685 0.43427 0.87616 0.0
N2205 N 0.57221 0.5351 0.91081 0.0
H2206 H 0.60238 0.50264 0.87633 0.0
H2207 H 0.6096 0.52427 0.89523 0.0
H2208 H 0.56504 0.54174 0.92179 0.0
H2209 H 0.59351 0.54943 0.90689 0.0
H2210 H 0.48811 0.41771 0.8819 0.0
H2211 H 0.51883 0.42759 0.86854 0.0
H2212 H 0.46328 0.43501 0.89277 0.0
H2213 H 0.46884 0.45551 0.91201 0.0
C2214 C 0.50167 0.04551 0.87725 0.0
C2215 C 0.5301 0.05654 0.87 0.0
C2216 C 0.54507 0.04016 0.8965 0.0
C2217 C 0.51678 0.02963 0.90379 0.0
N2218 N 0.47072 0.02844 0.90349 0.0
N2219 N 0.58042 0.06957 0.87398 0.0
C2220 C 0.49592 0.03436 0.89491 0.0
C2221 C 0.55233 0.0555 0.88006 0.0
N2222 N 0.47975 0.04438 0.86694 0.0
N2223 N 0.56458 0.03457 0.90496 0.0
H2224 H 0.58634 0.08072 0.86192 0.0
H2225 H 0.59817 0.07213 0.88146 0.0
H2226 H 0.56033 0.02427 0.9173 0.0
H2227 H 0.5843 0.03867 0.89937 0.0
H2228 H 0.45792 0.03362 0.87073 0.0
H2229 H 0.48294 0.05224 0.85391 0.0
H2230 H 0.45592 0.03408 0.89849 0.0
H2231 H 0.46593 0.02029 0.91646 0.0
C2232 C 0.1384 0.29438 0.50077 0.0
C2233 C 0.16021 0.29901 0.51354 0.0
C2234 C 0.19801 0.32563 0.49116 0.0
C2235 C 0.17658 0.32515 0.47955 0.0
N2236 N 0.12619 0.31044 0.47351 0.0
N2237 N 0.21108 0.32133 0.52156 0.0
C2238 C 0.14662 0.30956 0.48428 0.0
C2239 C 0.19014 0.315 0.50887 0.0
N2240 N 0.10985 0.27527 0.50438 0.0
N2241 N 0.22588 0.33599 0.48515 0.0
H2242 H 0.20626 0.31387 0.53467 0.0
H2243 H 0.2331 0.33575 0.51948 0.0
H2244 H 0.2322 0.34356 0.47214 0.0
H2245 H 0.24187 0.33446 0.49238 0.0
H2246 H 0.0932 0.26882 0.49499 0.0
H2247 H 0.10316 0.26385 0.51633 0.0
H2248 H 0.1045 0.30227 0.47722 0.0
H2249 H 0.13126 0.32113 0.4613 0.0
C2250 C 0.7295 0.88809 0.50306 0.0
C2251 C 0.73876 0.8694 0.50975 0.0
C2252 C 0.72068 0.841 0.48246 0.0
C2253 C 0.70455 0.8548 0.47855 0.0
N2254 N 0.69589 0.89388 0.48394 0.0
N2255 N 0.7629 0.84539 0.49783 0.0
C2256 C 0.70973 0.87919 0.48844 0.0
C2257 C 0.74033 0.85075 0.4971 0.0
N2258 N 0.74357 0.91584 0.50828 0.0
N2259 N 0.71656 0.81801 0.47273 0.0
H2260 H 0.77977 0.85561 0.5071 0.0
H2261 H 0.76668 0.83398 0.48804 0.0
H2262 H 0.7025 0.81027 0.46179 0.0
H2263 H 0.72564 0.80552 0.47637 0.0
H2264 H 0.73942 0.93112 0.50275 0.0
H2265 H 0.76257 0.92423 0.51595 0.0
H2266 H 0.6966 0.9099 0.49196 0.0
H2267 H 0.68256 0.88905 0.4727 0.0
C2268 C 0.17617 0.87984 0.50348 0.0
C2269 C 0.15604 0.8558 0.51353 0.0
C2270 C 0.15229 0.82433 0.48894 0.0
C2271 C 0.17528 0.84786 0.48002 0.0
N2272 N 0.21023 0.89799 0.47866 0.0
N2273 N 0.12698 0.80482 0.51685 0.0
C2274 C 0.18738 0.87571 0.48717 0.0
C2275 C 0.14446 0.82793 0.50648 0.0
N2276 N 0.18411 0.90657 0.50941 0.0
N2277 N 0.13766 0.79862 0.48048 0.0
H2278 H 0.12066 0.80648 0.52977 0.0
H2279 H 0.12062 0.784 0.51322 0.0
H2280 H 0.14289 0.79531 0.4676 0.0
H2281 H 0.11873 0.78137 0.48548 0.0
H2282 H 0.19632 0.92492 0.50189 0.0
H2283 H 0.17655 0.91028 0.52141 0.0
H2284 H 0.22228 0.91822 0.48416 0.0
H2285 H 0.21834 0.89587 0.46642 0.0
C2286 C 0.62973 0.83331 0.21889 0.0
C2287 C 0.6467 0.83112 0.20499 0.0
C2288 C 0.68674 0.84327 0.22606 0.0
C2289 C 0.67186 0.85037 0.23895 0.0
N2290 N 0.62903 0.85159 0.2484 0.0
N2291 N 0.69128 0.83397 0.19488 0.0
C2292 C 0.64302 0.84469 0.23572 0.0
C2293 C 0.67503 0.83558 0.20852 0.0
N2294 N 0.60103 0.82472 0.21586 0.0
N2295 N 0.71212 0.84405 0.23068 0.0
H2296 H 0.68302 0.8275 0.18201 0.0
H2297 H 0.71333 0.84044 0.19602 0.0
H2298 H 0.72103 0.8496 0.24349 0.0
H2299 H 0.72287 0.83679 0.22246 0.0
H2300 H 0.58664 0.8234 0.22578 0.0
H2301 H 0.59092 0.81665 0.20359 0.0
H2302 H 0.60947 0.85131 0.24619 0.0
H2303 H 0.63772 0.8589 0.26109 0.0
C2304 C 0.23143 0.8351 0.22051 0.0
C2305 C 0.21084 0.81881 0.20709 0.0
C2306 C 0.17166 0.81296 0.22713 0.0
C2307 C 0.19253 0.83553 0.23786 0.0
N2308 N 0.2431 0.86741 0.24535 0.0
N2309 N 0.16457 0.77547 0.20691 0.0
C2310 C 0.2227 0.84616 0.2349 0.0
C2311 C 0.18141 0.8027 0.21277 0.0
N2312 N 0.25793 0.8366 0.22081 0.0
N2313 N 0.14259 0.80118 0.23063 0.0
H2314 H 0.17352 0.76541 0.19949 0.0
H2315 H 0.14367 0.76176 0.21172 0.0
H2316 H 0.13458 0.80688 0.24166 0.0
H2317 H 0.12653 0.78684 0.22199 0.0
H2318 H 0.2729 0.84603 0.23118 0.0
H2319 H 0.26303 0.82503 0.21181 0.0
H2320 H 0.26532 0.87774 0.24244 0.0
H2321 H 0.2377 0.8761 0.2561 0.0
C2322 C 0.18421 0.40085 0.21727 0.0
C2323 C 0.20284 0.398 0.20481 0.0
C2324 C 0.20977 0.36789 0.22648 0.0
C2325 C 0.1853 0.36461 0.23626 0.0
N2326 N 0.14972 0.37934 0.24144 0.0
N2327 N 0.24886 0.39934 0.2069 0.0
C2328 C 0.17291 0.38182 0.23198 0.0
C2329 C 0.22033 0.38716 0.21179 0.0
N2330 N 0.18045 0.42394 0.21632 0.0
N2331 N 0.22308 0.35279 0.23119 0.0
H2332 H 0.25888 0.41819 0.19952 0.0
H2333 H 0.2634 0.3939 0.21261 0.0
H2334 H 0.21713 0.33975 0.24247 0.0
H2335 H 0.23896 0.35219 0.22328 0.0
H2336 H 0.16922 0.42856 0.22595 0.0
H2337 H 0.19192 0.44026 0.2071 0.0
H2338 H 0.13804 0.38925 0.23752 0.0
H2339 H 0.14088 0.36584 0.25243 0.0
C2340 C 0.79803 0.61542 0.83237 0.0
C2341 C 0.81836 0.61748 0.84555 0.0
C2342 C 0.8579 0.646 0.8245 0.0
C2343 C 0.83814 0.6504 0.81394 0.0
N2344 N 0.78841 0.63835 0.80772 0.0
N2345 N 0.86204 0.61421 0.84536 0.0
C2346 C 0.80785 0.63456 0.81768 0.0
C2347 C 0.84716 0.62711 0.83937 0.0
N2348 N 0.77043 0.59267 0.83242 0.0
N2349 N 0.88688 0.65966 0.82034 0.0
H2350 H 0.85189 0.59591 0.85326 0.0
H2351 H 0.88217 0.61858 0.84028 0.0
H2352 H 0.89536 0.67201 0.80885 0.0
H2353 H 0.90256 0.65975 0.82883 0.0
H2354 H 0.75544 0.58873 0.82222 0.0
H2355 H 0.76421 0.57587 0.84142 0.0
H2356 H 0.76647 0.62924 0.81119 0.0
H2357 H 0.79456 0.65227 0.79687 0.0
C2358 C 0.39526 0.22148 0.8368 0.0
C2359 C 0.40166 0.20108 0.84412 0.0
C2360 C 0.38126 0.17185 0.81734 0.0
C2361 C 0.36779 0.18801 0.81287 0.0
N2362 N 0.36421 0.23029 0.8172 0.0
N2363 N 0.42092 0.17194 0.83346 0.0
C2364 C 0.37554 0.21356 0.82221 0.0
C2365 C 0.40075 0.1805 0.83205 0.0
N2366 N 0.41199 0.24941 0.84132 0.0
N2367 N 0.37473 0.14774 0.80804 0.0
H2368 H 0.43777 0.18099 0.84283 0.0
H2369 H 0.42304 0.15888 0.8241 0.0
H2370 H 0.36082 0.14085 0.797 0.0
H2371 H 0.38163 0.13365 0.8121 0.0
H2372 H 0.40986 0.26564 0.83531 0.0
H2373 H 0.43107 0.25652 0.84877 0.0
H2374 H 0.3669 0.24753 0.8248 0.0
H2375 H 0.35086 0.22599 0.80601 0.0
C2376 C 0.83772 0.21527 0.83622 0.0
C2377 C 0.81919 0.19115 0.84677 0.0
C2378 C 0.81688 0.15957 0.82259 0.0
C2379 C 0.83835 0.1835 0.81312 0.0
N2380 N 0.87027 0.23414 0.8107 0.0
N2381 N 0.79314 0.14024 0.85096 0.0
C2382 C 0.8489 0.21142 0.81979 0.0
C2383 C 0.80911 0.16324 0.84015 0.0
N2384 N 0.84416 0.24177 0.84179 0.0
N2385 N 0.80363 0.1334 0.81464 0.0
H2386 H 0.78686 0.14196 0.86388 0.0
H2387 H 0.78802 0.11961 0.84768 0.0
H2388 H 0.8089 0.13004 0.80179 0.0
H2389 H 0.78567 0.11559 0.82005 0.0
H2390 H 0.85502 0.25997 0.83394 0.0
H2391 H 0.83668 0.24531 0.85387 0.0
H2392 H 0.88139 0.25472 0.81579 0.0
H2393 H 0.87812 0.23217 0.79832 0.0
C2394 C 0.29127 0.1641 0.55538 0.0
C2395 C 0.30788 0.16453 0.54039 0.0
C2396 C 0.3507 0.1802 0.55963 0.0
C2397 C 0.33571 0.18506 0.5736 0.0
N2398 N 0.29165 0.18175 0.58522 0.0
N2399 N 0.35391 0.17422 0.52782 0.0
C2400 C 0.30576 0.17653 0.57174 0.0
C2401 C 0.33763 0.17239 0.54245 0.0
N2402 N 0.2617 0.15191 0.55385 0.0
N2403 N 0.37753 0.18325 0.56287 0.0
H2404 H 0.34514 0.16849 0.51501 0.0
H2405 H 0.37648 0.1832 0.52816 0.0
H2406 H 0.38746 0.18886 0.57542 0.0
H2407 H 0.38856 0.17757 0.55374 0.0
H2408 H 0.24793 0.14864 0.56461 0.0
H2409 H 0.25062 0.14268 0.54199 0.0
H2410 H 0.27093 0.17927 0.58389 0.0
H2411 H 0.30135 0.19011 0.59754 0.0
C2412 C 0.85268 0.12596 0.5463 0.0
C2413 C 0.87943 0.14743 0.53901 0.0
C2414 C 0.88714 0.17624 0.56583 0.0
C2415 C 0.85732 0.15864 0.57031 0.0
N2416 N 0.81201 0.11473 0.56592 0.0
N2417 N 0.92798 0.17855 0.54994 0.0
C2418 C 0.84016 0.1328 0.56092 0.0
C2419 C 0.89874 0.16856 0.55116 0.0
N2420 N 0.84234 0.09826 0.54173 0.0
N2421 N 0.90416 0.20078 0.57505 0.0
H2422 H 0.93646 0.17018 0.54071 0.0
H2423 H 0.94297 0.1921 0.55938 0.0
H2424 H 0.89662 0.20708 0.58601 0.0
H2425 H 0.92515 0.21575 0.57097 0.0
H2426 H 0.82414 0.08136 0.54769 0.0
H2427 H 0.85498 0.09216 0.53428 0.0
H2428 H 0.79777 0.09717 0.55828 0.0
H2429 H 0.80256 0.11816 0.57717 0.0
C2430 C 0.83341 0.71243 0.54354 0.0
C2431 C 0.86082 0.72007 0.53573 0.0
C2432 C 0.87339 0.70066 0.56178 0.0
C2433 C 0.84627 0.69372 0.56969 0.0
N2434 N 0.8039 0.69924 0.57041 0.0
N2435 N 0.90916 0.72672 0.53867 0.0
C2436 C 0.8274 0.70168 0.56128 0.0
C2437 C 0.88156 0.71583 0.54528 0.0
N2438 N 0.81253 0.71411 0.53369 0.0
N2439 N 0.89079 0.69179 0.56971 0.0
H2440 H 0.91569 0.73768 0.52656 0.0
H2441 H 0.9262 0.72694 0.54577 0.0
H2442 H 0.88591 0.68141 0.58203 0.0
H2443 H 0.90914 0.69319 0.56365 0.0
H2444 H 0.79106 0.70577 0.53793 0.0
H2445 H 0.81589 0.72172 0.5206 0.0
H2446 H 0.79096 0.70736 0.56573 0.0
H2447 H 0.79899 0.69151 0.58347 0.0
loop_
_geom_bond_atom_site_label_1
_geom_bond_atom_site_label_2
_geom_bond_distance
_geom_bond_site_symmetry_2
_ccdc_geom_bond_type
C0 C1 1.264 . S
C0 C5 1.479 . S
C0 C10 1.465 . S
C1 C0 1.264 . S
C1 C3 1.339 . S
C1 H28 0.931 . S
C2 C3 1.395 . S
C2 C4 1.320 . S
C3 C1 1.339 . S
C3 C2 1.395 . S
C3 H29 0.929 . S
C4 C2 1.320 . S
C4 C5 1.405 . S
C4 H30 0.930 . S
C5 C0 1.479 . S
C5 C4 1.405 . S
C5 H31 0.931 . S
U6 O7 2.454 . S
U6 O8 2.458 . S
U6 C9 2.984 . S
U6 C10 2.847 . S
U6 C23 2.882 . S
U6 O24 2.441 . S
U6 O25 2.420 . S
U6 O26 2.455 . S
U6 O27 2.449 . S
O7 U6 2.454 . S
O7 C9 1.353 . S
O8 U6 2.458 . S
O8 C9 1.286 . S
C9 U6 2.984 . S
C9 O7 1.353 . S
C9 O8 1.286 . S
C9 C11 1.363 . S
C10 C0 1.465 . S
C10 U6 2.847 . S
C10 O24 1.249 . S
C10 O25 1.202 . S
C11 C9 1.363 . S
C11 C13 1.408 . S
C11 C16 1.342 . S
C12 C13 1.310 . S
C12 C15 1.461 . S
C12 H32 0.932 . S
C13 C11 1.408 . S
C13 C12 1.310 . S
C13 H33 0.930 . S
C14 C15 1.474 . S
C14 C16 1.285 . S
C14 H34 0.929 1_545 S
C15 C12 1.461 . S
C15 C14 1.474 . S
C16 C11 1.342 . S
C16 C14 1.285 . S
C16 H35 0.930 . S
C17 C20 1.424 . S
C17 C22 1.245 . S
C17 C23 1.428 . S
C18 C21 1.260 . S
C18 C22 1.477 . S
C18 H36 0.932 . S
C19 C20 1.384 . S
C19 C21 1.479 . S
C19 H37 0.929 . S
C20 C17 1.424 . S
C20 C19 1.384 . S
C20 H38 0.928 . S
C21 C18 1.260 . S
C21 C19 1.479 . S
C22 C17 1.245 . S
C22 C18 1.477 . S
C22 H39 0.932 . S
C23 U6 2.882 . S
C23 C17 1.428 . S
C23 O26 1.301 . S
C23 O27 1.282 . S
O24 U6 2.441 . S
O24 C10 1.249 . S
O25 U6 2.420 . S
O25 C10 1.202 . S
O26 U6 2.455 . S
O26 C23 1.301 . S
O27 U6 2.449 . S
O27 C23 1.282 . S
H28 C1 0.931 . S
H29 C3 0.929 . S
H30 C4 0.930 . S
H31 C5 0.931 . S
H32 C12 0.932 . S
H33 C13 0.930 . S
H34 C14 0.929 1_565 S
H35 C16 0.930 . S
H36 C18 0.932 . S
H37 C19 0.929 . S
H38 C20 0.928 . S
H39 C22 0.932 . S
C40 C41 1.264 . S
C40 C45 1.479 . S
C40 C50 1.465 . S
C41 C40 1.264 . S
C41 C43 1.339 . S
C41 H68 0.931 . S
C42 C43 1.395 1_455 S
C42 C44 1.320 1_455 S
C43 C41 1.339 . S
C43 C42 1.395 1_655 S
C43 H69 0.929 1_655 S
C44 C42 1.320 1_655 S
C44 C45 1.405 . S
C44 H70 0.930 . S
C45 C40 1.479 . S
C45 C44 1.405 . S
C45 H71 0.931 . S
U46 O47 2.454 . S
U46 O48 2.458 . S
U46 C49 2.984 . S
U46 C50 2.847 . S
U46 C63 2.882 . S
U46 O64 2.441 . S
U46 O65 2.420 . S
U46 O66 2.455 . S
U46 O67 2.449 . S
O47 U46 2.454 . S
O47 C49 1.353 . S
O48 U46 2.458 . S
O48 C49 1.286 . S
C49 U46 2.984 . S
C49 O47 1.353 . S
C49 O48 1.286 . S
C49 C51 1.363 . S
C50 C40 1.465 . S
C50 U46 2.847 . S
C50 O64 1.249 . S
C50 O65 1.202 . S
C51 C49 1.363 . S
C51 C53 1.408 . S
C51 C56 1.342 . S
C52 C53 1.310 . S
C52 C55 1.461 1_545 S
C52 H72 0.932 . S
C53 C51 1.408 . S
C53 C52 1.310 . S
C53 H73 0.930 . S
C54 C55 1.474 1_545 S
C54 C56 1.285 . S
C54 H74 0.929 1_545 S
C55 C52 1.461 1_565 S
C55 C54 1.474 1_565 S
C56 C51 1.342 . S
C56 C54 1.285 . S
C56 H75 0.930 . S
C57 C60 1.424 . S
C57 C62 1.245 . S
C57 C63 1.428 . S
C58 C61 1.260 . S
C58 C62 1.477 . S
C58 H76 0.932 . S
C59 C60 1.384 . S
C59 C61 1.479 . S
C59 H77 0.929 . S
C60 C57 1.424 . S
C60 C59 1.384 . S
C60 H78 0.928 . S
C61 C58 1.260 . S
C61 C59 1.479 . S
C62 C57 1.245 . S
C62 C58 1.477 . S
C62 H79 0.932 . S
C63 U46 2.882 . S
C63 C57 1.428 . S
C63 O66 1.301 . S
C63 O67 1.282 . S
O64 U46 2.441 . S
O64 C50 1.249 . S
O65 U46 2.420 . S
O65 C50 1.202 . S
O66 U46 2.455 . S
O66 C63 1.301 . S
O67 U46 2.449 . S
O67 C63 1.282 . S
H68 C41 0.931 . S
H69 C43 0.929 1_455 S
H70 C44 0.930 . S
H71 C45 0.931 . S
H72 C52 0.932 . S
H73 C53 0.930 . S
H74 C54 0.929 1_565 S
H75 C56 0.930 . S
H76 C58 0.932 . S
H77 C59 0.929 . S
H78 C60 0.928 . S
H79 C62 0.932 . S
C80 C81 1.264 . S
C80 C85 1.479 . S
C80 C90 1.465 . S
C81 C80 1.264 . S
C81 C83 1.339 . S
C81 H108 0.931 . S
C82 C83 1.395 . S
C82 C84 1.320 . S
C83 C81 1.339 . S
C83 C82 1.395 . S
C83 H109 0.929 . S
C84 C82 1.320 . S
C84 C85 1.405 . S
C84 H110 0.930 . S
C85 C80 1.479 . S
C85 C84 1.405 . S
C85 H111 0.931 . S
U86 O87 2.454 . S
U86 O88 2.458 . S
U86 C89 2.984 . S
U86 C90 2.847 . S
U86 C103 2.882 . S
U86 O104 2.441 . S
U86 O105 2.420 . S
U86 O106 2.455 . S
U86 O107 2.449 . S
O87 U86 2.454 . S
O87 C89 1.353 . S
O88 U86 2.458 . S
O88 C89 1.286 . S
C89 U86 2.984 . S
C89 O87 1.353 . S
C89 O88 1.286 . S
C89 C91 1.363 . S
C90 C80 1.465 . S
C90 U86 2.847 . S
C90 O104 1.249 . S
C90 O105 1.202 . S
C91 C89 1.363 . S
C91 C93 1.408 . S
C91 C96 1.342 . S
C92 C93 1.310 . S
C92 C95 1.461 1_655 S
C92 H112 0.932 . S
C93 C91 1.408 . S
C93 C92 1.310 . S
C93 H113 0.930 . S
C94 C95 1.474 . S
C94 C96 1.285 1_455 S
C94 H114 0.929 . S
C95 C92 1.461 1_455 S
C95 C94 1.474 . S
C96 C91 1.342 . S
C96 C94 1.285 1_655 S
C96 H115 0.930 . S
C97 C100 1.424 . S
C97 C102 1.245 . S
C97 C103 1.428 . S
C98 C101 1.260 . S
C98 C102 1.477 . S
C98 H116 0.932 . S
C99 C100 1.384 . S
C99 C101 1.479 . S
C99 H117 0.929 . S
C100 C97 1.424 . S
C100 C99 1.384 . S
C100 H118 0.928 . S
C101 C98 1.260 . S
C101 C99 1.479 . S
C102 C97 1.245 . S
C102 C98 1.477 . S
C102 H119 0.932 . S
C103 U86 2.882 . S
C103 C97 1.428 . S
C103 O106 1.301 . S
C103 O107 1.282 . S
O104 U86 2.441 . S
O104 C90 1.249 . S
O105 U86 2.420 . S
O105 C90 1.202 . S
O106 U86 2.455 . S
O106 C103 1.301 . S
O107 U86 2.449 . S
O107 C103 1.282 . S
H108 C81 0.931 . S
H109 C83 0.929 . S
H110 C84 0.930 . S
H111 C85 0.931 . S
H112 C92 0.932 . S
H113 C93 0.930 . S
H114 C94 0.929 . S
H115 C96 0.930 . S
H116 C98 0.932 . S
H117 C99 0.929 . S
H118 C100 0.928 . S
H119 C102 0.932 . S
C120 C121 1.264 . S
C120 C125 1.479 . S
C120 C130 1.465 . S
C121 C120 1.264 . S
C121 C123 1.344 . S
C121 H148 0.931 . S
C122 C123 1.394 1_655 S
C122 C124 1.320 1_655 S
C123 C121 1.344 . S
C123 C122 1.394 1_455 S
C123 H149 0.923 1_455 S
C124 C122 1.320 1_455 S
C124 C125 1.405 . S
C124 H150 0.930 . S
C125 C120 1.479 . S
C125 C124 1.405 . S
C125 H151 0.931 . S
U126 O127 2.454 . S
U126 O128 2.458 . S
U126 C129 2.984 . S
U126 C130 2.847 . S
U126 C143 2.882 . S
U126 O144 2.441 . S
U126 O145 2.420 . S
U126 O146 2.455 . S
U126 O147 2.449 . S
O127 U126 2.454 . S
O127 C129 1.353 . S
O128 U126 2.458 . S
O128 C129 1.286 . S
C129 U126 2.984 . S
C129 O127 1.353 . S
C129 O128 1.286 . S
C129 C131 1.363 . S
C130 C120 1.465 . S
C130 U126 2.847 . S
C130 O144 1.249 . S
C130 O145 1.202 . S
C131 C129 1.363 . S
C131 C133 1.408 . S
C131 C136 1.342 . S
C132 C133 1.310 . S
C132 C135 1.461 . S
C132 H152 0.932 . S
C133 C131 1.408 . S
C133 C132 1.310 . S
C133 H153 0.930 . S
C134 C135 1.474 . S
C134 C136 1.285 . S
C134 H154 0.929 . S
C135 C132 1.461 . S
C135 C134 1.474 . S
C136 C131 1.342 . S
C136 C134 1.285 . S
C136 H155 0.930 . S
C137 C140 1.424 . S
C137 C142 1.245 . S
C137 C143 1.428 . S
C138 C141 1.260 . S
C138 C142 1.477 . S
C138 H156 0.932 . S
C139 C140 1.384 . S
C139 C141 1.479 . S
C139 H157 0.929 . S
C140 C137 1.424 . S
C140 C139 1.384 . S
C140 H158 0.928 . S
C141 C138 1.260 . S
C141 C139 1.479 . S
C142 C137 1.245 . S
C142 C138 1.477 . S
C142 H159 0.932 . S
C143 U126 2.882 . S
C143 C137 1.428 . S
C143 O146 1.301 . S
C143 O147 1.282 . S
O144 U126 2.441 . S
O144 C130 1.249 . S
O145 U126 2.420 . S
O145 C130 1.202 . S
O146 U126 2.455 . S
O146 C143 1.301 . S
O147 U126 2.449 . S
O147 C143 1.282 . S
H148 C121 0.931 . S
H149 C123 0.923 1_655 S
H150 C124 0.930 . S
H151 C125 0.931 . S
H152 C132 0.932 . S
H153 C133 0.930 . S
H154 C134 0.929 . S
H155 C136 0.930 . S
H156 C138 0.932 . S
H157 C139 0.929 . S
H158 C140 0.928 . S
H159 C142 0.932 . S
C160 C161 1.264 . S
C160 C165 1.479 . S
C160 C170 1.465 . S
C161 C160 1.264 . S
C161 C163 1.339 . S
C161 H188 0.931 . S
C162 C163 1.395 . S
C162 C164 1.320 . S
C163 C161 1.339 . S
C163 C162 1.395 . S
C163 H189 0.929 . S
C164 C162 1.320 . S
C164 C165 1.405 . S
C164 H190 0.930 . S
C165 C160 1.479 . S
C165 C164 1.405 . S
C165 H191 0.931 . S
U166 O167 2.454 . S
U166 O168 2.458 . S
U166 C169 2.984 . S
U166 C170 2.847 . S
U166 C183 2.882 . S
U166 O184 2.441 . S
U166 O185 2.420 . S
U166 O186 2.455 . S
U166 O187 2.449 . S
O167 U166 2.454 . S
O167 C169 1.353 . S
O168 U166 2.458 . S
O168 C169 1.286 . S
C169 U166 2.984 . S
C169 O167 1.353 . S
C169 O168 1.286 . S
C169 C171 1.363 . S
C170 C160 1.465 . S
C170 U166 2.847 . S
C170 O184 1.249 . S
C170 O185 1.202 . S
C171 C169 1.363 . S
C171 C173 1.408 . S
C171 C176 1.342 . S
C172 C173 1.310 . S
C172 C175 1.461 1_565 S
C172 H192 0.932 . S
C173 C171 1.408 . S
C173 C172 1.310 . S
C173 H193 0.930 . S
C174 C175 1.474 1_565 S
C174 C176 1.285 . S
C174 H194 0.929 1_565 S
C175 C172 1.461 1_545 S
C175 C174 1.474 1_545 S
C176 C171 1.342 . S
C176 C174 1.285 . S
C176 H195 0.930 . S
C177 C180 1.424 . S
C177 C182 1.245 . S
C177 C183 1.428 . S
C178 C181 1.260 . S
C178 C182 1.477 . S
C178 H196 0.932 . S
C179 C180 1.384 . S
C179 C181 1.479 . S
C179 H197 0.929 . S
C180 C177 1.424 . S
C180 C179 1.384 . S
C180 H198 0.928 . S
C181 C178 1.260 . S
C181 C179 1.479 . S
C182 C177 1.245 . S
C182 C178 1.477 . S
C182 H199 0.932 . S
C183 U166 2.882 . S
C183 C177 1.428 . S
C183 O186 1.301 . S
C183 O187 1.282 . S
O184 U166 2.441 . S
O184 C170 1.249 . S
O185 U166 2.420 . S
O185 C170 1.202 . S
O186 U166 2.455 . S
O186 C183 1.301 . S
O187 U166 2.449 . S
O187 C183 1.282 . S
H188 C161 0.931 . S
H189 C163 0.929 . S
H190 C164 0.930 . S
H191 C165 0.931 . S
H192 C172 0.932 . S
H193 C173 0.930 . S
H194 C174 0.929 1_545 S
H195 C176 0.930 . S
H196 C178 0.932 . S
H197 C179 0.929 . S
H198 C180 0.928 . S
H199 C182 0.932 . S
C200 C201 1.264 . S
C200 C205 1.479 . S
C200 C210 1.465 . S
C201 C200 1.264 . S
C201 C203 1.339 1_455 S
C201 H228 0.931 . S
C202 C203 1.395 . S
C202 C204 1.320 1_655 S
C203 C201 1.339 1_655 S
C203 C202 1.395 . S
C203 H229 0.929 . S
C204 C202 1.320 1_455 S
C204 C205 1.405 . S
C204 H230 0.930 . S
C205 C200 1.479 . S
C205 C204 1.405 . S
C205 H231 0.931 . S
U206 O207 2.454 . S
U206 O208 2.458 . S
U206 C209 2.984 . S
U206 C210 2.847 . S
U206 C223 2.882 . S
U206 O224 2.441 . S
U206 O225 2.420 . S
U206 O226 2.455 . S
U206 O227 2.449 . S
O207 U206 2.454 . S
O207 C209 1.353 . S
O208 U206 2.458 . S
O208 C209 1.286 . S
C209 U206 2.984 . S
C209 O207 1.353 . S
C209 O208 1.286 . S
C209 C211 1.363 . S
C210 C200 1.465 . S
C210 U206 2.847 . S
C210 O224 1.249 . S
C210 O225 1.202 . S
C211 C209 1.363 . S
C211 C213 1.408 . S
C211 C216 1.342 . S
C212 C213 1.310 . S
C212 C215 1.461 1_565 S
C212 H232 0.932 . S
C213 C211 1.408 . S
C213 C212 1.310 . S
C213 H233 0.930 . S
C214 C215 1.474 1_565 S
C214 C216 1.285 . S
C214 H234 0.929 1_565 S
C215 C212 1.461 1_545 S
C215 C214 1.474 1_545 S
C216 C211 1.342 . S
C216 C214 1.285 . S
C216 H235 0.930 . S
C217 C220 1.424 . S
C217 C222 1.245 . S
C217 C223 1.428 . S
C218 C221 1.260 . S
C218 C222 1.477 . S
C218 H236 0.932 . S
C219 C220 1.384 . S
C219 C221 1.479 . S
C219 H237 0.929 . S
C220 C217 1.424 . S
C220 C219 1.384 . S
C220 H238 0.928 . S
C221 C218 1.260 . S
C221 C219 1.479 . S
C222 C217 1.245 . S
C222 C218 1.477 . S
C222 H239 0.932 . S
C223 U206 2.882 . S
C223 C217 1.428 . S
C223 O226 1.301 . S
C223 O227 1.282 . S
O224 U206 2.441 . S
O224 C210 1.249 . S
O225 U206 2.420 . S
O225 C210 1.202 . S
O226 U206 2.455 . S
O226 C223 1.301 . S
O227 U206 2.449 . S
O227 C223 1.282 . S
H228 C201 0.931 . S
H229 C203 0.929 . S
H230 C204 0.930 . S
H231 C205 0.931 . S
H232 C212 0.932 . S
H233 C213 0.930 . S
H234 C214 0.929 1_545 S
H235 C216 0.930 . S
H236 C218 0.932 . S
H237 C219 0.929 . S
H238 C220 0.928 . S
H239 C222 0.932 . S
C240 C241 1.264 . S
C240 C245 1.479 . S
C240 C250 1.465 . S
C241 C240 1.264 . S
C241 C243 1.339 . S
C241 H268 0.931 . S
C242 C243 1.395 . S
C242 C244 1.320 . S
C243 C241 1.339 . S
C243 C242 1.395 . S
C243 H269 0.929 . S
C244 C242 1.320 . S
C244 C245 1.405 . S
C244 H270 0.930 . S
C245 C240 1.479 . S
C245 C244 1.405 . S
C245 H271 0.931 . S
U246 O247 2.454 . S
U246 O248 2.458 . S
U246 C249 2.984 . S
U246 C250 2.847 . S
U246 C263 2.882 . S
U246 O264 2.441 . S
U246 O265 2.420 . S
U246 O266 2.455 . S
U246 O267 2.449 . S
O247 U246 2.454 . S
O247 C249 1.353 . S
O248 U246 2.458 . S
O248 C249 1.286 . S
C249 U246 2.984 . S
C249 O247 1.353 . S
C249 O248 1.286 . S
C249 C251 1.363 . S
C250 C240 1.465 . S
C250 U246 2.847 . S
C250 O264 1.249 . S
C250 O265 1.202 . S
C251 C249 1.363 . S
C251 C253 1.408 . S
C251 C256 1.342 . S
C252 C253 1.310 . S
C252 C255 1.461 . S
C252 H272 0.932 . S
C253 C251 1.408 . S
C253 C252 1.310 . S
C253 H273 0.930 . S
C254 C255 1.474 . S
C254 C256 1.285 . S
C254 H274 0.929 . S
C255 C252 1.461 . S
C255 C254 1.474 . S
C256 C251 1.342 . S
C256 C254 1.285 . S
C256 H275 0.930 . S
C257 C260 1.424 . S
C257 C262 1.245 . S
C257 C263 1.428 . S
C258 C261 1.260 . S
C258 C262 1.477 . S
C258 H276 0.932 . S
C259 C260 1.384 . S
C259 C261 1.479 . S
C259 H277 0.929 . S
C260 C257 1.424 . S
C260 C259 1.384 . S
C260 H278 0.928 . S
C261 C258 1.260 . S
C261 C259 1.479 . S
C262 C257 1.245 . S
C262 C258 1.477 . S
C262 H279 0.932 . S
C263 U246 2.882 . S
C263 C257 1.428 . S
C263 O266 1.301 . S
C263 O267 1.282 . S
O264 U246 2.441 . S
O264 C250 1.249 . S
O265 U246 2.420 . S
O265 C250 1.202 . S
O266 U246 2.455 . S
O266 C263 1.301 . S
O267 U246 2.449 . S
O267 C263 1.282 . S
H268 C241 0.931 . S
H269 C243 0.929 . S
H270 C244 0.930 . S
H271 C245 0.931 . S
H272 C252 0.932 . S
H273 C253 0.930 . S
H274 C254 0.929 . S
H275 C256 0.930 . S
H276 C258 0.932 . S
H277 C259 0.929 . S
H278 C260 0.928 . S
H279 C262 0.932 . S
C280 C281 1.264 . S
C280 C285 1.479 . S
C280 C290 1.465 . S
C281 C280 1.264 . S
C281 C283 1.339 . S
C281 H308 0.931 . S
C282 C283 1.395 . S
C282 C284 1.320 . S
C283 C281 1.339 . S
C283 C282 1.395 . S
C283 H309 0.929 . S
C284 C282 1.320 . S
C284 C285 1.405 . S
C284 H310 0.930 . S
C285 C280 1.479 . S
C285 C284 1.405 . S
C285 H311 0.931 . S
U286 O287 2.454 . S
U286 O288 2.458 . S
U286 C289 2.984 . S
U286 C290 2.847 . S
U286 C303 2.882 . S
U286 O304 2.441 . S
U286 O305 2.420 . S
U286 O306 2.455 . S
U286 O307 2.449 . S
O287 U286 2.454 . S
O287 C289 1.353 . S
O288 U286 2.458 . S
O288 C289 1.286 . S
C289 U286 2.984 . S
C289 O287 1.353 . S
C289 O288 1.286 . S
C289 C291 1.363 . S
C290 C280 1.465 . S
C290 U286 2.847 . S
C290 O304 1.249 . S
C290 O305 1.202 . S
C291 C289 1.363 . S
C291 C293 1.408 . S
C291 C296 1.342 . S
C292 C293 1.310 . S
C292 C295 1.461 . S
C292 H312 0.932 . S
C293 C291 1.408 . S
C293 C292 1.310 . S
C293 H313 0.930 . S
C294 C295 1.474 . S
C294 C296 1.285 . S
C294 H314 0.929 . S
C295 C292 1.461 . S
C295 C294 1.474 . S
C296 C291 1.342 . S
C296 C294 1.285 . S
C296 H315 0.930 . S
C297 C300 1.424 . S
C297 C302 1.245 . S
C297 C303 1.428 . S
C298 C301 1.260 . S
C298 C302 1.477 . S
C298 H316 0.932 . S
C299 C300 1.384 . S
C299 C301 1.479 . S
C299 H317 0.929 . S
C300 C297 1.424 . S
C300 C299 1.384 . S
C300 H318 0.928 . S
C301 C298 1.260 . S
C301 C299 1.479 . S
C302 C297 1.245 . S
C302 C298 1.477 . S
C302 H319 0.932 . S
C303 U286 2.882 . S
C303 C297 1.428 . S
C303 O306 1.301 . S
C303 O307 1.282 . S
O304 U286 2.441 . S
O304 C290 1.249 . S
O305 U286 2.420 . S
O305 C290 1.202 . S
O306 U286 2.455 . S
O306 C303 1.301 . S
O307 U286 2.449 . S
O307 C303 1.282 . S
H308 C281 0.931 . S
H309 C283 0.929 . S
H310 C284 0.930 . S
H311 C285 0.931 . S
H312 C292 0.932 . S
H313 C293 0.930 . S
H314 C294 0.929 . S
H315 C296 0.930 . S
H316 C298 0.932 . S
H317 C299 0.929 . S
H318 C300 0.928 . S
H319 C302 0.932 . S
C320 C321 1.264 . S
C320 C325 1.479 . S
C320 C330 1.465 . S
C321 C320 1.264 . S
C321 C323 1.339 . S
C321 H348 0.931 . S
C322 C323 1.395 . S
C322 C324 1.320 . S
C323 C321 1.339 . S
C323 C322 1.395 . S
C323 H349 0.929 . S
C324 C322 1.320 . S
C324 C325 1.405 . S
C324 H350 0.930 . S
C325 C320 1.479 . S
C325 C324 1.405 . S
C325 H351 0.931 . S
U326 O327 2.454 . S
U326 O328 2.458 . S
U326 C329 2.984 . S
U326 C330 2.847 . S
U326 C343 2.882 . S
U326 O344 2.441 . S
U326 O345 2.420 . S
U326 O346 2.455 . S
U326 O347 2.449 . S
O327 U326 2.454 . S
O327 C329 1.353 . S
O328 U326 2.458 . S
O328 C329 1.286 . S
C329 U326 2.984 . S
C329 O327 1.353 . S
C329 O328 1.286 . S
C329 C331 1.363 . S
C330 C320 1.465 . S
C330 U326 2.847 . S
C330 O344 1.249 . S
C330 O345 1.202 . S
C331 C329 1.363 . S
C331 C333 1.408 . S
C331 C336 1.342 . S
C332 C333 1.310 . S
C332 C335 1.461 . S
C332 H352 0.932 . S
C333 C331 1.408 . S
C333 C332 1.310 . S
C333 H353 0.930 . S
C334 C335 1.474 . S
C334 C336 1.285 . S
C334 H354 0.929 . S
C335 C332 1.461 . S
C335 C334 1.474 . S
C336 C331 1.342 . S
C336 C334 1.285 . S
C336 H355 0.930 . S
C337 C340 1.424 . S
C337 C342 1.245 . S
C337 C343 1.428 . S
C338 C341 1.260 . S
C338 C342 1.477 . S
C338 H356 0.932 . S
C339 C340 1.384 . S
C339 C341 1.479 . S
C339 H357 0.929 . S
C340 C337 1.424 . S
C340 C339 1.384 . S
C340 H358 0.928 . S
C341 C338 1.260 . S
C341 C339 1.479 . S
C342 C337 1.245 . S
C342 C338 1.477 . S
C342 H359 0.932 . S
C343 U326 2.882 . S
C343 C337 1.428 . S
C343 O346 1.301 . S
C343 O347 1.282 . S
O344 U326 2.441 . S
O344 C330 1.249 . S
O345 U326 2.420 . S
O345 C330 1.202 . S
O346 U326 2.455 . S
O346 C343 1.301 . S
O347 U326 2.449 . S
O347 C343 1.282 . S
H348 C321 0.931 . S
H349 C323 0.929 . S
H350 C324 0.930 . S
H351 C325 0.931 . S
H352 C332 0.932 . S
H353 C333 0.930 . S
H354 C334 0.929 . S
H355 C336 0.930 . S
H356 C338 0.932 . S
H357 C339 0.929 . S
H358 C340 0.928 . S
H359 C342 0.932 . S
C360 C361 1.264 . S
C360 C365 1.479 . S
C360 C370 1.465 . S
C361 C360 1.264 . S
C361 C363 1.339 . S
C361 H388 0.931 . S
C362 C363 1.395 . S
C362 C364 1.320 . S
C363 C361 1.339 . S
C363 C362 1.395 . S
C363 H389 0.929 . S
C364 C362 1.320 . S
C364 C365 1.405 . S
C364 H390 0.930 . S
C365 C360 1.479 . S
C365 C364 1.405 . S
C365 H391 0.931 . S
U366 O367 2.454 . S
U366 O368 2.458 . S
U366 C369 2.984 . S
U366 C370 2.847 . S
U366 C383 2.882 . S
U366 O384 2.441 . S
U366 O385 2.420 . S
U366 O386 2.455 . S
U366 O387 2.449 . S
O367 U366 2.454 . S
O367 C369 1.353 . S
O368 U366 2.458 . S
O368 C369 1.286 . S
C369 U366 2.984 . S
C369 O367 1.353 . S
C369 O368 1.286 . S
C369 C371 1.363 . S
C370 C360 1.465 . S
C370 U366 2.847 . S
C370 O384 1.249 . S
C370 O385 1.202 . S
C371 C369 1.363 . S
C371 C373 1.408 . S
C371 C376 1.342 . S
C372 C373 1.310 . S
C372 C375 1.461 . S
C372 H392 0.932 . S
C373 C371 1.408 . S
C373 C372 1.310 . S
C373 H393 0.930 . S
C374 C375 1.474 . S
C374 C376 1.285 . S
C374 H394 0.929 . S
C375 C372 1.461 . S
C375 C374 1.474 . S
C376 C371 1.342 . S
C376 C374 1.285 . S
C376 H395 0.930 . S
C377 C380 1.424 . S
C377 C382 1.245 . S
C377 C383 1.428 . S
C378 C381 1.260 . S
C378 C382 1.477 . S
C378 H396 0.932 . S
C379 C380 1.384 . S
C379 C381 1.479 . S
C379 H397 0.929 . S
C380 C377 1.424 . S
C380 C379 1.384 . S
C380 H398 0.928 . S
C381 C378 1.260 . S
C381 C379 1.479 . S
C382 C377 1.245 . S
C382 C378 1.477 . S
C382 H399 0.932 . S
C383 U366 2.882 . S
C383 C377 1.428 . S
C383 O386 1.301 . S
C383 O387 1.282 . S
O384 U366 2.441 . S
O384 C370 1.249 . S
O385 U366 2.420 . S
O385 C370 1.202 . S
O386 U366 2.455 . S
O386 C383 1.301 . S
O387 U366 2.449 . S
O387 C383 1.282 . S
H388 C361 0.931 . S
H389 C363 0.929 . S
H390 C364 0.930 . S
H391 C365 0.931 . S
H392 C372 0.932 . S
H393 C373 0.930 . S
H394 C374 0.929 . S
H395 C376 0.930 . S
H396 C378 0.932 . S
H397 C379 0.929 . S
H398 C380 0.928 . S
H399 C382 0.932 . S
C400 C401 1.264 . S
C400 C405 1.479 . S
C400 C410 1.465 . S
C401 C400 1.264 . S
C401 C403 1.339 . S
C401 H428 0.931 . S
C402 C403 1.395 . S
C402 C404 1.320 . S
C403 C401 1.339 . S
C403 C402 1.395 . S
C403 H429 0.929 . S
C404 C402 1.320 . S
C404 C405 1.405 . S
C404 H430 0.930 . S
C405 C400 1.479 . S
C405 C404 1.405 . S
C405 H431 0.931 . S
U406 O407 2.454 . S
U406 O408 2.458 . S
U406 C409 2.984 . S
U406 C410 2.847 . S
U406 C423 2.882 . S
U406 O424 2.441 . S
U406 O425 2.420 . S
U406 O426 2.455 . S
U406 O427 2.449 . S
O407 U406 2.454 . S
O407 C409 1.353 . S
O408 U406 2.458 . S
O408 C409 1.286 . S
C409 U406 2.984 . S
C409 O407 1.353 . S
C409 O408 1.286 . S
C409 C411 1.363 . S
C410 C400 1.465 . S
C410 U406 2.847 . S
C410 O424 1.249 . S
C410 O425 1.202 . S
C411 C409 1.363 . S
C411 C413 1.408 . S
C411 C416 1.342 . S
C412 C413 1.310 . S
C412 C415 1.461 . S
C412 H432 0.932 . S
C413 C411 1.408 . S
C413 C412 1.310 . S
C413 H433 0.930 . S
C414 C415 1.474 . S
C414 C416 1.285 . S
C414 H434 0.929 . S
C415 C412 1.461 . S
C415 C414 1.474 . S
C416 C411 1.342 . S
C416 C414 1.285 . S
C416 H435 0.930 . S
C417 C420 1.424 . S
C417 C422 1.245 . S
C417 C423 1.428 . S
C418 C421 1.260 . S
C418 C422 1.477 . S
C418 H436 0.932 . S
C419 C420 1.384 . S
C419 C421 1.479 . S
C419 H437 0.929 . S
C420 C417 1.424 . S
C420 C419 1.384 . S
C420 H438 0.928 . S
C421 C418 1.260 . S
C421 C419 1.479 . S
C422 C417 1.245 . S
C422 C418 1.477 . S
C422 H439 0.932 . S
C423 U406 2.882 . S
C423 C417 1.428 . S
C423 O426 1.301 . S
C423 O427 1.282 . S
O424 U406 2.441 . S
O424 C410 1.249 . S
O425 U406 2.420 . S
O425 C410 1.202 . S
O426 U406 2.455 . S
O426 C423 1.301 . S
O427 U406 2.449 . S
O427 C423 1.282 . S
H428 C401 0.931 . S
H429 C403 0.929 . S
H430 C404 0.930 . S
H431 C405 0.931 . S
H432 C412 0.932 . S
H433 C413 0.930 . S
H434 C414 0.929 . S
H435 C416 0.930 . S
H436 C418 0.932 . S
H437 C419 0.929 . S
H438 C420 0.928 . S
H439 C422 0.932 . S
C440 C441 1.264 . S
C440 C445 1.479 . S
C440 C450 1.465 . S
C441 C440 1.264 . S
C441 C443 1.339 . S
C441 H468 0.931 . S
C442 C443 1.395 . S
C442 C444 1.320 . S
C443 C441 1.339 . S
C443 C442 1.395 . S
C443 H469 0.929 . S
C444 C442 1.320 . S
C444 C445 1.405 . S
C444 H470 0.930 . S
C445 C440 1.479 . S
C445 C444 1.405 . S
C445 H471 0.931 . S
U446 O447 2.454 . S
U446 O448 2.458 . S
U446 C449 2.984 . S
U446 C450 2.847 . S
U446 C463 2.882 . S
U446 O464 2.441 . S
U446 O465 2.420 . S
U446 O466 2.455 . S
U446 O467 2.449 . S
O447 U446 2.454 . S
O447 C449 1.353 . S
O448 U446 2.458 . S
O448 C449 1.286 . S
C449 U446 2.984 . S
C449 O447 1.353 . S
C449 O448 1.286 . S
C449 C451 1.363 . S
C450 C440 1.465 . S
C450 U446 2.847 . S
C450 O464 1.249 . S
C450 O465 1.202 . S
C451 C449 1.363 . S
C451 C453 1.408 . S
C451 C456 1.342 . S
C452 C453 1.310 . S
C452 C455 1.461 . S
C452 H472 0.932 . S
C453 C451 1.408 . S
C453 C452 1.310 . S
C453 H473 0.930 . S
C454 C455 1.474 . S
C454 C456 1.285 . S
C454 H474 0.929 . S
C455 C452 1.461 . S
C455 C454 1.474 . S
C456 C451 1.342 . S
C456 C454 1.285 . S
C456 H475 0.930 . S
C457 C460 1.424 . S
C457 C462 1.245 . S
C457 C463 1.428 . S
C458 C461 1.260 . S
C458 C462 1.477 . S
C458 H476 0.932 . S
C459 C460 1.384 . S
C459 C461 1.479 . S
C459 H477 0.929 . S
C460 C457 1.424 . S
C460 C459 1.384 . S
C460 H478 0.928 . S
C461 C458 1.260 . S
C461 C459 1.479 . S
C462 C457 1.245 . S
C462 C458 1.477 . S
C462 H479 0.932 . S
C463 U446 2.882 . S
C463 C457 1.428 . S
C463 O466 1.301 . S
C463 O467 1.282 . S
O464 U446 2.441 . S
O464 C450 1.249 . S
O465 U446 2.420 . S
O465 C450 1.202 . S
O466 U446 2.455 . S
O466 C463 1.301 . S
O467 U446 2.449 . S
O467 C463 1.282 . S
H468 C441 0.931 . S
H469 C443 0.929 . S
H470 C444 0.930 . S
H471 C445 0.931 . S
H472 C452 0.932 . S
H473 C453 0.930 . S
H474 C454 0.929 . S
H475 C456 0.930 . S
H476 C458 0.932 . S
H477 C459 0.929 . S
H478 C460 0.928 . S
H479 C462 0.932 . S
C480 C481 1.264 . S
C480 C485 1.479 . S
C480 C490 1.465 . S
C481 C480 1.264 . S
C481 C483 1.339 . S
C481 H508 0.931 . S
C482 C483 1.395 . S
C482 C484 1.320 . S
C483 C481 1.339 . S
C483 C482 1.395 . S
C483 H509 0.929 . S
C484 C482 1.320 . S
C484 C485 1.405 . S
C484 H510 0.930 . S
C485 C480 1.479 . S
C485 C484 1.405 . S
C485 H511 0.931 . S
U486 O487 2.454 . S
U486 O488 2.458 . S
U486 C489 2.984 . S
U486 C490 2.847 . S
U486 C503 2.882 . S
U486 O504 2.441 . S
U486 O505 2.420 . S
U486 O506 2.455 . S
U486 O507 2.449 . S
O487 U486 2.454 . S
O487 C489 1.353 . S
O488 U486 2.458 . S
O488 C489 1.286 . S
C489 U486 2.984 . S
C489 O487 1.353 . S
C489 O488 1.286 . S
C489 C491 1.363 . S
C490 C480 1.465 . S
C490 U486 2.847 . S
C490 O504 1.249 . S
C490 O505 1.202 . S
C491 C489 1.363 . S
C491 C493 1.408 . S
C491 C496 1.342 . S
C492 C493 1.310 . S
C492 C495 1.461 . S
C492 H512 0.932 . S
C493 C491 1.408 . S
C493 C492 1.310 . S
C493 H513 0.930 . S
C494 C495 1.474 . S
C494 C496 1.285 . S
C494 H514 0.929 . S
C495 C492 1.461 . S
C495 C494 1.474 . S
C496 C491 1.342 . S
C496 C494 1.285 . S
C496 H515 0.930 . S
C497 C500 1.424 . S
C497 C502 1.245 . S
C497 C503 1.428 . S
C498 C501 1.260 . S
C498 C502 1.477 . S
C498 H516 0.932 . S
C499 C500 1.384 . S
C499 C501 1.479 . S
C499 H517 0.929 . S
C500 C497 1.424 . S
C500 C499 1.384 . S
C500 H518 0.928 . S
C501 C498 1.260 . S
C501 C499 1.479 . S
C502 C497 1.245 . S
C502 C498 1.477 . S
C502 H519 0.932 . S
C503 U486 2.882 . S
C503 C497 1.428 . S
C503 O506 1.301 . S
C503 O507 1.282 . S
O504 U486 2.441 . S
O504 C490 1.249 . S
O505 U486 2.420 . S
O505 C490 1.202 . S
O506 U486 2.455 . S
O506 C503 1.301 . S
O507 U486 2.449 . S
O507 C503 1.282 . S
H508 C481 0.931 . S
H509 C483 0.929 . S
H510 C484 0.930 . S
H511 C485 0.931 . S
H512 C492 0.932 . S
H513 C493 0.930 . S
H514 C494 0.929 . S
H515 C496 0.930 . S
H516 C498 0.932 . S
H517 C499 0.929 . S
H518 C500 0.928 . S
H519 C502 0.932 . S
C520 C521 1.264 . S
C520 C525 1.479 . S
C520 C530 1.465 . S
C521 C520 1.264 . S
C521 C523 1.339 . S
C521 H548 0.931 . S
C522 C523 1.395 . S
C522 C524 1.320 . S
C523 C521 1.339 . S
C523 C522 1.395 . S
C523 H549 0.929 . S
C524 C522 1.320 . S
C524 C525 1.405 . S
C524 H550 0.930 . S
C525 C520 1.479 . S
C525 C524 1.405 . S
C525 H551 0.931 . S
U526 O527 2.454 . S
U526 O528 2.458 . S
U526 C529 2.984 . S
U526 C530 2.847 . S
U526 C543 2.882 . S
U526 O544 2.441 . S
U526 O545 2.420 . S
U526 O546 2.455 . S
U526 O547 2.449 . S
O527 U526 2.454 . S
O527 C529 1.353 . S
O528 U526 2.458 . S
O528 C529 1.286 . S
C529 U526 2.984 . S
C529 O527 1.353 . S
C529 O528 1.286 . S
C529 C531 1.363 . S
C530 C520 1.465 . S
C530 U526 2.847 . S
C530 O544 1.249 . S
C530 O545 1.202 . S
C531 C529 1.363 . S
C531 C533 1.408 . S
C531 C536 1.342 . S
C532 C533 1.310 . S
C532 C535 1.461 . S
C532 H552 0.932 . S
C533 C531 1.408 . S
C533 C532 1.310 . S
C533 H553 0.930 . S
C534 C535 1.474 . S
C534 C536 1.285 . S
C534 H554 0.929 . S
C535 C532 1.461 . S
C535 C534 1.474 . S
C536 C531 1.342 . S
C536 C534 1.285 . S
C536 H555 0.930 . S
C537 C540 1.424 . S
C537 C542 1.245 . S
C537 C543 1.428 . S
C538 C541 1.260 . S
C538 C542 1.477 . S
C538 H556 0.932 . S
C539 C540 1.384 . S
C539 C541 1.479 . S
C539 H557 0.929 . S
C540 C537 1.424 . S
C540 C539 1.384 . S
C540 H558 0.928 . S
C541 C538 1.260 . S
C541 C539 1.479 . S
C542 C537 1.245 . S
C542 C538 1.477 . S
C542 H559 0.932 . S
C543 U526 2.882 . S
C543 C537 1.428 . S
C543 O546 1.301 . S
C543 O547 1.282 . S
O544 U526 2.441 . S
O544 C530 1.249 . S
O545 U526 2.420 . S
O545 C530 1.202 . S
O546 U526 2.455 . S
O546 C543 1.301 . S
O547 U526 2.449 . S
O547 C543 1.282 . S
H548 C521 0.931 . S
H549 C523 0.929 . S
H550 C524 0.930 . S
H551 C525 0.931 . S
H552 C532 0.932 . S
H553 C533 0.930 . S
H554 C534 0.929 . S
H555 C536 0.930 . S
H556 C538 0.932 . S
H557 C539 0.929 . S
H558 C540 0.928 . S
H559 C542 0.932 . S
C560 C561 1.264 . S
C560 C565 1.479 . S
C560 C570 1.465 . S
C561 C560 1.264 . S
C561 C563 1.339 . S
C561 H588 0.931 . S
C562 C563 1.395 . S
C562 C564 1.320 . S
C563 C561 1.339 . S
C563 C562 1.395 . S
C563 H589 0.929 . S
C564 C562 1.320 . S
C564 C565 1.405 . S
C564 H590 0.930 . S
C565 C560 1.479 . S
C565 C564 1.405 . S
C565 H591 0.931 . S
U566 O567 2.454 . S
U566 O568 2.458 . S
U566 C569 2.984 . S
U566 C570 2.847 . S
U566 C583 2.882 . S
U566 O584 2.441 . S
U566 O585 2.420 . S
U566 O586 2.455 . S
U566 O587 2.449 . S
O567 U566 2.454 . S
O567 C569 1.353 . S
O568 U566 2.458 . S
O568 C569 1.286 . S
C569 U566 2.984 . S
C569 O567 1.353 . S
C569 O568 1.286 . S
C569 C571 1.363 . S
C570 C560 1.465 . S
C570 U566 2.847 . S
C570 O584 1.249 . S
C570 O585 1.202 . S
C571 C569 1.363 . S
C571 C573 1.408 . S
C571 C576 1.342 . S
C572 C573 1.310 . S
C572 C575 1.461 . S
C572 H592 0.932 . S
C573 C571 1.408 . S
C573 C572 1.310 . S
C573 H593 0.930 . S
C574 C575 1.474 . S
C574 C576 1.285 . S
C574 H594 0.929 . S
C575 C572 1.461 . S
C575 C574 1.474 . S
C576 C571 1.342 . S
C576 C574 1.285 . S
C576 H595 0.930 . S
C577 C580 1.424 . S
C577 C582 1.245 . S
C577 C583 1.428 . S
C578 C581 1.260 . S
C578 C582 1.477 . S
C578 H596 0.932 . S
C579 C580 1.384 . S
C579 C581 1.479 . S
C579 H597 0.929 . S
C580 C577 1.424 . S
C580 C579 1.384 . S
C580 H598 0.928 . S
C581 C578 1.260 . S
C581 C579 1.479 . S
C582 C577 1.245 . S
C582 C578 1.477 . S
C582 H599 0.932 . S
C583 U566 2.882 . S
C583 C577 1.428 . S
C583 O586 1.301 . S
C583 O587 1.282 . S
O584 U566 2.441 . S
O584 C570 1.249 . S
O585 U566 2.420 . S
O585 C570 1.202 . S
O586 U566 2.455 . S
O586 C583 1.301 . S
O587 U566 2.449 . S
O587 C583 1.282 . S
H588 C561 0.931 . S
H589 C563 0.929 . S
H590 C564 0.930 . S
H591 C565 0.931 . S
H592 C572 0.932 . S
H593 C573 0.930 . S
H594 C574 0.929 . S
H595 C576 0.930 . S
H596 C578 0.932 . S
H597 C579 0.929 . S
H598 C580 0.928 . S
H599 C582 0.932 . S
C600 C601 1.264 . S
C600 C605 1.479 . S
C600 C610 1.465 . S
C601 C600 1.264 . S
C601 C603 1.339 . S
C601 H628 0.931 . S
C602 C603 1.395 . S
C602 C604 1.320 . S
C603 C601 1.339 . S
C603 C602 1.395 . S
C603 H629 0.929 . S
C604 C602 1.320 . S
C604 C605 1.405 . S
C604 H630 0.930 . S
C605 C600 1.479 . S
C605 C604 1.405 . S
C605 H631 0.931 . S
U606 O607 2.454 . S
U606 O608 2.458 . S
U606 C609 2.984 . S
U606 C610 2.847 . S
U606 C623 2.882 . S
U606 O624 2.441 . S
U606 O625 2.420 . S
U606 O626 2.455 . S
U606 O627 2.449 . S
O607 U606 2.454 . S
O607 C609 1.353 . S
O608 U606 2.458 . S
O608 C609 1.286 . S
C609 U606 2.984 . S
C609 O607 1.353 . S
C609 O608 1.286 . S
C609 C611 1.363 . S
C610 C600 1.465 . S
C610 U606 2.847 . S
C610 O624 1.249 . S
C610 O625 1.202 . S
C611 C609 1.363 . S
C611 C613 1.408 . S
C611 C616 1.342 . S
C612 C613 1.310 . S
C612 C615 1.461 . S
C612 H632 0.932 . S
C613 C611 1.408 . S
C613 C612 1.310 . S
C613 H633 0.930 . S
C614 C615 1.474 . S
C614 C616 1.285 . S
C614 H634 0.929 . S
C615 C612 1.461 . S
C615 C614 1.474 . S
C616 C611 1.342 . S
C616 C614 1.285 . S
C616 H635 0.930 . S
C617 C620 1.424 . S
C617 C622 1.245 . S
C617 C623 1.428 . S
C618 C621 1.260 . S
C618 C622 1.477 . S
C618 H636 0.932 . S
C619 C620 1.384 . S
C619 C621 1.479 . S
C619 H637 0.929 . S
C620 C617 1.424 . S
C620 C619 1.384 . S
C620 H638 0.928 . S
C621 C618 1.260 . S
C621 C619 1.479 . S
C622 C617 1.245 . S
C622 C618 1.477 . S
C622 H639 0.932 . S
C623 U606 2.882 . S
C623 C617 1.428 . S
C623 O626 1.301 . S
C623 O627 1.282 . S
O624 U606 2.441 . S
O624 C610 1.249 . S
O625 U606 2.420 . S
O625 C610 1.202 . S
O626 U606 2.455 . S
O626 C623 1.301 . S
O627 U606 2.449 . S
O627 C623 1.282 . S
H628 C601 0.931 . S
H629 C603 0.929 . S
H630 C604 0.930 . S
H631 C605 0.931 . S
H632 C612 0.932 . S
H633 C613 0.930 . S
H634 C614 0.929 . S
H635 C616 0.930 . S
H636 C618 0.932 . S
H637 C619 0.929 . S
H638 C620 0.928 . S
H639 C622 0.932 . S
C640 C641 1.264 . S
C640 C645 1.479 . S
C640 C650 1.465 . S
C641 C640 1.264 . S
C641 C643 1.339 . S
C641 H668 0.931 . S
C642 C643 1.395 . S
C642 C644 1.320 . S
C643 C641 1.339 . S
C643 C642 1.395 . S
C643 H669 0.929 . S
C644 C642 1.320 . S
C644 C645 1.405 . S
C644 H670 0.930 . S
C645 C640 1.479 . S
C645 C644 1.405 . S
C645 H671 0.931 . S
U646 O647 2.454 . S
U646 O648 2.458 . S
U646 C649 2.984 . S
U646 C650 2.847 . S
U646 C663 2.882 . S
U646 O664 2.441 . S
U646 O665 2.420 . S
U646 O666 2.455 . S
U646 O667 2.449 . S
O647 U646 2.454 . S
O647 C649 1.353 . S
O648 U646 2.458 . S
O648 C649 1.286 . S
C649 U646 2.984 . S
C649 O647 1.353 . S
C649 O648 1.286 . S
C649 C651 1.363 . S
C650 C640 1.465 . S
C650 U646 2.847 . S
C650 O664 1.249 . S
C650 O665 1.202 . S
C651 C649 1.363 . S
C651 C653 1.408 . S
C651 C656 1.342 . S
C652 C653 1.310 . S
C652 C655 1.461 . S
C652 H672 0.932 . S
C653 C651 1.408 . S
C653 C652 1.310 . S
C653 H673 0.930 . S
C654 C655 1.474 . S
C654 C656 1.285 . S
C654 H674 0.929 . S
C655 C652 1.461 . S
C655 C654 1.474 . S
C656 C651 1.342 . S
C656 C654 1.285 . S
C656 H675 0.930 . S
C657 C660 1.424 . S
C657 C662 1.245 . S
C657 C663 1.428 . S
C658 C661 1.260 . S
C658 C662 1.477 . S
C658 H676 0.932 . S
C659 C660 1.384 . S
C659 C661 1.479 . S
C659 H677 0.929 . S
C660 C657 1.424 . S
C660 C659 1.384 . S
C660 H678 0.928 . S
C661 C658 1.260 . S
C661 C659 1.479 . S
C662 C657 1.245 . S
C662 C658 1.477 . S
C662 H679 0.932 . S
C663 U646 2.882 . S
C663 C657 1.428 . S
C663 O666 1.301 . S
C663 O667 1.282 . S
O664 U646 2.441 . S
O664 C650 1.249 . S
O665 U646 2.420 . S
O665 C650 1.202 . S
O666 U646 2.455 . S
O666 C663 1.301 . S
O667 U646 2.449 . S
O667 C663 1.282 . S
H668 C641 0.931 . S
H669 C643 0.929 . S
H670 C644 0.930 . S
H671 C645 0.931 . S
H672 C652 0.932 . S
H673 C653 0.930 . S
H674 C654 0.929 . S
H675 C656 0.930 . S
H676 C658 0.932 . S
H677 C659 0.929 . S
H678 C660 0.928 . S
H679 C662 0.932 . S
C680 C681 1.264 . S
C680 C685 1.479 . S
C680 C690 1.465 . S
C681 C680 1.264 . S
C681 C683 1.339 . S
C681 H708 0.931 . S
C682 C683 1.395 . S
C682 C684 1.320 . S
C683 C681 1.339 . S
C683 C682 1.395 . S
C683 H709 0.929 . S
C684 C682 1.320 . S
C684 C685 1.405 . S
C684 H710 0.930 . S
C685 C680 1.479 . S
C685 C684 1.405 . S
C685 H711 0.931 . S
U686 O687 2.454 . S
U686 O688 2.458 . S
U686 C689 2.984 . S
U686 C690 2.847 . S
U686 C703 2.882 . S
U686 O704 2.441 . S
U686 O705 2.420 . S
U686 O706 2.455 . S
U686 O707 2.449 . S
O687 U686 2.454 . S
O687 C689 1.353 . S
O688 U686 2.458 . S
O688 C689 1.286 . S
C689 U686 2.984 . S
C689 O687 1.353 . S
C689 O688 1.286 . S
C689 C691 1.363 . S
C690 C680 1.465 . S
C690 U686 2.847 . S
C690 O704 1.249 . S
C690 O705 1.202 . S
C691 C689 1.363 . S
C691 C693 1.408 . S
C691 C696 1.342 . S
C692 C693 1.310 . S
C692 C695 1.461 . S
C692 H712 0.932 . S
C693 C691 1.408 . S
C693 C692 1.310 . S
C693 H713 0.930 . S
C694 C695 1.474 . S
C694 C696 1.285 . S
C694 H714 0.929 . S
C695 C692 1.461 . S
C695 C694 1.474 . S
C696 C691 1.342 . S
C696 C694 1.285 . S
C696 H715 0.930 . S
C697 C700 1.424 . S
C697 C702 1.245 . S
C697 C703 1.428 . S
C698 C701 1.260 . S
C698 C702 1.477 . S
C698 H716 0.932 . S
C699 C700 1.384 . S
C699 C701 1.479 . S
C699 H717 0.929 . S
C700 C697 1.424 . S
C700 C699 1.384 . S
C700 H718 0.928 . S
C701 C698 1.260 . S
C701 C699 1.479 . S
C702 C697 1.245 . S
C702 C698 1.477 . S
C702 H719 0.932 . S
C703 U686 2.882 . S
C703 C697 1.428 . S
C703 O706 1.301 . S
C703 O707 1.282 . S
O704 U686 2.441 . S
O704 C690 1.249 . S
O705 U686 2.420 . S
O705 C690 1.202 . S
O706 U686 2.455 . S
O706 C703 1.301 . S
O707 U686 2.449 . S
O707 C703 1.282 . S
H708 C681 0.931 . S
H709 C683 0.929 . S
H710 C684 0.930 . S
H711 C685 0.931 . S
H712 C692 0.932 . S
H713 C693 0.930 . S
H714 C694 0.929 . S
H715 C696 0.930 . S
H716 C698 0.932 . S
H717 C699 0.929 . S
H718 C700 0.928 . S
H719 C702 0.932 . S
Eu720 N751 2.657 . S
Eu720 N758 2.609 . S
Eu720 O764 2.558 . S
Eu720 O765 2.642 1_565 S
Eu720 O767 2.339 1_565 S
Eu720 O768 2.563 1_565 S
Eu720 O769 2.419 . S
Eu720 O771 2.380 1_556 S
Eu720 O772 2.432 . S
Eu720 C784 2.848 . S
C721 C724 1.429 . S
C721 C725 1.411 . S
C721 N728 1.377 . S
C722 C724 1.420 . S
C722 C726 1.423 . S
C722 C734 1.392 . S
C723 C725 1.420 . S
C723 C726 1.351 . S
C723 H746 0.931 . S
C724 C721 1.429 . S
C724 C722 1.420 . S
C724 N732 1.362 . S
C725 C721 1.411 . S
C725 C723 1.420 . S
C725 C730 1.395 . S
C726 C722 1.423 . S
C726 C723 1.351 . S
C726 H738 0.930 . S
C727 C729 1.400 . S
C727 C730 1.386 . S
C727 H739 0.930 . S
N728 C721 1.377 . S
N728 C729 1.321 . S
N728 Eu731 2.609 . S
C729 C727 1.400 . S
C729 N728 1.321 . S
C729 H736 0.930 . S
C730 C725 1.395 . S
C730 C727 1.386 . S
C730 H749 0.930 . S
Eu731 N728 2.609 . S
Eu731 N732 2.657 . S
Eu731 O765 2.332 1_554 S
Eu731 O766 2.432 . S
Eu731 O770 2.558 . S
Eu731 O771 2.612 1_545 S
Eu731 O773 2.339 1_545 S
Eu731 O774 2.563 1_545 S
Eu731 O775 2.419 . S
Eu731 C795 2.848 . S
N732 C724 1.362 . S
N732 Eu731 2.657 . S
N732 C733 1.334 . S
C733 N732 1.334 . S
C733 C735 1.413 . S
C733 H740 0.929 . S
C734 C722 1.392 . S
C734 C735 1.367 . S
C734 H742 0.930 . S
C735 C733 1.413 . S
C735 C734 1.367 . S
C735 H737 0.930 . S
H736 C729 0.930 . S
H737 C735 0.930 . S
H738 C726 0.930 . S
H739 C727 0.930 . S
H740 C733 0.929 . S
H741 C755 0.930 . S
H742 C734 0.930 . S
H743 C761 0.930 . S
H744 C752 0.929 . S
H745 C759 0.930 . S
H746 C723 0.931 . S
H747 C753 0.930 . S
H748 C786 0.930 . S
H749 C730 0.930 . S
H750 C785 0.931 . S
N751 Eu720 2.657 . S
N751 C752 1.334 . S
N751 C756 1.362 . S
C752 H744 0.929 . S
C752 N751 1.334 . S
C752 C755 1.413 . S
C753 H747 0.930 . S
C753 C754 1.392 . S
C753 C755 1.367 . S
C754 C753 1.392 . S
C754 C756 1.420 . S
C754 C786 1.423 . S
C755 H741 0.930 . S
C755 C752 1.413 . S
C755 C753 1.367 . S
C756 N751 1.362 . S
C756 C754 1.420 . S
C756 C760 1.429 . S
H757 C762 0.930 . S
N758 Eu720 2.609 . S
N758 C760 1.377 . S
N758 C761 1.321 . S
C759 H745 0.930 . S
C759 C761 1.400 . S
C759 C762 1.386 . S
C760 C756 1.429 . S
C760 N758 1.377 . S
C760 C763 1.411 . S
C761 H743 0.930 . S
C761 N758 1.321 . S
C761 C759 1.400 . S
C762 H757 0.930 . S
C762 C759 1.386 . S
C762 C763 1.395 . S
C763 C760 1.411 . S
C763 C762 1.395 . S
C763 C785 1.420 . S
O764 Eu720 2.558 . S
O764 C784 1.257 . S
O765 Eu720 2.642 1_545 S
O765 Eu731 2.332 1_556 S
O765 C776 1.315 . S
O766 Eu731 2.432 . S
O766 C783 1.264 1_554 S
O767 Eu720 2.339 1_545 S
O767 C783 1.254 . S
O768 Eu720 2.563 1_545 S
O768 C776 1.235 . S
O769 Eu720 2.419 . S
O769 C784 1.249 . S
O770 Eu731 2.558 . S
O770 C795 1.257 . S
O771 Eu720 2.380 1_554 S
O771 Eu731 2.612 1_565 S
O771 C787 1.276 . S
O772 Eu720 2.432 . S
O772 C794 1.264 1_556 S
O773 Eu731 2.339 1_565 S
O773 C794 1.254 . S
O774 Eu731 2.563 1_565 S
O774 C787 1.235 . S
O775 Eu731 2.419 . S
O775 C795 1.249 . S
C776 O765 1.315 . S
C776 O768 1.235 . S
C777 C779 1.393 1_565 S
C777 C781 1.395 . S
C777 C784 1.492 . S
C778 C779 1.392 . S
C778 C780 1.386 1_545 S
C779 C777 1.393 1_545 S
C779 C778 1.392 . S
C779 H796 0.930 . S
C780 C778 1.386 1_565 S
C780 C782 1.395 . S
C780 H797 0.930 . S
C781 C777 1.395 . S
C781 C782 1.379 . S
C781 H798 0.930 . S
C782 C780 1.395 . S
C782 C781 1.379 . S
C782 H799 0.930 . S
C783 O766 1.264 1_556 S
C783 O767 1.254 . S
C784 Eu720 2.848 . S
C784 O764 1.257 . S
C784 O769 1.249 . S
C784 C777 1.492 . S
C785 H750 0.931 . S
C785 C763 1.420 . S
C785 C786 1.351 . S
C786 H748 0.930 . S
C786 C754 1.423 . S
C786 C785 1.351 . S
C787 O771 1.276 . S
C787 O774 1.235 . S
C788 C789 1.393 1_545 S
C788 C792 1.395 . S
C788 C795 1.492 . S
C789 C788 1.393 1_565 S
C789 C790 1.392 . S
C789 H800 0.930 . S
C790 C789 1.392 . S
C790 C791 1.386 1_565 S
C791 C790 1.386 1_545 S
C791 C793 1.395 . S
C791 H801 0.930 . S
C792 C788 1.395 . S
C792 C793 1.379 . S
C792 H802 0.930 . S
C793 C791 1.395 . S
C793 C792 1.379 . S
C793 H803 0.930 . S
C794 O772 1.264 1_554 S
C794 O773 1.254 . S
C795 Eu731 2.848 . S
C795 O770 1.257 . S
C795 O775 1.249 . S
C795 C788 1.492 . S
H796 C779 0.930 . S
H797 C780 0.930 . S
H798 C781 0.930 . S
H799 C782 0.930 . S
H800 C789 0.930 . S
H801 C791 0.930 . S
H802 C792 0.930 . S
H803 C793 0.930 . S
Eu804 N835 2.657 . S
Eu804 N842 2.609 . S
Eu804 O848 2.558 . S
Eu804 O849 2.650 1_455 S
Eu804 O851 2.339 1_455 S
Eu804 O852 2.563 1_455 S
Eu804 O853 2.419 . S
Eu804 O855 2.380 1_556 S
Eu804 O856 2.432 . S
Eu804 C868 2.848 . S
C805 C808 1.429 . S
C805 C809 1.411 . S
C805 N812 1.377 . S
C806 C808 1.420 . S
C806 C810 1.423 . S
C806 C818 1.392 . S
C807 C809 1.420 . S
C807 C810 1.351 . S
C807 H830 0.931 . S
C808 C805 1.429 . S
C808 C806 1.420 . S
C808 N816 1.362 . S
C809 C805 1.411 . S
C809 C807 1.420 . S
C809 C814 1.395 . S
C810 C806 1.423 . S
C810 C807 1.351 . S
C810 H822 0.930 . S
C811 C813 1.400 . S
C811 C814 1.386 . S
C811 H823 0.930 . S
N812 C805 1.377 . S
N812 C813 1.321 . S
N812 Eu815 2.609 . S
C813 C811 1.400 . S
C813 N812 1.321 . S
C813 H820 0.930 . S
C814 C809 1.395 . S
C814 C811 1.386 . S
C814 H833 0.930 . S
Eu815 N812 2.609 . S
Eu815 N816 2.657 . S
Eu815 O849 2.316 1_554 S
Eu815 O850 2.432 . S
Eu815 O854 2.558 . S
Eu815 O855 2.612 1_655 S
Eu815 O857 2.339 1_655 S
Eu815 O858 2.563 1_655 S
Eu815 O859 2.419 . S
Eu815 C879 2.848 . S
N816 C808 1.362 . S
N816 Eu815 2.657 . S
N816 C817 1.334 . S
C817 N816 1.334 . S
C817 C819 1.413 . S
C817 H824 0.929 . S
C818 C806 1.392 . S
C818 C819 1.367 . S
C818 H826 0.930 . S
C819 C817 1.413 . S
C819 C818 1.367 . S
C819 H821 0.930 . S
H820 C813 0.930 . S
H821 C819 0.930 . S
H822 C810 0.930 . S
H823 C811 0.930 . S
H824 C817 0.929 . S
H825 C839 0.930 . S
H826 C818 0.930 . S
H827 C845 0.930 . S
H828 C836 0.929 . S
H829 C843 0.930 . S
H830 C807 0.931 . S
H831 C837 0.930 . S
H832 C870 0.930 . S
H833 C814 0.930 . S
H834 C869 0.931 . S
N835 Eu804 2.657 . S
N835 C836 1.334 . S
N835 C840 1.362 . S
C836 H828 0.929 . S
C836 N835 1.334 . S
C836 C839 1.413 . S
C837 H831 0.930 . S
C837 C838 1.392 . S
C837 C839 1.367 . S
C838 C837 1.392 . S
C838 C840 1.420 . S
C838 C870 1.423 . S
C839 H825 0.930 . S
C839 C836 1.413 . S
C839 C837 1.367 . S
C840 N835 1.362 . S
C840 C838 1.420 . S
C840 C844 1.429 . S
H841 C846 0.930 . S
N842 Eu804 2.609 . S
N842 C844 1.377 . S
N842 C845 1.321 . S
C843 H829 0.930 . S
C843 C845 1.400 . S
C843 C846 1.386 . S
C844 C840 1.429 . S
C844 N842 1.377 . S
C844 C847 1.411 . S
C845 H827 0.930 . S
C845 N842 1.321 . S
C845 C843 1.400 . S
C846 H841 0.930 . S
C846 C843 1.386 . S
C846 C847 1.395 . S
C847 C844 1.411 . S
C847 C846 1.395 . S
C847 C869 1.420 . S
O848 Eu804 2.558 . S
O848 C868 1.257 . S
O849 Eu804 2.650 1_655 S
O849 Eu815 2.316 1_556 S
O849 C860 1.328 . S
O850 Eu815 2.432 . S
O850 C867 1.264 1_554 S
O851 Eu804 2.339 1_655 S
O851 C867 1.254 . S
O852 Eu804 2.563 1_655 S
O852 C860 1.235 . S
O853 Eu804 2.419 . S
O853 C868 1.249 . S
O854 Eu815 2.558 . S
O854 C879 1.257 . S
O855 Eu804 2.380 1_554 S
O855 Eu815 2.612 1_455 S
O855 C871 1.276 . S
O856 Eu804 2.432 . S
O856 C878 1.264 1_556 S
O857 Eu815 2.339 1_455 S
O857 C878 1.254 . S
O858 Eu815 2.563 1_455 S
O858 C871 1.235 . S
O859 Eu815 2.419 . S
O859 C879 1.249 . S
C860 O849 1.328 . S
C860 O852 1.235 . S
C861 C863 1.393 1_455 S
C861 C865 1.395 . S
C861 C868 1.492 . S
C862 C863 1.392 . S
C862 C864 1.386 1_655 S
C863 C861 1.393 1_655 S
C863 C862 1.392 . S
C863 H880 0.930 . S
C864 C862 1.386 1_455 S
C864 C866 1.395 . S
C864 H881 0.930 . S
C865 C861 1.395 . S
C865 C866 1.379 . S
C865 H882 0.930 . S
C866 C864 1.395 . S
C866 C865 1.379 . S
C866 H883 0.930 . S
C867 O850 1.264 1_556 S
C867 O851 1.254 . S
C868 Eu804 2.848 . S
C868 O848 1.257 . S
C868 O853 1.249 . S
C868 C861 1.492 . S
C869 H834 0.931 . S
C869 C847 1.420 . S
C869 C870 1.351 . S
C870 H832 0.930 . S
C870 C838 1.423 . S
C870 C869 1.351 . S
C871 O855 1.276 . S
C871 O858 1.235 . S
C872 C873 1.393 1_655 S
C872 C876 1.395 . S
C872 C879 1.492 . S
C873 C872 1.393 1_455 S
C873 C874 1.392 . S
C873 H884 0.930 . S
C874 C873 1.392 . S
C874 C875 1.386 1_455 S
C875 C874 1.386 1_655 S
C875 C877 1.395 . S
C875 H885 0.930 . S
C876 C872 1.395 . S
C876 C877 1.379 . S
C876 H886 0.930 . S
C877 C875 1.395 . S
C877 C876 1.379 . S
C877 H887 0.930 . S
C878 O856 1.264 1_554 S
C878 O857 1.254 . S
C879 Eu815 2.848 . S
C879 O854 1.257 . S
C879 O859 1.249 . S
C879 C872 1.492 . S
H880 C863 0.930 . S
H881 C864 0.930 . S
H882 C865 0.930 . S
H883 C866 0.930 . S
H884 C873 0.930 . S
H885 C875 0.930 . S
H886 C876 0.930 . S
H887 C877 0.930 . S
Eu888 N919 2.657 . S
Eu888 N926 2.609 . S
Eu888 O932 2.558 . S
Eu888 O933 2.612 . S
Eu888 O935 2.339 . S
Eu888 O936 2.563 . S
Eu888 O937 2.419 . S
Eu888 O939 2.380 1_554 S
Eu888 O940 2.432 . S
Eu888 C952 2.848 . S
C889 C892 1.429 . S
C889 C893 1.411 . S
C889 N896 1.377 . S
C890 C892 1.420 . S
C890 C894 1.423 . S
C890 C902 1.392 . S
C891 C893 1.420 . S
C891 C894 1.351 . S
C891 H914 0.931 . S
C892 C889 1.429 . S
C892 C890 1.420 . S
C892 N900 1.362 . S
C893 C889 1.411 . S
C893 C891 1.420 . S
C893 C898 1.395 . S
C894 C890 1.423 . S
C894 C891 1.351 . S
C894 H906 0.930 . S
C895 C897 1.400 . S
C895 C898 1.386 . S
C895 H907 0.930 . S
N896 C889 1.377 . S
N896 C897 1.321 . S
N896 Eu899 2.609 . S
C897 C895 1.400 . S
C897 N896 1.321 . S
C897 H904 0.930 . S
C898 C893 1.395 . S
C898 C895 1.386 . S
C898 H917 0.930 . S
Eu899 N896 2.609 . S
Eu899 N900 2.657 . S
Eu899 O933 2.380 1_556 S
Eu899 O934 2.432 . S
Eu899 O938 2.558 . S
Eu899 O939 2.612 . S
Eu899 O941 2.339 . S
Eu899 O942 2.563 . S
Eu899 O943 2.419 . S
Eu899 C963 2.848 . S
N900 C892 1.362 . S
N900 Eu899 2.657 . S
N900 C901 1.334 . S
C901 N900 1.334 . S
C901 C903 1.413 . S
C901 H908 0.929 . S
C902 C890 1.392 . S
C902 C903 1.367 . S
C902 H910 0.930 . S
C903 C901 1.413 . S
C903 C902 1.367 . S
C903 H905 0.930 . S
H904 C897 0.930 . S
H905 C903 0.930 . S
H906 C894 0.930 . S
H907 C895 0.930 . S
H908 C901 0.929 . S
H909 C923 0.930 . S
H910 C902 0.930 . S
H911 C929 0.930 . S
H912 C920 0.929 . S
H913 C927 0.930 . S
H914 C891 0.931 . S
H915 C921 0.930 . S
H916 C954 0.930 . S
H917 C898 0.930 . S
H918 C953 0.931 . S
N919 Eu888 2.657 . S
N919 C920 1.334 . S
N919 C924 1.362 . S
C920 H912 0.929 . S
C920 N919 1.334 . S
C920 C923 1.413 . S
C921 H915 0.930 . S
C921 C922 1.392 . S
C921 C923 1.367 . S
C922 C921 1.392 . S
C922 C924 1.420 . S
C922 C954 1.423 . S
C923 H909 0.930 . S
C923 C920 1.413 . S
C923 C921 1.367 . S
C924 N919 1.362 . S
C924 C922 1.420 . S
C924 C928 1.429 . S
H925 C930 0.930 . S
N926 Eu888 2.609 . S
N926 C928 1.377 . S
N926 C929 1.321 . S
C927 H913 0.930 . S
C927 C929 1.400 . S
C927 C930 1.386 . S
C928 C924 1.429 . S
C928 N926 1.377 . S
C928 C931 1.411 . S
C929 H911 0.930 . S
C929 N926 1.321 . S
C929 C927 1.400 . S
C930 H925 0.930 . S
C930 C927 1.386 . S
C930 C931 1.395 . S
C931 C928 1.411 . S
C931 C930 1.395 . S
C931 C953 1.420 . S
O932 Eu888 2.558 . S
O932 C952 1.257 . S
O933 Eu888 2.612 . S
O933 Eu899 2.380 1_554 S
O933 C944 1.276 . S
O934 Eu899 2.432 . S
O934 C951 1.264 1_556 S
O935 Eu888 2.339 . S
O935 C951 1.254 . S
O936 Eu888 2.563 . S
O936 C944 1.235 . S
O937 Eu888 2.419 . S
O937 C952 1.249 . S
O938 Eu899 2.558 . S
O938 C963 1.257 . S
O939 Eu888 2.380 1_556 S
O939 Eu899 2.612 . S
O939 C955 1.276 . S
O940 Eu888 2.432 . S
O940 C962 1.264 1_554 S
O941 Eu899 2.339 . S
O941 C962 1.254 . S
O942 Eu899 2.563 . S
O942 C955 1.235 . S
O943 Eu899 2.419 . S
O943 C963 1.249 . S
C944 O933 1.276 . S
C944 O936 1.235 . S
C945 C947 1.393 . S
C945 C949 1.395 . S
C945 C952 1.492 . S
C946 C947 1.392 . S
C946 C948 1.386 . S
C947 C945 1.393 . S
C947 C946 1.392 . S
C947 H964 0.930 . S
C948 C946 1.386 . S
C948 C950 1.395 . S
C948 H965 0.930 . S
C949 C945 1.395 . S
C949 C950 1.379 . S
C949 H966 0.930 . S
C950 C948 1.395 . S
C950 C949 1.379 . S
C950 H967 0.930 . S
C951 O934 1.264 1_554 S
C951 O935 1.254 . S
C952 Eu888 2.848 . S
C952 O932 1.257 . S
C952 O937 1.249 . S
C952 C945 1.492 . S
C953 H918 0.931 . S
C953 C931 1.420 . S
C953 C954 1.351 . S
C954 H916 0.930 . S
C954 C922 1.423 . S
C954 C953 1.351 . S
C955 O939 1.276 . S
C955 O942 1.235 . S
C956 C957 1.393 . S
C956 C960 1.395 . S
C956 C963 1.492 . S
C957 C956 1.393 . S
C957 C958 1.392 . S
C957 H968 0.930 . S
C958 C957 1.392 . S
C958 C959 1.386 . S
C959 C958 1.386 . S
C959 C961 1.395 . S
C959 H969 0.930 . S
C960 C956 1.395 . S
C960 C961 1.379 . S
C960 H970 0.930 . S
C961 C959 1.395 . S
C961 C960 1.379 . S
C961 H971 0.930 . S
C962 O940 1.264 1_556 S
C962 O941 1.254 . S
C963 Eu899 2.848 . S
C963 O938 1.257 . S
C963 O943 1.249 . S
C963 C956 1.492 . S
H964 C947 0.930 . S
H965 C948 0.930 . S
H966 C949 0.930 . S
H967 C950 0.930 . S
H968 C957 0.930 . S
H969 C959 0.930 . S
H970 C960 0.930 . S
H971 C961 0.930 . S
Eu972 N1003 2.657 . S
Eu972 N1010 2.609 . S
Eu972 O1016 2.558 . S
Eu972 O1017 2.612 . S
Eu972 O1019 2.339 . S
Eu972 O1020 2.563 . S
Eu972 O1021 2.419 . S
Eu972 O1023 2.380 . S
Eu972 O1024 2.432 . S
Eu972 C1036 2.848 . S
C973 C976 1.429 . S
C973 C977 1.411 . S
C973 N980 1.377 . S
C974 C976 1.420 . S
C974 C978 1.423 . S
C974 C986 1.392 . S
C975 C977 1.420 . S
C975 C978 1.351 . S
C975 H998 0.931 . S
C976 C973 1.429 . S
C976 C974 1.420 . S
C976 N984 1.362 . S
C977 C973 1.411 . S
C977 C975 1.420 . S
C977 C982 1.395 . S
C978 C974 1.423 . S
C978 C975 1.351 . S
C978 H990 0.930 . S
C979 C981 1.400 . S
C979 C982 1.386 . S
C979 H991 0.930 . S
N980 C973 1.377 . S
N980 C981 1.321 . S
N980 Eu983 2.609 . S
C981 C979 1.400 . S
C981 N980 1.321 . S
C981 H988 0.930 . S
C982 C977 1.395 . S
C982 C979 1.386 . S
C982 H1001 0.930 . S
Eu983 N980 2.609 . S
Eu983 N984 2.657 . S
Eu983 O1017 2.380 . S
Eu983 O1018 2.432 . S
Eu983 O1022 2.558 . S
Eu983 O1023 2.612 . S
Eu983 O1025 2.339 . S
Eu983 O1026 2.563 . S
Eu983 O1027 2.419 . S
Eu983 C1047 2.848 . S
N984 C976 1.362 . S
N984 Eu983 2.657 . S
N984 C985 1.334 . S
C985 N984 1.334 . S
C985 C987 1.413 . S
C985 H992 0.929 . S
C986 C974 1.392 . S
C986 C987 1.367 . S
C986 H994 0.930 . S
C987 C985 1.413 . S
C987 C986 1.367 . S
C987 H989 0.930 . S
H988 C981 0.930 . S
H989 C987 0.930 . S
H990 C978 0.930 . S
H991 C979 0.930 . S
H992 C985 0.929 . S
H993 C1007 0.930 . S
H994 C986 0.930 . S
H995 C1013 0.930 . S
H996 C1004 0.929 . S
H997 C1011 0.930 . S
H998 C975 0.931 . S
H999 C1005 0.930 . S
H1000 C1038 0.930 . S
H1001 C982 0.930 . S
H1002 C1037 0.931 . S
N1003 Eu972 2.657 . S
N1003 C1004 1.334 . S
N1003 C1008 1.362 . S
C1004 H996 0.929 . S
C1004 N1003 1.334 . S
C1004 C1007 1.413 . S
C1005 H999 0.930 . S
C1005 C1006 1.392 . S
C1005 C1007 1.367 . S
C1006 C1005 1.392 . S
C1006 C1008 1.420 . S
C1006 C1038 1.423 . S
C1007 H993 0.930 . S
C1007 C1004 1.413 . S
C1007 C1005 1.367 . S
C1008 N1003 1.362 . S
C1008 C1006 1.420 . S
C1008 C1012 1.429 . S
H1009 C1014 0.930 . S
N1010 Eu972 2.609 . S
N1010 C1012 1.377 . S
N1010 C1013 1.321 . S
C1011 H997 0.930 . S
C1011 C1013 1.400 . S
C1011 C1014 1.386 . S
C1012 C1008 1.429 . S
C1012 N1010 1.377 . S
C1012 C1015 1.411 . S
C1013 H995 0.930 . S
C1013 N1010 1.321 . S
C1013 C1011 1.400 . S
C1014 H1009 0.930 . S
C1014 C1011 1.386 . S
C1014 C1015 1.395 . S
C1015 C1012 1.411 . S
C1015 C1014 1.395 . S
C1015 C1037 1.420 . S
O1016 Eu972 2.558 . S
O1016 C1036 1.257 . S
O1017 Eu972 2.612 . S
O1017 Eu983 2.380 . S
O1017 C1028 1.276 . S
O1018 Eu983 2.432 . S
O1018 C1035 1.264 . S
O1019 Eu972 2.339 . S
O1019 C1035 1.254 . S
O1020 Eu972 2.563 . S
O1020 C1028 1.235 . S
O1021 Eu972 2.419 . S
O1021 C1036 1.249 . S
O1022 Eu983 2.558 . S
O1022 C1047 1.257 . S
O1023 Eu972 2.380 . S
O1023 Eu983 2.612 . S
O1023 C1039 1.276 . S
O1024 Eu972 2.432 . S
O1024 C1046 1.264 . S
O1025 Eu983 2.339 . S
O1025 C1046 1.254 . S
O1026 Eu983 2.563 . S
O1026 C1039 1.235 . S
O1027 Eu983 2.419 . S
O1027 C1047 1.249 . S
C1028 O1017 1.276 . S
C1028 O1020 1.235 . S
C1029 C1031 1.393 . S
C1029 C1033 1.395 . S
C1029 C1036 1.492 . S
C1030 C1031 1.392 . S
C1030 C1032 1.386 . S
C1031 C1029 1.393 . S
C1031 C1030 1.392 . S
C1031 H1048 0.930 . S
C1032 C1030 1.386 . S
C1032 C1034 1.395 . S
C1032 H1049 0.930 . S
C1033 C1029 1.395 . S
C1033 C1034 1.379 . S
C1033 H1050 0.930 . S
C1034 C1032 1.395 . S
C1034 C1033 1.379 . S
C1034 H1051 0.930 . S
C1035 O1018 1.264 . S
C1035 O1019 1.254 . S
C1036 Eu972 2.848 . S
C1036 O1016 1.257 . S
C1036 O1021 1.249 . S
C1036 C1029 1.492 . S
C1037 H1002 0.931 . S
C1037 C1015 1.420 . S
C1037 C1038 1.351 . S
C1038 H1000 0.930 . S
C1038 C1006 1.423 . S
C1038 C1037 1.351 . S
C1039 O1023 1.276 . S
C1039 O1026 1.235 . S
C1040 C1041 1.393 . S
C1040 C1044 1.395 . S
C1040 C1047 1.492 . S
C1041 C1040 1.393 . S
C1041 C1042 1.392 . S
C1041 H1052 0.930 . S
C1042 C1041 1.392 . S
C1042 C1043 1.386 . S
C1043 C1042 1.386 . S
C1043 C1045 1.395 . S
C1043 H1053 0.930 . S
C1044 C1040 1.395 . S
C1044 C1045 1.379 . S
C1044 H1054 0.930 . S
C1045 C1043 1.395 . S
C1045 C1044 1.379 . S
C1045 H1055 0.930 . S
C1046 O1024 1.264 . S
C1046 O1025 1.254 . S
C1047 Eu983 2.848 . S
C1047 O1022 1.257 . S
C1047 O1027 1.249 . S
C1047 C1040 1.492 . S
H1048 C1031 0.930 . S
H1049 C1032 0.930 . S
H1050 C1033 0.930 . S
H1051 C1034 0.930 . S
H1052 C1041 0.930 . S
H1053 C1043 0.930 . S
H1054 C1044 0.930 . S
H1055 C1045 0.930 . S
Eu1056 N1087 2.657 . S
Eu1056 N1094 2.609 . S
Eu1056 O1100 2.558 . S
Eu1056 O1101 2.612 . S
Eu1056 O1103 2.339 . S
Eu1056 O1104 2.563 . S
Eu1056 O1105 2.419 . S
Eu1056 O1107 2.380 . S
Eu1056 O1108 2.432 . S
Eu1056 C1120 2.848 . S
C1057 C1060 1.429 . S
C1057 C1061 1.411 . S
C1057 N1064 1.377 . S
C1058 C1060 1.420 . S
C1058 C1062 1.423 . S
C1058 C1070 1.392 . S
C1059 C1061 1.420 . S
C1059 C1062 1.351 . S
C1059 H1082 0.931 . S
C1060 C1057 1.429 . S
C1060 C1058 1.420 . S
C1060 N1068 1.362 . S
C1061 C1057 1.411 . S
C1061 C1059 1.420 . S
C1061 C1066 1.395 . S
C1062 C1058 1.423 . S
C1062 C1059 1.351 . S
C1062 H1074 0.930 . S
C1063 C1065 1.400 . S
C1063 C1066 1.386 . S
C1063 H1075 0.930 . S
N1064 C1057 1.377 . S
N1064 C1065 1.321 . S
N1064 Eu1067 2.609 . S
C1065 C1063 1.400 . S
C1065 N1064 1.321 . S
C1065 H1072 0.930 . S
C1066 C1061 1.395 . S
C1066 C1063 1.386 . S
C1066 H1085 0.930 . S
Eu1067 N1064 2.609 . S
Eu1067 N1068 2.657 . S
Eu1067 O1101 2.380 . S
Eu1067 O1102 2.432 . S
Eu1067 O1106 2.558 . S
Eu1067 O1107 2.612 . S
Eu1067 O1109 2.339 . S
Eu1067 O1110 2.563 . S
Eu1067 O1111 2.419 . S
Eu1067 C1131 2.848 . S
N1068 C1060 1.362 . S
N1068 Eu1067 2.657 . S
N1068 C1069 1.334 . S
C1069 N1068 1.334 . S
C1069 C1071 1.413 . S
C1069 H1076 0.929 . S
C1070 C1058 1.392 . S
C1070 C1071 1.367 . S
C1070 H1078 0.930 . S
C1071 C1069 1.413 . S
C1071 C1070 1.367 . S
C1071 H1073 0.930 . S
H1072 C1065 0.930 . S
H1073 C1071 0.930 . S
H1074 C1062 0.930 . S
H1075 C1063 0.930 . S
H1076 C1069 0.929 . S
H1077 C1091 0.930 . S
H1078 C1070 0.930 . S
H1079 C1097 0.930 . S
H1080 C1088 0.929 . S
H1081 C1095 0.930 . S
H1082 C1059 0.931 . S
H1083 C1089 0.930 . S
H1084 C1122 0.930 . S
H1085 C1066 0.930 . S
H1086 C1121 0.931 . S
N1087 Eu1056 2.657 . S
N1087 C1088 1.334 . S
N1087 C1092 1.362 . S
C1088 H1080 0.929 . S
C1088 N1087 1.334 . S
C1088 C1091 1.413 . S
C1089 H1083 0.930 . S
C1089 C1090 1.392 . S
C1089 C1091 1.367 . S
C1090 C1089 1.392 . S
C1090 C1092 1.420 . S
C1090 C1122 1.423 . S
C1091 H1077 0.930 . S
C1091 C1088 1.413 . S
C1091 C1089 1.367 . S
C1092 N1087 1.362 . S
C1092 C1090 1.420 . S
C1092 C1096 1.429 . S
H1093 C1098 0.930 . S
N1094 Eu1056 2.609 . S
N1094 C1096 1.377 . S
N1094 C1097 1.321 . S
C1095 H1081 0.930 . S
C1095 C1097 1.400 . S
C1095 C1098 1.386 . S
C1096 C1092 1.429 . S
C1096 N1094 1.377 . S
C1096 C1099 1.411 . S
C1097 H1079 0.930 . S
C1097 N1094 1.321 . S
C1097 C1095 1.400 . S
C1098 H1093 0.930 . S
C1098 C1095 1.386 . S
C1098 C1099 1.395 . S
C1099 C1096 1.411 . S
C1099 C1098 1.395 . S
C1099 C1121 1.420 . S
O1100 Eu1056 2.558 . S
O1100 C1120 1.257 . S
O1101 Eu1056 2.612 . S
O1101 Eu1067 2.380 . S
O1101 C1112 1.276 . S
O1102 Eu1067 2.432 . S
O1102 C1119 1.264 . S
O1103 Eu1056 2.339 . S
O1103 C1119 1.254 . S
O1104 Eu1056 2.563 . S
O1104 C1112 1.235 . S
O1105 Eu1056 2.419 . S
O1105 C1120 1.249 . S
O1106 Eu1067 2.558 . S
O1106 C1131 1.257 . S
O1107 Eu1056 2.380 . S
O1107 Eu1067 2.612 . S
O1107 C1123 1.276 . S
O1108 Eu1056 2.432 . S
O1108 C1130 1.264 . S
O1109 Eu1067 2.339 . S
O1109 C1130 1.254 . S
O1110 Eu1067 2.563 . S
O1110 C1123 1.235 . S
O1111 Eu1067 2.419 . S
O1111 C1131 1.249 . S
C1112 O1101 1.276 . S
C1112 O1104 1.235 . S
C1113 C1115 1.393 . S
C1113 C1117 1.395 . S
C1113 C1120 1.492 . S
C1114 C1115 1.392 . S
C1114 C1116 1.386 . S
C1115 C1113 1.393 . S
C1115 C1114 1.392 . S
C1115 H1132 0.930 . S
C1116 C1114 1.386 . S
C1116 C1118 1.395 . S
C1116 H1133 0.930 . S
C1117 C1113 1.395 . S
C1117 C1118 1.379 . S
C1117 H1134 0.930 . S
C1118 C1116 1.395 . S
C1118 C1117 1.379 . S
C1118 H1135 0.930 . S
C1119 O1102 1.264 . S
C1119 O1103 1.254 . S
C1120 Eu1056 2.848 . S
C1120 O1100 1.257 . S
C1120 O1105 1.249 . S
C1120 C1113 1.492 . S
C1121 H1086 0.931 . S
C1121 C1099 1.420 . S
C1121 C1122 1.351 . S
C1122 H1084 0.930 . S
C1122 C1090 1.423 . S
C1122 C1121 1.351 . S
C1123 O1107 1.276 . S
C1123 O1110 1.235 . S
C1124 C1125 1.393 . S
C1124 C1128 1.395 . S
C1124 C1131 1.492 . S
C1125 C1124 1.393 . S
C1125 C1126 1.392 . S
C1125 H1136 0.930 . S
C1126 C1125 1.392 . S
C1126 C1127 1.386 . S
C1127 C1126 1.386 . S
C1127 C1129 1.395 . S
C1127 H1137 0.930 . S
C1128 C1124 1.395 . S
C1128 C1129 1.379 . S
C1128 H1138 0.930 . S
C1129 C1127 1.395 . S
C1129 C1128 1.379 . S
C1129 H1139 0.930 . S
C1130 O1108 1.264 . S
C1130 O1109 1.254 . S
C1131 Eu1067 2.848 . S
C1131 O1106 1.257 . S
C1131 O1111 1.249 . S
C1131 C1124 1.492 . S
H1132 C1115 0.930 . S
H1133 C1116 0.930 . S
H1134 C1117 0.930 . S
H1135 C1118 0.930 . S
H1136 C1125 0.930 . S
H1137 C1127 0.930 . S
H1138 C1128 0.930 . S
H1139 C1129 0.930 . S
Eu1140 N1171 2.657 . S
Eu1140 N1178 2.609 . S
Eu1140 O1184 2.558 . S
Eu1140 O1185 2.612 . S
Eu1140 O1187 2.339 . S
Eu1140 O1188 2.563 . S
Eu1140 O1189 2.419 . S
Eu1140 O1191 2.380 . S
Eu1140 O1192 2.432 . S
Eu1140 C1204 2.848 . S
C1141 C1144 1.429 . S
C1141 C1145 1.411 . S
C1141 N1148 1.377 . S
C1142 C1144 1.420 . S
C1142 C1146 1.423 . S
C1142 C1154 1.392 . S
C1143 C1145 1.420 . S
C1143 C1146 1.351 . S
C1143 H1166 0.931 . S
C1144 C1141 1.429 . S
C1144 C1142 1.420 . S
C1144 N1152 1.362 . S
C1145 C1141 1.411 . S
C1145 C1143 1.420 . S
C1145 C1150 1.395 . S
C1146 C1142 1.423 . S
C1146 C1143 1.351 . S
C1146 H1158 0.930 . S
C1147 C1149 1.400 . S
C1147 C1150 1.386 . S
C1147 H1159 0.930 . S
N1148 C1141 1.377 . S
N1148 C1149 1.321 . S
N1148 Eu1151 2.609 . S
C1149 C1147 1.400 . S
C1149 N1148 1.321 . S
C1149 H1156 0.930 . S
C1150 C1145 1.395 . S
C1150 C1147 1.386 . S
C1150 H1169 0.930 . S
Eu1151 N1148 2.609 . S
Eu1151 N1152 2.657 . S
Eu1151 O1185 2.380 . S
Eu1151 O1186 2.432 . S
Eu1151 O1190 2.558 . S
Eu1151 O1191 2.612 . S
Eu1151 O1193 2.339 . S
Eu1151 O1194 2.563 . S
Eu1151 O1195 2.419 . S
Eu1151 C1215 2.848 . S
N1152 C1144 1.362 . S
N1152 Eu1151 2.657 . S
N1152 C1153 1.334 . S
C1153 N1152 1.334 . S
C1153 C1155 1.413 . S
C1153 H1160 0.929 . S
C1154 C1142 1.392 . S
C1154 C1155 1.367 . S
C1154 H1162 0.930 . S
C1155 C1153 1.413 . S
C1155 C1154 1.367 . S
C1155 H1157 0.930 . S
H1156 C1149 0.930 . S
H1157 C1155 0.930 . S
H1158 C1146 0.930 . S
H1159 C1147 0.930 . S
H1160 C1153 0.929 . S
H1161 C1175 0.930 . S
H1162 C1154 0.930 . S
H1163 C1181 0.930 . S
H1164 C1172 0.929 . S
H1165 C1179 0.930 . S
H1166 C1143 0.931 . S
H1167 C1173 0.930 . S
H1168 C1206 0.930 . S
H1169 C1150 0.930 . S
H1170 C1205 0.931 . S
N1171 Eu1140 2.657 . S
N1171 C1172 1.334 . S
N1171 C1176 1.362 . S
C1172 H1164 0.929 . S
C1172 N1171 1.334 . S
C1172 C1175 1.413 . S
C1173 H1167 0.930 . S
C1173 C1174 1.392 . S
C1173 C1175 1.367 . S
C1174 C1173 1.392 . S
C1174 C1176 1.420 . S
C1174 C1206 1.423 . S
C1175 H1161 0.930 . S
C1175 C1172 1.413 . S
C1175 C1173 1.367 . S
C1176 N1171 1.362 . S
C1176 C1174 1.420 . S
C1176 C1180 1.429 . S
H1177 C1182 0.930 . S
N1178 Eu1140 2.609 . S
N1178 C1180 1.377 . S
N1178 C1181 1.321 . S
C1179 H1165 0.930 . S
C1179 C1181 1.400 . S
C1179 C1182 1.386 . S
C1180 C1176 1.429 . S
C1180 N1178 1.377 . S
C1180 C1183 1.411 . S
C1181 H1163 0.930 . S
C1181 N1178 1.321 . S
C1181 C1179 1.400 . S
C1182 H1177 0.930 . S
C1182 C1179 1.386 . S
C1182 C1183 1.395 . S
C1183 C1180 1.411 . S
C1183 C1182 1.395 . S
C1183 C1205 1.420 . S
O1184 Eu1140 2.558 . S
O1184 C1204 1.257 . S
O1185 Eu1140 2.612 . S
O1185 Eu1151 2.380 . S
O1185 C1196 1.276 . S
O1186 Eu1151 2.432 . S
O1186 C1203 1.264 . S
O1187 Eu1140 2.339 . S
O1187 C1203 1.254 . S
O1188 Eu1140 2.563 . S
O1188 C1196 1.235 . S
O1189 Eu1140 2.419 . S
O1189 C1204 1.249 . S
O1190 Eu1151 2.558 . S
O1190 C1215 1.257 . S
O1191 Eu1140 2.380 . S
O1191 Eu1151 2.612 . S
O1191 C1207 1.276 . S
O1192 Eu1140 2.432 . S
O1192 C1214 1.264 . S
O1193 Eu1151 2.339 . S
O1193 C1214 1.254 . S
O1194 Eu1151 2.563 . S
O1194 C1207 1.235 . S
O1195 Eu1151 2.419 . S
O1195 C1215 1.249 . S
C1196 O1185 1.276 . S
C1196 O1188 1.235 . S
C1197 C1199 1.393 . S
C1197 C1201 1.395 . S
C1197 C1204 1.492 . S
C1198 C1199 1.392 . S
C1198 C1200 1.386 . S
C1199 C1197 1.393 . S
C1199 C1198 1.392 . S
C1199 H1216 0.930 . S
C1200 C1198 1.386 . S
C1200 C1202 1.395 . S
C1200 H1217 0.930 . S
C1201 C1197 1.395 . S
C1201 C1202 1.379 . S
C1201 H1218 0.930 . S
C1202 C1200 1.395 . S
C1202 C1201 1.379 . S
C1202 H1219 0.930 . S
C1203 O1186 1.264 . S
C1203 O1187 1.254 . S
C1204 Eu1140 2.848 . S
C1204 O1184 1.257 . S
C1204 O1189 1.249 . S
C1204 C1197 1.492 . S
C1205 H1170 0.931 . S
C1205 C1183 1.420 . S
C1205 C1206 1.351 . S
C1206 H1168 0.930 . S
C1206 C1174 1.423 . S
C1206 C1205 1.351 . S
C1207 O1191 1.276 . S
C1207 O1194 1.235 . S
C1208 C1209 1.393 . S
C1208 C1212 1.395 . S
C1208 C1215 1.492 . S
C1209 C1208 1.393 . S
C1209 C1210 1.392 . S
C1209 H1220 0.930 . S
C1210 C1209 1.392 . S
C1210 C1211 1.386 . S
C1211 C1210 1.386 . S
C1211 C1213 1.395 . S
C1211 H1221 0.930 . S
C1212 C1208 1.395 . S
C1212 C1213 1.379 . S
C1212 H1222 0.930 . S
C1213 C1211 1.395 . S
C1213 C1212 1.379 . S
C1213 H1223 0.930 . S
C1214 O1192 1.264 . S
C1214 O1193 1.254 . S
C1215 Eu1151 2.848 . S
C1215 O1190 1.257 . S
C1215 O1195 1.249 . S
C1215 C1208 1.492 . S
H1216 C1199 0.930 . S
H1217 C1200 0.930 . S
H1218 C1201 0.930 . S
H1219 C1202 0.930 . S
H1220 C1209 0.930 . S
H1221 C1211 0.930 . S
H1222 C1212 0.930 . S
H1223 C1213 0.930 . S
Eu1224 N1255 2.657 . S
Eu1224 N1262 2.609 . S
Eu1224 O1268 2.558 . S
Eu1224 O1269 2.612 . S
Eu1224 O1271 2.339 . S
Eu1224 O1272 2.563 . S
Eu1224 O1273 2.419 . S
Eu1224 O1275 2.380 . S
Eu1224 O1276 2.432 . S
Eu1224 C1288 2.848 . S
C1225 C1228 1.429 . S
C1225 C1229 1.411 . S
C1225 N1232 1.377 . S
C1226 C1228 1.420 . S
C1226 C1230 1.423 . S
C1226 C1238 1.392 . S
C1227 C1229 1.420 . S
C1227 C1230 1.351 . S
C1227 H1250 0.931 . S
C1228 C1225 1.429 . S
C1228 C1226 1.420 . S
C1228 N1236 1.362 . S
C1229 C1225 1.411 . S
C1229 C1227 1.420 . S
C1229 C1234 1.395 . S
C1230 C1226 1.423 . S
C1230 C1227 1.351 . S
C1230 H1242 0.930 . S
C1231 C1233 1.400 . S
C1231 C1234 1.386 . S
C1231 H1243 0.930 . S
N1232 C1225 1.377 . S
N1232 C1233 1.321 . S
N1232 Eu1235 2.609 . S
C1233 C1231 1.400 . S
C1233 N1232 1.321 . S
C1233 H1240 0.930 . S
C1234 C1229 1.395 . S
C1234 C1231 1.386 . S
C1234 H1253 0.930 . S
Eu1235 N1232 2.609 . S
Eu1235 N1236 2.657 . S
Eu1235 O1269 2.380 . S
Eu1235 O1270 2.432 . S
Eu1235 O1274 2.558 . S
Eu1235 O1275 2.612 . S
Eu1235 O1277 2.339 . S
Eu1235 O1278 2.563 . S
Eu1235 O1279 2.419 . S
Eu1235 C1299 2.848 . S
N1236 C1228 1.362 . S
N1236 Eu1235 2.657 . S
N1236 C1237 1.334 . S
C1237 N1236 1.334 . S
C1237 C1239 1.413 . S
C1237 H1244 0.929 . S
C1238 C1226 1.392 . S
C1238 C1239 1.367 . S
C1238 H1246 0.930 . S
C1239 C1237 1.413 . S
C1239 C1238 1.367 . S
C1239 H1241 0.930 . S
H1240 C1233 0.930 . S
H1241 C1239 0.930 . S
H1242 C1230 0.930 . S
H1243 C1231 0.930 . S
H1244 C1237 0.929 . S
H1245 C1259 0.930 . S
H1246 C1238 0.930 . S
H1247 C1265 0.930 . S
H1248 C1256 0.929 . S
H1249 C1263 0.930 . S
H1250 C1227 0.931 . S
H1251 C1257 0.930 . S
H1252 C1290 0.930 . S
H1253 C1234 0.930 . S
H1254 C1289 0.931 . S
N1255 Eu1224 2.657 . S
N1255 C1256 1.334 . S
N1255 C1260 1.362 . S
C1256 H1248 0.929 . S
C1256 N1255 1.334 . S
C1256 C1259 1.413 . S
C1257 H1251 0.930 . S
C1257 C1258 1.392 . S
C1257 C1259 1.367 . S
C1258 C1257 1.392 . S
C1258 C1260 1.420 . S
C1258 C1290 1.423 . S
C1259 H1245 0.930 . S
C1259 C1256 1.413 . S
C1259 C1257 1.367 . S
C1260 N1255 1.362 . S
C1260 C1258 1.420 . S
C1260 C1264 1.429 . S
H1261 C1266 0.930 . S
N1262 Eu1224 2.609 . S
N1262 C1264 1.377 . S
N1262 C1265 1.321 . S
C1263 H1249 0.930 . S
C1263 C1265 1.400 . S
C1263 C1266 1.386 . S
C1264 C1260 1.429 . S
C1264 N1262 1.377 . S
C1264 C1267 1.411 . S
C1265 H1247 0.930 . S
C1265 N1262 1.321 . S
C1265 C1263 1.400 . S
C1266 H1261 0.930 . S
C1266 C1263 1.386 . S
C1266 C1267 1.395 . S
C1267 C1264 1.411 . S
C1267 C1266 1.395 . S
C1267 C1289 1.420 . S
O1268 Eu1224 2.558 . S
O1268 C1288 1.257 . S
O1269 Eu1224 2.612 . S
O1269 Eu1235 2.380 . S
O1269 C1280 1.276 . S
O1270 Eu1235 2.432 . S
O1270 C1287 1.264 . S
O1271 Eu1224 2.339 . S
O1271 C1287 1.254 . S
O1272 Eu1224 2.563 . S
O1272 C1280 1.235 . S
O1273 Eu1224 2.419 . S
O1273 C1288 1.249 . S
O1274 Eu1235 2.558 . S
O1274 C1299 1.257 . S
O1275 Eu1224 2.380 . S
O1275 Eu1235 2.612 . S
O1275 C1291 1.276 . S
O1276 Eu1224 2.432 . S
O1276 C1298 1.264 . S
O1277 Eu1235 2.339 . S
O1277 C1298 1.254 . S
O1278 Eu1235 2.563 . S
O1278 C1291 1.235 . S
O1279 Eu1235 2.419 . S
O1279 C1299 1.249 . S
C1280 O1269 1.276 . S
C1280 O1272 1.235 . S
C1281 C1283 1.393 . S
C1281 C1285 1.395 . S
C1281 C1288 1.492 . S
C1282 C1283 1.392 . S
C1282 C1284 1.386 . S
C1283 C1281 1.393 . S
C1283 C1282 1.392 . S
C1283 H1300 0.930 . S
C1284 C1282 1.386 . S
C1284 C1286 1.395 . S
C1284 H1301 0.930 . S
C1285 C1281 1.395 . S
C1285 C1286 1.379 . S
C1285 H1302 0.930 . S
C1286 C1284 1.395 . S
C1286 C1285 1.379 . S
C1286 H1303 0.930 . S
C1287 O1270 1.264 . S
C1287 O1271 1.254 . S
C1288 Eu1224 2.848 . S
C1288 O1268 1.257 . S
C1288 O1273 1.249 . S
C1288 C1281 1.492 . S
C1289 H1254 0.931 . S
C1289 C1267 1.420 . S
C1289 C1290 1.351 . S
C1290 H1252 0.930 . S
C1290 C1258 1.423 . S
C1290 C1289 1.351 . S
C1291 O1275 1.276 . S
C1291 O1278 1.235 . S
C1292 C1293 1.393 . S
C1292 C1296 1.395 . S
C1292 C1299 1.492 . S
C1293 C1292 1.393 . S
C1293 C1294 1.392 . S
C1293 H1304 0.930 . S
C1294 C1293 1.392 . S
C1294 C1295 1.386 . S
C1295 C1294 1.386 . S
C1295 C1297 1.395 . S
C1295 H1305 0.930 . S
C1296 C1292 1.395 . S
C1296 C1297 1.379 . S
C1296 H1306 0.930 . S
C1297 C1295 1.395 . S
C1297 C1296 1.379 . S
C1297 H1307 0.930 . S
C1298 O1276 1.264 . S
C1298 O1277 1.254 . S
C1299 Eu1235 2.848 . S
C1299 O1274 1.257 . S
C1299 O1279 1.249 . S
C1299 C1292 1.492 . S
H1300 C1283 0.930 . S
H1301 C1284 0.930 . S
H1302 C1285 0.930 . S
H1303 C1286 0.930 . S
H1304 C1293 0.930 . S
H1305 C1295 0.930 . S
H1306 C1296 0.930 . S
H1307 C1297 0.930 . S
Eu1308 N1339 2.657 . S
Eu1308 N1346 2.609 . S
Eu1308 O1352 2.558 . S
Eu1308 O1353 2.612 . S
Eu1308 O1355 2.339 . S
Eu1308 O1356 2.563 . S
Eu1308 O1357 2.419 . S
Eu1308 O1359 2.380 . S
Eu1308 O1360 2.432 . S
Eu1308 C1372 2.848 . S
C1309 C1312 1.429 . S
C1309 C1313 1.411 . S
C1309 N1316 1.377 . S
C1310 C1312 1.420 . S
C1310 C1314 1.423 . S
C1310 C1322 1.392 . S
C1311 C1313 1.420 . S
C1311 C1314 1.351 . S
C1311 H1334 0.931 . S
C1312 C1309 1.429 . S
C1312 C1310 1.420 . S
C1312 N1320 1.362 . S
C1313 C1309 1.411 . S
C1313 C1311 1.420 . S
C1313 C1318 1.395 . S
C1314 C1310 1.423 . S
C1314 C1311 1.351 . S
C1314 H1326 0.930 . S
C1315 C1317 1.400 . S
C1315 C1318 1.386 . S
C1315 H1327 0.930 . S
N1316 C1309 1.377 . S
N1316 C1317 1.321 . S
N1316 Eu1319 2.609 . S
C1317 C1315 1.400 . S
C1317 N1316 1.321 . S
C1317 H1324 0.930 . S
C1318 C1313 1.395 . S
C1318 C1315 1.386 . S
C1318 H1337 0.930 . S
Eu1319 N1316 2.609 . S
Eu1319 N1320 2.657 . S
Eu1319 O1353 2.380 . S
Eu1319 O1354 2.432 . S
Eu1319 O1358 2.558 . S
Eu1319 O1359 2.612 . S
Eu1319 O1361 2.339 . S
Eu1319 O1362 2.563 . S
Eu1319 O1363 2.419 . S
Eu1319 C1383 2.848 . S
N1320 C1312 1.362 . S
N1320 Eu1319 2.657 . S
N1320 C1321 1.334 . S
C1321 N1320 1.334 . S
C1321 C1323 1.413 . S
C1321 H1328 0.929 . S
C1322 C1310 1.392 . S
C1322 C1323 1.367 . S
C1322 H1330 0.930 . S
C1323 C1321 1.413 . S
C1323 C1322 1.367 . S
C1323 H1325 0.930 . S
H1324 C1317 0.930 . S
H1325 C1323 0.930 . S
H1326 C1314 0.930 . S
H1327 C1315 0.930 . S
H1328 C1321 0.929 . S
H1329 C1343 0.930 . S
H1330 C1322 0.930 . S
H1331 C1349 0.930 . S
H1332 C1340 0.929 . S
H1333 C1347 0.930 . S
H1334 C1311 0.931 . S
H1335 C1341 0.930 . S
H1336 C1374 0.930 . S
H1337 C1318 0.930 . S
H1338 C1373 0.931 . S
N1339 Eu1308 2.657 . S
N1339 C1340 1.334 . S
N1339 C1344 1.362 . S
C1340 H1332 0.929 . S
C1340 N1339 1.334 . S
C1340 C1343 1.413 . S
C1341 H1335 0.930 . S
C1341 C1342 1.392 . S
C1341 C1343 1.367 . S
C1342 C1341 1.392 . S
C1342 C1344 1.420 . S
C1342 C1374 1.423 . S
C1343 H1329 0.930 . S
C1343 C1340 1.413 . S
C1343 C1341 1.367 . S
C1344 N1339 1.362 . S
C1344 C1342 1.420 . S
C1344 C1348 1.429 . S
H1345 C1350 0.930 . S
N1346 Eu1308 2.609 . S
N1346 C1348 1.377 . S
N1346 C1349 1.321 . S
C1347 H1333 0.930 . S
C1347 C1349 1.400 . S
C1347 C1350 1.386 . S
C1348 C1344 1.429 . S
C1348 N1346 1.377 . S
C1348 C1351 1.411 . S
C1349 H1331 0.930 . S
C1349 N1346 1.321 . S
C1349 C1347 1.400 . S
C1350 H1345 0.930 . S
C1350 C1347 1.386 . S
C1350 C1351 1.395 . S
C1351 C1348 1.411 . S
C1351 C1350 1.395 . S
C1351 C1373 1.420 . S
O1352 Eu1308 2.558 . S
O1352 C1372 1.257 . S
O1353 Eu1308 2.612 . S
O1353 Eu1319 2.380 . S
O1353 C1364 1.276 . S
O1354 Eu1319 2.432 . S
O1354 C1371 1.264 . S
O1355 Eu1308 2.339 . S
O1355 C1371 1.254 . S
O1356 Eu1308 2.563 . S
O1356 C1364 1.235 . S
O1357 Eu1308 2.419 . S
O1357 C1372 1.249 . S
O1358 Eu1319 2.558 . S
O1358 C1383 1.257 . S
O1359 Eu1308 2.380 . S
O1359 Eu1319 2.612 . S
O1359 C1375 1.276 . S
O1360 Eu1308 2.432 . S
O1360 C1382 1.264 . S
O1361 Eu1319 2.339 . S
O1361 C1382 1.254 . S
O1362 Eu1319 2.563 . S
O1362 C1375 1.235 . S
O1363 Eu1319 2.419 . S
O1363 C1383 1.249 . S
C1364 O1353 1.276 . S
C1364 O1356 1.235 . S
C1365 C1367 1.393 . S
C1365 C1369 1.395 . S
C1365 C1372 1.492 . S
C1366 C1367 1.392 . S
C1366 C1368 1.386 . S
C1367 C1365 1.393 . S
C1367 C1366 1.392 . S
C1367 H1384 0.930 . S
C1368 C1366 1.386 . S
C1368 C1370 1.395 . S
C1368 H1385 0.930 . S
C1369 C1365 1.395 . S
C1369 C1370 1.379 . S
C1369 H1386 0.930 . S
C1370 C1368 1.395 . S
C1370 C1369 1.379 . S
C1370 H1387 0.930 . S
C1371 O1354 1.264 . S
C1371 O1355 1.254 . S
C1372 Eu1308 2.848 . S
C1372 O1352 1.257 . S
C1372 O1357 1.249 . S
C1372 C1365 1.492 . S
C1373 H1338 0.931 . S
C1373 C1351 1.420 . S
C1373 C1374 1.351 . S
C1374 H1336 0.930 . S
C1374 C1342 1.423 . S
C1374 C1373 1.351 . S
C1375 O1359 1.276 . S
C1375 O1362 1.235 . S
C1376 C1377 1.393 . S
C1376 C1380 1.395 . S
C1376 C1383 1.492 . S
C1377 C1376 1.393 . S
C1377 C1378 1.392 . S
C1377 H1388 0.930 . S
C1378 C1377 1.392 . S
C1378 C1379 1.386 . S
C1379 C1378 1.386 . S
C1379 C1381 1.395 . S
C1379 H1389 0.930 . S
C1380 C1376 1.395 . S
C1380 C1381 1.379 . S
C1380 H1390 0.930 . S
C1381 C1379 1.395 . S
C1381 C1380 1.379 . S
C1381 H1391 0.930 . S
C1382 O1360 1.264 . S
C1382 O1361 1.254 . S
C1383 Eu1319 2.848 . S
C1383 O1358 1.257 . S
C1383 O1363 1.249 . S
C1383 C1376 1.492 . S
H1384 C1367 0.930 . S
H1385 C1368 0.930 . S
H1386 C1369 0.930 . S
H1387 C1370 0.930 . S
H1388 C1377 0.930 . S
H1389 C1379 0.930 . S
H1390 C1380 0.930 . S
H1391 C1381 0.930 . S
Eu1392 N1423 2.657 . S
Eu1392 N1430 2.609 . S
Eu1392 O1436 2.558 . S
Eu1392 O1437 2.612 . S
Eu1392 O1439 2.339 . S
Eu1392 O1440 2.563 . S
Eu1392 O1441 2.419 . S
Eu1392 O1443 2.380 . S
Eu1392 O1444 2.432 . S
Eu1392 C1456 2.848 . S
C1393 C1396 1.429 . S
C1393 C1397 1.411 . S
C1393 N1400 1.377 . S
C1394 C1396 1.420 . S
C1394 C1398 1.423 . S
C1394 C1406 1.392 . S
C1395 C1397 1.420 . S
C1395 C1398 1.351 . S
C1395 H1418 0.931 . S
C1396 C1393 1.429 . S
C1396 C1394 1.420 . S
C1396 N1404 1.362 . S
C1397 C1393 1.411 . S
C1397 C1395 1.420 . S
C1397 C1402 1.395 . S
C1398 C1394 1.423 . S
C1398 C1395 1.351 . S
C1398 H1410 0.930 . S
C1399 C1401 1.400 . S
C1399 C1402 1.386 . S
C1399 H1411 0.930 . S
N1400 C1393 1.377 . S
N1400 C1401 1.321 . S
N1400 Eu1403 2.609 . S
C1401 C1399 1.400 . S
C1401 N1400 1.321 . S
C1401 H1408 0.930 . S
C1402 C1397 1.395 . S
C1402 C1399 1.386 . S
C1402 H1421 0.930 . S
Eu1403 N1400 2.609 . S
Eu1403 N1404 2.657 . S
Eu1403 O1437 2.380 . S
Eu1403 O1438 2.432 . S
Eu1403 O1442 2.558 . S
Eu1403 O1443 2.612 . S
Eu1403 O1445 2.339 . S
Eu1403 O1446 2.563 . S
Eu1403 O1447 2.419 . S
Eu1403 C1467 2.848 . S
N1404 C1396 1.362 . S
N1404 Eu1403 2.657 . S
N1404 C1405 1.334 . S
C1405 N1404 1.334 . S
C1405 C1407 1.413 . S
C1405 H1412 0.929 . S
C1406 C1394 1.392 . S
C1406 C1407 1.367 . S
C1406 H1414 0.930 . S
C1407 C1405 1.413 . S
C1407 C1406 1.367 . S
C1407 H1409 0.930 . S
H1408 C1401 0.930 . S
H1409 C1407 0.930 . S
H1410 C1398 0.930 . S
H1411 C1399 0.930 . S
H1412 C1405 0.929 . S
H1413 C1427 0.930 . S
H1414 C1406 0.930 . S
H1415 C1433 0.930 . S
H1416 C1424 0.929 . S
H1417 C1431 0.930 . S
H1418 C1395 0.931 . S
H1419 C1425 0.930 . S
H1420 C1458 0.930 . S
H1421 C1402 0.930 . S
H1422 C1457 0.931 . S
N1423 Eu1392 2.657 . S
N1423 C1424 1.334 . S
N1423 C1428 1.362 . S
C1424 H1416 0.929 . S
C1424 N1423 1.334 . S
C1424 C1427 1.413 . S
C1425 H1419 0.930 . S
C1425 C1426 1.392 . S
C1425 C1427 1.367 . S
C1426 C1425 1.392 . S
C1426 C1428 1.420 . S
C1426 C1458 1.423 . S
C1427 H1413 0.930 . S
C1427 C1424 1.413 . S
C1427 C1425 1.367 . S
C1428 N1423 1.362 . S
C1428 C1426 1.420 . S
C1428 C1432 1.429 . S
H1429 C1434 0.930 . S
N1430 Eu1392 2.609 . S
N1430 C1432 1.377 . S
N1430 C1433 1.321 . S
C1431 H1417 0.930 . S
C1431 C1433 1.400 . S
C1431 C1434 1.386 . S
C1432 C1428 1.429 . S
C1432 N1430 1.377 . S
C1432 C1435 1.411 . S
C1433 H1415 0.930 . S
C1433 N1430 1.321 . S
C1433 C1431 1.400 . S
C1434 H1429 0.930 . S
C1434 C1431 1.386 . S
C1434 C1435 1.395 . S
C1435 C1432 1.411 . S
C1435 C1434 1.395 . S
C1435 C1457 1.420 . S
O1436 Eu1392 2.558 . S
O1436 C1456 1.257 . S
O1437 Eu1392 2.612 . S
O1437 Eu1403 2.380 . S
O1437 C1448 1.276 . S
O1438 Eu1403 2.432 . S
O1438 C1455 1.264 . S
O1439 Eu1392 2.339 . S
O1439 C1455 1.254 . S
O1440 Eu1392 2.563 . S
O1440 C1448 1.235 . S
O1441 Eu1392 2.419 . S
O1441 C1456 1.249 . S
O1442 Eu1403 2.558 . S
O1442 C1467 1.257 . S
O1443 Eu1392 2.380 . S
O1443 Eu1403 2.612 . S
O1443 C1459 1.276 . S
O1444 Eu1392 2.432 . S
O1444 C1466 1.264 . S
O1445 Eu1403 2.339 . S
O1445 C1466 1.254 . S
O1446 Eu1403 2.563 . S
O1446 C1459 1.235 . S
O1447 Eu1403 2.419 . S
O1447 C1467 1.249 . S
C1448 O1437 1.276 . S
C1448 O1440 1.235 . S
C1449 C1451 1.393 . S
C1449 C1453 1.395 . S
C1449 C1456 1.492 . S
C1450 C1451 1.392 . S
C1450 C1452 1.386 . S
C1451 C1449 1.393 . S
C1451 C1450 1.392 . S
C1451 H1468 0.930 . S
C1452 C1450 1.386 . S
C1452 C1454 1.395 . S
C1452 H1469 0.930 . S
C1453 C1449 1.395 . S
C1453 C1454 1.379 . S
C1453 H1470 0.930 . S
C1454 C1452 1.395 . S
C1454 C1453 1.379 . S
C1454 H1471 0.930 . S
C1455 O1438 1.264 . S
C1455 O1439 1.254 . S
C1456 Eu1392 2.848 . S
C1456 O1436 1.257 . S
C1456 O1441 1.249 . S
C1456 C1449 1.492 . S
C1457 H1422 0.931 . S
C1457 C1435 1.420 . S
C1457 C1458 1.351 . S
C1458 H1420 0.930 . S
C1458 C1426 1.423 . S
C1458 C1457 1.351 . S
C1459 O1443 1.276 . S
C1459 O1446 1.235 . S
C1460 C1461 1.393 . S
C1460 C1464 1.395 . S
C1460 C1467 1.492 . S
C1461 C1460 1.393 . S
C1461 C1462 1.392 . S
C1461 H1472 0.930 . S
C1462 C1461 1.392 . S
C1462 C1463 1.386 . S
C1463 C1462 1.386 . S
C1463 C1465 1.395 . S
C1463 H1473 0.930 . S
C1464 C1460 1.395 . S
C1464 C1465 1.379 . S
C1464 H1474 0.930 . S
C1465 C1463 1.395 . S
C1465 C1464 1.379 . S
C1465 H1475 0.930 . S
C1466 O1444 1.264 . S
C1466 O1445 1.254 . S
C1467 Eu1403 2.848 . S
C1467 O1442 1.257 . S
C1467 O1447 1.249 . S
C1467 C1460 1.492 . S
H1468 C1451 0.930 . S
H1469 C1452 0.930 . S
H1470 C1453 0.930 . S
H1471 C1454 0.930 . S
H1472 C1461 0.930 . S
H1473 C1463 0.930 . S
H1474 C1464 0.930 . S
H1475 C1465 0.930 . S
C1476 C1477 1.363 . S
C1476 C1482 1.379 . S
C1476 N1484 1.356 . S
C1477 C1476 1.363 . S
C1477 C1483 1.363 . S
C1478 C1479 1.363 . S
C1478 C1483 1.379 . S
C1478 N1485 1.356 . S
C1479 C1478 1.363 . S
C1479 C1482 1.363 . S
N1480 C1482 1.356 . S
N1480 H1492 0.984 . S
N1480 H1493 0.985 . S
N1481 C1483 1.356 . S
N1481 H1486 0.984 . S
N1481 H1487 0.985 . S
C1482 C1476 1.379 . S
C1482 C1479 1.363 . S
C1482 N1480 1.356 . S
C1483 C1477 1.363 . S
C1483 C1478 1.379 . S
C1483 N1481 1.356 . S
N1484 C1476 1.356 . S
N1484 H1490 0.984 . S
N1484 H1491 0.984 . S
N1485 C1478 1.356 . S
N1485 H1488 0.984 . S
N1485 H1489 0.985 . S
H1486 N1481 0.984 . S
H1487 N1481 0.985 . S
H1488 N1485 0.984 . S
H1489 N1485 0.985 . S
H1490 N1484 0.984 . S
H1491 N1484 0.984 . S
H1492 N1480 0.984 . S
H1493 N1480 0.985 . S
C1494 C1495 1.363 . S
C1494 C1500 1.379 . S
C1494 N1502 1.356 . S
C1495 C1494 1.363 . S
C1495 C1501 1.363 . S
C1496 C1497 1.363 . S
C1496 C1501 1.379 . S
C1496 N1503 1.356 . S
C1497 C1496 1.363 . S
C1497 C1500 1.363 . S
N1498 C1500 1.356 . S
N1498 H1510 0.984 . S
N1498 H1511 0.985 . S
N1499 C1501 1.356 . S
N1499 H1504 0.984 . S
N1499 H1505 0.985 . S
C1500 C1494 1.379 . S
C1500 C1497 1.363 . S
C1500 N1498 1.356 . S
C1501 C1495 1.363 . S
C1501 C1496 1.379 . S
C1501 N1499 1.356 . S
N1502 C1494 1.356 . S
N1502 H1508 0.984 . S
N1502 H1509 0.984 . S
N1503 C1496 1.356 . S
N1503 H1506 0.987 . S
N1503 H1507 0.985 1_554 S
H1504 N1499 0.984 . S
H1505 N1499 0.985 . S
H1506 N1503 0.987 . S
H1507 N1503 0.985 1_556 S
H1508 N1502 0.984 . S
H1509 N1502 0.984 . S
H1510 N1498 0.984 . S
H1511 N1498 0.985 . S
C1512 C1513 1.363 . S
C1512 C1518 1.379 . S
C1512 N1520 1.356 . S
C1513 C1512 1.363 . S
C1513 C1519 1.363 . S
C1514 C1515 1.363 . S
C1514 C1519 1.379 . S
C1514 N1521 1.356 . S
C1515 C1514 1.363 . S
C1515 C1518 1.363 . S
N1516 C1518 1.356 . S
N1516 H1528 0.984 . S
N1516 H1529 0.985 . S
N1517 C1519 1.356 . S
N1517 H1522 0.984 . S
N1517 H1523 0.985 . S
C1518 C1512 1.379 . S
C1518 C1515 1.363 . S
C1518 N1516 1.356 . S
C1519 C1513 1.363 . S
C1519 C1514 1.379 . S
C1519 N1517 1.356 . S
N1520 C1512 1.356 . S
N1520 H1526 0.984 . S
N1520 H1527 0.984 . S
N1521 C1514 1.356 . S
N1521 H1524 0.984 . S
N1521 H1525 0.985 1_554 S
H1522 N1517 0.984 . S
H1523 N1517 0.985 . S
H1524 N1521 0.984 . S
H1525 N1521 0.985 1_556 S
H1526 N1520 0.984 . S
H1527 N1520 0.984 . S
H1528 N1516 0.984 . S
H1529 N1516 0.985 . S
C1530 C1531 1.363 . S
C1530 C1536 1.379 . S
C1530 N1538 1.356 . S
C1531 C1530 1.363 . S
C1531 C1537 1.363 . S
C1532 C1533 1.363 . S
C1532 C1537 1.379 . S
C1532 N1539 1.356 . S
C1533 C1532 1.363 . S
C1533 C1536 1.363 . S
N1534 C1536 1.356 1_554 S
N1534 H1546 0.984 . S
N1534 H1547 0.985 . S
N1535 C1537 1.356 . S
N1535 H1540 0.984 . S
N1535 H1541 0.985 . S
C1536 C1530 1.379 . S
C1536 C1533 1.363 . S
C1536 N1534 1.356 1_556 S
C1537 C1531 1.363 . S
C1537 C1532 1.379 . S
C1537 N1535 1.356 . S
N1538 C1530 1.356 . S
N1538 H1544 0.984 1_556 S
N1538 H1545 0.984 . S
N1539 C1532 1.356 . S
N1539 H1542 0.984 . S
N1539 H1543 0.985 . S
H1540 N1535 0.984 . S
H1541 N1535 0.985 . S
H1542 N1539 0.984 . S
H1543 N1539 0.985 . S
H1544 N1538 0.984 1_554 S
H1545 N1538 0.984 . S
H1546 N1534 0.984 . S
H1547 N1534 0.985 . S
C1548 C1549 1.363 . S
C1548 C1554 1.379 . S
C1548 N1556 1.356 . S
C1549 C1548 1.363 . S
C1549 C1555 1.363 . S
C1550 C1551 1.363 . S
C1550 C1555 1.379 . S
C1550 N1557 1.356 . S
C1551 C1550 1.363 . S
C1551 C1554 1.363 . S
N1552 C1554 1.356 1_554 S
N1552 H1564 0.984 . S
N1552 H1565 0.985 . S
N1553 C1555 1.356 . S
N1553 H1558 0.984 . S
N1553 H1559 0.985 . S
C1554 C1548 1.379 . S
C1554 C1551 1.363 . S
C1554 N1552 1.356 1_556 S
C1555 C1549 1.363 . S
C1555 C1550 1.379 . S
C1555 N1553 1.356 . S
N1556 C1548 1.356 . S
N1556 H1562 0.984 1_556 S
N1556 H1563 0.984 . S
N1557 C1550 1.356 . S
N1557 H1560 0.984 . S
N1557 H1561 0.985 . S
H1558 N1553 0.984 . S
H1559 N1553 0.985 . S
H1560 N1557 0.984 . S
H1561 N1557 0.985 . S
H1562 N1556 0.984 1_554 S
H1563 N1556 0.984 . S
H1564 N1552 0.984 . S
H1565 N1552 0.985 . S
C1566 C1567 1.363 . S
C1566 C1572 1.379 . S
C1566 N1574 1.356 . S
C1567 C1566 1.363 . S
C1567 C1573 1.363 . S
C1568 C1569 1.363 . S
C1568 C1573 1.379 . S
C1568 N1575 1.356 1_556 S
C1569 C1568 1.363 . S
C1569 C1572 1.363 . S
N1570 C1572 1.356 . S
N1570 H1582 0.984 . S
N1570 H1583 0.985 . S
N1571 C1573 1.356 1_554 S
N1571 H1576 0.984 1_554 S
N1571 H1577 0.985 . S
C1572 C1566 1.379 . S
C1572 C1569 1.363 . S
C1572 N1570 1.356 . S
C1573 C1567 1.363 . S
C1573 C1568 1.379 . S
C1573 N1571 1.356 1_556 S
N1574 C1566 1.356 . S
N1574 H1580 0.984 . S
N1574 H1581 0.984 . S
N1575 C1568 1.356 1_554 S
N1575 H1578 0.984 . S
N1575 H1579 0.985 . S
H1576 N1571 0.984 1_556 S
H1577 N1571 0.985 . S
H1578 N1575 0.984 . S
H1579 N1575 0.985 . S
H1580 N1574 0.984 . S
H1581 N1574 0.984 . S
H1582 N1570 0.984 . S
H1583 N1570 0.985 . S
C1584 C1585 1.363 . S
C1584 C1590 1.379 . S
C1584 N1592 1.356 . S
C1585 C1584 1.363 . S
C1585 C1591 1.363 . S
C1586 C1587 1.363 . S
C1586 C1591 1.379 . S
C1586 N1593 1.356 1_556 S
C1587 C1586 1.363 . S
C1587 C1590 1.363 . S
N1588 C1590 1.356 . S
N1588 H1600 0.984 . S
N1588 H1601 0.985 . S
N1589 C1591 1.356 . S
N1589 H1594 0.984 . S
N1589 H1595 0.985 1_556 S
C1590 C1584 1.379 . S
C1590 C1587 1.363 . S
C1590 N1588 1.356 . S
C1591 C1585 1.363 . S
C1591 C1586 1.379 . S
C1591 N1589 1.356 . S
N1592 C1584 1.356 . S
N1592 H1598 0.984 . S
N1592 H1599 0.984 . S
N1593 C1586 1.356 1_554 S
N1593 H1596 0.984 . S
N1593 H1597 0.985 . S
H1594 N1589 0.984 . S
H1595 N1589 0.985 1_554 S
H1596 N1593 0.984 . S
H1597 N1593 0.985 . S
H1598 N1592 0.984 . S
H1599 N1592 0.984 . S
H1600 N1588 0.984 . S
H1601 N1588 0.985 . S
C1602 C1603 1.363 . S
C1602 C1608 1.379 . S
C1602 N1610 1.356 . S
C1603 C1602 1.363 . S
C1603 C1609 1.363 . S
C1604 C1605 1.363 . S
C1604 C1609 1.379 . S
C1604 N1611 1.356 1_556 S
C1605 C1604 1.363 . S
C1605 C1608 1.363 . S
N1606 C1608 1.356 . S
N1606 H1618 0.984 . S
N1606 H1619 0.985 . S
N1607 C1609 1.356 . S
N1607 H1612 0.984 . S
N1607 H1613 0.985 . S
C1608 C1602 1.379 . S
C1608 C1605 1.363 . S
C1608 N1606 1.356 . S
C1609 C1603 1.363 . S
C1609 C1604 1.379 . S
C1609 N1607 1.356 . S
N1610 C1602 1.356 . S
N1610 H1616 0.984 . S
N1610 H1617 0.984 . S
N1611 C1604 1.356 1_554 S
N1611 H1614 0.984 . S
N1611 H1615 0.985 . S
H1612 N1607 0.984 . S
H1613 N1607 0.985 . S
H1614 N1611 0.984 . S
H1615 N1611 0.985 . S
H1616 N1610 0.984 . S
H1617 N1610 0.984 . S
H1618 N1606 0.984 . S
H1619 N1606 0.985 . S
C1620 C1621 1.363 . S
C1620 C1626 1.379 . S
C1620 N1628 1.356 . S
C1621 C1620 1.363 . S
C1621 C1627 1.363 . S
C1622 C1623 1.363 . S
C1622 C1627 1.379 . S
C1622 N1629 1.356 1_556 S
C1623 C1622 1.363 . S
C1623 C1626 1.363 . S
N1624 C1626 1.356 . S
N1624 H1636 0.984 . S
N1624 H1637 0.985 . S
N1625 C1627 1.381 . S
N1625 H1630 1.014 . S
N1625 H1631 0.933 1_556 S
C1626 C1620 1.379 . S
C1626 C1623 1.363 . S
C1626 N1624 1.356 . S
C1627 C1621 1.363 . S
C1627 C1622 1.379 . S
C1627 N1625 1.381 . S
N1628 C1620 1.356 . S
N1628 H1634 0.984 . S
N1628 H1635 0.984 . S
N1629 C1622 1.356 1_554 S
N1629 H1632 0.984 . S
N1629 H1633 0.985 . S
H1630 N1625 1.014 . S
H1631 N1625 0.933 1_554 S
H1632 N1629 0.984 . S
H1633 N1629 0.985 . S
H1634 N1628 0.984 . S
H1635 N1628 0.984 . S
H1636 N1624 0.984 . S
H1637 N1624 0.985 . S
C1638 C1639 1.363 . S
C1638 C1644 1.379 . S
C1638 N1646 1.356 . S
C1639 C1638 1.363 . S
C1639 C1645 1.363 . S
C1640 C1641 1.363 . S
C1640 C1645 1.379 . S
C1640 N1647 1.356 . S
C1641 C1640 1.363 . S
C1641 C1644 1.363 . S
N1642 C1644 1.356 . S
N1642 H1654 0.984 1_554 S
N1642 H1655 0.985 . S
N1643 C1645 1.356 . S
N1643 H1648 0.984 . S
N1643 H1649 0.985 . S
C1644 C1638 1.379 . S
C1644 C1641 1.363 . S
C1644 N1642 1.356 . S
C1645 C1639 1.363 . S
C1645 C1640 1.379 . S
C1645 N1643 1.356 . S
N1646 C1638 1.356 . S
N1646 H1652 0.984 . S
N1646 H1653 0.984 . S
N1647 C1640 1.356 . S
N1647 H1650 0.984 . S
N1647 H1651 0.985 . S
H1648 N1643 0.984 . S
H1649 N1643 0.985 . S
H1650 N1647 0.984 . S
H1651 N1647 0.985 . S
H1652 N1646 0.984 . S
H1653 N1646 0.984 . S
H1654 N1642 0.984 1_556 S
H1655 N1642 0.985 . S
C1656 C1657 1.363 . S
C1656 C1662 1.379 . S
C1656 N1664 1.356 . S
C1657 C1656 1.363 . S
C1657 C1663 1.363 . S
C1658 C1659 1.363 . S
C1658 C1663 1.379 . S
C1658 N1665 1.356 . S
C1659 C1658 1.363 . S
C1659 C1662 1.363 . S
N1660 C1662 1.356 . S
N1660 H1672 0.984 . S
N1660 H1673 0.985 . S
N1661 C1663 1.356 . S
N1661 H1666 0.984 . S
N1661 H1667 0.985 . S
C1662 C1656 1.379 . S
C1662 C1659 1.363 . S
C1662 N1660 1.356 . S
C1663 C1657 1.363 . S
C1663 C1658 1.379 . S
C1663 N1661 1.356 . S
N1664 C1656 1.356 . S
N1664 H1670 0.984 . S
N1664 H1671 0.984 . S
N1665 C1658 1.356 . S
N1665 H1668 0.984 . S
N1665 H1669 0.985 . S
H1666 N1661 0.984 . S
H1667 N1661 0.985 . S
H1668 N1665 0.984 . S
H1669 N1665 0.985 . S
H1670 N1664 0.984 . S
H1671 N1664 0.984 . S
H1672 N1660 0.984 . S
H1673 N1660 0.985 . S
C1674 C1675 1.363 . S
C1674 C1680 1.379 . S
C1674 N1682 1.356 . S
C1675 C1674 1.363 . S
C1675 C1681 1.363 . S
C1676 C1677 1.363 . S
C1676 C1681 1.379 . S
C1676 N1683 1.356 1_554 S
C1677 C1676 1.363 . S
C1677 C1680 1.363 . S
N1678 C1680 1.356 . S
N1678 H1690 0.984 . S
N1678 H1691 0.985 . S
N1679 C1681 1.356 . S
N1679 H1684 0.984 . S
N1679 H1685 0.985 1_554 S
C1680 C1674 1.379 . S
C1680 C1677 1.363 . S
C1680 N1678 1.356 . S
C1681 C1675 1.363 . S
C1681 C1676 1.379 . S
C1681 N1679 1.356 . S
N1682 C1674 1.356 . S
N1682 H1688 0.984 . S
N1682 H1689 0.984 . S
N1683 C1676 1.356 1_556 S
N1683 H1686 0.984 . S
N1683 H1687 0.985 . S
H1684 N1679 0.984 . S
H1685 N1679 0.985 1_556 S
H1686 N1683 0.984 . S
H1687 N1683 0.985 . S
H1688 N1682 0.984 . S
H1689 N1682 0.984 . S
H1690 N1678 0.984 . S
H1691 N1678 0.985 . S
C1692 C1693 1.363 . S
C1692 C1698 1.379 . S
C1692 N1700 1.356 . S
C1693 C1692 1.363 . S
C1693 C1699 1.363 . S
C1694 C1695 1.363 . S
C1694 C1699 1.379 . S
C1694 N1701 1.356 . S
C1695 C1694 1.363 . S
C1695 C1698 1.363 . S
N1696 C1698 1.356 . S
N1696 H1708 0.984 . S
N1696 H1709 0.985 . S
N1697 C1699 1.356 . S
N1697 H1702 0.984 . S
N1697 H1703 0.985 . S
C1698 C1692 1.379 . S
C1698 C1695 1.363 . S
C1698 N1696 1.356 . S
C1699 C1693 1.363 . S
C1699 C1694 1.379 . S
C1699 N1697 1.356 . S
N1700 C1692 1.356 . S
N1700 H1706 0.984 . S
N1700 H1707 1.013 . S
N1701 C1694 1.356 . S
N1701 H1704 0.984 . S
N1701 H1705 0.985 . S
H1702 N1697 0.984 . S
H1703 N1697 0.985 . S
H1704 N1701 0.984 . S
H1705 N1701 0.985 . S
H1706 N1700 0.984 . S
H1707 N1700 1.013 . S
H1708 N1696 0.984 . S
H1709 N1696 0.985 . S
C1710 C1711 1.363 . S
C1710 C1716 1.379 . S
C1710 N1718 1.356 . S
C1711 C1710 1.363 . S
C1711 C1717 1.363 . S
C1712 C1713 1.363 . S
C1712 C1717 1.379 . S
C1712 N1719 1.356 . S
C1713 C1712 1.363 . S
C1713 C1716 1.363 . S
N1714 C1716 1.356 . S
N1714 H1726 0.984 . S
N1714 H1727 0.985 . S
N1715 C1717 1.356 . S
N1715 H1720 0.984 . S
N1715 H1721 0.985 . S
C1716 C1710 1.379 . S
C1716 C1713 1.363 . S
C1716 N1714 1.356 . S
C1717 C1711 1.363 . S
C1717 C1712 1.379 . S
C1717 N1715 1.356 . S
N1718 C1710 1.356 . S
N1718 H1724 0.984 . S
N1718 H1725 0.984 . S
N1719 C1712 1.356 . S
N1719 H1722 0.984 . S
N1719 H1723 0.985 . S
H1720 N1715 0.984 . S
H1721 N1715 0.985 . S
H1722 N1719 0.984 . S
H1723 N1719 0.985 . S
H1724 N1718 0.984 . S
H1725 N1718 0.984 . S
H1726 N1714 0.984 . S
H1727 N1714 0.985 . S
C1728 C1729 1.363 . S
C1728 C1734 1.379 . S
C1728 N1736 1.356 . S
C1729 C1728 1.363 . S
C1729 C1735 1.363 . S
C1730 C1731 1.363 . S
C1730 C1735 1.379 . S
C1730 N1737 1.356 . S
C1731 C1730 1.363 . S
C1731 C1734 1.363 . S
N1732 C1734 1.356 . S
N1732 H1744 0.984 . S
N1732 H1745 0.985 . S
N1733 C1735 1.356 . S
N1733 H1738 0.984 1_565 S
N1733 H1739 0.985 . S
C1734 C1728 1.379 . S
C1734 C1731 1.363 . S
C1734 N1732 1.356 . S
C1735 C1729 1.363 . S
C1735 C1730 1.379 . S
C1735 N1733 1.356 . S
N1736 C1728 1.356 . S
N1736 H1742 0.984 . S
N1736 H1743 0.984 . S
N1737 C1730 1.356 . S
N1737 H1740 0.984 . S
N1737 H1741 0.985 . S
H1738 N1733 0.984 1_545 S
H1739 N1733 0.985 . S
H1740 N1737 0.984 . S
H1741 N1737 0.985 . S
H1742 N1736 0.984 . S
H1743 N1736 0.984 . S
H1744 N1732 0.984 . S
H1745 N1732 0.985 . S
C1746 C1747 1.363 . S
C1746 C1752 1.379 . S
C1746 N1754 1.356 . S
C1747 C1746 1.363 . S
C1747 C1753 1.363 . S
C1748 C1749 1.363 . S
C1748 C1753 1.379 . S
C1748 N1755 1.356 . S
C1749 C1748 1.363 . S
C1749 C1752 1.363 . S
N1750 C1752 1.356 . S
N1750 H1762 0.984 . S
N1750 H1763 0.985 . S
N1751 C1753 1.356 . S
N1751 H1756 0.984 . S
N1751 H1757 0.985 . S
C1752 C1746 1.379 . S
C1752 C1749 1.363 . S
C1752 N1750 1.356 . S
C1753 C1747 1.363 . S
C1753 C1748 1.379 . S
C1753 N1751 1.356 . S
N1754 C1746 1.356 . S
N1754 H1760 0.984 . S
N1754 H1761 0.984 . S
N1755 C1748 1.356 . S
N1755 H1758 0.984 . S
N1755 H1759 0.985 . S
H1756 N1751 0.984 . S
H1757 N1751 0.985 . S
H1758 N1755 0.984 . S
H1759 N1755 0.985 . S
H1760 N1754 0.984 . S
H1761 N1754 0.984 . S
H1762 N1750 0.984 . S
H1763 N1750 0.985 . S
C1764 C1765 1.363 . S
C1764 C1770 1.379 . S
C1764 N1772 1.356 . S
C1765 C1764 1.363 . S
C1765 C1771 1.363 . S
C1766 C1767 1.363 . S
C1766 C1771 1.379 . S
C1766 N1773 1.356 . S
C1767 C1766 1.363 . S
C1767 C1770 1.363 . S
N1768 C1770 1.356 . S
N1768 H1780 0.984 . S
N1768 H1781 0.985 . S
N1769 C1771 1.356 . S
N1769 H1774 0.984 . S
N1769 H1775 0.985 . S
C1770 C1764 1.379 . S
C1770 C1767 1.363 . S
C1770 N1768 1.356 . S
C1771 C1765 1.363 . S
C1771 C1766 1.379 . S
C1771 N1769 1.356 . S
N1772 C1764 1.356 . S
N1772 H1778 0.984 . S
N1772 H1779 0.984 . S
N1773 C1766 1.356 . S
N1773 H1776 0.984 . S
N1773 H1777 0.985 . S
H1774 N1769 0.984 . S
H1775 N1769 0.985 . S
H1776 N1773 0.984 . S
H1777 N1773 0.985 . S
H1778 N1772 0.984 . S
H1779 N1772 0.984 . S
H1780 N1768 0.984 . S
H1781 N1768 0.985 . S
C1782 C1783 1.363 . S
C1782 C1788 1.379 . S
C1782 N1790 1.356 . S
C1783 C1782 1.363 . S
C1783 C1789 1.363 . S
C1784 C1785 1.363 . S
C1784 C1789 1.379 . S
C1784 N1791 1.356 . S
C1785 C1784 1.363 . S
C1785 C1788 1.363 . S
N1786 C1788 1.356 . S
N1786 H1798 0.984 . S
N1786 H1799 0.985 . S
N1787 C1789 1.356 . S
N1787 H1792 0.984 . S
N1787 H1793 0.985 . S
C1788 C1782 1.379 . S
C1788 C1785 1.363 . S
C1788 N1786 1.356 . S
C1789 C1783 1.363 . S
C1789 C1784 1.379 . S
C1789 N1787 1.356 . S
N1790 C1782 1.356 . S
N1790 H1796 0.984 . S
N1790 H1797 0.984 . S
N1791 C1784 1.356 . S
N1791 H1794 0.984 . S
N1791 H1795 0.985 . S
H1792 N1787 0.984 . S
H1793 N1787 0.985 . S
H1794 N1791 0.984 . S
H1795 N1791 0.985 . S
H1796 N1790 0.984 . S
H1797 N1790 0.984 . S
H1798 N1786 0.984 . S
H1799 N1786 0.985 . S
C1800 C1801 1.363 . S
C1800 C1806 1.379 . S
C1800 N1808 1.356 . S
C1801 C1800 1.363 . S
C1801 C1807 1.363 . S
C1802 C1803 1.363 . S
C1802 C1807 1.379 . S
C1802 N1809 1.356 . S
C1803 C1802 1.363 . S
C1803 C1806 1.363 . S
N1804 C1806 1.356 . S
N1804 H1816 0.984 . S
N1804 H1817 0.985 . S
N1805 C1807 1.356 . S
N1805 H1810 0.984 . S
N1805 H1811 0.985 . S
C1806 C1800 1.379 . S
C1806 C1803 1.363 . S
C1806 N1804 1.356 . S
C1807 C1801 1.363 . S
C1807 C1802 1.379 . S
C1807 N1805 1.356 . S
N1808 C1800 1.356 . S
N1808 H1814 0.984 . S
N1808 H1815 0.984 . S
N1809 C1802 1.356 . S
N1809 H1812 0.984 . S
N1809 H1813 0.985 . S
H1810 N1805 0.984 . S
H1811 N1805 0.985 . S
H1812 N1809 0.984 . S
H1813 N1809 0.985 . S
H1814 N1808 0.984 . S
H1815 N1808 0.984 . S
H1816 N1804 0.984 . S
H1817 N1804 0.985 . S
C1818 C1819 1.363 . S
C1818 C1824 1.379 . S
C1818 N1826 1.356 . S
C1819 C1818 1.363 . S
C1819 C1825 1.363 . S
C1820 C1821 1.363 . S
C1820 C1825 1.379 . S
C1820 N1827 1.356 . S
C1821 C1820 1.363 . S
C1821 C1824 1.363 . S
N1822 C1824 1.356 . S
N1822 H1834 0.984 . S
N1822 H1835 0.985 . S
N1823 C1825 1.356 . S
N1823 H1828 0.984 . S
N1823 H1829 0.985 . S
C1824 C1818 1.379 . S
C1824 C1821 1.363 . S
C1824 N1822 1.356 . S
C1825 C1819 1.363 . S
C1825 C1820 1.379 . S
C1825 N1823 1.356 . S
N1826 C1818 1.356 . S
N1826 H1832 0.984 . S
N1826 H1833 0.984 . S
N1827 C1820 1.356 . S
N1827 H1830 0.984 . S
N1827 H1831 0.985 . S
H1828 N1823 0.984 . S
H1829 N1823 0.985 . S
H1830 N1827 0.984 . S
H1831 N1827 0.985 . S
H1832 N1826 0.984 . S
H1833 N1826 0.984 . S
H1834 N1822 0.984 . S
H1835 N1822 0.985 . S
C1836 C1837 1.363 . S
C1836 C1842 1.379 . S
C1836 N1844 1.356 . S
C1837 C1836 1.363 . S
C1837 C1843 1.363 . S
C1838 C1839 1.363 . S
C1838 C1843 1.379 . S
C1838 N1845 1.356 . S
C1839 C1838 1.363 . S
C1839 C1842 1.363 . S
N1840 C1842 1.356 . S
N1840 H1852 0.984 . S
N1840 H1853 0.985 . S
N1841 C1843 1.356 . S
N1841 H1846 0.984 . S
N1841 H1847 0.985 . S
C1842 C1836 1.379 . S
C1842 C1839 1.363 . S
C1842 N1840 1.356 . S
C1843 C1837 1.363 . S
C1843 C1838 1.379 . S
C1843 N1841 1.356 . S
N1844 C1836 1.356 . S
N1844 H1850 0.984 . S
N1844 H1851 0.984 . S
N1845 C1838 1.356 . S
N1845 H1848 0.984 . S
N1845 H1849 0.985 . S
H1846 N1841 0.984 . S
H1847 N1841 0.985 . S
H1848 N1845 0.984 . S
H1849 N1845 0.985 . S
H1850 N1844 0.984 . S
H1851 N1844 0.984 . S
H1852 N1840 0.984 . S
H1853 N1840 0.985 . S
C1854 C1855 1.363 . S
C1854 C1860 1.379 . S
C1854 N1862 1.356 . S
C1855 C1854 1.363 . S
C1855 C1861 1.363 . S
C1856 C1857 1.363 . S
C1856 C1861 1.379 . S
C1856 N1863 1.356 . S
C1857 C1856 1.363 . S
C1857 C1860 1.363 . S
N1858 C1860 1.356 . S
N1858 H1870 0.984 . S
N1858 H1871 0.985 . S
N1859 C1861 1.356 . S
N1859 H1864 0.984 . S
N1859 H1865 0.985 . S
C1860 C1854 1.379 . S
C1860 C1857 1.363 . S
C1860 N1858 1.356 . S
C1861 C1855 1.363 . S
C1861 C1856 1.379 . S
C1861 N1859 1.356 . S
N1862 C1854 1.356 . S
N1862 H1868 0.984 . S
N1862 H1869 0.984 1_565 S
N1863 C1856 1.356 . S
N1863 H1866 0.984 . S
N1863 H1867 0.985 . S
H1864 N1859 0.984 . S
H1865 N1859 0.985 . S
H1866 N1863 0.984 . S
H1867 N1863 0.985 . S
H1868 N1862 0.984 . S
H1869 N1862 0.984 1_545 S
H1870 N1858 0.984 . S
H1871 N1858 0.985 . S
C1872 C1873 1.363 . S
C1872 C1878 1.379 . S
C1872 N1880 1.356 . S
C1873 C1872 1.363 . S
C1873 C1879 1.363 . S
C1874 C1875 1.363 . S
C1874 C1879 1.379 . S
C1874 N1881 1.356 . S
C1875 C1874 1.363 . S
C1875 C1878 1.363 . S
N1876 C1878 1.356 . S
N1876 H1888 0.984 . S
N1876 H1889 0.985 . S
N1877 C1879 1.356 . S
N1877 H1882 0.984 . S
N1877 H1883 0.985 . S
C1878 C1872 1.379 . S
C1878 C1875 1.363 . S
C1878 N1876 1.356 . S
C1879 C1873 1.363 . S
C1879 C1874 1.379 . S
C1879 N1877 1.356 . S
N1880 C1872 1.356 . S
N1880 H1886 0.984 . S
N1880 H1887 0.984 . S
N1881 C1874 1.356 . S
N1881 H1884 0.984 . S
N1881 H1885 0.985 . S
H1882 N1877 0.984 . S
H1883 N1877 0.985 . S
H1884 N1881 0.984 . S
H1885 N1881 0.985 . S
H1886 N1880 0.984 . S
H1887 N1880 0.984 . S
H1888 N1876 0.984 . S
H1889 N1876 0.985 . S
C1890 C1891 1.363 . S
C1890 C1896 1.379 . S
C1890 N1898 1.356 . S
C1891 C1890 1.363 . S
C1891 C1897 1.363 . S
C1892 C1893 1.363 . S
C1892 C1897 1.379 . S
C1892 N1899 1.356 . S
C1893 C1892 1.363 . S
C1893 C1896 1.363 . S
N1894 C1896 1.356 . S
N1894 H1906 0.984 . S
N1894 H1907 0.985 . S
N1895 C1897 1.356 . S
N1895 H1900 0.984 . S
N1895 H1901 0.985 . S
C1896 C1890 1.379 . S
C1896 C1893 1.363 . S
C1896 N1894 1.356 . S
C1897 C1891 1.363 . S
C1897 C1892 1.379 . S
C1897 N1895 1.356 . S
N1898 C1890 1.356 . S
N1898 H1904 0.984 . S
N1898 H1905 0.984 . S
N1899 C1892 1.356 . S
N1899 H1902 0.984 . S
N1899 H1903 0.985 . S
H1900 N1895 0.984 . S
H1901 N1895 0.985 . S
H1902 N1899 0.984 . S
H1903 N1899 0.985 . S
H1904 N1898 0.984 . S
H1905 N1898 0.984 . S
H1906 N1894 0.984 . S
H1907 N1894 0.985 . S
C1908 C1909 1.363 . S
C1908 C1914 1.379 . S
C1908 N1916 1.356 . S
C1909 C1908 1.363 . S
C1909 C1915 1.363 . S
C1910 C1911 1.363 . S
C1910 C1915 1.379 . S
C1910 N1917 1.356 . S
C1911 C1910 1.363 . S
C1911 C1914 1.363 . S
N1912 C1914 1.356 . S
N1912 H1924 0.984 . S
N1912 H1925 0.985 . S
N1913 C1915 1.356 . S
N1913 H1918 0.984 . S
N1913 H1919 0.985 . S
C1914 C1908 1.379 . S
C1914 C1911 1.363 . S
C1914 N1912 1.356 . S
C1915 C1909 1.363 . S
C1915 C1910 1.379 . S
C1915 N1913 1.356 . S
N1916 C1908 1.356 . S
N1916 H1922 0.984 . S
N1916 H1923 0.984 . S
N1917 C1910 1.356 . S
N1917 H1920 0.984 . S
N1917 H1921 0.985 . S
H1918 N1913 0.984 . S
H1919 N1913 0.985 . S
H1920 N1917 0.984 . S
H1921 N1917 0.985 . S
H1922 N1916 0.984 . S
H1923 N1916 0.984 . S
H1924 N1912 0.984 . S
H1925 N1912 0.985 . S
C1926 C1927 1.363 . S
C1926 C1932 1.379 . S
C1926 N1934 1.356 . S
C1927 C1926 1.363 . S
C1927 C1933 1.363 . S
C1928 C1929 1.363 . S
C1928 C1933 1.379 . S
C1928 N1935 1.356 . S
C1929 C1928 1.363 . S
C1929 C1932 1.363 . S
N1930 C1932 1.356 . S
N1930 H1942 0.984 . S
N1930 H1943 0.985 . S
N1931 C1933 1.356 . S
N1931 H1936 0.984 . S
N1931 H1937 0.985 . S
C1932 C1926 1.379 . S
C1932 C1929 1.363 . S
C1932 N1930 1.356 . S
C1933 C1927 1.363 . S
C1933 C1928 1.379 . S
C1933 N1931 1.356 . S
N1934 C1926 1.356 . S
N1934 H1940 0.984 . S
N1934 H1941 0.984 . S
N1935 C1928 1.356 . S
N1935 H1938 0.984 . S
N1935 H1939 0.985 . S
H1936 N1931 0.984 . S
H1937 N1931 0.985 . S
H1938 N1935 0.984 . S
H1939 N1935 0.985 . S
H1940 N1934 0.984 . S
H1941 N1934 0.984 . S
H1942 N1930 0.984 . S
H1943 N1930 0.985 . S
C1944 C1945 1.363 . S
C1944 C1950 1.379 . S
C1944 N1952 1.356 . S
C1945 C1944 1.363 . S
C1945 C1951 1.363 . S
C1946 C1947 1.363 . S
C1946 C1951 1.379 . S
C1946 N1953 1.356 . S
C1947 C1946 1.363 . S
C1947 C1950 1.363 . S
N1948 C1950 1.356 . S
N1948 H1960 0.984 . S
N1948 H1961 0.985 . S
N1949 C1951 1.356 . S
N1949 H1954 0.984 . S
N1949 H1955 0.985 . S
C1950 C1944 1.379 . S
C1950 C1947 1.363 . S
C1950 N1948 1.356 . S
C1951 C1945 1.363 . S
C1951 C1946 1.379 . S
C1951 N1949 1.356 . S
N1952 C1944 1.356 . S
N1952 H1958 0.984 . S
N1952 H1959 0.984 . S
N1953 C1946 1.356 . S
N1953 H1956 0.984 . S
N1953 H1957 0.985 . S
H1954 N1949 0.984 . S
H1955 N1949 0.985 . S
H1956 N1953 0.984 . S
H1957 N1953 0.985 . S
H1958 N1952 0.984 . S
H1959 N1952 0.984 . S
H1960 N1948 0.984 . S
H1961 N1948 0.985 . S
C1962 C1963 1.363 . S
C1962 C1968 1.379 . S
C1962 N1970 1.356 . S
C1963 C1962 1.363 . S
C1963 C1969 1.363 . S
C1964 C1965 1.363 . S
C1964 C1969 1.379 . S
C1964 N1971 1.356 . S
C1965 C1964 1.363 . S
C1965 C1968 1.363 . S
N1966 C1968 1.356 . S
N1966 H1978 0.984 . S
N1966 H1979 0.985 . S
N1967 C1969 1.356 . S
N1967 H1972 0.984 . S
N1967 H1973 0.985 . S
C1968 C1962 1.379 . S
C1968 C1965 1.363 . S
C1968 N1966 1.356 . S
C1969 C1963 1.363 . S
C1969 C1964 1.379 . S
C1969 N1967 1.356 . S
N1970 C1962 1.356 . S
N1970 H1976 0.984 . S
N1970 H1977 0.991 . S
N1971 C1964 1.356 . S
N1971 H1974 0.984 . S
N1971 H1975 0.985 . S
H1972 N1967 0.984 . S
H1973 N1967 0.985 . S
H1974 N1971 0.984 . S
H1975 N1971 0.985 . S
H1976 N1970 0.984 . S
H1977 N1970 0.991 . S
H1978 N1966 0.984 . S
H1979 N1966 0.985 . S
C1980 C1981 1.363 . S
C1980 C1986 1.379 . S
C1980 N1988 1.356 . S
C1981 C1980 1.363 . S
C1981 C1987 1.363 . S
C1982 C1983 1.363 . S
C1982 C1987 1.379 . S
C1982 N1989 1.356 . S
C1983 C1982 1.363 . S
C1983 C1986 1.363 . S
N1984 C1986 1.356 . S
N1984 H1996 0.984 . S
N1984 H1997 0.985 . S
N1985 C1987 1.356 . S
N1985 H1990 0.984 . S
N1985 H1991 0.985 . S
C1986 C1980 1.379 . S
C1986 C1983 1.363 . S
C1986 N1984 1.356 . S
C1987 C1981 1.363 . S
C1987 C1982 1.379 . S
C1987 N1985 1.356 . S
N1988 C1980 1.356 . S
N1988 H1994 0.984 . S
N1988 H1995 0.984 . S
N1989 C1982 1.356 . S
N1989 H1992 0.984 . S
N1989 H1993 0.985 . S
H1990 N1985 0.984 . S
H1991 N1985 0.985 . S
H1992 N1989 0.984 . S
H1993 N1989 0.985 . S
H1994 N1988 0.984 . S
H1995 N1988 0.984 . S
H1996 N1984 0.984 . S
H1997 N1984 0.985 . S
C1998 C1999 1.363 . S
C1998 C2004 1.379 . S
C1998 N2006 1.356 . S
C1999 C1998 1.363 . S
C1999 C2005 1.363 . S
C2000 C2001 1.363 . S
C2000 C2005 1.379 . S
C2000 N2007 1.356 . S
C2001 C2000 1.363 . S
C2001 C2004 1.363 . S
N2002 C2004 1.356 . S
N2002 H2014 0.984 . S
N2002 H2015 0.985 . S
N2003 C2005 1.356 . S
N2003 H2008 0.984 . S
N2003 H2009 0.985 . S
C2004 C1998 1.379 . S
C2004 C2001 1.363 . S
C2004 N2002 1.356 . S
C2005 C1999 1.363 . S
C2005 C2000 1.379 . S
C2005 N2003 1.356 . S
N2006 C1998 1.356 . S
N2006 H2012 0.984 . S
N2006 H2013 0.984 . S
N2007 C2000 1.356 . S
N2007 H2010 0.984 . S
N2007 H2011 0.985 . S
H2008 N2003 0.984 . S
H2009 N2003 0.985 . S
H2010 N2007 0.984 . S
H2011 N2007 0.985 . S
H2012 N2006 0.984 . S
H2013 N2006 0.984 . S
H2014 N2002 0.984 . S
H2015 N2002 0.985 . S
C2016 C2017 1.363 . S
C2016 C2022 1.379 . S
C2016 N2024 1.356 . S
C2017 C2016 1.363 . S
C2017 C2023 1.363 . S
C2018 C2019 1.363 . S
C2018 C2023 1.379 . S
C2018 N2025 1.356 . S
C2019 C2018 1.363 . S
C2019 C2022 1.363 . S
N2020 C2022 1.356 . S
N2020 H2032 0.984 . S
N2020 H2033 0.985 . S
N2021 C2023 1.356 . S
N2021 H2026 0.984 1_655 S
N2021 H2027 0.985 . S
C2022 C2016 1.379 . S
C2022 C2019 1.363 . S
C2022 N2020 1.356 . S
C2023 C2017 1.363 . S
C2023 C2018 1.379 . S
C2023 N2021 1.356 . S
N2024 C2016 1.356 . S
N2024 H2030 0.984 . S
N2024 H2031 0.984 . S
N2025 C2018 1.356 . S
N2025 H2028 0.984 . S
N2025 H2029 0.985 . S
H2026 N2021 0.984 1_455 S
H2027 N2021 0.985 . S
H2028 N2025 0.984 . S
H2029 N2025 0.985 . S
H2030 N2024 0.984 . S
H2031 N2024 0.984 . S
H2032 N2020 0.984 . S
H2033 N2020 0.985 . S
C2034 C2035 1.363 . S
C2034 C2040 1.379 . S
C2034 N2042 1.356 . S
C2035 C2034 1.363 . S
C2035 C2041 1.363 . S
C2036 C2037 1.363 . S
C2036 C2041 1.379 . S
C2036 N2043 1.356 . S
C2037 C2036 1.363 . S
C2037 C2040 1.363 . S
N2038 C2040 1.356 . S
N2038 H2050 0.984 . S
N2038 H2051 0.985 . S
N2039 C2041 1.356 . S
N2039 H2044 0.984 . S
N2039 H2045 0.985 . S
C2040 C2034 1.379 . S
C2040 C2037 1.363 . S
C2040 N2038 1.356 . S
C2041 C2035 1.363 . S
C2041 C2036 1.379 . S
C2041 N2039 1.356 . S
N2042 C2034 1.356 . S
N2042 H2048 0.984 . S
N2042 H2049 0.984 . S
N2043 C2036 1.356 . S
N2043 H2046 0.984 . S
N2043 H2047 0.985 . S
H2044 N2039 0.984 . S
H2045 N2039 0.985 . S
H2046 N2043 0.984 . S
H2047 N2043 0.985 . S
H2048 N2042 0.984 . S
H2049 N2042 0.984 . S
H2050 N2038 0.984 . S
H2051 N2038 0.985 . S
C2052 C2053 1.363 . S
C2052 C2058 1.379 . S
C2052 N2060 1.356 . S
C2053 C2052 1.363 . S
C2053 C2059 1.363 . S
C2054 C2055 1.363 . S
C2054 C2059 1.379 . S
C2054 N2061 1.356 . S
C2055 C2054 1.363 . S
C2055 C2058 1.363 . S
N2056 C2058 1.356 . S
N2056 H2068 0.984 . S
N2056 H2069 0.985 . S
N2057 C2059 1.356 . S
N2057 H2062 0.984 . S
N2057 H2063 0.985 . S
C2058 C2052 1.379 . S
C2058 C2055 1.363 . S
C2058 N2056 1.356 . S
C2059 C2053 1.363 . S
C2059 C2054 1.379 . S
C2059 N2057 1.356 . S
N2060 C2052 1.356 . S
N2060 H2066 0.984 . S
N2060 H2067 0.984 1_545 S
N2061 C2054 1.356 . S
N2061 H2064 0.984 . S
N2061 H2065 0.985 . S
H2062 N2057 0.984 . S
H2063 N2057 0.985 . S
H2064 N2061 0.984 . S
H2065 N2061 0.985 . S
H2066 N2060 0.984 . S
H2067 N2060 0.984 1_565 S
H2068 N2056 0.984 . S
H2069 N2056 0.985 . S
C2070 C2071 1.363 . S
C2070 C2076 1.379 . S
C2070 N2078 1.356 . S
C2071 C2070 1.363 . S
C2071 C2077 1.363 . S
C2072 C2073 1.363 . S
C2072 C2077 1.379 . S
C2072 N2079 1.356 . S
C2073 C2072 1.363 . S
C2073 C2076 1.363 . S
N2074 C2076 1.356 . S
N2074 H2086 0.984 . S
N2074 H2087 0.985 . S
N2075 C2077 1.356 . S
N2075 H2080 0.984 . S
N2075 H2081 0.985 . S
C2076 C2070 1.379 . S
C2076 C2073 1.363 . S
C2076 N2074 1.356 . S
C2077 C2071 1.363 . S
C2077 C2072 1.379 . S
C2077 N2075 1.356 . S
N2078 C2070 1.356 . S
N2078 H2084 0.984 . S
N2078 H2085 0.984 . S
N2079 C2072 1.356 . S
N2079 H2082 0.984 . S
N2079 H2083 0.985 . S
H2080 N2075 0.984 . S
H2081 N2075 0.985 . S
H2082 N2079 0.984 . S
H2083 N2079 0.985 . S
H2084 N2078 0.984 . S
H2085 N2078 0.984 . S
H2086 N2074 0.984 . S
H2087 N2074 0.985 . S
C2088 C2089 1.363 . S
C2088 C2094 1.379 . S
C2088 N2096 1.356 . S
C2089 C2088 1.363 . S
C2089 C2095 1.363 . S
C2090 C2091 1.363 . S
C2090 C2095 1.379 . S
C2090 N2097 1.356 . S
C2091 C2090 1.363 . S
C2091 C2094 1.363 . S
N2092 C2094 1.356 . S
N2092 H2104 0.984 . S
N2092 H2105 0.985 . S
N2093 C2095 1.356 . S
N2093 H2098 0.984 . S
N2093 H2099 0.985 . S
C2094 C2088 1.379 . S
C2094 C2091 1.363 . S
C2094 N2092 1.356 . S
C2095 C2089 1.363 . S
C2095 C2090 1.379 . S
C2095 N2093 1.356 . S
N2096 C2088 1.356 . S
N2096 H2102 0.984 . S
N2096 H2103 0.984 . S
N2097 C2090 1.356 . S
N2097 H2100 0.984 . S
N2097 H2101 0.985 . S
H2098 N2093 0.984 . S
H2099 N2093 0.985 . S
H2100 N2097 0.984 . S
H2101 N2097 0.985 . S
H2102 N2096 0.984 . S
H2103 N2096 0.984 . S
H2104 N2092 0.984 . S
H2105 N2092 0.985 . S
C2106 C2107 1.363 . S
C2106 C2112 1.379 . S
C2106 N2114 1.356 . S
C2107 C2106 1.363 . S
C2107 C2113 1.363 . S
C2108 C2109 1.363 . S
C2108 C2113 1.379 . S
C2108 N2115 1.356 . S
C2109 C2108 1.363 . S
C2109 C2112 1.363 . S
N2110 C2112 1.356 . S
N2110 H2122 0.984 . S
N2110 H2123 0.985 . S
N2111 C2113 1.356 . S
N2111 H2116 0.984 . S
N2111 H2117 0.985 . S
C2112 C2106 1.379 . S
C2112 C2109 1.363 . S
C2112 N2110 1.356 . S
C2113 C2107 1.363 . S
C2113 C2108 1.379 . S
C2113 N2111 1.356 . S
N2114 C2106 1.356 . S
N2114 H2120 0.984 . S
N2114 H2121 0.984 . S
N2115 C2108 1.356 . S
N2115 H2118 0.984 . S
N2115 H2119 0.985 . S
H2116 N2111 0.984 . S
H2117 N2111 0.985 . S
H2118 N2115 0.984 . S
H2119 N2115 0.985 . S
H2120 N2114 0.984 . S
H2121 N2114 0.984 . S
H2122 N2110 0.984 . S
H2123 N2110 0.985 . S
C2124 C2125 1.363 . S
C2124 C2130 1.379 . S
C2124 N2132 1.356 . S
C2125 C2124 1.363 . S
C2125 C2131 1.363 . S
C2126 C2127 1.363 . S
C2126 C2131 1.379 . S
C2126 N2133 1.356 1_565 S
C2127 C2126 1.363 . S
C2127 C2130 1.363 . S
N2128 C2130 1.356 . S
N2128 H2140 0.984 . S
N2128 H2141 0.985 . S
N2129 C2131 1.356 . S
N2129 H2134 0.984 . S
N2129 H2135 0.985 . S
C2130 C2124 1.379 . S
C2130 C2127 1.363 . S
C2130 N2128 1.356 . S
C2131 C2125 1.363 . S
C2131 C2126 1.379 . S
C2131 N2129 1.356 . S
N2132 C2124 1.356 . S
N2132 H2138 0.984 . S
N2132 H2139 0.984 . S
N2133 C2126 1.356 1_545 S
N2133 H2136 0.984 . S
N2133 H2137 0.985 . S
H2134 N2129 0.984 . S
H2135 N2129 0.985 . S
H2136 N2133 0.984 . S
H2137 N2133 0.985 . S
H2138 N2132 0.984 . S
H2139 N2132 0.984 . S
H2140 N2128 0.984 . S
H2141 N2128 0.985 . S
C2142 C2143 1.363 . S
C2142 C2148 1.379 . S
C2142 N2150 1.356 . S
C2143 C2142 1.363 . S
C2143 C2149 1.363 . S
C2144 C2145 1.363 . S
C2144 C2149 1.379 . S
C2144 N2151 1.356 . S
C2145 C2144 1.363 . S
C2145 C2148 1.363 . S
N2146 C2148 1.356 . S
N2146 H2158 0.984 . S
N2146 H2159 0.985 . S
N2147 C2149 1.356 . S
N2147 H2152 0.984 . S
N2147 H2153 0.985 . S
C2148 C2142 1.379 . S
C2148 C2145 1.363 . S
C2148 N2146 1.356 . S
C2149 C2143 1.363 . S
C2149 C2144 1.379 . S
C2149 N2147 1.356 . S
N2150 C2142 1.356 . S
N2150 H2156 0.984 . S
N2150 H2157 0.984 . S
N2151 C2144 1.356 . S
N2151 H2154 0.984 . S
N2151 H2155 0.985 . S
H2152 N2147 0.984 . S
H2153 N2147 0.985 . S
H2154 N2151 0.984 . S
H2155 N2151 0.985 . S
H2156 N2150 0.984 . S
H2157 N2150 0.984 . S
H2158 N2146 0.984 . S
H2159 N2146 0.985 . S
C2160 C2161 1.363 . S
C2160 C2166 1.379 . S
C2160 N2168 1.356 . S
C2161 C2160 1.363 . S
C2161 C2167 1.363 . S
C2162 C2163 1.363 . S
C2162 C2167 1.379 . S
C2162 N2169 1.356 . S
C2163 C2162 1.363 . S
C2163 C2166 1.363 . S
N2164 C2166 1.356 . S
N2164 H2176 0.984 . S
N2164 H2177 0.985 . S
N2165 C2167 1.356 . S
N2165 H2170 0.984 . S
N2165 H2171 0.985 . S
C2166 C2160 1.379 . S
C2166 C2163 1.363 . S
C2166 N2164 1.356 . S
C2167 C2161 1.363 . S
C2167 C2162 1.379 . S
C2167 N2165 1.356 . S
N2168 C2160 1.356 . S
N2168 H2174 0.984 . S
N2168 H2175 0.984 . S
N2169 C2162 1.356 . S
N2169 H2172 0.984 . S
N2169 H2173 0.985 . S
H2170 N2165 0.984 . S
H2171 N2165 0.985 . S
H2172 N2169 0.984 . S
H2173 N2169 0.985 . S
H2174 N2168 0.984 . S
H2175 N2168 0.984 . S
H2176 N2164 0.984 . S
H2177 N2164 0.985 . S
C2178 C2179 1.363 . S
C2178 C2184 1.379 . S
C2178 N2186 1.356 . S
C2179 C2178 1.363 . S
C2179 C2185 1.363 . S
C2180 C2181 1.363 . S
C2180 C2185 1.379 . S
C2180 N2187 1.356 1_655 S
C2181 C2180 1.363 . S
C2181 C2184 1.363 . S
N2182 C2184 1.356 . S
N2182 H2194 0.984 . S
N2182 H2195 0.985 . S
N2183 C2185 1.356 . S
N2183 H2188 0.984 . S
N2183 H2189 0.985 1_655 S
C2184 C2178 1.379 . S
C2184 C2181 1.363 . S
C2184 N2182 1.356 . S
C2185 C2179 1.363 . S
C2185 C2180 1.379 . S
C2185 N2183 1.356 . S
N2186 C2178 1.356 . S
N2186 H2192 0.984 . S
N2186 H2193 0.984 . S
N2187 C2180 1.356 1_455 S
N2187 H2190 0.984 . S
N2187 H2191 0.985 . S
H2188 N2183 0.984 . S
H2189 N2183 0.985 1_455 S
H2190 N2187 0.984 . S
H2191 N2187 0.985 . S
H2192 N2186 0.984 . S
H2193 N2186 0.984 . S
H2194 N2182 0.984 . S
H2195 N2182 0.985 . S
C2196 C2197 1.363 . S
C2196 C2202 1.379 . S
C2196 N2204 1.356 . S
C2197 C2196 1.363 . S
C2197 C2203 1.363 . S
C2198 C2199 1.363 . S
C2198 C2203 1.379 . S
C2198 N2205 1.356 . S
C2199 C2198 1.363 . S
C2199 C2202 1.363 . S
N2200 C2202 1.356 . S
N2200 H2212 0.984 . S
N2200 H2213 0.985 . S
N2201 C2203 1.356 . S
N2201 H2206 0.984 . S
N2201 H2207 0.985 . S
C2202 C2196 1.379 . S
C2202 C2199 1.363 . S
C2202 N2200 1.356 . S
C2203 C2197 1.363 . S
C2203 C2198 1.379 . S
C2203 N2201 1.356 . S
N2204 C2196 1.356 . S
N2204 H2210 0.984 . S
N2204 H2211 0.984 . S
N2205 C2198 1.356 . S
N2205 H2208 0.984 . S
N2205 H2209 0.985 . S
H2206 N2201 0.984 . S
H2207 N2201 0.985 . S
H2208 N2205 0.984 . S
H2209 N2205 0.985 . S
H2210 N2204 0.984 . S
H2211 N2204 0.984 . S
H2212 N2200 0.984 . S
H2213 N2200 0.985 . S
C2214 C2215 1.363 . S
C2214 C2220 1.379 . S
C2214 N2222 1.356 . S
C2215 C2214 1.363 . S
C2215 C2221 1.363 . S
C2216 C2217 1.363 . S
C2216 C2221 1.379 . S
C2216 N2223 1.356 . S
C2217 C2216 1.363 . S
C2217 C2220 1.363 . S
N2218 C2220 1.356 . S
N2218 H2230 0.984 1_545 S
N2218 H2231 0.976 1_545 S
N2219 C2221 1.356 . S
N2219 H2224 0.984 . S
N2219 H2225 0.985 . S
C2220 C2214 1.379 . S
C2220 C2217 1.363 . S
C2220 N2218 1.356 . S
C2221 C2215 1.363 . S
C2221 C2216 1.379 . S
C2221 N2219 1.356 . S
N2222 C2214 1.356 . S
N2222 H2228 0.984 . S
N2222 H2229 0.984 . S
N2223 C2216 1.356 . S
N2223 H2226 0.984 . S
N2223 H2227 0.985 . S
H2224 N2219 0.984 . S
H2225 N2219 0.985 . S
H2226 N2223 0.984 . S
H2227 N2223 0.985 . S
H2228 N2222 0.984 . S
H2229 N2222 0.984 . S
H2230 N2218 0.984 1_565 S
H2231 N2218 0.976 1_565 S
C2232 C2233 1.363 . S
C2232 C2238 1.379 . S
C2232 N2240 1.356 . S
C2233 C2232 1.363 . S
C2233 C2239 1.363 . S
C2234 C2235 1.363 . S
C2234 C2239 1.379 . S
C2234 N2241 1.356 . S
C2235 C2234 1.363 . S
C2235 C2238 1.363 . S
N2236 C2238 1.356 . S
N2236 H2248 0.984 . S
N2236 H2249 0.985 . S
N2237 C2239 1.356 . S
N2237 H2242 0.984 . S
N2237 H2243 0.985 . S
C2238 C2232 1.379 . S
C2238 C2235 1.363 . S
C2238 N2236 1.356 . S
C2239 C2233 1.363 . S
C2239 C2234 1.379 . S
C2239 N2237 1.356 . S
N2240 C2232 1.356 . S
N2240 H2246 0.984 . S
N2240 H2247 0.984 . S
N2241 C2234 1.356 . S
N2241 H2244 0.984 . S
N2241 H2245 0.985 . S
H2242 N2237 0.984 . S
H2243 N2237 0.985 . S
H2244 N2241 0.984 . S
H2245 N2241 0.985 . S
H2246 N2240 0.984 . S
H2247 N2240 0.984 . S
H2248 N2236 0.984 . S
H2249 N2236 0.985 . S
C2250 C2251 1.363 . S
C2250 C2256 1.379 . S
C2250 N2258 1.356 . S
C2251 C2250 1.363 . S
C2251 C2257 1.363 . S
C2252 C2253 1.363 . S
C2252 C2257 1.379 . S
C2252 N2259 1.356 . S
C2253 C2252 1.363 . S
C2253 C2256 1.363 . S
N2254 C2256 1.356 . S
N2254 H2266 0.984 . S
N2254 H2267 0.985 . S
N2255 C2257 1.356 . S
N2255 H2260 0.984 . S
N2255 H2261 0.985 . S
C2256 C2250 1.379 . S
C2256 C2253 1.363 . S
C2256 N2254 1.356 . S
C2257 C2251 1.363 . S
C2257 C2252 1.379 . S
C2257 N2255 1.356 . S
N2258 C2250 1.356 . S
N2258 H2264 0.984 . S
N2258 H2265 0.984 . S
N2259 C2252 1.356 . S
N2259 H2262 0.984 . S
N2259 H2263 0.985 . S
H2260 N2255 0.984 . S
H2261 N2255 0.985 . S
H2262 N2259 0.984 . S
H2263 N2259 0.985 . S
H2264 N2258 0.984 . S
H2265 N2258 0.984 . S
H2266 N2254 0.984 . S
H2267 N2254 0.985 . S
C2268 C2269 1.363 . S
C2268 C2274 1.379 . S
C2268 N2276 1.356 . S
C2269 C2268 1.363 . S
C2269 C2275 1.363 . S
C2270 C2271 1.363 . S
C2270 C2275 1.379 . S
C2270 N2277 1.356 . S
C2271 C2270 1.363 . S
C2271 C2274 1.363 . S
N2272 C2274 1.356 . S
N2272 H2284 0.984 . S
N2272 H2285 0.985 . S
N2273 C2275 1.356 . S
N2273 H2278 0.984 . S
N2273 H2279 0.985 . S
C2274 C2268 1.379 . S
C2274 C2271 1.363 . S
C2274 N2272 1.356 . S
C2275 C2269 1.363 . S
C2275 C2270 1.379 . S
C2275 N2273 1.356 . S
N2276 C2268 1.356 . S
N2276 H2282 0.984 . S
N2276 H2283 0.984 . S
N2277 C2270 1.356 . S
N2277 H2280 0.984 . S
N2277 H2281 0.985 . S
H2278 N2273 0.984 . S
H2279 N2273 0.985 . S
H2280 N2277 0.984 . S
H2281 N2277 0.985 . S
H2282 N2276 0.984 . S
H2283 N2276 0.984 . S
H2284 N2272 0.984 . S
H2285 N2272 0.985 . S
C2286 C2287 1.363 . S
C2286 C2292 1.379 . S
C2286 N2294 1.356 . S
C2287 C2286 1.363 . S
C2287 C2293 1.363 . S
C2288 C2289 1.363 . S
C2288 C2293 1.379 . S
C2288 N2295 1.356 . S
C2289 C2288 1.363 . S
C2289 C2292 1.363 . S
N2290 C2292 1.356 . S
N2290 H2302 0.984 . S
N2290 H2303 0.985 . S
N2291 C2293 1.356 . S
N2291 H2296 0.984 . S
N2291 H2297 0.985 . S
C2292 C2286 1.379 . S
C2292 C2289 1.363 . S
C2292 N2290 1.356 . S
C2293 C2287 1.363 . S
C2293 C2288 1.379 . S
C2293 N2291 1.356 . S
N2294 C2286 1.356 . S
N2294 H2300 0.984 . S
N2294 H2301 0.984 . S
N2295 C2288 1.356 . S
N2295 H2298 0.984 . S
N2295 H2299 0.985 . S
H2296 N2291 0.984 . S
H2297 N2291 0.985 . S
H2298 N2295 0.984 . S
H2299 N2295 0.985 . S
H2300 N2294 0.984 . S
H2301 N2294 0.984 . S
H2302 N2290 0.984 . S
H2303 N2290 0.985 . S
C2304 C2305 1.363 . S
C2304 C2310 1.379 . S
C2304 N2312 1.356 . S
C2305 C2304 1.363 . S
C2305 C2311 1.363 . S
C2306 C2307 1.363 . S
C2306 C2311 1.379 . S
C2306 N2313 1.356 . S
C2307 C2306 1.363 . S
C2307 C2310 1.363 . S
N2308 C2310 1.356 . S
N2308 H2320 0.984 . S
N2308 H2321 0.985 . S
N2309 C2311 1.356 . S
N2309 H2314 0.984 . S
N2309 H2315 0.985 . S
C2310 C2304 1.379 . S
C2310 C2307 1.363 . S
C2310 N2308 1.356 . S
C2311 C2305 1.363 . S
C2311 C2306 1.379 . S
C2311 N2309 1.356 . S
N2312 C2304 1.356 . S
N2312 H2318 0.984 . S
N2312 H2319 0.984 . S
N2313 C2306 1.356 . S
N2313 H2316 0.984 . S
N2313 H2317 0.985 . S
H2314 N2309 0.984 . S
H2315 N2309 0.985 . S
H2316 N2313 0.984 . S
H2317 N2313 0.985 . S
H2318 N2312 0.984 . S
H2319 N2312 0.984 . S
H2320 N2308 0.984 . S
H2321 N2308 0.985 . S
C2322 C2323 1.363 . S
C2322 C2328 1.379 . S
C2322 N2330 1.356 . S
C2323 C2322 1.363 . S
C2323 C2329 1.363 . S
C2324 C2325 1.363 . S
C2324 C2329 1.379 . S
C2324 N2331 1.356 . S
C2325 C2324 1.363 . S
C2325 C2328 1.363 . S
N2326 C2328 1.356 . S
N2326 H2338 0.984 . S
N2326 H2339 0.985 . S
N2327 C2329 1.356 . S
N2327 H2332 0.984 . S
N2327 H2333 0.985 . S
C2328 C2322 1.379 . S
C2328 C2325 1.363 . S
C2328 N2326 1.356 . S
C2329 C2323 1.363 . S
C2329 C2324 1.379 . S
C2329 N2327 1.356 . S
N2330 C2322 1.356 . S
N2330 H2336 0.984 . S
N2330 H2337 0.984 . S
N2331 C2324 1.356 . S
N2331 H2334 0.984 . S
N2331 H2335 0.985 . S
H2332 N2327 0.984 . S
H2333 N2327 0.985 . S
H2334 N2331 0.984 . S
H2335 N2331 0.985 . S
H2336 N2330 0.984 . S
H2337 N2330 0.984 . S
H2338 N2326 0.984 . S
H2339 N2326 0.985 . S
C2340 C2341 1.363 . S
C2340 C2346 1.379 . S
C2340 N2348 1.356 . S
C2341 C2340 1.363 . S
C2341 C2347 1.363 . S
C2342 C2343 1.363 . S
C2342 C2347 1.379 . S
C2342 N2349 1.356 . S
C2343 C2342 1.363 . S
C2343 C2346 1.363 . S
N2344 C2346 1.356 . S
N2344 H2356 0.984 . S
N2344 H2357 0.985 . S
N2345 C2347 1.356 . S
N2345 H2350 0.984 . S
N2345 H2351 0.985 . S
C2346 C2340 1.379 . S
C2346 C2343 1.363 . S
C2346 N2344 1.356 . S
C2347 C2341 1.363 . S
C2347 C2342 1.379 . S
C2347 N2345 1.356 . S
N2348 C2340 1.356 . S
N2348 H2354 0.984 . S
N2348 H2355 0.984 . S
N2349 C2342 1.356 . S
N2349 H2352 0.984 . S
N2349 H2353 0.985 . S
H2350 N2345 0.984 . S
H2351 N2345 0.985 . S
H2352 N2349 0.984 . S
H2353 N2349 0.985 . S
H2354 N2348 0.984 . S
H2355 N2348 0.984 . S
H2356 N2344 0.984 . S
H2357 N2344 0.985 . S
C2358 C2359 1.363 . S
C2358 C2364 1.379 . S
C2358 N2366 1.356 . S
C2359 C2358 1.363 . S
C2359 C2365 1.363 . S
C2360 C2361 1.363 . S
C2360 C2365 1.379 . S
C2360 N2367 1.356 . S
C2361 C2360 1.363 . S
C2361 C2364 1.363 . S
N2362 C2364 1.356 . S
N2362 H2374 0.984 . S
N2362 H2375 0.985 . S
N2363 C2365 1.356 . S
N2363 H2368 0.984 . S
N2363 H2369 0.985 . S
C2364 C2358 1.379 . S
C2364 C2361 1.363 . S
C2364 N2362 1.356 . S
C2365 C2359 1.363 . S
C2365 C2360 1.379 . S
C2365 N2363 1.356 . S
N2366 C2358 1.356 . S
N2366 H2372 0.984 . S
N2366 H2373 0.984 . S
N2367 C2360 1.356 . S
N2367 H2370 0.984 . S
N2367 H2371 0.985 . S
H2368 N2363 0.984 . S
H2369 N2363 0.985 . S
H2370 N2367 0.984 . S
H2371 N2367 0.985 . S
H2372 N2366 0.984 . S
H2373 N2366 0.984 . S
H2374 N2362 0.984 . S
H2375 N2362 0.985 . S
C2376 C2377 1.363 . S
C2376 C2382 1.379 . S
C2376 N2384 1.356 . S
C2377 C2376 1.363 . S
C2377 C2383 1.363 . S
C2378 C2379 1.363 . S
C2378 C2383 1.379 . S
C2378 N2385 1.356 . S
C2379 C2378 1.363 . S
C2379 C2382 1.363 . S
N2380 C2382 1.356 . S
N2380 H2392 0.984 . S
N2380 H2393 0.985 . S
N2381 C2383 1.356 . S
N2381 H2386 0.984 . S
N2381 H2387 0.985 . S
C2382 C2376 1.379 . S
C2382 C2379 1.363 . S
C2382 N2380 1.356 . S
C2383 C2377 1.363 . S
C2383 C2378 1.379 . S
C2383 N2381 1.356 . S
N2384 C2376 1.356 . S
N2384 H2390 0.984 . S
N2384 H2391 0.984 . S
N2385 C2378 1.356 . S
N2385 H2388 0.984 . S
N2385 H2389 0.985 . S
H2386 N2381 0.984 . S
H2387 N2381 0.985 . S
H2388 N2385 0.984 . S
H2389 N2385 0.985 . S
H2390 N2384 0.984 . S
H2391 N2384 0.984 . S
H2392 N2380 0.984 . S
H2393 N2380 0.985 . S
C2394 C2395 1.363 . S
C2394 C2400 1.379 . S
C2394 N2402 1.356 . S
C2395 C2394 1.363 . S
C2395 C2401 1.363 . S
C2396 C2397 1.363 . S
C2396 C2401 1.379 . S
C2396 N2403 1.356 . S
C2397 C2396 1.363 . S
C2397 C2400 1.363 . S
N2398 C2400 1.356 . S
N2398 H2410 0.984 . S
N2398 H2411 0.985 . S
N2399 C2401 1.356 . S
N2399 H2404 0.984 . S
N2399 H2405 0.985 . S
C2400 C2394 1.379 . S
C2400 C2397 1.363 . S
C2400 N2398 1.356 . S
C2401 C2395 1.363 . S
C2401 C2396 1.379 . S
C2401 N2399 1.356 . S
N2402 C2394 1.356 . S
N2402 H2408 0.984 . S
N2402 H2409 0.984 . S
N2403 C2396 1.356 . S
N2403 H2406 0.984 . S
N2403 H2407 0.985 . S
H2404 N2399 0.984 . S
H2405 N2399 0.985 . S
H2406 N2403 0.984 . S
H2407 N2403 0.985 . S
H2408 N2402 0.984 . S
H2409 N2402 0.984 . S
H2410 N2398 0.984 . S
H2411 N2398 0.985 . S
C2412 C2413 1.363 . S
C2412 C2418 1.379 . S
C2412 N2420 1.356 . S
C2413 C2412 1.363 . S
C2413 C2419 1.363 . S
C2414 C2415 1.363 . S
C2414 C2419 1.379 . S
C2414 N2421 1.356 . S
C2415 C2414 1.363 . S
C2415 C2418 1.363 . S
N2416 C2418 1.356 . S
N2416 H2428 0.984 . S
N2416 H2429 0.985 . S
N2417 C2419 1.356 . S
N2417 H2422 0.984 . S
N2417 H2423 0.985 . S
C2418 C2412 1.379 . S
C2418 C2415 1.363 . S
C2418 N2416 1.356 . S
C2419 C2413 1.363 . S
C2419 C2414 1.379 . S
C2419 N2417 1.356 . S
N2420 C2412 1.356 . S
N2420 H2426 0.984 . S
N2420 H2427 0.984 . S
N2421 C2414 1.356 . S
N2421 H2424 0.984 . S
N2421 H2425 0.985 . S
H2422 N2417 0.984 . S
H2423 N2417 0.985 . S
H2424 N2421 0.984 . S
H2425 N2421 0.985 . S
H2426 N2420 0.984 . S
H2427 N2420 0.984 . S
H2428 N2416 0.984 . S
H2429 N2416 0.985 . S
C2430 C2431 1.363 . S
C2430 C2436 1.379 . S
C2430 N2438 1.356 . S
C2431 C2430 1.363 . S
C2431 C2437 1.363 . S
C2432 C2433 1.363 . S
C2432 C2437 1.379 . S
C2432 N2439 1.356 . S
C2433 C2432 1.363 . S
C2433 C2436 1.363 . S
N2434 C2436 1.356 . S
N2434 H2446 0.984 . S
N2434 H2447 0.985 . S
N2435 C2437 1.356 . S
N2435 H2440 0.984 . S
N2435 H2441 0.985 . S
C2436 C2430 1.379 . S
C2436 C2433 1.363 . S
C2436 N2434 1.356 . S
C2437 C2431 1.363 . S
C2437 C2432 1.379 . S
C2437 N2435 1.356 . S
N2438 C2430 1.356 . S
N2438 H2444 0.984 . S
N2438 H2445 0.984 . S
N2439 C2432 1.356 . S
N2439 H2442 0.984 . S
N2439 H2443 0.985 . S
H2440 N2435 0.984 . S
H2441 N2435 0.985 . S
H2442 N2439 0.984 . S
H2443 N2439 0.985 . S
H2444 N2438 0.984 . S
H2445 N2438 0.984 . S
H2446 N2434 0.984 . S
H2447 N2434 0.985 . S
C1477 C522 1.503 . S
C1479 C787 1.417 . S
C1495 C562 1.487 . S
C1497 C871 1.415 . S
C1513 C495 1.525 . S
C1515 C951 1.470 . S
C1531 C455 1.473 . S
C1533 C867 1.424 . S
C1551 C955 1.353 . S
C1549 C362 1.430 . S
C1567 C402 1.497 . S
C1569 C783 1.415 . S
C1587 C776 1.440 . S
C1585 C442 1.476 . S
C1605 C860 1.400 . S
C1603 C375 1.462 . S
C1621 C415 1.531 . S
C1623 C962 1.469 . S
C1639 C535 1.478 . S
C1641 C878 1.423 . S
C1657 C575 1.406 . S
C1659 C944 1.336 . S
C1677 C794 1.439 . S
C1675 C482 1.459 . S
C1695 C1039 1.417 . S
C1693 C42 1.503 . S
C1711 C82 1.488 . S
C1713 C1123 1.416 . S
C1729 C15 1.525 1_565 S
C1731 C1203 1.470 . S
C1747 C695 1.473 . S
C1749 C1119 1.424 . S
C1765 C602 1.430 . S
C1767 C1207 1.353 . S
C1783 C642 1.497 . S
C1785 C1035 1.415 . S
C1801 C682 1.476 . S
C1803 C1028 1.440 . S
C1819 C615 1.462 . S
C1821 C1112 1.400 . S
C1839 C1214 1.469 . S
C1837 C655 1.531 . S
C1855 C55 1.478 . S
C1857 C1130 1.423 . S
C1875 C1196 1.336 . S
C1873 C95 1.405 . S
C1891 C2 1.458 . S
C1893 C1046 1.439 . S
C1911 C1291 1.417 . S
C1909 C282 1.504 . S
C1927 C322 1.488 . S
C1929 C1375 1.415 . S
C1947 C1455 1.470 . S
C1945 C255 1.525 . S
C1965 C1371 1.424 . S
C1963 C215 1.473 . S
C1983 C1459 1.353 . S
C1981 C122 1.431 . S
C1999 C162 1.497 . S
C2001 C1287 1.415 . S
C2017 C202 1.477 . S
C2019 C1280 1.441 . S
C2035 C135 1.462 . S
C2037 C1364 1.400 . S
C2055 C1466 1.469 . S
C2053 C175 1.531 . S
C2071 C295 1.478 . S
C2073 C1382 1.423 . S
C2089 C335 1.405 . S
C2091 C1448 1.336 . S
C2107 C242 1.458 . S
C2109 C1298 1.439 . S
C2125 C621 1.441 . S
C2127 C790 1.352 . S
C2145 C874 1.361 . S
C2143 C661 1.515 . S
C2161 C701 1.492 . S
C2163 C946 1.366 . S
C2179 C261 1.512 . S
C2181 C862 1.374 . S
C2197 C301 1.479 . S
C2199 C958 1.352 . S
C2217 C778 1.355 . S
C2215 C341 1.441 . S
C2233 C141 1.440 . S
C2235 C1042 1.352 . S
C2251 C181 1.516 . S
C2253 C1126 1.361 . S
C2269 C221 1.491 . S
C2271 C1198 1.365 . S
C2287 C501 1.511 . S
C2289 C1114 1.374 . S
C2307 C1210 1.352 . S
C2305 C541 1.479 . S
C2323 C581 1.441 . S
C2325 C1030 1.355 . S
C2341 C381 1.440 . S
C2343 C1294 1.352 . S
C2359 C421 1.515 . S
C2361 C1378 1.361 . S
C2379 C1450 1.365 . S
C2377 C461 1.491 . S
C2395 C21 1.512 . S
C2397 C1366 1.374 . S
C2413 C61 1.479 . S
C2415 C1462 1.352 . S
C2431 C101 1.441 . S
C2433 C1282 1.355 . S
