# Generated by pormake.
# Topology ocu, (6,8)-cn, num edge types: 1
# Building blocks:
#     Node 0, Type 0, BuildingBlock: MIFKUJ_clean_sbu_0, # of connection points: 6
#     Node 1, Type 0, BuildingBlock: MIFKUJ_clean_sbu_0, # of connection points: 6
#     Node 2, Type 0, BuildingBlock: MIFKUJ_clean_sbu_0, # of connection points: 6
#     Node 3, Type 0, BuildingBlock: MIFKUJ_clean_sbu_0, # of connection points: 6
#     Node 4, Type 0, BuildingBlock: MIFKUJ_clean_sbu_0, # of connection points: 6
#     Node 5, Type 0, BuildingBlock: MIFKUJ_clean_sbu_0, # of connection points: 6
#     Node 6, Type 0, BuildingBlock: MIFKUJ_clean_sbu_0, # of connection points: 6
#     Node 7, Type 0, BuildingBlock: MIFKUJ_clean_sbu_0, # of connection points: 6
#     Node 8, Type 1, BuildingBlock: GIZVER_clean_sbu_0, # of connection points: 8
#     Node 9, Type 1, BuildingBlock: GIZVER_clean_sbu_0, # of connection points: 8
#     Node 10, Type 1, BuildingBlock: GIZVER_clean_sbu_0, # of connection points: 8
#     Node 11, Type 1, BuildingBlock: GIZVER_clean_sbu_0, # of connection points: 8
#     Node 12, Type 1, BuildingBlock: GIZVER_clean_sbu_0, # of connection points: 8
#     Node 13, Type 1, BuildingBlock: GIZVER_clean_sbu_0, # of connection points: 8
#     Edge 14, Type (0, 1), None
#     Edge 15, Type (0, 1), None
#     Edge 16, Type (0, 1), None
#     Edge 17, Type (0, 1), None
#     Edge 18, Type (0, 1), None
#     Edge 19, Type (0, 1), None
#     Edge 20, Type (0, 1), None
#     Edge 21, Type (0, 1), None
#     Edge 22, Type (0, 1), None
#     Edge 23, Type (0, 1), None
#     Edge 24, Type (0, 1), None
#     Edge 25, Type (0, 1), None
#     Edge 26, Type (0, 1), None
#     Edge 27, Type (0, 1), None
#     Edge 28, Type (0, 1), None
#     Edge 29, Type (0, 1), None
#     Edge 30, Type (0, 1), None
#     Edge 31, Type (0, 1), None
#     Edge 32, Type (0, 1), None
#     Edge 33, Type (0, 1), None
#     Edge 34, Type (0, 1), None
#     Edge 35, Type (0, 1), None
#     Edge 36, Type (0, 1), None
#     Edge 37, Type (0, 1), None
#     Edge 38, Type (0, 1), None
#     Edge 39, Type (0, 1), None
#     Edge 40, Type (0, 1), None
#     Edge 41, Type (0, 1), None
#     Edge 42, Type (0, 1), None
#     Edge 43, Type (0, 1), None
#     Edge 44, Type (0, 1), None
#     Edge 45, Type (0, 1), None
#     Edge 46, Type (0, 1), None
#     Edge 47, Type (0, 1), None
#     Edge 48, Type (0, 1), None
#     Edge 49, Type (0, 1), None
#     Edge 50, Type (0, 1), None
#     Edge 51, Type (0, 1), None
#     Edge 52, Type (0, 1), None
#     Edge 53, Type (0, 1), None
#     Edge 54, Type (0, 1), None
#     Edge 55, Type (0, 1), None
#     Edge 56, Type (0, 1), None
#     Edge 57, Type (0, 1), None
#     Edge 58, Type (0, 1), None
#     Edge 59, Type (0, 1), None
#     Edge 60, Type (0, 1), None
#     Edge 61, Type (0, 1), None
# Relax obj value: 0.120
# Max RMSD: 0.235
# Mean RMSD: 0.161
data_MOF--net-ocu--node1-MIFKUJ_clean_sbu_0--node2-GIZVER_clean_sbu_0--edge1-none
_symmetry_space_group_name_H-M    P1
_symmetry_Int_Tables_number       1
_symmetry_cell_setting            triclinic
loop_
_symmetry_equiv_pos_as_xyz
'x, y, z'
_cell_length_a     22.742096
_cell_length_b     23.679191
_cell_length_c     15.931671
_cell_angle_alpha  91.201507
_cell_angle_beta   94.107071
_cell_angle_gamma 123.97744
loop_
_atom_site_label
_atom_site_type_symbol
_atom_site_fract_x
_atom_site_fract_y
_atom_site_fract_z
_atom_type_partial_charge
Zn0 Zn 0.24677 0.35824 0.2409 0.0
Zn1 Zn 0.31572 0.23053 0.24222 0.0
C2 C 0.18553 0.40651 0.34058 0.0
O3 O 0.13325 0.34361 0.3149 0.0
C4 C 0.39562 0.20911 0.14905 0.0
O5 O 0.43761 0.26937 0.19002 0.0
O6 O 0.17419 0.34983 0.15092 0.0
O7 O 0.34236 0.4059 0.18167 0.0
O8 O 0.3614 0.32514 0.19227 0.0
C9 C 0.19352 0.40897 0.13038 0.0
O10 O 0.2586 0.46084 0.15573 0.0
O11 O 0.2485 0.4268 0.32542 0.0
C12 C 0.34002 0.15898 0.34326 0.0
O13 O 0.27849 0.11806 0.29826 0.0
O14 O 0.37395 0.22332 0.33727 0.0
O15 O 0.21716 0.18102 0.29124 0.0
O16 O 0.19759 0.26232 0.29397 0.0
O17 O 0.3285 0.17632 0.15318 0.0
C18 C 0.38004 0.38317 0.16651 0.0
C19 C 0.18166 0.20366 0.31564 0.0
Zn20 Zn 0.755 0.3501 0.21496 0.0
Zn21 Zn 0.81157 0.2541 0.26209 0.0
C22 C 0.68019 0.38447 0.09823 0.0
O23 O 0.66826 0.33251 0.05067 0.0
C24 C 0.90712 0.22606 0.36295 0.0
O25 O 0.90205 0.26122 0.4234 0.0
O26 O 0.84461 0.37373 0.16863 0.0
O27 O 0.77049 0.36825 0.33778 0.0
O28 O 0.85162 0.34476 0.33528 0.0
C29 C 0.89493 0.4363 0.17037 0.0
O30 O 0.88557 0.48297 0.19864 0.0
O31 O 0.72092 0.40454 0.16681 0.0
C32 C 0.67912 0.17154 0.32664 0.0
O33 O 0.67424 0.224 0.33387 0.0
O34 O 0.7373 0.17973 0.31492 0.0
O35 O 0.74447 0.22279 0.1456 0.0
O36 O 0.67744 0.25914 0.17892 0.0
O37 O 0.87975 0.2219 0.28748 0.0
C38 C 0.82897 0.37844 0.36717 0.0
C39 C 0.68576 0.21946 0.1359 0.0
Zn40 Zn 0.80693 0.72226 0.2394 0.0
Zn41 Zn 0.74694 0.86286 0.23922 0.0
C42 C 0.86475 0.68077 0.35583 0.0
O43 O 0.91791 0.743 0.34407 0.0
C44 C 0.68496 0.89658 0.10973 0.0
O45 O 0.63306 0.83342 0.1199 0.0
O46 O 0.86987 0.72261 0.15841 0.0
O47 O 0.71256 0.68575 0.1774 0.0
O48 O 0.69392 0.76811 0.18311 0.0
C49 C 0.84846 0.66548 0.12086 0.0
O50 O 0.78379 0.61222 0.12806 0.0
O51 O 0.80303 0.65777 0.31996 0.0
C52 C 0.71262 0.92867 0.35907 0.0
O53 O 0.78083 0.97686 0.36082 0.0
O54 O 0.68716 0.87146 0.31833 0.0
O55 O 0.84269 0.89875 0.30524 0.0
O56 O 0.85732 0.81383 0.30018 0.0
O57 O 0.74617 0.92188 0.15005 0.0
C58 C 0.67513 0.70872 0.15746 0.0
C59 C 0.8768 0.87264 0.32858 0.0
Zn60 Zn 0.21897 0.81677 0.23983 0.0
Zn61 Zn 0.32942 0.78218 0.20903 0.0
C62 C 0.13683 0.68634 0.30439 0.0
O63 O 0.08582 0.69474 0.28091 0.0
C64 C 0.45474 0.90119 0.18231 0.0
O65 O 0.47487 0.88474 0.2515 0.0
O66 O 0.15177 0.83609 0.28555 0.0
O67 O 0.31408 0.89785 0.27342 0.0
O68 O 0.35071 0.83665 0.32748 0.0
C69 C 0.1747 0.89714 0.30887 0.0
O70 O 0.2378 0.9473 0.29161 0.0
O71 O 0.20105 0.73311 0.29492 0.0
C72 C 0.35376 0.67749 0.14148 0.0
O73 O 0.28935 0.64773 0.10267 0.0
O74 O 0.37801 0.72957 0.19371 0.0
O75 O 0.23031 0.7258 0.13818 0.0
O76 O 0.19925 0.79776 0.11755 0.0
O77 O 0.39109 0.86233 0.14793 0.0
C78 C 0.351 0.89113 0.32969 0.0
C79 C 0.19122 0.74165 0.09831 0.0
Zn80 Zn 0.24908 0.82439 0.71545 0.0
Zn81 Zn 0.30562 0.72836 0.7626 0.0
C82 C 0.15352 0.85242 0.61459 0.0
O83 O 0.15858 0.81726 0.55414 0.0
C84 C 0.38043 0.69399 0.87934 0.0
O85 O 0.39236 0.74595 0.9269 0.0
O86 O 0.32336 0.89876 0.66262 0.0
O87 O 0.31616 0.85569 0.83195 0.0
O88 O 0.38318 0.81932 0.79866 0.0
C89 C 0.38156 0.90695 0.65097 0.0
O90 O 0.38642 0.85448 0.64371 0.0
O91 O 0.1809 0.85659 0.69006 0.0
C92 C 0.1657 0.64216 0.80719 0.0
O93 O 0.17506 0.59549 0.77892 0.0
O94 O 0.21601 0.70473 0.80893 0.0
O95 O 0.29014 0.71023 0.63978 0.0
O96 O 0.20902 0.73372 0.64227 0.0
O97 O 0.3397 0.67392 0.81076 0.0
C98 C 0.37487 0.85901 0.84167 0.0
C99 C 0.23167 0.70004 0.61039 0.0
Zn100 Zn 0.31368 0.21559 0.73835 0.0
Zn101 Zn 0.25369 0.3562 0.73816 0.0
C102 C 0.37565 0.18188 0.86786 0.0
O103 O 0.42756 0.24504 0.85768 0.0
C104 C 0.19588 0.3977 0.62174 0.0
O105 O 0.14271 0.33546 0.6335 0.0
O106 O 0.37345 0.20698 0.65924 0.0
O107 O 0.21793 0.17971 0.67233 0.0
O108 O 0.2033 0.26463 0.67738 0.0
C109 C 0.34798 0.14977 0.61852 0.0
O110 O 0.27977 0.10159 0.61677 0.0
O111 O 0.31445 0.15658 0.82753 0.0
C112 C 0.21216 0.41297 0.8567 0.0
O113 O 0.27683 0.46623 0.8495 0.0
O114 O 0.19075 0.35585 0.81915 0.0
O115 O 0.34806 0.3927 0.80016 0.0
O116 O 0.3667 0.31035 0.79446 0.0
O117 O 0.2576 0.42069 0.6576 0.0
C118 C 0.18382 0.20582 0.64898 0.0
C119 C 0.38549 0.36974 0.8201 0.0
Zn120 Zn 0.7312 0.29628 0.76854 0.0
Zn121 Zn 0.84165 0.2617 0.73773 0.0
C122 C 0.60588 0.17727 0.79526 0.0
O123 O 0.58575 0.19373 0.72608 0.0
C124 C 0.9238 0.39214 0.67317 0.0
O125 O 0.9748 0.38373 0.69666 0.0
O126 O 0.6826 0.34889 0.78387 0.0
O127 O 0.83031 0.35266 0.83938 0.0
O128 O 0.86137 0.2807 0.86001 0.0
C129 C 0.70687 0.40097 0.83609 0.0
O130 O 0.77129 0.43075 0.87488 0.0
O131 O 0.66953 0.21613 0.82965 0.0
C132 C 0.88592 0.18133 0.66869 0.0
O133 O 0.82283 0.13117 0.68595 0.0
O134 O 0.90885 0.24238 0.69201 0.0
O135 O 0.74655 0.18062 0.70413 0.0
O136 O 0.7099 0.24182 0.65009 0.0
O137 O 0.85958 0.34536 0.68264 0.0
C138 C 0.8694 0.33681 0.87925 0.0
C139 C 0.70962 0.18734 0.64787 0.0
Zn140 Zn 0.74489 0.84793 0.73535 0.0
Zn141 Zn 0.81385 0.72023 0.73666 0.0
C142 C 0.66501 0.86935 0.82855 0.0
O143 O 0.62301 0.80909 0.78758 0.0
C144 C 0.8751 0.67197 0.637 0.0
O145 O 0.92739 0.73486 0.66268 0.0
O146 O 0.68665 0.85514 0.64032 0.0
O147 O 0.84345 0.89744 0.68631 0.0
O148 O 0.86303 0.81615 0.68359 0.0
C149 C 0.72057 0.91949 0.63436 0.0
O150 O 0.78211 0.9604 0.67934 0.0
O151 O 0.73212 0.90213 0.82441 0.0
C152 C 0.86712 0.66952 0.8472 0.0
O153 O 0.80204 0.61764 0.82183 0.0
O154 O 0.88643 0.72865 0.82665 0.0
O155 O 0.71826 0.67256 0.79589 0.0
O156 O 0.69922 0.75332 0.78529 0.0
O157 O 0.81213 0.65167 0.65215 0.0
C158 C 0.87895 0.8748 0.66192 0.0
C159 C 0.68058 0.69529 0.81105 0.0
Co160 Co 0.07341 0.93063 0.42557 0.0
Co161 Co 0.07656 0.94479 0.57985 0.0
Co162 Co 0.03031 0.03923 0.48878 0.0
O163 O 0.09257 1.00446 0.49882 0.0
H164 H 0.14234 0.04177 0.50404 0.0
O165 O 0.96805 0.074 0.47874 0.0
Co166 Co 0.98721 0.14784 0.55198 0.0
Co167 Co 0.98406 0.13368 0.39771 0.0
H168 H 0.91828 1.0367 0.47352 0.0
O169 O 0.14846 0.94899 0.64197 0.0
O170 O 0.07996 0.87808 0.52496 0.0
O171 O 0.99078 0.90517 0.62823 0.0
O172 O 0.95422 0.96641 0.56721 0.0
O173 O 0.08689 0.10034 0.5898 0.0
O174 O 0.9965 0.21088 0.62394 0.0
O175 O 0.89639 0.11305 0.56629 0.0
O176 O 0.08879 0.19141 0.55369 0.0
O177 O 0.1064 0.11205 0.41035 0.0
O178 O 0.06983 0.17329 0.34932 0.0
O179 O 0.98066 0.20039 0.4526 0.0
O180 O 0.91216 0.12948 0.33559 0.0
C181 C 0.13274 0.9111 0.35906 0.0
C182 C 0.94358 0.91406 0.38388 0.0
C183 C 0.94487 0.91895 0.61655 0.0
C184 C 0.12599 0.895 0.59231 0.0
C185 C 0.92789 0.16737 0.61849 0.0
C186 C 0.11704 0.1644 0.59367 0.0
C187 C 0.11575 0.15951 0.361 0.0
C188 C 0.93464 0.18348 0.38524 0.0
O189 O 0.06413 0.86759 0.35361 0.0
O190 O 0.16423 0.96542 0.41126 0.0
O191 O 0.97372 0.97812 0.38776 0.0
O192 O 0.97183 0.88705 0.42387 0.0
Co193 Co 0.57766 0.93465 0.91994 0.0
Co194 Co 0.62856 1.00207 0.06642 0.0
Co195 Co 0.53031 0.03923 -0.01121 0.0
O196 O 0.60204 1.0208 0.96322 0.0
H197 H 0.64298 0.05872 0.94034 0.0
O198 O 0.45859 0.05767 0.01435 0.0
Co199 Co 0.48296 0.14382 0.05764 0.0
Co200 Co 0.43207 0.0764 0.91116 0.0
H201 H 0.41764 1.01975 0.03723 0.0
O202 O 0.71158 1.00683 0.08673 0.0
O203 O 0.60213 0.91517 0.03529 0.0
O204 O 0.57258 0.98721 0.15967 0.0
O205 O 0.48448 0.96575 0.06682 0.0
O206 O 0.60034 0.10578 0.08055 0.0
O207 O 0.49721 0.21993 0.10065 0.0
O208 O 0.39412 0.11534 0.08299 0.0
O209 O 0.58346 0.18562 0.04313 0.0
O210 O 0.57614 0.11272 0.91075 0.0
O211 O 0.48804 0.09125 0.81791 0.0
O212 O 0.45849 0.1633 0.94229 0.0
O213 O 0.34903 0.07163 0.89086 0.0
C214 C 0.63123 0.89856 0.86919 0.0
C215 C 0.43752 0.91018 0.89878 0.0
C216 C 0.50674 0.95753 0.13735 0.0
C217 C 0.66685 0.94132 0.07125 0.0
C218 C 0.4294 0.1799 0.10839 0.0
C219 C 0.6231 0.16829 0.07879 0.0
C220 C 0.55388 0.12092 0.84021 0.0
C221 C 0.39376 0.13714 0.90632 0.0
O222 O 0.56342 0.85853 0.87693 0.0
O223 O 0.66651 0.96313 0.89459 0.0
O224 O 0.46028 0.97269 0.89703 0.0
O225 O 0.47717 0.89285 0.93445 0.0
Co226 Co 0.08871 0.43533 0.94106 0.0
Co227 Co 0.069 0.44916 0.08497 0.0
Co228 Co 0.03031 0.53923 -0.01122 0.0
O229 O 0.09399 0.50765 0.00425 0.0
H230 H 0.14308 0.54563 0.01678 0.0
O231 O 0.96664 0.57081 0.9733 0.0
Co232 Co 0.97191 0.64313 0.03651 0.0
Co233 Co 0.99162 0.6293 0.89259 0.0
H234 H 0.91754 0.53283 0.96078 0.0
O235 O 0.14466 0.4722 0.15606 0.0
O236 O 0.09114 0.39119 0.04596 0.0
O237 O 0.97636 0.41404 0.12251 0.0
O238 O 0.99519 0.5154 0.10325 0.0
O239 O 0.11245 0.62912 0.03996 0.0
O240 O 0.96705 0.70424 0.09615 0.0
O241 O 0.87742 0.60031 0.03776 0.0
O242 O 0.07292 0.69675 0.04618 0.0
O243 O 0.06543 0.56306 0.87431 0.0
O244 O 0.08426 0.66442 0.85504 0.0
O245 O 0.96949 0.68727 0.93161 0.0
O246 O 0.91596 0.60627 0.82151 0.0
C247 C 0.16127 0.4219 0.89504 0.0
C248 C 0.93785 0.39131 0.92354 0.0
C249 C 0.95899 0.4562 0.13086 0.0
C250 C 0.14019 0.42383 0.10969 0.0
C251 C 0.89935 0.65656 0.08252 0.0
C252 C 0.12277 0.68715 0.05402 0.0
C253 C 0.10163 0.62227 0.84669 0.0
C254 C 0.92044 0.65464 0.86789 0.0
O255 O 0.09357 0.37422 0.88142 0.0
O256 O 0.1832 0.47815 0.9398 0.0
O257 O 0.94817 0.44934 0.9376 0.0
O258 O 0.9877 0.38171 0.93139 0.0
Co259 Co 0.58838 0.43797 0.91745 0.0
Co260 Co 0.57478 0.44628 0.07176 0.0
Co261 Co 0.53031 0.53923 -0.01122 0.0
O262 O 0.59489 0.50721 -0.00674 0.0
H263 H 0.64399 0.54545 0.00487 0.0
O264 O 0.46573 0.57125 0.9843 0.0
Co265 Co 0.47224 0.64049 0.06012 0.0
Co266 Co 0.48584 0.63218 0.9058 0.0
H267 H 0.41663 0.53301 0.9727 0.0
O268 O 0.65107 0.46218 0.13334 0.0
O269 O 0.58839 0.38733 0.0173 0.0
O270 O 0.48804 0.40401 0.12439 0.0
O271 O 0.4567 0.47037 0.06991 0.0
O272 O 0.58909 0.60314 0.08774 0.0
O273 O 0.47024 0.70048 0.13013 0.0
O274 O 0.37708 0.6039 0.06185 0.0
O275 O 0.57379 0.68819 0.0726 0.0
O276 O 0.60392 0.60809 0.90765 0.0
O277 O 0.57258 0.67445 0.85317 0.0
O278 O 0.47223 0.69113 0.96027 0.0
O279 O 0.40955 0.61628 0.84422 0.0
C280 C 0.65889 0.41992 0.86511 0.0
C281 C 0.45179 0.41384 0.87458 0.0
C282 C 0.4452 0.42209 0.11782 0.0
C283 C 0.63927 0.41362 0.08018 0.0
C284 C 0.40173 0.65854 0.11245 0.0
C285 C 0.60884 0.66462 0.10298 0.0
C286 C 0.61543 0.65637 0.85975 0.0
C287 C 0.42135 0.66484 0.89738 0.0
O288 O 0.59038 0.37798 0.84743 0.0
O289 O 0.68354 0.47456 0.91572 0.0
O290 O 0.47153 0.47532 0.88983 0.0
O291 O 0.48683 0.39028 0.90497 0.0
Co292 Co 0.15582 0.50421 0.52711 0.0
Co293 Co 0.13181 0.51745 0.38261 0.0
Co294 Co 0.03032 0.53924 0.48879 0.0
O295 O 0.07381 0.48937 0.46431 0.0
H296 H 0.03752 0.44108 0.45369 0.0
O297 O 0.98682 0.58911 0.51326 0.0
Co298 Co 0.90481 0.57426 0.45046 0.0
Co299 Co 0.92883 0.56103 0.59496 0.0
H300 H 1.02311 0.6374 0.52388 0.0
O301 O 0.11199 0.44686 0.31346 0.0
O302 O 0.19963 0.5028 0.42172 0.0
O303 O 0.15988 0.6046 0.34379 0.0
O304 O 0.06553 0.59824 0.39011 0.0
O305 O 0.94527 0.46688 0.41581 0.0
O306 O 0.83371 0.57009 0.38927 0.0
O307 O 0.94105 0.66227 0.44243 0.0
O308 O 0.85768 0.47722 0.44834 0.0
O309 O 0.9951 0.48023 0.58746 0.0
O310 O 0.90075 0.47388 0.63378 0.0
O311 O 0.86101 0.57568 0.55585 0.0
O312 O 0.94865 0.63162 0.66411 0.0
C313 C 0.18083 0.44252 0.57914 0.0
C314 C 0.1811 0.63611 0.55923 0.0
C315 C 0.1201 0.6263 0.3483 0.0
C316 C 0.16627 0.45513 0.35941 0.0
C317 C 0.8798 0.63595 0.39843 0.0
C318 C 0.87953 0.44236 0.41834 0.0
C319 C 0.94053 0.45217 0.62927 0.0
C320 C 0.89437 0.62335 0.61816 0.0
O321 O 0.22692 0.50837 0.5883 0.0
O322 O 0.11958 0.4162 0.53514 0.0
O323 O 0.11536 0.61159 0.56176 0.0
O324 O 0.20295 0.60125 0.52924 0.0
Co325 Co 0.65102 1.00369 0.54304 0.0
Co326 Co 0.59897 0.98159 0.38915 0.0
Co327 Co 0.5303 0.03923 0.48878 0.0
O328 O 0.56386 0.97909 0.48877 0.0
H329 H 0.52638 0.93215 0.49574 0.0
O330 O 0.49675 0.09938 0.48879 0.0
Co331 Co 0.40958 0.07477 0.43454 0.0
Co332 Co 0.46166 0.09688 0.58842 0.0
H333 H 0.53422 0.14632 0.48181 0.0
O334 O 0.59815 0.90862 0.34939 0.0
O335 O 0.68659 1.00192 0.43121 0.0
O336 O 0.61806 0.0537 0.32017 0.0
O337 O 0.6018 0.10779 0.42104 0.0
O338 O 0.46519 0.98322 0.38757 0.0
O339 O 0.33262 0.06069 0.38334 0.0
O340 O 0.4356 0.16193 0.42372 0.0
O341 O 0.37182 0.97733 0.43129 0.0
O342 O 0.45881 0.97068 0.55651 0.0
O343 O 0.44263 1.0248 0.65743 0.0
O344 O 0.37402 0.07653 0.54639 0.0
O345 O 0.46247 0.16985 0.62818 0.0
C346 C 0.68961 0.95161 0.59121 0.0
C347 C 0.66235 0.12796 0.58704 0.0
C348 C 0.6251 0.10666 0.35253 0.0
C349 C 0.66347 0.946 0.38391 0.0
C350 C 0.37098 0.12685 0.38639 0.0
C351 C 0.39826 0.95051 0.39052 0.0
C352 C 0.43558 0.97183 0.62507 0.0
C353 C 0.39715 0.13245 0.59369 0.0
O354 O 0.72797 1.01777 0.59426 0.0
O355 O 0.62499 0.91653 0.55388 0.0
O356 O 0.59542 0.09525 0.58999 0.0
O357 O 0.68879 0.10113 0.54628 0.0
loop_
_geom_bond_atom_site_label_1
_geom_bond_atom_site_label_2
_geom_bond_distance
_geom_bond_site_symmetry_2
_ccdc_geom_bond_type
Zn0 O6 1.969 . S
Zn0 O7 1.965 . S
Zn0 O11 2.024 . S
Zn0 O16 1.969 . S
Zn1 O8 1.969 . S
Zn1 O14 1.969 . S
Zn1 O15 1.965 . S
Zn1 O17 2.024 . S
C2 O3 1.229 . S
C2 O11 1.058 . S
O3 C2 1.229 . S
C4 O5 1.229 . S
C4 O17 1.058 . S
O5 C4 1.229 . S
O6 Zn0 1.969 . S
O6 C9 1.267 . S
O7 Zn0 1.965 . S
O7 C18 1.260 . S
O8 Zn1 1.969 . S
O8 C18 1.258 . S
C9 O6 1.267 . S
C9 O10 1.228 . S
O10 C9 1.228 . S
O11 Zn0 2.024 . S
O11 C2 1.058 . S
C12 O13 1.228 . S
C12 O14 1.267 . S
O13 C12 1.228 . S
O14 Zn1 1.969 . S
O14 C12 1.267 . S
O15 Zn1 1.965 . S
O15 C19 1.260 . S
O16 Zn0 1.969 . S
O16 C19 1.258 . S
O17 Zn1 2.024 . S
O17 C4 1.058 . S
C18 O7 1.260 . S
C18 O8 1.258 . S
C19 O15 1.260 . S
C19 O16 1.258 . S
Zn20 O26 1.969 . S
Zn20 O27 1.965 . S
Zn20 O31 2.024 . S
Zn20 O36 1.969 . S
Zn21 O28 1.969 . S
Zn21 O34 1.969 . S
Zn21 O35 1.965 . S
Zn21 O37 2.024 . S
C22 O23 1.229 . S
C22 O31 1.058 . S
O23 C22 1.229 . S
C24 O25 1.229 . S
C24 O37 1.058 . S
O25 C24 1.229 . S
O26 Zn20 1.969 . S
O26 C29 1.267 . S
O27 Zn20 1.965 . S
O27 C38 1.260 . S
O28 Zn21 1.969 . S
O28 C38 1.258 . S
C29 O26 1.267 . S
C29 O30 1.228 . S
O30 C29 1.228 . S
O31 Zn20 2.024 . S
O31 C22 1.058 . S
C32 O33 1.228 . S
C32 O34 1.267 . S
O33 C32 1.228 . S
O34 Zn21 1.969 . S
O34 C32 1.267 . S
O35 Zn21 1.965 . S
O35 C39 1.260 . S
O36 Zn20 1.969 . S
O36 C39 1.258 . S
O37 Zn21 2.024 . S
O37 C24 1.058 . S
C38 O27 1.260 . S
C38 O28 1.258 . S
C39 O35 1.260 . S
C39 O36 1.258 . S
Zn40 O46 1.969 . S
Zn40 O47 1.965 . S
Zn40 O51 2.024 . S
Zn40 O56 1.969 . S
Zn41 O48 1.969 . S
Zn41 O54 1.969 . S
Zn41 O55 1.965 . S
Zn41 O57 2.024 . S
C42 O43 1.229 . S
C42 O51 1.058 . S
O43 C42 1.229 . S
C44 O45 1.229 . S
C44 O57 1.058 . S
O45 C44 1.229 . S
O46 Zn40 1.969 . S
O46 C49 1.267 . S
O47 Zn40 1.965 . S
O47 C58 1.260 . S
O48 Zn41 1.969 . S
O48 C58 1.258 . S
C49 O46 1.267 . S
C49 O50 1.228 . S
O50 C49 1.228 . S
O51 Zn40 2.024 . S
O51 C42 1.058 . S
C52 O53 1.228 . S
C52 O54 1.267 . S
O53 C52 1.228 . S
O54 Zn41 1.969 . S
O54 C52 1.267 . S
O55 Zn41 1.965 . S
O55 C59 1.260 . S
O56 Zn40 1.969 . S
O56 C59 1.258 . S
O57 Zn41 2.024 . S
O57 C44 1.058 . S
C58 O47 1.260 . S
C58 O48 1.258 . S
C59 O55 1.260 . S
C59 O56 1.258 . S
Zn60 O66 1.969 . S
Zn60 O67 1.965 . S
Zn60 O71 2.024 . S
Zn60 O76 1.969 . S
Zn61 O68 1.969 . S
Zn61 O74 1.969 . S
Zn61 O75 1.965 . S
Zn61 O77 2.024 . S
C62 O63 1.229 . S
C62 O71 1.058 . S
O63 C62 1.229 . S
C64 O65 1.229 . S
C64 O77 1.058 . S
O65 C64 1.229 . S
O66 Zn60 1.969 . S
O66 C69 1.267 . S
O67 Zn60 1.965 . S
O67 C78 1.260 . S
O68 Zn61 1.969 . S
O68 C78 1.258 . S
C69 O66 1.267 . S
C69 O70 1.228 . S
O70 C69 1.228 . S
O71 Zn60 2.024 . S
O71 C62 1.058 . S
C72 O73 1.228 . S
C72 O74 1.267 . S
O73 C72 1.228 . S
O74 Zn61 1.969 . S
O74 C72 1.267 . S
O75 Zn61 1.965 . S
O75 C79 1.260 . S
O76 Zn60 1.969 . S
O76 C79 1.258 . S
O77 Zn61 2.024 . S
O77 C64 1.058 . S
C78 O67 1.260 . S
C78 O68 1.258 . S
C79 O75 1.260 . S
C79 O76 1.258 . S
Zn80 O86 1.969 . S
Zn80 O87 1.965 . S
Zn80 O91 2.024 . S
Zn80 O96 1.969 . S
Zn81 O88 1.969 . S
Zn81 O94 1.969 . S
Zn81 O95 1.965 . S
Zn81 O97 2.024 . S
C82 O83 1.229 . S
C82 O91 1.058 . S
O83 C82 1.229 . S
C84 O85 1.229 . S
C84 O97 1.058 . S
O85 C84 1.229 . S
O86 Zn80 1.969 . S
O86 C89 1.267 . S
O87 Zn80 1.965 . S
O87 C98 1.260 . S
O88 Zn81 1.969 . S
O88 C98 1.258 . S
C89 O86 1.267 . S
C89 O90 1.228 . S
O90 C89 1.228 . S
O91 Zn80 2.024 . S
O91 C82 1.058 . S
C92 O93 1.228 . S
C92 O94 1.267 . S
O93 C92 1.228 . S
O94 Zn81 1.969 . S
O94 C92 1.267 . S
O95 Zn81 1.965 . S
O95 C99 1.260 . S
O96 Zn80 1.969 . S
O96 C99 1.258 . S
O97 Zn81 2.024 . S
O97 C84 1.058 . S
C98 O87 1.260 . S
C98 O88 1.258 . S
C99 O95 1.260 . S
C99 O96 1.258 . S
Zn100 O106 1.969 . S
Zn100 O107 1.965 . S
Zn100 O111 2.024 . S
Zn100 O116 1.969 . S
Zn101 O108 1.969 . S
Zn101 O114 1.969 . S
Zn101 O115 1.965 . S
Zn101 O117 2.024 . S
C102 O103 1.229 . S
C102 O111 1.058 . S
O103 C102 1.229 . S
C104 O105 1.229 . S
C104 O117 1.058 . S
O105 C104 1.229 . S
O106 Zn100 1.969 . S
O106 C109 1.267 . S
O107 Zn100 1.965 . S
O107 C118 1.260 . S
O108 Zn101 1.969 . S
O108 C118 1.258 . S
C109 O106 1.267 . S
C109 O110 1.228 . S
O110 C109 1.228 . S
O111 Zn100 2.024 . S
O111 C102 1.058 . S
C112 O113 1.228 . S
C112 O114 1.267 . S
O113 C112 1.228 . S
O114 Zn101 1.969 . S
O114 C112 1.267 . S
O115 Zn101 1.965 . S
O115 C119 1.260 . S
O116 Zn100 1.969 . S
O116 C119 1.258 . S
O117 Zn101 2.024 . S
O117 C104 1.058 . S
C118 O107 1.260 . S
C118 O108 1.258 . S
C119 O115 1.260 . S
C119 O116 1.258 . S
Zn120 O126 1.969 . S
Zn120 O127 1.965 . S
Zn120 O131 2.024 . S
Zn120 O136 1.969 . S
Zn121 O128 1.969 . S
Zn121 O134 1.969 . S
Zn121 O135 1.965 . S
Zn121 O137 2.024 . S
C122 O123 1.229 . S
C122 O131 1.058 . S
O123 C122 1.229 . S
C124 O125 1.229 . S
C124 O137 1.058 . S
O125 C124 1.229 . S
O126 Zn120 1.969 . S
O126 C129 1.267 . S
O127 Zn120 1.965 . S
O127 C138 1.260 . S
O128 Zn121 1.969 . S
O128 C138 1.258 . S
C129 O126 1.267 . S
C129 O130 1.228 . S
O130 C129 1.228 . S
O131 Zn120 2.024 . S
O131 C122 1.058 . S
C132 O133 1.228 . S
C132 O134 1.267 . S
O133 C132 1.228 . S
O134 Zn121 1.969 . S
O134 C132 1.267 . S
O135 Zn121 1.965 . S
O135 C139 1.260 . S
O136 Zn120 1.969 . S
O136 C139 1.258 . S
O137 Zn121 2.024 . S
O137 C124 1.058 . S
C138 O127 1.260 . S
C138 O128 1.258 . S
C139 O135 1.260 . S
C139 O136 1.258 . S
Zn140 O146 1.969 . S
Zn140 O147 1.965 . S
Zn140 O151 2.024 . S
Zn140 O156 1.969 . S
Zn141 O148 1.969 . S
Zn141 O154 1.969 . S
Zn141 O155 1.965 . S
Zn141 O157 2.024 . S
C142 O143 1.229 . S
C142 O151 1.058 . S
O143 C142 1.229 . S
C144 O145 1.229 . S
C144 O157 1.058 . S
O145 C144 1.229 . S
O146 Zn140 1.969 . S
O146 C149 1.267 . S
O147 Zn140 1.965 . S
O147 C158 1.260 . S
O148 Zn141 1.969 . S
O148 C158 1.258 . S
C149 O146 1.267 . S
C149 O150 1.228 . S
O150 C149 1.228 . S
O151 Zn140 2.024 . S
O151 C142 1.058 . S
C152 O153 1.228 . S
C152 O154 1.267 . S
O153 C152 1.228 . S
O154 Zn141 1.969 . S
O154 C152 1.267 . S
O155 Zn141 1.965 . S
O155 C159 1.260 . S
O156 Zn140 1.969 . S
O156 C159 1.258 . S
O157 Zn141 2.024 . S
O157 C144 1.058 . S
C158 O147 1.260 . S
C158 O148 1.258 . S
C159 O155 1.260 . S
C159 O156 1.258 . S
Co160 O163 2.042 . S
Co160 O170 2.264 . S
Co160 O189 2.286 . S
Co160 O190 2.069 . S
Co160 O192 2.015 1_455 S
Co161 O163 2.122 . S
Co161 O169 2.073 . S
Co161 O170 2.327 . S
Co161 O171 1.976 1_455 S
Co162 O163 2.090 1_545 S
Co162 O165 2.083 1_455 S
Co162 O172 2.107 1_445 S
Co162 O173 2.147 . S
Co162 O177 2.115 . S
Co162 O191 2.140 1_445 S
O163 Co160 2.042 . S
O163 Co161 2.122 . S
O163 Co162 2.090 1_565 S
O163 H164 0.980 . S
H164 O163 0.980 . S
O165 Co162 2.083 1_655 S
O165 Co166 2.042 . S
O165 Co167 2.122 . S
O165 H168 0.980 . S
Co166 O165 2.042 . S
Co166 O174 2.286 . S
Co166 O175 2.069 . S
Co166 O176 2.015 1_655 S
Co166 O179 2.264 . S
Co167 O165 2.122 . S
Co167 O178 1.976 1_655 S
Co167 O179 2.327 . S
Co167 O180 2.073 . S
H168 O165 0.980 . S
O169 Co161 2.073 . S
O169 C184 1.245 . S
O170 Co160 2.264 . S
O170 Co161 2.327 . S
O170 C184 1.257 . S
O171 Co161 1.976 1_655 S
O171 C183 1.251 . S
O172 Co162 2.107 1_665 S
O172 C183 1.274 . S
O173 Co162 2.147 . S
O173 C186 1.246 . S
O174 Co166 2.286 . S
O174 C185 1.259 . S
O175 Co166 2.069 . S
O175 C185 1.289 . S
O176 Co166 2.015 1_455 S
O176 C186 1.257 . S
O177 Co162 2.115 . S
O177 C187 1.274 . S
O178 Co167 1.976 1_455 S
O178 C187 1.251 . S
O179 Co166 2.264 . S
O179 Co167 2.327 . S
O179 C188 1.257 . S
O180 Co167 2.073 . S
O180 C188 1.245 . S
C181 O189 1.259 . S
C181 O190 1.289 . S
C182 O191 1.246 . S
C182 O192 1.257 . S
C183 O171 1.251 . S
C183 O172 1.274 . S
C184 O169 1.245 . S
C184 O170 1.257 . S
C185 O174 1.259 . S
C185 O175 1.289 . S
C186 O173 1.246 . S
C186 O176 1.257 . S
C187 O177 1.274 . S
C187 O178 1.251 . S
C188 O179 1.257 . S
C188 O180 1.245 . S
O189 Co160 2.286 . S
O189 C181 1.259 . S
O190 Co160 2.069 . S
O190 C181 1.289 . S
O191 Co162 2.140 1_665 S
O191 C182 1.246 . S
O192 Co160 2.015 1_655 S
O192 C182 1.257 . S
Co193 O196 2.042 1_556 S
Co193 O203 2.264 1_556 S
Co193 O222 2.286 . S
Co193 O223 2.069 . S
Co193 O225 2.015 . S
Co194 O196 2.122 . S
Co194 O202 2.073 . S
Co194 O203 2.327 . S
Co194 O204 1.976 . S
Co195 O196 2.085 1_545 S
Co195 O198 2.089 1_554 S
Co195 O205 2.111 1_545 S
Co195 O206 2.145 . S
Co195 O210 2.112 1_554 S
Co195 O224 2.142 1_544 S
O196 Co193 2.042 1_554 S
O196 Co194 2.122 . S
O196 Co195 2.085 1_565 S
O196 H197 0.980 . S
H197 O196 0.980 . S
O198 Co195 2.089 1_556 S
O198 Co199 2.042 1_556 S
O198 Co200 2.122 . S
O198 H201 0.980 . S
Co199 O198 2.042 1_554 S
Co199 O207 2.286 . S
Co199 O208 2.069 . S
Co199 O209 2.015 . S
Co199 O212 2.264 1_554 S
Co200 O198 2.122 . S
Co200 O211 1.976 . S
Co200 O212 2.327 . S
Co200 O213 2.073 . S
H201 O198 0.980 . S
O202 Co194 2.073 . S
O202 C217 1.245 . S
O203 Co193 2.264 1_554 S
O203 Co194 2.327 . S
O203 C217 1.257 . S
O204 Co194 1.976 . S
O204 C216 1.251 . S
O205 Co195 2.111 1_565 S
O205 C216 1.274 . S
O206 Co195 2.145 . S
O206 C219 1.246 . S
O207 Co199 2.286 . S
O207 C218 1.259 . S
O208 Co199 2.069 . S
O208 C218 1.289 . S
O209 Co199 2.015 . S
O209 C219 1.257 . S
O210 Co195 2.112 1_556 S
O210 C220 1.274 . S
O211 Co200 1.976 . S
O211 C220 1.251 . S
O212 Co199 2.264 1_556 S
O212 Co200 2.327 . S
O212 C221 1.257 . S
O213 Co200 2.073 . S
O213 C221 1.245 . S
C214 O222 1.259 . S
C214 O223 1.289 . S
C215 O224 1.246 . S
C215 O225 1.257 . S
C216 O204 1.251 . S
C216 O205 1.274 . S
C217 O202 1.245 . S
C217 O203 1.257 . S
C218 O207 1.259 . S
C218 O208 1.289 . S
C219 O206 1.246 . S
C219 O209 1.257 . S
C220 O210 1.274 . S
C220 O211 1.251 . S
C221 O212 1.257 . S
C221 O213 1.245 . S
O222 Co193 2.286 . S
O222 C214 1.259 . S
O223 Co193 2.069 . S
O223 C214 1.289 . S
O224 Co195 2.142 1_566 S
O224 C215 1.246 . S
O225 Co193 2.015 . S
O225 C215 1.257 . S
Co226 O229 2.042 1_556 S
Co226 O236 2.264 1_556 S
Co226 O255 2.286 . S
Co226 O256 2.069 . S
Co226 O258 2.015 1_455 S
Co227 O229 2.122 . S
Co227 O235 2.073 . S
Co227 O236 2.327 . S
Co227 O237 1.976 1_455 S
Co228 O229 2.093 . S
Co228 O231 2.081 1_454 S
Co228 O238 2.108 1_455 S
Co228 O239 2.145 . S
Co228 O243 2.115 1_554 S
Co228 O257 2.142 1_454 S
O229 Co226 2.042 1_554 S
O229 Co227 2.122 . S
O229 Co228 2.093 . S
O229 H230 0.980 . S
H230 O229 0.980 . S
O231 Co228 2.081 1_656 S
O231 Co232 2.042 1_556 S
O231 Co233 2.122 . S
O231 H234 0.980 . S
Co232 O231 2.042 1_554 S
Co232 O240 2.286 . S
Co232 O241 2.069 . S
Co232 O242 2.015 1_655 S
Co232 O245 2.264 1_554 S
Co233 O231 2.122 . S
Co233 O244 1.976 1_655 S
Co233 O245 2.327 . S
Co233 O246 2.073 . S
H234 O231 0.980 . S
O235 Co227 2.073 . S
O235 C250 1.245 . S
O236 Co226 2.264 1_554 S
O236 Co227 2.327 . S
O236 C250 1.257 . S
O237 Co227 1.976 1_655 S
O237 C249 1.251 . S
O238 Co228 2.108 1_655 S
O238 C249 1.274 . S
O239 Co228 2.145 . S
O239 C252 1.246 . S
O240 Co232 2.286 . S
O240 C251 1.259 . S
O241 Co232 2.069 . S
O241 C251 1.289 . S
O242 Co232 2.015 1_455 S
O242 C252 1.257 . S
O243 Co228 2.115 1_556 S
O243 C253 1.274 . S
O244 Co233 1.976 1_455 S
O244 C253 1.251 . S
O245 Co232 2.264 1_556 S
O245 Co233 2.327 . S
O245 C254 1.257 . S
O246 Co233 2.073 . S
O246 C254 1.245 . S
C247 O255 1.259 . S
C247 O256 1.289 . S
C248 O257 1.246 . S
C248 O258 1.257 . S
C249 O237 1.251 . S
C249 O238 1.274 . S
C250 O235 1.245 . S
C250 O236 1.257 . S
C251 O240 1.259 . S
C251 O241 1.289 . S
C252 O239 1.246 . S
C252 O242 1.257 . S
C253 O243 1.274 . S
C253 O244 1.251 . S
C254 O245 1.257 . S
C254 O246 1.245 . S
O255 Co226 2.286 . S
O255 C247 1.259 . S
O256 Co226 2.069 . S
O256 C247 1.289 . S
O257 Co228 2.142 1_656 S
O257 C248 1.246 . S
O258 Co226 2.015 1_655 S
O258 C248 1.257 . S
Co259 O262 2.042 1_556 S
Co259 O269 2.264 1_556 S
Co259 O288 2.286 . S
Co259 O289 2.069 . S
Co259 O291 2.015 . S
Co260 O262 2.122 . S
Co260 O268 2.073 . S
Co260 O269 2.327 . S
Co260 O270 1.976 . S
Co261 O262 2.087 . S
Co261 O264 2.087 1_554 S
Co261 O271 2.111 . S
Co261 O272 2.143 . S
Co261 O276 2.111 1_554 S
Co261 O290 2.143 1_554 S
O262 Co259 2.042 1_554 S
O262 Co260 2.122 . S
O262 Co261 2.087 . S
O262 H263 0.980 . S
H263 O262 0.980 . S
O264 Co261 2.087 1_556 S
O264 Co265 2.042 1_556 S
O264 Co266 2.122 . S
O264 H267 0.980 . S
Co265 O264 2.042 1_554 S
Co265 O273 2.286 . S
Co265 O274 2.069 . S
Co265 O275 2.015 . S
Co265 O278 2.264 1_554 S
Co266 O264 2.122 . S
Co266 O277 1.976 . S
Co266 O278 2.327 . S
Co266 O279 2.073 . S
H267 O264 0.980 . S
O268 Co260 2.073 . S
O268 C283 1.245 . S
O269 Co259 2.264 1_554 S
O269 Co260 2.327 . S
O269 C283 1.257 . S
O270 Co260 1.976 . S
O270 C282 1.251 . S
O271 Co261 2.111 . S
O271 C282 1.274 . S
O272 Co261 2.143 . S
O272 C285 1.246 . S
O273 Co265 2.286 . S
O273 C284 1.259 . S
O274 Co265 2.069 . S
O274 C284 1.289 . S
O275 Co265 2.015 . S
O275 C285 1.257 . S
O276 Co261 2.111 1_556 S
O276 C286 1.274 . S
O277 Co266 1.976 . S
O277 C286 1.251 . S
O278 Co265 2.264 1_556 S
O278 Co266 2.327 . S
O278 C287 1.257 . S
O279 Co266 2.073 . S
O279 C287 1.245 . S
C280 O288 1.259 . S
C280 O289 1.289 . S
C281 O290 1.246 . S
C281 O291 1.257 . S
C282 O270 1.251 . S
C282 O271 1.274 . S
C283 O268 1.245 . S
C283 O269 1.257 . S
C284 O273 1.259 . S
C284 O274 1.289 . S
C285 O272 1.246 . S
C285 O275 1.257 . S
C286 O276 1.274 . S
C286 O277 1.251 . S
C287 O278 1.257 . S
C287 O279 1.245 . S
O288 Co259 2.286 . S
O288 C280 1.259 . S
O289 Co259 2.069 . S
O289 C280 1.289 . S
O290 Co261 2.143 1_556 S
O290 C281 1.246 . S
O291 Co259 2.015 . S
O291 C281 1.257 . S
Co292 O295 2.042 . S
Co292 O302 2.264 . S
Co292 O321 2.286 . S
Co292 O322 2.069 . S
Co292 O324 2.015 . S
Co293 O295 2.122 . S
Co293 O301 2.073 . S
Co293 O302 2.327 . S
Co293 O303 1.976 . S
Co294 O295 2.093 . S
Co294 O297 2.081 1_455 S
Co294 O304 2.113 . S
Co294 O305 2.141 1_455 S
Co294 O309 2.110 1_455 S
Co294 O323 2.146 . S
O295 Co292 2.042 . S
O295 Co293 2.122 . S
O295 Co294 2.093 . S
O295 H296 0.980 . S
H296 O295 0.980 . S
O297 Co294 2.081 1_655 S
O297 Co298 2.042 . S
O297 Co299 2.122 . S
O297 H300 0.980 . S
Co298 O297 2.042 . S
Co298 O306 2.286 . S
Co298 O307 2.069 . S
Co298 O308 2.015 . S
Co298 O311 2.264 . S
Co299 O297 2.122 . S
Co299 O310 1.976 . S
Co299 O311 2.327 . S
Co299 O312 2.073 . S
H300 O297 0.980 . S
O301 Co293 2.073 . S
O301 C316 1.245 . S
O302 Co292 2.264 . S
O302 Co293 2.327 . S
O302 C316 1.257 . S
O303 Co293 1.976 . S
O303 C315 1.251 . S
O304 Co294 2.113 . S
O304 C315 1.274 . S
O305 Co294 2.141 1_655 S
O305 C318 1.246 . S
O306 Co298 2.286 . S
O306 C317 1.259 . S
O307 Co298 2.069 . S
O307 C317 1.289 . S
O308 Co298 2.015 . S
O308 C318 1.257 . S
O309 Co294 2.110 1_655 S
O309 C319 1.274 . S
O310 Co299 1.976 . S
O310 C319 1.251 . S
O311 Co298 2.264 . S
O311 Co299 2.327 . S
O311 C320 1.257 . S
O312 Co299 2.073 . S
O312 C320 1.245 . S
C313 O321 1.259 . S
C313 O322 1.289 . S
C314 O323 1.246 . S
C314 O324 1.257 . S
C315 O303 1.251 . S
C315 O304 1.274 . S
C316 O301 1.245 . S
C316 O302 1.257 . S
C317 O306 1.259 . S
C317 O307 1.289 . S
C318 O305 1.246 . S
C318 O308 1.257 . S
C319 O309 1.274 . S
C319 O310 1.251 . S
C320 O311 1.257 . S
C320 O312 1.245 . S
O321 Co292 2.286 . S
O321 C313 1.259 . S
O322 Co292 2.069 . S
O322 C313 1.289 . S
O323 Co294 2.146 . S
O323 C314 1.246 . S
O324 Co292 2.015 . S
O324 C314 1.257 . S
Co325 O328 2.042 . S
Co325 O335 2.264 . S
Co325 O354 2.286 . S
Co325 O355 2.069 . S
Co325 O357 2.015 1_565 S
Co326 O328 2.122 . S
Co326 O334 2.073 . S
Co326 O335 2.327 . S
Co326 O336 1.976 1_565 S
Co327 O328 2.085 1_545 S
Co327 O330 2.089 . S
Co327 O337 2.113 . S
Co327 O338 2.143 1_545 S
Co327 O342 2.110 1_545 S
Co327 O356 2.144 . S
O328 Co325 2.042 . S
O328 Co326 2.122 . S
O328 Co327 2.085 1_565 S
O328 H329 0.980 . S
H329 O328 0.980 . S
O330 Co327 2.089 . S
O330 Co331 2.042 . S
O330 Co332 2.122 . S
O330 H333 0.980 . S
Co331 O330 2.042 . S
Co331 O339 2.286 . S
Co331 O340 2.069 . S
Co331 O341 2.015 1_545 S
Co331 O344 2.264 . S
Co332 O330 2.122 . S
Co332 O343 1.976 1_545 S
Co332 O344 2.327 . S
Co332 O345 2.073 . S
H333 O330 0.980 . S
O334 Co326 2.073 . S
O334 C349 1.245 . S
O335 Co325 2.264 . S
O335 Co326 2.327 . S
O335 C349 1.257 . S
O336 Co326 1.976 1_545 S
O336 C348 1.251 . S
O337 Co327 2.113 . S
O337 C348 1.274 . S
O338 Co327 2.143 1_565 S
O338 C351 1.246 . S
O339 Co331 2.286 . S
O339 C350 1.259 . S
O340 Co331 2.069 . S
O340 C350 1.289 . S
O341 Co331 2.015 1_565 S
O341 C351 1.257 . S
O342 Co327 2.110 1_565 S
O342 C352 1.274 . S
O343 Co332 1.976 1_565 S
O343 C352 1.251 . S
O344 Co331 2.264 . S
O344 Co332 2.327 . S
O344 C353 1.257 . S
O345 Co332 2.073 . S
O345 C353 1.245 . S
C346 O354 1.259 . S
C346 O355 1.289 . S
C347 O356 1.246 . S
C347 O357 1.257 . S
C348 O336 1.251 . S
C348 O337 1.274 . S
C349 O334 1.245 . S
C349 O335 1.257 . S
C350 O339 1.259 . S
C350 O340 1.289 . S
C351 O338 1.246 . S
C351 O341 1.257 . S
C352 O342 1.274 . S
C352 O343 1.251 . S
C353 O344 1.257 . S
C353 O345 1.245 . S
O354 Co325 2.286 . S
O354 C346 1.259 . S
O355 Co325 2.069 . S
O355 C346 1.289 . S
O356 Co327 2.144 . S
O356 C347 1.246 . S
O357 Co325 2.015 1_545 S
O357 C347 1.257 . S
C187 C19 2.650 . S
C188 C24 1.956 . S
C182 C59 1.593 . S
C69 C181 0.773 . S
C82 C184 1.956 . S
C186 C118 1.593 . S
C132 C185 0.773 . S
C158 C183 2.651 . S
C218 C4 2.106 . S
C29 C249 1.316 . S
C217 C44 1.366 . S
C252 C79 1.308 . S
C98 C215 1.660 . S
C247 C112 1.293 . S
C122 C220 1.240 . S
C152 C254 1.078 . S
C9 C250 1.078 . S
C92 C253 1.316 . S
C221 C102 1.367 . S
C248 C138 1.309 . S
C142 C214 2.107 . S
C49 C251 1.292 . S
C216 C64 1.241 . S
C39 C219 1.659 . S
C159 C286 2.670 . S
C84 C287 1.657 . S
C281 C119 1.515 . S
C280 C129 1.129 . S
C22 C283 1.656 . S
C285 C58 1.514 . S
C72 C284 1.128 . S
C18 C282 2.669 . S
C144 C320 1.772 . S
C352 C89 0.679 . S
C104 C313 1.561 . S
C139 C347 1.983 . S
C318 C38 1.772 . S
C52 C349 1.609 . S
C315 C62 1.871 . S
C350 C12 1.882 . S
C346 C149 1.882 . S
C32 C348 0.679 . S
C42 C317 1.561 . S
C351 C78 1.983 . S
C2 C316 1.772 . S
C109 C353 1.609 . S
C319 C124 1.871 . S
C314 C99 1.772 . S
