# Generated by pormake.
# Topology the, (3,8)-cn, num edge types: 1
# Building blocks:
#     Node 0, Type 0, BuildingBlock: OLANEW_clean_sbu_2, # of connection points: 3
#     Node 1, Type 0, BuildingBlock: OLANEW_clean_sbu_2, # of connection points: 3
#     Node 2, Type 0, BuildingBlock: OLANEW_clean_sbu_2, # of connection points: 3
#     Node 3, Type 0, BuildingBlock: OLANEW_clean_sbu_2, # of connection points: 3
#     Node 4, Type 0, BuildingBlock: OLANEW_clean_sbu_2, # of connection points: 3
#     Node 5, Type 0, BuildingBlock: OLANEW_clean_sbu_2, # of connection points: 3
#     Node 6, Type 0, BuildingBlock: OLANEW_clean_sbu_2, # of connection points: 3
#     Node 7, Type 0, BuildingBlock: OLANEW_clean_sbu_2, # of connection points: 3
#     Node 8, Type 1, BuildingBlock: GIZVER_clean_sbu_0, # of connection points: 8
#     Node 9, Type 1, BuildingBlock: GIZVER_clean_sbu_0, # of connection points: 8
#     Node 10, Type 1, BuildingBlock: GIZVER_clean_sbu_0, # of connection points: 8
#     Edge 11, Type (0, 1), BuildingBlock: CIFDUS_clean_linker_0, # of connection points: 2
#     Edge 12, Type (0, 1), BuildingBlock: CIFDUS_clean_linker_0, # of connection points: 2
#     Edge 13, Type (0, 1), BuildingBlock: CIFDUS_clean_linker_0, # of connection points: 2
#     Edge 14, Type (0, 1), BuildingBlock: CIFDUS_clean_linker_0, # of connection points: 2
#     Edge 15, Type (0, 1), BuildingBlock: CIFDUS_clean_linker_0, # of connection points: 2
#     Edge 16, Type (0, 1), BuildingBlock: CIFDUS_clean_linker_0, # of connection points: 2
#     Edge 17, Type (0, 1), BuildingBlock: CIFDUS_clean_linker_0, # of connection points: 2
#     Edge 18, Type (0, 1), BuildingBlock: CIFDUS_clean_linker_0, # of connection points: 2
#     Edge 19, Type (0, 1), BuildingBlock: CIFDUS_clean_linker_0, # of connection points: 2
#     Edge 20, Type (0, 1), BuildingBlock: CIFDUS_clean_linker_0, # of connection points: 2
#     Edge 21, Type (0, 1), BuildingBlock: CIFDUS_clean_linker_0, # of connection points: 2
#     Edge 22, Type (0, 1), BuildingBlock: CIFDUS_clean_linker_0, # of connection points: 2
#     Edge 23, Type (0, 1), BuildingBlock: CIFDUS_clean_linker_0, # of connection points: 2
#     Edge 24, Type (0, 1), BuildingBlock: CIFDUS_clean_linker_0, # of connection points: 2
#     Edge 25, Type (0, 1), BuildingBlock: CIFDUS_clean_linker_0, # of connection points: 2
#     Edge 26, Type (0, 1), BuildingBlock: CIFDUS_clean_linker_0, # of connection points: 2
#     Edge 27, Type (0, 1), BuildingBlock: CIFDUS_clean_linker_0, # of connection points: 2
#     Edge 28, Type (0, 1), BuildingBlock: CIFDUS_clean_linker_0, # of connection points: 2
#     Edge 29, Type (0, 1), BuildingBlock: CIFDUS_clean_linker_0, # of connection points: 2
#     Edge 30, Type (0, 1), BuildingBlock: CIFDUS_clean_linker_0, # of connection points: 2
#     Edge 31, Type (0, 1), BuildingBlock: CIFDUS_clean_linker_0, # of connection points: 2
#     Edge 32, Type (0, 1), BuildingBlock: CIFDUS_clean_linker_0, # of connection points: 2
#     Edge 33, Type (0, 1), BuildingBlock: CIFDUS_clean_linker_0, # of connection points: 2
#     Edge 34, Type (0, 1), BuildingBlock: CIFDUS_clean_linker_0, # of connection points: 2
# Relax obj value: 0.079
# Max RMSD: 0.216
# Mean RMSD: 0.132
data_MOF--net-the--node1-OLANEW_clean_sbu_2--node2-GIZVER_clean_sbu_0--edge1-CIFDUS_clean_linker_0
_symmetry_space_group_name_H-M    P1
_symmetry_Int_Tables_number       1
_symmetry_cell_setting            triclinic
loop_
_symmetry_equiv_pos_as_xyz
'x, y, z'
_cell_length_a     39.148956
_cell_length_b     37.449026
_cell_length_c     33.460422
_cell_angle_alpha  90.935887
_cell_angle_beta   93.664891
_cell_angle_gamma 108.70896
loop_
_atom_site_label
_atom_site_type_symbol
_atom_site_fract_x
_atom_site_fract_y
_atom_site_fract_z
_atom_type_partial_charge
O0 O 0.35065 0.36861 0.33154 0.0
Cd1 Cd 0.32572 0.33797 0.39288 0.0
O2 O 0.35427 0.42553 0.35406 0.0
Cd3 Cd 0.322 0.40894 0.40588 0.0
O4 O 0.28023 0.41981 0.44028 0.0
C5 C 0.24713 0.40036 0.43302 0.0
O6 O 0.23872 0.37172 0.40693 0.0
C7 C 0.36019 0.40414 0.32731 0.0
C8 C 0.34586 0.27468 0.41444 0.0
O9 O 0.3173 0.27121 0.39163 0.0
O10 O 0.36535 0.3081 0.42654 0.0
O11 O 0.75229 0.39202 0.31201 0.0
Cd12 Cd 0.68807 0.36119 0.28867 0.0
O13 O 0.75761 0.33928 0.33548 0.0
Cd14 Cd 0.70379 0.30126 0.31568 0.0
O15 O 0.66109 0.24997 0.32992 0.0
C16 C 0.67224 0.22709 0.35044 0.0
O17 O 0.70719 0.23532 0.35911 0.0
C18 C 0.77107 0.37456 0.33084 0.0
C19 C 0.65649 0.3836 0.21976 0.0
O20 O 0.66484 0.40455 0.25191 0.0
O21 O 0.66454 0.35302 0.21937 0.0
O22 O 0.71649 0.72241 0.25341 0.0
Cd23 Cd 0.75772 0.76809 0.30261 0.0
O24 O 0.67433 0.70944 0.29642 0.0
Cd25 Cd 0.70004 0.75794 0.3379 0.0
O26 O 0.69446 0.80694 0.37028 0.0
C27 C 0.66665 0.81504 0.35752 0.0
O28 O 0.64618 0.79465 0.32728 0.0
C29 C 0.68534 0.70265 0.26304 0.0
C30 C 0.79493 0.73316 0.35473 0.0
O31 O 0.76307 0.73336 0.36115 0.0
O32 O 0.80938 0.74969 0.32383 0.0
O33 O 0.37414 0.81502 0.28815 0.0
Cd34 Cd 0.33714 0.76892 0.23661 0.0
O35 O 0.34092 0.77264 0.3256 0.0
Cd36 Cd 0.3141 0.74497 0.3771 0.0
O37 O 0.26686 0.69993 0.39425 0.0
C38 C 0.23583 0.70388 0.38914 0.0
O39 O 0.23335 0.73599 0.37628 0.0
C40 C 0.36534 0.80429 0.32294 0.0
C41 C 0.36487 0.71181 0.21528 0.0
O42 O 0.35028 0.71134 0.24854 0.0
O43 O 0.36693 0.73943 0.19242 0.0
O44 O 0.39726 0.80179 0.74743 0.0
Cd45 Cd 0.37094 0.751 0.79459 0.0
O46 O 0.34682 0.7939 0.70934 0.0
Cd47 Cd 0.30713 0.74406 0.73127 0.0
O48 O 0.25338 0.70746 0.70804 0.0
C49 C 0.23547 0.72313 0.68538 0.0
O50 O 0.24946 0.75939 0.67953 0.0
C51 C 0.38009 0.81181 0.71831 0.0
C52 C 0.41653 0.71855 0.8395 0.0
O53 O 0.41633 0.752 0.84786 0.0
O54 O 0.39619 0.70062 0.80923 0.0
O55 O 0.32817 0.31686 0.79071 0.0
Cd56 Cd 0.28875 0.28006 0.73424 0.0
O57 O 0.31381 0.36863 0.78099 0.0
Cd58 Cd 0.26924 0.34781 0.73412 0.0
O59 O 0.22757 0.35812 0.69266 0.0
C60 C 0.23956 0.38247 0.66659 0.0
O61 O 0.27477 0.39705 0.66507 0.0
C62 C 0.3326 0.35127 0.79983 0.0
C63 C 0.3213 0.23334 0.69599 0.0
O64 O 0.32788 0.26792 0.68701 0.0
O65 O 0.29913 0.22059 0.72294 0.0
O66 O 0.72596 0.37521 0.78503 0.0
Cd67 Cd 0.75516 0.3362 0.74987 0.0
O68 O 0.71707 0.33855 0.83672 0.0
Cd69 Cd 0.72344 0.29142 0.80167 0.0
O70 O 0.70135 0.24212 0.76023 0.0
C71 C 0.6889 0.24791 0.72579 0.0
O72 O 0.69183 0.28271 0.71665 0.0
C73 C 0.71645 0.36889 0.82059 0.0
C74 C 0.80698 0.37832 0.70044 0.0
O75 O 0.77478 0.36007 0.68617 0.0
O76 O 0.81468 0.37663 0.73802 0.0
O77 O 0.75432 0.7188 0.53034 0.0
Cd78 Cd 0.6979 0.72944 0.54773 0.0
O79 O 0.73665 0.68622 0.58297 0.0
Cd80 Cd 0.73955 0.64997 0.6327 0.0
O81 O 0.72431 0.62834 0.69145 0.0
C82 C 0.74185 0.64471 0.72358 0.0
O83 O 0.77133 0.67369 0.72119 0.0
C84 C 0.75874 0.69553 0.5558 0.0
C85 C 0.6761 0.79138 0.52812 0.0
O86 O 0.69934 0.79342 0.55762 0.0
O87 O 0.66518 0.76095 0.50606 0.0
Co88 Co 0.06604 0.50077 0.54266 0.0
Co89 Co 0.03375 0.48666 0.47014 0.0
Co90 Co 1.00209 0.54293 0.51511 0.0
O91 O 0.01797 0.49686 0.51972 0.0
H92 H 0.99925 0.47516 0.52837 0.0
O93 O 0.98714 0.58915 0.51034 0.0
Co94 Co 0.94031 0.58747 0.48748 0.0
Co95 Co 0.97346 0.60141 0.56012 0.0
H96 H 0.0062 0.61043 0.50149 0.0
O97 O 0.03897 0.44022 0.45669 0.0
O98 O 0.08026 0.48997 0.48918 0.0
O99 O 0.04163 0.52501 0.4309 0.0
O100 O 0.03868 0.56795 0.47599 0.0
O101 O 0.9659 0.51651 0.47009 0.0
O102 O 0.89871 0.59094 0.46613 0.0
O103 O 0.9524 0.637 0.47672 0.0
O104 O 0.92244 0.5349 0.49333 0.0
O105 O 0.96538 0.51863 0.55486 0.0
O106 O 0.9695 0.56412 0.6005 0.0
O107 O 0.92648 0.59676 0.54145 0.0
O108 O 0.96646 0.64817 0.57217 0.0
C109 C 0.09126 0.46514 0.56788 0.0
C110 C 0.07173 0.57337 0.55874 0.0
C111 C 0.04877 0.55908 0.44283 0.0
C112 C 0.07184 0.45672 0.47158 0.0
C113 C 0.91853 0.62592 0.46301 0.0
C114 C 0.93264 0.51428 0.46934 0.0
C115 C 0.96007 0.52943 0.58976 0.0
C116 C 0.93386 0.63046 0.55728 0.0
O117 O 0.10837 0.50071 0.564 0.0
O118 O 0.057 0.45137 0.55548 0.0
O119 O 0.03828 0.56955 0.5598 0.0
O120 O 0.08187 0.55291 0.53459 0.0
Co121 Co 0.53979 0.96861 0.49201 0.0
Co122 Co 0.56578 0.9978 0.56264 0.0
Co123 Co 0.50747 0.03532 0.53055 0.0
O124 O 0.54881 0.01707 0.51857 0.0
H125 H 0.56843 0.03649 0.50782 0.0
O126 O 0.46638 0.05471 0.54058 0.0
Co127 Co 0.47541 0.10602 0.55991 0.0
Co128 Co 0.4499 0.06957 0.49114 0.0
H129 H 0.44701 0.03653 0.55313 0.0
O130 O 0.61154 0.99398 0.56709 0.0
O131 O 0.56056 0.95016 0.54044 0.0
O132 O 0.53842 0.99289 0.60863 0.0
O133 O 0.48931 0.99763 0.57443 0.0
O134 O 0.54043 0.07273 0.57108 0.0
O135 O 0.47949 0.15168 0.57945 0.0
O136 O 0.43053 0.09946 0.57631 0.0
O137 O 0.52404 0.11961 0.54675 0.0
O138 O 0.52589 0.07208 0.48719 0.0
O139 O 0.4784 0.06944 0.44597 0.0
O140 O 0.46116 0.12039 0.50609 0.0
O141 O 0.40698 0.08178 0.48194 0.0
C142 C 0.56651 0.94479 0.4548 0.0
C143 C 0.47064 0.9633 0.48949 0.0
C144 C 0.50463 0.98719 0.60519 0.0
C145 C 0.59495 0.96014 0.55211 0.0
C146 C 0.44585 0.13519 0.58643 0.0
C147 C 0.54624 0.10803 0.56783 0.0
C148 C 0.51232 0.07796 0.45317 0.0
C149 C 0.42833 0.11564 0.49156 0.0
O150 O 0.53441 0.92609 0.46513 0.0
O151 O 0.58283 0.97905 0.46944 0.0
O152 O 0.47486 0.99845 0.48982 0.0
O153 O 0.49296 0.95185 0.51051 0.0
Co154 Co 0.48063 0.54364 0.08938 0.0
Co155 Co 0.46962 0.47493 0.06815 0.0
Co156 Co 0.52734 0.5295 0.01225 0.0
O157 O 0.48182 0.51872 0.04011 0.0
H158 H 0.46176 0.51834 0.02147 0.0
O159 O 0.57249 0.53904 0.98397 0.0
Co160 Co 0.57067 0.51518 0.93259 0.0
Co161 Co 0.58792 0.58525 0.95973 0.0
H162 H 0.5921 0.53671 1.00163 0.0
O163 O 0.42264 0.44857 0.07839 0.0
O164 O 0.46305 0.49486 0.11725 0.0
O165 O 0.50653 0.45153 0.07673 0.0
O166 O 0.5482 0.49647 0.04716 0.0
O167 O 0.50032 0.48581 0.97445 0.0
O168 O 0.57368 0.49263 0.88633 0.0
O169 O 0.61573 0.51193 0.9383 0.0
O170 O 0.52259 0.51413 0.92022 0.0
O171 O 0.50736 0.56404 0.97756 0.0
O172 O 0.55318 0.61174 0.95711 0.0
O173 O 0.58752 0.5648 0.90866 0.0
O174 O 0.63509 0.60682 0.94217 0.0
C175 C 0.44489 0.56555 0.11356 0.0
C176 C 0.55475 0.57003 0.08856 0.0
C177 C 0.53901 0.46747 0.06875 0.0
C178 C 0.43264 0.46699 0.11268 0.0
C179 C 0.60531 0.49502 0.9031 0.0
C180 C 0.49715 0.49059 0.93697 0.0
C181 C 0.51967 0.59614 0.96124 0.0
C182 C 0.62066 0.587 0.90961 0.0
O183 O 0.47553 0.56851 0.13323 0.0
O184 O 0.43568 0.54559 0.07993 0.0
O185 O 0.55408 0.57288 0.05053 0.0
O186 O 0.52863 0.54641 0.10446 0.0
H187 H 0.17435 0.36592 0.42237 0.0
H188 H 0.25505 0.4635 0.48001 0.0
H189 H 0.20773 0.48861 0.49887 0.0
H190 H 0.14396 0.48568 0.49351 0.0
H191 H 0.06327 0.38756 0.43685 0.0
H192 H 0.11015 0.36014 0.42279 0.0
C193 C 0.18163 0.3925 0.43942 0.0
C194 C 0.21829 0.41299 0.44921 0.0
C195 C 0.15431 0.40697 0.44991 0.0
C196 C 0.22711 0.4472 0.47174 0.0
C197 C 0.20005 0.4617 0.48243 0.0
C198 C 0.13652 0.45804 0.47862 0.0
C199 C 0.1001 0.43886 0.4661 0.0
C200 C 0.16364 0.44227 0.47081 0.0
C201 C 0.09107 0.40313 0.44666 0.0
C202 C 0.11788 0.38736 0.43861 0.0
H203 H 0.59857 0.20042 0.33759 0.0
H204 H 0.68836 0.17906 0.40293 0.0
H205 H 0.64666 0.1286 0.43769 0.0
H206 H 0.58501 0.09419 0.45384 0.0
H207 H 0.49477 0.11507 0.38908 0.0
H208 H 0.53633 0.16148 0.34942 0.0
C209 C 0.60901 0.18447 0.35914 0.0
C210 C 0.64657 0.19391 0.36795 0.0
C211 C 0.58481 0.15539 0.37923 0.0
C212 C 0.65961 0.17267 0.39568 0.0
C213 C 0.63578 0.14377 0.41568 0.0
C214 C 0.57435 0.10853 0.43072 0.0
C215 C 0.53683 0.10141 0.42481 0.0
C216 C 0.59836 0.13544 0.40833 0.0
C217 C 0.52352 0.11998 0.39437 0.0
C218 C 0.5473 0.14673 0.3718 0.0
H219 H 0.86681 0.74153 0.36107 0.0
H220 H 0.76544 0.68001 0.40844 0.0
H221 H 0.79526 0.64274 0.44795 0.0
H222 H 0.84906 0.62416 0.46466 0.0
H223 H 0.95124 0.68773 0.42075 0.0
H224 H 0.92222 0.72776 0.38422 0.0
C225 C 0.8513 0.72007 0.38017 0.0
C226 C 0.81384 0.71311 0.38127 0.0
C227 C 0.86869 0.69896 0.40314 0.0
C228 C 0.79424 0.68575 0.4068 0.0
C229 C 0.81124 0.66433 0.42931 0.0
C230 C 0.865 0.64699 0.44732 0.0
C231 C 0.90207 0.65271 0.44478 0.0
C232 C 0.84826 0.67014 0.42701 0.0
C233 C 0.92261 0.68277 0.42295 0.0
C234 C 0.906 0.70552 0.40197 0.0
H235 H 0.38704 0.88047 0.32913 0.0
H236 H 0.38188 0.78233 0.39708 0.0
H237 H 0.41321 0.8228 0.45533 0.0
H238 H 0.44433 0.88646 0.48595 0.0
H239 H 0.44579 0.98423 0.41866 0.0
H240 H 0.41344 0.94365 0.3614 0.0
C241 C 0.3927 0.86801 0.35678 0.0
C242 C 0.3824 0.82856 0.35883 0.0
C243 C 0.41003 0.89141 0.39028 0.0
C244 C 0.38939 0.81266 0.39491 0.0
C245 C 0.40743 0.83579 0.42814 0.0
C246 C 0.43726 0.89881 0.45885 0.0
C247 C 0.44767 0.93832 0.45657 0.0
C248 C 0.41815 0.87524 0.42606 0.0
C249 C 0.43805 0.95394 0.42136 0.0
C250 C 0.41969 0.93075 0.38846 0.0
H251 H 0.20086 0.64729 0.68674 0.0
H252 H 0.19286 0.74866 0.63317 0.0
H253 H 0.13939 0.71164 0.59153 0.0
H254 H 0.09723 0.64966 0.5665 0.0
H255 H 0.10599 0.54864 0.6194 0.0
H256 H 0.15647 0.58608 0.66512 0.0
C257 C 0.18724 0.66135 0.66626 0.0
C258 C 0.20111 0.70069 0.66296 0.0
C259 C 0.15662 0.63984 0.64205 0.0
C260 C 0.18296 0.71839 0.63628 0.0
C261 C 0.15233 0.69724 0.61235 0.0
C262 C 0.10994 0.63611 0.58856 0.0
C263 C 0.09839 0.59663 0.58955 0.0
C264 C 0.13925 0.65787 0.61446 0.0
C265 C 0.11499 0.57906 0.61786 0.0
C266 C 0.14374 0.60045 0.64404 0.0
H267 H 0.38012 0.25593 0.65247 0.0
H268 H 0.30315 0.15634 0.69567 0.0
H269 H 0.3337 0.11673 0.66414 0.0
H270 H 0.38347 0.11057 0.62532 0.0
H271 H 0.46206 0.21124 0.58619 0.0
H272 H 0.42964 0.25 0.61473 0.0
C273 C 0.36989 0.22554 0.65485 0.0
C274 C 0.33934 0.20916 0.67632 0.0
C275 C 0.38797 0.20304 0.63733 0.0
C276 C 0.32668 0.16972 0.67939 0.0
C277 C 0.34412 0.14703 0.66132 0.0
C278 C 0.39336 0.14096 0.62298 0.0
C279 C 0.42516 0.15791 0.60364 0.0
C280 C 0.37496 0.16339 0.64038 0.0
C281 C 0.43778 0.19739 0.60107 0.0
C282 C 0.41923 0.21967 0.61736 0.0
H283 H 0.86858 0.43533 0.7234 0.0
H284 H 0.80633 0.37279 0.61898 0.0
H285 H 0.85032 0.41185 0.57567 0.0
H286 H 0.90482 0.46586 0.56727 0.0
H287 H 0.96418 0.53161 0.67131 0.0
H288 H 0.92326 0.48903 0.71504 0.0
C289 C 0.8648 0.43007 0.69118 0.0
C290 C 0.83426 0.4012 0.67442 0.0
C291 C 0.88972 0.45322 0.66643 0.0
C292 C 0.82953 0.39496 0.6326 0.0
C293 C 0.85471 0.41723 0.60783 0.0
C294 C 0.90908 0.47047 0.59955 0.0
C295 C 0.93757 0.50161 0.61614 0.0
C296 C 0.88471 0.44668 0.62438 0.0
C297 C 0.94242 0.50776 0.65794 0.0
C298 C 0.919 0.48349 0.68291 0.0
H299 H 0.70051 0.86302 0.56016 0.0
H300 H 0.61313 0.78673 0.48482 0.0
H301 H 0.57974 0.83176 0.48616 0.0
H302 H 0.5732 0.89048 0.51365 0.0
H303 H 0.66297 0.96886 0.58428 0.0
H304 H 0.69701 0.92484 0.58079 0.0
C305 C 0.67436 0.85642 0.54362 0.0
C306 C 0.65915 0.82133 0.52292 0.0
C307 C 0.65531 0.88245 0.54443 0.0
C308 C 0.62545 0.81348 0.50115 0.0
C309 C 0.60614 0.83906 0.50222 0.0
C310 C 0.60031 0.89813 0.52798 0.0
C311 C 0.61535 0.93302 0.54923 0.0
C312 C 0.62041 0.87322 0.52466 0.0
C313 C 0.65058 0.94227 0.56767 0.0
C314 C 0.6702 0.91715 0.56562 0.0
H315 H 0.40586 0.27306 0.45979 0.0
H316 H 0.30782 0.20041 0.39702 0.0
H317 H 0.32361 0.14495 0.41703 0.0
H318 H 0.3659 0.1169 0.45103 0.0
H319 H 0.46501 0.18972 0.51162 0.0
H320 H 0.44787 0.24497 0.49436 0.0
C321 C 0.3879 0.24511 0.45049 0.0
C322 C 0.35573 0.24105 0.42678 0.0
C323 C 0.39725 0.21322 0.46193 0.0
C324 C 0.33282 0.20451 0.41511 0.0
C325 C 0.3418 0.1727 0.42662 0.0
C326 C 0.38367 0.14482 0.46072 0.0
C327 C 0.41664 0.14897 0.48286 0.0
C328 C 0.37401 0.17669 0.44988 0.0
C329 C 0.43938 0.18551 0.4948 0.0
C330 C 0.42967 0.21724 0.48477 0.0
H331 H 0.80529 0.45079 0.33646 0.0
H332 H 0.81711 0.34523 0.37345 0.0
H333 H 0.87035 0.37906 0.41713 0.0
H334 H 0.91012 0.43882 0.45049 0.0
H335 H 0.89808 0.54381 0.41302 0.0
H336 H 0.84876 0.51031 0.36423 0.0
C337 C 0.81982 0.43515 0.35352 0.0
C338 C 0.80679 0.39547 0.35184 0.0
C339 C 0.85025 0.45477 0.37915 0.0
C340 C 0.82622 0.37579 0.37422 0.0
C341 C 0.85671 0.39511 0.39942 0.0
C342 C 0.89696 0.45422 0.43114 0.0
C343 C 0.9069 0.49361 0.43608 0.0
C344 C 0.86844 0.4346 0.403 0.0
C345 C 0.8899 0.51339 0.41079 0.0
C346 C 0.86191 0.49424 0.38259 0.0
H347 H 0.60534 0.83188 0.34103 0.0
H348 H 0.70348 0.86556 0.41871 0.0
H349 H 0.68334 0.91311 0.45243 0.0
H350 H 0.63578 0.9426 0.4621 0.0
H351 H 0.53546 0.90251 0.38858 0.0
H352 H 0.55903 0.86101 0.34993 0.0
C353 C 0.6226 0.84979 0.36508 0.0
C354 C 0.65591 0.84518 0.37721 0.0
C355 C 0.61056 0.87632 0.38475 0.0
C356 C 0.67771 0.86855 0.40869 0.0
C357 C 0.66625 0.8958 0.42792 0.0
C358 C 0.61947 0.92518 0.43717 0.0
C359 C 0.58402 0.92553 0.42801 0.0
C360 C 0.6325 0.89971 0.41645 0.0
C361 C 0.56286 0.90263 0.39602 0.0
C362 C 0.57621 0.87875 0.37412 0.0
H363 H 0.16815 0.70687 0.39749 0.0
H364 H 0.22945 0.62952 0.39498 0.0
H365 H 0.17511 0.57688 0.40531 0.0
H366 H 0.11117 0.55334 0.41919 0.0
H367 H 0.05114 0.63114 0.4286 0.0
H368 H 0.10369 0.68305 0.41046 0.0
C369 C 0.16956 0.67846 0.39902 0.0
C370 C 0.20282 0.67215 0.39562 0.0
C371 C 0.13832 0.64839 0.40572 0.0
C372 C 0.20426 0.63521 0.39787 0.0
C373 C 0.17316 0.60504 0.40354 0.0
C374 C 0.10935 0.5815 0.41611 0.0
C375 C 0.07724 0.58845 0.42424 0.0
C376 C 0.14014 0.61135 0.40784 0.0
C377 C 0.07549 0.6252 0.42171 0.0
C378 C 0.10559 0.65485 0.41177 0.0
H379 H 0.44492 0.86787 0.73578 0.0
H380 H 0.35542 0.82996 0.64602 0.0
H381 H 0.38376 0.88315 0.60527 0.0
H382 H 0.4356 0.93874 0.59286 0.0
H383 H 0.52541 0.97655 0.68207 0.0
H384 H 0.49509 0.92594 0.72525 0.0
C385 C 0.43164 0.87124 0.70732 0.0
C386 C 0.39818 0.84461 0.69402 0.0
C387 C 0.448 0.90225 0.68389 0.0
C388 C 0.38122 0.84983 0.65715 0.0
C389 C 0.39737 0.88037 0.63372 0.0
C390 C 0.44812 0.93646 0.62216 0.0
C391 C 0.48272 0.96149 0.63414 0.0
C392 C 0.43088 0.90666 0.64659 0.0
C393 C 0.49878 0.95768 0.67202 0.0
C394 C 0.48157 0.92855 0.69669 0.0
H395 H 0.16503 0.36007 0.66135 0.0
H396 H 0.25918 0.43937 0.61493 0.0
H397 H 0.22119 0.47009 0.57904 0.0
H398 H 0.16258 0.47818 0.56528 0.0
H399 H 0.06687 0.39868 0.60768 0.0
H400 H 0.10412 0.36427 0.64074 0.0
C401 C 0.17715 0.38383 0.64307 0.0
C402 C 0.21509 0.39767 0.64146 0.0
C403 C 0.15496 0.40155 0.6221 0.0
C404 C 0.23023 0.42823 0.61718 0.0
C405 C 0.20851 0.44596 0.59661 0.0
C406 C 0.14967 0.45306 0.58135 0.0
C407 C 0.11205 0.44123 0.58442 0.0
C408 C 0.17105 0.43342 0.59961 0.0
C409 C 0.0958 0.40839 0.60498 0.0
C410 C 0.11713 0.38885 0.62397 0.0
H411 H 0.66087 0.25225 0.65068 0.0
H412 H 0.66924 0.1719 0.73861 0.0
H413 H 0.62844 0.12041 0.69545 0.0
H414 H 0.58581 0.0991 0.63523 0.0
H415 H 0.57671 0.18101 0.54941 0.0
H416 H 0.62251 0.23077 0.58906 0.0
C417 C 0.65411 0.22346 0.66035 0.0
C418 C 0.66781 0.21606 0.69804 0.0
C419 C 0.63027 0.19418 0.63576 0.0
C420 C 0.65895 0.17847 0.70981 0.0
C421 C 0.63552 0.14899 0.68518 0.0
C422 C 0.59434 0.12773 0.62496 0.0
C423 C 0.57761 0.13637 0.58961 0.0
C424 C 0.62035 0.15661 0.64844 0.0
C425 C 0.58885 0.17364 0.57673 0.0
C426 C 0.61505 0.20218 0.59938 0.0
H427 H 0.8305 0.73059 0.54657 0.0
H428 H 0.75127 0.62184 0.56068 0.0
H429 H 0.79823 0.59185 0.56064 0.0
H430 H 0.86197 0.59667 0.55914 0.0
H431 H 0.94267 0.70562 0.55141 0.0
H432 H 0.89532 0.73553 0.54656 0.0
C433 C 0.82369 0.70034 0.54937 0.0
C434 C 0.78763 0.67834 0.55362 0.0
C435 C 0.85113 0.68344 0.55085 0.0
C436 C 0.77897 0.63925 0.55762 0.0
C437 C 0.80577 0.62212 0.5576 0.0
C438 C 0.86916 0.62698 0.55651 0.0
C439 C 0.90566 0.64896 0.55585 0.0
C440 C 0.84196 0.64396 0.55478 0.0
C441 C 0.9147 0.6882 0.5525 0.0
C442 C 0.88764 0.70525 0.54949 0.0
H443 H 0.34977 0.37203 0.25202 0.0
H444 H 0.40742 0.47476 0.32028 0.0
H445 H 0.43374 0.50403 0.25977 0.0
H446 H 0.4411 0.50016 0.1875 0.0
H447 H 0.38094 0.39838 0.11867 0.0
H448 H 0.35448 0.36944 0.17902 0.0
C449 C 0.3683 0.40071 0.25364 0.0
C450 C 0.37699 0.42101 0.29066 0.0
C451 C 0.38261 0.41774 0.2185 0.0
C452 C 0.40044 0.45846 0.29216 0.0
C453 C 0.41544 0.47526 0.25756 0.0
C454 C 0.42199 0.47175 0.18563 0.0
C455 C 0.41327 0.45149 0.14853 0.0
C456 C 0.40673 0.45518 0.22054 0.0
C457 C 0.38817 0.41478 0.1467 0.0
C458 C 0.37316 0.39803 0.18132 0.0
H459 H 0.40123 0.64469 0.85852 0.0
H460 H 0.48281 0.75386 0.8771 0.0
H461 H 0.52133 0.72601 0.91753 0.0
H462 H 0.53267 0.67035 0.94601 0.0
H463 H 0.44934 0.56187 0.93239 0.0
H464 H 0.41052 0.58967 0.89228 0.0
C465 C 0.42749 0.66229 0.87139 0.0
C466 C 0.4394 0.70122 0.86433 0.0
C467 C 0.44906 0.64623 0.89575 0.0
C468 C 0.47312 0.72384 0.88191 0.0
C469 C 0.49514 0.70791 0.90507 0.0
C470 C 0.50587 0.65282 0.9346 0.0
C471 C 0.49414 0.61394 0.94193 0.0
C472 C 0.48349 0.66913 0.91204 0.0
C473 C 0.45913 0.59182 0.92727 0.0
C474 C 0.43697 0.60769 0.90409 0.0
H475 H 0.36627 0.42677 0.80787 0.0
H476 H 0.36283 0.3221 0.86207 0.0
H477 H 0.4111 0.35639 0.91222 0.0
H478 H 0.45673 0.41624 0.93856 0.0
H479 H 0.46345 0.51932 0.87919 0.0
H480 H 0.41128 0.48583 0.83369 0.0
C481 C 0.37582 0.41145 0.83087 0.0
C482 C 0.36085 0.37193 0.83128 0.0
C483 C 0.40423 0.4312 0.8588 0.0
C484 C 0.37395 0.35251 0.861 0.0
C485 C 0.40152 0.37212 0.88972 0.0
C486 C 0.44632 0.4313 0.91599 0.0
C487 C 0.46357 0.47021 0.91243 0.0
C488 C 0.41717 0.41147 0.88868 0.0
C489 C 0.45043 0.48939 0.88258 0.0
C490 C 0.4207 0.47024 0.85647 0.0
H491 H 0.68199 0.41497 0.78822 0.0
H492 H 0.71845 0.3813 0.90142 0.0
H493 H 0.6907 0.42115 0.93722 0.0
H494 H 0.65205 0.46184 0.93621 0.0
H495 H 0.60992 0.48914 0.82274 0.0
H496 H 0.64417 0.45612 0.78718 0.0
C497 C 0.68428 0.41679 0.82073 0.0
C498 C 0.70232 0.39536 0.84217 0.0
C499 C 0.6671 0.4386 0.84105 0.0
C500 C 0.7046 0.39749 0.88428 0.0
C501 C 0.68874 0.42026 0.90474 0.0
C502 C 0.65089 0.46099 0.90372 0.0
C503 C 0.62879 0.47813 0.8821 0.0
C504 C 0.66936 0.44042 0.88345 0.0
C505 C 0.62689 0.47627 0.84002 0.0
C506 C 0.64637 0.45729 0.81967 0.0
H507 H 0.67733 0.59315 0.73712 0.0
H508 H 0.7719 0.67349 0.79826 0.0
H509 H 0.74366 0.66127 0.86192 0.0
H510 H 0.69028 0.63073 0.89945 0.0
H511 H 0.59513 0.55283 0.83644 0.0
H512 H 0.62556 0.56097 0.77461 0.0
C513 C 0.692 0.60775 0.76439 0.0
C514 C 0.7266 0.63437 0.7628 0.0
C515 C 0.67538 0.60117 0.80067 0.0
C516 C 0.74515 0.65295 0.79853 0.0
C517 C 0.72898 0.64606 0.83498 0.0
C518 C 0.6763 0.61541 0.87224 0.0
C519 C 0.64044 0.59118 0.87276 0.0
C520 C 0.69379 0.62075 0.83628 0.0
C521 C 0.62276 0.57156 0.83714 0.0
C522 C 0.64011 0.57625 0.8016 0.0
H523 H 0.68715 0.6944 0.18166 0.0
H524 H 0.62803 0.6438 0.28216 0.0
H525 H 0.58405 0.59728 0.23716 0.0
H526 H 0.56033 0.57313 0.1697 0.0
H527 H 0.61677 0.62422 0.0678 0.0
H528 H 0.66391 0.6682 0.11294 0.0
C529 C 0.66487 0.6729 0.19368 0.0
C530 C 0.66088 0.6727 0.23528 0.0
C531 C 0.63905 0.64648 0.16741 0.0
C532 C 0.63167 0.64481 0.25032 0.0
C533 C 0.60647 0.61815 0.2246 0.0
C534 C 0.583 0.59368 0.15714 0.0
C535 C 0.5848 0.59543 0.11529 0.0
C536 C 0.60956 0.6191 0.18312 0.0
C537 C 0.61455 0.62231 0.09985 0.0
C538 C 0.64151 0.64749 0.12568 0.0
H539 H 0.36074 0.68033 0.1411 0.0
H540 H 0.39976 0.67472 0.26345 0.0
H541 H 0.4263 0.62674 0.24334 0.0
H542 H 0.44154 0.58939 0.18998 0.0
H543 H 0.39858 0.59186 0.06845 0.0
H544 H 0.36975 0.63742 0.08926 0.0
C545 C 0.37497 0.66844 0.16329 0.0
C546 C 0.37892 0.68134 0.20351 0.0
C547 C 0.38921 0.64019 0.15168 0.0
C548 C 0.39665 0.66526 0.23225 0.0
C549 C 0.41181 0.6379 0.22076 0.0
C550 C 0.42542 0.59953 0.16822 0.0
C551 C 0.42243 0.58756 0.1277 0.0
C552 C 0.40866 0.62552 0.18046 0.0
C553 C 0.40116 0.60054 0.09985 0.0
C554 C 0.38492 0.62685 0.11165 0.0
H555 H 0.6627 0.45272 0.19069 0.0
H556 H 0.60188 0.33459 0.17285 0.0
H557 H 0.56066 0.34946 0.1227 0.0
H558 H 0.53897 0.39683 0.08796 0.0
H559 H 0.60311 0.5144 0.10143 0.0
H560 H 0.6461 0.4991 0.14863 0.0
C561 C 0.6407 0.43027 0.17536 0.0
C562 C 0.63509 0.39268 0.18566 0.0
C563 C 0.61764 0.43897 0.1458 0.0
C564 C 0.60677 0.36376 0.16532 0.0
C565 C 0.58308 0.37226 0.13679 0.0
C566 C 0.56274 0.41892 0.1007 0.0
C567 C 0.56777 0.45667 0.09133 0.0
C568 C 0.58782 0.40984 0.12733 0.0
C569 C 0.59877 0.48507 0.10788 0.0
C570 C 0.62325 0.47639 0.13516 0.0
loop_
_geom_bond_atom_site_label_1
_geom_bond_atom_site_label_2
_geom_bond_distance
_geom_bond_site_symmetry_2
_ccdc_geom_bond_type
O0 Cd1 2.300 . S
O0 C7 1.275 . S
Cd1 O0 2.300 . S
Cd1 O9 2.381 . S
Cd1 O10 2.378 . S
O2 Cd3 2.385 . S
O2 C7 1.255 . S
Cd3 O2 2.385 . S
Cd3 O4 2.317 . S
O4 Cd3 2.317 . S
O4 C5 1.232 . S
C5 O4 1.232 . S
C5 O6 1.218 . S
O6 C5 1.218 . S
C7 O0 1.275 . S
C7 O2 1.255 . S
C8 O9 1.258 . S
C8 O10 1.256 . S
O9 Cd1 2.381 . S
O9 C8 1.258 . S
O10 Cd1 2.378 . S
O10 C8 1.256 . S
O11 Cd12 2.300 . S
O11 C18 1.275 . S
Cd12 O11 2.300 . S
Cd12 O20 2.381 . S
Cd12 O21 2.378 . S
O13 Cd14 2.385 . S
O13 C18 1.255 . S
Cd14 O13 2.385 . S
Cd14 O15 2.317 . S
O15 Cd14 2.317 . S
O15 C16 1.232 . S
C16 O15 1.232 . S
C16 O17 1.218 . S
O17 C16 1.218 . S
C18 O11 1.275 . S
C18 O13 1.255 . S
C19 O20 1.258 . S
C19 O21 1.256 . S
O20 Cd12 2.381 . S
O20 C19 1.258 . S
O21 Cd12 2.378 . S
O21 C19 1.256 . S
O22 Cd23 2.300 . S
O22 C29 1.275 . S
Cd23 O22 2.300 . S
Cd23 O31 2.381 . S
Cd23 O32 2.378 . S
O24 Cd25 2.385 . S
O24 C29 1.255 . S
Cd25 O24 2.385 . S
Cd25 O26 2.317 . S
O26 Cd25 2.317 . S
O26 C27 1.232 . S
C27 O26 1.232 . S
C27 O28 1.218 . S
O28 C27 1.218 . S
C29 O22 1.275 . S
C29 O24 1.255 . S
C30 O31 1.258 . S
C30 O32 1.256 . S
O31 Cd23 2.381 . S
O31 C30 1.258 . S
O32 Cd23 2.378 . S
O32 C30 1.256 . S
O33 Cd34 2.300 . S
O33 C40 1.275 . S
Cd34 O33 2.300 . S
Cd34 O42 2.381 . S
Cd34 O43 2.378 . S
O35 Cd36 2.385 . S
O35 C40 1.255 . S
Cd36 O35 2.385 . S
Cd36 O37 2.317 . S
O37 Cd36 2.317 . S
O37 C38 1.232 . S
C38 O37 1.232 . S
C38 O39 1.218 . S
O39 C38 1.218 . S
C40 O33 1.275 . S
C40 O35 1.255 . S
C41 O42 1.258 . S
C41 O43 1.256 . S
O42 Cd34 2.381 . S
O42 C41 1.258 . S
O43 Cd34 2.378 . S
O43 C41 1.256 . S
O44 Cd45 2.300 . S
O44 C51 1.275 . S
Cd45 O44 2.300 . S
Cd45 O53 2.381 . S
Cd45 O54 2.378 . S
O46 Cd47 2.385 . S
O46 C51 1.255 . S
Cd47 O46 2.385 . S
Cd47 O48 2.317 . S
O48 Cd47 2.317 . S
O48 C49 1.232 . S
C49 O48 1.232 . S
C49 O50 1.218 . S
O50 C49 1.218 . S
C51 O44 1.275 . S
C51 O46 1.255 . S
C52 O53 1.258 . S
C52 O54 1.256 . S
O53 Cd45 2.381 . S
O53 C52 1.258 . S
O54 Cd45 2.378 . S
O54 C52 1.256 . S
O55 Cd56 2.300 . S
O55 C62 1.275 . S
Cd56 O55 2.300 . S
Cd56 O64 2.381 . S
Cd56 O65 2.378 . S
O57 Cd58 2.385 . S
O57 C62 1.255 . S
Cd58 O57 2.385 . S
Cd58 O59 2.317 . S
O59 Cd58 2.317 . S
O59 C60 1.232 . S
C60 O59 1.232 . S
C60 O61 1.218 . S
O61 C60 1.218 . S
C62 O55 1.275 . S
C62 O57 1.255 . S
C63 O64 1.258 . S
C63 O65 1.256 . S
O64 Cd56 2.381 . S
O64 C63 1.258 . S
O65 Cd56 2.378 . S
O65 C63 1.256 . S
O66 Cd67 2.300 . S
O66 C73 1.275 . S
Cd67 O66 2.300 . S
Cd67 O75 2.381 . S
Cd67 O76 2.378 . S
O68 Cd69 2.385 . S
O68 C73 1.255 . S
Cd69 O68 2.385 . S
Cd69 O70 2.317 . S
O70 Cd69 2.317 . S
O70 C71 1.232 . S
C71 O70 1.232 . S
C71 O72 1.218 . S
O72 C71 1.218 . S
C73 O66 1.275 . S
C73 O68 1.255 . S
C74 O75 1.258 . S
C74 O76 1.256 . S
O75 Cd67 2.381 . S
O75 C74 1.258 . S
O76 Cd67 2.378 . S
O76 C74 1.256 . S
O77 Cd78 2.300 . S
O77 C84 1.275 . S
Cd78 O77 2.300 . S
Cd78 O86 2.381 . S
Cd78 O87 2.378 . S
O79 Cd80 2.385 . S
O79 C84 1.255 . S
Cd80 O79 2.385 . S
Cd80 O81 2.317 . S
O81 Cd80 2.317 . S
O81 C82 1.232 . S
C82 O81 1.232 . S
C82 O83 1.218 . S
O83 C82 1.218 . S
C84 O77 1.275 . S
C84 O79 1.255 . S
C85 O86 1.258 . S
C85 O87 1.256 . S
O86 Cd78 2.381 . S
O86 C85 1.258 . S
O87 Cd78 2.378 . S
O87 C85 1.256 . S
Co88 O91 2.042 . S
Co88 O98 2.264 . S
Co88 O117 2.286 . S
Co88 O118 2.069 . S
Co88 O120 2.015 . S
Co89 O91 2.122 . S
Co89 O97 2.073 . S
Co89 O98 2.327 . S
Co89 O99 1.976 . S
Co90 O91 2.087 . S
Co90 O93 2.087 1_455 S
Co90 O100 2.111 . S
Co90 O101 2.143 1_455 S
Co90 O105 2.111 1_455 S
Co90 O119 2.143 . S
O91 Co88 2.042 . S
O91 Co89 2.122 . S
O91 Co90 2.087 . S
O91 H92 0.980 . S
H92 O91 0.980 . S
O93 Co90 2.087 1_655 S
O93 Co94 2.042 . S
O93 Co95 2.122 . S
O93 H96 0.980 1_655 S
Co94 O93 2.042 . S
Co94 O102 2.286 . S
Co94 O103 2.069 . S
Co94 O104 2.015 . S
Co94 O107 2.264 . S
Co95 O93 2.122 . S
Co95 O106 1.976 . S
Co95 O107 2.327 . S
Co95 O108 2.073 . S
H96 O93 0.980 1_455 S
O97 Co89 2.073 . S
O97 C112 1.245 . S
O98 Co88 2.264 . S
O98 Co89 2.327 . S
O98 C112 1.257 . S
O99 Co89 1.976 . S
O99 C111 1.251 . S
O100 Co90 2.111 . S
O100 C111 1.274 . S
O101 Co90 2.143 1_655 S
O101 C114 1.246 . S
O102 Co94 2.286 . S
O102 C113 1.259 . S
O103 Co94 2.069 . S
O103 C113 1.289 . S
O104 Co94 2.015 . S
O104 C114 1.257 . S
O105 Co90 2.111 1_655 S
O105 C115 1.274 . S
O106 Co95 1.976 . S
O106 C115 1.251 . S
O107 Co94 2.264 . S
O107 Co95 2.327 . S
O107 C116 1.257 . S
O108 Co95 2.073 . S
O108 C116 1.245 . S
C109 O117 1.259 . S
C109 O118 1.289 . S
C110 O119 1.246 . S
C110 O120 1.257 . S
C111 O99 1.251 . S
C111 O100 1.274 . S
C112 O97 1.245 . S
C112 O98 1.257 . S
C113 O102 1.259 . S
C113 O103 1.289 . S
C114 O101 1.246 . S
C114 O104 1.257 . S
C115 O105 1.274 . S
C115 O106 1.251 . S
C116 O107 1.257 . S
C116 O108 1.245 . S
O117 Co88 2.286 . S
O117 C109 1.259 . S
O118 Co88 2.069 . S
O118 C109 1.289 . S
O119 Co90 2.143 . S
O119 C110 1.246 . S
O120 Co88 2.015 . S
O120 C110 1.257 . S
Co121 O124 2.042 . S
Co121 O131 2.264 . S
Co121 O150 2.286 . S
Co121 O151 2.069 . S
Co121 O153 2.015 . S
Co122 O124 2.122 . S
Co122 O130 2.073 . S
Co122 O131 2.327 . S
Co122 O132 1.976 . S
Co123 O124 2.087 1_545 S
Co123 O126 2.087 . S
Co123 O133 2.111 1_545 S
Co123 O134 2.143 . S
Co123 O138 2.111 . S
Co123 O152 2.143 1_545 S
O124 Co121 2.042 . S
O124 Co122 2.122 . S
O124 Co123 2.087 1_565 S
O124 H125 0.980 1_565 S
H125 O124 0.980 1_545 S
O126 Co123 2.087 . S
O126 Co127 2.042 . S
O126 Co128 2.122 . S
O126 H129 0.980 . S
Co127 O126 2.042 . S
Co127 O135 2.286 . S
Co127 O136 2.069 . S
Co127 O137 2.015 . S
Co127 O140 2.264 . S
Co128 O126 2.122 . S
Co128 O139 1.976 . S
Co128 O140 2.327 . S
Co128 O141 2.073 . S
H129 O126 0.980 . S
O130 Co122 2.073 . S
O130 C145 1.245 . S
O131 Co121 2.264 . S
O131 Co122 2.327 . S
O131 C145 1.257 . S
O132 Co122 1.976 . S
O132 C144 1.251 . S
O133 Co123 2.111 1_565 S
O133 C144 1.274 . S
O134 Co123 2.143 . S
O134 C147 1.246 . S
O135 Co127 2.286 . S
O135 C146 1.259 . S
O136 Co127 2.069 . S
O136 C146 1.289 . S
O137 Co127 2.015 . S
O137 C147 1.257 . S
O138 Co123 2.111 . S
O138 C148 1.274 . S
O139 Co128 1.976 . S
O139 C148 1.251 . S
O140 Co127 2.264 . S
O140 Co128 2.327 . S
O140 C149 1.257 . S
O141 Co128 2.073 . S
O141 C149 1.245 . S
C142 O150 1.259 . S
C142 O151 1.289 . S
C143 O152 1.246 . S
C143 O153 1.257 . S
C144 O132 1.251 . S
C144 O133 1.274 . S
C145 O130 1.245 . S
C145 O131 1.257 . S
C146 O135 1.259 . S
C146 O136 1.289 . S
C147 O134 1.246 . S
C147 O137 1.257 . S
C148 O138 1.274 . S
C148 O139 1.251 . S
C149 O140 1.257 . S
C149 O141 1.245 . S
O150 Co121 2.286 . S
O150 C142 1.259 . S
O151 Co121 2.069 . S
O151 C142 1.289 . S
O152 Co123 2.143 1_565 S
O152 C143 1.246 . S
O153 Co121 2.015 . S
O153 C143 1.257 . S
Co154 O157 2.042 . S
Co154 O164 2.264 . S
Co154 O183 2.286 . S
Co154 O184 2.069 . S
Co154 O186 2.015 . S
Co155 O157 2.122 . S
Co155 O163 2.073 . S
Co155 O164 2.327 . S
Co155 O165 1.976 . S
Co156 O157 2.087 . S
Co156 O159 2.087 1_554 S
Co156 O166 2.111 . S
Co156 O167 2.143 1_554 S
Co156 O171 2.111 1_554 S
Co156 O185 2.143 . S
O157 Co154 2.042 . S
O157 Co155 2.122 . S
O157 Co156 2.087 . S
O157 H158 0.980 . S
H158 O157 0.980 . S
O159 Co156 2.087 1_556 S
O159 Co160 2.042 . S
O159 Co161 2.122 . S
O159 H162 0.980 . S
Co160 O159 2.042 . S
Co160 O168 2.286 . S
Co160 O169 2.069 . S
Co160 O170 2.015 . S
Co160 O173 2.264 . S
Co161 O159 2.122 . S
Co161 O172 1.976 . S
Co161 O173 2.327 . S
Co161 O174 2.073 . S
H162 O159 0.980 . S
O163 Co155 2.073 . S
O163 C178 1.245 . S
O164 Co154 2.264 . S
O164 Co155 2.327 . S
O164 C178 1.257 . S
O165 Co155 1.976 . S
O165 C177 1.251 . S
O166 Co156 2.111 . S
O166 C177 1.274 . S
O167 Co156 2.143 1_556 S
O167 C180 1.246 . S
O168 Co160 2.286 . S
O168 C179 1.259 . S
O169 Co160 2.069 . S
O169 C179 1.289 . S
O170 Co160 2.015 . S
O170 C180 1.257 . S
O171 Co156 2.111 1_556 S
O171 C181 1.274 . S
O172 Co161 1.976 . S
O172 C181 1.251 . S
O173 Co160 2.264 . S
O173 Co161 2.327 . S
O173 C182 1.257 . S
O174 Co161 2.073 . S
O174 C182 1.245 . S
C175 O183 1.259 . S
C175 O184 1.289 . S
C176 O185 1.246 . S
C176 O186 1.257 . S
C177 O165 1.251 . S
C177 O166 1.274 . S
C178 O163 1.245 . S
C178 O164 1.257 . S
C179 O168 1.259 . S
C179 O169 1.289 . S
C180 O167 1.246 . S
C180 O170 1.257 . S
C181 O171 1.274 . S
C181 O172 1.251 . S
C182 O173 1.257 . S
C182 O174 1.245 . S
O183 Co154 2.286 . S
O183 C175 1.259 . S
O184 Co154 2.069 . S
O184 C175 1.289 . S
O185 Co156 2.143 . S
O185 C176 1.246 . S
O186 Co154 2.015 . S
O186 C176 1.257 . S
H187 C193 0.930 . S
H188 C196 0.930 . S
H189 C197 0.930 . S
H190 C198 0.930 . S
H191 C201 0.930 . S
H192 C202 0.930 . S
C193 H187 0.930 . S
C193 C194 1.355 . S
C193 C195 1.415 . S
C194 C193 1.355 . S
C194 C196 1.419 . S
C195 C193 1.415 . S
C195 C200 1.425 . S
C195 C202 1.409 . S
C196 H188 0.930 . S
C196 C194 1.419 . S
C196 C197 1.362 . S
C197 H189 0.930 . S
C197 C196 1.362 . S
C197 C200 1.409 . S
C198 H190 0.930 . S
C198 C199 1.355 . S
C198 C200 1.415 . S
C199 C198 1.355 . S
C199 C201 1.419 . S
C200 C195 1.425 . S
C200 C197 1.409 . S
C200 C198 1.415 . S
C201 H191 0.930 . S
C201 C199 1.419 . S
C201 C202 1.362 . S
C202 H192 0.930 . S
C202 C195 1.409 . S
C202 C201 1.362 . S
H203 C209 0.930 . S
H204 C212 0.930 . S
H205 C213 0.930 . S
H206 C214 0.930 . S
H207 C217 0.930 . S
H208 C218 0.930 . S
C209 H203 0.930 . S
C209 C210 1.355 . S
C209 C211 1.415 . S
C210 C209 1.355 . S
C210 C212 1.419 . S
C211 C209 1.415 . S
C211 C216 1.425 . S
C211 C218 1.409 . S
C212 H204 0.930 . S
C212 C210 1.419 . S
C212 C213 1.362 . S
C213 H205 0.930 . S
C213 C212 1.362 . S
C213 C216 1.409 . S
C214 H206 0.930 . S
C214 C215 1.355 . S
C214 C216 1.415 . S
C215 C214 1.355 . S
C215 C217 1.419 . S
C216 C211 1.425 . S
C216 C213 1.409 . S
C216 C214 1.415 . S
C217 H207 0.930 . S
C217 C215 1.419 . S
C217 C218 1.362 . S
C218 H208 0.930 . S
C218 C211 1.409 . S
C218 C217 1.362 . S
H219 C225 0.930 . S
H220 C228 0.930 . S
H221 C229 0.930 . S
H222 C230 0.930 . S
H223 C233 0.930 . S
H224 C234 0.930 . S
C225 H219 0.930 . S
C225 C226 1.355 . S
C225 C227 1.415 . S
C226 C225 1.355 . S
C226 C228 1.419 . S
C227 C225 1.415 . S
C227 C232 1.425 . S
C227 C234 1.409 . S
C228 H220 0.930 . S
C228 C226 1.419 . S
C228 C229 1.362 . S
C229 H221 0.930 . S
C229 C228 1.362 . S
C229 C232 1.409 . S
C230 H222 0.930 . S
C230 C231 1.355 . S
C230 C232 1.415 . S
C231 C230 1.355 . S
C231 C233 1.419 . S
C232 C227 1.425 . S
C232 C229 1.409 . S
C232 C230 1.415 . S
C233 H223 0.930 . S
C233 C231 1.419 . S
C233 C234 1.362 . S
C234 H224 0.930 . S
C234 C227 1.409 . S
C234 C233 1.362 . S
H235 C241 0.930 . S
H236 C244 0.930 . S
H237 C245 0.930 . S
H238 C246 0.930 . S
H239 C249 0.930 . S
H240 C250 0.930 . S
C241 H235 0.930 . S
C241 C242 1.355 . S
C241 C243 1.415 . S
C242 C241 1.355 . S
C242 C244 1.419 . S
C243 C241 1.415 . S
C243 C248 1.425 . S
C243 C250 1.409 . S
C244 H236 0.930 . S
C244 C242 1.419 . S
C244 C245 1.362 . S
C245 H237 0.930 . S
C245 C244 1.362 . S
C245 C248 1.409 . S
C246 H238 0.930 . S
C246 C247 1.355 . S
C246 C248 1.415 . S
C247 C246 1.355 . S
C247 C249 1.419 . S
C248 C243 1.425 . S
C248 C245 1.409 . S
C248 C246 1.415 . S
C249 H239 0.930 . S
C249 C247 1.419 . S
C249 C250 1.362 . S
C250 H240 0.930 . S
C250 C243 1.409 . S
C250 C249 1.362 . S
H251 C257 0.930 . S
H252 C260 0.930 . S
H253 C261 0.930 . S
H254 C262 0.930 . S
H255 C265 0.930 . S
H256 C266 0.930 . S
C257 H251 0.930 . S
C257 C258 1.355 . S
C257 C259 1.415 . S
C258 C257 1.355 . S
C258 C260 1.419 . S
C259 C257 1.415 . S
C259 C264 1.425 . S
C259 C266 1.409 . S
C260 H252 0.930 . S
C260 C258 1.419 . S
C260 C261 1.362 . S
C261 H253 0.930 . S
C261 C260 1.362 . S
C261 C264 1.409 . S
C262 H254 0.930 . S
C262 C263 1.355 . S
C262 C264 1.415 . S
C263 C262 1.355 . S
C263 C265 1.419 . S
C264 C259 1.425 . S
C264 C261 1.409 . S
C264 C262 1.415 . S
C265 H255 0.930 . S
C265 C263 1.419 . S
C265 C266 1.362 . S
C266 H256 0.930 . S
C266 C259 1.409 . S
C266 C265 1.362 . S
H267 C273 0.930 . S
H268 C276 0.930 . S
H269 C277 0.930 . S
H270 C278 0.930 . S
H271 C281 0.930 . S
H272 C282 0.930 . S
C273 H267 0.930 . S
C273 C274 1.355 . S
C273 C275 1.415 . S
C274 C273 1.355 . S
C274 C276 1.419 . S
C275 C273 1.415 . S
C275 C280 1.425 . S
C275 C282 1.409 . S
C276 H268 0.930 . S
C276 C274 1.419 . S
C276 C277 1.362 . S
C277 H269 0.930 . S
C277 C276 1.362 . S
C277 C280 1.409 . S
C278 H270 0.930 . S
C278 C279 1.355 . S
C278 C280 1.415 . S
C279 C278 1.355 . S
C279 C281 1.419 . S
C280 C275 1.425 . S
C280 C277 1.409 . S
C280 C278 1.415 . S
C281 H271 0.930 . S
C281 C279 1.419 . S
C281 C282 1.362 . S
C282 H272 0.930 . S
C282 C275 1.409 . S
C282 C281 1.362 . S
H283 C289 0.930 . S
H284 C292 0.930 . S
H285 C293 0.930 . S
H286 C294 0.930 . S
H287 C297 0.930 . S
H288 C298 0.930 . S
C289 H283 0.930 . S
C289 C290 1.355 . S
C289 C291 1.415 . S
C290 C289 1.355 . S
C290 C292 1.419 . S
C291 C289 1.415 . S
C291 C296 1.425 . S
C291 C298 1.409 . S
C292 H284 0.930 . S
C292 C290 1.419 . S
C292 C293 1.362 . S
C293 H285 0.930 . S
C293 C292 1.362 . S
C293 C296 1.409 . S
C294 H286 0.930 . S
C294 C295 1.355 . S
C294 C296 1.415 . S
C295 C294 1.355 . S
C295 C297 1.419 . S
C296 C291 1.425 . S
C296 C293 1.409 . S
C296 C294 1.415 . S
C297 H287 0.930 . S
C297 C295 1.419 . S
C297 C298 1.362 . S
C298 H288 0.930 . S
C298 C291 1.409 . S
C298 C297 1.362 . S
H299 C305 0.930 . S
H300 C308 0.930 . S
H301 C309 0.930 . S
H302 C310 0.930 . S
H303 C313 0.930 . S
H304 C314 0.930 . S
C305 H299 0.930 . S
C305 C306 1.355 . S
C305 C307 1.415 . S
C306 C305 1.355 . S
C306 C308 1.419 . S
C307 C305 1.415 . S
C307 C312 1.425 . S
C307 C314 1.409 . S
C308 H300 0.930 . S
C308 C306 1.419 . S
C308 C309 1.362 . S
C309 H301 0.930 . S
C309 C308 1.362 . S
C309 C312 1.409 . S
C310 H302 0.930 . S
C310 C311 1.355 . S
C310 C312 1.415 . S
C311 C310 1.355 . S
C311 C313 1.419 . S
C312 C307 1.425 . S
C312 C309 1.409 . S
C312 C310 1.415 . S
C313 H303 0.930 . S
C313 C311 1.419 . S
C313 C314 1.362 . S
C314 H304 0.930 . S
C314 C307 1.409 . S
C314 C313 1.362 . S
H315 C321 0.930 . S
H316 C324 0.930 . S
H317 C325 0.930 . S
H318 C326 0.930 . S
H319 C329 0.930 . S
H320 C330 0.930 . S
C321 H315 0.930 . S
C321 C322 1.355 . S
C321 C323 1.415 . S
C322 C321 1.355 . S
C322 C324 1.419 . S
C323 C321 1.415 . S
C323 C328 1.425 . S
C323 C330 1.409 . S
C324 H316 0.930 . S
C324 C322 1.419 . S
C324 C325 1.362 . S
C325 H317 0.930 . S
C325 C324 1.362 . S
C325 C328 1.409 . S
C326 H318 0.930 . S
C326 C327 1.355 . S
C326 C328 1.415 . S
C327 C326 1.355 . S
C327 C329 1.419 . S
C328 C323 1.425 . S
C328 C325 1.409 . S
C328 C326 1.415 . S
C329 H319 0.930 . S
C329 C327 1.419 . S
C329 C330 1.362 . S
C330 H320 0.930 . S
C330 C323 1.409 . S
C330 C329 1.362 . S
H331 C337 0.930 . S
H332 C340 0.930 . S
H333 C341 0.930 . S
H334 C342 0.930 . S
H335 C345 0.930 . S
H336 C346 0.930 . S
C337 H331 0.930 . S
C337 C338 1.355 . S
C337 C339 1.415 . S
C338 C337 1.355 . S
C338 C340 1.419 . S
C339 C337 1.415 . S
C339 C344 1.425 . S
C339 C346 1.409 . S
C340 H332 0.930 . S
C340 C338 1.419 . S
C340 C341 1.362 . S
C341 H333 0.930 . S
C341 C340 1.362 . S
C341 C344 1.409 . S
C342 H334 0.930 . S
C342 C343 1.355 . S
C342 C344 1.415 . S
C343 C342 1.355 . S
C343 C345 1.419 . S
C344 C339 1.425 . S
C344 C341 1.409 . S
C344 C342 1.415 . S
C345 H335 0.930 . S
C345 C343 1.419 . S
C345 C346 1.362 . S
C346 H336 0.930 . S
C346 C339 1.409 . S
C346 C345 1.362 . S
H347 C353 0.930 . S
H348 C356 0.930 . S
H349 C357 0.930 . S
H350 C358 0.930 . S
H351 C361 0.930 . S
H352 C362 0.930 . S
C353 H347 0.930 . S
C353 C354 1.355 . S
C353 C355 1.415 . S
C354 C353 1.355 . S
C354 C356 1.419 . S
C355 C353 1.415 . S
C355 C360 1.425 . S
C355 C362 1.409 . S
C356 H348 0.930 . S
C356 C354 1.419 . S
C356 C357 1.362 . S
C357 H349 0.930 . S
C357 C356 1.362 . S
C357 C360 1.409 . S
C358 H350 0.930 . S
C358 C359 1.355 . S
C358 C360 1.415 . S
C359 C358 1.355 . S
C359 C361 1.419 . S
C360 C355 1.425 . S
C360 C357 1.409 . S
C360 C358 1.415 . S
C361 H351 0.930 . S
C361 C359 1.419 . S
C361 C362 1.362 . S
C362 H352 0.930 . S
C362 C355 1.409 . S
C362 C361 1.362 . S
H363 C369 0.930 . S
H364 C372 0.930 . S
H365 C373 0.930 . S
H366 C374 0.930 . S
H367 C377 0.930 . S
H368 C378 0.930 . S
C369 H363 0.930 . S
C369 C370 1.355 . S
C369 C371 1.415 . S
C370 C369 1.355 . S
C370 C372 1.419 . S
C371 C369 1.415 . S
C371 C376 1.425 . S
C371 C378 1.409 . S
C372 H364 0.930 . S
C372 C370 1.419 . S
C372 C373 1.362 . S
C373 H365 0.930 . S
C373 C372 1.362 . S
C373 C376 1.409 . S
C374 H366 0.930 . S
C374 C375 1.355 . S
C374 C376 1.415 . S
C375 C374 1.355 . S
C375 C377 1.419 . S
C376 C371 1.425 . S
C376 C373 1.409 . S
C376 C374 1.415 . S
C377 H367 0.930 . S
C377 C375 1.419 . S
C377 C378 1.362 . S
C378 H368 0.930 . S
C378 C371 1.409 . S
C378 C377 1.362 . S
H379 C385 0.930 . S
H380 C388 0.930 . S
H381 C389 0.930 . S
H382 C390 0.930 . S
H383 C393 0.930 . S
H384 C394 0.930 . S
C385 H379 0.930 . S
C385 C386 1.355 . S
C385 C387 1.415 . S
C386 C385 1.355 . S
C386 C388 1.419 . S
C387 C385 1.415 . S
C387 C392 1.425 . S
C387 C394 1.409 . S
C388 H380 0.930 . S
C388 C386 1.419 . S
C388 C389 1.362 . S
C389 H381 0.930 . S
C389 C388 1.362 . S
C389 C392 1.409 . S
C390 H382 0.930 . S
C390 C391 1.355 . S
C390 C392 1.415 . S
C391 C390 1.355 . S
C391 C393 1.419 . S
C392 C387 1.425 . S
C392 C389 1.409 . S
C392 C390 1.415 . S
C393 H383 0.930 . S
C393 C391 1.419 . S
C393 C394 1.362 . S
C394 H384 0.930 . S
C394 C387 1.409 . S
C394 C393 1.362 . S
H395 C401 0.930 . S
H396 C404 0.930 . S
H397 C405 0.930 . S
H398 C406 0.930 . S
H399 C409 0.930 . S
H400 C410 0.930 . S
C401 H395 0.930 . S
C401 C402 1.355 . S
C401 C403 1.415 . S
C402 C401 1.355 . S
C402 C404 1.419 . S
C403 C401 1.415 . S
C403 C408 1.425 . S
C403 C410 1.409 . S
C404 H396 0.930 . S
C404 C402 1.419 . S
C404 C405 1.362 . S
C405 H397 0.930 . S
C405 C404 1.362 . S
C405 C408 1.409 . S
C406 H398 0.930 . S
C406 C407 1.355 . S
C406 C408 1.415 . S
C407 C406 1.355 . S
C407 C409 1.419 . S
C408 C403 1.425 . S
C408 C405 1.409 . S
C408 C406 1.415 . S
C409 H399 0.930 . S
C409 C407 1.419 . S
C409 C410 1.362 . S
C410 H400 0.930 . S
C410 C403 1.409 . S
C410 C409 1.362 . S
H411 C417 0.930 . S
H412 C420 0.930 . S
H413 C421 0.930 . S
H414 C422 0.930 . S
H415 C425 0.930 . S
H416 C426 0.930 . S
C417 H411 0.930 . S
C417 C418 1.355 . S
C417 C419 1.415 . S
C418 C417 1.355 . S
C418 C420 1.419 . S
C419 C417 1.415 . S
C419 C424 1.425 . S
C419 C426 1.409 . S
C420 H412 0.930 . S
C420 C418 1.419 . S
C420 C421 1.362 . S
C421 H413 0.930 . S
C421 C420 1.362 . S
C421 C424 1.409 . S
C422 H414 0.930 . S
C422 C423 1.355 . S
C422 C424 1.415 . S
C423 C422 1.355 . S
C423 C425 1.419 . S
C424 C419 1.425 . S
C424 C421 1.409 . S
C424 C422 1.415 . S
C425 H415 0.930 . S
C425 C423 1.419 . S
C425 C426 1.362 . S
C426 H416 0.930 . S
C426 C419 1.409 . S
C426 C425 1.362 . S
H427 C433 0.930 . S
H428 C436 0.930 . S
H429 C437 0.930 . S
H430 C438 0.930 . S
H431 C441 0.930 . S
H432 C442 0.930 . S
C433 H427 0.930 . S
C433 C434 1.355 . S
C433 C435 1.415 . S
C434 C433 1.355 . S
C434 C436 1.419 . S
C435 C433 1.415 . S
C435 C440 1.425 . S
C435 C442 1.409 . S
C436 H428 0.930 . S
C436 C434 1.419 . S
C436 C437 1.362 . S
C437 H429 0.930 . S
C437 C436 1.362 . S
C437 C440 1.409 . S
C438 H430 0.930 . S
C438 C439 1.355 . S
C438 C440 1.415 . S
C439 C438 1.355 . S
C439 C441 1.419 . S
C440 C435 1.425 . S
C440 C437 1.409 . S
C440 C438 1.415 . S
C441 H431 0.930 . S
C441 C439 1.419 . S
C441 C442 1.362 . S
C442 H432 0.930 . S
C442 C435 1.409 . S
C442 C441 1.362 . S
H443 C449 0.930 . S
H444 C452 0.930 . S
H445 C453 0.930 . S
H446 C454 0.930 . S
H447 C457 0.930 . S
H448 C458 0.930 . S
C449 H443 0.930 . S
C449 C450 1.355 . S
C449 C451 1.415 . S
C450 C449 1.355 . S
C450 C452 1.419 . S
C451 C449 1.415 . S
C451 C456 1.425 . S
C451 C458 1.409 . S
C452 H444 0.930 . S
C452 C450 1.419 . S
C452 C453 1.362 . S
C453 H445 0.930 . S
C453 C452 1.362 . S
C453 C456 1.409 . S
C454 H446 0.930 . S
C454 C455 1.355 . S
C454 C456 1.415 . S
C455 C454 1.355 . S
C455 C457 1.419 . S
C456 C451 1.425 . S
C456 C453 1.409 . S
C456 C454 1.415 . S
C457 H447 0.930 . S
C457 C455 1.419 . S
C457 C458 1.362 . S
C458 H448 0.930 . S
C458 C451 1.409 . S
C458 C457 1.362 . S
H459 C465 0.930 . S
H460 C468 0.930 . S
H461 C469 0.930 . S
H462 C470 0.930 . S
H463 C473 0.930 . S
H464 C474 0.930 . S
C465 H459 0.930 . S
C465 C466 1.355 . S
C465 C467 1.415 . S
C466 C465 1.355 . S
C466 C468 1.419 . S
C467 C465 1.415 . S
C467 C472 1.425 . S
C467 C474 1.409 . S
C468 H460 0.930 . S
C468 C466 1.419 . S
C468 C469 1.362 . S
C469 H461 0.930 . S
C469 C468 1.362 . S
C469 C472 1.409 . S
C470 H462 0.930 . S
C470 C471 1.355 . S
C470 C472 1.415 . S
C471 C470 1.355 . S
C471 C473 1.419 . S
C472 C467 1.425 . S
C472 C469 1.409 . S
C472 C470 1.415 . S
C473 H463 0.930 . S
C473 C471 1.419 . S
C473 C474 1.362 . S
C474 H464 0.930 . S
C474 C467 1.409 . S
C474 C473 1.362 . S
H475 C481 0.930 . S
H476 C484 0.930 . S
H477 C485 0.930 . S
H478 C486 0.930 . S
H479 C489 0.930 . S
H480 C490 0.930 . S
C481 H475 0.930 . S
C481 C482 1.355 . S
C481 C483 1.415 . S
C482 C481 1.355 . S
C482 C484 1.419 . S
C483 C481 1.415 . S
C483 C488 1.425 . S
C483 C490 1.409 . S
C484 H476 0.930 . S
C484 C482 1.419 . S
C484 C485 1.362 . S
C485 H477 0.930 . S
C485 C484 1.362 . S
C485 C488 1.409 . S
C486 H478 0.930 . S
C486 C487 1.355 . S
C486 C488 1.415 . S
C487 C486 1.355 . S
C487 C489 1.419 . S
C488 C483 1.425 . S
C488 C485 1.409 . S
C488 C486 1.415 . S
C489 H479 0.930 . S
C489 C487 1.419 . S
C489 C490 1.362 . S
C490 H480 0.930 . S
C490 C483 1.409 . S
C490 C489 1.362 . S
H491 C497 0.930 . S
H492 C500 0.930 . S
H493 C501 0.930 . S
H494 C502 0.930 . S
H495 C505 0.930 . S
H496 C506 0.930 . S
C497 H491 0.930 . S
C497 C498 1.355 . S
C497 C499 1.415 . S
C498 C497 1.355 . S
C498 C500 1.419 . S
C499 C497 1.415 . S
C499 C504 1.425 . S
C499 C506 1.409 . S
C500 H492 0.930 . S
C500 C498 1.419 . S
C500 C501 1.362 . S
C501 H493 0.930 . S
C501 C500 1.362 . S
C501 C504 1.409 . S
C502 H494 0.930 . S
C502 C503 1.355 . S
C502 C504 1.415 . S
C503 C502 1.355 . S
C503 C505 1.419 . S
C504 C499 1.425 . S
C504 C501 1.409 . S
C504 C502 1.415 . S
C505 H495 0.930 . S
C505 C503 1.419 . S
C505 C506 1.362 . S
C506 H496 0.930 . S
C506 C499 1.409 . S
C506 C505 1.362 . S
H507 C513 0.930 . S
H508 C516 0.930 . S
H509 C517 0.930 . S
H510 C518 0.930 . S
H511 C521 0.930 . S
H512 C522 0.930 . S
C513 H507 0.930 . S
C513 C514 1.355 . S
C513 C515 1.415 . S
C514 C513 1.355 . S
C514 C516 1.419 . S
C515 C513 1.415 . S
C515 C520 1.425 . S
C515 C522 1.409 . S
C516 H508 0.930 . S
C516 C514 1.419 . S
C516 C517 1.362 . S
C517 H509 0.930 . S
C517 C516 1.362 . S
C517 C520 1.409 . S
C518 H510 0.930 . S
C518 C519 1.355 . S
C518 C520 1.415 . S
C519 C518 1.355 . S
C519 C521 1.419 . S
C520 C515 1.425 . S
C520 C517 1.409 . S
C520 C518 1.415 . S
C521 H511 0.930 . S
C521 C519 1.419 . S
C521 C522 1.362 . S
C522 H512 0.930 . S
C522 C515 1.409 . S
C522 C521 1.362 . S
H523 C529 0.930 . S
H524 C532 0.930 . S
H525 C533 0.930 . S
H526 C534 0.930 . S
H527 C537 0.930 . S
H528 C538 0.930 . S
C529 H523 0.930 . S
C529 C530 1.355 . S
C529 C531 1.415 . S
C530 C529 1.355 . S
C530 C532 1.419 . S
C531 C529 1.415 . S
C531 C536 1.425 . S
C531 C538 1.409 . S
C532 H524 0.930 . S
C532 C530 1.419 . S
C532 C533 1.362 . S
C533 H525 0.930 . S
C533 C532 1.362 . S
C533 C536 1.409 . S
C534 H526 0.930 . S
C534 C535 1.355 . S
C534 C536 1.415 . S
C535 C534 1.355 . S
C535 C537 1.419 . S
C536 C531 1.425 . S
C536 C533 1.409 . S
C536 C534 1.415 . S
C537 H527 0.930 . S
C537 C535 1.419 . S
C537 C538 1.362 . S
C538 H528 0.930 . S
C538 C531 1.409 . S
C538 C537 1.362 . S
H539 C545 0.930 . S
H540 C548 0.930 . S
H541 C549 0.930 . S
H542 C550 0.930 . S
H543 C553 0.930 . S
H544 C554 0.930 . S
C545 H539 0.930 . S
C545 C546 1.355 . S
C545 C547 1.415 . S
C546 C545 1.355 . S
C546 C548 1.419 . S
C547 C545 1.415 . S
C547 C552 1.425 . S
C547 C554 1.409 . S
C548 H540 0.930 . S
C548 C546 1.419 . S
C548 C549 1.362 . S
C549 H541 0.930 . S
C549 C548 1.362 . S
C549 C552 1.409 . S
C550 H542 0.930 . S
C550 C551 1.355 . S
C550 C552 1.415 . S
C551 C550 1.355 . S
C551 C553 1.419 . S
C552 C547 1.425 . S
C552 C549 1.409 . S
C552 C550 1.415 . S
C553 H543 0.930 . S
C553 C551 1.419 . S
C553 C554 1.362 . S
C554 H544 0.930 . S
C554 C547 1.409 . S
C554 C553 1.362 . S
H555 C561 0.930 . S
H556 C564 0.930 . S
H557 C565 0.930 . S
H558 C566 0.930 . S
H559 C569 0.930 . S
H560 C570 0.930 . S
C561 H555 0.930 . S
C561 C562 1.355 . S
C561 C563 1.415 . S
C562 C561 1.355 . S
C562 C564 1.419 . S
C563 C561 1.415 . S
C563 C568 1.425 . S
C563 C570 1.409 . S
C564 H556 0.930 . S
C564 C562 1.419 . S
C564 C565 1.362 . S
C565 H557 0.930 . S
C565 C564 1.362 . S
C565 C568 1.409 . S
C566 H558 0.930 . S
C566 C567 1.355 . S
C566 C568 1.415 . S
C567 C566 1.355 . S
C567 C569 1.419 . S
C568 C563 1.425 . S
C568 C565 1.409 . S
C568 C566 1.415 . S
C569 H559 0.930 . S
C569 C567 1.419 . S
C569 C570 1.362 . S
C570 H560 0.930 . S
C570 C563 1.409 . S
C570 C569 1.362 . S
C199 C112 1.561 . S
C194 C5 1.312 . S
C215 C148 1.788 . S
C210 C16 1.799 . S
C231 C113 1.202 . S
C226 C30 1.197 . S
C247 C143 1.244 . S
C242 C40 1.096 . S
C263 C110 1.138 . S
C258 C49 1.144 . S
C274 C63 1.475 . S
C279 C146 1.445 . S
C290 C74 0.686 . S
C295 C115 0.623 . S
C311 C145 1.644 . S
C306 C85 1.614 . S
C327 C149 1.525 . S
C322 C8 1.538 . S
C343 C114 1.785 . S
C338 C18 1.873 . S
C359 C142 1.620 . S
C354 C27 1.526 . S
C375 C111 0.876 . S
C370 C38 0.743 . S
C391 C144 1.739 . S
C386 C51 1.933 . S
C402 C60 1.539 . S
C407 C109 1.596 . S
C418 C71 1.144 . S
C423 C147 1.237 . S
C439 C116 1.514 . S
C434 C84 1.508 . S
C455 C178 2.049 . S
C450 C7 2.102 . S
C466 C52 1.948 . S
C471 C181 1.779 . S
C487 C180 1.892 . S
C482 C62 1.847 . S
C498 C73 1.902 . S
C503 C179 1.936 . S
C519 C182 1.669 . S
C514 C82 1.519 . S
C530 C29 1.874 . S
C535 C176 1.835 . S
C551 C175 1.445 . S
C546 C41 1.416 . S
C562 C19 1.942 . S
C567 C177 1.861 . S
