# Generated by pormake.
# Topology pts, (4,4)-cn, num edge types: 1
# Building blocks:
#     Node 0, Type 0, BuildingBlock: ESEHIV_clean_sbu_0, # of connection points: 4
#     Node 1, Type 0, BuildingBlock: ESEHIV_clean_sbu_0, # of connection points: 4
#     Node 2, Type 1, BuildingBlock: UXUYUI_clean_sbu_0, # of connection points: 4
#     Node 3, Type 1, BuildingBlock: UXUYUI_clean_sbu_0, # of connection points: 4
#     Edge 4, Type (0, 1), BuildingBlock: FUNLAD_clean_linker_1, # of connection points: 2
#     Edge 5, Type (0, 1), BuildingBlock: FUNLAD_clean_linker_1, # of connection points: 2
#     Edge 6, Type (0, 1), BuildingBlock: FUNLAD_clean_linker_1, # of connection points: 2
#     Edge 7, Type (0, 1), BuildingBlock: FUNLAD_clean_linker_1, # of connection points: 2
#     Edge 8, Type (0, 1), BuildingBlock: FUNLAD_clean_linker_1, # of connection points: 2
#     Edge 9, Type (0, 1), BuildingBlock: FUNLAD_clean_linker_1, # of connection points: 2
#     Edge 10, Type (0, 1), BuildingBlock: FUNLAD_clean_linker_1, # of connection points: 2
#     Edge 11, Type (0, 1), BuildingBlock: FUNLAD_clean_linker_1, # of connection points: 2
# Relax obj value: 0.002
# Max RMSD: 0.096
# Mean RMSD: 0.062
data_MOF--net-pts--node1-ESEHIV_clean_sbu_0--node2-UXUYUI_clean_sbu_0--edge1-FUNLAD_clean_linker_1
_symmetry_space_group_name_H-M    P1
_symmetry_Int_Tables_number       1
_symmetry_cell_setting            triclinic
loop_
_symmetry_equiv_pos_as_xyz
'x, y, z'
_cell_length_a     31.498722
_cell_length_b     31.558746
_cell_length_c     47.014661
_cell_angle_alpha  92.658097
_cell_angle_beta   92.630308
_cell_angle_gamma 90.203177
loop_
_atom_site_label
_atom_site_type_symbol
_atom_site_fract_x
_atom_site_fract_y
_atom_site_fract_z
_atom_type_partial_charge
Cu0 Cu 0.54818 0.04916 0.01884 0.0
N1 N 0.58299 0.02184 0.99269 0.0
N2 N 0.63618 1.01374 0.96314 0.0
C3 C 0.61795 0.03943 0.98267 0.0
C4 C 0.61176 0.97836 0.96072 0.0
C5 C 0.57886 0.98352 0.97901 0.0
O6 O 0.58539 0.08222 0.04554 0.0
C7 C 0.48079 0.0606 0.98131 0.0
O8 O 0.48395 0.01905 0.98024 0.0
H9 H 0.62953 0.07085 0.98934 0.0
H10 H 0.55344 0.96119 0.9818 0.0
N11 N 0.51789 1.01147 0.03982 0.0
N12 N 0.46987 0.98956 0.06953 0.0
C13 C 0.4845 0.02249 0.05537 0.0
C14 C 0.52477 0.97019 0.04425 0.0
C15 C 0.49511 0.95661 0.06262 0.0
C16 C 0.61294 0.06042 0.05898 0.0
O17 O 0.61336 0.0191 0.054 0.0
H18 H 0.47203 0.05436 0.05657 0.0
H19 H 0.55005 0.95155 0.03528 0.0
O20 O 0.50685 0.08233 0.99761 0.0
H21 H 0.61686 0.95092 0.94667 0.0
H22 H 0.49261 0.92512 0.07062 0.0
Cu23 Cu 0.07819 0.56078 0.51644 0.0
N24 N 0.11106 0.5313 0.54292 0.0
N25 N 0.12745 0.48337 0.5751 0.0
C26 C 0.09753 0.49736 0.55633 0.0
C27 C 0.16103 0.50958 0.57341 0.0
C28 C 0.15085 0.5392 0.55353 0.0
O29 O 0.04558 0.51876 0.49306 0.0
C30 C 0.06487 0.63036 0.55158 0.0
O31 O 0.1065 0.63068 0.55066 0.0
H32 H 0.06609 0.48383 0.55253 0.0
H33 H 0.17079 0.56499 0.54756 0.0
N34 N 0.11151 0.59152 0.4927 0.0
N35 N 0.12933 0.64113 0.46295 0.0
C36 C 0.09856 0.62591 0.47884 0.0
C37 C 0.15175 0.58462 0.4853 0.0
C38 C 0.16278 0.61521 0.4669 0.0
C39 C 0.06768 0.49063 0.48041 0.0
O40 O 0.10931 0.49279 0.48362 0.0
H41 H 0.067 0.63898 0.4803 0.0
H42 H 0.17153 0.55897 0.49255 0.0
O43 O 0.04388 0.60117 0.53756 0.0
H44 H 0.19063 0.50768 0.58591 0.0
H45 H 0.19297 0.6181 0.45701 0.0
Li46 Li 0.05255 0.10118 0.28316 0.0
Li47 Li 0.04993 0.02166 0.28592 0.0
Li48 Li 0.0861 0.05902 0.24668 0.0
Li49 Li 1.01035 0.05877 0.24844 0.0
C50 C 0.1216 0.08086 0.31138 0.0
N51 N 0.16052 0.12413 0.35799 0.0
C52 C 0.11402 0.06886 0.33894 0.0
C53 C 0.14917 0.1147 0.30751 0.0
C54 C 0.13397 0.09116 0.36224 0.0
C55 C 0.16847 0.13623 0.33135 0.0
C56 C 0.96164 0.06664 0.29255 0.0
C57 C 0.89262 0.03438 0.2956 0.0
N58 N 0.87438 0.07325 0.294 0.0
C59 C 0.94229 0.10629 0.29105 0.0
C60 C 0.93672 0.03037 0.29492 0.0
C61 C 0.89808 0.10896 0.29177 0.0
C62 C 0.06538 0.18961 0.29683 0.0
N63 N 0.05308 0.15205 0.30692 0.0
C64 C 0.03897 0.18585 0.35211 0.0
C65 C 0.03987 0.14956 0.33393 0.0
C66 C 0.05165 0.22515 0.34225 0.0
C67 C 0.06532 0.22661 0.31433 0.0
H68 H 0.07505 0.191 0.27519 0.0
H69 H 0.03013 0.11925 0.34138 0.0
C70 C 0.0808 0.94358 0.30472 0.0
N71 N 0.05283 0.97522 0.31036 0.0
C72 C 0.08444 0.90923 0.32239 0.0
C73 C 0.03047 0.94077 0.3514 0.0
C74 C 0.02792 0.97453 0.33319 0.0
C75 C 0.05923 0.90769 0.34631 0.0
H76 H 0.10014 0.94499 0.28635 0.0
H77 H 1.00629 1.00038 0.33736 0.0
C78 C 0.06579 0.12567 0.21937 0.0
N79 N 0.10512 0.15992 0.17424 0.0
C80 C 0.04777 0.12038 0.19167 0.0
C81 C 0.10392 0.1483 0.22403 0.0
C82 C 0.06808 0.13801 0.16917 0.0
C83 C 0.12331 0.16533 0.20096 0.0
C84 C 0.02651 0.98011 0.22583 0.0
C85 C 0.01869 0.98948 0.1973 0.0
C86 C 1.01234 0.94155 0.23553 0.0
C87 C 0.9967 0.96009 0.17893 0.0
C88 C 0.99053 0.91297 0.21648 0.0
N89 N 0.98322 0.92276 0.18882 0.0
C90 C 0.17412 0.05549 0.23482 0.0
C91 C 0.12722 0.04736 0.1941 0.0
C92 C 0.20935 0.05149 0.21781 0.0
N93 N 0.13402 0.05356 0.22277 0.0
C94 C 0.1614 0.0437 0.17631 0.0
C95 C 0.2031 0.04534 0.18807 0.0
H96 H 0.1788 0.06014 0.25767 0.0
H97 H 0.09526 0.04559 0.18492 0.0
C98 C 0.94384 0.09652 0.21641 0.0
N99 N 0.95638 0.0591 0.22722 0.0
C100 C 0.90523 0.09941 0.20077 0.0
C101 C 0.892 0.02561 0.20877 0.0
C102 C 0.93082 0.02421 0.22426 0.0
C103 C 0.87874 0.06344 0.19661 0.0
H104 H 0.96391 0.1243 0.21994 0.0
H105 H 0.94032 0.99526 0.23407 0.0
O106 O 0.10127 0.0603 0.28835 0.0
O107 O 1.00473 0.06327 0.29107 0.0
O108 O 0.04659 0.10833 0.24171 0.0
O109 O 0.0482 1.00827 0.24417 0.0
H110 H 0.09259 0.04293 0.34234 0.0
H111 H 0.1553 0.12451 0.28635 0.0
H112 H 0.12822 0.08236 0.38369 0.0
H113 H 0.18968 0.16264 0.32868 0.0
H114 H 0.87288 1.00656 0.29724 0.0
H115 H 0.96119 0.13462 0.28902 0.0
H116 H 0.95122 0.99938 0.29574 0.0
H117 H 0.88261 0.1394 0.29047 0.0
H118 H 0.02924 0.18277 0.37368 0.0
H119 H 0.07549 0.25624 0.306 0.0
H120 H 0.10626 0.8841 0.31692 0.0
H121 H 1.01037 0.94072 0.3695 0.0
H122 H 0.01884 0.10224 0.18742 0.0
H123 H 0.11886 0.152 0.24514 0.0
H124 H 0.05454 0.13402 0.14765 0.0
H125 H 0.15293 0.18269 0.20428 0.0
H126 H 0.02849 0.01951 0.18957 0.0
H127 H 0.01794 0.93383 0.25755 0.0
H128 H 0.99015 0.96708 0.15686 0.0
H129 H 0.97934 0.88304 0.2237 0.0
H130 H 0.24088 0.05395 0.22789 0.0
H131 H 0.15525 0.03917 0.1535 0.0
H132 H 0.89701 0.12941 0.19189 0.0
H133 H 0.87242 0.99726 0.20637 0.0
Li134 Li 1.01223 0.06356 0.78019 0.0
Li135 Li 0.09011 0.06316 0.78559 0.0
Li136 Li 0.05167 0.1013 0.74631 0.0
Li137 Li 0.055 0.02349 0.74373 0.0
C138 C 0.03248 0.13507 0.80977 0.0
N139 N 0.99297 0.17833 0.85353 0.0
C140 C 0.04879 0.13316 0.83783 0.0
C141 C 0.99641 0.15938 0.80391 0.0
C142 C 0.02829 0.15518 0.85968 0.0
C143 C 0.97678 0.18088 0.82635 0.0
C144 C 0.06326 0.97874 0.7989 0.0
C145 C 0.10516 0.915 0.80108 0.0
N146 N 0.08884 0.90709 0.82659 0.0
C147 C 0.04645 0.9696 0.82495 0.0
C148 C 0.09247 0.95092 0.7867 0.0
C149 C 0.05997 0.93339 0.8387 0.0
C150 C 0.92331 0.05741 0.78631 0.0
N151 N 0.96151 0.06075 0.8009 0.0
C152 C 0.92806 0.05417 0.84518 0.0
C153 C 0.96447 0.05938 0.82978 0.0
C154 C 0.88803 0.05029 0.83065 0.0
C155 C 0.88606 0.05214 0.80084 0.0
H156 H 0.92182 0.05789 0.76331 0.0
H157 H 0.99529 0.06132 0.84086 0.0
C158 C 0.17235 0.08918 0.80573 0.0
N159 N 0.13809 0.06572 0.81216 0.0
C160 C 0.20826 0.09208 0.82436 0.0
C161 C 0.17267 0.0472 0.85615 0.0
C162 C 0.13747 0.04527 0.83695 0.0
C163 C 0.20866 0.0709 0.85007 0.0
H164 H 0.17191 0.1054 0.78595 0.0
H165 H 0.10957 0.02774 0.842 0.0
C166 C 0.98258 0.07645 0.71532 0.0
N167 N 0.94037 0.11111 0.66919 0.0
C168 C 0.98655 0.05826 0.6879 0.0
C169 C 0.95674 0.11194 0.71933 0.0
C170 C 0.96504 0.07632 0.66484 0.0
C171 C 0.9358 0.1291 0.69572 0.0
C172 C 0.14016 0.051 0.73357 0.0
C173 C 0.15429 0.06729 0.7085 0.0
C174 C 0.16489 0.02118 0.74776 0.0
C175 C 0.19247 0.05276 0.69772 0.0
C176 C 0.20292 1.00749 0.73633 0.0
N177 N 0.21578 0.02338 0.71172 0.0
C178 C 0.05892 0.14139 0.69455 0.0
C179 C 0.05167 0.18926 0.73434 0.0
C180 C 0.06173 0.17497 0.67644 0.0
N181 N 0.05394 0.14902 0.72289 0.0
C182 C 0.05469 0.22391 0.717 0.0
C183 C 0.06023 0.21689 0.68761 0.0
H184 H 0.061 0.10909 0.68603 0.0
H185 H 0.04777 0.19447 0.75696 0.0
C186 C 0.03082 0.9407 0.72401 0.0
N187 N 0.0556 0.9744 0.71839 0.0
C188 C 0.02909 0.90461 0.70556 0.0
C189 C 0.07828 0.9387 0.67583 0.0
C190 C 0.07886 0.97415 0.69475 0.0
C191 C 0.05293 0.90346 0.68095 0.0
H192 H 1.01238 0.94188 0.74289 0.0
H193 H 0.09739 1.00166 0.69027 0.0
O194 O 0.05184 0.11335 0.78815 0.0
O195 O 0.05006 1.01397 0.78507 0.0
O196 O 1.00391 0.05961 0.7381 0.0
O197 O 0.10284 0.06502 0.74442 0.0
H198 H 0.07679 0.11467 0.84273 0.0
H199 H 0.98359 0.16145 0.7823 0.0
H200 H 0.04041 0.1538 0.88151 0.0
H201 H 0.94868 0.1996 0.82214 0.0
H202 H 0.12783 0.8933 0.79187 0.0
H203 H 0.02341 0.99036 0.83458 0.0
H204 H 0.10485 0.95657 0.76616 0.0
H205 H 0.04745 0.92617 0.85898 0.0
H206 H 0.9319 0.0519 0.86801 0.0
H207 H 0.85597 0.04894 0.78879 0.0
H208 H 0.23542 0.10999 0.81823 0.0
H209 H 0.17168 0.03042 0.8757 0.0
H210 H 1.00627 0.0307 0.68442 0.0
H211 H 0.9531 0.1262 0.74042 0.0
H212 H 0.96802 0.06274 0.64348 0.0
H213 H 0.91592 0.15673 0.69849 0.0
H214 H 0.13592 0.09078 0.6974 0.0
H215 H 0.15527 1.00919 0.76762 0.0
H216 H 0.20362 0.06491 0.67824 0.0
H217 H 0.22231 0.98439 0.74711 0.0
H218 H 0.06577 0.16821 0.65392 0.0
H219 H 0.05222 0.25559 0.72657 0.0
H220 H 1.00983 0.87793 0.71089 0.0
H221 H 0.09711 0.93904 0.65713 0.0
H222 H 0.43077 0.9601 0.10036 0.0
C223 C 0.43589 0.98885 0.08907 0.0
H224 H 0.41528 0.05176 0.08336 0.0
H225 H 0.24987 0.96482 0.14252 0.0
H226 H 0.24268 0.9194 0.09955 0.0
H227 H 0.29577 0.92166 0.06267 0.0
H228 H 0.35683 0.96863 0.06885 0.0
C229 C 0.41042 0.02237 0.09384 0.0
C230 C 0.37696 0.02202 0.11525 0.0
C231 C 0.34053 0.99555 0.11073 0.0
C232 C 0.30872 0.99587 0.1313 0.0
C233 C 0.27397 0.96732 0.12702 0.0
C234 C 0.26961 0.94081 0.10253 0.0
C235 C 0.29958 0.94196 0.08183 0.0
C236 C 0.33467 0.96893 0.08575 0.0
H237 H 0.23254 0.0492 0.14644 0.0
C238 C 0.23887 0.04155 0.16856 0.0
H239 H 0.28518 0.01864 0.19804 0.0
H240 H 0.44319 0.07588 0.13088 0.0
H241 H 0.44906 0.12315 0.17304 0.0
H242 H 0.39237 0.12606 0.20757 0.0
H243 H 0.32959 0.08153 0.20026 0.0
C244 C 0.27769 0.02718 0.1763 0.0
C245 C 0.31226 0.02427 0.15564 0.0
C246 C 0.34871 0.05064 0.16017 0.0
C247 C 0.38111 0.04943 0.14002 0.0
C248 C 0.41733 0.07589 0.14526 0.0
C249 C 0.42117 0.10313 0.16942 0.0
C250 C 0.38929 0.10473 0.18888 0.0
C251 C 0.35342 0.07892 0.18442 0.0
H252 H 0.15176 0.44366 0.60888 0.0
C253 C 0.12497 0.44887 0.59405 0.0
H254 H 0.06316 0.42807 0.58016 0.0
H255 H 0.14244 0.26326 0.64837 0.0
H256 H 0.19197 0.25672 0.61048 0.0
H257 H 0.19337 0.30964 0.57352 0.0
H258 H 0.14588 0.36989 0.57461 0.0
C259 C 0.09081 0.42312 0.59416 0.0
C260 C 0.08805 0.38917 0.61502 0.0
C261 C 0.11492 0.35323 0.6134 0.0
C262 C 0.11265 0.32158 0.6339 0.0
C263 C 0.14152 0.2873 0.6327 0.0
C264 C 0.17034 0.28329 0.61115 0.0
C265 C 0.17125 0.31317 0.59041 0.0
C266 C 0.14396 0.34778 0.5914 0.0
H267 H 0.05706 0.2449 0.64527 0.0
C268 C 0.06411 0.25202 0.66786 0.0
H269 H 0.08625 0.29957 0.69834 0.0
H270 H 0.03165 0.45373 0.62407 0.0
H271 H 0.97986 0.45858 0.66066 0.0
H272 H 0.97398 0.40231 0.69499 0.0
H273 H 0.02003 0.34091 0.69305 0.0
C274 C 0.07826 0.29117 0.6761 0.0
C275 C 0.08208 0.32489 0.65516 0.0
C276 C 0.05483 0.3605 0.65651 0.0
C277 C 0.05785 0.39268 0.63646 0.0
C278 C 0.03045 0.4281 0.63852 0.0
C279 C 1.0006 0.43134 0.65946 0.0
C280 C 0.99732 0.39968 0.67881 0.0
C281 C 0.02401 0.36462 0.67747 0.0
H282 H 0.64518 0.11507 0.08256 0.0
C283 C 0.64501 0.08078 0.07917 0.0
H284 H 0.67341 0.02284 0.09008 0.0
H285 H 0.84423 0.13132 0.12521 0.0
H286 H 0.84619 0.14668 0.07519 0.0
H287 H 0.78504 0.12932 0.04198 0.0
H288 H 0.7215 0.09675 0.05857 0.0
C289 C 0.67429 0.05721 0.09285 0.0
C290 C 0.70767 0.07542 0.11327 0.0
C291 C 0.74433 0.09504 0.10322 0.0
C292 C 0.77978 0.1047 0.12233 0.0
C293 C 0.81639 0.12338 0.11165 0.0
C294 C 0.81797 0.13232 0.08298 0.0
C295 C 0.78353 0.12256 0.06428 0.0
C296 C 0.74716 0.10395 0.07412 0.0
H297 H 0.82328 0.03257 0.17365 0.0
C298 C 0.83795 0.06329 0.17926 0.0
H299 H 0.83099 0.12968 0.17485 0.0
H300 H 0.64055 0.04238 0.13987 0.0
H301 H 0.63761 0.02945 0.19027 0.0
H302 H 0.69862 0.04733 0.22352 0.0
H303 H 0.76306 0.07791 0.20653 0.0
C304 C 0.81804 0.09817 0.17008 0.0
C305 C 0.77867 0.09416 0.15128 0.0
C306 C 0.74086 0.07743 0.16171 0.0
C307 C 0.70549 0.06772 0.14262 0.0
C308 C 0.66842 0.05015 0.15346 0.0
C309 C 0.66624 0.04276 0.18234 0.0
C310 C 0.70061 0.0528 0.20105 0.0
C311 C 0.73751 0.07005 0.191 0.0
H312 H 1.009 0.66212 0.57019 0.0
C313 C 0.04331 0.66345 0.56879 0.0
H314 H 0.10012 0.69666 0.58113 0.0
H315 H 1.0103 0.87107 0.6086 0.0
H316 H 1.0158 0.8792 0.55777 0.0
H317 H 0.03525 0.81856 0.52605 0.0
H318 H 0.04922 0.74936 0.54495 0.0
C319 C 0.06587 0.69484 0.58275 0.0
C320 C 0.0462 0.72874 0.60062 0.0
C321 C 0.03849 0.76894 0.58931 0.0
C322 C 0.02801 0.80404 0.60768 0.0
C323 C 0.01959 0.84366 0.59571 0.0
C324 C 0.02235 0.84867 0.56656 0.0
C325 C 0.03331 0.81453 0.54869 0.0
C326 C 0.04133 0.77504 0.55981 0.0
H327 H 0.08041 0.86271 0.64708 0.0
C328 C 0.05341 0.86594 0.66064 0.0
H329 H 0.99437 0.83876 0.67022 0.0
H330 H 0.05429 0.65481 0.62841 0.0
H331 H 0.04653 0.64597 0.67895 0.0
H332 H 0.02912 0.70693 0.711 0.0
H333 H 0.01941 0.7771 0.69277 0.0
C334 C 0.02217 0.83663 0.65746 0.0
C335 C 0.02621 0.79897 0.63744 0.0
C336 C 0.03074 0.75802 0.64838 0.0
C337 C 0.04086 0.72286 0.62993 0.0
C338 C 0.04658 0.68256 0.64151 0.0
C339 C 0.04218 0.67705 0.67046 0.0
C340 C 0.03236 0.71137 0.68851 0.0
C341 C 0.02682 0.75149 0.67775 0.0
H342 H 0.44413 0.1155 0.96552 0.0
C343 C 0.44713 0.08119 0.96396 0.0
H344 H 0.42404 0.0236 0.94424 0.0
H345 H 0.24655 0.12207 0.92007 0.0
H346 H 0.24013 0.12482 0.9714 0.0
H347 H 0.30027 0.10482 1.00343 0.0
H348 H 0.36735 0.08257 0.98439 0.0
C349 C 0.42032 0.0578 0.94646 0.0
C350 C 0.38629 0.07645 0.92806 0.0
C351 C 0.34725 0.08906 0.9396 0.0
C352 C 0.31213 0.09934 0.92109 0.0
C353 C 0.27376 0.11268 0.93314 0.0
C354 C 0.26974 0.11464 0.96256 0.0
C355 C 0.30364 0.10346 0.98059 0.0
C356 C 0.342 0.09076 0.96937 0.0
H357 H 0.24808 0.04604 0.88561 0.0
C358 C 0.24625 0.07107 0.87044 0.0
H359 H 0.27728 0.12598 0.85701 0.0
H360 H 0.45806 0.05838 0.89944 0.0
H361 H 0.46474 0.05641 0.84813 0.0
H362 H 0.40345 0.0726 0.81595 0.0
H363 H 0.33515 0.09093 0.83482 0.0
C364 C 0.27772 0.10018 0.87146 0.0
C365 C 0.31583 0.09587 0.8911 0.0
C366 C 0.35566 0.08589 0.8797 0.0
C367 C 0.39089 0.07614 0.89821 0.0
C368 C 0.43016 0.06559 0.88627 0.0
C369 C 0.43446 0.06448 0.85689 0.0
C370 C 0.39996 0.07364 0.83878 0.0
C371 C 0.36093 0.08415 0.8499 0.0
H372 H 1.01289 0.453 0.46132 0.0
C373 C 0.04735 0.45504 0.46327 0.0
H374 H 0.10558 0.42615 0.45343 0.0
H375 H 0.04975 0.23925 0.43057 0.0
H376 H 0.07765 0.23612 0.47937 0.0
H377 H 0.09384 0.30167 0.50857 0.0
H378 H 0.08236 0.3708 0.48906 0.0
C379 C 0.07114 0.42488 0.45067 0.0
C380 C 0.05285 0.38656 0.43499 0.0
C381 C 0.05871 0.34641 0.44688 0.0
C382 C 0.04883 0.30865 0.43017 0.0
C383 C 0.05627 0.26899 0.44237 0.0
C384 C 0.07233 0.26671 0.47037 0.0
C385 C 0.08149 0.30361 0.48679 0.0
C386 C 0.0749 0.34307 0.4753 0.0
H387 H 0.07416 0.28992 0.35517 0.0
C388 C 0.05271 0.26477 0.36064 0.0
H389 H 1.00584 0.24762 0.389 0.0
H390 H 0.03571 0.45845 0.40609 0.0
H391 H 1.00321 0.46169 0.35848 0.0
H392 H 0.98219 0.39625 0.33054 0.0
H393 H 0.99427 0.32709 0.34991 0.0
C394 C 0.02812 0.27161 0.38307 0.0
C395 C 0.03294 0.31114 0.4016 0.0
C396 C 0.02384 0.35135 0.39049 0.0
C397 C 0.0345 0.38915 0.40703 0.0
C398 C 0.02732 0.42878 0.39478 0.0
C399 C 1.00873 0.4311 0.36743 0.0
C400 C 0.997 0.39425 0.35167 0.0
C401 C 1.00436 0.35476 0.36296 0.0
H402 H 0.68928 0.05445 0.9538 0.0
C403 C 0.67348 0.02429 0.94823 0.0
H404 H 0.67504 0.96809 0.92195 0.0
H405 H 0.79344 0.10639 0.85642 0.0
H406 H 0.72745 0.14375 0.84729 0.0
H407 H 0.66079 0.11988 0.86718 0.0
H408 H 0.65989 0.05896 0.89673 0.0
C409 C 0.68921 0.99888 0.92756 0.0
C410 C 0.72834 1.01099 0.91312 0.0
C411 C 0.72795 0.04568 0.89493 0.0
C412 C 0.76603 0.05833 0.88242 0.0
C413 C 0.76518 0.09444 0.8656 0.0
C414 C 0.72754 0.11635 0.86032 0.0
C415 C 0.69004 0.103 0.87159 0.0
C416 C 0.69003 0.06811 0.88868 0.0
H417 H 0.82061 0.03077 0.83227 0.0
C418 C 0.84813 0.04197 0.84537 0.0
H419 H 0.87025 0.05857 0.88776 0.0
H420 H 0.73999 0.94289 0.94656 0.0
H421 H 0.80548 0.90408 0.95441 0.0
H422 H 0.87088 0.92445 0.93142 0.0
H423 H 0.87128 0.9839 0.90055 0.0
C424 C 0.84396 0.0474 0.87369 0.0
C425 C 0.80404 0.03519 0.88716 0.0
C426 C 0.80424 1.00014 0.90499 0.0
C427 C 0.76639 0.98805 0.91797 0.0
C428 C 0.7677 0.95321 0.93593 0.0
C429 C 0.8051 0.93066 0.94066 0.0
C430 C 0.84193 0.94216 0.92774 0.0
C431 C 0.84171 0.97642 0.91009 0.0
H432 H 0.15493 0.6822 0.43177 0.0
C433 C 0.12781 0.67655 0.44463 0.0
H434 H 0.06748 0.69917 0.45618 0.0
H435 H 0.1019 0.8855 0.41783 0.0
H436 H 0.1059 0.89656 0.46925 0.0
H437 H 0.10427 0.83593 0.50046 0.0
H438 H 0.09861 0.7638 0.48042 0.0
C439 C 0.09426 0.70273 0.44278 0.0
C440 C 0.09379 0.73921 0.42375 0.0
C441 C 0.09602 0.78124 0.43579 0.0
C442 C 0.09643 0.81627 0.41778 0.0
C443 C 0.10038 0.85779 0.43044 0.0
C444 C 0.10297 0.86459 0.45996 0.0
C445 C 0.10206 0.83045 0.47753 0.0
C446 C 0.09875 0.7892 0.46573 0.0
H447 H 0.03436 0.86762 0.37934 0.0
C448 C 0.06111 0.87191 0.3659 0.0
H449 H 0.12205 0.84879 0.35589 0.0
H450 H 0.08473 0.66297 0.39363 0.0
H451 H 0.08037 0.65192 0.34223 0.0
H452 H 0.08232 0.71254 0.31102 0.0
H453 H 0.08835 0.78463 0.33106 0.0
C454 C 0.09441 0.84551 0.36854 0.0
C455 C 0.0938 0.80921 0.38771 0.0
C456 C 0.0912 0.76719 0.37568 0.0
C457 C 0.09076 0.73217 0.39369 0.0
C458 C 0.08642 0.69068 0.38103 0.0
C459 C 0.08359 0.68387 0.35151 0.0
C460 C 0.08464 0.718 0.33394 0.0
C461 C 0.08823 0.75923 0.34575 0.0
loop_
_geom_bond_atom_site_label_1
_geom_bond_atom_site_label_2
_geom_bond_distance
_geom_bond_site_symmetry_2
_ccdc_geom_bond_type
Cu0 N1 1.999 1_554 S
Cu0 O6 1.974 . S
Cu0 N11 1.985 . S
Cu0 O20 1.959 1_554 S
N1 Cu0 1.999 1_556 S
N1 C3 1.263 . S
N1 C5 1.389 . S
N2 C3 1.358 . S
N2 C4 1.400 . S
C3 N1 1.263 . S
C3 N2 1.358 . S
C3 H9 0.930 . S
C4 N2 1.400 . S
C4 C5 1.351 . S
C4 H21 0.930 . S
C5 N1 1.389 . S
C5 C4 1.351 . S
C5 H10 0.930 . S
O6 Cu0 1.974 . S
O6 C16 1.282 . S
C7 O8 1.261 1_545 S
C7 O20 1.251 . S
O8 C7 1.261 1_565 S
H9 C3 0.930 . S
H10 C5 0.930 . S
N11 Cu0 1.985 . S
N11 C13 1.335 . S
N11 C14 1.390 . S
N12 C13 1.345 . S
N12 C15 1.336 . S
C13 N11 1.335 . S
C13 N12 1.345 . S
C13 H18 0.930 . S
C14 N11 1.390 . S
C14 C15 1.346 . S
C14 H19 0.930 . S
C15 N12 1.336 . S
C15 C14 1.346 . S
C15 H22 0.929 . S
C16 O6 1.282 . S
C16 O17 1.216 1_545 S
O17 C16 1.216 1_565 S
H18 C13 0.930 . S
H19 C14 0.930 . S
O20 Cu0 1.959 1_556 S
O20 C7 1.251 . S
H21 C4 0.930 . S
H22 C15 0.929 . S
Cu23 N24 1.999 . S
Cu23 O29 1.974 . S
Cu23 N34 1.985 . S
Cu23 O43 1.959 . S
N24 Cu23 1.999 . S
N24 C26 1.263 . S
N24 C28 1.389 1_455 S
N25 C26 1.358 . S
N25 C27 1.414 . S
C26 N24 1.263 . S
C26 N25 1.358 . S
C26 H32 0.930 . S
C27 N25 1.414 . S
C27 C28 1.350 1_455 S
C27 H44 0.920 1_455 S
C28 N24 1.389 1_655 S
C28 C27 1.350 1_655 S
C28 H33 0.930 . S
O29 Cu23 1.974 . S
O29 C39 1.282 . S
C30 O31 1.261 . S
C30 O43 1.251 . S
O31 C30 1.261 . S
H32 C26 0.930 . S
H33 C28 0.930 . S
N34 Cu23 1.985 . S
N34 C36 1.335 . S
N34 C37 1.390 . S
N35 C36 1.345 . S
N35 C38 1.336 . S
C36 N34 1.335 . S
C36 N35 1.345 . S
C36 H41 0.930 . S
C37 N34 1.390 . S
C37 C38 1.346 . S
C37 H42 0.930 . S
C38 N35 1.336 . S
C38 C37 1.346 . S
C38 H45 0.929 . S
C39 O29 1.282 . S
C39 O40 1.216 . S
O40 C39 1.216 . S
H41 C36 0.930 . S
H42 C37 0.930 . S
O43 Cu23 1.959 . S
O43 C30 1.251 . S
H44 C27 0.920 1_655 S
H45 C38 0.929 . S
Li46 N63 1.990 . S
Li46 O106 1.956 . S
Li46 O107 1.970 1_455 S
Li46 O108 1.961 . S
Li47 N71 1.990 1_545 S
Li47 O106 1.970 . S
Li47 O107 1.956 1_455 S
Li47 O109 1.961 . S
Li48 N93 1.990 . S
Li48 O106 1.961 . S
Li48 O108 1.956 . S
Li48 O109 1.970 . S
Li49 N99 1.990 . S
Li49 O107 1.961 . S
Li49 O108 1.970 1_655 S
Li49 O109 1.956 1_655 S
C50 C52 1.348 . S
C50 C53 1.356 . S
C50 O106 1.325 . S
N51 C54 1.314 . S
N51 C55 1.279 . S
C52 C50 1.348 . S
C52 C54 1.353 . S
C52 H110 0.929 . S
C53 C50 1.356 . S
C53 C55 1.358 . S
C53 H111 0.930 . S
C54 N51 1.314 . S
C54 C52 1.353 . S
C54 H112 0.930 . S
C55 N51 1.279 . S
C55 C53 1.358 . S
C55 H113 0.930 . S
C56 C59 1.348 . S
C56 C60 1.356 . S
C56 O107 1.325 . S
C57 N58 1.279 . S
C57 C60 1.358 . S
C57 H114 0.930 . S
N58 C57 1.279 . S
N58 C61 1.314 . S
C59 C56 1.348 . S
C59 C61 1.353 . S
C59 H115 0.929 . S
C60 C56 1.356 . S
C60 C57 1.358 . S
C60 H116 0.930 . S
C61 N58 1.314 . S
C61 C59 1.353 . S
C61 H117 0.930 . S
C62 N63 1.314 . S
C62 C67 1.353 . S
C62 H68 0.930 1_455 S
N63 Li46 1.990 . S
N63 C62 1.314 . S
N63 C65 1.279 . S
C64 C65 1.358 . S
C64 C66 1.356 . S
C64 H118 0.930 . S
C65 N63 1.279 . S
C65 C64 1.358 . S
C65 H69 0.930 . S
C66 C64 1.356 . S
C66 C67 1.348 . S
C67 C62 1.353 . S
C67 C66 1.348 . S
C67 H119 0.929 1_455 S
H68 C62 0.930 1_655 S
H69 C65 0.930 . S
C70 N71 1.314 . S
C70 C72 1.353 . S
C70 H76 0.930 . S
N71 Li47 1.990 1_565 S
N71 C70 1.314 . S
N71 C74 1.279 . S
C72 C70 1.353 . S
C72 C75 1.348 . S
C72 H120 0.929 . S
C73 C74 1.358 . S
C73 C75 1.356 . S
C73 H121 0.930 1_455 S
C74 N71 1.279 . S
C74 C73 1.358 . S
C74 H77 0.930 1_455 S
C75 C72 1.348 . S
C75 C73 1.356 . S
H76 C70 0.930 . S
H77 C74 0.930 1_655 S
C78 C80 1.348 . S
C78 C81 1.356 . S
C78 O108 1.325 . S
N79 C82 1.314 . S
N79 C83 1.279 . S
C80 C78 1.348 . S
C80 C82 1.353 . S
C80 H122 0.929 1_455 S
C81 C78 1.356 . S
C81 C83 1.358 . S
C81 H123 0.930 . S
C82 N79 1.314 . S
C82 C80 1.353 . S
C82 H124 0.930 1_455 S
C83 N79 1.279 . S
C83 C81 1.358 . S
C83 H125 0.930 . S
C84 C85 1.348 . S
C84 C86 1.356 . S
C84 O109 1.325 1_565 S
C85 C84 1.348 . S
C85 C87 1.353 . S
C85 H126 0.929 . S
C86 C84 1.356 . S
C86 C88 1.358 . S
C86 H127 0.930 1_455 S
C87 C85 1.353 . S
C87 N89 1.314 . S
C87 H128 0.930 . S
C88 C86 1.358 . S
C88 N89 1.279 . S
C88 H129 0.930 1_455 S
N89 C87 1.314 . S
N89 C88 1.279 . S
C90 C92 1.353 . S
C90 N93 1.314 . S
C90 H96 0.930 . S
C91 N93 1.279 . S
C91 C94 1.358 . S
C91 H97 0.930 . S
C92 C90 1.353 . S
C92 C95 1.348 . S
C92 H130 0.929 . S
N93 Li48 1.990 . S
N93 C90 1.314 . S
N93 C91 1.279 . S
C94 C91 1.358 . S
C94 C95 1.356 . S
C94 H131 0.930 . S
C95 C92 1.348 . S
C95 C94 1.356 . S
H96 C90 0.930 . S
H97 C91 0.930 . S
C98 N99 1.314 . S
C98 C100 1.353 . S
C98 H104 0.930 . S
N99 Li49 1.990 . S
N99 C98 1.314 . S
N99 C102 1.279 . S
C100 C98 1.353 . S
C100 C103 1.348 . S
C100 H132 0.929 . S
C101 C102 1.358 . S
C101 C103 1.356 . S
C101 H133 0.930 . S
C102 N99 1.279 . S
C102 C101 1.358 . S
C102 H105 0.930 . S
C103 C100 1.348 . S
C103 C101 1.356 . S
H104 C98 0.930 . S
H105 C102 0.930 . S
O106 Li46 1.956 . S
O106 Li47 1.970 . S
O106 Li48 1.961 . S
O106 C50 1.325 . S
O107 Li46 1.970 1_655 S
O107 Li47 1.956 1_655 S
O107 Li49 1.961 . S
O107 C56 1.325 . S
O108 Li46 1.961 . S
O108 Li48 1.956 . S
O108 Li49 1.970 1_455 S
O108 C78 1.325 . S
O109 Li47 1.961 . S
O109 Li48 1.970 . S
O109 Li49 1.956 1_455 S
O109 C84 1.325 1_545 S
H110 C52 0.929 . S
H111 C53 0.930 . S
H112 C54 0.930 . S
H113 C55 0.930 . S
H114 C57 0.930 . S
H115 C59 0.929 . S
H116 C60 0.930 . S
H117 C61 0.930 . S
H118 C64 0.930 . S
H119 C67 0.929 1_655 S
H120 C72 0.929 . S
H121 C73 0.930 1_655 S
H122 C80 0.929 1_655 S
H123 C81 0.930 . S
H124 C82 0.930 1_655 S
H125 C83 0.930 . S
H126 C85 0.929 . S
H127 C86 0.930 1_655 S
H128 C87 0.930 . S
H129 C88 0.930 1_655 S
H130 C92 0.929 . S
H131 C94 0.930 . S
H132 C100 0.929 . S
H133 C101 0.930 . S
Li134 N151 1.990 1_455 S
Li134 O194 1.956 . S
Li134 O195 1.970 1_545 S
Li134 O196 1.961 . S
Li135 N159 1.990 . S
Li135 O194 1.970 . S
Li135 O195 1.956 1_545 S
Li135 O197 1.961 . S
Li136 N181 1.990 . S
Li136 O194 1.961 . S
Li136 O196 1.956 . S
Li136 O197 1.970 . S
Li137 N187 1.990 . S
Li137 O195 1.961 . S
Li137 O196 1.970 1_565 S
Li137 O197 1.956 1_565 S
C138 C140 1.348 . S
C138 C141 1.356 . S
C138 O194 1.325 . S
N139 C142 1.314 . S
N139 C143 1.279 . S
C140 C138 1.348 . S
C140 C142 1.353 . S
C140 H198 0.929 . S
C141 C138 1.356 . S
C141 C143 1.358 . S
C141 H199 0.930 . S
C142 N139 1.314 . S
C142 C140 1.353 . S
C142 H200 0.930 . S
C143 N139 1.279 . S
C143 C141 1.358 . S
C143 H201 0.930 . S
C144 C147 1.348 . S
C144 C148 1.356 . S
C144 O195 1.325 . S
C145 N146 1.279 . S
C145 C148 1.358 . S
C145 H202 0.930 . S
N146 C145 1.279 . S
N146 C149 1.314 . S
C147 C144 1.348 . S
C147 C149 1.353 . S
C147 H203 0.929 . S
C148 C144 1.356 . S
C148 C145 1.358 . S
C148 H204 0.930 . S
C149 N146 1.314 . S
C149 C147 1.353 . S
C149 H205 0.930 . S
C150 N151 1.314 . S
C150 C155 1.353 . S
C150 H156 0.930 1_545 S
N151 Li134 1.990 1_655 S
N151 C150 1.314 . S
N151 C153 1.279 . S
C152 C153 1.358 . S
C152 C154 1.356 . S
C152 H206 0.930 . S
C153 N151 1.279 . S
C153 C152 1.358 . S
C153 H157 0.930 . S
C154 C152 1.356 . S
C154 C155 1.348 . S
C155 C150 1.353 . S
C155 C154 1.348 . S
C155 H207 0.929 1_545 S
H156 C150 0.930 1_565 S
H157 C153 0.930 . S
C158 N159 1.314 . S
C158 C160 1.353 . S
C158 H164 0.930 . S
N159 Li135 1.990 . S
N159 C158 1.314 . S
N159 C162 1.279 . S
C160 C158 1.353 . S
C160 C163 1.348 . S
C160 H208 0.929 . S
C161 C162 1.358 . S
C161 C163 1.356 . S
C161 H209 0.930 1_545 S
C162 N159 1.279 . S
C162 C161 1.358 . S
C162 H165 0.930 1_545 S
C163 C160 1.348 . S
C163 C161 1.356 . S
H164 C158 0.930 . S
H165 C162 0.930 1_565 S
C166 C168 1.348 . S
C166 C169 1.356 . S
C166 O196 1.325 1_655 S
N167 C170 1.314 . S
N167 C171 1.279 . S
C168 C166 1.348 . S
C168 C170 1.353 . S
C168 H210 0.929 1_545 S
C169 C166 1.356 . S
C169 C171 1.358 . S
C169 H211 0.930 . S
C170 N167 1.314 . S
C170 C168 1.353 . S
C170 H212 0.930 1_545 S
C171 N167 1.279 . S
C171 C169 1.358 . S
C171 H213 0.930 . S
C172 C173 1.348 . S
C172 C174 1.356 . S
C172 O197 1.325 . S
C173 C172 1.348 . S
C173 C175 1.353 . S
C173 H214 0.929 . S
C174 C172 1.356 . S
C174 C176 1.358 . S
C174 H215 0.930 1_545 S
C175 C173 1.353 . S
C175 N177 1.314 . S
C175 H216 0.930 . S
C176 C174 1.358 . S
C176 N177 1.279 . S
C176 H217 0.930 1_545 S
N177 C175 1.314 . S
N177 C176 1.279 . S
C178 C180 1.353 . S
C178 N181 1.314 . S
C178 H184 0.930 . S
C179 N181 1.279 . S
C179 C182 1.358 . S
C179 H185 0.930 . S
C180 C178 1.353 . S
C180 C183 1.348 . S
C180 H218 0.929 . S
N181 Li136 1.990 . S
N181 C178 1.314 . S
N181 C179 1.279 . S
C182 C179 1.358 . S
C182 C183 1.356 . S
C182 H219 0.930 . S
C183 C180 1.348 . S
C183 C182 1.356 . S
H184 C178 0.930 . S
H185 C179 0.930 . S
C186 N187 1.314 . S
C186 C188 1.353 . S
C186 H192 0.930 . S
N187 Li137 1.990 . S
N187 C186 1.314 . S
N187 C190 1.279 . S
C188 C186 1.353 . S
C188 C191 1.348 . S
C188 H220 0.929 . S
C189 C190 1.358 . S
C189 C191 1.356 . S
C189 H221 0.930 . S
C190 N187 1.279 . S
C190 C189 1.358 . S
C190 H193 0.930 . S
C191 C188 1.348 . S
C191 C189 1.356 . S
H192 C186 0.930 . S
H193 C190 0.930 . S
O194 Li134 1.956 . S
O194 Li135 1.970 . S
O194 Li136 1.961 . S
O194 C138 1.325 . S
O195 Li134 1.970 1_565 S
O195 Li135 1.956 1_565 S
O195 Li137 1.961 . S
O195 C144 1.325 . S
O196 Li134 1.961 . S
O196 Li136 1.956 . S
O196 Li137 1.970 1_545 S
O196 C166 1.325 1_455 S
O197 Li135 1.961 . S
O197 Li136 1.970 . S
O197 Li137 1.956 1_545 S
O197 C172 1.325 . S
H198 C140 0.929 . S
H199 C141 0.930 . S
H200 C142 0.930 . S
H201 C143 0.930 . S
H202 C145 0.930 . S
H203 C147 0.929 . S
H204 C148 0.930 . S
H205 C149 0.930 . S
H206 C152 0.930 . S
H207 C155 0.929 1_565 S
H208 C160 0.929 . S
H209 C161 0.930 1_565 S
H210 C168 0.929 1_565 S
H211 C169 0.930 . S
H212 C170 0.930 1_565 S
H213 C171 0.930 . S
H214 C173 0.929 . S
H215 C174 0.930 1_565 S
H216 C175 0.930 . S
H217 C176 0.930 1_565 S
H218 C180 0.929 . S
H219 C182 0.930 . S
H220 C188 0.929 . S
H221 C189 0.930 . S
H222 C223 0.951 . S
C223 H222 0.951 . S
C223 C229 1.265 . S
H224 C229 0.950 . S
H225 C233 0.949 . S
H226 C234 0.950 . S
H227 C235 0.951 . S
H228 C236 0.951 . S
C229 C223 1.265 . S
C229 H224 0.950 . S
C229 C230 1.478 . S
C230 C229 1.478 . S
C230 C231 1.397 . S
C230 C247 1.394 . S
C231 C230 1.397 . S
C231 C232 1.438 . S
C231 C236 1.429 1_545 S
C232 C231 1.438 . S
C232 C233 1.428 1_545 S
C232 C245 1.394 . S
C233 H225 0.949 . S
C233 C232 1.428 1_565 S
C233 C234 1.345 . S
C234 H226 0.950 . S
C234 C233 1.345 . S
C234 C235 1.424 . S
C235 H227 0.951 . S
C235 C234 1.424 . S
C235 C236 1.347 . S
C236 H228 0.951 . S
C236 C231 1.429 1_565 S
C236 C235 1.347 . S
H237 C238 0.951 . S
C238 H237 0.951 . S
C238 C244 1.265 . S
H239 C244 0.950 . S
H240 C248 0.949 . S
H241 C249 0.950 . S
H242 C250 0.951 . S
H243 C251 0.951 . S
C244 C238 1.265 . S
C244 H239 0.950 . S
C244 C245 1.478 . S
C245 C232 1.394 . S
C245 C244 1.478 . S
C245 C246 1.397 . S
C246 C245 1.397 . S
C246 C247 1.438 . S
C246 C251 1.429 . S
C247 C230 1.394 . S
C247 C246 1.438 . S
C247 C248 1.428 . S
C248 H240 0.949 . S
C248 C247 1.428 . S
C248 C249 1.345 . S
C249 H241 0.950 . S
C249 C248 1.345 . S
C249 C250 1.424 . S
C250 H242 0.951 . S
C250 C249 1.424 . S
C250 C251 1.347 . S
C251 H243 0.951 . S
C251 C246 1.429 . S
C251 C250 1.347 . S
H252 C253 0.951 . S
C253 H252 0.951 . S
C253 C259 1.265 . S
H254 C259 0.950 . S
H255 C263 0.949 . S
H256 C264 0.950 . S
H257 C265 0.951 . S
H258 C266 0.951 . S
C259 C253 1.265 . S
C259 H254 0.950 . S
C259 C260 1.478 . S
C260 C259 1.478 . S
C260 C261 1.397 . S
C260 C277 1.394 . S
C261 C260 1.397 . S
C261 C262 1.438 . S
C261 C266 1.429 . S
C262 C261 1.438 . S
C262 C263 1.428 . S
C262 C275 1.394 . S
C263 H255 0.949 . S
C263 C262 1.428 . S
C263 C264 1.345 . S
C264 H256 0.950 . S
C264 C263 1.345 . S
C264 C265 1.424 . S
C265 H257 0.951 . S
C265 C264 1.424 . S
C265 C266 1.347 . S
C266 H258 0.951 . S
C266 C261 1.429 . S
C266 C265 1.347 . S
H267 C268 0.951 . S
C268 H267 0.951 . S
C268 C274 1.265 . S
H269 C274 0.950 . S
H270 C278 0.949 . S
H271 C279 0.950 . S
H272 C280 0.951 . S
H273 C281 0.951 . S
C274 C268 1.265 . S
C274 H269 0.950 . S
C274 C275 1.478 . S
C275 C262 1.394 . S
C275 C274 1.478 . S
C275 C276 1.397 . S
C276 C275 1.397 . S
C276 C277 1.438 . S
C276 C281 1.429 1_455 S
C277 C260 1.394 . S
C277 C276 1.438 . S
C277 C278 1.428 1_455 S
C278 H270 0.949 . S
C278 C277 1.428 1_655 S
C278 C279 1.345 . S
C279 H271 0.950 . S
C279 C278 1.345 . S
C279 C280 1.424 . S
C280 H272 0.951 . S
C280 C279 1.424 . S
C280 C281 1.347 . S
C281 H273 0.951 . S
C281 C276 1.429 1_655 S
C281 C280 1.347 . S
H282 C283 0.951 . S
C283 H282 0.951 . S
C283 C289 1.265 . S
H284 C289 0.950 . S
H285 C293 0.949 . S
H286 C294 0.950 . S
H287 C295 0.951 . S
H288 C296 0.951 . S
C289 C283 1.265 . S
C289 H284 0.950 . S
C289 C290 1.478 . S
C290 C289 1.478 . S
C290 C291 1.397 . S
C290 C307 1.394 . S
C291 C290 1.397 . S
C291 C292 1.438 . S
C291 C296 1.429 . S
C292 C291 1.438 . S
C292 C293 1.428 . S
C292 C305 1.394 . S
C293 H285 0.949 . S
C293 C292 1.428 . S
C293 C294 1.345 . S
C294 H286 0.950 . S
C294 C293 1.345 . S
C294 C295 1.424 . S
C295 H287 0.951 . S
C295 C294 1.424 . S
C295 C296 1.347 . S
C296 H288 0.951 . S
C296 C291 1.429 . S
C296 C295 1.347 . S
H297 C298 0.951 . S
C298 H297 0.951 . S
C298 C304 1.265 . S
H299 C304 0.950 . S
H300 C308 0.949 . S
H301 C309 0.950 . S
H302 C310 0.951 . S
H303 C311 0.951 . S
C304 C298 1.265 . S
C304 H299 0.950 . S
C304 C305 1.478 . S
C305 C292 1.394 . S
C305 C304 1.478 . S
C305 C306 1.397 . S
C306 C305 1.397 . S
C306 C307 1.438 . S
C306 C311 1.429 1_545 S
C307 C290 1.394 . S
C307 C306 1.438 . S
C307 C308 1.428 1_545 S
C308 H300 0.949 . S
C308 C307 1.428 1_565 S
C308 C309 1.345 . S
C309 H301 0.950 . S
C309 C308 1.345 . S
C309 C310 1.424 . S
C310 H302 0.951 . S
C310 C309 1.424 . S
C310 C311 1.347 . S
C311 H303 0.951 . S
C311 C306 1.429 1_565 S
C311 C310 1.347 . S
H312 C313 0.951 . S
C313 H312 0.951 . S
C313 C319 1.265 . S
H314 C319 0.950 . S
H315 C323 0.949 . S
H316 C324 0.950 . S
H317 C325 0.951 . S
H318 C326 0.951 . S
C319 C313 1.265 . S
C319 H314 0.950 . S
C319 C320 1.478 . S
C320 C319 1.478 . S
C320 C321 1.397 . S
C320 C337 1.394 . S
C321 C320 1.397 . S
C321 C322 1.438 . S
C321 C326 1.429 . S
C322 C321 1.438 . S
C322 C323 1.428 . S
C322 C335 1.394 . S
C323 H315 0.949 . S
C323 C322 1.428 . S
C323 C324 1.345 . S
C324 H316 0.950 . S
C324 C323 1.345 . S
C324 C325 1.424 . S
C325 H317 0.951 . S
C325 C324 1.424 . S
C325 C326 1.347 . S
C326 H318 0.951 . S
C326 C321 1.429 . S
C326 C325 1.347 . S
H327 C328 0.951 . S
C328 H327 0.951 . S
C328 C334 1.265 . S
H329 C334 0.950 . S
H330 C338 0.949 . S
H331 C339 0.950 . S
H332 C340 0.951 . S
H333 C341 0.951 . S
C334 C328 1.265 . S
C334 H329 0.950 . S
C334 C335 1.478 . S
C335 C322 1.394 . S
C335 C334 1.478 . S
C335 C336 1.397 . S
C336 C335 1.397 . S
C336 C337 1.438 . S
C336 C341 1.429 . S
C337 C320 1.394 . S
C337 C336 1.438 . S
C337 C338 1.428 . S
C338 H330 0.949 . S
C338 C337 1.428 . S
C338 C339 1.345 . S
C339 H331 0.950 . S
C339 C338 1.345 . S
C339 C340 1.424 . S
C340 H332 0.951 . S
C340 C339 1.424 . S
C340 C341 1.347 . S
C341 H333 0.951 . S
C341 C336 1.429 . S
C341 C340 1.347 . S
H342 C343 0.951 . S
C343 H342 0.951 . S
C343 C349 1.265 . S
H344 C349 0.950 . S
H345 C353 0.949 . S
H346 C354 0.950 . S
H347 C355 0.951 . S
H348 C356 0.951 . S
C349 C343 1.265 . S
C349 H344 0.950 . S
C349 C350 1.478 . S
C350 C349 1.478 . S
C350 C351 1.397 . S
C350 C367 1.394 1_545 S
C351 C350 1.397 . S
C351 C352 1.438 . S
C351 C356 1.429 . S
C352 C351 1.438 . S
C352 C353 1.428 . S
C352 C365 1.394 . S
C353 H345 0.949 . S
C353 C352 1.428 . S
C353 C354 1.345 . S
C354 H346 0.950 . S
C354 C353 1.345 . S
C354 C355 1.424 . S
C355 H347 0.951 . S
C355 C354 1.424 . S
C355 C356 1.347 . S
C356 H348 0.951 . S
C356 C351 1.429 . S
C356 C355 1.347 . S
H357 C358 0.951 . S
C358 H357 0.951 . S
C358 C364 1.265 . S
H359 C364 0.950 . S
H360 C368 0.949 . S
H361 C369 0.950 . S
H362 C370 0.951 . S
H363 C371 0.951 . S
C364 C358 1.265 . S
C364 H359 0.950 . S
C364 C365 1.478 . S
C365 C352 1.394 . S
C365 C364 1.478 . S
C365 C366 1.397 1_545 S
C366 C365 1.397 1_565 S
C366 C367 1.438 . S
C366 C371 1.429 . S
C367 C350 1.394 1_565 S
C367 C366 1.438 . S
C367 C368 1.428 . S
C368 H360 0.949 . S
C368 C367 1.428 . S
C368 C369 1.345 . S
C369 H361 0.950 . S
C369 C368 1.345 . S
C369 C370 1.424 . S
C370 H362 0.951 . S
C370 C369 1.424 . S
C370 C371 1.347 . S
C371 H363 0.951 . S
C371 C366 1.429 . S
C371 C370 1.347 . S
H372 C373 0.951 . S
C373 H372 0.951 . S
C373 C379 1.265 . S
H374 C379 0.950 . S
H375 C383 0.949 . S
H376 C384 0.950 . S
H377 C385 0.951 . S
H378 C386 0.951 . S
C379 C373 1.265 . S
C379 H374 0.950 . S
C379 C380 1.478 . S
C380 C379 1.478 . S
C380 C381 1.397 . S
C380 C397 1.394 . S
C381 C380 1.397 . S
C381 C382 1.438 . S
C381 C386 1.429 . S
C382 C381 1.438 . S
C382 C383 1.428 . S
C382 C395 1.394 . S
C383 H375 0.949 . S
C383 C382 1.428 . S
C383 C384 1.345 . S
C384 H376 0.950 . S
C384 C383 1.345 . S
C384 C385 1.424 . S
C385 H377 0.951 . S
C385 C384 1.424 . S
C385 C386 1.347 . S
C386 H378 0.951 . S
C386 C381 1.429 . S
C386 C385 1.347 . S
H387 C388 0.951 . S
C388 H387 0.951 . S
C388 C394 1.265 . S
H389 C394 0.950 . S
H390 C398 0.949 . S
H391 C399 0.950 . S
H392 C400 0.951 . S
H393 C401 0.951 . S
C394 C388 1.265 . S
C394 H389 0.950 . S
C394 C395 1.478 . S
C395 C382 1.394 . S
C395 C394 1.478 . S
C395 C396 1.397 . S
C396 C395 1.397 . S
C396 C397 1.438 . S
C396 C401 1.429 1_455 S
C397 C380 1.394 . S
C397 C396 1.438 . S
C397 C398 1.428 1_455 S
C398 H390 0.949 . S
C398 C397 1.428 1_655 S
C398 C399 1.345 . S
C399 H391 0.950 . S
C399 C398 1.345 . S
C399 C400 1.424 . S
C400 H392 0.951 . S
C400 C399 1.424 . S
C400 C401 1.347 . S
C401 H393 0.951 . S
C401 C396 1.429 1_655 S
C401 C400 1.347 . S
H402 C403 0.951 . S
C403 H402 0.951 . S
C403 C409 1.265 . S
H404 C409 0.950 . S
H405 C413 0.949 . S
H406 C414 0.950 . S
H407 C415 0.951 . S
H408 C416 0.951 . S
C409 C403 1.265 . S
C409 H404 0.950 . S
C409 C410 1.478 . S
C410 C409 1.478 . S
C410 C411 1.397 . S
C410 C427 1.394 . S
C411 C410 1.397 . S
C411 C412 1.438 . S
C411 C416 1.429 . S
C412 C411 1.438 . S
C412 C413 1.428 . S
C412 C425 1.394 . S
C413 H405 0.949 . S
C413 C412 1.428 . S
C413 C414 1.345 . S
C414 H406 0.950 . S
C414 C413 1.345 . S
C414 C415 1.424 . S
C415 H407 0.951 . S
C415 C414 1.424 . S
C415 C416 1.347 . S
C416 H408 0.951 . S
C416 C411 1.429 . S
C416 C415 1.347 . S
H417 C418 0.951 . S
C418 H417 0.951 . S
C418 C424 1.265 . S
H419 C424 0.950 . S
H420 C428 0.949 . S
H421 C429 0.950 . S
H422 C430 0.951 . S
H423 C431 0.951 . S
C424 C418 1.265 . S
C424 H419 0.950 . S
C424 C425 1.478 . S
C425 C412 1.394 . S
C425 C424 1.478 . S
C425 C426 1.397 . S
C426 C425 1.397 . S
C426 C427 1.438 . S
C426 C431 1.429 1_545 S
C427 C410 1.394 . S
C427 C426 1.438 . S
C427 C428 1.428 1_545 S
C428 H420 0.949 . S
C428 C427 1.428 1_565 S
C428 C429 1.345 . S
C429 H421 0.950 . S
C429 C428 1.345 . S
C429 C430 1.424 . S
C430 H422 0.951 . S
C430 C429 1.424 . S
C430 C431 1.347 . S
C431 H423 0.951 . S
C431 C426 1.429 1_565 S
C431 C430 1.347 . S
H432 C433 0.951 . S
C433 H432 0.951 . S
C433 C439 1.265 . S
H434 C439 0.950 1_655 S
H435 C443 0.949 . S
H436 C444 0.950 . S
H437 C445 0.951 . S
H438 C446 0.951 . S
C439 C433 1.265 . S
C439 H434 0.950 1_455 S
C439 C440 1.478 . S
C440 C439 1.478 . S
C440 C441 1.397 . S
C440 C457 1.394 . S
C441 C440 1.397 . S
C441 C442 1.438 . S
C441 C446 1.429 . S
C442 C441 1.438 . S
C442 C443 1.428 . S
C442 C455 1.394 . S
C443 H435 0.949 . S
C443 C442 1.428 . S
C443 C444 1.345 . S
C444 H436 0.950 . S
C444 C443 1.345 . S
C444 C445 1.424 . S
C445 H437 0.951 . S
C445 C444 1.424 . S
C445 C446 1.347 . S
C446 H438 0.951 . S
C446 C441 1.429 . S
C446 C445 1.347 . S
H447 C448 0.951 . S
C448 H447 0.951 . S
C448 C454 1.265 . S
H449 C454 0.950 . S
H450 C458 0.949 . S
H451 C459 0.950 . S
H452 C460 0.951 . S
H453 C461 0.951 . S
C454 C448 1.265 . S
C454 H449 0.950 . S
C454 C455 1.478 . S
C455 C442 1.394 . S
C455 C454 1.478 . S
C455 C456 1.397 . S
C456 C455 1.397 . S
C456 C457 1.438 . S
C456 C461 1.429 . S
C457 C440 1.394 . S
C457 C456 1.438 . S
C457 C458 1.428 . S
C458 H450 0.949 . S
C458 C457 1.428 . S
C458 C459 1.345 . S
C459 H451 0.950 . S
C459 C458 1.345 . S
C459 C460 1.424 . S
C460 H452 0.951 . S
C460 C459 1.424 . S
C460 C461 1.347 . S
C461 H453 0.951 . S
C461 C456 1.429 . S
C461 C460 1.347 . S
C238 C95 1.448 . S
C223 N12 1.379 . S
C268 C183 1.496 . S
C253 N25 1.426 . S
C298 C103 1.433 . S
C283 C16 1.421 . S
C328 C191 1.476 . S
C313 C30 1.475 . S
C358 C163 1.480 . S
C343 C7 1.476 . S
C388 C66 1.433 . S
C373 C39 1.447 . S
C418 C154 1.493 . S
C403 N2 1.488 . S
C433 N35 1.383 . S
C448 C75 1.443 . S
