# Generated by pormake.
# Topology ocu, (6,8)-cn, num edge types: 1
# Building blocks:
#     Node 0, Type 0, BuildingBlock: UKALOJ_clean_sbu_0, # of connection points: 6
#     Node 1, Type 0, BuildingBlock: UKALOJ_clean_sbu_0, # of connection points: 6
#     Node 2, Type 0, BuildingBlock: UKALOJ_clean_sbu_0, # of connection points: 6
#     Node 3, Type 0, BuildingBlock: UKALOJ_clean_sbu_0, # of connection points: 6
#     Node 4, Type 0, BuildingBlock: UKALOJ_clean_sbu_0, # of connection points: 6
#     Node 5, Type 0, BuildingBlock: UKALOJ_clean_sbu_0, # of connection points: 6
#     Node 6, Type 0, BuildingBlock: UKALOJ_clean_sbu_0, # of connection points: 6
#     Node 7, Type 0, BuildingBlock: UKALOJ_clean_sbu_0, # of connection points: 6
#     Node 8, Type 1, BuildingBlock: LIZSOE_clean_sbu_0, # of connection points: 8
#     Node 9, Type 1, BuildingBlock: LIZSOE_clean_sbu_0, # of connection points: 8
#     Node 10, Type 1, BuildingBlock: LIZSOE_clean_sbu_0, # of connection points: 8
#     Node 11, Type 1, BuildingBlock: LIZSOE_clean_sbu_0, # of connection points: 8
#     Node 12, Type 1, BuildingBlock: LIZSOE_clean_sbu_0, # of connection points: 8
#     Node 13, Type 1, BuildingBlock: LIZSOE_clean_sbu_0, # of connection points: 8
#     Edge 14, Type (0, 1), BuildingBlock: EZIPEK_clean_linker_0, # of connection points: 2
#     Edge 15, Type (0, 1), BuildingBlock: EZIPEK_clean_linker_0, # of connection points: 2
#     Edge 16, Type (0, 1), BuildingBlock: EZIPEK_clean_linker_0, # of connection points: 2
#     Edge 17, Type (0, 1), BuildingBlock: EZIPEK_clean_linker_0, # of connection points: 2
#     Edge 18, Type (0, 1), BuildingBlock: EZIPEK_clean_linker_0, # of connection points: 2
#     Edge 19, Type (0, 1), BuildingBlock: EZIPEK_clean_linker_0, # of connection points: 2
#     Edge 20, Type (0, 1), BuildingBlock: EZIPEK_clean_linker_0, # of connection points: 2
#     Edge 21, Type (0, 1), BuildingBlock: EZIPEK_clean_linker_0, # of connection points: 2
#     Edge 22, Type (0, 1), BuildingBlock: EZIPEK_clean_linker_0, # of connection points: 2
#     Edge 23, Type (0, 1), BuildingBlock: EZIPEK_clean_linker_0, # of connection points: 2
#     Edge 24, Type (0, 1), BuildingBlock: EZIPEK_clean_linker_0, # of connection points: 2
#     Edge 25, Type (0, 1), BuildingBlock: EZIPEK_clean_linker_0, # of connection points: 2
#     Edge 26, Type (0, 1), BuildingBlock: EZIPEK_clean_linker_0, # of connection points: 2
#     Edge 27, Type (0, 1), BuildingBlock: EZIPEK_clean_linker_0, # of connection points: 2
#     Edge 28, Type (0, 1), BuildingBlock: EZIPEK_clean_linker_0, # of connection points: 2
#     Edge 29, Type (0, 1), BuildingBlock: EZIPEK_clean_linker_0, # of connection points: 2
#     Edge 30, Type (0, 1), BuildingBlock: EZIPEK_clean_linker_0, # of connection points: 2
#     Edge 31, Type (0, 1), BuildingBlock: EZIPEK_clean_linker_0, # of connection points: 2
#     Edge 32, Type (0, 1), BuildingBlock: EZIPEK_clean_linker_0, # of connection points: 2
#     Edge 33, Type (0, 1), BuildingBlock: EZIPEK_clean_linker_0, # of connection points: 2
#     Edge 34, Type (0, 1), BuildingBlock: EZIPEK_clean_linker_0, # of connection points: 2
#     Edge 35, Type (0, 1), BuildingBlock: EZIPEK_clean_linker_0, # of connection points: 2
#     Edge 36, Type (0, 1), BuildingBlock: EZIPEK_clean_linker_0, # of connection points: 2
#     Edge 37, Type (0, 1), BuildingBlock: EZIPEK_clean_linker_0, # of connection points: 2
#     Edge 38, Type (0, 1), BuildingBlock: EZIPEK_clean_linker_0, # of connection points: 2
#     Edge 39, Type (0, 1), BuildingBlock: EZIPEK_clean_linker_0, # of connection points: 2
#     Edge 40, Type (0, 1), BuildingBlock: EZIPEK_clean_linker_0, # of connection points: 2
#     Edge 41, Type (0, 1), BuildingBlock: EZIPEK_clean_linker_0, # of connection points: 2
#     Edge 42, Type (0, 1), BuildingBlock: EZIPEK_clean_linker_0, # of connection points: 2
#     Edge 43, Type (0, 1), BuildingBlock: EZIPEK_clean_linker_0, # of connection points: 2
#     Edge 44, Type (0, 1), BuildingBlock: EZIPEK_clean_linker_0, # of connection points: 2
#     Edge 45, Type (0, 1), BuildingBlock: EZIPEK_clean_linker_0, # of connection points: 2
#     Edge 46, Type (0, 1), BuildingBlock: EZIPEK_clean_linker_0, # of connection points: 2
#     Edge 47, Type (0, 1), BuildingBlock: EZIPEK_clean_linker_0, # of connection points: 2
#     Edge 48, Type (0, 1), BuildingBlock: EZIPEK_clean_linker_0, # of connection points: 2
#     Edge 49, Type (0, 1), BuildingBlock: EZIPEK_clean_linker_0, # of connection points: 2
#     Edge 50, Type (0, 1), BuildingBlock: EZIPEK_clean_linker_0, # of connection points: 2
#     Edge 51, Type (0, 1), BuildingBlock: EZIPEK_clean_linker_0, # of connection points: 2
#     Edge 52, Type (0, 1), BuildingBlock: EZIPEK_clean_linker_0, # of connection points: 2
#     Edge 53, Type (0, 1), BuildingBlock: EZIPEK_clean_linker_0, # of connection points: 2
#     Edge 54, Type (0, 1), BuildingBlock: EZIPEK_clean_linker_0, # of connection points: 2
#     Edge 55, Type (0, 1), BuildingBlock: EZIPEK_clean_linker_0, # of connection points: 2
#     Edge 56, Type (0, 1), BuildingBlock: EZIPEK_clean_linker_0, # of connection points: 2
#     Edge 57, Type (0, 1), BuildingBlock: EZIPEK_clean_linker_0, # of connection points: 2
#     Edge 58, Type (0, 1), BuildingBlock: EZIPEK_clean_linker_0, # of connection points: 2
#     Edge 59, Type (0, 1), BuildingBlock: EZIPEK_clean_linker_0, # of connection points: 2
#     Edge 60, Type (0, 1), BuildingBlock: EZIPEK_clean_linker_0, # of connection points: 2
#     Edge 61, Type (0, 1), BuildingBlock: EZIPEK_clean_linker_0, # of connection points: 2
# Relax obj value: 0.247
# Max RMSD: 0.299
# Mean RMSD: 0.202
data_MOF--net-ocu--node1-UKALOJ_clean_sbu_0--node2-LIZSOE_clean_sbu_0--edge1-EZIPEK_clean_linker_0
_symmetry_space_group_name_H-M    P1
_symmetry_Int_Tables_number       1
_symmetry_cell_setting            triclinic
loop_
_symmetry_equiv_pos_as_xyz
'x, y, z'
_cell_length_a     29.248091
_cell_length_b     29.455528
_cell_length_c     30.148102
_cell_angle_alpha  105.42065
_cell_angle_beta   74.733832
_cell_angle_gamma 98.734369
loop_
_atom_site_label
_atom_site_type_symbol
_atom_site_fract_x
_atom_site_fract_y
_atom_site_fract_z
_atom_type_partial_charge
Zn0 Zn 0.25637 0.25717 0.26767 0.0
O1 O 0.2049 0.301 0.32166 0.0
C2 C 0.25786 0.32288 0.21015 0.0
Zn3 Zn 0.31386 0.31246 0.27852 0.0
C4 C 0.21962 0.34138 0.34397 0.0
O5 O 0.26397 0.35333 0.33512 0.0
C6 C 0.3498 0.22802 0.20176 0.0
O7 O 0.33521 0.28555 0.3268 0.0
O8 O 0.27676 0.23113 0.31854 0.0
N9 N 0.36117 0.36931 0.28706 0.0
C10 C 0.38886 0.3871 0.25149 0.0
C11 C 0.36832 0.44549 0.30976 0.0
N12 N 0.34936 0.40551 0.32368 0.0
N13 N 0.39268 0.43452 0.26439 0.0
C14 C 0.17845 0.18203 0.29224 0.0
C15 C 0.17879 0.1324 0.22606 0.0
N16 N 0.20828 0.20116 0.25875 0.0
N17 N 0.20861 0.17049 0.21749 0.0
N18 N 0.16027 0.13896 0.27289 0.0
H19 H 0.13371 0.22454 0.35155 0.0
H20 H 0.19475 0.23118 0.35452 0.0
H21 H 0.1579 0.1793 0.36603 0.0
C22 C 0.16591 0.20555 0.34401 0.0
C23 C 0.40934 0.35848 0.20276 0.0
H24 H 0.42883 0.33027 0.20556 0.0
H25 H 0.43498 0.38039 0.18097 0.0
H26 H 0.3805 0.34219 0.18444 0.0
O27 O 0.36398 0.26984 0.22113 0.0
O28 O 0.30627 0.21428 0.21507 0.0
C29 C 0.3107 0.24925 0.33832 0.0
O30 O 0.23669 0.28339 0.21666 0.0
O31 O 0.2913 0.34149 0.23052 0.0
Zn32 Zn 0.80716 0.25915 0.22302 0.0
O33 O 0.75894 0.20634 0.17951 0.0
C34 C 0.75019 0.34051 0.22781 0.0
Zn35 Zn 0.7488 0.27495 0.28532 0.0
C36 C 0.7142 0.19923 0.19737 0.0
O37 O 0.69996 0.22221 0.24062 0.0
C38 C 0.84129 0.33487 0.31153 0.0
O39 O 0.77153 0.21764 0.30394 0.0
O40 O 0.82933 0.20338 0.24087 0.0
N41 N 0.69413 0.28087 0.34277 0.0
C42 C 0.69056 0.26536 0.38176 0.0
C43 C 0.62048 0.26295 0.37267 0.0
N44 N 0.65042 0.28101 0.33805 0.0
N45 N 0.64507 0.25177 0.39976 0.0
C46 C 0.87141 0.27094 0.12955 0.0
C47 C 0.93832 0.2612 0.13926 0.0
N48 N 0.86277 0.25127 0.16656 0.0
N49 N 0.90434 0.24334 0.17146 0.0
N50 N 0.91829 0.28013 0.11366 0.0
H51 H 0.79944 0.26778 0.12281 0.0
H52 H 0.84497 0.27747 0.07191 0.0
H53 H 0.83326 0.32488 0.1233 0.0
C54 C 0.83469 0.28598 0.11117 0.0
C55 C 0.73131 0.25727 0.39954 0.0
H56 H 0.73548 0.21885 0.39092 0.0
H57 H 0.72303 0.26936 0.43871 0.0
H58 H 0.765 0.27633 0.38469 0.0
O59 O 0.79667 0.3265 0.32869 0.0
O60 O 0.85597 0.31288 0.26804 0.0
C61 C 0.80727 0.19507 0.28035 0.0
O62 O 0.7851 0.31663 0.20448 0.0
O63 O 0.72639 0.33181 0.26685 0.0
Zn64 Zn 0.80623 0.7898 0.24314 0.0
O65 O 0.79243 0.81581 0.19049 0.0
C66 C 0.72695 0.83515 0.31832 0.0
Zn67 Zn 0.74367 0.73831 0.25411 0.0
C68 C 0.75279 0.79791 0.18102 0.0
O69 O 0.72818 0.76811 0.20349 0.0
C70 C 0.79975 0.72844 0.31262 0.0
O71 O 0.77709 0.68285 0.19857 0.0
O72 O 0.84114 0.73221 0.19034 0.0
N73 N 0.67921 0.70118 0.25858 0.0
C74 C 0.66914 0.65678 0.25924 0.0
C75 C 0.65865 0.68241 0.25558 0.0
N76 N 0.6474 0.72344 0.24963 0.0
N77 N 0.63043 0.63902 0.24372 0.0
C78 C 0.88289 0.86075 0.27747 0.0
C79 C 0.9407 0.81755 0.24961 0.0
N80 N 0.87187 0.82713 0.24091 0.0
N81 N 0.90866 0.80116 0.22285 0.0
N82 N 0.92477 0.85458 0.28468 0.0
H83 H 0.83242 0.90908 0.28153 0.0
H84 H 0.88358 0.93476 0.30523 0.0
H85 H 0.83792 0.90158 0.33806 0.0
C86 C 0.85699 0.90381 0.30181 0.0
C87 C 0.69862 0.62451 0.2756 0.0
H88 H 0.73594 0.62433 0.25451 0.0
H89 H 0.68143 0.58792 0.27125 0.0
H90 H 0.69897 0.63909 0.31346 0.0
O91 O 0.7611 0.70867 0.30242 0.0
O92 O 0.81975 0.76336 0.29573 0.0
C93 C 0.82054 0.69107 0.17878 0.0
O94 O 0.76891 0.84581 0.296 0.0
O95 O 0.70945 0.79253 0.30917 0.0
Zn96 Zn 0.29197 0.77738 0.28645 0.0
O97 O 0.25858 0.83521 0.34291 0.0
C98 C 0.20795 0.70609 0.32478 0.0
Zn99 Zn 0.23712 0.77029 0.24777 0.0
C100 C 0.22181 0.84925 0.33742 0.0
O101 O 0.20668 0.8288 0.30084 0.0
C102 C 0.30881 0.70003 0.19645 0.0
O103 O 0.28003 0.8215 0.202 0.0
O104 O 0.33448 0.82881 0.24114 0.0
N105 N 0.17835 0.76506 0.22243 0.0
C106 C 0.15727 0.72607 0.19855 0.0
C107 C 0.10204 0.76912 0.24216 0.0
N108 N 0.14397 0.79209 0.24885 0.0
N109 N 0.1097 0.7273 0.21131 0.0
C110 C 0.37592 0.82183 0.32709 0.0
C111 C 0.41371 0.76308 0.32125 0.0
N112 N 0.34836 0.78257 0.31371 0.0
N113 N 0.37189 0.74593 0.30949 0.0
N114 N 0.41713 0.8106 0.33123 0.0
H115 H 0.33667 0.87514 0.31893 0.0
H116 H 0.39361 0.89682 0.33164 0.0
H117 H 0.34477 0.88175 0.37715 0.0
C118 C 0.36195 0.87154 0.33886 0.0
C119 C 0.18282 0.68638 0.16308 0.0
H120 H 0.21552 0.70085 0.14118 0.0
H121 H 0.16038 0.66533 0.139 0.0
H122 H 0.19211 0.6626 0.18178 0.0
O123 O 0.26937 0.71148 0.19422 0.0
O124 O 0.32542 0.72162 0.23194 0.0
C125 C 0.32104 0.84033 0.20873 0.0
O126 O 0.24933 0.72453 0.3308 0.0
O127 O 0.19407 0.71838 0.29299 0.0
Zn128 Zn 0.28413 0.76971 0.74167 0.0
O129 O 0.23536 0.71778 0.70061 0.0
C130 C 0.22314 0.84679 0.74875 0.0
Zn131 Zn 0.22827 0.78208 0.80658 0.0
C132 C 0.19154 0.70843 0.71989 0.0
O133 O 0.17809 0.72839 0.76426 0.0
C134 C 0.32273 0.84345 0.82665 0.0
O135 O 0.25443 0.72756 0.82484 0.0
O136 O 0.30931 0.71493 0.7591 0.0
N137 N 0.1766 0.78853 0.86712 0.0
C138 C 0.184 0.77759 0.92092 0.0
C139 C 0.0829 0.79242 0.92929 0.0
N140 N 0.1202 0.79703 0.87155 0.0
N141 N 0.12459 0.77907 0.95946 0.0
C142 C 0.34258 0.7769 0.64457 0.0
C143 C 0.41199 0.77498 0.65358 0.0
N144 N 0.33757 0.7625 0.68432 0.0
N145 N 0.38069 0.75966 0.68911 0.0
N146 N 0.3887 0.78684 0.62588 0.0
H147 H 0.26933 0.7686 0.64104 0.0
H148 H 0.31165 0.77776 0.58786 0.0
H149 H 0.29946 0.8265 0.63804 0.0
C150 C 0.30308 0.78791 0.62713 0.0
C151 C 0.22455 0.75694 0.92736 0.0
H152 H 0.25843 0.77236 0.90853 0.0
H153 H 0.2213 0.71812 0.91307 0.0
H154 H 0.22345 0.76399 0.96562 0.0
O155 O 0.27911 0.83464 0.84739 0.0
O156 O 0.33451 0.82304 0.78248 0.0
C157 C 0.29095 0.70705 0.79962 0.0
O158 O 0.25929 0.82549 0.72381 0.0
O159 O 0.20257 0.83754 0.78852 0.0
Zn160 Zn 0.3028 0.28804 0.75439 0.0
O161 O 0.28825 0.32053 0.70566 0.0
C162 C 0.22501 0.33553 0.82734 0.0
Zn163 Zn 0.23874 0.2379 0.76146 0.0
C164 C 0.24972 0.30239 0.69365 0.0
O165 O 0.22769 0.26662 0.70821 0.0
C166 C 0.28998 0.22424 0.82328 0.0
O167 O 0.27486 0.18082 0.70847 0.0
O168 O 0.336 0.2331 0.69965 0.0
N169 N 0.17362 0.20177 0.76189 0.0
C170 C 0.16256 0.15643 0.75649 0.0
C171 C 0.15285 0.18399 0.75628 0.0
N172 N 0.14302 0.22763 0.75584 0.0
N173 N 0.12396 0.14284 0.73956 0.0
C174 C 0.38658 0.34838 0.78823 0.0
C175 C 0.44497 0.31741 0.73527 0.0
N176 N 0.36894 0.32191 0.75175 0.0
N177 N 0.40535 0.30304 0.71872 0.0
N178 N 0.43376 0.34539 0.77906 0.0
H179 H 0.3357 0.39881 0.82568 0.0
H180 H 0.37993 0.3989 0.85663 0.0
H181 H 0.33382 0.35084 0.85339 0.0
C182 C 0.35751 0.37571 0.83368 0.0
C183 C 0.18978 0.11946 0.76923 0.0
H184 H 0.22474 0.11431 0.74398 0.0
H185 H 0.16842 0.08477 0.76707 0.0
H186 H 0.19578 0.13321 0.80541 0.0
O187 O 0.24978 0.20977 0.8138 0.0
O188 O 0.31643 0.25571 0.80441 0.0
C189 C 0.31815 0.19082 0.68903 0.0
O190 O 0.2688 0.34304 0.80869 0.0
O191 O 0.20404 0.29474 0.81477 0.0
Zn192 Zn 0.79354 0.27261 0.79031 0.0
O193 O 0.75233 0.32724 0.84406 0.0
C194 C 0.71079 0.19933 0.82297 0.0
Zn195 Zn 0.74428 0.26476 0.74586 0.0
C196 C 0.71465 0.33734 0.83629 0.0
O197 O 0.70457 0.31799 0.79679 0.0
C198 C 0.82127 0.19861 0.69976 0.0
O199 O 0.78832 0.3194 0.70411 0.0
O200 O 0.83837 0.32699 0.74792 0.0
N201 N 0.69275 0.25434 0.71121 0.0
C202 C 0.67038 0.21264 0.6945 0.0
C203 C 0.62833 0.26639 0.69551 0.0
N204 N 0.6666 0.28789 0.7123 0.0
N205 N 0.62988 0.21926 0.68522 0.0
C206 C 0.87319 0.31699 0.83849 0.0
C207 C 0.90128 0.25703 0.84552 0.0
N208 N 0.84411 0.27902 0.82528 0.0
N209 N 0.86143 0.24164 0.82945 0.0
N210 N 0.90948 0.30404 0.85043 0.0
H211 H 0.87116 0.39096 0.87279 0.0
H212 H 0.83216 0.36999 0.83301 0.0
H213 H 0.89573 0.37833 0.81032 0.0
C214 C 0.86724 0.36677 0.83861 0.0
C215 C 0.68841 0.16496 0.68534 0.0
H216 H 0.71015 0.15599 0.64849 0.0
H217 H 0.65855 0.13706 0.68901 0.0
H218 H 0.71071 0.16416 0.70928 0.0
O219 O 0.78458 0.21093 0.69256 0.0
O220 O 0.83306 0.21804 0.73846 0.0
C221 C 0.82815 0.33879 0.71374 0.0
O222 O 0.75043 0.21931 0.83202 0.0
O223 O 0.69958 0.21026 0.7889 0.0
Zn224 Zn 0.82036 0.82205 0.77352 0.0
O225 O 0.85531 0.80194 0.81656 0.0
C226 C 0.86161 0.74328 0.69437 0.0
Zn227 Zn 0.76862 0.76057 0.76811 0.0
C228 C 0.83714 0.76448 0.82982 0.0
O229 O 0.79954 0.7432 0.81782 0.0
C230 C 0.75263 0.81798 0.71095 0.0
O231 O 0.71373 0.797 0.82344 0.0
O232 O 0.76845 0.85488 0.83425 0.0
N233 N 0.73184 0.69707 0.76391 0.0
C234 C 0.68766 0.68399 0.78605 0.0
C235 C 0.73024 0.62731 0.77429 0.0
N236 N 0.75783 0.66122 0.75525 0.0
N237 N 0.68626 0.6411 0.79462 0.0
C238 C 0.88603 0.90631 0.74897 0.0
C239 C 0.8544 0.96171 0.80527 0.0
N240 N 0.85748 0.88599 0.78217 0.0
N241 N 0.83899 0.92051 0.81779 0.0
N242 N 0.88361 0.95341 0.76198 0.0
H243 H 0.93337 0.8538 0.70814 0.0
H244 H 0.94038 0.90417 0.68389 0.0
H245 H 0.88914 0.86191 0.6793 0.0
C246 C 0.91375 0.88008 0.70224 0.0
C247 C 0.64652 0.71381 0.80138 0.0
H248 H 0.64233 0.73281 0.83896 0.0
H249 H 0.61314 0.69089 0.79821 0.0
H250 H 0.6521 0.73995 0.77946 0.0
O251 O 0.73858 0.77724 0.71876 0.0
O252 O 0.78511 0.84328 0.72953 0.0
C253 C 0.72534 0.83884 0.8449 0.0
O254 O 0.87215 0.78706 0.71075 0.0
O255 O 0.82162 0.72524 0.71341 0.0
Co256 Co 0.08912 0.98926 0.56414 0.0
N257 N 0.11264 0.98713 0.61551 0.0
C258 C 0.10361 1.01658 0.65896 0.0
N259 N 0.14445 0.9619 0.66412 0.0
C260 C 0.13739 0.95383 0.61984 0.0
C261 C 0.12311 1.00132 0.68871 0.0
Co262 Co 0.94633 0.06288 0.46471 0.0
N263 N 0.91532 0.05844 0.41708 0.0
N264 N 0.87861 0.08115 0.37095 0.0
C265 C 0.88431 0.03489 0.35385 0.0
C266 C 0.90689 0.02092 0.38209 0.0
C267 C 0.89789 0.0947 0.40912 0.0
Co268 Co 0.02281 0.03196 0.5123 0.0
C269 C 0.9264 0.07522 0.53538 0.0
H270 H 0.91744 0.98586 0.37645 0.0
O271 O 0.07226 0.99008 0.51295 0.0
O272 O 0.06298 0.05136 0.45369 0.0
O273 O 0.05025 0.08973 0.55292 0.0
O274 O 0.97989 1.01513 0.56941 0.0
O275 O 0.02815 0.99082 0.6031 0.0
O276 O 1.00415 0.05854 0.42102 0.0
O277 O 0.97123 0.07065 0.51264 0.0
O278 O 0.93823 0.99689 0.45391 0.0
O279 O 0.09619 0.05503 0.58038 0.0
O280 O 0.145 0.98773 0.52319 0.0
O281 O 0.99851 0.97426 0.47184 0.0
O282 O 0.8944 0.06774 0.51069 0.0
C283 C 0.08108 0.09183 0.57668 0.0
C284 C 0.9014 0.14428 0.4384 0.0
H285 H 0.91566 0.14588 0.46951 0.0
H286 H 0.9253 0.16719 0.41649 0.0
H287 H 0.86578 0.158 0.45019 0.0
C288 C 0.04804 0.05843 0.41969 0.0
C289 C 0.98768 1.00101 0.60275 0.0
H290 H 0.0827 0.04639 0.66891 0.0
H291 H 0.13222 0.9057 0.55324 0.0
H292 H 0.14938 0.88 0.59438 0.0
H293 H 0.19126 0.91919 0.56389 0.0
C294 C 0.15311 0.91204 0.58053 0.0
C295 C 0.11764 0.98369 0.49432 0.0
C296 C 0.96448 0.96559 0.4516 0.0
H297 H 0.12031 1.01688 0.72602 0.0
H298 H 0.87413 1.01348 0.32223 0.0
Co299 Co 0.57327 0.95529 0.05779 0.0
N300 N 0.59372 0.93795 0.10301 0.0
C301 C 0.58664 0.95746 0.14993 0.0
N302 N 0.63424 0.90114 0.13419 0.0
C303 C 0.62225 0.90326 0.09464 0.0
C304 C 0.61186 0.93494 0.16921 0.0
Co305 Co 0.46078 0.08402 0.97514 0.0
N306 N 0.44674 0.10785 0.93064 0.0
N307 N 0.40546 0.14167 0.89757 0.0
C308 C 0.44738 0.13203 0.86684 0.0
C309 C 0.47272 0.11107 0.88715 0.0
C310 C 0.40567 0.1261 0.93573 0.0
Co311 Co 0.51708 1.01888 0.01531 0.0
C312 C 0.46995 0.11255 0.04198 0.0
H313 H 0.50745 0.09838 0.8707 0.0
O314 O 0.55961 0.96852 1.00868 0.0
O315 O 0.56928 0.04841 0.96416 0.0
O316 O 0.55083 0.06699 0.06532 0.0
O317 O 0.46567 0.98792 0.06667 0.0
O318 O 0.50885 0.94894 0.09338 0.0
O319 O 0.52665 0.09201 0.94387 0.0
O320 O 0.47178 0.067 0.02288 0.0
O321 O 0.44974 0.02107 0.93824 0.0
O322 O 0.58609 0.02001 0.08978 0.0
O323 O 0.63042 0.96044 0.01983 0.0
O324 O 0.48284 0.97218 0.96381 0.0
O325 O 0.46929 0.13975 0.01446 0.0
C326 C 0.57868 0.06147 0.09039 0.0
C327 C 0.36518 0.12708 0.9783 0.0
H328 H 0.35986 0.09263 0.98816 0.0
H329 H 0.37436 0.15474 1.00847 0.0
H330 H 0.3318 0.13475 0.9719 0.0
C331 C 0.56684 0.07883 0.94056 0.0
C332 C 0.46833 0.95979 0.09305 0.0
H333 H 0.56548 0.98684 0.16866 0.0
H334 H 0.64466 0.83618 0.04974 0.0
H335 H 0.67339 0.88736 0.02863 0.0
H336 H 0.61265 0.86772 0.02524 0.0
C337 C 0.63901 0.87155 0.04678 0.0
C338 C 0.60516 0.96323 0.99116 0.0
C339 C 0.45626 0.97896 0.93754 0.0
H340 H 0.61459 0.94335 0.20568 0.0
H341 H 0.45819 0.1386 0.83172 0.0
Co342 Co 0.10136 0.47107 0.047 0.0
N343 N 0.11983 0.44936 0.0917 0.0
C344 C 0.0959 0.40928 0.10274 0.0
N345 N 0.16154 0.41796 0.1272 0.0
C346 C 0.16019 0.45395 0.10738 0.0
C347 C 0.12091 0.39048 0.12474 0.0
Co348 Co 0.96891 0.56813 0.96265 0.0
N349 N 0.95415 0.5907 0.91697 0.0
N350 N 0.9231 0.63647 0.88605 0.0
C351 C 0.90727 0.59149 0.86985 0.0
C352 C 0.92611 0.56353 0.88904 0.0
C353 C 0.95209 0.63543 0.91385 0.0
Co354 Co 0.03469 0.51866 1.00489 0.0
C355 C 0.95897 0.59171 0.0324 0.0
H356 H 0.91609 0.52619 0.88625 0.0
O357 O 0.08948 0.48492 1.00109 0.0
O358 O 0.07841 0.5691 0.98123 0.0
O359 O 0.03536 0.55482 0.06928 0.0
O360 O 0.99317 0.46738 0.02896 0.0
O361 O 0.03668 0.45785 0.07618 0.0
O362 O 0.03415 0.59055 0.94257 0.0
O363 O 0.97524 0.54996 0.01111 0.0
O364 O 0.97664 0.50822 0.92161 0.0
O365 O 0.09925 0.53532 0.0846 0.0
O366 O 0.16073 0.48352 0.01289 0.0
O367 O 0.03461 0.48114 0.94003 0.0
O368 O 0.96219 0.6214 1.00647 0.0
C369 C 0.0669 0.56328 0.09274 0.0
C370 C 0.97537 0.67916 0.9408 0.0
H371 H 1.00718 0.67146 0.94985 0.0
H372 H 0.98591 0.7063 0.91968 0.0
H373 H 0.9495 0.69411 0.97388 0.0
C374 C 0.07331 0.59353 0.95447 0.0
C375 C 0.99958 0.44839 0.05977 0.0
H376 H 0.06394 0.39199 0.09193 0.0
H377 H 0.22532 0.4796 0.06623 0.0
H378 H 0.21902 0.49973 0.12913 0.0
H379 H 0.18564 0.52446 0.09942 0.0
C380 C 0.19974 0.49192 0.10041 0.0
C381 C 0.13483 0.48119 0.98297 0.0
C382 C 1.00336 0.47612 0.91647 0.0
H383 H 0.11111 0.35778 0.13628 0.0
H384 H 0.88158 0.58017 0.84811 0.0
Co385 Co 0.59234 0.48019 0.06036 0.0
N386 N 0.61097 0.46757 0.11115 0.0
C387 C 0.58167 0.45123 0.14764 0.0
N388 N 0.65409 0.44623 0.15319 0.0
C389 C 0.65522 0.4644 0.11582 0.0
C390 C 0.60779 0.43867 0.17326 0.0
Co391 Co 0.44786 0.5654 0.97235 0.0
N392 N 0.42677 0.57746 0.9218 0.0
N393 N 0.39022 0.60561 0.87855 0.0
C394 C 0.39153 0.559 0.86091 0.0
C395 C 0.41328 0.54193 0.88723 0.0
C396 C 0.41214 0.61646 0.91506 0.0
Co397 Co 0.51975 0.52281 0.01698 0.0
C398 C 0.44651 0.59999 0.03951 0.0
H399 H 0.41572 0.50471 0.88231 0.0
O400 O 0.57617 0.48685 0.01122 0.0
O401 O 0.56225 0.55127 0.9679 0.0
O402 O 0.54394 0.5772 0.06466 0.0
O403 O 0.47587 0.49562 0.06715 0.0
O404 O 0.53014 0.47802 0.09607 0.0
O405 O 0.51152 0.58192 0.94272 0.0
O406 O 0.46152 0.5572 0.02281 0.0
O407 O 0.45413 0.50305 0.93936 0.0
O408 O 0.59787 0.54414 0.08499 0.0
O409 O 0.58567 0.42038 0.03039 0.0
O410 O 0.50063 0.46903 0.96664 0.0
O411 O 0.44614 0.62344 1.00858 0.0
C412 C 0.57843 0.58009 0.08467 0.0
C413 C 0.4179 0.66549 0.94523 0.0
H414 H 0.39315 0.66809 0.98047 0.0
H415 H 0.45488 0.67352 0.94991 0.0
H416 H 0.41001 0.69233 0.92919 0.0
C417 C 0.55335 0.57431 0.94187 0.0
C418 C 0.48747 0.4834 0.09929 0.0
H419 H 0.54355 0.4445 0.15362 0.0
H420 H 0.70725 0.44438 0.05115 0.0
H421 H 0.73026 0.48538 0.09802 0.0
H422 H 0.69468 0.50518 0.06661 0.0
C423 C 0.69963 0.47577 0.08104 0.0
C424 C 0.58382 0.44181 0.99823 0.0
C425 C 0.4761 0.46836 0.93712 0.0
H426 H 0.5938 0.42104 0.20196 0.0
H427 H 0.37556 0.5384 0.83241 0.0
Co428 Co 0.07923 0.46374 0.55826 0.0
N429 N 0.10363 0.44821 0.60164 0.0
C430 C 0.10097 0.47031 0.64744 0.0
N431 N 0.14829 0.41352 0.63047 0.0
C432 C 0.1319 0.4131 0.59252 0.0
C433 C 0.12849 0.44911 0.66521 0.0
Co434 Co 0.95799 0.58093 0.47275 0.0
N435 N 0.94163 0.5993 0.42631 0.0
N436 N 0.90235 0.62982 0.38858 0.0
C437 C 0.93248 0.60042 0.35604 0.0
C438 C 0.95651 0.58159 0.37933 0.0
C439 C 0.90865 0.62872 0.43102 0.0
Co440 Co 1.01735 0.52233 0.51703 0.0
C441 C 0.96972 0.61456 0.53789 0.0
H442 H 0.98274 0.55616 0.36315 0.0
O443 O 0.06243 0.47553 0.51114 0.0
O444 O 0.0686 0.55498 0.46723 0.0
O445 O 0.04637 0.57232 0.56997 0.0
O446 O 0.96772 0.48781 0.56754 0.0
O447 O 1.01541 0.4554 0.59588 0.0
O448 O 0.02389 0.58976 0.43929 0.0
O449 O 0.97034 0.56829 0.5229 0.0
O450 O 0.9483 0.51719 0.43942 0.0
O451 O 0.08838 0.52853 0.59083 0.0
O452 O 0.13547 0.47071 0.51828 0.0
O453 O 0.98689 0.47237 0.46381 0.0
O454 O 0.96659 0.63826 0.5082 0.0
C455 C 0.07555 0.56879 0.59467 0.0
C456 C 0.88321 0.65698 0.47784 0.0
H457 H 0.87432 0.63535 0.50452 0.0
H458 H 0.90711 0.68824 0.49 0.0
H459 H 0.85038 0.66971 0.47546 0.0
C460 C 0.06501 0.58132 0.4398 0.0
C461 C 0.97329 0.46149 0.59475 0.0
H462 H 0.08024 0.49969 0.66676 0.0
H463 H 0.14643 0.34246 0.55173 0.0
H464 H 0.17524 0.38914 0.52322 0.0
H465 H 0.11246 0.37337 0.52827 0.0
C466 C 0.14184 0.37716 0.5463 0.0
C467 C 0.10762 0.47154 0.49124 0.0
C468 C 0.95873 0.47642 0.43784 0.0
H469 H 0.13255 0.45804 0.70129 0.0
H470 H 0.93729 0.59387 0.31808 0.0
Co471 Co 0.59105 0.95329 0.54312 0.0
N472 N 0.6005 0.92127 0.58458 0.0
C473 C 0.57143 0.88654 0.60201 0.0
N474 N 0.63898 0.88889 0.62191 0.0
C475 C 0.6415 0.92197 0.5975 0.0
C476 C 0.59488 0.86698 0.62518 0.0
Co477 Co 0.46018 0.07136 0.4729 0.0
N478 N 0.45043 0.10037 0.4298 0.0
N479 N 0.41732 0.14228 0.39682 0.0
C480 C 0.45878 0.12942 0.36695 0.0
C481 C 0.4791 0.10343 0.3873 0.0
C482 C 0.41283 0.12398 0.43441 0.0
Co483 Co 0.52624 1.01353 0.50809 0.0
C484 C 0.45372 0.08958 0.54317 0.0
H485 H 0.51274 0.08803 0.37225 0.0
O486 O 0.58533 0.97912 0.49802 0.0
O487 O 0.56919 0.06874 0.49412 0.0
O488 O 0.52478 0.04059 0.57619 0.0
O489 O 0.48277 0.95918 0.52214 0.0
O490 O 0.52644 0.93231 0.55762 0.0
O491 O 0.5242 0.09436 0.4585 0.0
O492 O 0.46678 0.0474 0.51846 0.0
O493 O 0.46865 1.01561 0.4266 0.0
O494 O 0.58254 1.00876 0.59062 0.0
O495 O 0.59937 0.90484 0.49501 0.0
O496 O 0.52809 0.98603 0.43986 0.0
O497 O 0.45164 0.12086 0.52055 0.0
C498 C 0.55529 0.04145 0.59982 0.0
C499 C 0.37139 0.12911 0.47648 0.0
H500 H 0.36705 0.09895 0.49319 0.0
H501 H 0.37808 0.16227 0.50274 0.0
H502 H 0.33812 0.13116 0.46627 0.0
C503 C 0.56248 0.09626 0.47113 0.0
C504 C 0.48795 0.93225 0.54623 0.0
H505 H 0.53599 0.87447 0.59691 0.0
H506 H 0.70951 0.93467 0.55254 0.0
H507 H 0.70358 0.96607 0.61336 0.0
H508 H 0.67511 0.98513 0.57522 0.0
C509 C 0.68484 0.95419 0.58412 0.0
C510 C 0.59772 0.93673 0.47296 0.0
C511 C 0.49691 0.9839 0.4167 0.0
H512 H 0.58101 0.83826 0.64252 0.0
H513 H 0.47323 0.13842 0.33311 0.0
C514 C 0.14743 0.07327 0.31175 0.0
C515 C 0.12861 0.10815 0.29886 0.0
C516 C 0.06541 0.11594 0.36976 0.0
C517 C 0.08043 0.07735 0.38079 0.0
N518 N 0.13345 1.01565 0.35893 0.0
N519 N 0.06474 0.15422 0.30831 0.0
C520 C 0.12075 0.05468 0.35071 0.0
C521 C 0.08483 0.12521 0.32488 0.0
N522 N 0.19202 0.06034 0.28868 0.0
N523 N 0.03524 0.14581 0.40346 0.0
H524 H 0.07964 0.16175 0.27526 0.0
H525 H 0.03204 0.16756 0.32553 0.0
H526 H 0.02404 0.14319 0.43862 0.0
H527 H 0.02623 0.17654 0.39819 0.0
H528 H 0.2102 0.03957 0.30018 0.0
H529 H 0.21182 0.07267 0.25934 0.0
H530 H 0.15907 0.99455 0.33505 0.0
H531 H 0.11644 1.00321 0.38875 0.0
C532 C 0.7957 0.12841 0.32113 0.0
C533 C 0.82631 0.16389 0.30151 0.0
C534 C 0.89283 0.1397 0.32263 0.0
C535 C 0.86076 0.10991 0.34855 0.0
N536 N 0.7806 0.07935 0.37744 0.0
N537 N 0.90339 0.20893 0.29169 0.0
C538 C 0.81178 0.10529 0.34928 0.0
C539 C 0.87485 0.171 0.30423 0.0
N540 N 0.7525 0.11462 0.31036 0.0
N541 N 0.9406 0.13687 0.3141 0.0
H542 H 0.89147 0.23404 0.2799 0.0
H543 H 0.9375 0.21802 0.29763 0.0
H544 H 0.95491 0.11402 0.32697 0.0
H545 H 0.96533 0.15358 0.29032 0.0
H546 H 0.73167 0.08478 0.31871 0.0
H547 H 0.74063 0.12929 0.28795 0.0
H548 H 0.74379 0.07842 0.38291 0.0
H549 H 0.79167 0.06213 0.39841 0.0
C550 C 0.98497 0.89941 0.32731 0.0
C551 C 0.9407 0.87285 0.32783 0.0
C552 C 0.91917 0.89448 0.41443 0.0
C553 C 0.96262 0.92257 0.41375 0.0
N554 N 0.04407 0.93593 0.37146 0.0
N555 N 0.87504 0.83034 0.3711 0.0
C556 C 0.99812 0.91953 0.3708 0.0
C557 C 0.91067 0.86569 0.37134 0.0
N558 N 1.0131 0.90773 0.28581 0.0
N559 N 0.88565 0.89659 0.456 0.0
H560 H 0.87188 0.80681 0.33966 0.0
H561 H 0.8537 0.82093 0.40144 0.0
H562 H 0.89255 0.91553 0.4885 0.0
H563 H 0.85087 0.88128 0.45783 0.0
H564 H 0.04347 0.93144 0.28416 0.0
H565 H 1.00392 0.8937 0.25339 0.0
H566 H 0.07186 0.93082 0.34129 0.0
H567 H 0.05514 0.94895 0.40281 0.0
C568 C 0.14757 0.87078 0.4007 0.0
C569 C 0.19305 0.88544 0.37489 0.0
C570 C 0.18192 0.96785 0.41965 0.0
C571 C 0.13638 0.95334 0.44592 0.0
N572 N 0.07225 0.89135 0.45465 0.0
N573 N 0.24971 0.94855 0.35294 0.0
C574 C 0.11798 0.90504 0.43405 0.0
C575 C 0.20906 0.93424 0.38235 0.0
N576 N 0.13357 0.8235 0.39518 0.0
N577 N 0.19961 1.01403 0.43143 0.0
H578 H 0.27076 0.92482 0.32621 0.0
H579 H 0.26095 0.98377 0.35271 0.0
H580 H 0.17914 0.04006 0.45563 0.0
H581 H 0.23458 0.02638 0.4185 0.0
H582 H 0.10435 0.80964 0.41737 0.0
H583 H 0.15327 0.79728 0.3705 0.0
H584 H 0.05484 0.85853 0.44288 0.0
H585 H 0.04945 0.9137 0.48055 0.0
C586 C 0.22988 0.91829 0.71519 0.0
C587 C 0.20239 0.87769 0.72847 0.0
C588 C 0.13687 0.89341 0.69902 0.0
C589 C 0.16483 0.93252 0.68408 0.0
N590 N 0.23895 0.98031 0.67279 0.0
N591 N 0.12964 0.82468 0.72824 0.0
C592 C 0.21172 0.94445 0.69079 0.0
C593 C 0.15618 0.86484 0.71926 0.0
N594 N 0.2724 0.93278 0.72764 0.0
N595 N 0.0913 0.88292 0.69347 0.0
H596 H 0.14073 0.80003 0.74151 0.0
H597 H 0.14073 0.80003 0.74151 0.0
H598 H 0.07541 0.90317 0.67907 0.0
H599 H 0.06933 0.85438 0.704 0.0
H600 H 0.29265 0.96405 0.72275 0.0
H601 H 0.28611 0.91499 0.74622 0.0
H602 H 0.27492 0.98873 0.67221 0.0
H603 H 0.22595 0.99999 0.65538 0.0
C604 C 0.07369 0.16108 0.69285 0.0
C605 C 0.11566 0.14335 0.69449 0.0
C606 C 0.14419 0.13666 0.60979 0.0
C607 C 0.09734 0.1367 0.60657 0.0
N608 N 0.0217 0.16669 0.64329 0.0
N609 N 0.18605 0.10349 0.65024 0.0
C610 C 0.0639 0.15656 0.64779 0.0
C611 C 0.15077 0.12961 0.65199 0.0
N612 N 0.04324 0.18067 0.73405 0.0
N613 N 0.1799 0.13318 0.56995 0.0
H614 H 0.1886 0.09199 0.67912 0.0
H615 H 0.20715 0.08654 0.61822 0.0
H616 H 0.17327 0.13416 0.5378 0.0
H617 H 0.21541 0.13315 0.57044 0.0
H618 H 1.01336 0.19673 0.73557 0.0
H619 H 0.04916 0.18215 0.76709 0.0
H620 H 0.99309 0.17705 0.67154 0.0
H621 H 1.01611 0.16407 0.60991 0.0
C622 C 0.88656 0.18498 0.6252 0.0
C623 C 0.85334 0.1665 0.66118 0.0
C624 C 0.8754 0.08659 0.61833 0.0
C625 C 0.91146 0.10534 0.58427 0.0
N626 N 0.95696 0.17433 0.56094 0.0
N627 N 0.82303 0.10064 0.69697 0.0
C628 C 0.91931 0.15523 0.59011 0.0
C629 C 0.85044 0.11765 0.65962 0.0
N630 N 0.88502 0.23035 0.62274 0.0
N631 N 0.86218 0.03922 0.60934 0.0
H632 H 0.8031 0.12217 0.72696 0.0
H633 H 0.82324 0.0661 0.69962 0.0
H634 H 0.8793 1.01556 0.57933 0.0
H635 H 0.83231 0.02407 0.62977 0.0
H636 H 0.90441 0.24427 0.59431 0.0
H637 H 0.86093 0.25289 0.64701 0.0
H638 H 0.96697 0.2105 0.56644 0.0
H639 H 0.98147 0.15409 0.53442 0.0
C640 C 0.93421 1.01696 0.73147 0.0
C641 C 0.89474 0.98351 0.72997 0.0
C642 C 0.90772 0.97135 0.6451 0.0
C643 C 0.94997 1.00177 0.64574 0.0
N644 N 0.99228 0.06747 0.68955 0.0
N645 N 0.83187 0.94595 0.69184 0.0
C646 C 0.95924 0.02964 0.68917 0.0
C647 C 0.87665 0.96804 0.68888 0.0
N648 N 0.94996 0.03309 0.7721 0.0
N649 N 0.89952 0.94263 0.6037 0.0
H650 H 0.80976 0.94237 0.72438 0.0
H651 H 0.81579 0.93552 0.66327 0.0
H652 H 0.92239 0.94332 0.57083 0.0
H653 H 0.8714 0.91631 0.6024 0.0
H654 H 0.98236 0.05305 0.77371 0.0
H655 H 0.93112 0.02455 0.80378 0.0
H656 H 0.998 0.09094 0.72057 0.0
H657 H 1.01042 0.07728 0.65844 0.0
C658 C 0.43141 0.1947 0.16381 0.0
C659 C 0.38255 0.19493 0.16386 0.0
C660 C 0.39164 0.12371 0.09857 0.0
C661 C 0.44186 0.13022 0.0914 0.0
N662 N 0.5102 0.1761 0.11575 0.0
N663 N 0.32147 0.16539 0.11965 0.0
C664 C 0.46198 0.1669 0.12378 0.0
C665 C 0.36391 0.16072 0.12829 0.0
N666 N 0.44851 0.21916 0.20223 0.0
N667 N 0.37027 0.08321 0.07541 0.0
H668 H 0.30265 0.19515 0.13564 0.0
H669 H 0.3086 0.14307 0.09157 0.0
H670 H 0.38908 0.05485 0.05393 0.0
H671 H 0.3334 0.07589 0.08216 0.0
H672 H 0.48285 0.21692 0.20498 0.0
H673 H 0.42703 0.23698 0.2335 0.0
H674 H 0.5268 0.2055 0.13536 0.0
H675 H 0.53322 0.15566 0.08753 0.0
C676 C 0.95367 0.32102 0.05036 0.0
C677 C 0.93718 0.32283 0.09901 0.0
C678 C 0.94545 0.40918 0.11784 0.0
C679 C 0.96885 0.40704 0.07028 0.0
N680 N 0.99867 0.36149 0.99057 0.0
N681 N 0.91895 0.36824 0.18051 0.0
C682 C 0.97327 0.36319 0.03599 0.0
C683 C 0.93325 0.36686 0.13324 0.0
N684 N 0.95017 0.2789 0.01819 0.0
N685 N 0.93489 0.4519 0.14805 0.0
H686 H 0.90819 0.33839 0.19393 0.0
H687 H 0.92093 0.39897 0.20698 0.0
H688 H 0.94401 0.48348 0.1372 0.0
H689 H 0.91339 0.45578 0.18214 0.0
H690 H 0.95671 0.27585 0.9819 0.0
H691 H 0.93727 0.24724 0.02836 0.0
H692 H 1.00785 0.33018 0.9658 0.0
H693 H 1.01307 0.3915 0.978 0.0
C694 C 0.68519 0.79588 0.14381 0.0
C695 C 0.7304 0.81676 0.15117 0.0
C696 C 0.71567 0.88954 0.1349 0.0
C697 C 0.66747 0.8718 0.13754 0.0
N698 N 0.60528 0.80885 0.14403 0.0
N699 N 0.79612 0.87234 0.12843 0.0
C700 C 0.65205 0.82485 0.14115 0.0
C701 C 0.74819 0.8605 0.13913 0.0
N702 N 0.67526 0.74805 0.13685 0.0
N703 N 0.72966 0.93457 0.12964 0.0
H704 H 0.82056 0.84845 0.12469 0.0
H705 H 0.81179 0.90264 0.11697 0.0
H706 H 0.70679 0.95572 0.12461 0.0
H707 H 0.76289 0.95184 0.13261 0.0
H708 H 0.6441 0.73024 0.12807 0.0
H709 H 0.70107 0.72581 0.13391 0.0
H710 H 0.59063 0.77661 0.15194 0.0
H711 H 0.58038 0.82951 0.14173 0.0
C712 C 0.05306 0.69021 0.16455 0.0
C713 C 0.07556 0.68888 0.19954 0.0
C714 C 0.0694 0.60289 0.17665 0.0
C715 C 0.06296 0.60578 0.13245 0.0
N716 N 0.04436 0.65425 0.08584 0.0
N717 N 0.09495 0.6459 0.24804 0.0
C718 C 0.05183 0.64966 0.12723 0.0
C719 C 0.07895 0.64547 0.20934 0.0
N720 N 0.03606 0.73125 0.16573 0.0
N721 N 0.06578 0.56001 0.18732 0.0
H722 H 0.10082 0.67748 0.27251 0.0
H723 H 0.10343 0.61585 0.25501 0.0
H724 H 0.05605 0.52844 0.16492 0.0
H725 H 0.06755 0.55609 0.22013 0.0
H726 H 1.01542 0.73379 0.14325 0.0
H727 H 0.03795 0.76126 0.19314 0.0
H728 H 0.04083 0.68651 0.07963 0.0
H729 H 0.04602 0.62736 0.05559 0.0
C730 C 0.36948 0.86652 0.8946 0.0
C731 C 0.35992 0.87593 0.85369 0.0
C732 C 0.42419 0.94314 0.86116 0.0
C733 C 0.42813 0.93849 0.90629 0.0
N734 N 0.39659 0.89627 0.96792 0.0
N735 N 0.37699 0.92923 0.80213 0.0
C736 C 0.39871 0.90009 0.92328 0.0
C737 C 0.3873 0.91581 0.83814 0.0
N738 N 0.35275 0.82384 0.90495 0.0
N739 N 0.45728 0.97278 0.83881 0.0
H740 H 0.35073 0.91099 0.78487 0.0
H741 H 0.39121 0.96079 0.79245 0.0
H742 H 0.48579 0.99112 0.85268 0.0
H743 H 0.45979 0.97488 0.80429 0.0
H744 H 0.36188 0.8123 0.93103 0.0
H745 H 0.33467 0.79776 0.88338 0.0
H746 H 0.37202 0.87281 0.98444 0.0
H747 H 0.41657 0.9191 0.98998 0.0
C748 C 0.17386 0.36271 0.90864 0.0
C749 C 0.19886 0.37312 0.865 0.0
C750 C 0.17689 0.45542 0.89616 0.0
C751 C 0.14924 0.44374 0.93852 0.0
N752 N 0.11093 0.38161 0.97835 0.0
N753 N 0.21594 0.4268 0.81337 0.0
C754 C 0.14417 0.39587 0.94236 0.0
C755 C 0.19802 0.41881 0.85755 0.0
N756 N 0.18063 0.32232 0.91947 0.0
N757 N 0.18377 0.50151 0.8932 0.0
H758 H 0.23058 0.40071 0.78425 0.0
H759 H 0.21239 0.45784 0.80472 0.0
H760 H 0.16696 0.52835 0.92004 0.0
H761 H 0.20785 0.51329 0.86548 0.0
H762 H 0.16767 0.31585 0.9531 0.0
H763 H 0.20356 0.29768 0.89682 0.0
H764 H 0.10272 0.34631 0.97994 0.0
H765 H 0.0874 0.4038 1.0034 0.0
C766 C 0.65872 0.18266 0.90366 0.0
C767 C 0.67687 0.16607 0.8536 0.0
C768 C 0.62695 0.08912 0.86114 0.0
C769 C 0.61066 0.10499 0.91143 0.0
N770 N 0.61699 0.16653 0.98057 0.0
N771 N 0.68298 0.09883 0.78716 0.0
C772 C 0.62869 0.1516 0.93237 0.0
C773 C 0.66204 0.11795 0.83325 0.0
N774 N 0.6678 0.22944 0.92382 0.0
N775 N 0.60771 0.04649 0.83944 0.0
H776 H 0.70857 0.11805 0.76636 0.0
H777 H 0.6783 0.06314 0.77079 0.0
H778 H 0.58439 0.02405 0.85845 0.0
H779 H 0.61262 0.03456 0.8029 0.0
H780 H 0.65147 0.24594 0.95824 0.0
H781 H 0.68876 0.25311 0.90485 0.0
H782 H 0.63259 0.19714 0.99941 0.0
H783 H 0.59436 0.14601 1.00219 0.0
C784 C 0.90666 0.71942 0.81967 0.0
C785 C 0.86468 0.73976 0.84947 0.0
C786 C 0.86597 0.69692 0.90837 0.0
C787 C 0.90742 0.67669 0.87801 0.0
N788 N 0.97374 0.6761 0.81165 0.0
N789 N 0.8092 0.75531 0.92531 0.0
C790 C 0.93004 0.69088 0.83608 0.0
C791 C 0.84591 0.73098 0.89507 0.0
N792 N 0.92209 0.72407 0.77421 0.0
N793 N 0.84511 0.68195 0.94879 0.0
H794 H 0.79415 0.78038 0.91607 0.0
H795 H 0.79603 0.75344 0.96043 0.0
H796 H 0.86013 0.65798 0.95956 0.0
H797 H 0.81234 0.69157 0.97057 0.0
H798 H 0.94781 0.70425 0.74886 0.0
H799 H 0.90656 0.74515 0.7608 0.0
H800 H 0.99464 0.68875 0.78295 0.0
H801 H 0.99095 0.65415 0.82286 0.0
C802 C 0.25667 0.3537 0.13978 0.0
C803 C 0.23754 0.3518 0.18773 0.0
C804 C 0.18436 0.41199 0.1967 0.0
C805 C 0.1967 0.40721 0.14751 0.0
N806 N 0.24307 0.37247 0.07068 0.0
N807 N 0.17629 0.37305 0.25933 0.0
C808 C 0.23317 0.37837 0.11857 0.0
C809 C 0.19987 0.37976 0.21577 0.0
N810 N 0.29654 0.33153 0.11458 0.0
N811 N 0.15546 0.44601 0.22464 0.0
H812 H 0.18404 0.3471 0.27297 0.0
H813 H 0.14582 0.38943 0.27948 0.0
H814 H 0.14319 0.46926 0.21047 0.0
H815 H 0.1479 0.45403 0.2615 0.0
H816 H 0.31453 0.33507 0.08076 0.0
H817 H 0.31348 0.31215 0.12895 0.0
H818 H 0.26553 0.34802 0.04692 0.0
H819 H 0.22663 0.39073 0.05476 0.0
C820 C 0.1233 0.71451 1.00015 0.0
C821 C 0.11195 0.73351 0.96695 0.0
C822 C 0.10656 0.65827 0.91254 0.0
C823 C 0.10652 0.63635 0.94921 0.0
N824 N 0.14187 0.64295 0.01525 0.0
N825 N 0.12735 0.7372 0.89187 0.0
C826 C 0.12359 0.66421 0.98951 0.0
C827 C 0.11246 0.70783 0.92293 0.0
N828 N 0.13371 0.74388 0.04008 0.0
N829 N 0.09857 0.63245 0.87026 0.0
H830 H 0.14396 0.8209 0.92275 0.0
H831 H 0.13156 0.7185 0.85598 0.0
H832 H 0.09603 0.59552 0.86184 0.0
H833 H 0.09343 0.64832 0.8451 0.0
H834 H 0.1399 0.73207 0.06743 0.0
H835 H 0.13371 0.78048 0.04599 0.0
H836 H 0.15554 0.66136 0.04423 0.0
H837 H 0.14786 0.60722 1.00427 0.0
C838 C 0.32509 0.22637 0.89094 0.0
C839 C 0.30997 0.19988 0.84977 0.0
C840 C 0.3452 0.13078 0.85227 0.0
C841 C 0.36734 0.15949 0.88749 0.0
N842 N 0.37848 0.2334 0.94267 0.0
N843 N 0.3108 0.12818 0.78736 0.0
C844 C 0.35668 0.20687 0.90816 0.0
C845 C 0.32047 0.15205 0.82986 0.0
N846 N 0.30956 0.2701 0.91286 0.0
N847 N 0.34868 0.08312 0.83999 0.0
H848 H 0.29473 0.1429 0.76827 0.0
H849 H 0.32282 0.09535 0.76873 0.0
H850 H 0.36691 0.06697 0.85626 0.0
H851 H 0.32971 0.0594 0.81746 0.0
H852 H 0.31665 0.29036 0.94468 0.0
H853 H 0.2863 0.28483 0.90076 0.0
H854 H 0.37468 0.2691 0.95779 0.0
H855 H 0.40234 0.21987 0.95507 0.0
C856 C 0.98354 0.3546 0.83831 0.0
C857 C 0.94504 0.33573 0.86959 0.0
C858 C 0.94637 0.40747 0.93085 0.0
C859 C 0.98476 0.4274 0.89955 0.0
N860 N 0.04717 0.41707 0.82815 0.0
N861 N 0.90079 0.33596 0.94841 0.0
C862 C 1.00622 0.3998 0.85481 0.0
C863 C 0.93117 0.35928 0.91724 0.0
N864 N 0.99572 0.33045 0.79216 0.0
N865 N 0.92265 0.43485 0.9723 0.0
H866 H 0.8887 0.30046 0.93802 0.0
H867 H 0.89179 0.35006 0.98483 0.0
H868 H 0.93134 0.47085 0.98391 0.0
H869 H 0.89152 0.42271 0.99361 0.0
H870 H 1.0194 0.34466 0.76586 0.0
H871 H 0.98003 0.2966 0.78024 0.0
H872 H 0.06629 0.39701 0.7967 0.0
H873 H 0.06359 0.45075 0.83922 0.0
C874 C 0.69274 0.91993 0.87565 0.0
C875 C 0.68857 0.87124 0.87711 0.0
C876 C 0.6121 0.88471 0.93473 0.0
C877 C 0.623 0.93442 0.9423 0.0
N878 N 0.67625 0.99964 0.92049 0.0
N879 N 0.64605 0.81021 0.91618 0.0
C880 C 0.6639 0.95211 0.91253 0.0
C881 C 0.64828 0.85413 0.90835 0.0
N882 N 0.72262 0.93541 0.83842 0.0
N883 N 0.5679 0.86666 0.95438 0.0
H884 H 0.674 0.78868 0.90164 0.0
H885 H 0.6192 0.79778 0.94169 0.0
H886 H 0.54037 0.888 0.97279 0.0
H887 H 0.55734 0.83054 0.94745 0.0
H888 H 0.72381 0.96963 0.83431 0.0
H889 H 0.74154 0.91289 0.80868 0.0
H890 H 0.7086 1.01432 0.90333 0.0
H891 H 0.65508 0.02396 0.94636 0.0
C892 C 0.8422 0.64011 0.09591 0.0
C893 C 0.84771 0.65299 0.14306 0.0
C894 C 0.9142 0.60255 0.11946 0.0
C895 C 0.91402 0.59703 0.07155 0.0
N896 N 0.86414 0.58834 0.01755 0.0
N897 N 0.87899 0.63615 0.20255 0.0
C898 C 0.87317 0.60854 0.06104 0.0
C899 C 0.88084 0.63097 0.15578 0.0
N900 N 0.80914 0.65983 0.08396 0.0
N901 N 0.94292 0.5767 0.12975 0.0
H902 H 0.85129 0.65189 0.22913 0.0
H903 H 0.90343 0.62393 0.21521 0.0
H904 H 0.95619 0.54741 0.10421 0.0
H905 H 0.94817 0.57968 0.16323 0.0
H906 H 0.807 0.65592 0.0492 0.0
H907 H 0.78522 0.68226 0.10882 0.0
H908 H 0.83332 0.59209 1.00823 0.0
H909 H 0.88539 0.56328 0.99282 0.0
C910 C 0.39141 0.85158 0.13724 0.0
C911 C 0.35517 0.87183 0.17667 0.0
C912 C 0.3893 0.95147 0.15948 0.0
C913 C 0.42446 0.93076 0.11901 0.0
N914 N 0.44948 0.85835 0.06396 0.0
N915 N 0.31609 0.94185 0.2202 0.0
C916 C 0.42253 0.88002 0.10666 0.0
C917 C 0.35315 0.92205 0.18598 0.0
N918 N 0.39714 0.80466 0.12924 0.0
N919 N 0.39146 0.99958 0.17387 0.0
H920 H 0.29017 0.92192 0.24 0.0
H921 H 0.30897 0.97687 0.22657 0.0
H922 H 0.41601 0.02129 0.15493 0.0
H923 H 0.37103 1.01789 0.20553 0.0
H924 H 0.42624 0.78852 0.1055 0.0
H925 H 0.37452 0.78242 0.14895 0.0
H926 H 0.44672 0.82199 0.04988 0.0
H927 H 0.47096 0.87716 0.04009 0.0
C928 C 0.64057 0.1357 0.19096 0.0
C929 C 0.67871 0.16494 0.16857 0.0
C930 C 0.64974 0.12725 0.09361 0.0
C931 C 0.60874 0.10276 0.11783 0.0
N932 N 0.56262 0.09123 0.19316 0.0
N933 N 0.71429 0.18993 0.09577 0.0
C934 C 0.60354 0.10971 0.16758 0.0
C935 C 0.6816 0.16095 0.11912 0.0
N936 N 0.64204 0.12867 0.23337 0.0
N937 N 0.66024 0.11643 0.04528 0.0
H938 H 0.73944 0.21296 0.11092 0.0
H939 H 0.71404 0.19383 0.06249 0.0
H940 H 0.63825 0.09314 0.02559 0.0
H941 H 0.69236 0.12753 0.02462 0.0
H942 H 0.61843 0.10468 0.24998 0.0
H943 H 0.67125 0.14155 0.24805 0.0
H944 H 0.55387 0.09866 0.23001 0.0
H945 H 0.53535 0.07235 0.17756 0.0
C946 C 0.64735 0.65287 0.87956 0.0
C947 C 0.65532 0.62362 0.83294 0.0
C948 C 0.61195 0.55778 0.86454 0.0
C949 C 0.59291 0.59029 0.90707 0.0
N950 N 0.59263 0.6698 0.95614 0.0
N951 N 0.6434 0.54773 0.7804 0.0
C952 C 0.61042 0.63835 0.91495 0.0
C953 C 0.63731 0.57569 0.82519 0.0
N954 N 0.67731 0.69214 0.89088 0.0
N955 N 0.60733 0.51041 0.86209 0.0
H956 H 0.66104 0.56046 0.75063 0.0
H957 H 0.6272 0.51339 0.77292 0.0
H958 H 0.58994 0.49611 0.8909 0.0
H959 H 0.62432 0.48605 0.83264 0.0
H960 H 0.67499 0.71201 0.92551 0.0
H961 H 0.70787 0.70131 0.86685 0.0
H962 H 0.60161 0.70616 0.96114 0.0
H963 H 0.56702 0.65973 0.98403 0.0
C964 C 0.29105 0.64721 0.8461 0.0
C965 C 0.31647 0.68109 0.82062 0.0
C966 C 0.39105 0.66555 0.8348 0.0
C967 C 0.36519 0.63478 0.8631 0.0
N968 N 0.29023 0.60314 0.90396 0.0
N969 N 0.38923 0.73193 0.8031 0.0
C970 C 0.31494 0.62786 0.87138 0.0
C971 C 0.36614 0.69292 0.81828 0.0
N972 N 0.24484 0.63198 0.84449 0.0
N973 N 0.43958 0.66776 0.82273 0.0
H974 H 0.37244 0.7551 0.79332 0.0
H975 H 0.42398 0.74451 0.80551 0.0
H976 H 0.45881 0.64862 0.83503 0.0
H977 H 0.46038 0.68555 0.79769 0.0
H978 H 0.22584 0.60439 0.859 0.0
H979 H 0.22668 0.64396 0.82491 0.0
H980 H 0.25326 0.60041 0.91506 0.0
H981 H 0.30715 0.58921 0.92321 0.0
C982 C 0.4531 0.34984 0.85412 0.0
C983 C 0.46367 0.36467 0.81144 0.0
C984 C 0.49596 0.44146 0.84855 0.0
C985 C 0.47893 0.42978 0.89365 0.0
N986 N 0.44137 0.37277 0.93962 0.0
N987 N 0.51166 0.41442 0.76307 0.0
C988 C 0.45909 0.38324 0.89645 0.0
C989 C 0.49134 0.40694 0.80709 0.0
N990 N 0.43528 0.3042 0.85359 0.0
N991 N 0.51238 0.48666 0.84541 0.0
H992 H 0.50774 0.38923 0.73235 0.0
H993 H 0.53637 0.44279 0.75682 0.0
H994 H 0.51712 0.51352 0.87428 0.0
H995 H 0.51849 0.49863 0.81466 0.0
H996 H 0.42964 0.28908 0.88225 0.0
H997 H 0.43005 0.28038 0.8224 0.0
H998 H 0.42257 0.34088 0.94446 0.0
H999 H 0.44377 0.39695 0.97139 0.0
C1000 C 0.69255 0.41501 0.89417 0.0
C1001 C 0.67949 0.36707 0.87426 0.0
C1002 C 0.59841 0.37585 0.92528 0.0
C1003 C 0.61348 0.42134 0.95005 0.0
N1004 N 0.67869 0.48158 0.96169 0.0
N1005 N 0.62055 0.29992 0.87432 0.0
C1006 C 0.66138 0.4406 0.9351 0.0
C1007 C 0.63231 0.34715 0.89026 0.0
N1008 N 0.73451 0.43652 0.8735 0.0
N1009 N 0.55145 0.3598 0.93594 0.0
H1010 H 0.64416 0.2772 0.84964 0.0
H1011 H 0.58878 0.28216 0.88856 0.0
H1012 H 0.5264 0.37944 0.96254 0.0
H1013 H 0.53671 0.32935 0.91599 0.0
H1014 H 0.74363 0.47279 0.88303 0.0
H1015 H 0.75817 0.41886 0.84372 0.0
H1016 H 0.71468 0.4935 0.95588 0.0
H1017 H 0.65838 0.50211 0.99191 0.0
C1018 C 0.71168 0.34828 0.1653 0.0
C1019 C 0.73179 0.37049 0.20468 0.0
C1020 C 0.70912 0.4469 0.20301 0.0
C1021 C 0.69014 0.4245 0.16313 0.0
N1022 N 0.68298 0.3564 0.09972 0.0
N1023 N 0.75699 0.44195 0.25633 0.0
C1024 C 0.69545 0.37615 0.14175 0.0
C1025 C 0.73299 0.42029 0.22202 0.0
N1026 N 0.70392 0.30022 0.15301 0.0
N1027 N 0.70219 0.49323 0.22375 0.0
H1028 H 0.77418 0.42312 0.27104 0.0
H1029 H 0.76271 0.47848 0.26784 0.0
H1030 H 0.68649 0.51337 0.209 0.0
H1031 H 0.71005 0.51083 0.25605 0.0
H1032 H 0.68409 0.28217 0.12859 0.0
H1033 H 0.71284 0.27856 0.17099 0.0
H1034 H 0.69091 0.32263 0.07965 0.0
H1035 H 0.66853 0.37526 0.08278 0.0
C1036 C 0.65458 0.62536 0.15578 0.0
C1037 C 0.61903 0.63482 0.19896 0.0
C1038 C 0.5635 0.64522 0.15492 0.0
C1039 C 0.59547 0.62527 0.1131 0.0
N1040 N 0.67756 0.62088 0.07255 0.0
N1041 N 0.54119 0.6595 0.24069 0.0
C1042 C 0.64354 0.62695 0.11369 0.0
C1043 C 0.57393 0.64726 0.19893 0.0
N1044 N 0.69747 0.61116 0.15381 0.0
N1045 N 0.52419 0.66241 0.15173 0.0
H1046 H 0.54851 0.6613 0.27321 0.0
H1047 H 0.50638 0.66541 0.24286 0.0
H1048 H 0.51832 0.66128 0.1187 0.0
H1049 H 0.50026 0.68056 0.18077 0.0
H1050 H 0.72384 0.60446 0.12246 0.0
H1051 H 0.70479 0.60153 0.18178 0.0
H1052 H 0.67002 0.61912 0.04009 0.0
H1053 H 0.67002 0.61912 0.04009 0.0
C1054 C 0.33689 0.65923 0.10904 0.0
C1055 C 0.33748 0.66458 0.15715 0.0
C1056 C 0.40491 0.61422 0.12962 0.0
C1057 C 0.40419 0.61037 0.08186 0.0
N1058 N 0.34939 0.60446 0.03267 0.0
N1059 N 0.36039 0.6304 0.21186 0.0
C1060 C 0.3632 0.62442 0.0739 0.0
C1061 C 0.36793 0.6368 0.16717 0.0
N1062 N 0.31511 0.68935 0.09544 0.0
N1063 N 0.44022 0.59629 0.1393 0.0
H1064 H 0.3316 0.64316 0.23894 0.0
H1065 H 0.37885 0.60772 0.22058 0.0
H1066 H 0.46556 0.57801 0.11243 0.0
H1067 H 0.44524 0.60127 0.17327 0.0
H1068 H 0.31713 0.68734 0.0599 0.0
H1069 H 0.3012 0.71993 0.11812 0.0
H1070 H 0.31824 0.61212 0.02651 0.0
H1071 H 0.36612 0.57631 1.00778 0.0
C1072 C 0.4505 0.49088 0.22899 0.0
C1073 C 0.40616 0.46475 0.23235 0.0
C1074 C 0.40705 0.46221 0.15063 0.0
C1075 C 0.45392 0.48475 0.14588 0.0
N1076 N 0.50808 0.54056 0.18629 0.0
N1077 N 0.33392 0.44285 0.20556 0.0
C1078 C 0.47152 0.50597 0.18716 0.0
C1079 C 0.38126 0.45732 0.1963 0.0
N1080 N 0.47386 0.49829 0.26429 0.0
N1081 N 0.38868 0.4422 0.11193 0.0
H1082 H 0.31539 0.4386 0.23911 0.0
H1083 H 0.3127 0.44002 0.18194 0.0
H1084 H 0.4068 0.44367 0.0776 0.0
H1085 H 0.35642 0.4214 0.11358 0.0
H1086 H 0.50931 0.51193 0.26092 0.0
H1087 H 0.45823 0.48826 0.29599 0.0
H1088 H 0.52048 0.55877 0.21613 0.0
H1089 H 0.52141 0.55475 0.15699 0.0
C1090 C 0.87146 0.67159 0.62661 0.0
C1091 C 0.89379 0.71123 0.65442 0.0
C1092 C 0.97114 0.67942 0.61114 0.0
C1093 C 0.94737 0.63787 0.5878 0.0
N1094 N 0.87357 0.58908 0.58627 0.0
N1095 N 0.96753 0.74965 0.67529 0.0
C1096 C 0.89714 0.63199 0.60068 0.0
C1097 C 0.94445 0.71433 0.64747 0.0
N1098 N 0.82658 0.67307 0.62172 0.0
N1099 N 1.01947 0.68611 0.59737 0.0
H1100 H 0.95103 0.77738 0.70048 0.0
H1101 H 1.00305 0.74978 0.67566 0.0
H1102 H 0.03951 0.65952 0.57393 0.0
H1103 H 0.03918 0.71798 0.60765 0.0
H1104 H 0.81042 0.64655 0.59871 0.0
H1105 H 0.80841 0.70351 0.63521 0.0
H1106 H 0.83681 0.58251 0.59746 0.0
H1107 H 0.89117 0.55893 0.56813 0.0
C1108 C 0.40022 0.87163 0.62684 0.0
C1109 C 0.40625 0.82376 0.60186 0.0
C1110 C 0.45592 0.8485 0.53303 0.0
C1111 C 0.45044 0.89615 0.55827 0.0
N1112 N 0.40668 0.95313 0.62153 0.0
N1113 N 0.42827 0.76597 0.52902 0.0
C1114 C 0.41832 0.90764 0.60247 0.0
C1115 C 0.43005 0.81201 0.55391 0.0
N1116 N 0.38024 0.88282 0.67433 0.0
N1117 N 0.48785 0.83842 0.49047 0.0
H1118 H 0.40989 0.73871 0.54458 0.0
H1119 H 0.44152 0.75545 0.49258 0.0
H1120 H 0.50597 0.86486 0.474 0.0
H1121 H 0.4976 0.80456 0.47273 0.0
H1122 H 0.37982 0.91737 0.69489 0.0
H1123 H 0.36765 0.85774 0.69432 0.0
H1124 H 0.38021 0.96296 0.65216 0.0
H1125 H 0.4203 0.98008 0.60383 0.0
C1126 C 0.24829 0.34867 0.63398 0.0
C1127 C 0.22432 0.32784 0.67224 0.0
C1128 C 0.14891 0.35042 0.66799 0.0
C1129 C 0.17361 0.37884 0.6372 0.0
N1130 N 0.24732 0.40856 0.59222 0.0
N1131 N 0.15284 0.32418 0.73504 0.0
C1132 C 0.22357 0.37874 0.62008 0.0
C1133 C 0.17466 0.33212 0.69151 0.0
N1134 N 0.29378 0.33913 0.61051 0.0
N1135 N 0.10055 0.3428 0.67637 0.0
H1136 H 0.17163 0.31911 0.75783 0.0
H1137 H 0.11736 0.32991 0.7513 0.0
H1138 H 0.08081 0.35663 0.65959 0.0
H1139 H 0.0813 0.31857 0.69559 0.0
H1140 H 0.31141 0.35039 0.57995 0.0
H1141 H 0.31217 0.31617 0.61901 0.0
H1142 H 0.2843 0.41354 0.58244 0.0
H1143 H 0.22971 0.43056 0.58155 0.0
C1144 C 0.61864 0.16297 0.61452 0.0
C1145 C 0.60011 0.18265 0.66258 0.0
C1146 C 0.54814 0.11044 0.67022 0.0
C1147 C 0.57215 0.08857 0.62384 0.0
N1148 N 0.63576 0.09187 0.55394 0.0
N1149 N 0.54871 0.1774 0.73772 0.0
C1150 C 0.60889 0.11426 0.59642 0.0
C1151 C 0.56455 0.15725 0.69079 0.0
N1152 N 0.64772 0.19102 0.58717 0.0
N1153 N 0.50967 0.08681 0.69396 0.0
H1154 H 0.55952 0.21232 0.75265 0.0
H1155 H 0.52665 0.15929 0.76182 0.0
H1156 H 0.49803 0.05189 0.67999 0.0
H1157 H 0.48782 0.10257 0.72601 0.0
H1158 H 0.66034 0.18 0.55069 0.0
H1159 H 0.65538 0.22707 0.60065 0.0
H1160 H 0.66602 0.10796 0.53503 0.0
H1161 H 0.63044 0.05599 0.53893 0.0
C1162 C 0.85452 0.40845 0.38041 0.0
C1163 C 0.87433 0.37038 0.3426 0.0
C1164 C 0.95264 0.40057 0.3674 0.0
C1165 C 0.93067 0.43442 0.40819 0.0
N1166 N 0.85583 0.46023 0.45796 0.0
N1167 N 0.94582 0.32972 0.30448 0.0
C1168 C 0.88023 0.4348 0.41578 0.0
C1169 C 0.92444 0.36648 0.33744 0.0
N1170 N 0.81206 0.4228 0.38097 0.0
N1171 N 1.00111 0.40202 0.35576 0.0
H1172 H 0.92938 0.30635 0.27982 0.0
H1173 H 0.97929 0.32075 0.3033 0.0
H1174 H 0.022 0.4248 0.37706 0.0
H1175 H 1.0206 0.38321 0.32376 0.0
H1176 H 0.79795 0.45292 0.40467 0.0
H1177 H 0.79444 0.40922 0.35374 0.0
H1178 H 0.81878 0.45846 0.46792 0.0
H1179 H 0.87232 0.47861 0.48513 0.0
C1180 C 0.64944 0.87223 0.34754 0.0
C1181 C 0.69636 0.87181 0.3522 0.0
C1182 C 0.67995 0.93656 0.42332 0.0
C1183 C 0.63045 0.92859 0.42485 0.0
N1184 N 0.56833 0.88174 0.39027 0.0
N1185 N 0.75282 0.8981 0.40135 0.0
C1186 C 0.61537 0.89511 0.38692 0.0
C1187 C 0.71129 0.90328 0.39139 0.0
N1188 N 0.63708 0.85049 0.3058 0.0
N1189 N 0.69637 0.9738 0.45474 0.0
H1190 H 0.77351 0.87027 0.38223 0.0
H1191 H 0.76341 0.91756 0.43187 0.0
H1192 H 0.67392 0.99812 0.47877 0.0
H1193 H 0.7325 0.98294 0.45335 0.0
H1194 H 0.60396 0.8528 0.30003 0.0
H1195 H 0.66155 0.83469 0.27562 0.0
H1196 H 0.55577 0.85214 0.36739 0.0
H1197 H 0.54269 0.89881 0.418 0.0
C1198 C 0.1576 0.68714 0.40542 0.0
C1199 C 0.17528 0.67179 0.35517 0.0
C1200 C 0.12507 0.59446 0.36094 0.0
C1201 C 0.10834 0.60926 0.41133 0.0
N1202 N 0.1124 0.6704 0.48119 0.0
N1203 N 0.18103 0.60597 0.28745 0.0
C1204 C 0.12614 0.65577 0.43313 0.0
C1205 C 0.16018 0.62406 0.33384 0.0
N1206 N 0.16914 0.73301 0.42678 0.0
N1207 N 0.10618 0.5521 0.33832 0.0
H1208 H 0.20612 0.6259 0.26694 0.0
H1209 H 0.17649 0.57051 0.27028 0.0
H1210 H 0.08303 0.529 0.35664 0.0
H1211 H 0.11118 0.541 0.30173 0.0
H1212 H 0.15382 0.74945 0.4615 0.0
H1213 H 0.19255 0.75611 0.40878 0.0
H1214 H 0.12656 0.70102 0.5013 0.0
H1215 H 0.08842 0.64975 0.50156 0.0
C1216 C 0.31326 0.17557 0.36559 0.0
C1217 C 0.32654 0.22453 0.36839 0.0
C1218 C 0.39299 0.22021 0.40195 0.0
C1219 C 0.38506 0.17035 0.38987 0.0
N1220 N 0.33908 0.09947 0.35997 0.0
N1221 N 0.36341 0.29557 0.41057 0.0
C1222 C 0.34529 0.14771 0.37203 0.0
C1223 C 0.36191 0.2477 0.39311 0.0
N1224 N 0.2688 0.15661 0.36078 0.0
N1225 N 0.4312 0.24078 0.42033 0.0
H1226 H 0.33749 0.31536 0.40878 0.0
H1227 H 0.38637 0.3148 0.43136 0.0
H1228 H 0.45338 0.22118 0.42851 0.0
H1229 H 0.44236 0.27666 0.42534 0.0
H1230 H 0.2562 0.12168 0.36126 0.0
H1231 H 0.24203 0.17774 0.3645 0.0
H1232 H 0.31372 0.08067 0.34179 0.0
H1233 H 0.36172 0.07822 0.36521 0.0
C1234 C 0.68739 0.86549 0.71452 0.0
C1235 C 0.7263 0.83912 0.68695 0.0
C1236 C 0.71087 0.85016 0.6147 0.0
C1237 C 0.67376 0.87849 0.64281 0.0
N1238 N 0.63454 0.92305 0.71852 0.0
N1239 N 0.78103 0.81358 0.61184 0.0
C1240 C 0.66496 0.88962 0.69253 0.0
C1241 C 0.74018 0.83396 0.63725 0.0
N1242 N 0.66996 0.86519 0.76112 0.0
N1243 N 0.71625 0.8367 0.5668 0.0
H1244 H 0.80248 0.80041 0.62739 0.0
H1245 H 0.79535 0.8129 0.57619 0.0
H1246 H 0.69493 0.84784 0.54961 0.0
H1247 H 0.73946 0.81213 0.54462 0.0
H1248 H 0.63895 0.88021 0.78184 0.0
H1249 H 0.68386 0.84572 0.77777 0.0
H1250 H 0.62979 0.93604 0.75498 0.0
H1251 H 0.61774 0.94111 0.70268 0.0
C1252 C 0.63736 0.16549 0.39152 0.0
C1253 C 0.63135 0.21198 0.42061 0.0
C1254 C 0.5939 0.18011 0.48916 0.0
C1255 C 0.59845 0.13392 0.45961 0.0
N1256 N 0.63378 0.08138 0.38756 0.0
N1257 N 0.61514 0.26439 0.49764 0.0
C1258 C 0.62418 0.1264 0.41241 0.0
C1259 C 0.61352 0.21954 0.46985 0.0
N1260 N 0.65349 0.15868 0.34376 0.0
N1261 N 0.56815 0.1859 0.53474 0.0
H1262 H 0.62852 0.29377 0.48347 0.0
H1263 H 0.60653 0.27208 0.53448 0.0
H1264 H 0.55616 0.15714 0.54978 0.0
H1265 H 0.55822 0.21832 0.55683 0.0
H1266 H 0.65303 0.12552 0.32069 0.0
H1267 H 0.66488 0.18611 0.32666 0.0
H1268 H 0.6531 0.07239 0.35272 0.0
H1269 H 0.62474 0.05275 0.40347 0.0
C1270 C 0.87632 0.70941 0.32481 0.0
C1271 C 0.82548 0.70729 0.33763 0.0
C1272 C 0.8251 0.65336 0.38703 0.0
C1273 C 0.8753 0.66044 0.37786 0.0
N1274 N 0.94681 0.70727 0.35121 0.0
N1275 N 0.75295 0.68722 0.39244 0.0
C1276 C 0.90004 0.69324 0.35179 0.0
C1277 C 0.80011 0.68236 0.37241 0.0
N1278 N 0.90227 0.72188 0.28435 0.0
N1279 N 0.80156 0.61794 0.40785 0.0
H1280 H 0.73426 0.71083 0.38527 0.0
H1281 H 0.73413 0.67206 0.42024 0.0
H1282 H 0.81922 0.5958 0.41828 0.0
H1283 H 0.76522 0.60844 0.41114 0.0
H1284 H 0.939 0.72018 0.27283 0.0
H1285 H 0.88721 0.72662 0.25853 0.0
H1286 H 0.96551 0.73409 0.33519 0.0
H1287 H 0.96491 0.69564 0.37113 0.0
C1288 C 0.48507 0.86972 0.32461 0.0
C1289 C 0.45051 0.84346 0.35276 0.0
C1290 C 0.4453 0.90977 0.4207 0.0
C1291 C 0.48039 0.93653 0.39292 0.0
N1292 N 0.53675 0.94093 0.3192 0.0
N1293 N 0.40898 0.83208 0.4291 0.0
C1294 C 0.50169 0.91604 0.34526 0.0
C1295 C 0.43559 0.86128 0.40172 0.0
N1296 N 0.50136 0.85154 0.27752 0.0
N1297 N 0.41877 0.93121 0.46373 0.0
H1298 H 0.4012 0.79622 0.41493 0.0
H1299 H 0.39873 0.84215 0.46587 0.0
H1300 H 0.42279 0.96729 0.47841 0.0
H1301 H 0.38963 0.91409 0.48306 0.0
H1302 H 0.49057 0.81743 0.2603 0.0
H1303 H 0.49057 0.81743 0.2603 0.0
H1304 H 0.55307 0.92647 0.28399 0.0
H1305 H 0.54944 0.97549 0.33314 0.0
C1306 C 0.14477 0.36102 0.40872 0.0
C1307 C 0.18546 0.3762 0.37663 0.0
C1308 C 0.16458 0.45841 0.41158 0.0
C1309 C 0.12323 0.44231 0.44212 0.0
N1310 N 0.0652 0.37657 0.45473 0.0
N1311 N 0.22461 0.43933 0.33839 0.0
C1312 C 0.11003 0.39301 0.43486 0.0
C1313 C 0.19247 0.42494 0.37505 0.0
N1314 N 0.14134 0.31771 0.41815 0.0
N1315 N 0.17817 0.5057 0.41866 0.0
H1316 H 0.24427 0.41614 0.30982 0.0
H1317 H 0.2278 0.47354 0.33363 0.0
H1318 H 0.15735 0.53077 0.44393 0.0
H1319 H 0.21084 0.51954 0.40126 0.0
H1320 H 0.11396 0.3064 0.44397 0.0
H1321 H 0.16954 0.29653 0.40554 0.0
H1322 H 0.05343 0.34071 0.44806 0.0
H1323 H 0.0383 0.3988 0.47262 0.0
C1324 C 0.39646 0.15524 0.66593 0.0
C1325 C 0.35025 0.15375 0.65833 0.0
C1326 C 0.3707 0.08659 0.5905 0.0
C1327 C 0.41965 0.09702 0.59058 0.0
N1328 N 0.47894 0.14547 0.62804 0.0
N1329 N 0.29679 0.12159 0.60677 0.0
C1330 C 0.43234 0.13194 0.62882 0.0
C1331 C 0.33769 0.11962 0.61943 0.0
N1332 N 0.40628 0.17874 0.70843 0.0
N1333 N 0.35625 0.04668 0.56069 0.0
H1334 H 0.27359 0.14763 0.62473 0.0
H1335 H 0.289 0.10072 0.57539 0.0
H1336 H 0.37993 0.02216 0.53943 0.0
H1337 H 0.32049 0.03598 0.5612 0.0
H1338 H 0.43867 0.17787 0.71647 0.0
H1339 H 0.38039 0.19448 0.73721 0.0
H1340 H 0.49045 0.17564 0.65103 0.0
H1341 H 0.50546 0.12721 0.6025 0.0
C1342 C 0.85125 0.41429 0.67611 0.0
C1343 C 0.86399 0.37178 0.68342 0.0
C1344 C 0.94117 0.38459 0.62505 0.0
C1345 C 0.93198 0.43045 0.6227 0.0
N1346 N 0.87648 0.48997 0.65286 0.0
N1347 N 0.93013 0.32584 0.67097 0.0
C1348 C 0.88622 0.44531 0.64996 0.0
C1349 C 0.91169 0.36027 0.66009 0.0
N1350 N 0.80557 0.4259 0.69488 0.0
N1351 N 0.97666 0.36164 0.59109 0.0
H1352 H 0.91104 0.30597 0.69475 0.0
H1353 H 0.96607 0.31991 0.6592 0.0
H1354 H 0.99559 0.37455 0.56181 0.0
H1355 H 0.98246 0.3268 0.58823 0.0
H1356 H 0.79181 0.45262 0.68698 0.0
H1357 H 0.78057 0.40681 0.7163 0.0
H1358 H 0.84658 0.50551 0.67563 0.0
H1359 H 0.90041 0.51289 0.63502 0.0
C1360 C 0.15718 0.68126 0.64372 0.0
C1361 C 0.15678 0.6761 0.68987 0.0
C1362 C 0.09111 0.61141 0.67765 0.0
C1363 C 0.09796 0.61107 0.62871 0.0
N1364 N 0.14635 0.64312 0.56438 0.0
N1365 N 0.12499 0.6286 0.74675 0.0
C1366 C 0.13339 0.6455 0.61173 0.0
C1367 C 0.12373 0.6393 0.7058 0.0
N1368 N 0.17802 0.72198 0.63101 0.0
N1369 N 0.05232 0.58563 0.698 0.0
H1370 H 0.14894 0.64626 0.76716 0.0
H1371 H 0.10571 0.59916 0.75774 0.0
H1372 H 0.02781 0.56591 0.67904 0.0
H1373 H 0.04216 0.58764 0.73425 0.0
H1374 H 0.17648 0.72973 0.59968 0.0
H1375 H 0.19068 0.7505 0.65489 0.0
H1376 H 0.17513 0.66396 0.54909 0.0
H1377 H 0.13098 0.6173 0.54016 0.0
loop_
_geom_bond_atom_site_label_1
_geom_bond_atom_site_label_2
_geom_bond_distance
_geom_bond_site_symmetry_2
_ccdc_geom_bond_type
Zn0 O1 2.055 . S
Zn0 O8 2.046 . S
Zn0 N16 2.036 . S
Zn0 O28 2.053 . S
Zn0 O30 2.066 . S
O1 Zn0 2.055 . S
O1 C4 1.259 . S
C2 O30 1.256 . S
C2 O31 1.244 . S
Zn3 O5 2.046 . S
Zn3 O7 2.055 . S
Zn3 N9 2.036 . S
Zn3 O27 2.066 . S
Zn3 O31 2.053 . S
C4 O1 1.259 . S
C4 O5 1.254 . S
O5 Zn3 2.046 . S
O5 C4 1.254 . S
C6 O27 1.256 . S
C6 O28 1.244 . S
O7 Zn3 2.055 . S
O7 C29 1.259 . S
O8 Zn0 2.046 . S
O8 C29 1.254 . S
N9 Zn3 2.036 . S
N9 C10 1.298 . S
N9 N12 1.398 . S
C10 N9 1.298 . S
C10 N13 1.367 . S
C10 C23 1.481 . S
C11 N12 1.299 . S
C11 N13 1.379 . S
N12 N9 1.398 . S
N12 C11 1.299 . S
N13 C10 1.367 . S
N13 C11 1.379 . S
C14 N16 1.298 . S
C14 N18 1.367 . S
C14 C22 1.481 . S
C15 N17 1.299 . S
C15 N18 1.379 . S
N16 Zn0 2.036 . S
N16 C14 1.298 . S
N16 N17 1.398 . S
N17 C15 1.299 . S
N17 N16 1.398 . S
N18 C14 1.367 . S
N18 C15 1.379 . S
H19 C22 0.980 . S
H20 C22 0.981 . S
H21 C22 0.981 . S
C22 C14 1.481 . S
C22 H19 0.980 . S
C22 H20 0.981 . S
C22 H21 0.981 . S
C23 C10 1.481 . S
C23 H24 0.980 . S
C23 H25 0.981 . S
C23 H26 0.981 . S
H24 C23 0.980 . S
H25 C23 0.981 . S
H26 C23 0.981 . S
O27 Zn3 2.066 . S
O27 C6 1.256 . S
O28 Zn0 2.053 . S
O28 C6 1.244 . S
C29 O7 1.259 . S
C29 O8 1.254 . S
O30 Zn0 2.066 . S
O30 C2 1.256 . S
O31 C2 1.244 . S
O31 Zn3 2.053 . S
Zn32 O33 2.055 . S
Zn32 O40 2.046 . S
Zn32 N48 2.036 . S
Zn32 O60 2.053 . S
Zn32 O62 2.066 . S
O33 Zn32 2.055 . S
O33 C36 1.259 . S
C34 O62 1.256 . S
C34 O63 1.244 . S
Zn35 O37 2.046 . S
Zn35 O39 2.055 . S
Zn35 N41 2.036 . S
Zn35 O59 2.066 . S
Zn35 O63 2.053 . S
C36 O33 1.259 . S
C36 O37 1.254 . S
O37 Zn35 2.046 . S
O37 C36 1.254 . S
C38 O59 1.256 . S
C38 O60 1.244 . S
O39 Zn35 2.055 . S
O39 C61 1.259 . S
O40 Zn32 2.046 . S
O40 C61 1.254 . S
N41 Zn35 2.036 . S
N41 C42 1.298 . S
N41 N44 1.398 . S
C42 N41 1.298 . S
C42 N45 1.367 . S
C42 C55 1.481 . S
C43 N44 1.299 . S
C43 N45 1.379 . S
N44 N41 1.398 . S
N44 C43 1.299 . S
N45 C42 1.367 . S
N45 C43 1.379 . S
C46 N48 1.298 . S
C46 N50 1.367 . S
C46 C54 1.481 . S
C47 N49 1.299 . S
C47 N50 1.379 . S
N48 Zn32 2.036 . S
N48 C46 1.298 . S
N48 N49 1.398 . S
N49 C47 1.299 . S
N49 N48 1.398 . S
N50 C46 1.367 . S
N50 C47 1.379 . S
H51 C54 0.980 . S
H52 C54 0.981 . S
H53 C54 0.981 . S
C54 C46 1.481 . S
C54 H51 0.980 . S
C54 H52 0.981 . S
C54 H53 0.981 . S
C55 C42 1.481 . S
C55 H56 0.980 . S
C55 H57 0.981 . S
C55 H58 0.981 . S
H56 C55 0.980 . S
H57 C55 0.981 . S
H58 C55 0.981 . S
O59 Zn35 2.066 . S
O59 C38 1.256 . S
O60 Zn32 2.053 . S
O60 C38 1.244 . S
C61 O39 1.259 . S
C61 O40 1.254 . S
O62 Zn32 2.066 . S
O62 C34 1.256 . S
O63 C34 1.244 . S
O63 Zn35 2.053 . S
Zn64 O65 2.055 . S
Zn64 O72 2.046 . S
Zn64 N80 2.036 . S
Zn64 O92 2.053 . S
Zn64 O94 2.066 . S
O65 Zn64 2.055 . S
O65 C68 1.259 . S
C66 O94 1.256 . S
C66 O95 1.244 . S
Zn67 O69 2.046 . S
Zn67 O71 2.055 . S
Zn67 N73 2.036 . S
Zn67 O91 2.066 . S
Zn67 O95 2.053 . S
C68 O65 1.259 . S
C68 O69 1.254 . S
O69 Zn67 2.046 . S
O69 C68 1.254 . S
C70 O91 1.256 . S
C70 O92 1.244 . S
O71 Zn67 2.055 . S
O71 C93 1.259 . S
O72 Zn64 2.046 . S
O72 C93 1.254 . S
N73 Zn67 2.036 . S
N73 C74 1.298 . S
N73 N76 1.398 . S
C74 N73 1.298 . S
C74 N77 1.367 . S
C74 C87 1.481 . S
C75 N76 1.299 . S
C75 N77 1.379 . S
N76 N73 1.398 . S
N76 C75 1.299 . S
N77 C74 1.367 . S
N77 C75 1.379 . S
C78 N80 1.298 . S
C78 N82 1.367 . S
C78 C86 1.481 . S
C79 N81 1.299 . S
C79 N82 1.379 . S
N80 Zn64 2.036 . S
N80 C78 1.298 . S
N80 N81 1.398 . S
N81 C79 1.299 . S
N81 N80 1.398 . S
N82 C78 1.367 . S
N82 C79 1.379 . S
H83 C86 0.980 . S
H84 C86 0.981 . S
H85 C86 0.981 . S
C86 C78 1.481 . S
C86 H83 0.980 . S
C86 H84 0.981 . S
C86 H85 0.981 . S
C87 C74 1.481 . S
C87 H88 0.980 . S
C87 H89 0.981 . S
C87 H90 0.981 . S
H88 C87 0.980 . S
H89 C87 0.981 . S
H90 C87 0.981 . S
O91 Zn67 2.066 . S
O91 C70 1.256 . S
O92 Zn64 2.053 . S
O92 C70 1.244 . S
C93 O71 1.259 . S
C93 O72 1.254 . S
O94 Zn64 2.066 . S
O94 C66 1.256 . S
O95 C66 1.244 . S
O95 Zn67 2.053 . S
Zn96 O97 2.055 . S
Zn96 O104 2.046 . S
Zn96 N112 2.036 . S
Zn96 O124 2.053 . S
Zn96 O126 2.066 . S
O97 Zn96 2.055 . S
O97 C100 1.259 . S
C98 O126 1.256 . S
C98 O127 1.244 . S
Zn99 O101 2.046 . S
Zn99 O103 2.055 . S
Zn99 N105 2.036 . S
Zn99 O123 2.066 . S
Zn99 O127 2.053 . S
C100 O97 1.259 . S
C100 O101 1.254 . S
O101 Zn99 2.046 . S
O101 C100 1.254 . S
C102 O123 1.256 . S
C102 O124 1.244 . S
O103 Zn99 2.055 . S
O103 C125 1.259 . S
O104 Zn96 2.046 . S
O104 C125 1.254 . S
N105 Zn99 2.036 . S
N105 C106 1.298 . S
N105 N108 1.398 . S
C106 N105 1.298 . S
C106 N109 1.367 . S
C106 C119 1.481 . S
C107 N108 1.299 . S
C107 N109 1.379 . S
N108 N105 1.398 . S
N108 C107 1.299 . S
N109 C106 1.367 . S
N109 C107 1.379 . S
C110 N112 1.298 . S
C110 N114 1.367 . S
C110 C118 1.481 . S
C111 N113 1.299 . S
C111 N114 1.379 . S
N112 Zn96 2.036 . S
N112 C110 1.298 . S
N112 N113 1.398 . S
N113 C111 1.299 . S
N113 N112 1.398 . S
N114 C110 1.367 . S
N114 C111 1.379 . S
H115 C118 0.980 . S
H116 C118 0.981 . S
H117 C118 0.981 . S
C118 C110 1.481 . S
C118 H115 0.980 . S
C118 H116 0.981 . S
C118 H117 0.981 . S
C119 C106 1.481 . S
C119 H120 0.980 . S
C119 H121 0.981 . S
C119 H122 0.981 . S
H120 C119 0.980 . S
H121 C119 0.981 . S
H122 C119 0.981 . S
O123 Zn99 2.066 . S
O123 C102 1.256 . S
O124 Zn96 2.053 . S
O124 C102 1.244 . S
C125 O103 1.259 . S
C125 O104 1.254 . S
O126 Zn96 2.066 . S
O126 C98 1.256 . S
O127 C98 1.244 . S
O127 Zn99 2.053 . S
Zn128 O129 2.055 . S
Zn128 O136 2.046 . S
Zn128 N144 2.036 . S
Zn128 O156 2.053 . S
Zn128 O158 2.066 . S
O129 Zn128 2.055 . S
O129 C132 1.259 . S
C130 O158 1.256 . S
C130 O159 1.244 . S
Zn131 O133 2.046 . S
Zn131 O135 2.055 . S
Zn131 N137 2.036 . S
Zn131 O155 2.066 . S
Zn131 O159 2.053 . S
C132 O129 1.259 . S
C132 O133 1.254 . S
O133 Zn131 2.046 . S
O133 C132 1.254 . S
C134 O155 1.256 . S
C134 O156 1.244 . S
O135 Zn131 2.055 . S
O135 C157 1.259 . S
O136 Zn128 2.046 . S
O136 C157 1.254 . S
N137 Zn131 2.036 . S
N137 C138 1.298 . S
N137 N140 1.398 . S
C138 N137 1.298 . S
C138 N141 1.367 . S
C138 C151 1.481 . S
C139 N140 1.299 . S
C139 N141 1.379 . S
N140 N137 1.398 . S
N140 C139 1.299 . S
N141 C138 1.367 . S
N141 C139 1.379 . S
C142 N144 1.298 . S
C142 N146 1.367 . S
C142 C150 1.481 . S
C143 N145 1.299 . S
C143 N146 1.379 . S
N144 Zn128 2.036 . S
N144 C142 1.298 . S
N144 N145 1.398 . S
N145 C143 1.299 . S
N145 N144 1.398 . S
N146 C142 1.367 . S
N146 C143 1.379 . S
H147 C150 0.980 . S
H148 C150 0.981 . S
H149 C150 0.981 . S
C150 C142 1.481 . S
C150 H147 0.980 . S
C150 H148 0.981 . S
C150 H149 0.981 . S
C151 C138 1.481 . S
C151 H152 0.980 . S
C151 H153 0.981 . S
C151 H154 0.981 . S
H152 C151 0.980 . S
H153 C151 0.981 . S
H154 C151 0.981 . S
O155 Zn131 2.066 . S
O155 C134 1.256 . S
O156 Zn128 2.053 . S
O156 C134 1.244 . S
C157 O135 1.259 . S
C157 O136 1.254 . S
O158 Zn128 2.066 . S
O158 C130 1.256 . S
O159 C130 1.244 . S
O159 Zn131 2.053 . S
Zn160 O161 2.055 . S
Zn160 O168 2.046 . S
Zn160 N176 2.036 . S
Zn160 O188 2.053 . S
Zn160 O190 2.066 . S
O161 Zn160 2.055 . S
O161 C164 1.259 . S
C162 O190 1.256 . S
C162 O191 1.244 . S
Zn163 O165 2.046 . S
Zn163 O167 2.055 . S
Zn163 N169 2.036 . S
Zn163 O187 2.066 . S
Zn163 O191 2.053 . S
C164 O161 1.259 . S
C164 O165 1.254 . S
O165 Zn163 2.046 . S
O165 C164 1.254 . S
C166 O187 1.256 . S
C166 O188 1.244 . S
O167 Zn163 2.055 . S
O167 C189 1.259 . S
O168 Zn160 2.046 . S
O168 C189 1.254 . S
N169 Zn163 2.036 . S
N169 C170 1.298 . S
N169 N172 1.398 . S
C170 N169 1.298 . S
C170 N173 1.367 . S
C170 C183 1.481 . S
C171 N172 1.299 . S
C171 N173 1.379 . S
N172 N169 1.398 . S
N172 C171 1.299 . S
N173 C170 1.367 . S
N173 C171 1.379 . S
C174 N176 1.298 . S
C174 N178 1.367 . S
C174 C182 1.481 . S
C175 N177 1.299 . S
C175 N178 1.379 . S
N176 Zn160 2.036 . S
N176 C174 1.298 . S
N176 N177 1.398 . S
N177 C175 1.299 . S
N177 N176 1.398 . S
N178 C174 1.367 . S
N178 C175 1.379 . S
H179 C182 0.980 . S
H180 C182 0.981 . S
H181 C182 0.981 . S
C182 C174 1.481 . S
C182 H179 0.980 . S
C182 H180 0.981 . S
C182 H181 0.981 . S
C183 C170 1.481 . S
C183 H184 0.980 . S
C183 H185 0.981 . S
C183 H186 0.981 . S
H184 C183 0.980 . S
H185 C183 0.981 . S
H186 C183 0.981 . S
O187 Zn163 2.066 . S
O187 C166 1.256 . S
O188 Zn160 2.053 . S
O188 C166 1.244 . S
C189 O167 1.259 . S
C189 O168 1.254 . S
O190 Zn160 2.066 . S
O190 C162 1.256 . S
O191 C162 1.244 . S
O191 Zn163 2.053 . S
Zn192 O193 2.055 . S
Zn192 O200 2.046 . S
Zn192 N208 2.036 . S
Zn192 O220 2.053 . S
Zn192 O222 2.066 . S
O193 Zn192 2.055 . S
O193 C196 1.259 . S
C194 O222 1.256 . S
C194 O223 1.244 . S
Zn195 O197 2.046 . S
Zn195 O199 2.055 . S
Zn195 N201 2.036 . S
Zn195 O219 2.066 . S
Zn195 O223 2.053 . S
C196 O193 1.259 . S
C196 O197 1.254 . S
O197 Zn195 2.046 . S
O197 C196 1.254 . S
C198 O219 1.256 . S
C198 O220 1.244 . S
O199 Zn195 2.055 . S
O199 C221 1.259 . S
O200 Zn192 2.046 . S
O200 C221 1.254 . S
N201 Zn195 2.036 . S
N201 C202 1.298 . S
N201 N204 1.398 . S
C202 N201 1.298 . S
C202 N205 1.367 . S
C202 C215 1.481 . S
C203 N204 1.299 . S
C203 N205 1.379 . S
N204 N201 1.398 . S
N204 C203 1.299 . S
N205 C202 1.367 . S
N205 C203 1.379 . S
C206 N208 1.298 . S
C206 N210 1.367 . S
C206 C214 1.481 . S
C207 N209 1.299 . S
C207 N210 1.379 . S
N208 Zn192 2.036 . S
N208 C206 1.298 . S
N208 N209 1.398 . S
N209 C207 1.299 . S
N209 N208 1.398 . S
N210 C206 1.367 . S
N210 C207 1.379 . S
H211 C214 0.980 . S
H212 C214 0.981 . S
H213 C214 0.981 . S
C214 C206 1.481 . S
C214 H211 0.980 . S
C214 H212 0.981 . S
C214 H213 0.981 . S
C215 C202 1.481 . S
C215 H216 0.980 . S
C215 H217 0.981 . S
C215 H218 0.981 . S
H216 C215 0.980 . S
H217 C215 0.981 . S
H218 C215 0.981 . S
O219 Zn195 2.066 . S
O219 C198 1.256 . S
O220 Zn192 2.053 . S
O220 C198 1.244 . S
C221 O199 1.259 . S
C221 O200 1.254 . S
O222 Zn192 2.066 . S
O222 C194 1.256 . S
O223 C194 1.244 . S
O223 Zn195 2.053 . S
Zn224 O225 2.055 . S
Zn224 O232 2.046 . S
Zn224 N240 2.036 . S
Zn224 O252 2.053 . S
Zn224 O254 2.066 . S
O225 Zn224 2.055 . S
O225 C228 1.259 . S
C226 O254 1.256 . S
C226 O255 1.244 . S
Zn227 O229 2.046 . S
Zn227 O231 2.055 . S
Zn227 N233 2.036 . S
Zn227 O251 2.066 . S
Zn227 O255 2.053 . S
C228 O225 1.259 . S
C228 O229 1.254 . S
O229 Zn227 2.046 . S
O229 C228 1.254 . S
C230 O251 1.256 . S
C230 O252 1.244 . S
O231 Zn227 2.055 . S
O231 C253 1.259 . S
O232 Zn224 2.046 . S
O232 C253 1.254 . S
N233 Zn227 2.036 . S
N233 C234 1.298 . S
N233 N236 1.398 . S
C234 N233 1.298 . S
C234 N237 1.367 . S
C234 C247 1.481 . S
C235 N236 1.299 . S
C235 N237 1.379 . S
N236 N233 1.398 . S
N236 C235 1.299 . S
N237 C234 1.367 . S
N237 C235 1.379 . S
C238 N240 1.298 . S
C238 N242 1.367 . S
C238 C246 1.481 . S
C239 N241 1.299 . S
C239 N242 1.379 . S
N240 Zn224 2.036 . S
N240 C238 1.298 . S
N240 N241 1.398 . S
N241 C239 1.299 . S
N241 N240 1.398 . S
N242 C238 1.367 . S
N242 C239 1.379 . S
H243 C246 0.980 . S
H244 C246 0.981 . S
H245 C246 0.981 . S
C246 C238 1.481 . S
C246 H243 0.980 . S
C246 H244 0.981 . S
C246 H245 0.981 . S
C247 C234 1.481 . S
C247 H248 0.980 . S
C247 H249 0.981 . S
C247 H250 0.981 . S
H248 C247 0.980 . S
H249 C247 0.981 . S
H250 C247 0.981 . S
O251 Zn227 2.066 . S
O251 C230 1.256 . S
O252 Zn224 2.053 . S
O252 C230 1.244 . S
C253 O231 1.259 . S
C253 O232 1.254 . S
O254 Zn224 2.066 . S
O254 C226 1.256 . S
O255 C226 1.244 . S
O255 Zn227 2.053 . S
Co256 N257 2.034 . S
Co256 O271 2.262 . S
Co256 O275 1.958 1_455 S
Co256 O279 1.950 1_565 S
Co256 O280 2.057 . S
N257 Co256 2.034 . S
N257 C258 1.366 . S
N257 C260 1.332 . S
C258 N257 1.366 . S
C258 C261 1.377 . S
C258 H290 0.931 . S
N259 C260 1.346 . S
N259 C261 1.337 . S
C260 N257 1.332 . S
C260 N259 1.346 . S
C260 C294 1.361 . S
C261 C258 1.377 . S
C261 N259 1.337 . S
C261 H297 0.930 . S
Co262 N263 2.034 . S
Co262 O276 1.950 1_655 S
Co262 O277 2.262 . S
Co262 O278 1.958 1_545 S
Co262 O282 2.057 . S
N263 Co262 2.034 . S
N263 C266 1.366 . S
N263 C267 1.332 . S
N264 C265 1.337 . S
N264 C267 1.346 . S
C265 N264 1.337 . S
C265 C266 1.377 . S
C265 H298 0.930 . S
C266 N263 1.366 . S
C266 C265 1.377 . S
C266 H270 0.931 . S
C267 N263 1.332 . S
C267 N264 1.346 . S
C267 C284 1.361 . S
Co268 O271 2.101 . S
Co268 O272 2.062 1_565 S
Co268 O273 2.064 1_565 S
Co268 O274 2.045 1_455 S
Co268 O277 2.093 1_465 S
Co268 O281 2.044 1_455 S
C269 O277 1.253 . S
C269 O282 1.263 . S
H270 C266 0.931 . S
O271 Co256 2.262 . S
O271 Co268 2.101 . S
O271 C295 1.253 . S
O272 Co268 2.062 1_545 S
O272 C288 1.221 . S
O273 Co268 2.064 1_545 S
O273 C283 1.221 . S
O274 Co268 2.045 1_655 S
O274 C289 1.237 . S
O275 Co256 1.958 1_655 S
O275 C289 1.278 . S
O276 Co262 1.950 1_455 S
O276 C288 1.277 . S
O277 Co262 2.262 . S
O277 Co268 2.093 1_645 S
O277 C269 1.253 . S
O278 Co262 1.958 1_565 S
O278 C296 1.278 . S
O279 Co256 1.950 1_545 S
O279 C283 1.277 . S
O280 Co256 2.057 . S
O280 C295 1.263 . S
O281 Co268 2.044 1_655 S
O281 C296 1.237 . S
O282 Co262 2.057 . S
O282 C269 1.263 . S
C283 O273 1.221 . S
C283 O279 1.277 . S
C284 C267 1.361 . S
C284 H285 0.960 . S
C284 H286 0.961 . S
C284 H287 0.961 . S
H285 C284 0.960 . S
H286 C284 0.961 . S
H287 C284 0.961 . S
C288 O272 1.221 . S
C288 O276 1.277 . S
C289 O274 1.237 . S
C289 O275 1.278 . S
H290 C258 0.931 . S
H291 C294 0.961 . S
H292 C294 0.961 . S
H293 C294 0.960 . S
C294 C260 1.361 . S
C294 H291 0.961 . S
C294 H292 0.961 . S
C294 H293 0.960 . S
C295 O271 1.253 . S
C295 O280 1.263 . S
C296 O278 1.278 . S
C296 O281 1.237 . S
H297 C261 0.930 . S
H298 C265 0.930 . S
Co299 N300 2.034 . S
Co299 O314 2.262 1_554 S
Co299 O318 1.958 . S
Co299 O322 1.950 1_565 S
Co299 O323 2.057 1_554 S
N300 Co299 2.034 . S
N300 C301 1.366 . S
N300 C303 1.332 . S
C301 N300 1.366 . S
C301 C304 1.377 . S
C301 H333 0.931 . S
N302 C303 1.346 . S
N302 C304 1.337 . S
C303 N300 1.332 . S
C303 N302 1.346 . S
C303 C337 1.361 . S
C304 C301 1.377 . S
C304 N302 1.337 . S
C304 H340 0.930 . S
Co305 N306 2.034 . S
Co305 O319 1.950 . S
Co305 O320 2.262 1_556 S
Co305 O321 1.958 1_545 S
Co305 O325 2.057 1_556 S
N306 Co305 2.034 . S
N306 C309 1.366 . S
N306 C310 1.332 . S
N307 C308 1.337 . S
N307 C310 1.346 . S
C308 N307 1.337 . S
C308 C309 1.377 . S
C308 H341 0.930 . S
C309 N306 1.366 . S
C309 C308 1.377 . S
C309 H313 0.931 . S
C310 N306 1.332 . S
C310 N307 1.346 . S
C310 C327 1.361 . S
Co311 O314 2.116 1_554 S
Co311 O315 2.050 1_564 S
Co311 O316 2.056 1_565 S
Co311 O317 2.057 . S
Co311 O320 2.078 1_565 S
Co311 O324 2.051 1_554 S
C312 O320 1.253 . S
C312 O325 1.263 . S
H313 C309 0.931 . S
O314 Co299 2.262 1_556 S
O314 Co311 2.116 1_556 S
O314 C338 1.253 . S
O315 Co311 2.050 1_546 S
O315 C331 1.221 . S
O316 Co311 2.056 1_545 S
O316 C326 1.221 . S
O317 Co311 2.057 . S
O317 C332 1.237 . S
O318 Co299 1.958 . S
O318 C332 1.278 . S
O319 Co305 1.950 . S
O319 C331 1.277 . S
O320 Co305 2.262 1_554 S
O320 Co311 2.078 1_545 S
O320 C312 1.253 . S
O321 Co305 1.958 1_565 S
O321 C339 1.278 . S
O322 Co299 1.950 1_545 S
O322 C326 1.277 . S
O323 Co299 2.057 1_556 S
O323 C338 1.263 . S
O324 Co311 2.051 1_556 S
O324 C339 1.237 . S
O325 Co305 2.057 1_554 S
O325 C312 1.263 . S
C326 O316 1.221 . S
C326 O322 1.277 . S
C327 C310 1.361 . S
C327 H328 0.960 . S
C327 H329 0.961 . S
C327 H330 0.961 . S
H328 C327 0.960 . S
H329 C327 0.961 . S
H330 C327 0.961 . S
C331 O315 1.221 . S
C331 O319 1.277 . S
C332 O317 1.237 . S
C332 O318 1.278 . S
H333 C301 0.931 . S
H334 C337 0.961 . S
H335 C337 0.961 . S
H336 C337 0.960 . S
C337 C303 1.361 . S
C337 H334 0.961 . S
C337 H335 0.961 . S
C337 H336 0.960 . S
C338 O314 1.253 . S
C338 O323 1.263 . S
C339 O321 1.278 . S
C339 O324 1.237 . S
H340 C304 0.930 . S
H341 C308 0.930 . S
Co342 N343 2.034 . S
Co342 O357 2.262 1_554 S
Co342 O361 1.958 1_455 S
Co342 O365 1.950 . S
Co342 O366 2.057 1_554 S
N343 Co342 2.034 . S
N343 C344 1.366 . S
N343 C346 1.332 . S
C344 N343 1.366 . S
C344 C347 1.377 . S
C344 H376 0.931 . S
N345 C346 1.346 . S
N345 C347 1.337 . S
C346 N343 1.332 . S
C346 N345 1.346 . S
C346 C380 1.361 . S
C347 C344 1.377 . S
C347 N345 1.337 . S
C347 H383 0.930 . S
Co348 N349 2.034 . S
Co348 O362 1.950 1_655 S
Co348 O363 2.262 1_556 S
Co348 O364 1.958 . S
Co348 O368 2.057 1_556 S
N349 Co348 2.034 . S
N349 C352 1.366 . S
N349 C353 1.332 . S
N350 C351 1.337 . S
N350 C353 1.346 . S
C351 N350 1.337 . S
C351 C352 1.377 . S
C351 H384 0.930 . S
C352 N349 1.366 . S
C352 C351 1.377 . S
C352 H356 0.931 . S
C353 N349 1.332 . S
C353 N350 1.346 . S
C353 C370 1.361 . S
Co354 O357 2.090 1_654 S
Co354 O358 2.062 1_654 S
Co354 O359 2.060 1_655 S
Co354 O360 2.045 . S
Co354 O363 2.104 . S
Co354 O367 2.047 1_554 S
C355 O363 1.253 . S
C355 O368 1.263 . S
H356 C352 0.931 . S
O357 Co342 2.262 1_556 S
O357 Co354 2.090 1_456 S
O357 C381 1.253 . S
O358 Co354 2.062 1_456 S
O358 C374 1.221 . S
O359 Co354 2.060 1_455 S
O359 C369 1.221 . S
O360 Co354 2.045 . S
O360 C375 1.237 . S
O361 Co342 1.958 1_655 S
O361 C375 1.278 . S
O362 Co348 1.950 1_455 S
O362 C374 1.277 . S
O363 Co348 2.262 1_554 S
O363 Co354 2.104 . S
O363 C355 1.253 . S
O364 Co348 1.958 . S
O364 C382 1.278 . S
O365 Co342 1.950 . S
O365 C369 1.277 . S
O366 Co342 2.057 1_556 S
O366 C381 1.263 . S
O367 Co354 2.047 1_556 S
O367 C382 1.237 . S
O368 Co348 2.057 1_554 S
O368 C355 1.263 . S
C369 O359 1.221 . S
C369 O365 1.277 . S
C370 C353 1.361 . S
C370 H371 0.960 . S
C370 H372 0.961 . S
C370 H373 0.961 . S
H371 C370 0.960 . S
H372 C370 0.961 . S
H373 C370 0.961 . S
C374 O358 1.221 . S
C374 O362 1.277 . S
C375 O360 1.237 . S
C375 O361 1.278 . S
H376 C344 0.931 . S
H377 C380 0.961 . S
H378 C380 0.961 . S
H379 C380 0.960 . S
C380 C346 1.361 . S
C380 H377 0.961 . S
C380 H378 0.961 . S
C380 H379 0.960 . S
C381 O357 1.253 . S
C381 O366 1.263 . S
C382 O364 1.278 . S
C382 O367 1.237 . S
H383 C347 0.930 . S
H384 C351 0.930 . S
Co385 N386 2.034 . S
Co385 O400 2.262 1_554 S
Co385 O404 1.958 . S
Co385 O408 1.950 . S
Co385 O409 2.057 1_554 S
N386 Co385 2.034 . S
N386 C387 1.366 . S
N386 C389 1.332 . S
C387 N386 1.366 . S
C387 C390 1.377 . S
C387 H419 0.931 . S
N388 C389 1.346 . S
N388 C390 1.337 . S
C389 N386 1.332 . S
C389 N388 1.346 . S
C389 C423 1.361 . S
C390 C387 1.377 . S
C390 N388 1.337 . S
C390 H426 0.930 . S
Co391 N392 2.034 . S
Co391 O405 1.950 . S
Co391 O406 2.262 1_556 S
Co391 O407 1.958 . S
Co391 O411 2.057 1_556 S
N392 Co391 2.034 . S
N392 C395 1.366 . S
N392 C396 1.332 . S
N393 C394 1.337 . S
N393 C396 1.346 . S
C394 N393 1.337 . S
C394 C395 1.377 . S
C394 H427 0.930 . S
C395 N392 1.366 . S
C395 C394 1.377 . S
C395 H399 0.931 . S
C396 N392 1.332 . S
C396 N393 1.346 . S
C396 C413 1.361 . S
Co397 O400 2.097 1_554 S
Co397 O401 2.065 1_554 S
Co397 O402 2.065 . S
Co397 O403 2.042 . S
Co397 O406 2.097 . S
Co397 O410 2.042 1_554 S
C398 O406 1.253 . S
C398 O411 1.263 . S
H399 C395 0.931 . S
O400 Co385 2.262 1_556 S
O400 Co397 2.097 1_556 S
O400 C424 1.253 . S
O401 Co397 2.065 1_556 S
O401 C417 1.221 . S
O402 Co397 2.065 . S
O402 C412 1.221 . S
O403 Co397 2.042 . S
O403 C418 1.237 . S
O404 Co385 1.958 . S
O404 C418 1.278 . S
O405 Co391 1.950 . S
O405 C417 1.277 . S
O406 Co391 2.262 1_554 S
O406 Co397 2.097 . S
O406 C398 1.253 . S
O407 Co391 1.958 . S
O407 C425 1.278 . S
O408 Co385 1.950 . S
O408 C412 1.277 . S
O409 Co385 2.057 1_556 S
O409 C424 1.263 . S
O410 Co397 2.042 1_556 S
O410 C425 1.237 . S
O411 Co391 2.057 1_554 S
O411 C398 1.263 . S
C412 O402 1.221 . S
C412 O408 1.277 . S
C413 C396 1.361 . S
C413 H414 0.960 . S
C413 H415 0.961 . S
C413 H416 0.961 . S
H414 C413 0.960 . S
H415 C413 0.961 . S
H416 C413 0.961 . S
C417 O401 1.221 . S
C417 O405 1.277 . S
C418 O403 1.237 . S
C418 O404 1.278 . S
H419 C387 0.931 . S
H420 C423 0.961 . S
H421 C423 0.961 . S
H422 C423 0.960 . S
C423 C389 1.361 . S
C423 H420 0.961 . S
C423 H421 0.961 . S
C423 H422 0.960 . S
C424 O400 1.253 . S
C424 O409 1.263 . S
C425 O407 1.278 . S
C425 O410 1.237 . S
H426 C390 0.930 . S
H427 C394 0.930 . S
Co428 N429 2.034 . S
Co428 O443 2.262 . S
Co428 O447 1.958 1_455 S
Co428 O451 1.950 . S
Co428 O452 2.057 . S
N429 Co428 2.034 . S
N429 C430 1.366 . S
N429 C432 1.332 . S
C430 N429 1.366 . S
C430 C433 1.377 . S
C430 H462 0.931 . S
N431 C432 1.346 . S
N431 C433 1.337 . S
C432 N429 1.332 . S
C432 N431 1.346 . S
C432 C466 1.361 . S
C433 C430 1.377 . S
C433 N431 1.337 . S
C433 H469 0.930 . S
Co434 N435 2.034 . S
Co434 O448 1.950 1_655 S
Co434 O449 2.262 . S
Co434 O450 1.958 . S
Co434 O454 2.057 . S
N435 Co434 2.034 . S
N435 C438 1.366 . S
N435 C439 1.332 . S
N436 C437 1.337 . S
N436 C439 1.346 . S
C437 N436 1.337 . S
C437 C438 1.377 . S
C437 H470 0.930 . S
C438 N435 1.366 . S
C438 C437 1.377 . S
C438 H442 0.931 . S
C439 N435 1.332 . S
C439 N436 1.346 . S
C439 C456 1.361 . S
Co440 O443 2.097 1_655 S
Co440 O444 2.065 1_655 S
Co440 O445 2.065 1_655 S
Co440 O446 2.042 . S
Co440 O449 2.097 . S
Co440 O453 2.042 . S
C441 O449 1.253 . S
C441 O454 1.263 . S
H442 C438 0.931 . S
O443 Co428 2.262 . S
O443 Co440 2.097 1_455 S
O443 C467 1.253 . S
O444 Co440 2.065 1_455 S
O444 C460 1.221 . S
O445 Co440 2.065 1_455 S
O445 C455 1.221 . S
O446 Co440 2.042 . S
O446 C461 1.237 . S
O447 Co428 1.958 1_655 S
O447 C461 1.278 . S
O448 Co434 1.950 1_455 S
O448 C460 1.277 . S
O449 Co434 2.262 . S
O449 Co440 2.097 . S
O449 C441 1.253 . S
O450 Co434 1.958 . S
O450 C468 1.278 . S
O451 Co428 1.950 . S
O451 C455 1.277 . S
O452 Co428 2.057 . S
O452 C467 1.263 . S
O453 Co440 2.042 . S
O453 C468 1.237 . S
O454 Co434 2.057 . S
O454 C441 1.263 . S
C455 O445 1.221 . S
C455 O451 1.277 . S
C456 C439 1.361 . S
C456 H457 0.960 . S
C456 H458 0.961 . S
C456 H459 0.961 . S
H457 C456 0.960 . S
H458 C456 0.961 . S
H459 C456 0.961 . S
C460 O444 1.221 . S
C460 O448 1.277 . S
C461 O446 1.237 . S
C461 O447 1.278 . S
H462 C430 0.931 . S
H463 C466 0.961 . S
H464 C466 0.961 . S
H465 C466 0.960 . S
C466 C432 1.361 . S
C466 H463 0.961 . S
C466 H464 0.961 . S
C466 H465 0.960 . S
C467 O443 1.253 . S
C467 O452 1.263 . S
C468 O450 1.278 . S
C468 O453 1.237 . S
H469 C433 0.930 . S
H470 C437 0.930 . S
Co471 N472 2.034 . S
Co471 O486 2.262 . S
Co471 O490 1.958 . S
Co471 O494 1.950 1_565 S
Co471 O495 2.057 . S
N472 Co471 2.034 . S
N472 C473 1.366 . S
N472 C475 1.332 . S
C473 N472 1.366 . S
C473 C476 1.377 . S
C473 H505 0.931 . S
N474 C475 1.346 . S
N474 C476 1.337 . S
C475 N472 1.332 . S
C475 N474 1.346 . S
C475 C509 1.361 . S
C476 C473 1.377 . S
C476 N474 1.337 . S
C476 H512 0.930 . S
Co477 N478 2.034 . S
Co477 O491 1.950 . S
Co477 O492 2.262 . S
Co477 O493 1.958 1_545 S
Co477 O497 2.057 . S
N478 Co477 2.034 . S
N478 C481 1.366 . S
N478 C482 1.332 . S
N479 C480 1.337 . S
N479 C482 1.346 . S
C480 N479 1.337 . S
C480 C481 1.377 . S
C480 H513 0.930 . S
C481 N478 1.366 . S
C481 C480 1.377 . S
C481 H485 0.931 . S
C482 N478 1.332 . S
C482 N479 1.346 . S
C482 C499 1.361 . S
Co483 O486 2.113 . S
Co483 O487 2.052 1_565 S
Co483 O488 2.058 1_565 S
Co483 O489 2.055 . S
Co483 O492 2.081 1_565 S
Co483 O496 2.049 . S
C484 O492 1.253 . S
C484 O497 1.263 . S
H485 C481 0.931 . S
O486 Co471 2.262 . S
O486 Co483 2.113 . S
O486 C510 1.253 . S
O487 Co483 2.052 1_545 S
O487 C503 1.221 . S
O488 Co483 2.058 1_545 S
O488 C498 1.221 . S
O489 Co483 2.055 . S
O489 C504 1.237 . S
O490 Co471 1.958 . S
O490 C504 1.278 . S
O491 Co477 1.950 . S
O491 C503 1.277 . S
O492 Co477 2.262 . S
O492 Co483 2.081 1_545 S
O492 C484 1.253 . S
O493 Co477 1.958 1_565 S
O493 C511 1.278 . S
O494 Co471 1.950 1_545 S
O494 C498 1.277 . S
O495 Co471 2.057 . S
O495 C510 1.263 . S
O496 Co483 2.049 . S
O496 C511 1.237 . S
O497 Co477 2.057 . S
O497 C484 1.263 . S
C498 O488 1.221 . S
C498 O494 1.277 . S
C499 C482 1.361 . S
C499 H500 0.960 . S
C499 H501 0.961 . S
C499 H502 0.961 . S
H500 C499 0.960 . S
H501 C499 0.961 . S
H502 C499 0.961 . S
C503 O487 1.221 . S
C503 O491 1.277 . S
C504 O489 1.237 . S
C504 O490 1.278 . S
H505 C473 0.931 . S
H506 C509 0.961 . S
H507 C509 0.961 . S
H508 C509 0.960 . S
C509 C475 1.361 . S
C509 H506 0.961 . S
C509 H507 0.961 . S
C509 H508 0.960 . S
C510 O486 1.253 . S
C510 O495 1.263 . S
C511 O493 1.278 . S
C511 O496 1.237 . S
H512 C476 0.930 . S
H513 C480 0.930 . S
C514 C515 1.363 . S
C514 C520 1.379 . S
C514 N522 1.356 . S
C515 C514 1.363 . S
C515 C521 1.363 . S
C516 C517 1.363 . S
C516 C521 1.379 . S
C516 N523 1.356 . S
C517 C516 1.363 . S
C517 C520 1.363 . S
N518 C520 1.356 . S
N518 H530 0.984 . S
N518 H531 0.985 . S
N519 C521 1.356 . S
N519 H524 0.984 . S
N519 H525 0.985 . S
C520 C514 1.379 . S
C520 C517 1.363 . S
C520 N518 1.356 . S
C521 C515 1.363 . S
C521 C516 1.379 . S
C521 N519 1.356 . S
N522 C514 1.356 . S
N522 H528 0.984 . S
N522 H529 0.984 . S
N523 C516 1.356 . S
N523 H526 0.984 . S
N523 H527 0.985 . S
H524 N519 0.984 . S
H525 N519 0.985 . S
H526 N523 0.984 . S
H527 N523 0.985 . S
H528 N522 0.984 . S
H529 N522 0.984 . S
H530 N518 0.984 . S
H531 N518 0.985 . S
C532 C533 1.363 . S
C532 C538 1.379 . S
C532 N540 1.356 . S
C533 C532 1.363 . S
C533 C539 1.363 . S
C534 C535 1.363 . S
C534 C539 1.379 . S
C534 N541 1.356 . S
C535 C534 1.363 . S
C535 C538 1.363 . S
N536 C538 1.356 . S
N536 H548 0.984 . S
N536 H549 0.985 . S
N537 C539 1.356 . S
N537 H542 0.984 . S
N537 H543 0.985 . S
C538 C532 1.379 . S
C538 C535 1.363 . S
C538 N536 1.356 . S
C539 C533 1.363 . S
C539 C534 1.379 . S
C539 N537 1.356 . S
N540 C532 1.356 . S
N540 H546 0.984 . S
N540 H547 0.984 . S
N541 C534 1.356 . S
N541 H544 0.984 . S
N541 H545 0.985 . S
H542 N537 0.984 . S
H543 N537 0.985 . S
H544 N541 0.984 . S
H545 N541 0.985 . S
H546 N540 0.984 . S
H547 N540 0.984 . S
H548 N536 0.984 . S
H549 N536 0.985 . S
C550 C551 1.363 . S
C550 C556 1.379 . S
C550 N558 1.356 . S
C551 C550 1.363 . S
C551 C557 1.363 . S
C552 C553 1.363 . S
C552 C557 1.379 . S
C552 N559 1.356 . S
C553 C552 1.363 . S
C553 C556 1.363 . S
N554 C556 1.356 1_545 S
N554 H566 0.984 . S
N554 H567 0.993 . S
N555 C557 1.356 . S
N555 H560 0.984 . S
N555 H561 0.985 . S
C556 C550 1.379 . S
C556 C553 1.363 . S
C556 N554 1.356 1_565 S
C557 C551 1.363 . S
C557 C552 1.379 . S
C557 N555 1.356 . S
N558 C550 1.356 . S
N558 H564 0.984 1_565 S
N558 H565 0.984 . S
N559 C552 1.356 . S
N559 H562 0.984 . S
N559 H563 0.985 . S
H560 N555 0.984 . S
H561 N555 0.985 . S
H562 N559 0.984 . S
H563 N559 0.985 . S
H564 N558 0.984 1_545 S
H565 N558 0.984 . S
H566 N554 0.984 . S
H567 N554 0.993 . S
C568 C569 1.363 . S
C568 C574 1.379 . S
C568 N576 1.356 . S
C569 C568 1.363 . S
C569 C575 1.363 . S
C570 C571 1.363 . S
C570 C575 1.379 . S
C570 N577 1.356 . S
C571 C570 1.363 . S
C571 C574 1.363 . S
N572 C574 1.356 . S
N572 H584 0.984 . S
N572 H585 0.985 . S
N573 C575 1.356 . S
N573 H578 0.984 . S
N573 H579 0.985 . S
C574 C568 1.379 . S
C574 C571 1.363 . S
C574 N572 1.356 . S
C575 C569 1.363 . S
C575 C570 1.379 . S
C575 N573 1.356 . S
N576 C568 1.356 . S
N576 H582 0.984 . S
N576 H583 0.984 . S
N577 C570 1.356 . S
N577 H580 0.984 . S
N577 H581 0.985 . S
H578 N573 0.984 . S
H579 N573 0.985 . S
H580 N577 0.984 . S
H581 N577 0.985 . S
H582 N576 0.984 . S
H583 N576 0.984 . S
H584 N572 0.984 . S
H585 N572 0.985 . S
C586 C587 1.363 . S
C586 C592 1.379 . S
C586 N594 1.356 . S
C587 C586 1.363 . S
C587 C593 1.363 . S
C588 C589 1.363 . S
C588 C593 1.379 . S
C588 N595 1.356 . S
C589 C588 1.363 . S
C589 C592 1.363 . S
N590 C592 1.356 . S
N590 H602 0.984 . S
N590 H603 0.985 . S
N591 C593 1.356 . S
N591 H596 0.984 . S
N591 H597 0.985 . S
C592 C586 1.379 . S
C592 C589 1.363 . S
C592 N590 1.356 . S
C593 C587 1.363 . S
C593 C588 1.379 . S
C593 N591 1.356 . S
N594 C586 1.356 . S
N594 H600 0.984 . S
N594 H601 0.984 . S
N595 C588 1.356 . S
N595 H598 0.984 . S
N595 H599 0.985 . S
H596 N591 0.984 . S
H597 N591 0.985 . S
H598 N595 0.984 . S
H599 N595 0.985 . S
H600 N594 0.984 . S
H601 N594 0.984 . S
H602 N590 0.984 . S
H603 N590 0.985 . S
C604 C605 1.363 . S
C604 C610 1.379 . S
C604 N612 1.356 . S
C605 C604 1.363 . S
C605 C611 1.363 . S
C606 C607 1.363 . S
C606 C611 1.379 . S
C606 N613 1.356 . S
C607 C606 1.363 . S
C607 C610 1.363 . S
N608 C610 1.356 . S
N608 H620 0.984 . S
N608 H621 0.985 . S
N609 C611 1.356 . S
N609 H614 0.984 . S
N609 H615 0.985 1_545 S
C610 C604 1.379 . S
C610 C607 1.363 . S
C610 N608 1.356 . S
C611 C605 1.363 . S
C611 C606 1.379 . S
C611 N609 1.356 . S
N612 C604 1.356 . S
N612 H618 0.984 . S
N612 H619 0.984 . S
N613 C606 1.356 . S
N613 H616 0.984 . S
N613 H617 0.985 1_545 S
H614 N609 0.984 . S
H615 N609 0.985 1_565 S
H616 N613 0.984 . S
H617 N613 0.985 1_565 S
H618 N612 0.984 . S
H619 N612 0.984 . S
H620 N608 0.984 . S
H621 N608 0.985 . S
C622 C623 1.363 . S
C622 C628 1.379 . S
C622 N630 1.356 . S
C623 C622 1.363 . S
C623 C629 1.363 . S
C624 C625 1.363 . S
C624 C629 1.379 . S
C624 N631 1.356 . S
C625 C624 1.363 . S
C625 C628 1.363 . S
N626 C628 1.356 . S
N626 H638 0.984 . S
N626 H639 0.985 . S
N627 C629 1.356 . S
N627 H632 0.984 . S
N627 H633 0.985 . S
C628 C622 1.379 . S
C628 C625 1.363 . S
C628 N626 1.356 . S
C629 C623 1.363 . S
C629 C624 1.379 . S
C629 N627 1.356 . S
N630 C622 1.356 . S
N630 H636 0.984 . S
N630 H637 0.984 . S
N631 C624 1.356 . S
N631 H634 0.984 . S
N631 H635 0.985 . S
H632 N627 0.984 . S
H633 N627 0.985 . S
H634 N631 0.984 . S
H635 N631 0.985 . S
H636 N630 0.984 . S
H637 N630 0.984 . S
H638 N626 0.984 . S
H639 N626 0.985 . S
C640 C641 1.363 . S
C640 C646 1.379 . S
C640 N648 1.356 . S
C641 C640 1.363 . S
C641 C647 1.363 . S
C642 C643 1.363 . S
C642 C647 1.379 . S
C642 N649 1.356 . S
C643 C642 1.363 . S
C643 C646 1.363 . S
N644 C646 1.356 . S
N644 H656 0.984 1_565 S
N644 H657 0.989 . S
N645 C647 1.356 . S
N645 H650 0.984 . S
N645 H651 0.985 . S
C646 C640 1.379 . S
C646 C643 1.363 . S
C646 N644 1.356 . S
C647 C641 1.363 . S
C647 C642 1.379 . S
C647 N645 1.356 . S
N648 C640 1.356 . S
N648 H654 0.984 . S
N648 H655 0.984 . S
N649 C642 1.356 . S
N649 H652 0.984 . S
N649 H653 0.985 . S
H650 N645 0.984 . S
H651 N645 0.985 . S
H652 N649 0.984 . S
H653 N649 0.985 . S
H654 N648 0.984 . S
H655 N648 0.984 . S
H656 N644 0.984 1_545 S
H657 N644 0.989 . S
C658 C659 1.363 . S
C658 C664 1.379 . S
C658 N666 1.356 . S
C659 C658 1.363 . S
C659 C665 1.363 . S
C660 C661 1.363 . S
C660 C665 1.379 . S
C660 N667 1.356 . S
C661 C660 1.363 . S
C661 C664 1.363 . S
N662 C664 1.356 . S
N662 H674 0.984 . S
N662 H675 0.985 . S
N663 C665 1.356 . S
N663 H668 0.984 . S
N663 H669 0.985 . S
C664 C658 1.379 . S
C664 C661 1.363 . S
C664 N662 1.356 . S
C665 C659 1.363 . S
C665 C660 1.379 . S
C665 N663 1.356 . S
N666 C658 1.356 . S
N666 H672 0.984 . S
N666 H673 0.984 . S
N667 C660 1.356 . S
N667 H670 0.984 . S
N667 H671 0.985 . S
H668 N663 0.984 . S
H669 N663 0.985 . S
H670 N667 0.984 . S
H671 N667 0.985 . S
H672 N666 0.984 . S
H673 N666 0.984 . S
H674 N662 0.984 . S
H675 N662 0.985 . S
C676 C677 1.363 . S
C676 C682 1.379 . S
C676 N684 1.356 . S
C677 C676 1.363 . S
C677 C683 1.363 . S
C678 C679 1.363 . S
C678 C683 1.379 . S
C678 N685 1.356 . S
C679 C678 1.363 . S
C679 C682 1.363 . S
N680 C682 1.356 . S
N680 H692 0.984 1_655 S
N680 H693 0.985 . S
N681 C683 1.356 . S
N681 H686 0.984 . S
N681 H687 0.985 . S
C682 C676 1.379 . S
C682 C679 1.363 . S
C682 N680 1.356 . S
C683 C677 1.363 . S
C683 C678 1.379 . S
C683 N681 1.356 . S
N684 C676 1.356 . S
N684 H690 0.984 . S
N684 H691 0.984 . S
N685 C678 1.356 . S
N685 H688 0.984 . S
N685 H689 0.985 . S
H686 N681 0.984 . S
H687 N681 0.985 . S
H688 N685 0.984 . S
H689 N685 0.985 . S
H690 N684 0.984 . S
H691 N684 0.984 . S
H692 N680 0.984 1_455 S
H693 N680 0.985 . S
C694 C695 1.363 . S
C694 C700 1.379 . S
C694 N702 1.356 . S
C695 C694 1.363 . S
C695 C701 1.363 . S
C696 C697 1.363 . S
C696 C701 1.379 . S
C696 N703 1.356 . S
C697 C696 1.363 . S
C697 C700 1.363 . S
N698 C700 1.356 . S
N698 H710 0.984 . S
N698 H711 0.985 . S
N699 C701 1.356 . S
N699 H704 0.984 . S
N699 H705 0.985 . S
C700 C694 1.379 . S
C700 C697 1.363 . S
C700 N698 1.356 . S
C701 C695 1.363 . S
C701 C696 1.379 . S
C701 N699 1.356 . S
N702 C694 1.356 . S
N702 H708 0.984 . S
N702 H709 0.984 . S
N703 C696 1.356 . S
N703 H706 0.984 . S
N703 H707 0.985 . S
H704 N699 0.984 . S
H705 N699 0.985 . S
H706 N703 0.984 . S
H707 N703 0.985 . S
H708 N702 0.984 . S
H709 N702 0.984 . S
H710 N698 0.984 . S
H711 N698 0.985 . S
C712 C713 1.363 . S
C712 C718 1.379 . S
C712 N720 1.356 . S
C713 C712 1.363 . S
C713 C719 1.363 . S
C714 C715 1.363 . S
C714 C719 1.379 . S
C714 N721 1.356 . S
C715 C714 1.363 . S
C715 C718 1.363 . S
N716 C718 1.356 . S
N716 H728 0.984 . S
N716 H729 0.985 . S
N717 C719 1.356 . S
N717 H722 0.984 . S
N717 H723 0.985 . S
C718 C712 1.379 . S
C718 C715 1.363 . S
C718 N716 1.356 . S
C719 C713 1.363 . S
C719 C714 1.379 . S
C719 N717 1.356 . S
N720 C712 1.356 . S
N720 H726 0.984 . S
N720 H727 0.984 . S
N721 C714 1.356 . S
N721 H724 0.984 . S
N721 H725 0.985 . S
H722 N717 0.984 . S
H723 N717 0.985 . S
H724 N721 0.984 . S
H725 N721 0.985 . S
H726 N720 0.984 . S
H727 N720 0.984 . S
H728 N716 0.984 . S
H729 N716 0.985 . S
C730 C731 1.363 . S
C730 C736 1.379 . S
C730 N738 1.356 . S
C731 C730 1.363 . S
C731 C737 1.363 . S
C732 C733 1.363 . S
C732 C737 1.379 . S
C732 N739 1.356 . S
C733 C732 1.363 . S
C733 C736 1.363 . S
N734 C736 1.356 . S
N734 H746 0.984 . S
N734 H747 0.985 . S
N735 C737 1.356 . S
N735 H740 0.984 . S
N735 H741 0.985 . S
C736 C730 1.379 . S
C736 C733 1.363 . S
C736 N734 1.356 . S
C737 C731 1.363 . S
C737 C732 1.379 . S
C737 N735 1.356 . S
N738 C730 1.356 . S
N738 H744 0.984 . S
N738 H745 0.984 . S
N739 C732 1.356 . S
N739 H742 0.984 . S
N739 H743 0.985 . S
H740 N735 0.984 . S
H741 N735 0.985 . S
H742 N739 0.984 . S
H743 N739 0.985 . S
H744 N738 0.984 . S
H745 N738 0.984 . S
H746 N734 0.984 . S
H747 N734 0.985 . S
C748 C749 1.363 . S
C748 C754 1.379 . S
C748 N756 1.356 . S
C749 C748 1.363 . S
C749 C755 1.363 . S
C750 C751 1.363 . S
C750 C755 1.379 . S
C750 N757 1.356 . S
C751 C750 1.363 . S
C751 C754 1.363 . S
N752 C754 1.356 . S
N752 H764 0.984 . S
N752 H765 0.985 . S
N753 C755 1.356 . S
N753 H758 0.984 . S
N753 H759 0.985 . S
C754 C748 1.379 . S
C754 C751 1.363 . S
C754 N752 1.356 . S
C755 C749 1.363 . S
C755 C750 1.379 . S
C755 N753 1.356 . S
N756 C748 1.356 . S
N756 H762 0.984 . S
N756 H763 0.984 . S
N757 C750 1.356 . S
N757 H760 0.984 . S
N757 H761 0.985 . S
H758 N753 0.984 . S
H759 N753 0.985 . S
H760 N757 0.984 . S
H761 N757 0.985 . S
H762 N756 0.984 . S
H763 N756 0.984 . S
H764 N752 0.984 . S
H765 N752 0.985 . S
C766 C767 1.363 . S
C766 C772 1.379 . S
C766 N774 1.356 . S
C767 C766 1.363 . S
C767 C773 1.363 . S
C768 C769 1.363 . S
C768 C773 1.379 . S
C768 N775 1.356 . S
C769 C768 1.363 . S
C769 C772 1.363 . S
N770 C772 1.356 . S
N770 H782 0.984 . S
N770 H783 0.985 . S
N771 C773 1.356 . S
N771 H776 0.984 . S
N771 H777 0.985 . S
C772 C766 1.379 . S
C772 C769 1.363 . S
C772 N770 1.356 . S
C773 C767 1.363 . S
C773 C768 1.379 . S
C773 N771 1.356 . S
N774 C766 1.356 . S
N774 H780 0.984 . S
N774 H781 0.984 . S
N775 C768 1.356 . S
N775 H778 0.984 . S
N775 H779 0.985 . S
H776 N771 0.984 . S
H777 N771 0.985 . S
H778 N775 0.984 . S
H779 N775 0.985 . S
H780 N774 0.984 . S
H781 N774 0.984 . S
H782 N770 0.984 . S
H783 N770 0.985 . S
C784 C785 1.363 . S
C784 C790 1.379 . S
C784 N792 1.356 . S
C785 C784 1.363 . S
C785 C791 1.363 . S
C786 C787 1.363 . S
C786 C791 1.379 . S
C786 N793 1.356 . S
C787 C786 1.363 . S
C787 C790 1.363 . S
N788 C790 1.356 . S
N788 H800 0.984 . S
N788 H801 0.985 . S
N789 C791 1.356 . S
N789 H794 0.984 . S
N789 H795 0.985 . S
C790 C784 1.379 . S
C790 C787 1.363 . S
C790 N788 1.356 . S
C791 C785 1.363 . S
C791 C786 1.379 . S
C791 N789 1.356 . S
N792 C784 1.356 . S
N792 H798 0.984 . S
N792 H799 0.984 . S
N793 C786 1.356 . S
N793 H796 0.984 . S
N793 H797 0.985 . S
H794 N789 0.984 . S
H795 N789 0.985 . S
H796 N793 0.984 . S
H797 N793 0.985 . S
H798 N792 0.984 . S
H799 N792 0.984 . S
H800 N788 0.984 . S
H801 N788 0.985 . S
C802 C803 1.363 . S
C802 C808 1.379 . S
C802 N810 1.356 . S
C803 C802 1.363 . S
C803 C809 1.363 . S
C804 C805 1.363 . S
C804 C809 1.379 . S
C804 N811 1.356 . S
C805 C804 1.363 . S
C805 C808 1.363 . S
N806 C808 1.356 . S
N806 H818 0.984 . S
N806 H819 0.985 . S
N807 C809 1.356 . S
N807 H812 0.984 . S
N807 H813 0.985 . S
C808 C802 1.379 . S
C808 C805 1.363 . S
C808 N806 1.356 . S
C809 C803 1.363 . S
C809 C804 1.379 . S
C809 N807 1.356 . S
N810 C802 1.356 . S
N810 H816 0.984 . S
N810 H817 0.984 . S
N811 C804 1.356 . S
N811 H814 0.984 . S
N811 H815 0.985 . S
H812 N807 0.984 . S
H813 N807 0.985 . S
H814 N811 0.984 . S
H815 N811 0.985 . S
H816 N810 0.984 . S
H817 N810 0.984 . S
H818 N806 0.984 . S
H819 N806 0.985 . S
C820 C821 1.363 . S
C820 C826 1.379 . S
C820 N828 1.356 . S
C821 C820 1.363 . S
C821 C827 1.363 . S
C822 C823 1.363 . S
C822 C827 1.379 . S
C822 N829 1.356 . S
C823 C822 1.363 . S
C823 C826 1.363 . S
N824 C826 1.356 . S
N824 H836 0.984 1_556 S
N824 H837 0.985 . S
N825 C827 1.356 . S
N825 H830 0.984 . S
N825 H831 0.985 . S
C826 C820 1.379 . S
C826 C823 1.363 . S
C826 N824 1.356 . S
C827 C821 1.363 . S
C827 C822 1.379 . S
C827 N825 1.356 . S
N828 C820 1.356 . S
N828 H834 0.984 1_556 S
N828 H835 0.984 . S
N829 C822 1.356 . S
N829 H832 0.984 . S
N829 H833 0.985 . S
H830 N825 0.984 . S
H831 N825 0.985 . S
H832 N829 0.984 . S
H833 N829 0.985 . S
H834 N828 0.984 1_554 S
H835 N828 0.984 . S
H836 N824 0.984 1_554 S
H837 N824 0.985 . S
C838 C839 1.363 . S
C838 C844 1.379 . S
C838 N846 1.356 . S
C839 C838 1.363 . S
C839 C845 1.363 . S
C840 C841 1.363 . S
C840 C845 1.379 . S
C840 N847 1.356 . S
C841 C840 1.363 . S
C841 C844 1.363 . S
N842 C844 1.356 . S
N842 H854 0.984 . S
N842 H855 0.985 . S
N843 C845 1.356 . S
N843 H848 0.984 . S
N843 H849 0.985 . S
C844 C838 1.379 . S
C844 C841 1.363 . S
C844 N842 1.356 . S
C845 C839 1.363 . S
C845 C840 1.379 . S
C845 N843 1.356 . S
N846 C838 1.356 . S
N846 H852 0.984 . S
N846 H853 0.984 . S
N847 C840 1.356 . S
N847 H850 0.984 . S
N847 H851 0.985 . S
H848 N843 0.984 . S
H849 N843 0.985 . S
H850 N847 0.984 . S
H851 N847 0.985 . S
H852 N846 0.984 . S
H853 N846 0.984 . S
H854 N842 0.984 . S
H855 N842 0.985 . S
C856 C857 1.363 . S
C856 C862 1.379 . S
C856 N864 1.356 . S
C857 C856 1.363 . S
C857 C863 1.363 . S
C858 C859 1.363 . S
C858 C863 1.379 . S
C858 N865 1.356 . S
C859 C858 1.363 . S
C859 C862 1.363 . S
N860 C862 1.356 . S
N860 H872 0.984 1_655 S
N860 H873 0.985 . S
N861 C863 1.356 . S
N861 H866 0.984 . S
N861 H867 0.985 . S
C862 C856 1.379 . S
C862 C859 1.363 . S
C862 N860 1.356 . S
C863 C857 1.363 . S
C863 C858 1.379 . S
C863 N861 1.356 . S
N864 C856 1.356 . S
N864 H870 0.984 . S
N864 H871 0.984 . S
N865 C858 1.356 . S
N865 H868 0.984 . S
N865 H869 0.985 1_556 S
H866 N861 0.984 . S
H867 N861 0.985 . S
H868 N865 0.984 . S
H869 N865 0.985 1_554 S
H870 N864 0.984 . S
H871 N864 0.984 . S
H872 N860 0.984 1_455 S
H873 N860 0.985 . S
C874 C875 1.363 . S
C874 C880 1.379 . S
C874 N882 1.356 . S
C875 C874 1.363 . S
C875 C881 1.363 . S
C876 C877 1.363 . S
C876 C881 1.379 . S
C876 N883 1.356 . S
C877 C876 1.363 . S
C877 C880 1.363 . S
N878 C880 1.356 . S
N878 H890 0.984 . S
N878 H891 0.985 . S
N879 C881 1.356 . S
N879 H884 0.984 . S
N879 H885 0.985 . S
C880 C874 1.379 . S
C880 C877 1.363 . S
C880 N878 1.356 . S
C881 C875 1.363 . S
C881 C876 1.379 . S
C881 N879 1.356 . S
N882 C874 1.356 . S
N882 H888 0.984 . S
N882 H889 0.984 . S
N883 C876 1.356 . S
N883 H886 0.984 . S
N883 H887 0.985 . S
H884 N879 0.984 . S
H885 N879 0.985 . S
H886 N883 0.984 . S
H887 N883 0.985 . S
H888 N882 0.984 . S
H889 N882 0.984 . S
H890 N878 0.984 . S
H891 N878 0.985 . S
C892 C893 1.363 . S
C892 C898 1.379 . S
C892 N900 1.356 . S
C893 C892 1.363 . S
C893 C899 1.363 . S
C894 C895 1.363 . S
C894 C899 1.379 . S
C894 N901 1.356 . S
C895 C894 1.363 . S
C895 C898 1.363 . S
N896 C898 1.356 . S
N896 H908 0.984 . S
N896 H909 0.985 . S
N897 C899 1.356 . S
N897 H902 0.984 . S
N897 H903 0.985 . S
C898 C892 1.379 . S
C898 C895 1.363 . S
C898 N896 1.356 . S
C899 C893 1.363 . S
C899 C894 1.379 . S
C899 N897 1.356 . S
N900 C892 1.356 . S
N900 H906 0.984 . S
N900 H907 0.984 . S
N901 C894 1.356 . S
N901 H904 0.984 . S
N901 H905 0.985 . S
H902 N897 0.984 . S
H903 N897 0.985 . S
H904 N901 0.984 . S
H905 N901 0.985 . S
H906 N900 0.984 . S
H907 N900 0.984 . S
H908 N896 0.984 . S
H909 N896 0.985 . S
C910 C911 1.363 . S
C910 C916 1.379 . S
C910 N918 1.356 . S
C911 C910 1.363 . S
C911 C917 1.363 . S
C912 C913 1.363 . S
C912 C917 1.379 . S
C912 N919 1.356 . S
C913 C912 1.363 . S
C913 C916 1.363 . S
N914 C916 1.356 . S
N914 H926 0.984 . S
N914 H927 0.985 . S
N915 C917 1.356 . S
N915 H920 0.984 . S
N915 H921 0.985 . S
C916 C910 1.379 . S
C916 C913 1.363 . S
C916 N914 1.356 . S
C917 C911 1.363 . S
C917 C912 1.379 . S
C917 N915 1.356 . S
N918 C910 1.356 . S
N918 H924 0.984 . S
N918 H925 0.984 . S
N919 C912 1.356 . S
N919 H922 0.984 . S
N919 H923 0.985 . S
H920 N915 0.984 . S
H921 N915 0.985 . S
H922 N919 0.984 . S
H923 N919 0.985 . S
H924 N918 0.984 . S
H925 N918 0.984 . S
H926 N914 0.984 . S
H927 N914 0.985 . S
C928 C929 1.363 . S
C928 C934 1.379 . S
C928 N936 1.356 . S
C929 C928 1.363 . S
C929 C935 1.363 . S
C930 C931 1.363 . S
C930 C935 1.379 . S
C930 N937 1.356 . S
C931 C930 1.363 . S
C931 C934 1.363 . S
N932 C934 1.356 . S
N932 H944 0.984 . S
N932 H945 0.985 . S
N933 C935 1.356 . S
N933 H938 0.984 . S
N933 H939 0.985 . S
C934 C928 1.379 . S
C934 C931 1.363 . S
C934 N932 1.356 . S
C935 C929 1.363 . S
C935 C930 1.379 . S
C935 N933 1.356 . S
N936 C928 1.356 . S
N936 H942 0.984 . S
N936 H943 0.984 . S
N937 C930 1.356 . S
N937 H940 0.984 . S
N937 H941 0.985 . S
H938 N933 0.984 . S
H939 N933 0.985 . S
H940 N937 0.984 . S
H941 N937 0.985 . S
H942 N936 0.984 . S
H943 N936 0.984 . S
H944 N932 0.984 . S
H945 N932 0.985 . S
C946 C947 1.363 . S
C946 C952 1.379 . S
C946 N954 1.356 . S
C947 C946 1.363 . S
C947 C953 1.363 . S
C948 C949 1.363 . S
C948 C953 1.379 . S
C948 N955 1.356 . S
C949 C948 1.363 . S
C949 C952 1.363 . S
N950 C952 1.356 . S
N950 H962 0.984 . S
N950 H963 0.985 . S
N951 C953 1.356 . S
N951 H956 0.984 . S
N951 H957 0.985 . S
C952 C946 1.379 . S
C952 C949 1.363 . S
C952 N950 1.356 . S
C953 C947 1.363 . S
C953 C948 1.379 . S
C953 N951 1.356 . S
N954 C946 1.356 . S
N954 H960 0.984 . S
N954 H961 0.984 . S
N955 C948 1.356 . S
N955 H958 0.984 . S
N955 H959 0.985 . S
H956 N951 0.984 . S
H957 N951 0.985 . S
H958 N955 0.984 . S
H959 N955 0.985 . S
H960 N954 0.984 . S
H961 N954 0.984 . S
H962 N950 0.984 . S
H963 N950 0.985 . S
C964 C965 1.363 . S
C964 C970 1.379 . S
C964 N972 1.356 . S
C965 C964 1.363 . S
C965 C971 1.363 . S
C966 C967 1.363 . S
C966 C971 1.379 . S
C966 N973 1.356 . S
C967 C966 1.363 . S
C967 C970 1.363 . S
N968 C970 1.356 . S
N968 H980 0.984 . S
N968 H981 0.985 . S
N969 C971 1.356 . S
N969 H974 0.984 . S
N969 H975 0.985 . S
C970 C964 1.379 . S
C970 C967 1.363 . S
C970 N968 1.356 . S
C971 C965 1.363 . S
C971 C966 1.379 . S
C971 N969 1.356 . S
N972 C964 1.356 . S
N972 H978 0.984 . S
N972 H979 0.984 . S
N973 C966 1.356 . S
N973 H976 0.984 . S
N973 H977 0.985 . S
H974 N969 0.984 . S
H975 N969 0.985 . S
H976 N973 0.984 . S
H977 N973 0.985 . S
H978 N972 0.984 . S
H979 N972 0.984 . S
H980 N968 0.984 . S
H981 N968 0.985 . S
C982 C983 1.363 . S
C982 C988 1.379 . S
C982 N990 1.356 . S
C983 C982 1.363 . S
C983 C989 1.363 . S
C984 C985 1.363 . S
C984 C989 1.379 . S
C984 N991 1.356 . S
C985 C984 1.363 . S
C985 C988 1.363 . S
N986 C988 1.356 . S
N986 H998 0.984 . S
N986 H999 0.985 . S
N987 C989 1.356 . S
N987 H992 0.984 . S
N987 H993 0.985 . S
C988 C982 1.379 . S
C988 C985 1.363 . S
C988 N986 1.356 . S
C989 C983 1.363 . S
C989 C984 1.379 . S
C989 N987 1.356 . S
N990 C982 1.356 . S
N990 H996 0.984 . S
N990 H997 0.984 . S
N991 C984 1.356 . S
N991 H994 0.984 . S
N991 H995 0.985 . S
H992 N987 0.984 . S
H993 N987 0.985 . S
H994 N991 0.984 . S
H995 N991 0.985 . S
H996 N990 0.984 . S
H997 N990 0.984 . S
H998 N986 0.984 . S
H999 N986 0.985 . S
C1000 C1001 1.363 . S
C1000 C1006 1.379 . S
C1000 N1008 1.356 . S
C1001 C1000 1.363 . S
C1001 C1007 1.363 . S
C1002 C1003 1.363 . S
C1002 C1007 1.379 . S
C1002 N1009 1.356 . S
C1003 C1002 1.363 . S
C1003 C1006 1.363 . S
N1004 C1006 1.356 . S
N1004 H1016 0.984 . S
N1004 H1017 0.985 . S
N1005 C1007 1.356 . S
N1005 H1010 0.984 . S
N1005 H1011 0.985 . S
C1006 C1000 1.379 . S
C1006 C1003 1.363 . S
C1006 N1004 1.356 . S
C1007 C1001 1.363 . S
C1007 C1002 1.379 . S
C1007 N1005 1.356 . S
N1008 C1000 1.356 . S
N1008 H1014 0.984 . S
N1008 H1015 0.984 . S
N1009 C1002 1.356 . S
N1009 H1012 0.984 . S
N1009 H1013 0.985 . S
H1010 N1005 0.984 . S
H1011 N1005 0.985 . S
H1012 N1009 0.984 . S
H1013 N1009 0.985 . S
H1014 N1008 0.984 . S
H1015 N1008 0.984 . S
H1016 N1004 0.984 . S
H1017 N1004 0.985 . S
C1018 C1019 1.363 . S
C1018 C1024 1.379 . S
C1018 N1026 1.356 . S
C1019 C1018 1.363 . S
C1019 C1025 1.363 . S
C1020 C1021 1.363 . S
C1020 C1025 1.379 . S
C1020 N1027 1.356 . S
C1021 C1020 1.363 . S
C1021 C1024 1.363 . S
N1022 C1024 1.356 . S
N1022 H1034 0.984 . S
N1022 H1035 0.985 . S
N1023 C1025 1.356 . S
N1023 H1028 0.984 . S
N1023 H1029 0.985 . S
C1024 C1018 1.379 . S
C1024 C1021 1.363 . S
C1024 N1022 1.356 . S
C1025 C1019 1.363 . S
C1025 C1020 1.379 . S
C1025 N1023 1.356 . S
N1026 C1018 1.356 . S
N1026 H1032 0.984 . S
N1026 H1033 0.984 . S
N1027 C1020 1.356 . S
N1027 H1030 0.984 . S
N1027 H1031 0.985 . S
H1028 N1023 0.984 . S
H1029 N1023 0.985 . S
H1030 N1027 0.984 . S
H1031 N1027 0.985 . S
H1032 N1026 0.984 . S
H1033 N1026 0.984 . S
H1034 N1022 0.984 . S
H1035 N1022 0.985 . S
C1036 C1037 1.363 . S
C1036 C1042 1.379 . S
C1036 N1044 1.356 . S
C1037 C1036 1.363 . S
C1037 C1043 1.363 . S
C1038 C1039 1.363 . S
C1038 C1043 1.379 . S
C1038 N1045 1.356 . S
C1039 C1038 1.363 . S
C1039 C1042 1.363 . S
N1040 C1042 1.356 . S
N1040 H1052 0.984 . S
N1040 H1053 0.985 . S
N1041 C1043 1.356 . S
N1041 H1046 0.984 . S
N1041 H1047 0.985 . S
C1042 C1036 1.379 . S
C1042 C1039 1.363 . S
C1042 N1040 1.356 . S
C1043 C1037 1.363 . S
C1043 C1038 1.379 . S
C1043 N1041 1.356 . S
N1044 C1036 1.356 . S
N1044 H1050 0.984 . S
N1044 H1051 0.984 . S
N1045 C1038 1.356 . S
N1045 H1048 0.984 . S
N1045 H1049 0.985 . S
H1046 N1041 0.984 . S
H1047 N1041 0.985 . S
H1048 N1045 0.984 . S
H1049 N1045 0.985 . S
H1050 N1044 0.984 . S
H1051 N1044 0.984 . S
H1052 N1040 0.984 . S
H1053 N1040 0.985 . S
C1054 C1055 1.363 . S
C1054 C1060 1.379 . S
C1054 N1062 1.356 . S
C1055 C1054 1.363 . S
C1055 C1061 1.363 . S
C1056 C1057 1.363 . S
C1056 C1061 1.379 . S
C1056 N1063 1.356 . S
C1057 C1056 1.363 . S
C1057 C1060 1.363 . S
N1058 C1060 1.356 . S
N1058 H1070 0.984 . S
N1058 H1071 0.985 . S
N1059 C1061 1.356 . S
N1059 H1064 0.984 . S
N1059 H1065 0.985 . S
C1060 C1054 1.379 . S
C1060 C1057 1.363 . S
C1060 N1058 1.356 . S
C1061 C1055 1.363 . S
C1061 C1056 1.379 . S
C1061 N1059 1.356 . S
N1062 C1054 1.356 . S
N1062 H1068 0.984 . S
N1062 H1069 0.984 . S
N1063 C1056 1.356 . S
N1063 H1066 0.984 . S
N1063 H1067 0.985 . S
H1064 N1059 0.984 . S
H1065 N1059 0.985 . S
H1066 N1063 0.984 . S
H1067 N1063 0.985 . S
H1068 N1062 0.984 . S
H1069 N1062 0.984 . S
H1070 N1058 0.984 . S
H1071 N1058 0.985 . S
C1072 C1073 1.363 . S
C1072 C1078 1.379 . S
C1072 N1080 1.356 . S
C1073 C1072 1.363 . S
C1073 C1079 1.363 . S
C1074 C1075 1.363 . S
C1074 C1079 1.379 . S
C1074 N1081 1.356 . S
C1075 C1074 1.363 . S
C1075 C1078 1.363 . S
N1076 C1078 1.356 . S
N1076 H1088 0.984 . S
N1076 H1089 0.985 . S
N1077 C1079 1.356 . S
N1077 H1082 0.984 . S
N1077 H1083 0.985 . S
C1078 C1072 1.379 . S
C1078 C1075 1.363 . S
C1078 N1076 1.356 . S
C1079 C1073 1.363 . S
C1079 C1074 1.379 . S
C1079 N1077 1.356 . S
N1080 C1072 1.356 . S
N1080 H1086 0.984 . S
N1080 H1087 0.984 . S
N1081 C1074 1.356 . S
N1081 H1084 0.984 . S
N1081 H1085 0.985 . S
H1082 N1077 0.984 . S
H1083 N1077 0.985 . S
H1084 N1081 0.984 . S
H1085 N1081 0.985 . S
H1086 N1080 0.984 . S
H1087 N1080 0.984 . S
H1088 N1076 0.984 . S
H1089 N1076 0.985 . S
C1090 C1091 1.363 . S
C1090 C1096 1.379 . S
C1090 N1098 1.356 . S
C1091 C1090 1.363 . S
C1091 C1097 1.363 . S
C1092 C1093 1.363 . S
C1092 C1097 1.379 . S
C1092 N1099 1.356 . S
C1093 C1092 1.363 . S
C1093 C1096 1.363 . S
N1094 C1096 1.356 . S
N1094 H1106 0.984 . S
N1094 H1107 0.985 . S
N1095 C1097 1.356 . S
N1095 H1100 0.984 . S
N1095 H1101 0.985 . S
C1096 C1090 1.379 . S
C1096 C1093 1.363 . S
C1096 N1094 1.356 . S
C1097 C1091 1.363 . S
C1097 C1092 1.379 . S
C1097 N1095 1.356 . S
N1098 C1090 1.356 . S
N1098 H1104 0.984 . S
N1098 H1105 0.984 . S
N1099 C1092 1.356 . S
N1099 H1102 0.984 . S
N1099 H1103 0.985 . S
H1100 N1095 0.984 . S
H1101 N1095 0.985 . S
H1102 N1099 0.984 . S
H1103 N1099 0.985 . S
H1104 N1098 0.984 . S
H1105 N1098 0.984 . S
H1106 N1094 0.984 . S
H1107 N1094 0.985 . S
C1108 C1109 1.363 . S
C1108 C1114 1.379 . S
C1108 N1116 1.356 . S
C1109 C1108 1.363 . S
C1109 C1115 1.363 . S
C1110 C1111 1.363 . S
C1110 C1115 1.379 . S
C1110 N1117 1.356 . S
C1111 C1110 1.363 . S
C1111 C1114 1.363 . S
N1112 C1114 1.356 . S
N1112 H1124 0.984 . S
N1112 H1125 0.985 . S
N1113 C1115 1.356 . S
N1113 H1118 0.984 . S
N1113 H1119 0.985 . S
C1114 C1108 1.379 . S
C1114 C1111 1.363 . S
C1114 N1112 1.356 . S
C1115 C1109 1.363 . S
C1115 C1110 1.379 . S
C1115 N1113 1.356 . S
N1116 C1108 1.356 . S
N1116 H1122 0.984 . S
N1116 H1123 0.984 . S
N1117 C1110 1.356 . S
N1117 H1120 0.984 . S
N1117 H1121 0.985 . S
H1118 N1113 0.984 . S
H1119 N1113 0.985 . S
H1120 N1117 0.984 . S
H1121 N1117 0.985 . S
H1122 N1116 0.984 . S
H1123 N1116 0.984 . S
H1124 N1112 0.984 . S
H1125 N1112 0.985 . S
C1126 C1127 1.363 . S
C1126 C1132 1.379 . S
C1126 N1134 1.356 . S
C1127 C1126 1.363 . S
C1127 C1133 1.363 . S
C1128 C1129 1.363 . S
C1128 C1133 1.379 . S
C1128 N1135 1.356 . S
C1129 C1128 1.363 . S
C1129 C1132 1.363 . S
N1130 C1132 1.356 . S
N1130 H1142 0.984 . S
N1130 H1143 0.985 . S
N1131 C1133 1.356 . S
N1131 H1136 0.984 . S
N1131 H1137 0.985 . S
C1132 C1126 1.379 . S
C1132 C1129 1.363 . S
C1132 N1130 1.356 . S
C1133 C1127 1.363 . S
C1133 C1128 1.379 . S
C1133 N1131 1.356 . S
N1134 C1126 1.356 . S
N1134 H1140 0.984 . S
N1134 H1141 0.984 . S
N1135 C1128 1.356 . S
N1135 H1138 0.984 . S
N1135 H1139 0.985 . S
H1136 N1131 0.984 . S
H1137 N1131 0.985 . S
H1138 N1135 0.984 . S
H1139 N1135 0.985 . S
H1140 N1134 0.984 . S
H1141 N1134 0.984 . S
H1142 N1130 0.984 . S
H1143 N1130 0.985 . S
C1144 C1145 1.363 . S
C1144 C1150 1.379 . S
C1144 N1152 1.356 . S
C1145 C1144 1.363 . S
C1145 C1151 1.363 . S
C1146 C1147 1.363 . S
C1146 C1151 1.379 . S
C1146 N1153 1.356 . S
C1147 C1146 1.363 . S
C1147 C1150 1.363 . S
N1148 C1150 1.356 . S
N1148 H1160 0.984 . S
N1148 H1161 0.985 . S
N1149 C1151 1.356 . S
N1149 H1154 0.984 . S
N1149 H1155 0.985 . S
C1150 C1144 1.379 . S
C1150 C1147 1.363 . S
C1150 N1148 1.356 . S
C1151 C1145 1.363 . S
C1151 C1146 1.379 . S
C1151 N1149 1.356 . S
N1152 C1144 1.356 . S
N1152 H1158 0.984 . S
N1152 H1159 0.984 . S
N1153 C1146 1.356 . S
N1153 H1156 0.984 . S
N1153 H1157 0.985 . S
H1154 N1149 0.984 . S
H1155 N1149 0.985 . S
H1156 N1153 0.984 . S
H1157 N1153 0.985 . S
H1158 N1152 0.984 . S
H1159 N1152 0.984 . S
H1160 N1148 0.984 . S
H1161 N1148 0.985 . S
C1162 C1163 1.363 . S
C1162 C1168 1.379 . S
C1162 N1170 1.356 . S
C1163 C1162 1.363 . S
C1163 C1169 1.363 . S
C1164 C1165 1.363 . S
C1164 C1169 1.379 . S
C1164 N1171 1.356 . S
C1165 C1164 1.363 . S
C1165 C1168 1.363 . S
N1166 C1168 1.356 . S
N1166 H1178 0.984 . S
N1166 H1179 0.985 . S
N1167 C1169 1.356 . S
N1167 H1172 0.984 . S
N1167 H1173 0.985 . S
C1168 C1162 1.379 . S
C1168 C1165 1.363 . S
C1168 N1166 1.356 . S
C1169 C1163 1.363 . S
C1169 C1164 1.379 . S
C1169 N1167 1.356 . S
N1170 C1162 1.356 . S
N1170 H1176 0.984 . S
N1170 H1177 0.984 . S
N1171 C1164 1.356 . S
N1171 H1174 0.984 . S
N1171 H1175 0.985 . S
H1172 N1167 0.984 . S
H1173 N1167 0.985 . S
H1174 N1171 0.984 . S
H1175 N1171 0.985 . S
H1176 N1170 0.984 . S
H1177 N1170 0.984 . S
H1178 N1166 0.984 . S
H1179 N1166 0.985 . S
C1180 C1181 1.363 . S
C1180 C1186 1.379 . S
C1180 N1188 1.356 . S
C1181 C1180 1.363 . S
C1181 C1187 1.363 . S
C1182 C1183 1.363 . S
C1182 C1187 1.379 . S
C1182 N1189 1.356 . S
C1183 C1182 1.363 . S
C1183 C1186 1.363 . S
N1184 C1186 1.356 . S
N1184 H1196 0.984 . S
N1184 H1197 0.985 . S
N1185 C1187 1.356 . S
N1185 H1190 0.984 . S
N1185 H1191 0.985 . S
C1186 C1180 1.379 . S
C1186 C1183 1.363 . S
C1186 N1184 1.356 . S
C1187 C1181 1.363 . S
C1187 C1182 1.379 . S
C1187 N1185 1.356 . S
N1188 C1180 1.356 . S
N1188 H1194 0.984 . S
N1188 H1195 0.984 . S
N1189 C1182 1.356 . S
N1189 H1192 0.984 . S
N1189 H1193 0.985 . S
H1190 N1185 0.984 . S
H1191 N1185 0.985 . S
H1192 N1189 0.984 . S
H1193 N1189 0.985 . S
H1194 N1188 0.984 . S
H1195 N1188 0.984 . S
H1196 N1184 0.984 . S
H1197 N1184 0.985 . S
C1198 C1199 1.363 . S
C1198 C1204 1.379 . S
C1198 N1206 1.356 . S
C1199 C1198 1.363 . S
C1199 C1205 1.363 . S
C1200 C1201 1.363 . S
C1200 C1205 1.379 . S
C1200 N1207 1.356 . S
C1201 C1200 1.363 . S
C1201 C1204 1.363 . S
N1202 C1204 1.356 . S
N1202 H1214 0.984 . S
N1202 H1215 0.985 . S
N1203 C1205 1.356 . S
N1203 H1208 0.984 . S
N1203 H1209 0.985 . S
C1204 C1198 1.379 . S
C1204 C1201 1.363 . S
C1204 N1202 1.356 . S
C1205 C1199 1.363 . S
C1205 C1200 1.379 . S
C1205 N1203 1.356 . S
N1206 C1198 1.356 . S
N1206 H1212 0.984 . S
N1206 H1213 0.984 . S
N1207 C1200 1.356 . S
N1207 H1210 0.984 . S
N1207 H1211 0.985 . S
H1208 N1203 0.984 . S
H1209 N1203 0.985 . S
H1210 N1207 0.984 . S
H1211 N1207 0.985 . S
H1212 N1206 0.984 . S
H1213 N1206 0.984 . S
H1214 N1202 0.984 . S
H1215 N1202 0.985 . S
C1216 C1217 1.363 . S
C1216 C1222 1.379 . S
C1216 N1224 1.356 . S
C1217 C1216 1.363 . S
C1217 C1223 1.363 . S
C1218 C1219 1.363 . S
C1218 C1223 1.379 . S
C1218 N1225 1.356 . S
C1219 C1218 1.363 . S
C1219 C1222 1.363 . S
N1220 C1222 1.356 . S
N1220 H1232 0.984 . S
N1220 H1233 0.985 . S
N1221 C1223 1.356 . S
N1221 H1226 0.984 . S
N1221 H1227 0.985 . S
C1222 C1216 1.379 . S
C1222 C1219 1.363 . S
C1222 N1220 1.356 . S
C1223 C1217 1.363 . S
C1223 C1218 1.379 . S
C1223 N1221 1.356 . S
N1224 C1216 1.356 . S
N1224 H1230 0.984 . S
N1224 H1231 0.984 . S
N1225 C1218 1.356 . S
N1225 H1228 0.984 . S
N1225 H1229 0.985 . S
H1226 N1221 0.984 . S
H1227 N1221 0.985 . S
H1228 N1225 0.984 . S
H1229 N1225 0.985 . S
H1230 N1224 0.984 . S
H1231 N1224 0.984 . S
H1232 N1220 0.984 . S
H1233 N1220 0.985 . S
C1234 C1235 1.363 . S
C1234 C1240 1.379 . S
C1234 N1242 1.356 . S
C1235 C1234 1.363 . S
C1235 C1241 1.363 . S
C1236 C1237 1.363 . S
C1236 C1241 1.379 . S
C1236 N1243 1.356 . S
C1237 C1236 1.363 . S
C1237 C1240 1.363 . S
N1238 C1240 1.356 . S
N1238 H1250 0.984 . S
N1238 H1251 0.985 . S
N1239 C1241 1.356 . S
N1239 H1244 0.984 . S
N1239 H1245 0.985 . S
C1240 C1234 1.379 . S
C1240 C1237 1.363 . S
C1240 N1238 1.356 . S
C1241 C1235 1.363 . S
C1241 C1236 1.379 . S
C1241 N1239 1.356 . S
N1242 C1234 1.356 . S
N1242 H1248 0.984 . S
N1242 H1249 0.984 . S
N1243 C1236 1.356 . S
N1243 H1246 0.984 . S
N1243 H1247 0.985 . S
H1244 N1239 0.984 . S
H1245 N1239 0.985 . S
H1246 N1243 0.984 . S
H1247 N1243 0.985 . S
H1248 N1242 0.984 . S
H1249 N1242 0.984 . S
H1250 N1238 0.984 . S
H1251 N1238 0.985 . S
C1252 C1253 1.363 . S
C1252 C1258 1.379 . S
C1252 N1260 1.356 . S
C1253 C1252 1.363 . S
C1253 C1259 1.363 . S
C1254 C1255 1.363 . S
C1254 C1259 1.379 . S
C1254 N1261 1.356 . S
C1255 C1254 1.363 . S
C1255 C1258 1.363 . S
N1256 C1258 1.356 . S
N1256 H1268 0.984 . S
N1256 H1269 0.985 . S
N1257 C1259 1.356 . S
N1257 H1262 0.984 . S
N1257 H1263 0.985 . S
C1258 C1252 1.379 . S
C1258 C1255 1.363 . S
C1258 N1256 1.356 . S
C1259 C1253 1.363 . S
C1259 C1254 1.379 . S
C1259 N1257 1.356 . S
N1260 C1252 1.356 . S
N1260 H1266 0.984 . S
N1260 H1267 0.984 . S
N1261 C1254 1.356 . S
N1261 H1264 0.984 . S
N1261 H1265 0.985 . S
H1262 N1257 0.984 . S
H1263 N1257 0.985 . S
H1264 N1261 0.984 . S
H1265 N1261 0.985 . S
H1266 N1260 0.984 . S
H1267 N1260 0.984 . S
H1268 N1256 0.984 . S
H1269 N1256 0.985 . S
C1270 C1271 1.363 . S
C1270 C1276 1.379 . S
C1270 N1278 1.356 . S
C1271 C1270 1.363 . S
C1271 C1277 1.363 . S
C1272 C1273 1.363 . S
C1272 C1277 1.379 . S
C1272 N1279 1.356 . S
C1273 C1272 1.363 . S
C1273 C1276 1.363 . S
N1274 C1276 1.356 . S
N1274 H1286 0.984 . S
N1274 H1287 0.985 . S
N1275 C1277 1.356 . S
N1275 H1280 0.984 . S
N1275 H1281 0.985 . S
C1276 C1270 1.379 . S
C1276 C1273 1.363 . S
C1276 N1274 1.356 . S
C1277 C1271 1.363 . S
C1277 C1272 1.379 . S
C1277 N1275 1.356 . S
N1278 C1270 1.356 . S
N1278 H1284 0.984 . S
N1278 H1285 0.984 . S
N1279 C1272 1.356 . S
N1279 H1282 0.984 . S
N1279 H1283 0.985 . S
H1280 N1275 0.984 . S
H1281 N1275 0.985 . S
H1282 N1279 0.984 . S
H1283 N1279 0.985 . S
H1284 N1278 0.984 . S
H1285 N1278 0.984 . S
H1286 N1274 0.984 . S
H1287 N1274 0.985 . S
C1288 C1289 1.363 . S
C1288 C1294 1.379 . S
C1288 N1296 1.356 . S
C1289 C1288 1.363 . S
C1289 C1295 1.363 . S
C1290 C1291 1.363 . S
C1290 C1295 1.379 . S
C1290 N1297 1.356 . S
C1291 C1290 1.363 . S
C1291 C1294 1.363 . S
N1292 C1294 1.356 . S
N1292 H1304 0.984 . S
N1292 H1305 0.985 . S
N1293 C1295 1.356 . S
N1293 H1298 0.984 . S
N1293 H1299 0.985 . S
C1294 C1288 1.379 . S
C1294 C1291 1.363 . S
C1294 N1292 1.356 . S
C1295 C1289 1.363 . S
C1295 C1290 1.379 . S
C1295 N1293 1.356 . S
N1296 C1288 1.356 . S
N1296 H1302 0.984 . S
N1296 H1303 0.984 . S
N1297 C1290 1.356 . S
N1297 H1300 0.984 . S
N1297 H1301 0.985 . S
H1298 N1293 0.984 . S
H1299 N1293 0.985 . S
H1300 N1297 0.984 . S
H1301 N1297 0.985 . S
H1302 N1296 0.984 . S
H1303 N1296 0.984 . S
H1304 N1292 0.984 . S
H1305 N1292 0.985 . S
C1306 C1307 1.363 . S
C1306 C1312 1.379 . S
C1306 N1314 1.356 . S
C1307 C1306 1.363 . S
C1307 C1313 1.363 . S
C1308 C1309 1.363 . S
C1308 C1313 1.379 . S
C1308 N1315 1.356 . S
C1309 C1308 1.363 . S
C1309 C1312 1.363 . S
N1310 C1312 1.356 . S
N1310 H1322 0.984 . S
N1310 H1323 0.985 . S
N1311 C1313 1.356 . S
N1311 H1316 0.984 . S
N1311 H1317 0.985 . S
C1312 C1306 1.379 . S
C1312 C1309 1.363 . S
C1312 N1310 1.356 . S
C1313 C1307 1.363 . S
C1313 C1308 1.379 . S
C1313 N1311 1.356 . S
N1314 C1306 1.356 . S
N1314 H1320 0.984 . S
N1314 H1321 0.984 . S
N1315 C1308 1.356 . S
N1315 H1318 0.984 . S
N1315 H1319 0.985 . S
H1316 N1311 0.984 . S
H1317 N1311 0.985 . S
H1318 N1315 0.984 . S
H1319 N1315 0.985 . S
H1320 N1314 0.984 . S
H1321 N1314 0.984 . S
H1322 N1310 0.984 . S
H1323 N1310 0.985 . S
C1324 C1325 1.363 . S
C1324 C1330 1.379 . S
C1324 N1332 1.356 . S
C1325 C1324 1.363 . S
C1325 C1331 1.363 . S
C1326 C1327 1.363 . S
C1326 C1331 1.379 . S
C1326 N1333 1.356 . S
C1327 C1326 1.363 . S
C1327 C1330 1.363 . S
N1328 C1330 1.356 . S
N1328 H1340 0.984 . S
N1328 H1341 0.985 . S
N1329 C1331 1.356 . S
N1329 H1334 0.984 . S
N1329 H1335 0.985 . S
C1330 C1324 1.379 . S
C1330 C1327 1.363 . S
C1330 N1328 1.356 . S
C1331 C1325 1.363 . S
C1331 C1326 1.379 . S
C1331 N1329 1.356 . S
N1332 C1324 1.356 . S
N1332 H1338 0.984 . S
N1332 H1339 0.984 . S
N1333 C1326 1.356 . S
N1333 H1336 0.984 . S
N1333 H1337 0.985 . S
H1334 N1329 0.984 . S
H1335 N1329 0.985 . S
H1336 N1333 0.984 . S
H1337 N1333 0.985 . S
H1338 N1332 0.984 . S
H1339 N1332 0.984 . S
H1340 N1328 0.984 . S
H1341 N1328 0.985 . S
C1342 C1343 1.363 . S
C1342 C1348 1.379 . S
C1342 N1350 1.356 . S
C1343 C1342 1.363 . S
C1343 C1349 1.363 . S
C1344 C1345 1.363 . S
C1344 C1349 1.379 . S
C1344 N1351 1.356 . S
C1345 C1344 1.363 . S
C1345 C1348 1.363 . S
N1346 C1348 1.356 . S
N1346 H1358 0.984 . S
N1346 H1359 0.985 . S
N1347 C1349 1.356 . S
N1347 H1352 0.984 . S
N1347 H1353 0.985 . S
C1348 C1342 1.379 . S
C1348 C1345 1.363 . S
C1348 N1346 1.356 . S
C1349 C1343 1.363 . S
C1349 C1344 1.379 . S
C1349 N1347 1.356 . S
N1350 C1342 1.356 . S
N1350 H1356 0.984 . S
N1350 H1357 0.984 . S
N1351 C1344 1.356 . S
N1351 H1354 0.984 . S
N1351 H1355 0.985 . S
H1352 N1347 0.984 . S
H1353 N1347 0.985 . S
H1354 N1351 0.984 . S
H1355 N1351 0.985 . S
H1356 N1350 0.984 . S
H1357 N1350 0.984 . S
H1358 N1346 0.984 . S
H1359 N1346 0.985 . S
C1360 C1361 1.363 . S
C1360 C1366 1.379 . S
C1360 N1368 1.356 . S
C1361 C1360 1.363 . S
C1361 C1367 1.363 . S
C1362 C1363 1.363 . S
C1362 C1367 1.379 . S
C1362 N1369 1.356 . S
C1363 C1362 1.363 . S
C1363 C1366 1.363 . S
N1364 C1366 1.356 . S
N1364 H1376 0.984 . S
N1364 H1377 0.985 . S
N1365 C1367 1.356 . S
N1365 H1370 0.984 . S
N1365 H1371 0.985 . S
C1366 C1360 1.379 . S
C1366 C1363 1.363 . S
C1366 N1364 1.356 . S
C1367 C1361 1.363 . S
C1367 C1362 1.379 . S
C1367 N1365 1.356 . S
N1368 C1360 1.356 . S
N1368 H1374 0.984 . S
N1368 H1375 0.984 . S
N1369 C1362 1.356 . S
N1369 H1372 0.984 . S
N1369 H1373 0.985 . S
H1370 N1365 0.984 . S
H1371 N1365 0.985 . S
H1372 N1369 0.984 . S
H1373 N1369 0.985 . S
H1374 N1368 0.984 . S
H1375 N1368 0.984 . S
H1376 N1364 0.984 . S
H1377 N1364 0.985 . S
C517 C288 1.061 . S
C515 N18 0.997 . S
C535 N264 1.484 . S
C533 C61 1.581 . S
C553 C296 0.777 . S
C551 N82 0.772 . S
C569 C100 1.594 . S
C571 C295 1.514 . S
C587 C130 1.609 . S
C589 N259 1.539 . S
C607 C283 1.074 . S
C605 N173 1.009 . S
C623 C198 1.700 . S
C625 C269 1.602 . S
C641 N242 0.777 . S
C643 C289 0.783 . S
C661 C312 1.571 . S
C659 C6 1.704 . S
C677 N50 0.788 . S
C679 C375 0.795 . S
C697 N302 1.491 . S
C695 C68 1.499 . S
C715 C369 0.795 . S
C713 N109 0.779 . S
C731 C134 2.183 . S
C733 C339 2.164 . S
C751 C381 1.582 . S
C749 C162 1.715 . S
C767 C194 2.275 . S
C769 C331 2.287 . S
C785 C228 1.500 . S
C787 N350 1.492 . S
C803 C2 1.640 . S
C805 N345 1.589 . S
C821 N141 1.063 . S
C823 C374 1.171 . S
C841 N307 1.590 . S
C839 C166 1.642 . S
C859 C382 1.043 . S
C857 N210 0.916 . S
C875 C253 1.607 . S
C877 C338 1.477 . S
C893 C93 1.592 . S
C895 C355 1.461 . S
C913 C332 2.070 . S
C911 C125 2.068 . S
C929 C36 2.211 . S
C931 C326 2.198 . S
C947 N237 0.997 . S
C949 C417 1.061 . S
C965 C157 1.581 . S
C967 N393 1.484 . S
C985 C425 0.777 . S
C983 N178 0.772 . S
C1003 C424 1.514 . S
C1001 C196 1.594 . S
C1019 C34 1.609 . S
C1021 N388 1.539 . S
C1039 C412 1.074 . S
C1037 N77 1.009 . S
C1055 C102 1.700 . S
C1057 C398 1.602 . S
C1073 N13 0.777 . S
C1075 C418 0.783 . S
C1091 C226 1.704 . S
C1093 C441 1.571 . S
C1111 C504 0.795 . S
C1109 N146 0.787 . S
C1127 C164 1.499 . S
C1129 N431 1.491 . S
C1145 N205 0.779 . S
C1147 C498 0.795 . S
C1165 C468 2.164 . S
C1163 C38 2.183 . S
C1181 C66 1.715 . S
C1183 C510 1.582 . S
C1201 C460 2.287 . S
C1199 C98 2.275 . S
C1219 N479 1.492 . S
C1217 C29 1.500 . S
C1237 N474 1.589 . S
C1235 C230 1.640 . S
C1253 N45 1.063 . S
C1255 C503 1.171 . S
C1271 C70 1.642 . S
C1273 N436 1.590 . S
C1291 C511 1.043 . S
C1289 N114 0.916 . S
C1307 C4 1.607 . S
C1309 C467 1.477 . S
C1325 C189 1.592 . S
C1327 C484 1.461 . S
C1345 C461 2.070 . S
C1343 C221 2.068 . S
C1363 C455 2.198 . S
C1361 C132 2.211 . S
