# Generated by pormake.
# Topology gar, (4,6)-cn, num edge types: 1
# Building blocks:
#     Node 0, Type 0, BuildingBlock: CEKHIL_clean_sbu_0, # of connection points: 4
#     Node 1, Type 0, BuildingBlock: CEKHIL_clean_sbu_0, # of connection points: 4
#     Node 2, Type 0, BuildingBlock: CEKHIL_clean_sbu_0, # of connection points: 4
#     Node 3, Type 0, BuildingBlock: CEKHIL_clean_sbu_0, # of connection points: 4
#     Node 4, Type 0, BuildingBlock: CEKHIL_clean_sbu_0, # of connection points: 4
#     Node 5, Type 0, BuildingBlock: CEKHIL_clean_sbu_0, # of connection points: 4
#     Node 6, Type 0, BuildingBlock: CEKHIL_clean_sbu_0, # of connection points: 4
#     Node 7, Type 0, BuildingBlock: CEKHIL_clean_sbu_0, # of connection points: 4
#     Node 8, Type 0, BuildingBlock: CEKHIL_clean_sbu_0, # of connection points: 4
#     Node 9, Type 0, BuildingBlock: CEKHIL_clean_sbu_0, # of connection points: 4
#     Node 10, Type 0, BuildingBlock: CEKHIL_clean_sbu_0, # of connection points: 4
#     Node 11, Type 0, BuildingBlock: CEKHIL_clean_sbu_0, # of connection points: 4
#     Node 12, Type 0, BuildingBlock: CEKHIL_clean_sbu_0, # of connection points: 4
#     Node 13, Type 0, BuildingBlock: CEKHIL_clean_sbu_0, # of connection points: 4
#     Node 14, Type 0, BuildingBlock: CEKHIL_clean_sbu_0, # of connection points: 4
#     Node 15, Type 0, BuildingBlock: CEKHIL_clean_sbu_0, # of connection points: 4
#     Node 16, Type 0, BuildingBlock: CEKHIL_clean_sbu_0, # of connection points: 4
#     Node 17, Type 0, BuildingBlock: CEKHIL_clean_sbu_0, # of connection points: 4
#     Node 18, Type 0, BuildingBlock: CEKHIL_clean_sbu_0, # of connection points: 4
#     Node 19, Type 0, BuildingBlock: CEKHIL_clean_sbu_0, # of connection points: 4
#     Node 20, Type 0, BuildingBlock: CEKHIL_clean_sbu_0, # of connection points: 4
#     Node 21, Type 0, BuildingBlock: CEKHIL_clean_sbu_0, # of connection points: 4
#     Node 22, Type 0, BuildingBlock: CEKHIL_clean_sbu_0, # of connection points: 4
#     Node 23, Type 0, BuildingBlock: CEKHIL_clean_sbu_0, # of connection points: 4
#     Node 24, Type 1, BuildingBlock: CUKXOW_clean_sbu_0, # of connection points: 6
#     Node 25, Type 1, BuildingBlock: CUKXOW_clean_sbu_0, # of connection points: 6
#     Node 26, Type 1, BuildingBlock: CUKXOW_clean_sbu_0, # of connection points: 6
#     Node 27, Type 1, BuildingBlock: CUKXOW_clean_sbu_0, # of connection points: 6
#     Node 28, Type 1, BuildingBlock: CUKXOW_clean_sbu_0, # of connection points: 6
#     Node 29, Type 1, BuildingBlock: CUKXOW_clean_sbu_0, # of connection points: 6
#     Node 30, Type 1, BuildingBlock: CUKXOW_clean_sbu_0, # of connection points: 6
#     Node 31, Type 1, BuildingBlock: CUKXOW_clean_sbu_0, # of connection points: 6
#     Node 32, Type 1, BuildingBlock: CUKXOW_clean_sbu_0, # of connection points: 6
#     Node 33, Type 1, BuildingBlock: CUKXOW_clean_sbu_0, # of connection points: 6
#     Node 34, Type 1, BuildingBlock: CUKXOW_clean_sbu_0, # of connection points: 6
#     Node 35, Type 1, BuildingBlock: CUKXOW_clean_sbu_0, # of connection points: 6
#     Node 36, Type 1, BuildingBlock: CUKXOW_clean_sbu_0, # of connection points: 6
#     Node 37, Type 1, BuildingBlock: CUKXOW_clean_sbu_0, # of connection points: 6
#     Node 38, Type 1, BuildingBlock: CUKXOW_clean_sbu_0, # of connection points: 6
#     Node 39, Type 1, BuildingBlock: CUKXOW_clean_sbu_0, # of connection points: 6
#     Edge 40, Type (0, 1), None
#     Edge 41, Type (0, 1), None
#     Edge 42, Type (0, 1), None
#     Edge 43, Type (0, 1), None
#     Edge 44, Type (0, 1), None
#     Edge 45, Type (0, 1), None
#     Edge 46, Type (0, 1), None
#     Edge 47, Type (0, 1), None
#     Edge 48, Type (0, 1), None
#     Edge 49, Type (0, 1), None
#     Edge 50, Type (0, 1), None
#     Edge 51, Type (0, 1), None
#     Edge 52, Type (0, 1), None
#     Edge 53, Type (0, 1), None
#     Edge 54, Type (0, 1), None
#     Edge 55, Type (0, 1), None
#     Edge 56, Type (0, 1), None
#     Edge 57, Type (0, 1), None
#     Edge 58, Type (0, 1), None
#     Edge 59, Type (0, 1), None
#     Edge 60, Type (0, 1), None
#     Edge 61, Type (0, 1), None
#     Edge 62, Type (0, 1), None
#     Edge 63, Type (0, 1), None
#     Edge 64, Type (0, 1), None
#     Edge 65, Type (0, 1), None
#     Edge 66, Type (0, 1), None
#     Edge 67, Type (0, 1), None
#     Edge 68, Type (0, 1), None
#     Edge 69, Type (0, 1), None
#     Edge 70, Type (0, 1), None
#     Edge 71, Type (0, 1), None
#     Edge 72, Type (0, 1), None
#     Edge 73, Type (0, 1), None
#     Edge 74, Type (0, 1), None
#     Edge 75, Type (0, 1), None
#     Edge 76, Type (0, 1), None
#     Edge 77, Type (0, 1), None
#     Edge 78, Type (0, 1), None
#     Edge 79, Type (0, 1), None
#     Edge 80, Type (0, 1), None
#     Edge 81, Type (0, 1), None
#     Edge 82, Type (0, 1), None
#     Edge 83, Type (0, 1), None
#     Edge 84, Type (0, 1), None
#     Edge 85, Type (0, 1), None
#     Edge 86, Type (0, 1), None
#     Edge 87, Type (0, 1), None
#     Edge 88, Type (0, 1), None
#     Edge 89, Type (0, 1), None
#     Edge 90, Type (0, 1), None
#     Edge 91, Type (0, 1), None
#     Edge 92, Type (0, 1), None
#     Edge 93, Type (0, 1), None
#     Edge 94, Type (0, 1), None
#     Edge 95, Type (0, 1), None
#     Edge 96, Type (0, 1), None
#     Edge 97, Type (0, 1), None
#     Edge 98, Type (0, 1), None
#     Edge 99, Type (0, 1), None
#     Edge 100, Type (0, 1), None
#     Edge 101, Type (0, 1), None
#     Edge 102, Type (0, 1), None
#     Edge 103, Type (0, 1), None
#     Edge 104, Type (0, 1), None
#     Edge 105, Type (0, 1), None
#     Edge 106, Type (0, 1), None
#     Edge 107, Type (0, 1), None
#     Edge 108, Type (0, 1), None
#     Edge 109, Type (0, 1), None
#     Edge 110, Type (0, 1), None
#     Edge 111, Type (0, 1), None
#     Edge 112, Type (0, 1), None
#     Edge 113, Type (0, 1), None
#     Edge 114, Type (0, 1), None
#     Edge 115, Type (0, 1), None
#     Edge 116, Type (0, 1), None
#     Edge 117, Type (0, 1), None
#     Edge 118, Type (0, 1), None
#     Edge 119, Type (0, 1), None
#     Edge 120, Type (0, 1), None
#     Edge 121, Type (0, 1), None
#     Edge 122, Type (0, 1), None
#     Edge 123, Type (0, 1), None
#     Edge 124, Type (0, 1), None
#     Edge 125, Type (0, 1), None
#     Edge 126, Type (0, 1), None
#     Edge 127, Type (0, 1), None
#     Edge 128, Type (0, 1), None
#     Edge 129, Type (0, 1), None
#     Edge 130, Type (0, 1), None
#     Edge 131, Type (0, 1), None
#     Edge 132, Type (0, 1), None
#     Edge 133, Type (0, 1), None
#     Edge 134, Type (0, 1), None
#     Edge 135, Type (0, 1), None
# Relax obj value: 0.157
# Max RMSD: 0.282
# Mean RMSD: 0.129
data_MOF--net-gar--node1-CEKHIL_clean_sbu_0--node2-CUKXOW_clean_sbu_0--edge1-none
_symmetry_space_group_name_H-M    P1
_symmetry_Int_Tables_number       1
_symmetry_cell_setting            triclinic
loop_
_symmetry_equiv_pos_as_xyz
'x, y, z'
_cell_length_a     25.020428
_cell_length_b     23.639932
_cell_length_c     23.119559
_cell_angle_alpha  95.483724
_cell_angle_beta   92.921565
_cell_angle_gamma 94.725269
loop_
_atom_site_label
_atom_site_type_symbol
_atom_site_fract_x
_atom_site_fract_y
_atom_site_fract_z
_atom_type_partial_charge
Co0 Co 0.07741 0.28901 0.47618 0.0
O1 O 0.14935 0.28885 0.45347 0.0
O2 O 0.07769 0.25294 0.39728 0.0
C3 C 0.09184 0.38158 0.51726 0.0
O4 O 0.99883 0.28023 0.47753 0.0
Co5 Co 1.02153 0.31875 0.58596 0.0
O6 O 0.96981 0.35005 0.53032 0.0
C7 C 0.05677 0.20137 0.55914 0.0
C8 C 0.12892 0.26545 0.40289 0.0
C9 C 0.9711 0.32194 0.48112 0.0
O10 O 0.0775 0.21487 0.51175 0.0
O11 O 1.03396 0.23615 0.59392 0.0
O12 O 0.08149 0.36939 0.46144 0.0
O13 O 0.08822 0.33836 0.5475 0.0
Co14 Co 1.0337 0.81438 0.61713 0.0
O15 O 0.95846 0.81908 0.62791 0.0
O16 O 1.01884 0.80151 0.69592 0.0
C17 C 0.04138 0.89421 0.5689 0.0
O18 O 0.11016 0.80302 0.63009 0.0
Co19 Co 0.11285 0.81976 0.52743 0.0
O20 O 0.16481 0.86065 0.59184 0.0
C21 C 0.04053 0.71158 0.53767 0.0
C22 C 0.97041 0.81186 0.68225 0.0
C23 C 0.1479 0.84186 0.63765 0.0
O24 O 1.02185 0.73216 0.58552 0.0
O25 O 0.07483 0.74004 0.50955 0.0
O26 O 0.04363 0.89814 0.62559 0.0
O27 O 0.04106 0.84364 0.54306 0.0
Co28 Co 0.57741 0.78902 0.97617 0.0
O29 O 0.64935 0.78885 0.95346 0.0
O30 O 0.57769 0.75294 0.89728 0.0
C31 C 0.59184 0.88158 1.01726 0.0
O32 O 0.49883 0.78023 0.97753 0.0
Co33 Co 0.52153 0.81875 0.08596 0.0
O34 O 0.46981 0.85005 0.03031 0.0
C35 C 0.55677 0.70137 0.05914 0.0
C36 C 0.62892 0.76545 0.90289 0.0
C37 C 0.4711 0.82195 0.98111 0.0
O38 O 0.5775 0.71487 1.01175 0.0
O39 O 0.53395 0.73615 0.09391 0.0
O40 O 0.58149 0.86939 0.96144 0.0
O41 O 0.58822 0.83836 0.0475 0.0
Co42 Co 0.5337 0.31438 0.11713 0.0
O43 O 0.45846 0.31908 0.12791 0.0
O44 O 0.51884 0.30151 0.19592 0.0
C45 C 0.54138 0.39421 0.0689 0.0
O46 O 0.61016 0.30302 0.13009 0.0
Co47 Co 0.61285 0.31977 0.02743 0.0
O48 O 0.66481 0.36066 0.09184 0.0
C49 C 0.54053 0.21158 0.03767 0.0
C50 C 0.47041 0.31186 0.18225 0.0
C51 C 0.6479 0.34186 0.13766 0.0
O52 O 0.52185 0.23216 0.08552 0.0
O53 O 0.57483 0.24004 1.00955 0.0
O54 O 0.54363 0.39814 0.12559 0.0
O55 O 0.54106 0.34364 0.04306 0.0
Co56 Co 1.02459 0.79669 0.21353 0.0
O57 O 0.94582 0.78034 0.19753 0.0
O58 O 0.98762 0.77166 0.28101 0.0
C59 C 1.01974 0.8762 0.16698 0.0
O60 O 0.10218 0.81292 0.25597 0.0
Co61 Co 0.11619 0.8354 0.14152 0.0
O62 O 0.15532 0.87414 0.21328 0.0
C63 C 0.07042 0.71133 0.13151 0.0
C64 C 0.94191 0.77194 0.25197 0.0
C65 C 0.14523 0.84826 0.25751 0.0
O66 O 0.04174 0.7176 0.17703 0.0
O67 O 0.09788 0.75304 0.11231 0.0
O68 O 1.0103 0.87789 0.22206 0.0
O69 O 0.03909 0.83136 0.14511 0.0
Co70 Co 0.56998 0.84333 0.40429 0.0
O71 O 0.64819 0.86823 0.41635 0.0
O72 O 0.60932 0.83 0.33343 0.0
C73 C 0.53759 0.92005 0.45505 0.0
O74 O 0.49225 0.8139 0.36765 0.0
Co75 Co 0.48937 0.8175 0.497 0.0
O76 O 0.43801 0.78101 0.43302 0.0
C77 C 0.58933 0.76908 0.49211 0.0
C78 C 0.65352 0.85139 0.36176 0.0
C79 C 0.44688 0.78822 0.38053 0.0
O80 O 0.58492 0.76903 0.43598 0.0
O81 O 0.56348 0.80211 0.52469 0.0
O82 O 0.55303 0.92377 0.40228 0.0
O83 O 0.54486 0.87294 0.47545 0.0
Co84 Co 0.52459 0.29669 0.71353 0.0
O85 O 0.44582 0.28034 0.69753 0.0
O86 O 0.48762 0.27166 0.78101 0.0
C87 C 0.51974 0.3762 0.66699 0.0
O88 O 0.60218 0.31292 0.75597 0.0
Co89 Co 0.61619 0.3354 0.64152 0.0
O90 O 0.65532 0.37414 0.71328 0.0
C91 C 0.57042 0.21134 0.63151 0.0
C92 C 0.44191 0.27194 0.75197 0.0
C93 C 0.64523 0.34826 0.75751 0.0
O94 O 0.54174 0.2176 0.67703 0.0
O95 O 0.59788 0.25304 0.61231 0.0
O96 O 0.5103 0.37789 0.72206 0.0
O97 O 0.53909 0.33136 0.64511 0.0
Co98 Co 0.06998 0.34333 0.90429 0.0
O99 O 0.14819 0.36823 0.91635 0.0
O100 O 0.10932 0.33 0.83343 0.0
C101 C 1.03759 0.42005 0.95505 0.0
O102 O 0.99225 0.3139 0.86765 0.0
Co103 Co 0.98937 0.3175 0.997 0.0
O104 O 0.93801 0.28101 0.93302 0.0
C105 C 0.08933 0.26908 0.99211 0.0
C106 C 0.15352 0.35139 0.86176 0.0
C107 C 0.94688 0.28822 0.88053 0.0
O108 O 0.08492 0.26903 0.93598 0.0
O109 O 0.06348 0.30211 0.02469 0.0
O110 O 0.05303 0.42377 0.90228 0.0
O111 O 0.04486 0.37294 0.97545 0.0
Co112 Co 0.44334 0.10839 0.29189 0.0
O113 O 0.42062 0.1863 0.27872 0.0
O114 O 0.37049 0.1073 0.25583 0.0
C115 C 0.4836 0.12542 0.38837 0.0
O116 O 0.43549 0.02517 0.29565 0.0
Co117 Co 0.53693 0.04312 0.33297 0.0
O118 O 0.47798 0.99871 0.37011 0.0
C119 C 0.52337 0.06598 0.20668 0.0
C120 C 0.37338 0.16182 0.25915 0.0
C121 C 0.43358 1.00192 0.34239 0.0
O122 O 0.47988 0.09275 0.21376 0.0
O123 O 0.5492 0.04602 0.24835 0.0
O124 O 0.43176 0.12397 0.37711 0.0
O125 O 0.50925 0.1182 0.34209 0.0
Co126 Co 0.28776 0.14868 0.51378 0.0
O127 O 0.35571 0.16938 0.55523 0.0
O128 O 0.30954 0.08422 0.54967 0.0
C129 C 0.31367 0.19344 0.43493 0.0
O130 O 0.21809 0.1053 0.47919 0.0
Co131 Co 0.21135 0.22834 0.46819 0.0
O132 O 0.15681 0.16229 0.45282 0.0
C133 C 0.2335 0.22553 0.59351 0.0
C134 C 0.35185 0.11704 0.5688 0.0
C135 C 0.16961 0.11373 0.46444 0.0
O136 O 0.25094 0.17623 0.58374 0.0
O137 O 0.22089 0.25632 0.55327 0.0
O138 O 0.32369 0.1407 0.43945 0.0
O139 O 0.28649 0.21531 0.47562 0.0
Co140 Co 0.22002 0.03771 0.86376 0.0
O141 O 0.22772 0.95782 0.84322 0.0
O142 O 0.29468 0.02578 0.85608 0.0
C143 C 0.15936 0.02537 0.93453 0.0
O144 O 0.23334 0.12357 0.88342 0.0
Co145 Co 0.11493 0.09497 0.85053 0.0
O146 O 0.16562 0.16255 0.84045 0.0
C147 C 0.16305 0.03404 0.75363 0.0
C148 C 0.2789 0.97252 0.84197 0.0
C149 C 0.21454 0.16477 0.85922 0.0
O150 O 0.20942 0.04626 0.77954 0.0
O151 O 0.11959 0.04026 0.77933 0.0
O152 O 0.21105 0.02733 0.94617 0.0
O153 O 0.14623 0.03075 0.88114 0.0
Co154 Co 0.24017 0.92177 0.07197 0.0
O155 O 0.16305 0.93863 0.08531 0.0
O156 O 0.23196 0.99854 0.11007 0.0
C157 C 0.22991 0.87918 0.97345 0.0
O158 O 0.31893 0.94339 0.06439 0.0
Co159 Co 0.30193 0.81725 0.03332 0.0
O160 O 0.36127 0.8742 1.01932 0.0
C161 C 0.27846 0.8366 0.15827 0.0
C162 C 0.18057 0.99087 0.10531 0.0
C163 C 0.35944 0.92571 0.03942 0.0
O164 O 0.25589 0.88415 0.15045 0.0
O165 O 0.29519 0.80493 0.11637 0.0
O166 O 0.22719 0.93328 0.98769 0.0
O167 O 0.23584 0.85233 1.01874 0.0
Co168 Co 0.3109 0.45838 0.07681 0.0
O169 O 0.24678 0.44565 0.02527 0.0
O170 O 0.27373 0.5266 0.07927 0.0
C171 C 0.36255 0.41774 1.01154 0.0
O172 O 0.37509 0.49165 0.13092 0.0
Co173 Co 0.37671 0.36331 0.11832 0.0
O174 O 0.43436 0.42695 0.13844 0.0
C175 C 0.26811 0.36907 0.13965 0.0
C176 C 0.24033 0.49905 0.03954 0.0
C177 C 0.42347 0.47863 0.13989 0.0
O178 O 0.27174 0.42398 0.14131 0.0
O179 O 0.2964 0.34277 0.10386 0.0
O180 O 0.35315 0.47108 1.01066 0.0
O181 O 0.34082 0.39139 0.05161 0.0
Co182 Co 0.86426 0.20473 0.04601 0.0
O183 O 0.94257 0.19521 0.03052 0.0
O184 O 0.88415 0.1267 0.04711 0.0
C185 C 0.8351 0.26284 0.97508 0.0
O186 O 0.78759 0.18046 0.05882 0.0
Co187 Co 0.79818 0.30871 0.0835 0.0
O188 O 0.73606 0.24948 0.08745 0.0
C189 C 0.88048 0.27868 0.15748 0.0
C190 C 0.93265 0.14055 0.0351 0.0
C191 C 0.74304 0.19691 0.07485 0.0
O192 O 0.879 0.22593 0.13496 0.0
O193 O 0.87255 0.31599 0.12274 0.0
O194 O 0.84323 0.20941 0.96115 0.0
O195 O 0.84946 0.28023 0.02836 0.0
Co196 Co 0.15849 0.48114 0.31576 0.0
O197 O 0.17143 0.39827 0.31742 0.0
O198 O 0.23324 0.46672 0.30824 0.0
C199 C 0.10362 0.49352 0.39333 0.0
O200 O 0.17745 0.56407 0.3174 0.0
Co201 Co 0.05847 0.55319 0.30771 0.0
O202 O 0.11163 0.62196 0.32205 0.0
C203 C 0.08901 0.48604 0.20768 0.0
C204 C 0.22275 0.41401 0.31575 0.0
C205 C 0.16122 0.6134 0.32109 0.0
O206 O 0.13809 0.47981 0.2269 0.0
O207 O 0.05193 0.48949 0.24324 0.0
O208 O 0.15494 0.48924 0.40249 0.0
O209 O 0.08707 0.48758 0.33971 0.0
Co210 Co 0.8109 0.95838 0.57681 0.0
O211 O 0.74679 0.94565 0.52527 0.0
O212 O 0.77373 0.0266 0.57927 0.0
C213 C 0.86255 0.91774 0.51154 0.0
O214 O 0.87509 0.99165 0.63092 0.0
Co215 Co 0.87671 0.86331 0.61832 0.0
O216 O 0.93436 0.92695 0.63844 0.0
C217 C 0.76811 0.86907 0.63965 0.0
C218 C 0.74033 0.99905 0.53954 0.0
C219 C 0.92347 0.97863 0.63989 0.0
O220 O 0.77174 0.92398 0.64131 0.0
O221 O 0.7964 0.84277 0.60386 0.0
O222 O 0.85315 0.97108 0.51066 0.0
O223 O 0.84081 0.89138 0.5516 0.0
Co224 Co 0.87579 0.10379 0.28907 0.0
O225 O 0.87539 0.18581 0.31025 0.0
O226 O 0.80899 0.13045 0.26212 0.0
C227 C 0.90887 0.08354 0.37493 0.0
O228 O 0.85422 1.01877 0.26583 0.0
Co229 Co 0.97773 0.03422 0.29324 0.0
O230 O 0.92293 0.96711 0.28688 0.0
C231 C 0.96796 0.11889 0.21526 0.0
C232 C 0.82579 0.17981 0.28903 0.0
C233 C 0.87351 0.97083 0.27236 0.0
O234 O 0.91569 0.11335 0.21467 0.0
O235 O 0.9957 0.10869 0.26006 0.0
O236 O 0.85812 0.09183 0.36931 0.0
O237 O 0.93698 0.0916 0.33148 0.0
Co238 Co 0.36426 0.70473 0.54601 0.0
O239 O 0.44257 0.6952 0.53052 0.0
O240 O 0.38415 0.6267 0.54711 0.0
C241 C 0.3351 0.76284 0.47508 0.0
O242 O 0.28759 0.68046 0.55882 0.0
Co243 Co 0.29818 0.80871 0.5835 0.0
O244 O 0.23606 0.74947 0.58745 0.0
C245 C 0.38047 0.77868 0.65748 0.0
C246 C 0.43265 0.64055 0.5351 0.0
C247 C 0.24304 0.69691 0.57485 0.0
O248 O 0.379 0.72593 0.63496 0.0
O249 O 0.37255 0.81599 0.62274 0.0
O250 O 0.34323 0.70941 0.46115 0.0
O251 O 0.34945 0.78023 0.52836 0.0
Co252 Co 0.37579 0.60379 0.78907 0.0
O253 O 0.37539 0.68581 0.81026 0.0
O254 O 0.30899 0.63045 0.76212 0.0
C255 C 0.40887 0.58354 0.87493 0.0
O256 O 0.35422 0.51877 0.76583 0.0
Co257 Co 0.47773 0.53422 0.79324 0.0
O258 O 0.42293 0.46711 0.78689 0.0
C259 C 0.46796 0.61889 0.71526 0.0
C260 C 0.32579 0.67981 0.78903 0.0
C261 C 0.37351 0.47083 0.77236 0.0
O262 O 0.41569 0.61335 0.71467 0.0
O263 O 0.4957 0.60869 0.76006 0.0
O264 O 0.35812 0.59183 0.86931 0.0
O265 O 0.43698 0.5916 0.83148 0.0
Co266 Co 0.65849 0.98114 0.81576 0.0
O267 O 0.67143 0.89827 0.81742 0.0
O268 O 0.73324 0.96672 0.80824 0.0
C269 C 0.60362 0.99352 0.89333 0.0
O270 O 0.67745 0.06407 0.8174 0.0
Co271 Co 0.55847 0.05319 0.80771 0.0
O272 O 0.61163 0.12196 0.82205 0.0
C273 C 0.58901 0.98604 0.70768 0.0
C274 C 0.72275 0.91401 0.81575 0.0
C275 C 0.66122 0.1134 0.82109 0.0
O276 O 0.63809 0.97981 0.7269 0.0
O277 O 0.55193 0.98949 0.74324 0.0
O278 O 0.65494 0.98924 0.90249 0.0
O279 O 0.58707 0.98758 0.83971 0.0
Co280 Co 0.78776 0.64868 1.01377 0.0
O281 O 0.85571 0.66938 0.05523 0.0
O282 O 0.80954 0.58422 0.04967 0.0
C283 C 0.81367 0.69344 0.93493 0.0
O284 O 0.71809 0.6053 0.97918 0.0
Co285 Co 0.71135 0.72834 0.96819 0.0
O286 O 0.6568 0.66229 0.95282 0.0
C287 C 0.7335 0.72553 0.09351 0.0
C288 C 0.85185 0.61704 0.0688 0.0
C289 C 0.66961 0.61373 0.96444 0.0
O290 O 0.75093 0.67623 0.08373 0.0
O291 O 0.72089 0.75632 0.05327 0.0
O292 O 0.82369 0.6407 0.93945 0.0
O293 O 0.78649 0.71531 0.97562 0.0
Co294 Co 0.94334 0.60839 0.79189 0.0
O295 O 0.92062 0.6863 0.77872 0.0
O296 O 0.87049 0.6073 0.75583 0.0
C297 C 0.9836 0.62542 0.88837 0.0
O298 O 0.93549 0.52517 0.79565 0.0
Co299 Co 1.03693 0.54312 0.83297 0.0
O300 O 0.97798 0.49872 0.87011 0.0
C301 C 1.02337 0.56598 0.70668 0.0
C302 C 0.87338 0.66182 0.75915 0.0
C303 C 0.93358 0.50192 0.84239 0.0
O304 O 0.97988 0.59275 0.71376 0.0
O305 O 0.0492 0.54602 0.74835 0.0
O306 O 0.93176 0.62397 0.87711 0.0
O307 O 1.00925 0.6182 0.84209 0.0
Co308 Co 0.74017 0.42177 0.57197 0.0
O309 O 0.66305 0.43863 0.58531 0.0
O310 O 0.73196 0.49854 0.61007 0.0
C311 C 0.72991 0.37918 0.47345 0.0
O312 O 0.81893 0.44339 0.56439 0.0
Co313 Co 0.80193 0.31725 0.53332 0.0
O314 O 0.86127 0.3742 0.51932 0.0
C315 C 0.77846 0.3366 0.65827 0.0
C316 C 0.68057 0.49087 0.60531 0.0
C317 C 0.85944 0.42571 0.53942 0.0
O318 O 0.75589 0.38415 0.65045 0.0
O319 O 0.79519 0.30493 0.61637 0.0
O320 O 0.72719 0.43328 0.4877 0.0
O321 O 0.73584 0.35233 0.51874 0.0
Co322 Co 0.72002 0.53771 0.36376 0.0
O323 O 0.72772 0.45782 0.34322 0.0
O324 O 0.79468 0.52578 0.35608 0.0
C325 C 0.65936 0.52536 0.43453 0.0
O326 O 0.73334 0.62357 0.38343 0.0
Co327 Co 0.61493 0.59497 0.35053 0.0
O328 O 0.66562 0.66255 0.34045 0.0
C329 C 0.66305 0.53404 0.25363 0.0
C330 C 0.7789 0.47251 0.34197 0.0
C331 C 0.71454 0.66477 0.35922 0.0
O332 O 0.70942 0.54626 0.27954 0.0
O333 O 0.6196 0.54026 0.27933 0.0
O334 O 0.71105 0.52733 0.44617 0.0
O335 O 0.64623 0.53075 0.38114 0.0
Tb336 Tb 0.09386 0.1307 0.07988 0.0
C337 C 0.12191 0.03848 0.98025 0.0
Tb338 Tb 1.02598 1.00926 0.06496 0.0
O339 O 0.16884 0.09609 0.11499 0.0
O340 O 0.09864 0.04738 0.10127 0.0
O341 O 0.12909 0.09153 1.00456 0.0
C342 C 1.01583 0.92372 0.13117 0.0
O343 O 0.08469 0.99892 0.99552 0.0
C344 C 0.9702 0.09295 0.0272 0.0
C345 C 0.99611 0.10743 0.16151 0.0
O346 O 1.00569 0.91875 0.07437 0.0
O347 O 1.03171 0.97597 0.14955 0.0
O348 O 0.95192 0.03879 0.02452 0.0
O349 O 1.01947 0.09265 0.04386 0.0
O350 O 0.98743 0.0541 0.13675 0.0
O351 O 1.03692 0.14398 0.14919 0.0
C352 C 0.10575 0.22023 1.01988 0.0
O353 O 0.11704 0.22128 0.07629 0.0
O354 O 0.08785 0.16922 0.99885 0.0
C355 C 0.1479 0.04295 0.11326 0.0
Tb356 Tb 0.31602 0.873 0.34521 0.0
C357 C 0.39795 0.78221 0.33824 0.0
Tb358 Tb 0.27302 0.74627 0.3058 0.0
O359 O 0.32912 0.85921 0.44007 0.0
O360 O 0.29667 0.79665 0.38233 0.0
O361 O 0.38605 0.83001 0.31788 0.0
C362 C 0.2028 0.65984 0.31927 0.0
O363 O 0.35826 0.74048 0.33999 0.0
C364 C 0.27804 0.80625 0.21293 0.0
C365 C 0.19242 0.84308 0.29959 0.0
O366 O 0.24851 0.65505 0.29465 0.0
O367 O 0.19848 0.71209 0.33886 0.0
O368 O 0.26967 0.75081 0.21085 0.0
O369 O 0.29038 0.82285 0.26615 0.0
O370 O 0.19902 0.79049 0.31228 0.0
O371 O 0.23347 0.88426 0.3079 0.0
C372 C 0.39044 0.95786 0.34493 0.0
O373 O 0.34525 0.96252 0.37062 0.0
O374 O 0.39019 0.90887 0.31524 0.0
C375 C 0.31542 0.80464 0.43421 0.0
Tb376 Tb 0.59834 0.06552 0.53202 0.0
C377 C 0.57333 1.0051 0.64909 0.0
Tb378 Tb 0.49099 0.05274 0.56381 0.0
O379 O 0.60628 0.15626 0.55156 0.0
O380 O 0.55875 0.10595 0.6034 0.0
O381 O 0.60912 1.01837 0.61108 0.0
C382 C 0.39885 0.09226 0.58976 0.0
O383 O 0.523 1.01798 0.64103 0.0
C384 C 0.51734 0.96663 0.49287 0.0
C385 C 0.50815 0.10991 0.44584 0.0
O386 O 0.4055 0.03873 0.57587 0.0
O387 O 0.44479 0.12186 0.59359 0.0
O388 O 0.48583 0.96048 0.53535 0.0
O389 O 0.5305 1.01854 0.49118 0.0
O390 O 0.47519 0.09954 0.48725 0.0
O391 O 0.55929 0.09579 0.45133 0.0
C392 C 0.69328 0.02513 0.51793 0.0
O393 O 0.68573 0.07864 0.53026 0.0
O394 O 0.64721 0.99605 0.50699 0.0
C395 C 0.57407 0.15685 0.59413 0.0
Tb396 Tb 0.3266 0.32418 0.85944 0.0
C397 C 0.33574 0.42091 0.77943 0.0
Tb398 Tb 0.27097 0.30467 0.75617 0.0
O399 O 0.38903 0.26691 0.8373 0.0
O400 O 0.35677 0.3108 0.77353 0.0
O401 O 0.32725 0.4103 0.83296 0.0
C402 C 0.23891 0.25139 0.65292 0.0
O403 O 0.32299 0.37964 0.73736 0.0
C404 C 0.2065 0.35334 0.83277 0.0
C405 C 0.25154 0.21209 0.8439 0.0
O406 O 0.23033 0.30365 0.66988 0.0
O407 O 0.26563 0.22998 0.69347 0.0
O408 O 0.20744 0.36054 0.7778 0.0
O409 O 0.24089 0.31821 0.84229 0.0
O410 O 0.25081 0.22192 0.78869 0.0
O411 O 0.27563 0.25083 0.88398 0.0
C412 C 0.36852 0.38409 0.95726 0.0
O413 O 0.35711 0.32916 0.95035 0.0
O414 O 0.35738 0.40406 0.9088 0.0
C415 C 0.38999 0.2743 0.78259 0.0
Tb416 Tb 1.00596 0.04314 0.50727 0.0
C417 C 0.96703 1.02028 0.62612 0.0
Tb418 Tb 0.09144 0.04555 0.60174 0.0
O419 O 0.98486 0.9521 0.51427 0.0
O420 O 0.06337 0.98639 0.53225 0.0
O421 O 0.95561 0.04666 0.58005 0.0
C422 C 0.15702 0.02693 0.69132 0.0
O423 O 1.01772 1.01364 0.64254 0.0
C424 C 0.0674 0.14665 0.57944 0.0
C425 C 0.12638 0.07308 0.48127 0.0
O426 O 0.15905 0.07205 0.66397 0.0
O427 O 0.11906 0.99142 0.66592 0.0
O428 O 0.11386 0.13633 0.60051 0.0
O429 O 1.0347 0.10293 0.57873 0.0
O430 O 0.1383 0.04199 0.52441 0.0
O431 O 0.07604 0.08407 0.4697 0.0
C432 C 0.93453 0.06082 0.42378 0.0
O433 O 0.97469 0.02985 0.41753 0.0
O434 O 0.93549 0.08367 0.4769 0.0
C435 C 1.03203 0.94234 0.53446 0.0
Tb436 Tb 0.35935 0.8342 0.85053 0.0
C437 C 0.25109 0.85656 0.91613 0.0
Tb438 Tb 0.24854 0.82237 0.77791 0.0
O439 O 0.35717 0.92684 0.87066 0.0
O440 O 0.31244 0.88395 0.80094 0.0
O441 O 0.30103 0.84104 0.9188 0.0
C442 C 0.18054 0.84463 0.69267 0.0
O443 O 0.22176 0.85353 0.86542 0.0
C444 C 0.28871 0.72546 0.79525 0.0
C445 C 0.35732 0.79277 0.7151 0.0
O446 O 0.16878 0.81242 0.73402 0.0
O447 O 0.22918 0.86817 0.70229 0.0
O448 O 0.24894 0.7293 0.75791 0.0
O449 O 0.29533 0.77213 0.82721 0.0
O450 O 0.30692 0.80713 0.71137 0.0
O451 O 0.38733 0.79936 0.76541 0.0
C452 C 0.43229 0.8258 0.93368 0.0
O453 O 0.43741 0.86161 0.89456 0.0
O454 O 0.39029 0.78993 0.92119 0.0
C455 C 0.31868 0.93079 0.83223 0.0
Tb456 Tb 0.50007 0.02384 0.02692 0.0
C457 C 0.5881 0.94 0.04462 0.0
Tb458 Tb 0.61586 0.07173 0.06436 0.0
O459 O 0.51343 0.99734 0.93345 0.0
O460 O 0.57446 0.03301 0.98921 0.0
O461 O 0.53941 0.95244 0.05768 0.0
C462 C 0.69899 0.15179 0.07583 0.0
O463 O 0.62739 0.98108 0.04086 0.0
C464 C 0.55126 0.05875 0.15108 0.0
C465 C 0.53464 0.14985 1.02122 0.0
O466 O 0.70168 0.0978 0.05905 0.0
O467 O 0.65039 0.15988 0.0885 0.0
O468 O 0.60208 0.05062 0.15215 0.0
O469 O 0.53827 0.07492 0.10223 0.0
O470 O 0.57951 0.1278 1.00786 0.0
O471 O 0.4937 0.11626 0.03635 0.0
C472 C 0.40697 0.96556 0.03836 0.0
O473 O 0.41476 1.00268 1.00062 0.0
O474 O 0.45036 0.96358 0.07077 0.0
C475 C 0.5652 1.0097 0.93834 0.0
Tb476 Tb 0.23552 0.24724 0.27622 0.0
C477 C 0.31342 0.21942 0.37987 0.0
Tb478 Tb 0.35217 0.31823 0.29809 0.0
O479 O 0.27292 0.16662 0.24581 0.0
O480 O 0.31569 0.24319 0.25912 0.0
O481 O 0.26778 0.20638 0.34825 0.0
C482 C 0.43053 0.3144 0.22608 0.0
O483 O 0.35099 0.26152 0.37048 0.0
C484 C 0.26958 0.37855 0.32529 0.0
C485 C 0.26888 0.34377 0.19457 0.0
O486 O 0.43783 0.33408 0.28158 0.0
O487 O 0.38084 0.29752 0.21303 0.0
O488 O 0.32015 0.4001 0.32986 0.0
O489 O 0.27226 0.32547 0.31308 0.0
O490 O 0.31615 0.35511 0.22422 0.0
O491 O 0.23165 0.30182 0.204 0.0
C492 C 0.16345 0.25715 0.35444 0.0
O493 O 0.15228 0.23006 0.30188 0.0
O494 O 0.21275 0.27819 0.36042 0.0
C495 C 0.32238 0.19127 0.24848 0.0
Tb496 Tb 0.50596 0.54314 1.00727 0.0
C497 C 0.46703 0.52028 0.12612 0.0
Tb498 Tb 0.59144 0.54555 0.10174 0.0
O499 O 0.48486 0.4521 1.01427 0.0
O500 O 0.56337 0.48639 0.03226 0.0
O501 O 0.45561 0.54666 0.08005 0.0
C502 C 0.65702 0.52694 0.19132 0.0
O503 O 0.51772 0.51364 0.14254 0.0
C504 C 0.5674 0.64665 0.07944 0.0
C505 C 0.62638 0.57308 0.98127 0.0
O506 O 0.65904 0.57206 0.16398 0.0
O507 O 0.61907 0.49142 0.16592 0.0
O508 O 0.61386 0.63633 0.1005 0.0
O509 O 0.5347 0.60293 0.07873 0.0
O510 O 0.6383 0.54199 0.02441 0.0
O511 O 0.57603 0.58407 0.9697 0.0
C512 C 0.43453 0.56082 0.92378 0.0
O513 O 0.47469 0.52985 0.91753 0.0
O514 O 0.43549 0.58367 0.9769 0.0
C515 C 0.53203 0.44235 0.03446 0.0
Tb516 Tb 0.85935 0.3342 0.35053 0.0
C517 C 0.75109 0.35656 0.41613 0.0
Tb518 Tb 0.74854 0.32237 0.27791 0.0
O519 O 0.85717 0.42684 0.37066 0.0
O520 O 0.81244 0.38394 0.30094 0.0
O521 O 0.80103 0.34104 0.41881 0.0
C522 C 0.68054 0.34463 0.19267 0.0
O523 O 0.72176 0.35353 0.36542 0.0
C524 C 0.78871 0.22546 0.29525 0.0
C525 C 0.85732 0.29277 0.21511 0.0
O526 O 0.66878 0.31242 0.23403 0.0
O527 O 0.72918 0.36817 0.20229 0.0
O528 O 0.74894 0.2293 0.25791 0.0
O529 O 0.79533 0.27213 0.32721 0.0
O530 O 0.80693 0.30713 0.21137 0.0
O531 O 0.88733 0.29936 0.26541 0.0
C532 C 0.93229 0.32579 0.43369 0.0
O533 O 0.93741 0.36161 0.39456 0.0
O534 O 0.89029 0.28993 0.42119 0.0
C535 C 0.81868 0.43079 0.33223 0.0
Tb536 Tb 1.00007 0.52384 0.52692 0.0
C537 C 0.0881 0.44 0.54462 0.0
Tb538 Tb 0.11586 0.57173 0.56436 0.0
O539 O 1.01343 0.49734 0.43345 0.0
O540 O 0.07446 0.53301 0.48921 0.0
O541 O 0.03941 0.45244 0.55768 0.0
C542 C 0.19899 0.65179 0.57583 0.0
O543 O 0.12739 0.48108 0.54086 0.0
C544 C 0.05126 0.55875 0.65108 0.0
C545 C 1.03464 0.64985 0.52122 0.0
O546 O 0.20168 0.5978 0.55905 0.0
O547 O 0.15039 0.65987 0.5885 0.0
O548 O 0.10208 0.55062 0.65215 0.0
O549 O 1.03827 0.57492 0.60223 0.0
O550 O 0.07951 0.6278 0.50786 0.0
O551 O 0.9937 0.61626 0.53635 0.0
C552 C 0.90697 0.46556 0.53836 0.0
O553 O 0.91476 0.50268 0.50062 0.0
O554 O 0.95036 0.46358 0.57077 0.0
C555 C 0.0652 0.5097 0.43834 0.0
Tb556 Tb 0.8266 0.82418 0.35944 0.0
C557 C 0.83574 0.92091 0.27943 0.0
Tb558 Tb 0.77097 0.80467 0.25617 0.0
O559 O 0.88903 0.76691 0.3373 0.0
O560 O 0.85677 0.8108 0.27353 0.0
O561 O 0.82724 0.9103 0.33296 0.0
C562 C 0.73891 0.75139 0.15292 0.0
O563 O 0.82299 0.87964 0.23736 0.0
C564 C 0.7065 0.85333 0.33277 0.0
C565 C 0.75154 0.71209 0.3439 0.0
O566 O 0.73033 0.80365 0.16988 0.0
O567 O 0.76563 0.72998 0.19347 0.0
O568 O 0.70744 0.86054 0.2778 0.0
O569 O 0.74089 0.81821 0.34228 0.0
O570 O 0.75081 0.72192 0.28869 0.0
O571 O 0.77563 0.75083 0.38398 0.0
C572 C 0.86852 0.88408 0.45726 0.0
O573 O 0.85711 0.82916 0.45035 0.0
O574 O 0.85738 0.90406 0.4088 0.0
C575 C 0.88999 0.7743 0.28259 0.0
Tb576 Tb 0.81602 0.373 0.84521 0.0
C577 C 0.89795 0.28221 0.83824 0.0
Tb578 Tb 0.77302 0.24627 0.8058 0.0
O579 O 0.82912 0.35921 0.94007 0.0
O580 O 0.79667 0.29665 0.88233 0.0
O581 O 0.88605 0.33001 0.81788 0.0
C582 C 0.7028 0.15984 0.81927 0.0
O583 O 0.85826 0.24049 0.83999 0.0
C584 C 0.77804 0.30625 0.71293 0.0
C585 C 0.69242 0.34308 0.79959 0.0
O586 O 0.74851 0.15506 0.79466 0.0
O587 O 0.69848 0.21209 0.83886 0.0
O588 O 0.76967 0.25081 0.71085 0.0
O589 O 0.79038 0.32285 0.76615 0.0
O590 O 0.69902 0.29049 0.81228 0.0
O591 O 0.73347 0.38426 0.8079 0.0
C592 C 0.89044 0.45786 0.84493 0.0
O593 O 0.84525 0.46252 0.87062 0.0
O594 O 0.89019 0.40887 0.81524 0.0
C595 C 0.81542 0.30464 0.93421 0.0
Tb596 Tb 0.73552 0.74724 0.77622 0.0
C597 C 0.81342 0.71942 0.87987 0.0
Tb598 Tb 0.85217 0.81823 0.79809 0.0
O599 O 0.77292 0.66662 0.74581 0.0
O600 O 0.81569 0.7432 0.75912 0.0
O601 O 0.76778 0.70638 0.84824 0.0
C602 C 0.93053 0.8144 0.72608 0.0
O603 O 0.85099 0.76152 0.87048 0.0
C604 C 0.76958 0.87855 0.82529 0.0
C605 C 0.76888 0.84378 0.69457 0.0
O606 O 0.93783 0.83408 0.78157 0.0
O607 O 0.88084 0.79752 0.71303 0.0
O608 O 0.82015 0.9001 0.82986 0.0
O609 O 0.77226 0.82547 0.81308 0.0
O610 O 0.81615 0.85511 0.72422 0.0
O611 O 0.73165 0.80182 0.704 0.0
C612 C 0.66345 0.75715 0.85444 0.0
O613 O 0.65228 0.73006 0.80188 0.0
O614 O 0.71275 0.77819 0.86042 0.0
C615 C 0.82238 0.69127 0.74848 0.0
Tb616 Tb 0.59387 0.6307 0.57988 0.0
C617 C 0.62191 0.53848 0.48025 0.0
Tb618 Tb 0.52598 0.50926 0.56496 0.0
O619 O 0.66884 0.59609 0.61499 0.0
O620 O 0.59864 0.54738 0.60127 0.0
O621 O 0.62909 0.59153 0.50456 0.0
C622 C 0.51583 0.42372 0.63117 0.0
O623 O 0.58469 0.49892 0.49553 0.0
C624 C 0.4702 0.59295 0.5272 0.0
C625 C 0.49611 0.60743 0.66151 0.0
O626 O 0.50569 0.41875 0.57437 0.0
O627 O 0.53171 0.47597 0.64955 0.0
O628 O 0.45192 0.53879 0.52453 0.0
O629 O 0.51947 0.59265 0.54386 0.0
O630 O 0.48743 0.5541 0.63676 0.0
O631 O 0.53692 0.64398 0.6492 0.0
C632 C 0.60575 0.72023 0.51988 0.0
O633 O 0.61704 0.72128 0.57629 0.0
O634 O 0.58785 0.66922 0.49885 0.0
C635 C 0.6479 0.54295 0.61326 0.0
Tb636 Tb 0.09834 0.56552 0.03202 0.0
C637 C 0.07333 0.5051 0.14909 0.0
Tb638 Tb 0.99099 0.55274 0.06381 0.0
O639 O 0.10628 0.65626 0.05156 0.0
O640 O 0.05875 0.60595 0.1034 0.0
O641 O 0.10912 0.51836 0.11108 0.0
C642 C 0.89885 0.59226 0.08976 0.0
O643 O 1.023 0.51798 0.14103 0.0
C644 C 1.01734 0.46663 0.99287 0.0
C645 C 1.00815 0.60991 0.94584 0.0
O646 O 0.9055 0.53873 0.07587 0.0
O647 O 0.94479 0.62186 0.09359 0.0
O648 O 0.98583 0.46048 0.03535 0.0
O649 O 1.0305 0.51854 0.99118 0.0
O650 O 0.97519 0.59954 0.98725 0.0
O651 O 0.05929 0.59579 0.95133 0.0
C652 C 0.19328 0.52513 1.01793 0.0
O653 O 0.18573 0.57864 0.03026 0.0
O654 O 0.14721 0.49605 1.00699 0.0
C655 C 0.07407 0.65685 0.09413 0.0
loop_
_geom_bond_atom_site_label_1
_geom_bond_atom_site_label_2
_geom_bond_distance
_geom_bond_site_symmetry_2
_ccdc_geom_bond_type
Co0 O1 2.216 . S
Co0 O2 2.091 . S
Co0 O4 2.004 1_455 S
Co0 O10 2.021 . S
Co0 O12 2.137 . S
Co0 O13 2.244 . S
O1 Co0 2.216 . S
O1 C8 1.247 . S
O2 Co0 2.091 . S
O2 C8 1.261 . S
C3 O12 1.247 . S
C3 O13 1.272 . S
O4 Co0 2.004 1_655 S
O4 C9 1.259 . S
Co5 O6 2.061 . S
Co5 O11 2.052 . S
Co5 O13 2.135 1_655 S
O6 Co5 2.061 . S
O6 C9 1.235 . S
C7 O10 1.238 . S
C7 O11 1.241 1_455 S
C8 O1 1.247 . S
C8 O2 1.261 . S
C9 O4 1.259 . S
C9 O6 1.235 . S
O10 Co0 2.021 . S
O10 C7 1.238 . S
O11 Co5 2.052 . S
O11 C7 1.241 1_655 S
O12 Co0 2.137 . S
O12 C3 1.247 . S
O13 Co0 2.244 . S
O13 C3 1.272 . S
O13 Co5 2.135 1_455 S
Co14 O15 2.216 . S
Co14 O16 2.091 . S
Co14 O18 2.004 1_655 S
Co14 O24 2.021 . S
Co14 O26 2.137 . S
Co14 O27 2.244 1_655 S
O15 Co14 2.216 . S
O15 C22 1.247 . S
O16 Co14 2.091 . S
O16 C22 1.261 . S
C17 O26 1.247 1_455 S
C17 O27 1.272 . S
O18 Co14 2.004 1_455 S
O18 C23 1.259 . S
Co19 O20 2.061 . S
Co19 O25 2.052 . S
Co19 O27 2.135 . S
O20 Co19 2.061 . S
O20 C23 1.235 . S
C21 O24 1.238 . S
C21 O25 1.241 1_655 S
C22 O15 1.247 . S
C22 O16 1.261 . S
C23 O18 1.259 . S
C23 O20 1.235 . S
O24 Co14 2.021 . S
O24 C21 1.238 . S
O25 Co19 2.052 . S
O25 C21 1.241 1_455 S
O26 Co14 2.137 . S
O26 C17 1.247 1_655 S
O27 Co14 2.244 1_455 S
O27 C17 1.272 . S
O27 Co19 2.135 . S
Co28 O29 2.216 . S
Co28 O30 2.091 . S
Co28 O32 2.004 . S
Co28 O38 2.021 . S
Co28 O40 2.137 . S
Co28 O41 2.244 . S
O29 Co28 2.216 . S
O29 C36 1.247 . S
O30 Co28 2.091 . S
O30 C36 1.261 . S
C31 O40 1.247 . S
C31 O41 1.272 . S
O32 Co28 2.004 . S
O32 C37 1.259 . S
Co33 O34 2.061 1_554 S
Co33 O39 2.052 . S
Co33 O41 2.135 1_554 S
O34 Co33 2.061 1_556 S
O34 C37 1.235 . S
C35 O38 1.238 . S
C35 O39 1.241 1_556 S
C36 O29 1.247 . S
C36 O30 1.261 . S
C37 O32 1.259 . S
C37 O34 1.235 . S
O38 Co28 2.021 . S
O38 C35 1.238 . S
O39 Co33 2.052 . S
O39 C35 1.241 1_554 S
O40 Co28 2.137 . S
O40 C31 1.247 . S
O41 Co28 2.244 . S
O41 C31 1.272 . S
O41 Co33 2.135 1_556 S
Co42 O43 2.216 . S
Co42 O44 2.091 . S
Co42 O46 2.004 . S
Co42 O52 2.021 . S
Co42 O54 2.137 . S
Co42 O55 2.244 . S
O43 Co42 2.216 . S
O43 C50 1.247 . S
O44 Co42 2.091 . S
O44 C50 1.261 . S
C45 O54 1.247 . S
C45 O55 1.272 . S
O46 Co42 2.004 . S
O46 C51 1.259 . S
Co47 O48 2.061 . S
Co47 O53 2.052 . S
Co47 O55 2.135 . S
O48 Co47 2.061 . S
O48 C51 1.235 . S
C49 O52 1.238 . S
C49 O53 1.241 . S
C50 O43 1.247 . S
C50 O44 1.261 . S
C51 O46 1.259 . S
C51 O48 1.235 . S
O52 Co42 2.021 . S
O52 C49 1.238 . S
O53 Co47 2.052 . S
O53 C49 1.241 . S
O54 Co42 2.137 . S
O54 C45 1.247 . S
O55 Co42 2.244 . S
O55 C45 1.272 . S
O55 Co47 2.135 . S
Co56 O57 2.216 1_455 S
Co56 O58 2.091 1_455 S
Co56 O60 2.004 . S
Co56 O66 2.021 1_455 S
Co56 O68 2.137 . S
Co56 O69 2.244 . S
O57 Co56 2.216 1_655 S
O57 C64 1.247 . S
O58 Co56 2.091 1_655 S
O58 C64 1.261 . S
C59 O68 1.247 . S
C59 O69 1.272 . S
O60 Co56 2.004 . S
O60 C65 1.259 . S
Co61 O62 2.061 . S
Co61 O67 2.052 . S
Co61 O69 2.135 . S
O62 Co61 2.061 . S
O62 C65 1.235 . S
C63 O66 1.238 1_455 S
C63 O67 1.241 . S
C64 O57 1.247 . S
C64 O58 1.261 . S
C65 O60 1.259 . S
C65 O62 1.235 . S
O66 Co56 2.021 1_655 S
O66 C63 1.238 1_655 S
O67 Co61 2.052 . S
O67 C63 1.241 . S
O68 Co56 2.137 . S
O68 C59 1.247 . S
O69 Co56 2.244 . S
O69 C59 1.272 . S
O69 Co61 2.135 . S
Co70 O71 2.216 . S
Co70 O72 2.091 . S
Co70 O74 2.004 . S
Co70 O80 2.021 . S
Co70 O82 2.137 . S
Co70 O83 2.244 . S
O71 Co70 2.216 . S
O71 C78 1.247 . S
O72 Co70 2.091 . S
O72 C78 1.261 . S
C73 O82 1.247 . S
C73 O83 1.272 . S
O74 Co70 2.004 . S
O74 C79 1.259 . S
Co75 O76 2.061 . S
Co75 O81 2.052 . S
Co75 O83 2.135 . S
O76 Co75 2.061 . S
O76 C79 1.235 . S
C77 O80 1.238 . S
C77 O81 1.241 . S
C78 O71 1.247 . S
C78 O72 1.261 . S
C79 O74 1.259 . S
C79 O76 1.235 . S
O80 Co70 2.021 . S
O80 C77 1.238 . S
O81 Co75 2.052 . S
O81 C77 1.241 . S
O82 Co70 2.137 . S
O82 C73 1.247 . S
O83 Co70 2.244 . S
O83 C73 1.272 . S
O83 Co75 2.135 . S
Co84 O85 2.216 . S
Co84 O86 2.091 . S
Co84 O88 2.004 . S
Co84 O94 2.021 . S
Co84 O96 2.137 . S
Co84 O97 2.244 . S
O85 Co84 2.216 . S
O85 C92 1.247 . S
O86 Co84 2.091 . S
O86 C92 1.261 . S
C87 O96 1.247 . S
C87 O97 1.272 . S
O88 Co84 2.004 . S
O88 C93 1.259 . S
Co89 O90 2.061 . S
Co89 O95 2.052 . S
Co89 O97 2.135 . S
O90 Co89 2.061 . S
O90 C93 1.235 . S
C91 O94 1.238 . S
C91 O95 1.241 . S
C92 O85 1.247 . S
C92 O86 1.261 . S
C93 O88 1.259 . S
C93 O90 1.235 . S
O94 Co84 2.021 . S
O94 C91 1.238 . S
O95 Co89 2.052 . S
O95 C91 1.241 . S
O96 Co84 2.137 . S
O96 C87 1.247 . S
O97 Co84 2.244 . S
O97 C87 1.272 . S
O97 Co89 2.135 . S
Co98 O99 2.216 . S
Co98 O100 2.091 . S
Co98 O102 2.004 1_455 S
Co98 O108 2.021 . S
Co98 O110 2.137 . S
Co98 O111 2.244 . S
O99 Co98 2.216 . S
O99 C106 1.247 . S
O100 Co98 2.091 . S
O100 C106 1.261 . S
C101 O110 1.247 . S
C101 O111 1.272 . S
O102 Co98 2.004 1_655 S
O102 C107 1.259 . S
Co103 O104 2.061 . S
Co103 O109 2.052 . S
Co103 O111 2.135 1_655 S
O104 Co103 2.061 . S
O104 C107 1.235 . S
C105 O108 1.238 . S
C105 O109 1.241 1_455 S
C106 O99 1.247 . S
C106 O100 1.261 . S
C107 O102 1.259 . S
C107 O104 1.235 . S
O108 Co98 2.021 . S
O108 C105 1.238 . S
O109 Co103 2.052 . S
O109 C105 1.241 1_655 S
O110 Co98 2.137 . S
O110 C101 1.247 . S
O111 Co98 2.244 . S
O111 C101 1.272 . S
O111 Co103 2.135 1_455 S
Co112 O113 2.216 . S
Co112 O114 2.091 . S
Co112 O116 2.004 . S
Co112 O122 2.021 . S
Co112 O124 2.137 . S
Co112 O125 2.244 . S
O113 Co112 2.216 . S
O113 C120 1.247 . S
O114 Co112 2.091 . S
O114 C120 1.261 . S
C115 O124 1.247 . S
C115 O125 1.272 . S
O116 Co112 2.004 . S
O116 C121 1.259 1_545 S
Co117 O118 2.062 1_545 S
Co117 O123 2.051 . S
Co117 O125 2.133 . S
O118 Co117 2.062 1_565 S
O118 C121 1.235 . S
C119 O122 1.238 . S
C119 O123 1.241 . S
C120 O113 1.247 . S
C120 O114 1.261 . S
C121 O116 1.259 1_565 S
C121 O118 1.235 . S
O122 Co112 2.021 . S
O122 C119 1.238 . S
O123 Co117 2.051 . S
O123 C119 1.241 . S
O124 Co112 2.137 . S
O124 C115 1.247 . S
O125 Co112 2.244 . S
O125 C115 1.272 . S
O125 Co117 2.133 . S
Co126 O127 2.216 . S
Co126 O128 2.091 . S
Co126 O130 2.004 . S
Co126 O136 2.021 . S
Co126 O138 2.137 . S
Co126 O139 2.244 . S
O127 Co126 2.216 . S
O127 C134 1.247 . S
O128 Co126 2.091 . S
O128 C134 1.261 . S
C129 O138 1.247 . S
C129 O139 1.272 . S
O130 Co126 2.004 . S
O130 C135 1.259 . S
Co131 O132 2.061 . S
Co131 O137 2.052 . S
Co131 O139 2.135 . S
O132 Co131 2.061 . S
O132 C135 1.235 . S
C133 O136 1.238 . S
C133 O137 1.241 . S
C134 O127 1.247 . S
C134 O128 1.261 . S
C135 O130 1.259 . S
C135 O132 1.235 . S
O136 Co126 2.021 . S
O136 C133 1.238 . S
O137 Co131 2.052 . S
O137 C133 1.241 . S
O138 Co126 2.137 . S
O138 C129 1.247 . S
O139 Co126 2.244 . S
O139 C129 1.272 . S
O139 Co131 2.135 . S
Co140 O141 2.216 1_545 S
Co140 O142 2.091 1_545 S
Co140 O144 2.004 . S
Co140 O150 2.021 1_545 S
Co140 O152 2.137 1_545 S
Co140 O153 2.244 . S
O141 Co140 2.216 1_565 S
O141 C148 1.247 . S
O142 Co140 2.091 1_565 S
O142 C148 1.261 . S
C143 O152 1.247 1_545 S
C143 O153 1.272 . S
O144 Co140 2.004 . S
O144 C149 1.259 . S
Co145 O146 2.061 . S
Co145 O151 2.052 . S
Co145 O153 2.135 . S
O146 Co145 2.061 . S
O146 C149 1.235 . S
C147 O150 1.236 1_545 S
C147 O151 1.241 . S
C148 O141 1.247 . S
C148 O142 1.261 . S
C149 O144 1.259 . S
C149 O146 1.235 . S
O150 Co140 2.021 1_565 S
O150 C147 1.236 1_565 S
O151 Co145 2.052 . S
O151 C147 1.241 . S
O152 Co140 2.137 1_565 S
O152 C143 1.247 1_565 S
O153 Co140 2.244 . S
O153 C143 1.272 . S
O153 Co145 2.135 . S
Co154 O155 2.216 . S
Co154 O156 2.091 . S
Co154 O158 2.004 . S
Co154 O164 2.021 . S
Co154 O166 2.137 1_554 S
Co154 O167 2.244 1_554 S
O155 Co154 2.216 . S
O155 C162 1.247 . S
O156 Co154 2.091 . S
O156 C162 1.261 . S
C157 O166 1.247 . S
C157 O167 1.272 . S
O158 Co154 2.004 . S
O158 C163 1.259 . S
Co159 O160 2.061 . S
Co159 O165 2.052 . S
Co159 O167 2.135 1_554 S
O160 Co159 2.061 . S
O160 C163 1.235 . S
C161 O164 1.238 . S
C161 O165 1.241 . S
C162 O155 1.247 . S
C162 O156 1.261 . S
C163 O158 1.259 . S
C163 O160 1.235 . S
O164 Co154 2.021 . S
O164 C161 1.238 . S
O165 Co159 2.052 . S
O165 C161 1.241 . S
O166 Co154 2.137 1_556 S
O166 C157 1.247 . S
O167 Co154 2.244 1_556 S
O167 C157 1.272 . S
O167 Co159 2.135 1_556 S
Co168 O169 2.216 . S
Co168 O170 2.091 . S
Co168 O172 2.004 . S
Co168 O178 2.021 . S
Co168 O180 2.137 1_554 S
Co168 O181 2.244 . S
O169 Co168 2.216 . S
O169 C176 1.247 . S
O170 Co168 2.091 . S
O170 C176 1.261 . S
C171 O180 1.247 . S
C171 O181 1.272 1_556 S
O172 Co168 2.004 . S
O172 C177 1.259 . S
Co173 O174 2.061 . S
Co173 O179 2.052 . S
Co173 O181 2.135 . S
O174 Co173 2.061 . S
O174 C177 1.235 . S
C175 O178 1.238 . S
C175 O179 1.241 . S
C176 O169 1.247 . S
C176 O170 1.261 . S
C177 O172 1.259 . S
C177 O174 1.235 . S
O178 Co168 2.021 . S
O178 C175 1.238 . S
O179 Co173 2.052 . S
O179 C175 1.241 . S
O180 Co168 2.137 1_556 S
O180 C171 1.247 . S
O181 Co168 2.244 . S
O181 C171 1.272 1_554 S
O181 Co173 2.135 . S
Co182 O183 2.216 . S
Co182 O184 2.091 . S
Co182 O186 2.004 . S
Co182 O192 2.021 . S
Co182 O194 2.137 1_554 S
Co182 O195 2.244 1_554 S
O183 Co182 2.216 . S
O183 C190 1.247 . S
O184 Co182 2.091 . S
O184 C190 1.261 . S
C185 O194 1.247 . S
C185 O195 1.272 . S
O186 Co182 2.004 . S
O186 C191 1.259 . S
Co187 O188 2.061 . S
Co187 O193 2.052 . S
Co187 O195 2.135 1_554 S
O188 Co187 2.061 . S
O188 C191 1.235 . S
C189 O192 1.238 . S
C189 O193 1.241 . S
C190 O183 1.247 . S
C190 O184 1.261 . S
C191 O186 1.259 . S
C191 O188 1.235 . S
O192 Co182 2.021 . S
O192 C189 1.238 . S
O193 Co187 2.052 . S
O193 C189 1.241 . S
O194 Co182 2.137 1_556 S
O194 C185 1.247 . S
O195 Co182 2.244 1_556 S
O195 C185 1.272 . S
O195 Co187 2.135 1_556 S
Co196 O197 2.216 . S
Co196 O198 2.091 . S
Co196 O200 2.004 . S
Co196 O206 2.021 . S
Co196 O208 2.137 . S
Co196 O209 2.244 . S
O197 Co196 2.216 . S
O197 C204 1.247 . S
O198 Co196 2.091 . S
O198 C204 1.261 . S
C199 O208 1.247 . S
C199 O209 1.272 . S
O200 Co196 2.004 . S
O200 C205 1.259 . S
Co201 O202 2.061 . S
Co201 O207 2.052 . S
Co201 O209 2.135 . S
O202 Co201 2.061 . S
O202 C205 1.235 . S
C203 O206 1.238 . S
C203 O207 1.241 . S
C204 O197 1.247 . S
C204 O198 1.261 . S
C205 O200 1.259 . S
C205 O202 1.235 . S
O206 Co196 2.021 . S
O206 C203 1.238 . S
O207 Co201 2.052 . S
O207 C203 1.241 . S
O208 Co196 2.137 . S
O208 C199 1.247 . S
O209 Co196 2.244 . S
O209 C199 1.272 . S
O209 Co201 2.135 . S
Co210 O211 2.216 . S
Co210 O212 2.091 . S
Co210 O214 2.004 . S
Co210 O220 2.021 . S
Co210 O222 2.137 . S
Co210 O223 2.244 . S
O211 Co210 2.216 . S
O211 C218 1.247 . S
O212 Co210 2.091 . S
O212 C218 1.261 . S
C213 O222 1.247 . S
C213 O223 1.272 . S
O214 Co210 2.004 . S
O214 C219 1.259 . S
Co215 O216 2.061 . S
Co215 O221 2.052 . S
Co215 O223 2.135 . S
O216 Co215 2.061 . S
O216 C219 1.235 . S
C217 O220 1.238 . S
C217 O221 1.241 . S
C218 O211 1.247 . S
C218 O212 1.261 . S
C219 O214 1.259 . S
C219 O216 1.235 . S
O220 Co210 2.021 . S
O220 C217 1.238 . S
O221 Co215 2.052 . S
O221 C217 1.241 . S
O222 Co210 2.137 . S
O222 C213 1.247 . S
O223 Co210 2.244 . S
O223 C213 1.272 . S
O223 Co215 2.135 . S
Co224 O225 2.216 . S
Co224 O226 2.091 . S
Co224 O228 2.004 1_545 S
Co224 O234 2.021 . S
Co224 O236 2.137 . S
Co224 O237 2.244 . S
O225 Co224 2.216 . S
O225 C232 1.247 . S
O226 Co224 2.091 . S
O226 C232 1.261 . S
C227 O236 1.247 . S
C227 O237 1.272 . S
O228 Co224 2.004 1_565 S
O228 C233 1.259 . S
Co229 O230 2.061 . S
Co229 O235 2.052 1_565 S
Co229 O237 2.135 1_565 S
O230 Co229 2.061 . S
O230 C233 1.235 . S
C231 O234 1.238 . S
C231 O235 1.241 . S
C232 O225 1.247 . S
C232 O226 1.261 . S
C233 O228 1.259 . S
C233 O230 1.235 . S
O234 Co224 2.021 . S
O234 C231 1.238 . S
O235 Co229 2.052 1_545 S
O235 C231 1.241 . S
O236 Co224 2.137 . S
O236 C227 1.247 . S
O237 Co224 2.244 . S
O237 C227 1.272 . S
O237 Co229 2.135 1_545 S
Co238 O239 2.216 . S
Co238 O240 2.091 . S
Co238 O242 2.004 . S
Co238 O248 2.021 . S
Co238 O250 2.137 . S
Co238 O251 2.244 . S
O239 Co238 2.216 . S
O239 C246 1.247 . S
O240 Co238 2.091 . S
O240 C246 1.261 . S
C241 O250 1.247 . S
C241 O251 1.272 . S
O242 Co238 2.004 . S
O242 C247 1.259 . S
Co243 O244 2.061 . S
Co243 O249 2.052 . S
Co243 O251 2.135 . S
O244 Co243 2.061 . S
O244 C247 1.235 . S
C245 O248 1.238 . S
C245 O249 1.241 . S
C246 O239 1.247 . S
C246 O240 1.261 . S
C247 O242 1.259 . S
C247 O244 1.235 . S
O248 Co238 2.021 . S
O248 C245 1.238 . S
O249 Co243 2.052 . S
O249 C245 1.241 . S
O250 Co238 2.137 . S
O250 C241 1.247 . S
O251 Co238 2.244 . S
O251 C241 1.272 . S
O251 Co243 2.135 . S
Co252 O253 2.216 . S
Co252 O254 2.091 . S
Co252 O256 2.004 . S
Co252 O262 2.021 . S
Co252 O264 2.137 . S
Co252 O265 2.244 . S
O253 Co252 2.216 . S
O253 C260 1.247 . S
O254 Co252 2.091 . S
O254 C260 1.261 . S
C255 O264 1.247 . S
C255 O265 1.272 . S
O256 Co252 2.004 . S
O256 C261 1.259 . S
Co257 O258 2.061 . S
Co257 O263 2.052 . S
Co257 O265 2.135 . S
O258 Co257 2.061 . S
O258 C261 1.235 . S
C259 O262 1.238 . S
C259 O263 1.241 . S
C260 O253 1.247 . S
C260 O254 1.261 . S
C261 O256 1.259 . S
C261 O258 1.235 . S
O262 Co252 2.021 . S
O262 C259 1.238 . S
O263 Co257 2.052 . S
O263 C259 1.241 . S
O264 Co252 2.137 . S
O264 C255 1.247 . S
O265 Co252 2.244 . S
O265 C255 1.272 . S
O265 Co257 2.135 . S
Co266 O267 2.216 . S
Co266 O268 2.091 . S
Co266 O270 2.004 1_565 S
Co266 O276 2.021 . S
Co266 O278 2.137 . S
Co266 O279 2.244 1_565 S
O267 Co266 2.216 . S
O267 C274 1.247 . S
O268 Co266 2.091 . S
O268 C274 1.261 . S
C269 O278 1.247 1_545 S
C269 O279 1.272 . S
O270 Co266 2.004 1_545 S
O270 C275 1.259 . S
Co271 O272 2.061 . S
Co271 O277 2.052 . S
Co271 O279 2.135 . S
O272 Co271 2.061 . S
O272 C275 1.235 . S
C273 O276 1.237 . S
C273 O277 1.242 1_565 S
C274 O267 1.247 . S
C274 O268 1.261 . S
C275 O270 1.259 . S
C275 O272 1.235 . S
O276 Co266 2.021 . S
O276 C273 1.237 . S
O277 Co271 2.052 . S
O277 C273 1.242 1_545 S
O278 Co266 2.137 . S
O278 C269 1.247 1_565 S
O279 Co266 2.244 1_545 S
O279 C269 1.272 . S
O279 Co271 2.135 . S
Co280 O281 2.216 1_556 S
Co280 O282 2.091 . S
Co280 O284 2.004 . S
Co280 O290 2.021 1_556 S
Co280 O292 2.137 . S
Co280 O293 2.244 . S
O281 Co280 2.216 1_554 S
O281 C288 1.247 . S
O282 Co280 2.091 . S
O282 C288 1.261 1_556 S
C283 O292 1.247 . S
C283 O293 1.272 . S
O284 Co280 2.004 . S
O284 C289 1.259 . S
Co285 O286 2.062 1_554 S
Co285 O291 2.058 . S
Co285 O293 2.130 1_554 S
O286 Co285 2.062 1_556 S
O286 C289 1.235 . S
C287 O290 1.238 . S
C287 O291 1.241 . S
C288 O281 1.247 . S
C288 O282 1.261 1_554 S
C289 O284 1.259 . S
C289 O286 1.235 . S
O290 Co280 2.021 1_554 S
O290 C287 1.238 . S
O291 Co285 2.058 . S
O291 C287 1.241 . S
O292 Co280 2.137 . S
O292 C283 1.247 . S
O293 Co280 2.244 . S
O293 C283 1.272 . S
O293 Co285 2.130 1_556 S
Co294 O295 2.216 . S
Co294 O296 2.091 . S
Co294 O298 2.004 . S
Co294 O304 2.021 . S
Co294 O306 2.137 . S
Co294 O307 2.244 . S
O295 Co294 2.216 . S
O295 C302 1.247 . S
O296 Co294 2.091 . S
O296 C302 1.261 . S
C297 O306 1.247 . S
C297 O307 1.272 . S
O298 Co294 2.004 . S
O298 C303 1.259 . S
Co299 O300 2.061 . S
Co299 O305 2.052 . S
Co299 O307 2.135 . S
O300 Co299 2.061 . S
O300 C303 1.235 . S
C301 O304 1.238 . S
C301 O305 1.241 . S
C302 O295 1.247 . S
C302 O296 1.261 . S
C303 O298 1.259 . S
C303 O300 1.235 . S
O304 Co294 2.021 . S
O304 C301 1.238 . S
O305 Co299 2.052 . S
O305 C301 1.241 . S
O306 Co294 2.137 . S
O306 C297 1.247 . S
O307 Co294 2.244 . S
O307 C297 1.272 . S
O307 Co299 2.135 . S
Co308 O309 2.216 . S
Co308 O310 2.091 . S
Co308 O312 2.004 . S
Co308 O318 2.021 . S
Co308 O320 2.137 . S
Co308 O321 2.244 . S
O309 Co308 2.216 . S
O309 C316 1.247 . S
O310 Co308 2.091 . S
O310 C316 1.261 . S
C311 O320 1.247 . S
C311 O321 1.272 . S
O312 Co308 2.004 . S
O312 C317 1.259 . S
Co313 O314 2.061 . S
Co313 O319 2.052 . S
Co313 O321 2.135 . S
O314 Co313 2.061 . S
O314 C317 1.235 . S
C315 O318 1.238 . S
C315 O319 1.241 . S
C316 O309 1.247 . S
C316 O310 1.261 . S
C317 O312 1.259 . S
C317 O314 1.235 . S
O318 Co308 2.021 . S
O318 C315 1.238 . S
O319 Co313 2.052 . S
O319 C315 1.241 . S
O320 Co308 2.137 . S
O320 C311 1.247 . S
O321 Co308 2.244 . S
O321 C311 1.272 . S
O321 Co313 2.135 . S
Co322 O323 2.216 . S
Co322 O324 2.091 . S
Co322 O326 2.004 . S
Co322 O332 2.021 . S
Co322 O334 2.137 . S
Co322 O335 2.244 . S
O323 Co322 2.216 . S
O323 C330 1.247 . S
O324 Co322 2.091 . S
O324 C330 1.261 . S
C325 O334 1.247 . S
C325 O335 1.272 . S
O326 Co322 2.004 . S
O326 C331 1.259 . S
Co327 O328 2.061 . S
Co327 O333 2.052 . S
Co327 O335 2.135 . S
O328 Co327 2.061 . S
O328 C331 1.235 . S
C329 O332 1.238 . S
C329 O333 1.241 . S
C330 O323 1.247 . S
C330 O324 1.261 . S
C331 O326 1.259 . S
C331 O328 1.235 . S
O332 Co322 2.021 . S
O332 C329 1.238 . S
O333 Co327 2.052 . S
O333 C329 1.241 . S
O334 Co322 2.137 . S
O334 C325 1.247 . S
O335 Co322 2.244 . S
O335 C325 1.272 . S
O335 Co327 2.135 . S
Tb336 O339 2.453 . S
Tb336 O340 2.596 . S
Tb336 O341 2.374 1_554 S
Tb336 O349 2.343 1_455 S
Tb336 O351 2.353 . S
Tb336 O353 2.427 . S
Tb336 O354 2.513 1_554 S
C337 O341 1.251 . S
C337 O343 1.263 1_545 S
Tb338 O340 2.343 1_665 S
Tb338 O343 2.353 1_654 S
Tb338 O346 2.427 1_655 S
Tb338 O347 2.513 . S
Tb338 O348 2.453 1_564 S
Tb338 O349 2.596 1_565 S
Tb338 O350 2.374 1_565 S
O339 Tb336 2.453 . S
O339 C355 1.245 . S
O340 Tb336 2.596 . S
O340 Tb338 2.343 1_445 S
O340 C355 1.259 . S
O341 Tb336 2.374 1_556 S
O341 C337 1.251 . S
C342 O346 1.275 . S
C342 O347 1.246 1_455 S
O343 C337 1.263 1_565 S
O343 Tb338 2.353 1_456 S
C344 O348 1.245 1_554 S
C344 O349 1.259 . S
C345 O350 1.250 . S
C345 O351 1.263 1_655 S
O346 Tb338 2.427 1_455 S
O346 C342 1.275 . S
O347 Tb338 2.513 . S
O347 C342 1.246 1_655 S
O348 Tb338 2.453 1_546 S
O348 C344 1.245 1_556 S
O349 Tb336 2.343 1_655 S
O349 Tb338 2.596 1_545 S
O349 C344 1.259 . S
O350 Tb338 2.374 1_545 S
O350 C345 1.250 . S
O351 Tb336 2.353 . S
O351 C345 1.263 1_455 S
C352 O353 1.275 . S
C352 O354 1.246 1_554 S
O353 Tb336 2.427 . S
O353 C352 1.275 . S
O354 Tb336 2.513 1_556 S
O354 C352 1.246 1_556 S
C355 O339 1.245 . S
C355 O340 1.259 . S
Tb356 O359 2.453 . S
Tb356 O360 2.596 . S
Tb356 O361 2.374 . S
Tb356 O369 2.343 . S
Tb356 O371 2.353 . S
Tb356 O373 2.427 . S
Tb356 O374 2.513 . S
C357 O361 1.251 . S
C357 O363 1.263 . S
Tb358 O360 2.343 . S
Tb358 O363 2.353 . S
Tb358 O366 2.427 . S
Tb358 O367 2.513 . S
Tb358 O368 2.453 . S
Tb358 O369 2.596 . S
Tb358 O370 2.374 . S
O359 Tb356 2.453 . S
O359 C375 1.245 . S
O360 Tb356 2.596 . S
O360 Tb358 2.343 . S
O360 C375 1.259 . S
O361 Tb356 2.374 . S
O361 C357 1.251 . S
C362 O366 1.275 . S
C362 O367 1.246 . S
O363 C357 1.263 . S
O363 Tb358 2.353 . S
C364 O368 1.245 . S
C364 O369 1.259 . S
C365 O370 1.250 . S
C365 O371 1.263 . S
O366 Tb358 2.427 . S
O366 C362 1.275 . S
O367 Tb358 2.513 . S
O367 C362 1.246 . S
O368 Tb358 2.453 . S
O368 C364 1.245 . S
O369 Tb356 2.343 . S
O369 Tb358 2.596 . S
O369 C364 1.259 . S
O370 Tb358 2.374 . S
O370 C365 1.250 . S
O371 Tb356 2.353 . S
O371 C365 1.263 . S
C372 O373 1.275 . S
C372 O374 1.246 . S
O373 Tb356 2.427 . S
O373 C372 1.275 . S
O374 Tb356 2.513 . S
O374 C372 1.246 . S
C375 O359 1.245 . S
C375 O360 1.259 . S
Tb376 O379 2.453 . S
Tb376 O380 2.596 . S
Tb376 O381 2.374 . S
Tb376 O389 2.343 1_545 S
Tb376 O391 2.353 . S
Tb376 O393 2.427 . S
Tb376 O394 2.513 1_545 S
C377 O381 1.251 . S
C377 O383 1.263 1_545 S
Tb378 O380 2.343 . S
Tb378 O383 2.353 1_545 S
Tb378 O386 2.427 . S
Tb378 O387 2.513 . S
Tb378 O388 2.453 1_545 S
Tb378 O389 2.596 1_545 S
Tb378 O390 2.374 . S
O379 Tb376 2.453 . S
O379 C395 1.245 . S
O380 Tb376 2.596 . S
O380 Tb378 2.343 . S
O380 C395 1.259 . S
O381 Tb376 2.374 . S
O381 C377 1.251 . S
C382 O386 1.275 . S
C382 O387 1.246 . S
O383 C377 1.263 1_565 S
O383 Tb378 2.353 1_565 S
C384 O388 1.245 . S
C384 O389 1.259 . S
C385 O390 1.250 . S
C385 O391 1.263 . S
O386 Tb378 2.427 . S
O386 C382 1.275 . S
O387 Tb378 2.513 . S
O387 C382 1.246 . S
O388 Tb378 2.453 1_565 S
O388 C384 1.245 . S
O389 Tb376 2.343 1_565 S
O389 Tb378 2.596 1_565 S
O389 C384 1.259 . S
O390 Tb378 2.374 . S
O390 C385 1.250 . S
O391 Tb376 2.353 . S
O391 C385 1.263 . S
C392 O393 1.275 1_565 S
C392 O394 1.246 . S
O393 Tb376 2.427 . S
O393 C392 1.275 1_545 S
O394 Tb376 2.513 1_565 S
O394 C392 1.246 . S
C395 O379 1.245 . S
C395 O380 1.259 . S
Tb396 O399 2.453 . S
Tb396 O400 2.596 . S
Tb396 O401 2.374 . S
Tb396 O409 2.343 . S
Tb396 O411 2.353 . S
Tb396 O413 2.427 . S
Tb396 O414 2.513 . S
C397 O401 1.251 . S
C397 O403 1.263 . S
Tb398 O400 2.343 . S
Tb398 O403 2.353 . S
Tb398 O406 2.427 . S
Tb398 O407 2.513 . S
Tb398 O408 2.453 . S
Tb398 O409 2.596 . S
Tb398 O410 2.374 . S
O399 Tb396 2.453 . S
O399 C415 1.245 . S
O400 Tb396 2.596 . S
O400 Tb398 2.343 . S
O400 C415 1.259 . S
O401 Tb396 2.374 . S
O401 C397 1.251 . S
C402 O406 1.275 . S
C402 O407 1.246 . S
O403 C397 1.263 . S
O403 Tb398 2.353 . S
C404 O408 1.245 . S
C404 O409 1.259 . S
C405 O410 1.250 . S
C405 O411 1.263 . S
O406 Tb398 2.427 . S
O406 C402 1.275 . S
O407 Tb398 2.513 . S
O407 C402 1.246 . S
O408 Tb398 2.453 . S
O408 C404 1.245 . S
O409 Tb396 2.343 . S
O409 Tb398 2.596 . S
O409 C404 1.259 . S
O410 Tb398 2.374 . S
O410 C405 1.250 . S
O411 Tb396 2.353 . S
O411 C405 1.263 . S
C412 O413 1.275 . S
C412 O414 1.246 . S
O413 Tb396 2.427 . S
O413 C412 1.275 . S
O414 Tb396 2.513 . S
O414 C412 1.246 . S
C415 O399 1.245 . S
C415 O400 1.259 . S
Tb416 O419 2.453 1_655 S
Tb416 O420 2.596 1_655 S
Tb416 O421 2.374 . S
Tb416 O429 2.343 1_665 S
Tb416 O431 2.353 1_665 S
Tb416 O433 2.427 1_665 S
Tb416 O434 2.513 1_565 S
C417 O421 1.251 1_545 S
C417 O423 1.263 . S
Tb418 O420 2.343 1_545 S
Tb418 O423 2.353 1_455 S
Tb418 O426 2.427 . S
Tb418 O427 2.513 . S
Tb418 O428 2.453 . S
Tb418 O429 2.596 . S
Tb418 O430 2.374 . S
O419 Tb416 2.453 1_455 S
O419 C435 1.245 . S
O420 Tb416 2.596 1_455 S
O420 Tb418 2.343 1_565 S
O420 C435 1.259 . S
O421 Tb416 2.374 . S
O421 C417 1.251 1_565 S
C422 O426 1.275 . S
C422 O427 1.246 . S
O423 C417 1.263 . S
O423 Tb418 2.353 1_655 S
C424 O428 1.245 . S
C424 O429 1.259 . S
C425 O430 1.250 . S
C425 O431 1.263 . S
O426 Tb418 2.427 . S
O426 C422 1.275 . S
O427 Tb418 2.513 . S
O427 C422 1.246 . S
O428 Tb418 2.453 . S
O428 C424 1.245 . S
O429 Tb416 2.343 1_445 S
O429 Tb418 2.596 . S
O429 C424 1.259 . S
O430 Tb418 2.374 . S
O430 C425 1.250 . S
O431 Tb416 2.353 1_445 S
O431 C425 1.263 . S
C432 O433 1.275 1_655 S
C432 O434 1.246 . S
O433 Tb416 2.427 1_445 S
O433 C432 1.275 1_455 S
O434 Tb416 2.513 1_545 S
O434 C432 1.246 . S
C435 O419 1.245 . S
C435 O420 1.259 . S
Tb436 O439 2.453 . S
Tb436 O440 2.596 . S
Tb436 O441 2.374 . S
Tb436 O449 2.343 . S
Tb436 O451 2.353 . S
Tb436 O453 2.427 . S
Tb436 O454 2.513 . S
C437 O441 1.251 . S
C437 O443 1.263 . S
Tb438 O440 2.343 . S
Tb438 O443 2.353 . S
Tb438 O446 2.427 . S
Tb438 O447 2.513 . S
Tb438 O448 2.453 . S
Tb438 O449 2.596 . S
Tb438 O450 2.374 . S
O439 Tb436 2.453 . S
O439 C455 1.245 . S
O440 Tb436 2.596 . S
O440 Tb438 2.343 . S
O440 C455 1.259 . S
O441 Tb436 2.374 . S
O441 C437 1.251 . S
C442 O446 1.275 . S
C442 O447 1.246 . S
O443 C437 1.263 . S
O443 Tb438 2.353 . S
C444 O448 1.245 . S
C444 O449 1.259 . S
C445 O450 1.250 . S
C445 O451 1.263 . S
O446 Tb438 2.427 . S
O446 C442 1.275 . S
O447 Tb438 2.513 . S
O447 C442 1.246 . S
O448 Tb438 2.453 . S
O448 C444 1.245 . S
O449 Tb436 2.343 . S
O449 Tb438 2.596 . S
O449 C444 1.259 . S
O450 Tb438 2.374 . S
O450 C445 1.250 . S
O451 Tb436 2.353 . S
O451 C445 1.263 . S
C452 O453 1.275 . S
C452 O454 1.246 . S
O453 Tb436 2.427 . S
O453 C452 1.275 . S
O454 Tb436 2.513 . S
O454 C452 1.246 . S
C455 O439 1.245 . S
C455 O440 1.259 . S
Tb456 O459 2.453 . S
Tb456 O460 2.596 . S
Tb456 O461 2.374 1_545 S
Tb456 O469 2.343 1_556 S
Tb456 O471 2.353 1_556 S
Tb456 O473 2.427 1_556 S
Tb456 O474 2.513 1_546 S
C457 O461 1.251 1_554 S
C457 O463 1.263 . S
Tb458 O460 2.343 1_554 S
Tb458 O463 2.353 1_545 S
Tb458 O466 2.427 . S
Tb458 O467 2.513 . S
Tb458 O468 2.453 . S
Tb458 O469 2.596 . S
Tb458 O470 2.374 . S
O459 Tb456 2.453 . S
O459 C475 1.245 . S
O460 Tb456 2.596 . S
O460 Tb458 2.343 1_556 S
O460 C475 1.259 . S
O461 Tb456 2.374 1_565 S
O461 C457 1.251 1_556 S
C462 O466 1.275 . S
C462 O467 1.246 . S
O463 C457 1.263 . S
O463 Tb458 2.353 1_565 S
C464 O468 1.245 . S
C464 O469 1.259 . S
C465 O470 1.250 . S
C465 O471 1.263 . S
O466 Tb458 2.427 . S
O466 C462 1.275 . S
O467 Tb458 2.513 . S
O467 C462 1.246 . S
O468 Tb458 2.453 . S
O468 C464 1.245 . S
O469 Tb456 2.343 1_554 S
O469 Tb458 2.596 . S
O469 C464 1.259 . S
O470 Tb458 2.374 . S
O470 C465 1.250 . S
O471 Tb456 2.353 1_554 S
O471 C465 1.263 . S
C472 O473 1.275 1_565 S
C472 O474 1.246 . S
O473 Tb456 2.427 1_554 S
O473 C472 1.275 1_545 S
O474 Tb456 2.513 1_564 S
O474 C472 1.246 . S
C475 O459 1.245 . S
C475 O460 1.259 . S
Tb476 O479 2.453 . S
Tb476 O480 2.596 . S
Tb476 O481 2.374 . S
Tb476 O489 2.343 . S
Tb476 O491 2.353 . S
Tb476 O493 2.427 . S
Tb476 O494 2.513 . S
C477 O481 1.251 . S
C477 O483 1.263 . S
Tb478 O480 2.343 . S
Tb478 O483 2.353 . S
Tb478 O486 2.427 . S
Tb478 O487 2.513 . S
Tb478 O488 2.453 . S
Tb478 O489 2.596 . S
Tb478 O490 2.374 . S
O479 Tb476 2.453 . S
O479 C495 1.245 . S
O480 Tb476 2.596 . S
O480 Tb478 2.343 . S
O480 C495 1.259 . S
O481 Tb476 2.374 . S
O481 C477 1.251 . S
C482 O486 1.275 . S
C482 O487 1.246 . S
O483 C477 1.263 . S
O483 Tb478 2.353 . S
C484 O488 1.245 . S
C484 O489 1.259 . S
C485 O490 1.250 . S
C485 O491 1.263 . S
O486 Tb478 2.427 . S
O486 C482 1.275 . S
O487 Tb478 2.513 . S
O487 C482 1.246 . S
O488 Tb478 2.453 . S
O488 C484 1.245 . S
O489 Tb476 2.343 . S
O489 Tb478 2.596 . S
O489 C484 1.259 . S
O490 Tb478 2.374 . S
O490 C485 1.250 . S
O491 Tb476 2.353 . S
O491 C485 1.263 . S
C492 O493 1.275 . S
C492 O494 1.246 . S
O493 Tb476 2.427 . S
O493 C492 1.275 . S
O494 Tb476 2.513 . S
O494 C492 1.246 . S
C495 O479 1.245 . S
C495 O480 1.259 . S
Tb496 O499 2.453 1_556 S
Tb496 O500 2.596 1_556 S
Tb496 O501 2.374 1_556 S
Tb496 O509 2.343 1_556 S
Tb496 O511 2.353 . S
Tb496 O513 2.427 . S
Tb496 O514 2.513 . S
C497 O501 1.251 . S
C497 O503 1.263 . S
Tb498 O500 2.343 . S
Tb498 O503 2.353 . S
Tb498 O506 2.427 . S
Tb498 O507 2.513 . S
Tb498 O508 2.453 . S
Tb498 O509 2.596 . S
Tb498 O510 2.374 . S
O499 Tb496 2.453 1_554 S
O499 C515 1.245 . S
O500 Tb496 2.596 1_554 S
O500 Tb498 2.343 . S
O500 C515 1.259 . S
O501 Tb496 2.374 1_554 S
O501 C497 1.251 . S
C502 O506 1.275 . S
C502 O507 1.246 . S
O503 C497 1.263 . S
O503 Tb498 2.353 . S
C504 O508 1.245 . S
C504 O509 1.259 . S
C505 O510 1.250 . S
C505 O511 1.263 1_554 S
O506 Tb498 2.427 . S
O506 C502 1.275 . S
O507 Tb498 2.513 . S
O507 C502 1.246 . S
O508 Tb498 2.453 . S
O508 C504 1.245 . S
O509 Tb496 2.343 1_554 S
O509 Tb498 2.596 . S
O509 C504 1.259 . S
O510 Tb498 2.374 . S
O510 C505 1.250 . S
O511 Tb496 2.353 . S
O511 C505 1.263 1_556 S
C512 O513 1.275 . S
C512 O514 1.246 . S
O513 Tb496 2.427 . S
O513 C512 1.275 . S
O514 Tb496 2.513 . S
O514 C512 1.246 . S
C515 O499 1.245 . S
C515 O500 1.259 . S
Tb516 O519 2.453 . S
Tb516 O520 2.596 . S
Tb516 O521 2.374 . S
Tb516 O529 2.343 . S
Tb516 O531 2.353 . S
Tb516 O533 2.427 . S
Tb516 O534 2.513 . S
C517 O521 1.251 . S
C517 O523 1.263 . S
Tb518 O520 2.343 . S
Tb518 O523 2.353 . S
Tb518 O526 2.427 . S
Tb518 O527 2.513 . S
Tb518 O528 2.453 . S
Tb518 O529 2.596 . S
Tb518 O530 2.374 . S
O519 Tb516 2.453 . S
O519 C535 1.245 . S
O520 Tb516 2.596 . S
O520 Tb518 2.343 . S
O520 C535 1.259 . S
O521 Tb516 2.374 . S
O521 C517 1.251 . S
C522 O526 1.275 . S
C522 O527 1.246 . S
O523 C517 1.263 . S
O523 Tb518 2.353 . S
C524 O528 1.245 . S
C524 O529 1.259 . S
C525 O530 1.250 . S
C525 O531 1.263 . S
O526 Tb518 2.427 . S
O526 C522 1.275 . S
O527 Tb518 2.513 . S
O527 C522 1.246 . S
O528 Tb518 2.453 . S
O528 C524 1.245 . S
O529 Tb516 2.343 . S
O529 Tb518 2.596 . S
O529 C524 1.259 . S
O530 Tb518 2.374 . S
O530 C525 1.250 . S
O531 Tb516 2.353 . S
O531 C525 1.263 . S
C532 O533 1.275 . S
C532 O534 1.246 . S
O533 Tb516 2.427 . S
O533 C532 1.275 . S
O534 Tb516 2.513 . S
O534 C532 1.246 . S
C535 O519 1.245 . S
C535 O520 1.259 . S
Tb536 O539 2.453 . S
Tb536 O540 2.596 1_655 S
Tb536 O541 2.374 . S
Tb536 O549 2.343 . S
Tb536 O551 2.353 . S
Tb536 O553 2.427 . S
Tb536 O554 2.513 . S
C537 O541 1.251 1_455 S
C537 O543 1.263 . S
Tb538 O540 2.343 . S
Tb538 O543 2.353 . S
Tb538 O546 2.427 . S
Tb538 O547 2.513 . S
Tb538 O548 2.453 . S
Tb538 O549 2.596 1_455 S
Tb538 O550 2.374 . S
O539 Tb536 2.453 . S
O539 C555 1.245 1_655 S
O540 Tb536 2.596 1_455 S
O540 Tb538 2.343 . S
O540 C555 1.259 . S
O541 Tb536 2.374 . S
O541 C537 1.251 1_655 S
C542 O546 1.275 . S
C542 O547 1.246 . S
O543 C537 1.263 . S
O543 Tb538 2.353 . S
C544 O548 1.245 1_655 S
C544 O549 1.259 . S
C545 O550 1.241 1_655 S
C545 O551 1.268 . S
O546 Tb538 2.427 . S
O546 C542 1.275 . S
O547 Tb538 2.513 . S
O547 C542 1.246 . S
O548 Tb538 2.453 . S
O548 C544 1.245 1_455 S
O549 Tb536 2.343 . S
O549 Tb538 2.596 1_655 S
O549 C544 1.259 . S
O550 Tb538 2.374 . S
O550 C545 1.241 1_455 S
O551 Tb536 2.353 . S
O551 C545 1.268 . S
C552 O553 1.275 . S
C552 O554 1.246 . S
O553 Tb536 2.427 . S
O553 C552 1.275 . S
O554 Tb536 2.513 . S
O554 C552 1.246 . S
C555 O539 1.245 1_455 S
C555 O540 1.259 . S
Tb556 O559 2.453 . S
Tb556 O560 2.596 . S
Tb556 O561 2.374 . S
Tb556 O569 2.343 . S
Tb556 O571 2.353 . S
Tb556 O573 2.427 . S
Tb556 O574 2.513 . S
C557 O561 1.251 . S
C557 O563 1.263 . S
Tb558 O560 2.343 . S
Tb558 O563 2.353 . S
Tb558 O566 2.427 . S
Tb558 O567 2.513 . S
Tb558 O568 2.453 . S
Tb558 O569 2.596 . S
Tb558 O570 2.374 . S
O559 Tb556 2.453 . S
O559 C575 1.245 . S
O560 Tb556 2.596 . S
O560 Tb558 2.343 . S
O560 C575 1.259 . S
O561 Tb556 2.374 . S
O561 C557 1.251 . S
C562 O566 1.275 . S
C562 O567 1.246 . S
O563 C557 1.263 . S
O563 Tb558 2.353 . S
C564 O568 1.245 . S
C564 O569 1.259 . S
C565 O570 1.250 . S
C565 O571 1.263 . S
O566 Tb558 2.427 . S
O566 C562 1.275 . S
O567 Tb558 2.513 . S
O567 C562 1.246 . S
O568 Tb558 2.453 . S
O568 C564 1.245 . S
O569 Tb556 2.343 . S
O569 Tb558 2.596 . S
O569 C564 1.259 . S
O570 Tb558 2.374 . S
O570 C565 1.250 . S
O571 Tb556 2.353 . S
O571 C565 1.263 . S
C572 O573 1.275 . S
C572 O574 1.246 . S
O573 Tb556 2.427 . S
O573 C572 1.275 . S
O574 Tb556 2.513 . S
O574 C572 1.246 . S
C575 O559 1.245 . S
C575 O560 1.259 . S
Tb576 O579 2.453 . S
Tb576 O580 2.596 . S
Tb576 O581 2.374 . S
Tb576 O589 2.343 . S
Tb576 O591 2.353 . S
Tb576 O593 2.427 . S
Tb576 O594 2.513 . S
C577 O581 1.251 . S
C577 O583 1.263 . S
Tb578 O580 2.343 . S
Tb578 O583 2.353 . S
Tb578 O586 2.427 . S
Tb578 O587 2.513 . S
Tb578 O588 2.453 . S
Tb578 O589 2.596 . S
Tb578 O590 2.374 . S
O579 Tb576 2.453 . S
O579 C595 1.245 . S
O580 Tb576 2.596 . S
O580 Tb578 2.343 . S
O580 C595 1.259 . S
O581 Tb576 2.374 . S
O581 C577 1.251 . S
C582 O586 1.275 . S
C582 O587 1.246 . S
O583 C577 1.263 . S
O583 Tb578 2.353 . S
C584 O588 1.245 . S
C584 O589 1.259 . S
C585 O590 1.250 . S
C585 O591 1.263 . S
O586 Tb578 2.427 . S
O586 C582 1.275 . S
O587 Tb578 2.513 . S
O587 C582 1.246 . S
O588 Tb578 2.453 . S
O588 C584 1.245 . S
O589 Tb576 2.343 . S
O589 Tb578 2.596 . S
O589 C584 1.259 . S
O590 Tb578 2.374 . S
O590 C585 1.250 . S
O591 Tb576 2.353 . S
O591 C585 1.263 . S
C592 O593 1.275 . S
C592 O594 1.246 . S
O593 Tb576 2.427 . S
O593 C592 1.275 . S
O594 Tb576 2.513 . S
O594 C592 1.246 . S
C595 O579 1.245 . S
C595 O580 1.259 . S
Tb596 O599 2.453 . S
Tb596 O600 2.596 . S
Tb596 O601 2.374 . S
Tb596 O609 2.343 . S
Tb596 O611 2.353 . S
Tb596 O613 2.427 . S
Tb596 O614 2.513 . S
C597 O601 1.251 . S
C597 O603 1.263 . S
Tb598 O600 2.343 . S
Tb598 O603 2.353 . S
Tb598 O606 2.427 . S
Tb598 O607 2.513 . S
Tb598 O608 2.453 . S
Tb598 O609 2.596 . S
Tb598 O610 2.374 . S
O599 Tb596 2.453 . S
O599 C615 1.245 . S
O600 Tb596 2.596 . S
O600 Tb598 2.343 . S
O600 C615 1.259 . S
O601 Tb596 2.374 . S
O601 C597 1.251 . S
C602 O606 1.275 . S
C602 O607 1.246 . S
O603 C597 1.263 . S
O603 Tb598 2.353 . S
C604 O608 1.245 . S
C604 O609 1.259 . S
C605 O610 1.250 . S
C605 O611 1.263 . S
O606 Tb598 2.427 . S
O606 C602 1.275 . S
O607 Tb598 2.513 . S
O607 C602 1.246 . S
O608 Tb598 2.453 . S
O608 C604 1.245 . S
O609 Tb596 2.343 . S
O609 Tb598 2.596 . S
O609 C604 1.259 . S
O610 Tb598 2.374 . S
O610 C605 1.250 . S
O611 Tb596 2.353 . S
O611 C605 1.263 . S
C612 O613 1.275 . S
C612 O614 1.246 . S
O613 Tb596 2.427 . S
O613 C612 1.275 . S
O614 Tb596 2.513 . S
O614 C612 1.246 . S
C615 O599 1.245 . S
C615 O600 1.259 . S
Tb616 O619 2.453 . S
Tb616 O620 2.596 . S
Tb616 O621 2.374 . S
Tb616 O629 2.343 . S
Tb616 O631 2.353 . S
Tb616 O633 2.427 . S
Tb616 O634 2.513 . S
C617 O621 1.251 . S
C617 O623 1.263 . S
Tb618 O620 2.343 . S
Tb618 O623 2.353 . S
Tb618 O626 2.427 . S
Tb618 O627 2.513 . S
Tb618 O628 2.453 . S
Tb618 O629 2.596 . S
Tb618 O630 2.374 . S
O619 Tb616 2.453 . S
O619 C635 1.245 . S
O620 Tb616 2.596 . S
O620 Tb618 2.343 . S
O620 C635 1.259 . S
O621 Tb616 2.374 . S
O621 C617 1.251 . S
C622 O626 1.275 . S
C622 O627 1.246 . S
O623 C617 1.263 . S
O623 Tb618 2.353 . S
C624 O628 1.245 . S
C624 O629 1.259 . S
C625 O630 1.250 . S
C625 O631 1.263 . S
O626 Tb618 2.427 . S
O626 C622 1.275 . S
O627 Tb618 2.513 . S
O627 C622 1.246 . S
O628 Tb618 2.453 . S
O628 C624 1.245 . S
O629 Tb616 2.343 . S
O629 Tb618 2.596 . S
O629 C624 1.259 . S
O630 Tb618 2.374 . S
O630 C625 1.250 . S
O631 Tb616 2.353 . S
O631 C625 1.263 . S
C632 O633 1.275 . S
C632 O634 1.246 . S
O633 Tb616 2.427 . S
O633 C632 1.275 . S
O634 Tb616 2.513 . S
O634 C632 1.246 . S
C635 O619 1.245 . S
C635 O620 1.259 . S
Tb636 O639 2.453 . S
Tb636 O640 2.583 1_455 S
Tb636 O641 2.374 . S
Tb636 O649 2.343 . S
Tb636 O651 2.353 1_554 S
Tb636 O653 2.427 1_554 S
Tb636 O654 2.513 . S
C637 O641 1.251 . S
C637 O643 1.263 1_455 S
Tb638 O640 2.350 . S
Tb638 O643 2.353 . S
Tb638 O646 2.427 . S
Tb638 O647 2.513 . S
Tb638 O648 2.453 . S
Tb638 O649 2.596 1_655 S
Tb638 O650 2.374 1_554 S
O639 Tb636 2.453 . S
O639 C655 1.245 . S
O640 Tb636 2.583 1_655 S
O640 Tb638 2.350 . S
O640 C655 1.255 1_655 S
O641 Tb636 2.374 . S
O641 C637 1.251 . S
C642 O646 1.275 . S
C642 O647 1.246 . S
O643 C637 1.263 1_655 S
O643 Tb638 2.353 . S
C644 O648 1.245 1_556 S
C644 O649 1.259 1_656 S
C645 O650 1.250 . S
C645 O651 1.263 1_655 S
O646 Tb638 2.427 . S
O646 C642 1.275 . S
O647 Tb638 2.513 . S
O647 C642 1.246 . S
O648 Tb638 2.453 . S
O648 C644 1.245 1_554 S
O649 Tb636 2.343 . S
O649 Tb638 2.596 1_455 S
O649 C644 1.259 1_454 S
O650 Tb638 2.374 1_556 S
O650 C645 1.250 . S
O651 Tb636 2.353 1_556 S
O651 C645 1.263 1_455 S
C652 O653 1.275 1_554 S
C652 O654 1.246 . S
O653 Tb636 2.427 1_556 S
O653 C652 1.275 1_556 S
O654 Tb636 2.513 . S
O654 C652 1.246 . S
C655 O639 1.245 . S
C655 O640 1.255 1_455 S
C105 C352 1.614 1_556 S
C65 C365 1.674 . S
C73 C384 1.788 . S
C415 C92 2.083 . S
C17 C435 1.826 . S
C452 C37 1.481 . S
C465 C49 1.420 . S
C8 C492 1.996 . S
C345 C231 1.567 . S
C241 C375 2.072 . S
C377 C273 1.844 1_545 S
C412 C171 0.856 . S
C227 C432 1.359 . S
C445 C245 1.903 . S
C475 C269 1.825 . S
C485 C175 1.449 . S
C355 C162 2.144 1_545 S
C289 C505 1.874 1_556 S
C535 C330 2.201 . S
C552 C317 1.451 . S
C120 C495 2.534 . S
C134 C382 1.908 . S
C331 C565 2.002 . S
C592 C303 1.939 . S
C342 C59 1.697 . S
C577 C107 1.683 . S
C91 C395 1.549 . S
C78 C564 2.124 . S
C424 C7 1.751 . S
C51 C522 1.448 . S
C457 C31 1.537 1_554 S
C602 C22 1.823 . S
C337 C143 1.712 . S
C584 C315 1.853 . S
C115 C385 2.027 . S
C287 C562 0.668 . S
C147 C422 1.101 . S
C517 C311 2.079 . S
C119 C464 1.607 . S
C283 C597 1.421 . S
C190 C344 2.092 . S
C177 C497 1.849 . S
C260 C444 2.159 . S
C247 C542 1.477 . S
C604 C274 2.457 . S
C218 C392 1.832 . S
C397 C261 1.980 . S
C362 C205 1.918 . S
C77 C632 1.614 . S
C585 C93 1.674 . S
C101 C644 1.788 1_455 S
C64 C575 2.083 . S
C45 C515 1.826 . S
C532 C9 1.482 . S
C545 C21 1.423 . S
C612 C36 1.995 . S
C625 C259 1.567 . S
C185 C595 2.072 . S
C637 C203 1.843 . S
C572 C213 0.856 . S
C512 C255 1.359 . S
C189 C525 1.903 . S
C555 C199 1.825 . S
C217 C605 1.450 . S
C635 C316 2.145 . S
C135 C425 1.875 . S
C455 C148 2.201 . S
C472 C163 1.451 . S
C615 C302 2.534 . S
C288 C642 1.906 . S
C405 C149 2.002 . S
C372 C121 1.939 . S
C87 C622 1.697 . S
C357 C79 1.683 . S
C63 C655 1.550 . S
C106 C404 2.124 . S
C35 C504 1.751 1_556 S
C442 C23 1.449 . S
C3 C537 1.537 . S
C50 C482 1.823 . S
C617 C325 1.712 . S
C161 C364 1.853 . S
C645 C297 2.027 . S
C133 C402 0.670 . S
C329 C502 1.101 . S
C437 C157 2.079 . S
C301 C544 1.607 . S
C477 C129 1.420 . S
C624 C246 2.092 . S
C417 C219 1.849 1_545 S
C232 C524 2.159 . S
C462 C191 1.477 . S
C204 C484 2.457 . S
C176 C652 1.832 . S
C557 C233 1.980 . S
C582 C275 1.918 . S
