# Generated by pormake.
# Topology ocu, (6,8)-cn, num edge types: 1
# Building blocks:
#     Node 0, Type 0, BuildingBlock: CUWYAW_clean_sbu_0, # of connection points: 6
#     Node 1, Type 0, BuildingBlock: CUWYAW_clean_sbu_0, # of connection points: 6
#     Node 2, Type 0, BuildingBlock: CUWYAW_clean_sbu_0, # of connection points: 6
#     Node 3, Type 0, BuildingBlock: CUWYAW_clean_sbu_0, # of connection points: 6
#     Node 4, Type 0, BuildingBlock: CUWYAW_clean_sbu_0, # of connection points: 6
#     Node 5, Type 0, BuildingBlock: CUWYAW_clean_sbu_0, # of connection points: 6
#     Node 6, Type 0, BuildingBlock: CUWYAW_clean_sbu_0, # of connection points: 6
#     Node 7, Type 0, BuildingBlock: CUWYAW_clean_sbu_0, # of connection points: 6
#     Node 8, Type 1, BuildingBlock: GIZVER_clean_sbu_0, # of connection points: 8
#     Node 9, Type 1, BuildingBlock: GIZVER_clean_sbu_0, # of connection points: 8
#     Node 10, Type 1, BuildingBlock: GIZVER_clean_sbu_0, # of connection points: 8
#     Node 11, Type 1, BuildingBlock: GIZVER_clean_sbu_0, # of connection points: 8
#     Node 12, Type 1, BuildingBlock: GIZVER_clean_sbu_0, # of connection points: 8
#     Node 13, Type 1, BuildingBlock: GIZVER_clean_sbu_0, # of connection points: 8
#     Edge 14, Type (0, 1), BuildingBlock: ZUJKAS_clean_linker_0, # of connection points: 2
#     Edge 15, Type (0, 1), BuildingBlock: ZUJKAS_clean_linker_0, # of connection points: 2
#     Edge 16, Type (0, 1), BuildingBlock: ZUJKAS_clean_linker_0, # of connection points: 2
#     Edge 17, Type (0, 1), BuildingBlock: ZUJKAS_clean_linker_0, # of connection points: 2
#     Edge 18, Type (0, 1), BuildingBlock: ZUJKAS_clean_linker_0, # of connection points: 2
#     Edge 19, Type (0, 1), BuildingBlock: ZUJKAS_clean_linker_0, # of connection points: 2
#     Edge 20, Type (0, 1), BuildingBlock: ZUJKAS_clean_linker_0, # of connection points: 2
#     Edge 21, Type (0, 1), BuildingBlock: ZUJKAS_clean_linker_0, # of connection points: 2
#     Edge 22, Type (0, 1), BuildingBlock: ZUJKAS_clean_linker_0, # of connection points: 2
#     Edge 23, Type (0, 1), BuildingBlock: ZUJKAS_clean_linker_0, # of connection points: 2
#     Edge 24, Type (0, 1), BuildingBlock: ZUJKAS_clean_linker_0, # of connection points: 2
#     Edge 25, Type (0, 1), BuildingBlock: ZUJKAS_clean_linker_0, # of connection points: 2
#     Edge 26, Type (0, 1), BuildingBlock: ZUJKAS_clean_linker_0, # of connection points: 2
#     Edge 27, Type (0, 1), BuildingBlock: ZUJKAS_clean_linker_0, # of connection points: 2
#     Edge 28, Type (0, 1), BuildingBlock: ZUJKAS_clean_linker_0, # of connection points: 2
#     Edge 29, Type (0, 1), BuildingBlock: ZUJKAS_clean_linker_0, # of connection points: 2
#     Edge 30, Type (0, 1), BuildingBlock: ZUJKAS_clean_linker_0, # of connection points: 2
#     Edge 31, Type (0, 1), BuildingBlock: ZUJKAS_clean_linker_0, # of connection points: 2
#     Edge 32, Type (0, 1), BuildingBlock: ZUJKAS_clean_linker_0, # of connection points: 2
#     Edge 33, Type (0, 1), BuildingBlock: ZUJKAS_clean_linker_0, # of connection points: 2
#     Edge 34, Type (0, 1), BuildingBlock: ZUJKAS_clean_linker_0, # of connection points: 2
#     Edge 35, Type (0, 1), BuildingBlock: ZUJKAS_clean_linker_0, # of connection points: 2
#     Edge 36, Type (0, 1), BuildingBlock: ZUJKAS_clean_linker_0, # of connection points: 2
#     Edge 37, Type (0, 1), BuildingBlock: ZUJKAS_clean_linker_0, # of connection points: 2
#     Edge 38, Type (0, 1), BuildingBlock: ZUJKAS_clean_linker_0, # of connection points: 2
#     Edge 39, Type (0, 1), BuildingBlock: ZUJKAS_clean_linker_0, # of connection points: 2
#     Edge 40, Type (0, 1), BuildingBlock: ZUJKAS_clean_linker_0, # of connection points: 2
#     Edge 41, Type (0, 1), BuildingBlock: ZUJKAS_clean_linker_0, # of connection points: 2
#     Edge 42, Type (0, 1), BuildingBlock: ZUJKAS_clean_linker_0, # of connection points: 2
#     Edge 43, Type (0, 1), BuildingBlock: ZUJKAS_clean_linker_0, # of connection points: 2
#     Edge 44, Type (0, 1), BuildingBlock: ZUJKAS_clean_linker_0, # of connection points: 2
#     Edge 45, Type (0, 1), BuildingBlock: ZUJKAS_clean_linker_0, # of connection points: 2
#     Edge 46, Type (0, 1), BuildingBlock: ZUJKAS_clean_linker_0, # of connection points: 2
#     Edge 47, Type (0, 1), BuildingBlock: ZUJKAS_clean_linker_0, # of connection points: 2
#     Edge 48, Type (0, 1), BuildingBlock: ZUJKAS_clean_linker_0, # of connection points: 2
#     Edge 49, Type (0, 1), BuildingBlock: ZUJKAS_clean_linker_0, # of connection points: 2
#     Edge 50, Type (0, 1), BuildingBlock: ZUJKAS_clean_linker_0, # of connection points: 2
#     Edge 51, Type (0, 1), BuildingBlock: ZUJKAS_clean_linker_0, # of connection points: 2
#     Edge 52, Type (0, 1), BuildingBlock: ZUJKAS_clean_linker_0, # of connection points: 2
#     Edge 53, Type (0, 1), BuildingBlock: ZUJKAS_clean_linker_0, # of connection points: 2
#     Edge 54, Type (0, 1), BuildingBlock: ZUJKAS_clean_linker_0, # of connection points: 2
#     Edge 55, Type (0, 1), BuildingBlock: ZUJKAS_clean_linker_0, # of connection points: 2
#     Edge 56, Type (0, 1), BuildingBlock: ZUJKAS_clean_linker_0, # of connection points: 2
#     Edge 57, Type (0, 1), BuildingBlock: ZUJKAS_clean_linker_0, # of connection points: 2
#     Edge 58, Type (0, 1), BuildingBlock: ZUJKAS_clean_linker_0, # of connection points: 2
#     Edge 59, Type (0, 1), BuildingBlock: ZUJKAS_clean_linker_0, # of connection points: 2
#     Edge 60, Type (0, 1), BuildingBlock: ZUJKAS_clean_linker_0, # of connection points: 2
#     Edge 61, Type (0, 1), BuildingBlock: ZUJKAS_clean_linker_0, # of connection points: 2
# Relax obj value: 0.156
# Max RMSD: 0.251
# Mean RMSD: 0.162
data_MOF--net-ocu--node1-CUWYAW_clean_sbu_0--node2-GIZVER_clean_sbu_0--edge1-ZUJKAS_clean_linker_0
_symmetry_space_group_name_H-M    P1
_symmetry_Int_Tables_number       1
_symmetry_cell_setting            triclinic
loop_
_symmetry_equiv_pos_as_xyz
'x, y, z'
_cell_length_a     55.746553
_cell_length_b     57.723192
_cell_length_c     39.905292
_cell_angle_alpha  84.83265
_cell_angle_beta   101.54737
_cell_angle_gamma 105.69631
loop_
_atom_site_label
_atom_site_type_symbol
_atom_site_fract_x
_atom_site_fract_y
_atom_site_fract_z
_atom_type_partial_charge
C0 C 0.30799 0.32529 0.36373 0.0
Eu1 Eu 0.29462 0.29993 0.3091 0.0
C2 C 0.29501 0.33767 0.38142 0.0
C3 C 0.30886 0.35803 0.39982 0.0
C4 C 0.29641 0.37058 0.41567 0.0
C5 C 0.26999 0.36281 0.41321 0.0
C6 C 0.25619 0.34236 0.39466 0.0
C7 C 0.26862 0.32992 0.37869 0.0
C8 C 0.32425 0.31669 0.25922 0.0
C9 C 0.24686 0.31676 0.25936 0.0
C10 C 0.26068 0.2498 0.20194 0.0
Eu11 Eu 0.27297 0.2746 0.25691 0.0
C12 C 0.27513 0.23768 0.18646 0.0
C13 C 0.2626 0.21794 0.16617 0.0
C14 C 0.2766 0.20498 0.15401 0.0
C15 C 0.30319 0.21166 0.16233 0.0
C16 C 0.31563 0.23161 0.18249 0.0
C17 C 0.30167 0.24459 0.19441 0.0
C18 C 0.24377 0.25735 0.30707 0.0
C19 C 0.31991 0.25701 0.30722 0.0
O20 O 0.29997 0.30189 0.36433 0.0
O21 O 0.31145 0.33433 0.3335 0.0
O22 O 0.33235 0.31042 0.29047 0.0
O23 O 0.30009 0.31164 0.25447 0.0
O24 O 0.26028 0.31711 0.2909 0.0
O25 O 0.24998 0.30197 0.23844 0.0
O26 O 0.26875 0.27319 0.20174 0.0
O27 O 0.25585 0.24061 0.23159 0.0
O28 O 0.23536 0.26357 0.27589 0.0
O29 O 0.26792 0.26272 0.31153 0.0
O30 O 0.30683 0.25697 0.27555 0.0
O31 O 0.31683 0.27186 0.32811 0.0
H32 H 0.32922 0.36432 0.40162 0.0
H33 H 0.30736 0.38653 0.42941 0.0
H34 H 0.23583 0.33587 0.3927 0.0
H35 H 0.25765 0.31432 0.36418 0.0
H36 H 0.24208 0.21237 0.16022 0.0
H37 H 0.26667 0.18974 0.13822 0.0
H38 H 0.33611 0.23686 0.18966 0.0
H39 H 0.31159 0.25975 0.21034 0.0
C40 C 0.81754 0.30193 0.20017 0.0
Eu41 Eu 0.79748 0.28502 0.2534 0.0
C42 C 0.81267 0.32148 0.1759 0.0
C43 C 0.80854 0.31834 0.14058 0.0
C44 C 0.80257 0.33649 0.11741 0.0
C45 C 0.80059 0.35797 0.12933 0.0
C46 C 0.80369 0.36051 0.16476 0.0
C47 C 0.80966 0.34247 0.18778 0.0
C48 C 0.75942 0.24405 0.25008 0.0
C49 C 0.75285 0.31291 0.25214 0.0
C50 C 0.74234 0.25747 0.35615 0.0
Eu51 Eu 0.77071 0.27609 0.31181 0.0
C52 C 0.74746 0.25605 0.39393 0.0
C53 C 0.74787 0.27556 0.41303 0.0
C54 C 0.74997 0.27309 0.44857 0.0
C55 C 0.75148 0.25101 0.46562 0.0
C56 C 0.75369 0.23242 0.44671 0.0
C57 C 0.75142 0.23483 0.41128 0.0
C58 C 0.81255 0.31227 0.33157 0.0
C59 C 0.81807 0.2514 0.31412 0.0
O60 O 0.82887 0.30805 0.23137 0.0
O61 O 0.79832 0.28304 0.19949 0.0
O62 O 0.78178 0.24528 0.24426 0.0
O63 O 0.75849 0.26425 0.25868 0.0
O64 O 0.77289 0.31197 0.23973 0.0
O65 O 0.74677 0.29907 0.27899 0.0
O66 O 0.75267 0.2446 0.34063 0.0
O67 O 0.74332 0.27895 0.34181 0.0
O68 O 0.79536 0.30301 0.34966 0.0
O69 O 0.80712 0.30238 0.30307 0.0
O70 O 0.79659 0.2501 0.32474 0.0
O71 O 0.82447 0.26622 0.28823 0.0
H72 H 0.81015 0.30196 0.13098 0.0
H73 H 0.80042 0.33413 0.09025 0.0
H74 H 0.8029 0.37702 0.17492 0.0
H75 H 0.81218 0.34512 0.21492 0.0
H76 H 0.74536 0.29239 0.40047 0.0
H77 H 0.74839 0.28777 0.46236 0.0
H78 H 0.75468 0.21502 0.45865 0.0
H79 H 0.75153 0.2196 0.39734 0.0
C80 C 0.80294 0.7602 0.39413 0.0
Eu81 Eu 0.78589 0.77199 0.33168 0.0
C82 C 0.81309 0.73969 0.40666 0.0
C83 C 0.80244 0.71771 0.39021 0.0
C84 C 0.81731 0.70196 0.38983 0.0
C85 C 0.84277 0.70825 0.40571 0.0
C86 C 0.85236 0.72851 0.42597 0.0
C87 C 0.83742 0.74416 0.42667 0.0
C88 C 0.74494 0.7443 0.29154 0.0
C89 C 0.81246 0.74983 0.2764 0.0
C90 C 0.75911 0.79503 0.19678 0.0
Eu91 Eu 0.77805 0.78871 0.26044 0.0
C92 C 0.75221 0.81469 0.17533 0.0
C93 C 0.76929 0.83757 0.1761 0.0
C94 C 0.76092 0.85724 0.1614 0.0
C95 C 0.73542 0.85421 0.1463 0.0
C96 C 0.71886 0.83111 0.14288 0.0
C97 C 0.72733 0.81131 0.15733 0.0
C98 C 0.81974 0.81667 0.2988 0.0
C99 C 0.75345 0.813 0.31569 0.0
O100 O 0.81689 0.77565 0.37506 0.0
O101 O 0.77874 0.75516 0.38096 0.0
O102 O 0.74467 0.7494 0.3224 0.0
O103 O 0.7665 0.75315 0.28449 0.0
O104 O 0.81274 0.75342 0.3094 0.0
O105 O 0.79779 0.75996 0.25279 0.0
O106 O 0.74508 0.78631 0.22004 0.0
O107 O 0.78337 0.79796 0.20836 0.0
O108 O 0.81851 0.81233 0.26709 0.0
O109 O 0.7986 0.80777 0.30748 0.0
O110 O 0.75332 0.80952 0.28269 0.0
O111 O 0.76686 0.80161 0.33961 0.0
H112 H 0.78372 0.71397 0.37436 0.0
H113 H 0.80977 0.68633 0.37414 0.0
H114 H 0.87206 0.73335 0.43856 0.0
H115 H 0.84591 0.76109 0.43928 0.0
H116 H 0.78865 0.84059 0.18981 0.0
H117 H 0.77391 0.87502 0.16383 0.0
H118 H 0.69903 0.82859 0.13143 0.0
H119 H 0.71405 0.79366 0.15656 0.0
C120 C 0.24528 0.83136 0.30573 0.0
Eu121 Eu 0.26853 0.8026 0.28796 0.0
C122 C 0.22343 0.82953 0.32202 0.0
C123 C 0.19877 0.82562 0.30273 0.0
C124 C 0.17881 0.82698 0.31805 0.0
C125 C 0.18334 0.83237 0.35274 0.0
C126 C 0.2077 0.83467 0.37238 0.0
C127 C 0.22756 0.83337 0.35714 0.0
C128 C 0.25195 0.77257 0.23503 0.0
C129 C 0.25433 0.75028 0.33163 0.0
C130 C 0.32519 0.74092 0.27531 0.0
Eu131 Eu 0.30046 0.76984 0.28941 0.0
C132 C 0.33659 0.73737 0.24685 0.0
C133 C 0.36062 0.73303 0.25399 0.0
C134 C 0.37072 0.72691 0.22788 0.0
C135 C 0.3568 0.72493 0.19429 0.0
C136 C 0.33326 0.73051 0.18684 0.0
C137 C 0.32325 0.73684 0.21295 0.0
C138 C 0.31692 0.80109 0.34122 0.0
C139 C 0.31288 0.82102 0.24402 0.0
O140 O 0.26472 0.82551 0.32537 0.0
O141 O 0.24081 0.82376 0.27458 0.0
O142 O 0.25113 0.79494 0.23259 0.0
O143 O 0.26055 0.76702 0.26551 0.0
O144 O 0.25027 0.77201 0.32424 0.0
O145 O 0.27274 0.74474 0.32023 0.0
O146 O 0.30049 0.73614 0.26968 0.0
O147 O 0.3362 0.76034 0.29255 0.0
O148 O 0.31735 0.77862 0.34508 0.0
O149 O 0.30846 0.80571 0.31045 0.0
O150 O 0.31346 0.79797 0.2466 0.0
O151 O 0.29847 0.82808 0.26144 0.0
H152 H 0.19505 0.82254 0.27558 0.0
H153 H 0.16017 0.82512 0.30241 0.0
H154 H 0.21198 0.83938 0.39899 0.0
H155 H 0.2464 0.83656 0.37261 0.0
H156 H 0.37115 0.73347 0.27999 0.0
H157 H 0.38878 0.7224 0.23437 0.0
H158 H 0.3223 0.72923 0.16107 0.0
H159 H 0.30475 0.74047 0.20681 0.0
C160 C 0.3372 0.81808 0.72045 0.0
Eu161 Eu 0.3059 0.79283 0.75803 0.0
C162 C 0.33527 0.82974 0.68624 0.0
C163 C 0.34844 0.82392 0.66323 0.0
C164 C 0.34886 0.83603 0.63157 0.0
C165 C 0.33625 0.85438 0.62246 0.0
C166 C 0.32157 0.85903 0.64462 0.0
C167 C 0.32102 0.84673 0.67635 0.0
C168 C 0.27154 0.75149 0.73768 0.0
C169 C 0.25409 0.81318 0.74601 0.0
C170 C 0.23898 0.74914 0.84206 0.0
Eu171 Eu 0.26941 0.77451 0.8035 0.0
C172 C 0.23869 0.72767 0.86458 0.0
C173 C 0.23351 0.72779 0.89743 0.0
C174 C 0.23067 0.70687 0.91815 0.0
C175 C 0.23274 0.6855 0.90607 0.0
C176 C 0.23979 0.68587 0.87414 0.0
C177 C 0.24293 0.70691 0.85355 0.0
C178 C 0.30275 0.81664 0.82134 0.0
C179 C 0.32078 0.75434 0.81521 0.0
O180 O 0.32973 0.82743 0.74398 0.0
O181 O 0.33022 0.79458 0.7212 0.0
O182 O 0.29518 0.7562 0.73536 0.0
O183 O 0.26677 0.76905 0.74898 0.0
O184 O 0.27732 0.81619 0.7396 0.0
O185 O 0.24531 0.79599 0.76807 0.0
O186 O 0.23572 0.74609 0.80917 0.0
O187 O 0.25665 0.76843 0.85235 0.0
O188 O 0.2788 0.81221 0.82201 0.0
O189 O 0.30817 0.79871 0.81209 0.0
O190 O 0.29653 0.74946 0.81805 0.0
O191 O 0.33043 0.77354 0.79678 0.0
H192 H 0.35931 0.81067 0.67032 0.0
H193 H 0.36078 0.83231 0.61548 0.0
H194 H 0.31171 0.87309 0.6382 0.0
H195 H 0.3103 0.85118 0.69353 0.0
H196 H 0.23054 0.74377 0.90646 0.0
H197 H 0.22483 0.70695 0.94245 0.0
H198 H 0.2414 0.66955 0.86435 0.0
H199 H 0.24756 0.70661 0.82851 0.0
C200 C 0.31333 0.24894 0.71291 0.0
Eu201 Eu 0.29971 0.27326 0.75574 0.0
C202 C 0.33036 0.23501 0.7037 0.0
C203 C 0.35587 0.24587 0.70115 0.0
C204 C 0.37037 0.23343 0.68788 0.0
C205 C 0.3599 0.2097 0.67622 0.0
C206 C 0.33445 0.19881 0.67947 0.0
C207 C 0.32004 0.2112 0.6929 0.0
C208 C 0.32887 0.31186 0.79213 0.0
C209 C 0.30528 0.25096 0.83445 0.0
C210 C 0.26174 0.31551 0.8549 0.0
Eu211 Eu 0.27512 0.29113 0.81198 0.0
C212 C 0.24567 0.33032 0.86426 0.0
C213 C 0.21923 0.32165 0.86203 0.0
C214 C 0.20523 0.33472 0.87512 0.0
C215 C 0.21716 0.35684 0.89134 0.0
C216 C 0.24362 0.36552 0.89294 0.0
C217 C 0.25751 0.35256 0.87965 0.0
C218 C 0.24645 0.25206 0.77635 0.0
C219 C 0.26836 0.31269 0.733 0.0
O220 O 0.29691 0.23897 0.73276 0.0
O221 O 0.32172 0.27226 0.71634 0.0
O222 O 0.33087 0.30828 0.76128 0.0
O223 O 0.31377 0.29394 0.80331 0.0
O224 O 0.30357 0.24747 0.80157 0.0
O225 O 0.29982 0.26966 0.84526 0.0
O226 O 0.27905 0.3252 0.83624 0.0
O227 O 0.25208 0.29246 0.85 0.0
O228 O 0.24466 0.25566 0.80731 0.0
O229 O 0.26108 0.27017 0.76473 0.0
O230 O 0.27036 0.31652 0.76583 0.0
O231 O 0.27438 0.29419 0.72252 0.0
H232 H 0.36458 0.26423 0.70879 0.0
H233 H 0.38988 0.24263 0.68671 0.0
H234 H 0.32514 0.18088 0.67053 0.0
H235 H 0.30038 0.20232 0.69376 0.0
H236 H 0.20934 0.30453 0.85066 0.0
H237 H 0.18496 0.3273 0.87252 0.0
H238 H 0.25399 0.38205 0.90555 0.0
H239 H 0.27787 0.35964 0.88247 0.0
C240 C 0.73953 0.31593 0.76412 0.0
Eu241 Eu 0.7721 0.28989 0.77384 0.0
C242 C 0.72812 0.32582 0.78766 0.0
C243 C 0.70428 0.33026 0.77661 0.0
C244 C 0.69359 0.34026 0.79865 0.0
C245 C 0.70672 0.34615 0.83204 0.0
C246 C 0.73037 0.34101 0.84328 0.0
C247 C 0.74091 0.33081 0.82132 0.0
C248 C 0.76637 0.25237 0.73213 0.0
C249 C 0.75514 0.24735 0.82979 0.0
C250 C 0.83842 0.23667 0.81494 0.0
Eu251 Eu 0.80623 0.26304 0.80144 0.0
C252 C 0.85901 0.23363 0.7997 0.0
C253 C 0.87839 0.22489 0.82011 0.0
C254 C 0.89612 0.2186 0.80504 0.0
C255 C 0.8944 0.22074 0.76931 0.0
C256 C 0.87605 0.23129 0.7493 0.0
C257 C 0.85852 0.23779 0.76445 0.0
C258 C 0.81078 0.29926 0.8443 0.0
C259 C 0.8241 0.30655 0.74627 0.0
O260 O 0.76382 0.3249 0.76569 0.0
O261 O 0.73291 0.29257 0.76242 0.0
O262 O 0.76676 0.27432 0.72138 0.0
O263 O 0.76974 0.25145 0.76448 0.0
O264 O 0.75414 0.26945 0.81881 0.0
O265 O 0.77327 0.23901 0.82301 0.0
O266 O 0.81576 0.22963 0.79661 0.0
O267 O 0.84222 0.25716 0.82901 0.0
O268 O 0.80937 0.27696 0.85393 0.0
O269 O 0.80811 0.3012 0.81192 0.0
O270 O 0.82686 0.28545 0.75992 0.0
O271 O 0.80433 0.31366 0.75013 0.0
H272 H 0.69402 0.32616 0.75086 0.0
H273 H 0.6751 0.3435 0.78945 0.0
H274 H 0.74109 0.3455 0.86867 0.0
H275 H 0.75926 0.32719 0.83045 0.0
H276 H 0.87915 0.22193 0.84747 0.0
H277 H 0.91037 0.21094 0.82111 0.0
H278 H 0.87404 0.23299 0.7217 0.0
H279 H 0.84377 0.24482 0.74837 0.0
C280 C 0.77187 0.81535 0.8641 0.0
Eu281 Eu 0.78728 0.7997 0.81523 0.0
C282 C 0.75905 0.83382 0.86921 0.0
C283 C 0.77261 0.85455 0.88734 0.0
C284 C 0.76 0.87079 0.89505 0.0
C285 C 0.73355 0.86649 0.88504 0.0
C286 C 0.72016 0.84615 0.86599 0.0
C287 C 0.73271 0.83 0.85821 0.0
C288 C 0.82056 0.82571 0.77266 0.0
C289 C 0.75378 0.80584 0.73953 0.0
C290 C 0.80379 0.7531 0.70498 0.0
Eu291 Eu 0.78832 0.76688 0.75514 0.0
C292 C 0.81369 0.73415 0.69514 0.0
C293 C 0.8105 0.7115 0.71225 0.0
C294 C 0.82175 0.69453 0.70327 0.0
C295 C 0.83638 0.7001 0.67721 0.0
C296 C 0.83943 0.72292 0.66042 0.0
C297 C 0.82814 0.73969 0.66925 0.0
C298 C 0.75403 0.74084 0.79594 0.0
C299 C 0.82142 0.76007 0.83158 0.0
O300 O 0.7582 0.79753 0.84482 0.0
O301 O 0.79542 0.82253 0.8593 0.0
O302 O 0.81561 0.83427 0.79882 0.0
O303 O 0.80737 0.80392 0.77139 0.0
O304 O 0.75723 0.80917 0.77276 0.0
O305 O 0.76499 0.792 0.72672 0.0
O306 O 0.81885 0.76703 0.72894 0.0
O307 O 0.7798 0.74768 0.70779 0.0
O308 O 0.7588 0.7328 0.76919 0.0
O309 O 0.76767 0.76251 0.79864 0.0
O310 O 0.8164 0.75541 0.79854 0.0
O311 O 0.81223 0.77588 0.84394 0.0
H312 H 0.79287 0.85789 0.89634 0.0
H313 H 0.77084 0.88624 0.90993 0.0
H314 H 0.69984 0.84253 0.85739 0.0
H315 H 0.72158 0.81425 0.84419 0.0
H316 H 0.79962 0.70708 0.73267 0.0
H317 H 0.81897 0.6771 0.71663 0.0
H318 H 0.85109 0.7281 0.64092 0.0
H319 H 0.83112 0.75726 0.65621 0.0
Co320 Co 0.06769 0.9945 0.52977 0.0
Co321 Co 0.06519 0.99746 0.58943 0.0
Co322 Co 0.03558 0.03443 0.53662 0.0
O323 O 0.06551 0.02029 0.55431 0.0
H324 H 0.08121 0.03279 0.55799 0.0
O325 O 1.00586 0.04902 0.519 0.0
Co326 Co 1.00566 0.07685 0.54156 0.0
Co327 Co 1.00738 0.07108 0.48177 0.0
H328 H 0.98982 0.03696 0.51647 0.0
O329 O 0.09481 0.99428 0.61914 0.0
O330 O 0.07548 0.9731 0.57219 0.0
O331 O 0.03238 0.98584 0.60118 0.0
O332 O 1.01121 1.01003 0.56736 0.0
O333 O 0.04953 0.05778 0.57409 0.0
O334 O 1.00369 0.10066 0.56361 0.0
O335 O 0.97249 0.06796 0.54464 0.0
O336 O 0.04077 0.08913 0.54321 0.0
O337 O 0.06019 0.05846 0.50633 0.0
O338 O 0.04059 0.08293 0.47064 0.0
O339 O 0.99767 0.09631 0.49731 0.0
O340 O 0.97857 0.07457 0.45061 0.0
C341 C 0.09464 0.9871 0.50965 0.0
C342 C 1.01755 0.98871 0.50409 0.0
C343 C 1.01191 0.99209 0.59006 0.0
C344 C 0.09309 0.97665 0.59994 0.0
C345 C 0.98032 0.08815 0.56067 0.0
C346 C 0.05501 0.08038 0.56703 0.0
C347 C 0.06048 0.07611 0.48319 0.0
C348 C 0.98028 0.0924 0.46938 0.0
O349 O 0.0718 0.97313 0.505 0.0
O350 O 0.10097 1.00565 0.52888 0.0
O351 O 1.02163 1.01139 0.49862 0.0
O352 O 0.03263 0.98006 0.52669 0.0
Co353 Co 0.54864 1.00522 0.0065 0.0
Co354 Co 0.54275 1.00819 0.06676 0.0
Co355 Co 0.51807 0.04497 0.01873 0.0
O356 O 0.54645 0.0304 0.03174 0.0
H357 H 0.56247 0.04233 0.03707 0.0
O358 O 0.49011 0.06021 1.0049 0.0
Co359 Co 0.49066 0.08699 0.02866 0.0
Co360 Co 0.49166 0.08027 0.96674 0.0
H361 H 0.47388 0.04842 1.00204 0.0
O362 O 0.57028 1.00958 0.09773 0.0
O363 O 0.55487 0.98692 0.05013 0.0
O364 O 0.51096 0.9937 0.07764 0.0
O365 O 0.49231 0.01999 0.04588 0.0
O366 O 0.5331 0.06518 0.05975 0.0
O367 O 0.48815 0.11069 0.0508 0.0
O368 O 0.45744 0.07893 0.02786 0.0
O369 O 0.5261 0.09849 0.03355 0.0
O370 O 0.54324 0.06943 0.99183 0.0
O371 O 0.5233 0.09113 0.95232 0.0
O372 O 0.48635 0.10599 0.98511 0.0
O373 O 0.46215 0.08438 0.94028 0.0
C374 C 0.57641 0.99568 0.98843 0.0
C375 C 0.49882 1.00203 0.9809 0.0
C376 C 0.49143 1.00108 0.06652 0.0
C377 C 0.57284 0.99525 0.076 0.0
C378 C 0.46452 0.09859 0.04491 0.0
C379 C 0.5394 0.08805 0.05626 0.0
C380 C 0.54343 0.08572 0.96733 0.0
C381 C 0.46656 0.10201 0.96064 0.0
O382 O 0.55311 0.98268 0.98321 0.0
O383 O 0.5825 1.01501 0.00633 0.0
O384 O 0.50363 0.02487 0.97795 0.0
O385 O 0.51346 0.99189 1.00205 0.0
Co386 Co 0.0424 0.49134 0.06782 0.0
Co387 Co 0.04236 0.49615 0.13032 0.0
Co388 Co 1.00994 0.53523 0.09093 0.0
O389 O 0.04042 0.51938 0.09306 0.0
H390 H 0.05634 0.53159 0.09564 0.0
O391 O 0.9801 0.55229 0.09097 0.0
Co392 Co 0.98017 0.58417 0.11334 0.0
Co393 Co 0.98041 0.57502 0.05395 0.0
H394 H 0.96371 0.54077 0.08814 0.0
O395 O 0.07341 0.49235 0.15634 0.0
O396 O 0.0504 0.47057 0.11159 0.0
O397 O 1.01045 0.4868 0.14806 0.0
O398 O 1.0091 0.52469 0.13981 0.0
O399 O 0.03591 0.56592 0.10601 0.0
O400 O 0.97857 0.61136 0.13459 0.0
O401 O 0.94542 0.58069 0.11931 0.0
O402 O 1.01576 0.59377 0.11304 0.0
O403 O 1.0121 0.54485 0.04193 0.0
O404 O 1.01066 0.58282 0.03393 0.0
O405 O 0.97321 0.60193 0.06759 0.0
O406 O 0.95068 0.57646 0.02566 0.0
C407 C 0.06962 0.47963 0.04765 0.0
C408 C 0.98546 0.48375 0.06451 0.0
C409 C 0.99895 0.50307 0.14867 0.0
C410 C 0.07005 0.47428 0.13713 0.0
C411 C 0.95444 0.60192 0.1334 0.0
C412 C 0.03582 0.58748 0.11145 0.0
C413 C 1.02047 0.56607 0.02998 0.0
C414 C 0.95521 0.59683 0.04037 0.0
O415 O 0.04587 0.46793 0.04377 0.0
O416 O 0.07687 0.49957 0.06471 0.0
O417 O 0.98382 0.5042 0.07343 0.0
O418 O 1.0066 0.47904 0.0645 0.0
Co419 Co 0.56959 0.49129 0.02474 0.0
Co420 Co 0.56695 0.49697 0.08438 0.0
Co421 Co 0.53808 0.53341 0.03035 0.0
O422 O 0.56773 0.51853 0.04726 0.0
H423 H 0.58363 0.53078 0.05027 0.0
O424 O 0.5086 0.54857 0.01353 0.0
Co425 Co 0.50896 0.57713 0.03496 0.0
Co426 Co 0.50924 0.56931 0.97497 0.0
H427 H 0.49247 0.53668 0.01191 0.0
O428 O 0.59658 0.494 0.11385 0.0
O429 O 0.57578 0.47114 0.06894 0.0
O430 O 0.5346 0.48687 0.09827 0.0
O431 O 0.51366 0.50964 0.06125 0.0
O432 O 0.55278 0.55669 0.06795 0.0
O433 O 0.50744 0.60154 0.05601 0.0
O434 O 0.47564 0.56958 0.03658 0.0
O435 O 0.54433 0.5883 0.03741 0.0
O436 O 0.56255 0.55714 0.99955 0.0
O437 O 0.54183 0.57988 0.96209 0.0
O438 O 0.50189 0.59616 0.98994 0.0
O439 O 0.47939 0.57308 0.94617 0.0
C440 C 0.59662 0.48119 0.00728 0.0
C441 C 0.51922 0.48742 0.99826 0.0
C442 C 0.51423 0.49296 0.0858 0.0
C443 C 0.59386 0.47533 0.09613 0.0
C444 C 0.48362 0.59015 0.05168 0.0
C445 C 0.55776 0.57943 0.06217 0.0
C446 C 0.56219 0.574 0.97527 0.0
C447 C 0.48297 0.59198 0.96377 0.0
O448 O 0.57331 0.46828 1.00216 0.0
O449 O 0.6033 0.5006 0.02498 0.0
O450 O 0.52318 0.51014 0.9929 0.0
O451 O 0.53436 0.4785 0.02046 0.0
Co452 Co 0.09707 0.49205 0.57503 0.0
Co453 Co 0.08094 0.49817 0.50958 0.0
Co454 Co 0.05102 0.52082 0.55206 0.0
O455 O 0.06586 0.49432 0.54754 0.0
H456 H 0.05327 0.47902 0.5466 0.0
O457 O 0.03629 0.54715 0.55695 0.0
Co458 Co 1.0052 0.54786 0.5296 0.0
Co459 Co 1.02047 0.54383 0.59317 0.0
H460 H 0.04872 0.56255 0.55755 0.0
O461 O 0.08546 0.47189 0.49094 0.0
O462 O 0.11153 0.49461 0.53334 0.0
O463 O 0.08822 0.52908 0.48713 0.0
O464 O 0.07499 0.54717 0.52415 0.0
O465 O 0.026 0.50972 0.50967 0.0
O466 O 0.9776 0.55133 0.50275 0.0
O467 O 1.01311 0.57965 0.52357 0.0
O468 O 0.99367 0.51401 0.53034 0.0
O469 O 0.02726 0.495 0.57971 0.0
O470 O 1.0136 0.51319 0.61633 0.0
O471 O 0.99022 0.54966 0.57076 0.0
O472 O 1.01949 0.5704 0.61307 0.0
C473 C 0.11265 0.46454 0.59403 0.0
C474 C 0.09903 0.53741 0.5953 0.0
C475 C 0.0872 0.54825 0.49921 0.0
C476 C 0.10677 0.47726 0.51248 0.0
C477 C 0.99121 0.57349 0.50324 0.0
C478 C 1.00237 0.50358 0.51054 0.0
C479 C 1.01515 0.49412 0.60451 0.0
C480 C 0.99725 0.56637 0.59345 0.0
O481 O 0.12497 0.48676 0.60033 0.0
O482 O 0.08991 0.45975 0.5755 0.0
O483 O 0.07533 0.53149 0.59481 0.0
O484 O 0.10871 0.52571 0.57868 0.0
Co485 Co 0.60995 0.99938 0.50559 0.0
Co486 Co 0.59793 1.00556 0.44298 0.0
Co487 Co 0.56184 0.03344 0.47762 0.0
O488 O 0.57758 1.00408 0.47657 0.0
H489 H 0.56448 0.98911 0.47524 0.0
O490 O 0.54602 0.063 0.47755 0.0
Co491 Co 0.50993 0.06575 0.45818 0.0
Co492 Co 0.53649 0.06637 0.5195 0.0
H493 H 0.55809 0.07783 0.47285 0.0
O494 O 0.59779 0.97935 0.41734 0.0
O495 O 0.62601 0.99271 0.46451 0.0
O496 O 0.60979 0.03891 0.42944 0.0
O497 O 0.57512 0.04933 0.4355 0.0
O498 O 0.52934 1.0154 0.44892 0.0
O499 O 0.47833 0.07058 0.43969 0.0
O500 O 0.51418 0.09963 0.44994 0.0
O501 O 0.49941 0.03122 0.46166 0.0
O502 O 0.5479 1.01626 0.51812 0.0
O503 O 0.53524 0.03873 0.55027 0.0
O504 O 0.50275 0.0686 0.50522 0.0
O505 O 0.53481 0.09577 0.53499 0.0
C506 C 0.62287 0.97066 0.53216 0.0
C507 C 0.61702 0.05135 0.51488 0.0
C508 C 0.59762 0.05476 0.42904 0.0
C509 C 0.61865 0.97821 0.43812 0.0
C510 C 0.48949 0.09352 0.43881 0.0
C511 C 0.50671 1.01348 0.45376 0.0
C512 C 0.5385 0.01876 0.54381 0.0
C513 C 0.51067 0.08785 0.52361 0.0
O514 O 0.63678 0.99274 0.53365 0.0
O515 O 0.60001 0.96639 0.51349 0.0
O516 O 0.59351 0.05136 0.50864 0.0
O517 O 0.6251 0.03466 0.50488 0.0
H518 H 0.19274 0.23571 0.28979 0.0
H519 H 0.16512 0.2047 0.32048 0.0
H520 H 0.22768 0.20448 0.40353 0.0
H521 H 0.2559 0.23513 0.37178 0.0
H522 H 0.20068 0.15986 0.39787 0.0
H523 H 0.12925 0.21054 0.39264 0.0
H524 H 0.13278 0.20588 0.35034 0.0
H525 H 0.15899 0.22406 0.37896 0.0
C526 C 0.20082 0.22932 0.31471 0.0
C527 C 0.22689 0.23858 0.32805 0.0
C528 C 0.18468 0.21144 0.33268 0.0
C529 C 0.1935 0.20211 0.36544 0.0
C530 C 0.21973 0.21108 0.37869 0.0
H531 H 0.08127 0.12388 0.49387 0.0
H532 H 0.11392 0.15261 0.46769 0.0
C533 C 0.23605 0.22891 0.36043 0.0
C534 C 0.17552 0.18307 0.38519 0.0
H535 H 0.11669 0.16888 0.40843 0.0
C536 C 0.18239 0.16206 0.4002 0.0
C537 C 0.15143 0.18533 0.38946 0.0
C538 C 0.14279 0.20777 0.37733 0.0
C539 C 0.16625 0.1437 0.41816 0.0
C540 C 0.14169 0.1455 0.42106 0.0
C541 C 0.13506 0.16669 0.40646 0.0
C542 C 0.12298 0.12652 0.43992 0.0
C543 C 0.17627 0.12286 0.4348 0.0
C544 C 0.11658 0.10139 0.43456 0.0
C545 C 0.09793 0.08453 0.45058 0.0
C546 C 0.0847 0.09205 0.4725 0.0
C547 C 0.09132 0.11702 0.47808 0.0
C548 C 0.10999 0.13373 0.46248 0.0
H549 H 0.19733 0.12771 0.44 0.0
H550 H 0.16956 0.11674 0.45928 0.0
H551 H 0.16962 0.10764 0.41725 0.0
H552 H 0.12518 0.09473 0.41674 0.0
H553 H 0.09293 0.06575 0.44431 0.0
H554 H 0.81516 0.22245 0.37326 0.0
H555 H 0.84309 0.19719 0.40086 0.0
H556 H 0.88684 0.21774 0.32032 0.0
H557 H 0.85967 0.2437 0.29353 0.0
H558 H 0.85371 0.15914 0.38606 0.0
H559 H 0.94445 0.22904 0.39698 0.0
H560 H 0.91441 0.23633 0.38383 0.0
H561 H 0.92864 0.2259 0.35328 0.0
C562 C 0.83086 0.2218 0.3615 0.0
C563 C 0.83508 0.23553 0.33112 0.0
C564 C 0.84693 0.20719 0.37739 0.0
C565 C 0.86785 0.20567 0.36354 0.0
C566 C 0.87167 0.21897 0.33271 0.0
H567 H 0.97704 0.11648 0.40693 0.0
H568 H 0.95031 0.14377 0.38298 0.0
C569 C 0.8558 0.23378 0.31704 0.0
C570 C 0.88504 0.18978 0.38069 0.0
H571 H 0.9474 0.18836 0.40652 0.0
C572 C 0.87418 0.16576 0.39074 0.0
C573 C 0.912 0.19794 0.38731 0.0
C574 C 0.92555 0.22377 0.38012 0.0
C575 C 0.88913 0.14987 0.40603 0.0
C576 C 0.916 0.15791 0.41189 0.0
C577 C 0.92691 0.1819 0.40206 0.0
C578 C 0.93302 0.14163 0.42746 0.0
C579 C 0.87594 0.12428 0.415 0.0
C580 C 0.93288 0.13129 0.4609 0.0
C581 C 0.94851 0.11581 0.47483 0.0
C582 C 0.96477 0.11014 0.45584 0.0
C583 C 0.96494 0.12051 0.42248 0.0
C584 C 0.94959 0.1362 0.40871 0.0
H585 H 0.85575 0.11929 0.4021 0.0
H586 H 0.88561 0.11148 0.40785 0.0
H587 H 0.87656 0.12225 0.44306 0.0
H588 H 0.92058 0.13512 0.47631 0.0
H589 H 0.94719 0.10758 0.50002 0.0
H590 H 0.86575 0.84048 0.28253 0.0
H591 H 0.89968 0.87056 0.31644 0.0
H592 H 0.85428 0.86293 0.39443 0.0
H593 H 0.82047 0.83289 0.36094 0.0
H594 H 0.87737 0.91282 0.37027 0.0
H595 H 0.94493 0.85571 0.41079 0.0
H596 H 0.93074 0.85627 0.36611 0.0
H597 H 0.9113 0.84313 0.39723 0.0
C598 C 0.8631 0.84519 0.30696 0.0
C599 C 0.84053 0.83438 0.31913 0.0
C600 C 0.88245 0.8623 0.32627 0.0
C601 C 0.87944 0.86884 0.35793 0.0
C602 C 0.85691 0.8581 0.37005 0.0
H603 H 0.99302 0.94291 0.52105 0.0
H604 H 0.95868 0.91486 0.48513 0.0
C605 C 0.83767 0.84092 0.35092 0.0
C606 C 0.89968 0.887 0.37849 0.0
H607 H 0.95885 0.89601 0.42731 0.0
C608 C 0.89524 0.90925 0.38273 0.0
C609 C 0.92273 0.88205 0.395 0.0
C610 C 0.92782 0.85796 0.3924 0.0
C611 C 0.91336 0.92681 0.4031 0.0
C612 C 0.93671 0.92207 0.41916 0.0
C613 C 0.94104 0.89971 0.41489 0.0
C614 C 0.95673 0.93969 0.44123 0.0
C615 C 0.90695 0.94994 0.4079 0.0
C616 C 0.96704 0.96304 0.42861 0.0
C617 C 0.98634 0.97925 0.44936 0.0
C618 C 0.99615 0.97217 0.48278 0.0
C619 C 0.98591 0.94879 0.49532 0.0
C620 C 0.96631 0.93276 0.47481 0.0
H621 H 0.88614 0.9478 0.40258 0.0
H622 H 0.91464 0.95626 0.43433 0.0
H623 H 0.91535 0.96407 0.38976 0.0
H624 H 0.9605 0.96861 0.40251 0.0
H625 H 0.9941 0.99707 0.4389 0.0
H626 H 0.15493 0.86235 0.32151 0.0
H627 H 0.13743 0.88738 0.35076 0.0
H628 H 0.1542 0.84808 0.44579 0.0
H629 H 0.17116 0.82227 0.41651 0.0
H630 H 0.10135 0.87513 0.41063 0.0
H631 H 0.20391 0.92387 0.44032 0.0
H632 H 0.19099 0.90617 0.40272 0.0
H633 H 0.19445 0.89143 0.4442 0.0
C634 C 0.15365 0.85809 0.3482 0.0
C635 C 0.16479 0.84064 0.36694 0.0
C636 C 0.14384 0.87256 0.36488 0.0
C637 C 0.14508 0.86965 0.40029 0.0
C638 C 0.15334 0.85048 0.41837 0.0
H639 H 0.13303 0.96858 0.54199 0.0
H640 H 0.14924 0.94071 0.51526 0.0
C641 C 0.16299 0.83584 0.40165 0.0
C642 C 0.14185 0.88897 0.41882 0.0
H643 H 0.17508 0.94135 0.45755 0.0
C644 C 0.11737 0.88954 0.42116 0.0
C645 C 0.16302 0.90755 0.43231 0.0
C646 C 0.18966 0.90745 0.42985 0.0
C647 C 0.11342 0.90862 0.43665 0.0
C648 C 0.13453 0.92767 0.44916 0.0
C649 C 0.15907 0.92676 0.44753 0.0
C650 C 0.13115 0.94866 0.46385 0.0
C651 C 0.08671 0.90825 0.43952 0.0
C652 C 0.11744 0.96343 0.44328 0.0
C653 C 0.10818 0.9791 0.45846 0.0
C654 C 0.11302 0.98037 0.49414 0.0
C655 C 0.12948 0.96795 0.51434 0.0
C656 C 0.1385 0.95197 0.49917 0.0
H657 H 0.07376 0.88986 0.43652 0.0
H658 H 0.08624 0.91488 0.46459 0.0
H659 H 0.07936 0.92022 0.41903 0.0
H660 H 0.11199 0.96123 0.41589 0.0
H661 H 0.09518 0.98838 0.44267 0.0
H662 H 0.20357 0.80874 0.74664 0.0
H663 H 0.17674 0.83492 0.71945 0.0
H664 H 0.24003 0.88188 0.67989 0.0
H665 H 0.26668 0.85512 0.70597 0.0
H666 H 0.17478 0.87725 0.72704 0.0
H667 H 0.19045 0.87952 0.59441 0.0
H668 H 0.20174 0.85938 0.62716 0.0
H669 H 0.21965 0.89031 0.62348 0.0
C670 C 0.21184 0.82449 0.73185 0.0
C671 C 0.23751 0.82942 0.72849 0.0
C672 C 0.19633 0.83966 0.71622 0.0
C673 C 0.20575 0.86054 0.69657 0.0
C674 C 0.23155 0.86568 0.69362 0.0
H675 H 0.13038 0.97922 0.65727 0.0
H676 H 0.15664 0.95161 0.67892 0.0
C677 C 0.24704 0.85033 0.70897 0.0
C678 C 0.18881 0.87707 0.6806 0.0
H679 H 0.16997 0.90832 0.60666 0.0
C680 C 0.1738 0.88385 0.70062 0.0
C681 C 0.18664 0.88576 0.64581 0.0
C682 C 0.20026 0.87817 0.62137 0.0
C683 C 0.1575 0.89897 0.68752 0.0
C684 C 0.15631 0.90864 0.6533 0.0
C685 C 0.17084 0.90148 0.63296 0.0
C686 C 0.1404 0.92625 0.63856 0.0
C687 C 0.14115 0.90383 0.71056 0.0
C688 C 0.12277 0.92236 0.60742 0.0
C689 C 0.10757 0.93852 0.59457 0.0
C690 C 0.10964 0.95934 0.61222 0.0
C691 C 0.12778 0.96344 0.64282 0.0
C692 C 0.14285 0.94737 0.65557 0.0
H693 H 0.13767 0.88924 0.73053 0.0
H694 H 0.15101 0.92084 0.72381 0.0
H695 H 0.12256 0.9056 0.69582 0.0
H696 H 0.12039 0.90652 0.59321 0.0
H697 H 0.0941 0.93461 0.57086 0.0
H698 H 0.21049 0.21423 0.79646 0.0
H699 H 0.18103 0.1824 0.76082 0.0
H700 H 0.21625 0.21247 0.67421 0.0
H701 H 0.24578 0.24436 0.70972 0.0
H702 H 0.1475 0.19258 0.70097 0.0
H703 H 0.21001 0.13898 0.67341 0.0
H704 H 0.21885 0.15873 0.709 0.0
H705 H 0.22082 0.17104 0.6664 0.0
C706 C 0.21215 0.21385 0.76994 0.0
C707 C 0.23028 0.23176 0.75575 0.0
C708 C 0.19536 0.19568 0.74967 0.0
C709 C 0.19664 0.19501 0.71502 0.0
C710 C 0.21524 0.21248 0.70104 0.0
H711 H 0.07381 0.12865 0.55558 0.0
H712 H 0.10939 0.15599 0.59048 0.0
C713 C 0.23198 0.23073 0.72128 0.0
C714 C 0.17704 0.17737 0.69289 0.0
H715 H 0.16771 0.12989 0.64234 0.0
C716 C 0.15188 0.17881 0.68823 0.0
C717 C 0.1829 0.15942 0.67653 0.0
C718 C 0.20957 0.15671 0.68169 0.0
C719 C 0.13234 0.16289 0.66731 0.0
C720 C 0.13822 0.14527 0.65024 0.0
C721 C 0.16335 0.14358 0.65526 0.0
C722 C 0.11831 0.12833 0.62741 0.0
C723 C 0.1055 0.16486 0.66401 0.0
C724 C 0.11221 0.1036 0.63595 0.0
C725 C 0.09195 0.08784 0.61592 0.0
C726 C 0.0775 0.09663 0.58704 0.0
C727 C 0.08435 0.12132 0.57788 0.0
C728 C 0.10464 0.137 0.59781 0.0
H729 H 0.10344 0.17522 0.68494 0.0
H730 H 0.10013 0.17434 0.63934 0.0
H731 H 0.09201 0.14675 0.66422 0.0
H732 H 0.12266 0.09659 0.65865 0.0
H733 H 0.08728 0.0689 0.62352 0.0
H734 H 0.91643 0.23659 0.71298 0.0
H735 H 0.93108 0.21215 0.6783 0.0
H736 H 0.91923 0.15319 0.75276 0.0
H737 H 0.9037 0.17693 0.78684 0.0
H738 H 0.96984 0.18504 0.69449 0.0
H739 H 0.87106 0.12766 0.66202 0.0
H740 H 0.87841 0.15681 0.68032 0.0
H741 H 0.88403 0.13128 0.70682 0.0
C742 C 0.91727 0.21853 0.72215 0.0
C743 C 0.90866 0.20859 0.75242 0.0
C744 C 0.92569 0.20468 0.70244 0.0
C745 C 0.92561 0.18083 0.71284 0.0
C746 C 0.91897 0.1715 0.74425 0.0
H747 H 0.95215 0.06674 0.60866 0.0
H748 H 0.93656 0.08856 0.64631 0.0
C749 C 0.91044 0.18524 0.76387 0.0
C750 C 0.93074 0.16514 0.68971 0.0
H751 H 0.90236 0.11695 0.63937 0.0
C752 C 0.95518 0.17012 0.68242 0.0
C753 C 0.91143 0.1457 0.67436 0.0
C754 C 0.88468 0.14005 0.68099 0.0
C755 C 0.96093 0.15601 0.66002 0.0
C756 C 0.94143 0.13692 0.64392 0.0
C757 C 0.9171 0.13169 0.6517 0.0
C758 C 0.94598 0.12269 0.61822 0.0
C759 C 0.98787 0.16155 0.65413 0.0
C760 C 0.95473 0.13442 0.58906 0.0
C761 C 0.9639 0.12221 0.56818 0.0
C762 C 0.96341 0.09788 0.57539 0.0
C763 C 0.95216 0.0854 0.60241 0.0
C764 C 0.94353 0.09786 0.62397 0.0
H765 H 1.00153 0.17149 0.67562 0.0
H766 H 0.99329 0.14484 0.65096 0.0
H767 H 0.98966 0.1731 0.6305 0.0
H768 H 0.95609 0.15343 0.58379 0.0
H769 H 0.97294 0.1322 0.54774 0.0
H770 H 0.85822 0.816 0.74236 0.0
H771 H 0.88804 0.84429 0.71013 0.0
H772 H 0.84889 0.8988 0.7131 0.0
H773 H 0.8208 0.87136 0.74733 0.0
H774 H 0.89148 0.86724 0.65478 0.0
H775 H 0.91378 0.94241 0.74121 0.0
H776 H 0.89464 0.91316 0.75145 0.0
H777 H 0.88064 0.93441 0.72368 0.0
C778 C 0.85591 0.834 0.73605 0.0
C779 C 0.8368 0.84111 0.7479 0.0
C780 C 0.87323 0.85048 0.71751 0.0
C781 C 0.87209 0.87474 0.70961 0.0
C782 C 0.8519 0.88111 0.71984 0.0
H783 H 0.96325 0.99921 0.59245 0.0
H784 H 0.92886 0.9719 0.61908 0.0
C785 C 0.8352 0.86499 0.73912 0.0
C786 C 0.8914 0.89299 0.69054 0.0
H787 H 0.92749 0.95213 0.68784 0.0
C788 C 0.89927 0.8857 0.66249 0.0
C789 C 0.90239 0.91761 0.69956 0.0
C790 C 0.89765 0.92728 0.73082 0.0
C791 C 0.91677 0.90166 0.64367 0.0
C792 C 0.92736 0.92624 0.65242 0.0
C793 C 0.91944 0.93367 0.68019 0.0
C794 C 0.94807 0.94363 0.63505 0.0
C795 C 0.9235 0.89188 0.61401 0.0
C796 C 0.97089 0.93769 0.63483 0.0
C797 C 0.99047 0.95325 0.61978 0.0
C798 C 0.98873 0.97597 0.60398 0.0
C799 C 0.96577 0.9821 0.60389 0.0
C800 C 0.94596 0.96633 0.61944 0.0
H801 H 0.90843 0.87598 0.60352 0.0
H802 H 0.9267 0.90576 0.59309 0.0
H803 H 0.94119 0.88602 0.62298 0.0
H804 H 0.97391 0.92091 0.64697 0.0
H805 H 1.00739 0.9472 0.62083 0.0
H806 H 0.34589 0.22909 0.13532 0.0
H807 H 0.37123 0.20577 0.11682 0.0
H808 H 0.31926 0.13974 0.14372 0.0
H809 H 0.29404 0.16289 0.16313 0.0
H810 H 0.39002 0.16452 0.16378 0.0
H811 H 0.32828 0.14099 0.03657 0.0
H812 H 0.3295 0.1678 0.05768 0.0
H813 H 0.31396 0.13882 0.07387 0.0
C814 C 0.33997 0.20961 0.13748 0.0
C815 C 0.31804 0.19769 0.15046 0.0
C816 C 0.35433 0.19642 0.12684 0.0
C817 C 0.34676 0.17127 0.12888 0.0
C818 C 0.325 0.15923 0.14184 0.0
H819 H 0.41674 0.0741 0.05293 0.0
H820 H 0.38664 0.08991 0.07523 0.0
C821 C 0.31065 0.17242 0.15264 0.0
C822 C 0.36197 0.15765 0.11765 0.0
H823 H 0.366 0.12846 0.04954 0.0
C824 C 0.38476 0.15635 0.13902 0.0
C825 C 0.35467 0.14719 0.0854 0.0
C826 C 0.33031 0.14872 0.06182 0.0
C827 C 0.40096 0.14498 0.12853 0.0
C828 C 0.39413 0.13525 0.09568 0.0
C829 C 0.37094 0.13596 0.07474 0.0
C830 C 0.41164 0.12578 0.08167 0.0
C831 C 0.42532 0.14377 0.15246 0.0
C832 C 0.43504 0.14108 0.07719 0.0
C833 C 0.45219 0.13213 0.06497 0.0
C834 C 0.44588 0.1079 0.05646 0.0
C835 C 0.42198 0.09282 0.05955 0.0
C836 C 0.40489 0.10176 0.07225 0.0
H837 H 0.42399 0.14523 0.17957 0.0
H838 H 0.43034 0.12673 0.14994 0.0
H839 H 0.44093 0.15904 0.1461 0.0
H840 H 0.44009 0.15988 0.08339 0.0
H841 H 0.47034 0.14423 0.06213 0.0
H842 H 0.82958 0.37344 0.08079 0.0
H843 H 0.84772 0.41539 0.06845 0.0
H844 H 0.79178 0.43471 0.11321 0.0
H845 H 0.77388 0.39211 0.12699 0.0
H846 H 0.84576 0.45998 0.04848 0.0
H847 H 0.85092 0.44937 0.19038 0.0
H848 H 0.83606 0.42395 0.16393 0.0
H849 H 0.82076 0.44783 0.16325 0.0
C850 C 0.82012 0.38635 0.08638 0.0
C851 C 0.80122 0.37967 0.10649 0.0
C852 C 0.83059 0.41058 0.07927 0.0
C853 C 0.82209 0.42826 0.09198 0.0
C854 C 0.79941 0.42133 0.10479 0.0
H855 H 0.9691 0.53128 0.15868 0.0
H856 H 0.9227 0.52211 0.14321 0.0
C857 C 0.7891 0.39698 0.11246 0.0
C858 C 0.84101 0.45138 0.10081 0.0
H859 H 0.88585 0.47319 0.17027 0.0
C860 C 0.85397 0.46378 0.07508 0.0
C861 C 0.85182 0.45638 0.13569 0.0
C862 C 0.83929 0.44374 0.16499 0.0
C863 C 0.87899 0.47778 0.08337 0.0
C864 C 0.89073 0.48004 0.11808 0.0
C865 C 0.87653 0.47106 0.1437 0.0
C866 C 0.91843 0.48596 0.12819 0.0
C867 C 0.89372 0.48735 0.0551 0.0
C868 C 0.93091 0.46817 0.12634 0.0
C869 C 0.95714 0.47306 0.13586 0.0
C870 C 0.97131 0.49602 0.14679 0.0
C871 C 0.95858 0.51344 0.15025 0.0
C872 C 0.93222 0.50839 0.14109 0.0
H873 H 0.88102 0.49013 0.03067 0.0
H874 H 0.90812 0.50453 0.062 0.0
H875 H 0.90368 0.47392 0.05104 0.0
H876 H 0.92032 0.45058 0.11696 0.0
H877 H 0.96635 0.45932 0.1327 0.0
H878 H 0.7427 0.88965 0.18954 0.0
H879 H 0.72397 0.92389 0.18007 0.0
H880 H 0.68574 0.89931 0.07948 0.0
H881 H 0.70478 0.86504 0.08852 0.0
H882 H 0.71555 0.95401 0.09137 0.0
H883 H 0.64275 0.90916 0.17111 0.0
H884 H 0.67549 0.90955 0.1869 0.0
H885 H 0.6581 0.8919 0.15091 0.0
C886 C 0.73081 0.89195 0.16508 0.0
C887 C 0.7254 0.87524 0.13934 0.0
C888 C 0.72017 0.9113 0.15989 0.0
C889 C 0.70402 0.91388 0.12908 0.0
C890 C 0.69862 0.89741 0.1032 0.0
H891 H 0.58325 0.96006 0.0451 0.0
H892 H 0.62334 0.94904 0.05541 0.0
C893 C 0.70927 0.87798 0.10837 0.0
C894 C 0.6911 0.93278 0.12461 0.0
H895 H 0.638 0.94441 0.13996 0.0
C896 C 0.6988 0.9523 0.10227 0.0
C897 C 0.66967 0.93017 0.13962 0.0
C898 C 0.66083 0.90908 0.16344 0.0
C899 C 0.68424 0.9688 0.0926 0.0
C900 C 0.66195 0.96519 0.10582 0.0
C901 C 0.65536 0.94675 0.13016 0.0
C902 C 0.64264 0.97729 0.09099 0.0
C903 C 0.69221 0.9895 0.06793 0.0
C904 C 0.64108 0.99714 0.10704 0.0
C905 C 0.61832 1.00347 0.10124 0.0
C906 C 0.59708 0.98967 0.07977 0.0
C907 C 0.59934 0.9708 0.06195 0.0
C908 C 0.62221 0.96476 0.06734 0.0
H909 H 0.70787 0.98755 0.05593 0.0
H910 H 0.67595 0.99113 0.04757 0.0
H911 H 0.69863 1.00649 0.08195 0.0
H912 H 0.65679 1.00653 0.12579 0.0
H913 H 0.61712 0.01851 0.11463 0.0
H914 H 0.25402 0.72651 0.23018 0.0
H915 H 0.22176 0.69432 0.1986 0.0
H916 H 0.17741 0.74475 0.15822 0.0
H917 H 0.21032 0.77713 0.18815 0.0
H918 H 0.17707 0.67753 0.21095 0.0
H919 H 0.16544 0.70805 0.07501 0.0
H920 H 0.19206 0.72274 0.1064 0.0
H921 H 0.16218 0.73043 0.10084 0.0
C922 C 0.23777 0.73083 0.21367 0.0
C923 C 0.23472 0.7543 0.21153 0.0
C924 C 0.21927 0.71242 0.1957 0.0
C925 C 0.19712 0.71702 0.17566 0.0
C926 C 0.19455 0.74073 0.17256 0.0
H927 H 0.04397 0.63543 0.12233 0.0
H928 H 0.08449 0.66569 0.13416 0.0
C929 C 0.21334 0.75926 0.18994 0.0
C930 C 0.17549 0.69666 0.16189 0.0
H931 H 0.12952 0.67817 0.09183 0.0
C932 C 0.16707 0.6775 0.18467 0.0
C933 C 0.16225 0.69648 0.1276 0.0
C934 C 0.17115 0.71543 0.10103 0.0
C935 C 0.14534 0.65883 0.17459 0.0
C936 C 0.13152 0.65933 0.14092 0.0
C937 C 0.14016 0.67799 0.11774 0.0
C938 C 0.10714 0.64134 0.13035 0.0
C939 C 0.13669 0.63908 0.20034 0.0
C940 C 0.10653 0.6177 0.1238 0.0
C941 C 0.08336 0.60026 0.11702 0.0
C942 C 0.06041 0.60615 0.11691 0.0
C943 C 0.0612 0.63012 0.1225 0.0
C944 C 0.08434 0.64752 0.1291 0.0
H945 H 0.14849 0.64229 0.22628 0.0
H946 H 0.11664 0.63746 0.20194 0.0
H947 H 0.13769 0.62162 0.19185 0.0
H948 H 0.124 0.61266 0.1246 0.0
H949 H 0.08352 0.58208 0.11247 0.0
H950 H 0.29237 0.85909 0.82769 0.0
H951 H 0.3228 0.89743 0.84403 0.0
H952 H 0.38444 0.86425 0.85077 0.0
H953 H 0.3541 0.82618 0.83314 0.0
H954 H 0.3535 0.90489 0.90336 0.0
H955 H 0.41152 0.9267 0.80208 0.0
H956 H 0.38157 0.90412 0.79718 0.0
H957 H 0.4102 0.89676 0.81951 0.0
C958 C 0.31245 0.86015 0.83222 0.0
C959 C 0.32103 0.83981 0.82945 0.0
C960 C 0.32977 0.88202 0.84136 0.0
C961 C 0.35586 0.88378 0.84805 0.0
C962 C 0.36442 0.8635 0.84471 0.0
H963 H 0.47687 0.95448 0.99115 0.0
H964 H 0.43967 0.92942 0.95586 0.0
C965 C 0.34711 0.84171 0.83508 0.0
C966 C 0.37397 0.90583 0.8625 0.0
H967 H 0.4317 0.94418 0.85738 0.0
C968 C 0.37029 0.91384 0.89282 0.0
C969 C 0.3957 0.91769 0.84853 0.0
C970 C 0.39982 0.911 0.81482 0.0
C971 C 0.38868 0.93229 0.91084 0.0
C972 C 0.41133 0.94264 0.89839 0.0
C973 C 0.41431 0.9359 0.86692 0.0
C974 C 0.43319 0.95832 0.91969 0.0
C975 C 0.38428 0.93995 0.94378 0.0
C976 C 0.44174 0.98276 0.91069 0.0
C977 C 0.46294 0.99721 0.93093 0.0
C978 C 0.476 0.98719 0.96001 0.0
C979 C 0.46728 0.96266 0.96881 0.0
C980 C 0.44601 0.94836 0.94882 0.0
H981 H 0.36384 0.9347 0.94545 0.0
H982 H 0.39455 0.93114 0.96575 0.0
H983 H 0.39162 0.95975 0.94618 0.0
H984 H 0.43201 0.9906 0.88811 0.0
H985 H 0.46931 1.01607 0.92353 0.0
H986 H 0.22673 0.40619 0.89962 0.0
H987 H 0.20442 0.42759 0.92759 0.0
H988 H 0.15031 0.36073 0.94512 0.0
H989 H 0.17342 0.33895 0.91938 0.0
H990 H 0.1599 0.43586 0.91546 0.0
H991 H 0.16512 0.38409 0.03878 0.0
H992 H 0.18238 0.38069 0.00668 0.0
H993 H 0.14941 0.36486 1.00384 0.0
C994 C 0.21041 0.39576 0.90996 0.0
C995 C 0.20244 0.37044 0.90721 0.0
C996 C 0.19736 0.40824 0.92581 0.0
C997 C 0.17575 0.39601 0.93959 0.0
C998 C 0.16728 0.37086 0.93597 0.0
H999 H 0.06142 0.43346 0.02877 0.0
H1000 H 0.08808 0.41533 1.0037 0.0
C1001 C 0.18043 0.35832 0.92043 0.0
C1002 C 0.16198 0.40956 0.95705 0.0
H1003 H 0.13665 0.40934 0.02895 0.0
C1004 C 0.15512 0.4301 0.94045 0.0
C1005 C 0.15558 0.40252 0.98992 0.0
C1006 C 0.16374 0.382 0.011 0.0
C1007 C 0.14158 0.44302 0.95497 0.0
C1008 C 0.13465 0.43557 0.98737 0.0
C1009 C 0.14176 0.41525 1.00415 0.0
C1010 C 0.11875 0.44754 1.00339 0.0
C1011 C 0.13404 0.46415 0.93489 0.0
C1012 C 0.1269 0.47195 0.0125 0.0
C1013 C 0.11153 0.48254 0.02745 0.0
C1014 C 0.08746 0.46908 0.03342 0.0
C1015 C 0.07964 0.44467 0.02452 0.0
C1016 C 0.09501 0.43411 0.0101 0.0
H1017 H 0.13621 0.46471 0.90773 0.0
H1018 H 0.11406 0.4635 0.93565 0.0
H1019 H 0.14626 0.4811 0.94651 0.0
H1020 H 0.14525 0.48282 0.00825 0.0
H1021 H 0.11834 0.50132 0.03382 0.0
H1022 H 0.74982 0.19972 0.84991 0.0
H1023 H 0.71562 0.1721 0.8746 0.0
H1024 H 0.68046 0.22994 0.8753 0.0
H1025 H 0.71441 0.25764 0.84969 0.0
H1026 H 0.69833 0.16968 0.93336 0.0
H1027 H 0.62143 0.18072 0.8265 0.0
H1028 H 0.65445 0.19252 0.82381 0.0
H1029 H 0.63912 0.20857 0.84586 0.0
C1030 C 0.7349 0.20672 0.85538 0.0
C1031 C 0.73503 0.23109 0.84754 0.0
C1032 C 0.71522 0.19077 0.86959 0.0
C1033 C 0.6949 0.19856 0.87639 0.0
C1034 C 0.69538 0.22309 0.86957 0.0
H1035 H 0.55404 0.13326 0.94923 0.0
H1036 H 0.59133 0.15895 0.92959 0.0
C1037 C 0.71503 0.23907 0.85516 0.0
C1038 C 0.67339 0.18102 0.89045 0.0
H1039 H 0.60882 0.15863 0.87576 0.0
C1040 C 0.67875 0.16725 0.92067 0.0
C1041 C 0.64769 0.17744 0.87403 0.0
C1042 C 0.64028 0.1904 0.84059 0.0
C1043 C 0.65934 0.15092 0.93546 0.0
C1044 C 0.63357 0.14757 0.91925 0.0
C1045 C 0.62835 0.16104 0.88865 0.0
C1046 C 0.61153 0.13132 0.93397 0.0
C1047 C 0.66676 0.13812 0.969 0.0
C1048 C 0.61 0.10687 0.94393 0.0
C1049 C 0.58853 0.09201 0.95613 0.0
C1050 C 0.56773 0.10105 0.95772 0.0
C1051 C 0.56949 0.12547 0.94806 0.0
C1052 C 0.59095 0.1403 0.93666 0.0
H1053 H 0.68577 0.14767 0.9828 0.0
H1054 H 0.65279 0.1364 0.98596 0.0
H1055 H 0.66762 0.1198 0.96393 0.0
H1056 H 0.62507 0.099 0.94145 0.0
H1057 H 0.5878 0.07329 0.96306 0.0
H1058 H 0.83547 0.72036 0.81791 0.0
H1059 H 0.85872 0.69561 0.85685 0.0
H1060 H 0.86696 0.74243 0.93903 0.0
H1061 H 0.84261 0.76682 0.90027 0.0
H1062 H 0.90425 0.70261 0.88988 0.0
H1063 H 0.84355 0.68063 0.98856 0.0
H1064 H 0.83454 0.69572 0.94835 0.0
H1065 H 0.85666 0.71237 0.98274 0.0
C1066 C 0.84214 0.72551 0.84427 0.0
C1067 C 0.83696 0.74575 0.85571 0.0
C1068 C 0.85554 0.7112 0.86671 0.0
C1069 C 0.86443 0.71659 0.90144 0.0
C1070 C 0.85979 0.73716 0.91282 0.0
H1071 H 0.95609 0.64164 0.06214 0.0
H1072 H 0.93546 0.67194 0.03044 0.0
C1073 C 0.84603 0.75136 0.8904 0.0
C1074 C 0.87897 0.70092 0.92492 0.0
H1075 H 0.88135 0.66764 1.00087 0.0
C1076 C 0.89909 0.69504 0.91411 0.0
C1077 C 0.87264 0.69083 0.95688 0.0
C1078 C 0.85053 0.69499 0.96971 0.0
C1079 C 0.91266 0.67948 0.93374 0.0
C1080 C 0.90615 0.66922 0.9654 0.0
C1081 C 0.88653 0.67552 0.97678 0.0
C1082 C 0.91837 0.65074 0.98564 0.0
C1083 C 0.93393 0.67409 0.92029 0.0
C1084 C 0.91536 0.62846 0.97159 0.0
C1085 C 0.92689 0.6111 0.9897 0.0
C1086 C 0.94198 0.61537 0.02259 0.0
C1087 C 0.94473 0.63761 0.03696 0.0
C1088 C 0.9329 0.65499 0.0188 0.0
H1089 H 0.94101 0.68795 0.9009 0.0
H1090 H 0.94999 0.67301 0.94138 0.0
H1091 H 0.92689 0.65645 0.90791 0.0
H1092 H 0.90401 0.62442 0.9464 0.0
H1093 H 0.92417 0.59434 0.9775 0.0
H1094 H 0.23596 0.35256 0.29282 0.0
H1095 H 0.20636 0.37772 0.27121 0.0
H1096 H 0.18587 0.34272 0.17499 0.0
H1097 H 0.21495 0.31752 0.19652 0.0
H1098 H 0.20259 0.41124 0.22112 0.0
H1099 H 0.11592 0.33779 0.18725 0.0
H1100 H 0.14487 0.33215 0.21154 0.0
H1101 H 0.14067 0.33627 0.16564 0.0
C1102 C 0.22503 0.34998 0.26713 0.0
C1103 C 0.22816 0.33247 0.24687 0.0
C1104 C 0.20792 0.3646 0.25456 0.0
C1105 C 0.19282 0.36228 0.22126 0.0
C1106 C 0.1962 0.34491 0.20101 0.0
H1107 H 0.07562 0.43572 0.10245 0.0
H1108 H 0.10503 0.40983 0.12093 0.0
C1109 C 0.2133 0.33041 0.21347 0.0
C1110 C 0.17438 0.37828 0.20753 0.0
H1111 H 0.11289 0.3772 0.168 0.0
C1112 C 0.18295 0.40357 0.20977 0.0
C1113 C 0.14846 0.36907 0.19188 0.0
C1114 C 0.13682 0.34234 0.18917 0.0
C1115 C 0.16715 0.41942 0.19684 0.0
C1116 C 0.14105 0.41022 0.18181 0.0
C1117 C 0.13253 0.3849 0.17928 0.0
C1118 C 0.12242 0.42633 0.16964 0.0
C1119 C 0.17927 0.44612 0.19843 0.0
C1120 C 0.12114 0.44446 0.19028 0.0
C1121 C 0.1045 0.45954 0.17942 0.0
C1122 C 0.08755 0.45714 0.14754 0.0
C1123 C 0.08817 0.43857 0.12705 0.0
C1124 C 0.10519 0.42355 0.13784 0.0
H1125 H 0.19988 0.45026 0.19803 0.0
H1126 H 0.17039 0.45626 0.17672 0.0
H1127 H 0.17728 0.45263 0.2228 0.0
H1128 H 0.1329 0.44694 0.21543 0.0
H1129 H 0.10484 0.47314 0.19662 0.0
H1130 H 0.19657 0.64829 0.87639 0.0
H1131 H 0.16702 0.61866 0.90547 0.0
H1132 H 0.21369 0.64077 1.00319 0.0
H1133 H 0.24289 0.67169 0.97385 0.0
H1134 H 0.1613 0.58235 0.94992 0.0
H1135 H 0.15302 0.66378 0.00722 0.0
H1136 H 0.17289 0.66579 0.97614 0.0
H1137 H 0.18313 0.65692 0.01997 0.0
C1138 C 0.20117 0.64619 0.904 0.0
C1139 C 0.22168 0.66249 0.923 0.0
C1140 C 0.18418 0.62925 0.92067 0.0
C1141 C 0.18769 0.62817 0.95652 0.0
C1142 C 0.21023 0.64195 0.97549 0.0
H1143 H 0.05448 0.53918 0.03533 0.0
H1144 H 0.09662 0.55219 0.02119 0.0
C1145 C 0.227 0.65938 0.95878 0.0
C1146 C 0.16576 0.61599 0.97279 0.0
H1147 H 0.12283 0.62796 0.01417 0.0
C1148 C 0.15295 0.59218 0.96431 0.0
C1149 C 0.15477 0.6291 0.99107 0.0
C1150 C 0.16648 0.65535 0.99893 0.0
C1151 C 0.12871 0.58157 0.97164 0.0
C1152 C 0.11764 0.59481 0.98952 0.0
C1153 C 0.13125 0.61799 1.00008 0.0
C1154 C 0.09148 0.58583 0.9961 0.0
C1155 C 0.11474 0.55698 0.95822 0.0
C1156 C 0.07457 0.60052 0.98716 0.0
C1157 C 0.05089 0.59364 0.99679 0.0
C1158 C 0.04347 0.57168 0.01483 0.0
C1159 C 0.05975 0.55632 0.02179 0.0
C1160 C 0.08379 0.56359 0.01328 0.0
H1161 H 0.1225 0.55277 0.9366 0.0
H1162 H 0.11689 0.54312 0.97894 0.0
H1163 H 0.09422 0.55557 0.94936 0.0
H1164 H 0.08004 0.61771 0.97365 0.0
H1165 H 0.03868 0.60579 0.99092 0.0
H1166 H 0.30116 0.20395 0.82759 0.0
H1167 H 0.3283 0.18001 0.86067 0.0
H1168 H 0.36456 0.23863 0.92847 0.0
H1169 H 0.33694 0.26267 0.89562 0.0
H1170 H 0.38157 0.20023 0.86323 0.0
H1171 H 0.3565 0.17616 0.99265 0.0
H1172 H 0.33425 0.18369 0.95653 0.0
H1173 H 0.36012 0.20691 0.97679 0.0
C1174 C 0.31436 0.21144 0.8502 0.0
C1175 C 0.31715 0.23511 0.85906 0.0
C1176 C 0.32979 0.19778 0.86904 0.0
C1177 C 0.34834 0.20762 0.89689 0.0
C1178 C 0.35004 0.23067 0.90732 0.0
H1179 H 0.47245 0.1435 0.99329 0.0
H1180 H 0.44477 0.17093 0.98148 0.0
C1181 C 0.33431 0.24434 0.88859 0.0
C1182 C 0.36808 0.1951 0.91103 0.0
H1183 H 0.38983 0.16232 0.98019 0.0
C1184 C 0.38354 0.1921 0.8889 0.0
C1185 C 0.37073 0.18493 0.94465 0.0
C1186 C 0.3545 0.1879 0.96916 0.0
C1187 C 0.40093 0.17825 0.899 0.0
C1188 C 0.40263 0.16694 0.93195 0.0
C1189 C 0.38819 0.17094 0.95484 0.0
C1190 C 0.41799 0.14953 0.94174 0.0
C1191 C 0.41693 0.17539 0.87402 0.0
C1192 C 0.41152 0.12825 0.92389 0.0
C1193 C 0.42718 0.11266 0.93043 0.0
C1194 C 0.44952 0.11806 0.9551 0.0
C1195 C 0.45543 0.13896 0.97397 0.0
C1196 C 0.43967 0.15459 0.96738 0.0
H1197 H 0.41851 0.19022 0.85414 0.0
H1198 H 0.43629 0.1749 0.88739 0.0
H1199 H 0.40797 0.15818 0.86086 0.0
H1200 H 0.39459 0.12398 0.90434 0.0
H1201 H 0.42192 0.09655 0.9158 0.0
H1202 H 0.823 0.34849 0.82981 0.0
H1203 H 0.84954 0.3808 0.86781 0.0
H1204 H 0.85845 0.32819 0.94973 0.0
H1205 H 0.83178 0.29604 0.91233 0.0
H1206 H 0.84397 0.39091 0.9431 0.0
H1207 H 0.93304 0.36846 0.93265 0.0
H1208 H 0.90476 0.3608 0.90019 0.0
H1209 H 0.90661 0.34386 0.94013 0.0
C1210 C 0.83034 0.34382 0.85604 0.0
C1211 C 0.8251 0.3195 0.86781 0.0
C1212 C 0.84558 0.36236 0.87781 0.0
C1213 C 0.85625 0.35709 0.91181 0.0
C1214 C 0.85063 0.33289 0.92371 0.0
H1215 H 0.97477 0.43466 0.07158 0.0
H1216 H 0.94224 0.40494 0.03579 0.0
C1217 C 0.83523 0.31444 0.90218 0.0
C1218 C 0.87392 0.37651 0.93463 0.0
H1219 H 0.93633 0.39789 0.97162 0.0
C1220 C 0.86419 0.39254 0.94919 0.0
C1221 C 0.90033 0.37865 0.94308 0.0
C1222 C 0.91202 0.36218 0.92816 0.0
C1223 C 0.87995 0.41012 0.97235 0.0
C1224 C 0.90651 0.41242 0.98062 0.0
C1225 C 0.91614 0.39642 0.96569 0.0
C1226 C 0.92471 0.43084 1.00489 0.0
C1227 C 0.86769 0.42538 0.98872 0.0
C1228 C 0.92588 0.45566 1.00052 0.0
C1229 C 0.94429 0.47275 0.02175 0.0
C1230 C 0.96233 0.46562 0.0477 0.0
C1231 C 0.96091 0.44083 0.05238 0.0
C1232 C 0.94237 0.42376 0.03155 0.0
H1233 H 0.84735 0.41646 0.98873 0.0
H1234 H 0.87739 0.42927 0.01552 0.0
H1235 H 0.86874 0.44272 0.9739 0.0
H1236 H 0.91323 0.46204 0.97978 0.0
H1237 H 0.94526 0.49169 0.01656 0.0
H1238 H 0.68923 0.85307 0.90948 0.0
H1239 H 0.666 0.87902 0.9265 0.0
H1240 H 0.72355 0.9418 0.90312 0.0
H1241 H 0.74668 0.9159 0.88515 0.0
H1242 H 0.68234 0.91311 0.97784 0.0
H1243 H 0.6568 0.95474 0.84902 0.0
H1244 H 0.66798 0.92782 0.85521 0.0
H1245 H 0.68998 0.95674 0.86323 0.0
C1246 C 0.69682 0.87241 0.90753 0.0
C1247 C 0.71969 0.88244 0.89563 0.0
C1248 C 0.68362 0.8872 0.91754 0.0
C1249 C 0.69292 0.91232 0.91573 0.0
C1250 C 0.71588 0.92245 0.90426 0.0
H1251 H 0.62854 1.01065 0.00572 0.0
H1252 H 0.65929 0.9929 0.98782 0.0
C1253 C 0.72917 0.90764 0.89429 0.0
C1254 C 0.6785 0.92775 0.92607 0.0
H1255 H 0.64449 0.96872 0.89511 0.0
C1256 C 0.6743 0.92548 0.95989 0.0
C1257 C 0.66771 0.94357 0.90238 0.0
C1258 C 0.67059 0.94581 0.86534 0.0
C1259 C 0.65943 0.9385 0.9706 0.0
C1260 C 0.64879 0.9544 0.94698 0.0
C1261 C 0.65312 0.95683 0.91325 0.0
C1262 C 0.63091 0.96663 0.9559 0.0
C1263 C 0.65416 0.93438 0.00659 0.0
C1264 C 0.60501 0.95826 0.94275 0.0
C1265 C 0.58756 0.96836 0.95259 0.0
C1266 C 0.59563 0.98716 0.97573 0.0
C1267 C 0.62174 0.99623 0.98785 0.0
C1268 C 0.63927 0.98598 0.97797 0.0
H1269 H 0.66272 0.92038 0.02127 0.0
H1270 H 0.66187 0.9514 0.02036 0.0
H1271 H 0.63338 0.92884 0.00592 0.0
H1272 H 0.59824 0.94345 0.9255 0.0
H1273 H 0.56762 0.96106 0.94248 0.0
H1274 H 0.85026 0.72675 0.31233 0.0
H1275 H 0.87351 0.70259 0.28954 0.0
H1276 H 0.83098 0.71068 0.1886 0.0
H1277 H 0.80886 0.73519 0.21079 0.0
H1278 H 0.86729 0.66197 0.26129 0.0
H1279 H 0.89486 0.7264 0.15671 0.0
H1280 H 0.88019 0.73406 0.18896 0.0
H1281 H 0.86111 0.71721 0.15258 0.0
C1282 C 0.84593 0.72363 0.2852 0.0
C1283 C 0.82737 0.73378 0.26392 0.0
C1284 C 0.85942 0.70951 0.27184 0.0
C1285 C 0.85528 0.7047 0.23636 0.0
C1286 C 0.83618 0.71431 0.21556 0.0
H1287 H 0.90348 0.58803 0.14536 0.0
H1288 H 0.88031 0.61133 0.16993 0.0
C1289 C 0.82297 0.72846 0.22874 0.0
C1290 C 0.87011 0.68959 0.22122 0.0
H1291 H 0.90008 0.68713 0.15352 0.0
C1292 C 0.87429 0.66775 0.23765 0.0
C1293 C 0.88034 0.69632 0.19038 0.0
C1294 C 0.87916 0.71987 0.17133 0.0
C1295 C 0.88706 0.65292 0.22435 0.0
C1296 C 0.8964 0.65925 0.19298 0.0
C1297 C 0.89286 0.68134 0.17702 0.0
C1298 C 0.91072 0.64404 0.17739 0.0
C1299 C 0.89121 0.63065 0.2448 0.0
C1300 C 0.93592 0.65378 0.17197 0.0
C1301 C 0.9494 0.64021 0.15807 0.0
C1302 C 0.93855 0.61602 0.14789 0.0
C1303 C 0.9131 0.60631 0.15262 0.0
C1304 C 0.89968 0.61985 0.16712 0.0
H1305 H 0.88711 0.63011 0.27102 0.0
H1306 H 0.87859 0.61447 0.23157 0.0
H1307 H 0.91109 0.62972 0.24677 0.0
H1308 H 0.94556 0.67211 0.17902 0.0
H1309 H 0.96872 0.64897 0.15523 0.0
H1310 H 0.34553 0.81523 0.20241 0.0
H1311 H 0.3732 0.84645 0.17093 0.0
H1312 H 0.3458 0.90094 0.20666 0.0
H1313 H 0.31851 0.87011 0.23818 0.0
H1314 H 0.36448 0.87895 0.11904 0.0
H1315 H 0.4204 0.93136 0.231 0.0
H1316 H 0.39937 0.90187 0.23551 0.0
H1317 H 0.38699 0.92797 0.22649 0.0
C1318 C 0.34537 0.83385 0.20366 0.0
C1319 C 0.32954 0.83979 0.22326 0.0
C1320 C 0.36133 0.85185 0.18552 0.0
C1321 C 0.36237 0.87655 0.18659 0.0
C1322 C 0.34626 0.88239 0.20574 0.0
H1323 H 0.45565 1.01182 0.09908 0.0
H1324 H 0.42308 0.98263 0.12631 0.0
C1325 C 0.33028 0.86447 0.22369 0.0
C1326 C 0.37966 0.89599 0.16723 0.0
H1327 H 0.42647 0.94928 0.17639 0.0
C1328 C 0.37807 0.89423 0.1318 0.0
C1329 C 0.3975 0.91642 0.18315 0.0
C1330 C 0.40141 0.91948 0.22117 0.0
C1331 C 0.39315 0.91198 0.11218 0.0
C1332 C 0.41129 0.93224 0.12815 0.0
C1333 C 0.41274 0.93411 0.16357 0.0
C1334 C 0.42974 0.95072 0.10912 0.0
C1335 C 0.3888 0.90899 0.07409 0.0
C1336 C 0.44461 0.94318 0.08978 0.0
C1337 C 0.46284 0.95986 0.07382 0.0
C1338 C 0.46737 0.98497 0.07653 0.0
C1339 C 0.4523 0.99279 0.09531 0.0
C1340 C 0.43384 0.97593 0.11143 0.0
H1341 H 0.36906 0.89865 0.06431 0.0
H1342 H 0.39249 0.92664 0.05985 0.0
H1343 H 0.40165 0.8987 0.06857 0.0
H1344 H 0.44295 0.92419 0.08808 0.0
H1345 H 0.47439 0.95295 0.06042 0.0
H1346 H 0.70956 0.24302 0.24602 0.0
H1347 H 0.67237 0.21414 0.21561 0.0
H1348 H 0.72095 0.1741 0.19053 0.0
H1349 H 0.75818 0.20276 0.22089 0.0
H1350 H 0.67802 0.19721 0.13384 0.0
H1351 H 0.64968 0.13161 0.23919 0.0
H1352 H 0.66202 0.16332 0.24734 0.0
H1353 H 0.68257 0.14651 0.23848 0.0
C1354 C 0.71226 0.22784 0.2345 0.0
C1355 C 0.73677 0.22517 0.23574 0.0
C1356 C 0.69105 0.21143 0.21711 0.0
C1357 C 0.69402 0.19208 0.20087 0.0
C1358 C 0.71835 0.18893 0.20299 0.0
H1359 H 0.57927 0.07299 0.09545 0.0
H1360 H 0.61756 0.09789 0.12981 0.0
C1361 C 0.73955 0.20528 0.22038 0.0
C1362 C 0.67191 0.17597 0.17995 0.0
H1363 H 0.62395 0.12513 0.18452 0.0
C1364 C 0.66614 0.18144 0.14481 0.0
C1365 C 0.65685 0.15528 0.19438 0.0
C1366 C 0.66293 0.1486 0.23192 0.0
C1367 C 0.64539 0.16681 0.12364 0.0
C1368 C 0.62967 0.14647 0.13823 0.0
C1369 C 0.63585 0.14078 0.17336 0.0
C1370 C 0.60644 0.13126 0.1176 0.0
C1371 C 0.64082 0.17312 0.08576 0.0
C1372 C 0.58728 0.14162 0.09979 0.0
C1373 C 0.56561 0.12754 0.07992 0.0
C1374 C 0.56234 0.10264 0.07793 0.0
C1375 C 0.58122 0.09211 0.09648 0.0
C1376 C 0.6031 0.10632 0.11611 0.0
H1377 H 0.65847 0.18403 0.07738 0.0
H1378 H 0.63333 0.1567 0.07047 0.0
H1379 H 0.62675 0.184 0.08007 0.0
H1380 H 0.58902 0.16066 0.10133 0.0
H1381 H 0.55128 0.13617 0.06631 0.0
H1382 H 0.72705 0.75315 0.842 0.0
H1383 H 0.69694 0.72563 0.87492 0.0
H1384 H 0.7108 0.66467 0.83489 0.0
H1385 H 0.74019 0.6918 0.80187 0.0
H1386 H 0.65026 0.68629 0.8483 0.0
H1387 H 0.71971 0.64843 0.94045 0.0
H1388 H 0.72883 0.67696 0.91756 0.0
H1389 H 0.72245 0.6493 0.89617 0.0
C1390 C 0.72399 0.73393 0.84049 0.0
C1391 C 0.73661 0.72505 0.81909 0.0
C1392 C 0.70649 0.71801 0.85933 0.0
C1393 C 0.70135 0.6926 0.85817 0.0
C1394 C 0.71424 0.6839 0.83712 0.0
H1395 H 0.60395 0.5631 0.95497 0.0
H1396 H 0.63723 0.59097 0.92722 0.0
C1397 C 0.73122 0.69967 0.81795 0.0
C1398 C 0.68218 0.67509 0.87763 0.0
H1399 H 0.67636 0.62941 0.94006 0.0
C1400 C 0.65614 0.67408 0.86858 0.0
C1401 C 0.68913 0.65836 0.90379 0.0
C1402 C 0.71654 0.65827 0.9154 0.0
C1403 C 0.63733 0.65707 0.8841 0.0
C1404 C 0.64428 0.64068 0.91101 0.0
C1405 C 0.67039 0.64164 0.91989 0.0
C1406 C 0.6249 0.62314 0.9304 0.0
C1407 C 0.60992 0.6563 0.87008 0.0
C1408 C 0.60705 0.6313 0.94345 0.0
C1409 C 0.58802 0.61535 0.95915 0.0
C1410 C 0.58597 0.59032 0.96362 0.0
C1411 C 0.60468 0.5821 0.95251 0.0
C1412 C 0.62378 0.59822 0.93625 0.0
H1413 H 0.60726 0.6629 0.84291 0.0
H1414 H 0.59748 0.63778 0.87169 0.0
H1415 H 0.60373 0.66826 0.88492 0.0
H1416 H 0.60753 0.65023 0.94122 0.0
H1417 H 0.57436 0.62276 0.96745 0.0
H1418 H 0.36809 0.75344 0.80479 0.0
H1419 H 0.39459 0.72672 0.83129 0.0
H1420 H 0.33877 0.69213 0.89308 0.0
H1421 H 0.31165 0.71804 0.86529 0.0
H1422 H 0.41949 0.71892 0.88979 0.0
H1423 H 0.34729 0.63286 0.86283 0.0
H1424 H 0.34176 0.66119 0.84523 0.0
H1425 H 0.33726 0.65122 0.88824 0.0
C1426 C 0.36127 0.74005 0.82387 0.0
C1427 C 0.33737 0.73802 0.83243 0.0
C1428 C 0.37663 0.72464 0.83925 0.0
C1429 C 0.36889 0.70658 0.86407 0.0
C1430 C 0.34525 0.70501 0.8733 0.0
H1431 H 0.48157 0.63372 0.99346 0.0
H1432 H 0.45471 0.66136 0.97187 0.0
C1433 C 0.32968 0.72017 0.8575 0.0
C1434 C 0.38562 0.68987 0.88028 0.0
H1435 H 0.38512 0.63058 0.9012 0.0
C1436 C 0.41181 0.69959 0.89211 0.0
C1437 C 0.37632 0.66437 0.88326 0.0
C1438 C 0.34921 0.65176 0.86889 0.0
C1439 C 0.42848 0.685 0.90659 0.0
C1440 C 0.41897 0.65961 0.91075 0.0
C1441 C 0.39282 0.6499 0.89879 0.0
C1442 C 0.43573 0.64259 0.92527 0.0
C1443 C 0.45639 0.69707 0.91605 0.0
C1444 C 0.43394 0.62193 0.90762 0.0
C1445 C 0.44903 0.60585 0.92031 0.0
C1446 C 0.46678 0.60961 0.95131 0.0
C1447 C 0.46847 0.63012 0.96938 0.0
C1448 C 0.45312 0.6462 0.95672 0.0
H1449 H 0.46157 0.71472 0.90207 0.0
H1450 H 0.46121 0.70043 0.94384 0.0
H1451 H 0.46808 0.68561 0.91041 0.0
H1452 H 0.42091 0.61823 0.8835 0.0
H1453 H 0.44681 0.5904 0.90539 0.0
H1454 H 0.36945 0.34633 0.77603 0.0
H1455 H 0.39862 0.37748 0.81291 0.0
H1456 H 0.35348 0.35436 0.89187 0.0
H1457 H 0.32559 0.32195 0.85616 0.0
H1458 H 0.39489 0.4149 0.84014 0.0
H1459 H 0.42014 0.35176 0.94602 0.0
H1460 H 0.40116 0.3414 0.90548 0.0
H1461 H 0.38698 0.35029 0.93738 0.0
C1462 C 0.36583 0.34789 0.80131 0.0
C1463 C 0.34532 0.33175 0.81331 0.0
C1464 C 0.38244 0.36574 0.82233 0.0
C1465 C 0.3786 0.368 0.85551 0.0
C1466 C 0.35736 0.35254 0.86686 0.0
H1467 H 0.47281 0.49496 0.97063 0.0
H1468 H 0.43655 0.46673 0.93756 0.0
C1469 C 0.34118 0.33426 0.84621 0.0
C1470 C 0.39715 0.38625 0.87819 0.0
H1471 H 0.43644 0.39325 0.9561 0.0
C1472 C 0.40403 0.41016 0.86549 0.0
C1473 C 0.40921 0.38004 0.9112 0.0
C1474 C 0.4042 0.35444 0.92569 0.0
C1475 C 0.42307 0.42786 0.88439 0.0
C1476 C 0.4348 0.42172 0.91761 0.0
C1477 C 0.42737 0.39799 0.9307 0.0
C1478 C 0.45621 0.43896 0.93829 0.0
C1479 C 0.43115 0.45259 0.8678 0.0
C1480 C 0.47896 0.43244 0.95087 0.0
C1481 C 0.49929 0.44818 0.97056 0.0
C1482 C 0.49747 0.47097 0.97759 0.0
C1483 C 0.47477 0.4776 0.96508 0.0
C1484 C 0.45413 0.46155 0.94602 0.0
H1485 H 0.42545 0.45229 0.83949 0.0
H1486 H 0.42189 0.46489 0.8771 0.0
H1487 H 0.45201 0.46007 0.87424 0.0
H1488 H 0.48108 0.41515 0.94528 0.0
H1489 H 0.51661 0.44264 0.97982 0.0
H1490 H 0.68212 0.38158 0.81335 0.0
H1491 H 0.66623 0.40321 0.85015 0.0
H1492 H 0.6929 0.36189 0.93823 0.0
H1493 H 0.70821 0.33939 0.90144 0.0
H1494 H 0.63072 0.37772 0.90275 0.0
H1495 H 0.72443 0.43932 0.95429 0.0
H1496 H 0.71858 0.42599 0.91318 0.0
H1497 H 0.72144 0.40759 0.95163 0.0
C1498 C 0.68427 0.37673 0.84043 0.0
C1499 C 0.69639 0.35869 0.85442 0.0
C1500 C 0.67537 0.38927 0.86141 0.0
C1501 C 0.67865 0.38418 0.89674 0.0
C1502 C 0.69049 0.36612 0.91096 0.0
H1503 H 0.63677 0.46535 0.04206 0.0
H1504 H 0.65856 0.44059 0.01827 0.0
C1505 C 0.69927 0.3534 0.88993 0.0
C1506 C 0.66939 0.39788 0.91841 0.0
H1507 H 0.68823 0.44697 0.9681 0.0
C1508 C 0.64325 0.39269 0.91741 0.0
C1509 C 0.68595 0.41713 0.93768 0.0
C1510 C 0.71421 0.42304 0.93943 0.0
C1511 C 0.63305 0.40682 0.93446 0.0
C1512 C 0.64947 0.4271 0.95196 0.0
C1513 C 0.67575 0.43158 0.95432 0.0
C1514 C 0.63939 0.44454 0.96604 0.0
C1515 C 0.60477 0.39998 0.93326 0.0
C1516 C 0.62261 0.45593 0.94426 0.0
C1517 C 0.61013 0.4697 0.95778 0.0
C1518 C 0.61485 0.4729 0.99308 0.0
C1519 C 0.63322 0.46329 0.01465 0.0
C1520 C 0.64545 0.44907 1.00115 0.0
H1521 H 0.59642 0.38044 0.92916 0.0
H1522 H 0.60007 0.40447 0.95724 0.0
H1523 H 0.59571 0.40998 0.91154 0.0
H1524 H 0.61824 0.45319 0.91698 0.0
H1525 H 0.59581 0.47685 0.94086 0.0
H1526 H 0.7576 0.34265 0.19408 0.0
H1527 H 0.73106 0.36893 0.16611 0.0
H1528 H 0.68397 0.34725 0.24275 0.0
H1529 H 0.71033 0.32063 0.27057 0.0
H1530 H 0.65441 0.34928 0.18168 0.0
H1531 H 0.73063 0.43399 0.19197 0.0
H1532 H 0.7374 0.41174 0.16935 0.0
H1533 H 0.73515 0.40638 0.21392 0.0
C1534 C 0.74176 0.34354 0.20528 0.0
C1535 C 0.73655 0.32946 0.23506 0.0
C1536 C 0.7265 0.35882 0.1892 0.0
C1537 C 0.70546 0.36079 0.20236 0.0
C1538 C 0.7 0.34644 0.23183 0.0
H1539 H 0.63105 0.47872 0.15357 0.0
H1540 H 0.65654 0.4508 0.1772 0.0
C1541 C 0.71527 0.33115 0.24792 0.0
C1542 C 0.68909 0.37743 0.18539 0.0
H1543 H 0.69127 0.43593 0.15728 0.0
C1544 C 0.66258 0.36823 0.17641 0.0
C1545 C 0.69925 0.40241 0.1786 0.0
C1546 C 0.72711 0.41431 0.18925 0.0
C1547 C 0.64632 0.38292 0.16089 0.0
C1548 C 0.65657 0.40777 0.15322 0.0
C1549 C 0.68306 0.41697 0.16247 0.0
C1550 C 0.6403 0.42485 0.13763 0.0
C1551 C 0.61812 0.37169 0.15392 0.0
C1552 C 0.62239 0.42027 0.1068 0.0
C1553 C 0.6074 0.43642 0.09309 0.0
C1554 C 0.60996 0.45786 0.10951 0.0
C1555 C 0.62821 0.46253 0.13993 0.0
C1556 C 0.64302 0.44643 0.15361 0.0
H1557 H 0.61288 0.35486 0.1697 0.0
H1558 H 0.60754 0.38432 0.15915 0.0
H1559 H 0.61199 0.36702 0.12661 0.0
H1560 H 0.6201 0.40427 0.09303 0.0
H1561 H 0.59384 0.43212 0.06953 0.0
H1562 H 0.69982 0.71587 0.30612 0.0
H1563 H 0.6677 0.68648 0.26872 0.0
H1564 H 0.71213 0.70644 0.18872 0.0
H1565 H 0.74433 0.73511 0.22601 0.0
H1566 H 0.63867 0.69198 0.20631 0.0
H1567 H 0.70133 0.63426 0.19533 0.0
H1568 H 0.71007 0.65736 0.22639 0.0
H1569 H 0.71395 0.66507 0.18271 0.0
C1570 C 0.70264 0.71391 0.28056 0.0
C1571 C 0.72462 0.72756 0.26907 0.0
C1572 C 0.68436 0.69715 0.25925 0.0
C1573 C 0.68782 0.69386 0.22621 0.0
C1574 C 0.70939 0.70813 0.21442 0.0
H1575 H 0.57448 0.62845 0.05582 0.0
H1576 H 0.60592 0.65561 0.0962 0.0
C1577 C 0.72768 0.72466 0.2357 0.0
C1578 C 0.6688 0.67583 0.20372 0.0
H1579 H 0.66206 0.6276 0.15567 0.0
C1580 C 0.64372 0.67778 0.19545 0.0
C1581 C 0.67534 0.65711 0.18987 0.0
C1582 C 0.70158 0.65314 0.19929 0.0
C1583 C 0.62517 0.66192 0.17304 0.0
C1584 C 0.63201 0.64393 0.15796 0.0
C1585 C 0.65692 0.64158 0.16692 0.0
C1586 C 0.61358 0.62735 0.13288 0.0
C1587 C 0.59835 0.66444 0.16605 0.0
C1588 C 0.60818 0.60234 0.13941 0.0
C1589 C 0.59039 0.58669 0.11617 0.0
C1590 C 0.57769 0.59579 0.08592 0.0
C1591 C 0.58369 0.62083 0.07904 0.0
C1592 C 0.60154 0.63642 0.10221 0.0
H1593 H 0.59476 0.67414 0.18659 0.0
H1594 H 0.59513 0.67493 0.14164 0.0
H1595 H 0.5844 0.64655 0.16369 0.0
H1596 H 0.61744 0.59493 0.16279 0.0
H1597 H 0.58632 0.56751 0.12219 0.0
H1598 H 0.40431 0.73592 0.1794 0.0
H1599 H 0.42059 0.71174 0.1465 0.0
H1600 H 0.34547 0.66479 0.11963 0.0
H1601 H 0.32908 0.68884 0.15241 0.0
H1602 H 0.41474 0.66262 0.16816 0.0
H1603 H 0.37446 0.67316 0.02995 0.0
H1604 H 0.37654 0.69502 0.06081 0.0
H1605 H 0.35244 0.66708 0.059 0.0
C1606 C 0.3912 0.72083 0.16566 0.0
C1607 C 0.36552 0.71413 0.16848 0.0
C1608 C 0.40046 0.70713 0.14688 0.0
C1609 C 0.38413 0.68663 0.13066 0.0
C1610 C 0.3582 0.68083 0.1315 0.0
H1611 H 0.43214 0.57281 0.04891 0.0
H1612 H 0.40406 0.5936 0.06742 0.0
C1613 C 0.3489 0.69458 0.1502 0.0
C1614 C 0.39489 0.66945 0.11762 0.0
H1615 H 0.39829 0.64426 0.04524 0.0
C1616 C 0.41104 0.65849 0.14132 0.0
C1617 C 0.38957 0.6639 0.08273 0.0
C1618 C 0.37244 0.67549 0.0565 0.0
C1619 C 0.42277 0.64263 0.13083 0.0
C1620 C 0.41832 0.63784 0.09575 0.0
C1621 C 0.40136 0.64796 0.07216 0.0
C1622 C 0.4341 0.6254 0.08288 0.0
C1623 C 0.44051 0.63173 0.15718 0.0
C1624 C 0.45985 0.63676 0.08506 0.0
C1625 C 0.47572 0.62507 0.07499 0.0
C1626 C 0.46609 0.60181 0.06218 0.0
C1627 C 0.44005 0.59062 0.05903 0.0
C1628 C 0.42405 0.60244 0.06938 0.0
H1629 H 0.43637 0.6316 0.18331 0.0
H1630 H 0.43926 0.61301 0.15099 0.0
H1631 H 0.46029 0.6426 0.15741 0.0
H1632 H 0.46774 0.65466 0.09499 0.0
H1633 H 0.49562 0.63441 0.07732 0.0
H1634 H 0.3136 0.33718 0.19274 0.0
H1635 H 0.34277 0.36675 0.1609 0.0
H1636 H 0.40345 0.36893 0.24735 0.0
H1637 H 0.37497 0.33894 0.27814 0.0
H1638 H 0.36978 0.41162 0.16467 0.0
H1639 H 0.44201 0.36074 0.17993 0.0
H1640 H 0.41169 0.34771 0.19224 0.0
H1641 H 0.43712 0.36676 0.22091 0.0
C1642 C 0.33324 0.34371 0.20485 0.0
C1643 C 0.34162 0.33498 0.23824 0.0
C1644 C 0.35012 0.3609 0.18652 0.0
C1645 C 0.37615 0.37018 0.20069 0.0
C1646 C 0.38413 0.36186 0.23443 0.0
H1647 H 0.5137 0.47348 0.15076 0.0
H1648 H 0.47994 0.44546 0.17515 0.0
C1649 C 0.36747 0.34458 0.25246 0.0
C1650 C 0.39479 0.38854 0.18098 0.0
H1651 H 0.45505 0.40204 0.16231 0.0
C1652 C 0.38831 0.40925 0.16403 0.0
C1653 C 0.41935 0.38615 0.17921 0.0
C1654 C 0.42785 0.36402 0.19372 0.0
C1655 C 0.40547 0.42748 0.14725 0.0
C1656 C 0.43026 0.42537 0.14639 0.0
C1657 C 0.43647 0.40441 0.16272 0.0
C1658 C 0.45053 0.4447 0.13049 0.0
C1659 C 0.397 0.44937 0.13164 0.0
C1660 C 0.44623 0.45487 0.09667 0.0
C1661 C 0.46602 0.47161 0.08234 0.0
C1662 C 0.49105 0.47875 0.10114 0.0
C1663 C 0.49497 0.46887 0.13502 0.0
C1664 C 0.4754 0.45243 0.1492 0.0
H1665 H 0.38097 0.45173 0.14246 0.0
H1666 H 0.41278 0.46596 0.13575 0.0
H1667 H 0.39047 0.4472 0.10368 0.0
H1668 H 0.42773 0.44924 0.08065 0.0
H1669 H 0.46195 0.47804 0.05602 0.0
H1670 H 0.86041 0.66989 0.71996 0.0
H1671 H 0.88525 0.64468 0.70445 0.0
H1672 H 0.86686 0.6665 0.59832 0.0
H1673 H 0.84143 0.69109 0.61325 0.0
H1674 H 0.8707 0.6063 0.65159 0.0
H1675 H 0.94709 0.68728 0.62775 0.0
H1676 H 0.92371 0.6879 0.65289 0.0
H1677 H 0.91545 0.68781 0.60704 0.0
C1678 C 0.86118 0.66892 0.69324 0.0
C1679 C 0.84918 0.68275 0.66789 0.0
C1680 C 0.87548 0.65462 0.68448 0.0
C1681 C 0.87807 0.65406 0.65034 0.0
C1682 C 0.86529 0.66699 0.62486 0.0
H1683 H 0.9485 0.56298 0.55916 0.0
H1684 H 0.91839 0.58354 0.57204 0.0
C1685 C 0.85089 0.68111 0.63351 0.0
C1686 C 0.89513 0.64097 0.64135 0.0
H1687 H 0.95094 0.64986 0.61327 0.0
C1688 C 0.88826 0.61573 0.64322 0.0
C1689 C 0.91808 0.65346 0.63078 0.0
C1690 C 0.92674 0.68062 0.62968 0.0
C1691 C 0.90377 0.60256 0.63442 0.0
C1692 C 0.92648 0.61507 0.62312 0.0
C1693 C 0.93336 0.64033 0.62156 0.0
C1694 C 0.94427 0.60246 0.61483 0.0
C1695 C 0.89606 0.57544 0.63804 0.0
C1696 C 0.96891 0.60683 0.63399 0.0
C1697 C 0.98612 0.59538 0.62655 0.0
C1698 C 0.97907 0.57926 0.59973 0.0
C1699 C 0.95445 0.57517 0.58012 0.0
C1700 C 0.93719 0.58675 0.58759 0.0
H1701 H 0.88118 0.56894 0.654 0.0
H1702 H 0.88839 0.56787 0.61232 0.0
H1703 H 0.91264 0.56837 0.64963 0.0
H1704 H 0.97478 0.619 0.65499 0.0
H1705 H 1.00491 0.59902 0.64218 0.0
H1706 H 0.34084 0.84496 0.55818 0.0
H1707 H 0.37181 0.87127 0.52674 0.0
H1708 H 0.3803 0.92905 0.59304 0.0
H1709 H 0.34975 0.90307 0.62454 0.0
H1710 H 0.39192 0.94403 0.52503 0.0
H1711 H 0.4406 0.8763 0.59524 0.0
H1712 H 0.41266 0.86597 0.56343 0.0
H1713 H 0.4101 0.87762 0.60242 0.0
C1714 C 0.3484 0.86365 0.56489 0.0
C1715 C 0.34364 0.87174 0.59451 0.0
C1716 C 0.36613 0.87862 0.54695 0.0
C1717 C 0.37893 0.90172 0.55848 0.0
C1718 C 0.37076 0.91113 0.58404 0.0
H1719 H 0.50873 1.01473 0.59218 0.0
H1720 H 0.47047 0.98227 0.59415 0.0
C1721 C 0.35312 0.89621 0.60199 0.0
C1722 C 0.40423 0.9138 0.55098 0.0
H1723 H 0.46609 0.9131 0.57912 0.0
C1724 C 0.40813 0.93706 0.53597 0.0
C1725 C 0.42532 0.9046 0.5656 0.0
C1726 C 0.42217 0.87981 0.58274 0.0
C1727 C 0.43265 0.952 0.53714 0.0
C1728 C 0.45358 0.94345 0.55421 0.0
C1729 C 0.44983 0.91957 0.56668 0.0
C1730 C 0.47932 0.95957 0.56062 0.0
C1731 C 0.43581 0.97719 0.52149 0.0
C1732 C 0.49797 0.95614 0.54423 0.0
C1733 C 0.52014 0.97441 0.54366 0.0
C1734 C 0.52347 0.99652 0.55873 0.0
C1735 C 0.50652 0.9982 0.57963 0.0
C1736 C 0.48447 0.97981 0.58042 0.0
H1737 H 0.41987 0.97815 0.50013 0.0
H1738 H 0.43595 0.98957 0.5413 0.0
H1739 H 0.45389 0.98364 0.5118 0.0
H1740 H 0.49445 0.94031 0.52944 0.0
H1741 H 0.53307 0.97223 0.52793 0.0
H1742 H 0.23776 0.29949 0.67162 0.0
H1743 H 0.21002 0.32231 0.63591 0.0
H1744 H 0.24125 0.38163 0.70358 0.0
H1745 H 0.26871 0.35901 0.73934 0.0
H1746 H 0.17442 0.34019 0.66728 0.0
H1747 H 0.24028 0.41224 0.60377 0.0
H1748 H 0.24706 0.38381 0.61908 0.0
H1749 H 0.2516 0.40707 0.64854 0.0
C1750 C 0.23918 0.31767 0.67822 0.0
C1751 C 0.25534 0.3276 0.70809 0.0
C1752 C 0.22328 0.33056 0.65798 0.0
C1753 C 0.22387 0.35363 0.66709 0.0
C1754 C 0.24087 0.36396 0.69597 0.0
H1755 H 0.15609 0.46769 0.64044 0.0
H1756 H 0.18059 0.4379 0.65413 0.0
C1757 C 0.25645 0.35102 0.71638 0.0
C1758 C 0.20511 0.36625 0.64897 0.0
H1759 H 0.201 0.41992 0.60868 0.0
C1760 C 0.17994 0.35738 0.6537 0.0
C1761 C 0.21262 0.3886 0.63155 0.0
C1762 C 0.23933 0.39845 0.62511 0.0
C1763 C 0.1624 0.37124 0.6436 0.0
C1764 C 0.17032 0.39424 0.6278 0.0
C1765 C 0.1951 0.40236 0.62116 0.0
C1766 C 0.15412 0.41118 0.62073 0.0
C1767 C 0.13616 0.36187 0.65193 0.0
C1768 C 0.13088 0.4058 0.59783 0.0
C1769 C 0.1167 0.4228 0.59007 0.0
C1770 C 0.12569 0.44539 0.60503 0.0
C1771 C 0.14867 0.45043 0.62851 0.0
C1772 C 0.16273 0.43348 0.63628 0.0
H1773 H 0.13487 0.34621 0.67044 0.0
H1774 H 0.13043 0.37619 0.66276 0.0
H1775 H 0.12241 0.35602 0.62811 0.0
H1776 H 0.12414 0.38882 0.58513 0.0
H1777 H 0.09924 0.4186 0.57146 0.0
H1778 H 0.7446 0.20563 0.75226 0.0
H1779 H 0.72066 0.17154 0.71616 0.0
H1780 H 0.73387 0.21615 0.62581 0.0
H1781 H 0.7574 0.25046 0.6618 0.0
H1782 H 0.67497 0.17154 0.6585 0.0
H1783 H 0.756 0.15203 0.6154 0.0
H1784 H 0.75991 0.16764 0.65421 0.0
H1785 H 0.75465 0.18296 0.61335 0.0
C1786 C 0.74263 0.2082 0.72472 0.0
C1787 C 0.75318 0.23096 0.71013 0.0
C1788 C 0.72879 0.18862 0.704 0.0
C1789 C 0.72543 0.19097 0.66802 0.0
C1790 C 0.73624 0.21359 0.65339 0.0
H1791 H 0.66142 0.08507 0.50461 0.0
H1792 H 0.68584 0.11924 0.54018 0.0
C1793 C 0.74975 0.23329 0.67409 0.0
C1794 C 0.71015 0.17005 0.64589 0.0
H1795 H 0.71528 0.12923 0.59211 0.0
C1796 C 0.68378 0.16221 0.64403 0.0
C1797 C 0.72134 0.15797 0.62641 0.0
C1798 C 0.74955 0.16536 0.62738 0.0
C1799 C 0.66833 0.14324 0.62293 0.0
C1800 C 0.67954 0.13053 0.60386 0.0
C1801 C 0.70612 0.13849 0.60609 0.0
C1802 C 0.66435 0.10934 0.58145 0.0
C1803 C 0.64 0.13836 0.62016 0.0
C1804 C 0.64414 0.09145 0.59199 0.0
C1805 C 0.62912 0.07289 0.57035 0.0
C1806 C 0.6347 0.07035 0.5382 0.0
C1807 C 0.65609 0.08685 0.52862 0.0
C1808 C 0.67032 0.10632 0.54948 0.0
H1809 H 0.6346 0.15495 0.62417 0.0
H1810 H 0.6295 0.13156 0.59482 0.0
H1811 H 0.6338 0.12495 0.64048 0.0
H1812 H 0.63968 0.09172 0.61706 0.0
H1813 H 0.61313 0.06023 0.57903 0.0
H1814 H 0.83651 0.31526 0.39699 0.0
H1815 H 0.87143 0.34757 0.42312 0.0
H1816 H 0.87571 0.38351 0.32407 0.0
H1817 H 0.84115 0.35014 0.29734 0.0
H1818 H 0.92252 0.38922 0.36344 0.0
H1819 H 0.85907 0.41026 0.43957 0.0
H1820 H 0.86113 0.37978 0.44787 0.0
H1821 H 0.84748 0.38918 0.4057 0.0
C1822 C 0.84513 0.32988 0.38066 0.0
C1823 C 0.836 0.3304 0.34522 0.0
C1824 C 0.86496 0.34845 0.39568 0.0
C1825 C 0.87561 0.36844 0.37581 0.0
C1826 C 0.86754 0.3684 0.34 0.0
H1827 H 0.95417 0.50178 0.4788 0.0
H1828 H 0.92478 0.47021 0.44303 0.0
C1829 C 0.84789 0.34937 0.32473 0.0
C1830 C 0.89429 0.38957 0.39297 0.0
H1831 H 0.90332 0.42772 0.45757 0.0
C1832 C 0.91828 0.39786 0.38378 0.0
C1833 C 0.88863 0.40119 0.41911 0.0
C1834 C 0.86258 0.39482 0.42836 0.0
C1835 C 0.93695 0.41701 0.40056 0.0
C1836 C 0.93177 0.42764 0.42813 0.0
C1837 C 0.90757 0.41956 0.43677 0.0
C1838 C 0.95067 0.44752 0.44802 0.0
C1839 C 0.96175 0.42589 0.38795 0.0
C1840 C 0.97521 0.44554 0.46286 0.0
C1841 C 0.99235 0.46404 0.4825 0.0
C1842 C 0.98493 0.48442 0.48872 0.0
C1843 C 0.96034 0.48622 0.47445 0.0
C1844 C 0.94353 0.46814 0.45401 0.0
H1845 H 0.95953 0.42175 0.36066 0.0
H1846 H 0.96956 0.44561 0.39061 0.0
H1847 H 0.97567 0.41664 0.4031 0.0
H1848 H 0.98101 0.42952 0.45988 0.0
H1849 H 1.01111 0.46208 0.49369 0.0
H1850 H 0.75663 0.82884 0.381 0.0
H1851 H 0.73559 0.85577 0.40091 0.0
H1852 H 0.6975 0.86542 0.29779 0.0
H1853 H 0.71861 0.83829 0.27772 0.0
H1854 H 0.73462 0.90172 0.39402 0.0
H1855 H 0.63647 0.85356 0.34035 0.0
H1856 H 0.66282 0.84094 0.34091 0.0
H1857 H 0.65595 0.86316 0.30838 0.0
C1858 C 0.7437 0.83647 0.36217 0.0
C1859 C 0.73969 0.83053 0.32725 0.0
C1860 C 0.73147 0.85228 0.37388 0.0
C1861 C 0.71392 0.86309 0.35168 0.0
C1862 C 0.71006 0.85741 0.31659 0.0
H1863 H 0.61275 0.95657 0.37654 0.0
H1864 H 0.63556 0.93098 0.35818 0.0
C1865 C 0.72255 0.84172 0.30476 0.0
C1866 C 0.70033 0.88012 0.36527 0.0
H1867 H 0.64188 0.89098 0.36421 0.0
C1868 C 0.71427 0.89912 0.38732 0.0
C1869 C 0.67358 0.87775 0.3575 0.0
C1870 C 0.65623 0.85765 0.33579 0.0
C1871 C 0.70302 0.91548 0.40026 0.0
C1872 C 0.67616 0.91305 0.39267 0.0
C1873 C 0.66226 0.89385 0.37081 0.0
C1874 C 0.6622 0.93018 0.40561 0.0
C1875 C 0.72068 0.93597 0.42094 0.0
C1876 C 0.66825 0.93949 0.43922 0.0
C1877 C 0.65506 0.95508 0.44995 0.0
C1878 C 0.63451 0.96202 0.42803 0.0
C1879 C 0.62824 0.95231 0.39488 0.0
C1880 C 0.64155 0.93714 0.3841 0.0
H1881 H 0.74014 0.94015 0.41522 0.0
H1882 H 0.7139 0.95256 0.41584 0.0
H1883 H 0.72196 0.93077 0.44857 0.0
H1884 H 0.683 0.93437 0.45794 0.0
H1885 H 0.66074 0.96132 0.47584 0.0
H1886 H 0.21636 0.75456 0.36517 0.0
H1887 H 0.18841 0.72321 0.39593 0.0
H1888 H 0.22331 0.67043 0.37129 0.0
H1889 H 0.2518 0.70169 0.342 0.0
H1890 H 0.15236 0.68446 0.38222 0.0
H1891 H 0.2277 0.65186 0.46847 0.0
H1892 H 0.23483 0.67862 0.44148 0.0
H1893 H 0.22948 0.64926 0.42474 0.0
C1894 C 0.21839 0.73634 0.36665 0.0
C1895 C 0.237 0.73112 0.35127 0.0
C1896 C 0.20214 0.71819 0.3843 0.0
C1897 C 0.20372 0.694 0.38734 0.0
C1898 C 0.22188 0.68876 0.37109 0.0
H1899 H 0.12271 0.55308 0.45886 0.0
H1900 H 0.14891 0.58867 0.43475 0.0
C1901 C 0.23827 0.70688 0.35385 0.0
C1902 C 0.18633 0.67435 0.40668 0.0
H1903 H 0.18577 0.6261 0.46441 0.0
C1904 C 0.15988 0.67196 0.40047 0.0
C1905 C 0.19546 0.65765 0.4311 0.0
C1906 C 0.22343 0.65962 0.44213 0.0
C1907 C 0.14275 0.6533 0.41642 0.0
C1908 C 0.15187 0.63617 0.43984 0.0
C1909 C 0.1783 0.63886 0.44655 0.0
C1910 C 0.13454 0.61434 0.45557 0.0
C1911 C 0.11478 0.65157 0.40703 0.0
C1912 C 0.11719 0.61605 0.47632 0.0
C1913 C 0.10179 0.59513 0.49087 0.0
C1914 C 0.103 0.57172 0.48484 0.0
C1915 C 0.12052 0.57038 0.46421 0.0
C1916 C 0.1359 0.59103 0.45022 0.0
H1917 H 0.11018 0.66276 0.38371 0.0
H1918 H 0.10376 0.63262 0.40265 0.0
H1919 H 0.10859 0.65798 0.42846 0.0
H1920 H 0.11577 0.63361 0.48177 0.0
H1921 H 0.08893 0.59732 0.50667 0.0
H1922 H 0.33415 0.22489 0.27111 0.0
H1923 H 0.36294 0.19905 0.29188 0.0
H1924 H 0.37547 0.22515 0.39334 0.0
H1925 H 0.34755 0.25162 0.3723 0.0
H1926 H 0.4176 0.21974 0.38823 0.0
H1927 H 0.35277 0.13539 0.33683 0.0
H1928 H 0.35913 0.15739 0.30295 0.0
H1929 H 0.34263 0.16263 0.33495 0.0
C1930 C 0.34294 0.22519 0.2979 0.0
C1931 C 0.33795 0.24065 0.31971 0.0
C1932 C 0.35945 0.20996 0.31011 0.0
C1933 C 0.37154 0.20902 0.34494 0.0
C1934 C 0.36678 0.22482 0.36651 0.0
H1935 H 0.4376 0.0864 0.43071 0.0
H1936 H 0.41111 0.11405 0.41009 0.0
C1937 C 0.35048 0.24016 0.35428 0.0
C1938 C 0.38924 0.19225 0.35884 0.0
H1939 H 0.39557 0.13444 0.35734 0.0
C1940 C 0.41251 0.20107 0.38136 0.0
C1941 C 0.38325 0.16737 0.35131 0.0
C1942 C 0.35799 0.15505 0.33053 0.0
C1943 C 0.42944 0.18647 0.39567 0.0
C1944 C 0.42408 0.16192 0.38669 0.0
C1945 C 0.40064 0.15306 0.36448 0.0
C1946 C 0.44156 0.1449 0.40072 0.0
C1947 C 0.45246 0.19761 0.4216 0.0
C1948 C 0.46835 0.15194 0.40314 0.0
C1949 C 0.48394 0.13591 0.41598 0.0
C1950 C 0.47352 0.11174 0.42616 0.0
C1951 C 0.44681 0.10464 0.42328 0.0
C1952 C 0.43135 0.12071 0.41112 0.0
H1953 H 0.44947 0.2127 0.43428 0.0
H1954 H 0.45733 0.18419 0.4417 0.0
H1955 H 0.46879 0.20509 0.40841 0.0
H1956 H 0.47745 0.16985 0.39446 0.0
H1957 H 0.50421 0.14238 0.41718 0.0
H1958 H 0.76984 0.84207 0.69413 0.0
H1959 H 0.74538 0.86768 0.65833 0.0
H1960 H 0.67775 0.8257 0.69359 0.0
H1961 H 0.70278 0.8014 0.73135 0.0
H1962 H 0.71023 0.8633 0.6073 0.0
H1963 H 0.66964 0.88826 0.71012 0.0
H1964 H 0.6934 0.87164 0.71909 0.0
H1965 H 0.66046 0.85637 0.70531 0.0
C1966 C 0.74973 0.8384 0.69421 0.0
C1967 C 0.73823 0.81982 0.71563 0.0
C1968 C 0.73566 0.85307 0.67369 0.0
C1969 C 0.70956 0.84933 0.67357 0.0
C1970 C 0.69792 0.82992 0.69397 0.0
H1971 H 0.59864 0.92334 0.54876 0.0
H1972 H 0.6181 0.89263 0.5817 0.0
C1973 C 0.71217 0.81572 0.71528 0.0
C1974 C 0.69478 0.86558 0.65193 0.0
H1975 H 0.65296 0.89952 0.65333 0.0
C1976 C 0.6978 0.87118 0.61763 0.0
C1977 C 0.67842 0.87625 0.66488 0.0
C1978 C 0.67549 0.87304 0.70194 0.0
C1979 C 0.68518 0.88682 0.59635 0.0
C1980 C 0.66867 0.89712 0.60922 0.0
C1981 C 0.66527 0.89136 0.6432 0.0
C1982 C 0.65645 0.91539 0.58864 0.0
C1983 C 0.68971 0.89239 0.56013 0.0
C1984 C 0.67135 0.93845 0.58162 0.0
C1985 C 0.6603 0.956 0.56322 0.0
C1986 C 0.63393 0.95107 0.55094 0.0
C1987 C 0.61896 0.92783 0.55763 0.0
C1988 C 0.63008 0.91026 0.57657 0.0
H1989 H 0.69874 0.8795 0.55176 0.0
H1990 H 0.67162 0.89206 0.54217 0.0
H1991 H 0.70245 0.91077 0.5585 0.0
H1992 H 0.69165 0.94302 0.59077 0.0
H1993 H 0.67259 0.97356 0.5586 0.0
H1994 H 0.71315 0.26321 0.48726 0.0
H1995 H 0.68182 0.23065 0.50799 0.0
H1996 H 0.73762 0.19047 0.54089 0.0
H1997 H 0.76946 0.22326 0.52018 0.0
H1998 H 0.70976 0.19296 0.464 0.0
H1999 H 0.64423 0.16603 0.55729 0.0
H2000 H 0.65709 0.19726 0.54643 0.0
H2001 H 0.67762 0.18059 0.57128 0.0
C2002 C 0.71952 0.24838 0.50132 0.0
C2003 C 0.74304 0.24456 0.49905 0.0
C2004 C 0.70135 0.22963 0.51352 0.0
C2005 C 0.70706 0.20752 0.52329 0.0
C2006 C 0.73265 0.20715 0.5319 0.0
H2007 H 0.64811 0.07307 0.42967 0.0
H2008 H 0.67299 0.11243 0.4488 0.0
C2009 C 0.7509 0.22595 0.51976 0.0
C2010 C 0.6893 0.18642 0.50589 0.0
H2011 H 0.63502 0.14226 0.50861 0.0
C2012 C 0.69357 0.18168 0.47397 0.0
C2013 C 0.66739 0.17295 0.51779 0.0
C2014 C 0.66108 0.17929 0.55012 0.0
C2015 C 0.67695 0.16326 0.45411 0.0
C2016 C 0.65613 0.14831 0.46731 0.0
C2017 C 0.65123 0.15357 0.49871 0.0
C2018 C 0.64065 0.12608 0.45026 0.0
C2019 C 0.68171 0.1604 0.41893 0.0
C2020 C 0.61413 0.12094 0.44342 0.0
C2021 C 0.59973 0.0983 0.4322 0.0
C2022 C 0.61171 0.08035 0.42863 0.0
C2023 C 0.63822 0.0864 0.43227 0.0
C2024 C 0.65254 0.10901 0.44325 0.0
H2025 H 0.6911 0.17802 0.40765 0.0
H2026 H 0.69464 0.14851 0.421 0.0
H2027 H 0.66386 0.15245 0.40115 0.0
H2028 H 0.6046 0.13407 0.44808 0.0
H2029 H 0.5793 0.09441 0.42849 0.0
H2030 H 0.84404 0.66153 0.41716 0.0
H2031 H 0.87703 0.64402 0.40594 0.0
H2032 H 0.91257 0.71152 0.35876 0.0
H2033 H 0.88009 0.72923 0.37096 0.0
H2034 H 0.90183 0.64155 0.34639 0.0
H2035 H 0.9606 0.70196 0.45103 0.0
H2036 H 0.92659 0.69639 0.44202 0.0
H2037 H 0.94512 0.71476 0.41276 0.0
C2038 C 0.85872 0.67235 0.40394 0.0
C2039 C 0.86034 0.6967 0.39579 0.0
C2040 C 0.87722 0.66237 0.3971 0.0
C2041 C 0.89712 0.67668 0.38173 0.0
C2042 C 0.89734 0.7004 0.37075 0.0
H2043 H 1.01925 0.61531 0.4784 0.0
H2044 H 1.00357 0.64301 0.4346 0.0
C2045 C 0.8791 0.71047 0.37808 0.0
C2046 C 0.91983 0.66818 0.38434 0.0
H2047 H 0.97276 0.66774 0.44348 0.0
C2048 C 0.91797 0.64772 0.36666 0.0
C2049 C 0.94093 0.67667 0.41046 0.0
C2050 C 0.9436 0.69861 0.43032 0.0
C2051 C 0.93514 0.63369 0.3775 0.0
C2052 C 0.95401 0.64033 0.40687 0.0
C2053 C 0.95807 0.66267 0.42111 0.0
C2054 C 0.9644 0.62225 0.42874 0.0
C2055 C 0.93139 0.61074 0.35955 0.0
C2056 C 0.94739 0.602 0.44052 0.0
C2057 C 0.95617 0.58642 0.4654 0.0
C2058 C 0.98205 0.59112 0.47938 0.0
C2059 C 0.99913 0.61155 0.4681 0.0
C2060 C 0.99032 0.62706 0.44277 0.0
H2061 H 0.92545 0.61344 0.33151 0.0
H2062 H 0.94891 0.60436 0.3645 0.0
H2063 H 0.91596 0.59654 0.36863 0.0
H2064 H 0.92715 0.59863 0.43135 0.0
H2065 H 0.94264 0.57083 0.47394 0.0
H2066 H 0.35961 0.79903 0.38828 0.0
H2067 H 0.39207 0.8333 0.41507 0.0
H2068 H 0.34495 0.88066 0.37112 0.0
H2069 H 0.31342 0.84682 0.34263 0.0
H2070 H 0.38964 0.89682 0.35571 0.0
H2071 H 0.40461 0.87393 0.49529 0.0
H2072 H 0.40604 0.85098 0.46903 0.0
H2073 H 0.37654 0.85878 0.46621 0.0
C2074 C 0.35592 0.81666 0.38518 0.0
C2075 C 0.33391 0.82025 0.36353 0.0
C2076 C 0.37445 0.83627 0.40071 0.0
C2077 C 0.37093 0.85966 0.39559 0.0
C2078 C 0.34818 0.86286 0.37559 0.0
H2079 H 0.45518 1.00557 0.44161 0.0
H2080 H 0.42316 0.96745 0.43049 0.0
C2081 C 0.33003 0.84345 0.35946 0.0
C2082 C 0.39188 0.88122 0.40705 0.0
H2083 H 0.4335 0.90826 0.47645 0.0
C2084 C 0.39906 0.89927 0.38218 0.0
C2085 C 0.40454 0.88442 0.44153 0.0
C2086 C 0.39742 0.86611 0.46964 0.0
C2087 C 0.41823 0.92034 0.39074 0.0
C2088 C 0.43064 0.92361 0.42512 0.0
C2089 C 0.42391 0.90557 0.45007 0.0
C2090 C 0.45019 0.94611 0.43528 0.0
C2091 C 0.42515 0.93906 0.36292 0.0
C2092 C 0.47601 0.94662 0.44216 0.0
C2093 C 0.49448 0.96848 0.44823 0.0
C2094 C 0.48737 0.99013 0.44781 0.0
C2095 C 0.46139 0.98931 0.44192 0.0
C2096 C 0.44302 0.96753 0.43566 0.0
H2097 H 0.41684 0.93209 0.33693 0.0
H2098 H 0.41798 0.95483 0.36568 0.0
H2099 H 0.44606 0.94541 0.36526 0.0
H2100 H 0.48185 0.9302 0.44197 0.0
H2101 H 0.51429 0.96844 0.45318 0.0
H2102 H 0.22592 0.37491 0.38669 0.0
H2103 H 0.20315 0.39546 0.41543 0.0
H2104 H 0.26147 0.40116 0.50568 0.0
H2105 H 0.28427 0.38016 0.47743 0.0
H2106 H 0.20052 0.37835 0.50556 0.0
H2107 H 0.23483 0.47083 0.45004 0.0
H2108 H 0.2277 0.44565 0.4228 0.0
H2109 H 0.25401 0.44946 0.45781 0.0
C2110 C 0.23384 0.38044 0.4127 0.0
C2111 C 0.25677 0.37595 0.42997 0.0
C2112 C 0.22094 0.39225 0.42889 0.0
C2113 C 0.2309 0.39972 0.46237 0.0
C2114 C 0.25379 0.39548 0.4797 0.0
H2115 H 0.15568 0.48846 0.54653 0.0
H2116 H 0.18825 0.46798 0.54385 0.0
C2117 C 0.26675 0.38367 0.46351 0.0
C2118 C 0.21674 0.41141 0.47934 0.0
H2119 H 0.19977 0.46378 0.47814 0.0
C2120 C 0.20064 0.39715 0.50028 0.0
C2121 C 0.21721 0.43584 0.47211 0.0
C2122 C 0.23442 0.4515 0.44958 0.0
C2123 C 0.18373 0.40655 0.51283 0.0
C2124 C 0.18324 0.43068 0.50415 0.0
C2125 C 0.20044 0.44529 0.48485 0.0
C2126 C 0.16304 0.44036 0.51084 0.0
C2127 C 0.16584 0.3904 0.53397 0.0
C2128 C 0.13821 0.43124 0.49345 0.0
C2129 C 0.11965 0.44293 0.49466 0.0
C2130 C 0.12579 0.4639 0.51321 0.0
C2131 C 0.15047 0.47239 0.53183 0.0
C2132 C 0.16904 0.4607 0.53053 0.0
H2133 H 0.17389 0.37582 0.54776 0.0
H2134 H 0.16144 0.40086 0.55277 0.0
H2135 H 0.14785 0.38193 0.51687 0.0
H2136 H 0.13348 0.41574 0.47767 0.0
H2137 H 0.10072 0.4359 0.48037 0.0
H2138 H 0.35577 0.16041 0.67551 0.0
H2139 H 0.37937 0.13971 0.64842 0.0
H2140 H 0.42283 0.20791 0.61348 0.0
H2141 H 0.39884 0.22883 0.63937 0.0
H2142 H 0.38535 0.14029 0.57824 0.0
H2143 H 0.47831 0.17519 0.66202 0.0
H2144 H 0.44889 0.17694 0.67273 0.0
H2145 H 0.46308 0.19786 0.64165 0.0
C2146 C 0.3701 0.17123 0.66182 0.0
C2147 C 0.37507 0.19666 0.66016 0.0
C2148 C 0.38381 0.15919 0.64637 0.0
C2149 C 0.40332 0.17204 0.62902 0.0
C2150 C 0.40833 0.19735 0.62716 0.0
H2151 H 0.51835 0.13534 0.53669 0.0
H2152 H 0.49138 0.1546 0.5596 0.0
C2153 C 0.3945 0.2094 0.64232 0.0
C2154 C 0.41822 0.15906 0.61278 0.0
H2155 H 0.47811 0.15301 0.61511 0.0
C2156 C 0.40564 0.14305 0.58638 0.0
C2157 C 0.44479 0.16251 0.62294 0.0
C2158 C 0.45962 0.17888 0.65157 0.0
C2159 C 0.41878 0.13116 0.56936 0.0
C2160 C 0.44545 0.13441 0.57972 0.0
C2161 C 0.45786 0.15025 0.60654 0.0
C2162 C 0.46108 0.12226 0.56302 0.0
C2163 C 0.40379 0.11607 0.53946 0.0
C2164 C 0.45355 0.0974 0.55629 0.0
C2165 C 0.46881 0.08643 0.54186 0.0
C2166 C 0.49261 0.09972 0.53478 0.0
C2167 C 0.50018 0.12444 0.54162 0.0
C2168 C 0.48467 0.13551 0.55508 0.0
H2169 H 0.3865 0.12198 0.52766 0.0
H2170 H 0.41525 0.11697 0.51938 0.0
H2171 H 0.39753 0.09706 0.54859 0.0
H2172 H 0.43615 0.08614 0.56308 0.0
H2173 H 0.46245 0.06728 0.53768 0.0
H2174 H 0.86923 0.29966 0.73531 0.0
H2175 H 0.90251 0.32797 0.70922 0.0
H2176 H 0.85823 0.38005 0.69147 0.0
H2177 H 0.82476 0.35172 0.71679 0.0
H2178 H 0.87949 0.38051 0.63718 0.0
H2179 H 0.95459 0.38492 0.75229 0.0
H2180 H 0.94107 0.35496 0.73727 0.0
H2181 H 0.92175 0.37031 0.75322 0.0
C2182 C 0.86645 0.31707 0.7257 0.0
C2183 C 0.84407 0.32319 0.7284 0.0
C2184 C 0.88574 0.33347 0.71099 0.0
C2185 C 0.88345 0.35664 0.69874 0.0
C2186 C 0.86083 0.3625 0.70068 0.0
H2187 H 1.00231 0.48507 0.6677 0.0
H2188 H 0.97142 0.45101 0.68797 0.0
C2189 C 0.84156 0.34614 0.7153 0.0
C2190 C 0.9044 0.3748 0.68402 0.0
H2191 H 0.96743 0.405 0.70198 0.0
C2192 C 0.89873 0.38575 0.6514 0.0
C2193 C 0.92965 0.38221 0.7024 0.0
C2194 C 0.93715 0.3727 0.73835 0.0
C2195 C 0.91723 0.40355 0.63689 0.0
C2196 C 0.94262 0.41058 0.65497 0.0
C2197 C 0.94826 0.3996 0.68757 0.0
C2198 C 0.96299 0.4307 0.6422 0.0
C2199 C 0.90906 0.41533 0.60278 0.0
C2200 C 0.96971 0.43085 0.60978 0.0
C2201 C 0.9878 0.45062 0.59797 0.0
C2202 C 0.99972 0.4708 0.61828 0.0
C2203 C 0.99369 0.47001 0.65116 0.0
C2204 C 0.97583 0.45038 0.66289 0.0
H2205 H 0.88816 0.41248 0.5964 0.0
H2206 H 0.91808 0.435 0.60251 0.0
H2207 H 0.91492 0.40739 0.58242 0.0
H2208 H 0.96073 0.41581 0.59334 0.0
H2209 H 0.99162 0.45054 0.57241 0.0
H2210 H 0.27978 0.7118 0.7156 0.0
H2211 H 0.24801 0.67605 0.69223 0.0
H2212 H 0.18837 0.70671 0.70641 0.0
H2213 H 0.2202 0.74242 0.73056 0.0
H2214 H 0.18119 0.65839 0.72777 0.0
H2215 H 0.20396 0.67323 0.59722 0.0
H2216 H 0.23108 0.67288 0.63002 0.0
H2217 H 0.2151 0.69629 0.62853 0.0
C2218 C 0.25989 0.71091 0.71368 0.0
C2219 C 0.25234 0.72986 0.7245 0.0
C2220 C 0.2418 0.69058 0.7002 0.0
C2221 C 0.21591 0.68906 0.69693 0.0
C2222 C 0.2083 0.70772 0.70848 0.0
H2223 H 0.08383 0.57327 0.6187 0.0
H2224 H 0.11092 0.61066 0.64416 0.0
C2225 C 0.22644 0.72804 0.7222 0.0
C2226 C 0.19687 0.66777 0.68176 0.0
H2227 H 0.17809 0.63454 0.61027 0.0
C2228 C 0.18027 0.65324 0.70197 0.0
C2229 C 0.19575 0.66128 0.64805 0.0
C2230 C 0.21225 0.67686 0.62456 0.0
C2231 C 0.16321 0.63173 0.68981 0.0
C2232 C 0.16264 0.62491 0.65645 0.0
C2233 C 0.17877 0.6398 0.63595 0.0
C2234 C 0.14609 0.60201 0.64252 0.0
C2235 C 0.14664 0.61608 0.71314 0.0
C2236 C 0.15697 0.58503 0.63275 0.0
C2237 C 0.14162 0.56386 0.61787 0.0
C2238 C 0.1151 0.5593 0.61255 0.0
C2239 C 0.10422 0.5762 0.62277 0.0
C2240 C 0.11963 0.59751 0.63743 0.0
H2241 H 0.15351 0.62108 0.7403 0.0
H2242 H 0.1271 0.61827 0.70536 0.0
H2243 H 0.14579 0.59679 0.71126 0.0
H2244 H 0.17738 0.58827 0.63644 0.0
H2245 H 0.15055 0.55114 0.61036 0.0
loop_
_geom_bond_atom_site_label_1
_geom_bond_atom_site_label_2
_geom_bond_distance
_geom_bond_site_symmetry_2
_ccdc_geom_bond_type
C0 Eu1 2.835 . S
C0 C2 1.500 . S
C0 O20 1.257 . S
C0 O21 1.260 . S
Eu1 C0 2.835 . S
Eu1 O20 2.473 . S
Eu1 O21 2.480 . S
Eu1 O22 2.430 . S
Eu1 O23 2.670 . S
Eu1 O24 2.394 . S
Eu1 O29 2.355 . S
Eu1 O31 2.374 . S
C2 C0 1.500 . S
C2 C3 1.377 . S
C2 C7 1.377 . S
C3 C2 1.377 . S
C3 C4 1.395 . S
C3 H32 0.931 . S
C4 C3 1.395 . S
C4 C5 1.383 . S
C4 H33 0.931 . S
C5 C4 1.383 . S
C5 C6 1.394 . S
C6 C5 1.394 . S
C6 C7 1.378 . S
C6 H34 0.931 . S
C7 C2 1.377 . S
C7 C6 1.378 . S
C7 H35 0.931 . S
C8 O22 1.259 . S
C8 O23 1.270 . S
C9 O24 1.251 . S
C9 O25 1.251 . S
C10 Eu11 2.835 . S
C10 C12 1.500 . S
C10 O26 1.257 . S
C10 O27 1.260 . S
Eu11 C10 2.835 . S
Eu11 O23 2.355 . S
Eu11 O25 2.374 . S
Eu11 O26 2.473 . S
Eu11 O27 2.480 . S
Eu11 O28 2.430 . S
Eu11 O29 2.670 . S
Eu11 O30 2.394 . S
C12 C10 1.500 . S
C12 C13 1.377 . S
C12 C17 1.377 . S
C13 C12 1.377 . S
C13 C14 1.395 . S
C13 H36 0.931 . S
C14 C13 1.395 . S
C14 C15 1.383 . S
C14 H37 0.931 . S
C15 C14 1.383 . S
C15 C16 1.394 . S
C16 C15 1.394 . S
C16 C17 1.378 . S
C16 H38 0.931 . S
C17 C12 1.377 . S
C17 C16 1.378 . S
C17 H39 0.931 . S
C18 O28 1.259 . S
C18 O29 1.270 . S
C19 O30 1.251 . S
C19 O31 1.251 . S
O20 C0 1.257 . S
O20 Eu1 2.473 . S
O21 C0 1.260 . S
O21 Eu1 2.480 . S
O22 Eu1 2.430 . S
O22 C8 1.259 . S
O23 Eu1 2.670 . S
O23 C8 1.270 . S
O23 Eu11 2.355 . S
O24 Eu1 2.394 . S
O24 C9 1.251 . S
O25 C9 1.251 . S
O25 Eu11 2.374 . S
O26 C10 1.257 . S
O26 Eu11 2.473 . S
O27 C10 1.260 . S
O27 Eu11 2.480 . S
O28 Eu11 2.430 . S
O28 C18 1.259 . S
O29 Eu1 2.355 . S
O29 Eu11 2.670 . S
O29 C18 1.270 . S
O30 Eu11 2.394 . S
O30 C19 1.251 . S
O31 Eu1 2.374 . S
O31 C19 1.251 . S
H32 C3 0.931 . S
H33 C4 0.931 . S
H34 C6 0.931 . S
H35 C7 0.931 . S
H36 C13 0.931 . S
H37 C14 0.931 . S
H38 C16 0.931 . S
H39 C17 0.931 . S
C40 Eu41 2.835 . S
C40 C42 1.500 . S
C40 O60 1.257 . S
C40 O61 1.260 . S
Eu41 C40 2.835 . S
Eu41 O60 2.473 . S
Eu41 O61 2.480 . S
Eu41 O62 2.430 . S
Eu41 O63 2.670 . S
Eu41 O64 2.394 . S
Eu41 O69 2.355 . S
Eu41 O71 2.374 . S
C42 C40 1.500 . S
C42 C43 1.377 . S
C42 C47 1.377 . S
C43 C42 1.377 . S
C43 C44 1.395 . S
C43 H72 0.931 . S
C44 C43 1.395 . S
C44 C45 1.383 . S
C44 H73 0.931 . S
C45 C44 1.383 . S
C45 C46 1.394 . S
C46 C45 1.394 . S
C46 C47 1.378 . S
C46 H74 0.931 . S
C47 C42 1.377 . S
C47 C46 1.378 . S
C47 H75 0.931 . S
C48 O62 1.259 . S
C48 O63 1.270 . S
C49 O64 1.251 . S
C49 O65 1.251 . S
C50 Eu51 2.835 . S
C50 C52 1.500 . S
C50 O66 1.257 . S
C50 O67 1.260 . S
Eu51 C50 2.835 . S
Eu51 O63 2.355 . S
Eu51 O65 2.374 . S
Eu51 O66 2.473 . S
Eu51 O67 2.480 . S
Eu51 O68 2.430 . S
Eu51 O69 2.670 . S
Eu51 O70 2.394 . S
C52 C50 1.500 . S
C52 C53 1.377 . S
C52 C57 1.377 . S
C53 C52 1.377 . S
C53 C54 1.395 . S
C53 H76 0.931 . S
C54 C53 1.395 . S
C54 C55 1.383 . S
C54 H77 0.931 . S
C55 C54 1.383 . S
C55 C56 1.394 . S
C56 C55 1.394 . S
C56 C57 1.378 . S
C56 H78 0.931 . S
C57 C52 1.377 . S
C57 C56 1.378 . S
C57 H79 0.931 . S
C58 O68 1.259 . S
C58 O69 1.270 . S
C59 O70 1.251 . S
C59 O71 1.251 . S
O60 C40 1.257 . S
O60 Eu41 2.473 . S
O61 C40 1.260 . S
O61 Eu41 2.480 . S
O62 Eu41 2.430 . S
O62 C48 1.259 . S
O63 Eu41 2.670 . S
O63 C48 1.270 . S
O63 Eu51 2.355 . S
O64 Eu41 2.394 . S
O64 C49 1.251 . S
O65 C49 1.251 . S
O65 Eu51 2.374 . S
O66 C50 1.257 . S
O66 Eu51 2.473 . S
O67 C50 1.260 . S
O67 Eu51 2.480 . S
O68 Eu51 2.430 . S
O68 C58 1.259 . S
O69 Eu41 2.355 . S
O69 Eu51 2.670 . S
O69 C58 1.270 . S
O70 Eu51 2.394 . S
O70 C59 1.251 . S
O71 Eu41 2.374 . S
O71 C59 1.251 . S
H72 C43 0.931 . S
H73 C44 0.931 . S
H74 C46 0.931 . S
H75 C47 0.931 . S
H76 C53 0.931 . S
H77 C54 0.931 . S
H78 C56 0.931 . S
H79 C57 0.931 . S
C80 Eu81 2.835 . S
C80 C82 1.500 . S
C80 O100 1.257 . S
C80 O101 1.260 . S
Eu81 C80 2.835 . S
Eu81 O100 2.473 . S
Eu81 O101 2.480 . S
Eu81 O102 2.430 . S
Eu81 O103 2.670 . S
Eu81 O104 2.394 . S
Eu81 O109 2.355 . S
Eu81 O111 2.374 . S
C82 C80 1.500 . S
C82 C83 1.377 . S
C82 C87 1.377 . S
C83 C82 1.377 . S
C83 C84 1.395 . S
C83 H112 0.931 . S
C84 C83 1.395 . S
C84 C85 1.383 . S
C84 H113 0.931 . S
C85 C84 1.383 . S
C85 C86 1.394 . S
C86 C85 1.394 . S
C86 C87 1.378 . S
C86 H114 0.931 . S
C87 C82 1.377 . S
C87 C86 1.378 . S
C87 H115 0.931 . S
C88 O102 1.259 . S
C88 O103 1.270 . S
C89 O104 1.251 . S
C89 O105 1.251 . S
C90 Eu91 2.835 . S
C90 C92 1.500 . S
C90 O106 1.257 . S
C90 O107 1.260 . S
Eu91 C90 2.835 . S
Eu91 O103 2.355 . S
Eu91 O105 2.374 . S
Eu91 O106 2.473 . S
Eu91 O107 2.480 . S
Eu91 O108 2.430 . S
Eu91 O109 2.670 . S
Eu91 O110 2.394 . S
C92 C90 1.500 . S
C92 C93 1.377 . S
C92 C97 1.377 . S
C93 C92 1.377 . S
C93 C94 1.395 . S
C93 H116 0.931 . S
C94 C93 1.395 . S
C94 C95 1.383 . S
C94 H117 0.931 . S
C95 C94 1.383 . S
C95 C96 1.394 . S
C96 C95 1.394 . S
C96 C97 1.378 . S
C96 H118 0.931 . S
C97 C92 1.377 . S
C97 C96 1.378 . S
C97 H119 0.931 . S
C98 O108 1.259 . S
C98 O109 1.270 . S
C99 O110 1.251 . S
C99 O111 1.251 . S
O100 C80 1.257 . S
O100 Eu81 2.473 . S
O101 C80 1.260 . S
O101 Eu81 2.480 . S
O102 Eu81 2.430 . S
O102 C88 1.259 . S
O103 Eu81 2.670 . S
O103 C88 1.270 . S
O103 Eu91 2.355 . S
O104 Eu81 2.394 . S
O104 C89 1.251 . S
O105 C89 1.251 . S
O105 Eu91 2.374 . S
O106 C90 1.257 . S
O106 Eu91 2.473 . S
O107 C90 1.260 . S
O107 Eu91 2.480 . S
O108 Eu91 2.430 . S
O108 C98 1.259 . S
O109 Eu81 2.355 . S
O109 Eu91 2.670 . S
O109 C98 1.270 . S
O110 Eu91 2.394 . S
O110 C99 1.251 . S
O111 Eu81 2.374 . S
O111 C99 1.251 . S
H112 C83 0.931 . S
H113 C84 0.931 . S
H114 C86 0.931 . S
H115 C87 0.931 . S
H116 C93 0.931 . S
H117 C94 0.931 . S
H118 C96 0.931 . S
H119 C97 0.931 . S
C120 Eu121 2.835 . S
C120 C122 1.500 . S
C120 O140 1.257 . S
C120 O141 1.260 . S
Eu121 C120 2.835 . S
Eu121 O140 2.473 . S
Eu121 O141 2.480 . S
Eu121 O142 2.430 . S
Eu121 O143 2.670 . S
Eu121 O144 2.394 . S
Eu121 O149 2.355 . S
Eu121 O151 2.374 . S
C122 C120 1.500 . S
C122 C123 1.377 . S
C122 C127 1.377 . S
C123 C122 1.377 . S
C123 C124 1.395 . S
C123 H152 0.931 . S
C124 C123 1.395 . S
C124 C125 1.383 . S
C124 H153 0.931 . S
C125 C124 1.383 . S
C125 C126 1.394 . S
C126 C125 1.394 . S
C126 C127 1.378 . S
C126 H154 0.931 . S
C127 C122 1.377 . S
C127 C126 1.378 . S
C127 H155 0.931 . S
C128 O142 1.259 . S
C128 O143 1.270 . S
C129 O144 1.251 . S
C129 O145 1.251 . S
C130 Eu131 2.835 . S
C130 C132 1.500 . S
C130 O146 1.257 . S
C130 O147 1.260 . S
Eu131 C130 2.835 . S
Eu131 O143 2.355 . S
Eu131 O145 2.374 . S
Eu131 O146 2.473 . S
Eu131 O147 2.480 . S
Eu131 O148 2.430 . S
Eu131 O149 2.670 . S
Eu131 O150 2.394 . S
C132 C130 1.500 . S
C132 C133 1.377 . S
C132 C137 1.377 . S
C133 C132 1.377 . S
C133 C134 1.395 . S
C133 H156 0.931 . S
C134 C133 1.395 . S
C134 C135 1.383 . S
C134 H157 0.931 . S
C135 C134 1.383 . S
C135 C136 1.394 . S
C136 C135 1.394 . S
C136 C137 1.378 . S
C136 H158 0.931 . S
C137 C132 1.377 . S
C137 C136 1.378 . S
C137 H159 0.931 . S
C138 O148 1.259 . S
C138 O149 1.270 . S
C139 O150 1.251 . S
C139 O151 1.251 . S
O140 C120 1.257 . S
O140 Eu121 2.473 . S
O141 C120 1.260 . S
O141 Eu121 2.480 . S
O142 Eu121 2.430 . S
O142 C128 1.259 . S
O143 Eu121 2.670 . S
O143 C128 1.270 . S
O143 Eu131 2.355 . S
O144 Eu121 2.394 . S
O144 C129 1.251 . S
O145 C129 1.251 . S
O145 Eu131 2.374 . S
O146 C130 1.257 . S
O146 Eu131 2.473 . S
O147 C130 1.260 . S
O147 Eu131 2.480 . S
O148 Eu131 2.430 . S
O148 C138 1.259 . S
O149 Eu121 2.355 . S
O149 Eu131 2.670 . S
O149 C138 1.270 . S
O150 Eu131 2.394 . S
O150 C139 1.251 . S
O151 Eu121 2.374 . S
O151 C139 1.251 . S
H152 C123 0.931 . S
H153 C124 0.931 . S
H154 C126 0.931 . S
H155 C127 0.931 . S
H156 C133 0.931 . S
H157 C134 0.931 . S
H158 C136 0.931 . S
H159 C137 0.931 . S
C160 Eu161 2.835 . S
C160 C162 1.500 . S
C160 O180 1.257 . S
C160 O181 1.260 . S
Eu161 C160 2.835 . S
Eu161 O180 2.473 . S
Eu161 O181 2.480 . S
Eu161 O182 2.430 . S
Eu161 O183 2.670 . S
Eu161 O184 2.394 . S
Eu161 O189 2.355 . S
Eu161 O191 2.374 . S
C162 C160 1.500 . S
C162 C163 1.377 . S
C162 C167 1.377 . S
C163 C162 1.377 . S
C163 C164 1.395 . S
C163 H192 0.931 . S
C164 C163 1.395 . S
C164 C165 1.383 . S
C164 H193 0.931 . S
C165 C164 1.383 . S
C165 C166 1.394 . S
C166 C165 1.394 . S
C166 C167 1.378 . S
C166 H194 0.931 . S
C167 C162 1.377 . S
C167 C166 1.378 . S
C167 H195 0.931 . S
C168 O182 1.259 . S
C168 O183 1.270 . S
C169 O184 1.251 . S
C169 O185 1.251 . S
C170 Eu171 2.835 . S
C170 C172 1.500 . S
C170 O186 1.257 . S
C170 O187 1.260 . S
Eu171 C170 2.835 . S
Eu171 O183 2.355 . S
Eu171 O185 2.374 . S
Eu171 O186 2.473 . S
Eu171 O187 2.480 . S
Eu171 O188 2.430 . S
Eu171 O189 2.670 . S
Eu171 O190 2.394 . S
C172 C170 1.500 . S
C172 C173 1.377 . S
C172 C177 1.377 . S
C173 C172 1.377 . S
C173 C174 1.395 . S
C173 H196 0.931 . S
C174 C173 1.395 . S
C174 C175 1.383 . S
C174 H197 0.931 . S
C175 C174 1.383 . S
C175 C176 1.394 . S
C176 C175 1.394 . S
C176 C177 1.378 . S
C176 H198 0.931 . S
C177 C172 1.377 . S
C177 C176 1.378 . S
C177 H199 0.931 . S
C178 O188 1.259 . S
C178 O189 1.270 . S
C179 O190 1.251 . S
C179 O191 1.251 . S
O180 C160 1.257 . S
O180 Eu161 2.473 . S
O181 C160 1.260 . S
O181 Eu161 2.480 . S
O182 Eu161 2.430 . S
O182 C168 1.259 . S
O183 Eu161 2.670 . S
O183 C168 1.270 . S
O183 Eu171 2.355 . S
O184 Eu161 2.394 . S
O184 C169 1.251 . S
O185 C169 1.251 . S
O185 Eu171 2.374 . S
O186 C170 1.257 . S
O186 Eu171 2.473 . S
O187 C170 1.260 . S
O187 Eu171 2.480 . S
O188 Eu171 2.430 . S
O188 C178 1.259 . S
O189 Eu161 2.355 . S
O189 Eu171 2.670 . S
O189 C178 1.270 . S
O190 Eu171 2.394 . S
O190 C179 1.251 . S
O191 Eu161 2.374 . S
O191 C179 1.251 . S
H192 C163 0.931 . S
H193 C164 0.931 . S
H194 C166 0.931 . S
H195 C167 0.931 . S
H196 C173 0.931 . S
H197 C174 0.931 . S
H198 C176 0.931 . S
H199 C177 0.931 . S
C200 Eu201 2.835 . S
C200 C202 1.500 . S
C200 O220 1.257 . S
C200 O221 1.260 . S
Eu201 C200 2.835 . S
Eu201 O220 2.473 . S
Eu201 O221 2.480 . S
Eu201 O222 2.430 . S
Eu201 O223 2.670 . S
Eu201 O224 2.394 . S
Eu201 O229 2.355 . S
Eu201 O231 2.374 . S
C202 C200 1.500 . S
C202 C203 1.377 . S
C202 C207 1.377 . S
C203 C202 1.377 . S
C203 C204 1.395 . S
C203 H232 0.931 . S
C204 C203 1.395 . S
C204 C205 1.383 . S
C204 H233 0.931 . S
C205 C204 1.383 . S
C205 C206 1.394 . S
C206 C205 1.394 . S
C206 C207 1.378 . S
C206 H234 0.931 . S
C207 C202 1.377 . S
C207 C206 1.378 . S
C207 H235 0.931 . S
C208 O222 1.259 . S
C208 O223 1.270 . S
C209 O224 1.251 . S
C209 O225 1.251 . S
C210 Eu211 2.835 . S
C210 C212 1.500 . S
C210 O226 1.257 . S
C210 O227 1.260 . S
Eu211 C210 2.835 . S
Eu211 O223 2.355 . S
Eu211 O225 2.374 . S
Eu211 O226 2.473 . S
Eu211 O227 2.480 . S
Eu211 O228 2.430 . S
Eu211 O229 2.670 . S
Eu211 O230 2.394 . S
C212 C210 1.500 . S
C212 C213 1.377 . S
C212 C217 1.377 . S
C213 C212 1.377 . S
C213 C214 1.395 . S
C213 H236 0.931 . S
C214 C213 1.395 . S
C214 C215 1.383 . S
C214 H237 0.931 . S
C215 C214 1.383 . S
C215 C216 1.394 . S
C216 C215 1.394 . S
C216 C217 1.378 . S
C216 H238 0.931 . S
C217 C212 1.377 . S
C217 C216 1.378 . S
C217 H239 0.931 . S
C218 O228 1.259 . S
C218 O229 1.270 . S
C219 O230 1.251 . S
C219 O231 1.251 . S
O220 C200 1.257 . S
O220 Eu201 2.473 . S
O221 C200 1.260 . S
O221 Eu201 2.480 . S
O222 Eu201 2.430 . S
O222 C208 1.259 . S
O223 Eu201 2.670 . S
O223 C208 1.270 . S
O223 Eu211 2.355 . S
O224 Eu201 2.394 . S
O224 C209 1.251 . S
O225 C209 1.251 . S
O225 Eu211 2.374 . S
O226 C210 1.257 . S
O226 Eu211 2.473 . S
O227 C210 1.260 . S
O227 Eu211 2.480 . S
O228 Eu211 2.430 . S
O228 C218 1.259 . S
O229 Eu201 2.355 . S
O229 Eu211 2.670 . S
O229 C218 1.270 . S
O230 Eu211 2.394 . S
O230 C219 1.251 . S
O231 Eu201 2.374 . S
O231 C219 1.251 . S
H232 C203 0.931 . S
H233 C204 0.931 . S
H234 C206 0.931 . S
H235 C207 0.931 . S
H236 C213 0.931 . S
H237 C214 0.931 . S
H238 C216 0.931 . S
H239 C217 0.931 . S
C240 Eu241 2.835 . S
C240 C242 1.500 . S
C240 O260 1.257 . S
C240 O261 1.260 . S
Eu241 C240 2.835 . S
Eu241 O260 2.473 . S
Eu241 O261 2.480 . S
Eu241 O262 2.430 . S
Eu241 O263 2.670 . S
Eu241 O264 2.394 . S
Eu241 O269 2.355 . S
Eu241 O271 2.374 . S
C242 C240 1.500 . S
C242 C243 1.377 . S
C242 C247 1.377 . S
C243 C242 1.377 . S
C243 C244 1.395 . S
C243 H272 0.931 . S
C244 C243 1.395 . S
C244 C245 1.383 . S
C244 H273 0.931 . S
C245 C244 1.383 . S
C245 C246 1.394 . S
C246 C245 1.394 . S
C246 C247 1.378 . S
C246 H274 0.931 . S
C247 C242 1.377 . S
C247 C246 1.378 . S
C247 H275 0.931 . S
C248 O262 1.259 . S
C248 O263 1.270 . S
C249 O264 1.251 . S
C249 O265 1.251 . S
C250 Eu251 2.835 . S
C250 C252 1.500 . S
C250 O266 1.257 . S
C250 O267 1.260 . S
Eu251 C250 2.835 . S
Eu251 O263 2.355 . S
Eu251 O265 2.374 . S
Eu251 O266 2.473 . S
Eu251 O267 2.480 . S
Eu251 O268 2.430 . S
Eu251 O269 2.670 . S
Eu251 O270 2.394 . S
C252 C250 1.500 . S
C252 C253 1.377 . S
C252 C257 1.377 . S
C253 C252 1.377 . S
C253 C254 1.395 . S
C253 H276 0.931 . S
C254 C253 1.395 . S
C254 C255 1.383 . S
C254 H277 0.931 . S
C255 C254 1.383 . S
C255 C256 1.394 . S
C256 C255 1.394 . S
C256 C257 1.378 . S
C256 H278 0.931 . S
C257 C252 1.377 . S
C257 C256 1.378 . S
C257 H279 0.931 . S
C258 O268 1.259 . S
C258 O269 1.270 . S
C259 O270 1.251 . S
C259 O271 1.251 . S
O260 C240 1.257 . S
O260 Eu241 2.473 . S
O261 C240 1.260 . S
O261 Eu241 2.480 . S
O262 Eu241 2.430 . S
O262 C248 1.259 . S
O263 Eu241 2.670 . S
O263 C248 1.270 . S
O263 Eu251 2.355 . S
O264 Eu241 2.394 . S
O264 C249 1.251 . S
O265 C249 1.251 . S
O265 Eu251 2.374 . S
O266 C250 1.257 . S
O266 Eu251 2.473 . S
O267 C250 1.260 . S
O267 Eu251 2.480 . S
O268 Eu251 2.430 . S
O268 C258 1.259 . S
O269 Eu241 2.355 . S
O269 Eu251 2.670 . S
O269 C258 1.270 . S
O270 Eu251 2.394 . S
O270 C259 1.251 . S
O271 Eu241 2.374 . S
O271 C259 1.251 . S
H272 C243 0.931 . S
H273 C244 0.931 . S
H274 C246 0.931 . S
H275 C247 0.931 . S
H276 C253 0.931 . S
H277 C254 0.931 . S
H278 C256 0.931 . S
H279 C257 0.931 . S
C280 Eu281 2.835 . S
C280 C282 1.500 . S
C280 O300 1.257 . S
C280 O301 1.260 . S
Eu281 C280 2.835 . S
Eu281 O300 2.473 . S
Eu281 O301 2.480 . S
Eu281 O302 2.430 . S
Eu281 O303 2.670 . S
Eu281 O304 2.394 . S
Eu281 O309 2.355 . S
Eu281 O311 2.374 . S
C282 C280 1.500 . S
C282 C283 1.377 . S
C282 C287 1.377 . S
C283 C282 1.377 . S
C283 C284 1.395 . S
C283 H312 0.931 . S
C284 C283 1.395 . S
C284 C285 1.383 . S
C284 H313 0.931 . S
C285 C284 1.383 . S
C285 C286 1.394 . S
C286 C285 1.394 . S
C286 C287 1.378 . S
C286 H314 0.931 . S
C287 C282 1.377 . S
C287 C286 1.378 . S
C287 H315 0.931 . S
C288 O302 1.259 . S
C288 O303 1.270 . S
C289 O304 1.251 . S
C289 O305 1.251 . S
C290 Eu291 2.835 . S
C290 C292 1.500 . S
C290 O306 1.257 . S
C290 O307 1.260 . S
Eu291 C290 2.835 . S
Eu291 O303 2.355 . S
Eu291 O305 2.374 . S
Eu291 O306 2.473 . S
Eu291 O307 2.480 . S
Eu291 O308 2.430 . S
Eu291 O309 2.670 . S
Eu291 O310 2.394 . S
C292 C290 1.500 . S
C292 C293 1.377 . S
C292 C297 1.377 . S
C293 C292 1.377 . S
C293 C294 1.395 . S
C293 H316 0.931 . S
C294 C293 1.395 . S
C294 C295 1.383 . S
C294 H317 0.931 . S
C295 C294 1.383 . S
C295 C296 1.394 . S
C296 C295 1.394 . S
C296 C297 1.378 . S
C296 H318 0.931 . S
C297 C292 1.377 . S
C297 C296 1.378 . S
C297 H319 0.931 . S
C298 O308 1.259 . S
C298 O309 1.270 . S
C299 O310 1.251 . S
C299 O311 1.251 . S
O300 C280 1.257 . S
O300 Eu281 2.473 . S
O301 C280 1.260 . S
O301 Eu281 2.480 . S
O302 Eu281 2.430 . S
O302 C288 1.259 . S
O303 Eu281 2.670 . S
O303 C288 1.270 . S
O303 Eu291 2.355 . S
O304 Eu281 2.394 . S
O304 C289 1.251 . S
O305 C289 1.251 . S
O305 Eu291 2.374 . S
O306 C290 1.257 . S
O306 Eu291 2.473 . S
O307 C290 1.260 . S
O307 Eu291 2.480 . S
O308 Eu291 2.430 . S
O308 C298 1.259 . S
O309 Eu281 2.355 . S
O309 Eu291 2.670 . S
O309 C298 1.270 . S
O310 Eu291 2.394 . S
O310 C299 1.251 . S
O311 Eu281 2.374 . S
O311 C299 1.251 . S
H312 C283 0.931 . S
H313 C284 0.931 . S
H314 C286 0.931 . S
H315 C287 0.931 . S
H316 C293 0.931 . S
H317 C294 0.931 . S
H318 C296 0.931 . S
H319 C297 0.931 . S
Co320 O323 2.042 . S
Co320 O330 2.264 . S
Co320 O349 2.286 . S
Co320 O350 2.069 . S
Co320 O352 2.015 1_455 S
Co321 O323 2.122 . S
Co321 O329 2.073 . S
Co321 O330 2.327 . S
Co321 O331 1.976 1_455 S
Co322 O323 2.087 1_545 S
Co322 O325 2.087 1_455 S
Co322 O332 2.111 1_445 S
Co322 O333 2.143 . S
Co322 O337 2.111 . S
Co322 O351 2.143 1_445 S
O323 Co320 2.042 . S
O323 Co321 2.122 . S
O323 Co322 2.087 1_565 S
O323 H324 0.980 1_565 S
H324 O323 0.980 1_545 S
O325 Co322 2.087 1_655 S
O325 Co326 2.042 . S
O325 Co327 2.122 . S
O325 H328 0.980 . S
Co326 O325 2.042 . S
Co326 O334 2.286 . S
Co326 O335 2.069 . S
Co326 O336 2.015 1_655 S
Co326 O339 2.264 . S
Co327 O325 2.122 . S
Co327 O338 1.976 1_655 S
Co327 O339 2.327 . S
Co327 O340 2.073 . S
H328 O325 0.980 . S
O329 Co321 2.073 . S
O329 C344 1.245 . S
O330 Co320 2.264 . S
O330 Co321 2.327 . S
O330 C344 1.257 . S
O331 Co321 1.976 1_655 S
O331 C343 1.251 . S
O332 Co322 2.111 1_665 S
O332 C343 1.274 . S
O333 Co322 2.143 . S
O333 C346 1.246 . S
O334 Co326 2.286 . S
O334 C345 1.259 . S
O335 Co326 2.069 . S
O335 C345 1.289 . S
O336 Co326 2.015 1_455 S
O336 C346 1.257 . S
O337 Co322 2.111 . S
O337 C347 1.274 . S
O338 Co327 1.976 1_455 S
O338 C347 1.251 . S
O339 Co326 2.264 . S
O339 Co327 2.327 . S
O339 C348 1.257 . S
O340 Co327 2.073 . S
O340 C348 1.245 . S
C341 O349 1.259 . S
C341 O350 1.289 . S
C342 O351 1.246 . S
C342 O352 1.257 . S
C343 O331 1.251 . S
C343 O332 1.274 . S
C344 O329 1.245 . S
C344 O330 1.257 . S
C345 O334 1.259 . S
C345 O335 1.289 . S
C346 O333 1.246 . S
C346 O336 1.257 . S
C347 O337 1.274 . S
C347 O338 1.251 . S
C348 O339 1.257 . S
C348 O340 1.245 . S
O349 Co320 2.286 . S
O349 C341 1.259 . S
O350 Co320 2.069 . S
O350 C341 1.289 . S
O351 Co322 2.143 1_665 S
O351 C342 1.246 . S
O352 Co320 2.015 1_655 S
O352 C342 1.257 . S
Co353 O356 2.042 1_566 S
Co353 O363 2.264 1_556 S
Co353 O382 2.286 . S
Co353 O383 2.069 . S
Co353 O385 2.015 . S
Co354 O356 2.122 1_565 S
Co354 O362 2.073 . S
Co354 O363 2.327 . S
Co354 O364 1.976 . S
Co355 O356 2.087 . S
Co355 O358 2.087 1_554 S
Co355 O365 2.111 . S
Co355 O366 2.143 . S
Co355 O370 2.111 1_554 S
Co355 O384 2.143 1_554 S
O356 Co353 2.042 1_544 S
O356 Co354 2.122 1_545 S
O356 Co355 2.087 . S
O356 H357 0.980 . S
H357 O356 0.980 . S
O358 Co355 2.087 1_556 S
O358 Co359 2.042 1_556 S
O358 Co360 2.122 . S
O358 H361 0.980 . S
Co359 O358 2.042 1_554 S
Co359 O367 2.286 . S
Co359 O368 2.069 . S
Co359 O369 2.015 . S
Co359 O372 2.264 1_554 S
Co360 O358 2.122 . S
Co360 O371 1.976 . S
Co360 O372 2.327 . S
Co360 O373 2.073 . S
H361 O358 0.980 . S
O362 Co354 2.073 . S
O362 C377 1.245 . S
O363 Co353 2.264 1_554 S
O363 Co354 2.327 . S
O363 C377 1.257 . S
O364 Co354 1.976 . S
O364 C376 1.251 . S
O365 Co355 2.111 . S
O365 C376 1.274 1_545 S
O366 Co355 2.143 . S
O366 C379 1.246 . S
O367 Co359 2.286 . S
O367 C378 1.259 . S
O368 Co359 2.069 . S
O368 C378 1.289 . S
O369 Co359 2.015 . S
O369 C379 1.257 . S
O370 Co355 2.111 1_556 S
O370 C380 1.274 . S
O371 Co360 1.976 . S
O371 C380 1.251 . S
O372 Co359 2.264 1_556 S
O372 Co360 2.327 . S
O372 C381 1.257 . S
O373 Co360 2.073 . S
O373 C381 1.245 . S
C374 O382 1.259 . S
C374 O383 1.289 . S
C375 O384 1.246 1_565 S
C375 O385 1.257 . S
C376 O364 1.251 . S
C376 O365 1.274 1_565 S
C377 O362 1.245 . S
C377 O363 1.257 . S
C378 O367 1.259 . S
C378 O368 1.289 . S
C379 O366 1.246 . S
C379 O369 1.257 . S
C380 O370 1.274 . S
C380 O371 1.251 . S
C381 O372 1.257 . S
C381 O373 1.245 . S
O382 Co353 2.286 . S
O382 C374 1.259 . S
O383 Co353 2.069 . S
O383 C374 1.289 . S
O384 Co355 2.143 1_556 S
O384 C375 1.246 1_545 S
O385 Co353 2.015 . S
O385 C375 1.257 . S
Co386 O389 2.042 . S
Co386 O396 2.264 . S
Co386 O415 2.286 . S
Co386 O416 2.069 . S
Co386 O418 2.015 1_455 S
Co387 O389 2.122 . S
Co387 O395 2.073 . S
Co387 O396 2.327 . S
Co387 O397 1.976 1_455 S
Co388 O389 2.087 . S
Co388 O391 2.087 1_455 S
Co388 O398 2.111 1_455 S
Co388 O399 2.143 . S
Co388 O403 2.111 . S
Co388 O417 2.143 1_455 S
O389 Co386 2.042 . S
O389 Co387 2.122 . S
O389 Co388 2.087 . S
O389 H390 0.980 . S
H390 O389 0.980 . S
O391 Co388 2.087 1_655 S
O391 Co392 2.042 . S
O391 Co393 2.122 1_554 S
O391 H394 0.980 . S
Co392 O391 2.042 . S
Co392 O400 2.286 . S
Co392 O401 2.069 . S
Co392 O402 2.015 1_655 S
Co392 O405 2.264 . S
Co393 O391 2.122 1_556 S
Co393 O404 1.976 1_655 S
Co393 O405 2.327 1_556 S
Co393 O406 2.073 . S
H394 O391 0.980 . S
O395 Co387 2.073 . S
O395 C410 1.245 . S
O396 Co386 2.264 . S
O396 Co387 2.327 . S
O396 C410 1.257 . S
O397 Co387 1.976 1_655 S
O397 C409 1.251 . S
O398 Co388 2.111 1_655 S
O398 C409 1.274 . S
O399 Co388 2.143 . S
O399 C412 1.246 . S
O400 Co392 2.286 . S
O400 C411 1.259 . S
O401 Co392 2.069 . S
O401 C411 1.289 . S
O402 Co392 2.015 1_455 S
O402 C412 1.257 . S
O403 Co388 2.111 . S
O403 C413 1.274 . S
O404 Co393 1.976 1_455 S
O404 C413 1.251 1_556 S
O405 Co392 2.264 . S
O405 Co393 2.327 1_554 S
O405 C414 1.257 1_554 S
O406 Co393 2.073 . S
O406 C414 1.245 . S
C407 O415 1.259 . S
C407 O416 1.289 . S
C408 O417 1.246 . S
C408 O418 1.257 . S
C409 O397 1.251 . S
C409 O398 1.274 . S
C410 O395 1.245 . S
C410 O396 1.257 . S
C411 O400 1.259 . S
C411 O401 1.289 . S
C412 O399 1.246 . S
C412 O402 1.257 . S
C413 O403 1.274 . S
C413 O404 1.251 1_554 S
C414 O405 1.257 1_556 S
C414 O406 1.245 . S
O415 Co386 2.286 . S
O415 C407 1.259 . S
O416 Co386 2.069 . S
O416 C407 1.289 . S
O417 Co388 2.143 1_655 S
O417 C408 1.246 . S
O418 Co386 2.015 1_655 S
O418 C408 1.257 . S
Co419 O422 2.042 . S
Co419 O429 2.264 . S
Co419 O448 2.286 1_554 S
Co419 O449 2.069 . S
Co419 O451 2.015 1_554 S
Co420 O422 2.122 . S
Co420 O428 2.073 . S
Co420 O429 2.327 . S
Co420 O430 1.976 . S
Co421 O422 2.087 . S
Co421 O424 2.087 . S
Co421 O431 2.111 . S
Co421 O432 2.143 . S
Co421 O436 2.111 1_554 S
Co421 O450 2.143 1_554 S
O422 Co419 2.042 . S
O422 Co420 2.122 . S
O422 Co421 2.087 . S
O422 H423 0.980 . S
H423 O422 0.980 . S
O424 Co421 2.087 . S
O424 Co425 2.042 . S
O424 Co426 2.122 1_554 S
O424 H427 0.980 . S
Co425 O424 2.042 . S
Co425 O433 2.286 . S
Co425 O434 2.069 . S
Co425 O435 2.015 . S
Co425 O438 2.264 1_554 S
Co426 O424 2.122 1_556 S
Co426 O437 1.976 . S
Co426 O438 2.327 . S
Co426 O439 2.073 . S
H427 O424 0.980 . S
O428 Co420 2.073 . S
O428 C443 1.245 . S
O429 Co419 2.264 . S
O429 Co420 2.327 . S
O429 C443 1.257 . S
O430 Co420 1.976 . S
O430 C442 1.251 . S
O431 Co421 2.111 . S
O431 C442 1.274 . S
O432 Co421 2.143 . S
O432 C445 1.246 . S
O433 Co425 2.286 . S
O433 C444 1.259 . S
O434 Co425 2.069 . S
O434 C444 1.289 . S
O435 Co425 2.015 . S
O435 C445 1.257 . S
O436 Co421 2.111 1_556 S
O436 C446 1.274 . S
O437 Co426 1.976 . S
O437 C446 1.251 . S
O438 Co425 2.264 1_556 S
O438 Co426 2.327 . S
O438 C447 1.257 . S
O439 Co426 2.073 . S
O439 C447 1.245 . S
C440 O448 1.259 . S
C440 O449 1.289 1_556 S
C441 O450 1.246 . S
C441 O451 1.257 . S
C442 O430 1.251 . S
C442 O431 1.274 . S
C443 O428 1.245 . S
C443 O429 1.257 . S
C444 O433 1.259 . S
C444 O434 1.289 . S
C445 O432 1.246 . S
C445 O435 1.257 . S
C446 O436 1.274 . S
C446 O437 1.251 . S
C447 O438 1.257 . S
C447 O439 1.245 . S
O448 Co419 2.286 1_556 S
O448 C440 1.259 . S
O449 Co419 2.069 . S
O449 C440 1.289 1_554 S
O450 Co421 2.143 1_556 S
O450 C441 1.246 . S
O451 Co419 2.015 1_556 S
O451 C441 1.257 . S
Co452 O455 2.042 . S
Co452 O462 2.264 . S
Co452 O481 2.286 . S
Co452 O482 2.069 . S
Co452 O484 2.015 . S
Co453 O455 2.122 . S
Co453 O461 2.073 . S
Co453 O462 2.327 . S
Co453 O463 1.976 . S
Co454 O455 2.087 . S
Co454 O457 2.087 . S
Co454 O464 2.111 . S
Co454 O465 2.133 1_455 S
Co454 O469 2.111 . S
Co454 O483 2.143 . S
O455 Co452 2.042 . S
O455 Co453 2.122 . S
O455 Co454 2.087 . S
O455 H456 0.980 . S
H456 O455 0.980 . S
O457 Co454 2.087 . S
O457 Co458 2.042 1_455 S
O457 Co459 2.122 1_455 S
O457 H460 0.980 . S
Co458 O457 2.042 1_655 S
Co458 O466 2.286 . S
Co458 O467 2.069 . S
Co458 O468 2.015 . S
Co458 O471 2.264 . S
Co459 O457 2.122 1_655 S
Co459 O470 1.976 . S
Co459 O471 2.327 . S
Co459 O472 2.073 . S
H460 O457 0.980 . S
O461 Co453 2.073 . S
O461 C476 1.245 . S
O462 Co452 2.264 . S
O462 Co453 2.327 . S
O462 C476 1.257 . S
O463 Co453 1.976 . S
O463 C475 1.251 . S
O464 Co454 2.111 . S
O464 C475 1.274 . S
O465 Co454 2.133 1_655 S
O465 C478 1.266 . S
O466 Co458 2.286 . S
O466 C477 1.259 . S
O467 Co458 2.069 . S
O467 C477 1.289 . S
O468 Co458 2.015 . S
O468 C478 1.257 . S
O469 Co454 2.111 . S
O469 C479 1.274 1_455 S
O470 Co459 1.976 . S
O470 C479 1.251 . S
O471 Co458 2.264 . S
O471 Co459 2.327 . S
O471 C480 1.257 . S
O472 Co459 2.073 . S
O472 C480 1.245 . S
C473 O481 1.259 . S
C473 O482 1.289 . S
C474 O483 1.246 . S
C474 O484 1.257 . S
C475 O463 1.251 . S
C475 O464 1.274 . S
C476 O461 1.245 . S
C476 O462 1.257 . S
C477 O466 1.259 . S
C477 O467 1.289 . S
C478 O465 1.266 . S
C478 O468 1.257 . S
C479 O469 1.274 1_655 S
C479 O470 1.251 . S
C480 O471 1.257 . S
C480 O472 1.245 . S
O481 Co452 2.286 . S
O481 C473 1.259 . S
O482 Co452 2.069 . S
O482 C473 1.289 . S
O483 Co454 2.143 . S
O483 C474 1.246 . S
O484 Co452 2.015 . S
O484 C474 1.257 . S
Co485 O488 2.042 . S
Co485 O495 2.264 . S
Co485 O514 2.286 . S
Co485 O515 2.069 . S
Co485 O517 2.015 1_565 S
Co486 O488 2.122 . S
Co486 O494 2.073 . S
Co486 O495 2.327 . S
Co486 O496 1.976 1_565 S
Co487 O488 2.087 1_545 S
Co487 O490 2.087 . S
Co487 O497 2.111 . S
Co487 O498 2.143 1_545 S
Co487 O502 2.111 1_545 S
Co487 O516 2.143 . S
O488 Co485 2.042 . S
O488 Co486 2.122 . S
O488 Co487 2.087 1_565 S
O488 H489 0.980 . S
H489 O488 0.980 . S
O490 Co487 2.087 . S
O490 Co491 2.042 . S
O490 Co492 2.122 . S
O490 H493 0.980 . S
Co491 O490 2.042 . S
Co491 O499 2.286 . S
Co491 O500 2.069 . S
Co491 O501 2.015 1_545 S
Co491 O504 2.264 . S
Co492 O490 2.122 . S
Co492 O503 1.976 1_545 S
Co492 O504 2.327 . S
Co492 O505 2.073 . S
H493 O490 0.980 . S
O494 Co486 2.073 . S
O494 C509 1.245 . S
O495 Co485 2.264 . S
O495 Co486 2.327 . S
O495 C509 1.257 . S
O496 Co486 1.976 1_545 S
O496 C508 1.251 . S
O497 Co487 2.111 . S
O497 C508 1.274 . S
O498 Co487 2.143 1_565 S
O498 C511 1.246 . S
O499 Co491 2.286 . S
O499 C510 1.259 . S
O500 Co491 2.069 . S
O500 C510 1.289 . S
O501 Co491 2.015 1_565 S
O501 C511 1.257 . S
O502 Co487 2.111 1_565 S
O502 C512 1.274 . S
O503 Co492 1.976 1_565 S
O503 C512 1.251 . S
O504 Co491 2.264 . S
O504 Co492 2.327 . S
O504 C513 1.257 . S
O505 Co492 2.073 . S
O505 C513 1.245 . S
C506 O514 1.259 . S
C506 O515 1.289 . S
C507 O516 1.246 . S
C507 O517 1.257 . S
C508 O496 1.251 . S
C508 O497 1.274 . S
C509 O494 1.245 . S
C509 O495 1.257 . S
C510 O499 1.259 . S
C510 O500 1.289 . S
C511 O498 1.246 . S
C511 O501 1.257 . S
C512 O502 1.274 . S
C512 O503 1.251 . S
C513 O504 1.257 . S
C513 O505 1.245 . S
O514 Co485 2.286 . S
O514 C506 1.259 . S
O515 Co485 2.069 . S
O515 C506 1.289 . S
O516 Co487 2.143 . S
O516 C507 1.246 . S
O517 Co485 2.015 1_545 S
O517 C507 1.257 . S
H518 C526 0.929 . S
H519 C528 0.930 . S
H520 C530 0.930 . S
H521 C533 0.929 . S
H522 C536 0.930 . S
H523 C538 0.960 . S
H524 C538 0.960 . S
H525 C538 0.960 . S
C526 H518 0.929 . S
C526 C527 1.377 . S
C526 C528 1.384 . S
C527 C526 1.377 . S
C527 C533 1.390 . S
C528 H519 0.930 . S
C528 C526 1.384 . S
C528 C529 1.372 . S
C529 C528 1.372 . S
C529 C530 1.400 . S
C529 C534 1.490 . S
C530 H520 0.930 . S
C530 C529 1.400 . S
C530 C533 1.386 . S
H531 C547 0.930 . S
H532 C548 0.931 . S
C533 H521 0.929 . S
C533 C527 1.390 . S
C533 C530 1.386 . S
C534 C529 1.490 . S
C534 C536 1.395 . S
C534 C537 1.403 . S
H535 C541 0.930 . S
C536 H522 0.930 . S
C536 C534 1.395 . S
C536 C539 1.403 . S
C537 C534 1.403 . S
C537 C538 1.524 . S
C537 C541 1.400 . S
C538 H523 0.960 . S
C538 H524 0.960 . S
C538 H525 0.960 . S
C538 C537 1.524 . S
C539 C536 1.403 . S
C539 C540 1.392 . S
C539 C543 1.495 . S
C540 C539 1.392 . S
C540 C541 1.385 . S
C540 C542 1.478 . S
C541 H535 0.930 . S
C541 C537 1.400 . S
C541 C540 1.385 . S
C542 C540 1.478 . S
C542 C544 1.381 . S
C542 C548 1.383 . S
C543 C539 1.495 . S
C543 H549 0.959 . S
C543 H550 0.961 . S
C543 H551 0.960 . S
C544 C542 1.381 . S
C544 C545 1.394 . S
C544 H552 0.930 . S
C545 C544 1.394 . S
C545 C546 1.383 . S
C545 H553 0.929 . S
C546 C545 1.383 . S
C546 C547 1.377 . S
C547 H531 0.930 . S
C547 C546 1.377 . S
C547 C548 1.379 . S
C548 H532 0.931 . S
C548 C542 1.383 . S
C548 C547 1.379 . S
H549 C543 0.959 . S
H550 C543 0.961 . S
H551 C543 0.960 . S
H552 C544 0.930 . S
H553 C545 0.929 . S
H554 C562 0.929 . S
H555 C564 0.930 . S
H556 C566 0.930 . S
H557 C569 0.929 . S
H558 C572 0.930 . S
H559 C574 0.960 . S
H560 C574 0.960 . S
H561 C574 0.960 . S
C562 H554 0.929 . S
C562 C563 1.377 . S
C562 C564 1.384 . S
C563 C562 1.377 . S
C563 C569 1.390 . S
C564 H555 0.930 . S
C564 C562 1.384 . S
C564 C565 1.372 . S
C565 C564 1.372 . S
C565 C566 1.400 . S
C565 C570 1.490 . S
C566 H556 0.930 . S
C566 C565 1.400 . S
C566 C569 1.386 . S
H567 C583 0.930 . S
H568 C584 0.931 . S
C569 H557 0.929 . S
C569 C563 1.390 . S
C569 C566 1.386 . S
C570 C565 1.490 . S
C570 C572 1.395 . S
C570 C573 1.403 . S
H571 C577 0.930 . S
C572 H558 0.930 . S
C572 C570 1.395 . S
C572 C575 1.403 . S
C573 C570 1.403 . S
C573 C574 1.524 . S
C573 C577 1.400 . S
C574 H559 0.960 . S
C574 H560 0.960 . S
C574 H561 0.960 . S
C574 C573 1.524 . S
C575 C572 1.403 . S
C575 C576 1.392 . S
C575 C579 1.495 . S
C576 C575 1.392 . S
C576 C577 1.385 . S
C576 C578 1.478 . S
C577 H571 0.930 . S
C577 C573 1.400 . S
C577 C576 1.385 . S
C578 C576 1.478 . S
C578 C580 1.381 . S
C578 C584 1.383 . S
C579 C575 1.495 . S
C579 H585 0.959 . S
C579 H586 0.961 . S
C579 H587 0.960 . S
C580 C578 1.381 . S
C580 C581 1.394 . S
C580 H588 0.930 . S
C581 C580 1.394 . S
C581 C582 1.383 . S
C581 H589 0.929 . S
C582 C581 1.383 . S
C582 C583 1.377 . S
C583 H567 0.930 . S
C583 C582 1.377 . S
C583 C584 1.379 . S
C584 H568 0.931 . S
C584 C578 1.383 . S
C584 C583 1.379 . S
H585 C579 0.959 . S
H586 C579 0.961 . S
H587 C579 0.960 . S
H588 C580 0.930 . S
H589 C581 0.929 . S
H590 C598 0.929 . S
H591 C600 0.930 . S
H592 C602 0.930 . S
H593 C605 0.929 . S
H594 C608 0.930 . S
H595 C610 0.960 . S
H596 C610 0.960 . S
H597 C610 0.960 . S
C598 H590 0.929 . S
C598 C599 1.377 . S
C598 C600 1.384 . S
C599 C598 1.377 . S
C599 C605 1.390 . S
C600 H591 0.930 . S
C600 C598 1.384 . S
C600 C601 1.372 . S
C601 C600 1.372 . S
C601 C602 1.400 . S
C601 C606 1.490 . S
C602 H592 0.930 . S
C602 C601 1.400 . S
C602 C605 1.386 . S
H603 C619 0.930 . S
H604 C620 0.931 . S
C605 H593 0.929 . S
C605 C599 1.390 . S
C605 C602 1.386 . S
C606 C601 1.490 . S
C606 C608 1.395 . S
C606 C609 1.403 . S
H607 C613 0.930 . S
C608 H594 0.930 . S
C608 C606 1.395 . S
C608 C611 1.403 . S
C609 C606 1.403 . S
C609 C610 1.524 . S
C609 C613 1.400 . S
C610 H595 0.960 . S
C610 H596 0.960 . S
C610 H597 0.960 . S
C610 C609 1.524 . S
C611 C608 1.403 . S
C611 C612 1.392 . S
C611 C615 1.495 . S
C612 C611 1.392 . S
C612 C613 1.385 . S
C612 C614 1.478 . S
C613 H607 0.930 . S
C613 C609 1.400 . S
C613 C612 1.385 . S
C614 C612 1.478 . S
C614 C616 1.381 . S
C614 C620 1.383 . S
C615 C611 1.495 . S
C615 H621 0.959 . S
C615 H622 0.961 . S
C615 H623 0.960 . S
C616 C614 1.381 . S
C616 C617 1.394 . S
C616 H624 0.930 . S
C617 C616 1.394 . S
C617 C618 1.383 . S
C617 H625 0.929 . S
C618 C617 1.383 . S
C618 C619 1.377 . S
C619 H603 0.930 . S
C619 C618 1.377 . S
C619 C620 1.379 . S
C620 H604 0.931 . S
C620 C614 1.383 . S
C620 C619 1.379 . S
H621 C615 0.959 . S
H622 C615 0.961 . S
H623 C615 0.960 . S
H624 C616 0.930 . S
H625 C617 0.929 . S
H626 C634 0.929 . S
H627 C636 0.930 . S
H628 C638 0.930 . S
H629 C641 0.929 . S
H630 C644 0.930 . S
H631 C646 0.960 . S
H632 C646 0.960 . S
H633 C646 0.960 . S
C634 H626 0.929 . S
C634 C635 1.377 . S
C634 C636 1.384 . S
C635 C634 1.377 . S
C635 C641 1.390 . S
C636 H627 0.930 . S
C636 C634 1.384 . S
C636 C637 1.372 . S
C637 C636 1.372 . S
C637 C638 1.400 . S
C637 C642 1.490 . S
C638 H628 0.930 . S
C638 C637 1.400 . S
C638 C641 1.386 . S
H639 C655 0.930 . S
H640 C656 0.931 . S
C641 H629 0.929 . S
C641 C635 1.390 . S
C641 C638 1.386 . S
C642 C637 1.490 . S
C642 C644 1.395 . S
C642 C645 1.403 . S
H643 C649 0.930 . S
C644 H630 0.930 . S
C644 C642 1.395 . S
C644 C647 1.403 . S
C645 C642 1.403 . S
C645 C646 1.524 . S
C645 C649 1.400 . S
C646 H631 0.960 . S
C646 H632 0.960 . S
C646 H633 0.960 . S
C646 C645 1.524 . S
C647 C644 1.403 . S
C647 C648 1.392 . S
C647 C651 1.495 . S
C648 C647 1.392 . S
C648 C649 1.385 . S
C648 C650 1.478 . S
C649 H643 0.930 . S
C649 C645 1.400 . S
C649 C648 1.385 . S
C650 C648 1.478 . S
C650 C652 1.381 . S
C650 C656 1.383 . S
C651 C647 1.495 . S
C651 H657 0.959 . S
C651 H658 0.961 . S
C651 H659 0.960 . S
C652 C650 1.381 . S
C652 C653 1.394 . S
C652 H660 0.930 . S
C653 C652 1.394 . S
C653 C654 1.383 . S
C653 H661 0.929 . S
C654 C653 1.383 . S
C654 C655 1.377 . S
C655 H639 0.930 . S
C655 C654 1.377 . S
C655 C656 1.379 . S
C656 H640 0.931 . S
C656 C650 1.383 . S
C656 C655 1.379 . S
H657 C651 0.959 . S
H658 C651 0.961 . S
H659 C651 0.960 . S
H660 C652 0.930 . S
H661 C653 0.929 . S
H662 C670 0.929 . S
H663 C672 0.930 . S
H664 C674 0.930 . S
H665 C677 0.929 . S
H666 C680 0.930 . S
H667 C682 0.960 . S
H668 C682 0.960 . S
H669 C682 0.960 . S
C670 H662 0.929 . S
C670 C671 1.377 . S
C670 C672 1.384 . S
C671 C670 1.377 . S
C671 C677 1.390 . S
C672 H663 0.930 . S
C672 C670 1.384 . S
C672 C673 1.372 . S
C673 C672 1.372 . S
C673 C674 1.400 . S
C673 C678 1.490 . S
C674 H664 0.930 . S
C674 C673 1.400 . S
C674 C677 1.386 . S
H675 C691 0.930 . S
H676 C692 0.931 . S
C677 H665 0.929 . S
C677 C671 1.390 . S
C677 C674 1.386 . S
C678 C673 1.490 . S
C678 C680 1.395 . S
C678 C681 1.403 . S
H679 C685 0.930 . S
C680 H666 0.930 . S
C680 C678 1.395 . S
C680 C683 1.403 . S
C681 C678 1.403 . S
C681 C682 1.524 . S
C681 C685 1.400 . S
C682 H667 0.960 . S
C682 H668 0.960 . S
C682 H669 0.960 . S
C682 C681 1.524 . S
C683 C680 1.403 . S
C683 C684 1.392 . S
C683 C687 1.495 . S
C684 C683 1.392 . S
C684 C685 1.385 . S
C684 C686 1.478 . S
C685 H679 0.930 . S
C685 C681 1.400 . S
C685 C684 1.385 . S
C686 C684 1.478 . S
C686 C688 1.381 . S
C686 C692 1.383 . S
C687 C683 1.495 . S
C687 H693 0.959 . S
C687 H694 0.961 . S
C687 H695 0.960 . S
C688 C686 1.381 . S
C688 C689 1.394 . S
C688 H696 0.930 . S
C689 C688 1.394 . S
C689 C690 1.383 . S
C689 H697 0.929 . S
C690 C689 1.383 . S
C690 C691 1.377 . S
C691 H675 0.930 . S
C691 C690 1.377 . S
C691 C692 1.379 . S
C692 H676 0.931 . S
C692 C686 1.383 . S
C692 C691 1.379 . S
H693 C687 0.959 . S
H694 C687 0.961 . S
H695 C687 0.960 . S
H696 C688 0.930 . S
H697 C689 0.929 . S
H698 C706 0.929 . S
H699 C708 0.930 . S
H700 C710 0.930 . S
H701 C713 0.929 . S
H702 C716 0.930 . S
H703 C718 0.960 . S
H704 C718 0.960 . S
H705 C718 0.960 . S
C706 H698 0.929 . S
C706 C707 1.377 . S
C706 C708 1.384 . S
C707 C706 1.377 . S
C707 C713 1.390 . S
C708 H699 0.930 . S
C708 C706 1.384 . S
C708 C709 1.372 . S
C709 C708 1.372 . S
C709 C710 1.400 . S
C709 C714 1.490 . S
C710 H700 0.930 . S
C710 C709 1.400 . S
C710 C713 1.386 . S
H711 C727 0.930 . S
H712 C728 0.931 . S
C713 H701 0.929 . S
C713 C707 1.390 . S
C713 C710 1.386 . S
C714 C709 1.490 . S
C714 C716 1.395 . S
C714 C717 1.403 . S
H715 C721 0.930 . S
C716 H702 0.930 . S
C716 C714 1.395 . S
C716 C719 1.403 . S
C717 C714 1.403 . S
C717 C718 1.524 . S
C717 C721 1.400 . S
C718 H703 0.960 . S
C718 H704 0.960 . S
C718 H705 0.960 . S
C718 C717 1.524 . S
C719 C716 1.403 . S
C719 C720 1.392 . S
C719 C723 1.495 . S
C720 C719 1.392 . S
C720 C721 1.385 . S
C720 C722 1.478 . S
C721 H715 0.930 . S
C721 C717 1.400 . S
C721 C720 1.385 . S
C722 C720 1.478 . S
C722 C724 1.381 . S
C722 C728 1.383 . S
C723 C719 1.495 . S
C723 H729 0.959 . S
C723 H730 0.961 . S
C723 H731 0.960 . S
C724 C722 1.381 . S
C724 C725 1.394 . S
C724 H732 0.930 . S
C725 C724 1.394 . S
C725 C726 1.383 . S
C725 H733 0.929 . S
C726 C725 1.383 . S
C726 C727 1.377 . S
C727 H711 0.930 . S
C727 C726 1.377 . S
C727 C728 1.379 . S
C728 H712 0.931 . S
C728 C722 1.383 . S
C728 C727 1.379 . S
H729 C723 0.959 . S
H730 C723 0.961 . S
H731 C723 0.960 . S
H732 C724 0.930 . S
H733 C725 0.929 . S
H734 C742 0.929 . S
H735 C744 0.930 . S
H736 C746 0.930 . S
H737 C749 0.929 . S
H738 C752 0.930 . S
H739 C754 0.960 . S
H740 C754 0.960 . S
H741 C754 0.960 . S
C742 H734 0.929 . S
C742 C743 1.377 . S
C742 C744 1.384 . S
C743 C742 1.377 . S
C743 C749 1.390 . S
C744 H735 0.930 . S
C744 C742 1.384 . S
C744 C745 1.372 . S
C745 C744 1.372 . S
C745 C746 1.400 . S
C745 C750 1.490 . S
C746 H736 0.930 . S
C746 C745 1.400 . S
C746 C749 1.386 . S
H747 C763 0.930 . S
H748 C764 0.931 . S
C749 H737 0.929 . S
C749 C743 1.390 . S
C749 C746 1.386 . S
C750 C745 1.490 . S
C750 C752 1.395 . S
C750 C753 1.403 . S
H751 C757 0.930 . S
C752 H738 0.930 . S
C752 C750 1.395 . S
C752 C755 1.403 . S
C753 C750 1.403 . S
C753 C754 1.524 . S
C753 C757 1.400 . S
C754 H739 0.960 . S
C754 H740 0.960 . S
C754 H741 0.960 . S
C754 C753 1.524 . S
C755 C752 1.403 . S
C755 C756 1.392 . S
C755 C759 1.495 . S
C756 C755 1.392 . S
C756 C757 1.385 . S
C756 C758 1.478 . S
C757 H751 0.930 . S
C757 C753 1.400 . S
C757 C756 1.385 . S
C758 C756 1.478 . S
C758 C760 1.381 . S
C758 C764 1.383 . S
C759 C755 1.495 . S
C759 H765 0.959 . S
C759 H766 0.961 . S
C759 H767 0.960 . S
C760 C758 1.381 . S
C760 C761 1.394 . S
C760 H768 0.930 . S
C761 C760 1.394 . S
C761 C762 1.383 . S
C761 H769 0.929 . S
C762 C761 1.383 . S
C762 C763 1.377 . S
C763 H747 0.930 . S
C763 C762 1.377 . S
C763 C764 1.379 . S
C764 H748 0.931 . S
C764 C758 1.383 . S
C764 C763 1.379 . S
H765 C759 0.959 . S
H766 C759 0.961 . S
H767 C759 0.960 . S
H768 C760 0.930 . S
H769 C761 0.929 . S
H770 C778 0.929 . S
H771 C780 0.930 . S
H772 C782 0.930 . S
H773 C785 0.929 . S
H774 C788 0.930 . S
H775 C790 0.960 . S
H776 C790 0.960 . S
H777 C790 0.960 . S
C778 H770 0.929 . S
C778 C779 1.377 . S
C778 C780 1.384 . S
C779 C778 1.377 . S
C779 C785 1.390 . S
C780 H771 0.930 . S
C780 C778 1.384 . S
C780 C781 1.372 . S
C781 C780 1.372 . S
C781 C782 1.400 . S
C781 C786 1.490 . S
C782 H772 0.930 . S
C782 C781 1.400 . S
C782 C785 1.386 . S
H783 C799 0.930 . S
H784 C800 0.931 . S
C785 H773 0.929 . S
C785 C779 1.390 . S
C785 C782 1.386 . S
C786 C781 1.490 . S
C786 C788 1.395 . S
C786 C789 1.403 . S
H787 C793 0.930 . S
C788 H774 0.930 . S
C788 C786 1.395 . S
C788 C791 1.403 . S
C789 C786 1.403 . S
C789 C790 1.524 . S
C789 C793 1.400 . S
C790 H775 0.960 . S
C790 H776 0.960 . S
C790 H777 0.960 . S
C790 C789 1.524 . S
C791 C788 1.403 . S
C791 C792 1.392 . S
C791 C795 1.495 . S
C792 C791 1.392 . S
C792 C793 1.385 . S
C792 C794 1.478 . S
C793 H787 0.930 . S
C793 C789 1.400 . S
C793 C792 1.385 . S
C794 C792 1.478 . S
C794 C796 1.381 . S
C794 C800 1.383 . S
C795 C791 1.495 . S
C795 H801 0.959 . S
C795 H802 0.961 . S
C795 H803 0.960 . S
C796 C794 1.381 . S
C796 C797 1.394 . S
C796 H804 0.930 . S
C797 C796 1.394 . S
C797 C798 1.383 . S
C797 H805 0.929 . S
C798 C797 1.383 . S
C798 C799 1.377 . S
C799 H783 0.930 . S
C799 C798 1.377 . S
C799 C800 1.379 . S
C800 H784 0.931 . S
C800 C794 1.383 . S
C800 C799 1.379 . S
H801 C795 0.959 . S
H802 C795 0.961 . S
H803 C795 0.960 . S
H804 C796 0.930 . S
H805 C797 0.929 . S
H806 C814 0.929 . S
H807 C816 0.930 . S
H808 C818 0.930 . S
H809 C821 0.929 . S
H810 C824 0.930 . S
H811 C826 0.960 . S
H812 C826 0.960 . S
H813 C826 0.960 . S
C814 H806 0.929 . S
C814 C815 1.377 . S
C814 C816 1.384 . S
C815 C814 1.377 . S
C815 C821 1.390 . S
C816 H807 0.930 . S
C816 C814 1.384 . S
C816 C817 1.372 . S
C817 C816 1.372 . S
C817 C818 1.400 . S
C817 C822 1.490 . S
C818 H808 0.930 . S
C818 C817 1.400 . S
C818 C821 1.386 . S
H819 C835 0.930 . S
H820 C836 0.931 . S
C821 H809 0.929 . S
C821 C815 1.390 . S
C821 C818 1.386 . S
C822 C817 1.490 . S
C822 C824 1.395 . S
C822 C825 1.403 . S
H823 C829 0.930 . S
C824 H810 0.930 . S
C824 C822 1.395 . S
C824 C827 1.403 . S
C825 C822 1.403 . S
C825 C826 1.524 . S
C825 C829 1.400 . S
C826 H811 0.960 . S
C826 H812 0.960 . S
C826 H813 0.960 . S
C826 C825 1.524 . S
C827 C824 1.403 . S
C827 C828 1.392 . S
C827 C831 1.495 . S
C828 C827 1.392 . S
C828 C829 1.385 . S
C828 C830 1.478 . S
C829 H823 0.930 . S
C829 C825 1.400 . S
C829 C828 1.385 . S
C830 C828 1.478 . S
C830 C832 1.381 . S
C830 C836 1.383 . S
C831 C827 1.495 . S
C831 H837 0.959 . S
C831 H838 0.961 . S
C831 H839 0.960 . S
C832 C830 1.381 . S
C832 C833 1.394 . S
C832 H840 0.930 . S
C833 C832 1.394 . S
C833 C834 1.383 . S
C833 H841 0.929 . S
C834 C833 1.383 . S
C834 C835 1.377 . S
C835 H819 0.930 . S
C835 C834 1.377 . S
C835 C836 1.379 . S
C836 H820 0.931 . S
C836 C830 1.383 . S
C836 C835 1.379 . S
H837 C831 0.959 . S
H838 C831 0.961 . S
H839 C831 0.960 . S
H840 C832 0.930 . S
H841 C833 0.929 . S
H842 C850 0.929 . S
H843 C852 0.930 . S
H844 C854 0.930 . S
H845 C857 0.929 . S
H846 C860 0.930 . S
H847 C862 0.960 . S
H848 C862 0.960 . S
H849 C862 0.960 . S
C850 H842 0.929 . S
C850 C851 1.377 . S
C850 C852 1.384 . S
C851 C850 1.377 . S
C851 C857 1.390 . S
C852 H843 0.930 . S
C852 C850 1.384 . S
C852 C853 1.372 . S
C853 C852 1.372 . S
C853 C854 1.400 . S
C853 C858 1.490 . S
C854 H844 0.930 . S
C854 C853 1.400 . S
C854 C857 1.386 . S
H855 C871 0.930 . S
H856 C872 0.931 . S
C857 H845 0.929 . S
C857 C851 1.390 . S
C857 C854 1.386 . S
C858 C853 1.490 . S
C858 C860 1.395 . S
C858 C861 1.403 . S
H859 C865 0.930 . S
C860 H846 0.930 . S
C860 C858 1.395 . S
C860 C863 1.403 . S
C861 C858 1.403 . S
C861 C862 1.524 . S
C861 C865 1.400 . S
C862 H847 0.960 . S
C862 H848 0.960 . S
C862 H849 0.960 . S
C862 C861 1.524 . S
C863 C860 1.403 . S
C863 C864 1.392 . S
C863 C867 1.495 . S
C864 C863 1.392 . S
C864 C865 1.385 . S
C864 C866 1.478 . S
C865 H859 0.930 . S
C865 C861 1.400 . S
C865 C864 1.385 . S
C866 C864 1.478 . S
C866 C868 1.381 . S
C866 C872 1.383 . S
C867 C863 1.495 . S
C867 H873 0.959 . S
C867 H874 0.961 . S
C867 H875 0.960 . S
C868 C866 1.381 . S
C868 C869 1.394 . S
C868 H876 0.930 . S
C869 C868 1.394 . S
C869 C870 1.383 . S
C869 H877 0.929 . S
C870 C869 1.383 . S
C870 C871 1.377 . S
C871 H855 0.930 . S
C871 C870 1.377 . S
C871 C872 1.379 . S
C872 H856 0.931 . S
C872 C866 1.383 . S
C872 C871 1.379 . S
H873 C867 0.959 . S
H874 C867 0.961 . S
H875 C867 0.960 . S
H876 C868 0.930 . S
H877 C869 0.929 . S
H878 C886 0.929 . S
H879 C888 0.930 . S
H880 C890 0.930 . S
H881 C893 0.929 . S
H882 C896 0.930 . S
H883 C898 0.960 . S
H884 C898 0.960 . S
H885 C898 0.960 . S
C886 H878 0.929 . S
C886 C887 1.377 . S
C886 C888 1.384 . S
C887 C886 1.377 . S
C887 C893 1.390 . S
C888 H879 0.930 . S
C888 C886 1.384 . S
C888 C889 1.372 . S
C889 C888 1.372 . S
C889 C890 1.400 . S
C889 C894 1.490 . S
C890 H880 0.930 . S
C890 C889 1.400 . S
C890 C893 1.386 . S
H891 C907 0.930 1_556 S
H892 C908 0.931 . S
C893 H881 0.929 . S
C893 C887 1.390 . S
C893 C890 1.386 . S
C894 C889 1.490 . S
C894 C896 1.395 . S
C894 C897 1.403 . S
H895 C901 0.930 . S
C896 H882 0.930 . S
C896 C894 1.395 . S
C896 C899 1.403 . S
C897 C894 1.403 . S
C897 C898 1.524 . S
C897 C901 1.400 . S
C898 H883 0.960 . S
C898 H884 0.960 . S
C898 H885 0.960 . S
C898 C897 1.524 . S
C899 C896 1.403 . S
C899 C900 1.392 . S
C899 C903 1.495 . S
C900 C899 1.392 . S
C900 C901 1.385 . S
C900 C902 1.478 . S
C901 H895 0.930 . S
C901 C897 1.400 . S
C901 C900 1.385 . S
C902 C900 1.478 . S
C902 C904 1.381 . S
C902 C908 1.383 . S
C903 C899 1.495 . S
C903 H909 0.959 . S
C903 H910 0.961 . S
C903 H911 0.960 . S
C904 C902 1.381 . S
C904 C905 1.394 . S
C904 H912 0.930 . S
C905 C904 1.394 . S
C905 C906 1.383 . S
C905 H913 0.929 . S
C906 C905 1.383 . S
C906 C907 1.377 . S
C907 H891 0.930 1_554 S
C907 C906 1.377 . S
C907 C908 1.379 . S
C908 H892 0.931 . S
C908 C902 1.383 . S
C908 C907 1.379 . S
H909 C903 0.959 . S
H910 C903 0.961 . S
H911 C903 0.960 . S
H912 C904 0.930 . S
H913 C905 0.929 . S
H914 C922 0.929 . S
H915 C924 0.930 . S
H916 C926 0.930 . S
H917 C929 0.929 . S
H918 C932 0.930 . S
H919 C934 0.960 . S
H920 C934 0.960 . S
H921 C934 0.960 . S
C922 H914 0.929 . S
C922 C923 1.377 . S
C922 C924 1.384 . S
C923 C922 1.377 . S
C923 C929 1.390 . S
C924 H915 0.930 . S
C924 C922 1.384 . S
C924 C925 1.372 . S
C925 C924 1.372 . S
C925 C926 1.400 . S
C925 C930 1.490 . S
C926 H916 0.930 . S
C926 C925 1.400 . S
C926 C929 1.386 . S
H927 C943 0.930 . S
H928 C944 0.931 . S
C929 H917 0.929 . S
C929 C923 1.390 . S
C929 C926 1.386 . S
C930 C925 1.490 . S
C930 C932 1.395 . S
C930 C933 1.403 . S
H931 C937 0.930 . S
C932 H918 0.930 . S
C932 C930 1.395 . S
C932 C935 1.403 . S
C933 C930 1.403 . S
C933 C934 1.524 . S
C933 C937 1.400 . S
C934 H919 0.960 . S
C934 H920 0.960 . S
C934 H921 0.960 . S
C934 C933 1.524 . S
C935 C932 1.403 . S
C935 C936 1.392 . S
C935 C939 1.495 . S
C936 C935 1.392 . S
C936 C937 1.385 . S
C936 C938 1.478 . S
C937 H931 0.930 . S
C937 C933 1.400 . S
C937 C936 1.385 . S
C938 C936 1.478 . S
C938 C940 1.381 . S
C938 C944 1.383 . S
C939 C935 1.495 . S
C939 H945 0.959 . S
C939 H946 0.961 . S
C939 H947 0.960 . S
C940 C938 1.381 . S
C940 C941 1.394 . S
C940 H948 0.930 . S
C941 C940 1.394 . S
C941 C942 1.383 . S
C941 H949 0.929 . S
C942 C941 1.383 . S
C942 C943 1.377 . S
C943 H927 0.930 . S
C943 C942 1.377 . S
C943 C944 1.379 . S
C944 H928 0.931 . S
C944 C938 1.383 . S
C944 C943 1.379 . S
H945 C939 0.959 . S
H946 C939 0.961 . S
H947 C939 0.960 . S
H948 C940 0.930 . S
H949 C941 0.929 . S
H950 C958 0.929 . S
H951 C960 0.930 . S
H952 C962 0.930 . S
H953 C965 0.929 . S
H954 C968 0.930 . S
H955 C970 0.960 . S
H956 C970 0.960 . S
H957 C970 0.960 . S
C958 H950 0.929 . S
C958 C959 1.377 . S
C958 C960 1.384 . S
C959 C958 1.377 . S
C959 C965 1.390 . S
C960 H951 0.930 . S
C960 C958 1.384 . S
C960 C961 1.372 . S
C961 C960 1.372 . S
C961 C962 1.400 . S
C961 C966 1.490 . S
C962 H952 0.930 . S
C962 C961 1.400 . S
C962 C965 1.386 . S
H963 C979 0.930 . S
H964 C980 0.931 . S
C965 H953 0.929 . S
C965 C959 1.390 . S
C965 C962 1.386 . S
C966 C961 1.490 . S
C966 C968 1.395 . S
C966 C969 1.403 . S
H967 C973 0.930 . S
C968 H954 0.930 . S
C968 C966 1.395 . S
C968 C971 1.403 . S
C969 C966 1.403 . S
C969 C970 1.524 . S
C969 C973 1.400 . S
C970 H955 0.960 . S
C970 H956 0.960 . S
C970 H957 0.960 . S
C970 C969 1.524 . S
C971 C968 1.403 . S
C971 C972 1.392 . S
C971 C975 1.495 . S
C972 C971 1.392 . S
C972 C973 1.385 . S
C972 C974 1.478 . S
C973 H967 0.930 . S
C973 C969 1.400 . S
C973 C972 1.385 . S
C974 C972 1.478 . S
C974 C976 1.381 . S
C974 C980 1.383 . S
C975 C971 1.495 . S
C975 H981 0.959 . S
C975 H982 0.961 . S
C975 H983 0.960 . S
C976 C974 1.381 . S
C976 C977 1.394 . S
C976 H984 0.930 . S
C977 C976 1.394 . S
C977 C978 1.383 . S
C977 H985 0.929 . S
C978 C977 1.383 . S
C978 C979 1.377 . S
C979 H963 0.930 . S
C979 C978 1.377 . S
C979 C980 1.379 . S
C980 H964 0.931 . S
C980 C974 1.383 . S
C980 C979 1.379 . S
H981 C975 0.959 . S
H982 C975 0.961 . S
H983 C975 0.960 . S
H984 C976 0.930 . S
H985 C977 0.929 . S
H986 C994 0.929 . S
H987 C996 0.930 . S
H988 C998 0.930 . S
H989 C1001 0.929 . S
H990 C1004 0.930 . S
H991 C1006 0.960 1_554 S
H992 C1006 0.960 . S
H993 C1006 0.960 . S
C994 H986 0.929 . S
C994 C995 1.377 . S
C994 C996 1.384 . S
C995 C994 1.377 . S
C995 C1001 1.390 . S
C996 H987 0.930 . S
C996 C994 1.384 . S
C996 C997 1.372 . S
C997 C996 1.372 . S
C997 C998 1.400 . S
C997 C1002 1.490 . S
C998 H988 0.930 . S
C998 C997 1.400 . S
C998 C1001 1.386 . S
H999 C1015 0.930 . S
H1000 C1016 0.931 . S
C1001 H989 0.929 . S
C1001 C995 1.390 . S
C1001 C998 1.386 . S
C1002 C997 1.490 . S
C1002 C1004 1.395 . S
C1002 C1005 1.403 . S
H1003 C1009 0.930 . S
C1004 H990 0.930 . S
C1004 C1002 1.395 . S
C1004 C1007 1.403 . S
C1005 C1002 1.403 . S
C1005 C1006 1.524 . S
C1005 C1009 1.400 . S
C1006 H991 0.960 1_556 S
C1006 H992 0.960 . S
C1006 H993 0.960 . S
C1006 C1005 1.524 . S
C1007 C1004 1.403 . S
C1007 C1008 1.392 . S
C1007 C1011 1.495 . S
C1008 C1007 1.392 . S
C1008 C1009 1.385 . S
C1008 C1010 1.478 . S
C1009 H1003 0.930 . S
C1009 C1005 1.400 . S
C1009 C1008 1.385 . S
C1010 C1008 1.478 . S
C1010 C1012 1.381 . S
C1010 C1016 1.383 . S
C1011 C1007 1.495 . S
C1011 H1017 0.959 . S
C1011 H1018 0.961 . S
C1011 H1019 0.960 . S
C1012 C1010 1.381 . S
C1012 C1013 1.394 . S
C1012 H1020 0.930 . S
C1013 C1012 1.394 . S
C1013 C1014 1.383 . S
C1013 H1021 0.929 . S
C1014 C1013 1.383 . S
C1014 C1015 1.377 . S
C1015 H999 0.930 . S
C1015 C1014 1.377 . S
C1015 C1016 1.379 . S
C1016 H1000 0.931 . S
C1016 C1010 1.383 . S
C1016 C1015 1.379 . S
H1017 C1011 0.959 . S
H1018 C1011 0.961 . S
H1019 C1011 0.960 . S
H1020 C1012 0.930 . S
H1021 C1013 0.929 . S
H1022 C1030 0.929 . S
H1023 C1032 0.930 . S
H1024 C1034 0.930 . S
H1025 C1037 0.929 . S
H1026 C1040 0.930 . S
H1027 C1042 0.960 . S
H1028 C1042 0.960 . S
H1029 C1042 0.960 . S
C1030 H1022 0.929 . S
C1030 C1031 1.377 . S
C1030 C1032 1.384 . S
C1031 C1030 1.377 . S
C1031 C1037 1.390 . S
C1032 H1023 0.930 . S
C1032 C1030 1.384 . S
C1032 C1033 1.372 . S
C1033 C1032 1.372 . S
C1033 C1034 1.400 . S
C1033 C1038 1.490 . S
C1034 H1024 0.930 . S
C1034 C1033 1.400 . S
C1034 C1037 1.386 . S
H1035 C1051 0.930 . S
H1036 C1052 0.931 . S
C1037 H1025 0.929 . S
C1037 C1031 1.390 . S
C1037 C1034 1.386 . S
C1038 C1033 1.490 . S
C1038 C1040 1.395 . S
C1038 C1041 1.403 . S
H1039 C1045 0.930 . S
C1040 H1026 0.930 . S
C1040 C1038 1.395 . S
C1040 C1043 1.403 . S
C1041 C1038 1.403 . S
C1041 C1042 1.524 . S
C1041 C1045 1.400 . S
C1042 H1027 0.960 . S
C1042 H1028 0.960 . S
C1042 H1029 0.960 . S
C1042 C1041 1.524 . S
C1043 C1040 1.403 . S
C1043 C1044 1.392 . S
C1043 C1047 1.495 . S
C1044 C1043 1.392 . S
C1044 C1045 1.385 . S
C1044 C1046 1.478 . S
C1045 H1039 0.930 . S
C1045 C1041 1.400 . S
C1045 C1044 1.385 . S
C1046 C1044 1.478 . S
C1046 C1048 1.381 . S
C1046 C1052 1.383 . S
C1047 C1043 1.495 . S
C1047 H1053 0.959 . S
C1047 H1054 0.961 . S
C1047 H1055 0.960 . S
C1048 C1046 1.381 . S
C1048 C1049 1.394 . S
C1048 H1056 0.930 . S
C1049 C1048 1.394 . S
C1049 C1050 1.383 . S
C1049 H1057 0.929 . S
C1050 C1049 1.383 . S
C1050 C1051 1.377 . S
C1051 H1035 0.930 . S
C1051 C1050 1.377 . S
C1051 C1052 1.379 . S
C1052 H1036 0.931 . S
C1052 C1046 1.383 . S
C1052 C1051 1.379 . S
H1053 C1047 0.959 . S
H1054 C1047 0.961 . S
H1055 C1047 0.960 . S
H1056 C1048 0.930 . S
H1057 C1049 0.929 . S
H1058 C1066 0.929 . S
H1059 C1068 0.930 . S
H1060 C1070 0.930 . S
H1061 C1073 0.929 . S
H1062 C1076 0.930 . S
H1063 C1078 0.960 . S
H1064 C1078 0.960 . S
H1065 C1078 0.960 . S
C1066 H1058 0.929 . S
C1066 C1067 1.377 . S
C1066 C1068 1.384 . S
C1067 C1066 1.377 . S
C1067 C1073 1.390 . S
C1068 H1059 0.930 . S
C1068 C1066 1.384 . S
C1068 C1069 1.372 . S
C1069 C1068 1.372 . S
C1069 C1070 1.400 . S
C1069 C1074 1.490 . S
C1070 H1060 0.930 . S
C1070 C1069 1.400 . S
C1070 C1073 1.386 . S
H1071 C1087 0.930 1_554 S
H1072 C1088 0.931 . S
C1073 H1061 0.929 . S
C1073 C1067 1.390 . S
C1073 C1070 1.386 . S
C1074 C1069 1.490 . S
C1074 C1076 1.395 . S
C1074 C1077 1.403 . S
H1075 C1081 0.930 . S
C1076 H1062 0.930 . S
C1076 C1074 1.395 . S
C1076 C1079 1.403 . S
C1077 C1074 1.403 . S
C1077 C1078 1.524 . S
C1077 C1081 1.400 . S
C1078 H1063 0.960 . S
C1078 H1064 0.960 . S
C1078 H1065 0.960 . S
C1078 C1077 1.524 . S
C1079 C1076 1.403 . S
C1079 C1080 1.392 . S
C1079 C1083 1.495 . S
C1080 C1079 1.392 . S
C1080 C1081 1.385 . S
C1080 C1082 1.478 . S
C1081 H1075 0.930 . S
C1081 C1077 1.400 . S
C1081 C1080 1.385 . S
C1082 C1080 1.478 . S
C1082 C1084 1.381 . S
C1082 C1088 1.383 . S
C1083 C1079 1.495 . S
C1083 H1089 0.959 . S
C1083 H1090 0.961 . S
C1083 H1091 0.960 . S
C1084 C1082 1.381 . S
C1084 C1085 1.394 . S
C1084 H1092 0.930 . S
C1085 C1084 1.394 . S
C1085 C1086 1.383 . S
C1085 H1093 0.929 . S
C1086 C1085 1.383 . S
C1086 C1087 1.377 . S
C1087 H1071 0.930 1_556 S
C1087 C1086 1.377 . S
C1087 C1088 1.379 . S
C1088 H1072 0.931 . S
C1088 C1082 1.383 . S
C1088 C1087 1.379 . S
H1089 C1083 0.959 . S
H1090 C1083 0.961 . S
H1091 C1083 0.960 . S
H1092 C1084 0.930 . S
H1093 C1085 0.929 . S
H1094 C1102 0.929 . S
H1095 C1104 0.930 . S
H1096 C1106 0.930 . S
H1097 C1109 0.929 . S
H1098 C1112 0.930 . S
H1099 C1114 0.960 . S
H1100 C1114 0.960 . S
H1101 C1114 0.960 . S
C1102 H1094 0.929 . S
C1102 C1103 1.377 . S
C1102 C1104 1.384 . S
C1103 C1102 1.377 . S
C1103 C1109 1.390 . S
C1104 H1095 0.930 . S
C1104 C1102 1.384 . S
C1104 C1105 1.372 . S
C1105 C1104 1.372 . S
C1105 C1106 1.400 . S
C1105 C1110 1.490 . S
C1106 H1096 0.930 . S
C1106 C1105 1.400 . S
C1106 C1109 1.386 . S
H1107 C1123 0.930 . S
H1108 C1124 0.931 . S
C1109 H1097 0.929 . S
C1109 C1103 1.390 . S
C1109 C1106 1.386 . S
C1110 C1105 1.490 . S
C1110 C1112 1.395 . S
C1110 C1113 1.403 . S
H1111 C1117 0.930 . S
C1112 H1098 0.930 . S
C1112 C1110 1.395 . S
C1112 C1115 1.403 . S
C1113 C1110 1.403 . S
C1113 C1114 1.524 . S
C1113 C1117 1.400 . S
C1114 H1099 0.960 . S
C1114 H1100 0.960 . S
C1114 H1101 0.960 . S
C1114 C1113 1.524 . S
C1115 C1112 1.403 . S
C1115 C1116 1.392 . S
C1115 C1119 1.495 . S
C1116 C1115 1.392 . S
C1116 C1117 1.385 . S
C1116 C1118 1.478 . S
C1117 H1111 0.930 . S
C1117 C1113 1.400 . S
C1117 C1116 1.385 . S
C1118 C1116 1.478 . S
C1118 C1120 1.381 . S
C1118 C1124 1.383 . S
C1119 C1115 1.495 . S
C1119 H1125 0.959 . S
C1119 H1126 0.961 . S
C1119 H1127 0.960 . S
C1120 C1118 1.381 . S
C1120 C1121 1.394 . S
C1120 H1128 0.930 . S
C1121 C1120 1.394 . S
C1121 C1122 1.383 . S
C1121 H1129 0.929 . S
C1122 C1121 1.383 . S
C1122 C1123 1.377 . S
C1123 H1107 0.930 . S
C1123 C1122 1.377 . S
C1123 C1124 1.379 . S
C1124 H1108 0.931 . S
C1124 C1118 1.383 . S
C1124 C1123 1.379 . S
H1125 C1119 0.959 . S
H1126 C1119 0.961 . S
H1127 C1119 0.960 . S
H1128 C1120 0.930 . S
H1129 C1121 0.929 . S
H1130 C1138 0.929 . S
H1131 C1140 0.930 . S
H1132 C1142 0.930 . S
H1133 C1145 0.929 . S
H1134 C1148 0.930 . S
H1135 C1150 0.960 1_554 S
H1136 C1150 0.960 . S
H1137 C1150 0.960 1_554 S
C1138 H1130 0.929 . S
C1138 C1139 1.377 . S
C1138 C1140 1.384 . S
C1139 C1138 1.377 . S
C1139 C1145 1.390 . S
C1140 H1131 0.930 . S
C1140 C1138 1.384 . S
C1140 C1141 1.372 . S
C1141 C1140 1.372 . S
C1141 C1142 1.400 . S
C1141 C1146 1.490 . S
C1142 H1132 0.930 . S
C1142 C1141 1.400 . S
C1142 C1145 1.386 . S
H1143 C1159 0.930 . S
H1144 C1160 0.931 . S
C1145 H1133 0.929 . S
C1145 C1139 1.390 . S
C1145 C1142 1.386 . S
C1146 C1141 1.490 . S
C1146 C1148 1.395 . S
C1146 C1149 1.403 . S
H1147 C1153 0.905 1_554 S
C1148 H1134 0.930 . S
C1148 C1146 1.395 . S
C1148 C1151 1.403 . S
C1149 C1146 1.403 . S
C1149 C1150 1.524 . S
C1149 C1153 1.400 . S
C1150 H1135 0.960 1_556 S
C1150 H1136 0.960 . S
C1150 H1137 0.960 1_556 S
C1150 C1149 1.524 . S
C1151 C1148 1.403 . S
C1151 C1152 1.392 . S
C1151 C1155 1.495 . S
C1152 C1151 1.392 . S
C1152 C1153 1.385 . S
C1152 C1154 1.478 . S
C1153 H1147 0.905 1_556 S
C1153 C1149 1.400 . S
C1153 C1152 1.385 . S
C1154 C1152 1.478 . S
C1154 C1156 1.381 . S
C1154 C1160 1.383 1_556 S
C1155 C1151 1.495 . S
C1155 H1161 0.959 . S
C1155 H1162 0.961 . S
C1155 H1163 0.960 . S
C1156 C1154 1.381 . S
C1156 C1157 1.394 . S
C1156 H1164 0.930 . S
C1157 C1156 1.394 . S
C1157 C1158 1.383 1_556 S
C1157 H1165 0.929 . S
C1158 C1157 1.383 1_554 S
C1158 C1159 1.377 . S
C1159 H1143 0.930 . S
C1159 C1158 1.377 . S
C1159 C1160 1.379 . S
C1160 H1144 0.931 . S
C1160 C1154 1.383 1_554 S
C1160 C1159 1.379 . S
H1161 C1155 0.959 . S
H1162 C1155 0.961 . S
H1163 C1155 0.960 . S
H1164 C1156 0.930 . S
H1165 C1157 0.929 . S
H1166 C1174 0.929 . S
H1167 C1176 0.930 . S
H1168 C1178 0.930 . S
H1169 C1181 0.929 . S
H1170 C1184 0.930 . S
H1171 C1186 0.960 . S
H1172 C1186 0.960 . S
H1173 C1186 0.960 . S
C1174 H1166 0.929 . S
C1174 C1175 1.377 . S
C1174 C1176 1.384 . S
C1175 C1174 1.377 . S
C1175 C1181 1.390 . S
C1176 H1167 0.930 . S
C1176 C1174 1.384 . S
C1176 C1177 1.372 . S
C1177 C1176 1.372 . S
C1177 C1178 1.400 . S
C1177 C1182 1.490 . S
C1178 H1168 0.930 . S
C1178 C1177 1.400 . S
C1178 C1181 1.386 . S
H1179 C1195 0.930 . S
H1180 C1196 0.931 . S
C1181 H1169 0.929 . S
C1181 C1175 1.390 . S
C1181 C1178 1.386 . S
C1182 C1177 1.490 . S
C1182 C1184 1.395 . S
C1182 C1185 1.403 . S
H1183 C1189 0.930 . S
C1184 H1170 0.930 . S
C1184 C1182 1.395 . S
C1184 C1187 1.403 . S
C1185 C1182 1.403 . S
C1185 C1186 1.524 . S
C1185 C1189 1.400 . S
C1186 H1171 0.960 . S
C1186 H1172 0.960 . S
C1186 H1173 0.960 . S
C1186 C1185 1.524 . S
C1187 C1184 1.403 . S
C1187 C1188 1.392 . S
C1187 C1191 1.495 . S
C1188 C1187 1.392 . S
C1188 C1189 1.385 . S
C1188 C1190 1.478 . S
C1189 H1183 0.930 . S
C1189 C1185 1.400 . S
C1189 C1188 1.385 . S
C1190 C1188 1.478 . S
C1190 C1192 1.381 . S
C1190 C1196 1.383 . S
C1191 C1187 1.495 . S
C1191 H1197 0.959 . S
C1191 H1198 0.961 . S
C1191 H1199 0.960 . S
C1192 C1190 1.381 . S
C1192 C1193 1.394 . S
C1192 H1200 0.930 . S
C1193 C1192 1.394 . S
C1193 C1194 1.383 . S
C1193 H1201 0.929 . S
C1194 C1193 1.383 . S
C1194 C1195 1.377 . S
C1195 H1179 0.930 . S
C1195 C1194 1.377 . S
C1195 C1196 1.379 . S
C1196 H1180 0.931 . S
C1196 C1190 1.383 . S
C1196 C1195 1.379 . S
H1197 C1191 0.959 . S
H1198 C1191 0.961 . S
H1199 C1191 0.960 . S
H1200 C1192 0.930 . S
H1201 C1193 0.929 . S
H1202 C1210 0.929 . S
H1203 C1212 0.930 . S
H1204 C1214 0.930 . S
H1205 C1217 0.929 . S
H1206 C1220 0.930 . S
H1207 C1222 0.960 . S
H1208 C1222 0.960 . S
H1209 C1222 0.960 . S
C1210 H1202 0.929 . S
C1210 C1211 1.377 . S
C1210 C1212 1.384 . S
C1211 C1210 1.377 . S
C1211 C1217 1.390 . S
C1212 H1203 0.930 . S
C1212 C1210 1.384 . S
C1212 C1213 1.372 . S
C1213 C1212 1.372 . S
C1213 C1214 1.400 . S
C1213 C1218 1.490 . S
C1214 H1204 0.930 . S
C1214 C1213 1.400 . S
C1214 C1217 1.386 . S
H1215 C1231 0.930 . S
H1216 C1232 0.931 1_554 S
C1217 H1205 0.929 . S
C1217 C1211 1.390 . S
C1217 C1214 1.386 . S
C1218 C1213 1.490 . S
C1218 C1220 1.395 . S
C1218 C1221 1.403 . S
H1219 C1225 0.930 . S
C1220 H1206 0.930 . S
C1220 C1218 1.395 . S
C1220 C1223 1.403 . S
C1221 C1218 1.403 . S
C1221 C1222 1.524 . S
C1221 C1225 1.400 . S
C1222 H1207 0.960 . S
C1222 H1208 0.960 . S
C1222 H1209 0.960 . S
C1222 C1221 1.524 . S
C1223 C1220 1.403 . S
C1223 C1224 1.392 . S
C1223 C1227 1.495 . S
C1224 C1223 1.392 . S
C1224 C1225 1.385 . S
C1224 C1226 1.478 . S
C1225 H1219 0.930 . S
C1225 C1221 1.400 . S
C1225 C1224 1.385 . S
C1226 C1224 1.478 . S
C1226 C1228 1.381 . S
C1226 C1232 1.383 . S
C1227 C1223 1.495 . S
C1227 H1233 0.959 . S
C1227 H1234 0.961 . S
C1227 H1235 0.960 . S
C1228 C1226 1.381 . S
C1228 C1229 1.394 . S
C1228 H1236 0.930 . S
C1229 C1228 1.394 . S
C1229 C1230 1.383 . S
C1229 H1237 0.929 . S
C1230 C1229 1.383 . S
C1230 C1231 1.377 1_556 S
C1231 H1215 0.930 . S
C1231 C1230 1.377 1_554 S
C1231 C1232 1.379 1_554 S
C1232 H1216 0.931 1_556 S
C1232 C1226 1.383 . S
C1232 C1231 1.379 1_556 S
H1233 C1227 0.959 . S
H1234 C1227 0.961 . S
H1235 C1227 0.960 . S
H1236 C1228 0.930 . S
H1237 C1229 0.929 . S
H1238 C1246 0.929 . S
H1239 C1248 0.930 . S
H1240 C1250 0.930 . S
H1241 C1253 0.929 . S
H1242 C1256 0.930 . S
H1243 C1258 0.960 . S
H1244 C1258 0.960 . S
H1245 C1258 0.960 . S
C1246 H1238 0.929 . S
C1246 C1247 1.377 . S
C1246 C1248 1.384 . S
C1247 C1246 1.377 . S
C1247 C1253 1.390 . S
C1248 H1239 0.930 . S
C1248 C1246 1.384 . S
C1248 C1249 1.372 . S
C1249 C1248 1.372 . S
C1249 C1250 1.400 . S
C1249 C1254 1.490 . S
C1250 H1240 0.930 . S
C1250 C1249 1.400 . S
C1250 C1253 1.386 . S
H1251 C1267 0.930 . S
H1252 C1268 0.931 . S
C1253 H1241 0.929 . S
C1253 C1247 1.390 . S
C1253 C1250 1.386 . S
C1254 C1249 1.490 . S
C1254 C1256 1.395 . S
C1254 C1257 1.403 . S
H1255 C1261 0.930 . S
C1256 H1242 0.930 . S
C1256 C1254 1.395 . S
C1256 C1259 1.403 . S
C1257 C1254 1.403 . S
C1257 C1258 1.524 . S
C1257 C1261 1.400 . S
C1258 H1243 0.960 . S
C1258 H1244 0.960 . S
C1258 H1245 0.960 . S
C1258 C1257 1.524 . S
C1259 C1256 1.403 . S
C1259 C1260 1.392 . S
C1259 C1263 1.495 . S
C1260 C1259 1.392 . S
C1260 C1261 1.385 . S
C1260 C1262 1.478 . S
C1261 H1255 0.930 . S
C1261 C1257 1.400 . S
C1261 C1260 1.385 . S
C1262 C1260 1.478 . S
C1262 C1264 1.381 . S
C1262 C1268 1.383 . S
C1263 C1259 1.495 . S
C1263 H1269 0.959 . S
C1263 H1270 0.961 . S
C1263 H1271 0.960 . S
C1264 C1262 1.381 . S
C1264 C1265 1.394 . S
C1264 H1272 0.930 . S
C1265 C1264 1.394 . S
C1265 C1266 1.383 . S
C1265 H1273 0.929 . S
C1266 C1265 1.383 . S
C1266 C1267 1.377 . S
C1267 H1251 0.930 . S
C1267 C1266 1.377 . S
C1267 C1268 1.379 . S
C1268 H1252 0.931 . S
C1268 C1262 1.383 . S
C1268 C1267 1.379 . S
H1269 C1263 0.959 . S
H1270 C1263 0.961 . S
H1271 C1263 0.960 . S
H1272 C1264 0.930 . S
H1273 C1265 0.929 . S
H1274 C1282 0.929 . S
H1275 C1284 0.930 . S
H1276 C1286 0.930 . S
H1277 C1289 0.929 . S
H1278 C1292 0.930 . S
H1279 C1294 0.960 . S
H1280 C1294 0.960 . S
H1281 C1294 0.960 . S
C1282 H1274 0.929 . S
C1282 C1283 1.377 . S
C1282 C1284 1.384 . S
C1283 C1282 1.377 . S
C1283 C1289 1.390 . S
C1284 H1275 0.930 . S
C1284 C1282 1.384 . S
C1284 C1285 1.372 . S
C1285 C1284 1.372 . S
C1285 C1286 1.400 . S
C1285 C1290 1.490 . S
C1286 H1276 0.930 . S
C1286 C1285 1.400 . S
C1286 C1289 1.386 . S
H1287 C1303 0.930 . S
H1288 C1304 0.931 . S
C1289 H1277 0.929 . S
C1289 C1283 1.390 . S
C1289 C1286 1.386 . S
C1290 C1285 1.490 . S
C1290 C1292 1.395 . S
C1290 C1293 1.403 . S
H1291 C1297 0.930 . S
C1292 H1278 0.930 . S
C1292 C1290 1.395 . S
C1292 C1295 1.403 . S
C1293 C1290 1.403 . S
C1293 C1294 1.524 . S
C1293 C1297 1.400 . S
C1294 H1279 0.960 . S
C1294 H1280 0.960 . S
C1294 H1281 0.960 . S
C1294 C1293 1.524 . S
C1295 C1292 1.403 . S
C1295 C1296 1.392 . S
C1295 C1299 1.495 . S
C1296 C1295 1.392 . S
C1296 C1297 1.385 . S
C1296 C1298 1.478 . S
C1297 H1291 0.930 . S
C1297 C1293 1.400 . S
C1297 C1296 1.385 . S
C1298 C1296 1.478 . S
C1298 C1300 1.381 . S
C1298 C1304 1.383 . S
C1299 C1295 1.495 . S
C1299 H1305 0.959 . S
C1299 H1306 0.961 . S
C1299 H1307 0.960 . S
C1300 C1298 1.381 . S
C1300 C1301 1.394 . S
C1300 H1308 0.930 . S
C1301 C1300 1.394 . S
C1301 C1302 1.383 . S
C1301 H1309 0.929 . S
C1302 C1301 1.383 . S
C1302 C1303 1.377 . S
C1303 H1287 0.930 . S
C1303 C1302 1.377 . S
C1303 C1304 1.379 . S
C1304 H1288 0.931 . S
C1304 C1298 1.383 . S
C1304 C1303 1.379 . S
H1305 C1299 0.959 . S
H1306 C1299 0.961 . S
H1307 C1299 0.960 . S
H1308 C1300 0.930 . S
H1309 C1301 0.929 . S
H1310 C1318 0.929 . S
H1311 C1320 0.930 . S
H1312 C1322 0.930 . S
H1313 C1325 0.929 . S
H1314 C1328 0.930 . S
H1315 C1330 0.960 . S
H1316 C1330 0.960 . S
H1317 C1330 0.960 . S
C1318 H1310 0.929 . S
C1318 C1319 1.377 . S
C1318 C1320 1.384 . S
C1319 C1318 1.377 . S
C1319 C1325 1.390 . S
C1320 H1311 0.930 . S
C1320 C1318 1.384 . S
C1320 C1321 1.372 . S
C1321 C1320 1.372 . S
C1321 C1322 1.400 . S
C1321 C1326 1.490 . S
C1322 H1312 0.930 . S
C1322 C1321 1.400 . S
C1322 C1325 1.386 . S
H1323 C1339 0.930 . S
H1324 C1340 0.931 . S
C1325 H1313 0.929 . S
C1325 C1319 1.390 . S
C1325 C1322 1.386 . S
C1326 C1321 1.490 . S
C1326 C1328 1.395 . S
C1326 C1329 1.403 . S
H1327 C1333 0.930 . S
C1328 H1314 0.930 . S
C1328 C1326 1.395 . S
C1328 C1331 1.403 . S
C1329 C1326 1.403 . S
C1329 C1330 1.524 . S
C1329 C1333 1.400 . S
C1330 H1315 0.960 . S
C1330 H1316 0.960 . S
C1330 H1317 0.960 . S
C1330 C1329 1.524 . S
C1331 C1328 1.403 . S
C1331 C1332 1.392 . S
C1331 C1335 1.495 . S
C1332 C1331 1.392 . S
C1332 C1333 1.385 . S
C1332 C1334 1.478 . S
C1333 H1327 0.930 . S
C1333 C1329 1.400 . S
C1333 C1332 1.385 . S
C1334 C1332 1.478 . S
C1334 C1336 1.381 . S
C1334 C1340 1.383 . S
C1335 C1331 1.495 . S
C1335 H1341 0.959 . S
C1335 H1342 0.961 . S
C1335 H1343 0.960 . S
C1336 C1334 1.381 . S
C1336 C1337 1.394 . S
C1336 H1344 0.930 . S
C1337 C1336 1.394 . S
C1337 C1338 1.383 . S
C1337 H1345 0.929 . S
C1338 C1337 1.383 . S
C1338 C1339 1.377 . S
C1339 H1323 0.930 . S
C1339 C1338 1.377 . S
C1339 C1340 1.379 . S
C1340 H1324 0.931 . S
C1340 C1334 1.383 . S
C1340 C1339 1.379 . S
H1341 C1335 0.959 . S
H1342 C1335 0.961 . S
H1343 C1335 0.960 . S
H1344 C1336 0.930 . S
H1345 C1337 0.929 . S
H1346 C1354 0.929 . S
H1347 C1356 0.930 . S
H1348 C1358 0.930 . S
H1349 C1361 0.929 . S
H1350 C1364 0.930 . S
H1351 C1366 0.960 . S
H1352 C1366 0.960 . S
H1353 C1366 0.960 . S
C1354 H1346 0.929 . S
C1354 C1355 1.377 . S
C1354 C1356 1.384 . S
C1355 C1354 1.377 . S
C1355 C1361 1.390 . S
C1356 H1347 0.930 . S
C1356 C1354 1.384 . S
C1356 C1357 1.372 . S
C1357 C1356 1.372 . S
C1357 C1358 1.400 . S
C1357 C1362 1.490 . S
C1358 H1348 0.930 . S
C1358 C1357 1.400 . S
C1358 C1361 1.386 . S
H1359 C1375 0.930 . S
H1360 C1376 0.931 . S
C1361 H1349 0.929 . S
C1361 C1355 1.390 . S
C1361 C1358 1.386 . S
C1362 C1357 1.490 . S
C1362 C1364 1.395 . S
C1362 C1365 1.403 . S
H1363 C1369 0.930 . S
C1364 H1350 0.930 . S
C1364 C1362 1.395 . S
C1364 C1367 1.403 . S
C1365 C1362 1.403 . S
C1365 C1366 1.524 . S
C1365 C1369 1.400 . S
C1366 H1351 0.960 . S
C1366 H1352 0.960 . S
C1366 H1353 0.960 . S
C1366 C1365 1.524 . S
C1367 C1364 1.403 . S
C1367 C1368 1.392 . S
C1367 C1371 1.495 . S
C1368 C1367 1.392 . S
C1368 C1369 1.385 . S
C1368 C1370 1.478 . S
C1369 H1363 0.930 . S
C1369 C1365 1.400 . S
C1369 C1368 1.385 . S
C1370 C1368 1.478 . S
C1370 C1372 1.381 . S
C1370 C1376 1.383 . S
C1371 C1367 1.495 . S
C1371 H1377 0.959 . S
C1371 H1378 0.961 . S
C1371 H1379 0.960 . S
C1372 C1370 1.381 . S
C1372 C1373 1.394 . S
C1372 H1380 0.930 . S
C1373 C1372 1.394 . S
C1373 C1374 1.383 . S
C1373 H1381 0.929 . S
C1374 C1373 1.383 . S
C1374 C1375 1.377 . S
C1375 H1359 0.930 . S
C1375 C1374 1.377 . S
C1375 C1376 1.379 . S
C1376 H1360 0.931 . S
C1376 C1370 1.383 . S
C1376 C1375 1.379 . S
H1377 C1371 0.959 . S
H1378 C1371 0.961 . S
H1379 C1371 0.960 . S
H1380 C1372 0.930 . S
H1381 C1373 0.929 . S
H1382 C1390 0.929 . S
H1383 C1392 0.930 . S
H1384 C1394 0.930 . S
H1385 C1397 0.929 . S
H1386 C1400 0.930 . S
H1387 C1402 0.960 . S
H1388 C1402 0.960 . S
H1389 C1402 0.960 . S
C1390 H1382 0.929 . S
C1390 C1391 1.377 . S
C1390 C1392 1.384 . S
C1391 C1390 1.377 . S
C1391 C1397 1.390 . S
C1392 H1383 0.930 . S
C1392 C1390 1.384 . S
C1392 C1393 1.372 . S
C1393 C1392 1.372 . S
C1393 C1394 1.400 . S
C1393 C1398 1.490 . S
C1394 H1384 0.930 . S
C1394 C1393 1.400 . S
C1394 C1397 1.386 . S
H1395 C1411 0.930 . S
H1396 C1412 0.931 . S
C1397 H1385 0.929 . S
C1397 C1391 1.390 . S
C1397 C1394 1.386 . S
C1398 C1393 1.490 . S
C1398 C1400 1.395 . S
C1398 C1401 1.403 . S
H1399 C1405 0.930 . S
C1400 H1386 0.930 . S
C1400 C1398 1.395 . S
C1400 C1403 1.403 . S
C1401 C1398 1.403 . S
C1401 C1402 1.524 . S
C1401 C1405 1.400 . S
C1402 H1387 0.960 . S
C1402 H1388 0.960 . S
C1402 H1389 0.960 . S
C1402 C1401 1.524 . S
C1403 C1400 1.403 . S
C1403 C1404 1.392 . S
C1403 C1407 1.495 . S
C1404 C1403 1.392 . S
C1404 C1405 1.385 . S
C1404 C1406 1.478 . S
C1405 H1399 0.930 . S
C1405 C1401 1.400 . S
C1405 C1404 1.385 . S
C1406 C1404 1.478 . S
C1406 C1408 1.381 . S
C1406 C1412 1.383 . S
C1407 C1403 1.495 . S
C1407 H1413 0.959 . S
C1407 H1414 0.961 . S
C1407 H1415 0.960 . S
C1408 C1406 1.381 . S
C1408 C1409 1.394 . S
C1408 H1416 0.930 . S
C1409 C1408 1.394 . S
C1409 C1410 1.383 . S
C1409 H1417 0.929 . S
C1410 C1409 1.383 . S
C1410 C1411 1.377 . S
C1411 H1395 0.930 . S
C1411 C1410 1.377 . S
C1411 C1412 1.379 . S
C1412 H1396 0.931 . S
C1412 C1406 1.383 . S
C1412 C1411 1.379 . S
H1413 C1407 0.959 . S
H1414 C1407 0.961 . S
H1415 C1407 0.960 . S
H1416 C1408 0.930 . S
H1417 C1409 0.929 . S
H1418 C1426 0.929 . S
H1419 C1428 0.930 . S
H1420 C1430 0.930 . S
H1421 C1433 0.929 . S
H1422 C1436 0.930 . S
H1423 C1438 0.960 . S
H1424 C1438 0.960 . S
H1425 C1438 0.960 . S
C1426 H1418 0.929 . S
C1426 C1427 1.377 . S
C1426 C1428 1.384 . S
C1427 C1426 1.377 . S
C1427 C1433 1.390 . S
C1428 H1419 0.930 . S
C1428 C1426 1.384 . S
C1428 C1429 1.372 . S
C1429 C1428 1.372 . S
C1429 C1430 1.400 . S
C1429 C1434 1.490 . S
C1430 H1420 0.930 . S
C1430 C1429 1.400 . S
C1430 C1433 1.386 . S
H1431 C1447 0.930 1_554 S
H1432 C1448 0.931 . S
C1433 H1421 0.929 . S
C1433 C1427 1.390 . S
C1433 C1430 1.386 . S
C1434 C1429 1.490 . S
C1434 C1436 1.395 . S
C1434 C1437 1.403 . S
H1435 C1441 0.930 . S
C1436 H1422 0.930 . S
C1436 C1434 1.395 . S
C1436 C1439 1.403 . S
C1437 C1434 1.403 . S
C1437 C1438 1.524 . S
C1437 C1441 1.400 . S
C1438 H1423 0.960 . S
C1438 H1424 0.960 . S
C1438 H1425 0.960 . S
C1438 C1437 1.524 . S
C1439 C1436 1.403 . S
C1439 C1440 1.392 . S
C1439 C1443 1.495 . S
C1440 C1439 1.392 . S
C1440 C1441 1.385 . S
C1440 C1442 1.478 . S
C1441 H1435 0.930 . S
C1441 C1437 1.400 . S
C1441 C1440 1.385 . S
C1442 C1440 1.478 . S
C1442 C1444 1.381 . S
C1442 C1448 1.383 . S
C1443 C1439 1.495 . S
C1443 H1449 0.959 . S
C1443 H1450 0.961 . S
C1443 H1451 0.960 . S
C1444 C1442 1.381 . S
C1444 C1445 1.394 . S
C1444 H1452 0.930 . S
C1445 C1444 1.394 . S
C1445 C1446 1.383 . S
C1445 H1453 0.929 . S
C1446 C1445 1.383 . S
C1446 C1447 1.377 . S
C1447 H1431 0.930 1_556 S
C1447 C1446 1.377 . S
C1447 C1448 1.379 . S
C1448 H1432 0.931 . S
C1448 C1442 1.383 . S
C1448 C1447 1.379 . S
H1449 C1443 0.959 . S
H1450 C1443 0.961 . S
H1451 C1443 0.960 . S
H1452 C1444 0.930 . S
H1453 C1445 0.929 . S
H1454 C1462 0.929 . S
H1455 C1464 0.930 . S
H1456 C1466 0.930 . S
H1457 C1469 0.929 . S
H1458 C1472 0.930 . S
H1459 C1474 0.960 . S
H1460 C1474 0.960 . S
H1461 C1474 0.960 . S
C1462 H1454 0.929 . S
C1462 C1463 1.377 . S
C1462 C1464 1.384 . S
C1463 C1462 1.377 . S
C1463 C1469 1.390 . S
C1464 H1455 0.930 . S
C1464 C1462 1.384 . S
C1464 C1465 1.372 . S
C1465 C1464 1.372 . S
C1465 C1466 1.400 . S
C1465 C1470 1.490 . S
C1466 H1456 0.930 . S
C1466 C1465 1.400 . S
C1466 C1469 1.386 . S
H1467 C1483 0.930 . S
H1468 C1484 0.931 . S
C1469 H1457 0.929 . S
C1469 C1463 1.390 . S
C1469 C1466 1.386 . S
C1470 C1465 1.490 . S
C1470 C1472 1.395 . S
C1470 C1473 1.403 . S
H1471 C1477 0.930 . S
C1472 H1458 0.930 . S
C1472 C1470 1.395 . S
C1472 C1475 1.403 . S
C1473 C1470 1.403 . S
C1473 C1474 1.524 . S
C1473 C1477 1.400 . S
C1474 H1459 0.960 . S
C1474 H1460 0.960 . S
C1474 H1461 0.960 . S
C1474 C1473 1.524 . S
C1475 C1472 1.403 . S
C1475 C1476 1.392 . S
C1475 C1479 1.495 . S
C1476 C1475 1.392 . S
C1476 C1477 1.385 . S
C1476 C1478 1.478 . S
C1477 H1471 0.930 . S
C1477 C1473 1.400 . S
C1477 C1476 1.385 . S
C1478 C1476 1.478 . S
C1478 C1480 1.381 . S
C1478 C1484 1.383 . S
C1479 C1475 1.495 . S
C1479 H1485 0.959 . S
C1479 H1486 0.961 . S
C1479 H1487 0.960 . S
C1480 C1478 1.381 . S
C1480 C1481 1.394 . S
C1480 H1488 0.930 . S
C1481 C1480 1.394 . S
C1481 C1482 1.383 . S
C1481 H1489 0.929 . S
C1482 C1481 1.383 . S
C1482 C1483 1.377 . S
C1483 H1467 0.930 . S
C1483 C1482 1.377 . S
C1483 C1484 1.379 . S
C1484 H1468 0.931 . S
C1484 C1478 1.383 . S
C1484 C1483 1.379 . S
H1485 C1479 0.959 . S
H1486 C1479 0.961 . S
H1487 C1479 0.960 . S
H1488 C1480 0.930 . S
H1489 C1481 0.929 . S
H1490 C1498 0.929 . S
H1491 C1500 0.930 . S
H1492 C1502 0.930 . S
H1493 C1505 0.929 . S
H1494 C1508 0.930 . S
H1495 C1510 0.960 . S
H1496 C1510 0.960 . S
H1497 C1510 0.960 . S
C1498 H1490 0.929 . S
C1498 C1499 1.377 . S
C1498 C1500 1.384 . S
C1499 C1498 1.377 . S
C1499 C1505 1.390 . S
C1500 H1491 0.930 . S
C1500 C1498 1.384 . S
C1500 C1501 1.372 . S
C1501 C1500 1.372 . S
C1501 C1502 1.400 . S
C1501 C1506 1.490 . S
C1502 H1492 0.930 . S
C1502 C1501 1.400 . S
C1502 C1505 1.386 . S
H1503 C1519 0.930 . S
H1504 C1520 0.940 . S
C1505 H1493 0.929 . S
C1505 C1499 1.390 . S
C1505 C1502 1.386 . S
C1506 C1501 1.490 . S
C1506 C1508 1.395 . S
C1506 C1509 1.403 . S
H1507 C1513 0.930 . S
C1508 H1494 0.930 . S
C1508 C1506 1.395 . S
C1508 C1511 1.403 . S
C1509 C1506 1.403 . S
C1509 C1510 1.524 . S
C1509 C1513 1.400 . S
C1510 H1495 0.960 . S
C1510 H1496 0.960 . S
C1510 H1497 0.960 . S
C1510 C1509 1.524 . S
C1511 C1508 1.403 . S
C1511 C1512 1.392 . S
C1511 C1515 1.495 . S
C1512 C1511 1.392 . S
C1512 C1513 1.385 . S
C1512 C1514 1.478 . S
C1513 H1507 0.930 . S
C1513 C1509 1.400 . S
C1513 C1512 1.385 . S
C1514 C1512 1.478 . S
C1514 C1516 1.381 . S
C1514 C1520 1.383 . S
C1515 C1511 1.495 . S
C1515 H1521 0.959 . S
C1515 H1522 0.961 . S
C1515 H1523 0.960 . S
C1516 C1514 1.381 . S
C1516 C1517 1.394 . S
C1516 H1524 0.930 . S
C1517 C1516 1.394 . S
C1517 C1518 1.383 . S
C1517 H1525 0.929 . S
C1518 C1517 1.383 . S
C1518 C1519 1.377 1_556 S
C1519 H1503 0.930 . S
C1519 C1518 1.377 1_554 S
C1519 C1520 1.379 1_554 S
C1520 H1504 0.940 . S
C1520 C1514 1.383 . S
C1520 C1519 1.379 1_556 S
H1521 C1515 0.959 . S
H1522 C1515 0.961 . S
H1523 C1515 0.960 . S
H1524 C1516 0.930 . S
H1525 C1517 0.929 . S
H1526 C1534 0.929 . S
H1527 C1536 0.930 . S
H1528 C1538 0.930 . S
H1529 C1541 0.929 . S
H1530 C1544 0.930 . S
H1531 C1546 0.960 . S
H1532 C1546 0.960 . S
H1533 C1546 0.960 . S
C1534 H1526 0.929 . S
C1534 C1535 1.377 . S
C1534 C1536 1.384 . S
C1535 C1534 1.377 . S
C1535 C1541 1.390 . S
C1536 H1527 0.930 . S
C1536 C1534 1.384 . S
C1536 C1537 1.372 . S
C1537 C1536 1.372 . S
C1537 C1538 1.400 . S
C1537 C1542 1.490 . S
C1538 H1528 0.930 . S
C1538 C1537 1.400 . S
C1538 C1541 1.386 . S
H1539 C1555 0.930 . S
H1540 C1556 0.931 . S
C1541 H1529 0.929 . S
C1541 C1535 1.390 . S
C1541 C1538 1.386 . S
C1542 C1537 1.490 . S
C1542 C1544 1.395 . S
C1542 C1545 1.403 . S
H1543 C1549 0.930 . S
C1544 H1530 0.930 . S
C1544 C1542 1.395 . S
C1544 C1547 1.403 . S
C1545 C1542 1.403 . S
C1545 C1546 1.524 . S
C1545 C1549 1.400 . S
C1546 H1531 0.960 . S
C1546 H1532 0.960 . S
C1546 H1533 0.960 . S
C1546 C1545 1.524 . S
C1547 C1544 1.403 . S
C1547 C1548 1.392 . S
C1547 C1551 1.495 . S
C1548 C1547 1.392 . S
C1548 C1549 1.385 . S
C1548 C1550 1.478 . S
C1549 H1543 0.930 . S
C1549 C1545 1.400 . S
C1549 C1548 1.385 . S
C1550 C1548 1.478 . S
C1550 C1552 1.381 . S
C1550 C1556 1.383 . S
C1551 C1547 1.495 . S
C1551 H1557 0.959 . S
C1551 H1558 0.961 . S
C1551 H1559 0.960 . S
C1552 C1550 1.381 . S
C1552 C1553 1.394 . S
C1552 H1560 0.930 . S
C1553 C1552 1.394 . S
C1553 C1554 1.383 . S
C1553 H1561 0.929 . S
C1554 C1553 1.383 . S
C1554 C1555 1.377 . S
C1555 H1539 0.930 . S
C1555 C1554 1.377 . S
C1555 C1556 1.379 . S
C1556 H1540 0.931 . S
C1556 C1550 1.383 . S
C1556 C1555 1.379 . S
H1557 C1551 0.959 . S
H1558 C1551 0.961 . S
H1559 C1551 0.960 . S
H1560 C1552 0.930 . S
H1561 C1553 0.929 . S
H1562 C1570 0.929 . S
H1563 C1572 0.930 . S
H1564 C1574 0.930 . S
H1565 C1577 0.929 . S
H1566 C1580 0.930 . S
H1567 C1582 0.960 . S
H1568 C1582 0.960 . S
H1569 C1582 0.960 . S
C1570 H1562 0.929 . S
C1570 C1571 1.377 . S
C1570 C1572 1.384 . S
C1571 C1570 1.377 . S
C1571 C1577 1.390 . S
C1572 H1563 0.930 . S
C1572 C1570 1.384 . S
C1572 C1573 1.372 . S
C1573 C1572 1.372 . S
C1573 C1574 1.400 . S
C1573 C1578 1.490 . S
C1574 H1564 0.930 . S
C1574 C1573 1.400 . S
C1574 C1577 1.386 . S
H1575 C1591 0.930 . S
H1576 C1592 0.931 . S
C1577 H1565 0.929 . S
C1577 C1571 1.390 . S
C1577 C1574 1.386 . S
C1578 C1573 1.490 . S
C1578 C1580 1.395 . S
C1578 C1581 1.403 . S
H1579 C1585 0.930 . S
C1580 H1566 0.930 . S
C1580 C1578 1.395 . S
C1580 C1583 1.403 . S
C1581 C1578 1.403 . S
C1581 C1582 1.524 . S
C1581 C1585 1.400 . S
C1582 H1567 0.960 . S
C1582 H1568 0.960 . S
C1582 H1569 0.960 . S
C1582 C1581 1.524 . S
C1583 C1580 1.403 . S
C1583 C1584 1.392 . S
C1583 C1587 1.495 . S
C1584 C1583 1.392 . S
C1584 C1585 1.385 . S
C1584 C1586 1.478 . S
C1585 H1579 0.930 . S
C1585 C1581 1.400 . S
C1585 C1584 1.385 . S
C1586 C1584 1.478 . S
C1586 C1588 1.381 . S
C1586 C1592 1.383 . S
C1587 C1583 1.495 . S
C1587 H1593 0.959 . S
C1587 H1594 0.961 . S
C1587 H1595 0.960 . S
C1588 C1586 1.381 . S
C1588 C1589 1.394 . S
C1588 H1596 0.930 . S
C1589 C1588 1.394 . S
C1589 C1590 1.383 . S
C1589 H1597 0.929 . S
C1590 C1589 1.383 . S
C1590 C1591 1.377 . S
C1591 H1575 0.930 . S
C1591 C1590 1.377 . S
C1591 C1592 1.379 . S
C1592 H1576 0.931 . S
C1592 C1586 1.383 . S
C1592 C1591 1.379 . S
H1593 C1587 0.959 . S
H1594 C1587 0.961 . S
H1595 C1587 0.960 . S
H1596 C1588 0.930 . S
H1597 C1589 0.929 . S
H1598 C1606 0.929 . S
H1599 C1608 0.930 . S
H1600 C1610 0.930 . S
H1601 C1613 0.929 . S
H1602 C1616 0.930 . S
H1603 C1618 0.960 . S
H1604 C1618 0.960 . S
H1605 C1618 0.960 . S
C1606 H1598 0.929 . S
C1606 C1607 1.377 . S
C1606 C1608 1.384 . S
C1607 C1606 1.377 . S
C1607 C1613 1.390 . S
C1608 H1599 0.930 . S
C1608 C1606 1.384 . S
C1608 C1609 1.372 . S
C1609 C1608 1.372 . S
C1609 C1610 1.400 . S
C1609 C1614 1.490 . S
C1610 H1600 0.930 . S
C1610 C1609 1.400 . S
C1610 C1613 1.386 . S
H1611 C1627 0.930 . S
H1612 C1628 0.931 . S
C1613 H1601 0.929 . S
C1613 C1607 1.390 . S
C1613 C1610 1.386 . S
C1614 C1609 1.490 . S
C1614 C1616 1.395 . S
C1614 C1617 1.403 . S
H1615 C1621 0.930 . S
C1616 H1602 0.930 . S
C1616 C1614 1.395 . S
C1616 C1619 1.403 . S
C1617 C1614 1.403 . S
C1617 C1618 1.524 . S
C1617 C1621 1.400 . S
C1618 H1603 0.960 . S
C1618 H1604 0.960 . S
C1618 H1605 0.960 . S
C1618 C1617 1.524 . S
C1619 C1616 1.403 . S
C1619 C1620 1.392 . S
C1619 C1623 1.495 . S
C1620 C1619 1.392 . S
C1620 C1621 1.385 . S
C1620 C1622 1.478 . S
C1621 H1615 0.930 . S
C1621 C1617 1.400 . S
C1621 C1620 1.385 . S
C1622 C1620 1.478 . S
C1622 C1624 1.381 . S
C1622 C1628 1.383 . S
C1623 C1619 1.495 . S
C1623 H1629 0.959 . S
C1623 H1630 0.961 . S
C1623 H1631 0.960 . S
C1624 C1622 1.381 . S
C1624 C1625 1.394 . S
C1624 H1632 0.930 . S
C1625 C1624 1.394 . S
C1625 C1626 1.383 . S
C1625 H1633 0.929 . S
C1626 C1625 1.383 . S
C1626 C1627 1.377 . S
C1627 H1611 0.930 . S
C1627 C1626 1.377 . S
C1627 C1628 1.379 . S
C1628 H1612 0.931 . S
C1628 C1622 1.383 . S
C1628 C1627 1.379 . S
H1629 C1623 0.959 . S
H1630 C1623 0.961 . S
H1631 C1623 0.960 . S
H1632 C1624 0.930 . S
H1633 C1625 0.929 . S
H1634 C1642 0.929 . S
H1635 C1644 0.930 . S
H1636 C1646 0.930 . S
H1637 C1649 0.929 . S
H1638 C1652 0.930 . S
H1639 C1654 0.960 . S
H1640 C1654 0.960 . S
H1641 C1654 0.960 . S
C1642 H1634 0.929 . S
C1642 C1643 1.377 . S
C1642 C1644 1.384 . S
C1643 C1642 1.377 . S
C1643 C1649 1.390 . S
C1644 H1635 0.930 . S
C1644 C1642 1.384 . S
C1644 C1645 1.372 . S
C1645 C1644 1.372 . S
C1645 C1646 1.400 . S
C1645 C1650 1.490 . S
C1646 H1636 0.930 . S
C1646 C1645 1.400 . S
C1646 C1649 1.386 . S
H1647 C1663 0.930 . S
H1648 C1664 0.931 . S
C1649 H1637 0.929 . S
C1649 C1643 1.390 . S
C1649 C1646 1.386 . S
C1650 C1645 1.490 . S
C1650 C1652 1.395 . S
C1650 C1653 1.403 . S
H1651 C1657 0.930 . S
C1652 H1638 0.930 . S
C1652 C1650 1.395 . S
C1652 C1655 1.403 . S
C1653 C1650 1.403 . S
C1653 C1654 1.524 . S
C1653 C1657 1.400 . S
C1654 H1639 0.960 . S
C1654 H1640 0.960 . S
C1654 H1641 0.960 . S
C1654 C1653 1.524 . S
C1655 C1652 1.403 . S
C1655 C1656 1.392 . S
C1655 C1659 1.495 . S
C1656 C1655 1.392 . S
C1656 C1657 1.385 . S
C1656 C1658 1.478 . S
C1657 H1651 0.930 . S
C1657 C1653 1.400 . S
C1657 C1656 1.385 . S
C1658 C1656 1.478 . S
C1658 C1660 1.381 . S
C1658 C1664 1.383 . S
C1659 C1655 1.495 . S
C1659 H1665 0.959 . S
C1659 H1666 0.961 . S
C1659 H1667 0.960 . S
C1660 C1658 1.381 . S
C1660 C1661 1.394 . S
C1660 H1668 0.930 . S
C1661 C1660 1.394 . S
C1661 C1662 1.383 . S
C1661 H1669 0.929 . S
C1662 C1661 1.383 . S
C1662 C1663 1.377 . S
C1663 H1647 0.930 . S
C1663 C1662 1.377 . S
C1663 C1664 1.379 . S
C1664 H1648 0.931 . S
C1664 C1658 1.383 . S
C1664 C1663 1.379 . S
H1665 C1659 0.959 . S
H1666 C1659 0.961 . S
H1667 C1659 0.960 . S
H1668 C1660 0.930 . S
H1669 C1661 0.929 . S
H1670 C1678 0.929 . S
H1671 C1680 0.930 . S
H1672 C1682 0.930 . S
H1673 C1685 0.929 . S
H1674 C1688 0.930 . S
H1675 C1690 0.960 . S
H1676 C1690 0.960 . S
H1677 C1690 0.960 . S
C1678 H1670 0.929 . S
C1678 C1679 1.377 . S
C1678 C1680 1.384 . S
C1679 C1678 1.377 . S
C1679 C1685 1.390 . S
C1680 H1671 0.930 . S
C1680 C1678 1.384 . S
C1680 C1681 1.372 . S
C1681 C1680 1.372 . S
C1681 C1682 1.400 . S
C1681 C1686 1.490 . S
C1682 H1672 0.930 . S
C1682 C1681 1.400 . S
C1682 C1685 1.386 . S
H1683 C1699 0.930 . S
H1684 C1700 0.931 . S
C1685 H1673 0.929 . S
C1685 C1679 1.390 . S
C1685 C1682 1.386 . S
C1686 C1681 1.490 . S
C1686 C1688 1.395 . S
C1686 C1689 1.403 . S
H1687 C1693 0.930 . S
C1688 H1674 0.930 . S
C1688 C1686 1.395 . S
C1688 C1691 1.403 . S
C1689 C1686 1.403 . S
C1689 C1690 1.524 . S
C1689 C1693 1.400 . S
C1690 H1675 0.960 . S
C1690 H1676 0.960 . S
C1690 H1677 0.960 . S
C1690 C1689 1.524 . S
C1691 C1688 1.403 . S
C1691 C1692 1.392 . S
C1691 C1695 1.495 . S
C1692 C1691 1.392 . S
C1692 C1693 1.385 . S
C1692 C1694 1.478 . S
C1693 H1687 0.930 . S
C1693 C1689 1.400 . S
C1693 C1692 1.385 . S
C1694 C1692 1.478 . S
C1694 C1696 1.381 . S
C1694 C1700 1.383 . S
C1695 C1691 1.495 . S
C1695 H1701 0.959 . S
C1695 H1702 0.961 . S
C1695 H1703 0.960 . S
C1696 C1694 1.381 . S
C1696 C1697 1.394 . S
C1696 H1704 0.930 . S
C1697 C1696 1.394 . S
C1697 C1698 1.383 . S
C1697 H1705 0.929 . S
C1698 C1697 1.383 . S
C1698 C1699 1.377 . S
C1699 H1683 0.930 . S
C1699 C1698 1.377 . S
C1699 C1700 1.379 . S
C1700 H1684 0.931 . S
C1700 C1694 1.383 . S
C1700 C1699 1.379 . S
H1701 C1695 0.959 . S
H1702 C1695 0.961 . S
H1703 C1695 0.960 . S
H1704 C1696 0.930 . S
H1705 C1697 0.929 . S
H1706 C1714 0.929 . S
H1707 C1716 0.930 . S
H1708 C1718 0.930 . S
H1709 C1721 0.929 . S
H1710 C1724 0.930 . S
H1711 C1726 0.960 . S
H1712 C1726 0.960 . S
H1713 C1726 0.960 . S
C1714 H1706 0.929 . S
C1714 C1715 1.377 . S
C1714 C1716 1.384 . S
C1715 C1714 1.377 . S
C1715 C1721 1.390 . S
C1716 H1707 0.930 . S
C1716 C1714 1.384 . S
C1716 C1717 1.372 . S
C1717 C1716 1.372 . S
C1717 C1718 1.400 . S
C1717 C1722 1.490 . S
C1718 H1708 0.930 . S
C1718 C1717 1.400 . S
C1718 C1721 1.386 . S
H1719 C1735 0.930 . S
H1720 C1736 0.931 . S
C1721 H1709 0.929 . S
C1721 C1715 1.390 . S
C1721 C1718 1.386 . S
C1722 C1717 1.490 . S
C1722 C1724 1.395 . S
C1722 C1725 1.403 . S
H1723 C1729 0.930 . S
C1724 H1710 0.930 . S
C1724 C1722 1.395 . S
C1724 C1727 1.403 . S
C1725 C1722 1.403 . S
C1725 C1726 1.524 . S
C1725 C1729 1.400 . S
C1726 H1711 0.960 . S
C1726 H1712 0.960 . S
C1726 H1713 0.960 . S
C1726 C1725 1.524 . S
C1727 C1724 1.403 . S
C1727 C1728 1.392 . S
C1727 C1731 1.495 . S
C1728 C1727 1.392 . S
C1728 C1729 1.385 . S
C1728 C1730 1.478 . S
C1729 H1723 0.930 . S
C1729 C1725 1.400 . S
C1729 C1728 1.385 . S
C1730 C1728 1.478 . S
C1730 C1732 1.381 . S
C1730 C1736 1.383 . S
C1731 C1727 1.495 . S
C1731 H1737 0.959 . S
C1731 H1738 0.961 . S
C1731 H1739 0.960 . S
C1732 C1730 1.381 . S
C1732 C1733 1.394 . S
C1732 H1740 0.930 . S
C1733 C1732 1.394 . S
C1733 C1734 1.383 . S
C1733 H1741 0.929 . S
C1734 C1733 1.383 . S
C1734 C1735 1.377 . S
C1735 H1719 0.930 . S
C1735 C1734 1.377 . S
C1735 C1736 1.379 . S
C1736 H1720 0.931 . S
C1736 C1730 1.383 . S
C1736 C1735 1.379 . S
H1737 C1731 0.959 . S
H1738 C1731 0.961 . S
H1739 C1731 0.960 . S
H1740 C1732 0.930 . S
H1741 C1733 0.929 . S
H1742 C1750 0.929 . S
H1743 C1752 0.930 . S
H1744 C1754 0.930 . S
H1745 C1757 0.929 . S
H1746 C1760 0.930 . S
H1747 C1762 0.960 . S
H1748 C1762 0.960 . S
H1749 C1762 0.960 . S
C1750 H1742 0.929 . S
C1750 C1751 1.377 . S
C1750 C1752 1.384 . S
C1751 C1750 1.377 . S
C1751 C1757 1.390 . S
C1752 H1743 0.930 . S
C1752 C1750 1.384 . S
C1752 C1753 1.372 . S
C1753 C1752 1.372 . S
C1753 C1754 1.400 . S
C1753 C1758 1.490 . S
C1754 H1744 0.930 . S
C1754 C1753 1.400 . S
C1754 C1757 1.386 . S
H1755 C1771 0.930 . S
H1756 C1772 0.931 . S
C1757 H1745 0.929 . S
C1757 C1751 1.390 . S
C1757 C1754 1.386 . S
C1758 C1753 1.490 . S
C1758 C1760 1.395 . S
C1758 C1761 1.403 . S
H1759 C1765 0.930 . S
C1760 H1746 0.930 . S
C1760 C1758 1.395 . S
C1760 C1763 1.403 . S
C1761 C1758 1.403 . S
C1761 C1762 1.524 . S
C1761 C1765 1.400 . S
C1762 H1747 0.960 . S
C1762 H1748 0.960 . S
C1762 H1749 0.960 . S
C1762 C1761 1.524 . S
C1763 C1760 1.403 . S
C1763 C1764 1.392 . S
C1763 C1767 1.495 . S
C1764 C1763 1.392 . S
C1764 C1765 1.385 . S
C1764 C1766 1.478 . S
C1765 H1759 0.930 . S
C1765 C1761 1.400 . S
C1765 C1764 1.385 . S
C1766 C1764 1.478 . S
C1766 C1768 1.381 . S
C1766 C1772 1.383 . S
C1767 C1763 1.495 . S
C1767 H1773 0.959 . S
C1767 H1774 0.961 . S
C1767 H1775 0.960 . S
C1768 C1766 1.381 . S
C1768 C1769 1.394 . S
C1768 H1776 0.930 . S
C1769 C1768 1.394 . S
C1769 C1770 1.383 . S
C1769 H1777 0.929 . S
C1770 C1769 1.383 . S
C1770 C1771 1.377 . S
C1771 H1755 0.930 . S
C1771 C1770 1.377 . S
C1771 C1772 1.379 . S
C1772 H1756 0.931 . S
C1772 C1766 1.383 . S
C1772 C1771 1.379 . S
H1773 C1767 0.959 . S
H1774 C1767 0.961 . S
H1775 C1767 0.960 . S
H1776 C1768 0.930 . S
H1777 C1769 0.929 . S
H1778 C1786 0.929 . S
H1779 C1788 0.930 . S
H1780 C1790 0.930 . S
H1781 C1793 0.929 . S
H1782 C1796 0.930 . S
H1783 C1798 0.960 . S
H1784 C1798 0.960 . S
H1785 C1798 0.960 . S
C1786 H1778 0.929 . S
C1786 C1787 1.377 . S
C1786 C1788 1.384 . S
C1787 C1786 1.377 . S
C1787 C1793 1.390 . S
C1788 H1779 0.930 . S
C1788 C1786 1.384 . S
C1788 C1789 1.372 . S
C1789 C1788 1.372 . S
C1789 C1790 1.400 . S
C1789 C1794 1.490 . S
C1790 H1780 0.930 . S
C1790 C1789 1.400 . S
C1790 C1793 1.386 . S
H1791 C1807 0.930 . S
H1792 C1808 0.931 . S
C1793 H1781 0.929 . S
C1793 C1787 1.390 . S
C1793 C1790 1.386 . S
C1794 C1789 1.490 . S
C1794 C1796 1.395 . S
C1794 C1797 1.403 . S
H1795 C1801 0.930 . S
C1796 H1782 0.930 . S
C1796 C1794 1.395 . S
C1796 C1799 1.403 . S
C1797 C1794 1.403 . S
C1797 C1798 1.524 . S
C1797 C1801 1.400 . S
C1798 H1783 0.960 . S
C1798 H1784 0.960 . S
C1798 H1785 0.960 . S
C1798 C1797 1.524 . S
C1799 C1796 1.403 . S
C1799 C1800 1.392 . S
C1799 C1803 1.495 . S
C1800 C1799 1.392 . S
C1800 C1801 1.385 . S
C1800 C1802 1.478 . S
C1801 H1795 0.930 . S
C1801 C1797 1.400 . S
C1801 C1800 1.385 . S
C1802 C1800 1.478 . S
C1802 C1804 1.381 . S
C1802 C1808 1.383 . S
C1803 C1799 1.495 . S
C1803 H1809 0.959 . S
C1803 H1810 0.961 . S
C1803 H1811 0.960 . S
C1804 C1802 1.381 . S
C1804 C1805 1.394 . S
C1804 H1812 0.930 . S
C1805 C1804 1.394 . S
C1805 C1806 1.383 . S
C1805 H1813 0.929 . S
C1806 C1805 1.383 . S
C1806 C1807 1.377 . S
C1807 H1791 0.930 . S
C1807 C1806 1.377 . S
C1807 C1808 1.379 . S
C1808 H1792 0.931 . S
C1808 C1802 1.383 . S
C1808 C1807 1.379 . S
H1809 C1803 0.959 . S
H1810 C1803 0.961 . S
H1811 C1803 0.960 . S
H1812 C1804 0.930 . S
H1813 C1805 0.929 . S
H1814 C1822 0.929 . S
H1815 C1824 0.930 . S
H1816 C1826 0.930 . S
H1817 C1829 0.929 . S
H1818 C1832 0.930 . S
H1819 C1834 0.960 . S
H1820 C1834 0.960 . S
H1821 C1834 0.960 . S
C1822 H1814 0.929 . S
C1822 C1823 1.377 . S
C1822 C1824 1.384 . S
C1823 C1822 1.377 . S
C1823 C1829 1.390 . S
C1824 H1815 0.930 . S
C1824 C1822 1.384 . S
C1824 C1825 1.372 . S
C1825 C1824 1.372 . S
C1825 C1826 1.400 . S
C1825 C1830 1.490 . S
C1826 H1816 0.930 . S
C1826 C1825 1.400 . S
C1826 C1829 1.386 . S
H1827 C1843 0.930 . S
H1828 C1844 0.931 . S
C1829 H1817 0.929 . S
C1829 C1823 1.390 . S
C1829 C1826 1.386 . S
C1830 C1825 1.490 . S
C1830 C1832 1.395 . S
C1830 C1833 1.403 . S
H1831 C1837 0.930 . S
C1832 H1818 0.930 . S
C1832 C1830 1.395 . S
C1832 C1835 1.403 . S
C1833 C1830 1.403 . S
C1833 C1834 1.524 . S
C1833 C1837 1.400 . S
C1834 H1819 0.960 . S
C1834 H1820 0.960 . S
C1834 H1821 0.960 . S
C1834 C1833 1.524 . S
C1835 C1832 1.403 . S
C1835 C1836 1.392 . S
C1835 C1839 1.495 . S
C1836 C1835 1.392 . S
C1836 C1837 1.385 . S
C1836 C1838 1.478 . S
C1837 H1831 0.930 . S
C1837 C1833 1.400 . S
C1837 C1836 1.385 . S
C1838 C1836 1.478 . S
C1838 C1840 1.381 . S
C1838 C1844 1.383 . S
C1839 C1835 1.495 . S
C1839 H1845 0.959 . S
C1839 H1846 0.961 . S
C1839 H1847 0.960 . S
C1840 C1838 1.381 . S
C1840 C1841 1.394 . S
C1840 H1848 0.930 . S
C1841 C1840 1.394 . S
C1841 C1842 1.383 . S
C1841 H1849 0.929 . S
C1842 C1841 1.383 . S
C1842 C1843 1.377 . S
C1843 H1827 0.930 . S
C1843 C1842 1.377 . S
C1843 C1844 1.379 . S
C1844 H1828 0.931 . S
C1844 C1838 1.383 . S
C1844 C1843 1.379 . S
H1845 C1839 0.959 . S
H1846 C1839 0.961 . S
H1847 C1839 0.960 . S
H1848 C1840 0.930 . S
H1849 C1841 0.929 . S
H1850 C1858 0.929 . S
H1851 C1860 0.930 . S
H1852 C1862 0.930 . S
H1853 C1865 0.929 . S
H1854 C1868 0.930 . S
H1855 C1870 0.960 . S
H1856 C1870 0.960 . S
H1857 C1870 0.960 . S
C1858 H1850 0.929 . S
C1858 C1859 1.377 . S
C1858 C1860 1.384 . S
C1859 C1858 1.377 . S
C1859 C1865 1.390 . S
C1860 H1851 0.930 . S
C1860 C1858 1.384 . S
C1860 C1861 1.372 . S
C1861 C1860 1.372 . S
C1861 C1862 1.400 . S
C1861 C1866 1.490 . S
C1862 H1852 0.930 . S
C1862 C1861 1.400 . S
C1862 C1865 1.386 . S
H1863 C1879 0.930 . S
H1864 C1880 0.931 . S
C1865 H1853 0.929 . S
C1865 C1859 1.390 . S
C1865 C1862 1.386 . S
C1866 C1861 1.490 . S
C1866 C1868 1.395 . S
C1866 C1869 1.403 . S
H1867 C1873 0.930 . S
C1868 H1854 0.930 . S
C1868 C1866 1.395 . S
C1868 C1871 1.403 . S
C1869 C1866 1.403 . S
C1869 C1870 1.524 . S
C1869 C1873 1.400 . S
C1870 H1855 0.960 . S
C1870 H1856 0.960 . S
C1870 H1857 0.960 . S
C1870 C1869 1.524 . S
C1871 C1868 1.403 . S
C1871 C1872 1.392 . S
C1871 C1875 1.495 . S
C1872 C1871 1.392 . S
C1872 C1873 1.385 . S
C1872 C1874 1.478 . S
C1873 H1867 0.930 . S
C1873 C1869 1.400 . S
C1873 C1872 1.385 . S
C1874 C1872 1.478 . S
C1874 C1876 1.381 . S
C1874 C1880 1.383 . S
C1875 C1871 1.495 . S
C1875 H1881 0.959 . S
C1875 H1882 0.961 . S
C1875 H1883 0.960 . S
C1876 C1874 1.381 . S
C1876 C1877 1.394 . S
C1876 H1884 0.930 . S
C1877 C1876 1.394 . S
C1877 C1878 1.383 . S
C1877 H1885 0.929 . S
C1878 C1877 1.383 . S
C1878 C1879 1.377 . S
C1879 H1863 0.930 . S
C1879 C1878 1.377 . S
C1879 C1880 1.379 . S
C1880 H1864 0.931 . S
C1880 C1874 1.383 . S
C1880 C1879 1.379 . S
H1881 C1875 0.959 . S
H1882 C1875 0.961 . S
H1883 C1875 0.960 . S
H1884 C1876 0.930 . S
H1885 C1877 0.929 . S
H1886 C1894 0.929 . S
H1887 C1896 0.930 . S
H1888 C1898 0.930 . S
H1889 C1901 0.929 . S
H1890 C1904 0.930 . S
H1891 C1906 0.960 . S
H1892 C1906 0.960 . S
H1893 C1906 0.960 . S
C1894 H1886 0.929 . S
C1894 C1895 1.377 . S
C1894 C1896 1.384 . S
C1895 C1894 1.377 . S
C1895 C1901 1.390 . S
C1896 H1887 0.930 . S
C1896 C1894 1.384 . S
C1896 C1897 1.372 . S
C1897 C1896 1.372 . S
C1897 C1898 1.400 . S
C1897 C1902 1.490 . S
C1898 H1888 0.930 . S
C1898 C1897 1.400 . S
C1898 C1901 1.386 . S
H1899 C1915 0.930 . S
H1900 C1916 0.931 . S
C1901 H1889 0.929 . S
C1901 C1895 1.390 . S
C1901 C1898 1.386 . S
C1902 C1897 1.490 . S
C1902 C1904 1.395 . S
C1902 C1905 1.403 . S
H1903 C1909 0.930 . S
C1904 H1890 0.930 . S
C1904 C1902 1.395 . S
C1904 C1907 1.403 . S
C1905 C1902 1.403 . S
C1905 C1906 1.524 . S
C1905 C1909 1.400 . S
C1906 H1891 0.960 . S
C1906 H1892 0.960 . S
C1906 H1893 0.960 . S
C1906 C1905 1.524 . S
C1907 C1904 1.403 . S
C1907 C1908 1.392 . S
C1907 C1911 1.495 . S
C1908 C1907 1.392 . S
C1908 C1909 1.385 . S
C1908 C1910 1.478 . S
C1909 H1903 0.930 . S
C1909 C1905 1.400 . S
C1909 C1908 1.385 . S
C1910 C1908 1.478 . S
C1910 C1912 1.381 . S
C1910 C1916 1.383 . S
C1911 C1907 1.495 . S
C1911 H1917 0.959 . S
C1911 H1918 0.961 . S
C1911 H1919 0.960 . S
C1912 C1910 1.381 . S
C1912 C1913 1.394 . S
C1912 H1920 0.930 . S
C1913 C1912 1.394 . S
C1913 C1914 1.383 . S
C1913 H1921 0.929 . S
C1914 C1913 1.383 . S
C1914 C1915 1.377 . S
C1915 H1899 0.930 . S
C1915 C1914 1.377 . S
C1915 C1916 1.379 . S
C1916 H1900 0.931 . S
C1916 C1910 1.383 . S
C1916 C1915 1.379 . S
H1917 C1911 0.959 . S
H1918 C1911 0.961 . S
H1919 C1911 0.960 . S
H1920 C1912 0.930 . S
H1921 C1913 0.929 . S
H1922 C1930 0.929 . S
H1923 C1932 0.930 . S
H1924 C1934 0.930 . S
H1925 C1937 0.929 . S
H1926 C1940 0.930 . S
H1927 C1942 0.960 . S
H1928 C1942 0.960 . S
H1929 C1942 0.960 . S
C1930 H1922 0.929 . S
C1930 C1931 1.377 . S
C1930 C1932 1.384 . S
C1931 C1930 1.377 . S
C1931 C1937 1.390 . S
C1932 H1923 0.930 . S
C1932 C1930 1.384 . S
C1932 C1933 1.372 . S
C1933 C1932 1.372 . S
C1933 C1934 1.400 . S
C1933 C1938 1.490 . S
C1934 H1924 0.930 . S
C1934 C1933 1.400 . S
C1934 C1937 1.386 . S
H1935 C1951 0.930 . S
H1936 C1952 0.931 . S
C1937 H1925 0.929 . S
C1937 C1931 1.390 . S
C1937 C1934 1.386 . S
C1938 C1933 1.490 . S
C1938 C1940 1.395 . S
C1938 C1941 1.403 . S
H1939 C1945 0.930 . S
C1940 H1926 0.930 . S
C1940 C1938 1.395 . S
C1940 C1943 1.403 . S
C1941 C1938 1.403 . S
C1941 C1942 1.524 . S
C1941 C1945 1.400 . S
C1942 H1927 0.960 . S
C1942 H1928 0.960 . S
C1942 H1929 0.960 . S
C1942 C1941 1.524 . S
C1943 C1940 1.403 . S
C1943 C1944 1.392 . S
C1943 C1947 1.495 . S
C1944 C1943 1.392 . S
C1944 C1945 1.385 . S
C1944 C1946 1.478 . S
C1945 H1939 0.930 . S
C1945 C1941 1.400 . S
C1945 C1944 1.385 . S
C1946 C1944 1.478 . S
C1946 C1948 1.381 . S
C1946 C1952 1.383 . S
C1947 C1943 1.495 . S
C1947 H1953 0.959 . S
C1947 H1954 0.961 . S
C1947 H1955 0.960 . S
C1948 C1946 1.381 . S
C1948 C1949 1.394 . S
C1948 H1956 0.930 . S
C1949 C1948 1.394 . S
C1949 C1950 1.383 . S
C1949 H1957 0.929 . S
C1950 C1949 1.383 . S
C1950 C1951 1.377 . S
C1951 H1935 0.930 . S
C1951 C1950 1.377 . S
C1951 C1952 1.379 . S
C1952 H1936 0.931 . S
C1952 C1946 1.383 . S
C1952 C1951 1.379 . S
H1953 C1947 0.959 . S
H1954 C1947 0.961 . S
H1955 C1947 0.960 . S
H1956 C1948 0.930 . S
H1957 C1949 0.929 . S
H1958 C1966 0.929 . S
H1959 C1968 0.930 . S
H1960 C1970 0.930 . S
H1961 C1973 0.929 . S
H1962 C1976 0.930 . S
H1963 C1978 0.960 . S
H1964 C1978 0.960 . S
H1965 C1978 0.960 . S
C1966 H1958 0.929 . S
C1966 C1967 1.377 . S
C1966 C1968 1.384 . S
C1967 C1966 1.377 . S
C1967 C1973 1.390 . S
C1968 H1959 0.930 . S
C1968 C1966 1.384 . S
C1968 C1969 1.372 . S
C1969 C1968 1.372 . S
C1969 C1970 1.400 . S
C1969 C1974 1.490 . S
C1970 H1960 0.930 . S
C1970 C1969 1.400 . S
C1970 C1973 1.386 . S
H1971 C1987 0.930 . S
H1972 C1988 0.931 . S
C1973 H1961 0.929 . S
C1973 C1967 1.390 . S
C1973 C1970 1.386 . S
C1974 C1969 1.490 . S
C1974 C1976 1.395 . S
C1974 C1977 1.403 . S
H1975 C1981 0.930 . S
C1976 H1962 0.930 . S
C1976 C1974 1.395 . S
C1976 C1979 1.403 . S
C1977 C1974 1.403 . S
C1977 C1978 1.524 . S
C1977 C1981 1.400 . S
C1978 H1963 0.960 . S
C1978 H1964 0.960 . S
C1978 H1965 0.960 . S
C1978 C1977 1.524 . S
C1979 C1976 1.403 . S
C1979 C1980 1.392 . S
C1979 C1983 1.495 . S
C1980 C1979 1.392 . S
C1980 C1981 1.385 . S
C1980 C1982 1.478 . S
C1981 H1975 0.930 . S
C1981 C1977 1.400 . S
C1981 C1980 1.385 . S
C1982 C1980 1.478 . S
C1982 C1984 1.381 . S
C1982 C1988 1.383 . S
C1983 C1979 1.495 . S
C1983 H1989 0.959 . S
C1983 H1990 0.961 . S
C1983 H1991 0.960 . S
C1984 C1982 1.381 . S
C1984 C1985 1.394 . S
C1984 H1992 0.930 . S
C1985 C1984 1.394 . S
C1985 C1986 1.383 . S
C1985 H1993 0.929 . S
C1986 C1985 1.383 . S
C1986 C1987 1.377 . S
C1987 H1971 0.930 . S
C1987 C1986 1.377 . S
C1987 C1988 1.379 . S
C1988 H1972 0.931 . S
C1988 C1982 1.383 . S
C1988 C1987 1.379 . S
H1989 C1983 0.959 . S
H1990 C1983 0.961 . S
H1991 C1983 0.960 . S
H1992 C1984 0.930 . S
H1993 C1985 0.929 . S
H1994 C2002 0.929 . S
H1995 C2004 0.930 . S
H1996 C2006 0.930 . S
H1997 C2009 0.929 . S
H1998 C2012 0.930 . S
H1999 C2014 0.960 . S
H2000 C2014 0.960 . S
H2001 C2014 0.960 . S
C2002 H1994 0.929 . S
C2002 C2003 1.377 . S
C2002 C2004 1.384 . S
C2003 C2002 1.377 . S
C2003 C2009 1.390 . S
C2004 H1995 0.930 . S
C2004 C2002 1.384 . S
C2004 C2005 1.372 . S
C2005 C2004 1.372 . S
C2005 C2006 1.400 . S
C2005 C2010 1.490 . S
C2006 H1996 0.930 . S
C2006 C2005 1.400 . S
C2006 C2009 1.386 . S
H2007 C2023 0.930 . S
H2008 C2024 0.931 . S
C2009 H1997 0.929 . S
C2009 C2003 1.390 . S
C2009 C2006 1.386 . S
C2010 C2005 1.490 . S
C2010 C2012 1.395 . S
C2010 C2013 1.403 . S
H2011 C2017 0.930 . S
C2012 H1998 0.930 . S
C2012 C2010 1.395 . S
C2012 C2015 1.403 . S
C2013 C2010 1.403 . S
C2013 C2014 1.524 . S
C2013 C2017 1.400 . S
C2014 H1999 0.960 . S
C2014 H2000 0.960 . S
C2014 H2001 0.960 . S
C2014 C2013 1.524 . S
C2015 C2012 1.403 . S
C2015 C2016 1.392 . S
C2015 C2019 1.495 . S
C2016 C2015 1.392 . S
C2016 C2017 1.385 . S
C2016 C2018 1.478 . S
C2017 H2011 0.930 . S
C2017 C2013 1.400 . S
C2017 C2016 1.385 . S
C2018 C2016 1.478 . S
C2018 C2020 1.381 . S
C2018 C2024 1.383 . S
C2019 C2015 1.495 . S
C2019 H2025 0.959 . S
C2019 H2026 0.961 . S
C2019 H2027 0.960 . S
C2020 C2018 1.381 . S
C2020 C2021 1.394 . S
C2020 H2028 0.930 . S
C2021 C2020 1.394 . S
C2021 C2022 1.383 . S
C2021 H2029 0.929 . S
C2022 C2021 1.383 . S
C2022 C2023 1.377 . S
C2023 H2007 0.930 . S
C2023 C2022 1.377 . S
C2023 C2024 1.379 . S
C2024 H2008 0.931 . S
C2024 C2018 1.383 . S
C2024 C2023 1.379 . S
H2025 C2019 0.959 . S
H2026 C2019 0.961 . S
H2027 C2019 0.960 . S
H2028 C2020 0.930 . S
H2029 C2021 0.929 . S
H2030 C2038 0.929 . S
H2031 C2040 0.930 . S
H2032 C2042 0.930 . S
H2033 C2045 0.929 . S
H2034 C2048 0.930 . S
H2035 C2050 0.960 . S
H2036 C2050 0.960 . S
H2037 C2050 0.960 . S
C2038 H2030 0.929 . S
C2038 C2039 1.377 . S
C2038 C2040 1.384 . S
C2039 C2038 1.377 . S
C2039 C2045 1.390 . S
C2040 H2031 0.930 . S
C2040 C2038 1.384 . S
C2040 C2041 1.372 . S
C2041 C2040 1.372 . S
C2041 C2042 1.400 . S
C2041 C2046 1.490 . S
C2042 H2032 0.930 . S
C2042 C2041 1.400 . S
C2042 C2045 1.386 . S
H2043 C2059 0.930 . S
H2044 C2060 0.931 . S
C2045 H2033 0.929 . S
C2045 C2039 1.390 . S
C2045 C2042 1.386 . S
C2046 C2041 1.490 . S
C2046 C2048 1.395 . S
C2046 C2049 1.403 . S
H2047 C2053 0.930 . S
C2048 H2034 0.930 . S
C2048 C2046 1.395 . S
C2048 C2051 1.403 . S
C2049 C2046 1.403 . S
C2049 C2050 1.524 . S
C2049 C2053 1.400 . S
C2050 H2035 0.960 . S
C2050 H2036 0.960 . S
C2050 H2037 0.960 . S
C2050 C2049 1.524 . S
C2051 C2048 1.403 . S
C2051 C2052 1.392 . S
C2051 C2055 1.495 . S
C2052 C2051 1.392 . S
C2052 C2053 1.385 . S
C2052 C2054 1.478 . S
C2053 H2047 0.930 . S
C2053 C2049 1.400 . S
C2053 C2052 1.385 . S
C2054 C2052 1.478 . S
C2054 C2056 1.381 . S
C2054 C2060 1.383 . S
C2055 C2051 1.495 . S
C2055 H2061 0.959 . S
C2055 H2062 0.961 . S
C2055 H2063 0.960 . S
C2056 C2054 1.381 . S
C2056 C2057 1.394 . S
C2056 H2064 0.930 . S
C2057 C2056 1.394 . S
C2057 C2058 1.383 . S
C2057 H2065 0.929 . S
C2058 C2057 1.383 . S
C2058 C2059 1.377 . S
C2059 H2043 0.930 . S
C2059 C2058 1.377 . S
C2059 C2060 1.379 . S
C2060 H2044 0.931 . S
C2060 C2054 1.383 . S
C2060 C2059 1.379 . S
H2061 C2055 0.959 . S
H2062 C2055 0.961 . S
H2063 C2055 0.960 . S
H2064 C2056 0.930 . S
H2065 C2057 0.929 . S
H2066 C2074 0.929 . S
H2067 C2076 0.930 . S
H2068 C2078 0.930 . S
H2069 C2081 0.929 . S
H2070 C2084 0.930 . S
H2071 C2086 0.960 . S
H2072 C2086 0.960 . S
H2073 C2086 0.960 . S
C2074 H2066 0.929 . S
C2074 C2075 1.377 . S
C2074 C2076 1.384 . S
C2075 C2074 1.377 . S
C2075 C2081 1.390 . S
C2076 H2067 0.930 . S
C2076 C2074 1.384 . S
C2076 C2077 1.372 . S
C2077 C2076 1.372 . S
C2077 C2078 1.400 . S
C2077 C2082 1.490 . S
C2078 H2068 0.930 . S
C2078 C2077 1.400 . S
C2078 C2081 1.386 . S
H2079 C2095 0.930 . S
H2080 C2096 0.931 . S
C2081 H2069 0.929 . S
C2081 C2075 1.390 . S
C2081 C2078 1.386 . S
C2082 C2077 1.490 . S
C2082 C2084 1.395 . S
C2082 C2085 1.403 . S
H2083 C2089 0.930 . S
C2084 H2070 0.930 . S
C2084 C2082 1.395 . S
C2084 C2087 1.403 . S
C2085 C2082 1.403 . S
C2085 C2086 1.524 . S
C2085 C2089 1.400 . S
C2086 H2071 0.960 . S
C2086 H2072 0.960 . S
C2086 H2073 0.960 . S
C2086 C2085 1.524 . S
C2087 C2084 1.403 . S
C2087 C2088 1.392 . S
C2087 C2091 1.495 . S
C2088 C2087 1.392 . S
C2088 C2089 1.385 . S
C2088 C2090 1.478 . S
C2089 H2083 0.930 . S
C2089 C2085 1.400 . S
C2089 C2088 1.385 . S
C2090 C2088 1.478 . S
C2090 C2092 1.381 . S
C2090 C2096 1.383 . S
C2091 C2087 1.495 . S
C2091 H2097 0.959 . S
C2091 H2098 0.961 . S
C2091 H2099 0.960 . S
C2092 C2090 1.381 . S
C2092 C2093 1.394 . S
C2092 H2100 0.930 . S
C2093 C2092 1.394 . S
C2093 C2094 1.383 . S
C2093 H2101 0.929 . S
C2094 C2093 1.383 . S
C2094 C2095 1.377 . S
C2095 H2079 0.930 . S
C2095 C2094 1.377 . S
C2095 C2096 1.379 . S
C2096 H2080 0.931 . S
C2096 C2090 1.383 . S
C2096 C2095 1.379 . S
H2097 C2091 0.959 . S
H2098 C2091 0.961 . S
H2099 C2091 0.960 . S
H2100 C2092 0.930 . S
H2101 C2093 0.929 . S
H2102 C2110 0.929 . S
H2103 C2112 0.930 . S
H2104 C2114 0.930 . S
H2105 C2117 0.929 . S
H2106 C2120 0.930 . S
H2107 C2122 0.960 . S
H2108 C2122 0.960 . S
H2109 C2122 0.960 . S
C2110 H2102 0.929 . S
C2110 C2111 1.377 . S
C2110 C2112 1.384 . S
C2111 C2110 1.377 . S
C2111 C2117 1.390 . S
C2112 H2103 0.930 . S
C2112 C2110 1.384 . S
C2112 C2113 1.372 . S
C2113 C2112 1.372 . S
C2113 C2114 1.400 . S
C2113 C2118 1.490 . S
C2114 H2104 0.930 . S
C2114 C2113 1.400 . S
C2114 C2117 1.386 . S
H2115 C2131 0.930 . S
H2116 C2132 0.931 . S
C2117 H2105 0.929 . S
C2117 C2111 1.390 . S
C2117 C2114 1.386 . S
C2118 C2113 1.490 . S
C2118 C2120 1.395 . S
C2118 C2121 1.403 . S
H2119 C2125 0.930 . S
C2120 H2106 0.930 . S
C2120 C2118 1.395 . S
C2120 C2123 1.403 . S
C2121 C2118 1.403 . S
C2121 C2122 1.524 . S
C2121 C2125 1.400 . S
C2122 H2107 0.960 . S
C2122 H2108 0.960 . S
C2122 H2109 0.960 . S
C2122 C2121 1.524 . S
C2123 C2120 1.403 . S
C2123 C2124 1.392 . S
C2123 C2127 1.495 . S
C2124 C2123 1.392 . S
C2124 C2125 1.385 . S
C2124 C2126 1.478 . S
C2125 H2119 0.930 . S
C2125 C2121 1.400 . S
C2125 C2124 1.385 . S
C2126 C2124 1.478 . S
C2126 C2128 1.381 . S
C2126 C2132 1.383 . S
C2127 C2123 1.495 . S
C2127 H2133 0.959 . S
C2127 H2134 0.961 . S
C2127 H2135 0.960 . S
C2128 C2126 1.381 . S
C2128 C2129 1.394 . S
C2128 H2136 0.930 . S
C2129 C2128 1.394 . S
C2129 C2130 1.383 . S
C2129 H2137 0.929 . S
C2130 C2129 1.383 . S
C2130 C2131 1.377 . S
C2131 H2115 0.930 . S
C2131 C2130 1.377 . S
C2131 C2132 1.379 . S
C2132 H2116 0.931 . S
C2132 C2126 1.383 . S
C2132 C2131 1.379 . S
H2133 C2127 0.959 . S
H2134 C2127 0.961 . S
H2135 C2127 0.960 . S
H2136 C2128 0.930 . S
H2137 C2129 0.929 . S
H2138 C2146 0.929 . S
H2139 C2148 0.930 . S
H2140 C2150 0.930 . S
H2141 C2153 0.929 . S
H2142 C2156 0.930 . S
H2143 C2158 0.960 . S
H2144 C2158 0.960 . S
H2145 C2158 0.960 . S
C2146 H2138 0.929 . S
C2146 C2147 1.377 . S
C2146 C2148 1.384 . S
C2147 C2146 1.377 . S
C2147 C2153 1.390 . S
C2148 H2139 0.930 . S
C2148 C2146 1.384 . S
C2148 C2149 1.372 . S
C2149 C2148 1.372 . S
C2149 C2150 1.400 . S
C2149 C2154 1.490 . S
C2150 H2140 0.930 . S
C2150 C2149 1.400 . S
C2150 C2153 1.386 . S
H2151 C2167 0.930 . S
H2152 C2168 0.931 . S
C2153 H2141 0.929 . S
C2153 C2147 1.390 . S
C2153 C2150 1.386 . S
C2154 C2149 1.490 . S
C2154 C2156 1.395 . S
C2154 C2157 1.403 . S
H2155 C2161 0.930 . S
C2156 H2142 0.930 . S
C2156 C2154 1.395 . S
C2156 C2159 1.403 . S
C2157 C2154 1.403 . S
C2157 C2158 1.524 . S
C2157 C2161 1.400 . S
C2158 H2143 0.960 . S
C2158 H2144 0.960 . S
C2158 H2145 0.960 . S
C2158 C2157 1.524 . S
C2159 C2156 1.403 . S
C2159 C2160 1.392 . S
C2159 C2163 1.495 . S
C2160 C2159 1.392 . S
C2160 C2161 1.385 . S
C2160 C2162 1.478 . S
C2161 H2155 0.930 . S
C2161 C2157 1.400 . S
C2161 C2160 1.385 . S
C2162 C2160 1.478 . S
C2162 C2164 1.381 . S
C2162 C2168 1.383 . S
C2163 C2159 1.495 . S
C2163 H2169 0.959 . S
C2163 H2170 0.961 . S
C2163 H2171 0.960 . S
C2164 C2162 1.381 . S
C2164 C2165 1.394 . S
C2164 H2172 0.930 . S
C2165 C2164 1.394 . S
C2165 C2166 1.383 . S
C2165 H2173 0.929 . S
C2166 C2165 1.383 . S
C2166 C2167 1.377 . S
C2167 H2151 0.930 . S
C2167 C2166 1.377 . S
C2167 C2168 1.379 . S
C2168 H2152 0.931 . S
C2168 C2162 1.383 . S
C2168 C2167 1.379 . S
H2169 C2163 0.959 . S
H2170 C2163 0.961 . S
H2171 C2163 0.960 . S
H2172 C2164 0.930 . S
H2173 C2165 0.929 . S
H2174 C2182 0.929 . S
H2175 C2184 0.930 . S
H2176 C2186 0.930 . S
H2177 C2189 0.929 . S
H2178 C2192 0.930 . S
H2179 C2194 0.960 . S
H2180 C2194 0.960 . S
H2181 C2194 0.960 . S
C2182 H2174 0.929 . S
C2182 C2183 1.377 . S
C2182 C2184 1.384 . S
C2183 C2182 1.377 . S
C2183 C2189 1.390 . S
C2184 H2175 0.930 . S
C2184 C2182 1.384 . S
C2184 C2185 1.372 . S
C2185 C2184 1.372 . S
C2185 C2186 1.400 . S
C2185 C2190 1.490 . S
C2186 H2176 0.930 . S
C2186 C2185 1.400 . S
C2186 C2189 1.386 . S
H2187 C2203 0.930 . S
H2188 C2204 0.931 . S
C2189 H2177 0.929 . S
C2189 C2183 1.390 . S
C2189 C2186 1.386 . S
C2190 C2185 1.490 . S
C2190 C2192 1.395 . S
C2190 C2193 1.403 . S
H2191 C2197 0.930 . S
C2192 H2178 0.930 . S
C2192 C2190 1.395 . S
C2192 C2195 1.403 . S
C2193 C2190 1.403 . S
C2193 C2194 1.524 . S
C2193 C2197 1.400 . S
C2194 H2179 0.960 . S
C2194 H2180 0.960 . S
C2194 H2181 0.960 . S
C2194 C2193 1.524 . S
C2195 C2192 1.403 . S
C2195 C2196 1.392 . S
C2195 C2199 1.495 . S
C2196 C2195 1.392 . S
C2196 C2197 1.385 . S
C2196 C2198 1.478 . S
C2197 H2191 0.930 . S
C2197 C2193 1.400 . S
C2197 C2196 1.385 . S
C2198 C2196 1.478 . S
C2198 C2200 1.381 . S
C2198 C2204 1.383 . S
C2199 C2195 1.495 . S
C2199 H2205 0.959 . S
C2199 H2206 0.961 . S
C2199 H2207 0.960 . S
C2200 C2198 1.381 . S
C2200 C2201 1.394 . S
C2200 H2208 0.930 . S
C2201 C2200 1.394 . S
C2201 C2202 1.383 . S
C2201 H2209 0.929 . S
C2202 C2201 1.383 . S
C2202 C2203 1.377 . S
C2203 H2187 0.930 . S
C2203 C2202 1.377 . S
C2203 C2204 1.379 . S
C2204 H2188 0.931 . S
C2204 C2198 1.383 . S
C2204 C2203 1.379 . S
H2205 C2199 0.959 . S
H2206 C2199 0.961 . S
H2207 C2199 0.960 . S
H2208 C2200 0.930 . S
H2209 C2201 0.929 . S
H2210 C2218 0.929 . S
H2211 C2220 0.930 . S
H2212 C2222 0.930 . S
H2213 C2225 0.929 . S
H2214 C2228 0.930 . S
H2215 C2230 0.960 . S
H2216 C2230 0.960 . S
H2217 C2230 0.960 . S
C2218 H2210 0.929 . S
C2218 C2219 1.377 . S
C2218 C2220 1.384 . S
C2219 C2218 1.377 . S
C2219 C2225 1.390 . S
C2220 H2211 0.930 . S
C2220 C2218 1.384 . S
C2220 C2221 1.372 . S
C2221 C2220 1.372 . S
C2221 C2222 1.400 . S
C2221 C2226 1.490 . S
C2222 H2212 0.930 . S
C2222 C2221 1.400 . S
C2222 C2225 1.386 . S
H2223 C2239 0.930 . S
H2224 C2240 0.931 . S
C2225 H2213 0.929 . S
C2225 C2219 1.390 . S
C2225 C2222 1.386 . S
C2226 C2221 1.490 . S
C2226 C2228 1.395 . S
C2226 C2229 1.403 . S
H2227 C2233 0.930 . S
C2228 H2214 0.930 . S
C2228 C2226 1.395 . S
C2228 C2231 1.403 . S
C2229 C2226 1.403 . S
C2229 C2230 1.524 . S
C2229 C2233 1.400 . S
C2230 H2215 0.960 . S
C2230 H2216 0.960 . S
C2230 H2217 0.960 . S
C2230 C2229 1.524 . S
C2231 C2228 1.403 . S
C2231 C2232 1.392 . S
C2231 C2235 1.495 . S
C2232 C2231 1.392 . S
C2232 C2233 1.385 . S
C2232 C2234 1.478 . S
C2233 H2227 0.930 . S
C2233 C2229 1.400 . S
C2233 C2232 1.385 . S
C2234 C2232 1.478 . S
C2234 C2236 1.381 . S
C2234 C2240 1.383 . S
C2235 C2231 1.495 . S
C2235 H2241 0.959 . S
C2235 H2242 0.961 . S
C2235 H2243 0.960 . S
C2236 C2234 1.381 . S
C2236 C2237 1.394 . S
C2236 H2244 0.930 . S
C2237 C2236 1.394 . S
C2237 C2238 1.383 . S
C2237 H2245 0.929 . S
C2238 C2237 1.383 . S
C2238 C2239 1.377 . S
C2239 H2223 0.930 . S
C2239 C2238 1.377 . S
C2239 C2240 1.379 . S
C2240 H2224 0.931 . S
C2240 C2234 1.383 . S
C2240 C2239 1.379 . S
H2241 C2235 0.959 . S
H2242 C2235 0.961 . S
H2243 C2235 0.960 . S
H2244 C2236 0.930 . S
H2245 C2237 0.929 . S
C546 C347 2.333 . S
C527 C18 2.417 . S
C582 C348 2.809 . S
C563 C59 2.837 . S
C618 C342 1.204 . S
C599 C98 1.202 . S
C635 C125 0.571 . S
C654 C341 0.545 . S
C671 C169 2.714 . S
C690 C344 2.664 . S
C726 C346 0.985 . S
C707 C218 1.034 . S
C743 C255 0.784 . S
C762 C345 0.770 . S
C779 C288 2.385 . S
C798 C343 2.288 . S
C834 C378 0.794 . S
C815 C15 0.811 . S
C851 C45 0.587 . S
C870 C409 0.587 . S
C906 C377 0.422 . S
C887 C95 0.148 . S
C942 C412 0.837 . S
C923 C128 0.826 . S
C959 C178 1.137 . S
C978 C375 1.142 . S
C1014 C407 1.569 1_556 S
C995 C215 1.590 . S
C1031 C249 2.016 . S
C1050 C380 2.067 . S
C1067 C299 2.081 . S
C1086 C414 1.997 . S
C1103 C9 2.756 . S
C1122 C410 2.713 . S
C1139 C175 0.386 . S
C1158 C413 0.291 . S
C1194 C381 1.510 . S
C1175 C209 1.572 . S
C1230 C408 1.338 1_556 S
C1211 C258 1.361 . S
C1247 C285 1.379 . S
C1266 C374 1.394 . S
C1283 C89 3.199 . S
C1302 C411 3.209 . S
C1338 C376 2.344 . S
C1319 C139 2.362 . S
C1355 C48 1.628 . S
C1374 C379 1.594 . S
C1391 C298 2.383 . S
C1410 C446 2.249 . S
C1427 C179 2.143 . S
C1446 C447 2.091 . S
C1482 C441 1.200 . S
C1463 C208 1.218 . S
C1518 C440 1.134 . S
C1499 C245 1.161 . S
C1535 C49 2.299 . S
C1554 C443 2.258 . S
C1590 C445 1.048 . S
C1571 C88 1.089 . S
C1607 C135 1.051 . S
C1626 C444 1.026 . S
C1643 C8 2.374 . S
C1662 C442 2.272 . S
C1679 C295 1.395 . S
C1698 C480 1.333 . S
C1734 C512 0.648 . S
C1715 C165 0.523 . S
C1751 C219 1.624 . S
C1770 C473 1.625 . S
C1787 C248 1.669 . S
C1806 C507 1.683 . S
C1842 C478 1.349 . S
C1823 C58 1.357 . S
C1859 C99 3.384 . S
C1878 C509 3.326 . S
C1914 C475 2.607 . S
C1895 C129 2.642 . S
C1950 C510 2.654 . S
C1931 C19 2.603 . S
C1986 C506 1.971 . S
C1967 C289 1.917 . S
C2003 C55 0.849 . S
C2022 C508 0.849 . S
C2039 C85 0.176 . S
C2058 C477 0.125 . S
C2094 C511 1.137 . S
C2075 C138 1.142 . S
C2111 C5 0.812 . S
C2130 C476 0.851 . S
C2147 C205 1.760 . S
C2166 C513 1.690 . S
C2202 C479 2.233 . S
C2183 C259 2.262 . S
C2238 C474 0.844 . S
C2219 C168 0.824 . S
