# Generated by pormake.
# Topology pto, (3,4)-cn, num edge types: 1
# Building blocks:
#     Node 0, Type 0, BuildingBlock: WUSLED_clean_sbu_0, # of connection points: 3
#     Node 1, Type 0, BuildingBlock: WUSLED_clean_sbu_0, # of connection points: 3
#     Node 2, Type 0, BuildingBlock: WUSLED_clean_sbu_0, # of connection points: 3
#     Node 3, Type 0, BuildingBlock: WUSLED_clean_sbu_0, # of connection points: 3
#     Node 4, Type 0, BuildingBlock: WUSLED_clean_sbu_0, # of connection points: 3
#     Node 5, Type 0, BuildingBlock: WUSLED_clean_sbu_0, # of connection points: 3
#     Node 6, Type 0, BuildingBlock: WUSLED_clean_sbu_0, # of connection points: 3
#     Node 7, Type 0, BuildingBlock: WUSLED_clean_sbu_0, # of connection points: 3
#     Node 8, Type 1, BuildingBlock: KOZSID_clean_sbu_0, # of connection points: 4
#     Node 9, Type 1, BuildingBlock: KOZSID_clean_sbu_0, # of connection points: 4
#     Node 10, Type 1, BuildingBlock: KOZSID_clean_sbu_0, # of connection points: 4
#     Node 11, Type 1, BuildingBlock: KOZSID_clean_sbu_0, # of connection points: 4
#     Node 12, Type 1, BuildingBlock: KOZSID_clean_sbu_0, # of connection points: 4
#     Node 13, Type 1, BuildingBlock: KOZSID_clean_sbu_0, # of connection points: 4
#     Edge 14, Type (0, 1), None
#     Edge 15, Type (0, 1), None
#     Edge 16, Type (0, 1), None
#     Edge 17, Type (0, 1), None
#     Edge 18, Type (0, 1), None
#     Edge 19, Type (0, 1), None
#     Edge 20, Type (0, 1), None
#     Edge 21, Type (0, 1), None
#     Edge 22, Type (0, 1), None
#     Edge 23, Type (0, 1), None
#     Edge 24, Type (0, 1), None
#     Edge 25, Type (0, 1), None
#     Edge 26, Type (0, 1), None
#     Edge 27, Type (0, 1), None
#     Edge 28, Type (0, 1), None
#     Edge 29, Type (0, 1), None
#     Edge 30, Type (0, 1), None
#     Edge 31, Type (0, 1), None
#     Edge 32, Type (0, 1), None
#     Edge 33, Type (0, 1), None
#     Edge 34, Type (0, 1), None
#     Edge 35, Type (0, 1), None
#     Edge 36, Type (0, 1), None
#     Edge 37, Type (0, 1), None
# Relax obj value: 0.000
# Max RMSD: 0.036
# Mean RMSD: 0.016
data_MOF--net-pto--node1-WUSLED_clean_sbu_0--node2-KOZSID_clean_sbu_0--edge1-none
_symmetry_space_group_name_H-M    P1
_symmetry_Int_Tables_number       1
_symmetry_cell_setting            triclinic
loop_
_symmetry_equiv_pos_as_xyz
'x, y, z'
_cell_length_a     29.561564
_cell_length_b     39.110325
_cell_length_c     34.229499
_cell_angle_alpha  86.232729
_cell_angle_beta   86.782554
_cell_angle_gamma 94.076749
loop_
_atom_site_label
_atom_site_type_symbol
_atom_site_fract_x
_atom_site_fract_y
_atom_site_fract_z
_atom_type_partial_charge
C0 C 0.26287 0.2113 0.41914 0.0
C1 C 0.28194 0.18428 0.40044 0.0
C2 C 0.26739 0.14654 0.46017 0.0
C3 C 0.28405 0.15209 0.42079 0.0
C4 C 0.24876 0.17369 0.47883 0.0
C5 C 0.24658 0.20576 0.45852 0.0
U6 U 0.29197 0.27886 0.33243 0.0
O7 O 0.24759 0.3129 0.30129 0.0
O8 O 0.30427 0.33526 0.33238 0.0
C9 C 0.26907 0.34113 0.31179 0.0
C10 C 0.2587 0.24514 0.39813 0.0
C11 C 0.24109 0.36925 0.32331 0.0
C12 C 0.17138 0.3906 0.35081 0.0
C13 C 0.19874 0.36323 0.34438 0.0
C14 C 0.22879 0.43023 0.31608 0.0
C15 C 0.18569 0.42437 0.33595 0.0
C16 C 0.25607 0.40304 0.30991 0.0
C17 C 0.37747 0.25749 0.24853 0.0
C18 C 0.38435 0.27344 0.17822 0.0
C19 C 0.44992 0.25564 0.21129 0.0
C20 C 0.42367 0.25104 0.24684 0.0
C21 C 0.43046 0.26671 0.17665 0.0
C22 C 0.35806 0.269 0.21387 0.0
C23 C 0.35011 0.24999 0.28621 0.0
O24 O 0.29498 0.2668 0.39607 0.0
O25 O 0.2383 0.24469 0.36499 0.0
O26 O 0.30577 0.24546 0.28452 0.0
O27 O 0.36235 0.2678 0.31563 0.0
H28 H 0.29472 0.18798 0.37005 0.0
H29 H 0.29821 0.13142 0.40573 0.0
H30 H 0.23554 0.16994 0.5091 0.0
H31 H 0.23172 0.22621 0.4735 0.0
H32 H 0.1383 0.38512 0.36606 0.0
H33 H 0.18635 0.33736 0.35496 0.0
H34 H 0.24127 0.45588 0.30476 0.0
H35 H 0.28858 0.40835 0.2936 0.0
H36 H 0.36862 0.28182 0.15176 0.0
H37 H 0.48538 0.25024 0.21072 0.0
H38 H 0.43936 0.24193 0.27303 0.0
H39 H 0.32252 0.2741 0.21416 0.0
C40 C 0.24728 0.87091 0.68512 0.0
C41 C 0.26173 0.90037 0.70387 0.0
C42 C 0.25658 0.93627 0.64339 0.0
C43 C 0.26619 0.93281 0.68318 0.0
C44 C 0.24284 0.90673 0.62463 0.0
C45 C 0.23827 0.87441 0.64527 0.0
U46 U 0.2701 0.80268 0.76755 0.0
O47 O 0.22195 0.76653 0.80374 0.0
O48 O 0.27415 0.74669 0.76505 0.0
C49 C 0.23825 0.73921 0.78938 0.0
C50 C 0.23965 0.83656 0.70652 0.0
C51 C 0.20514 0.71098 0.77964 0.0
C52 C 0.12773 0.68425 0.78175 0.0
C53 C 0.15789 0.71301 0.78566 0.0
C54 C 0.19105 0.65104 0.76478 0.0
C55 C 0.14411 0.6529 0.77184 0.0
C56 C 0.22123 0.67975 0.76872 0.0
C57 C 0.36046 0.82687 0.84141 0.0
C58 C 0.37755 0.79338 0.9007 0.0
C59 C 0.42026 0.84762 0.88172 0.0
C60 C 0.395 0.85162 0.84866 0.0
C61 C 0.41157 0.81871 0.90853 0.0
C62 C 0.35205 0.79749 0.86744 0.0
C63 C 0.33335 0.83321 0.80708 0.0
O64 O 0.27309 0.81626 0.70375 0.0
O65 O 0.22023 0.83554 0.74214 0.0
O66 O 0.28964 0.83568 0.81444 0.0
O67 O 0.34241 0.81574 0.77646 0.0
H68 H 0.26892 0.89837 0.73459 0.0
H69 H 0.27647 0.95527 0.69834 0.0
H70 H 0.23506 0.90878 0.59404 0.0
H71 H 0.22702 0.85212 0.6302 0.0
H72 H 0.0916 0.68619 0.7874 0.0
H73 H 0.14422 0.73647 0.79451 0.0
H74 H 0.20442 0.62707 0.75729 0.0
H75 H 0.25739 0.67717 0.76448 0.0
H76 H 0.36988 0.77088 0.92076 0.0
H77 H 0.44673 0.8673 0.8863 0.0
H78 H 0.4022 0.87437 0.82884 0.0
H79 H 0.32549 0.77806 0.8623 0.0
C80 C 0.7151 0.82689 0.26077 0.0
C81 C 0.72222 0.80021 0.23606 0.0
C82 C 0.66307 0.81944 0.19436 0.0
C83 C 0.69631 0.79645 0.20316 0.0
C84 C 0.65561 0.84556 0.2199 0.0
C85 C 0.68133 0.84922 0.25261 0.0
U86 U 0.80254 0.80186 0.33587 0.0
O87 O 0.85714 0.83494 0.35865 0.0
O88 O 0.80199 0.81076 0.3988 0.0
C89 C 0.83824 0.83249 0.3945 0.0
C90 C 0.74289 0.83283 0.29458 0.0
C91 C 0.83508 0.86514 0.41377 0.0
C92 C 0.80079 0.91923 0.42277 0.0
C93 C 0.80335 0.88872 0.40343 0.0
C94 C 0.86181 0.90302 0.46274 0.0
C95 C 0.83 0.92683 0.45278 0.0
C96 C 0.86427 0.87263 0.44346 0.0
C97 C 0.85329 0.7121 0.32648 0.0
C98 C 0.91891 0.68813 0.35509 0.0
C99 C 0.87135 0.6537 0.31504 0.0
C100 C 0.84345 0.68083 0.30984 0.0
C101 C 0.90988 0.65709 0.33718 0.0
C102 C 0.89094 0.71552 0.34961 0.0
C103 C 0.82483 0.74075 0.3169 0.0
O104 O 0.73171 0.8132 0.32679 0.0
O105 O 0.78703 0.83756 0.28686 0.0
O106 O 0.84585 0.76971 0.30162 0.0
O107 O 0.79079 0.74531 0.34193 0.0
H108 H 0.74813 0.78263 0.24191 0.0
H109 H 0.7031 0.77615 0.18411 0.0
H110 H 0.62974 0.8633 0.21463 0.0
H111 H 0.6751 0.86984 0.27141 0.0
H112 H 0.77616 0.93698 0.41395 0.0
H113 H 0.78052 0.8835 0.38051 0.0
H114 H 0.88432 0.90747 0.48607 0.0
H115 H 0.8889 0.85475 0.45203 0.0
H116 H 0.94845 0.69165 0.37214 0.0
H117 H 0.86295 0.63007 0.30133 0.0
H118 H 0.81453 0.67759 0.29197 0.0
H119 H 0.8992 0.73949 0.36268 0.0
C120 C 0.78742 0.21406 0.74018 0.0
C121 C 0.82323 0.21883 0.71113 0.0
C122 C 0.79784 0.16499 0.68332 0.0
C123 C 0.82842 0.19448 0.68296 0.0
C124 C 0.76225 0.16056 0.71272 0.0
C125 C 0.75714 0.18476 0.74065 0.0
U126 U 0.80618 0.29942 0.79404 0.0
O127 O 0.75354 0.32661 0.82448 0.0
O128 O 0.80607 0.30351 0.85809 0.0
C129 C 0.76834 0.31937 0.85937 0.0
C130 C 0.78059 0.23834 0.77101 0.0
C131 C 0.73383 0.30755 0.89143 0.0
C132 C 0.65654 0.28718 0.91486 0.0
C133 C 0.68985 0.29432 0.88398 0.0
C134 C 0.71094 0.30512 0.96114 0.0
C135 C 0.66667 0.29307 0.95357 0.0
C136 C 0.74415 0.31235 0.93035 0.0
C137 C 0.88985 0.37637 0.75835 0.0
C138 C 0.88673 0.43496 0.77833 0.0
C139 C 0.9561 0.41742 0.74727 0.0
C140 C 0.93516 0.38446 0.74432 0.0
C141 C 0.93213 0.44297 0.76434 0.0
C142 C 0.86584 0.4019 0.7756 0.0
C143 C 0.86831 0.34147 0.7542 0.0
O144 O 0.81393 0.24376 0.79423 0.0
O145 O 0.7605 0.26632 0.76128 0.0
O146 O 0.82509 0.33957 0.74668 0.0
O147 O 0.87818 0.31734 0.78025 0.0
H148 H 0.84704 0.24127 0.71024 0.0
H149 H 0.85601 0.199 0.66064 0.0
H150 H 0.73853 0.13802 0.71463 0.0
H151 H 0.72946 0.18043 0.76296 0.0
H152 H 0.62252 0.27794 0.90843 0.0
H153 H 0.68085 0.29037 0.85429 0.0
H154 H 0.71942 0.30985 0.99079 0.0
H155 H 0.77767 0.32267 0.93684 0.0
H156 H 0.86743 0.45435 0.79125 0.0
H157 H 0.99106 0.42304 0.73614 0.0
H158 H 0.95435 0.36526 0.73088 0.0
H159 H 0.83088 0.39635 0.78673 0.0
C160 C 0.83722 0.72404 0.7882 0.0
C161 C 0.87955 0.73005 0.76709 0.0
C162 C 0.89261 0.66891 0.77553 0.0
C163 C 0.90691 0.70268 0.76065 0.0
C164 C 0.84953 0.66306 0.79544 0.0
C165 C 0.82226 0.69025 0.80163 0.0
U166 U 0.78643 0.81445 0.77906 0.0
O167 O 0.71605 0.82555 0.79583 0.0
O168 O 0.77263 0.84787 0.82696 0.0
C169 C 0.72829 0.84335 0.82525 0.0
C170 C 0.80926 0.75216 0.79972 0.0
C171 C 0.70091 0.83586 0.86292 0.0
C172 C 0.69399 0.81997 0.93325 0.0
C173 C 0.7203 0.82441 0.89761 0.0
C174 C 0.62841 0.83767 0.90011 0.0
C175 C 0.64786 0.82665 0.93477 0.0
C176 C 0.65469 0.84227 0.86457 0.0
C177 C 0.81565 0.88199 0.69236 0.0
C178 C 0.7945 0.94121 0.69067 0.0
C179 C 0.8298 0.91959 0.63266 0.0
C180 C 0.83197 0.88752 0.65298 0.0
C181 C 0.81118 0.94675 0.6513 0.0
C182 C 0.79658 0.90903 0.71104 0.0
C183 C 0.81977 0.84815 0.71337 0.0
O184 O 0.83075 0.78038 0.81023 0.0
O185 O 0.77408 0.75806 0.77911 0.0
O186 O 0.78348 0.82651 0.71542 0.0
O187 O 0.84014 0.84859 0.74653 0.0
H188 H 0.89193 0.75591 0.75649 0.0
H189 H 0.93997 0.70815 0.74537 0.0
H190 H 0.83705 0.63741 0.80678 0.0
H191 H 0.78977 0.68495 0.81797 0.0
H192 H 0.70971 0.81163 0.95972 0.0
H193 H 0.75585 0.81933 0.89735 0.0
H194 H 0.59293 0.84304 0.90065 0.0
H195 H 0.63901 0.85134 0.83836 0.0
H196 H 0.78034 0.96189 0.70572 0.0
H197 H 0.84305 0.92333 0.60239 0.0
H198 H 0.84682 0.86707 0.63801 0.0
H199 H 0.78378 0.90534 0.74142 0.0
C200 C 0.71781 0.26641 0.27009 0.0
C201 C 0.72632 0.29574 0.244 0.0
C202 C 0.66667 0.27459 0.203 0.0
C203 C 0.70081 0.29986 0.21075 0.0
C204 C 0.65787 0.24575 0.22988 0.0
C205 C 0.68315 0.24174 0.26293 0.0
U206 U 0.80824 0.29058 0.34388 0.0
O207 O 0.80533 0.277 0.40769 0.0
O208 O 0.85815 0.25773 0.36925 0.0
C209 C 0.83878 0.25671 0.40488 0.0
C210 C 0.74495 0.26005 0.3044 0.0
C211 C 0.83118 0.22237 0.42629 0.0
C212 C 0.81236 0.16046 0.42825 0.0
C213 C 0.81677 0.19289 0.40755 0.0
C214 C 0.83565 0.18657 0.4868 0.0
C215 C 0.82195 0.15701 0.46805 0.0
C216 C 0.84019 0.21889 0.46614 0.0
C217 C 0.87314 0.3823 0.33175 0.0
C218 C 0.95055 0.40907 0.3296 0.0
C219 C 0.88721 0.44226 0.34657 0.0
C220 C 0.85704 0.41354 0.34265 0.0
C221 C 0.93415 0.44041 0.3395 0.0
C222 C 0.92039 0.38029 0.32571 0.0
C223 C 0.84004 0.35407 0.32203 0.0
O224 O 0.78865 0.25759 0.29701 0.0
O225 O 0.73592 0.27751 0.33504 0.0
O226 O 0.80417 0.34658 0.3464 0.0
O227 O 0.85634 0.32675 0.30766 0.0
H228 H 0.75298 0.31512 0.24907 0.0
H229 H 0.70856 0.32232 0.19063 0.0
H230 H 0.63131 0.22612 0.22536 0.0
H231 H 0.67586 0.21903 0.2828 0.0
H232 H 0.8021 0.13798 0.4131 0.0
H233 H 0.8096 0.19487 0.37683 0.0
H234 H 0.84342 0.18453 0.51739 0.0
H235 H 0.85141 0.24119 0.4812 0.0
H236 H 0.98667 0.40713 0.32394 0.0
H237 H 0.87383 0.46622 0.35405 0.0
H238 H 0.82088 0.41611 0.3469 0.0
H239 H 0.93408 0.35683 0.31687 0.0
C240 C 0.24356 0.22827 0.69752 0.0
C241 C 0.27529 0.20469 0.70788 0.0
C242 C 0.24863 0.16655 0.65857 0.0
C243 C 0.27785 0.17417 0.68857 0.0
C244 C 0.21683 0.19036 0.64858 0.0
C245 C 0.21437 0.22076 0.66783 0.0
U246 U 0.27607 0.29161 0.77538 0.0
O247 O 0.28776 0.34815 0.76929 0.0
O248 O 0.23272 0.32374 0.80962 0.0
C249 C 0.25371 0.3527 0.79432 0.0
C250 C 0.24039 0.26093 0.71677 0.0
C251 C 0.22522 0.38133 0.78473 0.0
C252 C 0.15952 0.40523 0.75619 0.0
C253 C 0.18753 0.37786 0.76165 0.0
C254 C 0.20712 0.43973 0.79613 0.0
C255 C 0.16855 0.43629 0.77406 0.0
C256 C 0.23506 0.41263 0.80133 0.0
C257 C 0.36352 0.26663 0.85049 0.0
C258 C 0.38213 0.29697 0.90822 0.0
C259 C 0.42311 0.24805 0.8913 0.0
C260 C 0.39742 0.24439 0.85857 0.0
C261 C 0.41548 0.27406 0.91694 0.0
C262 C 0.35625 0.29322 0.8753 0.0
C263 C 0.33573 0.26067 0.81669 0.0
O264 O 0.22148 0.25849 0.75262 0.0
O265 O 0.27662 0.28267 0.71246 0.0
O266 O 0.34691 0.2803 0.78447 0.0
O267 O 0.2916 0.25592 0.8244 0.0
H268 H 0.29811 0.20993 0.7308 0.0
H269 H 0.30247 0.15643 0.69741 0.0
H270 H 0.19432 0.18589 0.62526 0.0
H271 H 0.18974 0.23864 0.65924 0.0
H272 H 0.12996 0.40168 0.73917 0.0
H273 H 0.17927 0.35388 0.74862 0.0
H274 H 0.21551 0.46337 0.80982 0.0
H275 H 0.26401 0.4159 0.81916 0.0
H276 H 0.37523 0.3172 0.92735 0.0
H277 H 0.44907 0.23037 0.89652 0.0
H278 H 0.40376 0.22385 0.83969 0.0
H279 H 0.33024 0.31073 0.86951 0.0
C280 C 0.18847 0.7169 0.35307 0.0
C281 C 0.21249 0.69137 0.33583 0.0
C282 C 0.14618 0.6503 0.34704 0.0
C283 C 0.19159 0.65831 0.33308 0.0
C284 C 0.1222 0.67587 0.36409 0.0
C285 C 0.14314 0.70882 0.36706 0.0
U286 U 0.27218 0.79384 0.31744 0.0
O287 O 0.26446 0.8495 0.31728 0.0
O288 O 0.31788 0.82691 0.35023 0.0
C289 C 0.2978 0.8549 0.3405 0.0
C290 C 0.21002 0.75179 0.35724 0.0
C291 C 0.291 0.87918 0.37134 0.0
C292 C 0.25003 0.89878 0.42855 0.0
C293 C 0.25519 0.87443 0.40038 0.0
C294 C 0.31623 0.93267 0.3988 0.0
C295 C 0.28063 0.92825 0.4282 0.0
C296 C 0.32131 0.90846 0.37088 0.0
C297 C 0.34454 0.78574 0.22005 0.0
C298 C 0.42184 0.80611 0.19665 0.0
C299 C 0.36746 0.7882 0.15035 0.0
C300 C 0.33424 0.78096 0.18112 0.0
C301 C 0.41173 0.80024 0.15793 0.0
C302 C 0.38852 0.79896 0.22752 0.0
C303 C 0.31002 0.77391 0.2521 0.0
O304 O 0.25323 0.75367 0.36478 0.0
O305 O 0.20016 0.77593 0.33121 0.0
O306 O 0.2723 0.78978 0.25338 0.0
O307 O 0.3248 0.76665 0.28698 0.0
H308 H 0.24746 0.69691 0.32473 0.0
H309 H 0.2109 0.63892 0.32018 0.0
H310 H 0.08723 0.67026 0.3752 0.0
H311 H 0.12395 0.72803 0.38048 0.0
H312 H 0.22244 0.89428 0.45087 0.0
H313 H 0.23135 0.85201 0.40127 0.0
H314 H 0.33997 0.95519 0.39689 0.0
H315 H 0.349 0.91278 0.34857 0.0
H316 H 0.45586 0.81534 0.20309 0.0
H317 H 0.35899 0.78348 0.12069 0.0
H318 H 0.30071 0.77064 0.17462 0.0
H319 H 0.39751 0.8029 0.25721 0.0
C320 C 0.11031 0.59378 0.38103 0.0
C321 C 0.12477 0.60171 0.41746 0.0
C322 C 0.10247 0.57817 0.44436 0.0
C323 C 0.07605 0.5571 0.4229 0.0
N324 N 0.08064 0.56546 0.3839 0.0
Co325 Co 0.04848 0.54141 0.34231 0.0
N326 N 1.00865 0.51153 0.38225 0.0
C327 C 1.00832 0.51288 0.42162 0.0
C328 C 0.97748 0.48938 0.44176 0.0
C329 C 0.95696 0.47182 0.41358 0.0
C330 C 0.97662 0.48564 0.37769 0.0
N331 N 0.01804 0.5161 0.30061 0.0
C332 C 0.98691 0.4886 0.30368 0.0
C333 C 0.97698 0.47779 0.26707 0.0
C334 C 1.00332 0.49869 0.24002 0.0
C335 C 0.02773 0.52101 0.26148 0.0
N336 N 0.08633 0.5729 0.3024 0.0
C337 C 0.08504 0.57291 0.26297 0.0
C338 C 0.11098 0.59956 0.24297 0.0
C339 C 0.12918 0.61826 0.27131 0.0
C340 C 0.11359 0.60166 0.30716 0.0
N341 N 0.09519 0.50667 0.34229 0.0
C342 C 0.1551 0.45313 0.33888 0.0
C343 C 0.15139 0.47642 0.30666 0.0
C344 C 0.12166 0.50259 0.30893 0.0
C345 C 0.12906 0.4577 0.37328 0.0
C346 C 0.10002 0.48462 0.3745 0.0
N347 N 1.00198 0.57593 0.34205 0.0
C348 C 0.95361 0.61234 0.30588 0.0
C349 C 0.94145 0.62891 0.33946 0.0
C350 C 0.95968 0.61804 0.37464 0.0
C351 C 0.98923 0.59143 0.37539 0.0
C352 C 0.98359 0.5863 0.30776 0.0
H353 H 1.00169 0.58394 0.40318 0.0
H354 H 0.99191 0.57529 0.28087 0.0
H355 H 0.1203 0.51878 0.28289 0.0
H356 H 0.08155 0.48677 0.40179 0.0
C357 C 0.04122 0.53342 0.43871 0.0
C358 C 0.12377 0.61499 0.34492 0.0
C359 C 0.96595 0.47178 0.34038 0.0
C360 C 0.05827 0.54791 0.24573 0.0
H361 H 0.14779 0.62306 0.42401 0.0
H362 H 0.10345 0.57768 0.47595 0.0
H363 H 0.97193 0.48459 0.47323 0.0
H364 H 0.93152 0.45048 0.41894 0.0
H365 H 0.95319 0.45691 0.26057 0.0
H366 H 1.00442 0.49779 0.20844 0.0
H367 H 0.11512 0.60526 0.21155 0.0
H368 H 0.15056 0.64189 0.26603 0.0
H369 H 0.17053 0.47399 0.27918 0.0
H370 H 0.13126 0.44073 0.39931 0.0
H371 H 0.94078 0.61992 0.27782 0.0
H372 H 0.9508 0.62974 0.40158 0.0
C373 C 0.09136 0.60471 0.80767 0.0
C374 C 0.10128 0.61553 0.84427 0.0
C375 C 0.07497 0.59462 0.87133 0.0
C376 C 0.05059 0.57227 0.84988 0.0
N377 N 0.06028 0.57718 0.81074 0.0
Co378 Co 0.02981 0.55188 0.76905 0.0
N379 N 0.992 0.52037 0.80897 0.0
C380 C 0.99332 0.52035 0.8484 0.0
C381 C 0.96741 0.4937 0.8684 0.0
C382 C 0.94919 0.475 0.84006 0.0
C383 C 0.96474 0.49161 0.80422 0.0
N384 N 0.99763 0.52783 0.72747 0.0
C385 C 0.96796 0.49951 0.73035 0.0
C386 C 0.95347 0.49159 0.69393 0.0
C387 C 0.97575 0.51514 0.66702 0.0
C388 C 1.00218 0.53621 0.68847 0.0
N389 N 0.0696 0.58177 0.72911 0.0
C390 C 0.06992 0.58043 0.68974 0.0
C391 C 0.10074 0.60394 0.66958 0.0
C392 C 0.12127 0.6215 0.69776 0.0
C393 C 0.10163 0.60767 0.73365 0.0
N394 N 0.07633 0.51737 0.76927 0.0
C395 C 0.13693 0.46444 0.7718 0.0
C396 C 0.11865 0.47528 0.73664 0.0
C397 C 0.08905 0.50188 0.73592 0.0
C398 C 0.12479 0.481 0.8054 0.0
C399 C 0.09476 0.50701 0.80354 0.0
N400 N 0.98309 0.58661 0.76911 0.0
C401 C 0.9492 0.63558 0.73815 0.0
C402 C 0.92318 0.64014 0.77257 0.0
C403 C 0.92691 0.61685 0.80478 0.0
C404 C 0.95664 0.59068 0.80248 0.0
C405 C 0.97824 0.60867 0.73691 0.0
H406 H 0.95801 0.57447 0.82851 0.0
H407 H 0.99669 0.60652 0.70961 0.0
H408 H 0.07655 0.50935 0.70814 0.0
H409 H 0.08645 0.51801 0.83045 0.0
C410 C 0.02009 0.54536 0.86563 0.0
C411 C 0.1123 0.62154 0.77096 0.0
C412 C 0.95454 0.47829 0.76645 0.0
C413 C 0.037 0.55989 0.67265 0.0
H414 H 0.12504 0.63644 0.85077 0.0
H415 H 0.07388 0.59552 0.90291 0.0
H416 H 0.96329 0.48798 0.89983 0.0
H417 H 0.92781 0.45136 0.84535 0.0
H418 H 0.93044 0.47024 0.68739 0.0
H419 H 0.97473 0.51564 0.63543 0.0
H420 H 0.10627 0.60874 0.63811 0.0
H421 H 0.1467 0.64284 0.6924 0.0
H422 H 0.12751 0.4636 0.7097 0.0
H423 H 0.13765 0.47342 0.83344 0.0
H424 H 0.94699 0.65256 0.71213 0.0
H425 H 0.90779 0.61926 0.83227 0.0
C426 C 0.30188 0.99024 0.61041 0.0
C427 C 0.34284 0.98092 0.6242 0.0
C428 C 0.37602 1.0032 0.60559 0.0
C429 C 0.35364 0.02472 0.58145 0.0
N430 N 0.30801 1.01793 0.58392 0.0
Co431 Co 0.26301 0.04145 0.55159 0.0
N432 N 0.31235 0.07181 0.52114 0.0
C433 C 0.35754 0.07171 0.5255 0.0
C434 C 0.38297 0.09668 0.50226 0.0
C435 C 0.35219 0.11422 0.48229 0.0
C436 C 0.30954 0.0988 0.49443 0.0
N437 N 0.218 0.06477 0.51926 0.0
C438 C 0.22412 0.09215 0.49249 0.0
C439 C 0.18339 0.10059 0.47749 0.0
C440 C 0.15019 0.0784 0.49617 0.0
C441 C 0.17245 0.05762 0.52124 0.0
N442 N 0.21367 1.01127 0.58207 0.0
C443 C 0.16842 1.0118 0.57827 0.0
C444 C 0.14286 0.98759 0.60246 0.0
C445 C 0.17361 0.97008 0.62245 0.0
C446 C 0.21637 0.98454 0.60906 0.0
N447 N 0.25802 0.07732 0.59039 0.0
C448 C 0.25175 0.13452 0.63696 0.0
C449 C 0.21286 0.11686 0.62447 0.0
C450 C 0.2167 0.0886 0.60165 0.0
C451 C 0.29369 0.12178 0.62725 0.0
C452 C 0.296 0.0934 0.60436 0.0
N453 N 0.26809 1.00581 0.51253 0.0
C454 C 0.23341 0.96398 0.47164 0.0
C455 C 0.27594 0.95445 0.45804 0.0
C456 C 0.31435 0.97101 0.47266 0.0
C457 C 0.30972 0.99631 0.49942 0.0
C458 C 0.23029 0.98946 0.49855 0.0
H459 H 0.34044 1.00771 0.50919 0.0
H460 H 0.19689 0.9955 0.50757 0.0
H461 H 0.18575 0.07672 0.59277 0.0
H462 H 0.32908 0.08551 0.59753 0.0
C463 C 0.37469 0.04964 0.55388 0.0
C464 C 0.2584 0.97085 0.62157 0.0
C465 C 0.26729 0.11198 0.48167 0.0
C466 C 0.15126 0.0333 0.54937 0.0
H467 H 0.34841 0.95961 0.6447 0.0
H468 H 0.41231 1.00292 0.60824 0.0
H469 H 0.41942 0.1023 0.50108 0.0
H470 H 0.36024 0.1365 0.46201 0.0
H471 H 0.17811 0.12128 0.45601 0.0
H472 H 0.11397 0.07823 0.49289 0.0
H473 H 0.1063 0.9825 0.60434 0.0
H474 H 0.16557 0.94848 0.64373 0.0
H475 H 0.17936 0.12491 0.63201 0.0
H476 H 0.32497 0.13431 0.63604 0.0
H477 H 0.2025 0.95233 0.46107 0.0
H478 H 0.34816 0.96435 0.46381 0.0
C479 C 0.46671 0.83886 0.11068 0.0
C480 C 0.45147 0.86874 0.12479 0.0
C481 C 0.47643 0.8955 0.10446 0.0
C482 C 0.50535 0.88056 0.07915 0.0
N483 N 0.50012 0.84581 0.08173 0.0
Co484 Co 0.53695 0.81399 0.05146 0.0
N485 N 0.57271 0.85346 0.0207 0.0
C486 C 0.56778 0.88733 0.02387 0.0
C487 C 0.59534 0.90841 0.9976 0.0
C488 C 0.6187 0.88676 0.97575 0.0
C489 C 0.60388 0.85356 0.98997 0.0
N490 N 0.57483 0.78225 0.02216 0.0
C491 C 0.60681 0.78905 0.99204 0.0
C492 C 0.6239 0.75915 0.97966 0.0
C493 C 0.60189 0.73256 1.00258 0.0
C494 C 0.57262 0.74761 0.02748 0.0
N495 N 0.49999 0.77451 0.081 0.0
C496 C 0.50437 0.74071 0.0771 0.0
C497 C 0.47459 0.71942 0.10125 0.0
C498 C 0.44958 0.74087 0.12192 0.0
C499 C 0.46556 0.7742 0.10906 0.0
N500 N 0.49271 0.81361 1.00962 0.0
C501 C 0.43749 0.81599 0.94472 0.0
C502 C 0.45431 0.78514 0.95847 0.0
C503 C 0.48164 0.78452 0.99079 0.0
C504 C 0.44699 0.84505 0.96537 0.0
C505 C 0.47418 0.8433 0.99737 0.0
N506 N 0.58134 0.81466 0.0935 0.0
C507 C 0.61966 0.78575 0.1458 0.0
C508 C 0.63674 0.81719 0.15842 0.0
C509 C 0.6274 0.84707 0.13668 0.0
C510 C 0.60016 0.84525 0.10476 0.0
C511 C 0.59234 0.78507 0.11348 0.0
H512 H 0.59438 0.86916 0.09012 0.0
H513 H 0.5799 0.76033 0.10568 0.0
H514 H 0.49422 0.76042 0.99959 0.0
H515 H 0.48039 0.86657 1.01127 0.0
C516 C 0.53662 0.89844 0.05164 0.0
C517 C 0.44812 0.80457 0.12559 0.0
C518 C 0.61989 0.82304 0.97273 0.0
C519 C 0.53895 0.72979 0.0526 0.0
H520 H 0.42498 0.87095 0.14742 0.0
H521 H 0.47366 0.92265 0.10762 0.0
H522 H 0.5977 0.93621 0.99435 0.0
H523 H 0.64345 0.89451 0.95174 0.0
H524 H 0.64863 0.7566 0.95572 0.0
H525 H 0.60531 0.7054 1.00016 0.0
H526 H 0.47213 0.69161 0.10419 0.0
H527 H 0.4232 0.73279 0.1445 0.0
H528 H 0.44771 0.76183 0.94365 0.0
H529 H 0.43375 0.86936 0.9567 0.0
H530 H 0.62612 0.76177 0.16143 0.0
H531 H 0.64091 0.87207 0.14434 0.0
C532 C 0.85445 1.00113 0.61896 0.0
C533 C 0.89519 0.99268 0.63394 0.0
C534 C 0.92838 1.01489 0.61527 0.0
C535 C 0.90611 0.03568 0.59021 0.0
N536 N 0.86056 0.02853 0.5922 0.0
Co537 Co 0.81554 0.05185 0.55988 0.0
N538 N 0.86488 0.08205 0.52942 0.0
C539 C 0.91013 0.08154 0.53323 0.0
C540 C 0.93569 0.10575 0.50905 0.0
C541 C 0.90493 0.12326 0.48905 0.0
C542 C 0.86218 0.10878 0.50243 0.0
N543 N 0.77054 0.07537 0.52756 0.0
C544 C 0.77667 0.10304 0.50104 0.0
C545 C 0.73571 0.11234 0.48723 0.0
C546 C 0.70254 0.09005 0.50584 0.0
C547 C 0.72492 0.06856 0.53001 0.0
N548 N 0.76622 1.02147 0.59031 0.0
C549 C 0.72103 1.02156 0.58595 0.0
C550 C 0.6956 0.99658 0.60918 0.0
C551 C 0.72638 0.97905 0.62915 0.0
C552 C 0.76903 0.99448 0.61702 0.0
N553 N 0.81045 0.08747 0.59895 0.0
C554 C 0.80256 0.13881 0.65347 0.0
C555 C 0.76416 0.12224 0.63884 0.0
C556 C 0.76881 0.09696 0.61206 0.0
C557 C 0.8451 0.12929 0.63987 0.0
C558 C 0.84824 0.10382 0.61295 0.0
N559 N 0.82056 1.01599 0.52106 0.0
C560 C 0.78492 0.97156 0.48416 0.0
C561 C 0.82687 0.95884 0.47442 0.0
C562 C 0.86575 0.97649 0.48693 0.0
C563 C 0.86189 1.00474 0.50979 0.0
C564 C 0.78259 0.99991 0.50708 0.0
H565 H 0.89283 1.01662 0.51867 0.0
H566 H 0.7495 1.00778 0.51392 0.0
H567 H 0.7381 0.08556 0.60228 0.0
H568 H 0.88165 0.09778 0.60394 0.0
C569 C 0.92729 0.06002 0.56211 0.0
C570 C 0.81128 0.9813 0.62978 0.0
C571 C 0.82014 0.12245 0.48989 0.0
C572 C 0.70387 0.04364 0.55757 0.0
H573 H 0.90047 0.97199 0.6554 0.0
H574 H 0.9646 1.01505 0.61855 0.0
H575 H 0.97225 0.11086 0.50718 0.0
H576 H 0.91298 0.14486 0.46778 0.0
H577 H 0.73014 0.13363 0.46671 0.0
H578 H 0.66625 0.09032 0.50317 0.0
H579 H 0.65915 0.99095 0.61035 0.0
H580 H 0.71834 0.95676 0.64942 0.0
H581 H 0.73034 0.1289 0.64769 0.0
H582 H 0.876 0.14094 0.65045 0.0
H583 H 0.75364 0.95902 0.47536 0.0
H584 H 0.89926 0.96847 0.47939 0.0
C585 C 0.47153 0.30432 0.1194 0.0
C586 C 0.45448 0.33423 0.13181 0.0
C587 C 0.47654 0.36081 0.10891 0.0
C588 C 0.50578 0.34576 0.084 0.0
N589 N 0.50351 0.31111 0.08927 0.0
Co590 Co 0.54139 0.27936 0.05999 0.0
N591 N 0.5784 0.31883 0.03048 0.0
C592 C 0.57402 0.35264 0.03437 0.0
C593 C 0.60382 0.37392 1.01022 0.0
C594 C 0.62883 0.35246 0.98957 0.0
C595 C 0.61284 0.31913 1.00243 0.0
N596 N 0.57824 0.24752 0.02976 0.0
C597 C 0.6117 0.25447 1.00085 0.0
C598 C 0.62698 0.22459 0.98679 0.0
C599 C 0.60199 0.19783 1.0071 0.0
C600 C 0.57301 0.21277 0.03236 0.0
N601 N 0.50555 0.23989 0.0907 0.0
C602 C 0.51043 0.20603 0.08751 0.0
C603 C 0.4828 0.18495 0.11373 0.0
C604 C 0.45946 0.20661 0.13558 0.0
C605 C 0.47435 0.23981 0.12141 0.0
N606 N 0.49705 0.27873 1.01791 0.0
C607 C 0.44175 0.27627 0.95291 0.0
C608 C 0.45116 0.24636 0.97457 0.0
C609 C 0.47835 0.24815 1.00653 0.0
C610 C 0.45872 0.3077 0.96566 0.0
C611 C 0.48599 0.30834 0.99801 0.0
N612 N 0.58557 0.27971 0.10187 0.0
C613 C 0.63114 0.24823 0.14623 0.0
C614 C 0.64075 0.27731 0.16681 0.0
C615 C 0.62405 0.30818 0.15298 0.0
C616 C 0.59674 0.30882 0.12065 0.0
C617 C 0.60398 0.24999 0.11421 0.0
H618 H 0.58425 0.33293 0.11179 0.0
H619 H 0.5977 0.22671 0.10036 0.0
H620 H 0.48418 0.22422 0.0211 0.0
H621 H 0.49834 0.33307 1.00591 0.0
C622 C 0.53946 0.36357 0.05888 0.0
C623 C 0.4584 0.27033 0.13868 0.0
C624 C 0.63029 0.28876 0.98592 0.0
C625 C 0.54167 0.1949 0.0598 0.0
H626 H 0.42976 0.33678 0.15575 0.0
H627 H 0.47315 0.38798 0.11135 0.0
H628 H 0.60629 0.40172 1.00728 0.0
H629 H 0.65522 0.36053 0.967 0.0
H630 H 0.65351 0.22236 0.96419 0.0
H631 H 0.60477 0.17068 1.00396 0.0
H632 H 0.48041 0.15715 0.11697 0.0
H633 H 0.43467 0.19887 0.15958 0.0
H634 H 0.43775 0.22137 0.96681 0.0
H635 H 0.45219 0.33169 0.9501 0.0
H636 H 0.64428 0.2239 0.15495 0.0
H637 H 0.63074 0.33151 0.16775 0.0
loop_
_geom_bond_atom_site_label_1
_geom_bond_atom_site_label_2
_geom_bond_distance
_geom_bond_site_symmetry_2
_ccdc_geom_bond_type
C0 C1 1.264 . S
C0 C5 1.479 . S
C0 C10 1.465 . S
C1 C0 1.264 . S
C1 C3 1.339 . S
C1 H28 0.931 . S
C2 C3 1.395 . S
C2 C4 1.320 . S
C3 C1 1.339 . S
C3 C2 1.395 . S
C3 H29 0.929 . S
C4 C2 1.320 . S
C4 C5 1.405 . S
C4 H30 0.930 . S
C5 C0 1.479 . S
C5 C4 1.405 . S
C5 H31 0.931 . S
U6 O7 2.454 . S
U6 O8 2.458 . S
U6 C9 2.984 . S
U6 C10 2.847 . S
U6 C23 2.882 . S
U6 O24 2.441 . S
U6 O25 2.420 . S
U6 O26 2.455 . S
U6 O27 2.449 . S
O7 U6 2.454 . S
O7 C9 1.353 . S
O8 U6 2.458 . S
O8 C9 1.286 . S
C9 U6 2.984 . S
C9 O7 1.353 . S
C9 O8 1.286 . S
C9 C11 1.363 . S
C10 C0 1.465 . S
C10 U6 2.847 . S
C10 O24 1.249 . S
C10 O25 1.202 . S
C11 C9 1.363 . S
C11 C13 1.408 . S
C11 C16 1.342 . S
C12 C13 1.310 . S
C12 C15 1.461 . S
C12 H32 0.932 . S
C13 C11 1.408 . S
C13 C12 1.310 . S
C13 H33 0.930 . S
C14 C15 1.474 . S
C14 C16 1.285 . S
C14 H34 0.929 . S
C15 C12 1.461 . S
C15 C14 1.474 . S
C16 C11 1.342 . S
C16 C14 1.285 . S
C16 H35 0.930 . S
C17 C20 1.424 . S
C17 C22 1.245 . S
C17 C23 1.428 . S
C18 C21 1.260 . S
C18 C22 1.477 . S
C18 H36 0.932 . S
C19 C20 1.384 . S
C19 C21 1.479 . S
C19 H37 0.929 . S
C20 C17 1.424 . S
C20 C19 1.384 . S
C20 H38 0.928 . S
C21 C18 1.260 . S
C21 C19 1.479 . S
C22 C17 1.245 . S
C22 C18 1.477 . S
C22 H39 0.932 . S
C23 U6 2.882 . S
C23 C17 1.428 . S
C23 O26 1.301 . S
C23 O27 1.282 . S
O24 U6 2.441 . S
O24 C10 1.249 . S
O25 U6 2.420 . S
O25 C10 1.202 . S
O26 U6 2.455 . S
O26 C23 1.301 . S
O27 U6 2.449 . S
O27 C23 1.282 . S
H28 C1 0.931 . S
H29 C3 0.929 . S
H30 C4 0.930 . S
H31 C5 0.931 . S
H32 C12 0.932 . S
H33 C13 0.930 . S
H34 C14 0.929 . S
H35 C16 0.930 . S
H36 C18 0.932 . S
H37 C19 0.929 . S
H38 C20 0.928 . S
H39 C22 0.932 . S
C40 C41 1.264 . S
C40 C45 1.479 . S
C40 C50 1.465 . S
C41 C40 1.264 . S
C41 C43 1.339 . S
C41 H68 0.931 . S
C42 C43 1.395 . S
C42 C44 1.320 . S
C43 C41 1.339 . S
C43 C42 1.395 . S
C43 H69 0.929 . S
C44 C42 1.320 . S
C44 C45 1.405 . S
C44 H70 0.930 . S
C45 C40 1.479 . S
C45 C44 1.405 . S
C45 H71 0.931 . S
U46 O47 2.454 . S
U46 O48 2.458 . S
U46 C49 2.984 . S
U46 C50 2.847 . S
U46 C63 2.882 . S
U46 O64 2.441 . S
U46 O65 2.420 . S
U46 O66 2.455 . S
U46 O67 2.449 . S
O47 U46 2.454 . S
O47 C49 1.353 . S
O48 U46 2.458 . S
O48 C49 1.286 . S
C49 U46 2.984 . S
C49 O47 1.353 . S
C49 O48 1.286 . S
C49 C51 1.363 . S
C50 C40 1.465 . S
C50 U46 2.847 . S
C50 O64 1.249 . S
C50 O65 1.202 . S
C51 C49 1.363 . S
C51 C53 1.408 . S
C51 C56 1.342 . S
C52 C53 1.310 . S
C52 C55 1.461 . S
C52 H72 0.932 . S
C53 C51 1.408 . S
C53 C52 1.310 . S
C53 H73 0.930 . S
C54 C55 1.474 . S
C54 C56 1.285 . S
C54 H74 0.929 . S
C55 C52 1.461 . S
C55 C54 1.474 . S
C56 C51 1.342 . S
C56 C54 1.285 . S
C56 H75 0.930 . S
C57 C60 1.424 . S
C57 C62 1.245 . S
C57 C63 1.428 . S
C58 C61 1.260 . S
C58 C62 1.477 . S
C58 H76 0.932 . S
C59 C60 1.384 . S
C59 C61 1.479 . S
C59 H77 0.929 . S
C60 C57 1.424 . S
C60 C59 1.384 . S
C60 H78 0.928 . S
C61 C58 1.260 . S
C61 C59 1.479 . S
C62 C57 1.245 . S
C62 C58 1.477 . S
C62 H79 0.932 . S
C63 U46 2.882 . S
C63 C57 1.428 . S
C63 O66 1.301 . S
C63 O67 1.282 . S
O64 U46 2.441 . S
O64 C50 1.249 . S
O65 U46 2.420 . S
O65 C50 1.202 . S
O66 U46 2.455 . S
O66 C63 1.301 . S
O67 U46 2.449 . S
O67 C63 1.282 . S
H68 C41 0.931 . S
H69 C43 0.929 . S
H70 C44 0.930 . S
H71 C45 0.931 . S
H72 C52 0.932 . S
H73 C53 0.930 . S
H74 C54 0.929 . S
H75 C56 0.930 . S
H76 C58 0.932 . S
H77 C59 0.929 . S
H78 C60 0.928 . S
H79 C62 0.932 . S
C80 C81 1.264 . S
C80 C85 1.479 . S
C80 C90 1.465 . S
C81 C80 1.264 . S
C81 C83 1.339 . S
C81 H108 0.931 . S
C82 C83 1.395 . S
C82 C84 1.320 . S
C83 C81 1.339 . S
C83 C82 1.395 . S
C83 H109 0.929 . S
C84 C82 1.320 . S
C84 C85 1.405 . S
C84 H110 0.930 . S
C85 C80 1.479 . S
C85 C84 1.405 . S
C85 H111 0.931 . S
U86 O87 2.454 . S
U86 O88 2.458 . S
U86 C89 2.984 . S
U86 C90 2.847 . S
U86 C103 2.882 . S
U86 O104 2.441 . S
U86 O105 2.420 . S
U86 O106 2.455 . S
U86 O107 2.449 . S
O87 U86 2.454 . S
O87 C89 1.353 . S
O88 U86 2.458 . S
O88 C89 1.286 . S
C89 U86 2.984 . S
C89 O87 1.353 . S
C89 O88 1.286 . S
C89 C91 1.363 . S
C90 C80 1.465 . S
C90 U86 2.847 . S
C90 O104 1.249 . S
C90 O105 1.202 . S
C91 C89 1.363 . S
C91 C93 1.408 . S
C91 C96 1.342 . S
C92 C93 1.310 . S
C92 C95 1.461 . S
C92 H112 0.932 . S
C93 C91 1.408 . S
C93 C92 1.310 . S
C93 H113 0.930 . S
C94 C95 1.474 . S
C94 C96 1.285 . S
C94 H114 0.929 . S
C95 C92 1.461 . S
C95 C94 1.474 . S
C96 C91 1.342 . S
C96 C94 1.285 . S
C96 H115 0.930 . S
C97 C100 1.424 . S
C97 C102 1.245 . S
C97 C103 1.428 . S
C98 C101 1.260 . S
C98 C102 1.477 . S
C98 H116 0.932 . S
C99 C100 1.384 . S
C99 C101 1.479 . S
C99 H117 0.929 . S
C100 C97 1.424 . S
C100 C99 1.384 . S
C100 H118 0.928 . S
C101 C98 1.260 . S
C101 C99 1.479 . S
C102 C97 1.245 . S
C102 C98 1.477 . S
C102 H119 0.932 . S
C103 U86 2.882 . S
C103 C97 1.428 . S
C103 O106 1.301 . S
C103 O107 1.282 . S
O104 U86 2.441 . S
O104 C90 1.249 . S
O105 U86 2.420 . S
O105 C90 1.202 . S
O106 U86 2.455 . S
O106 C103 1.301 . S
O107 U86 2.449 . S
O107 C103 1.282 . S
H108 C81 0.931 . S
H109 C83 0.929 . S
H110 C84 0.930 . S
H111 C85 0.931 . S
H112 C92 0.932 . S
H113 C93 0.930 . S
H114 C94 0.929 . S
H115 C96 0.930 . S
H116 C98 0.932 . S
H117 C99 0.929 . S
H118 C100 0.928 . S
H119 C102 0.932 . S
C120 C121 1.264 . S
C120 C125 1.479 . S
C120 C130 1.465 . S
C121 C120 1.264 . S
C121 C123 1.339 . S
C121 H148 0.931 . S
C122 C123 1.395 . S
C122 C124 1.320 . S
C123 C121 1.339 . S
C123 C122 1.395 . S
C123 H149 0.929 . S
C124 C122 1.320 . S
C124 C125 1.405 . S
C124 H150 0.930 . S
C125 C120 1.479 . S
C125 C124 1.405 . S
C125 H151 0.931 . S
U126 O127 2.454 . S
U126 O128 2.458 . S
U126 C129 2.984 . S
U126 C130 2.847 . S
U126 C143 2.882 . S
U126 O144 2.441 . S
U126 O145 2.420 . S
U126 O146 2.455 . S
U126 O147 2.449 . S
O127 U126 2.454 . S
O127 C129 1.353 . S
O128 U126 2.458 . S
O128 C129 1.286 . S
C129 U126 2.984 . S
C129 O127 1.353 . S
C129 O128 1.286 . S
C129 C131 1.363 . S
C130 C120 1.465 . S
C130 U126 2.847 . S
C130 O144 1.249 . S
C130 O145 1.202 . S
C131 C129 1.363 . S
C131 C133 1.408 . S
C131 C136 1.342 . S
C132 C133 1.310 . S
C132 C135 1.461 . S
C132 H152 0.932 . S
C133 C131 1.408 . S
C133 C132 1.310 . S
C133 H153 0.930 . S
C134 C135 1.474 . S
C134 C136 1.285 . S
C134 H154 0.929 . S
C135 C132 1.461 . S
C135 C134 1.474 . S
C136 C131 1.342 . S
C136 C134 1.285 . S
C136 H155 0.930 . S
C137 C140 1.424 . S
C137 C142 1.245 . S
C137 C143 1.428 . S
C138 C141 1.260 . S
C138 C142 1.477 . S
C138 H156 0.932 . S
C139 C140 1.384 . S
C139 C141 1.479 . S
C139 H157 0.929 . S
C140 C137 1.424 . S
C140 C139 1.384 . S
C140 H158 0.928 . S
C141 C138 1.260 . S
C141 C139 1.479 . S
C142 C137 1.245 . S
C142 C138 1.477 . S
C142 H159 0.932 . S
C143 U126 2.882 . S
C143 C137 1.428 . S
C143 O146 1.301 . S
C143 O147 1.282 . S
O144 U126 2.441 . S
O144 C130 1.249 . S
O145 U126 2.420 . S
O145 C130 1.202 . S
O146 U126 2.455 . S
O146 C143 1.301 . S
O147 U126 2.449 . S
O147 C143 1.282 . S
H148 C121 0.931 . S
H149 C123 0.929 . S
H150 C124 0.930 . S
H151 C125 0.931 . S
H152 C132 0.932 . S
H153 C133 0.930 . S
H154 C134 0.929 . S
H155 C136 0.930 . S
H156 C138 0.932 . S
H157 C139 0.929 . S
H158 C140 0.928 . S
H159 C142 0.932 . S
C160 C161 1.264 . S
C160 C165 1.479 . S
C160 C170 1.465 . S
C161 C160 1.264 . S
C161 C163 1.339 . S
C161 H188 0.931 . S
C162 C163 1.395 . S
C162 C164 1.320 . S
C163 C161 1.339 . S
C163 C162 1.395 . S
C163 H189 0.929 . S
C164 C162 1.320 . S
C164 C165 1.405 . S
C164 H190 0.930 . S
C165 C160 1.479 . S
C165 C164 1.405 . S
C165 H191 0.931 . S
U166 O167 2.454 . S
U166 O168 2.458 . S
U166 C169 2.984 . S
U166 C170 2.847 . S
U166 C183 2.882 . S
U166 O184 2.441 . S
U166 O185 2.420 . S
U166 O186 2.455 . S
U166 O187 2.449 . S
O167 U166 2.454 . S
O167 C169 1.353 . S
O168 U166 2.458 . S
O168 C169 1.286 . S
C169 U166 2.984 . S
C169 O167 1.353 . S
C169 O168 1.286 . S
C169 C171 1.363 . S
C170 C160 1.465 . S
C170 U166 2.847 . S
C170 O184 1.249 . S
C170 O185 1.202 . S
C171 C169 1.363 . S
C171 C173 1.408 . S
C171 C176 1.342 . S
C172 C173 1.310 . S
C172 C175 1.461 . S
C172 H192 0.932 . S
C173 C171 1.408 . S
C173 C172 1.310 . S
C173 H193 0.930 . S
C174 C175 1.474 . S
C174 C176 1.285 . S
C174 H194 0.929 . S
C175 C172 1.461 . S
C175 C174 1.474 . S
C176 C171 1.342 . S
C176 C174 1.285 . S
C176 H195 0.930 . S
C177 C180 1.424 . S
C177 C182 1.245 . S
C177 C183 1.428 . S
C178 C181 1.260 . S
C178 C182 1.477 . S
C178 H196 0.932 . S
C179 C180 1.384 . S
C179 C181 1.479 . S
C179 H197 0.929 . S
C180 C177 1.424 . S
C180 C179 1.384 . S
C180 H198 0.928 . S
C181 C178 1.260 . S
C181 C179 1.479 . S
C182 C177 1.245 . S
C182 C178 1.477 . S
C182 H199 0.932 . S
C183 U166 2.882 . S
C183 C177 1.428 . S
C183 O186 1.301 . S
C183 O187 1.282 . S
O184 U166 2.441 . S
O184 C170 1.249 . S
O185 U166 2.420 . S
O185 C170 1.202 . S
O186 U166 2.455 . S
O186 C183 1.301 . S
O187 U166 2.449 . S
O187 C183 1.282 . S
H188 C161 0.931 . S
H189 C163 0.929 . S
H190 C164 0.930 . S
H191 C165 0.931 . S
H192 C172 0.932 . S
H193 C173 0.930 . S
H194 C174 0.929 . S
H195 C176 0.930 . S
H196 C178 0.932 . S
H197 C179 0.929 . S
H198 C180 0.928 . S
H199 C182 0.932 . S
C200 C201 1.264 . S
C200 C205 1.479 . S
C200 C210 1.465 . S
C201 C200 1.264 . S
C201 C203 1.339 . S
C201 H228 0.931 . S
C202 C203 1.395 . S
C202 C204 1.320 . S
C203 C201 1.339 . S
C203 C202 1.395 . S
C203 H229 0.929 . S
C204 C202 1.320 . S
C204 C205 1.405 . S
C204 H230 0.930 . S
C205 C200 1.479 . S
C205 C204 1.405 . S
C205 H231 0.931 . S
U206 O207 2.454 . S
U206 O208 2.458 . S
U206 C209 2.984 . S
U206 C210 2.847 . S
U206 C223 2.882 . S
U206 O224 2.441 . S
U206 O225 2.420 . S
U206 O226 2.455 . S
U206 O227 2.449 . S
O207 U206 2.454 . S
O207 C209 1.353 . S
O208 U206 2.458 . S
O208 C209 1.286 . S
C209 U206 2.984 . S
C209 O207 1.353 . S
C209 O208 1.286 . S
C209 C211 1.363 . S
C210 C200 1.465 . S
C210 U206 2.847 . S
C210 O224 1.249 . S
C210 O225 1.202 . S
C211 C209 1.363 . S
C211 C213 1.408 . S
C211 C216 1.342 . S
C212 C213 1.310 . S
C212 C215 1.461 . S
C212 H232 0.932 . S
C213 C211 1.408 . S
C213 C212 1.310 . S
C213 H233 0.930 . S
C214 C215 1.474 . S
C214 C216 1.285 . S
C214 H234 0.929 . S
C215 C212 1.461 . S
C215 C214 1.474 . S
C216 C211 1.342 . S
C216 C214 1.285 . S
C216 H235 0.930 . S
C217 C220 1.424 . S
C217 C222 1.245 . S
C217 C223 1.428 . S
C218 C221 1.260 . S
C218 C222 1.477 . S
C218 H236 0.932 . S
C219 C220 1.384 . S
C219 C221 1.479 . S
C219 H237 0.929 . S
C220 C217 1.424 . S
C220 C219 1.384 . S
C220 H238 0.928 . S
C221 C218 1.260 . S
C221 C219 1.479 . S
C222 C217 1.245 . S
C222 C218 1.477 . S
C222 H239 0.932 . S
C223 U206 2.882 . S
C223 C217 1.428 . S
C223 O226 1.301 . S
C223 O227 1.282 . S
O224 U206 2.441 . S
O224 C210 1.249 . S
O225 U206 2.420 . S
O225 C210 1.202 . S
O226 U206 2.455 . S
O226 C223 1.301 . S
O227 U206 2.449 . S
O227 C223 1.282 . S
H228 C201 0.931 . S
H229 C203 0.929 . S
H230 C204 0.930 . S
H231 C205 0.931 . S
H232 C212 0.932 . S
H233 C213 0.930 . S
H234 C214 0.929 . S
H235 C216 0.930 . S
H236 C218 0.932 . S
H237 C219 0.929 . S
H238 C220 0.928 . S
H239 C222 0.932 . S
C240 C241 1.264 . S
C240 C245 1.479 . S
C240 C250 1.465 . S
C241 C240 1.264 . S
C241 C243 1.339 . S
C241 H268 0.931 . S
C242 C243 1.395 . S
C242 C244 1.320 . S
C243 C241 1.339 . S
C243 C242 1.395 . S
C243 H269 0.929 . S
C244 C242 1.320 . S
C244 C245 1.405 . S
C244 H270 0.930 . S
C245 C240 1.479 . S
C245 C244 1.405 . S
C245 H271 0.931 . S
U246 O247 2.454 . S
U246 O248 2.458 . S
U246 C249 2.984 . S
U246 C250 2.847 . S
U246 C263 2.882 . S
U246 O264 2.441 . S
U246 O265 2.420 . S
U246 O266 2.455 . S
U246 O267 2.449 . S
O247 U246 2.454 . S
O247 C249 1.353 . S
O248 U246 2.458 . S
O248 C249 1.286 . S
C249 U246 2.984 . S
C249 O247 1.353 . S
C249 O248 1.286 . S
C249 C251 1.363 . S
C250 C240 1.465 . S
C250 U246 2.847 . S
C250 O264 1.249 . S
C250 O265 1.202 . S
C251 C249 1.363 . S
C251 C253 1.408 . S
C251 C256 1.342 . S
C252 C253 1.310 . S
C252 C255 1.461 . S
C252 H272 0.932 . S
C253 C251 1.408 . S
C253 C252 1.310 . S
C253 H273 0.930 . S
C254 C255 1.474 . S
C254 C256 1.285 . S
C254 H274 0.929 . S
C255 C252 1.461 . S
C255 C254 1.474 . S
C256 C251 1.342 . S
C256 C254 1.285 . S
C256 H275 0.930 . S
C257 C260 1.424 . S
C257 C262 1.245 . S
C257 C263 1.428 . S
C258 C261 1.260 . S
C258 C262 1.477 . S
C258 H276 0.932 . S
C259 C260 1.384 . S
C259 C261 1.479 . S
C259 H277 0.929 . S
C260 C257 1.424 . S
C260 C259 1.384 . S
C260 H278 0.928 . S
C261 C258 1.260 . S
C261 C259 1.479 . S
C262 C257 1.245 . S
C262 C258 1.477 . S
C262 H279 0.932 . S
C263 U246 2.882 . S
C263 C257 1.428 . S
C263 O266 1.301 . S
C263 O267 1.282 . S
O264 U246 2.441 . S
O264 C250 1.249 . S
O265 U246 2.420 . S
O265 C250 1.202 . S
O266 U246 2.455 . S
O266 C263 1.301 . S
O267 U246 2.449 . S
O267 C263 1.282 . S
H268 C241 0.931 . S
H269 C243 0.929 . S
H270 C244 0.930 . S
H271 C245 0.931 . S
H272 C252 0.932 . S
H273 C253 0.930 . S
H274 C254 0.929 . S
H275 C256 0.930 . S
H276 C258 0.932 . S
H277 C259 0.929 . S
H278 C260 0.928 . S
H279 C262 0.932 . S
C280 C281 1.264 . S
C280 C285 1.479 . S
C280 C290 1.465 . S
C281 C280 1.264 . S
C281 C283 1.339 . S
C281 H308 0.931 . S
C282 C283 1.395 . S
C282 C284 1.320 . S
C283 C281 1.339 . S
C283 C282 1.395 . S
C283 H309 0.929 . S
C284 C282 1.320 . S
C284 C285 1.405 . S
C284 H310 0.930 . S
C285 C280 1.479 . S
C285 C284 1.405 . S
C285 H311 0.931 . S
U286 O287 2.454 . S
U286 O288 2.458 . S
U286 C289 2.984 . S
U286 C290 2.847 . S
U286 C303 2.882 . S
U286 O304 2.441 . S
U286 O305 2.420 . S
U286 O306 2.455 . S
U286 O307 2.449 . S
O287 U286 2.454 . S
O287 C289 1.353 . S
O288 U286 2.458 . S
O288 C289 1.286 . S
C289 U286 2.984 . S
C289 O287 1.353 . S
C289 O288 1.286 . S
C289 C291 1.363 . S
C290 C280 1.465 . S
C290 U286 2.847 . S
C290 O304 1.249 . S
C290 O305 1.202 . S
C291 C289 1.363 . S
C291 C293 1.408 . S
C291 C296 1.342 . S
C292 C293 1.310 . S
C292 C295 1.461 . S
C292 H312 0.932 . S
C293 C291 1.408 . S
C293 C292 1.310 . S
C293 H313 0.930 . S
C294 C295 1.474 . S
C294 C296 1.285 . S
C294 H314 0.929 . S
C295 C292 1.461 . S
C295 C294 1.474 . S
C296 C291 1.342 . S
C296 C294 1.285 . S
C296 H315 0.930 . S
C297 C300 1.424 . S
C297 C302 1.245 . S
C297 C303 1.428 . S
C298 C301 1.260 . S
C298 C302 1.477 . S
C298 H316 0.932 . S
C299 C300 1.384 . S
C299 C301 1.479 . S
C299 H317 0.929 . S
C300 C297 1.424 . S
C300 C299 1.384 . S
C300 H318 0.928 . S
C301 C298 1.260 . S
C301 C299 1.479 . S
C302 C297 1.245 . S
C302 C298 1.477 . S
C302 H319 0.932 . S
C303 U286 2.882 . S
C303 C297 1.428 . S
C303 O306 1.301 . S
C303 O307 1.282 . S
O304 U286 2.441 . S
O304 C290 1.249 . S
O305 U286 2.420 . S
O305 C290 1.202 . S
O306 U286 2.455 . S
O306 C303 1.301 . S
O307 U286 2.449 . S
O307 C303 1.282 . S
H308 C281 0.931 . S
H309 C283 0.929 . S
H310 C284 0.930 . S
H311 C285 0.931 . S
H312 C292 0.932 . S
H313 C293 0.930 . S
H314 C294 0.929 . S
H315 C296 0.930 . S
H316 C298 0.932 . S
H317 C299 0.929 . S
H318 C300 0.928 . S
H319 C302 0.932 . S
C320 C321 1.443 . S
C320 N324 1.376 . S
C320 C358 1.389 . S
C321 C320 1.443 . S
C321 C322 1.340 . S
C321 H361 0.951 . S
C322 C321 1.340 . S
C322 C323 1.439 . S
C322 H362 0.950 . S
C323 C322 1.439 . S
C323 N324 1.374 . S
C323 C357 1.395 . S
N324 C320 1.376 . S
N324 C323 1.374 . S
N324 Co325 2.008 . S
Co325 N324 2.008 . S
Co325 N326 1.995 1_455 S
Co325 N331 2.008 . S
Co325 N336 1.995 . S
Co325 N341 2.282 . S
Co325 N347 2.282 1_455 S
N326 Co325 1.995 1_655 S
N326 C327 1.377 . S
N326 C330 1.383 . S
C327 N326 1.377 . S
C327 C328 1.455 . S
C327 C357 1.382 1_655 S
C328 C327 1.455 . S
C328 C329 1.339 . S
C328 H363 0.949 . S
C329 C328 1.339 . S
C329 C330 1.439 . S
C329 H364 0.950 . S
C330 N326 1.383 . S
C330 C329 1.439 . S
C330 C359 1.392 . S
N331 Co325 2.008 . S
N331 C332 1.376 1_455 S
N331 C335 1.374 . S
C332 N331 1.376 1_655 S
C332 C333 1.443 . S
C332 C359 1.389 . S
C333 C332 1.443 . S
C333 C334 1.340 . S
C333 H365 0.951 . S
C334 C333 1.340 . S
C334 C335 1.439 1_655 S
C334 H366 0.950 . S
C335 N331 1.374 . S
C335 C334 1.439 1_455 S
C335 C360 1.395 . S
N336 Co325 1.995 . S
N336 C337 1.376 . S
N336 C340 1.383 . S
C337 N336 1.376 . S
C337 C338 1.446 . S
C337 C360 1.391 . S
C338 C337 1.446 . S
C338 C339 1.339 . S
C338 H367 0.949 . S
C339 C338 1.339 . S
C339 C340 1.439 . S
C339 H368 0.950 . S
C340 N336 1.383 . S
C340 C339 1.439 . S
C340 C358 1.392 . S
N341 Co325 2.282 . S
N341 C344 1.332 . S
N341 C346 1.332 . S
C342 C343 1.386 . S
C342 C345 1.388 . S
C343 C342 1.386 . S
C343 C344 1.382 . S
C343 H369 0.950 . S
C344 N341 1.332 . S
C344 C343 1.382 . S
C344 H355 0.952 . S
C345 C342 1.388 . S
C345 C346 1.382 . S
C345 H370 0.950 . S
C346 N341 1.332 . S
C346 C345 1.382 . S
C346 H356 0.948 . S
N347 Co325 2.282 1_655 S
N347 C351 1.332 . S
N347 C352 1.332 . S
C348 C349 1.388 . S
C348 C352 1.382 . S
C348 H371 0.950 . S
C349 C348 1.388 . S
C349 C350 1.386 . S
C350 C349 1.386 . S
C350 C351 1.382 . S
C350 H372 0.950 . S
C351 N347 1.332 . S
C351 C350 1.382 . S
C351 H353 0.952 . S
C352 N347 1.332 . S
C352 C348 1.382 . S
C352 H354 0.948 . S
H353 C351 0.952 . S
H354 C352 0.948 . S
H355 C344 0.952 . S
H356 C346 0.948 . S
C357 C323 1.395 . S
C357 C327 1.382 1_455 S
C358 C320 1.389 . S
C358 C340 1.392 . S
C359 C330 1.392 . S
C359 C332 1.389 . S
C360 C335 1.395 . S
C360 C337 1.391 . S
H361 C321 0.951 . S
H362 C322 0.950 . S
H363 C328 0.949 . S
H364 C329 0.950 . S
H365 C333 0.951 . S
H366 C334 0.950 . S
H367 C338 0.949 . S
H368 C339 0.950 . S
H369 C343 0.950 . S
H370 C345 0.950 . S
H371 C348 0.950 . S
H372 C350 0.950 . S
C373 C374 1.443 . S
C373 N377 1.376 . S
C373 C411 1.389 . S
C374 C373 1.443 . S
C374 C375 1.340 . S
C374 H414 0.951 . S
C375 C374 1.340 . S
C375 C376 1.439 . S
C375 H415 0.950 . S
C376 C375 1.439 . S
C376 N377 1.374 . S
C376 C410 1.395 . S
N377 C373 1.376 . S
N377 C376 1.374 . S
N377 Co378 2.008 . S
Co378 N377 2.008 . S
Co378 N379 1.995 1_455 S
Co378 N384 2.008 1_455 S
Co378 N389 1.995 . S
Co378 N394 2.282 . S
Co378 N400 2.282 1_455 S
N379 Co378 1.995 1_655 S
N379 C380 1.376 . S
N379 C383 1.383 . S
C380 N379 1.376 . S
C380 C381 1.446 . S
C380 C410 1.391 1_655 S
C381 C380 1.446 . S
C381 C382 1.339 . S
C381 H416 0.949 . S
C382 C381 1.339 . S
C382 C383 1.439 . S
C382 H417 0.950 . S
C383 N379 1.383 . S
C383 C382 1.439 . S
C383 C412 1.392 . S
N384 Co378 2.008 1_655 S
N384 C385 1.376 . S
N384 C388 1.374 1_655 S
C385 N384 1.376 . S
C385 C386 1.443 . S
C385 C412 1.389 . S
C386 C385 1.443 . S
C386 C387 1.340 . S
C386 H418 0.951 . S
C387 C386 1.340 . S
C387 C388 1.439 1_655 S
C387 H419 0.950 . S
C388 N384 1.374 1_455 S
C388 C387 1.439 1_455 S
C388 C413 1.395 . S
N389 Co378 1.995 . S
N389 C390 1.376 . S
N389 C393 1.383 . S
C390 N389 1.376 . S
C390 C391 1.446 . S
C390 C413 1.391 . S
C391 C390 1.446 . S
C391 C392 1.339 . S
C391 H420 0.949 . S
C392 C391 1.339 . S
C392 C393 1.439 . S
C392 H421 0.950 . S
C393 N389 1.383 . S
C393 C392 1.439 . S
C393 C411 1.392 . S
N394 Co378 2.282 . S
N394 C397 1.332 . S
N394 C399 1.332 . S
C395 C396 1.386 . S
C395 C398 1.388 . S
C396 C395 1.386 . S
C396 C397 1.382 . S
C396 H422 0.950 . S
C397 N394 1.332 . S
C397 C396 1.382 . S
C397 H408 0.952 . S
C398 C395 1.388 . S
C398 C399 1.382 . S
C398 H423 0.950 . S
C399 N394 1.332 . S
C399 C398 1.382 . S
C399 H409 0.948 . S
N400 Co378 2.282 1_655 S
N400 C404 1.332 . S
N400 C405 1.332 . S
C401 C402 1.388 . S
C401 C405 1.382 . S
C401 H424 0.950 . S
C402 C401 1.388 . S
C402 C403 1.386 . S
C403 C402 1.386 . S
C403 C404 1.382 . S
C403 H425 0.950 . S
C404 N400 1.332 . S
C404 C403 1.382 . S
C404 H406 0.952 . S
C405 N400 1.332 . S
C405 C401 1.382 . S
C405 H407 0.948 . S
H406 C404 0.952 . S
H407 C405 0.948 . S
H408 C397 0.952 . S
H409 C399 0.948 . S
C410 C376 1.395 . S
C410 C380 1.391 1_455 S
C411 C373 1.389 . S
C411 C393 1.392 . S
C412 C383 1.392 . S
C412 C385 1.389 . S
C413 C388 1.395 . S
C413 C390 1.391 . S
H414 C374 0.951 . S
H415 C375 0.950 . S
H416 C381 0.949 . S
H417 C382 0.950 . S
H418 C386 0.951 . S
H419 C387 0.950 . S
H420 C391 0.949 . S
H421 C392 0.950 . S
H422 C396 0.950 . S
H423 C398 0.950 . S
H424 C401 0.950 . S
H425 C403 0.950 . S
C426 C427 1.443 . S
C426 N430 1.376 . S
C426 C464 1.389 . S
C427 C426 1.443 . S
C427 C428 1.340 . S
C427 H467 0.951 . S
C428 C427 1.340 . S
C428 C429 1.439 . S
C428 H468 0.950 . S
C429 C428 1.439 . S
C429 N430 1.374 . S
C429 C463 1.395 1_565 S
N430 C426 1.376 . S
N430 C429 1.374 . S
N430 Co431 2.008 1_565 S
Co431 N430 2.008 1_545 S
Co431 N432 1.995 . S
Co431 N437 2.008 . S
Co431 N442 1.995 1_545 S
Co431 N447 2.282 . S
Co431 N453 2.282 1_545 S
N432 Co431 1.995 . S
N432 C433 1.376 . S
N432 C436 1.383 . S
C433 N432 1.376 . S
C433 C434 1.446 . S
C433 C463 1.391 . S
C434 C433 1.446 . S
C434 C435 1.339 . S
C434 H469 0.949 . S
C435 C434 1.339 . S
C435 C436 1.439 . S
C435 H470 0.950 . S
C436 N432 1.383 . S
C436 C435 1.439 . S
C436 C465 1.392 . S
N437 Co431 2.008 . S
N437 C438 1.376 . S
N437 C441 1.374 . S
C438 N437 1.376 . S
C438 C439 1.443 . S
C438 C465 1.389 . S
C439 C438 1.443 . S
C439 C440 1.340 . S
C439 H471 0.951 . S
C440 C439 1.340 . S
C440 C441 1.439 . S
C440 H472 0.950 . S
C441 N437 1.374 . S
C441 C440 1.439 . S
C441 C466 1.395 . S
N442 Co431 1.995 1_565 S
N442 C443 1.376 . S
N442 C446 1.383 . S
C443 N442 1.376 . S
C443 C444 1.446 . S
C443 C466 1.391 1_565 S
C444 C443 1.446 . S
C444 C445 1.339 . S
C444 H473 0.949 . S
C445 C444 1.339 . S
C445 C446 1.439 . S
C445 H474 0.950 . S
C446 N442 1.383 . S
C446 C445 1.439 . S
C446 C464 1.392 . S
N447 Co431 2.282 . S
N447 C450 1.332 . S
N447 C452 1.332 . S
C448 C449 1.386 . S
C448 C451 1.388 . S
C449 C448 1.386 . S
C449 C450 1.382 . S
C449 H475 0.950 . S
C450 N447 1.332 . S
C450 C449 1.382 . S
C450 H461 0.952 . S
C451 C448 1.388 . S
C451 C452 1.382 . S
C451 H476 0.950 . S
C452 N447 1.332 . S
C452 C451 1.382 . S
C452 H462 0.948 . S
N453 Co431 2.282 1_565 S
N453 C457 1.332 . S
N453 C458 1.332 . S
C454 C455 1.388 . S
C454 C458 1.382 . S
C454 H477 0.950 . S
C455 C454 1.388 . S
C455 C456 1.386 . S
C456 C455 1.386 . S
C456 C457 1.382 . S
C456 H478 0.950 . S
C457 N453 1.332 . S
C457 C456 1.382 . S
C457 H459 0.952 . S
C458 N453 1.332 . S
C458 C454 1.382 . S
C458 H460 0.948 . S
H459 C457 0.952 . S
H460 C458 0.948 . S
H461 C450 0.952 . S
H462 C452 0.948 . S
C463 C429 1.395 1_545 S
C463 C433 1.391 . S
C464 C426 1.389 . S
C464 C446 1.392 . S
C465 C436 1.392 . S
C465 C438 1.389 . S
C466 C441 1.395 . S
C466 C443 1.391 1_545 S
H467 C427 0.951 . S
H468 C428 0.950 . S
H469 C434 0.949 . S
H470 C435 0.950 . S
H471 C439 0.951 . S
H472 C440 0.950 . S
H473 C444 0.949 . S
H474 C445 0.950 . S
H475 C449 0.950 . S
H476 C451 0.950 . S
H477 C454 0.950 . S
H478 C456 0.950 . S
C479 C480 1.443 . S
C479 N483 1.376 . S
C479 C517 1.389 . S
C480 C479 1.443 . S
C480 C481 1.340 . S
C480 H520 0.951 . S
C481 C480 1.340 . S
C481 C482 1.439 . S
C481 H521 0.950 . S
C482 C481 1.439 . S
C482 N483 1.374 . S
C482 C516 1.395 . S
N483 C479 1.376 . S
N483 C482 1.374 . S
N483 Co484 2.008 . S
Co484 N483 2.008 . S
Co484 N485 1.988 1_554 S
Co484 N490 2.008 1_554 S
Co484 N495 1.995 . S
Co484 N500 2.282 1_554 S
Co484 N506 2.282 . S
N485 Co484 1.988 1_556 S
N485 C486 1.374 1_556 S
N485 C489 1.394 . S
C486 N485 1.374 1_554 S
C486 C487 1.446 1_554 S
C486 C516 1.391 . S
C487 C486 1.446 1_556 S
C487 C488 1.339 . S
C487 H522 0.949 . S
C488 C487 1.339 . S
C488 C489 1.439 . S
C488 H523 0.950 . S
C489 N485 1.394 . S
C489 C488 1.439 . S
C489 C518 1.392 . S
N490 Co484 2.008 1_556 S
N490 C491 1.376 . S
N490 C494 1.374 1_556 S
C491 N490 1.376 . S
C491 C492 1.443 . S
C491 C518 1.389 . S
C492 C491 1.443 . S
C492 C493 1.340 . S
C492 H524 0.951 . S
C493 C492 1.340 . S
C493 C494 1.439 1_556 S
C493 H525 0.950 . S
C494 N490 1.374 1_554 S
C494 C493 1.439 1_554 S
C494 C519 1.395 . S
N495 Co484 1.995 . S
N495 C496 1.376 . S
N495 C499 1.383 . S
C496 N495 1.376 . S
C496 C497 1.446 . S
C496 C519 1.391 . S
C497 C496 1.446 . S
C497 C498 1.339 . S
C497 H526 0.949 . S
C498 C497 1.339 . S
C498 C499 1.439 . S
C498 H527 0.950 . S
C499 N495 1.383 . S
C499 C498 1.439 . S
C499 C517 1.392 . S
N500 Co484 2.282 1_556 S
N500 C503 1.332 . S
N500 C505 1.332 . S
C501 C502 1.386 . S
C501 C504 1.388 . S
C502 C501 1.386 . S
C502 C503 1.382 . S
C502 H528 0.950 . S
C503 N500 1.332 . S
C503 C502 1.382 . S
C503 H514 0.952 . S
C504 C501 1.388 . S
C504 C505 1.382 . S
C504 H529 0.950 . S
C505 N500 1.332 . S
C505 C504 1.382 . S
C505 H515 0.948 . S
N506 Co484 2.282 . S
N506 C510 1.332 . S
N506 C511 1.332 . S
C507 C508 1.388 . S
C507 C511 1.382 . S
C507 H530 0.950 . S
C508 C507 1.388 . S
C508 C509 1.386 . S
C509 C508 1.386 . S
C509 C510 1.382 . S
C509 H531 0.950 . S
C510 N506 1.332 . S
C510 C509 1.382 . S
C510 H512 0.952 . S
C511 N506 1.332 . S
C511 C507 1.382 . S
C511 H513 0.948 . S
H512 C510 0.952 . S
H513 C511 0.948 . S
H514 C503 0.952 . S
H515 C505 0.948 . S
C516 C482 1.395 . S
C516 C486 1.391 . S
C517 C479 1.389 . S
C517 C499 1.392 . S
C518 C489 1.392 . S
C518 C491 1.389 . S
C519 C494 1.395 . S
C519 C496 1.391 . S
H520 C480 0.951 . S
H521 C481 0.950 . S
H522 C487 0.949 . S
H523 C488 0.950 . S
H524 C492 0.951 . S
H525 C493 0.950 . S
H526 C497 0.949 . S
H527 C498 0.950 . S
H528 C502 0.950 . S
H529 C504 0.950 . S
H530 C507 0.950 . S
H531 C509 0.950 . S
C532 C533 1.443 . S
C532 N536 1.376 1_565 S
C532 C570 1.389 . S
C533 C532 1.443 . S
C533 C534 1.340 . S
C533 H573 0.951 . S
C534 C533 1.340 . S
C534 C535 1.439 1_565 S
C534 H574 0.950 . S
C535 C534 1.439 1_545 S
C535 N536 1.374 . S
C535 C569 1.395 . S
N536 C532 1.376 1_545 S
N536 C535 1.374 . S
N536 Co537 2.008 . S
Co537 N536 2.008 . S
Co537 N538 1.995 . S
Co537 N543 2.008 . S
Co537 N548 1.995 . S
Co537 N553 2.282 . S
Co537 N559 2.282 1_545 S
N538 Co537 1.995 . S
N538 C539 1.376 . S
N538 C542 1.383 . S
C539 N538 1.376 . S
C539 C540 1.446 . S
C539 C569 1.391 . S
C540 C539 1.446 . S
C540 C541 1.339 . S
C540 H575 0.949 . S
C541 C540 1.339 . S
C541 C542 1.439 . S
C541 H576 0.950 . S
C542 N538 1.383 . S
C542 C541 1.439 . S
C542 C571 1.392 . S
N543 Co537 2.008 . S
N543 C544 1.376 . S
N543 C547 1.374 . S
C544 N543 1.376 . S
C544 C545 1.443 . S
C544 C571 1.389 . S
C545 C544 1.443 . S
C545 C546 1.340 . S
C545 H577 0.951 . S
C546 C545 1.340 . S
C546 C547 1.439 . S
C546 H578 0.950 . S
C547 N543 1.374 . S
C547 C546 1.439 . S
C547 C572 1.395 . S
N548 Co537 1.995 . S
N548 C549 1.376 . S
N548 C552 1.383 1_545 S
C549 N548 1.376 . S
C549 C550 1.446 1_545 S
C549 C572 1.391 . S
C550 C549 1.446 1_565 S
C550 C551 1.339 . S
C550 H579 0.949 . S
C551 C550 1.339 . S
C551 C552 1.439 . S
C551 H580 0.950 . S
C552 N548 1.383 1_565 S
C552 C551 1.439 . S
C552 C570 1.392 . S
N553 Co537 2.282 . S
N553 C556 1.332 . S
N553 C558 1.332 . S
C554 C555 1.386 . S
C554 C557 1.388 . S
C555 C554 1.386 . S
C555 C556 1.382 . S
C555 H581 0.950 . S
C556 N553 1.332 . S
C556 C555 1.382 . S
C556 H567 0.952 . S
C557 C554 1.388 . S
C557 C558 1.382 . S
C557 H582 0.950 . S
C558 N553 1.332 . S
C558 C557 1.382 . S
C558 H568 0.948 . S
N559 Co537 2.282 1_565 S
N559 C563 1.332 . S
N559 C564 1.332 . S
C560 C561 1.388 . S
C560 C564 1.382 . S
C560 H583 0.950 . S
C561 C560 1.388 . S
C561 C562 1.386 . S
C562 C561 1.386 . S
C562 C563 1.382 . S
C562 H584 0.950 . S
C563 N559 1.332 . S
C563 C562 1.382 . S
C563 H565 0.952 . S
C564 N559 1.332 . S
C564 C560 1.382 . S
C564 H566 0.948 . S
H565 C563 0.952 . S
H566 C564 0.948 . S
H567 C556 0.952 . S
H568 C558 0.948 . S
C569 C535 1.395 . S
C569 C539 1.391 . S
C570 C532 1.389 . S
C570 C552 1.392 . S
C571 C542 1.392 . S
C571 C544 1.389 . S
C572 C547 1.395 . S
C572 C549 1.391 . S
H573 C533 0.951 . S
H574 C534 0.950 . S
H575 C540 0.949 . S
H576 C541 0.950 . S
H577 C545 0.951 . S
H578 C546 0.950 . S
H579 C550 0.949 . S
H580 C551 0.950 . S
H581 C555 0.950 . S
H582 C557 0.950 . S
H583 C560 0.950 . S
H584 C562 0.950 . S
C585 C586 1.443 . S
C585 N589 1.376 . S
C585 C623 1.389 . S
C586 C585 1.443 . S
C586 C587 1.340 . S
C586 H626 0.951 . S
C587 C586 1.340 . S
C587 C588 1.439 . S
C587 H627 0.950 . S
C588 C587 1.439 . S
C588 N589 1.374 . S
C588 C622 1.395 . S
N589 C585 1.376 . S
N589 C588 1.374 . S
N589 Co590 2.008 . S
Co590 N589 2.008 . S
Co590 N591 1.995 . S
Co590 N596 2.008 . S
Co590 N601 1.995 . S
Co590 N606 2.304 . S
Co590 N612 2.282 . S
N591 Co590 1.995 . S
N591 C592 1.376 . S
N591 C595 1.383 1_554 S
C592 N591 1.376 . S
C592 C593 1.446 1_554 S
C592 C622 1.391 . S
C593 C592 1.446 1_556 S
C593 C594 1.339 . S
C593 H628 0.949 . S
C594 C593 1.339 . S
C594 C595 1.439 . S
C594 H629 0.950 . S
C595 N591 1.383 1_556 S
C595 C594 1.439 . S
C595 C624 1.392 . S
N596 Co590 2.008 . S
N596 C597 1.376 1_554 S
N596 C600 1.374 . S
C597 N596 1.376 1_556 S
C597 C598 1.443 . S
C597 C624 1.389 . S
C598 C597 1.443 . S
C598 C599 1.340 . S
C598 H630 0.951 . S
C599 C598 1.340 . S
C599 C600 1.439 1_556 S
C599 H631 0.950 . S
C600 N596 1.374 . S
C600 C599 1.439 1_554 S
C600 C625 1.395 . S
N601 Co590 1.995 . S
N601 C602 1.376 . S
N601 C605 1.383 . S
C602 N601 1.376 . S
C602 C603 1.446 . S
C602 C625 1.391 . S
C603 C602 1.446 . S
C603 C604 1.339 . S
C603 H632 0.949 . S
C604 C603 1.339 . S
C604 C605 1.439 . S
C604 H633 0.950 . S
C605 N601 1.383 . S
C605 C604 1.439 . S
C605 C623 1.392 . S
N606 Co590 2.304 . S
N606 C609 1.322 1_554 S
N606 C611 1.316 1_554 S
C607 C608 1.386 . S
C607 C610 1.388 . S
C608 C607 1.386 . S
C608 C609 1.382 . S
C608 H634 0.950 . S
C609 N606 1.322 1_556 S
C609 C608 1.382 . S
C609 H620 0.952 1_556 S
C610 C607 1.388 . S
C610 C611 1.382 . S
C610 H635 0.950 . S
C611 N606 1.316 1_556 S
C611 C610 1.382 . S
C611 H621 0.948 . S
N612 Co590 2.282 . S
N612 C616 1.332 . S
N612 C617 1.332 . S
C613 C614 1.388 . S
C613 C617 1.382 . S
C613 H636 0.950 . S
C614 C613 1.388 . S
C614 C615 1.386 . S
C615 C614 1.386 . S
C615 C616 1.382 . S
C615 H637 0.950 . S
C616 N612 1.332 . S
C616 C615 1.382 . S
C616 H618 0.952 . S
C617 N612 1.332 . S
C617 C613 1.382 . S
C617 H619 0.948 . S
H618 C616 0.952 . S
H619 C617 0.948 . S
H620 C609 0.952 1_554 S
H621 C611 0.948 . S
C622 C588 1.395 . S
C622 C592 1.391 . S
C623 C585 1.389 . S
C623 C605 1.392 . S
C624 C595 1.392 . S
C624 C597 1.389 . S
C625 C600 1.395 . S
C625 C602 1.391 . S
H626 C586 0.951 . S
H627 C587 0.950 . S
H628 C593 0.949 . S
H629 C594 0.950 . S
H630 C598 0.951 . S
H631 C599 0.950 . S
H632 C603 0.949 . S
H633 C604 0.950 . S
H634 C608 0.950 . S
H635 C610 0.950 . S
H636 C613 0.950 . S
H637 C615 0.950 . S
C342 C15 1.594 . S
C411 C55 1.582 . S
C349 C101 1.605 . S
C412 C141 1.645 . S
C465 C2 1.541 . S
C501 C61 1.515 . S
C95 C561 1.878 . S
C624 C135 1.581 . S
C464 C42 1.486 . S
C82 C508 1.558 . S
C554 C122 1.934 . S
C623 C21 1.556 . S
C162 C402 1.678 . S
C359 C221 1.622 . S
C255 C395 1.631 . S
C282 C358 1.535 . S
C570 C181 1.935 . S
C614 C202 1.624 . S
C448 C242 1.590 . S
C301 C517 1.520 . S
C571 C215 1.789 . S
C607 C261 1.609 . S
C455 C295 1.540 . S
C175 C518 1.614 . S
