# Generated by pormake.
# Topology pto, (3,4)-cn, num edge types: 1
# Building blocks:
#     Node 0, Type 0, BuildingBlock: WUSLED_clean_sbu_0, # of connection points: 3
#     Node 1, Type 0, BuildingBlock: WUSLED_clean_sbu_0, # of connection points: 3
#     Node 2, Type 0, BuildingBlock: WUSLED_clean_sbu_0, # of connection points: 3
#     Node 3, Type 0, BuildingBlock: WUSLED_clean_sbu_0, # of connection points: 3
#     Node 4, Type 0, BuildingBlock: WUSLED_clean_sbu_0, # of connection points: 3
#     Node 5, Type 0, BuildingBlock: WUSLED_clean_sbu_0, # of connection points: 3
#     Node 6, Type 0, BuildingBlock: WUSLED_clean_sbu_0, # of connection points: 3
#     Node 7, Type 0, BuildingBlock: WUSLED_clean_sbu_0, # of connection points: 3
#     Node 8, Type 1, BuildingBlock: NAWXER_clean_sbu_0, # of connection points: 4
#     Node 9, Type 1, BuildingBlock: NAWXER_clean_sbu_0, # of connection points: 4
#     Node 10, Type 1, BuildingBlock: NAWXER_clean_sbu_0, # of connection points: 4
#     Node 11, Type 1, BuildingBlock: NAWXER_clean_sbu_0, # of connection points: 4
#     Node 12, Type 1, BuildingBlock: NAWXER_clean_sbu_0, # of connection points: 4
#     Node 13, Type 1, BuildingBlock: NAWXER_clean_sbu_0, # of connection points: 4
#     Edge 14, Type (0, 1), BuildingBlock: CIFDUS_clean_linker_0, # of connection points: 2
#     Edge 15, Type (0, 1), BuildingBlock: CIFDUS_clean_linker_0, # of connection points: 2
#     Edge 16, Type (0, 1), BuildingBlock: CIFDUS_clean_linker_0, # of connection points: 2
#     Edge 17, Type (0, 1), BuildingBlock: CIFDUS_clean_linker_0, # of connection points: 2
#     Edge 18, Type (0, 1), BuildingBlock: CIFDUS_clean_linker_0, # of connection points: 2
#     Edge 19, Type (0, 1), BuildingBlock: CIFDUS_clean_linker_0, # of connection points: 2
#     Edge 20, Type (0, 1), BuildingBlock: CIFDUS_clean_linker_0, # of connection points: 2
#     Edge 21, Type (0, 1), BuildingBlock: CIFDUS_clean_linker_0, # of connection points: 2
#     Edge 22, Type (0, 1), BuildingBlock: CIFDUS_clean_linker_0, # of connection points: 2
#     Edge 23, Type (0, 1), BuildingBlock: CIFDUS_clean_linker_0, # of connection points: 2
#     Edge 24, Type (0, 1), BuildingBlock: CIFDUS_clean_linker_0, # of connection points: 2
#     Edge 25, Type (0, 1), BuildingBlock: CIFDUS_clean_linker_0, # of connection points: 2
#     Edge 26, Type (0, 1), BuildingBlock: CIFDUS_clean_linker_0, # of connection points: 2
#     Edge 27, Type (0, 1), BuildingBlock: CIFDUS_clean_linker_0, # of connection points: 2
#     Edge 28, Type (0, 1), BuildingBlock: CIFDUS_clean_linker_0, # of connection points: 2
#     Edge 29, Type (0, 1), BuildingBlock: CIFDUS_clean_linker_0, # of connection points: 2
#     Edge 30, Type (0, 1), BuildingBlock: CIFDUS_clean_linker_0, # of connection points: 2
#     Edge 31, Type (0, 1), BuildingBlock: CIFDUS_clean_linker_0, # of connection points: 2
#     Edge 32, Type (0, 1), BuildingBlock: CIFDUS_clean_linker_0, # of connection points: 2
#     Edge 33, Type (0, 1), BuildingBlock: CIFDUS_clean_linker_0, # of connection points: 2
#     Edge 34, Type (0, 1), BuildingBlock: CIFDUS_clean_linker_0, # of connection points: 2
#     Edge 35, Type (0, 1), BuildingBlock: CIFDUS_clean_linker_0, # of connection points: 2
#     Edge 36, Type (0, 1), BuildingBlock: CIFDUS_clean_linker_0, # of connection points: 2
#     Edge 37, Type (0, 1), BuildingBlock: CIFDUS_clean_linker_0, # of connection points: 2
# Relax obj value: 0.000
# Max RMSD: 0.007
# Mean RMSD: 0.004
data_MOF--net-pto--node1-WUSLED_clean_sbu_0--node2-NAWXER_clean_sbu_0--edge1-CIFDUS_clean_linker_0
_symmetry_space_group_name_H-M    P1
_symmetry_Int_Tables_number       1
_symmetry_cell_setting            triclinic
loop_
_symmetry_equiv_pos_as_xyz
'x, y, z'
_cell_length_a     50.32423
_cell_length_b     47.546351
_cell_length_c     44.874472
_cell_angle_alpha  89.352198
_cell_angle_beta   90.466913
_cell_angle_gamma 90.354428
loop_
_atom_site_label
_atom_site_type_symbol
_atom_site_fract_x
_atom_site_fract_y
_atom_site_fract_z
_atom_type_partial_charge
C0 C 0.28846 0.23533 0.34038 0.0
C1 C 0.29109 0.23668 0.37149 0.0
C2 C 0.29621 0.18586 0.37458 0.0
C3 C 0.29507 0.21216 0.38846 0.0
C4 C 0.29441 0.18465 0.34335 0.0
C5 C 0.29074 0.20916 0.32638 0.0
U6 U 0.30074 0.28443 0.27402 0.0
O7 O 0.27254 0.30596 0.24401 0.0
O8 O 0.30043 0.33073 0.27107 0.0
C9 C 0.27977 0.33111 0.25293 0.0
C10 C 0.28255 0.26117 0.32307 0.0
C11 C 0.25776 0.34968 0.26116 0.0
C12 C 0.22227 0.36299 0.29467 0.0
C13 C 0.24426 0.34617 0.28824 0.0
C14 C 0.22734 0.38709 0.24718 0.0
C15 C 0.21333 0.38338 0.27398 0.0
C16 C 0.2493 0.3704 0.24086 0.0
C17 C 0.35583 0.2635 0.21886 0.0
C18 C 0.38602 0.29132 0.18821 0.0
C19 C 0.37559 0.24335 0.17464 0.0
C20 C 0.35903 0.24085 0.19945 0.0
C21 C 0.38946 0.26857 0.16879 0.0
C22 C 0.36934 0.28886 0.2129 0.0
C23 C 0.33954 0.25955 0.24589 0.0
O24 O 0.30125 0.28059 0.32305 0.0
O25 O 0.27147 0.25755 0.29674 0.0
O26 O 0.31434 0.25332 0.2415 0.0
O27 O 0.34343 0.27751 0.26761 0.0
H28 H 0.28949 0.25664 0.38272 0.0
H29 H 0.29616 0.21365 0.41251 0.0
H30 H 0.29544 0.16466 0.33209 0.0
H31 H 0.28915 0.20752 0.30238 0.0
H32 H 0.21183 0.3595 0.3154 0.0
H33 H 0.25045 0.33012 0.30412 0.0
H34 H 0.22126 0.40288 0.23098 0.0
H35 H 0.25947 0.37341 0.21986 0.0
H36 H 0.39665 0.31094 0.18472 0.0
H37 H 0.3774 0.22555 0.15998 0.0
H38 H 0.34887 0.22106 0.20364 0.0
H39 H 0.36735 0.30668 0.22753 0.0
C40 C 0.28727 0.80126 0.70715 0.0
C41 C 0.2798 0.82773 0.71785 0.0
C42 C 0.29968 0.85108 0.67481 0.0
C43 C 0.286 0.85231 0.70195 0.0
C44 C 0.30782 0.82471 0.66446 0.0
C45 C 0.30156 0.80006 0.68037 0.0
U46 U 0.29467 0.7412 0.76531 0.0
O47 O 0.26516 0.7239 0.79633 0.0
O48 O 0.2823 0.69664 0.76243 0.0
C49 C 0.26404 0.69943 0.78299 0.0
C50 C 0.27818 0.77511 0.72248 0.0
C51 C 0.23711 0.6884 0.77582 0.0
C52 C 0.20864 0.64888 0.76201 0.0
C53 C 0.23403 0.6606 0.766 0.0
C54 C 0.18892 0.69277 0.77694 0.0
C55 C 0.18583 0.66465 0.76814 0.0
C56 C 0.21424 0.70456 0.78064 0.0
C57 C 0.35738 0.74111 0.81683 0.0
C58 C 0.39925 0.72093 0.83432 0.0
C59 C 0.37007 0.74341 0.86926 0.0
C60 C 0.35186 0.7489 0.84629 0.0
C61 C 0.39429 0.73005 0.86343 0.0
C62 C 0.38106 0.72657 0.81122 0.0
C63 C 0.34055 0.75131 0.79164 0.0
O64 O 0.29161 0.75199 0.71749 0.0
O65 O 0.27117 0.77758 0.75049 0.0
O66 O 0.31831 0.76392 0.7986 0.0
O67 O 0.33811 0.73503 0.76823 0.0
H68 H 0.26857 0.82951 0.73823 0.0
H69 H 0.27969 0.87231 0.71069 0.0
H70 H 0.31809 0.82301 0.64345 0.0
H71 H 0.30731 0.78002 0.67125 0.0
H72 H 0.2069 0.62708 0.75547 0.0
H73 H 0.25129 0.64764 0.76224 0.0
H74 H 0.17169 0.70551 0.78155 0.0
H75 H 0.21581 0.7261 0.78806 0.0
H76 H 0.41782 0.71078 0.82909 0.0
H77 H 0.36554 0.7504 0.89154 0.0
H78 H 0.33393 0.76025 0.85153 0.0
H79 H 0.38606 0.72061 0.78874 0.0
C80 C 0.73536 0.7564 0.23017 0.0
C81 C 0.7393 0.76845 0.20178 0.0
C82 C 0.69535 0.75293 0.1855 0.0
C83 C 0.71961 0.76666 0.17974 0.0
C84 C 0.69181 0.73964 0.21335 0.0
C85 C 0.71155 0.74151 0.23555 0.0
U86 U 0.79657 0.74201 0.28201 0.0
O87 O 0.82784 0.77218 0.29509 0.0
O88 O 0.80267 0.75243 0.32922 0.0
C89 C 0.8209 0.7716 0.32326 0.0
C90 C 0.75445 0.76273 0.25473 0.0
C91 C 0.81797 0.79934 0.33748 0.0
C92 C 0.79234 0.83318 0.36541 0.0
C93 C 0.79425 0.80716 0.35135 0.0
C94 C 0.83767 0.84422 0.35169 0.0
C95 C 0.81401 0.85209 0.36576 0.0
C96 C 0.83962 0.81811 0.3378 0.0
C97 C 0.83913 0.6757 0.2759 0.0
C98 C 0.86632 0.65124 0.31312 0.0
C99 C 0.87869 0.65047 0.26112 0.0
C100 C 0.85654 0.66676 0.25373 0.0
C101 C 0.88389 0.64255 0.29088 0.0
C102 C 0.8442 0.66781 0.30574 0.0
C103 C 0.81597 0.69306 0.26713 0.0
O104 O 0.75308 0.74741 0.27929 0.0
O105 O 0.77899 0.76871 0.24693 0.0
O106 O 0.82157 0.71658 0.25278 0.0
O107 O 0.7971 0.6959 0.28698 0.0
H108 H 0.75721 0.78031 0.19687 0.0
H109 H 0.72305 0.77686 0.1584 0.0
H110 H 0.67325 0.7291 0.21852 0.0
H111 H 0.70768 0.73228 0.25726 0.0
H112 H 0.77394 0.83825 0.37642 0.0
H113 H 0.7772 0.79315 0.35158 0.0
H114 H 0.85463 0.85832 0.35113 0.0
H115 H 0.85814 0.81253 0.32729 0.0
H116 H 0.86987 0.64555 0.33625 0.0
H117 H 0.89159 0.64373 0.24339 0.0
H118 H 0.85298 0.67239 0.23058 0.0
H119 H 0.83117 0.67445 0.32338 0.0
C120 C 0.7731 0.20948 0.71881 0.0
C121 C 0.79191 0.21494 0.69649 0.0
C122 C 0.78136 0.17002 0.67344 0.0
C123 C 0.79606 0.19529 0.67398 0.0
C124 C 0.76333 0.16431 0.69658 0.0
C125 C 0.75924 0.18388 0.71901 0.0
U126 U 0.78537 0.27956 0.75816 0.0
O127 O 0.75643 0.31162 0.77102 0.0
O128 O 0.7804 0.29025 0.80541 0.0
C129 C 0.76029 0.30709 0.79968 0.0
C130 C 0.76653 0.23068 0.74109 0.0
C131 C 0.73591 0.30311 0.81766 0.0
C132 C 0.71071 0.27918 0.85677 0.0
C133 C 0.73354 0.28147 0.83917 0.0
C134 C 0.69201 0.31965 0.83125 0.0
C135 C 0.68978 0.29847 0.85327 0.0
C136 C 0.71482 0.32201 0.81383 0.0
C137 C 0.84486 0.32651 0.73426 0.0
C138 C 0.87931 0.35459 0.75842 0.0
C139 C 0.86235 0.36875 0.70995 0.0
C140 C 0.84518 0.34549 0.71002 0.0
C141 C 0.8798 0.3735 0.73405 0.0
C142 C 0.86206 0.33138 0.75853 0.0
C143 C 0.82797 0.30087 0.73276 0.0
O144 O 0.78352 0.23345 0.76328 0.0
O145 O 0.7581 0.25484 0.73024 0.0
O146 O 0.80384 0.30417 0.72187 0.0
O147 O 0.82886 0.28344 0.75573 0.0
H148 H 0.80281 0.23466 0.69607 0.0
H149 H 0.80997 0.20033 0.65638 0.0
H150 H 0.75203 0.14485 0.69706 0.0
H151 H 0.74475 0.17929 0.73615 0.0
H152 H 0.7098 0.26279 0.87369 0.0
H153 H 0.74945 0.26654 0.84276 0.0
H154 H 0.67614 0.33459 0.82753 0.0
H155 H 0.71606 0.33889 0.79746 0.0
H156 H 0.89274 0.35728 0.77716 0.0
H157 H 0.86194 0.38302 0.69098 0.0
H158 H 0.83235 0.34214 0.69087 0.0
H159 H 0.86261 0.31704 0.77744 0.0
C160 C 0.82309 0.72421 0.79477 0.0
C161 C 0.84385 0.72467 0.81587 0.0
C162 C 0.8671 0.68761 0.78964 0.0
C163 C 0.86562 0.70669 0.81331 0.0
C164 C 0.8463 0.68729 0.76841 0.0
C165 C 0.8246 0.70539 0.7709 0.0
U166 U 0.7742 0.78251 0.76988 0.0
O167 O 0.73085 0.7848 0.77478 0.0
O168 O 0.75644 0.81606 0.79655 0.0
C169 C 0.73216 0.80627 0.79292 0.0
C170 C 0.79967 0.7425 0.79898 0.0
C171 C 0.71604 0.80357 0.81999 0.0
C172 C 0.7054 0.78026 0.86689 0.0
C173 C 0.72203 0.78356 0.8422 0.0
C174 C 0.67698 0.81729 0.84764 0.0
C175 C 0.68248 0.79688 0.86975 0.0
C176 C 0.6936 0.82057 0.82302 0.0
C177 C 0.78136 0.82077 0.69492 0.0
C178 C 0.76526 0.86765 0.6824 0.0
C179 C 0.77589 0.83525 0.64305 0.0
C180 C 0.7829 0.81487 0.66443 0.0
C181 C 0.76739 0.86203 0.65179 0.0
C182 C 0.77204 0.84718 0.70376 0.0
C183 C 0.79012 0.79944 0.71703 0.0
O184 O 0.80467 0.76941 0.8027 0.0
O185 O 0.77878 0.73781 0.78187 0.0
O186 O 0.77397 0.77792 0.72101 0.0
O187 O 0.80011 0.80914 0.7421 0.0
H188 H 0.84315 0.73889 0.83455 0.0
H189 H 0.88138 0.70789 0.82983 0.0
H190 H 0.84648 0.67264 0.75012 0.0
H191 H 0.80889 0.70436 0.75431 0.0
H192 H 0.71042 0.76458 0.88367 0.0
H193 H 0.73932 0.77026 0.84021 0.0
H194 H 0.65935 0.83016 0.84884 0.0
H195 H 0.68863 0.83604 0.80599 0.0
H196 H 0.75851 0.88797 0.68983 0.0
H197 H 0.778 0.83036 0.61968 0.0
H198 H 0.78998 0.79463 0.65712 0.0
H199 H 0.77036 0.85216 0.72716 0.0
C200 C 0.71766 0.28632 0.20371 0.0
C201 C 0.69062 0.29099 0.2092 0.0
C202 C 0.68197 0.29678 0.15602 0.0
C203 C 0.67293 0.29634 0.18557 0.0
C204 C 0.70921 0.29313 0.15067 0.0
C205 C 0.72691 0.28813 0.17427 0.0
U206 U 0.78328 0.29388 0.24639 0.0
O207 O 0.79176 0.29207 0.29474 0.0
O208 O 0.81009 0.26173 0.26477 0.0
C209 C 0.8063 0.26931 0.29248 0.0
C210 C 0.73563 0.27847 0.22864 0.0
C211 C 0.80084 0.24625 0.3139 0.0
C212 C 0.78131 0.20061 0.32642 0.0
C213 C 0.78369 0.22377 0.3069 0.0
C214 C 0.81231 0.22274 0.36055 0.0
C215 C 0.79614 0.19954 0.35316 0.0
C216 C 0.81465 0.24578 0.34112 0.0
C217 C 0.83357 0.34935 0.21617 0.0
C218 C 0.86734 0.37795 0.24074 0.0
C219 C 0.86967 0.37034 0.18758 0.0
C220 C 0.8466 0.35381 0.18899 0.0
C221 C 0.88018 0.38294 0.21337 0.0
C222 C 0.84431 0.3613 0.24214 0.0
C223 C 0.80804 0.33377 0.21628 0.0
O224 O 0.75741 0.26512 0.22137 0.0
O225 O 0.73967 0.29777 0.24896 0.0
O226 O 0.79176 0.33872 0.23837 0.0
O227 O 0.80901 0.30706 0.20913 0.0
H228 H 0.68306 0.28979 0.23172 0.0
H229 H 0.65201 0.29886 0.19029 0.0
H230 H 0.71673 0.2936 0.12812 0.0
H231 H 0.74771 0.285 0.16936 0.0
H232 H 0.76876 0.18308 0.32001 0.0
H233 H 0.77279 0.22374 0.28599 0.0
H234 H 0.82362 0.22286 0.38119 0.0
H235 H 0.82789 0.26294 0.347 0.0
H236 H 0.87464 0.38754 0.26101 0.0
H237 H 0.87921 0.3733 0.16622 0.0
H238 H 0.83867 0.34483 0.16866 0.0
H239 H 0.83465 0.35826 0.26343 0.0
C240 C 0.23483 0.23815 0.71224 0.0
C241 C 0.2542 0.21821 0.71992 0.0
C242 C 0.24336 0.1912 0.67541 0.0
C243 C 0.25837 0.19493 0.70175 0.0
C244 C 0.22386 0.21124 0.66795 0.0
C245 C 0.21966 0.23448 0.68621 0.0
U246 U 0.25611 0.28771 0.77472 0.0
O247 O 0.25281 0.33358 0.77857 0.0
O248 O 0.23225 0.30601 0.81058 0.0
C249 C 0.23576 0.33187 0.80059 0.0
C250 C 0.23022 0.26275 0.73117 0.0
C251 C 0.21161 0.34941 0.79798 0.0
C252 C 0.17282 0.36993 0.82134 0.0
C253 C 0.19509 0.35244 0.8228 0.0
C254 C 0.18324 0.38183 0.77016 0.0
C255 C 0.16665 0.38496 0.79501 0.0
C256 C 0.20539 0.36422 0.77157 0.0
C257 C 0.32314 0.27442 0.81544 0.0
C258 C 0.3452 0.26192 0.86221 0.0
C259 C 0.36466 0.2975 0.83003 0.0
C260 C 0.34352 0.29417 0.80981 0.0
C261 C 0.36602 0.28097 0.85616 0.0
C262 C 0.32412 0.2586 0.84207 0.0
C263 C 0.30235 0.26819 0.7927 0.0
O264 O 0.22612 0.25714 0.75951 0.0
O265 O 0.24638 0.28423 0.7269 0.0
O266 O 0.29964 0.28627 0.7705 0.0
O267 O 0.2795 0.25852 0.80265 0.0
H268 H 0.26609 0.22064 0.73997 0.0
H269 H 0.27329 0.17977 0.70847 0.0
H270 H 0.2122 0.20931 0.64768 0.0
H271 H 0.20464 0.2497 0.6799 0.0
H272 H 0.16035 0.3715 0.84079 0.0
H273 H 0.19952 0.34137 0.84347 0.0
H274 H 0.17944 0.3934 0.74966 0.0
H275 H 0.21777 0.36252 0.75205 0.0
H276 H 0.34545 0.24912 0.88233 0.0
H277 H 0.3805 0.31216 0.82458 0.0
H278 H 0.3436 0.30649 0.78936 0.0
H279 H 0.30893 0.24304 0.84703 0.0
C280 C 0.20232 0.73864 0.26308 0.0
C281 C 0.20539 0.72206 0.2376 0.0
C282 C 0.17265 0.68844 0.25657 0.0
C283 C 0.19051 0.69719 0.23428 0.0
C284 C 0.16936 0.70552 0.28165 0.0
C285 C 0.18403 0.73032 0.28483 0.0
U286 U 0.26417 0.78544 0.25096 0.0
O287 O 0.26747 0.8317 0.24998 0.0
O288 O 0.28853 0.80724 0.28443 0.0
C289 C 0.282 0.83235 0.27445 0.0
C290 C 0.21851 0.76405 0.2683 0.0
C291 C 0.27383 0.85232 0.29741 0.0
C292 C 0.24459 0.86623 0.33754 0.0
C293 C 0.25064 0.84808 0.31413 0.0
C294 C 0.28454 0.89319 0.3272 0.0
C295 C 0.26179 0.88868 0.34469 0.0
C296 C 0.29048 0.87517 0.30385 0.0
C297 C 0.31982 0.7625 0.1979 0.0
C298 C 0.34979 0.78562 0.16273 0.0
C299 C 0.36403 0.74383 0.1895 0.0
C300 C 0.33957 0.74247 0.20396 0.0
C301 C 0.36933 0.76513 0.1683 0.0
C302 C 0.32528 0.78432 0.17734 0.0
C303 C 0.29342 0.75914 0.21202 0.0
O304 O 0.241 0.75986 0.28269 0.0
O305 O 0.2207 0.78198 0.24591 0.0
O306 O 0.27484 0.77726 0.20437 0.0
O307 O 0.29365 0.75306 0.24067 0.0
H308 H 0.21955 0.7281 0.2206 0.0
H309 H 0.19355 0.68438 0.21481 0.0
H310 H 0.1555 0.69957 0.299 0.0
H311 H 0.18135 0.74285 0.3046 0.0
H312 H 0.227 0.86213 0.35067 0.0
H313 H 0.23759 0.83043 0.3095 0.0
H314 H 0.29796 0.91054 0.33179 0.0
H315 H 0.30844 0.87878 0.29116 0.0
H316 H 0.35307 0.80215 0.14634 0.0
H317 H 0.37874 0.72795 0.19473 0.0
H318 H 0.33594 0.72539 0.21962 0.0
H319 H 0.31047 0.80006 0.17204 0.0
C320 C 1.00904 0.48075 0.23466 0.0
C321 C 0.07711 0.55562 0.23268 0.0
O322 O 1.01942 0.48613 0.26015 0.0
Zn323 Zn 0.04793 0.51387 0.27958 0.0
O324 O 1.01668 0.49457 0.2118 0.0
Zn325 Zn 0.04327 0.51813 0.23177 0.0
O326 O 0.07255 0.48862 0.24636 0.0
O327 O 0.07475 0.48793 0.29551 0.0
O328 O 0.06467 0.54597 0.21012 0.0
O329 O 0.07238 0.54525 0.25862 0.0
O330 O 0.02537 0.53666 0.30541 0.0
O331 O 1.01922 0.54512 0.25733 0.0
C332 C 0.0829 0.47897 0.27057 0.0
C333 C 1.01389 0.5504 0.28451 0.0
C334 C 0.98265 0.50026 0.76118 0.0
C335 C 0.05448 0.5704 0.75518 0.0
O336 O 0.9906 0.50911 0.78664 0.0
Zn337 Zn 1.01911 0.53828 0.80446 0.0
O338 O 0.99321 0.51018 0.7376 0.0
Zn339 Zn 1.0179 0.53593 0.75706 0.0
O340 O 0.04448 0.50705 0.77893 0.0
O341 O 0.0426 0.51375 0.82742 0.0
O342 O 0.04273 0.55842 0.73351 0.0
O343 O 0.04717 0.56481 0.7819 0.0
O344 O 0.99668 0.56478 0.8247 0.0
O345 O 0.99166 0.56664 0.77585 0.0
C346 C 0.05222 0.50068 0.80544 0.0
C347 C 0.98536 0.57541 0.8018 0.0
C348 C 0.29146 0.98878 0.57162 0.0
C349 C 0.30309 0.06278 0.49592 0.0
O350 O 0.26973 0.99634 0.55884 0.0
Zn351 Zn 0.25649 0.02491 0.52486 0.0
O352 O 0.31324 1.00041 0.56404 0.0
Zn353 Zn 0.29849 0.02611 0.5342 0.0
O354 O 0.27523 0.05445 0.55972 0.0
O355 O 0.23311 0.04996 0.54661 0.0
O356 O 0.32126 0.05247 0.51256 0.0
O357 O 0.27907 0.0541 0.49867 0.0
O358 O 0.24275 0.99966 0.4941 0.0
O359 O 0.28628 0.99784 0.49988 0.0
C360 C 0.25093 0.06187 0.56244 0.0
C361 C 0.26505 0.98952 0.48657 0.0
C362 C 0.57248 0.745 0.07091 0.0
C363 C 0.50364 0.75034 0.9924 0.0
O364 O 0.56149 0.72438 0.0577 0.0
Zn365 Zn 0.53782 0.74627 0.03163 0.0
O366 O 0.56504 0.77009 0.06446 0.0
Zn367 Zn 0.53753 0.79111 0.03554 0.0
O368 O 0.5131 0.80874 0.06283 0.0
O369 O 0.50906 0.76255 0.06202 0.0
O370 O 0.51072 0.77415 1.0031 0.0
O371 O 0.51468 0.72799 1.00215 0.0
O372 O 0.56536 0.76862 1.00343 0.0
O373 O 0.56092 0.81409 1.01109 0.0
C374 C 0.50145 0.78642 0.0718 0.0
C375 C 0.57225 0.79411 0.99761 0.0
C376 C 0.7729 0.99176 0.53841 0.0
C377 C 0.77727 0.06398 0.45918 0.0
O378 O 0.75332 1.00045 0.52276 0.0
Zn379 Zn 0.7738 0.02639 0.49746 0.0
O380 O 0.7964 1.00071 0.53281 0.0
Zn381 Zn 0.81629 0.02849 0.50241 0.0
O382 O 0.83266 0.05446 0.53042 0.0
O383 O 0.78878 0.05573 0.52967 0.0
O384 O 0.79998 0.057 0.47 0.0
O385 O 0.75651 0.05129 0.46837 0.0
O386 O 0.79491 0.99761 0.47061 0.0
O387 O 0.8378 1.00273 0.47934 0.0
C388 C 0.81105 0.06447 0.54029 0.0
C389 C 0.81891 0.99027 0.46576 0.0
C390 C 0.56343 0.31261 0.03807 0.0
C391 C 0.49217 0.30701 0.96276 0.0
O392 O 0.55809 0.28763 0.02935 0.0
Zn393 Zn 0.53152 0.26632 0.99986 0.0
O394 O 0.55023 0.33327 0.02755 0.0
Zn395 Zn 0.52795 0.31136 1.00027 0.0
O396 O 0.50299 0.28916 0.03092 0.0
O397 O 0.51047 0.24364 0.02761 0.0
O398 O 0.50188 0.32936 0.97393 0.0
O399 O 0.50173 0.28312 0.97069 0.0
O400 O 0.55635 0.24899 0.97263 0.0
O401 O 0.55675 0.29535 0.9699 0.0
C402 C 0.49804 0.26386 0.03943 0.0
C403 C 0.56585 0.27161 0.96148 0.0
H404 H 0.1734 0.39505 0.23504 0.0
H405 H 0.19852 0.40933 0.32571 0.0
H406 H 0.15947 0.43883 0.33367 0.0
H407 H 0.11918 0.46272 0.31368 0.0
H408 H 0.09559 0.44827 0.22233 0.0
H409 H 0.13297 0.41693 0.21591 0.0
C410 C 0.17045 0.40473 0.25653 0.0
C411 C 0.18904 0.40025 0.27961 0.0
C412 C 0.14816 0.42176 0.26083 0.0
C413 C 0.1845 0.41239 0.30755 0.0
C414 C 0.16222 0.42937 0.31207 0.0
C415 C 0.12211 0.45248 0.2925 0.0
C416 C 0.10463 0.4581 0.26849 0.0
C417 C 0.14402 0.43448 0.28874 0.0
C418 C 0.10879 0.44464 0.24116 0.0
C419 C 0.13021 0.42664 0.2374 0.0
H420 H 0.16329 0.63135 0.72519 0.0
H421 H 0.14844 0.66746 0.81121 0.0
H422 H 0.10575 0.64307 0.8137 0.0
H423 H 0.07392 0.60933 0.79313 0.0
H424 H 0.08756 0.57331 0.70686 0.0
H425 H 0.12922 0.6 0.70261 0.0
C426 C 0.1506 0.63393 0.74437 0.0
C427 C 0.15908 0.65115 0.76801 0.0
C428 C 0.12588 0.61986 0.74563 0.0
C429 C 0.14231 0.65455 0.7926 0.0
C430 C 0.11794 0.64049 0.79413 0.0
C431 C 0.08587 0.60748 0.77324 0.0
C432 C 0.07775 0.58918 0.75046 0.0
C433 C 0.1097 0.62282 0.77099 0.0
C434 C 0.09332 0.58731 0.7247 0.0
C435 C 0.11723 0.60243 0.72235 0.0
H436 H 0.93411 0.64983 0.27092 0.0
H437 H 0.88664 0.59593 0.32739 0.0
H438 H 0.92439 0.56414 0.33446 0.0
H439 H 0.96952 0.54886 0.31944 0.0
H440 H 1.01524 0.60228 0.26064 0.0
H441 H 0.97986 0.63711 0.25986 0.0
C442 C 0.93207 0.63119 0.2849 0.0
C443 C 0.90752 0.62503 0.29823 0.0
C444 C 0.95365 0.61288 0.28844 0.0
C445 C 0.90535 0.60114 0.31685 0.0
C446 C 0.9269 0.58288 0.32077 0.0
C447 C 0.97191 0.56852 0.30722 0.0
C448 C 0.9949 0.57316 0.29021 0.0
C449 C 0.95099 0.58815 0.30606 0.0
C450 C 0.99768 0.5984 0.27395 0.0
C451 C 0.97742 0.61822 0.27334 0.0
H452 H 0.894 0.4074 0.78017 0.0
H453 H 0.90853 0.39407 0.68676 0.0
H454 H 0.94057 0.43287 0.68632 0.0
H455 H 0.96587 0.46963 0.71303 0.0
H456 H 0.95206 0.48127 0.80693 0.0
H457 H 0.91875 0.44399 0.80657 0.0
C458 C 0.90431 0.41279 0.75973 0.0
C459 C 0.89882 0.3977 0.73358 0.0
C460 C 0.92301 0.43485 0.75971 0.0
C461 C 0.91205 0.40547 0.70718 0.0
C462 C 0.93055 0.42758 0.70694 0.0
C463 C 0.95546 0.46411 0.73335 0.0
C464 C 0.9616 0.47827 0.75995 0.0
C465 C 0.93634 0.44232 0.73313 0.0
C466 C 0.94792 0.47072 0.78612 0.0
C467 C 0.92879 0.44936 0.78598 0.0
H468 H 0.32942 0.17263 0.42118 0.0
H469 H 0.26407 0.14034 0.36867 0.0
H470 H 0.26188 0.09845 0.40041 0.0
H471 H 0.27632 0.0726 0.44486 0.0
H472 H 0.34209 0.10342 0.49755 0.0
H473 H 0.34662 0.14416 0.4638 0.0
C474 C 0.31485 0.15629 0.41668 0.0
C475 C 0.29686 0.15959 0.3927 0.0
C476 C 0.31377 0.13209 0.43502 0.0
C477 C 0.27825 0.13817 0.38684 0.0
C478 C 0.27689 0.11429 0.40506 0.0
C479 C 0.29181 0.08812 0.44883 0.0
C480 C 0.30866 0.08525 0.47379 0.0
C481 C 0.29425 0.11126 0.42944 0.0
C482 C 0.32891 0.10521 0.47843 0.0
C483 C 0.33137 0.12856 0.45926 0.0
H484 H 0.41031 0.77127 0.90039 0.0
H485 H 0.42563 0.68481 0.87884 0.0
H486 H 0.46067 0.68286 0.91721 0.0
H487 H 0.48729 0.70634 0.95689 0.0
H488 H 0.47144 0.79343 0.97632 0.0
H489 H 0.4363 0.79434 0.93906 0.0
C490 C 0.42107 0.75185 0.90433 0.0
C491 C 0.41517 0.72814 0.88703 0.0
C492 C 0.44123 0.75102 0.92606 0.0
C493 C 0.42981 0.70338 0.89188 0.0
C494 C 0.4498 0.70226 0.91385 0.0
C495 C 0.47608 0.72545 0.95299 0.0
C496 C 0.48215 0.74975 0.96949 0.0
C497 C 0.45577 0.72602 0.93108 0.0
C498 C 0.46744 0.77439 0.96398 0.0
C499 C 0.4472 0.77499 0.94265 0.0
H500 H 0.85188 0.87966 0.39892 0.0
H501 H 0.7712 0.88723 0.36634 0.0
H502 H 0.76624 0.93102 0.39328 0.0
H503 H 0.78394 0.96614 0.42752 0.0
H504 H 0.86479 0.95989 0.45954 0.0
H505 H 0.87076 0.91702 0.43063 0.0
C506 C 0.83333 0.89107 0.3973 0.0
C507 C 0.81183 0.8798 0.38084 0.0
C508 C 0.83065 0.91654 0.41267 0.0
C509 C 0.78789 0.8949 0.37934 0.0
C510 C 0.78508 0.92012 0.39458 0.0
C511 C 0.80297 0.95556 0.42807 0.0
C512 C 0.82383 0.96614 0.44588 0.0
C513 C 0.80618 0.93093 0.41159 0.0
C514 C 0.84841 0.95225 0.44603 0.0
C515 C 0.85177 0.92764 0.42961 0.0
H516 H 0.66232 0.25214 0.87403 0.0
H517 H 0.66438 0.34285 0.87804 0.0
H518 H 0.62587 0.34232 0.91041 0.0
H519 H 0.59219 0.31654 0.93838 0.0
H520 H 0.59013 0.22582 0.93657 0.0
H521 H 0.62814 0.22597 0.90276 0.0
C522 C 0.65445 0.27177 0.88214 0.0
C523 C 0.66623 0.29752 0.87327 0.0
C524 C 0.63229 0.27135 0.90118 0.0
C525 C 0.65552 0.32275 0.88388 0.0
C526 C 0.63355 0.32248 0.90262 0.0
C527 C 0.59989 0.29672 0.93055 0.0
C528 C 0.5882 0.2712 0.94002 0.0
C529 C 0.6218 0.29696 0.91141 0.0
C530 C 0.59866 0.24579 0.92964 0.0
C531 C 0.62044 0.24587 0.91033 0.0
H532 H 0.26392 0.8922 0.66343 0.0
H533 H 0.34435 0.86784 0.64441 0.0
H534 H 0.34979 0.90945 0.61227 0.0
H535 H 0.33077 0.95193 0.58786 0.0
H536 H 0.24964 0.97446 0.60624 0.0
H537 H 0.24561 0.93481 0.64077 0.0
C538 C 0.28281 0.89621 0.65267 0.0
C539 C 0.30372 0.87699 0.65644 0.0
C540 C 0.28567 0.91992 0.63407 0.0
C541 C 0.32787 0.88221 0.64173 0.0
C542 C 0.33101 0.90605 0.62344 0.0
C543 C 0.31237 0.94831 0.59975 0.0
C544 C 0.29054 0.9661 0.59446 0.0
C545 C 0.30995 0.92495 0.6192 0.0
C546 C 0.2667 0.96099 0.60977 0.0
C547 C 0.26435 0.9383 0.62953 0.0
H548 H 0.66178 0.71114 0.16551 0.0
H549 H 0.67866 0.79993 0.1565 0.0
H550 H 0.64234 0.80502 0.12075 0.0
H551 H 0.60591 0.78479 0.09212 0.0
H552 H 0.58858 0.696 0.09902 0.0
H553 H 0.62484 0.69038 0.13549 0.0
C554 C 0.65741 0.73156 0.15571 0.0
C555 C 0.67308 0.75508 0.16353 0.0
C556 C 0.63642 0.73437 0.13483 0.0
C557 C 0.66724 0.7814 0.15055 0.0
C558 C 0.64636 0.78439 0.13021 0.0
C559 C 0.60991 0.76415 0.10162 0.0
C560 C 0.59438 0.74088 0.09294 0.0
C561 C 0.63085 0.76107 0.12218 0.0
C562 C 0.60018 0.71429 0.10529 0.0
C563 C 0.62091 0.71109 0.12618 0.0
H564 H 0.82617 0.15123 0.64562 0.0
H565 H 0.74053 0.14524 0.64371 0.0
H566 H 0.74244 0.11263 0.60241 0.0
H567 H 0.76793 0.08558 0.56731 0.0
H568 H 0.85361 0.09026 0.56817 0.0
H569 H 0.85216 0.12384 0.60923 0.0
C570 C 0.80797 0.14286 0.636 0.0
C571 C 0.78324 0.15046 0.64796 0.0
C572 C 0.80919 0.12396 0.61208 0.0
C573 C 0.75983 0.13936 0.63535 0.0
C574 C 0.76087 0.12083 0.61159 0.0
C575 C 0.78639 0.09394 0.5763 0.0
C576 C 0.81086 0.08539 0.56459 0.0
C577 C 0.7854 0.11292 0.59989 0.0
C578 C 0.83449 0.09647 0.57673 0.0
C579 C 0.83366 0.11566 0.60023 0.0
H580 H 0.42324 0.22899 0.1466 0.0
H581 H 0.39628 0.31416 0.13192 0.0
H582 H 0.42719 0.31978 0.09079 0.0
H583 H 0.46229 0.30118 0.05963 0.0
H584 H 0.48876 0.2157 0.07242 0.0
H585 H 0.45712 0.20937 0.11325 0.0
C586 C 0.42383 0.24867 0.13417 0.0
C587 C 0.40754 0.27122 0.14269 0.0
C588 C 0.44152 0.25171 0.11017 0.0
C589 C 0.40891 0.29663 0.12641 0.0
C590 C 0.42647 0.29983 0.1027 0.0
C591 C 0.46118 0.28109 0.07127 0.0
C592 C 0.47805 0.259 0.06309 0.0
C593 C 0.443 0.27763 0.09457 0.0
C594 C 0.47604 0.23306 0.07825 0.0
C595 C 0.458 0.22947 0.10166 0.0
H596 H 0.89351 0.65971 0.8346 0.0
H597 H 0.89256 0.67119 0.73899 0.0
H598 H 0.9289 0.63788 0.73448 0.0
H599 H 0.96063 0.60501 0.7574 0.0
H600 H 0.96266 0.59442 0.85305 0.0
H601 H 0.92664 0.62829 0.85775 0.0
C602 C 0.90145 0.65528 0.81277 0.0
C603 C 0.89004 0.66795 0.78717 0.0
C604 C 0.92264 0.63626 0.81031 0.0
C605 C 0.90048 0.66146 0.75908 0.0
C606 C 0.92144 0.64252 0.75646 0.0
C607 C 0.9533 0.61015 0.77932 0.0
C608 C 0.96436 0.59704 0.80483 0.0
C609 C 0.93257 0.62966 0.78189 0.0
C610 C 0.95459 0.60413 0.83302 0.0
C611 C 0.93392 0.62349 0.83574 0.0
H612 H 0.92147 0.38676 0.25295 0.0
H613 H 0.89256 0.42169 0.16974 0.0
H614 H 0.93077 0.45352 0.16758 0.0
H615 H 0.97148 0.4733 0.19072 0.0
H616 H 0.99871 0.4394 0.27514 0.0
H617 H 0.96212 0.4057 0.27546 0.0
C618 C 0.92337 0.40144 0.23442 0.0
C619 C 0.90401 0.40175 0.21162 0.0
C620 C 0.94518 0.42005 0.23353 0.0
C621 C 0.90724 0.42064 0.18748 0.0
C622 C 0.92904 0.43904 0.1863 0.0
C623 C 0.96953 0.45833 0.20899 0.0
C624 C 0.98782 0.459 0.23289 0.0
C625 C 0.94805 0.43913 0.20934 0.0
C626 C 0.98487 0.43954 0.25652 0.0
C627 C 0.96392 0.4202 0.25677 0.0
H628 H 0.14775 0.41984 0.8382 0.0
H629 H 0.13239 0.39281 0.74807 0.0
H630 H 0.09562 0.42569 0.74381 0.0
H631 H 0.06858 0.46292 0.76488 0.0
H632 H 0.08238 0.48931 0.8554 0.0
H633 H 0.1186 0.45535 0.8605 0.0
C634 C 0.13615 0.4208 0.81776 0.0
C635 C 0.14317 0.40399 0.79337 0.0
C636 C 0.11469 0.43961 0.81552 0.0
C637 C 0.12795 0.40586 0.76699 0.0
C638 C 0.10674 0.42455 0.76458 0.0
C639 C 0.07942 0.46123 0.78581 0.0
C640 C 0.07287 0.47881 0.80966 0.0
C641 C 0.10013 0.44171 0.78856 0.0
C642 C 0.08698 0.47605 0.83669 0.0
C643 C 0.10776 0.4567 0.83957 0.0
H644 H 0.14502 0.66641 0.20909 0.0
H645 H 0.1681 0.64894 0.30024 0.0
H646 H 0.14191 0.60572 0.30001 0.0
H647 H 0.11073 0.57433 0.27533 0.0
H648 H 0.0863 0.59081 0.18446 0.0
H649 H 0.11503 0.6327 0.183 0.0
C650 C 0.14451 0.65292 0.22873 0.0
C651 C 0.15821 0.6611 0.2548 0.0
C652 C 0.12913 0.62799 0.22854 0.0
C653 C 0.15734 0.64343 0.2801 0.0
C654 C 0.14245 0.61864 0.27996 0.0
C655 C 0.1117 0.58693 0.25506 0.0
C656 C 0.09616 0.57951 0.23011 0.0
C657 C 0.12793 0.61098 0.25453 0.0
C658 C 0.09801 0.59602 0.204 0.0
C659 C 0.11437 0.62004 0.20321 0.0
H660 H 0.78476 0.91603 0.65305 0.0
H661 H 0.73928 0.85828 0.5993 0.0
H662 H 0.73419 0.89448 0.56039 0.0
H663 H 0.74558 0.94185 0.54012 0.0
H664 H 0.79369 0.99771 0.59329 0.0
H665 H 0.79434 0.96337 0.63414 0.0
C666 C 0.77332 0.91151 0.63306 0.0
C667 C 0.7624 0.88452 0.62911 0.0
C668 C 0.77093 0.9322 0.61064 0.0
C669 C 0.74806 0.87885 0.60278 0.0
C670 C 0.74509 0.89957 0.58057 0.0
C671 C 0.75568 0.94659 0.56093 0.0
C672 C 0.76941 0.97226 0.5639 0.0
C673 C 0.7568 0.92623 0.58402 0.0
C674 C 0.78294 0.97805 0.59064 0.0
C675 C 0.78341 0.95841 0.61394 0.0
H676 H 0.64187 0.33471 0.14643 0.0
H677 H 0.67912 0.26178 0.10901 0.0
H678 H 0.64652 0.26134 0.06855 0.0
H679 H 0.60637 0.27995 0.04519 0.0
H680 H 0.56897 0.3536 0.08056 0.0
H681 H 0.60283 0.35576 0.12028 0.0
C682 C 0.64283 0.31886 0.12929 0.0
C683 C 0.66284 0.29827 0.1307 0.0
C684 C 0.62404 0.31886 0.10581 0.0
C685 C 0.66406 0.27798 0.10826 0.0
C686 C 0.64536 0.27763 0.0852 0.0
C687 C 0.60568 0.2966 0.06151 0.0
C688 C 0.58508 0.31641 0.06019 0.0
C689 C 0.62514 0.29773 0.08395 0.0
C690 C 0.58468 0.33813 0.08114 0.0
C691 C 0.60393 0.33925 0.10391 0.0
H692 H 0.20734 0.15879 0.64452 0.0
H693 H 0.2915 0.16919 0.66096 0.0
H694 H 0.30083 0.1298 0.62858 0.0
H695 H 0.28554 0.09306 0.595 0.0
H696 H 0.20175 0.0828 0.57661 0.0
H697 H 0.19191 0.12167 0.61011 0.0
C698 C 0.22774 0.15259 0.64086 0.0
C699 C 0.24865 0.16697 0.65544 0.0
C700 C 0.23307 0.12996 0.62182 0.0
C701 C 0.27493 0.1583 0.6506 0.0
C702 C 0.28034 0.13585 0.63187 0.0
C703 C 0.26506 0.09916 0.59831 0.0
C704 C 0.24441 0.0849 0.58326 0.0
C705 C 0.2596 0.12157 0.61737 0.0
C706 C 0.21805 0.09333 0.58787 0.0
C707 C 0.21242 0.1156 0.60703 0.0
H708 H 0.40095 0.80992 0.15192 0.0
H709 H 0.39427 0.7196 0.14532 0.0
H710 H 0.43502 0.71831 0.11659 0.0
H711 H 0.47175 0.74254 0.092 0.0
H712 H 0.47852 0.83292 0.09665 0.0
H713 H 0.43854 0.83442 0.12732 0.0
C714 C 0.40835 0.78998 0.14408 0.0
C715 C 0.39453 0.76488 0.15103 0.0
C716 C 0.43182 0.78936 0.12717 0.0
C717 C 0.40464 0.73921 0.14087 0.0
C718 C 0.4279 0.73844 0.12422 0.0
C719 C 0.46465 0.76263 0.09981 0.0
C720 C 0.4782 0.78758 0.09196 0.0
C721 C 0.44158 0.76335 0.11715 0.0
C722 C 0.46856 0.81336 0.10234 0.0
C723 C 0.44563 0.81424 0.11984 0.0
H724 H 0.75392 0.1663 0.37065 0.0
H725 H 0.83917 0.17445 0.37863 0.0
H726 H 0.84068 0.13317 0.4111 0.0
H727 H 0.81818 0.09539 0.43801 0.0
H728 H 0.73298 0.08628 0.43129 0.0
H729 H 0.73114 0.12699 0.3973 0.0
C730 C 0.77281 0.1589 0.37936 0.0
C731 C 0.79637 0.17376 0.37243 0.0
C732 C 0.77359 0.13493 0.39821 0.0
C733 C 0.82067 0.16388 0.38403 0.0
C734 C 0.8216 0.14011 0.40248 0.0
C735 C 0.79914 0.10212 0.42907 0.0
C736 C 0.77575 0.08769 0.43729 0.0
C737 C 0.79821 0.12561 0.40988 0.0
C738 C 0.75132 0.09691 0.42538 0.0
C739 C 0.75026 0.12025 0.40597 0.0
H740 H 0.39364 0.32729 0.87601 0.0
H741 H 0.39231 0.23653 0.88062 0.0
H742 H 0.4311 0.23687 0.91334 0.0
H743 H 0.46512 0.26243 0.94081 0.0
H744 H 0.46737 0.35316 0.93748 0.0
H745 H 0.4287 0.3533 0.90384 0.0
C746 C 0.40195 0.30762 0.88409 0.0
C747 C 0.38985 0.28192 0.87606 0.0
C748 C 0.42445 0.30793 0.90304 0.0
C749 C 0.40083 0.25662 0.88686 0.0
C750 C 0.42316 0.25677 0.90543 0.0
C751 C 0.45731 0.28233 0.93271 0.0
C752 C 0.46925 0.30776 0.94168 0.0
C753 C 0.43506 0.28224 0.91372 0.0
C754 C 0.45863 0.33326 0.93096 0.0
C755 C 0.43649 0.33335 0.91173 0.0
H756 H 0.29775 0.90504 0.38618 0.0
H757 H 0.21487 0.91244 0.36256 0.0
H758 H 0.20794 0.94352 0.40505 0.0
H759 H 0.2262 0.97019 0.44805 0.0
H760 H 0.30955 0.962 0.47019 0.0
H761 H 0.31543 0.92994 0.42915 0.0
C762 C 0.27817 0.9136 0.39017 0.0
C763 C 0.25695 0.90671 0.37101 0.0
C764 C 0.27441 0.93144 0.41443 0.0
C765 C 0.23157 0.9174 0.377 0.0
C766 C 0.22763 0.93526 0.40122 0.0
C767 C 0.24558 0.96125 0.44397 0.0
C768 C 0.26739 0.96876 0.46222 0.0
C769 C 0.24899 0.94265 0.42 0.0
C770 C 0.29237 0.95688 0.45655 0.0
C771 C 0.29584 0.93845 0.43301 0.0
H772 H 0.65595 0.83617 0.90209 0.0
H773 H 0.6663 0.74655 0.89352 0.0
H774 H 0.63392 0.73805 0.93275 0.0
H775 H 0.60153 0.75574 0.96812 0.0
H776 H 0.59013 0.84521 0.9765 0.0
H777 H 0.62383 0.85401 0.93846 0.0
C778 C 0.65106 0.81477 0.90872 0.0
C779 C 0.66364 0.79205 0.8948 0.0
C780 C 0.63211 0.80997 0.93114 0.0
C781 C 0.6573 0.76448 0.90406 0.0
C782 C 0.63859 0.75956 0.92636 0.0
C783 C 0.60638 0.77722 0.96172 0.0
C784 C 0.59316 0.79977 0.97512 0.0
C785 C 0.62573 0.78212 0.93987 0.0
C786 C 0.59991 0.82743 0.96656 0.0
C787 C 0.61919 0.83248 0.94478 0.0
loop_
_geom_bond_atom_site_label_1
_geom_bond_atom_site_label_2
_geom_bond_distance
_geom_bond_site_symmetry_2
_ccdc_geom_bond_type
C0 C1 1.264 . S
C0 C5 1.479 . S
C0 C10 1.465 . S
C1 C0 1.264 . S
C1 C3 1.339 . S
C1 H28 0.931 . S
C2 C3 1.395 . S
C2 C4 1.320 . S
C3 C1 1.339 . S
C3 C2 1.395 . S
C3 H29 0.929 . S
C4 C2 1.320 . S
C4 C5 1.405 . S
C4 H30 0.930 . S
C5 C0 1.479 . S
C5 C4 1.405 . S
C5 H31 0.931 . S
U6 O7 2.454 . S
U6 O8 2.458 . S
U6 C9 2.984 . S
U6 C10 2.847 . S
U6 C23 2.882 . S
U6 O24 2.441 . S
U6 O25 2.420 . S
U6 O26 2.455 . S
U6 O27 2.449 . S
O7 U6 2.454 . S
O7 C9 1.353 . S
O8 U6 2.458 . S
O8 C9 1.286 . S
C9 U6 2.984 . S
C9 O7 1.353 . S
C9 O8 1.286 . S
C9 C11 1.363 . S
C10 C0 1.465 . S
C10 U6 2.847 . S
C10 O24 1.249 . S
C10 O25 1.202 . S
C11 C9 1.363 . S
C11 C13 1.408 . S
C11 C16 1.342 . S
C12 C13 1.310 . S
C12 C15 1.461 . S
C12 H32 0.932 . S
C13 C11 1.408 . S
C13 C12 1.310 . S
C13 H33 0.930 . S
C14 C15 1.474 . S
C14 C16 1.285 . S
C14 H34 0.929 . S
C15 C12 1.461 . S
C15 C14 1.474 . S
C16 C11 1.342 . S
C16 C14 1.285 . S
C16 H35 0.930 . S
C17 C20 1.424 . S
C17 C22 1.245 . S
C17 C23 1.428 . S
C18 C21 1.260 . S
C18 C22 1.477 . S
C18 H36 0.932 . S
C19 C20 1.384 . S
C19 C21 1.479 . S
C19 H37 0.929 . S
C20 C17 1.424 . S
C20 C19 1.384 . S
C20 H38 0.928 . S
C21 C18 1.260 . S
C21 C19 1.479 . S
C22 C17 1.245 . S
C22 C18 1.477 . S
C22 H39 0.932 . S
C23 U6 2.882 . S
C23 C17 1.428 . S
C23 O26 1.301 . S
C23 O27 1.282 . S
O24 U6 2.441 . S
O24 C10 1.249 . S
O25 U6 2.420 . S
O25 C10 1.202 . S
O26 U6 2.455 . S
O26 C23 1.301 . S
O27 U6 2.449 . S
O27 C23 1.282 . S
H28 C1 0.931 . S
H29 C3 0.929 . S
H30 C4 0.930 . S
H31 C5 0.931 . S
H32 C12 0.932 . S
H33 C13 0.930 . S
H34 C14 0.929 . S
H35 C16 0.930 . S
H36 C18 0.932 . S
H37 C19 0.929 . S
H38 C20 0.928 . S
H39 C22 0.932 . S
C40 C41 1.264 . S
C40 C45 1.479 . S
C40 C50 1.465 . S
C41 C40 1.264 . S
C41 C43 1.339 . S
C41 H68 0.931 . S
C42 C43 1.395 . S
C42 C44 1.320 . S
C43 C41 1.339 . S
C43 C42 1.395 . S
C43 H69 0.929 . S
C44 C42 1.320 . S
C44 C45 1.405 . S
C44 H70 0.930 . S
C45 C40 1.479 . S
C45 C44 1.405 . S
C45 H71 0.931 . S
U46 O47 2.454 . S
U46 O48 2.458 . S
U46 C49 2.984 . S
U46 C50 2.847 . S
U46 C63 2.882 . S
U46 O64 2.441 . S
U46 O65 2.420 . S
U46 O66 2.455 . S
U46 O67 2.449 . S
O47 U46 2.454 . S
O47 C49 1.353 . S
O48 U46 2.458 . S
O48 C49 1.286 . S
C49 U46 2.984 . S
C49 O47 1.353 . S
C49 O48 1.286 . S
C49 C51 1.363 . S
C50 C40 1.465 . S
C50 U46 2.847 . S
C50 O64 1.249 . S
C50 O65 1.202 . S
C51 C49 1.363 . S
C51 C53 1.408 . S
C51 C56 1.342 . S
C52 C53 1.310 . S
C52 C55 1.461 . S
C52 H72 0.932 . S
C53 C51 1.408 . S
C53 C52 1.310 . S
C53 H73 0.930 . S
C54 C55 1.474 . S
C54 C56 1.285 . S
C54 H74 0.929 . S
C55 C52 1.461 . S
C55 C54 1.474 . S
C56 C51 1.342 . S
C56 C54 1.285 . S
C56 H75 0.930 . S
C57 C60 1.424 . S
C57 C62 1.245 . S
C57 C63 1.428 . S
C58 C61 1.260 . S
C58 C62 1.477 . S
C58 H76 0.932 . S
C59 C60 1.384 . S
C59 C61 1.479 . S
C59 H77 0.929 . S
C60 C57 1.424 . S
C60 C59 1.384 . S
C60 H78 0.928 . S
C61 C58 1.260 . S
C61 C59 1.479 . S
C62 C57 1.245 . S
C62 C58 1.477 . S
C62 H79 0.932 . S
C63 U46 2.882 . S
C63 C57 1.428 . S
C63 O66 1.301 . S
C63 O67 1.282 . S
O64 U46 2.441 . S
O64 C50 1.249 . S
O65 U46 2.420 . S
O65 C50 1.202 . S
O66 U46 2.455 . S
O66 C63 1.301 . S
O67 U46 2.449 . S
O67 C63 1.282 . S
H68 C41 0.931 . S
H69 C43 0.929 . S
H70 C44 0.930 . S
H71 C45 0.931 . S
H72 C52 0.932 . S
H73 C53 0.930 . S
H74 C54 0.929 . S
H75 C56 0.930 . S
H76 C58 0.932 . S
H77 C59 0.929 . S
H78 C60 0.928 . S
H79 C62 0.932 . S
C80 C81 1.264 . S
C80 C85 1.479 . S
C80 C90 1.465 . S
C81 C80 1.264 . S
C81 C83 1.339 . S
C81 H108 0.931 . S
C82 C83 1.395 . S
C82 C84 1.320 . S
C83 C81 1.339 . S
C83 C82 1.395 . S
C83 H109 0.929 . S
C84 C82 1.320 . S
C84 C85 1.405 . S
C84 H110 0.930 . S
C85 C80 1.479 . S
C85 C84 1.405 . S
C85 H111 0.931 . S
U86 O87 2.454 . S
U86 O88 2.458 . S
U86 C89 2.984 . S
U86 C90 2.847 . S
U86 C103 2.882 . S
U86 O104 2.441 . S
U86 O105 2.420 . S
U86 O106 2.455 . S
U86 O107 2.449 . S
O87 U86 2.454 . S
O87 C89 1.353 . S
O88 U86 2.458 . S
O88 C89 1.286 . S
C89 U86 2.984 . S
C89 O87 1.353 . S
C89 O88 1.286 . S
C89 C91 1.363 . S
C90 C80 1.465 . S
C90 U86 2.847 . S
C90 O104 1.249 . S
C90 O105 1.202 . S
C91 C89 1.363 . S
C91 C93 1.408 . S
C91 C96 1.342 . S
C92 C93 1.310 . S
C92 C95 1.461 . S
C92 H112 0.932 . S
C93 C91 1.408 . S
C93 C92 1.310 . S
C93 H113 0.930 . S
C94 C95 1.474 . S
C94 C96 1.285 . S
C94 H114 0.929 . S
C95 C92 1.461 . S
C95 C94 1.474 . S
C96 C91 1.342 . S
C96 C94 1.285 . S
C96 H115 0.930 . S
C97 C100 1.424 . S
C97 C102 1.245 . S
C97 C103 1.428 . S
C98 C101 1.260 . S
C98 C102 1.477 . S
C98 H116 0.932 . S
C99 C100 1.384 . S
C99 C101 1.479 . S
C99 H117 0.929 . S
C100 C97 1.424 . S
C100 C99 1.384 . S
C100 H118 0.928 . S
C101 C98 1.260 . S
C101 C99 1.479 . S
C102 C97 1.245 . S
C102 C98 1.477 . S
C102 H119 0.932 . S
C103 U86 2.882 . S
C103 C97 1.428 . S
C103 O106 1.301 . S
C103 O107 1.282 . S
O104 U86 2.441 . S
O104 C90 1.249 . S
O105 U86 2.420 . S
O105 C90 1.202 . S
O106 U86 2.455 . S
O106 C103 1.301 . S
O107 U86 2.449 . S
O107 C103 1.282 . S
H108 C81 0.931 . S
H109 C83 0.929 . S
H110 C84 0.930 . S
H111 C85 0.931 . S
H112 C92 0.932 . S
H113 C93 0.930 . S
H114 C94 0.929 . S
H115 C96 0.930 . S
H116 C98 0.932 . S
H117 C99 0.929 . S
H118 C100 0.928 . S
H119 C102 0.932 . S
C120 C121 1.264 . S
C120 C125 1.479 . S
C120 C130 1.465 . S
C121 C120 1.264 . S
C121 C123 1.339 . S
C121 H148 0.931 . S
C122 C123 1.395 . S
C122 C124 1.320 . S
C123 C121 1.339 . S
C123 C122 1.395 . S
C123 H149 0.929 . S
C124 C122 1.320 . S
C124 C125 1.405 . S
C124 H150 0.930 . S
C125 C120 1.479 . S
C125 C124 1.405 . S
C125 H151 0.931 . S
U126 O127 2.454 . S
U126 O128 2.458 . S
U126 C129 2.984 . S
U126 C130 2.847 . S
U126 C143 2.882 . S
U126 O144 2.441 . S
U126 O145 2.420 . S
U126 O146 2.455 . S
U126 O147 2.449 . S
O127 U126 2.454 . S
O127 C129 1.353 . S
O128 U126 2.458 . S
O128 C129 1.286 . S
C129 U126 2.984 . S
C129 O127 1.353 . S
C129 O128 1.286 . S
C129 C131 1.363 . S
C130 C120 1.465 . S
C130 U126 2.847 . S
C130 O144 1.249 . S
C130 O145 1.202 . S
C131 C129 1.363 . S
C131 C133 1.408 . S
C131 C136 1.342 . S
C132 C133 1.310 . S
C132 C135 1.461 . S
C132 H152 0.932 . S
C133 C131 1.408 . S
C133 C132 1.310 . S
C133 H153 0.930 . S
C134 C135 1.474 . S
C134 C136 1.285 . S
C134 H154 0.929 . S
C135 C132 1.461 . S
C135 C134 1.474 . S
C136 C131 1.342 . S
C136 C134 1.285 . S
C136 H155 0.930 . S
C137 C140 1.424 . S
C137 C142 1.245 . S
C137 C143 1.428 . S
C138 C141 1.260 . S
C138 C142 1.477 . S
C138 H156 0.932 . S
C139 C140 1.384 . S
C139 C141 1.479 . S
C139 H157 0.929 . S
C140 C137 1.424 . S
C140 C139 1.384 . S
C140 H158 0.928 . S
C141 C138 1.260 . S
C141 C139 1.479 . S
C142 C137 1.245 . S
C142 C138 1.477 . S
C142 H159 0.932 . S
C143 U126 2.882 . S
C143 C137 1.428 . S
C143 O146 1.301 . S
C143 O147 1.282 . S
O144 U126 2.441 . S
O144 C130 1.249 . S
O145 U126 2.420 . S
O145 C130 1.202 . S
O146 U126 2.455 . S
O146 C143 1.301 . S
O147 U126 2.449 . S
O147 C143 1.282 . S
H148 C121 0.931 . S
H149 C123 0.929 . S
H150 C124 0.930 . S
H151 C125 0.931 . S
H152 C132 0.932 . S
H153 C133 0.930 . S
H154 C134 0.929 . S
H155 C136 0.930 . S
H156 C138 0.932 . S
H157 C139 0.929 . S
H158 C140 0.928 . S
H159 C142 0.932 . S
C160 C161 1.264 . S
C160 C165 1.479 . S
C160 C170 1.465 . S
C161 C160 1.264 . S
C161 C163 1.339 . S
C161 H188 0.931 . S
C162 C163 1.395 . S
C162 C164 1.320 . S
C163 C161 1.339 . S
C163 C162 1.395 . S
C163 H189 0.929 . S
C164 C162 1.320 . S
C164 C165 1.405 . S
C164 H190 0.930 . S
C165 C160 1.479 . S
C165 C164 1.405 . S
C165 H191 0.931 . S
U166 O167 2.454 . S
U166 O168 2.458 . S
U166 C169 2.984 . S
U166 C170 2.847 . S
U166 C183 2.882 . S
U166 O184 2.441 . S
U166 O185 2.420 . S
U166 O186 2.455 . S
U166 O187 2.449 . S
O167 U166 2.454 . S
O167 C169 1.353 . S
O168 U166 2.458 . S
O168 C169 1.286 . S
C169 U166 2.984 . S
C169 O167 1.353 . S
C169 O168 1.286 . S
C169 C171 1.363 . S
C170 C160 1.465 . S
C170 U166 2.847 . S
C170 O184 1.249 . S
C170 O185 1.202 . S
C171 C169 1.363 . S
C171 C173 1.408 . S
C171 C176 1.342 . S
C172 C173 1.310 . S
C172 C175 1.461 . S
C172 H192 0.932 . S
C173 C171 1.408 . S
C173 C172 1.310 . S
C173 H193 0.930 . S
C174 C175 1.474 . S
C174 C176 1.285 . S
C174 H194 0.929 . S
C175 C172 1.461 . S
C175 C174 1.474 . S
C176 C171 1.342 . S
C176 C174 1.285 . S
C176 H195 0.930 . S
C177 C180 1.424 . S
C177 C182 1.245 . S
C177 C183 1.428 . S
C178 C181 1.260 . S
C178 C182 1.477 . S
C178 H196 0.932 . S
C179 C180 1.384 . S
C179 C181 1.479 . S
C179 H197 0.929 . S
C180 C177 1.424 . S
C180 C179 1.384 . S
C180 H198 0.928 . S
C181 C178 1.260 . S
C181 C179 1.479 . S
C182 C177 1.245 . S
C182 C178 1.477 . S
C182 H199 0.932 . S
C183 U166 2.882 . S
C183 C177 1.428 . S
C183 O186 1.301 . S
C183 O187 1.282 . S
O184 U166 2.441 . S
O184 C170 1.249 . S
O185 U166 2.420 . S
O185 C170 1.202 . S
O186 U166 2.455 . S
O186 C183 1.301 . S
O187 U166 2.449 . S
O187 C183 1.282 . S
H188 C161 0.931 . S
H189 C163 0.929 . S
H190 C164 0.930 . S
H191 C165 0.931 . S
H192 C172 0.932 . S
H193 C173 0.930 . S
H194 C174 0.929 . S
H195 C176 0.930 . S
H196 C178 0.932 . S
H197 C179 0.929 . S
H198 C180 0.928 . S
H199 C182 0.932 . S
C200 C201 1.264 . S
C200 C205 1.479 . S
C200 C210 1.465 . S
C201 C200 1.264 . S
C201 C203 1.339 . S
C201 H228 0.931 . S
C202 C203 1.395 . S
C202 C204 1.320 . S
C203 C201 1.339 . S
C203 C202 1.395 . S
C203 H229 0.929 . S
C204 C202 1.320 . S
C204 C205 1.405 . S
C204 H230 0.930 . S
C205 C200 1.479 . S
C205 C204 1.405 . S
C205 H231 0.931 . S
U206 O207 2.454 . S
U206 O208 2.458 . S
U206 C209 2.984 . S
U206 C210 2.847 . S
U206 C223 2.882 . S
U206 O224 2.441 . S
U206 O225 2.420 . S
U206 O226 2.455 . S
U206 O227 2.449 . S
O207 U206 2.454 . S
O207 C209 1.353 . S
O208 U206 2.458 . S
O208 C209 1.286 . S
C209 U206 2.984 . S
C209 O207 1.353 . S
C209 O208 1.286 . S
C209 C211 1.363 . S
C210 C200 1.465 . S
C210 U206 2.847 . S
C210 O224 1.249 . S
C210 O225 1.202 . S
C211 C209 1.363 . S
C211 C213 1.408 . S
C211 C216 1.342 . S
C212 C213 1.310 . S
C212 C215 1.461 . S
C212 H232 0.932 . S
C213 C211 1.408 . S
C213 C212 1.310 . S
C213 H233 0.930 . S
C214 C215 1.474 . S
C214 C216 1.285 . S
C214 H234 0.929 . S
C215 C212 1.461 . S
C215 C214 1.474 . S
C216 C211 1.342 . S
C216 C214 1.285 . S
C216 H235 0.930 . S
C217 C220 1.424 . S
C217 C222 1.245 . S
C217 C223 1.428 . S
C218 C221 1.260 . S
C218 C222 1.477 . S
C218 H236 0.932 . S
C219 C220 1.384 . S
C219 C221 1.479 . S
C219 H237 0.929 . S
C220 C217 1.424 . S
C220 C219 1.384 . S
C220 H238 0.928 . S
C221 C218 1.260 . S
C221 C219 1.479 . S
C222 C217 1.245 . S
C222 C218 1.477 . S
C222 H239 0.932 . S
C223 U206 2.882 . S
C223 C217 1.428 . S
C223 O226 1.301 . S
C223 O227 1.282 . S
O224 U206 2.441 . S
O224 C210 1.249 . S
O225 U206 2.420 . S
O225 C210 1.202 . S
O226 U206 2.455 . S
O226 C223 1.301 . S
O227 U206 2.449 . S
O227 C223 1.282 . S
H228 C201 0.931 . S
H229 C203 0.929 . S
H230 C204 0.930 . S
H231 C205 0.931 . S
H232 C212 0.932 . S
H233 C213 0.930 . S
H234 C214 0.929 . S
H235 C216 0.930 . S
H236 C218 0.932 . S
H237 C219 0.929 . S
H238 C220 0.928 . S
H239 C222 0.932 . S
C240 C241 1.264 . S
C240 C245 1.479 . S
C240 C250 1.465 . S
C241 C240 1.264 . S
C241 C243 1.339 . S
C241 H268 0.931 . S
C242 C243 1.395 . S
C242 C244 1.320 . S
C243 C241 1.339 . S
C243 C242 1.395 . S
C243 H269 0.929 . S
C244 C242 1.320 . S
C244 C245 1.405 . S
C244 H270 0.930 . S
C245 C240 1.479 . S
C245 C244 1.405 . S
C245 H271 0.931 . S
U246 O247 2.454 . S
U246 O248 2.458 . S
U246 C249 2.984 . S
U246 C250 2.847 . S
U246 C263 2.882 . S
U246 O264 2.441 . S
U246 O265 2.420 . S
U246 O266 2.455 . S
U246 O267 2.449 . S
O247 U246 2.454 . S
O247 C249 1.353 . S
O248 U246 2.458 . S
O248 C249 1.286 . S
C249 U246 2.984 . S
C249 O247 1.353 . S
C249 O248 1.286 . S
C249 C251 1.363 . S
C250 C240 1.465 . S
C250 U246 2.847 . S
C250 O264 1.249 . S
C250 O265 1.202 . S
C251 C249 1.363 . S
C251 C253 1.408 . S
C251 C256 1.342 . S
C252 C253 1.310 . S
C252 C255 1.461 . S
C252 H272 0.932 . S
C253 C251 1.408 . S
C253 C252 1.310 . S
C253 H273 0.930 . S
C254 C255 1.474 . S
C254 C256 1.285 . S
C254 H274 0.929 . S
C255 C252 1.461 . S
C255 C254 1.474 . S
C256 C251 1.342 . S
C256 C254 1.285 . S
C256 H275 0.930 . S
C257 C260 1.424 . S
C257 C262 1.245 . S
C257 C263 1.428 . S
C258 C261 1.260 . S
C258 C262 1.477 . S
C258 H276 0.932 . S
C259 C260 1.384 . S
C259 C261 1.479 . S
C259 H277 0.929 . S
C260 C257 1.424 . S
C260 C259 1.384 . S
C260 H278 0.928 . S
C261 C258 1.260 . S
C261 C259 1.479 . S
C262 C257 1.245 . S
C262 C258 1.477 . S
C262 H279 0.932 . S
C263 U246 2.882 . S
C263 C257 1.428 . S
C263 O266 1.301 . S
C263 O267 1.282 . S
O264 U246 2.441 . S
O264 C250 1.249 . S
O265 U246 2.420 . S
O265 C250 1.202 . S
O266 U246 2.455 . S
O266 C263 1.301 . S
O267 U246 2.449 . S
O267 C263 1.282 . S
H268 C241 0.931 . S
H269 C243 0.929 . S
H270 C244 0.930 . S
H271 C245 0.931 . S
H272 C252 0.932 . S
H273 C253 0.930 . S
H274 C254 0.929 . S
H275 C256 0.930 . S
H276 C258 0.932 . S
H277 C259 0.929 . S
H278 C260 0.928 . S
H279 C262 0.932 . S
C280 C281 1.264 . S
C280 C285 1.479 . S
C280 C290 1.465 . S
C281 C280 1.264 . S
C281 C283 1.339 . S
C281 H308 0.931 . S
C282 C283 1.395 . S
C282 C284 1.320 . S
C283 C281 1.339 . S
C283 C282 1.395 . S
C283 H309 0.929 . S
C284 C282 1.320 . S
C284 C285 1.405 . S
C284 H310 0.930 . S
C285 C280 1.479 . S
C285 C284 1.405 . S
C285 H311 0.931 . S
U286 O287 2.454 . S
U286 O288 2.458 . S
U286 C289 2.984 . S
U286 C290 2.847 . S
U286 C303 2.882 . S
U286 O304 2.441 . S
U286 O305 2.420 . S
U286 O306 2.455 . S
U286 O307 2.449 . S
O287 U286 2.454 . S
O287 C289 1.353 . S
O288 U286 2.458 . S
O288 C289 1.286 . S
C289 U286 2.984 . S
C289 O287 1.353 . S
C289 O288 1.286 . S
C289 C291 1.363 . S
C290 C280 1.465 . S
C290 U286 2.847 . S
C290 O304 1.249 . S
C290 O305 1.202 . S
C291 C289 1.363 . S
C291 C293 1.408 . S
C291 C296 1.342 . S
C292 C293 1.310 . S
C292 C295 1.461 . S
C292 H312 0.932 . S
C293 C291 1.408 . S
C293 C292 1.310 . S
C293 H313 0.930 . S
C294 C295 1.474 . S
C294 C296 1.285 . S
C294 H314 0.929 . S
C295 C292 1.461 . S
C295 C294 1.474 . S
C296 C291 1.342 . S
C296 C294 1.285 . S
C296 H315 0.930 . S
C297 C300 1.424 . S
C297 C302 1.245 . S
C297 C303 1.428 . S
C298 C301 1.260 . S
C298 C302 1.477 . S
C298 H316 0.932 . S
C299 C300 1.384 . S
C299 C301 1.479 . S
C299 H317 0.929 . S
C300 C297 1.424 . S
C300 C299 1.384 . S
C300 H318 0.928 . S
C301 C298 1.260 . S
C301 C299 1.479 . S
C302 C297 1.245 . S
C302 C298 1.477 . S
C302 H319 0.932 . S
C303 U286 2.882 . S
C303 C297 1.428 . S
C303 O306 1.301 . S
C303 O307 1.282 . S
O304 U286 2.441 . S
O304 C290 1.249 . S
O305 U286 2.420 . S
O305 C290 1.202 . S
O306 U286 2.455 . S
O306 C303 1.301 . S
O307 U286 2.449 . S
O307 C303 1.282 . S
H308 C281 0.931 . S
H309 C283 0.929 . S
H310 C284 0.930 . S
H311 C285 0.931 . S
H312 C292 0.932 . S
H313 C293 0.930 . S
H314 C294 0.929 . S
H315 C296 0.930 . S
H316 C298 0.932 . S
H317 C299 0.929 . S
H318 C300 0.928 . S
H319 C302 0.932 . S
C320 O322 1.247 . S
C320 O324 1.258 . S
C321 O328 1.247 . S
C321 O329 1.258 . S
O322 C320 1.247 . S
O322 Zn323 2.028 1_655 S
Zn323 O322 2.028 1_455 S
Zn323 O327 2.035 . S
Zn323 O329 2.035 . S
Zn323 O330 2.028 1_455 S
O324 C320 1.258 . S
O324 Zn325 2.035 1_655 S
Zn325 O324 2.035 1_455 S
Zn325 O326 2.028 . S
Zn325 O328 2.028 . S
Zn325 O331 2.035 1_455 S
O326 Zn325 2.028 . S
O326 C332 1.247 . S
O327 Zn323 2.035 . S
O327 C332 1.258 . S
O328 C321 1.247 . S
O328 Zn325 2.028 . S
O329 C321 1.258 . S
O329 Zn323 2.035 . S
O330 Zn323 2.028 1_655 S
O330 C333 1.247 . S
O331 Zn325 2.035 1_655 S
O331 C333 1.258 . S
C332 O326 1.247 . S
C332 O327 1.258 . S
C333 O330 1.247 . S
C333 O331 1.258 . S
C334 O336 1.247 . S
C334 O338 1.258 . S
C335 O342 1.247 . S
C335 O343 1.258 . S
O336 C334 1.247 . S
O336 Zn337 2.028 1_655 S
Zn337 O336 2.028 1_455 S
Zn337 O341 2.035 . S
Zn337 O343 2.035 . S
Zn337 O344 2.028 1_455 S
O338 C334 1.258 . S
O338 Zn339 2.035 1_655 S
Zn339 O338 2.035 1_455 S
Zn339 O340 2.028 . S
Zn339 O342 2.028 . S
Zn339 O345 2.035 1_455 S
O340 Zn339 2.028 . S
O340 C346 1.247 . S
O341 Zn337 2.035 . S
O341 C346 1.258 . S
O342 C335 1.247 . S
O342 Zn339 2.028 . S
O343 C335 1.258 . S
O343 Zn337 2.035 . S
O344 Zn337 2.028 1_655 S
O344 C347 1.247 . S
O345 Zn339 2.035 1_655 S
O345 C347 1.258 . S
C346 O340 1.247 . S
C346 O341 1.258 . S
C347 O344 1.247 . S
C347 O345 1.258 . S
C348 O350 1.247 . S
C348 O352 1.258 . S
C349 O356 1.247 . S
C349 O357 1.258 . S
O350 C348 1.247 . S
O350 Zn351 2.028 1_565 S
Zn351 O350 2.028 1_545 S
Zn351 O355 2.035 . S
Zn351 O357 2.035 . S
Zn351 O358 2.028 1_545 S
O352 C348 1.258 . S
O352 Zn353 2.035 1_565 S
Zn353 O352 2.035 1_545 S
Zn353 O354 2.028 . S
Zn353 O356 2.028 . S
Zn353 O359 2.035 1_545 S
O354 Zn353 2.028 . S
O354 C360 1.247 . S
O355 Zn351 2.035 . S
O355 C360 1.258 . S
O356 C349 1.247 . S
O356 Zn353 2.028 . S
O357 C349 1.258 . S
O357 Zn351 2.035 . S
O358 Zn351 2.028 1_565 S
O358 C361 1.247 . S
O359 Zn353 2.035 1_565 S
O359 C361 1.258 . S
C360 O354 1.247 . S
C360 O355 1.258 . S
C361 O358 1.247 . S
C361 O359 1.258 . S
C362 O364 1.247 . S
C362 O366 1.258 . S
C363 O370 1.247 . S
C363 O371 1.258 . S
O364 C362 1.247 . S
O364 Zn365 2.028 . S
Zn365 O364 2.028 . S
Zn365 O369 2.035 . S
Zn365 O371 2.035 1_554 S
Zn365 O372 2.028 1_554 S
O366 C362 1.258 . S
O366 Zn367 2.035 . S
Zn367 O366 2.035 . S
Zn367 O368 2.028 . S
Zn367 O370 2.028 1_554 S
Zn367 O373 2.035 1_554 S
O368 Zn367 2.028 . S
O368 C374 1.247 . S
O369 Zn365 2.035 . S
O369 C374 1.258 . S
O370 C363 1.247 . S
O370 Zn367 2.028 1_556 S
O371 C363 1.258 . S
O371 Zn365 2.035 1_556 S
O372 Zn365 2.028 1_556 S
O372 C375 1.247 . S
O373 Zn367 2.035 1_556 S
O373 C375 1.258 . S
C374 O368 1.247 . S
C374 O369 1.258 . S
C375 O372 1.247 . S
C375 O373 1.258 . S
C376 O378 1.247 . S
C376 O380 1.258 . S
C377 O384 1.247 . S
C377 O385 1.258 . S
O378 C376 1.247 . S
O378 Zn379 2.031 1_565 S
Zn379 O378 2.031 1_545 S
Zn379 O383 2.032 . S
Zn379 O385 2.032 . S
Zn379 O386 2.031 1_545 S
O380 C376 1.258 . S
O380 Zn381 2.007 1_565 S
Zn381 O380 2.007 1_545 S
Zn381 O382 2.056 . S
Zn381 O384 2.056 . S
Zn381 O387 2.007 1_545 S
O382 Zn381 2.056 . S
O382 C388 1.247 . S
O383 Zn379 2.032 . S
O383 C388 1.258 . S
O384 C377 1.247 . S
O384 Zn381 2.056 . S
O385 C377 1.258 . S
O385 Zn379 2.032 . S
O386 Zn379 2.031 1_565 S
O386 C389 1.247 . S
O387 Zn381 2.007 1_565 S
O387 C389 1.258 . S
C388 O382 1.247 . S
C388 O383 1.258 . S
C389 O386 1.247 . S
C389 O387 1.258 . S
C390 O392 1.247 . S
C390 O394 1.258 . S
C391 O398 1.247 . S
C391 O399 1.258 . S
O392 C390 1.247 . S
O392 Zn393 2.028 . S
Zn393 O392 2.028 . S
Zn393 O397 2.035 . S
Zn393 O399 2.035 1_554 S
Zn393 O400 2.028 1_554 S
O394 C390 1.258 . S
O394 Zn395 2.058 . S
Zn395 O394 2.058 . S
Zn395 O396 2.051 . S
Zn395 O398 2.005 1_554 S
Zn395 O401 2.013 1_554 S
O396 Zn395 2.051 . S
O396 C402 1.247 . S
O397 Zn393 2.035 . S
O397 C402 1.258 . S
O398 C391 1.247 . S
O398 Zn395 2.005 1_556 S
O399 C391 1.258 . S
O399 Zn393 2.035 1_556 S
O400 Zn393 2.028 1_556 S
O400 C403 1.247 . S
O401 Zn395 2.013 1_556 S
O401 C403 1.258 . S
C402 O396 1.247 . S
C402 O397 1.258 . S
C403 O400 1.247 . S
C403 O401 1.258 . S
H404 C410 0.930 . S
H405 C413 0.930 . S
H406 C414 0.930 . S
H407 C415 0.930 . S
H408 C418 0.930 . S
H409 C419 0.930 . S
C410 H404 0.930 . S
C410 C411 1.355 . S
C410 C412 1.415 . S
C411 C410 1.355 . S
C411 C413 1.419 . S
C412 C410 1.415 . S
C412 C417 1.425 . S
C412 C419 1.409 . S
C413 H405 0.930 . S
C413 C411 1.419 . S
C413 C414 1.362 . S
C414 H406 0.930 . S
C414 C413 1.362 . S
C414 C417 1.409 . S
C415 H407 0.930 . S
C415 C416 1.355 . S
C415 C417 1.415 . S
C416 C415 1.355 . S
C416 C418 1.419 . S
C417 C412 1.425 . S
C417 C414 1.409 . S
C417 C415 1.415 . S
C418 H408 0.930 . S
C418 C416 1.419 . S
C418 C419 1.362 . S
C419 H409 0.930 . S
C419 C412 1.409 . S
C419 C418 1.362 . S
H420 C426 0.930 . S
H421 C429 0.930 . S
H422 C430 0.930 . S
H423 C431 0.930 . S
H424 C434 0.930 . S
H425 C435 0.930 . S
C426 H420 0.930 . S
C426 C427 1.355 . S
C426 C428 1.415 . S
C427 C426 1.355 . S
C427 C429 1.419 . S
C428 C426 1.415 . S
C428 C433 1.425 . S
C428 C435 1.409 . S
C429 H421 0.930 . S
C429 C427 1.419 . S
C429 C430 1.362 . S
C430 H422 0.930 . S
C430 C429 1.362 . S
C430 C433 1.409 . S
C431 H423 0.930 . S
C431 C432 1.355 . S
C431 C433 1.415 . S
C432 C431 1.355 . S
C432 C434 1.419 . S
C433 C428 1.425 . S
C433 C430 1.409 . S
C433 C431 1.415 . S
C434 H424 0.930 . S
C434 C432 1.419 . S
C434 C435 1.362 . S
C435 H425 0.930 . S
C435 C428 1.409 . S
C435 C434 1.362 . S
H436 C442 0.930 . S
H437 C445 0.930 . S
H438 C446 0.930 . S
H439 C447 0.930 . S
H440 C450 0.930 . S
H441 C451 0.930 . S
C442 H436 0.930 . S
C442 C443 1.355 . S
C442 C444 1.415 . S
C443 C442 1.355 . S
C443 C445 1.419 . S
C444 C442 1.415 . S
C444 C449 1.425 . S
C444 C451 1.409 . S
C445 H437 0.930 . S
C445 C443 1.419 . S
C445 C446 1.362 . S
C446 H438 0.930 . S
C446 C445 1.362 . S
C446 C449 1.409 . S
C447 H439 0.930 . S
C447 C448 1.355 . S
C447 C449 1.415 . S
C448 C447 1.355 . S
C448 C450 1.419 . S
C449 C444 1.425 . S
C449 C446 1.409 . S
C449 C447 1.415 . S
C450 H440 0.930 . S
C450 C448 1.419 . S
C450 C451 1.362 . S
C451 H441 0.930 . S
C451 C444 1.409 . S
C451 C450 1.362 . S
H452 C458 0.930 . S
H453 C461 0.930 . S
H454 C462 0.930 . S
H455 C463 0.930 . S
H456 C466 0.930 . S
H457 C467 0.930 . S
C458 H452 0.930 . S
C458 C459 1.355 . S
C458 C460 1.415 . S
C459 C458 1.355 . S
C459 C461 1.419 . S
C460 C458 1.415 . S
C460 C465 1.425 . S
C460 C467 1.409 . S
C461 H453 0.930 . S
C461 C459 1.419 . S
C461 C462 1.362 . S
C462 H454 0.930 . S
C462 C461 1.362 . S
C462 C465 1.409 . S
C463 H455 0.930 . S
C463 C464 1.355 . S
C463 C465 1.415 . S
C464 C463 1.355 . S
C464 C466 1.419 . S
C465 C460 1.425 . S
C465 C462 1.409 . S
C465 C463 1.415 . S
C466 H456 0.930 . S
C466 C464 1.419 . S
C466 C467 1.362 . S
C467 H457 0.930 . S
C467 C460 1.409 . S
C467 C466 1.362 . S
H468 C474 0.930 . S
H469 C477 0.930 . S
H470 C478 0.930 . S
H471 C479 0.930 . S
H472 C482 0.930 . S
H473 C483 0.930 . S
C474 H468 0.930 . S
C474 C475 1.355 . S
C474 C476 1.415 . S
C475 C474 1.355 . S
C475 C477 1.419 . S
C476 C474 1.415 . S
C476 C481 1.425 . S
C476 C483 1.409 . S
C477 H469 0.930 . S
C477 C475 1.419 . S
C477 C478 1.362 . S
C478 H470 0.930 . S
C478 C477 1.362 . S
C478 C481 1.409 . S
C479 H471 0.930 . S
C479 C480 1.355 . S
C479 C481 1.415 . S
C480 C479 1.355 . S
C480 C482 1.419 . S
C481 C476 1.425 . S
C481 C478 1.409 . S
C481 C479 1.415 . S
C482 H472 0.930 . S
C482 C480 1.419 . S
C482 C483 1.362 . S
C483 H473 0.930 . S
C483 C476 1.409 . S
C483 C482 1.362 . S
H484 C490 0.930 . S
H485 C493 0.930 . S
H486 C494 0.930 . S
H487 C495 0.930 . S
H488 C498 0.930 . S
H489 C499 0.930 . S
C490 H484 0.930 . S
C490 C491 1.355 . S
C490 C492 1.415 . S
C491 C490 1.355 . S
C491 C493 1.419 . S
C492 C490 1.415 . S
C492 C497 1.425 . S
C492 C499 1.409 . S
C493 H485 0.930 . S
C493 C491 1.419 . S
C493 C494 1.362 . S
C494 H486 0.930 . S
C494 C493 1.362 . S
C494 C497 1.409 . S
C495 H487 0.930 . S
C495 C496 1.355 . S
C495 C497 1.415 . S
C496 C495 1.355 . S
C496 C498 1.419 . S
C497 C492 1.425 . S
C497 C494 1.409 . S
C497 C495 1.415 . S
C498 H488 0.930 . S
C498 C496 1.419 . S
C498 C499 1.362 . S
C499 H489 0.930 . S
C499 C492 1.409 . S
C499 C498 1.362 . S
H500 C506 0.930 . S
H501 C509 0.930 . S
H502 C510 0.930 . S
H503 C511 0.930 . S
H504 C514 0.930 . S
H505 C515 0.930 . S
C506 H500 0.930 . S
C506 C507 1.355 . S
C506 C508 1.415 . S
C507 C506 1.355 . S
C507 C509 1.419 . S
C508 C506 1.415 . S
C508 C513 1.425 . S
C508 C515 1.409 . S
C509 H501 0.930 . S
C509 C507 1.419 . S
C509 C510 1.362 . S
C510 H502 0.930 . S
C510 C509 1.362 . S
C510 C513 1.409 . S
C511 H503 0.930 . S
C511 C512 1.355 . S
C511 C513 1.415 . S
C512 C511 1.355 . S
C512 C514 1.419 . S
C513 C508 1.425 . S
C513 C510 1.409 . S
C513 C511 1.415 . S
C514 H504 0.930 . S
C514 C512 1.419 . S
C514 C515 1.362 . S
C515 H505 0.930 . S
C515 C508 1.409 . S
C515 C514 1.362 . S
H516 C522 0.930 . S
H517 C525 0.930 . S
H518 C526 0.930 . S
H519 C527 0.930 . S
H520 C530 0.930 . S
H521 C531 0.930 . S
C522 H516 0.930 . S
C522 C523 1.355 . S
C522 C524 1.415 . S
C523 C522 1.355 . S
C523 C525 1.419 . S
C524 C522 1.415 . S
C524 C529 1.425 . S
C524 C531 1.409 . S
C525 H517 0.930 . S
C525 C523 1.419 . S
C525 C526 1.362 . S
C526 H518 0.930 . S
C526 C525 1.362 . S
C526 C529 1.409 . S
C527 H519 0.930 . S
C527 C528 1.355 . S
C527 C529 1.415 . S
C528 C527 1.355 . S
C528 C530 1.419 . S
C529 C524 1.425 . S
C529 C526 1.409 . S
C529 C527 1.415 . S
C530 H520 0.930 . S
C530 C528 1.419 . S
C530 C531 1.362 . S
C531 H521 0.930 . S
C531 C524 1.409 . S
C531 C530 1.362 . S
H532 C538 0.930 . S
H533 C541 0.930 . S
H534 C542 0.930 . S
H535 C543 0.930 . S
H536 C546 0.930 . S
H537 C547 0.930 . S
C538 H532 0.930 . S
C538 C539 1.355 . S
C538 C540 1.415 . S
C539 C538 1.355 . S
C539 C541 1.419 . S
C540 C538 1.415 . S
C540 C545 1.425 . S
C540 C547 1.409 . S
C541 H533 0.930 . S
C541 C539 1.419 . S
C541 C542 1.362 . S
C542 H534 0.930 . S
C542 C541 1.362 . S
C542 C545 1.409 . S
C543 H535 0.930 . S
C543 C544 1.355 . S
C543 C545 1.415 . S
C544 C543 1.355 . S
C544 C546 1.419 . S
C545 C540 1.425 . S
C545 C542 1.409 . S
C545 C543 1.415 . S
C546 H536 0.930 . S
C546 C544 1.419 . S
C546 C547 1.362 . S
C547 H537 0.930 . S
C547 C540 1.409 . S
C547 C546 1.362 . S
H548 C554 0.930 . S
H549 C557 0.930 . S
H550 C558 0.930 . S
H551 C559 0.930 . S
H552 C562 0.930 . S
H553 C563 0.930 . S
C554 H548 0.930 . S
C554 C555 1.355 . S
C554 C556 1.415 . S
C555 C554 1.355 . S
C555 C557 1.419 . S
C556 C554 1.415 . S
C556 C561 1.425 . S
C556 C563 1.409 . S
C557 H549 0.930 . S
C557 C555 1.419 . S
C557 C558 1.362 . S
C558 H550 0.930 . S
C558 C557 1.362 . S
C558 C561 1.409 . S
C559 H551 0.930 . S
C559 C560 1.355 . S
C559 C561 1.415 . S
C560 C559 1.355 . S
C560 C562 1.419 . S
C561 C556 1.425 . S
C561 C558 1.409 . S
C561 C559 1.415 . S
C562 H552 0.930 . S
C562 C560 1.419 . S
C562 C563 1.362 . S
C563 H553 0.930 . S
C563 C556 1.409 . S
C563 C562 1.362 . S
H564 C570 0.930 . S
H565 C573 0.930 . S
H566 C574 0.930 . S
H567 C575 0.930 . S
H568 C578 0.930 . S
H569 C579 0.930 . S
C570 H564 0.930 . S
C570 C571 1.355 . S
C570 C572 1.415 . S
C571 C570 1.355 . S
C571 C573 1.419 . S
C572 C570 1.415 . S
C572 C577 1.425 . S
C572 C579 1.409 . S
C573 H565 0.930 . S
C573 C571 1.419 . S
C573 C574 1.362 . S
C574 H566 0.930 . S
C574 C573 1.362 . S
C574 C577 1.409 . S
C575 H567 0.930 . S
C575 C576 1.355 . S
C575 C577 1.415 . S
C576 C575 1.355 . S
C576 C578 1.419 . S
C577 C572 1.425 . S
C577 C574 1.409 . S
C577 C575 1.415 . S
C578 H568 0.930 . S
C578 C576 1.419 . S
C578 C579 1.362 . S
C579 H569 0.930 . S
C579 C572 1.409 . S
C579 C578 1.362 . S
H580 C586 0.930 . S
H581 C589 0.930 . S
H582 C590 0.930 . S
H583 C591 0.930 . S
H584 C594 0.930 . S
H585 C595 0.930 . S
C586 H580 0.930 . S
C586 C587 1.355 . S
C586 C588 1.415 . S
C587 C586 1.355 . S
C587 C589 1.419 . S
C588 C586 1.415 . S
C588 C593 1.425 . S
C588 C595 1.409 . S
C589 H581 0.930 . S
C589 C587 1.419 . S
C589 C590 1.362 . S
C590 H582 0.930 . S
C590 C589 1.362 . S
C590 C593 1.409 . S
C591 H583 0.930 . S
C591 C592 1.355 . S
C591 C593 1.415 . S
C592 C591 1.355 . S
C592 C594 1.419 . S
C593 C588 1.425 . S
C593 C590 1.409 . S
C593 C591 1.415 . S
C594 H584 0.930 . S
C594 C592 1.419 . S
C594 C595 1.362 . S
C595 H585 0.930 . S
C595 C588 1.409 . S
C595 C594 1.362 . S
H596 C602 0.930 . S
H597 C605 0.930 . S
H598 C606 0.930 . S
H599 C607 0.930 . S
H600 C610 0.930 . S
H601 C611 0.930 . S
C602 H596 0.930 . S
C602 C603 1.355 . S
C602 C604 1.415 . S
C603 C602 1.355 . S
C603 C605 1.419 . S
C604 C602 1.415 . S
C604 C609 1.425 . S
C604 C611 1.409 . S
C605 H597 0.930 . S
C605 C603 1.419 . S
C605 C606 1.362 . S
C606 H598 0.930 . S
C606 C605 1.362 . S
C606 C609 1.409 . S
C607 H599 0.930 . S
C607 C608 1.355 . S
C607 C609 1.415 . S
C608 C607 1.355 . S
C608 C610 1.419 . S
C609 C604 1.425 . S
C609 C606 1.409 . S
C609 C607 1.415 . S
C610 H600 0.930 . S
C610 C608 1.419 . S
C610 C611 1.362 . S
C611 H601 0.930 . S
C611 C604 1.409 . S
C611 C610 1.362 . S
H612 C618 0.930 . S
H613 C621 0.930 . S
H614 C622 0.930 . S
H615 C623 0.930 . S
H616 C626 0.930 . S
H617 C627 0.930 . S
C618 H612 0.930 . S
C618 C619 1.355 . S
C618 C620 1.415 . S
C619 C618 1.355 . S
C619 C621 1.419 . S
C620 C618 1.415 . S
C620 C625 1.425 . S
C620 C627 1.409 . S
C621 H613 0.930 . S
C621 C619 1.419 . S
C621 C622 1.362 . S
C622 H614 0.930 . S
C622 C621 1.362 . S
C622 C625 1.409 . S
C623 H615 0.930 . S
C623 C624 1.355 . S
C623 C625 1.415 . S
C624 C623 1.355 . S
C624 C626 1.419 . S
C625 C620 1.425 . S
C625 C622 1.409 . S
C625 C623 1.415 . S
C626 H616 0.930 . S
C626 C624 1.419 . S
C626 C627 1.362 . S
C627 H617 0.930 . S
C627 C620 1.409 . S
C627 C626 1.362 . S
H628 C634 0.930 . S
H629 C637 0.930 . S
H630 C638 0.930 . S
H631 C639 0.930 . S
H632 C642 0.930 . S
H633 C643 0.930 . S
C634 H628 0.930 . S
C634 C635 1.355 . S
C634 C636 1.415 . S
C635 C634 1.355 . S
C635 C637 1.419 . S
C636 C634 1.415 . S
C636 C641 1.425 . S
C636 C643 1.409 . S
C637 H629 0.930 . S
C637 C635 1.419 . S
C637 C638 1.362 . S
C638 H630 0.930 . S
C638 C637 1.362 . S
C638 C641 1.409 . S
C639 H631 0.930 . S
C639 C640 1.355 . S
C639 C641 1.415 . S
C640 C639 1.355 . S
C640 C642 1.419 . S
C641 C636 1.425 . S
C641 C638 1.409 . S
C641 C639 1.415 . S
C642 H632 0.930 . S
C642 C640 1.419 . S
C642 C643 1.362 . S
C643 H633 0.930 . S
C643 C636 1.409 . S
C643 C642 1.362 . S
H644 C650 0.930 . S
H645 C653 0.930 . S
H646 C654 0.930 . S
H647 C655 0.930 . S
H648 C658 0.930 . S
H649 C659 0.930 . S
C650 H644 0.930 . S
C650 C651 1.355 . S
C650 C652 1.415 . S
C651 C650 1.355 . S
C651 C653 1.419 . S
C652 C650 1.415 . S
C652 C657 1.425 . S
C652 C659 1.409 . S
C653 H645 0.930 . S
C653 C651 1.419 . S
C653 C654 1.362 . S
C654 H646 0.930 . S
C654 C653 1.362 . S
C654 C657 1.409 . S
C655 H647 0.930 . S
C655 C656 1.355 . S
C655 C657 1.415 . S
C656 C655 1.355 . S
C656 C658 1.419 . S
C657 C652 1.425 . S
C657 C654 1.409 . S
C657 C655 1.415 . S
C658 H648 0.930 . S
C658 C656 1.419 . S
C658 C659 1.362 . S
C659 H649 0.930 . S
C659 C652 1.409 . S
C659 C658 1.362 . S
H660 C666 0.930 . S
H661 C669 0.930 . S
H662 C670 0.930 . S
H663 C671 0.930 . S
H664 C674 0.930 . S
H665 C675 0.930 . S
C666 H660 0.930 . S
C666 C667 1.355 . S
C666 C668 1.415 . S
C667 C666 1.355 . S
C667 C669 1.419 . S
C668 C666 1.415 . S
C668 C673 1.425 . S
C668 C675 1.409 . S
C669 H661 0.930 . S
C669 C667 1.419 . S
C669 C670 1.362 . S
C670 H662 0.930 . S
C670 C669 1.362 . S
C670 C673 1.409 . S
C671 H663 0.930 . S
C671 C672 1.355 . S
C671 C673 1.415 . S
C672 C671 1.355 . S
C672 C674 1.419 . S
C673 C668 1.425 . S
C673 C670 1.409 . S
C673 C671 1.415 . S
C674 H664 0.930 . S
C674 C672 1.419 . S
C674 C675 1.362 . S
C675 H665 0.930 . S
C675 C668 1.409 . S
C675 C674 1.362 . S
H676 C682 0.930 . S
H677 C685 0.930 . S
H678 C686 0.930 . S
H679 C687 0.930 . S
H680 C690 0.930 . S
H681 C691 0.930 . S
C682 H676 0.930 . S
C682 C683 1.355 . S
C682 C684 1.415 . S
C683 C682 1.355 . S
C683 C685 1.419 . S
C684 C682 1.415 . S
C684 C689 1.425 . S
C684 C691 1.409 . S
C685 H677 0.930 . S
C685 C683 1.419 . S
C685 C686 1.362 . S
C686 H678 0.930 . S
C686 C685 1.362 . S
C686 C689 1.409 . S
C687 H679 0.930 . S
C687 C688 1.355 . S
C687 C689 1.415 . S
C688 C687 1.355 . S
C688 C690 1.419 . S
C689 C684 1.425 . S
C689 C686 1.409 . S
C689 C687 1.415 . S
C690 H680 0.930 . S
C690 C688 1.419 . S
C690 C691 1.362 . S
C691 H681 0.930 . S
C691 C684 1.409 . S
C691 C690 1.362 . S
H692 C698 0.930 . S
H693 C701 0.930 . S
H694 C702 0.930 . S
H695 C703 0.930 . S
H696 C706 0.930 . S
H697 C707 0.930 . S
C698 H692 0.930 . S
C698 C699 1.355 . S
C698 C700 1.415 . S
C699 C698 1.355 . S
C699 C701 1.419 . S
C700 C698 1.415 . S
C700 C705 1.425 . S
C700 C707 1.409 . S
C701 H693 0.930 . S
C701 C699 1.419 . S
C701 C702 1.362 . S
C702 H694 0.930 . S
C702 C701 1.362 . S
C702 C705 1.409 . S
C703 H695 0.930 . S
C703 C704 1.355 . S
C703 C705 1.415 . S
C704 C703 1.355 . S
C704 C706 1.419 . S
C705 C700 1.425 . S
C705 C702 1.409 . S
C705 C703 1.415 . S
C706 H696 0.930 . S
C706 C704 1.419 . S
C706 C707 1.362 . S
C707 H697 0.930 . S
C707 C700 1.409 . S
C707 C706 1.362 . S
H708 C714 0.930 . S
H709 C717 0.930 . S
H710 C718 0.930 . S
H711 C719 0.930 . S
H712 C722 0.930 . S
H713 C723 0.930 . S
C714 H708 0.930 . S
C714 C715 1.355 . S
C714 C716 1.415 . S
C715 C714 1.355 . S
C715 C717 1.419 . S
C716 C714 1.415 . S
C716 C721 1.425 . S
C716 C723 1.409 . S
C717 H709 0.930 . S
C717 C715 1.419 . S
C717 C718 1.362 . S
C718 H710 0.930 . S
C718 C717 1.362 . S
C718 C721 1.409 . S
C719 H711 0.930 . S
C719 C720 1.355 . S
C719 C721 1.415 . S
C720 C719 1.355 . S
C720 C722 1.419 . S
C721 C716 1.425 . S
C721 C718 1.409 . S
C721 C719 1.415 . S
C722 H712 0.930 . S
C722 C720 1.419 . S
C722 C723 1.362 . S
C723 H713 0.930 . S
C723 C716 1.409 . S
C723 C722 1.362 . S
H724 C730 0.930 . S
H725 C733 0.930 . S
H726 C734 0.930 . S
H727 C735 0.930 . S
H728 C738 0.930 . S
H729 C739 0.930 . S
C730 H724 0.930 . S
C730 C731 1.355 . S
C730 C732 1.415 . S
C731 C730 1.355 . S
C731 C733 1.419 . S
C732 C730 1.415 . S
C732 C737 1.425 . S
C732 C739 1.409 . S
C733 H725 0.930 . S
C733 C731 1.419 . S
C733 C734 1.362 . S
C734 H726 0.930 . S
C734 C733 1.362 . S
C734 C737 1.409 . S
C735 H727 0.930 . S
C735 C736 1.355 . S
C735 C737 1.415 . S
C736 C735 1.355 . S
C736 C738 1.419 . S
C737 C732 1.425 . S
C737 C734 1.409 . S
C737 C735 1.415 . S
C738 H728 0.930 . S
C738 C736 1.419 . S
C738 C739 1.362 . S
C739 H729 0.930 . S
C739 C732 1.409 . S
C739 C738 1.362 . S
H740 C746 0.930 . S
H741 C749 0.930 . S
H742 C750 0.930 . S
H743 C751 0.930 . S
H744 C754 0.930 . S
H745 C755 0.930 . S
C746 H740 0.930 . S
C746 C747 1.355 . S
C746 C748 1.415 . S
C747 C746 1.355 . S
C747 C749 1.419 . S
C748 C746 1.415 . S
C748 C753 1.425 . S
C748 C755 1.409 . S
C749 H741 0.930 . S
C749 C747 1.419 . S
C749 C750 1.362 . S
C750 H742 0.930 . S
C750 C749 1.362 . S
C750 C753 1.409 . S
C751 H743 0.930 . S
C751 C752 1.355 . S
C751 C753 1.415 . S
C752 C751 1.355 . S
C752 C754 1.419 . S
C753 C748 1.425 . S
C753 C750 1.409 . S
C753 C751 1.415 . S
C754 H744 0.930 . S
C754 C752 1.419 . S
C754 C755 1.362 . S
C755 H745 0.930 . S
C755 C748 1.409 . S
C755 C754 1.362 . S
H756 C762 0.930 . S
H757 C765 0.930 . S
H758 C766 0.930 . S
H759 C767 0.930 . S
H760 C770 0.930 . S
H761 C771 0.930 . S
C762 H756 0.930 . S
C762 C763 1.355 . S
C762 C764 1.415 . S
C763 C762 1.355 . S
C763 C765 1.419 . S
C764 C762 1.415 . S
C764 C769 1.425 . S
C764 C771 1.409 . S
C765 H757 0.930 . S
C765 C763 1.419 . S
C765 C766 1.362 . S
C766 H758 0.930 . S
C766 C765 1.362 . S
C766 C769 1.409 . S
C767 H759 0.930 . S
C767 C768 1.355 . S
C767 C769 1.415 . S
C768 C767 1.355 . S
C768 C770 1.419 . S
C769 C764 1.425 . S
C769 C766 1.409 . S
C769 C767 1.415 . S
C770 H760 0.930 . S
C770 C768 1.419 . S
C770 C771 1.362 . S
C771 H761 0.930 . S
C771 C764 1.409 . S
C771 C770 1.362 . S
H772 C778 0.930 . S
H773 C781 0.930 . S
H774 C782 0.930 . S
H775 C783 0.930 . S
H776 C786 0.930 . S
H777 C787 0.930 . S
C778 H772 0.930 . S
C778 C779 1.355 . S
C778 C780 1.415 . S
C779 C778 1.355 . S
C779 C781 1.419 . S
C780 C778 1.415 . S
C780 C785 1.425 . S
C780 C787 1.409 . S
C781 H773 0.930 . S
C781 C779 1.419 . S
C781 C782 1.362 . S
C782 H774 0.930 . S
C782 C781 1.362 . S
C782 C785 1.409 . S
C783 H775 0.930 . S
C783 C784 1.355 . S
C783 C785 1.415 . S
C784 C783 1.355 . S
C784 C786 1.419 . S
C785 C780 1.425 . S
C785 C782 1.409 . S
C785 C783 1.415 . S
C786 H776 0.930 . S
C786 C784 1.419 . S
C786 C787 1.362 . S
C787 H777 0.930 . S
C787 C780 1.409 . S
C787 C786 1.362 . S
C416 C332 1.510 . S
C411 C15 1.517 . S
C432 C335 1.465 . S
C427 C55 1.471 . S
C448 C333 1.528 . S
C443 C101 1.531 . S
C464 C334 1.500 . S
C459 C141 1.487 . S
C480 C349 1.492 . S
C475 C2 1.480 . S
C496 C363 1.483 . S
C491 C61 1.486 . S
C507 C95 1.510 . S
C512 C389 1.518 . S
C528 C403 1.481 . S
C523 C135 1.493 . S
C544 C348 1.479 . S
C539 C42 1.479 . S
C555 C82 1.492 . S
C560 C362 1.505 . S
C576 C388 1.508 . S
C571 C122 1.485 . S
C592 C402 1.509 . S
C587 C21 1.502 . S
C603 C162 1.470 . S
C608 C347 1.488 . S
C624 C320 1.522 . S
C619 C221 1.514 . S
C635 C255 1.477 . S
C640 C346 1.472 . S
C651 C282 1.506 . S
C656 C321 1.517 . S
C672 C376 1.512 . S
C667 C181 1.496 . S
C688 C390 1.514 . S
C683 C202 1.489 . S
C704 C360 1.487 . S
C699 C242 1.474 . S
C715 C301 1.495 . S
C720 C374 1.508 . S
C736 C377 1.505 . S
C731 C215 1.511 . S
C752 C391 1.499 . S
C747 C261 1.511 . S
C768 C361 1.498 . S
C763 C295 1.493 . S
C779 C175 1.491 . S
C784 C375 1.484 . S
