# Generated by pormake.
# Topology pto, (3,4)-cn, num edge types: 1
# Building blocks:
#     Node 0, Type 0, BuildingBlock: WUSLED_clean_sbu_0, # of connection points: 3
#     Node 1, Type 0, BuildingBlock: WUSLED_clean_sbu_0, # of connection points: 3
#     Node 2, Type 0, BuildingBlock: WUSLED_clean_sbu_0, # of connection points: 3
#     Node 3, Type 0, BuildingBlock: WUSLED_clean_sbu_0, # of connection points: 3
#     Node 4, Type 0, BuildingBlock: WUSLED_clean_sbu_0, # of connection points: 3
#     Node 5, Type 0, BuildingBlock: WUSLED_clean_sbu_0, # of connection points: 3
#     Node 6, Type 0, BuildingBlock: WUSLED_clean_sbu_0, # of connection points: 3
#     Node 7, Type 0, BuildingBlock: WUSLED_clean_sbu_0, # of connection points: 3
#     Node 8, Type 1, BuildingBlock: KOZSID_clean_sbu_0, # of connection points: 4
#     Node 9, Type 1, BuildingBlock: KOZSID_clean_sbu_0, # of connection points: 4
#     Node 10, Type 1, BuildingBlock: KOZSID_clean_sbu_0, # of connection points: 4
#     Node 11, Type 1, BuildingBlock: KOZSID_clean_sbu_0, # of connection points: 4
#     Node 12, Type 1, BuildingBlock: KOZSID_clean_sbu_0, # of connection points: 4
#     Node 13, Type 1, BuildingBlock: KOZSID_clean_sbu_0, # of connection points: 4
#     Edge 14, Type (0, 1), BuildingBlock: KIFKEQ_clean_linker_1, # of connection points: 2
#     Edge 15, Type (0, 1), BuildingBlock: KIFKEQ_clean_linker_1, # of connection points: 2
#     Edge 16, Type (0, 1), BuildingBlock: KIFKEQ_clean_linker_1, # of connection points: 2
#     Edge 17, Type (0, 1), BuildingBlock: KIFKEQ_clean_linker_1, # of connection points: 2
#     Edge 18, Type (0, 1), BuildingBlock: KIFKEQ_clean_linker_1, # of connection points: 2
#     Edge 19, Type (0, 1), BuildingBlock: KIFKEQ_clean_linker_1, # of connection points: 2
#     Edge 20, Type (0, 1), BuildingBlock: KIFKEQ_clean_linker_1, # of connection points: 2
#     Edge 21, Type (0, 1), BuildingBlock: KIFKEQ_clean_linker_1, # of connection points: 2
#     Edge 22, Type (0, 1), BuildingBlock: KIFKEQ_clean_linker_1, # of connection points: 2
#     Edge 23, Type (0, 1), BuildingBlock: KIFKEQ_clean_linker_1, # of connection points: 2
#     Edge 24, Type (0, 1), BuildingBlock: KIFKEQ_clean_linker_1, # of connection points: 2
#     Edge 25, Type (0, 1), BuildingBlock: KIFKEQ_clean_linker_1, # of connection points: 2
#     Edge 26, Type (0, 1), BuildingBlock: KIFKEQ_clean_linker_1, # of connection points: 2
#     Edge 27, Type (0, 1), BuildingBlock: KIFKEQ_clean_linker_1, # of connection points: 2
#     Edge 28, Type (0, 1), BuildingBlock: KIFKEQ_clean_linker_1, # of connection points: 2
#     Edge 29, Type (0, 1), BuildingBlock: KIFKEQ_clean_linker_1, # of connection points: 2
#     Edge 30, Type (0, 1), BuildingBlock: KIFKEQ_clean_linker_1, # of connection points: 2
#     Edge 31, Type (0, 1), BuildingBlock: KIFKEQ_clean_linker_1, # of connection points: 2
#     Edge 32, Type (0, 1), BuildingBlock: KIFKEQ_clean_linker_1, # of connection points: 2
#     Edge 33, Type (0, 1), BuildingBlock: KIFKEQ_clean_linker_1, # of connection points: 2
#     Edge 34, Type (0, 1), BuildingBlock: KIFKEQ_clean_linker_1, # of connection points: 2
#     Edge 35, Type (0, 1), BuildingBlock: KIFKEQ_clean_linker_1, # of connection points: 2
#     Edge 36, Type (0, 1), BuildingBlock: KIFKEQ_clean_linker_1, # of connection points: 2
#     Edge 37, Type (0, 1), BuildingBlock: KIFKEQ_clean_linker_1, # of connection points: 2
# Relax obj value: 0.000
# Max RMSD: 0.023
# Mean RMSD: 0.010
data_MOF--net-pto--node1-WUSLED_clean_sbu_0--node2-KOZSID_clean_sbu_0--edge1-KIFKEQ_clean_linker_1
_symmetry_space_group_name_H-M    P1
_symmetry_Int_Tables_number       1
_symmetry_cell_setting            triclinic
loop_
_symmetry_equiv_pos_as_xyz
'x, y, z'
_cell_length_a     49.954416
_cell_length_b     66.34268
_cell_length_c     58.236622
_cell_angle_alpha  87.550059
_cell_angle_beta   88.282725
_cell_angle_gamma 92.781007
loop_
_atom_site_label
_atom_site_type_symbol
_atom_site_fract_x
_atom_site_fract_y
_atom_site_fract_z
_atom_type_partial_charge
C0 C 0.25202 0.23427 0.36157 0.0
C1 C 0.27322 0.2216 0.35755 0.0
C2 C 0.25574 0.1979 0.3883 0.0
C3 C 0.27508 0.2036 0.37081 0.0
C4 C 0.23439 0.21063 0.39201 0.0
C5 C 0.2326 0.22861 0.3788 0.0
U6 U 0.27149 0.26994 0.30966 0.0
O7 O 0.24662 0.28923 0.28832 0.0
O8 O 0.27933 0.30298 0.30763 0.0
C9 C 0.25902 0.30604 0.29431 0.0
C10 C 0.24989 0.25345 0.34813 0.0
C11 C 0.24188 0.32268 0.3002 0.0
C12 C 0.20243 0.33569 0.31889 0.0
C13 C 0.21914 0.31969 0.31495 0.0
C14 C 0.23136 0.35781 0.29378 0.0
C15 C 0.20815 0.35489 0.30805 0.0
C16 C 0.248 0.34189 0.28991 0.0
C17 C 0.32227 0.2535 0.26427 0.0
C18 C 0.34162 0.27573 0.23316 0.0
C19 C 0.34965 0.24 0.23393 0.0
C20 C 0.33413 0.23714 0.2543 0.0
C21 C 0.35364 0.25933 0.22309 0.0
C22 C 0.32599 0.27283 0.25354 0.0
C23 C 0.30619 0.25004 0.28582 0.0
O24 O 0.27137 0.26576 0.34734 0.0
O25 O 0.23865 0.252 0.32811 0.0
O26 O 0.28014 0.24791 0.28353 0.0
O27 O 0.31293 0.26155 0.30276 0.0
H28 H 0.28841 0.2257 0.34428 0.0
H29 H 0.29193 0.19433 0.36759 0.0
H30 H 0.21886 0.20661 0.40499 0.0
H31 H 0.21601 0.23813 0.38206 0.0
H32 H 0.18465 0.33289 0.32988 0.0
H33 H 0.21409 0.30494 0.32307 0.0
H34 H 0.23667 0.37245 0.2855 0.0
H35 H 0.26551 0.34452 0.27855 0.0
H36 H 0.34403 0.29077 0.22515 0.0
H37 H 0.35889 0.22709 0.22687 0.0
H38 H 0.3315 0.22212 0.26236 0.0
H39 H 0.31685 0.28564 0.26093 0.0
C40 C 0.24264 0.82282 0.6978 0.0
C41 C 0.25246 0.84059 0.70758 0.0
C42 C 0.24742 0.85967 0.67125 0.0
C43 C 0.25479 0.85885 0.69444 0.0
C44 C 0.23798 0.84169 0.66154 0.0
C45 C 0.2356 0.82351 0.67468 0.0
U46 U 0.25966 0.78687 0.74826 0.0
O47 O 0.23329 0.76622 0.77036 0.0
O48 O 0.26499 0.75407 0.74884 0.0
C49 C 0.24404 0.74996 0.76276 0.0
C50 C 0.23937 0.80347 0.71129 0.0
C51 C 0.22552 0.73296 0.7567 0.0
C52 C 0.18056 0.71709 0.75515 0.0
C53 C 0.19748 0.73411 0.75854 0.0
C54 C 0.21927 0.6976 0.74745 0.0
C55 C 0.19124 0.69851 0.74991 0.0
C56 C 0.23615 0.71457 0.75089 0.0
C57 C 0.31251 0.80363 0.79101 0.0
C58 C 0.32179 0.78473 0.82638 0.0
C59 C 0.35068 0.81365 0.81355 0.0
C60 C 0.33491 0.81657 0.79438 0.0
C61 C 0.34436 0.7977 0.82982 0.0
C62 C 0.30605 0.78763 0.8071 0.0
C63 C 0.29632 0.80712 0.77063 0.0
O64 O 0.25997 0.7919 0.7106 0.0
O65 O 0.22832 0.8042 0.732 0.0
O66 O 0.27042 0.80842 0.77457 0.0
O67 O 0.30197 0.79625 0.75294 0.0
H68 H 0.25812 0.84037 0.7254 0.0
H69 H 0.26191 0.87238 0.70258 0.0
H70 H 0.23261 0.8416 0.64367 0.0
H71 H 0.22816 0.80994 0.66677 0.0
H72 H 0.15912 0.71834 0.75743 0.0
H73 H 0.18858 0.748 0.76317 0.0
H74 H 0.22824 0.68368 0.74305 0.0
H75 H 0.25765 0.71318 0.7495 0.0
H76 H 0.31651 0.77219 0.83844 0.0
H77 H 0.36763 0.82411 0.8158 0.0
H78 H 0.34018 0.82902 0.78216 0.0
H79 H 0.28887 0.77741 0.80471 0.0
C80 C 0.7332 0.80362 0.27078 0.0
C81 C 0.73834 0.7882 0.25572 0.0
C82 C 0.70222 0.79888 0.23135 0.0
C83 C 0.72298 0.78585 0.23617 0.0
C84 C 0.69702 0.81412 0.24675 0.0
C85 C 0.71238 0.81646 0.26623 0.0
U86 U 0.78496 0.78664 0.31396 0.0
O87 O 0.81761 0.80442 0.32943 0.0
O88 O 0.78537 0.78965 0.35143 0.0
C89 C 0.80672 0.80209 0.35026 0.0
C90 C 0.74942 0.80671 0.29116 0.0
C91 C 0.80467 0.82067 0.36309 0.0
C92 C 0.78277 0.85164 0.37146 0.0
C93 C 0.78458 0.83427 0.35868 0.0
C94 C 0.82127 0.84206 0.39295 0.0
C95 C 0.80102 0.8557 0.38887 0.0
C96 C 0.82304 0.82475 0.3802 0.0
C97 C 0.81576 0.73466 0.30649 0.0
C98 C 0.85745 0.72242 0.32109 0.0
C99 C 0.82456 0.69895 0.30591 0.0
C100 C 0.80783 0.71484 0.30138 0.0
C101 C 0.8497 0.70252 0.31565 0.0
C102 C 0.8406 0.73835 0.3166 0.0
C103 C 0.79814 0.75111 0.30016 0.0
O104 O 0.74313 0.79459 0.30915 0.0
O105 O 0.77543 0.80933 0.28719 0.0
O106 O 0.81001 0.76825 0.29226 0.0
O107 O 0.77771 0.75357 0.31433 0.0
H108 H 0.75435 0.77811 0.25899 0.0
H109 H 0.72771 0.77407 0.22461 0.0
H110 H 0.68092 0.82419 0.24385 0.0
H111 H 0.70803 0.82837 0.27774 0.0
H112 H 0.76679 0.86168 0.36797 0.0
H113 H 0.7702 0.83137 0.34551 0.0
H114 H 0.83596 0.84483 0.40589 0.0
H115 H 0.83877 0.81448 0.38376 0.0
H116 H 0.87652 0.72569 0.32885 0.0
H117 H 0.81806 0.68393 0.30116 0.0
H118 H 0.78879 0.71168 0.29349 0.0
H119 H 0.84709 0.75354 0.32078 0.0
C120 C 0.76845 0.23033 0.73542 0.0
C121 C 0.79031 0.23174 0.71961 0.0
C122 C 0.77419 0.2006 0.7024 0.0
C123 C 0.79319 0.21696 0.70326 0.0
C124 C 0.75238 0.19939 0.71836 0.0
C125 C 0.74956 0.21408 0.73463 0.0
U126 U 0.78395 0.28129 0.76362 0.0
O127 O 0.75547 0.30141 0.77938 0.0
O128 O 0.78584 0.28736 0.80038 0.0
C129 C 0.76471 0.29843 0.80007 0.0
C130 C 0.7648 0.24534 0.75306 0.0
C131 C 0.74442 0.29433 0.81883 0.0
C132 C 0.71969 0.27159 0.84672 0.0
C133 C 0.73805 0.27471 0.82806 0.0
C134 C 0.71345 0.30756 0.84672 0.0
C135 C 0.70739 0.28804 0.85647 0.0
C136 C 0.73177 0.31065 0.82816 0.0
C137 C 0.83654 0.32082 0.73921 0.0
C138 C 0.85611 0.34818 0.76082 0.0
C139 C 0.85934 0.35002 0.71922 0.0
C140 C 0.84527 0.33128 0.71872 0.0
C141 C 0.8651 0.35871 0.74028 0.0
C142 C 0.8419 0.32948 0.76029 0.0
C143 C 0.82182 0.30102 0.73826 0.0
O144 O 0.78473 0.24816 0.767 0.0
O145 O 0.75423 0.26223 0.74618 0.0
O146 O 0.79622 0.30168 0.73387 0.0
O147 O 0.82671 0.28753 0.75461 0.0
H148 H 0.80509 0.24422 0.71992 0.0
H149 H 0.8101 0.21848 0.69113 0.0
H150 H 0.73761 0.18687 0.71853 0.0
H151 H 0.73262 0.21268 0.74676 0.0
H152 H 0.71564 0.25638 0.85387 0.0
H153 H 0.74754 0.26187 0.82107 0.0
H154 H 0.70399 0.32053 0.85343 0.0
H155 H 0.7363 0.32589 0.8212 0.0
H156 H 0.8604 0.35421 0.77737 0.0
H157 H 0.86545 0.35779 0.70304 0.0
H158 H 0.84115 0.32495 0.70227 0.0
H159 H 0.83523 0.32175 0.77636 0.0
C160 C 0.80726 0.73899 0.76786 0.0
C161 C 0.82985 0.74204 0.75294 0.0
C162 C 0.84101 0.70685 0.75966 0.0
C163 C 0.84656 0.72607 0.74883 0.0
C164 C 0.81794 0.70387 0.7741 0.0
C165 C 0.8013 0.71976 0.77814 0.0
U166 U 0.7779 0.79186 0.75896 0.0
O167 O 0.73651 0.80038 0.76575 0.0
O168 O 0.76922 0.81367 0.78538 0.0
C169 C 0.74319 0.81166 0.7829 0.0
C170 C 0.79015 0.75559 0.77393 0.0
C171 C 0.72677 0.80831 0.80433 0.0
C172 C 0.70183 0.78618 0.83269 0.0
C173 C 0.71823 0.78882 0.81271 0.0
C174 C 0.70286 0.82242 0.83637 0.0
C175 C 0.69373 0.80298 0.84468 0.0
C176 C 0.71915 0.82503 0.8164 0.0
C177 C 0.79785 0.82784 0.70735 0.0
C178 C 0.77501 0.85861 0.69808 0.0
C179 C 0.81571 0.85147 0.67698 0.0
C180 C 0.81736 0.83347 0.69018 0.0
C181 C 0.79442 0.86425 0.68063 0.0
C182 C 0.77673 0.84059 0.71133 0.0
C183 C 0.79978 0.80859 0.72071 0.0
O184 O 0.80257 0.77231 0.78016 0.0
O185 O 0.7699 0.75884 0.76059 0.0
O186 O 0.77825 0.79635 0.72131 0.0
O187 O 0.81089 0.80988 0.7408 0.0
H188 H 0.83479 0.7568 0.74483 0.0
H189 H 0.86423 0.72891 0.73771 0.0
H190 H 0.81275 0.68921 0.78239 0.0
H191 H 0.7839 0.71708 0.78963 0.0
H192 H 0.69503 0.771 0.83844 0.0
H193 H 0.72397 0.77567 0.80369 0.0
H194 H 0.69753 0.83569 0.84535 0.0
H195 H 0.72568 0.84019 0.8103 0.0
H196 H 0.7582 0.86793 0.70126 0.0
H197 H 0.8313 0.85544 0.66403 0.0
H198 H 0.8339 0.82389 0.68694 0.0
H199 H 0.76146 0.83652 0.72455 0.0
C200 C 0.73701 0.25729 0.27733 0.0
C201 C 0.74342 0.27325 0.2612 0.0
C202 C 0.70603 0.26239 0.23783 0.0
C203 C 0.72806 0.27578 0.24161 0.0
C204 C 0.69956 0.24661 0.2543 0.0
C205 C 0.71491 0.2441 0.27381 0.0
U206 U 0.79151 0.27384 0.31861 0.0
O207 O 0.79248 0.2696 0.35626 0.0
O208 O 0.82269 0.25603 0.3345 0.0
C209 C 0.81253 0.25749 0.3554 0.0
C210 C 0.75327 0.25392 0.29769 0.0
C211 C 0.80885 0.23837 0.36926 0.0
C212 C 0.78451 0.20632 0.37902 0.0
C213 C 0.78761 0.22437 0.36555 0.0
C214 C 0.82396 0.21605 0.39989 0.0
C215 C 0.80262 0.20194 0.39645 0.0
C216 C 0.827 0.23405 0.38645 0.0
C217 C 0.82823 0.32651 0.30656 0.0
C218 C 0.84851 0.35103 0.33166 0.0
C219 C 0.85987 0.35297 0.2909 0.0
C220 C 0.84286 0.336 0.28786 0.0
C221 C 0.86259 0.36095 0.31276 0.0
C222 C 0.83146 0.33398 0.3286 0.0
C223 C 0.80852 0.30987 0.30211 0.0
O224 O 0.77894 0.2517 0.29351 0.0
O225 O 0.74865 0.26555 0.31494 0.0
O226 O 0.7881 0.30679 0.31683 0.0
O227 O 0.81829 0.29306 0.29509 0.0
H228 H 0.76044 0.28361 0.26364 0.0
H229 H 0.73378 0.28798 0.22922 0.0
H230 H 0.68249 0.23624 0.2522 0.0
H231 H 0.70957 0.23176 0.28615 0.0
H232 H 0.76771 0.19594 0.37601 0.0
H233 H 0.77339 0.22744 0.35231 0.0
H234 H 0.83857 0.21308 0.41282 0.0
H235 H 0.84361 0.24462 0.38948 0.0
H236 H 0.84999 0.35682 0.34871 0.0
H237 H 0.87077 0.35994 0.27604 0.0
H238 H 0.84072 0.3305 0.27072 0.0
H239 H 0.8204 0.32695 0.34334 0.0
C240 C 0.2456 0.24185 0.70506 0.0
C241 C 0.26549 0.22818 0.70987 0.0
C242 C 0.24887 0.20626 0.68021 0.0
C243 C 0.26715 0.21056 0.69753 0.0
C244 C 0.229 0.22008 0.67555 0.0
C245 C 0.22741 0.23767 0.68785 0.0
U246 U 0.26538 0.27581 0.75406 0.0
O247 O 0.27231 0.30888 0.75407 0.0
O248 O 0.2404 0.29383 0.77626 0.0
C249 C 0.25225 0.31108 0.76873 0.0
C250 C 0.24345 0.26049 0.71777 0.0
C251 C 0.23458 0.32768 0.76338 0.0
C252 C 0.19586 0.3414 0.74497 0.0
C253 C 0.21304 0.3255 0.74858 0.0
C254 C 0.2219 0.3618 0.77058 0.0
C255 C 0.19989 0.35965 0.75621 0.0
C256 C 0.23901 0.34599 0.77411 0.0
C257 C 0.31726 0.25869 0.79696 0.0
C258 C 0.32741 0.2765 0.83156 0.0
C259 C 0.35311 0.248 0.82126 0.0
C260 C 0.33788 0.24571 0.8017 0.0
C261 C 0.34798 0.26334 0.83656 0.0
C262 C 0.31219 0.27419 0.81192 0.0
C263 C 0.30112 0.25565 0.77653 0.0
O264 O 0.23263 0.25814 0.73862 0.0
O265 O 0.26474 0.27299 0.71656 0.0
O266 O 0.30729 0.26795 0.75866 0.0
O267 O 0.27513 0.25287 0.78048 0.0
H268 H 0.27967 0.23112 0.72319 0.0
H269 H 0.28252 0.20018 0.70175 0.0
H270 H 0.21484 0.21746 0.66214 0.0
H271 H 0.21196 0.24807 0.68385 0.0
H272 H 0.17903 0.33921 0.7339 0.0
H273 H 0.20931 0.31145 0.74013 0.0
H274 H 0.22593 0.37574 0.77916 0.0
H275 H 0.25559 0.34799 0.78551 0.0
H276 H 0.32273 0.28835 0.84303 0.0
H277 H 0.36906 0.23782 0.82431 0.0
H278 H 0.34217 0.23372 0.79027 0.0
H279 H 0.29632 0.28438 0.80852 0.0
C280 C 0.21265 0.74046 0.32926 0.0
C281 C 0.21128 0.73043 0.30854 0.0
C282 C 0.18458 0.70247 0.32772 0.0
C283 C 0.19729 0.71166 0.30775 0.0
C284 C 0.18627 0.71253 0.34846 0.0
C285 C 0.20013 0.73134 0.3492 0.0
U286 U 0.26536 0.78015 0.30551 0.0
O287 O 0.26432 0.81326 0.30191 0.0
O288 O 0.29444 0.79944 0.32338 0.0
C289 C 0.28397 0.81625 0.31608 0.0
C290 C 0.22712 0.76031 0.33039 0.0
C291 C 0.28007 0.83157 0.33333 0.0
C292 C 0.25503 0.84544 0.365 0.0
C293 C 0.25834 0.83021 0.34928 0.0
C294 C 0.29523 0.86333 0.34908 0.0
C295 C 0.27336 0.8623 0.36496 0.0
C296 C 0.29851 0.84815 0.33347 0.0
C297 C 0.30637 0.76771 0.25101 0.0
C298 C 0.33059 0.79089 0.22325 0.0
C299 C 0.3396 0.75533 0.22443 0.0
C300 C 0.32062 0.75181 0.24246 0.0
C301 C 0.34472 0.77489 0.21447 0.0
C302 C 0.31164 0.78735 0.24142 0.0
C303 C 0.28566 0.76318 0.26936 0.0
O304 O 0.25263 0.75978 0.33515 0.0
O305 O 0.22248 0.77366 0.31382 0.0
O306 O 0.26428 0.77398 0.26874 0.0
O307 O 0.29444 0.76022 0.29022 0.0
H308 H 0.22102 0.73712 0.29297 0.0
H309 H 0.19668 0.70422 0.29157 0.0
H310 H 0.1765 0.70602 0.3641 0.0
H311 H 0.20098 0.73883 0.36535 0.0
H312 H 0.23788 0.84422 0.37689 0.0
H313 H 0.24387 0.81749 0.34942 0.0
H314 H 0.31001 0.87584 0.3488 0.0
H315 H 0.31548 0.84942 0.32138 0.0
H316 H 0.33426 0.80617 0.21615 0.0
H317 H 0.34982 0.74262 0.21793 0.0
H318 H 0.31679 0.73654 0.24956 0.0
H319 H 0.30099 0.7999 0.24783 0.0
C320 C 0.06924 0.55781 0.34661 0.0
C321 C 0.07819 0.56327 0.36793 0.0
C322 C 0.0644 0.55094 0.38399 0.0
C323 C 0.04783 0.53872 0.37168 0.0
N324 N 0.05039 0.54232 0.34866 0.0
Co325 Co 0.02925 0.52854 0.32451 0.0
N326 N 1.00668 0.51218 0.34833 0.0
C327 C 0.00783 0.5133 0.37142 0.0
C328 C 0.99 0.50015 0.38342 0.0
C329 C 0.97682 0.48984 0.36704 0.0
C330 C 0.98755 0.49725 0.34591 0.0
N331 N 0.00856 0.51439 0.30032 0.0
C332 C 0.98964 0.49896 0.30242 0.0
C333 C 0.98175 0.4927 0.28108 0.0
C334 C 0.99623 0.50448 0.26496 0.0
C335 C 0.0122 0.51714 0.27726 0.0
N336 N 0.05134 0.54529 0.30069 0.0
C337 C 0.04956 0.54474 0.27758 0.0
C338 C 0.06646 0.5586 0.26563 0.0
C339 C 0.07949 0.56893 0.28207 0.0
C340 C 0.06967 0.56076 0.30319 0.0
N341 N 0.0555 0.50683 0.32394 0.0
C342 C 0.08898 0.47364 0.32247 0.0
C343 C 0.0833 0.48484 0.30248 0.0
C344 C 0.06675 0.50119 0.30359 0.0
C345 C 0.07834 0.47986 0.34335 0.0
C346 C 0.06191 0.49638 0.3437 0.0
N347 N 1.00301 0.5502 0.32504 0.0
C348 C 0.97641 0.57432 0.30471 0.0
C349 C 0.96911 0.58317 0.3252 0.0
C350 C 0.97848 0.57476 0.3457 0.0
C351 C 0.99517 0.5584 0.34524 0.0
C352 C 0.99316 0.55804 0.30502 0.0
H353 H 1.00181 0.55286 0.36142 0.0
H354 H 0.99809 0.55219 0.28878 0.0
H355 H 0.06313 0.50885 0.28767 0.0
H356 H 0.05427 0.50018 0.36014 0.0
C357 C 0.02754 0.52548 0.38129 0.0
C358 C 0.07787 0.56862 0.32507 0.0
C359 C 0.97949 0.48915 0.32411 0.0
C360 C 0.03126 0.53141 0.26766 0.0
H361 H 0.0925 0.57537 0.37161 0.0
H362 H 0.06545 0.55145 0.4025 0.0
H363 H 0.98747 0.49788 0.40189 0.0
H364 H 0.96145 0.47791 0.37028 0.0
H365 H 0.96743 0.48058 0.27749 0.0
H366 H 0.99562 0.50362 0.24646 0.0
H367 H 0.06865 0.56116 0.24718 0.0
H368 H 0.09424 0.58131 0.2789 0.0
H369 H 0.09159 0.48106 0.2859 0.0
H370 H 0.08206 0.47174 0.35938 0.0
H371 H 0.96921 0.57989 0.28839 0.0
H372 H 0.97355 0.58104 0.36207 0.0
C373 C 0.05918 0.56286 0.76499 0.0
C374 C 0.06752 0.56917 0.78617 0.0
C375 C 0.05301 0.55764 0.80252 0.0
C376 C 0.03674 0.54497 0.79046 0.0
N377 N 0.04026 0.54746 0.76737 0.0
Co378 Co 0.01958 0.53302 0.74342 0.0
N379 N 0.99735 0.51666 0.76751 0.0
C380 C 0.99931 0.51738 0.79059 0.0
C381 C 0.98262 0.5035 0.80274 0.0
C382 C 0.96954 0.49299 0.78647 0.0
C383 C 0.97899 0.50116 0.76525 0.0
N384 N 0.99843 0.51898 0.71951 0.0
C385 C 0.97959 0.50354 0.72184 0.0
C386 C 0.97013 0.49805 0.70072 0.0
C387 C 0.98386 0.51018 0.68442 0.0
C388 C 1.00076 0.52239 0.69647 0.0
N389 N 0.04231 0.54894 0.71934 0.0
C390 C 0.04102 0.5476 0.69628 0.0
C391 C 0.0588 0.56064 0.68407 0.0
C392 C 0.0721 0.57109 0.70026 0.0
C393 C 0.06163 0.56378 0.72152 0.0
N394 N 0.04566 0.51124 0.74329 0.0
C395 C 0.07907 0.47798 0.74381 0.0
C396 C 0.06977 0.48612 0.72315 0.0
C397 C 0.05331 0.50264 0.72327 0.0
C398 C 0.07205 0.48728 0.76407 0.0
C399 C 0.05556 0.50371 0.76343 0.0
N400 N 0.99348 0.55485 0.74361 0.0
C401 C 0.97091 0.58183 0.72394 0.0
C402 C 0.96026 0.58821 0.74474 0.0
C403 C 0.96578 0.57708 0.76482 0.0
C404 C 0.98219 0.56065 0.76387 0.0
C405 C 0.98723 0.56523 0.72376 0.0
H406 H 0.9857 0.55306 0.77987 0.0
H407 H 0.99492 0.56131 0.70737 0.0
H408 H 0.04666 0.50798 0.70699 0.0
H409 H 0.05086 0.50989 0.77952 0.0
C410 C 0.0177 0.5308 0.80031 0.0
C411 C 0.06949 0.57227 0.74318 0.0
C412 C 0.97098 0.493 0.74348 0.0
C413 C 0.02112 0.53544 0.68662 0.0
H414 H 0.08233 0.58107 0.78944 0.0
H415 H 0.05393 0.55857 0.82099 0.0
H416 H 0.98071 0.50098 0.82121 0.0
H417 H 0.95514 0.48041 0.78984 0.0
H418 H 0.95538 0.48611 0.69744 0.0
H419 H 0.98249 0.50959 0.66594 0.0
H420 H 0.06109 0.56283 0.66557 0.0
H421 H 0.08723 0.58315 0.69677 0.0
H422 H 0.07456 0.47949 0.70695 0.0
H423 H 0.07926 0.48196 0.78049 0.0
H424 H 0.96729 0.5899 0.70786 0.0
H425 H 0.95747 0.58098 0.78135 0.0
C426 C 0.28434 0.99979 0.56474 0.0
C427 C 0.30886 0.99402 0.57274 0.0
C428 C 0.32814 1.00599 0.56107 0.0
C429 C 0.31441 0.0183 0.54661 0.0
N430 N 0.28746 1.01508 0.54846 0.0
Co431 Co 0.26005 0.02915 0.5299 0.0
N432 N 0.2886 0.0456 0.51145 0.0
C433 C 0.31544 0.04453 0.5132 0.0
C434 C 0.33004 0.05776 0.49843 0.0
C435 C 0.31144 0.0681 0.4867 0.0
C436 C 0.28646 0.06061 0.49513 0.0
N437 N 0.23263 0.04338 0.51152 0.0
C438 C 0.23575 0.05878 0.49537 0.0
C439 C 0.21119 0.06493 0.48784 0.0
C440 C 0.19191 0.05308 0.49962 0.0
C441 C 0.20566 0.04048 0.51372 0.0
N442 N 0.23151 1.01256 0.54817 0.0
C443 C 0.20467 1.01334 0.54614 0.0
C444 C 0.19009 0.99988 0.56063 0.0
C445 C 0.2087 0.98963 0.57244 0.0
C446 C 0.23368 0.99743 0.56435 0.0
N447 N 0.25897 0.05071 0.55272 0.0
C448 C 0.25732 0.0832 0.58265 0.0
C449 C 0.23378 0.07317 0.57586 0.0
C450 C 0.23506 0.05713 0.56109 0.0
C451 C 0.28174 0.07627 0.57464 0.0
C452 C 0.2821 0.06014 0.55989 0.0
N453 N 0.26112 1.00762 0.50706 0.0
C454 C 0.23822 0.98364 0.48318 0.0
C455 C 0.26251 0.97597 0.47594 0.0
C456 C 0.2861 0.98461 0.48446 0.0
C457 C 0.28496 1.00025 0.49979 0.0
C458 C 0.23799 0.9993 0.49855 0.0
H459 H 0.30367 1.00601 0.50566 0.0
H460 H 0.21881 1.00438 0.50335 0.0
H461 H 0.21637 0.05031 0.55654 0.0
H462 H 0.30136 0.05579 0.55424 0.0
C463 C 0.3263 0.03187 0.52989 0.0
C464 C 0.2588 0.98958 0.57222 0.0
C465 C 0.26137 0.06866 0.48746 0.0
C466 C 0.19379 0.02646 0.52995 0.0
H467 H 0.31254 0.98205 0.58527 0.0
H468 H 0.34964 1.00534 0.56243 0.0
H469 H 0.35164 0.05996 0.49678 0.0
H470 H 0.31576 0.08004 0.47368 0.0
H471 H 0.20748 0.07704 0.47549 0.0
H472 H 0.1704 0.0539 0.49848 0.0
H473 H 0.1685 0.99755 0.56216 0.0
H474 H 0.20439 0.97759 0.58535 0.0
H475 H 0.21433 0.07762 0.58193 0.0
H476 H 0.30059 0.08354 0.57923 0.0
H477 H 0.21936 0.97775 0.47685 0.0
H478 H 0.30546 0.97913 0.47967 0.0
C479 C 0.48251 0.80703 0.06543 0.0
C480 C 0.47406 0.82539 0.07271 0.0
C481 C 0.48853 0.84008 0.05997 0.0
C482 C 0.50489 0.8299 0.04569 0.0
N483 N 0.5016 0.80955 0.04834 0.0
Co484 Co 0.52199 0.78899 0.03159 0.0
N485 N 0.54412 0.81065 0.01356 0.0
C486 C 0.54264 0.83087 0.01511 0.0
C487 C 0.55995 0.84196 1.00025 0.0
C488 C 0.57309 0.82803 0.98826 0.0
C489 C 0.56291 0.80916 0.99648 0.0
N490 N 0.54254 0.76845 0.01496 0.0
C491 C 0.56165 0.77096 0.99786 0.0
C492 C 0.57017 0.75256 0.99072 0.0
C493 C 0.55589 0.7379 1.00365 0.0
C494 C 0.53948 0.74811 0.01787 0.0
N495 N 0.49971 0.76735 0.04948 0.0
C496 C 0.50106 0.74714 0.04781 0.0
C497 C 0.48358 0.73605 0.06253 0.0
C498 C 0.47037 0.74998 0.07449 0.0
C499 C 0.48063 0.76884 0.06632 0.0
N500 N 0.49524 0.78902 1.00689 0.0
C501 C 0.4602 0.78941 0.96965 0.0
C502 C 0.46831 0.77122 0.97955 0.0
C503 C 0.48566 0.77137 0.99799 0.0
C504 C 0.46932 0.80734 0.97922 0.0
C505 C 0.48656 0.8068 0.99767 0.0
N506 N 0.54879 0.78898 0.05626 0.0
C507 C 0.57477 0.77103 0.08428 0.0
C508 C 0.58523 0.78917 0.09251 0.0
C509 C 0.57734 0.80718 0.08206 0.0
C510 C 0.55932 0.80675 0.06417 0.0
C511 C 0.55683 0.77128 0.06626 0.0
H512 H 0.554 0.82102 0.05722 0.0
H513 H 0.54965 0.75695 0.0608 0.0
H514 H 0.49136 0.75702 1.00452 0.0
H515 H 0.49282 0.82102 1.00399 0.0
C516 C 0.52415 0.83899 0.03016 0.0
C517 C 0.47222 0.78765 0.07569 0.0
C518 C 0.5714 0.79033 0.98716 0.0
C519 C 0.51991 0.73905 0.0331 0.0
H520 H 0.45922 0.8279 0.08608 0.0
H521 H 0.48755 0.85626 0.06123 0.0
H522 H 0.56242 0.85824 0.99814 0.0
H523 H 0.58823 0.83137 0.97476 0.0
H524 H 0.5848 0.74997 0.97721 0.0
H525 H 0.55685 0.72172 1.00243 0.0
H526 H 0.48114 0.71977 0.06466 0.0
H527 H 0.45522 0.74663 0.08797 0.0
H528 H 0.46191 0.7569 0.97273 0.0
H529 H 0.46319 0.82183 0.97253 0.0
H530 H 0.58052 0.75664 0.09158 0.0
H531 H 0.58457 0.82166 0.08795 0.0
C532 C 0.81457 1.00322 0.57313 0.0
C533 C 0.83917 0.99702 0.58052 0.0
C534 C 0.8584 1.00898 0.56882 0.0
C535 C 0.84458 0.02167 0.55488 0.0
N536 N 0.81762 0.01873 0.55712 0.0
Co537 Co 0.79014 0.03299 0.53883 0.0
N538 N 0.81861 0.04979 0.52065 0.0
C539 C 0.84544 0.04932 0.52302 0.0
C540 C 0.85997 0.06323 0.50906 0.0
C541 C 0.84134 0.07341 0.4972 0.0
C542 C 0.81638 0.06499 0.50454 0.0
N543 N 0.76268 0.04701 0.52033 0.0
C544 C 0.76573 0.06223 0.50398 0.0
C545 C 0.74126 0.0675 0.49543 0.0
C546 C 0.72202 0.05549 0.50709 0.0
C547 C 0.73576 0.04352 0.52193 0.0
N548 N 0.76166 0.01644 0.55723 0.0
C549 C 0.73481 0.0175 0.55555 0.0
C550 C 0.72026 1.00424 0.57033 0.0
C551 C 0.73891 0.99392 0.58201 0.0
C552 C 0.76386 1.00141 0.57354 0.0
N553 N 0.78889 0.05442 0.56179 0.0
C554 C 0.78715 0.08607 0.59289 0.0
C555 C 0.7637 0.07763 0.58391 0.0
C556 C 0.76501 0.06198 0.56863 0.0
C557 C 0.81148 0.07816 0.58616 0.0
C558 C 0.81189 0.0625 0.57079 0.0
N559 N 0.79139 1.01155 0.5159 0.0
C560 C 0.76886 0.98576 0.49418 0.0
C561 C 0.79334 0.97918 0.48584 0.0
C562 C 0.81678 0.98952 0.49235 0.0
C563 C 0.81536 1.00551 0.50719 0.0
C564 C 0.76835 1.00182 0.50899 0.0
H565 H 0.83398 1.01261 0.51153 0.0
H566 H 0.74906 1.00586 0.5149 0.0
H567 H 0.7464 0.05638 0.5624 0.0
H568 H 0.83109 0.05724 0.56638 0.0
C569 C 0.85636 0.03601 0.53898 0.0
C570 C 0.78898 0.99334 0.58111 0.0
C571 C 0.79117 0.07253 0.49642 0.0
C572 C 0.7239 0.03 0.53872 0.0
H573 H 0.84293 0.98485 0.59277 0.0
H574 H 0.87992 1.00822 0.56995 0.0
H575 H 0.88152 0.06594 0.50799 0.0
H576 H 0.8457 0.08589 0.48488 0.0
H577 H 0.73766 0.07909 0.48239 0.0
H578 H 0.70052 0.05579 0.50537 0.0
H579 H 0.69867 1.00199 0.57198 0.0
H580 H 0.73463 0.98195 0.59501 0.0
H581 H 0.74432 0.0833 0.58829 0.0
H582 H 0.83023 0.08389 0.59285 0.0
H583 H 0.75009 0.97823 0.48983 0.0
H584 H 0.83626 0.98533 0.48603 0.0
C585 C 0.48684 0.291 0.07097 0.0
C586 C 0.47783 0.30935 0.07785 0.0
C587 C 0.49217 0.32407 0.06506 0.0
C588 C 0.50896 0.31393 0.0511 0.0
N589 N 0.50612 0.2936 0.05404 0.0
Co590 Co 0.52671 0.27315 0.03731 0.0
N591 N 0.54899 0.29489 0.01954 0.0
C592 C 0.54747 0.31508 0.02125 0.0
C593 C 0.56487 0.32628 1.00658 0.0
C594 C 0.57827 0.31245 0.99466 0.0
C595 C 0.56828 0.29351 1.00284 0.0
N596 N 0.54712 0.25269 0.0204 0.0
C597 C 0.56636 0.25529 1.00343 0.0
C598 C 0.57496 0.23695 0.9962 0.0
C599 C 0.5604 0.22221 1.00878 0.0
C600 C 0.54388 0.23234 0.02298 0.0
N601 N 0.50461 0.2514 0.05525 0.0
C602 C 0.50642 0.2312 0.05382 0.0
C603 C 0.48936 0.22002 0.06879 0.0
C604 C 0.47596 0.23386 0.08069 0.0
C605 C 0.48557 0.2528 0.07217 0.0
N606 N 0.4999 0.27319 1.01265 0.0
C607 C 0.46366 0.27297 0.97624 0.0
C608 C 0.47134 0.25496 0.98687 0.0
C609 C 0.48926 0.25542 1.00483 0.0
C610 C 0.47417 0.29112 0.98441 0.0
C611 C 0.492 0.29088 1.00252 0.0
N612 N 0.55352 0.2731 0.06196 0.0
C613 C 0.58067 0.25485 0.08876 0.0
C614 C 0.58984 0.27278 0.09831 0.0
C615 C 0.58074 0.29092 0.0891 0.0
C616 C 0.56283 0.29074 0.07105 0.0
C617 C 0.56275 0.25535 0.07079 0.0
H618 H 0.5567 0.30506 0.06483 0.0
H619 H 0.55646 0.24113 0.06451 0.0
H620 H 0.49442 0.24115 1.01193 0.0
H621 H 0.49923 0.30522 1.00791 0.0
C622 C 0.52849 0.32308 0.03592 0.0
C623 C 0.47669 0.2716 0.08131 0.0
C624 C 0.57704 0.27473 0.99355 0.0
C625 C 0.52485 0.22318 0.03864 0.0
H626 H 0.46265 0.31183 0.09094 0.0
H627 H 0.49084 0.34024 0.0661 0.0
H628 H 0.56711 0.34257 1.00445 0.0
H629 H 0.59335 0.31595 0.98117 0.0
H630 H 0.59011 0.23447 0.98308 0.0
H631 H 0.56157 0.20604 1.0076 0.0
H632 H 0.48726 0.20373 0.07106 0.0
H633 H 0.46109 0.23037 0.09435 0.0
H634 H 0.46404 0.24047 0.98105 0.0
H635 H 0.46857 0.3055 0.977 0.0
H636 H 0.58682 0.24035 0.09541 0.0
H637 H 0.58752 0.30526 0.09564 0.0
H638 H 0.18239 0.36624 0.34756 0.0
H639 H 0.1921 0.38165 0.27489 0.0
H640 H 0.15269 0.39424 0.35183 0.0
H641 H 0.1632 0.4098 0.27924 0.0
H642 H 0.08851 0.44504 0.28989 0.0
H643 H 0.11628 0.41606 0.28716 0.0
H644 H 0.15447 0.43166 0.34998 0.0
H645 H 0.12679 0.46089 0.35264 0.0
C646 C 0.17814 0.37555 0.3325 0.0
C647 C 0.18974 0.37172 0.3109 0.0
C648 C 0.16134 0.39171 0.33498 0.0
C649 C 0.15553 0.40429 0.31588 0.0
C650 C 0.16697 0.40032 0.29429 0.0
C651 C 0.18383 0.38429 0.29184 0.0
C652 C 0.10299 0.44246 0.30304 0.0
C653 C 0.10553 0.45551 0.32137 0.0
C654 C 0.11889 0.42577 0.30149 0.0
C655 C 0.13776 0.42157 0.31826 0.0
C656 C 0.13995 0.43433 0.33688 0.0
C657 C 0.12407 0.45111 0.3384 0.0
H658 H 0.14202 0.69506 0.73002 0.0
H659 H 0.19982 0.65988 0.76556 0.0
H660 H 0.11266 0.66475 0.72764 0.0
H661 H 0.17063 0.62967 0.76302 0.0
H662 H 0.12351 0.57579 0.7348 0.0
H663 H 0.15302 0.60638 0.73533 0.0
H664 H 0.08471 0.64104 0.7525 0.0
H665 H 0.05538 0.61039 0.75156 0.0
C666 C 0.14845 0.68091 0.73741 0.0
C667 C 0.1734 0.67998 0.74791 0.0
C668 C 0.1316 0.66351 0.73604 0.0
C669 C 0.13928 0.64473 0.74509 0.0
C670 C 0.16425 0.64379 0.7555 0.0
C671 C 0.18104 0.66116 0.75693 0.0
C672 C 0.11496 0.59002 0.73858 0.0
C673 C 0.08733 0.5909 0.74308 0.0
C674 C 0.13178 0.6075 0.73902 0.0
C675 C 0.12126 0.62621 0.74399 0.0
C676 C 0.09345 0.62698 0.74834 0.0
C677 C 0.07668 0.60948 0.74794 0.0
H678 H 0.83655 0.66365 0.33152 0.0
H679 H 0.90421 0.70291 0.30798 0.0
H680 H 0.86567 0.63531 0.33454 0.0
H681 H 0.93358 0.67475 0.31194 0.0
H682 H 0.97085 0.6154 0.29401 0.0
H683 H 0.94251 0.6442 0.293 0.0
H684 H 0.90141 0.62114 0.35571 0.0
H685 H 0.92898 0.59179 0.35614 0.0
C686 C 0.85768 0.66628 0.3271 0.0
C687 C 0.86795 0.68558 0.31934 0.0
C688 C 0.87447 0.65004 0.3291 0.0
C689 C 0.90202 0.65266 0.3234 0.0
C690 C 0.91241 0.67208 0.31617 0.0
C691 C 0.89561 0.68832 0.31418 0.0
C692 C 0.9556 0.61632 0.30748 0.0
C693 C 0.95215 0.60112 0.32507 0.0
C694 C 0.93956 0.63304 0.30708 0.0
C695 C 0.91964 0.63509 0.3243 0.0
C696 C 0.91634 0.61999 0.34203 0.0
C697 C 0.93239 0.60324 0.34241 0.0
H698 H 0.85774 0.38956 0.76959 0.0
H699 H 0.90759 0.37301 0.71217 0.0
H700 H 0.88348 0.4216 0.77083 0.0
H701 H 0.93232 0.40547 0.71261 0.0
H702 H 0.98964 0.45629 0.73461 0.0
H703 H 0.96423 0.42383 0.7342 0.0
H704 H 0.89138 0.45357 0.75065 0.0
H705 H 0.91725 0.48585 0.75165 0.0
C706 C 0.87418 0.39271 0.75722 0.0
C707 C 0.88053 0.37857 0.7408 0.0
C708 C 0.88875 0.41125 0.75774 0.0
C709 C 0.91004 0.41623 0.7418 0.0
C710 C 0.91632 0.40212 0.72535 0.0
C711 C 0.90183 0.38355 0.72489 0.0
C712 C 0.9682 0.45574 0.73817 0.0
C713 C 0.95529 0.47338 0.74324 0.0
C714 C 0.95357 0.43722 0.7378 0.0
C715 C 0.92566 0.43599 0.74236 0.0
C716 C 0.91285 0.45383 0.74739 0.0
C717 C 0.92754 0.47233 0.74783 0.0
H718 H 0.24451 0.19167 0.43455 0.0
H719 H 0.27163 0.16094 0.37487 0.0
H720 H 0.24633 0.16051 0.45789 0.0
H721 H 0.27472 0.12995 0.39851 0.0
H722 H 0.24776 0.0727 0.44247 0.0
H723 H 0.24707 0.10384 0.41838 0.0
H724 H 0.27672 0.13794 0.47476 0.0
H725 H 0.27645 0.10679 0.49886 0.0
C726 C 0.25088 0.17827 0.42637 0.0
C727 C 0.25777 0.17888 0.40273 0.0
C728 C 0.25228 0.16041 0.43987 0.0
C729 C 0.26072 0.14263 0.43017 0.0
C730 C 0.26784 0.14326 0.40656 0.0
C731 C 0.26639 0.16113 0.39303 0.0
C732 C 0.25408 0.08692 0.44958 0.0
C733 C 0.26193 0.08748 0.47248 0.0
C734 C 0.2539 0.10474 0.43579 0.0
C735 C 0.26174 0.12351 0.4446 0.0
C736 C 0.27009 0.12388 0.46748 0.0
C737 C 0.27015 0.10606 0.48126 0.0
H738 H 0.32796 0.78803 0.87455 0.0
H739 H 0.3991 0.80078 0.8314 0.0
H740 H 0.35572 0.78516 0.90825 0.0
H741 H 0.42679 0.79787 0.86498 0.0
H742 H 0.46466 0.81553 0.93195 0.0
H743 H 0.43646 0.81664 0.89863 0.0
H744 H 0.389 0.76482 0.92699 0.0
H745 H 0.41675 0.76415 0.96086 0.0
C746 C 0.34953 0.78997 0.8722 0.0
C747 C 0.36126 0.7948 0.85027 0.0
C748 C 0.36546 0.78832 0.89153 0.0
C749 C 0.39351 0.79145 0.88939 0.0
C750 C 0.40524 0.79579 0.86736 0.0
C751 C 0.38934 0.79745 0.84808 0.0
C752 C 0.44805 0.80448 0.93124 0.0
C753 C 0.44294 0.78981 0.94918 0.0
C754 C 0.43206 0.80496 0.91195 0.0
C755 C 0.41049 0.79076 0.91003 0.0
C756 C 0.40531 0.77608 0.92797 0.0
C757 C 0.42139 0.77557 0.94729 0.0
H758 H 0.8081 0.85856 0.43512 0.0
H759 H 0.78919 0.89422 0.3745 0.0
H760 H 0.80607 0.88836 0.45796 0.0
H761 H 0.78711 0.92411 0.39743 0.0
H762 H 0.75999 0.9688 0.45101 0.0
H763 H 0.76105 0.93909 0.42774 0.0
H764 H 0.83079 0.91992 0.46321 0.0
H765 H 0.82911 0.94914 0.48702 0.0
C766 C 0.80372 0.87279 0.42659 0.0
C767 C 0.79899 0.87395 0.40289 0.0
C768 C 0.80256 0.88992 0.43972 0.0
C769 C 0.7966 0.90872 0.42955 0.0
C770 C 0.79147 0.90985 0.40591 0.0
C771 C 0.79266 0.89269 0.39274 0.0
C772 C 0.77543 0.95817 0.45397 0.0
C773 C 0.79444 0.96141 0.47097 0.0
C774 C 0.77622 0.94123 0.44043 0.0
C775 C 0.79597 0.92703 0.44359 0.0
C776 C 0.81507 0.93037 0.46047 0.0
C777 C 0.81432 0.9473 0.47395 0.0
H778 H 0.70406 0.31156 0.89383 0.0
H779 H 0.66849 0.25773 0.86567 0.0
H780 H 0.67278 0.30761 0.92669 0.0
H781 H 0.63777 0.25331 0.89915 0.0
H782 H 0.56732 0.26639 0.94912 0.0
H783 H 0.59912 0.2687 0.91612 0.0
H784 H 0.66269 0.28658 0.96091 0.0
H785 H 0.63059 0.28455 0.99365 0.0
C786 C 0.68955 0.29886 0.89462 0.0
C787 C 0.68873 0.28505 0.87696 0.0
C788 C 0.67181 0.29645 0.91367 0.0
C789 C 0.65273 0.28012 0.91565 0.0
C790 C 0.65202 0.26618 0.89809 0.0
C791 C 0.66983 0.26859 0.879 0.0
C792 C 0.58815 0.27073 0.95176 0.0
C793 C 0.59663 0.27541 0.97373 0.0
C794 C 0.60639 0.27195 0.93297 0.0
C795 C 0.6335 0.2779 0.93581 0.0
C796 C 0.64193 0.28226 0.958 0.0
C797 C 0.62367 0.28101 0.97677 0.0
H798 H 0.28668 0.89028 0.67119 0.0
H799 H 0.21228 0.87332 0.63952 0.0
H800 H 0.28991 0.9217 0.64763 0.0
H801 H 0.21567 0.90455 0.61589 0.0
H802 H 0.24511 0.95153 0.55983 0.0
H803 H 0.24278 0.92029 0.58392 0.0
H804 H 0.26826 0.95398 0.64198 0.0
H805 H 0.27073 0.98516 0.61761 0.0
C806 C 0.27089 0.89329 0.65937 0.0
C807 C 0.24929 0.87912 0.65722 0.0
C808 C 0.27276 0.91132 0.64583 0.0
C809 C 0.25314 0.91562 0.62974 0.0
C810 C 0.23143 0.90157 0.62777 0.0
C811 C 0.22951 0.88361 0.64134 0.0
C812 C 0.25027 0.95214 0.57774 0.0
C813 C 0.25821 0.97061 0.58692 0.0
C814 C 0.2488 0.93433 0.59158 0.0
C815 C 0.25526 0.9346 0.61494 0.0
C816 C 0.26343 0.95317 0.62403 0.0
C817 C 0.26478 0.97101 0.61017 0.0
H818 H 0.68318 0.76404 0.21217 0.0
H819 H 0.68485 0.82904 0.20275 0.0
H820 H 0.65653 0.76088 0.17792 0.0
H821 H 0.65737 0.8259 0.16919 0.0
H822 H 0.62999 0.81398 0.09734 0.0
H823 H 0.65913 0.81562 0.13008 0.0
H824 H 0.61175 0.76665 0.16485 0.0
H825 H 0.58265 0.76496 0.13201 0.0
C826 C 0.67795 0.77766 0.20278 0.0
C827 C 0.68615 0.7968 0.21031 0.0
C828 C 0.66241 0.77585 0.18327 0.0
C829 C 0.65473 0.79313 0.17076 0.0
C830 C 0.66313 0.81225 0.17821 0.0
C831 C 0.67863 0.81405 0.19768 0.0
C832 C 0.62572 0.8036 0.112 0.0
C833 C 0.60385 0.78942 0.11206 0.0
C834 C 0.64244 0.80455 0.1308 0.0
C835 C 0.63773 0.79136 0.15023 0.0
C836 C 0.6162 0.77689 0.1501 0.0
C837 C 0.59948 0.77592 0.13125 0.0
H838 H 0.82 0.18292 0.68771 0.0
H839 H 0.7346 0.18223 0.67797 0.0
H840 H 0.8238 0.15558 0.66114 0.0
H841 H 0.73838 0.15495 0.65159 0.0
H842 H 0.74994 0.09131 0.62747 0.0
H843 H 0.74748 0.11928 0.65304 0.0
H844 H 0.81971 0.14723 0.62071 0.0
H845 H 0.8221 0.11926 0.59493 0.0
C846 C 0.80208 0.17712 0.67972 0.0
C847 C 0.77696 0.18471 0.68518 0.0
C848 C 0.80426 0.16142 0.66449 0.0
C849 C 0.78136 0.1529 0.65437 0.0
C850 C 0.75636 0.16082 0.65944 0.0
C851 C 0.75419 0.1765 0.67459 0.0
C852 C 0.76519 0.10348 0.62562 0.0
C853 C 0.78615 0.10299 0.60899 0.0
C854 C 0.76378 0.11956 0.64032 0.0
C855 C 0.78331 0.13562 0.63888 0.0
C856 C 0.80448 0.13503 0.62248 0.0
C857 C 0.80586 0.11895 0.60771 0.0
H858 H 0.35482 0.23515 0.18613 0.0
H859 H 0.39078 0.29015 0.21122 0.0
H860 H 0.38406 0.2389 0.15182 0.0
H861 H 0.41942 0.2943 0.17646 0.0
H862 H 0.48805 0.28077 0.12513 0.0
H863 H 0.4576 0.27873 0.15901 0.0
H864 H 0.39242 0.25935 0.11665 0.0
H865 H 0.42321 0.26113 0.08297 0.0
C866 C 0.36893 0.24808 0.18431 0.0
C867 C 0.37053 0.26228 0.20154 0.0
C868 C 0.3855 0.25036 0.16448 0.0
C869 C 0.40416 0.26689 0.16134 0.0
C870 C 0.4055 0.28126 0.17842 0.0
C871 C 0.38886 0.27901 0.19824 0.0
C872 C 0.46716 0.27616 0.1232 0.0
C873 C 0.45786 0.27099 0.10164 0.0
C874 C 0.44968 0.27509 0.1425 0.0
C875 C 0.42252 0.26883 0.1406 0.0
C876 C 0.41325 0.26395 0.11882 0.0
C877 C 0.43076 0.26504 0.09953 0.0
H878 H 0.86644 0.69557 0.71995 0.0
H879 H 0.85746 0.6801 0.79265 0.0
H880 H 0.89623 0.66765 0.71544 0.0
H881 H 0.88645 0.65204 0.78806 0.0
H882 H 0.9611 0.617 0.77708 0.0
H883 H 0.93334 0.64598 0.77984 0.0
H884 H 0.89475 0.6302 0.71727 0.0
H885 H 0.92245 0.60096 0.71456 0.0
C886 C 0.87086 0.68627 0.73496 0.0
C887 C 0.85945 0.69005 0.75665 0.0
C888 C 0.88772 0.67015 0.73234 0.0
C889 C 0.89377 0.65758 0.75139 0.0
C890 C 0.8825 0.66151 0.77306 0.0
C891 C 0.86559 0.67749 0.77564 0.0
C892 C 0.94655 0.61955 0.76398 0.0
C893 C 0.94386 0.60643 0.74574 0.0
C894 C 0.93065 0.63623 0.76555 0.0
C895 C 0.91163 0.64036 0.74888 0.0
C896 C 0.90936 0.62757 0.7303 0.0
C897 C 0.92525 0.6108 0.72876 0.0
H898 H 0.8966 0.37009 0.34761 0.0
H899 H 0.86643 0.3949 0.28423 0.0
H900 H 0.92391 0.40123 0.35177 0.0
H901 H 0.89434 0.42558 0.28794 0.0
H902 H 0.92716 0.48589 0.31218 0.0
H903 H 0.89826 0.45509 0.31075 0.0
H904 H 0.96331 0.41969 0.33428 0.0
H905 H 0.99188 0.45066 0.33595 0.0
C906 C 0.89574 0.38217 0.33459 0.0
C907 C 0.87936 0.3799 0.31553 0.0
C908 C 0.9116 0.39996 0.33686 0.0
C909 C 0.91137 0.41596 0.32019 0.0
C910 C 0.89484 0.41371 0.30125 0.0
C911 C 0.87907 0.39595 0.29897 0.0
C912 C 0.9351 0.47148 0.31709 0.0
C913 C 0.96166 0.4705 0.32401 0.0
C914 C 0.91868 0.45384 0.31618 0.0
C915 C 0.92848 0.43484 0.32226 0.0
C916 C 0.955 0.43403 0.32968 0.0
C917 C 0.97141 0.45169 0.33054 0.0
H918 H 0.17688 0.37415 0.71683 0.0
H919 H 0.18008 0.38285 0.78978 0.0
H920 H 0.14664 0.40199 0.71293 0.0
H921 H 0.15066 0.41085 0.78581 0.0
H922 H 0.07633 0.44627 0.77562 0.0
H923 H 0.10433 0.41729 0.77778 0.0
H924 H 0.14721 0.43913 0.71546 0.0
H925 H 0.11923 0.46833 0.71334 0.0
C926 C 0.17107 0.38193 0.73203 0.0
C927 C 0.18102 0.3763 0.7536 0.0
C928 C 0.15396 0.39801 0.72976 0.0
C929 C 0.14619 0.40868 0.74905 0.0
C930 C 0.15595 0.40286 0.77062 0.0
C931 C 0.1731 0.38692 0.77286 0.0
C932 C 0.09186 0.44504 0.76245 0.0
C933 C 0.09566 0.45983 0.74444 0.0
C934 C 0.1079 0.42836 0.76367 0.0
C935 C 0.12819 0.42593 0.74689 0.0
C936 C 0.13161 0.44042 0.72855 0.0
C937 C 0.11556 0.45718 0.72735 0.0
H938 H 0.18449 0.67028 0.35888 0.0
H939 H 0.15044 0.68953 0.29477 0.0
H940 H 0.1589 0.63803 0.3581 0.0
H941 H 0.12538 0.65708 0.29369 0.0
H942 H 0.06161 0.60619 0.31385 0.0
H943 H 0.08766 0.63843 0.31413 0.0
H944 H 0.15654 0.60692 0.33672 0.0
H945 H 0.13021 0.57475 0.33648 0.0
C946 C 0.17153 0.66764 0.34462 0.0
C947 C 0.16949 0.68255 0.32692 0.0
C948 C 0.15707 0.64906 0.34405 0.0
C949 C 0.14005 0.64494 0.32584 0.0
C950 C 0.13808 0.65981 0.30809 0.0
C951 C 0.15268 0.67835 0.30859 0.0
C952 C 0.08233 0.60627 0.31885 0.0
C953 C 0.09393 0.58814 0.32532 0.0
C954 C 0.09731 0.62466 0.3189 0.0
C955 C 0.12422 0.6253 0.32548 0.0
C956 C 0.13579 0.60702 0.33186 0.0
C957 C 0.12082 0.58862 0.33167 0.0
H958 H 0.77869 0.9013 0.69395 0.0
H959 H 0.80574 0.87039 0.63438 0.0
H960 H 0.77573 0.93225 0.67022 0.0
H961 H 0.80403 0.90151 0.61095 0.0
H962 H 0.77384 0.95518 0.56985 0.0
H963 H 0.77362 0.92407 0.59403 0.0
H964 H 0.80348 0.95829 0.65024 0.0
H965 H 0.80278 0.98938 0.62606 0.0
C966 C 0.78395 0.90106 0.6758 0.0
C967 C 0.7925 0.88327 0.66616 0.0
C968 C 0.78257 0.91891 0.66222 0.0
C969 C 0.78969 0.91948 0.63861 0.0
C970 C 0.79808 0.90165 0.62897 0.0
C971 C 0.79942 0.88382 0.64253 0.0
C972 C 0.78021 0.95594 0.58743 0.0
C973 C 0.78848 0.97454 0.59613 0.0
C974 C 0.78029 0.93815 0.60125 0.0
C975 C 0.7887 0.93857 0.62412 0.0
C976 C 0.7966 0.95736 0.63284 0.0
C977 C 0.79641 0.97515 0.61901 0.0
H978 H 0.68589 0.23245 0.21134 0.0
H979 H 0.68992 0.29729 0.21638 0.0
H980 H 0.65861 0.23574 0.1776 0.0
H981 H 0.66342 0.30065 0.18197 0.0
H982 H 0.58907 0.29577 0.13641 0.0
H983 H 0.61797 0.29396 0.16939 0.0
H984 H 0.66146 0.24718 0.1377 0.0
H985 H 0.63257 0.24897 0.10478 0.0
C986 C 0.68095 0.24744 0.20526 0.0
C987 C 0.69002 0.2646 0.21672 0.0
C988 C 0.66557 0.24934 0.18569 0.0
C989 C 0.65882 0.26847 0.17697 0.0
C990 C 0.66801 0.28567 0.18832 0.0
C991 C 0.68346 0.28376 0.20792 0.0
C992 C 0.60502 0.28528 0.13633 0.0
C993 C 0.60835 0.27243 0.11795 0.0
C994 C 0.62162 0.28424 0.15527 0.0
C995 C 0.64198 0.27033 0.15632 0.0
C996 C 0.64566 0.25779 0.13771 0.0
C997 C 0.62907 0.25883 0.1188 0.0
H998 H 0.29384 0.18877 0.66349 0.0
H999 H 0.20743 0.18123 0.66692 0.0
H1000 H 0.29611 0.15889 0.64059 0.0
H1001 H 0.20969 0.15141 0.6441 0.0
H1002 H 0.22216 0.11366 0.58113 0.0
H1003 H 0.22041 0.14269 0.60519 0.0
H1004 H 0.28859 0.12234 0.64199 0.0
H1005 H 0.29033 0.09318 0.61788 0.0
C1006 C 0.27533 0.18063 0.65959 0.0
C1007 C 0.25044 0.18754 0.66697 0.0
C1008 C 0.27663 0.16346 0.64644 0.0
C1009 C 0.25308 0.15276 0.64033 0.0
C1010 C 0.22823 0.15948 0.64806 0.0
C1011 C 0.22693 0.17662 0.66118 0.0
C1012 C 0.23661 0.1152 0.59451 0.0
C1013 C 0.25632 0.10095 0.59757 0.0
C1014 C 0.23561 0.1319 0.60834 0.0
C1015 C 0.25429 0.13488 0.62564 0.0
C1016 C 0.27408 0.12069 0.62866 0.0
C1017 C 0.27508 0.10395 0.61482 0.0
H1018 H 0.33981 0.79863 0.17524 0.0
H1019 H 0.39389 0.75886 0.20881 0.0
H1020 H 0.37099 0.803 0.14209 0.0
H1021 H 0.42463 0.76272 0.17543 0.0
H1022 H 0.48553 0.78878 0.1205 0.0
H1023 H 0.45527 0.78712 0.15455 0.0
H1024 H 0.38716 0.78312 0.11061 0.0
H1025 H 0.41766 0.7851 0.07671 0.0
C1026 C 0.35843 0.79094 0.17563 0.0
C1027 C 0.36429 0.77835 0.19469 0.0
C1028 C 0.37617 0.79326 0.15651 0.0
C1029 C 0.40028 0.78314 0.15601 0.0
C1030 C 0.40637 0.77088 0.17527 0.0
C1031 C 0.3886 0.76849 0.19433 0.0
C1032 C 0.46406 0.78762 0.11829 0.0
C1033 C 0.45374 0.78704 0.0962 0.0
C1034 C 0.44674 0.78657 0.13769 0.0
C1035 C 0.41874 0.78495 0.13534 0.0
C1036 C 0.40855 0.78461 0.11306 0.0
C1037 C 0.42591 0.78561 0.09368 0.0
H1038 H 0.78753 0.1638 0.38332 0.0
H1039 H 0.81042 0.19667 0.4427 0.0
H1040 H 0.78298 0.13259 0.40716 0.0
H1041 H 0.80706 0.16541 0.46624 0.0
H1042 H 0.77445 0.10937 0.50757 0.0
H1043 H 0.77543 0.14045 0.48327 0.0
H1044 H 0.80988 0.10875 0.42709 0.0
H1045 H 0.80804 0.07761 0.4514 0.0
C1046 C 0.79151 0.16441 0.40146 0.0
C1047 C 0.79941 0.18282 0.41102 0.0
C1048 C 0.78921 0.14645 0.4151 0.0
C1049 C 0.79471 0.14639 0.43867 0.0
C1050 C 0.80236 0.16484 0.44824 0.0
C1051 C 0.80464 0.18278 0.43463 0.0
C1052 C 0.78208 0.10915 0.48997 0.0
C1053 C 0.79132 0.09125 0.48131 0.0
C1054 C 0.78284 0.12693 0.47608 0.0
C1055 C 0.7929 0.12721 0.4532 0.0
C1056 C 0.80174 0.1091 0.44451 0.0
C1057 C 0.8009 0.09131 0.45841 0.0
H1058 H 0.3672 0.29814 0.8557 0.0
H1059 H 0.36481 0.23315 0.86541 0.0
H1060 H 0.39353 0.30125 0.89013 0.0
H1061 H 0.39199 0.23623 0.89916 0.0
H1062 H 0.41881 0.24828 0.97119 0.0
H1063 H 0.39001 0.24664 0.93822 0.0
H1064 H 0.43806 0.29531 0.90356 0.0
H1065 H 0.46681 0.297 0.93662 0.0
C1066 C 0.3722 0.28451 0.86519 0.0
C1067 C 0.3639 0.26539 0.85769 0.0
C1068 C 0.38757 0.2863 0.88481 0.0
C1069 C 0.39495 0.269 0.89747 0.0
C1070 C 0.38645 0.2499 0.89004 0.0
C1071 C 0.37113 0.24812 0.87046 0.0
C1072 C 0.4233 0.25859 0.95651 0.0
C1073 C 0.44525 0.2727 0.95654 0.0
C1074 C 0.40678 0.25765 0.93757 0.0
C1075 C 0.41177 0.27075 0.91811 0.0
C1076 C 0.43339 0.28514 0.91833 0.0
C1077 C 0.44991 0.28611 0.93731 0.0
H1078 H 0.25786 0.85924 0.41078 0.0
H1079 H 0.28083 0.90305 0.35587 0.0
H1080 H 0.25452 0.88647 0.43753 0.0
H1081 H 0.2774 0.93017 0.38247 0.0
H1082 H 0.29879 0.97129 0.44048 0.0
H1083 H 0.3006 0.94373 0.41432 0.0
H1084 H 0.22917 0.91528 0.44753 0.0
H1085 H 0.22801 0.94248 0.47441 0.0
C1086 C 0.2619 0.87468 0.40434 0.0
C1087 C 0.26986 0.87889 0.38118 0.0
C1088 C 0.25999 0.89032 0.41969 0.0
C1089 C 0.26593 0.91057 0.41226 0.0
C1090 C 0.27327 0.91476 0.38897 0.0
C1091 C 0.27521 0.89917 0.37368 0.0
C1092 C 0.28361 0.95908 0.44241 0.0
C1093 C 0.26328 0.95918 0.45965 0.0
C1094 C 0.28444 0.94335 0.42717 0.0
C1095 C 0.26496 0.92725 0.42868 0.0
C1096 C 0.24464 0.92731 0.44595 0.0
C1097 C 0.2438 0.94306 0.4612 0.0
H1098 H 0.69386 0.7738 0.87971 0.0
H1099 H 0.6522 0.82623 0.85691 0.0
H1100 H 0.6639 0.76971 0.91366 0.0
H1101 H 0.62316 0.82269 0.89125 0.0
H1102 H 0.55795 0.79955 0.94326 0.0
H1103 H 0.58708 0.80166 0.9086 0.0
H1104 H 0.65413 0.78532 0.94956 0.0
H1105 H 0.62457 0.78284 0.98405 0.0
C1106 C 0.67831 0.78444 0.88189 0.0
C1107 C 0.67554 0.80037 0.86552 0.0
C1108 C 0.66131 0.78223 0.90152 0.0
C1109 C 0.64107 0.79587 0.90527 0.0
C1110 C 0.63827 0.81174 0.88885 0.0
C1111 C 0.65521 0.81393 0.86926 0.0
C1112 C 0.57891 0.79633 0.94468 0.0
C1113 C 0.58914 0.791 0.96613 0.0
C1114 C 0.59565 0.79765 0.92493 0.0
C1115 C 0.62304 0.79374 0.92624 0.0
C1116 C 0.63312 0.7882 0.94782 0.0
C1117 C 0.61632 0.78686 0.96758 0.0
loop_
_geom_bond_atom_site_label_1
_geom_bond_atom_site_label_2
_geom_bond_distance
_geom_bond_site_symmetry_2
_ccdc_geom_bond_type
C0 C1 1.264 . S
C0 C5 1.479 . S
C0 C10 1.465 . S
C1 C0 1.264 . S
C1 C3 1.339 . S
C1 H28 0.931 . S
C2 C3 1.395 . S
C2 C4 1.320 . S
C3 C1 1.339 . S
C3 C2 1.395 . S
C3 H29 0.929 . S
C4 C2 1.320 . S
C4 C5 1.405 . S
C4 H30 0.930 . S
C5 C0 1.479 . S
C5 C4 1.405 . S
C5 H31 0.931 . S
U6 O7 2.454 . S
U6 O8 2.458 . S
U6 C9 2.984 . S
U6 C10 2.847 . S
U6 C23 2.882 . S
U6 O24 2.441 . S
U6 O25 2.420 . S
U6 O26 2.455 . S
U6 O27 2.449 . S
O7 U6 2.454 . S
O7 C9 1.353 . S
O8 U6 2.458 . S
O8 C9 1.286 . S
C9 U6 2.984 . S
C9 O7 1.353 . S
C9 O8 1.286 . S
C9 C11 1.363 . S
C10 C0 1.465 . S
C10 U6 2.847 . S
C10 O24 1.249 . S
C10 O25 1.202 . S
C11 C9 1.363 . S
C11 C13 1.408 . S
C11 C16 1.342 . S
C12 C13 1.310 . S
C12 C15 1.461 . S
C12 H32 0.932 . S
C13 C11 1.408 . S
C13 C12 1.310 . S
C13 H33 0.930 . S
C14 C15 1.474 . S
C14 C16 1.285 . S
C14 H34 0.929 . S
C15 C12 1.461 . S
C15 C14 1.474 . S
C16 C11 1.342 . S
C16 C14 1.285 . S
C16 H35 0.930 . S
C17 C20 1.424 . S
C17 C22 1.245 . S
C17 C23 1.428 . S
C18 C21 1.260 . S
C18 C22 1.477 . S
C18 H36 0.932 . S
C19 C20 1.384 . S
C19 C21 1.479 . S
C19 H37 0.929 . S
C20 C17 1.424 . S
C20 C19 1.384 . S
C20 H38 0.928 . S
C21 C18 1.260 . S
C21 C19 1.479 . S
C22 C17 1.245 . S
C22 C18 1.477 . S
C22 H39 0.932 . S
C23 U6 2.882 . S
C23 C17 1.428 . S
C23 O26 1.301 . S
C23 O27 1.282 . S
O24 U6 2.441 . S
O24 C10 1.249 . S
O25 U6 2.420 . S
O25 C10 1.202 . S
O26 U6 2.455 . S
O26 C23 1.301 . S
O27 U6 2.449 . S
O27 C23 1.282 . S
H28 C1 0.931 . S
H29 C3 0.929 . S
H30 C4 0.930 . S
H31 C5 0.931 . S
H32 C12 0.932 . S
H33 C13 0.930 . S
H34 C14 0.929 . S
H35 C16 0.930 . S
H36 C18 0.932 . S
H37 C19 0.929 . S
H38 C20 0.928 . S
H39 C22 0.932 . S
C40 C41 1.264 . S
C40 C45 1.479 . S
C40 C50 1.465 . S
C41 C40 1.264 . S
C41 C43 1.339 . S
C41 H68 0.931 . S
C42 C43 1.395 . S
C42 C44 1.320 . S
C43 C41 1.339 . S
C43 C42 1.395 . S
C43 H69 0.929 . S
C44 C42 1.320 . S
C44 C45 1.405 . S
C44 H70 0.930 . S
C45 C40 1.479 . S
C45 C44 1.405 . S
C45 H71 0.931 . S
U46 O47 2.454 . S
U46 O48 2.458 . S
U46 C49 2.984 . S
U46 C50 2.847 . S
U46 C63 2.882 . S
U46 O64 2.441 . S
U46 O65 2.420 . S
U46 O66 2.455 . S
U46 O67 2.449 . S
O47 U46 2.454 . S
O47 C49 1.353 . S
O48 U46 2.458 . S
O48 C49 1.286 . S
C49 U46 2.984 . S
C49 O47 1.353 . S
C49 O48 1.286 . S
C49 C51 1.363 . S
C50 C40 1.465 . S
C50 U46 2.847 . S
C50 O64 1.249 . S
C50 O65 1.202 . S
C51 C49 1.363 . S
C51 C53 1.408 . S
C51 C56 1.342 . S
C52 C53 1.310 . S
C52 C55 1.461 . S
C52 H72 0.932 . S
C53 C51 1.408 . S
C53 C52 1.310 . S
C53 H73 0.930 . S
C54 C55 1.474 . S
C54 C56 1.285 . S
C54 H74 0.929 . S
C55 C52 1.461 . S
C55 C54 1.474 . S
C56 C51 1.342 . S
C56 C54 1.285 . S
C56 H75 0.930 . S
C57 C60 1.424 . S
C57 C62 1.245 . S
C57 C63 1.428 . S
C58 C61 1.260 . S
C58 C62 1.477 . S
C58 H76 0.932 . S
C59 C60 1.384 . S
C59 C61 1.479 . S
C59 H77 0.929 . S
C60 C57 1.424 . S
C60 C59 1.384 . S
C60 H78 0.928 . S
C61 C58 1.260 . S
C61 C59 1.479 . S
C62 C57 1.245 . S
C62 C58 1.477 . S
C62 H79 0.932 . S
C63 U46 2.882 . S
C63 C57 1.428 . S
C63 O66 1.301 . S
C63 O67 1.282 . S
O64 U46 2.441 . S
O64 C50 1.249 . S
O65 U46 2.420 . S
O65 C50 1.202 . S
O66 U46 2.455 . S
O66 C63 1.301 . S
O67 U46 2.449 . S
O67 C63 1.282 . S
H68 C41 0.931 . S
H69 C43 0.929 . S
H70 C44 0.930 . S
H71 C45 0.931 . S
H72 C52 0.932 . S
H73 C53 0.930 . S
H74 C54 0.929 . S
H75 C56 0.930 . S
H76 C58 0.932 . S
H77 C59 0.929 . S
H78 C60 0.928 . S
H79 C62 0.932 . S
C80 C81 1.264 . S
C80 C85 1.479 . S
C80 C90 1.465 . S
C81 C80 1.264 . S
C81 C83 1.339 . S
C81 H108 0.931 . S
C82 C83 1.395 . S
C82 C84 1.320 . S
C83 C81 1.339 . S
C83 C82 1.395 . S
C83 H109 0.929 . S
C84 C82 1.320 . S
C84 C85 1.405 . S
C84 H110 0.930 . S
C85 C80 1.479 . S
C85 C84 1.405 . S
C85 H111 0.931 . S
U86 O87 2.454 . S
U86 O88 2.458 . S
U86 C89 2.984 . S
U86 C90 2.847 . S
U86 C103 2.882 . S
U86 O104 2.441 . S
U86 O105 2.420 . S
U86 O106 2.455 . S
U86 O107 2.449 . S
O87 U86 2.454 . S
O87 C89 1.353 . S
O88 U86 2.458 . S
O88 C89 1.286 . S
C89 U86 2.984 . S
C89 O87 1.353 . S
C89 O88 1.286 . S
C89 C91 1.363 . S
C90 C80 1.465 . S
C90 U86 2.847 . S
C90 O104 1.249 . S
C90 O105 1.202 . S
C91 C89 1.363 . S
C91 C93 1.408 . S
C91 C96 1.342 . S
C92 C93 1.310 . S
C92 C95 1.461 . S
C92 H112 0.932 . S
C93 C91 1.408 . S
C93 C92 1.310 . S
C93 H113 0.930 . S
C94 C95 1.474 . S
C94 C96 1.285 . S
C94 H114 0.929 . S
C95 C92 1.461 . S
C95 C94 1.474 . S
C96 C91 1.342 . S
C96 C94 1.285 . S
C96 H115 0.930 . S
C97 C100 1.424 . S
C97 C102 1.245 . S
C97 C103 1.428 . S
C98 C101 1.260 . S
C98 C102 1.477 . S
C98 H116 0.932 . S
C99 C100 1.384 . S
C99 C101 1.479 . S
C99 H117 0.929 . S
C100 C97 1.424 . S
C100 C99 1.384 . S
C100 H118 0.928 . S
C101 C98 1.260 . S
C101 C99 1.479 . S
C102 C97 1.245 . S
C102 C98 1.477 . S
C102 H119 0.932 . S
C103 U86 2.882 . S
C103 C97 1.428 . S
C103 O106 1.301 . S
C103 O107 1.282 . S
O104 U86 2.441 . S
O104 C90 1.249 . S
O105 U86 2.420 . S
O105 C90 1.202 . S
O106 U86 2.455 . S
O106 C103 1.301 . S
O107 U86 2.449 . S
O107 C103 1.282 . S
H108 C81 0.931 . S
H109 C83 0.929 . S
H110 C84 0.930 . S
H111 C85 0.931 . S
H112 C92 0.932 . S
H113 C93 0.930 . S
H114 C94 0.929 . S
H115 C96 0.930 . S
H116 C98 0.932 . S
H117 C99 0.929 . S
H118 C100 0.928 . S
H119 C102 0.932 . S
C120 C121 1.264 . S
C120 C125 1.479 . S
C120 C130 1.465 . S
C121 C120 1.264 . S
C121 C123 1.339 . S
C121 H148 0.931 . S
C122 C123 1.395 . S
C122 C124 1.320 . S
C123 C121 1.339 . S
C123 C122 1.395 . S
C123 H149 0.929 . S
C124 C122 1.320 . S
C124 C125 1.405 . S
C124 H150 0.930 . S
C125 C120 1.479 . S
C125 C124 1.405 . S
C125 H151 0.931 . S
U126 O127 2.454 . S
U126 O128 2.458 . S
U126 C129 2.984 . S
U126 C130 2.847 . S
U126 C143 2.882 . S
U126 O144 2.441 . S
U126 O145 2.420 . S
U126 O146 2.455 . S
U126 O147 2.449 . S
O127 U126 2.454 . S
O127 C129 1.353 . S
O128 U126 2.458 . S
O128 C129 1.286 . S
C129 U126 2.984 . S
C129 O127 1.353 . S
C129 O128 1.286 . S
C129 C131 1.363 . S
C130 C120 1.465 . S
C130 U126 2.847 . S
C130 O144 1.249 . S
C130 O145 1.202 . S
C131 C129 1.363 . S
C131 C133 1.408 . S
C131 C136 1.342 . S
C132 C133 1.310 . S
C132 C135 1.461 . S
C132 H152 0.932 . S
C133 C131 1.408 . S
C133 C132 1.310 . S
C133 H153 0.930 . S
C134 C135 1.474 . S
C134 C136 1.285 . S
C134 H154 0.929 . S
C135 C132 1.461 . S
C135 C134 1.474 . S
C136 C131 1.342 . S
C136 C134 1.285 . S
C136 H155 0.930 . S
C137 C140 1.424 . S
C137 C142 1.245 . S
C137 C143 1.428 . S
C138 C141 1.260 . S
C138 C142 1.477 . S
C138 H156 0.932 . S
C139 C140 1.384 . S
C139 C141 1.479 . S
C139 H157 0.929 . S
C140 C137 1.424 . S
C140 C139 1.384 . S
C140 H158 0.928 . S
C141 C138 1.260 . S
C141 C139 1.479 . S
C142 C137 1.245 . S
C142 C138 1.477 . S
C142 H159 0.932 . S
C143 U126 2.882 . S
C143 C137 1.428 . S
C143 O146 1.301 . S
C143 O147 1.282 . S
O144 U126 2.441 . S
O144 C130 1.249 . S
O145 U126 2.420 . S
O145 C130 1.202 . S
O146 U126 2.455 . S
O146 C143 1.301 . S
O147 U126 2.449 . S
O147 C143 1.282 . S
H148 C121 0.931 . S
H149 C123 0.929 . S
H150 C124 0.930 . S
H151 C125 0.931 . S
H152 C132 0.932 . S
H153 C133 0.930 . S
H154 C134 0.929 . S
H155 C136 0.930 . S
H156 C138 0.932 . S
H157 C139 0.929 . S
H158 C140 0.928 . S
H159 C142 0.932 . S
C160 C161 1.264 . S
C160 C165 1.479 . S
C160 C170 1.465 . S
C161 C160 1.264 . S
C161 C163 1.339 . S
C161 H188 0.931 . S
C162 C163 1.395 . S
C162 C164 1.320 . S
C163 C161 1.339 . S
C163 C162 1.395 . S
C163 H189 0.929 . S
C164 C162 1.320 . S
C164 C165 1.405 . S
C164 H190 0.930 . S
C165 C160 1.479 . S
C165 C164 1.405 . S
C165 H191 0.931 . S
U166 O167 2.454 . S
U166 O168 2.458 . S
U166 C169 2.984 . S
U166 C170 2.847 . S
U166 C183 2.882 . S
U166 O184 2.441 . S
U166 O185 2.420 . S
U166 O186 2.455 . S
U166 O187 2.449 . S
O167 U166 2.454 . S
O167 C169 1.353 . S
O168 U166 2.458 . S
O168 C169 1.286 . S
C169 U166 2.984 . S
C169 O167 1.353 . S
C169 O168 1.286 . S
C169 C171 1.363 . S
C170 C160 1.465 . S
C170 U166 2.847 . S
C170 O184 1.249 . S
C170 O185 1.202 . S
C171 C169 1.363 . S
C171 C173 1.408 . S
C171 C176 1.342 . S
C172 C173 1.310 . S
C172 C175 1.461 . S
C172 H192 0.932 . S
C173 C171 1.408 . S
C173 C172 1.310 . S
C173 H193 0.930 . S
C174 C175 1.474 . S
C174 C176 1.285 . S
C174 H194 0.929 . S
C175 C172 1.461 . S
C175 C174 1.474 . S
C176 C171 1.342 . S
C176 C174 1.285 . S
C176 H195 0.930 . S
C177 C180 1.424 . S
C177 C182 1.245 . S
C177 C183 1.428 . S
C178 C181 1.260 . S
C178 C182 1.477 . S
C178 H196 0.932 . S
C179 C180 1.384 . S
C179 C181 1.479 . S
C179 H197 0.929 . S
C180 C177 1.424 . S
C180 C179 1.384 . S
C180 H198 0.928 . S
C181 C178 1.260 . S
C181 C179 1.479 . S
C182 C177 1.245 . S
C182 C178 1.477 . S
C182 H199 0.932 . S
C183 U166 2.882 . S
C183 C177 1.428 . S
C183 O186 1.301 . S
C183 O187 1.282 . S
O184 U166 2.441 . S
O184 C170 1.249 . S
O185 U166 2.420 . S
O185 C170 1.202 . S
O186 U166 2.455 . S
O186 C183 1.301 . S
O187 U166 2.449 . S
O187 C183 1.282 . S
H188 C161 0.931 . S
H189 C163 0.929 . S
H190 C164 0.930 . S
H191 C165 0.931 . S
H192 C172 0.932 . S
H193 C173 0.930 . S
H194 C174 0.929 . S
H195 C176 0.930 . S
H196 C178 0.932 . S
H197 C179 0.929 . S
H198 C180 0.928 . S
H199 C182 0.932 . S
C200 C201 1.264 . S
C200 C205 1.479 . S
C200 C210 1.465 . S
C201 C200 1.264 . S
C201 C203 1.339 . S
C201 H228 0.931 . S
C202 C203 1.395 . S
C202 C204 1.320 . S
C203 C201 1.339 . S
C203 C202 1.395 . S
C203 H229 0.929 . S
C204 C202 1.320 . S
C204 C205 1.405 . S
C204 H230 0.930 . S
C205 C200 1.479 . S
C205 C204 1.405 . S
C205 H231 0.931 . S
U206 O207 2.454 . S
U206 O208 2.458 . S
U206 C209 2.984 . S
U206 C210 2.847 . S
U206 C223 2.882 . S
U206 O224 2.441 . S
U206 O225 2.420 . S
U206 O226 2.455 . S
U206 O227 2.449 . S
O207 U206 2.454 . S
O207 C209 1.353 . S
O208 U206 2.458 . S
O208 C209 1.286 . S
C209 U206 2.984 . S
C209 O207 1.353 . S
C209 O208 1.286 . S
C209 C211 1.363 . S
C210 C200 1.465 . S
C210 U206 2.847 . S
C210 O224 1.249 . S
C210 O225 1.202 . S
C211 C209 1.363 . S
C211 C213 1.408 . S
C211 C216 1.342 . S
C212 C213 1.310 . S
C212 C215 1.461 . S
C212 H232 0.932 . S
C213 C211 1.408 . S
C213 C212 1.310 . S
C213 H233 0.930 . S
C214 C215 1.474 . S
C214 C216 1.285 . S
C214 H234 0.929 . S
C215 C212 1.461 . S
C215 C214 1.474 . S
C216 C211 1.342 . S
C216 C214 1.285 . S
C216 H235 0.930 . S
C217 C220 1.424 . S
C217 C222 1.245 . S
C217 C223 1.428 . S
C218 C221 1.260 . S
C218 C222 1.477 . S
C218 H236 0.932 . S
C219 C220 1.384 . S
C219 C221 1.479 . S
C219 H237 0.929 . S
C220 C217 1.424 . S
C220 C219 1.384 . S
C220 H238 0.928 . S
C221 C218 1.260 . S
C221 C219 1.479 . S
C222 C217 1.245 . S
C222 C218 1.477 . S
C222 H239 0.932 . S
C223 U206 2.882 . S
C223 C217 1.428 . S
C223 O226 1.301 . S
C223 O227 1.282 . S
O224 U206 2.441 . S
O224 C210 1.249 . S
O225 U206 2.420 . S
O225 C210 1.202 . S
O226 U206 2.455 . S
O226 C223 1.301 . S
O227 U206 2.449 . S
O227 C223 1.282 . S
H228 C201 0.931 . S
H229 C203 0.929 . S
H230 C204 0.930 . S
H231 C205 0.931 . S
H232 C212 0.932 . S
H233 C213 0.930 . S
H234 C214 0.929 . S
H235 C216 0.930 . S
H236 C218 0.932 . S
H237 C219 0.929 . S
H238 C220 0.928 . S
H239 C222 0.932 . S
C240 C241 1.264 . S
C240 C245 1.479 . S
C240 C250 1.465 . S
C241 C240 1.264 . S
C241 C243 1.339 . S
C241 H268 0.931 . S
C242 C243 1.395 . S
C242 C244 1.320 . S
C243 C241 1.339 . S
C243 C242 1.395 . S
C243 H269 0.929 . S
C244 C242 1.320 . S
C244 C245 1.405 . S
C244 H270 0.930 . S
C245 C240 1.479 . S
C245 C244 1.405 . S
C245 H271 0.931 . S
U246 O247 2.454 . S
U246 O248 2.458 . S
U246 C249 2.984 . S
U246 C250 2.847 . S
U246 C263 2.882 . S
U246 O264 2.441 . S
U246 O265 2.420 . S
U246 O266 2.455 . S
U246 O267 2.449 . S
O247 U246 2.454 . S
O247 C249 1.353 . S
O248 U246 2.458 . S
O248 C249 1.286 . S
C249 U246 2.984 . S
C249 O247 1.353 . S
C249 O248 1.286 . S
C249 C251 1.363 . S
C250 C240 1.465 . S
C250 U246 2.847 . S
C250 O264 1.249 . S
C250 O265 1.202 . S
C251 C249 1.363 . S
C251 C253 1.408 . S
C251 C256 1.342 . S
C252 C253 1.310 . S
C252 C255 1.461 . S
C252 H272 0.932 . S
C253 C251 1.408 . S
C253 C252 1.310 . S
C253 H273 0.930 . S
C254 C255 1.474 . S
C254 C256 1.285 . S
C254 H274 0.929 . S
C255 C252 1.461 . S
C255 C254 1.474 . S
C256 C251 1.342 . S
C256 C254 1.285 . S
C256 H275 0.930 . S
C257 C260 1.424 . S
C257 C262 1.245 . S
C257 C263 1.428 . S
C258 C261 1.260 . S
C258 C262 1.477 . S
C258 H276 0.932 . S
C259 C260 1.384 . S
C259 C261 1.479 . S
C259 H277 0.929 . S
C260 C257 1.424 . S
C260 C259 1.384 . S
C260 H278 0.928 . S
C261 C258 1.260 . S
C261 C259 1.479 . S
C262 C257 1.245 . S
C262 C258 1.477 . S
C262 H279 0.932 . S
C263 U246 2.882 . S
C263 C257 1.428 . S
C263 O266 1.301 . S
C263 O267 1.282 . S
O264 U246 2.441 . S
O264 C250 1.249 . S
O265 U246 2.420 . S
O265 C250 1.202 . S
O266 U246 2.455 . S
O266 C263 1.301 . S
O267 U246 2.449 . S
O267 C263 1.282 . S
H268 C241 0.931 . S
H269 C243 0.929 . S
H270 C244 0.930 . S
H271 C245 0.931 . S
H272 C252 0.932 . S
H273 C253 0.930 . S
H274 C254 0.929 . S
H275 C256 0.930 . S
H276 C258 0.932 . S
H277 C259 0.929 . S
H278 C260 0.928 . S
H279 C262 0.932 . S
C280 C281 1.264 . S
C280 C285 1.479 . S
C280 C290 1.465 . S
C281 C280 1.264 . S
C281 C283 1.339 . S
C281 H308 0.931 . S
C282 C283 1.395 . S
C282 C284 1.320 . S
C283 C281 1.339 . S
C283 C282 1.395 . S
C283 H309 0.929 . S
C284 C282 1.320 . S
C284 C285 1.405 . S
C284 H310 0.930 . S
C285 C280 1.479 . S
C285 C284 1.405 . S
C285 H311 0.931 . S
U286 O287 2.454 . S
U286 O288 2.458 . S
U286 C289 2.984 . S
U286 C290 2.847 . S
U286 C303 2.882 . S
U286 O304 2.441 . S
U286 O305 2.420 . S
U286 O306 2.455 . S
U286 O307 2.449 . S
O287 U286 2.454 . S
O287 C289 1.353 . S
O288 U286 2.458 . S
O288 C289 1.286 . S
C289 U286 2.984 . S
C289 O287 1.353 . S
C289 O288 1.286 . S
C289 C291 1.363 . S
C290 C280 1.465 . S
C290 U286 2.847 . S
C290 O304 1.249 . S
C290 O305 1.202 . S
C291 C289 1.363 . S
C291 C293 1.408 . S
C291 C296 1.342 . S
C292 C293 1.310 . S
C292 C295 1.461 . S
C292 H312 0.932 . S
C293 C291 1.408 . S
C293 C292 1.310 . S
C293 H313 0.930 . S
C294 C295 1.474 . S
C294 C296 1.285 . S
C294 H314 0.929 . S
C295 C292 1.461 . S
C295 C294 1.474 . S
C296 C291 1.342 . S
C296 C294 1.285 . S
C296 H315 0.930 . S
C297 C300 1.424 . S
C297 C302 1.245 . S
C297 C303 1.428 . S
C298 C301 1.260 . S
C298 C302 1.477 . S
C298 H316 0.932 . S
C299 C300 1.384 . S
C299 C301 1.479 . S
C299 H317 0.929 . S
C300 C297 1.424 . S
C300 C299 1.384 . S
C300 H318 0.928 . S
C301 C298 1.260 . S
C301 C299 1.479 . S
C302 C297 1.245 . S
C302 C298 1.477 . S
C302 H319 0.932 . S
C303 U286 2.882 . S
C303 C297 1.428 . S
C303 O306 1.301 . S
C303 O307 1.282 . S
O304 U286 2.441 . S
O304 C290 1.249 . S
O305 U286 2.420 . S
O305 C290 1.202 . S
O306 U286 2.455 . S
O306 C303 1.301 . S
O307 U286 2.449 . S
O307 C303 1.282 . S
H308 C281 0.931 . S
H309 C283 0.929 . S
H310 C284 0.930 . S
H311 C285 0.931 . S
H312 C292 0.932 . S
H313 C293 0.930 . S
H314 C294 0.929 . S
H315 C296 0.930 . S
H316 C298 0.932 . S
H317 C299 0.929 . S
H318 C300 0.928 . S
H319 C302 0.932 . S
C320 C321 1.443 . S
C320 N324 1.376 . S
C320 C358 1.389 . S
C321 C320 1.443 . S
C321 C322 1.340 . S
C321 H361 0.951 . S
C322 C321 1.340 . S
C322 C323 1.439 . S
C322 H362 0.950 . S
C323 C322 1.439 . S
C323 N324 1.374 . S
C323 C357 1.395 . S
N324 C320 1.376 . S
N324 C323 1.374 . S
N324 Co325 2.008 . S
Co325 N324 2.008 . S
Co325 N326 1.982 1_455 S
Co325 N331 2.008 . S
Co325 N336 1.995 . S
Co325 N341 2.282 . S
Co325 N347 2.282 1_455 S
N326 Co325 1.982 1_655 S
N326 C327 1.375 . S
N326 C330 1.398 . S
C327 N326 1.375 . S
C327 C328 1.446 . S
C327 C357 1.391 1_655 S
C328 C327 1.446 . S
C328 C329 1.339 . S
C328 H363 0.949 . S
C329 C328 1.339 . S
C329 C330 1.439 . S
C329 H364 0.950 . S
C330 N326 1.398 . S
C330 C329 1.439 . S
C330 C359 1.392 . S
N331 Co325 2.008 . S
N331 C332 1.376 1_455 S
N331 C335 1.374 . S
C332 N331 1.376 1_655 S
C332 C333 1.443 . S
C332 C359 1.389 . S
C333 C332 1.443 . S
C333 C334 1.340 . S
C333 H365 0.951 . S
C334 C333 1.340 . S
C334 C335 1.439 1_655 S
C334 H366 0.950 . S
C335 N331 1.374 . S
C335 C334 1.439 1_455 S
C335 C360 1.395 . S
N336 Co325 1.995 . S
N336 C337 1.376 . S
N336 C340 1.383 . S
C337 N336 1.376 . S
C337 C338 1.446 . S
C337 C360 1.391 . S
C338 C337 1.446 . S
C338 C339 1.339 . S
C338 H367 0.949 . S
C339 C338 1.339 . S
C339 C340 1.439 . S
C339 H368 0.950 . S
C340 N336 1.383 . S
C340 C339 1.439 . S
C340 C358 1.392 . S
N341 Co325 2.282 . S
N341 C344 1.332 . S
N341 C346 1.332 . S
C342 C343 1.386 . S
C342 C345 1.388 . S
C343 C342 1.386 . S
C343 C344 1.382 . S
C343 H369 0.950 . S
C344 N341 1.332 . S
C344 C343 1.382 . S
C344 H355 0.952 . S
C345 C342 1.388 . S
C345 C346 1.382 . S
C345 H370 0.950 . S
C346 N341 1.332 . S
C346 C345 1.382 . S
C346 H356 0.948 . S
N347 Co325 2.282 1_655 S
N347 C351 1.332 . S
N347 C352 1.332 . S
C348 C349 1.388 . S
C348 C352 1.382 . S
C348 H371 0.950 . S
C349 C348 1.388 . S
C349 C350 1.386 . S
C350 C349 1.386 . S
C350 C351 1.382 . S
C350 H372 0.950 . S
C351 N347 1.332 . S
C351 C350 1.382 . S
C351 H353 0.952 . S
C352 N347 1.332 . S
C352 C348 1.382 . S
C352 H354 0.948 . S
H353 C351 0.952 . S
H354 C352 0.948 . S
H355 C344 0.952 . S
H356 C346 0.948 . S
C357 C323 1.395 . S
C357 C327 1.391 1_455 S
C358 C320 1.389 . S
C358 C340 1.392 . S
C359 C330 1.392 . S
C359 C332 1.389 . S
C360 C335 1.395 . S
C360 C337 1.391 . S
H361 C321 0.951 . S
H362 C322 0.950 . S
H363 C328 0.949 . S
H364 C329 0.950 . S
H365 C333 0.951 . S
H366 C334 0.950 . S
H367 C338 0.949 . S
H368 C339 0.950 . S
H369 C343 0.950 . S
H370 C345 0.950 . S
H371 C348 0.950 . S
H372 C350 0.950 . S
C373 C374 1.443 . S
C373 N377 1.376 . S
C373 C411 1.389 . S
C374 C373 1.443 . S
C374 C375 1.340 . S
C374 H414 0.951 . S
C375 C374 1.340 . S
C375 C376 1.439 . S
C375 H415 0.950 . S
C376 C375 1.439 . S
C376 N377 1.374 . S
C376 C410 1.395 . S
N377 C373 1.376 . S
N377 C376 1.374 . S
N377 Co378 2.008 . S
Co378 N377 2.008 . S
Co378 N379 1.995 1_455 S
Co378 N384 2.008 1_455 S
Co378 N389 1.995 . S
Co378 N394 2.282 . S
Co378 N400 2.282 1_455 S
N379 Co378 1.995 1_655 S
N379 C380 1.376 . S
N379 C383 1.383 . S
C380 N379 1.376 . S
C380 C381 1.446 . S
C380 C410 1.391 1_655 S
C381 C380 1.446 . S
C381 C382 1.339 . S
C381 H416 0.949 . S
C382 C381 1.339 . S
C382 C383 1.439 . S
C382 H417 0.950 . S
C383 N379 1.383 . S
C383 C382 1.439 . S
C383 C412 1.392 . S
N384 Co378 2.008 1_655 S
N384 C385 1.376 . S
N384 C388 1.374 . S
C385 N384 1.376 . S
C385 C386 1.443 . S
C385 C412 1.389 . S
C386 C385 1.443 . S
C386 C387 1.340 . S
C386 H418 0.951 . S
C387 C386 1.340 . S
C387 C388 1.439 . S
C387 H419 0.950 . S
C388 N384 1.374 . S
C388 C387 1.439 . S
C388 C413 1.395 1_655 S
N389 Co378 1.995 . S
N389 C390 1.376 . S
N389 C393 1.383 . S
C390 N389 1.376 . S
C390 C391 1.446 . S
C390 C413 1.391 . S
C391 C390 1.446 . S
C391 C392 1.339 . S
C391 H420 0.949 . S
C392 C391 1.339 . S
C392 C393 1.439 . S
C392 H421 0.950 . S
C393 N389 1.383 . S
C393 C392 1.439 . S
C393 C411 1.392 . S
N394 Co378 2.282 . S
N394 C397 1.332 . S
N394 C399 1.332 . S
C395 C396 1.386 . S
C395 C398 1.388 . S
C396 C395 1.386 . S
C396 C397 1.382 . S
C396 H422 0.950 . S
C397 N394 1.332 . S
C397 C396 1.382 . S
C397 H408 0.952 . S
C398 C395 1.388 . S
C398 C399 1.382 . S
C398 H423 0.950 . S
C399 N394 1.332 . S
C399 C398 1.382 . S
C399 H409 0.948 . S
N400 Co378 2.282 1_655 S
N400 C404 1.332 . S
N400 C405 1.332 . S
C401 C402 1.388 . S
C401 C405 1.382 . S
C401 H424 0.950 . S
C402 C401 1.388 . S
C402 C403 1.386 . S
C403 C402 1.386 . S
C403 C404 1.382 . S
C403 H425 0.950 . S
C404 N400 1.332 . S
C404 C403 1.382 . S
C404 H406 0.952 . S
C405 N400 1.332 . S
C405 C401 1.382 . S
C405 H407 0.948 . S
H406 C404 0.952 . S
H407 C405 0.948 . S
H408 C397 0.952 . S
H409 C399 0.948 . S
C410 C376 1.395 . S
C410 C380 1.391 1_455 S
C411 C373 1.389 . S
C411 C393 1.392 . S
C412 C383 1.392 . S
C412 C385 1.389 . S
C413 C388 1.395 1_455 S
C413 C390 1.391 . S
H414 C374 0.951 . S
H415 C375 0.950 . S
H416 C381 0.949 . S
H417 C382 0.950 . S
H418 C386 0.951 . S
H419 C387 0.950 . S
H420 C391 0.949 . S
H421 C392 0.950 . S
H422 C396 0.950 . S
H423 C398 0.950 . S
H424 C401 0.950 . S
H425 C403 0.950 . S
C426 C427 1.443 . S
C426 N430 1.376 . S
C426 C464 1.389 . S
C427 C426 1.443 . S
C427 C428 1.340 . S
C427 H467 0.951 . S
C428 C427 1.340 . S
C428 C429 1.439 . S
C428 H468 0.950 . S
C429 C428 1.439 . S
C429 N430 1.374 . S
C429 C463 1.395 1_565 S
N430 C426 1.376 . S
N430 C429 1.374 . S
N430 Co431 2.008 1_565 S
Co431 N430 2.008 1_545 S
Co431 N432 1.995 . S
Co431 N437 2.008 . S
Co431 N442 1.995 1_545 S
Co431 N447 2.282 . S
Co431 N453 2.282 1_545 S
N432 Co431 1.995 . S
N432 C433 1.376 . S
N432 C436 1.383 . S
C433 N432 1.376 . S
C433 C434 1.446 . S
C433 C463 1.391 . S
C434 C433 1.446 . S
C434 C435 1.339 . S
C434 H469 0.949 . S
C435 C434 1.339 . S
C435 C436 1.439 . S
C435 H470 0.950 . S
C436 N432 1.383 . S
C436 C435 1.439 . S
C436 C465 1.392 . S
N437 Co431 2.008 . S
N437 C438 1.376 . S
N437 C441 1.374 . S
C438 N437 1.376 . S
C438 C439 1.443 . S
C438 C465 1.389 . S
C439 C438 1.443 . S
C439 C440 1.340 . S
C439 H471 0.951 . S
C440 C439 1.340 . S
C440 C441 1.439 . S
C440 H472 0.950 . S
C441 N437 1.374 . S
C441 C440 1.439 . S
C441 C466 1.395 . S
N442 Co431 1.995 1_565 S
N442 C443 1.376 . S
N442 C446 1.383 . S
C443 N442 1.376 . S
C443 C444 1.446 . S
C443 C466 1.391 1_565 S
C444 C443 1.446 . S
C444 C445 1.339 . S
C444 H473 0.949 . S
C445 C444 1.339 . S
C445 C446 1.439 . S
C445 H474 0.950 . S
C446 N442 1.383 . S
C446 C445 1.439 . S
C446 C464 1.392 . S
N447 Co431 2.282 . S
N447 C450 1.332 . S
N447 C452 1.332 . S
C448 C449 1.386 . S
C448 C451 1.388 . S
C449 C448 1.386 . S
C449 C450 1.382 . S
C449 H475 0.950 . S
C450 N447 1.332 . S
C450 C449 1.382 . S
C450 H461 0.952 . S
C451 C448 1.388 . S
C451 C452 1.382 . S
C451 H476 0.950 . S
C452 N447 1.332 . S
C452 C451 1.382 . S
C452 H462 0.948 . S
N453 Co431 2.282 1_565 S
N453 C457 1.332 . S
N453 C458 1.332 . S
C454 C455 1.388 . S
C454 C458 1.382 . S
C454 H477 0.950 . S
C455 C454 1.388 . S
C455 C456 1.386 . S
C456 C455 1.386 . S
C456 C457 1.382 . S
C456 H478 0.950 . S
C457 N453 1.332 . S
C457 C456 1.382 . S
C457 H459 0.952 . S
C458 N453 1.332 . S
C458 C454 1.382 . S
C458 H460 0.948 . S
H459 C457 0.952 . S
H460 C458 0.948 . S
H461 C450 0.952 . S
H462 C452 0.948 . S
C463 C429 1.395 1_545 S
C463 C433 1.391 . S
C464 C426 1.389 . S
C464 C446 1.392 . S
C465 C436 1.392 . S
C465 C438 1.389 . S
C466 C441 1.395 . S
C466 C443 1.391 1_545 S
H467 C427 0.951 . S
H468 C428 0.950 . S
H469 C434 0.949 . S
H470 C435 0.950 . S
H471 C439 0.951 . S
H472 C440 0.950 . S
H473 C444 0.949 . S
H474 C445 0.950 . S
H475 C449 0.950 . S
H476 C451 0.950 . S
H477 C454 0.950 . S
H478 C456 0.950 . S
C479 C480 1.443 . S
C479 N483 1.376 . S
C479 C517 1.389 . S
C480 C479 1.443 . S
C480 C481 1.340 . S
C480 H520 0.951 . S
C481 C480 1.340 . S
C481 C482 1.439 . S
C481 H521 0.950 . S
C482 C481 1.439 . S
C482 N483 1.374 . S
C482 C516 1.395 . S
N483 C479 1.376 . S
N483 C482 1.374 . S
N483 Co484 2.008 . S
Co484 N483 2.008 . S
Co484 N485 2.000 . S
Co484 N490 1.986 1_554 S
Co484 N495 1.995 . S
Co484 N500 2.282 1_554 S
Co484 N506 2.282 . S
N485 Co484 2.000 . S
N485 C486 1.378 . S
N485 C489 1.375 1_554 S
C486 N485 1.378 . S
C486 C487 1.446 1_554 S
C486 C516 1.391 . S
C487 C486 1.446 1_556 S
C487 C488 1.339 . S
C487 H522 0.949 . S
C488 C487 1.339 . S
C488 C489 1.439 . S
C488 H523 0.950 . S
C489 N485 1.375 1_556 S
C489 C488 1.439 . S
C489 C518 1.392 . S
N490 Co484 1.986 1_556 S
N490 C491 1.408 . S
N490 C494 1.375 1_556 S
C491 N490 1.408 . S
C491 C492 1.443 . S
C491 C518 1.389 . S
C492 C491 1.443 . S
C492 C493 1.340 . S
C492 H524 0.951 . S
C493 C492 1.340 . S
C493 C494 1.421 1_556 S
C493 H525 0.950 . S
C494 N490 1.375 1_554 S
C494 C493 1.421 1_554 S
C494 C519 1.410 . S
N495 Co484 1.995 . S
N495 C496 1.376 . S
N495 C499 1.383 . S
C496 N495 1.376 . S
C496 C497 1.446 . S
C496 C519 1.391 . S
C497 C496 1.446 . S
C497 C498 1.339 . S
C497 H526 0.949 . S
C498 C497 1.339 . S
C498 C499 1.439 . S
C498 H527 0.950 . S
C499 N495 1.383 . S
C499 C498 1.439 . S
C499 C517 1.392 . S
N500 Co484 2.282 1_556 S
N500 C503 1.332 . S
N500 C505 1.332 . S
C501 C502 1.386 . S
C501 C504 1.388 . S
C502 C501 1.386 . S
C502 C503 1.382 . S
C502 H528 0.950 . S
C503 N500 1.332 . S
C503 C502 1.382 . S
C503 H514 0.952 . S
C504 C501 1.388 . S
C504 C505 1.382 . S
C504 H529 0.950 . S
C505 N500 1.332 . S
C505 C504 1.382 . S
C505 H515 0.948 . S
N506 Co484 2.282 . S
N506 C510 1.332 . S
N506 C511 1.332 . S
C507 C508 1.388 . S
C507 C511 1.382 . S
C507 H530 0.950 . S
C508 C507 1.388 . S
C508 C509 1.386 . S
C509 C508 1.386 . S
C509 C510 1.382 . S
C509 H531 0.950 . S
C510 N506 1.332 . S
C510 C509 1.382 . S
C510 H512 0.952 . S
C511 N506 1.332 . S
C511 C507 1.382 . S
C511 H513 0.948 . S
H512 C510 0.952 . S
H513 C511 0.948 . S
H514 C503 0.952 . S
H515 C505 0.948 . S
C516 C482 1.395 . S
C516 C486 1.391 . S
C517 C479 1.389 . S
C517 C499 1.392 . S
C518 C489 1.392 . S
C518 C491 1.389 . S
C519 C494 1.410 . S
C519 C496 1.391 . S
H520 C480 0.951 . S
H521 C481 0.950 . S
H522 C487 0.949 . S
H523 C488 0.950 . S
H524 C492 0.951 . S
H525 C493 0.950 . S
H526 C497 0.949 . S
H527 C498 0.950 . S
H528 C502 0.950 . S
H529 C504 0.950 . S
H530 C507 0.950 . S
H531 C509 0.950 . S
C532 C533 1.443 . S
C532 N536 1.376 1_565 S
C532 C570 1.389 . S
C533 C532 1.443 . S
C533 C534 1.340 . S
C533 H573 0.951 . S
C534 C533 1.340 . S
C534 C535 1.439 1_565 S
C534 H574 0.950 . S
C535 C534 1.439 1_545 S
C535 N536 1.374 . S
C535 C569 1.395 . S
N536 C532 1.376 1_545 S
N536 C535 1.374 . S
N536 Co537 2.008 . S
Co537 N536 2.008 . S
Co537 N538 1.995 . S
Co537 N543 2.008 . S
Co537 N548 1.995 . S
Co537 N553 2.282 . S
Co537 N559 2.282 1_545 S
N538 Co537 1.995 . S
N538 C539 1.376 . S
N538 C542 1.383 . S
C539 N538 1.376 . S
C539 C540 1.446 . S
C539 C569 1.391 . S
C540 C539 1.446 . S
C540 C541 1.339 . S
C540 H575 0.949 . S
C541 C540 1.339 . S
C541 C542 1.439 . S
C541 H576 0.950 . S
C542 N538 1.383 . S
C542 C541 1.439 . S
C542 C571 1.392 . S
N543 Co537 2.008 . S
N543 C544 1.376 . S
N543 C547 1.374 . S
C544 N543 1.376 . S
C544 C545 1.443 . S
C544 C571 1.389 . S
C545 C544 1.443 . S
C545 C546 1.340 . S
C545 H577 0.951 . S
C546 C545 1.340 . S
C546 C547 1.439 . S
C546 H578 0.950 . S
C547 N543 1.374 . S
C547 C546 1.439 . S
C547 C572 1.395 . S
N548 Co537 1.995 . S
N548 C549 1.376 . S
N548 C552 1.383 1_545 S
C549 N548 1.376 . S
C549 C550 1.446 1_545 S
C549 C572 1.391 . S
C550 C549 1.446 1_565 S
C550 C551 1.339 . S
C550 H579 0.949 . S
C551 C550 1.339 . S
C551 C552 1.439 . S
C551 H580 0.950 . S
C552 N548 1.383 1_565 S
C552 C551 1.439 . S
C552 C570 1.392 . S
N553 Co537 2.282 . S
N553 C556 1.332 . S
N553 C558 1.332 . S
C554 C555 1.386 . S
C554 C557 1.388 . S
C555 C554 1.386 . S
C555 C556 1.382 . S
C555 H581 0.950 . S
C556 N553 1.332 . S
C556 C555 1.382 . S
C556 H567 0.952 . S
C557 C554 1.388 . S
C557 C558 1.382 . S
C557 H582 0.950 . S
C558 N553 1.332 . S
C558 C557 1.382 . S
C558 H568 0.948 . S
N559 Co537 2.282 1_565 S
N559 C563 1.332 . S
N559 C564 1.332 . S
C560 C561 1.388 . S
C560 C564 1.382 . S
C560 H583 0.950 . S
C561 C560 1.388 . S
C561 C562 1.386 . S
C562 C561 1.386 . S
C562 C563 1.382 . S
C562 H584 0.950 . S
C563 N559 1.332 . S
C563 C562 1.382 . S
C563 H565 0.952 . S
C564 N559 1.332 . S
C564 C560 1.382 . S
C564 H566 0.948 . S
H565 C563 0.952 . S
H566 C564 0.948 . S
H567 C556 0.952 . S
H568 C558 0.948 . S
C569 C535 1.395 . S
C569 C539 1.391 . S
C570 C532 1.389 . S
C570 C552 1.392 . S
C571 C542 1.392 . S
C571 C544 1.389 . S
C572 C547 1.395 . S
C572 C549 1.391 . S
H573 C533 0.951 . S
H574 C534 0.950 . S
H575 C540 0.949 . S
H576 C541 0.950 . S
H577 C545 0.951 . S
H578 C546 0.950 . S
H579 C550 0.949 . S
H580 C551 0.950 . S
H581 C555 0.950 . S
H582 C557 0.950 . S
H583 C560 0.950 . S
H584 C562 0.950 . S
C585 C586 1.443 . S
C585 N589 1.376 . S
C585 C623 1.389 . S
C586 C585 1.443 . S
C586 C587 1.340 . S
C586 H626 0.951 . S
C587 C586 1.340 . S
C587 C588 1.439 . S
C587 H627 0.950 . S
C588 C587 1.439 . S
C588 N589 1.374 . S
C588 C622 1.395 . S
N589 C585 1.376 . S
N589 C588 1.374 . S
N589 Co590 2.008 . S
Co590 N589 2.008 . S
Co590 N591 1.995 . S
Co590 N596 2.008 . S
Co590 N601 1.995 . S
Co590 N606 2.293 . S
Co590 N612 2.282 . S
N591 Co590 1.995 . S
N591 C592 1.376 . S
N591 C595 1.383 1_554 S
C592 N591 1.376 . S
C592 C593 1.446 1_554 S
C592 C622 1.391 . S
C593 C592 1.446 1_556 S
C593 C594 1.339 . S
C593 H628 0.949 . S
C594 C593 1.339 . S
C594 C595 1.439 . S
C594 H629 0.950 . S
C595 N591 1.383 1_556 S
C595 C594 1.439 . S
C595 C624 1.392 . S
N596 Co590 2.008 . S
N596 C597 1.376 1_554 S
N596 C600 1.374 . S
C597 N596 1.376 1_556 S
C597 C598 1.443 . S
C597 C624 1.389 . S
C598 C597 1.443 . S
C598 C599 1.340 . S
C598 H630 0.951 . S
C599 C598 1.340 . S
C599 C600 1.439 1_556 S
C599 H631 0.950 . S
C600 N596 1.374 . S
C600 C599 1.439 1_554 S
C600 C625 1.395 . S
N601 Co590 1.995 . S
N601 C602 1.376 . S
N601 C605 1.383 . S
C602 N601 1.376 . S
C602 C603 1.446 . S
C602 C625 1.391 . S
C603 C602 1.446 . S
C603 C604 1.339 . S
C603 H632 0.949 . S
C604 C603 1.339 . S
C604 C605 1.439 . S
C604 H633 0.950 . S
C605 N601 1.383 . S
C605 C604 1.439 . S
C605 C623 1.392 . S
N606 Co590 2.293 . S
N606 C609 1.328 1_554 S
N606 C611 1.324 1_554 S
C607 C608 1.386 . S
C607 C610 1.388 . S
C608 C607 1.386 . S
C608 C609 1.382 . S
C608 H634 0.950 . S
C609 N606 1.328 1_556 S
C609 C608 1.382 . S
C609 H620 0.952 1_556 S
C610 C607 1.388 . S
C610 C611 1.382 . S
C610 H635 0.950 . S
C611 N606 1.324 1_556 S
C611 C610 1.382 . S
C611 H621 0.948 . S
N612 Co590 2.282 . S
N612 C616 1.332 . S
N612 C617 1.332 . S
C613 C614 1.388 . S
C613 C617 1.382 . S
C613 H636 0.950 . S
C614 C613 1.388 . S
C614 C615 1.386 . S
C615 C614 1.386 . S
C615 C616 1.382 . S
C615 H637 0.950 . S
C616 N612 1.332 . S
C616 C615 1.382 . S
C616 H618 0.952 . S
C617 N612 1.332 . S
C617 C613 1.382 . S
C617 H619 0.948 . S
H618 C616 0.952 . S
H619 C617 0.948 . S
H620 C609 0.952 1_554 S
H621 C611 0.948 . S
C622 C588 1.395 . S
C622 C592 1.391 . S
C623 C585 1.389 . S
C623 C605 1.392 . S
C624 C595 1.392 . S
C624 C597 1.389 . S
C625 C600 1.395 . S
C625 C602 1.391 . S
H626 C586 0.951 . S
H627 C587 0.950 . S
H628 C593 0.949 . S
H629 C594 0.950 . S
H630 C598 0.951 . S
H631 C599 0.950 . S
H632 C603 0.949 . S
H633 C604 0.950 . S
H634 C608 0.950 . S
H635 C610 0.950 . S
H636 C613 0.950 . S
H637 C615 0.950 . S
H638 C646 0.950 . S
H639 C651 0.950 . S
H640 C648 0.950 . S
H641 C650 0.950 . S
H642 C652 0.950 . S
H643 C654 0.950 . S
H644 C656 0.950 . S
H645 C657 0.950 . S
C646 H638 0.950 . S
C646 C647 1.386 . S
C646 C648 1.391 . S
C647 C646 1.386 . S
C647 C651 1.393 . S
C648 H640 0.950 . S
C648 C646 1.391 . S
C648 C649 1.400 . S
C649 C648 1.400 . S
C649 C650 1.398 . S
C649 C655 1.491 . S
C650 H641 0.950 . S
C650 C649 1.398 . S
C650 C651 1.391 . S
C651 H639 0.950 . S
C651 C647 1.393 . S
C651 C650 1.391 . S
C652 H642 0.950 . S
C652 C653 1.386 . S
C652 C654 1.391 . S
C653 C652 1.386 . S
C653 C657 1.393 . S
C654 H643 0.950 . S
C654 C652 1.391 . S
C654 C655 1.400 . S
C655 C649 1.491 . S
C655 C654 1.400 . S
C655 C656 1.398 . S
C656 H644 0.950 . S
C656 C655 1.398 . S
C656 C657 1.391 . S
C657 H645 0.950 . S
C657 C653 1.393 . S
C657 C656 1.391 . S
H658 C666 0.950 . S
H659 C671 0.950 . S
H660 C668 0.950 . S
H661 C670 0.950 . S
H662 C672 0.950 . S
H663 C674 0.950 . S
H664 C676 0.950 . S
H665 C677 0.950 . S
C666 H658 0.950 . S
C666 C667 1.386 . S
C666 C668 1.391 . S
C667 C666 1.386 . S
C667 C671 1.393 . S
C668 H660 0.950 . S
C668 C666 1.391 . S
C668 C669 1.400 . S
C669 C668 1.400 . S
C669 C670 1.398 . S
C669 C675 1.491 . S
C670 H661 0.950 . S
C670 C669 1.398 . S
C670 C671 1.391 . S
C671 H659 0.950 . S
C671 C667 1.393 . S
C671 C670 1.391 . S
C672 H662 0.950 . S
C672 C673 1.386 . S
C672 C674 1.391 . S
C673 C672 1.386 . S
C673 C677 1.393 . S
C674 H663 0.950 . S
C674 C672 1.391 . S
C674 C675 1.400 . S
C675 C669 1.491 . S
C675 C674 1.400 . S
C675 C676 1.398 . S
C676 H664 0.950 . S
C676 C675 1.398 . S
C676 C677 1.391 . S
C677 H665 0.950 . S
C677 C673 1.393 . S
C677 C676 1.391 . S
H678 C686 0.950 . S
H679 C691 0.950 . S
H680 C688 0.950 . S
H681 C690 0.950 . S
H682 C692 0.950 . S
H683 C694 0.950 . S
H684 C696 0.950 . S
H685 C697 0.950 . S
C686 H678 0.950 . S
C686 C687 1.386 . S
C686 C688 1.391 . S
C687 C686 1.386 . S
C687 C691 1.393 . S
C688 H680 0.950 . S
C688 C686 1.391 . S
C688 C689 1.400 . S
C689 C688 1.400 . S
C689 C690 1.398 . S
C689 C695 1.491 . S
C690 H681 0.950 . S
C690 C689 1.398 . S
C690 C691 1.391 . S
C691 H679 0.950 . S
C691 C687 1.393 . S
C691 C690 1.391 . S
C692 H682 0.950 . S
C692 C693 1.386 . S
C692 C694 1.391 . S
C693 C692 1.386 . S
C693 C697 1.393 . S
C694 H683 0.950 . S
C694 C692 1.391 . S
C694 C695 1.400 . S
C695 C689 1.491 . S
C695 C694 1.400 . S
C695 C696 1.398 . S
C696 H684 0.950 . S
C696 C695 1.398 . S
C696 C697 1.391 . S
C697 H685 0.950 . S
C697 C693 1.393 . S
C697 C696 1.391 . S
H698 C706 0.950 . S
H699 C711 0.950 . S
H700 C708 0.950 . S
H701 C710 0.950 . S
H702 C712 0.950 . S
H703 C714 0.950 . S
H704 C716 0.950 . S
H705 C717 0.950 . S
C706 H698 0.950 . S
C706 C707 1.386 . S
C706 C708 1.391 . S
C707 C706 1.386 . S
C707 C711 1.393 . S
C708 H700 0.950 . S
C708 C706 1.391 . S
C708 C709 1.400 . S
C709 C708 1.400 . S
C709 C710 1.398 . S
C709 C715 1.491 . S
C710 H701 0.950 . S
C710 C709 1.398 . S
C710 C711 1.391 . S
C711 H699 0.950 . S
C711 C707 1.393 . S
C711 C710 1.391 . S
C712 H702 0.950 . S
C712 C713 1.386 . S
C712 C714 1.391 . S
C713 C712 1.386 . S
C713 C717 1.393 . S
C714 H703 0.950 . S
C714 C712 1.391 . S
C714 C715 1.400 . S
C715 C709 1.491 . S
C715 C714 1.400 . S
C715 C716 1.398 . S
C716 H704 0.950 . S
C716 C715 1.398 . S
C716 C717 1.391 . S
C717 H705 0.950 . S
C717 C713 1.393 . S
C717 C716 1.391 . S
H718 C726 0.950 . S
H719 C731 0.950 . S
H720 C728 0.950 . S
H721 C730 0.950 . S
H722 C732 0.950 . S
H723 C734 0.950 . S
H724 C736 0.950 . S
H725 C737 0.950 . S
C726 H718 0.950 . S
C726 C727 1.386 . S
C726 C728 1.391 . S
C727 C726 1.386 . S
C727 C731 1.393 . S
C728 H720 0.950 . S
C728 C726 1.391 . S
C728 C729 1.400 . S
C729 C728 1.400 . S
C729 C730 1.398 . S
C729 C735 1.491 . S
C730 H721 0.950 . S
C730 C729 1.398 . S
C730 C731 1.391 . S
C731 H719 0.950 . S
C731 C727 1.393 . S
C731 C730 1.391 . S
C732 H722 0.950 . S
C732 C733 1.386 . S
C732 C734 1.391 . S
C733 C732 1.386 . S
C733 C737 1.393 . S
C734 H723 0.950 . S
C734 C732 1.391 . S
C734 C735 1.400 . S
C735 C729 1.491 . S
C735 C734 1.400 . S
C735 C736 1.398 . S
C736 H724 0.950 . S
C736 C735 1.398 . S
C736 C737 1.391 . S
C737 H725 0.950 . S
C737 C733 1.393 . S
C737 C736 1.391 . S
H738 C746 0.950 . S
H739 C751 0.950 . S
H740 C748 0.950 . S
H741 C750 0.950 . S
H742 C752 0.950 . S
H743 C754 0.950 . S
H744 C756 0.950 . S
H745 C757 0.950 . S
C746 H738 0.950 . S
C746 C747 1.386 . S
C746 C748 1.391 . S
C747 C746 1.386 . S
C747 C751 1.393 . S
C748 H740 0.950 . S
C748 C746 1.391 . S
C748 C749 1.400 . S
C749 C748 1.400 . S
C749 C750 1.398 . S
C749 C755 1.491 . S
C750 H741 0.950 . S
C750 C749 1.398 . S
C750 C751 1.391 . S
C751 H739 0.950 . S
C751 C747 1.393 . S
C751 C750 1.391 . S
C752 H742 0.950 . S
C752 C753 1.386 . S
C752 C754 1.391 . S
C753 C752 1.386 . S
C753 C757 1.393 . S
C754 H743 0.950 . S
C754 C752 1.391 . S
C754 C755 1.400 . S
C755 C749 1.491 . S
C755 C754 1.400 . S
C755 C756 1.398 . S
C756 H744 0.950 . S
C756 C755 1.398 . S
C756 C757 1.391 . S
C757 H745 0.950 . S
C757 C753 1.393 . S
C757 C756 1.391 . S
H758 C766 0.950 . S
H759 C771 0.950 . S
H760 C768 0.950 . S
H761 C770 0.950 . S
H762 C772 0.950 . S
H763 C774 0.950 . S
H764 C776 0.950 . S
H765 C777 0.950 . S
C766 H758 0.950 . S
C766 C767 1.386 . S
C766 C768 1.391 . S
C767 C766 1.386 . S
C767 C771 1.393 . S
C768 H760 0.950 . S
C768 C766 1.391 . S
C768 C769 1.400 . S
C769 C768 1.400 . S
C769 C770 1.398 . S
C769 C775 1.491 . S
C770 H761 0.950 . S
C770 C769 1.398 . S
C770 C771 1.391 . S
C771 H759 0.950 . S
C771 C767 1.393 . S
C771 C770 1.391 . S
C772 H762 0.950 . S
C772 C773 1.386 . S
C772 C774 1.391 . S
C773 C772 1.386 . S
C773 C777 1.393 . S
C774 H763 0.950 . S
C774 C772 1.391 . S
C774 C775 1.400 . S
C775 C769 1.491 . S
C775 C774 1.400 . S
C775 C776 1.398 . S
C776 H764 0.950 . S
C776 C775 1.398 . S
C776 C777 1.391 . S
C777 H765 0.950 . S
C777 C773 1.393 . S
C777 C776 1.391 . S
H778 C786 0.950 . S
H779 C791 0.950 . S
H780 C788 0.950 . S
H781 C790 0.950 . S
H782 C792 0.950 . S
H783 C794 0.950 . S
H784 C796 0.950 . S
H785 C797 0.950 . S
C786 H778 0.950 . S
C786 C787 1.386 . S
C786 C788 1.391 . S
C787 C786 1.386 . S
C787 C791 1.393 . S
C788 H780 0.950 . S
C788 C786 1.391 . S
C788 C789 1.400 . S
C789 C788 1.400 . S
C789 C790 1.398 . S
C789 C795 1.491 . S
C790 H781 0.950 . S
C790 C789 1.398 . S
C790 C791 1.391 . S
C791 H779 0.950 . S
C791 C787 1.393 . S
C791 C790 1.391 . S
C792 H782 0.950 . S
C792 C793 1.386 . S
C792 C794 1.391 . S
C793 C792 1.386 . S
C793 C797 1.393 . S
C794 H783 0.950 . S
C794 C792 1.391 . S
C794 C795 1.400 . S
C795 C789 1.491 . S
C795 C794 1.400 . S
C795 C796 1.398 . S
C796 H784 0.950 . S
C796 C795 1.398 . S
C796 C797 1.391 . S
C797 H785 0.950 . S
C797 C793 1.393 . S
C797 C796 1.391 . S
H798 C806 0.950 . S
H799 C811 0.950 . S
H800 C808 0.950 . S
H801 C810 0.950 . S
H802 C812 0.950 . S
H803 C814 0.950 . S
H804 C816 0.950 . S
H805 C817 0.950 . S
C806 H798 0.950 . S
C806 C807 1.386 . S
C806 C808 1.391 . S
C807 C806 1.386 . S
C807 C811 1.393 . S
C808 H800 0.950 . S
C808 C806 1.391 . S
C808 C809 1.400 . S
C809 C808 1.400 . S
C809 C810 1.398 . S
C809 C815 1.491 . S
C810 H801 0.950 . S
C810 C809 1.398 . S
C810 C811 1.391 . S
C811 H799 0.950 . S
C811 C807 1.393 . S
C811 C810 1.391 . S
C812 H802 0.950 . S
C812 C813 1.386 . S
C812 C814 1.391 . S
C813 C812 1.386 . S
C813 C817 1.393 . S
C814 H803 0.950 . S
C814 C812 1.391 . S
C814 C815 1.400 . S
C815 C809 1.491 . S
C815 C814 1.400 . S
C815 C816 1.398 . S
C816 H804 0.950 . S
C816 C815 1.398 . S
C816 C817 1.391 . S
C817 H805 0.950 . S
C817 C813 1.393 . S
C817 C816 1.391 . S
H818 C826 0.950 . S
H819 C831 0.950 . S
H820 C828 0.950 . S
H821 C830 0.950 . S
H822 C832 0.950 . S
H823 C834 0.950 . S
H824 C836 0.950 . S
H825 C837 0.950 . S
C826 H818 0.950 . S
C826 C827 1.386 . S
C826 C828 1.391 . S
C827 C826 1.386 . S
C827 C831 1.393 . S
C828 H820 0.950 . S
C828 C826 1.391 . S
C828 C829 1.400 . S
C829 C828 1.400 . S
C829 C830 1.398 . S
C829 C835 1.491 . S
C830 H821 0.950 . S
C830 C829 1.398 . S
C830 C831 1.391 . S
C831 H819 0.950 . S
C831 C827 1.393 . S
C831 C830 1.391 . S
C832 H822 0.950 . S
C832 C833 1.386 . S
C832 C834 1.391 . S
C833 C832 1.386 . S
C833 C837 1.393 . S
C834 H823 0.950 . S
C834 C832 1.391 . S
C834 C835 1.400 . S
C835 C829 1.491 . S
C835 C834 1.400 . S
C835 C836 1.398 . S
C836 H824 0.950 . S
C836 C835 1.398 . S
C836 C837 1.391 . S
C837 H825 0.950 . S
C837 C833 1.393 . S
C837 C836 1.391 . S
H838 C846 0.950 . S
H839 C851 0.950 . S
H840 C848 0.950 . S
H841 C850 0.950 . S
H842 C852 0.950 . S
H843 C854 0.950 . S
H844 C856 0.950 . S
H845 C857 0.950 . S
C846 H838 0.950 . S
C846 C847 1.386 . S
C846 C848 1.391 . S
C847 C846 1.386 . S
C847 C851 1.393 . S
C848 H840 0.950 . S
C848 C846 1.391 . S
C848 C849 1.400 . S
C849 C848 1.400 . S
C849 C850 1.398 . S
C849 C855 1.491 . S
C850 H841 0.950 . S
C850 C849 1.398 . S
C850 C851 1.391 . S
C851 H839 0.950 . S
C851 C847 1.393 . S
C851 C850 1.391 . S
C852 H842 0.950 . S
C852 C853 1.386 . S
C852 C854 1.391 . S
C853 C852 1.386 . S
C853 C857 1.393 . S
C854 H843 0.950 . S
C854 C852 1.391 . S
C854 C855 1.400 . S
C855 C849 1.491 . S
C855 C854 1.400 . S
C855 C856 1.398 . S
C856 H844 0.950 . S
C856 C855 1.398 . S
C856 C857 1.391 . S
C857 H845 0.950 . S
C857 C853 1.393 . S
C857 C856 1.391 . S
H858 C866 0.950 . S
H859 C871 0.950 . S
H860 C868 0.950 . S
H861 C870 0.950 . S
H862 C872 0.950 . S
H863 C874 0.950 . S
H864 C876 0.950 . S
H865 C877 0.950 . S
C866 H858 0.950 . S
C866 C867 1.386 . S
C866 C868 1.391 . S
C867 C866 1.386 . S
C867 C871 1.393 . S
C868 H860 0.950 . S
C868 C866 1.391 . S
C868 C869 1.400 . S
C869 C868 1.400 . S
C869 C870 1.398 . S
C869 C875 1.491 . S
C870 H861 0.950 . S
C870 C869 1.398 . S
C870 C871 1.391 . S
C871 H859 0.950 . S
C871 C867 1.393 . S
C871 C870 1.391 . S
C872 H862 0.950 . S
C872 C873 1.386 . S
C872 C874 1.391 . S
C873 C872 1.386 . S
C873 C877 1.393 . S
C874 H863 0.950 . S
C874 C872 1.391 . S
C874 C875 1.400 . S
C875 C869 1.491 . S
C875 C874 1.400 . S
C875 C876 1.398 . S
C876 H864 0.950 . S
C876 C875 1.398 . S
C876 C877 1.391 . S
C877 H865 0.950 . S
C877 C873 1.393 . S
C877 C876 1.391 . S
H878 C886 0.950 . S
H879 C891 0.950 . S
H880 C888 0.950 . S
H881 C890 0.950 . S
H882 C892 0.950 . S
H883 C894 0.950 . S
H884 C896 0.950 . S
H885 C897 0.950 . S
C886 H878 0.950 . S
C886 C887 1.386 . S
C886 C888 1.391 . S
C887 C886 1.386 . S
C887 C891 1.393 . S
C888 H880 0.950 . S
C888 C886 1.391 . S
C888 C889 1.400 . S
C889 C888 1.400 . S
C889 C890 1.398 . S
C889 C895 1.491 . S
C890 H881 0.950 . S
C890 C889 1.398 . S
C890 C891 1.391 . S
C891 H879 0.950 . S
C891 C887 1.393 . S
C891 C890 1.391 . S
C892 H882 0.950 . S
C892 C893 1.386 . S
C892 C894 1.391 . S
C893 C892 1.386 . S
C893 C897 1.393 . S
C894 H883 0.950 . S
C894 C892 1.391 . S
C894 C895 1.400 . S
C895 C889 1.491 . S
C895 C894 1.400 . S
C895 C896 1.398 . S
C896 H884 0.950 . S
C896 C895 1.398 . S
C896 C897 1.391 . S
C897 H885 0.950 . S
C897 C893 1.393 . S
C897 C896 1.391 . S
H898 C906 0.950 . S
H899 C911 0.950 . S
H900 C908 0.950 . S
H901 C910 0.950 . S
H902 C912 0.950 . S
H903 C914 0.950 . S
H904 C916 0.950 . S
H905 C917 0.950 . S
C906 H898 0.950 . S
C906 C907 1.386 . S
C906 C908 1.391 . S
C907 C906 1.386 . S
C907 C911 1.393 . S
C908 H900 0.950 . S
C908 C906 1.391 . S
C908 C909 1.400 . S
C909 C908 1.400 . S
C909 C910 1.398 . S
C909 C915 1.491 . S
C910 H901 0.950 . S
C910 C909 1.398 . S
C910 C911 1.391 . S
C911 H899 0.950 . S
C911 C907 1.393 . S
C911 C910 1.391 . S
C912 H902 0.950 . S
C912 C913 1.386 . S
C912 C914 1.391 . S
C913 C912 1.386 . S
C913 C917 1.393 . S
C914 H903 0.950 . S
C914 C912 1.391 . S
C914 C915 1.400 . S
C915 C909 1.491 . S
C915 C914 1.400 . S
C915 C916 1.398 . S
C916 H904 0.950 . S
C916 C915 1.398 . S
C916 C917 1.391 . S
C917 H905 0.950 . S
C917 C913 1.393 . S
C917 C916 1.391 . S
H918 C926 0.950 . S
H919 C931 0.950 . S
H920 C928 0.950 . S
H921 C930 0.950 . S
H922 C932 0.950 . S
H923 C934 0.950 . S
H924 C936 0.950 . S
H925 C937 0.950 . S
C926 H918 0.950 . S
C926 C927 1.386 . S
C926 C928 1.391 . S
C927 C926 1.386 . S
C927 C931 1.393 . S
C928 H920 0.950 . S
C928 C926 1.391 . S
C928 C929 1.400 . S
C929 C928 1.400 . S
C929 C930 1.398 . S
C929 C935 1.491 . S
C930 H921 0.950 . S
C930 C929 1.398 . S
C930 C931 1.391 . S
C931 H919 0.950 . S
C931 C927 1.393 . S
C931 C930 1.391 . S
C932 H922 0.950 . S
C932 C933 1.386 . S
C932 C934 1.391 . S
C933 C932 1.386 . S
C933 C937 1.393 . S
C934 H923 0.950 . S
C934 C932 1.391 . S
C934 C935 1.400 . S
C935 C929 1.491 . S
C935 C934 1.400 . S
C935 C936 1.398 . S
C936 H924 0.950 . S
C936 C935 1.398 . S
C936 C937 1.391 . S
C937 H925 0.950 . S
C937 C933 1.393 . S
C937 C936 1.391 . S
H938 C946 0.950 . S
H939 C951 0.950 . S
H940 C948 0.950 . S
H941 C950 0.950 . S
H942 C952 0.950 . S
H943 C954 0.950 . S
H944 C956 0.950 . S
H945 C957 0.950 . S
C946 H938 0.950 . S
C946 C947 1.386 . S
C946 C948 1.391 . S
C947 C946 1.386 . S
C947 C951 1.393 . S
C948 H940 0.950 . S
C948 C946 1.391 . S
C948 C949 1.400 . S
C949 C948 1.400 . S
C949 C950 1.398 . S
C949 C955 1.491 . S
C950 H941 0.950 . S
C950 C949 1.398 . S
C950 C951 1.391 . S
C951 H939 0.950 . S
C951 C947 1.393 . S
C951 C950 1.391 . S
C952 H942 0.950 . S
C952 C953 1.386 . S
C952 C954 1.391 . S
C953 C952 1.386 . S
C953 C957 1.393 . S
C954 H943 0.950 . S
C954 C952 1.391 . S
C954 C955 1.400 . S
C955 C949 1.491 . S
C955 C954 1.400 . S
C955 C956 1.398 . S
C956 H944 0.950 . S
C956 C955 1.398 . S
C956 C957 1.391 . S
C957 H945 0.950 . S
C957 C953 1.393 . S
C957 C956 1.391 . S
H958 C966 0.950 . S
H959 C971 0.950 . S
H960 C968 0.950 . S
H961 C970 0.950 . S
H962 C972 0.950 . S
H963 C974 0.950 . S
H964 C976 0.950 . S
H965 C977 0.950 . S
C966 H958 0.950 . S
C966 C967 1.386 . S
C966 C968 1.391 . S
C967 C966 1.386 . S
C967 C971 1.393 . S
C968 H960 0.950 . S
C968 C966 1.391 . S
C968 C969 1.400 . S
C969 C968 1.400 . S
C969 C970 1.398 . S
C969 C975 1.491 . S
C970 H961 0.950 . S
C970 C969 1.398 . S
C970 C971 1.391 . S
C971 H959 0.950 . S
C971 C967 1.393 . S
C971 C970 1.391 . S
C972 H962 0.950 . S
C972 C973 1.386 . S
C972 C974 1.391 . S
C973 C972 1.386 . S
C973 C977 1.393 . S
C974 H963 0.950 . S
C974 C972 1.391 . S
C974 C975 1.400 . S
C975 C969 1.491 . S
C975 C974 1.400 . S
C975 C976 1.398 . S
C976 H964 0.950 . S
C976 C975 1.398 . S
C976 C977 1.391 . S
C977 H965 0.950 . S
C977 C973 1.393 . S
C977 C976 1.391 . S
H978 C986 0.950 . S
H979 C991 0.950 . S
H980 C988 0.950 . S
H981 C990 0.950 . S
H982 C992 0.950 . S
H983 C994 0.950 . S
H984 C996 0.950 . S
H985 C997 0.950 . S
C986 H978 0.950 . S
C986 C987 1.386 . S
C986 C988 1.391 . S
C987 C986 1.386 . S
C987 C991 1.393 . S
C988 H980 0.950 . S
C988 C986 1.391 . S
C988 C989 1.400 . S
C989 C988 1.400 . S
C989 C990 1.398 . S
C989 C995 1.491 . S
C990 H981 0.950 . S
C990 C989 1.398 . S
C990 C991 1.391 . S
C991 H979 0.950 . S
C991 C987 1.393 . S
C991 C990 1.391 . S
C992 H982 0.950 . S
C992 C993 1.386 . S
C992 C994 1.391 . S
C993 C992 1.386 . S
C993 C997 1.393 . S
C994 H983 0.950 . S
C994 C992 1.391 . S
C994 C995 1.400 . S
C995 C989 1.491 . S
C995 C994 1.400 . S
C995 C996 1.398 . S
C996 H984 0.950 . S
C996 C995 1.398 . S
C996 C997 1.391 . S
C997 H985 0.950 . S
C997 C993 1.393 . S
C997 C996 1.391 . S
H998 C1006 0.950 . S
H999 C1011 0.950 . S
H1000 C1008 0.950 . S
H1001 C1010 0.950 . S
H1002 C1012 0.950 . S
H1003 C1014 0.950 . S
H1004 C1016 0.950 . S
H1005 C1017 0.950 . S
C1006 H998 0.950 . S
C1006 C1007 1.386 . S
C1006 C1008 1.391 . S
C1007 C1006 1.386 . S
C1007 C1011 1.393 . S
C1008 H1000 0.950 . S
C1008 C1006 1.391 . S
C1008 C1009 1.400 . S
C1009 C1008 1.400 . S
C1009 C1010 1.398 . S
C1009 C1015 1.491 . S
C1010 H1001 0.950 . S
C1010 C1009 1.398 . S
C1010 C1011 1.391 . S
C1011 H999 0.950 . S
C1011 C1007 1.393 . S
C1011 C1010 1.391 . S
C1012 H1002 0.950 . S
C1012 C1013 1.386 . S
C1012 C1014 1.391 . S
C1013 C1012 1.386 . S
C1013 C1017 1.393 . S
C1014 H1003 0.950 . S
C1014 C1012 1.391 . S
C1014 C1015 1.400 . S
C1015 C1009 1.491 . S
C1015 C1014 1.400 . S
C1015 C1016 1.398 . S
C1016 H1004 0.950 . S
C1016 C1015 1.398 . S
C1016 C1017 1.391 . S
C1017 H1005 0.950 . S
C1017 C1013 1.393 . S
C1017 C1016 1.391 . S
H1018 C1026 0.950 . S
H1019 C1031 0.950 . S
H1020 C1028 0.950 . S
H1021 C1030 0.950 . S
H1022 C1032 0.950 . S
H1023 C1034 0.950 . S
H1024 C1036 0.950 . S
H1025 C1037 0.950 . S
C1026 H1018 0.950 . S
C1026 C1027 1.386 . S
C1026 C1028 1.391 . S
C1027 C1026 1.386 . S
C1027 C1031 1.393 . S
C1028 H1020 0.950 . S
C1028 C1026 1.391 . S
C1028 C1029 1.400 . S
C1029 C1028 1.400 . S
C1029 C1030 1.398 . S
C1029 C1035 1.491 . S
C1030 H1021 0.950 . S
C1030 C1029 1.398 . S
C1030 C1031 1.391 . S
C1031 H1019 0.950 . S
C1031 C1027 1.393 . S
C1031 C1030 1.391 . S
C1032 H1022 0.950 . S
C1032 C1033 1.386 . S
C1032 C1034 1.391 . S
C1033 C1032 1.386 . S
C1033 C1037 1.393 . S
C1034 H1023 0.950 . S
C1034 C1032 1.391 . S
C1034 C1035 1.400 . S
C1035 C1029 1.491 . S
C1035 C1034 1.400 . S
C1035 C1036 1.398 . S
C1036 H1024 0.950 . S
C1036 C1035 1.398 . S
C1036 C1037 1.391 . S
C1037 H1025 0.950 . S
C1037 C1033 1.393 . S
C1037 C1036 1.391 . S
H1038 C1046 0.950 . S
H1039 C1051 0.950 . S
H1040 C1048 0.950 . S
H1041 C1050 0.950 . S
H1042 C1052 0.950 . S
H1043 C1054 0.950 . S
H1044 C1056 0.950 . S
H1045 C1057 0.950 . S
C1046 H1038 0.950 . S
C1046 C1047 1.386 . S
C1046 C1048 1.391 . S
C1047 C1046 1.386 . S
C1047 C1051 1.393 . S
C1048 H1040 0.950 . S
C1048 C1046 1.391 . S
C1048 C1049 1.400 . S
C1049 C1048 1.400 . S
C1049 C1050 1.398 . S
C1049 C1055 1.491 . S
C1050 H1041 0.950 . S
C1050 C1049 1.398 . S
C1050 C1051 1.391 . S
C1051 H1039 0.950 . S
C1051 C1047 1.393 . S
C1051 C1050 1.391 . S
C1052 H1042 0.950 . S
C1052 C1053 1.386 . S
C1052 C1054 1.391 . S
C1053 C1052 1.386 . S
C1053 C1057 1.393 . S
C1054 H1043 0.950 . S
C1054 C1052 1.391 . S
C1054 C1055 1.400 . S
C1055 C1049 1.491 . S
C1055 C1054 1.400 . S
C1055 C1056 1.398 . S
C1056 H1044 0.950 . S
C1056 C1055 1.398 . S
C1056 C1057 1.391 . S
C1057 H1045 0.950 . S
C1057 C1053 1.393 . S
C1057 C1056 1.391 . S
H1058 C1066 0.950 . S
H1059 C1071 0.950 . S
H1060 C1068 0.950 . S
H1061 C1070 0.950 . S
H1062 C1072 0.950 . S
H1063 C1074 0.950 . S
H1064 C1076 0.950 . S
H1065 C1077 0.950 . S
C1066 H1058 0.950 . S
C1066 C1067 1.386 . S
C1066 C1068 1.391 . S
C1067 C1066 1.386 . S
C1067 C1071 1.393 . S
C1068 H1060 0.950 . S
C1068 C1066 1.391 . S
C1068 C1069 1.400 . S
C1069 C1068 1.400 . S
C1069 C1070 1.398 . S
C1069 C1075 1.491 . S
C1070 H1061 0.950 . S
C1070 C1069 1.398 . S
C1070 C1071 1.391 . S
C1071 H1059 0.950 . S
C1071 C1067 1.393 . S
C1071 C1070 1.391 . S
C1072 H1062 0.950 . S
C1072 C1073 1.386 . S
C1072 C1074 1.391 . S
C1073 C1072 1.386 . S
C1073 C1077 1.393 . S
C1074 H1063 0.950 . S
C1074 C1072 1.391 . S
C1074 C1075 1.400 . S
C1075 C1069 1.491 . S
C1075 C1074 1.400 . S
C1075 C1076 1.398 . S
C1076 H1064 0.950 . S
C1076 C1075 1.398 . S
C1076 C1077 1.391 . S
C1077 H1065 0.950 . S
C1077 C1073 1.393 . S
C1077 C1076 1.391 . S
H1078 C1086 0.950 . S
H1079 C1091 0.950 . S
H1080 C1088 0.950 . S
H1081 C1090 0.950 . S
H1082 C1092 0.950 . S
H1083 C1094 0.950 . S
H1084 C1096 0.950 . S
H1085 C1097 0.950 . S
C1086 H1078 0.950 . S
C1086 C1087 1.386 . S
C1086 C1088 1.391 . S
C1087 C1086 1.386 . S
C1087 C1091 1.393 . S
C1088 H1080 0.950 . S
C1088 C1086 1.391 . S
C1088 C1089 1.400 . S
C1089 C1088 1.400 . S
C1089 C1090 1.398 . S
C1089 C1095 1.491 . S
C1090 H1081 0.950 . S
C1090 C1089 1.398 . S
C1090 C1091 1.391 . S
C1091 H1079 0.950 . S
C1091 C1087 1.393 . S
C1091 C1090 1.391 . S
C1092 H1082 0.950 . S
C1092 C1093 1.386 . S
C1092 C1094 1.391 . S
C1093 C1092 1.386 . S
C1093 C1097 1.393 . S
C1094 H1083 0.950 . S
C1094 C1092 1.391 . S
C1094 C1095 1.400 . S
C1095 C1089 1.491 . S
C1095 C1094 1.400 . S
C1095 C1096 1.398 . S
C1096 H1084 0.950 . S
C1096 C1095 1.398 . S
C1096 C1097 1.391 . S
C1097 H1085 0.950 . S
C1097 C1093 1.393 . S
C1097 C1096 1.391 . S
H1098 C1106 0.950 . S
H1099 C1111 0.950 . S
H1100 C1108 0.950 . S
H1101 C1110 0.950 . S
H1102 C1112 0.950 . S
H1103 C1114 0.950 . S
H1104 C1116 0.950 . S
H1105 C1117 0.950 . S
C1106 H1098 0.950 . S
C1106 C1107 1.386 . S
C1106 C1108 1.391 . S
C1107 C1106 1.386 . S
C1107 C1111 1.393 . S
C1108 H1100 0.950 . S
C1108 C1106 1.391 . S
C1108 C1109 1.400 . S
C1109 C1108 1.400 . S
C1109 C1110 1.398 . S
C1109 C1115 1.491 . S
C1110 H1101 0.950 . S
C1110 C1109 1.398 . S
C1110 C1111 1.391 . S
C1111 H1099 0.950 . S
C1111 C1107 1.393 . S
C1111 C1110 1.391 . S
C1112 H1102 0.950 . S
C1112 C1113 1.386 . S
C1112 C1114 1.391 . S
C1113 C1112 1.386 . S
C1113 C1117 1.393 . S
C1114 H1103 0.950 . S
C1114 C1112 1.391 . S
C1114 C1115 1.400 . S
C1115 C1109 1.491 . S
C1115 C1114 1.400 . S
C1115 C1116 1.398 . S
C1116 H1104 0.950 . S
C1116 C1115 1.398 . S
C1116 C1117 1.391 . S
C1117 H1105 0.950 . S
C1117 C1113 1.393 . S
C1117 C1116 1.391 . S
C653 C342 1.537 . S
C647 C15 1.540 . S
C673 C411 1.535 . S
C667 C55 1.543 . S
C693 C349 1.572 . S
C687 C101 1.552 . S
C713 C412 1.581 . S
C707 C141 1.581 . S
C733 C465 1.516 . S
C727 C2 1.487 . S
C753 C501 1.520 . S
C747 C61 1.506 . S
C767 C95 1.600 . S
C773 C561 1.594 . S
C793 C624 1.516 . S
C787 C135 1.516 . S
C813 C464 1.502 . S
C807 C42 1.485 . S
C827 C82 1.512 . S
C833 C508 1.535 . S
C853 C554 1.591 . S
C847 C122 1.600 . S
C873 C623 1.534 . S
C867 C21 1.510 . S
C887 C162 1.580 . S
C893 C402 1.576 . S
C913 C359 1.561 . S
C907 C221 1.563 . S
C927 C255 1.546 . S
C933 C395 1.535 . S
C947 C282 1.504 . S
C953 C358 1.522 . S
C973 C570 1.596 . S
C967 C181 1.607 . S
C993 C614 1.526 . S
C987 C202 1.515 . S
C1013 C448 1.509 . S
C1007 C242 1.510 . S
C1027 C301 1.511 . S
C1033 C517 1.523 . S
C1053 C571 1.580 . S
C1047 C215 1.593 . S
C1073 C607 1.523 . S
C1067 C261 1.521 . S
C1093 C455 1.511 . S
C1087 C295 1.512 . S
C1107 C175 1.520 . S
C1113 C518 1.520 . S
