# Generated by pormake.
# Topology anh, (6,3)-cn, num edge types: 1
# Building blocks:
#     Node 0, Type 0, BuildingBlock: BETDEL_clean_sbu_0, # of connection points: 6
#     Node 1, Type 0, BuildingBlock: BETDEL_clean_sbu_0, # of connection points: 6
#     Node 2, Type 0, BuildingBlock: BETDEL_clean_sbu_0, # of connection points: 6
#     Node 3, Type 1, BuildingBlock: OLANEW_clean_sbu_2, # of connection points: 3
#     Node 4, Type 1, BuildingBlock: OLANEW_clean_sbu_2, # of connection points: 3
#     Node 5, Type 1, BuildingBlock: OLANEW_clean_sbu_2, # of connection points: 3
#     Node 6, Type 1, BuildingBlock: OLANEW_clean_sbu_2, # of connection points: 3
#     Node 7, Type 1, BuildingBlock: OLANEW_clean_sbu_2, # of connection points: 3
#     Node 8, Type 1, BuildingBlock: OLANEW_clean_sbu_2, # of connection points: 3
#     Edge 9, Type (0, 1), BuildingBlock: CIFDUS_clean_linker_0, # of connection points: 2
#     Edge 10, Type (0, 1), BuildingBlock: CIFDUS_clean_linker_0, # of connection points: 2
#     Edge 11, Type (0, 1), BuildingBlock: CIFDUS_clean_linker_0, # of connection points: 2
#     Edge 12, Type (0, 1), BuildingBlock: CIFDUS_clean_linker_0, # of connection points: 2
#     Edge 13, Type (0, 1), BuildingBlock: CIFDUS_clean_linker_0, # of connection points: 2
#     Edge 14, Type (0, 1), BuildingBlock: CIFDUS_clean_linker_0, # of connection points: 2
#     Edge 15, Type (0, 1), BuildingBlock: CIFDUS_clean_linker_0, # of connection points: 2
#     Edge 16, Type (0, 1), BuildingBlock: CIFDUS_clean_linker_0, # of connection points: 2
#     Edge 17, Type (0, 1), BuildingBlock: CIFDUS_clean_linker_0, # of connection points: 2
#     Edge 18, Type (0, 1), BuildingBlock: CIFDUS_clean_linker_0, # of connection points: 2
#     Edge 19, Type (0, 1), BuildingBlock: CIFDUS_clean_linker_0, # of connection points: 2
#     Edge 20, Type (0, 1), BuildingBlock: CIFDUS_clean_linker_0, # of connection points: 2
#     Edge 21, Type (0, 1), BuildingBlock: CIFDUS_clean_linker_0, # of connection points: 2
#     Edge 22, Type (0, 1), BuildingBlock: CIFDUS_clean_linker_0, # of connection points: 2
#     Edge 23, Type (0, 1), BuildingBlock: CIFDUS_clean_linker_0, # of connection points: 2
#     Edge 24, Type (0, 1), BuildingBlock: CIFDUS_clean_linker_0, # of connection points: 2
#     Edge 25, Type (0, 1), BuildingBlock: CIFDUS_clean_linker_0, # of connection points: 2
#     Edge 26, Type (0, 1), BuildingBlock: CIFDUS_clean_linker_0, # of connection points: 2
# Relax obj value: 0.087
# Max RMSD: 0.106
# Mean RMSD: 0.102
data_MOF--net-anh--node1-BETDEL_clean_sbu_0--node2-OLANEW_clean_sbu_2--edge1-CIFDUS_clean_linker_0
_symmetry_space_group_name_H-M    P1
_symmetry_Int_Tables_number       1
_symmetry_cell_setting            triclinic
loop_
_symmetry_equiv_pos_as_xyz
'x, y, z'
_cell_length_a     29.605907
_cell_length_b     29.572978
_cell_length_c     43.281747
_cell_angle_alpha  89.645057
_cell_angle_beta   89.680607
_cell_angle_gamma 120.12707
loop_
_atom_site_label
_atom_site_type_symbol
_atom_site_fract_x
_atom_site_fract_y
_atom_site_fract_z
_atom_type_partial_charge
Dy0 Dy 0.03885 0.47528 0.1755 0.0
C1 C 0.90277 0.55653 0.205 0.0
C2 C 0.11404 0.44918 0.16796 0.0
Dy3 Dy 0.97172 0.53186 0.17975 0.0
O4 O 0.10483 0.46675 0.19314 0.0
O5 O 0.08161 0.44527 0.1465 0.0
O6 O 0.00826 0.44174 0.2228 0.0
O7 O 0.01912 0.51525 0.21058 0.0
C8 C 0.0024 0.48054 0.23135 0.0
C9 C 0.98917 0.51818 0.12036 0.0
O10 O 0.05151 0.60044 0.18621 0.0
O11 O 0.09808 0.56091 0.16857 0.0
O12 O 0.937 0.58401 0.18358 0.0
O13 O 0.90749 0.51668 0.21291 0.0
O14 O 0.96344 0.5413 0.12855 0.0
O15 O 0.00292 0.50458 0.14445 0.0
O16 O 0.9606 0.40698 0.16436 0.0
O17 O 0.91248 0.44602 0.17992 0.0
C18 C 0.09564 0.60286 0.17707 0.0
C19 C 0.9156 0.40483 0.17076 0.0
Dy20 Dy 0.4507 0.00379 0.48744 0.0
C21 C 0.67141 0.13786 0.51828 0.0
C22 C 0.35678 0.93404 0.4628 0.0
Dy23 Dy 0.57366 0.06551 0.49917 0.0
O24 O 0.36431 0.97157 0.48146 0.0
O25 O 0.40117 0.93712 0.45629 0.0
O26 O 0.42532 0.99014 0.5381 0.0
O27 O 0.50291 0.02884 0.52556 0.0
C28 C 0.47274 0.01287 0.54842 0.0
C29 C 0.54315 0.03238 0.44155 0.0
O30 O 0.55294 0.98565 0.51573 0.0
O31 O 0.47558 0.94339 0.48796 0.0
O32 O 0.66118 0.10257 0.49748 0.0
O33 O 0.62804 0.13224 0.52937 0.0
O34 O 0.58553 0.03754 0.45364 0.0
O35 O 0.52193 0.04969 0.45963 0.0
O36 O 0.46612 0.08554 0.47955 0.0
O37 O 0.55493 0.12966 0.4923 0.0
C38 C 0.51369 0.94277 0.50368 0.0
C39 C 0.51128 0.1292 0.48452 0.0
Dy40 Dy 0.56703 0.57544 0.82513 0.0
C41 C 0.49089 0.35997 0.84621 0.0
C42 C 0.59241 0.67699 0.81579 0.0
Dy43 Dy 0.51146 0.45786 0.82955 0.0
O44 O 0.57144 0.6496 0.84063 0.0
O45 O 0.60075 0.64923 0.7958 0.0
O46 O 0.60417 0.5792 0.87093 0.0
O47 O 0.52816 0.51895 0.86238 0.0
C48 C 0.56449 0.53657 0.88169 0.0
C49 C 0.50936 0.49416 0.77355 0.0
O50 O 0.44516 0.46866 0.84441 0.0
O51 O 0.4815 0.54989 0.82062 0.0
O52 O 0.47141 0.3709 0.82238 0.0
O53 O 0.51951 0.40235 0.86162 0.0
O54 O 0.47208 0.45011 0.78457 0.0
O55 O 0.54805 0.51387 0.79141 0.0
O56 O 0.63785 0.56949 0.81525 0.0
O57 O 0.59622 0.48039 0.82572 0.0
C58 C 0.44112 0.5087 0.8339 0.0
C59 C 0.6389 0.52557 0.81911 0.0
O60 O 0.5499 0.01766 0.24574 0.0
Cd61 Cd 0.56838 0.02684 0.19008 0.0
O62 O 0.52177 0.93299 0.24907 0.0
Cd63 Cd 0.49845 0.91305 0.20101 0.0
O64 O 0.42833 0.85136 0.1787 0.0
C65 C 0.38498 0.84737 0.18654 0.0
O66 O 0.38542 0.88254 0.20515 0.0
C67 C 0.53632 0.97667 0.26189 0.0
C68 C 0.66584 0.11704 0.17912 0.0
O69 O 0.62334 0.1186 0.17905 0.0
O70 O 0.66241 0.07259 0.1838 0.0
O71 O 0.53708 0.50171 0.5719 0.0
Cd72 Cd 0.51838 0.49096 0.51658 0.0
O73 O 0.50306 0.55164 0.5818 0.0
Cd74 Cd 0.49816 0.57632 0.53509 0.0
O75 O 0.50624 0.65023 0.51899 0.0
C76 C 0.54425 0.69156 0.52999 0.0
O77 O 0.57759 0.68725 0.54794 0.0
C78 C 0.52323 0.52494 0.5911 0.0
C79 C 0.49959 0.39151 0.50005 0.0
O80 O 0.54549 0.43177 0.49836 0.0
O81 O 0.46203 0.39836 0.50879 0.0
O82 O 0.05031 0.49223 0.92881 0.0
Cd83 Cd 0.06569 0.47594 0.87527 0.0
O84 O 0.99715 0.52235 0.91793 0.0
Cd85 Cd 0.98414 0.51715 0.86808 0.0
O86 O 0.92284 0.52221 0.84245 0.0
C87 C 0.92338 0.56553 0.84203 0.0
O88 O 0.96325 0.60667 0.85425 0.0
C89 C 0.02196 0.511 0.93752 0.0
C90 C 0.15834 0.47269 0.86769 0.0
O91 O 0.1576 0.51529 0.86365 0.0
O92 O 0.11543 0.43167 0.87551 0.0
O93 O 0.01001 0.50026 0.43253 0.0
Cd94 Cd 0.03207 0.54378 0.48241 0.0
O95 O 0.96126 0.53447 0.42109 0.0
Cd96 Cd 0.94433 0.53247 0.47042 0.0
O97 O 0.89438 0.46864 0.50224 0.0
C98 C 0.89947 0.42843 0.50124 0.0
O99 O 0.93691 0.43022 0.48389 0.0
C100 C 0.9852 0.51093 0.41267 0.0
C101 C 0.12011 0.64241 0.47264 0.0
O102 O 0.12409 0.60187 0.47789 0.0
O103 O 0.07431 0.63689 0.47286 0.0
O104 O 0.559 0.03212 0.73749 0.0
Cd105 Cd 0.5826 0.03303 0.79153 0.0
O106 O 0.63248 0.10474 0.72734 0.0
Cd107 Cd 0.63683 0.12534 0.77601 0.0
O108 O 0.59785 0.15566 0.80531 0.0
C109 C 0.55078 0.14047 0.79812 0.0
O110 O 0.52921 0.10575 0.77615 0.0
C111 C 0.59103 0.06503 0.71793 0.0
C112 C 0.58261 0.94091 0.80544 0.0
O113 O 0.54365 0.94646 0.8127 0.0
O114 O 0.62199 0.97917 0.79195 0.0
O115 O 0.56415 0.49159 0.08358 0.0
Cd116 Cd 0.54496 0.4935 0.13846 0.0
O117 O 0.5283 0.53966 0.07369 0.0
Cd118 Cd 0.49492 0.53213 0.11926 0.0
O119 O 0.41512 0.4994 0.13506 0.0
C120 C 0.38151 0.47631 0.11408 0.0
O121 O 0.3977 0.47298 0.08631 0.0
C122 C 0.55262 0.51698 0.06452 0.0
C123 C 0.63838 0.53702 0.16994 0.0
O124 O 0.60777 0.48737 0.16926 0.0
O125 O 0.6239 0.56635 0.15656 0.0
H126 H 0.14979 0.43009 0.11449 0.0
H127 H 0.18181 0.45642 0.21188 0.0
H128 H 0.26617 0.46218 0.20421 0.0
H129 H 0.33451 0.4695 0.16916 0.0
H130 H 0.30395 0.44475 0.07152 0.0
H131 H 0.21523 0.42798 0.07999 0.0
C132 C 0.17491 0.43607 0.13404 0.0
C133 C 0.1601 0.44338 0.16359 0.0
C134 C 0.2238 0.44016 0.1294 0.0
C135 C 0.19272 0.45104 0.18883 0.0
C136 C 0.241 0.45452 0.18448 0.0
C137 C 0.30827 0.45986 0.14978 0.0
C138 C 0.32601 0.45921 0.11975 0.0
C139 C 0.25758 0.45075 0.15475 0.0
C140 C 0.29133 0.4459 0.09489 0.0
C141 C 0.24062 0.43643 0.09968 0.0
H142 H 0.69173 0.22898 0.54446 0.0
H143 H 0.76567 0.15378 0.49846 0.0
H144 H 0.84666 0.23779 0.49322 0.0
H145 H 0.89143 0.33339 0.49478 0.0
H146 H 0.8151 0.40945 0.53716 0.0
H147 H 0.74029 0.32436 0.55105 0.0
C148 C 0.72603 0.23085 0.53402 0.0
C149 C 0.72282 0.18545 0.5217 0.0
C150 C 0.77173 0.27957 0.53001 0.0
C151 C 0.76731 0.18832 0.50804 0.0
C152 C 0.81347 0.23638 0.50487 0.0
C153 C 0.85888 0.3315 0.50754 0.0
C154 C 0.85861 0.3778 0.51451 0.0
C155 C 0.81541 0.28247 0.51467 0.0
C156 C 0.81616 0.37447 0.53123 0.0
C157 C 0.77328 0.32578 0.53913 0.0
H158 H 0.54846 0.72204 0.84837 0.0
H159 H 0.65118 0.74862 0.77084 0.0
H160 H 0.65969 0.83464 0.76175 0.0
H161 H 0.63546 0.90094 0.77525 0.0
H162 H 0.52691 0.86967 0.85039 0.0
H163 H 0.52308 0.78665 0.86112 0.0
C164 C 0.57303 0.74684 0.82961 0.0
C165 C 0.59953 0.72945 0.81042 0.0
C166 C 0.57645 0.7952 0.8241 0.0
C167 C 0.63058 0.76146 0.78592 0.0
C168 C 0.63537 0.8105 0.78075 0.0
C169 C 0.61128 0.87603 0.79409 0.0
C170 C 0.58168 0.89142 0.81213 0.0
C171 C 0.60819 0.82763 0.7996 0.0
C172 C 0.54993 0.85856 0.83617 0.0
C173 C 0.54778 0.81116 0.84234 0.0
H174 H 0.87737 0.62659 0.18235 0.0
H175 H 0.82203 0.49191 0.24256 0.0
H176 H 0.73384 0.4785 0.24096 0.0
H177 H 0.67047 0.49446 0.21397 0.0
H178 H 0.7251 0.62847 0.15334 0.0
H179 H 0.81557 0.65329 0.16394 0.0
C180 C 0.8463 0.5954 0.19591 0.0
C181 C 0.85568 0.55954 0.21191 0.0
C182 C 0.7954 0.58723 0.19435 0.0
C183 C 0.81544 0.51961 0.22971 0.0
C184 C 0.76491 0.51166 0.22864 0.0
C185 C 0.70226 0.5298 0.20371 0.0
C186 C 0.69138 0.55895 0.18242 0.0
C187 C 0.75403 0.54349 0.20967 0.0
C188 C 0.73266 0.6052 0.16967 0.0
C189 C 0.78439 0.61924 0.17557 0.0
H190 H 0.34128 0.83961 0.44679 0.0
H191 H 0.25886 0.91991 0.47177 0.0
H192 H 0.17661 0.83614 0.47491 0.0
H193 H 0.13007 0.73937 0.47534 0.0
H194 H 0.21599 0.66052 0.45505 0.0
H195 H 0.29499 0.74432 0.44558 0.0
C196 C 0.30512 0.83893 0.45225 0.0
C197 C 0.30594 0.88582 0.4588 0.0
C198 C 0.25879 0.7907 0.45546 0.0
C199 C 0.25901 0.88426 0.46639 0.0
C200 C 0.21214 0.83637 0.46844 0.0
C201 C 0.16602 0.74061 0.46864 0.0
C202 C 0.16719 0.69374 0.4661 0.0
C203 C 0.21183 0.7892 0.46385 0.0
C204 C 0.21411 0.69597 0.45748 0.0
C205 C 0.2593 0.74389 0.45192 0.0
H206 H 0.43808 0.27037 0.81385 0.0
H207 H 0.55566 0.34474 0.88363 0.0
H208 H 0.58131 0.27865 0.87746 0.0
H209 H 0.5796 0.20846 0.84622 0.0
H210 H 0.46165 0.13424 0.77644 0.0
H211 H 0.42658 0.19093 0.7889 0.0
C212 C 0.46828 0.27117 0.82831 0.0
C213 C 0.49543 0.31266 0.84881 0.0
C214 C 0.48342 0.23354 0.82427 0.0
C215 C 0.53427 0.3132 0.86758 0.0
C216 C 0.54931 0.27567 0.86387 0.0
C217 C 0.54566 0.20408 0.83413 0.0
C218 C 0.52409 0.16796 0.80997 0.0
C219 C 0.52569 0.23705 0.84131 0.0
C220 C 0.47951 0.16213 0.7949 0.0
C221 C 0.45942 0.19466 0.80194 0.0
H222 H 0.58823 0.924 0.52761 0.0
H223 H 0.43555 0.847 0.48598 0.0
H224 H 0.43272 0.76356 0.48908 0.0
H225 H 0.4726 0.71164 0.50404 0.0
H226 H 0.62454 0.78739 0.5463 0.0
H227 H 0.62865 0.87178 0.54222 0.0
C228 C 0.55429 0.88897 0.5193 0.0
C229 C 0.51225 0.89207 0.50663 0.0
C230 C 0.55278 0.8407 0.52107 0.0
C231 C 0.46865 0.84612 0.49585 0.0
C232 C 0.4669 0.79817 0.49755 0.0
C233 C 0.50682 0.74663 0.51214 0.0
C234 C 0.54817 0.74311 0.52542 0.0
C235 C 0.5087 0.79496 0.51009 0.0
C236 C 0.59207 0.7889 0.53597 0.0
C237 C 0.59445 0.83723 0.53373 0.0
H238 H 0.738 0.60985 0.82166 0.0
H239 H 0.65291 0.44182 0.81306 0.0
H240 H 0.73398 0.43992 0.81628 0.0
H241 H 0.82798 0.48466 0.82613 0.0
H242 H 0.91332 0.65223 0.83672 0.0
H243 H 0.83366 0.65552 0.82776 0.0
C244 C 0.7373 0.57293 0.82003 0.0
C245 C 0.68925 0.52608 0.81738 0.0
C246 C 0.78421 0.57188 0.82244 0.0
C247 C 0.68916 0.47853 0.8154 0.0
C248 C 0.73559 0.47732 0.81724 0.0
C249 C 0.82939 0.52202 0.82604 0.0
C250 C 0.87661 0.56803 0.83235 0.0
C251 C 0.7832 0.52358 0.82147 0.0
C252 C 0.87752 0.61608 0.83213 0.0
C253 C 0.83189 0.61803 0.82707 0.0
H254 H 0.19218 0.62617 0.15597 0.0
H255 H 0.11006 0.69532 0.19971 0.0
H256 H 0.19176 0.77792 0.20439 0.0
H257 H 0.28709 0.82897 0.19914 0.0
H258 H 0.36965 0.76017 0.15572 0.0
H259 H 0.28708 0.67929 0.14758 0.0
C260 C 0.19198 0.65933 0.16638 0.0
C261 C 0.14487 0.65414 0.17773 0.0
C262 C 0.23926 0.70687 0.16912 0.0
C263 C 0.14557 0.69787 0.19087 0.0
C264 C 0.19238 0.74525 0.19361 0.0
C265 C 0.28709 0.7965 0.18763 0.0
C266 C 0.33466 0.8006 0.1783 0.0
C267 C 0.23954 0.74994 0.18326 0.0
C268 C 0.33372 0.75815 0.16322 0.0
C269 C 0.28649 0.71175 0.15866 0.0
H270 H 0.43287 0.15245 0.49037 0.0
H271 H 0.5983 0.22238 0.4723 0.0
H272 H 0.60836 0.30914 0.47335 0.0
H273 H 0.57211 0.36576 0.48319 0.0
H274 H 0.40757 0.29783 0.50307 0.0
H275 H 0.39528 0.2101 0.49727 0.0
C276 C 0.47089 0.18667 0.48618 0.0
C277 C 0.51476 0.18081 0.48148 0.0
C278 C 0.47675 0.23699 0.48738 0.0
C279 C 0.56389 0.22564 0.4763 0.0
C280 C 0.56978 0.27542 0.47688 0.0
C281 C 0.53341 0.33185 0.48598 0.0
C282 C 0.49094 0.33848 0.49375 0.0
C283 C 0.52676 0.28163 0.48305 0.0
C284 C 0.44106 0.29394 0.49719 0.0
C285 C 0.43399 0.24369 0.49392 0.0
H286 H 0.34765 0.43072 0.85694 0.0
H287 H 0.42272 0.58797 0.81969 0.0
H288 H 0.34262 0.59077 0.82709 0.0
H289 H 0.25133 0.54928 0.84441 0.0
H290 H 0.17506 0.39165 0.88085 0.0
H291 H 0.25535 0.38848 0.87353 0.0
C292 C 0.34649 0.46556 0.85038 0.0
C293 C 0.39138 0.50901 0.83777 0.0
C294 C 0.3 0.46699 0.85461 0.0
C295 C 0.38893 0.55379 0.82937 0.0
C296 C 0.34306 0.55556 0.83365 0.0
C297 C 0.25222 0.51422 0.8508 0.0
C298 C 0.20718 0.47086 0.86325 0.0
C299 C 0.29841 0.51249 0.84632 0.0
C300 C 0.20909 0.42565 0.87122 0.0
C301 C 0.25505 0.42379 0.86704 0.0
H302 H 0.89973 0.3049 0.17199 0.0
H303 H 0.81864 0.39176 0.16466 0.0
H304 H 0.73509 0.31083 0.16515 0.0
H305 H 0.68428 0.21584 0.17027 0.0
H306 H 0.76332 0.12735 0.17895 0.0
H307 H 0.84795 0.20809 0.17517 0.0
C308 C 0.86378 0.30601 0.17016 0.0
C309 C 0.86566 0.35451 0.16848 0.0
C310 C 0.81528 0.25895 0.17088 0.0
C311 C 0.81857 0.35516 0.16629 0.0
C312 C 0.77058 0.3088 0.16653 0.0
C313 C 0.71995 0.21404 0.17115 0.0
C314 C 0.71729 0.16552 0.175 0.0
C315 C 0.76839 0.26056 0.16928 0.0
C316 C 0.76409 0.16413 0.17606 0.0
C317 C 0.81259 0.21035 0.17393 0.0
H318 H 0.96434 0.55379 0.07013 0.0
H319 H 0.04241 0.47075 0.09828 0.0
H320 H 0.06167 0.46258 0.04395 0.0
H321 H 0.05406 0.4779 0.98811 0.0
H322 H 0.97474 0.56126 0.96186 0.0
H323 H 0.9585 0.57056 0.01577 0.0
C324 C 0.98564 0.53393 0.06442 0.0
C325 C 0.00188 0.51281 0.08807 0.0
C326 C 0.99638 0.52949 0.03342 0.0
C327 C 0.02954 0.4873 0.08037 0.0
C328 C 0.04051 0.48266 0.04934 0.0
C329 C 0.03359 0.49837 0.99423 0.0
C330 C 0.01557 0.51863 0.97079 0.0
C331 C 0.02389 0.5035 0.02559 0.0
C332 C 0.98892 0.54497 0.97923 0.0
C333 C 0.97949 0.5504 0.01013 0.0
H334 H 0.56384 0.97114 0.40574 0.0
H335 H 0.49713 0.07137 0.40366 0.0
H336 H 0.48983 0.06378 0.34727 0.0
H337 H 0.5073 0.03225 0.29832 0.0
H338 H 0.56751 0.92641 0.30132 0.0
H339 H 0.57274 0.93255 0.35765 0.0
C340 C 0.54716 0.99078 0.39288 0.0
C341 C 0.53147 0.02208 0.40853 0.0
C342 C 0.54252 0.98564 0.36071 0.0
C343 C 0.50933 0.04696 0.39193 0.0
C344 C 0.50553 0.04292 0.35974 0.0
C345 C 0.52154 0.01064 0.31142 0.0
C346 C 0.53782 0.97961 0.29586 0.0
C347 C 0.52291 0.01312 0.34384 0.0
C348 C 0.55509 0.95075 0.31293 0.0
C349 C 0.55806 0.95424 0.34506 0.0
H350 H 0.57434 0.49611 0.72896 0.0
H351 H 0.44595 0.5224 0.74607 0.0
H352 H 0.44079 0.53738 0.69078 0.0
H353 H 0.46943 0.53769 0.63759 0.0
H354 H 0.59215 0.50278 0.61962 0.0
H355 H 0.60288 0.496 0.67519 0.0
C356 C 0.54599 0.50606 0.72042 0.0
C357 C 0.51112 0.5092 0.74115 0.0
C358 C 0.54184 0.51225 0.68856 0.0
C359 C 0.47345 0.52057 0.73022 0.0
C360 C 0.47036 0.52879 0.69872 0.0
C361 C 0.49875 0.5289 0.64583 0.0
C362 C 0.53 0.5208 0.62458 0.0
C363 C 0.50379 0.52388 0.67766 0.0
C364 C 0.56741 0.50886 0.63557 0.0
C365 C 0.5737 0.50519 0.66731 0.0
H366 H 0.57007 0.06659 0.57276 0.0
H367 H 0.40777 0.96713 0.59725 0.0
H368 H 0.43045 0.9722 0.65176 0.0
H369 H 0.49591 0.00636 0.69247 0.0
H370 H 0.65795 0.1104 0.66884 0.0
H371 H 0.63602 0.1023 0.61394 0.0
C372 C 0.53983 0.04631 0.59009 0.0
C373 C 0.48741 0.01679 0.58114 0.0
C374 C 0.5531 0.05017 0.62146 0.0
C375 C 0.44842 0.99031 0.60369 0.0
C376 C 0.46134 0.99312 0.63483 0.0
C377 C 0.52652 0.02695 0.67531 0.0
C378 C 0.57849 0.05868 0.68467 0.0
C379 C 0.5135 0.02307 0.64397 0.0
C380 C 0.61762 0.0857 0.66219 0.0
C381 C 0.60511 0.08111 0.63082 0.0
H382 H 0.63076 0.54004 0.92619 0.0
H383 H 0.4745 0.51117 0.91124 0.0
H384 H 0.45738 0.50215 0.96665 0.0
H385 H 0.48762 0.50628 0.01922 0.0
H386 H 0.64038 0.52751 0.03582 0.0
H387 H 0.65818 0.53501 0.97984 0.0
C388 C 0.59296 0.5313 0.93525 0.0
C389 C 0.55404 0.52657 0.91492 0.0
C390 C 0.58286 0.52488 0.96725 0.0
C391 C 0.50493 0.51477 0.92657 0.0
C392 C 0.49515 0.50982 0.95821 0.0
C393 C 0.52477 0.5124 0.01052 0.0
C394 C 0.56303 0.51724 0.03129 0.0
C395 C 0.53398 0.51542 0.9787 0.0
C396 C 0.61055 0.52393 0.02 0.0
C397 C 0.62069 0.52837 0.98812 0.0
H398 H 0.99727 0.42444 0.28214 0.0
H399 H 0.9867 0.55821 0.25233 0.0
H400 H 0.97565 0.57686 0.30589 0.0
H401 H 0.97463 0.55828 0.3615 0.0
H402 H 0.99469 0.42999 0.39122 0.0
H403 H 0.99676 0.4062 0.33751 0.0
C404 C 0.99195 0.4573 0.28739 0.0
C405 C 0.99197 0.48943 0.26339 0.0
C406 C 0.98794 0.46909 0.31827 0.0
C407 C 0.98593 0.53241 0.27045 0.0
C408 C 0.98001 0.54332 0.30107 0.0
C409 C 0.97901 0.52488 0.35615 0.0
C410 C 0.98448 0.4959 0.38018 0.0
C411 C 0.98171 0.51236 0.3252 0.0
C412 C 0.99074 0.45307 0.37303 0.0
C413 C 0.99181 0.43937 0.34236 0.0
loop_
_geom_bond_atom_site_label_1
_geom_bond_atom_site_label_2
_geom_bond_distance
_geom_bond_site_symmetry_2
_ccdc_geom_bond_type
Dy0 O4 2.398 . S
Dy0 O5 2.491 . S
Dy0 O6 2.403 . S
Dy0 O7 2.664 . S
Dy0 O11 2.326 . S
Dy0 O15 2.310 . S
Dy0 O16 2.351 1_455 S
C1 O12 1.185 . S
C1 O13 1.355 . S
C2 O4 1.185 . S
C2 O5 1.355 . S
Dy3 O7 2.310 1_655 S
Dy3 O10 2.351 1_655 S
Dy3 O12 2.398 . S
Dy3 O13 2.491 . S
Dy3 O14 2.403 . S
Dy3 O15 2.664 1_655 S
Dy3 O17 2.326 . S
O4 Dy0 2.398 . S
O4 C2 1.185 . S
O5 Dy0 2.491 . S
O5 C2 1.355 . S
O6 Dy0 2.403 . S
O6 C8 1.254 . S
O7 Dy0 2.664 . S
O7 Dy3 2.310 1_455 S
O7 C8 1.268 . S
C8 O6 1.254 . S
C8 O7 1.268 . S
C9 O14 1.254 1_455 S
C9 O15 1.268 . S
O10 Dy3 2.351 1_455 S
O10 C18 1.249 . S
O11 Dy0 2.326 . S
O11 C18 1.267 . S
O12 C1 1.185 . S
O12 Dy3 2.398 . S
O13 C1 1.355 . S
O13 Dy3 2.491 . S
O14 Dy3 2.403 . S
O14 C9 1.254 1_655 S
O15 Dy0 2.310 . S
O15 Dy3 2.664 1_455 S
O15 C9 1.268 . S
O16 Dy0 2.351 1_655 S
O16 C19 1.249 . S
O17 Dy3 2.326 . S
O17 C19 1.267 . S
C18 O10 1.249 . S
C18 O11 1.267 . S
C19 O16 1.249 . S
C19 O17 1.267 . S
Dy20 O24 2.398 . S
Dy20 O25 2.491 . S
Dy20 O26 2.403 . S
Dy20 O27 2.664 1_565 S
Dy20 O31 2.326 . S
Dy20 O35 2.310 1_565 S
Dy20 O36 2.351 1_565 S
C21 O32 1.185 . S
C21 O33 1.355 . S
C22 O24 1.185 . S
C22 O25 1.355 . S
Dy23 O27 2.310 . S
Dy23 O30 2.351 1_545 S
Dy23 O32 2.398 . S
Dy23 O33 2.491 . S
Dy23 O34 2.403 . S
Dy23 O35 2.664 . S
Dy23 O37 2.326 . S
O24 Dy20 2.398 . S
O24 C22 1.185 . S
O25 Dy20 2.491 . S
O25 C22 1.355 . S
O26 Dy20 2.403 . S
O26 C28 1.254 1_565 S
O27 Dy20 2.664 1_545 S
O27 Dy23 2.310 . S
O27 C28 1.268 . S
C28 O26 1.254 1_545 S
C28 O27 1.268 . S
C29 O34 1.254 . S
C29 O35 1.268 . S
O30 Dy23 2.351 1_565 S
O30 C38 1.249 . S
O31 Dy20 2.326 . S
O31 C38 1.267 . S
O32 C21 1.185 . S
O32 Dy23 2.398 . S
O33 C21 1.355 . S
O33 Dy23 2.491 . S
O34 Dy23 2.403 . S
O34 C29 1.254 . S
O35 Dy20 2.310 1_545 S
O35 Dy23 2.664 . S
O35 C29 1.268 . S
O36 Dy20 2.351 1_545 S
O36 C39 1.249 . S
O37 Dy23 2.326 . S
O37 C39 1.267 . S
C38 O30 1.249 . S
C38 O31 1.267 . S
C39 O36 1.249 . S
C39 O37 1.267 . S
Dy40 O44 2.398 . S
Dy40 O45 2.491 . S
Dy40 O46 2.403 . S
Dy40 O47 2.664 . S
Dy40 O51 2.326 . S
Dy40 O55 2.310 . S
Dy40 O56 2.351 . S
C41 O52 1.185 . S
C41 O53 1.355 . S
C42 O44 1.185 . S
C42 O45 1.355 . S
Dy43 O47 2.310 . S
Dy43 O50 2.351 . S
Dy43 O52 2.398 . S
Dy43 O53 2.491 . S
Dy43 O54 2.403 . S
Dy43 O55 2.664 . S
Dy43 O57 2.326 . S
O44 Dy40 2.398 . S
O44 C42 1.185 . S
O45 Dy40 2.491 . S
O45 C42 1.355 . S
O46 Dy40 2.403 . S
O46 C48 1.254 . S
O47 Dy40 2.664 . S
O47 Dy43 2.310 . S
O47 C48 1.268 . S
C48 O46 1.254 . S
C48 O47 1.268 . S
C49 O54 1.254 . S
C49 O55 1.268 . S
O50 Dy43 2.351 . S
O50 C58 1.249 . S
O51 Dy40 2.326 . S
O51 C58 1.267 . S
O52 C41 1.185 . S
O52 Dy43 2.398 . S
O53 C41 1.355 . S
O53 Dy43 2.491 . S
O54 Dy43 2.403 . S
O54 C49 1.254 . S
O55 Dy40 2.310 . S
O55 Dy43 2.664 . S
O55 C49 1.268 . S
O56 Dy40 2.351 . S
O56 C59 1.249 . S
O57 Dy43 2.326 . S
O57 C59 1.267 . S
C58 O50 1.249 . S
C58 O51 1.267 . S
C59 O56 1.249 . S
C59 O57 1.267 . S
O60 Cd61 2.300 . S
O60 C67 1.275 1_545 S
Cd61 O60 2.300 . S
Cd61 O69 2.381 . S
Cd61 O70 2.378 . S
O62 Cd63 2.385 . S
O62 C67 1.255 . S
Cd63 O62 2.385 . S
Cd63 O64 2.317 . S
O64 Cd63 2.317 . S
O64 C65 1.232 . S
C65 O64 1.232 . S
C65 O66 1.218 . S
O66 C65 1.218 . S
C67 O60 1.275 1_565 S
C67 O62 1.255 . S
C68 O69 1.258 . S
C68 O70 1.256 . S
O69 Cd61 2.381 . S
O69 C68 1.258 . S
O70 Cd61 2.378 . S
O70 C68 1.256 . S
O71 Cd72 2.300 . S
O71 C78 1.275 . S
Cd72 O71 2.300 . S
Cd72 O80 2.381 . S
Cd72 O81 2.378 . S
O73 Cd74 2.385 . S
O73 C78 1.255 . S
Cd74 O73 2.385 . S
Cd74 O75 2.317 . S
O75 Cd74 2.317 . S
O75 C76 1.232 . S
C76 O75 1.232 . S
C76 O77 1.218 . S
O77 C76 1.218 . S
C78 O71 1.275 . S
C78 O73 1.255 . S
C79 O80 1.258 . S
C79 O81 1.256 . S
O80 Cd72 2.381 . S
O80 C79 1.258 . S
O81 Cd72 2.378 . S
O81 C79 1.256 . S
O82 Cd83 2.300 . S
O82 C89 1.275 . S
Cd83 O82 2.300 . S
Cd83 O91 2.381 . S
Cd83 O92 2.378 . S
O84 Cd85 2.385 1_455 S
O84 C89 1.255 . S
Cd85 O84 2.385 1_655 S
Cd85 O86 2.317 . S
O86 Cd85 2.317 . S
O86 C87 1.232 . S
C87 O86 1.232 . S
C87 O88 1.218 . S
O88 C87 1.218 . S
C89 O82 1.275 . S
C89 O84 1.255 . S
C90 O91 1.258 . S
C90 O92 1.256 . S
O91 Cd83 2.381 . S
O91 C90 1.258 . S
O92 Cd83 2.378 . S
O92 C90 1.256 . S
O93 Cd94 2.300 . S
O93 C100 1.272 1_455 S
Cd94 O93 2.300 . S
Cd94 O102 2.381 . S
Cd94 O103 2.378 . S
O95 Cd96 2.385 . S
O95 C100 1.259 . S
Cd96 O95 2.385 . S
Cd96 O97 2.317 . S
O97 Cd96 2.317 . S
O97 C98 1.232 . S
C98 O97 1.232 . S
C98 O99 1.218 . S
O99 C98 1.218 . S
C100 O93 1.272 1_655 S
C100 O95 1.259 . S
C101 O102 1.258 . S
C101 O103 1.256 . S
O102 Cd94 2.381 . S
O102 C101 1.258 . S
O103 Cd94 2.378 . S
O103 C101 1.256 . S
O104 Cd105 2.300 1_565 S
O104 C111 1.275 1_565 S
Cd105 O104 2.300 1_545 S
Cd105 O113 2.381 1_545 S
Cd105 O114 2.378 1_545 S
O106 Cd107 2.385 . S
O106 C111 1.255 . S
Cd107 O106 2.385 . S
Cd107 O108 2.317 . S
O108 Cd107 2.317 . S
O108 C109 1.232 . S
C109 O108 1.232 . S
C109 O110 1.218 . S
O110 C109 1.218 . S
C111 O104 1.275 1_545 S
C111 O106 1.255 . S
C112 O113 1.258 . S
C112 O114 1.256 . S
O113 Cd105 2.381 1_565 S
O113 C112 1.258 . S
O114 Cd105 2.378 1_565 S
O114 C112 1.256 . S
O115 Cd116 2.300 . S
O115 C122 1.275 . S
Cd116 O115 2.300 . S
Cd116 O124 2.381 . S
Cd116 O125 2.378 . S
O117 Cd118 2.385 . S
O117 C122 1.255 . S
Cd118 O117 2.385 . S
Cd118 O119 2.317 . S
O119 Cd118 2.317 . S
O119 C120 1.232 . S
C120 O119 1.232 . S
C120 O121 1.218 . S
O121 C120 1.218 . S
C122 O115 1.275 . S
C122 O117 1.255 . S
C123 O124 1.258 . S
C123 O125 1.256 . S
O124 Cd116 2.381 . S
O124 C123 1.258 . S
O125 Cd116 2.378 . S
O125 C123 1.256 . S
H126 C132 0.930 . S
H127 C135 0.930 . S
H128 C136 0.930 . S
H129 C137 0.930 . S
H130 C140 0.930 . S
H131 C141 0.930 . S
C132 H126 0.930 . S
C132 C133 1.355 . S
C132 C134 1.415 . S
C133 C132 1.355 . S
C133 C135 1.419 . S
C134 C132 1.415 . S
C134 C139 1.425 . S
C134 C141 1.409 . S
C135 H127 0.930 . S
C135 C133 1.419 . S
C135 C136 1.362 . S
C136 H128 0.930 . S
C136 C135 1.362 . S
C136 C139 1.409 . S
C137 H129 0.930 . S
C137 C138 1.355 . S
C137 C139 1.415 . S
C138 C137 1.355 . S
C138 C140 1.419 . S
C139 C134 1.425 . S
C139 C136 1.409 . S
C139 C137 1.415 . S
C140 H130 0.930 . S
C140 C138 1.419 . S
C140 C141 1.362 . S
C141 H131 0.930 . S
C141 C134 1.409 . S
C141 C140 1.362 . S
H142 C148 0.930 . S
H143 C151 0.930 . S
H144 C152 0.930 . S
H145 C153 0.930 . S
H146 C156 0.930 . S
H147 C157 0.930 . S
C148 H142 0.930 . S
C148 C149 1.355 . S
C148 C150 1.415 . S
C149 C148 1.355 . S
C149 C151 1.419 . S
C150 C148 1.415 . S
C150 C155 1.425 . S
C150 C157 1.409 . S
C151 H143 0.930 . S
C151 C149 1.419 . S
C151 C152 1.362 . S
C152 H144 0.930 . S
C152 C151 1.362 . S
C152 C155 1.409 . S
C153 H145 0.930 . S
C153 C154 1.355 . S
C153 C155 1.415 . S
C154 C153 1.355 . S
C154 C156 1.419 . S
C155 C150 1.425 . S
C155 C152 1.409 . S
C155 C153 1.415 . S
C156 H146 0.930 . S
C156 C154 1.419 . S
C156 C157 1.362 . S
C157 H147 0.930 . S
C157 C150 1.409 . S
C157 C156 1.362 . S
H158 C164 0.930 . S
H159 C167 0.930 . S
H160 C168 0.930 . S
H161 C169 0.930 . S
H162 C172 0.930 . S
H163 C173 0.930 . S
C164 H158 0.930 . S
C164 C165 1.355 . S
C164 C166 1.415 . S
C165 C164 1.355 . S
C165 C167 1.419 . S
C166 C164 1.415 . S
C166 C171 1.425 . S
C166 C173 1.409 . S
C167 H159 0.930 . S
C167 C165 1.419 . S
C167 C168 1.362 . S
C168 H160 0.930 . S
C168 C167 1.362 . S
C168 C171 1.409 . S
C169 H161 0.930 . S
C169 C170 1.355 . S
C169 C171 1.415 . S
C170 C169 1.355 . S
C170 C172 1.419 . S
C171 C166 1.425 . S
C171 C168 1.409 . S
C171 C169 1.415 . S
C172 H162 0.930 . S
C172 C170 1.419 . S
C172 C173 1.362 . S
C173 H163 0.930 . S
C173 C166 1.409 . S
C173 C172 1.362 . S
H174 C180 0.930 . S
H175 C183 0.930 . S
H176 C184 0.930 . S
H177 C185 0.930 . S
H178 C188 0.930 . S
H179 C189 0.930 . S
C180 H174 0.930 . S
C180 C181 1.355 . S
C180 C182 1.415 . S
C181 C180 1.355 . S
C181 C183 1.419 . S
C182 C180 1.415 . S
C182 C187 1.425 . S
C182 C189 1.409 . S
C183 H175 0.930 . S
C183 C181 1.419 . S
C183 C184 1.362 . S
C184 H176 0.930 . S
C184 C183 1.362 . S
C184 C187 1.409 . S
C185 H177 0.930 . S
C185 C186 1.355 . S
C185 C187 1.415 . S
C186 C185 1.355 . S
C186 C188 1.419 . S
C187 C182 1.425 . S
C187 C184 1.409 . S
C187 C185 1.415 . S
C188 H178 0.930 . S
C188 C186 1.419 . S
C188 C189 1.362 . S
C189 H179 0.930 . S
C189 C182 1.409 . S
C189 C188 1.362 . S
H190 C196 0.930 . S
H191 C199 0.930 . S
H192 C200 0.930 . S
H193 C201 0.930 . S
H194 C204 0.930 . S
H195 C205 0.930 . S
C196 H190 0.930 . S
C196 C197 1.355 . S
C196 C198 1.415 . S
C197 C196 1.355 . S
C197 C199 1.419 . S
C198 C196 1.415 . S
C198 C203 1.425 . S
C198 C205 1.409 . S
C199 H191 0.930 . S
C199 C197 1.419 . S
C199 C200 1.362 . S
C200 H192 0.930 . S
C200 C199 1.362 . S
C200 C203 1.409 . S
C201 H193 0.930 . S
C201 C202 1.355 . S
C201 C203 1.415 . S
C202 C201 1.355 . S
C202 C204 1.419 . S
C203 C198 1.425 . S
C203 C200 1.409 . S
C203 C201 1.415 . S
C204 H194 0.930 . S
C204 C202 1.419 . S
C204 C205 1.362 . S
C205 H195 0.930 . S
C205 C198 1.409 . S
C205 C204 1.362 . S
H206 C212 0.930 . S
H207 C215 0.930 . S
H208 C216 0.930 . S
H209 C217 0.930 . S
H210 C220 0.930 . S
H211 C221 0.930 . S
C212 H206 0.930 . S
C212 C213 1.355 . S
C212 C214 1.415 . S
C213 C212 1.355 . S
C213 C215 1.419 . S
C214 C212 1.415 . S
C214 C219 1.425 . S
C214 C221 1.409 . S
C215 H207 0.930 . S
C215 C213 1.419 . S
C215 C216 1.362 . S
C216 H208 0.930 . S
C216 C215 1.362 . S
C216 C219 1.409 . S
C217 H209 0.930 . S
C217 C218 1.355 . S
C217 C219 1.415 . S
C218 C217 1.355 . S
C218 C220 1.419 . S
C219 C214 1.425 . S
C219 C216 1.409 . S
C219 C217 1.415 . S
C220 H210 0.930 . S
C220 C218 1.419 . S
C220 C221 1.362 . S
C221 H211 0.930 . S
C221 C214 1.409 . S
C221 C220 1.362 . S
H222 C228 0.930 . S
H223 C231 0.930 . S
H224 C232 0.930 . S
H225 C233 0.930 . S
H226 C236 0.930 . S
H227 C237 0.930 . S
C228 H222 0.930 . S
C228 C229 1.355 . S
C228 C230 1.415 . S
C229 C228 1.355 . S
C229 C231 1.419 . S
C230 C228 1.415 . S
C230 C235 1.425 . S
C230 C237 1.409 . S
C231 H223 0.930 . S
C231 C229 1.419 . S
C231 C232 1.362 . S
C232 H224 0.930 . S
C232 C231 1.362 . S
C232 C235 1.409 . S
C233 H225 0.930 . S
C233 C234 1.355 . S
C233 C235 1.415 . S
C234 C233 1.355 . S
C234 C236 1.419 . S
C235 C230 1.425 . S
C235 C232 1.409 . S
C235 C233 1.415 . S
C236 H226 0.930 . S
C236 C234 1.419 . S
C236 C237 1.362 . S
C237 H227 0.930 . S
C237 C230 1.409 . S
C237 C236 1.362 . S
H238 C244 0.930 . S
H239 C247 0.930 . S
H240 C248 0.930 . S
H241 C249 0.930 . S
H242 C252 0.930 . S
H243 C253 0.930 . S
C244 H238 0.930 . S
C244 C245 1.355 . S
C244 C246 1.415 . S
C245 C244 1.355 . S
C245 C247 1.419 . S
C246 C244 1.415 . S
C246 C251 1.425 . S
C246 C253 1.409 . S
C247 H239 0.930 . S
C247 C245 1.419 . S
C247 C248 1.362 . S
C248 H240 0.930 . S
C248 C247 1.362 . S
C248 C251 1.409 . S
C249 H241 0.930 . S
C249 C250 1.355 . S
C249 C251 1.415 . S
C250 C249 1.355 . S
C250 C252 1.419 . S
C251 C246 1.425 . S
C251 C248 1.409 . S
C251 C249 1.415 . S
C252 H242 0.930 . S
C252 C250 1.419 . S
C252 C253 1.362 . S
C253 H243 0.930 . S
C253 C246 1.409 . S
C253 C252 1.362 . S
H254 C260 0.930 . S
H255 C263 0.930 . S
H256 C264 0.930 . S
H257 C265 0.930 . S
H258 C268 0.930 . S
H259 C269 0.930 . S
C260 H254 0.930 . S
C260 C261 1.355 . S
C260 C262 1.415 . S
C261 C260 1.355 . S
C261 C263 1.419 . S
C262 C260 1.415 . S
C262 C267 1.425 . S
C262 C269 1.409 . S
C263 H255 0.930 . S
C263 C261 1.419 . S
C263 C264 1.362 . S
C264 H256 0.930 . S
C264 C263 1.362 . S
C264 C267 1.409 . S
C265 H257 0.930 . S
C265 C266 1.355 . S
C265 C267 1.415 . S
C266 C265 1.355 . S
C266 C268 1.419 . S
C267 C262 1.425 . S
C267 C264 1.409 . S
C267 C265 1.415 . S
C268 H258 0.930 . S
C268 C266 1.419 . S
C268 C269 1.362 . S
C269 H259 0.930 . S
C269 C262 1.409 . S
C269 C268 1.362 . S
H270 C276 0.930 . S
H271 C279 0.930 . S
H272 C280 0.930 . S
H273 C281 0.930 . S
H274 C284 0.930 . S
H275 C285 0.930 . S
C276 H270 0.930 . S
C276 C277 1.355 . S
C276 C278 1.415 . S
C277 C276 1.355 . S
C277 C279 1.419 . S
C278 C276 1.415 . S
C278 C283 1.425 . S
C278 C285 1.409 . S
C279 H271 0.930 . S
C279 C277 1.419 . S
C279 C280 1.362 . S
C280 H272 0.930 . S
C280 C279 1.362 . S
C280 C283 1.409 . S
C281 H273 0.930 . S
C281 C282 1.355 . S
C281 C283 1.415 . S
C282 C281 1.355 . S
C282 C284 1.419 . S
C283 C278 1.425 . S
C283 C280 1.409 . S
C283 C281 1.415 . S
C284 H274 0.930 . S
C284 C282 1.419 . S
C284 C285 1.362 . S
C285 H275 0.930 . S
C285 C278 1.409 . S
C285 C284 1.362 . S
H286 C292 0.930 . S
H287 C295 0.930 . S
H288 C296 0.930 . S
H289 C297 0.930 . S
H290 C300 0.930 . S
H291 C301 0.930 . S
C292 H286 0.930 . S
C292 C293 1.355 . S
C292 C294 1.415 . S
C293 C292 1.355 . S
C293 C295 1.419 . S
C294 C292 1.415 . S
C294 C299 1.425 . S
C294 C301 1.409 . S
C295 H287 0.930 . S
C295 C293 1.419 . S
C295 C296 1.362 . S
C296 H288 0.930 . S
C296 C295 1.362 . S
C296 C299 1.409 . S
C297 H289 0.930 . S
C297 C298 1.355 . S
C297 C299 1.415 . S
C298 C297 1.355 . S
C298 C300 1.419 . S
C299 C294 1.425 . S
C299 C296 1.409 . S
C299 C297 1.415 . S
C300 H290 0.930 . S
C300 C298 1.419 . S
C300 C301 1.362 . S
C301 H291 0.930 . S
C301 C294 1.409 . S
C301 C300 1.362 . S
H302 C308 0.930 . S
H303 C311 0.930 . S
H304 C312 0.930 . S
H305 C313 0.930 . S
H306 C316 0.930 . S
H307 C317 0.930 . S
C308 H302 0.930 . S
C308 C309 1.355 . S
C308 C310 1.415 . S
C309 C308 1.355 . S
C309 C311 1.419 . S
C310 C308 1.415 . S
C310 C315 1.425 . S
C310 C317 1.409 . S
C311 H303 0.930 . S
C311 C309 1.419 . S
C311 C312 1.362 . S
C312 H304 0.930 . S
C312 C311 1.362 . S
C312 C315 1.409 . S
C313 H305 0.930 . S
C313 C314 1.355 . S
C313 C315 1.415 . S
C314 C313 1.355 . S
C314 C316 1.419 . S
C315 C310 1.425 . S
C315 C312 1.409 . S
C315 C313 1.415 . S
C316 H306 0.930 . S
C316 C314 1.419 . S
C316 C317 1.362 . S
C317 H307 0.930 . S
C317 C310 1.409 . S
C317 C316 1.362 . S
H318 C324 0.930 1_655 S
H319 C327 0.930 . S
H320 C328 0.930 . S
H321 C329 0.930 . S
H322 C332 0.930 . S
H323 C333 0.930 . S
C324 H318 0.930 1_455 S
C324 C325 1.355 . S
C324 C326 1.415 . S
C325 C324 1.355 . S
C325 C327 1.419 . S
C326 C324 1.415 . S
C326 C331 1.425 . S
C326 C333 1.409 1_455 S
C327 H319 0.930 . S
C327 C325 1.419 . S
C327 C328 1.362 . S
C328 H320 0.930 . S
C328 C327 1.362 . S
C328 C331 1.409 . S
C329 H321 0.930 . S
C329 C330 1.355 . S
C329 C331 1.415 1_556 S
C330 C329 1.355 . S
C330 C332 1.419 1_455 S
C331 C326 1.425 . S
C331 C328 1.409 . S
C331 C329 1.415 1_554 S
C332 H322 0.930 . S
C332 C330 1.419 1_655 S
C332 C333 1.362 1_556 S
C333 H323 0.930 . S
C333 C326 1.409 1_655 S
C333 C332 1.362 1_554 S
H334 C340 0.930 . S
H335 C343 0.930 . S
H336 C344 0.930 . S
H337 C345 0.930 . S
H338 C348 0.930 . S
H339 C349 0.930 . S
C340 H334 0.930 . S
C340 C341 1.355 1_565 S
C340 C342 1.415 . S
C341 C340 1.355 1_545 S
C341 C343 1.419 . S
C342 C340 1.415 . S
C342 C347 1.425 1_565 S
C342 C349 1.409 . S
C343 H335 0.930 . S
C343 C341 1.419 . S
C343 C344 1.362 . S
C344 H336 0.930 . S
C344 C343 1.362 . S
C344 C347 1.409 . S
C345 H337 0.930 . S
C345 C346 1.355 1_545 S
C345 C347 1.415 . S
C346 C345 1.355 1_565 S
C346 C348 1.419 . S
C347 C342 1.425 1_545 S
C347 C344 1.409 . S
C347 C345 1.415 . S
C348 H338 0.930 . S
C348 C346 1.419 . S
C348 C349 1.362 . S
C349 H339 0.930 . S
C349 C342 1.409 . S
C349 C348 1.362 . S
H350 C356 0.930 . S
H351 C359 0.930 . S
H352 C360 0.930 . S
H353 C361 0.930 . S
H354 C364 0.930 . S
H355 C365 0.930 . S
C356 H350 0.930 . S
C356 C357 1.355 . S
C356 C358 1.415 . S
C357 C356 1.355 . S
C357 C359 1.419 . S
C358 C356 1.415 . S
C358 C363 1.425 . S
C358 C365 1.409 . S
C359 H351 0.930 . S
C359 C357 1.419 . S
C359 C360 1.362 . S
C360 H352 0.930 . S
C360 C359 1.362 . S
C360 C363 1.409 . S
C361 H353 0.930 . S
C361 C362 1.355 . S
C361 C363 1.415 . S
C362 C361 1.355 . S
C362 C364 1.419 . S
C363 C358 1.425 . S
C363 C360 1.409 . S
C363 C361 1.415 . S
C364 H354 0.930 . S
C364 C362 1.419 . S
C364 C365 1.362 . S
C365 H355 0.930 . S
C365 C358 1.409 . S
C365 C364 1.362 . S
H366 C372 0.930 . S
H367 C375 0.930 . S
H368 C376 0.930 . S
H369 C377 0.930 1_565 S
H370 C380 0.930 . S
H371 C381 0.930 . S
C372 H366 0.930 . S
C372 C373 1.355 . S
C372 C374 1.415 . S
C373 C372 1.355 . S
C373 C375 1.419 1_545 S
C374 C372 1.415 . S
C374 C379 1.425 . S
C374 C381 1.409 . S
C375 H367 0.930 . S
C375 C373 1.419 1_565 S
C375 C376 1.362 . S
C376 H368 0.930 . S
C376 C375 1.362 . S
C376 C379 1.409 1_565 S
C377 H369 0.930 1_545 S
C377 C378 1.355 . S
C377 C379 1.415 . S
C378 C377 1.355 . S
C378 C380 1.419 . S
C379 C374 1.425 . S
C379 C376 1.409 1_545 S
C379 C377 1.415 . S
C380 H370 0.930 . S
C380 C378 1.419 . S
C380 C381 1.362 . S
C381 H371 0.930 . S
C381 C374 1.409 . S
C381 C380 1.362 . S
H382 C388 0.930 . S
H383 C391 0.930 . S
H384 C392 0.930 . S
H385 C393 0.930 . S
H386 C396 0.930 . S
H387 C397 0.930 1_556 S
C388 H382 0.930 . S
C388 C389 1.355 . S
C388 C390 1.415 . S
C389 C388 1.355 . S
C389 C391 1.419 . S
C390 C388 1.415 . S
C390 C395 1.425 . S
C390 C397 1.409 1_556 S
C391 H383 0.930 . S
C391 C389 1.419 . S
C391 C392 1.362 . S
C392 H384 0.930 . S
C392 C391 1.362 . S
C392 C395 1.409 . S
C393 H385 0.930 . S
C393 C394 1.355 . S
C393 C395 1.415 1_554 S
C394 C393 1.355 . S
C394 C396 1.419 . S
C395 C390 1.425 . S
C395 C392 1.409 . S
C395 C393 1.415 1_556 S
C396 H386 0.930 . S
C396 C394 1.419 . S
C396 C397 1.362 . S
C397 H387 0.930 1_554 S
C397 C390 1.409 1_554 S
C397 C396 1.362 . S
H398 C404 0.930 . S
H399 C407 0.930 . S
H400 C408 0.930 . S
H401 C409 0.930 . S
H402 C412 0.930 . S
H403 C413 0.930 . S
C404 H398 0.930 . S
C404 C405 1.355 . S
C404 C406 1.415 . S
C405 C404 1.355 . S
C405 C407 1.419 1_455 S
C406 C404 1.415 . S
C406 C411 1.425 1_455 S
C406 C413 1.409 . S
C407 H399 0.930 . S
C407 C405 1.419 1_655 S
C407 C408 1.362 . S
C408 H400 0.930 . S
C408 C407 1.362 . S
C408 C411 1.409 . S
C409 H401 0.930 . S
C409 C410 1.355 1_655 S
C409 C411 1.415 . S
C410 C409 1.355 1_455 S
C410 C412 1.419 . S
C411 C406 1.425 1_655 S
C411 C408 1.409 . S
C411 C409 1.415 . S
C412 H402 0.930 . S
C412 C410 1.419 . S
C412 C413 1.362 . S
C413 H403 0.930 . S
C413 C406 1.409 . S
C413 C412 1.362 . S
C133 C2 1.206 . S
C138 C120 1.040 . S
C149 C21 1.091 . S
C154 C98 1.002 . S
C165 C42 0.988 . S
C170 C112 1.011 . S
C181 C1 0.949 . S
C186 C123 0.861 . S
C202 C101 0.987 . S
C197 C22 0.949 . S
C218 C109 1.074 . S
C213 C41 1.150 . S
C229 C38 2.020 . S
C234 C76 1.764 . S
C245 C59 2.081 . S
C250 C87 1.815 . S
C261 C18 1.993 . S
C266 C65 1.717 . S
C282 C79 1.799 . S
C277 C39 1.855 . S
C298 C90 1.706 . S
C293 C58 1.800 . S
C309 C19 1.846 . S
C314 C68 1.772 . S
C330 C89 1.539 . S
C325 C9 1.545 . S
C341 C29 1.515 . S
C346 C67 1.521 . S
C357 C49 1.514 . S
C362 C78 1.514 . S
C378 C111 1.404 . S
C373 C28 1.402 . S
C394 C122 1.336 . S
C389 C48 1.420 . S
C405 C8 1.433 . S
C410 C100 1.374 1_455 S
