# Generated by pormake.
# Topology gar, (4,6)-cn, num edge types: 1
# Building blocks:
#     Node 0, Type 0, BuildingBlock: GALJAG_clean_sbu_0, # of connection points: 4
#     Node 1, Type 0, BuildingBlock: GALJAG_clean_sbu_0, # of connection points: 4
#     Node 2, Type 0, BuildingBlock: GALJAG_clean_sbu_0, # of connection points: 4
#     Node 3, Type 0, BuildingBlock: GALJAG_clean_sbu_0, # of connection points: 4
#     Node 4, Type 0, BuildingBlock: GALJAG_clean_sbu_0, # of connection points: 4
#     Node 5, Type 0, BuildingBlock: GALJAG_clean_sbu_0, # of connection points: 4
#     Node 6, Type 0, BuildingBlock: GALJAG_clean_sbu_0, # of connection points: 4
#     Node 7, Type 0, BuildingBlock: GALJAG_clean_sbu_0, # of connection points: 4
#     Node 8, Type 0, BuildingBlock: GALJAG_clean_sbu_0, # of connection points: 4
#     Node 9, Type 0, BuildingBlock: GALJAG_clean_sbu_0, # of connection points: 4
#     Node 10, Type 0, BuildingBlock: GALJAG_clean_sbu_0, # of connection points: 4
#     Node 11, Type 0, BuildingBlock: GALJAG_clean_sbu_0, # of connection points: 4
#     Node 12, Type 0, BuildingBlock: GALJAG_clean_sbu_0, # of connection points: 4
#     Node 13, Type 0, BuildingBlock: GALJAG_clean_sbu_0, # of connection points: 4
#     Node 14, Type 0, BuildingBlock: GALJAG_clean_sbu_0, # of connection points: 4
#     Node 15, Type 0, BuildingBlock: GALJAG_clean_sbu_0, # of connection points: 4
#     Node 16, Type 0, BuildingBlock: GALJAG_clean_sbu_0, # of connection points: 4
#     Node 17, Type 0, BuildingBlock: GALJAG_clean_sbu_0, # of connection points: 4
#     Node 18, Type 0, BuildingBlock: GALJAG_clean_sbu_0, # of connection points: 4
#     Node 19, Type 0, BuildingBlock: GALJAG_clean_sbu_0, # of connection points: 4
#     Node 20, Type 0, BuildingBlock: GALJAG_clean_sbu_0, # of connection points: 4
#     Node 21, Type 0, BuildingBlock: GALJAG_clean_sbu_0, # of connection points: 4
#     Node 22, Type 0, BuildingBlock: GALJAG_clean_sbu_0, # of connection points: 4
#     Node 23, Type 0, BuildingBlock: GALJAG_clean_sbu_0, # of connection points: 4
#     Node 24, Type 1, BuildingBlock: BETFEN_clean_sbu_0, # of connection points: 6
#     Node 25, Type 1, BuildingBlock: BETFEN_clean_sbu_0, # of connection points: 6
#     Node 26, Type 1, BuildingBlock: BETFEN_clean_sbu_0, # of connection points: 6
#     Node 27, Type 1, BuildingBlock: BETFEN_clean_sbu_0, # of connection points: 6
#     Node 28, Type 1, BuildingBlock: BETFEN_clean_sbu_0, # of connection points: 6
#     Node 29, Type 1, BuildingBlock: BETFEN_clean_sbu_0, # of connection points: 6
#     Node 30, Type 1, BuildingBlock: BETFEN_clean_sbu_0, # of connection points: 6
#     Node 31, Type 1, BuildingBlock: BETFEN_clean_sbu_0, # of connection points: 6
#     Node 32, Type 1, BuildingBlock: BETFEN_clean_sbu_0, # of connection points: 6
#     Node 33, Type 1, BuildingBlock: BETFEN_clean_sbu_0, # of connection points: 6
#     Node 34, Type 1, BuildingBlock: BETFEN_clean_sbu_0, # of connection points: 6
#     Node 35, Type 1, BuildingBlock: BETFEN_clean_sbu_0, # of connection points: 6
#     Node 36, Type 1, BuildingBlock: BETFEN_clean_sbu_0, # of connection points: 6
#     Node 37, Type 1, BuildingBlock: BETFEN_clean_sbu_0, # of connection points: 6
#     Node 38, Type 1, BuildingBlock: BETFEN_clean_sbu_0, # of connection points: 6
#     Node 39, Type 1, BuildingBlock: BETFEN_clean_sbu_0, # of connection points: 6
#     Edge 40, Type (0, 1), BuildingBlock: MIFKUJ_clean_linker_0, # of connection points: 2
#     Edge 41, Type (0, 1), BuildingBlock: MIFKUJ_clean_linker_0, # of connection points: 2
#     Edge 42, Type (0, 1), BuildingBlock: MIFKUJ_clean_linker_0, # of connection points: 2
#     Edge 43, Type (0, 1), BuildingBlock: MIFKUJ_clean_linker_0, # of connection points: 2
#     Edge 44, Type (0, 1), BuildingBlock: MIFKUJ_clean_linker_0, # of connection points: 2
#     Edge 45, Type (0, 1), BuildingBlock: MIFKUJ_clean_linker_0, # of connection points: 2
#     Edge 46, Type (0, 1), BuildingBlock: MIFKUJ_clean_linker_0, # of connection points: 2
#     Edge 47, Type (0, 1), BuildingBlock: MIFKUJ_clean_linker_0, # of connection points: 2
#     Edge 48, Type (0, 1), BuildingBlock: MIFKUJ_clean_linker_0, # of connection points: 2
#     Edge 49, Type (0, 1), BuildingBlock: MIFKUJ_clean_linker_0, # of connection points: 2
#     Edge 50, Type (0, 1), BuildingBlock: MIFKUJ_clean_linker_0, # of connection points: 2
#     Edge 51, Type (0, 1), BuildingBlock: MIFKUJ_clean_linker_0, # of connection points: 2
#     Edge 52, Type (0, 1), BuildingBlock: MIFKUJ_clean_linker_0, # of connection points: 2
#     Edge 53, Type (0, 1), BuildingBlock: MIFKUJ_clean_linker_0, # of connection points: 2
#     Edge 54, Type (0, 1), BuildingBlock: MIFKUJ_clean_linker_0, # of connection points: 2
#     Edge 55, Type (0, 1), BuildingBlock: MIFKUJ_clean_linker_0, # of connection points: 2
#     Edge 56, Type (0, 1), BuildingBlock: MIFKUJ_clean_linker_0, # of connection points: 2
#     Edge 57, Type (0, 1), BuildingBlock: MIFKUJ_clean_linker_0, # of connection points: 2
#     Edge 58, Type (0, 1), BuildingBlock: MIFKUJ_clean_linker_0, # of connection points: 2
#     Edge 59, Type (0, 1), BuildingBlock: MIFKUJ_clean_linker_0, # of connection points: 2
#     Edge 60, Type (0, 1), BuildingBlock: MIFKUJ_clean_linker_0, # of connection points: 2
#     Edge 61, Type (0, 1), BuildingBlock: MIFKUJ_clean_linker_0, # of connection points: 2
#     Edge 62, Type (0, 1), BuildingBlock: MIFKUJ_clean_linker_0, # of connection points: 2
#     Edge 63, Type (0, 1), BuildingBlock: MIFKUJ_clean_linker_0, # of connection points: 2
#     Edge 64, Type (0, 1), BuildingBlock: MIFKUJ_clean_linker_0, # of connection points: 2
#     Edge 65, Type (0, 1), BuildingBlock: MIFKUJ_clean_linker_0, # of connection points: 2
#     Edge 66, Type (0, 1), BuildingBlock: MIFKUJ_clean_linker_0, # of connection points: 2
#     Edge 67, Type (0, 1), BuildingBlock: MIFKUJ_clean_linker_0, # of connection points: 2
#     Edge 68, Type (0, 1), BuildingBlock: MIFKUJ_clean_linker_0, # of connection points: 2
#     Edge 69, Type (0, 1), BuildingBlock: MIFKUJ_clean_linker_0, # of connection points: 2
#     Edge 70, Type (0, 1), BuildingBlock: MIFKUJ_clean_linker_0, # of connection points: 2
#     Edge 71, Type (0, 1), BuildingBlock: MIFKUJ_clean_linker_0, # of connection points: 2
#     Edge 72, Type (0, 1), BuildingBlock: MIFKUJ_clean_linker_0, # of connection points: 2
#     Edge 73, Type (0, 1), BuildingBlock: MIFKUJ_clean_linker_0, # of connection points: 2
#     Edge 74, Type (0, 1), BuildingBlock: MIFKUJ_clean_linker_0, # of connection points: 2
#     Edge 75, Type (0, 1), BuildingBlock: MIFKUJ_clean_linker_0, # of connection points: 2
#     Edge 76, Type (0, 1), BuildingBlock: MIFKUJ_clean_linker_0, # of connection points: 2
#     Edge 77, Type (0, 1), BuildingBlock: MIFKUJ_clean_linker_0, # of connection points: 2
#     Edge 78, Type (0, 1), BuildingBlock: MIFKUJ_clean_linker_0, # of connection points: 2
#     Edge 79, Type (0, 1), BuildingBlock: MIFKUJ_clean_linker_0, # of connection points: 2
#     Edge 80, Type (0, 1), BuildingBlock: MIFKUJ_clean_linker_0, # of connection points: 2
#     Edge 81, Type (0, 1), BuildingBlock: MIFKUJ_clean_linker_0, # of connection points: 2
#     Edge 82, Type (0, 1), BuildingBlock: MIFKUJ_clean_linker_0, # of connection points: 2
#     Edge 83, Type (0, 1), BuildingBlock: MIFKUJ_clean_linker_0, # of connection points: 2
#     Edge 84, Type (0, 1), BuildingBlock: MIFKUJ_clean_linker_0, # of connection points: 2
#     Edge 85, Type (0, 1), BuildingBlock: MIFKUJ_clean_linker_0, # of connection points: 2
#     Edge 86, Type (0, 1), BuildingBlock: MIFKUJ_clean_linker_0, # of connection points: 2
#     Edge 87, Type (0, 1), BuildingBlock: MIFKUJ_clean_linker_0, # of connection points: 2
#     Edge 88, Type (0, 1), BuildingBlock: MIFKUJ_clean_linker_0, # of connection points: 2
#     Edge 89, Type (0, 1), BuildingBlock: MIFKUJ_clean_linker_0, # of connection points: 2
#     Edge 90, Type (0, 1), BuildingBlock: MIFKUJ_clean_linker_0, # of connection points: 2
#     Edge 91, Type (0, 1), BuildingBlock: MIFKUJ_clean_linker_0, # of connection points: 2
#     Edge 92, Type (0, 1), BuildingBlock: MIFKUJ_clean_linker_0, # of connection points: 2
#     Edge 93, Type (0, 1), BuildingBlock: MIFKUJ_clean_linker_0, # of connection points: 2
#     Edge 94, Type (0, 1), BuildingBlock: MIFKUJ_clean_linker_0, # of connection points: 2
#     Edge 95, Type (0, 1), BuildingBlock: MIFKUJ_clean_linker_0, # of connection points: 2
#     Edge 96, Type (0, 1), BuildingBlock: MIFKUJ_clean_linker_0, # of connection points: 2
#     Edge 97, Type (0, 1), BuildingBlock: MIFKUJ_clean_linker_0, # of connection points: 2
#     Edge 98, Type (0, 1), BuildingBlock: MIFKUJ_clean_linker_0, # of connection points: 2
#     Edge 99, Type (0, 1), BuildingBlock: MIFKUJ_clean_linker_0, # of connection points: 2
#     Edge 100, Type (0, 1), BuildingBlock: MIFKUJ_clean_linker_0, # of connection points: 2
#     Edge 101, Type (0, 1), BuildingBlock: MIFKUJ_clean_linker_0, # of connection points: 2
#     Edge 102, Type (0, 1), BuildingBlock: MIFKUJ_clean_linker_0, # of connection points: 2
#     Edge 103, Type (0, 1), BuildingBlock: MIFKUJ_clean_linker_0, # of connection points: 2
#     Edge 104, Type (0, 1), BuildingBlock: MIFKUJ_clean_linker_0, # of connection points: 2
#     Edge 105, Type (0, 1), BuildingBlock: MIFKUJ_clean_linker_0, # of connection points: 2
#     Edge 106, Type (0, 1), BuildingBlock: MIFKUJ_clean_linker_0, # of connection points: 2
#     Edge 107, Type (0, 1), BuildingBlock: MIFKUJ_clean_linker_0, # of connection points: 2
#     Edge 108, Type (0, 1), BuildingBlock: MIFKUJ_clean_linker_0, # of connection points: 2
#     Edge 109, Type (0, 1), BuildingBlock: MIFKUJ_clean_linker_0, # of connection points: 2
#     Edge 110, Type (0, 1), BuildingBlock: MIFKUJ_clean_linker_0, # of connection points: 2
#     Edge 111, Type (0, 1), BuildingBlock: MIFKUJ_clean_linker_0, # of connection points: 2
#     Edge 112, Type (0, 1), BuildingBlock: MIFKUJ_clean_linker_0, # of connection points: 2
#     Edge 113, Type (0, 1), BuildingBlock: MIFKUJ_clean_linker_0, # of connection points: 2
#     Edge 114, Type (0, 1), BuildingBlock: MIFKUJ_clean_linker_0, # of connection points: 2
#     Edge 115, Type (0, 1), BuildingBlock: MIFKUJ_clean_linker_0, # of connection points: 2
#     Edge 116, Type (0, 1), BuildingBlock: MIFKUJ_clean_linker_0, # of connection points: 2
#     Edge 117, Type (0, 1), BuildingBlock: MIFKUJ_clean_linker_0, # of connection points: 2
#     Edge 118, Type (0, 1), BuildingBlock: MIFKUJ_clean_linker_0, # of connection points: 2
#     Edge 119, Type (0, 1), BuildingBlock: MIFKUJ_clean_linker_0, # of connection points: 2
#     Edge 120, Type (0, 1), BuildingBlock: MIFKUJ_clean_linker_0, # of connection points: 2
#     Edge 121, Type (0, 1), BuildingBlock: MIFKUJ_clean_linker_0, # of connection points: 2
#     Edge 122, Type (0, 1), BuildingBlock: MIFKUJ_clean_linker_0, # of connection points: 2
#     Edge 123, Type (0, 1), BuildingBlock: MIFKUJ_clean_linker_0, # of connection points: 2
#     Edge 124, Type (0, 1), BuildingBlock: MIFKUJ_clean_linker_0, # of connection points: 2
#     Edge 125, Type (0, 1), BuildingBlock: MIFKUJ_clean_linker_0, # of connection points: 2
#     Edge 126, Type (0, 1), BuildingBlock: MIFKUJ_clean_linker_0, # of connection points: 2
#     Edge 127, Type (0, 1), BuildingBlock: MIFKUJ_clean_linker_0, # of connection points: 2
#     Edge 128, Type (0, 1), BuildingBlock: MIFKUJ_clean_linker_0, # of connection points: 2
#     Edge 129, Type (0, 1), BuildingBlock: MIFKUJ_clean_linker_0, # of connection points: 2
#     Edge 130, Type (0, 1), BuildingBlock: MIFKUJ_clean_linker_0, # of connection points: 2
#     Edge 131, Type (0, 1), BuildingBlock: MIFKUJ_clean_linker_0, # of connection points: 2
#     Edge 132, Type (0, 1), BuildingBlock: MIFKUJ_clean_linker_0, # of connection points: 2
#     Edge 133, Type (0, 1), BuildingBlock: MIFKUJ_clean_linker_0, # of connection points: 2
#     Edge 134, Type (0, 1), BuildingBlock: MIFKUJ_clean_linker_0, # of connection points: 2
#     Edge 135, Type (0, 1), BuildingBlock: MIFKUJ_clean_linker_0, # of connection points: 2
# Relax obj value: 0.184
# Max RMSD: 0.297
# Mean RMSD: 0.171
data_MOF--net-gar--node1-GALJAG_clean_sbu_0--node2-BETFEN_clean_sbu_0--edge1-MIFKUJ_clean_linker_0
_symmetry_space_group_name_H-M    P1
_symmetry_Int_Tables_number       1
_symmetry_cell_setting            triclinic
loop_
_symmetry_equiv_pos_as_xyz
'x, y, z'
_cell_length_a     80.290546
_cell_length_b     72.962128
_cell_length_c     73.253983
_cell_angle_alpha  94.401614
_cell_angle_beta   97.824644
_cell_angle_gamma 101.55379
loop_
_atom_site_label
_atom_site_type_symbol
_atom_site_fract_x
_atom_site_fract_y
_atom_site_fract_z
_atom_type_partial_charge
In0 In 0.0242 0.29775 0.40877 0.0
O1 O 0.03355 0.2891 0.38196 0.0
O2 O 0.05262 0.30451 0.40336 0.0
C3 C 0.99323 0.29464 0.38812 0.0
C4 C 0.02311 0.26414 0.42539 0.0
C5 C 0.0264 0.33501 0.42404 0.0
O6 O 0.00707 0.29606 0.38149 0.0
O7 O 0.9948 0.29425 0.40556 0.0
O8 O 0.02999 0.32225 0.43376 0.0
O9 O 0.02213 0.32911 0.40712 0.0
C10 C 0.04921 0.2963 0.38704 0.0
O11 O 0.03272 0.2797 0.43254 0.0
O12 O 0.01356 0.26579 0.41076 0.0
In13 In 0.06814 0.82177 0.64906 0.0
O14 O 0.05764 0.84018 0.62745 0.0
O15 O 0.08021 0.85278 0.64611 0.0
C16 C 0.0647 0.78686 0.62963 0.0
C17 C 0.09998 0.82421 0.66825 0.0
C18 C 0.04094 0.82088 0.66817 0.0
O19 O 0.06732 0.80199 0.62205 0.0
O20 O 0.06389 0.78942 0.64664 0.0
O21 O 0.05581 0.83054 0.67446 0.0
O22 O 0.03979 0.81222 0.65235 0.0
C23 C 0.06928 0.85481 0.63281 0.0
O24 O 0.08644 0.81789 0.67476 0.0
O25 O 0.09751 0.82927 0.65221 0.0
In26 In 0.52482 0.79755 0.90933 0.0
O27 O 0.53381 0.78984 0.882 0.0
O28 O 0.55329 0.80287 0.90435 0.0
C29 C 0.4942 0.79638 0.8882 0.0
C30 C 0.52437 0.76374 0.92539 0.0
C31 C 0.52761 0.83442 0.92581 0.0
O32 O 0.50805 0.7974 0.8817 0.0
O33 O 0.49561 0.79551 0.90548 0.0
O34 O 0.52061 0.8199 0.93261 0.0
O35 O 0.53414 0.83035 0.91171 0.0
C36 C 0.54967 0.79581 0.88756 0.0
O37 O 0.53346 0.77941 0.93301 0.0
O38 O 0.51525 0.76532 0.91043 0.0
In39 In 0.56827 0.32091 0.14865 0.0
O40 O 0.5677 0.30091 0.12196 0.0
O41 O 0.56381 0.28844 0.14646 0.0
C42 C 0.56907 0.35394 0.13232 0.0
C43 C 0.54118 0.31979 0.16781 0.0
C44 C 0.6 0.32413 0.1683 0.0
O45 O 0.55775 0.3391 0.12693 0.0
O46 O 0.57994 0.3522 0.14583 0.0
O47 O 0.5864 0.31949 0.17525 0.0
O48 O 0.59761 0.3271 0.15148 0.0
C49 C 0.56489 0.28582 0.12952 0.0
O50 O 0.55656 0.32629 0.17531 0.0
O51 O 0.53951 0.31445 0.15075 0.0
In52 In 0.06873 0.82183 0.14177 0.0
O53 O 0.06504 0.79981 0.11589 0.0
O54 O 0.06519 0.7901 0.14239 0.0
C55 C 0.06887 0.85532 0.12608 0.0
C56 C 0.03918 0.81576 0.15674 0.0
C57 C 0.10032 0.82474 0.16285 0.0
O58 O 0.07017 0.84035 0.11701 0.0
O59 O 0.06755 0.8534 0.14283 0.0
O60 O 0.08656 0.8238 0.16953 0.0
O61 O 0.09841 0.82499 0.14547 0.0
C62 C 0.06368 0.78579 0.12519 0.0
O63 O 0.05375 0.82284 0.16617 0.0
O64 O 0.03936 0.81271 0.13956 0.0
In65 In 0.52457 0.79827 0.41537 0.0
O66 O 0.54053 0.80093 0.39077 0.0
O67 O 0.55395 0.80286 0.41798 0.0
C68 C 0.49171 0.79864 0.39772 0.0
C69 C 0.52642 0.76821 0.43553 0.0
C70 C 0.52836 0.83237 0.43383 0.0
O71 O 0.50205 0.79091 0.38977 0.0
O72 O 0.49762 0.80503 0.41428 0.0
O73 O 0.52181 0.81738 0.4401 0.0
O74 O 0.53346 0.83016 0.41841 0.0
C75 C 0.55502 0.80337 0.40104 0.0
O76 O 0.53178 0.78517 0.44197 0.0
O77 O 0.5193 0.76602 0.41875 0.0
In78 In 0.56836 0.32161 0.64218 0.0
O79 O 0.57057 0.29997 0.61788 0.0
O80 O 0.55924 0.28988 0.64063 0.0
C81 C 0.56821 0.35465 0.62588 0.0
C82 C 0.53867 0.31718 0.65658 0.0
C83 C 0.5991 0.32286 0.66425 0.0
O84 O 0.56661 0.33888 0.61656 0.0
O85 O 0.56983 0.3537 0.64315 0.0
O86 O 0.58471 0.31758 0.66933 0.0
O87 O 0.59821 0.32812 0.64821 0.0
C88 C 0.5636 0.28582 0.62525 0.0
O89 O 0.55301 0.32552 0.66587 0.0
O90 O 0.53918 0.31227 0.63979 0.0
In91 In 0.02417 0.2985 0.91539 0.0
O92 O 0.02891 0.28499 0.9424 0.0
O93 O 0.02035 0.26626 0.9179 0.0
C94 C 0.02957 0.33256 0.9347 0.0
C95 C 0.05452 0.30263 0.90098 0.0
C96 C 0.99134 0.29863 0.89716 0.0
O97 O 0.02068 0.31799 0.93956 0.0
O98 O 0.03627 0.32999 0.92039 0.0
O99 O 1.00201 0.2914 0.88929 0.0
O100 O 0.99697 0.30473 0.91384 0.0
C101 C 0.02539 0.26814 0.93523 0.0
O102 O 0.04074 0.3052 0.89183 0.0
O103 O 0.05275 0.29752 0.91677 0.0
In104 In 0.44889 0.13493 0.306 0.0
O105 O 0.47085 0.13318 0.28962 0.0
O106 O 0.44642 0.1342 0.27483 0.0
C107 C 0.46305 0.13346 0.34116 0.0
C108 C 0.42929 0.15995 0.30078 0.0
C109 C 0.43171 0.09962 0.30181 0.0
O110 O 0.47224 0.13977 0.32934 0.0
O111 O 0.44712 0.13051 0.33574 0.0
O112 O 0.4251 0.11331 0.30593 0.0
O113 O 0.44728 0.1037 0.29967 0.0
C114 C 0.46149 0.13219 0.27406 0.0
O115 O 0.42381 0.14252 0.30012 0.0
O116 O 0.44545 0.16571 0.30555 0.0
In117 In 0.28456 0.20196 0.5167 0.0
O118 O 0.28854 0.22814 0.53873 0.0
O119 O 0.29014 0.20169 0.54814 0.0
C120 C 0.28616 0.21876 0.48373 0.0
C121 C 0.31269 0.18633 0.52202 0.0
C122 C 0.25171 0.18038 0.51439 0.0
O123 O 0.28143 0.2263 0.49776 0.0
O124 O 0.29016 0.20325 0.48647 0.0
O125 O 0.26266 0.17577 0.50514 0.0
O126 O 0.25705 0.19586 0.5243 0.0
C127 C 0.29094 0.21892 0.55254 0.0
O128 O 0.2975 0.17662 0.51789 0.0
O129 O 0.31375 0.20389 0.52283 0.0
In130 In 0.17352 0.07307 0.83765 0.0
O131 O 0.15051 0.07336 0.81632 0.0
O132 O 0.1743 0.07077 0.80736 0.0
C133 C 0.15828 0.07174 0.86702 0.0
C134 C 0.18485 0.04155 0.8344 0.0
C135 C 0.19107 0.10769 0.83802 0.0
O136 O 0.15031 0.06556 0.85102 0.0
O137 O 0.17425 0.07814 0.86834 0.0
O138 O 0.19823 0.09378 0.8386 0.0
O139 O 0.17511 0.10425 0.83843 0.0
C140 C 0.15872 0.0714 0.80301 0.0
O141 O 0.1946 0.05672 0.8422 0.0
O142 O 0.16926 0.04213 0.83007 0.0
In143 In 0.30924 0.92293 0.04017 0.0
O144 O 0.30047 0.89922 0.05912 0.0
O145 O 0.32028 0.92238 0.07086 0.0
C146 C 0.30708 0.90484 0.00412 0.0
C147 C 0.28426 0.94221 0.04709 0.0
C148 C 0.34012 0.94605 0.04085 0.0
O149 O 0.31603 0.9009 0.01829 0.0
O150 O 0.29823 0.91657 0.00829 0.0
O151 O 0.3262 0.94985 0.03351 0.0
O152 O 0.33846 0.93073 0.04801 0.0
C153 C 0.31058 0.90734 0.07361 0.0
O154 O 0.29975 0.95016 0.04712 0.0
O155 O 0.28111 0.92461 0.0427 0.0
In156 In 0.30669 0.41758 0.03866 0.0
O157 O 0.30611 0.39107 0.05445 0.0
O158 O 0.30302 0.41583 0.06945 0.0
C159 C 0.30324 0.39599 0.00607 0.0
C160 C 0.27712 0.43142 0.03537 0.0
C161 C 0.33927 0.43949 0.03754 0.0
O162 O 0.31367 0.39438 0.02008 0.0
O163 O 0.29405 0.40769 0.00879 0.0
O164 O 0.32624 0.43913 0.02567 0.0
O165 O 0.33565 0.4303 0.05092 0.0
C166 C 0.30351 0.39862 0.06963 0.0
O167 O 0.29198 0.44216 0.03872 0.0
O168 O 0.27735 0.41414 0.03424 0.0
In169 In 0.78355 0.19517 0.01675 0.0
O170 O 0.79824 0.17068 0.0179 0.0
O171 O 0.8116 0.19694 0.01186 0.0
C172 C 0.74997 0.17635 0.01113 0.0
C173 C 0.78787 0.21436 0.05183 0.0
C174 C 0.78042 0.21098 0.98444 0.0
O175 O 0.76232 0.16788 0.01231 0.0
O176 O 0.75461 0.19406 0.01327 0.0
O177 O 0.78553 0.22064 1.00001 0.0
O178 O 0.77704 0.19344 0.98519 0.0
C179 C 0.812 0.18002 0.01377 0.0
O180 O 0.79164 0.22221 0.03772 0.0
O181 O 0.78237 0.19679 0.04844 0.0
In182 In 0.15152 0.4888 0.25811 0.0
O183 O 0.17269 0.47467 0.25157 0.0
O184 O 0.15323 0.45933 0.26501 0.0
C185 C 0.16838 0.52459 0.2646 0.0
C186 C 0.1353 0.48742 0.22374 0.0
C187 C 0.13501 0.49301 0.28653 0.0
O188 O 0.17578 0.51132 0.26844 0.0
O189 O 0.15282 0.51964 0.25737 0.0
O190 O 0.12726 0.489 0.27007 0.0
O191 O 0.15087 0.49298 0.28879 0.0
C192 C 0.16701 0.4598 0.25842 0.0
O193 O 0.12786 0.47945 0.23607 0.0
O194 O 0.15108 0.49454 0.22851 0.0
In195 In 0.80702 0.91815 0.5392 0.0
O196 O 0.80301 0.8913 0.55428 0.0
O197 O 0.8079 0.91718 0.57117 0.0
C198 C 0.80356 0.90022 0.50477 0.0
C199 C 0.77734 0.93202 0.53491 0.0
C200 C 0.84088 0.93706 0.53945 0.0
O201 O 0.79985 0.89151 0.51838 0.0
O202 O 0.80888 0.91771 0.50849 0.0
O203 O 0.82827 0.94514 0.53838 0.0
O204 O 0.83666 0.91984 0.54178 0.0
C205 C 0.80435 0.89939 0.57042 0.0
O206 O 0.79201 0.94247 0.54067 0.0
O207 O 0.77769 0.91495 0.53166 0.0
In208 In 0.90848 0.03747 0.21476 0.0
O209 O 0.93264 0.03843 0.20387 0.0
O210 O 0.91053 0.03855 0.18397 0.0
C211 C 0.92512 0.04224 0.24868 0.0
C212 C 0.89929 0.07043 0.21945 0.0
C213 C 0.8945 1.00158 0.21675 0.0
O214 O 0.93253 0.04477 0.2347 0.0
O215 O 0.90888 0.03738 0.24561 0.0
O216 O 0.8851 0.013 0.21204 0.0
O217 O 0.91043 0.00803 0.21868 0.0
C218 C 0.9266 0.03956 0.1874 0.0
O219 O 0.88816 0.05579 0.21247 0.0
O220 O 0.91449 0.0683 0.22265 0.0
In221 In 0.28279 0.6947 0.51617 0.0
O222 O 0.29709 0.66995 0.51579 0.0
O223 O 0.31129 0.69713 0.51312 0.0
C224 C 0.24913 0.67588 0.51179 0.0
C225 C 0.28764 0.71383 0.55128 0.0
C226 C 0.28066 0.71049 0.48373 0.0
O227 O 0.26107 0.66772 0.50852 0.0
O228 O 0.25429 0.69295 0.51809 0.0
O229 O 0.28823 0.71973 0.49892 0.0
O230 O 0.27429 0.69351 0.48495 0.0
C231 C 0.31135 0.67987 0.51346 0.0
O232 O 0.28354 0.72095 0.53657 0.0
O233 O 0.28954 0.69709 0.54841 0.0
In234 In 0.40973 0.53757 0.71625 0.0
O235 O 0.38915 0.55511 0.71431 0.0
O236 O 0.41548 0.56865 0.72338 0.0
C237 C 0.39476 0.5018 0.71757 0.0
C238 C 0.4275 0.53853 0.68837 0.0
C239 C 0.42641 0.54213 0.75022 0.0
O240 O 0.38574 0.51369 0.71329 0.0
O241 O 0.41073 0.5078 0.71938 0.0
O242 O 0.43385 0.54434 0.73622 0.0
O243 O 0.41017 0.53812 0.74718 0.0
C244 C 0.40003 0.57015 0.72063 0.0
O245 O 0.433 0.53516 0.70434 0.0
O246 O 0.41217 0.54086 0.68585 0.0
In247 In 0.65073 0.98953 0.75809 0.0
O248 O 0.67543 0.97951 0.76161 0.0
O249 O 0.65203 0.95866 0.75647 0.0
C250 C 0.66432 0.02638 0.76104 0.0
C251 C 0.63142 0.98754 0.72516 0.0
C252 C 0.63972 0.99064 0.79061 0.0
O253 O 0.67158 0.01443 0.75385 0.0
O254 O 0.65027 0.01976 0.76622 0.0
O255 O 0.62964 0.98344 0.77586 0.0
O256 O 0.65544 0.99493 0.78897 0.0
C257 C 0.66829 0.96229 0.75938 0.0
O258 O 0.62517 0.98716 0.74004 0.0
O259 O 0.64726 0.98771 0.72674 0.0
In260 In 0.78496 0.70184 0.01694 0.0
O261 O 0.7965 0.67574 0.02134 0.0
O262 O 0.81336 0.70098 0.01731 0.0
C263 C 0.7527 0.68012 0.01646 0.0
C264 C 0.79073 0.72059 0.0521 0.0
C265 C 0.78519 0.71808 0.98364 0.0
O266 O 0.76432 0.67408 0.0093 0.0
O267 O 0.75735 0.69693 0.02381 0.0
O268 O 0.79331 0.7266 0.99893 0.0
O269 O 0.77685 0.70188 0.98522 0.0
C270 C 0.8118 0.68408 0.02077 0.0
O271 O 0.77971 0.72367 0.03926 0.0
O272 O 0.7992 0.7089 0.04703 0.0
In273 In 0.9493 0.63501 0.80583 0.0
O274 O 0.92439 0.64278 0.79751 0.0
O275 O 0.94584 0.66579 0.80574 0.0
C276 C 0.93251 0.59985 0.80466 0.0
C277 C 0.9601 0.63049 0.77326 0.0
C278 C 0.96511 0.63341 0.84022 0.0
O279 O 0.926 0.61371 0.80871 0.0
O280 O 0.94785 0.60375 0.80164 0.0
O281 O 0.97344 0.63565 0.8268 0.0
O282 O 0.94961 0.63468 0.83665 0.0
C283 C 0.92994 0.66026 0.79945 0.0
O284 O 0.97002 0.64083 0.78674 0.0
O285 O 0.94522 0.6237 0.77627 0.0
In286 In 0.80936 0.42263 0.54039 0.0
O287 O 0.80197 0.3995 0.56005 0.0
O288 O 0.82154 0.42332 0.57098 0.0
C289 C 0.80637 0.40506 0.50404 0.0
C290 C 0.78345 0.44074 0.54681 0.0
C291 C 0.84066 0.44526 0.54231 0.0
O292 O 0.81027 0.39714 0.51833 0.0
O293 O 0.80282 0.42076 0.50811 0.0
O294 O 0.82683 0.45058 0.53766 0.0
O295 O 0.83883 0.42854 0.54635 0.0
C296 C 0.8124 0.40805 0.57416 0.0
O297 O 0.79719 0.44875 0.5417 0.0
O298 O 0.78225 0.42336 0.54794 0.0
In299 In 0.67315 0.5728 0.33812 0.0
O300 O 0.6929 0.55483 0.34301 0.0
O301 O 0.66749 0.54181 0.32963 0.0
C302 C 0.69138 0.60731 0.33883 0.0
C303 C 0.6597 0.5717 0.30328 0.0
C304 C 0.65725 0.57329 0.36712 0.0
O305 O 0.69834 0.59331 0.34024 0.0
O306 O 0.67531 0.60399 0.33828 0.0
O307 O 0.64929 0.56948 0.35079 0.0
O308 O 0.67345 0.57603 0.36892 0.0
C309 C 0.68276 0.54024 0.33448 0.0
O310 O 0.65074 0.57253 0.3161 0.0
O311 O 0.67532 0.57149 0.30803 0.0
Pr312 Pr 0.03559 0.0661 0.03514 0.0
Pr313 Pr 0.0778 0.07711 0.05058 0.0
C314 C 1.00236 0.06971 0.03114 0.0
C315 C 0.9901 0.08172 0.02437 0.0
C316 C 0.98031 0.07786 0.00647 0.0
C317 C 0.96705 0.08737 1.00127 0.0
C318 C 0.96335 0.1011 0.01374 0.0
C319 C 0.97351 0.1055 0.03132 0.0
C320 C 0.98664 0.09591 0.03659 0.0
C321 C 0.05721 0.06264 0.00981 0.0
C322 C 0.05953 0.11062 0.03348 0.0
C323 C 0.11153 0.07551 0.05633 0.0
C324 C 0.12382 0.06325 0.062 0.0
C325 C 0.1358 0.06825 0.07845 0.0
C326 C 0.14876 0.05811 0.08272 0.0
C327 C 0.15003 0.04261 0.07069 0.0
C328 C 0.13777 0.03735 0.0545 0.0
C329 C 0.12491 0.0475 0.0502 0.0
C330 C 0.05561 0.0801 0.07558 0.0
C331 C 0.05425 0.03215 0.05029 0.0
O332 O 0.01368 0.07642 0.046 0.0
O333 O 0.00824 0.0593 0.0191 0.0
O334 O 0.05986 0.075 0.02332 0.0
O335 O 0.04167 0.05215 0.00751 0.0
O336 O 0.07451 0.10586 0.03874 0.0
O337 O 0.04448 0.09874 0.03263 0.0
O338 O 0.10152 0.07079 0.04025 0.0
O339 O 0.10406 0.083 0.069 0.0
O340 O 0.05358 0.06785 0.06215 0.0
O341 O 0.07083 0.09121 0.07799 0.0
O342 O 0.03931 0.0376 0.0471 0.0
O343 O 0.06931 0.0437 0.05 0.0
H344 H 0.98245 0.06699 0.9967 0.0
H345 H 0.95935 0.08363 0.98766 0.0
H346 H 0.97079 0.11583 0.0413 0.0
H347 H 0.99367 0.09916 0.05055 0.0
H348 H 0.13542 0.08034 0.08782 0.0
H349 H 0.15786 0.06248 0.09538 0.0
H350 H 0.13844 0.02569 0.04473 0.0
H351 H 0.1161 0.04325 0.03732 0.0
Pr352 Pr 0.29709 0.84097 0.29862 0.0
Pr353 Pr 0.29071 0.79939 0.2761 0.0
C354 C 0.31123 0.87349 0.31904 0.0
C355 C 0.31488 0.89287 0.31465 0.0
C356 C 0.30207 0.90089 0.30526 0.0
C357 C 0.30673 0.91763 0.2974 0.0
C358 C 0.32417 0.92603 0.29862 0.0
C359 C 0.33675 0.91862 0.30904 0.0
C360 C 0.33212 0.90221 0.31707 0.0
C361 C 0.26377 0.83125 0.2778 0.0
C362 C 0.30216 0.83697 0.25359 0.0
C363 C 0.27454 0.76517 0.2606 0.0
C364 C 0.26793 0.74831 0.26944 0.0
C365 C 0.27491 0.7323 0.26725 0.0
C366 C 0.26823 0.71605 0.275 0.0
C367 C 0.25443 0.71559 0.28502 0.0
C368 C 0.24827 0.73203 0.28827 0.0
C369 C 0.25493 0.74824 0.28055 0.0
C370 C 0.32384 0.80769 0.29806 0.0
C371 C 0.28293 0.80383 0.31968 0.0
O372 O 0.32029 0.86284 0.31136 0.0
O373 O 0.29504 0.86533 0.31849 0.0
O374 O 0.27525 0.82173 0.27919 0.0
O375 O 0.26953 0.8472 0.28801 0.0
O376 O 0.29612 0.81852 0.25235 0.0
O377 O 0.30531 0.848 0.26956 0.0
O378 O 0.26659 0.77907 0.2624 0.0
O379 O 0.2913 0.77064 0.26248 0.0
O380 O 0.31302 0.81826 0.29696 0.0
O381 O 0.31762 0.79262 0.28665 0.0
O382 O 0.29077 0.82172 0.32173 0.0
O383 O 0.27986 0.79329 0.30362 0.0
H384 H 0.28863 0.89383 0.30321 0.0
H385 H 0.29691 0.92351 0.28972 0.0
H386 H 0.35027 0.9253 0.31058 0.0
H387 H 0.34214 0.89619 0.32422 0.0
H388 H 0.28521 0.73218 0.25913 0.0
H389 H 0.27321 0.70355 0.27221 0.0
H390 H 0.23785 0.73216 0.29623 0.0
H391 H 0.24959 0.76055 0.28299 0.0
Pr392 Pr 0.55908 0.05598 0.53314 0.0
Pr393 Pr 0.51935 0.05197 0.53623 0.0
C394 C 0.59108 0.04853 0.53508 0.0
C395 C 0.60128 0.03433 0.52987 0.0
C396 C 0.6098 0.03596 0.51432 0.0
C397 C 0.62136 0.02448 0.51077 0.0
C398 C 0.62494 0.01104 0.52275 0.0
C399 C 0.61583 0.00884 0.53788 0.0
C400 C 0.6042 0.02031 0.54139 0.0
C401 C 0.53907 0.06472 0.50231 0.0
C402 C 0.53095 0.01468 0.52063 0.0
C403 C 0.48679 0.05685 0.53528 0.0
C404 C 0.47617 0.06972 0.54187 0.0
C405 C 0.46466 0.06383 0.55417 0.0
C406 C 0.45286 0.07462 0.55856 0.0
C407 C 0.45242 0.09159 0.55084 0.0
C408 C 0.4644 0.09787 0.53916 0.0
C409 C 0.47611 0.08704 0.53466 0.0
C410 C 0.53951 0.0424 0.56595 0.0
C411 C 0.54746 0.09346 0.54995 0.0
O412 O 0.58139 0.0452 0.54797 0.0
O413 O 0.58446 0.05755 0.52211 0.0
O414 O 0.53426 0.05135 0.51169 0.0
O415 O 0.55509 0.07305 0.50787 0.0
O416 O 0.51748 0.02251 0.52051 0.0
O417 O 0.54683 0.024 0.52668 0.0
O418 O 0.49642 0.06225 0.52279 0.0
O419 O 0.49393 0.04729 0.54736 0.0
O420 O 0.54392 0.05635 0.55728 0.0
O421 O 0.52371 0.0335 0.56038 0.0
O422 O 0.56097 0.08587 0.54852 0.0
O423 O 0.53142 0.08397 0.54481 0.0
H424 H 0.60797 0.04657 0.50513 0.0
H425 H 0.62774 0.02642 0.49874 0.0
H426 H 0.61823 0.99884 0.54757 0.0
H427 H 0.59798 0.01863 0.55357 0.0
H428 H 0.46437 0.05054 0.55991 0.0
H429 H 0.44384 0.06951 0.5677 0.0
H430 H 0.46422 0.11079 0.53283 0.0
H431 H 0.48471 0.09198 0.52506 0.0
Pr432 Pr 0.28224 0.30363 0.78125 0.0
Pr433 Pr 0.32193 0.30044 0.78636 0.0
C434 C 0.24961 0.30391 0.78721 0.0
C435 C 0.23876 0.30813 0.80153 0.0
C436 C 0.23323 0.32526 0.80259 0.0
C437 C 0.22117 0.32843 0.81406 0.0
C438 C 0.2139 0.31444 0.8247 0.0
C439 C 0.22006 0.29758 0.82419 0.0
C440 C 0.23229 0.29451 0.81285 0.0
C441 C 0.30562 0.33448 0.77407 0.0
C442 C 0.30724 0.31382 0.82304 0.0
C443 C 0.35505 0.30213 0.78222 0.0
C444 C 0.36596 0.29604 0.76909 0.0
C445 C 0.37384 0.28072 0.77223 0.0
C446 C 0.38605 0.27662 0.76145 0.0
C447 C 0.39058 0.28778 0.74741 0.0
C448 C 0.38212 0.30242 0.74362 0.0
C449 C 0.36994 0.30653 0.75434 0.0
C450 C 0.29907 0.26993 0.79409 0.0
C451 C 0.29648 0.28832 0.74433 0.0
O452 O 0.25622 0.28889 0.78776 0.0
O453 O 0.25967 0.31805 0.78153 0.0
O454 O 0.30815 0.32485 0.7873 0.0
O455 O 0.29019 0.3291 0.76472 0.0
O456 O 0.32159 0.31529 0.81574 0.0
O457 O 0.29193 0.30722 0.81307 0.0
O458 O 0.3467 0.31526 0.77775 0.0
O459 O 0.3464 0.28925 0.79087 0.0
O460 O 0.29625 0.2794 0.78082 0.0
O461 O 0.3147 0.27481 0.80296 0.0
O462 O 0.28226 0.28951 0.75131 0.0
O463 O 0.31202 0.29276 0.75437 0.0
H464 H 0.23786 0.33613 0.79412 0.0
H465 H 0.21742 0.34187 0.81428 0.0
H466 H 0.21492 0.28625 0.83188 0.0
H467 H 0.23617 0.28112 0.81246 0.0
H468 H 0.37109 0.27238 0.7835 0.0
H469 H 0.39253 0.26531 0.76464 0.0
H470 H 0.38542 0.31109 0.73274 0.0
H471 H 0.3641 0.31835 0.75149 0.0
Pr472 Pr 0.04833 0.0437 0.50451 0.0
Pr473 Pr 0.04756 0.06252 0.5358 0.0
C474 C 0.04321 0.02694 0.46998 0.0
C475 C 0.0397 0.0349 0.45271 0.0
C476 C 0.04721 0.02994 0.43743 0.0
C477 C 0.04265 0.03658 0.42055 0.0
C478 C 0.03073 0.04822 0.41918 0.0
C479 C 0.02462 0.05466 0.43489 0.0
C480 C 0.02892 0.04785 0.45155 0.0
C481 C 0.08186 0.06489 0.51784 0.0
C482 C 0.03948 0.08682 0.50225 0.0
C483 C 0.05417 0.07759 0.57102 0.0
C484 C 0.06158 0.06999 0.58744 0.0
C485 C 0.05077 0.06123 0.59916 0.0
C486 C 0.05765 0.05371 0.61457 0.0
C487 C 0.07549 0.05518 0.61869 0.0
C488 C 0.08622 0.06303 0.60646 0.0
C489 C 0.07932 0.07036 0.59092 0.0
C490 C 0.01414 0.04038 0.52294 0.0
C491 C 0.05786 0.02105 0.53843 0.0
O492 O 0.03103 0.02577 0.48025 0.0
O493 O 0.05857 0.03341 0.47926 0.0
O494 O 0.06817 0.07109 0.51709 0.0
O495 O 0.07832 0.04697 0.51258 0.0
O496 O 0.04464 0.08867 0.52017 0.0
O497 O 0.03764 0.07002 0.49305 0.0
O498 O 0.06449 0.08237 0.55911 0.0
O499 O 0.0388 0.06871 0.5632 0.0
O500 O 0.02807 0.03458 0.52369 0.0
O501 O 0.01744 0.05852 0.52706 0.0
O502 O 0.0501 0.01804 0.52128 0.0
O503 O 0.06122 0.03831 0.54675 0.0
H504 H 0.05584 0.02027 0.43834 0.0
H505 H 0.04725 0.03139 0.40833 0.0
H506 H 0.01524 0.06351 0.43386 0.0
H507 H 0.02297 0.0519 0.46316 0.0
H508 H 0.03701 0.06039 0.59654 0.0
H509 H 0.0491 0.04742 0.62369 0.0
H510 H 0.10005 0.06448 0.6094 0.0
H511 H 0.08798 0.07665 0.5819 0.0
Pr512 Pr 0.3 0.80103 0.77821 0.0
Pr513 Pr 0.30918 0.84382 0.76793 0.0
C514 C 0.29796 0.76376 0.77668 0.0
C515 C 0.3103 0.75133 0.77736 0.0
C516 C 0.30786 0.73606 0.78789 0.0
C517 C 0.31871 0.72335 0.78788 0.0
C518 C 0.33224 0.72586 0.77745 0.0
C519 C 0.33522 0.7416 0.76754 0.0
C520 C 0.32432 0.75432 0.76752 0.0
C521 C 0.30261 0.82578 0.81111 0.0
C522 C 0.34083 0.82461 0.7828 0.0
C523 C 0.31136 0.88079 0.76732 0.0
C524 C 0.29815 0.89201 0.76479 0.0
C525 C 0.29878 0.90487 0.75147 0.0
C526 C 0.28681 0.91634 0.74969 0.0
C527 C 0.27417 0.91494 0.76121 0.0
C528 C 0.27286 0.90134 0.77372 0.0
C529 C 0.2847 0.88981 0.77541 0.0
C530 C 0.30653 0.81863 0.73544 0.0
C531 C 0.26818 0.82104 0.76319 0.0
O532 O 0.29608 0.77257 0.7619 0.0
O533 O 0.2981 0.77415 0.79205 0.0
O534 O 0.30455 0.83047 0.79495 0.0
O535 O 0.29869 0.80756 0.81016 0.0
O536 O 0.33631 0.84073 0.78045 0.0
O537 O 0.32991 0.80819 0.78055 0.0
O538 O 0.31284 0.87291 0.78275 0.0
O539 O 0.31238 0.86983 0.75276 0.0
O540 O 0.30474 0.81446 0.75168 0.0
O541 O 0.3103 0.83679 0.73597 0.0
O542 O 0.27251 0.80481 0.76609 0.0
O543 O 0.27947 0.8372 0.76561 0.0
H544 H 0.29729 0.73371 0.79578 0.0
H545 H 0.31629 0.71128 0.79563 0.0
H546 H 0.34555 0.74365 0.7593 0.0
H547 H 0.3266 0.7662 0.75949 0.0
H548 H 0.30884 0.90643 0.74288 0.0
H549 H 0.28798 0.92697 0.74012 0.0
H550 H 0.26319 0.90029 0.78279 0.0
H551 H 0.28364 0.87963 0.78544 0.0
Pr552 Pr 0.54556 0.05977 0.03564 0.0
Pr553 Pr 0.53368 0.0709 0.99502 0.0
C554 C 0.54812 0.05865 0.0724 0.0
C555 C 0.53578 0.0592 0.08556 0.0
C556 C 0.53078 0.04345 0.09497 0.0
C557 C 0.519 0.04354 0.10733 0.0
C558 C 0.51212 0.05952 0.11076 0.0
C559 C 0.51675 0.07508 0.10087 0.0
C560 C 0.52837 0.07487 0.08834 0.0
C561 C 0.54076 0.02723 0.00981 0.0
C562 C 0.50372 0.05513 0.01914 0.0
C563 C 0.52992 0.07159 0.95832 0.0
C564 C 0.54243 0.0775 0.94596 0.0
C565 C 0.53852 0.08869 0.93194 0.0
C566 C 0.54944 0.09246 0.91878 0.0
C567 C 0.56442 0.08526 0.91976 0.0
C568 C 0.56911 0.07551 0.93471 0.0
C569 C 0.55819 0.07167 0.94779 0.0
C570 C 0.53714 0.10273 0.02086 0.0
C571 C 0.57589 0.07976 0.0131 0.0
O572 O 0.55359 0.07409 0.06499 0.0
O573 O 0.54479 0.04354 0.06062 0.0
O574 O 0.53877 0.04351 0.00611 0.0
O575 O 0.54619 0.02799 0.0274 0.0
O576 O 0.5068 0.05742 0.00212 0.0
O577 O 0.51609 0.05798 0.03352 0.0
O578 O 0.53128 0.05637 0.96627 0.0
O579 O 0.52681 0.08498 0.96939 0.0
O580 O 0.53966 0.08663 0.02444 0.0
O581 O 0.53203 0.10226 0.00322 0.0
O582 O 0.57267 0.07329 0.02892 0.0
O583 O 0.56383 0.0794 0.99876 0.0
H584 H 0.53607 0.03105 0.09281 0.0
H585 H 0.51548 0.03115 0.11437 0.0
H586 H 0.51196 0.08776 0.10327 0.0
H587 H 0.53173 0.08712 0.08112 0.0
H588 H 0.52662 0.09366 0.93061 0.0
H589 H 0.5456 0.0998 0.90714 0.0
H590 H 0.58046 0.06951 0.9354 0.0
H591 H 0.56168 0.06335 0.95875 0.0
Pr592 Pr 0.26565 0.28074 0.26333 0.0
Pr593 Pr 0.30674 0.30745 0.27113 0.0
C594 C 0.23402 0.26439 0.26979 0.0
C595 C 0.21836 0.2699 0.27537 0.0
C596 C 0.20348 0.26872 0.26232 0.0
C597 C 0.1884 0.27272 0.2679 0.0
C598 C 0.1878 0.27792 0.28669 0.0
C599 C 0.20277 0.27921 0.29964 0.0
C600 C 0.21779 0.27533 0.29407 0.0
C601 C 0.27572 0.29752 0.23156 0.0
C602 C 0.27429 0.32765 0.27467 0.0
C603 C 0.33938 0.3231 0.26709 0.0
C604 C 0.35508 0.31828 0.26093 0.0
C605 C 0.3697 0.31873 0.27407 0.0
C606 C 0.38511 0.31586 0.26854 0.0
C607 C 0.38649 0.3127 0.24962 0.0
C608 C 0.37165 0.31182 0.2365 0.0
C609 C 0.35618 0.31449 0.24207 0.0
C610 C 0.29639 0.29107 0.30326 0.0
C611 C 0.29849 0.26202 0.25816 0.0
O612 O 0.24784 0.26769 0.28233 0.0
O613 O 0.23745 0.26715 0.25309 0.0
O614 O 0.28442 0.29817 0.24739 0.0
O615 O 0.26059 0.28697 0.23162 0.0
O616 O 0.29058 0.33051 0.27203 0.0
O617 O 0.26419 0.31094 0.2749 0.0
O618 O 0.326 0.32297 0.25458 0.0
O619 O 0.33514 0.31702 0.28251 0.0
O620 O 0.28789 0.28992 0.28724 0.0
O621 O 0.31145 0.30157 0.30304 0.0
O622 O 0.2828 0.25829 0.26265 0.0
O623 O 0.30612 0.27884 0.25465 0.0
H624 H 0.20342 0.26447 0.24781 0.0
H625 H 0.17723 0.27172 0.25746 0.0
H626 H 0.20283 0.2827 0.31428 0.0
H627 H 0.22887 0.27623 0.3046 0.0
H628 H 0.36932 0.32164 0.28872 0.0
H629 H 0.39596 0.31625 0.27919 0.0
H630 H 0.37204 0.30973 0.2218 0.0
H631 H 0.34521 0.31405 0.23152 0.0
Pr632 Pr 0.54729 0.54119 1.00022 0.0
Pr633 Pr 0.54858 0.56232 0.0375 0.0
C634 C 0.53642 0.51916 0.96841 0.0
C635 C 0.53508 0.5233 0.94928 0.0
C636 C 0.5489 0.53464 0.94275 0.0
C637 C 0.54592 0.54296 0.92646 0.0
C638 C 0.52912 0.54023 0.91708 0.0
C639 C 0.51563 0.52784 0.92292 0.0
C640 C 0.51862 0.51933 0.93887 0.0
C641 C 0.58097 0.5635 0.00855 0.0
C642 C 0.53989 0.5851 1.00056 0.0
C643 C 0.56055 0.58103 0.07077 0.0
C644 C 0.56541 0.57345 0.08822 0.0
C645 C 0.55348 0.5691 0.10046 0.0
C646 C 0.55829 0.56186 0.11696 0.0
C647 C 0.57497 0.55883 0.12119 0.0
C648 C 0.58657 0.56215 0.10862 0.0
C649 C 0.58187 0.56947 0.09227 0.0
C650 C 0.51544 0.53837 0.02998 0.0
C651 C 0.55735 0.5196 0.03712 0.0
O652 O 0.52612 0.52653 0.97773 0.0
O653 O 0.55191 0.52083 0.97759 0.0
O654 O 0.56939 0.56305 0.01884 0.0
O655 O 0.57512 0.55203 0.99364 0.0
O656 O 0.54332 0.58619 0.01885 0.0
O657 O 0.53941 0.56915 0.99022 0.0
O658 O 0.57039 0.57933 0.0582 0.0
O659 O 0.54415 0.57735 0.064 0.0
O660 O 0.5268 0.53937 0.01935 0.0
O661 O 0.52117 0.55008 0.04471 0.0
O662 O 0.55181 0.51749 0.01918 0.0
O663 O 0.55892 0.53586 0.04711 0.0
H664 H 0.56172 0.53798 0.95072 0.0
H665 H 0.55643 0.55224 0.92178 0.0
H666 H 0.50262 0.52528 0.91546 0.0
H667 H 0.50783 0.5108 0.94385 0.0
H668 H 0.54063 0.57172 0.09752 0.0
H669 H 0.54938 0.55961 0.12684 0.0
H670 H 0.5996 0.56011 0.11199 0.0
H671 H 0.59131 0.5724 0.08304 0.0
Pr672 Pr 0.8001 0.30168 0.27825 0.0
Pr673 Pr 0.80937 0.34349 0.26774 0.0
C674 C 0.79951 0.26478 0.279 0.0
C675 C 0.81228 0.25285 0.27869 0.0
C676 C 0.81428 0.24111 0.2928 0.0
C677 C 0.82556 0.22884 0.29221 0.0
C678 C 0.83485 0.22808 0.27741 0.0
C679 C 0.83362 0.24059 0.26388 0.0
C680 C 0.82249 0.25297 0.26455 0.0
C681 C 0.8018 0.32568 0.31121 0.0
C682 C 0.84099 0.32527 0.28312 0.0
C683 C 0.81103 0.38037 0.26618 0.0
C684 C 0.79797 0.39183 0.26435 0.0
C685 C 0.79861 0.40518 0.2515 0.0
C686 C 0.78686 0.41696 0.25047 0.0
C687 C 0.7745 0.41545 0.26234 0.0
C688 C 0.77313 0.40128 0.27427 0.0
C689 C 0.78472 0.38943 0.27519 0.0
C690 C 0.80862 0.31869 0.23562 0.0
C691 C 0.76837 0.32017 0.2611 0.0
O692 O 0.79501 0.27208 0.26379 0.0
O693 O 0.80141 0.2764 0.29394 0.0
O694 O 0.8043 0.3313 0.29545 0.0
O695 O 0.79699 0.30752 0.30931 0.0
O696 O 0.83651 0.34135 0.28074 0.0
O697 O 0.83001 0.30892 0.28065 0.0
O698 O 0.8135 0.37302 0.28182 0.0
O699 O 0.8109 0.36883 0.25165 0.0
O700 O 0.80585 0.31408 0.25149 0.0
O701 O 0.81333 0.33683 0.23673 0.0
O702 O 0.77263 0.30424 0.26521 0.0
O703 O 0.77954 0.3364 0.26339 0.0
H704 H 0.80675 0.24106 0.30399 0.0
H705 H 0.8263 0.21925 0.30274 0.0
H706 H 0.84085 0.24032 0.25244 0.0
H707 H 0.82154 0.26222 0.25375 0.0
H708 H 0.80852 0.40687 0.24273 0.0
H709 H 0.78807 0.42791 0.24124 0.0
H710 H 0.76356 0.39997 0.28348 0.0
H711 H 0.78364 0.37884 0.2848 0.0
Pr712 Pr 0.04436 0.56074 0.53495 0.0
Pr713 Pr 0.03232 0.57181 0.49455 0.0
C714 C 0.04654 0.55854 0.57154 0.0
C715 C 0.03403 0.55927 0.58429 0.0
C716 C 0.03443 0.54881 0.59952 0.0
C717 C 0.02263 0.54938 0.6118 0.0
C718 C 0.0102 0.5604 0.60896 0.0
C719 C 0.00915 0.56993 0.59299 0.0
C720 C 0.02099 0.56938 0.58077 0.0
C721 C 0.0414 0.52855 0.5093 0.0
C722 C 1.0025 0.55574 0.51854 0.0
C723 C 0.02716 0.57375 0.45792 0.0
C724 C 0.03907 0.57521 0.44431 0.0
C725 C 0.04158 0.5911 0.4345 0.0
C726 C 0.05411 0.59359 0.42291 0.0
C727 C 0.06434 0.58028 0.42115 0.0
C728 C 0.06171 0.56433 0.43086 0.0
C729 C 0.04925 0.56185 0.44239 0.0
C730 C 0.03536 0.60341 0.52085 0.0
C731 C 0.07438 0.5802 0.51219 0.0
O732 O 0.05246 0.57414 0.5646 0.0
O733 O 0.04269 0.54376 0.55934 0.0
O734 O 0.03845 0.54441 0.50514 0.0
O735 O 0.04754 0.53007 0.52676 0.0
O736 O 0.00546 0.55839 0.50158 0.0
O737 O 0.01492 0.55836 0.53279 0.0
O738 O 0.02384 0.55781 0.4652 0.0
O739 O 0.02975 0.58848 0.47004 0.0
O740 O 0.03798 0.58731 0.52404 0.0
O741 O 0.03039 0.60315 0.50325 0.0
O742 O 0.07081 0.57658 0.5288 0.0
O743 O 0.06254 0.57693 0.49715 0.0
H744 H 0.04409 0.54049 0.60212 0.0
H745 H 0.02381 0.54194 0.62399 0.0
H746 H 0.99947 0.5782 0.59023 0.0
H747 H 0.02007 0.57703 0.5687 0.0
H748 H 0.03404 0.60173 0.43605 0.0
H749 H 0.05592 0.60593 0.41546 0.0
H750 H 0.06915 0.55361 0.42935 0.0
H751 H 0.04777 0.54958 0.44995 0.0
Pr752 Pr 0.78292 0.80348 0.2821 0.0
Pr753 Pr 0.82261 0.80053 0.28712 0.0
C754 C 0.75031 0.80496 0.28746 0.0
C755 C 0.73913 0.80919 0.30141 0.0
C756 C 0.73164 0.82501 0.30024 0.0
C757 C 0.71936 0.82814 0.31139 0.0
C758 C 0.71397 0.81547 0.3241 0.0
C759 C 0.72208 0.80006 0.32591 0.0
C760 C 0.73444 0.79695 0.31471 0.0
C761 C 0.80631 0.83415 0.27442 0.0
C762 C 0.8081 0.8138 0.32366 0.0
C763 C 0.85578 0.80249 0.28302 0.0
C764 C 0.8668 0.796 0.27024 0.0
C765 C 0.87657 0.78272 0.27543 0.0
C766 C 0.88873 0.77831 0.26477 0.0
C767 C 0.89124 0.78698 0.24861 0.0
C768 C 0.88097 0.7996 0.24292 0.0
C769 C 0.86889 0.80411 0.25364 0.0
C770 C 0.79994 0.76981 0.29514 0.0
C771 C 0.79726 0.78769 0.2453 0.0
O772 O 0.75623 0.78948 0.28756 0.0
O773 O 0.7611 0.81903 0.28266 0.0
O774 O 0.80876 0.82486 0.28793 0.0
O775 O 0.79107 0.82828 0.26475 0.0
O776 O 0.82223 0.81619 0.31594 0.0
O777 O 0.79274 0.80651 0.31403 0.0
O778 O 0.84714 0.81517 0.27787 0.0
O779 O 0.84738 0.78997 0.29223 0.0
O780 O 0.79697 0.77929 0.28192 0.0
O781 O 0.8157 0.77467 0.30366 0.0
O782 O 0.78298 0.78804 0.25256 0.0
O783 O 0.81277 0.79352 0.25521 0.0
H784 H 0.73491 0.83477 0.29021 0.0
H785 H 0.71386 0.84041 0.30977 0.0
H786 H 0.71834 0.78989 0.3354 0.0
H787 H 0.73989 0.7846 0.31608 0.0
H788 H 0.87525 0.77622 0.28812 0.0
H789 H 0.89647 0.76849 0.26938 0.0
H790 H 0.88282 0.80661 0.23061 0.0
H791 H 0.86156 0.81435 0.24921 0.0
Pr792 Pr 0.79669 0.34094 0.79853 0.0
Pr793 Pr 0.78983 0.2999 0.77554 0.0
C794 C 0.81161 0.37336 0.81875 0.0
C795 C 0.81497 0.39274 0.81434 0.0
C796 C 0.80186 0.40067 0.80543 0.0
C797 C 0.80612 0.41755 0.79767 0.0
C798 C 0.82345 0.42619 0.7985 0.0
C799 C 0.83636 0.4188 0.80838 0.0
C800 C 0.83214 0.40223 0.81629 0.0
C801 C 0.76307 0.33227 0.77823 0.0
C802 C 0.80096 0.33751 0.75318 0.0
C803 C 0.77271 0.26577 0.76088 0.0
C804 C 0.76772 0.24859 0.76997 0.0
C805 C 0.77889 0.23617 0.77277 0.0
C806 C 0.77363 0.2195 0.78051 0.0
C807 C 0.75716 0.21506 0.78556 0.0
C808 C 0.74655 0.22812 0.78419 0.0
C809 C 0.75174 0.24471 0.77636 0.0
C810 C 0.82319 0.30763 0.79717 0.0
C811 C 0.78303 0.3036 0.81957 0.0
O812 O 0.82028 0.36269 0.81043 0.0
O813 O 0.79554 0.36521 0.81901 0.0
O814 O 0.77422 0.32224 0.77902 0.0
O815 O 0.76955 0.34809 0.78847 0.0
O816 O 0.79448 0.31914 0.75163 0.0
O817 O 0.80465 0.34817 0.7694 0.0
O818 O 0.765 0.27937 0.76499 0.0
O819 O 0.78911 0.27164 0.75997 0.0
O820 O 0.81238 0.31819 0.79636 0.0
O821 O 0.81691 0.29278 0.78544 0.0
O822 O 0.79033 0.32166 0.82169 0.0
O823 O 0.78024 0.29324 0.80347 0.0
H824 H 0.78848 0.39347 0.8037 0.0
H825 H 0.79605 0.42338 0.7904 0.0
H826 H 0.84982 0.42564 0.8096 0.0
H827 H 0.84239 0.39627 0.82303 0.0
H828 H 0.79143 0.23896 0.76841 0.0
H829 H 0.78198 0.20953 0.7815 0.0
H830 H 0.73373 0.22484 0.78783 0.0
H831 H 0.74295 0.25416 0.77471 0.0
Pr832 Pr 0.7668 0.78162 0.76309 0.0
Pr833 Pr 0.80499 0.80718 0.77018 0.0
C834 C 0.73298 0.76726 0.76344 0.0
C835 C 0.71773 0.7716 0.77095 0.0
C836 C 0.70193 0.76887 0.75912 0.0
C837 C 0.68712 0.77206 0.7659 0.0
C838 C 0.68769 0.77802 0.78478 0.0
C839 C 0.70368 0.78102 0.79654 0.0
C840 C 0.7185 0.77793 0.78971 0.0
C841 C 0.77894 0.797 0.7319 0.0
C842 C 0.77354 0.82682 0.77785 0.0
C843 C 0.83602 0.82265 0.76124 0.0
C844 C 0.85288 0.81808 0.75814 0.0
C845 C 0.86796 0.82521 0.77094 0.0
C846 C 0.88409 0.82284 0.76689 0.0
C847 C 0.8856 0.8133 0.74991 0.0
C848 C 0.87043 0.80571 0.73737 0.0
C849 C 0.85436 0.80806 0.7414 0.0
C850 C 0.79852 0.79074 0.80332 0.0
C851 C 0.79803 0.76115 0.75931 0.0
O852 O 0.7454 0.76324 0.77492 0.0
O853 O 0.7386 0.7773 0.75065 0.0
O854 O 0.78117 0.8053 0.74813 0.0
O855 O 0.77013 0.77984 0.73137 0.0
O856 O 0.78907 0.83048 0.77301 0.0
O857 O 0.76558 0.80959 0.77979 0.0
O858 O 0.82253 0.81452 0.74915 0.0
O859 O 0.83248 0.82478 0.77817 0.0
O860 O 0.78829 0.7885 0.78812 0.0
O861 O 0.81267 0.80232 0.8016 0.0
O862 O 0.78262 0.75825 0.76424 0.0
O863 O 0.80617 0.77784 0.75619 0.0
H864 H 0.70099 0.76409 0.74457 0.0
H865 H 0.67524 0.76991 0.75627 0.0
H866 H 0.70473 0.78534 0.81119 0.0
H867 H 0.73051 0.78025 0.79918 0.0
H868 H 0.86736 0.83306 0.78391 0.0
H869 H 0.89544 0.82871 0.777 0.0
H870 H 0.87101 0.79858 0.72402 0.0
H871 H 0.84314 0.80249 0.73103 0.0
Pr872 Pr 0.53495 0.56537 0.53576 0.0
Pr873 Pr 0.57666 0.57648 0.55098 0.0
C874 C 0.50142 0.56804 0.52992 0.0
C875 C 0.48949 0.58057 0.5236 0.0
C876 C 0.47832 0.57582 0.50658 0.0
C877 C 0.46539 0.58582 0.50169 0.0
C878 C 0.4632 0.60095 0.51365 0.0
C879 C 0.47487 0.60625 0.5303 0.0
C880 C 0.48777 0.59619 0.53523 0.0
C881 C 0.5564 0.56147 0.50999 0.0
C882 C 0.5582 0.6098 0.534 0.0
C883 C 0.61046 0.57519 0.55859 0.0
C884 C 0.62235 0.5621 0.5626 0.0
C885 C 0.63308 0.56404 0.57987 0.0
C886 C 0.64594 0.55348 0.58274 0.0
C887 C 0.64849 0.54089 0.56834 0.0
C888 C 0.63721 0.53837 0.55142 0.0
C889 C 0.62438 0.54878 0.54859 0.0
C890 C 0.55513 0.58294 0.57552 0.0
C891 C 0.55332 0.53165 0.5512 0.0
O892 O 0.51152 0.57298 0.54589 0.0
O893 O 0.50856 0.55957 0.5176 0.0
O894 O 0.55918 0.57404 0.52334 0.0
O895 O 0.54101 0.55086 0.50833 0.0
O896 O 0.57333 0.60496 0.5383 0.0
O897 O 0.5434 0.5981 0.53471 0.0
O898 O 0.60179 0.57334 0.54185 0.0
O899 O 0.60167 0.57987 0.57136 0.0
O900 O 0.55239 0.56887 0.56365 0.0
O901 O 0.57048 0.59345 0.57668 0.0
O902 O 0.53833 0.53683 0.54757 0.0
O903 O 0.56831 0.54328 0.55104 0.0
H904 H 0.47919 0.56391 0.49725 0.0
H905 H 0.45687 0.58146 0.48862 0.0
H906 H 0.47358 0.61766 0.53999 0.0
H907 H 0.496 0.6003 0.5485 0.0
H908 H 0.63193 0.57421 0.59095 0.0
H909 H 0.65438 0.55583 0.59594 0.0
H910 H 0.63853 0.52856 0.54011 0.0
H911 H 0.61641 0.54675 0.53512 0.0
Pr912 Pr 0.05835 0.55533 0.03327 0.0
Pr913 Pr 0.01928 0.55225 0.03691 0.0
C914 C 0.09025 0.54804 0.03302 0.0
C915 C 0.10037 0.53366 0.02822 0.0
C916 C 0.10977 0.53573 0.01338 0.0
C917 C 0.12138 0.5242 0.01024 0.0
C918 C 0.12415 0.5103 0.02197 0.0
C919 C 0.11409 0.50762 0.03631 0.0
C920 C 0.10239 0.51913 0.0394 0.0
C921 C 0.03831 0.56459 0.00272 0.0
C922 C 0.03023 0.51421 0.02266 0.0
C923 C 0.98669 0.55676 0.03681 0.0
C924 C 0.97635 0.5702 0.04274 0.0
C925 C 0.96666 0.56655 0.05718 0.0
C926 C 0.95533 0.57797 0.06148 0.0
C927 C 0.95341 0.59326 0.0514 0.0
C928 C 0.96347 0.59716 0.03729 0.0
C929 C 0.9748 0.58581 0.03303 0.0
C930 C 0.03909 0.5421 0.0667 0.0
C931 C 0.04778 0.59343 0.04989 0.0
O932 O 0.08202 0.54628 0.04724 0.0
O933 O 0.08217 0.55524 0.01956 0.0
O934 O 0.03344 0.55105 0.01187 0.0
O935 O 0.05421 0.57305 0.00857 0.0
O936 O 0.01709 0.52264 0.0211 0.0
O937 O 0.04595 0.5234 0.02952 0.0
O938 O 0.99547 0.56078 0.0233 0.0
O939 O 0.99468 0.54867 0.0496 0.0
O940 O 0.04389 0.55602 0.05804 0.0
O941 O 0.02326 0.53352 0.06073 0.0
O942 O 0.06099 0.58528 0.04879 0.0
O943 O 0.0316 0.58441 0.04473 0.0
H944 H 0.10859 0.54674 0.00449 0.0
H945 H 0.12846 0.52652 0.99877 0.0
H946 H 0.11581 0.4972 0.04576 0.0
H947 H 0.09542 0.51708 0.051 0.0
H948 H 0.96751 0.55456 0.06484 0.0
H949 H 0.94791 0.57467 0.07254 0.0
H950 H 0.96212 0.60857 0.02896 0.0
H951 H 0.98193 0.58897 0.02172 0.0
H952 H 0.02009 0.23036 0.9233 0.0
H953 H 0.02641 0.20495 0.94136 0.0
H954 H 0.04376 0.24462 0.99027 0.0
H955 H 0.03769 0.27005 0.97224 0.0
H956 H 0.06521 0.2219 0.98907 0.0
H957 H 1.00457 0.21286 0.98401 0.0
H958 H 0.97495 0.20931 0.96777 0.0
H959 H 0.97915 0.15855 0.93665 0.0
H960 H 0.00894 0.16198 0.95249 0.0
H961 H 0.06955 0.14777 0.04891 0.0
H962 H 0.06379 0.17563 0.03428 0.0
H963 H 0.04188 0.14047 0.98313 0.0
H964 H 0.04689 0.11283 0.99799 0.0
H965 H 0.02211 0.1626 0.98795 0.0
H966 H 0.08427 0.17341 0.99327 0.0
H967 H 0.11384 0.17838 0.01013 0.0
H968 H 0.10633 0.22702 0.04222 0.0
H969 H 0.0766 0.22213 0.02576 0.0
C970 C 0.02512 0.23365 0.93793 0.0
C971 C 0.02824 0.25229 0.94628 0.0
C972 C 0.02873 0.21907 0.94831 0.0
C973 C 0.03545 0.22268 0.96735 0.0
C974 C 0.0386 0.24132 0.97567 0.0
C975 C 0.035 0.25588 0.96531 0.0
C976 C 0.03928 0.20711 0.97853 0.0
C977 C 0.05569 0.20903 0.98898 0.0
C978 C 0.02702 0.19017 0.97853 0.0
C979 C 0.00902 0.18778 0.96928 0.0
C980 C 0.9992 0.201 0.97362 0.0
C981 C 0.98239 0.19901 0.96449 0.0
C982 C 0.97519 0.18375 0.95115 0.0
C983 C 0.98476 0.17038 0.94697 0.0
C984 C 1.00161 0.17234 0.95602 0.0
C985 C 0.0638 0.14614 0.03446 0.0
C986 C 0.05887 0.12816 0.02452 0.0
C987 C 0.06048 0.16208 0.02604 0.0
C988 C 0.05248 0.16042 0.00738 0.0
C989 C 0.04796 0.14238 0.99748 0.0
C990 C 0.05099 0.12654 0.00595 0.0
C991 C 0.04829 0.17706 0.99806 0.0
C992 C 0.0317 0.17543 0.98804 0.0
C993 C 0.06035 0.19432 0.99862 0.0
C994 C 0.07818 0.19726 0.00846 0.0
C995 C 0.08889 0.18507 0.00402 0.0
C996 C 0.10568 0.18788 0.0135 0.0
C997 C 0.11194 0.20297 0.02728 0.0
C998 C 0.10145 0.21531 0.03158 0.0
C999 C 0.08463 0.21252 0.0222 0.0
H1000 H 0.12495 0.20513 0.03459 0.0
H1001 H 0.96217 0.18225 0.94407 0.0
H1002 H 0.10552 0.81483 0.19801 0.0
H1003 H 0.13263 0.81346 0.21695 0.0
H1004 H 0.16024 0.8331 0.17318 0.0
H1005 H 0.13291 0.83352 0.15377 0.0
H1006 H 0.17432 0.80771 0.18762 0.0
H1007 H 0.15811 0.86245 0.21492 0.0
H1008 H 0.13787 0.879 0.2282 0.0
H1009 H 0.13536 0.84271 0.27169 0.0
H1010 H 0.15545 0.82582 0.25851 0.0
H1011 H 0.25778 0.83653 0.24137 0.0
H1012 H 0.22988 0.83407 0.22192 0.0
H1013 H 0.20398 0.81388 0.26669 0.0
H1014 H 0.23201 0.81706 0.28633 0.0
H1015 H 0.18856 0.83852 0.25221 0.0
H1016 H 0.20478 0.78404 0.22543 0.0
H1017 H 0.22447 0.76679 0.21199 0.0
H1018 H 0.22659 0.8021 0.16769 0.0
H1019 H 0.20702 0.81965 0.18098 0.0
C1020 C 0.11737 0.81894 0.19243 0.0
C1021 C 0.11704 0.82452 0.17444 0.0
C1022 C 0.13295 0.81824 0.20334 0.0
C1023 C 0.14872 0.82364 0.19682 0.0
C1024 C 0.14836 0.82896 0.1787 0.0
C1025 C 0.13271 0.8293 0.16761 0.0
C1026 C 0.16551 0.82374 0.20882 0.0
C1027 C 0.17747 0.8147 0.20165 0.0
C1028 C 0.16968 0.8323 0.22739 0.0
C1029 C 0.15815 0.84284 0.23569 0.0
C1030 C 0.15321 0.85801 0.2273 0.0
C1031 C 0.14176 0.86742 0.2348 0.0
C1032 C 0.1353 0.86188 0.25076 0.0
C1033 C 0.14037 0.84698 0.25932 0.0
C1034 C 0.1518 0.8375 0.25187 0.0
C1035 C 0.24611 0.83114 0.24686 0.0
C1036 C 0.24704 0.82655 0.26519 0.0
C1037 C 0.23011 0.82974 0.23575 0.0
C1038 C 0.21461 0.82347 0.2426 0.0
C1039 C 0.21562 0.81867 0.26093 0.0
C1040 C 0.23165 0.82029 0.27211 0.0
C1041 C 0.19746 0.82264 0.23093 0.0
C1042 C 0.18542 0.83152 0.23819 0.0
C1043 C 0.19319 0.81391 0.21245 0.0
C1044 C 0.2046 0.8032 0.20424 0.0
C1045 C 0.20952 0.78814 0.21285 0.0
C1046 C 0.22064 0.77831 0.20527 0.0
C1047 C 0.22681 0.78337 0.18902 0.0
C1048 C 0.22181 0.7982 0.18027 0.0
C1049 C 0.21068 0.80807 0.1878 0.0
H1050 H 0.23546 0.77578 0.18319 0.0
H1051 H 0.12639 0.86916 0.25651 0.0
H1052 H 0.50809 0.84063 0.45862 0.0
H1053 H 0.50735 0.87171 0.47316 0.0
H1054 H 0.54788 0.89713 0.44417 0.0
H1055 H 0.54845 0.86601 0.42921 0.0
H1056 H 0.55341 0.90785 0.4831 0.0
H1057 H 0.51089 0.9044 0.42987 0.0
H1058 H 0.4847 0.89206 0.40706 0.0
H1059 H 0.45368 0.89145 0.45044 0.0
H1060 H 0.47972 0.90357 0.47355 0.0
H1061 H 0.55223 0.00275 0.49966 0.0
H1062 H 0.55125 0.97087 0.48671 0.0
H1063 H 0.50526 0.95103 0.5102 0.0
H1064 H 0.5059 0.98352 0.5228 0.0
H1065 H 0.50215 0.93651 0.47556 0.0
H1066 H 0.54529 0.94214 0.52875 0.0
H1067 H 0.57171 0.95604 0.55074 0.0
H1068 H 0.60199 0.95359 0.50696 0.0
H1069 H 0.57574 0.93988 0.48467 0.0
C1070 C 0.51688 0.85284 0.4554 0.0
C1071 C 0.52844 0.851 0.44297 0.0
C1072 C 0.51632 0.87054 0.46357 0.0
C1073 C 0.52749 0.88658 0.45961 0.0
C1074 C 0.53914 0.88481 0.44729 0.0
C1075 C 0.53948 0.86712 0.43883 0.0
C1076 C 0.52753 0.90508 0.46911 0.0
C1077 C 0.5423 0.91428 0.48134 0.0
C1078 C 0.51281 0.91302 0.46713 0.0
C1079 C 0.49727 0.90463 0.45346 0.0
C1080 C 0.49851 0.90133 0.43459 0.0
C1081 C 0.48369 0.89447 0.42159 0.0
C1082 C 0.46754 0.89092 0.4273 0.0
C1083 C 0.46619 0.89416 0.44604 0.0
C1084 C 0.48098 0.90102 0.45909 0.0
C1085 C 0.5419 0.99158 0.50209 0.0
C1086 C 0.52914 0.99543 0.51221 0.0
C1087 C 0.54146 0.97336 0.49485 0.0
C1088 C 0.52848 0.95854 0.49794 0.0
C1089 C 0.51549 0.96233 0.50785 0.0
C1090 C 0.51577 0.98078 0.5149 0.0
C1091 C 0.52803 0.93936 0.48965 0.0
C1092 C 0.5132 0.93001 0.47758 0.0
C1093 C 0.54274 0.93131 0.49176 0.0
C1094 C 0.55852 0.94004 0.50503 0.0
C1095 C 0.55756 0.94472 0.52378 0.0
C1096 C 0.57251 0.95254 0.53631 0.0
C1097 C 0.58851 0.9557 0.53027 0.0
C1098 C 0.5896 0.95113 0.51165 0.0
C1099 C 0.57469 0.94331 0.49906 0.0
H1100 H 0.60003 0.96164 0.54006 0.0
H1101 H 0.45607 0.8857 0.4172 0.0
H1102 H 0.53217 0.33131 0.68988 0.0
H1103 H 0.5067 0.32141 0.70446 0.0
H1104 H 0.4847 0.27979 0.6578 0.0
H1105 H 0.50981 0.29039 0.64275 0.0
H1106 H 0.46072 0.29439 0.66698 0.0
H1107 H 0.50227 0.26804 0.70252 0.0
H1108 H 0.53017 0.26735 0.72101 0.0
H1109 H 0.5226 0.30916 0.76182 0.0
H1110 H 0.49473 0.31022 0.74347 0.0
H1111 H 0.39246 0.26201 0.71888 0.0
H1112 H 0.41731 0.2613 0.70261 0.0
H1113 H 0.44693 0.30927 0.7394 0.0
H1114 H 0.4223 0.30979 0.75559 0.0
H1115 H 0.46624 0.2846 0.7336 0.0
H1116 H 0.42506 0.31188 0.69531 0.0
H1117 H 0.39709 0.31122 0.67632 0.0
H1118 H 0.40404 0.26538 0.63977 0.0
H1119 H 0.43189 0.26548 0.65883 0.0
C1120 C 0.52184 0.32014 0.68269 0.0
C1121 C 0.52293 0.31176 0.66512 0.0
C1122 C 0.50735 0.31429 0.69114 0.0
C1123 C 0.49384 0.2995 0.68248 0.0
C1124 C 0.4949 0.29118 0.66484 0.0
C1125 C 0.50925 0.2973 0.65621 0.0
C1126 C 0.47841 0.29326 0.69158 0.0
C1127 C 0.46196 0.29187 0.68146 0.0
C1128 C 0.47982 0.28992 0.71048 0.0
C1129 C 0.4965 0.28929 0.72158 0.0
C1130 C 0.50662 0.27715 0.71539 0.0
C1131 C 0.5224 0.27668 0.72585 0.0
C1132 C 0.52816 0.28823 0.74256 0.0
C1133 C 0.51812 0.30023 0.74887 0.0
C1134 C 0.50232 0.30074 0.73847 0.0
C1135 C 0.4044 0.27219 0.72352 0.0
C1136 C 0.4056 0.28599 0.73836 0.0
C1137 C 0.41853 0.27185 0.71422 0.0
C1138 C 0.43396 0.28538 0.71964 0.0
C1139 C 0.4352 0.2987 0.73493 0.0
C1140 C 0.42115 0.29905 0.74414 0.0
C1141 C 0.44872 0.2865 0.70918 0.0
C1142 C 0.46504 0.2868 0.71903 0.0
C1143 C 0.44714 0.28859 0.69 0.0
C1144 C 0.4304 0.2885 0.67865 0.0
C1145 C 0.42053 0.30153 0.68334 0.0
C1146 C 0.40471 0.30126 0.67256 0.0
C1147 C 0.39876 0.28822 0.65688 0.0
C1148 C 0.40863 0.27542 0.65195 0.0
C1149 C 0.42441 0.27555 0.66276 0.0
H1150 H 0.38652 0.28807 0.64852 0.0
H1151 H 0.5404 0.28785 0.75063 0.0
H1152 H 0.0978 0.88166 0.62951 0.0
H1153 H 0.09886 0.91086 0.61469 0.0
H1154 H 0.04333 0.89895 0.60404 0.0
H1155 H 0.04241 0.86927 0.61759 0.0
H1156 H 0.0532 0.90836 0.57519 0.0
H1157 H 0.07409 0.93647 0.63874 0.0
H1158 H 0.09397 0.94452 0.66836 0.0
H1159 H 0.13523 0.96735 0.63955 0.0
H1160 H 0.11568 0.95919 0.60974 0.0
H1161 H 0.03389 0.99233 0.54656 0.0
H1162 H 0.03821 0.96542 0.56311 0.0
H1163 H 0.09323 0.98543 0.56899 0.0
H1164 H 0.08872 0.01316 0.55334 0.0
H1165 H 0.08744 0.97206 0.59885 0.0
H1166 H 0.06815 0.9443 0.53634 0.0
H1167 H 0.04993 0.93496 0.50579 0.0
H1168 H 0.00734 0.91053 0.53206 0.0
H1169 H 0.02527 0.91986 0.56274 0.0
C1170 C 0.08583 0.88534 0.62398 0.0
C1171 C 0.07 0.87299 0.6245 0.0
C1172 C 0.08644 0.90222 0.61568 0.0
C1173 C 0.07117 0.90752 0.60825 0.0
C1174 C 0.05538 0.89535 0.60941 0.0
C1175 C 0.05481 0.87828 0.61717 0.0
C1176 C 0.07126 0.92464 0.59785 0.0
C1177 C 0.06047 0.92233 0.58069 0.0
C1178 C 0.08156 0.94287 0.60413 0.0
C1179 C 0.09346 0.94696 0.62198 0.0
C1180 C 0.08746 0.94296 0.6387 0.0
C1181 C 0.09866 0.94761 0.65553 0.0
C1182 C 0.11587 0.95638 0.65583 0.0
C1183 C 0.12192 0.9605 0.6393 0.0
C1184 C 0.11078 0.95585 0.62243 0.0
C1185 C 0.04691 0.99099 0.55142 0.0
C1186 C 0.06095 0.00486 0.54868 0.0
C1187 C 0.04942 0.97542 0.56075 0.0
C1188 C 0.06609 0.97284 0.56704 0.0
C1189 C 0.0802 0.98685 0.56434 0.0
C1190 C 0.07765 0.00274 0.55537 0.0
C1191 C 0.06861 0.95581 0.57674 0.0
C1192 C 0.08007 0.95809 0.59352 0.0
C1193 C 0.05906 0.9374 0.57012 0.0
C1194 C 0.04799 0.93296 0.5518 0.0
C1195 C 0.05483 0.93718 0.53559 0.0
C1196 C 0.04458 0.93181 0.51825 0.0
C1197 C 0.02748 0.9222 0.51698 0.0
C1198 C 0.02057 0.918 0.53305 0.0
C1199 C 0.03077 0.92332 0.5504 0.0
H1200 H 0.01959 0.91798 0.50354 0.0
H1201 H 0.12449 0.96004 0.66888 0.0
H1202 H 0.48806 0.79504 0.85062 0.0
H1203 H 0.46213 0.79934 0.83134 0.0
H1204 H 0.43802 0.80511 0.88003 0.0
H1205 H 0.46388 0.80036 0.89942 0.0
H1206 H 0.41564 0.78441 0.85238 0.0
H1207 H 0.4556 0.84413 0.85931 0.0
H1208 H 0.48219 0.8673 0.85765 0.0
H1209 H 0.47653 0.85169 0.79904 0.0
H1210 H 0.45003 0.82829 0.80041 0.0
H1211 H 0.35292 0.83353 0.81877 0.0
H1212 H 0.37966 0.82759 0.83526 0.0
H1213 H 0.39389 0.80948 0.78316 0.0
H1214 H 0.36674 0.81491 0.76665 0.0
H1215 H 0.42082 0.83512 0.81068 0.0
H1216 H 0.37978 0.77681 0.8035 0.0
H1217 H 0.35145 0.75681 0.80473 0.0
H1218 H 0.35811 0.77131 0.86355 0.0
H1219 H 0.38641 0.79177 0.86264 0.0
C1220 C 0.47719 0.79707 0.85722 0.0
C1221 C 0.478 0.79746 0.87654 0.0
C1222 C 0.46242 0.79964 0.84619 0.0
C1223 C 0.44829 0.80291 0.85429 0.0
C1224 C 0.44883 0.80269 0.87352 0.0
C1225 C 0.46359 0.79998 0.88457 0.0
C1226 C 0.43306 0.80679 0.84271 0.0
C1227 C 0.41679 0.79562 0.84341 0.0
C1228 C 0.43455 0.8211 0.83063 0.0
C1229 C 0.451 0.8343 0.83002 0.0
C1230 C 0.46019 0.84545 0.84613 0.0
C1231 C 0.47519 0.85868 0.84522 0.0
C1232 C 0.48107 0.86093 0.82826 0.0
C1233 C 0.47199 0.84991 0.81218 0.0
C1234 C 0.45699 0.83666 0.81301 0.0
C1235 C 0.36202 0.82874 0.81089 0.0
C1236 C 0.35818 0.82488 0.79159 0.0
C1237 C 0.3771 0.8252 0.82026 0.0
C1238 C 0.3885 0.81795 0.81035 0.0
C1239 C 0.38511 0.81504 0.79093 0.0
C1240 C 0.36979 0.81823 0.78156 0.0
C1241 C 0.40367 0.81286 0.82049 0.0
C1242 C 0.41982 0.8238 0.81953 0.0
C1243 C 0.40205 0.79841 0.8323 0.0
C1244 C 0.38516 0.78594 0.83298 0.0
C1245 C 0.37516 0.77587 0.81668 0.0
C1246 C 0.3591 0.76443 0.81731 0.0
C1247 C 0.35296 0.76279 0.83418 0.0
C1248 C 0.36288 0.7726 0.85048 0.0
C1249 C 0.37894 0.78411 0.84992 0.0
H1250 H 0.34052 0.7539 0.83462 0.0
H1251 H 0.49264 0.87125 0.82757 0.0
H1252 H 0.55653 0.25157 0.14294 0.0
H1253 H 0.55203 0.2201 0.12641 0.0
H1254 H 0.56443 0.24483 0.07701 0.0
H1255 H 0.5684 0.27632 0.09339 0.0
H1256 H 0.53787 0.21835 0.06775 0.0
H1257 H 0.59181 0.22122 0.107 0.0
H1258 H 0.61159 0.22452 0.1365 0.0
H1259 H 0.57862 0.17758 0.15435 0.0
H1260 H 0.5585 0.17421 0.12509 0.0
H1261 H 0.54449 0.13828 0.01156 0.0
H1262 H 0.54909 0.16799 0.03083 0.0
H1263 H 0.54084 0.13804 0.07849 0.0
H1264 H 0.53735 0.10797 0.05903 0.0
H1265 H 0.56368 0.16645 0.09031 0.0
H1266 H 0.5098 0.16329 0.0515 0.0
H1267 H 0.4884 0.16138 0.02346 0.0
H1268 H 0.51985 0.20953 0.00574 0.0
H1269 H 0.54153 0.21154 0.03348 0.0
C1270 C 0.55837 0.25032 0.12856 0.0
C1271 C 0.56279 0.26659 0.11951 0.0
C1272 C 0.55592 0.23221 0.11911 0.0
C1273 C 0.55806 0.22978 0.10036 0.0
C1274 C 0.56265 0.24609 0.09141 0.0
C1275 C 0.56497 0.26419 0.10082 0.0
C1276 C 0.55468 0.21047 0.08972 0.0
C1277 C 0.54379 0.20712 0.07258 0.0
C1278 C 0.56164 0.19531 0.09623 0.0
C1279 C 0.57358 0.19759 0.11393 0.0
C1280 C 0.5887 0.21173 0.11729 0.0
C1281 C 0.59998 0.21359 0.13396 0.0
C1282 C 0.59635 0.20129 0.1473 0.0
C1283 C 0.58141 0.18712 0.14402 0.0
C1284 C 0.57006 0.18523 0.1274 0.0
C1285 C 0.54368 0.13793 0.02618 0.0
C1286 C 0.54048 0.12059 0.0337 0.0
C1287 C 0.54609 0.1551 0.03725 0.0
C1288 C 0.54479 0.15568 0.05625 0.0
C1289 C 0.54184 0.1383 0.06392 0.0
C1290 C 0.53984 0.121 0.05281 0.0
C1291 C 0.54713 0.17437 0.06798 0.0
C1292 C 0.55775 0.17762 0.08539 0.0
C1293 C 0.53983 0.18949 0.06177 0.0
C1294 C 0.52735 0.18744 0.04448 0.0
C1295 C 0.51226 0.17329 0.04148 0.0
C1296 C 0.50005 0.17224 0.02567 0.0
C1297 C 0.50277 0.1853 0.01281 0.0
C1298 C 0.51776 0.19939 0.01568 0.0
C1299 C 0.53001 0.20048 0.03142 0.0
H1300 H 0.49325 0.18454 1.00065 0.0
H1301 H 0.60513 0.20272 0.16017 0.0
H1302 H 0.04397 0.27761 0.35232 0.0
H1303 H 0.0652 0.27494 0.33185 0.0
H1304 H 0.10511 0.30897 0.37314 0.0
H1305 H 0.08384 0.31185 0.39367 0.0
H1306 H 0.1076 0.3197 0.33879 0.0
H1307 H 0.09952 0.26033 0.3658 0.0
H1308 H 0.08217 0.23053 0.37279 0.0
H1309 H 0.06576 0.2135 0.31461 0.0
H1310 H 0.08284 0.24335 0.3073 0.0
H1311 H 0.18485 0.30381 0.31464 0.0
H1312 H 0.15938 0.30701 0.32784 0.0
H1313 H 0.12814 0.26465 0.28591 0.0
H1314 H 0.154 0.26021 0.27346 0.0
H1315 H 0.11801 0.25775 0.31624 0.0
H1316 H 0.12568 0.31446 0.28784 0.0
H1317 H 0.14074 0.34449 0.27877 0.0
H1318 H 0.15541 0.36659 0.33605 0.0
H1319 H 0.14047 0.33666 0.34545 0.0
C1320 C 0.05728 0.28454 0.35708 0.0
C1321 C 0.06224 0.2949 0.3747 0.0
C1322 C 0.06942 0.28292 0.34535 0.0
C1323 C 0.08682 0.29156 0.351 0.0
C1324 C 0.09176 0.30213 0.36848 0.0
C1325 C 0.07962 0.30373 0.38024 0.0
C1326 C 0.09992 0.28972 0.33874 0.0
C1327 C 0.11 0.30616 0.33401 0.0
C1328 C 0.10249 0.27206 0.33164 0.0
C1329 C 0.0923 0.25412 0.33603 0.0
C1330 C 0.0921 0.25028 0.35451 0.0
C1331 C 0.08234 0.23338 0.35853 0.0
C1332 C 0.07283 0.22015 0.34416 0.0
C1333 C 0.0731 0.22378 0.32573 0.0
C1334 C 0.08283 0.24067 0.32164 0.0
C1335 C 0.17263 0.29503 0.30821 0.0
C1336 C 0.17167 0.28153 0.29309 0.0
C1337 C 0.1579 0.29716 0.31561 0.0
C1338 C 0.14162 0.28631 0.30779 0.0
C1339 C 0.14048 0.27325 0.29226 0.0
C1340 C 0.15532 0.27087 0.285 0.0
C1341 C 0.12618 0.28782 0.31672 0.0
C1342 C 0.11556 0.27133 0.32078 0.0
C1343 C 0.12283 0.30544 0.32287 0.0
C1344 C 0.13205 0.32332 0.31733 0.0
C1345 C 0.13222 0.32569 0.29849 0.0
C1346 C 0.14069 0.34271 0.2933 0.0
C1347 C 0.14905 0.35743 0.30683 0.0
C1348 C 0.14892 0.35518 0.32558 0.0
C1349 C 0.14041 0.33822 0.33085 0.0
H1350 H 0.1556 0.37059 0.30277 0.0
H1351 H 0.06529 0.20707 0.3473 0.0
H1352 H 0.9273 0.02387 0.1525 0.0
H1353 H 0.95072 0.03291 0.13418 0.0
H1354 H 0.97584 0.07781 0.1769 0.0
H1355 H 0.95281 0.06884 0.19503 0.0
H1356 H 0.97375 0.08846 0.14096 0.0
H1357 H 0.99202 0.04158 0.17706 0.0
H1358 H 0.98927 0.01069 0.18921 0.0
H1359 H 0.98154 0.98325 0.13377 0.0
H1360 H 0.98411 0.01401 0.1213 0.0
H1361 H 0.05654 0.10328 0.10731 0.0
H1362 H 0.03476 0.09941 0.12829 0.0
H1363 H 1.00417 0.05204 0.09139 0.0
H1364 H 0.02546 0.05544 0.07106 0.0
H1365 H 0.0113 0.04432 0.12762 0.0
H1366 H 0.99069 0.09077 0.09138 0.0
H1367 H 0.99293 0.12157 0.07908 0.0
H1368 H 0.00501 0.14952 0.13451 0.0
H1369 H 1.00292 0.11886 0.14711 0.0
C1370 C 0.93769 0.03586 0.1576 0.0
C1371 C 0.93843 0.04585 0.17485 0.0
C1372 C 0.95102 0.04087 0.14737 0.0
C1373 C 0.96484 0.05592 0.15442 0.0
C1374 C 0.96519 0.06621 0.17137 0.0
C1375 C 0.95209 0.06111 0.1816 0.0
C1376 C 0.97918 0.06105 0.14433 0.0
C1377 C 0.98211 0.07893 0.13817 0.0
C1378 C 0.98993 0.04853 0.14089 0.0
C1379 C 0.98804 0.03002 0.14827 0.0
C1380 C 0.98955 0.02893 0.16747 0.0
C1381 C 0.98808 0.01146 0.17441 0.0
C1382 C 0.98517 0.99501 0.16227 0.0
C1383 C 0.98376 0.996 0.14316 0.0
C1384 C 0.98523 0.01344 0.13615 0.0
C1385 C 0.04507 0.09222 0.10376 0.0
C1386 C 0.04264 0.07966 0.0877 0.0
C1387 C 0.03274 0.09005 0.11561 0.0
C1388 C 0.01812 0.07535 0.11126 0.0
C1389 C 0.01552 0.06332 0.09495 0.0
C1390 C 0.0277 0.06539 0.08333 0.0
C1391 C 0.00559 0.07157 0.12382 0.0
C1392 C 1.00305 0.05394 0.13057 0.0
C1393 C 0.99516 0.08427 0.12771 0.0
C1394 C 0.99687 0.10263 0.12015 0.0
C1395 C 0.99401 0.10351 0.10091 0.0
C1396 C 0.99519 0.12092 0.09389 0.0
C1397 C 0.99918 0.13749 0.106 0.0
C1398 C 1.00197 0.13668 0.12515 0.0
C1399 C 1.00077 0.11931 0.13224 0.0
H1400 H 1.00005 0.15096 0.10054 0.0
H1401 H 0.98406 0.9815 0.16768 0.0
H1402 H 0.26084 0.69468 0.45074 0.0
H1403 H 0.25758 0.70895 0.42162 0.0
H1404 H 0.29417 0.75898 0.44724 0.0
H1405 H 0.29702 0.74504 0.47646 0.0
H1406 H 0.26782 0.76847 0.42976 0.0
H1407 H 0.30147 0.72286 0.4157 0.0
H1408 H 0.30937 0.69248 0.40856 0.0
H1409 H 0.2678 0.67805 0.36298 0.0
H1410 H 0.25884 0.70766 0.37063 0.0
H1411 H 0.29624 0.81599 0.35584 0.0
H1412 H 0.2914 0.79929 0.38283 0.0
H1413 H 0.25426 0.7549 0.34816 0.0
H1414 H 0.25955 0.77126 0.32092 0.0
H1415 H 0.27591 0.74065 0.36861 0.0
H1416 H 0.24257 0.78572 0.38158 0.0
H1417 H 0.23635 0.81739 0.38581 0.0
H1418 H 0.27847 0.83342 0.43079 0.0
H1419 H 0.28509 0.80194 0.42664 0.0
C1420 C 0.26823 0.70871 0.45012 0.0
C1421 C 0.27915 0.71881 0.46592 0.0
C1422 C 0.26642 0.7168 0.43342 0.0
C1423 C 0.27571 0.73501 0.43214 0.0
C1424 C 0.28681 0.74494 0.44787 0.0
C1425 C 0.28846 0.73696 0.46458 0.0
C1426 C 0.27341 0.74434 0.41489 0.0
C1427 C 0.26972 0.76237 0.41643 0.0
C1428 C 0.27502 0.73611 0.3972 0.0
C1429 C 0.27925 0.71736 0.39405 0.0
C1430 C 0.29363 0.71294 0.40458 0.0
C1431 C 0.29829 0.69582 0.40042 0.0
C1432 C 0.28891 0.68319 0.38551 0.0
C1433 C 0.27478 0.68759 0.3748 0.0
C1434 C 0.26983 0.70448 0.37914 0.0
C1435 C 0.28681 0.80283 0.35399 0.0
C1436 C 0.27835 0.79488 0.33624 0.0
C1437 C 0.28397 0.79334 0.36948 0.0
C1438 C 0.27231 0.77591 0.3676 0.0
C1439 C 0.26332 0.76832 0.34996 0.0
C1440 C 0.26636 0.77767 0.33441 0.0
C1441 C 0.27085 0.76483 0.3837 0.0
C1442 C 0.2737 0.74651 0.38192 0.0
C1443 C 0.2684 0.77267 0.40111 0.0
C1444 C 0.26437 0.79154 0.40372 0.0
C1445 C 0.25056 0.79605 0.39229 0.0
C1446 C 0.24696 0.81396 0.39469 0.0
C1447 C 0.25703 0.82742 0.40854 0.0
C1448 C 0.27069 0.82298 0.42006 0.0
C1449 C 0.27435 0.80511 0.41771 0.0
H1450 H 0.25422 0.84129 0.41036 0.0
H1451 H 0.29271 0.67007 0.38213 0.0
H1452 H 0.61136 0.01269 0.72279 0.0
H1453 H 0.59789 0.02308 0.69475 0.0
H1454 H 0.61673 0.98263 0.66136 0.0
H1455 H 0.63162 0.97337 0.68968 0.0
H1456 H 0.61899 0.01383 0.64587 0.0
H1457 H 0.5739 0.97465 0.67119 0.0
H1458 H 0.5584 0.96514 0.69695 0.0
H1459 H 0.54501 0.01918 0.70283 0.0
H1460 H 0.56065 0.02909 0.67728 0.0
H1461 H 0.55847 0.01586 0.5653 0.0
H1462 H 0.57574 0.00666 0.59197 0.0
H1463 H 0.56204 0.04921 0.62787 0.0
H1464 H 0.54472 0.05828 0.60117 0.0
H1465 H 0.55712 0.01578 0.64125 0.0
H1466 H 0.60223 0.05502 0.61618 0.0
H1467 H 0.61867 0.06519 0.59131 0.0
H1468 H 0.63201 0.01118 0.58489 0.0
H1469 H 0.61541 1.00059 0.60954 0.0
C1470 C 0.61242 0.00588 0.70944 0.0
C1471 C 0.622 0.99189 0.70819 0.0
C1472 C 0.60478 0.01183 0.69346 0.0
C1473 C 0.60585 0.00319 0.676 0.0
C1474 C 0.61563 0.98933 0.67473 0.0
C1475 C 0.62391 0.98389 0.6908 0.0
C1476 C 0.59641 0.00845 0.65918 0.0
C1477 C 0.6054 0.01397 0.64471 0.0
C1478 C 0.57876 0.00896 0.65785 0.0
C1479 C 0.56845 0.0026 0.67238 0.0
C1480 C 0.5676 0.98447 0.67796 0.0
C1481 C 0.55884 0.97904 0.69255 0.0
C1482 C 0.55074 0.99156 0.70153 0.0
C1483 C 0.55128 0.00949 0.69585 0.0
C1484 C 0.56005 0.01501 0.6813 0.0
C1485 C 0.55934 0.02325 0.57892 0.0
C1486 C 0.55047 0.03768 0.5815 0.0
C1487 C 0.5692 0.0181 0.59405 0.0
C1488 C 0.57021 0.02738 0.6118 0.0
C1489 C 0.56141 0.04196 0.61424 0.0
C1490 C 0.55162 0.04715 0.5991 0.0
C1491 C 0.57972 0.02129 0.62802 0.0
C1492 C 0.57069 0.01553 0.64236 0.0
C1493 C 0.59727 0.02052 0.62914 0.0
C1494 C 0.6075 0.02698 0.61459 0.0
C1495 C 0.6086 0.04528 0.60939 0.0
C1496 C 0.61795 0.05113 0.59535 0.0
C1497 C 0.62638 0.03884 0.58653 0.0
C1498 C 0.62549 0.02069 0.59175 0.0
C1499 C 0.61613 0.01476 0.60576 0.0
H1500 H 0.63359 0.04337 0.57563 0.0
H1501 H 0.54402 0.98735 0.71288 0.0
H1502 H 0.32903 0.38223 0.99333 0.0
H1503 H 0.32958 0.36899 0.96171 0.0
H1504 H 0.27769 0.3757 0.94518 0.0
H1505 H 0.27722 0.38945 0.97671 0.0
H1506 H 0.2836 0.33946 0.9345 0.0
H1507 H 0.3054 0.40359 0.92912 0.0
H1508 H 0.32338 0.43564 0.93601 0.0
H1509 H 0.36859 0.41396 0.93055 0.0
H1510 H 0.35089 0.38171 0.92388 0.0
H1511 H 0.27988 0.31988 0.83864 0.0
H1512 H 0.27937 0.33288 0.86974 0.0
H1513 H 0.33399 0.33626 0.88355 0.0
H1514 H 0.3348 0.32386 0.85155 0.0
H1515 H 0.326 0.36758 0.89568 0.0
H1516 H 0.30135 0.30188 0.90004 0.0
H1517 H 0.28097 0.27151 0.89017 0.0
H1518 H 0.23844 0.29814 0.89497 0.0
H1519 H 0.25856 0.32867 0.90478 0.0
C1520 C 0.3177 0.38073 0.98299 0.0
C1521 C 0.30301 0.38662 0.98747 0.0
C1522 C 0.31809 0.37337 0.96493 0.0
C1523 C 0.30371 0.3715 0.95116 0.0
C1524 C 0.28892 0.3771 0.95565 0.0
C1525 C 0.28865 0.38486 0.97363 0.0
C1526 C 0.30399 0.36293 0.93231 0.0
C1527 C 0.29276 0.34566 0.9259 0.0
C1528 C 0.31603 0.37101 0.92124 0.0
C1529 C 0.32685 0.3902 0.9263 0.0
C1530 C 0.31921 0.40561 0.92971 0.0
C1531 C 0.32934 0.42383 0.93348 0.0
C1532 C 0.34713 0.42682 0.93382 0.0
C1533 C 0.35482 0.4116 0.93039 0.0
C1534 C 0.34475 0.39335 0.9266 0.0
C1535 C 0.29186 0.32316 0.84822 0.0
C1536 C 0.30744 0.32075 0.84257 0.0
C1537 C 0.29147 0.33048 0.86617 0.0
C1538 C 0.30653 0.33512 0.87917 0.0
C1539 C 0.32216 0.33261 0.87373 0.0
C1540 C 0.32263 0.32553 0.8555 0.0
C1541 C 0.30597 0.34375 0.89801 0.0
C1542 C 0.31704 0.36117 0.90437 0.0
C1543 C 0.29356 0.33594 0.90889 0.0
C1544 C 0.28146 0.31755 0.90308 0.0
C1545 C 0.28765 0.30125 0.89892 0.0
C1546 C 0.27614 0.28401 0.89336 0.0
C1547 C 0.25842 0.2829 0.89194 0.0
C1548 C 0.25217 0.29901 0.89611 0.0
C1549 C 0.26362 0.31628 0.90172 0.0
H1550 H 0.24954 0.26954 0.88762 0.0
H1551 H 0.35494 0.44095 0.93667 0.0
H1552 H 0.95871 0.05811 0.25825 0.0
H1553 H 0.97652 0.05797 0.28781 0.0
H1554 H 0.93211 0.02972 0.30966 0.0
H1555 H 0.91397 0.02972 0.27983 0.0
H1556 H 0.95349 0.06192 0.33204 0.0
H1557 H 0.95711 0.0042 0.29993 0.0
H1558 H 0.96096 0.98311 0.27364 0.0
H1559 H 0.01285 0.014 0.2761 0.0
H1560 H 0.00919 0.03554 0.30217 0.0
H1561 H 0.99756 0.03297 0.40892 0.0
H1562 H 0.98014 0.0332 0.37911 0.0
H1563 H 0.02438 0.06482 0.35935 0.0
H1564 H 0.04213 0.06458 0.38962 0.0
H1565 H 1.00316 0.03051 0.33589 0.0
H1566 H 0.99861 0.08876 0.36796 0.0
H1567 H 0.99392 0.10938 0.3942 0.0
H1568 H 0.94295 0.0761 0.39191 0.0
H1569 H 0.94745 0.05506 0.36588 0.0
C1570 C 0.95271 0.05193 0.26936 0.0
C1571 C 0.93508 0.04383 0.26694 0.0
C1572 C 0.96288 0.05177 0.28609 0.0
C1573 C 0.95551 0.04349 0.30046 0.0
C1574 C 0.93782 0.03597 0.29841 0.0
C1575 C 0.92756 0.0361 0.28157 0.0
C1576 C 0.9665 0.04346 0.31782 0.0
C1577 C 0.9642 0.05482 0.33305 0.0
C1578 C 0.98058 0.03451 0.3186 0.0
C1579 C 0.98283 0.02159 0.30291 0.0
C1580 C 0.96928 0.00663 0.29474 0.0
C1581 C 0.97144 0.99456 0.2799 0.0
C1582 C 0.98713 0.99723 0.27318 0.0
C1583 C 1.00069 0.01196 0.28131 0.0
C1584 C 0.99859 0.0241 0.29612 0.0
C1585 C 1.00349 0.04015 0.39825 0.0
C1586 C 0.02093 0.04908 0.40131 0.0
C1587 C 0.99362 0.0402 0.38136 0.0
C1588 C 1.00111 0.04924 0.36745 0.0
C1589 C 0.01861 0.05791 0.37024 0.0
C1590 C 0.02861 0.05783 0.3873 0.0
C1591 C 0.99026 0.04919 0.34998 0.0
C1592 C 0.99251 0.03768 0.33479 0.0
C1593 C 0.97605 0.05788 0.34923 0.0
C1594 C 0.9734 0.0703 0.36506 0.0
C1595 C 0.98647 0.08573 0.37319 0.0
C1596 C 0.98384 0.0975 0.38799 0.0
C1597 C 0.96815 0.09403 0.3947 0.0
C1598 C 0.95509 0.07876 0.38668 0.0
C1599 C 0.95767 0.06691 0.37191 0.0
H1600 H 0.96612 0.10321 0.40607 0.0
H1601 H 0.98878 0.98785 0.2617 0.0
H1602 H 0.306 0.70743 0.5839 0.0
H1603 H 0.30968 0.7247 0.61467 0.0
H1604 H 0.27667 0.76041 0.59288 0.0
H1605 H 0.27405 0.74395 0.56185 0.0
H1606 H 0.29966 0.78132 0.61592 0.0
H1607 H 0.26471 0.72104 0.62258 0.0
H1608 H 0.25845 0.68633 0.61961 0.0
H1609 H 0.30534 0.68747 0.6562 0.0
H1610 H 0.31192 0.72219 0.65925 0.0
H1611 H 0.28866 0.8237 0.70271 0.0
H1612 H 0.28493 0.80584 0.67241 0.0
H1613 H 0.31471 0.76798 0.69615 0.0
H1614 H 0.31715 0.78519 0.72701 0.0
H1615 H 0.29379 0.74785 0.67181 0.0
H1616 H 0.32865 0.80874 0.66479 0.0
H1617 H 0.33677 0.84305 0.66356 0.0
H1618 H 0.29059 0.84089 0.62544 0.0
H1619 H 0.28216 0.80664 0.62657 0.0
C1620 C 0.29952 0.71897 0.58566 0.0
C1621 C 0.28968 0.72419 0.57029 0.0
C1622 C 0.30148 0.72881 0.60344 0.0
C1623 C 0.29311 0.74378 0.60665 0.0
C1624 C 0.28332 0.74901 0.59116 0.0
C1625 C 0.28175 0.7395 0.5733 0.0
C1626 C 0.29471 0.75416 0.62589 0.0
C1627 C 0.29808 0.77392 0.62807 0.0
C1628 C 0.2932 0.74489 0.64214 0.0
C1629 C 0.28881 0.72413 0.64111 0.0
C1630 C 0.27364 0.71385 0.63003 0.0
C1631 C 0.27006 0.6942 0.6283 0.0
C1632 C 0.2815 0.6847 0.6377 0.0
C1633 C 0.29648 0.69484 0.64894 0.0
C1634 C 0.30012 0.7145 0.65072 0.0
C1635 C 0.29424 0.81139 0.70156 0.0
C1636 C 0.30311 0.8059 0.71748 0.0
C1637 C 0.2924 0.80128 0.68395 0.0
C1638 C 0.30005 0.78568 0.68128 0.0
C1639 C 0.30866 0.77991 0.69736 0.0
C1640 C 0.31003 0.78975 0.71518 0.0
C1641 C 0.29873 0.77525 0.662 0.0
C1642 C 0.29536 0.75539 0.65975 0.0
C1643 C 0.30017 0.78449 0.6456 0.0
C1644 C 0.3047 0.80521 0.64596 0.0
C1645 C 0.32013 0.81565 0.65636 0.0
C1646 C 0.32482 0.83506 0.65561 0.0
C1647 C 0.31418 0.84415 0.64447 0.0
C1648 C 0.2988 0.83386 0.6341 0.0
C1649 C 0.29407 0.81446 0.6348 0.0
H1650 H 0.31788 0.85916 0.64383 0.0
H1651 H 0.27874 0.66948 0.63628 0.0
H1652 H 0.60788 0.98195 0.80106 0.0
H1653 H 0.59608 1.00195 0.8221 0.0
H1654 H 0.64513 0.0413 0.83354 0.0
H1655 H 0.65722 0.02084 0.81391 0.0
H1656 H 0.63256 0.03904 0.86311 0.0
H1657 H 0.6084 0.04772 0.80006 0.0
H1658 H 0.59219 0.03626 0.76878 0.0
H1659 H 0.54821 0.01119 0.79262 0.0
H1660 H 0.56416 0.02249 0.82399 0.0
H1661 H 0.5962 0.10276 0.91302 0.0
H1662 H 0.61077 0.09258 0.88782 0.0
H1663 H 0.56506 0.05001 0.8662 0.0
H1664 H 0.5503 0.0614 0.88998 0.0
H1665 H 0.57874 0.05876 0.83949 0.0
H1666 H 0.60214 0.04609 0.90169 0.0
H1667 H 0.61785 0.05442 0.93359 0.0
H1668 H 0.66236 0.0828 0.91257 0.0
H1669 H 0.64678 0.07508 0.88068 0.0
C1670 C 0.61621 0.99455 0.8086 0.0
C1671 C 0.63346 0.99973 0.80606 0.0
C1672 C 0.60941 0.00616 0.82027 0.0
C1673 C 0.61961 0.0234 0.8289 0.0
C1674 C 0.63702 0.0281 0.82698 0.0
C1675 C 0.64394 0.01627 0.81586 0.0
C1676 C 0.61233 0.03669 0.83996 0.0
C1677 C 0.6209 0.04357 0.85787 0.0
C1678 C 0.59707 0.04244 0.83317 0.0
C1679 C 0.58747 0.0359 0.81431 0.0
C1680 C 0.59528 0.03974 0.79859 0.0
C1681 C 0.58613 0.03329 0.78086 0.0
C1682 C 0.56919 0.023 0.77871 0.0
C1683 C 0.56132 0.01919 0.79429 0.0
C1684 C 0.57038 0.02567 0.81203 0.0
C1685 C 0.58921 0.09181 0.90231 0.0
C1686 C 0.57222 0.08287 0.90312 0.0
C1687 C 0.59754 0.08581 0.88813 0.0
C1688 C 0.58919 0.07015 0.87542 0.0
C1689 C 0.57182 0.06214 0.87573 0.0
C1690 C 0.56336 0.0686 0.88933 0.0
C1691 C 0.59856 0.06052 0.86302 0.0
C1692 C 0.59052 0.05446 0.8447 0.0
C1693 C 0.61413 0.05517 0.8696 0.0
C1694 C 0.62322 0.06027 0.88886 0.0
C1695 C 0.61522 0.0543 0.90393 0.0
C1696 C 0.6241 0.05892 0.92201 0.0
C1697 C 0.64107 0.06923 0.92515 0.0
C1698 C 0.64919 0.07496 0.9102 0.0
C1699 C 0.64032 0.07052 0.89213 0.0
H1700 H 0.64795 0.0727 0.93915 0.0
H1701 H 0.56214 0.01798 0.76498 0.0
H1702 H 0.28424 0.40502 0.09665 0.0
H1703 H 0.27892 0.3873 0.12302 0.0
H1704 H 0.31191 0.35093 0.10698 0.0
H1705 H 0.31595 0.36773 0.07963 0.0
H1706 H 0.28883 0.33035 0.11964 0.0
H1707 H 0.32268 0.39141 0.14581 0.0
H1708 H 0.32895 0.4261 0.15069 0.0
H1709 H 0.28176 0.42442 0.17261 0.0
H1710 H 0.2751 0.38974 0.1676 0.0
H1711 H 0.30108 0.2957 0.20989 0.0
H1712 H 0.30564 0.31166 0.18189 0.0
H1713 H 0.26472 0.34029 0.18984 0.0
H1714 H 0.2599 0.324 0.21735 0.0
H1715 H 0.29217 0.3645 0.18161 0.0
H1716 H 0.25883 0.30385 0.15642 0.0
H1717 H 0.25075 0.26939 0.14907 0.0
H1718 H 0.29648 0.27022 0.12453 0.0
H1719 H 0.30499 0.30466 0.13204 0.0
C1720 C 0.2904 0.39327 0.09878 0.0
C1721 C 0.30074 0.38801 0.08611 0.0
C1722 C 0.28748 0.38315 0.11407 0.0
C1723 C 0.29547 0.36797 0.11775 0.0
C1724 C 0.30561 0.36257 0.10484 0.0
C1725 C 0.30803 0.37229 0.08917 0.0
C1726 C 0.29327 0.35775 0.13487 0.0
C1727 C 0.28995 0.33794 0.13322 0.0
C1728 C 0.29412 0.36726 0.15278 0.0
C1729 C 0.29835 0.38804 0.15622 0.0
C1730 C 0.31364 0.39847 0.15164 0.0
C1731 C 0.31725 0.41811 0.1544 0.0
C1732 C 0.30575 0.42746 0.16192 0.0
C1733 C 0.29065 0.41717 0.16677 0.0
C1734 C 0.28696 0.39753 0.16399 0.0
C1735 C 0.29324 0.30559 0.20576 0.0
C1736 C 0.28028 0.30878 0.21601 0.0
C1737 C 0.2957 0.31457 0.1896 0.0
C1738 C 0.28546 0.3272 0.18347 0.0
C1739 C 0.27282 0.33067 0.19407 0.0
C1740 C 0.27011 0.32139 0.20989 0.0
C1741 C 0.28803 0.33718 0.16638 0.0
C1742 C 0.29133 0.35695 0.16806 0.0
C1743 C 0.28726 0.3276 0.14856 0.0
C1744 C 0.28269 0.3068 0.14509 0.0
C1745 C 0.26732 0.29665 0.14978 0.0
C1746 C 0.26263 0.27713 0.14549 0.0
C1747 C 0.27313 0.26761 0.13641 0.0
C1748 C 0.28839 0.27759 0.13163 0.0
C1749 C 0.29316 0.29711 0.13592 0.0
H1750 H 0.26942 0.25251 0.13302 0.0
H1751 H 0.30855 0.44267 0.16403 0.0
H1752 H 0.25025 0.92797 0.04873 0.0
H1753 H 0.22866 0.9449 0.05752 0.0
H1754 H 0.26666 0.99694 0.06661 0.0
H1755 H 0.28845 0.97995 0.05821 0.0
H1756 H 0.24582 0.99624 0.0926 0.0
H1757 H 0.2369 0.98491 0.026 0.0
H1758 H 0.23199 0.96565 0.99581 0.0
H1759 H 0.18554 0.93269 0.00932 0.0
H1760 H 0.19032 0.95163 0.03969 0.0
H1761 H 0.1846 0.05709 0.08316 0.0
H1762 H 0.2082 0.04027 0.08448 0.0
H1763 H 0.17138 0.98778 0.06836 0.0
H1764 H 0.14796 0.00456 0.06651 0.0
H1765 H 0.19276 0.98927 0.04705 0.0
H1766 H 0.20037 1.00096 0.11327 0.0
H1767 H 0.20589 0.01829 0.14449 0.0
H1768 H 0.25405 0.0495 0.1333 0.0
H1769 H 0.24875 0.03249 0.10195 0.0
C1770 C 0.25405 0.94302 0.05259 0.0
C1771 C 0.27106 0.9526 0.05244 0.0
C1772 C 0.24165 0.95273 0.05763 0.0
C1773 C 0.24585 0.97234 0.06246 0.0
C1774 C 0.26299 0.98186 0.06289 0.0
C1775 C 0.27543 0.97213 0.05791 0.0
C1776 C 0.23219 0.98294 0.06606 0.0
C1777 C 0.23427 0.9949 0.08258 0.0
C1778 C 0.21689 0.98097 0.05328 0.0
C1779 C 0.21405 0.96955 0.03512 0.0
C1780 C 0.22572 0.97346 0.02256 0.0
C1781 C 0.22294 0.96263 0.00543 0.0
C1782 C 0.20848 0.94793 1.00067 0.0
C1783 C 0.19674 0.94406 0.01303 0.0
C1784 C 0.19947 0.95484 0.0302 0.0
C1785 C 0.18152 0.04191 0.08024 0.0
C1786 C 0.16433 0.03225 0.07439 0.0
C1787 C 0.19509 0.03224 0.08111 0.0
C1788 C 0.19177 0.01262 0.07644 0.0
C1789 C 0.17449 0.0029 0.07182 0.0
C1790 C 0.16102 0.01255 0.0707 0.0
C1791 C 0.20597 1.0024 0.07389 0.0
C1792 C 0.20413 0.9906 0.05733 0.0
C1793 C 0.22135 0.00451 0.08677 0.0
C1794 C 0.22404 0.01561 0.10515 0.0
C1795 C 0.212 0.01172 0.11735 0.0
C1796 C 0.21514 0.02142 0.13512 0.0
C1797 C 0.23028 0.03503 0.14086 0.0
C1798 C 0.24231 0.039 0.12883 0.0
C1799 C 0.23924 0.02932 0.11106 0.0
H1800 H 0.23272 0.04245 0.15464 0.0
H1801 H 0.20635 0.93957 0.98738 0.0
H1802 H 0.73619 0.64799 0.99383 0.0
H1803 H 0.70702 0.62938 0.9935 0.0
H1804 H 0.70012 0.66727 0.03861 0.0
H1805 H 0.72911 0.68612 0.03872 0.0
H1806 H 0.6893 0.62943 0.04404 0.0
H1807 H 0.67969 0.6694 0.99672 0.0
H1808 H 0.68425 0.68431 0.96821 0.0
H1809 H 0.67197 0.62997 0.93664 0.0
H1810 H 0.66755 0.61472 0.96504 0.0
H1811 H 0.5973 0.59144 0.03758 0.0
H1812 H 0.62644 0.6115 0.04067 0.0
H1813 H 0.63435 0.58262 0.99002 0.0
H1814 H 0.60564 0.563 0.98686 0.0
H1815 H 0.64468 0.61771 0.98818 0.0
H1816 H 0.65535 0.57734 0.03474 0.0
H1817 H 0.6534 0.56153 0.06318 0.0
H1818 H 0.66544 0.61519 0.096 0.0
H1819 H 0.66722 0.6313 0.06772 0.0
C1820 C 0.72845 0.65237 0.00367 0.0
C1821 C 0.73503 0.66857 0.0163 0.0
C1822 C 0.71171 0.64175 0.00342 0.0
C1823 C 0.7012 0.64688 0.01598 0.0
C1824 C 0.70786 0.66294 0.02876 0.0
C1825 C 0.72447 0.67376 0.02877 0.0
C1826 C 0.68339 0.63539 0.01594 0.0
C1827 C 0.67942 0.62713 0.03193 0.0
C1828 C 0.67057 0.63186 1.00004 0.0
C1829 C 0.67345 0.64093 0.98301 0.0
C1830 C 0.67813 0.66063 0.98372 0.0
C1831 C 0.68065 0.66914 0.96758 0.0
C1832 C 0.67844 0.65809 0.95063 0.0
C1833 C 0.67369 0.63851 0.94979 0.0
C1834 C 0.67117 0.62992 0.96589 0.0
C1835 C 0.60531 0.5893 0.0272 0.0
C1836 C 0.59892 0.57555 0.0119 0.0
C1837 C 0.62207 0.60077 0.029 0.0
C1838 C 0.63287 0.59874 0.01556 0.0
C1839 C 0.62648 0.58477 1.00056 0.0
C1840 C 0.60991 0.57343 0.99879 0.0
C1841 C 0.65042 0.61146 0.01635 0.0
C1842 C 0.65441 0.62001 1.00042 0.0
C1843 C 0.66331 0.6151 0.03229 0.0
C1844 C 0.66108 0.6055 0.04911 0.0
C1845 C 0.65726 0.58575 0.04799 0.0
C1846 C 0.65628 0.57674 0.06409 0.0
C1847 C 0.65921 0.58735 0.08138 0.0
C1848 C 0.6631 0.60699 0.0826 0.0
C1849 C 0.66407 0.61606 0.06655 0.0
H1850 H 0.65854 0.58034 0.09384 0.0
H1851 H 0.68036 0.66471 0.93813 0.0
H1852 H 0.67004 0.52055 0.30121 0.0
H1853 H 0.68442 0.50078 0.28338 0.0
H1854 H 0.72448 0.50569 0.33042 0.0
H1855 H 0.71074 0.52686 0.34783 0.0
H1856 H 0.73781 0.51279 0.30125 0.0
H1857 H 0.69043 0.46446 0.31373 0.0
H1858 H 0.65953 0.45089 0.31247 0.0
H1859 H 0.65217 0.44768 0.25304 0.0
H1860 H 0.68297 0.46157 0.25397 0.0
H1861 H 0.7778 0.43879 0.29306 0.0
H1862 H 0.761 0.46216 0.29918 0.0
H1863 H 0.73325 0.44936 0.24334 0.0
H1864 H 0.75014 0.42537 0.23727 0.0
H1865 H 0.712 0.44927 0.26856 0.0
H1866 H 0.76047 0.49345 0.25638 0.0
H1867 H 0.79103 0.50866 0.25775 0.0
H1868 H 0.79634 0.51976 0.31693 0.0
H1869 H 0.76588 0.5045 0.31592 0.0
C1870 C 0.68167 0.51698 0.30792 0.0
C1871 C 0.68924 0.52491 0.32596 0.0
C1872 C 0.68987 0.5057 0.29769 0.0
C1873 C 0.70537 0.50157 0.30565 0.0
C1874 C 0.71249 0.50875 0.32404 0.0
C1875 C 0.70459 0.5206 0.33405 0.0
C1876 C 0.7149 0.49087 0.29456 0.0
C1877 C 0.73221 0.49881 0.29425 0.0
C1878 C 0.70727 0.47319 0.28446 0.0
C1879 C 0.68893 0.46422 0.28393 0.0
C1880 C 0.6822 0.46092 0.3004 0.0
C1881 C 0.66471 0.4532 0.29975 0.0
C1882 C 0.65389 0.44848 0.28269 0.0
C1883 C 0.66056 0.45138 0.26624 0.0
C1884 C 0.67802 0.45918 0.26683 0.0
C1885 C 0.76823 0.44113 0.28206 0.0
C1886 C 0.76506 0.4304 0.2648 0.0
C1887 C 0.7588 0.45461 0.28546 0.0
C1888 C 0.74617 0.45775 0.27157 0.0
C1889 C 0.74314 0.44725 0.2541 0.0
C1890 C 0.7527 0.43366 0.25066 0.0
C1891 C 0.7352 0.4707 0.27637 0.0
C1892 C 0.71754 0.46336 0.2753 0.0
C1893 C 0.7425 0.48894 0.28534 0.0
C1894 C 0.76091 0.49782 0.28605 0.0
C1895 C 0.7682 0.49903 0.26969 0.0
C1896 C 0.78549 0.5077 0.2704 0.0
C1897 C 0.79562 0.51517 0.28741 0.0
C1898 C 0.78848 0.514 0.30376 0.0
C1899 C 0.7712 0.50539 0.30311 0.0
H1900 H 0.809 0.52189 0.28793 0.0
H1901 H 0.64034 0.44254 0.28222 0.0
H1902 H 0.84827 0.4703 0.51787 0.0
H1903 H 0.87635 0.48984 0.51576 0.0
H1904 H 0.89917 0.46745 0.56353 0.0
H1905 H 0.87101 0.4472 0.56529 0.0
H1906 H 0.90809 0.50947 0.56297 0.0
H1907 H 0.91028 0.45216 0.52905 0.0
H1908 H 0.90091 0.42378 0.50659 0.0
H1909 H 0.89552 0.45822 0.46208 0.0
H1910 H 0.9047 0.48683 0.48434 0.0
H1911 H 0.99374 0.54328 0.55053 0.0
H1912 H 0.96621 0.52629 0.55582 0.0
H1913 H 0.94345 0.53397 0.5008 0.0
H1914 H 0.97174 0.55018 0.49481 0.0
H1915 H 0.93487 0.49908 0.5069 0.0
H1916 H 0.93408 0.55744 0.54356 0.0
H1917 H 0.9488 0.5841 0.56676 0.0
H1918 H 0.95554 0.54591 0.60756 0.0
H1919 H 0.94076 0.51901 0.58462 0.0
C1920 C 0.85926 0.46961 0.52797 0.0
C1921 C 0.85757 0.45734 0.54175 0.0
C1922 C 0.87525 0.48072 0.52673 0.0
C1923 C 0.88974 0.48007 0.53951 0.0
C1924 C 0.88807 0.46811 0.55358 0.0
C1925 C 0.87208 0.45656 0.55452 0.0
C1926 C 0.90657 0.49172 0.53762 0.0
C1927 C 0.91407 0.50715 0.55083 0.0
C1928 C 0.91425 0.4887 0.52173 0.0
C1929 C 0.90794 0.4716 0.50838 0.0
C1930 C 0.90684 0.45367 0.5145 0.0
C1931 C 0.90165 0.43754 0.5018 0.0
C1932 C 0.89757 0.43919 0.48292 0.0
C1933 C 0.89865 0.45697 0.47671 0.0
C1934 C 0.90385 0.47314 0.48936 0.0
C1935 C 0.98291 0.5417 0.53953 0.0
C1936 C 0.98498 0.54806 0.52216 0.0
C1937 C 0.96703 0.53209 0.54272 0.0
C1938 C 0.95262 0.52919 0.5289 0.0
C1939 C 0.95442 0.53617 0.51173 0.0
C1940 C 0.97054 0.54546 0.50832 0.0
C1941 C 0.93619 0.51729 0.53187 0.0
C1942 C 0.92879 0.50166 0.51892 0.0
C1943 C 0.92884 0.52002 0.54814 0.0
C1944 C 0.9363 0.53624 0.56238 0.0
C1945 C 0.93857 0.55475 0.55753 0.0
C1946 C 0.94696 0.56989 0.57061 0.0
C1947 C 0.95317 0.56668 0.58859 0.0
C1948 C 0.95073 0.54835 0.59362 0.0
C1949 C 0.94223 0.53317 0.58062 0.0
H1950 H 0.95986 0.57839 0.59863 0.0
H1951 H 0.89361 0.42669 0.4731 0.0
H1952 H 0.43177 0.1981 0.309 0.0
H1953 H 0.40933 0.21564 0.2994 0.0
H1954 H 0.37758 0.16507 0.26846 0.0
H1955 H 0.3995 0.14775 0.27781 0.0
H1956 H 0.37715 0.19641 0.24966 0.0
H1957 H 0.3693 0.17564 0.30983 0.0
H1958 H 0.37927 0.17294 0.3427 0.0
H1959 H 0.39196 0.23317 0.35395 0.0
H1960 H 0.38217 0.23618 0.32108 0.0
H1961 H 0.29466 0.22471 0.24448 0.0
H1962 H 0.3171 0.20591 0.24911 0.0
H1963 H 0.35083 0.25301 0.28381 0.0
H1964 H 0.32879 0.27124 0.27963 0.0
H1965 H 0.34945 0.22161 0.29973 0.0
H1966 H 0.35735 0.243 0.2399 0.0
H1967 H 0.35024 0.24629 0.20664 0.0
H1968 H 0.33889 0.18619 0.19421 0.0
H1969 H 0.34583 0.18257 0.22743 0.0
C1970 C 0.42008 0.19092 0.29998 0.0
C1971 C 0.41723 0.17161 0.29437 0.0
C1972 C 0.40734 0.20085 0.29453 0.0
C1973 C 0.39187 0.19151 0.2833 0.0
C1974 C 0.38945 0.17248 0.27705 0.0
C1975 C 0.40196 0.16261 0.28259 0.0
C1976 C 0.37746 0.2009 0.27911 0.0
C1977 C 0.37098 0.20187 0.26054 0.0
C1978 C 0.3695 0.20787 0.29334 0.0
C1979 C 0.37517 0.20612 0.31307 0.0
C1980 C 0.37431 0.18829 0.31933 0.0
C1981 C 0.3799 0.1867 0.33794 0.0
C1982 C 0.38628 0.20288 0.3504 0.0
C1983 C 0.38702 0.22066 0.34428 0.0
C1984 C 0.38143 0.22232 0.32568 0.0
C1985 C 0.30681 0.23074 0.25326 0.0
C1986 C 0.31013 0.24926 0.26172 0.0
C1987 C 0.31962 0.2202 0.25571 0.0
C1988 C 0.3356 0.22822 0.26669 0.0
C1989 C 0.3386 0.24659 0.2753 0.0
C1990 C 0.326 0.25696 0.2729 0.0
C1991 C 0.34928 0.21765 0.2702 0.0
C1992 C 0.35555 0.2162 0.28874 0.0
C1993 C 0.35706 0.2104 0.25589 0.0
C1994 C 0.35181 0.21251 0.23614 0.0
C1995 C 0.35306 0.23049 0.2301 0.0
C1996 C 0.34916 0.23241 0.21125 0.0
C1997 C 0.34405 0.21645 0.19832 0.0
C1998 C 0.34279 0.19853 0.20423 0.0
C1999 C 0.3467 0.19654 0.22306 0.0
H2000 H 0.34112 0.21798 0.18373 0.0
H2001 H 0.39063 0.20162 0.36481 0.0
H2002 H 0.34591 0.20434 0.53588 0.0
H2003 H 0.37054 0.19009 0.5449 0.0
H2004 H 0.33849 0.13491 0.52756 0.0
H2005 H 0.31378 0.14905 0.51908 0.0
H2006 H 0.35733 0.13415 0.55902 0.0
H2007 H 0.3692 0.15955 0.50178 0.0
H2008 H 0.37541 0.18396 0.4807 0.0
H2009 H 0.4194 0.21297 0.5197 0.0
H2010 H 0.41325 0.18892 0.54115 0.0
H2011 H 0.41788 0.07743 0.5471 0.0
H2012 H 0.39502 0.09497 0.54696 0.0
H2013 H 0.43308 0.14686 0.56126 0.0
H2014 H 0.45598 0.1293 0.56043 0.0
H2015 H 0.41243 0.15188 0.53493 0.0
H2016 H 0.40248 0.12643 0.59147 0.0
H2017 H 0.39707 0.10252 0.61323 0.0
H2018 H 0.35076 0.07441 0.57718 0.0
H2019 H 0.35599 0.09804 0.55514 0.0
C2020 C 0.34415 0.18917 0.53388 0.0
C2021 C 0.32789 0.17783 0.52663 0.0
C2022 C 0.35827 0.18103 0.53901 0.0
C2023 C 0.3565 0.16138 0.53672 0.0
C2024 C 0.34025 0.15009 0.52948 0.0
C2025 C 0.32612 0.15819 0.52453 0.0
C2026 C 0.37137 0.15242 0.54203 0.0
C2027 C 0.36934 0.13792 0.55361 0.0
C2028 C 0.38737 0.1578 0.53572 0.0
C2029 C 0.3906 0.17261 0.52316 0.0
C2030 C 0.38004 0.17128 0.50596 0.0
C2031 C 0.38358 0.18502 0.49393 0.0
C2032 C 0.39775 0.20004 0.49888 0.0
C2033 C 0.4084 0.20138 0.5159 0.0
C2034 C 0.40487 0.18772 0.52801 0.0
C2035 C 0.42135 0.09254 0.55059 0.0
C2036 C 0.43871 0.10202 0.55368 0.0
C2037 C 0.40824 0.1026 0.55064 0.0
C2038 C 0.41219 0.12233 0.55427 0.0
C2039 C 0.4296 0.13168 0.55832 0.0
C2040 C 0.4427 0.12166 0.55787 0.0
C2041 C 0.39836 0.13332 0.55171 0.0
C2042 C 0.40056 0.14823 0.54063 0.0
C2043 C 0.38261 0.12843 0.55865 0.0
C2044 C 0.3797 0.11391 0.57161 0.0
C2045 C 0.39124 0.11504 0.58811 0.0
C2046 C 0.38818 0.10157 0.60052 0.0
C2047 C 0.3736 0.08694 0.59658 0.0
C2048 C 0.36205 0.08574 0.58022 0.0
C2049 C 0.36505 0.09918 0.56778 0.0
H2050 H 0.37123 0.07654 0.60622 0.0
H2051 H 0.40051 0.21062 0.48951 0.0
H2052 H 0.68215 0.64123 0.34253 0.0
H2053 H 0.69776 0.67119 0.33418 0.0
H2054 H 0.73612 0.64307 0.31615 0.0
H2055 H 0.72116 0.61362 0.32516 0.0
H2056 H 0.74992 0.67241 0.34013 0.0
H2057 H 0.7059 0.65746 0.28603 0.0
H2058 H 0.67649 0.65123 0.26855 0.0
H2059 H 0.6702 0.70541 0.29014 0.0
H2060 H 0.69945 0.71181 0.30805 0.0
H2061 H 0.80075 0.73316 0.29069 0.0
H2062 H 0.77947 0.70688 0.29828 0.0
H2063 H 0.75015 0.74598 0.31765 0.0
H2064 H 0.77157 0.77217 0.3102 0.0
H2065 H 0.7298 0.71443 0.2959 0.0
H2066 H 0.77554 0.7288 0.34861 0.0
H2067 H 0.80535 0.73382 0.36488 0.0
H2068 H 0.80855 0.67842 0.3433 0.0
H2069 H 0.77888 0.67319 0.32671 0.0
C2070 C 0.69402 0.64163 0.33694 0.0
C2071 C 0.70081 0.62541 0.33491 0.0
C2072 C 0.70272 0.65857 0.33195 0.0
C2073 C 0.71799 0.65918 0.32455 0.0
C2074 C 0.72438 0.64281 0.32198 0.0
C2075 C 0.71596 0.62608 0.32732 0.0
C2076 C 0.72855 0.67704 0.32119 0.0
C2077 C 0.74554 0.6815 0.33032 0.0
C2078 C 0.72253 0.68916 0.30894 0.0
C2079 C 0.70477 0.68499 0.29861 0.0
C2080 C 0.69815 0.66792 0.28728 0.0
C2081 C 0.68153 0.66439 0.27724 0.0
C2082 C 0.67146 0.67788 0.27829 0.0
C2083 C 0.67799 0.69494 0.28939 0.0
C2084 C 0.69457 0.69852 0.2995 0.0
C2085 C 0.78969 0.73598 0.29651 0.0
C2086 C 0.78738 0.75436 0.29963 0.0
C2087 C 0.77762 0.72111 0.3008 0.0
C2088 C 0.76338 0.72466 0.30855 0.0
C2089 C 0.76103 0.74308 0.31152 0.0
C2090 C 0.7731 0.75793 0.30717 0.0
C2091 C 0.75131 0.70909 0.31415 0.0
C2092 C 0.73404 0.7053 0.30575 0.0
C2093 C 0.75706 0.69725 0.32681 0.0
C2094 C 0.77506 0.70067 0.33637 0.0
C2095 C 0.78267 0.71778 0.34721 0.0
C2096 C 0.79953 0.72064 0.35651 0.0
C2097 C 0.80884 0.70646 0.35512 0.0
C2098 C 0.80134 0.6894 0.34437 0.0
C2099 C 0.78451 0.68648 0.33503 0.0
H2100 H 0.82187 0.70868 0.36239 0.0
H2101 H 0.65862 0.67515 0.27045 0.0
H2102 H 0.94309 0.56741 0.79576 0.0
H2103 H 0.92509 0.53541 0.79081 0.0
H2104 H 0.88129 0.55794 0.80215 0.0
H2105 H 0.89901 0.58944 0.80752 0.0
H2106 H 0.88633 0.52907 0.82196 0.0
H2107 H 0.88779 0.54559 0.75758 0.0
H2108 H 0.90289 0.55233 0.73088 0.0
H2109 H 0.91996 0.50026 0.73293 0.0
H2110 H 0.90509 0.49334 0.75975 0.0
H2111 H 0.81366 0.45963 0.80335 0.0
H2112 H 0.83139 0.48984 0.79873 0.0
H2113 H 0.86433 0.46036 0.7713 0.0
H2114 H 0.84549 0.43064 0.77389 0.0
H2115 H 0.86913 0.49074 0.76092 0.0
H2116 H 0.86753 0.47324 0.82459 0.0
H2117 H 0.85513 0.46724 0.85319 0.0
H2118 H 0.8409 0.52099 0.85473 0.0
H2119 H 0.8531 0.52719 0.82615 0.0
C2120 C 0.92964 0.56538 0.79731 0.0
C2121 C 0.92238 0.58071 0.8022 0.0
C2122 C 0.91944 0.54724 0.79436 0.0
C2123 C 0.90199 0.54455 0.79613 0.0
C2124 C 0.89481 0.55989 0.80085 0.0
C2125 C 0.90493 0.57783 0.80394 0.0
C2126 C 0.89081 0.52588 0.79376 0.0
C2127 C 0.88252 0.52055 0.80865 0.0
C2128 C 0.88646 0.51468 0.7766 0.0
C2129 C 0.89553 0.51908 0.76073 0.0
C2130 C 0.8949 0.53569 0.75242 0.0
C2131 C 0.90338 0.53951 0.73725 0.0
C2132 C 0.91242 0.52676 0.73024 0.0
C2133 C 0.91299 0.51014 0.73838 0.0
C2134 C 0.90454 0.50627 0.75355 0.0
C2135 C 0.8241 0.4598 0.79537 0.0
C2136 C 0.82874 0.44308 0.78949 0.0
C2137 C 0.83447 0.47697 0.79314 0.0
C2138 C 0.84984 0.47726 0.78587 0.0
C2139 C 0.85281 0.46056 0.77742 0.0
C2140 C 0.84206 0.44354 0.7789 0.0
C2141 C 0.86382 0.49418 0.78898 0.0
C2142 C 0.8729 0.49899 0.77435 0.0
C2143 C 0.86908 0.50487 0.80656 0.0
C2144 C 0.861 0.50054 0.82316 0.0
C2145 C 0.86159 0.48365 0.83095 0.0
C2146 C 0.85465 0.48026 0.84718 0.0
C2147 C 0.84719 0.4937 0.85574 0.0
C2148 C 0.84663 0.51056 0.84809 0.0
C2149 C 0.85354 0.51401 0.83189 0.0
H2150 H 0.84188 0.49107 0.86833 0.0
H2151 H 0.91895 0.52973 0.71847 0.0
H2152 H 0.07369 0.86422 0.09081 0.0
H2153 H 0.07248 0.89401 0.07766 0.0
H2154 H 0.06232 0.91772 0.12969 0.0
H2155 H 0.06345 0.88808 0.14278 0.0
H2156 H 0.04112 0.92597 0.10302 0.0
H2157 H 0.10176 0.93108 0.11367 0.0
H2158 H 0.12927 0.92157 0.11151 0.0
H2159 H 0.12007 0.92105 0.0523 0.0
H2160 H 0.09236 0.93027 0.0541 0.0
H2161 H 0.04744 0.02061 0.08347 0.0
H2162 H 0.05174 0.99164 0.09634 0.0
H2163 H 0.06675 0.9722 0.04515 0.0
H2164 H 0.06372 1.00203 0.0329 0.0
H2165 H 0.08569 0.96131 0.07079 0.0
H2166 H 0.02397 0.95533 0.06092 0.0
H2167 H 0.99716 0.966 0.06432 0.0
H2168 H 0.00932 0.96881 0.12356 0.0
H2169 H 0.03626 0.95833 0.12047 0.0
C2170 C 0.07127 0.87581 0.09948 0.0
C2171 C 0.06863 0.8736 0.11791 0.0
C2172 C 0.07069 0.89296 0.09196 0.0
C2173 C 0.06741 0.90842 0.10262 0.0
C2174 C 0.06486 0.90618 0.12103 0.0
C2175 C 0.06554 0.88913 0.12856 0.0
C2176 C 0.06579 0.92658 0.09454 0.0
C2177 C 0.05102 0.93373 0.09617 0.0
C2178 C 0.07839 0.93681 0.08516 0.0
C2179 C 0.0949 0.93109 0.084 0.0
C2180 C 0.10552 0.92873 0.10017 0.0
C2181 C 0.12116 0.92344 0.09902 0.0
C2182 C 0.12638 0.92063 0.08177 0.0
C2183 C 0.11599 0.92317 0.06565 0.0
C2184 C 0.10031 0.92842 0.06672 0.0
C2185 C 0.05139 0.01 0.07487 0.0
C2186 C 0.05475 0.01339 0.05695 0.0
C2187 C 0.05382 0.9933 0.08222 0.0
C2188 C 0.05907 0.97907 0.07164 0.0
C2189 C 0.06256 0.98262 0.05371 0.0
C2190 C 0.06062 0.99963 0.04657 0.0
C2191 C 0.06094 0.96068 0.07925 0.0
C2192 C 0.07575 0.95348 0.07754 0.0
C2193 C 0.04841 0.95036 0.08866 0.0
C2194 C 0.0321 0.95619 0.09047 0.0
C2195 C 0.0209 0.95827 0.07465 0.0
C2196 C 0.00571 0.96429 0.07653 0.0
C2197 C 1.00155 0.96812 0.09415 0.0
C2198 C 0.01255 0.96585 0.10993 0.0
C2199 C 0.02776 0.95984 0.10813 0.0
H2200 H 0.9898 0.97283 0.09558 0.0
H2201 H 0.13851 0.91655 0.08091 0.0
H2202 H 0.96982 0.31913 0.91092 0.0
H2203 H 0.9422 0.3242 0.89616 0.0
H2204 H 0.94524 0.28819 0.84775 0.0
H2205 H 0.9734 0.28383 0.86227 0.0
H2206 H 0.93366 0.3155 0.83619 0.0
H2207 H 0.9173 0.27736 0.88513 0.0
H2208 H 0.91712 0.27008 0.91744 0.0
H2209 H 0.89977 0.32074 0.93082 0.0
H2210 H 0.90013 0.32848 0.89866 0.0
H2211 H 0.84861 0.28978 0.7911 0.0
H2212 H 0.87657 0.29187 0.80955 0.0
H2213 H 0.86645 0.33424 0.84831 0.0
H2214 H 0.83789 0.33215 0.8295 0.0
H2215 H 0.88173 0.3087 0.86688 0.0
H2216 H 0.89633 0.34674 0.81987 0.0
H2217 H 0.89658 0.35631 0.78834 0.0
H2218 H 0.91769 0.30889 0.77255 0.0
H2219 H 0.91735 0.29891 0.80394 0.0
C2220 C 0.96461 0.31216 0.89714 0.0
C2221 C 0.97397 0.30091 0.88791 0.0
C2222 C 0.94858 0.31498 0.88869 0.0
C2223 C 0.94104 0.3063 0.8708 0.0
C2224 C 0.95046 0.29509 0.86155 0.0
C2225 C 0.96665 0.29249 0.86991 0.0
C2226 C 0.9238 0.30928 0.8614 0.0
C2227 C 0.92233 0.31366 0.84295 0.0
C2228 C 0.90888 0.30812 0.87021 0.0
C2229 C 0.90892 0.30358 0.88956 0.0
C2230 C 0.9136 0.28702 0.89501 0.0
C2231 C 0.91345 0.28281 0.91329 0.0
C2232 C 0.90848 0.29496 0.92619 0.0
C2233 C 0.90365 0.31136 0.92083 0.0
C2234 C 0.90384 0.31567 0.90259 0.0
C2235 C 0.85226 0.29974 0.80345 0.0
C2236 C 0.84086 0.31088 0.80858 0.0
C2237 C 0.86844 0.30095 0.81406 0.0
C2238 C 0.87402 0.31334 0.8304 0.0
C2239 C 0.86266 0.32456 0.83577 0.0
C2240 C 0.84633 0.32348 0.82491 0.0
C2241 C 0.89159 0.31404 0.84152 0.0
C2242 C 0.89313 0.3105 0.86022 0.0
C2243 C 0.90669 0.31626 0.83312 0.0
C2244 C 0.90669 0.32201 0.81418 0.0
C2245 C 0.90088 0.33827 0.80962 0.0
C2246 C 0.90107 0.34378 0.79179 0.0
C2247 C 0.90712 0.33319 0.77844 0.0
C2248 C 0.913 0.31707 0.7829 0.0
C2249 C 0.91283 0.31149 0.80071 0.0
H2250 H 0.90728 0.3375 0.76464 0.0
H2251 H 0.90833 0.29165 0.94032 0.0
H2252 H 0.54299 0.25521 0.63554 0.0
H2253 H 0.53861 0.22233 0.6232 0.0
H2254 H 0.574 0.23816 0.5849 0.0
H2255 H 0.57769 0.27135 0.59664 0.0
H2256 H 0.549 0.21304 0.56771 0.0
H2257 H 0.58275 0.21621 0.6299 0.0
H2258 H 0.58857 0.2202 0.66411 0.0
H2259 H 0.54161 0.18052 0.66598 0.0
H2260 H 0.53544 0.17647 0.63183 0.0
H2261 H 0.57113 0.12502 0.54556 0.0
H2262 H 0.57216 0.15755 0.55831 0.0
H2263 H 0.52957 0.13764 0.58688 0.0
H2264 H 0.52831 0.10542 0.57397 0.0
H2265 H 0.55537 0.16333 0.60903 0.0
H2266 H 0.52077 0.15787 0.55107 0.0
H2267 H 0.51225 0.14985 0.51734 0.0
H2268 H 0.55572 0.19092 0.50781 0.0
H2269 H 0.56466 0.19898 0.54155 0.0
C2270 C 0.54982 0.25171 0.62444 0.0
C2271 C 0.56076 0.26593 0.6171 0.0
C2272 C 0.54744 0.23279 0.61751 0.0
C2273 C 0.55631 0.2275 0.60339 0.0
C2274 C 0.56704 0.24175 0.59586 0.0
C2275 C 0.56918 0.26076 0.60256 0.0
C2276 C 0.55421 0.20727 0.59614 0.0
C2277 C 0.55073 0.20232 0.57683 0.0
C2278 C 0.55532 0.19278 0.60788 0.0
C2279 C 0.55855 0.19624 0.62835 0.0
C2280 C 0.57357 0.20856 0.63763 0.0
C2281 C 0.57695 0.21076 0.657 0.0
C2282 C 0.56545 0.20066 0.66721 0.0
C2283 C 0.55049 0.18838 0.65807 0.0
C2284 C 0.54704 0.18614 0.63873 0.0
C2285 C 0.56217 0.12765 0.55472 0.0
C2286 C 0.54965 0.11281 0.55879 0.0
C2287 C 0.56265 0.14618 0.56186 0.0
C2288 C 0.55085 0.14999 0.57343 0.0
C2289 C 0.53876 0.13504 0.57797 0.0
C2290 C 0.53805 0.11666 0.57057 0.0
C2291 C 0.55106 0.16958 0.58083 0.0
C2292 C 0.55386 0.17423 0.60004 0.0
C2293 C 0.54878 0.18362 0.56909 0.0
C2294 C 0.54349 0.1789 0.54882 0.0
C2295 C 0.52861 0.16507 0.54178 0.0
C2296 C 0.52368 0.16054 0.52267 0.0
C2297 C 0.53346 0.16984 0.51044 0.0
C2298 C 0.54817 0.18372 0.51731 0.0
C2299 C 0.55317 0.18828 0.53642 0.0
H2300 H 0.52962 0.16633 0.49563 0.0
H2301 H 0.56816 0.20231 0.68219 0.0
H2302 H 0.58648 0.80213 0.42008 0.0
H2303 H 0.61437 0.80736 0.40937 0.0
H2304 H 0.59049 0.81921 0.35642 0.0
H2305 H 0.56236 0.813 0.36688 0.0
H2306 H 0.61025 0.79851 0.34977 0.0
H2307 H 0.61991 0.85369 0.39291 0.0
H2308 H 0.62159 0.87222 0.42296 0.0
H2309 H 0.65976 0.84415 0.44765 0.0
H2310 H 0.65814 0.82526 0.4178 0.0
H2311 H 0.68501 0.82862 0.31181 0.0
H2312 H 0.66029 0.83042 0.32717 0.0
H2313 H 0.68372 0.80849 0.37481 0.0
H2314 H 0.70906 0.80732 0.35975 0.0
H2315 H 0.66534 0.83524 0.38536 0.0
H2316 H 0.65436 0.77959 0.34225 0.0
H2317 H 0.65268 0.76157 0.31193 0.0
H2318 H 0.61633 0.79196 0.28734 0.0
H2319 H 0.61806 0.8104 0.31746 0.0
C2320 C 0.58714 0.80586 0.40613 0.0
C2321 C 0.57206 0.80696 0.39429 0.0
C2322 C 0.60326 0.80911 0.40006 0.0
C2323 C 0.60489 0.81404 0.38209 0.0
C2324 C 0.5898 0.81542 0.37035 0.0
C2325 C 0.57363 0.81183 0.37631 0.0
C2326 C 0.6219 0.81628 0.37494 0.0
C2327 C 0.62215 0.80692 0.35753 0.0
C2328 C 0.63783 0.82665 0.38513 0.0
C2329 C 0.63874 0.8379 0.40314 0.0
C2330 C 0.62854 0.85134 0.40478 0.0
C2331 C 0.62951 0.86194 0.42178 0.0
C2332 C 0.64073 0.85932 0.43722 0.0
C2333 C 0.65105 0.84614 0.43569 0.0
C2334 C 0.65012 0.83549 0.41873 0.0
C2335 C 0.68525 0.82455 0.32572 0.0
C2336 C 0.69923 0.81769 0.33435 0.0
C2337 C 0.6709 0.82545 0.33449 0.0
C2338 C 0.66984 0.81931 0.35211 0.0
C2339 C 0.68406 0.81324 0.36119 0.0
C2340 C 0.69852 0.81236 0.35242 0.0
C2341 C 0.65337 0.81777 0.36014 0.0
C2342 C 0.6533 0.82706 0.37768 0.0
C2343 C 0.63748 0.80748 0.35011 0.0
C2344 C 0.63648 0.79647 0.33202 0.0
C2345 C 0.64613 0.78253 0.33033 0.0
C2346 C 0.64516 0.77224 0.31319 0.0
C2347 C 0.63444 0.77565 0.2977 0.0
C2348 C 0.62465 0.78936 0.29933 0.0
C2349 C 0.62563 0.79973 0.31642 0.0
H2350 H 0.63368 0.76764 0.28445 0.0
H2351 H 0.64147 0.86755 0.45036 0.0
H2352 H 0.04102 0.25659 0.45803 0.0
H2353 H 0.04249 0.22601 0.46911 0.0
H2354 H 0.0083 0.19791 0.42008 0.0
H2355 H 0.00644 0.22855 0.40923 0.0
H2356 H 1.00023 0.17861 0.44728 0.0
H2357 H 0.05319 0.19856 0.42634 0.0
H2358 H 0.07988 0.2206 0.42281 0.0
H2359 H 0.09734 0.22443 0.48134 0.0
H2360 H 0.07065 0.2025 0.48522 0.0
H2361 H 0.02282 0.08897 0.46668 0.0
H2362 H 0.01893 0.11739 0.4519 0.0
H2363 H 0.04652 0.15206 0.50128 0.0
H2364 H 0.05019 0.12395 0.51605 0.0
H2365 H 0.05744 0.1664 0.47082 0.0
H2366 H 1.00256 0.1434 0.48959 0.0
H2367 H 0.97553 0.12061 0.49024 0.0
H2368 H 0.96111 0.12125 0.43175 0.0
H2369 H 0.98848 0.14335 0.43052 0.0
C2370 C 0.03372 0.24394 0.44961 0.0
C2371 C 0.0236 0.2453 0.43268 0.0
C2372 C 0.03466 0.22628 0.45592 0.0
C2373 C 0.02574 0.20921 0.44543 0.0
C2374 C 0.01537 0.21058 0.42864 0.0
C2375 C 0.01434 0.22826 0.42238 0.0
C2376 C 0.02751 0.19016 0.45189 0.0
C2377 C 0.0128 0.17593 0.45215 0.0
C2378 C 0.04377 0.18612 0.45829 0.0
C2379 C 0.05992 0.19903 0.45608 0.0
C2380 C 0.06271 0.20417 0.43846 0.0
C2381 C 0.07783 0.21663 0.43639 0.0
C2382 C 0.09028 0.22394 0.45185 0.0
C2383 C 0.08767 0.21875 0.46939 0.0
C2384 C 0.07258 0.20628 0.47153 0.0
C2385 C 0.028 0.10263 0.47442 0.0
C2386 C 0.03672 0.10393 0.49272 0.0
C2387 C 0.02574 0.11898 0.46594 0.0
C2388 C 0.03233 0.13719 0.47538 0.0
C2389 C 0.04124 0.13841 0.49352 0.0
C2390 C 0.04326 0.12216 0.50206 0.0
C2391 C 0.03017 0.15503 0.46667 0.0
C2392 C 0.04486 0.16904 0.4659 0.0
C2393 C 0.0139 0.15857 0.45937 0.0
C2394 C 0.99769 0.14485 0.45993 0.0
C2395 C 0.99379 0.13841 0.47679 0.0
C2396 C 0.97843 0.12558 0.47724 0.0
C2397 C 0.96672 0.11931 0.46098 0.0
C2398 C 0.97035 0.12588 0.44424 0.0
C2399 C 0.9858 0.13852 0.44365 0.0
H2400 H 0.95476 0.10949 0.46139 0.0
H2401 H 0.10198 0.23361 0.45023 0.0
H2402 H 0.60855 0.30654 0.19856 0.0
H2403 H 0.63733 0.30696 0.21468 0.0
H2404 H 0.65933 0.34592 0.17848 0.0
H2405 H 0.63054 0.34456 0.1616 0.0
H2406 H 0.67775 0.32243 0.18164 0.0
H2407 H 0.65823 0.35881 0.22707 0.0
H2408 H 0.63982 0.36842 0.24874 0.0
H2409 H 0.64288 0.31961 0.27724 0.0
H2410 H 0.66115 0.30962 0.2556 0.0
H2411 H 0.75919 0.34562 0.23905 0.0
H2412 H 0.73071 0.34645 0.22345 0.0
H2413 H 0.70929 0.2959 0.24647 0.0
H2414 H 0.73814 0.29486 0.2623 0.0
H2415 H 0.69173 0.3265 0.25012 0.0
H2416 H 0.71358 0.29244 0.20227 0.0
H2417 H 0.73587 0.28896 0.18296 0.0
H2418 H 0.7316 0.34094 0.1608 0.0
H2419 H 0.70943 0.34483 0.18018 0.0
C2420 C 0.61953 0.3153 0.19414 0.0
C2421 C 0.61734 0.32548 0.17882 0.0
C2422 C 0.636 0.31567 0.20347 0.0
C2423 C 0.6506 0.32672 0.19806 0.0
C2424 C 0.64835 0.33723 0.18294 0.0
C2425 C 0.63189 0.33649 0.17332 0.0
C2426 C 0.66818 0.32642 0.20751 0.0
C2427 C 0.68076 0.32358 0.19663 0.0
C2428 C 0.67237 0.32784 0.22707 0.0
C2429 C 0.66082 0.33335 0.23958 0.0
C2430 C 0.65478 0.35001 0.23781 0.0
C2431 C 0.64443 0.35556 0.25013 0.0
C2432 C 0.64012 0.3446 0.26431 0.0
C2433 C 0.64618 0.32806 0.26622 0.0
C2434 C 0.65653 0.32246 0.25394 0.0
C2435 C 0.74845 0.33468 0.24095 0.0
C2436 C 0.75084 0.32024 0.25207 0.0
C2437 C 0.7322 0.33512 0.23186 0.0
C2438 C 0.718 0.32116 0.2337 0.0
C2439 C 0.72022 0.30674 0.24487 0.0
C2440 C 0.73662 0.30614 0.25385 0.0
C2441 C 0.70079 0.32205 0.22424 0.0
C2442 C 0.68845 0.3252 0.23513 0.0
C2443 C 0.69705 0.32158 0.20478 0.0
C2444 C 0.70993 0.31894 0.1927 0.0
C2445 C 0.71744 0.30314 0.19331 0.0
C2446 C 0.73005 0.3011 0.18236 0.0
C2447 C 0.73516 0.31473 0.17068 0.0
C2448 C 0.72762 0.33039 0.16985 0.0
C2449 C 0.71501 0.3325 0.18078 0.0
H2450 H 0.74495 0.31314 0.16224 0.0
H2451 H 0.63214 0.34894 0.27386 0.0
H2452 H 0.51262 0.84748 0.95493 0.0
H2453 H 0.51235 0.88009 0.96593 0.0
H2454 H 0.5414 0.89995 0.92339 0.0
H2455 H 0.54181 0.86747 0.91255 0.0
H2456 H 0.5547 0.92191 0.95273 0.0
H2457 H 0.49648 0.9026 0.92357 0.0
H2458 H 0.4665 0.88465 0.91575 0.0
H2459 H 0.45941 0.89376 0.97253 0.0
H2460 H 0.48939 0.91166 0.98071 0.0
H2461 H 0.54735 0.01867 0.97376 0.0
H2462 H 0.54359 0.987 0.95697 0.0
H2463 H 0.52057 0.96219 1.00153 0.0
H2464 H 0.52465 0.99342 0.01828 0.0
H2465 H 0.50335 0.94369 0.9687 0.0
H2466 H 0.56264 0.96239 0.99719 0.0
H2467 H 0.59191 0.98231 0.00349 0.0
H2468 H 0.59611 0.97513 0.94567 0.0
H2469 H 0.56675 0.95536 0.93901 0.0
C2470 C 0.519 0.85876 0.94791 0.0
C2471 C 0.52745 0.85455 0.93292 0.0
C2472 C 0.51869 0.87759 0.95413 0.0
C2473 C 0.52679 0.89299 0.94559 0.0
C2474 C 0.53509 0.88869 0.9305 0.0
C2475 C 0.53534 0.86992 0.92426 0.0
C2476 C 0.52743 0.91343 0.95283 0.0
C2477 C 0.5433 0.92658 0.95585 0.0
C2478 C 0.51284 0.9201 0.95736 0.0
C2479 C 0.49524 0.90826 0.95279 0.0
C2480 C 0.48861 0.90053 0.93444 0.0
C2481 C 0.47158 0.89045 0.92992 0.0
C2482 C 0.46107 0.88803 0.94364 0.0
C2483 C 0.46757 0.89562 0.96192 0.0
C2484 C 0.48457 0.90574 0.9665 0.0
C2485 C 0.5412 0.00649 0.97979 0.0
C2486 C 0.53622 0.00878 0.99742 0.0
C2487 C 0.53917 0.98825 0.97024 0.0
C2488 C 0.53185 0.97178 0.97789 0.0
C2489 C 0.52623 0.97432 0.9951 0.0
C2490 C 0.52858 0.99236 0.00473 0.0
C2491 C 0.53058 0.95193 0.96867 0.0
C2492 C 0.51465 0.93893 0.96538 0.0
C2493 C 0.54505 0.94542 0.96369 0.0
C2494 C 0.56248 0.95761 0.96758 0.0
C2495 C 0.56975 0.96524 0.9858 0.0
C2496 C 0.58636 0.97645 0.98944 0.0
C2497 C 0.59585 0.98002 0.97498 0.0
C2498 C 0.58874 0.97239 0.95685 0.0
C2499 C 0.57212 0.96118 0.95313 0.0
H2500 H 0.60874 0.98866 0.97783 0.0
H2501 H 0.44787 0.88031 0.9401 0.0
H2502 H 0.03506 0.8461 0.69518 0.0
H2503 H 0.00971 0.84365 0.71078 0.0
H2504 H 0.98842 0.78873 0.68095 0.0
H2505 H 0.01307 0.7919 0.66438 0.0
H2506 H 0.96417 0.80426 0.68112 0.0
H2507 H 0.00708 0.79845 0.73108 0.0
H2508 H 0.03533 0.80801 0.75107 0.0
H2509 H 0.02275 0.86011 0.76968 0.0
H2510 H 0.99447 0.85092 0.74963 0.0
H2511 H 0.89494 0.78342 0.73158 0.0
H2512 H 0.92223 0.78262 0.72062 0.0
H2513 H 0.94266 0.83979 0.74502 0.0
H2514 H 0.91554 0.84051 0.75641 0.0
H2515 H 0.96751 0.82166 0.74849 0.0
H2516 H 0.92424 0.82601 0.69651 0.0
H2517 H 0.8966 0.81516 0.67557 0.0
H2518 H 0.91072 0.76288 0.66068 0.0
H2519 H 0.93833 0.77333 0.68176 0.0
C2520 C 0.02496 0.83351 0.69201 0.0
C2521 C 0.02606 0.81923 0.6785 0.0
C2522 C 0.01048 0.83199 0.7011 0.0
C2523 C 0.99706 0.8158 0.69745 0.0
C2524 C 0.9984 0.80143 0.68411 0.0
C2525 C 0.01257 0.80321 0.67464 0.0
C2526 C 0.98132 0.81404 0.70681 0.0
C2527 C 0.96504 0.80775 0.69593 0.0
C2528 C 0.9821 0.81882 0.72612 0.0
C2529 C 0.99873 0.82405 0.73878 0.0
C2530 C 0.01035 0.81195 0.73943 0.0
C2531 C 0.02637 0.81731 0.75076 0.0
C2532 C 0.03085 0.83468 0.76161 0.0
C2533 C 0.01926 0.84666 0.76126 0.0
C2534 C 1.00322 0.84137 0.74996 0.0
C2535 C 0.90525 0.79583 0.73469 0.0
C2536 C 0.90285 0.81212 0.74471 0.0
C2537 C 0.92091 0.79537 0.72836 0.0
C2538 C 0.93451 0.81135 0.73146 0.0
C2539 C 0.93243 0.8273 0.74226 0.0
C2540 C 0.91685 0.82768 0.74881 0.0
C2541 C 0.95047 0.81186 0.72273 0.0
C2542 C 0.96675 0.81797 0.73373 0.0
C2543 C 0.94975 0.80657 0.70355 0.0
C2544 C 0.93323 0.80038 0.69081 0.0
C2545 C 0.92139 0.81216 0.68884 0.0
C2546 C 0.90574 0.80608 0.67695 0.0
C2547 C 0.90189 0.78833 0.66684 0.0
C2548 C 0.9137 0.77662 0.66855 0.0
C2549 C 0.92934 0.78261 0.68046 0.0
H2550 H 0.88977 0.78365 0.65763 0.0
H2551 H 0.04328 0.83884 0.77031 0.0
H2552 H 0.16889 0.09463 0.89915 0.0
H2553 H 0.1524 0.09725 0.92463 0.0
H2554 H 0.11101 0.05333 0.89523 0.0
H2555 H 0.12706 0.05118 0.86955 0.0
H2556 H 0.09931 0.0818 0.9101 0.0
H2557 H 0.14063 0.04367 0.92887 0.0
H2558 H 0.17041 0.03898 0.9344 0.0
H2559 H 0.18444 0.08695 0.97549 0.0
H2560 H 0.15476 0.09205 0.96995 0.0
H2561 H 0.05263 0.04133 0.97659 0.0
H2562 H 0.07145 0.0459 0.95284 0.0
H2563 H 0.10627 0.09112 0.98894 0.0
H2564 H 0.08778 0.08671 0.01249 0.0
H2565 H 0.12284 0.06717 0.97227 0.0
H2566 H 0.07995 0.10287 0.95532 0.0
H2567 H 0.05063 0.10849 0.94773 0.0
H2568 H 0.03947 0.06472 0.90237 0.0
H2569 H 0.06868 0.05875 0.90982 0.0
C2570 C 0.15631 0.08552 0.89828 0.0
C2571 C 0.14919 0.07256 0.8827 0.0
C2572 C 0.14694 0.0871 0.91268 0.0
C2573 C 0.13066 0.07539 0.91166 0.0
C2574 C 0.12356 0.06252 0.89606 0.0
C2575 C 0.13275 0.06118 0.88156 0.0
C2576 C 0.12115 0.07571 0.92717 0.0
C2577 C 0.10437 0.07854 0.92369 0.0
C2578 C 0.12808 0.07194 0.94488 0.0
C2579 C 0.1456 0.06831 0.94892 0.0
C2580 C 0.1501 0.0532 0.93907 0.0
C2581 C 0.16694 0.0505 0.94218 0.0
C2582 C 0.17932 0.06269 0.95526 0.0
C2583 C 0.17484 0.07753 0.96535 0.0
C2584 C 0.15801 0.08033 0.96225 0.0
C2585 C 0.06442 0.05203 0.97945 0.0
C2586 C 0.06887 0.06359 0.99625 0.0
C2587 C 0.07502 0.05471 0.96595 0.0
C2588 C 0.08998 0.06898 0.96928 0.0
C2589 C 0.09471 0.08008 0.98628 0.0
C2590 C 0.08416 0.07745 0.99968 0.0
C2591 C 0.10073 0.07252 0.95495 0.0
C2592 C 0.11781 0.07062 0.95874 0.0
C2593 C 0.09402 0.077 0.93746 0.0
C2594 C 0.07639 0.08028 0.93321 0.0
C2595 C 0.07117 0.09434 0.94384 0.0
C2596 C 0.0546 0.09762 0.93953 0.0
C2597 C 0.04318 0.08695 0.92459 0.0
C2598 C 0.04832 0.07297 0.91393 0.0
C2599 C 0.06487 0.06965 0.91818 0.0
H2600 H 0.03037 0.08953 0.92126 0.0
H2601 H 0.19238 0.06061 0.9576 0.0
H2602 H 0.83616 0.4224 0.60532 0.0
H2603 H 0.83667 0.41303 0.63685 0.0
H2604 H 0.79096 0.37002 0.61808 0.0
H2605 H 0.79047 0.37921 0.58652 0.0
H2606 H 0.78921 0.39297 0.65025 0.0
H2607 H 0.8326 0.36119 0.62798 0.0
H2608 H 0.86065 0.36101 0.61785 0.0
H2609 H 0.8866 0.39578 0.66759 0.0
H2610 H 0.85871 0.39647 0.67781 0.0
H2611 H 0.78126 0.32824 0.71892 0.0
H2612 H 0.78473 0.34349 0.69056 0.0
H2613 H 0.82995 0.38233 0.71952 0.0
H2614 H 0.82606 0.36763 0.7482 0.0
H2615 H 0.83495 0.36708 0.68502 0.0
H2616 H 0.79767 0.39594 0.71161 0.0
H2617 H 0.77391 0.40473 0.72539 0.0
H2618 H 0.74123 0.39102 0.67269 0.0
H2619 H 0.76372 0.37888 0.65926 0.0
C2620 C 0.8263 0.41079 0.60782 0.0
C2621 C 0.8133 0.40151 0.5932 0.0
C2622 C 0.82665 0.40541 0.62594 0.0
C2623 C 0.81393 0.39067 0.63002 0.0
C2624 C 0.80099 0.38138 0.61542 0.0
C2625 C 0.80074 0.38661 0.59728 0.0
C2626 C 0.81344 0.38531 0.64946 0.0
C2627 C 0.7989 0.38676 0.65771 0.0
C2628 C 0.82699 0.37911 0.66005 0.0
C2629 C 0.84359 0.37906 0.65352 0.0
C2630 C 0.84428 0.369 0.63661 0.0
C2631 C 0.86015 0.36877 0.63089 0.0
C2632 C 0.87539 0.37842 0.64204 0.0
C2633 C 0.8748 0.38835 0.65893 0.0
C2634 C 0.85897 0.38868 0.66468 0.0
C2635 C 0.79196 0.34002 0.71927 0.0
C2636 C 0.80345 0.34663 0.73585 0.0
C2637 C 0.79388 0.3488 0.70303 0.0
C2638 C 0.80761 0.36411 0.70277 0.0
C2639 C 0.81927 0.37054 0.71927 0.0
C2640 C 0.81702 0.36215 0.73569 0.0
C2641 C 0.80985 0.37311 0.68522 0.0
C2642 C 0.82487 0.37276 0.67751 0.0
C2643 C 0.79708 0.38132 0.67562 0.0
C2644 C 0.78252 0.38593 0.68442 0.0
C2645 C 0.78517 0.39359 0.70312 0.0
C2646 C 0.77179 0.39909 0.71096 0.0
C2647 C 0.7559 0.39802 0.70004 0.0
C2648 C 0.75334 0.39123 0.68132 0.0
C2649 C 0.76631 0.38464 0.67368 0.0
H2650 H 0.74567 0.40271 0.70599 0.0
H2651 H 0.88767 0.37816 0.63761 0.0
H2652 H 0.44445 0.11561 0.36536 0.0
H2653 H 0.45458 0.09952 0.39116 0.0
H2654 H 0.50684 0.11753 0.38134 0.0
H2655 H 0.49665 0.13322 0.35483 0.0
H2656 H 0.5002 0.08097 0.38879 0.0
H2657 H 0.49036 0.13995 0.41564 0.0
H2658 H 0.47212 0.16294 0.41975 0.0
H2659 H 0.43615 0.12169 0.44154 0.0
H2660 H 0.45403 0.09834 0.43716 0.0
H2661 H 0.55146 0.08303 0.47465 0.0
H2662 H 0.53528 0.09005 0.44633 0.0
H2663 H 0.48784 0.0621 0.46267 0.0
H2664 H 0.50419 0.05416 0.4908 0.0
H2665 H 0.4879 0.09902 0.45152 0.0
H2666 H 0.49847 0.04113 0.42839 0.0
H2667 H 0.51544 0.01701 0.42365 0.0
H2668 H 0.54858 0.05442 0.39493 0.0
H2669 H 0.53196 0.0789 0.3998 0.0
C2670 C 0.45816 0.11643 0.3688 0.0
C2671 C 0.46982 0.12612 0.35829 0.0
C2672 C 0.4639 0.1071 0.38353 0.0
C2673 C 0.48149 0.10753 0.38838 0.0
C2674 C 0.4932 0.11708 0.37788 0.0
C2675 C 0.48742 0.12628 0.36293 0.0
C2676 C 0.4877 0.09857 0.40478 0.0
C2677 C 0.49765 0.08505 0.40252 0.0
C2678 C 0.48373 0.1032 0.42259 0.0
C2679 C 0.47341 0.1174 0.42592 0.0
C2680 C 0.47852 0.13579 0.42125 0.0
C2681 C 0.46824 0.14886 0.42359 0.0
C2682 C 0.45296 0.14377 0.43086 0.0
C2683 C 0.44797 0.12561 0.43588 0.0
C2684 C 0.45816 0.11245 0.43347 0.0
C2685 C 0.53759 0.07828 0.4722 0.0
C2686 C 0.52904 0.06831 0.48505 0.0
C2687 C 0.52838 0.08223 0.45598 0.0
C2688 C 0.51039 0.07658 0.45242 0.0
C2689 C 0.50173 0.06657 0.4652 0.0
C2690 C 0.51105 0.06215 0.48127 0.0
C2691 C 0.50089 0.08196 0.4356 0.0
C2692 C 0.49028 0.09477 0.43776 0.0
C2693 C 0.50412 0.07654 0.4177 0.0
C2694 C 0.51407 0.06188 0.41458 0.0
C2695 C 0.50946 0.04426 0.42119 0.0
C2696 C 0.519 0.03052 0.41847 0.0
C2697 C 0.5331 0.03419 0.40903 0.0
C2698 C 0.53766 0.0516 0.40225 0.0
C2699 C 0.52818 0.06541 0.40497 0.0
H2700 H 0.54049 0.02354 0.40693 0.0
H2701 H 0.44499 0.15391 0.43264 0.0
H2702 H 0.76555 0.72904 0.07065 0.0
H2703 H 0.76754 0.73863 0.1037 0.0
H2704 H 0.82192 0.73927 0.11162 0.0
H2705 H 0.81958 0.72824 0.07863 0.0
H2706 H 0.81119 0.72758 0.14051 0.0
H2707 H 0.80464 0.78134 0.11077 0.0
H2708 H 0.79235 0.80028 0.08814 0.0
H2709 H 0.74415 0.78816 0.10875 0.0
H2710 H 0.75611 0.76894 0.13131 0.0
H2711 H 0.82444 0.7846 0.22745 0.0
H2712 H 0.82418 0.77237 0.19565 0.0
H2713 H 0.76871 0.76065 0.18634 0.0
H2714 H 0.76881 0.77326 0.21847 0.0
H2715 H 0.78216 0.7785 0.15893 0.0
H2716 H 0.79284 0.72533 0.19126 0.0
H2717 H 0.80923 0.71118 0.21527 0.0
H2718 H 0.85505 0.72778 0.19114 0.0
H2719 H 0.83898 0.74226 0.16713 0.0
C2720 C 0.77797 0.73144 0.07939 0.0
C2721 C 0.79245 0.72825 0.07191 0.0
C2722 C 0.77915 0.73697 0.09838 0.0
C2723 C 0.795 0.74025 0.11036 0.0
C2724 C 0.80952 0.73696 0.10287 0.0
C2725 C 0.80821 0.73083 0.08392 0.0
C2726 C 0.79627 0.74732 0.13051 0.0
C2727 C 0.80495 0.73883 0.14444 0.0
C2728 C 0.78841 0.76215 0.13607 0.0
C2729 C 0.78119 0.77362 0.12256 0.0
C2730 C 0.79138 0.78264 0.11036 0.0
C2731 C 0.78449 0.79342 0.09757 0.0
C2732 C 0.76747 0.79539 0.09698 0.0
C2733 C 0.75732 0.7866 0.1092 0.0
C2734 C 0.76415 0.77578 0.122 0.0
C2735 C 0.81208 0.77941 0.21877 0.0
C2736 C 0.79658 0.78001 0.22566 0.0
C2737 C 0.812 0.77223 0.20051 0.0
C2738 C 0.79644 0.76525 0.18857 0.0
C2739 C 0.78091 0.76584 0.19532 0.0
C2740 C 0.78096 0.77308 0.21369 0.0
C2741 C 0.79641 0.75834 0.16878 0.0
C2742 C 0.78819 0.76708 0.15493 0.0
C2743 C 0.80523 0.74426 0.16346 0.0
C2744 C 0.81472 0.73492 0.17744 0.0
C2745 C 0.80642 0.72598 0.1911 0.0
C2746 C 0.81565 0.71793 0.20472 0.0
C2747 C 0.83317 0.71859 0.20474 0.0
C2748 C 0.84148 0.72726 0.1911 0.0
C2749 C 0.8323 0.73536 0.17746 0.0
H2750 H 0.84031 0.71238 0.21531 0.0
H2751 H 0.76215 0.80376 0.08707 0.0
H2752 H 0.1278 0.07851 0.78901 0.0
H2753 H 0.11389 0.07221 0.75661 0.0
H2754 H 0.15723 0.05081 0.74182 0.0
H2755 H 0.17139 0.05763 0.7739 0.0
H2756 H 0.14757 0.07399 0.71836 0.0
H2757 H 0.1196 0.02026 0.74566 0.0
H2758 H 0.10374 0.00477 0.76883 0.0
H2759 H 0.0623 0.03258 0.75377 0.0
H2760 H 0.078 0.04835 0.73063 0.0
H2761 H 0.10259 0.03807 0.62732 0.0
H2762 H 0.11796 0.03733 0.65853 0.0
H2763 H 0.08106 0.06368 0.68215 0.0
H2764 H 0.06606 0.06496 0.65141 0.0
H2765 H 0.08883 0.03429 0.70041 0.0
H2766 H 0.11665 0.08983 0.67575 0.0
H2767 H 0.13306 0.10914 0.65533 0.0
H2768 H 0.17492 0.08113 0.66709 0.0
H2769 H 0.15859 0.0614 0.6873 0.0
C2770 C 0.13431 0.07254 0.77877 0.0
C2771 C 0.15057 0.06853 0.78376 0.0
C2772 C 0.12637 0.06884 0.76041 0.0
C2773 C 0.13449 0.06074 0.74708 0.0
C2774 C 0.15082 0.05699 0.75204 0.0
C2775 C 0.15886 0.06094 0.77029 0.0
C2776 C 0.12616 0.05654 0.72779 0.0
C2777 C 0.13488 0.06496 0.7143 0.0
C2778 C 0.10951 0.04514 0.72281 0.0
C2779 C 0.09999 0.03552 0.73652 0.0
C2780 C 0.10713 0.02311 0.74737 0.0
C2781 C 0.09817 0.01428 0.76047 0.0
C2782 C 0.08203 0.0177 0.76278 0.0
C2783 C 0.0748 0.02993 0.75196 0.0
C2784 C 0.0837 0.03879 0.73882 0.0
C2785 C 0.09771 0.04347 0.63923 0.0
C2786 C 0.08312 0.05148 0.63702 0.0
C2787 C 0.10645 0.04306 0.65692 0.0
C2788 C 0.10058 0.05056 0.67239 0.0
C2789 C 0.08562 0.05773 0.67025 0.0
C2790 C 0.07699 0.05827 0.65269 0.0
C2791 C 0.11021 0.05182 0.69097 0.0
C2792 C 0.10171 0.04289 0.70437 0.0
C2793 C 0.12701 0.06296 0.69589 0.0
C2794 C 0.13624 0.07385 0.68269 0.0
C2795 C 0.12919 0.0875 0.67366 0.0
C2796 C 0.13852 0.0986 0.66221 0.0
C2797 C 0.15498 0.09629 0.65983 0.0
C2798 C 0.16213 0.08284 0.66885 0.0
C2799 C 0.15282 0.07166 0.68026 0.0
H2800 H 0.16224 0.105 0.65106 0.0
H2801 H 0.07512 0.01086 0.77295 0.0
H2802 H 0.80484 0.42375 0.47287 0.0
H2803 H 0.80666 0.41283 0.441 0.0
H2804 H 0.81123 0.35842 0.45757 0.0
H2805 H 0.81018 0.36973 0.48987 0.0
H2806 H 0.83076 0.36527 0.4323 0.0
H2807 H 0.77219 0.36986 0.43305 0.0
H2808 H 0.74964 0.3866 0.44011 0.0
H2809 H 0.76597 0.42766 0.4036 0.0
H2810 H 0.78885 0.41135 0.39664 0.0
H2811 H 0.80598 0.31175 0.3443 0.0
H2812 H 0.80867 0.32678 0.37557 0.0
H2813 H 0.80692 0.37983 0.35416 0.0
H2814 H 0.80408 0.36448 0.32215 0.0
H2815 H 0.78738 0.37575 0.38138 0.0
H2816 H 0.84493 0.36982 0.37909 0.0
H2817 H 0.86862 0.35422 0.37361 0.0
H2818 H 0.85477 0.31595 0.41347 0.0
H2819 H 0.8308 0.3311 0.41892 0.0
C2820 C 0.80613 0.40939 0.46982 0.0
C2821 C 0.80703 0.39762 0.48421 0.0
C2822 C 0.80711 0.40304 0.45135 0.0
C2823 C 0.80861 0.38445 0.44622 0.0
C2824 C 0.80992 0.37277 0.4607 0.0
C2825 C 0.8092 0.37923 0.47932 0.0
C2826 C 0.80857 0.37724 0.42594 0.0
C2827 C 0.82107 0.36739 0.4213 0.0
C2828 C 0.79642 0.38025 0.41098 0.0
C2829 C 0.78225 0.38951 0.41445 0.0
C2830 C 0.77096 0.38248 0.42656 0.0
C2831 C 0.75816 0.39191 0.43058 0.0
C2832 C 0.7564 0.40821 0.42234 0.0
C2833 C 0.76737 0.41506 0.40999 0.0
C2834 C 0.78025 0.40573 0.406 0.0
C2835 C 0.80625 0.32669 0.34602 0.0
C2836 C 0.80473 0.33672 0.33031 0.0
C2837 C 0.80795 0.3354 0.36421 0.0
C2838 C 0.80825 0.3547 0.36779 0.0
C2839 C 0.80681 0.36495 0.35214 0.0
C2840 C 0.80526 0.35616 0.3337 0.0
C2841 C 0.80944 0.36356 0.38775 0.0
C2842 C 0.79712 0.37367 0.39235 0.0
C2843 C 0.82175 0.36074 0.40268 0.0
C2844 C 0.83598 0.35147 0.39926 0.0
C2845 C 0.84684 0.35796 0.38654 0.0
C2846 C 0.86033 0.34922 0.38346 0.0
C2847 C 0.86317 0.33408 0.39315 0.0
C2848 C 0.85254 0.32766 0.40595 0.0
C2849 C 0.839 0.33631 0.40903 0.0
H2850 H 0.87364 0.32734 0.39077 0.0
H2851 H 0.7465 0.41552 0.4255 0.0
H2852 H 0.4494 0.13776 0.23876 0.0
H2853 H 0.45384 0.12112 0.21004 0.0
H2854 H 0.48587 0.09036 0.2422 0.0
H2855 H 0.48242 0.10787 0.2706 0.0
H2856 H 0.50059 0.10166 0.21646 0.0
H2857 H 0.44183 0.07159 0.21826 0.0
H2858 H 0.41084 0.0693 0.21883 0.0
H2859 H 0.40599 0.0937 0.16736 0.0
H2860 H 0.43699 0.09644 0.16665 0.0
H2861 H 0.5152 0.04455 0.14396 0.0
H2862 H 0.50169 0.05138 0.17063 0.0
H2863 H 0.47265 0.08537 0.13924 0.0
H2864 H 0.48505 0.07731 0.11187 0.0
H2865 H 0.45509 0.07069 0.16438 0.0
H2866 H 0.51403 0.10334 0.16467 0.0
H2867 H 0.54523 0.1068 0.16471 0.0
H2868 H 0.54934 0.0779 0.21352 0.0
H2869 H 0.51811 0.07395 0.21353 0.0
C2870 C 0.45768 0.12772 0.23954 0.0
C2871 C 0.46597 0.12442 0.25677 0.0
C2872 C 0.4599 0.11792 0.2232 0.0
C2873 C 0.46991 0.10419 0.22393 0.0
C2874 C 0.47809 0.1009 0.24123 0.0
C2875 C 0.47632 0.11108 0.25745 0.0
C2876 C 0.47332 0.09439 0.20678 0.0
C2877 C 0.49052 0.09451 0.20531 0.0
C2878 C 0.4603 0.08567 0.19183 0.0
C2879 C 0.44176 0.08442 0.19253 0.0
C2880 C 0.43419 0.07667 0.20718 0.0
C2881 C 0.41661 0.07525 0.20751 0.0
C2882 C 0.40647 0.0814 0.19318 0.0
C2883 C 0.41387 0.08898 0.17848 0.0
C2884 C 0.43143 0.09047 0.17812 0.0
C2885 C 0.50545 0.05287 0.14238 0.0
C2886 C 0.50155 0.06077 0.1258 0.0
C2887 C 0.49787 0.05694 0.15779 0.0
C2888 C 0.48672 0.06949 0.15713 0.0
C2889 C 0.4815 0.07594 0.14017 0.0
C2890 C 0.48879 0.07153 0.12459 0.0
C2891 C 0.48227 0.07772 0.17445 0.0
C2892 C 0.46499 0.07752 0.17581 0.0
C2893 C 0.49517 0.08639 0.18945 0.0
C2894 C 0.51376 0.08811 0.18893 0.0
C2895 C 0.52157 0.09751 0.17525 0.0
C2896 C 0.53926 0.0996 0.17529 0.0
C2897 C 0.54925 0.09252 0.18907 0.0
C2898 C 0.54158 0.08331 0.20282 0.0
C2899 C 0.5239 0.0811 0.20278 0.0
H2900 H 0.56296 0.09423 0.18913 0.0
H2901 H 0.39285 0.08026 0.19344 0.0
H2902 H 0.76097 0.7086 0.95237 0.0
H2903 H 0.76126 0.72075 0.92225 0.0
H2904 H 0.81113 0.75652 0.94228 0.0
H2905 H 0.81011 0.74537 0.97295 0.0
H2906 H 0.79629 0.77522 0.92185 0.0
H2907 H 0.8005 0.7106 0.90916 0.0
H2908 H 0.79128 0.67621 0.90886 0.0
H2909 H 0.74303 0.67739 0.87595 0.0
H2910 H 0.75191 0.71182 0.87623 0.0
H2911 H 0.82094 0.79579 0.83549 0.0
H2912 H 0.81718 0.78352 0.86495 0.0
H2913 H 0.76526 0.75509 0.84217 0.0
H2914 H 0.76919 0.76723 0.81212 0.0
H2915 H 0.77915 0.73264 0.86331 0.0
H2916 H 0.7756 0.79706 0.87526 0.0
H2917 H 0.78428 0.83161 0.87683 0.0
H2918 H 0.83158 0.83062 0.91168 0.0
H2919 H 0.82323 0.79604 0.91019 0.0
C2920 C 0.77199 0.71913 0.9504 0.0
C2921 C 0.78551 0.72595 0.96522 0.0
C2922 C 0.77228 0.72595 0.93293 0.0
C2923 C 0.78648 0.7393 0.92932 0.0
C2924 C 0.79996 0.74623 0.94428 0.0
C2925 C 0.79941 0.73981 0.96195 0.0
C2926 C 0.78715 0.74636 0.9103 0.0
C2927 C 0.79282 0.76572 0.90916 0.0
C2928 C 0.78205 0.73443 0.89327 0.0
C2929 C 0.77681 0.71376 0.89285 0.0
C2930 C 0.7879 0.70351 0.90192 0.0
C2931 C 0.78274 0.68403 0.90176 0.0
C2932 C 0.76656 0.67463 0.89243 0.0
C2933 C 0.75555 0.68469 0.88319 0.0
C2934 C 0.76065 0.70418 0.88332 0.0
C2935 C 0.80864 0.78697 0.83663 0.0
C2936 C 0.79537 0.78267 0.82125 0.0
C2937 C 0.80644 0.78001 0.85372 0.0
C2938 C 0.79078 0.76859 0.85631 0.0
C2939 C 0.77749 0.76395 0.84084 0.0
C2940 C 0.77972 0.77094 0.82358 0.0
C2941 C 0.78866 0.7614 0.87501 0.0
C2942 C 0.78268 0.74206 0.87606 0.0
C2943 C 0.79357 0.77332 0.892 0.0
C2944 C 0.79886 0.79399 0.89245 0.0
C2945 C 0.78792 0.80421 0.8831 0.0
C2946 C 0.79276 0.82379 0.88402 0.0
C2947 C 0.80849 0.8333 0.89431 0.0
C2948 C 0.81942 0.82324 0.9037 0.0
C2949 C 0.81463 0.80366 0.90283 0.0
H2950 H 0.81219 0.84847 0.89504 0.0
H2951 H 0.76258 0.65954 0.89234 0.0
H2952 H 0.84183 0.19719 0.00224 0.0
H2953 H 0.86717 0.18424 0.99836 0.0
H2954 H 0.84208 0.13137 0.0146 0.0
H2955 H 0.81678 0.14435 0.01869 0.0
H2956 H 0.87351 0.14178 0.03291 0.0
H2957 H 0.84914 0.13737 0.96865 0.0
H2958 H 0.83734 0.14989 0.94053 0.0
H2959 H 0.88525 0.18936 0.94265 0.0
H2960 H 0.89727 0.17719 0.97092 0.0
H2961 H 0.93002 0.08423 0.01365 0.0
H2962 H 0.90458 0.09819 0.00971 0.0
H2963 H 0.93612 0.15068 1.00013 0.0
H2964 H 0.96175 0.13665 0.00429 0.0
H2965 H 0.90253 0.14225 0.97726 0.0
H2966 H 0.92657 0.14796 0.04118 0.0
H2967 H 0.93855 0.13705 0.07017 0.0
H2968 H 0.89114 0.09703 0.06918 0.0
H2969 H 0.87901 0.10752 0.03999 0.0
C2970 C 0.84167 0.18277 0.00495 0.0
C2971 C 0.82727 0.17188 0.01097 0.0
C2972 C 0.85616 0.17531 0.00254 0.0
C2973 C 0.85662 0.15671 0.00602 0.0
C2974 C 0.84214 0.14575 0.0118 0.0
C2975 C 0.82764 0.15319 0.01416 0.0
C2976 C 0.87253 0.14902 0.00494 0.0
C2977 C 0.87961 0.14164 0.02058 0.0
C2978 C 0.88108 0.14943 0.98917 0.0
C2979 C 0.87405 0.15648 0.97197 0.0
C2980 C 0.85713 0.14878 0.96317 0.0
C2981 C 0.8504 0.1558 0.9472 0.0
C2982 C 0.86052 0.17045 0.93984 0.0
C2983 C 0.87742 0.17803 0.94838 0.0
C2984 C 0.88421 0.17105 0.96436 0.0
C2985 C 0.93148 0.09865 0.01042 0.0
C2986 C 0.94785 0.10934 0.00932 0.0
C2987 C 0.91693 0.10665 0.00816 0.0
C2988 C 0.91833 0.12557 0.00471 0.0
C2989 C 0.93461 0.13607 0.00274 0.0
C2990 C 0.94927 0.12808 0.00521 0.0
C2991 C 0.90311 0.13461 0.00512 0.0
C2992 C 0.8963 0.14234 0.98949 0.0
C2993 C 0.89475 0.13473 0.02093 0.0
C2994 C 0.90197 0.12838 0.03838 0.0
C2995 C 0.91877 0.13672 0.04709 0.0
C2996 C 0.92557 0.13064 0.06355 0.0
C2997 C 0.91562 0.11633 0.07149 0.0
C2998 C 0.89884 0.10809 0.063 0.0
C2999 C 0.89199 0.1141 0.0465 0.0
H3000 H 0.92091 0.11164 0.08426 0.0
H3001 H 0.85528 0.17589 0.92749 0.0
H3002 H 0.35059 0.45599 0.00744 0.0
H3003 H 0.3802 0.46966 0.0032 0.0
H3004 H 0.39895 0.45638 0.05748 0.0
H3005 H 0.36944 0.44263 0.06171 0.0
H3006 H 0.41263 0.49206 0.05323 0.0
H3007 H 0.40614 0.43265 0.01709 0.0
H3008 H 0.3935 0.40691 0.99224 0.0
H3009 H 0.40157 0.44539 0.95121 0.0
H3010 H 0.41413 0.47142 0.97584 0.0
H3011 H 0.50119 0.51973 0.05649 0.0
H3012 H 0.47241 0.50061 0.05512 0.0
H3013 H 0.46067 0.50833 0.99737 0.0
H3014 H 0.49037 0.52649 0.99848 0.0
H3015 H 0.44254 0.47579 1.00131 0.0
H3016 H 0.44758 0.53519 0.03635 0.0
H3017 H 0.46 0.56157 0.06064 0.0
H3018 H 0.45312 0.52403 0.10269 0.0
H3019 H 0.44083 0.49741 0.07863 0.0
C3020 C 0.361 0.456 0.01853 0.0
C3021 C 0.35742 0.44841 0.03509 0.0
C3022 C 0.37805 0.46369 0.01598 0.0
C3023 C 0.39212 0.46412 0.02995 0.0
C3024 C 0.38852 0.45637 0.04641 0.0
C3025 C 0.37152 0.44854 0.04889 0.0
C3026 C 0.41034 0.47381 0.02819 0.0
C3027 C 0.41918 0.48823 0.04196 0.0
C3028 C 0.41895 0.46955 0.01315 0.0
C3029 C 0.4109 0.45405 0.99834 0.0
C3030 C 0.40503 0.43569 0.00279 0.0
C3031 C 0.39794 0.42102 0.98873 0.0
C3032 C 0.3967 0.42452 0.97016 0.0
C3033 C 0.40253 0.4427 0.96561 0.0
C3034 C 0.40965 0.45741 0.97961 0.0
C3035 C 0.49261 0.51718 0.04337 0.0
C3036 C 0.49822 0.52484 0.02765 0.0
C3037 C 0.47589 0.50635 0.04263 0.0
C3038 C 0.46368 0.50344 0.02635 0.0
C3039 C 0.4695 0.51037 0.01028 0.0
C3040 C 0.48657 0.52081 0.01088 0.0
C3041 C 0.44495 0.4939 0.0266 0.0
C3042 C 0.43599 0.47962 0.01255 0.0
C3043 C 0.43598 0.49839 0.04125 0.0
C3044 C 0.44341 0.51433 0.05571 0.0
C3045 C 0.44881 0.53257 0.05078 0.0
C3046 C 0.45581 0.54755 0.0645 0.0
C3047 C 0.45737 0.54447 0.08319 0.0
C3048 C 0.45191 0.5264 0.08821 0.0
C3049 C 0.44491 0.51136 0.07454 0.0
H3050 H 0.46278 0.5561 0.09379 0.0
H3051 H 0.39127 0.41313 0.95932 0.0
H3052 H 0.4211 0.60111 0.74039 0.0
H3053 H 0.41298 0.62938 0.75312 0.0
H3054 H 0.36024 0.60696 0.72807 0.0
H3055 H 0.36824 0.57852 0.71529 0.0
H3056 H 0.37269 0.64326 0.72154 0.0
H3057 H 0.37388 0.60525 0.77214 0.0
H3058 H 0.38674 0.58806 0.79598 0.0
H3059 H 0.42065 0.63947 0.82156 0.0
H3060 H 0.40871 0.65681 0.79725 0.0
H3061 H 0.31906 0.68972 0.76419 0.0
H3062 H 0.33479 0.66523 0.75744 0.0
H3063 H 0.38284 0.70387 0.77889 0.0
H3064 H 0.36702 0.72873 0.78543 0.0
H3065 H 0.3778 0.66301 0.78879 0.0
H3066 H 0.37649 0.70061 0.73785 0.0
H3067 H 0.36345 0.71738 0.71365 0.0
H3068 H 0.32896 0.66577 0.68947 0.0
H3069 H 0.34152 0.64879 0.71379 0.0
C3070 C 0.40778 0.60227 0.73744 0.0
C3071 C 0.39525 0.58771 0.72675 0.0
C3072 C 0.40319 0.61833 0.74489 0.0
C3073 C 0.38604 0.62004 0.74169 0.0
C3074 C 0.37356 0.60572 0.73072 0.0
C3075 C 0.37812 0.58959 0.72338 0.0
C3076 C 0.38103 0.63706 0.74909 0.0
C3077 C 0.37375 0.64751 0.73625 0.0
C3078 C 0.38309 0.64292 0.76831 0.0
C3079 C 0.39061 0.6323 0.7826 0.0
C3080 C 0.38437 0.61284 0.78256 0.0
C3081 C 0.39151 0.60305 0.79618 0.0
C3082 C 0.4046 0.61262 0.81019 0.0
C3083 C 0.41064 0.63201 0.81058 0.0
C3084 C 0.40377 0.64181 0.79681 0.0
C3085 C 0.33295 0.69287 0.76775 0.0
C3086 C 0.34192 0.71097 0.77525 0.0
C3087 C 0.34189 0.67895 0.7639 0.0
C3088 C 0.35989 0.68289 0.76764 0.0
C3089 C 0.36892 0.7007 0.77597 0.0
C3090 C 0.35995 0.71481 0.77957 0.0
C3091 C 0.36901 0.6687 0.76116 0.0
C3092 C 0.37708 0.65886 0.77411 0.0
C3093 C 0.3677 0.66325 0.74203 0.0
C3094 C 0.3598 0.67351 0.72775 0.0
C3095 C 0.36595 0.69291 0.72753 0.0
C3096 C 0.35868 0.70243 0.71376 0.0
C3097 C 0.34535 0.69266 0.70005 0.0
C3098 C 0.33925 0.67334 0.70011 0.0
C3099 C 0.34642 0.66377 0.71389 0.0
H3100 H 0.33978 0.70005 0.68936 0.0
H3101 H 0.40997 0.60503 0.82084 0.0
H3102 H 0.23284 0.64395 0.48843 0.0
H3103 H 0.202 0.62879 0.48346 0.0
H3104 H 0.19266 0.67193 0.52191 0.0
H3105 H 0.22314 0.68728 0.52657 0.0
H3106 H 0.18408 0.63295 0.53041 0.0
H3107 H 0.17544 0.67191 0.48131 0.0
H3108 H 0.17618 0.68498 0.45131 0.0
H3109 H 0.15636 0.62974 0.42251 0.0
H3110 H 0.15583 0.61629 0.45232 0.0
H3111 H 0.09636 0.60718 0.53639 0.0
H3112 H 0.12502 0.62402 0.5329 0.0
H3113 H 0.12149 0.59045 0.48077 0.0
H3114 H 0.0921 0.57465 0.48361 0.0
H3115 H 0.13688 0.62319 0.47715 0.0
H3116 H 0.14608 0.58353 0.52497 0.0
H3117 H 0.14203 0.57004 0.55432 0.0
H3118 H 0.16019 0.62492 0.58443 0.0
H3119 H 0.16409 0.63875 0.55522 0.0
C3120 C 0.22415 0.65026 0.49569 0.0
C3121 C 0.2305 0.66665 0.50816 0.0
C3122 C 0.20651 0.64174 0.49263 0.0
C3123 C 0.19496 0.64933 0.50216 0.0
C3124 C 0.20125 0.66594 0.51421 0.0
C3125 C 0.21874 0.67461 0.517 0.0
C3126 C 0.17716 0.63848 0.5023 0.0
C3127 C 0.17374 0.63094 0.51875 0.0
C3128 C 0.16377 0.63523 0.4869 0.0
C3129 C 0.16597 0.64305 0.46909 0.0
C3130 C 0.17169 0.66248 0.4686 0.0
C3131 C 0.17193 0.66998 0.45161 0.0
C3132 C 0.16641 0.65819 0.43502 0.0
C3133 C 0.16073 0.63885 0.43536 0.0
C3134 C 0.16051 0.63129 0.4523 0.0
C3135 C 0.10177 0.6033 0.52427 0.0
C3136 C 0.09217 0.58937 0.51044 0.0
C3137 C 0.11823 0.61288 0.5223 0.0
C3138 C 0.12582 0.60816 0.50685 0.0
C3139 C 0.11609 0.59432 0.4929 0.0
C3140 C 0.09934 0.58518 0.49458 0.0
C3141 C 0.14382 0.61774 0.50531 0.0
C3142 C 0.1473 0.62496 0.48868 0.0
C3143 C 0.15745 0.62047 0.5204 0.0
C3144 C 0.15528 0.61216 0.53794 0.0
C3145 C 0.14913 0.59271 0.53786 0.0
C3146 C 0.14686 0.58501 0.55446 0.0
C3147 C 0.15083 0.59662 0.57123 0.0
C3148 C 0.15711 0.61595 0.57143 0.0
C3149 C 0.15937 0.62372 0.55487 0.0
H3150 H 0.14906 0.59063 0.58407 0.0
H3151 H 0.16645 0.66406 0.42189 0.0
H3152 H 0.7029 0.96758 0.76786 0.0
H3153 H 0.71999 0.94358 0.76986 0.0
H3154 H 0.67383 0.90017 0.75453 0.0
H3155 H 0.65648 0.92424 0.75295 0.0
H3156 H 0.69407 0.89267 0.7834 0.0
H3157 H 0.70115 0.91033 0.72357 0.0
H3158 H 0.70683 0.9331 0.70082 0.0
H3159 H 0.75818 0.95381 0.72994 0.0
H3160 H 0.7527 0.93133 0.75305 0.0
H3161 H 0.73886 0.82027 0.7729 0.0
H3162 H 0.72066 0.84265 0.76885 0.0
H3163 H 0.76545 0.88825 0.77825 0.0
H3164 H 0.78414 0.86542 0.78107 0.0
H3165 H 0.74455 0.89387 0.75092 0.0
H3166 H 0.73578 0.87418 0.81123 0.0
H3167 H 0.72719 0.85336 0.83483 0.0
H3168 H 0.67615 0.83623 0.80401 0.0
H3169 H 0.68458 0.85637 0.77994 0.0
C3170 C 0.69637 0.95293 0.76484 0.0
C3171 C 0.6784 0.94769 0.76021 0.0
C3172 C 0.70616 0.93927 0.76587 0.0
C3173 C 0.69815 0.9202 0.762 0.0
C3174 C 0.68019 0.91489 0.75742 0.0
C3175 C 0.67034 0.92859 0.75652 0.0
C3176 C 0.7086 0.90586 0.76364 0.0
C3177 C 0.70494 0.8926 0.77607 0.0
C3178 C 0.72288 0.90623 0.75429 0.0
C3179 C 0.72649 0.91923 0.74006 0.0
C3180 C 0.71364 0.91978 0.72514 0.0
C3181 C 0.71682 0.93264 0.71219 0.0
C3182 C 0.73285 0.94492 0.71395 0.0
C3183 C 0.74577 0.94429 0.7286 0.0
C3184 C 0.74265 0.93147 0.74161 0.0
C3185 C 0.74498 0.83508 0.77447 0.0
C3186 C 0.76301 0.84115 0.77773 0.0
C3187 C 0.73445 0.84789 0.7722 0.0
C3188 C 0.74163 0.86716 0.77382 0.0
C3189 C 0.75965 0.87339 0.77716 0.0
C3190 C 0.77031 0.86042 0.77891 0.0
C3191 C 0.73026 0.88064 0.77106 0.0
C3192 C 0.73369 0.89375 0.75828 0.0
C3193 C 0.7155 0.87989 0.7799 0.0
C3194 C 0.71089 0.86668 0.79371 0.0
C3195 C 0.72283 0.8657 0.80932 0.0
C3196 C 0.71797 0.85403 0.8228 0.0
C3197 C 0.70115 0.84347 0.82093 0.0
C3198 C 0.6892 0.84434 0.80544 0.0
C3199 C 0.69403 0.85582 0.79184 0.0
H3200 H 0.69736 0.83468 0.83153 0.0
H3201 H 0.73527 0.9549 0.70394 0.0
H3202 H 0.77313 0.96752 0.52854 0.0
H3203 H 0.74623 0.97849 0.52269 0.0
H3204 H 0.71752 0.92329 0.52911 0.0
H3205 H 0.7444 0.912 0.53364 0.0
H3206 H 0.69901 0.93611 0.50447 0.0
H3207 H 0.7267 0.96311 0.56505 0.0
H3208 H 0.75087 0.98025 0.58857 0.0
H3209 H 0.75356 0.02953 0.55964 0.0
H3210 H 0.72947 0.0126 0.53587 0.0
H3211 H 0.62644 0.97445 0.52967 0.0
H3212 H 0.65037 0.95851 0.52782 0.0
H3213 H 0.6793 0.00747 0.50836 0.0
H3214 H 0.65566 0.02351 0.5103 0.0
H3215 H 0.69652 0.99626 0.53927 0.0
H3216 H 0.66585 0.96746 0.47938 0.0
H3217 H 0.64236 0.94821 0.45635 0.0
H3218 H 0.64402 0.90013 0.48632 0.0
H3219 H 0.66741 0.91913 0.50963 0.0
C3220 C 0.76109 0.95774 0.52874 0.0
C3221 C 0.76099 0.93896 0.53185 0.0
C3222 C 0.74563 0.96403 0.52546 0.0
C3223 C 0.72964 0.95195 0.52596 0.0
C3224 C 0.72953 0.93304 0.52871 0.0
C3225 C 0.74498 0.92661 0.53145 0.0
C3226 C 0.71323 0.9592 0.52425 0.0
C3227 C 0.69843 0.94914 0.5123 0.0
C3228 C 0.71221 0.97624 0.53428 0.0
C3229 C 0.7264 0.98659 0.54867 0.0
C3230 C 0.73249 0.97759 0.56371 0.0
C3231 C 0.74616 0.98726 0.57707 0.0
C3232 C 0.75376 0.00596 0.57558 0.0
C3233 C 0.74766 0.01505 0.56077 0.0
C3234 C 0.73397 0.00545 0.54738 0.0
C3235 C 0.63778 0.9818 0.5248 0.0
C3236 C 0.6389 1.00039 0.52014 0.0
C3237 C 0.65145 0.97254 0.52356 0.0
C3238 C 0.66669 0.98168 0.51781 0.0
C3239 C 0.66767 1.0 0.5127 0.0
C3240 C 0.654 0.00917 0.51376 0.0
C3241 C 0.68239 0.97337 0.51933 0.0
C3242 C 0.69707 0.98322 0.53142 0.0
C3243 C 0.68303 0.95592 0.50976 0.0
C3244 C 0.66823 0.94481 0.4964 0.0
C3245 C 0.66101 0.95287 0.48124 0.0
C3246 C 0.64778 0.94196 0.46807 0.0
C3247 C 0.64166 0.92297 0.4699 0.0
C3248 C 0.64874 0.91485 0.48494 0.0
C3249 C 0.66199 0.92568 0.49812 0.0
H3250 H 0.63148 0.91454 0.45964 0.0
H3251 H 0.76437 0.01341 0.58593 0.0
H3252 H 0.36188 0.4807 0.70964 0.0
H3253 H 0.35056 0.45189 0.7231 0.0
H3254 H 0.40073 0.45449 0.75445 0.0
H3255 H 0.41223 0.48249 0.74039 0.0
H3256 H 0.38671 0.41971 0.74203 0.0
H3257 H 0.36899 0.46833 0.77669 0.0
H3258 H 0.35668 0.49648 0.78086 0.0
H3259 H 0.3083 0.46625 0.75008 0.0
H3260 H 0.32038 0.43798 0.74568 0.0
H3261 H 0.33847 0.34834 0.79222 0.0
H3262 H 0.35834 0.37694 0.78651 0.0
H3263 H 0.32038 0.38567 0.7422 0.0
H3264 H 0.30075 0.35732 0.74762 0.0
H3265 H 0.33315 0.41672 0.76944 0.0
H3266 H 0.35368 0.36919 0.73215 0.0
H3267 H 0.36759 0.34229 0.72771 0.0
H3268 H 0.41224 0.37154 0.76569 0.0
H3269 H 0.39854 0.39858 0.77037 0.0
C3270 C 0.37047 0.4749 0.71917 0.0
C3271 C 0.38787 0.48365 0.72387 0.0
C3272 C 0.36402 0.45862 0.727 0.0
C3273 C 0.37478 0.45136 0.74007 0.0
C3274 C 0.39224 0.45988 0.74442 0.0
C3275 C 0.39876 0.47584 0.73631 0.0
C3276 C 0.36772 0.43494 0.74928 0.0
C3277 C 0.37518 0.41916 0.74835 0.0
C3278 C 0.35295 0.43435 0.75787 0.0
C3279 C 0.34556 0.45112 0.76085 0.0
C3280 C 0.35574 0.46774 0.77081 0.0
C3281 C 0.3488 0.48369 0.77322 0.0
C3282 C 0.33172 0.48316 0.76574 0.0
C3283 C 0.32152 0.46664 0.7559 0.0
C3284 C 0.32837 0.45063 0.7535 0.0
C3285 C 0.33452 0.35632 0.78116 0.0
C3286 C 0.31809 0.3508 0.77038 0.0
C3287 C 0.34583 0.37255 0.77794 0.0
C3288 C 0.34067 0.38332 0.76403 0.0
C3289 C 0.32446 0.37751 0.75306 0.0
C3290 C 0.31329 0.36134 0.75616 0.0
C3291 C 0.35151 0.40122 0.76108 0.0
C3292 C 0.34491 0.41743 0.76351 0.0
C3293 C 0.36718 0.40222 0.75415 0.0
C3294 C 0.37502 0.38572 0.75181 0.0
C3295 C 0.36636 0.36975 0.73973 0.0
C3296 C 0.37424 0.35453 0.73712 0.0
C3297 C 0.39076 0.35518 0.74649 0.0
C3298 C 0.39943 0.37104 0.7585 0.0
C3299 C 0.39164 0.38631 0.76111 0.0
H3300 H 0.39694 0.34349 0.74439 0.0
H3301 H 0.32639 0.49555 0.76757 0.0
H3302 H 0.15365 0.55453 0.25977 0.0
H3303 H 0.16746 0.58774 0.26645 0.0
H3304 H 0.21598 0.5728 0.28463 0.0
H3305 H 0.20208 0.53939 0.27842 0.0
H3306 H 0.21008 0.60009 0.30784 0.0
H3307 H 0.20596 0.58633 0.24192 0.0
H3308 H 0.19085 0.57506 0.21025 0.0
H3309 H 0.161 0.61757 0.21318 0.0
H3310 H 0.17562 0.62883 0.24508 0.0
H3311 H 0.26748 0.68679 0.29932 0.0
H3312 H 0.25152 0.65456 0.29991 0.0
H3313 H 0.20398 0.67134 0.28135 0.0
H3314 H 0.21979 0.70319 0.28006 0.0
H3315 H 0.20829 0.64329 0.25891 0.0
H3316 H 0.21294 0.6577 0.32445 0.0
H3317 H 0.22636 0.66741 0.35699 0.0
H3318 H 0.25473 0.62347 0.35487 0.0
H3319 H 0.24181 0.61376 0.32221 0.0
C3320 C 0.16727 0.55831 0.26519 0.0
C3321 C 0.17689 0.54447 0.26851 0.0
C3322 C 0.17512 0.57727 0.26895 0.0
C3323 C 0.19274 0.58262 0.27579 0.0
C3324 C 0.20234 0.56884 0.27931 0.0
C3325 C 0.19445 0.54984 0.2757 0.0
C3326 C 0.20122 0.60265 0.27927 0.0
C3327 C 0.20993 0.60955 0.29712 0.0
C3328 C 0.20043 0.61493 0.26532 0.0
C3329 C 0.19178 0.6083 0.246 0.0
C3330 C 0.19607 0.59318 0.2359 0.0
C3331 C 0.18759 0.58679 0.21789 0.0
C3332 C 0.17495 0.59557 0.20972 0.0
C3333 C 0.17077 0.61077 0.21954 0.0
C3334 C 0.17914 0.61714 0.23759 0.0
C3335 C 0.25359 0.68362 0.2957 0.0
C3336 C 0.2449 0.69743 0.2895 0.0
C3337 C 0.24449 0.66529 0.29618 0.0
C3338 C 0.2266 0.66063 0.29058 0.0
C3339 C 0.2178 0.67471 0.28568 0.0
C3340 C 0.22686 0.69295 0.28513 0.0
C3341 C 0.21732 0.64082 0.28755 0.0
C3342 C 0.20845 0.63391 0.2697 0.0
C3343 C 0.21799 0.62854 0.3015 0.0
C3344 C 0.22648 0.63508 0.32082 0.0
C3345 C 0.22223 0.65028 0.33083 0.0
C3346 C 0.22969 0.65573 0.34933 0.0
C3347 C 0.24128 0.64597 0.35802 0.0
C3348 C 0.24568 0.63095 0.34815 0.0
C3349 C 0.23831 0.62549 0.32964 0.0
H3350 H 0.24691 0.65008 0.3724 0.0
H3351 H 0.16845 0.59063 0.19576 0.0
H3352 H 0.50996 0.73067 0.42988 0.0
H3353 H 0.51585 0.70529 0.44846 0.0
H3354 H 0.55618 0.74488 0.48455 0.0
H3355 H 0.55011 0.77023 0.46641 0.0
H3356 H 0.56637 0.71168 0.4736 0.0
H3357 H 0.5203 0.73007 0.50016 0.0
H3358 H 0.49149 0.73721 0.49933 0.0
H3359 H 0.46819 0.68047 0.47629 0.0
H3360 H 0.49692 0.6731 0.47668 0.0
H3361 H 0.58113 0.64485 0.53851 0.0
H3362 H 0.57651 0.67342 0.52444 0.0
H3363 H 0.52732 0.64267 0.49519 0.0
H3364 H 0.53141 0.61497 0.50976 0.0
H3365 H 0.52243 0.6739 0.50488 0.0
H3366 H 0.56785 0.65579 0.47556 0.0
H3367 H 0.59648 0.64853 0.4748 0.0
H3368 H 0.62057 0.70393 0.50116 0.0
H3369 H 0.59205 0.71137 0.50232 0.0
C3370 C 0.52002 0.73396 0.44181 0.0
C3371 C 0.5295 0.75252 0.44665 0.0
C3372 C 0.52337 0.71945 0.45247 0.0
C3373 C 0.53648 0.72311 0.46799 0.0
C3374 C 0.54603 0.74162 0.47269 0.0
C3375 C 0.54247 0.75614 0.46231 0.0
C3376 C 0.54039 0.70771 0.47925 0.0
C3377 C 0.55681 0.70355 0.48062 0.0
C3378 C 0.52797 0.69685 0.48827 0.0
C3379 C 0.51072 0.70112 0.48825 0.0
C3380 C 0.50903 0.71917 0.49477 0.0
C3381 C 0.49272 0.72325 0.4944 0.0
C3382 C 0.47802 0.70932 0.4877 0.0
C3383 C 0.4796 0.69125 0.48143 0.0
C3384 C 0.49588 0.68712 0.48173 0.0
C3385 C 0.56936 0.64428 0.5291 0.0
C3386 C 0.55664 0.62755 0.52546 0.0
C3387 C 0.56671 0.66062 0.52092 0.0
C3388 C 0.55155 0.66042 0.50844 0.0
C3389 C 0.53905 0.64358 0.5048 0.0
C3390 C 0.54149 0.62757 0.5132 0.0
C3391 C 0.54838 0.67733 0.49888 0.0
C3392 C 0.53207 0.68192 0.49789 0.0
C3393 C 0.56085 0.68844 0.49 0.0
C3394 C 0.5779 0.68402 0.48924 0.0
C3395 C 0.57928 0.66635 0.4813 0.0
C3396 C 0.59546 0.66221 0.48079 0.0
C3397 C 0.61033 0.67573 0.48799 0.0
C3398 C 0.60904 0.69345 0.49565 0.0
C3399 C 0.59288 0.69763 0.49624 0.0
H3400 H 0.62286 0.6725 0.48758 0.0
H3401 H 0.4654 0.71251 0.48741 0.0
H3402 H 0.60632 0.2936 0.6824 0.0
H3403 H 0.63345 0.29148 0.70114 0.0
H3404 H 0.65565 0.34829 0.69175 0.0
H3405 H 0.62884 0.3498 0.67191 0.0
H3406 H 0.67802 0.32795 0.68907 0.0
H3407 H 0.64009 0.33395 0.73451 0.0
H3408 H 0.61282 0.32317 0.74628 0.0
H3409 H 0.62539 0.2693 0.75288 0.0
H3410 H 0.65263 0.2797 0.74088 0.0
H3411 H 0.74644 0.3578 0.76372 0.0
H3412 H 0.71809 0.35266 0.74472 0.0
H3413 H 0.71154 0.29291 0.74745 0.0
H3414 H 0.74036 0.29802 0.76628 0.0
H3415 H 0.68078 0.30973 0.75307 0.0
H3416 H 0.72157 0.30661 0.71272 0.0
H3417 H 0.74709 0.31589 0.69767 0.0
H3418 H 0.72682 0.36164 0.67683 0.0
H3419 H 0.70258 0.3544 0.69382 0.0
C3420 C 0.61703 0.30561 0.6844 0.0
C3421 C 0.61549 0.3219 0.67581 0.0
C3422 C 0.63253 0.30446 0.69523 0.0
C3423 C 0.64666 0.31987 0.69835 0.0
C3424 C 0.64504 0.33616 0.68967 0.0
C3425 C 0.62971 0.33708 0.67835 0.0
C3426 C 0.66323 0.31909 0.71029 0.0
C3427 C 0.67863 0.32433 0.70319 0.0
C3428 C 0.66407 0.31335 0.72842 0.0
C3429 C 0.64833 0.30757 0.73677 0.0
C3430 C 0.63704 0.31983 0.73854 0.0
C3431 C 0.62158 0.31377 0.74518 0.0
C3432 C 0.61736 0.29555 0.7503 0.0
C3433 C 0.62867 0.2834 0.74891 0.0
C3434 C 0.64413 0.28938 0.74222 0.0
C3435 C 0.73903 0.34352 0.76025 0.0
C3436 C 0.74583 0.3283 0.7663 0.0
C3437 C 0.72275 0.34062 0.74943 0.0
C3438 C 0.71259 0.32241 0.74462 0.0
C3439 C 0.7191 0.30711 0.751 0.0
C3440 C 0.73568 0.31001 0.76155 0.0
C3441 C 0.69567 0.31964 0.7321 0.0
C3442 C 0.68022 0.31356 0.73902 0.0
C3443 C 0.69475 0.32468 0.71374 0.0
C3444 C 0.71035 0.33016 0.70496 0.0
C3445 C 0.72296 0.31922 0.70568 0.0
C3446 C 0.73735 0.32425 0.6969 0.0
C3447 C 0.73893 0.33974 0.6867 0.0
C3448 C 0.72614 0.35024 0.68539 0.0
C3449 C 0.71215 0.3458 0.69478 0.0
H3450 H 0.74988 0.3434 0.67956 0.0
H3451 H 0.60534 0.29085 0.75537 0.0
H3452 H 0.05736 0.36157 0.9454 0.0
H3453 H 0.05718 0.39296 0.96035 0.0
H3454 H 1.00203 0.37718 0.95713 0.0
H3455 H 1.00227 0.34573 0.94295 0.0
H3456 H 0.01633 0.41473 0.94551 0.0
H3457 H 0.02302 0.37445 0.99557 0.0
H3458 H 0.03803 0.35369 0.01353 0.0
H3459 H 0.08426 0.39687 0.02393 0.0
H3460 H 0.06956 0.41775 0.00577 0.0
H3461 H 1.00109 0.48907 0.00468 0.0
H3462 H 0.99991 0.45719 0.99026 0.0
H3463 H 0.05425 0.46355 0.00952 0.0
H3464 H 0.05533 0.4943 0.02466 0.0
H3465 H 0.0403 0.43051 0.01226 0.0
H3466 H 0.03782 0.47083 0.96425 0.0
H3467 H 0.02613 0.4943 0.94689 0.0
H3468 H 0.9777 0.45506 0.9313 0.0
H3469 H 0.98905 0.43146 0.94882 0.0
C3470 C 0.04527 0.36491 0.94796 0.0
C3471 C 0.02986 0.35136 0.94341 0.0
C3472 C 0.04516 0.38274 0.95637 0.0
C3473 C 0.02958 0.38723 0.95977 0.0
C3474 C 0.01415 0.37388 0.95459 0.0
C3475 C 0.01432 0.35596 0.9467 0.0
C3476 C 0.02929 0.40547 0.96966 0.0
C3477 C 0.02146 0.4182 0.96013 0.0
C3478 C 0.03646 0.41014 0.98852 0.0
C3479 C 0.04528 0.3975 0.99915 0.0
C3480 C 0.03644 0.3794 1.00151 0.0
C3481 C 0.04488 0.36765 0.01176 0.0
C3482 C 0.06211 0.37393 0.01982 0.0
C3483 C 0.07093 0.392 0.01765 0.0
C3484 C 0.06256 0.40378 0.00738 0.0
C3485 C 0.01266 0.48346 0.00607 0.0
C3486 C 0.02831 0.49433 0.01558 0.0
C3487 C 0.01202 0.46536 0.99771 0.0
C3488 C 0.02709 0.45818 0.99847 0.0
C3489 C 0.04246 0.46875 0.00868 0.0
C3490 C 0.04304 0.48649 0.01726 0.0
C3491 C 0.02733 0.44 0.98819 0.0
C3492 C 0.03517 0.4272 0.99762 0.0
C3493 C 0.02083 0.43568 0.96907 0.0
C3494 C 0.0142 0.44949 0.95796 0.0
C3495 C 0.02466 0.46725 0.95715 0.0
C3496 C 0.0181 0.48057 0.94731 0.0
C3497 C 1.00117 0.47619 0.93804 0.0
C3498 C 0.9908 0.45844 0.9385 0.0
C3499 C 0.99729 0.44508 0.94837 0.0
H3500 H 0.99609 0.48654 0.93047 0.0
H3501 H 0.06861 0.36482 0.02779 0.0
H3502 H 0.03599 0.82055 0.19339 0.0
H3503 H 0.01031 0.81073 0.20768 0.0
H3504 H 0.98124 0.78788 0.15403 0.0
H3505 H 0.00686 0.79804 0.1396 0.0
H3506 H 0.96353 0.80728 0.17195 0.0
H3507 H 0.99301 0.75868 0.18736 0.0
H3508 H 0.01736 0.74495 0.19965 0.0
H3509 H 0.01911 0.77347 0.25363 0.0
H3510 H 0.99488 0.78753 0.24159 0.0
H3511 H 0.8896 0.7745 0.21209 0.0
H3512 H 0.9138 0.7733 0.19521 0.0
H3513 H 0.94937 0.79378 0.24574 0.0
H3514 H 0.92518 0.79365 0.26274 0.0
H3515 H 0.96275 0.77168 0.22695 0.0
H3516 H 0.93492 0.82257 0.2105 0.0
H3517 H 0.91023 0.83575 0.19813 0.0
H3518 H 0.90575 0.803 0.1457 0.0
H3519 H 0.93019 0.78934 0.15792 0.0
C3520 C 0.02412 0.81348 0.18461 0.0
C3521 C 0.02344 0.81023 0.16533 0.0
C3522 C 0.00946 0.80766 0.19284 0.0
C3523 C 0.99383 0.79828 0.18201 0.0
C3524 C 0.99313 0.79503 0.16272 0.0
C3525 C 0.00778 0.8009 0.15447 0.0
C3526 C 0.97802 0.79282 0.19067 0.0
C3527 C 0.9633 0.7992 0.18377 0.0
C3528 C 0.97767 0.78254 0.2063 0.0
C3529 C 0.99227 0.77426 0.21354 0.0
C3530 C 0.9987 0.76213 0.20181 0.0
C3531 C 0.01244 0.75427 0.20874 0.0
C3532 C 0.0198 0.75837 0.2274 0.0
C3533 C 0.01341 0.77032 0.23918 0.0
C3534 C 0.99966 0.77822 0.23232 0.0
C3535 C 0.90262 0.77841 0.21957 0.0
C3536 C 0.90559 0.7843 0.23864 0.0
C3537 C 0.91645 0.77788 0.20992 0.0
C3538 C 0.93353 0.78405 0.21902 0.0
C3539 C 0.9364 0.78906 0.23829 0.0
C3540 C 0.92258 0.78904 0.24802 0.0
C3541 C 0.94839 0.78654 0.2085 0.0
C3542 C 0.96294 0.77961 0.21502 0.0
C3543 C 0.94863 0.79638 0.19254 0.0
C3544 C 0.9342 0.80482 0.18516 0.0
C3545 C 0.92859 0.81813 0.19636 0.0
C3546 C 0.91464 0.82566 0.18939 0.0
C3547 C 0.9064 0.82018 0.17116 0.0
C3548 C 0.91211 0.80719 0.15984 0.0
C3549 C 0.92599 0.79954 0.16678 0.0
H3550 H 0.8956 0.82604 0.16578 0.0
H3551 H 0.03045 0.75226 0.23274 0.0
H3552 H 0.54242 0.3655 0.11253 0.0
H3553 H 0.54299 0.39452 0.09789 0.0
H3554 H 0.59761 0.41188 0.11679 0.0
H3555 H 0.59678 0.38326 0.13262 0.0
H3556 H 0.58535 0.4421 0.11718 0.0
H3557 H 0.58059 0.39248 0.07017 0.0
H3558 H 0.56885 0.36025 0.05499 0.0
H3559 H 0.5188 0.37301 0.04312 0.0
H3560 H 0.53023 0.40531 0.0584 0.0
H3561 H 0.58826 0.51314 0.05347 0.0
H3562 H 0.59347 0.48528 0.06838 0.0
H3563 H 0.53902 0.46097 0.05722 0.0
H3564 H 0.5341 0.48816 0.04123 0.0
H3565 H 0.55531 0.43429 0.05235 0.0
H3566 H 0.56516 0.48814 0.0989 0.0
H3567 H 0.58143 0.51992 0.11094 0.0
H3568 H 0.62718 0.49866 0.12451 0.0
H3569 H 0.61168 0.46703 0.11035 0.0
C3570 C 0.55455 0.3755 0.11363 0.0
C3571 C 0.56957 0.37187 0.12356 0.0
C3572 C 0.55492 0.39215 0.10514 0.0
C3573 C 0.57045 0.40539 0.1056 0.0
C3574 C 0.58544 0.40202 0.116 0.0
C3575 C 0.58497 0.38554 0.12498 0.0
C3576 C 0.57094 0.42213 0.09459 0.0
C3577 C 0.57895 0.44036 0.10294 0.0
C3578 C 0.56294 0.42012 0.07584 0.0
C3579 C 0.55625 0.40126 0.06543 0.0
C3580 C 0.56709 0.38842 0.06423 0.0
C3581 C 0.56049 0.37014 0.05567 0.0
C3582 C 0.54309 0.36458 0.04811 0.0
C3583 C 0.53229 0.37736 0.04896 0.0
C3584 C 0.53883 0.39568 0.05751 0.0
C3585 C 0.57745 0.50177 0.05418 0.0
C3586 C 0.56074 0.50291 0.04637 0.0
C3587 C 0.58041 0.48582 0.06276 0.0
C3588 C 0.56661 0.47097 0.06448 0.0
C3589 C 0.54996 0.47209 0.05629 0.0
C3590 C 0.5471 0.48773 0.04723 0.0
C3591 C 0.56913 0.45449 0.07509 0.0
C3592 C 0.56175 0.43616 0.06658 0.0
C3593 C 0.57829 0.4565 0.09349 0.0
C3594 C 0.58726 0.4752 0.10326 0.0
C3595 C 0.57872 0.49021 0.10428 0.0
C3596 C 0.58785 0.50826 0.11142 0.0
C3597 C 0.60526 0.51131 0.11885 0.0
C3598 C 0.61368 0.4963 0.11878 0.0
C3599 C 0.60478 0.47835 0.11089 0.0
H3600 H 0.61223 0.5253 0.12456 0.0
H3601 H 0.53797 0.35038 0.04159 0.0
H3602 H 0.96122 0.29268 0.39817 0.0
H3603 H 0.93519 0.29693 0.37859 0.0
H3604 H 0.96275 0.30245 0.33201 0.0
H3605 H 0.98861 0.29825 0.35131 0.0
H3606 H 0.9465 0.33084 0.33664 0.0
H3607 H 0.93263 0.2635 0.33366 0.0
H3608 H 0.92642 0.2318 0.34397 0.0
H3609 H 0.88526 0.2458 0.37023 0.0
H3610 H 0.89144 0.2777 0.36039 0.0
H3611 H 0.87034 0.32501 0.26837 0.0
H3612 H 0.89742 0.3196 0.28517 0.0
H3613 H 0.87572 0.31935 0.33599 0.0
H3614 H 0.84896 0.32484 0.31933 0.0
H3615 H 0.88917 0.28756 0.32698 0.0
H3616 H 0.90381 0.35513 0.33181 0.0
H3617 H 0.90633 0.38495 0.3177 0.0
H3618 H 0.94402 0.36965 0.28656 0.0
H3619 H 0.94141 0.33949 0.30021 0.0
C3620 C 0.96162 0.29454 0.38369 0.0
C3621 C 0.97694 0.29517 0.37629 0.0
C3622 C 0.94677 0.29692 0.37253 0.0
C3623 C 0.9471 0.29998 0.35386 0.0
C3624 C 0.96226 0.30014 0.34638 0.0
C3625 C 0.97701 0.29768 0.35745 0.0
C3626 C 0.93201 0.30414 0.34233 0.0
C3627 C 0.93402 0.32124 0.33438 0.0
C3628 C 0.91567 0.2918 0.3396 0.0
C3629 C 0.91271 0.27308 0.34656 0.0
C3630 C 0.92248 0.25994 0.34194 0.0
C3631 C 0.9189 0.2419 0.34762 0.0
C3632 C 0.90551 0.23681 0.35781 0.0
C3633 C 0.89568 0.24977 0.3624 0.0
C3634 C 0.89924 0.26784 0.3568 0.0
C3635 C 0.87169 0.32425 0.28319 0.0
C3636 C 0.85797 0.32548 0.2928 0.0
C3637 C 0.88696 0.32107 0.2927 0.0
C3638 C 0.88836 0.319 0.31172 0.0
C3639 C 0.87475 0.32084 0.3213 0.0
C3640 C 0.85963 0.32411 0.31188 0.0
C3641 C 0.90371 0.3142 0.32176 0.0
C3642 C 0.90172 0.29704 0.32934 0.0
C3643 C 0.91996 0.32649 0.32426 0.0
C3644 C 0.92232 0.34502 0.31689 0.0
C3645 C 0.91259 0.3581 0.3219 0.0
C3646 C 0.91401 0.37505 0.31397 0.0
C3647 C 0.92529 0.37918 0.3012 0.0
C3648 C 0.93526 0.36641 0.29644 0.0
C3649 C 0.93383 0.34939 0.30427 0.0
H3650 H 0.92634 0.39228 0.29502 0.0
H3651 H 0.9027 0.2228 0.36211 0.0
H3652 H 0.05285 0.75276 0.64188 0.0
H3653 H 0.04817 0.72128 0.62542 0.0
H3654 H 0.06766 0.74553 0.57861 0.0
H3655 H 0.0715 0.7771 0.59476 0.0
H3656 H 0.04159 0.72074 0.56593 0.0
H3657 H 0.08949 0.71864 0.61292 0.0
H3658 H 0.10493 0.71986 0.64465 0.0
H3659 H 0.06532 0.6753 0.65633 0.0
H3660 H 0.04952 0.67402 0.62478 0.0
H3661 H 0.04769 0.63859 0.51275 0.0
H3662 H 0.05305 0.66838 0.53209 0.0
H3663 H 0.03615 0.63908 0.57748 0.0
H3664 H 0.03207 0.6088 0.55823 0.0
H3665 H 0.05926 0.66578 0.59223 0.0
H3666 H 0.01128 0.66776 0.54594 0.0
H3667 H 0.99419 0.66781 0.51528 0.0
H3668 H 0.03253 0.7134 0.50306 0.0
H3669 H 0.04994 0.71342 0.53348 0.0
C3670 C 0.05619 0.7514 0.62808 0.0
C3671 C 0.0625 0.76758 0.61964 0.0
C3672 C 0.05366 0.73325 0.61868 0.0
C3673 C 0.05776 0.73063 0.60069 0.0
C3674 C 0.06431 0.74687 0.5924 0.0
C3675 C 0.06655 0.76504 0.60168 0.0
C3676 C 0.05435 0.7113 0.58998 0.0
C3677 C 0.0458 0.70885 0.57165 0.0
C3678 C 0.05893 0.69525 0.59748 0.0
C3679 C 0.06826 0.69636 0.61655 0.0
C3680 C 0.084 0.70923 0.62232 0.0
C3681 C 0.09282 0.70991 0.64026 0.0
C3682 C 0.08609 0.69769 0.65251 0.0
C3683 C 0.07051 0.68478 0.64685 0.0
C3684 C 0.06162 0.68407 0.62895 0.0
C3685 C 0.0452 0.63842 0.52691 0.0
C3686 C 0.0394 0.6212 0.53386 0.0
C3687 C 0.04803 0.65566 0.53799 0.0
C3688 C 0.04445 0.6565 0.55629 0.0
C3689 C 0.03895 0.63917 0.56344 0.0
C3690 C 0.03661 0.62175 0.55243 0.0
C3691 C 0.04688 0.67532 0.56789 0.0
C3692 C 0.05512 0.67766 0.58644 0.0
C3693 C 0.04192 0.69134 0.56064 0.0
C3694 C 0.03197 0.69045 0.54191 0.0
C3695 C 0.01616 0.67761 0.5366 0.0
C3696 C 0.0064 0.67767 0.51929 0.0
C3697 C 0.01228 0.69058 0.50722 0.0
C3698 C 0.02799 0.70338 0.51239 0.0
C3699 C 0.03782 0.70334 0.52965 0.0
H3700 H 1.00465 0.69068 0.49388 0.0
H3701 H 0.09297 0.6982 0.66637 0.0
H3702 H 0.54506 0.77485 0.85399 0.0
H3703 H 0.56637 0.77218 0.83355 0.0
H3704 H 0.60509 0.811 0.87231 0.0
H3705 H 0.5838 0.81362 0.89294 0.0
H3706 H 0.60608 0.81876 0.83579 0.0
H3707 H 0.60359 0.76424 0.87 0.0
H3708 H 0.5891 0.73497 0.88095 0.0
H3709 H 0.57218 0.71025 0.82467 0.0
H3710 H 0.58638 0.73951 0.81339 0.0
H3711 H 0.68488 0.80406 0.81269 0.0
H3712 H 0.65951 0.80761 0.82619 0.0
H3713 H 0.62853 0.76219 0.78734 0.0
H3714 H 0.65409 0.75817 0.77409 0.0
H3715 H 0.62077 0.75718 0.82004 0.0
H3716 H 0.62299 0.80879 0.78474 0.0
H3717 H 0.63526 0.83765 0.77153 0.0
H3718 H 0.65032 0.86716 0.82618 0.0
H3719 H 0.63819 0.83843 0.83972 0.0
C3720 C 0.55812 0.78284 0.8582 0.0
C3721 C 0.56275 0.79438 0.8752 0.0
C3722 C 0.57031 0.78125 0.84648 0.0
C3723 C 0.58742 0.79128 0.85141 0.0
C3724 C 0.59199 0.8031 0.8682 0.0
C3725 C 0.57984 0.80452 0.88004 0.0
C3726 C 0.60062 0.78926 0.83925 0.0
C3727 C 0.60943 0.80533 0.83253 0.0
C3728 C 0.60446 0.77162 0.83414 0.0
C3729 C 0.59586 0.7541 0.84087 0.0
C3730 C 0.59664 0.75262 0.85997 0.0
C3731 C 0.58851 0.73603 0.86623 0.0
C3732 C 0.57968 0.72078 0.85351 0.0
C3733 C 0.57899 0.72209 0.8345 0.0
C3734 C 0.58708 0.73867 0.82817 0.0
C3735 C 0.67272 0.79482 0.80693 0.0
C3736 C 0.67174 0.78084 0.79224 0.0
C3737 C 0.65808 0.79702 0.81456 0.0
C3738 C 0.64193 0.78533 0.80771 0.0
C3739 C 0.64078 0.77148 0.79287 0.0
C3740 C 0.65547 0.7693 0.78519 0.0
C3741 C 0.62665 0.78681 0.81697 0.0
C3742 C 0.61737 0.77062 0.82312 0.0
C3743 C 0.62212 0.80427 0.8212 0.0
C3744 C 0.6298 0.82145 0.81323 0.0
C3745 C 0.62905 0.8214 0.79394 0.0
C3746 C 0.63592 0.83775 0.7864 0.0
C3747 C 0.64358 0.85423 0.79801 0.0
C3748 C 0.64437 0.85439 0.8172 0.0
C3749 C 0.63746 0.8381 0.82482 0.0
H3750 H 0.6489 0.86687 0.79215 0.0
H3751 H 0.57342 0.70793 0.85839 0.0
H3752 H 0.4238 0.55688 0.65747 0.0
H3753 H 0.44639 0.56746 0.63886 0.0
H3754 H 0.48059 0.53942 0.67146 0.0
H3755 H 0.45829 0.52892 0.69003 0.0
H3756 H 0.49603 0.57566 0.66689 0.0
H3757 H 0.46295 0.51939 0.63096 0.0
H3758 H 0.43509 0.49908 0.61684 0.0
H3759 H 0.42571 0.54106 0.58104 0.0
H3760 H 0.45341 0.56179 0.59523 0.0
H3761 H 0.55781 0.56792 0.60767 0.0
H3762 H 0.5356 0.56267 0.62768 0.0
H3763 H 0.50505 0.59319 0.59336 0.0
H3764 H 0.52747 0.59862 0.57348 0.0
H3765 H 0.48752 0.55749 0.59899 0.0
H3766 H 0.52394 0.61271 0.6349 0.0
H3767 H 0.55196 0.63137 0.65068 0.0
H3768 H 0.55601 0.58893 0.68755 0.0
H3769 H 0.52814 0.56983 0.67176 0.0
C3770 C 0.43601 0.55268 0.66035 0.0
C3771 C 0.43935 0.54205 0.67501 0.0
C3772 C 0.44891 0.55888 0.64993 0.0
C3773 C 0.46507 0.55429 0.65405 0.0
C3774 C 0.46822 0.54324 0.66834 0.0
C3775 C 0.45541 0.53709 0.67872 0.0
C3776 C 0.47863 0.56047 0.64305 0.0
C3777 C 0.49427 0.57168 0.65206 0.0
C3778 C 0.47612 0.55515 0.6238 0.0
C3779 C 0.46018 0.54217 0.61421 0.0
C3780 C 0.45495 0.52427 0.62005 0.0
C3781 C 0.43917 0.51271 0.61209 0.0
C3782 C 0.42862 0.51879 0.59808 0.0
C3783 C 0.4339 0.53638 0.5919 0.0
C3784 C 0.44965 0.54803 0.59988 0.0
C3785 C 0.5466 0.57402 0.6049 0.0
C3786 C 0.54418 0.58385 0.58946 0.0
C3787 C 0.53394 0.57092 0.61614 0.0
C3788 C 0.51884 0.57764 0.6119 0.0
C3789 C 0.5167 0.58799 0.59674 0.0
C3790 C 0.52944 0.59117 0.58556 0.0
C3791 C 0.50491 0.57293 0.62278 0.0
C3792 C 0.48923 0.56176 0.61376 0.0
C3793 C 0.50754 0.57801 0.6421 0.0
C3794 C 0.52398 0.5898 0.65208 0.0
C3795 C 0.53083 0.60732 0.64633 0.0
C3796 C 0.5467 0.61797 0.65526 0.0
C3797 C 0.55578 0.61133 0.67009 0.0
C3798 C 0.54897 0.59405 0.67606 0.0
C3799 C 0.53312 0.58332 0.66714 0.0
H3800 H 0.56807 0.61958 0.67697 0.0
H3801 H 0.41636 0.50986 0.59199 0.0
H3802 H 0.79045 0.24783 0.97887 0.0
H3803 H 0.78733 0.26183 0.9497 0.0
H3804 H 0.76241 0.20742 0.92081 0.0
H3805 H 0.76592 0.19322 0.94999 0.0
H3806 H 0.78465 0.22535 0.90106 0.0
H3807 H 0.73814 0.24078 0.92834 0.0
H3808 H 0.72335 0.25229 0.95284 0.0
H3809 H 0.75688 0.30682 0.9573 0.0
H3810 H 0.77192 0.29557 0.93289 0.0
H3811 H 0.7637 0.26832 0.82012 0.0
H3812 H 0.75905 0.25148 0.84712 0.0
H3813 H 0.78808 0.30026 0.88311 0.0
H3814 H 0.79251 0.31741 0.85618 0.0
H3815 H 0.76 0.28242 0.89735 0.0
H3816 H 0.80754 0.26493 0.87068 0.0
H3817 H 0.81945 0.25381 0.84363 0.0
H3818 H 0.78125 0.20227 0.83623 0.0
H3819 H 0.76901 0.21322 0.86318 0.0
C3820 C 0.78428 0.23885 0.96632 0.0
C3821 C 0.77841 0.21945 0.96674 0.0
C3822 C 0.78242 0.24687 0.94965 0.0
C3823 C 0.77439 0.23574 0.93307 0.0
C3824 C 0.76862 0.21631 0.93341 0.0
C3825 C 0.7706 0.20823 0.9501 0.0
C3826 C 0.77234 0.24451 0.91545 0.0
C3827 C 0.77898 0.23762 0.90018 0.0
C3828 C 0.765 0.26055 0.91415 0.0
C3829 C 0.75618 0.26733 0.92892 0.0
C3830 C 0.74241 0.25519 0.93465 0.0
C3831 C 0.73397 0.26167 0.94848 0.0
C3832 C 0.73919 0.28027 0.95664 0.0
C3833 C 0.75285 0.29242 0.95097 0.0
C3834 C 0.76131 0.28602 0.93711 0.0
C3835 C 0.76894 0.27558 0.83378 0.0
C3836 C 0.77865 0.29416 0.83599 0.0
C3837 C 0.76627 0.2659 0.8492 0.0
C3838 C 0.77347 0.27451 0.86709 0.0
C3839 C 0.78244 0.29335 0.8694 0.0
C3840 C 0.785 0.30311 0.85399 0.0
C3841 C 0.77271 0.26358 0.8833 0.0
C3842 C 0.76551 0.27004 0.89824 0.0
C3843 C 0.77934 0.24704 0.88418 0.0
C3844 C 0.78737 0.23988 0.86887 0.0
C3845 C 0.80174 0.25119 0.86332 0.0
C3846 C 0.80852 0.24495 0.84799 0.0
C3847 C 0.80111 0.22734 0.83821 0.0
C3848 C 0.78699 0.21589 0.84384 0.0
C3849 C 0.78015 0.22208 0.85917 0.0
H3850 H 0.80632 0.22257 0.82628 0.0
H3851 H 0.73263 0.28527 0.96734 0.0
H3852 H 0.14838 0.50865 0.19815 0.0
H3853 H 0.13236 0.51896 0.17157 0.0
H3854 H 0.08498 0.48647 0.18419 0.0
H3855 H 0.10095 0.476 0.21089 0.0
H3856 H 0.08825 0.48126 0.14799 0.0
H3857 H 0.09536 0.5332 0.19468 0.0
H3858 H 0.11086 0.55906 0.21832 0.0
H3859 H 0.13783 0.58581 0.17745 0.0
H3860 H 0.1228 0.55989 0.15365 0.0
H3861 H 0.02858 0.51639 0.08964 0.0
H3862 H 0.04576 0.50741 0.11611 0.0
H3863 H 0.09074 0.54601 0.10522 0.0
H3864 H 0.07318 0.55606 0.07942 0.0
H3865 H 0.08979 0.54851 0.14031 0.0
H3866 H 0.0831 0.49636 0.0937 0.0
H3867 H 0.06783 0.47026 0.07017 0.0
H3868 H 0.04041 0.44395 0.11097 0.0
H3869 H 0.05532 0.47001 0.13467 0.0
C3870 C 0.13457 0.50347 0.19512 0.0
C3871 C 0.12588 0.49137 0.20643 0.0
C3872 C 0.12545 0.50959 0.1801 0.0
C3873 C 0.10753 0.50369 0.1762 0.0
C3874 C 0.09884 0.49122 0.18716 0.0
C3875 C 0.10796 0.48515 0.20226 0.0
C3876 C 0.09791 0.50985 0.16016 0.0
C3877 C 0.08838 0.49595 0.14638 0.0
C3878 C 0.09868 0.52908 0.15795 0.0
C3879 C 0.1081 0.54444 0.17241 0.0
C3880 C 0.10478 0.54444 0.19078 0.0
C3881 C 0.11346 0.55915 0.20421 0.0
C3882 C 0.12539 0.57402 0.19941 0.0
C3883 C 0.12865 0.57423 0.18117 0.0
C3884 C 0.12007 0.55953 0.16771 0.0
C3885 C 0.04213 0.52296 0.0929 0.0
C3886 C 0.04967 0.53673 0.08243 0.0
C3887 C 0.05196 0.51771 0.10792 0.0
C3888 C 0.06961 0.52569 0.11232 0.0
C3889 C 0.07715 0.53957 0.10193 0.0
C3890 C 0.06719 0.54519 0.08715 0.0
C3891 C 0.08001 0.51986 0.12812 0.0
C3892 C 0.08973 0.53382 0.14185 0.0
C3893 C 0.0795 0.50067 0.1303 0.0
C3894 C 0.07025 0.48521 0.11592 0.0
C3895 C 0.0737 0.48509 0.09761 0.0
C3896 C 0.06513 0.47029 0.08425 0.0
C3897 C 0.05315 0.45547 0.08907 0.0
C3898 C 0.04969 0.45544 0.10725 0.0
C3899 C 0.0582 0.47021 0.12065 0.0
H3900 H 0.04657 0.44399 0.07872 0.0
H3901 H 0.13204 0.58542 0.20982 0.0
H3902 H 0.77893 0.87079 0.48639 0.0
H3903 H 0.77776 0.85576 0.45498 0.0
H3904 H 0.82598 0.89282 0.45061 0.0
H3905 H 0.82628 0.90877 0.4812 0.0
H3906 H 0.80732 0.88922 0.41976 0.0
H3907 H 0.81936 0.84265 0.46191 0.0
H3908 H 0.81266 0.82122 0.48565 0.0
H3909 H 0.76532 0.79364 0.45104 0.0
H3910 H 0.77166 0.81506 0.42724 0.0
H3911 H 0.83388 0.8391 0.34656 0.0
H3912 H 0.83244 0.85295 0.37776 0.0
H3913 H 0.78198 0.81778 0.37569 0.0
H3914 H 0.78351 0.80362 0.34502 0.0
H3915 H 0.79952 0.8199 0.40866 0.0
H3916 H 0.78665 0.86341 0.36643 0.0
H3917 H 0.79166 0.88343 0.34124 0.0
H3918 H 0.83789 0.91592 0.37446 0.0
H3919 H 0.83328 0.89589 0.39974 0.0
C3920 C 0.7892 0.87566 0.4786 0.0
C3921 C 0.80275 0.89079 0.48612 0.0
C3922 C 0.78862 0.86702 0.46073 0.0
C3923 C 0.80202 0.87279 0.45051 0.0
C3924 C 0.81548 0.88804 0.45812 0.0
C3925 C 0.8157 0.89711 0.47563 0.0
C3926 C 0.80235 0.86307 0.43199 0.0
C3927 C 0.80584 0.87407 0.41748 0.0
C3928 C 0.79969 0.84323 0.42857 0.0
C3929 C 0.79591 0.83054 0.44294 0.0
C3930 C 0.80748 0.83208 0.45946 0.0
C3931 C 0.80375 0.81994 0.4729 0.0
C3932 C 0.78856 0.80611 0.46988 0.0
C3933 C 0.77707 0.80438 0.45339 0.0
C3934 C 0.78072 0.81651 0.43993 0.0
C3935 C 0.82266 0.8341 0.35295 0.0
C3936 C 0.80874 0.82044 0.3433 0.0
C3937 C 0.82176 0.84213 0.37066 0.0
C3938 C 0.80694 0.83665 0.37885 0.0
C3939 C 0.79348 0.82231 0.36959 0.0
C3940 C 0.79437 0.81428 0.35201 0.0
C3941 C 0.8051 0.84612 0.39683 0.0
C3942 C 0.80111 0.83506 0.41107 0.0
C3943 C 0.80704 0.86584 0.39991 0.0
C3944 C 0.80971 0.87807 0.38488 0.0
C3945 C 0.79794 0.87476 0.3683 0.0
C3946 C 0.8007 0.8861 0.35402 0.0
C3947 C 0.81511 0.90091 0.35623 0.0
C3948 C 0.82675 0.90443 0.37276 0.0
C3949 C 0.82407 0.8931 0.38707 0.0
H3950 H 0.81723 0.90968 0.34515 0.0
H3951 H 0.78571 0.79671 0.4803 0.0
H3952 H 0.4151 0.54479 0.78361 0.0
H3953 H 0.43261 0.54625 0.81421 0.0
H3954 H 0.47689 0.5424 0.78779 0.0
H3955 H 0.4598 0.54106 0.7576 0.0
H3956 H 0.47134 0.51837 0.81562 0.0
H3957 H 0.47366 0.58393 0.80297 0.0
H3958 H 0.461 0.61153 0.79739 0.0
H3959 H 0.43898 0.60665 0.84753 0.0
H3960 H 0.45138 0.57887 0.85325 0.0
H3961 H 0.54135 0.53857 0.88441 0.0
H3962 H 0.52512 0.54341 0.85503 0.0
H3963 H 0.48974 0.5661 0.8852 0.0
H3964 H 0.50701 0.56328 0.91419 0.0
H3965 H 0.48793 0.57891 0.85605 0.0
H3966 H 0.48646 0.51309 0.86959 0.0
H3967 H 0.49839 0.48477 0.8741 0.0
H3968 H 0.51757 0.48854 0.82225 0.0
H3969 H 0.50576 0.51683 0.81749 0.0
C3970 C 0.42857 0.54423 0.78448 0.0
C3971 C 0.43626 0.54302 0.76848 0.0
C3972 C 0.43843 0.54501 0.8018 0.0
C3973 C 0.45585 0.54438 0.80294 0.0
C3974 C 0.46338 0.5428 0.78695 0.0
C3975 C 0.45366 0.54222 0.76981 0.0
C3976 C 0.46688 0.54625 0.82068 0.0
C3977 C 0.47493 0.53149 0.82468 0.0
C3978 C 0.47127 0.5633 0.83226 0.0
C3979 C 0.46325 0.57934 0.82841 0.0
C3980 C 0.46593 0.58864 0.81265 0.0
C3981 C 0.45886 0.60431 0.8095 0.0
C3982 C 0.44924 0.61084 0.82211 0.0
C3983 C 0.44647 0.60158 0.83779 0.0
C3984 C 0.45349 0.58588 0.84099 0.0
C3985 C 0.53073 0.54566 0.88459 0.0
C3986 C 0.52495 0.55012 0.9012 0.0
C3987 C 0.52122 0.54796 0.86791 0.0
C3988 C 0.50565 0.55394 0.86802 0.0
C3989 C 0.5015 0.56105 0.88475 0.0
C3990 C 0.51137 0.5595 0.90131 0.0
C3991 C 0.49269 0.55096 0.85131 0.0
C3992 C 0.4842 0.56553 0.84743 0.0
C3993 C 0.48776 0.53355 0.83994 0.0
C3994 C 0.49546 0.51712 0.84333 0.0
C3995 C 0.49337 0.50793 0.85928 0.0
C3996 C 0.50005 0.49187 0.86183 0.0
C3997 C 0.50878 0.4849 0.8485 0.0
C3998 C 0.51084 0.49396 0.83258 0.0
C3999 C 0.50416 0.50998 0.82995 0.0
H4000 H 0.51391 0.47244 0.85049 0.0
H4001 H 0.44407 0.62317 0.81978 0.0
H4002 H 0.77425 0.20205 0.08234 0.0
H4003 H 0.77667 0.21936 0.113 0.0
H4004 H 0.8073 0.26804 0.09474 0.0
H4005 H 0.80473 0.25082 0.06401 0.0
H4006 H 0.82171 0.26198 0.12823 0.0
H4007 H 0.76652 0.26762 0.1015 0.0
H4008 H 0.73699 0.25654 0.08474 0.0
H4009 H 0.72363 0.22348 0.12871 0.0
H4010 H 0.75322 0.23411 0.14561 0.0
H4011 H 0.82171 0.32832 0.20461 0.0
H4012 H 0.81761 0.31052 0.17425 0.0
H4013 H 0.78676 0.26323 0.19437 0.0
H4014 H 0.79086 0.28132 0.2252 0.0
H4015 H 0.77191 0.26824 0.1597 0.0
H4016 H 0.82939 0.26444 0.18597 0.0
H4017 H 0.86001 0.2749 0.19955 0.0
H4018 H 0.86942 0.30649 0.15352 0.0
H4019 H 0.83881 0.29648 0.13983 0.0
C4020 C 0.78151 0.21645 0.08483 0.0
C4021 C 0.78938 0.22494 0.07063 0.0
C4022 C 0.7828 0.22643 0.10241 0.0
C4023 C 0.79215 0.24517 0.10642 0.0
C4024 C 0.80003 0.25364 0.09221 0.0
C4025 C 0.79854 0.24376 0.07456 0.0
C4026 C 0.79417 0.25571 0.1255 0.0
C4027 C 0.81078 0.26355 0.13496 0.0
C4028 C 0.78002 0.25768 0.13462 0.0
C4029 C 0.76213 0.25151 0.12475 0.0
C4030 C 0.75732 0.25787 0.10755 0.0
C4031 C 0.74057 0.25169 0.09802 0.0
C4032 C 0.72845 0.23927 0.10564 0.0
C4033 C 0.73305 0.23308 0.12282 0.0
C4034 C 0.74981 0.23918 0.13239 0.0
C4035 C 0.81418 0.31404 0.20277 0.0
C4036 C 0.80683 0.30629 0.21765 0.0
C4037 C 0.81186 0.30377 0.18523 0.0
C4038 C 0.80202 0.28525 0.18171 0.0
C4039 C 0.7945 0.27741 0.19652 0.0
C4040 C 0.79698 0.28772 0.21428 0.0
C4041 C 0.7996 0.27443 0.1626 0.0
C4042 C 0.78288 0.26663 0.15304 0.0
C4043 C 0.81368 0.27282 0.15314 0.0
C4044 C 0.83179 0.27987 0.162 0.0
C4045 C 0.83794 0.27386 0.17891 0.0
C4046 C 0.85531 0.27965 0.18658 0.0
C4047 C 0.86665 0.29137 0.17742 0.0
C4048 C 0.86063 0.29744 0.16062 0.0
C4049 C 0.84327 0.29173 0.15292 0.0
H4050 H 0.88012 0.29572 0.18332 0.0
H4051 H 0.71548 0.23449 0.09824 0.0
H4052 H 0.1425 0.49353 0.32396 0.0
H4053 H 0.13349 0.51395 0.34729 0.0
H4054 H 0.10368 0.53579 0.30387 0.0
H4055 H 0.11212 0.51508 0.28065 0.0
H4056 H 0.12561 0.56392 0.33175 0.0
H4057 H 0.0832 0.50665 0.32391 0.0
H4058 H 0.07308 0.47231 0.32226 0.0
H4059 H 0.0946 0.4735 0.37942 0.0
H4060 H 0.1054 0.50781 0.38123 0.0
H4061 H 0.05946 0.58758 0.38516 0.0
H4062 H 0.0767 0.57976 0.36175 0.0
H4063 H 0.11417 0.56763 0.40454 0.0
H4064 H 0.0973 0.57589 0.42804 0.0
H4065 H 0.08951 0.53621 0.37672 0.0
H4066 H 0.13086 0.59504 0.38407 0.0
H4067 H 0.14019 0.62935 0.38432 0.0
H4068 H 0.11824 0.62543 0.32695 0.0
H4069 H 0.10843 0.59111 0.32647 0.0
C4070 C 0.13372 0.5024 0.31952 0.0
C4071 C 0.12761 0.50247 0.30068 0.0
C4072 C 0.1288 0.51416 0.33273 0.0
C4073 C 0.1181 0.52637 0.32711 0.0
C4074 C 0.11203 0.52648 0.30832 0.0
C4075 C 0.11657 0.51441 0.29518 0.0
C4076 C 0.11246 0.53835 0.34094 0.0
C4077 C 0.11765 0.55795 0.34156 0.0
C4078 C 0.10211 0.53036 0.35358 0.0
C4079 C 0.09537 0.50977 0.35262 0.0
C4080 C 0.086 0.49957 0.33606 0.0
C4081 C 0.08012 0.48011 0.33509 0.0
C4082 C 0.08326 0.47071 0.3507 0.0
C4083 C 0.09225 0.48078 0.36732 0.0
C4084 C 0.09829 0.50024 0.36831 0.0
C4085 C 0.07182 0.58421 0.38963 0.0
C4086 C 0.07695 0.58188 0.40826 0.0
C4087 C 0.08162 0.57977 0.37628 0.0
C4088 C 0.09654 0.57306 0.38157 0.0
C4089 C 0.10269 0.57289 0.40035 0.0
C4090 C 0.093 0.57746 0.41368 0.0
C4091 C 0.10296 0.56181 0.36784 0.0
C4092 C 0.09766 0.54223 0.36707 0.0
C4093 C 0.11296 0.56988 0.35497 0.0
C4094 C 0.1187 0.59052 0.35531 0.0
C4095 C 0.12779 0.60151 0.37158 0.0
C4096 C 0.13322 0.62096 0.37175 0.0
C4097 C 0.12976 0.62958 0.35568 0.0
C4098 C 0.12088 0.61875 0.3394 0.0
C4099 C 0.11538 0.59929 0.33918 0.0
H4100 H 0.13401 0.64464 0.35582 0.0
H4101 H 0.07867 0.45564 0.34994 0.0
H4102 H 0.79024 0.86185 0.57052 0.0
H4103 H 0.78489 0.84426 0.59708 0.0
H4104 H 0.80578 0.89491 0.63414 0.0
H4105 H 0.81106 0.9126 0.60755 0.0
H4106 H 0.81872 0.86641 0.64651 0.0
H4107 H 0.76191 0.87468 0.62485 0.0
H4108 H 0.73533 0.87246 0.60278 0.0
H4109 H 0.72783 0.81223 0.59617 0.0
H4110 H 0.75453 0.81411 0.61797 0.0
H4111 H 0.79484 0.83376 0.73032 0.0
H4112 H 0.79857 0.85041 0.70288 0.0
H4113 H 0.77366 0.79952 0.66766 0.0
H4114 H 0.76969 0.78291 0.69515 0.0
H4115 H 0.76242 0.82723 0.65361 0.0
H4116 H 0.81858 0.81804 0.67394 0.0
H4117 H 0.84548 0.81911 0.69514 0.0
H4118 H 0.85467 0.87945 0.70286 0.0
H4119 H 0.82766 0.8787 0.68198 0.0
C4120 C 0.79371 0.86929 0.58433 0.0
C4121 C 0.80121 0.88871 0.58682 0.0
C4122 C 0.79049 0.85919 0.59957 0.0
C4123 C 0.79476 0.86815 0.61782 0.0
C4124 C 0.8023 0.88754 0.6203 0.0
C4125 C 0.80533 0.8977 0.60505 0.0
C4126 C 0.79215 0.85728 0.63432 0.0
C4127 C 0.80631 0.85811 0.64815 0.0
C4128 C 0.77615 0.84571 0.63634 0.0
C4129 C 0.76035 0.84456 0.62285 0.0
C4130 C 0.75472 0.86098 0.6185 0.0
C4131 C 0.7396 0.85978 0.60608 0.0
C4132 C 0.72992 0.84222 0.59803 0.0
C4133 C 0.73535 0.82582 0.60238 0.0
C4134 C 0.75049 0.82695 0.61476 0.0
C4135 C 0.79025 0.82606 0.71674 0.0
C4136 C 0.78205 0.8069 0.71504 0.0
C4137 C 0.79245 0.83561 0.70095 0.0
C4138 C 0.78662 0.82632 0.68293 0.0
C4139 C 0.77835 0.80717 0.68125 0.0
C4140 C 0.77616 0.7976 0.69705 0.0
C4141 C 0.789 0.83657 0.66595 0.0
C4142 C 0.77483 0.83556 0.65199 0.0
C4143 C 0.80504 0.84781 0.66365 0.0
C4144 C 0.82101 0.8483 0.67659 0.0
C4145 C 0.82624 0.83152 0.68034 0.0
C4146 C 0.84152 0.83207 0.69226 0.0
C4147 C 0.85175 0.84933 0.70038 0.0
C4148 C 0.84672 0.86608 0.6966 0.0
C4149 C 0.83142 0.8656 0.68474 0.0
H4150 H 0.86361 0.84972 0.70956 0.0
H4151 H 0.7182 0.84132 0.58845 0.0
H4152 H 0.7719 0.46827 0.52897 0.0
H4153 H 0.75033 0.48552 0.53687 0.0
H4154 H 0.74508 0.4556 0.58513 0.0
H4155 H 0.76547 0.437 0.57601 0.0
H4156 H 0.71635 0.45921 0.57447 0.0
H4157 H 0.76741 0.50671 0.5848 0.0
H4158 H 0.79438 0.52633 0.57848 0.0
H4159 H 0.76649 0.54576 0.53223 0.0
H4160 H 0.73941 0.52609 0.53813 0.0
H4161 H 0.66156 0.52355 0.59793 0.0
H4162 H 0.68577 0.50733 0.59969 0.0
H4163 H 0.69322 0.5204 0.54455 0.0
H4164 H 0.66968 0.53686 0.54296 0.0
H4165 H 0.72294 0.52685 0.566 0.0
H4166 H 0.67116 0.47573 0.55794 0.0
H4167 H 0.64579 0.45662 0.56819 0.0
H4168 H 0.67779 0.44565 0.61627 0.0
H4169 H 0.70326 0.46498 0.60651 0.0
C4170 C 0.76604 0.46532 0.5412 0.0
C4171 C 0.77027 0.45119 0.55177 0.0
C4172 C 0.75385 0.47545 0.54595 0.0
C4173 C 0.74622 0.47249 0.56202 0.0
C4174 C 0.75061 0.45835 0.57267 0.0
C4175 C 0.7623 0.44767 0.56746 0.0
C4176 C 0.73322 0.48354 0.56716 0.0
C4177 C 0.71805 0.4741 0.5729 0.0
C4178 C 0.73515 0.50309 0.56548 0.0
C4179 C 0.75142 0.51483 0.56183 0.0
C4180 C 0.76706 0.51508 0.57321 0.0
C4181 C 0.78236 0.52622 0.56971 0.0
C4182 C 0.78216 0.53725 0.55494 0.0
C4183 C 0.76664 0.5372 0.54366 0.0
C4184 C 0.75131 0.52608 0.54709 0.0
C4185 C 0.66845 0.52302 0.58624 0.0
C4186 C 0.66343 0.5313 0.57017 0.0
C4187 C 0.68221 0.5136 0.5872 0.0
C4188 C 0.69126 0.5123 0.57212 0.0
C4189 C 0.68647 0.52099 0.55635 0.0
C4190 C 0.67283 0.53031 0.55539 0.0
C4191 C 0.70589 0.50229 0.57231 0.0
C4192 C 0.72144 0.51201 0.56774 0.0
C4193 C 0.7045 0.4832 0.57569 0.0
C4194 C 0.68905 0.47205 0.58164 0.0
C4195 C 0.67274 0.46945 0.57081 0.0
C4196 C 0.65835 0.45854 0.57652 0.0
C4197 C 0.66018 0.45002 0.59291 0.0
C4198 C 0.67638 0.45234 0.60363 0.0
C4199 C 0.69078 0.46329 0.59803 0.0
H4200 H 0.64905 0.44161 0.59732 0.0
H4201 H 0.79402 0.54587 0.55225 0.0
H4202 H 0.23602 0.17136 0.54422 0.0
H4203 H 0.20752 0.15139 0.54451 0.0
H4204 H 0.19926 0.14296 0.4848 0.0
H4205 H 0.22812 0.16232 0.48456 0.0
H4206 H 0.1705 0.15166 0.4998 0.0
H4207 H 0.20779 0.10891 0.50665 0.0
H4208 H 0.23315 0.09779 0.52056 0.0
H4209 H 0.21403 0.09616 0.57252 0.0
H4210 H 0.18873 0.10774 0.55902 0.0
H4211 H 0.09612 0.07581 0.48757 0.0
H4212 H 0.12477 0.09525 0.48672 0.0
H4213 H 0.13547 0.10047 0.5464 0.0
H4214 H 0.10671 0.08112 0.5472 0.0
H4215 H 0.16328 0.09331 0.53115 0.0
H4216 H 0.12579 0.13619 0.52386 0.0
H4217 H 0.10134 0.14892 0.51007 0.0
H4218 H 0.12134 0.151 0.45861 0.0
H4219 H 0.14568 0.13781 0.47196 0.0
C4220 C 0.22812 0.16521 0.53116 0.0
C4221 C 0.23433 0.16836 0.51436 0.0
C4222 C 0.21183 0.15376 0.53133 0.0
C4223 C 0.20112 0.14556 0.51467 0.0
C4224 C 0.20721 0.14904 0.49785 0.0
C4225 C 0.22374 0.16004 0.49771 0.0
C4226 C 0.18368 0.1333 0.51484 0.0
C4227 C 0.16895 0.13875 0.50641 0.0
C4228 C 0.18148 0.11663 0.5238 0.0
C4229 C 0.19649 0.10941 0.53191 0.0
C4230 C 0.20908 0.10636 0.5211 0.0
C4231 C 0.22344 0.09997 0.5289 0.0
C4232 C 0.22523 0.09633 0.54743 0.0
C4233 C 0.21264 0.09903 0.55818 0.0
C4234 C 0.1983 0.10553 0.55047 0.0
C4235 C 0.10458 0.0812 0.5005 0.0
C4236 C 0.09913 0.07704 0.51746 0.0
C4237 C 0.12098 0.09235 0.50002 0.0
C4238 C 0.13243 0.09955 0.51651 0.0
C4239 C 0.12701 0.09516 0.53346 0.0
C4240 C 0.11052 0.08416 0.53394 0.0
C4241 C 0.14996 0.11165 0.51607 0.0
C4242 C 0.16476 0.10618 0.52448 0.0
C4243 C 0.15223 0.1283 0.50701 0.0
C4244 C 0.1374 0.13575 0.49882 0.0
C4245 C 0.12483 0.1391 0.50952 0.0
C4246 C 0.11102 0.14644 0.50179 0.0
C4247 C 0.10975 0.1507 0.48345 0.0
C4248 C 0.12229 0.14762 0.47279 0.0
C4249 C 0.13608 0.14018 0.48042 0.0
H4250 H 0.09907 0.15646 0.47751 0.0
H4251 H 0.23636 0.09136 0.55345 0.0
H4252 H 0.2154 0.03199 0.84558 0.0
H4253 H 0.22889 0.01088 0.82776 0.0
H4254 H 0.18394 0.99815 0.78545 0.0
H4255 H 0.17007 0.01816 0.80367 0.0
H4256 H 0.19531 0.9682 0.79014 0.0
H4257 H 0.22127 0.03084 0.77945 0.0
H4258 H 0.23525 0.06409 0.78936 0.0
H4259 H 0.27753 0.04703 0.82103 0.0
H4260 H 0.26376 0.01368 0.81134 0.0
H4261 H 0.24577 0.91974 0.73846 0.0
H4262 H 0.22843 0.94327 0.74445 0.0
H4263 H 0.26398 0.96592 0.79458 0.0
H4264 H 0.28127 0.943 0.78832 0.0
H4265 H 0.25446 0.99325 0.77798 0.0
H4266 H 0.2261 0.93096 0.79243 0.0
H4267 H 0.21056 0.89785 0.78522 0.0
H4268 H 0.17163 0.9145 0.74784 0.0
H4269 H 0.18711 0.94767 0.75461 0.0
C4270 C 0.2083 0.02423 0.83274 0.0
C4271 C 0.19172 0.02646 0.82606 0.0
C4272 C 0.21606 0.01248 0.82244 0.0
C4273 C 0.20755 0.00348 0.80506 0.0
C4274 C 0.19071 0.00508 0.79878 0.0
C4275 C 0.18278 0.01638 0.80929 0.0
C4276 C 0.21624 0.99241 0.79338 0.0
C4277 C 0.2081 0.97375 0.7871 0.0
C4278 C 0.23284 0.99979 0.7894 0.0
C4279 C 0.24149 0.01981 0.79467 0.0
C4280 C 0.23356 0.03421 0.7885 0.0
C4281 C 0.24144 0.05306 0.79409 0.0
C4282 C 0.25726 0.05767 0.80582 0.0
C4283 C 0.26529 0.04344 0.81191 0.0
C4284 C 0.2575 0.02456 0.80631 0.0
C4285 C 0.2499 0.93008 0.75048 0.0
C4286 C 0.26463 0.9298 0.76303 0.0
C4287 C 0.24005 0.94337 0.75393 0.0
C4288 C 0.24491 0.95617 0.77002 0.0
C4289 C 0.26008 0.95623 0.78204 0.0
C4290 C 0.26987 0.94314 0.77856 0.0
C4291 C 0.23386 0.96873 0.77553 0.0
C4292 C 0.24147 0.98782 0.78052 0.0
C4293 C 0.21676 0.96171 0.77834 0.0
C4294 C 0.20793 0.9417 0.77374 0.0
C4295 C 0.21436 0.92751 0.78247 0.0
C4296 C 0.20554 0.90875 0.77851 0.0
C4297 C 0.19016 0.90406 0.76601 0.0
C4298 C 0.18358 0.91813 0.75744 0.0
C4299 C 0.19239 0.93689 0.7613 0.0
H4300 H 0.18331 0.88954 0.76303 0.0
H4301 H 0.26331 0.07227 0.81019 0.0
H4302 H 0.3483 0.97082 0.01602 0.0
H4303 H 0.37662 0.99007 0.01421 0.0
H4304 H 0.3985 0.96816 0.06278 0.0
H4305 H 0.37017 0.94834 0.06435 0.0
H4306 H 0.40746 0.01005 0.06176 0.0
H4307 H 0.41048 0.95234 0.02906 0.0
H4308 H 0.40076 0.9238 0.00684 0.0
H4309 H 0.39597 0.95798 0.96199 0.0
H4310 H 0.40547 0.98668 0.98399 0.0
H4311 H 0.49424 0.04421 0.05153 0.0
H4312 H 0.4664 0.0276 0.0567 0.0
H4313 H 0.44482 0.03286 1.00053 0.0
H4314 H 0.47328 0.04872 0.99481 0.0
H4315 H 0.43598 0.99866 0.00725 0.0
H4316 H 0.43495 0.05746 0.04235 0.0
H4317 H 0.44629 0.0846 0.06607 0.0
H4318 H 0.44932 0.04726 0.10836 0.0
H4319 H 0.43806 0.01989 0.08488 0.0
C4320 C 0.35912 0.97018 0.02637 0.0
C4321 C 0.35708 0.95818 0.04035 0.0
C4322 C 0.37526 0.98112 0.02529 0.0
C4323 C 0.38956 0.98052 0.03838 0.0
C4324 C 0.38755 0.96881 0.0526 0.0
C4325 C 0.37144 0.95751 0.05344 0.0
C4326 C 0.40656 0.99205 0.03682 0.0
C4327 C 0.41387 0.00751 0.04999 0.0
C4328 C 0.41474 0.98876 0.0214 0.0
C4329 C 0.4085 0.97161 0.00815 0.0
C4330 C 0.40714 0.95374 0.01447 0.0
C4331 C 0.40173 0.93753 0.00192 0.0
C4332 C 0.39772 0.93904 0.98302 0.0
C4333 C 0.39905 0.95678 0.97662 0.0
C4334 C 0.40447 0.97303 0.98912 0.0
C4335 C 0.48359 0.04213 0.04025 0.0
C4336 C 0.48605 0.0477 0.02265 0.0
C4337 C 0.46753 0.03275 0.04335 0.0
C4338 C 0.45337 0.02918 0.02913 0.0
C4339 C 0.45558 0.03548 0.01174 0.0
C4340 C 0.47181 0.04459 0.00849 0.0
C4341 C 0.43681 0.01725 0.03187 0.0
C4342 C 0.4296 1.00149 0.01896 0.0
C4343 C 0.42892 0.0202 0.04773 0.0
C4344 C 0.4357 0.03664 0.06185 0.0
C4345 C 0.4381 0.05504 0.0567 0.0
C4346 C 0.44449 0.07046 0.0701 0.0
C4347 C 0.4485 0.06765 0.08871 0.0
C4348 C 0.44616 0.04941 0.09395 0.0
C4349 C 0.43973 0.03395 0.08061 0.0
H4350 H 0.45341 0.07961 0.09906 0.0
H4351 H 0.39366 0.92643 0.97339 0.0
H4352 H 0.92925 0.69588 0.81427 0.0
H4353 H 0.90653 0.71332 0.80557 0.0
H4354 H 0.88196 0.66889 0.76225 0.0
H4355 H 0.90422 0.65156 0.77088 0.0
H4356 H 0.88266 0.70478 0.75134 0.0
H4357 H 0.86608 0.66761 0.80033 0.0
H4358 H 0.87003 0.65654 0.83129 0.0
H4359 H 0.87718 0.71316 0.85677 0.0
H4360 H 0.8734 0.72455 0.82591 0.0
H4361 H 0.79912 0.72903 0.73767 0.0
H4362 H 0.82216 0.71109 0.74198 0.0
H4363 H 0.84571 0.74787 0.7918 0.0
H4364 H 0.82263 0.7649 0.78793 0.0
H4365 H 0.84492 0.71385 0.79802 0.0
H4366 H 0.86201 0.75158 0.74889 0.0
H4367 H 0.86059 0.7629 0.71793 0.0
H4368 H 0.85357 0.70627 0.69258 0.0
H4369 H 0.85486 0.69463 0.72338 0.0
C4370 C 0.91916 0.69014 0.8027 0.0
C4371 C 0.91834 0.67245 0.79328 0.0
C4372 C 0.90622 0.69997 0.79781 0.0
C4373 C 0.89263 0.69224 0.78335 0.0
C4374 C 0.89238 0.67505 0.77339 0.0
C4375 C 0.90505 0.66518 0.77841 0.0
C4376 C 0.87794 0.70124 0.7792 0.0
C4377 C 0.87431 0.70676 0.76146 0.0
C4378 C 0.86715 0.70365 0.79242 0.0
C4379 C 0.86967 0.69692 0.8109 0.0
C4380 C 0.86866 0.67769 0.81255 0.0
C4381 C 0.87081 0.67136 0.83007 0.0
C4382 C 0.87391 0.68415 0.84599 0.0
C4383 C 0.87481 0.70328 0.84443 0.0
C4384 C 0.87265 0.70968 0.82694 0.0
C4385 C 0.809 0.73272 0.74977 0.0
C4386 C 0.80904 0.74784 0.76279 0.0
C4387 C 0.82227 0.72282 0.75203 0.0
C4388 C 0.8357 0.72829 0.76714 0.0
C4389 C 0.83545 0.74332 0.78013 0.0
C4390 C 0.82221 0.75292 0.77802 0.0
C4391 C 0.84984 0.71821 0.77027 0.0
C4392 C 0.85326 0.7121 0.78782 0.0
C4393 C 0.86045 0.71541 0.75685 0.0
C4394 C 0.85824 0.72223 0.73837 0.0
C4395 C 0.85987 0.74153 0.73668 0.0
C4396 C 0.8592 0.74801 0.71918 0.0
C4397 C 0.85694 0.73531 0.7033 0.0
C4398 C 0.85527 0.71609 0.70488 0.0
C4399 C 0.85596 0.70954 0.72234 0.0
H4400 H 0.85654 0.74038 0.68978 0.0
H4401 H 0.87556 0.67922 0.85954 0.0
H4402 H 0.84581 0.70025 0.02214 0.0
H4403 H 0.87076 0.6868 0.03167 0.0
H4404 H 0.83705 0.63534 0.04045 0.0
H4405 H 0.81201 0.64889 0.03126 0.0
H4406 H 0.86391 0.64457 0.06783 0.0
H4407 H 0.85609 0.64044 1.00128 0.0
H4408 H 0.85372 0.65184 0.97041 0.0
H4409 H 0.90442 0.68682 0.9847 0.0
H4410 H 0.90691 0.676 0.01582 0.0
H4411 H 0.92066 0.58069 0.05888 0.0
H4412 H 0.89785 0.59837 0.05917 0.0
H4413 H 0.9334 0.64874 0.05105 0.0
H4414 H 0.9563 0.63127 0.051 0.0
H4415 H 0.90642 0.64159 0.02514 0.0
H4416 H 0.91548 0.64448 0.09082 0.0
H4417 H 0.91831 0.63341 0.12181 0.0
H4418 H 0.86648 0.60096 0.1097 0.0
H4419 H 0.86344 0.61153 0.07849 0.0
C4420 C 0.84369 0.68602 0.02599 0.0
C4421 C 0.82689 0.67552 0.02566 0.0
C4422 C 0.85798 0.67836 0.03147 0.0
C4423 C 0.85582 0.65995 0.03658 0.0
C4424 C 0.83907 0.64955 0.03655 0.0
C4425 C 0.82475 0.65724 0.03112 0.0
C4426 C 0.87095 0.65134 0.04143 0.0
C4427 C 0.87313 0.64373 0.05842 0.0
C4428 C 0.88329 0.65073 0.02945 0.0
C4429 C 0.88157 0.65762 0.01095 0.0
C4430 C 0.86663 0.65077 0.99792 0.0
C4431 C 0.86528 0.6571 0.98037 0.0
C4432 C 0.87889 0.6701 0.97561 0.0
C4433 C 0.89386 0.67682 0.98842 0.0
C4434 C 0.89523 0.67062 0.00602 0.0
C4435 C 0.92377 0.59565 0.0577 0.0
C4436 C 0.94028 0.60449 0.05461 0.0
C4437 C 0.91069 0.60576 0.05788 0.0
C4438 C 0.91388 0.62489 0.05507 0.0
C4439 C 0.9306 0.63397 0.05315 0.0
C4440 C 0.94366 0.62391 0.05299 0.0
C4441 C 0.89946 0.63479 0.05155 0.0
C4442 C 0.89734 0.64257 0.0347 0.0
C4443 C 0.88729 0.63556 0.06371 0.0
C4444 C 0.8893 0.62864 0.08222 0.0
C4445 C 0.90476 0.63477 0.09466 0.0
C4446 C 0.90639 0.62863 0.11229 0.0
C4447 C 0.8926 0.61645 0.11771 0.0
C4448 C 0.87716 0.61036 0.10548 0.0
C4449 C 0.87549 0.61641 0.08781 0.0
H4450 H 0.89386 0.61177 0.1314 0.0
H4451 H 0.87784 0.67491 0.96198 0.0
H4452 H 0.18503 0.14231 0.84778 0.0
H4453 H 0.20061 0.17255 0.83982 0.0
H4454 H 0.23116 0.14298 0.80893 0.0
H4455 H 0.21642 0.11324 0.81759 0.0
H4456 H 0.25037 0.16884 0.83407 0.0
H4457 H 0.20009 0.16374 0.78796 0.0
H4458 H 0.16942 0.16171 0.77625 0.0
H4459 H 0.17125 0.21435 0.80784 0.0
H4460 H 0.20185 0.21652 0.82 0.0
H4461 H 0.29648 0.23328 0.78407 0.0
H4462 H 0.27551 0.20706 0.79218 0.0
H4463 H 0.25289 0.24642 0.82247 0.0
H4464 H 0.27371 0.27261 0.81404 0.0
H4465 H 0.22875 0.21854 0.80145 0.0
H4466 H 0.28053 0.22316 0.84568 0.0
H4467 H 0.31124 0.22393 0.85611 0.0
H4468 H 0.30628 0.17011 0.82525 0.0
H4469 H 0.27564 0.16916 0.81447 0.0
C4470 C 0.19517 0.14247 0.83939 0.0
C4471 C 0.20004 0.12577 0.83374 0.0
C4472 C 0.20382 0.15958 0.83467 0.0
C4473 C 0.21697 0.15983 0.82386 0.0
C4474 C 0.22113 0.14298 0.81746 0.0
C4475 C 0.21288 0.12609 0.82257 0.0
C4476 C 0.22799 0.17753 0.82087 0.0
C4477 C 0.24564 0.17963 0.82677 0.0
C4478 C 0.22166 0.1918 0.812 0.0
C4479 C 0.20316 0.19015 0.80511 0.0
C4480 C 0.19388 0.17474 0.79262 0.0
C4481 C 0.17653 0.1736 0.78585 0.0
C4482 C 0.16837 0.18786 0.79135 0.0
C4483 C 0.17756 0.20329 0.80363 0.0
C4484 C 0.19489 0.20447 0.81048 0.0
C4485 C 0.28693 0.23617 0.79237 0.0
C4486 C 0.28642 0.25461 0.79849 0.0
C4487 C 0.27508 0.22134 0.79702 0.0
C4488 C 0.26292 0.22495 0.80811 0.0
C4489 C 0.26225 0.24349 0.81393 0.0
C4490 C 0.27404 0.25833 0.80914 0.0
C4491 C 0.25111 0.20927 0.81387 0.0
C4492 C 0.23338 0.20773 0.80881 0.0
C4493 C 0.25732 0.19522 0.8232 0.0
C4494 C 0.27586 0.19615 0.82921 0.0
C4495 C 0.28606 0.2116 0.84099 0.0
C4496 C 0.30343 0.21203 0.84699 0.0
C4497 C 0.31071 0.19709 0.84134 0.0
C4498 C 0.30065 0.18168 0.82962 0.0
C4499 C 0.28329 0.18118 0.82358 0.0
H4500 H 0.32415 0.19742 0.84606 0.0
H4501 H 0.15495 0.18698 0.78604 0.0
H4502 H 0.39841 0.08894 0.3055 0.0
H4503 H 0.38152 0.05712 0.30282 0.0
H4504 H 0.42566 0.03509 0.29184 0.0
H4505 H 0.44286 0.06733 0.29425 0.0
H4506 H 0.39497 0.02038 0.26695 0.0
H4507 H 0.41399 0.02919 0.33227 0.0
H4508 H 0.42066 0.04799 0.36282 0.0
H4509 H 0.36748 0.0506 0.36054 0.0
H4510 H 0.36052 0.03202 0.32989 0.0
H4511 H 0.34706 0.9297 0.27494 0.0
H4512 H 0.36612 0.95911 0.27208 0.0
H4513 H 0.33289 0.98956 0.29783 0.0
H4514 H 0.31477 0.95966 0.30261 0.0
H4515 H 0.36243 0.99812 0.31681 0.0
H4516 H 0.34385 0.99333 0.25033 0.0
H4517 H 0.33698 0.97632 0.21889 0.0
H4518 H 0.38867 0.96777 0.22262 0.0
H4519 H 0.3958 0.9846 0.25412 0.0
C4520 C 0.40458 0.07736 0.30257 0.0
C4521 C 0.42188 0.08043 0.3001 0.0
C4522 C 0.39497 0.05925 0.30118 0.0
C4523 C 0.40256 0.04399 0.29751 0.0
C4524 C 0.4198 0.04689 0.29488 0.0
C4525 C 0.4295 0.06516 0.29622 0.0
C4526 C 0.39182 0.02514 0.29552 0.0
C4527 C 0.38805 0.01517 0.27789 0.0
C4528 C 0.38275 0.01889 0.30983 0.0
C4529 C 0.38673 0.02915 0.32878 0.0
C4530 C 0.40371 0.03374 0.3383 0.0
C4531 C 0.40755 0.04439 0.35562 0.0
C4532 C 0.3945 0.05047 0.36362 0.0
C4533 C 0.37757 0.04583 0.35436 0.0
C4534 C 0.37366 0.03518 0.33703 0.0
C4535 C 0.3435 0.94274 0.27931 0.0
C4536 C 0.32989 0.94267 0.28943 0.0
C4537 C 0.35433 0.9596 0.27753 0.0
C4538 C 0.35101 0.97658 0.28487 0.0
C4539 C 0.33576 0.97653 0.29232 0.0
C4540 C 0.32528 0.95955 0.29479 0.0
C4541 C 0.36475 0.99365 0.28779 0.0
C4542 C 0.36929 0.00314 0.30578 0.0
C4543 C 0.37444 0.99955 0.27375 0.0
C4544 C 0.37032 0.99014 0.25456 0.0
C4545 C 0.35374 0.98781 0.24442 0.0
C4546 C 0.3498 0.97819 0.22661 0.0
C4547 C 0.36237 0.97095 0.21877 0.0
C4548 C 0.37895 0.9734 0.22869 0.0
C4549 C 0.38296 0.98303 0.24649 0.0
H4550 H 0.35927 0.96344 0.20501 0.0
H4551 H 0.3975 0.05879 0.37699 0.0
H4552 H 0.56616 0.36123 0.58898 0.0
H4553 H 0.56504 0.39097 0.57567 0.0
H4554 H 0.56885 0.4191 0.63049 0.0
H4555 H 0.56983 0.38952 0.64374 0.0
H4556 H 0.54503 0.42955 0.6092 0.0
H4557 H 0.60217 0.42549 0.60429 0.0
H4558 H 0.62589 0.41162 0.59558 0.0
H4559 H 0.60622 0.41101 0.53795 0.0
H4560 H 0.582 0.42427 0.54633 0.0
H4561 H 0.55847 0.52394 0.58688 0.0
H4562 H 0.56259 0.49438 0.59872 0.0
H4563 H 0.55496 0.46773 0.54272 0.0
H4564 H 0.55112 0.49762 0.53088 0.0
H4565 H 0.58111 0.45654 0.56395 0.0
H4566 H 0.52278 0.45985 0.57101 0.0
H4567 H 0.50066 0.47533 0.58165 0.0
H4568 H 0.52572 0.47952 0.63797 0.0
H4569 H 0.54811 0.46428 0.62759 0.0
C4570 C 0.56683 0.37377 0.59821 0.0
C4571 C 0.56802 0.37283 0.61749 0.0
C4572 C 0.56629 0.39088 0.59057 0.0
C4573 C 0.56694 0.40757 0.60198 0.0
C4574 C 0.56826 0.40659 0.62124 0.0
C4575 C 0.56886 0.38957 0.62886 0.0
C4576 C 0.56543 0.42582 0.59401 0.0
C4577 C 0.55313 0.43544 0.59947 0.0
C4578 C 0.57572 0.43374 0.58105 0.0
C4579 C 0.59012 0.42559 0.57594 0.0
C4580 C 0.60275 0.42215 0.58976 0.0
C4581 C 0.6163 0.41442 0.58488 0.0
C4582 C 0.61756 0.41042 0.56622 0.0
C4583 C 0.60522 0.41408 0.5524 0.0
C4584 C 0.59154 0.42164 0.5572 0.0
C4585 C 0.55742 0.51169 0.5771 0.0
C4586 C 0.55399 0.51298 0.55796 0.0
C4587 C 0.55983 0.49474 0.58388 0.0
C4588 C 0.55883 0.47848 0.57171 0.0
C4589 C 0.55571 0.47988 0.5525 0.0
C4590 C 0.5533 0.49693 0.54571 0.0
C4591 C 0.56065 0.46006 0.57913 0.0
C4592 C 0.573 0.45048 0.5736 0.0
C4593 C 0.55064 0.45225 0.59229 0.0
C4594 C 0.53711 0.46108 0.59853 0.0
C4595 C 0.52358 0.46416 0.58565 0.0
C4596 C 0.51102 0.47288 0.59163 0.0
C4597 C 0.5118 0.47844 0.61047 0.0
C4598 C 0.52513 0.47522 0.62338 0.0
C4599 C 0.53775 0.46653 0.61746 0.0
H4600 H 0.50206 0.48521 0.61508 0.0
H4601 H 0.62812 0.40452 0.56248 0.0
H4602 H 0.47314 0.82388 0.40896 0.0
H4603 H 0.44573 0.8294 0.39414 0.0
H4604 H 0.44306 0.78437 0.35136 0.0
H4605 H 0.47117 0.77973 0.36561 0.0
H4606 H 0.43267 0.80931 0.33533 0.0
H4607 H 0.41763 0.78534 0.3926 0.0
H4608 H 0.419 0.78546 0.42647 0.0
H4609 H 0.40702 0.84028 0.43008 0.0
H4610 H 0.40585 0.84061 0.39629 0.0
H4611 H 0.34656 0.78528 0.29665 0.0
H4612 H 0.37442 0.78758 0.31509 0.0
H4613 H 0.36962 0.83892 0.34515 0.0
H4614 H 0.34087 0.83642 0.32652 0.0
H4615 H 0.38433 0.81659 0.36883 0.0
H4616 H 0.39751 0.84047 0.31295 0.0
H4617 H 0.39548 0.84157 0.27917 0.0
H4618 H 0.41111 0.78873 0.27349 0.0
H4619 H 0.41305 0.78722 0.30722 0.0
C4620 C 0.4667 0.81507 0.39641 0.0
C4621 C 0.47447 0.80125 0.38858 0.0
C4622 C 0.45078 0.81814 0.38797 0.0
C4623 C 0.4417 0.80708 0.37166 0.0
C4624 C 0.44951 0.79322 0.36388 0.0
C4625 C 0.46567 0.79046 0.37209 0.0
C4626 C 0.42459 0.81028 0.36216 0.0
C4627 C 0.42212 0.81058 0.34281 0.0
C4628 C 0.41076 0.81315 0.37163 0.0
C4629 C 0.41184 0.81307 0.39196 0.0
C4630 C 0.41545 0.79749 0.40065 0.0
C4631 C 0.41617 0.79747 0.41983 0.0
C4632 C 0.41314 0.81288 0.43042 0.0
C4633 C 0.4094 0.82837 0.42187 0.0
C4634 C 0.40872 0.82848 0.40271 0.0
C4635 C 0.35129 0.79721 0.30709 0.0
C4636 C 0.34132 0.81075 0.30981 0.0
C4637 C 0.36744 0.79853 0.31769 0.0
C4638 C 0.37456 0.81359 0.33145 0.0
C4639 C 0.3646 0.82716 0.33458 0.0
C4640 C 0.34818 0.82582 0.32381 0.0
C4641 C 0.39238 0.81466 0.34208 0.0
C4642 C 0.39499 0.81532 0.36151 0.0
C4643 C 0.40647 0.81286 0.33281 0.0
C4644 C 0.40535 0.81371 0.31256 0.0
C4645 C 0.40042 0.82904 0.30447 0.0
C4646 C 0.3993 0.82975 0.28534 0.0
C4647 C 0.40315 0.81522 0.27419 0.0
C4648 C 0.40814 0.79997 0.28215 0.0
C4649 C 0.40929 0.7992 0.30127 0.0
H4650 H 0.40228 0.8158 0.25938 0.0
H4651 H 0.41365 0.81281 0.44526 0.0
H4652 H 0.0638 0.77182 0.08913 0.0
H4653 H 0.05948 0.73874 0.07665 0.0
H4654 H 0.05121 0.72151 0.13033 0.0
H4655 H 0.05602 0.75439 0.14289 0.0
H4656 H 0.07061 0.702 0.11821 0.0
H4657 H 0.01783 0.71467 0.09196 0.0
H4658 H 0.99691 0.73008 0.07474 0.0
H4659 H 0.01763 0.71992 0.02478 0.0
H4660 H 0.03887 0.70471 0.04178 0.0
H4661 H 0.04015 0.60471 0.08307 0.0
H4662 H 0.04125 0.63701 0.09611 0.0
H4663 H 0.06137 0.65811 0.04829 0.0
H4664 H 0.06037 0.62567 0.03533 0.0
H4665 H 0.03422 0.67431 0.0584 0.0
H4666 H 0.08787 0.66128 0.08846 0.0
H4667 H 0.10349 0.64105 0.10645 0.0
H4668 H 0.07534 0.64853 0.15132 0.0
H4669 H 0.05935 0.66857 0.13342 0.0
C4670 C 0.06099 0.76096 0.09822 0.0
C4671 C 0.06037 0.7658 0.11703 0.0
C4672 C 0.05839 0.742 0.09105 0.0
C4673 C 0.05486 0.72744 0.10246 0.0
C4674 C 0.05398 0.73233 0.12118 0.0
C4675 C 0.05672 0.75122 0.12836 0.0
C4676 C 0.05295 0.70722 0.0952 0.0
C4677 C 0.06246 0.69602 0.10521 0.0
C4678 C 0.04233 0.69904 0.07829 0.0
C4679 C 0.0301 0.70885 0.0682 0.0
C4680 C 0.01809 0.71598 0.07736 0.0
C4681 C 0.00613 0.72461 0.06763 0.0
C4682 C 0.00599 0.72606 0.0487 0.0
C4683 C 0.0178 0.71886 0.03946 0.0
C4684 C 0.0298 0.71025 0.04913 0.0
C4685 C 0.04509 0.61632 0.07556 0.0
C4686 C 0.05058 0.6129 0.05847 0.0
C4687 C 0.04563 0.63472 0.08294 0.0
C4688 C 0.05152 0.65001 0.07325 0.0
C4689 C 0.05687 0.64653 0.05605 0.0
C4690 C 0.05651 0.62809 0.04876 0.0
C4691 C 0.05224 0.66963 0.08111 0.0
C4692 C 0.0424 0.68055 0.07131 0.0
C4693 C 0.06213 0.67738 0.09844 0.0
C4694 C 0.0724 0.66631 0.1096 0.0
C4695 C 0.08503 0.65859 0.10217 0.0
C4696 C 0.09391 0.64714 0.11232 0.0
C4697 C 0.09039 0.64348 0.13001 0.0
C4698 C 0.07805 0.65137 0.13762 0.0
C4699 C 0.06909 0.6628 0.12749 0.0
H4700 H 0.09724 0.63454 0.13783 0.0
H4701 H 0.99669 0.7327 0.04117 0.0
H4702 H 0.08291 0.28928 0.91382 0.0
H4703 H 0.11094 0.29456 0.90341 0.0
H4704 H 0.09359 0.33043 0.86402 0.0
H4705 H 0.06513 0.32408 0.87367 0.0
H4706 H 0.10954 0.31137 0.84753 0.0
H4707 H 0.12604 0.3456 0.90768 0.0
H4708 H 0.12902 0.35135 0.94171 0.0
H4709 H 0.15719 0.3074 0.94763 0.0
H4710 H 0.15422 0.30124 0.91364 0.0
H4711 H 0.1896 0.33635 0.8176 0.0
H4712 H 0.16534 0.33889 0.83325 0.0
H4713 H 0.17913 0.29962 0.87058 0.0
H4714 H 0.20465 0.29849 0.85627 0.0
H4715 H 0.16566 0.32272 0.88884 0.0
H4716 H 0.14681 0.28822 0.8275 0.0
H4717 H 0.14381 0.28419 0.79337 0.0
H4718 H 0.11968 0.3316 0.79032 0.0
H4719 H 0.1228 0.33607 0.82442 0.0
C4720 C 0.08505 0.29826 0.90289 0.0
C4721 C 0.07164 0.30606 0.89444 0.0
C4722 C 0.10128 0.30154 0.89709 0.0
C4723 C 0.10483 0.31324 0.88305 0.0
C4724 C 0.09143 0.32128 0.87482 0.0
C4725 C 0.07505 0.31763 0.88031 0.0
C4726 C 0.12189 0.31597 0.87596 0.0
C4727 C 0.12177 0.31426 0.85671 0.0
C4728 C 0.13812 0.31931 0.88766 0.0
C4729 C 0.13975 0.32283 0.9081 0.0
C4730 C 0.13274 0.33705 0.91623 0.0
C4731 C 0.13446 0.34041 0.93552 0.0
C4732 C 0.14325 0.32971 0.94682 0.0
C4733 C 0.15037 0.31566 0.93886 0.0
C4734 C 0.14868 0.31224 0.91959 0.0
C4735 C 0.18795 0.32856 0.82943 0.0
C4736 C 0.19934 0.31693 0.83525 0.0
C4737 C 0.17367 0.32978 0.83824 0.0
C4738 C 0.16976 0.31887 0.85274 0.0
C4739 C 0.1815 0.30798 0.85924 0.0
C4740 C 0.19608 0.30711 0.85074 0.0
C4741 C 0.15314 0.31807 0.86047 0.0
C4742 C 0.15337 0.32005 0.87979 0.0
C4743 C 0.13696 0.31526 0.84889 0.0
C4744 C 0.13519 0.31257 0.82845 0.0
C4745 C 0.14097 0.29784 0.81952 0.0
C4746 C 0.13925 0.29549 0.8002 0.0
C4747 C 0.1316 0.30766 0.78968 0.0
C4748 C 0.12564 0.32221 0.79847 0.0
C4749 C 0.12739 0.32466 0.81778 0.0
H4750 H 0.13025 0.30579 0.77472 0.0
H4751 H 0.14457 0.33234 0.96175 0.0
H4752 H 0.53922 0.75617 0.95962 0.0
H4753 H 0.54016 0.72557 0.97089 0.0
H4754 H 0.51189 0.69747 0.91863 0.0
H4755 H 0.51028 0.7281 0.90766 0.0
H4756 H 0.50161 0.67639 0.94314 0.0
H4757 H 0.55747 0.70089 0.93146 0.0
H4758 H 0.58374 0.72532 0.9322 0.0
H4759 H 0.59354 0.72817 0.99159 0.0
H4760 H 0.56719 0.70384 0.99118 0.0
H4761 H 0.52685 0.58862 0.96403 0.0
H4762 H 0.52308 0.61738 0.94998 0.0
H4763 H 0.54329 0.65029 0.00256 0.0
H4764 H 0.54692 0.62175 0.01663 0.0
H4765 H 0.5575 0.66753 0.97519 0.0
H4766 H 0.49917 0.63989 0.98378 0.0
H4767 H 0.47293 0.61475 0.97927 0.0
H4768 H 0.46874 0.61567 0.92029 0.0
H4769 H 0.49509 0.64069 0.92446 0.0
C4770 C 0.53313 0.74351 0.95052 0.0
C4771 C 0.52474 0.74487 0.93265 0.0
C4772 C 0.53377 0.72583 0.95694 0.0
C4773 C 0.52643 0.70874 0.94561 0.0
C4774 C 0.51774 0.71012 0.92785 0.0
C4775 C 0.51688 0.72781 0.92152 0.0
C4776 C 0.52826 0.68973 0.95216 0.0
C4777 C 0.51392 0.6745 0.94994 0.0
C4778 C 0.54421 0.68661 0.96093 0.0
C4779 C 0.56037 0.70065 0.96131 0.0
C4780 C 0.56524 0.70675 0.94468 0.0
C4781 C 0.58012 0.72058 0.94503 0.0
C4782 C 0.59029 0.72831 0.96194 0.0
C4783 C 0.58564 0.72215 0.97851 0.0
C4784 C 0.57077 0.70831 0.97823 0.0
C4785 C 0.53042 0.60195 0.97267 0.0
C4786 C 0.53713 0.60258 0.99162 0.0
C4787 C 0.52819 0.61851 0.96458 0.0
C4788 C 0.53276 0.63634 0.97511 0.0
C4789 C 0.53959 0.63694 0.99396 0.0
C4790 C 0.5416 0.62043 0.00208 0.0
C4791 C 0.53077 0.65441 0.96669 0.0
C4792 C 0.54517 0.66944 0.96843 0.0
C4793 C 0.51498 0.65704 0.95695 0.0
C4794 C 0.49917 0.64204 0.95443 0.0
C4795 C 0.49272 0.63463 0.96985 0.0
C4796 C 0.47781 0.62043 0.96735 0.0
C4797 C 0.46919 0.61359 0.9495 0.0
C4798 C 0.47544 0.62097 0.93411 0.0
C4799 C 0.49035 0.63518 0.93653 0.0
H4800 H 0.45764 0.60261 0.94761 0.0
H4801 H 0.60179 0.73907 0.9622 0.0
H4802 H 0.12829 0.85273 0.67136 0.0
H4803 H 0.15708 0.85397 0.68826 0.0
H4804 H 0.13985 0.79773 0.70278 0.0
H4805 H 0.11079 0.79735 0.68741 0.0
H4806 H 0.15798 0.81576 0.73066 0.0
H4807 H 0.16731 0.81411 0.66568 0.0
H4808 H 0.16896 0.82586 0.63513 0.0
H4809 H 0.20338 0.87685 0.66101 0.0
H4810 H 0.20168 0.86557 0.6917 0.0
H4811 H 0.23999 0.79158 0.75377 0.0
H4812 H 0.21138 0.79318 0.73796 0.0
H4813 H 0.22784 0.85325 0.73848 0.0
H4814 H 0.25604 0.85197 0.75435 0.0
H4815 H 0.21144 0.8354 0.70391 0.0
H4816 H 0.20325 0.83951 0.76685 0.0
H4817 H 0.20508 0.82948 0.7983 0.0
H4818 H 0.17055 0.7769 0.77726 0.0
H4819 H 0.16882 0.78648 0.74558 0.0
C4820 C 0.13074 0.84072 0.67828 0.0
C4821 C 0.11739 0.82498 0.67823 0.0
C4822 C 0.14726 0.84131 0.68775 0.0
C4823 C 0.15092 0.82577 0.69655 0.0
C4824 C 0.13749 0.80997 0.69623 0.0
C4825 C 0.12086 0.80971 0.68743 0.0
C4826 C 0.16839 0.82595 0.70674 0.0
C4827 C 0.16956 0.81976 0.72452 0.0
C4828 C 0.18383 0.83208 0.6994 0.0
C4829 C 0.18417 0.83908 0.68098 0.0
C4830 C 0.17505 0.82792 0.66486 0.0
C4831 C 0.17603 0.83449 0.64752 0.0
C4832 C 0.18623 0.85211 0.64613 0.0
C4833 C 0.19544 0.86323 0.66209 0.0
C4834 C 0.19444 0.85677 0.67945 0.0
C4835 C 0.23743 0.80513 0.75074 0.0
C4836 C 0.25032 0.82161 0.7554 0.0
C4837 C 0.22114 0.80602 0.74164 0.0
C4838 C 0.21762 0.82334 0.73699 0.0
C4839 C 0.23037 0.83975 0.74182 0.0
C4840 C 0.24648 0.83894 0.75104 0.0
C4841 C 0.20061 0.82452 0.72711 0.0
C4842 C 0.19967 0.83121 0.7097 0.0
C4843 C 0.18546 0.8192 0.73482 0.0
C4844 C 0.18603 0.81362 0.75386 0.0
C4845 C 0.19614 0.82575 0.76892 0.0
C4846 C 0.19716 0.82016 0.78678 0.0
C4847 C 0.18797 0.80254 0.78977 0.0
C4848 C 0.17768 0.79052 0.77491 0.0
C4849 C 0.17668 0.79603 0.757 0.0
H4850 H 0.18878 0.79822 0.80361 0.0
H4851 H 0.18703 0.85712 0.63268 0.0
H4852 H 0.01013 0.36086 0.40767 0.0
H4853 H 0.01018 0.39318 0.41937 0.0
H4854 H 0.04455 0.38808 0.46847 0.0
H4855 H 0.04344 0.35527 0.45726 0.0
H4856 H 0.02539 0.40639 0.47985 0.0
H4857 H 0.05285 0.41562 0.42474 0.0
H4858 H 0.05506 0.41379 0.3914 0.0
H4859 H 0.01117 0.4389 0.38075 0.0
H4860 H 0.00852 0.44057 0.41394 0.0
H4861 H 0.05717 0.49998 0.51659 0.0
H4862 H 0.05272 0.46873 0.50049 0.0
H4863 H 0.01527 0.48237 0.45868 0.0
H4864 H 0.02025 0.51457 0.47482 0.0
H4865 H 0.03175 0.46011 0.44206 0.0
H4866 H 1.00425 0.45235 0.49509 0.0
H4867 H 1.00056 0.45524 0.528 0.0
H4868 H 0.0423 0.42751 0.54178 0.0
H4869 H 0.04636 0.42467 0.509 0.0
C4870 C 0.01773 0.3666 0.42099 0.0
C4871 C 0.0268 0.35518 0.43144 0.0
C4872 C 0.01793 0.38541 0.42766 0.0
C4873 C 0.02772 0.3939 0.44484 0.0
C4874 C 0.0368 0.38238 0.45522 0.0
C4875 C 0.03623 0.36341 0.44876 0.0
C4876 C 0.0281 0.41422 0.45252 0.0
C4877 C 0.02715 0.41804 0.47146 0.0
C4878 C 0.02925 0.42989 0.4418 0.0
C4879 C 0.03037 0.42798 0.42177 0.0
C4880 C 0.04355 0.42051 0.41524 0.0
C4881 C 0.0449 0.41955 0.39638 0.0
C4882 C 0.03324 0.42618 0.38396 0.0
C4883 C 0.02016 0.43372 0.39036 0.0
C4884 C 0.01871 0.43464 0.40918 0.0
C4885 C 0.04803 0.49657 0.50387 0.0
C4886 C 0.03915 0.51013 0.49716 0.0
C4887 C 0.04531 0.47835 0.49468 0.0
C4888 C 0.03321 0.47246 0.47846 0.0
C4889 C 0.0246 0.48616 0.47122 0.0
C4890 C 0.02751 0.50473 0.48044 0.0
C4891 C 0.02994 0.45215 0.46944 0.0
C4892 C 0.03014 0.44837 0.45034 0.0
C4893 C 0.02786 0.4364 0.47989 0.0
C4894 C 0.02568 0.43843 0.49964 0.0
C4895 C 0.01272 0.44702 0.50518 0.0
C4896 C 0.01055 0.44861 0.5238 0.0
C4897 C 0.02121 0.44159 0.53698 0.0
C4898 C 0.03406 0.43296 0.53157 0.0
C4899 C 0.03629 0.43133 0.51297 0.0
H4900 H 0.01948 0.44281 0.55139 0.0
H4901 H 0.03437 0.42552 0.36938 0.0
H4902 H 0.54101 0.32993 0.20483 0.0
H4903 H 0.51598 0.32719 0.22111 0.0
H4904 H 0.48266 0.30241 0.17026 0.0
H4905 H 0.50744 0.30551 0.15397 0.0
H4906 H 0.46961 0.32785 0.1856 0.0
H4907 H 0.49238 0.27634 0.20767 0.0
H4908 H 0.51479 0.26119 0.22243 0.0
H4909 H 0.51939 0.29704 0.27299 0.0
H4910 H 0.49713 0.31256 0.25843 0.0
H4911 H 0.39223 0.29228 0.21852 0.0
H4912 H 0.41943 0.29243 0.20721 0.0
H4913 H 0.44673 0.32852 0.25582 0.0
H4914 H 0.41956 0.3295 0.26684 0.0
H4915 H 0.46354 0.29811 0.24371 0.0
H4916 H 0.44079 0.3495 0.22089 0.0
H4917 H 0.4186 0.36457 0.20555 0.0
H4918 H 0.41428 0.3279 0.15558 0.0
H4919 H 0.43627 0.31241 0.17077 0.0
C4920 C 0.52834 0.3239 0.19715 0.0
C4921 C 0.52623 0.31806 0.17805 0.0
C4922 C 0.51402 0.32218 0.20651 0.0
C4923 C 0.49734 0.31443 0.197 0.0
C4924 C 0.49533 0.30846 0.17797 0.0
C4925 C 0.50955 0.31024 0.16864 0.0
C4926 C 0.48178 0.31339 0.20637 0.0
C4927 C 0.46829 0.32107 0.19816 0.0
C4928 C 0.48004 0.30508 0.22309 0.0
C4929 C 0.49327 0.29573 0.23192 0.0
C4930 C 0.49827 0.28107 0.2219 0.0
C4931 C 0.51092 0.27241 0.23023 0.0
C4932 C 0.51855 0.27819 0.24862 0.0
C4933 C 0.51349 0.2926 0.25874 0.0
C4934 C 0.50085 0.30133 0.25046 0.0
C4935 C 0.40391 0.30044 0.22684 0.0
C4936 C 0.40339 0.31111 0.24357 0.0
C4937 C 0.41954 0.30029 0.22041 0.0
C4938 C 0.43514 0.31053 0.23063 0.0
C4939 C 0.43487 0.32041 0.24774 0.0
C4940 C 0.41921 0.32087 0.25406 0.0
C4941 C 0.45142 0.3122 0.22261 0.0
C4942 C 0.46498 0.30479 0.23112 0.0
C4943 C 0.45328 0.32063 0.20606 0.0
C4944 C 0.43996 0.32969 0.197 0.0
C4945 C 0.43495 0.34453 0.2067 0.0
C4946 C 0.42245 0.35317 0.19803 0.0
C4947 C 0.41499 0.34716 0.17962 0.0
C4948 C 0.42003 0.33251 0.16985 0.0
C4949 C 0.43251 0.3238 0.17848 0.0
H4950 H 0.40534 0.3539 0.17291 0.0
H4951 H 0.52836 0.27148 0.25505 0.0
H4952 H 0.62283 0.56745 0.36597 0.0
H4953 H 0.60737 0.57029 0.39197 0.0
H4954 H 0.65558 0.58748 0.42925 0.0
H4955 H 0.67126 0.58424 0.40319 0.0
H4956 H 0.63446 0.55886 0.43995 0.0
H4957 H 0.63042 0.61846 0.42083 0.0
H4958 H 0.6252 0.64086 0.39831 0.0
H4959 H 0.57205 0.61258 0.3853 0.0
H4960 H 0.57703 0.58973 0.40744 0.0
H4961 H 0.58877 0.58143 0.51335 0.0
H4962 H 0.60753 0.58458 0.48993 0.0
H4963 H 0.5663 0.55128 0.4496 0.0
H4964 H 0.54793 0.54623 0.47384 0.0
H4965 H 0.58594 0.59127 0.44269 0.0
H4966 H 0.59143 0.53001 0.45973 0.0
H4967 H 0.59773 0.50635 0.48033 0.0
H4968 H 0.64963 0.53788 0.49626 0.0
H4969 H 0.64344 0.56212 0.47624 0.0
C4970 C 0.63014 0.57191 0.37969 0.0
C4971 C 0.64817 0.57538 0.38274 0.0
C4972 C 0.62132 0.57378 0.39445 0.0
C4973 C 0.63043 0.57937 0.41234 0.0
C4974 C 0.64845 0.58329 0.41541 0.0
C4975 C 0.65732 0.5813 0.40062 0.0
C4976 C 0.62097 0.57885 0.42799 0.0
C4977 C 0.62413 0.56631 0.44087 0.0
C4978 C 0.6073 0.58828 0.42868 0.0
C4979 C 0.60412 0.60233 0.41576 0.0
C4980 C 0.61764 0.61695 0.4131 0.0
C4981 C 0.61473 0.62973 0.40039 0.0
C4982 C 0.59831 0.62813 0.39037 0.0
C4983 C 0.58476 0.6138 0.39308 0.0
C4984 C 0.58761 0.60094 0.40573 0.0
C4985 C 0.58403 0.57385 0.49984 0.0
C4986 C 0.56735 0.56266 0.49564 0.0
C4987 C 0.59458 0.57608 0.48639 0.0
C4988 C 0.58821 0.56794 0.46832 0.0
C4989 C 0.57133 0.55736 0.46372 0.0
C4990 C 0.56098 0.5544 0.47748 0.0
C4991 C 0.59928 0.57098 0.45424 0.0
C4992 C 0.59647 0.5841 0.44185 0.0
C4993 C 0.61338 0.56219 0.45404 0.0
C4994 C 0.61684 0.54811 0.4668 0.0
C4995 C 0.60405 0.53217 0.46797 0.0
C4996 C 0.60764 0.51859 0.47948 0.0
C4997 C 0.62405 0.52066 0.48968 0.0
C4998 C 0.6369 0.53635 0.48844 0.0
C4999 C 0.63333 0.55005 0.47707 0.0
H5000 H 0.62683 0.51005 0.49848 0.0
H5001 H 0.59608 0.63803 0.38051 0.0
H5002 H 0.28725 0.87933 0.08564 0.0
H5003 H 0.28699 0.87002 0.11714 0.0
H5004 H 0.33379 0.91134 0.13644 0.0
H5005 H 0.33401 0.92078 0.10506 0.0
H5006 H 0.33596 0.87959 0.15179 0.0
H5007 H 0.29626 0.91914 0.14918 0.0
H5008 H 0.27148 0.93304 0.13881 0.0
H5009 H 0.23696 0.88016 0.14037 0.0
H5010 H 0.26158 0.86592 0.1506 0.0
H5011 H 0.32507 0.86904 0.24813 0.0
H5012 H 0.32809 0.88291 0.21881 0.0
H5013 H 0.28673 0.83877 0.1902 0.0
H5014 H 0.28396 0.82469 0.21916 0.0
H5015 H 0.28367 0.8754 0.18167 0.0
H5016 H 0.32619 0.83673 0.18478 0.0
H5017 H 0.35148 0.82689 0.20078 0.0
H5018 H 0.38175 0.88282 0.20234 0.0
H5019 H 0.35651 0.89305 0.18657 0.0
C5020 C 0.29754 0.88637 0.09654 0.0
C5021 C 0.31069 0.90074 0.09262 0.0
C5022 C 0.29733 0.88113 0.11467 0.0
C5023 C 0.31032 0.88999 0.12944 0.0
C5024 C 0.3236 0.90417 0.12547 0.0
C5025 C 0.3237 0.90957 0.10742 0.0
C5026 C 0.31009 0.88429 0.14883 0.0
C5027 C 0.32454 0.87893 0.15832 0.0
C5028 C 0.29541 0.88341 0.1578 0.0
C5029 C 0.28073 0.89142 0.15033 0.0
C5030 C 0.28339 0.91041 0.14698 0.0
C5031 C 0.26938 0.91837 0.14125 0.0
C5032 C 0.25266 0.90747 0.13886 0.0
C5033 C 0.24992 0.88857 0.14216 0.0
C5034 C 0.26389 0.88055 0.14792 0.0
C5035 C 0.31669 0.86227 0.23556 0.0
C5036 C 0.30441 0.84562 0.236 0.0
C5037 C 0.31844 0.87019 0.21879 0.0
C5038 C 0.30768 0.86187 0.20217 0.0
C5039 C 0.29523 0.84546 0.20273 0.0
C5040 C 0.29374 0.83734 0.21933 0.0
C5041 C 0.30916 0.8701 0.18413 0.0
C5042 C 0.29501 0.87605 0.17501 0.0
C5043 C 0.32421 0.87186 0.17575 0.0
C5044 C 0.33949 0.86566 0.18462 0.0
C5045 C 0.33824 0.84693 0.1886 0.0
C5046 C 0.35254 0.8413 0.19763 0.0
C5047 C 0.36821 0.85423 0.2026 0.0
C5048 C 0.3696 0.87283 0.19848 0.0
C5049 C 0.35531 0.87855 0.18948 0.0
H5050 H 0.37927 0.84985 0.20962 0.0
H5051 H 0.24181 0.91369 0.13451 0.0
H5052 H 0.99751 0.62763 0.85136 0.0
H5053 H 0.00675 0.61141 0.87777 0.0
H5054 H 0.95581 0.60365 0.89266 0.0
H5055 H 0.9467 0.62029 0.86678 0.0
H5056 H 0.97785 0.61513 0.92193 0.0
H5057 H 0.97119 0.56551 0.87383 0.0
H5058 H 0.9745 0.54857 0.84453 0.0
H5059 H 0.02925 0.55971 0.86134 0.0
H5060 H 0.02628 0.57685 0.89066 0.0
H5061 H 1.00331 0.55624 0.99163 0.0
H5062 H 0.98753 0.56497 0.96358 0.0
H5063 H 0.03572 0.58845 0.94601 0.0
H5064 H 0.05139 0.58084 0.97439 0.0
H5065 H 0.01082 0.56469 0.91788 0.0
H5066 H 0.01623 0.61671 0.96537 0.0
H5067 H 0.0116 0.63214 0.99484 0.0
H5068 H 0.95689 0.61466 0.97851 0.0
H5069 H 0.96122 0.59879 0.94908 0.0
C5070 C 0.98838 0.62271 0.86045 0.0
C5071 C 0.9715 0.62561 0.85721 0.0
C5072 C 0.99358 0.61314 0.87534 0.0
C5073 C 0.9819 0.60606 0.88708 0.0
C5074 C 0.96506 0.60898 0.88384 0.0
C5075 C 0.95992 0.61868 0.86911 0.0
C5076 C 0.98755 0.59678 0.90349 0.0
C5077 C 0.98473 0.60381 0.92093 0.0
C5078 C 0.99662 0.58208 0.90233 0.0
C5079 C 0.99852 0.5726 0.88435 0.0
C5080 C 0.98395 0.56455 0.87117 0.0
C5081 C 0.98576 0.55484 0.85459 0.0
C5082 C 1.00208 0.55309 0.85106 0.0
C5083 C 0.01662 0.56108 0.86408 0.0
C5084 C 0.01488 0.57077 0.88068 0.0
C5085 C 0.01046 0.56346 0.98188 0.0
C5086 C 0.02853 0.5683 0.98537 0.0
C5087 C 1.00147 0.5683 0.96583 0.0
C5088 C 0.01051 0.57743 0.95282 0.0
C5089 C 0.02854 0.58148 0.95594 0.0
C5090 C 0.03746 0.5772 0.97218 0.0
C5091 C 1.00145 0.58341 0.93611 0.0
C5092 C 1.00363 0.57576 0.91869 0.0
C5093 C 0.9916 0.59736 0.93724 0.0
C5094 C 0.98905 0.60629 0.95519 0.0
C5095 C 1.00322 0.61589 0.9682 0.0
C5096 C 1.00065 0.62477 0.98486 0.0
C5097 C 0.98397 0.62431 0.98858 0.0
C5098 C 0.96981 0.61494 0.97565 0.0
C5099 C 0.97232 0.60598 0.95899 0.0
H5100 H 0.982 0.63126 1.00146 0.0
H5101 H 1.00345 0.54552 0.83825 0.0
H5102 H 0.30139 0.20243 0.58305 0.0
H5103 H 0.30494 0.21434 0.61567 0.0
H5104 H 0.2903 0.26544 0.60022 0.0
H5105 H 0.28746 0.25379 0.56731 0.0
H5106 H 0.31453 0.27415 0.62915 0.0
H5107 H 0.26189 0.22441 0.6156 0.0
H5108 H 0.24458 0.19215 0.60689 0.0
H5109 H 0.27672 0.17165 0.64887 0.0
H5110 H 0.29433 0.20371 0.65764 0.0
H5111 H 0.28482 0.30267 0.71274 0.0
H5112 H 0.28691 0.29162 0.68064 0.0
H5113 H 0.30873 0.24602 0.70033 0.0
H5114 H 0.30708 0.25734 0.7323 0.0
H5115 H 0.28321 0.23413 0.67065 0.0
H5116 H 0.33441 0.27946 0.68646 0.0
H5117 H 0.35335 0.31005 0.69884 0.0
H5118 H 0.32813 0.33677 0.65623 0.0
H5119 H 0.30881 0.30635 0.64375 0.0
C5120 C 0.299 0.21627 0.58653 0.0
C5121 C 0.29395 0.22705 0.57244 0.0
C5122 C 0.30091 0.22304 0.60532 0.0
C5123 C 0.29742 0.24065 0.61069 0.0
C5124 C 0.29296 0.25175 0.59662 0.0
C5125 C 0.29128 0.24506 0.57774 0.0
C5126 C 0.29802 0.24728 0.63082 0.0
C5127 C 0.30743 0.26545 0.63808 0.0
C5128 C 0.28961 0.23574 0.64308 0.0
C5129 C 0.27952 0.21639 0.6371 0.0
C5130 C 0.26537 0.21297 0.6228 0.0
C5131 C 0.25549 0.19474 0.61789 0.0
C5132 C 0.25957 0.17986 0.62729 0.0
C5133 C 0.27359 0.18317 0.64157 0.0
C5134 C 0.28353 0.20135 0.64649 0.0
C5135 C 0.28981 0.29014 0.7101 0.0
C5136 C 0.2955 0.28062 0.72487 0.0
C5137 C 0.29121 0.28397 0.69183 0.0
C5138 C 0.29807 0.26802 0.68804 0.0
C5139 C 0.30342 0.25834 0.70285 0.0
C5140 C 0.30237 0.26474 0.72108 0.0
C5141 C 0.29915 0.26103 0.66861 0.0
C5142 C 0.29022 0.24281 0.66162 0.0
C5143 C 0.30844 0.27226 0.65689 0.0
C5144 C 0.32001 0.29064 0.66427 0.0
C5145 C 0.33277 0.29188 0.67982 0.0
C5146 C 0.34361 0.30919 0.68684 0.0
C5147 C 0.34191 0.32536 0.67836 0.0
C5148 C 0.32941 0.32423 0.6628 0.0
C5149 C 0.31851 0.30695 0.65574 0.0
H5150 H 0.35032 0.33875 0.6838 0.0
H5151 H 0.25184 0.16578 0.62353 0.0
H5152 H 0.65399 0.54 0.28047 0.0
H5153 H 0.63983 0.53493 0.24813 0.0
H5154 H 0.63511 0.59303 0.25104 0.0
H5155 H 0.6488 0.59787 0.28365 0.0
H5156 H 0.60497 0.56817 0.23822 0.0
H5157 H 0.66342 0.57934 0.2275 0.0
H5158 H 0.69305 0.57417 0.23176 0.0
H5159 H 0.67456 0.51699 0.20738 0.0
H5160 H 0.64476 0.52173 0.20332 0.0
H5161 H 0.59265 0.58672 0.14589 0.0
H5162 H 0.6071 0.58432 0.17691 0.0
H5163 H 0.58796 0.52414 0.16945 0.0
H5164 H 0.57243 0.52671 0.13864 0.0
H5165 H 0.62911 0.54544 0.18397 0.0
H5166 H 0.5699 0.53563 0.19492 0.0
H5167 H 0.54091 0.5426 0.1911 0.0
H5168 H 0.56216 0.59946 0.21518 0.0
H5169 H 0.59134 0.59291 0.21872 0.0
C5170 C 0.64998 0.55162 0.27402 0.0
C5171 C 0.65216 0.56922 0.28409 0.0
C5172 C 0.64207 0.54878 0.25569 0.0
C5173 C 0.63663 0.56367 0.2474 0.0
C5174 C 0.63926 0.58144 0.25741 0.0
C5175 C 0.64696 0.58419 0.27584 0.0
C5176 C 0.62704 0.56031 0.22866 0.0
C5177 C 0.61027 0.56326 0.22635 0.0
C5178 C 0.63394 0.55348 0.21343 0.0
C5179 C 0.65187 0.55082 0.21529 0.0
C5180 C 0.66567 0.56563 0.22316 0.0
C5181 C 0.68249 0.56278 0.22554 0.0
C5182 C 0.68568 0.54524 0.21989 0.0
C5183 C 0.67206 0.53056 0.21177 0.0
C5184 C 0.65521 0.53332 0.20942 0.0
C5185 C 0.59141 0.57305 0.15103 0.0
C5186 C 0.5818 0.55684 0.14011 0.0
C5187 C 0.59974 0.57167 0.16849 0.0
C5188 C 0.59866 0.55404 0.17503 0.0
C5189 C 0.58897 0.53776 0.16425 0.0
C5190 C 0.58022 0.53922 0.14683 0.0
C5191 C 0.60713 0.55331 0.1937 0.0
C5192 C 0.62375 0.54986 0.19598 0.0
C5193 C 0.60021 0.55985 0.20896 0.0
C5194 C 0.58275 0.56383 0.20691 0.0
C5195 C 0.56839 0.54967 0.19919 0.0
C5196 C 0.55193 0.55354 0.19711 0.0
C5197 C 0.54969 0.57147 0.20286 0.0
C5198 C 0.56391 0.58558 0.21071 0.0
C5199 C 0.58041 0.5818 0.21275 0.0
H5200 H 0.53692 0.57443 0.20127 0.0
H5201 H 0.69871 0.54305 0.22177 0.0
H5202 H 0.33048 0.88601 0.99038 0.0
H5203 H 0.33181 0.87523 0.95801 0.0
H5204 H 0.28668 0.89648 0.93993 0.0
H5205 H 0.2855 0.90746 0.97211 0.0
H5206 H 0.283 0.86272 0.9225 0.0
H5207 H 0.32844 0.91738 0.93176 0.0
H5208 H 0.35599 0.9398 0.94281 0.0
H5209 H 0.38366 0.89684 0.93081 0.0
H5210 H 0.3563 0.87407 0.91997 0.0
H5211 H 0.28266 0.84946 0.82405 0.0
H5212 H 0.2843 0.86368 0.85605 0.0
H5213 H 0.32995 0.84271 0.87254 0.0
H5214 H 0.32809 0.82833 0.84069 0.0
H5215 H 0.33413 0.87646 0.89089 0.0
H5216 H 0.28913 0.82171 0.88255 0.0
H5217 H 0.26186 0.79946 0.86992 0.0
H5218 H 0.23371 0.84237 0.88048 0.0
H5219 H 0.26085 0.86495 0.89291 0.0
C5220 C 0.32078 0.88836 0.97954 0.0
C5221 C 0.30772 0.89749 0.9842 0.0
C5222 C 0.32165 0.8823 0.96084 0.0
C5223 C 0.30939 0.88494 0.94601 0.0
C5224 C 0.29637 0.89407 0.95075 0.0
C5225 C 0.29566 0.90037 0.96935 0.0
C5226 C 0.30939 0.87745 0.92583 0.0
C5227 C 0.29419 0.86608 0.91562 0.0
C5228 C 0.324 0.88101 0.91651 0.0
C5229 C 0.34029 0.89397 0.9252 0.0
C5230 C 0.34037 0.91259 0.93187 0.0
C5231 C 0.35597 0.92539 0.93797 0.0
C5232 C 0.37153 0.91975 0.93736 0.0
C5233 C 0.37157 0.90119 0.93119 0.0
C5234 C 0.35604 0.88832 0.9251 0.0
C5235 C 0.29331 0.84831 0.83436 0.0
C5236 C 0.30551 0.8381 0.82943 0.0
C5237 C 0.29413 0.85624 0.8529 0.0
C5238 C 0.30719 0.85432 0.86728 0.0
C5239 C 0.3197 0.84465 0.86211 0.0
C5240 C 0.31871 0.83648 0.84369 0.0
C5241 C 0.30768 0.86191 0.88756 0.0
C5242 C 0.32295 0.87318 0.8978 0.0
C5243 C 0.29319 0.85821 0.89701 0.0
C5244 C 0.27702 0.84507 0.88841 0.0
C5245 C 0.27715 0.82648 0.88189 0.0
C5246 C 0.26171 0.81379 0.87485 0.0
C5247 C 0.24606 0.81951 0.87435 0.0
C5248 C 0.24583 0.83797 0.88082 0.0
C5249 C 0.26124 0.85072 0.88784 0.0
H5250 H 0.23411 0.80963 0.86901 0.0
H5251 H 0.38358 0.92979 0.94148 0.0
H5252 H 0.95832 0.59416 0.7642 0.0
H5253 H 0.96314 0.57903 0.73513 0.0
H5254 H 0.97846 0.63348 0.71595 0.0
H5255 H 0.97341 0.64881 0.74536 0.0
H5256 H 0.95452 0.60595 0.68956 0.0
H5257 H 0.00849 0.61156 0.7305 0.0
H5258 H 0.02449 0.60764 0.76064 0.0
H5259 H 0.0048 0.54791 0.75126 0.0
H5260 H 0.98842 0.55155 0.72118 0.0
H5261 H 1.00381 0.59392 0.62124 0.0
H5262 H 0.99111 0.60125 0.64834 0.0
H5263 H 0.98164 0.54282 0.65826 0.0
H5264 H 0.99432 0.53519 0.63067 0.0
H5265 H 0.99888 0.56726 0.68939 0.0
H5266 H 0.94635 0.56027 0.64827 0.0
H5267 H 0.92815 0.56331 0.61917 0.0
H5268 H 0.94386 0.6235 0.62893 0.0
H5269 H 0.96196 0.62081 0.65824 0.0
C5270 C 0.963 0.6029 0.75388 0.0
C5271 C 0.96588 0.62258 0.75697 0.0
C5272 C 0.96561 0.59426 0.73728 0.0
C5273 C 0.97119 0.60517 0.7235 0.0
C5274 C 0.97415 0.6249 0.72654 0.0
C5275 C 0.97158 0.63363 0.74332 0.0
C5276 C 0.9743 0.59578 0.70615 0.0
C5277 C 0.96431 0.59764 0.68947 0.0
C5278 C 0.98648 0.5842 0.70624 0.0
C5279 C 0.99722 0.58182 0.72365 0.0
C5280 C 0.0076 0.59759 0.73487 0.0
C5281 C 0.01669 0.59543 0.75195 0.0
C5282 C 0.01565 0.57753 0.75787 0.0
C5283 C 0.00559 0.56176 0.74665 0.0
C5284 C 0.99642 0.56385 0.72957 0.0
C5285 C 0.99855 0.58246 0.62876 0.0
C5286 C 1.00003 0.56396 0.62376 0.0
C5287 C 0.99135 0.58671 0.64433 0.0
C5288 C 0.98536 0.57255 0.6552 0.0
C5289 C 0.98623 0.55391 0.65 0.0
C5290 C 0.99347 0.54961 0.6343 0.0
C5291 C 0.97947 0.57796 0.67266 0.0
C5292 C 0.98889 0.57531 0.68946 0.0
C5293 C 0.9666 0.5886 0.67274 0.0
C5294 C 0.95544 0.59035 0.65542 0.0
C5295 C 0.94587 0.57415 0.64421 0.0
C5296 C 0.93556 0.57581 0.62772 0.0
C5297 C 0.93487 0.59358 0.62218 0.0
C5298 C 0.94437 0.60975 0.63325 0.0
C5299 C 0.95455 0.60817 0.64987 0.0
H5300 H 0.927 0.59483 0.60931 0.0
H5301 H 0.02265 0.57589 0.77113 0.0
H5302 H 0.3003 0.20686 0.45407 0.0
H5303 H 0.30075 0.219 0.42388 0.0
H5304 H 0.27356 0.26103 0.44089 0.0
H5305 H 0.27316 0.24891 0.47134 0.0
H5306 H 0.26027 0.2454 0.40527 0.0
H5307 H 0.31661 0.27264 0.43778 0.0
H5308 H 0.34478 0.27274 0.45606 0.0
H5309 H 0.3562 0.2367 0.41242 0.0
H5310 H 0.32796 0.23614 0.39401 0.0
H5311 H 0.27368 0.29813 0.32672 0.0
H5312 H 0.27077 0.28639 0.35695 0.0
H5313 H 0.30603 0.25038 0.34766 0.0
H5314 H 0.30955 0.26294 0.31803 0.0
H5315 H 0.31484 0.26393 0.38033 0.0
H5316 H 0.25837 0.23605 0.34772 0.0
H5317 H 0.22974 0.23482 0.32985 0.0
H5318 H 0.21799 0.27062 0.37345 0.0
H5319 H 0.24667 0.2724 0.3914 0.0
C5320 C 0.29445 0.21876 0.4515 0.0
C5321 C 0.28674 0.22687 0.46537 0.0
C5322 C 0.29477 0.22577 0.43411 0.0
C5323 C 0.2873 0.24114 0.42982 0.0
C5324 C 0.27945 0.2492 0.44361 0.0
C5325 C 0.2793 0.24229 0.46115 0.0
C5326 C 0.28771 0.24863 0.41103 0.0
C5327 C 0.27225 0.2497 0.39995 0.0
C5328 C 0.30318 0.2539 0.40357 0.0
C5329 C 0.32013 0.2542 0.41461 0.0
C5330 C 0.32507 0.26461 0.43215 0.0
C5331 C 0.34106 0.26476 0.44253 0.0
C5332 C 0.35226 0.2547 0.43543 0.0
C5333 C 0.34751 0.24447 0.41792 0.0
C5334 C 0.33152 0.24423 0.40751 0.0
C5335 C 0.28044 0.28734 0.33094 0.0
C5336 C 0.29155 0.28117 0.31967 0.0
C5337 C 0.2788 0.28056 0.34837 0.0
C5338 C 0.288 0.26713 0.35497 0.0
C5339 C 0.29874 0.26069 0.34332 0.0
C5340 C 0.30061 0.26772 0.32614 0.0
C5341 C 0.2873 0.26049 0.3742 0.0
C5342 C 0.30277 0.25962 0.38549 0.0
C5343 C 0.2718 0.25529 0.38175 0.0
C5344 C 0.25473 0.25455 0.37079 0.0
C5345 C 0.24975 0.24383 0.3534 0.0
C5346 C 0.2335 0.24301 0.34327 0.0
C5347 C 0.22207 0.25268 0.35048 0.0
C5348 C 0.22686 0.26319 0.36785 0.0
C5349 C 0.24312 0.26413 0.37799 0.0
H5350 H 0.20949 0.252 0.34264 0.0
H5351 H 0.36464 0.25485 0.44347 0.0
H5352 H 0.34428 0.69929 0.51334 0.0
H5353 H 0.36986 0.68679 0.5099 0.0
H5354 H 0.33911 0.63028 0.50336 0.0
H5355 H 0.31363 0.64281 0.50766 0.0
H5356 H 0.36622 0.63021 0.52467 0.0
H5357 H 0.35745 0.6543 0.4663 0.0
H5358 H 0.35256 0.67822 0.44534 0.0
H5359 H 0.40112 0.71367 0.46977 0.0
H5360 H 0.4062 0.69004 0.49105 0.0
H5361 H 0.42979 0.58432 0.49872 0.0
H5362 H 0.40471 0.59866 0.49465 0.0
H5363 H 0.43685 0.65296 0.51522 0.0
H5364 H 0.46218 0.63869 0.5192 0.0
H5365 H 0.40948 0.65441 0.48517 0.0
H5366 H 0.41682 0.62991 0.54418 0.0
H5367 H 0.42083 0.60557 0.56491 0.0
H5368 H 0.37325 0.57008 0.53764 0.0
H5369 H 0.36917 0.59409 0.51648 0.0
C5370 C 0.34295 0.68419 0.51116 0.0
C5371 C 0.32686 0.67207 0.51095 0.0
C5372 C 0.35762 0.67701 0.50896 0.0
C5373 C 0.3566 0.65749 0.50605 0.0
C5374 C 0.34043 0.64538 0.50559 0.0
C5375 C 0.3258 0.65256 0.50807 0.0
C5376 C 0.37243 0.64962 0.50468 0.0
C5377 C 0.37541 0.63535 0.51569 0.0
C5378 C 0.38492 0.65646 0.4934 0.0
C5379 C 0.38213 0.67049 0.48037 0.0
C5380 C 0.36705 0.66724 0.46725 0.0
C5381 C 0.36424 0.68074 0.45532 0.0
C5382 C 0.3765 0.69748 0.45626 0.0
C5383 C 0.39163 0.70071 0.46908 0.0
C5384 C 0.39449 0.68725 0.48106 0.0
C5385 C 0.43168 0.59938 0.50204 0.0
C5386 C 0.44814 0.61024 0.50945 0.0
C5387 C 0.41724 0.60758 0.49975 0.0
C5388 C 0.41876 0.62692 0.50474 0.0
C5389 C 0.43526 0.63803 0.51125 0.0
C5390 C 0.44975 0.62978 0.51371 0.0
C5391 C 0.40294 0.63495 0.50501 0.0
C5392 C 0.40008 0.64925 0.49392 0.0
C5393 C 0.39037 0.62806 0.51603 0.0
C5394 C 0.3928 0.61365 0.52866 0.0
C5395 C 0.40731 0.61683 0.54251 0.0
C5396 C 0.40959 0.60311 0.55433 0.0
C5397 C 0.39733 0.58626 0.55256 0.0
C5398 C 0.38276 0.58311 0.53896 0.0
C5399 C 0.38046 0.59676 0.52704 0.0
H5400 H 0.3991 0.57566 0.56177 0.0
H5401 H 0.37429 0.70794 0.44704 0.0
H5402 H 0.85158 0.97124 0.5262 0.0
H5403 H 0.88054 0.98619 0.52099 0.0
H5404 H 0.90005 0.93935 0.54096 0.0
H5405 H 0.87106 0.92426 0.54594 0.0
H5406 H 0.9214 0.97107 0.55613 0.0
H5407 H 0.89674 0.94682 0.49461 0.0
H5408 H 0.87667 0.94048 0.46511 0.0
H5409 H 0.88552 0.99961 0.45929 0.0
H5410 H 0.90545 0.00634 0.48889 0.0
H5411 H 0.00564 0.00331 0.53071 0.0
H5412 H 0.97695 0.98428 0.5323 0.0
H5413 H 0.95393 0.03022 0.51608 0.0
H5414 H 0.98256 0.04935 0.51491 0.0
H5415 H 0.93484 0.99676 0.49788 0.0
H5416 H 0.95918 0.02009 0.56102 0.0
H5417 H 0.9798 0.0249 0.59003 0.0
H5418 H 0.9718 0.96513 0.59195 0.0
H5419 H 0.95137 0.95996 0.56274 0.0
C5420 C 0.86202 0.9641 0.52955 0.0
C5421 C 0.85883 0.94655 0.53675 0.0
C5422 C 0.87867 0.97263 0.52637 0.0
C5423 C 0.8928 0.96403 0.53045 0.0
C5424 C 0.8896 0.94648 0.53766 0.0
C5425 C 0.87291 0.93782 0.54057 0.0
C5426 C 0.91092 0.97368 0.52808 0.0
C5427 C 0.9243 0.97637 0.54324 0.0
C5428 C 0.91505 0.98099 0.51142 0.0
C5429 C 0.90241 0.97711 0.49411 0.0
C5430 C 0.8942 0.9585 0.48719 0.0
C5431 C 0.88291 0.95483 0.4704 0.0
C5432 C 0.87978 0.96964 0.46036 0.0
C5433 C 0.88792 0.98816 0.4671 0.0
C5434 C 0.89921 0.99191 0.48388 0.0
C5435 C 0.99447 0.00934 0.52737 0.0
C5436 C 0.99655 0.028 0.52268 0.0
C5437 C 0.97797 0.99843 0.52838 0.0
C5438 C 0.96297 0.00568 0.52445 0.0
C5439 C 0.96508 0.02411 0.51923 0.0
C5440 C 0.98156 0.03512 0.51859 0.0
C5441 C 0.94519 0.99438 0.52603 0.0
C5442 C 0.9319 0.99138 0.51073 0.0
C5443 C 0.94116 0.98656 0.54248 0.0
C5444 C 0.95395 0.98964 0.55957 0.0
C5445 C 0.96202 0.00797 0.56748 0.0
C5446 C 0.97363 0.01076 0.58399 0.0
C5447 C 0.97715 0.99533 0.5928 0.0
C5448 C 0.96911 0.97707 0.58508 0.0
C5449 C 0.95753 0.9742 0.56854 0.0
H5450 H 0.98608 0.99753 0.60563 0.0
H5451 H 0.87109 0.96676 0.44733 0.0
H5452 H 0.87234 0.08598 0.20597 0.0
H5453 H 0.86597 0.11566 0.21862 0.0
H5454 H 0.91042 0.12359 0.26107 0.0
H5455 H 0.91708 0.09452 0.24834 0.0
H5456 H 0.8782 0.12622 0.27366 0.0
H5457 H 0.91605 0.15259 0.23341 0.0
H5458 H 0.92777 0.15484 0.20406 0.0
H5459 H 0.8793 0.16246 0.17639 0.0
H5460 H 0.86727 0.16011 0.2056 0.0
H5461 H 0.85991 0.21778 0.30153 0.0
H5462 H 0.87505 0.19222 0.29539 0.0
H5463 H 0.84415 0.1779 0.24119 0.0
H5464 H 0.82961 0.20344 0.24702 0.0
H5465 H 0.87667 0.18145 0.23853 0.0
H5466 H 0.83827 0.152 0.27957 0.0
H5467 H 0.82675 0.14593 0.30858 0.0
H5468 H 0.87686 0.14235 0.33532 0.0
H5469 H 0.88871 0.14869 0.30655 0.0
C5470 C 0.88074 0.09419 0.21789 0.0
C5471 C 0.89517 0.08814 0.22615 0.0
C5472 C 0.87718 0.11104 0.22504 0.0
C5473 C 0.88782 0.12165 0.24069 0.0
C5474 C 0.90217 0.11556 0.24895 0.0
C5475 C 0.90594 0.09903 0.24161 0.0
C5476 C 0.88355 0.13875 0.2489 0.0
C5477 C 0.87809 0.13852 0.26621 0.0
C5478 C 0.88365 0.15461 0.23915 0.0
C5479 C 0.89075 0.15604 0.2216 0.0
C5480 C 0.90787 0.15461 0.22102 0.0
C5481 C 0.91458 0.15595 0.20443 0.0
C5482 C 0.90428 0.15876 0.18836 0.0
C5483 C 0.88726 0.16029 0.18885 0.0
C5484 C 0.8805 0.15899 0.20542 0.0
C5485 C 0.85646 0.20908 0.28836 0.0
C5486 C 0.84391 0.21269 0.27456 0.0
C5487 C 0.86499 0.19449 0.28492 0.0
C5488 C 0.86075 0.18326 0.2678 0.0
C5489 C 0.84778 0.18656 0.25439 0.0
C5490 C 0.83952 0.20117 0.25769 0.0
C5491 C 0.87013 0.1686 0.26293 0.0
C5492 C 0.87693 0.16937 0.24625 0.0
C5493 C 0.87128 0.15326 0.27339 0.0
C5494 C 0.86443 0.15122 0.29105 0.0
C5495 C 0.8469 0.15034 0.29175 0.0
C5496 C 0.84029 0.14672 0.30812 0.0
C5497 C 0.85108 0.14385 0.32381 0.0
C5498 C 0.86853 0.14468 0.3232 0.0
C5499 C 0.8752 0.14833 0.30689 0.0
H5500 H 0.84591 0.14089 0.33642 0.0
H5501 H 0.90949 0.15978 0.17552 0.0
H5502 H 0.73614 0.13836 0.00364 0.0
H5503 H 0.70567 0.12256 0.99964 0.0
H5504 H 0.69158 0.17641 0.00636 0.0
H5505 H 0.7219 0.19222 0.01035 0.0
H5506 H 0.67739 0.15374 0.02904 0.0
H5507 H 0.67639 0.14889 0.96334 0.0
H5508 H 0.68632 0.14205 0.93361 0.0
H5509 H 0.68495 0.08493 0.94499 0.0
H5510 H 0.67477 0.09141 0.97465 0.0
H5511 H 0.58692 0.11682 0.01093 0.0
H5512 H 0.6159 0.13352 0.00762 0.0
H5513 H 0.63321 0.08122 0.00766 0.0
H5514 H 0.60416 0.06454 0.01136 0.0
H5515 H 0.64487 0.10396 0.97986 0.0
H5516 H 0.64336 0.11034 0.04574 0.0
H5517 H 0.63155 0.11876 0.07382 0.0
H5518 H 0.63698 0.17584 0.06071 0.0
H5519 H 0.6486 0.16765 0.0324 0.0
C5520 C 0.72653 0.14683 0.0041 0.0
C5521 C 0.7315 0.16656 0.00758 0.0
C5522 C 0.70908 0.13779 1.00161 0.0
C5523 C 0.69624 0.14826 0.00261 0.0
C5524 C 0.70118 0.16798 0.00552 0.0
C5525 C 0.71857 0.17701 0.00787 0.0
C5526 C 0.67798 0.13868 0.00276 0.0
C5527 C 0.67023 0.14309 0.01809 0.0
C5528 C 0.66857 0.12455 0.98871 0.0
C5529 C 0.67511 0.1207 0.97126 0.0
C5530 C 0.67837 0.13493 0.95954 0.0
C5531 C 0.68393 0.13109 0.94267 0.0
C5532 C 0.68638 0.1131 0.93747 0.0
C5533 C 0.68313 0.09888 0.94907 0.0
C5534 C 0.67738 0.10259 0.96585 0.0
C5535 C 0.59698 0.10895 0.01032 0.0
C5536 C 0.5935 0.0895 0.01162 0.0
C5537 C 0.61348 0.11847 0.00839 0.0
C5538 C 0.62676 0.10864 0.00749 0.0
C5539 C 0.62317 0.08908 0.00838 0.0
C5540 C 0.60668 0.0796 0.01063 0.0
C5541 C 0.6445 0.11893 0.00624 0.0
C5542 C 0.65208 0.11466 0.99074 0.0
C5543 C 0.65369 0.13343 0.01999 0.0
C5544 C 0.64665 0.13834 0.0369 0.0
C5545 C 0.64188 0.12464 0.04877 0.0
C5546 C 0.63525 0.12938 0.06474 0.0
C5547 C 0.63346 0.14781 0.06902 0.0
C5548 C 0.63834 0.16156 0.05736 0.0
C5549 C 0.64495 0.15688 0.04136 0.0
H5550 H 0.62834 0.15146 0.0814 0.0
H5551 H 0.69071 0.11016 0.92441 0.0
H5552 H 0.1655 0.43337 0.28275 0.0
H5553 H 0.18363 0.41007 0.2861 0.0
H5554 H 0.20777 0.42922 0.23983 0.0
H5555 H 0.18993 0.45261 0.23657 0.0
H5556 H 0.19775 0.38955 0.23927 0.0
H5557 H 0.22891 0.4446 0.27984 0.0
H5558 H 0.23224 0.46997 0.30516 0.0
H5559 H 0.22131 0.42897 0.34335 0.0
H5560 H 0.21769 0.40335 0.31816 0.0
H5561 H 0.27425 0.3538 0.25047 0.0
H5562 H 0.25432 0.37529 0.24723 0.0
H5563 H 0.23416 0.35695 0.29604 0.0
H5564 H 0.25384 0.33534 0.29912 0.0
H5565 H 0.24101 0.39531 0.29582 0.0
H5566 H 0.21027 0.34029 0.25618 0.0
H5567 H 0.20292 0.31444 0.23078 0.0
H5568 H 0.21092 0.35438 0.19102 0.0
H5569 H 0.21844 0.38044 0.21621 0.0
C5570 C 0.17453 0.43238 0.27319 0.0
C5571 C 0.17644 0.44467 0.25944 0.0
C5572 C 0.18488 0.41923 0.27517 0.0
C5573 C 0.19701 0.4182 0.26327 0.0
C5574 C 0.19845 0.42997 0.24911 0.0
C5575 C 0.18832 0.44327 0.24731 0.0
C5576 C 0.20857 0.40513 0.26576 0.0
C5577 C 0.20739 0.39086 0.25149 0.0
C5578 C 0.22068 0.40675 0.28197 0.0
C5579 C 0.22283 0.4221 0.2971 0.0
C5580 C 0.22706 0.44101 0.2936 0.0
C5581 C 0.22903 0.45543 0.30793 0.0
C5582 C 0.22693 0.45109 0.32584 0.0
C5583 C 0.2229 0.43231 0.32947 0.0
C5584 C 0.22089 0.41784 0.31517 0.0
C5585 C 0.26593 0.35489 0.2608 0.0
C5586 C 0.26573 0.34342 0.27531 0.0
C5587 C 0.25437 0.3668 0.25874 0.0
C5588 C 0.24272 0.36741 0.27129 0.0
C5589 C 0.24306 0.35653 0.28622 0.0
C5590 C 0.25438 0.34443 0.2881 0.0
C5591 C 0.23039 0.37973 0.26917 0.0
C5592 C 0.23141 0.39391 0.28355 0.0
C5593 C 0.21807 0.37796 0.25305 0.0
C5594 C 0.21521 0.36228 0.2381 0.0
C5595 C 0.2108 0.34353 0.24206 0.0
C5596 C 0.20648 0.32885 0.22768 0.0
C5597 C 0.20651 0.33276 0.2093 0.0
C5598 C 0.21095 0.35135 0.20526 0.0
C5599 C 0.21526 0.36608 0.21958 0.0
H5600 H 0.20304 0.32138 0.19819 0.0
H5601 H 0.22847 0.46228 0.33693 0.0
H5602 H 0.24438 0.41128 0.03528 0.0
H5603 H 0.2173 0.42198 0.03044 0.0
H5604 H 0.24511 0.47702 0.02216 0.0
H5605 H 0.27229 0.46658 0.0281 0.0
H5606 H 0.2241 0.48225 0.04226 0.0
H5607 H 0.21647 0.44006 0.98644 0.0
H5608 H 0.21384 0.41002 0.96726 0.0
H5609 H 0.17088 0.38486 0.99257 0.0
H5610 H 0.17344 0.41463 0.01216 0.0
H5611 H 0.15566 0.52309 0.01132 0.0
H5612 H 0.17935 0.5071 0.01018 0.0
H5613 H 0.14942 0.45774 0.02802 0.0
H5614 H 0.12509 0.47339 0.02834 0.0
H5615 H 0.16992 0.44793 0.00304 0.0
H5616 H 0.17819 0.4894 0.05896 0.0
H5617 H 0.18014 0.51954 0.07765 0.0
H5618 H 0.22202 0.5456 0.05121 0.0
H5619 H 0.22008 0.51569 0.03209 0.0
C5620 C 0.24473 0.4257 0.03246 0.0
C5621 C 0.26061 0.43812 0.03228 0.0
C5622 C 0.22912 0.43176 0.02942 0.0
C5623 C 0.22884 0.45032 0.02557 0.0
C5624 C 0.24474 0.46263 0.02512 0.0
C5625 C 0.26038 0.45668 0.02856 0.0
C5626 C 0.21237 0.45747 0.02343 0.0
C5627 C 0.21244 0.47477 0.03331 0.0
C5628 C 0.19663 0.44755 0.01247 0.0
C5629 C 0.19532 0.42953 1.00096 0.0
C5630 C 0.2066 0.42806 0.98809 0.0
C5631 C 0.20509 0.41109 0.97711 0.0
C5632 C 0.19225 0.39553 0.97875 0.0
C5633 C 0.18086 0.39691 0.99136 0.0
C5634 C 0.18235 0.41382 0.00241 0.0
C5635 C 0.15379 0.50867 0.01458 0.0
C5636 C 0.13827 0.49971 0.02005 0.0
C5637 C 0.16754 0.49956 0.01408 0.0
C5638 C 0.16643 0.48128 0.01935 0.0
C5639 C 0.15074 0.47188 0.02401 0.0
C5640 C 0.13686 0.48099 0.0244 0.0
C5641 C 0.1821 0.47282 0.0214 0.0
C5642 C 0.18175 0.45531 0.01175 0.0
C5643 C 0.19768 0.48245 0.03251 0.0
C5644 C 0.19888 0.50039 0.044 0.0
C5645 C 0.18772 0.50161 0.05704 0.0
C5646 C 0.18882 0.51864 0.06771 0.0
C5647 C 0.20117 0.53449 0.06559 0.0
C5648 C 0.21244 0.53333 0.05281 0.0
C5649 C 0.21134 0.51635 0.04205 0.0
H5650 H 0.20202 0.54766 0.07389 0.0
H5651 H 0.19108 0.38241 0.97021 0.0
H5652 H 0.8635 0.97739 0.20528 0.0
H5653 H 0.85239 0.9485 0.21871 0.0
H5654 H 0.89932 0.95762 0.25795 0.0
H5655 H 0.91081 0.9857 0.24384 0.0
H5656 H 0.88908 0.92175 0.2473 0.0
H5657 H 0.86243 0.96883 0.27204 0.0
H5658 H 0.84738 0.99515 0.27031 0.0
H5659 H 0.80451 0.95941 0.23438 0.0
H5660 H 0.81937 0.93294 0.23585 0.0
H5661 H 0.83765 0.85063 0.29488 0.0
H5662 H 0.8571 0.87949 0.28909 0.0
H5663 H 0.82246 0.88242 0.23939 0.0
H5664 H 0.8031 0.85398 0.24512 0.0
H5665 H 0.83037 0.91493 0.26377 0.0
H5666 H 0.85994 0.86899 0.2369 0.0
H5667 H 0.87617 0.84369 0.23865 0.0
H5668 H 0.91441 0.87809 0.28094 0.0
H5669 H 0.89839 0.90364 0.27935 0.0
C5670 C 0.87145 0.973 0.21657 0.0
C5671 C 0.88794 0.98357 0.22347 0.0
C5672 C 0.86511 0.95666 0.22435 0.0
C5673 C 0.87492 0.95121 0.23961 0.0
C5674 C 0.89157 0.96157 0.24621 0.0
C5675 C 0.89808 0.97757 0.23811 0.0
C5676 C 0.86751 0.93498 0.24893 0.0
C5677 C 0.87636 0.92037 0.25121 0.0
C5678 C 0.85115 0.93334 0.25444 0.0
C5679 C 0.84197 0.94899 0.25405 0.0
C5680 C 0.84978 0.96663 0.2638 0.0
C5681 C 0.8413 0.98155 0.26285 0.0
C5682 C 0.825 0.97895 0.25224 0.0
C5683 C 0.81712 0.96139 0.24262 0.0
C5684 C 0.82552 0.94641 0.24356 0.0
C5685 C 0.83434 0.85741 0.28265 0.0
C5686 C 0.81882 0.85034 0.27052 0.0
C5687 C 0.84544 0.87378 0.27936 0.0
C5688 C 0.84107 0.88302 0.2639 0.0
C5689 C 0.82592 0.87549 0.25148 0.0
C5690 C 0.81489 0.85927 0.25475 0.0
C5691 C 0.85141 0.90124 0.26087 0.0
C5692 C 0.84322 0.91644 0.26018 0.0
C5693 C 0.86844 0.90343 0.25712 0.0
C5694 C 0.87787 0.88805 0.2582 0.0
C5695 C 0.87171 0.87105 0.2467 0.0
C5696 C 0.88089 0.85669 0.24764 0.0
C5697 C 0.89622 0.85919 0.26004 0.0
C5698 C 0.90248 0.87613 0.27141 0.0
C5699 C 0.89339 0.89057 0.27047 0.0
H5700 H 0.90329 0.84803 0.26074 0.0
H5701 H 0.81847 0.99055 0.25147 0.0
H5702 H 0.66091 0.05037 0.78957 0.0
H5703 H 0.67598 0.08318 0.79743 0.0
H5704 H 0.69945 0.08039 0.74786 0.0
H5705 H 0.68524 0.04716 0.74068 0.0
H5706 H 0.72249 0.09389 0.77578 0.0
H5707 H 0.66602 0.10509 0.75477 0.0
H5708 H 0.63488 0.1017 0.75508 0.0
H5709 H 0.64494 0.1263 0.81171 0.0
H5710 H 0.67612 0.1295 0.81184 0.0
H5711 H 0.75526 0.18518 0.76135 0.0
H5712 H 0.73874 0.15353 0.76133 0.0
H5713 H 0.72478 0.16894 0.81441 0.0
H5714 H 0.74079 0.20146 0.8139 0.0
H5715 H 0.69751 0.14901 0.79109 0.0
H5716 H 0.75474 0.13978 0.81023 0.0
H5717 H 0.78566 0.14316 0.80847 0.0
H5718 H 0.77342 0.11496 0.75314 0.0
H5719 H 0.74247 0.1116 0.75451 0.0
C5720 C 0.66918 0.05689 0.7803 0.0
C5721 C 0.67212 0.04641 0.76461 0.0
C5722 C 0.67766 0.07564 0.78472 0.0
C5723 C 0.68873 0.08426 0.77316 0.0
C5724 C 0.69103 0.07393 0.75702 0.0
C5725 C 0.68296 0.05504 0.75291 0.0
C5726 C 0.69918 0.10346 0.77859 0.0
C5727 C 0.71696 0.10595 0.77894 0.0
C5728 C 0.69209 0.11904 0.78359 0.0
C5729 C 0.67337 0.11735 0.78337 0.0
C5730 C 0.66157 0.10965 0.76733 0.0
C5731 C 0.64392 0.10777 0.76742 0.0
C5732 C 0.63793 0.11373 0.78342 0.0
C5733 C 0.64959 0.12164 0.79934 0.0
C5734 C 0.66725 0.12349 0.79934 0.0
C5735 C 0.74905 0.18172 0.77326 0.0
C5736 C 0.74955 0.19551 0.78782 0.0
C5737 C 0.73959 0.16363 0.77324 0.0
C5738 C 0.73092 0.15874 0.7881 0.0
C5739 C 0.73156 0.17243 0.80291 0.0
C5740 C 0.74076 0.19084 0.8027 0.0
C5741 C 0.72066 0.13944 0.78737 0.0
C5742 C 0.70299 0.13687 0.78814 0.0
C5743 C 0.72776 0.12369 0.78318 0.0
C5744 C 0.74634 0.1254 0.78251 0.0
C5745 C 0.75868 0.13433 0.7977 0.0
C5746 C 0.7762 0.13625 0.79676 0.0
C5747 C 0.7815 0.12926 0.78072 0.0
C5748 C 0.7693 0.12032 0.76558 0.0
C5749 C 0.75178 0.11835 0.76645 0.0
H5750 H 0.79508 0.13078 0.78001 0.0
H5751 H 0.62425 0.11226 0.78346 0.0
loop_
_geom_bond_atom_site_label_1
_geom_bond_atom_site_label_2
_geom_bond_distance
_geom_bond_site_symmetry_2
_ccdc_geom_bond_type
In0 O1 2.294 . S
In0 O2 2.326 . S
In0 O6 2.266 1_455 S
In0 O7 2.326 1_455 S
In0 O8 2.266 . S
In0 O9 2.326 . S
In0 O11 2.294 . S
In0 O12 2.326 . S
O1 In0 2.294 . S
O1 C10 1.240 . S
O2 In0 2.326 . S
O2 C10 1.252 . S
C3 O6 1.252 . S
C3 O7 1.260 . S
C4 O11 1.240 . S
C4 O12 1.252 . S
C5 O8 1.252 . S
C5 O9 1.260 . S
O6 In0 2.266 1_655 S
O6 C3 1.252 . S
O7 In0 2.326 1_655 S
O7 C3 1.260 . S
O8 In0 2.266 . S
O8 C5 1.252 . S
O9 In0 2.326 . S
O9 C5 1.260 . S
C10 O1 1.240 . S
C10 O2 1.252 . S
O11 In0 2.294 . S
O11 C4 1.240 . S
O12 In0 2.326 . S
O12 C4 1.252 . S
In13 O14 2.294 . S
In13 O15 2.326 . S
In13 O19 2.266 . S
In13 O20 2.326 . S
In13 O21 2.266 . S
In13 O22 2.326 . S
In13 O24 2.294 . S
In13 O25 2.326 . S
O14 In13 2.294 . S
O14 C23 1.240 . S
O15 In13 2.326 . S
O15 C23 1.252 . S
C16 O19 1.252 . S
C16 O20 1.260 . S
C17 O24 1.240 . S
C17 O25 1.252 . S
C18 O21 1.252 . S
C18 O22 1.260 . S
O19 In13 2.266 . S
O19 C16 1.252 . S
O20 In13 2.326 . S
O20 C16 1.260 . S
O21 In13 2.266 . S
O21 C18 1.252 . S
O22 In13 2.326 . S
O22 C18 1.260 . S
C23 O14 1.240 . S
C23 O15 1.252 . S
O24 In13 2.294 . S
O24 C17 1.240 . S
O25 In13 2.326 . S
O25 C17 1.252 . S
In26 O27 2.294 . S
In26 O28 2.326 . S
In26 O32 2.266 . S
In26 O33 2.326 . S
In26 O34 2.266 . S
In26 O35 2.326 . S
In26 O37 2.294 . S
In26 O38 2.326 . S
O27 In26 2.294 . S
O27 C36 1.240 . S
O28 In26 2.326 . S
O28 C36 1.252 . S
C29 O32 1.252 . S
C29 O33 1.260 . S
C30 O37 1.240 . S
C30 O38 1.252 . S
C31 O34 1.252 . S
C31 O35 1.260 . S
O32 In26 2.266 . S
O32 C29 1.252 . S
O33 In26 2.326 . S
O33 C29 1.260 . S
O34 In26 2.266 . S
O34 C31 1.252 . S
O35 In26 2.326 . S
O35 C31 1.260 . S
C36 O27 1.240 . S
C36 O28 1.252 . S
O37 In26 2.294 . S
O37 C30 1.240 . S
O38 In26 2.326 . S
O38 C30 1.252 . S
In39 O40 2.294 . S
In39 O41 2.326 . S
In39 O45 2.266 . S
In39 O46 2.326 . S
In39 O47 2.266 . S
In39 O48 2.326 . S
In39 O50 2.294 . S
In39 O51 2.326 . S
O40 In39 2.294 . S
O40 C49 1.240 . S
O41 In39 2.326 . S
O41 C49 1.252 . S
C42 O45 1.252 . S
C42 O46 1.260 . S
C43 O50 1.240 . S
C43 O51 1.252 . S
C44 O47 1.252 . S
C44 O48 1.260 . S
O45 In39 2.266 . S
O45 C42 1.252 . S
O46 In39 2.326 . S
O46 C42 1.260 . S
O47 In39 2.266 . S
O47 C44 1.252 . S
O48 In39 2.326 . S
O48 C44 1.260 . S
C49 O40 1.240 . S
C49 O41 1.252 . S
O50 In39 2.294 . S
O50 C43 1.240 . S
O51 In39 2.326 . S
O51 C43 1.252 . S
In52 O53 2.294 . S
In52 O54 2.326 . S
In52 O58 2.266 . S
In52 O59 2.326 . S
In52 O60 2.266 . S
In52 O61 2.326 . S
In52 O63 2.294 . S
In52 O64 2.326 . S
O53 In52 2.294 . S
O53 C62 1.240 . S
O54 In52 2.326 . S
O54 C62 1.252 . S
C55 O58 1.252 . S
C55 O59 1.260 . S
C56 O63 1.240 . S
C56 O64 1.252 . S
C57 O60 1.252 . S
C57 O61 1.260 . S
O58 In52 2.266 . S
O58 C55 1.252 . S
O59 In52 2.326 . S
O59 C55 1.260 . S
O60 In52 2.266 . S
O60 C57 1.252 . S
O61 In52 2.326 . S
O61 C57 1.260 . S
C62 O53 1.240 . S
C62 O54 1.252 . S
O63 In52 2.294 . S
O63 C56 1.240 . S
O64 In52 2.326 . S
O64 C56 1.252 . S
In65 O66 2.294 . S
In65 O67 2.326 . S
In65 O71 2.266 . S
In65 O72 2.326 . S
In65 O73 2.266 . S
In65 O74 2.326 . S
In65 O76 2.294 . S
In65 O77 2.326 . S
O66 In65 2.294 . S
O66 C75 1.240 . S
O67 In65 2.326 . S
O67 C75 1.252 . S
C68 O71 1.252 . S
C68 O72 1.260 . S
C69 O76 1.240 . S
C69 O77 1.252 . S
C70 O73 1.252 . S
C70 O74 1.260 . S
O71 In65 2.266 . S
O71 C68 1.252 . S
O72 In65 2.326 . S
O72 C68 1.260 . S
O73 In65 2.266 . S
O73 C70 1.252 . S
O74 In65 2.326 . S
O74 C70 1.260 . S
C75 O66 1.240 . S
C75 O67 1.252 . S
O76 In65 2.294 . S
O76 C69 1.240 . S
O77 In65 2.326 . S
O77 C69 1.252 . S
In78 O79 2.294 . S
In78 O80 2.326 . S
In78 O84 2.266 . S
In78 O85 2.326 . S
In78 O86 2.266 . S
In78 O87 2.326 . S
In78 O89 2.294 . S
In78 O90 2.326 . S
O79 In78 2.294 . S
O79 C88 1.240 . S
O80 In78 2.326 . S
O80 C88 1.252 . S
C81 O84 1.252 . S
C81 O85 1.260 . S
C82 O89 1.240 . S
C82 O90 1.252 . S
C83 O86 1.252 . S
C83 O87 1.260 . S
O84 In78 2.266 . S
O84 C81 1.252 . S
O85 In78 2.326 . S
O85 C81 1.260 . S
O86 In78 2.266 . S
O86 C83 1.252 . S
O87 In78 2.326 . S
O87 C83 1.260 . S
C88 O79 1.240 . S
C88 O80 1.252 . S
O89 In78 2.294 . S
O89 C82 1.240 . S
O90 In78 2.326 . S
O90 C82 1.252 . S
In91 O92 2.294 . S
In91 O93 2.326 . S
In91 O97 2.266 . S
In91 O98 2.326 . S
In91 O99 2.266 . S
In91 O100 2.326 1_455 S
In91 O102 2.294 . S
In91 O103 2.326 . S
O92 In91 2.294 . S
O92 C101 1.240 . S
O93 In91 2.326 . S
O93 C101 1.252 . S
C94 O97 1.252 . S
C94 O98 1.260 . S
C95 O102 1.240 . S
C95 O103 1.252 . S
C96 O99 1.252 1_655 S
C96 O100 1.260 . S
O97 In91 2.266 . S
O97 C94 1.252 . S
O98 In91 2.326 . S
O98 C94 1.260 . S
O99 In91 2.266 . S
O99 C96 1.252 1_455 S
O100 In91 2.326 1_655 S
O100 C96 1.260 . S
C101 O92 1.240 . S
C101 O93 1.252 . S
O102 In91 2.294 . S
O102 C95 1.240 . S
O103 In91 2.326 . S
O103 C95 1.252 . S
In104 O105 2.294 . S
In104 O106 2.326 . S
In104 O110 2.266 . S
In104 O111 2.326 . S
In104 O112 2.266 . S
In104 O113 2.326 . S
In104 O115 2.294 . S
In104 O116 2.326 . S
O105 In104 2.294 . S
O105 C114 1.240 . S
O106 In104 2.326 . S
O106 C114 1.252 . S
C107 O110 1.252 . S
C107 O111 1.260 . S
C108 O115 1.240 . S
C108 O116 1.252 . S
C109 O112 1.252 . S
C109 O113 1.260 . S
O110 In104 2.266 . S
O110 C107 1.252 . S
O111 In104 2.326 . S
O111 C107 1.260 . S
O112 In104 2.266 . S
O112 C109 1.252 . S
O113 In104 2.326 . S
O113 C109 1.260 . S
C114 O105 1.240 . S
C114 O106 1.252 . S
O115 In104 2.294 . S
O115 C108 1.240 . S
O116 In104 2.326 . S
O116 C108 1.252 . S
In117 O118 2.294 . S
In117 O119 2.326 . S
In117 O123 2.266 . S
In117 O124 2.326 . S
In117 O125 2.266 . S
In117 O126 2.326 . S
In117 O128 2.294 . S
In117 O129 2.326 . S
O118 In117 2.294 . S
O118 C127 1.240 . S
O119 In117 2.326 . S
O119 C127 1.252 . S
C120 O123 1.252 . S
C120 O124 1.260 . S
C121 O128 1.240 . S
C121 O129 1.252 . S
C122 O125 1.252 . S
C122 O126 1.260 . S
O123 In117 2.266 . S
O123 C120 1.252 . S
O124 In117 2.326 . S
O124 C120 1.260 . S
O125 In117 2.266 . S
O125 C122 1.252 . S
O126 In117 2.326 . S
O126 C122 1.260 . S
C127 O118 1.240 . S
C127 O119 1.252 . S
O128 In117 2.294 . S
O128 C121 1.240 . S
O129 In117 2.326 . S
O129 C121 1.252 . S
In130 O131 2.294 . S
In130 O132 2.326 . S
In130 O136 2.266 . S
In130 O137 2.326 . S
In130 O138 2.266 . S
In130 O139 2.326 . S
In130 O141 2.294 . S
In130 O142 2.326 . S
O131 In130 2.294 . S
O131 C140 1.240 . S
O132 In130 2.326 . S
O132 C140 1.252 . S
C133 O136 1.252 . S
C133 O137 1.260 . S
C134 O141 1.240 . S
C134 O142 1.252 . S
C135 O138 1.252 . S
C135 O139 1.260 . S
O136 In130 2.266 . S
O136 C133 1.252 . S
O137 In130 2.326 . S
O137 C133 1.260 . S
O138 In130 2.266 . S
O138 C135 1.252 . S
O139 In130 2.326 . S
O139 C135 1.260 . S
C140 O131 1.240 . S
C140 O132 1.252 . S
O141 In130 2.294 . S
O141 C134 1.240 . S
O142 In130 2.326 . S
O142 C134 1.252 . S
In143 O144 2.294 . S
In143 O145 2.326 . S
In143 O149 2.266 . S
In143 O150 2.326 . S
In143 O151 2.266 . S
In143 O152 2.326 . S
In143 O154 2.294 . S
In143 O155 2.326 . S
O144 In143 2.294 . S
O144 C153 1.240 . S
O145 In143 2.326 . S
O145 C153 1.252 . S
C146 O149 1.252 . S
C146 O150 1.260 . S
C147 O154 1.240 . S
C147 O155 1.252 . S
C148 O151 1.252 . S
C148 O152 1.260 . S
O149 In143 2.266 . S
O149 C146 1.252 . S
O150 In143 2.326 . S
O150 C146 1.260 . S
O151 In143 2.266 . S
O151 C148 1.252 . S
O152 In143 2.326 . S
O152 C148 1.260 . S
C153 O144 1.240 . S
C153 O145 1.252 . S
O154 In143 2.294 . S
O154 C147 1.240 . S
O155 In143 2.326 . S
O155 C147 1.252 . S
In156 O157 2.294 . S
In156 O158 2.326 . S
In156 O162 2.266 . S
In156 O163 2.326 1_554 S
In156 O164 2.266 . S
In156 O165 2.326 . S
In156 O167 2.294 . S
In156 O168 2.326 . S
O157 In156 2.294 . S
O157 C166 1.240 . S
O158 In156 2.326 . S
O158 C166 1.252 . S
C159 O162 1.252 1_556 S
C159 O163 1.260 . S
C160 O167 1.240 . S
C160 O168 1.252 . S
C161 O164 1.252 . S
C161 O165 1.260 . S
O162 In156 2.266 . S
O162 C159 1.252 1_554 S
O163 In156 2.326 1_556 S
O163 C159 1.260 . S
O164 In156 2.266 . S
O164 C161 1.252 . S
O165 In156 2.326 . S
O165 C161 1.260 . S
C166 O157 1.240 . S
C166 O158 1.252 . S
O167 In156 2.294 . S
O167 C160 1.240 . S
O168 In156 2.326 . S
O168 C160 1.252 . S
In169 O170 2.294 . S
In169 O171 2.326 . S
In169 O175 2.266 1_554 S
In169 O176 2.326 1_554 S
In169 O177 2.264 1_554 S
In169 O178 2.322 1_554 S
In169 O180 2.296 . S
In169 O181 2.330 . S
O170 In169 2.294 . S
O170 C179 1.240 . S
O171 In169 2.326 . S
O171 C179 1.252 . S
C172 O175 1.252 . S
C172 O176 1.260 . S
C173 O180 1.240 . S
C173 O181 1.252 . S
C174 O177 1.252 . S
C174 O178 1.260 . S
O175 In169 2.266 1_556 S
O175 C172 1.252 . S
O176 In169 2.326 1_556 S
O176 C172 1.260 . S
O177 In169 2.264 1_556 S
O177 C174 1.252 . S
O178 In169 2.322 1_556 S
O178 C174 1.260 . S
C179 O170 1.240 . S
C179 O171 1.252 . S
O180 In169 2.296 . S
O180 C173 1.240 . S
O181 In169 2.330 . S
O181 C173 1.252 . S
In182 O183 2.294 . S
In182 O184 2.326 . S
In182 O188 2.266 . S
In182 O189 2.326 . S
In182 O190 2.266 . S
In182 O191 2.326 . S
In182 O193 2.294 . S
In182 O194 2.326 . S
O183 In182 2.294 . S
O183 C192 1.240 . S
O184 In182 2.326 . S
O184 C192 1.252 . S
C185 O188 1.252 . S
C185 O189 1.260 . S
C186 O193 1.240 . S
C186 O194 1.252 . S
C187 O190 1.252 . S
C187 O191 1.260 . S
O188 In182 2.266 . S
O188 C185 1.252 . S
O189 In182 2.326 . S
O189 C185 1.260 . S
O190 In182 2.266 . S
O190 C187 1.252 . S
O191 In182 2.326 . S
O191 C187 1.260 . S
C192 O183 1.240 . S
C192 O184 1.252 . S
O193 In182 2.294 . S
O193 C186 1.240 . S
O194 In182 2.326 . S
O194 C186 1.252 . S
In195 O196 2.294 . S
In195 O197 2.326 . S
In195 O201 2.266 . S
In195 O202 2.326 . S
In195 O203 2.266 . S
In195 O204 2.326 . S
In195 O206 2.294 . S
In195 O207 2.326 . S
O196 In195 2.294 . S
O196 C205 1.240 . S
O197 In195 2.326 . S
O197 C205 1.252 . S
C198 O201 1.252 . S
C198 O202 1.260 . S
C199 O206 1.240 . S
C199 O207 1.252 . S
C200 O203 1.252 . S
C200 O204 1.260 . S
O201 In195 2.266 . S
O201 C198 1.252 . S
O202 In195 2.326 . S
O202 C198 1.260 . S
O203 In195 2.266 . S
O203 C200 1.252 . S
O204 In195 2.326 . S
O204 C200 1.260 . S
C205 O196 1.240 . S
C205 O197 1.252 . S
O206 In195 2.294 . S
O206 C199 1.240 . S
O207 In195 2.326 . S
O207 C199 1.252 . S
In208 O209 2.294 . S
In208 O210 2.326 . S
In208 O214 2.266 . S
In208 O215 2.326 . S
In208 O216 2.266 . S
In208 O217 2.326 . S
In208 O219 2.294 . S
In208 O220 2.326 . S
O209 In208 2.294 . S
O209 C218 1.240 . S
O210 In208 2.326 . S
O210 C218 1.252 . S
C211 O214 1.252 . S
C211 O215 1.260 . S
C212 O219 1.240 . S
C212 O220 1.252 . S
C213 O216 1.252 . S
C213 O217 1.260 . S
O214 In208 2.266 . S
O214 C211 1.252 . S
O215 In208 2.326 . S
O215 C211 1.260 . S
O216 In208 2.266 . S
O216 C213 1.252 . S
O217 In208 2.326 . S
O217 C213 1.260 . S
C218 O209 1.240 . S
C218 O210 1.252 . S
O219 In208 2.294 . S
O219 C212 1.240 . S
O220 In208 2.326 . S
O220 C212 1.252 . S
In221 O222 2.294 . S
In221 O223 2.326 . S
In221 O227 2.266 . S
In221 O228 2.326 . S
In221 O229 2.266 . S
In221 O230 2.326 . S
In221 O232 2.294 . S
In221 O233 2.326 . S
O222 In221 2.294 . S
O222 C231 1.240 . S
O223 In221 2.326 . S
O223 C231 1.252 . S
C224 O227 1.252 . S
C224 O228 1.260 . S
C225 O232 1.240 . S
C225 O233 1.252 . S
C226 O229 1.252 . S
C226 O230 1.260 . S
O227 In221 2.266 . S
O227 C224 1.252 . S
O228 In221 2.326 . S
O228 C224 1.260 . S
O229 In221 2.266 . S
O229 C226 1.252 . S
O230 In221 2.326 . S
O230 C226 1.260 . S
C231 O222 1.240 . S
C231 O223 1.252 . S
O232 In221 2.294 . S
O232 C225 1.240 . S
O233 In221 2.326 . S
O233 C225 1.252 . S
In234 O235 2.294 . S
In234 O236 2.326 . S
In234 O240 2.266 . S
In234 O241 2.326 . S
In234 O242 2.266 . S
In234 O243 2.326 . S
In234 O245 2.294 . S
In234 O246 2.326 . S
O235 In234 2.294 . S
O235 C244 1.240 . S
O236 In234 2.326 . S
O236 C244 1.252 . S
C237 O240 1.252 . S
C237 O241 1.260 . S
C238 O245 1.240 . S
C238 O246 1.252 . S
C239 O242 1.252 . S
C239 O243 1.260 . S
O240 In234 2.266 . S
O240 C237 1.252 . S
O241 In234 2.326 . S
O241 C237 1.260 . S
O242 In234 2.266 . S
O242 C239 1.252 . S
O243 In234 2.326 . S
O243 C239 1.260 . S
C244 O235 1.240 . S
C244 O236 1.252 . S
O245 In234 2.294 . S
O245 C238 1.240 . S
O246 In234 2.326 . S
O246 C238 1.252 . S
In247 O248 2.296 1_545 S
In247 O249 2.330 1_545 S
In247 O253 2.264 . S
In247 O254 2.322 . S
In247 O255 2.266 . S
In247 O256 2.326 . S
In247 O258 2.294 1_545 S
In247 O259 2.326 1_545 S
O248 In247 2.296 1_565 S
O248 C257 1.240 . S
O249 In247 2.330 1_565 S
O249 C257 1.252 . S
C250 O253 1.252 . S
C250 O254 1.260 . S
C251 O258 1.240 . S
C251 O259 1.252 . S
C252 O255 1.252 . S
C252 O256 1.260 . S
O253 In247 2.264 . S
O253 C250 1.252 . S
O254 In247 2.322 . S
O254 C250 1.260 . S
O255 In247 2.266 . S
O255 C252 1.252 . S
O256 In247 2.326 . S
O256 C252 1.260 . S
C257 O248 1.240 . S
C257 O249 1.252 . S
O258 In247 2.294 1_565 S
O258 C251 1.240 . S
O259 In247 2.326 1_565 S
O259 C251 1.252 . S
In260 O261 2.294 . S
In260 O262 2.326 . S
In260 O266 2.266 . S
In260 O267 2.326 . S
In260 O268 2.266 . S
In260 O269 2.326 1_554 S
In260 O271 2.294 . S
In260 O272 2.326 . S
O261 In260 2.294 . S
O261 C270 1.240 . S
O262 In260 2.326 . S
O262 C270 1.252 . S
C263 O266 1.252 . S
C263 O267 1.260 . S
C264 O271 1.240 . S
C264 O272 1.252 . S
C265 O268 1.252 1_556 S
C265 O269 1.260 . S
O266 In260 2.266 . S
O266 C263 1.252 . S
O267 In260 2.326 . S
O267 C263 1.260 . S
O268 In260 2.266 . S
O268 C265 1.252 1_554 S
O269 In260 2.326 1_556 S
O269 C265 1.260 . S
C270 O261 1.240 . S
C270 O262 1.252 . S
O271 In260 2.294 . S
O271 C264 1.240 . S
O272 In260 2.326 . S
O272 C264 1.252 . S
In273 O274 2.294 . S
In273 O275 2.326 . S
In273 O279 2.266 . S
In273 O280 2.326 . S
In273 O281 2.266 . S
In273 O282 2.326 . S
In273 O284 2.294 . S
In273 O285 2.326 . S
O274 In273 2.294 . S
O274 C283 1.240 . S
O275 In273 2.326 . S
O275 C283 1.252 . S
C276 O279 1.252 . S
C276 O280 1.260 . S
C277 O284 1.240 . S
C277 O285 1.252 . S
C278 O281 1.252 . S
C278 O282 1.260 . S
O279 In273 2.266 . S
O279 C276 1.252 . S
O280 In273 2.326 . S
O280 C276 1.260 . S
O281 In273 2.266 . S
O281 C278 1.252 . S
O282 In273 2.326 . S
O282 C278 1.260 . S
C283 O274 1.240 . S
C283 O275 1.252 . S
O284 In273 2.294 . S
O284 C277 1.240 . S
O285 In273 2.326 . S
O285 C277 1.252 . S
In286 O287 2.294 . S
In286 O288 2.326 . S
In286 O292 2.266 . S
In286 O293 2.326 . S
In286 O294 2.266 . S
In286 O295 2.326 . S
In286 O297 2.294 . S
In286 O298 2.326 . S
O287 In286 2.294 . S
O287 C296 1.240 . S
O288 In286 2.326 . S
O288 C296 1.252 . S
C289 O292 1.252 . S
C289 O293 1.260 . S
C290 O297 1.240 . S
C290 O298 1.252 . S
C291 O294 1.252 . S
C291 O295 1.260 . S
O292 In286 2.266 . S
O292 C289 1.252 . S
O293 In286 2.326 . S
O293 C289 1.260 . S
O294 In286 2.266 . S
O294 C291 1.252 . S
O295 In286 2.326 . S
O295 C291 1.260 . S
C296 O287 1.240 . S
C296 O288 1.252 . S
O297 In286 2.294 . S
O297 C290 1.240 . S
O298 In286 2.326 . S
O298 C290 1.252 . S
In299 O300 2.294 . S
In299 O301 2.326 . S
In299 O305 2.266 . S
In299 O306 2.326 . S
In299 O307 2.266 . S
In299 O308 2.326 . S
In299 O310 2.294 . S
In299 O311 2.326 . S
O300 In299 2.294 . S
O300 C309 1.240 . S
O301 In299 2.326 . S
O301 C309 1.252 . S
C302 O305 1.252 . S
C302 O306 1.260 . S
C303 O310 1.240 . S
C303 O311 1.252 . S
C304 O307 1.252 . S
C304 O308 1.260 . S
O305 In299 2.266 . S
O305 C302 1.252 . S
O306 In299 2.326 . S
O306 C302 1.260 . S
O307 In299 2.266 . S
O307 C304 1.252 . S
O308 In299 2.326 . S
O308 C304 1.260 . S
C309 O300 1.240 . S
C309 O301 1.252 . S
O310 In299 2.294 . S
O310 C303 1.240 . S
O311 In299 2.326 . S
O311 C303 1.252 . S
Pr312 C314 2.880 . S
Pr312 O332 2.562 . S
Pr312 O333 2.490 . S
Pr312 O334 2.695 . S
Pr312 O335 2.517 1_554 S
Pr312 O337 2.437 . S
Pr312 O340 2.436 . S
Pr312 O342 2.438 . S
Pr313 C323 2.880 . S
Pr313 O334 2.436 . S
Pr313 O336 2.438 . S
Pr313 O338 2.562 . S
Pr313 O339 2.490 . S
Pr313 O340 2.695 . S
Pr313 O341 2.512 . S
Pr313 O343 2.437 . S
C314 Pr312 2.880 . S
C314 C315 1.491 1_455 S
C314 O332 1.254 . S
C314 O333 1.225 . S
C315 C314 1.491 1_655 S
C315 C316 1.392 1_554 S
C315 C320 1.356 . S
C316 C315 1.392 1_556 S
C316 C317 1.368 . S
C316 H344 0.929 . S
C317 C316 1.368 . S
C317 C318 1.386 . S
C317 H345 0.929 . S
C318 C317 1.386 . S
C318 C319 1.373 1_556 S
C319 C318 1.373 1_554 S
C319 C320 1.409 . S
C319 H346 0.931 . S
C320 C315 1.356 . S
C320 C319 1.409 . S
C320 H347 0.930 . S
C321 O334 1.270 . S
C321 O335 1.250 1_554 S
C322 O336 1.267 . S
C322 O337 1.278 . S
C323 Pr313 2.880 . S
C323 C324 1.491 . S
C323 O338 1.254 . S
C323 O339 1.225 . S
C324 C323 1.491 . S
C324 C325 1.392 . S
C324 C329 1.356 . S
C325 C324 1.392 . S
C325 C326 1.368 . S
C325 H348 0.929 . S
C326 C325 1.368 . S
C326 C327 1.386 . S
C326 H349 0.929 . S
C327 C326 1.386 . S
C327 C328 1.373 . S
C328 C327 1.373 . S
C328 C329 1.409 . S
C328 H350 0.931 . S
C329 C324 1.356 . S
C329 C328 1.409 . S
C329 H351 0.930 . S
C330 O340 1.270 . S
C330 O341 1.248 . S
C331 O342 1.267 . S
C331 O343 1.278 . S
O332 Pr312 2.562 . S
O332 C314 1.254 . S
O333 Pr312 2.490 . S
O333 C314 1.225 . S
O334 Pr312 2.695 . S
O334 Pr313 2.436 . S
O334 C321 1.270 . S
O335 Pr312 2.517 1_556 S
O335 C321 1.250 1_556 S
O336 Pr313 2.438 . S
O336 C322 1.267 . S
O337 Pr312 2.437 . S
O337 C322 1.278 . S
O338 Pr313 2.562 . S
O338 C323 1.254 . S
O339 Pr313 2.490 . S
O339 C323 1.225 . S
O340 Pr312 2.436 . S
O340 Pr313 2.695 . S
O340 C330 1.270 . S
O341 Pr313 2.512 . S
O341 C330 1.248 . S
O342 Pr312 2.438 . S
O342 C331 1.267 . S
O343 Pr313 2.437 . S
O343 C331 1.278 . S
H344 C316 0.929 . S
H345 C317 0.929 . S
H346 C319 0.931 . S
H347 C320 0.930 . S
H348 C325 0.929 . S
H349 C326 0.929 . S
H350 C328 0.931 . S
H351 C329 0.930 . S
Pr352 C354 2.880 . S
Pr352 O372 2.562 . S
Pr352 O373 2.490 . S
Pr352 O374 2.695 . S
Pr352 O375 2.512 . S
Pr352 O377 2.437 . S
Pr352 O380 2.436 . S
Pr352 O382 2.438 . S
Pr353 C363 2.880 . S
Pr353 O374 2.436 . S
Pr353 O376 2.438 . S
Pr353 O378 2.562 . S
Pr353 O379 2.490 . S
Pr353 O380 2.695 . S
Pr353 O381 2.512 . S
Pr353 O383 2.437 . S
C354 Pr352 2.880 . S
C354 C355 1.491 . S
C354 O372 1.254 . S
C354 O373 1.225 . S
C355 C354 1.491 . S
C355 C356 1.392 . S
C355 C360 1.356 . S
C356 C355 1.392 . S
C356 C357 1.368 . S
C356 H384 0.929 . S
C357 C356 1.368 . S
C357 C358 1.386 . S
C357 H385 0.929 . S
C358 C357 1.386 . S
C358 C359 1.373 . S
C359 C358 1.373 . S
C359 C360 1.409 . S
C359 H386 0.931 . S
C360 C355 1.356 . S
C360 C359 1.409 . S
C360 H387 0.930 . S
C361 O374 1.270 . S
C361 O375 1.248 . S
C362 O376 1.267 . S
C362 O377 1.278 . S
C363 Pr353 2.880 . S
C363 C364 1.491 . S
C363 O378 1.254 . S
C363 O379 1.225 . S
C364 C363 1.491 . S
C364 C365 1.392 . S
C364 C369 1.356 . S
C365 C364 1.392 . S
C365 C366 1.368 . S
C365 H388 0.929 . S
C366 C365 1.368 . S
C366 C367 1.386 . S
C366 H389 0.929 . S
C367 C366 1.386 . S
C367 C368 1.373 . S
C368 C367 1.373 . S
C368 C369 1.409 . S
C368 H390 0.931 . S
C369 C364 1.356 . S
C369 C368 1.409 . S
C369 H391 0.930 . S
C370 O380 1.270 . S
C370 O381 1.248 . S
C371 O382 1.267 . S
C371 O383 1.278 . S
O372 Pr352 2.562 . S
O372 C354 1.254 . S
O373 Pr352 2.490 . S
O373 C354 1.225 . S
O374 Pr352 2.695 . S
O374 Pr353 2.436 . S
O374 C361 1.270 . S
O375 Pr352 2.512 . S
O375 C361 1.248 . S
O376 Pr353 2.438 . S
O376 C362 1.267 . S
O377 Pr352 2.437 . S
O377 C362 1.278 . S
O378 Pr353 2.562 . S
O378 C363 1.254 . S
O379 Pr353 2.490 . S
O379 C363 1.225 . S
O380 Pr352 2.436 . S
O380 Pr353 2.695 . S
O380 C370 1.270 . S
O381 Pr353 2.512 . S
O381 C370 1.248 . S
O382 Pr352 2.438 . S
O382 C371 1.267 . S
O383 Pr353 2.437 . S
O383 C371 1.278 . S
H384 C356 0.929 . S
H385 C357 0.929 . S
H386 C359 0.931 . S
H387 C360 0.930 . S
H388 C365 0.929 . S
H389 C366 0.929 . S
H390 C368 0.931 . S
H391 C369 0.930 . S
Pr392 C394 2.880 . S
Pr392 O412 2.562 . S
Pr392 O413 2.490 . S
Pr392 O414 2.695 . S
Pr392 O415 2.512 . S
Pr392 O417 2.437 . S
Pr392 O420 2.436 . S
Pr392 O422 2.438 . S
Pr393 C403 2.880 . S
Pr393 O414 2.436 . S
Pr393 O416 2.438 . S
Pr393 O418 2.562 . S
Pr393 O419 2.490 . S
Pr393 O420 2.695 . S
Pr393 O421 2.512 . S
Pr393 O423 2.437 . S
C394 Pr392 2.880 . S
C394 C395 1.491 . S
C394 O412 1.254 . S
C394 O413 1.225 . S
C395 C394 1.491 . S
C395 C396 1.392 . S
C395 C400 1.356 . S
C396 C395 1.392 . S
C396 C397 1.368 . S
C396 H424 0.929 . S
C397 C396 1.368 . S
C397 C398 1.350 1_545 S
C397 H425 0.929 . S
C398 C397 1.350 1_565 S
C398 C399 1.380 . S
C399 C398 1.380 . S
C399 C400 1.409 1_565 S
C399 H426 0.931 . S
C400 C395 1.356 . S
C400 C399 1.409 1_545 S
C400 H427 0.930 . S
C401 O414 1.270 . S
C401 O415 1.248 . S
C402 O416 1.267 . S
C402 O417 1.278 . S
C403 Pr393 2.880 . S
C403 C404 1.491 . S
C403 O418 1.254 . S
C403 O419 1.225 . S
C404 C403 1.491 . S
C404 C405 1.392 . S
C404 C409 1.356 . S
C405 C404 1.392 . S
C405 C406 1.368 . S
C405 H428 0.929 . S
C406 C405 1.368 . S
C406 C407 1.386 . S
C406 H429 0.929 . S
C407 C406 1.386 . S
C407 C408 1.373 . S
C408 C407 1.373 . S
C408 C409 1.409 . S
C408 H430 0.931 . S
C409 C404 1.356 . S
C409 C408 1.409 . S
C409 H431 0.930 . S
C410 O420 1.270 . S
C410 O421 1.248 . S
C411 O422 1.267 . S
C411 O423 1.278 . S
O412 Pr392 2.562 . S
O412 C394 1.254 . S
O413 Pr392 2.490 . S
O413 C394 1.225 . S
O414 Pr392 2.695 . S
O414 Pr393 2.436 . S
O414 C401 1.270 . S
O415 Pr392 2.512 . S
O415 C401 1.248 . S
O416 Pr393 2.438 . S
O416 C402 1.267 . S
O417 Pr392 2.437 . S
O417 C402 1.278 . S
O418 Pr393 2.562 . S
O418 C403 1.254 . S
O419 Pr393 2.490 . S
O419 C403 1.225 . S
O420 Pr392 2.436 . S
O420 Pr393 2.695 . S
O420 C410 1.270 . S
O421 Pr393 2.512 . S
O421 C410 1.248 . S
O422 Pr392 2.438 . S
O422 C411 1.267 . S
O423 Pr393 2.437 . S
O423 C411 1.278 . S
H424 C396 0.929 . S
H425 C397 0.929 . S
H426 C399 0.931 . S
H427 C400 0.930 . S
H428 C405 0.929 . S
H429 C406 0.929 . S
H430 C408 0.931 . S
H431 C409 0.930 . S
Pr432 C434 2.880 . S
Pr432 O452 2.562 . S
Pr432 O453 2.490 . S
Pr432 O454 2.695 . S
Pr432 O455 2.512 . S
Pr432 O457 2.437 . S
Pr432 O460 2.436 . S
Pr432 O462 2.438 . S
Pr433 C443 2.880 . S
Pr433 O454 2.436 . S
Pr433 O456 2.438 . S
Pr433 O458 2.562 . S
Pr433 O459 2.490 . S
Pr433 O460 2.695 . S
Pr433 O461 2.512 . S
Pr433 O463 2.437 . S
C434 Pr432 2.880 . S
C434 C435 1.491 . S
C434 O452 1.254 . S
C434 O453 1.225 . S
C435 C434 1.491 . S
C435 C436 1.392 . S
C435 C440 1.356 . S
C436 C435 1.392 . S
C436 C437 1.368 . S
C436 H464 0.929 . S
C437 C436 1.368 . S
C437 C438 1.386 . S
C437 H465 0.929 . S
C438 C437 1.386 . S
C438 C439 1.373 . S
C439 C438 1.373 . S
C439 C440 1.409 . S
C439 H466 0.931 . S
C440 C435 1.356 . S
C440 C439 1.409 . S
C440 H467 0.930 . S
C441 O454 1.270 . S
C441 O455 1.248 . S
C442 O456 1.267 . S
C442 O457 1.278 . S
C443 Pr433 2.880 . S
C443 C444 1.491 . S
C443 O458 1.254 . S
C443 O459 1.225 . S
C444 C443 1.491 . S
C444 C445 1.392 . S
C444 C449 1.356 . S
C445 C444 1.392 . S
C445 C446 1.368 . S
C445 H468 0.929 . S
C446 C445 1.368 . S
C446 C447 1.386 . S
C446 H469 0.929 . S
C447 C446 1.386 . S
C447 C448 1.373 . S
C448 C447 1.373 . S
C448 C449 1.409 . S
C448 H470 0.931 . S
C449 C444 1.356 . S
C449 C448 1.409 . S
C449 H471 0.930 . S
C450 O460 1.270 . S
C450 O461 1.248 . S
C451 O462 1.267 . S
C451 O463 1.278 . S
O452 Pr432 2.562 . S
O452 C434 1.254 . S
O453 Pr432 2.490 . S
O453 C434 1.225 . S
O454 Pr432 2.695 . S
O454 Pr433 2.436 . S
O454 C441 1.270 . S
O455 Pr432 2.512 . S
O455 C441 1.248 . S
O456 Pr433 2.438 . S
O456 C442 1.267 . S
O457 Pr432 2.437 . S
O457 C442 1.278 . S
O458 Pr433 2.562 . S
O458 C443 1.254 . S
O459 Pr433 2.490 . S
O459 C443 1.225 . S
O460 Pr432 2.436 . S
O460 Pr433 2.695 . S
O460 C450 1.270 . S
O461 Pr433 2.512 . S
O461 C450 1.248 . S
O462 Pr432 2.438 . S
O462 C451 1.267 . S
O463 Pr433 2.437 . S
O463 C451 1.278 . S
H464 C436 0.929 . S
H465 C437 0.929 . S
H466 C439 0.931 . S
H467 C440 0.930 . S
H468 C445 0.929 . S
H469 C446 0.929 . S
H470 C448 0.931 . S
H471 C449 0.930 . S
Pr472 C474 2.880 . S
Pr472 O492 2.562 . S
Pr472 O493 2.490 . S
Pr472 O494 2.695 . S
Pr472 O495 2.512 . S
Pr472 O497 2.437 . S
Pr472 O500 2.436 . S
Pr472 O502 2.438 . S
Pr473 C483 2.880 . S
Pr473 O494 2.436 . S
Pr473 O496 2.438 . S
Pr473 O498 2.562 . S
Pr473 O499 2.490 . S
Pr473 O500 2.695 . S
Pr473 O501 2.512 . S
Pr473 O503 2.437 . S
C474 Pr472 2.880 . S
C474 C475 1.491 . S
C474 O492 1.254 . S
C474 O493 1.225 . S
C475 C474 1.491 . S
C475 C476 1.392 . S
C475 C480 1.356 . S
C476 C475 1.392 . S
C476 C477 1.368 . S
C476 H504 0.929 . S
C477 C476 1.368 . S
C477 C478 1.386 . S
C477 H505 0.929 . S
C478 C477 1.386 . S
C478 C479 1.373 . S
C479 C478 1.373 . S
C479 C480 1.409 . S
C479 H506 0.931 1_455 S
C480 C475 1.356 . S
C480 C479 1.409 . S
C480 H507 0.930 . S
C481 O494 1.270 . S
C481 O495 1.248 . S
C482 O496 1.267 . S
C482 O497 1.278 . S
C483 Pr473 2.880 . S
C483 C484 1.491 . S
C483 O498 1.254 . S
C483 O499 1.225 . S
C484 C483 1.491 . S
C484 C485 1.392 . S
C484 C489 1.356 . S
C485 C484 1.392 . S
C485 C486 1.368 . S
C485 H508 0.929 . S
C486 C485 1.368 . S
C486 C487 1.386 . S
C486 H509 0.929 . S
C487 C486 1.386 . S
C487 C488 1.373 . S
C488 C487 1.373 . S
C488 C489 1.409 . S
C488 H510 0.931 . S
C489 C484 1.356 . S
C489 C488 1.409 . S
C489 H511 0.930 . S
C490 O500 1.270 . S
C490 O501 1.248 . S
C491 O502 1.267 . S
C491 O503 1.278 . S
O492 Pr472 2.562 . S
O492 C474 1.254 . S
O493 Pr472 2.490 . S
O493 C474 1.225 . S
O494 Pr472 2.695 . S
O494 Pr473 2.436 . S
O494 C481 1.270 . S
O495 Pr472 2.512 . S
O495 C481 1.248 . S
O496 Pr473 2.438 . S
O496 C482 1.267 . S
O497 Pr472 2.437 . S
O497 C482 1.278 . S
O498 Pr473 2.562 . S
O498 C483 1.254 . S
O499 Pr473 2.490 . S
O499 C483 1.225 . S
O500 Pr472 2.436 . S
O500 Pr473 2.695 . S
O500 C490 1.270 . S
O501 Pr473 2.512 . S
O501 C490 1.248 . S
O502 Pr472 2.438 . S
O502 C491 1.267 . S
O503 Pr473 2.437 . S
O503 C491 1.278 . S
H504 C476 0.929 . S
H505 C477 0.929 . S
H506 C479 0.931 1_655 S
H507 C480 0.930 . S
H508 C485 0.929 . S
H509 C486 0.929 . S
H510 C488 0.931 . S
H511 C489 0.930 . S
Pr512 C514 2.880 . S
Pr512 O532 2.562 . S
Pr512 O533 2.490 . S
Pr512 O534 2.695 . S
Pr512 O535 2.512 . S
Pr512 O537 2.437 . S
Pr512 O540 2.436 . S
Pr512 O542 2.438 . S
Pr513 C523 2.880 . S
Pr513 O534 2.436 . S
Pr513 O536 2.438 . S
Pr513 O538 2.562 . S
Pr513 O539 2.490 . S
Pr513 O540 2.695 . S
Pr513 O541 2.512 . S
Pr513 O543 2.437 . S
C514 Pr512 2.880 . S
C514 C515 1.491 . S
C514 O532 1.254 . S
C514 O533 1.225 . S
C515 C514 1.491 . S
C515 C516 1.392 . S
C515 C520 1.356 . S
C516 C515 1.392 . S
C516 C517 1.368 . S
C516 H544 0.929 . S
C517 C516 1.368 . S
C517 C518 1.386 . S
C517 H545 0.929 . S
C518 C517 1.386 . S
C518 C519 1.373 . S
C519 C518 1.373 . S
C519 C520 1.409 . S
C519 H546 0.931 . S
C520 C515 1.356 . S
C520 C519 1.409 . S
C520 H547 0.930 . S
C521 O534 1.270 . S
C521 O535 1.248 . S
C522 O536 1.267 . S
C522 O537 1.278 . S
C523 Pr513 2.880 . S
C523 C524 1.491 . S
C523 O538 1.254 . S
C523 O539 1.225 . S
C524 C523 1.491 . S
C524 C525 1.392 . S
C524 C529 1.356 . S
C525 C524 1.392 . S
C525 C526 1.368 . S
C525 H548 0.929 . S
C526 C525 1.368 . S
C526 C527 1.386 . S
C526 H549 0.929 . S
C527 C526 1.386 . S
C527 C528 1.373 . S
C528 C527 1.373 . S
C528 C529 1.409 . S
C528 H550 0.931 . S
C529 C524 1.356 . S
C529 C528 1.409 . S
C529 H551 0.930 . S
C530 O540 1.270 . S
C530 O541 1.248 . S
C531 O542 1.267 . S
C531 O543 1.278 . S
O532 Pr512 2.562 . S
O532 C514 1.254 . S
O533 Pr512 2.490 . S
O533 C514 1.225 . S
O534 Pr512 2.695 . S
O534 Pr513 2.436 . S
O534 C521 1.270 . S
O535 Pr512 2.512 . S
O535 C521 1.248 . S
O536 Pr513 2.438 . S
O536 C522 1.267 . S
O537 Pr512 2.437 . S
O537 C522 1.278 . S
O538 Pr513 2.562 . S
O538 C523 1.254 . S
O539 Pr513 2.490 . S
O539 C523 1.225 . S
O540 Pr512 2.436 . S
O540 Pr513 2.695 . S
O540 C530 1.270 . S
O541 Pr513 2.512 . S
O541 C530 1.248 . S
O542 Pr512 2.438 . S
O542 C531 1.267 . S
O543 Pr513 2.437 . S
O543 C531 1.278 . S
H544 C516 0.929 . S
H545 C517 0.929 . S
H546 C519 0.931 . S
H547 C520 0.930 . S
H548 C525 0.929 . S
H549 C526 0.929 . S
H550 C528 0.931 . S
H551 C529 0.930 . S
Pr552 C554 2.880 . S
Pr552 O572 2.562 . S
Pr552 O573 2.490 . S
Pr552 O574 2.695 . S
Pr552 O575 2.512 . S
Pr552 O577 2.437 . S
Pr552 O580 2.436 . S
Pr552 O582 2.438 . S
Pr553 C563 2.880 . S
Pr553 O574 2.436 1_556 S
Pr553 O576 2.425 1_556 S
Pr553 O578 2.562 . S
Pr553 O579 2.490 . S
Pr553 O580 2.695 1_556 S
Pr553 O581 2.527 . S
Pr553 O583 2.437 . S
C554 Pr552 2.880 . S
C554 C555 1.491 . S
C554 O572 1.254 . S
C554 O573 1.225 . S
C555 C554 1.491 . S
C555 C556 1.392 . S
C555 C560 1.356 . S
C556 C555 1.392 . S
C556 C557 1.368 . S
C556 H584 0.929 . S
C557 C556 1.368 . S
C557 C558 1.386 . S
C557 H585 0.929 . S
C558 C557 1.386 . S
C558 C559 1.373 . S
C559 C558 1.373 . S
C559 C560 1.409 . S
C559 H586 0.931 . S
C560 C555 1.356 . S
C560 C559 1.409 . S
C560 H587 0.930 . S
C561 O574 1.270 . S
C561 O575 1.248 . S
C562 O576 1.289 . S
C562 O577 1.278 . S
C563 Pr553 2.880 . S
C563 C564 1.491 . S
C563 O578 1.254 . S
C563 O579 1.225 . S
C564 C563 1.491 . S
C564 C565 1.392 . S
C564 C569 1.356 . S
C565 C564 1.392 . S
C565 C566 1.368 . S
C565 H588 0.929 . S
C566 C565 1.368 . S
C566 C567 1.386 . S
C566 H589 0.929 . S
C567 C566 1.386 . S
C567 C568 1.373 . S
C568 C567 1.373 . S
C568 C569 1.409 . S
C568 H590 0.931 . S
C569 C564 1.356 . S
C569 C568 1.409 . S
C569 H591 0.930 . S
C570 O580 1.270 . S
C570 O581 1.201 1_554 S
C571 O582 1.267 . S
C571 O583 1.278 1_554 S
O572 Pr552 2.562 . S
O572 C554 1.254 . S
O573 Pr552 2.490 . S
O573 C554 1.225 . S
O574 Pr552 2.695 . S
O574 Pr553 2.436 1_554 S
O574 C561 1.270 . S
O575 Pr552 2.512 . S
O575 C561 1.248 . S
O576 Pr553 2.425 1_554 S
O576 C562 1.289 . S
O577 Pr552 2.437 . S
O577 C562 1.278 . S
O578 Pr553 2.562 . S
O578 C563 1.254 . S
O579 Pr553 2.490 . S
O579 C563 1.225 . S
O580 Pr552 2.436 . S
O580 Pr553 2.695 1_554 S
O580 C570 1.270 . S
O581 Pr553 2.527 . S
O581 C570 1.201 1_556 S
O582 Pr552 2.438 . S
O582 C571 1.267 . S
O583 Pr553 2.437 . S
O583 C571 1.278 1_556 S
H584 C556 0.929 . S
H585 C557 0.929 . S
H586 C559 0.931 . S
H587 C560 0.930 . S
H588 C565 0.929 . S
H589 C566 0.929 . S
H590 C568 0.931 . S
H591 C569 0.930 . S
Pr592 C594 2.880 . S
Pr592 O612 2.562 . S
Pr592 O613 2.490 . S
Pr592 O614 2.695 . S
Pr592 O615 2.512 . S
Pr592 O617 2.437 . S
Pr592 O620 2.436 . S
Pr592 O622 2.438 . S
Pr593 C603 2.880 . S
Pr593 O614 2.436 . S
Pr593 O616 2.438 . S
Pr593 O618 2.562 . S
Pr593 O619 2.490 . S
Pr593 O620 2.695 . S
Pr593 O621 2.512 . S
Pr593 O623 2.437 . S
C594 Pr592 2.880 . S
C594 C595 1.491 . S
C594 O612 1.254 . S
C594 O613 1.225 . S
C595 C594 1.491 . S
C595 C596 1.392 . S
C595 C600 1.356 . S
C596 C595 1.392 . S
C596 C597 1.368 . S
C596 H624 0.929 . S
C597 C596 1.368 . S
C597 C598 1.386 . S
C597 H625 0.929 . S
C598 C597 1.386 . S
C598 C599 1.373 . S
C599 C598 1.373 . S
C599 C600 1.409 . S
C599 H626 0.931 . S
C600 C595 1.356 . S
C600 C599 1.409 . S
C600 H627 0.930 . S
C601 O614 1.270 . S
C601 O615 1.248 . S
C602 O616 1.267 . S
C602 O617 1.278 . S
C603 Pr593 2.880 . S
C603 C604 1.491 . S
C603 O618 1.254 . S
C603 O619 1.225 . S
C604 C603 1.491 . S
C604 C605 1.392 . S
C604 C609 1.356 . S
C605 C604 1.392 . S
C605 C606 1.368 . S
C605 H628 0.929 . S
C606 C605 1.368 . S
C606 C607 1.386 . S
C606 H629 0.929 . S
C607 C606 1.386 . S
C607 C608 1.373 . S
C608 C607 1.373 . S
C608 C609 1.409 . S
C608 H630 0.931 . S
C609 C604 1.356 . S
C609 C608 1.409 . S
C609 H631 0.930 . S
C610 O620 1.270 . S
C610 O621 1.248 . S
C611 O622 1.267 . S
C611 O623 1.278 . S
O612 Pr592 2.562 . S
O612 C594 1.254 . S
O613 Pr592 2.490 . S
O613 C594 1.225 . S
O614 Pr592 2.695 . S
O614 Pr593 2.436 . S
O614 C601 1.270 . S
O615 Pr592 2.512 . S
O615 C601 1.248 . S
O616 Pr593 2.438 . S
O616 C602 1.267 . S
O617 Pr592 2.437 . S
O617 C602 1.278 . S
O618 Pr593 2.562 . S
O618 C603 1.254 . S
O619 Pr593 2.490 . S
O619 C603 1.225 . S
O620 Pr592 2.436 . S
O620 Pr593 2.695 . S
O620 C610 1.270 . S
O621 Pr593 2.512 . S
O621 C610 1.248 . S
O622 Pr592 2.438 . S
O622 C611 1.267 . S
O623 Pr593 2.437 . S
O623 C611 1.278 . S
H624 C596 0.929 . S
H625 C597 0.929 . S
H626 C599 0.931 . S
H627 C600 0.930 . S
H628 C605 0.929 . S
H629 C606 0.929 . S
H630 C608 0.931 . S
H631 C609 0.930 . S
Pr632 C634 2.880 . S
Pr632 O652 2.562 . S
Pr632 O653 2.490 . S
Pr632 O654 2.695 1_556 S
Pr632 O655 2.512 . S
Pr632 O657 2.437 . S
Pr632 O660 2.436 1_556 S
Pr632 O662 2.438 1_556 S
Pr633 C643 2.880 . S
Pr633 O654 2.436 . S
Pr633 O656 2.438 . S
Pr633 O658 2.562 . S
Pr633 O659 2.490 . S
Pr633 O660 2.695 . S
Pr633 O661 2.512 . S
Pr633 O663 2.437 . S
C634 Pr632 2.880 . S
C634 C635 1.491 . S
C634 O652 1.254 . S
C634 O653 1.225 . S
C635 C634 1.491 . S
C635 C636 1.392 . S
C635 C640 1.356 . S
C636 C635 1.392 . S
C636 C637 1.368 . S
C636 H664 0.929 . S
C637 C636 1.368 . S
C637 C638 1.386 . S
C637 H665 0.929 . S
C638 C637 1.386 . S
C638 C639 1.373 . S
C639 C638 1.373 . S
C639 C640 1.409 . S
C639 H666 0.931 . S
C640 C635 1.356 . S
C640 C639 1.409 . S
C640 H667 0.930 . S
C641 O654 1.270 . S
C641 O655 1.248 1_554 S
C642 O656 1.265 1_556 S
C642 O657 1.279 . S
C643 Pr633 2.880 . S
C643 C644 1.491 . S
C643 O658 1.254 . S
C643 O659 1.225 . S
C644 C643 1.491 . S
C644 C645 1.392 . S
C644 C649 1.356 . S
C645 C644 1.392 . S
C645 C646 1.368 . S
C645 H668 0.929 . S
C646 C645 1.368 . S
C646 C647 1.386 . S
C646 H669 0.929 . S
C647 C646 1.386 . S
C647 C648 1.373 . S
C648 C647 1.373 . S
C648 C649 1.409 . S
C648 H670 0.931 . S
C649 C644 1.356 . S
C649 C648 1.409 . S
C649 H671 0.930 . S
C650 O660 1.270 . S
C650 O661 1.248 . S
C651 O662 1.267 . S
C651 O663 1.278 . S
O652 Pr632 2.562 . S
O652 C634 1.254 . S
O653 Pr632 2.490 . S
O653 C634 1.225 . S
O654 Pr632 2.695 1_554 S
O654 Pr633 2.436 . S
O654 C641 1.270 . S
O655 Pr632 2.512 . S
O655 C641 1.248 1_556 S
O656 Pr633 2.438 . S
O656 C642 1.265 1_554 S
O657 Pr632 2.437 . S
O657 C642 1.279 . S
O658 Pr633 2.562 . S
O658 C643 1.254 . S
O659 Pr633 2.490 . S
O659 C643 1.225 . S
O660 Pr632 2.436 1_554 S
O660 Pr633 2.695 . S
O660 C650 1.270 . S
O661 Pr633 2.512 . S
O661 C650 1.248 . S
O662 Pr632 2.438 1_554 S
O662 C651 1.267 . S
O663 Pr633 2.437 . S
O663 C651 1.278 . S
H664 C636 0.929 . S
H665 C637 0.929 . S
H666 C639 0.931 . S
H667 C640 0.930 . S
H668 C645 0.929 . S
H669 C646 0.929 . S
H670 C648 0.931 . S
H671 C649 0.930 . S
Pr672 C674 2.880 . S
Pr672 O692 2.562 . S
Pr672 O693 2.490 . S
Pr672 O694 2.695 . S
Pr672 O695 2.512 . S
Pr672 O697 2.437 . S
Pr672 O700 2.436 . S
Pr672 O702 2.438 . S
Pr673 C683 2.880 . S
Pr673 O694 2.436 . S
Pr673 O696 2.438 . S
Pr673 O698 2.562 . S
Pr673 O699 2.490 . S
Pr673 O700 2.695 . S
Pr673 O701 2.512 . S
Pr673 O703 2.437 . S
C674 Pr672 2.880 . S
C674 C675 1.491 . S
C674 O692 1.254 . S
C674 O693 1.225 . S
C675 C674 1.491 . S
C675 C676 1.392 . S
C675 C680 1.356 . S
C676 C675 1.392 . S
C676 C677 1.368 . S
C676 H704 0.929 . S
C677 C676 1.368 . S
C677 C678 1.386 . S
C677 H705 0.929 . S
C678 C677 1.386 . S
C678 C679 1.373 . S
C679 C678 1.373 . S
C679 C680 1.409 . S
C679 H706 0.931 . S
C680 C675 1.356 . S
C680 C679 1.409 . S
C680 H707 0.930 . S
C681 O694 1.270 . S
C681 O695 1.248 . S
C682 O696 1.267 . S
C682 O697 1.278 . S
C683 Pr673 2.880 . S
C683 C684 1.491 . S
C683 O698 1.254 . S
C683 O699 1.225 . S
C684 C683 1.491 . S
C684 C685 1.392 . S
C684 C689 1.356 . S
C685 C684 1.392 . S
C685 C686 1.368 . S
C685 H708 0.929 . S
C686 C685 1.368 . S
C686 C687 1.386 . S
C686 H709 0.929 . S
C687 C686 1.386 . S
C687 C688 1.373 . S
C688 C687 1.373 . S
C688 C689 1.409 . S
C688 H710 0.931 . S
C689 C684 1.356 . S
C689 C688 1.409 . S
C689 H711 0.930 . S
C690 O700 1.270 . S
C690 O701 1.248 . S
C691 O702 1.267 . S
C691 O703 1.278 . S
O692 Pr672 2.562 . S
O692 C674 1.254 . S
O693 Pr672 2.490 . S
O693 C674 1.225 . S
O694 Pr672 2.695 . S
O694 Pr673 2.436 . S
O694 C681 1.270 . S
O695 Pr672 2.512 . S
O695 C681 1.248 . S
O696 Pr673 2.438 . S
O696 C682 1.267 . S
O697 Pr672 2.437 . S
O697 C682 1.278 . S
O698 Pr673 2.562 . S
O698 C683 1.254 . S
O699 Pr673 2.490 . S
O699 C683 1.225 . S
O700 Pr672 2.436 . S
O700 Pr673 2.695 . S
O700 C690 1.270 . S
O701 Pr673 2.512 . S
O701 C690 1.248 . S
O702 Pr672 2.438 . S
O702 C691 1.267 . S
O703 Pr673 2.437 . S
O703 C691 1.278 . S
H704 C676 0.929 . S
H705 C677 0.929 . S
H706 C679 0.931 . S
H707 C680 0.930 . S
H708 C685 0.929 . S
H709 C686 0.929 . S
H710 C688 0.931 . S
H711 C689 0.930 . S
Pr712 C714 2.880 . S
Pr712 O732 2.562 . S
Pr712 O733 2.490 . S
Pr712 O734 2.695 . S
Pr712 O735 2.512 . S
Pr712 O737 2.437 . S
Pr712 O740 2.436 . S
Pr712 O742 2.438 . S
Pr713 C723 2.880 . S
Pr713 O734 2.436 . S
Pr713 O736 2.438 1_455 S
Pr713 O738 2.562 . S
Pr713 O739 2.490 . S
Pr713 O740 2.695 . S
Pr713 O741 2.512 . S
Pr713 O743 2.437 . S
C714 Pr712 2.880 . S
C714 C715 1.491 . S
C714 O732 1.254 . S
C714 O733 1.225 . S
C715 C714 1.491 . S
C715 C716 1.392 . S
C715 C720 1.356 . S
C716 C715 1.392 . S
C716 C717 1.368 . S
C716 H744 0.929 . S
C717 C716 1.368 . S
C717 C718 1.386 1_455 S
C717 H745 0.929 . S
C718 C717 1.386 1_655 S
C718 C719 1.373 . S
C719 C718 1.373 . S
C719 C720 1.409 1_655 S
C719 H746 0.931 . S
C720 C715 1.356 . S
C720 C719 1.409 1_455 S
C720 H747 0.938 . S
C721 O734 1.270 . S
C721 O735 1.248 . S
C722 O736 1.267 . S
C722 O737 1.278 1_655 S
C723 Pr713 2.880 . S
C723 C724 1.491 . S
C723 O738 1.254 . S
C723 O739 1.225 . S
C724 C723 1.491 . S
C724 C725 1.392 . S
C724 C729 1.356 . S
C725 C724 1.392 . S
C725 C726 1.368 . S
C725 H748 0.929 . S
C726 C725 1.368 . S
C726 C727 1.386 . S
C726 H749 0.929 . S
C727 C726 1.386 . S
C727 C728 1.373 . S
C728 C727 1.373 . S
C728 C729 1.409 . S
C728 H750 0.931 . S
C729 C724 1.356 . S
C729 C728 1.409 . S
C729 H751 0.930 . S
C730 O740 1.270 . S
C730 O741 1.248 . S
C731 O742 1.267 . S
C731 O743 1.278 . S
O732 Pr712 2.562 . S
O732 C714 1.254 . S
O733 Pr712 2.490 . S
O733 C714 1.225 . S
O734 Pr712 2.695 . S
O734 Pr713 2.436 . S
O734 C721 1.270 . S
O735 Pr712 2.512 . S
O735 C721 1.248 . S
O736 Pr713 2.438 1_655 S
O736 C722 1.267 . S
O737 Pr712 2.437 . S
O737 C722 1.278 1_455 S
O738 Pr713 2.562 . S
O738 C723 1.254 . S
O739 Pr713 2.490 . S
O739 C723 1.225 . S
O740 Pr712 2.436 . S
O740 Pr713 2.695 . S
O740 C730 1.270 . S
O741 Pr713 2.512 . S
O741 C730 1.248 . S
O742 Pr712 2.438 . S
O742 C731 1.267 . S
O743 Pr713 2.437 . S
O743 C731 1.278 . S
H744 C716 0.929 . S
H745 C717 0.929 . S
H746 C719 0.931 . S
H747 C720 0.938 . S
H748 C725 0.929 . S
H749 C726 0.929 . S
H750 C728 0.931 . S
H751 C729 0.930 . S
Pr752 C754 2.880 . S
Pr752 O772 2.562 . S
Pr752 O773 2.490 . S
Pr752 O774 2.695 . S
Pr752 O775 2.512 . S
Pr752 O777 2.437 . S
Pr752 O780 2.436 . S
Pr752 O782 2.438 . S
Pr753 C763 2.880 . S
Pr753 O774 2.436 . S
Pr753 O776 2.438 . S
Pr753 O778 2.562 . S
Pr753 O779 2.490 . S
Pr753 O780 2.695 . S
Pr753 O781 2.512 . S
Pr753 O783 2.437 . S
C754 Pr752 2.880 . S
C754 C755 1.491 . S
C754 O772 1.254 . S
C754 O773 1.225 . S
C755 C754 1.491 . S
C755 C756 1.392 . S
C755 C760 1.356 . S
C756 C755 1.392 . S
C756 C757 1.368 . S
C756 H784 0.929 . S
C757 C756 1.368 . S
C757 C758 1.386 . S
C757 H785 0.929 . S
C758 C757 1.386 . S
C758 C759 1.373 . S
C759 C758 1.373 . S
C759 C760 1.409 . S
C759 H786 0.931 . S
C760 C755 1.356 . S
C760 C759 1.409 . S
C760 H787 0.930 . S
C761 O774 1.270 . S
C761 O775 1.248 . S
C762 O776 1.267 . S
C762 O777 1.278 . S
C763 Pr753 2.880 . S
C763 C764 1.491 . S
C763 O778 1.254 . S
C763 O779 1.225 . S
C764 C763 1.491 . S
C764 C765 1.392 . S
C764 C769 1.356 . S
C765 C764 1.392 . S
C765 C766 1.368 . S
C765 H788 0.929 . S
C766 C765 1.368 . S
C766 C767 1.386 . S
C766 H789 0.929 . S
C767 C766 1.386 . S
C767 C768 1.373 . S
C768 C767 1.373 . S
C768 C769 1.409 . S
C768 H790 0.931 . S
C769 C764 1.356 . S
C769 C768 1.409 . S
C769 H791 0.930 . S
C770 O780 1.270 . S
C770 O781 1.248 . S
C771 O782 1.267 . S
C771 O783 1.278 . S
O772 Pr752 2.562 . S
O772 C754 1.254 . S
O773 Pr752 2.490 . S
O773 C754 1.225 . S
O774 Pr752 2.695 . S
O774 Pr753 2.436 . S
O774 C761 1.270 . S
O775 Pr752 2.512 . S
O775 C761 1.248 . S
O776 Pr753 2.438 . S
O776 C762 1.267 . S
O777 Pr752 2.437 . S
O777 C762 1.278 . S
O778 Pr753 2.562 . S
O778 C763 1.254 . S
O779 Pr753 2.490 . S
O779 C763 1.225 . S
O780 Pr752 2.436 . S
O780 Pr753 2.695 . S
O780 C770 1.270 . S
O781 Pr753 2.512 . S
O781 C770 1.248 . S
O782 Pr752 2.438 . S
O782 C771 1.267 . S
O783 Pr753 2.437 . S
O783 C771 1.278 . S
H784 C756 0.929 . S
H785 C757 0.929 . S
H786 C759 0.931 . S
H787 C760 0.930 . S
H788 C765 0.929 . S
H789 C766 0.929 . S
H790 C768 0.931 . S
H791 C769 0.930 . S
Pr792 C794 2.880 . S
Pr792 O812 2.562 . S
Pr792 O813 2.490 . S
Pr792 O814 2.695 . S
Pr792 O815 2.512 . S
Pr792 O817 2.437 . S
Pr792 O820 2.436 . S
Pr792 O822 2.438 . S
Pr793 C803 2.880 . S
Pr793 O814 2.436 . S
Pr793 O816 2.438 . S
Pr793 O818 2.562 . S
Pr793 O819 2.490 . S
Pr793 O820 2.695 . S
Pr793 O821 2.512 . S
Pr793 O823 2.437 . S
C794 Pr792 2.880 . S
C794 C795 1.491 . S
C794 O812 1.254 . S
C794 O813 1.225 . S
C795 C794 1.491 . S
C795 C796 1.392 . S
C795 C800 1.356 . S
C796 C795 1.392 . S
C796 C797 1.368 . S
C796 H824 0.929 . S
C797 C796 1.368 . S
C797 C798 1.386 . S
C797 H825 0.929 . S
C798 C797 1.386 . S
C798 C799 1.373 . S
C799 C798 1.373 . S
C799 C800 1.409 . S
C799 H826 0.931 . S
C800 C795 1.356 . S
C800 C799 1.409 . S
C800 H827 0.930 . S
C801 O814 1.270 . S
C801 O815 1.248 . S
C802 O816 1.267 . S
C802 O817 1.278 . S
C803 Pr793 2.880 . S
C803 C804 1.491 . S
C803 O818 1.254 . S
C803 O819 1.225 . S
C804 C803 1.491 . S
C804 C805 1.392 . S
C804 C809 1.356 . S
C805 C804 1.392 . S
C805 C806 1.368 . S
C805 H828 0.929 . S
C806 C805 1.368 . S
C806 C807 1.386 . S
C806 H829 0.929 . S
C807 C806 1.386 . S
C807 C808 1.373 . S
C808 C807 1.373 . S
C808 C809 1.409 . S
C808 H830 0.931 . S
C809 C804 1.356 . S
C809 C808 1.409 . S
C809 H831 0.930 . S
C810 O820 1.270 . S
C810 O821 1.248 . S
C811 O822 1.267 . S
C811 O823 1.278 . S
O812 Pr792 2.562 . S
O812 C794 1.254 . S
O813 Pr792 2.490 . S
O813 C794 1.225 . S
O814 Pr792 2.695 . S
O814 Pr793 2.436 . S
O814 C801 1.270 . S
O815 Pr792 2.512 . S
O815 C801 1.248 . S
O816 Pr793 2.438 . S
O816 C802 1.267 . S
O817 Pr792 2.437 . S
O817 C802 1.278 . S
O818 Pr793 2.562 . S
O818 C803 1.254 . S
O819 Pr793 2.490 . S
O819 C803 1.225 . S
O820 Pr792 2.436 . S
O820 Pr793 2.695 . S
O820 C810 1.270 . S
O821 Pr793 2.512 . S
O821 C810 1.248 . S
O822 Pr792 2.438 . S
O822 C811 1.267 . S
O823 Pr793 2.437 . S
O823 C811 1.278 . S
H824 C796 0.929 . S
H825 C797 0.929 . S
H826 C799 0.931 . S
H827 C800 0.930 . S
H828 C805 0.929 . S
H829 C806 0.929 . S
H830 C808 0.931 . S
H831 C809 0.930 . S
Pr832 C834 2.880 . S
Pr832 O852 2.562 . S
Pr832 O853 2.490 . S
Pr832 O854 2.695 . S
Pr832 O855 2.512 . S
Pr832 O857 2.437 . S
Pr832 O860 2.436 . S
Pr832 O862 2.438 . S
Pr833 C843 2.880 . S
Pr833 O854 2.436 . S
Pr833 O856 2.438 . S
Pr833 O858 2.562 . S
Pr833 O859 2.490 . S
Pr833 O860 2.695 . S
Pr833 O861 2.512 . S
Pr833 O863 2.437 . S
C834 Pr832 2.880 . S
C834 C835 1.491 . S
C834 O852 1.254 . S
C834 O853 1.225 . S
C835 C834 1.491 . S
C835 C836 1.392 . S
C835 C840 1.356 . S
C836 C835 1.392 . S
C836 C837 1.368 . S
C836 H864 0.929 . S
C837 C836 1.368 . S
C837 C838 1.386 . S
C837 H865 0.929 . S
C838 C837 1.386 . S
C838 C839 1.373 . S
C839 C838 1.373 . S
C839 C840 1.409 . S
C839 H866 0.931 . S
C840 C835 1.356 . S
C840 C839 1.409 . S
C840 H867 0.930 . S
C841 O854 1.270 . S
C841 O855 1.248 . S
C842 O856 1.267 . S
C842 O857 1.278 . S
C843 Pr833 2.880 . S
C843 C844 1.491 . S
C843 O858 1.254 . S
C843 O859 1.225 . S
C844 C843 1.491 . S
C844 C845 1.392 . S
C844 C849 1.356 . S
C845 C844 1.392 . S
C845 C846 1.368 . S
C845 H868 0.929 . S
C846 C845 1.368 . S
C846 C847 1.386 . S
C846 H869 0.929 . S
C847 C846 1.386 . S
C847 C848 1.373 . S
C848 C847 1.373 . S
C848 C849 1.409 . S
C848 H870 0.931 . S
C849 C844 1.356 . S
C849 C848 1.409 . S
C849 H871 0.930 . S
C850 O860 1.270 . S
C850 O861 1.248 . S
C851 O862 1.267 . S
C851 O863 1.278 . S
O852 Pr832 2.562 . S
O852 C834 1.254 . S
O853 Pr832 2.490 . S
O853 C834 1.225 . S
O854 Pr832 2.695 . S
O854 Pr833 2.436 . S
O854 C841 1.270 . S
O855 Pr832 2.512 . S
O855 C841 1.248 . S
O856 Pr833 2.438 . S
O856 C842 1.267 . S
O857 Pr832 2.437 . S
O857 C842 1.278 . S
O858 Pr833 2.562 . S
O858 C843 1.254 . S
O859 Pr833 2.490 . S
O859 C843 1.225 . S
O860 Pr832 2.436 . S
O860 Pr833 2.695 . S
O860 C850 1.270 . S
O861 Pr833 2.512 . S
O861 C850 1.248 . S
O862 Pr832 2.438 . S
O862 C851 1.267 . S
O863 Pr833 2.437 . S
O863 C851 1.278 . S
H864 C836 0.929 . S
H865 C837 0.929 . S
H866 C839 0.931 . S
H867 C840 0.930 . S
H868 C845 0.929 . S
H869 C846 0.929 . S
H870 C848 0.931 . S
H871 C849 0.930 . S
Pr872 C874 2.880 . S
Pr872 O892 2.562 . S
Pr872 O893 2.490 . S
Pr872 O894 2.695 . S
Pr872 O895 2.512 . S
Pr872 O897 2.437 . S
Pr872 O900 2.436 . S
Pr872 O902 2.438 . S
Pr873 C883 2.880 . S
Pr873 O894 2.436 . S
Pr873 O896 2.438 . S
Pr873 O898 2.562 . S
Pr873 O899 2.490 . S
Pr873 O900 2.695 . S
Pr873 O901 2.512 . S
Pr873 O903 2.437 . S
C874 Pr872 2.880 . S
C874 C875 1.491 . S
C874 O892 1.254 . S
C874 O893 1.225 . S
C875 C874 1.491 . S
C875 C876 1.392 . S
C875 C880 1.356 . S
C876 C875 1.392 . S
C876 C877 1.368 . S
C876 H904 0.929 . S
C877 C876 1.368 . S
C877 C878 1.386 . S
C877 H905 0.929 . S
C878 C877 1.386 . S
C878 C879 1.373 . S
C879 C878 1.373 . S
C879 C880 1.409 . S
C879 H906 0.931 . S
C880 C875 1.356 . S
C880 C879 1.409 . S
C880 H907 0.930 . S
C881 O894 1.270 . S
C881 O895 1.248 . S
C882 O896 1.267 . S
C882 O897 1.278 . S
C883 Pr873 2.880 . S
C883 C884 1.491 . S
C883 O898 1.254 . S
C883 O899 1.225 . S
C884 C883 1.491 . S
C884 C885 1.392 . S
C884 C889 1.356 . S
C885 C884 1.392 . S
C885 C886 1.368 . S
C885 H908 0.929 . S
C886 C885 1.368 . S
C886 C887 1.386 . S
C886 H909 0.929 . S
C887 C886 1.386 . S
C887 C888 1.373 . S
C888 C887 1.373 . S
C888 C889 1.409 . S
C888 H910 0.931 . S
C889 C884 1.356 . S
C889 C888 1.409 . S
C889 H911 0.930 . S
C890 O900 1.270 . S
C890 O901 1.248 . S
C891 O902 1.267 . S
C891 O903 1.278 . S
O892 Pr872 2.562 . S
O892 C874 1.254 . S
O893 Pr872 2.490 . S
O893 C874 1.225 . S
O894 Pr872 2.695 . S
O894 Pr873 2.436 . S
O894 C881 1.270 . S
O895 Pr872 2.512 . S
O895 C881 1.248 . S
O896 Pr873 2.438 . S
O896 C882 1.267 . S
O897 Pr872 2.437 . S
O897 C882 1.278 . S
O898 Pr873 2.562 . S
O898 C883 1.254 . S
O899 Pr873 2.490 . S
O899 C883 1.225 . S
O900 Pr872 2.436 . S
O900 Pr873 2.695 . S
O900 C890 1.270 . S
O901 Pr873 2.512 . S
O901 C890 1.248 . S
O902 Pr872 2.438 . S
O902 C891 1.267 . S
O903 Pr873 2.437 . S
O903 C891 1.278 . S
H904 C876 0.929 . S
H905 C877 0.929 . S
H906 C879 0.931 . S
H907 C880 0.930 . S
H908 C885 0.929 . S
H909 C886 0.929 . S
H910 C888 0.931 . S
H911 C889 0.930 . S
Pr912 C914 2.880 . S
Pr912 O932 2.562 . S
Pr912 O933 2.490 . S
Pr912 O934 2.695 . S
Pr912 O935 2.512 1_554 S
Pr912 O937 2.437 . S
Pr912 O940 2.436 . S
Pr912 O942 2.438 . S
Pr913 C923 2.880 1_455 S
Pr913 O934 2.436 . S
Pr913 O936 2.438 . S
Pr913 O938 2.562 1_455 S
Pr913 O939 2.490 1_455 S
Pr913 O940 2.695 . S
Pr913 O941 2.512 . S
Pr913 O943 2.437 . S
C914 Pr912 2.880 . S
C914 C915 1.491 . S
C914 O932 1.254 . S
C914 O933 1.225 . S
C915 C914 1.491 . S
C915 C916 1.392 . S
C915 C920 1.356 . S
C916 C915 1.392 . S
C916 C917 1.368 1_554 S
C916 H944 0.929 1_554 S
C917 C916 1.368 1_556 S
C917 C918 1.386 1_556 S
C917 H945 0.929 . S
C918 C917 1.386 1_554 S
C918 C919 1.373 . S
C919 C918 1.373 . S
C919 C920 1.409 . S
C919 H946 0.931 . S
C920 C915 1.356 . S
C920 C919 1.409 . S
C920 H947 0.930 . S
C921 O934 1.270 . S
C921 O935 1.248 1_554 S
C922 O936 1.267 . S
C922 O937 1.278 . S
C923 Pr913 2.880 1_655 S
C923 C924 1.491 . S
C923 O938 1.254 . S
C923 O939 1.225 . S
C924 C923 1.491 . S
C924 C925 1.392 . S
C924 C929 1.356 . S
C925 C924 1.392 . S
C925 C926 1.368 . S
C925 H948 0.929 . S
C926 C925 1.368 . S
C926 C927 1.386 . S
C926 H949 0.929 . S
C927 C926 1.386 . S
C927 C928 1.373 . S
C928 C927 1.373 . S
C928 C929 1.409 . S
C928 H950 0.931 . S
C929 C924 1.356 . S
C929 C928 1.409 . S
C929 H951 0.930 . S
C930 O940 1.270 . S
C930 O941 1.248 . S
C931 O942 1.267 . S
C931 O943 1.278 . S
O932 Pr912 2.562 . S
O932 C914 1.254 . S
O933 Pr912 2.490 . S
O933 C914 1.225 . S
O934 Pr912 2.695 . S
O934 Pr913 2.436 . S
O934 C921 1.270 . S
O935 Pr912 2.512 1_556 S
O935 C921 1.248 1_556 S
O936 Pr913 2.438 . S
O936 C922 1.267 . S
O937 Pr912 2.437 . S
O937 C922 1.278 . S
O938 Pr913 2.562 1_655 S
O938 C923 1.254 . S
O939 Pr913 2.490 1_655 S
O939 C923 1.225 . S
O940 Pr912 2.436 . S
O940 Pr913 2.695 . S
O940 C930 1.270 . S
O941 Pr913 2.512 . S
O941 C930 1.248 . S
O942 Pr912 2.438 . S
O942 C931 1.267 . S
O943 Pr913 2.437 . S
O943 C931 1.278 . S
H944 C916 0.929 1_556 S
H945 C917 0.929 . S
H946 C919 0.931 . S
H947 C920 0.930 . S
H948 C925 0.929 . S
H949 C926 0.929 . S
H950 C928 0.931 . S
H951 C929 0.930 . S
H952 C970 0.951 . S
H953 C972 0.951 . S
H954 C974 0.950 . S
H955 C975 0.950 . S
H956 C977 0.950 . S
H957 C980 0.955 . S
H958 C981 0.950 . S
H959 C983 0.950 . S
H960 C984 0.950 1_455 S
H961 C985 0.951 . S
H962 C987 0.951 . S
H963 C989 0.950 . S
H964 C990 0.950 . S
H965 C992 0.950 . S
H966 C995 0.950 1_556 S
H967 C996 0.950 . S
H968 C998 0.950 . S
H969 C999 0.950 . S
C970 H952 0.951 . S
C970 C971 1.366 . S
C970 C972 1.388 . S
C971 C970 1.366 . S
C971 C975 1.385 . S
C972 H953 0.951 . S
C972 C970 1.388 . S
C972 C973 1.366 . S
C973 C972 1.366 . S
C973 C974 1.414 . S
C973 C976 1.499 . S
C974 H954 0.950 . S
C974 C973 1.414 . S
C974 C975 1.374 . S
C975 H955 0.950 . S
C975 C971 1.385 . S
C975 C974 1.374 . S
C976 C973 1.499 . S
C976 C977 1.373 . S
C976 C978 1.389 . S
C977 H956 0.950 . S
C977 C976 1.373 . S
C977 C993 1.377 . S
C978 C976 1.389 . S
C978 C979 1.524 . S
C978 C992 1.377 . S
C979 C978 1.524 . S
C979 C980 1.397 1_455 S
C979 C984 1.363 1_455 S
C980 H957 0.955 . S
C980 C979 1.397 1_655 S
C980 C981 1.334 . S
C981 H958 0.950 . S
C981 C980 1.334 . S
C981 C982 1.287 . S
C982 C981 1.287 . S
C982 C983 1.524 . S
C982 H1001 0.913 . S
C983 H959 0.950 . S
C983 C982 1.524 . S
C983 C984 1.415 . S
C984 H960 0.950 1_655 S
C984 C979 1.363 1_655 S
C984 C983 1.415 . S
C985 H961 0.951 . S
C985 C986 1.366 . S
C985 C987 1.388 . S
C986 C985 1.366 . S
C986 C990 1.385 . S
C987 H962 0.951 . S
C987 C985 1.388 . S
C987 C988 1.366 . S
C988 C987 1.366 . S
C988 C989 1.414 1_554 S
C988 C991 1.499 1_554 S
C989 H963 0.950 . S
C989 C988 1.414 1_556 S
C989 C990 1.374 1_556 S
C990 H964 0.950 . S
C990 C986 1.385 . S
C990 C989 1.374 1_554 S
C991 C988 1.499 1_556 S
C991 C992 1.373 . S
C991 C993 1.389 . S
C992 H965 0.950 . S
C992 C978 1.377 . S
C992 C991 1.373 . S
C993 C977 1.377 . S
C993 C991 1.389 . S
C993 C994 1.524 1_556 S
C994 C993 1.524 1_554 S
C994 C995 1.397 . S
C994 C999 1.363 . S
C995 H966 0.950 1_554 S
C995 C994 1.397 . S
C995 C996 1.334 . S
C996 H967 0.950 . S
C996 C995 1.334 . S
C996 C997 1.287 . S
C997 C996 1.287 . S
C997 C998 1.524 . S
C997 H1000 0.999 . S
C998 H968 0.950 . S
C998 C997 1.524 . S
C998 C999 1.415 . S
C999 H969 0.950 . S
C999 C994 1.363 . S
C999 C998 1.415 . S
H1000 C997 0.999 . S
H1001 C982 0.913 . S
H1002 C1020 0.951 . S
H1003 C1022 0.951 . S
H1004 C1024 0.950 . S
H1005 C1025 0.950 . S
H1006 C1027 0.950 . S
H1007 C1030 0.950 . S
H1008 C1031 0.950 . S
H1009 C1033 0.950 . S
H1010 C1034 0.950 . S
H1011 C1035 0.951 . S
H1012 C1037 0.951 . S
H1013 C1039 0.950 . S
H1014 C1040 0.950 . S
H1015 C1042 0.950 . S
H1016 C1045 0.950 . S
H1017 C1046 0.950 . S
H1018 C1048 0.950 . S
H1019 C1049 0.950 . S
C1020 H1002 0.951 . S
C1020 C1021 1.366 . S
C1020 C1022 1.388 . S
C1021 C1020 1.366 . S
C1021 C1025 1.385 . S
C1022 H1003 0.951 . S
C1022 C1020 1.388 . S
C1022 C1023 1.366 . S
C1023 C1022 1.366 . S
C1023 C1024 1.414 . S
C1023 C1026 1.499 . S
C1024 H1004 0.950 . S
C1024 C1023 1.414 . S
C1024 C1025 1.374 . S
C1025 H1005 0.950 . S
C1025 C1021 1.385 . S
C1025 C1024 1.374 . S
C1026 C1023 1.499 . S
C1026 C1027 1.373 . S
C1026 C1028 1.389 . S
C1027 H1006 0.950 . S
C1027 C1026 1.373 . S
C1027 C1043 1.377 . S
C1028 C1026 1.389 . S
C1028 C1029 1.524 . S
C1028 C1042 1.377 . S
C1029 C1028 1.524 . S
C1029 C1030 1.397 . S
C1029 C1034 1.363 . S
C1030 H1007 0.950 . S
C1030 C1029 1.397 . S
C1030 C1031 1.334 . S
C1031 H1008 0.950 . S
C1031 C1030 1.334 . S
C1031 C1032 1.287 . S
C1032 C1031 1.287 . S
C1032 C1033 1.524 . S
C1032 H1051 0.913 . S
C1033 H1009 0.950 . S
C1033 C1032 1.524 . S
C1033 C1034 1.415 . S
C1034 H1010 0.950 . S
C1034 C1029 1.363 . S
C1034 C1033 1.415 . S
C1035 H1011 0.951 . S
C1035 C1036 1.366 . S
C1035 C1037 1.388 . S
C1036 C1035 1.366 . S
C1036 C1040 1.385 . S
C1037 H1012 0.951 . S
C1037 C1035 1.388 . S
C1037 C1038 1.366 . S
C1038 C1037 1.366 . S
C1038 C1039 1.414 . S
C1038 C1041 1.499 . S
C1039 H1013 0.950 . S
C1039 C1038 1.414 . S
C1039 C1040 1.374 . S
C1040 H1014 0.950 . S
C1040 C1036 1.385 . S
C1040 C1039 1.374 . S
C1041 C1038 1.499 . S
C1041 C1042 1.373 . S
C1041 C1043 1.389 . S
C1042 H1015 0.950 . S
C1042 C1028 1.377 . S
C1042 C1041 1.373 . S
C1043 C1027 1.377 . S
C1043 C1041 1.389 . S
C1043 C1044 1.524 . S
C1044 C1043 1.524 . S
C1044 C1045 1.397 . S
C1044 C1049 1.363 . S
C1045 H1016 0.950 . S
C1045 C1044 1.397 . S
C1045 C1046 1.334 . S
C1046 H1017 0.950 . S
C1046 C1045 1.334 . S
C1046 C1047 1.287 . S
C1047 C1046 1.287 . S
C1047 C1048 1.524 . S
C1047 H1050 0.999 . S
C1048 H1018 0.950 . S
C1048 C1047 1.524 . S
C1048 C1049 1.415 . S
C1049 H1019 0.950 . S
C1049 C1044 1.363 . S
C1049 C1048 1.415 . S
H1050 C1047 0.999 . S
H1051 C1032 0.913 . S
H1052 C1070 0.951 . S
H1053 C1072 0.951 . S
H1054 C1074 0.950 . S
H1055 C1075 0.950 . S
H1056 C1077 0.950 . S
H1057 C1080 0.950 . S
H1058 C1081 0.950 . S
H1059 C1083 0.950 . S
H1060 C1084 0.950 . S
H1061 C1085 0.951 1_545 S
H1062 C1087 0.951 . S
H1063 C1089 0.950 . S
H1064 C1090 0.950 . S
H1065 C1092 0.950 . S
H1066 C1095 0.950 . S
H1067 C1096 0.950 . S
H1068 C1098 0.950 . S
H1069 C1099 0.950 . S
C1070 H1052 0.951 . S
C1070 C1071 1.366 . S
C1070 C1072 1.388 . S
C1071 C1070 1.366 . S
C1071 C1075 1.385 . S
C1072 H1053 0.951 . S
C1072 C1070 1.388 . S
C1072 C1073 1.366 . S
C1073 C1072 1.366 . S
C1073 C1074 1.414 . S
C1073 C1076 1.499 . S
C1074 H1054 0.950 . S
C1074 C1073 1.414 . S
C1074 C1075 1.374 . S
C1075 H1055 0.950 . S
C1075 C1071 1.385 . S
C1075 C1074 1.374 . S
C1076 C1073 1.499 . S
C1076 C1077 1.373 . S
C1076 C1078 1.389 . S
C1077 H1056 0.950 . S
C1077 C1076 1.373 . S
C1077 C1093 1.377 . S
C1078 C1076 1.389 . S
C1078 C1079 1.524 . S
C1078 C1092 1.377 . S
C1079 C1078 1.524 . S
C1079 C1080 1.397 . S
C1079 C1084 1.363 . S
C1080 H1057 0.950 . S
C1080 C1079 1.397 . S
C1080 C1081 1.334 . S
C1081 H1058 0.950 . S
C1081 C1080 1.334 . S
C1081 C1082 1.287 . S
C1082 C1081 1.287 . S
C1082 C1083 1.524 . S
C1082 H1101 0.913 . S
C1083 H1059 0.950 . S
C1083 C1082 1.524 . S
C1083 C1084 1.415 . S
C1084 H1060 0.950 . S
C1084 C1079 1.363 . S
C1084 C1083 1.415 . S
C1085 H1061 0.951 1_565 S
C1085 C1086 1.366 . S
C1085 C1087 1.388 . S
C1086 C1085 1.366 . S
C1086 C1090 1.385 . S
C1087 H1062 0.951 . S
C1087 C1085 1.388 . S
C1087 C1088 1.366 . S
C1088 C1087 1.366 . S
C1088 C1089 1.414 . S
C1088 C1091 1.499 . S
C1089 H1063 0.950 . S
C1089 C1088 1.414 . S
C1089 C1090 1.374 . S
C1090 H1064 0.950 . S
C1090 C1086 1.385 . S
C1090 C1089 1.374 . S
C1091 C1088 1.499 . S
C1091 C1092 1.373 . S
C1091 C1093 1.389 . S
C1092 H1065 0.950 . S
C1092 C1078 1.377 . S
C1092 C1091 1.373 . S
C1093 C1077 1.377 . S
C1093 C1091 1.389 . S
C1093 C1094 1.524 . S
C1094 C1093 1.524 . S
C1094 C1095 1.397 . S
C1094 C1099 1.363 . S
C1095 H1066 0.950 . S
C1095 C1094 1.397 . S
C1095 C1096 1.334 . S
C1096 H1067 0.950 . S
C1096 C1095 1.334 . S
C1096 C1097 1.287 . S
C1097 C1096 1.287 . S
C1097 C1098 1.524 . S
C1097 H1100 0.999 . S
C1098 H1068 0.950 . S
C1098 C1097 1.524 . S
C1098 C1099 1.415 . S
C1099 H1069 0.950 . S
C1099 C1094 1.363 . S
C1099 C1098 1.415 . S
H1100 C1097 0.999 . S
H1101 C1082 0.913 . S
H1102 C1120 0.951 . S
H1103 C1122 0.951 . S
H1104 C1124 0.950 . S
H1105 C1125 0.950 . S
H1106 C1127 0.950 . S
H1107 C1130 0.950 . S
H1108 C1131 0.950 . S
H1109 C1133 0.950 . S
H1110 C1134 0.950 . S
H1111 C1135 0.951 . S
H1112 C1137 0.951 . S
H1113 C1139 0.950 . S
H1114 C1140 0.950 . S
H1115 C1142 0.950 . S
H1116 C1145 0.950 . S
H1117 C1146 0.950 . S
H1118 C1148 0.950 . S
H1119 C1149 0.950 . S
C1120 H1102 0.951 . S
C1120 C1121 1.366 . S
C1120 C1122 1.388 . S
C1121 C1120 1.366 . S
C1121 C1125 1.385 . S
C1122 H1103 0.951 . S
C1122 C1120 1.388 . S
C1122 C1123 1.366 . S
C1123 C1122 1.366 . S
C1123 C1124 1.414 . S
C1123 C1126 1.499 . S
C1124 H1104 0.950 . S
C1124 C1123 1.414 . S
C1124 C1125 1.374 . S
C1125 H1105 0.950 . S
C1125 C1121 1.385 . S
C1125 C1124 1.374 . S
C1126 C1123 1.499 . S
C1126 C1127 1.373 . S
C1126 C1128 1.389 . S
C1127 H1106 0.950 . S
C1127 C1126 1.373 . S
C1127 C1143 1.377 . S
C1128 C1126 1.389 . S
C1128 C1129 1.524 . S
C1128 C1142 1.377 . S
C1129 C1128 1.524 . S
C1129 C1130 1.397 . S
C1129 C1134 1.363 . S
C1130 H1107 0.950 . S
C1130 C1129 1.397 . S
C1130 C1131 1.334 . S
C1131 H1108 0.950 . S
C1131 C1130 1.334 . S
C1131 C1132 1.287 . S
C1132 C1131 1.287 . S
C1132 C1133 1.524 . S
C1132 H1151 0.913 . S
C1133 H1109 0.950 . S
C1133 C1132 1.524 . S
C1133 C1134 1.415 . S
C1134 H1110 0.950 . S
C1134 C1129 1.363 . S
C1134 C1133 1.415 . S
C1135 H1111 0.951 . S
C1135 C1136 1.366 . S
C1135 C1137 1.388 . S
C1136 C1135 1.366 . S
C1136 C1140 1.385 . S
C1137 H1112 0.951 . S
C1137 C1135 1.388 . S
C1137 C1138 1.366 . S
C1138 C1137 1.366 . S
C1138 C1139 1.414 . S
C1138 C1141 1.499 . S
C1139 H1113 0.950 . S
C1139 C1138 1.414 . S
C1139 C1140 1.374 . S
C1140 H1114 0.950 . S
C1140 C1136 1.385 . S
C1140 C1139 1.374 . S
C1141 C1138 1.499 . S
C1141 C1142 1.373 . S
C1141 C1143 1.389 . S
C1142 H1115 0.950 . S
C1142 C1128 1.377 . S
C1142 C1141 1.373 . S
C1143 C1127 1.377 . S
C1143 C1141 1.389 . S
C1143 C1144 1.524 . S
C1144 C1143 1.524 . S
C1144 C1145 1.397 . S
C1144 C1149 1.363 . S
C1145 H1116 0.950 . S
C1145 C1144 1.397 . S
C1145 C1146 1.334 . S
C1146 H1117 0.950 . S
C1146 C1145 1.334 . S
C1146 C1147 1.287 . S
C1147 C1146 1.287 . S
C1147 C1148 1.524 . S
C1147 H1150 0.999 . S
C1148 H1118 0.950 . S
C1148 C1147 1.524 . S
C1148 C1149 1.415 . S
C1149 H1119 0.950 . S
C1149 C1144 1.363 . S
C1149 C1148 1.415 . S
H1150 C1147 0.999 . S
H1151 C1132 0.913 . S
H1152 C1170 0.951 . S
H1153 C1172 0.951 . S
H1154 C1174 0.950 . S
H1155 C1175 0.950 . S
H1156 C1177 0.950 . S
H1157 C1180 0.950 . S
H1158 C1181 0.950 . S
H1159 C1183 0.950 . S
H1160 C1184 0.950 . S
H1161 C1185 0.951 . S
H1162 C1187 0.951 . S
H1163 C1189 0.950 . S
H1164 C1190 0.950 1_545 S
H1165 C1192 0.950 . S
H1166 C1195 0.950 . S
H1167 C1196 0.950 . S
H1168 C1198 0.950 . S
H1169 C1199 0.950 . S
C1170 H1152 0.951 . S
C1170 C1171 1.366 . S
C1170 C1172 1.388 . S
C1171 C1170 1.366 . S
C1171 C1175 1.385 . S
C1172 H1153 0.951 . S
C1172 C1170 1.388 . S
C1172 C1173 1.366 . S
C1173 C1172 1.366 . S
C1173 C1174 1.414 . S
C1173 C1176 1.499 . S
C1174 H1154 0.950 . S
C1174 C1173 1.414 . S
C1174 C1175 1.374 . S
C1175 H1155 0.950 . S
C1175 C1171 1.385 . S
C1175 C1174 1.374 . S
C1176 C1173 1.499 . S
C1176 C1177 1.373 . S
C1176 C1178 1.389 . S
C1177 H1156 0.950 . S
C1177 C1176 1.373 . S
C1177 C1193 1.377 . S
C1178 C1176 1.389 . S
C1178 C1179 1.524 . S
C1178 C1192 1.377 . S
C1179 C1178 1.524 . S
C1179 C1180 1.397 . S
C1179 C1184 1.363 . S
C1180 H1157 0.950 . S
C1180 C1179 1.397 . S
C1180 C1181 1.334 . S
C1181 H1158 0.950 . S
C1181 C1180 1.334 . S
C1181 C1182 1.287 . S
C1182 C1181 1.287 . S
C1182 C1183 1.524 . S
C1182 H1201 0.913 . S
C1183 H1159 0.950 . S
C1183 C1182 1.524 . S
C1183 C1184 1.415 . S
C1184 H1160 0.950 . S
C1184 C1179 1.363 . S
C1184 C1183 1.415 . S
C1185 H1161 0.951 . S
C1185 C1186 1.366 . S
C1185 C1187 1.388 . S
C1186 C1185 1.366 . S
C1186 C1190 1.385 . S
C1187 H1162 0.951 . S
C1187 C1185 1.388 . S
C1187 C1188 1.366 . S
C1188 C1187 1.366 . S
C1188 C1189 1.414 . S
C1188 C1191 1.499 . S
C1189 H1163 0.950 . S
C1189 C1188 1.414 . S
C1189 C1190 1.374 . S
C1190 H1164 0.950 1_565 S
C1190 C1186 1.385 . S
C1190 C1189 1.374 . S
C1191 C1188 1.499 . S
C1191 C1192 1.373 . S
C1191 C1193 1.389 . S
C1192 H1165 0.950 . S
C1192 C1178 1.377 . S
C1192 C1191 1.373 . S
C1193 C1177 1.377 . S
C1193 C1191 1.389 . S
C1193 C1194 1.524 . S
C1194 C1193 1.524 . S
C1194 C1195 1.397 . S
C1194 C1199 1.363 . S
C1195 H1166 0.950 . S
C1195 C1194 1.397 . S
C1195 C1196 1.334 . S
C1196 H1167 0.950 . S
C1196 C1195 1.334 . S
C1196 C1197 1.287 . S
C1197 C1196 1.287 . S
C1197 C1198 1.524 . S
C1197 H1200 0.999 . S
C1198 H1168 0.950 . S
C1198 C1197 1.524 . S
C1198 C1199 1.415 . S
C1199 H1169 0.950 . S
C1199 C1194 1.363 . S
C1199 C1198 1.415 . S
H1200 C1197 0.999 . S
H1201 C1182 0.913 . S
H1202 C1220 0.951 . S
H1203 C1222 0.951 . S
H1204 C1224 0.950 . S
H1205 C1225 0.950 . S
H1206 C1227 0.950 . S
H1207 C1230 0.950 . S
H1208 C1231 0.950 . S
H1209 C1233 0.950 . S
H1210 C1234 0.950 . S
H1211 C1235 0.951 . S
H1212 C1237 0.951 . S
H1213 C1239 0.950 . S
H1214 C1240 0.950 . S
H1215 C1242 0.950 . S
H1216 C1245 0.950 . S
H1217 C1246 0.950 . S
H1218 C1248 0.950 . S
H1219 C1249 0.950 . S
C1220 H1202 0.951 . S
C1220 C1221 1.366 . S
C1220 C1222 1.388 . S
C1221 C1220 1.366 . S
C1221 C1225 1.385 . S
C1222 H1203 0.951 . S
C1222 C1220 1.388 . S
C1222 C1223 1.366 . S
C1223 C1222 1.366 . S
C1223 C1224 1.414 . S
C1223 C1226 1.499 . S
C1224 H1204 0.950 . S
C1224 C1223 1.414 . S
C1224 C1225 1.374 . S
C1225 H1205 0.950 . S
C1225 C1221 1.385 . S
C1225 C1224 1.374 . S
C1226 C1223 1.499 . S
C1226 C1227 1.373 . S
C1226 C1228 1.389 . S
C1227 H1206 0.950 . S
C1227 C1226 1.373 . S
C1227 C1243 1.377 . S
C1228 C1226 1.389 . S
C1228 C1229 1.524 . S
C1228 C1242 1.377 . S
C1229 C1228 1.524 . S
C1229 C1230 1.397 . S
C1229 C1234 1.363 . S
C1230 H1207 0.950 . S
C1230 C1229 1.397 . S
C1230 C1231 1.334 . S
C1231 H1208 0.950 . S
C1231 C1230 1.334 . S
C1231 C1232 1.287 . S
C1232 C1231 1.287 . S
C1232 C1233 1.524 . S
C1232 H1251 0.913 . S
C1233 H1209 0.950 . S
C1233 C1232 1.524 . S
C1233 C1234 1.415 . S
C1234 H1210 0.950 . S
C1234 C1229 1.363 . S
C1234 C1233 1.415 . S
C1235 H1211 0.951 . S
C1235 C1236 1.366 . S
C1235 C1237 1.388 . S
C1236 C1235 1.366 . S
C1236 C1240 1.385 . S
C1237 H1212 0.951 . S
C1237 C1235 1.388 . S
C1237 C1238 1.366 . S
C1238 C1237 1.366 . S
C1238 C1239 1.414 . S
C1238 C1241 1.499 . S
C1239 H1213 0.950 . S
C1239 C1238 1.414 . S
C1239 C1240 1.374 . S
C1240 H1214 0.950 . S
C1240 C1236 1.385 . S
C1240 C1239 1.374 . S
C1241 C1238 1.499 . S
C1241 C1242 1.373 . S
C1241 C1243 1.389 . S
C1242 H1215 0.950 . S
C1242 C1228 1.377 . S
C1242 C1241 1.373 . S
C1243 C1227 1.377 . S
C1243 C1241 1.389 . S
C1243 C1244 1.524 . S
C1244 C1243 1.524 . S
C1244 C1245 1.397 . S
C1244 C1249 1.363 . S
C1245 H1216 0.950 . S
C1245 C1244 1.397 . S
C1245 C1246 1.334 . S
C1246 H1217 0.950 . S
C1246 C1245 1.334 . S
C1246 C1247 1.287 . S
C1247 C1246 1.287 . S
C1247 C1248 1.524 . S
C1247 H1250 0.999 . S
C1248 H1218 0.950 . S
C1248 C1247 1.524 . S
C1248 C1249 1.415 . S
C1249 H1219 0.950 . S
C1249 C1244 1.363 . S
C1249 C1248 1.415 . S
H1250 C1247 0.999 . S
H1251 C1232 0.913 . S
H1252 C1270 0.951 . S
H1253 C1272 0.951 . S
H1254 C1274 0.950 . S
H1255 C1275 0.950 . S
H1256 C1277 0.950 . S
H1257 C1280 0.950 . S
H1258 C1281 0.950 . S
H1259 C1283 0.950 . S
H1260 C1284 0.950 . S
H1261 C1285 0.951 . S
H1262 C1287 0.951 . S
H1263 C1289 0.950 . S
H1264 C1290 0.950 . S
H1265 C1292 0.950 . S
H1266 C1295 0.950 . S
H1267 C1296 0.950 . S
H1268 C1298 0.950 . S
H1269 C1299 0.950 . S
C1270 H1252 0.951 . S
C1270 C1271 1.366 . S
C1270 C1272 1.388 . S
C1271 C1270 1.366 . S
C1271 C1275 1.385 . S
C1272 H1253 0.951 . S
C1272 C1270 1.388 . S
C1272 C1273 1.366 . S
C1273 C1272 1.366 . S
C1273 C1274 1.414 . S
C1273 C1276 1.499 . S
C1274 H1254 0.950 . S
C1274 C1273 1.414 . S
C1274 C1275 1.374 . S
C1275 H1255 0.950 . S
C1275 C1271 1.385 . S
C1275 C1274 1.374 . S
C1276 C1273 1.499 . S
C1276 C1277 1.373 . S
C1276 C1278 1.389 . S
C1277 H1256 0.950 . S
C1277 C1276 1.373 . S
C1277 C1293 1.377 . S
C1278 C1276 1.389 . S
C1278 C1279 1.524 . S
C1278 C1292 1.377 . S
C1279 C1278 1.524 . S
C1279 C1280 1.397 . S
C1279 C1284 1.363 . S
C1280 H1257 0.950 . S
C1280 C1279 1.397 . S
C1280 C1281 1.334 . S
C1281 H1258 0.950 . S
C1281 C1280 1.334 . S
C1281 C1282 1.287 . S
C1282 C1281 1.287 . S
C1282 C1283 1.524 . S
C1282 H1301 0.913 . S
C1283 H1259 0.950 . S
C1283 C1282 1.524 . S
C1283 C1284 1.415 . S
C1284 H1260 0.950 . S
C1284 C1279 1.363 . S
C1284 C1283 1.415 . S
C1285 H1261 0.951 . S
C1285 C1286 1.366 . S
C1285 C1287 1.388 . S
C1286 C1285 1.366 . S
C1286 C1290 1.385 . S
C1287 H1262 0.951 . S
C1287 C1285 1.388 . S
C1287 C1288 1.366 . S
C1288 C1287 1.366 . S
C1288 C1289 1.414 . S
C1288 C1291 1.499 . S
C1289 H1263 0.950 . S
C1289 C1288 1.414 . S
C1289 C1290 1.374 . S
C1290 H1264 0.950 . S
C1290 C1286 1.385 . S
C1290 C1289 1.374 . S
C1291 C1288 1.499 . S
C1291 C1292 1.373 . S
C1291 C1293 1.389 . S
C1292 H1265 0.950 . S
C1292 C1278 1.377 . S
C1292 C1291 1.373 . S
C1293 C1277 1.377 . S
C1293 C1291 1.389 . S
C1293 C1294 1.524 . S
C1294 C1293 1.524 . S
C1294 C1295 1.397 . S
C1294 C1299 1.363 . S
C1295 H1266 0.950 . S
C1295 C1294 1.397 . S
C1295 C1296 1.334 . S
C1296 H1267 0.950 . S
C1296 C1295 1.334 . S
C1296 C1297 1.287 . S
C1297 C1296 1.287 . S
C1297 C1298 1.524 . S
C1297 H1300 0.999 . S
C1298 H1268 0.950 . S
C1298 C1297 1.524 . S
C1298 C1299 1.415 . S
C1299 H1269 0.950 . S
C1299 C1294 1.363 . S
C1299 C1298 1.415 . S
H1300 C1297 0.999 . S
H1301 C1282 0.913 . S
H1302 C1320 0.951 . S
H1303 C1322 0.951 . S
H1304 C1324 0.950 . S
H1305 C1325 0.950 . S
H1306 C1327 0.950 . S
H1307 C1330 0.950 . S
H1308 C1331 0.950 . S
H1309 C1333 0.950 . S
H1310 C1334 0.950 . S
H1311 C1335 0.951 . S
H1312 C1337 0.951 . S
H1313 C1339 0.950 . S
H1314 C1340 0.950 . S
H1315 C1342 0.950 . S
H1316 C1345 0.950 . S
H1317 C1346 0.950 . S
H1318 C1348 0.950 . S
H1319 C1349 0.950 . S
C1320 H1302 0.951 . S
C1320 C1321 1.366 . S
C1320 C1322 1.388 . S
C1321 C1320 1.366 . S
C1321 C1325 1.385 . S
C1322 H1303 0.951 . S
C1322 C1320 1.388 . S
C1322 C1323 1.366 . S
C1323 C1322 1.366 . S
C1323 C1324 1.414 . S
C1323 C1326 1.499 . S
C1324 H1304 0.950 . S
C1324 C1323 1.414 . S
C1324 C1325 1.374 . S
C1325 H1305 0.950 . S
C1325 C1321 1.385 . S
C1325 C1324 1.374 . S
C1326 C1323 1.499 . S
C1326 C1327 1.373 . S
C1326 C1328 1.389 . S
C1327 H1306 0.950 . S
C1327 C1326 1.373 . S
C1327 C1343 1.377 . S
C1328 C1326 1.389 . S
C1328 C1329 1.524 . S
C1328 C1342 1.377 . S
C1329 C1328 1.524 . S
C1329 C1330 1.397 . S
C1329 C1334 1.363 . S
C1330 H1307 0.950 . S
C1330 C1329 1.397 . S
C1330 C1331 1.334 . S
C1331 H1308 0.950 . S
C1331 C1330 1.334 . S
C1331 C1332 1.287 . S
C1332 C1331 1.287 . S
C1332 C1333 1.524 . S
C1332 H1351 0.913 . S
C1333 H1309 0.950 . S
C1333 C1332 1.524 . S
C1333 C1334 1.415 . S
C1334 H1310 0.950 . S
C1334 C1329 1.363 . S
C1334 C1333 1.415 . S
C1335 H1311 0.951 . S
C1335 C1336 1.366 . S
C1335 C1337 1.388 . S
C1336 C1335 1.366 . S
C1336 C1340 1.385 . S
C1337 H1312 0.951 . S
C1337 C1335 1.388 . S
C1337 C1338 1.366 . S
C1338 C1337 1.366 . S
C1338 C1339 1.414 . S
C1338 C1341 1.499 . S
C1339 H1313 0.950 . S
C1339 C1338 1.414 . S
C1339 C1340 1.374 . S
C1340 H1314 0.950 . S
C1340 C1336 1.385 . S
C1340 C1339 1.374 . S
C1341 C1338 1.499 . S
C1341 C1342 1.373 . S
C1341 C1343 1.389 . S
C1342 H1315 0.950 . S
C1342 C1328 1.377 . S
C1342 C1341 1.373 . S
C1343 C1327 1.377 . S
C1343 C1341 1.389 . S
C1343 C1344 1.524 . S
C1344 C1343 1.524 . S
C1344 C1345 1.397 . S
C1344 C1349 1.363 . S
C1345 H1316 0.950 . S
C1345 C1344 1.397 . S
C1345 C1346 1.334 . S
C1346 H1317 0.950 . S
C1346 C1345 1.334 . S
C1346 C1347 1.287 . S
C1347 C1346 1.287 . S
C1347 C1348 1.524 . S
C1347 H1350 0.999 . S
C1348 H1318 0.950 . S
C1348 C1347 1.524 . S
C1348 C1349 1.415 . S
C1349 H1319 0.950 . S
C1349 C1344 1.363 . S
C1349 C1348 1.415 . S
H1350 C1347 0.999 . S
H1351 C1332 0.913 . S
H1352 C1370 0.951 . S
H1353 C1372 0.951 . S
H1354 C1374 0.950 . S
H1355 C1375 0.950 . S
H1356 C1377 0.950 . S
H1357 C1380 0.950 . S
H1358 C1381 0.950 . S
H1359 C1383 0.950 . S
H1360 C1384 0.950 . S
H1361 C1385 0.951 . S
H1362 C1387 0.951 . S
H1363 C1389 0.950 . S
H1364 C1390 0.950 . S
H1365 C1392 0.976 . S
H1366 C1395 0.950 . S
H1367 C1396 0.950 . S
H1368 C1398 0.950 . S
H1369 C1399 0.950 . S
C1370 H1352 0.951 . S
C1370 C1371 1.366 . S
C1370 C1372 1.388 . S
C1371 C1370 1.366 . S
C1371 C1375 1.385 . S
C1372 H1353 0.951 . S
C1372 C1370 1.388 . S
C1372 C1373 1.366 . S
C1373 C1372 1.366 . S
C1373 C1374 1.414 . S
C1373 C1376 1.499 . S
C1374 H1354 0.950 . S
C1374 C1373 1.414 . S
C1374 C1375 1.374 . S
C1375 H1355 0.950 . S
C1375 C1371 1.385 . S
C1375 C1374 1.374 . S
C1376 C1373 1.499 . S
C1376 C1377 1.373 . S
C1376 C1378 1.389 . S
C1377 H1356 0.950 . S
C1377 C1376 1.373 . S
C1377 C1393 1.377 . S
C1378 C1376 1.389 . S
C1378 C1379 1.524 . S
C1378 C1392 1.377 . S
C1379 C1378 1.524 . S
C1379 C1380 1.397 . S
C1379 C1384 1.363 . S
C1380 H1357 0.950 . S
C1380 C1379 1.397 . S
C1380 C1381 1.334 . S
C1381 H1358 0.950 . S
C1381 C1380 1.334 . S
C1381 C1382 1.287 1_545 S
C1382 C1381 1.287 1_565 S
C1382 C1383 1.524 . S
C1382 H1401 0.913 . S
C1383 H1359 0.950 . S
C1383 C1382 1.524 . S
C1383 C1384 1.415 1_565 S
C1384 H1360 0.950 . S
C1384 C1379 1.363 . S
C1384 C1383 1.415 1_545 S
C1385 H1361 0.951 . S
C1385 C1386 1.366 . S
C1385 C1387 1.388 . S
C1386 C1385 1.366 . S
C1386 C1390 1.385 . S
C1387 H1362 0.951 . S
C1387 C1385 1.388 . S
C1387 C1388 1.366 . S
C1388 C1387 1.366 . S
C1388 C1389 1.414 . S
C1388 C1391 1.499 1_455 S
C1389 H1363 0.950 . S
C1389 C1388 1.414 . S
C1389 C1390 1.374 . S
C1390 H1364 0.950 . S
C1390 C1386 1.385 . S
C1390 C1389 1.374 . S
C1391 C1388 1.499 1_655 S
C1391 C1392 1.373 . S
C1391 C1393 1.389 . S
C1392 H1365 0.976 . S
C1392 C1378 1.377 . S
C1392 C1391 1.373 . S
C1393 C1377 1.377 . S
C1393 C1391 1.389 . S
C1393 C1394 1.524 . S
C1394 C1393 1.524 . S
C1394 C1395 1.397 . S
C1394 C1399 1.363 . S
C1395 H1366 0.950 . S
C1395 C1394 1.397 . S
C1395 C1396 1.334 . S
C1396 H1367 0.950 . S
C1396 C1395 1.334 . S
C1396 C1397 1.287 . S
C1397 C1396 1.287 . S
C1397 C1398 1.524 . S
C1397 H1400 0.999 . S
C1398 H1368 0.950 . S
C1398 C1397 1.524 . S
C1398 C1399 1.415 . S
C1399 H1369 0.950 . S
C1399 C1394 1.363 . S
C1399 C1398 1.415 . S
H1400 C1397 0.999 . S
H1401 C1382 0.913 . S
H1402 C1420 0.951 . S
H1403 C1422 0.951 . S
H1404 C1424 0.950 . S
H1405 C1425 0.950 . S
H1406 C1427 0.950 . S
H1407 C1430 0.950 . S
H1408 C1431 0.950 . S
H1409 C1433 0.950 . S
H1410 C1434 0.950 . S
H1411 C1435 0.951 . S
H1412 C1437 0.951 . S
H1413 C1439 0.950 . S
H1414 C1440 0.950 . S
H1415 C1442 0.950 . S
H1416 C1445 0.950 . S
H1417 C1446 0.950 . S
H1418 C1448 0.950 . S
H1419 C1449 0.950 . S
C1420 H1402 0.951 . S
C1420 C1421 1.366 . S
C1420 C1422 1.388 . S
C1421 C1420 1.366 . S
C1421 C1425 1.385 . S
C1422 H1403 0.951 . S
C1422 C1420 1.388 . S
C1422 C1423 1.366 . S
C1423 C1422 1.366 . S
C1423 C1424 1.414 . S
C1423 C1426 1.499 . S
C1424 H1404 0.950 . S
C1424 C1423 1.414 . S
C1424 C1425 1.374 . S
C1425 H1405 0.950 . S
C1425 C1421 1.385 . S
C1425 C1424 1.374 . S
C1426 C1423 1.499 . S
C1426 C1427 1.373 . S
C1426 C1428 1.389 . S
C1427 H1406 0.950 . S
C1427 C1426 1.373 . S
C1427 C1443 1.377 . S
C1428 C1426 1.389 . S
C1428 C1429 1.524 . S
C1428 C1442 1.377 . S
C1429 C1428 1.524 . S
C1429 C1430 1.397 . S
C1429 C1434 1.363 . S
C1430 H1407 0.950 . S
C1430 C1429 1.397 . S
C1430 C1431 1.334 . S
C1431 H1408 0.950 . S
C1431 C1430 1.334 . S
C1431 C1432 1.287 . S
C1432 C1431 1.287 . S
C1432 C1433 1.524 . S
C1432 H1451 0.913 . S
C1433 H1409 0.950 . S
C1433 C1432 1.524 . S
C1433 C1434 1.415 . S
C1434 H1410 0.950 . S
C1434 C1429 1.363 . S
C1434 C1433 1.415 . S
C1435 H1411 0.951 . S
C1435 C1436 1.366 . S
C1435 C1437 1.388 . S
C1436 C1435 1.366 . S
C1436 C1440 1.385 . S
C1437 H1412 0.951 . S
C1437 C1435 1.388 . S
C1437 C1438 1.366 . S
C1438 C1437 1.366 . S
C1438 C1439 1.414 . S
C1438 C1441 1.499 . S
C1439 H1413 0.950 . S
C1439 C1438 1.414 . S
C1439 C1440 1.374 . S
C1440 H1414 0.950 . S
C1440 C1436 1.385 . S
C1440 C1439 1.374 . S
C1441 C1438 1.499 . S
C1441 C1442 1.373 . S
C1441 C1443 1.389 . S
C1442 H1415 0.950 . S
C1442 C1428 1.377 . S
C1442 C1441 1.373 . S
C1443 C1427 1.377 . S
C1443 C1441 1.389 . S
C1443 C1444 1.524 . S
C1444 C1443 1.524 . S
C1444 C1445 1.397 . S
C1444 C1449 1.363 . S
C1445 H1416 0.950 . S
C1445 C1444 1.397 . S
C1445 C1446 1.334 . S
C1446 H1417 0.950 . S
C1446 C1445 1.334 . S
C1446 C1447 1.287 . S
C1447 C1446 1.287 . S
C1447 C1448 1.524 . S
C1447 H1450 0.999 . S
C1448 H1418 0.950 . S
C1448 C1447 1.524 . S
C1448 C1449 1.415 . S
C1449 H1419 0.950 . S
C1449 C1444 1.363 . S
C1449 C1448 1.415 . S
H1450 C1447 0.999 . S
H1451 C1432 0.913 . S
H1452 C1470 0.951 . S
H1453 C1472 0.951 . S
H1454 C1474 0.950 . S
H1455 C1475 0.950 . S
H1456 C1477 0.950 . S
H1457 C1480 0.950 . S
H1458 C1481 0.950 . S
H1459 C1483 0.950 . S
H1460 C1484 0.950 . S
H1461 C1485 0.951 . S
H1462 C1487 0.951 . S
H1463 C1489 0.950 . S
H1464 C1490 0.950 . S
H1465 C1492 0.950 . S
H1466 C1495 0.950 . S
H1467 C1496 0.950 . S
H1468 C1498 0.950 . S
H1469 C1499 0.915 1_565 S
C1470 H1452 0.951 . S
C1470 C1471 1.366 1_545 S
C1470 C1472 1.388 . S
C1471 C1470 1.366 1_565 S
C1471 C1475 1.385 . S
C1472 H1453 0.951 . S
C1472 C1470 1.388 . S
C1472 C1473 1.366 . S
C1473 C1472 1.366 . S
C1473 C1474 1.414 1_545 S
C1473 C1476 1.499 . S
C1474 H1454 0.950 . S
C1474 C1473 1.414 1_565 S
C1474 C1475 1.374 . S
C1475 H1455 0.950 . S
C1475 C1471 1.385 . S
C1475 C1474 1.374 . S
C1476 C1473 1.499 . S
C1476 C1477 1.373 . S
C1476 C1478 1.389 . S
C1477 H1456 0.950 . S
C1477 C1476 1.373 . S
C1477 C1493 1.377 . S
C1478 C1476 1.389 . S
C1478 C1479 1.524 . S
C1478 C1492 1.377 . S
C1479 C1478 1.524 . S
C1479 C1480 1.397 1_545 S
C1479 C1484 1.363 . S
C1480 H1457 0.950 . S
C1480 C1479 1.397 1_565 S
C1480 C1481 1.334 . S
C1481 H1458 0.950 . S
C1481 C1480 1.334 . S
C1481 C1482 1.287 . S
C1482 C1481 1.287 . S
C1482 C1483 1.524 1_565 S
C1482 H1501 0.913 . S
C1483 H1459 0.950 . S
C1483 C1482 1.524 1_545 S
C1483 C1484 1.415 . S
C1484 H1460 0.950 . S
C1484 C1479 1.363 . S
C1484 C1483 1.415 . S
C1485 H1461 0.951 . S
C1485 C1486 1.366 . S
C1485 C1487 1.388 . S
C1486 C1485 1.366 . S
C1486 C1490 1.385 . S
C1487 H1462 0.951 . S
C1487 C1485 1.388 . S
C1487 C1488 1.366 . S
C1488 C1487 1.366 . S
C1488 C1489 1.414 . S
C1488 C1491 1.499 . S
C1489 H1463 0.950 . S
C1489 C1488 1.414 . S
C1489 C1490 1.374 . S
C1490 H1464 0.950 . S
C1490 C1486 1.385 . S
C1490 C1489 1.374 . S
C1491 C1488 1.499 . S
C1491 C1492 1.373 . S
C1491 C1493 1.389 . S
C1492 H1465 0.950 . S
C1492 C1478 1.377 . S
C1492 C1491 1.373 . S
C1493 C1477 1.377 . S
C1493 C1491 1.389 . S
C1493 C1494 1.524 . S
C1494 C1493 1.524 . S
C1494 C1495 1.397 . S
C1494 C1499 1.363 . S
C1495 H1466 0.950 . S
C1495 C1494 1.397 . S
C1495 C1496 1.334 . S
C1496 H1467 0.950 . S
C1496 C1495 1.334 . S
C1496 C1497 1.287 . S
C1497 C1496 1.287 . S
C1497 C1498 1.524 . S
C1497 H1500 0.999 . S
C1498 H1468 0.950 . S
C1498 C1497 1.524 . S
C1498 C1499 1.415 . S
C1499 H1469 0.915 1_545 S
C1499 C1494 1.363 . S
C1499 C1498 1.415 . S
H1500 C1497 0.999 . S
H1501 C1482 0.913 . S
H1502 C1520 0.951 . S
H1503 C1522 0.951 . S
H1504 C1524 0.950 . S
H1505 C1525 0.950 . S
H1506 C1527 0.950 . S
H1507 C1530 0.950 . S
H1508 C1531 0.950 . S
H1509 C1533 0.950 . S
H1510 C1534 0.950 . S
H1511 C1535 0.951 . S
H1512 C1537 0.951 . S
H1513 C1539 0.950 . S
H1514 C1540 0.950 . S
H1515 C1542 0.950 . S
H1516 C1545 0.950 . S
H1517 C1546 0.950 . S
H1518 C1548 0.950 . S
H1519 C1549 0.950 . S
C1520 H1502 0.951 . S
C1520 C1521 1.366 . S
C1520 C1522 1.388 . S
C1521 C1520 1.366 . S
C1521 C1525 1.385 . S
C1522 H1503 0.951 . S
C1522 C1520 1.388 . S
C1522 C1523 1.366 . S
C1523 C1522 1.366 . S
C1523 C1524 1.414 . S
C1523 C1526 1.499 . S
C1524 H1504 0.950 . S
C1524 C1523 1.414 . S
C1524 C1525 1.374 . S
C1525 H1505 0.950 . S
C1525 C1521 1.385 . S
C1525 C1524 1.374 . S
C1526 C1523 1.499 . S
C1526 C1527 1.373 . S
C1526 C1528 1.389 . S
C1527 H1506 0.950 . S
C1527 C1526 1.373 . S
C1527 C1543 1.377 . S
C1528 C1526 1.389 . S
C1528 C1529 1.524 . S
C1528 C1542 1.377 . S
C1529 C1528 1.524 . S
C1529 C1530 1.397 . S
C1529 C1534 1.363 . S
C1530 H1507 0.950 . S
C1530 C1529 1.397 . S
C1530 C1531 1.334 . S
C1531 H1508 0.950 . S
C1531 C1530 1.334 . S
C1531 C1532 1.287 . S
C1532 C1531 1.287 . S
C1532 C1533 1.524 . S
C1532 H1551 0.913 . S
C1533 H1509 0.950 . S
C1533 C1532 1.524 . S
C1533 C1534 1.415 . S
C1534 H1510 0.950 . S
C1534 C1529 1.363 . S
C1534 C1533 1.415 . S
C1535 H1511 0.951 . S
C1535 C1536 1.366 . S
C1535 C1537 1.388 . S
C1536 C1535 1.366 . S
C1536 C1540 1.385 . S
C1537 H1512 0.951 . S
C1537 C1535 1.388 . S
C1537 C1538 1.366 . S
C1538 C1537 1.366 . S
C1538 C1539 1.414 . S
C1538 C1541 1.499 . S
C1539 H1513 0.950 . S
C1539 C1538 1.414 . S
C1539 C1540 1.374 . S
C1540 H1514 0.950 . S
C1540 C1536 1.385 . S
C1540 C1539 1.374 . S
C1541 C1538 1.499 . S
C1541 C1542 1.373 . S
C1541 C1543 1.389 . S
C1542 H1515 0.950 . S
C1542 C1528 1.377 . S
C1542 C1541 1.373 . S
C1543 C1527 1.377 . S
C1543 C1541 1.389 . S
C1543 C1544 1.524 . S
C1544 C1543 1.524 . S
C1544 C1545 1.397 . S
C1544 C1549 1.363 . S
C1545 H1516 0.950 . S
C1545 C1544 1.397 . S
C1545 C1546 1.334 . S
C1546 H1517 0.950 . S
C1546 C1545 1.334 . S
C1546 C1547 1.287 . S
C1547 C1546 1.287 . S
C1547 C1548 1.524 . S
C1547 H1550 0.999 . S
C1548 H1518 0.950 . S
C1548 C1547 1.524 . S
C1548 C1549 1.415 . S
C1549 H1519 0.950 . S
C1549 C1544 1.363 . S
C1549 C1548 1.415 . S
H1550 C1547 0.999 . S
H1551 C1532 0.913 . S
H1552 C1570 0.951 . S
H1553 C1572 0.951 . S
H1554 C1574 0.950 . S
H1555 C1575 0.950 . S
H1556 C1577 0.950 . S
H1557 C1580 0.950 . S
H1558 C1581 0.950 . S
H1559 C1583 0.950 1_455 S
H1560 C1584 0.950 1_455 S
H1561 C1585 0.951 . S
H1562 C1587 0.951 . S
H1563 C1589 0.950 . S
H1564 C1590 0.950 . S
H1565 C1592 0.950 . S
H1566 C1595 0.950 . S
H1567 C1596 0.950 . S
H1568 C1598 0.950 . S
H1569 C1599 0.950 . S
C1570 H1552 0.951 . S
C1570 C1571 1.366 . S
C1570 C1572 1.388 . S
C1571 C1570 1.366 . S
C1571 C1575 1.385 . S
C1572 H1553 0.951 . S
C1572 C1570 1.388 . S
C1572 C1573 1.366 . S
C1573 C1572 1.366 . S
C1573 C1574 1.414 . S
C1573 C1576 1.499 . S
C1574 H1554 0.950 . S
C1574 C1573 1.414 . S
C1574 C1575 1.374 . S
C1575 H1555 0.950 . S
C1575 C1571 1.385 . S
C1575 C1574 1.374 . S
C1576 C1573 1.499 . S
C1576 C1577 1.373 . S
C1576 C1578 1.389 . S
C1577 H1556 0.950 . S
C1577 C1576 1.373 . S
C1577 C1593 1.377 . S
C1578 C1576 1.389 . S
C1578 C1579 1.524 . S
C1578 C1592 1.377 . S
C1579 C1578 1.524 . S
C1579 C1580 1.397 . S
C1579 C1584 1.363 . S
C1580 H1557 0.950 . S
C1580 C1579 1.397 . S
C1580 C1581 1.334 1_545 S
C1581 H1558 0.950 . S
C1581 C1580 1.334 1_565 S
C1581 C1582 1.287 . S
C1582 C1581 1.287 . S
C1582 C1583 1.524 1_565 S
C1582 H1601 0.913 . S
C1583 H1559 0.950 1_655 S
C1583 C1582 1.524 1_545 S
C1583 C1584 1.415 . S
C1584 H1560 0.950 1_655 S
C1584 C1579 1.363 . S
C1584 C1583 1.415 . S
C1585 H1561 0.951 . S
C1585 C1586 1.366 1_655 S
C1585 C1587 1.388 . S
C1586 C1585 1.366 1_455 S
C1586 C1590 1.385 . S
C1587 H1562 0.951 . S
C1587 C1585 1.388 . S
C1587 C1588 1.366 . S
C1588 C1587 1.366 . S
C1588 C1589 1.414 1_655 S
C1588 C1591 1.499 . S
C1589 H1563 0.950 . S
C1589 C1588 1.414 1_455 S
C1589 C1590 1.374 . S
C1590 H1564 0.950 . S
C1590 C1586 1.385 . S
C1590 C1589 1.374 . S
C1591 C1588 1.499 . S
C1591 C1592 1.373 . S
C1591 C1593 1.389 . S
C1592 H1565 0.950 . S
C1592 C1578 1.377 . S
C1592 C1591 1.373 . S
C1593 C1577 1.377 . S
C1593 C1591 1.389 . S
C1593 C1594 1.524 . S
C1594 C1593 1.524 . S
C1594 C1595 1.397 . S
C1594 C1599 1.363 . S
C1595 H1566 0.950 . S
C1595 C1594 1.397 . S
C1595 C1596 1.334 . S
C1596 H1567 0.950 . S
C1596 C1595 1.334 . S
C1596 C1597 1.287 . S
C1597 C1596 1.287 . S
C1597 C1598 1.524 . S
C1597 H1600 0.999 . S
C1598 H1568 0.950 . S
C1598 C1597 1.524 . S
C1598 C1599 1.415 . S
C1599 H1569 0.950 . S
C1599 C1594 1.363 . S
C1599 C1598 1.415 . S
H1600 C1597 0.999 . S
H1601 C1582 0.913 . S
H1602 C1620 0.951 . S
H1603 C1622 0.951 . S
H1604 C1624 0.950 . S
H1605 C1625 0.950 . S
H1606 C1627 0.950 . S
H1607 C1630 0.950 . S
H1608 C1631 0.950 . S
H1609 C1633 0.950 . S
H1610 C1634 0.950 . S
H1611 C1635 0.951 . S
H1612 C1637 0.951 . S
H1613 C1639 0.950 . S
H1614 C1640 0.950 . S
H1615 C1642 0.950 . S
H1616 C1645 0.950 . S
H1617 C1646 0.950 . S
H1618 C1648 0.950 . S
H1619 C1649 0.950 . S
C1620 H1602 0.951 . S
C1620 C1621 1.366 . S
C1620 C1622 1.388 . S
C1621 C1620 1.366 . S
C1621 C1625 1.385 . S
C1622 H1603 0.951 . S
C1622 C1620 1.388 . S
C1622 C1623 1.366 . S
C1623 C1622 1.366 . S
C1623 C1624 1.414 . S
C1623 C1626 1.499 . S
C1624 H1604 0.950 . S
C1624 C1623 1.414 . S
C1624 C1625 1.374 . S
C1625 H1605 0.950 . S
C1625 C1621 1.385 . S
C1625 C1624 1.374 . S
C1626 C1623 1.499 . S
C1626 C1627 1.373 . S
C1626 C1628 1.389 . S
C1627 H1606 0.950 . S
C1627 C1626 1.373 . S
C1627 C1643 1.377 . S
C1628 C1626 1.389 . S
C1628 C1629 1.524 . S
C1628 C1642 1.377 . S
C1629 C1628 1.524 . S
C1629 C1630 1.397 . S
C1629 C1634 1.363 . S
C1630 H1607 0.950 . S
C1630 C1629 1.397 . S
C1630 C1631 1.334 . S
C1631 H1608 0.950 . S
C1631 C1630 1.334 . S
C1631 C1632 1.287 . S
C1632 C1631 1.287 . S
C1632 C1633 1.524 . S
C1632 H1651 0.913 . S
C1633 H1609 0.950 . S
C1633 C1632 1.524 . S
C1633 C1634 1.415 . S
C1634 H1610 0.950 . S
C1634 C1629 1.363 . S
C1634 C1633 1.415 . S
C1635 H1611 0.951 . S
C1635 C1636 1.366 . S
C1635 C1637 1.388 . S
C1636 C1635 1.366 . S
C1636 C1640 1.385 . S
C1637 H1612 0.951 . S
C1637 C1635 1.388 . S
C1637 C1638 1.366 . S
C1638 C1637 1.366 . S
C1638 C1639 1.414 . S
C1638 C1641 1.499 . S
C1639 H1613 0.950 . S
C1639 C1638 1.414 . S
C1639 C1640 1.374 . S
C1640 H1614 0.950 . S
C1640 C1636 1.385 . S
C1640 C1639 1.374 . S
C1641 C1638 1.499 . S
C1641 C1642 1.373 . S
C1641 C1643 1.389 . S
C1642 H1615 0.950 . S
C1642 C1628 1.377 . S
C1642 C1641 1.373 . S
C1643 C1627 1.377 . S
C1643 C1641 1.389 . S
C1643 C1644 1.524 . S
C1644 C1643 1.524 . S
C1644 C1645 1.397 . S
C1644 C1649 1.363 . S
C1645 H1616 0.950 . S
C1645 C1644 1.397 . S
C1645 C1646 1.334 . S
C1646 H1617 0.950 . S
C1646 C1645 1.334 . S
C1646 C1647 1.287 . S
C1647 C1646 1.287 . S
C1647 C1648 1.524 . S
C1647 H1650 0.999 . S
C1648 H1618 0.950 . S
C1648 C1647 1.524 . S
C1648 C1649 1.415 . S
C1649 H1619 0.950 . S
C1649 C1644 1.363 . S
C1649 C1648 1.415 . S
H1650 C1647 0.999 . S
H1651 C1632 0.913 . S
H1652 C1670 0.951 . S
H1653 C1672 0.951 . S
H1654 C1674 0.950 . S
H1655 C1675 0.950 . S
H1656 C1677 0.950 . S
H1657 C1680 0.950 . S
H1658 C1681 0.950 . S
H1659 C1683 0.950 . S
H1660 C1684 0.950 . S
H1661 C1685 0.951 . S
H1662 C1687 0.951 . S
H1663 C1689 0.950 . S
H1664 C1690 0.950 . S
H1665 C1692 0.950 . S
H1666 C1695 0.950 . S
H1667 C1696 0.950 . S
H1668 C1698 0.950 . S
H1669 C1699 0.950 . S
C1670 H1652 0.951 . S
C1670 C1671 1.366 1_565 S
C1670 C1672 1.388 1_565 S
C1671 C1670 1.366 1_545 S
C1671 C1675 1.385 . S
C1672 H1653 0.951 . S
C1672 C1670 1.388 1_545 S
C1672 C1673 1.366 . S
C1673 C1672 1.366 . S
C1673 C1674 1.414 . S
C1673 C1676 1.499 . S
C1674 H1654 0.950 . S
C1674 C1673 1.414 . S
C1674 C1675 1.374 . S
C1675 H1655 0.950 . S
C1675 C1671 1.385 . S
C1675 C1674 1.374 . S
C1676 C1673 1.499 . S
C1676 C1677 1.373 . S
C1676 C1678 1.389 . S
C1677 H1656 0.950 . S
C1677 C1676 1.373 . S
C1677 C1693 1.377 . S
C1678 C1676 1.389 . S
C1678 C1679 1.524 . S
C1678 C1692 1.377 . S
C1679 C1678 1.524 . S
C1679 C1680 1.397 . S
C1679 C1684 1.363 . S
C1680 H1657 0.950 . S
C1680 C1679 1.397 . S
C1680 C1681 1.334 . S
C1681 H1658 0.950 . S
C1681 C1680 1.334 . S
C1681 C1682 1.287 . S
C1682 C1681 1.287 . S
C1682 C1683 1.524 . S
C1682 H1701 0.913 . S
C1683 H1659 0.950 . S
C1683 C1682 1.524 . S
C1683 C1684 1.415 . S
C1684 H1660 0.950 . S
C1684 C1679 1.363 . S
C1684 C1683 1.415 . S
C1685 H1661 0.951 . S
C1685 C1686 1.366 . S
C1685 C1687 1.388 . S
C1686 C1685 1.366 . S
C1686 C1690 1.385 . S
C1687 H1662 0.951 . S
C1687 C1685 1.388 . S
C1687 C1688 1.366 . S
C1688 C1687 1.366 . S
C1688 C1689 1.414 . S
C1688 C1691 1.499 . S
C1689 H1663 0.950 . S
C1689 C1688 1.414 . S
C1689 C1690 1.374 . S
C1690 H1664 0.950 . S
C1690 C1686 1.385 . S
C1690 C1689 1.374 . S
C1691 C1688 1.499 . S
C1691 C1692 1.373 . S
C1691 C1693 1.389 . S
C1692 H1665 0.950 . S
C1692 C1678 1.377 . S
C1692 C1691 1.373 . S
C1693 C1677 1.377 . S
C1693 C1691 1.389 . S
C1693 C1694 1.524 . S
C1694 C1693 1.524 . S
C1694 C1695 1.397 . S
C1694 C1699 1.363 . S
C1695 H1666 0.950 . S
C1695 C1694 1.397 . S
C1695 C1696 1.334 . S
C1696 H1667 0.950 . S
C1696 C1695 1.334 . S
C1696 C1697 1.287 . S
C1697 C1696 1.287 . S
C1697 C1698 1.524 . S
C1697 H1700 0.999 . S
C1698 H1668 0.950 . S
C1698 C1697 1.524 . S
C1698 C1699 1.415 . S
C1699 H1669 0.950 . S
C1699 C1694 1.363 . S
C1699 C1698 1.415 . S
H1700 C1697 0.999 . S
H1701 C1682 0.913 . S
H1702 C1720 0.951 . S
H1703 C1722 0.951 . S
H1704 C1724 0.950 . S
H1705 C1725 0.950 . S
H1706 C1727 0.950 . S
H1707 C1730 0.950 . S
H1708 C1731 0.950 . S
H1709 C1733 0.950 . S
H1710 C1734 0.950 . S
H1711 C1735 0.951 . S
H1712 C1737 0.951 . S
H1713 C1739 0.950 . S
H1714 C1740 0.950 . S
H1715 C1742 0.950 . S
H1716 C1745 0.950 . S
H1717 C1746 0.950 . S
H1718 C1748 0.950 . S
H1719 C1749 0.950 . S
C1720 H1702 0.951 . S
C1720 C1721 1.366 . S
C1720 C1722 1.388 . S
C1721 C1720 1.366 . S
C1721 C1725 1.385 . S
C1722 H1703 0.951 . S
C1722 C1720 1.388 . S
C1722 C1723 1.366 . S
C1723 C1722 1.366 . S
C1723 C1724 1.414 . S
C1723 C1726 1.499 . S
C1724 H1704 0.950 . S
C1724 C1723 1.414 . S
C1724 C1725 1.374 . S
C1725 H1705 0.950 . S
C1725 C1721 1.385 . S
C1725 C1724 1.374 . S
C1726 C1723 1.499 . S
C1726 C1727 1.373 . S
C1726 C1728 1.389 . S
C1727 H1706 0.950 . S
C1727 C1726 1.373 . S
C1727 C1743 1.377 . S
C1728 C1726 1.389 . S
C1728 C1729 1.524 . S
C1728 C1742 1.377 . S
C1729 C1728 1.524 . S
C1729 C1730 1.397 . S
C1729 C1734 1.363 . S
C1730 H1707 0.950 . S
C1730 C1729 1.397 . S
C1730 C1731 1.334 . S
C1731 H1708 0.950 . S
C1731 C1730 1.334 . S
C1731 C1732 1.287 . S
C1732 C1731 1.287 . S
C1732 C1733 1.524 . S
C1732 H1751 0.913 . S
C1733 H1709 0.950 . S
C1733 C1732 1.524 . S
C1733 C1734 1.415 . S
C1734 H1710 0.950 . S
C1734 C1729 1.363 . S
C1734 C1733 1.415 . S
C1735 H1711 0.951 . S
C1735 C1736 1.366 . S
C1735 C1737 1.388 . S
C1736 C1735 1.366 . S
C1736 C1740 1.385 . S
C1737 H1712 0.951 . S
C1737 C1735 1.388 . S
C1737 C1738 1.366 . S
C1738 C1737 1.366 . S
C1738 C1739 1.414 . S
C1738 C1741 1.499 . S
C1739 H1713 0.950 . S
C1739 C1738 1.414 . S
C1739 C1740 1.374 . S
C1740 H1714 0.950 . S
C1740 C1736 1.385 . S
C1740 C1739 1.374 . S
C1741 C1738 1.499 . S
C1741 C1742 1.373 . S
C1741 C1743 1.389 . S
C1742 H1715 0.950 . S
C1742 C1728 1.377 . S
C1742 C1741 1.373 . S
C1743 C1727 1.377 . S
C1743 C1741 1.389 . S
C1743 C1744 1.524 . S
C1744 C1743 1.524 . S
C1744 C1745 1.397 . S
C1744 C1749 1.363 . S
C1745 H1716 0.950 . S
C1745 C1744 1.397 . S
C1745 C1746 1.334 . S
C1746 H1717 0.950 . S
C1746 C1745 1.334 . S
C1746 C1747 1.287 . S
C1747 C1746 1.287 . S
C1747 C1748 1.524 . S
C1747 H1750 0.999 . S
C1748 H1718 0.950 . S
C1748 C1747 1.524 . S
C1748 C1749 1.415 . S
C1749 H1719 0.950 . S
C1749 C1744 1.363 . S
C1749 C1748 1.415 . S
H1750 C1747 0.999 . S
H1751 C1732 0.913 . S
H1752 C1770 0.951 . S
H1753 C1772 0.951 . S
H1754 C1774 0.950 . S
H1755 C1775 0.950 . S
H1756 C1777 0.950 . S
H1757 C1780 0.950 . S
H1758 C1781 0.939 1_556 S
H1759 C1783 0.950 . S
H1760 C1784 0.950 . S
H1761 C1785 0.951 . S
H1762 C1787 0.951 . S
H1763 C1789 0.973 . S
H1764 C1790 0.950 . S
H1765 C1792 0.950 . S
H1766 C1795 0.950 1_565 S
H1767 C1796 0.950 . S
H1768 C1798 0.950 . S
H1769 C1799 0.950 . S
C1770 H1752 0.951 . S
C1770 C1771 1.366 . S
C1770 C1772 1.388 . S
C1771 C1770 1.366 . S
C1771 C1775 1.385 . S
C1772 H1753 0.951 . S
C1772 C1770 1.388 . S
C1772 C1773 1.366 . S
C1773 C1772 1.366 . S
C1773 C1774 1.414 . S
C1773 C1776 1.499 . S
C1774 H1754 0.950 . S
C1774 C1773 1.414 . S
C1774 C1775 1.374 . S
C1775 H1755 0.950 . S
C1775 C1771 1.385 . S
C1775 C1774 1.374 . S
C1776 C1773 1.499 . S
C1776 C1777 1.373 . S
C1776 C1778 1.389 . S
C1777 H1756 0.950 . S
C1777 C1776 1.373 . S
C1777 C1793 1.377 1_565 S
C1778 C1776 1.389 . S
C1778 C1779 1.524 . S
C1778 C1792 1.377 . S
C1779 C1778 1.524 . S
C1779 C1780 1.397 . S
C1779 C1784 1.363 . S
C1780 H1757 0.950 . S
C1780 C1779 1.397 . S
C1780 C1781 1.334 . S
C1781 H1758 0.939 1_554 S
C1781 C1780 1.334 . S
C1781 C1782 1.287 . S
C1782 C1781 1.287 . S
C1782 C1783 1.524 . S
C1782 H1801 0.913 1_554 S
C1783 H1759 0.950 . S
C1783 C1782 1.524 . S
C1783 C1784 1.415 . S
C1784 H1760 0.950 . S
C1784 C1779 1.363 . S
C1784 C1783 1.415 . S
C1785 H1761 0.951 . S
C1785 C1786 1.366 . S
C1785 C1787 1.388 . S
C1786 C1785 1.366 . S
C1786 C1790 1.385 . S
C1787 H1762 0.951 . S
C1787 C1785 1.388 . S
C1787 C1788 1.366 . S
C1788 C1787 1.366 . S
C1788 C1789 1.407 1_545 S
C1788 C1791 1.499 1_545 S
C1789 H1763 0.973 . S
C1789 C1788 1.407 1_565 S
C1789 C1790 1.358 1_565 S
C1790 H1764 0.950 . S
C1790 C1786 1.385 . S
C1790 C1789 1.358 1_545 S
C1791 C1788 1.499 1_565 S
C1791 C1792 1.373 . S
C1791 C1793 1.389 1_565 S
C1792 H1765 0.950 . S
C1792 C1778 1.377 . S
C1792 C1791 1.373 . S
C1793 C1777 1.377 1_545 S
C1793 C1791 1.389 1_545 S
C1793 C1794 1.524 . S
C1794 C1793 1.524 . S
C1794 C1795 1.397 . S
C1794 C1799 1.363 . S
C1795 H1766 0.950 1_545 S
C1795 C1794 1.397 . S
C1795 C1796 1.334 . S
C1796 H1767 0.950 . S
C1796 C1795 1.334 . S
C1796 C1797 1.287 . S
C1797 C1796 1.287 . S
C1797 C1798 1.524 . S
C1797 H1800 0.999 . S
C1798 H1768 0.950 . S
C1798 C1797 1.524 . S
C1798 C1799 1.415 . S
C1799 H1769 0.950 . S
C1799 C1794 1.363 . S
C1799 C1798 1.415 . S
H1800 C1797 0.999 . S
H1801 C1782 0.913 1_556 S
H1802 C1820 0.954 1_556 S
H1803 C1822 0.951 . S
H1804 C1824 0.950 . S
H1805 C1825 0.950 . S
H1806 C1827 0.950 . S
H1807 C1830 0.950 . S
H1808 C1831 0.950 . S
H1809 C1833 0.950 . S
H1810 C1834 0.950 . S
H1811 C1835 0.951 . S
H1812 C1837 0.951 . S
H1813 C1839 0.939 1_556 S
H1814 C1840 0.937 1_556 S
H1815 C1842 0.950 . S
H1816 C1845 0.950 . S
H1817 C1846 0.950 . S
H1818 C1848 0.950 . S
H1819 C1849 0.950 . S
C1820 H1802 0.954 1_554 S
C1820 C1821 1.363 . S
C1820 C1822 1.387 1_554 S
C1821 C1820 1.363 . S
C1821 C1825 1.385 . S
C1822 H1803 0.951 . S
C1822 C1820 1.387 1_556 S
C1822 C1823 1.365 1_556 S
C1823 C1822 1.365 1_554 S
C1823 C1824 1.414 . S
C1823 C1826 1.499 . S
C1824 H1804 0.950 . S
C1824 C1823 1.414 . S
C1824 C1825 1.374 . S
C1825 H1805 0.950 . S
C1825 C1821 1.385 . S
C1825 C1824 1.374 . S
C1826 C1823 1.499 . S
C1826 C1827 1.373 . S
C1826 C1828 1.389 1_554 S
C1827 H1806 0.950 . S
C1827 C1826 1.373 . S
C1827 C1843 1.377 . S
C1828 C1826 1.389 1_556 S
C1828 C1829 1.524 . S
C1828 C1842 1.377 . S
C1829 C1828 1.524 . S
C1829 C1830 1.397 . S
C1829 C1834 1.363 . S
C1830 H1807 0.950 . S
C1830 C1829 1.397 . S
C1830 C1831 1.334 . S
C1831 H1808 0.950 . S
C1831 C1830 1.334 . S
C1831 C1832 1.287 . S
C1832 C1831 1.287 . S
C1832 C1833 1.524 . S
C1832 H1851 0.913 . S
C1833 H1809 0.950 . S
C1833 C1832 1.524 . S
C1833 C1834 1.415 . S
C1834 H1810 0.950 . S
C1834 C1829 1.363 . S
C1834 C1833 1.415 . S
C1835 H1811 0.951 . S
C1835 C1836 1.366 . S
C1835 C1837 1.388 . S
C1836 C1835 1.366 . S
C1836 C1840 1.401 . S
C1837 H1812 0.951 . S
C1837 C1835 1.388 . S
C1837 C1838 1.366 . S
C1838 C1837 1.366 . S
C1838 C1839 1.423 . S
C1838 C1841 1.499 . S
C1839 H1813 0.939 1_554 S
C1839 C1838 1.423 . S
C1839 C1840 1.373 . S
C1840 H1814 0.937 1_554 S
C1840 C1836 1.401 . S
C1840 C1839 1.373 . S
C1841 C1838 1.499 . S
C1841 C1842 1.373 1_554 S
C1841 C1843 1.389 . S
C1842 H1815 0.950 . S
C1842 C1828 1.377 . S
C1842 C1841 1.373 1_556 S
C1843 C1827 1.377 . S
C1843 C1841 1.389 . S
C1843 C1844 1.524 . S
C1844 C1843 1.524 . S
C1844 C1845 1.397 . S
C1844 C1849 1.363 . S
C1845 H1816 0.950 . S
C1845 C1844 1.397 . S
C1845 C1846 1.334 . S
C1846 H1817 0.950 . S
C1846 C1845 1.334 . S
C1846 C1847 1.287 . S
C1847 C1846 1.287 . S
C1847 C1848 1.524 . S
C1847 H1850 0.999 . S
C1848 H1818 0.950 . S
C1848 C1847 1.524 . S
C1848 C1849 1.415 . S
C1849 H1819 0.950 . S
C1849 C1844 1.363 . S
C1849 C1848 1.415 . S
H1850 C1847 0.999 . S
H1851 C1832 0.913 . S
H1852 C1870 0.951 . S
H1853 C1872 0.951 . S
H1854 C1874 0.950 . S
H1855 C1875 0.950 . S
H1856 C1877 0.950 . S
H1857 C1880 0.950 . S
H1858 C1881 0.950 . S
H1859 C1883 0.950 . S
H1860 C1884 0.950 . S
H1861 C1885 0.951 . S
H1862 C1887 0.951 . S
H1863 C1889 0.950 . S
H1864 C1890 0.950 . S
H1865 C1892 0.950 . S
H1866 C1895 0.950 . S
H1867 C1896 0.950 . S
H1868 C1898 0.950 . S
H1869 C1899 0.950 . S
C1870 H1852 0.951 . S
C1870 C1871 1.366 . S
C1870 C1872 1.388 . S
C1871 C1870 1.366 . S
C1871 C1875 1.385 . S
C1872 H1853 0.951 . S
C1872 C1870 1.388 . S
C1872 C1873 1.366 . S
C1873 C1872 1.366 . S
C1873 C1874 1.414 . S
C1873 C1876 1.499 . S
C1874 H1854 0.950 . S
C1874 C1873 1.414 . S
C1874 C1875 1.374 . S
C1875 H1855 0.950 . S
C1875 C1871 1.385 . S
C1875 C1874 1.374 . S
C1876 C1873 1.499 . S
C1876 C1877 1.373 . S
C1876 C1878 1.389 . S
C1877 H1856 0.950 . S
C1877 C1876 1.373 . S
C1877 C1893 1.377 . S
C1878 C1876 1.389 . S
C1878 C1879 1.524 . S
C1878 C1892 1.377 . S
C1879 C1878 1.524 . S
C1879 C1880 1.397 . S
C1879 C1884 1.363 . S
C1880 H1857 0.950 . S
C1880 C1879 1.397 . S
C1880 C1881 1.334 . S
C1881 H1858 0.950 . S
C1881 C1880 1.334 . S
C1881 C1882 1.287 . S
C1882 C1881 1.287 . S
C1882 C1883 1.524 . S
C1882 H1901 0.913 . S
C1883 H1859 0.950 . S
C1883 C1882 1.524 . S
C1883 C1884 1.415 . S
C1884 H1860 0.950 . S
C1884 C1879 1.363 . S
C1884 C1883 1.415 . S
C1885 H1861 0.951 . S
C1885 C1886 1.366 . S
C1885 C1887 1.388 . S
C1886 C1885 1.366 . S
C1886 C1890 1.385 . S
C1887 H1862 0.951 . S
C1887 C1885 1.388 . S
C1887 C1888 1.366 . S
C1888 C1887 1.366 . S
C1888 C1889 1.414 . S
C1888 C1891 1.499 . S
C1889 H1863 0.950 . S
C1889 C1888 1.414 . S
C1889 C1890 1.374 . S
C1890 H1864 0.950 . S
C1890 C1886 1.385 . S
C1890 C1889 1.374 . S
C1891 C1888 1.499 . S
C1891 C1892 1.373 . S
C1891 C1893 1.389 . S
C1892 H1865 0.950 . S
C1892 C1878 1.377 . S
C1892 C1891 1.373 . S
C1893 C1877 1.377 . S
C1893 C1891 1.389 . S
C1893 C1894 1.524 . S
C1894 C1893 1.524 . S
C1894 C1895 1.397 . S
C1894 C1899 1.363 . S
C1895 H1866 0.950 . S
C1895 C1894 1.397 . S
C1895 C1896 1.334 . S
C1896 H1867 0.950 . S
C1896 C1895 1.334 . S
C1896 C1897 1.287 . S
C1897 C1896 1.287 . S
C1897 C1898 1.524 . S
C1897 H1900 0.999 . S
C1898 H1868 0.950 . S
C1898 C1897 1.524 . S
C1898 C1899 1.415 . S
C1899 H1869 0.950 . S
C1899 C1894 1.363 . S
C1899 C1898 1.415 . S
H1900 C1897 0.999 . S
H1901 C1882 0.913 . S
H1902 C1920 0.951 . S
H1903 C1922 0.951 . S
H1904 C1924 0.950 . S
H1905 C1925 0.950 . S
H1906 C1927 0.950 . S
H1907 C1930 0.950 . S
H1908 C1931 0.950 . S
H1909 C1933 0.950 . S
H1910 C1934 0.950 . S
H1911 C1935 0.951 . S
H1912 C1937 0.951 . S
H1913 C1939 0.950 . S
H1914 C1940 0.950 . S
H1915 C1942 0.950 . S
H1916 C1945 0.950 . S
H1917 C1946 0.950 . S
H1918 C1948 0.950 . S
H1919 C1949 0.950 . S
C1920 H1902 0.951 . S
C1920 C1921 1.366 . S
C1920 C1922 1.388 . S
C1921 C1920 1.366 . S
C1921 C1925 1.385 . S
C1922 H1903 0.951 . S
C1922 C1920 1.388 . S
C1922 C1923 1.366 . S
C1923 C1922 1.366 . S
C1923 C1924 1.414 . S
C1923 C1926 1.499 . S
C1924 H1904 0.950 . S
C1924 C1923 1.414 . S
C1924 C1925 1.374 . S
C1925 H1905 0.950 . S
C1925 C1921 1.385 . S
C1925 C1924 1.374 . S
C1926 C1923 1.499 . S
C1926 C1927 1.373 . S
C1926 C1928 1.389 . S
C1927 H1906 0.950 . S
C1927 C1926 1.373 . S
C1927 C1943 1.377 . S
C1928 C1926 1.389 . S
C1928 C1929 1.524 . S
C1928 C1942 1.377 . S
C1929 C1928 1.524 . S
C1929 C1930 1.397 . S
C1929 C1934 1.363 . S
C1930 H1907 0.950 . S
C1930 C1929 1.397 . S
C1930 C1931 1.334 . S
C1931 H1908 0.950 . S
C1931 C1930 1.334 . S
C1931 C1932 1.287 . S
C1932 C1931 1.287 . S
C1932 C1933 1.524 . S
C1932 H1951 0.913 . S
C1933 H1909 0.950 . S
C1933 C1932 1.524 . S
C1933 C1934 1.415 . S
C1934 H1910 0.950 . S
C1934 C1929 1.363 . S
C1934 C1933 1.415 . S
C1935 H1911 0.951 . S
C1935 C1936 1.366 . S
C1935 C1937 1.388 . S
C1936 C1935 1.366 . S
C1936 C1940 1.385 . S
C1937 H1912 0.951 . S
C1937 C1935 1.388 . S
C1937 C1938 1.366 . S
C1938 C1937 1.366 . S
C1938 C1939 1.414 . S
C1938 C1941 1.499 . S
C1939 H1913 0.950 . S
C1939 C1938 1.414 . S
C1939 C1940 1.374 . S
C1940 H1914 0.950 . S
C1940 C1936 1.385 . S
C1940 C1939 1.374 . S
C1941 C1938 1.499 . S
C1941 C1942 1.373 . S
C1941 C1943 1.389 . S
C1942 H1915 0.950 . S
C1942 C1928 1.377 . S
C1942 C1941 1.373 . S
C1943 C1927 1.377 . S
C1943 C1941 1.389 . S
C1943 C1944 1.524 . S
C1944 C1943 1.524 . S
C1944 C1945 1.397 . S
C1944 C1949 1.363 . S
C1945 H1916 0.950 . S
C1945 C1944 1.397 . S
C1945 C1946 1.334 . S
C1946 H1917 0.950 . S
C1946 C1945 1.334 . S
C1946 C1947 1.287 . S
C1947 C1946 1.287 . S
C1947 C1948 1.524 . S
C1947 H1950 0.999 . S
C1948 H1918 0.950 . S
C1948 C1947 1.524 . S
C1948 C1949 1.415 . S
C1949 H1919 0.950 . S
C1949 C1944 1.363 . S
C1949 C1948 1.415 . S
H1950 C1947 0.999 . S
H1951 C1932 0.913 . S
H1952 C1970 0.951 . S
H1953 C1972 0.951 . S
H1954 C1974 0.950 . S
H1955 C1975 0.950 . S
H1956 C1977 0.950 . S
H1957 C1980 0.950 . S
H1958 C1981 0.950 . S
H1959 C1983 0.950 . S
H1960 C1984 0.950 . S
H1961 C1985 0.951 . S
H1962 C1987 0.951 . S
H1963 C1989 0.950 . S
H1964 C1990 0.950 . S
H1965 C1992 0.950 . S
H1966 C1995 0.950 . S
H1967 C1996 0.950 . S
H1968 C1998 0.950 . S
H1969 C1999 0.950 . S
C1970 H1952 0.951 . S
C1970 C1971 1.366 . S
C1970 C1972 1.388 . S
C1971 C1970 1.366 . S
C1971 C1975 1.385 . S
C1972 H1953 0.951 . S
C1972 C1970 1.388 . S
C1972 C1973 1.366 . S
C1973 C1972 1.366 . S
C1973 C1974 1.414 . S
C1973 C1976 1.499 . S
C1974 H1954 0.950 . S
C1974 C1973 1.414 . S
C1974 C1975 1.374 . S
C1975 H1955 0.950 . S
C1975 C1971 1.385 . S
C1975 C1974 1.374 . S
C1976 C1973 1.499 . S
C1976 C1977 1.373 . S
C1976 C1978 1.389 . S
C1977 H1956 0.950 . S
C1977 C1976 1.373 . S
C1977 C1993 1.377 . S
C1978 C1976 1.389 . S
C1978 C1979 1.524 . S
C1978 C1992 1.377 . S
C1979 C1978 1.524 . S
C1979 C1980 1.397 . S
C1979 C1984 1.363 . S
C1980 H1957 0.950 . S
C1980 C1979 1.397 . S
C1980 C1981 1.334 . S
C1981 H1958 0.950 . S
C1981 C1980 1.334 . S
C1981 C1982 1.287 . S
C1982 C1981 1.287 . S
C1982 C1983 1.524 . S
C1982 H2001 0.913 . S
C1983 H1959 0.950 . S
C1983 C1982 1.524 . S
C1983 C1984 1.415 . S
C1984 H1960 0.950 . S
C1984 C1979 1.363 . S
C1984 C1983 1.415 . S
C1985 H1961 0.951 . S
C1985 C1986 1.366 . S
C1985 C1987 1.388 . S
C1986 C1985 1.366 . S
C1986 C1990 1.385 . S
C1987 H1962 0.951 . S
C1987 C1985 1.388 . S
C1987 C1988 1.366 . S
C1988 C1987 1.366 . S
C1988 C1989 1.414 . S
C1988 C1991 1.499 . S
C1989 H1963 0.950 . S
C1989 C1988 1.414 . S
C1989 C1990 1.374 . S
C1990 H1964 0.950 . S
C1990 C1986 1.385 . S
C1990 C1989 1.374 . S
C1991 C1988 1.499 . S
C1991 C1992 1.373 . S
C1991 C1993 1.389 . S
C1992 H1965 0.950 . S
C1992 C1978 1.377 . S
C1992 C1991 1.373 . S
C1993 C1977 1.377 . S
C1993 C1991 1.389 . S
C1993 C1994 1.524 . S
C1994 C1993 1.524 . S
C1994 C1995 1.397 . S
C1994 C1999 1.363 . S
C1995 H1966 0.950 . S
C1995 C1994 1.397 . S
C1995 C1996 1.334 . S
C1996 H1967 0.950 . S
C1996 C1995 1.334 . S
C1996 C1997 1.287 . S
C1997 C1996 1.287 . S
C1997 C1998 1.524 . S
C1997 H2000 0.999 . S
C1998 H1968 0.950 . S
C1998 C1997 1.524 . S
C1998 C1999 1.415 . S
C1999 H1969 0.950 . S
C1999 C1994 1.363 . S
C1999 C1998 1.415 . S
H2000 C1997 0.999 . S
H2001 C1982 0.913 . S
H2002 C2020 0.951 . S
H2003 C2022 0.951 . S
H2004 C2024 0.950 . S
H2005 C2025 0.950 . S
H2006 C2027 0.950 . S
H2007 C2030 0.950 . S
H2008 C2031 0.950 . S
H2009 C2033 0.950 . S
H2010 C2034 0.950 . S
H2011 C2035 0.951 . S
H2012 C2037 0.951 . S
H2013 C2039 0.950 . S
H2014 C2040 0.950 . S
H2015 C2042 0.950 . S
H2016 C2045 0.950 . S
H2017 C2046 0.950 . S
H2018 C2048 0.950 . S
H2019 C2049 0.950 . S
C2020 H2002 0.951 . S
C2020 C2021 1.366 . S
C2020 C2022 1.388 . S
C2021 C2020 1.366 . S
C2021 C2025 1.385 . S
C2022 H2003 0.951 . S
C2022 C2020 1.388 . S
C2022 C2023 1.366 . S
C2023 C2022 1.366 . S
C2023 C2024 1.414 . S
C2023 C2026 1.499 . S
C2024 H2004 0.950 . S
C2024 C2023 1.414 . S
C2024 C2025 1.374 . S
C2025 H2005 0.950 . S
C2025 C2021 1.385 . S
C2025 C2024 1.374 . S
C2026 C2023 1.499 . S
C2026 C2027 1.373 . S
C2026 C2028 1.389 . S
C2027 H2006 0.950 . S
C2027 C2026 1.373 . S
C2027 C2043 1.377 . S
C2028 C2026 1.389 . S
C2028 C2029 1.524 . S
C2028 C2042 1.377 . S
C2029 C2028 1.524 . S
C2029 C2030 1.397 . S
C2029 C2034 1.363 . S
C2030 H2007 0.950 . S
C2030 C2029 1.397 . S
C2030 C2031 1.334 . S
C2031 H2008 0.950 . S
C2031 C2030 1.334 . S
C2031 C2032 1.287 . S
C2032 C2031 1.287 . S
C2032 C2033 1.524 . S
C2032 H2051 0.913 . S
C2033 H2009 0.950 . S
C2033 C2032 1.524 . S
C2033 C2034 1.415 . S
C2034 H2010 0.950 . S
C2034 C2029 1.363 . S
C2034 C2033 1.415 . S
C2035 H2011 0.951 . S
C2035 C2036 1.366 . S
C2035 C2037 1.388 . S
C2036 C2035 1.366 . S
C2036 C2040 1.385 . S
C2037 H2012 0.951 . S
C2037 C2035 1.388 . S
C2037 C2038 1.366 . S
C2038 C2037 1.366 . S
C2038 C2039 1.414 . S
C2038 C2041 1.499 . S
C2039 H2013 0.950 . S
C2039 C2038 1.414 . S
C2039 C2040 1.374 . S
C2040 H2014 0.950 . S
C2040 C2036 1.385 . S
C2040 C2039 1.374 . S
C2041 C2038 1.499 . S
C2041 C2042 1.373 . S
C2041 C2043 1.389 . S
C2042 H2015 0.950 . S
C2042 C2028 1.377 . S
C2042 C2041 1.373 . S
C2043 C2027 1.377 . S
C2043 C2041 1.389 . S
C2043 C2044 1.524 . S
C2044 C2043 1.524 . S
C2044 C2045 1.397 . S
C2044 C2049 1.363 . S
C2045 H2016 0.950 . S
C2045 C2044 1.397 . S
C2045 C2046 1.334 . S
C2046 H2017 0.950 . S
C2046 C2045 1.334 . S
C2046 C2047 1.287 . S
C2047 C2046 1.287 . S
C2047 C2048 1.524 . S
C2047 H2050 0.999 . S
C2048 H2018 0.950 . S
C2048 C2047 1.524 . S
C2048 C2049 1.415 . S
C2049 H2019 0.950 . S
C2049 C2044 1.363 . S
C2049 C2048 1.415 . S
H2050 C2047 0.999 . S
H2051 C2032 0.913 . S
H2052 C2070 0.951 . S
H2053 C2072 0.951 . S
H2054 C2074 0.950 . S
H2055 C2075 0.950 . S
H2056 C2077 0.950 . S
H2057 C2080 0.950 . S
H2058 C2081 0.950 . S
H2059 C2083 0.950 . S
H2060 C2084 0.950 . S
H2061 C2085 0.951 . S
H2062 C2087 0.951 . S
H2063 C2089 0.950 . S
H2064 C2090 0.950 . S
H2065 C2092 0.950 . S
H2066 C2095 0.950 . S
H2067 C2096 0.950 . S
H2068 C2098 0.950 . S
H2069 C2099 0.950 . S
C2070 H2052 0.951 . S
C2070 C2071 1.366 . S
C2070 C2072 1.388 . S
C2071 C2070 1.366 . S
C2071 C2075 1.385 . S
C2072 H2053 0.951 . S
C2072 C2070 1.388 . S
C2072 C2073 1.366 . S
C2073 C2072 1.366 . S
C2073 C2074 1.414 . S
C2073 C2076 1.499 . S
C2074 H2054 0.950 . S
C2074 C2073 1.414 . S
C2074 C2075 1.374 . S
C2075 H2055 0.950 . S
C2075 C2071 1.385 . S
C2075 C2074 1.374 . S
C2076 C2073 1.499 . S
C2076 C2077 1.373 . S
C2076 C2078 1.389 . S
C2077 H2056 0.950 . S
C2077 C2076 1.373 . S
C2077 C2093 1.377 . S
C2078 C2076 1.389 . S
C2078 C2079 1.524 . S
C2078 C2092 1.377 . S
C2079 C2078 1.524 . S
C2079 C2080 1.397 . S
C2079 C2084 1.363 . S
C2080 H2057 0.950 . S
C2080 C2079 1.397 . S
C2080 C2081 1.334 . S
C2081 H2058 0.950 . S
C2081 C2080 1.334 . S
C2081 C2082 1.287 . S
C2082 C2081 1.287 . S
C2082 C2083 1.524 . S
C2082 H2101 0.913 . S
C2083 H2059 0.950 . S
C2083 C2082 1.524 . S
C2083 C2084 1.415 . S
C2084 H2060 0.950 . S
C2084 C2079 1.363 . S
C2084 C2083 1.415 . S
C2085 H2061 0.951 . S
C2085 C2086 1.366 . S
C2085 C2087 1.388 . S
C2086 C2085 1.366 . S
C2086 C2090 1.385 . S
C2087 H2062 0.951 . S
C2087 C2085 1.388 . S
C2087 C2088 1.366 . S
C2088 C2087 1.366 . S
C2088 C2089 1.414 . S
C2088 C2091 1.499 . S
C2089 H2063 0.950 . S
C2089 C2088 1.414 . S
C2089 C2090 1.374 . S
C2090 H2064 0.950 . S
C2090 C2086 1.385 . S
C2090 C2089 1.374 . S
C2091 C2088 1.499 . S
C2091 C2092 1.373 . S
C2091 C2093 1.389 . S
C2092 H2065 0.950 . S
C2092 C2078 1.377 . S
C2092 C2091 1.373 . S
C2093 C2077 1.377 . S
C2093 C2091 1.389 . S
C2093 C2094 1.524 . S
C2094 C2093 1.524 . S
C2094 C2095 1.397 . S
C2094 C2099 1.363 . S
C2095 H2066 0.950 . S
C2095 C2094 1.397 . S
C2095 C2096 1.334 . S
C2096 H2067 0.950 . S
C2096 C2095 1.334 . S
C2096 C2097 1.287 . S
C2097 C2096 1.287 . S
C2097 C2098 1.524 . S
C2097 H2100 0.999 . S
C2098 H2068 0.950 . S
C2098 C2097 1.524 . S
C2098 C2099 1.415 . S
C2099 H2069 0.950 . S
C2099 C2094 1.363 . S
C2099 C2098 1.415 . S
H2100 C2097 0.999 . S
H2101 C2082 0.913 . S
H2102 C2120 0.951 . S
H2103 C2122 0.951 . S
H2104 C2124 0.950 . S
H2105 C2125 0.950 . S
H2106 C2127 0.950 . S
H2107 C2130 0.950 . S
H2108 C2131 0.950 . S
H2109 C2133 0.950 . S
H2110 C2134 0.950 . S
H2111 C2135 0.951 . S
H2112 C2137 0.951 . S
H2113 C2139 0.950 . S
H2114 C2140 0.950 . S
H2115 C2142 0.950 . S
H2116 C2145 0.950 . S
H2117 C2146 0.950 . S
H2118 C2148 0.950 . S
H2119 C2149 0.950 . S
C2120 H2102 0.951 . S
C2120 C2121 1.366 . S
C2120 C2122 1.388 . S
C2121 C2120 1.366 . S
C2121 C2125 1.385 . S
C2122 H2103 0.951 . S
C2122 C2120 1.388 . S
C2122 C2123 1.366 . S
C2123 C2122 1.366 . S
C2123 C2124 1.414 . S
C2123 C2126 1.499 . S
C2124 H2104 0.950 . S
C2124 C2123 1.414 . S
C2124 C2125 1.374 . S
C2125 H2105 0.950 . S
C2125 C2121 1.385 . S
C2125 C2124 1.374 . S
C2126 C2123 1.499 . S
C2126 C2127 1.373 . S
C2126 C2128 1.389 . S
C2127 H2106 0.950 . S
C2127 C2126 1.373 . S
C2127 C2143 1.377 . S
C2128 C2126 1.389 . S
C2128 C2129 1.524 . S
C2128 C2142 1.377 . S
C2129 C2128 1.524 . S
C2129 C2130 1.397 . S
C2129 C2134 1.363 . S
C2130 H2107 0.950 . S
C2130 C2129 1.397 . S
C2130 C2131 1.334 . S
C2131 H2108 0.950 . S
C2131 C2130 1.334 . S
C2131 C2132 1.287 . S
C2132 C2131 1.287 . S
C2132 C2133 1.524 . S
C2132 H2151 0.913 . S
C2133 H2109 0.950 . S
C2133 C2132 1.524 . S
C2133 C2134 1.415 . S
C2134 H2110 0.950 . S
C2134 C2129 1.363 . S
C2134 C2133 1.415 . S
C2135 H2111 0.951 . S
C2135 C2136 1.366 . S
C2135 C2137 1.388 . S
C2136 C2135 1.366 . S
C2136 C2140 1.385 . S
C2137 H2112 0.951 . S
C2137 C2135 1.388 . S
C2137 C2138 1.366 . S
C2138 C2137 1.366 . S
C2138 C2139 1.414 . S
C2138 C2141 1.499 . S
C2139 H2113 0.950 . S
C2139 C2138 1.414 . S
C2139 C2140 1.374 . S
C2140 H2114 0.950 . S
C2140 C2136 1.385 . S
C2140 C2139 1.374 . S
C2141 C2138 1.499 . S
C2141 C2142 1.373 . S
C2141 C2143 1.389 . S
C2142 H2115 0.950 . S
C2142 C2128 1.377 . S
C2142 C2141 1.373 . S
C2143 C2127 1.377 . S
C2143 C2141 1.389 . S
C2143 C2144 1.524 . S
C2144 C2143 1.524 . S
C2144 C2145 1.397 . S
C2144 C2149 1.363 . S
C2145 H2116 0.950 . S
C2145 C2144 1.397 . S
C2145 C2146 1.334 . S
C2146 H2117 0.950 . S
C2146 C2145 1.334 . S
C2146 C2147 1.287 . S
C2147 C2146 1.287 . S
C2147 C2148 1.524 . S
C2147 H2150 0.999 . S
C2148 H2118 0.950 . S
C2148 C2147 1.524 . S
C2148 C2149 1.415 . S
C2149 H2119 0.950 . S
C2149 C2144 1.363 . S
C2149 C2148 1.415 . S
H2150 C2147 0.999 . S
H2151 C2132 0.913 . S
H2152 C2170 0.951 . S
H2153 C2172 0.951 . S
H2154 C2174 0.950 . S
H2155 C2175 0.950 . S
H2156 C2177 0.950 . S
H2157 C2180 0.950 . S
H2158 C2181 0.950 . S
H2159 C2183 0.950 . S
H2160 C2184 0.950 . S
H2161 C2185 0.951 . S
H2162 C2187 0.951 . S
H2163 C2189 0.950 . S
H2164 C2190 0.950 . S
H2165 C2192 0.950 . S
H2166 C2195 0.950 . S
H2167 C2196 0.985 . S
H2168 C2198 0.950 . S
H2169 C2199 0.950 . S
C2170 H2152 0.951 . S
C2170 C2171 1.366 . S
C2170 C2172 1.388 . S
C2171 C2170 1.366 . S
C2171 C2175 1.385 . S
C2172 H2153 0.951 . S
C2172 C2170 1.388 . S
C2172 C2173 1.366 . S
C2173 C2172 1.366 . S
C2173 C2174 1.414 . S
C2173 C2176 1.499 . S
C2174 H2154 0.950 . S
C2174 C2173 1.414 . S
C2174 C2175 1.374 . S
C2175 H2155 0.950 . S
C2175 C2171 1.385 . S
C2175 C2174 1.374 . S
C2176 C2173 1.499 . S
C2176 C2177 1.373 . S
C2176 C2178 1.389 . S
C2177 H2156 0.950 . S
C2177 C2176 1.373 . S
C2177 C2193 1.377 . S
C2178 C2176 1.389 . S
C2178 C2179 1.524 . S
C2178 C2192 1.377 . S
C2179 C2178 1.524 . S
C2179 C2180 1.397 . S
C2179 C2184 1.363 . S
C2180 H2157 0.950 . S
C2180 C2179 1.397 . S
C2180 C2181 1.334 . S
C2181 H2158 0.950 . S
C2181 C2180 1.334 . S
C2181 C2182 1.287 . S
C2182 C2181 1.287 . S
C2182 C2183 1.524 . S
C2182 H2201 0.913 . S
C2183 H2159 0.950 . S
C2183 C2182 1.524 . S
C2183 C2184 1.415 . S
C2184 H2160 0.950 . S
C2184 C2179 1.363 . S
C2184 C2183 1.415 . S
C2185 H2161 0.951 . S
C2185 C2186 1.366 . S
C2185 C2187 1.388 1_545 S
C2186 C2185 1.366 . S
C2186 C2190 1.385 1_545 S
C2187 H2162 0.951 . S
C2187 C2185 1.388 1_565 S
C2187 C2188 1.366 . S
C2188 C2187 1.366 . S
C2188 C2189 1.414 . S
C2188 C2191 1.499 . S
C2189 H2163 0.950 . S
C2189 C2188 1.414 . S
C2189 C2190 1.374 . S
C2190 H2164 0.950 . S
C2190 C2186 1.385 1_565 S
C2190 C2189 1.374 . S
C2191 C2188 1.499 . S
C2191 C2192 1.373 . S
C2191 C2193 1.389 . S
C2192 H2165 0.950 . S
C2192 C2178 1.377 . S
C2192 C2191 1.373 . S
C2193 C2177 1.377 . S
C2193 C2191 1.389 . S
C2193 C2194 1.524 . S
C2194 C2193 1.524 . S
C2194 C2195 1.397 . S
C2194 C2199 1.363 . S
C2195 H2166 0.950 . S
C2195 C2194 1.397 . S
C2195 C2196 1.334 . S
C2196 H2167 0.985 . S
C2196 C2195 1.334 . S
C2196 C2197 1.287 . S
C2197 C2196 1.287 . S
C2197 C2198 1.524 . S
C2197 H2200 0.999 1_455 S
C2198 H2168 0.950 . S
C2198 C2197 1.524 . S
C2198 C2199 1.415 . S
C2199 H2169 0.950 . S
C2199 C2194 1.363 . S
C2199 C2198 1.415 . S
H2200 C2197 0.999 1_655 S
H2201 C2182 0.913 . S
H2202 C2220 0.951 . S
H2203 C2222 0.951 . S
H2204 C2224 0.950 . S
H2205 C2225 0.950 . S
H2206 C2227 0.950 . S
H2207 C2230 0.950 . S
H2208 C2231 0.950 . S
H2209 C2233 0.950 . S
H2210 C2234 0.950 . S
H2211 C2235 0.951 . S
H2212 C2237 0.951 . S
H2213 C2239 0.950 . S
H2214 C2240 0.950 . S
H2215 C2242 0.950 . S
H2216 C2245 0.950 . S
H2217 C2246 0.950 . S
H2218 C2248 0.950 . S
H2219 C2249 0.950 . S
C2220 H2202 0.951 . S
C2220 C2221 1.366 . S
C2220 C2222 1.388 . S
C2221 C2220 1.366 . S
C2221 C2225 1.385 . S
C2222 H2203 0.951 . S
C2222 C2220 1.388 . S
C2222 C2223 1.366 . S
C2223 C2222 1.366 . S
C2223 C2224 1.414 . S
C2223 C2226 1.499 . S
C2224 H2204 0.950 . S
C2224 C2223 1.414 . S
C2224 C2225 1.374 . S
C2225 H2205 0.950 . S
C2225 C2221 1.385 . S
C2225 C2224 1.374 . S
C2226 C2223 1.499 . S
C2226 C2227 1.373 . S
C2226 C2228 1.389 . S
C2227 H2206 0.950 . S
C2227 C2226 1.373 . S
C2227 C2243 1.377 . S
C2228 C2226 1.389 . S
C2228 C2229 1.524 . S
C2228 C2242 1.377 . S
C2229 C2228 1.524 . S
C2229 C2230 1.397 . S
C2229 C2234 1.363 . S
C2230 H2207 0.950 . S
C2230 C2229 1.397 . S
C2230 C2231 1.334 . S
C2231 H2208 0.950 . S
C2231 C2230 1.334 . S
C2231 C2232 1.287 . S
C2232 C2231 1.287 . S
C2232 C2233 1.524 . S
C2232 H2251 0.913 . S
C2233 H2209 0.950 . S
C2233 C2232 1.524 . S
C2233 C2234 1.415 . S
C2234 H2210 0.950 . S
C2234 C2229 1.363 . S
C2234 C2233 1.415 . S
C2235 H2211 0.951 . S
C2235 C2236 1.366 . S
C2235 C2237 1.388 . S
C2236 C2235 1.366 . S
C2236 C2240 1.385 . S
C2237 H2212 0.951 . S
C2237 C2235 1.388 . S
C2237 C2238 1.366 . S
C2238 C2237 1.366 . S
C2238 C2239 1.414 . S
C2238 C2241 1.499 . S
C2239 H2213 0.950 . S
C2239 C2238 1.414 . S
C2239 C2240 1.374 . S
C2240 H2214 0.950 . S
C2240 C2236 1.385 . S
C2240 C2239 1.374 . S
C2241 C2238 1.499 . S
C2241 C2242 1.373 . S
C2241 C2243 1.389 . S
C2242 H2215 0.950 . S
C2242 C2228 1.377 . S
C2242 C2241 1.373 . S
C2243 C2227 1.377 . S
C2243 C2241 1.389 . S
C2243 C2244 1.524 . S
C2244 C2243 1.524 . S
C2244 C2245 1.397 . S
C2244 C2249 1.363 . S
C2245 H2216 0.950 . S
C2245 C2244 1.397 . S
C2245 C2246 1.334 . S
C2246 H2217 0.950 . S
C2246 C2245 1.334 . S
C2246 C2247 1.287 . S
C2247 C2246 1.287 . S
C2247 C2248 1.524 . S
C2247 H2250 0.999 . S
C2248 H2218 0.950 . S
C2248 C2247 1.524 . S
C2248 C2249 1.415 . S
C2249 H2219 0.950 . S
C2249 C2244 1.363 . S
C2249 C2248 1.415 . S
H2250 C2247 0.999 . S
H2251 C2232 0.913 . S
H2252 C2270 0.951 . S
H2253 C2272 0.951 . S
H2254 C2274 0.950 . S
H2255 C2275 0.950 . S
H2256 C2277 0.950 . S
H2257 C2280 0.950 . S
H2258 C2281 0.950 . S
H2259 C2283 0.950 . S
H2260 C2284 0.950 . S
H2261 C2285 0.951 . S
H2262 C2287 0.951 . S
H2263 C2289 0.950 . S
H2264 C2290 0.950 . S
H2265 C2292 0.950 . S
H2266 C2295 0.950 . S
H2267 C2296 0.950 . S
H2268 C2298 0.950 . S
H2269 C2299 0.950 . S
C2270 H2252 0.951 . S
C2270 C2271 1.366 . S
C2270 C2272 1.388 . S
C2271 C2270 1.366 . S
C2271 C2275 1.385 . S
C2272 H2253 0.951 . S
C2272 C2270 1.388 . S
C2272 C2273 1.366 . S
C2273 C2272 1.366 . S
C2273 C2274 1.414 . S
C2273 C2276 1.499 . S
C2274 H2254 0.950 . S
C2274 C2273 1.414 . S
C2274 C2275 1.374 . S
C2275 H2255 0.950 . S
C2275 C2271 1.385 . S
C2275 C2274 1.374 . S
C2276 C2273 1.499 . S
C2276 C2277 1.373 . S
C2276 C2278 1.389 . S
C2277 H2256 0.950 . S
C2277 C2276 1.373 . S
C2277 C2293 1.377 . S
C2278 C2276 1.389 . S
C2278 C2279 1.524 . S
C2278 C2292 1.377 . S
C2279 C2278 1.524 . S
C2279 C2280 1.397 . S
C2279 C2284 1.363 . S
C2280 H2257 0.950 . S
C2280 C2279 1.397 . S
C2280 C2281 1.334 . S
C2281 H2258 0.950 . S
C2281 C2280 1.334 . S
C2281 C2282 1.287 . S
C2282 C2281 1.287 . S
C2282 C2283 1.524 . S
C2282 H2301 0.913 . S
C2283 H2259 0.950 . S
C2283 C2282 1.524 . S
C2283 C2284 1.415 . S
C2284 H2260 0.950 . S
C2284 C2279 1.363 . S
C2284 C2283 1.415 . S
C2285 H2261 0.951 . S
C2285 C2286 1.366 . S
C2285 C2287 1.388 . S
C2286 C2285 1.366 . S
C2286 C2290 1.385 . S
C2287 H2262 0.951 . S
C2287 C2285 1.388 . S
C2287 C2288 1.366 . S
C2288 C2287 1.366 . S
C2288 C2289 1.414 . S
C2288 C2291 1.499 . S
C2289 H2263 0.950 . S
C2289 C2288 1.414 . S
C2289 C2290 1.374 . S
C2290 H2264 0.950 . S
C2290 C2286 1.385 . S
C2290 C2289 1.374 . S
C2291 C2288 1.499 . S
C2291 C2292 1.373 . S
C2291 C2293 1.389 . S
C2292 H2265 0.950 . S
C2292 C2278 1.377 . S
C2292 C2291 1.373 . S
C2293 C2277 1.377 . S
C2293 C2291 1.389 . S
C2293 C2294 1.524 . S
C2294 C2293 1.524 . S
C2294 C2295 1.397 . S
C2294 C2299 1.363 . S
C2295 H2266 0.950 . S
C2295 C2294 1.397 . S
C2295 C2296 1.334 . S
C2296 H2267 0.950 . S
C2296 C2295 1.334 . S
C2296 C2297 1.287 . S
C2297 C2296 1.287 . S
C2297 C2298 1.524 . S
C2297 H2300 0.999 . S
C2298 H2268 0.950 . S
C2298 C2297 1.524 . S
C2298 C2299 1.415 . S
C2299 H2269 0.950 . S
C2299 C2294 1.363 . S
C2299 C2298 1.415 . S
H2300 C2297 0.999 . S
H2301 C2282 0.913 . S
H2302 C2320 0.951 . S
H2303 C2322 0.951 . S
H2304 C2324 0.950 . S
H2305 C2325 0.950 . S
H2306 C2327 0.950 . S
H2307 C2330 0.950 . S
H2308 C2331 0.950 . S
H2309 C2333 0.950 . S
H2310 C2334 0.950 . S
H2311 C2335 0.951 . S
H2312 C2337 0.951 . S
H2313 C2339 0.950 . S
H2314 C2340 0.950 . S
H2315 C2342 0.950 . S
H2316 C2345 0.950 . S
H2317 C2346 0.950 . S
H2318 C2348 0.950 . S
H2319 C2349 0.950 . S
C2320 H2302 0.951 . S
C2320 C2321 1.366 . S
C2320 C2322 1.388 . S
C2321 C2320 1.366 . S
C2321 C2325 1.385 . S
C2322 H2303 0.951 . S
C2322 C2320 1.388 . S
C2322 C2323 1.366 . S
C2323 C2322 1.366 . S
C2323 C2324 1.414 . S
C2323 C2326 1.499 . S
C2324 H2304 0.950 . S
C2324 C2323 1.414 . S
C2324 C2325 1.374 . S
C2325 H2305 0.950 . S
C2325 C2321 1.385 . S
C2325 C2324 1.374 . S
C2326 C2323 1.499 . S
C2326 C2327 1.373 . S
C2326 C2328 1.389 . S
C2327 H2306 0.950 . S
C2327 C2326 1.373 . S
C2327 C2343 1.377 . S
C2328 C2326 1.389 . S
C2328 C2329 1.524 . S
C2328 C2342 1.377 . S
C2329 C2328 1.524 . S
C2329 C2330 1.397 . S
C2329 C2334 1.363 . S
C2330 H2307 0.950 . S
C2330 C2329 1.397 . S
C2330 C2331 1.334 . S
C2331 H2308 0.950 . S
C2331 C2330 1.334 . S
C2331 C2332 1.287 . S
C2332 C2331 1.287 . S
C2332 C2333 1.524 . S
C2332 H2351 0.913 . S
C2333 H2309 0.950 . S
C2333 C2332 1.524 . S
C2333 C2334 1.415 . S
C2334 H2310 0.950 . S
C2334 C2329 1.363 . S
C2334 C2333 1.415 . S
C2335 H2311 0.951 . S
C2335 C2336 1.366 . S
C2335 C2337 1.388 . S
C2336 C2335 1.366 . S
C2336 C2340 1.385 . S
C2337 H2312 0.951 . S
C2337 C2335 1.388 . S
C2337 C2338 1.366 . S
C2338 C2337 1.366 . S
C2338 C2339 1.414 . S
C2338 C2341 1.499 . S
C2339 H2313 0.950 . S
C2339 C2338 1.414 . S
C2339 C2340 1.374 . S
C2340 H2314 0.950 . S
C2340 C2336 1.385 . S
C2340 C2339 1.374 . S
C2341 C2338 1.499 . S
C2341 C2342 1.373 . S
C2341 C2343 1.389 . S
C2342 H2315 0.950 . S
C2342 C2328 1.377 . S
C2342 C2341 1.373 . S
C2343 C2327 1.377 . S
C2343 C2341 1.389 . S
C2343 C2344 1.524 . S
C2344 C2343 1.524 . S
C2344 C2345 1.397 . S
C2344 C2349 1.363 . S
C2345 H2316 0.950 . S
C2345 C2344 1.397 . S
C2345 C2346 1.334 . S
C2346 H2317 0.950 . S
C2346 C2345 1.334 . S
C2346 C2347 1.287 . S
C2347 C2346 1.287 . S
C2347 C2348 1.524 . S
C2347 H2350 0.999 . S
C2348 H2318 0.950 . S
C2348 C2347 1.524 . S
C2348 C2349 1.415 . S
C2349 H2319 0.950 . S
C2349 C2344 1.363 . S
C2349 C2348 1.415 . S
H2350 C2347 0.999 . S
H2351 C2332 0.913 . S
H2352 C2370 0.951 . S
H2353 C2372 0.951 . S
H2354 C2374 0.950 . S
H2355 C2375 0.964 . S
H2356 C2377 0.950 1_655 S
H2357 C2380 0.950 . S
H2358 C2381 0.950 . S
H2359 C2383 0.950 . S
H2360 C2384 0.950 . S
H2361 C2385 0.951 . S
H2362 C2387 0.951 . S
H2363 C2389 0.950 . S
H2364 C2390 0.950 . S
H2365 C2392 0.950 . S
H2366 C2395 0.950 . S
H2367 C2396 0.950 . S
H2368 C2398 0.950 . S
H2369 C2399 0.950 . S
C2370 H2352 0.951 . S
C2370 C2371 1.366 . S
C2370 C2372 1.388 . S
C2371 C2370 1.366 . S
C2371 C2375 1.385 . S
C2372 H2353 0.951 . S
C2372 C2370 1.388 . S
C2372 C2373 1.366 . S
C2373 C2372 1.366 . S
C2373 C2374 1.414 . S
C2373 C2376 1.499 . S
C2374 H2354 0.950 . S
C2374 C2373 1.414 . S
C2374 C2375 1.374 . S
C2375 H2355 0.964 . S
C2375 C2371 1.385 . S
C2375 C2374 1.374 . S
C2376 C2373 1.499 . S
C2376 C2377 1.373 . S
C2376 C2378 1.389 . S
C2377 H2356 0.950 1_455 S
C2377 C2376 1.373 . S
C2377 C2393 1.377 . S
C2378 C2376 1.389 . S
C2378 C2379 1.524 . S
C2378 C2392 1.377 . S
C2379 C2378 1.524 . S
C2379 C2380 1.397 . S
C2379 C2384 1.363 . S
C2380 H2357 0.950 . S
C2380 C2379 1.397 . S
C2380 C2381 1.334 . S
C2381 H2358 0.950 . S
C2381 C2380 1.334 . S
C2381 C2382 1.287 . S
C2382 C2381 1.287 . S
C2382 C2383 1.524 . S
C2382 H2401 0.913 . S
C2383 H2359 0.950 . S
C2383 C2382 1.524 . S
C2383 C2384 1.415 . S
C2384 H2360 0.950 . S
C2384 C2379 1.363 . S
C2384 C2383 1.415 . S
C2385 H2361 0.951 . S
C2385 C2386 1.366 . S
C2385 C2387 1.388 . S
C2386 C2385 1.366 . S
C2386 C2390 1.385 . S
C2387 H2362 0.951 . S
C2387 C2385 1.388 . S
C2387 C2388 1.366 . S
C2388 C2387 1.366 . S
C2388 C2389 1.414 . S
C2388 C2391 1.499 . S
C2389 H2363 0.950 . S
C2389 C2388 1.414 . S
C2389 C2390 1.374 . S
C2390 H2364 0.950 . S
C2390 C2386 1.385 . S
C2390 C2389 1.374 . S
C2391 C2388 1.499 . S
C2391 C2392 1.373 . S
C2391 C2393 1.389 . S
C2392 H2365 0.950 . S
C2392 C2378 1.377 . S
C2392 C2391 1.373 . S
C2393 C2377 1.377 . S
C2393 C2391 1.389 . S
C2393 C2394 1.524 1_455 S
C2394 C2393 1.524 1_655 S
C2394 C2395 1.397 . S
C2394 C2399 1.363 . S
C2395 H2366 0.950 . S
C2395 C2394 1.397 . S
C2395 C2396 1.334 . S
C2396 H2367 0.950 . S
C2396 C2395 1.334 . S
C2396 C2397 1.287 . S
C2397 C2396 1.287 . S
C2397 C2398 1.524 . S
C2397 H2400 0.999 . S
C2398 H2368 0.950 . S
C2398 C2397 1.524 . S
C2398 C2399 1.415 . S
C2399 H2369 0.950 . S
C2399 C2394 1.363 . S
C2399 C2398 1.415 . S
H2400 C2397 0.999 . S
H2401 C2382 0.913 . S
H2402 C2420 0.951 . S
H2403 C2422 0.951 . S
H2404 C2424 0.950 . S
H2405 C2425 0.950 . S
H2406 C2427 0.950 . S
H2407 C2430 0.950 . S
H2408 C2431 0.950 . S
H2409 C2433 0.950 . S
H2410 C2434 0.950 . S
H2411 C2435 0.951 . S
H2412 C2437 0.951 . S
H2413 C2439 0.950 . S
H2414 C2440 0.950 . S
H2415 C2442 0.950 . S
H2416 C2445 0.950 . S
H2417 C2446 0.950 . S
H2418 C2448 0.950 . S
H2419 C2449 0.950 . S
C2420 H2402 0.951 . S
C2420 C2421 1.366 . S
C2420 C2422 1.388 . S
C2421 C2420 1.366 . S
C2421 C2425 1.385 . S
C2422 H2403 0.951 . S
C2422 C2420 1.388 . S
C2422 C2423 1.366 . S
C2423 C2422 1.366 . S
C2423 C2424 1.414 . S
C2423 C2426 1.499 . S
C2424 H2404 0.950 . S
C2424 C2423 1.414 . S
C2424 C2425 1.374 . S
C2425 H2405 0.950 . S
C2425 C2421 1.385 . S
C2425 C2424 1.374 . S
C2426 C2423 1.499 . S
C2426 C2427 1.373 . S
C2426 C2428 1.389 . S
C2427 H2406 0.950 . S
C2427 C2426 1.373 . S
C2427 C2443 1.377 . S
C2428 C2426 1.389 . S
C2428 C2429 1.524 . S
C2428 C2442 1.377 . S
C2429 C2428 1.524 . S
C2429 C2430 1.397 . S
C2429 C2434 1.363 . S
C2430 H2407 0.950 . S
C2430 C2429 1.397 . S
C2430 C2431 1.334 . S
C2431 H2408 0.950 . S
C2431 C2430 1.334 . S
C2431 C2432 1.287 . S
C2432 C2431 1.287 . S
C2432 C2433 1.524 . S
C2432 H2451 0.913 . S
C2433 H2409 0.950 . S
C2433 C2432 1.524 . S
C2433 C2434 1.415 . S
C2434 H2410 0.950 . S
C2434 C2429 1.363 . S
C2434 C2433 1.415 . S
C2435 H2411 0.951 . S
C2435 C2436 1.366 . S
C2435 C2437 1.388 . S
C2436 C2435 1.366 . S
C2436 C2440 1.385 . S
C2437 H2412 0.951 . S
C2437 C2435 1.388 . S
C2437 C2438 1.366 . S
C2438 C2437 1.366 . S
C2438 C2439 1.414 . S
C2438 C2441 1.499 . S
C2439 H2413 0.950 . S
C2439 C2438 1.414 . S
C2439 C2440 1.374 . S
C2440 H2414 0.950 . S
C2440 C2436 1.385 . S
C2440 C2439 1.374 . S
C2441 C2438 1.499 . S
C2441 C2442 1.373 . S
C2441 C2443 1.389 . S
C2442 H2415 0.950 . S
C2442 C2428 1.377 . S
C2442 C2441 1.373 . S
C2443 C2427 1.377 . S
C2443 C2441 1.389 . S
C2443 C2444 1.524 . S
C2444 C2443 1.524 . S
C2444 C2445 1.397 . S
C2444 C2449 1.363 . S
C2445 H2416 0.950 . S
C2445 C2444 1.397 . S
C2445 C2446 1.334 . S
C2446 H2417 0.950 . S
C2446 C2445 1.334 . S
C2446 C2447 1.287 . S
C2447 C2446 1.287 . S
C2447 C2448 1.524 . S
C2447 H2450 0.999 . S
C2448 H2418 0.950 . S
C2448 C2447 1.524 . S
C2448 C2449 1.415 . S
C2449 H2419 0.950 . S
C2449 C2444 1.363 . S
C2449 C2448 1.415 . S
H2450 C2447 0.999 . S
H2451 C2432 0.913 . S
H2452 C2470 0.951 . S
H2453 C2472 0.951 . S
H2454 C2474 0.950 . S
H2455 C2475 0.950 . S
H2456 C2477 0.950 . S
H2457 C2480 0.950 . S
H2458 C2481 0.950 . S
H2459 C2483 0.950 . S
H2460 C2484 0.950 . S
H2461 C2485 0.951 . S
H2462 C2487 0.951 . S
H2463 C2489 0.950 . S
H2464 C2490 0.950 . S
H2465 C2492 0.950 . S
H2466 C2495 0.950 . S
H2467 C2496 0.945 1_554 S
H2468 C2498 0.950 . S
H2469 C2499 0.950 . S
C2470 H2452 0.951 . S
C2470 C2471 1.366 . S
C2470 C2472 1.388 . S
C2471 C2470 1.366 . S
C2471 C2475 1.385 . S
C2472 H2453 0.951 . S
C2472 C2470 1.388 . S
C2472 C2473 1.366 . S
C2473 C2472 1.366 . S
C2473 C2474 1.414 . S
C2473 C2476 1.499 . S
C2474 H2454 0.950 . S
C2474 C2473 1.414 . S
C2474 C2475 1.374 . S
C2475 H2455 0.950 . S
C2475 C2471 1.385 . S
C2475 C2474 1.374 . S
C2476 C2473 1.499 . S
C2476 C2477 1.373 . S
C2476 C2478 1.389 . S
C2477 H2456 0.950 . S
C2477 C2476 1.373 . S
C2477 C2493 1.377 . S
C2478 C2476 1.389 . S
C2478 C2479 1.524 . S
C2478 C2492 1.377 . S
C2479 C2478 1.524 . S
C2479 C2480 1.397 . S
C2479 C2484 1.363 . S
C2480 H2457 0.950 . S
C2480 C2479 1.397 . S
C2480 C2481 1.334 . S
C2481 H2458 0.950 . S
C2481 C2480 1.334 . S
C2481 C2482 1.287 . S
C2482 C2481 1.287 . S
C2482 C2483 1.524 . S
C2482 H2501 0.913 . S
C2483 H2459 0.950 . S
C2483 C2482 1.524 . S
C2483 C2484 1.415 . S
C2484 H2460 0.950 . S
C2484 C2479 1.363 . S
C2484 C2483 1.415 . S
C2485 H2461 0.951 . S
C2485 C2486 1.366 . S
C2485 C2487 1.388 1_545 S
C2486 C2485 1.366 . S
C2486 C2490 1.385 1_546 S
C2487 H2462 0.951 . S
C2487 C2485 1.388 1_565 S
C2487 C2488 1.366 . S
C2488 C2487 1.366 . S
C2488 C2489 1.414 . S
C2488 C2491 1.499 . S
C2489 H2463 0.950 . S
C2489 C2488 1.414 . S
C2489 C2490 1.374 1_556 S
C2490 H2464 0.950 . S
C2490 C2486 1.385 1_564 S
C2490 C2489 1.374 1_554 S
C2491 C2488 1.499 . S
C2491 C2492 1.373 . S
C2491 C2493 1.389 . S
C2492 H2465 0.950 . S
C2492 C2478 1.377 . S
C2492 C2491 1.373 . S
C2493 C2477 1.377 . S
C2493 C2491 1.389 . S
C2493 C2494 1.524 . S
C2494 C2493 1.524 . S
C2494 C2495 1.397 . S
C2494 C2499 1.363 . S
C2495 H2466 0.950 . S
C2495 C2494 1.397 . S
C2495 C2496 1.334 . S
C2496 H2467 0.945 1_556 S
C2496 C2495 1.334 . S
C2496 C2497 1.287 . S
C2497 C2496 1.287 . S
C2497 C2498 1.524 . S
C2497 H2500 0.999 . S
C2498 H2468 0.950 . S
C2498 C2497 1.524 . S
C2498 C2499 1.415 . S
C2499 H2469 0.950 . S
C2499 C2494 1.363 . S
C2499 C2498 1.415 . S
H2500 C2497 0.999 . S
H2501 C2482 0.913 . S
H2502 C2520 0.951 . S
H2503 C2522 0.951 . S
H2504 C2524 0.950 . S
H2505 C2525 0.950 . S
H2506 C2527 0.950 . S
H2507 C2530 0.950 . S
H2508 C2531 0.950 . S
H2509 C2533 0.950 . S
H2510 C2534 0.950 1_655 S
H2511 C2535 0.951 . S
H2512 C2537 0.951 . S
H2513 C2539 0.950 . S
H2514 C2540 0.950 . S
H2515 C2542 0.950 . S
H2516 C2545 0.950 . S
H2517 C2546 0.950 . S
H2518 C2548 0.950 . S
H2519 C2549 0.950 . S
C2520 H2502 0.951 . S
C2520 C2521 1.366 . S
C2520 C2522 1.388 . S
C2521 C2520 1.366 . S
C2521 C2525 1.385 . S
C2522 H2503 0.951 . S
C2522 C2520 1.388 . S
C2522 C2523 1.366 1_455 S
C2523 C2522 1.366 1_655 S
C2523 C2524 1.414 . S
C2523 C2526 1.499 . S
C2524 H2504 0.950 . S
C2524 C2523 1.414 . S
C2524 C2525 1.374 1_655 S
C2525 H2505 0.950 . S
C2525 C2521 1.385 . S
C2525 C2524 1.374 1_455 S
C2526 C2523 1.499 . S
C2526 C2527 1.373 . S
C2526 C2528 1.389 . S
C2527 H2506 0.950 . S
C2527 C2526 1.373 . S
C2527 C2543 1.377 . S
C2528 C2526 1.389 . S
C2528 C2529 1.524 . S
C2528 C2542 1.377 . S
C2529 C2528 1.524 . S
C2529 C2530 1.397 1_655 S
C2529 C2534 1.363 1_655 S
C2530 H2507 0.950 . S
C2530 C2529 1.397 1_455 S
C2530 C2531 1.334 . S
C2531 H2508 0.950 . S
C2531 C2530 1.334 . S
C2531 C2532 1.287 . S
C2532 C2531 1.287 . S
C2532 C2533 1.524 . S
C2532 H2551 0.913 . S
C2533 H2509 0.950 . S
C2533 C2532 1.524 . S
C2533 C2534 1.415 . S
C2534 H2510 0.950 1_455 S
C2534 C2529 1.363 1_455 S
C2534 C2533 1.415 . S
C2535 H2511 0.951 . S
C2535 C2536 1.366 . S
C2535 C2537 1.388 . S
C2536 C2535 1.366 . S
C2536 C2540 1.385 . S
C2537 H2512 0.951 . S
C2537 C2535 1.388 . S
C2537 C2538 1.366 . S
C2538 C2537 1.366 . S
C2538 C2539 1.414 . S
C2538 C2541 1.499 . S
C2539 H2513 0.950 . S
C2539 C2538 1.414 . S
C2539 C2540 1.374 . S
C2540 H2514 0.950 . S
C2540 C2536 1.385 . S
C2540 C2539 1.374 . S
C2541 C2538 1.499 . S
C2541 C2542 1.373 . S
C2541 C2543 1.389 . S
C2542 H2515 0.950 . S
C2542 C2528 1.377 . S
C2542 C2541 1.373 . S
C2543 C2527 1.377 . S
C2543 C2541 1.389 . S
C2543 C2544 1.524 . S
C2544 C2543 1.524 . S
C2544 C2545 1.397 . S
C2544 C2549 1.363 . S
C2545 H2516 0.950 . S
C2545 C2544 1.397 . S
C2545 C2546 1.334 . S
C2546 H2517 0.950 . S
C2546 C2545 1.334 . S
C2546 C2547 1.287 . S
C2547 C2546 1.287 . S
C2547 C2548 1.524 . S
C2547 H2550 0.999 . S
C2548 H2518 0.950 . S
C2548 C2547 1.524 . S
C2548 C2549 1.415 . S
C2549 H2519 0.950 . S
C2549 C2544 1.363 . S
C2549 C2548 1.415 . S
H2550 C2547 0.999 . S
H2551 C2532 0.913 . S
H2552 C2570 0.951 . S
H2553 C2572 0.951 . S
H2554 C2574 0.950 . S
H2555 C2575 0.950 . S
H2556 C2577 0.950 . S
H2557 C2580 0.950 . S
H2558 C2581 0.950 . S
H2559 C2583 0.950 . S
H2560 C2584 0.950 . S
H2561 C2585 0.951 . S
H2562 C2587 0.951 . S
H2563 C2589 0.950 . S
H2564 C2590 0.950 1_554 S
H2565 C2592 0.950 . S
H2566 C2595 0.950 . S
H2567 C2596 0.950 . S
H2568 C2598 0.950 . S
H2569 C2599 0.950 . S
C2570 H2552 0.951 . S
C2570 C2571 1.366 . S
C2570 C2572 1.388 . S
C2571 C2570 1.366 . S
C2571 C2575 1.385 . S
C2572 H2553 0.951 . S
C2572 C2570 1.388 . S
C2572 C2573 1.366 . S
C2573 C2572 1.366 . S
C2573 C2574 1.414 . S
C2573 C2576 1.499 . S
C2574 H2554 0.950 . S
C2574 C2573 1.414 . S
C2574 C2575 1.374 . S
C2575 H2555 0.950 . S
C2575 C2571 1.385 . S
C2575 C2574 1.374 . S
C2576 C2573 1.499 . S
C2576 C2577 1.373 . S
C2576 C2578 1.389 . S
C2577 H2556 0.950 . S
C2577 C2576 1.373 . S
C2577 C2593 1.377 . S
C2578 C2576 1.389 . S
C2578 C2579 1.524 . S
C2578 C2592 1.377 . S
C2579 C2578 1.524 . S
C2579 C2580 1.397 . S
C2579 C2584 1.363 . S
C2580 H2557 0.950 . S
C2580 C2579 1.397 . S
C2580 C2581 1.334 . S
C2581 H2558 0.950 . S
C2581 C2580 1.334 . S
C2581 C2582 1.287 . S
C2582 C2581 1.287 . S
C2582 C2583 1.524 . S
C2582 H2601 0.913 . S
C2583 H2559 0.950 . S
C2583 C2582 1.524 . S
C2583 C2584 1.415 . S
C2584 H2560 0.950 . S
C2584 C2579 1.363 . S
C2584 C2583 1.415 . S
C2585 H2561 0.951 . S
C2585 C2586 1.366 . S
C2585 C2587 1.388 . S
C2586 C2585 1.366 . S
C2586 C2590 1.385 . S
C2587 H2562 0.951 . S
C2587 C2585 1.388 . S
C2587 C2588 1.366 . S
C2588 C2587 1.366 . S
C2588 C2589 1.414 . S
C2588 C2591 1.499 . S
C2589 H2563 0.950 . S
C2589 C2588 1.414 . S
C2589 C2590 1.374 . S
C2590 H2564 0.950 1_556 S
C2590 C2586 1.385 . S
C2590 C2589 1.374 . S
C2591 C2588 1.499 . S
C2591 C2592 1.373 . S
C2591 C2593 1.389 . S
C2592 H2565 0.950 . S
C2592 C2578 1.377 . S
C2592 C2591 1.373 . S
C2593 C2577 1.377 . S
C2593 C2591 1.389 . S
C2593 C2594 1.524 . S
C2594 C2593 1.524 . S
C2594 C2595 1.397 . S
C2594 C2599 1.363 . S
C2595 H2566 0.950 . S
C2595 C2594 1.397 . S
C2595 C2596 1.334 . S
C2596 H2567 0.950 . S
C2596 C2595 1.334 . S
C2596 C2597 1.287 . S
C2597 C2596 1.287 . S
C2597 C2598 1.524 . S
C2597 H2600 0.999 . S
C2598 H2568 0.950 . S
C2598 C2597 1.524 . S
C2598 C2599 1.415 . S
C2599 H2569 0.950 . S
C2599 C2594 1.363 . S
C2599 C2598 1.415 . S
H2600 C2597 0.999 . S
H2601 C2582 0.913 . S
H2602 C2620 0.951 . S
H2603 C2622 0.951 . S
H2604 C2624 0.950 . S
H2605 C2625 0.950 . S
H2606 C2627 0.950 . S
H2607 C2630 0.950 . S
H2608 C2631 0.950 . S
H2609 C2633 0.950 . S
H2610 C2634 0.950 . S
H2611 C2635 0.951 . S
H2612 C2637 0.951 . S
H2613 C2639 0.950 . S
H2614 C2640 0.950 . S
H2615 C2642 0.950 . S
H2616 C2645 0.950 . S
H2617 C2646 0.950 . S
H2618 C2648 0.950 . S
H2619 C2649 0.950 . S
C2620 H2602 0.951 . S
C2620 C2621 1.366 . S
C2620 C2622 1.388 . S
C2621 C2620 1.366 . S
C2621 C2625 1.385 . S
C2622 H2603 0.951 . S
C2622 C2620 1.388 . S
C2622 C2623 1.366 . S
C2623 C2622 1.366 . S
C2623 C2624 1.414 . S
C2623 C2626 1.499 . S
C2624 H2604 0.950 . S
C2624 C2623 1.414 . S
C2624 C2625 1.374 . S
C2625 H2605 0.950 . S
C2625 C2621 1.385 . S
C2625 C2624 1.374 . S
C2626 C2623 1.499 . S
C2626 C2627 1.373 . S
C2626 C2628 1.389 . S
C2627 H2606 0.950 . S
C2627 C2626 1.373 . S
C2627 C2643 1.377 . S
C2628 C2626 1.389 . S
C2628 C2629 1.524 . S
C2628 C2642 1.377 . S
C2629 C2628 1.524 . S
C2629 C2630 1.397 . S
C2629 C2634 1.363 . S
C2630 H2607 0.950 . S
C2630 C2629 1.397 . S
C2630 C2631 1.334 . S
C2631 H2608 0.950 . S
C2631 C2630 1.334 . S
C2631 C2632 1.287 . S
C2632 C2631 1.287 . S
C2632 C2633 1.524 . S
C2632 H2651 0.913 . S
C2633 H2609 0.950 . S
C2633 C2632 1.524 . S
C2633 C2634 1.415 . S
C2634 H2610 0.950 . S
C2634 C2629 1.363 . S
C2634 C2633 1.415 . S
C2635 H2611 0.951 . S
C2635 C2636 1.366 . S
C2635 C2637 1.388 . S
C2636 C2635 1.366 . S
C2636 C2640 1.385 . S
C2637 H2612 0.951 . S
C2637 C2635 1.388 . S
C2637 C2638 1.366 . S
C2638 C2637 1.366 . S
C2638 C2639 1.414 . S
C2638 C2641 1.499 . S
C2639 H2613 0.950 . S
C2639 C2638 1.414 . S
C2639 C2640 1.374 . S
C2640 H2614 0.950 . S
C2640 C2636 1.385 . S
C2640 C2639 1.374 . S
C2641 C2638 1.499 . S
C2641 C2642 1.373 . S
C2641 C2643 1.389 . S
C2642 H2615 0.950 . S
C2642 C2628 1.377 . S
C2642 C2641 1.373 . S
C2643 C2627 1.377 . S
C2643 C2641 1.389 . S
C2643 C2644 1.524 . S
C2644 C2643 1.524 . S
C2644 C2645 1.397 . S
C2644 C2649 1.363 . S
C2645 H2616 0.950 . S
C2645 C2644 1.397 . S
C2645 C2646 1.334 . S
C2646 H2617 0.950 . S
C2646 C2645 1.334 . S
C2646 C2647 1.287 . S
C2647 C2646 1.287 . S
C2647 C2648 1.524 . S
C2647 H2650 0.999 . S
C2648 H2618 0.950 . S
C2648 C2647 1.524 . S
C2648 C2649 1.415 . S
C2649 H2619 0.950 . S
C2649 C2644 1.363 . S
C2649 C2648 1.415 . S
H2650 C2647 0.999 . S
H2651 C2632 0.913 . S
H2652 C2670 0.951 . S
H2653 C2672 0.951 . S
H2654 C2674 0.950 . S
H2655 C2675 0.950 . S
H2656 C2677 0.950 . S
H2657 C2680 0.950 . S
H2658 C2681 0.950 . S
H2659 C2683 0.950 . S
H2660 C2684 0.950 . S
H2661 C2685 0.951 . S
H2662 C2687 0.951 . S
H2663 C2689 0.950 . S
H2664 C2690 0.950 . S
H2665 C2692 0.950 . S
H2666 C2695 0.950 . S
H2667 C2696 0.950 . S
H2668 C2698 0.950 . S
H2669 C2699 0.950 . S
C2670 H2652 0.951 . S
C2670 C2671 1.366 . S
C2670 C2672 1.388 . S
C2671 C2670 1.366 . S
C2671 C2675 1.385 . S
C2672 H2653 0.951 . S
C2672 C2670 1.388 . S
C2672 C2673 1.366 . S
C2673 C2672 1.366 . S
C2673 C2674 1.414 . S
C2673 C2676 1.499 . S
C2674 H2654 0.950 . S
C2674 C2673 1.414 . S
C2674 C2675 1.374 . S
C2675 H2655 0.950 . S
C2675 C2671 1.385 . S
C2675 C2674 1.374 . S
C2676 C2673 1.499 . S
C2676 C2677 1.373 . S
C2676 C2678 1.389 . S
C2677 H2656 0.950 . S
C2677 C2676 1.373 . S
C2677 C2693 1.377 . S
C2678 C2676 1.389 . S
C2678 C2679 1.524 . S
C2678 C2692 1.377 . S
C2679 C2678 1.524 . S
C2679 C2680 1.397 . S
C2679 C2684 1.363 . S
C2680 H2657 0.950 . S
C2680 C2679 1.397 . S
C2680 C2681 1.334 . S
C2681 H2658 0.950 . S
C2681 C2680 1.334 . S
C2681 C2682 1.287 . S
C2682 C2681 1.287 . S
C2682 C2683 1.524 . S
C2682 H2701 0.913 . S
C2683 H2659 0.950 . S
C2683 C2682 1.524 . S
C2683 C2684 1.415 . S
C2684 H2660 0.950 . S
C2684 C2679 1.363 . S
C2684 C2683 1.415 . S
C2685 H2661 0.951 . S
C2685 C2686 1.366 . S
C2685 C2687 1.388 . S
C2686 C2685 1.366 . S
C2686 C2690 1.385 . S
C2687 H2662 0.951 . S
C2687 C2685 1.388 . S
C2687 C2688 1.366 . S
C2688 C2687 1.366 . S
C2688 C2689 1.414 . S
C2688 C2691 1.499 . S
C2689 H2663 0.950 . S
C2689 C2688 1.414 . S
C2689 C2690 1.374 . S
C2690 H2664 0.950 . S
C2690 C2686 1.385 . S
C2690 C2689 1.374 . S
C2691 C2688 1.499 . S
C2691 C2692 1.373 . S
C2691 C2693 1.389 . S
C2692 H2665 0.950 . S
C2692 C2678 1.377 . S
C2692 C2691 1.373 . S
C2693 C2677 1.377 . S
C2693 C2691 1.389 . S
C2693 C2694 1.524 . S
C2694 C2693 1.524 . S
C2694 C2695 1.397 . S
C2694 C2699 1.363 . S
C2695 H2666 0.950 . S
C2695 C2694 1.397 . S
C2695 C2696 1.334 . S
C2696 H2667 0.950 . S
C2696 C2695 1.334 . S
C2696 C2697 1.287 . S
C2697 C2696 1.287 . S
C2697 C2698 1.524 . S
C2697 H2700 0.999 . S
C2698 H2668 0.950 . S
C2698 C2697 1.524 . S
C2698 C2699 1.415 . S
C2699 H2669 0.950 . S
C2699 C2694 1.363 . S
C2699 C2698 1.415 . S
H2700 C2697 0.999 . S
H2701 C2682 0.913 . S
H2702 C2720 0.951 . S
H2703 C2722 0.951 . S
H2704 C2724 0.950 . S
H2705 C2725 0.950 . S
H2706 C2727 0.950 . S
H2707 C2730 0.950 . S
H2708 C2731 0.950 . S
H2709 C2733 0.950 . S
H2710 C2734 0.950 . S
H2711 C2735 0.951 . S
H2712 C2737 0.951 . S
H2713 C2739 0.950 . S
H2714 C2740 0.950 . S
H2715 C2742 0.950 . S
H2716 C2745 0.950 . S
H2717 C2746 0.950 . S
H2718 C2748 0.950 . S
H2719 C2749 0.950 . S
C2720 H2702 0.951 . S
C2720 C2721 1.366 . S
C2720 C2722 1.388 . S
C2721 C2720 1.366 . S
C2721 C2725 1.385 . S
C2722 H2703 0.951 . S
C2722 C2720 1.388 . S
C2722 C2723 1.366 . S
C2723 C2722 1.366 . S
C2723 C2724 1.414 . S
C2723 C2726 1.499 . S
C2724 H2704 0.950 . S
C2724 C2723 1.414 . S
C2724 C2725 1.374 . S
C2725 H2705 0.950 . S
C2725 C2721 1.385 . S
C2725 C2724 1.374 . S
C2726 C2723 1.499 . S
C2726 C2727 1.373 . S
C2726 C2728 1.389 . S
C2727 H2706 0.950 . S
C2727 C2726 1.373 . S
C2727 C2743 1.377 . S
C2728 C2726 1.389 . S
C2728 C2729 1.524 . S
C2728 C2742 1.377 . S
C2729 C2728 1.524 . S
C2729 C2730 1.397 . S
C2729 C2734 1.363 . S
C2730 H2707 0.950 . S
C2730 C2729 1.397 . S
C2730 C2731 1.334 . S
C2731 H2708 0.950 . S
C2731 C2730 1.334 . S
C2731 C2732 1.287 . S
C2732 C2731 1.287 . S
C2732 C2733 1.524 . S
C2732 H2751 0.913 . S
C2733 H2709 0.950 . S
C2733 C2732 1.524 . S
C2733 C2734 1.415 . S
C2734 H2710 0.950 . S
C2734 C2729 1.363 . S
C2734 C2733 1.415 . S
C2735 H2711 0.951 . S
C2735 C2736 1.366 . S
C2735 C2737 1.388 . S
C2736 C2735 1.366 . S
C2736 C2740 1.385 . S
C2737 H2712 0.951 . S
C2737 C2735 1.388 . S
C2737 C2738 1.366 . S
C2738 C2737 1.366 . S
C2738 C2739 1.414 . S
C2738 C2741 1.499 . S
C2739 H2713 0.950 . S
C2739 C2738 1.414 . S
C2739 C2740 1.374 . S
C2740 H2714 0.950 . S
C2740 C2736 1.385 . S
C2740 C2739 1.374 . S
C2741 C2738 1.499 . S
C2741 C2742 1.373 . S
C2741 C2743 1.389 . S
C2742 H2715 0.950 . S
C2742 C2728 1.377 . S
C2742 C2741 1.373 . S
C2743 C2727 1.377 . S
C2743 C2741 1.389 . S
C2743 C2744 1.524 . S
C2744 C2743 1.524 . S
C2744 C2745 1.397 . S
C2744 C2749 1.363 . S
C2745 H2716 0.950 . S
C2745 C2744 1.397 . S
C2745 C2746 1.334 . S
C2746 H2717 0.950 . S
C2746 C2745 1.334 . S
C2746 C2747 1.287 . S
C2747 C2746 1.287 . S
C2747 C2748 1.524 . S
C2747 H2750 0.999 . S
C2748 H2718 0.950 . S
C2748 C2747 1.524 . S
C2748 C2749 1.415 . S
C2749 H2719 0.950 . S
C2749 C2744 1.363 . S
C2749 C2748 1.415 . S
H2750 C2747 0.999 . S
H2751 C2732 0.913 . S
H2752 C2770 0.951 . S
H2753 C2772 0.951 . S
H2754 C2774 0.950 . S
H2755 C2775 0.950 . S
H2756 C2777 0.950 . S
H2757 C2780 0.950 . S
H2758 C2781 0.950 . S
H2759 C2783 0.950 . S
H2760 C2784 0.950 . S
H2761 C2785 0.951 . S
H2762 C2787 0.951 . S
H2763 C2789 0.950 . S
H2764 C2790 0.950 . S
H2765 C2792 0.950 . S
H2766 C2795 0.950 . S
H2767 C2796 0.950 . S
H2768 C2798 0.950 . S
H2769 C2799 0.950 . S
C2770 H2752 0.951 . S
C2770 C2771 1.366 . S
C2770 C2772 1.388 . S
C2771 C2770 1.366 . S
C2771 C2775 1.385 . S
C2772 H2753 0.951 . S
C2772 C2770 1.388 . S
C2772 C2773 1.366 . S
C2773 C2772 1.366 . S
C2773 C2774 1.414 . S
C2773 C2776 1.499 . S
C2774 H2754 0.950 . S
C2774 C2773 1.414 . S
C2774 C2775 1.374 . S
C2775 H2755 0.950 . S
C2775 C2771 1.385 . S
C2775 C2774 1.374 . S
C2776 C2773 1.499 . S
C2776 C2777 1.373 . S
C2776 C2778 1.389 . S
C2777 H2756 0.950 . S
C2777 C2776 1.373 . S
C2777 C2793 1.377 . S
C2778 C2776 1.389 . S
C2778 C2779 1.524 . S
C2778 C2792 1.377 . S
C2779 C2778 1.524 . S
C2779 C2780 1.397 . S
C2779 C2784 1.363 . S
C2780 H2757 0.950 . S
C2780 C2779 1.397 . S
C2780 C2781 1.334 . S
C2781 H2758 0.950 . S
C2781 C2780 1.334 . S
C2781 C2782 1.287 . S
C2782 C2781 1.287 . S
C2782 C2783 1.524 . S
C2782 H2801 0.913 . S
C2783 H2759 0.950 . S
C2783 C2782 1.524 . S
C2783 C2784 1.415 . S
C2784 H2760 0.950 . S
C2784 C2779 1.363 . S
C2784 C2783 1.415 . S
C2785 H2761 0.951 . S
C2785 C2786 1.366 . S
C2785 C2787 1.388 . S
C2786 C2785 1.366 . S
C2786 C2790 1.385 . S
C2787 H2762 0.951 . S
C2787 C2785 1.388 . S
C2787 C2788 1.366 . S
C2788 C2787 1.366 . S
C2788 C2789 1.414 . S
C2788 C2791 1.499 . S
C2789 H2763 0.950 . S
C2789 C2788 1.414 . S
C2789 C2790 1.374 . S
C2790 H2764 0.950 . S
C2790 C2786 1.385 . S
C2790 C2789 1.374 . S
C2791 C2788 1.499 . S
C2791 C2792 1.373 . S
C2791 C2793 1.389 . S
C2792 H2765 0.950 . S
C2792 C2778 1.377 . S
C2792 C2791 1.373 . S
C2793 C2777 1.377 . S
C2793 C2791 1.389 . S
C2793 C2794 1.524 . S
C2794 C2793 1.524 . S
C2794 C2795 1.397 . S
C2794 C2799 1.363 . S
C2795 H2766 0.950 . S
C2795 C2794 1.397 . S
C2795 C2796 1.334 . S
C2796 H2767 0.950 . S
C2796 C2795 1.334 . S
C2796 C2797 1.287 . S
C2797 C2796 1.287 . S
C2797 C2798 1.524 . S
C2797 H2800 0.999 . S
C2798 H2768 0.950 . S
C2798 C2797 1.524 . S
C2798 C2799 1.415 . S
C2799 H2769 0.950 . S
C2799 C2794 1.363 . S
C2799 C2798 1.415 . S
H2800 C2797 0.999 . S
H2801 C2782 0.913 . S
H2802 C2820 0.951 . S
H2803 C2822 0.951 . S
H2804 C2824 0.950 . S
H2805 C2825 0.950 . S
H2806 C2827 0.950 . S
H2807 C2830 0.950 . S
H2808 C2831 0.950 . S
H2809 C2833 0.950 . S
H2810 C2834 0.950 . S
H2811 C2835 0.951 . S
H2812 C2837 0.951 . S
H2813 C2839 0.950 . S
H2814 C2840 0.950 . S
H2815 C2842 0.950 . S
H2816 C2845 0.950 . S
H2817 C2846 0.950 . S
H2818 C2848 0.950 . S
H2819 C2849 0.950 . S
C2820 H2802 0.951 . S
C2820 C2821 1.366 . S
C2820 C2822 1.388 . S
C2821 C2820 1.366 . S
C2821 C2825 1.385 . S
C2822 H2803 0.951 . S
C2822 C2820 1.388 . S
C2822 C2823 1.366 . S
C2823 C2822 1.366 . S
C2823 C2824 1.414 . S
C2823 C2826 1.499 . S
C2824 H2804 0.950 . S
C2824 C2823 1.414 . S
C2824 C2825 1.374 . S
C2825 H2805 0.950 . S
C2825 C2821 1.385 . S
C2825 C2824 1.374 . S
C2826 C2823 1.499 . S
C2826 C2827 1.373 . S
C2826 C2828 1.389 . S
C2827 H2806 0.950 . S
C2827 C2826 1.373 . S
C2827 C2843 1.377 . S
C2828 C2826 1.389 . S
C2828 C2829 1.524 . S
C2828 C2842 1.377 . S
C2829 C2828 1.524 . S
C2829 C2830 1.397 . S
C2829 C2834 1.363 . S
C2830 H2807 0.950 . S
C2830 C2829 1.397 . S
C2830 C2831 1.334 . S
C2831 H2808 0.950 . S
C2831 C2830 1.334 . S
C2831 C2832 1.287 . S
C2832 C2831 1.287 . S
C2832 C2833 1.524 . S
C2832 H2851 0.913 . S
C2833 H2809 0.950 . S
C2833 C2832 1.524 . S
C2833 C2834 1.415 . S
C2834 H2810 0.950 . S
C2834 C2829 1.363 . S
C2834 C2833 1.415 . S
C2835 H2811 0.951 . S
C2835 C2836 1.366 . S
C2835 C2837 1.388 . S
C2836 C2835 1.366 . S
C2836 C2840 1.385 . S
C2837 H2812 0.951 . S
C2837 C2835 1.388 . S
C2837 C2838 1.366 . S
C2838 C2837 1.366 . S
C2838 C2839 1.414 . S
C2838 C2841 1.499 . S
C2839 H2813 0.950 . S
C2839 C2838 1.414 . S
C2839 C2840 1.374 . S
C2840 H2814 0.950 . S
C2840 C2836 1.385 . S
C2840 C2839 1.374 . S
C2841 C2838 1.499 . S
C2841 C2842 1.373 . S
C2841 C2843 1.389 . S
C2842 H2815 0.950 . S
C2842 C2828 1.377 . S
C2842 C2841 1.373 . S
C2843 C2827 1.377 . S
C2843 C2841 1.389 . S
C2843 C2844 1.524 . S
C2844 C2843 1.524 . S
C2844 C2845 1.397 . S
C2844 C2849 1.363 . S
C2845 H2816 0.950 . S
C2845 C2844 1.397 . S
C2845 C2846 1.334 . S
C2846 H2817 0.950 . S
C2846 C2845 1.334 . S
C2846 C2847 1.287 . S
C2847 C2846 1.287 . S
C2847 C2848 1.524 . S
C2847 H2850 0.999 . S
C2848 H2818 0.950 . S
C2848 C2847 1.524 . S
C2848 C2849 1.415 . S
C2849 H2819 0.950 . S
C2849 C2844 1.363 . S
C2849 C2848 1.415 . S
H2850 C2847 0.999 . S
H2851 C2832 0.913 . S
H2852 C2870 0.951 . S
H2853 C2872 0.951 . S
H2854 C2874 0.950 . S
H2855 C2875 0.950 . S
H2856 C2877 0.950 . S
H2857 C2880 0.950 . S
H2858 C2881 0.950 . S
H2859 C2883 0.950 . S
H2860 C2884 0.950 . S
H2861 C2885 0.951 . S
H2862 C2887 0.951 . S
H2863 C2889 0.950 . S
H2864 C2890 0.950 . S
H2865 C2892 0.950 . S
H2866 C2895 0.950 . S
H2867 C2896 0.950 . S
H2868 C2898 0.950 . S
H2869 C2899 0.950 . S
C2870 H2852 0.951 . S
C2870 C2871 1.366 . S
C2870 C2872 1.388 . S
C2871 C2870 1.366 . S
C2871 C2875 1.385 . S
C2872 H2853 0.951 . S
C2872 C2870 1.388 . S
C2872 C2873 1.366 . S
C2873 C2872 1.366 . S
C2873 C2874 1.414 . S
C2873 C2876 1.499 . S
C2874 H2854 0.950 . S
C2874 C2873 1.414 . S
C2874 C2875 1.374 . S
C2875 H2855 0.950 . S
C2875 C2871 1.385 . S
C2875 C2874 1.374 . S
C2876 C2873 1.499 . S
C2876 C2877 1.373 . S
C2876 C2878 1.389 . S
C2877 H2856 0.950 . S
C2877 C2876 1.373 . S
C2877 C2893 1.377 . S
C2878 C2876 1.389 . S
C2878 C2879 1.524 . S
C2878 C2892 1.377 . S
C2879 C2878 1.524 . S
C2879 C2880 1.397 . S
C2879 C2884 1.363 . S
C2880 H2857 0.950 . S
C2880 C2879 1.397 . S
C2880 C2881 1.334 . S
C2881 H2858 0.950 . S
C2881 C2880 1.334 . S
C2881 C2882 1.287 . S
C2882 C2881 1.287 . S
C2882 C2883 1.524 . S
C2882 H2901 0.913 . S
C2883 H2859 0.950 . S
C2883 C2882 1.524 . S
C2883 C2884 1.415 . S
C2884 H2860 0.950 . S
C2884 C2879 1.363 . S
C2884 C2883 1.415 . S
C2885 H2861 0.951 . S
C2885 C2886 1.366 . S
C2885 C2887 1.388 . S
C2886 C2885 1.366 . S
C2886 C2890 1.385 . S
C2887 H2862 0.951 . S
C2887 C2885 1.388 . S
C2887 C2888 1.366 . S
C2888 C2887 1.366 . S
C2888 C2889 1.414 . S
C2888 C2891 1.499 . S
C2889 H2863 0.950 . S
C2889 C2888 1.414 . S
C2889 C2890 1.374 . S
C2890 H2864 0.950 . S
C2890 C2886 1.385 . S
C2890 C2889 1.374 . S
C2891 C2888 1.499 . S
C2891 C2892 1.373 . S
C2891 C2893 1.389 . S
C2892 H2865 0.950 . S
C2892 C2878 1.377 . S
C2892 C2891 1.373 . S
C2893 C2877 1.377 . S
C2893 C2891 1.389 . S
C2893 C2894 1.524 . S
C2894 C2893 1.524 . S
C2894 C2895 1.397 . S
C2894 C2899 1.363 . S
C2895 H2866 0.950 . S
C2895 C2894 1.397 . S
C2895 C2896 1.334 . S
C2896 H2867 0.950 . S
C2896 C2895 1.334 . S
C2896 C2897 1.287 . S
C2897 C2896 1.287 . S
C2897 C2898 1.524 . S
C2897 H2900 0.999 . S
C2898 H2868 0.950 . S
C2898 C2897 1.524 . S
C2898 C2899 1.415 . S
C2899 H2869 0.950 . S
C2899 C2894 1.363 . S
C2899 C2898 1.415 . S
H2900 C2897 0.999 . S
H2901 C2882 0.913 . S
H2902 C2920 0.951 . S
H2903 C2922 0.951 . S
H2904 C2924 0.950 . S
H2905 C2925 0.950 . S
H2906 C2927 0.950 . S
H2907 C2930 0.950 . S
H2908 C2931 0.950 . S
H2909 C2933 0.950 . S
H2910 C2934 0.950 . S
H2911 C2935 0.951 . S
H2912 C2937 0.951 . S
H2913 C2939 0.950 . S
H2914 C2940 0.950 . S
H2915 C2942 0.950 . S
H2916 C2945 0.950 . S
H2917 C2946 0.950 . S
H2918 C2948 0.950 . S
H2919 C2949 0.950 . S
C2920 H2902 0.951 . S
C2920 C2921 1.366 . S
C2920 C2922 1.388 . S
C2921 C2920 1.366 . S
C2921 C2925 1.385 . S
C2922 H2903 0.951 . S
C2922 C2920 1.388 . S
C2922 C2923 1.366 . S
C2923 C2922 1.366 . S
C2923 C2924 1.414 . S
C2923 C2926 1.499 . S
C2924 H2904 0.950 . S
C2924 C2923 1.414 . S
C2924 C2925 1.374 . S
C2925 H2905 0.950 . S
C2925 C2921 1.385 . S
C2925 C2924 1.374 . S
C2926 C2923 1.499 . S
C2926 C2927 1.373 . S
C2926 C2928 1.389 . S
C2927 H2906 0.950 . S
C2927 C2926 1.373 . S
C2927 C2943 1.377 . S
C2928 C2926 1.389 . S
C2928 C2929 1.524 . S
C2928 C2942 1.377 . S
C2929 C2928 1.524 . S
C2929 C2930 1.397 . S
C2929 C2934 1.363 . S
C2930 H2907 0.950 . S
C2930 C2929 1.397 . S
C2930 C2931 1.334 . S
C2931 H2908 0.950 . S
C2931 C2930 1.334 . S
C2931 C2932 1.287 . S
C2932 C2931 1.287 . S
C2932 C2933 1.524 . S
C2932 H2951 0.913 . S
C2933 H2909 0.950 . S
C2933 C2932 1.524 . S
C2933 C2934 1.415 . S
C2934 H2910 0.950 . S
C2934 C2929 1.363 . S
C2934 C2933 1.415 . S
C2935 H2911 0.951 . S
C2935 C2936 1.366 . S
C2935 C2937 1.388 . S
C2936 C2935 1.366 . S
C2936 C2940 1.385 . S
C2937 H2912 0.951 . S
C2937 C2935 1.388 . S
C2937 C2938 1.366 . S
C2938 C2937 1.366 . S
C2938 C2939 1.414 . S
C2938 C2941 1.499 . S
C2939 H2913 0.950 . S
C2939 C2938 1.414 . S
C2939 C2940 1.374 . S
C2940 H2914 0.950 . S
C2940 C2936 1.385 . S
C2940 C2939 1.374 . S
C2941 C2938 1.499 . S
C2941 C2942 1.373 . S
C2941 C2943 1.389 . S
C2942 H2915 0.950 . S
C2942 C2928 1.377 . S
C2942 C2941 1.373 . S
C2943 C2927 1.377 . S
C2943 C2941 1.389 . S
C2943 C2944 1.524 . S
C2944 C2943 1.524 . S
C2944 C2945 1.397 . S
C2944 C2949 1.363 . S
C2945 H2916 0.950 . S
C2945 C2944 1.397 . S
C2945 C2946 1.334 . S
C2946 H2917 0.950 . S
C2946 C2945 1.334 . S
C2946 C2947 1.287 . S
C2947 C2946 1.287 . S
C2947 C2948 1.524 . S
C2947 H2950 0.999 . S
C2948 H2918 0.950 . S
C2948 C2947 1.524 . S
C2948 C2949 1.415 . S
C2949 H2919 0.950 . S
C2949 C2944 1.363 . S
C2949 C2948 1.415 . S
H2950 C2947 0.999 . S
H2951 C2932 0.913 . S
H2952 C2970 0.944 1_556 S
H2953 C2972 0.951 . S
H2954 C2974 0.950 . S
H2955 C2975 0.950 . S
H2956 C2977 0.950 . S
H2957 C2980 0.950 . S
H2958 C2981 0.950 . S
H2959 C2983 0.950 . S
H2960 C2984 0.950 . S
H2961 C2985 0.956 . S
H2962 C2987 0.951 . S
H2963 C2989 0.950 . S
H2964 C2990 0.950 . S
H2965 C2992 0.950 . S
H2966 C2995 0.950 . S
H2967 C2996 0.950 . S
H2968 C2998 0.950 . S
H2969 C2999 0.950 . S
C2970 H2952 0.944 1_554 S
C2970 C2971 1.377 . S
C2970 C2972 1.383 1_554 S
C2971 C2970 1.377 . S
C2971 C2975 1.385 . S
C2972 H2953 0.951 . S
C2972 C2970 1.383 1_556 S
C2972 C2973 1.366 1_556 S
C2973 C2972 1.366 1_554 S
C2973 C2974 1.414 . S
C2973 C2976 1.507 . S
C2974 H2954 0.950 . S
C2974 C2973 1.414 . S
C2974 C2975 1.374 . S
C2975 H2955 0.950 . S
C2975 C2971 1.385 . S
C2975 C2974 1.374 . S
C2976 C2973 1.507 . S
C2976 C2977 1.412 . S
C2976 C2978 1.345 1_554 S
C2977 H2956 0.950 . S
C2977 C2976 1.412 . S
C2977 C2993 1.377 . S
C2978 C2976 1.345 1_556 S
C2978 C2979 1.524 . S
C2978 C2992 1.377 . S
C2979 C2978 1.524 . S
C2979 C2980 1.397 . S
C2979 C2984 1.363 . S
C2980 H2957 0.950 . S
C2980 C2979 1.397 . S
C2980 C2981 1.334 . S
C2981 H2958 0.950 . S
C2981 C2980 1.334 . S
C2981 C2982 1.287 . S
C2982 C2981 1.287 . S
C2982 C2983 1.524 . S
C2982 H3001 0.913 . S
C2983 H2959 0.950 . S
C2983 C2982 1.524 . S
C2983 C2984 1.415 . S
C2984 H2960 0.950 . S
C2984 C2979 1.363 . S
C2984 C2983 1.415 . S
C2985 H2961 0.956 . S
C2985 C2986 1.358 1_554 S
C2985 C2987 1.391 . S
C2986 C2985 1.358 1_556 S
C2986 C2990 1.385 . S
C2987 H2962 0.951 . S
C2987 C2985 1.391 . S
C2987 C2988 1.366 1_554 S
C2988 C2987 1.366 1_556 S
C2988 C2989 1.414 . S
C2988 C2991 1.500 1_556 S
C2989 H2963 0.950 . S
C2989 C2988 1.414 . S
C2989 C2990 1.374 . S
C2990 H2964 0.950 . S
C2990 C2986 1.385 . S
C2990 C2989 1.374 . S
C2991 C2988 1.500 1_554 S
C2991 C2992 1.378 1_554 S
C2991 C2993 1.384 . S
C2992 H2965 0.950 . S
C2992 C2978 1.377 . S
C2992 C2991 1.378 1_556 S
C2993 C2977 1.377 . S
C2993 C2991 1.384 . S
C2993 C2994 1.524 . S
C2994 C2993 1.524 . S
C2994 C2995 1.397 . S
C2994 C2999 1.363 . S
C2995 H2966 0.950 . S
C2995 C2994 1.397 . S
C2995 C2996 1.334 . S
C2996 H2967 0.950 . S
C2996 C2995 1.334 . S
C2996 C2997 1.287 . S
C2997 C2996 1.287 . S
C2997 C2998 1.524 . S
C2997 H3000 0.999 . S
C2998 H2968 0.950 . S
C2998 C2997 1.524 . S
C2998 C2999 1.415 . S
C2999 H2969 0.950 . S
C2999 C2994 1.363 . S
C2999 C2998 1.415 . S
H3000 C2997 0.999 . S
H3001 C2982 0.913 . S
H3002 C3020 0.951 . S
H3003 C3022 0.917 1_556 S
H3004 C3024 0.950 . S
H3005 C3025 0.950 . S
H3006 C3027 0.950 . S
H3007 C3030 0.950 1_554 S
H3008 C3031 0.950 . S
H3009 C3033 0.950 . S
H3010 C3034 0.950 . S
H3011 C3035 0.951 . S
H3012 C3037 0.951 . S
H3013 C3039 0.950 1_556 S
H3014 C3040 0.950 1_556 S
H3015 C3042 0.950 1_556 S
H3016 C3045 0.950 . S
H3017 C3046 0.950 . S
H3018 C3048 0.950 . S
H3019 C3049 0.950 . S
C3020 H3002 0.951 . S
C3020 C3021 1.366 . S
C3020 C3022 1.388 . S
C3021 C3020 1.366 . S
C3021 C3025 1.385 . S
C3022 H3003 0.917 1_554 S
C3022 C3020 1.388 . S
C3022 C3023 1.366 . S
C3023 C3022 1.366 . S
C3023 C3024 1.414 . S
C3023 C3026 1.499 . S
C3024 H3004 0.950 . S
C3024 C3023 1.414 . S
C3024 C3025 1.374 . S
C3025 H3005 0.950 . S
C3025 C3021 1.385 . S
C3025 C3024 1.374 . S
C3026 C3023 1.499 . S
C3026 C3027 1.373 . S
C3026 C3028 1.389 . S
C3027 H3006 0.950 . S
C3027 C3026 1.373 . S
C3027 C3043 1.377 . S
C3028 C3026 1.389 . S
C3028 C3029 1.524 1_554 S
C3028 C3042 1.377 . S
C3029 C3028 1.524 1_556 S
C3029 C3030 1.397 . S
C3029 C3034 1.363 . S
C3030 H3007 0.950 1_556 S
C3030 C3029 1.397 . S
C3030 C3031 1.334 . S
C3031 H3008 0.950 . S
C3031 C3030 1.334 . S
C3031 C3032 1.287 . S
C3032 C3031 1.287 . S
C3032 C3033 1.524 . S
C3032 H3051 0.913 . S
C3033 H3009 0.950 . S
C3033 C3032 1.524 . S
C3033 C3034 1.415 . S
C3034 H3010 0.950 . S
C3034 C3029 1.363 . S
C3034 C3033 1.415 . S
C3035 H3011 0.951 . S
C3035 C3036 1.366 . S
C3035 C3037 1.388 . S
C3036 C3035 1.366 . S
C3036 C3040 1.385 . S
C3037 H3012 0.951 . S
C3037 C3035 1.388 . S
C3037 C3038 1.366 . S
C3038 C3037 1.366 . S
C3038 C3039 1.414 . S
C3038 C3041 1.499 . S
C3039 H3013 0.950 1_554 S
C3039 C3038 1.414 . S
C3039 C3040 1.374 . S
C3040 H3014 0.950 1_554 S
C3040 C3036 1.385 . S
C3040 C3039 1.374 . S
C3041 C3038 1.499 . S
C3041 C3042 1.373 . S
C3041 C3043 1.389 . S
C3042 H3015 0.950 1_554 S
C3042 C3028 1.377 . S
C3042 C3041 1.373 . S
C3043 C3027 1.377 . S
C3043 C3041 1.389 . S
C3043 C3044 1.524 . S
C3044 C3043 1.524 . S
C3044 C3045 1.397 . S
C3044 C3049 1.363 . S
C3045 H3016 0.950 . S
C3045 C3044 1.397 . S
C3045 C3046 1.334 . S
C3046 H3017 0.950 . S
C3046 C3045 1.334 . S
C3046 C3047 1.287 . S
C3047 C3046 1.287 . S
C3047 C3048 1.524 . S
C3047 H3050 0.999 . S
C3048 H3018 0.950 . S
C3048 C3047 1.524 . S
C3048 C3049 1.415 . S
C3049 H3019 0.950 . S
C3049 C3044 1.363 . S
C3049 C3048 1.415 . S
H3050 C3047 0.999 . S
H3051 C3032 0.913 . S
H3052 C3070 0.951 . S
H3053 C3072 0.951 . S
H3054 C3074 0.950 . S
H3055 C3075 0.950 . S
H3056 C3077 0.950 . S
H3057 C3080 0.950 . S
H3058 C3081 0.950 . S
H3059 C3083 0.950 . S
H3060 C3084 0.950 . S
H3061 C3085 0.951 . S
H3062 C3087 0.951 . S
H3063 C3089 0.950 . S
H3064 C3090 0.950 . S
H3065 C3092 0.950 . S
H3066 C3095 0.950 . S
H3067 C3096 0.950 . S
H3068 C3098 0.950 . S
H3069 C3099 0.950 . S
C3070 H3052 0.951 . S
C3070 C3071 1.366 . S
C3070 C3072 1.388 . S
C3071 C3070 1.366 . S
C3071 C3075 1.385 . S
C3072 H3053 0.951 . S
C3072 C3070 1.388 . S
C3072 C3073 1.366 . S
C3073 C3072 1.366 . S
C3073 C3074 1.414 . S
C3073 C3076 1.499 . S
C3074 H3054 0.950 . S
C3074 C3073 1.414 . S
C3074 C3075 1.374 . S
C3075 H3055 0.950 . S
C3075 C3071 1.385 . S
C3075 C3074 1.374 . S
C3076 C3073 1.499 . S
C3076 C3077 1.373 . S
C3076 C3078 1.389 . S
C3077 H3056 0.950 . S
C3077 C3076 1.373 . S
C3077 C3093 1.377 . S
C3078 C3076 1.389 . S
C3078 C3079 1.524 . S
C3078 C3092 1.377 . S
C3079 C3078 1.524 . S
C3079 C3080 1.397 . S
C3079 C3084 1.363 . S
C3080 H3057 0.950 . S
C3080 C3079 1.397 . S
C3080 C3081 1.334 . S
C3081 H3058 0.950 . S
C3081 C3080 1.334 . S
C3081 C3082 1.287 . S
C3082 C3081 1.287 . S
C3082 C3083 1.524 . S
C3082 H3101 0.913 . S
C3083 H3059 0.950 . S
C3083 C3082 1.524 . S
C3083 C3084 1.415 . S
C3084 H3060 0.950 . S
C3084 C3079 1.363 . S
C3084 C3083 1.415 . S
C3085 H3061 0.951 . S
C3085 C3086 1.366 . S
C3085 C3087 1.388 . S
C3086 C3085 1.366 . S
C3086 C3090 1.385 . S
C3087 H3062 0.951 . S
C3087 C3085 1.388 . S
C3087 C3088 1.366 . S
C3088 C3087 1.366 . S
C3088 C3089 1.414 . S
C3088 C3091 1.499 . S
C3089 H3063 0.950 . S
C3089 C3088 1.414 . S
C3089 C3090 1.374 . S
C3090 H3064 0.950 . S
C3090 C3086 1.385 . S
C3090 C3089 1.374 . S
C3091 C3088 1.499 . S
C3091 C3092 1.373 . S
C3091 C3093 1.389 . S
C3092 H3065 0.950 . S
C3092 C3078 1.377 . S
C3092 C3091 1.373 . S
C3093 C3077 1.377 . S
C3093 C3091 1.389 . S
C3093 C3094 1.524 . S
C3094 C3093 1.524 . S
C3094 C3095 1.397 . S
C3094 C3099 1.363 . S
C3095 H3066 0.950 . S
C3095 C3094 1.397 . S
C3095 C3096 1.334 . S
C3096 H3067 0.950 . S
C3096 C3095 1.334 . S
C3096 C3097 1.287 . S
C3097 C3096 1.287 . S
C3097 C3098 1.524 . S
C3097 H3100 0.999 . S
C3098 H3068 0.950 . S
C3098 C3097 1.524 . S
C3098 C3099 1.415 . S
C3099 H3069 0.950 . S
C3099 C3094 1.363 . S
C3099 C3098 1.415 . S
H3100 C3097 0.999 . S
H3101 C3082 0.913 . S
H3102 C3120 0.951 . S
H3103 C3122 0.951 . S
H3104 C3124 0.950 . S
H3105 C3125 0.950 . S
H3106 C3127 0.950 . S
H3107 C3130 0.950 . S
H3108 C3131 0.950 . S
H3109 C3133 0.950 . S
H3110 C3134 0.950 . S
H3111 C3135 0.951 . S
H3112 C3137 0.951 . S
H3113 C3139 0.950 . S
H3114 C3140 0.950 . S
H3115 C3142 0.950 . S
H3116 C3145 0.950 . S
H3117 C3146 0.950 . S
H3118 C3148 0.950 . S
H3119 C3149 0.950 . S
C3120 H3102 0.951 . S
C3120 C3121 1.366 . S
C3120 C3122 1.388 . S
C3121 C3120 1.366 . S
C3121 C3125 1.385 . S
C3122 H3103 0.951 . S
C3122 C3120 1.388 . S
C3122 C3123 1.366 . S
C3123 C3122 1.366 . S
C3123 C3124 1.414 . S
C3123 C3126 1.499 . S
C3124 H3104 0.950 . S
C3124 C3123 1.414 . S
C3124 C3125 1.374 . S
C3125 H3105 0.950 . S
C3125 C3121 1.385 . S
C3125 C3124 1.374 . S
C3126 C3123 1.499 . S
C3126 C3127 1.373 . S
C3126 C3128 1.389 . S
C3127 H3106 0.950 . S
C3127 C3126 1.373 . S
C3127 C3143 1.377 . S
C3128 C3126 1.389 . S
C3128 C3129 1.524 . S
C3128 C3142 1.377 . S
C3129 C3128 1.524 . S
C3129 C3130 1.397 . S
C3129 C3134 1.363 . S
C3130 H3107 0.950 . S
C3130 C3129 1.397 . S
C3130 C3131 1.334 . S
C3131 H3108 0.950 . S
C3131 C3130 1.334 . S
C3131 C3132 1.287 . S
C3132 C3131 1.287 . S
C3132 C3133 1.524 . S
C3132 H3151 0.913 . S
C3133 H3109 0.950 . S
C3133 C3132 1.524 . S
C3133 C3134 1.415 . S
C3134 H3110 0.950 . S
C3134 C3129 1.363 . S
C3134 C3133 1.415 . S
C3135 H3111 0.951 . S
C3135 C3136 1.366 . S
C3135 C3137 1.388 . S
C3136 C3135 1.366 . S
C3136 C3140 1.385 . S
C3137 H3112 0.951 . S
C3137 C3135 1.388 . S
C3137 C3138 1.366 . S
C3138 C3137 1.366 . S
C3138 C3139 1.414 . S
C3138 C3141 1.499 . S
C3139 H3113 0.950 . S
C3139 C3138 1.414 . S
C3139 C3140 1.374 . S
C3140 H3114 0.950 . S
C3140 C3136 1.385 . S
C3140 C3139 1.374 . S
C3141 C3138 1.499 . S
C3141 C3142 1.373 . S
C3141 C3143 1.389 . S
C3142 H3115 0.950 . S
C3142 C3128 1.377 . S
C3142 C3141 1.373 . S
C3143 C3127 1.377 . S
C3143 C3141 1.389 . S
C3143 C3144 1.524 . S
C3144 C3143 1.524 . S
C3144 C3145 1.397 . S
C3144 C3149 1.363 . S
C3145 H3116 0.950 . S
C3145 C3144 1.397 . S
C3145 C3146 1.334 . S
C3146 H3117 0.950 . S
C3146 C3145 1.334 . S
C3146 C3147 1.287 . S
C3147 C3146 1.287 . S
C3147 C3148 1.524 . S
C3147 H3150 0.999 . S
C3148 H3118 0.950 . S
C3148 C3147 1.524 . S
C3148 C3149 1.415 . S
C3149 H3119 0.950 . S
C3149 C3144 1.363 . S
C3149 C3148 1.415 . S
H3150 C3147 0.999 . S
H3151 C3132 0.913 . S
H3152 C3170 0.951 . S
H3153 C3172 0.951 . S
H3154 C3174 0.950 . S
H3155 C3175 0.950 . S
H3156 C3177 0.950 . S
H3157 C3180 0.950 . S
H3158 C3181 0.950 . S
H3159 C3183 0.950 . S
H3160 C3184 0.950 . S
H3161 C3185 0.951 . S
H3162 C3187 0.951 . S
H3163 C3189 0.950 . S
H3164 C3190 0.950 . S
H3165 C3192 0.950 . S
H3166 C3195 0.950 . S
H3167 C3196 0.950 . S
H3168 C3198 0.950 . S
H3169 C3199 0.950 . S
C3170 H3152 0.951 . S
C3170 C3171 1.366 . S
C3170 C3172 1.388 . S
C3171 C3170 1.366 . S
C3171 C3175 1.385 . S
C3172 H3153 0.951 . S
C3172 C3170 1.388 . S
C3172 C3173 1.366 . S
C3173 C3172 1.366 . S
C3173 C3174 1.414 . S
C3173 C3176 1.499 . S
C3174 H3154 0.950 . S
C3174 C3173 1.414 . S
C3174 C3175 1.374 . S
C3175 H3155 0.950 . S
C3175 C3171 1.385 . S
C3175 C3174 1.374 . S
C3176 C3173 1.499 . S
C3176 C3177 1.373 . S
C3176 C3178 1.389 . S
C3177 H3156 0.950 . S
C3177 C3176 1.373 . S
C3177 C3193 1.377 . S
C3178 C3176 1.389 . S
C3178 C3179 1.524 . S
C3178 C3192 1.377 . S
C3179 C3178 1.524 . S
C3179 C3180 1.397 . S
C3179 C3184 1.363 . S
C3180 H3157 0.950 . S
C3180 C3179 1.397 . S
C3180 C3181 1.334 . S
C3181 H3158 0.950 . S
C3181 C3180 1.334 . S
C3181 C3182 1.287 . S
C3182 C3181 1.287 . S
C3182 C3183 1.524 . S
C3182 H3201 0.913 . S
C3183 H3159 0.950 . S
C3183 C3182 1.524 . S
C3183 C3184 1.415 . S
C3184 H3160 0.950 . S
C3184 C3179 1.363 . S
C3184 C3183 1.415 . S
C3185 H3161 0.951 . S
C3185 C3186 1.366 . S
C3185 C3187 1.388 . S
C3186 C3185 1.366 . S
C3186 C3190 1.385 . S
C3187 H3162 0.951 . S
C3187 C3185 1.388 . S
C3187 C3188 1.366 . S
C3188 C3187 1.366 . S
C3188 C3189 1.414 . S
C3188 C3191 1.499 . S
C3189 H3163 0.950 . S
C3189 C3188 1.414 . S
C3189 C3190 1.374 . S
C3190 H3164 0.950 . S
C3190 C3186 1.385 . S
C3190 C3189 1.374 . S
C3191 C3188 1.499 . S
C3191 C3192 1.373 . S
C3191 C3193 1.389 . S
C3192 H3165 0.950 . S
C3192 C3178 1.377 . S
C3192 C3191 1.373 . S
C3193 C3177 1.377 . S
C3193 C3191 1.389 . S
C3193 C3194 1.524 . S
C3194 C3193 1.524 . S
C3194 C3195 1.397 . S
C3194 C3199 1.363 . S
C3195 H3166 0.950 . S
C3195 C3194 1.397 . S
C3195 C3196 1.334 . S
C3196 H3167 0.950 . S
C3196 C3195 1.334 . S
C3196 C3197 1.287 . S
C3197 C3196 1.287 . S
C3197 C3198 1.524 . S
C3197 H3200 0.999 . S
C3198 H3168 0.950 . S
C3198 C3197 1.524 . S
C3198 C3199 1.415 . S
C3199 H3169 0.950 . S
C3199 C3194 1.363 . S
C3199 C3198 1.415 . S
H3200 C3197 0.999 . S
H3201 C3182 0.913 . S
H3202 C3220 0.951 . S
H3203 C3222 0.951 . S
H3204 C3224 0.950 . S
H3205 C3225 0.950 . S
H3206 C3227 0.950 . S
H3207 C3230 0.950 . S
H3208 C3231 0.950 . S
H3209 C3233 0.950 . S
H3210 C3234 0.922 1_545 S
H3211 C3235 0.951 . S
H3212 C3237 0.951 . S
H3213 C3239 0.936 1_545 S
H3214 C3240 0.997 . S
H3215 C3242 0.950 . S
H3216 C3245 0.950 . S
H3217 C3246 0.950 . S
H3218 C3248 0.950 . S
H3219 C3249 0.950 . S
C3220 H3202 0.951 . S
C3220 C3221 1.366 . S
C3220 C3222 1.388 . S
C3221 C3220 1.366 . S
C3221 C3225 1.385 . S
C3222 H3203 0.951 . S
C3222 C3220 1.388 . S
C3222 C3223 1.366 . S
C3223 C3222 1.366 . S
C3223 C3224 1.414 . S
C3223 C3226 1.499 . S
C3224 H3204 0.950 . S
C3224 C3223 1.414 . S
C3224 C3225 1.374 . S
C3225 H3205 0.950 . S
C3225 C3221 1.385 . S
C3225 C3224 1.374 . S
C3226 C3223 1.499 . S
C3226 C3227 1.373 . S
C3226 C3228 1.389 . S
C3227 H3206 0.950 . S
C3227 C3226 1.373 . S
C3227 C3243 1.377 . S
C3228 C3226 1.389 . S
C3228 C3229 1.524 . S
C3228 C3242 1.377 . S
C3229 C3228 1.524 . S
C3229 C3230 1.397 . S
C3229 C3234 1.411 . S
C3230 H3207 0.950 . S
C3230 C3229 1.397 . S
C3230 C3231 1.334 . S
C3231 H3208 0.950 . S
C3231 C3230 1.334 . S
C3231 C3232 1.287 . S
C3232 C3231 1.287 . S
C3232 C3233 1.524 1_565 S
C3232 H3251 0.913 1_565 S
C3233 H3209 0.950 . S
C3233 C3232 1.524 1_545 S
C3233 C3234 1.397 1_545 S
C3234 H3210 0.922 1_565 S
C3234 C3229 1.411 . S
C3234 C3233 1.397 1_565 S
C3235 H3211 0.951 . S
C3235 C3236 1.366 . S
C3235 C3237 1.388 . S
C3236 C3235 1.366 . S
C3236 C3240 1.367 1_565 S
C3237 H3212 0.951 . S
C3237 C3235 1.388 . S
C3237 C3238 1.366 . S
C3238 C3237 1.366 . S
C3238 C3239 1.414 . S
C3238 C3241 1.499 . S
C3239 H3213 0.936 1_565 S
C3239 C3238 1.414 . S
C3239 C3240 1.346 1_565 S
C3240 H3214 0.997 . S
C3240 C3236 1.367 1_545 S
C3240 C3239 1.346 1_545 S
C3241 C3238 1.499 . S
C3241 C3242 1.373 . S
C3241 C3243 1.389 . S
C3242 H3215 0.950 . S
C3242 C3228 1.377 . S
C3242 C3241 1.373 . S
C3243 C3227 1.377 . S
C3243 C3241 1.389 . S
C3243 C3244 1.524 . S
C3244 C3243 1.524 . S
C3244 C3245 1.397 . S
C3244 C3249 1.363 . S
C3245 H3216 0.950 . S
C3245 C3244 1.397 . S
C3245 C3246 1.334 . S
C3246 H3217 0.950 . S
C3246 C3245 1.334 . S
C3246 C3247 1.287 . S
C3247 C3246 1.287 . S
C3247 C3248 1.524 . S
C3247 H3250 0.999 . S
C3248 H3218 0.950 . S
C3248 C3247 1.524 . S
C3248 C3249 1.415 . S
C3249 H3219 0.950 . S
C3249 C3244 1.363 . S
C3249 C3248 1.415 . S
H3250 C3247 0.999 . S
H3251 C3232 0.913 1_545 S
H3252 C3270 0.951 . S
H3253 C3272 0.951 . S
H3254 C3274 0.950 . S
H3255 C3275 0.950 . S
H3256 C3277 0.950 . S
H3257 C3280 0.950 . S
H3258 C3281 0.950 . S
H3259 C3283 0.950 . S
H3260 C3284 0.950 . S
H3261 C3285 0.951 . S
H3262 C3287 0.951 . S
H3263 C3289 0.950 . S
H3264 C3290 0.950 . S
H3265 C3292 0.950 . S
H3266 C3295 0.950 . S
H3267 C3296 0.950 . S
H3268 C3298 0.950 . S
H3269 C3299 0.950 . S
C3270 H3252 0.951 . S
C3270 C3271 1.366 . S
C3270 C3272 1.388 . S
C3271 C3270 1.366 . S
C3271 C3275 1.385 . S
C3272 H3253 0.951 . S
C3272 C3270 1.388 . S
C3272 C3273 1.366 . S
C3273 C3272 1.366 . S
C3273 C3274 1.414 . S
C3273 C3276 1.499 . S
C3274 H3254 0.950 . S
C3274 C3273 1.414 . S
C3274 C3275 1.374 . S
C3275 H3255 0.950 . S
C3275 C3271 1.385 . S
C3275 C3274 1.374 . S
C3276 C3273 1.499 . S
C3276 C3277 1.373 . S
C3276 C3278 1.389 . S
C3277 H3256 0.950 . S
C3277 C3276 1.373 . S
C3277 C3293 1.377 . S
C3278 C3276 1.389 . S
C3278 C3279 1.524 . S
C3278 C3292 1.377 . S
C3279 C3278 1.524 . S
C3279 C3280 1.397 . S
C3279 C3284 1.363 . S
C3280 H3257 0.950 . S
C3280 C3279 1.397 . S
C3280 C3281 1.334 . S
C3281 H3258 0.950 . S
C3281 C3280 1.334 . S
C3281 C3282 1.287 . S
C3282 C3281 1.287 . S
C3282 C3283 1.524 . S
C3282 H3301 0.913 . S
C3283 H3259 0.950 . S
C3283 C3282 1.524 . S
C3283 C3284 1.415 . S
C3284 H3260 0.950 . S
C3284 C3279 1.363 . S
C3284 C3283 1.415 . S
C3285 H3261 0.951 . S
C3285 C3286 1.366 . S
C3285 C3287 1.388 . S
C3286 C3285 1.366 . S
C3286 C3290 1.385 . S
C3287 H3262 0.951 . S
C3287 C3285 1.388 . S
C3287 C3288 1.366 . S
C3288 C3287 1.366 . S
C3288 C3289 1.414 . S
C3288 C3291 1.499 . S
C3289 H3263 0.950 . S
C3289 C3288 1.414 . S
C3289 C3290 1.374 . S
C3290 H3264 0.950 . S
C3290 C3286 1.385 . S
C3290 C3289 1.374 . S
C3291 C3288 1.499 . S
C3291 C3292 1.373 . S
C3291 C3293 1.389 . S
C3292 H3265 0.950 . S
C3292 C3278 1.377 . S
C3292 C3291 1.373 . S
C3293 C3277 1.377 . S
C3293 C3291 1.389 . S
C3293 C3294 1.524 . S
C3294 C3293 1.524 . S
C3294 C3295 1.397 . S
C3294 C3299 1.363 . S
C3295 H3266 0.950 . S
C3295 C3294 1.397 . S
C3295 C3296 1.334 . S
C3296 H3267 0.950 . S
C3296 C3295 1.334 . S
C3296 C3297 1.287 . S
C3297 C3296 1.287 . S
C3297 C3298 1.524 . S
C3297 H3300 0.999 . S
C3298 H3268 0.950 . S
C3298 C3297 1.524 . S
C3298 C3299 1.415 . S
C3299 H3269 0.950 . S
C3299 C3294 1.363 . S
C3299 C3298 1.415 . S
H3300 C3297 0.999 . S
H3301 C3282 0.913 . S
H3302 C3320 0.951 . S
H3303 C3322 0.951 . S
H3304 C3324 0.950 . S
H3305 C3325 0.950 . S
H3306 C3327 0.950 . S
H3307 C3330 0.950 . S
H3308 C3331 0.950 . S
H3309 C3333 0.950 . S
H3310 C3334 0.950 . S
H3311 C3335 0.951 . S
H3312 C3337 0.951 . S
H3313 C3339 0.950 . S
H3314 C3340 0.950 . S
H3315 C3342 0.950 . S
H3316 C3345 0.950 . S
H3317 C3346 0.950 . S
H3318 C3348 0.950 . S
H3319 C3349 0.950 . S
C3320 H3302 0.951 . S
C3320 C3321 1.366 . S
C3320 C3322 1.388 . S
C3321 C3320 1.366 . S
C3321 C3325 1.385 . S
C3322 H3303 0.951 . S
C3322 C3320 1.388 . S
C3322 C3323 1.366 . S
C3323 C3322 1.366 . S
C3323 C3324 1.414 . S
C3323 C3326 1.499 . S
C3324 H3304 0.950 . S
C3324 C3323 1.414 . S
C3324 C3325 1.374 . S
C3325 H3305 0.950 . S
C3325 C3321 1.385 . S
C3325 C3324 1.374 . S
C3326 C3323 1.499 . S
C3326 C3327 1.373 . S
C3326 C3328 1.389 . S
C3327 H3306 0.950 . S
C3327 C3326 1.373 . S
C3327 C3343 1.377 . S
C3328 C3326 1.389 . S
C3328 C3329 1.524 . S
C3328 C3342 1.377 . S
C3329 C3328 1.524 . S
C3329 C3330 1.397 . S
C3329 C3334 1.363 . S
C3330 H3307 0.950 . S
C3330 C3329 1.397 . S
C3330 C3331 1.334 . S
C3331 H3308 0.950 . S
C3331 C3330 1.334 . S
C3331 C3332 1.287 . S
C3332 C3331 1.287 . S
C3332 C3333 1.524 . S
C3332 H3351 0.913 . S
C3333 H3309 0.950 . S
C3333 C3332 1.524 . S
C3333 C3334 1.415 . S
C3334 H3310 0.950 . S
C3334 C3329 1.363 . S
C3334 C3333 1.415 . S
C3335 H3311 0.951 . S
C3335 C3336 1.366 . S
C3335 C3337 1.388 . S
C3336 C3335 1.366 . S
C3336 C3340 1.385 . S
C3337 H3312 0.951 . S
C3337 C3335 1.388 . S
C3337 C3338 1.366 . S
C3338 C3337 1.366 . S
C3338 C3339 1.414 . S
C3338 C3341 1.499 . S
C3339 H3313 0.950 . S
C3339 C3338 1.414 . S
C3339 C3340 1.374 . S
C3340 H3314 0.950 . S
C3340 C3336 1.385 . S
C3340 C3339 1.374 . S
C3341 C3338 1.499 . S
C3341 C3342 1.373 . S
C3341 C3343 1.389 . S
C3342 H3315 0.950 . S
C3342 C3328 1.377 . S
C3342 C3341 1.373 . S
C3343 C3327 1.377 . S
C3343 C3341 1.389 . S
C3343 C3344 1.524 . S
C3344 C3343 1.524 . S
C3344 C3345 1.397 . S
C3344 C3349 1.363 . S
C3345 H3316 0.950 . S
C3345 C3344 1.397 . S
C3345 C3346 1.334 . S
C3346 H3317 0.950 . S
C3346 C3345 1.334 . S
C3346 C3347 1.287 . S
C3347 C3346 1.287 . S
C3347 C3348 1.524 . S
C3347 H3350 0.999 . S
C3348 H3318 0.950 . S
C3348 C3347 1.524 . S
C3348 C3349 1.415 . S
C3349 H3319 0.950 . S
C3349 C3344 1.363 . S
C3349 C3348 1.415 . S
H3350 C3347 0.999 . S
H3351 C3332 0.913 . S
H3352 C3370 0.951 . S
H3353 C3372 0.951 . S
H3354 C3374 0.950 . S
H3355 C3375 0.950 . S
H3356 C3377 0.950 . S
H3357 C3380 0.950 . S
H3358 C3381 0.950 . S
H3359 C3383 0.950 . S
H3360 C3384 0.950 . S
H3361 C3385 0.951 . S
H3362 C3387 0.951 . S
H3363 C3389 0.950 . S
H3364 C3390 0.950 . S
H3365 C3392 0.950 . S
H3366 C3395 0.950 . S
H3367 C3396 0.950 . S
H3368 C3398 0.950 . S
H3369 C3399 0.950 . S
C3370 H3352 0.951 . S
C3370 C3371 1.366 . S
C3370 C3372 1.388 . S
C3371 C3370 1.366 . S
C3371 C3375 1.385 . S
C3372 H3353 0.951 . S
C3372 C3370 1.388 . S
C3372 C3373 1.366 . S
C3373 C3372 1.366 . S
C3373 C3374 1.414 . S
C3373 C3376 1.499 . S
C3374 H3354 0.950 . S
C3374 C3373 1.414 . S
C3374 C3375 1.374 . S
C3375 H3355 0.950 . S
C3375 C3371 1.385 . S
C3375 C3374 1.374 . S
C3376 C3373 1.499 . S
C3376 C3377 1.373 . S
C3376 C3378 1.389 . S
C3377 H3356 0.950 . S
C3377 C3376 1.373 . S
C3377 C3393 1.377 . S
C3378 C3376 1.389 . S
C3378 C3379 1.524 . S
C3378 C3392 1.377 . S
C3379 C3378 1.524 . S
C3379 C3380 1.397 . S
C3379 C3384 1.363 . S
C3380 H3357 0.950 . S
C3380 C3379 1.397 . S
C3380 C3381 1.334 . S
C3381 H3358 0.950 . S
C3381 C3380 1.334 . S
C3381 C3382 1.287 . S
C3382 C3381 1.287 . S
C3382 C3383 1.524 . S
C3382 H3401 0.913 . S
C3383 H3359 0.950 . S
C3383 C3382 1.524 . S
C3383 C3384 1.415 . S
C3384 H3360 0.950 . S
C3384 C3379 1.363 . S
C3384 C3383 1.415 . S
C3385 H3361 0.951 . S
C3385 C3386 1.366 . S
C3385 C3387 1.388 . S
C3386 C3385 1.366 . S
C3386 C3390 1.385 . S
C3387 H3362 0.951 . S
C3387 C3385 1.388 . S
C3387 C3388 1.366 . S
C3388 C3387 1.366 . S
C3388 C3389 1.414 . S
C3388 C3391 1.499 . S
C3389 H3363 0.950 . S
C3389 C3388 1.414 . S
C3389 C3390 1.374 . S
C3390 H3364 0.950 . S
C3390 C3386 1.385 . S
C3390 C3389 1.374 . S
C3391 C3388 1.499 . S
C3391 C3392 1.373 . S
C3391 C3393 1.389 . S
C3392 H3365 0.950 . S
C3392 C3378 1.377 . S
C3392 C3391 1.373 . S
C3393 C3377 1.377 . S
C3393 C3391 1.389 . S
C3393 C3394 1.524 . S
C3394 C3393 1.524 . S
C3394 C3395 1.397 . S
C3394 C3399 1.363 . S
C3395 H3366 0.950 . S
C3395 C3394 1.397 . S
C3395 C3396 1.334 . S
C3396 H3367 0.950 . S
C3396 C3395 1.334 . S
C3396 C3397 1.287 . S
C3397 C3396 1.287 . S
C3397 C3398 1.524 . S
C3397 H3400 0.999 . S
C3398 H3368 0.950 . S
C3398 C3397 1.524 . S
C3398 C3399 1.415 . S
C3399 H3369 0.950 . S
C3399 C3394 1.363 . S
C3399 C3398 1.415 . S
H3400 C3397 0.999 . S
H3401 C3382 0.913 . S
H3402 C3420 0.951 . S
H3403 C3422 0.951 . S
H3404 C3424 0.950 . S
H3405 C3425 0.950 . S
H3406 C3427 0.950 . S
H3407 C3430 0.950 . S
H3408 C3431 0.950 . S
H3409 C3433 0.950 . S
H3410 C3434 0.950 . S
H3411 C3435 0.951 . S
H3412 C3437 0.951 . S
H3413 C3439 0.950 . S
H3414 C3440 0.950 . S
H3415 C3442 0.950 . S
H3416 C3445 0.950 . S
H3417 C3446 0.950 . S
H3418 C3448 0.950 . S
H3419 C3449 0.950 . S
C3420 H3402 0.951 . S
C3420 C3421 1.366 . S
C3420 C3422 1.388 . S
C3421 C3420 1.366 . S
C3421 C3425 1.385 . S
C3422 H3403 0.951 . S
C3422 C3420 1.388 . S
C3422 C3423 1.366 . S
C3423 C3422 1.366 . S
C3423 C3424 1.414 . S
C3423 C3426 1.499 . S
C3424 H3404 0.950 . S
C3424 C3423 1.414 . S
C3424 C3425 1.374 . S
C3425 H3405 0.950 . S
C3425 C3421 1.385 . S
C3425 C3424 1.374 . S
C3426 C3423 1.499 . S
C3426 C3427 1.373 . S
C3426 C3428 1.389 . S
C3427 H3406 0.950 . S
C3427 C3426 1.373 . S
C3427 C3443 1.377 . S
C3428 C3426 1.389 . S
C3428 C3429 1.524 . S
C3428 C3442 1.377 . S
C3429 C3428 1.524 . S
C3429 C3430 1.397 . S
C3429 C3434 1.363 . S
C3430 H3407 0.950 . S
C3430 C3429 1.397 . S
C3430 C3431 1.334 . S
C3431 H3408 0.950 . S
C3431 C3430 1.334 . S
C3431 C3432 1.287 . S
C3432 C3431 1.287 . S
C3432 C3433 1.524 . S
C3432 H3451 0.913 . S
C3433 H3409 0.950 . S
C3433 C3432 1.524 . S
C3433 C3434 1.415 . S
C3434 H3410 0.950 . S
C3434 C3429 1.363 . S
C3434 C3433 1.415 . S
C3435 H3411 0.951 . S
C3435 C3436 1.366 . S
C3435 C3437 1.388 . S
C3436 C3435 1.366 . S
C3436 C3440 1.385 . S
C3437 H3412 0.951 . S
C3437 C3435 1.388 . S
C3437 C3438 1.366 . S
C3438 C3437 1.366 . S
C3438 C3439 1.414 . S
C3438 C3441 1.499 . S
C3439 H3413 0.950 . S
C3439 C3438 1.414 . S
C3439 C3440 1.374 . S
C3440 H3414 0.950 . S
C3440 C3436 1.385 . S
C3440 C3439 1.374 . S
C3441 C3438 1.499 . S
C3441 C3442 1.373 . S
C3441 C3443 1.389 . S
C3442 H3415 0.950 . S
C3442 C3428 1.377 . S
C3442 C3441 1.373 . S
C3443 C3427 1.377 . S
C3443 C3441 1.389 . S
C3443 C3444 1.524 . S
C3444 C3443 1.524 . S
C3444 C3445 1.397 . S
C3444 C3449 1.363 . S
C3445 H3416 0.950 . S
C3445 C3444 1.397 . S
C3445 C3446 1.334 . S
C3446 H3417 0.950 . S
C3446 C3445 1.334 . S
C3446 C3447 1.287 . S
C3447 C3446 1.287 . S
C3447 C3448 1.524 . S
C3447 H3450 0.999 . S
C3448 H3418 0.950 . S
C3448 C3447 1.524 . S
C3448 C3449 1.415 . S
C3449 H3419 0.950 . S
C3449 C3444 1.363 . S
C3449 C3448 1.415 . S
H3450 C3447 0.999 . S
H3451 C3432 0.913 . S
H3452 C3470 0.951 . S
H3453 C3472 0.951 . S
H3454 C3474 0.927 1_655 S
H3455 C3475 0.950 1_655 S
H3456 C3477 0.950 . S
H3457 C3480 0.944 1_556 S
H3458 C3481 0.950 . S
H3459 C3483 0.950 . S
H3460 C3484 0.950 . S
H3461 C3485 0.951 . S
H3462 C3487 0.961 . S
H3463 C3489 0.950 . S
H3464 C3490 0.950 . S
H3465 C3492 0.950 1_554 S
H3466 C3495 0.950 . S
H3467 C3496 0.950 . S
H3468 C3498 0.950 . S
H3469 C3499 0.950 . S
C3470 H3452 0.951 . S
C3470 C3471 1.366 . S
C3470 C3472 1.388 . S
C3471 C3470 1.366 . S
C3471 C3475 1.385 . S
C3472 H3453 0.951 . S
C3472 C3470 1.388 . S
C3472 C3473 1.366 . S
C3473 C3472 1.366 . S
C3473 C3474 1.414 . S
C3473 C3476 1.499 . S
C3474 H3454 0.927 1_455 S
C3474 C3473 1.414 . S
C3474 C3475 1.374 . S
C3475 H3455 0.950 1_455 S
C3475 C3471 1.385 . S
C3475 C3474 1.374 . S
C3476 C3473 1.499 . S
C3476 C3477 1.373 . S
C3476 C3478 1.389 . S
C3477 H3456 0.950 . S
C3477 C3476 1.373 . S
C3477 C3493 1.377 . S
C3478 C3476 1.389 . S
C3478 C3479 1.524 . S
C3478 C3492 1.377 . S
C3479 C3478 1.524 . S
C3479 C3480 1.391 1_556 S
C3479 C3484 1.363 1_556 S
C3480 H3457 0.944 1_554 S
C3480 C3479 1.391 1_554 S
C3480 C3481 1.345 . S
C3481 H3458 0.950 . S
C3481 C3480 1.345 . S
C3481 C3482 1.287 . S
C3482 C3481 1.287 . S
C3482 C3483 1.524 . S
C3482 H3501 0.913 . S
C3483 H3459 0.950 . S
C3483 C3482 1.524 . S
C3483 C3484 1.415 . S
C3484 H3460 0.950 . S
C3484 C3479 1.363 1_554 S
C3484 C3483 1.415 . S
C3485 H3461 0.951 . S
C3485 C3486 1.366 . S
C3485 C3487 1.372 1_554 S
C3486 C3485 1.366 . S
C3486 C3490 1.385 . S
C3487 H3462 0.961 . S
C3487 C3485 1.372 1_556 S
C3487 C3488 1.373 . S
C3488 C3487 1.373 . S
C3488 C3489 1.414 1_556 S
C3488 C3491 1.499 . S
C3489 H3463 0.950 . S
C3489 C3488 1.414 1_554 S
C3489 C3490 1.374 . S
C3490 H3464 0.950 . S
C3490 C3486 1.385 . S
C3490 C3489 1.374 . S
C3491 C3488 1.499 . S
C3491 C3492 1.373 . S
C3491 C3493 1.389 . S
C3492 H3465 0.950 1_556 S
C3492 C3478 1.377 . S
C3492 C3491 1.373 . S
C3493 C3477 1.377 . S
C3493 C3491 1.389 . S
C3493 C3494 1.524 . S
C3494 C3493 1.524 . S
C3494 C3495 1.397 . S
C3494 C3499 1.363 1_455 S
C3495 H3466 0.950 . S
C3495 C3494 1.397 . S
C3495 C3496 1.334 . S
C3496 H3467 0.950 . S
C3496 C3495 1.334 . S
C3496 C3497 1.233 1_455 S
C3497 C3496 1.233 1_655 S
C3497 C3498 1.558 . S
C3497 H3500 1.032 . S
C3498 H3468 0.950 . S
C3498 C3497 1.558 . S
C3498 C3499 1.415 . S
C3499 H3469 0.950 . S
C3499 C3494 1.363 1_655 S
C3499 C3498 1.415 . S
H3500 C3497 1.032 . S
H3501 C3482 0.913 . S
H3502 C3520 0.951 . S
H3503 C3522 0.951 . S
H3504 C3524 0.950 . S
H3505 C3525 0.950 1_655 S
H3506 C3527 0.950 . S
H3507 C3530 0.950 . S
H3508 C3531 0.950 . S
H3509 C3533 0.950 . S
H3510 C3534 0.950 . S
H3511 C3535 0.951 . S
H3512 C3537 0.951 . S
H3513 C3539 0.950 . S
H3514 C3540 0.950 . S
H3515 C3542 0.950 . S
H3516 C3545 0.950 . S
H3517 C3546 0.950 . S
H3518 C3548 0.950 . S
H3519 C3549 0.950 . S
C3520 H3502 0.951 . S
C3520 C3521 1.366 . S
C3520 C3522 1.388 . S
C3521 C3520 1.366 . S
C3521 C3525 1.385 . S
C3522 H3503 0.951 . S
C3522 C3520 1.388 . S
C3522 C3523 1.366 1_455 S
C3523 C3522 1.366 1_655 S
C3523 C3524 1.414 . S
C3523 C3526 1.499 . S
C3524 H3504 0.950 . S
C3524 C3523 1.414 . S
C3524 C3525 1.374 1_655 S
C3525 H3505 0.950 1_455 S
C3525 C3521 1.385 . S
C3525 C3524 1.374 1_455 S
C3526 C3523 1.499 . S
C3526 C3527 1.373 . S
C3526 C3528 1.389 . S
C3527 H3506 0.950 . S
C3527 C3526 1.373 . S
C3527 C3543 1.377 . S
C3528 C3526 1.389 . S
C3528 C3529 1.524 . S
C3528 C3542 1.377 . S
C3529 C3528 1.524 . S
C3529 C3530 1.397 . S
C3529 C3534 1.363 . S
C3530 H3507 0.950 . S
C3530 C3529 1.397 . S
C3530 C3531 1.334 1_655 S
C3531 H3508 0.950 . S
C3531 C3530 1.334 1_455 S
C3531 C3532 1.287 . S
C3532 C3531 1.287 . S
C3532 C3533 1.524 . S
C3532 H3551 0.913 . S
C3533 H3509 0.950 . S
C3533 C3532 1.524 . S
C3533 C3534 1.415 1_455 S
C3534 H3510 0.950 . S
C3534 C3529 1.363 . S
C3534 C3533 1.415 1_655 S
C3535 H3511 0.951 . S
C3535 C3536 1.366 . S
C3535 C3537 1.388 . S
C3536 C3535 1.366 . S
C3536 C3540 1.385 . S
C3537 H3512 0.951 . S
C3537 C3535 1.388 . S
C3537 C3538 1.366 . S
C3538 C3537 1.366 . S
C3538 C3539 1.414 . S
C3538 C3541 1.499 . S
C3539 H3513 0.950 . S
C3539 C3538 1.414 . S
C3539 C3540 1.374 . S
C3540 H3514 0.950 . S
C3540 C3536 1.385 . S
C3540 C3539 1.374 . S
C3541 C3538 1.499 . S
C3541 C3542 1.373 . S
C3541 C3543 1.389 . S
C3542 H3515 0.950 . S
C3542 C3528 1.377 . S
C3542 C3541 1.373 . S
C3543 C3527 1.377 . S
C3543 C3541 1.389 . S
C3543 C3544 1.524 . S
C3544 C3543 1.524 . S
C3544 C3545 1.397 . S
C3544 C3549 1.363 . S
C3545 H3516 0.950 . S
C3545 C3544 1.397 . S
C3545 C3546 1.334 . S
C3546 H3517 0.950 . S
C3546 C3545 1.334 . S
C3546 C3547 1.287 . S
C3547 C3546 1.287 . S
C3547 C3548 1.524 . S
C3547 H3550 0.999 . S
C3548 H3518 0.950 . S
C3548 C3547 1.524 . S
C3548 C3549 1.415 . S
C3549 H3519 0.950 . S
C3549 C3544 1.363 . S
C3549 C3548 1.415 . S
H3550 C3547 0.999 . S
H3551 C3532 0.913 . S
H3552 C3570 0.951 . S
H3553 C3572 0.951 . S
H3554 C3574 0.950 . S
H3555 C3575 0.950 . S
H3556 C3577 0.950 . S
H3557 C3580 0.950 . S
H3558 C3581 0.950 . S
H3559 C3583 0.950 . S
H3560 C3584 0.950 . S
H3561 C3585 0.951 . S
H3562 C3587 0.951 . S
H3563 C3589 0.950 . S
H3564 C3590 0.950 . S
H3565 C3592 0.950 . S
H3566 C3595 0.950 . S
H3567 C3596 0.950 . S
H3568 C3598 0.950 . S
H3569 C3599 0.950 . S
C3570 H3552 0.951 . S
C3570 C3571 1.366 . S
C3570 C3572 1.388 . S
C3571 C3570 1.366 . S
C3571 C3575 1.385 . S
C3572 H3553 0.951 . S
C3572 C3570 1.388 . S
C3572 C3573 1.366 . S
C3573 C3572 1.366 . S
C3573 C3574 1.414 . S
C3573 C3576 1.499 . S
C3574 H3554 0.950 . S
C3574 C3573 1.414 . S
C3574 C3575 1.374 . S
C3575 H3555 0.950 . S
C3575 C3571 1.385 . S
C3575 C3574 1.374 . S
C3576 C3573 1.499 . S
C3576 C3577 1.373 . S
C3576 C3578 1.389 . S
C3577 H3556 0.950 . S
C3577 C3576 1.373 . S
C3577 C3593 1.377 . S
C3578 C3576 1.389 . S
C3578 C3579 1.524 . S
C3578 C3592 1.377 . S
C3579 C3578 1.524 . S
C3579 C3580 1.397 . S
C3579 C3584 1.363 . S
C3580 H3557 0.950 . S
C3580 C3579 1.397 . S
C3580 C3581 1.334 . S
C3581 H3558 0.950 . S
C3581 C3580 1.334 . S
C3581 C3582 1.287 . S
C3582 C3581 1.287 . S
C3582 C3583 1.524 . S
C3582 H3601 0.913 . S
C3583 H3559 0.950 . S
C3583 C3582 1.524 . S
C3583 C3584 1.415 . S
C3584 H3560 0.950 . S
C3584 C3579 1.363 . S
C3584 C3583 1.415 . S
C3585 H3561 0.951 . S
C3585 C3586 1.366 . S
C3585 C3587 1.388 . S
C3586 C3585 1.366 . S
C3586 C3590 1.385 . S
C3587 H3562 0.951 . S
C3587 C3585 1.388 . S
C3587 C3588 1.366 . S
C3588 C3587 1.366 . S
C3588 C3589 1.414 . S
C3588 C3591 1.499 . S
C3589 H3563 0.950 . S
C3589 C3588 1.414 . S
C3589 C3590 1.374 . S
C3590 H3564 0.950 . S
C3590 C3586 1.385 . S
C3590 C3589 1.374 . S
C3591 C3588 1.499 . S
C3591 C3592 1.373 . S
C3591 C3593 1.389 . S
C3592 H3565 0.950 . S
C3592 C3578 1.377 . S
C3592 C3591 1.373 . S
C3593 C3577 1.377 . S
C3593 C3591 1.389 . S
C3593 C3594 1.524 . S
C3594 C3593 1.524 . S
C3594 C3595 1.397 . S
C3594 C3599 1.363 . S
C3595 H3566 0.950 . S
C3595 C3594 1.397 . S
C3595 C3596 1.334 . S
C3596 H3567 0.950 . S
C3596 C3595 1.334 . S
C3596 C3597 1.287 . S
C3597 C3596 1.287 . S
C3597 C3598 1.524 . S
C3597 H3600 0.999 . S
C3598 H3568 0.950 . S
C3598 C3597 1.524 . S
C3598 C3599 1.415 . S
C3599 H3569 0.950 . S
C3599 C3594 1.363 . S
C3599 C3598 1.415 . S
H3600 C3597 0.999 . S
H3601 C3582 0.913 . S
H3602 C3620 0.951 . S
H3603 C3622 0.951 . S
H3604 C3624 0.950 . S
H3605 C3625 0.950 . S
H3606 C3627 0.950 . S
H3607 C3630 0.950 . S
H3608 C3631 0.950 . S
H3609 C3633 0.950 . S
H3610 C3634 0.950 . S
H3611 C3635 0.951 . S
H3612 C3637 0.951 . S
H3613 C3639 0.950 . S
H3614 C3640 0.950 . S
H3615 C3642 0.950 . S
H3616 C3645 0.950 . S
H3617 C3646 0.950 . S
H3618 C3648 0.950 . S
H3619 C3649 0.950 . S
C3620 H3602 0.951 . S
C3620 C3621 1.366 . S
C3620 C3622 1.388 . S
C3621 C3620 1.366 . S
C3621 C3625 1.385 . S
C3622 H3603 0.951 . S
C3622 C3620 1.388 . S
C3622 C3623 1.366 . S
C3623 C3622 1.366 . S
C3623 C3624 1.414 . S
C3623 C3626 1.499 . S
C3624 H3604 0.950 . S
C3624 C3623 1.414 . S
C3624 C3625 1.374 . S
C3625 H3605 0.950 . S
C3625 C3621 1.385 . S
C3625 C3624 1.374 . S
C3626 C3623 1.499 . S
C3626 C3627 1.373 . S
C3626 C3628 1.389 . S
C3627 H3606 0.950 . S
C3627 C3626 1.373 . S
C3627 C3643 1.377 . S
C3628 C3626 1.389 . S
C3628 C3629 1.524 . S
C3628 C3642 1.377 . S
C3629 C3628 1.524 . S
C3629 C3630 1.397 . S
C3629 C3634 1.363 . S
C3630 H3607 0.950 . S
C3630 C3629 1.397 . S
C3630 C3631 1.334 . S
C3631 H3608 0.950 . S
C3631 C3630 1.334 . S
C3631 C3632 1.287 . S
C3632 C3631 1.287 . S
C3632 C3633 1.524 . S
C3632 H3651 0.913 . S
C3633 H3609 0.950 . S
C3633 C3632 1.524 . S
C3633 C3634 1.415 . S
C3634 H3610 0.950 . S
C3634 C3629 1.363 . S
C3634 C3633 1.415 . S
C3635 H3611 0.951 . S
C3635 C3636 1.366 . S
C3635 C3637 1.388 . S
C3636 C3635 1.366 . S
C3636 C3640 1.385 . S
C3637 H3612 0.951 . S
C3637 C3635 1.388 . S
C3637 C3638 1.366 . S
C3638 C3637 1.366 . S
C3638 C3639 1.414 . S
C3638 C3641 1.499 . S
C3639 H3613 0.950 . S
C3639 C3638 1.414 . S
C3639 C3640 1.374 . S
C3640 H3614 0.950 . S
C3640 C3636 1.385 . S
C3640 C3639 1.374 . S
C3641 C3638 1.499 . S
C3641 C3642 1.373 . S
C3641 C3643 1.389 . S
C3642 H3615 0.950 . S
C3642 C3628 1.377 . S
C3642 C3641 1.373 . S
C3643 C3627 1.377 . S
C3643 C3641 1.389 . S
C3643 C3644 1.524 . S
C3644 C3643 1.524 . S
C3644 C3645 1.397 . S
C3644 C3649 1.363 . S
C3645 H3616 0.950 . S
C3645 C3644 1.397 . S
C3645 C3646 1.334 . S
C3646 H3617 0.950 . S
C3646 C3645 1.334 . S
C3646 C3647 1.287 . S
C3647 C3646 1.287 . S
C3647 C3648 1.524 . S
C3647 H3650 0.999 . S
C3648 H3618 0.950 . S
C3648 C3647 1.524 . S
C3648 C3649 1.415 . S
C3649 H3619 0.950 . S
C3649 C3644 1.363 . S
C3649 C3648 1.415 . S
H3650 C3647 0.999 . S
H3651 C3632 0.913 . S
H3652 C3670 0.951 . S
H3653 C3672 0.951 . S
H3654 C3674 0.950 . S
H3655 C3675 0.950 . S
H3656 C3677 0.950 . S
H3657 C3680 0.950 . S
H3658 C3681 0.950 . S
H3659 C3683 0.950 . S
H3660 C3684 0.950 . S
H3661 C3685 0.951 . S
H3662 C3687 0.951 . S
H3663 C3689 0.950 . S
H3664 C3690 0.950 . S
H3665 C3692 0.950 . S
H3666 C3695 0.950 . S
H3667 C3696 0.950 1_655 S
H3668 C3698 0.950 . S
H3669 C3699 0.950 . S
C3670 H3652 0.951 . S
C3670 C3671 1.366 . S
C3670 C3672 1.388 . S
C3671 C3670 1.366 . S
C3671 C3675 1.385 . S
C3672 H3653 0.951 . S
C3672 C3670 1.388 . S
C3672 C3673 1.366 . S
C3673 C3672 1.366 . S
C3673 C3674 1.414 . S
C3673 C3676 1.499 . S
C3674 H3654 0.950 . S
C3674 C3673 1.414 . S
C3674 C3675 1.374 . S
C3675 H3655 0.950 . S
C3675 C3671 1.385 . S
C3675 C3674 1.374 . S
C3676 C3673 1.499 . S
C3676 C3677 1.373 . S
C3676 C3678 1.389 . S
C3677 H3656 0.950 . S
C3677 C3676 1.373 . S
C3677 C3693 1.377 . S
C3678 C3676 1.389 . S
C3678 C3679 1.524 . S
C3678 C3692 1.377 . S
C3679 C3678 1.524 . S
C3679 C3680 1.397 . S
C3679 C3684 1.363 . S
C3680 H3657 0.950 . S
C3680 C3679 1.397 . S
C3680 C3681 1.334 . S
C3681 H3658 0.950 . S
C3681 C3680 1.334 . S
C3681 C3682 1.287 . S
C3682 C3681 1.287 . S
C3682 C3683 1.524 . S
C3682 H3701 0.913 . S
C3683 H3659 0.950 . S
C3683 C3682 1.524 . S
C3683 C3684 1.415 . S
C3684 H3660 0.950 . S
C3684 C3679 1.363 . S
C3684 C3683 1.415 . S
C3685 H3661 0.951 . S
C3685 C3686 1.366 . S
C3685 C3687 1.388 . S
C3686 C3685 1.366 . S
C3686 C3690 1.385 . S
C3687 H3662 0.951 . S
C3687 C3685 1.388 . S
C3687 C3688 1.366 . S
C3688 C3687 1.366 . S
C3688 C3689 1.414 . S
C3688 C3691 1.499 . S
C3689 H3663 0.950 . S
C3689 C3688 1.414 . S
C3689 C3690 1.374 . S
C3690 H3664 0.950 . S
C3690 C3686 1.385 . S
C3690 C3689 1.374 . S
C3691 C3688 1.499 . S
C3691 C3692 1.373 . S
C3691 C3693 1.389 . S
C3692 H3665 0.950 . S
C3692 C3678 1.377 . S
C3692 C3691 1.373 . S
C3693 C3677 1.377 . S
C3693 C3691 1.389 . S
C3693 C3694 1.524 . S
C3694 C3693 1.524 . S
C3694 C3695 1.397 . S
C3694 C3699 1.363 . S
C3695 H3666 0.950 . S
C3695 C3694 1.397 . S
C3695 C3696 1.334 . S
C3696 H3667 0.950 1_455 S
C3696 C3695 1.334 . S
C3696 C3697 1.287 . S
C3697 C3696 1.287 . S
C3697 C3698 1.524 . S
C3697 H3700 0.999 . S
C3698 H3668 0.950 . S
C3698 C3697 1.524 . S
C3698 C3699 1.415 . S
C3699 H3669 0.950 . S
C3699 C3694 1.363 . S
C3699 C3698 1.415 . S
H3700 C3697 0.999 . S
H3701 C3682 0.913 . S
H3702 C3720 0.951 . S
H3703 C3722 0.951 . S
H3704 C3724 0.950 . S
H3705 C3725 0.950 . S
H3706 C3727 0.950 . S
H3707 C3730 0.950 . S
H3708 C3731 0.950 . S
H3709 C3733 0.950 . S
H3710 C3734 0.950 . S
H3711 C3735 0.951 . S
H3712 C3737 0.951 . S
H3713 C3739 0.950 . S
H3714 C3740 0.950 . S
H3715 C3742 0.950 . S
H3716 C3745 0.950 . S
H3717 C3746 0.950 . S
H3718 C3748 0.950 . S
H3719 C3749 0.950 . S
C3720 H3702 0.951 . S
C3720 C3721 1.366 . S
C3720 C3722 1.388 . S
C3721 C3720 1.366 . S
C3721 C3725 1.385 . S
C3722 H3703 0.951 . S
C3722 C3720 1.388 . S
C3722 C3723 1.366 . S
C3723 C3722 1.366 . S
C3723 C3724 1.414 . S
C3723 C3726 1.499 . S
C3724 H3704 0.950 . S
C3724 C3723 1.414 . S
C3724 C3725 1.374 . S
C3725 H3705 0.950 . S
C3725 C3721 1.385 . S
C3725 C3724 1.374 . S
C3726 C3723 1.499 . S
C3726 C3727 1.373 . S
C3726 C3728 1.389 . S
C3727 H3706 0.950 . S
C3727 C3726 1.373 . S
C3727 C3743 1.377 . S
C3728 C3726 1.389 . S
C3728 C3729 1.524 . S
C3728 C3742 1.377 . S
C3729 C3728 1.524 . S
C3729 C3730 1.397 . S
C3729 C3734 1.363 . S
C3730 H3707 0.950 . S
C3730 C3729 1.397 . S
C3730 C3731 1.334 . S
C3731 H3708 0.950 . S
C3731 C3730 1.334 . S
C3731 C3732 1.287 . S
C3732 C3731 1.287 . S
C3732 C3733 1.524 . S
C3732 H3751 0.913 . S
C3733 H3709 0.950 . S
C3733 C3732 1.524 . S
C3733 C3734 1.415 . S
C3734 H3710 0.950 . S
C3734 C3729 1.363 . S
C3734 C3733 1.415 . S
C3735 H3711 0.951 . S
C3735 C3736 1.366 . S
C3735 C3737 1.388 . S
C3736 C3735 1.366 . S
C3736 C3740 1.385 . S
C3737 H3712 0.951 . S
C3737 C3735 1.388 . S
C3737 C3738 1.366 . S
C3738 C3737 1.366 . S
C3738 C3739 1.414 . S
C3738 C3741 1.499 . S
C3739 H3713 0.950 . S
C3739 C3738 1.414 . S
C3739 C3740 1.374 . S
C3740 H3714 0.950 . S
C3740 C3736 1.385 . S
C3740 C3739 1.374 . S
C3741 C3738 1.499 . S
C3741 C3742 1.373 . S
C3741 C3743 1.389 . S
C3742 H3715 0.950 . S
C3742 C3728 1.377 . S
C3742 C3741 1.373 . S
C3743 C3727 1.377 . S
C3743 C3741 1.389 . S
C3743 C3744 1.524 . S
C3744 C3743 1.524 . S
C3744 C3745 1.397 . S
C3744 C3749 1.363 . S
C3745 H3716 0.950 . S
C3745 C3744 1.397 . S
C3745 C3746 1.334 . S
C3746 H3717 0.950 . S
C3746 C3745 1.334 . S
C3746 C3747 1.287 . S
C3747 C3746 1.287 . S
C3747 C3748 1.524 . S
C3747 H3750 0.999 . S
C3748 H3718 0.950 . S
C3748 C3747 1.524 . S
C3748 C3749 1.415 . S
C3749 H3719 0.950 . S
C3749 C3744 1.363 . S
C3749 C3748 1.415 . S
H3750 C3747 0.999 . S
H3751 C3732 0.913 . S
H3752 C3770 0.951 . S
H3753 C3772 0.951 . S
H3754 C3774 0.950 . S
H3755 C3775 0.950 . S
H3756 C3777 0.950 . S
H3757 C3780 0.950 . S
H3758 C3781 0.950 . S
H3759 C3783 0.950 . S
H3760 C3784 0.950 . S
H3761 C3785 0.951 . S
H3762 C3787 0.951 . S
H3763 C3789 0.950 . S
H3764 C3790 0.950 . S
H3765 C3792 0.950 . S
H3766 C3795 0.950 . S
H3767 C3796 0.950 . S
H3768 C3798 0.950 . S
H3769 C3799 0.950 . S
C3770 H3752 0.951 . S
C3770 C3771 1.366 . S
C3770 C3772 1.388 . S
C3771 C3770 1.366 . S
C3771 C3775 1.385 . S
C3772 H3753 0.951 . S
C3772 C3770 1.388 . S
C3772 C3773 1.366 . S
C3773 C3772 1.366 . S
C3773 C3774 1.414 . S
C3773 C3776 1.499 . S
C3774 H3754 0.950 . S
C3774 C3773 1.414 . S
C3774 C3775 1.374 . S
C3775 H3755 0.950 . S
C3775 C3771 1.385 . S
C3775 C3774 1.374 . S
C3776 C3773 1.499 . S
C3776 C3777 1.373 . S
C3776 C3778 1.389 . S
C3777 H3756 0.950 . S
C3777 C3776 1.373 . S
C3777 C3793 1.377 . S
C3778 C3776 1.389 . S
C3778 C3779 1.524 . S
C3778 C3792 1.377 . S
C3779 C3778 1.524 . S
C3779 C3780 1.397 . S
C3779 C3784 1.363 . S
C3780 H3757 0.950 . S
C3780 C3779 1.397 . S
C3780 C3781 1.334 . S
C3781 H3758 0.950 . S
C3781 C3780 1.334 . S
C3781 C3782 1.287 . S
C3782 C3781 1.287 . S
C3782 C3783 1.524 . S
C3782 H3801 0.913 . S
C3783 H3759 0.950 . S
C3783 C3782 1.524 . S
C3783 C3784 1.415 . S
C3784 H3760 0.950 . S
C3784 C3779 1.363 . S
C3784 C3783 1.415 . S
C3785 H3761 0.951 . S
C3785 C3786 1.366 . S
C3785 C3787 1.388 . S
C3786 C3785 1.366 . S
C3786 C3790 1.385 . S
C3787 H3762 0.951 . S
C3787 C3785 1.388 . S
C3787 C3788 1.366 . S
C3788 C3787 1.366 . S
C3788 C3789 1.414 . S
C3788 C3791 1.499 . S
C3789 H3763 0.950 . S
C3789 C3788 1.414 . S
C3789 C3790 1.374 . S
C3790 H3764 0.950 . S
C3790 C3786 1.385 . S
C3790 C3789 1.374 . S
C3791 C3788 1.499 . S
C3791 C3792 1.373 . S
C3791 C3793 1.389 . S
C3792 H3765 0.950 . S
C3792 C3778 1.377 . S
C3792 C3791 1.373 . S
C3793 C3777 1.377 . S
C3793 C3791 1.389 . S
C3793 C3794 1.524 . S
C3794 C3793 1.524 . S
C3794 C3795 1.397 . S
C3794 C3799 1.363 . S
C3795 H3766 0.950 . S
C3795 C3794 1.397 . S
C3795 C3796 1.334 . S
C3796 H3767 0.950 . S
C3796 C3795 1.334 . S
C3796 C3797 1.287 . S
C3797 C3796 1.287 . S
C3797 C3798 1.524 . S
C3797 H3800 0.999 . S
C3798 H3768 0.950 . S
C3798 C3797 1.524 . S
C3798 C3799 1.415 . S
C3799 H3769 0.950 . S
C3799 C3794 1.363 . S
C3799 C3798 1.415 . S
H3800 C3797 0.999 . S
H3801 C3782 0.913 . S
H3802 C3820 0.951 . S
H3803 C3822 0.951 . S
H3804 C3824 0.950 . S
H3805 C3825 0.950 . S
H3806 C3827 0.950 . S
H3807 C3830 0.950 . S
H3808 C3831 0.950 . S
H3809 C3833 0.950 . S
H3810 C3834 0.950 . S
H3811 C3835 0.951 . S
H3812 C3837 0.951 . S
H3813 C3839 0.950 . S
H3814 C3840 0.950 . S
H3815 C3842 0.950 . S
H3816 C3845 0.950 . S
H3817 C3846 0.950 . S
H3818 C3848 0.950 . S
H3819 C3849 0.950 . S
C3820 H3802 0.951 . S
C3820 C3821 1.366 . S
C3820 C3822 1.388 . S
C3821 C3820 1.366 . S
C3821 C3825 1.385 . S
C3822 H3803 0.951 . S
C3822 C3820 1.388 . S
C3822 C3823 1.366 . S
C3823 C3822 1.366 . S
C3823 C3824 1.414 . S
C3823 C3826 1.499 . S
C3824 H3804 0.950 . S
C3824 C3823 1.414 . S
C3824 C3825 1.374 . S
C3825 H3805 0.950 . S
C3825 C3821 1.385 . S
C3825 C3824 1.374 . S
C3826 C3823 1.499 . S
C3826 C3827 1.373 . S
C3826 C3828 1.389 . S
C3827 H3806 0.950 . S
C3827 C3826 1.373 . S
C3827 C3843 1.377 . S
C3828 C3826 1.389 . S
C3828 C3829 1.524 . S
C3828 C3842 1.377 . S
C3829 C3828 1.524 . S
C3829 C3830 1.397 . S
C3829 C3834 1.363 . S
C3830 H3807 0.950 . S
C3830 C3829 1.397 . S
C3830 C3831 1.334 . S
C3831 H3808 0.950 . S
C3831 C3830 1.334 . S
C3831 C3832 1.287 . S
C3832 C3831 1.287 . S
C3832 C3833 1.524 . S
C3832 H3851 0.913 . S
C3833 H3809 0.950 . S
C3833 C3832 1.524 . S
C3833 C3834 1.415 . S
C3834 H3810 0.950 . S
C3834 C3829 1.363 . S
C3834 C3833 1.415 . S
C3835 H3811 0.951 . S
C3835 C3836 1.366 . S
C3835 C3837 1.388 . S
C3836 C3835 1.366 . S
C3836 C3840 1.385 . S
C3837 H3812 0.951 . S
C3837 C3835 1.388 . S
C3837 C3838 1.366 . S
C3838 C3837 1.366 . S
C3838 C3839 1.414 . S
C3838 C3841 1.499 . S
C3839 H3813 0.950 . S
C3839 C3838 1.414 . S
C3839 C3840 1.374 . S
C3840 H3814 0.950 . S
C3840 C3836 1.385 . S
C3840 C3839 1.374 . S
C3841 C3838 1.499 . S
C3841 C3842 1.373 . S
C3841 C3843 1.389 . S
C3842 H3815 0.950 . S
C3842 C3828 1.377 . S
C3842 C3841 1.373 . S
C3843 C3827 1.377 . S
C3843 C3841 1.389 . S
C3843 C3844 1.524 . S
C3844 C3843 1.524 . S
C3844 C3845 1.397 . S
C3844 C3849 1.363 . S
C3845 H3816 0.950 . S
C3845 C3844 1.397 . S
C3845 C3846 1.334 . S
C3846 H3817 0.950 . S
C3846 C3845 1.334 . S
C3846 C3847 1.287 . S
C3847 C3846 1.287 . S
C3847 C3848 1.524 . S
C3847 H3850 0.999 . S
C3848 H3818 0.950 . S
C3848 C3847 1.524 . S
C3848 C3849 1.415 . S
C3849 H3819 0.950 . S
C3849 C3844 1.363 . S
C3849 C3848 1.415 . S
H3850 C3847 0.999 . S
H3851 C3832 0.913 . S
H3852 C3870 0.951 . S
H3853 C3872 0.951 . S
H3854 C3874 0.950 . S
H3855 C3875 0.950 . S
H3856 C3877 0.950 . S
H3857 C3880 0.950 . S
H3858 C3881 0.950 . S
H3859 C3883 0.950 . S
H3860 C3884 0.950 . S
H3861 C3885 0.951 . S
H3862 C3887 0.951 . S
H3863 C3889 0.950 . S
H3864 C3890 0.950 . S
H3865 C3892 0.950 . S
H3866 C3895 0.950 . S
H3867 C3896 0.950 . S
H3868 C3898 0.950 . S
H3869 C3899 0.950 . S
C3870 H3852 0.951 . S
C3870 C3871 1.366 . S
C3870 C3872 1.388 . S
C3871 C3870 1.366 . S
C3871 C3875 1.385 . S
C3872 H3853 0.951 . S
C3872 C3870 1.388 . S
C3872 C3873 1.366 . S
C3873 C3872 1.366 . S
C3873 C3874 1.414 . S
C3873 C3876 1.499 . S
C3874 H3854 0.950 . S
C3874 C3873 1.414 . S
C3874 C3875 1.374 . S
C3875 H3855 0.950 . S
C3875 C3871 1.385 . S
C3875 C3874 1.374 . S
C3876 C3873 1.499 . S
C3876 C3877 1.373 . S
C3876 C3878 1.389 . S
C3877 H3856 0.950 . S
C3877 C3876 1.373 . S
C3877 C3893 1.377 . S
C3878 C3876 1.389 . S
C3878 C3879 1.524 . S
C3878 C3892 1.377 . S
C3879 C3878 1.524 . S
C3879 C3880 1.397 . S
C3879 C3884 1.363 . S
C3880 H3857 0.950 . S
C3880 C3879 1.397 . S
C3880 C3881 1.334 . S
C3881 H3858 0.950 . S
C3881 C3880 1.334 . S
C3881 C3882 1.287 . S
C3882 C3881 1.287 . S
C3882 C3883 1.524 . S
C3882 H3901 0.913 . S
C3883 H3859 0.950 . S
C3883 C3882 1.524 . S
C3883 C3884 1.415 . S
C3884 H3860 0.950 . S
C3884 C3879 1.363 . S
C3884 C3883 1.415 . S
C3885 H3861 0.951 . S
C3885 C3886 1.366 . S
C3885 C3887 1.388 . S
C3886 C3885 1.366 . S
C3886 C3890 1.385 . S
C3887 H3862 0.951 . S
C3887 C3885 1.388 . S
C3887 C3888 1.366 . S
C3888 C3887 1.366 . S
C3888 C3889 1.414 . S
C3888 C3891 1.499 . S
C3889 H3863 0.950 . S
C3889 C3888 1.414 . S
C3889 C3890 1.374 . S
C3890 H3864 0.950 . S
C3890 C3886 1.385 . S
C3890 C3889 1.374 . S
C3891 C3888 1.499 . S
C3891 C3892 1.373 . S
C3891 C3893 1.389 . S
C3892 H3865 0.950 . S
C3892 C3878 1.377 . S
C3892 C3891 1.373 . S
C3893 C3877 1.377 . S
C3893 C3891 1.389 . S
C3893 C3894 1.524 . S
C3894 C3893 1.524 . S
C3894 C3895 1.397 . S
C3894 C3899 1.363 . S
C3895 H3866 0.950 . S
C3895 C3894 1.397 . S
C3895 C3896 1.334 . S
C3896 H3867 0.950 . S
C3896 C3895 1.334 . S
C3896 C3897 1.287 . S
C3897 C3896 1.287 . S
C3897 C3898 1.524 . S
C3897 H3900 0.999 . S
C3898 H3868 0.950 . S
C3898 C3897 1.524 . S
C3898 C3899 1.415 . S
C3899 H3869 0.950 . S
C3899 C3894 1.363 . S
C3899 C3898 1.415 . S
H3900 C3897 0.999 . S
H3901 C3882 0.913 . S
H3902 C3920 0.951 . S
H3903 C3922 0.951 . S
H3904 C3924 0.950 . S
H3905 C3925 0.950 . S
H3906 C3927 0.950 . S
H3907 C3930 0.950 . S
H3908 C3931 0.950 . S
H3909 C3933 0.950 . S
H3910 C3934 0.950 . S
H3911 C3935 0.951 . S
H3912 C3937 0.951 . S
H3913 C3939 0.950 . S
H3914 C3940 0.950 . S
H3915 C3942 0.950 . S
H3916 C3945 0.950 . S
H3917 C3946 0.950 . S
H3918 C3948 0.950 . S
H3919 C3949 0.950 . S
C3920 H3902 0.951 . S
C3920 C3921 1.366 . S
C3920 C3922 1.388 . S
C3921 C3920 1.366 . S
C3921 C3925 1.385 . S
C3922 H3903 0.951 . S
C3922 C3920 1.388 . S
C3922 C3923 1.366 . S
C3923 C3922 1.366 . S
C3923 C3924 1.414 . S
C3923 C3926 1.499 . S
C3924 H3904 0.950 . S
C3924 C3923 1.414 . S
C3924 C3925 1.374 . S
C3925 H3905 0.950 . S
C3925 C3921 1.385 . S
C3925 C3924 1.374 . S
C3926 C3923 1.499 . S
C3926 C3927 1.373 . S
C3926 C3928 1.389 . S
C3927 H3906 0.950 . S
C3927 C3926 1.373 . S
C3927 C3943 1.377 . S
C3928 C3926 1.389 . S
C3928 C3929 1.524 . S
C3928 C3942 1.377 . S
C3929 C3928 1.524 . S
C3929 C3930 1.397 . S
C3929 C3934 1.363 . S
C3930 H3907 0.950 . S
C3930 C3929 1.397 . S
C3930 C3931 1.334 . S
C3931 H3908 0.950 . S
C3931 C3930 1.334 . S
C3931 C3932 1.287 . S
C3932 C3931 1.287 . S
C3932 C3933 1.524 . S
C3932 H3951 0.913 . S
C3933 H3909 0.950 . S
C3933 C3932 1.524 . S
C3933 C3934 1.415 . S
C3934 H3910 0.950 . S
C3934 C3929 1.363 . S
C3934 C3933 1.415 . S
C3935 H3911 0.951 . S
C3935 C3936 1.366 . S
C3935 C3937 1.388 . S
C3936 C3935 1.366 . S
C3936 C3940 1.385 . S
C3937 H3912 0.951 . S
C3937 C3935 1.388 . S
C3937 C3938 1.366 . S
C3938 C3937 1.366 . S
C3938 C3939 1.414 . S
C3938 C3941 1.499 . S
C3939 H3913 0.950 . S
C3939 C3938 1.414 . S
C3939 C3940 1.374 . S
C3940 H3914 0.950 . S
C3940 C3936 1.385 . S
C3940 C3939 1.374 . S
C3941 C3938 1.499 . S
C3941 C3942 1.373 . S
C3941 C3943 1.389 . S
C3942 H3915 0.950 . S
C3942 C3928 1.377 . S
C3942 C3941 1.373 . S
C3943 C3927 1.377 . S
C3943 C3941 1.389 . S
C3943 C3944 1.524 . S
C3944 C3943 1.524 . S
C3944 C3945 1.397 . S
C3944 C3949 1.363 . S
C3945 H3916 0.950 . S
C3945 C3944 1.397 . S
C3945 C3946 1.334 . S
C3946 H3917 0.950 . S
C3946 C3945 1.334 . S
C3946 C3947 1.287 . S
C3947 C3946 1.287 . S
C3947 C3948 1.524 . S
C3947 H3950 0.999 . S
C3948 H3918 0.950 . S
C3948 C3947 1.524 . S
C3948 C3949 1.415 . S
C3949 H3919 0.950 . S
C3949 C3944 1.363 . S
C3949 C3948 1.415 . S
H3950 C3947 0.999 . S
H3951 C3932 0.913 . S
H3952 C3970 0.951 . S
H3953 C3972 0.951 . S
H3954 C3974 0.950 . S
H3955 C3975 0.950 . S
H3956 C3977 0.950 . S
H3957 C3980 0.950 . S
H3958 C3981 0.950 . S
H3959 C3983 0.950 . S
H3960 C3984 0.950 . S
H3961 C3985 0.951 . S
H3962 C3987 0.951 . S
H3963 C3989 0.950 . S
H3964 C3990 0.950 . S
H3965 C3992 0.950 . S
H3966 C3995 0.950 . S
H3967 C3996 0.950 . S
H3968 C3998 0.950 . S
H3969 C3999 0.950 . S
C3970 H3952 0.951 . S
C3970 C3971 1.366 . S
C3970 C3972 1.388 . S
C3971 C3970 1.366 . S
C3971 C3975 1.385 . S
C3972 H3953 0.951 . S
C3972 C3970 1.388 . S
C3972 C3973 1.366 . S
C3973 C3972 1.366 . S
C3973 C3974 1.414 . S
C3973 C3976 1.499 . S
C3974 H3954 0.950 . S
C3974 C3973 1.414 . S
C3974 C3975 1.374 . S
C3975 H3955 0.950 . S
C3975 C3971 1.385 . S
C3975 C3974 1.374 . S
C3976 C3973 1.499 . S
C3976 C3977 1.373 . S
C3976 C3978 1.389 . S
C3977 H3956 0.950 . S
C3977 C3976 1.373 . S
C3977 C3993 1.377 . S
C3978 C3976 1.389 . S
C3978 C3979 1.524 . S
C3978 C3992 1.377 . S
C3979 C3978 1.524 . S
C3979 C3980 1.397 . S
C3979 C3984 1.363 . S
C3980 H3957 0.950 . S
C3980 C3979 1.397 . S
C3980 C3981 1.334 . S
C3981 H3958 0.950 . S
C3981 C3980 1.334 . S
C3981 C3982 1.287 . S
C3982 C3981 1.287 . S
C3982 C3983 1.524 . S
C3982 H4001 0.913 . S
C3983 H3959 0.950 . S
C3983 C3982 1.524 . S
C3983 C3984 1.415 . S
C3984 H3960 0.950 . S
C3984 C3979 1.363 . S
C3984 C3983 1.415 . S
C3985 H3961 0.951 . S
C3985 C3986 1.366 . S
C3985 C3987 1.388 . S
C3986 C3985 1.366 . S
C3986 C3990 1.385 . S
C3987 H3962 0.951 . S
C3987 C3985 1.388 . S
C3987 C3988 1.366 . S
C3988 C3987 1.366 . S
C3988 C3989 1.414 . S
C3988 C3991 1.499 . S
C3989 H3963 0.950 . S
C3989 C3988 1.414 . S
C3989 C3990 1.374 . S
C3990 H3964 0.950 . S
C3990 C3986 1.385 . S
C3990 C3989 1.374 . S
C3991 C3988 1.499 . S
C3991 C3992 1.373 . S
C3991 C3993 1.389 . S
C3992 H3965 0.950 . S
C3992 C3978 1.377 . S
C3992 C3991 1.373 . S
C3993 C3977 1.377 . S
C3993 C3991 1.389 . S
C3993 C3994 1.524 . S
C3994 C3993 1.524 . S
C3994 C3995 1.397 . S
C3994 C3999 1.363 . S
C3995 H3966 0.950 . S
C3995 C3994 1.397 . S
C3995 C3996 1.334 . S
C3996 H3967 0.950 . S
C3996 C3995 1.334 . S
C3996 C3997 1.287 . S
C3997 C3996 1.287 . S
C3997 C3998 1.524 . S
C3997 H4000 0.999 . S
C3998 H3968 0.950 . S
C3998 C3997 1.524 . S
C3998 C3999 1.415 . S
C3999 H3969 0.950 . S
C3999 C3994 1.363 . S
C3999 C3998 1.415 . S
H4000 C3997 0.999 . S
H4001 C3982 0.913 . S
H4002 C4020 0.951 . S
H4003 C4022 0.951 . S
H4004 C4024 0.950 . S
H4005 C4025 0.950 . S
H4006 C4027 0.950 . S
H4007 C4030 0.950 . S
H4008 C4031 0.950 . S
H4009 C4033 0.950 . S
H4010 C4034 0.950 . S
H4011 C4035 0.951 . S
H4012 C4037 0.951 . S
H4013 C4039 0.950 . S
H4014 C4040 0.950 . S
H4015 C4042 0.950 . S
H4016 C4045 0.950 . S
H4017 C4046 0.950 . S
H4018 C4048 0.950 . S
H4019 C4049 0.950 . S
C4020 H4002 0.951 . S
C4020 C4021 1.366 . S
C4020 C4022 1.388 . S
C4021 C4020 1.366 . S
C4021 C4025 1.385 . S
C4022 H4003 0.951 . S
C4022 C4020 1.388 . S
C4022 C4023 1.366 . S
C4023 C4022 1.366 . S
C4023 C4024 1.414 . S
C4023 C4026 1.499 . S
C4024 H4004 0.950 . S
C4024 C4023 1.414 . S
C4024 C4025 1.374 . S
C4025 H4005 0.950 . S
C4025 C4021 1.385 . S
C4025 C4024 1.374 . S
C4026 C4023 1.499 . S
C4026 C4027 1.373 . S
C4026 C4028 1.389 . S
C4027 H4006 0.950 . S
C4027 C4026 1.373 . S
C4027 C4043 1.377 . S
C4028 C4026 1.389 . S
C4028 C4029 1.524 . S
C4028 C4042 1.377 . S
C4029 C4028 1.524 . S
C4029 C4030 1.397 . S
C4029 C4034 1.363 . S
C4030 H4007 0.950 . S
C4030 C4029 1.397 . S
C4030 C4031 1.334 . S
C4031 H4008 0.950 . S
C4031 C4030 1.334 . S
C4031 C4032 1.287 . S
C4032 C4031 1.287 . S
C4032 C4033 1.524 . S
C4032 H4051 0.913 . S
C4033 H4009 0.950 . S
C4033 C4032 1.524 . S
C4033 C4034 1.415 . S
C4034 H4010 0.950 . S
C4034 C4029 1.363 . S
C4034 C4033 1.415 . S
C4035 H4011 0.951 . S
C4035 C4036 1.366 . S
C4035 C4037 1.388 . S
C4036 C4035 1.366 . S
C4036 C4040 1.385 . S
C4037 H4012 0.951 . S
C4037 C4035 1.388 . S
C4037 C4038 1.366 . S
C4038 C4037 1.366 . S
C4038 C4039 1.414 . S
C4038 C4041 1.499 . S
C4039 H4013 0.950 . S
C4039 C4038 1.414 . S
C4039 C4040 1.374 . S
C4040 H4014 0.950 . S
C4040 C4036 1.385 . S
C4040 C4039 1.374 . S
C4041 C4038 1.499 . S
C4041 C4042 1.373 . S
C4041 C4043 1.389 . S
C4042 H4015 0.950 . S
C4042 C4028 1.377 . S
C4042 C4041 1.373 . S
C4043 C4027 1.377 . S
C4043 C4041 1.389 . S
C4043 C4044 1.524 . S
C4044 C4043 1.524 . S
C4044 C4045 1.397 . S
C4044 C4049 1.363 . S
C4045 H4016 0.950 . S
C4045 C4044 1.397 . S
C4045 C4046 1.334 . S
C4046 H4017 0.950 . S
C4046 C4045 1.334 . S
C4046 C4047 1.287 . S
C4047 C4046 1.287 . S
C4047 C4048 1.524 . S
C4047 H4050 0.999 . S
C4048 H4018 0.950 . S
C4048 C4047 1.524 . S
C4048 C4049 1.415 . S
C4049 H4019 0.950 . S
C4049 C4044 1.363 . S
C4049 C4048 1.415 . S
H4050 C4047 0.999 . S
H4051 C4032 0.913 . S
H4052 C4070 0.951 . S
H4053 C4072 0.951 . S
H4054 C4074 0.950 . S
H4055 C4075 0.950 . S
H4056 C4077 0.950 . S
H4057 C4080 0.950 . S
H4058 C4081 0.950 . S
H4059 C4083 0.950 . S
H4060 C4084 0.950 . S
H4061 C4085 0.951 . S
H4062 C4087 0.951 . S
H4063 C4089 0.950 . S
H4064 C4090 0.950 . S
H4065 C4092 0.950 . S
H4066 C4095 0.950 . S
H4067 C4096 0.950 . S
H4068 C4098 0.950 . S
H4069 C4099 0.950 . S
C4070 H4052 0.951 . S
C4070 C4071 1.366 . S
C4070 C4072 1.388 . S
C4071 C4070 1.366 . S
C4071 C4075 1.385 . S
C4072 H4053 0.951 . S
C4072 C4070 1.388 . S
C4072 C4073 1.366 . S
C4073 C4072 1.366 . S
C4073 C4074 1.414 . S
C4073 C4076 1.499 . S
C4074 H4054 0.950 . S
C4074 C4073 1.414 . S
C4074 C4075 1.374 . S
C4075 H4055 0.950 . S
C4075 C4071 1.385 . S
C4075 C4074 1.374 . S
C4076 C4073 1.499 . S
C4076 C4077 1.373 . S
C4076 C4078 1.389 . S
C4077 H4056 0.950 . S
C4077 C4076 1.373 . S
C4077 C4093 1.377 . S
C4078 C4076 1.389 . S
C4078 C4079 1.524 . S
C4078 C4092 1.377 . S
C4079 C4078 1.524 . S
C4079 C4080 1.397 . S
C4079 C4084 1.363 . S
C4080 H4057 0.950 . S
C4080 C4079 1.397 . S
C4080 C4081 1.334 . S
C4081 H4058 0.950 . S
C4081 C4080 1.334 . S
C4081 C4082 1.287 . S
C4082 C4081 1.287 . S
C4082 C4083 1.524 . S
C4082 H4101 0.913 . S
C4083 H4059 0.950 . S
C4083 C4082 1.524 . S
C4083 C4084 1.415 . S
C4084 H4060 0.950 . S
C4084 C4079 1.363 . S
C4084 C4083 1.415 . S
C4085 H4061 0.951 . S
C4085 C4086 1.366 . S
C4085 C4087 1.388 . S
C4086 C4085 1.366 . S
C4086 C4090 1.385 . S
C4087 H4062 0.951 . S
C4087 C4085 1.388 . S
C4087 C4088 1.366 . S
C4088 C4087 1.366 . S
C4088 C4089 1.414 . S
C4088 C4091 1.499 . S
C4089 H4063 0.950 . S
C4089 C4088 1.414 . S
C4089 C4090 1.374 . S
C4090 H4064 0.950 . S
C4090 C4086 1.385 . S
C4090 C4089 1.374 . S
C4091 C4088 1.499 . S
C4091 C4092 1.373 . S
C4091 C4093 1.389 . S
C4092 H4065 0.950 . S
C4092 C4078 1.377 . S
C4092 C4091 1.373 . S
C4093 C4077 1.377 . S
C4093 C4091 1.389 . S
C4093 C4094 1.524 . S
C4094 C4093 1.524 . S
C4094 C4095 1.397 . S
C4094 C4099 1.363 . S
C4095 H4066 0.950 . S
C4095 C4094 1.397 . S
C4095 C4096 1.334 . S
C4096 H4067 0.950 . S
C4096 C4095 1.334 . S
C4096 C4097 1.287 . S
C4097 C4096 1.287 . S
C4097 C4098 1.524 . S
C4097 H4100 0.999 . S
C4098 H4068 0.950 . S
C4098 C4097 1.524 . S
C4098 C4099 1.415 . S
C4099 H4069 0.950 . S
C4099 C4094 1.363 . S
C4099 C4098 1.415 . S
H4100 C4097 0.999 . S
H4101 C4082 0.913 . S
H4102 C4120 0.951 . S
H4103 C4122 0.951 . S
H4104 C4124 0.950 . S
H4105 C4125 0.950 . S
H4106 C4127 0.950 . S
H4107 C4130 0.950 . S
H4108 C4131 0.950 . S
H4109 C4133 0.950 . S
H4110 C4134 0.950 . S
H4111 C4135 0.951 . S
H4112 C4137 0.951 . S
H4113 C4139 0.950 . S
H4114 C4140 0.950 . S
H4115 C4142 0.950 . S
H4116 C4145 0.950 . S
H4117 C4146 0.950 . S
H4118 C4148 0.950 . S
H4119 C4149 0.950 . S
C4120 H4102 0.951 . S
C4120 C4121 1.366 . S
C4120 C4122 1.388 . S
C4121 C4120 1.366 . S
C4121 C4125 1.385 . S
C4122 H4103 0.951 . S
C4122 C4120 1.388 . S
C4122 C4123 1.366 . S
C4123 C4122 1.366 . S
C4123 C4124 1.414 . S
C4123 C4126 1.499 . S
C4124 H4104 0.950 . S
C4124 C4123 1.414 . S
C4124 C4125 1.374 . S
C4125 H4105 0.950 . S
C4125 C4121 1.385 . S
C4125 C4124 1.374 . S
C4126 C4123 1.499 . S
C4126 C4127 1.373 . S
C4126 C4128 1.389 . S
C4127 H4106 0.950 . S
C4127 C4126 1.373 . S
C4127 C4143 1.377 . S
C4128 C4126 1.389 . S
C4128 C4129 1.524 . S
C4128 C4142 1.377 . S
C4129 C4128 1.524 . S
C4129 C4130 1.397 . S
C4129 C4134 1.363 . S
C4130 H4107 0.950 . S
C4130 C4129 1.397 . S
C4130 C4131 1.334 . S
C4131 H4108 0.950 . S
C4131 C4130 1.334 . S
C4131 C4132 1.287 . S
C4132 C4131 1.287 . S
C4132 C4133 1.524 . S
C4132 H4151 0.913 . S
C4133 H4109 0.950 . S
C4133 C4132 1.524 . S
C4133 C4134 1.415 . S
C4134 H4110 0.950 . S
C4134 C4129 1.363 . S
C4134 C4133 1.415 . S
C4135 H4111 0.951 . S
C4135 C4136 1.366 . S
C4135 C4137 1.388 . S
C4136 C4135 1.366 . S
C4136 C4140 1.385 . S
C4137 H4112 0.951 . S
C4137 C4135 1.388 . S
C4137 C4138 1.366 . S
C4138 C4137 1.366 . S
C4138 C4139 1.414 . S
C4138 C4141 1.499 . S
C4139 H4113 0.950 . S
C4139 C4138 1.414 . S
C4139 C4140 1.374 . S
C4140 H4114 0.950 . S
C4140 C4136 1.385 . S
C4140 C4139 1.374 . S
C4141 C4138 1.499 . S
C4141 C4142 1.373 . S
C4141 C4143 1.389 . S
C4142 H4115 0.950 . S
C4142 C4128 1.377 . S
C4142 C4141 1.373 . S
C4143 C4127 1.377 . S
C4143 C4141 1.389 . S
C4143 C4144 1.524 . S
C4144 C4143 1.524 . S
C4144 C4145 1.397 . S
C4144 C4149 1.363 . S
C4145 H4116 0.950 . S
C4145 C4144 1.397 . S
C4145 C4146 1.334 . S
C4146 H4117 0.950 . S
C4146 C4145 1.334 . S
C4146 C4147 1.287 . S
C4147 C4146 1.287 . S
C4147 C4148 1.524 . S
C4147 H4150 0.999 . S
C4148 H4118 0.950 . S
C4148 C4147 1.524 . S
C4148 C4149 1.415 . S
C4149 H4119 0.950 . S
C4149 C4144 1.363 . S
C4149 C4148 1.415 . S
H4150 C4147 0.999 . S
H4151 C4132 0.913 . S
H4152 C4170 0.951 . S
H4153 C4172 0.951 . S
H4154 C4174 0.950 . S
H4155 C4175 0.950 . S
H4156 C4177 0.950 . S
H4157 C4180 0.950 . S
H4158 C4181 0.950 . S
H4159 C4183 0.950 . S
H4160 C4184 0.950 . S
H4161 C4185 0.951 . S
H4162 C4187 0.951 . S
H4163 C4189 0.950 . S
H4164 C4190 0.950 . S
H4165 C4192 0.950 . S
H4166 C4195 0.950 . S
H4167 C4196 0.950 . S
H4168 C4198 0.950 . S
H4169 C4199 0.950 . S
C4170 H4152 0.951 . S
C4170 C4171 1.366 . S
C4170 C4172 1.388 . S
C4171 C4170 1.366 . S
C4171 C4175 1.385 . S
C4172 H4153 0.951 . S
C4172 C4170 1.388 . S
C4172 C4173 1.366 . S
C4173 C4172 1.366 . S
C4173 C4174 1.414 . S
C4173 C4176 1.499 . S
C4174 H4154 0.950 . S
C4174 C4173 1.414 . S
C4174 C4175 1.374 . S
C4175 H4155 0.950 . S
C4175 C4171 1.385 . S
C4175 C4174 1.374 . S
C4176 C4173 1.499 . S
C4176 C4177 1.373 . S
C4176 C4178 1.389 . S
C4177 H4156 0.950 . S
C4177 C4176 1.373 . S
C4177 C4193 1.377 . S
C4178 C4176 1.389 . S
C4178 C4179 1.524 . S
C4178 C4192 1.377 . S
C4179 C4178 1.524 . S
C4179 C4180 1.397 . S
C4179 C4184 1.363 . S
C4180 H4157 0.950 . S
C4180 C4179 1.397 . S
C4180 C4181 1.334 . S
C4181 H4158 0.950 . S
C4181 C4180 1.334 . S
C4181 C4182 1.287 . S
C4182 C4181 1.287 . S
C4182 C4183 1.524 . S
C4182 H4201 0.913 . S
C4183 H4159 0.950 . S
C4183 C4182 1.524 . S
C4183 C4184 1.415 . S
C4184 H4160 0.950 . S
C4184 C4179 1.363 . S
C4184 C4183 1.415 . S
C4185 H4161 0.951 . S
C4185 C4186 1.366 . S
C4185 C4187 1.388 . S
C4186 C4185 1.366 . S
C4186 C4190 1.385 . S
C4187 H4162 0.951 . S
C4187 C4185 1.388 . S
C4187 C4188 1.366 . S
C4188 C4187 1.366 . S
C4188 C4189 1.414 . S
C4188 C4191 1.499 . S
C4189 H4163 0.950 . S
C4189 C4188 1.414 . S
C4189 C4190 1.374 . S
C4190 H4164 0.950 . S
C4190 C4186 1.385 . S
C4190 C4189 1.374 . S
C4191 C4188 1.499 . S
C4191 C4192 1.373 . S
C4191 C4193 1.389 . S
C4192 H4165 0.950 . S
C4192 C4178 1.377 . S
C4192 C4191 1.373 . S
C4193 C4177 1.377 . S
C4193 C4191 1.389 . S
C4193 C4194 1.524 . S
C4194 C4193 1.524 . S
C4194 C4195 1.397 . S
C4194 C4199 1.363 . S
C4195 H4166 0.950 . S
C4195 C4194 1.397 . S
C4195 C4196 1.334 . S
C4196 H4167 0.950 . S
C4196 C4195 1.334 . S
C4196 C4197 1.287 . S
C4197 C4196 1.287 . S
C4197 C4198 1.524 . S
C4197 H4200 0.999 . S
C4198 H4168 0.950 . S
C4198 C4197 1.524 . S
C4198 C4199 1.415 . S
C4199 H4169 0.950 . S
C4199 C4194 1.363 . S
C4199 C4198 1.415 . S
H4200 C4197 0.999 . S
H4201 C4182 0.913 . S
H4202 C4220 0.951 . S
H4203 C4222 0.951 . S
H4204 C4224 0.950 . S
H4205 C4225 0.950 . S
H4206 C4227 0.950 . S
H4207 C4230 0.950 . S
H4208 C4231 0.950 . S
H4209 C4233 0.950 . S
H4210 C4234 0.950 . S
H4211 C4235 0.951 . S
H4212 C4237 0.951 . S
H4213 C4239 0.950 . S
H4214 C4240 0.950 . S
H4215 C4242 0.950 . S
H4216 C4245 0.950 . S
H4217 C4246 0.950 . S
H4218 C4248 0.950 . S
H4219 C4249 0.950 . S
C4220 H4202 0.951 . S
C4220 C4221 1.366 . S
C4220 C4222 1.388 . S
C4221 C4220 1.366 . S
C4221 C4225 1.385 . S
C4222 H4203 0.951 . S
C4222 C4220 1.388 . S
C4222 C4223 1.366 . S
C4223 C4222 1.366 . S
C4223 C4224 1.414 . S
C4223 C4226 1.499 . S
C4224 H4204 0.950 . S
C4224 C4223 1.414 . S
C4224 C4225 1.374 . S
C4225 H4205 0.950 . S
C4225 C4221 1.385 . S
C4225 C4224 1.374 . S
C4226 C4223 1.499 . S
C4226 C4227 1.373 . S
C4226 C4228 1.389 . S
C4227 H4206 0.950 . S
C4227 C4226 1.373 . S
C4227 C4243 1.377 . S
C4228 C4226 1.389 . S
C4228 C4229 1.524 . S
C4228 C4242 1.377 . S
C4229 C4228 1.524 . S
C4229 C4230 1.397 . S
C4229 C4234 1.363 . S
C4230 H4207 0.950 . S
C4230 C4229 1.397 . S
C4230 C4231 1.334 . S
C4231 H4208 0.950 . S
C4231 C4230 1.334 . S
C4231 C4232 1.287 . S
C4232 C4231 1.287 . S
C4232 C4233 1.524 . S
C4232 H4251 0.913 . S
C4233 H4209 0.950 . S
C4233 C4232 1.524 . S
C4233 C4234 1.415 . S
C4234 H4210 0.950 . S
C4234 C4229 1.363 . S
C4234 C4233 1.415 . S
C4235 H4211 0.951 . S
C4235 C4236 1.366 . S
C4235 C4237 1.388 . S
C4236 C4235 1.366 . S
C4236 C4240 1.385 . S
C4237 H4212 0.951 . S
C4237 C4235 1.388 . S
C4237 C4238 1.366 . S
C4238 C4237 1.366 . S
C4238 C4239 1.414 . S
C4238 C4241 1.499 . S
C4239 H4213 0.950 . S
C4239 C4238 1.414 . S
C4239 C4240 1.374 . S
C4240 H4214 0.950 . S
C4240 C4236 1.385 . S
C4240 C4239 1.374 . S
C4241 C4238 1.499 . S
C4241 C4242 1.373 . S
C4241 C4243 1.389 . S
C4242 H4215 0.950 . S
C4242 C4228 1.377 . S
C4242 C4241 1.373 . S
C4243 C4227 1.377 . S
C4243 C4241 1.389 . S
C4243 C4244 1.524 . S
C4244 C4243 1.524 . S
C4244 C4245 1.397 . S
C4244 C4249 1.363 . S
C4245 H4216 0.950 . S
C4245 C4244 1.397 . S
C4245 C4246 1.334 . S
C4246 H4217 0.950 . S
C4246 C4245 1.334 . S
C4246 C4247 1.287 . S
C4247 C4246 1.287 . S
C4247 C4248 1.524 . S
C4247 H4250 0.999 . S
C4248 H4218 0.950 . S
C4248 C4247 1.524 . S
C4248 C4249 1.415 . S
C4249 H4219 0.950 . S
C4249 C4244 1.363 . S
C4249 C4248 1.415 . S
H4250 C4247 0.999 . S
H4251 C4232 0.913 . S
H4252 C4270 0.951 . S
H4253 C4272 0.951 . S
H4254 C4274 0.956 . S
H4255 C4275 0.950 . S
H4256 C4277 0.950 . S
H4257 C4280 0.950 . S
H4258 C4281 0.950 . S
H4259 C4283 0.950 . S
H4260 C4284 0.950 . S
H4261 C4285 0.951 . S
H4262 C4287 0.951 . S
H4263 C4289 0.950 . S
H4264 C4290 0.950 . S
H4265 C4292 0.950 . S
H4266 C4295 0.950 . S
H4267 C4296 0.950 . S
H4268 C4298 0.950 . S
H4269 C4299 0.950 . S
C4270 H4252 0.951 . S
C4270 C4271 1.366 . S
C4270 C4272 1.388 . S
C4271 C4270 1.366 . S
C4271 C4275 1.385 . S
C4272 H4253 0.951 . S
C4272 C4270 1.388 . S
C4272 C4273 1.366 . S
C4273 C4272 1.366 . S
C4273 C4274 1.414 . S
C4273 C4276 1.499 1_545 S
C4274 H4254 0.956 . S
C4274 C4273 1.414 . S
C4274 C4275 1.374 . S
C4275 H4255 0.950 . S
C4275 C4271 1.385 . S
C4275 C4274 1.374 . S
C4276 C4273 1.499 1_565 S
C4276 C4277 1.373 . S
C4276 C4278 1.389 . S
C4277 H4256 0.950 . S
C4277 C4276 1.373 . S
C4277 C4293 1.377 . S
C4278 C4276 1.389 . S
C4278 C4279 1.524 1_565 S
C4278 C4292 1.377 . S
C4279 C4278 1.524 1_545 S
C4279 C4280 1.397 . S
C4279 C4284 1.363 . S
C4280 H4257 0.950 . S
C4280 C4279 1.397 . S
C4280 C4281 1.334 . S
C4281 H4258 0.950 . S
C4281 C4280 1.334 . S
C4281 C4282 1.287 . S
C4282 C4281 1.287 . S
C4282 C4283 1.524 . S
C4282 H4301 0.913 . S
C4283 H4259 0.950 . S
C4283 C4282 1.524 . S
C4283 C4284 1.415 . S
C4284 H4260 0.950 . S
C4284 C4279 1.363 . S
C4284 C4283 1.415 . S
C4285 H4261 0.951 . S
C4285 C4286 1.366 . S
C4285 C4287 1.388 . S
C4286 C4285 1.366 . S
C4286 C4290 1.385 . S
C4287 H4262 0.951 . S
C4287 C4285 1.388 . S
C4287 C4288 1.366 . S
C4288 C4287 1.366 . S
C4288 C4289 1.414 . S
C4288 C4291 1.499 . S
C4289 H4263 0.950 . S
C4289 C4288 1.414 . S
C4289 C4290 1.374 . S
C4290 H4264 0.950 . S
C4290 C4286 1.385 . S
C4290 C4289 1.374 . S
C4291 C4288 1.499 . S
C4291 C4292 1.373 . S
C4291 C4293 1.389 . S
C4292 H4265 0.950 . S
C4292 C4278 1.377 . S
C4292 C4291 1.373 . S
C4293 C4277 1.377 . S
C4293 C4291 1.389 . S
C4293 C4294 1.524 . S
C4294 C4293 1.524 . S
C4294 C4295 1.397 . S
C4294 C4299 1.363 . S
C4295 H4266 0.950 . S
C4295 C4294 1.397 . S
C4295 C4296 1.334 . S
C4296 H4267 0.950 . S
C4296 C4295 1.334 . S
C4296 C4297 1.287 . S
C4297 C4296 1.287 . S
C4297 C4298 1.524 . S
C4297 H4300 0.999 . S
C4298 H4268 0.950 . S
C4298 C4297 1.524 . S
C4298 C4299 1.415 . S
C4299 H4269 0.950 . S
C4299 C4294 1.363 . S
C4299 C4298 1.415 . S
H4300 C4297 0.999 . S
H4301 C4282 0.913 . S
H4302 C4320 0.951 . S
H4303 C4322 0.951 . S
H4304 C4324 0.950 . S
H4305 C4325 0.950 . S
H4306 C4327 0.950 . S
H4307 C4330 0.950 . S
H4308 C4331 0.929 1_554 S
H4309 C4333 0.950 . S
H4310 C4334 0.950 . S
H4311 C4335 0.951 . S
H4312 C4337 0.951 . S
H4313 C4339 0.950 . S
H4314 C4340 0.950 1_556 S
H4315 C4342 0.950 . S
H4316 C4345 0.950 . S
H4317 C4346 0.950 . S
H4318 C4348 0.950 . S
H4319 C4349 0.950 . S
C4320 H4302 0.951 . S
C4320 C4321 1.366 . S
C4320 C4322 1.388 . S
C4321 C4320 1.366 . S
C4321 C4325 1.385 . S
C4322 H4303 0.951 . S
C4322 C4320 1.388 . S
C4322 C4323 1.366 . S
C4323 C4322 1.366 . S
C4323 C4324 1.414 . S
C4323 C4326 1.499 . S
C4324 H4304 0.950 . S
C4324 C4323 1.414 . S
C4324 C4325 1.374 . S
C4325 H4305 0.950 . S
C4325 C4321 1.385 . S
C4325 C4324 1.374 . S
C4326 C4323 1.499 . S
C4326 C4327 1.373 1_565 S
C4326 C4328 1.389 . S
C4327 H4306 0.950 . S
C4327 C4326 1.373 1_545 S
C4327 C4343 1.377 . S
C4328 C4326 1.389 . S
C4328 C4329 1.524 . S
C4328 C4342 1.377 1_565 S
C4329 C4328 1.524 . S
C4329 C4330 1.397 . S
C4329 C4334 1.363 1_554 S
C4330 H4307 0.950 . S
C4330 C4329 1.397 . S
C4330 C4331 1.300 1_554 S
C4331 H4308 0.929 1_556 S
C4331 C4330 1.300 1_556 S
C4331 C4332 1.346 . S
C4332 C4331 1.346 . S
C4332 C4333 1.524 . S
C4332 H4351 0.913 . S
C4333 H4309 0.950 . S
C4333 C4332 1.524 . S
C4333 C4334 1.415 . S
C4334 H4310 0.950 . S
C4334 C4329 1.363 1_556 S
C4334 C4333 1.415 . S
C4335 H4311 0.951 . S
C4335 C4336 1.366 . S
C4335 C4337 1.388 . S
C4336 C4335 1.366 . S
C4336 C4340 1.385 . S
C4337 H4312 0.951 . S
C4337 C4335 1.388 . S
C4337 C4338 1.366 . S
C4338 C4337 1.366 . S
C4338 C4339 1.414 . S
C4338 C4341 1.499 . S
C4339 H4313 0.950 . S
C4339 C4338 1.414 . S
C4339 C4340 1.374 . S
C4340 H4314 0.950 1_554 S
C4340 C4336 1.385 . S
C4340 C4339 1.374 . S
C4341 C4338 1.499 . S
C4341 C4342 1.373 . S
C4341 C4343 1.389 . S
C4342 H4315 0.950 . S
C4342 C4328 1.377 1_545 S
C4342 C4341 1.373 . S
C4343 C4327 1.377 . S
C4343 C4341 1.389 . S
C4343 C4344 1.524 . S
C4344 C4343 1.524 . S
C4344 C4345 1.397 . S
C4344 C4349 1.363 . S
C4345 H4316 0.950 . S
C4345 C4344 1.397 . S
C4345 C4346 1.334 . S
C4346 H4317 0.950 . S
C4346 C4345 1.334 . S
C4346 C4347 1.287 . S
C4347 C4346 1.287 . S
C4347 C4348 1.524 . S
C4347 H4350 0.999 . S
C4348 H4318 0.950 . S
C4348 C4347 1.524 . S
C4348 C4349 1.415 . S
C4349 H4319 0.950 . S
C4349 C4344 1.363 . S
C4349 C4348 1.415 . S
H4350 C4347 0.999 . S
H4351 C4332 0.913 . S
H4352 C4370 0.951 . S
H4353 C4372 0.951 . S
H4354 C4374 0.950 . S
H4355 C4375 0.950 . S
H4356 C4377 0.950 . S
H4357 C4380 0.950 . S
H4358 C4381 0.950 . S
H4359 C4383 0.950 . S
H4360 C4384 0.950 . S
H4361 C4385 0.951 . S
H4362 C4387 0.951 . S
H4363 C4389 0.950 . S
H4364 C4390 0.950 . S
H4365 C4392 0.950 . S
H4366 C4395 0.950 . S
H4367 C4396 0.950 . S
H4368 C4398 0.950 . S
H4369 C4399 0.950 . S
C4370 H4352 0.951 . S
C4370 C4371 1.366 . S
C4370 C4372 1.388 . S
C4371 C4370 1.366 . S
C4371 C4375 1.385 . S
C4372 H4353 0.951 . S
C4372 C4370 1.388 . S
C4372 C4373 1.366 . S
C4373 C4372 1.366 . S
C4373 C4374 1.414 . S
C4373 C4376 1.499 . S
C4374 H4354 0.950 . S
C4374 C4373 1.414 . S
C4374 C4375 1.374 . S
C4375 H4355 0.950 . S
C4375 C4371 1.385 . S
C4375 C4374 1.374 . S
C4376 C4373 1.499 . S
C4376 C4377 1.373 . S
C4376 C4378 1.389 . S
C4377 H4356 0.950 . S
C4377 C4376 1.373 . S
C4377 C4393 1.377 . S
C4378 C4376 1.389 . S
C4378 C4379 1.524 . S
C4378 C4392 1.377 . S
C4379 C4378 1.524 . S
C4379 C4380 1.397 . S
C4379 C4384 1.363 . S
C4380 H4357 0.950 . S
C4380 C4379 1.397 . S
C4380 C4381 1.334 . S
C4381 H4358 0.950 . S
C4381 C4380 1.334 . S
C4381 C4382 1.287 . S
C4382 C4381 1.287 . S
C4382 C4383 1.524 . S
C4382 H4401 0.913 . S
C4383 H4359 0.950 . S
C4383 C4382 1.524 . S
C4383 C4384 1.415 . S
C4384 H4360 0.950 . S
C4384 C4379 1.363 . S
C4384 C4383 1.415 . S
C4385 H4361 0.951 . S
C4385 C4386 1.366 . S
C4385 C4387 1.388 . S
C4386 C4385 1.366 . S
C4386 C4390 1.385 . S
C4387 H4362 0.951 . S
C4387 C4385 1.388 . S
C4387 C4388 1.366 . S
C4388 C4387 1.366 . S
C4388 C4389 1.414 . S
C4388 C4391 1.499 . S
C4389 H4363 0.950 . S
C4389 C4388 1.414 . S
C4389 C4390 1.374 . S
C4390 H4364 0.950 . S
C4390 C4386 1.385 . S
C4390 C4389 1.374 . S
C4391 C4388 1.499 . S
C4391 C4392 1.373 . S
C4391 C4393 1.389 . S
C4392 H4365 0.950 . S
C4392 C4378 1.377 . S
C4392 C4391 1.373 . S
C4393 C4377 1.377 . S
C4393 C4391 1.389 . S
C4393 C4394 1.524 . S
C4394 C4393 1.524 . S
C4394 C4395 1.397 . S
C4394 C4399 1.363 . S
C4395 H4366 0.950 . S
C4395 C4394 1.397 . S
C4395 C4396 1.334 . S
C4396 H4367 0.950 . S
C4396 C4395 1.334 . S
C4396 C4397 1.287 . S
C4397 C4396 1.287 . S
C4397 C4398 1.524 . S
C4397 H4400 0.999 . S
C4398 H4368 0.950 . S
C4398 C4397 1.524 . S
C4398 C4399 1.415 . S
C4399 H4369 0.950 . S
C4399 C4394 1.363 . S
C4399 C4398 1.415 . S
H4400 C4397 0.999 . S
H4401 C4382 0.913 . S
H4402 C4420 0.951 . S
H4403 C4422 0.951 . S
H4404 C4424 0.950 . S
H4405 C4425 0.950 . S
H4406 C4427 0.950 . S
H4407 C4430 0.950 1_554 S
H4408 C4431 0.950 . S
H4409 C4433 0.950 . S
H4410 C4434 0.950 . S
H4411 C4435 0.951 . S
H4412 C4437 0.951 . S
H4413 C4439 0.950 . S
H4414 C4440 0.950 . S
H4415 C4442 0.950 . S
H4416 C4445 0.950 . S
H4417 C4446 0.950 . S
H4418 C4448 0.950 . S
H4419 C4449 0.950 . S
C4420 H4402 0.951 . S
C4420 C4421 1.366 . S
C4420 C4422 1.388 . S
C4421 C4420 1.366 . S
C4421 C4425 1.385 . S
C4422 H4403 0.951 . S
C4422 C4420 1.388 . S
C4422 C4423 1.366 . S
C4423 C4422 1.366 . S
C4423 C4424 1.414 . S
C4423 C4426 1.499 . S
C4424 H4404 0.950 . S
C4424 C4423 1.414 . S
C4424 C4425 1.374 . S
C4425 H4405 0.950 . S
C4425 C4421 1.385 . S
C4425 C4424 1.374 . S
C4426 C4423 1.499 . S
C4426 C4427 1.373 . S
C4426 C4428 1.389 . S
C4427 H4406 0.950 . S
C4427 C4426 1.373 . S
C4427 C4443 1.377 . S
C4428 C4426 1.389 . S
C4428 C4429 1.524 . S
C4428 C4442 1.377 . S
C4429 C4428 1.524 . S
C4429 C4430 1.397 1_554 S
C4429 C4434 1.363 . S
C4430 H4407 0.950 1_556 S
C4430 C4429 1.397 1_556 S
C4430 C4431 1.334 . S
C4431 H4408 0.950 . S
C4431 C4430 1.334 . S
C4431 C4432 1.287 . S
C4432 C4431 1.287 . S
C4432 C4433 1.524 . S
C4432 H4451 0.913 . S
C4433 H4409 0.950 . S
C4433 C4432 1.524 . S
C4433 C4434 1.415 1_556 S
C4434 H4410 0.950 . S
C4434 C4429 1.363 . S
C4434 C4433 1.415 1_554 S
C4435 H4411 0.951 . S
C4435 C4436 1.366 . S
C4435 C4437 1.388 . S
C4436 C4435 1.366 . S
C4436 C4440 1.385 . S
C4437 H4412 0.951 . S
C4437 C4435 1.388 . S
C4437 C4438 1.366 . S
C4438 C4437 1.366 . S
C4438 C4439 1.414 . S
C4438 C4441 1.499 . S
C4439 H4413 0.950 . S
C4439 C4438 1.414 . S
C4439 C4440 1.374 . S
C4440 H4414 0.950 . S
C4440 C4436 1.385 . S
C4440 C4439 1.374 . S
C4441 C4438 1.499 . S
C4441 C4442 1.373 . S
C4441 C4443 1.389 . S
C4442 H4415 0.950 . S
C4442 C4428 1.377 . S
C4442 C4441 1.373 . S
C4443 C4427 1.377 . S
C4443 C4441 1.389 . S
C4443 C4444 1.524 . S
C4444 C4443 1.524 . S
C4444 C4445 1.397 . S
C4444 C4449 1.363 . S
C4445 H4416 0.950 . S
C4445 C4444 1.397 . S
C4445 C4446 1.334 . S
C4446 H4417 0.950 . S
C4446 C4445 1.334 . S
C4446 C4447 1.287 . S
C4447 C4446 1.287 . S
C4447 C4448 1.524 . S
C4447 H4450 0.999 . S
C4448 H4418 0.950 . S
C4448 C4447 1.524 . S
C4448 C4449 1.415 . S
C4449 H4419 0.950 . S
C4449 C4444 1.363 . S
C4449 C4448 1.415 . S
H4450 C4447 0.999 . S
H4451 C4432 0.913 . S
H4452 C4470 0.951 . S
H4453 C4472 0.951 . S
H4454 C4474 0.950 . S
H4455 C4475 0.950 . S
H4456 C4477 0.950 . S
H4457 C4480 0.950 . S
H4458 C4481 0.950 . S
H4459 C4483 0.950 . S
H4460 C4484 0.950 . S
H4461 C4485 0.951 . S
H4462 C4487 0.951 . S
H4463 C4489 0.950 . S
H4464 C4490 0.950 . S
H4465 C4492 0.950 . S
H4466 C4495 0.950 . S
H4467 C4496 0.950 . S
H4468 C4498 0.950 . S
H4469 C4499 0.950 . S
C4470 H4452 0.951 . S
C4470 C4471 1.366 . S
C4470 C4472 1.388 . S
C4471 C4470 1.366 . S
C4471 C4475 1.385 . S
C4472 H4453 0.951 . S
C4472 C4470 1.388 . S
C4472 C4473 1.366 . S
C4473 C4472 1.366 . S
C4473 C4474 1.414 . S
C4473 C4476 1.499 . S
C4474 H4454 0.950 . S
C4474 C4473 1.414 . S
C4474 C4475 1.374 . S
C4475 H4455 0.950 . S
C4475 C4471 1.385 . S
C4475 C4474 1.374 . S
C4476 C4473 1.499 . S
C4476 C4477 1.373 . S
C4476 C4478 1.389 . S
C4477 H4456 0.950 . S
C4477 C4476 1.373 . S
C4477 C4493 1.377 . S
C4478 C4476 1.389 . S
C4478 C4479 1.524 . S
C4478 C4492 1.377 . S
C4479 C4478 1.524 . S
C4479 C4480 1.397 . S
C4479 C4484 1.363 . S
C4480 H4457 0.950 . S
C4480 C4479 1.397 . S
C4480 C4481 1.334 . S
C4481 H4458 0.950 . S
C4481 C4480 1.334 . S
C4481 C4482 1.287 . S
C4482 C4481 1.287 . S
C4482 C4483 1.524 . S
C4482 H4501 0.913 . S
C4483 H4459 0.950 . S
C4483 C4482 1.524 . S
C4483 C4484 1.415 . S
C4484 H4460 0.950 . S
C4484 C4479 1.363 . S
C4484 C4483 1.415 . S
C4485 H4461 0.951 . S
C4485 C4486 1.366 . S
C4485 C4487 1.388 . S
C4486 C4485 1.366 . S
C4486 C4490 1.385 . S
C4487 H4462 0.951 . S
C4487 C4485 1.388 . S
C4487 C4488 1.366 . S
C4488 C4487 1.366 . S
C4488 C4489 1.414 . S
C4488 C4491 1.499 . S
C4489 H4463 0.950 . S
C4489 C4488 1.414 . S
C4489 C4490 1.374 . S
C4490 H4464 0.950 . S
C4490 C4486 1.385 . S
C4490 C4489 1.374 . S
C4491 C4488 1.499 . S
C4491 C4492 1.373 . S
C4491 C4493 1.389 . S
C4492 H4465 0.950 . S
C4492 C4478 1.377 . S
C4492 C4491 1.373 . S
C4493 C4477 1.377 . S
C4493 C4491 1.389 . S
C4493 C4494 1.524 . S
C4494 C4493 1.524 . S
C4494 C4495 1.397 . S
C4494 C4499 1.363 . S
C4495 H4466 0.950 . S
C4495 C4494 1.397 . S
C4495 C4496 1.334 . S
C4496 H4467 0.950 . S
C4496 C4495 1.334 . S
C4496 C4497 1.287 . S
C4497 C4496 1.287 . S
C4497 C4498 1.524 . S
C4497 H4500 0.999 . S
C4498 H4468 0.950 . S
C4498 C4497 1.524 . S
C4498 C4499 1.415 . S
C4499 H4469 0.950 . S
C4499 C4494 1.363 . S
C4499 C4498 1.415 . S
H4500 C4497 0.999 . S
H4501 C4482 0.913 . S
H4502 C4520 0.951 . S
H4503 C4522 0.951 . S
H4504 C4524 0.950 . S
H4505 C4525 0.950 . S
H4506 C4527 0.950 . S
H4507 C4530 0.950 . S
H4508 C4531 0.950 . S
H4509 C4533 0.950 . S
H4510 C4534 0.950 . S
H4511 C4535 0.951 . S
H4512 C4537 0.951 . S
H4513 C4539 0.950 . S
H4514 C4540 0.950 . S
H4515 C4542 0.950 . S
H4516 C4545 0.950 . S
H4517 C4546 0.950 . S
H4518 C4548 0.950 . S
H4519 C4549 0.950 . S
C4520 H4502 0.951 . S
C4520 C4521 1.366 . S
C4520 C4522 1.388 . S
C4521 C4520 1.366 . S
C4521 C4525 1.385 . S
C4522 H4503 0.951 . S
C4522 C4520 1.388 . S
C4522 C4523 1.366 . S
C4523 C4522 1.366 . S
C4523 C4524 1.414 . S
C4523 C4526 1.499 . S
C4524 H4504 0.950 . S
C4524 C4523 1.414 . S
C4524 C4525 1.374 . S
C4525 H4505 0.950 . S
C4525 C4521 1.385 . S
C4525 C4524 1.374 . S
C4526 C4523 1.499 . S
C4526 C4527 1.373 . S
C4526 C4528 1.389 . S
C4527 H4506 0.950 . S
C4527 C4526 1.373 . S
C4527 C4543 1.377 1_545 S
C4528 C4526 1.389 . S
C4528 C4529 1.524 . S
C4528 C4542 1.377 . S
C4529 C4528 1.524 . S
C4529 C4530 1.397 . S
C4529 C4534 1.363 . S
C4530 H4507 0.950 . S
C4530 C4529 1.397 . S
C4530 C4531 1.334 . S
C4531 H4508 0.950 . S
C4531 C4530 1.334 . S
C4531 C4532 1.287 . S
C4532 C4531 1.287 . S
C4532 C4533 1.524 . S
C4532 H4551 0.913 . S
C4533 H4509 0.950 . S
C4533 C4532 1.524 . S
C4533 C4534 1.415 . S
C4534 H4510 0.950 . S
C4534 C4529 1.363 . S
C4534 C4533 1.415 . S
C4535 H4511 0.951 . S
C4535 C4536 1.366 . S
C4535 C4537 1.388 . S
C4536 C4535 1.366 . S
C4536 C4540 1.385 . S
C4537 H4512 0.951 . S
C4537 C4535 1.388 . S
C4537 C4538 1.366 . S
C4538 C4537 1.366 . S
C4538 C4539 1.414 . S
C4538 C4541 1.499 . S
C4539 H4513 0.950 . S
C4539 C4538 1.414 . S
C4539 C4540 1.374 . S
C4540 H4514 0.950 . S
C4540 C4536 1.385 . S
C4540 C4539 1.374 . S
C4541 C4538 1.499 . S
C4541 C4542 1.373 1_565 S
C4541 C4543 1.389 . S
C4542 H4515 0.950 . S
C4542 C4528 1.377 . S
C4542 C4541 1.373 1_545 S
C4543 C4527 1.377 1_565 S
C4543 C4541 1.389 . S
C4543 C4544 1.524 . S
C4544 C4543 1.524 . S
C4544 C4545 1.397 . S
C4544 C4549 1.363 . S
C4545 H4516 0.950 . S
C4545 C4544 1.397 . S
C4545 C4546 1.334 . S
C4546 H4517 0.950 . S
C4546 C4545 1.334 . S
C4546 C4547 1.287 . S
C4547 C4546 1.287 . S
C4547 C4548 1.524 . S
C4547 H4550 0.999 . S
C4548 H4518 0.950 . S
C4548 C4547 1.524 . S
C4548 C4549 1.415 . S
C4549 H4519 0.950 . S
C4549 C4544 1.363 . S
C4549 C4548 1.415 . S
H4550 C4547 0.999 . S
H4551 C4532 0.913 . S
H4552 C4570 0.951 . S
H4553 C4572 0.951 . S
H4554 C4574 0.950 . S
H4555 C4575 0.950 . S
H4556 C4577 0.950 . S
H4557 C4580 0.950 . S
H4558 C4581 0.950 . S
H4559 C4583 0.950 . S
H4560 C4584 0.950 . S
H4561 C4585 0.951 . S
H4562 C4587 0.951 . S
H4563 C4589 0.950 . S
H4564 C4590 0.950 . S
H4565 C4592 0.950 . S
H4566 C4595 0.950 . S
H4567 C4596 0.950 . S
H4568 C4598 0.950 . S
H4569 C4599 0.950 . S
C4570 H4552 0.951 . S
C4570 C4571 1.366 . S
C4570 C4572 1.388 . S
C4571 C4570 1.366 . S
C4571 C4575 1.385 . S
C4572 H4553 0.951 . S
C4572 C4570 1.388 . S
C4572 C4573 1.366 . S
C4573 C4572 1.366 . S
C4573 C4574 1.414 . S
C4573 C4576 1.499 . S
C4574 H4554 0.950 . S
C4574 C4573 1.414 . S
C4574 C4575 1.374 . S
C4575 H4555 0.950 . S
C4575 C4571 1.385 . S
C4575 C4574 1.374 . S
C4576 C4573 1.499 . S
C4576 C4577 1.373 . S
C4576 C4578 1.389 . S
C4577 H4556 0.950 . S
C4577 C4576 1.373 . S
C4577 C4593 1.377 . S
C4578 C4576 1.389 . S
C4578 C4579 1.524 . S
C4578 C4592 1.377 . S
C4579 C4578 1.524 . S
C4579 C4580 1.397 . S
C4579 C4584 1.363 . S
C4580 H4557 0.950 . S
C4580 C4579 1.397 . S
C4580 C4581 1.334 . S
C4581 H4558 0.950 . S
C4581 C4580 1.334 . S
C4581 C4582 1.287 . S
C4582 C4581 1.287 . S
C4582 C4583 1.524 . S
C4582 H4601 0.913 . S
C4583 H4559 0.950 . S
C4583 C4582 1.524 . S
C4583 C4584 1.415 . S
C4584 H4560 0.950 . S
C4584 C4579 1.363 . S
C4584 C4583 1.415 . S
C4585 H4561 0.951 . S
C4585 C4586 1.366 . S
C4585 C4587 1.388 . S
C4586 C4585 1.366 . S
C4586 C4590 1.385 . S
C4587 H4562 0.951 . S
C4587 C4585 1.388 . S
C4587 C4588 1.366 . S
C4588 C4587 1.366 . S
C4588 C4589 1.414 . S
C4588 C4591 1.499 . S
C4589 H4563 0.950 . S
C4589 C4588 1.414 . S
C4589 C4590 1.374 . S
C4590 H4564 0.950 . S
C4590 C4586 1.385 . S
C4590 C4589 1.374 . S
C4591 C4588 1.499 . S
C4591 C4592 1.373 . S
C4591 C4593 1.389 . S
C4592 H4565 0.950 . S
C4592 C4578 1.377 . S
C4592 C4591 1.373 . S
C4593 C4577 1.377 . S
C4593 C4591 1.389 . S
C4593 C4594 1.524 . S
C4594 C4593 1.524 . S
C4594 C4595 1.397 . S
C4594 C4599 1.363 . S
C4595 H4566 0.950 . S
C4595 C4594 1.397 . S
C4595 C4596 1.334 . S
C4596 H4567 0.950 . S
C4596 C4595 1.334 . S
C4596 C4597 1.287 . S
C4597 C4596 1.287 . S
C4597 C4598 1.524 . S
C4597 H4600 0.999 . S
C4598 H4568 0.950 . S
C4598 C4597 1.524 . S
C4598 C4599 1.415 . S
C4599 H4569 0.950 . S
C4599 C4594 1.363 . S
C4599 C4598 1.415 . S
H4600 C4597 0.999 . S
H4601 C4582 0.913 . S
H4602 C4620 0.951 . S
H4603 C4622 0.951 . S
H4604 C4624 0.950 . S
H4605 C4625 0.950 . S
H4606 C4627 0.950 . S
H4607 C4630 0.950 . S
H4608 C4631 0.950 . S
H4609 C4633 0.950 . S
H4610 C4634 0.950 . S
H4611 C4635 0.951 . S
H4612 C4637 0.951 . S
H4613 C4639 0.950 . S
H4614 C4640 0.950 . S
H4615 C4642 0.950 . S
H4616 C4645 0.950 . S
H4617 C4646 0.950 . S
H4618 C4648 0.950 . S
H4619 C4649 0.950 . S
C4620 H4602 0.951 . S
C4620 C4621 1.366 . S
C4620 C4622 1.388 . S
C4621 C4620 1.366 . S
C4621 C4625 1.385 . S
C4622 H4603 0.951 . S
C4622 C4620 1.388 . S
C4622 C4623 1.366 . S
C4623 C4622 1.366 . S
C4623 C4624 1.414 . S
C4623 C4626 1.499 . S
C4624 H4604 0.950 . S
C4624 C4623 1.414 . S
C4624 C4625 1.374 . S
C4625 H4605 0.950 . S
C4625 C4621 1.385 . S
C4625 C4624 1.374 . S
C4626 C4623 1.499 . S
C4626 C4627 1.373 . S
C4626 C4628 1.389 . S
C4627 H4606 0.950 . S
C4627 C4626 1.373 . S
C4627 C4643 1.377 . S
C4628 C4626 1.389 . S
C4628 C4629 1.524 . S
C4628 C4642 1.377 . S
C4629 C4628 1.524 . S
C4629 C4630 1.397 . S
C4629 C4634 1.363 . S
C4630 H4607 0.950 . S
C4630 C4629 1.397 . S
C4630 C4631 1.334 . S
C4631 H4608 0.950 . S
C4631 C4630 1.334 . S
C4631 C4632 1.287 . S
C4632 C4631 1.287 . S
C4632 C4633 1.524 . S
C4632 H4651 0.913 . S
C4633 H4609 0.950 . S
C4633 C4632 1.524 . S
C4633 C4634 1.415 . S
C4634 H4610 0.950 . S
C4634 C4629 1.363 . S
C4634 C4633 1.415 . S
C4635 H4611 0.951 . S
C4635 C4636 1.366 . S
C4635 C4637 1.388 . S
C4636 C4635 1.366 . S
C4636 C4640 1.385 . S
C4637 H4612 0.951 . S
C4637 C4635 1.388 . S
C4637 C4638 1.366 . S
C4638 C4637 1.366 . S
C4638 C4639 1.414 . S
C4638 C4641 1.499 . S
C4639 H4613 0.950 . S
C4639 C4638 1.414 . S
C4639 C4640 1.374 . S
C4640 H4614 0.950 . S
C4640 C4636 1.385 . S
C4640 C4639 1.374 . S
C4641 C4638 1.499 . S
C4641 C4642 1.373 . S
C4641 C4643 1.389 . S
C4642 H4615 0.950 . S
C4642 C4628 1.377 . S
C4642 C4641 1.373 . S
C4643 C4627 1.377 . S
C4643 C4641 1.389 . S
C4643 C4644 1.524 . S
C4644 C4643 1.524 . S
C4644 C4645 1.397 . S
C4644 C4649 1.363 . S
C4645 H4616 0.950 . S
C4645 C4644 1.397 . S
C4645 C4646 1.334 . S
C4646 H4617 0.950 . S
C4646 C4645 1.334 . S
C4646 C4647 1.287 . S
C4647 C4646 1.287 . S
C4647 C4648 1.524 . S
C4647 H4650 0.999 . S
C4648 H4618 0.950 . S
C4648 C4647 1.524 . S
C4648 C4649 1.415 . S
C4649 H4619 0.950 . S
C4649 C4644 1.363 . S
C4649 C4648 1.415 . S
H4650 C4647 0.999 . S
H4651 C4632 0.913 . S
H4652 C4670 0.951 . S
H4653 C4672 0.951 . S
H4654 C4674 0.950 . S
H4655 C4675 0.950 . S
H4656 C4677 0.950 . S
H4657 C4680 0.950 . S
H4658 C4681 0.950 1_655 S
H4659 C4683 0.950 . S
H4660 C4684 0.950 . S
H4661 C4685 0.951 . S
H4662 C4687 0.951 . S
H4663 C4689 0.950 . S
H4664 C4690 0.950 . S
H4665 C4692 0.950 . S
H4666 C4695 0.950 . S
H4667 C4696 0.950 . S
H4668 C4698 0.950 . S
H4669 C4699 0.950 . S
C4670 H4652 0.951 . S
C4670 C4671 1.366 . S
C4670 C4672 1.388 . S
C4671 C4670 1.366 . S
C4671 C4675 1.385 . S
C4672 H4653 0.951 . S
C4672 C4670 1.388 . S
C4672 C4673 1.366 . S
C4673 C4672 1.366 . S
C4673 C4674 1.414 . S
C4673 C4676 1.499 . S
C4674 H4654 0.950 . S
C4674 C4673 1.414 . S
C4674 C4675 1.374 . S
C4675 H4655 0.950 . S
C4675 C4671 1.385 . S
C4675 C4674 1.374 . S
C4676 C4673 1.499 . S
C4676 C4677 1.373 . S
C4676 C4678 1.389 . S
C4677 H4656 0.950 . S
C4677 C4676 1.373 . S
C4677 C4693 1.377 . S
C4678 C4676 1.389 . S
C4678 C4679 1.524 . S
C4678 C4692 1.377 . S
C4679 C4678 1.524 . S
C4679 C4680 1.397 . S
C4679 C4684 1.363 . S
C4680 H4657 0.950 . S
C4680 C4679 1.397 . S
C4680 C4681 1.334 . S
C4681 H4658 0.950 1_455 S
C4681 C4680 1.334 . S
C4681 C4682 1.287 . S
C4682 C4681 1.287 . S
C4682 C4683 1.524 . S
C4682 H4701 0.913 1_455 S
C4683 H4659 0.950 . S
C4683 C4682 1.524 . S
C4683 C4684 1.415 . S
C4684 H4660 0.950 . S
C4684 C4679 1.363 . S
C4684 C4683 1.415 . S
C4685 H4661 0.951 . S
C4685 C4686 1.366 . S
C4685 C4687 1.388 . S
C4686 C4685 1.366 . S
C4686 C4690 1.385 . S
C4687 H4662 0.951 . S
C4687 C4685 1.388 . S
C4687 C4688 1.366 . S
C4688 C4687 1.366 . S
C4688 C4689 1.414 . S
C4688 C4691 1.499 . S
C4689 H4663 0.950 . S
C4689 C4688 1.414 . S
C4689 C4690 1.374 . S
C4690 H4664 0.950 . S
C4690 C4686 1.385 . S
C4690 C4689 1.374 . S
C4691 C4688 1.499 . S
C4691 C4692 1.373 . S
C4691 C4693 1.389 . S
C4692 H4665 0.950 . S
C4692 C4678 1.377 . S
C4692 C4691 1.373 . S
C4693 C4677 1.377 . S
C4693 C4691 1.389 . S
C4693 C4694 1.524 . S
C4694 C4693 1.524 . S
C4694 C4695 1.397 . S
C4694 C4699 1.363 . S
C4695 H4666 0.950 . S
C4695 C4694 1.397 . S
C4695 C4696 1.334 . S
C4696 H4667 0.950 . S
C4696 C4695 1.334 . S
C4696 C4697 1.287 . S
C4697 C4696 1.287 . S
C4697 C4698 1.524 . S
C4697 H4700 0.999 . S
C4698 H4668 0.950 . S
C4698 C4697 1.524 . S
C4698 C4699 1.415 . S
C4699 H4669 0.950 . S
C4699 C4694 1.363 . S
C4699 C4698 1.415 . S
H4700 C4697 0.999 . S
H4701 C4682 0.913 1_655 S
H4702 C4720 0.951 . S
H4703 C4722 0.951 . S
H4704 C4724 0.950 . S
H4705 C4725 0.950 . S
H4706 C4727 0.950 . S
H4707 C4730 0.950 . S
H4708 C4731 0.950 . S
H4709 C4733 0.950 . S
H4710 C4734 0.950 . S
H4711 C4735 0.951 . S
H4712 C4737 0.951 . S
H4713 C4739 0.950 . S
H4714 C4740 0.950 . S
H4715 C4742 0.950 . S
H4716 C4745 0.950 . S
H4717 C4746 0.950 . S
H4718 C4748 0.950 . S
H4719 C4749 0.950 . S
C4720 H4702 0.951 . S
C4720 C4721 1.366 . S
C4720 C4722 1.388 . S
C4721 C4720 1.366 . S
C4721 C4725 1.385 . S
C4722 H4703 0.951 . S
C4722 C4720 1.388 . S
C4722 C4723 1.366 . S
C4723 C4722 1.366 . S
C4723 C4724 1.414 . S
C4723 C4726 1.499 . S
C4724 H4704 0.950 . S
C4724 C4723 1.414 . S
C4724 C4725 1.374 . S
C4725 H4705 0.950 . S
C4725 C4721 1.385 . S
C4725 C4724 1.374 . S
C4726 C4723 1.499 . S
C4726 C4727 1.373 . S
C4726 C4728 1.389 . S
C4727 H4706 0.950 . S
C4727 C4726 1.373 . S
C4727 C4743 1.377 . S
C4728 C4726 1.389 . S
C4728 C4729 1.524 . S
C4728 C4742 1.377 . S
C4729 C4728 1.524 . S
C4729 C4730 1.397 . S
C4729 C4734 1.363 . S
C4730 H4707 0.950 . S
C4730 C4729 1.397 . S
C4730 C4731 1.334 . S
C4731 H4708 0.950 . S
C4731 C4730 1.334 . S
C4731 C4732 1.287 . S
C4732 C4731 1.287 . S
C4732 C4733 1.524 . S
C4732 H4751 0.913 . S
C4733 H4709 0.950 . S
C4733 C4732 1.524 . S
C4733 C4734 1.415 . S
C4734 H4710 0.950 . S
C4734 C4729 1.363 . S
C4734 C4733 1.415 . S
C4735 H4711 0.951 . S
C4735 C4736 1.366 . S
C4735 C4737 1.388 . S
C4736 C4735 1.366 . S
C4736 C4740 1.385 . S
C4737 H4712 0.951 . S
C4737 C4735 1.388 . S
C4737 C4738 1.366 . S
C4738 C4737 1.366 . S
C4738 C4739 1.414 . S
C4738 C4741 1.499 . S
C4739 H4713 0.950 . S
C4739 C4738 1.414 . S
C4739 C4740 1.374 . S
C4740 H4714 0.950 . S
C4740 C4736 1.385 . S
C4740 C4739 1.374 . S
C4741 C4738 1.499 . S
C4741 C4742 1.373 . S
C4741 C4743 1.389 . S
C4742 H4715 0.950 . S
C4742 C4728 1.377 . S
C4742 C4741 1.373 . S
C4743 C4727 1.377 . S
C4743 C4741 1.389 . S
C4743 C4744 1.524 . S
C4744 C4743 1.524 . S
C4744 C4745 1.397 . S
C4744 C4749 1.363 . S
C4745 H4716 0.950 . S
C4745 C4744 1.397 . S
C4745 C4746 1.334 . S
C4746 H4717 0.950 . S
C4746 C4745 1.334 . S
C4746 C4747 1.287 . S
C4747 C4746 1.287 . S
C4747 C4748 1.524 . S
C4747 H4750 0.999 . S
C4748 H4718 0.950 . S
C4748 C4747 1.524 . S
C4748 C4749 1.415 . S
C4749 H4719 0.950 . S
C4749 C4744 1.363 . S
C4749 C4748 1.415 . S
H4750 C4747 0.999 . S
H4751 C4732 0.913 . S
H4752 C4770 0.951 . S
H4753 C4772 0.951 . S
H4754 C4774 0.950 . S
H4755 C4775 0.950 . S
H4756 C4777 0.950 . S
H4757 C4780 0.950 . S
H4758 C4781 0.950 . S
H4759 C4783 0.950 . S
H4760 C4784 0.950 . S
H4761 C4785 0.951 . S
H4762 C4787 0.951 . S
H4763 C4789 0.950 . S
H4764 C4790 0.950 1_554 S
H4765 C4792 0.950 . S
H4766 C4795 0.950 . S
H4767 C4796 0.950 . S
H4768 C4798 0.950 . S
H4769 C4799 0.950 . S
C4770 H4752 0.951 . S
C4770 C4771 1.366 . S
C4770 C4772 1.388 . S
C4771 C4770 1.366 . S
C4771 C4775 1.385 . S
C4772 H4753 0.951 . S
C4772 C4770 1.388 . S
C4772 C4773 1.366 . S
C4773 C4772 1.366 . S
C4773 C4774 1.414 . S
C4773 C4776 1.499 . S
C4774 H4754 0.950 . S
C4774 C4773 1.414 . S
C4774 C4775 1.374 . S
C4775 H4755 0.950 . S
C4775 C4771 1.385 . S
C4775 C4774 1.374 . S
C4776 C4773 1.499 . S
C4776 C4777 1.373 . S
C4776 C4778 1.389 . S
C4777 H4756 0.950 . S
C4777 C4776 1.373 . S
C4777 C4793 1.377 . S
C4778 C4776 1.389 . S
C4778 C4779 1.524 . S
C4778 C4792 1.377 . S
C4779 C4778 1.524 . S
C4779 C4780 1.397 . S
C4779 C4784 1.363 . S
C4780 H4757 0.950 . S
C4780 C4779 1.397 . S
C4780 C4781 1.334 . S
C4781 H4758 0.950 . S
C4781 C4780 1.334 . S
C4781 C4782 1.287 . S
C4782 C4781 1.287 . S
C4782 C4783 1.524 . S
C4782 H4801 0.913 . S
C4783 H4759 0.950 . S
C4783 C4782 1.524 . S
C4783 C4784 1.415 . S
C4784 H4760 0.950 . S
C4784 C4779 1.363 . S
C4784 C4783 1.415 . S
C4785 H4761 0.951 . S
C4785 C4786 1.366 . S
C4785 C4787 1.388 . S
C4786 C4785 1.366 . S
C4786 C4790 1.385 . S
C4787 H4762 0.951 . S
C4787 C4785 1.388 . S
C4787 C4788 1.366 . S
C4788 C4787 1.366 . S
C4788 C4789 1.414 . S
C4788 C4791 1.499 . S
C4789 H4763 0.950 . S
C4789 C4788 1.414 . S
C4789 C4790 1.374 . S
C4790 H4764 0.950 1_556 S
C4790 C4786 1.385 . S
C4790 C4789 1.374 . S
C4791 C4788 1.499 . S
C4791 C4792 1.373 . S
C4791 C4793 1.389 . S
C4792 H4765 0.950 . S
C4792 C4778 1.377 . S
C4792 C4791 1.373 . S
C4793 C4777 1.377 . S
C4793 C4791 1.389 . S
C4793 C4794 1.524 . S
C4794 C4793 1.524 . S
C4794 C4795 1.397 . S
C4794 C4799 1.363 . S
C4795 H4766 0.950 . S
C4795 C4794 1.397 . S
C4795 C4796 1.334 . S
C4796 H4767 0.950 . S
C4796 C4795 1.334 . S
C4796 C4797 1.287 . S
C4797 C4796 1.287 . S
C4797 C4798 1.524 . S
C4797 H4800 0.999 . S
C4798 H4768 0.950 . S
C4798 C4797 1.524 . S
C4798 C4799 1.415 . S
C4799 H4769 0.950 . S
C4799 C4794 1.363 . S
C4799 C4798 1.415 . S
H4800 C4797 0.999 . S
H4801 C4782 0.913 . S
H4802 C4820 0.951 . S
H4803 C4822 0.951 . S
H4804 C4824 0.950 . S
H4805 C4825 0.950 . S
H4806 C4827 0.950 . S
H4807 C4830 0.950 . S
H4808 C4831 0.950 . S
H4809 C4833 0.950 . S
H4810 C4834 0.950 . S
H4811 C4835 0.951 . S
H4812 C4837 0.951 . S
H4813 C4839 0.950 . S
H4814 C4840 0.950 . S
H4815 C4842 0.950 . S
H4816 C4845 0.950 . S
H4817 C4846 0.950 . S
H4818 C4848 0.950 . S
H4819 C4849 0.950 . S
C4820 H4802 0.951 . S
C4820 C4821 1.366 . S
C4820 C4822 1.388 . S
C4821 C4820 1.366 . S
C4821 C4825 1.385 . S
C4822 H4803 0.951 . S
C4822 C4820 1.388 . S
C4822 C4823 1.366 . S
C4823 C4822 1.366 . S
C4823 C4824 1.414 . S
C4823 C4826 1.499 . S
C4824 H4804 0.950 . S
C4824 C4823 1.414 . S
C4824 C4825 1.374 . S
C4825 H4805 0.950 . S
C4825 C4821 1.385 . S
C4825 C4824 1.374 . S
C4826 C4823 1.499 . S
C4826 C4827 1.373 . S
C4826 C4828 1.389 . S
C4827 H4806 0.950 . S
C4827 C4826 1.373 . S
C4827 C4843 1.377 . S
C4828 C4826 1.389 . S
C4828 C4829 1.524 . S
C4828 C4842 1.377 . S
C4829 C4828 1.524 . S
C4829 C4830 1.397 . S
C4829 C4834 1.363 . S
C4830 H4807 0.950 . S
C4830 C4829 1.397 . S
C4830 C4831 1.334 . S
C4831 H4808 0.950 . S
C4831 C4830 1.334 . S
C4831 C4832 1.287 . S
C4832 C4831 1.287 . S
C4832 C4833 1.524 . S
C4832 H4851 0.913 . S
C4833 H4809 0.950 . S
C4833 C4832 1.524 . S
C4833 C4834 1.415 . S
C4834 H4810 0.950 . S
C4834 C4829 1.363 . S
C4834 C4833 1.415 . S
C4835 H4811 0.951 . S
C4835 C4836 1.366 . S
C4835 C4837 1.388 . S
C4836 C4835 1.366 . S
C4836 C4840 1.385 . S
C4837 H4812 0.951 . S
C4837 C4835 1.388 . S
C4837 C4838 1.366 . S
C4838 C4837 1.366 . S
C4838 C4839 1.414 . S
C4838 C4841 1.499 . S
C4839 H4813 0.950 . S
C4839 C4838 1.414 . S
C4839 C4840 1.374 . S
C4840 H4814 0.950 . S
C4840 C4836 1.385 . S
C4840 C4839 1.374 . S
C4841 C4838 1.499 . S
C4841 C4842 1.373 . S
C4841 C4843 1.389 . S
C4842 H4815 0.950 . S
C4842 C4828 1.377 . S
C4842 C4841 1.373 . S
C4843 C4827 1.377 . S
C4843 C4841 1.389 . S
C4843 C4844 1.524 . S
C4844 C4843 1.524 . S
C4844 C4845 1.397 . S
C4844 C4849 1.363 . S
C4845 H4816 0.950 . S
C4845 C4844 1.397 . S
C4845 C4846 1.334 . S
C4846 H4817 0.950 . S
C4846 C4845 1.334 . S
C4846 C4847 1.287 . S
C4847 C4846 1.287 . S
C4847 C4848 1.524 . S
C4847 H4850 0.999 . S
C4848 H4818 0.950 . S
C4848 C4847 1.524 . S
C4848 C4849 1.415 . S
C4849 H4819 0.950 . S
C4849 C4844 1.363 . S
C4849 C4848 1.415 . S
H4850 C4847 0.999 . S
H4851 C4832 0.913 . S
H4852 C4870 0.951 1_655 S
H4853 C4872 0.918 1_655 S
H4854 C4874 0.950 . S
H4855 C4875 0.950 . S
H4856 C4877 0.950 . S
H4857 C4880 0.950 . S
H4858 C4881 0.950 . S
H4859 C4883 0.950 . S
H4860 C4884 0.950 . S
H4861 C4885 0.951 . S
H4862 C4887 0.951 . S
H4863 C4889 0.950 . S
H4864 C4890 0.950 . S
H4865 C4892 0.950 . S
H4866 C4895 0.987 . S
H4867 C4896 0.950 1_655 S
H4868 C4898 0.950 . S
H4869 C4899 0.950 . S
C4870 H4852 0.951 1_455 S
C4870 C4871 1.366 . S
C4870 C4872 1.388 . S
C4871 C4870 1.366 . S
C4871 C4875 1.385 . S
C4872 H4853 0.918 1_455 S
C4872 C4870 1.388 . S
C4872 C4873 1.366 . S
C4873 C4872 1.366 . S
C4873 C4874 1.414 . S
C4873 C4876 1.499 . S
C4874 H4854 0.950 . S
C4874 C4873 1.414 . S
C4874 C4875 1.374 . S
C4875 H4855 0.950 . S
C4875 C4871 1.385 . S
C4875 C4874 1.374 . S
C4876 C4873 1.499 . S
C4876 C4877 1.373 . S
C4876 C4878 1.389 . S
C4877 H4856 0.950 . S
C4877 C4876 1.373 . S
C4877 C4893 1.377 . S
C4878 C4876 1.389 . S
C4878 C4879 1.524 . S
C4878 C4892 1.377 . S
C4879 C4878 1.524 . S
C4879 C4880 1.397 . S
C4879 C4884 1.363 . S
C4880 H4857 0.950 . S
C4880 C4879 1.397 . S
C4880 C4881 1.334 . S
C4881 H4858 0.950 . S
C4881 C4880 1.334 . S
C4881 C4882 1.287 . S
C4882 C4881 1.287 . S
C4882 C4883 1.524 . S
C4882 H4901 0.913 . S
C4883 H4859 0.950 . S
C4883 C4882 1.524 . S
C4883 C4884 1.415 . S
C4884 H4860 0.950 . S
C4884 C4879 1.363 . S
C4884 C4883 1.415 . S
C4885 H4861 0.951 . S
C4885 C4886 1.366 . S
C4885 C4887 1.388 . S
C4886 C4885 1.366 . S
C4886 C4890 1.385 . S
C4887 H4862 0.951 . S
C4887 C4885 1.388 . S
C4887 C4888 1.366 . S
C4888 C4887 1.366 . S
C4888 C4889 1.414 . S
C4888 C4891 1.499 . S
C4889 H4863 0.950 . S
C4889 C4888 1.414 . S
C4889 C4890 1.374 . S
C4890 H4864 0.950 . S
C4890 C4886 1.385 . S
C4890 C4889 1.374 . S
C4891 C4888 1.499 . S
C4891 C4892 1.373 . S
C4891 C4893 1.389 . S
C4892 H4865 0.950 . S
C4892 C4878 1.377 . S
C4892 C4891 1.373 . S
C4893 C4877 1.377 . S
C4893 C4891 1.389 . S
C4893 C4894 1.524 . S
C4894 C4893 1.524 . S
C4894 C4895 1.397 . S
C4894 C4899 1.363 . S
C4895 H4866 0.987 . S
C4895 C4894 1.397 . S
C4895 C4896 1.334 . S
C4896 H4867 0.950 1_455 S
C4896 C4895 1.334 . S
C4896 C4897 1.287 . S
C4897 C4896 1.287 . S
C4897 C4898 1.524 . S
C4897 H4900 0.999 . S
C4898 H4868 0.950 . S
C4898 C4897 1.524 . S
C4898 C4899 1.415 . S
C4899 H4869 0.950 . S
C4899 C4894 1.363 . S
C4899 C4898 1.415 . S
H4900 C4897 0.999 . S
H4901 C4882 0.913 . S
H4902 C4920 0.951 . S
H4903 C4922 0.951 . S
H4904 C4924 0.950 . S
H4905 C4925 0.950 . S
H4906 C4927 0.950 . S
H4907 C4930 0.950 . S
H4908 C4931 0.950 . S
H4909 C4933 0.950 . S
H4910 C4934 0.950 . S
H4911 C4935 0.951 . S
H4912 C4937 0.951 . S
H4913 C4939 0.950 . S
H4914 C4940 0.950 . S
H4915 C4942 0.950 . S
H4916 C4945 0.950 . S
H4917 C4946 0.950 . S
H4918 C4948 0.950 . S
H4919 C4949 0.950 . S
C4920 H4902 0.951 . S
C4920 C4921 1.366 . S
C4920 C4922 1.388 . S
C4921 C4920 1.366 . S
C4921 C4925 1.385 . S
C4922 H4903 0.951 . S
C4922 C4920 1.388 . S
C4922 C4923 1.366 . S
C4923 C4922 1.366 . S
C4923 C4924 1.414 . S
C4923 C4926 1.499 . S
C4924 H4904 0.950 . S
C4924 C4923 1.414 . S
C4924 C4925 1.374 . S
C4925 H4905 0.950 . S
C4925 C4921 1.385 . S
C4925 C4924 1.374 . S
C4926 C4923 1.499 . S
C4926 C4927 1.373 . S
C4926 C4928 1.389 . S
C4927 H4906 0.950 . S
C4927 C4926 1.373 . S
C4927 C4943 1.377 . S
C4928 C4926 1.389 . S
C4928 C4929 1.524 . S
C4928 C4942 1.377 . S
C4929 C4928 1.524 . S
C4929 C4930 1.397 . S
C4929 C4934 1.363 . S
C4930 H4907 0.950 . S
C4930 C4929 1.397 . S
C4930 C4931 1.334 . S
C4931 H4908 0.950 . S
C4931 C4930 1.334 . S
C4931 C4932 1.287 . S
C4932 C4931 1.287 . S
C4932 C4933 1.524 . S
C4932 H4951 0.913 . S
C4933 H4909 0.950 . S
C4933 C4932 1.524 . S
C4933 C4934 1.415 . S
C4934 H4910 0.950 . S
C4934 C4929 1.363 . S
C4934 C4933 1.415 . S
C4935 H4911 0.951 . S
C4935 C4936 1.366 . S
C4935 C4937 1.388 . S
C4936 C4935 1.366 . S
C4936 C4940 1.385 . S
C4937 H4912 0.951 . S
C4937 C4935 1.388 . S
C4937 C4938 1.366 . S
C4938 C4937 1.366 . S
C4938 C4939 1.414 . S
C4938 C4941 1.499 . S
C4939 H4913 0.950 . S
C4939 C4938 1.414 . S
C4939 C4940 1.374 . S
C4940 H4914 0.950 . S
C4940 C4936 1.385 . S
C4940 C4939 1.374 . S
C4941 C4938 1.499 . S
C4941 C4942 1.373 . S
C4941 C4943 1.389 . S
C4942 H4915 0.950 . S
C4942 C4928 1.377 . S
C4942 C4941 1.373 . S
C4943 C4927 1.377 . S
C4943 C4941 1.389 . S
C4943 C4944 1.524 . S
C4944 C4943 1.524 . S
C4944 C4945 1.397 . S
C4944 C4949 1.363 . S
C4945 H4916 0.950 . S
C4945 C4944 1.397 . S
C4945 C4946 1.334 . S
C4946 H4917 0.950 . S
C4946 C4945 1.334 . S
C4946 C4947 1.287 . S
C4947 C4946 1.287 . S
C4947 C4948 1.524 . S
C4947 H4950 0.999 . S
C4948 H4918 0.950 . S
C4948 C4947 1.524 . S
C4948 C4949 1.415 . S
C4949 H4919 0.950 . S
C4949 C4944 1.363 . S
C4949 C4948 1.415 . S
H4950 C4947 0.999 . S
H4951 C4932 0.913 . S
H4952 C4970 0.951 . S
H4953 C4972 0.951 . S
H4954 C4974 0.950 . S
H4955 C4975 0.950 . S
H4956 C4977 0.950 . S
H4957 C4980 0.950 . S
H4958 C4981 0.950 . S
H4959 C4983 0.950 . S
H4960 C4984 0.950 . S
H4961 C4985 0.951 . S
H4962 C4987 0.951 . S
H4963 C4989 0.950 . S
H4964 C4990 0.950 . S
H4965 C4992 0.950 . S
H4966 C4995 0.950 . S
H4967 C4996 0.950 . S
H4968 C4998 0.950 . S
H4969 C4999 0.950 . S
C4970 H4952 0.951 . S
C4970 C4971 1.366 . S
C4970 C4972 1.388 . S
C4971 C4970 1.366 . S
C4971 C4975 1.385 . S
C4972 H4953 0.951 . S
C4972 C4970 1.388 . S
C4972 C4973 1.366 . S
C4973 C4972 1.366 . S
C4973 C4974 1.414 . S
C4973 C4976 1.499 . S
C4974 H4954 0.950 . S
C4974 C4973 1.414 . S
C4974 C4975 1.374 . S
C4975 H4955 0.950 . S
C4975 C4971 1.385 . S
C4975 C4974 1.374 . S
C4976 C4973 1.499 . S
C4976 C4977 1.373 . S
C4976 C4978 1.389 . S
C4977 H4956 0.950 . S
C4977 C4976 1.373 . S
C4977 C4993 1.377 . S
C4978 C4976 1.389 . S
C4978 C4979 1.524 . S
C4978 C4992 1.377 . S
C4979 C4978 1.524 . S
C4979 C4980 1.397 . S
C4979 C4984 1.363 . S
C4980 H4957 0.950 . S
C4980 C4979 1.397 . S
C4980 C4981 1.334 . S
C4981 H4958 0.950 . S
C4981 C4980 1.334 . S
C4981 C4982 1.287 . S
C4982 C4981 1.287 . S
C4982 C4983 1.524 . S
C4982 H5001 0.913 . S
C4983 H4959 0.950 . S
C4983 C4982 1.524 . S
C4983 C4984 1.415 . S
C4984 H4960 0.950 . S
C4984 C4979 1.363 . S
C4984 C4983 1.415 . S
C4985 H4961 0.951 . S
C4985 C4986 1.366 . S
C4985 C4987 1.388 . S
C4986 C4985 1.366 . S
C4986 C4990 1.385 . S
C4987 H4962 0.951 . S
C4987 C4985 1.388 . S
C4987 C4988 1.366 . S
C4988 C4987 1.366 . S
C4988 C4989 1.414 . S
C4988 C4991 1.499 . S
C4989 H4963 0.950 . S
C4989 C4988 1.414 . S
C4989 C4990 1.374 . S
C4990 H4964 0.950 . S
C4990 C4986 1.385 . S
C4990 C4989 1.374 . S
C4991 C4988 1.499 . S
C4991 C4992 1.373 . S
C4991 C4993 1.389 . S
C4992 H4965 0.950 . S
C4992 C4978 1.377 . S
C4992 C4991 1.373 . S
C4993 C4977 1.377 . S
C4993 C4991 1.389 . S
C4993 C4994 1.524 . S
C4994 C4993 1.524 . S
C4994 C4995 1.397 . S
C4994 C4999 1.363 . S
C4995 H4966 0.950 . S
C4995 C4994 1.397 . S
C4995 C4996 1.334 . S
C4996 H4967 0.950 . S
C4996 C4995 1.334 . S
C4996 C4997 1.287 . S
C4997 C4996 1.287 . S
C4997 C4998 1.524 . S
C4997 H5000 0.999 . S
C4998 H4968 0.950 . S
C4998 C4997 1.524 . S
C4998 C4999 1.415 . S
C4999 H4969 0.950 . S
C4999 C4994 1.363 . S
C4999 C4998 1.415 . S
H5000 C4997 0.999 . S
H5001 C4982 0.913 . S
H5002 C5020 0.951 . S
H5003 C5022 0.951 . S
H5004 C5024 0.950 . S
H5005 C5025 0.950 . S
H5006 C5027 0.950 . S
H5007 C5030 0.950 . S
H5008 C5031 0.950 . S
H5009 C5033 0.950 . S
H5010 C5034 0.950 . S
H5011 C5035 0.951 . S
H5012 C5037 0.951 . S
H5013 C5039 0.950 . S
H5014 C5040 0.950 . S
H5015 C5042 0.950 . S
H5016 C5045 0.950 . S
H5017 C5046 0.950 . S
H5018 C5048 0.950 . S
H5019 C5049 0.950 . S
C5020 H5002 0.951 . S
C5020 C5021 1.366 . S
C5020 C5022 1.388 . S
C5021 C5020 1.366 . S
C5021 C5025 1.385 . S
C5022 H5003 0.951 . S
C5022 C5020 1.388 . S
C5022 C5023 1.366 . S
C5023 C5022 1.366 . S
C5023 C5024 1.414 . S
C5023 C5026 1.499 . S
C5024 H5004 0.950 . S
C5024 C5023 1.414 . S
C5024 C5025 1.374 . S
C5025 H5005 0.950 . S
C5025 C5021 1.385 . S
C5025 C5024 1.374 . S
C5026 C5023 1.499 . S
C5026 C5027 1.373 . S
C5026 C5028 1.389 . S
C5027 H5006 0.950 . S
C5027 C5026 1.373 . S
C5027 C5043 1.377 . S
C5028 C5026 1.389 . S
C5028 C5029 1.524 . S
C5028 C5042 1.377 . S
C5029 C5028 1.524 . S
C5029 C5030 1.397 . S
C5029 C5034 1.363 . S
C5030 H5007 0.950 . S
C5030 C5029 1.397 . S
C5030 C5031 1.334 . S
C5031 H5008 0.950 . S
C5031 C5030 1.334 . S
C5031 C5032 1.287 . S
C5032 C5031 1.287 . S
C5032 C5033 1.524 . S
C5032 H5051 0.913 . S
C5033 H5009 0.950 . S
C5033 C5032 1.524 . S
C5033 C5034 1.415 . S
C5034 H5010 0.950 . S
C5034 C5029 1.363 . S
C5034 C5033 1.415 . S
C5035 H5011 0.951 . S
C5035 C5036 1.366 . S
C5035 C5037 1.388 . S
C5036 C5035 1.366 . S
C5036 C5040 1.385 . S
C5037 H5012 0.951 . S
C5037 C5035 1.388 . S
C5037 C5038 1.366 . S
C5038 C5037 1.366 . S
C5038 C5039 1.414 . S
C5038 C5041 1.499 . S
C5039 H5013 0.950 . S
C5039 C5038 1.414 . S
C5039 C5040 1.374 . S
C5040 H5014 0.950 . S
C5040 C5036 1.385 . S
C5040 C5039 1.374 . S
C5041 C5038 1.499 . S
C5041 C5042 1.373 . S
C5041 C5043 1.389 . S
C5042 H5015 0.950 . S
C5042 C5028 1.377 . S
C5042 C5041 1.373 . S
C5043 C5027 1.377 . S
C5043 C5041 1.389 . S
C5043 C5044 1.524 . S
C5044 C5043 1.524 . S
C5044 C5045 1.397 . S
C5044 C5049 1.363 . S
C5045 H5016 0.950 . S
C5045 C5044 1.397 . S
C5045 C5046 1.334 . S
C5046 H5017 0.950 . S
C5046 C5045 1.334 . S
C5046 C5047 1.287 . S
C5047 C5046 1.287 . S
C5047 C5048 1.524 . S
C5047 H5050 0.999 . S
C5048 H5018 0.950 . S
C5048 C5047 1.524 . S
C5048 C5049 1.415 . S
C5049 H5019 0.950 . S
C5049 C5044 1.363 . S
C5049 C5048 1.415 . S
H5050 C5047 0.999 . S
H5051 C5032 0.913 . S
H5052 C5070 0.951 . S
H5053 C5072 0.951 . S
H5054 C5074 0.950 . S
H5055 C5075 0.950 . S
H5056 C5077 0.950 . S
H5057 C5080 0.950 . S
H5058 C5081 0.950 . S
H5059 C5083 0.950 . S
H5060 C5084 0.950 . S
H5061 C5085 0.951 . S
H5062 C5087 0.951 . S
H5063 C5089 0.950 . S
H5064 C5090 0.950 . S
H5065 C5092 0.927 1_455 S
H5066 C5095 0.950 1_455 S
H5067 C5096 0.950 1_455 S
H5068 C5098 0.950 . S
H5069 C5099 0.950 . S
C5070 H5052 0.951 . S
C5070 C5071 1.366 . S
C5070 C5072 1.388 . S
C5071 C5070 1.366 . S
C5071 C5075 1.385 . S
C5072 H5053 0.951 . S
C5072 C5070 1.388 . S
C5072 C5073 1.366 . S
C5073 C5072 1.366 . S
C5073 C5074 1.414 . S
C5073 C5076 1.499 . S
C5074 H5054 0.950 . S
C5074 C5073 1.414 . S
C5074 C5075 1.374 . S
C5075 H5055 0.950 . S
C5075 C5071 1.385 . S
C5075 C5074 1.374 . S
C5076 C5073 1.499 . S
C5076 C5077 1.373 . S
C5076 C5078 1.389 . S
C5077 H5056 0.950 . S
C5077 C5076 1.373 . S
C5077 C5093 1.377 . S
C5078 C5076 1.389 . S
C5078 C5079 1.524 . S
C5078 C5092 1.388 . S
C5079 C5078 1.524 . S
C5079 C5080 1.397 . S
C5079 C5084 1.363 1_655 S
C5080 H5057 0.950 . S
C5080 C5079 1.397 . S
C5080 C5081 1.334 . S
C5081 H5058 0.950 . S
C5081 C5080 1.334 . S
C5081 C5082 1.287 . S
C5082 C5081 1.287 . S
C5082 C5083 1.524 1_655 S
C5082 H5101 0.913 . S
C5083 H5059 0.950 . S
C5083 C5082 1.524 1_455 S
C5083 C5084 1.415 . S
C5084 H5060 0.950 . S
C5084 C5079 1.363 1_455 S
C5084 C5083 1.415 . S
C5085 H5061 0.951 . S
C5085 C5086 1.366 1_655 S
C5085 C5087 1.388 . S
C5086 C5085 1.366 1_455 S
C5086 C5090 1.385 . S
C5087 H5062 0.951 . S
C5087 C5085 1.388 . S
C5087 C5088 1.366 1_655 S
C5088 C5087 1.366 1_455 S
C5088 C5089 1.414 . S
C5088 C5091 1.499 1_455 S
C5089 H5063 0.950 . S
C5089 C5088 1.414 . S
C5089 C5090 1.374 . S
C5090 H5064 0.950 . S
C5090 C5086 1.385 . S
C5090 C5089 1.374 . S
C5091 C5088 1.499 1_655 S
C5091 C5092 1.386 . S
C5091 C5093 1.389 . S
C5092 H5065 0.927 1_655 S
C5092 C5078 1.388 . S
C5092 C5091 1.386 . S
C5093 C5077 1.377 . S
C5093 C5091 1.389 . S
C5093 C5094 1.524 . S
C5094 C5093 1.524 . S
C5094 C5095 1.397 . S
C5094 C5099 1.363 . S
C5095 H5066 0.950 1_655 S
C5095 C5094 1.397 . S
C5095 C5096 1.334 . S
C5096 H5067 0.950 1_655 S
C5096 C5095 1.334 . S
C5096 C5097 1.287 . S
C5097 C5096 1.287 . S
C5097 C5098 1.524 . S
C5097 H5100 0.999 . S
C5098 H5068 0.950 . S
C5098 C5097 1.524 . S
C5098 C5099 1.415 . S
C5099 H5069 0.950 . S
C5099 C5094 1.363 . S
C5099 C5098 1.415 . S
H5100 C5097 0.999 . S
H5101 C5082 0.913 . S
H5102 C5120 0.951 . S
H5103 C5122 0.951 . S
H5104 C5124 0.950 . S
H5105 C5125 0.950 . S
H5106 C5127 0.950 . S
H5107 C5130 0.950 . S
H5108 C5131 0.950 . S
H5109 C5133 0.950 . S
H5110 C5134 0.950 . S
H5111 C5135 0.951 . S
H5112 C5137 0.951 . S
H5113 C5139 0.950 . S
H5114 C5140 0.950 . S
H5115 C5142 0.950 . S
H5116 C5145 0.950 . S
H5117 C5146 0.950 . S
H5118 C5148 0.950 . S
H5119 C5149 0.950 . S
C5120 H5102 0.951 . S
C5120 C5121 1.366 . S
C5120 C5122 1.388 . S
C5121 C5120 1.366 . S
C5121 C5125 1.385 . S
C5122 H5103 0.951 . S
C5122 C5120 1.388 . S
C5122 C5123 1.366 . S
C5123 C5122 1.366 . S
C5123 C5124 1.414 . S
C5123 C5126 1.499 . S
C5124 H5104 0.950 . S
C5124 C5123 1.414 . S
C5124 C5125 1.374 . S
C5125 H5105 0.950 . S
C5125 C5121 1.385 . S
C5125 C5124 1.374 . S
C5126 C5123 1.499 . S
C5126 C5127 1.373 . S
C5126 C5128 1.389 . S
C5127 H5106 0.950 . S
C5127 C5126 1.373 . S
C5127 C5143 1.377 . S
C5128 C5126 1.389 . S
C5128 C5129 1.524 . S
C5128 C5142 1.377 . S
C5129 C5128 1.524 . S
C5129 C5130 1.397 . S
C5129 C5134 1.363 . S
C5130 H5107 0.950 . S
C5130 C5129 1.397 . S
C5130 C5131 1.334 . S
C5131 H5108 0.950 . S
C5131 C5130 1.334 . S
C5131 C5132 1.287 . S
C5132 C5131 1.287 . S
C5132 C5133 1.524 . S
C5132 H5151 0.913 . S
C5133 H5109 0.950 . S
C5133 C5132 1.524 . S
C5133 C5134 1.415 . S
C5134 H5110 0.950 . S
C5134 C5129 1.363 . S
C5134 C5133 1.415 . S
C5135 H5111 0.951 . S
C5135 C5136 1.366 . S
C5135 C5137 1.388 . S
C5136 C5135 1.366 . S
C5136 C5140 1.385 . S
C5137 H5112 0.951 . S
C5137 C5135 1.388 . S
C5137 C5138 1.366 . S
C5138 C5137 1.366 . S
C5138 C5139 1.414 . S
C5138 C5141 1.499 . S
C5139 H5113 0.950 . S
C5139 C5138 1.414 . S
C5139 C5140 1.374 . S
C5140 H5114 0.950 . S
C5140 C5136 1.385 . S
C5140 C5139 1.374 . S
C5141 C5138 1.499 . S
C5141 C5142 1.373 . S
C5141 C5143 1.389 . S
C5142 H5115 0.950 . S
C5142 C5128 1.377 . S
C5142 C5141 1.373 . S
C5143 C5127 1.377 . S
C5143 C5141 1.389 . S
C5143 C5144 1.524 . S
C5144 C5143 1.524 . S
C5144 C5145 1.397 . S
C5144 C5149 1.363 . S
C5145 H5116 0.950 . S
C5145 C5144 1.397 . S
C5145 C5146 1.334 . S
C5146 H5117 0.950 . S
C5146 C5145 1.334 . S
C5146 C5147 1.287 . S
C5147 C5146 1.287 . S
C5147 C5148 1.524 . S
C5147 H5150 0.999 . S
C5148 H5118 0.950 . S
C5148 C5147 1.524 . S
C5148 C5149 1.415 . S
C5149 H5119 0.950 . S
C5149 C5144 1.363 . S
C5149 C5148 1.415 . S
H5150 C5147 0.999 . S
H5151 C5132 0.913 . S
H5152 C5170 0.951 . S
H5153 C5172 0.951 . S
H5154 C5174 0.950 . S
H5155 C5175 0.950 . S
H5156 C5177 0.950 . S
H5157 C5180 0.950 . S
H5158 C5181 0.950 . S
H5159 C5183 0.950 . S
H5160 C5184 0.950 . S
H5161 C5185 0.951 . S
H5162 C5187 0.951 . S
H5163 C5189 0.950 . S
H5164 C5190 0.950 . S
H5165 C5192 0.950 . S
H5166 C5195 0.950 . S
H5167 C5196 0.950 . S
H5168 C5198 0.950 . S
H5169 C5199 0.950 . S
C5170 H5152 0.951 . S
C5170 C5171 1.366 . S
C5170 C5172 1.388 . S
C5171 C5170 1.366 . S
C5171 C5175 1.385 . S
C5172 H5153 0.951 . S
C5172 C5170 1.388 . S
C5172 C5173 1.366 . S
C5173 C5172 1.366 . S
C5173 C5174 1.414 . S
C5173 C5176 1.499 . S
C5174 H5154 0.950 . S
C5174 C5173 1.414 . S
C5174 C5175 1.374 . S
C5175 H5155 0.950 . S
C5175 C5171 1.385 . S
C5175 C5174 1.374 . S
C5176 C5173 1.499 . S
C5176 C5177 1.373 . S
C5176 C5178 1.389 . S
C5177 H5156 0.950 . S
C5177 C5176 1.373 . S
C5177 C5193 1.377 . S
C5178 C5176 1.389 . S
C5178 C5179 1.524 . S
C5178 C5192 1.377 . S
C5179 C5178 1.524 . S
C5179 C5180 1.397 . S
C5179 C5184 1.363 . S
C5180 H5157 0.950 . S
C5180 C5179 1.397 . S
C5180 C5181 1.334 . S
C5181 H5158 0.950 . S
C5181 C5180 1.334 . S
C5181 C5182 1.287 . S
C5182 C5181 1.287 . S
C5182 C5183 1.524 . S
C5182 H5201 0.913 . S
C5183 H5159 0.950 . S
C5183 C5182 1.524 . S
C5183 C5184 1.415 . S
C5184 H5160 0.950 . S
C5184 C5179 1.363 . S
C5184 C5183 1.415 . S
C5185 H5161 0.951 . S
C5185 C5186 1.366 . S
C5185 C5187 1.388 . S
C5186 C5185 1.366 . S
C5186 C5190 1.385 . S
C5187 H5162 0.951 . S
C5187 C5185 1.388 . S
C5187 C5188 1.366 . S
C5188 C5187 1.366 . S
C5188 C5189 1.414 . S
C5188 C5191 1.499 . S
C5189 H5163 0.950 . S
C5189 C5188 1.414 . S
C5189 C5190 1.374 . S
C5190 H5164 0.950 . S
C5190 C5186 1.385 . S
C5190 C5189 1.374 . S
C5191 C5188 1.499 . S
C5191 C5192 1.373 . S
C5191 C5193 1.389 . S
C5192 H5165 0.950 . S
C5192 C5178 1.377 . S
C5192 C5191 1.373 . S
C5193 C5177 1.377 . S
C5193 C5191 1.389 . S
C5193 C5194 1.524 . S
C5194 C5193 1.524 . S
C5194 C5195 1.397 . S
C5194 C5199 1.363 . S
C5195 H5166 0.950 . S
C5195 C5194 1.397 . S
C5195 C5196 1.334 . S
C5196 H5167 0.950 . S
C5196 C5195 1.334 . S
C5196 C5197 1.287 . S
C5197 C5196 1.287 . S
C5197 C5198 1.524 . S
C5197 H5200 0.999 . S
C5198 H5168 0.950 . S
C5198 C5197 1.524 . S
C5198 C5199 1.415 . S
C5199 H5169 0.950 . S
C5199 C5194 1.363 . S
C5199 C5198 1.415 . S
H5200 C5197 0.999 . S
H5201 C5182 0.913 . S
H5202 C5220 0.951 . S
H5203 C5222 0.951 . S
H5204 C5224 0.950 . S
H5205 C5225 0.950 . S
H5206 C5227 0.950 . S
H5207 C5230 0.950 . S
H5208 C5231 0.950 . S
H5209 C5233 0.950 . S
H5210 C5234 0.950 . S
H5211 C5235 0.951 . S
H5212 C5237 0.951 . S
H5213 C5239 0.950 . S
H5214 C5240 0.950 . S
H5215 C5242 0.950 . S
H5216 C5245 0.950 . S
H5217 C5246 0.950 . S
H5218 C5248 0.950 . S
H5219 C5249 0.950 . S
C5220 H5202 0.951 . S
C5220 C5221 1.366 . S
C5220 C5222 1.388 . S
C5221 C5220 1.366 . S
C5221 C5225 1.385 . S
C5222 H5203 0.951 . S
C5222 C5220 1.388 . S
C5222 C5223 1.366 . S
C5223 C5222 1.366 . S
C5223 C5224 1.414 . S
C5223 C5226 1.499 . S
C5224 H5204 0.950 . S
C5224 C5223 1.414 . S
C5224 C5225 1.374 . S
C5225 H5205 0.950 . S
C5225 C5221 1.385 . S
C5225 C5224 1.374 . S
C5226 C5223 1.499 . S
C5226 C5227 1.373 . S
C5226 C5228 1.389 . S
C5227 H5206 0.950 . S
C5227 C5226 1.373 . S
C5227 C5243 1.377 . S
C5228 C5226 1.389 . S
C5228 C5229 1.524 . S
C5228 C5242 1.377 . S
C5229 C5228 1.524 . S
C5229 C5230 1.397 . S
C5229 C5234 1.363 . S
C5230 H5207 0.950 . S
C5230 C5229 1.397 . S
C5230 C5231 1.334 . S
C5231 H5208 0.950 . S
C5231 C5230 1.334 . S
C5231 C5232 1.287 . S
C5232 C5231 1.287 . S
C5232 C5233 1.524 . S
C5232 H5251 0.913 . S
C5233 H5209 0.950 . S
C5233 C5232 1.524 . S
C5233 C5234 1.415 . S
C5234 H5210 0.950 . S
C5234 C5229 1.363 . S
C5234 C5233 1.415 . S
C5235 H5211 0.951 . S
C5235 C5236 1.366 . S
C5235 C5237 1.388 . S
C5236 C5235 1.366 . S
C5236 C5240 1.385 . S
C5237 H5212 0.951 . S
C5237 C5235 1.388 . S
C5237 C5238 1.366 . S
C5238 C5237 1.366 . S
C5238 C5239 1.414 . S
C5238 C5241 1.499 . S
C5239 H5213 0.950 . S
C5239 C5238 1.414 . S
C5239 C5240 1.374 . S
C5240 H5214 0.950 . S
C5240 C5236 1.385 . S
C5240 C5239 1.374 . S
C5241 C5238 1.499 . S
C5241 C5242 1.373 . S
C5241 C5243 1.389 . S
C5242 H5215 0.950 . S
C5242 C5228 1.377 . S
C5242 C5241 1.373 . S
C5243 C5227 1.377 . S
C5243 C5241 1.389 . S
C5243 C5244 1.524 . S
C5244 C5243 1.524 . S
C5244 C5245 1.397 . S
C5244 C5249 1.363 . S
C5245 H5216 0.950 . S
C5245 C5244 1.397 . S
C5245 C5246 1.334 . S
C5246 H5217 0.950 . S
C5246 C5245 1.334 . S
C5246 C5247 1.287 . S
C5247 C5246 1.287 . S
C5247 C5248 1.524 . S
C5247 H5250 0.999 . S
C5248 H5218 0.950 . S
C5248 C5247 1.524 . S
C5248 C5249 1.415 . S
C5249 H5219 0.950 . S
C5249 C5244 1.363 . S
C5249 C5248 1.415 . S
H5250 C5247 0.999 . S
H5251 C5232 0.913 . S
H5252 C5270 0.951 . S
H5253 C5272 0.951 . S
H5254 C5274 0.950 . S
H5255 C5275 0.950 . S
H5256 C5277 0.950 . S
H5257 C5280 0.950 . S
H5258 C5281 0.950 . S
H5259 C5283 0.953 . S
H5260 C5284 0.950 . S
H5261 C5285 0.951 . S
H5262 C5287 0.951 . S
H5263 C5289 0.950 . S
H5264 C5290 0.950 . S
H5265 C5292 0.950 . S
H5266 C5295 0.950 . S
H5267 C5296 0.950 . S
H5268 C5298 0.950 . S
H5269 C5299 0.950 . S
C5270 H5252 0.951 . S
C5270 C5271 1.366 . S
C5270 C5272 1.388 . S
C5271 C5270 1.366 . S
C5271 C5275 1.385 . S
C5272 H5253 0.951 . S
C5272 C5270 1.388 . S
C5272 C5273 1.366 . S
C5273 C5272 1.366 . S
C5273 C5274 1.414 . S
C5273 C5276 1.499 . S
C5274 H5254 0.950 . S
C5274 C5273 1.414 . S
C5274 C5275 1.374 . S
C5275 H5255 0.950 . S
C5275 C5271 1.385 . S
C5275 C5274 1.374 . S
C5276 C5273 1.499 . S
C5276 C5277 1.373 . S
C5276 C5278 1.389 . S
C5277 H5256 0.950 . S
C5277 C5276 1.373 . S
C5277 C5293 1.377 . S
C5278 C5276 1.389 . S
C5278 C5279 1.524 . S
C5278 C5292 1.377 . S
C5279 C5278 1.524 . S
C5279 C5280 1.397 . S
C5279 C5284 1.363 . S
C5280 H5257 0.950 . S
C5280 C5279 1.397 . S
C5280 C5281 1.334 1_655 S
C5281 H5258 0.950 . S
C5281 C5280 1.334 1_455 S
C5281 C5282 1.287 . S
C5282 C5281 1.287 . S
C5282 C5283 1.528 . S
C5282 H5301 0.913 . S
C5283 H5259 0.953 . S
C5283 C5282 1.528 . S
C5283 C5284 1.408 1_455 S
C5284 H5260 0.950 . S
C5284 C5279 1.363 . S
C5284 C5283 1.408 1_655 S
C5285 H5261 0.951 . S
C5285 C5286 1.366 . S
C5285 C5287 1.388 . S
C5286 C5285 1.366 . S
C5286 C5290 1.385 . S
C5287 H5262 0.951 . S
C5287 C5285 1.388 . S
C5287 C5288 1.366 . S
C5288 C5287 1.366 . S
C5288 C5289 1.414 . S
C5288 C5291 1.499 . S
C5289 H5263 0.950 . S
C5289 C5288 1.414 . S
C5289 C5290 1.374 . S
C5290 H5264 0.950 . S
C5290 C5286 1.385 . S
C5290 C5289 1.374 . S
C5291 C5288 1.499 . S
C5291 C5292 1.373 . S
C5291 C5293 1.389 . S
C5292 H5265 0.950 . S
C5292 C5278 1.377 . S
C5292 C5291 1.373 . S
C5293 C5277 1.377 . S
C5293 C5291 1.389 . S
C5293 C5294 1.524 . S
C5294 C5293 1.524 . S
C5294 C5295 1.397 . S
C5294 C5299 1.363 . S
C5295 H5266 0.950 . S
C5295 C5294 1.397 . S
C5295 C5296 1.334 . S
C5296 H5267 0.950 . S
C5296 C5295 1.334 . S
C5296 C5297 1.287 . S
C5297 C5296 1.287 . S
C5297 C5298 1.524 . S
C5297 H5300 0.999 . S
C5298 H5268 0.950 . S
C5298 C5297 1.524 . S
C5298 C5299 1.415 . S
C5299 H5269 0.950 . S
C5299 C5294 1.363 . S
C5299 C5298 1.415 . S
H5300 C5297 0.999 . S
H5301 C5282 0.913 . S
H5302 C5320 0.951 . S
H5303 C5322 0.951 . S
H5304 C5324 0.950 . S
H5305 C5325 0.950 . S
H5306 C5327 0.950 . S
H5307 C5330 0.950 . S
H5308 C5331 0.950 . S
H5309 C5333 0.950 . S
H5310 C5334 0.950 . S
H5311 C5335 0.951 . S
H5312 C5337 0.951 . S
H5313 C5339 0.950 . S
H5314 C5340 0.950 . S
H5315 C5342 0.950 . S
H5316 C5345 0.950 . S
H5317 C5346 0.950 . S
H5318 C5348 0.950 . S
H5319 C5349 0.950 . S
C5320 H5302 0.951 . S
C5320 C5321 1.366 . S
C5320 C5322 1.388 . S
C5321 C5320 1.366 . S
C5321 C5325 1.385 . S
C5322 H5303 0.951 . S
C5322 C5320 1.388 . S
C5322 C5323 1.366 . S
C5323 C5322 1.366 . S
C5323 C5324 1.414 . S
C5323 C5326 1.499 . S
C5324 H5304 0.950 . S
C5324 C5323 1.414 . S
C5324 C5325 1.374 . S
C5325 H5305 0.950 . S
C5325 C5321 1.385 . S
C5325 C5324 1.374 . S
C5326 C5323 1.499 . S
C5326 C5327 1.373 . S
C5326 C5328 1.389 . S
C5327 H5306 0.950 . S
C5327 C5326 1.373 . S
C5327 C5343 1.377 . S
C5328 C5326 1.389 . S
C5328 C5329 1.524 . S
C5328 C5342 1.377 . S
C5329 C5328 1.524 . S
C5329 C5330 1.397 . S
C5329 C5334 1.363 . S
C5330 H5307 0.950 . S
C5330 C5329 1.397 . S
C5330 C5331 1.334 . S
C5331 H5308 0.950 . S
C5331 C5330 1.334 . S
C5331 C5332 1.287 . S
C5332 C5331 1.287 . S
C5332 C5333 1.524 . S
C5332 H5351 0.913 . S
C5333 H5309 0.950 . S
C5333 C5332 1.524 . S
C5333 C5334 1.415 . S
C5334 H5310 0.950 . S
C5334 C5329 1.363 . S
C5334 C5333 1.415 . S
C5335 H5311 0.951 . S
C5335 C5336 1.366 . S
C5335 C5337 1.388 . S
C5336 C5335 1.366 . S
C5336 C5340 1.385 . S
C5337 H5312 0.951 . S
C5337 C5335 1.388 . S
C5337 C5338 1.366 . S
C5338 C5337 1.366 . S
C5338 C5339 1.414 . S
C5338 C5341 1.499 . S
C5339 H5313 0.950 . S
C5339 C5338 1.414 . S
C5339 C5340 1.374 . S
C5340 H5314 0.950 . S
C5340 C5336 1.385 . S
C5340 C5339 1.374 . S
C5341 C5338 1.499 . S
C5341 C5342 1.373 . S
C5341 C5343 1.389 . S
C5342 H5315 0.950 . S
C5342 C5328 1.377 . S
C5342 C5341 1.373 . S
C5343 C5327 1.377 . S
C5343 C5341 1.389 . S
C5343 C5344 1.524 . S
C5344 C5343 1.524 . S
C5344 C5345 1.397 . S
C5344 C5349 1.363 . S
C5345 H5316 0.950 . S
C5345 C5344 1.397 . S
C5345 C5346 1.334 . S
C5346 H5317 0.950 . S
C5346 C5345 1.334 . S
C5346 C5347 1.287 . S
C5347 C5346 1.287 . S
C5347 C5348 1.524 . S
C5347 H5350 0.999 . S
C5348 H5318 0.950 . S
C5348 C5347 1.524 . S
C5348 C5349 1.415 . S
C5349 H5319 0.950 . S
C5349 C5344 1.363 . S
C5349 C5348 1.415 . S
H5350 C5347 0.999 . S
H5351 C5332 0.913 . S
H5352 C5370 0.951 . S
H5353 C5372 0.951 . S
H5354 C5374 0.950 . S
H5355 C5375 0.950 . S
H5356 C5377 0.950 . S
H5357 C5380 0.950 . S
H5358 C5381 0.950 . S
H5359 C5383 0.950 . S
H5360 C5384 0.950 . S
H5361 C5385 0.951 . S
H5362 C5387 0.951 . S
H5363 C5389 0.950 . S
H5364 C5390 0.950 . S
H5365 C5392 0.950 . S
H5366 C5395 0.950 . S
H5367 C5396 0.950 . S
H5368 C5398 0.950 . S
H5369 C5399 0.950 . S
C5370 H5352 0.951 . S
C5370 C5371 1.366 . S
C5370 C5372 1.388 . S
C5371 C5370 1.366 . S
C5371 C5375 1.385 . S
C5372 H5353 0.951 . S
C5372 C5370 1.388 . S
C5372 C5373 1.366 . S
C5373 C5372 1.366 . S
C5373 C5374 1.414 . S
C5373 C5376 1.499 . S
C5374 H5354 0.950 . S
C5374 C5373 1.414 . S
C5374 C5375 1.374 . S
C5375 H5355 0.950 . S
C5375 C5371 1.385 . S
C5375 C5374 1.374 . S
C5376 C5373 1.499 . S
C5376 C5377 1.373 . S
C5376 C5378 1.389 . S
C5377 H5356 0.950 . S
C5377 C5376 1.373 . S
C5377 C5393 1.377 . S
C5378 C5376 1.389 . S
C5378 C5379 1.524 . S
C5378 C5392 1.377 . S
C5379 C5378 1.524 . S
C5379 C5380 1.397 . S
C5379 C5384 1.363 . S
C5380 H5357 0.950 . S
C5380 C5379 1.397 . S
C5380 C5381 1.334 . S
C5381 H5358 0.950 . S
C5381 C5380 1.334 . S
C5381 C5382 1.287 . S
C5382 C5381 1.287 . S
C5382 C5383 1.524 . S
C5382 H5401 0.913 . S
C5383 H5359 0.950 . S
C5383 C5382 1.524 . S
C5383 C5384 1.415 . S
C5384 H5360 0.950 . S
C5384 C5379 1.363 . S
C5384 C5383 1.415 . S
C5385 H5361 0.951 . S
C5385 C5386 1.366 . S
C5385 C5387 1.388 . S
C5386 C5385 1.366 . S
C5386 C5390 1.385 . S
C5387 H5362 0.951 . S
C5387 C5385 1.388 . S
C5387 C5388 1.366 . S
C5388 C5387 1.366 . S
C5388 C5389 1.414 . S
C5388 C5391 1.499 . S
C5389 H5363 0.950 . S
C5389 C5388 1.414 . S
C5389 C5390 1.374 . S
C5390 H5364 0.950 . S
C5390 C5386 1.385 . S
C5390 C5389 1.374 . S
C5391 C5388 1.499 . S
C5391 C5392 1.373 . S
C5391 C5393 1.389 . S
C5392 H5365 0.950 . S
C5392 C5378 1.377 . S
C5392 C5391 1.373 . S
C5393 C5377 1.377 . S
C5393 C5391 1.389 . S
C5393 C5394 1.524 . S
C5394 C5393 1.524 . S
C5394 C5395 1.397 . S
C5394 C5399 1.363 . S
C5395 H5366 0.950 . S
C5395 C5394 1.397 . S
C5395 C5396 1.334 . S
C5396 H5367 0.950 . S
C5396 C5395 1.334 . S
C5396 C5397 1.287 . S
C5397 C5396 1.287 . S
C5397 C5398 1.524 . S
C5397 H5400 0.999 . S
C5398 H5368 0.950 . S
C5398 C5397 1.524 . S
C5398 C5399 1.415 . S
C5399 H5369 0.950 . S
C5399 C5394 1.363 . S
C5399 C5398 1.415 . S
H5400 C5397 0.999 . S
H5401 C5382 0.913 . S
H5402 C5420 0.951 . S
H5403 C5422 0.951 . S
H5404 C5424 0.950 . S
H5405 C5425 0.950 . S
H5406 C5427 0.950 . S
H5407 C5430 0.950 . S
H5408 C5431 0.950 . S
H5409 C5433 0.950 . S
H5410 C5434 0.950 1_545 S
H5411 C5435 0.951 1_565 S
H5412 C5437 0.951 . S
H5413 C5439 0.950 . S
H5414 C5440 0.950 . S
H5415 C5442 0.950 . S
H5416 C5445 0.950 . S
H5417 C5446 0.950 . S
H5418 C5448 0.950 . S
H5419 C5449 0.950 . S
C5420 H5402 0.951 . S
C5420 C5421 1.366 . S
C5420 C5422 1.388 . S
C5421 C5420 1.366 . S
C5421 C5425 1.385 . S
C5422 H5403 0.951 . S
C5422 C5420 1.388 . S
C5422 C5423 1.366 . S
C5423 C5422 1.366 . S
C5423 C5424 1.414 . S
C5423 C5426 1.499 . S
C5424 H5404 0.950 . S
C5424 C5423 1.414 . S
C5424 C5425 1.374 . S
C5425 H5405 0.950 . S
C5425 C5421 1.385 . S
C5425 C5424 1.374 . S
C5426 C5423 1.499 . S
C5426 C5427 1.373 . S
C5426 C5428 1.389 . S
C5427 H5406 0.950 . S
C5427 C5426 1.373 . S
C5427 C5443 1.377 . S
C5428 C5426 1.389 . S
C5428 C5429 1.524 . S
C5428 C5442 1.377 . S
C5429 C5428 1.524 . S
C5429 C5430 1.397 . S
C5429 C5434 1.363 . S
C5430 H5407 0.950 . S
C5430 C5429 1.397 . S
C5430 C5431 1.334 . S
C5431 H5408 0.950 . S
C5431 C5430 1.334 . S
C5431 C5432 1.287 . S
C5432 C5431 1.287 . S
C5432 C5433 1.524 . S
C5432 H5451 0.913 . S
C5433 H5409 0.950 . S
C5433 C5432 1.524 . S
C5433 C5434 1.415 . S
C5434 H5410 0.950 1_565 S
C5434 C5429 1.363 . S
C5434 C5433 1.415 . S
C5435 H5411 0.951 1_545 S
C5435 C5436 1.366 . S
C5435 C5437 1.388 1_545 S
C5436 C5435 1.366 . S
C5436 C5440 1.385 . S
C5437 H5412 0.951 . S
C5437 C5435 1.388 1_565 S
C5437 C5438 1.364 1_565 S
C5438 C5437 1.364 1_545 S
C5438 C5439 1.416 . S
C5438 C5441 1.498 1_545 S
C5439 H5413 0.950 . S
C5439 C5438 1.416 . S
C5439 C5440 1.374 . S
C5440 H5414 0.950 . S
C5440 C5436 1.385 . S
C5440 C5439 1.374 . S
C5441 C5438 1.498 1_565 S
C5441 C5442 1.373 . S
C5441 C5443 1.389 . S
C5442 H5415 0.950 . S
C5442 C5428 1.377 . S
C5442 C5441 1.373 . S
C5443 C5427 1.377 . S
C5443 C5441 1.389 . S
C5443 C5444 1.524 . S
C5444 C5443 1.524 . S
C5444 C5445 1.397 1_565 S
C5444 C5449 1.363 . S
C5445 H5416 0.950 . S
C5445 C5444 1.397 1_545 S
C5445 C5446 1.334 . S
C5446 H5417 0.950 . S
C5446 C5445 1.334 . S
C5446 C5447 1.287 1_545 S
C5447 C5446 1.287 1_565 S
C5447 C5448 1.524 . S
C5447 H5450 0.999 . S
C5448 H5418 0.950 . S
C5448 C5447 1.524 . S
C5448 C5449 1.415 . S
C5449 H5419 0.950 . S
C5449 C5444 1.363 . S
C5449 C5448 1.415 . S
H5450 C5447 0.999 . S
H5451 C5432 0.913 . S
H5452 C5470 0.951 . S
H5453 C5472 0.951 . S
H5454 C5474 0.950 . S
H5455 C5475 0.950 . S
H5456 C5477 0.950 . S
H5457 C5480 0.950 . S
H5458 C5481 0.950 . S
H5459 C5483 0.950 . S
H5460 C5484 0.950 . S
H5461 C5485 0.951 . S
H5462 C5487 0.951 . S
H5463 C5489 0.950 . S
H5464 C5490 0.950 . S
H5465 C5492 0.950 . S
H5466 C5495 0.950 . S
H5467 C5496 0.950 . S
H5468 C5498 0.950 . S
H5469 C5499 0.950 . S
C5470 H5452 0.951 . S
C5470 C5471 1.366 . S
C5470 C5472 1.388 . S
C5471 C5470 1.366 . S
C5471 C5475 1.385 . S
C5472 H5453 0.951 . S
C5472 C5470 1.388 . S
C5472 C5473 1.366 . S
C5473 C5472 1.366 . S
C5473 C5474 1.414 . S
C5473 C5476 1.499 . S
C5474 H5454 0.950 . S
C5474 C5473 1.414 . S
C5474 C5475 1.374 . S
C5475 H5455 0.950 . S
C5475 C5471 1.385 . S
C5475 C5474 1.374 . S
C5476 C5473 1.499 . S
C5476 C5477 1.373 . S
C5476 C5478 1.389 . S
C5477 H5456 0.950 . S
C5477 C5476 1.373 . S
C5477 C5493 1.377 . S
C5478 C5476 1.389 . S
C5478 C5479 1.524 . S
C5478 C5492 1.377 . S
C5479 C5478 1.524 . S
C5479 C5480 1.397 . S
C5479 C5484 1.363 . S
C5480 H5457 0.950 . S
C5480 C5479 1.397 . S
C5480 C5481 1.334 . S
C5481 H5458 0.950 . S
C5481 C5480 1.334 . S
C5481 C5482 1.287 . S
C5482 C5481 1.287 . S
C5482 C5483 1.524 . S
C5482 H5501 0.913 . S
C5483 H5459 0.950 . S
C5483 C5482 1.524 . S
C5483 C5484 1.415 . S
C5484 H5460 0.950 . S
C5484 C5479 1.363 . S
C5484 C5483 1.415 . S
C5485 H5461 0.951 . S
C5485 C5486 1.366 . S
C5485 C5487 1.388 . S
C5486 C5485 1.366 . S
C5486 C5490 1.385 . S
C5487 H5462 0.951 . S
C5487 C5485 1.388 . S
C5487 C5488 1.366 . S
C5488 C5487 1.366 . S
C5488 C5489 1.414 . S
C5488 C5491 1.499 . S
C5489 H5463 0.950 . S
C5489 C5488 1.414 . S
C5489 C5490 1.374 . S
C5490 H5464 0.950 . S
C5490 C5486 1.385 . S
C5490 C5489 1.374 . S
C5491 C5488 1.499 . S
C5491 C5492 1.373 . S
C5491 C5493 1.389 . S
C5492 H5465 0.950 . S
C5492 C5478 1.377 . S
C5492 C5491 1.373 . S
C5493 C5477 1.377 . S
C5493 C5491 1.389 . S
C5493 C5494 1.524 . S
C5494 C5493 1.524 . S
C5494 C5495 1.397 . S
C5494 C5499 1.363 . S
C5495 H5466 0.950 . S
C5495 C5494 1.397 . S
C5495 C5496 1.334 . S
C5496 H5467 0.950 . S
C5496 C5495 1.334 . S
C5496 C5497 1.287 . S
C5497 C5496 1.287 . S
C5497 C5498 1.524 . S
C5497 H5500 0.999 . S
C5498 H5468 0.950 . S
C5498 C5497 1.524 . S
C5498 C5499 1.415 . S
C5499 H5469 0.950 . S
C5499 C5494 1.363 . S
C5499 C5498 1.415 . S
H5500 C5497 0.999 . S
H5501 C5482 0.913 . S
H5502 C5520 0.951 . S
H5503 C5522 0.951 . S
H5504 C5524 0.950 . S
H5505 C5525 0.950 . S
H5506 C5527 0.950 . S
H5507 C5530 0.950 . S
H5508 C5531 0.950 . S
H5509 C5533 0.950 . S
H5510 C5534 0.950 . S
H5511 C5535 0.951 . S
H5512 C5537 0.951 . S
H5513 C5539 0.950 1_556 S
H5514 C5540 0.950 . S
H5515 C5542 0.950 . S
H5516 C5545 0.950 . S
H5517 C5546 0.950 . S
H5518 C5548 0.950 . S
H5519 C5549 0.950 . S
C5520 H5502 0.951 . S
C5520 C5521 1.366 . S
C5520 C5522 1.388 . S
C5521 C5520 1.366 . S
C5521 C5525 1.385 . S
C5522 H5503 0.951 . S
C5522 C5520 1.388 . S
C5522 C5523 1.366 . S
C5523 C5522 1.366 . S
C5523 C5524 1.414 . S
C5523 C5526 1.499 . S
C5524 H5504 0.950 . S
C5524 C5523 1.414 . S
C5524 C5525 1.374 . S
C5525 H5505 0.950 . S
C5525 C5521 1.385 . S
C5525 C5524 1.374 . S
C5526 C5523 1.499 . S
C5526 C5527 1.373 1_556 S
C5526 C5528 1.389 . S
C5527 H5506 0.950 . S
C5527 C5526 1.373 1_554 S
C5527 C5543 1.377 . S
C5528 C5526 1.389 . S
C5528 C5529 1.524 . S
C5528 C5542 1.377 . S
C5529 C5528 1.524 . S
C5529 C5530 1.397 . S
C5529 C5534 1.363 . S
C5530 H5507 0.950 . S
C5530 C5529 1.397 . S
C5530 C5531 1.334 . S
C5531 H5508 0.950 . S
C5531 C5530 1.334 . S
C5531 C5532 1.287 . S
C5532 C5531 1.287 . S
C5532 C5533 1.524 . S
C5532 H5551 0.913 . S
C5533 H5509 0.950 . S
C5533 C5532 1.524 . S
C5533 C5534 1.415 . S
C5534 H5510 0.950 . S
C5534 C5529 1.363 . S
C5534 C5533 1.415 . S
C5535 H5511 0.951 . S
C5535 C5536 1.366 . S
C5535 C5537 1.388 . S
C5536 C5535 1.366 . S
C5536 C5540 1.385 . S
C5537 H5512 0.951 . S
C5537 C5535 1.388 . S
C5537 C5538 1.366 . S
C5538 C5537 1.366 . S
C5538 C5539 1.414 . S
C5538 C5541 1.499 . S
C5539 H5513 0.950 1_554 S
C5539 C5538 1.414 . S
C5539 C5540 1.374 . S
C5540 H5514 0.950 . S
C5540 C5536 1.385 . S
C5540 C5539 1.374 . S
C5541 C5538 1.499 . S
C5541 C5542 1.373 1_554 S
C5541 C5543 1.389 . S
C5542 H5515 0.950 . S
C5542 C5528 1.377 . S
C5542 C5541 1.373 1_556 S
C5543 C5527 1.377 . S
C5543 C5541 1.389 . S
C5543 C5544 1.524 . S
C5544 C5543 1.524 . S
C5544 C5545 1.397 . S
C5544 C5549 1.363 . S
C5545 H5516 0.950 . S
C5545 C5544 1.397 . S
C5545 C5546 1.334 . S
C5546 H5517 0.950 . S
C5546 C5545 1.334 . S
C5546 C5547 1.287 . S
C5547 C5546 1.287 . S
C5547 C5548 1.524 . S
C5547 H5550 0.999 . S
C5548 H5518 0.950 . S
C5548 C5547 1.524 . S
C5548 C5549 1.415 . S
C5549 H5519 0.950 . S
C5549 C5544 1.363 . S
C5549 C5548 1.415 . S
H5550 C5547 0.999 . S
H5551 C5532 0.913 . S
H5552 C5570 0.951 . S
H5553 C5572 0.951 . S
H5554 C5574 0.950 . S
H5555 C5575 0.950 . S
H5556 C5577 0.950 . S
H5557 C5580 0.950 . S
H5558 C5581 0.950 . S
H5559 C5583 0.950 . S
H5560 C5584 0.950 . S
H5561 C5585 0.951 . S
H5562 C5587 0.951 . S
H5563 C5589 0.950 . S
H5564 C5590 0.950 . S
H5565 C5592 0.950 . S
H5566 C5595 0.950 . S
H5567 C5596 0.950 . S
H5568 C5598 0.950 . S
H5569 C5599 0.950 . S
C5570 H5552 0.951 . S
C5570 C5571 1.366 . S
C5570 C5572 1.388 . S
C5571 C5570 1.366 . S
C5571 C5575 1.385 . S
C5572 H5553 0.951 . S
C5572 C5570 1.388 . S
C5572 C5573 1.366 . S
C5573 C5572 1.366 . S
C5573 C5574 1.414 . S
C5573 C5576 1.499 . S
C5574 H5554 0.950 . S
C5574 C5573 1.414 . S
C5574 C5575 1.374 . S
C5575 H5555 0.950 . S
C5575 C5571 1.385 . S
C5575 C5574 1.374 . S
C5576 C5573 1.499 . S
C5576 C5577 1.373 . S
C5576 C5578 1.389 . S
C5577 H5556 0.950 . S
C5577 C5576 1.373 . S
C5577 C5593 1.377 . S
C5578 C5576 1.389 . S
C5578 C5579 1.524 . S
C5578 C5592 1.377 . S
C5579 C5578 1.524 . S
C5579 C5580 1.397 . S
C5579 C5584 1.363 . S
C5580 H5557 0.950 . S
C5580 C5579 1.397 . S
C5580 C5581 1.334 . S
C5581 H5558 0.950 . S
C5581 C5580 1.334 . S
C5581 C5582 1.287 . S
C5582 C5581 1.287 . S
C5582 C5583 1.524 . S
C5582 H5601 0.913 . S
C5583 H5559 0.950 . S
C5583 C5582 1.524 . S
C5583 C5584 1.415 . S
C5584 H5560 0.950 . S
C5584 C5579 1.363 . S
C5584 C5583 1.415 . S
C5585 H5561 0.951 . S
C5585 C5586 1.366 . S
C5585 C5587 1.388 . S
C5586 C5585 1.366 . S
C5586 C5590 1.385 . S
C5587 H5562 0.951 . S
C5587 C5585 1.388 . S
C5587 C5588 1.366 . S
C5588 C5587 1.366 . S
C5588 C5589 1.414 . S
C5588 C5591 1.499 . S
C5589 H5563 0.950 . S
C5589 C5588 1.414 . S
C5589 C5590 1.374 . S
C5590 H5564 0.950 . S
C5590 C5586 1.385 . S
C5590 C5589 1.374 . S
C5591 C5588 1.499 . S
C5591 C5592 1.373 . S
C5591 C5593 1.389 . S
C5592 H5565 0.950 . S
C5592 C5578 1.377 . S
C5592 C5591 1.373 . S
C5593 C5577 1.377 . S
C5593 C5591 1.389 . S
C5593 C5594 1.524 . S
C5594 C5593 1.524 . S
C5594 C5595 1.397 . S
C5594 C5599 1.363 . S
C5595 H5566 0.950 . S
C5595 C5594 1.397 . S
C5595 C5596 1.334 . S
C5596 H5567 0.950 . S
C5596 C5595 1.334 . S
C5596 C5597 1.287 . S
C5597 C5596 1.287 . S
C5597 C5598 1.524 . S
C5597 H5600 0.999 . S
C5598 H5568 0.950 . S
C5598 C5597 1.524 . S
C5598 C5599 1.415 . S
C5599 H5569 0.950 . S
C5599 C5594 1.363 . S
C5599 C5598 1.415 . S
H5600 C5597 0.999 . S
H5601 C5582 0.913 . S
H5602 C5620 0.951 . S
H5603 C5622 0.951 . S
H5604 C5624 0.950 . S
H5605 C5625 0.950 . S
H5606 C5627 0.950 . S
H5607 C5630 0.950 . S
H5608 C5631 0.950 . S
H5609 C5633 0.950 . S
H5610 C5634 0.906 1_554 S
H5611 C5635 0.951 . S
H5612 C5637 0.951 . S
H5613 C5639 0.950 . S
H5614 C5640 0.950 . S
H5615 C5642 0.950 . S
H5616 C5645 0.950 . S
H5617 C5646 0.950 . S
H5618 C5648 0.950 . S
H5619 C5649 0.950 . S
C5620 H5602 0.951 . S
C5620 C5621 1.366 . S
C5620 C5622 1.388 . S
C5621 C5620 1.366 . S
C5621 C5625 1.385 . S
C5622 H5603 0.951 . S
C5622 C5620 1.388 . S
C5622 C5623 1.366 . S
C5623 C5622 1.366 . S
C5623 C5624 1.414 . S
C5623 C5626 1.499 . S
C5624 H5604 0.950 . S
C5624 C5623 1.414 . S
C5624 C5625 1.374 . S
C5625 H5605 0.950 . S
C5625 C5621 1.385 . S
C5625 C5624 1.374 . S
C5626 C5623 1.499 . S
C5626 C5627 1.373 . S
C5626 C5628 1.389 . S
C5627 H5606 0.950 . S
C5627 C5626 1.373 . S
C5627 C5643 1.377 . S
C5628 C5626 1.389 . S
C5628 C5629 1.524 1_554 S
C5628 C5642 1.377 . S
C5629 C5628 1.524 1_556 S
C5629 C5630 1.397 . S
C5629 C5634 1.378 . S
C5630 H5607 0.950 . S
C5630 C5629 1.397 . S
C5630 C5631 1.334 . S
C5631 H5608 0.950 . S
C5631 C5630 1.334 . S
C5631 C5632 1.287 . S
C5632 C5631 1.287 . S
C5632 C5633 1.524 . S
C5632 H5651 0.913 . S
C5633 H5609 0.950 . S
C5633 C5632 1.524 . S
C5633 C5634 1.447 . S
C5634 H5610 0.906 1_556 S
C5634 C5629 1.378 . S
C5634 C5633 1.447 . S
C5635 H5611 0.951 . S
C5635 C5636 1.366 . S
C5635 C5637 1.388 . S
C5636 C5635 1.366 . S
C5636 C5640 1.385 . S
C5637 H5612 0.951 . S
C5637 C5635 1.388 . S
C5637 C5638 1.366 . S
C5638 C5637 1.366 . S
C5638 C5639 1.414 . S
C5638 C5641 1.499 . S
C5639 H5613 0.950 . S
C5639 C5638 1.414 . S
C5639 C5640 1.374 . S
C5640 H5614 0.950 . S
C5640 C5636 1.385 . S
C5640 C5639 1.374 . S
C5641 C5638 1.499 . S
C5641 C5642 1.373 . S
C5641 C5643 1.389 . S
C5642 H5615 0.950 . S
C5642 C5628 1.377 . S
C5642 C5641 1.373 . S
C5643 C5627 1.377 . S
C5643 C5641 1.389 . S
C5643 C5644 1.524 . S
C5644 C5643 1.524 . S
C5644 C5645 1.397 . S
C5644 C5649 1.363 . S
C5645 H5616 0.950 . S
C5645 C5644 1.397 . S
C5645 C5646 1.334 . S
C5646 H5617 0.950 . S
C5646 C5645 1.334 . S
C5646 C5647 1.287 . S
C5647 C5646 1.287 . S
C5647 C5648 1.524 . S
C5647 H5650 0.999 . S
C5648 H5618 0.950 . S
C5648 C5647 1.524 . S
C5648 C5649 1.415 . S
C5649 H5619 0.950 . S
C5649 C5644 1.363 . S
C5649 C5648 1.415 . S
H5650 C5647 0.999 . S
H5651 C5632 0.913 . S
H5652 C5670 0.951 . S
H5653 C5672 0.951 . S
H5654 C5674 0.950 . S
H5655 C5675 0.950 . S
H5656 C5677 0.950 . S
H5657 C5680 0.950 . S
H5658 C5681 0.950 . S
H5659 C5683 0.950 . S
H5660 C5684 0.950 . S
H5661 C5685 0.951 . S
H5662 C5687 0.951 . S
H5663 C5689 0.950 . S
H5664 C5690 0.950 . S
H5665 C5692 0.950 . S
H5666 C5695 0.950 . S
H5667 C5696 0.950 . S
H5668 C5698 0.950 . S
H5669 C5699 0.950 . S
C5670 H5652 0.951 . S
C5670 C5671 1.366 . S
C5670 C5672 1.388 . S
C5671 C5670 1.366 . S
C5671 C5675 1.385 . S
C5672 H5653 0.951 . S
C5672 C5670 1.388 . S
C5672 C5673 1.366 . S
C5673 C5672 1.366 . S
C5673 C5674 1.414 . S
C5673 C5676 1.499 . S
C5674 H5654 0.950 . S
C5674 C5673 1.414 . S
C5674 C5675 1.374 . S
C5675 H5655 0.950 . S
C5675 C5671 1.385 . S
C5675 C5674 1.374 . S
C5676 C5673 1.499 . S
C5676 C5677 1.373 . S
C5676 C5678 1.389 . S
C5677 H5656 0.950 . S
C5677 C5676 1.373 . S
C5677 C5693 1.377 . S
C5678 C5676 1.389 . S
C5678 C5679 1.524 . S
C5678 C5692 1.377 . S
C5679 C5678 1.524 . S
C5679 C5680 1.397 . S
C5679 C5684 1.363 . S
C5680 H5657 0.950 . S
C5680 C5679 1.397 . S
C5680 C5681 1.334 . S
C5681 H5658 0.950 . S
C5681 C5680 1.334 . S
C5681 C5682 1.287 . S
C5682 C5681 1.287 . S
C5682 C5683 1.524 . S
C5682 H5701 0.913 . S
C5683 H5659 0.950 . S
C5683 C5682 1.524 . S
C5683 C5684 1.415 . S
C5684 H5660 0.950 . S
C5684 C5679 1.363 . S
C5684 C5683 1.415 . S
C5685 H5661 0.951 . S
C5685 C5686 1.366 . S
C5685 C5687 1.388 . S
C5686 C5685 1.366 . S
C5686 C5690 1.385 . S
C5687 H5662 0.951 . S
C5687 C5685 1.388 . S
C5687 C5688 1.366 . S
C5688 C5687 1.366 . S
C5688 C5689 1.414 . S
C5688 C5691 1.499 . S
C5689 H5663 0.950 . S
C5689 C5688 1.414 . S
C5689 C5690 1.374 . S
C5690 H5664 0.950 . S
C5690 C5686 1.385 . S
C5690 C5689 1.374 . S
C5691 C5688 1.499 . S
C5691 C5692 1.373 . S
C5691 C5693 1.389 . S
C5692 H5665 0.950 . S
C5692 C5678 1.377 . S
C5692 C5691 1.373 . S
C5693 C5677 1.377 . S
C5693 C5691 1.389 . S
C5693 C5694 1.524 . S
C5694 C5693 1.524 . S
C5694 C5695 1.397 . S
C5694 C5699 1.363 . S
C5695 H5666 0.950 . S
C5695 C5694 1.397 . S
C5695 C5696 1.334 . S
C5696 H5667 0.950 . S
C5696 C5695 1.334 . S
C5696 C5697 1.287 . S
C5697 C5696 1.287 . S
C5697 C5698 1.524 . S
C5697 H5700 0.999 . S
C5698 H5668 0.950 . S
C5698 C5697 1.524 . S
C5698 C5699 1.415 . S
C5699 H5669 0.950 . S
C5699 C5694 1.363 . S
C5699 C5698 1.415 . S
H5700 C5697 0.999 . S
H5701 C5682 0.913 . S
H5702 C5720 0.951 . S
H5703 C5722 0.951 . S
H5704 C5724 0.950 . S
H5705 C5725 0.950 . S
H5706 C5727 0.950 . S
H5707 C5730 0.950 . S
H5708 C5731 0.950 . S
H5709 C5733 0.950 . S
H5710 C5734 0.950 . S
H5711 C5735 0.951 . S
H5712 C5737 0.951 . S
H5713 C5739 0.950 . S
H5714 C5740 0.950 . S
H5715 C5742 0.950 . S
H5716 C5745 0.950 . S
H5717 C5746 0.950 . S
H5718 C5748 0.950 . S
H5719 C5749 0.950 . S
C5720 H5702 0.951 . S
C5720 C5721 1.366 . S
C5720 C5722 1.388 . S
C5721 C5720 1.366 . S
C5721 C5725 1.385 . S
C5722 H5703 0.951 . S
C5722 C5720 1.388 . S
C5722 C5723 1.366 . S
C5723 C5722 1.366 . S
C5723 C5724 1.414 . S
C5723 C5726 1.499 . S
C5724 H5704 0.950 . S
C5724 C5723 1.414 . S
C5724 C5725 1.374 . S
C5725 H5705 0.950 . S
C5725 C5721 1.385 . S
C5725 C5724 1.374 . S
C5726 C5723 1.499 . S
C5726 C5727 1.373 . S
C5726 C5728 1.389 . S
C5727 H5706 0.950 . S
C5727 C5726 1.373 . S
C5727 C5743 1.377 . S
C5728 C5726 1.389 . S
C5728 C5729 1.524 . S
C5728 C5742 1.377 . S
C5729 C5728 1.524 . S
C5729 C5730 1.397 . S
C5729 C5734 1.363 . S
C5730 H5707 0.950 . S
C5730 C5729 1.397 . S
C5730 C5731 1.334 . S
C5731 H5708 0.950 . S
C5731 C5730 1.334 . S
C5731 C5732 1.287 . S
C5732 C5731 1.287 . S
C5732 C5733 1.524 . S
C5732 H5751 0.913 . S
C5733 H5709 0.950 . S
C5733 C5732 1.524 . S
C5733 C5734 1.415 . S
C5734 H5710 0.950 . S
C5734 C5729 1.363 . S
C5734 C5733 1.415 . S
C5735 H5711 0.951 . S
C5735 C5736 1.366 . S
C5735 C5737 1.388 . S
C5736 C5735 1.366 . S
C5736 C5740 1.385 . S
C5737 H5712 0.951 . S
C5737 C5735 1.388 . S
C5737 C5738 1.366 . S
C5738 C5737 1.366 . S
C5738 C5739 1.414 . S
C5738 C5741 1.499 . S
C5739 H5713 0.950 . S
C5739 C5738 1.414 . S
C5739 C5740 1.374 . S
C5740 H5714 0.950 . S
C5740 C5736 1.385 . S
C5740 C5739 1.374 . S
C5741 C5738 1.499 . S
C5741 C5742 1.373 . S
C5741 C5743 1.389 . S
C5742 H5715 0.950 . S
C5742 C5728 1.377 . S
C5742 C5741 1.373 . S
C5743 C5727 1.377 . S
C5743 C5741 1.389 . S
C5743 C5744 1.524 . S
C5744 C5743 1.524 . S
C5744 C5745 1.397 . S
C5744 C5749 1.363 . S
C5745 H5716 0.950 . S
C5745 C5744 1.397 . S
C5745 C5746 1.334 . S
C5746 H5717 0.950 . S
C5746 C5745 1.334 . S
C5746 C5747 1.287 . S
C5747 C5746 1.287 . S
C5747 C5748 1.524 . S
C5747 H5750 0.999 . S
C5748 H5718 0.950 . S
C5748 C5747 1.524 . S
C5748 C5749 1.415 . S
C5749 H5719 0.950 . S
C5749 C5744 1.363 . S
C5749 C5748 1.415 . S
H5750 C5747 0.999 . S
H5751 C5732 0.913 . S
C971 C101 2.010 . S
C986 C322 1.934 . S
C1021 C57 1.683 . S
C1036 C361 1.662 . S
C1071 C70 0.978 . S
C1086 C402 0.964 1_565 S
C1136 C447 1.403 . S
C1121 C82 1.426 . S
C1171 C23 1.896 . S
C1186 C491 1.870 1_565 S
C1236 C522 1.047 . S
C1221 C29 1.083 . S
C1286 C570 1.857 . S
C1271 C49 1.853 . S
C1321 C10 1.641 . S
C1336 C598 1.599 . S
C1386 C330 1.334 . S
C1371 C218 1.314 . S
C1421 C226 1.097 . S
C1436 C371 1.067 . S
C1486 C410 1.288 . S
C1471 C251 1.262 . S
C1536 C442 1.072 . S
C1521 C159 1.088 . S
C1571 C211 0.206 . S
C1586 C478 0.278 . S
C1636 C530 2.183 . S
C1621 C225 2.192 . S
C1686 C567 0.741 . S
C1671 C252 0.739 . S
C1736 C601 1.846 . S
C1721 C166 1.858 . S
C1786 C327 1.822 . S
C1771 C147 1.875 . S
C1821 C263 1.910 . S
C1836 C641 1.884 . S
C1886 C687 1.123 . S
C1871 C309 1.135 . S
C1936 C722 1.249 . S
C1921 C291 1.300 . S
C1971 C108 1.849 . S
C1986 C611 1.807 . S
C2021 C121 1.344 . S
C2036 C407 1.324 . S
C2071 C302 1.156 . S
C2086 C770 1.181 . S
C2136 C798 0.276 . S
C2121 C276 0.231 . S
C2186 C331 2.268 . S
C2171 C55 2.319 . S
C2236 C810 1.932 . S
C2221 C96 1.981 . S
C2271 C88 1.565 . S
C2286 C411 1.545 . S
C2321 C75 1.623 . S
C2336 C758 1.605 . S
C2386 C482 2.356 . S
C2371 C4 2.394 . S
C2421 C44 1.397 . S
C2436 C691 1.369 . S
C2486 C561 2.211 1_556 S
C2471 C31 2.228 . S
C2536 C847 1.666 . S
C2521 C18 1.691 . S
C2586 C321 1.522 1_556 S
C2571 C133 1.530 . S
C2636 C802 1.678 . S
C2621 C296 1.730 . S
C2671 C107 1.673 . S
C2686 C401 1.670 . S
C2721 C264 1.659 . S
C2736 C771 1.646 . S
C2771 C140 0.216 . S
C2786 C487 0.242 . S
C2836 C681 2.521 . S
C2821 C289 2.548 . S
C2871 C114 0.795 . S
C2886 C558 0.793 . S
C2921 C265 2.133 . S
C2936 C850 2.110 . S
C2971 C179 1.900 . S
C2986 C318 1.867 . S
C3021 C161 2.214 . S
C3036 C650 2.162 . S
C3071 C244 1.179 . S
C3086 C518 1.173 . S
C3121 C224 1.621 . S
C3136 C731 1.588 . S
C3186 C842 1.950 . S
C3171 C257 2.001 . S
C3221 C199 1.538 . S
C3236 C398 1.547 . S
C3286 C441 1.533 . S
C3271 C237 1.540 . S
C3336 C367 0.510 . S
C3321 C185 0.502 . S
C3371 C69 2.011 . S
C3386 C882 1.935 . S
C3436 C801 1.663 . S
C3421 C83 1.684 . S
C3471 C94 0.980 . S
C3486 C922 0.967 . S
C3521 C56 1.425 . S
C3536 C767 1.402 . S
C3571 C42 1.904 . S
C3586 C651 1.880 . S
C3636 C682 1.046 . S
C3621 C3 1.082 . S
C3686 C730 1.870 . S
C3671 C16 1.866 . S
C3736 C838 1.601 . S
C3721 C36 1.643 . S
C3786 C890 1.334 . S
C3771 C238 1.313 . S
C3821 C174 1.098 . S
C3836 C811 1.074 . S
C3886 C930 1.289 . S
C3871 C186 1.265 . S
C3936 C762 1.072 . S
C3921 C198 1.088 . S
C3986 C638 0.277 . S
C3971 C239 0.205 . S
C4021 C173 2.191 . S
C4036 C690 2.175 . S
C4086 C727 0.742 . S
C4071 C187 0.741 . S
C4121 C205 1.858 . S
C4136 C841 1.846 . S
C4186 C887 1.820 . S
C4171 C290 1.873 . S
C4221 C122 1.911 . S
C4236 C481 1.885 . S
C4286 C527 1.125 . S
C4271 C134 1.137 . S
C4336 C562 1.251 . S
C4321 C148 1.301 . S
C4386 C851 1.803 . S
C4371 C283 1.844 . S
C4421 C270 1.343 . S
C4436 C927 1.323 . S
C4486 C450 1.181 . S
C4471 C135 1.155 . S
C4536 C358 0.274 . S
C4521 C109 0.229 . S
C4571 C81 2.320 . S
C4586 C891 2.269 . S
C4636 C370 1.931 . S
C4621 C68 1.980 . S
C4671 C62 1.564 . S
C4686 C931 1.545 . S
C4721 C95 1.622 . S
C4736 C438 1.603 . S
C4771 C30 2.394 . S
C4786 C642 2.358 . S
C4836 C531 1.357 . S
C4821 C17 1.389 . S
C4871 C5 2.229 . S
C4886 C721 2.212 . S
C4921 C43 1.683 . S
C4936 C607 1.657 . S
C4986 C881 1.522 . S
C4971 C304 1.530 . S
C5021 C153 1.729 . S
C5036 C362 1.677 . S
C5086 C921 1.669 1_556 S
C5071 C278 1.673 . S
C5121 C127 1.658 . S
C5136 C451 1.645 . S
C5171 C303 0.213 . S
C5186 C647 0.238 . S
C5236 C521 2.519 . S
C5221 C146 2.545 1_556 S
C5271 C277 0.789 . S
C5286 C718 0.787 . S
C5336 C610 2.107 . S
C5321 C120 2.130 . S
C5386 C878 1.867 . S
C5371 C231 1.900 . S
C5436 C490 2.162 1_655 S
C5421 C200 2.214 . S
C5471 C212 1.179 . S
C5486 C678 1.172 . S
C5536 C571 1.587 . S
C5521 C172 1.619 . S
C5571 C192 1.992 . S
C5586 C602 1.947 . S
C5621 C160 1.538 . S
C5636 C918 1.521 . S
C5686 C761 1.534 . S
C5671 C213 1.542 1_565 S
C5736 C807 0.512 . S
C5721 C250 0.497 . S
