# Generated by pormake.
# Topology pts, (4,4)-cn, num edge types: 1
# Building blocks:
#     Node 0, Type 0, BuildingBlock: KOZSID_clean_sbu_0, # of connection points: 4
#     Node 1, Type 0, BuildingBlock: KOZSID_clean_sbu_0, # of connection points: 4
#     Node 2, Type 1, BuildingBlock: UXUYUI_clean_sbu_0, # of connection points: 4
#     Node 3, Type 1, BuildingBlock: UXUYUI_clean_sbu_0, # of connection points: 4
#     Edge 4, Type (0, 1), BuildingBlock: FUNLAD_clean_linker_1, # of connection points: 2
#     Edge 5, Type (0, 1), BuildingBlock: FUNLAD_clean_linker_1, # of connection points: 2
#     Edge 6, Type (0, 1), BuildingBlock: FUNLAD_clean_linker_1, # of connection points: 2
#     Edge 7, Type (0, 1), BuildingBlock: FUNLAD_clean_linker_1, # of connection points: 2
#     Edge 8, Type (0, 1), BuildingBlock: FUNLAD_clean_linker_1, # of connection points: 2
#     Edge 9, Type (0, 1), BuildingBlock: FUNLAD_clean_linker_1, # of connection points: 2
#     Edge 10, Type (0, 1), BuildingBlock: FUNLAD_clean_linker_1, # of connection points: 2
#     Edge 11, Type (0, 1), BuildingBlock: FUNLAD_clean_linker_1, # of connection points: 2
# Relax obj value: 0.000
# Max RMSD: 0.021
# Mean RMSD: 0.015
data_MOF--net-pts--node1-KOZSID_clean_sbu_0--node2-UXUYUI_clean_sbu_0--edge1-FUNLAD_clean_linker_1
_symmetry_space_group_name_H-M    P1
_symmetry_Int_Tables_number       1
_symmetry_cell_setting            triclinic
loop_
_symmetry_equiv_pos_as_xyz
'x, y, z'
_cell_length_a     33.867411
_cell_length_b     33.952943
_cell_length_c     49.26925
_cell_angle_alpha  86.953662
_cell_angle_beta   93.053185
_cell_angle_gamma 90.055398
loop_
_atom_site_label
_atom_site_type_symbol
_atom_site_fract_x
_atom_site_fract_y
_atom_site_fract_z
_atom_type_partial_charge
C0 C 0.60091 0.09067 0.05246 0.0
C1 C 0.61715 0.12701 0.05888 0.0
C2 C 0.60567 0.15362 0.03822 0.0
C3 C 0.58319 0.13253 0.02026 0.0
N4 N 0.57904 0.0943 0.02844 0.0
Co5 Co 0.54978 0.0542 0.00712 0.0
N6 N 0.52217 0.09529 0.98272 0.0
C7 C 0.53402 0.13293 0.97912 0.0
C8 C 0.51113 0.15434 0.95991 0.0
C9 C 0.48305 0.12857 0.95068 0.0
C10 C 0.49023 0.09256 0.96498 0.0
N11 N 0.52051 0.01436 0.98572 0.0
C12 C 0.48906 0.01858 0.96745 0.0
C13 C 0.48354 0.98432 0.95353 0.0
C14 C 0.51019 0.95711 0.96484 0.0
C15 C 0.53171 0.9766 0.98422 0.0
N16 N 0.57774 0.01287 0.03119 0.0
C17 C 0.57877 0.97416 0.0265 0.0
C18 C 0.5977 0.95179 0.04716 0.0
C19 C 0.61041 0.9781 0.06576 0.0
C20 C 0.59986 0.01553 0.05492 0.0
N21 N 0.50638 0.05515 0.03211 0.0
C22 C 0.44291 0.05733 0.06684 0.0
C23 C 0.45763 0.02128 0.05882 0.0
C24 C 0.48932 0.02087 0.04155 0.0
C25 C 0.4611 0.09204 0.05723 0.0
C26 C 0.49237 0.09039 0.03983 0.0
N27 N 0.59315 0.05342 0.98192 0.0
C28 C 0.66297 0.0535 0.97382 0.0
C29 C 0.65482 0.05409 0.94553 0.0
C30 C 0.61506 0.05427 0.93606 0.0
C31 C 0.58488 0.05385 0.95441 0.0
C32 C 0.63185 0.05308 0.99153 0.0
H33 H 0.55478 0.05414 0.94619 0.0
H34 H 0.63934 0.05284 0.01304 0.0
H35 H 0.49996 0.99276 0.0358 0.0
H36 H 0.50512 0.11777 0.03253 0.0
C37 C 0.56288 0.14831 0.99679 0.0
C38 C 0.61338 0.05283 0.0667 0.0
C39 C 0.46769 0.05598 0.9604 0.0
C40 C 0.55875 0.95947 1.00368 0.0
H41 H 0.63697 0.13369 0.07594 0.0
H42 H 0.61299 0.18466 0.03648 0.0
H43 H 0.51381 0.1853 0.95384 0.0
H44 H 0.46045 0.13584 0.93491 0.0
H45 H 0.46385 0.97988 0.93611 0.0
H46 H 0.51339 0.92678 0.95955 0.0
H47 H 0.60107 0.92004 0.04883 0.0
H48 H 0.62596 0.97025 0.08499 0.0
H49 H 0.44548 0.99344 0.06609 0.0
H50 H 0.45094 0.12055 0.06293 0.0
H51 H 0.69291 0.05398 0.98253 0.0
H52 H 0.60719 0.05486 0.91444 0.0
C53 C 0.08803 0.48372 0.54926 0.0
C54 C 0.12376 0.46521 0.55744 0.0
C55 C 0.15277 0.48509 0.54448 0.0
C56 C 0.13359 0.51384 0.52849 0.0
N57 N 0.09393 0.51416 0.53062 0.0
Co58 Co 0.05507 0.54728 0.5068 0.0
N59 N 0.09796 0.57272 0.48526 0.0
C60 C 0.13716 0.56562 0.4892 0.0
C61 C 0.15998 0.58718 0.47187 0.0
C62 C 0.13399 0.61022 0.45614 0.0
C63 C 0.09628 0.60142 0.46477 0.0
N64 N 0.01615 0.5796 0.48278 0.0
C65 C 0.02176 0.60726 0.4623 0.0
C66 C 0.98591 0.61823 0.44892 0.0
C67 C 0.95684 0.59976 0.46282 0.0
C68 C 0.97633 0.57735 0.48317 0.0
N69 N 0.01218 0.52244 0.52844 0.0
C70 C 0.97323 0.53148 0.52574 0.0
C71 C 0.95056 0.51003 0.54331 0.0
C72 C 0.97637 0.48516 0.55776 0.0
C73 C 0.01356 0.49237 0.54784 0.0
N74 N 0.05961 0.591 0.53247 0.0
C75 C 0.06694 0.6562 0.56627 0.0
C76 C 0.03011 0.64505 0.55479 0.0
C77 C 0.02718 0.61266 0.53822 0.0
C78 C 0.09978 0.63366 0.56065 0.0
C79 C 0.09555 0.60153 0.544 0.0
N80 N 0.05048 0.50351 0.4811 0.0
C81 C 0.01058 0.45539 0.45739 0.0
C82 C 0.044 0.43781 0.44774 0.0
C83 C 0.08086 0.4542 0.45484 0.0
C84 C 0.08334 0.48671 0.4713 0.0
C85 C 0.01436 0.48792 0.47368 0.0
H86 H 0.11233 0.49725 0.4762 0.0
H87 H 0.98757 0.49951 0.48038 0.0
H88 H 0.99836 0.60615 0.52991 0.0
H89 H 0.12192 0.58596 0.54048 0.0
C90 C 0.15168 0.53828 0.50929 0.0
C91 C 0.04889 0.4694 0.55746 0.0
C92 C 0.06037 0.62351 0.45482 0.0
C93 C 0.95818 0.55595 0.50399 0.0
H94 H 0.12918 0.43869 0.57004 0.0
H95 H 0.18395 0.47783 0.54534 0.0
H96 H 0.19185 0.58665 0.47103 0.0
H97 H 0.14267 0.63155 0.44056 0.0
H98 H 0.98086 0.63757 0.43095 0.0
H99 H 0.92523 0.60263 0.45871 0.0
H100 H 0.91877 0.5111 0.54462 0.0
H101 H 0.96843 0.4635 0.57343 0.0
H102 H 1.00351 0.6614 0.5579 0.0
H103 H 0.12898 0.64098 0.56896 0.0
H104 H 0.98135 0.44386 0.45253 0.0
H105 H 0.10801 0.44166 0.44852 0.0
Li106 Li 0.04514 0.07967 0.27175 0.0
Li107 Li 0.04165 0.00612 0.27687 0.0
Li108 Li 0.07793 0.04188 0.23819 0.0
Li109 Li 1.00396 0.04081 0.23701 0.0
C110 C 0.11209 0.05719 0.29883 0.0
N111 N 0.15574 0.09167 0.34016 0.0
C112 C 0.11065 0.04189 0.32565 0.0
C113 C 0.13602 0.08978 0.29298 0.0
C114 C 0.13289 0.05978 0.34628 0.0
C115 C 0.15776 0.10688 0.31417 0.0
C116 C 0.96594 0.03468 0.29157 0.0
C117 C 0.90727 0.99546 0.29743 0.0
N118 N 0.90166 0.01278 0.32119 0.0
C119 C 0.9593 0.05244 0.31588 0.0
C120 C 0.93949 0.00624 0.28213 0.0
C121 C 0.92676 0.04083 0.33063 0.0
C122 C 0.0483 0.16319 0.27807 0.0
N123 N 0.04723 0.12756 0.29201 0.0
C124 C 0.05021 0.1595 0.33445 0.0
C125 C 0.04802 0.12525 0.31972 0.0
C126 C 0.05138 0.19682 0.32055 0.0
C127 C 0.05058 0.19815 0.29196 0.0
H128 H 0.04741 0.16456 0.25608 0.0
H129 H 0.04729 0.09671 0.33049 0.0
C130 C 0.05813 0.92591 0.2964 0.0
N131 N 0.04144 0.9605 0.30276 0.0
C132 C 0.05721 0.89245 0.31439 0.0
C133 C 0.02248 0.93078 0.34538 0.0
C134 C 0.0243 0.96348 0.32693 0.0
C135 C 0.03906 0.89457 0.33935 0.0
H136 H 0.07177 0.92411 0.27715 0.0
H137 H 0.01205 0.99129 0.33202 0.0
C138 C 0.05496 0.10707 0.20924 0.0
N139 N 0.08657 0.14581 0.1647 0.0
C140 C 0.03643 0.10464 0.18336 0.0
C141 C 0.08934 0.12951 0.21252 0.0
C142 C 0.05292 0.1244 0.16108 0.0
C143 C 0.10494 0.14877 0.18974 0.0
C144 C 0.02669 0.96277 0.225 0.0
C145 C 0.03968 0.95279 0.1998 0.0
C146 C 0.99891 0.93889 0.23788 0.0
C147 C 0.02397 0.91957 0.18761 0.0
C148 C 0.98394 0.90588 0.22507 0.0
N149 N 0.99662 0.89702 0.20039 0.0
C150 C 0.16076 0.0422 0.22583 0.0
C151 C 0.11585 0.03765 0.18773 0.0
C152 C 0.19302 0.04171 0.20904 0.0
N153 N 0.123 0.04029 0.21501 0.0
C154 C 0.1471 0.03706 0.17025 0.0
C155 C 0.18646 0.03923 0.18067 0.0
H156 H 0.16596 0.04397 0.24757 0.0
H157 H 0.08572 0.03619 0.17944 0.0
C158 C 0.92227 0.05799 0.22148 0.0
N159 N 0.95553 0.04018 0.21366 0.0
C160 C 0.88703 0.05765 0.20512 0.0
C161 C 0.92097 0.02148 0.17256 0.0
C162 C 0.95545 0.02248 0.18953 0.0
C163 C 0.8859 0.0389 0.18024 0.0
H164 H 0.92305 0.07261 0.24048 0.0
H165 H 0.9823 0.00946 0.1832 0.0
O166 O 0.09001 0.04048 0.27844 0.0
O167 O 0.99777 0.04565 0.27693 0.0
O168 O 0.03967 0.08734 0.23121 0.0
O169 O 0.04173 0.99528 0.23719 0.0
H170 H 0.09236 0.01664 0.33052 0.0
H171 H 0.13755 0.10192 0.27233 0.0
H172 H 0.13191 0.04837 0.36715 0.0
H173 H 0.1762 0.13228 0.30997 0.0
H174 H 0.88662 0.97344 0.29035 0.0
H175 H 0.97914 0.07482 0.32337 0.0
H176 H 0.94341 0.99301 0.26301 0.0
H177 H 0.92145 0.05416 0.34956 0.0
H178 H 0.05167 0.15636 0.35642 0.0
H179 H 0.05158 0.22613 0.28038 0.0
H180 H 0.06978 0.8652 0.30836 0.0
H181 H 0.00827 0.93386 0.36435 0.0
H182 H 0.00976 0.08751 0.18047 0.0
H183 H 0.104 0.13175 0.23241 0.0
H184 H 0.039 0.12262 0.1409 0.0
H185 H 0.13168 0.16601 0.19195 0.0
H186 H 0.06152 0.97056 0.18966 0.0
H187 H 0.98935 0.9454 0.25772 0.0
H188 H 0.03357 0.91168 0.16802 0.0
H189 H 0.96237 0.88721 0.23482 0.0
H190 H 0.22251 0.0428 0.21848 0.0
H191 H 0.14046 0.03499 0.14862 0.0
H192 H 0.86142 0.0724 0.21198 0.0
H193 H 0.92178 0.00715 0.15347 0.0
Li194 Li 0.0191 0.0537 0.77455 0.0
Li195 Li 0.0921 0.05028 0.77846 0.0
Li196 Li 0.05559 0.0904 0.74034 0.0
Li197 Li 0.05499 0.01797 0.73977 0.0
C198 C 0.04037 0.11697 0.79988 0.0
N199 N 1.00306 0.15462 0.8398 0.0
C200 C 0.04865 0.10595 0.82732 0.0
C201 C 0.01347 0.14743 0.79274 0.0
C202 C 0.02939 0.12526 0.8472 0.0
C203 C 0.99483 0.16603 0.81322 0.0
C204 C 0.07157 0.97037 0.78667 0.0
C205 C 0.12691 0.92633 0.78417 0.0
N206 N 0.10786 0.89845 0.79939 0.0
C207 C 0.05252 0.94133 0.80228 0.0
C208 C 0.10907 0.9629 0.77752 0.0
C209 C 0.07137 0.90514 0.80851 0.0
C210 C 0.93818 0.06766 0.78907 0.0
N211 N 0.97409 0.05211 0.79746 0.0
C212 C 0.95003 0.03388 0.84126 0.0
C213 C 0.98031 0.03517 0.82297 0.0
C214 C 0.91261 0.04971 0.83332 0.0
C215 C 0.90694 0.06688 0.80671 0.0
H216 H 0.9337 0.08095 0.76876 0.0
H217 H 0.00908 0.02302 0.82925 0.0
C218 C 0.17155 0.0659 0.79962 0.0
N219 N 0.13701 0.04709 0.80472 0.0
C220 C 0.20345 0.06416 0.81908 0.0
C221 C 0.16359 0.02397 0.84877 0.0
C222 C 0.13259 0.02647 0.8288 0.0
C223 C 0.19979 0.04277 0.84416 0.0
H224 H 0.17425 0.08264 0.78052 0.0
H225 H 0.10474 0.01218 0.83265 0.0
C226 C 0.98511 0.073 0.7144 0.0
N227 N 0.93748 0.11064 0.67373 0.0
C228 C 0.97924 0.05643 0.68913 0.0
C229 C 0.96651 0.10856 0.71904 0.0
C230 C 0.9551 0.07594 0.66882 0.0
C231 C 0.94263 0.12719 0.69821 0.0
C232 C 0.11869 0.05859 0.71384 0.0
C233 C 0.09581 0.05378 0.68982 0.0
C234 C 0.1586 0.06857 0.71257 0.0
C235 C 0.11321 0.0592 0.66483 0.0
C236 C 0.17495 0.0737 0.68718 0.0
N237 N 0.1521 0.06896 0.66403 0.0
C238 C 0.07155 0.17213 0.73094 0.0
C239 C 0.04789 0.14245 0.6909 0.0
C240 C 0.0742 0.20877 0.71667 0.0
N241 N 0.05827 0.13981 0.71806 0.0
C242 C 0.04971 0.17866 0.67588 0.0
C243 C 0.06279 0.21266 0.68883 0.0
H244 H 0.0802 0.16947 0.75241 0.0
H245 H 0.03817 0.1165 0.68072 0.0
C246 C 0.0177 0.9545 0.71298 0.0
N247 N 0.05345 0.97169 0.71792 0.0
C248 C 0.01436 0.92116 0.69745 0.0
C249 C 0.08481 0.92307 0.69255 0.0
C250 C 0.08678 0.9565 0.70818 0.0
C251 C 0.04807 0.90481 0.68687 0.0
H252 H 0.99162 0.9668 0.72109 0.0
H253 H 0.11504 0.9703 0.71255 0.0
O254 O 0.05807 0.09763 0.78011 0.0
O255 O 0.05341 0.00588 0.78036 0.0
O256 O 0.0088 0.05438 0.7345 0.0
O257 O 0.10223 0.05338 0.73853 0.0
H258 H 0.06932 0.08239 0.8332 0.0
H259 H 0.00704 0.15663 0.77163 0.0
H260 H 0.03527 0.11681 0.86851 0.0
H261 H 0.97381 0.18954 0.80798 0.0
H262 H 0.15591 0.92013 0.77722 0.0
H263 H 0.02347 0.94672 0.8095 0.0
H264 H 0.12426 0.98506 0.76544 0.0
H265 H 0.05699 0.88236 0.82058 0.0
H266 H 0.95589 0.02052 0.86153 0.0
H267 H 0.87911 0.08023 0.7995 0.0
H268 H 0.2302 0.07989 0.81441 0.0
H269 H 0.15922 0.00736 0.86776 0.0
H270 H 0.99328 0.02888 0.68516 0.0
H271 H 0.97088 0.1219 0.73838 0.0
H272 H 0.95042 0.06352 0.64914 0.0
H273 H 0.92828 0.15486 0.70148 0.0
H274 H 0.06494 0.04597 0.69047 0.0
H275 H 0.17677 0.07226 0.73099 0.0
H276 H 0.09579 0.05562 0.64607 0.0
H277 H 0.20581 0.08143 0.68587 0.0
H278 H 0.08488 0.23402 0.72742 0.0
H279 H 0.04167 0.17957 0.65432 0.0
H280 H 0.98546 0.90819 0.69376 0.0
H281 H 0.11194 0.91211 0.68515 0.0
H282 H 0.40737 0.08741 0.09621 0.0
C283 C 0.40987 0.0602 0.08573 0.0
H284 H 0.38356 0.00461 0.07958 0.0
H285 H 0.29475 0.98474 0.18827 0.0
H286 H 0.34527 0.93415 0.19525 0.0
H287 H 0.39874 0.92987 0.16345 0.0
H288 H 0.40198 0.97599 0.12438 0.0
C289 C 0.38226 0.03205 0.08982 0.0
C290 C 0.35021 0.03607 0.10952 0.0
C291 C 0.34879 0.00917 0.13253 0.0
C292 C 0.3182 0.01203 0.15119 0.0
C293 C 0.31751 0.98432 0.17369 0.0
C294 C 0.34629 0.95504 0.17792 0.0
C295 C 0.37636 0.9526 0.15999 0.0
C296 C 0.37779 0.97924 0.13758 0.0
H297 H 0.21087 0.03084 0.1404 0.0
C298 C 0.21909 0.03789 0.16123 0.0
H299 H 0.2676 0.05206 0.18792 0.0
H300 H 0.34033 0.08938 0.06596 0.0
H301 H 0.29122 0.14134 0.05987 0.0
H302 H 0.24162 0.14954 0.09402 0.0
H303 H 0.24027 0.10527 0.13418 0.0
C304 C 0.25766 0.04528 0.16744 0.0
C305 C 0.28891 0.04195 0.14708 0.0
C306 C 0.29044 0.06909 0.12418 0.0
C307 C 0.32045 0.06558 0.1051 0.0
C308 C 0.31952 0.09168 0.08169 0.0
C309 C 0.29126 0.12151 0.07782 0.0
C310 C 0.26324 0.12603 0.097 0.0
C311 C 0.26267 0.10024 0.11992 0.0
H312 H 0.01638 0.41625 0.56788 0.0
C313 C 0.04335 0.43264 0.57222 0.0
H314 H 0.08918 0.43698 0.60413 0.0
H315 H 0.01801 0.30967 0.68582 0.0
H316 H 1.00256 0.37012 0.70697 0.0
H317 H 0.01351 0.43489 0.68353 0.0
H318 H 0.03961 0.43956 0.63858 0.0
C319 C 0.06752 0.41784 0.59454 0.0
C320 C 0.06033 0.37833 0.60849 0.0
C321 C 0.04608 0.37588 0.63509 0.0
C322 C 0.04061 0.33837 0.64892 0.0
C323 C 0.02427 0.33715 0.67482 0.0
C324 C 0.01489 0.37169 0.68711 0.0
C325 C 0.021 0.40816 0.6739 0.0
C326 C 0.03618 0.41041 0.64815 0.0
H327 H 0.08622 0.27346 0.68318 0.0
C328 C 0.06638 0.25209 0.67403 0.0
H329 H 0.02505 0.24296 0.64125 0.0
H330 H 0.08907 0.37195 0.55802 0.0
H331 H 0.10422 0.31157 0.53666 0.0
H332 H 0.09524 0.24679 0.56058 0.0
H333 H 0.07113 0.24196 0.60606 0.0
C334 C 0.04545 0.26335 0.65079 0.0
C335 C 0.05052 0.30312 0.63646 0.0
C336 C 0.06423 0.30562 0.60966 0.0
C337 C 0.06922 0.34312 0.59574 0.0
C338 C 0.08403 0.34443 0.56935 0.0
C339 C 0.09305 0.30995 0.55687 0.0
C340 C 0.088 0.27347 0.57034 0.0
C341 C 0.07397 0.27115 0.59644 0.0
H342 H 0.64335 0.07839 0.10159 0.0
C343 C 0.64298 0.05377 0.08841 0.0
H344 H 0.68165 0.00803 0.07575 0.0
H345 H 0.82717 0.103 0.13089 0.0
H346 H 0.82018 0.14307 0.0887 0.0
H347 H 0.76333 0.13424 0.05619 0.0
H348 H 0.71281 0.08555 0.06581 0.0
C349 C 0.67669 0.0293 0.09088 0.0
C350 C 0.71021 0.03595 0.11119 0.0
C351 C 0.74007 0.06388 0.10508 0.0
C352 C 0.77352 0.06826 0.12358 0.0
C353 C 0.80189 0.09752 0.11729 0.0
C354 C 0.79811 0.12093 0.09319 0.0
C355 C 0.76606 0.116 0.0749 0.0
C356 C 0.73727 0.08792 0.08067 0.0
H357 H 0.85327 0.02635 0.14135 0.0
C358 C 0.84966 0.03741 0.16138 0.0
H359 H 0.80718 0.05706 0.18774 0.0
H360 H 0.65784 0.9811 0.12976 0.0
H361 H 0.6648 0.94043 0.17177 0.0
H362 H 0.72339 0.9465 0.20321 0.0
H363 H 0.77536 0.99327 0.19291 0.0
C364 C 0.81285 0.04793 0.16756 0.0
C365 C 0.77768 0.04396 0.14797 0.0
C366 C 0.74742 0.01646 0.15422 0.0
C367 C 0.71373 0.01256 0.1359 0.0
C368 C 0.68414 0.98489 0.14278 0.0
C369 C 0.68773 0.96145 0.16686 0.0
C370 C 0.7207 0.96492 0.18458 0.0
C371 C 0.75028 0.99199 0.17844 0.0
H372 H 0.1032 0.70062 0.58781 0.0
C373 C 0.07291 0.69143 0.5832 0.0
H374 H 0.01307 0.70328 0.59056 0.0
H375 H 0.05001 0.79762 0.69618 0.0
H376 H 0.02524 0.73618 0.71587 0.0
H377 H 0.01218 0.67932 0.68761 0.0
H378 H 0.02417 0.68343 0.63946 0.0
C379 C 0.04363 0.71244 0.59323 0.0
C380 C 0.05188 0.74728 0.61023 0.0
C381 C 0.04393 0.74492 0.63828 0.0
C382 C 0.05081 0.7781 0.65454 0.0
C383 C 0.04419 0.77396 0.68269 0.0
C384 C 0.03023 0.73871 0.69433 0.0
C385 C 0.02292 0.70667 0.67842 0.0
C386 C 0.02981 0.7095 0.65077 0.0
H387 H 0.0131 0.85816 0.66675 0.0
C388 C 0.04304 0.86908 0.67028 0.0
H389 H 0.10288 0.85934 0.66171 0.0
H390 H 0.06763 0.7634 0.55685 0.0
H391 H 0.09233 0.82486 0.53711 0.0
H392 H 0.10479 0.88195 0.56525 0.0
H393 H 0.09242 0.87804 0.61333 0.0
C394 C 0.07258 0.84926 0.65955 0.0
C395 C 0.06487 0.81415 0.64267 0.0
C396 C 0.07291 0.81646 0.61462 0.0
C397 C 0.06616 0.78323 0.59838 0.0
C398 C 0.07312 0.7872 0.57028 0.0
C399 C 0.08708 0.82244 0.55862 0.0
C400 C 0.09407 0.8546 0.57446 0.0
C401 C 0.08697 0.85189 0.60208 0.0
H402 H 0.42032 0.08583 0.93614 0.0
C403 C 0.42974 0.05802 0.94614 0.0
H404 H 0.40676 0.99975 0.95634 0.0
H405 H 0.25705 0.10808 0.89385 0.0
H406 H 0.26494 0.15083 0.93173 0.0
H407 H 0.31717 0.13804 0.96796 0.0
H408 H 0.36231 0.08289 0.96631 0.0
C409 C 0.40167 0.02732 0.94456 0.0
C410 C 0.36503 0.03103 0.92577 0.0
C411 C 0.33779 0.06256 0.92752 0.0
C412 C 0.30644 0.06896 0.9072 0.0
C413 C 0.28079 0.10148 0.90898 0.0
C414 C 0.28498 0.12622 0.93061 0.0
C415 C 0.31449 0.1191 0.95096 0.0
C416 C 0.34052 0.08761 0.9496 0.0
H417 H 0.22485 0.02568 0.8857 0.0
C418 C 0.23218 0.03944 0.86617 0.0
H419 H 0.2796 0.06288 0.84395 0.0
H420 H 0.40497 0.96216 0.9194 0.0
H421 H 0.39441 0.91745 0.8832 0.0
H422 H 0.3412 0.92957 0.8476 0.0
H423 H 0.29821 0.98652 0.84823 0.0
C424 C 0.27001 0.05076 0.86328 0.0
C425 C 0.30133 0.04311 0.8856 0.0
C426 C 0.3267 0.01007 0.8849 0.0
C427 C 0.358 1.00358 0.90521 0.0
C428 C 0.38187 0.96955 0.90416 0.0
C429 C 0.37579 0.9433 0.88356 0.0
C430 C 0.34579 0.95006 0.86356 0.0
C431 C 0.32138 0.98293 0.86416 0.0
H432 H 0.01079 0.38648 0.43225 0.0
C433 C 0.03901 0.40173 0.4316 0.0
H434 H 0.09533 0.40136 0.41488 0.0
H435 H 0.10431 0.22058 0.39445 0.0
H436 H 0.15347 0.22619 0.43163 0.0
H437 H 0.16057 0.28778 0.4558 0.0
H438 H 0.11876 0.34428 0.44285 0.0
C439 C 0.06678 0.38712 0.41618 0.0
C440 C 0.06093 0.34939 0.40187 0.0
C441 C 0.08534 0.31632 0.40977 0.0
C442 C 0.08078 0.28046 0.3961 0.0
C443 C 0.10604 0.24829 0.40433 0.0
C444 C 0.13448 0.25112 0.42561 0.0
C445 C 0.13853 0.28582 0.43919 0.0
C446 C 0.11435 0.31809 0.43148 0.0
H447 H 0.06349 0.26088 0.32295 0.0
C448 C 0.05461 0.23473 0.3348 0.0
H449 H 0.03731 0.21368 0.37364 0.0
H450 H 0.01208 0.40785 0.37921 0.0
H451 H 0.96118 0.40145 0.34326 0.0
H452 H 0.94993 0.33799 0.322 0.0
H453 H 0.99004 0.28074 0.33615 0.0
C454 C 0.04639 0.23887 0.36104 0.0
C455 C 0.05162 0.27732 0.37453 0.0
C456 C 0.02688 0.31024 0.36679 0.0
C457 C 0.03211 0.34647 0.38002 0.0
C458 C 0.00839 0.37928 0.37073 0.0
C459 C 0.9792 0.37609 0.34996 0.0
C460 C 0.97296 0.34039 0.33792 0.0
C461 C 0.99639 0.30778 0.34615 0.0
H462 H 0.67668 0.06105 0.90386 0.0
C463 C 0.68623 0.05561 0.92517 0.0
H464 H 0.73626 0.04267 0.95186 0.0
H465 H 0.8425 0.97996 0.8617 0.0
H466 H 0.82729 0.9191 0.88685 0.0
H467 H 0.77907 0.91802 0.92266 0.0
H468 H 0.74547 0.97781 0.93338 0.0
C469 C 0.7253 0.05036 0.9312 0.0
C470 C 0.75484 0.05153 0.90953 0.0
C471 C 0.77503 0.01653 0.90383 0.0
C472 C 0.80347 0.01729 0.88344 0.0
C473 C 0.82166 0.98144 0.87748 0.0
C474 C 0.81297 0.94617 0.89164 0.0
C475 C 0.78578 0.94555 0.91178 0.0
C476 C 0.76681 0.98015 0.9178 0.0
H477 H 0.89037 0.04084 0.87475 0.0
C478 C 0.88117 0.04835 0.85362 0.0
H479 H 0.83147 0.0622 0.82682 0.0
H480 H 0.72429 0.12471 0.91659 0.0
H481 H 0.73946 0.18558 0.89143 0.0
H482 H 0.78795 0.18675 0.85579 0.0
H483 H 0.8218 0.12704 0.84521 0.0
C484 C 0.84225 0.0546 0.84754 0.0
C485 C 0.81247 0.0533 0.86907 0.0
C486 C 0.79221 0.08828 0.87473 0.0
C487 C 0.76371 0.08749 0.89508 0.0
C488 C 0.7453 0.12328 0.90091 0.0
C489 C 0.75394 0.15855 0.88673 0.0
C490 C 0.78127 0.15922 0.86668 0.0
C491 C 0.8004 0.12466 0.86076 0.0
H492 H 0.09029 0.66337 0.42655 0.0
C493 C 0.06393 0.65864 0.43775 0.0
H494 H 0.01353 0.69175 0.4496 0.0
H495 H 0.07691 0.85798 0.40675 0.0
H496 H 0.08557 0.86301 0.45555 0.0
H497 H 0.0745 0.8055 0.48692 0.0
H498 H 0.0551 0.7424 0.46964 0.0
C499 C 0.03695 0.69033 0.43548 0.0
C500 C 0.04271 0.72544 0.41628 0.0
C501 C 0.05299 0.76254 0.4266 0.0
C502 C 0.05857 0.79605 0.40843 0.0
C503 C 0.07087 0.832 0.41948 0.0
C504 C 0.0763 0.83523 0.4475 0.0
C505 C 0.07013 0.80283 0.46517 0.0
C506 C 0.05883 0.7668 0.45497 0.0
H507 H 0.01271 0.86118 0.37387 0.0
C508 C 0.03536 0.85982 0.35911 0.0
H509 H 0.08196 0.82521 0.34606 0.0
H510 H 0.02082 0.65963 0.38947 0.0
H511 H 0.01176 0.65452 0.34071 0.0
H512 H 0.02119 0.71235 0.3093 0.0
H513 H 0.03961 0.77572 0.32647 0.0
C514 C 0.05885 0.82758 0.36031 0.0
C515 C 0.05282 0.79281 0.37983 0.0
C516 C 0.04249 0.75565 0.36955 0.0
C517 C 0.03732 0.72209 0.38772 0.0
C518 C 0.02593 0.68583 0.37671 0.0
C519 C 0.02041 0.68251 0.34872 0.0
C520 C 0.02569 0.71508 0.33104 0.0
C521 C 0.03643 0.75129 0.3412 0.0
loop_
_geom_bond_atom_site_label_1
_geom_bond_atom_site_label_2
_geom_bond_distance
_geom_bond_site_symmetry_2
_ccdc_geom_bond_type
C0 C1 1.443 . S
C0 N4 1.376 . S
C0 C38 1.389 . S
C1 C0 1.443 . S
C1 C2 1.340 . S
C1 H41 0.951 . S
C2 C1 1.340 . S
C2 C3 1.439 . S
C2 H42 0.950 . S
C3 C2 1.439 . S
C3 N4 1.374 . S
C3 C37 1.395 1_554 S
N4 C0 1.376 . S
N4 C3 1.374 . S
N4 Co5 2.008 . S
Co5 N4 2.008 . S
Co5 N6 1.995 1_554 S
Co5 N11 2.008 1_554 S
Co5 N16 2.006 . S
Co5 N21 2.282 . S
Co5 N27 2.282 1_554 S
N6 Co5 1.995 1_556 S
N6 C7 1.376 . S
N6 C10 1.383 . S
C7 N6 1.376 . S
C7 C8 1.446 . S
C7 C37 1.391 . S
C8 C7 1.446 . S
C8 C9 1.339 . S
C8 H43 0.949 . S
C9 C8 1.339 . S
C9 C10 1.439 . S
C9 H44 0.950 . S
C10 N6 1.383 . S
C10 C9 1.439 . S
C10 C39 1.392 . S
N11 Co5 2.008 1_556 S
N11 C12 1.376 . S
N11 C15 1.374 1_545 S
C12 N11 1.376 . S
C12 C13 1.443 1_545 S
C12 C39 1.389 . S
C13 C12 1.443 1_565 S
C13 C14 1.340 . S
C13 H45 0.951 . S
C14 C13 1.340 . S
C14 C15 1.439 . S
C14 H46 0.950 . S
C15 N11 1.374 1_565 S
C15 C14 1.439 . S
C15 C40 1.395 1_556 S
N16 Co5 2.006 . S
N16 C17 1.360 1_545 S
N16 C20 1.386 . S
C17 N16 1.360 1_565 S
C17 C18 1.446 . S
C17 C40 1.391 . S
C18 C17 1.446 . S
C18 C19 1.339 . S
C18 H47 0.949 . S
C19 C18 1.339 . S
C19 C20 1.439 1_565 S
C19 H48 0.950 . S
C20 N16 1.386 . S
C20 C19 1.439 1_545 S
C20 C38 1.392 . S
N21 Co5 2.282 . S
N21 C24 1.332 . S
N21 C26 1.332 . S
C22 C23 1.386 . S
C22 C25 1.388 . S
C23 C22 1.386 . S
C23 C24 1.382 . S
C23 H49 0.950 1_545 S
C24 N21 1.332 . S
C24 C23 1.382 . S
C24 H35 0.952 1_545 S
C25 C22 1.388 . S
C25 C26 1.382 . S
C25 H50 0.950 . S
C26 N21 1.332 . S
C26 C25 1.382 . S
C26 H36 0.948 . S
N27 Co5 2.282 1_556 S
N27 C31 1.332 . S
N27 C32 1.332 . S
C28 C29 1.388 . S
C28 C32 1.382 . S
C28 H51 0.950 1_545 S
C29 C28 1.388 . S
C29 C30 1.386 . S
C30 C29 1.386 . S
C30 C31 1.382 . S
C30 H52 0.950 . S
C31 N27 1.332 . S
C31 C30 1.382 . S
C31 H33 0.952 . S
C32 N27 1.332 . S
C32 C28 1.382 . S
C32 H34 0.948 1_545 S
H33 C31 0.952 . S
H34 C32 0.948 1_565 S
H35 C24 0.952 1_565 S
H36 C26 0.948 . S
C37 C3 1.395 1_556 S
C37 C7 1.391 . S
C38 C0 1.389 . S
C38 C20 1.392 . S
C39 C10 1.392 . S
C39 C12 1.389 . S
C40 C15 1.395 1_554 S
C40 C17 1.391 . S
H41 C1 0.951 . S
H42 C2 0.950 . S
H43 C8 0.949 . S
H44 C9 0.950 . S
H45 C13 0.951 . S
H46 C14 0.950 . S
H47 C18 0.949 . S
H48 C19 0.950 . S
H49 C23 0.950 1_565 S
H50 C25 0.950 . S
H51 C28 0.950 1_565 S
H52 C30 0.950 . S
C53 C54 1.443 . S
C53 N57 1.376 . S
C53 C91 1.389 . S
C54 C53 1.443 . S
C54 C55 1.340 . S
C54 H94 0.951 . S
C55 C54 1.340 . S
C55 C56 1.439 . S
C55 H95 0.950 . S
C56 C55 1.439 . S
C56 N57 1.374 . S
C56 C90 1.395 . S
N57 C53 1.376 . S
N57 C56 1.374 . S
N57 Co58 2.008 . S
Co58 N57 2.008 . S
Co58 N59 1.995 . S
Co58 N64 2.005 1_455 S
Co58 N69 1.995 . S
Co58 N74 2.282 . S
Co58 N80 2.282 . S
N59 Co58 1.995 . S
N59 C60 1.376 . S
N59 C63 1.383 . S
C60 N59 1.376 . S
C60 C61 1.446 . S
C60 C90 1.391 . S
C61 C60 1.446 . S
C61 C62 1.339 . S
C61 H96 0.949 . S
C62 C61 1.339 . S
C62 C63 1.439 . S
C62 H97 0.950 . S
C63 N59 1.383 . S
C63 C62 1.439 . S
C63 C92 1.392 . S
N64 Co58 2.005 1_655 S
N64 C65 1.376 1_655 S
N64 C68 1.379 . S
C65 N64 1.376 1_455 S
C65 C66 1.443 1_455 S
C65 C92 1.389 . S
C66 C65 1.443 1_655 S
C66 C67 1.340 . S
C66 H98 0.951 . S
C67 C66 1.340 . S
C67 C68 1.439 . S
C67 H99 0.950 . S
C68 N64 1.379 . S
C68 C67 1.439 . S
C68 C93 1.395 . S
N69 Co58 1.995 . S
N69 C70 1.376 1_455 S
N69 C73 1.383 . S
C70 N69 1.376 1_655 S
C70 C71 1.446 . S
C70 C93 1.391 . S
C71 C70 1.446 . S
C71 C72 1.339 . S
C71 H100 0.949 . S
C72 C71 1.339 . S
C72 C73 1.439 1_655 S
C72 H101 0.950 . S
C73 N69 1.383 . S
C73 C72 1.439 1_455 S
C73 C91 1.392 . S
N74 Co58 2.282 . S
N74 C77 1.332 . S
N74 C79 1.332 . S
C75 C76 1.386 . S
C75 C78 1.388 . S
C76 C75 1.386 . S
C76 C77 1.382 . S
C76 H102 0.950 1_455 S
C77 N74 1.332 . S
C77 C76 1.382 . S
C77 H88 0.952 1_455 S
C78 C75 1.388 . S
C78 C79 1.382 . S
C78 H103 0.950 . S
C79 N74 1.332 . S
C79 C78 1.382 . S
C79 H89 0.948 . S
N80 Co58 2.282 . S
N80 C84 1.332 . S
N80 C85 1.332 . S
C81 C82 1.388 . S
C81 C85 1.382 . S
C81 H104 0.950 1_455 S
C82 C81 1.388 . S
C82 C83 1.386 . S
C83 C82 1.386 . S
C83 C84 1.382 . S
C83 H105 0.950 . S
C84 N80 1.332 . S
C84 C83 1.382 . S
C84 H86 0.952 . S
C85 N80 1.332 . S
C85 C81 1.382 . S
C85 H87 0.948 1_455 S
H86 C84 0.952 . S
H87 C85 0.948 1_655 S
H88 C77 0.952 1_655 S
H89 C79 0.948 . S
C90 C56 1.395 . S
C90 C60 1.391 . S
C91 C53 1.389 . S
C91 C73 1.392 . S
C92 C63 1.392 . S
C92 C65 1.389 . S
C93 C68 1.395 . S
C93 C70 1.391 . S
H94 C54 0.951 . S
H95 C55 0.950 . S
H96 C61 0.949 . S
H97 C62 0.950 . S
H98 C66 0.951 . S
H99 C67 0.950 . S
H100 C71 0.949 . S
H101 C72 0.950 . S
H102 C76 0.950 1_655 S
H103 C78 0.950 . S
H104 C81 0.950 1_655 S
H105 C83 0.950 . S
Li106 N123 1.990 . S
Li106 O166 1.956 . S
Li106 O167 1.970 1_455 S
Li106 O168 1.961 . S
Li107 N131 1.990 . S
Li107 O166 1.970 1_565 S
Li107 O167 1.956 1_465 S
Li107 O169 1.961 . S
Li108 N153 1.990 . S
Li108 O166 1.961 . S
Li108 O168 1.956 . S
Li108 O169 1.970 1_545 S
Li109 N159 1.990 . S
Li109 O167 1.961 . S
Li109 O168 1.970 1_655 S
Li109 O169 1.956 1_645 S
C110 C112 1.348 . S
C110 C113 1.356 . S
C110 O166 1.325 . S
N111 C114 1.314 . S
N111 C115 1.279 . S
C112 C110 1.348 . S
C112 C114 1.353 . S
C112 H170 0.929 1_545 S
C113 C110 1.356 . S
C113 C115 1.358 . S
C113 H171 0.930 . S
C114 N111 1.314 . S
C114 C112 1.353 . S
C114 H172 0.930 1_545 S
C115 N111 1.279 . S
C115 C113 1.358 . S
C115 H173 0.930 . S
C116 C119 1.348 . S
C116 C120 1.356 . S
C116 O167 1.325 . S
C117 N118 1.279 . S
C117 C120 1.358 . S
C117 H174 0.930 1_545 S
N118 C117 1.279 . S
N118 C121 1.314 . S
C119 C116 1.348 . S
C119 C121 1.353 . S
C119 H175 0.929 . S
C120 C116 1.356 . S
C120 C117 1.358 . S
C120 H176 0.930 1_545 S
C121 N118 1.314 . S
C121 C119 1.353 . S
C121 H177 0.930 . S
C122 N123 1.314 . S
C122 C127 1.353 . S
C122 H128 0.918 1_455 S
N123 Li106 1.990 . S
N123 C122 1.314 . S
N123 C125 1.279 . S
C124 C125 1.358 . S
C124 C126 1.356 . S
C124 H178 0.930 . S
C125 N123 1.279 . S
C125 C124 1.358 . S
C125 H129 0.930 . S
C126 C124 1.356 . S
C126 C127 1.348 . S
C127 C122 1.353 . S
C127 C126 1.348 . S
C127 H179 0.929 1_455 S
H128 C122 0.918 1_655 S
H129 C125 0.930 . S
C130 N131 1.314 . S
C130 C132 1.353 . S
C130 H136 0.930 . S
N131 Li107 1.990 . S
N131 C130 1.314 . S
N131 C134 1.279 . S
C132 C130 1.353 . S
C132 C135 1.348 . S
C132 H180 0.929 . S
C133 C134 1.358 . S
C133 C135 1.356 . S
C133 H181 0.930 1_455 S
C134 N131 1.279 . S
C134 C133 1.358 . S
C134 H137 0.930 1_455 S
C135 C132 1.348 . S
C135 C133 1.356 . S
H136 C130 0.930 . S
H137 C134 0.930 1_655 S
C138 C140 1.348 . S
C138 C141 1.356 . S
C138 O168 1.325 . S
N139 C142 1.314 . S
N139 C143 1.279 . S
C140 C138 1.348 . S
C140 C142 1.353 . S
C140 H182 0.929 1_455 S
C141 C138 1.356 . S
C141 C143 1.358 . S
C141 H183 0.930 . S
C142 N139 1.314 . S
C142 C140 1.353 . S
C142 H184 0.930 1_455 S
C143 N139 1.279 . S
C143 C141 1.358 . S
C143 H185 0.930 . S
C144 C145 1.348 . S
C144 C146 1.356 . S
C144 O169 1.325 . S
C145 C144 1.348 . S
C145 C147 1.353 . S
C145 H186 0.929 . S
C146 C144 1.356 . S
C146 C148 1.358 . S
C146 H187 0.930 1_455 S
C147 C145 1.353 . S
C147 N149 1.314 . S
C147 H188 0.930 . S
C148 C146 1.358 . S
C148 N149 1.279 . S
C148 H189 0.930 1_455 S
N149 C147 1.314 . S
N149 C148 1.279 . S
C150 C152 1.353 . S
C150 N153 1.314 . S
C150 H156 0.918 1_545 S
C151 N153 1.279 . S
C151 C154 1.358 . S
C151 H157 0.930 . S
C152 C150 1.353 . S
C152 C155 1.348 . S
C152 H190 0.929 1_545 S
N153 Li108 1.990 . S
N153 C150 1.314 . S
N153 C151 1.279 . S
C154 C151 1.358 . S
C154 C155 1.356 . S
C154 H191 0.930 . S
C155 C152 1.348 . S
C155 C154 1.356 . S
H156 C150 0.918 1_565 S
H157 C151 0.930 . S
C158 N159 1.314 . S
C158 C160 1.353 . S
C158 H164 0.930 . S
N159 Li109 1.990 . S
N159 C158 1.314 . S
N159 C162 1.279 . S
C160 C158 1.353 . S
C160 C163 1.348 . S
C160 H192 0.929 . S
C161 C162 1.358 . S
C161 C163 1.356 . S
C161 H193 0.930 1_545 S
C162 N159 1.279 . S
C162 C161 1.358 . S
C162 H165 0.930 1_545 S
C163 C160 1.348 . S
C163 C161 1.356 . S
H164 C158 0.930 . S
H165 C162 0.930 1_565 S
O166 Li106 1.956 . S
O166 Li107 1.970 1_545 S
O166 Li108 1.961 . S
O166 C110 1.325 . S
O167 Li106 1.970 1_655 S
O167 Li107 1.956 1_645 S
O167 Li109 1.961 . S
O167 C116 1.325 . S
O168 Li106 1.961 . S
O168 Li108 1.956 . S
O168 Li109 1.970 1_455 S
O168 C138 1.325 . S
O169 Li107 1.961 . S
O169 Li108 1.970 1_565 S
O169 Li109 1.956 1_465 S
O169 C144 1.325 . S
H170 C112 0.929 1_565 S
H171 C113 0.930 . S
H172 C114 0.930 1_565 S
H173 C115 0.930 . S
H174 C117 0.930 1_565 S
H175 C119 0.929 . S
H176 C120 0.930 1_565 S
H177 C121 0.930 . S
H178 C124 0.930 . S
H179 C127 0.929 1_655 S
H180 C132 0.929 . S
H181 C133 0.930 1_655 S
H182 C140 0.929 1_655 S
H183 C141 0.930 . S
H184 C142 0.930 1_655 S
H185 C143 0.930 . S
H186 C145 0.929 . S
H187 C146 0.930 1_655 S
H188 C147 0.930 . S
H189 C148 0.930 1_655 S
H190 C152 0.929 1_565 S
H191 C154 0.930 . S
H192 C160 0.929 . S
H193 C161 0.930 1_565 S
Li194 N211 1.990 1_455 S
Li194 O254 1.956 . S
Li194 O255 1.970 . S
Li194 O256 1.961 . S
Li195 N219 1.990 . S
Li195 O254 1.970 . S
Li195 O255 1.956 . S
Li195 O257 1.961 . S
Li196 N241 1.990 . S
Li196 O254 1.961 . S
Li196 O256 1.956 . S
Li196 O257 1.970 . S
Li197 N247 1.990 1_545 S
Li197 O255 1.961 . S
Li197 O256 1.970 . S
Li197 O257 1.956 . S
C198 C200 1.348 . S
C198 C201 1.356 . S
C198 O254 1.325 . S
N199 C202 1.314 . S
N199 C203 1.279 . S
C200 C198 1.348 . S
C200 C202 1.353 . S
C200 H258 0.929 . S
C201 C198 1.356 . S
C201 C203 1.358 . S
C201 H259 0.930 . S
C202 N199 1.314 . S
C202 C200 1.353 . S
C202 H260 0.930 . S
C203 N199 1.279 . S
C203 C201 1.358 . S
C203 H261 0.930 . S
C204 C207 1.348 . S
C204 C208 1.356 . S
C204 O255 1.325 1_565 S
C205 N206 1.279 . S
C205 C208 1.358 . S
C205 H262 0.930 . S
N206 C205 1.279 . S
N206 C209 1.314 . S
C207 C204 1.348 . S
C207 C209 1.353 . S
C207 H263 0.929 . S
C208 C204 1.356 . S
C208 C205 1.358 . S
C208 H264 0.930 . S
C209 N206 1.314 . S
C209 C207 1.353 . S
C209 H265 0.930 . S
C210 N211 1.314 . S
C210 C215 1.353 . S
C210 H216 0.930 . S
N211 Li194 1.990 1_655 S
N211 C210 1.314 . S
N211 C213 1.279 . S
C212 C213 1.358 . S
C212 C214 1.356 . S
C212 H266 0.930 . S
C213 N211 1.279 . S
C213 C212 1.358 . S
C213 H217 0.930 . S
C214 C212 1.356 . S
C214 C215 1.348 . S
C215 C210 1.353 . S
C215 C214 1.348 . S
C215 H267 0.929 . S
H216 C210 0.930 . S
H217 C213 0.930 . S
C218 N219 1.314 . S
C218 C220 1.353 . S
C218 H224 0.930 . S
N219 Li195 1.990 . S
N219 C218 1.314 . S
N219 C222 1.279 . S
C220 C218 1.353 . S
C220 C223 1.348 . S
C220 H268 0.929 . S
C221 C222 1.358 . S
C221 C223 1.356 . S
C221 H269 0.930 . S
C222 N219 1.279 . S
C222 C221 1.358 . S
C222 H225 0.930 . S
C223 C220 1.348 . S
C223 C221 1.356 . S
H224 C218 0.930 . S
H225 C222 0.930 . S
C226 C228 1.348 . S
C226 C229 1.356 . S
C226 O256 1.325 1_655 S
N227 C230 1.314 . S
N227 C231 1.279 . S
C228 C226 1.348 . S
C228 C230 1.353 . S
C228 H270 0.929 . S
C229 C226 1.356 . S
C229 C231 1.358 . S
C229 H271 0.930 . S
C230 N227 1.314 . S
C230 C228 1.353 . S
C230 H272 0.930 . S
C231 N227 1.279 . S
C231 C229 1.358 . S
C231 H273 0.930 . S
C232 C233 1.348 . S
C232 C234 1.356 . S
C232 O257 1.325 . S
C233 C232 1.348 . S
C233 C235 1.353 . S
C233 H274 0.929 . S
C234 C232 1.356 . S
C234 C236 1.358 . S
C234 H275 0.930 . S
C235 C233 1.353 . S
C235 N237 1.314 . S
C235 H276 0.930 . S
C236 C234 1.358 . S
C236 N237 1.279 . S
C236 H277 0.930 . S
N237 C235 1.314 . S
N237 C236 1.279 . S
C238 C240 1.353 . S
C238 N241 1.314 . S
C238 H244 0.930 . S
C239 N241 1.279 . S
C239 C242 1.358 . S
C239 H245 0.930 . S
C240 C238 1.353 . S
C240 C243 1.348 . S
C240 H278 0.929 . S
N241 Li196 1.990 . S
N241 C238 1.314 . S
N241 C239 1.279 . S
C242 C239 1.358 . S
C242 C243 1.356 . S
C242 H279 0.930 . S
C243 C240 1.348 . S
C243 C242 1.356 . S
H244 C238 0.930 . S
H245 C239 0.930 . S
C246 N247 1.314 . S
C246 C248 1.353 . S
C246 H252 0.930 . S
N247 Li197 1.990 1_565 S
N247 C246 1.314 . S
N247 C250 1.279 . S
C248 C246 1.353 . S
C248 C251 1.348 . S
C248 H280 0.929 . S
C249 C250 1.358 . S
C249 C251 1.356 . S
C249 H281 0.930 . S
C250 N247 1.279 . S
C250 C249 1.358 . S
C250 H253 0.930 . S
C251 C248 1.348 . S
C251 C249 1.356 . S
H252 C246 0.930 . S
H253 C250 0.930 . S
O254 Li194 1.956 . S
O254 Li195 1.970 . S
O254 Li196 1.961 . S
O254 C198 1.325 . S
O255 Li194 1.970 . S
O255 Li195 1.956 . S
O255 Li197 1.961 . S
O255 C204 1.325 1_545 S
O256 Li194 1.961 . S
O256 Li196 1.956 . S
O256 Li197 1.970 . S
O256 C226 1.325 1_455 S
O257 Li195 1.961 . S
O257 Li196 1.970 . S
O257 Li197 1.956 . S
O257 C232 1.325 . S
H258 C200 0.929 . S
H259 C201 0.930 . S
H260 C202 0.930 . S
H261 C203 0.930 . S
H262 C205 0.930 . S
H263 C207 0.929 . S
H264 C208 0.930 . S
H265 C209 0.930 . S
H266 C212 0.930 . S
H267 C215 0.929 . S
H268 C220 0.929 . S
H269 C221 0.930 . S
H270 C228 0.929 . S
H271 C229 0.930 . S
H272 C230 0.930 . S
H273 C231 0.930 . S
H274 C233 0.929 . S
H275 C234 0.930 . S
H276 C235 0.930 . S
H277 C236 0.930 . S
H278 C240 0.929 . S
H279 C242 0.930 . S
H280 C248 0.929 . S
H281 C249 0.930 . S
H282 C283 0.951 . S
C283 H282 0.951 . S
C283 C289 1.265 . S
H284 C289 0.950 . S
H285 C293 0.949 . S
H286 C294 0.950 . S
H287 C295 0.951 . S
H288 C296 0.951 . S
C289 C283 1.265 . S
C289 H284 0.950 . S
C289 C290 1.478 . S
C290 C289 1.478 . S
C290 C291 1.397 . S
C290 C307 1.394 . S
C291 C290 1.397 . S
C291 C292 1.438 . S
C291 C296 1.429 1_545 S
C292 C291 1.438 . S
C292 C293 1.428 1_545 S
C292 C305 1.394 . S
C293 H285 0.949 . S
C293 C292 1.428 1_565 S
C293 C294 1.345 . S
C294 H286 0.950 . S
C294 C293 1.345 . S
C294 C295 1.424 . S
C295 H287 0.951 . S
C295 C294 1.424 . S
C295 C296 1.347 . S
C296 H288 0.951 . S
C296 C291 1.429 1_565 S
C296 C295 1.347 . S
H297 C298 0.951 . S
C298 H297 0.951 . S
C298 C304 1.265 . S
H299 C304 0.950 . S
H300 C308 0.949 . S
H301 C309 0.950 . S
H302 C310 0.951 . S
H303 C311 0.951 . S
C304 C298 1.265 . S
C304 H299 0.950 . S
C304 C305 1.478 . S
C305 C292 1.394 . S
C305 C304 1.478 . S
C305 C306 1.397 . S
C306 C305 1.397 . S
C306 C307 1.438 . S
C306 C311 1.429 . S
C307 C290 1.394 . S
C307 C306 1.438 . S
C307 C308 1.428 . S
C308 H300 0.949 . S
C308 C307 1.428 . S
C308 C309 1.345 . S
C309 H301 0.950 . S
C309 C308 1.345 . S
C309 C310 1.424 . S
C310 H302 0.951 . S
C310 C309 1.424 . S
C310 C311 1.347 . S
C311 H303 0.951 . S
C311 C306 1.429 . S
C311 C310 1.347 . S
H312 C313 0.951 . S
C313 H312 0.951 . S
C313 C319 1.265 . S
H314 C319 0.950 . S
H315 C323 0.949 . S
H316 C324 0.950 . S
H317 C325 0.951 . S
H318 C326 0.951 . S
C319 C313 1.265 . S
C319 H314 0.950 . S
C319 C320 1.478 . S
C320 C319 1.478 . S
C320 C321 1.397 . S
C320 C337 1.394 . S
C321 C320 1.397 . S
C321 C322 1.438 . S
C321 C326 1.429 . S
C322 C321 1.438 . S
C322 C323 1.428 . S
C322 C335 1.394 . S
C323 H315 0.949 . S
C323 C322 1.428 . S
C323 C324 1.345 . S
C324 H316 0.950 . S
C324 C323 1.345 . S
C324 C325 1.424 . S
C325 H317 0.951 . S
C325 C324 1.424 . S
C325 C326 1.347 . S
C326 H318 0.951 . S
C326 C321 1.429 . S
C326 C325 1.347 . S
H327 C328 0.951 . S
C328 H327 0.951 . S
C328 C334 1.265 . S
H329 C334 0.950 . S
H330 C338 0.949 . S
H331 C339 0.950 . S
H332 C340 0.951 . S
H333 C341 0.951 . S
C334 C328 1.265 . S
C334 H329 0.950 . S
C334 C335 1.478 . S
C335 C322 1.394 . S
C335 C334 1.478 . S
C335 C336 1.397 . S
C336 C335 1.397 . S
C336 C337 1.438 . S
C336 C341 1.429 . S
C337 C320 1.394 . S
C337 C336 1.438 . S
C337 C338 1.428 . S
C338 H330 0.949 . S
C338 C337 1.428 . S
C338 C339 1.345 . S
C339 H331 0.950 . S
C339 C338 1.345 . S
C339 C340 1.424 . S
C340 H332 0.951 . S
C340 C339 1.424 . S
C340 C341 1.347 . S
C341 H333 0.951 . S
C341 C336 1.429 . S
C341 C340 1.347 . S
H342 C343 0.951 . S
C343 H342 0.951 . S
C343 C349 1.265 . S
H344 C349 0.950 . S
H345 C353 0.949 . S
H346 C354 0.950 . S
H347 C355 0.951 . S
H348 C356 0.951 . S
C349 C343 1.265 . S
C349 H344 0.950 . S
C349 C350 1.478 . S
C350 C349 1.478 . S
C350 C351 1.397 . S
C350 C367 1.394 . S
C351 C350 1.397 . S
C351 C352 1.438 . S
C351 C356 1.429 . S
C352 C351 1.438 . S
C352 C353 1.428 . S
C352 C365 1.394 . S
C353 H345 0.949 . S
C353 C352 1.428 . S
C353 C354 1.345 . S
C354 H346 0.950 . S
C354 C353 1.345 . S
C354 C355 1.424 . S
C355 H347 0.951 . S
C355 C354 1.424 . S
C355 C356 1.347 . S
C356 H348 0.951 . S
C356 C351 1.429 . S
C356 C355 1.347 . S
H357 C358 0.951 . S
C358 H357 0.951 . S
C358 C364 1.265 . S
H359 C364 0.950 . S
H360 C368 0.949 . S
H361 C369 0.950 . S
H362 C370 0.951 . S
H363 C371 0.951 . S
C364 C358 1.265 . S
C364 H359 0.950 . S
C364 C365 1.478 . S
C365 C352 1.394 . S
C365 C364 1.478 . S
C365 C366 1.397 . S
C366 C365 1.397 . S
C366 C367 1.438 . S
C366 C371 1.429 1_545 S
C367 C350 1.394 . S
C367 C366 1.438 . S
C367 C368 1.428 1_545 S
C368 H360 0.949 . S
C368 C367 1.428 1_565 S
C368 C369 1.345 . S
C369 H361 0.950 . S
C369 C368 1.345 . S
C369 C370 1.424 . S
C370 H362 0.951 . S
C370 C369 1.424 . S
C370 C371 1.347 . S
C371 H363 0.951 . S
C371 C366 1.429 1_565 S
C371 C370 1.347 . S
H372 C373 0.951 . S
C373 H372 0.951 . S
C373 C379 1.265 . S
H374 C379 0.948 . S
H375 C383 0.949 . S
H376 C384 0.940 1_655 S
H377 C385 0.951 . S
H378 C386 0.951 1_655 S
C379 C373 1.265 . S
C379 H374 0.948 . S
C379 C380 1.478 . S
C380 C379 1.478 . S
C380 C381 1.397 . S
C380 C397 1.394 . S
C381 C380 1.397 . S
C381 C382 1.438 . S
C381 C386 1.429 . S
C382 C381 1.438 . S
C382 C383 1.428 . S
C382 C395 1.394 . S
C383 H375 0.949 . S
C383 C382 1.428 . S
C383 C384 1.359 . S
C384 H376 0.940 1_455 S
C384 C383 1.359 . S
C384 C385 1.420 1_455 S
C385 H377 0.951 . S
C385 C384 1.420 1_655 S
C385 C386 1.347 1_655 S
C386 H378 0.951 1_455 S
C386 C381 1.429 . S
C386 C385 1.347 1_455 S
H387 C388 0.951 . S
C388 H387 0.951 . S
C388 C394 1.265 . S
H389 C394 0.950 . S
H390 C398 0.949 . S
H391 C399 0.950 . S
H392 C400 0.951 . S
H393 C401 0.951 . S
C394 C388 1.265 . S
C394 H389 0.950 . S
C394 C395 1.478 . S
C395 C382 1.394 . S
C395 C394 1.478 . S
C395 C396 1.397 . S
C396 C395 1.397 . S
C396 C397 1.438 . S
C396 C401 1.429 . S
C397 C380 1.394 . S
C397 C396 1.438 . S
C397 C398 1.428 . S
C398 H390 0.949 . S
C398 C397 1.428 . S
C398 C399 1.345 . S
C399 H391 0.950 . S
C399 C398 1.345 . S
C399 C400 1.424 . S
C400 H392 0.951 . S
C400 C399 1.424 . S
C400 C401 1.347 . S
C401 H393 0.951 . S
C401 C396 1.429 . S
C401 C400 1.347 . S
H402 C403 0.951 . S
C403 H402 0.951 . S
C403 C409 1.265 . S
H404 C409 0.950 . S
H405 C413 0.949 . S
H406 C414 0.950 . S
H407 C415 0.951 . S
H408 C416 0.951 . S
C409 C403 1.265 . S
C409 H404 0.950 . S
C409 C410 1.478 . S
C410 C409 1.478 . S
C410 C411 1.397 . S
C410 C427 1.394 . S
C411 C410 1.397 . S
C411 C412 1.438 . S
C411 C416 1.429 . S
C412 C411 1.438 . S
C412 C413 1.428 . S
C412 C425 1.394 . S
C413 H405 0.949 . S
C413 C412 1.428 . S
C413 C414 1.345 . S
C414 H406 0.950 . S
C414 C413 1.345 . S
C414 C415 1.424 . S
C415 H407 0.951 . S
C415 C414 1.424 . S
C415 C416 1.347 . S
C416 H408 0.951 . S
C416 C411 1.429 . S
C416 C415 1.347 . S
H417 C418 0.951 . S
C418 H417 0.951 . S
C418 C424 1.265 . S
H419 C424 0.950 . S
H420 C428 0.949 . S
H421 C429 0.950 . S
H422 C430 0.951 . S
H423 C431 0.951 . S
C424 C418 1.265 . S
C424 H419 0.950 . S
C424 C425 1.478 . S
C425 C412 1.394 . S
C425 C424 1.478 . S
C425 C426 1.397 . S
C426 C425 1.397 . S
C426 C427 1.438 . S
C426 C431 1.429 1_545 S
C427 C410 1.394 . S
C427 C426 1.438 . S
C427 C428 1.428 1_545 S
C428 H420 0.949 . S
C428 C427 1.428 1_565 S
C428 C429 1.345 . S
C429 H421 0.950 . S
C429 C428 1.345 . S
C429 C430 1.424 . S
C430 H422 0.951 . S
C430 C429 1.424 . S
C430 C431 1.347 . S
C431 H423 0.951 . S
C431 C426 1.429 1_565 S
C431 C430 1.347 . S
H432 C433 0.951 . S
C433 H432 0.951 . S
C433 C439 1.265 . S
H434 C439 0.950 . S
H435 C443 0.949 . S
H436 C444 0.950 . S
H437 C445 0.951 . S
H438 C446 0.951 . S
C439 C433 1.265 . S
C439 H434 0.950 . S
C439 C440 1.478 . S
C440 C439 1.478 . S
C440 C441 1.397 . S
C440 C457 1.394 . S
C441 C440 1.397 . S
C441 C442 1.438 . S
C441 C446 1.429 . S
C442 C441 1.438 . S
C442 C443 1.428 . S
C442 C455 1.394 . S
C443 H435 0.949 . S
C443 C442 1.428 . S
C443 C444 1.345 . S
C444 H436 0.950 . S
C444 C443 1.345 . S
C444 C445 1.424 . S
C445 H437 0.951 . S
C445 C444 1.424 . S
C445 C446 1.347 . S
C446 H438 0.951 . S
C446 C441 1.429 . S
C446 C445 1.347 . S
H447 C448 0.951 . S
C448 H447 0.951 . S
C448 C454 1.265 . S
H449 C454 0.950 . S
H450 C458 0.949 . S
H451 C459 0.950 . S
H452 C460 0.951 . S
H453 C461 0.951 . S
C454 C448 1.265 . S
C454 H449 0.950 . S
C454 C455 1.478 . S
C455 C442 1.394 . S
C455 C454 1.478 . S
C455 C456 1.398 . S
C456 C455 1.398 . S
C456 C457 1.438 . S
C456 C461 1.427 1_455 S
C457 C440 1.394 . S
C457 C456 1.438 . S
C457 C458 1.428 1_455 S
C458 H450 0.949 . S
C458 C457 1.428 1_655 S
C458 C459 1.345 . S
C459 H451 0.950 . S
C459 C458 1.345 . S
C459 C460 1.424 . S
C460 H452 0.951 . S
C460 C459 1.424 . S
C460 C461 1.347 . S
C461 H453 0.951 . S
C461 C456 1.427 1_655 S
C461 C460 1.347 . S
H462 C463 0.951 . S
C463 H462 0.951 . S
C463 C469 1.265 . S
H464 C469 0.950 . S
H465 C473 0.949 . S
H466 C474 0.950 . S
H467 C475 0.951 . S
H468 C476 0.951 . S
C469 C463 1.265 . S
C469 H464 0.950 . S
C469 C470 1.478 . S
C470 C469 1.478 . S
C470 C471 1.397 . S
C470 C487 1.394 . S
C471 C470 1.397 . S
C471 C472 1.438 . S
C471 C476 1.429 1_545 S
C472 C471 1.438 . S
C472 C473 1.428 1_545 S
C472 C485 1.394 . S
C473 H465 0.949 . S
C473 C472 1.428 1_565 S
C473 C474 1.345 . S
C474 H466 0.950 . S
C474 C473 1.345 . S
C474 C475 1.424 . S
C475 H467 0.951 . S
C475 C474 1.424 . S
C475 C476 1.347 . S
C476 H468 0.951 . S
C476 C471 1.429 1_565 S
C476 C475 1.347 . S
H477 C478 0.951 . S
C478 H477 0.951 . S
C478 C484 1.265 . S
H479 C484 0.950 . S
H480 C488 0.949 . S
H481 C489 0.950 . S
H482 C490 0.951 . S
H483 C491 0.951 . S
C484 C478 1.265 . S
C484 H479 0.950 . S
C484 C485 1.478 . S
C485 C472 1.394 . S
C485 C484 1.478 . S
C485 C486 1.397 . S
C486 C485 1.397 . S
C486 C487 1.438 . S
C486 C491 1.429 . S
C487 C470 1.394 . S
C487 C486 1.438 . S
C487 C488 1.428 . S
C488 H480 0.949 . S
C488 C487 1.428 . S
C488 C489 1.345 . S
C489 H481 0.950 . S
C489 C488 1.345 . S
C489 C490 1.424 . S
C490 H482 0.951 . S
C490 C489 1.424 . S
C490 C491 1.347 . S
C491 H483 0.951 . S
C491 C486 1.429 . S
C491 C490 1.347 . S
H492 C493 0.951 . S
C493 H492 0.951 . S
C493 C499 1.265 . S
H494 C499 0.950 1_655 S
H495 C503 0.949 . S
H496 C504 0.950 . S
H497 C505 0.951 . S
H498 C506 0.951 . S
C499 C493 1.265 . S
C499 H494 0.950 1_455 S
C499 C500 1.478 . S
C500 C499 1.478 . S
C500 C501 1.397 . S
C500 C517 1.394 . S
C501 C500 1.397 . S
C501 C502 1.438 . S
C501 C506 1.429 . S
C502 C501 1.438 . S
C502 C503 1.428 . S
C502 C515 1.394 . S
C503 H495 0.949 . S
C503 C502 1.428 . S
C503 C504 1.345 . S
C504 H496 0.950 . S
C504 C503 1.345 . S
C504 C505 1.424 . S
C505 H497 0.951 . S
C505 C504 1.424 . S
C505 C506 1.347 . S
C506 H498 0.951 . S
C506 C501 1.429 . S
C506 C505 1.347 . S
H507 C508 0.951 . S
C508 H507 0.951 . S
C508 C514 1.265 . S
H509 C514 0.950 . S
H510 C518 0.949 . S
H511 C519 0.950 . S
H512 C520 0.951 . S
H513 C521 0.951 . S
C514 C508 1.265 . S
C514 H509 0.950 . S
C514 C515 1.478 . S
C515 C502 1.394 . S
C515 C514 1.478 . S
C515 C516 1.397 . S
C516 C515 1.397 . S
C516 C517 1.438 . S
C516 C521 1.429 . S
C517 C500 1.394 . S
C517 C516 1.438 . S
C517 C518 1.428 . S
C518 H510 0.949 . S
C518 C517 1.428 . S
C518 C519 1.345 . S
C519 H511 0.950 . S
C519 C518 1.345 . S
C519 C520 1.424 . S
C520 H512 0.951 . S
C520 C519 1.424 . S
C520 C521 1.347 . S
C521 H513 0.951 . S
C521 C516 1.429 . S
C521 C520 1.347 . S
C298 C155 1.481 . S
C283 C22 1.478 . S
C328 C243 1.483 . S
C313 C91 1.482 . S
C358 C163 1.477 . S
C343 C38 1.473 . S
C388 C251 1.484 . S
C373 C75 1.479 . S
C418 C223 1.478 . S
C403 C39 1.474 . S
C448 C126 1.479 . S
C433 C82 1.482 . S
C478 C214 1.480 . S
C463 C29 1.478 . S
C493 C92 1.479 . S
C508 C135 1.474 . S
