# Generated by pormake.
# Topology rtl, (3,6)-cn, num edge types: 1
# Building blocks:
#     Node 0, Type 0, BuildingBlock: WUSLED_clean_sbu_0, # of connection points: 3
#     Node 1, Type 0, BuildingBlock: WUSLED_clean_sbu_0, # of connection points: 3
#     Node 2, Type 0, BuildingBlock: WUSLED_clean_sbu_0, # of connection points: 3
#     Node 3, Type 0, BuildingBlock: WUSLED_clean_sbu_0, # of connection points: 3
#     Node 4, Type 1, BuildingBlock: LEVNOQ01_clean_sbu_1, # of connection points: 6
#     Node 5, Type 1, BuildingBlock: LEVNOQ01_clean_sbu_1, # of connection points: 6
#     Edge 6, Type (0, 1), BuildingBlock: ZUJKAS_clean_linker_0, # of connection points: 2
#     Edge 7, Type (0, 1), BuildingBlock: ZUJKAS_clean_linker_0, # of connection points: 2
#     Edge 8, Type (0, 1), BuildingBlock: ZUJKAS_clean_linker_0, # of connection points: 2
#     Edge 9, Type (0, 1), BuildingBlock: ZUJKAS_clean_linker_0, # of connection points: 2
#     Edge 10, Type (0, 1), BuildingBlock: ZUJKAS_clean_linker_0, # of connection points: 2
#     Edge 11, Type (0, 1), BuildingBlock: ZUJKAS_clean_linker_0, # of connection points: 2
#     Edge 12, Type (0, 1), BuildingBlock: ZUJKAS_clean_linker_0, # of connection points: 2
#     Edge 13, Type (0, 1), BuildingBlock: ZUJKAS_clean_linker_0, # of connection points: 2
#     Edge 14, Type (0, 1), BuildingBlock: ZUJKAS_clean_linker_0, # of connection points: 2
#     Edge 15, Type (0, 1), BuildingBlock: ZUJKAS_clean_linker_0, # of connection points: 2
#     Edge 16, Type (0, 1), BuildingBlock: ZUJKAS_clean_linker_0, # of connection points: 2
#     Edge 17, Type (0, 1), BuildingBlock: ZUJKAS_clean_linker_0, # of connection points: 2
# Relax obj value: 0.023
# Max RMSD: 0.059
# Mean RMSD: 0.042
data_MOF--net-rtl--node1-WUSLED_clean_sbu_0--node2-LEVNOQ01_clean_sbu_1--edge1-ZUJKAS_clean_linker_0
_symmetry_space_group_name_H-M    P1
_symmetry_Int_Tables_number       1
_symmetry_cell_setting            triclinic
loop_
_symmetry_equiv_pos_as_xyz
'x, y, z'
_cell_length_a     49.395911
_cell_length_b     55.694029
_cell_length_c     38.454533
_cell_angle_alpha  90.24587
_cell_angle_beta   98.302581
_cell_angle_gamma 89.946528
loop_
_atom_site_label
_atom_site_type_symbol
_atom_site_fract_x
_atom_site_fract_y
_atom_site_fract_z
_atom_type_partial_charge
C0 C 0.21015 0.86316 0.18679 0.0
C1 C 0.19429 0.88388 0.17891 0.0
C2 C 0.1922 0.89027 0.24127 0.0
C3 C 0.18546 0.8974 0.20598 0.0
C4 C 0.20851 0.86971 0.24889 0.0
C5 C 0.21738 0.85631 0.22189 0.0
U6 U 0.20918 0.84465 0.0901 0.0
O7 O 0.2427 0.83103 0.06356 0.0
O8 O 0.20705 0.80821 0.06742 0.0
C9 C 0.23185 0.80948 0.05897 0.0
C10 C 0.21861 0.84791 0.15897 0.0
C11 C 0.24992 0.78901 0.07043 0.0
C12 C 0.28869 0.7715 0.10813 0.0
C13 C 0.27175 0.7912 0.09808 0.0
C14 C 0.26183 0.74706 0.06366 0.0
C15 C 0.28392 0.7492 0.09101 0.0
C16 C 0.24507 0.76679 0.05344 0.0
C17 C 0.16631 0.87926 0.01558 0.0
C18 C 0.17017 0.87447 0.95356 0.0
C19 C 0.1319 0.89638 0.97101 0.0
C20 C 0.14206 0.89225 1.00634 0.0
C21 C 0.14587 0.88761 0.94416 0.0
C22 C 0.18025 0.87024 0.98897 0.0
C23 C 0.17668 0.87541 0.05303 0.0
O24 O 0.19926 0.83438 0.14194 0.0
O25 O 0.23417 0.85812 0.13828 0.0
O26 O 0.20299 0.87918 0.06257 0.0
O27 O 0.16776 0.85598 0.06697 0.0
H28 H 0.18844 0.88935 0.15186 0.0
H29 H 0.17273 0.91302 0.19924 0.0
H30 H 0.21438 0.86393 0.27578 0.0
H31 H 0.22966 0.84039 0.22843 0.0
H32 H 0.30541 0.77366 0.12948 0.0
H33 H 0.27575 0.80811 0.11187 0.0
H34 H 0.25782 0.73024 0.04963 0.0
H35 H 0.22834 0.76471 0.03209 0.0
H36 H 0.18126 0.86727 0.93354 0.0
H37 H 0.11335 0.90684 0.96475 0.0
H38 H 0.13104 0.89937 0.02652 0.0
H39 H 0.19893 0.85999 0.99557 0.0
C40 C 0.71874 0.66946 0.68956 0.0
C41 C 0.70138 0.64968 0.68137 0.0
C42 C 0.69948 0.64324 0.74368 0.0
C43 C 0.69186 0.63664 0.70823 0.0
C44 C 0.71736 0.66281 0.75162 0.0
C45 C 0.72687 0.67578 0.72479 0.0
U46 U 0.7196 0.68412 0.59271 0.0
O47 O 0.71718 0.71908 0.5661 0.0
O48 O 0.75354 0.69643 0.56593 0.0
C49 C 0.74207 0.7174 0.55804 0.0
C50 C 0.72786 0.68412 0.66174 0.0
C51 C 0.75961 0.73848 0.56704 0.0
C52 C 0.78363 0.76609 0.60999 0.0
C53 C 0.76758 0.7455 0.60212 0.0
C54 C 0.78403 0.7726 0.5478 0.0
C55 C 0.79186 0.78001 0.58286 0.0
C56 C 0.76805 0.75206 0.54001 0.0
C57 C 0.67871 0.64484 0.52158 0.0
C58 C 0.67232 0.65435 0.45923 0.0
C59 C 0.65622 0.61638 0.47895 0.0
C60 C 0.66579 0.62272 0.51374 0.0
C61 C 0.65938 0.63208 0.45122 0.0
C62 C 0.682 0.66065 0.49415 0.0
C63 C 0.68844 0.65103 0.55849 0.0
O64 O 0.74427 0.67339 0.64253 0.0
O65 O 0.70862 0.69685 0.64305 0.0
O66 O 0.67884 0.67114 0.56992 0.0
O67 O 0.71478 0.64811 0.56879 0.0
H68 H 0.69485 0.6446 0.65423 0.0
H69 H 0.6779 0.62185 0.70117 0.0
H70 H 0.72391 0.66818 0.77863 0.0
H71 H 0.74033 0.69097 0.73156 0.0
H72 H 0.78914 0.77138 0.63722 0.0
H73 H 0.76118 0.7352 0.62334 0.0
H74 H 0.7904 0.78261 0.5263 0.0
H75 H 0.76216 0.74683 0.51279 0.0
H76 H 0.67529 0.66675 0.4385 0.0
H77 H 0.64597 0.59928 0.47383 0.0
H78 H 0.66301 0.61034 0.5346 0.0
H79 H 0.69203 0.67781 0.49976 0.0
C80 C 0.81937 0.19082 0.11459 0.0
C81 C 0.83486 0.16975 0.11386 0.0
C82 C 0.84604 0.17072 0.17782 0.0
C83 C 0.84805 0.15977 0.14518 0.0
C84 C 0.83054 0.19193 0.17824 0.0
C85 C 0.81735 0.20186 0.14692 0.0
U86 U 0.80439 0.19347 0.01436 0.0
O87 O 0.7656 0.19973 0.97952 0.0
O88 O 0.79994 0.22462 0.97903 0.0
C89 C 0.77405 0.22008 0.96766 0.0
C90 C 0.8053 0.20151 0.08193 0.0
C91 C 0.7552 0.24054 0.96791 0.0
C92 C 0.73534 0.27298 0.99838 0.0
C93 C 0.75328 0.25345 0.99886 0.0
C94 C 0.72091 0.26672 0.93607 0.0
C95 C 0.71892 0.27986 0.96694 0.0
C96 C 0.7389 0.24727 0.93659 0.0
C97 C 0.84002 0.14844 0.96 0.0
C98 C 0.84144 0.15167 0.89721 0.0
C99 C 0.85921 0.11612 0.92872 0.0
C100 C 0.85218 0.12574 0.95983 0.0
C101 C 0.8543 0.12908 0.89708 0.0
C102 C 0.83436 0.16127 0.92844 0.0
C103 C 0.83421 0.15861 0.99355 0.0
O104 O 0.82115 0.21283 0.06273 0.0
O105 O 0.78699 0.18778 0.06323 0.0
O106 O 0.80925 0.15539 1.00071 0.0
O107 O 0.8436 0.18038 1.00101 0.0
H108 H 0.83664 0.16097 0.08909 0.0
H109 H 0.85947 0.14327 0.14384 0.0
H110 H 0.82883 0.20105 0.20276 0.0
H111 H 0.80557 0.2182 0.14796 0.0
H112 H 0.73406 0.2825 0.0227 0.0
H113 H 0.76564 0.24841 0.02336 0.0
H114 H 0.70884 0.27167 0.91136 0.0
H115 H 0.74015 0.23751 0.91243 0.0
H116 H 0.83754 0.16221 0.87342 0.0
H117 H 0.86859 0.09851 0.9295 0.0
H118 H 0.85655 0.11552 0.98391 0.0
H119 H 0.8249 0.17884 0.92807 0.0
C120 C 0.28532 0.38234 0.40053 0.0
C121 C 0.29315 0.40649 0.4056 0.0
C122 C 0.30743 0.40756 0.34743 0.0
C123 C 0.304 0.419 0.37926 0.0
C124 C 0.29965 0.38331 0.34269 0.0
C125 C 0.28866 0.3709 0.36892 0.0
U126 U 0.28144 0.36608 0.49656 0.0
O127 O 0.24537 0.35838 0.52246 0.0
O128 O 0.27702 0.33087 0.52058 0.0
C129 C 0.25263 0.33591 0.52856 0.0
C130 C 0.27369 0.3687 0.42767 0.0
C131 C 0.23115 0.31767 0.51883 0.0
C132 C 0.21324 0.28263 0.48503 0.0
C133 C 0.23263 0.30104 0.49157 0.0
C134 C 0.18995 0.29787 0.53181 0.0
C135 C 0.19191 0.28056 0.5055 0.0
C136 C 0.20941 0.31615 0.53845 0.0
C137 C 0.32955 0.39683 0.57071 0.0
C138 C 0.32511 0.3946 0.63281 0.0
C139 C 0.36667 0.41028 0.61487 0.0
C140 C 0.3558 0.40652 0.57966 0.0
C141 C 0.35145 0.40444 0.6419 0.0
C142 C 0.31429 0.39073 0.59749 0.0
C143 C 0.31866 0.3932 0.53334 0.0
O144 O 0.29017 0.35298 0.44517 0.0
O145 O 0.25927 0.38104 0.44776 0.0
O146 O 0.29331 0.40023 0.52341 0.0
O147 O 0.32421 0.3723 0.52004 0.0
H148 H 0.29087 0.41571 0.42987 0.0
H149 H 0.30948 0.43769 0.38375 0.0
H150 H 0.30249 0.37371 0.31894 0.0
H151 H 0.28289 0.35224 0.36456 0.0
H152 H 0.21557 0.26954 0.46477 0.0
H153 H 0.24914 0.30188 0.47589 0.0
H154 H 0.17353 0.29714 0.54763 0.0
H155 H 0.20778 0.32886 0.55946 0.0
H156 H 0.31297 0.38972 0.653 0.0
H157 H 0.38683 0.4182 0.62088 0.0
H158 H 0.36787 0.41133 0.55934 0.0
H159 H 0.29404 0.38303 0.59109 0.0
O160 O 0.01608 0.04207 0.6317 0.0
Mg161 Mg 0.04592 0.03597 0.59802 0.0
O162 O 0.98288 0.03699 0.58769 0.0
Mg163 Mg 0.00966 0.01865 0.54963 0.0
O164 O 0.04061 0.05214 0.5499 0.0
O165 O 0.06918 0.0653 0.59696 0.0
O166 O 0.04043 1.00183 0.5133 0.0
O167 O 0.9858 0.04146 0.50332 0.0
Mg168 Mg 0.98958 0.98685 0.5006 0.0
O169 O 0.97583 0.98761 0.54848 0.0
O170 O 0.02433 0.9665 0.49635 0.0
O171 O 0.97813 0.0135 0.46272 0.0
O172 O 0.95744 0.96524 0.50209 0.0
C173 C 0.0556 0.99018 0.61057 0.0
C174 C 0.99084 0.04286 0.61965 0.0
C175 C 0.05911 0.06729 0.56427 0.0
C176 C 0.04366 0.9814 0.49924 0.0
C177 C 0.97709 0.03529 0.47166 0.0
C178 C 0.95837 0.97142 0.53457 0.0
O179 O 0.07246 0.00665 0.60752 0.0
O180 O 0.03097 0.99294 0.59572 0.0
O181 O 0.54993 0.50294 0.12836 0.0
Mg182 Mg 0.52865 0.47876 0.09225 0.0
O183 O 0.53358 0.53397 0.09648 0.0
Mg184 Mg 0.50723 0.51866 0.04502 0.0
O185 O 0.53409 0.48386 0.04105 0.0
O186 O 0.55167 0.45291 0.07444 0.0
O187 O 0.4808 0.5031 0.99364 0.0
O188 O 0.54063 0.53531 0.01315 0.0
Mg189 Mg 0.48566 0.5575 0.99788 0.0
O190 O 0.48064 0.55375 0.04952 0.0
O191 O 0.46324 0.53383 0.96217 0.0
O192 O 0.52396 0.56873 0.98814 0.0
O193 O 0.46386 0.58438 0.01478 0.0
C194 C 0.47054 0.48279 0.09389 0.0
C195 C 0.54793 0.52541 0.12399 0.0
C196 C 0.54835 0.46406 0.0448 0.0
C197 C 0.4658 0.5114 0.96647 0.0
C198 C 0.54361 0.5543 0.99553 0.0
C199 C 0.46683 0.57378 0.04486 0.0
O200 O 0.48969 0.46772 0.10034 0.0
O201 O 0.4741 0.50202 0.07707 0.0
H202 H 0.17199 0.25497 0.55679 0.0
H203 H 0.14272 0.21959 0.5501 0.0
H204 H 0.13969 0.22261 0.43761 0.0
H205 H 0.16877 0.25852 0.44396 0.0
H206 H 0.0891 0.2122 0.51027 0.0
H207 H 0.16979 0.15446 0.4656 0.0
H208 H 0.17765 0.18319 0.48651 0.0
H209 H 0.16074 0.18182 0.44201 0.0
C210 C 0.16474 0.24849 0.53052 0.0
C211 C 0.17281 0.25968 0.50092 0.0
C212 C 0.14807 0.22815 0.52676 0.0
C213 C 0.13919 0.21838 0.4934 0.0
C214 C 0.1466 0.22971 0.46364 0.0
H215 H 0.0333 0.08973 0.50445 0.0
H216 H 0.04922 0.12601 0.47676 0.0
C217 C 0.16329 0.25018 0.46736 0.0
C218 C 0.12328 0.19569 0.49061 0.0
H219 H 0.13056 0.1353 0.47936 0.0
C220 C 0.09778 0.19541 0.50268 0.0
C221 C 0.13475 0.17385 0.48073 0.0
C222 C 0.16229 0.17311 0.46812 0.0
C223 C 0.08423 0.17371 0.5072 0.0
C224 C 0.09649 0.15178 0.4993 0.0
C225 C 0.12112 0.15218 0.48508 0.0
C226 C 0.08729 0.1286 0.51238 0.0
C227 C 0.05797 0.17423 0.52294 0.0
C228 C 0.10371 0.11779 0.54076 0.0
C229 C 0.09472 0.09743 0.55651 0.0
C230 C 0.06912 0.08719 0.54413 0.0
C231 C 0.05311 0.09726 0.51454 0.0
C232 C 0.0621 0.11799 0.49885 0.0
H233 H 0.05196 0.19274 0.52949 0.0
H234 H 0.04121 0.1663 0.50405 0.0
H235 H 0.06017 0.16324 0.54722 0.0
H236 H 0.12319 0.12566 0.5516 0.0
H237 H 0.10771 0.08998 0.579 0.0
H238 H 0.26958 0.70236 0.0998 0.0
H239 H 0.29998 0.66761 0.11052 0.0
H240 H 0.37008 0.71412 0.11371 0.0
H241 H 0.33984 0.74889 0.10352 0.0
H242 H 0.33344 0.65206 0.06772 0.0
H243 H 0.39555 0.67147 0.19585 0.0
H244 H 0.36439 0.68757 0.18048 0.0
H245 H 0.39618 0.69616 0.16623 0.0
C246 C 0.2915 0.70519 0.10322 0.0
C247 C 0.30231 0.72838 0.10075 0.0
C248 C 0.30885 0.68533 0.10955 0.0
C249 C 0.33738 0.68821 0.11355 0.0
C250 C 0.34821 0.71143 0.11184 0.0
H251 H 0.47564 0.61862 0.06965 0.0
H252 H 0.44329 0.64282 0.09703 0.0
C253 C 0.33088 0.73132 0.10579 0.0
C254 C 0.35565 0.66686 0.11524 0.0
H255 H 0.41566 0.64393 0.15758 0.0
C256 C 0.35104 0.64993 0.08788 0.0
C257 C 0.37861 0.66403 0.14157 0.0
C258 C 0.38381 0.68066 0.17287 0.0
C259 C 0.36968 0.63129 0.08471 0.0
C260 C 0.39346 0.62926 0.10996 0.0
C261 C 0.39738 0.64542 0.13837 0.0
C262 C 0.41628 0.61318 0.10372 0.0
C263 C 0.36472 0.61499 0.05293 0.0
C264 C 0.41286 0.58813 0.10071 0.0
C265 C 0.43162 0.57416 0.08524 0.0
C266 C 0.45387 0.58519 0.07279 0.0
C267 C 0.45873 0.60973 0.07936 0.0
C268 C 0.44019 0.62358 0.0949 0.0
H269 H 0.34731 0.62114 0.03343 0.0
H270 H 0.38327 0.61395 0.03977 0.0
H271 H 0.36002 0.59662 0.06137 0.0
H272 H 0.39467 0.57971 0.10775 0.0
H273 H 0.42726 0.55533 0.07992 0.0
H274 H 0.83528 0.78758 0.6351 0.0
H275 H 0.86353 0.82381 0.6457 0.0
H276 H 0.81451 0.8585 0.55826 0.0
H277 H 0.78579 0.82288 0.5483 0.0
H278 H 0.8946 0.84374 0.60089 0.0
H279 H 0.81937 0.9109 0.63163 0.0
H280 H 0.8129 0.87901 0.6326 0.0
H281 H 0.80699 0.8952 0.59172 0.0
C282 C 0.83019 0.80312 0.61862 0.0
C283 C 0.8083 0.80229 0.59078 0.0
C284 C 0.84641 0.82378 0.62464 0.0
C285 C 0.84086 0.84406 0.6032 0.0
C286 C 0.81881 0.84334 0.57574 0.0
H287 H 0.90663 0.95746 0.51186 0.0
H288 H 0.87932 0.92889 0.53969 0.0
C289 C 0.80264 0.82278 0.56971 0.0
C290 C 0.85937 0.86524 0.60707 0.0
H291 H 0.8585 0.92656 0.60685 0.0
C292 C 0.88695 0.86185 0.60324 0.0
C293 C 0.84945 0.88886 0.61045 0.0
C294 C 0.82061 0.89369 0.61722 0.0
C295 C 0.90418 0.88145 0.5995 0.0
C296 C 0.89357 0.90504 0.59998 0.0
C297 C 0.86659 0.90846 0.60644 0.0
C298 C 0.90833 0.92567 0.58727 0.0
C299 C 0.93295 0.87675 0.59228 0.0
C300 C 0.93322 0.93422 0.60551 0.0
C301 C 0.94888 0.9509 0.58965 0.0
C302 C 0.93985 0.95888 0.55531 0.0
C303 C 0.91411 0.9515 0.5383 0.0
C304 C 0.89846 0.93519 0.55419 0.0
H305 H 0.93728 0.85728 0.58987 0.0
H306 H 0.93644 0.88579 0.56763 0.0
H307 H 0.94777 0.88427 0.61402 0.0
H308 H 0.94107 0.92721 0.63122 0.0
H309 H 0.96874 0.95622 0.60319 0.0
H310 H 0.72804 0.32347 0.99988 0.0
H311 H 0.69614 0.35717 0.99978 0.0
H312 H 0.63497 0.31731 0.93176 0.0
H313 H 0.66648 0.28331 0.93234 0.0
H314 H 0.66745 0.38406 0.94074 0.0
H315 H 0.59726 0.33597 0.01766 0.0
H316 H 0.63165 0.32572 0.01547 0.0
H317 H 0.60519 0.32092 0.97892 0.0
C318 C 0.70773 0.32179 0.9851 0.0
C319 C 0.69977 0.3006 0.96631 0.0
C320 C 0.68962 0.34115 0.98481 0.0
C321 C 0.66314 0.33967 0.96597 0.0
C322 C 0.65524 0.31874 0.94672 0.0
H323 H 0.52712 0.43504 0.99084 0.0
H324 H 0.55383 0.40636 0.96098 0.0
C325 C 0.67335 0.29939 0.9469 0.0
C326 C 0.6436 0.35979 0.96745 0.0
H327 H 0.58557 0.37541 1.00059 0.0
C328 C 0.6494 0.38217 0.95355 0.0
C329 C 0.61997 0.35722 0.98393 0.0
C330 C 0.61311 0.33375 1.00011 0.0
C331 C 0.63242 0.40219 0.95626 0.0
C332 C 0.60935 0.39985 0.97396 0.0
C333 C 0.6031 0.37722 0.98676 0.0
C334 C 0.5932 0.42088 0.98335 0.0
C335 C 0.63946 0.42563 0.94026 0.0
C336 C 0.60633 0.43932 1.00441 0.0
C337 C 0.59106 0.45582 0.02099 0.0
C338 C 0.56245 0.45417 0.01687 0.0
C339 C 0.54914 0.43705 0.99359 0.0
C340 C 0.56442 0.42051 0.97689 0.0
H341 H 0.65044 0.42255 0.91737 0.0
H342 H 0.62088 0.43653 0.93162 0.0
H343 H 0.65324 0.4361 0.96009 0.0
H344 H 0.62841 0.4397 0.01064 0.0
H345 H 0.60174 0.46844 0.03968 0.0
H346 H 0.17059 0.87149 0.29662 0.0
H347 H 0.15263 0.89296 0.34382 0.0
H348 H 0.1717 0.96056 0.29875 0.0
H349 H 0.18959 0.93909 0.25105 0.0
H350 H 0.17755 0.92456 0.3936 0.0
H351 H 0.0914 0.96892 0.30834 0.0
H352 H 0.111 0.94488 0.29262 0.0
H353 H 0.1249 0.97471 0.29734 0.0
C354 C 0.17116 0.89093 0.29683 0.0
C355 C 0.1815 0.90358 0.27005 0.0
C356 C 0.16082 0.90318 0.32381 0.0
C357 C 0.16055 0.92837 0.32467 0.0
C358 C 0.1712 0.94113 0.29826 0.0
H359 H 0.0771 0.0133 0.47183 0.0
H360 H 0.1108 0.00376 0.4326 0.0
C361 C 0.18143 0.92884 0.27105 0.0
C362 C 0.14875 0.94094 0.35318 0.0
H363 H 0.09498 0.97592 0.36908 0.0
C364 C 0.15968 0.93601 0.38822 0.0
C365 C 0.12552 0.95601 0.34617 0.0
C366 C 0.11231 0.96136 0.30913 0.0
C367 C 0.14742 0.94501 0.41635 0.0
C368 C 0.12352 0.95916 0.40927 0.0
C369 C 0.1134 0.96514 0.37439 0.0
C370 C 0.10667 0.96526 0.437 0.0
C371 C 0.15972 0.93884 0.45343 0.0
C372 C 0.0936 0.9468 0.45285 0.0
C373 C 0.07428 0.95217 0.47485 0.0
C374 C 0.06772 0.97613 0.48162 0.0
C375 C 0.08193 0.99467 0.46733 0.0
C376 C 0.10107 0.98926 0.44482 0.0
H377 H 0.18174 0.93417 0.4551 0.0
H378 H 0.15752 0.954 0.47168 0.0
H379 H 0.14888 0.92306 0.4623 0.0
H380 H 0.09731 0.92817 0.44677 0.0
H381 H 0.06365 0.93751 0.48545 0.0
H382 H 0.69175 0.59472 0.75121 0.0
H383 H 0.67012 0.57456 0.79682 0.0
H384 H 0.65949 0.64292 0.84602 0.0
H385 H 0.68055 0.6632 0.80052 0.0
H386 H 0.68417 0.57829 0.87747 0.0
H387 H 0.58101 0.61095 0.82041 0.0
H388 H 0.60922 0.6093 0.79535 0.0
H389 H 0.60741 0.63343 0.82606 0.0
C390 C 0.68481 0.60544 0.77177 0.0
C391 C 0.68783 0.63059 0.77217 0.0
C392 C 0.67268 0.59387 0.79792 0.0
C393 C 0.66318 0.60729 0.82465 0.0
C394 C 0.66669 0.63227 0.82555 0.0
H395 H 0.56678 0.59747 0.98811 0.0
H396 H 0.59979 0.60728 0.94892 0.0
C397 C 0.67887 0.64381 0.79961 0.0
C398 C 0.64816 0.59563 0.85068 0.0
H399 H 0.58537 0.59431 0.87756 0.0
C400 C 0.6625 0.58149 0.8774 0.0
C401 C 0.6199 0.59975 0.85023 0.0
C402 C 0.60333 0.61401 0.82134 0.0
C403 C 0.64944 0.57234 0.90479 0.0
C404 C 0.62141 0.57736 0.90506 0.0
C405 C 0.60695 0.59067 0.87748 0.0
C406 C 0.60662 0.57043 0.93445 0.0
C407 C 0.66582 0.55825 0.93394 0.0
C408 C 0.6005 0.54631 0.94066 0.0
C409 C 0.58178 0.5406 0.96362 0.0
C410 C 0.56875 0.55901 0.98007 0.0
C411 C 0.57651 0.58294 0.97572 0.0
C412 C 0.5953 0.58857 0.95325 0.0
H413 H 0.68814 0.55906 0.93271 0.0
H414 H 0.66197 0.56512 0.95994 0.0
H415 H 0.65933 0.53917 0.93191 0.0
H416 H 0.60873 0.53204 0.92608 0.0
H417 H 0.57587 0.52204 0.9662 0.0
H418 H 0.89687 0.14985 0.19064 0.0
H419 H 0.91854 0.13078 0.2448 0.0
H420 H 0.84882 0.14898 0.29537 0.0
H421 H 0.82653 0.16731 0.24099 0.0
H422 H 0.93296 0.14894 0.31342 0.0
H423 H 0.8554 0.0763 0.30877 0.0
H424 H 0.85799 0.0955 0.27174 0.0
H425 H 0.84184 0.10625 0.3078 0.0
C426 C 0.886 0.14963 0.21316 0.0
C427 C 0.85981 0.15996 0.21126 0.0
C428 C 0.89856 0.13892 0.24423 0.0
C429 C 0.88519 0.13822 0.27403 0.0
C430 C 0.85937 0.14902 0.27256 0.0
H431 H 0.96482 0.0833 0.48021 0.0
H432 H 0.94243 0.11078 0.43489 0.0
C433 C 0.84676 0.1597 0.24149 0.0
C434 C 0.89797 0.12548 0.30618 0.0
H435 H 0.89009 0.07689 0.35765 0.0
C436 C 0.92354 0.13328 0.3233 0.0
C437 C 0.8857 0.10495 0.31885 0.0
C438 C 0.85884 0.09506 0.30075 0.0
C439 C 0.93735 0.12087 0.35241 0.0
C440 C 0.92512 0.10028 0.36491 0.0
C441 C 0.89932 0.09281 0.34821 0.0
C442 C 0.93979 0.08463 0.39269 0.0
C443 C 0.96538 0.12925 0.3687 0.0
C444 C 0.94565 0.06091 0.38408 0.0
C445 C 0.95815 0.0453 0.4097 0.0
C446 C 0.96513 0.05292 0.44481 0.0
C447 C 0.95974 0.07687 0.45345 0.0
C448 C 0.94706 0.0926 0.42756 0.0
H449 H 0.97383 0.14299 0.35237 0.0
H450 H 0.96409 0.13726 0.39488 0.0
H451 H 0.97982 0.11388 0.37254 0.0
H452 H 0.94033 0.05438 0.35738 0.0
H453 H 0.96209 0.02706 0.40188 0.0
H454 H 0.40363 0.39615 0.67459 0.0
H455 H 0.42352 0.40733 0.73442 0.0
H456 H 0.34543 0.43509 0.75341 0.0
H457 H 0.32538 0.4239 0.69365 0.0
H458 H 0.42755 0.45247 0.75995 0.0
H459 H 0.369 0.39758 0.84288 0.0
H460 H 0.36906 0.39139 0.79674 0.0
H461 H 0.34729 0.41449 0.81037 0.0
C462 C 0.39063 0.40447 0.6916 0.0
C463 C 0.36292 0.40921 0.67928 0.0
C464 C 0.402 0.41072 0.72586 0.0
C465 C 0.38592 0.42176 0.74864 0.0
C466 C 0.3581 0.42602 0.7367 0.0
H467 H 0.4275 0.52355 0.91121 0.0
H468 H 0.40914 0.49884 0.86095 0.0
C469 C 0.34667 0.41969 0.70244 0.0
C470 C 0.39884 0.43099 0.78345 0.0
H471 H 0.39343 0.43147 0.87116 0.0
C472 C 0.42034 0.44756 0.78429 0.0
C473 C 0.38962 0.42448 0.81533 0.0
C474 C 0.36766 0.40582 0.81642 0.0
C475 C 0.432 0.45855 0.81578 0.0
C476 C 0.42176 0.45304 0.84728 0.0
C477 C 0.4011 0.43574 0.84688 0.0
C478 C 0.4309 0.46673 0.87996 0.0
C479 C 0.45478 0.47651 0.81509 0.0
C480 C 0.44865 0.45659 0.90788 0.0
C481 C 0.45934 0.47076 0.93694 0.0
C482 C 0.45237 0.49523 0.93835 0.0
C483 C 0.43357 0.50486 0.91094 0.0
C484 C 0.42298 0.49077 0.88213 0.0
H485 H 0.46425 0.47497 0.79066 0.0
H486 H 0.44642 0.49494 0.81646 0.0
H487 H 0.4709 0.47405 0.8381 0.0
H488 H 0.45495 0.43801 0.90661 0.0
H489 H 0.47376 0.4628 0.95759 0.0
H490 H 0.63208 0.66001 0.39862 0.0
H491 H 0.61236 0.64727 0.33913 0.0
H492 H 0.64344 0.57573 0.36095 0.0
H493 H 0.66337 0.58828 0.42005 0.0
H494 H 0.63696 0.62456 0.28267 0.0
H495 H 0.5598 0.56689 0.33269 0.0
H496 H 0.57865 0.58985 0.35926 0.0
H497 H 0.59421 0.56122 0.35318 0.0
C498 C 0.63501 0.64165 0.39057 0.0
C499 C 0.649 0.62507 0.41427 0.0
C500 C 0.62366 0.6344 0.35663 0.0
C501 C 0.62603 0.61047 0.3459 0.0
C502 C 0.64089 0.59417 0.36898 0.0
H503 H 0.58586 0.51279 0.17929 0.0
H504 H 0.60393 0.53701 0.23015 0.0
C505 C 0.6522 0.60136 0.40279 0.0
C506 C 0.6124 0.60205 0.31107 0.0
H507 H 0.56657 0.56046 0.27313 0.0
C508 C 0.62126 0.61083 0.28042 0.0
C509 C 0.59172 0.58431 0.30826 0.0
C510 C 0.5803 0.57516 0.34006 0.0
C511 C 0.61106 0.60123 0.24715 0.0
C512 C 0.59146 0.5826 0.24468 0.0
C513 C 0.58173 0.57467 0.27516 0.0
C514 C 0.58253 0.56938 0.21148 0.0
C515 C 0.62216 0.61016 0.21507 0.0
C516 C 0.56481 0.57972 0.18368 0.0
C517 C 0.5543 0.56581 0.15425 0.0
C518 C 0.56126 0.54136 0.15244 0.0
C519 C 0.57985 0.53148 0.17984 0.0
C520 C 0.59028 0.54531 0.209 0.0
H521 H 0.63905 0.62329 0.2218 0.0
H522 H 0.62977 0.59483 0.20064 0.0
H523 H 0.6055 0.61893 0.1971 0.0
H524 H 0.55839 0.59824 0.18531 0.0
H525 H 0.53997 0.57394 0.13366 0.0
H526 H 0.82749 0.13069 0.82912 0.0
H527 H 0.84307 0.11438 0.776 0.0
H528 H 0.91725 0.0894 0.83827 0.0
H529 H 0.90209 0.10572 0.89112 0.0
H530 H 0.89036 0.12503 0.74669 0.0
H531 H 0.88934 0.02921 0.78361 0.0
H532 H 0.87202 0.05209 0.80552 0.0
H533 H 0.90822 0.0473 0.81746 0.0
C534 C 0.84715 0.12177 0.83147 0.0
C535 C 0.8634 0.11929 0.86451 0.0
C536 C 0.85595 0.11237 0.80111 0.0
C537 C 0.88105 0.10021 0.80327 0.0
C538 C 0.89746 0.09809 0.83608 0.0
H539 H 1.00149 0.04969 0.69034 0.0
H540 H 0.97033 0.0629 0.7301 0.0
C541 C 0.88873 0.10745 0.86633 0.0
C542 C 0.89085 0.09036 0.77134 0.0
H543 H 0.91718 0.03949 0.73928 0.0
C544 C 0.89568 0.10623 0.74461 0.0
C545 C 0.89756 0.06579 0.76853 0.0
C546 C 0.89125 0.04757 0.79514 0.0
C547 C 0.90879 0.09846 0.71643 0.0
C548 C 0.91707 0.07422 0.71493 0.0
C549 C 0.91088 0.0581 0.74059 0.0
C550 C 0.9352 0.06593 0.68976 0.0
C551 C 0.91522 0.11642 0.68955 0.0
C552 C 0.92568 0.06305 0.65376 0.0
C553 C 0.94354 0.05532 0.63068 0.0
C554 C 0.9712 0.05053 0.64335 0.0
C555 C 0.98041 0.05333 0.67952 0.0
C556 C 0.96261 0.06084 0.70241 0.0
H557 H 0.90898 0.13494 0.69573 0.0
H558 H 0.9375 0.11632 0.68803 0.0
H559 H 0.90438 0.11129 0.66326 0.0
H560 H 0.90449 0.06673 0.64357 0.0
H561 H 0.9358 0.0533 0.60301 0.0
H562 H 0.34931 0.44044 0.35583 0.0
H563 H 0.37114 0.45974 0.31022 0.0
H564 H 0.31652 0.42232 0.23044 0.0
H565 H 0.29358 0.40399 0.27575 0.0
H566 H 0.39877 0.43768 0.26618 0.0
H567 H 0.31491 0.48806 0.18785 0.0
H568 H 0.31202 0.47609 0.23073 0.0
H569 H 0.30611 0.45711 0.19235 0.0
C570 C 0.34139 0.4368 0.32859 0.0
C571 C 0.31966 0.42056 0.31959 0.0
C572 C 0.35403 0.44776 0.30249 0.0
C573 C 0.34528 0.44278 0.26679 0.0
C574 C 0.32328 0.42694 0.25769 0.0
H575 H 0.44766 0.44011 0.10648 0.0
H576 H 0.41432 0.43264 0.14624 0.0
C577 C 0.31048 0.41611 0.28375 0.0
C578 C 0.36095 0.4521 0.23944 0.0
H579 H 0.35461 0.48008 0.15959 0.0
C580 C 0.3891 0.44723 0.24315 0.0
C581 C 0.3485 0.46482 0.20947 0.0
C582 C 0.31878 0.47206 0.20501 0.0
C583 C 0.40489 0.45386 0.21726 0.0
C584 C 0.39212 0.46519 0.18629 0.0
C585 C 0.36423 0.47102 0.18308 0.0
C586 C 0.40761 0.47018 0.15681 0.0
C587 C 0.43517 0.44851 0.22323 0.0
C588 C 0.41344 0.49383 0.1477 0.0
C589 C 0.4323 0.49818 0.12442 0.0
C590 C 0.4456 0.47889 0.11027 0.0
C591 C 0.43791 0.45531 0.11724 0.0
C592 C 0.41895 0.45101 0.14007 0.0
H593 H 0.44295 0.44599 0.25156 0.0
H594 H 0.43906 0.43168 0.2092 0.0
H595 H 0.44698 0.46319 0.21297 0.0
H596 H 0.40475 0.50887 0.16021 0.0
H597 H 0.43798 0.51653 0.11966 0.0
H598 H 0.0928 0.88566 0.91146 0.0
H599 H 0.07518 0.89614 0.85065 0.0
H600 H 0.15717 0.91184 0.83134 0.0
H601 H 0.17493 0.90128 0.89201 0.0
H602 H 0.07834 0.93925 0.81965 0.0
H603 H 0.12936 0.87108 0.74642 0.0
H604 H 0.12792 0.86868 0.79293 0.0
H605 H 0.15304 0.88764 0.77728 0.0
C606 C 0.1071 0.89124 0.89421 0.0
C607 C 0.13529 0.89261 0.90662 0.0
C608 C 0.09701 0.89711 0.85941 0.0
C609 C 0.11486 0.90441 0.83618 0.0
C610 C 0.14304 0.90561 0.8484 0.0
H611 H 0.10683 0.97788 0.64165 0.0
H612 H 0.1189 0.95346 0.69414 0.0
C613 C 0.15317 0.89964 0.88318 0.0
C614 C 0.10383 0.9125 0.80007 0.0
H615 H 0.1101 0.905 0.7133 0.0
C616 C 0.08495 0.9315 0.79635 0.0
C617 C 0.11248 0.9024 0.76965 0.0
C618 C 0.13161 0.88116 0.77167 0.0
C619 C 0.07539 0.94136 0.76329 0.0
C620 C 0.08461 0.9317 0.73297 0.0
C621 C 0.10297 0.91231 0.73654 0.0
C622 C 0.07728 0.943 0.69795 0.0
C623 C 0.05648 0.96279 0.7613 0.0
C624 C 0.04996 0.94429 0.68162 0.0
C625 C 0.04294 0.95828 0.65143 0.0
C626 C 0.06317 0.9712 0.63717 0.0
C627 C 0.09071 0.96833 0.65211 0.0
C628 C 0.09768 0.95435 0.68214 0.0
H629 H 0.05549 0.97081 0.78759 0.0
H630 H 0.06321 0.97685 0.74402 0.0
H631 H 0.03553 0.9571 0.74994 0.0
H632 H 0.03395 0.9353 0.69306 0.0
H633 H 0.02156 0.96004 0.64053 0.0
loop_
_geom_bond_atom_site_label_1
_geom_bond_atom_site_label_2
_geom_bond_distance
_geom_bond_site_symmetry_2
_ccdc_geom_bond_type
C0 C1 1.264 . S
C0 C5 1.479 . S
C0 C10 1.465 . S
C1 C0 1.264 . S
C1 C3 1.339 . S
C1 H28 0.931 . S
C2 C3 1.395 . S
C2 C4 1.320 . S
C3 C1 1.339 . S
C3 C2 1.395 . S
C3 H29 0.929 . S
C4 C2 1.320 . S
C4 C5 1.405 . S
C4 H30 0.930 . S
C5 C0 1.479 . S
C5 C4 1.405 . S
C5 H31 0.931 . S
U6 O7 2.454 . S
U6 O8 2.458 . S
U6 C9 2.984 . S
U6 C10 2.847 . S
U6 C23 2.882 . S
U6 O24 2.441 . S
U6 O25 2.420 . S
U6 O26 2.455 . S
U6 O27 2.449 . S
O7 U6 2.454 . S
O7 C9 1.353 . S
O8 U6 2.458 . S
O8 C9 1.286 . S
C9 U6 2.984 . S
C9 O7 1.353 . S
C9 O8 1.286 . S
C9 C11 1.363 . S
C10 C0 1.465 . S
C10 U6 2.847 . S
C10 O24 1.249 . S
C10 O25 1.202 . S
C11 C9 1.363 . S
C11 C13 1.408 . S
C11 C16 1.342 . S
C12 C13 1.310 . S
C12 C15 1.461 . S
C12 H32 0.932 . S
C13 C11 1.408 . S
C13 C12 1.310 . S
C13 H33 0.930 . S
C14 C15 1.474 . S
C14 C16 1.285 . S
C14 H34 0.929 . S
C15 C12 1.461 . S
C15 C14 1.474 . S
C16 C11 1.342 . S
C16 C14 1.285 . S
C16 H35 0.930 . S
C17 C20 1.424 . S
C17 C22 1.245 . S
C17 C23 1.428 1_556 S
C18 C21 1.260 . S
C18 C22 1.477 . S
C18 H36 0.932 . S
C19 C20 1.384 . S
C19 C21 1.479 . S
C19 H37 0.929 . S
C20 C17 1.424 . S
C20 C19 1.384 . S
C20 H38 0.928 1_556 S
C21 C18 1.260 . S
C21 C19 1.479 . S
C22 C17 1.245 . S
C22 C18 1.477 . S
C22 H39 0.932 . S
C23 U6 2.882 . S
C23 C17 1.428 1_554 S
C23 O26 1.301 . S
C23 O27 1.282 . S
O24 U6 2.441 . S
O24 C10 1.249 . S
O25 U6 2.420 . S
O25 C10 1.202 . S
O26 U6 2.455 . S
O26 C23 1.301 . S
O27 U6 2.449 . S
O27 C23 1.282 . S
H28 C1 0.931 . S
H29 C3 0.929 . S
H30 C4 0.930 . S
H31 C5 0.931 . S
H32 C12 0.932 . S
H33 C13 0.930 . S
H34 C14 0.929 . S
H35 C16 0.930 . S
H36 C18 0.932 . S
H37 C19 0.929 . S
H38 C20 0.928 1_554 S
H39 C22 0.932 . S
C40 C41 1.264 . S
C40 C45 1.479 . S
C40 C50 1.465 . S
C41 C40 1.264 . S
C41 C43 1.339 . S
C41 H68 0.931 . S
C42 C43 1.395 . S
C42 C44 1.320 . S
C43 C41 1.339 . S
C43 C42 1.395 . S
C43 H69 0.929 . S
C44 C42 1.320 . S
C44 C45 1.405 . S
C44 H70 0.930 . S
C45 C40 1.479 . S
C45 C44 1.405 . S
C45 H71 0.931 . S
U46 O47 2.454 . S
U46 O48 2.458 . S
U46 C49 2.984 . S
U46 C50 2.847 . S
U46 C63 2.882 . S
U46 O64 2.441 . S
U46 O65 2.420 . S
U46 O66 2.455 . S
U46 O67 2.449 . S
O47 U46 2.454 . S
O47 C49 1.353 . S
O48 U46 2.458 . S
O48 C49 1.286 . S
C49 U46 2.984 . S
C49 O47 1.353 . S
C49 O48 1.286 . S
C49 C51 1.363 . S
C50 C40 1.465 . S
C50 U46 2.847 . S
C50 O64 1.249 . S
C50 O65 1.202 . S
C51 C49 1.363 . S
C51 C53 1.408 . S
C51 C56 1.342 . S
C52 C53 1.310 . S
C52 C55 1.461 . S
C52 H72 0.932 . S
C53 C51 1.408 . S
C53 C52 1.310 . S
C53 H73 0.930 . S
C54 C55 1.474 . S
C54 C56 1.285 . S
C54 H74 0.929 . S
C55 C52 1.461 . S
C55 C54 1.474 . S
C56 C51 1.342 . S
C56 C54 1.285 . S
C56 H75 0.930 . S
C57 C60 1.424 . S
C57 C62 1.245 . S
C57 C63 1.428 . S
C58 C61 1.260 . S
C58 C62 1.477 . S
C58 H76 0.932 . S
C59 C60 1.384 . S
C59 C61 1.479 . S
C59 H77 0.929 . S
C60 C57 1.424 . S
C60 C59 1.384 . S
C60 H78 0.928 . S
C61 C58 1.260 . S
C61 C59 1.479 . S
C62 C57 1.245 . S
C62 C58 1.477 . S
C62 H79 0.932 . S
C63 U46 2.882 . S
C63 C57 1.428 . S
C63 O66 1.301 . S
C63 O67 1.282 . S
O64 U46 2.441 . S
O64 C50 1.249 . S
O65 U46 2.420 . S
O65 C50 1.202 . S
O66 U46 2.455 . S
O66 C63 1.301 . S
O67 U46 2.449 . S
O67 C63 1.282 . S
H68 C41 0.931 . S
H69 C43 0.929 . S
H70 C44 0.930 . S
H71 C45 0.931 . S
H72 C52 0.932 . S
H73 C53 0.930 . S
H74 C54 0.929 . S
H75 C56 0.930 . S
H76 C58 0.932 . S
H77 C59 0.929 . S
H78 C60 0.928 . S
H79 C62 0.932 . S
C80 C81 1.264 . S
C80 C85 1.479 . S
C80 C90 1.465 . S
C81 C80 1.264 . S
C81 C83 1.339 . S
C81 H108 0.931 . S
C82 C83 1.395 . S
C82 C84 1.320 . S
C83 C81 1.339 . S
C83 C82 1.395 . S
C83 H109 0.929 . S
C84 C82 1.320 . S
C84 C85 1.405 . S
C84 H110 0.930 . S
C85 C80 1.479 . S
C85 C84 1.405 . S
C85 H111 0.931 . S
U86 O87 2.454 . S
U86 O88 2.458 1_554 S
U86 C89 2.984 1_554 S
U86 C90 2.847 . S
U86 C103 2.882 1_554 S
U86 O104 2.441 . S
U86 O105 2.420 . S
U86 O106 2.455 1_554 S
U86 O107 2.449 1_554 S
O87 U86 2.454 . S
O87 C89 1.353 1_554 S
O88 U86 2.458 1_556 S
O88 C89 1.286 . S
C89 U86 2.984 1_556 S
C89 O87 1.353 1_556 S
C89 O88 1.286 . S
C89 C91 1.363 . S
C90 C80 1.465 . S
C90 U86 2.847 . S
C90 O104 1.249 . S
C90 O105 1.202 . S
C91 C89 1.363 . S
C91 C93 1.408 1_556 S
C91 C96 1.342 . S
C92 C93 1.310 . S
C92 C95 1.461 1_554 S
C92 H112 0.932 . S
C93 C91 1.408 1_554 S
C93 C92 1.310 . S
C93 H113 0.930 . S
C94 C95 1.474 . S
C94 C96 1.285 . S
C94 H114 0.929 . S
C95 C92 1.461 1_556 S
C95 C94 1.474 . S
C96 C91 1.342 . S
C96 C94 1.285 . S
C96 H115 0.930 . S
C97 C100 1.424 . S
C97 C102 1.245 . S
C97 C103 1.428 . S
C98 C101 1.260 . S
C98 C102 1.477 . S
C98 H116 0.932 . S
C99 C100 1.384 . S
C99 C101 1.479 . S
C99 H117 0.929 . S
C100 C97 1.424 . S
C100 C99 1.384 . S
C100 H118 0.928 . S
C101 C98 1.260 . S
C101 C99 1.479 . S
C102 C97 1.245 . S
C102 C98 1.477 . S
C102 H119 0.932 . S
C103 U86 2.882 1_556 S
C103 C97 1.428 . S
C103 O106 1.301 . S
C103 O107 1.282 . S
O104 U86 2.441 . S
O104 C90 1.249 . S
O105 U86 2.420 . S
O105 C90 1.202 . S
O106 U86 2.455 1_556 S
O106 C103 1.301 . S
O107 U86 2.449 1_556 S
O107 C103 1.282 . S
H108 C81 0.931 . S
H109 C83 0.929 . S
H110 C84 0.930 . S
H111 C85 0.931 . S
H112 C92 0.932 . S
H113 C93 0.930 . S
H114 C94 0.929 . S
H115 C96 0.930 . S
H116 C98 0.932 . S
H117 C99 0.929 . S
H118 C100 0.928 . S
H119 C102 0.932 . S
C120 C121 1.264 . S
C120 C125 1.479 . S
C120 C130 1.465 . S
C121 C120 1.264 . S
C121 C123 1.339 . S
C121 H148 0.931 . S
C122 C123 1.395 . S
C122 C124 1.320 . S
C123 C121 1.339 . S
C123 C122 1.395 . S
C123 H149 0.929 . S
C124 C122 1.320 . S
C124 C125 1.405 . S
C124 H150 0.930 . S
C125 C120 1.479 . S
C125 C124 1.405 . S
C125 H151 0.931 . S
U126 O127 2.454 . S
U126 O128 2.458 . S
U126 C129 2.984 . S
U126 C130 2.847 . S
U126 C143 2.882 . S
U126 O144 2.441 . S
U126 O145 2.420 . S
U126 O146 2.455 . S
U126 O147 2.449 . S
O127 U126 2.454 . S
O127 C129 1.353 . S
O128 U126 2.458 . S
O128 C129 1.286 . S
C129 U126 2.984 . S
C129 O127 1.353 . S
C129 O128 1.286 . S
C129 C131 1.363 . S
C130 C120 1.465 . S
C130 U126 2.847 . S
C130 O144 1.249 . S
C130 O145 1.202 . S
C131 C129 1.363 . S
C131 C133 1.408 . S
C131 C136 1.342 . S
C132 C133 1.310 . S
C132 C135 1.461 . S
C132 H152 0.932 . S
C133 C131 1.408 . S
C133 C132 1.310 . S
C133 H153 0.930 . S
C134 C135 1.474 . S
C134 C136 1.285 . S
C134 H154 0.929 . S
C135 C132 1.461 . S
C135 C134 1.474 . S
C136 C131 1.342 . S
C136 C134 1.285 . S
C136 H155 0.930 . S
C137 C140 1.424 . S
C137 C142 1.245 . S
C137 C143 1.428 . S
C138 C141 1.260 . S
C138 C142 1.477 . S
C138 H156 0.932 . S
C139 C140 1.384 . S
C139 C141 1.479 . S
C139 H157 0.929 . S
C140 C137 1.424 . S
C140 C139 1.384 . S
C140 H158 0.928 . S
C141 C138 1.260 . S
C141 C139 1.479 . S
C142 C137 1.245 . S
C142 C138 1.477 . S
C142 H159 0.932 . S
C143 U126 2.882 . S
C143 C137 1.428 . S
C143 O146 1.301 . S
C143 O147 1.282 . S
O144 U126 2.441 . S
O144 C130 1.249 . S
O145 U126 2.420 . S
O145 C130 1.202 . S
O146 U126 2.455 . S
O146 C143 1.301 . S
O147 U126 2.449 . S
O147 C143 1.282 . S
H148 C121 0.931 . S
H149 C123 0.929 . S
H150 C124 0.930 . S
H151 C125 0.931 . S
H152 C132 0.932 . S
H153 C133 0.930 . S
H154 C134 0.929 . S
H155 C136 0.930 . S
H156 C138 0.932 . S
H157 C139 0.929 . S
H158 C140 0.928 . S
H159 C142 0.932 . S
O160 Mg161 1.990 1_655 S
O160 C174 1.253 . S
Mg161 O160 1.990 1_455 S
Mg161 O164 2.180 . S
Mg161 O165 2.117 . S
Mg161 O179 2.030 . S
O162 Mg163 2.072 1_655 S
O162 C174 1.260 . S
Mg163 O162 2.072 1_455 S
Mg163 O164 2.099 . S
Mg163 O166 2.070 1_545 S
Mg163 O167 2.072 1_455 S
Mg163 O169 2.099 1_445 S
Mg163 O180 2.079 1_545 S
O164 Mg161 2.180 . S
O164 Mg163 2.099 . S
O164 C175 1.279 . S
O165 Mg161 2.117 . S
O165 C175 1.250 . S
O166 Mg163 2.070 1_565 S
O166 C176 1.274 . S
O167 Mg163 2.072 1_655 S
O167 C177 1.260 . S
Mg168 O169 2.180 . S
Mg168 O170 2.030 1_655 S
Mg168 O171 1.990 1_565 S
Mg168 O172 2.117 . S
O169 Mg163 2.099 1_665 S
O169 Mg168 2.180 . S
O169 C178 1.279 . S
O170 Mg168 2.030 1_455 S
O170 C176 1.248 . S
O171 Mg168 1.990 1_545 S
O171 C177 1.253 . S
O172 Mg168 2.117 . S
O172 C178 1.250 . S
C173 O179 1.249 . S
C173 O180 1.263 1_545 S
C174 O160 1.253 . S
C174 O162 1.260 . S
C175 O164 1.279 . S
C175 O165 1.250 . S
C176 O166 1.274 . S
C176 O170 1.248 . S
C177 O167 1.260 . S
C177 O171 1.253 . S
C178 O169 1.279 . S
C178 O172 1.250 . S
O179 Mg161 2.030 . S
O179 C173 1.249 . S
O180 Mg163 2.079 1_565 S
O180 C173 1.263 1_565 S
O181 Mg182 1.990 . S
O181 C195 1.253 . S
Mg182 O181 1.990 . S
Mg182 O185 2.180 . S
Mg182 O186 2.117 . S
Mg182 O200 2.030 . S
O183 Mg184 2.072 . S
O183 C195 1.260 . S
Mg184 O183 2.072 . S
Mg184 O185 2.099 . S
Mg184 O187 2.079 1_554 S
Mg184 O188 2.072 . S
Mg184 O190 2.099 . S
Mg184 O201 2.079 . S
O185 Mg182 2.180 . S
O185 Mg184 2.099 . S
O185 C196 1.279 . S
O186 Mg182 2.117 . S
O186 C196 1.250 . S
O187 Mg184 2.079 1_556 S
O187 C197 1.264 . S
O188 Mg184 2.072 . S
O188 C198 1.260 1_554 S
Mg189 O190 2.180 1_556 S
Mg189 O191 2.030 . S
Mg189 O192 1.990 . S
Mg189 O193 2.117 1_556 S
O190 Mg184 2.099 . S
O190 Mg189 2.180 1_554 S
O190 C199 1.279 . S
O191 Mg189 2.030 . S
O191 C197 1.248 . S
O192 Mg189 1.990 . S
O192 C198 1.253 . S
O193 Mg189 2.117 1_554 S
O193 C199 1.250 . S
C194 O200 1.248 . S
C194 O201 1.264 . S
C195 O181 1.253 . S
C195 O183 1.260 . S
C196 O185 1.279 . S
C196 O186 1.250 . S
C197 O187 1.264 . S
C197 O191 1.248 . S
C198 O188 1.260 1_556 S
C198 O192 1.253 . S
C199 O190 1.279 . S
C199 O193 1.250 . S
O200 Mg182 2.030 . S
O200 C194 1.248 . S
O201 Mg184 2.079 . S
O201 C194 1.264 . S
H202 C210 0.929 . S
H203 C212 0.930 . S
H204 C214 0.930 . S
H205 C217 0.929 . S
H206 C220 0.930 . S
H207 C222 0.960 . S
H208 C222 0.960 . S
H209 C222 0.960 . S
C210 H202 0.929 . S
C210 C211 1.377 . S
C210 C212 1.384 . S
C211 C210 1.377 . S
C211 C217 1.390 . S
C212 H203 0.930 . S
C212 C210 1.384 . S
C212 C213 1.372 . S
C213 C212 1.372 . S
C213 C214 1.400 . S
C213 C218 1.490 . S
C214 H204 0.930 . S
C214 C213 1.400 . S
C214 C217 1.386 . S
H215 C231 0.930 . S
H216 C232 0.931 . S
C217 H205 0.929 . S
C217 C211 1.390 . S
C217 C214 1.386 . S
C218 C213 1.490 . S
C218 C220 1.395 . S
C218 C221 1.403 . S
H219 C225 0.930 . S
C220 H206 0.930 . S
C220 C218 1.395 . S
C220 C223 1.403 . S
C221 C218 1.403 . S
C221 C222 1.524 . S
C221 C225 1.400 . S
C222 H207 0.960 . S
C222 H208 0.960 . S
C222 H209 0.960 . S
C222 C221 1.524 . S
C223 C220 1.403 . S
C223 C224 1.392 . S
C223 C227 1.495 . S
C224 C223 1.392 . S
C224 C225 1.385 . S
C224 C226 1.478 . S
C225 H219 0.930 . S
C225 C221 1.400 . S
C225 C224 1.385 . S
C226 C224 1.478 . S
C226 C228 1.381 . S
C226 C232 1.383 . S
C227 C223 1.495 . S
C227 H233 0.959 . S
C227 H234 0.961 . S
C227 H235 0.960 . S
C228 C226 1.381 . S
C228 C229 1.394 . S
C228 H236 0.930 . S
C229 C228 1.394 . S
C229 C230 1.383 . S
C229 H237 0.929 . S
C230 C229 1.383 . S
C230 C231 1.377 . S
C231 H215 0.930 . S
C231 C230 1.377 . S
C231 C232 1.379 . S
C232 H216 0.931 . S
C232 C226 1.383 . S
C232 C231 1.379 . S
H233 C227 0.959 . S
H234 C227 0.961 . S
H235 C227 0.960 . S
H236 C228 0.930 . S
H237 C229 0.929 . S
H238 C246 0.929 . S
H239 C248 0.930 . S
H240 C250 0.930 . S
H241 C253 0.929 . S
H242 C256 0.930 . S
H243 C258 0.960 . S
H244 C258 0.960 . S
H245 C258 0.960 . S
C246 H238 0.929 . S
C246 C247 1.377 . S
C246 C248 1.384 . S
C247 C246 1.377 . S
C247 C253 1.390 . S
C248 H239 0.930 . S
C248 C246 1.384 . S
C248 C249 1.372 . S
C249 C248 1.372 . S
C249 C250 1.400 . S
C249 C254 1.490 . S
C250 H240 0.930 . S
C250 C249 1.400 . S
C250 C253 1.386 . S
H251 C267 0.930 . S
H252 C268 0.931 . S
C253 H241 0.929 . S
C253 C247 1.390 . S
C253 C250 1.386 . S
C254 C249 1.490 . S
C254 C256 1.395 . S
C254 C257 1.403 . S
H255 C261 0.930 . S
C256 H242 0.930 . S
C256 C254 1.395 . S
C256 C259 1.403 . S
C257 C254 1.403 . S
C257 C258 1.524 . S
C257 C261 1.400 . S
C258 H243 0.960 . S
C258 H244 0.960 . S
C258 H245 0.960 . S
C258 C257 1.524 . S
C259 C256 1.403 . S
C259 C260 1.392 . S
C259 C263 1.495 1_554 S
C260 C259 1.392 . S
C260 C261 1.385 . S
C260 C262 1.478 . S
C261 H255 0.930 . S
C261 C257 1.400 . S
C261 C260 1.385 . S
C262 C260 1.478 . S
C262 C264 1.381 . S
C262 C268 1.383 . S
C263 C259 1.495 1_556 S
C263 H269 0.959 . S
C263 H270 0.961 . S
C263 H271 0.960 . S
C264 C262 1.381 . S
C264 C265 1.394 . S
C264 H272 0.930 . S
C265 C264 1.394 . S
C265 C266 1.383 . S
C265 H273 0.929 . S
C266 C265 1.383 . S
C266 C267 1.377 . S
C267 H251 0.930 . S
C267 C266 1.377 . S
C267 C268 1.379 . S
C268 H252 0.931 . S
C268 C262 1.383 . S
C268 C267 1.379 . S
H269 C263 0.959 . S
H270 C263 0.961 . S
H271 C263 0.960 . S
H272 C264 0.930 . S
H273 C265 0.929 . S
H274 C282 0.929 . S
H275 C284 0.930 . S
H276 C286 0.930 . S
H277 C289 0.929 . S
H278 C292 0.930 . S
H279 C294 0.960 . S
H280 C294 0.960 . S
H281 C294 0.960 . S
C282 H274 0.929 . S
C282 C283 1.377 . S
C282 C284 1.384 . S
C283 C282 1.377 . S
C283 C289 1.390 . S
C284 H275 0.930 . S
C284 C282 1.384 . S
C284 C285 1.372 . S
C285 C284 1.372 . S
C285 C286 1.400 . S
C285 C290 1.490 . S
C286 H276 0.930 . S
C286 C285 1.400 . S
C286 C289 1.386 . S
H287 C303 0.930 . S
H288 C304 0.931 . S
C289 H277 0.929 . S
C289 C283 1.390 . S
C289 C286 1.386 . S
C290 C285 1.490 . S
C290 C292 1.395 . S
C290 C293 1.403 . S
H291 C297 0.930 . S
C292 H278 0.930 . S
C292 C290 1.395 . S
C292 C295 1.403 . S
C293 C290 1.403 . S
C293 C294 1.524 . S
C293 C297 1.400 . S
C294 H279 0.960 . S
C294 H280 0.960 . S
C294 H281 0.960 . S
C294 C293 1.524 . S
C295 C292 1.403 . S
C295 C296 1.392 . S
C295 C299 1.495 . S
C296 C295 1.392 . S
C296 C297 1.385 . S
C296 C298 1.478 . S
C297 H291 0.930 . S
C297 C293 1.400 . S
C297 C296 1.385 . S
C298 C296 1.478 . S
C298 C300 1.381 . S
C298 C304 1.383 . S
C299 C295 1.495 . S
C299 H305 0.959 . S
C299 H306 0.961 . S
C299 H307 0.960 . S
C300 C298 1.381 . S
C300 C301 1.394 . S
C300 H308 0.930 . S
C301 C300 1.394 . S
C301 C302 1.383 . S
C301 H309 0.929 . S
C302 C301 1.383 . S
C302 C303 1.377 . S
C303 H287 0.930 . S
C303 C302 1.377 . S
C303 C304 1.379 . S
C304 H288 0.931 . S
C304 C298 1.383 . S
C304 C303 1.379 . S
H305 C299 0.959 . S
H306 C299 0.961 . S
H307 C299 0.960 . S
H308 C300 0.930 . S
H309 C301 0.929 . S
H310 C318 0.929 . S
H311 C320 0.930 . S
H312 C322 0.930 . S
H313 C325 0.929 . S
H314 C328 0.930 . S
H315 C330 0.960 . S
H316 C330 0.960 . S
H317 C330 0.960 . S
C318 H310 0.929 . S
C318 C319 1.377 1_554 S
C318 C320 1.384 . S
C319 C318 1.377 1_556 S
C319 C325 1.390 . S
C320 H311 0.930 . S
C320 C318 1.384 . S
C320 C321 1.372 . S
C321 C320 1.372 . S
C321 C322 1.400 1_554 S
C321 C326 1.490 . S
C322 H312 0.930 . S
C322 C321 1.400 1_556 S
C322 C325 1.386 . S
H323 C339 0.928 1_556 S
H324 C340 0.931 . S
C325 H313 0.929 . S
C325 C319 1.390 . S
C325 C322 1.386 . S
C326 C321 1.490 . S
C326 C328 1.395 1_554 S
C326 C329 1.403 . S
H327 C333 0.930 . S
C328 H314 0.930 . S
C328 C326 1.395 1_556 S
C328 C331 1.403 . S
C329 C326 1.403 . S
C329 C330 1.524 . S
C329 C333 1.400 . S
C330 H315 0.960 . S
C330 H316 0.960 . S
C330 H317 0.960 . S
C330 C329 1.524 . S
C331 C328 1.403 . S
C331 C332 1.392 1_556 S
C331 C335 1.495 . S
C332 C331 1.392 1_554 S
C332 C333 1.385 . S
C332 C334 1.478 . S
C333 H327 0.930 . S
C333 C329 1.400 . S
C333 C332 1.385 . S
C334 C332 1.478 . S
C334 C336 1.381 . S
C334 C340 1.383 1_554 S
C335 C331 1.495 . S
C335 H341 0.959 . S
C335 H342 0.961 . S
C335 H343 0.960 1_556 S
C336 C334 1.381 . S
C336 C337 1.394 . S
C336 H344 0.930 . S
C337 C336 1.394 . S
C337 C338 1.383 . S
C337 H345 0.929 . S
C338 C337 1.383 . S
C338 C339 1.379 . S
C339 H323 0.928 1_554 S
C339 C338 1.379 . S
C339 C340 1.379 1_554 S
C340 H324 0.931 . S
C340 C334 1.383 1_556 S
C340 C339 1.379 1_556 S
H341 C335 0.959 . S
H342 C335 0.961 . S
H343 C335 0.960 1_554 S
H344 C336 0.930 . S
H345 C337 0.929 . S
H346 C354 0.929 . S
H347 C356 0.930 . S
H348 C358 0.930 . S
H349 C361 0.929 . S
H350 C364 0.930 . S
H351 C366 0.960 . S
H352 C366 0.960 . S
H353 C366 0.960 . S
C354 H346 0.929 . S
C354 C355 1.377 . S
C354 C356 1.384 . S
C355 C354 1.377 . S
C355 C361 1.390 . S
C356 H347 0.930 . S
C356 C354 1.384 . S
C356 C357 1.372 . S
C357 C356 1.372 . S
C357 C358 1.400 . S
C357 C362 1.490 . S
C358 H348 0.930 . S
C358 C357 1.400 . S
C358 C361 1.386 . S
H359 C375 0.930 . S
H360 C376 0.931 1_545 S
C361 H349 0.929 . S
C361 C355 1.390 . S
C361 C358 1.386 . S
C362 C357 1.490 . S
C362 C364 1.395 . S
C362 C365 1.403 . S
H363 C369 0.930 . S
C364 H350 0.930 . S
C364 C362 1.395 . S
C364 C367 1.403 . S
C365 C362 1.403 . S
C365 C366 1.524 . S
C365 C369 1.400 . S
C366 H351 0.960 . S
C366 H352 0.960 . S
C366 H353 0.960 . S
C366 C365 1.524 . S
C367 C364 1.403 . S
C367 C368 1.392 . S
C367 C371 1.495 . S
C368 C367 1.392 . S
C368 C369 1.385 . S
C368 C370 1.478 . S
C369 H363 0.930 . S
C369 C365 1.400 . S
C369 C368 1.385 . S
C370 C368 1.478 . S
C370 C372 1.381 . S
C370 C376 1.383 . S
C371 C367 1.495 . S
C371 H377 0.959 . S
C371 H378 0.961 . S
C371 H379 0.960 . S
C372 C370 1.381 . S
C372 C373 1.394 . S
C372 H380 0.930 . S
C373 C372 1.394 . S
C373 C374 1.383 . S
C373 H381 0.929 . S
C374 C373 1.383 . S
C374 C375 1.377 1_565 S
C375 H359 0.930 . S
C375 C374 1.377 1_545 S
C375 C376 1.379 1_545 S
C376 H360 0.931 1_565 S
C376 C370 1.383 . S
C376 C375 1.379 1_565 S
H377 C371 0.959 . S
H378 C371 0.961 . S
H379 C371 0.960 . S
H380 C372 0.930 . S
H381 C373 0.929 . S
H382 C390 0.929 . S
H383 C392 0.930 . S
H384 C394 0.930 . S
H385 C397 0.929 . S
H386 C400 0.930 . S
H387 C402 0.960 . S
H388 C402 0.960 . S
H389 C402 0.960 . S
C390 H382 0.929 . S
C390 C391 1.377 . S
C390 C392 1.384 . S
C391 C390 1.377 . S
C391 C397 1.390 . S
C392 H383 0.930 . S
C392 C390 1.384 . S
C392 C393 1.372 . S
C393 C392 1.372 . S
C393 C394 1.400 . S
C393 C398 1.490 . S
C394 H384 0.930 . S
C394 C393 1.400 . S
C394 C397 1.386 . S
H395 C411 0.930 . S
H396 C412 0.931 . S
C397 H385 0.929 . S
C397 C391 1.390 . S
C397 C394 1.386 . S
C398 C393 1.490 . S
C398 C400 1.395 . S
C398 C401 1.403 . S
H399 C405 0.930 . S
C400 H386 0.930 . S
C400 C398 1.395 . S
C400 C403 1.403 . S
C401 C398 1.403 . S
C401 C402 1.524 . S
C401 C405 1.400 . S
C402 H387 0.960 . S
C402 H388 0.960 . S
C402 H389 0.960 . S
C402 C401 1.524 . S
C403 C400 1.403 . S
C403 C404 1.392 . S
C403 C407 1.495 . S
C404 C403 1.392 . S
C404 C405 1.385 . S
C404 C406 1.478 . S
C405 H399 0.930 . S
C405 C401 1.400 . S
C405 C404 1.385 . S
C406 C404 1.478 . S
C406 C408 1.381 . S
C406 C412 1.383 . S
C407 C403 1.495 . S
C407 H413 0.959 . S
C407 H414 0.961 . S
C407 H415 0.960 . S
C408 C406 1.381 . S
C408 C409 1.394 . S
C408 H416 0.930 . S
C409 C408 1.394 . S
C409 C410 1.383 . S
C409 H417 0.929 . S
C410 C409 1.383 . S
C410 C411 1.377 . S
C411 H395 0.930 . S
C411 C410 1.377 . S
C411 C412 1.379 . S
C412 H396 0.931 . S
C412 C406 1.383 . S
C412 C411 1.379 . S
H413 C407 0.959 . S
H414 C407 0.961 . S
H415 C407 0.960 . S
H416 C408 0.930 . S
H417 C409 0.929 . S
H418 C426 0.929 . S
H419 C428 0.930 . S
H420 C430 0.930 . S
H421 C433 0.929 . S
H422 C436 0.930 . S
H423 C438 0.960 . S
H424 C438 0.960 . S
H425 C438 0.960 . S
C426 H418 0.929 . S
C426 C427 1.377 . S
C426 C428 1.384 . S
C427 C426 1.377 . S
C427 C433 1.390 . S
C428 H419 0.930 . S
C428 C426 1.384 . S
C428 C429 1.372 . S
C429 C428 1.372 . S
C429 C430 1.400 . S
C429 C434 1.490 . S
C430 H420 0.930 . S
C430 C429 1.400 . S
C430 C433 1.386 . S
H431 C447 0.930 . S
H432 C448 0.931 . S
C433 H421 0.929 . S
C433 C427 1.390 . S
C433 C430 1.386 . S
C434 C429 1.490 . S
C434 C436 1.395 . S
C434 C437 1.403 . S
H435 C441 0.930 . S
C436 H422 0.930 . S
C436 C434 1.395 . S
C436 C439 1.403 . S
C437 C434 1.403 . S
C437 C438 1.524 . S
C437 C441 1.400 . S
C438 H423 0.960 . S
C438 H424 0.960 . S
C438 H425 0.960 . S
C438 C437 1.524 . S
C439 C436 1.403 . S
C439 C440 1.392 . S
C439 C443 1.495 . S
C440 C439 1.392 . S
C440 C441 1.385 . S
C440 C442 1.478 . S
C441 H435 0.930 . S
C441 C437 1.400 . S
C441 C440 1.385 . S
C442 C440 1.478 . S
C442 C444 1.381 . S
C442 C448 1.383 . S
C443 C439 1.495 . S
C443 H449 0.959 . S
C443 H450 0.961 . S
C443 H451 0.960 . S
C444 C442 1.381 . S
C444 C445 1.394 . S
C444 H452 0.930 . S
C445 C444 1.394 . S
C445 C446 1.383 . S
C445 H453 0.929 . S
C446 C445 1.383 . S
C446 C447 1.377 . S
C447 H431 0.930 . S
C447 C446 1.377 . S
C447 C448 1.379 . S
C448 H432 0.931 . S
C448 C442 1.383 . S
C448 C447 1.379 . S
H449 C443 0.959 . S
H450 C443 0.961 . S
H451 C443 0.960 . S
H452 C444 0.930 . S
H453 C445 0.929 . S
H454 C462 0.929 . S
H455 C464 0.930 . S
H456 C466 0.930 . S
H457 C469 0.929 . S
H458 C472 0.930 . S
H459 C474 0.960 . S
H460 C474 0.960 . S
H461 C474 0.960 . S
C462 H454 0.929 . S
C462 C463 1.377 . S
C462 C464 1.384 . S
C463 C462 1.377 . S
C463 C469 1.390 . S
C464 H455 0.930 . S
C464 C462 1.384 . S
C464 C465 1.372 . S
C465 C464 1.372 . S
C465 C466 1.400 . S
C465 C470 1.490 . S
C466 H456 0.930 . S
C466 C465 1.400 . S
C466 C469 1.386 . S
H467 C483 0.930 . S
H468 C484 0.931 . S
C469 H457 0.929 . S
C469 C463 1.390 . S
C469 C466 1.386 . S
C470 C465 1.490 . S
C470 C472 1.395 . S
C470 C473 1.403 . S
H471 C477 0.930 . S
C472 H458 0.930 . S
C472 C470 1.395 . S
C472 C475 1.403 . S
C473 C470 1.403 . S
C473 C474 1.524 . S
C473 C477 1.400 . S
C474 H459 0.960 . S
C474 H460 0.960 . S
C474 H461 0.960 . S
C474 C473 1.524 . S
C475 C472 1.403 . S
C475 C476 1.392 . S
C475 C479 1.495 . S
C476 C475 1.392 . S
C476 C477 1.385 . S
C476 C478 1.478 . S
C477 H471 0.930 . S
C477 C473 1.400 . S
C477 C476 1.385 . S
C478 C476 1.478 . S
C478 C480 1.381 . S
C478 C484 1.383 . S
C479 C475 1.495 . S
C479 H485 0.959 . S
C479 H486 0.961 . S
C479 H487 0.960 . S
C480 C478 1.381 . S
C480 C481 1.394 . S
C480 H488 0.930 . S
C481 C480 1.394 . S
C481 C482 1.383 . S
C481 H489 0.929 . S
C482 C481 1.383 . S
C482 C483 1.377 . S
C483 H467 0.930 . S
C483 C482 1.377 . S
C483 C484 1.379 . S
C484 H468 0.931 . S
C484 C478 1.383 . S
C484 C483 1.379 . S
H485 C479 0.959 . S
H486 C479 0.961 . S
H487 C479 0.960 . S
H488 C480 0.930 . S
H489 C481 0.929 . S
H490 C498 0.929 . S
H491 C500 0.930 . S
H492 C502 0.930 . S
H493 C505 0.929 . S
H494 C508 0.930 . S
H495 C510 0.960 . S
H496 C510 0.960 . S
H497 C510 0.960 . S
C498 H490 0.929 . S
C498 C499 1.377 . S
C498 C500 1.384 . S
C499 C498 1.377 . S
C499 C505 1.390 . S
C500 H491 0.930 . S
C500 C498 1.384 . S
C500 C501 1.372 . S
C501 C500 1.372 . S
C501 C502 1.400 . S
C501 C506 1.490 . S
C502 H492 0.930 . S
C502 C501 1.400 . S
C502 C505 1.386 . S
H503 C519 0.930 . S
H504 C520 0.931 . S
C505 H493 0.929 . S
C505 C499 1.390 . S
C505 C502 1.386 . S
C506 C501 1.490 . S
C506 C508 1.395 . S
C506 C509 1.403 . S
H507 C513 0.930 . S
C508 H494 0.930 . S
C508 C506 1.395 . S
C508 C511 1.403 . S
C509 C506 1.403 . S
C509 C510 1.524 . S
C509 C513 1.400 . S
C510 H495 0.960 . S
C510 H496 0.960 . S
C510 H497 0.960 . S
C510 C509 1.524 . S
C511 C508 1.403 . S
C511 C512 1.392 . S
C511 C515 1.495 . S
C512 C511 1.392 . S
C512 C513 1.385 . S
C512 C514 1.478 . S
C513 H507 0.930 . S
C513 C509 1.400 . S
C513 C512 1.385 . S
C514 C512 1.478 . S
C514 C516 1.381 . S
C514 C520 1.383 . S
C515 C511 1.495 . S
C515 H521 0.959 . S
C515 H522 0.961 . S
C515 H523 0.960 . S
C516 C514 1.381 . S
C516 C517 1.394 . S
C516 H524 0.930 . S
C517 C516 1.394 . S
C517 C518 1.383 . S
C517 H525 0.929 . S
C518 C517 1.383 . S
C518 C519 1.377 . S
C519 H503 0.930 . S
C519 C518 1.377 . S
C519 C520 1.379 . S
C520 H504 0.931 . S
C520 C514 1.383 . S
C520 C519 1.379 . S
H521 C515 0.959 . S
H522 C515 0.961 . S
H523 C515 0.960 . S
H524 C516 0.930 . S
H525 C517 0.929 . S
H526 C534 0.929 . S
H527 C536 0.930 . S
H528 C538 0.930 . S
H529 C541 0.929 . S
H530 C544 0.930 . S
H531 C546 0.960 . S
H532 C546 0.960 . S
H533 C546 0.960 . S
C534 H526 0.929 . S
C534 C535 1.377 . S
C534 C536 1.384 . S
C535 C534 1.377 . S
C535 C541 1.390 . S
C536 H527 0.930 . S
C536 C534 1.384 . S
C536 C537 1.372 . S
C537 C536 1.372 . S
C537 C538 1.400 . S
C537 C542 1.490 . S
C538 H528 0.930 . S
C538 C537 1.400 . S
C538 C541 1.386 . S
H539 C555 0.930 . S
H540 C556 0.931 . S
C541 H529 0.929 . S
C541 C535 1.390 . S
C541 C538 1.386 . S
C542 C537 1.490 . S
C542 C544 1.395 . S
C542 C545 1.403 . S
H543 C549 0.930 . S
C544 H530 0.930 . S
C544 C542 1.395 . S
C544 C547 1.403 . S
C545 C542 1.403 . S
C545 C546 1.524 . S
C545 C549 1.400 . S
C546 H531 0.960 . S
C546 H532 0.960 . S
C546 H533 0.960 . S
C546 C545 1.524 . S
C547 C544 1.403 . S
C547 C548 1.392 . S
C547 C551 1.495 . S
C548 C547 1.392 . S
C548 C549 1.385 . S
C548 C550 1.478 . S
C549 H543 0.930 . S
C549 C545 1.400 . S
C549 C548 1.385 . S
C550 C548 1.478 . S
C550 C552 1.381 . S
C550 C556 1.383 . S
C551 C547 1.495 . S
C551 H557 0.959 . S
C551 H558 0.961 . S
C551 H559 0.960 . S
C552 C550 1.381 . S
C552 C553 1.394 . S
C552 H560 0.930 . S
C553 C552 1.394 . S
C553 C554 1.383 . S
C553 H561 0.929 . S
C554 C553 1.383 . S
C554 C555 1.377 . S
C555 H539 0.930 . S
C555 C554 1.377 . S
C555 C556 1.379 . S
C556 H540 0.931 . S
C556 C550 1.383 . S
C556 C555 1.379 . S
H557 C551 0.959 . S
H558 C551 0.961 . S
H559 C551 0.960 . S
H560 C552 0.930 . S
H561 C553 0.929 . S
H562 C570 0.929 . S
H563 C572 0.930 . S
H564 C574 0.930 . S
H565 C577 0.929 . S
H566 C580 0.930 . S
H567 C582 0.960 . S
H568 C582 0.960 . S
H569 C582 0.960 . S
C570 H562 0.929 . S
C570 C571 1.377 . S
C570 C572 1.384 . S
C571 C570 1.377 . S
C571 C577 1.390 . S
C572 H563 0.930 . S
C572 C570 1.384 . S
C572 C573 1.372 . S
C573 C572 1.372 . S
C573 C574 1.400 . S
C573 C578 1.490 . S
C574 H564 0.930 . S
C574 C573 1.400 . S
C574 C577 1.386 . S
H575 C591 0.930 . S
H576 C592 0.931 . S
C577 H565 0.929 . S
C577 C571 1.390 . S
C577 C574 1.386 . S
C578 C573 1.490 . S
C578 C580 1.395 . S
C578 C581 1.403 . S
H579 C585 0.930 . S
C580 H566 0.930 . S
C580 C578 1.395 . S
C580 C583 1.403 . S
C581 C578 1.403 . S
C581 C582 1.524 . S
C581 C585 1.400 . S
C582 H567 0.960 . S
C582 H568 0.960 . S
C582 H569 0.960 . S
C582 C581 1.524 . S
C583 C580 1.403 . S
C583 C584 1.392 . S
C583 C587 1.495 . S
C584 C583 1.392 . S
C584 C585 1.385 . S
C584 C586 1.478 . S
C585 H579 0.930 . S
C585 C581 1.400 . S
C585 C584 1.385 . S
C586 C584 1.478 . S
C586 C588 1.381 . S
C586 C592 1.383 . S
C587 C583 1.495 . S
C587 H593 0.959 . S
C587 H594 0.961 . S
C587 H595 0.960 . S
C588 C586 1.381 . S
C588 C589 1.394 . S
C588 H596 0.930 . S
C589 C588 1.394 . S
C589 C590 1.383 . S
C589 H597 0.929 . S
C590 C589 1.383 . S
C590 C591 1.377 . S
C591 H575 0.930 . S
C591 C590 1.377 . S
C591 C592 1.379 . S
C592 H576 0.931 . S
C592 C586 1.383 . S
C592 C591 1.379 . S
H593 C587 0.959 . S
H594 C587 0.961 . S
H595 C587 0.960 . S
H596 C588 0.930 . S
H597 C589 0.929 . S
H598 C606 0.929 . S
H599 C608 0.930 . S
H600 C610 0.930 . S
H601 C613 0.929 . S
H602 C616 0.930 . S
H603 C618 0.960 . S
H604 C618 0.960 . S
H605 C618 0.960 . S
C606 H598 0.929 . S
C606 C607 1.377 . S
C606 C608 1.384 . S
C607 C606 1.377 . S
C607 C613 1.390 . S
C608 H599 0.930 . S
C608 C606 1.384 . S
C608 C609 1.372 . S
C609 C608 1.372 . S
C609 C610 1.400 . S
C609 C614 1.490 . S
C610 H600 0.930 . S
C610 C609 1.400 . S
C610 C613 1.386 . S
H611 C627 0.930 . S
H612 C628 0.931 . S
C613 H601 0.929 . S
C613 C607 1.390 . S
C613 C610 1.386 . S
C614 C609 1.490 . S
C614 C616 1.395 . S
C614 C617 1.403 . S
H615 C621 0.930 . S
C616 H602 0.930 . S
C616 C614 1.395 . S
C616 C619 1.403 . S
C617 C614 1.403 . S
C617 C618 1.524 . S
C617 C621 1.400 . S
C618 H603 0.960 . S
C618 H604 0.960 . S
C618 H605 0.960 . S
C618 C617 1.524 . S
C619 C616 1.403 . S
C619 C620 1.392 . S
C619 C623 1.495 1_565 S
C620 C619 1.392 . S
C620 C621 1.385 . S
C620 C622 1.478 . S
C621 H615 0.930 . S
C621 C617 1.400 . S
C621 C620 1.385 . S
C622 C620 1.478 . S
C622 C624 1.381 . S
C622 C628 1.383 . S
C623 C619 1.495 1_545 S
C623 H629 0.959 . S
C623 H630 0.961 . S
C623 H631 0.960 . S
C624 C622 1.381 . S
C624 C625 1.394 . S
C624 H632 0.930 . S
C625 C624 1.394 . S
C625 C626 1.383 . S
C625 H633 0.929 . S
C626 C625 1.383 . S
C626 C627 1.377 . S
C627 H611 0.930 . S
C627 C626 1.377 . S
C627 C628 1.379 . S
C628 H612 0.931 . S
C628 C622 1.383 . S
C628 C627 1.379 . S
H629 C623 0.959 . S
H630 C623 0.961 . S
H631 C623 0.960 . S
H632 C624 0.930 . S
H633 C625 0.929 . S
C230 C175 1.303 . S
C211 C135 1.515 . S
C247 C15 1.515 . S
C266 C199 1.290 . S
C283 C55 1.688 . S
C302 C178 1.465 . S
C319 C95 1.700 . S
C338 C196 1.521 . S
C374 C176 1.618 . S
C355 C2 1.635 . S
C410 C198 1.589 . S
C391 C42 1.574 . S
C427 C82 1.582 . S
C446 C177 1.529 . S
C463 C141 1.621 . S
C482 C197 1.510 . S
C518 C195 1.546 . S
C499 C61 1.558 . S
C554 C174 1.594 . S
C535 C101 1.648 . S
C590 C194 1.614 . S
C571 C122 1.667 . S
C607 C21 1.650 . S
C626 C173 1.537 1_565 S
