# Generated by pormake.
# Topology pth, (4,4)-cn, num edge types: 1
# Building blocks:
#     Node 0, Type 0, BuildingBlock: GALJAG_clean_sbu_0, # of connection points: 4
#     Node 1, Type 0, BuildingBlock: GALJAG_clean_sbu_0, # of connection points: 4
#     Node 2, Type 0, BuildingBlock: GALJAG_clean_sbu_0, # of connection points: 4
#     Node 3, Type 1, BuildingBlock: MUDLON_clean_sbu_0, # of connection points: 4
#     Node 4, Type 1, BuildingBlock: MUDLON_clean_sbu_0, # of connection points: 4
#     Node 5, Type 1, BuildingBlock: MUDLON_clean_sbu_0, # of connection points: 4
#     Edge 6, Type (0, 1), BuildingBlock: ZUJKAS_clean_linker_0, # of connection points: 2
#     Edge 7, Type (0, 1), BuildingBlock: ZUJKAS_clean_linker_0, # of connection points: 2
#     Edge 8, Type (0, 1), BuildingBlock: ZUJKAS_clean_linker_0, # of connection points: 2
#     Edge 9, Type (0, 1), BuildingBlock: ZUJKAS_clean_linker_0, # of connection points: 2
#     Edge 10, Type (0, 1), BuildingBlock: ZUJKAS_clean_linker_0, # of connection points: 2
#     Edge 11, Type (0, 1), BuildingBlock: ZUJKAS_clean_linker_0, # of connection points: 2
#     Edge 12, Type (0, 1), BuildingBlock: ZUJKAS_clean_linker_0, # of connection points: 2
#     Edge 13, Type (0, 1), BuildingBlock: ZUJKAS_clean_linker_0, # of connection points: 2
#     Edge 14, Type (0, 1), BuildingBlock: ZUJKAS_clean_linker_0, # of connection points: 2
#     Edge 15, Type (0, 1), BuildingBlock: ZUJKAS_clean_linker_0, # of connection points: 2
#     Edge 16, Type (0, 1), BuildingBlock: ZUJKAS_clean_linker_0, # of connection points: 2
#     Edge 17, Type (0, 1), BuildingBlock: ZUJKAS_clean_linker_0, # of connection points: 2
# Relax obj value: 0.043
# Max RMSD: 0.088
# Mean RMSD: 0.080
data_MOF--net-pth--node1-GALJAG_clean_sbu_0--node2-MUDLON_clean_sbu_0--edge1-ZUJKAS_clean_linker_0
_symmetry_space_group_name_H-M    P1
_symmetry_Int_Tables_number       1
_symmetry_cell_setting            triclinic
loop_
_symmetry_equiv_pos_as_xyz
'x, y, z'
_cell_length_a     29.869858
_cell_length_b     29.889846
_cell_length_c     75.690803
_cell_angle_alpha  90.091368
_cell_angle_beta   90.179024
_cell_angle_gamma 119.93546
loop_
_atom_site_label
_atom_site_type_symbol
_atom_site_fract_x
_atom_site_fract_y
_atom_site_fract_z
_atom_type_partial_charge
In0 In 0.01079 0.01288 0.09696 0.0
O1 O 0.97359 0.05717 0.10898 0.0
O2 O 0.04779 0.07314 0.11823 0.0
C3 C 0.95027 0.94449 0.07229 0.0
C4 C 0.08244 0.08233 0.07518 0.0
C5 C 1.00144 0.94288 0.12106 0.0
O6 O 0.93499 0.97031 0.08121 0.0
O7 O 0.99543 0.95372 0.07587 0.0
O8 O 0.04245 0.96823 0.11215 0.0
O9 O 0.96619 0.95333 0.11776 0.0
C10 C 0.0116 0.0833 0.11926 0.0
O11 O 0.09295 0.05622 0.0859 0.0
O12 O 0.03616 0.07264 0.07545 0.0
In13 In 0.01791 0.02044 0.42692 0.0
O14 O 0.05274 0.09977 0.41356 0.0
O15 O 0.97582 0.04152 0.4069 0.0
C16 C 0.08607 0.01418 0.44856 0.0
C17 C 0.95182 0.02002 0.45107 0.0
C18 C 0.02085 0.957 0.40239 0.0
O19 O 0.09621 0.05654 0.44138 0.0
O20 O 0.04191 0.9765 0.44506 0.0
O21 O 0.98237 0.94261 0.41255 0.0
O22 O 0.05654 1.0032 0.40448 0.0
C23 C 0.01218 0.08716 0.40457 0.0
O24 O 0.9393 0.98201 0.44078 0.0
O25 O 0.99744 0.05697 0.44928 0.0
In26 In 1.00655 0.01345 0.76514 0.0
O27 O 0.96468 0.93494 0.77894 0.0
O28 O 0.94955 0.99445 0.78728 0.0
C29 C 0.07385 0.01515 0.74121 0.0
C30 C 0.93302 0.00821 0.74324 0.0
C31 C 0.07787 0.08037 0.78791 0.0
O32 O 0.04815 0.97641 0.75109 0.0
O33 O 0.06446 0.05158 0.74326 0.0
O34 O 0.04992 0.09263 0.77879 0.0
O35 O 0.06898 0.0348 0.78558 0.0
C36 C 0.9397 0.94838 0.7891 0.0
O37 O 0.96466 0.05007 0.75091 0.0
O38 O 0.93952 0.97039 0.74642 0.0
Mg39 Mg 1.00691 0.51752 0.26199 0.0
C40 C 0.95089 0.40927 0.27783 0.0
O41 O 0.94628 0.39513 0.26117 0.0
C42 C 0.95099 0.57315 0.25096 0.0
O43 O 0.96463 0.59176 0.26704 0.0
C44 C 0.05972 0.46122 0.24662 0.0
O45 O 0.06284 0.45102 0.26331 0.0
O46 O 0.04324 0.49187 0.24277 0.0
O47 O 0.96945 0.45679 0.28153 0.0
O48 O 0.05654 0.58885 0.27621 0.0
C49 C 0.05963 0.58792 0.29295 0.0
O50 O 0.04134 0.54312 0.30087 0.0
O51 O 0.958 0.53633 0.24612 0.0
Mg52 Mg 0.49788 0.98961 0.59606 0.0
C53 C 0.44118 0.95428 0.56071 0.0
O54 O 0.48836 0.97874 0.55445 0.0
C55 C 0.51861 0.95332 0.63127 0.0
O56 O 0.49531 0.97714 0.63769 0.0
C57 C 0.422 1.0005 0.61577 0.0
O58 O 0.40008 0.95278 0.60989 0.0
O59 O 0.46926 0.03108 0.61198 0.0
O60 O 0.43455 0.94763 0.57731 0.0
O61 O 0.56814 0.02991 0.58029 0.0
C62 C 0.58279 0.9979 0.57607 0.0
O63 O 0.55512 0.95 0.58151 0.0
O64 O 0.51873 0.94708 0.61464 0.0
Mg65 Mg 0.5223 0.51166 0.93081 0.0
C66 C 0.45896 0.40412 0.91565 0.0
O67 O 0.44219 0.39471 0.93199 0.0
C68 C 0.63553 0.57388 0.94071 0.0
O69 O 0.63829 0.59324 0.92492 0.0
C70 C 0.46984 0.46996 0.96493 0.0
O71 O 0.5152 0.47383 0.96729 0.0
O72 O 0.46123 0.4865 0.95055 0.0
O73 O 0.49661 0.44846 0.91189 0.0
O74 O 0.54041 0.58063 0.91573 0.0
C75 C 0.53657 0.57771 0.89897 0.0
O76 O 0.51177 0.53191 0.89151 0.0
O77 O 0.59338 0.53478 0.94548 0.0
H78 H 0.94013 0.1143 0.12491 0.0
H79 H 0.94849 0.18269 0.1451 0.0
H80 H 0.09886 0.21078 0.16137 0.0
H81 H 0.09108 0.14337 0.14134 0.0
H82 H 0.96487 0.1904 0.18226 0.0
H83 H 0.12554 0.35492 0.14746 0.0
H84 H 0.0864 0.29252 0.13719 0.0
H85 H 0.13796 0.30318 0.15204 0.0
C86 C 0.97496 0.13521 0.13277 0.0
C87 C 0.01502 0.12362 0.13147 0.0
C88 C 0.9797 0.1742 0.14428 0.0
C89 C 0.02471 0.20239 0.15448 0.0
C90 C 0.06431 0.19031 0.15334 0.0
H91 H 0.0754 0.37894 0.25039 0.0
H92 H 0.06769 0.31758 0.22751 0.0
C93 C 0.05959 0.15148 0.14194 0.0
C94 C 0.03025 0.24352 0.16679 0.0
H95 H 0.10877 0.371 0.17696 0.0
C96 C 0.99602 0.22999 0.18103 0.0
C97 C 0.07063 0.29525 0.16505 0.0
C98 C 0.10696 0.31257 0.14952 0.0
C99 C 1.00214 0.2665 0.19393 0.0
C100 C 0.04407 0.31764 0.19265 0.0
C101 C 0.0772 0.33158 0.17807 0.0
C102 C 0.0536 0.3573 0.20623 0.0
C103 C 0.9635 0.25008 0.20876 0.0
C104 C 0.05088 0.40136 0.20169 0.0
C105 C 0.05571 0.43677 0.2147 0.0
C106 C 0.06361 0.42889 0.23251 0.0
C107 C 0.06921 0.38617 0.23683 0.0
C108 C 0.0643 0.35075 0.2238 0.0
H109 H 0.92701 0.21412 0.20542 0.0
H110 H 0.98014 0.24258 0.22075 0.0
H111 H 0.95429 0.28086 0.21195 0.0
H112 H 0.04316 0.40739 0.18816 0.0
H113 H 0.05136 0.46931 0.21088 0.0
H114 H 0.97109 0.09966 0.47314 0.0
H115 H 0.91238 0.10518 0.49425 0.0
H116 H 0.79289 0.95208 0.47943 0.0
H117 H 0.85144 0.9465 0.45798 0.0
H118 H 0.75867 0.02479 0.48194 0.0
H119 H 0.86979 0.02901 0.54154 0.0
H120 H 0.90657 0.07727 0.52532 0.0
H121 H 0.88079 0.01016 0.52005 0.0
C122 C 0.93237 0.06702 0.47439 0.0
C123 C 0.91598 0.02243 0.46399 0.0
C124 C 0.89892 0.07024 0.48651 0.0
C125 C 0.84854 0.02881 0.48858 0.0
C126 C 0.83174 0.98444 0.47806 0.0
H127 H 0.63151 0.94312 0.57137 0.0
H128 H 0.69833 0.95793 0.55014 0.0
C129 C 0.86523 0.98121 0.46588 0.0
C130 C 0.8135 0.03172 0.5018 0.0
H131 H 0.79827 0.0409 0.54611 0.0
C132 C 0.76734 0.02855 0.49597 0.0
C133 C 0.82496 0.03648 0.52009 0.0
C134 C 0.87297 0.03799 0.5272 0.0
C135 C 0.73192 0.02931 0.50798 0.0
C136 C 0.74339 0.03404 0.52627 0.0
C137 C 0.78994 0.03802 0.53205 0.0
C138 C 0.70494 0.02831 0.53974 0.0
C139 C 0.68161 0.02297 0.50109 0.0
C140 C 0.68715 0.06375 0.54126 0.0
C141 C 0.64856 0.05538 0.55353 0.0
C142 C 0.6273 0.01138 0.56435 0.0
C143 C 0.64667 0.97719 0.56314 0.0
C144 C 0.68504 0.98562 0.55102 0.0
H145 H 0.67512 0.0114 0.48694 0.0
H146 H 0.64862 0.99352 0.50888 0.0
H147 H 0.68202 0.06014 0.50245 0.0
H148 H 0.70263 0.09742 0.53283 0.0
H149 H 0.63439 0.08237 0.55417 0.0
H150 H 0.88242 0.97048 0.81157 0.0
H151 H 0.81323 0.91145 0.83112 0.0
H152 H 0.83623 0.78654 0.81423 0.0
H153 H 0.90615 0.84572 0.79465 0.0
H154 H 0.72182 0.8226 0.82135 0.0
H155 H 0.83682 0.77786 0.86849 0.0
H156 H 0.86608 0.83192 0.85352 0.0
H157 H 0.84559 0.76778 0.84565 0.0
C158 C 0.87315 0.93055 0.81211 0.0
C159 C 0.89987 0.91276 0.8016 0.0
C160 C 0.83348 0.89686 0.82327 0.0
C161 C 0.81987 0.84475 0.82425 0.0
C162 C 0.8467 0.82683 0.81389 0.0
H163 H 0.54009 0.5842 0.86296 0.0
H164 H 0.60677 0.6528 0.84506 0.0
C165 C 0.8865 0.8606 0.80267 0.0
C166 C 0.77634 0.80903 0.83566 0.0
H167 H 0.74555 0.72806 0.87095 0.0
C168 C 0.727 0.80205 0.83224 0.0
C169 C 0.78335 0.78285 0.85 0.0
C170 C 0.83586 0.7907 0.85479 0.0
C171 C 0.68423 0.76872 0.84257 0.0
C172 C 0.69092 0.74126 0.85655 0.0
C173 C 0.74046 0.74905 0.86019 0.0
C174 C 0.64692 0.70288 0.86722 0.0
C175 C 0.63235 0.76353 0.83851 0.0
C176 C 0.64688 0.70849 0.88564 0.0
C177 C 0.60872 0.66926 0.89595 0.0
C178 C 0.57023 0.62339 0.88803 0.0
C179 C 0.56903 0.61903 0.8695 0.0
C180 C 0.60709 0.65832 0.85921 0.0
H181 H 0.63637 0.7971 0.83091 0.0
H182 H 0.60924 0.72828 0.83042 0.0
H183 H 0.61069 0.75983 0.85083 0.0
H184 H 0.67734 0.74256 0.89208 0.0
H185 H 0.611 0.67385 0.91018 0.0
H186 H 0.91862 0.88925 0.14245 0.0
H187 H 0.90546 0.82403 0.16435 0.0
H188 H 0.05354 0.84079 0.15132 0.0
H189 H 0.06749 0.90715 0.1295 0.0
H190 H 0.90047 0.73068 0.16013 0.0
H191 H 0.06245 0.85792 0.20485 0.0
H192 H 0.03985 0.88294 0.18742 0.0
H193 H 0.08147 0.85726 0.18241 0.0
C194 C 0.94856 0.87928 0.14428 0.0
C195 C 0.99427 0.90356 0.13432 0.0
C196 C 0.94088 0.84187 0.15678 0.0
C197 C 0.97872 0.82795 0.15963 0.0
C198 C 0.02424 0.85168 0.14958 0.0
H199 H 0.94209 0.55821 0.21511 0.0
H200 H 0.94346 0.61783 0.19284 0.0
C201 C 0.03208 0.88939 0.13707 0.0
C202 C 0.96993 0.78825 0.17305 0.0
H203 H 0.0184 0.76844 0.21126 0.0
C204 C 0.92618 0.73891 0.17134 0.0
C205 C 1.00306 0.79933 0.1878 0.0
C206 C 0.04908 0.85234 0.19088 0.0
C207 C 0.915 0.70014 0.18387 0.0
C208 C 0.94899 0.71077 0.19834 0.0
C209 C 0.99242 0.76028 0.20013 0.0
C210 C 0.94105 0.67114 0.21168 0.0
C211 C 0.86645 0.64852 0.18166 0.0
C212 C 0.93864 0.68087 0.2297 0.0
C213 C 0.93825 0.64702 0.2425 0.0
C214 C 0.9405 0.60283 0.23752 0.0
C215 C 0.94003 0.59171 0.21942 0.0
C216 C 0.94068 0.62574 0.20663 0.0
H217 H 0.83755 0.65149 0.17323 0.0
H218 H 0.87623 0.6212 0.17517 0.0
H219 H 0.84858 0.63215 0.19464 0.0
H220 H 0.93885 0.71566 0.23389 0.0
H221 H 0.93858 0.65678 0.25631 0.0
H222 H 0.16958 0.088 0.46718 0.0
H223 H 0.22795 0.0743 0.48644 0.0
H224 H 0.145 0.91182 0.47355 0.0
H225 H 0.08536 0.92492 0.45522 0.0
H226 H 0.16274 0.92159 0.50682 0.0
H227 H 0.34618 0.05579 0.47354 0.0
H228 H 0.31305 0.088 0.48137 0.0
H229 H 0.28413 0.03951 0.46434 0.0
C230 C 0.1641 0.04949 0.46846 0.0
C231 C 0.12302 0.00755 0.45973 0.0
C232 C 0.19768 0.04169 0.47935 0.0
C233 C 0.19161 0.9921 0.48124 0.0
C234 C 0.15064 0.95042 0.47237 0.0
H235 H 0.43373 0.94295 0.52486 0.0
H236 H 0.36945 0.94594 0.50553 0.0
C237 C 0.11657 0.95799 0.46186 0.0
C238 C 0.2266 0.98274 0.49278 0.0
H239 H 0.35329 0.02188 0.50116 0.0
C240 C 0.20443 0.94335 0.50548 0.0
C241 C 0.281 0.01037 0.49089 0.0
C242 C 0.30747 0.05037 0.47667 0.0
C243 C 0.23491 0.93101 0.51634 0.0
C244 C 0.2894 0.96031 0.51504 0.0
C245 C 0.31157 0.9995 0.50228 0.0
C246 C 0.3244 0.95174 0.52686 0.0
C247 C 0.20807 0.88574 0.52873 0.0
C248 C 0.31992 0.9526 0.54532 0.0
C249 C 0.35579 0.94937 0.55638 0.0
C250 C 0.39782 0.9468 0.5492 0.0
C251 C 0.40161 0.94465 0.53076 0.0
C252 C 0.36507 0.94672 0.51971 0.0
H253 H 0.16895 0.85727 0.52376 0.0
H254 H 0.23057 0.86568 0.53057 0.0
H255 H 0.20322 0.8997 0.54178 0.0
H256 H 0.29001 0.95801 0.55123 0.0
H257 H 0.35232 0.95213 0.57053 0.0
H258 H 0.10958 0.18231 0.7947 0.0
H259 H 0.17951 0.24106 0.81467 0.0
H260 H 0.20771 0.11755 0.82884 0.0
H261 H 0.1389 0.05924 0.80889 0.0
H262 H 0.18956 0.23338 0.85072 0.0
H263 H 0.35157 0.23262 0.81564 0.0
H264 H 0.28876 0.20908 0.80564 0.0
H265 H 0.3 0.16884 0.82055 0.0
C266 C 0.13085 0.16784 0.80205 0.0
C267 C 0.11891 0.11626 0.80016 0.0
C268 C 0.17077 0.20139 0.81342 0.0
C269 C 0.19952 0.18393 0.82296 0.0
C270 C 0.187 0.13224 0.82127 0.0
H271 H 0.37498 0.3076 0.91904 0.0
H272 H 0.31421 0.25484 0.89588 0.0
C273 C 0.14732 0.09884 0.80995 0.0
C274 C 0.24133 0.21884 0.83525 0.0
H275 H 0.3686 0.26493 0.84534 0.0
C276 C 0.22881 0.24067 0.84946 0.0
C277 C 0.29272 0.22889 0.83346 0.0
C278 C 0.30927 0.20907 0.8179 0.0
C279 C 0.26582 0.2708 0.86228 0.0
C280 C 0.31648 0.27847 0.86102 0.0
C281 C 0.32953 0.25825 0.84645 0.0
C282 C 0.35632 0.30761 0.87469 0.0
C283 C 0.25039 0.2944 0.87701 0.0
C284 C 0.40172 0.35329 0.87031 0.0
C285 C 0.43695 0.38334 0.88351 0.0
C286 C 0.42733 0.36814 0.90133 0.0
C287 C 0.38338 0.32071 0.90549 0.0
C288 C 0.34834 0.29068 0.89228 0.0
H289 H 0.21551 0.29679 0.87347 0.0
H290 H 0.2413 0.27001 0.88897 0.0
H291 H 0.28224 0.33375 0.88034 0.0
H292 H 0.40889 0.36677 0.85678 0.0
H293 H 0.47044 0.41958 0.87983 0.0
H294 H 0.84444 0.91973 0.73561 0.0
H295 H 0.77347 0.90828 0.7166 0.0
H296 H 0.85462 0.07146 0.70527 0.0
H297 H 0.92488 0.08349 0.72521 0.0
H298 H 0.75781 0.04064 0.70981 0.0
H299 H 0.76719 0.90078 0.66448 0.0
H300 H 0.75684 0.87725 0.68669 0.0
H301 H 0.81595 0.93523 0.68107 0.0
C302 C 0.84726 0.9532 0.72903 0.0
C303 C 0.89039 1.00246 0.73174 0.0
C304 C 0.8068 0.94651 0.71801 0.0
C305 C 0.80923 0.98866 0.709 0.0
C306 C 0.852 0.03819 0.71192 0.0
H307 H 0.60554 0.95215 0.62103 0.0
H308 H 0.67526 0.95998 0.64002 0.0
C309 C 0.89213 0.04509 0.7233 0.0
C310 C 0.76638 0.98102 0.69697 0.0
H311 H 0.68974 0.90596 0.66307 0.0
C312 C 0.74325 0.01149 0.69949 0.0
C313 C 0.74782 0.94366 0.68324 0.0
C314 C 0.77368 0.91284 0.67858 0.0
C315 C 0.70165 1.00506 0.68893 0.0
C316 C 0.68093 0.96539 0.67597 0.0
C317 C 0.70473 0.93561 0.67323 0.0
C318 C 0.63621 0.95575 0.66456 0.0
C319 C 0.68155 0.042 0.69151 0.0
C320 C 0.58988 0.94839 0.67193 0.0
C321 C 0.55024 0.94487 0.66107 0.0
C322 C 0.55547 0.94691 0.6426 0.0
C323 C 0.60013 0.95015 0.63521 0.0
C324 C 0.64022 0.95489 0.64608 0.0
H325 H 0.71124 0.07885 0.69763 0.0
H326 H 0.66923 0.05096 0.67878 0.0
H327 H 0.64788 0.02437 0.70052 0.0
H328 H 0.58488 0.9468 0.68612 0.0
H329 H 0.51609 0.94199 0.66713 0.0
H330 H 0.98017 0.89262 0.05022 0.0
H331 H 0.92857 0.82801 0.02797 0.0
H332 H 0.7963 0.84257 0.04163 0.0
H333 H 0.84836 0.90851 0.06379 0.0
H334 H 0.84241 0.7345 0.03179 0.0
H335 H 0.80176 0.85954 0.98833 0.0
H336 H 0.84955 0.88528 1.00574 0.0
H337 H 0.78211 0.85764 0.01084 0.0
C338 C 0.94015 0.88236 0.04845 0.0
C339 C 0.91836 0.90587 0.05871 0.0
C340 C 0.91068 0.84528 0.03574 0.0
C341 C 0.85875 0.83083 0.03297 0.0
C342 C 0.83661 0.85388 0.04329 0.0
H343 H 0.63121 0.55804 0.97644 0.0
H344 H 0.68812 0.61849 0.9989 0.0
C345 C 0.86628 0.89136 0.05599 0.0
C346 C 0.82804 0.79105 0.01944 0.0
H347 H 0.75838 0.77023 0.98145 0.0
C348 C 0.82409 0.74231 0.02076 0.0
C349 C 0.80485 0.80154 1.00491 0.0
C350 C 0.81008 0.85396 1.00222 0.0
C351 C 0.79721 0.70364 1.00803 0.0
C352 C 0.77274 0.71364 0.99378 0.0
C353 C 0.77704 0.76251 0.9924 0.0
C354 C 0.74179 0.674 0.98023 0.0
C355 C 0.79622 0.65288 1.0098 0.0
C356 C 0.75314 0.68474 0.96222 0.0
C357 C 0.72035 0.65042 0.94931 0.0
C358 C 0.67544 0.60467 0.95416 0.0
C359 C 0.66564 0.59271 0.97222 0.0
C360 C 0.69828 0.62724 0.98512 0.0
H361 H 0.82898 0.65689 0.01798 0.0
H362 H 0.75986 0.62457 0.01638 0.0
H363 H 0.7978 0.6371 0.99667 0.0
H364 H 0.78654 0.72057 0.95815 0.0
H365 H 0.72906 0.66086 0.93554 0.0
H366 H 0.09949 0.98155 0.37937 0.0
H367 H 0.11115 0.92381 0.35947 0.0
H368 H 0.96639 0.79593 0.37687 0.0
H369 H 0.9541 0.85379 0.39676 0.0
H370 H 0.11853 0.83805 0.36875 0.0
H371 H 0.95398 0.78459 0.32287 0.0
H372 H 0.97738 0.83881 0.33786 0.0
H373 H 0.93627 0.7743 0.34578 0.0
C374 C 0.0698 0.94123 0.37885 0.0
C375 C 0.02575 0.92221 0.3896 0.0
C376 C 0.07663 0.90828 0.36749 0.0
C377 C 0.03946 0.8557 0.36656 0.0
C378 C 0.99513 0.83658 0.37715 0.0
H379 H 0.06669 0.5986 0.32886 0.0
H380 H 0.0681 0.66804 0.34631 0.0
C381 C 0.98823 0.86961 0.38854 0.0
C382 C 0.04834 0.8207 0.35504 0.0
H383 H 0.99752 0.7365 0.32041 0.0
C384 C 0.09223 0.81603 0.35811 0.0
C385 C 0.01441 0.79262 0.34102 0.0
C386 C 0.96811 0.79806 0.33653 0.0
C387 C 0.10241 0.78301 0.34781 0.0
C388 C 0.06741 0.75343 0.33423 0.0
C389 C 0.02421 0.75907 0.33088 0.0
C390 C 0.07356 0.71488 0.32375 0.0
C391 C 0.15068 0.78032 0.35148 0.0
C392 C 0.07685 0.71839 0.30527 0.0
C393 C 0.07603 0.67867 0.29522 0.0
C394 C 0.07128 0.63437 0.30349 0.0
C395 C 0.07051 0.63218 0.32206 0.0
C396 C 0.07147 0.67197 0.33208 0.0
H397 H 0.18021 0.81529 0.35859 0.0
H398 H 0.14077 0.74634 0.35993 0.0
H399 H 0.16778 0.77596 0.33905 0.0
H400 H 0.07839 0.75116 0.29858 0.0
H401 H 0.07645 0.68156 0.28095 0.0
H402 H 0.1013 0.9424 0.73322 0.0
H403 H 0.16758 0.95086 0.71226 0.0
H404 H 0.20242 0.10583 0.70003 0.0
H405 H 0.13587 0.09733 0.72059 0.0
H406 H 0.1923 0.05093 0.67054 0.0
H407 H 0.32391 0.0315 0.71764 0.0
H408 H 0.25879 0.97858 0.71865 0.0
H409 H 0.27249 0.04241 0.72477 0.0
C410 C 0.12319 0.97825 0.72608 0.0
C411 C 0.11336 0.01916 0.72855 0.0
C412 C 0.16136 0.98324 0.71423 0.0
C413 C 0.19064 0.02936 0.70481 0.0
C414 C 0.18058 0.07004 0.70722 0.0
H415 H 0.45753 0.08061 0.63986 0.0
H416 H 0.40513 0.09651 0.66135 0.0
C417 C 0.14243 0.06504 0.71897 0.0
C418 C 0.23009 0.03458 0.6918 0.0
H419 H 0.33833 0.02439 0.68689 0.0
C420 C 0.22453 0.04567 0.67418 0.0
C421 C 0.27279 0.02881 0.69658 0.0
C422 C 0.28278 0.0202 0.71547 0.0
C423 C 0.25909 0.04879 0.66107 0.0
C424 C 0.29985 0.03977 0.66565 0.0
C425 C 0.30689 0.03104 0.6834 0.0
C426 C 0.33199 0.03382 0.65199 0.0
C427 C 0.25126 0.06108 0.64238 0.0
C428 C 0.30822 0.99361 0.63964 0.0
C429 C 0.33776 0.98453 0.62752 0.0
C430 C 0.39191 0.01533 0.62746 0.0
C431 C 0.41586 0.05657 0.63951 0.0
C432 C 0.38605 0.06548 0.65182 0.0
H433 H 0.23008 0.08284 0.64207 0.0
H434 H 0.28875 0.08402 0.6355 0.0
H435 H 0.22794 0.0245 0.63497 0.0
H436 H 0.26673 0.96814 0.63973 0.0
H437 H 0.31806 0.95246 0.6184 0.0
H438 H 0.06491 0.13445 0.04917 0.0
H439 H 0.1285 0.20365 0.03058 0.0
H440 H 0.25097 0.1913 0.05619 0.0
H441 H 0.18732 0.12159 0.07493 0.0
H442 H 0.26325 0.29656 0.05324 0.0
H443 H 0.21464 0.18825 0.98964 0.0
H444 H 0.16136 0.18371 1.00211 0.0
H445 H 0.19828 0.15631 0.01082 0.0
C446 C 0.10534 0.14616 0.05079 0.0
C447 C 0.12116 0.1225 0.06348 0.0
C448 C 0.14156 0.18561 0.04012 0.0
C449 C 0.19427 0.20222 0.04194 0.0
C450 C 0.21034 0.17876 0.05457 0.0
H451 H 0.47898 0.43394 0.9969 0.0
H452 H 0.41007 0.37311 0.01594 0.0
C453 C 0.17401 0.13893 0.06521 0.0
C454 C 0.23261 0.24507 0.03094 0.0
H455 H 0.27557 0.27722 0.9886 0.0
C456 C 0.26609 0.29243 0.03911 0.0
C457 C 0.23555 0.23963 0.0125 0.0
C458 C 0.20086 0.1892 1.00318 0.0
C459 C 0.30264 0.33469 0.02928 0.0
C460 C 0.30657 0.32892 0.01087 0.0
C461 C 0.27242 0.2817 1.00269 0.0
C462 C 0.34815 0.36991 1.00007 0.0
C463 C 0.33624 0.38524 0.0387 0.0
C464 C 0.33642 0.38829 0.98466 0.0
C465 C 0.376 0.42299 0.97356 0.0
C466 C 0.42793 0.43948 0.97764 0.0
C467 C 0.43945 0.4222 0.99337 0.0
C468 C 0.40002 0.3876 1.00438 0.0
H469 H 0.31726 0.38857 0.05084 0.0
H470 H 0.37296 0.38729 0.04274 0.0
H471 H 0.3455 0.41865 0.03002 0.0
H472 H 0.29659 0.37486 0.98102 0.0
H473 H 0.36583 0.4353 0.96149 0.0
H474 H 0.92813 0.06573 0.38459 0.0
H475 H 0.9171 0.1225 0.36417 0.0
H476 H 0.07111 0.24538 0.37633 0.0
H477 H 0.08277 0.1882 0.39681 0.0
H478 H 0.92232 0.21694 0.37086 0.0
H479 H 0.06959 0.23635 0.322 0.0
H480 H 0.0454 0.18746 0.33893 0.0
H481 H 0.09219 0.25304 0.34439 0.0
C482 C 0.95983 0.10479 0.38292 0.0
C483 C 1.00648 0.12243 0.39225 0.0
C484 C 0.95335 0.13722 0.37126 0.0
C485 C 0.99339 0.18796 0.3686 0.0
C486 C 0.03998 0.20605 0.378 0.0
H487 H 0.96361 0.42765 0.31345 0.0
H488 H 0.97103 0.37334 0.33603 0.0
C489 C 0.04654 0.17347 0.38972 0.0
C490 C 0.98569 0.22142 0.35595 0.0
H491 H 0.02736 0.28393 0.31654 0.0
C492 C 0.94538 0.23179 0.35901 0.0
C493 C 0.01541 0.24011 0.34039 0.0
C494 C 0.05783 0.22845 0.33607 0.0
C495 C 0.93397 0.26037 0.34692 0.0
C496 C 0.96404 0.27951 0.33147 0.0
C497 C 1.00439 0.26921 0.32842 0.0
C498 C 0.95439 0.31022 0.31819 0.0
C499 C 0.88908 0.26878 0.35058 0.0
C500 C 0.94212 0.2926 0.30069 0.0
C501 C 0.93787 0.32357 0.28772 0.0
C502 C 0.9463 0.37301 0.29199 0.0
C503 C 0.95664 0.3897 0.3097 0.0
C504 C 0.96081 0.35866 0.32266 0.0
H505 H 0.86241 0.24122 0.36056 0.0
H506 H 0.90396 0.30848 0.35577 0.0
H507 H 0.8669 0.26468 0.3383 0.0
H508 H 0.93705 0.25533 0.29697 0.0
H509 H 0.93011 0.30957 0.27422 0.0
loop_
_geom_bond_atom_site_label_1
_geom_bond_atom_site_label_2
_geom_bond_distance
_geom_bond_site_symmetry_2
_ccdc_geom_bond_type
In0 O1 2.294 1_455 S
In0 O2 2.326 . S
In0 O6 2.266 1_445 S
In0 O7 2.326 1_445 S
In0 O8 2.266 1_545 S
In0 O9 2.326 1_445 S
In0 O11 2.294 . S
In0 O12 2.326 . S
O1 In0 2.294 1_655 S
O1 C10 1.240 1_655 S
O2 In0 2.326 . S
O2 C10 1.252 . S
C3 O6 1.252 . S
C3 O7 1.260 . S
C4 O11 1.240 . S
C4 O12 1.252 . S
C5 O8 1.252 . S
C5 O9 1.261 1_455 S
O6 In0 2.266 1_665 S
O6 C3 1.252 . S
O7 In0 2.326 1_665 S
O7 C3 1.260 . S
O8 In0 2.266 1_565 S
O8 C5 1.252 . S
O9 In0 2.326 1_665 S
O9 C5 1.261 1_655 S
C10 O1 1.240 1_455 S
C10 O2 1.252 . S
O11 In0 2.294 . S
O11 C4 1.240 . S
O12 In0 2.326 . S
O12 C4 1.252 . S
In13 O14 2.294 . S
In13 O15 2.326 1_455 S
In13 O19 2.266 . S
In13 O20 2.326 1_545 S
In13 O21 2.266 1_445 S
In13 O22 2.326 1_545 S
In13 O24 2.294 1_445 S
In13 O25 2.326 1_455 S
O14 In13 2.294 . S
O14 C23 1.240 1_455 S
O15 In13 2.326 1_655 S
O15 C23 1.252 . S
C16 O19 1.253 . S
C16 O20 1.260 1_545 S
C17 O24 1.240 1_545 S
C17 O25 1.252 . S
C18 O21 1.252 1_455 S
C18 O22 1.260 . S
O19 In13 2.266 . S
O19 C16 1.253 . S
O20 In13 2.326 1_565 S
O20 C16 1.260 1_565 S
O21 In13 2.266 1_665 S
O21 C18 1.252 1_655 S
O22 In13 2.326 1_565 S
O22 C18 1.260 . S
C23 O14 1.240 1_655 S
C23 O15 1.252 . S
O24 In13 2.294 1_665 S
O24 C17 1.240 1_565 S
O25 In13 2.326 1_655 S
O25 C17 1.252 . S
In26 O27 2.294 1_445 S
In26 O28 2.326 1_445 S
In26 O32 2.266 1_545 S
In26 O33 2.326 . S
In26 O34 2.266 . S
In26 O35 2.326 . S
In26 O37 2.294 1_455 S
In26 O38 2.326 1_445 S
O27 In26 2.294 1_665 S
O27 C36 1.240 . S
O28 In26 2.326 1_665 S
O28 C36 1.252 . S
C29 O32 1.252 1_545 S
C29 O33 1.260 . S
C30 O37 1.240 1_565 S
C30 O38 1.252 . S
C31 O34 1.252 . S
C31 O35 1.260 . S
O32 In26 2.266 1_565 S
O32 C29 1.252 1_565 S
O33 In26 2.326 . S
O33 C29 1.260 . S
O34 In26 2.266 . S
O34 C31 1.252 . S
O35 In26 2.326 . S
O35 C31 1.260 . S
C36 O27 1.240 . S
C36 O28 1.252 . S
O37 In26 2.294 1_655 S
O37 C30 1.240 1_545 S
O38 In26 2.326 1_665 S
O38 C30 1.252 . S
Mg39 O46 2.141 . S
Mg39 O47 2.048 . S
Mg39 O48 2.048 . S
Mg39 O51 2.141 . S
C40 O41 1.313 . S
C40 O47 1.195 1_655 S
O41 C40 1.313 . S
C42 O43 1.245 . S
C42 O51 1.289 1_655 S
O43 C42 1.245 . S
C44 O45 1.245 . S
C44 O46 1.289 1_655 S
O45 C44 1.245 . S
O46 Mg39 2.141 . S
O46 C44 1.289 1_455 S
O47 Mg39 2.048 . S
O47 C40 1.195 1_455 S
O48 Mg39 2.048 . S
O48 C49 1.195 1_455 S
C49 O48 1.195 1_655 S
C49 O50 1.313 . S
O50 C49 1.313 . S
O51 Mg39 2.141 . S
O51 C42 1.289 1_455 S
Mg52 O59 2.141 . S
Mg52 O60 2.048 . S
Mg52 O61 2.048 . S
Mg52 O64 2.141 . S
C53 O54 1.313 . S
C53 O60 1.195 1_565 S
O54 C53 1.313 . S
C55 O56 1.245 . S
C55 O64 1.289 1_565 S
O56 C55 1.245 . S
C57 O58 1.245 . S
C57 O59 1.289 1_565 S
O58 C57 1.245 . S
O59 Mg52 2.141 . S
O59 C57 1.289 1_545 S
O60 Mg52 2.048 . S
O60 C53 1.195 1_545 S
O61 Mg52 2.048 . S
O61 C62 1.195 1_545 S
C62 O61 1.195 1_565 S
C62 O63 1.313 . S
O63 C62 1.313 . S
O64 Mg52 2.141 . S
O64 C55 1.289 1_545 S
Mg65 O72 2.141 . S
Mg65 O73 2.048 . S
Mg65 O74 2.048 . S
Mg65 O77 2.141 . S
C66 O67 1.313 . S
C66 O73 1.195 . S
O67 C66 1.313 . S
C68 O69 1.245 . S
C68 O77 1.289 . S
O69 C68 1.245 . S
C70 O71 1.245 . S
C70 O72 1.289 . S
O71 C70 1.245 . S
O72 Mg65 2.141 . S
O72 C70 1.289 . S
O73 Mg65 2.048 . S
O73 C66 1.195 . S
O74 Mg65 2.048 . S
O74 C75 1.195 . S
C75 O74 1.195 . S
C75 O76 1.313 . S
O76 C75 1.313 . S
O77 Mg65 2.141 . S
O77 C68 1.289 . S
H78 C86 0.929 . S
H79 C88 0.930 . S
H80 C90 0.930 . S
H81 C93 0.929 . S
H82 C96 0.930 . S
H83 C98 0.960 . S
H84 C98 0.960 . S
H85 C98 0.960 . S
C86 H78 0.929 . S
C86 C87 1.377 . S
C86 C88 1.384 . S
C87 C86 1.377 . S
C87 C93 1.390 1_455 S
C88 H79 0.930 . S
C88 C86 1.384 . S
C88 C89 1.372 . S
C89 C88 1.372 . S
C89 C90 1.400 1_455 S
C89 C94 1.490 . S
C90 H80 0.930 . S
C90 C89 1.400 1_655 S
C90 C93 1.386 . S
H91 C107 0.930 . S
H92 C108 0.931 . S
C93 H81 0.929 . S
C93 C87 1.390 1_655 S
C93 C90 1.386 . S
C94 C89 1.490 . S
C94 C96 1.395 1_455 S
C94 C97 1.403 . S
H95 C101 0.930 . S
C96 H82 0.930 . S
C96 C94 1.395 1_655 S
C96 C99 1.403 . S
C97 C94 1.403 . S
C97 C98 1.524 . S
C97 C101 1.400 . S
C98 H83 0.960 . S
C98 H84 0.960 . S
C98 H85 0.960 . S
C98 C97 1.524 . S
C99 C96 1.403 . S
C99 C100 1.381 1_655 S
C99 C103 1.495 . S
C100 C99 1.381 1_455 S
C100 C101 1.408 . S
C100 C102 1.457 1_455 S
C101 H95 0.930 . S
C101 C97 1.400 . S
C101 C100 1.408 . S
C102 C100 1.457 1_655 S
C102 C104 1.383 1_655 S
C102 C108 1.391 . S
C103 C99 1.495 . S
C103 H109 0.959 . S
C103 H110 0.961 . S
C103 H111 0.960 . S
C104 C102 1.383 1_455 S
C104 C105 1.394 . S
C104 H112 0.930 . S
C105 C104 1.394 . S
C105 C106 1.383 . S
C105 H113 0.929 . S
C106 C105 1.383 . S
C106 C107 1.377 1_455 S
C107 H91 0.930 . S
C107 C106 1.377 1_655 S
C107 C108 1.379 . S
C108 H92 0.931 . S
C108 C102 1.391 . S
C108 C107 1.379 . S
H109 C103 0.959 . S
H110 C103 0.961 . S
H111 C103 0.960 . S
H112 C104 0.930 . S
H113 C105 0.929 . S
H114 C122 0.929 . S
H115 C124 0.930 . S
H116 C126 0.930 . S
H117 C129 0.929 . S
H118 C132 0.930 . S
H119 C134 0.960 . S
H120 C134 0.960 . S
H121 C134 0.960 1_565 S
C122 H114 0.929 . S
C122 C123 1.377 . S
C122 C124 1.384 . S
C123 C122 1.377 . S
C123 C129 1.390 1_545 S
C124 H115 0.930 . S
C124 C122 1.384 . S
C124 C125 1.372 . S
C125 C124 1.372 . S
C125 C126 1.400 1_545 S
C125 C130 1.490 . S
C126 H116 0.930 . S
C126 C125 1.400 1_565 S
C126 C129 1.386 . S
H127 C143 0.930 . S
H128 C144 0.931 . S
C129 H117 0.929 . S
C129 C123 1.390 1_565 S
C129 C126 1.386 . S
C130 C125 1.490 . S
C130 C132 1.395 . S
C130 C133 1.403 . S
H131 C137 0.930 . S
C132 H118 0.930 . S
C132 C130 1.395 . S
C132 C135 1.403 . S
C133 C130 1.403 . S
C133 C134 1.524 . S
C133 C137 1.400 . S
C134 H119 0.960 . S
C134 H120 0.960 . S
C134 H121 0.960 1_545 S
C134 C133 1.524 . S
C135 C132 1.403 . S
C135 C136 1.392 . S
C135 C139 1.495 . S
C136 C135 1.392 . S
C136 C137 1.385 . S
C136 C138 1.478 . S
C137 H131 0.930 . S
C137 C133 1.400 . S
C137 C136 1.385 . S
C138 C136 1.478 . S
C138 C140 1.381 . S
C138 C144 1.383 1_545 S
C139 C135 1.495 . S
C139 H145 0.959 . S
C139 H146 0.961 1_545 S
C139 H147 0.960 . S
C140 C138 1.381 . S
C140 C141 1.394 . S
C140 H148 0.930 . S
C141 C140 1.394 . S
C141 C142 1.383 . S
C141 H149 0.929 . S
C142 C141 1.383 . S
C142 C143 1.377 1_545 S
C143 H127 0.930 . S
C143 C142 1.377 1_565 S
C143 C144 1.379 . S
C144 H128 0.931 . S
C144 C138 1.383 1_565 S
C144 C143 1.379 . S
H145 C139 0.959 . S
H146 C139 0.961 1_565 S
H147 C139 0.960 . S
H148 C140 0.930 . S
H149 C141 0.929 . S
H150 C158 0.929 . S
H151 C160 0.930 . S
H152 C162 0.930 . S
H153 C165 0.929 . S
H154 C168 0.930 . S
H155 C170 0.960 . S
H156 C170 0.960 . S
H157 C170 0.960 . S
C158 H150 0.929 . S
C158 C159 1.377 . S
C158 C160 1.384 . S
C159 C158 1.377 . S
C159 C165 1.390 . S
C160 H151 0.930 . S
C160 C158 1.384 . S
C160 C161 1.372 . S
C161 C160 1.372 . S
C161 C162 1.400 . S
C161 C166 1.490 . S
C162 H152 0.930 . S
C162 C161 1.400 . S
C162 C165 1.386 . S
H163 C179 0.930 . S
H164 C180 0.931 . S
C165 H153 0.929 . S
C165 C159 1.390 . S
C165 C162 1.386 . S
C166 C161 1.490 . S
C166 C168 1.395 . S
C166 C169 1.403 . S
H167 C173 0.930 . S
C168 H154 0.930 . S
C168 C166 1.395 . S
C168 C171 1.403 . S
C169 C166 1.403 . S
C169 C170 1.524 . S
C169 C173 1.400 . S
C170 H155 0.960 . S
C170 H156 0.960 . S
C170 H157 0.960 . S
C170 C169 1.524 . S
C171 C168 1.403 . S
C171 C172 1.392 . S
C171 C175 1.495 . S
C172 C171 1.392 . S
C172 C173 1.385 . S
C172 C174 1.478 . S
C173 H167 0.930 . S
C173 C169 1.400 . S
C173 C172 1.385 . S
C174 C172 1.478 . S
C174 C176 1.381 . S
C174 C180 1.383 . S
C175 C171 1.495 . S
C175 H181 0.959 . S
C175 H182 0.961 . S
C175 H183 0.960 . S
C176 C174 1.381 . S
C176 C177 1.394 . S
C176 H184 0.930 . S
C177 C176 1.394 . S
C177 C178 1.383 . S
C177 H185 0.929 . S
C178 C177 1.383 . S
C178 C179 1.377 . S
C179 H163 0.930 . S
C179 C178 1.377 . S
C179 C180 1.379 . S
C180 H164 0.931 . S
C180 C174 1.383 . S
C180 C179 1.379 . S
H181 C175 0.959 . S
H182 C175 0.961 . S
H183 C175 0.960 . S
H184 C176 0.930 . S
H185 C177 0.929 . S
H186 C194 0.929 . S
H187 C196 0.930 . S
H188 C198 0.930 . S
H189 C201 0.929 . S
H190 C204 0.930 . S
H191 C206 0.960 . S
H192 C206 0.960 . S
H193 C206 0.960 . S
C194 H186 0.929 . S
C194 C195 1.370 1_655 S
C194 C196 1.384 . S
C195 C194 1.370 1_455 S
C195 C201 1.406 . S
C196 H187 0.930 . S
C196 C194 1.384 . S
C196 C197 1.358 1_655 S
C197 C196 1.358 1_455 S
C197 C198 1.407 . S
C197 C202 1.504 1_455 S
C198 H188 0.930 . S
C198 C197 1.407 . S
C198 C201 1.386 . S
H199 C215 0.930 . S
H200 C216 0.931 . S
C201 H189 0.929 . S
C201 C195 1.406 . S
C201 C198 1.386 . S
C202 C197 1.504 1_655 S
C202 C204 1.406 . S
C202 C205 1.386 1_655 S
H203 C209 0.930 . S
C204 H190 0.930 . S
C204 C202 1.406 . S
C204 C207 1.403 . S
C205 C202 1.386 1_455 S
C205 C206 1.524 . S
C205 C209 1.400 . S
C206 H191 0.960 . S
C206 H192 0.960 . S
C206 H193 0.960 . S
C206 C205 1.524 . S
C207 C204 1.403 . S
C207 C208 1.392 . S
C207 C211 1.495 . S
C208 C207 1.392 . S
C208 C209 1.385 1_655 S
C208 C210 1.478 . S
C209 H203 0.930 . S
C209 C205 1.400 . S
C209 C208 1.385 1_455 S
C210 C208 1.478 . S
C210 C212 1.381 . S
C210 C216 1.383 1_655 S
C211 C207 1.495 . S
C211 H217 0.959 . S
C211 H218 0.961 . S
C211 H219 0.960 . S
C212 C210 1.381 . S
C212 C213 1.394 . S
C212 H220 0.930 . S
C213 C212 1.394 . S
C213 C214 1.389 . S
C213 H221 0.929 . S
C214 C213 1.389 . S
C214 C215 1.375 1_655 S
C215 H199 0.930 . S
C215 C214 1.375 1_455 S
C215 C216 1.379 . S
C216 H200 0.931 . S
C216 C210 1.383 1_455 S
C216 C215 1.379 . S
H217 C211 0.959 . S
H218 C211 0.961 . S
H219 C211 0.960 . S
H220 C212 0.930 . S
H221 C213 0.929 . S
H222 C230 0.929 . S
H223 C232 0.930 . S
H224 C234 0.930 . S
H225 C237 0.929 . S
H226 C240 0.930 . S
H227 C242 0.960 . S
H228 C242 0.960 1_545 S
H229 C242 0.960 . S
C230 H222 0.929 . S
C230 C231 1.377 . S
C230 C232 1.384 . S
C231 C230 1.377 . S
C231 C237 1.390 1_545 S
C232 H223 0.930 . S
C232 C230 1.384 . S
C232 C233 1.372 . S
C233 C232 1.372 . S
C233 C234 1.400 1_545 S
C233 C238 1.490 . S
C234 H224 0.930 . S
C234 C233 1.400 1_565 S
C234 C237 1.386 . S
H235 C251 0.930 . S
H236 C252 0.931 . S
C237 H225 0.929 . S
C237 C231 1.390 1_565 S
C237 C234 1.386 . S
C238 C233 1.490 . S
C238 C240 1.395 . S
C238 C241 1.404 . S
H239 C245 0.929 . S
C240 H226 0.930 . S
C240 C238 1.395 . S
C240 C243 1.403 . S
C241 C238 1.404 . S
C241 C242 1.523 1_545 S
C241 C245 1.400 1_545 S
C242 H227 0.960 . S
C242 H228 0.960 1_565 S
C242 H229 0.960 . S
C242 C241 1.523 1_565 S
C243 C240 1.403 . S
C243 C244 1.392 . S
C243 C247 1.495 . S
C244 C243 1.392 . S
C244 C245 1.386 1_545 S
C244 C246 1.478 . S
C245 H239 0.929 . S
C245 C241 1.400 1_565 S
C245 C244 1.386 1_565 S
C246 C244 1.478 . S
C246 C248 1.381 . S
C246 C252 1.383 1_545 S
C247 C243 1.495 . S
C247 H253 0.959 . S
C247 H254 0.961 1_545 S
C247 H255 0.960 . S
C248 C246 1.381 . S
C248 C249 1.394 . S
C248 H256 0.930 . S
C249 C248 1.394 . S
C249 C250 1.383 . S
C249 H257 0.929 . S
C250 C249 1.383 . S
C250 C251 1.377 1_545 S
C251 H235 0.930 . S
C251 C250 1.377 1_565 S
C251 C252 1.379 . S
C252 H236 0.931 . S
C252 C246 1.383 1_565 S
C252 C251 1.379 . S
H253 C247 0.959 . S
H254 C247 0.961 1_565 S
H255 C247 0.960 . S
H256 C248 0.930 . S
H257 C249 0.929 . S
H258 C266 0.929 . S
H259 C268 0.930 . S
H260 C270 0.930 . S
H261 C273 0.929 . S
H262 C276 0.930 . S
H263 C278 0.960 . S
H264 C278 0.960 . S
H265 C278 0.960 . S
C266 H258 0.929 . S
C266 C267 1.377 . S
C266 C268 1.384 . S
C267 C266 1.377 . S
C267 C273 1.390 . S
C268 H259 0.930 . S
C268 C266 1.384 . S
C268 C269 1.372 . S
C269 C268 1.372 . S
C269 C270 1.400 . S
C269 C274 1.490 . S
C270 H260 0.930 . S
C270 C269 1.400 . S
C270 C273 1.386 . S
H271 C287 0.930 . S
H272 C288 0.931 . S
C273 H261 0.929 . S
C273 C267 1.390 . S
C273 C270 1.386 . S
C274 C269 1.490 . S
C274 C276 1.395 . S
C274 C277 1.403 . S
H275 C281 0.930 . S
C276 H262 0.930 . S
C276 C274 1.395 . S
C276 C279 1.403 . S
C277 C274 1.403 . S
C277 C278 1.524 . S
C277 C281 1.400 . S
C278 H263 0.960 . S
C278 H264 0.960 . S
C278 H265 0.960 . S
C278 C277 1.524 . S
C279 C276 1.403 . S
C279 C280 1.392 . S
C279 C283 1.495 . S
C280 C279 1.392 . S
C280 C281 1.385 . S
C280 C282 1.478 . S
C281 H275 0.930 . S
C281 C277 1.400 . S
C281 C280 1.385 . S
C282 C280 1.478 . S
C282 C284 1.381 . S
C282 C288 1.383 . S
C283 C279 1.495 . S
C283 H289 0.959 . S
C283 H290 0.961 . S
C283 H291 0.960 . S
C284 C282 1.381 . S
C284 C285 1.394 . S
C284 H292 0.930 . S
C285 C284 1.394 . S
C285 C286 1.383 . S
C285 H293 0.929 . S
C286 C285 1.383 . S
C286 C287 1.377 . S
C287 H271 0.930 . S
C287 C286 1.377 . S
C287 C288 1.379 . S
C288 H272 0.931 . S
C288 C282 1.383 . S
C288 C287 1.379 . S
H289 C283 0.959 . S
H290 C283 0.961 . S
H291 C283 0.960 . S
H292 C284 0.930 . S
H293 C285 0.929 . S
H294 C302 0.929 . S
H295 C304 0.930 . S
H296 C306 0.930 . S
H297 C309 0.929 . S
H298 C312 0.930 . S
H299 C314 0.960 . S
H300 C314 0.960 1_565 S
H301 C314 0.960 . S
C302 H294 0.929 . S
C302 C303 1.377 . S
C302 C304 1.384 . S
C303 C302 1.377 . S
C303 C309 1.390 1_565 S
C304 H295 0.930 . S
C304 C302 1.384 . S
C304 C305 1.372 . S
C305 C304 1.372 . S
C305 C306 1.400 1_565 S
C305 C310 1.490 . S
C306 H296 0.930 . S
C306 C305 1.400 1_545 S
C306 C309 1.386 . S
H307 C323 0.930 . S
H308 C324 0.931 . S
C309 H297 0.929 . S
C309 C303 1.390 1_545 S
C309 C306 1.386 . S
C310 C305 1.490 . S
C310 C312 1.395 . S
C310 C313 1.403 1_565 S
H311 C317 0.930 . S
C312 H298 0.930 . S
C312 C310 1.395 . S
C312 C315 1.403 . S
C313 C310 1.403 1_545 S
C313 C314 1.524 . S
C313 C317 1.400 . S
C314 H299 0.960 . S
C314 H300 0.960 1_545 S
C314 H301 0.960 . S
C314 C313 1.524 . S
C315 C312 1.403 . S
C315 C316 1.392 . S
C315 C319 1.495 . S
C316 C315 1.392 . S
C316 C317 1.385 1_565 S
C316 C318 1.478 . S
C317 H311 0.930 . S
C317 C313 1.400 . S
C317 C316 1.385 1_545 S
C318 C316 1.478 . S
C318 C320 1.381 . S
C318 C324 1.383 1_565 S
C319 C315 1.495 . S
C319 H325 0.959 . S
C319 H326 0.961 . S
C319 H327 0.960 . S
C320 C318 1.381 . S
C320 C321 1.394 . S
C320 H328 0.930 . S
C321 C320 1.394 . S
C321 C322 1.383 1_565 S
C321 H329 0.929 . S
C322 C321 1.383 1_545 S
C322 C323 1.377 . S
C323 H307 0.930 . S
C323 C322 1.377 . S
C323 C324 1.379 . S
C324 H308 0.931 . S
C324 C318 1.383 1_545 S
C324 C323 1.379 . S
H325 C319 0.959 . S
H326 C319 0.961 . S
H327 C319 0.960 . S
H328 C320 0.930 . S
H329 C321 0.929 . S
H330 C338 0.929 . S
H331 C340 0.930 . S
H332 C342 0.930 . S
H333 C345 0.929 . S
H334 C348 0.930 . S
H335 C350 0.960 . S
H336 C350 0.960 . S
H337 C350 0.960 . S
C338 H330 0.929 . S
C338 C339 1.377 . S
C338 C340 1.384 . S
C339 C338 1.377 . S
C339 C345 1.390 . S
C340 H331 0.930 . S
C340 C338 1.384 . S
C340 C341 1.372 . S
C341 C340 1.372 . S
C341 C342 1.400 . S
C341 C346 1.490 . S
C342 H332 0.930 . S
C342 C341 1.400 . S
C342 C345 1.386 . S
H343 C359 0.930 . S
H344 C360 0.937 . S
C345 H333 0.929 . S
C345 C339 1.390 . S
C345 C342 1.386 . S
C346 C341 1.490 . S
C346 C348 1.395 . S
C346 C349 1.403 . S
H347 C353 0.930 1_556 S
C348 H334 0.930 . S
C348 C346 1.395 . S
C348 C351 1.403 1_554 S
C349 C346 1.403 . S
C349 C350 1.524 . S
C349 C353 1.400 . S
C350 H335 0.960 . S
C350 H336 0.960 . S
C350 H337 0.960 . S
C350 C349 1.524 . S
C351 C348 1.403 1_556 S
C351 C352 1.392 . S
C351 C355 1.495 . S
C352 C351 1.392 . S
C352 C353 1.385 1_556 S
C352 C354 1.478 . S
C353 H347 0.930 1_554 S
C353 C349 1.400 . S
C353 C352 1.385 1_554 S
C354 C352 1.478 . S
C354 C356 1.381 . S
C354 C360 1.383 . S
C355 C351 1.495 . S
C355 H361 0.959 . S
C355 H362 0.961 . S
C355 H363 0.960 . S
C356 C354 1.381 . S
C356 C357 1.394 . S
C356 H364 0.930 . S
C357 C356 1.394 . S
C357 C358 1.383 . S
C357 H365 0.929 . S
C358 C357 1.383 . S
C358 C359 1.377 . S
C359 H343 0.930 . S
C359 C358 1.377 . S
C359 C360 1.379 . S
C360 H344 0.937 . S
C360 C354 1.383 . S
C360 C359 1.379 . S
H361 C355 0.959 . S
H362 C355 0.961 . S
H363 C355 0.960 . S
H364 C356 0.930 . S
H365 C357 0.929 . S
H366 C374 0.929 . S
H367 C376 0.930 . S
H368 C378 0.930 . S
H369 C381 0.929 . S
H370 C384 0.930 . S
H371 C386 0.960 . S
H372 C386 0.960 . S
H373 C386 0.960 . S
C374 H366 0.929 . S
C374 C375 1.377 . S
C374 C376 1.384 . S
C375 C374 1.377 . S
C375 C381 1.390 1_455 S
C376 H367 0.930 . S
C376 C374 1.384 . S
C376 C377 1.372 . S
C377 C376 1.372 . S
C377 C378 1.400 1_455 S
C377 C382 1.490 . S
C378 H368 0.930 . S
C378 C377 1.400 1_655 S
C378 C381 1.386 . S
H379 C395 0.930 1_655 S
H380 C396 0.931 . S
C381 H369 0.929 . S
C381 C375 1.390 1_655 S
C381 C378 1.386 . S
C382 C377 1.490 . S
C382 C384 1.395 . S
C382 C385 1.403 1_455 S
H383 C389 0.930 . S
C384 H370 0.930 . S
C384 C382 1.395 . S
C384 C387 1.403 . S
C385 C382 1.403 1_655 S
C385 C386 1.524 . S
C385 C389 1.400 . S
C386 H371 0.960 . S
C386 H372 0.960 . S
C386 H373 0.960 . S
C386 C385 1.524 . S
C387 C384 1.403 . S
C387 C388 1.392 . S
C387 C391 1.495 . S
C388 C387 1.392 . S
C388 C389 1.385 1_455 S
C388 C390 1.478 . S
C389 H383 0.930 . S
C389 C385 1.400 . S
C389 C388 1.385 1_655 S
C390 C388 1.478 . S
C390 C392 1.381 . S
C390 C396 1.383 . S
C391 C387 1.495 . S
C391 H397 0.959 . S
C391 H398 0.961 . S
C391 H399 0.960 . S
C392 C390 1.381 . S
C392 C393 1.394 . S
C392 H400 0.930 . S
C393 C392 1.394 . S
C393 C394 1.383 . S
C393 H401 0.929 . S
C394 C393 1.383 . S
C394 C395 1.377 . S
C395 H379 0.930 1_455 S
C395 C394 1.377 . S
C395 C396 1.379 . S
C396 H380 0.931 . S
C396 C390 1.383 . S
C396 C395 1.379 . S
H397 C391 0.959 . S
H398 C391 0.961 . S
H399 C391 0.960 . S
H400 C392 0.930 . S
H401 C393 0.929 . S
H402 C410 0.929 . S
H403 C412 0.930 . S
H404 C414 0.930 . S
H405 C417 0.929 . S
H406 C420 0.930 . S
H407 C422 0.960 . S
H408 C422 0.960 . S
H409 C422 0.960 1_545 S
C410 H402 0.929 . S
C410 C411 1.377 1_565 S
C410 C412 1.384 . S
C411 C410 1.377 1_545 S
C411 C417 1.390 . S
C412 H403 0.930 . S
C412 C410 1.384 . S
C412 C413 1.372 1_565 S
C413 C412 1.372 1_545 S
C413 C414 1.400 . S
C413 C418 1.490 . S
C414 H404 0.930 . S
C414 C413 1.400 . S
C414 C417 1.386 . S
H415 C431 0.930 . S
H416 C432 0.931 . S
C417 H405 0.929 . S
C417 C411 1.390 . S
C417 C414 1.386 . S
C418 C413 1.490 . S
C418 C420 1.395 . S
C418 C421 1.403 1_545 S
H419 C425 0.930 . S
C420 H406 0.930 . S
C420 C418 1.395 . S
C420 C423 1.403 . S
C421 C418 1.403 1_565 S
C421 C422 1.524 . S
C421 C425 1.400 . S
C422 H407 0.960 . S
C422 H408 0.960 . S
C422 H409 0.960 1_565 S
C422 C421 1.524 . S
C423 C420 1.403 . S
C423 C424 1.392 . S
C423 C427 1.495 . S
C424 C423 1.392 . S
C424 C425 1.385 1_545 S
C424 C426 1.478 . S
C425 H419 0.930 . S
C425 C421 1.400 . S
C425 C424 1.385 1_565 S
C426 C424 1.478 . S
C426 C428 1.381 1_545 S
C426 C432 1.383 . S
C427 C423 1.495 . S
C427 H433 0.959 . S
C427 H434 0.961 . S
C427 H435 0.960 1_545 S
C428 C426 1.381 1_565 S
C428 C429 1.394 . S
C428 H436 0.930 . S
C429 C428 1.394 . S
C429 C430 1.383 1_565 S
C429 H437 0.929 . S
C430 C429 1.383 1_545 S
C430 C431 1.377 . S
C431 H415 0.930 . S
C431 C430 1.377 . S
C431 C432 1.379 . S
C432 H416 0.931 . S
C432 C426 1.383 . S
C432 C431 1.379 . S
H433 C427 0.959 . S
H434 C427 0.961 . S
H435 C427 0.960 1_565 S
H436 C428 0.930 . S
H437 C429 0.929 . S
H438 C446 0.929 . S
H439 C448 0.930 . S
H440 C450 0.930 . S
H441 C453 0.929 . S
H442 C456 0.930 . S
H443 C458 0.960 . S
H444 C458 0.960 1_554 S
H445 C458 0.960 . S
C446 H438 0.929 . S
C446 C447 1.377 . S
C446 C448 1.384 . S
C447 C446 1.377 . S
C447 C453 1.390 . S
C448 H439 0.930 . S
C448 C446 1.384 . S
C448 C449 1.372 . S
C449 C448 1.372 . S
C449 C450 1.400 . S
C449 C454 1.490 . S
C450 H440 0.930 . S
C450 C449 1.400 . S
C450 C453 1.386 . S
H451 C467 0.930 . S
H452 C468 0.931 . S
C453 H441 0.929 . S
C453 C447 1.390 . S
C453 C450 1.386 . S
C454 C449 1.490 . S
C454 C456 1.395 . S
C454 C457 1.403 . S
H455 C461 0.930 . S
C456 H442 0.930 . S
C456 C454 1.395 . S
C456 C459 1.403 . S
C457 C454 1.403 . S
C457 C458 1.524 1_554 S
C457 C461 1.400 1_554 S
C458 H443 0.960 . S
C458 H444 0.960 1_556 S
C458 H445 0.960 . S
C458 C457 1.524 1_556 S
C459 C456 1.403 . S
C459 C460 1.392 1_554 S
C459 C463 1.495 . S
C460 C459 1.392 1_556 S
C460 C461 1.385 . S
C460 C462 1.478 . S
C461 H455 0.930 . S
C461 C457 1.400 1_556 S
C461 C460 1.385 . S
C462 C460 1.478 . S
C462 C464 1.381 . S
C462 C468 1.383 . S
C463 C459 1.495 . S
C463 H469 0.959 . S
C463 H470 0.961 . S
C463 H471 0.960 . S
C464 C462 1.381 . S
C464 C465 1.394 . S
C464 H472 0.930 . S
C465 C464 1.394 . S
C465 C466 1.383 . S
C465 H473 0.929 . S
C466 C465 1.383 . S
C466 C467 1.377 . S
C467 H451 0.930 . S
C467 C466 1.377 . S
C467 C468 1.379 . S
C468 H452 0.931 . S
C468 C462 1.383 . S
C468 C467 1.379 . S
H469 C463 0.959 . S
H470 C463 0.961 . S
H471 C463 0.960 . S
H472 C464 0.930 . S
H473 C465 0.929 . S
H474 C482 0.929 . S
H475 C484 0.930 . S
H476 C486 0.930 . S
H477 C489 0.929 . S
H478 C492 0.930 . S
H479 C494 0.960 . S
H480 C494 0.960 . S
H481 C494 0.960 . S
C482 H474 0.929 . S
C482 C483 1.377 . S
C482 C484 1.384 . S
C483 C482 1.377 . S
C483 C489 1.390 1_655 S
C484 H475 0.930 . S
C484 C482 1.384 . S
C484 C485 1.372 . S
C485 C484 1.372 . S
C485 C486 1.400 1_655 S
C485 C490 1.490 . S
C486 H476 0.930 . S
C486 C485 1.400 1_455 S
C486 C489 1.386 . S
H487 C503 0.930 . S
H488 C504 0.931 . S
C489 H477 0.929 . S
C489 C483 1.390 1_455 S
C489 C486 1.386 . S
C490 C485 1.490 . S
C490 C492 1.395 . S
C490 C493 1.403 1_655 S
H491 C497 0.930 . S
C492 H478 0.930 . S
C492 C490 1.395 . S
C492 C495 1.403 . S
C493 C490 1.403 1_455 S
C493 C494 1.524 . S
C493 C497 1.400 . S
C494 H479 0.960 . S
C494 H480 0.960 . S
C494 H481 0.960 . S
C494 C493 1.524 . S
C495 C492 1.403 . S
C495 C496 1.392 . S
C495 C499 1.495 . S
C496 C495 1.392 . S
C496 C497 1.385 1_655 S
C496 C498 1.478 . S
C497 H491 0.930 . S
C497 C493 1.400 . S
C497 C496 1.385 1_455 S
C498 C496 1.478 . S
C498 C500 1.381 . S
C498 C504 1.383 1_655 S
C499 C495 1.495 . S
C499 H505 0.959 . S
C499 H506 0.961 . S
C499 H507 0.960 . S
C500 C498 1.381 . S
C500 C501 1.394 . S
C500 H508 0.930 . S
C501 C500 1.394 . S
C501 C502 1.380 1_655 S
C501 H509 0.929 . S
C502 C501 1.380 1_455 S
C502 C503 1.383 . S
C503 H487 0.930 . S
C503 C502 1.383 . S
C503 C504 1.379 . S
C504 H488 0.931 . S
C504 C498 1.383 1_455 S
C504 C503 1.379 . S
H505 C499 0.959 . S
H506 C499 0.961 . S
H507 C499 0.960 . S
H508 C500 0.930 . S
H509 C501 0.929 . S
C106 C44 1.422 1_455 S
C87 C10 1.442 . S
C123 C17 1.517 . S
C142 C62 1.509 1_545 S
C159 C36 1.523 . S
C178 C75 1.523 . S
C195 C5 1.433 . S
C214 C42 1.414 . S
C250 C53 1.509 1_545 S
C231 C16 1.519 . S
C267 C31 1.527 . S
C286 C66 1.525 . S
C322 C55 1.420 1_545 S
C303 C30 1.435 . S
C339 C3 1.444 . S
C358 C68 1.419 . S
C394 C49 1.520 1_455 S
C375 C18 1.519 . S
C430 C57 1.427 1_545 S
C411 C29 1.436 . S
C466 C70 1.424 . S
C447 C4 1.442 . S
C483 C23 1.517 . S
C502 C40 1.500 1_455 S
