# Generated by pormake.
# Topology gar, (4,6)-cn, num edge types: 1
# Building blocks:
#     Node 0, Type 0, BuildingBlock: CEKHIL_clean_sbu_0, # of connection points: 4
#     Node 1, Type 0, BuildingBlock: CEKHIL_clean_sbu_0, # of connection points: 4
#     Node 2, Type 0, BuildingBlock: CEKHIL_clean_sbu_0, # of connection points: 4
#     Node 3, Type 0, BuildingBlock: CEKHIL_clean_sbu_0, # of connection points: 4
#     Node 4, Type 0, BuildingBlock: CEKHIL_clean_sbu_0, # of connection points: 4
#     Node 5, Type 0, BuildingBlock: CEKHIL_clean_sbu_0, # of connection points: 4
#     Node 6, Type 0, BuildingBlock: CEKHIL_clean_sbu_0, # of connection points: 4
#     Node 7, Type 0, BuildingBlock: CEKHIL_clean_sbu_0, # of connection points: 4
#     Node 8, Type 0, BuildingBlock: CEKHIL_clean_sbu_0, # of connection points: 4
#     Node 9, Type 0, BuildingBlock: CEKHIL_clean_sbu_0, # of connection points: 4
#     Node 10, Type 0, BuildingBlock: CEKHIL_clean_sbu_0, # of connection points: 4
#     Node 11, Type 0, BuildingBlock: CEKHIL_clean_sbu_0, # of connection points: 4
#     Node 12, Type 0, BuildingBlock: CEKHIL_clean_sbu_0, # of connection points: 4
#     Node 13, Type 0, BuildingBlock: CEKHIL_clean_sbu_0, # of connection points: 4
#     Node 14, Type 0, BuildingBlock: CEKHIL_clean_sbu_0, # of connection points: 4
#     Node 15, Type 0, BuildingBlock: CEKHIL_clean_sbu_0, # of connection points: 4
#     Node 16, Type 0, BuildingBlock: CEKHIL_clean_sbu_0, # of connection points: 4
#     Node 17, Type 0, BuildingBlock: CEKHIL_clean_sbu_0, # of connection points: 4
#     Node 18, Type 0, BuildingBlock: CEKHIL_clean_sbu_0, # of connection points: 4
#     Node 19, Type 0, BuildingBlock: CEKHIL_clean_sbu_0, # of connection points: 4
#     Node 20, Type 0, BuildingBlock: CEKHIL_clean_sbu_0, # of connection points: 4
#     Node 21, Type 0, BuildingBlock: CEKHIL_clean_sbu_0, # of connection points: 4
#     Node 22, Type 0, BuildingBlock: CEKHIL_clean_sbu_0, # of connection points: 4
#     Node 23, Type 0, BuildingBlock: CEKHIL_clean_sbu_0, # of connection points: 4
#     Node 24, Type 1, BuildingBlock: NUHQIS_clean_sbu_0, # of connection points: 6
#     Node 25, Type 1, BuildingBlock: NUHQIS_clean_sbu_0, # of connection points: 6
#     Node 26, Type 1, BuildingBlock: NUHQIS_clean_sbu_0, # of connection points: 6
#     Node 27, Type 1, BuildingBlock: NUHQIS_clean_sbu_0, # of connection points: 6
#     Node 28, Type 1, BuildingBlock: NUHQIS_clean_sbu_0, # of connection points: 6
#     Node 29, Type 1, BuildingBlock: NUHQIS_clean_sbu_0, # of connection points: 6
#     Node 30, Type 1, BuildingBlock: NUHQIS_clean_sbu_0, # of connection points: 6
#     Node 31, Type 1, BuildingBlock: NUHQIS_clean_sbu_0, # of connection points: 6
#     Node 32, Type 1, BuildingBlock: NUHQIS_clean_sbu_0, # of connection points: 6
#     Node 33, Type 1, BuildingBlock: NUHQIS_clean_sbu_0, # of connection points: 6
#     Node 34, Type 1, BuildingBlock: NUHQIS_clean_sbu_0, # of connection points: 6
#     Node 35, Type 1, BuildingBlock: NUHQIS_clean_sbu_0, # of connection points: 6
#     Node 36, Type 1, BuildingBlock: NUHQIS_clean_sbu_0, # of connection points: 6
#     Node 37, Type 1, BuildingBlock: NUHQIS_clean_sbu_0, # of connection points: 6
#     Node 38, Type 1, BuildingBlock: NUHQIS_clean_sbu_0, # of connection points: 6
#     Node 39, Type 1, BuildingBlock: NUHQIS_clean_sbu_0, # of connection points: 6
#     Edge 40, Type (0, 1), BuildingBlock: CIFDUS_clean_linker_0, # of connection points: 2
#     Edge 41, Type (0, 1), BuildingBlock: CIFDUS_clean_linker_0, # of connection points: 2
#     Edge 42, Type (0, 1), BuildingBlock: CIFDUS_clean_linker_0, # of connection points: 2
#     Edge 43, Type (0, 1), BuildingBlock: CIFDUS_clean_linker_0, # of connection points: 2
#     Edge 44, Type (0, 1), BuildingBlock: CIFDUS_clean_linker_0, # of connection points: 2
#     Edge 45, Type (0, 1), BuildingBlock: CIFDUS_clean_linker_0, # of connection points: 2
#     Edge 46, Type (0, 1), BuildingBlock: CIFDUS_clean_linker_0, # of connection points: 2
#     Edge 47, Type (0, 1), BuildingBlock: CIFDUS_clean_linker_0, # of connection points: 2
#     Edge 48, Type (0, 1), BuildingBlock: CIFDUS_clean_linker_0, # of connection points: 2
#     Edge 49, Type (0, 1), BuildingBlock: CIFDUS_clean_linker_0, # of connection points: 2
#     Edge 50, Type (0, 1), BuildingBlock: CIFDUS_clean_linker_0, # of connection points: 2
#     Edge 51, Type (0, 1), BuildingBlock: CIFDUS_clean_linker_0, # of connection points: 2
#     Edge 52, Type (0, 1), BuildingBlock: CIFDUS_clean_linker_0, # of connection points: 2
#     Edge 53, Type (0, 1), BuildingBlock: CIFDUS_clean_linker_0, # of connection points: 2
#     Edge 54, Type (0, 1), BuildingBlock: CIFDUS_clean_linker_0, # of connection points: 2
#     Edge 55, Type (0, 1), BuildingBlock: CIFDUS_clean_linker_0, # of connection points: 2
#     Edge 56, Type (0, 1), BuildingBlock: CIFDUS_clean_linker_0, # of connection points: 2
#     Edge 57, Type (0, 1), BuildingBlock: CIFDUS_clean_linker_0, # of connection points: 2
#     Edge 58, Type (0, 1), BuildingBlock: CIFDUS_clean_linker_0, # of connection points: 2
#     Edge 59, Type (0, 1), BuildingBlock: CIFDUS_clean_linker_0, # of connection points: 2
#     Edge 60, Type (0, 1), BuildingBlock: CIFDUS_clean_linker_0, # of connection points: 2
#     Edge 61, Type (0, 1), BuildingBlock: CIFDUS_clean_linker_0, # of connection points: 2
#     Edge 62, Type (0, 1), BuildingBlock: CIFDUS_clean_linker_0, # of connection points: 2
#     Edge 63, Type (0, 1), BuildingBlock: CIFDUS_clean_linker_0, # of connection points: 2
#     Edge 64, Type (0, 1), BuildingBlock: CIFDUS_clean_linker_0, # of connection points: 2
#     Edge 65, Type (0, 1), BuildingBlock: CIFDUS_clean_linker_0, # of connection points: 2
#     Edge 66, Type (0, 1), BuildingBlock: CIFDUS_clean_linker_0, # of connection points: 2
#     Edge 67, Type (0, 1), BuildingBlock: CIFDUS_clean_linker_0, # of connection points: 2
#     Edge 68, Type (0, 1), BuildingBlock: CIFDUS_clean_linker_0, # of connection points: 2
#     Edge 69, Type (0, 1), BuildingBlock: CIFDUS_clean_linker_0, # of connection points: 2
#     Edge 70, Type (0, 1), BuildingBlock: CIFDUS_clean_linker_0, # of connection points: 2
#     Edge 71, Type (0, 1), BuildingBlock: CIFDUS_clean_linker_0, # of connection points: 2
#     Edge 72, Type (0, 1), BuildingBlock: CIFDUS_clean_linker_0, # of connection points: 2
#     Edge 73, Type (0, 1), BuildingBlock: CIFDUS_clean_linker_0, # of connection points: 2
#     Edge 74, Type (0, 1), BuildingBlock: CIFDUS_clean_linker_0, # of connection points: 2
#     Edge 75, Type (0, 1), BuildingBlock: CIFDUS_clean_linker_0, # of connection points: 2
#     Edge 76, Type (0, 1), BuildingBlock: CIFDUS_clean_linker_0, # of connection points: 2
#     Edge 77, Type (0, 1), BuildingBlock: CIFDUS_clean_linker_0, # of connection points: 2
#     Edge 78, Type (0, 1), BuildingBlock: CIFDUS_clean_linker_0, # of connection points: 2
#     Edge 79, Type (0, 1), BuildingBlock: CIFDUS_clean_linker_0, # of connection points: 2
#     Edge 80, Type (0, 1), BuildingBlock: CIFDUS_clean_linker_0, # of connection points: 2
#     Edge 81, Type (0, 1), BuildingBlock: CIFDUS_clean_linker_0, # of connection points: 2
#     Edge 82, Type (0, 1), BuildingBlock: CIFDUS_clean_linker_0, # of connection points: 2
#     Edge 83, Type (0, 1), BuildingBlock: CIFDUS_clean_linker_0, # of connection points: 2
#     Edge 84, Type (0, 1), BuildingBlock: CIFDUS_clean_linker_0, # of connection points: 2
#     Edge 85, Type (0, 1), BuildingBlock: CIFDUS_clean_linker_0, # of connection points: 2
#     Edge 86, Type (0, 1), BuildingBlock: CIFDUS_clean_linker_0, # of connection points: 2
#     Edge 87, Type (0, 1), BuildingBlock: CIFDUS_clean_linker_0, # of connection points: 2
#     Edge 88, Type (0, 1), BuildingBlock: CIFDUS_clean_linker_0, # of connection points: 2
#     Edge 89, Type (0, 1), BuildingBlock: CIFDUS_clean_linker_0, # of connection points: 2
#     Edge 90, Type (0, 1), BuildingBlock: CIFDUS_clean_linker_0, # of connection points: 2
#     Edge 91, Type (0, 1), BuildingBlock: CIFDUS_clean_linker_0, # of connection points: 2
#     Edge 92, Type (0, 1), BuildingBlock: CIFDUS_clean_linker_0, # of connection points: 2
#     Edge 93, Type (0, 1), BuildingBlock: CIFDUS_clean_linker_0, # of connection points: 2
#     Edge 94, Type (0, 1), BuildingBlock: CIFDUS_clean_linker_0, # of connection points: 2
#     Edge 95, Type (0, 1), BuildingBlock: CIFDUS_clean_linker_0, # of connection points: 2
#     Edge 96, Type (0, 1), BuildingBlock: CIFDUS_clean_linker_0, # of connection points: 2
#     Edge 97, Type (0, 1), BuildingBlock: CIFDUS_clean_linker_0, # of connection points: 2
#     Edge 98, Type (0, 1), BuildingBlock: CIFDUS_clean_linker_0, # of connection points: 2
#     Edge 99, Type (0, 1), BuildingBlock: CIFDUS_clean_linker_0, # of connection points: 2
#     Edge 100, Type (0, 1), BuildingBlock: CIFDUS_clean_linker_0, # of connection points: 2
#     Edge 101, Type (0, 1), BuildingBlock: CIFDUS_clean_linker_0, # of connection points: 2
#     Edge 102, Type (0, 1), BuildingBlock: CIFDUS_clean_linker_0, # of connection points: 2
#     Edge 103, Type (0, 1), BuildingBlock: CIFDUS_clean_linker_0, # of connection points: 2
#     Edge 104, Type (0, 1), BuildingBlock: CIFDUS_clean_linker_0, # of connection points: 2
#     Edge 105, Type (0, 1), BuildingBlock: CIFDUS_clean_linker_0, # of connection points: 2
#     Edge 106, Type (0, 1), BuildingBlock: CIFDUS_clean_linker_0, # of connection points: 2
#     Edge 107, Type (0, 1), BuildingBlock: CIFDUS_clean_linker_0, # of connection points: 2
#     Edge 108, Type (0, 1), BuildingBlock: CIFDUS_clean_linker_0, # of connection points: 2
#     Edge 109, Type (0, 1), BuildingBlock: CIFDUS_clean_linker_0, # of connection points: 2
#     Edge 110, Type (0, 1), BuildingBlock: CIFDUS_clean_linker_0, # of connection points: 2
#     Edge 111, Type (0, 1), BuildingBlock: CIFDUS_clean_linker_0, # of connection points: 2
#     Edge 112, Type (0, 1), BuildingBlock: CIFDUS_clean_linker_0, # of connection points: 2
#     Edge 113, Type (0, 1), BuildingBlock: CIFDUS_clean_linker_0, # of connection points: 2
#     Edge 114, Type (0, 1), BuildingBlock: CIFDUS_clean_linker_0, # of connection points: 2
#     Edge 115, Type (0, 1), BuildingBlock: CIFDUS_clean_linker_0, # of connection points: 2
#     Edge 116, Type (0, 1), BuildingBlock: CIFDUS_clean_linker_0, # of connection points: 2
#     Edge 117, Type (0, 1), BuildingBlock: CIFDUS_clean_linker_0, # of connection points: 2
#     Edge 118, Type (0, 1), BuildingBlock: CIFDUS_clean_linker_0, # of connection points: 2
#     Edge 119, Type (0, 1), BuildingBlock: CIFDUS_clean_linker_0, # of connection points: 2
#     Edge 120, Type (0, 1), BuildingBlock: CIFDUS_clean_linker_0, # of connection points: 2
#     Edge 121, Type (0, 1), BuildingBlock: CIFDUS_clean_linker_0, # of connection points: 2
#     Edge 122, Type (0, 1), BuildingBlock: CIFDUS_clean_linker_0, # of connection points: 2
#     Edge 123, Type (0, 1), BuildingBlock: CIFDUS_clean_linker_0, # of connection points: 2
#     Edge 124, Type (0, 1), BuildingBlock: CIFDUS_clean_linker_0, # of connection points: 2
#     Edge 125, Type (0, 1), BuildingBlock: CIFDUS_clean_linker_0, # of connection points: 2
#     Edge 126, Type (0, 1), BuildingBlock: CIFDUS_clean_linker_0, # of connection points: 2
#     Edge 127, Type (0, 1), BuildingBlock: CIFDUS_clean_linker_0, # of connection points: 2
#     Edge 128, Type (0, 1), BuildingBlock: CIFDUS_clean_linker_0, # of connection points: 2
#     Edge 129, Type (0, 1), BuildingBlock: CIFDUS_clean_linker_0, # of connection points: 2
#     Edge 130, Type (0, 1), BuildingBlock: CIFDUS_clean_linker_0, # of connection points: 2
#     Edge 131, Type (0, 1), BuildingBlock: CIFDUS_clean_linker_0, # of connection points: 2
#     Edge 132, Type (0, 1), BuildingBlock: CIFDUS_clean_linker_0, # of connection points: 2
#     Edge 133, Type (0, 1), BuildingBlock: CIFDUS_clean_linker_0, # of connection points: 2
#     Edge 134, Type (0, 1), BuildingBlock: CIFDUS_clean_linker_0, # of connection points: 2
#     Edge 135, Type (0, 1), BuildingBlock: CIFDUS_clean_linker_0, # of connection points: 2
# Relax obj value: 0.249
# Max RMSD: 0.334
# Mean RMSD: 0.142
data_MOF--net-gar--node1-CEKHIL_clean_sbu_0--node2-NUHQIS_clean_sbu_0--edge1-CIFDUS_clean_linker_0
_symmetry_space_group_name_H-M    P1
_symmetry_Int_Tables_number       1
_symmetry_cell_setting            triclinic
loop_
_symmetry_equiv_pos_as_xyz
'x, y, z'
_cell_length_a     50.054841
_cell_length_b     52.170372
_cell_length_c     48.62629
_cell_angle_alpha  92.787658
_cell_angle_beta   96.266197
_cell_angle_gamma 100.21815
loop_
_atom_site_label
_atom_site_type_symbol
_atom_site_fract_x
_atom_site_fract_y
_atom_site_fract_z
_atom_type_partial_charge
Co0 Co 0.12025 0.32318 0.43425 0.0
O1 O 0.16191 0.32879 0.43945 0.0
O2 O 0.13881 0.31423 0.40053 0.0
C3 C 0.11571 0.36597 0.45644 0.0
O4 O 0.07863 0.31725 0.41491 0.0
Co5 Co 0.08117 0.3192 0.47522 0.0
O6 O 0.05207 0.32633 0.44658 0.0
C7 C 0.10487 0.27116 0.46858 0.0
C8 C 0.16318 0.32133 0.41372 0.0
C9 C 0.05504 0.3219 0.42127 0.0
O10 O 0.11688 0.28316 0.44836 0.0
O11 O 0.0904 0.28354 0.48271 0.0
O12 O 0.12192 0.36274 0.43135 0.0
O13 O 0.11405 0.34386 0.46817 0.0
Co14 Co 0.08651 0.8285 0.67031 0.0
O15 O 1.04468 0.82489 0.66812 0.0
O16 O 0.06962 0.82046 0.7055 0.0
C17 C 0.09494 0.8703 0.64724 0.0
O18 O 0.1282 0.83225 0.68813 0.0
Co19 Co 0.12314 0.82784 0.62794 0.0
O20 O 0.15617 0.83061 0.65579 0.0
C21 C 0.09444 0.77521 0.6366 0.0
C22 C 1.04505 0.82119 0.69448 0.0
C23 C 0.15273 0.83209 0.68127 0.0
O24 O 0.08461 0.7872 0.65705 0.0
O25 O 0.10921 0.78904 0.62095 0.0
O26 O 0.09012 0.86846 0.67288 0.0
O27 O 0.09354 0.84695 0.63549 0.0
Co28 Co 0.62004 0.8198 0.92803 0.0
O29 O 0.66189 0.82566 0.92961 0.0
O30 O 0.6352 0.80831 0.89361 0.0
C31 C 0.61553 0.86375 0.94689 0.0
O32 O 0.57817 0.81295 0.911 0.0
Co33 Co 0.58473 0.81667 0.97098 0.0
O34 O 0.55383 0.82324 0.94403 0.0
C35 C 0.60609 0.76796 0.96347 0.0
C36 C 0.66043 0.81614 0.90408 0.0
C37 C 0.55531 0.81806 0.91851 0.0
O38 O 0.6176 0.78049 0.94334 0.0
O39 O 0.59214 0.78012 0.97843 0.0
O40 O 0.62054 0.85812 0.92184 0.0
O41 O 0.61554 0.84321 0.96141 0.0
Co42 Co 0.58347 0.32437 0.16855 0.0
O43 O 0.54155 0.32174 0.16677 0.0
O44 O 0.56599 0.31511 0.20338 0.0
C45 C 0.59274 0.36808 0.14876 0.0
O46 O 0.62496 0.32707 0.18734 0.0
Co47 Co 0.62008 0.32465 0.12892 0.0
O48 O 0.65362 0.32688 0.15573 0.0
C49 C 0.59256 0.27135 0.13448 0.0
C50 C 0.54161 0.317 0.19285 0.0
C51 C 0.6498 0.32746 0.18105 0.0
O52 O 0.58031 0.28324 0.15308 0.0
O53 O 0.60986 0.28543 0.12149 0.0
O54 O 0.58799 0.36385 0.17403 0.0
O55 O 0.59113 0.34571 0.13463 0.0
Co56 Co 0.13245 0.88051 0.18843 0.0
O57 O 0.09425 0.86625 0.18577 0.0
O58 O 0.12473 0.86422 0.22203 0.0
C59 C 0.12702 0.91848 0.17196 0.0
O60 O 0.17285 0.89295 0.1989 0.0
Co61 Co 0.16112 0.89508 0.13664 0.0
O62 O 0.19486 0.90654 0.16299 0.0
C63 C 0.14611 0.84001 0.14837 0.0
C64 C 0.09954 0.85849 0.21041 0.0
C65 C 0.19474 0.90226 0.18855 0.0
O66 O 0.13962 0.84708 0.17198 0.0
O67 O 0.15273 0.85593 0.12996 0.0
O68 O 0.12555 0.91504 0.1981 0.0
O69 O 0.13021 0.89865 0.15655 0.0
Co70 Co 0.57351 0.76206 0.39097 0.0
O71 O 0.611 0.76358 0.38586 0.0
O72 O 0.5755 0.74283 0.3567 0.0
C73 C 0.57632 0.80444 0.40316 0.0
O74 O 0.5323 0.75708 0.38899 0.0
Co75 Co 0.55704 0.77588 0.44924 0.0
O76 O 0.52211 0.77818 0.42688 0.0
C77 C 0.58196 0.73015 0.43842 0.0
C78 C 0.60183 0.74957 0.36286 0.0
C79 C 0.51562 0.76712 0.40254 0.0
O80 O 0.57489 0.73054 0.41232 0.0
O81 O 0.57908 0.74797 0.45628 0.0
O82 O 0.57406 0.79666 0.37705 0.0
O83 O 0.57957 0.78702 0.42051 0.0
Co84 Co 0.64425 0.3971 0.68598 0.0
O85 O 0.60597 0.38249 0.68233 0.0
O86 O 0.63618 0.37881 0.71825 0.0
C87 C 0.6379 0.43564 0.67178 0.0
O88 O 0.68443 0.40949 0.69789 0.0
Co89 Co 0.67563 0.41701 0.63769 0.0
O90 O 0.70816 0.42831 0.66546 0.0
C91 C 0.65793 0.3605 0.64249 0.0
C92 C 0.61104 0.37369 0.70653 0.0
C93 C 0.70674 0.42122 0.69 0.0
O94 O 0.65137 0.36489 0.66682 0.0
O95 O 0.66628 0.3785 0.62679 0.0
O96 O 0.6366 0.43084 0.69766 0.0
O97 O 0.64268 0.41711 0.65553 0.0
Co98 Co 0.05466 0.2643 0.91065 0.0
O99 O 0.09348 0.26767 0.9124 0.0
O100 O 0.06314 0.23914 0.8843 0.0
C101 C 0.05316 0.30674 0.90973 0.0
O102 O 1.01361 0.25592 0.90183 0.0
Co103 Co 1.02754 0.28833 0.95811 0.0
O104 O 0.99578 0.28299 0.92903 0.0
C105 C 0.05112 0.24132 0.96621 0.0
C106 C 0.08857 0.24928 0.89252 0.0
C107 C 0.99382 0.26664 0.90829 0.0
O108 O 0.05437 0.23936 0.94042 0.0
O109 O 1.04219 0.26011 0.9778 0.0
O110 O 0.05531 0.2934 0.88706 0.0
O111 O 0.05468 0.2947 0.93231 0.0
Co112 Co 0.52748 0.13489 0.33418 0.0
O113 O 0.51757 0.16441 0.31551 0.0
O114 O 0.499 0.12286 0.30446 0.0
C115 C 0.52896 0.14969 0.37859 0.0
O116 O 0.53008 0.09939 0.3477 0.0
Co117 Co 0.58093 0.13588 0.37356 0.0
O118 O 0.56358 0.10018 0.38254 0.0
C119 C 0.58211 0.13435 0.31321 0.0
C120 C 0.49977 0.14717 0.29958 0.0
C121 C 0.54284 0.08818 0.3665 0.0
O122 O 0.55593 0.13142 0.30903 0.0
O123 O 0.59608 0.13859 0.33713 0.0
O124 O 0.50552 0.14068 0.36391 0.0
O125 O 0.54982 0.15295 0.36486 0.0
Co126 Co 0.38039 0.18966 0.54512 0.0
O127 O 0.42202 0.19309 0.54664 0.0
O128 O 0.39611 0.15801 0.55565 0.0
C129 C 0.37359 0.20799 0.50015 0.0
O130 O 0.33808 0.17232 0.54478 0.0
Co131 Co 0.34395 0.22882 0.54219 0.0
O132 O 0.3106 0.20167 0.54267 0.0
C133 C 0.37205 0.22452 0.59815 0.0
C134 C 0.42091 0.1689 0.55273 0.0
C135 C 0.31361 0.17811 0.54442 0.0
O136 O 0.3825 0.20531 0.58733 0.0
O137 O 0.35741 0.23706 0.5826 0.0
O138 O 0.37694 0.18409 0.50328 0.0
O139 O 0.3749 0.22072 0.52401 0.0
Co140 Co 0.25948 0.10216 0.88671 0.0
O141 O 0.26755 0.06778 0.88526 0.0
O142 O 0.29751 0.10406 0.8816 0.0
C143 C 0.23561 0.09519 0.92281 0.0
O144 O 0.2584 0.14083 0.88785 0.0
Co145 Co 0.19954 0.11183 0.87961 0.0
O146 O 0.21583 0.14954 0.88491 0.0
C147 C 0.22477 0.09276 0.83234 0.0
C148 C 0.29227 0.07877 0.8822 0.0
C149 C 0.24166 0.15695 0.88685 0.0
O150 O 0.24882 0.09934 0.84561 0.0
O151 O 0.20276 0.09297 0.84346 0.0
O152 O 0.26208 0.10224 0.92726 0.0
O153 O 0.22509 0.0923 0.8973 0.0
Co154 Co 0.36077 0.9189 0.05539 0.0
O155 O 0.32123 0.9136 0.05524 0.0
O156 O 0.35053 0.9502 0.06888 0.0
C157 C 0.3607 0.89986 1.01235 0.0
O158 O 0.40087 0.93459 0.05792 0.0
Co159 Co 0.39685 0.87833 0.05358 0.0
O160 O 0.42951 0.90669 0.05509 0.0
C161 C 0.3743 0.88848 0.10552 0.0
C162 C 0.32547 0.93786 0.06511 0.0
C163 C 0.42508 0.92986 0.05773 0.0
O164 O 0.36508 0.90761 0.09453 0.0
O165 O 0.3861 0.87307 0.09192 0.0
O166 O 0.35682 0.92372 1.01589 0.0
O167 O 0.36327 0.88748 0.03478 0.0
Co168 Co 0.3251 0.44479 0.05056 0.0
O169 O 0.28327 0.44105 0.04604 0.0
O170 O 0.31015 0.47699 0.06042 0.0
C171 C 0.32964 0.4225 1.00701 0.0
O172 O 0.36756 0.46227 0.05529 0.0
Co173 Co 0.36229 0.40425 0.05239 0.0
O174 O 0.39306 0.43252 0.04587 0.0
C175 C 0.33548 0.41136 0.1032 0.0
C176 C 0.2849 0.46568 0.05362 0.0
C177 C 0.39109 0.4563 0.05056 0.0
O178 O 0.32675 0.43167 0.09228 0.0
O179 O 0.34832 0.39719 0.08915 0.0
O180 O 0.32452 0.44614 1.00857 0.0
O181 O 0.3302 0.41282 0.03098 0.0
Co182 Co 0.83189 0.22587 0.03707 0.0
O183 O 0.87153 0.23128 0.03803 0.0
O184 O 0.84447 0.19491 0.047 0.0
C185 C 0.82376 0.24442 0.9964 0.0
O186 O 0.79229 0.20984 0.03701 0.0
Co187 Co 0.7947 0.26581 0.03799 0.0
O188 O 0.76263 0.23654 0.02929 0.0
C189 C 0.8286 0.25831 0.08975 0.0
C190 C 0.86888 0.20714 0.04477 0.0
C191 C 0.7678 0.21383 0.03269 0.0
O192 O 0.83512 0.23819 0.07765 0.0
O193 O 0.81449 0.27323 0.07687 0.0
O194 O 0.82784 0.22049 0.99664 0.0
O195 O 0.82557 0.25678 1.02049 0.0
Co196 Co 0.171 0.50675 0.23703 0.0
O197 O 0.18737 0.47972 0.25342 0.0
O198 O 0.2053 0.50607 0.22289 0.0
C199 C 0.16005 0.52366 0.27654 0.0
O200 O 0.16181 0.53781 0.21725 0.0
Co201 Co 0.11045 0.51219 0.23917 0.0
O202 O 0.1253 0.54954 0.23371 0.0
C203 C 0.12446 0.47411 0.19834 0.0
C204 C 0.20786 0.48796 0.23986 0.0
C205 C 0.14675 0.55475 0.22159 0.0
O206 O 0.15025 0.48242 0.20541 0.0
O207 O 0.10597 0.48154 0.21144 0.0
O208 O 0.18489 0.5296 0.27035 0.0
O209 O 0.14362 0.5062 0.26009 0.0
Co210 Co 0.82488 0.94424 0.5475 0.0
O211 O 0.78338 0.93721 0.54304 0.0
O212 O 0.80688 0.97525 0.5559 0.0
C213 C 0.83056 0.92201 0.50436 0.0
O214 O 0.86692 0.96335 0.55214 0.0
Co215 Co 0.8635 0.90489 0.55109 0.0
O216 O 0.89366 0.93401 0.54515 0.0
C217 C 0.83556 0.91194 0.60089 0.0
C218 C 0.78247 0.96158 0.54941 0.0
C219 C 0.89093 0.95774 0.54863 0.0
O220 O 0.82709 0.93214 0.58951 0.0
O221 O 0.84844 0.89742 0.58735 0.0
O222 O 0.82405 0.94509 0.50554 0.0
O223 O 0.83164 0.91261 0.52851 0.0
Co224 Co 0.95713 0.05995 0.24796 0.0
O225 O 0.9565 0.09657 0.25305 0.0
O226 O 0.92037 0.06556 0.23909 0.0
C227 C 0.9839 0.05754 0.28732 0.0
O228 O 0.94904 1.02041 0.2415 0.0
Co229 Co 1.01032 0.03758 0.24346 0.0
O230 O 0.98723 1.00322 0.24682 0.0
C231 C 0.99025 0.07284 0.2036 0.0
C232 C 0.93038 0.09015 0.24518 0.0
C233 C 0.96129 1.00076 0.2437 0.0
O234 O 0.96569 0.06553 0.20921 0.0
O235 O 1.01091 0.06578 0.21695 0.0
O236 O 0.95779 0.05656 0.288 0.0
O237 O 0.99268 0.06138 0.26375 0.0
Co238 Co 0.32464 0.72815 0.5378 0.0
O239 O 0.36381 0.73013 0.53874 0.0
O240 O 0.33372 0.69511 0.5458 0.0
C241 C 0.3191 0.74888 0.49837 0.0
O242 O 0.28408 0.7159 0.53669 0.0
Co243 Co 0.29356 0.77315 0.54114 0.0
O244 O 0.25926 0.74701 0.53003 0.0
C245 C 0.3255 0.7602 0.59164 0.0
C246 C 0.35882 0.7055 0.54362 0.0
C247 C 0.261 0.7231 0.53183 0.0
O248 O 0.32864 0.739 0.57875 0.0
O249 O 0.31423 0.77758 0.57965 0.0
O250 O 0.32062 0.72425 0.49743 0.0
O251 O 0.32221 0.76062 0.52291 0.0
Co252 Co 0.44443 0.55913 0.73863 0.0
O253 O 0.44482 0.59579 0.74533 0.0
O254 O 0.40797 0.56585 0.73061 0.0
C255 C 0.47104 0.55485 0.77766 0.0
O256 O 0.43519 0.5197 0.73074 0.0
Co257 Co 0.49692 0.53615 0.73238 0.0
O258 O 0.47308 0.50202 0.73489 0.0
C259 C 0.47747 0.57307 0.69426 0.0
C260 C 0.41862 0.59013 0.73775 0.0
C261 C 0.44717 0.49983 0.73224 0.0
O262 O 0.45292 0.56593 0.69999 0.0
O263 O 0.49801 0.56524 0.70693 0.0
O264 O 0.44502 0.55435 0.77839 0.0
O265 O 0.47995 0.55938 0.75423 0.0
Co266 Co 0.64803 0.9965 0.79261 0.0
O267 O 0.65762 0.96428 0.80521 0.0
O268 O 0.68574 0.99677 0.78971 0.0
C269 C 0.62518 1.0068 0.82721 0.0
O270 O 0.64778 0.03238 0.77948 0.0
Co271 Co 0.58894 1.00647 0.77768 0.0
O272 O 0.60656 0.04389 0.77627 0.0
C273 C 0.61436 0.97725 0.73745 0.0
C274 C 0.68231 0.97436 0.80051 0.0
C275 C 0.63228 0.0492 0.77528 0.0
O276 O 0.63728 0.9814 0.75331 0.0
O277 O 0.59217 0.98258 0.7451 0.0
O278 O 0.65174 1.01124 0.83058 0.0
O279 O 0.61351 0.99334 0.80479 0.0
Co280 Co 0.87919 0.6901 0.0412 0.0
O281 O 0.92089 0.69366 0.04336 0.0
O282 O 0.89456 0.6577 0.04907 0.0
C283 C 0.87361 0.71244 0.99839 0.0
O284 O 0.83683 0.67236 0.0395 0.0
Co285 Co 0.84185 0.72921 0.04026 0.0
O286 O 0.80895 0.70135 0.03983 0.0
C287 C 0.87089 0.72324 0.09548 0.0
C288 C 0.91949 0.66892 0.04724 0.0
C289 C 0.81228 0.67777 0.03997 0.0
O290 O 0.88041 0.70354 0.08423 0.0
O291 O 0.85699 0.73666 0.08023 0.0
O292 O 0.87702 0.68828 0.99877 0.0
O293 O 0.87383 0.7224 1.02334 0.0
Co294 Co 1.03949 0.61503 0.8402 0.0
O295 O 1.03556 0.64143 0.81414 0.0
O296 O 1.00167 0.61279 0.82687 0.0
C297 C 0.06909 0.63998 0.87353 0.0
O298 O 1.03382 0.58591 0.86609 0.0
Co299 Co 0.09371 0.59634 0.85946 0.0
O300 O 0.07221 0.57254 0.88292 0.0
C301 C 0.06169 0.57545 0.80564 0.0
C302 C 1.00943 0.63211 0.81202 0.0
C303 C 1.04646 0.57126 0.88115 0.0
O304 O 1.04318 0.58907 0.80943 0.0
O305 O 0.0836 0.57682 0.82231 0.0
O306 O 1.04311 0.6408 0.87161 0.0
O307 O 0.07646 0.62649 0.85371 0.0
Co308 Co 0.85884 0.4285 0.55522 0.0
O309 O 0.82047 0.42909 0.55763 0.0
O310 O 0.85522 0.4608 0.57339 0.0
C311 C 0.85478 0.41322 0.51013 0.0
O312 O 0.89988 0.43762 0.55608 0.0
Co313 Co 0.88361 0.38024 0.54624 0.0
O314 O 0.9191 0.40389 0.54417 0.0
C315 C 0.86766 0.39165 0.60127 0.0
C316 C 0.82909 0.45215 0.57032 0.0
C317 C 0.92078 0.42806 0.5508 0.0
O318 O 0.86207 0.41316 0.59254 0.0
O319 O 0.8752 0.37464 0.58543 0.0
O320 O 0.85512 0.43767 0.51704 0.0
O321 O 0.85454 0.39796 0.53051 0.0
Co322 Co 0.76388 0.59793 0.39401 0.0
O323 O 0.76853 0.56243 0.39668 0.0
O324 O 0.8016 0.59567 0.39149 0.0
C325 C 0.73839 0.59855 0.42893 0.0
O326 O 0.76682 0.63701 0.39112 0.0
Co327 Co 0.70572 0.61174 0.38066 0.0
O328 O 0.72549 0.64839 0.38246 0.0
C329 C 0.73147 0.58617 0.33806 0.0
C330 C 0.79409 0.57081 0.39414 0.0
C331 C 0.75151 0.65411 0.38648 0.0
O332 O 0.75501 0.59204 0.35258 0.0
O333 O 0.70912 0.58912 0.3472 0.0
O334 O 0.76484 0.60207 0.43449 0.0
O335 O 0.72859 0.59295 0.40339 0.0
Tb336 Tb 0.06511 0.06219 0.03518 0.0
Eu337 Eu 0.1262 0.08447 0.0704 0.0
C338 C 0.11873 0.05088 1.01499 0.0
C339 C 0.08963 1.03034 0.07982 0.0
C340 C 0.99661 0.06724 1.01171 0.0
C341 C 0.9731 0.10004 0.99126 0.0
C342 C 0.98746 0.07952 0.98835 0.0
C343 C 0.98978 0.07489 0.03774 0.0
C344 C 0.97606 0.09567 0.04074 0.0
C345 C 0.96795 0.10893 1.01766 0.0
C346 C 1.01778 0.05093 1.01001 0.0
O347 O 0.05893 0.08024 0.07472 0.0
O348 O 0.09943 0.1089 0.08909 0.0
O349 O 0.12022 0.11161 0.0368 0.0
O350 O 0.07336 0.10385 0.03311 0.0
C351 C 0.07313 0.10087 0.08989 0.0
O352 O 0.15494 0.08989 0.10823 0.0
O353 O 0.16953 0.0993 0.06889 0.0
O354 O 0.12779 0.05067 0.04113 0.0
O355 O 0.09567 0.0587 1.00773 0.0
O356 O 0.07785 1.02898 0.0542 0.0
O357 O 0.10313 0.05244 0.09216 0.0
C358 C 0.09665 0.11837 0.0294 0.0
O359 O 1.03884 0.06158 0.99825 0.0
O360 O 1.02529 0.04032 0.03272 0.0
C361 C 0.19597 0.07703 0.09837 0.0
C362 C 0.23292 0.04204 0.09829 0.0
C363 C 0.20518 0.0329 0.10071 0.0
C364 C 0.18686 0.05022 0.1006 0.0
C365 C 0.22364 0.0863 0.09636 0.0
C366 C 0.24197 0.06897 0.09632 0.0
C367 C 0.17618 0.09465 0.09461 0.0
H368 H 0.96653 0.10921 0.97285 0.0
H369 H 0.99255 0.07409 0.96805 0.0
H370 H 0.99642 0.06583 0.0562 0.0
H371 H 0.97293 0.10195 0.06148 0.0
H372 H 0.19759 1.01236 0.10251 0.0
H373 H 0.16542 0.04254 0.10161 0.0
H374 H 0.23092 0.10681 0.09399 0.0
H375 H 0.2631 0.07661 0.0939 0.0
Tb376 Tb 0.35021 0.8529 0.32028 0.0
Eu377 Eu 0.32986 0.7951 0.28642 0.0
C378 C 0.29431 0.84025 0.28694 0.0
C379 C 0.31936 0.80427 0.34853 0.0
C380 C 0.39263 0.91612 0.34807 0.0
C381 C 0.4208 0.95673 0.3683 0.0
C382 C 0.39689 0.938 0.36693 0.0
C383 C 0.4128 0.9127 0.33106 0.0
C384 C 0.43668 0.93143 0.33236 0.0
C385 C 0.44078 0.95382 0.35075 0.0
C386 C 0.36738 0.89673 0.34656 0.0
O387 O 0.38688 0.83742 0.31639 0.0
O388 O 0.36852 0.7938 0.31425 0.0
O389 O 0.36218 0.81718 0.26377 0.0
O390 O 0.35471 0.85801 0.27622 0.0
C391 C 0.38916 0.81328 0.32072 0.0
O392 O 0.32336 0.75252 0.28416 0.0
O393 O 0.31311 0.77254 0.24755 0.0
O394 O 0.3029 0.82297 0.27131 0.0
O395 O 0.30629 0.84741 0.31203 0.0
O396 O 0.33924 0.82477 0.35089 0.0
O397 O 0.30769 0.79364 0.32417 0.0
C398 C 0.3631 0.84178 0.25883 0.0
O399 O 0.35178 0.89348 0.32289 0.0
O400 O 0.3703 0.87452 0.35643 0.0
C401 C 0.28686 0.73102 0.25184 0.0
C402 C 0.23877 0.69306 0.24015 0.0
C403 C 0.2644 0.68699 0.23595 0.0
C404 C 0.28816 0.70581 0.24167 0.0
C405 C 0.26144 0.7374 0.25602 0.0
C406 C 0.23752 0.71853 0.25018 0.0
C407 C 0.31235 0.75009 0.25839 0.0
H408 H 0.42319 0.97393 0.38238 0.0
H409 H 0.38155 0.94078 0.38033 0.0
H410 H 0.40991 0.89568 0.3166 0.0
H411 H 0.4518 0.92857 0.31874 0.0
H412 H 0.26628 0.66744 0.22893 0.0
H413 H 0.30765 0.70055 0.23851 0.0
H414 H 0.26014 0.75686 0.26395 0.0
H415 H 0.21812 0.72385 0.25356 0.0
Tb416 Tb 0.58672 0.04832 0.53849 0.0
Eu417 Eu 0.62817 0.09719 0.57133 0.0
C418 C 0.6098 0.04495 0.60129 0.0
C419 C 0.56183 0.10004 0.55999 0.0
C420 C 0.55367 0.98471 0.50236 0.0
C421 C 0.52962 0.94038 0.49029 0.0
C422 C 0.52972 0.96584 0.50065 0.0
C423 C 0.57766 0.97783 0.49419 0.0
C424 C 0.5774 0.95262 0.4834 0.0
C425 C 0.55335 0.93388 0.48118 0.0
C426 C 0.5532 1.01176 0.5113 0.0
O427 O 0.5996 0.07407 0.50677 0.0
O428 O 0.61307 0.11299 0.53217 0.0
O429 O 0.65608 0.06906 0.55836 0.0
O430 O 0.62641 0.03247 0.53916 0.0
C431 C 0.60368 0.09959 0.50882 0.0
O432 O 0.66696 0.12351 0.5713 0.0
O433 O 0.64394 0.12496 0.60667 0.0
O434 O 0.61764 0.0703 0.6043 0.0
O435 O 0.59875 0.03261 0.57755 0.0
O436 O 0.5578 0.07516 0.55 0.0
O437 O 0.5871 0.11213 0.56927 0.0
C438 C 0.65199 0.04448 0.54815 0.0
O439 O 0.55349 1.01708 0.53782 0.0
O440 O 0.56989 1.02925 0.50023 0.0
C441 C 0.6671 0.16421 0.59276 0.0
C442 C 0.67095 0.21809 0.59075 0.0
C443 C 0.69346 0.20788 0.60223 0.0
C444 C 0.6915 0.18094 0.60329 0.0
C445 C 0.64509 0.17433 0.58005 0.0
C446 C 0.64696 0.20116 0.57916 0.0
C447 C 0.66454 0.13617 0.59445 0.0
H448 H 0.51096 0.92596 0.4888 0.0
H449 H 0.51109 0.9709 0.50693 0.0
H450 H 0.59646 0.99205 0.49563 0.0
H451 H 0.59597 0.94771 0.4768 0.0
H452 H 0.712 0.22073 0.61157 0.0
H453 H 0.70872 0.17322 0.61282 0.0
H454 H 0.62627 0.16149 0.57142 0.0
H455 H 0.62941 0.20876 0.57026 0.0
Tb456 Tb 0.3266 0.32664 0.79226 0.0
Eu457 Eu 0.38359 0.31381 0.81952 0.0
C458 C 0.3815 0.36236 0.7803 0.0
C459 C 0.36217 0.29447 0.75384 0.0
C460 C 0.25336 0.31867 0.78561 0.0
C461 C 0.21837 0.28127 0.7915 0.0
C462 C 0.23704 0.29458 0.77548 0.0
C463 C 0.24887 0.33032 0.81092 0.0
C464 C 0.2299 0.31721 0.82671 0.0
C465 C 0.21527 0.2921 0.8177 0.0
C466 C 0.27836 0.32814 0.77295 0.0
O467 O 0.31678 0.29874 0.82349 0.0
O468 O 0.35299 0.27817 0.82267 0.0
O469 O 0.36499 0.33303 0.85582 0.0
O470 O 0.33438 0.35308 0.83067 0.0
C471 C 0.32867 0.27893 0.82931 0.0
O472 O 0.41377 0.28854 0.82658 0.0
O473 O 0.41892 0.32536 0.85073 0.0
O474 O 0.39574 0.34981 0.79739 0.0
O475 O 0.35475 0.35634 0.77489 0.0
O476 O 0.33936 0.30257 0.75873 0.0
O477 O 0.38315 0.29809 0.77368 0.0
C478 C 0.348 0.34998 0.85486 0.0
O479 O 0.29516 0.34846 0.78538 0.0
O480 O 0.2913 0.30967 0.76618 0.0
C481 C 0.45788 0.31327 0.83512 0.0
C482 C 0.5063 0.32346 0.81042 0.0
C483 C 0.50068 0.30114 0.82532 0.0
C484 C 0.4764 0.29599 0.83754 0.0
C485 C 0.46441 0.33629 0.82157 0.0
C486 C 0.48843 0.34136 0.80941 0.0
C487 C 0.43042 0.30597 0.84335 0.0
H488 H 0.20734 0.26203 0.78389 0.0
H489 H 0.24015 0.28515 0.75603 0.0
H490 H 0.26101 0.34889 0.81931 0.0
H491 H 0.22721 0.32653 0.84636 0.0
H492 H 0.51428 0.28712 0.82624 0.0
H493 H 0.47152 0.27804 0.84775 0.0
H494 H 0.4504 0.34987 0.81932 0.0
H495 H 0.49259 0.35885 0.79826 0.0
Tb496 Tb 0.10781 0.05419 0.5257 0.0
Eu497 Eu 0.09778 0.08357 0.57958 0.0
C498 C 0.15995 0.09313 0.55872 0.0
C499 C 0.10596 1.02007 0.58078 0.0
C500 C 0.12006 0.03784 0.45363 0.0
C501 C 0.11184 1.02354 0.40499 0.0
C502 C 0.11738 1.018 0.43254 0.0
C503 C 0.12167 0.06387 0.44694 0.0
C504 C 0.11576 0.06936 0.41944 0.0
C505 C 0.10865 0.04886 0.39873 0.0
C506 C 0.11279 1.03056 0.48073 0.0
O507 O 0.0655 0.036 0.53282 0.0
O508 O 0.05334 0.06617 0.56186 0.0
O509 O 0.09775 0.11725 0.54996 0.0
O510 O 0.10297 0.09447 0.51028 0.0
C511 C 1.04647 0.04431 0.54593 0.0
O512 O 0.0903 0.08193 0.62276 0.0
O513 O 0.09414 0.11881 0.60415 0.0
O514 O 0.14438 0.09621 0.57857 0.0
O515 O 0.14976 0.07719 0.53676 0.0
O516 O 0.11162 1.02178 0.55473 0.0
O517 O 0.10088 0.04151 0.59372 0.0
C518 C 0.10084 0.11727 0.52329 0.0
O519 O 0.13208 0.03536 0.50157 0.0
O520 O 0.0902 0.03751 0.48674 0.0
C521 C 0.11474 0.11782 0.64992 0.0
C522 C 0.15786 0.12221 0.69256 0.0
C523 C 0.13066 0.11587 0.69831 0.0
C524 C 0.1092 0.1137 0.67708 0.0
C525 C 0.14182 0.12653 0.64461 0.0
C526 C 0.16335 0.12883 0.66593 0.0
C527 C 0.09359 0.10711 0.62713 0.0
H528 H 0.10628 1.0075 0.38921 0.0
H529 H 0.11613 0.99782 0.43751 0.0
H530 H 0.12385 0.07939 0.4631 0.0
H531 H 0.1133 0.089 0.41487 0.0
H532 H 0.12612 0.11097 0.71892 0.0
H533 H 0.08848 0.10676 0.68147 0.0
H534 H 0.14649 0.12965 0.62368 0.0
H535 H 0.18422 0.13379 0.6612 0.0
Tb536 Tb 0.34535 0.80074 0.80986 0.0
Eu537 Eu 0.3656 0.85951 0.79372 0.0
C538 C 0.34374 0.84976 0.85135 0.0
C539 C 0.30162 0.83025 0.77374 0.0
C540 C 0.319 0.73012 0.80571 0.0
C541 C 0.31686 0.68334 0.80277 0.0
C542 C 0.31711 0.70651 0.81851 0.0
C543 C 0.31733 0.72997 0.7767 0.0
C544 C 0.31753 0.70691 0.76101 0.0
C545 C 0.31898 0.68378 0.77422 0.0
C546 C 0.32981 0.75457 0.82248 0.0
O547 O 0.34746 0.79635 0.76543 0.0
O548 O 0.37851 0.83329 0.76165 0.0
O549 O 0.39934 0.85041 0.82575 0.0
O550 O 0.39091 0.80617 0.81881 0.0
C551 C 0.36396 0.81097 0.75094 0.0
O552 O 0.36629 0.89078 0.76538 0.0
O553 O 0.39491 0.89592 0.80265 0.0
O554 O 0.34293 0.8645 0.83032 0.0
O555 O 0.34807 0.82572 0.84811 0.0
O556 O 0.30743 0.80933 0.786 0.0
O557 O 0.32048 0.85162 0.77443 0.0
C558 C 0.40743 0.82794 0.82921 0.0
O559 O 0.35482 0.76448 0.81888 0.0
O560 O 0.31445 0.7723 0.82254 0.0
C561 C 0.3775 0.93231 0.78898 0.0
C562 C 0.3665 0.97958 0.8107 0.0
C563 C 0.39117 0.97904 0.79962 0.0
C564 C 0.3967 0.95541 0.78892 0.0
C565 C 0.35245 0.93304 0.79899 0.0
C566 C 0.34693 0.9565 0.80963 0.0
C567 C 0.38466 0.90711 0.78171 0.0
H568 H 0.31823 0.66575 0.8134 0.0
H569 H 0.31858 0.70635 0.8409 0.0
H570 H 0.31877 0.74807 0.7665 0.0
H571 H 0.31923 0.70766 0.73903 0.0
H572 H 0.40652 0.99661 0.80025 0.0
H573 H 0.41627 0.95501 0.78149 0.0
H574 H 0.3375 0.91531 0.79939 0.0
H575 H 0.32753 0.9565 0.81756 0.0
Tb576 Tb 0.62106 0.06219 0.0673 0.0
Eu577 Eu 0.57722 0.07076 1.01702 0.0
C578 C 0.60433 1.01474 1.01749 0.0
C579 C 0.64036 0.09613 1.01993 0.0
C580 C 0.65177 0.05588 0.13746 0.0
C581 C 0.66594 0.07465 0.18446 0.0
C582 C 0.67165 0.07074 0.15726 0.0
C583 C 0.62691 0.04343 0.14555 0.0
C584 C 0.62123 0.04729 0.17262 0.0
C585 C 0.64024 0.06377 0.19204 0.0
C586 C 0.6551 0.05678 0.10797 0.0
O587 O 0.61333 0.10276 0.07933 0.0
O588 O 0.57739 0.10727 0.04774 0.0
O589 O 0.55234 0.04456 0.04249 0.0
O590 O 0.5823 0.04517 0.08199 0.0
C591 C 0.59489 0.11697 0.06999 0.0
O592 O 0.54174 0.08721 1.00082 0.0
O593 O 0.56137 0.06446 0.97348 0.0
O594 O 0.58916 1.02982 1.00359 0.0
O595 O 0.61762 1.02424 0.04207 0.0
O596 O 0.64539 0.07702 0.03506 0.0
O597 O 0.61532 0.0989 1.0124 0.0
C598 C 0.55808 0.03779 0.06758 0.0
O599 O 0.64082 0.03748 0.09182 0.0
O600 O 0.6534 0.07905 0.09772 0.0
C601 C 0.54549 0.09991 0.95515 0.0
C602 C 0.56083 0.11259 0.90373 0.0
C603 C 0.5329 0.10465 0.90657 0.0
C604 C 0.52541 0.09713 0.93227 0.0
C605 C 0.57106 0.11559 0.95367 0.0
C606 C 0.57879 0.12207 0.92783 0.0
C607 C 0.54363 0.07985 0.97524 0.0
H608 H 0.68105 0.08721 0.19917 0.0
H609 H 0.6909 0.08053 0.1513 0.0
H610 H 0.61112 1.032 0.13061 0.0
H611 H 0.60112 0.03892 0.17768 0.0
H612 H 0.51813 0.09885 0.88836 0.0
H613 H 0.50522 0.08579 0.93322 0.0
H614 H 0.58653 0.1188 0.97148 0.0
H615 H 0.6002 0.12968 0.92673 0.0
Tb616 Tb 0.36344 0.3377 0.31669 0.0
Eu617 Eu 0.3361 0.28339 0.2876 0.0
C618 C 0.36303 0.28755 0.35408 0.0
C619 C 0.40043 0.3089 0.277 0.0
C620 C 0.36511 0.40495 0.33176 0.0
C621 C 0.36251 0.4506 0.32669 0.0
C622 C 0.37746 0.43144 0.33543 0.0
C623 C 0.33788 0.39788 0.31968 0.0
C624 C 0.32328 0.41669 0.31081 0.0
C625 C 0.33551 0.44307 0.31386 0.0
C626 C 0.38036 0.38386 0.33714 0.0
O627 O 0.34491 0.34966 0.27569 0.0
O628 O 0.33632 0.31023 0.25142 0.0
O629 O 0.29859 0.29584 0.30471 0.0
O630 O 0.32137 0.33135 0.33222 0.0
C631 C 0.33907 0.33588 0.25141 0.0
O632 O 0.30913 0.25778 0.25493 0.0
O633 O 0.33292 0.24137 0.2871 0.0
O634 O 0.34657 0.27376 0.33335 0.0
O635 O 0.37493 0.31176 0.34996 0.0
O636 O 0.39963 0.32778 0.29628 0.0
O637 O 0.37866 0.29005 0.27143 0.0
C638 C 0.29831 0.31415 0.32452 0.0
O639 O 0.36825 0.36529 0.3508 0.0
O640 O 0.38881 0.37429 0.31524 0.0
C641 C 0.33224 0.22366 0.24266 0.0
C642 C 0.37835 0.2047 0.22851 0.0
C643 C 0.37358 0.22903 0.22001 0.0
C644 C 0.35069 0.23854 0.22718 0.0
C645 C 0.33438 0.19767 0.24661 0.0
C646 C 0.35734 0.18823 0.23964 0.0
C647 C 0.31871 0.2372 0.26269 0.0
H648 H 0.37208 0.47101 0.32933 0.0
H649 H 0.39858 0.43718 0.34442 0.0
H650 H 0.328 0.37763 0.31632 0.0
H651 H 0.30235 0.41058 0.30124 0.0
H652 H 0.38898 0.24184 0.21062 0.0
H653 H 0.34938 0.25866 0.22372 0.0
H654 H 0.32042 0.18591 0.25857 0.0
H655 H 0.36011 0.1693 0.24638 0.0
Tb656 Tb 0.60637 0.55386 1.02177 0.0
Eu657 Eu 0.59948 0.57808 0.07935 0.0
C658 C 0.66019 0.58968 0.0546 0.0
C659 C 0.60652 0.51473 0.0736 0.0
C660 C 0.61107 0.54074 0.94623 0.0
C661 C 0.60179 0.52557 0.89775 0.0
C662 C 0.60945 0.52097 0.92525 0.0
C663 C 0.60906 0.56615 0.93922 0.0
C664 C 0.60107 0.57067 0.9118 0.0
C665 C 0.59549 0.54989 0.89135 0.0
C666 C 0.60653 0.53302 0.97402 0.0
O667 O 0.56422 0.53567 0.02988 0.0
O668 O 0.55429 0.56238 0.06406 0.0
O669 O 0.59235 0.612 0.05154 0.0
O670 O 0.60428 0.59616 1.01109 0.0
C671 C 0.54629 0.54241 0.04567 0.0
O672 O 0.59148 0.57392 0.12225 0.0
O673 O 0.603 0.61236 0.1081 0.0
O674 O 0.64565 0.59107 0.07566 0.0
O675 O 0.64899 0.57541 0.03179 0.0
O676 O 0.61204 0.51968 0.04787 0.0
O677 O 0.60134 0.53446 0.0893 0.0
C678 C 0.5983 0.61628 0.02597 0.0
O679 O 0.62753 0.53622 0.99306 0.0
O680 O 0.58532 0.54039 0.98313 0.0
C681 C 0.62202 0.60408 0.15257 0.0
C682 C 0.66523 0.60444 0.19457 0.0
C683 C 0.63799 0.59641 0.19965 0.0
C684 C 0.61655 0.59628 0.17881 0.0
C685 C 0.64919 0.61333 0.14782 0.0
C686 C 0.67067 0.6137 0.16881 0.0
C687 C 0.59995 0.59857 0.12949 0.0
H688 H 0.59746 0.50931 0.88221 0.0
H689 H 0.61092 0.50125 0.93041 0.0
H690 H 0.61031 0.58163 0.95525 0.0
H691 H 0.59628 0.58957 0.90713 0.0
H692 H 0.63334 0.58965 0.21962 0.0
H693 H 0.59578 0.58893 0.18277 0.0
H694 H 0.65393 0.61922 0.1276 0.0
H695 H 0.69153 0.62008 0.16455 0.0
Tb696 Tb 0.84545 0.29942 0.30878 0.0
Eu697 Eu 0.86109 0.36046 0.29708 0.0
C698 C 0.84358 0.34507 0.35614 0.0
C699 C 0.79927 0.32769 0.27421 0.0
C700 C 0.82315 0.22788 0.30163 0.0
C701 C 0.82134 0.18116 0.29882 0.0
C702 C 0.82019 0.20415 0.31422 0.0
C703 C 0.82405 0.22805 0.27289 0.0
C704 C 0.82559 0.20516 0.25757 0.0
C705 C 0.82591 0.1819 0.27085 0.0
C706 C 0.83165 0.25225 0.31905 0.0
O707 O 0.85169 0.29583 0.26517 0.0
O708 O 0.8665 0.33888 0.25753 0.0
O709 O 0.89668 0.35173 0.32759 0.0
O710 O 0.89097 0.30756 0.31971 0.0
C711 C 0.85984 0.31414 0.24875 0.0
O712 O 0.8522 0.39856 0.28766 0.0
O713 O 0.89396 0.39227 0.29014 0.0
O714 O 0.84618 0.36325 0.3385 0.0
O715 O 0.844 0.3205 0.3488 0.0
O716 O 0.80787 0.30637 0.28271 0.0
O717 O 0.81554 0.35074 0.2791 0.0
C718 C 0.90629 0.32983 0.33056 0.0
O719 O 0.85666 0.26372 0.3174 0.0
O720 O 0.81495 0.26879 0.31818 0.0
C721 C 0.88611 0.43343 0.30591 0.0
C722 C 0.88744 0.4789 0.3397 0.0
C723 C 0.88773 0.48008 0.31089 0.0
C724 C 0.88697 0.45743 0.2941 0.0
C725 C 0.88853 0.43252 0.33484 0.0
C726 C 0.88932 0.45516 0.35167 0.0
C727 C 0.87781 0.40931 0.28809 0.0
H728 H 0.82178 0.16348 0.30955 0.0
H729 H 0.81958 0.20375 0.3364 0.0
H730 H 0.82624 0.24625 0.26285 0.0
H731 H 0.82914 0.20614 0.23602 0.0
H732 H 0.88598 0.49796 0.30099 0.0
H733 H 0.88496 0.45836 0.27177 0.0
H734 H 0.88782 0.41404 0.34426 0.0
H735 H 0.88935 0.45373 0.37383 0.0
Tb736 Tb 0.11216 0.56214 0.57347 0.0
Eu737 Eu 0.08084 0.57674 0.51758 0.0
C738 C 0.10371 0.51878 0.51987 0.0
C739 C 0.14569 0.59691 0.53221 0.0
C740 C 0.12487 0.5283 0.63708 0.0
C741 C 0.12936 0.51521 0.68406 0.0
C742 C 0.14086 0.52797 0.66243 0.0
C743 C 0.09883 0.5124 0.63205 0.0
C744 C 0.08717 0.49993 0.65379 0.0
C745 C 0.1016 0.50321 0.68054 0.0
C746 C 0.13205 0.55004 0.61975 0.0
O747 O 0.10332 0.60292 0.58567 0.0
O748 O 0.08473 0.61518 0.5444 0.0
O749 O 0.04913 0.56546 0.54606 0.0
O750 O 0.07209 0.53716 0.56743 0.0
C751 C 0.09367 0.62117 0.57096 0.0
O752 O 0.06995 0.60393 0.48762 0.0
O753 O 0.05005 0.56347 0.48202 0.0
O754 O 0.0924 0.5361 0.50542 0.0
O755 O 0.11288 0.52532 0.54657 0.0
O756 O 0.14542 0.58537 0.55557 0.0
O757 O 0.12417 0.5947 0.51378 0.0
C758 C 0.04904 0.54443 0.55942 0.0
O759 O 0.14175 0.5451 0.59665 0.0
O760 O 0.1135 0.56466 0.61646 0.0
C761 C 0.06391 0.58414 0.44323 0.0
C762 C 0.08229 0.57901 0.39125 0.0
C763 C 0.05625 0.5851 0.39332 0.0
C764 C 1.0471 0.58772 0.41931 0.0
C765 C 0.09002 0.57864 0.44122 0.0
C766 C 0.09915 0.57612 0.41551 0.0
C767 C 0.05488 0.58568 0.47062 0.0
H768 H 0.14104 0.51806 0.70443 0.0
H769 H 0.16103 0.54005 0.66657 0.0
H770 H 0.08631 0.51224 0.61241 0.0
H771 H 0.06583 0.49058 0.65052 0.0
H772 H 1.04288 0.58734 0.37488 0.0
H773 H 1.0269 0.59208 0.42071 0.0
H774 H 0.10316 0.57571 0.45959 0.0
H775 H 0.11899 0.57074 0.41462 0.0
Tb776 Tb 0.82934 0.83087 0.28613 0.0
Eu777 Eu 0.88027 0.81017 0.31759 0.0
C778 C 0.88871 0.86236 0.28469 0.0
C779 C 0.8621 0.79547 0.25066 0.0
C780 C 0.75856 0.83326 0.26317 0.0
C781 C 0.7154 0.80535 0.24503 0.0
C782 C 0.74038 0.82042 0.24059 0.0
C783 C 0.75062 0.83247 0.28994 0.0
C784 C 0.72581 0.81755 0.29432 0.0
C785 C 0.70861 0.80294 0.27211 0.0
C786 C 0.78735 0.84221 0.25966 0.0
O787 O 0.81172 0.79308 0.3001 0.0
O788 O 0.84398 0.79074 0.33619 0.0
O789 O 0.86923 0.83885 0.35102 0.0
O790 O 0.82807 0.84585 0.32975 0.0
C791 C 0.81941 0.78322 0.32331 0.0
O792 O 0.89925 0.77742 0.33029 0.0
O793 O 0.91974 0.81714 0.34303 0.0
O794 O 0.89919 0.84223 0.29263 0.0
O795 O 0.86276 0.86317 0.28519 0.0
O796 O 0.85034 0.81621 0.25235 0.0
O797 O 0.87195 0.78672 0.27414 0.0
C798 C 0.84673 0.84898 0.35192 0.0
O799 O 0.80239 0.85732 0.2798 0.0
O800 O 0.79947 0.82359 0.2516 0.0
C801 C 0.94748 0.78737 0.33226 0.0
C802 C 0.99612 0.78941 0.30806 0.0
C803 C 0.99663 0.80106 0.33482 0.0
C804 C 0.97243 0.79998 0.34686 0.0
C805 C 0.94738 0.77347 0.30677 0.0
C806 C 0.97159 0.77429 0.2949 0.0
C807 C 0.92187 0.79254 0.34153 0.0
H808 H 0.70222 0.79443 0.22763 0.0
H809 H 0.74632 0.82063 0.21982 0.0
H810 H 0.76426 0.84198 0.30778 0.0
H811 H 0.72058 0.81651 0.31533 0.0
H812 H 1.0152 0.81294 0.34542 0.0
H813 H 0.9729 0.81075 0.36659 0.0
H814 H 0.92841 0.76346 0.29508 0.0
H815 H 0.97075 0.76474 0.27446 0.0
Tb816 Tb 0.84463 0.34657 0.81544 0.0
Eu817 Eu 0.81521 0.29224 0.77865 0.0
C818 C 0.78959 0.34291 0.78364 0.0
C819 C 0.8152 0.2971 0.84434 0.0
C820 C 0.89112 0.40594 0.85271 0.0
C821 C 0.92106 0.43674 0.88649 0.0
C822 C 0.89652 0.41932 0.87896 0.0
C823 C 0.91071 0.40979 0.83409 0.0
C824 C 0.9353 0.42738 0.84157 0.0
C825 C 0.94064 0.44119 0.8678 0.0
C826 C 0.86536 0.38734 0.84604 0.0
O827 O 0.87728 0.32696 0.8056 0.0
O828 O 0.85356 0.28482 0.80299 0.0
O829 O 0.84491 0.31298 0.75219 0.0
O830 O 0.85056 0.35496 0.77216 0.0
C831 C 0.87662 0.30181 0.80708 0.0
O832 O 0.81483 0.25491 0.7559 0.0
O833 O 0.77763 0.27103 0.75561 0.0
O834 O 0.79653 0.32647 0.76588 0.0
O835 O 0.80107 0.34515 0.80918 0.0
O836 O 0.83501 0.31753 0.84547 0.0
O837 O 0.80101 0.28699 0.82077 0.0
C838 C 0.8526 0.33832 0.75137 0.0
O839 O 0.85166 0.38755 0.82166 0.0
O840 O 0.86603 0.36374 0.85312 0.0
C841 C 0.77251 0.22542 0.75048 0.0
C842 C 0.73794 0.17697 0.75243 0.0
C843 C 0.75092 0.18298 0.72871 0.0
C844 C 0.76804 0.20704 0.72776 0.0
C845 C 0.76003 0.21942 0.77443 0.0
C846 C 0.74277 0.19536 0.77536 0.0
C847 C 0.78858 0.25133 0.74795 0.0
H848 H 0.92469 0.44677 0.90696 0.0
H849 H 0.88171 0.41623 0.89371 0.0
H850 H 0.90694 0.39935 0.81383 0.0
H851 H 0.94982 0.43062 0.82657 0.0
H852 H 0.74742 0.16926 0.71067 0.0
H853 H 0.77738 0.21149 0.70906 0.0
H854 H 0.76331 0.23348 0.79218 0.0
H855 H 0.73334 0.19107 0.79404 0.0
Tb856 Tb 0.86622 0.83821 0.81439 0.0
Eu857 Eu 0.83653 0.78586 0.78267 0.0
C858 C 0.8652 0.78487 0.84752 0.0
C859 C 0.90189 0.8111 0.77443 0.0
C860 C 0.86839 0.90472 0.8371 0.0
C861 C 0.84076 0.93023 0.86125 0.0
C862 C 0.86153 0.91541 0.86191 0.0
C863 C 0.85549 0.91067 0.81162 0.0
C864 C 0.83483 0.92536 0.81102 0.0
C865 C 0.82679 0.93447 0.83578 0.0
C866 C 0.88378 0.88311 0.8378 0.0
O867 O 0.85397 0.8507 0.77133 0.0
O868 O 0.82343 0.81485 0.75235 0.0
O869 O 0.80097 0.79578 0.80606 0.0
O870 O 0.82277 0.83633 0.82396 0.0
C871 C 0.83642 0.83888 0.75001 0.0
O872 O 0.82766 0.76053 0.74432 0.0
O873 O 0.81629 0.74501 0.78232 0.0
O874 O 0.85619 0.77212 0.82321 0.0
O875 O 0.87058 0.8108 0.84863 0.0
O876 O 0.90281 0.82572 0.79782 0.0
O877 O 0.87811 0.79629 0.76463 0.0
C878 C 0.80083 0.81731 0.82169 0.0
O879 O 0.87307 0.86334 0.85068 0.0
O880 O 0.89096 0.87536 0.81434 0.0
C881 C 0.84101 0.72146 0.75581 0.0
C882 C 0.88006 0.68864 0.75571 0.0
C883 C 0.85318 0.67989 0.74261 0.0
C884 C 0.83373 0.69632 0.74255 0.0
C885 C 0.86778 0.73006 0.76868 0.0
C886 C 0.88703 0.71396 0.76861 0.0
C887 C 0.82168 0.73948 0.75736 0.0
H888 H 0.83467 0.93721 0.88054 0.0
H889 H 0.87092 0.91081 0.88176 0.0
H890 H 0.86003 0.9026 0.7921 0.0
H891 H 0.82419 0.92856 0.7912 0.0
H892 H 0.84722 0.66038 0.73265 0.0
H893 H 0.81312 0.68935 0.73255 0.0
H894 H 0.87376 0.74922 0.77939 0.0
H895 H 0.90719 0.72112 0.77963 0.0
Tb896 Tb 0.56762 0.57382 0.5361 0.0
Eu897 Eu 0.62158 0.58898 0.58439 0.0
C898 C 0.62458 0.56103 0.52666 0.0
C899 C 0.57871 0.53863 0.58212 0.0
C900 C 0.50129 0.57994 0.50457 0.0
C901 C 0.47679 0.61254 0.4853 0.0
C902 C 0.49416 0.59454 0.48232 0.0
C903 C 0.4898 0.58283 0.52939 0.0
C904 C 0.4728 0.6009 0.53246 0.0
C905 C 0.46642 0.61635 0.51067 0.0
C906 C 0.52399 0.5654 0.50374 0.0
O907 O 0.55495 0.59259 0.57214 0.0
O908 O 0.59477 0.61724 0.59517 0.0
O909 O 0.6297 0.61703 0.55178 0.0
O910 O 0.58454 0.61461 0.53428 0.0
C911 C 0.5679 0.61179 0.59006 0.0
O912 O 0.63945 0.5812 0.62544 0.0
O913 O 0.66466 0.6042 0.5988 0.0
O914 O 0.6284 0.55822 0.55332 0.0
O915 O 0.60251 0.56866 0.51542 0.0
O916 O 0.57497 0.53871 0.55511 0.0
O917 O 0.58663 0.56081 0.59666 0.0
C918 C 0.61057 0.62511 0.53581 0.0
O919 O 0.54672 0.5789 0.49735 0.0
O920 O 0.5284 0.55149 0.52482 0.0
C921 C 0.68277 0.57062 0.62023 0.0
C922 C 0.71617 0.53398 0.60886 0.0
C923 C 0.68849 0.52558 0.61206 0.0
C924 C 0.67196 0.54368 0.61754 0.0
C925 C 0.71068 0.57898 0.61838 0.0
C926 C 0.72723 0.56087 0.61271 0.0
C927 C 0.66431 0.58981 0.62001 0.0
H928 H 0.47189 0.62376 0.4679 0.0
H929 H 0.5029 0.5928 0.46304 0.0
H930 H 0.49499 0.57209 0.5471 0.0
H931 H 0.46562 0.6035 0.55243 0.0
H932 H 0.6794 0.50503 0.60971 0.0
H933 H 0.65043 0.53654 0.61847 0.0
H934 H 0.71939 0.59963 0.6199 0.0
H935 H 0.74839 0.56807 0.61007 0.0
Tb936 Tb 0.08898 0.55455 1.01829 0.0
Eu937 Eu 0.11805 0.58357 0.07588 0.0
C938 C 0.08372 0.5242 0.0722 0.0
C939 C 0.05729 0.59591 0.05147 0.0
C940 C 0.06121 0.50808 0.95883 0.0
C941 C 0.07599 0.46664 0.95278 0.0
C942 C 0.08209 0.49326 0.96047 0.0
C943 C 1.03436 0.49607 0.94864 0.0
C944 C 1.02824 0.46935 0.94103 0.0
C945 C 0.04901 0.45457 0.94353 0.0
C946 C 0.06626 0.53483 0.97142 0.0
O947 O 0.12056 0.58695 1.01129 0.0
O948 O 0.11408 0.61426 0.04556 0.0
O949 O 0.15016 0.56015 0.06079 0.0
O950 O 0.12307 0.53186 0.0273 0.0
C951 C 0.11933 0.61056 1.02026 0.0
O952 O 0.15477 0.6086 0.09685 0.0
O953 O 0.12193 0.59257 0.12047 0.0
O954 O 0.09577 0.54527 0.08762 0.0
O955 O 0.08004 0.5231 0.04512 0.0
O956 O 0.0586 0.57997 0.02952 0.0
O957 O 0.07751 0.5995 0.07216 0.0
C958 C 0.14677 0.53886 0.04367 0.0
O959 O 0.05313 0.53781 0.99269 0.0
O960 O 0.09164 0.54694 0.97595 0.0
C961 C 0.14468 0.63572 0.13219 0.0
C962 C 0.14686 0.68842 0.14762 0.0
C963 C 0.12244 0.67322 0.13459 0.0
C964 C 0.1213 0.64696 0.12703 0.0
C965 C 0.16898 0.65086 0.14554 0.0
C966 C 0.16996 0.67704 0.15371 0.0
C967 C 0.14465 0.60941 0.12047 0.0
H968 H 0.09211 0.45524 0.95513 0.0
H969 H 0.10287 0.5019 0.96882 0.0
H970 H 1.01796 0.50714 0.94781 0.0
H971 H 1.00727 0.46009 0.9342 0.0
H972 H 0.1045 0.68185 0.12963 0.0
H973 H 0.1025 0.63575 0.11617 0.0
H974 H 0.18747 0.64281 0.1485 0.0
H975 H 0.18906 0.68871 0.1634 0.0
H976 H 0.09329 0.21668 0.96201 0.0
H977 H 1.02524 0.22066 1.00844 0.0
H978 H 1.03537 0.18376 0.03425 0.0
H979 H 0.06125 0.14873 0.04068 0.0
H980 H 0.12961 0.14452 0.99484 0.0
H981 H 0.12219 0.18399 0.9719 0.0
C982 C 0.08084 0.20947 0.97791 0.0
C983 C 0.05837 0.22081 0.98323 0.0
C984 C 0.08694 0.18857 0.99268 0.0
C985 C 1.04258 0.21196 1.00414 0.0
C986 C 1.04833 0.19095 1.01878 0.0
C987 C 0.07465 0.15664 0.02581 0.0
C988 C 0.09559 0.14384 1.01888 0.0
C989 C 0.07011 0.17889 1.0128 0.0
C990 C 0.11333 0.1543 1.00024 0.0
C991 C 0.10896 0.17662 0.98707 0.0
H992 H 0.20318 0.90168 0.24442 0.0
H993 H 0.24454 0.9003 0.17107 0.0
H994 H 0.28051 0.88172 0.19638 0.0
H995 H 0.29515 0.85845 0.23639 0.0
H996 H 0.25361 0.859 0.3095 0.0
H997 H 0.22206 0.88473 0.28691 0.0
C998 C 0.22046 0.89798 0.23416 0.0
C999 C 0.22077 0.90163 0.20571 0.0
C1000 C 0.24031 0.88618 0.24842 0.0
C1001 C 0.24362 0.89743 0.19289 0.0
C1002 C 0.26397 0.88638 0.20721 0.0
C1003 C 0.27912 0.86421 0.24729 0.0
C1004 C 0.27581 0.85618 0.27404 0.0
C1005 C 0.26156 0.87927 0.2344 0.0
C1006 C 0.25589 0.86455 0.28858 0.0
C1007 C 0.23808 0.87935 0.27577 0.0
H1008 H 0.56377 0.81843 0.45351 0.0
H1009 H 0.57782 0.84811 0.37403 0.0
H1010 H 0.5707 0.89115 0.39099 0.0
H1011 H 0.56222 0.92039 0.42933 0.0
H1012 H 0.54519 0.88912 0.50729 0.0
H1013 H 0.55105 0.84592 0.48971 0.0
C1014 C 0.56504 0.83414 0.43971 0.0
C1015 C 0.57147 0.83021 0.41263 0.0
C1016 C 0.56019 0.85831 0.4493 0.0
C1017 C 0.57299 0.85081 0.39503 0.0
C1018 C 0.56889 0.87532 0.40469 0.0
C1019 C 0.55952 0.90393 0.4422 0.0
C1020 C 0.55348 0.90755 0.46946 0.0
C1021 C 0.5627 0.87929 0.43187 0.0
C1022 C 0.54977 0.88642 0.48619 0.0
C1023 C 0.55328 0.86192 0.47622 0.0
H1024 H 0.61531 0.35517 0.75776 0.0
H1025 H 0.55702 0.36148 0.68717 0.0
H1026 H 0.51948 0.3437 0.71267 0.0
H1027 H 0.50313 0.33053 0.7562 0.0
H1028 H 0.56054 0.32518 0.82751 0.0
H1029 H 0.59877 0.33801 0.80037 0.0
C1030 C 0.5944 0.35235 0.74787 0.0
C1031 C 0.58888 0.35995 0.7208 0.0
C1032 C 0.57288 0.34241 0.76277 0.0
C1033 C 0.56176 0.356 0.7081 0.0
C1034 C 0.54028 0.34586 0.72265 0.0
C1035 C 0.52406 0.33199 0.76566 0.0
C1036 C 0.52929 0.32743 0.79374 0.0
C1037 C 0.54561 0.33969 0.75017 0.0
C1038 C 0.55627 0.32877 0.80586 0.0
C1039 C 0.57801 0.33621 0.79042 0.0
H1040 H 0.09356 0.92391 0.66521 0.0
H1041 H 0.10368 0.8782 0.59223 0.0
H1042 H 0.10829 0.91753 0.56619 0.0
H1043 H 0.10928 0.96648 0.56255 0.0
H1044 H 0.09871 1.01178 0.63575 0.0
H1045 H 0.09474 0.9726 0.66168 0.0
C1046 C 0.09684 0.92221 0.6436 0.0
C1047 C 0.09818 0.89664 0.63148 0.0
C1048 C 0.09952 0.94575 0.62805 0.0
C1049 C 0.10243 0.8965 0.60306 0.0
C1050 C 0.10512 0.91951 0.58781 0.0
C1051 C 0.10627 0.96816 0.58423 0.0
C1052 C 0.10459 0.99367 0.59641 0.0
C1053 C 0.10372 0.94455 0.5998 0.0
C1054 C 0.10035 0.99364 0.62484 0.0
C1055 C 0.09797 0.97069 0.64007 0.0
H1056 H 0.5119 0.84397 0.92259 0.0
H1057 H 0.53938 0.78998 0.86714 0.0
H1058 H 0.49675 0.78685 0.83569 0.0
H1059 H 0.45028 0.79933 0.8235 0.0
H1060 H 0.42603 0.85656 0.87783 0.0
H1061 H 0.46782 0.85828 0.90939 0.0
C1062 C 0.50877 0.83148 0.90361 0.0
C1063 C 0.52947 0.8171 0.8978 0.0
C1064 C 0.4842 0.83023 0.88507 0.0
C1065 C 0.52442 0.8014 0.87262 0.0
C1066 C 0.49973 0.79952 0.85451 0.0
C1067 C 0.45404 0.81213 0.84227 0.0
C1068 C 0.4342 0.82768 0.84798 0.0
C1069 C 0.47921 0.81377 0.86043 0.0
C1070 C 0.44034 0.84434 0.87246 0.0
C1071 C 0.46449 0.84535 0.89073 0.0
H1072 H 0.6294 0.24013 0.1174 0.0
H1073 H 0.54471 0.23143 0.13048 0.0
H1074 H 0.53722 0.18559 0.1116 0.0
H1075 H 0.55438 0.14636 0.08923 0.0
H1076 H 0.64042 0.15558 0.08119 0.0
H1077 H 0.64704 0.20103 0.09946 0.0
C1078 C 0.60915 0.22839 0.11662 0.0
C1079 C 0.5878 0.24075 0.12618 0.0
C1080 C 0.60499 0.20116 0.10596 0.0
C1081 C 0.56202 0.22379 0.1242 0.0
C1082 C 0.55765 0.19706 0.11295 0.0
C1083 C 0.57473 0.15809 0.09142 0.0
C1084 C 0.59688 0.14607 0.08293 0.0
C1085 C 0.57886 0.18521 0.10338 0.0
C1086 C 0.62273 0.16291 0.08697 0.0
C1087 C 0.62661 0.18948 0.09763 0.0
H1088 H 0.17395 0.30093 0.36073 0.0
H1089 H 0.21645 0.34349 0.43555 0.0
H1090 H 0.2599 0.34636 0.41597 0.0
H1091 H 0.28779 0.33681 0.3771 0.0
H1092 H 0.24517 0.29214 0.30344 0.0
H1093 H 0.2018 0.29043 0.32259 0.0
C1094 C 0.19259 0.31088 0.37301 0.0
C1095 C 0.19068 0.32201 0.40029 0.0
C1096 C 0.21848 0.31225 0.36146 0.0
C1097 C 0.21608 0.33456 0.41491 0.0
C1098 C 0.24143 0.33628 0.40348 0.0
C1099 C 0.26912 0.32677 0.36493 0.0
C1100 C 0.27101 0.31481 0.33799 0.0
C1101 C 0.24324 0.32526 0.37666 0.0
C1102 C 0.24561 0.30175 0.32377 0.0
C1103 C 0.22026 0.3007 0.33493 0.0
H1104 H 1.03419 0.10996 0.20259 0.0
H1105 H 0.95916 0.07264 0.1535 0.0
H1106 H 0.97752 0.08802 0.11136 0.0
H1107 H 1.01916 0.09939 0.08907 0.0
H1108 H 0.09632 0.1283 0.13867 0.0
H1109 H 0.073 0.13026 0.18005 0.0
C1110 C 1.02161 0.10588 0.18267 0.0
C1111 C 0.99596 0.08933 0.18066 0.0
C1112 C 1.03301 0.11312 0.15869 0.0
C1113 C 0.97923 0.08491 0.15524 0.0
C1114 C 0.98983 0.09353 0.13121 0.0
C1115 C 1.03069 0.1067 0.10885 0.0
C1116 C 0.05937 0.11232 0.11126 0.0
C1117 C 1.01742 0.10566 0.13264 0.0
C1118 C 0.07422 0.12316 0.13653 0.0
C1119 C 0.06091 0.12402 0.1602 0.0
H1120 H 0.30171 0.72893 0.44526 0.0
H1121 H 0.33158 0.8014 0.49457 0.0
H1122 H 0.33257 0.82525 0.45261 0.0
H1123 H 0.3282 0.82516 0.40176 0.0
H1124 H 0.29668 0.75307 0.35227 0.0
H1125 H 0.29271 0.72956 0.39434 0.0
C1126 C 0.3082 0.74996 0.44679 0.0
C1127 C 0.31685 0.76332 0.47298 0.0
C1128 C 0.30844 0.76365 0.42252 0.0
C1129 C 0.32487 0.79063 0.47467 0.0
C1130 C 0.32552 0.8043 0.45067 0.0
C1131 C 0.32012 0.80436 0.40018 0.0
C1132 C 0.31294 0.79089 0.37389 0.0
C1133 C 0.31782 0.79096 0.42447 0.0
C1134 C 0.30227 0.76397 0.37222 0.0
C1135 C 0.30017 0.75045 0.39629 0.0
H1136 H 0.65428 1.00147 0.71085 0.0
H1137 H 0.57511 0.95134 0.69685 0.0
H1138 H 0.56801 0.96602 0.64994 0.0
H1139 H 0.58025 1.00027 0.61751 0.0
H1140 H 0.65605 0.05528 0.63679 0.0
H1141 H 0.66834 0.03214 0.6772 0.0
C1142 C 0.63598 0.99284 0.69712 0.0
C1143 C 0.61521 0.97544 0.70727 0.0
C1144 C 0.63094 1.0033 0.67154 0.0
C1145 C 0.59144 0.96471 0.68936 0.0
C1146 C 0.58716 0.97352 0.66279 0.0
C1147 C 0.59951 1.00692 0.63051 0.0
C1148 C 0.61693 1.02973 0.62474 0.0
C1149 C 0.60601 0.99405 0.65441 0.0
C1150 C 0.64199 0.03816 0.64141 0.0
C1151 C 0.64917 1.02479 0.66431 0.0
H1152 H 0.31842 0.43015 0.94935 0.0
H1153 H 0.3543 0.3796 1.00398 0.0
H1154 H 0.36382 0.35386 0.96408 0.0
H1155 H 0.36187 0.34429 0.91252 0.0
H1156 H 0.32364 0.39334 0.85782 0.0
H1157 H 0.31552 0.41995 0.8977 0.0
C1158 C 0.32846 0.41361 0.95271 0.0
C1159 C 0.33565 0.40746 0.98062 0.0
C1160 C 0.33357 0.39805 0.92902 0.0
C1161 C 0.34837 0.38541 0.98346 0.0
C1162 C 0.3539 0.37042 0.9603 0.0
C1163 C 0.35183 0.36083 0.90911 0.0
C1164 C 0.34368 0.36631 0.88118 0.0
C1165 C 0.3466 0.37632 0.93278 0.0
C1166 C 0.33041 0.38803 0.87832 0.0
C1167 C 0.32567 0.40355 0.90148 0.0
H1168 H 1.03502 0.04874 0.28623 0.0
H1169 H 0.97636 0.06051 0.34226 0.0
H1170 H 1.01114 0.06047 0.38191 0.0
H1171 H 0.05826 0.0579 0.40008 0.0
H1172 H 0.11597 0.04405 0.34399 0.0
H1173 H 0.08129 0.0445 0.30422 0.0
C1174 C 1.02969 0.05115 0.30709 0.0
C1175 C 1.00324 0.05475 0.31144 0.0
C1176 C 0.04965 0.05116 0.32946 0.0
C1177 C 0.99659 0.05762 0.33853 0.0
C1178 C 1.01649 0.0578 0.36108 0.0
C1179 C 0.06326 0.05545 0.37904 0.0
C1180 C 0.08959 0.05172 0.37454 0.0
C1181 C 1.04311 0.05491 0.35669 0.0
C1182 C 0.0959 0.04755 0.34755 0.0
C1183 C 0.07608 0.04759 0.32503 0.0
H1184 H 0.34967 0.80572 0.6203 0.0
H1185 H 0.32129 0.72424 0.63066 0.0
H1186 H 0.33203 0.7322 0.68113 0.0
H1187 H 0.3467 0.76318 0.7225 0.0
H1188 H 0.37795 0.84411 0.71125 0.0
H1189 H 0.3693 0.83545 0.6611 0.0
C1190 C 0.34604 0.7897 0.63363 0.0
C1191 C 0.3344 0.76451 0.62186 0.0
C1192 C 0.35283 0.79432 0.6625 0.0
C1193 C 0.33021 0.74381 0.63928 0.0
C1194 C 0.33627 0.74838 0.66812 0.0
C1195 C 0.352 0.77881 0.70906 0.0
C1196 C 0.36285 0.80429 0.72073 0.0
C1197 C 0.34722 0.77366 0.68002 0.0
C1198 C 0.36975 0.82428 0.70296 0.0
C1199 C 0.36461 0.81941 0.67419 0.0
H1200 H 0.64058 0.0586 0.84127 0.0
H1201 H 0.57466 0.99311 0.84202 0.0
H1202 H 0.54635 1.02189 0.86047 0.0
H1203 H 0.54182 0.06424 0.87908 0.0
H1204 H 0.60699 0.13075 0.87868 0.0
H1205 H 0.63382 0.10295 0.8558 0.0
C1206 C 0.62017 0.05068 0.84598 0.0
C1207 C 0.60986 1.02375 0.84136 0.0
C1208 C 0.60376 0.06749 0.85573 0.0
C1209 C 0.58308 1.01372 0.84624 0.0
C1210 C 0.56685 1.03018 0.85638 0.0
C1211 C 0.56145 0.0732 0.87324 0.0
C1212 C 0.57243 0.09967 0.88104 0.0
C1213 C 0.57706 0.05702 0.86132 0.0
C1214 C 0.5981 0.11042 0.87321 0.0
C1215 C 0.6136 0.09445 0.86051 0.0
H1216 H 0.33586 0.36245 0.12252 0.0
H1217 H 0.32867 0.43936 0.15341 0.0
H1218 H 0.32929 0.42423 0.20089 0.0
H1219 H 0.33381 0.38837 0.23524 0.0
H1220 H 0.33953 0.31194 0.20057 0.0
H1221 H 0.33781 0.3277 0.15455 0.0
C1222 C 0.3342 0.37624 0.13937 0.0
C1223 C 0.33216 0.40247 0.13317 0.0
C1224 C 0.33459 0.36728 0.1669 0.0
C1225 C 0.32998 0.41918 0.15637 0.0
C1226 C 0.33058 0.41039 0.18397 0.0
C1227 C 0.33457 0.37501 0.2177 0.0
C1228 C 0.33683 0.34834 0.2227 0.0
C1229 C 0.33318 0.38438 0.18983 0.0
C1230 C 0.33766 0.33217 0.19868 0.0
C1231 C 0.33672 0.34129 0.17179 0.0
H1232 H 0.3311 0.98168 0.09805 0.0
H1233 H 0.27053 0.92537 0.04635 0.0
H1234 H 0.23582 0.95224 0.05319 0.0
H1235 H 0.22406 0.99357 0.071 0.0
H1236 H 0.28544 0.04901 0.12314 0.0
H1237 H 0.31872 1.02069 0.11858 0.0
C1238 C 0.31025 0.97514 0.08837 0.0
C1239 C 0.30339 0.95175 0.07146 0.0
C1240 C 0.29072 0.99068 0.09222 0.0
C1241 C 0.27625 0.94333 0.05945 0.0
C1242 C 0.25651 0.95876 0.06324 0.0
C1243 C 0.24459 0.99925 0.08176 0.0
C1244 C 0.25232 1.02359 0.09713 0.0
C1245 C 0.26367 0.98274 0.07918 0.0
C1246 C 0.27909 1.03071 0.1107 0.0
C1247 C 0.29809 1.01444 0.10826 0.0
H1248 H 0.76825 0.67998 0.06942 0.0
H1249 H 0.79704 0.62772 1.01315 0.0
H1250 H 0.75375 0.59645 1.012 0.0
H1251 H 0.70584 0.5841 0.02589 0.0
H1252 H 0.68022 0.63542 0.08591 0.0
H1253 H 0.72324 0.66602 0.08662 0.0
C1254 C 0.76533 0.66166 0.057 0.0
C1255 C 0.78658 0.65674 0.04126 0.0
C1256 C 0.74036 0.64324 0.05704 0.0
C1257 C 0.78174 0.63248 0.02564 0.0
C1258 C 0.75663 0.61448 0.0249 0.0
C1259 C 0.70966 0.60184 0.03938 0.0
C1260 C 0.6889 0.60692 0.05589 0.0
C1261 C 0.73549 0.6196 0.04034 0.0
C1262 C 0.69513 0.63031 0.0731 0.0
C1263 C 0.72 0.64813 0.07343 0.0
H1264 H 0.84395 0.57924 0.37531 0.0
H1265 H 0.78645 0.52084 0.40893 0.0
H1266 H 0.81379 0.48791 0.39948 0.0
H1267 H 0.84958 0.47448 0.37535 0.0
H1268 H 0.90591 0.53169 0.33893 0.0
H1269 H 0.88369 0.56646 0.35614 0.0
C1270 C 0.83774 0.55941 0.38104 0.0
C1271 C 0.81305 0.55235 0.3924 0.0
C1272 C 0.85321 0.54036 0.37487 0.0
C1273 C 0.8052 0.52665 0.39979 0.0
C1274 C 0.82082 0.5078 0.39441 0.0
C1275 C 0.85769 0.49464 0.37199 0.0
C1276 C 0.87927 0.5005 0.35577 0.0
C1277 C 0.84429 0.51425 0.38107 0.0
C1278 C 0.88915 0.5267 0.35118 0.0
C1279 C 0.87638 0.54653 0.3609 0.0
H1280 H 0.9291 0.48082 0.55221 0.0
H1281 H 0.97237 0.41619 0.55447 0.0
H1282 H 1.01605 0.44683 0.55959 0.0
H1283 H 1.04173 0.49194 0.5625 0.0
H1284 H 0.99797 0.55611 0.55762 0.0
H1285 H 0.95451 0.52554 0.55491 0.0
C1286 C 0.94806 0.47333 0.5539 0.0
C1287 C 0.94743 0.4462 0.55302 0.0
C1288 C 0.97295 0.49098 0.55658 0.0
C1289 C 0.97224 0.43694 0.55496 0.0
C1290 C 0.99721 0.45446 0.55802 0.0
C1291 C 1.02269 0.49926 0.56123 0.0
C1292 C 1.02301 0.52627 0.5605 0.0
C1293 C 0.99778 0.48151 0.55884 0.0
C1294 C 0.9982 0.53543 0.55831 0.0
C1295 C 0.97338 0.51796 0.55667 0.0
H1296 H 0.493 0.19614 0.28677 0.0
H1297 H 0.46134 0.11447 0.26424 0.0
H1298 H 0.42319 0.12564 0.23473 0.0
H1299 H 0.39509 0.15799 0.2214 0.0
H1300 H 0.42537 0.23945 0.24643 0.0
H1301 H 0.46809 0.22908 0.26744 0.0
C1302 C 0.47803 0.18084 0.275 0.0
C1303 C 0.47969 0.15453 0.27821 0.0
C1304 C 0.4558 0.18735 0.25831 0.0
C1305 C 0.46032 0.13491 0.26253 0.0
C1306 C 0.43845 0.14125 0.24559 0.0
C1307 C 0.41126 0.17352 0.23095 0.0
C1308 C 0.40666 0.19933 0.23272 0.0
C1309 C 0.4354 0.16733 0.24423 0.0
C1310 C 0.42816 0.21934 0.24458 0.0
C1311 C 0.45257 0.21341 0.25707 0.0
H1312 H 0.47977 0.18548 0.55771 0.0
H1313 H 0.41814 0.11569 0.55109 0.0
H1314 H 0.45355 0.08889 0.55197 0.0
H1315 H 0.50312 0.08381 0.55442 0.0
H1316 H 0.56498 0.15356 0.56418 0.0
H1317 H 0.52956 0.18039 0.56233 0.0
C1318 C 0.47384 0.16442 0.5565 0.0
C1319 C 0.44518 0.15328 0.55421 0.0
C1320 C 0.49501 0.14843 0.55761 0.0
C1321 C 0.43925 0.1256 0.5529 0.0
C1322 C 0.45986 0.10993 0.55337 0.0
C1323 C 0.50913 0.10487 0.55626 0.0
C1324 C 0.53782 0.11595 0.55953 0.0
C1325 C 0.48801 0.12087 0.5557 0.0
C1326 C 0.54385 0.14365 0.56185 0.0
C1327 C 0.52322 0.15936 0.5607 0.0
H1328 H 0.73258 0.68814 0.35212 0.0
H1329 H 0.80115 0.67963 0.41076 0.0
H1330 H 0.82715 0.7205 0.39789 0.0
H1331 H 0.83216 0.75561 0.36684 0.0
H1332 H 0.7652 0.76327 0.30567 0.0
H1333 H 0.73661 0.72573 0.32285 0.0
C1334 C 0.75298 0.69558 0.36251 0.0
C1335 C 0.765 0.68092 0.38235 0.0
C1336 C 0.76819 0.71862 0.35426 0.0
C1337 C 0.79156 0.69055 0.39538 0.0
C1338 C 0.80644 0.71383 0.38796 0.0
C1339 C 0.81125 0.7493 0.3573 0.0
C1340 C 0.80098 0.76201 0.3347 0.0
C1341 C 0.79526 0.72753 0.36685 0.0
C1342 C 0.77374 0.7536 0.32284 0.0
C1343 C 0.75739 0.73217 0.33269 0.0
H1344 H 0.05155 0.521 0.87451 0.0
H1345 H 1.00181 0.57144 0.90801 0.0
H1346 H 0.96499 0.53405 0.90968 0.0
H1347 H 0.94445 0.48902 0.89389 0.0
H1348 H 0.99301 0.43875 0.85771 0.0
H1349 H 1.03276 0.47422 0.8643 0.0
C1350 C 1.03304 0.52356 0.88319 0.0
C1351 C 1.0293 0.54876 0.89131 0.0
C1352 C 1.01144 0.50224 0.88251 0.0
C1353 C 1.00508 0.55208 0.90192 0.0
C1354 C 0.98394 0.5308 0.90247 0.0
C1355 C 0.96388 0.48557 0.88806 0.0
C1356 C 0.96566 0.46139 0.87497 0.0
C1357 C 0.98645 0.50607 0.89161 0.0
C1358 C 0.99095 0.45739 0.86724 0.0
C1359 C 1.0137 0.4776 0.87113 0.0
H1360 H 0.10604 0.92147 0.11952 0.0
H1361 H 0.13344 0.96752 0.19684 0.0
H1362 H 0.12221 1.00639 0.17525 0.0
H1363 H 0.10601 1.02697 0.13406 0.0
H1364 H 0.0776 0.98025 0.05713 0.0
H1365 H 0.08719 0.94138 0.07933 0.0
C1366 C 0.10969 0.94007 0.1316 0.0
C1367 C 0.1209 0.94198 0.15948 0.0
C1368 C 0.10268 0.9619 0.11929 0.0
C1369 C 0.12498 0.96587 0.17521 0.0
C1370 C 0.11851 0.98795 0.16293 0.0
C1371 C 0.10169 1.00824 0.12219 0.0
C1372 C 0.09138 1.00643 0.09397 0.0
C1373 C 0.10747 0.98614 0.13496 0.0
C1374 C 0.08553 0.98206 0.07892 0.0
C1375 C 0.0912 0.95992 0.0915 0.0
H1376 H 0.9916 0.297 0.86683 0.0
H1377 H 0.94471 0.2332 0.90371 0.0
H1378 H 0.90428 0.23545 0.87087 0.0
H1379 H 0.88145 0.25977 0.83627 0.0
H1380 H 0.92834 0.32602 0.80262 0.0
H1381 H 0.97002 0.31844 0.82929 0.0
C1382 C 0.97255 0.28336 0.86721 0.0
C1383 C 0.97057 0.26509 0.8873 0.0
C1384 C 0.94963 0.28533 0.849 0.0
C1385 C 0.9462 0.24742 0.88818 0.0
C1386 C 0.92328 0.24876 0.86951 0.0
C1387 C 0.90094 0.27203 0.8342 0.0
C1388 C 0.90197 0.29349 0.81778 0.0
C1389 C 0.92458 0.26818 0.85042 0.0
C1390 C 0.92718 0.30949 0.81537 0.0
C1391 C 0.95094 0.30526 0.83067 0.0
H1392 H 0.69032 0.34034 0.60945 0.0
H1393 H 0.61972 0.31994 0.65304 0.0
H1394 H 0.61619 0.27399 0.6383 0.0
H1395 H 0.63484 0.23962 0.61581 0.0
H1396 H 0.70754 0.2587 0.57537 0.0
H1397 H 0.70872 0.30544 0.58599 0.0
C1398 C 0.67406 0.32577 0.61541 0.0
C1399 C 0.65536 0.33325 0.63228 0.0
C1400 C 0.67264 0.29935 0.60754 0.0
C1401 C 0.63447 0.31441 0.64023 0.0
C1402 C 0.6324 0.28823 0.63179 0.0
C1403 C 0.65064 0.2541 0.60893 0.0
C1404 C 0.6709 0.24611 0.59466 0.0
C1405 C 0.6516 0.2805 0.61583 0.0
C1406 C 0.69173 0.26474 0.58633 0.0
C1407 C 0.69239 0.2913 0.59242 0.0
H1408 H 0.59637 0.75828 0.3089 0.0
H1409 H 0.65001 0.73333 0.37349 0.0
H1410 H 0.68803 0.74183 0.34564 0.0
H1411 H 0.70767 0.76657 0.30918 0.0
H1412 H 0.65568 0.79842 0.24852 0.0
H1413 H 0.61512 0.77654 0.26787 0.0
C1414 C 0.61614 0.75369 0.31621 0.0
C1415 C 0.62075 0.74541 0.34303 0.0
C1416 C 0.63823 0.76051 0.30101 0.0
C1417 C 0.64632 0.7398 0.3528 0.0
C1418 C 0.66802 0.74488 0.33703 0.0
C1419 C 0.68736 0.76819 0.29988 0.0
C1420 C 0.68441 0.78458 0.27815 0.0
C1421 C 0.66455 0.75689 0.31206 0.0
C1422 C 0.65823 0.78611 0.26557 0.0
C1423 C 0.63514 0.77378 0.27674 0.0
H1424 H 0.10345 0.21738 0.44242 0.0
H1425 H 0.11243 0.25966 0.52236 0.0
H1426 H 0.11124 0.21921 0.54514 0.0
H1427 H 0.10636 0.17045 0.54462 0.0
H1428 H 0.09892 0.12647 0.46612 0.0
H1429 H 0.1008 0.16715 0.44217 0.0
C1430 C 0.10577 0.21816 0.46485 0.0
C1431 C 0.10844 0.24344 0.47994 0.0
C1432 C 0.10496 0.19351 0.47884 0.0
C1433 C 0.11057 0.24191 0.50922 0.0
C1434 C 0.10975 0.21818 0.5227 0.0
C1435 C 0.10507 0.16933 0.5222 0.0
C1436 C 0.10213 0.14385 0.50794 0.0
C1437 C 0.10663 0.19359 0.50805 0.0
C1438 C 0.10097 0.14463 0.47861 0.0
C1439 C 0.10213 0.16846 0.46459 0.0
H1440 H 0.69547 0.30396 0.17884 0.0
H1441 H 0.6625 0.35471 0.23315 0.0
H1442 H 0.70477 0.36035 0.26564 0.0
H1443 H 0.75284 0.35173 0.27879 0.0
H1444 H 0.78273 0.297 0.22623 0.0
H1445 H 0.74091 0.29226 0.19377 0.0
C1446 C 0.69725 0.31614 0.19788 0.0
C1447 C 0.67504 0.3289 0.20297 0.0
C1448 C 0.7217 0.31875 0.21714 0.0
C1449 C 0.67851 0.34438 0.22821 0.0
C1450 C 0.70305 0.34774 0.24692 0.0
C1451 C 0.75025 0.33867 0.2603 0.0
C1452 C 0.7718 0.32489 0.25533 0.0
C1453 C 0.72508 0.33521 0.24167 0.0
C1454 C 0.76714 0.30792 0.2311 0.0
C1455 C 0.74296 0.3052 0.21229 0.0
H1456 H 0.62118 0.89182 1.00179 0.0
H1457 H 0.60105 0.90295 0.91536 0.0
H1458 H 0.59493 0.94745 0.92734 0.0
H1459 H 0.59537 0.98573 0.96249 0.0
H1460 H 0.6185 0.97525 0.04862 0.0
H1461 H 0.62296 0.93038 0.03669 0.0
C1462 C 0.61532 0.90368 0.98531 0.0
C1463 C 0.61154 0.89232 0.95709 0.0
C1464 C 0.61226 0.93065 0.99245 0.0
C1465 C 0.60426 0.90969 0.93709 0.0
C1466 C 0.60067 0.93579 0.94406 0.0
C1467 C 0.60134 0.97388 0.97894 0.0
C1468 C 0.60636 0.98559 1.0071 0.0
C1469 C 0.60461 0.94695 0.97172 0.0
C1470 C 0.61434 0.96835 0.02695 0.0
C1471 C 0.61695 0.94199 1.02003 0.0
H1472 H 0.98615 0.80824 0.68006 0.0
H1473 H 1.0469 0.83192 0.7507 0.0
H1474 H 1.0109 0.83212 0.78082 0.0
H1475 H 0.96086 0.8257 0.78872 0.0
H1476 H 0.90033 0.7984 0.71863 0.0
H1477 H 0.93627 0.79954 0.68837 0.0
C1478 C 0.99178 0.81349 0.70202 0.0
C1479 C 1.02039 0.82026 0.71228 0.0
C1480 C 0.97029 0.81292 0.72012 0.0
C1481 C 1.02588 0.82658 0.74132 0.0
C1482 C 1.0049 0.82674 0.75893 0.0
C1483 C 0.95526 0.81994 0.76686 0.0
C1484 C 0.92669 0.81201 0.75678 0.0
C1485 C 0.97679 0.81997 0.74886 0.0
C1486 C 0.9213 0.80456 0.72794 0.0
C1487 C 0.94224 0.80525 0.7102 0.0
H1488 H 0.18262 0.07367 0.91428 0.0
H1489 H 0.24994 0.09668 0.97926 0.0
H1490 H 0.21991 0.08041 1.01381 0.0
H1491 H 0.17392 0.06239 0.02507 0.0
H1492 H 0.10695 0.04139 0.95934 0.0
H1493 H 0.13819 0.0532 0.92495 0.0
C1494 C 0.19088 0.07523 0.936 0.0
C1495 C 0.21832 0.0867 0.94437 0.0
C1496 C 0.17378 0.06573 0.95533 0.0
C1497 C 0.22874 0.08823 0.97249 0.0
C1498 C 0.21167 0.07876 0.9921 0.0
C1499 C 0.16628 0.05979 1.00318 0.0
C1500 C 0.1382 0.05119 0.9946 0.0
C1501 C 0.18409 0.0677 0.9837 0.0
C1502 C 0.12851 0.04802 0.96627 0.0
C1503 C 0.14626 0.05501 0.94671 0.0
H1504 H 0.88295 0.35168 0.62991 0.0
H1505 H 0.84703 0.42045 0.63978 0.0
H1506 H 0.8419 0.4118 0.68798 0.0
H1507 H 0.84527 0.38327 0.72697 0.0
H1508 H 0.87968 0.31382 0.71605 0.0
H1509 H 0.88827 0.32452 0.66916 0.0
C1510 C 0.87405 0.36485 0.64255 0.0
C1511 C 0.86525 0.38659 0.63094 0.0
C1512 C 0.87105 0.35975 0.67034 0.0
C1513 C 0.85396 0.40348 0.64795 0.0
C1514 C 0.85102 0.39859 0.67563 0.0
C1515 C 0.85507 0.37075 0.71446 0.0
C1516 C 0.86175 0.34773 0.72501 0.0
C1517 C 0.85926 0.37663 0.68704 0.0
C1518 C 0.87423 0.3316 0.70842 0.0
C1519 C 0.87905 0.33764 0.68152 0.0
H1520 H 0.57277 0.17083 0.41464 0.0
H1521 H 0.4971 0.1152 0.40765 0.0
H1522 H 0.5143 0.0943 0.44808 0.0
H1523 H 0.55353 0.08778 0.48059 0.0
H1524 H 0.62902 0.14351 0.48786 0.0
H1525 H 0.60966 0.16797 0.45126 0.0
C1526 C 0.55972 0.15465 0.42255 0.0
C1527 C 0.53391 0.14433 0.40799 0.0
C1528 C 0.57023 0.14202 0.4449 0.0
C1529 C 0.51702 0.12358 0.41853 0.0
C1530 C 0.52708 0.11127 0.44131 0.0
C1531 C 0.56575 0.10514 0.47385 0.0
C1532 C 0.59295 0.1134 0.48582 0.0
C1533 C 0.55416 0.11949 0.45362 0.0
C1534 C 0.60831 0.13652 0.47812 0.0
C1535 C 0.59714 0.15059 0.45753 0.0
H1536 H 0.85288 0.76478 0.11976 0.0
H1537 H 0.89527 0.70298 0.14436 0.0
H1538 H 0.89691 0.71887 0.19349 0.0
H1539 H 0.88527 0.75116 0.23078 0.0
H1540 H 0.84225 0.81141 0.20151 0.0
H1541 H 0.84205 0.79517 0.15423 0.0
C1542 C 0.86269 0.75435 0.13546 0.0
C1543 C 0.87397 0.73222 0.12704 0.0
C1544 C 0.86338 0.76356 0.16378 0.0
C1545 C 0.88637 0.7199 0.14905 0.0
C1546 C 0.88722 0.72913 0.17755 0.0
C1547 C 0.87586 0.76085 0.21415 0.0
C1548 C 0.86376 0.78313 0.22107 0.0
C1549 C 0.87567 0.75107 0.18548 0.0
C1550 C 0.85185 0.79466 0.19821 0.0
C1551 C 0.85166 0.78525 0.17056 0.0
H1552 H 0.24201 0.12871 0.79781 0.0
H1553 H 0.19799 0.05023 0.80047 0.0
H1554 H 0.17656 0.0512 0.753 0.0
H1555 H 0.1626 0.0779 0.71615 0.0
H1556 H 0.20231 0.15813 0.71545 0.0
H1557 H 0.23352 0.15322 0.75668 0.0
C1558 C 0.22873 0.11148 0.78736 0.0
C1559 C 0.22148 0.0894 0.80217 0.0
C1560 C 0.21513 0.11292 0.76089 0.0
C1561 C 0.20386 0.06726 0.78907 0.0
C1562 C 0.19136 0.06799 0.76217 0.0
C1563 C 0.17847 0.09411 0.72484 0.0
C1564 C 0.17994 0.11849 0.71361 0.0
C1565 C 0.19554 0.09128 0.74872 0.0
C1566 C 0.20078 0.13932 0.72426 0.0
C1567 C 0.21849 0.13649 0.74776 0.0
H1568 H 0.84622 0.36259 0.48704 0.0
H1569 H 0.86014 0.44296 0.46613 0.0
H1570 H 0.85675 0.42909 0.41718 0.0
H1571 H 0.85011 0.39452 0.38006 0.0
H1572 H 0.83647 0.31383 0.39981 0.0
H1573 H 0.83915 0.32742 0.44908 0.0
C1574 C 0.84858 0.37703 0.47176 0.0
C1575 C 0.85343 0.40383 0.48044 0.0
C1576 C 0.84643 0.36888 0.44328 0.0
C1577 C 0.85634 0.42223 0.46024 0.0
C1578 C 0.85436 0.41432 0.43211 0.0
C1579 C 0.84744 0.37978 0.39501 0.0
C1580 C 0.84291 0.3531 0.38596 0.0
C1581 C 0.84933 0.38773 0.42336 0.0
C1582 C 0.83983 0.33449 0.40596 0.0
C1583 C 0.84148 0.34227 0.43425 0.0
H1584 H 0.57823 0.08572 0.29328 0.0
H1585 H 0.61771 0.16461 0.28399 0.0
H1586 H 0.64159 0.14909 0.24664 0.0
H1587 H 0.64895 0.11309 0.21554 0.0
H1588 H 0.61091 0.03393 0.22695 0.0
H1589 H 0.58878 0.0495 0.26515 0.0
C1590 C 0.59201 0.09942 0.28287 0.0
C1591 C 0.596 0.12615 0.2905 0.0
C1592 C 0.60596 0.09029 0.26223 0.0
C1593 C 0.61424 0.14395 0.27778 0.0
C1594 C 0.62789 0.13506 0.25669 0.0
C1595 C 0.63645 0.09917 0.22688 0.0
C1596 C 0.63144 0.07242 0.2184 0.0
C1597 C 0.62376 0.10826 0.24869 0.0
C1598 C 0.61481 0.05465 0.23297 0.0
C1599 C 0.60212 0.06352 0.2547 0.0
H1600 H 0.87238 0.69841 0.94014 0.0
H1601 H 0.87156 0.76476 0.99616 0.0
H1602 H 0.87028 0.79255 0.95718 0.0
H1603 H 0.86892 0.79931 0.90589 0.0
H1604 H 0.86819 0.73264 0.84972 0.0
H1605 H 0.87056 0.70508 0.88879 0.0
C1606 C 0.87187 0.71892 0.94406 0.0
C1607 C 0.87209 0.72881 0.9722 0.0
C1608 C 0.87094 0.73542 0.92083 0.0
C1609 C 0.87139 0.75583 0.97555 0.0
C1610 C 0.8707 0.77207 0.95288 0.0
C1611 C 0.86955 0.77883 0.90197 0.0
C1612 C 0.86862 0.76881 0.87376 0.0
C1613 C 0.87049 0.76233 0.9252 0.0
C1614 C 0.869 0.74172 0.87038 0.0
C1615 C 0.87031 0.7256 0.89311 0.0
H1616 H 0.9116 0.20866 1.01403 0.0
H1617 H 0.87564 0.17223 0.08235 0.0
H1618 H 0.90412 0.13905 0.08069 0.0
H1619 H 0.93354 0.11691 0.05563 0.0
H1620 H 0.97189 0.15321 0.98833 0.0
H1621 H 0.94737 0.1894 0.99312 0.0
C1622 C 0.91078 0.19394 0.02907 0.0
C1623 C 0.89155 0.1927 0.0482 0.0
C1624 C 0.92678 0.17437 0.02751 0.0
C1625 C 0.89029 0.17341 0.0674 0.0
C1626 C 0.90637 0.15431 0.0663 0.0
C1627 C 0.93731 0.13297 0.0424 0.0
C1628 C 0.95434 0.13191 1.02136 0.0
C1629 C 0.92381 0.15401 0.04574 0.0
C1630 C 0.95825 0.15291 1.00417 0.0
C1631 C 0.9445 0.17386 1.00712 0.0
H1632 H 0.43872 0.45194 0.02808 0.0
H1633 H 0.40434 0.50772 0.07467 0.0
H1634 H 0.44793 0.53887 0.07774 0.0
H1635 H 0.49749 0.55038 0.06803 0.0
H1636 H 0.52925 0.49401 1.0191 0.0
H1637 H 0.48591 0.4639 1.01637 0.0
C1638 C 0.44047 0.47092 0.03892 0.0
C1639 C 0.41751 0.4769 0.05124 0.0
C1640 C 0.46575 0.48906 0.0403 0.0
C1641 C 0.421 0.50205 0.06484 0.0
C1642 C 0.44626 0.52001 0.06668 0.0
C1643 C 0.495 0.53159 0.05662 0.0
C1644 C 0.5176 0.52505 0.0438 0.0
C1645 C 0.46906 0.51381 0.05464 0.0
C1646 C 0.51302 0.50028 0.02917 0.0
C1647 C 0.48791 0.48272 0.02762 0.0
H1648 H 0.36462 0.58325 0.74323 0.0
H1649 H 0.43477 0.64217 0.73414 0.0
H1650 H 0.40781 0.67636 0.73981 0.0
H1651 H 0.36624 0.68955 0.75268 0.0
H1652 H 0.29766 0.63139 0.76744 0.0
H1653 H 0.32178 0.5966 0.75371 0.0
C1654 C 0.3738 0.60357 0.74206 0.0
C1655 C 0.40158 0.61032 0.73841 0.0
C1656 C 0.35845 0.62313 0.74635 0.0
C1657 C 0.41345 0.63663 0.73717 0.0
C1658 C 0.39806 0.65614 0.74036 0.0
C1659 C 0.35629 0.66924 0.75205 0.0
C1660 C 0.33015 0.66286 0.76057 0.0
C1661 C 0.37079 0.64962 0.74564 0.0
C1662 C 0.31768 0.63657 0.76059 0.0
C1663 C 0.33154 0.61679 0.75298 0.0
H1664 H 0.25882 0.67242 0.5423 0.0
H1665 H 0.20754 0.72655 0.51384 0.0
H1666 H 0.16754 0.69109 0.50828 0.0
H1667 H 0.14711 0.64503 0.51357 0.0
H1668 H 0.19875 0.5925 0.54509 0.0
H1669 H 0.23902 0.62707 0.54674 0.0
C1670 C 0.23897 0.67664 0.53473 0.0
C1671 C 0.23624 0.70224 0.52853 0.0
C1672 C 0.21625 0.65634 0.53183 0.0
C1673 C 0.21023 0.70712 0.51892 0.0
C1674 C 0.1874 0.68682 0.51561 0.0
C1675 C 0.16731 0.64106 0.52014 0.0
C1676 C 0.17018 0.61619 0.52874 0.0
C1677 C 0.19018 0.66137 0.52213 0.0
C1678 C 0.19622 0.61141 0.53808 0.0
C1679 C 0.21914 0.63121 0.53921 0.0
H1680 H 0.73424 0.99943 0.81233 0.0
H1681 H 0.6837 0.92296 0.80891 0.0
H1682 H 0.72438 0.90396 0.82211 0.0
H1683 H 0.77474 0.90916 0.83173 0.0
H1684 H 0.82453 0.98589 0.8356 0.0
H1685 H 0.78351 1.00508 0.82552 0.0
C1686 C 0.7321 0.97857 0.81441 0.0
C1687 C 0.70618 0.96246 0.80915 0.0
C1688 C 0.75535 0.96802 0.8223 0.0
C1689 C 0.70356 0.93563 0.81261 0.0
C1690 C 0.72675 0.92483 0.82017 0.0
C1691 C 0.77636 0.93012 0.83085 0.0
C1692 C 0.80226 0.94631 0.83447 0.0
C1693 C 0.75277 0.94083 0.82473 0.0
C1694 C 0.80459 0.97333 0.8331 0.0
C1695 C 0.78124 0.98417 0.82715 0.0
H1696 H 0.7738 1.01374 0.55875 0.0
H1697 H 0.72827 0.93607 0.5368 0.0
H1698 H 0.68537 0.95299 0.53366 0.0
H1699 H 0.65901 0.99057 0.53722 0.0
H1700 H 0.70596 0.06793 0.55922 0.0
H1701 H 0.74805 0.05068 0.56196 0.0
C1702 C 0.75461 1.00026 0.55333 0.0
C1703 C 0.75538 0.97309 0.5482 0.0
C1704 C 0.72926 1.01035 0.55138 0.0
C1705 C 0.7294 0.95682 0.54108 0.0
C1706 C 0.7044 0.96667 0.5392 0.0
C1707 C 0.67833 1.00387 0.54246 0.0
C1708 C 0.67798 1.03123 0.54785 0.0
C1709 C 0.70373 0.99353 0.54425 0.0
C1710 C 0.70423 0.04712 0.5548 0.0
C1711 C 0.72892 0.03713 0.55646 0.0
H1712 H 0.46486 0.45455 0.74246 0.0
H1713 H 0.39119 0.4865 0.7263 0.0
H1714 H 0.36384 0.4455 0.73725 0.0
H1715 H 0.36141 0.40248 0.75657 0.0
H1716 H 0.43569 0.37188 0.77448 0.0
H1717 H 0.46213 0.41043 0.75763 0.0
C1718 C 0.4428 0.45249 0.74087 0.0
C1719 C 0.43021 0.47374 0.73391 0.0
C1720 C 0.42726 0.42918 0.74788 0.0
C1721 C 0.40154 0.47053 0.73184 0.0
C1722 C 0.38585 0.44714 0.7382 0.0
C1723 C 0.38336 0.40412 0.75643 0.0
C1724 C 0.39661 0.38455 0.76722 0.0
C1725 C 0.39857 0.42661 0.7471 0.0
C1726 C 0.42501 0.38689 0.76681 0.0
C1727 C 0.44014 0.4089 0.75707 0.0
H1728 H 0.1433 0.59956 0.25067 0.0
H1729 H 0.17532 0.56987 0.17923 0.0
H1730 H 0.20469 0.61195 0.17676 0.0
H1731 H 0.22515 0.65529 0.19802 0.0
H1732 H 0.1967 0.68379 0.27224 0.0
H1733 H 0.16089 0.64496 0.26941 0.0
C1734 C 0.15583 0.60273 0.23385 0.0
C1735 C 0.15725 0.58171 0.21519 0.0
C1736 C 0.17323 0.62693 0.23295 0.0
C1737 C 0.17395 0.58582 0.19384 0.0
C1738 C 0.1908 0.60988 0.19245 0.0
C1739 C 0.21102 0.65309 0.21352 0.0
C1740 C 0.21399 0.67218 0.2356 0.0
C1741 C 0.19131 0.63025 0.21246 0.0
C1742 C 0.19493 0.66943 0.25498 0.0
C1743 C 0.17456 0.64709 0.25352 0.0
H1744 H 0.61752 0.73061 0.48397 0.0
H1745 H 0.57116 0.6801 0.41574 0.0
H1746 H 0.582 0.64185 0.43853 0.0
H1747 H 0.59621 0.62339 0.48175 0.0
H1748 H 0.64016 0.67361 0.55111 0.0
H1749 H 0.63938 0.71181 0.52371 0.0
C1750 C 0.61017 0.71121 0.47396 0.0
C1751 C 0.59283 0.70785 0.44885 0.0
C1752 C 0.616 0.68951 0.48738 0.0
C1753 C 0.58415 0.68291 0.43539 0.0
C1754 C 0.59027 0.66113 0.4484 0.0
C1755 C 0.60629 0.6427 0.49044 0.0
C1756 C 0.6177 0.64625 0.51822 0.0
C1757 C 0.60492 0.66425 0.47497 0.0
C1758 C 0.63118 0.67088 0.52963 0.0
C1759 C 0.63048 0.69257 0.5141 0.0
H1760 H 0.71258 0.4195 0.7457 0.0
H1761 H 0.75703 0.41844 0.67455 0.0
H1762 H 0.78932 0.39538 0.69961 0.0
H1763 H 0.79766 0.36686 0.73697 0.0
H1764 H 0.75258 0.36634 0.80762 0.0
H1765 H 0.72707 0.39825 0.78722 0.0
C1766 C 0.72995 0.41506 0.73607 0.0
C1767 C 0.73194 0.41982 0.70807 0.0
C1768 C 0.74745 0.40056 0.75002 0.0
C1769 C 0.75486 0.4147 0.69599 0.0
C1770 C 0.77303 0.40106 0.71013 0.0
C1771 C 0.78243 0.37398 0.74798 0.0
C1772 C 0.77611 0.3638 0.77316 0.0
C1773 C 0.76825 0.39235 0.7363 0.0
C1774 C 0.75714 0.37364 0.78786 0.0
C1775 C 0.74275 0.39191 0.77628 0.0
H1776 H 1.04105 0.33513 0.95278 0.0
H1777 H 0.05415 0.33849 0.86668 0.0
H1778 H 0.0505 0.3847 0.86852 0.0
H1779 H 0.04853 0.42514 0.89632 0.0
H1780 H 1.03649 0.42127 0.98248 0.0
H1781 H 1.03438 0.37399 0.97897 0.0
C1782 C 1.04287 0.34589 0.93434 0.0
C1783 C 1.04834 0.33368 0.90979 0.0
C1784 C 1.04092 0.37228 0.93562 0.0
C1785 C 0.05024 0.34768 0.88592 0.0
C1786 C 1.04816 0.37404 0.88696 0.0
C1787 C 1.04483 0.41366 0.914 0.0
C1788 C 1.04258 0.42614 0.93955 0.0
C1789 C 1.04419 0.38668 0.9119 0.0
C1790 C 1.03804 0.41162 0.96262 0.0
C1791 C 1.03704 0.38477 0.96065 0.0
H1792 H 0.10463 0.83663 0.25996 0.0
H1793 H 1.04542 0.84719 0.19187 0.0
H1794 H 1.00859 0.82427 0.21516 0.0
H1795 H 0.99294 0.80421 0.25586 0.0
H1796 H 0.05112 0.79369 0.32476 0.0
H1797 H 0.08883 0.81362 0.30002 0.0
C1798 C 0.08367 0.83379 0.25022 0.0
C1799 C 0.0777 0.84376 0.22437 0.0
C1800 C 0.06251 0.82062 0.26378 0.0
C1801 C 0.05052 0.83982 0.21183 0.0
C1802 C 1.02945 0.82669 0.22511 0.0
C1803 C 1.0139 0.80554 0.26521 0.0
C1804 C 1.01929 0.79729 0.29198 0.0
C1805 C 1.03519 0.8173 0.25116 0.0
C1806 C 1.04652 0.79992 0.30413 0.0
C1807 C 0.068 0.81136 0.29004 0.0
H1808 H 0.60324 0.38911 0.09467 0.0
H1809 H 0.58761 0.41432 0.17613 0.0
H1810 H 0.59022 0.45889 0.16213 0.0
H1811 H 0.59673 0.49314 0.12671 0.0
H1812 H 0.61333 0.4687 0.04543 0.0
H1813 H 0.61063 0.42387 0.05922 0.0
C1814 C 0.60034 0.40412 0.10964 0.0
C1815 C 0.595 0.39661 0.13717 0.0
C1816 C 0.60214 0.43112 0.10128 0.0
C1817 C 0.59165 0.41789 0.1551 0.0
C1818 C 0.59318 0.44408 0.14695 0.0
C1819 C 0.59995 0.47827 0.11174 0.0
C1820 C 0.60549 0.48602 0.08439 0.0
C1821 C 0.59842 0.45137 0.12006 0.0
C1822 C 0.60923 0.46493 0.0664 0.0
C1823 C 0.60759 0.4386 0.07444 0.0
H1824 H 1.01235 0.34927 0.42305 0.0
H1825 H 1.03892 0.29243 0.37036 0.0
H1826 H 0.99619 0.28863 0.3388 0.0
H1827 H 0.94949 0.30091 0.32602 0.0
H1828 H 0.92634 0.36099 0.37751 0.0
H1829 H 0.96847 0.36378 0.40881 0.0
C1830 C 1.00909 0.33609 0.40458 0.0
C1831 C 1.02964 0.32112 0.39968 0.0
C1832 C 0.98439 0.33441 0.38595 0.0
C1833 C 1.02425 0.30443 0.37516 0.0
C1834 C 0.99943 0.30215 0.35699 0.0
C1835 C 0.95357 0.31465 0.34407 0.0
C1836 C 0.93376 0.33062 0.34899 0.0
C1837 C 0.97902 0.31689 0.36211 0.0
C1838 C 0.94046 0.3484 0.37262 0.0
C1839 C 0.96485 0.35001 0.3908 0.0
H1840 H 0.10367 0.74769 0.58856 0.0
H1841 H 0.07755 0.73128 0.66835 0.0
H1842 H 0.07611 0.68427 0.65718 0.0
H1843 H 0.08283 0.64593 0.62393 0.0
H1844 H 0.10708 0.6651 0.54383 0.0
H1845 H 0.10874 0.71114 0.55607 0.0
C1846 C 0.09741 0.73414 0.60384 0.0
C1847 C 0.09063 0.74456 0.6297 0.0
C1848 C 0.09648 0.70656 0.59708 0.0
C1849 C 0.08272 0.72522 0.6483 0.0
C1850 C 0.08207 0.69781 0.6418 0.0
C1851 C 0.08868 0.66002 0.60904 0.0
C1852 C 0.09506 0.65052 0.58239 0.0
C1853 C 0.08906 0.68785 0.61618 0.0
C1854 C 0.10201 0.6704 0.56418 0.0
C1855 C 0.10297 0.69733 0.57128 0.0
H1856 H 0.71547 0.84591 0.90714 0.0
H1857 H 0.66217 0.78026 0.86123 0.0
H1858 H 0.69836 0.77426 0.83289 0.0
H1859 H 0.74631 0.78709 0.81981 0.0
H1860 H 0.79846 0.85486 0.86323 0.0
H1861 H 0.76273 0.86018 0.89236 0.0
C1862 C 0.71159 0.83012 0.8911 0.0
C1863 C 0.68512 0.81337 0.88732 0.0
C1864 C 0.73292 0.82705 0.87366 0.0
C1865 C 0.68159 0.79357 0.86551 0.0
C1866 C 0.70264 0.79007 0.84894 0.0
C1867 C 0.75009 0.80319 0.8355 0.0
C1868 C 0.77623 0.82045 0.83853 0.0
C1869 C 0.7286 0.80662 0.85255 0.0
C1870 C 0.77936 0.84102 0.85952 0.0
C1871 C 0.75857 0.84412 0.87661 0.0
H1872 H 0.51921 0.61302 0.69767 0.0
H1873 H 0.44943 0.57301 0.64256 0.0
H1874 H 0.46991 0.59179 0.60282 0.0
H1875 H 0.51292 0.60743 0.5843 0.0
H1876 H 0.58545 0.63972 0.64007 0.0
H1877 H 0.55849 0.63771 0.67896 0.0
C1878 C 0.50814 0.60918 0.67697 0.0
C1879 C 0.48347 0.59105 0.6726 0.0
C1880 C 0.52084 0.61857 0.65439 0.0
C1881 C 0.46869 0.58663 0.64613 0.0
C1882 C 0.48054 0.5972 0.62348 0.0
C1883 C 0.52267 0.61473 0.60485 0.0
C1884 C 0.55131 0.62224 0.60963 0.0
C1885 C 0.5075 0.61135 0.6273 0.0
C1886 C 0.56356 0.633 0.63599 0.0
C1887 C 0.54817 0.63157 0.6583 0.0
H1888 H 0.80714 0.22265 0.94342 0.0
H1889 H 0.83297 0.29669 0.99081 0.0
H1890 H 0.83144 0.31953 0.94823 0.0
H1891 H 0.8253 0.31855 0.89733 0.0
H1892 H 0.79694 0.24508 0.84954 0.0
H1893 H 0.79659 0.22208 0.89227 0.0
C1894 C 0.81223 0.24379 0.94439 0.0
C1895 C 0.82041 0.2579 0.97031 0.0
C1896 C 0.81085 0.25695 0.9197 0.0
C1897 C 0.82663 0.28531 0.97121 0.0
C1898 C 0.82584 0.29843 0.94682 0.0
C1899 C 0.81874 0.29752 0.89627 0.0
C1900 C 0.81128 0.28357 0.87023 0.0
C1901 C 0.81832 0.28446 0.92094 0.0
C1902 C 0.80262 0.25635 0.86928 0.0
C1903 C 0.8026 0.24315 0.89373 0.0
H1904 H 0.07244 0.46161 0.17234 0.0
H1905 H 0.15593 0.45969 0.15917 0.0
H1906 H 0.14563 0.46768 0.11057 0.0
H1907 H 0.119 0.49203 0.07942 0.0
H1908 H 1.03979 0.50412 0.09777 0.0
H1909 H 1.04192 0.47587 0.13638 0.0
C1910 C 0.0882 0.46198 0.15863 0.0
C1911 C 0.11542 0.46211 0.1698 0.0
C1912 C 0.08291 0.46959 0.13167 0.0
C1913 C 0.13507 0.46082 0.15143 0.0
C1914 C 0.12928 0.46584 0.12366 0.0
C1915 C 0.10171 0.4873 0.09113 0.0
C1916 C 0.07936 0.49998 0.08622 0.0
C1917 C 0.10421 0.47297 0.11458 0.0
C1918 C 0.0571 0.49434 0.10141 0.0
C1919 C 0.05849 0.47841 0.12357 0.0
H1920 H 0.81227 0.92493 0.44725 0.0
H1921 H 0.86274 0.88462 0.50071 0.0
H1922 H 0.8731 0.85991 0.46036 0.0
H1923 H 0.86783 0.84847 0.40878 0.0
H1924 H 0.81416 0.88611 0.35579 0.0
H1925 H 0.80546 0.91216 0.39591 0.0
C1926 C 0.82568 0.91087 0.45024 0.0
C1927 C 0.83679 0.90731 0.47789 0.0
C1928 C 0.8311 0.89573 0.42641 0.0
C1929 C 0.85373 0.88833 0.48036 0.0
C1930 C 0.85975 0.87398 0.45695 0.0
C1931 C 0.85426 0.86239 0.4058 0.0
C1932 C 0.84196 0.86492 0.37829 0.0
C1933 C 0.84857 0.87729 0.42968 0.0
C1934 C 0.82417 0.88319 0.37599 0.0
C1935 C 0.81912 0.89836 0.39926 0.0
H1936 H 0.5226 0.54662 0.77734 0.0
H1937 H 0.46255 0.557 0.83224 0.0
H1938 H 0.49679 0.55748 0.87242 0.0
H1939 H 0.544 0.55643 0.8915 0.0
H1940 H 0.60347 0.54432 0.8368 0.0
H1941 H 0.56911 0.54339 0.7964 0.0
C1942 C 0.51691 0.54882 0.79809 0.0
C1943 C 0.49018 0.55195 0.80194 0.0
C1944 C 0.53662 0.54919 0.82086 0.0
C1945 C 0.483 0.5545 0.82887 0.0
C1946 C 0.50259 0.55497 0.85175 0.0
C1947 C 0.54943 0.55397 0.87064 0.0
C1948 C 0.57618 0.55119 0.86675 0.0
C1949 C 0.5295 0.55275 0.84791 0.0
C1950 C 0.58304 0.54704 0.83994 0.0
C1951 C 0.56341 0.54634 0.81704 0.0
H1952 H 0.8413 0.30596 0.11778 0.0
H1953 H 0.83477 0.22387 0.12975 0.0
H1954 H 0.84499 0.23357 0.18006 0.0
H1955 H 0.85339 0.26558 0.221 0.0
H1956 H 0.86242 0.3478 0.20767 0.0
H1957 H 0.85399 0.33782 0.15786 0.0
C1958 C 0.84225 0.29019 0.13139 0.0
C1959 C 0.83698 0.26422 0.12003 0.0
C1960 C 0.84866 0.29594 0.16019 0.0
C1961 C 0.83873 0.24405 0.13794 0.0
C1962 C 0.8445 0.24959 0.16673 0.0
C1963 C 0.85387 0.28132 0.2072 0.0
C1964 C 0.85846 0.30744 0.21837 0.0
C1965 C 0.8492 0.27549 0.17818 0.0
C1966 C 0.85908 0.32752 0.19996 0.0
C1967 C 0.85409 0.32185 0.17131 0.0
H1968 H 0.10761 0.51971 0.28618 0.0
H1969 H 0.18892 0.56258 0.31357 0.0
H1970 H 0.17085 0.58722 0.34913 0.0
H1971 H 0.13248 0.59351 0.37465 0.0
H1972 H 0.05181 0.54898 0.3477 0.0
H1973 H 0.06894 0.52904 0.30847 0.0
C1974 C 0.12143 0.53458 0.29973 0.0
C1975 C 0.14959 0.5391 0.29758 0.0
C1976 C 0.11093 0.54864 0.3198 0.0
C1977 C 0.16718 0.55856 0.31514 0.0
C1978 C 0.15685 0.57272 0.33532 0.0
C1979 C 0.11862 0.5797 0.35992 0.0
C1980 C 0.09105 0.57241 0.36422 0.0
C1981 C 0.12883 0.56751 0.33813 0.0
C1982 C 0.07309 0.555 0.34475 0.0
C1983 C 0.08295 0.5433 0.32257 0.0
H1984 H 0.82399 0.86242 0.6199 0.0
H1985 H 0.84129 0.94282 0.65155 0.0
H1986 H 0.84385 0.92866 0.69935 0.0
H1987 H 0.84345 0.89242 0.73354 0.0
H1988 H 0.82255 0.81254 0.69931 0.0
H1989 H 0.81938 0.8274 0.65269 0.0
C1990 C 0.82785 0.87712 0.6371 0.0
C1991 C 0.83208 0.90405 0.63104 0.0
C1992 C 0.82904 0.86869 0.66492 0.0
C1993 C 0.83731 0.92212 0.65454 0.0
C1994 C 0.83909 0.91385 0.68227 0.0
C1995 C 0.838 0.87814 0.71599 0.0
C1996 C 0.83334 0.8508 0.72114 0.0
C1997 C 0.83537 0.88705 0.68802 0.0
C1998 C 0.82618 0.83339 0.69717 0.0
C1999 C 0.8244 0.84198 0.66999 0.0
H2000 H 0.77415 0.44836 0.55573 0.0
H2001 H 0.84287 0.49179 0.6101 0.0
H2002 H 0.81383 0.51998 0.62779 0.0
H2003 H 0.7694 0.53331 0.62698 0.0
H2004 H 0.70093 0.49197 0.57079 0.0
H2005 H 0.72916 0.46182 0.55509 0.0
C2006 C 0.78263 0.46389 0.57157 0.0
C2007 C 0.8106 0.46805 0.58149 0.0
C2008 C 0.76587 0.48043 0.58139 0.0
C2009 C 0.82142 0.48832 0.60193 0.0
C2010 C 0.80484 0.50445 0.61213 0.0
C2011 C 0.76066 0.51781 0.61119 0.0
C2012 C 0.73308 0.51496 0.60017 0.0
C2013 C 0.77712 0.5009 0.60179 0.0
C2014 C 0.722 0.49443 0.58001 0.0
C2015 C 0.73819 0.47726 0.57082 0.0
H2016 H 0.26841 0.18292 0.57126 0.0
H2017 H 0.29891 0.12659 0.52148 0.0
H2018 H 0.25533 0.09587 0.52089 0.0
H2019 H 0.20675 0.08509 0.53327 0.0
H2020 H 0.17914 0.14074 0.58687 0.0
H2021 H 0.22251 0.17077 0.58718 0.0
C2022 C 0.2658 0.16384 0.5604 0.0
C2023 C 0.28764 0.15758 0.54629 0.0
C2024 C 0.24062 0.14579 0.56076 0.0
C2025 C 0.28316 0.13238 0.53269 0.0
C2026 C 0.25789 0.1147 0.53225 0.0
C2027 C 0.2102 0.10367 0.54528 0.0
C2028 C 0.18879 0.11013 0.5601 0.0
C2029 C 0.23618 0.12113 0.54602 0.0
C2030 C 0.19455 0.13457 0.57543 0.0
C2031 C 0.21963 0.15206 0.57551 0.0
H2032 H 0.32813 0.08363 0.84414 0.0
H2033 H 0.30022 0.03675 0.9096 0.0
H2034 H 0.32517 1.00314 0.89546 0.0
H2035 H 0.34846 0.98436 0.86034 0.0
H2036 H 0.37264 1.02865 0.79171 0.0
H2037 H 0.35621 0.06633 0.81139 0.0
C2038 C 0.32833 0.06639 0.85572 0.0
C2039 C 0.31251 0.06242 0.87776 0.0
C2040 C 0.34165 0.0466 0.8466 0.0
C2041 C 0.31234 0.03997 0.89251 0.0
C2042 C 0.32644 1.02076 0.88435 0.0
C2043 C 0.35032 1.00237 0.84984 0.0
C2044 C 0.36107 1.00368 0.82439 0.0
C2045 C 0.34008 1.02339 0.86072 0.0
C2046 C 0.36419 1.02724 0.81128 0.0
C2047 C 0.35468 0.04868 0.82244 0.0
H2048 H 0.47905 0.93287 0.07913 0.0
H2049 H 0.42161 0.97859 0.04375 0.0
H2050 H 0.45694 1.01743 0.04946 0.0
H2051 H 0.50451 0.0379 0.0607 0.0
H2052 H 0.56369 0.9935 0.09412 0.0
H2053 H 0.52729 0.95508 0.0943 0.0
C2054 C 0.47441 0.95133 0.07262 0.0
C2055 C 0.44775 0.95269 0.06073 0.0
C2056 C 0.49499 0.97398 0.07618 0.0
C2057 C 0.44191 0.97689 0.05286 0.0
C2058 C 0.46208 0.99921 0.05622 0.0
C2059 C 0.50931 1.02001 0.06882 0.0
C2060 C 0.53662 1.01848 0.07744 0.0
C2061 C 0.48866 0.99794 0.06757 0.0
C2062 C 0.54269 0.99525 0.08782 0.0
C2063 C 0.52195 0.97315 0.08735 0.0
H2064 H 0.95533 0.61261 0.80033 0.0
H2065 H 1.01767 0.67684 0.78446 0.0
H2066 H 0.98267 0.69803 0.76077 0.0
H2067 H 0.93419 0.7007 0.74995 0.0
H2068 H 0.87198 0.63774 0.76885 0.0
H2069 H 0.90716 0.61312 0.78495 0.0
C2070 C 0.96133 0.63112 0.79144 0.0
C2071 C 0.989 0.64339 0.79458 0.0
C2072 C 0.94111 0.64332 0.77827 0.0
C2073 C 0.99648 0.66714 0.78254 0.0
C2074 C 0.97648 0.67926 0.76902 0.0
C2075 C 0.92834 0.68142 0.75726 0.0
C2076 C 0.90053 0.67125 0.75866 0.0
C2077 C 0.9487 0.66789 0.76756 0.0
C2078 C 0.89319 0.64601 0.7675 0.0
C2079 C 0.91333 0.63206 0.77705 0.0
H2080 H 0.97789 0.68235 0.0647 0.0
H2081 H 0.91608 0.6181 0.02778 0.0
H2082 H 0.95084 0.59098 0.02432 0.0
H2083 H 0.99983 0.58404 0.0316 0.0
H2084 H 0.06096 0.64645 0.07327 0.0
H2085 H 1.0266 0.67441 0.0748 0.0
C2086 C 0.9718 0.66245 0.05581 0.0
C2087 C 0.94334 0.653 0.04629 0.0
C2088 C 0.99241 0.64599 0.05466 0.0
C2089 C 0.93708 0.62665 0.03537 0.0
C2090 C 0.9573 0.61082 0.03331 0.0
C2091 C 1.00587 0.60375 0.04106 0.0
C2092 C 1.03401 0.61253 0.05215 0.0
C2093 C 0.98523 0.62002 0.04284 0.0
C2094 C 1.04015 0.6384 0.0645 0.0
C2095 C 1.02018 0.65473 0.06536 0.0
H2096 H 0.29476 0.18022 0.89448 0.0
H2097 H 0.21401 0.19556 0.8694 0.0
H2098 H 0.23402 0.23656 0.85118 0.0
H2099 H 0.2746 0.2649 0.83664 0.0
H2100 H 0.35456 0.24638 0.85927 0.0
H2101 H 0.33464 0.20979 0.88389 0.0
C2102 C 0.28144 0.1927 0.8855 0.0
C2103 C 0.25296 0.18455 0.8829 0.0
C2104 C 0.29297 0.21554 0.87407 0.0
C2105 C 0.23606 0.20127 0.87162 0.0
C2106 C 0.24749 0.22464 0.86093 0.0
C2107 C 0.2876 0.25295 0.84719 0.0
C2108 C 0.31594 0.25803 0.84563 0.0
C2109 C 0.27592 0.23143 0.86104 0.0
C2110 C 0.33261 0.24256 0.85959 0.0
C2111 C 0.32129 0.2217 0.87388 0.0
H2112 H 0.52328 0.05214 0.32491 0.0
H2113 H 0.537 0.06249 0.4141 0.0
H2114 H 0.50806 1.01973 0.41735 0.0
H2115 H 0.47394 0.98235 0.39427 0.0
H2116 H 0.46026 0.97368 0.3048 0.0
H2117 H 0.49444 1.01266 0.30217 0.0
C2118 C 0.52036 0.04477 0.34508 0.0
C2119 C 0.53175 0.06046 0.36923 0.0
C2120 C 0.5035 1.0206 0.34667 0.0
C2121 C 0.52828 0.05069 0.39525 0.0
C2122 C 0.51156 1.02639 0.39706 0.0
C2123 C 0.47871 0.9889 0.37424 0.0
C2124 C 0.46439 0.97527 0.34976 0.0
C2125 C 0.49823 1.01165 0.37285 0.0
C2126 C 0.47107 0.98368 0.32394 0.0
C2127 C 0.49049 1.00609 0.3224 0.0
H2128 H 0.62033 0.43871 0.61835 0.0
H2129 H 0.63093 0.48087 0.6986 0.0
H2130 H 0.60983 0.51552 0.67793 0.0
H2131 H 0.5897 0.53371 0.63692 0.0
H2132 H 0.57946 0.49099 0.5569 0.0
H2133 H 0.59808 0.45556 0.57818 0.0
C2134 C 0.61825 0.45555 0.63137 0.0
C2135 C 0.62743 0.45757 0.65984 0.0
C2136 C 0.60562 0.47475 0.61958 0.0
C2137 C 0.62417 0.47919 0.67655 0.0
C2138 C 0.61196 0.49878 0.6648 0.0
C2139 C 0.59116 0.51648 0.62418 0.0
C2140 C 0.58359 0.51503 0.59536 0.0
C2141 C 0.60261 0.49666 0.63635 0.0
C2142 C 0.58523 0.49252 0.57913 0.0
C2143 C 0.59616 0.47245 0.5912 0.0
H2144 H 0.49714 0.81153 0.39854 0.0
H2145 H 0.47767 0.72984 0.37139 0.0
H2146 H 0.43628 0.73691 0.34287 0.0
H2147 H 0.40629 0.76686 0.32555 0.0
H2148 H 0.429 0.84926 0.35032 0.0
H2149 H 0.46895 0.84149 0.37954 0.0
C2150 C 0.48351 0.79525 0.38669 0.0
C2151 C 0.48969 0.77015 0.3874 0.0
C2152 C 0.46077 0.7997 0.36962 0.0
C2153 C 0.47275 0.74924 0.37131 0.0
C2154 C 0.44933 0.75333 0.35497 0.0
C2155 C 0.4201 0.78309 0.33723 0.0
C2156 C 0.41467 0.80853 0.33585 0.0
C2157 C 0.44325 0.77855 0.35385 0.0
C2158 C 0.4328 0.82947 0.35088 0.0
C2159 C 0.45554 0.82506 0.36779 0.0
H2160 H 0.15494 0.80601 0.18661 0.0
H2161 H 0.13912 0.81196 0.09829 0.0
H2162 H 0.13808 0.76504 0.09037 0.0
H2163 H 0.14028 0.72232 0.10894 0.0
H2164 H 0.1582 0.71702 0.19697 0.0
H2165 H 0.15976 0.76409 0.20487 0.0
C2166 C 0.15119 0.79703 0.16561 0.0
C2167 C 0.14673 0.8122 0.14305 0.0
C2168 C 0.15094 0.77035 0.16129 0.0
C2169 C 0.14252 0.80054 0.11594 0.0
C2170 C 0.14185 0.77379 0.11144 0.0
C2171 C 0.1445 0.73163 0.12979 0.0
C2172 C 0.14878 0.71662 0.15246 0.0
C2173 C 0.14578 0.75853 0.13399 0.0
C2174 C 0.15473 0.72851 0.1794 0.0
C2175 C 0.15559 0.75525 0.18384 0.0
H2176 H 0.14248 0.25812 0.91029 0.0
H2177 H 0.08385 0.23005 0.8388 0.0
H2178 H 0.12 0.23737 0.80864 0.0
H2179 H 0.16547 0.26122 0.80217 0.0
H2180 H 0.22409 0.2895 0.87381 0.0
H2181 H 0.19059 0.27278 0.90439 0.0
C2182 C 0.13783 0.25283 0.8882 0.0
C2183 C 0.11061 0.24432 0.8766 0.0
C2184 C 0.15848 0.25789 0.87098 0.0
C2185 C 0.10473 0.23692 0.84812 0.0
C2186 C 0.12532 0.24141 0.83083 0.0
C2187 C 0.17122 0.26309 0.82443 0.0
C2188 C 0.19683 0.27753 0.83573 0.0
C2189 C 0.15189 0.25342 0.84191 0.0
C2190 C 0.20402 0.27951 0.86464 0.0
C2191 C 0.18501 0.26973 0.88214 0.0
H2192 H 0.58557 0.73805 1.00665 0.0
H2193 H 0.63004 0.72868 0.93704 0.0
H2194 H 0.63125 0.68321 0.94816 0.0
H2195 H 0.61978 0.64399 0.97856 0.0
H2196 H 0.57598 0.65595 0.04835 0.0
H2197 H 0.57469 0.70042 0.03626 0.0
C2198 C 0.59571 0.72641 0.99358 0.0
C2199 C 0.60775 0.7385 0.97051 0.0
C2200 C 0.59645 0.69951 1.00032 0.0
C2201 C 0.6205 0.72146 0.95478 0.0
C2202 C 0.62115 0.69483 0.9613 0.0
C2203 C 0.6097 0.65603 0.99123 0.0
C2204 C 0.59773 0.64475 1.01494 0.0
C2205 C 0.60917 0.68319 0.98412 0.0
C2206 C 0.5854 0.6624 0.03026 0.0
C2207 C 0.58464 0.68854 1.02324 0.0
H2208 H 0.19864 0.80933 0.67794 0.0
H2209 H 0.1653 0.85826 0.73392 0.0
H2210 H 0.20736 0.86297 0.76656 0.0
H2211 H 0.25519 0.85379 0.77951 0.0
H2212 H 0.28575 0.80145 0.72471 0.0
H2213 H 0.24408 0.79758 0.69216 0.0
C2214 C 0.20033 0.82098 0.69733 0.0
C2215 C 0.17811 0.8335 0.70289 0.0
C2216 C 0.22464 0.82308 0.7166 0.0
C2217 C 0.18139 0.84821 0.7286 0.0
C2218 C 0.20578 0.851 0.7474 0.0
C2219 C 0.25276 0.84146 0.76049 0.0
C2220 C 0.27437 0.82804 0.75488 0.0
C2221 C 0.2278 0.83866 0.74172 0.0
C2222 C 0.27005 0.81206 0.72998 0.0
C2223 C 0.24598 0.80985 0.71116 0.0
H2224 H 0.11064 0.4167 0.43613 0.0
H2225 H 0.11598 0.37893 0.5128 0.0
H2226 H 0.11397 0.42001 0.53849 0.0
H2227 H 0.11057 0.4684 0.54071 0.0
H2228 H 0.10219 0.50522 0.46363 0.0
H2229 H 0.10543 0.46449 0.43818 0.0
C2230 C 0.11138 0.41712 0.45849 0.0
C2231 C 0.1137 0.39324 0.47178 0.0
C2232 C 0.10967 0.44163 0.4738 0.0
C2233 C 0.11429 0.39581 0.50108 0.0
C2234 C 0.11315 0.41985 0.51613 0.0
C2235 C 0.10954 0.46787 0.51832 0.0
C2236 C 0.10629 0.4915 0.50488 0.0
C2237 C 0.11086 0.44323 0.503 0.0
C2238 C 0.10471 0.4886 0.4755 0.0
C2239 C 0.1066 0.46476 0.46056 0.0
H2240 H 0.48231 0.30122 0.18064 0.0
H2241 H 0.54439 0.33228 0.2482 0.0
H2242 H 0.50922 0.33394 0.27906 0.0
H2243 H 0.45953 0.32677 0.28862 0.0
H2244 H 0.39785 0.29168 0.22225 0.0
H2245 H 0.43285 0.2914 0.19098 0.0
C2246 C 0.48844 0.30843 0.20206 0.0
C2247 C 0.51722 0.31688 0.21115 0.0
C2248 C 0.46743 0.3086 0.22078 0.0
C2249 C 0.52326 0.32561 0.23964 0.0
C2250 C 0.50274 0.32662 0.2577 0.0
C2251 C 0.45345 0.31901 0.26735 0.0
C2252 C 0.42481 0.30926 0.25867 0.0
C2253 C 0.47451 0.31821 0.24882 0.0
C2254 C 0.41889 0.29923 0.23055 0.0
C2255 C 0.4393 0.29915 0.2122 0.0
H2256 H 0.73585 0.57101 0.47464 0.0
H2257 H 0.69806 0.62603 0.428 0.0
H2258 H 0.65864 0.61814 0.45381 0.0
H2259 H 0.63348 0.593 0.48606 0.0
H2260 H 0.67012 0.5383 0.53446 0.0
H2261 H 0.71145 0.54807 0.51095 0.0
C2262 C 0.71932 0.5818 0.47093 0.0
C2263 C 0.71967 0.5992 0.44979 0.0
C2264 C 0.69629 0.57648 0.48528 0.0
C2265 C 0.69806 0.61273 0.44443 0.0
C2266 C 0.67546 0.60798 0.45888 0.0
C2267 C 0.6503 0.58287 0.49129 0.0
C2268 C 0.6485 0.56434 0.51127 0.0
C2269 C 0.67399 0.58926 0.47858 0.0
C2270 C 0.67089 0.55217 0.51856 0.0
C2271 C 0.69456 0.55798 0.50538 0.0
H2272 H 0.39511 0.85357 0.1377 0.0
H2273 H 0.34645 0.91406 0.14035 0.0
H2274 H 0.34053 0.90648 0.1887 0.0
H2275 H 0.34752 0.88138 0.22985 0.0
H2276 H 0.39516 0.82023 0.22623 0.0
H2277 H 0.40343 0.82965 0.17891 0.0
C2278 C 0.38326 0.86517 0.14879 0.0
C2279 C 0.37118 0.88427 0.13519 0.0
C2280 C 0.37986 0.86072 0.17659 0.0
C2281 C 0.35602 0.89915 0.15016 0.0
C2282 C 0.35262 0.89487 0.17785 0.0
C2283 C 0.36013 0.87041 0.21882 0.0
C2284 C 0.37079 0.85015 0.2316 0.0
C2285 C 0.3643 0.87559 0.19129 0.0
C2286 C 0.38669 0.83589 0.21691 0.0
C2287 C 0.39133 0.84125 0.1898 0.0
H2288 H 0.05558 0.65486 0.9242 0.0
H2289 H 0.12285 0.63718 0.88283 0.0
H2290 H 0.14786 0.63138 0.92713 0.0
H2291 H 0.14563 0.6213 0.97565 0.0
H2292 H 0.07936 0.63982 1.01772 0.0
H2293 H 0.05925 0.65588 0.97538 0.0
C2294 C 0.07608 0.65062 0.92498 0.0
C2295 C 0.08689 0.64545 0.90023 0.0
C2296 C 0.09039 0.64709 0.95063 0.0
C2297 C 0.11371 0.64051 0.90157 0.0
C2298 C 0.12807 0.63712 0.92691 0.0
C2299 C 0.12741 0.62988 0.97577 0.0
C2300 C 0.11368 0.62897 0.99941 0.0
C2301 C 0.11588 0.6388 0.95132 0.0
C2302 C 0.09021 0.64024 0.99962 0.0
C2303 C 0.07854 0.64918 0.97531 0.0
H2304 H 0.34152 0.25492 0.62441 0.0
H2305 H 0.40919 0.21567 0.64446 0.0
H2306 H 0.41321 0.23352 0.69315 0.0
H2307 H 0.39728 0.26166 0.73124 0.0
H2308 H 0.32844 0.2988 0.7074 0.0
H2309 H 0.32571 0.2808 0.66024 0.0
C2310 C 0.35739 0.24999 0.6391 0.0
C2311 C 0.37508 0.2336 0.62957 0.0
C2312 C 0.35952 0.26035 0.66722 0.0
C2313 C 0.39503 0.22789 0.65016 0.0
C2314 C 0.39739 0.23835 0.67836 0.0
C2315 C 0.38169 0.26594 0.7158 0.0
C2316 C 0.36303 0.28215 0.72413 0.0
C2317 C 0.37979 0.25487 0.6874 0.0
C2318 C 0.34313 0.28671 0.70288 0.0
C2319 C 0.34148 0.27629 0.67536 0.0
H2320 H 0.74864 0.61961 0.30116 0.0
H2321 H 0.70747 0.54101 0.30903 0.0
H2322 H 0.68657 0.5382 0.26088 0.0
H2323 H 0.67175 0.56182 0.22151 0.0
H2324 H 0.70865 0.64221 0.21562 0.0
H2325 H 0.73981 0.64081 0.25782 0.0
C2326 C 0.7362 0.60148 0.29173 0.0
C2327 C 0.72959 0.58046 0.30819 0.0
C2328 C 0.72283 0.60076 0.26476 0.0
C2329 C 0.71296 0.55722 0.29637 0.0
C2330 C 0.70071 0.55581 0.26906 0.0
C2331 C 0.68702 0.57883 0.22926 0.0
C2332 C 0.68761 0.60226 0.21615 0.0
C2333 C 0.70411 0.57805 0.25381 0.0
C2334 C 0.70776 0.62408 0.22573 0.0
C2335 C 0.72545 0.62328 0.24984 0.0
H2336 H 0.34648 0.91895 0.96275 0.0
H2337 H 0.3704 0.85111 0.99832 0.0
H2338 H 0.36598 0.82915 0.95196 0.0
H2339 H 0.3558 0.82939 0.90113 0.0
H2340 H 0.33186 0.89746 0.86586 0.0
H2341 H 0.33549 0.91889 0.91219 0.0
C2342 C 0.35082 0.89939 0.9604 0.0
C2343 C 0.35889 0.88678 0.98409 0.0
C2344 C 0.348 0.88677 0.93366 0.0
C2345 C 0.36423 0.86133 0.98054 0.0
C2346 C 0.36164 0.84872 0.95399 0.0
C2347 C 0.35106 0.84878 0.90354 0.0
C2348 C 0.34343 0.86166 0.87984 0.0
C2349 C 0.35349 0.86123 0.93037 0.0
C2350 C 0.33768 0.88695 0.88356 0.0
C2351 C 0.33986 0.89933 0.91012 0.0
H2352 H 0.08357 0.53212 0.79972 0.0
H2353 H 1.03166 0.57823 0.75568 0.0
H2354 H 1.03347 0.55318 0.71228 0.0
H2355 H 0.05787 0.52535 0.6864 0.0
H2356 H 0.11305 0.48219 0.73009 0.0
H2357 H 0.1011 0.49821 0.7744 0.0
C2358 C 0.07234 0.53645 0.78066 0.0
C2359 C 0.05826 0.55752 0.78062 0.0
C2360 C 0.07401 0.52242 0.75585 0.0
C2361 C 1.04303 0.56239 0.75608 0.0
C2362 C 1.0441 0.54809 0.7313 0.0
C2363 C 0.06633 0.51845 0.70555 0.0
C2364 C 0.08659 0.50289 0.70509 0.0
C2365 C 0.06062 0.52898 0.7308 0.0
C2366 C 0.09754 0.49428 0.73005 0.0
C2367 C 0.09098 0.50373 0.75533 0.0
H2368 H 0.38434 0.26074 0.48416 0.0
H2369 H 0.35483 0.18214 0.44892 0.0
H2370 H 0.34871 0.1984 0.40268 0.0
H2371 H 0.35139 0.23518 0.37052 0.0
H2372 H 0.3841 0.31348 0.40517 0.0
H2373 H 0.38913 0.29738 0.45159 0.0
C2374 C 0.37646 0.247 0.4665 0.0
C2375 C 0.36988 0.21972 0.47118 0.0
C2376 C 0.37356 0.25664 0.43896 0.0
C2377 C 0.36012 0.20297 0.44703 0.0
C2378 C 0.35657 0.21241 0.42012 0.0
C2379 C 0.35978 0.24892 0.38807 0.0
C2380 C 0.36729 0.27606 0.38316 0.0
C2381 C 0.3632 0.23925 0.41552 0.0
C2382 C 0.37813 0.29273 0.40716 0.0
C2383 C 0.38097 0.28339 0.4342 0.0
H2384 H 0.40563 0.71269 0.51879 0.0
H2385 H 0.35786 0.6603 0.56853 0.0
H2386 H 0.38694 0.62814 0.56259 0.0
H2387 H 0.42304 0.61337 0.54015 0.0
H2388 H 0.47219 0.6654 0.49113 0.0
H2389 H 0.4448 0.69886 0.49907 0.0
C2390 C 0.40204 0.69447 0.52879 0.0
C2391 C 0.37966 0.68881 0.54401 0.0
C2392 C 0.41853 0.67572 0.52477 0.0
C2393 C 0.37494 0.66502 0.55661 0.0
C2394 C 0.39144 0.64655 0.55311 0.0
C2395 C 0.42818 0.63215 0.53155 0.0
C2396 C 0.44963 0.63672 0.51498 0.0
C2397 C 0.41282 0.65144 0.53668 0.0
C2398 C 0.45545 0.66107 0.50352 0.0
C2399 C 0.44 0.68037 0.50832 0.0
H2400 H 0.93985 0.95282 0.52928 0.0
H2401 H 0.90257 1.01042 0.56947 0.0
H2402 H 0.94594 0.04195 0.57254 0.0
H2403 H 0.99619 0.05331 0.56472 0.0
H2404 H 1.03081 0.99459 0.5225 0.0
H2405 H 0.98764 0.96431 0.51959 0.0
C2406 C 0.94088 0.97228 0.53871 0.0
C2407 C 0.91715 0.97865 0.54921 0.0
C2408 C 0.96605 0.99056 0.54017 0.0
C2409 C 0.91981 1.0044 0.56104 0.0
C2410 C 0.94495 1.0226 0.56289 0.0
C2411 C 0.99437 0.03396 0.55473 0.0
C2412 C 1.01777 1.02685 0.54386 0.0
C2413 C 0.96851 1.01598 0.55268 0.0
C2414 C 1.014 1.00134 0.53107 0.0
C2415 C 0.98897 0.98367 0.52939 0.0
H2416 H 0.87567 0.08235 0.24708 0.0
H2417 H 0.94589 0.14217 0.24076 0.0
H2418 H 0.91765 0.17568 0.24299 0.0
H2419 H 0.87471 0.18821 0.2523 0.0
H2420 H 0.8056 0.1293 0.26402 0.0
H2421 H 0.83147 0.09495 0.25353 0.0
C2422 C 0.88463 0.1027 0.24579 0.0
C2423 C 0.91278 0.1099 0.24398 0.0
C2424 C 0.86847 0.12191 0.24801 0.0
C2425 C 0.92429 0.13627 0.24247 0.0
C2426 C 0.90817 0.1554 0.24367 0.0
C2427 C 0.86504 0.16783 0.25167 0.0
C2428 C 0.83827 0.16113 0.25851 0.0
C2429 C 0.88045 0.14848 0.24714 0.0
C2430 C 0.82614 0.13474 0.2585 0.0
C2431 C 0.84099 0.1152 0.25275 0.0
H2432 H 0.71692 0.20276 1.00233 0.0
H2433 H 0.77002 0.17274 0.06371 0.0
H2434 H 0.7367 0.13264 0.0631 0.0
H2435 H 0.6922 0.10621 0.04614 0.0
H2436 H 0.63837 0.13531 0.98476 0.0
H2437 H 0.67229 0.1751 0.98393 0.0
C2438 C 0.72097 0.18751 1.01571 0.0
C2439 C 0.74583 0.19082 0.03313 0.0
C2440 C 0.70177 0.16406 1.01497 0.0
C2441 C 0.75103 0.1707 0.05007 0.0
C2442 C 0.73204 0.14767 0.0497 0.0
C2443 C 0.68807 0.12098 0.03215 0.0
C2444 C 0.6628 0.11766 1.01551 0.0
C2445 C 0.7074 0.14406 0.03218 0.0
C2446 C 0.65771 0.13728 0.99779 0.0
C2447 C 0.67702 0.16019 0.99744 0.0
H2448 H 0.23407 0.494 0.29098 0.0
H2449 H 0.24186 0.46919 0.20691 0.0
H2450 H 0.28642 0.45762 0.2222 0.0
H2451 H 0.31996 0.44997 0.26061 0.0
H2452 H 0.31207 0.47555 0.34441 0.0
H2453 H 0.27112 0.49273 0.3281 0.0
C2454 C 0.24565 0.48606 0.27609 0.0
C2455 C 0.23468 0.48149 0.24813 0.0
C2456 C 0.27129 0.48025 0.28495 0.0
C2457 C 0.24993 0.47218 0.22865 0.0
C2458 C 0.27535 0.4658 0.23737 0.0
C2459 C 0.30983 0.46033 0.27503 0.0
C2460 C 0.31882 0.46178 0.30355 0.0
C2461 C 0.28591 0.46926 0.26556 0.0
C2462 C 0.30557 0.47473 0.32233 0.0
C2463 C 0.28195 0.48405 0.31306 0.0
H2464 H 0.2281 0.45399 0.02889 0.0
H2465 H 0.28532 0.51354 0.08002 0.0
H2466 H 0.25007 0.54021 0.08205 0.0
H2467 H 0.20223 0.54832 0.06937 0.0
H2468 H 0.14501 0.49002 1.01676 0.0
H2469 H 0.17988 0.46253 1.01551 0.0
C2470 C 0.23306 0.47271 0.04068 0.0
C2471 C 0.26045 0.48097 0.0545 0.0
C2472 C 0.21208 0.48887 0.0415 0.0
C2473 C 0.26523 0.50585 0.06913 0.0
C2474 C 0.24471 0.52146 0.07032 0.0
C2475 C 0.1971 0.52963 0.0575 0.0
C2476 C 0.16994 0.52199 0.04311 0.0
C2477 C 0.21792 0.51347 0.05656 0.0
C2478 C 0.165 0.49727 0.02809 0.0
C2479 C 0.1853 0.4812 0.02739 0.0
H2480 H 0.97844 0.95618 0.25902 0.0
H2481 H 0.90592 0.9867 0.23164 0.0
H2482 H 0.87729 0.94579 0.24041 0.0
H2483 H 0.87261 0.90315 0.25953 0.0
H2484 H 0.94468 0.87247 0.28791 0.0
H2485 H 0.97373 0.9117 0.27483 0.0
C2486 C 0.9564 0.95376 0.25455 0.0
C2487 C 0.94439 0.97463 0.24499 0.0
C2488 C 0.93995 0.93031 0.2601 0.0
C2489 C 0.91577 0.97108 0.23928 0.0
C2490 C 0.89933 0.94772 0.24434 0.0
C2491 C 0.8947 0.90494 0.26283 0.0
C2492 C 0.90646 0.88509 0.27512 0.0
C2493 C 0.91118 0.92751 0.25545 0.0
C2494 C 0.93508 0.88756 0.27872 0.0
C2495 C 0.95169 0.91 0.27125 0.0
H2496 H 0.67768 0.06045 0.75051 0.0
H2497 H 0.61775 0.09669 0.78718 0.0
H2498 H 0.6451 0.14002 0.78268 0.0
H2499 H 0.68772 0.16712 0.77084 0.0
H2500 H 0.74762 0.12941 0.73578 0.0
H2501 H 0.71856 0.08692 0.73731 0.0
C2502 C 0.67047 0.07783 0.75742 0.0
C2503 C 0.64588 0.07547 0.76935 0.0
C2504 C 0.68642 0.10231 0.75527 0.0
C2505 C 0.63656 0.0981 0.77777 0.0
C2506 C 0.65231 0.12279 0.77543 0.0
C2507 C 0.69438 0.14955 0.76365 0.0
C2508 C 0.71981 0.15137 0.75327 0.0
C2509 C 0.67756 0.12507 0.76471 0.0
C2510 C 0.72806 0.12853 0.74362 0.0
C2511 C 0.71151 0.10424 0.74456 0.0
loop_
_geom_bond_atom_site_label_1
_geom_bond_atom_site_label_2
_geom_bond_distance
_geom_bond_site_symmetry_2
_ccdc_geom_bond_type
Co0 O1 2.216 . S
Co0 O2 2.091 . S
Co0 O4 2.004 . S
Co0 O10 2.021 . S
Co0 O12 2.137 . S
Co0 O13 2.244 . S
O1 Co0 2.216 . S
O1 C8 1.247 . S
O2 Co0 2.091 . S
O2 C8 1.261 . S
C3 O12 1.247 . S
C3 O13 1.272 . S
O4 Co0 2.004 . S
O4 C9 1.259 . S
Co5 O6 2.067 . S
Co5 O11 2.052 . S
Co5 O13 2.135 . S
O6 Co5 2.067 . S
O6 C9 1.239 . S
C7 O10 1.238 . S
C7 O11 1.241 . S
C8 O1 1.247 . S
C8 O2 1.261 . S
C9 O4 1.259 . S
C9 O6 1.239 . S
O10 Co0 2.021 . S
O10 C7 1.238 . S
O11 Co5 2.052 . S
O11 C7 1.241 . S
O12 Co0 2.137 . S
O12 C3 1.247 . S
O13 Co0 2.244 . S
O13 C3 1.272 . S
O13 Co5 2.135 . S
Co14 O15 2.216 . S
Co14 O16 2.091 . S
Co14 O18 2.004 . S
Co14 O24 2.021 . S
Co14 O26 2.137 . S
Co14 O27 2.244 . S
O15 Co14 2.216 . S
O15 C22 1.247 . S
O16 Co14 2.091 . S
O16 C22 1.261 . S
C17 O26 1.247 . S
C17 O27 1.272 . S
O18 Co14 2.004 . S
O18 C23 1.259 . S
Co19 O20 2.061 . S
Co19 O25 2.052 . S
Co19 O27 2.135 . S
O20 Co19 2.061 . S
O20 C23 1.235 . S
C21 O24 1.238 . S
C21 O25 1.241 . S
C22 O15 1.247 . S
C22 O16 1.261 . S
C23 O18 1.259 . S
C23 O20 1.235 . S
O24 Co14 2.021 . S
O24 C21 1.238 . S
O25 Co19 2.052 . S
O25 C21 1.241 . S
O26 Co14 2.137 . S
O26 C17 1.247 . S
O27 Co14 2.244 . S
O27 C17 1.272 . S
O27 Co19 2.135 . S
Co28 O29 2.216 . S
Co28 O30 2.091 . S
Co28 O32 2.004 . S
Co28 O38 2.021 . S
Co28 O40 2.137 . S
Co28 O41 2.244 . S
O29 Co28 2.216 . S
O29 C36 1.247 . S
O30 Co28 2.091 . S
O30 C36 1.261 . S
C31 O40 1.247 . S
C31 O41 1.272 . S
O32 Co28 2.004 . S
O32 C37 1.259 . S
Co33 O34 2.061 . S
Co33 O39 2.052 . S
Co33 O41 2.135 . S
O34 Co33 2.061 . S
O34 C37 1.235 . S
C35 O38 1.238 . S
C35 O39 1.241 . S
C36 O29 1.247 . S
C36 O30 1.261 . S
C37 O32 1.259 . S
C37 O34 1.235 . S
O38 Co28 2.021 . S
O38 C35 1.238 . S
O39 Co33 2.052 . S
O39 C35 1.241 . S
O40 Co28 2.137 . S
O40 C31 1.247 . S
O41 Co28 2.244 . S
O41 C31 1.272 . S
O41 Co33 2.135 . S
Co42 O43 2.216 . S
Co42 O44 2.091 . S
Co42 O46 2.004 . S
Co42 O52 2.021 . S
Co42 O54 2.137 . S
Co42 O55 2.244 . S
O43 Co42 2.216 . S
O43 C50 1.247 . S
O44 Co42 2.091 . S
O44 C50 1.261 . S
C45 O54 1.247 . S
C45 O55 1.272 . S
O46 Co42 2.004 . S
O46 C51 1.259 . S
Co47 O48 2.061 . S
Co47 O53 2.052 . S
Co47 O55 2.135 . S
O48 Co47 2.061 . S
O48 C51 1.235 . S
C49 O52 1.238 . S
C49 O53 1.241 . S
C50 O43 1.247 . S
C50 O44 1.261 . S
C51 O46 1.259 . S
C51 O48 1.235 . S
O52 Co42 2.021 . S
O52 C49 1.238 . S
O53 Co47 2.052 . S
O53 C49 1.241 . S
O54 Co42 2.137 . S
O54 C45 1.247 . S
O55 Co42 2.244 . S
O55 C45 1.272 . S
O55 Co47 2.135 . S
Co56 O57 2.216 . S
Co56 O58 2.091 . S
Co56 O60 2.004 . S
Co56 O66 2.021 . S
Co56 O68 2.137 . S
Co56 O69 2.244 . S
O57 Co56 2.216 . S
O57 C64 1.247 . S
O58 Co56 2.091 . S
O58 C64 1.261 . S
C59 O68 1.247 . S
C59 O69 1.272 . S
O60 Co56 2.004 . S
O60 C65 1.259 . S
Co61 O62 2.061 . S
Co61 O67 2.052 . S
Co61 O69 2.135 . S
O62 Co61 2.061 . S
O62 C65 1.235 . S
C63 O66 1.238 . S
C63 O67 1.241 . S
C64 O57 1.247 . S
C64 O58 1.261 . S
C65 O60 1.259 . S
C65 O62 1.235 . S
O66 Co56 2.021 . S
O66 C63 1.238 . S
O67 Co61 2.052 . S
O67 C63 1.241 . S
O68 Co56 2.137 . S
O68 C59 1.247 . S
O69 Co56 2.244 . S
O69 C59 1.272 . S
O69 Co61 2.135 . S
Co70 O71 2.216 . S
Co70 O72 2.091 . S
Co70 O74 2.004 . S
Co70 O80 2.021 . S
Co70 O82 2.137 . S
Co70 O83 2.244 . S
O71 Co70 2.216 . S
O71 C78 1.247 . S
O72 Co70 2.091 . S
O72 C78 1.261 . S
C73 O82 1.247 . S
C73 O83 1.272 . S
O74 Co70 2.004 . S
O74 C79 1.259 . S
Co75 O76 2.061 . S
Co75 O81 2.052 . S
Co75 O83 2.135 . S
O76 Co75 2.061 . S
O76 C79 1.235 . S
C77 O80 1.238 . S
C77 O81 1.241 . S
C78 O71 1.247 . S
C78 O72 1.261 . S
C79 O74 1.259 . S
C79 O76 1.235 . S
O80 Co70 2.021 . S
O80 C77 1.238 . S
O81 Co75 2.052 . S
O81 C77 1.241 . S
O82 Co70 2.137 . S
O82 C73 1.247 . S
O83 Co70 2.244 . S
O83 C73 1.272 . S
O83 Co75 2.135 . S
Co84 O85 2.216 . S
Co84 O86 2.091 . S
Co84 O88 2.004 . S
Co84 O94 2.021 . S
Co84 O96 2.137 . S
Co84 O97 2.244 . S
O85 Co84 2.216 . S
O85 C92 1.247 . S
O86 Co84 2.091 . S
O86 C92 1.261 . S
C87 O96 1.247 . S
C87 O97 1.272 . S
O88 Co84 2.004 . S
O88 C93 1.259 . S
Co89 O90 2.061 . S
Co89 O95 2.052 . S
Co89 O97 2.135 . S
O90 Co89 2.061 . S
O90 C93 1.235 . S
C91 O94 1.238 . S
C91 O95 1.241 . S
C92 O85 1.247 . S
C92 O86 1.261 . S
C93 O88 1.259 . S
C93 O90 1.235 . S
O94 Co84 2.021 . S
O94 C91 1.238 . S
O95 Co89 2.052 . S
O95 C91 1.241 . S
O96 Co84 2.137 . S
O96 C87 1.247 . S
O97 Co84 2.244 . S
O97 C87 1.272 . S
O97 Co89 2.135 . S
Co98 O99 2.216 . S
Co98 O100 2.091 . S
Co98 O102 2.004 1_455 S
Co98 O108 2.022 1_455 S
Co98 O110 2.137 . S
Co98 O111 2.244 1_455 S
O99 Co98 2.216 . S
O99 C106 1.247 . S
O100 Co98 2.091 . S
O100 C106 1.261 . S
C101 O110 1.247 . S
C101 O111 1.272 1_455 S
O102 Co98 2.004 1_655 S
O102 C107 1.259 . S
Co103 O104 2.061 . S
Co103 O109 2.052 . S
Co103 O111 2.135 . S
O104 Co103 2.061 . S
O104 C107 1.235 . S
C105 O108 1.246 . S
C105 O109 1.241 . S
C106 O99 1.247 . S
C106 O100 1.261 . S
C107 O102 1.259 . S
C107 O104 1.235 . S
O108 Co98 2.022 1_655 S
O108 C105 1.246 . S
O109 Co103 2.052 . S
O109 C105 1.241 . S
O110 Co98 2.137 . S
O110 C101 1.247 . S
O111 Co98 2.244 1_655 S
O111 C101 1.272 1_655 S
O111 Co103 2.135 . S
Co112 O113 2.216 . S
Co112 O114 2.091 . S
Co112 O116 2.004 . S
Co112 O122 2.021 . S
Co112 O124 2.137 . S
Co112 O125 2.244 . S
O113 Co112 2.216 . S
O113 C120 1.247 . S
O114 Co112 2.091 . S
O114 C120 1.261 . S
C115 O124 1.247 . S
C115 O125 1.272 . S
O116 Co112 2.004 . S
O116 C121 1.259 . S
Co117 O118 2.061 . S
Co117 O123 2.052 . S
Co117 O125 2.135 . S
O118 Co117 2.061 . S
O118 C121 1.235 . S
C119 O122 1.238 . S
C119 O123 1.241 . S
C120 O113 1.247 . S
C120 O114 1.261 . S
C121 O116 1.259 . S
C121 O118 1.235 . S
O122 Co112 2.021 . S
O122 C119 1.238 . S
O123 Co117 2.052 . S
O123 C119 1.241 . S
O124 Co112 2.137 . S
O124 C115 1.247 . S
O125 Co112 2.244 . S
O125 C115 1.272 . S
O125 Co117 2.135 . S
Co126 O127 2.216 . S
Co126 O128 2.091 . S
Co126 O130 2.004 . S
Co126 O136 2.021 . S
Co126 O138 2.137 . S
Co126 O139 2.244 . S
O127 Co126 2.216 . S
O127 C134 1.247 . S
O128 Co126 2.091 . S
O128 C134 1.261 . S
C129 O138 1.247 . S
C129 O139 1.272 . S
O130 Co126 2.004 . S
O130 C135 1.259 . S
Co131 O132 2.061 . S
Co131 O137 2.052 . S
Co131 O139 2.135 . S
O132 Co131 2.061 . S
O132 C135 1.235 . S
C133 O136 1.238 . S
C133 O137 1.241 . S
C134 O127 1.247 . S
C134 O128 1.261 . S
C135 O130 1.259 . S
C135 O132 1.235 . S
O136 Co126 2.021 . S
O136 C133 1.238 . S
O137 Co131 2.052 . S
O137 C133 1.241 . S
O138 Co126 2.137 . S
O138 C129 1.247 . S
O139 Co126 2.244 . S
O139 C129 1.272 . S
O139 Co131 2.135 . S
Co140 O141 2.216 . S
Co140 O142 2.091 . S
Co140 O144 2.004 . S
Co140 O150 2.021 . S
Co140 O152 2.137 . S
Co140 O153 2.244 . S
O141 Co140 2.216 . S
O141 C148 1.247 . S
O142 Co140 2.091 . S
O142 C148 1.261 . S
C143 O152 1.247 . S
C143 O153 1.272 . S
O144 Co140 2.004 . S
O144 C149 1.259 . S
Co145 O146 2.061 . S
Co145 O151 2.052 . S
Co145 O153 2.135 . S
O146 Co145 2.061 . S
O146 C149 1.235 . S
C147 O150 1.238 . S
C147 O151 1.241 . S
C148 O141 1.247 . S
C148 O142 1.261 . S
C149 O144 1.259 . S
C149 O146 1.235 . S
O150 Co140 2.021 . S
O150 C147 1.238 . S
O151 Co145 2.052 . S
O151 C147 1.241 . S
O152 Co140 2.137 . S
O152 C143 1.247 . S
O153 Co140 2.244 . S
O153 C143 1.272 . S
O153 Co145 2.135 . S
Co154 O155 2.216 . S
Co154 O156 2.091 . S
Co154 O158 2.004 . S
Co154 O164 2.021 . S
Co154 O166 2.137 . S
Co154 O167 2.244 . S
O155 Co154 2.216 . S
O155 C162 1.247 . S
O156 Co154 2.091 . S
O156 C162 1.261 . S
C157 O166 1.247 . S
C157 O167 1.272 . S
O158 Co154 2.004 . S
O158 C163 1.259 . S
Co159 O160 2.061 . S
Co159 O165 2.052 . S
Co159 O167 2.135 . S
O160 Co159 2.061 . S
O160 C163 1.235 . S
C161 O164 1.238 . S
C161 O165 1.241 . S
C162 O155 1.247 . S
C162 O156 1.261 . S
C163 O158 1.259 . S
C163 O160 1.235 . S
O164 Co154 2.021 . S
O164 C161 1.238 . S
O165 Co159 2.052 . S
O165 C161 1.241 . S
O166 Co154 2.137 . S
O166 C157 1.247 . S
O167 Co154 2.244 . S
O167 C157 1.272 . S
O167 Co159 2.135 . S
Co168 O169 2.216 . S
Co168 O170 2.091 . S
Co168 O172 2.004 . S
Co168 O178 2.021 . S
Co168 O180 2.137 1_554 S
Co168 O181 2.244 . S
O169 Co168 2.216 . S
O169 C176 1.247 . S
O170 Co168 2.091 . S
O170 C176 1.261 . S
C171 O180 1.247 . S
C171 O181 1.272 1_556 S
O172 Co168 2.004 . S
O172 C177 1.259 . S
Co173 O174 2.061 . S
Co173 O179 2.052 . S
Co173 O181 2.135 . S
O174 Co173 2.061 . S
O174 C177 1.235 . S
C175 O178 1.238 . S
C175 O179 1.241 . S
C176 O169 1.247 . S
C176 O170 1.261 . S
C177 O172 1.259 . S
C177 O174 1.235 . S
O178 Co168 2.021 . S
O178 C175 1.238 . S
O179 Co173 2.052 . S
O179 C175 1.241 . S
O180 Co168 2.137 1_556 S
O180 C171 1.247 . S
O181 Co168 2.244 . S
O181 C171 1.272 1_554 S
O181 Co173 2.135 . S
Co182 O183 2.216 1_556 S
Co182 O184 2.089 1_556 S
Co182 O186 2.004 . S
Co182 O192 2.021 1_556 S
Co182 O194 2.137 . S
Co182 O195 2.244 . S
O183 Co182 2.216 1_554 S
O183 C190 1.247 . S
O184 Co182 2.089 1_554 S
O184 C190 1.259 . S
C185 O194 1.247 . S
C185 O195 1.272 . S
O186 Co182 2.004 . S
O186 C191 1.259 . S
Co187 O188 2.061 . S
Co187 O193 2.052 1_556 S
Co187 O195 2.135 . S
O188 Co187 2.061 . S
O188 C191 1.235 . S
C189 O192 1.238 . S
C189 O193 1.241 . S
C190 O183 1.247 . S
C190 O184 1.259 . S
C191 O186 1.259 . S
C191 O188 1.235 . S
O192 Co182 2.021 1_554 S
O192 C189 1.238 . S
O193 Co187 2.052 1_554 S
O193 C189 1.241 . S
O194 Co182 2.137 . S
O194 C185 1.247 . S
O195 Co182 2.244 . S
O195 C185 1.272 . S
O195 Co187 2.135 . S
Co196 O197 2.216 . S
Co196 O198 2.091 . S
Co196 O200 2.004 . S
Co196 O206 2.021 . S
Co196 O208 2.137 . S
Co196 O209 2.244 . S
O197 Co196 2.216 . S
O197 C204 1.247 . S
O198 Co196 2.091 . S
O198 C204 1.261 . S
C199 O208 1.247 . S
C199 O209 1.272 . S
O200 Co196 2.004 . S
O200 C205 1.259 . S
Co201 O202 2.061 . S
Co201 O207 2.052 . S
Co201 O209 2.135 . S
O202 Co201 2.061 . S
O202 C205 1.235 . S
C203 O206 1.238 . S
C203 O207 1.241 . S
C204 O197 1.247 . S
C204 O198 1.261 . S
C205 O200 1.259 . S
C205 O202 1.235 . S
O206 Co196 2.021 . S
O206 C203 1.238 . S
O207 Co201 2.052 . S
O207 C203 1.241 . S
O208 Co196 2.137 . S
O208 C199 1.247 . S
O209 Co196 2.244 . S
O209 C199 1.272 . S
O209 Co201 2.135 . S
Co210 O211 2.216 . S
Co210 O212 2.091 . S
Co210 O214 2.004 . S
Co210 O220 2.021 . S
Co210 O222 2.137 . S
Co210 O223 2.244 . S
O211 Co210 2.216 . S
O211 C218 1.247 . S
O212 Co210 2.091 . S
O212 C218 1.261 . S
C213 O222 1.247 . S
C213 O223 1.272 . S
O214 Co210 2.004 . S
O214 C219 1.259 . S
Co215 O216 2.061 . S
Co215 O221 2.052 . S
Co215 O223 2.135 . S
O216 Co215 2.061 . S
O216 C219 1.235 . S
C217 O220 1.238 . S
C217 O221 1.241 . S
C218 O211 1.247 . S
C218 O212 1.261 . S
C219 O214 1.259 . S
C219 O216 1.235 . S
O220 Co210 2.021 . S
O220 C217 1.238 . S
O221 Co215 2.052 . S
O221 C217 1.241 . S
O222 Co210 2.137 . S
O222 C213 1.247 . S
O223 Co210 2.244 . S
O223 C213 1.272 . S
O223 Co215 2.135 . S
Co224 O225 2.216 . S
Co224 O226 2.091 . S
Co224 O228 2.004 1_545 S
Co224 O234 2.021 . S
Co224 O236 2.137 . S
Co224 O237 2.244 1_545 S
O225 Co224 2.216 . S
O225 C232 1.247 . S
O226 Co224 2.091 . S
O226 C232 1.261 . S
C227 O236 1.247 . S
C227 O237 1.272 1_545 S
O228 Co224 2.004 1_565 S
O228 C233 1.259 . S
Co229 O230 2.061 . S
Co229 O235 2.052 . S
Co229 O237 2.135 . S
O230 Co229 2.061 . S
O230 C233 1.235 . S
C231 O234 1.238 1_565 S
C231 O235 1.241 . S
C232 O225 1.247 . S
C232 O226 1.261 . S
C233 O228 1.259 . S
C233 O230 1.235 . S
O234 Co224 2.021 . S
O234 C231 1.238 1_545 S
O235 Co229 2.052 . S
O235 C231 1.241 . S
O236 Co224 2.137 . S
O236 C227 1.247 . S
O237 Co224 2.244 1_565 S
O237 C227 1.272 1_565 S
O237 Co229 2.135 . S
Co238 O239 2.216 . S
Co238 O240 2.091 . S
Co238 O242 2.004 . S
Co238 O248 2.021 . S
Co238 O250 2.137 . S
Co238 O251 2.244 . S
O239 Co238 2.216 . S
O239 C246 1.247 . S
O240 Co238 2.091 . S
O240 C246 1.261 . S
C241 O250 1.247 . S
C241 O251 1.272 . S
O242 Co238 2.004 . S
O242 C247 1.259 . S
Co243 O244 2.061 . S
Co243 O249 2.052 . S
Co243 O251 2.135 . S
O244 Co243 2.061 . S
O244 C247 1.235 . S
C245 O248 1.238 . S
C245 O249 1.241 . S
C246 O239 1.247 . S
C246 O240 1.261 . S
C247 O242 1.259 . S
C247 O244 1.235 . S
O248 Co238 2.021 . S
O248 C245 1.238 . S
O249 Co243 2.052 . S
O249 C245 1.241 . S
O250 Co238 2.137 . S
O250 C241 1.247 . S
O251 Co238 2.244 . S
O251 C241 1.272 . S
O251 Co243 2.135 . S
Co252 O253 2.216 . S
Co252 O254 2.091 . S
Co252 O256 2.004 . S
Co252 O262 2.021 . S
Co252 O264 2.137 . S
Co252 O265 2.244 . S
O253 Co252 2.216 . S
O253 C260 1.247 . S
O254 Co252 2.091 . S
O254 C260 1.261 . S
C255 O264 1.247 . S
C255 O265 1.272 . S
O256 Co252 2.004 . S
O256 C261 1.259 . S
Co257 O258 2.061 . S
Co257 O263 2.052 . S
Co257 O265 2.135 . S
O258 Co257 2.061 . S
O258 C261 1.235 . S
C259 O262 1.238 . S
C259 O263 1.241 . S
C260 O253 1.247 . S
C260 O254 1.261 . S
C261 O256 1.259 . S
C261 O258 1.235 . S
O262 Co252 2.021 . S
O262 C259 1.238 . S
O263 Co257 2.052 . S
O263 C259 1.241 . S
O264 Co252 2.137 . S
O264 C255 1.247 . S
O265 Co252 2.244 . S
O265 C255 1.272 . S
O265 Co257 2.135 . S
Co266 O267 2.216 1_545 S
Co266 O268 2.091 1_545 S
Co266 O270 2.004 . S
Co266 O276 2.021 . S
Co266 O278 2.137 . S
Co266 O279 2.244 . S
O267 Co266 2.216 1_565 S
O267 C274 1.247 . S
O268 Co266 2.091 1_565 S
O268 C274 1.261 . S
C269 O278 1.247 . S
C269 O279 1.272 . S
O270 Co266 2.004 . S
O270 C275 1.259 . S
Co271 O272 2.061 . S
Co271 O277 2.052 . S
Co271 O279 2.135 . S
O272 Co271 2.061 . S
O272 C275 1.235 . S
C273 O276 1.238 . S
C273 O277 1.241 . S
C274 O267 1.247 . S
C274 O268 1.261 . S
C275 O270 1.259 . S
C275 O272 1.235 . S
O276 Co266 2.021 . S
O276 C273 1.238 . S
O277 Co271 2.052 . S
O277 C273 1.241 . S
O278 Co266 2.137 . S
O278 C269 1.247 . S
O279 Co266 2.244 . S
O279 C269 1.272 . S
O279 Co271 2.135 . S
Co280 O281 2.216 . S
Co280 O282 2.091 . S
Co280 O284 2.004 . S
Co280 O290 2.021 . S
Co280 O292 2.137 1_554 S
Co280 O293 2.244 1_554 S
O281 Co280 2.216 . S
O281 C288 1.247 . S
O282 Co280 2.091 . S
O282 C288 1.261 . S
C283 O292 1.247 . S
C283 O293 1.272 . S
O284 Co280 2.004 . S
O284 C289 1.259 . S
Co285 O286 2.061 . S
Co285 O291 2.052 . S
Co285 O293 2.135 1_554 S
O286 Co285 2.061 . S
O286 C289 1.235 . S
C287 O290 1.238 . S
C287 O291 1.241 . S
C288 O281 1.247 . S
C288 O282 1.261 . S
C289 O284 1.259 . S
C289 O286 1.235 . S
O290 Co280 2.021 . S
O290 C287 1.238 . S
O291 Co285 2.052 . S
O291 C287 1.241 . S
O292 Co280 2.137 1_556 S
O292 C283 1.247 . S
O293 Co280 2.244 1_556 S
O293 C283 1.272 . S
O293 Co285 2.135 1_556 S
Co294 O295 2.216 1_655 S
Co294 O296 2.091 . S
Co294 O298 2.004 . S
Co294 O304 2.021 1_655 S
Co294 O306 2.137 . S
Co294 O307 2.244 1_655 S
O295 Co294 2.216 1_455 S
O295 C302 1.247 1_455 S
O296 Co294 2.091 . S
O296 C302 1.261 . S
C297 O306 1.239 1_455 S
C297 O307 1.272 . S
O298 Co294 2.004 . S
O298 C303 1.259 . S
Co299 O300 2.061 . S
Co299 O305 2.052 . S
Co299 O307 2.135 . S
O300 Co299 2.061 . S
O300 C303 1.235 1_455 S
C301 O304 1.238 . S
C301 O305 1.241 . S
C302 O295 1.247 1_655 S
C302 O296 1.261 . S
C303 O298 1.259 . S
C303 O300 1.235 1_655 S
O304 Co294 2.021 1_455 S
O304 C301 1.238 . S
O305 Co299 2.052 . S
O305 C301 1.241 . S
O306 Co294 2.137 . S
O306 C297 1.239 1_655 S
O307 Co294 2.244 1_455 S
O307 C297 1.272 . S
O307 Co299 2.135 . S
Co308 O309 2.216 . S
Co308 O310 2.091 . S
Co308 O312 2.004 . S
Co308 O318 2.021 . S
Co308 O320 2.137 . S
Co308 O321 2.244 . S
O309 Co308 2.216 . S
O309 C316 1.247 . S
O310 Co308 2.091 . S
O310 C316 1.261 . S
C311 O320 1.247 . S
C311 O321 1.272 . S
O312 Co308 2.004 . S
O312 C317 1.259 . S
Co313 O314 2.061 . S
Co313 O319 2.052 . S
Co313 O321 2.135 . S
O314 Co313 2.061 . S
O314 C317 1.235 . S
C315 O318 1.238 . S
C315 O319 1.241 . S
C316 O309 1.247 . S
C316 O310 1.261 . S
C317 O312 1.259 . S
C317 O314 1.235 . S
O318 Co308 2.021 . S
O318 C315 1.238 . S
O319 Co313 2.052 . S
O319 C315 1.241 . S
O320 Co308 2.137 . S
O320 C311 1.247 . S
O321 Co308 2.244 . S
O321 C311 1.272 . S
O321 Co313 2.135 . S
Co322 O323 2.216 . S
Co322 O324 2.091 . S
Co322 O326 2.004 . S
Co322 O332 2.021 . S
Co322 O334 2.137 . S
Co322 O335 2.244 . S
O323 Co322 2.216 . S
O323 C330 1.247 . S
O324 Co322 2.091 . S
O324 C330 1.261 . S
C325 O334 1.247 . S
C325 O335 1.272 . S
O326 Co322 2.004 . S
O326 C331 1.259 . S
Co327 O328 2.061 . S
Co327 O333 2.052 . S
Co327 O335 2.135 . S
O328 Co327 2.061 . S
O328 C331 1.235 . S
C329 O332 1.238 . S
C329 O333 1.241 . S
C330 O323 1.247 . S
C330 O324 1.261 . S
C331 O326 1.259 . S
C331 O328 1.235 . S
O332 Co322 2.021 . S
O332 C329 1.238 . S
O333 Co327 2.052 . S
O333 C329 1.241 . S
O334 Co322 2.137 . S
O334 C325 1.247 . S
O335 Co322 2.244 . S
O335 C325 1.272 . S
O335 Co327 2.135 . S
Tb336 C346 2.825 1_454 S
Tb336 O347 2.347 . S
Tb336 O350 2.366 . S
Tb336 O355 2.418 1_554 S
Tb336 O356 2.384 1_545 S
Tb336 O359 2.479 1_454 S
Tb336 O360 2.471 1_455 S
Eu337 O348 2.418 . S
Eu337 O349 2.384 . S
Eu337 O352 2.479 . S
Eu337 O353 2.471 . S
Eu337 O354 2.347 . S
Eu337 O357 2.366 . S
Eu337 C367 2.825 . S
C338 O354 1.259 1_556 S
C338 O355 1.265 . S
C339 O356 1.255 . S
C339 O357 1.265 1_565 S
C340 C342 1.380 . S
C340 C343 1.374 . S
C340 C346 1.507 . S
C341 C342 1.384 . S
C341 C345 1.387 . S
C341 H368 0.930 . S
C342 C340 1.380 . S
C342 C341 1.384 . S
C342 H369 0.931 . S
C343 C340 1.374 . S
C343 C344 1.390 . S
C343 H370 0.930 1_556 S
C344 C343 1.390 . S
C344 C345 1.391 . S
C344 H371 0.906 1_556 S
C345 C341 1.387 . S
C345 C344 1.391 . S
C346 Tb336 2.825 1_656 S
C346 C340 1.507 . S
C346 O359 1.238 . S
C346 O360 1.247 1_556 S
O347 Tb336 2.347 . S
O347 C351 1.259 . S
O348 Eu337 2.418 . S
O348 C351 1.265 . S
O349 Eu337 2.384 . S
O349 C358 1.255 . S
O350 Tb336 2.366 . S
O350 C358 1.265 . S
C351 O347 1.259 . S
C351 O348 1.265 . S
O352 Eu337 2.479 . S
O352 C367 1.238 . S
O353 Eu337 2.471 . S
O353 C367 1.247 . S
O354 Eu337 2.347 . S
O354 C338 1.259 1_554 S
O355 Tb336 2.418 1_556 S
O355 C338 1.265 . S
O356 Tb336 2.384 1_565 S
O356 C339 1.255 . S
O357 Eu337 2.366 . S
O357 C339 1.265 1_545 S
C358 O349 1.255 . S
C358 O350 1.265 . S
O359 Tb336 2.479 1_656 S
O359 C346 1.238 . S
O360 Tb336 2.471 1_655 S
O360 C346 1.247 1_554 S
C361 C364 1.380 . S
C361 C365 1.374 . S
C361 C367 1.507 . S
C362 C363 1.387 . S
C362 C366 1.391 . S
C363 C362 1.387 . S
C363 C364 1.384 . S
C363 H372 0.930 . S
C364 C361 1.380 . S
C364 C363 1.384 . S
C364 H373 0.931 . S
C365 C361 1.374 . S
C365 C366 1.390 . S
C365 H374 0.930 . S
C366 C362 1.391 . S
C366 C365 1.390 . S
C366 H375 0.930 1_545 S
C367 Eu337 2.825 . S
C367 O352 1.238 . S
C367 O353 1.247 . S
C367 C361 1.507 . S
H368 C341 0.930 . S
H369 C342 0.931 . S
H370 C343 0.930 1_554 S
H371 C344 0.906 1_554 S
H372 C363 0.930 . S
H373 C364 0.931 . S
H374 C365 0.930 . S
H375 C366 0.930 1_565 S
Tb376 C386 2.825 . S
Tb376 O387 2.347 . S
Tb376 O390 2.366 . S
Tb376 O395 2.418 . S
Tb376 O396 2.384 . S
Tb376 O399 2.479 . S
Tb376 O400 2.471 . S
Eu377 O388 2.418 . S
Eu377 O389 2.384 . S
Eu377 O392 2.479 . S
Eu377 O393 2.471 . S
Eu377 O394 2.347 . S
Eu377 O397 2.366 . S
Eu377 C407 2.825 . S
C378 O394 1.259 . S
C378 O395 1.265 . S
C379 O396 1.255 . S
C379 O397 1.265 . S
C380 C382 1.380 . S
C380 C383 1.374 . S
C380 C386 1.507 . S
C381 C382 1.384 . S
C381 C385 1.387 . S
C381 H408 0.930 . S
C382 C380 1.380 . S
C382 C381 1.384 . S
C382 H409 0.931 . S
C383 C380 1.374 . S
C383 C384 1.390 . S
C383 H410 0.930 . S
C384 C383 1.390 . S
C384 C385 1.391 . S
C384 H411 0.930 . S
C385 C381 1.387 . S
C385 C384 1.391 . S
C386 Tb376 2.825 . S
C386 C380 1.507 . S
C386 O399 1.238 . S
C386 O400 1.247 . S
O387 Tb376 2.347 . S
O387 C391 1.259 . S
O388 Eu377 2.418 . S
O388 C391 1.265 . S
O389 Eu377 2.384 . S
O389 C398 1.255 . S
O390 Tb376 2.366 . S
O390 C398 1.265 . S
C391 O387 1.259 . S
C391 O388 1.265 . S
O392 Eu377 2.479 . S
O392 C407 1.238 . S
O393 Eu377 2.471 . S
O393 C407 1.247 . S
O394 Eu377 2.347 . S
O394 C378 1.259 . S
O395 Tb376 2.418 . S
O395 C378 1.265 . S
O396 Tb376 2.384 . S
O396 C379 1.255 . S
O397 Eu377 2.366 . S
O397 C379 1.265 . S
C398 O389 1.255 . S
C398 O390 1.265 . S
O399 Tb376 2.479 . S
O399 C386 1.238 . S
O400 Tb376 2.471 . S
O400 C386 1.247 . S
C401 C404 1.380 . S
C401 C405 1.374 . S
C401 C407 1.507 . S
C402 C403 1.387 . S
C402 C406 1.391 . S
C403 C402 1.387 . S
C403 C404 1.384 . S
C403 H412 0.930 . S
C404 C401 1.380 . S
C404 C403 1.384 . S
C404 H413 0.931 . S
C405 C401 1.374 . S
C405 C406 1.390 . S
C405 H414 0.930 . S
C406 C402 1.391 . S
C406 C405 1.390 . S
C406 H415 0.930 . S
C407 Eu377 2.825 . S
C407 O392 1.238 . S
C407 O393 1.247 . S
C407 C401 1.507 . S
H408 C381 0.930 . S
H409 C382 0.931 . S
H410 C383 0.930 . S
H411 C384 0.930 . S
H412 C403 0.930 . S
H413 C404 0.931 . S
H414 C405 0.930 . S
H415 C406 0.930 . S
Tb416 C426 2.825 1_545 S
Tb416 O427 2.347 . S
Tb416 O430 2.366 . S
Tb416 O435 2.418 . S
Tb416 O436 2.384 . S
Tb416 O439 2.479 1_545 S
Tb416 O440 2.471 1_545 S
Eu417 O428 2.418 . S
Eu417 O429 2.384 . S
Eu417 O432 2.479 . S
Eu417 O433 2.471 . S
Eu417 O434 2.347 . S
Eu417 O437 2.366 . S
Eu417 C447 2.825 . S
C418 O434 1.259 . S
C418 O435 1.265 . S
C419 O436 1.255 . S
C419 O437 1.265 . S
C420 C422 1.380 . S
C420 C423 1.374 . S
C420 C426 1.507 . S
C421 C422 1.384 . S
C421 C425 1.387 . S
C421 H448 0.930 . S
C422 C420 1.380 . S
C422 C421 1.384 . S
C422 H449 0.931 . S
C423 C420 1.374 . S
C423 C424 1.390 . S
C423 H450 0.930 . S
C424 C423 1.390 . S
C424 C425 1.391 . S
C424 H451 0.930 . S
C425 C421 1.387 . S
C425 C424 1.391 . S
C426 Tb416 2.825 1_565 S
C426 C420 1.507 . S
C426 O439 1.238 . S
C426 O440 1.247 . S
O427 Tb416 2.347 . S
O427 C431 1.259 . S
O428 Eu417 2.418 . S
O428 C431 1.265 . S
O429 Eu417 2.384 . S
O429 C438 1.255 . S
O430 Tb416 2.366 . S
O430 C438 1.265 . S
C431 O427 1.259 . S
C431 O428 1.265 . S
O432 Eu417 2.479 . S
O432 C447 1.238 . S
O433 Eu417 2.471 . S
O433 C447 1.247 . S
O434 Eu417 2.347 . S
O434 C418 1.259 . S
O435 Tb416 2.418 . S
O435 C418 1.265 . S
O436 Tb416 2.384 . S
O436 C419 1.255 . S
O437 Eu417 2.366 . S
O437 C419 1.265 . S
C438 O429 1.255 . S
C438 O430 1.265 . S
O439 Tb416 2.479 1_565 S
O439 C426 1.238 . S
O440 Tb416 2.471 1_565 S
O440 C426 1.247 . S
C441 C444 1.380 . S
C441 C445 1.374 . S
C441 C447 1.507 . S
C442 C443 1.387 . S
C442 C446 1.391 . S
C443 C442 1.387 . S
C443 C444 1.384 . S
C443 H452 0.930 . S
C444 C441 1.380 . S
C444 C443 1.384 . S
C444 H453 0.931 . S
C445 C441 1.374 . S
C445 C446 1.390 . S
C445 H454 0.930 . S
C446 C442 1.391 . S
C446 C445 1.390 . S
C446 H455 0.930 . S
C447 Eu417 2.825 . S
C447 O432 1.238 . S
C447 O433 1.247 . S
C447 C441 1.507 . S
H448 C421 0.930 . S
H449 C422 0.931 . S
H450 C423 0.930 . S
H451 C424 0.930 . S
H452 C443 0.930 . S
H453 C444 0.931 . S
H454 C445 0.930 . S
H455 C446 0.930 . S
Tb456 C466 2.825 . S
Tb456 O467 2.347 . S
Tb456 O470 2.366 . S
Tb456 O475 2.418 . S
Tb456 O476 2.384 . S
Tb456 O479 2.479 . S
Tb456 O480 2.471 . S
Eu457 O468 2.418 . S
Eu457 O469 2.384 . S
Eu457 O472 2.479 . S
Eu457 O473 2.471 . S
Eu457 O474 2.347 . S
Eu457 O477 2.366 . S
Eu457 C487 2.825 . S
C458 O474 1.259 . S
C458 O475 1.265 . S
C459 O476 1.255 . S
C459 O477 1.265 . S
C460 C462 1.380 . S
C460 C463 1.374 . S
C460 C466 1.507 . S
C461 C462 1.384 . S
C461 C465 1.387 . S
C461 H488 0.930 . S
C462 C460 1.380 . S
C462 C461 1.384 . S
C462 H489 0.931 . S
C463 C460 1.374 . S
C463 C464 1.390 . S
C463 H490 0.930 . S
C464 C463 1.390 . S
C464 C465 1.391 . S
C464 H491 0.930 . S
C465 C461 1.387 . S
C465 C464 1.391 . S
C466 Tb456 2.825 . S
C466 C460 1.507 . S
C466 O479 1.238 . S
C466 O480 1.247 . S
O467 Tb456 2.347 . S
O467 C471 1.259 . S
O468 Eu457 2.418 . S
O468 C471 1.265 . S
O469 Eu457 2.384 . S
O469 C478 1.255 . S
O470 Tb456 2.366 . S
O470 C478 1.265 . S
C471 O467 1.259 . S
C471 O468 1.265 . S
O472 Eu457 2.479 . S
O472 C487 1.238 . S
O473 Eu457 2.471 . S
O473 C487 1.247 . S
O474 Eu457 2.347 . S
O474 C458 1.259 . S
O475 Tb456 2.418 . S
O475 C458 1.265 . S
O476 Tb456 2.384 . S
O476 C459 1.255 . S
O477 Eu457 2.366 . S
O477 C459 1.265 . S
C478 O469 1.255 . S
C478 O470 1.265 . S
O479 Tb456 2.479 . S
O479 C466 1.238 . S
O480 Tb456 2.471 . S
O480 C466 1.247 . S
C481 C484 1.380 . S
C481 C485 1.374 . S
C481 C487 1.507 . S
C482 C483 1.387 . S
C482 C486 1.391 . S
C483 C482 1.387 . S
C483 C484 1.384 . S
C483 H492 0.930 . S
C484 C481 1.380 . S
C484 C483 1.384 . S
C484 H493 0.931 . S
C485 C481 1.374 . S
C485 C486 1.390 . S
C485 H494 0.930 . S
C486 C482 1.391 . S
C486 C485 1.390 . S
C486 H495 0.930 . S
C487 Eu457 2.825 . S
C487 O472 1.238 . S
C487 O473 1.247 . S
C487 C481 1.507 . S
H488 C461 0.930 . S
H489 C462 0.931 . S
H490 C463 0.930 . S
H491 C464 0.930 . S
H492 C483 0.930 . S
H493 C484 0.931 . S
H494 C485 0.930 . S
H495 C486 0.930 . S
Tb496 C506 2.825 . S
Tb496 O507 2.347 . S
Tb496 O510 2.366 . S
Tb496 O515 2.418 . S
Tb496 O516 2.384 1_545 S
Tb496 O519 2.479 . S
Tb496 O520 2.471 . S
Eu497 O508 2.418 . S
Eu497 O509 2.384 . S
Eu497 O512 2.479 . S
Eu497 O513 2.471 . S
Eu497 O514 2.347 . S
Eu497 O517 2.366 . S
Eu497 C527 2.825 . S
C498 O514 1.259 . S
C498 O515 1.265 . S
C499 O516 1.255 . S
C499 O517 1.265 1_565 S
C500 C502 1.380 . S
C500 C503 1.374 1_455 S
C500 C506 1.507 . S
C501 C502 1.384 . S
C501 C505 1.387 1_455 S
C501 H528 0.930 . S
C502 C500 1.380 . S
C502 C501 1.384 . S
C502 H529 0.931 . S
C503 C500 1.374 1_655 S
C503 C504 1.390 . S
C503 H530 0.930 . S
C504 C503 1.390 . S
C504 C505 1.391 . S
C504 H531 0.930 . S
C505 C501 1.387 1_655 S
C505 C504 1.391 . S
C506 Tb496 2.825 . S
C506 C500 1.507 . S
C506 O519 1.238 . S
C506 O520 1.247 . S
O507 Tb496 2.347 . S
O507 C511 1.259 . S
O508 Eu497 2.418 . S
O508 C511 1.265 . S
O509 Eu497 2.384 . S
O509 C518 1.255 . S
O510 Tb496 2.366 . S
O510 C518 1.265 . S
C511 O507 1.259 . S
C511 O508 1.265 . S
O512 Eu497 2.479 . S
O512 C527 1.238 . S
O513 Eu497 2.471 . S
O513 C527 1.247 . S
O514 Eu497 2.347 . S
O514 C498 1.259 . S
O515 Tb496 2.418 . S
O515 C498 1.265 . S
O516 Tb496 2.384 1_565 S
O516 C499 1.255 . S
O517 Eu497 2.366 . S
O517 C499 1.265 1_545 S
C518 O509 1.255 . S
C518 O510 1.265 . S
O519 Tb496 2.479 . S
O519 C506 1.238 . S
O520 Tb496 2.471 . S
O520 C506 1.247 . S
C521 C524 1.380 . S
C521 C525 1.374 . S
C521 C527 1.507 . S
C522 C523 1.387 . S
C522 C526 1.391 . S
C523 C522 1.387 . S
C523 C524 1.384 . S
C523 H532 0.930 . S
C524 C521 1.380 . S
C524 C523 1.384 . S
C524 H533 0.931 . S
C525 C521 1.374 . S
C525 C526 1.390 . S
C525 H534 0.930 . S
C526 C522 1.391 . S
C526 C525 1.390 . S
C526 H535 0.930 . S
C527 Eu497 2.825 . S
C527 O512 1.238 . S
C527 O513 1.247 . S
C527 C521 1.507 . S
H528 C501 0.930 . S
H529 C502 0.931 . S
H530 C503 0.930 . S
H531 C504 0.930 . S
H532 C523 0.930 . S
H533 C524 0.931 . S
H534 C525 0.930 . S
H535 C526 0.930 . S
Tb536 C546 2.825 . S
Tb536 O547 2.347 . S
Tb536 O550 2.366 . S
Tb536 O555 2.418 . S
Tb536 O556 2.384 . S
Tb536 O559 2.479 . S
Tb536 O560 2.471 . S
Eu537 O548 2.418 . S
Eu537 O549 2.384 . S
Eu537 O552 2.479 . S
Eu537 O553 2.471 . S
Eu537 O554 2.347 . S
Eu537 O557 2.366 . S
Eu537 C567 2.825 . S
C538 O554 1.259 . S
C538 O555 1.265 . S
C539 O556 1.255 . S
C539 O557 1.265 . S
C540 C542 1.380 . S
C540 C543 1.374 . S
C540 C546 1.507 . S
C541 C542 1.384 . S
C541 C545 1.387 . S
C541 H568 0.930 . S
C542 C540 1.380 . S
C542 C541 1.384 . S
C542 H569 0.931 . S
C543 C540 1.374 . S
C543 C544 1.390 . S
C543 H570 0.930 . S
C544 C543 1.390 . S
C544 C545 1.391 . S
C544 H571 0.930 . S
C545 C541 1.387 . S
C545 C544 1.391 . S
C546 Tb536 2.825 . S
C546 C540 1.507 . S
C546 O559 1.238 . S
C546 O560 1.247 . S
O547 Tb536 2.347 . S
O547 C551 1.259 . S
O548 Eu537 2.418 . S
O548 C551 1.265 . S
O549 Eu537 2.384 . S
O549 C558 1.255 . S
O550 Tb536 2.366 . S
O550 C558 1.265 . S
C551 O547 1.259 . S
C551 O548 1.265 . S
O552 Eu537 2.479 . S
O552 C567 1.238 . S
O553 Eu537 2.471 . S
O553 C567 1.247 . S
O554 Eu537 2.347 . S
O554 C538 1.259 . S
O555 Tb536 2.418 . S
O555 C538 1.265 . S
O556 Tb536 2.384 . S
O556 C539 1.255 . S
O557 Eu537 2.366 . S
O557 C539 1.265 . S
C558 O549 1.255 . S
C558 O550 1.265 . S
O559 Tb536 2.479 . S
O559 C546 1.238 . S
O560 Tb536 2.471 . S
O560 C546 1.247 . S
C561 C564 1.380 . S
C561 C565 1.374 . S
C561 C567 1.507 . S
C562 C563 1.387 . S
C562 C566 1.391 . S
C563 C562 1.387 . S
C563 C564 1.384 . S
C563 H572 0.930 . S
C564 C561 1.380 . S
C564 C563 1.384 . S
C564 H573 0.931 . S
C565 C561 1.374 . S
C565 C566 1.390 . S
C565 H574 0.930 . S
C566 C562 1.391 . S
C566 C565 1.390 . S
C566 H575 0.930 . S
C567 Eu537 2.825 . S
C567 O552 1.238 . S
C567 O553 1.247 . S
C567 C561 1.507 . S
H568 C541 0.930 . S
H569 C542 0.931 . S
H570 C543 0.930 . S
H571 C544 0.930 . S
H572 C563 0.930 . S
H573 C564 0.931 . S
H574 C565 0.930 . S
H575 C566 0.930 . S
Tb576 C586 2.825 . S
Tb576 O587 2.347 . S
Tb576 O590 2.366 . S
Tb576 O595 2.418 1_545 S
Tb576 O596 2.384 . S
Tb576 O599 2.479 . S
Tb576 O600 2.471 . S
Eu577 O588 2.418 1_556 S
Eu577 O589 2.384 1_556 S
Eu577 O592 2.479 . S
Eu577 O593 2.471 . S
Eu577 O594 2.347 1_556 S
Eu577 O597 2.366 . S
Eu577 C607 2.825 . S
C578 O594 1.259 1_565 S
C578 O595 1.265 . S
C579 O596 1.255 . S
C579 O597 1.265 1_554 S
C580 C582 1.380 . S
C580 C583 1.374 . S
C580 C586 1.507 . S
C581 C582 1.387 . S
C581 C585 1.401 . S
C581 H608 0.913 1_545 S
C582 C580 1.380 . S
C582 C581 1.387 . S
C582 H609 0.931 1_545 S
C583 C580 1.374 . S
C583 C584 1.390 . S
C583 H610 0.930 . S
C584 C583 1.390 . S
C584 C585 1.391 . S
C584 H611 0.930 . S
C585 C581 1.401 . S
C585 C584 1.391 . S
C586 Tb576 2.825 . S
C586 C580 1.507 . S
C586 O599 1.238 . S
C586 O600 1.247 . S
O587 Tb576 2.347 . S
O587 C591 1.259 . S
O588 Eu577 2.418 1_554 S
O588 C591 1.265 . S
O589 Eu577 2.384 1_554 S
O589 C598 1.255 . S
O590 Tb576 2.366 . S
O590 C598 1.265 . S
C591 O587 1.259 . S
C591 O588 1.265 . S
O592 Eu577 2.479 . S
O592 C607 1.238 . S
O593 Eu577 2.471 . S
O593 C607 1.247 . S
O594 Eu577 2.347 1_554 S
O594 C578 1.259 1_545 S
O595 Tb576 2.418 1_565 S
O595 C578 1.265 . S
O596 Tb576 2.384 . S
O596 C579 1.255 . S
O597 Eu577 2.366 . S
O597 C579 1.265 1_556 S
C598 O589 1.255 . S
C598 O590 1.265 . S
O599 Tb576 2.479 . S
O599 C586 1.238 . S
O600 Tb576 2.471 . S
O600 C586 1.247 . S
C601 C604 1.380 . S
C601 C605 1.374 . S
C601 C607 1.507 . S
C602 C603 1.387 . S
C602 C606 1.391 . S
C603 C602 1.387 . S
C603 C604 1.384 . S
C603 H612 0.930 . S
C604 C601 1.380 . S
C604 C603 1.384 . S
C604 H613 0.931 . S
C605 C601 1.374 . S
C605 C606 1.390 . S
C605 H614 0.930 . S
C606 C602 1.391 . S
C606 C605 1.390 . S
C606 H615 0.930 . S
C607 Eu577 2.825 . S
C607 O592 1.238 . S
C607 O593 1.247 . S
C607 C601 1.507 . S
H608 C581 0.913 1_565 S
H609 C582 0.931 1_565 S
H610 C583 0.930 . S
H611 C584 0.930 . S
H612 C603 0.930 . S
H613 C604 0.931 . S
H614 C605 0.930 . S
H615 C606 0.930 . S
Tb616 C626 2.825 . S
Tb616 O627 2.347 . S
Tb616 O630 2.366 . S
Tb616 O635 2.418 . S
Tb616 O636 2.384 . S
Tb616 O639 2.479 . S
Tb616 O640 2.471 . S
Eu617 O628 2.418 . S
Eu617 O629 2.384 . S
Eu617 O632 2.479 . S
Eu617 O633 2.471 . S
Eu617 O634 2.347 . S
Eu617 O637 2.366 . S
Eu617 C647 2.825 . S
C618 O634 1.259 . S
C618 O635 1.265 . S
C619 O636 1.255 . S
C619 O637 1.265 . S
C620 C622 1.380 . S
C620 C623 1.374 . S
C620 C626 1.507 . S
C621 C622 1.384 . S
C621 C625 1.387 . S
C621 H648 0.930 . S
C622 C620 1.380 . S
C622 C621 1.384 . S
C622 H649 0.931 . S
C623 C620 1.374 . S
C623 C624 1.390 . S
C623 H650 0.930 . S
C624 C623 1.390 . S
C624 C625 1.391 . S
C624 H651 0.930 . S
C625 C621 1.387 . S
C625 C624 1.391 . S
C626 Tb616 2.825 . S
C626 C620 1.507 . S
C626 O639 1.238 . S
C626 O640 1.247 . S
O627 Tb616 2.347 . S
O627 C631 1.259 . S
O628 Eu617 2.418 . S
O628 C631 1.265 . S
O629 Eu617 2.384 . S
O629 C638 1.255 . S
O630 Tb616 2.366 . S
O630 C638 1.265 . S
C631 O627 1.259 . S
C631 O628 1.265 . S
O632 Eu617 2.479 . S
O632 C647 1.238 . S
O633 Eu617 2.471 . S
O633 C647 1.247 . S
O634 Eu617 2.347 . S
O634 C618 1.259 . S
O635 Tb616 2.418 . S
O635 C618 1.265 . S
O636 Tb616 2.384 . S
O636 C619 1.255 . S
O637 Eu617 2.366 . S
O637 C619 1.265 . S
C638 O629 1.255 . S
C638 O630 1.265 . S
O639 Tb616 2.479 . S
O639 C626 1.238 . S
O640 Tb616 2.471 . S
O640 C626 1.247 . S
C641 C644 1.380 . S
C641 C645 1.374 . S
C641 C647 1.507 . S
C642 C643 1.387 . S
C642 C646 1.391 . S
C643 C642 1.387 . S
C643 C644 1.384 . S
C643 H652 0.930 . S
C644 C641 1.380 . S
C644 C643 1.384 . S
C644 H653 0.931 . S
C645 C641 1.374 . S
C645 C646 1.390 . S
C645 H654 0.930 . S
C646 C642 1.391 . S
C646 C645 1.390 . S
C646 H655 0.930 . S
C647 Eu617 2.825 . S
C647 O632 1.238 . S
C647 O633 1.247 . S
C647 C641 1.507 . S
H648 C621 0.930 . S
H649 C622 0.931 . S
H650 C623 0.930 . S
H651 C624 0.930 . S
H652 C643 0.930 . S
H653 C644 0.931 . S
H654 C645 0.930 . S
H655 C646 0.930 . S
Tb656 C666 2.825 . S
Tb656 O667 2.347 1_556 S
Tb656 O670 2.366 . S
Tb656 O675 2.418 . S
Tb656 O676 2.384 1_556 S
Tb656 O679 2.479 . S
Tb656 O680 2.471 . S
Eu657 O668 2.418 . S
Eu657 O669 2.384 . S
Eu657 O672 2.479 . S
Eu657 O673 2.471 . S
Eu657 O674 2.347 . S
Eu657 O677 2.366 . S
Eu657 C687 2.825 . S
C658 O674 1.259 . S
C658 O675 1.265 1_554 S
C659 O676 1.255 . S
C659 O677 1.265 . S
C660 C662 1.380 . S
C660 C663 1.374 . S
C660 C666 1.507 . S
C661 C662 1.384 . S
C661 C665 1.387 . S
C661 H688 0.930 . S
C662 C660 1.380 . S
C662 C661 1.384 . S
C662 H689 0.931 . S
C663 C660 1.374 . S
C663 C664 1.390 . S
C663 H690 0.930 . S
C664 C663 1.390 . S
C664 C665 1.391 . S
C664 H691 0.930 . S
C665 C661 1.387 . S
C665 C664 1.391 . S
C666 Tb656 2.825 . S
C666 C660 1.507 . S
C666 O679 1.238 . S
C666 O680 1.247 . S
O667 Tb656 2.347 1_554 S
O667 C671 1.259 . S
O668 Eu657 2.418 . S
O668 C671 1.265 . S
O669 Eu657 2.384 . S
O669 C678 1.232 1_554 S
O670 Tb656 2.366 . S
O670 C678 1.277 . S
C671 O667 1.259 . S
C671 O668 1.265 . S
O672 Eu657 2.479 . S
O672 C687 1.238 . S
O673 Eu657 2.471 . S
O673 C687 1.247 . S
O674 Eu657 2.347 . S
O674 C658 1.259 . S
O675 Tb656 2.418 . S
O675 C658 1.265 1_556 S
O676 Tb656 2.384 1_554 S
O676 C659 1.255 . S
O677 Eu657 2.366 . S
O677 C659 1.265 . S
C678 O669 1.232 1_556 S
C678 O670 1.277 . S
O679 Tb656 2.479 . S
O679 C666 1.238 . S
O680 Tb656 2.471 . S
O680 C666 1.247 . S
C681 C684 1.380 . S
C681 C685 1.374 . S
C681 C687 1.507 . S
C682 C683 1.387 . S
C682 C686 1.391 . S
C683 C682 1.387 . S
C683 C684 1.384 . S
C683 H692 0.930 . S
C684 C681 1.380 . S
C684 C683 1.384 . S
C684 H693 0.931 . S
C685 C681 1.374 . S
C685 C686 1.390 . S
C685 H694 0.930 . S
C686 C682 1.391 . S
C686 C685 1.390 . S
C686 H695 0.930 . S
C687 Eu657 2.825 . S
C687 O672 1.238 . S
C687 O673 1.247 . S
C687 C681 1.507 . S
H688 C661 0.930 . S
H689 C662 0.931 . S
H690 C663 0.930 . S
H691 C664 0.930 . S
H692 C683 0.930 . S
H693 C684 0.931 . S
H694 C685 0.930 . S
H695 C686 0.930 . S
Tb696 C706 2.825 . S
Tb696 O707 2.347 . S
Tb696 O710 2.366 . S
Tb696 O715 2.418 . S
Tb696 O716 2.384 . S
Tb696 O719 2.479 . S
Tb696 O720 2.471 . S
Eu697 O708 2.418 . S
Eu697 O709 2.384 . S
Eu697 O712 2.479 . S
Eu697 O713 2.471 . S
Eu697 O714 2.347 . S
Eu697 O717 2.366 . S
Eu697 C727 2.825 . S
C698 O714 1.259 . S
C698 O715 1.265 . S
C699 O716 1.255 . S
C699 O717 1.265 . S
C700 C702 1.380 . S
C700 C703 1.374 . S
C700 C706 1.507 . S
C701 C702 1.384 . S
C701 C705 1.387 . S
C701 H728 0.930 . S
C702 C700 1.380 . S
C702 C701 1.384 . S
C702 H729 0.931 . S
C703 C700 1.374 . S
C703 C704 1.390 . S
C703 H730 0.930 . S
C704 C703 1.390 . S
C704 C705 1.391 . S
C704 H731 0.930 . S
C705 C701 1.387 . S
C705 C704 1.391 . S
C706 Tb696 2.825 . S
C706 C700 1.507 . S
C706 O719 1.238 . S
C706 O720 1.247 . S
O707 Tb696 2.347 . S
O707 C711 1.259 . S
O708 Eu697 2.418 . S
O708 C711 1.265 . S
O709 Eu697 2.384 . S
O709 C718 1.255 . S
O710 Tb696 2.366 . S
O710 C718 1.265 . S
C711 O707 1.259 . S
C711 O708 1.265 . S
O712 Eu697 2.479 . S
O712 C727 1.238 . S
O713 Eu697 2.471 . S
O713 C727 1.247 . S
O714 Eu697 2.347 . S
O714 C698 1.259 . S
O715 Tb696 2.418 . S
O715 C698 1.265 . S
O716 Tb696 2.384 . S
O716 C699 1.255 . S
O717 Eu697 2.366 . S
O717 C699 1.265 . S
C718 O709 1.255 . S
C718 O710 1.265 . S
O719 Tb696 2.479 . S
O719 C706 1.238 . S
O720 Tb696 2.471 . S
O720 C706 1.247 . S
C721 C724 1.380 . S
C721 C725 1.374 . S
C721 C727 1.507 . S
C722 C723 1.387 . S
C722 C726 1.391 . S
C723 C722 1.387 . S
C723 C724 1.384 . S
C723 H732 0.930 . S
C724 C721 1.380 . S
C724 C723 1.384 . S
C724 H733 0.931 . S
C725 C721 1.374 . S
C725 C726 1.390 . S
C725 H734 0.930 . S
C726 C722 1.391 . S
C726 C725 1.390 . S
C726 H735 0.930 . S
C727 Eu697 2.825 . S
C727 O712 1.238 . S
C727 O713 1.247 . S
C727 C721 1.507 . S
H728 C701 0.930 . S
H729 C702 0.931 . S
H730 C703 0.930 . S
H731 C704 0.930 . S
H732 C723 0.930 . S
H733 C724 0.931 . S
H734 C725 0.930 . S
H735 C726 0.930 . S
Tb736 C746 2.825 . S
Tb736 O747 2.347 . S
Tb736 O750 2.366 . S
Tb736 O755 2.418 . S
Tb736 O756 2.384 . S
Tb736 O759 2.479 . S
Tb736 O760 2.471 . S
Eu737 O748 2.418 . S
Eu737 O749 2.384 . S
Eu737 O752 2.479 . S
Eu737 O753 2.471 . S
Eu737 O754 2.347 . S
Eu737 O757 2.366 . S
Eu737 C767 2.825 . S
C738 O754 1.259 . S
C738 O755 1.265 . S
C739 O756 1.255 . S
C739 O757 1.265 . S
C740 C742 1.380 . S
C740 C743 1.374 . S
C740 C746 1.507 . S
C741 C742 1.384 . S
C741 C745 1.387 . S
C741 H768 0.930 . S
C742 C740 1.380 . S
C742 C741 1.384 . S
C742 H769 0.931 . S
C743 C740 1.374 . S
C743 C744 1.390 . S
C743 H770 0.930 . S
C744 C743 1.390 . S
C744 C745 1.391 . S
C744 H771 0.930 . S
C745 C741 1.387 . S
C745 C744 1.391 . S
C746 Tb736 2.825 . S
C746 C740 1.507 . S
C746 O759 1.238 . S
C746 O760 1.247 . S
O747 Tb736 2.347 . S
O747 C751 1.259 . S
O748 Eu737 2.418 . S
O748 C751 1.265 . S
O749 Eu737 2.384 . S
O749 C758 1.255 . S
O750 Tb736 2.366 . S
O750 C758 1.265 . S
C751 O747 1.259 . S
C751 O748 1.265 . S
O752 Eu737 2.479 . S
O752 C767 1.238 . S
O753 Eu737 2.471 . S
O753 C767 1.247 . S
O754 Eu737 2.347 . S
O754 C738 1.259 . S
O755 Tb736 2.418 . S
O755 C738 1.265 . S
O756 Tb736 2.384 . S
O756 C739 1.255 . S
O757 Eu737 2.366 . S
O757 C739 1.265 . S
C758 O749 1.255 . S
C758 O750 1.265 . S
O759 Tb736 2.479 . S
O759 C746 1.238 . S
O760 Tb736 2.471 . S
O760 C746 1.247 . S
C761 C764 1.380 . S
C761 C765 1.374 . S
C761 C767 1.507 . S
C762 C763 1.387 . S
C762 C766 1.391 . S
C763 C762 1.387 . S
C763 C764 1.384 . S
C763 H772 0.930 . S
C764 C761 1.380 . S
C764 C763 1.384 . S
C764 H773 0.931 . S
C765 C761 1.374 . S
C765 C766 1.390 . S
C765 H774 0.930 . S
C766 C762 1.391 . S
C766 C765 1.390 . S
C766 H775 0.930 . S
C767 Eu737 2.825 . S
C767 O752 1.238 . S
C767 O753 1.247 . S
C767 C761 1.507 . S
H768 C741 0.930 . S
H769 C742 0.931 . S
H770 C743 0.930 . S
H771 C744 0.930 . S
H772 C763 0.930 . S
H773 C764 0.931 . S
H774 C765 0.930 . S
H775 C766 0.930 . S
Tb776 C786 2.825 . S
Tb776 O787 2.347 . S
Tb776 O790 2.366 . S
Tb776 O795 2.418 . S
Tb776 O796 2.384 . S
Tb776 O799 2.479 . S
Tb776 O800 2.471 . S
Eu777 O788 2.418 . S
Eu777 O789 2.384 . S
Eu777 O792 2.479 . S
Eu777 O793 2.471 . S
Eu777 O794 2.347 . S
Eu777 O797 2.366 . S
Eu777 C807 2.825 . S
C778 O794 1.259 . S
C778 O795 1.265 . S
C779 O796 1.255 . S
C779 O797 1.265 . S
C780 C782 1.380 . S
C780 C783 1.374 . S
C780 C786 1.507 . S
C781 C782 1.384 . S
C781 C785 1.387 . S
C781 H808 0.930 . S
C782 C780 1.380 . S
C782 C781 1.384 . S
C782 H809 0.931 . S
C783 C780 1.374 . S
C783 C784 1.390 . S
C783 H810 0.930 . S
C784 C783 1.390 . S
C784 C785 1.391 . S
C784 H811 0.930 . S
C785 C781 1.387 . S
C785 C784 1.391 . S
C786 Tb776 2.825 . S
C786 C780 1.507 . S
C786 O799 1.238 . S
C786 O800 1.247 . S
O787 Tb776 2.347 . S
O787 C791 1.259 . S
O788 Eu777 2.418 . S
O788 C791 1.265 . S
O789 Eu777 2.384 . S
O789 C798 1.255 . S
O790 Tb776 2.366 . S
O790 C798 1.265 . S
C791 O787 1.259 . S
C791 O788 1.265 . S
O792 Eu777 2.479 . S
O792 C807 1.238 . S
O793 Eu777 2.471 . S
O793 C807 1.247 . S
O794 Eu777 2.347 . S
O794 C778 1.259 . S
O795 Tb776 2.418 . S
O795 C778 1.265 . S
O796 Tb776 2.384 . S
O796 C779 1.255 . S
O797 Eu777 2.366 . S
O797 C779 1.265 . S
C798 O789 1.255 . S
C798 O790 1.265 . S
O799 Tb776 2.479 . S
O799 C786 1.238 . S
O800 Tb776 2.471 . S
O800 C786 1.247 . S
C801 C804 1.380 . S
C801 C805 1.374 . S
C801 C807 1.507 . S
C802 C803 1.387 . S
C802 C806 1.391 . S
C803 C802 1.387 . S
C803 C804 1.384 . S
C803 H812 0.930 . S
C804 C801 1.380 . S
C804 C803 1.384 . S
C804 H813 0.931 . S
C805 C801 1.374 . S
C805 C806 1.390 . S
C805 H814 0.930 . S
C806 C802 1.391 . S
C806 C805 1.390 . S
C806 H815 0.930 . S
C807 Eu777 2.825 . S
C807 O792 1.238 . S
C807 O793 1.247 . S
C807 C801 1.507 . S
H808 C781 0.930 . S
H809 C782 0.931 . S
H810 C783 0.930 . S
H811 C784 0.930 . S
H812 C803 0.930 . S
H813 C804 0.931 . S
H814 C805 0.930 . S
H815 C806 0.930 . S
Tb816 C826 2.825 . S
Tb816 O827 2.347 . S
Tb816 O830 2.366 . S
Tb816 O835 2.418 . S
Tb816 O836 2.384 . S
Tb816 O839 2.479 . S
Tb816 O840 2.471 . S
Eu817 O828 2.418 . S
Eu817 O829 2.384 . S
Eu817 O832 2.479 . S
Eu817 O833 2.471 . S
Eu817 O834 2.347 . S
Eu817 O837 2.366 . S
Eu817 C847 2.825 . S
C818 O834 1.259 . S
C818 O835 1.265 . S
C819 O836 1.255 . S
C819 O837 1.265 . S
C820 C822 1.380 . S
C820 C823 1.374 . S
C820 C826 1.507 . S
C821 C822 1.384 . S
C821 C825 1.387 . S
C821 H848 0.930 . S
C822 C820 1.380 . S
C822 C821 1.384 . S
C822 H849 0.931 . S
C823 C820 1.374 . S
C823 C824 1.390 . S
C823 H850 0.930 . S
C824 C823 1.390 . S
C824 C825 1.391 . S
C824 H851 0.930 . S
C825 C821 1.387 . S
C825 C824 1.391 . S
C826 Tb816 2.825 . S
C826 C820 1.507 . S
C826 O839 1.238 . S
C826 O840 1.247 . S
O827 Tb816 2.347 . S
O827 C831 1.259 . S
O828 Eu817 2.418 . S
O828 C831 1.265 . S
O829 Eu817 2.384 . S
O829 C838 1.255 . S
O830 Tb816 2.366 . S
O830 C838 1.265 . S
C831 O827 1.259 . S
C831 O828 1.265 . S
O832 Eu817 2.479 . S
O832 C847 1.238 . S
O833 Eu817 2.471 . S
O833 C847 1.247 . S
O834 Eu817 2.347 . S
O834 C818 1.259 . S
O835 Tb816 2.418 . S
O835 C818 1.265 . S
O836 Tb816 2.384 . S
O836 C819 1.255 . S
O837 Eu817 2.366 . S
O837 C819 1.265 . S
C838 O829 1.255 . S
C838 O830 1.265 . S
O839 Tb816 2.479 . S
O839 C826 1.238 . S
O840 Tb816 2.471 . S
O840 C826 1.247 . S
C841 C844 1.380 . S
C841 C845 1.374 . S
C841 C847 1.507 . S
C842 C843 1.387 . S
C842 C846 1.391 . S
C843 C842 1.387 . S
C843 C844 1.384 . S
C843 H852 0.930 . S
C844 C841 1.380 . S
C844 C843 1.384 . S
C844 H853 0.931 . S
C845 C841 1.374 . S
C845 C846 1.390 . S
C845 H854 0.930 . S
C846 C842 1.391 . S
C846 C845 1.390 . S
C846 H855 0.930 . S
C847 Eu817 2.825 . S
C847 O832 1.238 . S
C847 O833 1.247 . S
C847 C841 1.507 . S
H848 C821 0.930 . S
H849 C822 0.931 . S
H850 C823 0.930 . S
H851 C824 0.930 . S
H852 C843 0.930 . S
H853 C844 0.931 . S
H854 C845 0.930 . S
H855 C846 0.930 . S
Tb856 C866 2.825 . S
Tb856 O867 2.347 . S
Tb856 O870 2.366 . S
Tb856 O875 2.418 . S
Tb856 O876 2.384 . S
Tb856 O879 2.479 . S
Tb856 O880 2.471 . S
Eu857 O868 2.418 . S
Eu857 O869 2.384 . S
Eu857 O872 2.479 . S
Eu857 O873 2.471 . S
Eu857 O874 2.347 . S
Eu857 O877 2.366 . S
Eu857 C887 2.825 . S
C858 O874 1.259 . S
C858 O875 1.265 . S
C859 O876 1.255 . S
C859 O877 1.265 . S
C860 C862 1.380 . S
C860 C863 1.374 . S
C860 C866 1.507 . S
C861 C862 1.384 . S
C861 C865 1.387 . S
C861 H888 0.930 . S
C862 C860 1.380 . S
C862 C861 1.384 . S
C862 H889 0.931 . S
C863 C860 1.374 . S
C863 C864 1.390 . S
C863 H890 0.930 . S
C864 C863 1.390 . S
C864 C865 1.391 . S
C864 H891 0.930 . S
C865 C861 1.387 . S
C865 C864 1.391 . S
C866 Tb856 2.825 . S
C866 C860 1.507 . S
C866 O879 1.238 . S
C866 O880 1.247 . S
O867 Tb856 2.347 . S
O867 C871 1.259 . S
O868 Eu857 2.418 . S
O868 C871 1.265 . S
O869 Eu857 2.384 . S
O869 C878 1.255 . S
O870 Tb856 2.366 . S
O870 C878 1.265 . S
C871 O867 1.259 . S
C871 O868 1.265 . S
O872 Eu857 2.479 . S
O872 C887 1.238 . S
O873 Eu857 2.471 . S
O873 C887 1.247 . S
O874 Eu857 2.347 . S
O874 C858 1.259 . S
O875 Tb856 2.418 . S
O875 C858 1.265 . S
O876 Tb856 2.384 . S
O876 C859 1.255 . S
O877 Eu857 2.366 . S
O877 C859 1.265 . S
C878 O869 1.255 . S
C878 O870 1.265 . S
O879 Tb856 2.479 . S
O879 C866 1.238 . S
O880 Tb856 2.471 . S
O880 C866 1.247 . S
C881 C884 1.380 . S
C881 C885 1.374 . S
C881 C887 1.507 . S
C882 C883 1.387 . S
C882 C886 1.391 . S
C883 C882 1.387 . S
C883 C884 1.384 . S
C883 H892 0.930 . S
C884 C881 1.380 . S
C884 C883 1.384 . S
C884 H893 0.931 . S
C885 C881 1.374 . S
C885 C886 1.390 . S
C885 H894 0.930 . S
C886 C882 1.391 . S
C886 C885 1.390 . S
C886 H895 0.930 . S
C887 Eu857 2.825 . S
C887 O872 1.238 . S
C887 O873 1.247 . S
C887 C881 1.507 . S
H888 C861 0.930 . S
H889 C862 0.931 . S
H890 C863 0.930 . S
H891 C864 0.930 . S
H892 C883 0.930 . S
H893 C884 0.931 . S
H894 C885 0.930 . S
H895 C886 0.930 . S
Tb896 C906 2.825 . S
Tb896 O907 2.347 . S
Tb896 O910 2.366 . S
Tb896 O915 2.418 . S
Tb896 O916 2.384 . S
Tb896 O919 2.479 . S
Tb896 O920 2.471 . S
Eu897 O908 2.418 . S
Eu897 O909 2.384 . S
Eu897 O912 2.479 . S
Eu897 O913 2.471 . S
Eu897 O914 2.347 . S
Eu897 O917 2.366 . S
Eu897 C927 2.825 . S
C898 O914 1.259 . S
C898 O915 1.265 . S
C899 O916 1.255 . S
C899 O917 1.265 . S
C900 C902 1.380 . S
C900 C903 1.374 . S
C900 C906 1.507 . S
C901 C902 1.384 . S
C901 C905 1.387 . S
C901 H928 0.930 . S
C902 C900 1.380 . S
C902 C901 1.384 . S
C902 H929 0.931 . S
C903 C900 1.374 . S
C903 C904 1.390 . S
C903 H930 0.930 . S
C904 C903 1.390 . S
C904 C905 1.391 . S
C904 H931 0.930 . S
C905 C901 1.387 . S
C905 C904 1.391 . S
C906 Tb896 2.825 . S
C906 C900 1.507 . S
C906 O919 1.238 . S
C906 O920 1.247 . S
O907 Tb896 2.347 . S
O907 C911 1.259 . S
O908 Eu897 2.418 . S
O908 C911 1.265 . S
O909 Eu897 2.384 . S
O909 C918 1.255 . S
O910 Tb896 2.366 . S
O910 C918 1.265 . S
C911 O907 1.259 . S
C911 O908 1.265 . S
O912 Eu897 2.479 . S
O912 C927 1.238 . S
O913 Eu897 2.471 . S
O913 C927 1.247 . S
O914 Eu897 2.347 . S
O914 C898 1.259 . S
O915 Tb896 2.418 . S
O915 C898 1.265 . S
O916 Tb896 2.384 . S
O916 C899 1.255 . S
O917 Eu897 2.366 . S
O917 C899 1.265 . S
C918 O909 1.255 . S
C918 O910 1.265 . S
O919 Tb896 2.479 . S
O919 C906 1.238 . S
O920 Tb896 2.471 . S
O920 C906 1.247 . S
C921 C924 1.380 . S
C921 C925 1.374 . S
C921 C927 1.507 . S
C922 C923 1.387 . S
C922 C926 1.391 . S
C923 C922 1.387 . S
C923 C924 1.384 . S
C923 H932 0.930 . S
C924 C921 1.380 . S
C924 C923 1.384 . S
C924 H933 0.931 . S
C925 C921 1.374 . S
C925 C926 1.390 . S
C925 H934 0.930 . S
C926 C922 1.391 . S
C926 C925 1.390 . S
C926 H935 0.930 . S
C927 Eu897 2.825 . S
C927 O912 1.238 . S
C927 O913 1.247 . S
C927 C921 1.507 . S
H928 C901 0.930 . S
H929 C902 0.931 . S
H930 C903 0.930 . S
H931 C904 0.930 . S
H932 C923 0.930 . S
H933 C924 0.931 . S
H934 C925 0.930 . S
H935 C926 0.930 . S
Tb936 C946 2.825 . S
Tb936 O947 2.347 1_554 S
Tb936 O950 2.366 . S
Tb936 O955 2.418 . S
Tb936 O956 2.384 . S
Tb936 O959 2.479 . S
Tb936 O960 2.471 1_554 S
Eu937 O948 2.418 1_554 S
Eu937 O949 2.384 . S
Eu937 O952 2.479 . S
Eu937 O953 2.471 . S
Eu937 O954 2.347 . S
Eu937 O957 2.366 . S
Eu937 C967 2.825 . S
C938 O954 1.259 . S
C938 O955 1.265 . S
C939 O956 1.255 . S
C939 O957 1.265 . S
C940 C942 1.380 1_556 S
C940 C943 1.374 . S
C940 C946 1.507 1_556 S
C941 C942 1.384 1_556 S
C941 C945 1.387 . S
C941 H968 0.930 1_556 S
C942 C940 1.380 1_554 S
C942 C941 1.384 1_554 S
C942 H969 0.931 . S
C943 C940 1.374 . S
C943 C944 1.390 . S
C943 H970 0.930 . S
C944 C943 1.390 . S
C944 C945 1.391 . S
C944 H971 0.930 . S
C945 C941 1.387 . S
C945 C944 1.391 . S
C946 Tb936 2.825 . S
C946 C940 1.507 1_554 S
C946 O959 1.238 . S
C946 O960 1.247 1_554 S
O947 Tb936 2.347 1_556 S
O947 C951 1.259 . S
O948 Eu937 2.418 1_556 S
O948 C951 1.265 . S
O949 Eu937 2.384 . S
O949 C958 1.255 . S
O950 Tb936 2.366 . S
O950 C958 1.265 . S
C951 O947 1.259 . S
C951 O948 1.265 . S
O952 Eu937 2.479 . S
O952 C967 1.238 . S
O953 Eu937 2.471 . S
O953 C967 1.247 . S
O954 Eu937 2.347 . S
O954 C938 1.259 . S
O955 Tb936 2.418 . S
O955 C938 1.265 . S
O956 Tb936 2.384 . S
O956 C939 1.255 . S
O957 Eu937 2.366 . S
O957 C939 1.265 . S
C958 O949 1.255 . S
C958 O950 1.265 . S
O959 Tb936 2.479 . S
O959 C946 1.238 . S
O960 Tb936 2.471 1_556 S
O960 C946 1.247 1_556 S
C961 C964 1.380 . S
C961 C965 1.374 . S
C961 C967 1.507 . S
C962 C963 1.387 . S
C962 C966 1.391 . S
C963 C962 1.387 . S
C963 C964 1.384 . S
C963 H972 0.930 . S
C964 C961 1.380 . S
C964 C963 1.384 . S
C964 H973 0.931 . S
C965 C961 1.374 . S
C965 C966 1.390 . S
C965 H974 0.930 . S
C966 C962 1.391 . S
C966 C965 1.390 . S
C966 H975 0.930 . S
C967 Eu937 2.825 . S
C967 O952 1.238 . S
C967 O953 1.247 . S
C967 C961 1.507 . S
H968 C941 0.930 1_554 S
H969 C942 0.931 . S
H970 C943 0.930 . S
H971 C944 0.930 . S
H972 C963 0.930 . S
H973 C964 0.931 . S
H974 C965 0.930 . S
H975 C966 0.930 . S
H976 C982 0.930 . S
H977 C985 0.930 . S
H978 C986 0.930 . S
H979 C987 0.930 . S
H980 C990 0.930 . S
H981 C991 0.930 . S
C982 H976 0.930 . S
C982 C983 1.355 . S
C982 C984 1.415 . S
C983 C982 1.355 . S
C983 C985 1.419 1_455 S
C984 C982 1.415 . S
C984 C989 1.425 . S
C984 C991 1.409 . S
C985 H977 0.930 . S
C985 C983 1.419 1_655 S
C985 C986 1.362 . S
C986 H978 0.930 . S
C986 C985 1.362 . S
C986 C989 1.409 1_655 S
C987 H979 0.930 . S
C987 C988 1.355 . S
C987 C989 1.415 1_554 S
C988 C987 1.355 . S
C988 C990 1.418 1_554 S
C989 C984 1.425 . S
C989 C986 1.409 1_455 S
C989 C987 1.415 1_556 S
C990 H980 0.930 . S
C990 C988 1.418 1_556 S
C990 C991 1.362 . S
C991 H981 0.930 . S
C991 C984 1.409 . S
C991 C990 1.362 . S
H992 C998 0.930 . S
H993 C1001 0.930 . S
H994 C1002 0.930 . S
H995 C1003 0.930 . S
H996 C1006 0.930 . S
H997 C1007 0.930 . S
C998 H992 0.930 . S
C998 C999 1.355 . S
C998 C1000 1.415 . S
C999 C998 1.355 . S
C999 C1001 1.419 . S
C1000 C998 1.415 . S
C1000 C1005 1.425 . S
C1000 C1007 1.409 . S
C1001 H993 0.930 . S
C1001 C999 1.419 . S
C1001 C1002 1.362 . S
C1002 H994 0.930 . S
C1002 C1001 1.362 . S
C1002 C1005 1.409 . S
C1003 H995 0.930 . S
C1003 C1004 1.355 . S
C1003 C1005 1.415 . S
C1004 C1003 1.355 . S
C1004 C1006 1.419 . S
C1005 C1000 1.425 . S
C1005 C1002 1.409 . S
C1005 C1003 1.415 . S
C1006 H996 0.930 . S
C1006 C1004 1.419 . S
C1006 C1007 1.362 . S
C1007 H997 0.930 . S
C1007 C1000 1.409 . S
C1007 C1006 1.362 . S
H1008 C1014 0.930 . S
H1009 C1017 0.930 . S
H1010 C1018 0.930 . S
H1011 C1019 0.930 . S
H1012 C1022 0.930 . S
H1013 C1023 0.930 . S
C1014 H1008 0.930 . S
C1014 C1015 1.355 . S
C1014 C1016 1.415 . S
C1015 C1014 1.355 . S
C1015 C1017 1.419 . S
C1016 C1014 1.415 . S
C1016 C1021 1.425 . S
C1016 C1023 1.409 . S
C1017 H1009 0.930 . S
C1017 C1015 1.419 . S
C1017 C1018 1.362 . S
C1018 H1010 0.930 . S
C1018 C1017 1.362 . S
C1018 C1021 1.409 . S
C1019 H1011 0.930 . S
C1019 C1020 1.355 . S
C1019 C1021 1.415 . S
C1020 C1019 1.355 . S
C1020 C1022 1.419 . S
C1021 C1016 1.425 . S
C1021 C1018 1.409 . S
C1021 C1019 1.415 . S
C1022 H1012 0.930 . S
C1022 C1020 1.419 . S
C1022 C1023 1.362 . S
C1023 H1013 0.930 . S
C1023 C1016 1.409 . S
C1023 C1022 1.362 . S
H1024 C1030 0.930 . S
H1025 C1033 0.930 . S
H1026 C1034 0.930 . S
H1027 C1035 0.930 . S
H1028 C1038 0.930 . S
H1029 C1039 0.930 . S
C1030 H1024 0.930 . S
C1030 C1031 1.355 . S
C1030 C1032 1.415 . S
C1031 C1030 1.355 . S
C1031 C1033 1.419 . S
C1032 C1030 1.415 . S
C1032 C1037 1.425 . S
C1032 C1039 1.409 . S
C1033 H1025 0.930 . S
C1033 C1031 1.419 . S
C1033 C1034 1.362 . S
C1034 H1026 0.930 . S
C1034 C1033 1.362 . S
C1034 C1037 1.409 . S
C1035 H1027 0.930 . S
C1035 C1036 1.355 . S
C1035 C1037 1.415 . S
C1036 C1035 1.355 . S
C1036 C1038 1.419 . S
C1037 C1032 1.425 . S
C1037 C1034 1.409 . S
C1037 C1035 1.415 . S
C1038 H1028 0.930 . S
C1038 C1036 1.419 . S
C1038 C1039 1.362 . S
C1039 H1029 0.930 . S
C1039 C1032 1.409 . S
C1039 C1038 1.362 . S
H1040 C1046 0.930 . S
H1041 C1049 0.930 . S
H1042 C1050 0.930 . S
H1043 C1051 0.930 . S
H1044 C1054 0.930 . S
H1045 C1055 0.930 . S
C1046 H1040 0.930 . S
C1046 C1047 1.355 . S
C1046 C1048 1.415 . S
C1047 C1046 1.355 . S
C1047 C1049 1.419 . S
C1048 C1046 1.415 . S
C1048 C1053 1.425 . S
C1048 C1055 1.409 . S
C1049 H1041 0.930 . S
C1049 C1047 1.419 . S
C1049 C1050 1.362 . S
C1050 H1042 0.930 . S
C1050 C1049 1.362 . S
C1050 C1053 1.409 . S
C1051 H1043 0.930 . S
C1051 C1052 1.355 . S
C1051 C1053 1.415 . S
C1052 C1051 1.355 . S
C1052 C1054 1.419 . S
C1053 C1048 1.425 . S
C1053 C1050 1.409 . S
C1053 C1051 1.415 . S
C1054 H1044 0.930 . S
C1054 C1052 1.419 . S
C1054 C1055 1.362 . S
C1055 H1045 0.930 . S
C1055 C1048 1.409 . S
C1055 C1054 1.362 . S
H1056 C1062 0.930 . S
H1057 C1065 0.930 . S
H1058 C1066 0.930 . S
H1059 C1067 0.930 . S
H1060 C1070 0.930 . S
H1061 C1071 0.930 . S
C1062 H1056 0.930 . S
C1062 C1063 1.355 . S
C1062 C1064 1.415 . S
C1063 C1062 1.355 . S
C1063 C1065 1.419 . S
C1064 C1062 1.415 . S
C1064 C1069 1.425 . S
C1064 C1071 1.409 . S
C1065 H1057 0.930 . S
C1065 C1063 1.419 . S
C1065 C1066 1.362 . S
C1066 H1058 0.930 . S
C1066 C1065 1.362 . S
C1066 C1069 1.409 . S
C1067 H1059 0.930 . S
C1067 C1068 1.355 . S
C1067 C1069 1.415 . S
C1068 C1067 1.355 . S
C1068 C1070 1.419 . S
C1069 C1064 1.425 . S
C1069 C1066 1.409 . S
C1069 C1067 1.415 . S
C1070 H1060 0.930 . S
C1070 C1068 1.419 . S
C1070 C1071 1.362 . S
C1071 H1061 0.930 . S
C1071 C1064 1.409 . S
C1071 C1070 1.362 . S
H1072 C1078 0.930 . S
H1073 C1081 0.930 . S
H1074 C1082 0.930 . S
H1075 C1083 0.930 . S
H1076 C1086 0.930 . S
H1077 C1087 0.930 . S
C1078 H1072 0.930 . S
C1078 C1079 1.355 . S
C1078 C1080 1.415 . S
C1079 C1078 1.355 . S
C1079 C1081 1.419 . S
C1080 C1078 1.415 . S
C1080 C1085 1.425 . S
C1080 C1087 1.409 . S
C1081 H1073 0.930 . S
C1081 C1079 1.419 . S
C1081 C1082 1.362 . S
C1082 H1074 0.930 . S
C1082 C1081 1.362 . S
C1082 C1085 1.409 . S
C1083 H1075 0.930 . S
C1083 C1084 1.355 . S
C1083 C1085 1.415 . S
C1084 C1083 1.355 . S
C1084 C1086 1.419 . S
C1085 C1080 1.425 . S
C1085 C1082 1.409 . S
C1085 C1083 1.415 . S
C1086 H1076 0.930 . S
C1086 C1084 1.419 . S
C1086 C1087 1.362 . S
C1087 H1077 0.930 . S
C1087 C1080 1.409 . S
C1087 C1086 1.362 . S
H1088 C1094 0.930 . S
H1089 C1097 0.930 . S
H1090 C1098 0.930 . S
H1091 C1099 0.930 . S
H1092 C1102 0.930 . S
H1093 C1103 0.930 . S
C1094 H1088 0.930 . S
C1094 C1095 1.355 . S
C1094 C1096 1.415 . S
C1095 C1094 1.355 . S
C1095 C1097 1.419 . S
C1096 C1094 1.415 . S
C1096 C1101 1.425 . S
C1096 C1103 1.409 . S
C1097 H1089 0.930 . S
C1097 C1095 1.419 . S
C1097 C1098 1.362 . S
C1098 H1090 0.930 . S
C1098 C1097 1.362 . S
C1098 C1101 1.409 . S
C1099 H1091 0.930 . S
C1099 C1100 1.355 . S
C1099 C1101 1.415 . S
C1100 C1099 1.355 . S
C1100 C1102 1.419 . S
C1101 C1096 1.425 . S
C1101 C1098 1.409 . S
C1101 C1099 1.415 . S
C1102 H1092 0.930 . S
C1102 C1100 1.419 . S
C1102 C1103 1.362 . S
C1103 H1093 0.930 . S
C1103 C1096 1.409 . S
C1103 C1102 1.362 . S
H1104 C1110 0.930 . S
H1105 C1113 0.930 . S
H1106 C1114 0.895 1_455 S
H1107 C1115 0.930 . S
H1108 C1118 0.930 . S
H1109 C1119 0.930 . S
C1110 H1104 0.930 . S
C1110 C1111 1.355 . S
C1110 C1112 1.415 . S
C1111 C1110 1.355 . S
C1111 C1113 1.419 1_545 S
C1112 C1110 1.415 . S
C1112 C1117 1.425 . S
C1112 C1119 1.409 . S
C1113 H1105 0.930 . S
C1113 C1111 1.419 1_565 S
C1113 C1114 1.362 . S
C1114 H1106 0.895 1_655 S
C1114 C1113 1.362 . S
C1114 C1117 1.407 1_565 S
C1115 H1107 0.930 . S
C1115 C1116 1.355 . S
C1115 C1117 1.415 1_455 S
C1116 C1115 1.355 . S
C1116 C1118 1.419 1_455 S
C1117 C1112 1.425 . S
C1117 C1114 1.407 1_545 S
C1117 C1115 1.415 1_655 S
C1118 H1108 0.930 . S
C1118 C1116 1.419 1_655 S
C1118 C1119 1.362 . S
C1119 H1109 0.930 . S
C1119 C1112 1.409 . S
C1119 C1118 1.362 . S
H1120 C1126 0.930 . S
H1121 C1129 0.930 . S
H1122 C1130 0.930 . S
H1123 C1131 0.930 . S
H1124 C1134 0.930 . S
H1125 C1135 0.930 . S
C1126 H1120 0.930 . S
C1126 C1127 1.355 . S
C1126 C1128 1.415 . S
C1127 C1126 1.355 . S
C1127 C1129 1.419 . S
C1128 C1126 1.415 . S
C1128 C1133 1.425 . S
C1128 C1135 1.409 . S
C1129 H1121 0.930 . S
C1129 C1127 1.419 . S
C1129 C1130 1.362 . S
C1130 H1122 0.930 . S
C1130 C1129 1.362 . S
C1130 C1133 1.409 . S
C1131 H1123 0.930 . S
C1131 C1132 1.355 . S
C1131 C1133 1.415 . S
C1132 C1131 1.355 . S
C1132 C1134 1.419 . S
C1133 C1128 1.425 . S
C1133 C1130 1.409 . S
C1133 C1131 1.415 . S
C1134 H1124 0.930 . S
C1134 C1132 1.419 . S
C1134 C1135 1.362 . S
C1135 H1125 0.930 . S
C1135 C1128 1.409 . S
C1135 C1134 1.362 . S
H1136 C1142 0.930 . S
H1137 C1145 0.930 . S
H1138 C1146 0.930 . S
H1139 C1147 0.930 . S
H1140 C1150 0.930 . S
H1141 C1151 0.930 . S
C1142 H1136 0.930 . S
C1142 C1143 1.331 1_545 S
C1142 C1144 1.415 . S
C1143 C1142 1.331 1_565 S
C1143 C1145 1.433 . S
C1144 C1142 1.415 . S
C1144 C1149 1.425 . S
C1144 C1151 1.409 . S
C1145 H1137 0.930 . S
C1145 C1143 1.433 . S
C1145 C1146 1.362 . S
C1146 H1138 0.930 . S
C1146 C1145 1.362 . S
C1146 C1149 1.409 1_565 S
C1147 H1139 0.930 . S
C1147 C1148 1.355 . S
C1147 C1149 1.415 . S
C1148 C1147 1.355 . S
C1148 C1150 1.419 . S
C1149 C1144 1.425 . S
C1149 C1146 1.409 1_545 S
C1149 C1147 1.415 . S
C1150 H1140 0.930 . S
C1150 C1148 1.419 . S
C1150 C1151 1.362 . S
C1151 H1141 0.930 . S
C1151 C1144 1.409 . S
C1151 C1150 1.362 . S
H1152 C1158 0.930 . S
H1153 C1161 0.930 . S
H1154 C1162 0.930 . S
H1155 C1163 0.930 . S
H1156 C1166 0.930 . S
H1157 C1167 0.930 . S
C1158 H1152 0.930 . S
C1158 C1159 1.355 . S
C1158 C1160 1.415 . S
C1159 C1158 1.355 . S
C1159 C1161 1.419 . S
C1160 C1158 1.415 . S
C1160 C1165 1.425 . S
C1160 C1167 1.409 . S
C1161 H1153 0.930 . S
C1161 C1159 1.419 . S
C1161 C1162 1.362 . S
C1162 H1154 0.930 . S
C1162 C1161 1.362 . S
C1162 C1165 1.409 . S
C1163 H1155 0.930 . S
C1163 C1164 1.355 . S
C1163 C1165 1.415 . S
C1164 C1163 1.355 . S
C1164 C1166 1.419 . S
C1165 C1160 1.425 . S
C1165 C1162 1.409 . S
C1165 C1163 1.415 . S
C1166 H1156 0.930 . S
C1166 C1164 1.419 . S
C1166 C1167 1.362 . S
C1167 H1157 0.930 . S
C1167 C1160 1.409 . S
C1167 C1166 1.362 . S
H1168 C1174 0.930 . S
H1169 C1177 0.930 . S
H1170 C1178 0.932 . S
H1171 C1179 0.930 . S
H1172 C1182 0.930 . S
H1173 C1183 0.930 1_455 S
C1174 H1168 0.930 . S
C1174 C1175 1.355 . S
C1174 C1176 1.415 . S
C1175 C1174 1.355 . S
C1175 C1177 1.419 1_545 S
C1176 C1174 1.415 . S
C1176 C1181 1.425 . S
C1176 C1183 1.409 . S
C1177 H1169 0.930 . S
C1177 C1175 1.419 1_565 S
C1177 C1178 1.362 1_565 S
C1178 H1170 0.932 . S
C1178 C1177 1.362 1_545 S
C1178 C1181 1.409 . S
C1179 H1171 0.930 . S
C1179 C1180 1.355 . S
C1179 C1181 1.415 . S
C1180 C1179 1.355 . S
C1180 C1182 1.419 1_655 S
C1181 C1176 1.425 . S
C1181 C1178 1.409 . S
C1181 C1179 1.415 . S
C1182 H1172 0.930 . S
C1182 C1180 1.419 1_455 S
C1182 C1183 1.362 1_455 S
C1183 H1173 0.930 1_655 S
C1183 C1176 1.409 . S
C1183 C1182 1.362 1_655 S
H1184 C1190 0.930 . S
H1185 C1193 0.930 . S
H1186 C1194 0.930 . S
H1187 C1195 0.930 . S
H1188 C1198 0.930 . S
H1189 C1199 0.930 . S
C1190 H1184 0.930 . S
C1190 C1191 1.355 . S
C1190 C1192 1.415 . S
C1191 C1190 1.355 . S
C1191 C1193 1.419 . S
C1192 C1190 1.415 . S
C1192 C1197 1.425 . S
C1192 C1199 1.409 . S
C1193 H1185 0.930 . S
C1193 C1191 1.419 . S
C1193 C1194 1.362 . S
C1194 H1186 0.930 . S
C1194 C1193 1.362 . S
C1194 C1197 1.409 . S
C1195 H1187 0.930 . S
C1195 C1196 1.355 . S
C1195 C1197 1.415 . S
C1196 C1195 1.355 . S
C1196 C1198 1.419 . S
C1197 C1192 1.425 . S
C1197 C1194 1.409 . S
C1197 C1195 1.415 . S
C1198 H1188 0.930 . S
C1198 C1196 1.419 . S
C1198 C1199 1.362 . S
C1199 H1189 0.930 . S
C1199 C1192 1.409 . S
C1199 C1198 1.362 . S
H1200 C1206 0.930 . S
H1201 C1209 0.930 . S
H1202 C1210 0.930 . S
H1203 C1211 0.930 . S
H1204 C1214 0.930 . S
H1205 C1215 0.930 . S
C1206 H1200 0.930 . S
C1206 C1207 1.355 . S
C1206 C1208 1.415 . S
C1207 C1206 1.355 . S
C1207 C1209 1.419 1_545 S
C1208 C1206 1.415 . S
C1208 C1213 1.425 . S
C1208 C1215 1.409 . S
C1209 H1201 0.930 . S
C1209 C1207 1.419 1_565 S
C1209 C1210 1.362 1_565 S
C1210 H1202 0.930 . S
C1210 C1209 1.362 1_545 S
C1210 C1213 1.409 . S
C1211 H1203 0.930 . S
C1211 C1212 1.355 . S
C1211 C1213 1.415 . S
C1212 C1211 1.355 . S
C1212 C1214 1.419 . S
C1213 C1208 1.425 . S
C1213 C1210 1.409 . S
C1213 C1211 1.415 . S
C1214 H1204 0.930 . S
C1214 C1212 1.419 . S
C1214 C1215 1.362 . S
C1215 H1205 0.930 . S
C1215 C1208 1.409 . S
C1215 C1214 1.362 . S
H1216 C1222 0.930 . S
H1217 C1225 0.930 . S
H1218 C1226 0.930 . S
H1219 C1227 0.930 . S
H1220 C1230 0.930 . S
H1221 C1231 0.930 . S
C1222 H1216 0.930 . S
C1222 C1223 1.355 . S
C1222 C1224 1.415 . S
C1223 C1222 1.355 . S
C1223 C1225 1.419 . S
C1224 C1222 1.415 . S
C1224 C1229 1.425 . S
C1224 C1231 1.409 . S
C1225 H1217 0.930 . S
C1225 C1223 1.419 . S
C1225 C1226 1.362 . S
C1226 H1218 0.930 . S
C1226 C1225 1.362 . S
C1226 C1229 1.409 . S
C1227 H1219 0.930 . S
C1227 C1228 1.355 . S
C1227 C1229 1.415 . S
C1228 C1227 1.355 . S
C1228 C1230 1.419 . S
C1229 C1224 1.425 . S
C1229 C1226 1.409 . S
C1229 C1227 1.415 . S
C1230 H1220 0.930 . S
C1230 C1228 1.419 . S
C1230 C1231 1.362 . S
C1231 H1221 0.930 . S
C1231 C1224 1.409 . S
C1231 C1230 1.362 . S
H1232 C1238 0.930 . S
H1233 C1241 0.930 . S
H1234 C1242 0.930 . S
H1235 C1243 0.930 . S
H1236 C1246 0.930 . S
H1237 C1247 0.930 . S
C1238 H1232 0.930 . S
C1238 C1239 1.355 . S
C1238 C1240 1.415 . S
C1239 C1238 1.355 . S
C1239 C1241 1.419 . S
C1240 C1238 1.415 . S
C1240 C1245 1.425 . S
C1240 C1247 1.409 . S
C1241 H1233 0.930 . S
C1241 C1239 1.419 . S
C1241 C1242 1.362 . S
C1242 H1234 0.930 . S
C1242 C1241 1.362 . S
C1242 C1245 1.409 . S
C1243 H1235 0.930 . S
C1243 C1244 1.355 . S
C1243 C1245 1.415 . S
C1244 C1243 1.355 . S
C1244 C1246 1.419 . S
C1245 C1240 1.425 . S
C1245 C1242 1.409 . S
C1245 C1243 1.415 . S
C1246 H1236 0.930 . S
C1246 C1244 1.419 . S
C1246 C1247 1.362 . S
C1247 H1237 0.930 . S
C1247 C1240 1.409 . S
C1247 C1246 1.362 . S
H1248 C1254 0.930 . S
H1249 C1257 0.930 1_556 S
H1250 C1258 0.930 1_556 S
H1251 C1259 0.930 . S
H1252 C1262 0.930 . S
H1253 C1263 0.930 . S
C1254 H1248 0.930 . S
C1254 C1255 1.355 . S
C1254 C1256 1.415 . S
C1255 C1254 1.355 . S
C1255 C1257 1.419 . S
C1256 C1254 1.415 . S
C1256 C1261 1.425 . S
C1256 C1263 1.409 . S
C1257 H1249 0.930 1_554 S
C1257 C1255 1.419 . S
C1257 C1258 1.362 . S
C1258 H1250 0.930 1_554 S
C1258 C1257 1.362 . S
C1258 C1261 1.409 . S
C1259 H1251 0.930 . S
C1259 C1260 1.355 . S
C1259 C1261 1.415 . S
C1260 C1259 1.355 . S
C1260 C1262 1.419 . S
C1261 C1256 1.425 . S
C1261 C1258 1.409 . S
C1261 C1259 1.415 . S
C1262 H1252 0.930 . S
C1262 C1260 1.419 . S
C1262 C1263 1.362 . S
C1263 H1253 0.930 . S
C1263 C1256 1.409 . S
C1263 C1262 1.362 . S
H1264 C1270 0.930 . S
H1265 C1273 0.930 . S
H1266 C1274 0.930 . S
H1267 C1275 0.930 . S
H1268 C1278 0.930 . S
H1269 C1279 0.930 . S
C1270 H1264 0.930 . S
C1270 C1271 1.355 . S
C1270 C1272 1.415 . S
C1271 C1270 1.355 . S
C1271 C1273 1.419 . S
C1272 C1270 1.415 . S
C1272 C1277 1.425 . S
C1272 C1279 1.409 . S
C1273 H1265 0.930 . S
C1273 C1271 1.419 . S
C1273 C1274 1.362 . S
C1274 H1266 0.930 . S
C1274 C1273 1.362 . S
C1274 C1277 1.409 . S
C1275 H1267 0.930 . S
C1275 C1276 1.355 . S
C1275 C1277 1.415 . S
C1276 C1275 1.355 . S
C1276 C1278 1.419 . S
C1277 C1272 1.425 . S
C1277 C1274 1.409 . S
C1277 C1275 1.415 . S
C1278 H1268 0.930 . S
C1278 C1276 1.419 . S
C1278 C1279 1.362 . S
C1279 H1269 0.930 . S
C1279 C1272 1.409 . S
C1279 C1278 1.362 . S
H1280 C1286 0.930 . S
H1281 C1289 0.930 . S
H1282 C1290 0.930 . S
H1283 C1291 0.930 . S
H1284 C1294 0.930 . S
H1285 C1295 0.930 . S
C1286 H1280 0.930 . S
C1286 C1287 1.355 . S
C1286 C1288 1.415 . S
C1287 C1286 1.355 . S
C1287 C1289 1.419 . S
C1288 C1286 1.415 . S
C1288 C1293 1.425 . S
C1288 C1295 1.409 . S
C1289 H1281 0.930 . S
C1289 C1287 1.419 . S
C1289 C1290 1.362 . S
C1290 H1282 0.930 . S
C1290 C1289 1.362 . S
C1290 C1293 1.409 . S
C1291 H1283 0.930 . S
C1291 C1292 1.355 . S
C1291 C1293 1.415 . S
C1292 C1291 1.355 . S
C1292 C1294 1.419 . S
C1293 C1288 1.425 . S
C1293 C1290 1.409 . S
C1293 C1291 1.415 . S
C1294 H1284 0.930 . S
C1294 C1292 1.419 . S
C1294 C1295 1.362 . S
C1295 H1285 0.930 . S
C1295 C1288 1.409 . S
C1295 C1294 1.362 . S
H1296 C1302 0.930 . S
H1297 C1305 0.930 . S
H1298 C1306 0.930 . S
H1299 C1307 0.930 . S
H1300 C1310 0.930 . S
H1301 C1311 0.930 . S
C1302 H1296 0.930 . S
C1302 C1303 1.355 . S
C1302 C1304 1.415 . S
C1303 C1302 1.355 . S
C1303 C1305 1.419 . S
C1304 C1302 1.415 . S
C1304 C1309 1.425 . S
C1304 C1311 1.409 . S
C1305 H1297 0.930 . S
C1305 C1303 1.419 . S
C1305 C1306 1.362 . S
C1306 H1298 0.930 . S
C1306 C1305 1.362 . S
C1306 C1309 1.409 . S
C1307 H1299 0.930 . S
C1307 C1308 1.355 . S
C1307 C1309 1.415 . S
C1308 C1307 1.355 . S
C1308 C1310 1.419 . S
C1309 C1304 1.425 . S
C1309 C1306 1.409 . S
C1309 C1307 1.415 . S
C1310 H1300 0.930 . S
C1310 C1308 1.419 . S
C1310 C1311 1.362 . S
C1311 H1301 0.930 . S
C1311 C1304 1.409 . S
C1311 C1310 1.362 . S
H1312 C1318 0.930 . S
H1313 C1321 0.930 . S
H1314 C1322 0.930 . S
H1315 C1323 0.930 . S
H1316 C1326 0.930 . S
H1317 C1327 0.930 . S
C1318 H1312 0.930 . S
C1318 C1319 1.355 . S
C1318 C1320 1.415 . S
C1319 C1318 1.355 . S
C1319 C1321 1.419 . S
C1320 C1318 1.415 . S
C1320 C1325 1.425 . S
C1320 C1327 1.409 . S
C1321 H1313 0.930 . S
C1321 C1319 1.419 . S
C1321 C1322 1.362 . S
C1322 H1314 0.930 . S
C1322 C1321 1.362 . S
C1322 C1325 1.409 . S
C1323 H1315 0.930 . S
C1323 C1324 1.355 . S
C1323 C1325 1.415 . S
C1324 C1323 1.355 . S
C1324 C1326 1.419 . S
C1325 C1320 1.425 . S
C1325 C1322 1.409 . S
C1325 C1323 1.415 . S
C1326 H1316 0.930 . S
C1326 C1324 1.419 . S
C1326 C1327 1.362 . S
C1327 H1317 0.930 . S
C1327 C1320 1.409 . S
C1327 C1326 1.362 . S
H1328 C1334 0.930 . S
H1329 C1337 0.930 . S
H1330 C1338 0.930 . S
H1331 C1339 0.930 . S
H1332 C1342 0.930 . S
H1333 C1343 0.930 . S
C1334 H1328 0.930 . S
C1334 C1335 1.355 . S
C1334 C1336 1.415 . S
C1335 C1334 1.355 . S
C1335 C1337 1.419 . S
C1336 C1334 1.415 . S
C1336 C1341 1.425 . S
C1336 C1343 1.409 . S
C1337 H1329 0.930 . S
C1337 C1335 1.419 . S
C1337 C1338 1.362 . S
C1338 H1330 0.930 . S
C1338 C1337 1.362 . S
C1338 C1341 1.409 . S
C1339 H1331 0.930 . S
C1339 C1340 1.355 . S
C1339 C1341 1.415 . S
C1340 C1339 1.355 . S
C1340 C1342 1.419 . S
C1341 C1336 1.425 . S
C1341 C1338 1.409 . S
C1341 C1339 1.415 . S
C1342 H1332 0.930 . S
C1342 C1340 1.419 . S
C1342 C1343 1.362 . S
C1343 H1333 0.930 . S
C1343 C1336 1.409 . S
C1343 C1342 1.362 . S
H1344 C1350 0.930 . S
H1345 C1353 0.930 . S
H1346 C1354 0.930 . S
H1347 C1355 0.930 . S
H1348 C1358 0.930 . S
H1349 C1359 0.930 . S
C1350 H1344 0.930 . S
C1350 C1351 1.355 . S
C1350 C1352 1.415 . S
C1351 C1350 1.355 . S
C1351 C1353 1.419 . S
C1352 C1350 1.415 . S
C1352 C1357 1.425 . S
C1352 C1359 1.409 . S
C1353 H1345 0.930 . S
C1353 C1351 1.419 . S
C1353 C1354 1.362 . S
C1354 H1346 0.930 . S
C1354 C1353 1.362 . S
C1354 C1357 1.409 . S
C1355 H1347 0.930 . S
C1355 C1356 1.355 . S
C1355 C1357 1.415 . S
C1356 C1355 1.355 . S
C1356 C1358 1.419 . S
C1357 C1352 1.425 . S
C1357 C1354 1.409 . S
C1357 C1355 1.415 . S
C1358 H1348 0.930 . S
C1358 C1356 1.419 . S
C1358 C1359 1.362 . S
C1359 H1349 0.930 . S
C1359 C1352 1.409 . S
C1359 C1358 1.362 . S
H1360 C1366 0.930 . S
H1361 C1369 0.930 . S
H1362 C1370 0.930 . S
H1363 C1371 0.930 . S
H1364 C1374 0.930 1_545 S
H1365 C1375 0.930 . S
C1366 H1360 0.930 . S
C1366 C1367 1.355 . S
C1366 C1368 1.415 . S
C1367 C1366 1.355 . S
C1367 C1369 1.419 . S
C1368 C1366 1.415 . S
C1368 C1373 1.425 . S
C1368 C1375 1.409 . S
C1369 H1361 0.930 . S
C1369 C1367 1.419 . S
C1369 C1370 1.362 . S
C1370 H1362 0.930 . S
C1370 C1369 1.362 . S
C1370 C1373 1.409 . S
C1371 H1363 0.930 . S
C1371 C1372 1.355 . S
C1371 C1373 1.415 . S
C1372 C1371 1.355 . S
C1372 C1374 1.419 . S
C1373 C1368 1.425 . S
C1373 C1370 1.409 . S
C1373 C1371 1.415 . S
C1374 H1364 0.930 1_565 S
C1374 C1372 1.419 . S
C1374 C1375 1.362 . S
C1375 H1365 0.930 . S
C1375 C1368 1.409 . S
C1375 C1374 1.362 . S
H1376 C1382 0.930 . S
H1377 C1385 0.930 . S
H1378 C1386 0.930 . S
H1379 C1387 0.930 . S
H1380 C1390 0.930 . S
H1381 C1391 0.930 . S
C1382 H1376 0.930 . S
C1382 C1383 1.355 . S
C1382 C1384 1.415 . S
C1383 C1382 1.355 . S
C1383 C1385 1.419 . S
C1384 C1382 1.415 . S
C1384 C1389 1.425 . S
C1384 C1391 1.409 . S
C1385 H1377 0.930 . S
C1385 C1383 1.419 . S
C1385 C1386 1.362 . S
C1386 H1378 0.930 . S
C1386 C1385 1.362 . S
C1386 C1389 1.409 . S
C1387 H1379 0.930 . S
C1387 C1388 1.355 . S
C1387 C1389 1.415 . S
C1388 C1387 1.355 . S
C1388 C1390 1.419 . S
C1389 C1384 1.425 . S
C1389 C1386 1.409 . S
C1389 C1387 1.415 . S
C1390 H1380 0.930 . S
C1390 C1388 1.419 . S
C1390 C1391 1.362 . S
C1391 H1381 0.930 . S
C1391 C1384 1.409 . S
C1391 C1390 1.362 . S
H1392 C1398 0.930 . S
H1393 C1401 0.930 . S
H1394 C1402 0.930 . S
H1395 C1403 0.930 . S
H1396 C1406 0.930 . S
H1397 C1407 0.930 . S
C1398 H1392 0.930 . S
C1398 C1399 1.355 . S
C1398 C1400 1.415 . S
C1399 C1398 1.355 . S
C1399 C1401 1.419 . S
C1400 C1398 1.415 . S
C1400 C1405 1.425 . S
C1400 C1407 1.409 . S
C1401 H1393 0.930 . S
C1401 C1399 1.419 . S
C1401 C1402 1.362 . S
C1402 H1394 0.930 . S
C1402 C1401 1.362 . S
C1402 C1405 1.409 . S
C1403 H1395 0.930 . S
C1403 C1404 1.355 . S
C1403 C1405 1.415 . S
C1404 C1403 1.355 . S
C1404 C1406 1.419 . S
C1405 C1400 1.425 . S
C1405 C1402 1.409 . S
C1405 C1403 1.415 . S
C1406 H1396 0.930 . S
C1406 C1404 1.419 . S
C1406 C1407 1.362 . S
C1407 H1397 0.930 . S
C1407 C1400 1.409 . S
C1407 C1406 1.362 . S
H1408 C1414 0.930 . S
H1409 C1417 0.930 . S
H1410 C1418 0.930 . S
H1411 C1419 0.930 . S
H1412 C1422 0.930 . S
H1413 C1423 0.930 . S
C1414 H1408 0.930 . S
C1414 C1415 1.355 . S
C1414 C1416 1.415 . S
C1415 C1414 1.355 . S
C1415 C1417 1.419 . S
C1416 C1414 1.415 . S
C1416 C1421 1.425 . S
C1416 C1423 1.409 . S
C1417 H1409 0.930 . S
C1417 C1415 1.419 . S
C1417 C1418 1.362 . S
C1418 H1410 0.930 . S
C1418 C1417 1.362 . S
C1418 C1421 1.409 . S
C1419 H1411 0.930 . S
C1419 C1420 1.355 . S
C1419 C1421 1.415 . S
C1420 C1419 1.355 . S
C1420 C1422 1.419 . S
C1421 C1416 1.425 . S
C1421 C1418 1.409 . S
C1421 C1419 1.415 . S
C1422 H1412 0.930 . S
C1422 C1420 1.419 . S
C1422 C1423 1.362 . S
C1423 H1413 0.930 . S
C1423 C1416 1.409 . S
C1423 C1422 1.362 . S
H1424 C1430 0.930 . S
H1425 C1433 0.930 . S
H1426 C1434 0.930 . S
H1427 C1435 0.930 . S
H1428 C1438 0.930 . S
H1429 C1439 0.930 . S
C1430 H1424 0.930 . S
C1430 C1431 1.355 . S
C1430 C1432 1.415 . S
C1431 C1430 1.355 . S
C1431 C1433 1.419 . S
C1432 C1430 1.415 . S
C1432 C1437 1.425 . S
C1432 C1439 1.409 . S
C1433 H1425 0.930 . S
C1433 C1431 1.419 . S
C1433 C1434 1.362 . S
C1434 H1426 0.930 . S
C1434 C1433 1.362 . S
C1434 C1437 1.409 . S
C1435 H1427 0.930 . S
C1435 C1436 1.355 . S
C1435 C1437 1.415 . S
C1436 C1435 1.355 . S
C1436 C1438 1.419 . S
C1437 C1432 1.425 . S
C1437 C1434 1.409 . S
C1437 C1435 1.415 . S
C1438 H1428 0.930 . S
C1438 C1436 1.419 . S
C1438 C1439 1.362 . S
C1439 H1429 0.930 . S
C1439 C1432 1.409 . S
C1439 C1438 1.362 . S
H1440 C1446 0.930 . S
H1441 C1449 0.930 . S
H1442 C1450 0.930 . S
H1443 C1451 0.930 . S
H1444 C1454 0.930 . S
H1445 C1455 0.930 . S
C1446 H1440 0.930 . S
C1446 C1447 1.355 . S
C1446 C1448 1.415 . S
C1447 C1446 1.355 . S
C1447 C1449 1.419 . S
C1448 C1446 1.415 . S
C1448 C1453 1.425 . S
C1448 C1455 1.409 . S
C1449 H1441 0.930 . S
C1449 C1447 1.419 . S
C1449 C1450 1.362 . S
C1450 H1442 0.930 . S
C1450 C1449 1.362 . S
C1450 C1453 1.409 . S
C1451 H1443 0.930 . S
C1451 C1452 1.355 . S
C1451 C1453 1.415 . S
C1452 C1451 1.355 . S
C1452 C1454 1.419 . S
C1453 C1448 1.425 . S
C1453 C1450 1.409 . S
C1453 C1451 1.415 . S
C1454 H1444 0.930 . S
C1454 C1452 1.419 . S
C1454 C1455 1.362 . S
C1455 H1445 0.930 . S
C1455 C1448 1.409 . S
C1455 C1454 1.362 . S
H1456 C1462 0.930 . S
H1457 C1465 0.930 . S
H1458 C1466 0.930 . S
H1459 C1467 0.930 . S
H1460 C1470 0.930 . S
H1461 C1471 0.930 . S
C1462 H1456 0.930 . S
C1462 C1463 1.355 . S
C1462 C1464 1.415 . S
C1463 C1462 1.355 . S
C1463 C1465 1.419 . S
C1464 C1462 1.415 . S
C1464 C1469 1.425 . S
C1464 C1471 1.409 . S
C1465 H1457 0.930 . S
C1465 C1463 1.419 . S
C1465 C1466 1.362 . S
C1466 H1458 0.930 . S
C1466 C1465 1.362 . S
C1466 C1469 1.409 . S
C1467 H1459 0.930 . S
C1467 C1468 1.355 . S
C1467 C1469 1.415 . S
C1468 C1467 1.355 . S
C1468 C1470 1.419 . S
C1469 C1464 1.425 . S
C1469 C1466 1.409 . S
C1469 C1467 1.415 . S
C1470 H1460 0.930 . S
C1470 C1468 1.419 . S
C1470 C1471 1.362 . S
C1471 H1461 0.930 . S
C1471 C1464 1.409 . S
C1471 C1470 1.362 . S
H1472 C1478 0.930 . S
H1473 C1481 0.930 . S
H1474 C1482 0.930 . S
H1475 C1483 0.930 . S
H1476 C1486 0.930 . S
H1477 C1487 0.930 . S
C1478 H1472 0.930 . S
C1478 C1479 1.355 . S
C1478 C1480 1.415 . S
C1479 C1478 1.355 . S
C1479 C1481 1.419 . S
C1480 C1478 1.415 . S
C1480 C1485 1.425 . S
C1480 C1487 1.409 . S
C1481 H1473 0.930 . S
C1481 C1479 1.419 . S
C1481 C1482 1.362 . S
C1482 H1474 0.930 . S
C1482 C1481 1.362 . S
C1482 C1485 1.409 . S
C1483 H1475 0.930 . S
C1483 C1484 1.355 . S
C1483 C1485 1.415 . S
C1484 C1483 1.355 . S
C1484 C1486 1.419 . S
C1485 C1480 1.425 . S
C1485 C1482 1.409 . S
C1485 C1483 1.415 . S
C1486 H1476 0.930 . S
C1486 C1484 1.419 . S
C1486 C1487 1.362 . S
C1487 H1477 0.930 . S
C1487 C1480 1.409 . S
C1487 C1486 1.362 . S
H1488 C1494 0.930 . S
H1489 C1497 0.930 . S
H1490 C1498 0.930 . S
H1491 C1499 0.930 . S
H1492 C1502 0.930 . S
H1493 C1503 0.930 . S
C1494 H1488 0.930 . S
C1494 C1495 1.355 . S
C1494 C1496 1.415 . S
C1495 C1494 1.355 . S
C1495 C1497 1.419 . S
C1496 C1494 1.415 . S
C1496 C1501 1.425 . S
C1496 C1503 1.409 . S
C1497 H1489 0.930 . S
C1497 C1495 1.419 . S
C1497 C1498 1.362 . S
C1498 H1490 0.930 . S
C1498 C1497 1.362 . S
C1498 C1501 1.409 . S
C1499 H1491 0.930 . S
C1499 C1500 1.355 . S
C1499 C1501 1.415 . S
C1500 C1499 1.355 . S
C1500 C1502 1.419 . S
C1501 C1496 1.425 . S
C1501 C1498 1.409 . S
C1501 C1499 1.415 . S
C1502 H1492 0.930 . S
C1502 C1500 1.419 . S
C1502 C1503 1.362 . S
C1503 H1493 0.930 . S
C1503 C1496 1.409 . S
C1503 C1502 1.362 . S
H1504 C1510 0.930 . S
H1505 C1513 0.930 . S
H1506 C1514 0.930 . S
H1507 C1515 0.930 . S
H1508 C1518 0.930 . S
H1509 C1519 0.930 . S
C1510 H1504 0.930 . S
C1510 C1511 1.355 . S
C1510 C1512 1.415 . S
C1511 C1510 1.355 . S
C1511 C1513 1.419 . S
C1512 C1510 1.415 . S
C1512 C1517 1.425 . S
C1512 C1519 1.409 . S
C1513 H1505 0.930 . S
C1513 C1511 1.419 . S
C1513 C1514 1.362 . S
C1514 H1506 0.930 . S
C1514 C1513 1.362 . S
C1514 C1517 1.409 . S
C1515 H1507 0.930 . S
C1515 C1516 1.355 . S
C1515 C1517 1.415 . S
C1516 C1515 1.355 . S
C1516 C1518 1.419 . S
C1517 C1512 1.425 . S
C1517 C1514 1.409 . S
C1517 C1515 1.415 . S
C1518 H1508 0.930 . S
C1518 C1516 1.419 . S
C1518 C1519 1.362 . S
C1519 H1509 0.930 . S
C1519 C1512 1.409 . S
C1519 C1518 1.362 . S
H1520 C1526 0.930 . S
H1521 C1529 0.930 . S
H1522 C1530 0.930 . S
H1523 C1531 0.930 . S
H1524 C1534 0.930 . S
H1525 C1535 0.930 . S
C1526 H1520 0.930 . S
C1526 C1527 1.355 . S
C1526 C1528 1.415 . S
C1527 C1526 1.355 . S
C1527 C1529 1.419 . S
C1528 C1526 1.415 . S
C1528 C1533 1.425 . S
C1528 C1535 1.409 . S
C1529 H1521 0.930 . S
C1529 C1527 1.419 . S
C1529 C1530 1.362 . S
C1530 H1522 0.930 . S
C1530 C1529 1.362 . S
C1530 C1533 1.409 . S
C1531 H1523 0.930 . S
C1531 C1532 1.355 . S
C1531 C1533 1.415 . S
C1532 C1531 1.355 . S
C1532 C1534 1.419 . S
C1533 C1528 1.425 . S
C1533 C1530 1.409 . S
C1533 C1531 1.415 . S
C1534 H1524 0.930 . S
C1534 C1532 1.419 . S
C1534 C1535 1.362 . S
C1535 H1525 0.930 . S
C1535 C1528 1.409 . S
C1535 C1534 1.362 . S
H1536 C1542 0.930 . S
H1537 C1545 0.930 . S
H1538 C1546 0.930 . S
H1539 C1547 0.930 . S
H1540 C1550 0.930 . S
H1541 C1551 0.930 . S
C1542 H1536 0.930 . S
C1542 C1543 1.355 . S
C1542 C1544 1.415 . S
C1543 C1542 1.355 . S
C1543 C1545 1.419 . S
C1544 C1542 1.415 . S
C1544 C1549 1.425 . S
C1544 C1551 1.409 . S
C1545 H1537 0.930 . S
C1545 C1543 1.419 . S
C1545 C1546 1.362 . S
C1546 H1538 0.930 . S
C1546 C1545 1.362 . S
C1546 C1549 1.409 . S
C1547 H1539 0.930 . S
C1547 C1548 1.355 . S
C1547 C1549 1.415 . S
C1548 C1547 1.355 . S
C1548 C1550 1.419 . S
C1549 C1544 1.425 . S
C1549 C1546 1.409 . S
C1549 C1547 1.415 . S
C1550 H1540 0.930 . S
C1550 C1548 1.419 . S
C1550 C1551 1.362 . S
C1551 H1541 0.930 . S
C1551 C1544 1.409 . S
C1551 C1550 1.362 . S
H1552 C1558 0.930 . S
H1553 C1561 0.930 . S
H1554 C1562 0.930 . S
H1555 C1563 0.930 . S
H1556 C1566 0.930 . S
H1557 C1567 0.930 . S
C1558 H1552 0.930 . S
C1558 C1559 1.355 . S
C1558 C1560 1.415 . S
C1559 C1558 1.355 . S
C1559 C1561 1.419 . S
C1560 C1558 1.415 . S
C1560 C1565 1.425 . S
C1560 C1567 1.409 . S
C1561 H1553 0.930 . S
C1561 C1559 1.419 . S
C1561 C1562 1.362 . S
C1562 H1554 0.930 . S
C1562 C1561 1.362 . S
C1562 C1565 1.409 . S
C1563 H1555 0.930 . S
C1563 C1564 1.355 . S
C1563 C1565 1.415 . S
C1564 C1563 1.355 . S
C1564 C1566 1.419 . S
C1565 C1560 1.425 . S
C1565 C1562 1.409 . S
C1565 C1563 1.415 . S
C1566 H1556 0.930 . S
C1566 C1564 1.419 . S
C1566 C1567 1.362 . S
C1567 H1557 0.930 . S
C1567 C1560 1.409 . S
C1567 C1566 1.362 . S
H1568 C1574 0.930 . S
H1569 C1577 0.930 . S
H1570 C1578 0.930 . S
H1571 C1579 0.930 . S
H1572 C1582 0.930 . S
H1573 C1583 0.930 . S
C1574 H1568 0.930 . S
C1574 C1575 1.355 . S
C1574 C1576 1.415 . S
C1575 C1574 1.355 . S
C1575 C1577 1.419 . S
C1576 C1574 1.415 . S
C1576 C1581 1.425 . S
C1576 C1583 1.409 . S
C1577 H1569 0.930 . S
C1577 C1575 1.419 . S
C1577 C1578 1.362 . S
C1578 H1570 0.930 . S
C1578 C1577 1.362 . S
C1578 C1581 1.409 . S
C1579 H1571 0.930 . S
C1579 C1580 1.355 . S
C1579 C1581 1.415 . S
C1580 C1579 1.355 . S
C1580 C1582 1.419 . S
C1581 C1576 1.425 . S
C1581 C1578 1.409 . S
C1581 C1579 1.415 . S
C1582 H1572 0.930 . S
C1582 C1580 1.419 . S
C1582 C1583 1.362 . S
C1583 H1573 0.930 . S
C1583 C1576 1.409 . S
C1583 C1582 1.362 . S
H1584 C1590 0.930 . S
H1585 C1593 0.930 . S
H1586 C1594 0.930 . S
H1587 C1595 0.930 . S
H1588 C1598 0.930 . S
H1589 C1599 0.930 . S
C1590 H1584 0.930 . S
C1590 C1591 1.355 . S
C1590 C1592 1.415 . S
C1591 C1590 1.355 . S
C1591 C1593 1.419 . S
C1592 C1590 1.415 . S
C1592 C1597 1.425 . S
C1592 C1599 1.409 . S
C1593 H1585 0.930 . S
C1593 C1591 1.419 . S
C1593 C1594 1.362 . S
C1594 H1586 0.930 . S
C1594 C1593 1.362 . S
C1594 C1597 1.409 . S
C1595 H1587 0.930 . S
C1595 C1596 1.355 . S
C1595 C1597 1.415 . S
C1596 C1595 1.355 . S
C1596 C1598 1.419 1_545 S
C1597 C1592 1.425 . S
C1597 C1594 1.409 . S
C1597 C1595 1.415 . S
C1598 H1588 0.930 . S
C1598 C1596 1.419 1_565 S
C1598 C1599 1.362 1_565 S
C1599 H1589 0.930 . S
C1599 C1592 1.409 . S
C1599 C1598 1.362 1_545 S
H1600 C1606 0.930 . S
H1601 C1609 0.930 . S
H1602 C1610 0.930 . S
H1603 C1611 0.930 . S
H1604 C1614 0.930 . S
H1605 C1615 0.930 . S
C1606 H1600 0.930 . S
C1606 C1607 1.355 . S
C1606 C1608 1.415 . S
C1607 C1606 1.355 . S
C1607 C1609 1.419 . S
C1608 C1606 1.415 . S
C1608 C1613 1.425 . S
C1608 C1615 1.409 . S
C1609 H1601 0.930 . S
C1609 C1607 1.419 . S
C1609 C1610 1.362 . S
C1610 H1602 0.930 . S
C1610 C1609 1.362 . S
C1610 C1613 1.409 . S
C1611 H1603 0.930 . S
C1611 C1612 1.355 . S
C1611 C1613 1.415 . S
C1612 C1611 1.355 . S
C1612 C1614 1.419 . S
C1613 C1608 1.425 . S
C1613 C1610 1.409 . S
C1613 C1611 1.415 . S
C1614 H1604 0.930 . S
C1614 C1612 1.419 . S
C1614 C1615 1.362 . S
C1615 H1605 0.930 . S
C1615 C1608 1.409 . S
C1615 C1614 1.362 . S
H1616 C1622 0.930 . S
H1617 C1625 0.930 1_554 S
H1618 C1626 0.930 . S
H1619 C1627 0.930 . S
H1620 C1630 0.930 . S
H1621 C1631 0.930 . S
C1622 H1616 0.930 . S
C1622 C1623 1.355 . S
C1622 C1624 1.415 . S
C1623 C1622 1.355 . S
C1623 C1625 1.419 . S
C1624 C1622 1.415 . S
C1624 C1629 1.425 . S
C1624 C1631 1.409 . S
C1625 H1617 0.930 1_556 S
C1625 C1623 1.419 . S
C1625 C1626 1.362 . S
C1626 H1618 0.930 . S
C1626 C1625 1.362 . S
C1626 C1629 1.409 . S
C1627 H1619 0.930 . S
C1627 C1628 1.355 . S
C1627 C1629 1.415 . S
C1628 C1627 1.355 . S
C1628 C1630 1.419 . S
C1629 C1624 1.425 . S
C1629 C1626 1.409 . S
C1629 C1627 1.415 . S
C1630 H1620 0.930 . S
C1630 C1628 1.419 . S
C1630 C1631 1.362 . S
C1631 H1621 0.930 . S
C1631 C1624 1.409 . S
C1631 C1630 1.362 . S
H1632 C1638 0.930 . S
H1633 C1641 0.930 . S
H1634 C1642 0.930 . S
H1635 C1643 0.930 . S
H1636 C1646 0.930 . S
H1637 C1647 0.930 . S
C1638 H1632 0.930 . S
C1638 C1639 1.355 . S
C1638 C1640 1.415 . S
C1639 C1638 1.355 . S
C1639 C1641 1.419 . S
C1640 C1638 1.415 . S
C1640 C1645 1.425 . S
C1640 C1647 1.409 . S
C1641 H1633 0.930 . S
C1641 C1639 1.419 . S
C1641 C1642 1.362 . S
C1642 H1634 0.930 . S
C1642 C1641 1.362 . S
C1642 C1645 1.409 . S
C1643 H1635 0.930 . S
C1643 C1644 1.355 . S
C1643 C1645 1.415 . S
C1644 C1643 1.355 . S
C1644 C1646 1.419 . S
C1645 C1640 1.425 . S
C1645 C1642 1.409 . S
C1645 C1643 1.415 . S
C1646 H1636 0.930 . S
C1646 C1644 1.419 . S
C1646 C1647 1.362 . S
C1647 H1637 0.930 . S
C1647 C1640 1.409 . S
C1647 C1646 1.362 . S
H1648 C1654 0.930 . S
H1649 C1657 0.930 . S
H1650 C1658 0.930 . S
H1651 C1659 0.930 . S
H1652 C1662 0.930 . S
H1653 C1663 0.930 . S
C1654 H1648 0.930 . S
C1654 C1655 1.355 . S
C1654 C1656 1.415 . S
C1655 C1654 1.355 . S
C1655 C1657 1.419 . S
C1656 C1654 1.415 . S
C1656 C1661 1.425 . S
C1656 C1663 1.409 . S
C1657 H1649 0.930 . S
C1657 C1655 1.419 . S
C1657 C1658 1.362 . S
C1658 H1650 0.930 . S
C1658 C1657 1.362 . S
C1658 C1661 1.409 . S
C1659 H1651 0.930 . S
C1659 C1660 1.355 . S
C1659 C1661 1.415 . S
C1660 C1659 1.355 . S
C1660 C1662 1.419 . S
C1661 C1656 1.425 . S
C1661 C1658 1.409 . S
C1661 C1659 1.415 . S
C1662 H1652 0.930 . S
C1662 C1660 1.419 . S
C1662 C1663 1.362 . S
C1663 H1653 0.930 . S
C1663 C1656 1.409 . S
C1663 C1662 1.362 . S
H1664 C1670 0.930 . S
H1665 C1673 0.930 . S
H1666 C1674 0.930 . S
H1667 C1675 0.930 . S
H1668 C1678 0.930 . S
H1669 C1679 0.930 . S
C1670 H1664 0.930 . S
C1670 C1671 1.355 . S
C1670 C1672 1.415 . S
C1671 C1670 1.355 . S
C1671 C1673 1.419 . S
C1672 C1670 1.415 . S
C1672 C1677 1.425 . S
C1672 C1679 1.409 . S
C1673 H1665 0.930 . S
C1673 C1671 1.419 . S
C1673 C1674 1.362 . S
C1674 H1666 0.930 . S
C1674 C1673 1.362 . S
C1674 C1677 1.409 . S
C1675 H1667 0.930 . S
C1675 C1676 1.355 . S
C1675 C1677 1.415 . S
C1676 C1675 1.355 . S
C1676 C1678 1.419 . S
C1677 C1672 1.425 . S
C1677 C1674 1.409 . S
C1677 C1675 1.415 . S
C1678 H1668 0.930 . S
C1678 C1676 1.419 . S
C1678 C1679 1.362 . S
C1679 H1669 0.930 . S
C1679 C1672 1.409 . S
C1679 C1678 1.362 . S
H1680 C1686 0.930 . S
H1681 C1689 0.930 . S
H1682 C1690 0.930 . S
H1683 C1691 0.930 . S
H1684 C1694 0.930 . S
H1685 C1695 0.930 . S
C1686 H1680 0.930 . S
C1686 C1687 1.355 . S
C1686 C1688 1.415 . S
C1687 C1686 1.355 . S
C1687 C1689 1.419 . S
C1688 C1686 1.415 . S
C1688 C1693 1.425 . S
C1688 C1695 1.409 . S
C1689 H1681 0.930 . S
C1689 C1687 1.419 . S
C1689 C1690 1.362 . S
C1690 H1682 0.930 . S
C1690 C1689 1.362 . S
C1690 C1693 1.409 . S
C1691 H1683 0.930 . S
C1691 C1692 1.355 . S
C1691 C1693 1.415 . S
C1692 C1691 1.355 . S
C1692 C1694 1.419 . S
C1693 C1688 1.425 . S
C1693 C1690 1.409 . S
C1693 C1691 1.415 . S
C1694 H1684 0.930 . S
C1694 C1692 1.419 . S
C1694 C1695 1.362 . S
C1695 H1685 0.930 . S
C1695 C1688 1.409 . S
C1695 C1694 1.362 . S
H1696 C1702 0.930 . S
H1697 C1705 0.930 . S
H1698 C1706 0.930 . S
H1699 C1707 0.930 . S
H1700 C1710 0.930 . S
H1701 C1711 0.930 . S
C1702 H1696 0.930 . S
C1702 C1703 1.355 . S
C1702 C1704 1.415 . S
C1703 C1702 1.355 . S
C1703 C1705 1.419 . S
C1704 C1702 1.415 . S
C1704 C1709 1.425 . S
C1704 C1711 1.409 1_565 S
C1705 H1697 0.930 . S
C1705 C1703 1.419 . S
C1705 C1706 1.362 . S
C1706 H1698 0.930 . S
C1706 C1705 1.362 . S
C1706 C1709 1.409 . S
C1707 H1699 0.930 . S
C1707 C1708 1.355 . S
C1707 C1709 1.415 . S
C1708 C1707 1.355 . S
C1708 C1710 1.419 1_565 S
C1709 C1704 1.425 . S
C1709 C1706 1.409 . S
C1709 C1707 1.415 . S
C1710 H1700 0.930 . S
C1710 C1708 1.419 1_545 S
C1710 C1711 1.362 . S
C1711 H1701 0.930 . S
C1711 C1704 1.409 1_545 S
C1711 C1710 1.362 . S
H1712 C1718 0.930 . S
H1713 C1721 0.930 . S
H1714 C1722 0.930 . S
H1715 C1723 0.930 . S
H1716 C1726 0.930 . S
H1717 C1727 0.930 . S
C1718 H1712 0.930 . S
C1718 C1719 1.355 . S
C1718 C1720 1.415 . S
C1719 C1718 1.355 . S
C1719 C1721 1.419 . S
C1720 C1718 1.415 . S
C1720 C1725 1.425 . S
C1720 C1727 1.409 . S
C1721 H1713 0.930 . S
C1721 C1719 1.419 . S
C1721 C1722 1.362 . S
C1722 H1714 0.930 . S
C1722 C1721 1.362 . S
C1722 C1725 1.409 . S
C1723 H1715 0.930 . S
C1723 C1724 1.355 . S
C1723 C1725 1.415 . S
C1724 C1723 1.355 . S
C1724 C1726 1.419 . S
C1725 C1720 1.425 . S
C1725 C1722 1.409 . S
C1725 C1723 1.415 . S
C1726 H1716 0.930 . S
C1726 C1724 1.419 . S
C1726 C1727 1.362 . S
C1727 H1717 0.930 . S
C1727 C1720 1.409 . S
C1727 C1726 1.362 . S
H1728 C1734 0.930 . S
H1729 C1737 0.930 . S
H1730 C1738 0.930 . S
H1731 C1739 0.930 . S
H1732 C1742 0.930 . S
H1733 C1743 0.930 . S
C1734 H1728 0.930 . S
C1734 C1735 1.355 . S
C1734 C1736 1.415 . S
C1735 C1734 1.355 . S
C1735 C1737 1.419 . S
C1736 C1734 1.415 . S
C1736 C1741 1.425 . S
C1736 C1743 1.409 . S
C1737 H1729 0.930 . S
C1737 C1735 1.419 . S
C1737 C1738 1.362 . S
C1738 H1730 0.930 . S
C1738 C1737 1.362 . S
C1738 C1741 1.409 . S
C1739 H1731 0.930 . S
C1739 C1740 1.355 . S
C1739 C1741 1.415 . S
C1740 C1739 1.355 . S
C1740 C1742 1.419 . S
C1741 C1736 1.425 . S
C1741 C1738 1.409 . S
C1741 C1739 1.415 . S
C1742 H1732 0.930 . S
C1742 C1740 1.419 . S
C1742 C1743 1.362 . S
C1743 H1733 0.930 . S
C1743 C1736 1.409 . S
C1743 C1742 1.362 . S
H1744 C1750 0.930 . S
H1745 C1753 0.930 . S
H1746 C1754 0.930 . S
H1747 C1755 0.930 . S
H1748 C1758 0.930 . S
H1749 C1759 0.930 . S
C1750 H1744 0.930 . S
C1750 C1751 1.355 . S
C1750 C1752 1.415 . S
C1751 C1750 1.355 . S
C1751 C1753 1.419 . S
C1752 C1750 1.415 . S
C1752 C1757 1.425 . S
C1752 C1759 1.409 . S
C1753 H1745 0.930 . S
C1753 C1751 1.419 . S
C1753 C1754 1.362 . S
C1754 H1746 0.930 . S
C1754 C1753 1.362 . S
C1754 C1757 1.409 . S
C1755 H1747 0.930 . S
C1755 C1756 1.355 . S
C1755 C1757 1.415 . S
C1756 C1755 1.355 . S
C1756 C1758 1.419 . S
C1757 C1752 1.425 . S
C1757 C1754 1.409 . S
C1757 C1755 1.415 . S
C1758 H1748 0.930 . S
C1758 C1756 1.419 . S
C1758 C1759 1.362 . S
C1759 H1749 0.930 . S
C1759 C1752 1.409 . S
C1759 C1758 1.362 . S
H1760 C1766 0.930 . S
H1761 C1769 0.930 . S
H1762 C1770 0.930 . S
H1763 C1771 0.930 . S
H1764 C1774 0.930 . S
H1765 C1775 0.930 . S
C1766 H1760 0.930 . S
C1766 C1767 1.355 . S
C1766 C1768 1.415 . S
C1767 C1766 1.355 . S
C1767 C1769 1.419 . S
C1768 C1766 1.415 . S
C1768 C1773 1.425 . S
C1768 C1775 1.409 . S
C1769 H1761 0.930 . S
C1769 C1767 1.419 . S
C1769 C1770 1.362 . S
C1770 H1762 0.930 . S
C1770 C1769 1.362 . S
C1770 C1773 1.409 . S
C1771 H1763 0.930 . S
C1771 C1772 1.355 . S
C1771 C1773 1.415 . S
C1772 C1771 1.355 . S
C1772 C1774 1.419 . S
C1773 C1768 1.425 . S
C1773 C1770 1.409 . S
C1773 C1771 1.415 . S
C1774 H1764 0.930 . S
C1774 C1772 1.419 . S
C1774 C1775 1.362 . S
C1775 H1765 0.930 . S
C1775 C1768 1.409 . S
C1775 C1774 1.362 . S
H1776 C1782 0.930 . S
H1777 C1785 0.930 . S
H1778 C1786 0.930 . S
H1779 C1787 0.930 . S
H1780 C1790 0.904 1_655 S
H1781 C1791 0.930 . S
C1782 H1776 0.930 . S
C1782 C1783 1.355 1_655 S
C1782 C1784 1.415 1_655 S
C1783 C1782 1.355 1_455 S
C1783 C1785 1.419 . S
C1784 C1782 1.415 1_455 S
C1784 C1789 1.425 . S
C1784 C1791 1.409 1_455 S
C1785 H1777 0.930 . S
C1785 C1783 1.419 . S
C1785 C1786 1.362 . S
C1786 H1778 0.930 . S
C1786 C1785 1.362 . S
C1786 C1789 1.409 . S
C1787 H1779 0.930 . S
C1787 C1788 1.355 . S
C1787 C1789 1.415 . S
C1788 C1787 1.355 . S
C1788 C1790 1.451 . S
C1789 C1784 1.425 . S
C1789 C1786 1.409 . S
C1789 C1787 1.415 . S
C1790 H1780 0.904 1_455 S
C1790 C1788 1.451 . S
C1790 C1791 1.357 1_455 S
C1791 H1781 0.930 . S
C1791 C1784 1.409 1_655 S
C1791 C1790 1.357 1_655 S
H1792 C1798 0.930 . S
H1793 C1801 0.930 . S
H1794 C1802 0.930 . S
H1795 C1803 0.930 . S
H1796 C1806 0.930 . S
H1797 C1807 0.930 . S
C1798 H1792 0.930 . S
C1798 C1799 1.355 . S
C1798 C1800 1.415 . S
C1799 C1798 1.355 . S
C1799 C1801 1.419 . S
C1800 C1798 1.415 . S
C1800 C1805 1.425 1_455 S
C1800 C1807 1.409 . S
C1801 H1793 0.930 . S
C1801 C1799 1.419 . S
C1801 C1802 1.362 1_455 S
C1802 H1794 0.930 . S
C1802 C1801 1.362 1_655 S
C1802 C1805 1.409 . S
C1803 H1795 0.930 . S
C1803 C1804 1.355 . S
C1803 C1805 1.415 . S
C1804 C1803 1.355 . S
C1804 C1806 1.419 . S
C1805 C1800 1.425 1_655 S
C1805 C1802 1.409 . S
C1805 C1803 1.415 . S
C1806 H1796 0.930 . S
C1806 C1804 1.419 . S
C1806 C1807 1.362 1_655 S
C1807 H1797 0.930 . S
C1807 C1800 1.409 . S
C1807 C1806 1.362 1_455 S
H1808 C1814 0.930 . S
H1809 C1817 0.930 . S
H1810 C1818 0.930 . S
H1811 C1819 0.930 . S
H1812 C1822 0.930 . S
H1813 C1823 0.930 . S
C1814 H1808 0.930 . S
C1814 C1815 1.355 . S
C1814 C1816 1.415 . S
C1815 C1814 1.355 . S
C1815 C1817 1.419 . S
C1816 C1814 1.415 . S
C1816 C1821 1.425 . S
C1816 C1823 1.409 . S
C1817 H1809 0.930 . S
C1817 C1815 1.419 . S
C1817 C1818 1.362 . S
C1818 H1810 0.930 . S
C1818 C1817 1.362 . S
C1818 C1821 1.409 . S
C1819 H1811 0.930 . S
C1819 C1820 1.355 . S
C1819 C1821 1.415 . S
C1820 C1819 1.355 . S
C1820 C1822 1.419 . S
C1821 C1816 1.425 . S
C1821 C1818 1.409 . S
C1821 C1819 1.415 . S
C1822 H1812 0.930 . S
C1822 C1820 1.419 . S
C1822 C1823 1.362 . S
C1823 H1813 0.930 . S
C1823 C1816 1.409 . S
C1823 C1822 1.362 . S
H1824 C1830 0.930 . S
H1825 C1833 0.930 . S
H1826 C1834 0.930 . S
H1827 C1835 0.930 . S
H1828 C1838 0.930 . S
H1829 C1839 0.930 . S
C1830 H1824 0.930 . S
C1830 C1831 1.355 . S
C1830 C1832 1.415 . S
C1831 C1830 1.355 . S
C1831 C1833 1.419 . S
C1832 C1830 1.415 . S
C1832 C1837 1.425 . S
C1832 C1839 1.409 . S
C1833 H1825 0.930 . S
C1833 C1831 1.419 . S
C1833 C1834 1.362 . S
C1834 H1826 0.930 . S
C1834 C1833 1.362 . S
C1834 C1837 1.409 . S
C1835 H1827 0.930 . S
C1835 C1836 1.355 . S
C1835 C1837 1.415 . S
C1836 C1835 1.355 . S
C1836 C1838 1.419 . S
C1837 C1832 1.425 . S
C1837 C1834 1.409 . S
C1837 C1835 1.415 . S
C1838 H1828 0.930 . S
C1838 C1836 1.419 . S
C1838 C1839 1.362 . S
C1839 H1829 0.930 . S
C1839 C1832 1.409 . S
C1839 C1838 1.362 . S
H1840 C1846 0.930 . S
H1841 C1849 0.930 . S
H1842 C1850 0.930 1_655 S
H1843 C1851 0.930 . S
H1844 C1854 0.930 . S
H1845 C1855 0.930 . S
C1846 H1840 0.930 . S
C1846 C1847 1.355 . S
C1846 C1848 1.415 . S
C1847 C1846 1.355 . S
C1847 C1849 1.419 . S
C1848 C1846 1.415 . S
C1848 C1853 1.425 . S
C1848 C1855 1.409 . S
C1849 H1841 0.930 . S
C1849 C1847 1.419 . S
C1849 C1850 1.362 . S
C1850 H1842 0.930 1_455 S
C1850 C1849 1.362 . S
C1850 C1853 1.409 . S
C1851 H1843 0.930 . S
C1851 C1852 1.355 . S
C1851 C1853 1.415 . S
C1852 C1851 1.355 . S
C1852 C1854 1.419 . S
C1853 C1848 1.425 . S
C1853 C1850 1.409 . S
C1853 C1851 1.415 . S
C1854 H1844 0.930 . S
C1854 C1852 1.419 . S
C1854 C1855 1.362 . S
C1855 H1845 0.930 . S
C1855 C1848 1.409 . S
C1855 C1854 1.362 . S
H1856 C1862 0.930 . S
H1857 C1865 0.930 . S
H1858 C1866 0.930 . S
H1859 C1867 0.930 . S
H1860 C1870 0.930 . S
H1861 C1871 0.930 . S
C1862 H1856 0.930 . S
C1862 C1863 1.355 . S
C1862 C1864 1.415 . S
C1863 C1862 1.355 . S
C1863 C1865 1.419 . S
C1864 C1862 1.415 . S
C1864 C1869 1.425 . S
C1864 C1871 1.409 . S
C1865 H1857 0.930 . S
C1865 C1863 1.419 . S
C1865 C1866 1.362 . S
C1866 H1858 0.930 . S
C1866 C1865 1.362 . S
C1866 C1869 1.409 . S
C1867 H1859 0.930 . S
C1867 C1868 1.355 . S
C1867 C1869 1.415 . S
C1868 C1867 1.355 . S
C1868 C1870 1.419 . S
C1869 C1864 1.425 . S
C1869 C1866 1.409 . S
C1869 C1867 1.415 . S
C1870 H1860 0.930 . S
C1870 C1868 1.419 . S
C1870 C1871 1.362 . S
C1871 H1861 0.930 . S
C1871 C1864 1.409 . S
C1871 C1870 1.362 . S
H1872 C1878 0.930 . S
H1873 C1881 0.930 . S
H1874 C1882 0.930 . S
H1875 C1883 0.930 . S
H1876 C1886 0.930 . S
H1877 C1887 0.930 . S
C1878 H1872 0.930 . S
C1878 C1879 1.355 . S
C1878 C1880 1.415 . S
C1879 C1878 1.355 . S
C1879 C1881 1.419 . S
C1880 C1878 1.415 . S
C1880 C1885 1.425 . S
C1880 C1887 1.409 . S
C1881 H1873 0.930 . S
C1881 C1879 1.419 . S
C1881 C1882 1.362 . S
C1882 H1874 0.930 . S
C1882 C1881 1.362 . S
C1882 C1885 1.409 . S
C1883 H1875 0.930 . S
C1883 C1884 1.355 . S
C1883 C1885 1.415 . S
C1884 C1883 1.355 . S
C1884 C1886 1.419 . S
C1885 C1880 1.425 . S
C1885 C1882 1.409 . S
C1885 C1883 1.415 . S
C1886 H1876 0.930 . S
C1886 C1884 1.419 . S
C1886 C1887 1.362 . S
C1887 H1877 0.930 . S
C1887 C1880 1.409 . S
C1887 C1886 1.362 . S
H1888 C1894 0.930 . S
H1889 C1897 0.930 . S
H1890 C1898 0.930 . S
H1891 C1899 0.930 . S
H1892 C1902 0.930 . S
H1893 C1903 0.930 . S
C1894 H1888 0.930 . S
C1894 C1895 1.355 . S
C1894 C1896 1.415 . S
C1895 C1894 1.355 . S
C1895 C1897 1.419 . S
C1896 C1894 1.415 . S
C1896 C1901 1.425 . S
C1896 C1903 1.409 . S
C1897 H1889 0.930 . S
C1897 C1895 1.419 . S
C1897 C1898 1.362 . S
C1898 H1890 0.930 . S
C1898 C1897 1.362 . S
C1898 C1901 1.409 . S
C1899 H1891 0.930 . S
C1899 C1900 1.355 . S
C1899 C1901 1.415 . S
C1900 C1899 1.355 . S
C1900 C1902 1.419 . S
C1901 C1896 1.425 . S
C1901 C1898 1.409 . S
C1901 C1899 1.415 . S
C1902 H1892 0.930 . S
C1902 C1900 1.419 . S
C1902 C1903 1.362 . S
C1903 H1893 0.930 . S
C1903 C1896 1.409 . S
C1903 C1902 1.362 . S
H1904 C1910 0.930 . S
H1905 C1913 0.930 . S
H1906 C1914 0.930 . S
H1907 C1915 0.930 . S
H1908 C1918 0.930 . S
H1909 C1919 0.930 . S
C1910 H1904 0.930 . S
C1910 C1911 1.355 . S
C1910 C1912 1.415 . S
C1911 C1910 1.355 . S
C1911 C1913 1.419 . S
C1912 C1910 1.415 . S
C1912 C1917 1.425 . S
C1912 C1919 1.409 . S
C1913 H1905 0.930 . S
C1913 C1911 1.419 . S
C1913 C1914 1.362 . S
C1914 H1906 0.930 . S
C1914 C1913 1.362 . S
C1914 C1917 1.409 . S
C1915 H1907 0.930 . S
C1915 C1916 1.355 . S
C1915 C1917 1.415 . S
C1916 C1915 1.355 . S
C1916 C1918 1.419 . S
C1917 C1912 1.425 . S
C1917 C1914 1.409 . S
C1917 C1915 1.415 . S
C1918 H1908 0.930 . S
C1918 C1916 1.419 . S
C1918 C1919 1.362 . S
C1919 H1909 0.930 . S
C1919 C1912 1.409 . S
C1919 C1918 1.362 . S
H1920 C1926 0.930 . S
H1921 C1929 0.930 . S
H1922 C1930 0.930 . S
H1923 C1931 0.930 . S
H1924 C1934 0.930 . S
H1925 C1935 0.930 . S
C1926 H1920 0.930 . S
C1926 C1927 1.355 . S
C1926 C1928 1.415 . S
C1927 C1926 1.355 . S
C1927 C1929 1.419 . S
C1928 C1926 1.415 . S
C1928 C1933 1.425 . S
C1928 C1935 1.409 . S
C1929 H1921 0.930 . S
C1929 C1927 1.419 . S
C1929 C1930 1.362 . S
C1930 H1922 0.930 . S
C1930 C1929 1.362 . S
C1930 C1933 1.409 . S
C1931 H1923 0.930 . S
C1931 C1932 1.355 . S
C1931 C1933 1.415 . S
C1932 C1931 1.355 . S
C1932 C1934 1.419 . S
C1933 C1928 1.425 . S
C1933 C1930 1.409 . S
C1933 C1931 1.415 . S
C1934 H1924 0.930 . S
C1934 C1932 1.419 . S
C1934 C1935 1.362 . S
C1935 H1925 0.930 . S
C1935 C1928 1.409 . S
C1935 C1934 1.362 . S
H1936 C1942 0.930 . S
H1937 C1945 0.930 . S
H1938 C1946 0.930 . S
H1939 C1947 0.930 . S
H1940 C1950 0.930 . S
H1941 C1951 0.930 . S
C1942 H1936 0.930 . S
C1942 C1943 1.355 . S
C1942 C1944 1.415 . S
C1943 C1942 1.355 . S
C1943 C1945 1.419 . S
C1944 C1942 1.415 . S
C1944 C1949 1.425 . S
C1944 C1951 1.409 . S
C1945 H1937 0.930 . S
C1945 C1943 1.419 . S
C1945 C1946 1.362 . S
C1946 H1938 0.930 . S
C1946 C1945 1.362 . S
C1946 C1949 1.409 . S
C1947 H1939 0.930 . S
C1947 C1948 1.355 . S
C1947 C1949 1.415 . S
C1948 C1947 1.355 . S
C1948 C1950 1.419 . S
C1949 C1944 1.425 . S
C1949 C1946 1.409 . S
C1949 C1947 1.415 . S
C1950 H1940 0.930 . S
C1950 C1948 1.419 . S
C1950 C1951 1.362 . S
C1951 H1941 0.930 . S
C1951 C1944 1.409 . S
C1951 C1950 1.362 . S
H1952 C1958 0.930 . S
H1953 C1961 0.930 . S
H1954 C1962 0.930 . S
H1955 C1963 0.930 . S
H1956 C1966 0.930 . S
H1957 C1967 0.930 . S
C1958 H1952 0.930 . S
C1958 C1959 1.355 . S
C1958 C1960 1.415 . S
C1959 C1958 1.355 . S
C1959 C1961 1.419 . S
C1960 C1958 1.415 . S
C1960 C1965 1.425 . S
C1960 C1967 1.409 . S
C1961 H1953 0.930 . S
C1961 C1959 1.419 . S
C1961 C1962 1.362 . S
C1962 H1954 0.930 . S
C1962 C1961 1.362 . S
C1962 C1965 1.409 . S
C1963 H1955 0.930 . S
C1963 C1964 1.355 . S
C1963 C1965 1.415 . S
C1964 C1963 1.355 . S
C1964 C1966 1.419 . S
C1965 C1960 1.425 . S
C1965 C1962 1.409 . S
C1965 C1963 1.415 . S
C1966 H1956 0.930 . S
C1966 C1964 1.419 . S
C1966 C1967 1.362 . S
C1967 H1957 0.930 . S
C1967 C1960 1.409 . S
C1967 C1966 1.362 . S
H1968 C1974 0.930 . S
H1969 C1977 0.930 . S
H1970 C1978 0.930 . S
H1971 C1979 0.930 . S
H1972 C1982 0.930 . S
H1973 C1983 0.930 . S
C1974 H1968 0.930 . S
C1974 C1975 1.355 . S
C1974 C1976 1.415 . S
C1975 C1974 1.355 . S
C1975 C1977 1.419 . S
C1976 C1974 1.415 . S
C1976 C1981 1.425 . S
C1976 C1983 1.409 . S
C1977 H1969 0.930 . S
C1977 C1975 1.419 . S
C1977 C1978 1.362 . S
C1978 H1970 0.930 . S
C1978 C1977 1.362 . S
C1978 C1981 1.409 . S
C1979 H1971 0.930 . S
C1979 C1980 1.355 . S
C1979 C1981 1.415 . S
C1980 C1979 1.355 . S
C1980 C1982 1.419 . S
C1981 C1976 1.425 . S
C1981 C1978 1.409 . S
C1981 C1979 1.415 . S
C1982 H1972 0.930 . S
C1982 C1980 1.419 . S
C1982 C1983 1.362 . S
C1983 H1973 0.930 . S
C1983 C1976 1.409 . S
C1983 C1982 1.362 . S
H1984 C1990 0.930 . S
H1985 C1993 0.930 . S
H1986 C1994 0.930 . S
H1987 C1995 0.930 . S
H1988 C1998 0.930 . S
H1989 C1999 0.930 . S
C1990 H1984 0.930 . S
C1990 C1991 1.355 . S
C1990 C1992 1.415 . S
C1991 C1990 1.355 . S
C1991 C1993 1.419 . S
C1992 C1990 1.415 . S
C1992 C1997 1.425 . S
C1992 C1999 1.409 . S
C1993 H1985 0.930 . S
C1993 C1991 1.419 . S
C1993 C1994 1.362 . S
C1994 H1986 0.930 . S
C1994 C1993 1.362 . S
C1994 C1997 1.409 . S
C1995 H1987 0.930 . S
C1995 C1996 1.355 . S
C1995 C1997 1.415 . S
C1996 C1995 1.355 . S
C1996 C1998 1.419 . S
C1997 C1992 1.425 . S
C1997 C1994 1.409 . S
C1997 C1995 1.415 . S
C1998 H1988 0.930 . S
C1998 C1996 1.419 . S
C1998 C1999 1.362 . S
C1999 H1989 0.930 . S
C1999 C1992 1.409 . S
C1999 C1998 1.362 . S
H2000 C2006 0.930 . S
H2001 C2009 0.930 . S
H2002 C2010 0.930 . S
H2003 C2011 0.930 . S
H2004 C2014 0.930 . S
H2005 C2015 0.930 . S
C2006 H2000 0.930 . S
C2006 C2007 1.355 . S
C2006 C2008 1.415 . S
C2007 C2006 1.355 . S
C2007 C2009 1.419 . S
C2008 C2006 1.415 . S
C2008 C2013 1.425 . S
C2008 C2015 1.409 . S
C2009 H2001 0.930 . S
C2009 C2007 1.419 . S
C2009 C2010 1.362 . S
C2010 H2002 0.930 . S
C2010 C2009 1.362 . S
C2010 C2013 1.409 . S
C2011 H2003 0.930 . S
C2011 C2012 1.355 . S
C2011 C2013 1.415 . S
C2012 C2011 1.355 . S
C2012 C2014 1.419 . S
C2013 C2008 1.425 . S
C2013 C2010 1.409 . S
C2013 C2011 1.415 . S
C2014 H2004 0.930 . S
C2014 C2012 1.419 . S
C2014 C2015 1.362 . S
C2015 H2005 0.930 . S
C2015 C2008 1.409 . S
C2015 C2014 1.362 . S
H2016 C2022 0.930 . S
H2017 C2025 0.930 . S
H2018 C2026 0.930 . S
H2019 C2027 0.930 . S
H2020 C2030 0.930 . S
H2021 C2031 0.930 . S
C2022 H2016 0.930 . S
C2022 C2023 1.355 . S
C2022 C2024 1.415 . S
C2023 C2022 1.355 . S
C2023 C2025 1.419 . S
C2024 C2022 1.415 . S
C2024 C2029 1.425 . S
C2024 C2031 1.409 . S
C2025 H2017 0.930 . S
C2025 C2023 1.419 . S
C2025 C2026 1.362 . S
C2026 H2018 0.930 . S
C2026 C2025 1.362 . S
C2026 C2029 1.409 . S
C2027 H2019 0.930 . S
C2027 C2028 1.355 . S
C2027 C2029 1.415 . S
C2028 C2027 1.355 . S
C2028 C2030 1.419 . S
C2029 C2024 1.425 . S
C2029 C2026 1.409 . S
C2029 C2027 1.415 . S
C2030 H2020 0.930 . S
C2030 C2028 1.419 . S
C2030 C2031 1.362 . S
C2031 H2021 0.930 . S
C2031 C2024 1.409 . S
C2031 C2030 1.362 . S
H2032 C2038 0.930 . S
H2033 C2041 0.934 . S
H2034 C2042 0.930 . S
H2035 C2043 0.930 . S
H2036 C2046 0.930 . S
H2037 C2047 0.930 . S
C2038 H2032 0.930 . S
C2038 C2039 1.355 . S
C2038 C2040 1.415 1_545 S
C2039 C2038 1.355 . S
C2039 C2041 1.419 1_545 S
C2040 C2038 1.415 1_565 S
C2040 C2045 1.425 . S
C2040 C2047 1.409 . S
C2041 H2033 0.934 . S
C2041 C2039 1.419 1_565 S
C2041 C2042 1.362 . S
C2042 H2034 0.930 . S
C2042 C2041 1.362 . S
C2042 C2045 1.409 . S
C2043 H2035 0.930 . S
C2043 C2044 1.355 . S
C2043 C2045 1.415 . S
C2044 C2043 1.355 . S
C2044 C2046 1.419 . S
C2045 C2040 1.425 . S
C2045 C2042 1.409 . S
C2045 C2043 1.415 . S
C2046 H2036 0.930 . S
C2046 C2044 1.419 . S
C2046 C2047 1.362 . S
C2047 H2037 0.930 . S
C2047 C2040 1.409 . S
C2047 C2046 1.362 . S
H2048 C2054 0.930 . S
H2049 C2057 0.930 . S
H2050 C2058 0.930 . S
H2051 C2059 0.930 . S
H2052 C2062 0.930 . S
H2053 C2063 0.930 . S
C2054 H2048 0.930 . S
C2054 C2055 1.355 . S
C2054 C2056 1.415 . S
C2055 C2054 1.355 . S
C2055 C2057 1.419 . S
C2056 C2054 1.415 . S
C2056 C2061 1.425 . S
C2056 C2063 1.409 . S
C2057 H2049 0.930 . S
C2057 C2055 1.419 . S
C2057 C2058 1.362 . S
C2058 H2050 0.930 . S
C2058 C2057 1.362 . S
C2058 C2061 1.409 . S
C2059 H2051 0.930 . S
C2059 C2060 1.357 . S
C2059 C2061 1.415 . S
C2060 C2059 1.357 . S
C2060 C2062 1.426 . S
C2061 C2056 1.425 . S
C2061 C2058 1.409 . S
C2061 C2059 1.415 . S
C2062 H2052 0.930 . S
C2062 C2060 1.426 . S
C2062 C2063 1.362 . S
C2063 H2053 0.930 . S
C2063 C2056 1.409 . S
C2063 C2062 1.362 . S
H2064 C2070 0.930 . S
H2065 C2073 0.930 . S
H2066 C2074 0.930 . S
H2067 C2075 0.930 . S
H2068 C2078 0.930 . S
H2069 C2079 0.930 . S
C2070 H2064 0.930 . S
C2070 C2071 1.355 . S
C2070 C2072 1.415 . S
C2071 C2070 1.355 . S
C2071 C2073 1.419 . S
C2072 C2070 1.415 . S
C2072 C2077 1.425 . S
C2072 C2079 1.409 . S
C2073 H2065 0.930 . S
C2073 C2071 1.419 . S
C2073 C2074 1.362 . S
C2074 H2066 0.930 . S
C2074 C2073 1.362 . S
C2074 C2077 1.409 . S
C2075 H2067 0.930 . S
C2075 C2076 1.355 . S
C2075 C2077 1.415 . S
C2076 C2075 1.355 . S
C2076 C2078 1.419 . S
C2077 C2072 1.425 . S
C2077 C2074 1.409 . S
C2077 C2075 1.415 . S
C2078 H2068 0.930 . S
C2078 C2076 1.419 . S
C2078 C2079 1.362 . S
C2079 H2069 0.930 . S
C2079 C2072 1.409 . S
C2079 C2078 1.362 . S
H2080 C2086 0.930 . S
H2081 C2089 0.930 . S
H2082 C2090 0.930 . S
H2083 C2091 0.930 . S
H2084 C2094 0.930 1_455 S
H2085 C2095 0.930 . S
C2086 H2080 0.930 . S
C2086 C2087 1.355 . S
C2086 C2088 1.415 . S
C2087 C2086 1.355 . S
C2087 C2089 1.419 . S
C2088 C2086 1.415 . S
C2088 C2093 1.425 . S
C2088 C2095 1.409 . S
C2089 H2081 0.930 . S
C2089 C2087 1.419 . S
C2089 C2090 1.362 . S
C2090 H2082 0.930 . S
C2090 C2089 1.362 . S
C2090 C2093 1.409 . S
C2091 H2083 0.930 . S
C2091 C2092 1.355 . S
C2091 C2093 1.415 . S
C2092 C2091 1.355 . S
C2092 C2094 1.419 . S
C2093 C2088 1.425 . S
C2093 C2090 1.409 . S
C2093 C2091 1.415 . S
C2094 H2084 0.930 1_655 S
C2094 C2092 1.419 . S
C2094 C2095 1.362 . S
C2095 H2085 0.930 . S
C2095 C2088 1.409 . S
C2095 C2094 1.362 . S
H2096 C2102 0.930 . S
H2097 C2105 0.930 . S
H2098 C2106 0.930 . S
H2099 C2107 0.930 . S
H2100 C2110 0.930 . S
H2101 C2111 0.930 . S
C2102 H2096 0.930 . S
C2102 C2103 1.355 . S
C2102 C2104 1.415 . S
C2103 C2102 1.355 . S
C2103 C2105 1.419 . S
C2104 C2102 1.415 . S
C2104 C2109 1.425 . S
C2104 C2111 1.409 . S
C2105 H2097 0.930 . S
C2105 C2103 1.419 . S
C2105 C2106 1.362 . S
C2106 H2098 0.930 . S
C2106 C2105 1.362 . S
C2106 C2109 1.409 . S
C2107 H2099 0.930 . S
C2107 C2108 1.355 . S
C2107 C2109 1.415 . S
C2108 C2107 1.355 . S
C2108 C2110 1.419 . S
C2109 C2104 1.425 . S
C2109 C2106 1.409 . S
C2109 C2107 1.415 . S
C2110 H2100 0.930 . S
C2110 C2108 1.419 . S
C2110 C2111 1.362 . S
C2111 H2101 0.930 . S
C2111 C2104 1.409 . S
C2111 C2110 1.362 . S
H2112 C2118 0.930 . S
H2113 C2121 0.930 . S
H2114 C2122 0.930 . S
H2115 C2123 0.930 . S
H2116 C2126 0.930 . S
H2117 C2127 0.930 . S
C2118 H2112 0.930 . S
C2118 C2119 1.355 1_565 S
C2118 C2120 1.415 . S
C2119 C2118 1.355 1_545 S
C2119 C2121 1.419 . S
C2120 C2118 1.415 . S
C2120 C2125 1.425 . S
C2120 C2127 1.409 . S
C2121 H2113 0.930 . S
C2121 C2119 1.419 . S
C2121 C2122 1.362 . S
C2122 H2114 0.930 . S
C2122 C2121 1.362 . S
C2122 C2125 1.409 1_545 S
C2123 H2115 0.930 . S
C2123 C2124 1.355 . S
C2123 C2125 1.415 . S
C2124 C2123 1.355 . S
C2124 C2126 1.419 . S
C2125 C2120 1.425 . S
C2125 C2122 1.409 1_565 S
C2125 C2123 1.415 . S
C2126 H2116 0.930 . S
C2126 C2124 1.419 . S
C2126 C2127 1.362 . S
C2127 H2117 0.930 . S
C2127 C2120 1.409 . S
C2127 C2126 1.362 . S
H2128 C2134 0.930 . S
H2129 C2137 0.930 . S
H2130 C2138 0.930 . S
H2131 C2139 0.930 . S
H2132 C2142 0.930 . S
H2133 C2143 0.930 . S
C2134 H2128 0.930 . S
C2134 C2135 1.355 . S
C2134 C2136 1.415 . S
C2135 C2134 1.355 . S
C2135 C2137 1.419 . S
C2136 C2134 1.415 . S
C2136 C2141 1.425 . S
C2136 C2143 1.409 . S
C2137 H2129 0.930 . S
C2137 C2135 1.419 . S
C2137 C2138 1.362 . S
C2138 H2130 0.930 . S
C2138 C2137 1.362 . S
C2138 C2141 1.409 . S
C2139 H2131 0.930 . S
C2139 C2140 1.355 . S
C2139 C2141 1.415 . S
C2140 C2139 1.355 . S
C2140 C2142 1.419 . S
C2141 C2136 1.425 . S
C2141 C2138 1.409 . S
C2141 C2139 1.415 . S
C2142 H2132 0.930 . S
C2142 C2140 1.419 . S
C2142 C2143 1.362 . S
C2143 H2133 0.930 . S
C2143 C2136 1.409 . S
C2143 C2142 1.362 . S
H2144 C2150 0.930 . S
H2145 C2153 0.930 . S
H2146 C2154 0.930 . S
H2147 C2155 0.930 . S
H2148 C2158 0.930 . S
H2149 C2159 0.930 . S
C2150 H2144 0.930 . S
C2150 C2151 1.355 . S
C2150 C2152 1.415 . S
C2151 C2150 1.355 . S
C2151 C2153 1.419 . S
C2152 C2150 1.415 . S
C2152 C2157 1.425 . S
C2152 C2159 1.409 . S
C2153 H2145 0.930 . S
C2153 C2151 1.419 . S
C2153 C2154 1.362 . S
C2154 H2146 0.930 . S
C2154 C2153 1.362 . S
C2154 C2157 1.409 . S
C2155 H2147 0.930 . S
C2155 C2156 1.355 . S
C2155 C2157 1.415 . S
C2156 C2155 1.355 . S
C2156 C2158 1.419 . S
C2157 C2152 1.425 . S
C2157 C2154 1.409 . S
C2157 C2155 1.415 . S
C2158 H2148 0.930 . S
C2158 C2156 1.419 . S
C2158 C2159 1.362 . S
C2159 H2149 0.930 . S
C2159 C2152 1.409 . S
C2159 C2158 1.362 . S
H2160 C2166 0.930 . S
H2161 C2169 0.930 . S
H2162 C2170 0.930 . S
H2163 C2171 0.930 . S
H2164 C2174 0.930 . S
H2165 C2175 0.930 . S
C2166 H2160 0.930 . S
C2166 C2167 1.355 . S
C2166 C2168 1.415 . S
C2167 C2166 1.355 . S
C2167 C2169 1.419 . S
C2168 C2166 1.415 . S
C2168 C2173 1.425 . S
C2168 C2175 1.409 . S
C2169 H2161 0.930 . S
C2169 C2167 1.419 . S
C2169 C2170 1.362 . S
C2170 H2162 0.930 . S
C2170 C2169 1.362 . S
C2170 C2173 1.409 . S
C2171 H2163 0.930 . S
C2171 C2172 1.355 . S
C2171 C2173 1.415 . S
C2172 C2171 1.355 . S
C2172 C2174 1.419 . S
C2173 C2168 1.425 . S
C2173 C2170 1.409 . S
C2173 C2171 1.415 . S
C2174 H2164 0.930 . S
C2174 C2172 1.419 . S
C2174 C2175 1.362 . S
C2175 H2165 0.930 . S
C2175 C2168 1.409 . S
C2175 C2174 1.362 . S
H2176 C2182 0.930 . S
H2177 C2185 0.930 . S
H2178 C2186 0.930 . S
H2179 C2187 0.930 . S
H2180 C2190 0.930 . S
H2181 C2191 0.930 . S
C2182 H2176 0.930 . S
C2182 C2183 1.355 . S
C2182 C2184 1.415 . S
C2183 C2182 1.355 . S
C2183 C2185 1.419 . S
C2184 C2182 1.415 . S
C2184 C2189 1.425 . S
C2184 C2191 1.409 . S
C2185 H2177 0.930 . S
C2185 C2183 1.419 . S
C2185 C2186 1.362 . S
C2186 H2178 0.930 . S
C2186 C2185 1.362 . S
C2186 C2189 1.409 . S
C2187 H2179 0.930 . S
C2187 C2188 1.355 . S
C2187 C2189 1.415 . S
C2188 C2187 1.355 . S
C2188 C2190 1.419 . S
C2189 C2184 1.425 . S
C2189 C2186 1.409 . S
C2189 C2187 1.415 . S
C2190 H2180 0.930 . S
C2190 C2188 1.419 . S
C2190 C2191 1.362 . S
C2191 H2181 0.930 . S
C2191 C2184 1.409 . S
C2191 C2190 1.362 . S
H2192 C2198 0.930 . S
H2193 C2201 0.930 . S
H2194 C2202 0.930 . S
H2195 C2203 0.930 . S
H2196 C2206 0.930 1_554 S
H2197 C2207 0.930 . S
C2198 H2192 0.930 . S
C2198 C2199 1.355 . S
C2198 C2200 1.415 . S
C2199 C2198 1.355 . S
C2199 C2201 1.419 . S
C2200 C2198 1.415 . S
C2200 C2205 1.425 . S
C2200 C2207 1.409 . S
C2201 H2193 0.930 . S
C2201 C2199 1.419 . S
C2201 C2202 1.362 . S
C2202 H2194 0.930 . S
C2202 C2201 1.362 . S
C2202 C2205 1.409 . S
C2203 H2195 0.930 . S
C2203 C2204 1.355 . S
C2203 C2205 1.415 . S
C2204 C2203 1.355 . S
C2204 C2206 1.419 . S
C2205 C2200 1.425 . S
C2205 C2202 1.409 . S
C2205 C2203 1.415 . S
C2206 H2196 0.930 1_556 S
C2206 C2204 1.419 . S
C2206 C2207 1.362 . S
C2207 H2197 0.930 . S
C2207 C2200 1.409 . S
C2207 C2206 1.362 . S
H2208 C2214 0.930 . S
H2209 C2217 0.930 . S
H2210 C2218 0.930 . S
H2211 C2219 0.930 . S
H2212 C2222 0.930 . S
H2213 C2223 0.930 . S
C2214 H2208 0.930 . S
C2214 C2215 1.355 . S
C2214 C2216 1.415 . S
C2215 C2214 1.355 . S
C2215 C2217 1.419 . S
C2216 C2214 1.415 . S
C2216 C2221 1.425 . S
C2216 C2223 1.409 . S
C2217 H2209 0.930 . S
C2217 C2215 1.419 . S
C2217 C2218 1.362 . S
C2218 H2210 0.930 . S
C2218 C2217 1.362 . S
C2218 C2221 1.409 . S
C2219 H2211 0.930 . S
C2219 C2220 1.355 . S
C2219 C2221 1.415 . S
C2220 C2219 1.355 . S
C2220 C2222 1.419 . S
C2221 C2216 1.425 . S
C2221 C2218 1.409 . S
C2221 C2219 1.415 . S
C2222 H2212 0.930 . S
C2222 C2220 1.419 . S
C2222 C2223 1.362 . S
C2223 H2213 0.930 . S
C2223 C2216 1.409 . S
C2223 C2222 1.362 . S
H2224 C2230 0.930 . S
H2225 C2233 0.930 . S
H2226 C2234 0.930 . S
H2227 C2235 0.930 . S
H2228 C2238 0.930 . S
H2229 C2239 0.930 . S
C2230 H2224 0.930 . S
C2230 C2231 1.355 . S
C2230 C2232 1.415 . S
C2231 C2230 1.355 . S
C2231 C2233 1.419 . S
C2232 C2230 1.415 . S
C2232 C2237 1.425 . S
C2232 C2239 1.409 . S
C2233 H2225 0.930 . S
C2233 C2231 1.419 . S
C2233 C2234 1.362 . S
C2234 H2226 0.930 . S
C2234 C2233 1.362 . S
C2234 C2237 1.409 . S
C2235 H2227 0.930 . S
C2235 C2236 1.355 . S
C2235 C2237 1.415 . S
C2236 C2235 1.355 . S
C2236 C2238 1.419 . S
C2237 C2232 1.425 . S
C2237 C2234 1.409 . S
C2237 C2235 1.415 . S
C2238 H2228 0.930 . S
C2238 C2236 1.419 . S
C2238 C2239 1.362 . S
C2239 H2229 0.930 . S
C2239 C2232 1.409 . S
C2239 C2238 1.362 . S
H2240 C2246 0.930 . S
H2241 C2249 0.930 . S
H2242 C2250 0.930 . S
H2243 C2251 0.930 . S
H2244 C2254 0.930 . S
H2245 C2255 0.930 . S
C2246 H2240 0.930 . S
C2246 C2247 1.355 . S
C2246 C2248 1.415 . S
C2247 C2246 1.355 . S
C2247 C2249 1.419 . S
C2248 C2246 1.415 . S
C2248 C2253 1.425 . S
C2248 C2255 1.409 . S
C2249 H2241 0.930 . S
C2249 C2247 1.419 . S
C2249 C2250 1.362 . S
C2250 H2242 0.930 . S
C2250 C2249 1.362 . S
C2250 C2253 1.409 . S
C2251 H2243 0.930 . S
C2251 C2252 1.355 . S
C2251 C2253 1.415 . S
C2252 C2251 1.355 . S
C2252 C2254 1.419 . S
C2253 C2248 1.425 . S
C2253 C2250 1.409 . S
C2253 C2251 1.415 . S
C2254 H2244 0.930 . S
C2254 C2252 1.419 . S
C2254 C2255 1.362 . S
C2255 H2245 0.930 . S
C2255 C2248 1.409 . S
C2255 C2254 1.362 . S
H2256 C2262 0.930 . S
H2257 C2265 0.930 . S
H2258 C2266 0.930 . S
H2259 C2267 0.930 . S
H2260 C2270 0.930 . S
H2261 C2271 0.930 . S
C2262 H2256 0.930 . S
C2262 C2263 1.355 . S
C2262 C2264 1.415 . S
C2263 C2262 1.355 . S
C2263 C2265 1.419 . S
C2264 C2262 1.415 . S
C2264 C2269 1.425 . S
C2264 C2271 1.409 . S
C2265 H2257 0.930 . S
C2265 C2263 1.419 . S
C2265 C2266 1.362 . S
C2266 H2258 0.930 . S
C2266 C2265 1.362 . S
C2266 C2269 1.409 . S
C2267 H2259 0.930 . S
C2267 C2268 1.355 . S
C2267 C2269 1.415 . S
C2268 C2267 1.355 . S
C2268 C2270 1.419 . S
C2269 C2264 1.425 . S
C2269 C2266 1.409 . S
C2269 C2267 1.415 . S
C2270 H2260 0.930 . S
C2270 C2268 1.419 . S
C2270 C2271 1.362 . S
C2271 H2261 0.930 . S
C2271 C2264 1.409 . S
C2271 C2270 1.362 . S
H2272 C2278 0.930 . S
H2273 C2281 0.930 . S
H2274 C2282 0.930 . S
H2275 C2283 0.930 . S
H2276 C2286 0.930 . S
H2277 C2287 0.930 . S
C2278 H2272 0.930 . S
C2278 C2279 1.355 . S
C2278 C2280 1.415 . S
C2279 C2278 1.355 . S
C2279 C2281 1.419 . S
C2280 C2278 1.415 . S
C2280 C2285 1.425 . S
C2280 C2287 1.409 . S
C2281 H2273 0.930 . S
C2281 C2279 1.419 . S
C2281 C2282 1.362 . S
C2282 H2274 0.930 . S
C2282 C2281 1.362 . S
C2282 C2285 1.409 . S
C2283 H2275 0.930 . S
C2283 C2284 1.355 . S
C2283 C2285 1.415 . S
C2284 C2283 1.355 . S
C2284 C2286 1.419 . S
C2285 C2280 1.425 . S
C2285 C2282 1.409 . S
C2285 C2283 1.415 . S
C2286 H2276 0.930 . S
C2286 C2284 1.419 . S
C2286 C2287 1.362 . S
C2287 H2277 0.930 . S
C2287 C2280 1.409 . S
C2287 C2286 1.362 . S
H2288 C2294 0.898 1_655 S
H2289 C2297 0.930 . S
H2290 C2298 0.930 . S
H2291 C2299 0.930 . S
H2292 C2302 0.930 . S
H2293 C2303 0.930 1_655 S
C2294 H2288 0.898 1_455 S
C2294 C2295 1.355 . S
C2294 C2296 1.415 . S
C2295 C2294 1.355 . S
C2295 C2297 1.419 . S
C2296 C2294 1.415 . S
C2296 C2301 1.425 . S
C2296 C2303 1.409 . S
C2297 H2289 0.930 . S
C2297 C2295 1.419 . S
C2297 C2298 1.362 . S
C2298 H2290 0.930 . S
C2298 C2297 1.362 . S
C2298 C2301 1.409 . S
C2299 H2291 0.930 . S
C2299 C2300 1.355 . S
C2299 C2301 1.415 . S
C2300 C2299 1.355 . S
C2300 C2302 1.419 . S
C2301 C2296 1.425 . S
C2301 C2298 1.409 . S
C2301 C2299 1.415 . S
C2302 H2292 0.930 . S
C2302 C2300 1.419 . S
C2302 C2303 1.362 . S
C2303 H2293 0.930 1_455 S
C2303 C2296 1.409 . S
C2303 C2302 1.362 . S
H2304 C2310 0.930 . S
H2305 C2313 0.930 . S
H2306 C2314 0.930 . S
H2307 C2315 0.930 . S
H2308 C2318 0.930 . S
H2309 C2319 0.930 . S
C2310 H2304 0.930 . S
C2310 C2311 1.355 . S
C2310 C2312 1.415 . S
C2311 C2310 1.355 . S
C2311 C2313 1.419 . S
C2312 C2310 1.415 . S
C2312 C2317 1.425 . S
C2312 C2319 1.409 . S
C2313 H2305 0.930 . S
C2313 C2311 1.419 . S
C2313 C2314 1.362 . S
C2314 H2306 0.930 . S
C2314 C2313 1.362 . S
C2314 C2317 1.409 . S
C2315 H2307 0.930 . S
C2315 C2316 1.355 . S
C2315 C2317 1.415 . S
C2316 C2315 1.355 . S
C2316 C2318 1.419 . S
C2317 C2312 1.425 . S
C2317 C2314 1.409 . S
C2317 C2315 1.415 . S
C2318 H2308 0.930 . S
C2318 C2316 1.419 . S
C2318 C2319 1.362 . S
C2319 H2309 0.930 . S
C2319 C2312 1.409 . S
C2319 C2318 1.362 . S
H2320 C2326 0.930 . S
H2321 C2329 0.930 . S
H2322 C2330 0.930 . S
H2323 C2331 0.930 . S
H2324 C2334 0.930 . S
H2325 C2335 0.930 . S
C2326 H2320 0.930 . S
C2326 C2327 1.355 . S
C2326 C2328 1.415 . S
C2327 C2326 1.355 . S
C2327 C2329 1.419 . S
C2328 C2326 1.415 . S
C2328 C2333 1.425 . S
C2328 C2335 1.409 . S
C2329 H2321 0.930 . S
C2329 C2327 1.419 . S
C2329 C2330 1.362 . S
C2330 H2322 0.930 . S
C2330 C2329 1.362 . S
C2330 C2333 1.409 . S
C2331 H2323 0.930 . S
C2331 C2332 1.355 . S
C2331 C2333 1.415 . S
C2332 C2331 1.355 . S
C2332 C2334 1.419 . S
C2333 C2328 1.425 . S
C2333 C2330 1.409 . S
C2333 C2331 1.415 . S
C2334 H2324 0.930 . S
C2334 C2332 1.419 . S
C2334 C2335 1.362 . S
C2335 H2325 0.930 . S
C2335 C2328 1.409 . S
C2335 C2334 1.362 . S
H2336 C2342 0.930 . S
H2337 C2345 0.930 . S
H2338 C2346 0.930 . S
H2339 C2347 0.930 . S
H2340 C2350 0.930 . S
H2341 C2351 0.930 . S
C2342 H2336 0.930 . S
C2342 C2343 1.355 . S
C2342 C2344 1.415 . S
C2343 C2342 1.355 . S
C2343 C2345 1.419 . S
C2344 C2342 1.415 . S
C2344 C2349 1.425 . S
C2344 C2351 1.409 . S
C2345 H2337 0.930 . S
C2345 C2343 1.419 . S
C2345 C2346 1.362 . S
C2346 H2338 0.930 . S
C2346 C2345 1.362 . S
C2346 C2349 1.409 . S
C2347 H2339 0.930 . S
C2347 C2348 1.355 . S
C2347 C2349 1.415 . S
C2348 C2347 1.355 . S
C2348 C2350 1.419 . S
C2349 C2344 1.425 . S
C2349 C2346 1.409 . S
C2349 C2347 1.415 . S
C2350 H2340 0.930 . S
C2350 C2348 1.419 . S
C2350 C2351 1.362 . S
C2351 H2341 0.930 . S
C2351 C2344 1.409 . S
C2351 C2350 1.362 . S
H2352 C2358 0.930 . S
H2353 C2361 0.930 . S
H2354 C2362 0.930 . S
H2355 C2363 0.930 . S
H2356 C2366 0.930 . S
H2357 C2367 0.930 . S
C2358 H2352 0.930 . S
C2358 C2359 1.355 . S
C2358 C2360 1.415 . S
C2359 C2358 1.355 . S
C2359 C2361 1.419 . S
C2360 C2358 1.415 . S
C2360 C2365 1.425 . S
C2360 C2367 1.409 . S
C2361 H2353 0.930 . S
C2361 C2359 1.419 . S
C2361 C2362 1.362 . S
C2362 H2354 0.930 . S
C2362 C2361 1.362 . S
C2362 C2365 1.409 . S
C2363 H2355 0.930 . S
C2363 C2364 1.355 . S
C2363 C2365 1.415 . S
C2364 C2363 1.355 . S
C2364 C2366 1.419 . S
C2365 C2360 1.425 . S
C2365 C2362 1.409 . S
C2365 C2363 1.415 . S
C2366 H2356 0.930 . S
C2366 C2364 1.419 . S
C2366 C2367 1.362 . S
C2367 H2357 0.930 . S
C2367 C2360 1.409 . S
C2367 C2366 1.362 . S
H2368 C2374 0.930 . S
H2369 C2377 0.930 . S
H2370 C2378 0.930 . S
H2371 C2379 0.930 . S
H2372 C2382 0.930 . S
H2373 C2383 0.930 . S
C2374 H2368 0.930 . S
C2374 C2375 1.355 . S
C2374 C2376 1.415 . S
C2375 C2374 1.355 . S
C2375 C2377 1.419 . S
C2376 C2374 1.415 . S
C2376 C2381 1.425 . S
C2376 C2383 1.409 . S
C2377 H2369 0.930 . S
C2377 C2375 1.419 . S
C2377 C2378 1.362 . S
C2378 H2370 0.930 . S
C2378 C2377 1.362 . S
C2378 C2381 1.409 . S
C2379 H2371 0.930 . S
C2379 C2380 1.355 . S
C2379 C2381 1.415 . S
C2380 C2379 1.355 . S
C2380 C2382 1.419 . S
C2381 C2376 1.425 . S
C2381 C2378 1.409 . S
C2381 C2379 1.415 . S
C2382 H2372 0.930 . S
C2382 C2380 1.419 . S
C2382 C2383 1.362 . S
C2383 H2373 0.930 . S
C2383 C2376 1.409 . S
C2383 C2382 1.362 . S
H2384 C2390 0.930 . S
H2385 C2393 0.930 . S
H2386 C2394 0.930 . S
H2387 C2395 0.930 . S
H2388 C2398 0.930 . S
H2389 C2399 0.930 . S
C2390 H2384 0.930 . S
C2390 C2391 1.355 . S
C2390 C2392 1.415 . S
C2391 C2390 1.355 . S
C2391 C2393 1.419 . S
C2392 C2390 1.415 . S
C2392 C2397 1.425 . S
C2392 C2399 1.409 . S
C2393 H2385 0.930 . S
C2393 C2391 1.419 . S
C2393 C2394 1.362 . S
C2394 H2386 0.930 . S
C2394 C2393 1.362 . S
C2394 C2397 1.409 . S
C2395 H2387 0.930 . S
C2395 C2396 1.355 . S
C2395 C2397 1.415 . S
C2396 C2395 1.355 . S
C2396 C2398 1.419 . S
C2397 C2392 1.425 . S
C2397 C2394 1.409 . S
C2397 C2395 1.415 . S
C2398 H2388 0.930 . S
C2398 C2396 1.419 . S
C2398 C2399 1.362 . S
C2399 H2389 0.930 . S
C2399 C2392 1.409 . S
C2399 C2398 1.362 . S
H2400 C2406 0.930 . S
H2401 C2409 0.930 . S
H2402 C2410 0.930 1_545 S
H2403 C2411 0.930 . S
H2404 C2414 0.930 . S
H2405 C2415 0.930 . S
C2406 H2400 0.930 . S
C2406 C2407 1.355 . S
C2406 C2408 1.415 . S
C2407 C2406 1.355 . S
C2407 C2409 1.419 . S
C2408 C2406 1.415 . S
C2408 C2413 1.425 . S
C2408 C2415 1.409 . S
C2409 H2401 0.930 . S
C2409 C2407 1.419 . S
C2409 C2410 1.362 . S
C2410 H2402 0.930 1_565 S
C2410 C2409 1.362 . S
C2410 C2413 1.409 . S
C2411 H2403 0.930 . S
C2411 C2412 1.355 . S
C2411 C2413 1.415 1_545 S
C2412 C2411 1.355 . S
C2412 C2414 1.419 1_545 S
C2413 C2408 1.425 . S
C2413 C2410 1.409 . S
C2413 C2411 1.415 1_565 S
C2414 H2404 0.930 . S
C2414 C2412 1.419 1_565 S
C2414 C2415 1.362 . S
C2415 H2405 0.930 . S
C2415 C2408 1.409 . S
C2415 C2414 1.362 . S
H2416 C2422 0.930 . S
H2417 C2425 0.930 . S
H2418 C2426 0.930 . S
H2419 C2427 0.930 . S
H2420 C2430 0.930 . S
H2421 C2431 0.930 . S
C2422 H2416 0.930 . S
C2422 C2423 1.355 . S
C2422 C2424 1.415 . S
C2423 C2422 1.355 . S
C2423 C2425 1.419 . S
C2424 C2422 1.415 . S
C2424 C2429 1.425 . S
C2424 C2431 1.409 . S
C2425 H2417 0.930 . S
C2425 C2423 1.419 . S
C2425 C2426 1.362 . S
C2426 H2418 0.930 . S
C2426 C2425 1.362 . S
C2426 C2429 1.409 . S
C2427 H2419 0.930 . S
C2427 C2428 1.355 . S
C2427 C2429 1.415 . S
C2428 C2427 1.355 . S
C2428 C2430 1.419 . S
C2429 C2424 1.425 . S
C2429 C2426 1.409 . S
C2429 C2427 1.415 . S
C2430 H2420 0.930 . S
C2430 C2428 1.419 . S
C2430 C2431 1.362 . S
C2431 H2421 0.930 . S
C2431 C2424 1.409 . S
C2431 C2430 1.362 . S
H2432 C2438 0.930 . S
H2433 C2441 0.930 . S
H2434 C2442 0.930 . S
H2435 C2443 0.930 1_556 S
H2436 C2446 0.930 . S
H2437 C2447 0.930 . S
C2438 H2432 0.930 . S
C2438 C2439 1.355 1_554 S
C2438 C2440 1.415 . S
C2439 C2438 1.355 1_556 S
C2439 C2441 1.419 . S
C2440 C2438 1.415 . S
C2440 C2445 1.421 1_554 S
C2440 C2447 1.409 . S
C2441 H2433 0.930 . S
C2441 C2439 1.419 . S
C2441 C2442 1.362 . S
C2442 H2434 0.930 . S
C2442 C2441 1.362 . S
C2442 C2445 1.421 . S
C2443 H2435 0.930 1_554 S
C2443 C2444 1.355 . S
C2443 C2445 1.408 1_554 S
C2444 C2443 1.355 . S
C2444 C2446 1.419 . S
C2445 C2440 1.421 1_556 S
C2445 C2442 1.421 . S
C2445 C2443 1.408 1_556 S
C2446 H2436 0.930 . S
C2446 C2444 1.419 . S
C2446 C2447 1.362 . S
C2447 H2437 0.930 . S
C2447 C2440 1.409 . S
C2447 C2446 1.362 . S
H2448 C2454 0.930 . S
H2449 C2457 0.930 . S
H2450 C2458 0.930 . S
H2451 C2459 0.930 . S
H2452 C2462 0.930 . S
H2453 C2463 0.930 . S
C2454 H2448 0.930 . S
C2454 C2455 1.355 . S
C2454 C2456 1.415 . S
C2455 C2454 1.355 . S
C2455 C2457 1.419 . S
C2456 C2454 1.415 . S
C2456 C2461 1.425 . S
C2456 C2463 1.409 . S
C2457 H2449 0.930 . S
C2457 C2455 1.419 . S
C2457 C2458 1.362 . S
C2458 H2450 0.930 . S
C2458 C2457 1.362 . S
C2458 C2461 1.409 . S
C2459 H2451 0.930 . S
C2459 C2460 1.355 . S
C2459 C2461 1.415 . S
C2460 C2459 1.355 . S
C2460 C2462 1.419 . S
C2461 C2456 1.425 . S
C2461 C2458 1.409 . S
C2461 C2459 1.415 . S
C2462 H2452 0.930 . S
C2462 C2460 1.419 . S
C2462 C2463 1.362 . S
C2463 H2453 0.930 . S
C2463 C2456 1.409 . S
C2463 C2462 1.362 . S
H2464 C2470 0.930 . S
H2465 C2473 0.963 . S
H2466 C2474 0.930 . S
H2467 C2475 0.930 1_556 S
H2468 C2478 0.930 . S
H2469 C2479 0.930 . S
C2470 H2464 0.930 . S
C2470 C2471 1.355 . S
C2470 C2472 1.415 . S
C2471 C2470 1.355 . S
C2471 C2473 1.380 1_554 S
C2472 C2470 1.415 . S
C2472 C2477 1.425 . S
C2472 C2479 1.409 . S
C2473 H2465 0.963 . S
C2473 C2471 1.380 1_556 S
C2473 C2474 1.370 . S
C2474 H2466 0.930 . S
C2474 C2473 1.370 . S
C2474 C2477 1.409 1_556 S
C2475 H2467 0.930 1_554 S
C2475 C2476 1.355 . S
C2475 C2477 1.415 . S
C2476 C2475 1.355 . S
C2476 C2478 1.419 . S
C2477 C2472 1.425 . S
C2477 C2474 1.409 1_554 S
C2477 C2475 1.415 . S
C2478 H2468 0.930 . S
C2478 C2476 1.419 . S
C2478 C2479 1.362 . S
C2479 H2469 0.930 . S
C2479 C2472 1.409 . S
C2479 C2478 1.362 . S
H2480 C2486 0.930 . S
H2481 C2489 0.930 . S
H2482 C2490 0.930 . S
H2483 C2491 0.930 . S
H2484 C2494 0.930 . S
H2485 C2495 0.930 . S
C2486 H2480 0.930 . S
C2486 C2487 1.355 . S
C2486 C2488 1.415 . S
C2487 C2486 1.355 . S
C2487 C2489 1.419 . S
C2488 C2486 1.415 . S
C2488 C2493 1.425 . S
C2488 C2495 1.409 . S
C2489 H2481 0.930 . S
C2489 C2487 1.419 . S
C2489 C2490 1.362 . S
C2490 H2482 0.930 . S
C2490 C2489 1.362 . S
C2490 C2493 1.409 . S
C2491 H2483 0.930 . S
C2491 C2492 1.355 . S
C2491 C2493 1.415 . S
C2492 C2491 1.355 . S
C2492 C2494 1.419 . S
C2493 C2488 1.425 . S
C2493 C2490 1.409 . S
C2493 C2491 1.415 . S
C2494 H2484 0.930 . S
C2494 C2492 1.419 . S
C2494 C2495 1.362 . S
C2495 H2485 0.930 . S
C2495 C2488 1.409 . S
C2495 C2494 1.362 . S
H2496 C2502 0.930 . S
H2497 C2505 0.930 . S
H2498 C2506 0.930 . S
H2499 C2507 0.930 . S
H2500 C2510 0.930 . S
H2501 C2511 0.930 . S
C2502 H2496 0.930 . S
C2502 C2503 1.355 . S
C2502 C2504 1.415 . S
C2503 C2502 1.355 . S
C2503 C2505 1.419 . S
C2504 C2502 1.415 . S
C2504 C2509 1.425 . S
C2504 C2511 1.409 . S
C2505 H2497 0.930 . S
C2505 C2503 1.419 . S
C2505 C2506 1.362 . S
C2506 H2498 0.930 . S
C2506 C2505 1.362 . S
C2506 C2509 1.409 . S
C2507 H2499 0.930 . S
C2507 C2508 1.355 . S
C2507 C2509 1.415 . S
C2508 C2507 1.355 . S
C2508 C2510 1.419 . S
C2509 C2504 1.425 . S
C2509 C2506 1.409 . S
C2509 C2507 1.415 . S
C2510 H2500 0.930 . S
C2510 C2508 1.419 . S
C2510 C2511 1.362 . S
C2511 H2501 0.930 . S
C2511 C2504 1.409 . S
C2511 C2510 1.362 . S
C983 C105 1.878 1_455 S
C988 C358 1.877 . S
C999 C65 1.340 . S
C1004 C378 1.316 . S
C1015 C73 0.803 . S
C1020 C425 0.819 . S
C1036 C482 1.110 . S
C1031 C92 1.162 . S
C1047 C17 2.671 . S
C1052 C499 2.655 . S
C1068 C558 1.866 . S
C1063 C37 1.888 . S
C1084 C591 2.740 . S
C1079 C49 2.686 . S
C1095 C8 2.517 . S
C1100 C638 2.483 . S
C1116 C351 1.712 . S
C1111 C231 1.595 1_545 S
C1127 C241 1.520 . S
C1132 C379 1.508 . S
C1148 C418 0.591 . S
C1143 C273 0.594 1_565 S
C1164 C478 2.209 . S
C1159 C171 2.197 . S
C1175 C227 0.570 . S
C1180 C505 0.628 . S
C1196 C551 2.288 . S
C1191 C245 2.272 . S
C1212 C602 0.797 . S
C1207 C269 0.774 . S
C1228 C631 2.352 . S
C1223 C175 2.259 . S
C1244 C362 1.860 1_565 S
C1239 C162 1.921 . S
C1255 C289 2.217 . S
C1260 C658 2.206 . S
C1276 C722 1.382 . S
C1271 C330 1.417 . S
C1292 C758 1.520 1_655 S
C1287 C317 1.515 . S
C1303 C120 1.547 . S
C1308 C642 1.594 . S
C1319 C134 2.595 . S
C1324 C419 2.593 . S
C1335 C331 1.468 . S
C1340 C791 1.486 . S
C1356 C825 0.347 . S
C1351 C303 0.332 . S
C1372 C339 1.882 . S
C1367 C59 1.887 . S
C1388 C831 1.392 . S
C1383 C107 1.401 . S
C1399 C91 0.856 . S
C1404 C442 0.818 . S
C1415 C78 1.212 . S
C1420 C785 1.202 . S
C1436 C518 2.705 . S
C1431 C7 2.672 . S
C1447 C51 1.914 . S
C1452 C699 1.893 . S
C1468 C578 2.777 1_556 S
C1463 C31 2.777 . S
C1484 C859 2.476 . S
C1479 C22 2.498 1_655 S
C1500 C338 1.661 . S
C1495 C143 1.625 . S
C1516 C838 1.600 . S
C1511 C315 1.606 . S
C1527 C115 0.536 . S
C1532 C431 0.603 . S
C1543 C287 2.126 . S
C1548 C779 2.239 . S
C1559 C147 0.532 . S
C1564 C522 0.516 . S
C1580 C698 2.323 . S
C1575 C311 2.325 . S
C1591 C119 0.814 . S
C1596 C585 0.808 . S
C1607 C283 2.376 . S
C1612 C858 2.365 . S
C1623 C190 1.834 1_556 S
C1628 C345 1.822 . S
C1639 C177 2.236 . S
C1644 C671 2.210 . S
C1655 C260 1.369 . S
C1660 C545 1.382 . S
C1671 C247 1.548 . S
C1676 C739 1.501 . S
C1692 C865 1.502 . S
C1687 C274 1.469 . S
C1703 C218 2.637 . S
C1708 C438 2.634 1_565 S
C1724 C458 1.523 . S
C1719 C261 1.487 . S
C1740 C402 0.557 . S
C1735 C205 0.516 . S
C1751 C77 1.934 . S
C1756 C918 1.930 . S
C1772 C818 1.298 . S
C1767 C93 1.301 . S
C1783 C101 0.744 . S
C1788 C945 0.731 . S
C1799 C64 1.210 . S
C1804 C802 1.177 . S
C1815 C45 2.663 . S
C1820 C659 2.640 . S
C1836 C718 1.892 . S
C1831 C9 1.864 1_655 S
C1852 C751 2.742 . S
C1847 C21 2.689 . S
C1868 C878 2.452 . S
C1863 C36 2.495 . S
C1884 C911 1.706 . S
C1879 C259 1.600 . S
C1895 C185 1.506 . S
C1900 C819 1.518 . S
C1916 C938 0.586 . S
C1911 C203 0.640 . S
C1932 C798 2.209 . S
C1927 C213 2.196 . S
C1948 C665 0.625 . S
C1943 C255 0.569 . S
C1959 C189 2.285 . S
C1964 C711 2.275 . S
C1980 C762 0.552 . S
C1975 C199 0.543 . S
C1991 C217 2.292 . S
C1996 C871 2.337 . S
C2012 C922 1.913 . S
C2007 C316 1.942 . S
C2023 C135 2.229 . S
C2028 C498 2.185 . S
C2044 C562 1.446 . S
C2039 C148 1.464 . S
C2060 C598 1.468 1_565 S
C2055 C163 1.490 . S
C2076 C882 1.483 . S
C2071 C302 1.484 . S
C2087 C288 2.593 . S
C2092 C939 2.608 1_655 S
C2108 C471 1.468 . S
C2103 C149 1.428 . S
C2124 C385 0.428 . S
C2119 C121 0.395 . S
C2135 C87 1.941 . S
C2140 C899 1.927 . S
C2156 C391 1.344 . S
C2151 C79 1.354 . S
C2167 C63 0.813 . S
C2172 C962 0.873 . S
C2183 C106 1.084 . S
C2188 C465 1.066 . S
C2199 C35 2.688 . S
C2204 C678 2.707 . S
C2220 C539 1.887 . S
C2215 C23 1.918 . S
C2231 C3 2.787 . S
C2236 C738 2.779 . S
C2247 C50 2.492 . S
C2252 C619 2.472 . S
C2268 C898 1.674 . S
C2263 C325 1.631 . S
C2279 C161 1.604 . S
C2284 C398 1.591 . S
C2300 C951 0.593 . S
C2295 C297 0.618 . S
C2311 C133 2.175 . S
C2316 C459 2.242 . S
C2327 C329 0.505 . S
C2332 C682 0.585 . S
C2348 C538 2.323 . S
C2343 C157 2.326 1_556 S
C2359 C301 0.814 . S
C2364 C745 0.802 . S
C2380 C618 2.368 . S
C2375 C129 2.378 . S
C2396 C905 1.830 . S
C2391 C246 1.843 . S
C2412 C511 2.228 1_655 S
C2407 C219 2.246 . S
C2423 C232 1.360 . S
C2428 C705 1.371 . S
C2444 C579 1.487 . S
C2439 C191 1.521 . S
C2455 C204 1.503 . S
C2460 C625 1.563 . S
C2471 C176 2.631 . S
C2476 C958 2.631 . S
C2492 C778 1.527 . S
C2487 C233 1.494 . S
C2508 C842 0.586 . S
C2503 C275 0.548 . S
