# Generated by pormake.
# Topology anh, (6,3)-cn, num edge types: 1
# Building blocks:
#     Node 0, Type 0, BuildingBlock: HISSIN_clean_sbu_0, # of connection points: 6
#     Node 1, Type 0, BuildingBlock: HISSIN_clean_sbu_0, # of connection points: 6
#     Node 2, Type 0, BuildingBlock: HISSIN_clean_sbu_0, # of connection points: 6
#     Node 3, Type 1, BuildingBlock: OLANEW_clean_sbu_2, # of connection points: 3
#     Node 4, Type 1, BuildingBlock: OLANEW_clean_sbu_2, # of connection points: 3
#     Node 5, Type 1, BuildingBlock: OLANEW_clean_sbu_2, # of connection points: 3
#     Node 6, Type 1, BuildingBlock: OLANEW_clean_sbu_2, # of connection points: 3
#     Node 7, Type 1, BuildingBlock: OLANEW_clean_sbu_2, # of connection points: 3
#     Node 8, Type 1, BuildingBlock: OLANEW_clean_sbu_2, # of connection points: 3
#     Edge 9, Type (0, 1), BuildingBlock: TEMPAE_clean_linker_10, # of connection points: 2
#     Edge 10, Type (0, 1), BuildingBlock: TEMPAE_clean_linker_10, # of connection points: 2
#     Edge 11, Type (0, 1), BuildingBlock: TEMPAE_clean_linker_10, # of connection points: 2
#     Edge 12, Type (0, 1), BuildingBlock: TEMPAE_clean_linker_10, # of connection points: 2
#     Edge 13, Type (0, 1), BuildingBlock: TEMPAE_clean_linker_10, # of connection points: 2
#     Edge 14, Type (0, 1), BuildingBlock: TEMPAE_clean_linker_10, # of connection points: 2
#     Edge 15, Type (0, 1), BuildingBlock: TEMPAE_clean_linker_10, # of connection points: 2
#     Edge 16, Type (0, 1), BuildingBlock: TEMPAE_clean_linker_10, # of connection points: 2
#     Edge 17, Type (0, 1), BuildingBlock: TEMPAE_clean_linker_10, # of connection points: 2
#     Edge 18, Type (0, 1), BuildingBlock: TEMPAE_clean_linker_10, # of connection points: 2
#     Edge 19, Type (0, 1), BuildingBlock: TEMPAE_clean_linker_10, # of connection points: 2
#     Edge 20, Type (0, 1), BuildingBlock: TEMPAE_clean_linker_10, # of connection points: 2
#     Edge 21, Type (0, 1), BuildingBlock: TEMPAE_clean_linker_10, # of connection points: 2
#     Edge 22, Type (0, 1), BuildingBlock: TEMPAE_clean_linker_10, # of connection points: 2
#     Edge 23, Type (0, 1), BuildingBlock: TEMPAE_clean_linker_10, # of connection points: 2
#     Edge 24, Type (0, 1), BuildingBlock: TEMPAE_clean_linker_10, # of connection points: 2
#     Edge 25, Type (0, 1), BuildingBlock: TEMPAE_clean_linker_10, # of connection points: 2
#     Edge 26, Type (0, 1), BuildingBlock: TEMPAE_clean_linker_10, # of connection points: 2
# Relax obj value: 0.218
# Max RMSD: 0.131
# Mean RMSD: 0.112
data_MOF--net-anh--node1-HISSIN_clean_sbu_0--node2-OLANEW_clean_sbu_2--edge1-TEMPAE_clean_linker_10
_symmetry_space_group_name_H-M    P1
_symmetry_Int_Tables_number       1
_symmetry_cell_setting            triclinic
loop_
_symmetry_equiv_pos_as_xyz
'x, y, z'
_cell_length_a     37.095094
_cell_length_b     37.096974
_cell_length_c     51.363482
_cell_angle_alpha  92.777794
_cell_angle_beta   90.255629
_cell_angle_gamma 119.83637
loop_
_atom_site_label
_atom_site_type_symbol
_atom_site_fract_x
_atom_site_fract_y
_atom_site_fract_z
_atom_type_partial_charge
Eu0 Eu 0.98697 0.47625 0.1542 0.0
Eu1 Eu 0.03358 0.57354 0.17296 0.0
C2 C 1.00334 0.5057 0.2141 0.0
C3 C 0.90111 0.36541 0.14052 0.0
C4 C 0.87043 0.37707 0.14098 0.0
C5 C 0.84748 0.29298 0.14111 0.0
C6 C 0.82847 0.34681 0.14128 0.0
C7 C 0.88946 0.32328 0.1406 0.0
C8 C 0.81663 0.3045 0.14142 0.0
C9 C 0.94517 0.39713 0.14009 0.0
O10 O 0.08576 0.56295 0.15861 0.0
O11 O 0.05395 0.49205 0.16071 0.0
C12 C 0.08759 0.52832 0.15792 0.0
O13 O 1.02051 0.51196 0.1194 0.0
O14 O 0.05523 0.62272 0.20407 0.0
O15 O 0.0668 0.63867 0.16381 0.0
O16 O 1.01461 0.56859 0.13089 0.0
C17 C 1.02157 0.54637 0.11323 0.0
O18 O 0.93928 0.49617 0.14731 0.0
O19 O 0.9648 0.55286 0.17637 0.0
O20 O 0.03678 0.53796 0.20628 0.0
O21 O 0.95414 0.42663 0.12422 0.0
O22 O 0.96435 0.41143 0.16278 0.0
O23 O 0.97355 0.48188 0.19696 0.0
C24 C 0.12047 0.67851 0.19399 0.0
C25 C 0.13936 0.72165 0.19236 0.0
C26 C 0.18838 0.68447 0.19857 0.0
C27 C 0.18267 0.74612 0.19347 0.0
C28 C 0.14515 0.6601 0.1975 0.0
C29 C 0.2076 0.72763 0.19606 0.0
C30 C 0.07589 0.65211 0.18816 0.0
C31 C 0.93458 0.52457 0.16075 0.0
H32 H 0.87891 0.40957 0.14115 0.0
H33 H 0.83909 0.26052 0.14105 0.0
H34 H 0.80534 0.35652 0.14185 0.0
H35 H 0.91281 0.31385 0.14028 0.0
H36 H 0.1207 0.73617 0.18918 0.0
H37 H 0.20677 0.66945 0.20085 0.0
H38 H 0.19662 0.77924 0.19118 0.0
H39 H 0.13101 0.62668 0.19845 0.0
Eu40 Eu 0.54093 1.00247 0.49797 0.0
Eu41 Eu 0.48611 0.05004 0.4993 0.0
C42 C 0.51687 0.03018 0.55216 0.0
C43 C 0.58071 0.92681 0.51077 0.0
C44 C 0.54348 0.88845 0.51054 0.0
C45 C 0.61613 0.89631 0.53282 0.0
C46 C 0.54279 0.85404 0.52107 0.0
C47 C 0.61684 0.93051 0.52217 0.0
C48 C 0.57926 0.8575 0.53209 0.0
C49 C 0.58299 0.96331 0.49913 0.0
O50 O 0.55109 0.1019 0.49134 0.0
O51 O 0.59048 0.07095 0.49849 0.0
C52 C 0.58741 0.1038 0.49329 0.0
O53 O 0.54391 0.02448 0.45782 0.0
O54 O 0.4471 0.07074 0.51929 0.0
O55 O 0.46138 0.08358 0.47887 0.0
O56 O 0.48226 0.02454 0.45802 0.0
C57 C 0.51304 0.02463 0.44548 0.0
O58 O 0.47459 0.95158 0.48734 0.0
O59 O 0.43788 0.98223 0.5034 0.0
O60 O 0.51312 0.05864 0.54017 0.0
O61 O 0.55537 0.95645 0.48086 0.0
O62 O 0.59023 0.9946 0.51528 0.0
O63 O 0.51871 1.00004 0.53895 0.0
C64 C 0.46446 0.13768 0.5058 0.0
C65 C 0.46376 0.16232 0.4861 0.0
C66 C 0.51163 0.20047 0.53181 0.0
C67 C 0.48815 0.20568 0.4888 0.0
C68 C 0.48758 0.15722 0.52904 0.0
C69 C 0.51329 0.22504 0.51137 0.0
C70 C 0.44765 0.09272 0.50002 0.0
C71 C 0.43921 0.9493 0.49387 0.0
H72 H 0.51507 0.88494 0.502 0.0
H73 H 0.64455 0.90031 0.54165 0.0
H74 H 0.51397 0.82455 0.52007 0.0
H75 H 0.64577 0.95993 0.52272 0.0
H76 H 0.44632 0.14793 0.46796 0.0
H77 H 0.53102 0.21447 0.54933 0.0
H78 H 0.48859 0.22396 0.47286 0.0
H79 H 0.48918 0.13916 0.5445 0.0
Eu80 Eu 0.47463 0.48854 0.82241 0.0
Eu81 Eu 0.572 0.54157 0.84003 0.0
C82 C 0.50418 0.50606 0.88211 0.0
C83 C 0.36911 0.47152 0.80792 0.0
C84 C 0.38536 0.51227 0.7999 0.0
C85 C 0.30615 0.47164 0.82051 0.0
C86 C 0.36274 0.53286 0.80274 0.0
C87 C 0.32899 0.45099 0.81771 0.0
C88 C 0.32329 0.5132 0.81366 0.0
C89 C 0.39602 0.45288 0.80898 0.0
O90 O 0.56151 0.47742 0.82675 0.0
O91 O 0.49052 0.43824 0.82963 0.0
C92 C 0.52704 0.44092 0.8266 0.0
O93 O 0.51219 0.48929 0.78764 0.0
O94 O 0.62082 0.57935 0.86943 0.0
O95 O 0.63704 0.56662 0.8309 0.0
O96 O 0.56656 0.55381 0.79828 0.0
C97 C 0.54513 0.52335 0.78091 0.0
O98 O 0.49342 0.55501 0.81472 0.0
O99 O 0.54977 0.58901 0.84296 0.0
O100 O 0.53719 0.50534 0.87405 0.0
O101 O 0.42561 0.46578 0.79222 0.0
O102 O 0.40925 0.45141 0.83227 0.0
O103 O 0.48012 0.51032 0.8652 0.0
C104 C 0.68063 0.5727 0.86596 0.0
C105 C 0.72172 0.60454 0.87064 0.0
C106 C 0.69929 0.52239 0.88006 0.0
C107 C 0.7516 0.59543 0.87975 0.0
C108 C 0.66937 0.53159 0.8709 0.0
C109 C 0.74085 0.55422 0.88438 0.0
C110 C 0.65053 0.5825 0.85451 0.0
C111 C 0.52112 0.58919 0.82773 0.0
H112 H 0.41639 0.52903 0.79249 0.0
H113 H 0.27567 0.45557 0.82879 0.0
H114 H 0.37729 0.56505 0.79771 0.0
H115 H 0.316 0.41964 0.82412 0.0
H116 H 0.73091 0.63637 0.86669 0.0
H117 H 0.69 0.49042 0.88359 0.0
H118 H 0.78344 0.62056 0.88238 0.0
H119 H 0.63764 0.50661 0.86727 0.0
O120 O 0.4872 1.00812 0.23607 0.0
Cd121 Cd 0.46895 1.00396 0.18933 0.0
O122 O 0.55613 0.04206 0.23899 0.0
Cd123 Cd 0.56027 0.02525 0.19864 0.0
O124 O 0.51787 0.96506 0.17965 0.0
C125 C 0.50861 0.93443 0.19354 0.0
O126 O 0.52979 0.94107 0.21555 0.0
C127 C 0.52105 0.02628 0.24975 0.0
C128 C 0.52879 0.07318 0.16494 0.0
O129 O 0.50349 0.07628 0.18053 0.0
O130 O 0.52431 0.03705 0.15987 0.0
O131 O 0.75539 0.56328 0.6301 0.0
Cd132 Cd 0.79841 0.57414 0.5922 0.0
O133 O 0.71425 0.57113 0.60327 0.0
Cd134 Cd 0.66313 0.5812 0.5921 0.0
O135 O 0.62544 0.60909 0.58282 0.0
C136 C 0.62367 0.63416 0.59982 0.0
O137 O 0.64259 0.64024 0.62264 0.0
C138 C 0.72164 0.56338 0.62593 0.0
C139 C 0.74982 0.50687 0.55757 0.0
O140 O 0.77585 0.5059 0.57362 0.0
O141 O 0.7485 0.54069 0.55692 0.0
O142 O 0.19689 0.73132 0.95972 0.0
Cd143 Cd 0.23237 0.77082 0.9223 0.0
O144 O 0.15491 0.68261 0.93099 0.0
Cd145 Cd 0.10113 0.62319 0.9178 0.0
O146 O 0.03611 0.58972 0.90492 0.0
C147 C 1.0076 0.55978 0.91661 0.0
O148 O 1.01762 0.54525 0.93654 0.0
C149 C 0.1653 0.6956 0.95469 0.0
C150 C 0.24985 0.72011 0.88947 0.0
O151 O 0.27656 0.74549 0.90681 0.0
O152 O 0.21523 0.7197 0.8871 0.0
O153 O 0.04371 0.56501 0.41535 0.0
Cd154 Cd 0.08095 0.60736 0.4568 0.0
O155 O 0.98941 0.50664 0.42768 0.0
Cd156 Cd 0.92885 0.44518 0.42852 0.0
O157 O 0.87134 0.3897 0.44354 0.0
C158 C 0.84277 0.35986 0.42922 0.0
O159 O 0.8464 0.36076 0.40379 0.0
C160 C 1.01096 0.5298 0.40954 0.0
C161 C 0.16241 0.67985 0.459 0.0
O162 O 0.15673 0.64407 0.4645 0.0
O163 O 0.13036 0.68143 0.45118 0.0
O164 O 0.52183 0.96943 0.75091 0.0
Cd165 Cd 0.53307 0.94151 0.79222 0.0
O166 O 0.53059 0.03075 0.76535 0.0
Cd167 Cd 0.53319 0.09294 0.76615 0.0
O168 O 0.53457 0.15247 0.77987 0.0
C169 C 0.53224 0.1778 0.76488 0.0
O170 O 0.52897 0.1692 0.73957 0.0
C171 C 0.52347 1.00397 0.74648 0.0
C172 C 0.52574 0.86113 0.79517 0.0
O173 O 0.49549 0.86726 0.8008 0.0
O174 O 0.55865 0.89203 0.78687 0.0
O175 O 0.55614 0.53556 0.08368 0.0
Cd176 Cd 0.59423 0.54186 0.12597 0.0
O177 O 0.49653 0.53099 0.09556 0.0
Cd178 Cd 0.43453 0.52902 0.09532 0.0
O179 O 0.3773 0.53031 0.10947 0.0
C180 C 0.34979 0.53109 0.09479 0.0
O181 O 0.35439 0.53102 0.06944 0.0
C182 C 0.52103 0.53241 0.07761 0.0
C183 C 0.6678 0.53501 0.12895 0.0
O184 O 0.63172 0.50393 0.13265 0.0
O185 O 0.66931 0.56875 0.12261 0.0
C186 C 0.12947 0.49289 0.14745 0.0
C187 C 0.1279 0.52979 0.15187 0.0
C188 C 0.16626 0.49355 0.13971 0.0
C189 C 0.20291 0.53206 0.13629 0.0
C190 C 0.2019 0.56949 0.14144 0.0
C191 C 0.1646 0.56793 0.14907 0.0
C192 C 0.16555 0.4528 0.13445 0.0
C193 C 0.24006 0.61132 0.1383 0.0
C194 C 0.30712 0.5332 0.13283 0.0
C195 C 0.3127 0.53195 0.10581 0.0
C196 C 0.272 0.53376 0.14305 0.0
C197 C 0.24137 0.53292 0.12594 0.0
C198 C 0.24701 0.5319 0.09868 0.0
C199 C 0.28236 0.53147 0.08903 0.0
C200 C 0.26754 0.53501 0.17221 0.0
C201 C 0.21542 0.53091 0.07959 0.0
H202 H 0.10155 0.46317 0.14946 0.0
H203 H 0.16411 0.59674 0.15248 0.0
H204 H 0.17129 0.44921 0.11356 0.0
H205 H 0.19075 0.45254 0.146 0.0
H206 H 0.13538 0.4256 0.13925 0.0
H207 H 0.23485 0.63757 0.1441 0.0
H208 H 0.26647 0.61427 0.15026 0.0
H209 H 0.24933 0.61408 0.11766 0.0
H210 H 0.33019 0.53368 0.14608 0.0
H211 H 0.28605 0.53056 0.06813 0.0
H212 H 0.23872 0.50688 0.17765 0.0
H213 H 0.26463 0.56242 0.17863 0.0
H214 H 0.29438 0.53658 0.18297 0.0
H215 H 0.18474 0.50278 0.08197 0.0
H216 H 0.22447 0.53073 0.05901 0.0
H217 H 0.21148 0.55839 0.0836 0.0
C218 C 0.66467 0.14551 0.48544 0.0
C219 C 0.62607 0.1438 0.48766 0.0
C220 C 0.70042 0.18173 0.47785 0.0
C221 C 0.69806 0.21764 0.47232 0.0
C222 C 0.65958 0.21665 0.47544 0.0
C223 C 0.62423 0.17993 0.48293 0.0
C224 C 0.74057 0.18109 0.47495 0.0
C225 C 0.65531 0.25403 0.47007 0.0
C226 C 0.79987 0.32207 0.46775 0.0
C227 C 0.80566 0.32407 0.44069 0.0
C228 C 0.765 0.28807 0.47833 0.0
C229 C 0.73495 0.25494 0.46158 0.0
C230 C 0.74053 0.25703 0.43428 0.0
C231 C 0.77551 0.29128 0.42426 0.0
C232 C 0.76036 0.28755 0.50749 0.0
C233 C 0.70952 0.22282 0.41553 0.0
H234 H 0.66683 0.11808 0.48898 0.0
H235 H 0.59486 0.17941 0.48462 0.0
H236 H 0.74925 0.18412 0.4542 0.0
H237 H 0.76611 0.20795 0.48633 0.0
H238 H 0.73823 0.15195 0.48156 0.0
H239 H 0.62465 0.2498 0.47574 0.0
H240 H 0.68011 0.28232 0.4808 0.0
H241 H 0.65899 0.25962 0.44898 0.0
H242 H 0.82265 0.34708 0.48072 0.0
H243 H 0.77926 0.29219 0.40335 0.0
H244 H 0.759 0.2592 0.51471 0.0
H245 H 0.73073 0.28636 0.51246 0.0
H246 H 0.78637 0.31534 0.51795 0.0
H247 H 0.70756 0.19283 0.41969 0.0
H248 H 0.71786 0.22919 0.39485 0.0
H249 H 0.67813 0.21894 0.41816 0.0
C250 C 0.54484 0.66503 0.83995 0.0
C251 C 0.52081 0.62888 0.82383 0.0
C252 C 0.54492 0.7025 0.83585 0.0
C253 C 0.52096 0.70439 0.81486 0.0
C254 C 0.49659 0.66795 0.7986 0.0
C255 C 0.49661 0.63085 0.80336 0.0
C256 C 0.5707 0.74018 0.85404 0.0
C257 C 0.4709 0.66827 0.77582 0.0
C258 C 0.49284 0.79101 0.81489 0.0
C259 C 0.52354 0.82034 0.79935 0.0
C260 C 0.49188 0.75357 0.82032 0.0
C261 C 0.52185 0.74449 0.80958 0.0
C262 C 0.55244 0.77363 0.79347 0.0
C263 C 0.55318 0.81121 0.7888 0.0
C264 C 0.45897 0.72391 0.83783 0.0
C265 C 0.58444 0.76507 0.78107 0.0
H266 H 0.56351 0.66403 0.85588 0.0
H267 H 0.47805 0.60341 0.7906 0.0
H268 H 0.59479 0.76566 0.84299 0.0
H269 H 0.55073 0.75172 0.86274 0.0
H270 H 0.58631 0.73339 0.87003 0.0
H271 H 0.45357 0.6374 0.76503 0.0
H272 H 0.44824 0.67756 0.78271 0.0
H273 H 0.49137 0.69158 0.7621 0.0
H274 H 0.46994 0.79771 0.82334 0.0
H275 H 0.57701 0.83345 0.77674 0.0
H276 H 0.47379 0.71762 0.85449 0.0
H277 H 0.43881 0.69369 0.82694 0.0
H278 H 0.43909 0.73625 0.84559 0.0
H279 H 0.60345 0.76157 0.7964 0.0
H280 H 0.60554 0.79027 0.76856 0.0
H281 H 0.5687 0.73533 0.769 0.0
C282 C 0.86778 0.50293 0.13555 0.0
C283 C 0.89497 0.52555 0.15687 0.0
C284 C 0.83103 0.50432 0.13078 0.0
C285 C 0.82032 0.52833 0.14797 0.0
C286 C 0.84726 0.55074 0.16978 0.0
C287 C 0.88433 0.54943 0.17382 0.0
C288 C 0.8039 0.48044 0.10706 0.0
C289 C 0.83685 0.57608 0.18895 0.0
C290 C 0.74479 0.56287 0.12368 0.0
C291 C 0.7066 0.53264 0.13307 0.0
C292 C 0.78177 0.56167 0.12819 0.0
C293 C 0.78108 0.53002 0.143 0.0
C294 C 0.74264 0.49955 0.15265 0.0
C295 C 0.70598 0.50097 0.14736 0.0
C296 C 0.82165 0.59425 0.11696 0.0
C297 C 0.74028 0.46562 0.16887 0.0
H298 H 0.87555 0.48452 0.12216 0.0
H299 H 0.90484 0.56692 0.19039 0.0
H300 H 0.77233 0.45741 0.11306 0.0
H301 H 0.80048 0.50207 0.09443 0.0
H302 H 0.81676 0.4637 0.09537 0.0
H303 H 0.86017 0.59066 0.20534 0.0
H304 H 0.83513 0.60098 0.17887 0.0
H305 H 0.80585 0.556 0.19703 0.0
H306 H 0.74577 0.58745 0.11259 0.0
H307 H 0.67684 0.47764 0.15495 0.0
H308 H 0.83482 0.57902 0.10416 0.0
H309 H 0.845 0.61222 0.13288 0.0
H310 H 0.817 0.6163 0.10545 0.0
H311 H 0.7505 0.44638 0.15741 0.0
H312 H 0.70836 0.44493 0.17556 0.0
H313 H 0.76166 0.47962 0.18621 0.0
C314 C 0.39648 0.87876 0.47024 0.0
C315 C 0.39936 0.90882 0.48918 0.0
C316 C 0.35864 0.84141 0.4646 0.0
C317 C 0.32268 0.83302 0.47865 0.0
C318 C 0.32566 0.8629 0.49818 0.0
C319 C 0.36362 0.9005 0.50293 0.0
C320 C 0.35698 0.81121 0.4432 0.0
C321 C 0.28869 0.85511 0.51416 0.0
C322 C 0.21342 0.75489 0.45052 0.0
C323 C 0.20416 0.71845 0.46292 0.0
C324 C 0.25202 0.7919 0.45497 0.0
C325 C 0.28199 0.79322 0.47287 0.0
C326 C 0.27274 0.7565 0.48547 0.0
C327 C 0.23437 0.71961 0.48011 0.0
C328 C 0.2607 0.82973 0.44052 0.0
C329 C 0.30305 0.75641 0.50514 0.0
H330 H 0.42366 0.88489 0.45928 0.0
H331 H 0.36539 0.92329 0.51767 0.0
H332 H 0.34765 0.78064 0.45119 0.0
H333 H 0.33314 0.80602 0.42809 0.0
H334 H 0.38733 0.82247 0.43376 0.0
H335 H 0.29639 0.88046 0.52935 0.0
H336 H 0.26318 0.85217 0.50128 0.0
H337 H 0.27676 0.82531 0.52381 0.0
H338 H 0.19047 0.75444 0.43717 0.0
H339 H 0.22752 0.69187 0.49002 0.0
H340 H 0.29012 0.8411 0.42998 0.0
H341 H 0.26476 0.85525 0.45456 0.0
H342 H 0.23527 0.82318 0.42626 0.0
H343 H 0.33309 0.76518 0.49593 0.0
H344 H 0.29123 0.72555 0.51345 0.0
H345 H 0.30943 0.77996 0.52131 0.0
C346 C 0.49241 0.36284 0.81829 0.0
C347 C 0.52897 0.40187 0.82074 0.0
C348 C 0.49334 0.32624 0.81066 0.0
C349 C 0.53176 0.32826 0.80531 0.0
C350 C 0.5689 0.36735 0.80843 0.0
C351 C 0.56707 0.40351 0.81603 0.0
C352 C 0.45291 0.28547 0.80763 0.0
C353 C 0.61061 0.37121 0.80306 0.0
C354 C 0.53623 0.22679 0.8025 0.0
C355 C 0.53278 0.2165 0.77555 0.0
C356 C 0.53631 0.26306 0.81246 0.0
C357 C 0.53278 0.28994 0.79516 0.0
C358 C 0.52953 0.27981 0.76795 0.0
C359 C 0.52958 0.24348 0.75855 0.0
C360 C 0.53997 0.27254 0.84157 0.0
C361 C 0.52569 0.30729 0.74868 0.0
H362 H 0.46271 0.36087 0.8218 0.0
H363 H 0.59561 0.43327 0.81781 0.0
H364 H 0.44762 0.27351 0.78693 0.0
H365 H 0.45442 0.26187 0.81933 0.0
H366 H 0.42587 0.28858 0.81379 0.0
H367 H 0.6368 0.40311 0.80804 0.0
H368 H 0.61495 0.34886 0.81438 0.0
H369 H 0.6119 0.3633 0.7821 0.0
H370 H 0.53878 0.20642 0.8159 0.0
H371 H 0.52693 0.23615 0.73771 0.0
H372 H 0.51206 0.27346 0.84834 0.0
H373 H 0.56729 0.30371 0.84648 0.0
H374 H 0.54324 0.24911 0.85245 0.0
H375 H 0.49738 0.30947 0.75244 0.0
H376 H 0.52393 0.29548 0.72815 0.0
H377 H 0.55273 0.33929 0.75113 0.0
C378 C 0.61318 0.8145 0.5376 0.0
C379 C 0.57945 0.82079 0.54231 0.0
C380 C 0.61509 0.7812 0.54787 0.0
C381 C 0.58217 0.75302 0.56297 0.0
C382 C 0.54742 0.7584 0.56726 0.0
C383 C 0.54655 0.79238 0.55695 0.0
C384 C 0.65273 0.77656 0.54282 0.0
C385 C 0.51157 0.72868 0.58304 0.0
C386 C 0.58368 0.65251 0.56898 0.0
C387 C 0.60638 0.66078 0.59257 0.0
C388 C 0.57269 0.68098 0.55997 0.0
C389 C 0.58525 0.71879 0.57473 0.0
C390 C 0.60575 0.72602 0.59934 0.0
C391 C 0.61582 0.69676 0.60805 0.0
C392 C 0.55 0.67174 0.53389 0.0
C393 C 0.61982 0.76604 0.61562 0.0
H394 H 0.63826 0.83572 0.5258 0.0
H395 H 0.52049 0.79718 0.56081 0.0
H396 H 0.6684 0.77796 0.5616 0.0
H397 H 0.64302 0.74578 0.5328 0.0
H398 H 0.67562 0.80117 0.53064 0.0
H399 H 0.48565 0.73557 0.58309 0.0
H400 H 0.49955 0.69619 0.57518 0.0
H401 H 0.52239 0.73053 0.60348 0.0
H402 H 0.57576 0.62447 0.55708 0.0
H403 H 0.63314 0.70328 0.62637 0.0
H404 H 0.5718 0.69172 0.51926 0.0
H405 H 0.52438 0.67898 0.53507 0.0
H406 H 0.53689 0.63868 0.52683 0.0
H407 H 0.64557 0.79216 0.60588 0.0
H408 H 0.63097 0.76483 0.63549 0.0
H409 H 0.59415 0.77309 0.61742 0.0
C410 C 0.7753 0.51069 0.88053 0.0
C411 C 0.77365 0.54473 0.89236 0.0
C412 C 0.80939 0.50494 0.88524 0.0
C413 C 0.84267 0.53418 0.90192 0.0
C414 C 0.8399 0.56706 0.91515 0.0
C415 C 0.80533 0.57177 0.91032 0.0
C416 C 0.81088 0.46908 0.87114 0.0
C417 C 0.87468 0.59889 0.93316 0.0
C418 C 0.93192 0.52142 0.9269 0.0
C419 C 0.96361 0.54671 0.91039 0.0
C420 C 0.89137 0.51469 0.92344 0.0
C421 C 0.8826 0.53396 0.90314 0.0
C422 C 0.9138 0.5572 0.88543 0.0
C423 C 0.95383 0.56314 0.88922 0.0
C424 C 0.85866 0.48902 0.94238 0.0
C425 C 0.90572 0.57818 0.86345 0.0
H426 H 0.75101 0.48969 0.86657 0.0
H427 H 0.80374 0.59755 0.91999 0.0
H428 H 0.83306 0.4809 0.85509 0.0
H429 H 0.82209 0.45387 0.88451 0.0
H430 H 0.77996 0.44536 0.86265 0.0
H431 H 0.86623 0.62048 0.94354 0.0
H432 H 0.88322 0.58322 0.94784 0.0
H433 H 0.90268 0.6175 0.92172 0.0
H434 H 0.93914 0.50839 0.94323 0.0
H435 H 0.97799 0.5823 0.87616 0.0
H436 H 0.82871 0.46748 0.93192 0.0
H437 H 0.85317 0.50991 0.95591 0.0
H438 H 0.86818 0.47059 0.95413 0.0
H439 H 0.87755 0.5555 0.85178 0.0
H440 H 0.93229 0.59239 0.85023 0.0
H441 H 0.89994 0.60302 0.87165 0.0
C442 C 0.27481 0.79225 0.2081 0.0
C443 C 0.25342 0.75304 0.19484 0.0
C444 C 0.31784 0.81755 0.20604 0.0
C445 C 0.33999 0.80318 0.19037 0.0
C446 C 0.31875 0.76327 0.17733 0.0
C447 C 0.27562 0.73868 0.17968 0.0
C448 C 0.3395 0.85992 0.22036 0.0
C449 C 0.34137 0.74696 0.16049 0.0
C450 C 0.4409 0.89234 0.16887 0.0
C451 C 0.46855 0.89545 0.18873 0.0
C452 C 0.3993 0.86036 0.16799 0.0
C453 C 0.38524 0.83081 0.18733 0.0
C454 C 0.41389 0.83152 0.2059 0.0
C455 C 0.45531 0.8639 0.20638 0.0
C456 C 0.3697 0.8604 0.14771 0.0
C457 C 0.40015 0.80016 0.22661 0.0
H458 H 0.25783 0.8032 0.2201 0.0
H459 H 0.25909 0.70859 0.1691 0.0
H460 H 0.36451 0.86256 0.23361 0.0
H461 H 0.35436 0.8845 0.2062 0.0
H462 H 0.31782 0.8661 0.23205 0.0
H463 H 0.32078 0.71412 0.1532 0.0
H464 H 0.35406 0.7664 0.1435 0.0
H465 H 0.36811 0.74902 0.17161 0.0
H466 H 0.45097 0.91639 0.155 0.0
H467 H 0.47663 0.8658 0.2216 0.0
H468 H 0.34927 0.87073 0.15717 0.0
H469 H 0.34941 0.82858 0.1388 0.0
H470 H 0.38638 0.88159 0.132 0.0
H471 H 0.3821 0.80702 0.24122 0.0
H472 H 0.42698 0.80096 0.23689 0.0
H473 H 0.37952 0.7682 0.218 0.0
C474 C 0.55089 0.29419 0.53599 0.0
C475 C 0.54445 0.27002 0.5128 0.0
C476 C 0.5846 0.33481 0.53916 0.0
C477 C 0.61253 0.35163 0.51861 0.0
C478 C 0.60493 0.32822 0.49462 0.0
C479 C 0.57084 0.28762 0.49198 0.0
C480 C 0.59151 0.35891 0.56502 0.0
C481 C 0.63393 0.34519 0.47227 0.0
C482 C 0.68526 0.46766 0.52935 0.0
C483 C 0.71889 0.4686 0.54263 0.0
C484 C 0.6514 0.42983 0.51963 0.0
C485 C 0.65131 0.39224 0.52333 0.0
C486 C 0.68668 0.39337 0.53476 0.0
C487 C 0.72007 0.43159 0.5443 0.0
C488 C 0.61451 0.42988 0.50714 0.0
C489 C 0.68801 0.35395 0.53875 0.0
H490 H 0.53022 0.28079 0.55198 0.0
H491 H 0.56616 0.26889 0.47408 0.0
H492 H 0.62067 0.36412 0.57468 0.0
H493 H 0.59511 0.38992 0.56197 0.0
H494 H 0.56553 0.34237 0.57837 0.0
H495 H 0.62127 0.32492 0.45409 0.0
H496 H 0.64001 0.37687 0.4684 0.0
H497 H 0.66425 0.34785 0.47748 0.0
H498 H 0.68425 0.49618 0.5278 0.0
H499 H 0.74616 0.43212 0.55427 0.0
H500 H 0.58872 0.41851 0.52097 0.0
H501 H 0.60312 0.40858 0.48937 0.0
H502 H 0.6221 0.46152 0.50183 0.0
H503 H 0.66588 0.33632 0.55394 0.0
H504 H 0.7195 0.36046 0.54499 0.0
H505 H 0.67829 0.33363 0.52056 0.0
C506 C 0.30479 0.56772 0.80385 0.0
C507 C 0.30276 0.53787 0.82048 0.0
C508 C 0.29255 0.5965 0.81215 0.0
C509 C 0.27767 0.59513 0.8376 0.0
C510 C 0.27285 0.5633 0.85379 0.0
C511 C 0.28557 0.53512 0.84506 0.0
C512 C 0.29799 0.62988 0.79429 0.0
C513 C 0.25684 0.56067 0.88102 0.0
C514 C 0.29736 0.69428 0.87468 0.0
C515 C 0.25783 0.69046 0.87381 0.0
C516 C 0.30453 0.66419 0.86207 0.0
C517 C 0.27127 0.62929 0.84842 0.0
C518 C 0.23166 0.626 0.84664 0.0
C519 C 0.22542 0.65676 0.85931 0.0
C520 C 0.34738 0.66904 0.86414 0.0
C521 C 0.19552 0.58922 0.83224 0.0
H522 H 0.31744 0.56958 0.78466 0.0
H523 H 0.2843 0.51251 0.85816 0.0
H524 H 0.2698 0.63306 0.79384 0.0
H525 H 0.32434 0.66026 0.80176 0.0
H526 H 0.30449 0.62332 0.77405 0.0
H527 H 0.25079 0.53161 0.89002 0.0
H528 H 0.28006 0.58763 0.89354 0.0
H529 H 0.22769 0.56212 0.88078 0.0
H530 H 0.3226 0.72041 0.88569 0.0
H531 H 0.19477 0.65361 0.85858 0.0
H532 H 0.35853 0.66686 0.84444 0.0
H533 H 0.34611 0.64344 0.87514 0.0
H534 H 0.3704 0.69918 0.87415 0.0
H535 H 0.2044 0.58441 0.81233 0.0
H536 H 0.16779 0.59314 0.83069 0.0
H537 H 0.18684 0.56058 0.84259 0.0
C538 C 0.74253 0.2732 0.12578 0.0
C539 C 0.77222 0.2725 0.14242 0.0
C540 C 0.70036 0.24285 0.12659 0.0
C541 C 0.68778 0.21146 0.14464 0.0
C542 C 0.71764 0.21091 0.16166 0.0
C543 C 0.75954 0.24136 0.16025 0.0
C544 C 0.66939 0.24408 0.10802 0.0
C545 C 0.70533 0.17815 0.18139 0.0
C546 C 0.57803 0.14973 0.16803 0.0
C547 C 0.56524 0.1105 0.1557 0.0
C548 C 0.61709 0.18387 0.16338 0.0
C549 C 0.64356 0.17857 0.14578 0.0
C550 C 0.62932 0.13994 0.13165 0.0
C551 C 0.59036 0.10624 0.1369 0.0
C552 C 0.63125 0.2246 0.17885 0.0
C553 C 0.65641 0.13332 0.11238 0.0
H554 H 0.75242 0.29714 0.11185 0.0
H555 H 0.78242 0.24118 0.17337 0.0
H556 H 0.65403 0.21496 0.09535 0.0
H557 H 0.64468 0.2459 0.11908 0.0
H558 H 0.68417 0.27097 0.09545 0.0
H559 H 0.73228 0.18269 0.19354 0.0
H560 H 0.68187 0.17875 0.19445 0.0
H561 H 0.69084 0.14678 0.17125 0.0
H562 H 0.55872 0.15322 0.18257 0.0
H563 H 0.58041 0.07605 0.12711 0.0
H564 H 0.64561 0.25108 0.166 0.0
H565 H 0.65527 0.22931 0.19369 0.0
H566 H 0.60523 0.22532 0.18903 0.0
H567 H 0.67059 0.15933 0.09916 0.0
H568 H 0.63872 0.1036 0.10043 0.0
H569 H 0.68215 0.13271 0.12306 0.0
C570 C 0.0463 0.54208 0.0684 0.0
C571 C 0.03571 0.56337 0.08739 0.0
C572 C 0.06439 0.56053 0.04513 0.0
C573 C 0.07239 0.60129 0.04098 0.0
C574 C 0.06023 0.6222 0.05961 0.0
C575 C 0.04186 0.60291 0.08249 0.0
C576 C 0.0764 0.53709 0.02548 0.0
C577 C 0.06829 0.66574 0.05593 0.0
C578 C 0.16203 0.67104 0.99929 0.0
C579 C 0.1413 0.67005 0.97618 0.0
C580 C 0.13997 0.64786 0.02025 0.0
C581 C 0.09606 0.62347 0.01813 0.0
C582 C 0.07492 0.62242 0.99484 0.0
C583 C 0.09785 0.64575 0.9741 0.0
C584 C 0.16362 0.65015 0.04488 0.0
C585 C 0.02809 0.5972 0.99201 0.0
H586 H 0.04151 0.51147 0.07198 0.0
H587 H 0.03369 0.61963 0.09698 0.0
H588 H 0.06386 0.53688 0.00578 0.0
H589 H 0.11076 0.553 0.02443 0.0
H590 H 0.06488 0.50444 0.03053 0.0
H591 H 0.05459 0.67663 0.07146 0.0
H592 H 0.1023 0.68766 0.05608 0.0
H593 H 0.0553 0.66714 0.03676 0.0
H594 H 0.19563 0.68995 0.00094 0.0
H595 H 0.08161 0.64609 0.95663 0.0
H596 H 0.15619 0.61844 0.04983 0.0
H597 H 0.15402 0.66352 0.06141 0.0
H598 H 0.19781 0.66952 0.04307 0.0
H599 H 1.01784 0.56362 0.9927 0.0
H600 H 1.0162 0.60224 0.97345 0.0
H601 H 1.01361 0.60528 0.00844 0.0
C602 C 0.53316 1.00736 0.40249 0.0
C603 C 0.51315 0.02501 0.41682 0.0
C604 C 0.53402 1.00783 0.37524 0.0
C605 C 0.51539 0.02744 0.36212 0.0
C606 C 0.49556 0.04576 0.37653 0.0
C607 C 0.49418 0.04381 0.40375 0.0
C608 C 0.55456 0.98706 0.36047 0.0
C609 C 0.47622 0.06776 0.36324 0.0
C610 C 0.55209 0.0593 0.29379 0.0
C611 C 0.51922 0.02764 0.27844 0.0
C612 C 0.55074 0.06028 0.32111 0.0
C613 C 0.51625 0.02821 0.33325 0.0
C614 C 0.48305 0.99615 0.31782 0.0
C615 C 0.48471 0.99655 0.29058 0.0
C616 C 0.58626 0.09549 0.33697 0.0
C617 C 0.44624 0.96089 0.33007 0.0
H618 H 0.54763 0.99258 0.4126 0.0
H619 H 0.47909 0.05787 0.41487 0.0
H620 H 0.53198 0.96286 0.34614 0.0
H621 H 0.58073 1.01022 0.34934 0.0
H622 H 0.56666 0.97228 0.37358 0.0
H623 H 0.46312 0.08148 0.37735 0.0
H624 H 0.49985 0.09297 0.35178 0.0
H625 H 0.451 0.04568 0.34935 0.0
H626 H 0.57866 0.08351 0.28443 0.0
H627 H 0.45942 0.97181 0.27875 0.0
H628 H 0.60207 0.0831 0.34901 0.0
H629 H 0.57424 0.11093 0.35055 0.0
H630 H 0.6096 0.11921 0.32452 0.0
H631 H 0.45697 0.94397 0.34231 0.0
H632 H 0.42301 0.93835 0.31528 0.0
H633 H 0.43067 0.97332 0.34306 0.0
C634 C 0.58236 0.56386 0.74319 0.0
C635 C 0.56243 0.52571 0.75494 0.0
C636 C 0.60468 0.56852 0.72046 0.0
C637 C 0.60829 0.53456 0.70983 0.0
C638 C 0.58696 0.4955 0.72116 0.0
C639 C 0.56371 0.49139 0.74345 0.0
C640 C 0.62586 0.61027 0.70847 0.0
C641 C 0.5908 0.45883 0.71077 0.0
C642 C 0.64982 0.5394 0.64186 0.0
C643 C 0.69241 0.5557 0.64728 0.0
C644 C 0.62207 0.53282 0.66196 0.0
C645 C 0.63698 0.54096 0.68819 0.0
C646 C 0.67967 0.55588 0.69386 0.0
C647 C 0.70691 0.56335 0.67333 0.0
C648 C 0.57689 0.51736 0.65512 0.0
C649 C 0.69662 0.56415 0.72163 0.0
H650 H 0.58119 0.59034 0.75214 0.0
H651 H 0.54874 0.46206 0.75282 0.0
H652 H 0.66006 0.62475 0.71121 0.0
H653 H 0.61876 0.60636 0.68717 0.0
H654 H 0.6162 0.63194 0.71733 0.0
H655 H 0.56995 0.42992 0.72062 0.0
H656 H 0.58345 0.4531 0.68951 0.0
H657 H 0.62335 0.4658 0.71371 0.0
H658 H 0.63785 0.53086 0.62195 0.0
H659 H 0.73968 0.57537 0.67769 0.0
H660 H 0.56735 0.53909 0.66397 0.0
H661 H 0.55709 0.48662 0.66325 0.0
H662 H 0.57066 0.51428 0.63371 0.0
H663 H 0.6925 0.5891 0.73145 0.0
H664 H 0.73016 0.57376 0.72273 0.0
H665 H 0.67913 0.5358 0.73268 0.0
C666 C 0.54185 0.01693 0.594 0.0
C667 C 0.51854 0.03142 0.58112 0.0
C668 C 0.54279 0.01635 0.62135 0.0
C669 C 0.51865 0.02918 0.63627 0.0
C670 C 0.49519 0.04407 0.62335 0.0
C671 C 0.49597 0.04566 0.59596 0.0
C672 C 0.56927 1.00143 0.63425 0.0
C673 C 0.46803 0.05681 0.63834 0.0
C674 C 0.4903 0.97998 0.70187 0.0
C675 C 0.51839 1.01251 0.71915 0.0
C676 C 0.48843 0.9858 0.67515 0.0
C677 C 0.51642 0.0247 0.66517 0.0
C678 C 0.54417 0.05803 0.68268 0.0
C679 C 0.54437 0.0517 0.70953 0.0
C680 C 0.45737 0.94977 0.65746 0.0
C681 C 0.57532 0.09965 0.67288 0.0
H682 H 0.55966 1.00625 0.58265 0.0
H683 H 0.47766 0.05662 0.58608 0.0
H684 H 0.58964 0.02451 0.64986 0.0
H685 H 0.54908 0.97182 0.64353 0.0
H686 H 0.58906 0.99615 0.62016 0.0
H687 H 0.45299 0.06925 0.6256 0.0
H688 H 0.4434 0.02953 0.6479 0.0
H689 H 0.48656 0.08082 0.654 0.0
H690 H 0.47005 0.94967 0.70924 0.0
H691 H 0.56653 0.07677 0.72276 0.0
H692 H 0.47393 0.93847 0.64448 0.0
H693 H 0.44012 0.95993 0.64484 0.0
H694 H 0.43464 0.92336 0.66858 0.0
H695 H 0.59822 0.09597 0.66089 0.0
H696 H 0.59237 0.12331 0.68908 0.0
H697 H 0.55969 0.11142 0.66018 0.0
C698 C 0.47919 0.52815 0.922 0.0
C699 C 0.49689 0.50571 0.91056 0.0
C700 C 0.47751 0.53243 0.94936 0.0
C701 C 0.49292 0.51292 0.96561 0.0
C702 C 0.50851 0.48821 0.95397 0.0
C703 C 0.51086 0.48544 0.9267 0.0
C704 C 0.46152 0.5598 0.96085 0.0
C705 C 0.52436 0.46598 0.97037 0.0
C706 C 0.54177 0.55753 0.03312 0.0
C707 C 0.51055 0.53135 0.04955 0.0
C708 C 0.53531 0.55354 0.00592 0.0
C709 C 0.49705 0.52159 0.99463 0.0
C710 C 0.46476 0.49597 0.0112 0.0
C711 C 0.47171 0.50154 0.03854 0.0
C712 C 0.57027 0.58242 0.98923 0.0
C713 C 0.42384 0.46101 5e-05 0.0
H714 H 0.46862 0.54416 0.90964 0.0
H715 H 0.52426 0.46777 0.91797 0.0
H716 H 0.43878 0.54372 0.97608 0.0
H717 H 0.48779 0.58842 0.97038 0.0
H718 H 0.44655 0.56905 0.94581 0.0
H719 H 0.53078 0.44416 0.95841 0.0
H720 H 0.55353 0.48911 0.981 0.0
H721 H 0.5014 0.44826 0.98516 0.0
H722 H 0.57179 0.58075 0.04159 0.0
H723 H 0.44766 0.48097 0.05117 0.0
H724 H 0.55858 0.59543 0.97453 0.0
H725 H 0.58303 0.5648 0.97849 0.0
H726 H 0.59599 0.60859 0.00099 0.0
H727 H 0.41121 0.47217 0.98476 0.0
H728 H 0.40037 0.44709 0.01528 0.0
H729 H 0.4288 0.43629 0.9907 0.0
C730 C 0.03417 0.51323 0.25879 0.0
C731 C 0.99868 0.499 0.24251 0.0
C732 C 0.03133 0.51173 0.28605 0.0
C733 C 0.99211 0.49669 0.29756 0.0
C734 C 0.95592 0.48091 0.28116 0.0
C735 C 0.95959 0.48179 0.25381 0.0
C736 C 0.0707 0.52801 0.30258 0.0
C737 C 0.91361 0.46537 0.2925 0.0
C738 C 0.98887 0.47858 0.37056 0.0
C739 C 0.99874 0.51791 0.38151 0.0
C740 C 0.98498 0.47042 0.34322 0.0
C741 C 0.99005 0.50201 0.32657 0.0
C742 C 0.99722 0.54075 0.33781 0.0
C743 C 1.00211 0.54839 0.36501 0.0
C744 C 0.97813 0.429 0.33215 0.0
C745 C 1.00175 0.57503 0.32105 0.0
H746 H 0.06446 0.52626 0.25019 0.0
H747 H 0.93205 0.47101 0.24136 0.0
H748 H 0.07763 0.5576 0.31323 0.0
H749 H 0.06672 0.50554 0.31735 0.0
H750 H 0.09787 0.53388 0.29071 0.0
H751 H 0.88819 0.44984 0.27737 0.0
H752 H 0.90834 0.44321 0.30773 0.0
H753 H 0.91196 0.49201 0.30198 0.0
H754 H 0.98668 0.4551 0.38325 0.0
H755 H 1.00959 0.57879 0.37341 0.0
H756 H 1.007 0.43346 0.32299 0.0
H757 H 0.95317 0.41585 0.31672 0.0
H758 H 0.9698 0.40612 0.34739 0.0
H759 H 0.03111 0.58726 0.31037 0.0
H760 H 1.00229 0.60129 0.33276 0.0
H761 H 0.9758 0.56279 0.30631 0.0
loop_
_geom_bond_atom_site_label_1
_geom_bond_atom_site_label_2
_geom_bond_distance
_geom_bond_site_symmetry_2
_ccdc_geom_bond_type
Eu0 C9 2.828 . S
Eu0 O11 2.392 1_655 S
Eu0 O13 2.418 . S
Eu0 O18 2.373 . S
Eu0 O21 2.488 . S
Eu0 O22 2.471 . S
Eu0 O23 2.349 . S
Eu1 O10 2.373 . S
Eu1 O14 2.488 . S
Eu1 O15 2.471 . S
Eu1 O16 2.349 . S
Eu1 O19 2.392 1_455 S
Eu1 O20 2.418 . S
Eu1 C30 2.828 . S
C2 O20 1.244 . S
C2 O23 1.265 1_455 S
C3 C4 1.379 . S
C3 C7 1.373 . S
C3 C9 1.505 . S
C4 C3 1.379 . S
C4 C6 1.369 . S
C4 H32 0.930 . S
C5 C7 1.383 . S
C5 C8 1.382 . S
C5 H33 0.930 . S
C6 C4 1.369 . S
C6 C8 1.392 . S
C6 H34 0.930 . S
C7 C3 1.373 . S
C7 C5 1.383 . S
C7 H35 0.931 . S
C8 C5 1.382 . S
C8 C6 1.392 . S
C9 Eu0 2.828 . S
C9 C3 1.505 . S
C9 O21 1.249 . S
C9 O22 1.244 . S
O10 Eu1 2.373 . S
O10 C12 1.258 . S
O11 Eu0 2.392 1_455 S
O11 C12 1.242 . S
C12 O10 1.258 . S
C12 O11 1.242 . S
O13 Eu0 2.418 . S
O13 C17 1.244 . S
O14 Eu1 2.488 . S
O14 C30 1.249 . S
O15 Eu1 2.471 . S
O15 C30 1.244 . S
O16 Eu1 2.349 . S
O16 C17 1.265 1_455 S
C17 O13 1.244 . S
C17 O16 1.265 1_655 S
O18 Eu0 2.373 . S
O18 C31 1.258 . S
O19 Eu1 2.392 1_655 S
O19 C31 1.242 . S
O20 Eu1 2.418 . S
O20 C2 1.244 . S
O21 Eu0 2.488 . S
O21 C9 1.249 . S
O22 Eu0 2.471 . S
O22 C9 1.244 . S
O23 Eu0 2.349 . S
O23 C2 1.265 1_655 S
C24 C25 1.379 . S
C24 C28 1.373 . S
C24 C30 1.505 . S
C25 C24 1.379 . S
C25 C27 1.369 . S
C25 H36 0.930 . S
C26 C28 1.383 . S
C26 C29 1.382 . S
C26 H37 0.930 . S
C27 C25 1.369 . S
C27 C29 1.392 . S
C27 H38 0.930 . S
C28 C24 1.373 . S
C28 C26 1.383 . S
C28 H39 0.931 . S
C29 C26 1.382 . S
C29 C27 1.392 . S
C30 Eu1 2.828 . S
C30 O14 1.249 . S
C30 O15 1.244 . S
C30 C24 1.505 . S
C31 O18 1.258 . S
C31 O19 1.242 . S
H32 C4 0.930 . S
H33 C5 0.930 . S
H34 C6 0.930 . S
H35 C7 0.931 . S
H36 C25 0.930 . S
H37 C26 0.930 . S
H38 C27 0.930 . S
H39 C28 0.931 . S
Eu40 C49 2.828 . S
Eu40 O51 2.392 1_565 S
Eu40 O53 2.418 . S
Eu40 O58 2.373 . S
Eu40 O61 2.488 . S
Eu40 O62 2.471 . S
Eu40 O63 2.354 . S
Eu41 O50 2.373 . S
Eu41 O54 2.488 . S
Eu41 O55 2.471 . S
Eu41 O56 2.349 . S
Eu41 O59 2.392 1_545 S
Eu41 O60 2.418 . S
Eu41 C70 2.828 . S
C42 O60 1.244 . S
C42 O63 1.260 1_545 S
C43 C44 1.379 . S
C43 C47 1.373 . S
C43 C49 1.505 . S
C44 C43 1.379 . S
C44 C46 1.369 . S
C44 H72 0.930 . S
C45 C47 1.383 . S
C45 C48 1.382 . S
C45 H73 0.930 . S
C46 C44 1.369 . S
C46 C48 1.392 . S
C46 H74 0.930 . S
C47 C43 1.373 . S
C47 C45 1.383 . S
C47 H75 0.931 . S
C48 C45 1.382 . S
C48 C46 1.392 . S
C49 Eu40 2.828 . S
C49 C43 1.505 . S
C49 O61 1.249 . S
C49 O62 1.244 . S
O50 Eu41 2.373 . S
O50 C52 1.258 . S
O51 Eu40 2.392 1_545 S
O51 C52 1.242 . S
C52 O50 1.258 . S
C52 O51 1.242 . S
O53 Eu40 2.418 . S
O53 C57 1.244 1_565 S
O54 Eu41 2.488 . S
O54 C70 1.249 . S
O55 Eu41 2.471 . S
O55 C70 1.244 . S
O56 Eu41 2.349 . S
O56 C57 1.265 . S
C57 O53 1.244 1_545 S
C57 O56 1.265 . S
O58 Eu40 2.373 . S
O58 C71 1.258 . S
O59 Eu41 2.392 1_565 S
O59 C71 1.242 . S
O60 Eu41 2.418 . S
O60 C42 1.244 . S
O61 Eu40 2.488 . S
O61 C49 1.249 . S
O62 Eu40 2.471 . S
O62 C49 1.244 . S
O63 Eu40 2.354 . S
O63 C42 1.260 1_565 S
C64 C65 1.379 . S
C64 C68 1.373 . S
C64 C70 1.505 . S
C65 C64 1.379 . S
C65 C67 1.369 . S
C65 H76 0.930 . S
C66 C68 1.383 . S
C66 C69 1.382 . S
C66 H77 0.930 . S
C67 C65 1.369 . S
C67 C69 1.392 . S
C67 H78 0.930 . S
C68 C64 1.373 . S
C68 C66 1.383 . S
C68 H79 0.931 . S
C69 C66 1.382 . S
C69 C67 1.392 . S
C70 Eu41 2.828 . S
C70 O54 1.249 . S
C70 O55 1.244 . S
C70 C64 1.505 . S
C71 O58 1.258 . S
C71 O59 1.242 . S
H72 C44 0.930 . S
H73 C45 0.930 . S
H74 C46 0.930 . S
H75 C47 0.931 . S
H76 C65 0.930 . S
H77 C66 0.930 . S
H78 C67 0.930 . S
H79 C68 0.931 . S
Eu80 C89 2.828 . S
Eu80 O91 2.392 . S
Eu80 O93 2.418 . S
Eu80 O98 2.373 . S
Eu80 O101 2.488 . S
Eu80 O102 2.471 . S
Eu80 O103 2.349 . S
Eu81 O90 2.373 . S
Eu81 O94 2.488 . S
Eu81 O95 2.471 . S
Eu81 O96 2.349 . S
Eu81 O99 2.392 . S
Eu81 O100 2.418 . S
Eu81 C110 2.828 . S
C82 O100 1.244 . S
C82 O103 1.265 . S
C83 C84 1.379 . S
C83 C87 1.373 . S
C83 C89 1.505 . S
C84 C83 1.379 . S
C84 C86 1.369 . S
C84 H112 0.930 . S
C85 C87 1.383 . S
C85 C88 1.382 . S
C85 H113 0.930 . S
C86 C84 1.369 . S
C86 C88 1.392 . S
C86 H114 0.930 . S
C87 C83 1.373 . S
C87 C85 1.383 . S
C87 H115 0.931 . S
C88 C85 1.382 . S
C88 C86 1.392 . S
C89 Eu80 2.828 . S
C89 C83 1.505 . S
C89 O101 1.249 . S
C89 O102 1.244 . S
O90 Eu81 2.373 . S
O90 C92 1.258 . S
O91 Eu80 2.392 . S
O91 C92 1.242 . S
C92 O90 1.258 . S
C92 O91 1.242 . S
O93 Eu80 2.418 . S
O93 C97 1.244 . S
O94 Eu81 2.488 . S
O94 C110 1.249 . S
O95 Eu81 2.471 . S
O95 C110 1.244 . S
O96 Eu81 2.349 . S
O96 C97 1.265 . S
C97 O93 1.244 . S
C97 O96 1.265 . S
O98 Eu80 2.373 . S
O98 C111 1.258 . S
O99 Eu81 2.392 . S
O99 C111 1.242 . S
O100 Eu81 2.418 . S
O100 C82 1.244 . S
O101 Eu80 2.488 . S
O101 C89 1.249 . S
O102 Eu80 2.471 . S
O102 C89 1.244 . S
O103 Eu80 2.349 . S
O103 C82 1.265 . S
C104 C105 1.379 . S
C104 C108 1.373 . S
C104 C110 1.505 . S
C105 C104 1.379 . S
C105 C107 1.369 . S
C105 H116 0.930 . S
C106 C108 1.383 . S
C106 C109 1.382 . S
C106 H117 0.930 . S
C107 C105 1.369 . S
C107 C109 1.392 . S
C107 H118 0.930 . S
C108 C104 1.373 . S
C108 C106 1.383 . S
C108 H119 0.931 . S
C109 C106 1.382 . S
C109 C107 1.392 . S
C110 Eu81 2.828 . S
C110 O94 1.249 . S
C110 O95 1.244 . S
C110 C104 1.505 . S
C111 O98 1.258 . S
C111 O99 1.242 . S
H112 C84 0.930 . S
H113 C85 0.930 . S
H114 C86 0.930 . S
H115 C87 0.931 . S
H116 C105 0.930 . S
H117 C106 0.930 . S
H118 C107 0.930 . S
H119 C108 0.931 . S
O120 Cd121 2.300 . S
O120 C127 1.275 . S
Cd121 O120 2.300 . S
Cd121 O129 2.381 . S
Cd121 O130 2.378 . S
O122 Cd123 2.385 . S
O122 C127 1.255 1_565 S
Cd123 O122 2.385 . S
Cd123 O124 2.317 . S
O124 Cd123 2.317 . S
O124 C125 1.232 . S
C125 O124 1.232 . S
C125 O126 1.218 . S
O126 C125 1.218 . S
C127 O120 1.275 . S
C127 O122 1.255 1_545 S
C128 O129 1.258 . S
C128 O130 1.256 . S
O129 Cd121 2.381 . S
O129 C128 1.258 . S
O130 Cd121 2.378 . S
O130 C128 1.256 . S
O131 Cd132 2.300 . S
O131 C138 1.275 . S
Cd132 O131 2.300 . S
Cd132 O140 2.381 . S
Cd132 O141 2.378 . S
O133 Cd134 2.385 . S
O133 C138 1.255 . S
Cd134 O133 2.385 . S
Cd134 O135 2.317 . S
O135 Cd134 2.317 . S
O135 C136 1.232 . S
C136 O135 1.232 . S
C136 O137 1.218 . S
O137 C136 1.218 . S
C138 O131 1.275 . S
C138 O133 1.255 . S
C139 O140 1.258 . S
C139 O141 1.256 . S
O140 Cd132 2.381 . S
O140 C139 1.258 . S
O141 Cd132 2.378 . S
O141 C139 1.256 . S
O142 Cd143 2.300 . S
O142 C149 1.275 . S
Cd143 O142 2.300 . S
Cd143 O151 2.381 . S
Cd143 O152 2.378 . S
O144 Cd145 2.385 . S
O144 C149 1.255 1_655 S
Cd145 O144 2.385 . S
Cd145 O146 2.317 . S
O146 Cd145 2.317 . S
O146 C147 1.232 . S
C147 O146 1.232 . S
C147 O148 1.218 . S
O148 C147 1.218 . S
C149 O142 1.275 . S
C149 O144 1.255 1_455 S
C150 O151 1.258 . S
C150 O152 1.256 . S
O151 Cd143 2.381 . S
O151 C150 1.258 . S
O152 Cd143 2.378 . S
O152 C150 1.256 . S
O153 Cd154 2.300 . S
O153 C160 1.275 . S
Cd154 O153 2.300 . S
Cd154 O162 2.381 . S
Cd154 O163 2.378 . S
O155 Cd156 2.385 . S
O155 C160 1.255 1_655 S
Cd156 O155 2.385 . S
Cd156 O157 2.317 . S
O157 Cd156 2.317 . S
O157 C158 1.232 . S
C158 O157 1.232 . S
C158 O159 1.218 . S
O159 C158 1.218 . S
C160 O153 1.275 . S
C160 O155 1.255 1_455 S
C161 O162 1.258 . S
C161 O163 1.256 . S
O162 Cd154 2.381 . S
O162 C161 1.258 . S
O163 Cd154 2.378 . S
O163 C161 1.256 . S
O164 Cd165 2.300 . S
O164 C171 1.275 1_565 S
Cd165 O164 2.300 . S
Cd165 O173 2.381 . S
Cd165 O174 2.378 . S
O166 Cd167 2.385 . S
O166 C171 1.255 . S
Cd167 O166 2.385 . S
Cd167 O168 2.317 . S
O168 Cd167 2.317 . S
O168 C169 1.232 . S
C169 O168 1.232 . S
C169 O170 1.218 . S
O170 C169 1.218 . S
C171 O164 1.275 1_545 S
C171 O166 1.255 . S
C172 O173 1.258 . S
C172 O174 1.256 . S
O173 Cd165 2.381 . S
O173 C172 1.258 . S
O174 Cd165 2.378 . S
O174 C172 1.256 . S
O175 Cd176 2.300 . S
O175 C182 1.275 . S
Cd176 O175 2.300 . S
Cd176 O184 2.381 . S
Cd176 O185 2.378 . S
O177 Cd178 2.385 . S
O177 C182 1.255 . S
Cd178 O177 2.385 . S
Cd178 O179 2.317 . S
O179 Cd178 2.317 . S
O179 C180 1.232 . S
C180 O179 1.232 . S
C180 O181 1.218 . S
O181 C180 1.218 . S
C182 O175 1.275 . S
C182 O177 1.255 . S
C183 O184 1.258 . S
C183 O185 1.256 . S
O184 Cd176 2.381 . S
O184 C183 1.258 . S
O185 Cd176 2.378 . S
O185 C183 1.256 . S
C186 C187 1.391 . S
C186 C188 1.394 . S
C186 H202 0.931 . S
C187 C186 1.391 . S
C187 C191 1.376 . S
C188 C186 1.394 . S
C188 C189 1.369 . S
C188 C192 1.531 . S
C189 C188 1.369 . S
C189 C190 1.410 . S
C189 C197 1.503 . S
C190 C189 1.410 . S
C190 C191 1.392 . S
C190 C193 1.511 . S
C191 C187 1.376 . S
C191 C190 1.392 . S
C191 H203 0.929 . S
C192 C188 1.531 . S
C192 H204 0.960 . S
C192 H205 0.962 . S
C192 H206 0.960 . S
C193 C190 1.511 . S
C193 H207 0.961 . S
C193 H208 0.961 . S
C193 H209 0.961 . S
C194 C195 1.370 . S
C194 C196 1.363 . S
C194 H210 0.931 . S
C195 C194 1.370 . S
C195 C199 1.408 . S
C196 C194 1.363 . S
C196 C197 1.370 . S
C196 C200 1.524 . S
C197 C189 1.503 . S
C197 C196 1.370 . S
C197 C198 1.403 . S
C198 C197 1.403 . S
C198 C199 1.404 . S
C198 C201 1.539 . S
C199 C195 1.408 . S
C199 C198 1.404 . S
C199 H211 0.930 . S
C200 C196 1.524 . S
C200 H212 0.956 . S
C200 H213 0.961 . S
C200 H214 0.961 . S
C201 C198 1.539 . S
C201 H215 0.958 . S
C201 H216 0.961 . S
C201 H217 0.960 . S
H202 C186 0.931 . S
H203 C191 0.929 . S
H204 C192 0.960 . S
H205 C192 0.962 . S
H206 C192 0.960 . S
H207 C193 0.961 . S
H208 C193 0.961 . S
H209 C193 0.961 . S
H210 C194 0.931 . S
H211 C199 0.930 . S
H212 C200 0.956 . S
H213 C200 0.961 . S
H214 C200 0.961 . S
H215 C201 0.958 . S
H216 C201 0.961 . S
H217 C201 0.960 . S
C218 C219 1.391 . S
C218 C220 1.394 . S
C218 H234 0.931 . S
C219 C218 1.391 . S
C219 C223 1.376 . S
C220 C218 1.394 . S
C220 C221 1.369 . S
C220 C224 1.531 . S
C221 C220 1.369 . S
C221 C222 1.410 . S
C221 C229 1.503 . S
C222 C221 1.410 . S
C222 C223 1.392 . S
C222 C225 1.511 . S
C223 C219 1.376 . S
C223 C222 1.392 . S
C223 H235 0.929 . S
C224 C220 1.531 . S
C224 H236 0.960 . S
C224 H237 0.962 . S
C224 H238 0.960 . S
C225 C222 1.511 . S
C225 H239 0.961 . S
C225 H240 0.961 . S
C225 H241 0.961 . S
C226 C227 1.370 . S
C226 C228 1.363 . S
C226 H242 0.931 . S
C227 C226 1.370 . S
C227 C231 1.408 . S
C228 C226 1.363 . S
C228 C229 1.370 . S
C228 C232 1.524 . S
C229 C221 1.503 . S
C229 C228 1.370 . S
C229 C230 1.403 . S
C230 C229 1.403 . S
C230 C231 1.404 . S
C230 C233 1.539 . S
C231 C227 1.408 . S
C231 C230 1.404 . S
C231 H243 0.930 . S
C232 C228 1.524 . S
C232 H244 0.956 . S
C232 H245 0.961 . S
C232 H246 0.961 . S
C233 C230 1.539 . S
C233 H247 0.958 . S
C233 H248 0.961 . S
C233 H249 0.960 . S
H234 C218 0.931 . S
H235 C223 0.929 . S
H236 C224 0.960 . S
H237 C224 0.962 . S
H238 C224 0.960 . S
H239 C225 0.961 . S
H240 C225 0.961 . S
H241 C225 0.961 . S
H242 C226 0.931 . S
H243 C231 0.930 . S
H244 C232 0.956 . S
H245 C232 0.961 . S
H246 C232 0.961 . S
H247 C233 0.958 . S
H248 C233 0.961 . S
H249 C233 0.960 . S
C250 C251 1.391 . S
C250 C252 1.394 . S
C250 H266 0.931 . S
C251 C250 1.391 . S
C251 C255 1.376 . S
C252 C250 1.394 . S
C252 C253 1.369 . S
C252 C256 1.531 . S
C253 C252 1.369 . S
C253 C254 1.410 . S
C253 C261 1.503 . S
C254 C253 1.410 . S
C254 C255 1.392 . S
C254 C257 1.511 . S
C255 C251 1.376 . S
C255 C254 1.392 . S
C255 H267 0.929 . S
C256 C252 1.531 . S
C256 H268 0.960 . S
C256 H269 0.962 . S
C256 H270 0.960 . S
C257 C254 1.511 . S
C257 H271 0.961 . S
C257 H272 0.961 . S
C257 H273 0.961 . S
C258 C259 1.370 . S
C258 C260 1.363 . S
C258 H274 0.931 . S
C259 C258 1.370 . S
C259 C263 1.408 . S
C260 C258 1.363 . S
C260 C261 1.370 . S
C260 C264 1.524 . S
C261 C253 1.503 . S
C261 C260 1.370 . S
C261 C262 1.403 . S
C262 C261 1.403 . S
C262 C263 1.404 . S
C262 C265 1.539 . S
C263 C259 1.408 . S
C263 C262 1.404 . S
C263 H275 0.930 . S
C264 C260 1.524 . S
C264 H276 0.956 . S
C264 H277 0.961 . S
C264 H278 0.961 . S
C265 C262 1.539 . S
C265 H279 0.958 . S
C265 H280 0.961 . S
C265 H281 0.960 . S
H266 C250 0.931 . S
H267 C255 0.929 . S
H268 C256 0.960 . S
H269 C256 0.962 . S
H270 C256 0.960 . S
H271 C257 0.961 . S
H272 C257 0.961 . S
H273 C257 0.961 . S
H274 C258 0.931 . S
H275 C263 0.930 . S
H276 C264 0.956 . S
H277 C264 0.961 . S
H278 C264 0.961 . S
H279 C265 0.958 . S
H280 C265 0.961 . S
H281 C265 0.960 . S
C282 C283 1.391 . S
C282 C284 1.394 . S
C282 H298 0.931 . S
C283 C282 1.391 . S
C283 C287 1.376 . S
C284 C282 1.394 . S
C284 C285 1.369 . S
C284 C288 1.531 . S
C285 C284 1.369 . S
C285 C286 1.410 . S
C285 C293 1.503 . S
C286 C285 1.410 . S
C286 C287 1.392 . S
C286 C289 1.511 . S
C287 C283 1.376 . S
C287 C286 1.392 . S
C287 H299 0.929 . S
C288 C284 1.531 . S
C288 H300 0.960 . S
C288 H301 0.962 . S
C288 H302 0.960 . S
C289 C286 1.511 . S
C289 H303 0.961 . S
C289 H304 0.961 . S
C289 H305 0.961 . S
C290 C291 1.370 . S
C290 C292 1.363 . S
C290 H306 0.931 . S
C291 C290 1.370 . S
C291 C295 1.408 . S
C292 C290 1.363 . S
C292 C293 1.370 . S
C292 C296 1.524 . S
C293 C285 1.503 . S
C293 C292 1.370 . S
C293 C294 1.403 . S
C294 C293 1.403 . S
C294 C295 1.404 . S
C294 C297 1.539 . S
C295 C291 1.408 . S
C295 C294 1.404 . S
C295 H307 0.930 . S
C296 C292 1.524 . S
C296 H308 0.956 . S
C296 H309 0.961 . S
C296 H310 0.961 . S
C297 C294 1.539 . S
C297 H311 0.958 . S
C297 H312 0.961 . S
C297 H313 0.960 . S
H298 C282 0.931 . S
H299 C287 0.929 . S
H300 C288 0.960 . S
H301 C288 0.962 . S
H302 C288 0.960 . S
H303 C289 0.961 . S
H304 C289 0.961 . S
H305 C289 0.961 . S
H306 C290 0.931 . S
H307 C295 0.930 . S
H308 C296 0.956 . S
H309 C296 0.961 . S
H310 C296 0.961 . S
H311 C297 0.958 . S
H312 C297 0.961 . S
H313 C297 0.960 . S
C314 C315 1.391 . S
C314 C316 1.394 . S
C314 H330 0.931 . S
C315 C314 1.391 . S
C315 C319 1.376 . S
C316 C314 1.394 . S
C316 C317 1.369 . S
C316 C320 1.531 . S
C317 C316 1.369 . S
C317 C318 1.410 . S
C317 C325 1.503 . S
C318 C317 1.410 . S
C318 C319 1.392 . S
C318 C321 1.511 . S
C319 C315 1.376 . S
C319 C318 1.392 . S
C319 H331 0.929 . S
C320 C316 1.531 . S
C320 H332 0.960 . S
C320 H333 0.962 . S
C320 H334 0.960 . S
C321 C318 1.511 . S
C321 H335 0.961 . S
C321 H336 0.961 . S
C321 H337 0.961 . S
C322 C323 1.370 . S
C322 C324 1.363 . S
C322 H338 0.931 . S
C323 C322 1.370 . S
C323 C327 1.408 . S
C324 C322 1.363 . S
C324 C325 1.370 . S
C324 C328 1.524 . S
C325 C317 1.503 . S
C325 C324 1.370 . S
C325 C326 1.403 . S
C326 C325 1.403 . S
C326 C327 1.404 . S
C326 C329 1.539 . S
C327 C323 1.408 . S
C327 C326 1.404 . S
C327 H339 0.930 . S
C328 C324 1.524 . S
C328 H340 0.956 . S
C328 H341 0.961 . S
C328 H342 0.961 . S
C329 C326 1.539 . S
C329 H343 0.958 . S
C329 H344 0.961 . S
C329 H345 0.960 . S
H330 C314 0.931 . S
H331 C319 0.929 . S
H332 C320 0.960 . S
H333 C320 0.962 . S
H334 C320 0.960 . S
H335 C321 0.961 . S
H336 C321 0.961 . S
H337 C321 0.961 . S
H338 C322 0.931 . S
H339 C327 0.930 . S
H340 C328 0.956 . S
H341 C328 0.961 . S
H342 C328 0.961 . S
H343 C329 0.958 . S
H344 C329 0.961 . S
H345 C329 0.960 . S
C346 C347 1.391 . S
C346 C348 1.394 . S
C346 H362 0.931 . S
C347 C346 1.391 . S
C347 C351 1.376 . S
C348 C346 1.394 . S
C348 C349 1.369 . S
C348 C352 1.531 . S
C349 C348 1.369 . S
C349 C350 1.410 . S
C349 C357 1.503 . S
C350 C349 1.410 . S
C350 C351 1.392 . S
C350 C353 1.511 . S
C351 C347 1.376 . S
C351 C350 1.392 . S
C351 H363 0.929 . S
C352 C348 1.531 . S
C352 H364 0.960 . S
C352 H365 0.962 . S
C352 H366 0.960 . S
C353 C350 1.511 . S
C353 H367 0.961 . S
C353 H368 0.961 . S
C353 H369 0.961 . S
C354 C355 1.370 . S
C354 C356 1.363 . S
C354 H370 0.931 . S
C355 C354 1.370 . S
C355 C359 1.408 . S
C356 C354 1.363 . S
C356 C357 1.370 . S
C356 C360 1.524 . S
C357 C349 1.503 . S
C357 C356 1.370 . S
C357 C358 1.403 . S
C358 C357 1.403 . S
C358 C359 1.404 . S
C358 C361 1.539 . S
C359 C355 1.408 . S
C359 C358 1.404 . S
C359 H371 0.930 . S
C360 C356 1.524 . S
C360 H372 0.956 . S
C360 H373 0.961 . S
C360 H374 0.961 . S
C361 C358 1.539 . S
C361 H375 0.958 . S
C361 H376 0.961 . S
C361 H377 0.960 . S
H362 C346 0.931 . S
H363 C351 0.929 . S
H364 C352 0.960 . S
H365 C352 0.962 . S
H366 C352 0.960 . S
H367 C353 0.961 . S
H368 C353 0.961 . S
H369 C353 0.961 . S
H370 C354 0.931 . S
H371 C359 0.930 . S
H372 C360 0.956 . S
H373 C360 0.961 . S
H374 C360 0.961 . S
H375 C361 0.958 . S
H376 C361 0.961 . S
H377 C361 0.960 . S
C378 C379 1.391 . S
C378 C380 1.394 . S
C378 H394 0.931 . S
C379 C378 1.391 . S
C379 C383 1.376 . S
C380 C378 1.394 . S
C380 C381 1.369 . S
C380 C384 1.531 . S
C381 C380 1.369 . S
C381 C382 1.410 . S
C381 C389 1.503 . S
C382 C381 1.410 . S
C382 C383 1.392 . S
C382 C385 1.511 . S
C383 C379 1.376 . S
C383 C382 1.392 . S
C383 H395 0.929 . S
C384 C380 1.531 . S
C384 H396 0.960 . S
C384 H397 0.962 . S
C384 H398 0.960 . S
C385 C382 1.511 . S
C385 H399 0.961 . S
C385 H400 0.961 . S
C385 H401 0.961 . S
C386 C387 1.370 . S
C386 C388 1.363 . S
C386 H402 0.931 . S
C387 C386 1.370 . S
C387 C391 1.408 . S
C388 C386 1.363 . S
C388 C389 1.370 . S
C388 C392 1.524 . S
C389 C381 1.503 . S
C389 C388 1.370 . S
C389 C390 1.403 . S
C390 C389 1.403 . S
C390 C391 1.404 . S
C390 C393 1.539 . S
C391 C387 1.408 . S
C391 C390 1.404 . S
C391 H403 0.930 . S
C392 C388 1.524 . S
C392 H404 0.956 . S
C392 H405 0.961 . S
C392 H406 0.961 . S
C393 C390 1.539 . S
C393 H407 0.958 . S
C393 H408 0.961 . S
C393 H409 0.960 . S
H394 C378 0.931 . S
H395 C383 0.929 . S
H396 C384 0.960 . S
H397 C384 0.962 . S
H398 C384 0.960 . S
H399 C385 0.961 . S
H400 C385 0.961 . S
H401 C385 0.961 . S
H402 C386 0.931 . S
H403 C391 0.930 . S
H404 C392 0.956 . S
H405 C392 0.961 . S
H406 C392 0.961 . S
H407 C393 0.958 . S
H408 C393 0.961 . S
H409 C393 0.960 . S
C410 C411 1.391 . S
C410 C412 1.394 . S
C410 H426 0.931 . S
C411 C410 1.391 . S
C411 C415 1.376 . S
C412 C410 1.394 . S
C412 C413 1.369 . S
C412 C416 1.531 . S
C413 C412 1.369 . S
C413 C414 1.410 . S
C413 C421 1.503 . S
C414 C413 1.410 . S
C414 C415 1.392 . S
C414 C417 1.511 . S
C415 C411 1.376 . S
C415 C414 1.392 . S
C415 H427 0.929 . S
C416 C412 1.531 . S
C416 H428 0.960 . S
C416 H429 0.962 . S
C416 H430 0.960 . S
C417 C414 1.511 . S
C417 H431 0.961 . S
C417 H432 0.961 . S
C417 H433 0.961 . S
C418 C419 1.370 . S
C418 C420 1.363 . S
C418 H434 0.931 . S
C419 C418 1.370 . S
C419 C423 1.408 . S
C420 C418 1.363 . S
C420 C421 1.370 . S
C420 C424 1.524 . S
C421 C413 1.503 . S
C421 C420 1.370 . S
C421 C422 1.403 . S
C422 C421 1.403 . S
C422 C423 1.404 . S
C422 C425 1.539 . S
C423 C419 1.408 . S
C423 C422 1.404 . S
C423 H435 0.930 . S
C424 C420 1.524 . S
C424 H436 0.956 . S
C424 H437 0.961 . S
C424 H438 0.961 . S
C425 C422 1.539 . S
C425 H439 0.958 . S
C425 H440 0.961 . S
C425 H441 0.960 . S
H426 C410 0.931 . S
H427 C415 0.929 . S
H428 C416 0.960 . S
H429 C416 0.962 . S
H430 C416 0.960 . S
H431 C417 0.961 . S
H432 C417 0.961 . S
H433 C417 0.961 . S
H434 C418 0.931 . S
H435 C423 0.930 . S
H436 C424 0.956 . S
H437 C424 0.961 . S
H438 C424 0.961 . S
H439 C425 0.958 . S
H440 C425 0.961 . S
H441 C425 0.960 . S
C442 C443 1.391 . S
C442 C444 1.394 . S
C442 H458 0.931 . S
C443 C442 1.391 . S
C443 C447 1.376 . S
C444 C442 1.394 . S
C444 C445 1.369 . S
C444 C448 1.531 . S
C445 C444 1.369 . S
C445 C446 1.410 . S
C445 C453 1.503 . S
C446 C445 1.410 . S
C446 C447 1.392 . S
C446 C449 1.511 . S
C447 C443 1.376 . S
C447 C446 1.392 . S
C447 H459 0.929 . S
C448 C444 1.531 . S
C448 H460 0.960 . S
C448 H461 0.962 . S
C448 H462 0.960 . S
C449 C446 1.511 . S
C449 H463 0.961 . S
C449 H464 0.961 . S
C449 H465 0.961 . S
C450 C451 1.370 . S
C450 C452 1.363 . S
C450 H466 0.931 . S
C451 C450 1.370 . S
C451 C455 1.408 . S
C452 C450 1.363 . S
C452 C453 1.370 . S
C452 C456 1.524 . S
C453 C445 1.503 . S
C453 C452 1.370 . S
C453 C454 1.403 . S
C454 C453 1.403 . S
C454 C455 1.404 . S
C454 C457 1.539 . S
C455 C451 1.408 . S
C455 C454 1.404 . S
C455 H467 0.930 . S
C456 C452 1.524 . S
C456 H468 0.956 . S
C456 H469 0.961 . S
C456 H470 0.961 . S
C457 C454 1.539 . S
C457 H471 0.958 . S
C457 H472 0.961 . S
C457 H473 0.960 . S
H458 C442 0.931 . S
H459 C447 0.929 . S
H460 C448 0.960 . S
H461 C448 0.962 . S
H462 C448 0.960 . S
H463 C449 0.961 . S
H464 C449 0.961 . S
H465 C449 0.961 . S
H466 C450 0.931 . S
H467 C455 0.930 . S
H468 C456 0.956 . S
H469 C456 0.961 . S
H470 C456 0.961 . S
H471 C457 0.958 . S
H472 C457 0.961 . S
H473 C457 0.960 . S
C474 C475 1.391 . S
C474 C476 1.394 . S
C474 H490 0.931 . S
C475 C474 1.391 . S
C475 C479 1.376 . S
C476 C474 1.394 . S
C476 C477 1.369 . S
C476 C480 1.531 . S
C477 C476 1.369 . S
C477 C478 1.410 . S
C477 C485 1.503 . S
C478 C477 1.410 . S
C478 C479 1.392 . S
C478 C481 1.511 . S
C479 C475 1.376 . S
C479 C478 1.392 . S
C479 H491 0.929 . S
C480 C476 1.531 . S
C480 H492 0.960 . S
C480 H493 0.962 . S
C480 H494 0.960 . S
C481 C478 1.511 . S
C481 H495 0.961 . S
C481 H496 0.961 . S
C481 H497 0.961 . S
C482 C483 1.370 . S
C482 C484 1.363 . S
C482 H498 0.931 . S
C483 C482 1.370 . S
C483 C487 1.408 . S
C484 C482 1.363 . S
C484 C485 1.370 . S
C484 C488 1.524 . S
C485 C477 1.503 . S
C485 C484 1.370 . S
C485 C486 1.403 . S
C486 C485 1.403 . S
C486 C487 1.404 . S
C486 C489 1.539 . S
C487 C483 1.408 . S
C487 C486 1.404 . S
C487 H499 0.930 . S
C488 C484 1.524 . S
C488 H500 0.956 . S
C488 H501 0.961 . S
C488 H502 0.961 . S
C489 C486 1.539 . S
C489 H503 0.958 . S
C489 H504 0.961 . S
C489 H505 0.960 . S
H490 C474 0.931 . S
H491 C479 0.929 . S
H492 C480 0.960 . S
H493 C480 0.962 . S
H494 C480 0.960 . S
H495 C481 0.961 . S
H496 C481 0.961 . S
H497 C481 0.961 . S
H498 C482 0.931 . S
H499 C487 0.930 . S
H500 C488 0.956 . S
H501 C488 0.961 . S
H502 C488 0.961 . S
H503 C489 0.958 . S
H504 C489 0.961 . S
H505 C489 0.960 . S
C506 C507 1.391 . S
C506 C508 1.394 . S
C506 H522 0.931 . S
C507 C506 1.391 . S
C507 C511 1.376 . S
C508 C506 1.394 . S
C508 C509 1.369 . S
C508 C512 1.531 . S
C509 C508 1.369 . S
C509 C510 1.410 . S
C509 C517 1.503 . S
C510 C509 1.410 . S
C510 C511 1.392 . S
C510 C513 1.511 . S
C511 C507 1.376 . S
C511 C510 1.392 . S
C511 H523 0.929 . S
C512 C508 1.531 . S
C512 H524 0.960 . S
C512 H525 0.962 . S
C512 H526 0.960 . S
C513 C510 1.511 . S
C513 H527 0.961 . S
C513 H528 0.961 . S
C513 H529 0.961 . S
C514 C515 1.370 . S
C514 C516 1.363 . S
C514 H530 0.931 . S
C515 C514 1.370 . S
C515 C519 1.408 . S
C516 C514 1.363 . S
C516 C517 1.370 . S
C516 C520 1.524 . S
C517 C509 1.503 . S
C517 C516 1.370 . S
C517 C518 1.403 . S
C518 C517 1.403 . S
C518 C519 1.404 . S
C518 C521 1.539 . S
C519 C515 1.408 . S
C519 C518 1.404 . S
C519 H531 0.930 . S
C520 C516 1.524 . S
C520 H532 0.956 . S
C520 H533 0.961 . S
C520 H534 0.961 . S
C521 C518 1.539 . S
C521 H535 0.958 . S
C521 H536 0.961 . S
C521 H537 0.960 . S
H522 C506 0.931 . S
H523 C511 0.929 . S
H524 C512 0.960 . S
H525 C512 0.962 . S
H526 C512 0.960 . S
H527 C513 0.961 . S
H528 C513 0.961 . S
H529 C513 0.961 . S
H530 C514 0.931 . S
H531 C519 0.930 . S
H532 C520 0.956 . S
H533 C520 0.961 . S
H534 C520 0.961 . S
H535 C521 0.958 . S
H536 C521 0.961 . S
H537 C521 0.960 . S
C538 C539 1.391 . S
C538 C540 1.394 . S
C538 H554 0.931 . S
C539 C538 1.391 . S
C539 C543 1.376 . S
C540 C538 1.394 . S
C540 C541 1.369 . S
C540 C544 1.531 . S
C541 C540 1.369 . S
C541 C542 1.410 . S
C541 C549 1.503 . S
C542 C541 1.410 . S
C542 C543 1.392 . S
C542 C545 1.511 . S
C543 C539 1.376 . S
C543 C542 1.392 . S
C543 H555 0.929 . S
C544 C540 1.531 . S
C544 H556 0.960 . S
C544 H557 0.962 . S
C544 H558 0.960 . S
C545 C542 1.511 . S
C545 H559 0.961 . S
C545 H560 0.961 . S
C545 H561 0.961 . S
C546 C547 1.370 . S
C546 C548 1.363 . S
C546 H562 0.931 . S
C547 C546 1.370 . S
C547 C551 1.408 . S
C548 C546 1.363 . S
C548 C549 1.370 . S
C548 C552 1.524 . S
C549 C541 1.503 . S
C549 C548 1.370 . S
C549 C550 1.403 . S
C550 C549 1.403 . S
C550 C551 1.404 . S
C550 C553 1.539 . S
C551 C547 1.408 . S
C551 C550 1.404 . S
C551 H563 0.930 . S
C552 C548 1.524 . S
C552 H564 0.956 . S
C552 H565 0.961 . S
C552 H566 0.961 . S
C553 C550 1.539 . S
C553 H567 0.958 . S
C553 H568 0.961 . S
C553 H569 0.960 . S
H554 C538 0.931 . S
H555 C543 0.929 . S
H556 C544 0.960 . S
H557 C544 0.962 . S
H558 C544 0.960 . S
H559 C545 0.961 . S
H560 C545 0.961 . S
H561 C545 0.961 . S
H562 C546 0.931 . S
H563 C551 0.930 . S
H564 C552 0.956 . S
H565 C552 0.961 . S
H566 C552 0.961 . S
H567 C553 0.958 . S
H568 C553 0.961 . S
H569 C553 0.960 . S
C570 C571 1.391 . S
C570 C572 1.394 . S
C570 H586 0.931 . S
C571 C570 1.391 . S
C571 C575 1.376 1_455 S
C572 C570 1.394 . S
C572 C573 1.369 . S
C572 C576 1.531 . S
C573 C572 1.369 . S
C573 C574 1.410 1_455 S
C573 C581 1.503 . S
C574 C573 1.410 1_655 S
C574 C575 1.392 . S
C574 C577 1.511 . S
C575 C571 1.376 1_655 S
C575 C574 1.392 . S
C575 H587 0.929 . S
C576 C572 1.531 . S
C576 H588 0.960 . S
C576 H589 0.962 . S
C576 H590 0.960 . S
C577 C574 1.511 . S
C577 H591 0.961 . S
C577 H592 0.961 . S
C577 H593 0.961 . S
C578 C579 1.370 . S
C578 C580 1.327 1_556 S
C578 H594 0.931 . S
C579 C578 1.370 . S
C579 C583 1.408 1_455 S
C580 C578 1.327 1_554 S
C580 C581 1.384 . S
C580 C584 1.547 . S
C581 C573 1.503 . S
C581 C580 1.384 . S
C581 C582 1.403 1_454 S
C582 C581 1.403 1_656 S
C582 C583 1.404 . S
C582 C585 1.539 . S
C583 C579 1.408 1_655 S
C583 C582 1.404 . S
C583 H595 0.930 . S
C584 C580 1.547 . S
C584 H596 0.956 . S
C584 H597 0.961 . S
C584 H598 0.961 . S
C585 C582 1.539 . S
C585 H599 0.962 . S
C585 H600 0.961 . S
C585 H601 0.960 1_556 S
H586 C570 0.931 . S
H587 C575 0.929 . S
H588 C576 0.960 . S
H589 C576 0.962 . S
H590 C576 0.960 . S
H591 C577 0.961 . S
H592 C577 0.961 . S
H593 C577 0.961 . S
H594 C578 0.931 . S
H595 C583 0.930 . S
H596 C584 0.956 . S
H597 C584 0.961 . S
H598 C584 0.961 . S
H599 C585 0.962 . S
H600 C585 0.961 . S
H601 C585 0.960 1_554 S
C602 C603 1.396 . S
C602 C604 1.395 1_545 S
C602 H618 0.924 1_545 S
C603 C602 1.396 . S
C603 C607 1.376 . S
C604 C602 1.395 1_565 S
C604 C605 1.370 1_565 S
C604 C608 1.530 . S
C605 C604 1.370 1_545 S
C605 C606 1.410 . S
C605 C613 1.503 . S
C606 C605 1.410 . S
C606 C607 1.392 . S
C606 C609 1.511 . S
C607 C603 1.376 . S
C607 C606 1.392 . S
C607 H619 0.929 . S
C608 C604 1.530 . S
C608 H620 0.960 . S
C608 H621 0.962 1_565 S
C608 H622 0.960 . S
C609 C606 1.511 . S
C609 H623 0.961 . S
C609 H624 0.961 . S
C609 H625 0.961 1_545 S
C610 C611 1.370 . S
C610 C612 1.363 . S
C610 H626 0.931 . S
C611 C610 1.370 . S
C611 C615 1.408 1_545 S
C612 C610 1.363 . S
C612 C613 1.370 . S
C612 C616 1.524 . S
C613 C605 1.503 . S
C613 C612 1.370 . S
C613 C614 1.403 1_545 S
C614 C613 1.403 1_565 S
C614 C615 1.404 . S
C614 C617 1.539 . S
C615 C611 1.408 1_565 S
C615 C614 1.404 . S
C615 H627 0.930 . S
C616 C612 1.524 . S
C616 H628 0.956 . S
C616 H629 0.961 . S
C616 H630 0.961 . S
C617 C614 1.539 . S
C617 H631 0.958 . S
C617 H632 0.961 . S
C617 H633 0.960 . S
H618 C602 0.924 1_565 S
H619 C607 0.929 . S
H620 C608 0.960 . S
H621 C608 0.962 1_545 S
H622 C608 0.960 . S
H623 C609 0.961 . S
H624 C609 0.961 . S
H625 C609 0.961 1_565 S
H626 C610 0.931 . S
H627 C615 0.930 . S
H628 C616 0.956 . S
H629 C616 0.961 . S
H630 C616 0.961 . S
H631 C617 0.958 . S
H632 C617 0.961 . S
H633 C617 0.960 . S
C634 C635 1.391 . S
C634 C636 1.394 . S
C634 H650 0.931 . S
C635 C634 1.391 . S
C635 C639 1.376 . S
C636 C634 1.394 . S
C636 C637 1.369 . S
C636 C640 1.531 . S
C637 C636 1.369 . S
C637 C638 1.410 . S
C637 C645 1.503 . S
C638 C637 1.410 . S
C638 C639 1.392 . S
C638 C641 1.511 . S
C639 C635 1.376 . S
C639 C638 1.392 . S
C639 H651 0.929 . S
C640 C636 1.531 . S
C640 H652 0.960 . S
C640 H653 0.962 . S
C640 H654 0.960 . S
C641 C638 1.511 . S
C641 H655 0.961 . S
C641 H656 0.961 . S
C641 H657 0.961 . S
C642 C643 1.370 . S
C642 C644 1.363 . S
C642 H658 0.931 . S
C643 C642 1.370 . S
C643 C647 1.408 . S
C644 C642 1.363 . S
C644 C645 1.370 . S
C644 C648 1.524 . S
C645 C637 1.503 . S
C645 C644 1.370 . S
C645 C646 1.403 . S
C646 C645 1.403 . S
C646 C647 1.404 . S
C646 C649 1.539 . S
C647 C643 1.408 . S
C647 C646 1.404 . S
C647 H659 0.930 . S
C648 C644 1.524 . S
C648 H660 0.956 . S
C648 H661 0.961 . S
C648 H662 0.961 . S
C649 C646 1.539 . S
C649 H663 0.958 . S
C649 H664 0.961 . S
C649 H665 0.960 . S
H650 C634 0.931 . S
H651 C639 0.929 . S
H652 C640 0.960 . S
H653 C640 0.962 . S
H654 C640 0.960 . S
H655 C641 0.961 . S
H656 C641 0.961 . S
H657 C641 0.961 . S
H658 C642 0.931 . S
H659 C647 0.930 . S
H660 C648 0.956 . S
H661 C648 0.961 . S
H662 C648 0.961 . S
H663 C649 0.958 . S
H664 C649 0.961 . S
H665 C649 0.960 . S
C666 C667 1.391 1_565 S
C666 C668 1.394 . S
C666 H682 0.931 . S
C667 C666 1.391 1_545 S
C667 C671 1.376 . S
C668 C666 1.394 . S
C668 C669 1.369 1_565 S
C668 C672 1.531 . S
C669 C668 1.369 1_545 S
C669 C670 1.410 . S
C669 C677 1.503 . S
C670 C669 1.410 . S
C670 C671 1.392 . S
C670 C673 1.511 . S
C671 C667 1.376 . S
C671 C670 1.392 . S
C671 H683 0.929 . S
C672 C668 1.531 . S
C672 H684 0.960 . S
C672 H685 0.962 . S
C672 H686 0.960 . S
C673 C670 1.511 . S
C673 H687 0.961 . S
C673 H688 0.961 . S
C673 H689 0.961 . S
C674 C675 1.370 . S
C674 C676 1.363 . S
C674 H690 0.931 1_545 S
C675 C674 1.370 . S
C675 C679 1.408 . S
C676 C674 1.363 . S
C676 C677 1.370 . S
C676 C680 1.524 1_545 S
C677 C669 1.503 . S
C677 C676 1.370 . S
C677 C678 1.403 . S
C678 C677 1.403 . S
C678 C679 1.404 . S
C678 C681 1.539 . S
C679 C675 1.408 . S
C679 C678 1.404 . S
C679 H691 0.930 . S
C680 C676 1.524 1_565 S
C680 H692 0.956 . S
C680 H693 0.961 . S
C680 H694 0.961 . S
C681 C678 1.539 . S
C681 H695 0.958 . S
C681 H696 0.961 . S
C681 H697 0.960 . S
H682 C666 0.931 . S
H683 C671 0.929 . S
H684 C672 0.960 . S
H685 C672 0.962 . S
H686 C672 0.960 . S
H687 C673 0.961 . S
H688 C673 0.961 . S
H689 C673 0.961 . S
H690 C674 0.931 1_565 S
H691 C679 0.930 . S
H692 C680 0.956 . S
H693 C680 0.961 . S
H694 C680 0.961 . S
H695 C681 0.958 . S
H696 C681 0.961 . S
H697 C681 0.960 . S
C698 C699 1.391 . S
C698 C700 1.394 . S
C698 H714 0.931 . S
C699 C698 1.391 . S
C699 C703 1.376 . S
C700 C698 1.394 . S
C700 C701 1.369 . S
C700 C704 1.531 . S
C701 C700 1.369 . S
C701 C702 1.410 . S
C701 C709 1.503 . S
C702 C701 1.410 . S
C702 C703 1.392 . S
C702 C705 1.511 . S
C703 C699 1.376 . S
C703 C702 1.392 . S
C703 H715 0.929 . S
C704 C700 1.531 . S
C704 H716 0.960 . S
C704 H717 0.962 . S
C704 H718 0.960 . S
C705 C702 1.511 . S
C705 H719 0.961 . S
C705 H720 0.961 . S
C705 H721 0.961 . S
C706 C707 1.370 . S
C706 C708 1.363 . S
C706 H722 0.931 . S
C707 C706 1.370 . S
C707 C711 1.408 . S
C708 C706 1.363 . S
C708 C709 1.370 1_554 S
C708 C712 1.524 1_554 S
C709 C701 1.503 . S
C709 C708 1.370 1_556 S
C709 C710 1.403 1_556 S
C710 C709 1.403 1_554 S
C710 C711 1.404 . S
C710 C713 1.539 1_554 S
C711 C707 1.408 . S
C711 C710 1.404 . S
C711 H723 0.930 . S
C712 C708 1.524 1_556 S
C712 H724 0.956 . S
C712 H725 0.961 . S
C712 H726 0.961 1_556 S
C713 C710 1.539 1_556 S
C713 H727 0.958 . S
C713 H728 0.948 1_556 S
C713 H729 0.960 . S
H714 C698 0.931 . S
H715 C703 0.929 . S
H716 C704 0.960 . S
H717 C704 0.962 . S
H718 C704 0.960 . S
H719 C705 0.961 . S
H720 C705 0.961 . S
H721 C705 0.961 . S
H722 C706 0.931 . S
H723 C711 0.930 . S
H724 C712 0.956 . S
H725 C712 0.961 . S
H726 C712 0.961 1_554 S
H727 C713 0.958 . S
H728 C713 0.948 1_554 S
H729 C713 0.960 . S
C730 C731 1.391 1_455 S
C730 C732 1.394 . S
C730 H746 0.931 . S
C731 C730 1.391 1_655 S
C731 C735 1.376 . S
C732 C730 1.394 . S
C732 C733 1.369 . S
C732 C736 1.531 . S
C733 C732 1.369 . S
C733 C734 1.410 1_455 S
C733 C741 1.503 . S
C734 C733 1.410 1_655 S
C734 C735 1.392 . S
C734 C737 1.511 . S
C735 C731 1.376 . S
C735 C734 1.392 . S
C735 H747 0.929 . S
C736 C732 1.531 . S
C736 H748 0.960 . S
C736 H749 0.962 . S
C736 H750 0.960 . S
C737 C734 1.511 . S
C737 H751 0.961 . S
C737 H752 0.961 . S
C737 H753 0.961 . S
C738 C739 1.370 . S
C738 C740 1.363 . S
C738 H754 0.931 . S
C739 C738 1.370 . S
C739 C743 1.408 1_655 S
C740 C738 1.363 . S
C740 C741 1.370 1_655 S
C740 C744 1.524 . S
C741 C733 1.503 . S
C741 C740 1.370 1_455 S
C741 C742 1.403 . S
C742 C741 1.403 . S
C742 C743 1.404 . S
C742 C745 1.539 . S
C743 C739 1.408 1_455 S
C743 C742 1.404 . S
C743 H755 0.930 . S
C744 C740 1.524 . S
C744 H756 0.956 . S
C744 H757 0.961 . S
C744 H758 0.961 . S
C745 C742 1.539 . S
C745 H759 0.958 . S
C745 H760 0.961 . S
C745 H761 0.960 . S
H746 C730 0.931 . S
H747 C735 0.929 . S
H748 C736 0.960 . S
H749 C736 0.962 . S
H750 C736 0.960 . S
H751 C737 0.961 . S
H752 C737 0.961 . S
H753 C737 0.961 . S
H754 C738 0.931 . S
H755 C743 0.930 . S
H756 C744 0.956 . S
H757 C744 0.961 . S
H758 C744 0.961 . S
H759 C745 0.958 . S
H760 C745 0.961 . S
H761 C745 0.960 . S
C187 C12 3.128 . S
C195 C180 2.779 . S
C219 C52 3.131 . S
C227 C158 2.792 . S
C251 C111 2.865 . S
C259 C172 2.798 . S
C283 C31 2.983 . S
C291 C183 2.914 . S
C323 C161 2.911 . S
C315 C71 2.982 . S
C355 C169 2.870 . S
C347 C92 3.222 . S
C379 C48 0.491 . S
C387 C136 0.769 . S
C411 C109 0.563 . S
C419 C147 0.753 . S
C443 C29 0.511 . S
C451 C125 0.664 . S
C483 C139 0.320 . S
C475 C69 0.220 . S
C515 C150 0.337 . S
C507 C88 0.239 . S
C539 C8 0.254 . S
C547 C128 0.320 . S
C579 C149 1.166 . S
C571 C17 1.171 1_455 S
C603 C57 1.192 . S
C611 C127 1.180 . S
C635 C97 1.249 . S
C643 C138 1.193 . S
C675 C171 1.658 . S
C667 C42 1.681 . S
C707 C182 1.680 . S
C699 C82 1.732 . S
C731 C2 1.693 1_655 S
C739 C160 1.658 1_655 S
