# Generated by pormake.
# Topology pth, (4,4)-cn, num edge types: 1
# Building blocks:
#     Node 0, Type 0, BuildingBlock: CEKHIL_clean_sbu_0, # of connection points: 4
#     Node 1, Type 0, BuildingBlock: CEKHIL_clean_sbu_0, # of connection points: 4
#     Node 2, Type 0, BuildingBlock: CEKHIL_clean_sbu_0, # of connection points: 4
#     Node 3, Type 1, BuildingBlock: MUDLON_clean_sbu_0, # of connection points: 4
#     Node 4, Type 1, BuildingBlock: MUDLON_clean_sbu_0, # of connection points: 4
#     Node 5, Type 1, BuildingBlock: MUDLON_clean_sbu_0, # of connection points: 4
#     Edge 6, Type (0, 1), BuildingBlock: ZUJKAS_clean_linker_0, # of connection points: 2
#     Edge 7, Type (0, 1), BuildingBlock: ZUJKAS_clean_linker_0, # of connection points: 2
#     Edge 8, Type (0, 1), BuildingBlock: ZUJKAS_clean_linker_0, # of connection points: 2
#     Edge 9, Type (0, 1), BuildingBlock: ZUJKAS_clean_linker_0, # of connection points: 2
#     Edge 10, Type (0, 1), BuildingBlock: ZUJKAS_clean_linker_0, # of connection points: 2
#     Edge 11, Type (0, 1), BuildingBlock: ZUJKAS_clean_linker_0, # of connection points: 2
#     Edge 12, Type (0, 1), BuildingBlock: ZUJKAS_clean_linker_0, # of connection points: 2
#     Edge 13, Type (0, 1), BuildingBlock: ZUJKAS_clean_linker_0, # of connection points: 2
#     Edge 14, Type (0, 1), BuildingBlock: ZUJKAS_clean_linker_0, # of connection points: 2
#     Edge 15, Type (0, 1), BuildingBlock: ZUJKAS_clean_linker_0, # of connection points: 2
#     Edge 16, Type (0, 1), BuildingBlock: ZUJKAS_clean_linker_0, # of connection points: 2
#     Edge 17, Type (0, 1), BuildingBlock: ZUJKAS_clean_linker_0, # of connection points: 2
# Relax obj value: 0.014
# Max RMSD: 0.063
# Mean RMSD: 0.051
data_MOF--net-pth--node1-CEKHIL_clean_sbu_0--node2-MUDLON_clean_sbu_0--edge1-ZUJKAS_clean_linker_0
_symmetry_space_group_name_H-M    P1
_symmetry_Int_Tables_number       1
_symmetry_cell_setting            triclinic
loop_
_symmetry_equiv_pos_as_xyz
'x, y, z'
_cell_length_a     29.088123
_cell_length_b     29.151758
_cell_length_c     78.545781
_cell_angle_alpha  90.816244
_cell_angle_beta   89.911547
_cell_angle_gamma 120.27226
loop_
_atom_site_label
_atom_site_type_symbol
_atom_site_fract_x
_atom_site_fract_y
_atom_site_fract_z
_atom_type_partial_charge
Co0 Co 0.04486 0.06316 0.08988 0.0
O1 O 0.01033 0.00936 0.10699 0.0
O2 O 0.07961 0.02151 0.0919 0.0
C3 C 0.04771 0.12964 0.10613 0.0
O4 O 0.094 0.11524 0.07191 0.0
Co5 Co 0.99452 0.12477 0.0744 0.0
O6 O 0.06428 0.16879 0.06328 0.0
C7 C 0.95281 0.01208 0.0648 0.0
C8 C 0.04595 0.99598 0.10395 0.0
C9 C 0.09924 0.15472 0.06317 0.0
O10 O 0.99359 0.01317 0.07174 0.0
O11 O 0.9438 0.0507 0.06604 0.0
O12 O 0.08382 0.11624 0.10788 0.0
O13 O 0.01027 0.10121 0.09536 0.0
Co14 Co 0.03285 0.06637 0.41216 0.0
O15 O 0.99786 0.08645 0.39538 0.0
O16 O 0.06652 0.14307 0.41118 0.0
C17 C 0.03774 0.00569 0.39497 0.0
O18 O 0.08237 0.06269 0.42999 0.0
Co19 Co 0.98486 0.95216 0.42582 0.0
O20 O 0.05522 0.97823 0.4367 0.0
C21 C 0.94196 0.02045 0.43753 0.0
C22 C 0.0331 0.13549 0.39899 0.0
C23 C 0.08893 0.02774 0.4378 0.0
O24 O 0.9806 0.06144 0.43035 0.0
O25 O 0.93502 0.97361 0.43584 0.0
O26 O 0.073 0.05585 0.39392 0.0
O27 O 0.99979 0.99426 0.40561 0.0
Co28 Co 0.02001 0.04743 0.74381 0.0
O29 O 0.07629 0.08289 0.72734 0.0
O30 O 0.0603 0.01132 0.74146 0.0
C31 C 0.95618 0.04746 0.72717 0.0
O32 O 0.96548 0.99735 0.76109 0.0
Co33 Co 0.95709 0.09721 0.75937 0.0
O34 O 0.91266 0.02786 0.77037 0.0
C35 C 0.06735 0.13405 0.77115 0.0
C36 C 0.08782 0.04592 0.72993 0.0
C37 C 0.92618 0.99256 0.77007 0.0
O38 O 0.06834 0.09613 0.76273 0.0
O39 O 0.0287 0.14309 0.77014 0.0
O40 O 0.96882 0.01086 0.72522 0.0
O41 O 0.98364 0.08367 0.73845 0.0
Mg42 Mg 0.049 0.56825 0.2504 0.0
C43 C 0.05203 0.49045 0.27172 0.0
O44 O 1.003 0.47143 0.26621 0.0
C45 C 0.06148 0.65835 0.23109 0.0
O46 O 0.01456 0.63681 0.23833 0.0
C47 C 0.01263 0.50849 0.21652 0.0
O48 O 0.03953 0.55716 0.21083 0.0
O49 O 0.00449 0.50158 0.23247 0.0
O50 O 0.08763 0.53605 0.26655 0.0
O51 O 0.00737 0.59176 0.26883 0.0
C52 C 0.02913 0.60652 0.28349 0.0
O53 O 0.06989 0.60064 0.28711 0.0
O54 O 0.09122 0.63892 0.23429 0.0
Mg55 Mg 0.51918 0.05907 0.58233 0.0
C56 C 0.50818 0.11915 0.55285 0.0
O57 O 0.54375 0.10901 0.5463 0.0
C58 C 0.57808 0.05839 0.61216 0.0
O59 O 0.53539 0.01105 0.61094 0.0
C60 C 0.40455 0.00744 0.59603 0.0
O61 O 0.39476 0.02297 0.58155 0.0
O62 O 0.44973 0.01145 0.59835 0.0
O63 O 0.49622 0.10925 0.5685 0.0
O64 O 0.54342 0.02223 0.5623 0.0
C65 C 0.58398 0.01695 0.56425 0.0
O66 O 0.60571 0.02486 0.57943 0.0
O67 O 0.58438 0.09294 0.60118 0.0
Mg68 Mg 0.54921 0.53486 0.91763 0.0
C69 C 0.47373 0.46302 0.89348 0.0
O70 O 0.51009 0.44978 0.89623 0.0
C71 C 0.62679 0.62329 0.93799 0.0
O72 O 0.65081 0.59974 0.93107 0.0
C73 C 0.52976 0.47403 0.95085 0.0
O74 O 0.55872 0.52234 0.95714 0.0
O75 O 0.52536 0.46736 0.93473 0.0
O76 O 0.4773 0.5026 0.90181 0.0
O77 O 0.6137 0.56052 0.89873 0.0
C78 C 0.60512 0.57608 0.8846 0.0
O79 O 0.55855 0.57169 0.88192 0.0
O80 O 0.57786 0.60523 0.93429 0.0
H81 H 0.11193 0.18553 0.13329 0.0
H82 H 0.10216 0.247 0.15259 0.0
H83 H 0.96935 0.22795 0.12264 0.0
H84 H 0.97828 0.16611 0.10354 0.0
H85 H 0.10647 0.34186 0.14704 0.0
H86 H 0.9063 0.1937 0.17017 0.0
H87 H 0.94771 0.1752 0.15822 0.0
H88 H 0.90948 0.199 0.14741 0.0
C89 C 0.08085 0.1947 0.13078 0.0
C90 C 0.04566 0.17066 0.11695 0.0
C91 C 0.0752 0.2297 0.14184 0.0
C92 C 0.03419 0.24112 0.13931 0.0
C93 C 1.00033 0.21864 0.12514 0.0
H94 H 0.01833 0.50859 0.18185 0.0
H95 H 0.02042 0.4416 0.16335 0.0
C96 C 0.00582 0.18362 0.11414 0.0
C97 C 0.0271 0.27703 0.1513 0.0
H98 H 0.93645 0.28441 0.17728 0.0
C99 C 0.06939 0.32921 0.15371 0.0
C100 C 0.97897 0.2603 0.16024 0.0
C101 C 0.9332 0.20384 0.15904 0.0
C102 C 0.06443 0.36548 0.16442 0.0
C103 C 0.01545 0.3495 0.17272 0.0
C104 C 0.97365 0.29689 0.17071 0.0
C105 C 0.00735 0.38694 0.18363 0.0
C106 C 0.11203 0.42044 0.16692 0.0
C107 C 0.99591 0.37704 0.20103 0.0
C108 C 0.99395 0.41508 0.21165 0.0
C109 C 1.00344 0.46371 0.20503 0.0
C110 C 0.01137 0.47184 0.1874 0.0
C111 C 0.01304 0.43375 0.17682 0.0
H112 H 0.14977 0.42166 0.16359 0.0
H113 H 0.1079 0.44847 0.15853 0.0
H114 H 0.11492 0.43452 0.1803 0.0
H115 H 0.99082 0.34092 0.20653 0.0
H116 H 0.98782 0.40753 0.22516 0.0
H117 H 0.93777 0.11112 0.44597 0.0
H118 H 0.87398 0.11739 0.4651 0.0
H119 H 0.79635 0.94883 0.47359 0.0
H120 H 0.85806 0.94191 0.45454 0.0
H121 H 0.7246 0.98019 0.46832 0.0
H122 H 0.87457 0.1107 0.51686 0.0
H123 H 0.88524 0.13633 0.49565 0.0
H124 H 0.89019 0.07857 0.49988 0.0
C125 C 0.90701 0.07545 0.45189 0.0
C126 C 0.90352 0.02612 0.4487 0.0
C127 C 0.87073 0.07911 0.4629 0.0
C128 C 0.83064 0.03361 0.47097 0.0
C129 C 0.82677 0.9845 0.46755 0.0
H130 H 0.66185 0.99098 0.56416 0.0
H131 H 0.71851 0.99593 0.54046 0.0
C132 C 0.86252 0.98076 0.45661 0.0
C133 C 0.79263 0.03587 0.48322 0.0
H134 H 0.78494 0.08205 0.52273 0.0
C135 C 0.73775 1.00289 0.48016 0.0
C136 C 0.8098 0.06496 0.49875 0.0
C137 C 0.8681 0.09936 0.50314 0.0
C138 C 0.69973 0.99687 0.49236 0.0
C139 C 0.71691 0.02567 0.50795 0.0
C140 C 0.77172 0.05993 0.51079 0.0
C141 C 0.67924 0.01893 0.5219 0.0
C142 C 0.64177 0.95778 0.48873 0.0
C143 C 0.63737 0.02909 0.51936 0.0
C144 C 0.60417 0.02536 0.53289 0.0
C145 C 0.61283 0.01234 0.5493 0.0
C146 C 0.65398 1.00103 0.5517 0.0
C147 C 0.68668 0.00418 0.53816 0.0
H148 H 0.63668 0.9291 0.47841 0.0
H149 H 0.62132 0.93514 0.50029 0.0
H150 H 0.62184 0.97972 0.48459 0.0
H151 H 0.63135 0.04157 0.50705 0.0
H152 H 0.57332 0.03503 0.53064 0.0
H153 H 0.86521 0.98363 0.79762 0.0
H154 H 0.81905 0.90879 0.81662 0.0
H155 H 0.87303 0.81966 0.78685 0.0
H156 H 0.92156 0.89583 0.7681 0.0
H157 H 0.74019 0.81485 0.81099 0.0
H158 H 0.90847 0.79277 0.83332 0.0
H159 H 0.91827 0.84931 0.82133 0.0
H160 H 0.90069 0.78757 0.8106 0.0
C161 C 0.86752 0.94822 0.79509 0.0
C162 C 0.89715 0.94584 0.78128 0.0
C163 C 0.8411 0.90534 0.80603 0.0
C164 C 0.843 0.85855 0.80341 0.0
C165 C 0.87205 0.85569 0.7895 0.0
H166 H 0.59674 0.56964 0.85026 0.0
H167 H 0.65851 0.63389 0.82991 0.0
C168 C 0.89938 0.89913 0.77866 0.0
C169 C 0.81219 0.81241 0.81484 0.0
H170 H 0.82157 0.72449 0.84104 0.0
C171 C 0.7582 0.79527 0.81755 0.0
C172 C 0.83557 0.78704 0.82367 0.0
C173 C 0.89405 0.80541 0.82224 0.0
C174 C 0.72711 0.75405 0.82877 0.0
C175 C 0.74983 0.72725 0.83709 0.0
C176 C 0.80389 0.74438 0.83448 0.0
C177 C 0.71796 0.68246 0.84883 0.0
C178 C 0.67059 0.74099 0.832 0.0
C179 C 0.73274 0.68565 0.86606 0.0
C180 C 0.69801 0.64776 0.87768 0.0
C181 C 0.64788 0.60652 0.87223 0.0
C182 C 0.63509 0.60117 0.8548 0.0
C183 C 0.67012 0.63823 0.84319 0.0
H184 H 0.66474 0.77472 0.8288 0.0
H185 H 0.64304 0.70653 0.82387 0.0
H186 H 0.65946 0.73069 0.84552 0.0
H187 H 0.76964 0.71915 0.87071 0.0
H188 H 0.70858 0.65313 0.89107 0.0
H189 H 0.12014 0.96418 0.102 0.0
H190 H 0.13077 0.90442 0.12121 0.0
H191 H 0.99415 0.8814 0.14973 0.0
H192 H 0.98281 0.94011 0.13053 0.0
H193 H 0.14963 0.91486 0.1559 0.0
H194 H 0.96007 0.72985 0.1419 0.0
H195 H 0.98578 0.78714 0.12841 0.0
H196 H 0.9497 0.78383 0.14745 0.0
C197 C 0.09189 0.94575 0.11222 0.0
C198 C 0.05036 0.95666 0.11464 0.0
C199 C 0.09818 0.91177 0.12323 0.0
C200 C 0.06284 0.88772 0.1368 0.0
C201 C 0.02123 0.8984 0.13915 0.0
H202 H 0.01613 0.71902 0.22743 0.0
H203 H 0.02411 0.77523 0.20368 0.0
C204 C 0.01491 0.93224 0.12817 0.0
C205 C 0.07033 0.85323 0.14899 0.0
H206 H 1.00359 0.73258 0.16822 0.0
C207 C 0.11809 0.87464 0.15839 0.0
C208 C 0.02941 0.80055 0.15217 0.0
C209 C 0.9786 0.77378 0.14182 0.0
C210 C 0.12463 0.84592 0.17152 0.0
C211 C 0.0825 0.79447 0.17528 0.0
C212 C 0.03579 0.7722 0.16539 0.0
C213 C 0.08349 0.76489 0.19042 0.0
C214 C 0.17537 0.87154 0.18188 0.0
C215 C 0.11534 0.74126 0.19111 0.0
C216 C 0.11092 0.70875 0.20484 0.0
C217 C 0.07434 0.6993 0.21798 0.0
C218 C 0.04447 0.72509 0.21751 0.0
C219 C 0.0489 0.75729 0.2039 0.0
H220 H 0.2027 0.9134 0.17823 0.0
H221 H 0.16608 0.87054 0.19563 0.0
H222 H 0.19624 0.8488 0.18002 0.0
H223 H 0.14205 0.74631 0.18076 0.0
H224 H 0.13412 0.68911 0.20475 0.0
H225 H 0.17703 0.12793 0.44153 0.0
H226 H 0.25484 0.15523 0.46002 0.0
H227 H 0.18521 0.99521 0.47831 0.0
H228 H 0.1084 0.96741 0.45976 0.0
H229 H 0.26445 0.15297 0.49477 0.0
H230 H 0.33072 0.02462 0.46389 0.0
H231 H 0.28141 0.03664 0.45439 0.0
H232 H 0.26278 0.98748 0.47064 0.0
C233 C 0.17841 0.09848 0.44942 0.0
C234 C 0.13651 0.04529 0.44897 0.0
C235 C 0.2229 0.1142 0.46002 0.0
C236 C 0.22646 0.07708 0.47033 0.0
C237 C 0.1842 0.02433 0.47015 0.0
H238 H 0.4131 0.1136 0.56008 0.0
H239 H 0.34879 0.11159 0.53969 0.0
C240 C 0.14004 0.00854 0.45954 0.0
C241 C 0.27379 0.09308 0.48147 0.0
H242 H 0.36745 0.05984 0.49145 0.0
C243 C 0.28738 0.13304 0.49393 0.0
C244 C 0.30442 0.0678 0.48023 0.0
C245 C 0.29448 0.02716 0.46645 0.0
C246 C 0.32933 0.14686 0.50558 0.0
C247 C 0.35786 0.11931 0.50496 0.0
C248 C 0.34544 0.08076 0.49209 0.0
C249 C 0.39963 0.12822 0.51773 0.0
C250 C 0.3428 0.19105 0.51835 0.0
C251 C 0.45001 0.1386 0.51231 0.0
C252 C 0.48669 0.13913 0.52395 0.0
C253 C 0.47388 0.12926 0.54129 0.0
C254 C 0.42455 0.12178 0.54686 0.0
C255 C 0.38768 0.12084 0.53518 0.0
H256 H 0.33029 0.21896 0.51371 0.0
H257 H 0.32128 0.17378 0.53037 0.0
H258 H 0.38615 0.21379 0.52118 0.0
H259 H 0.46028 0.14442 0.49894 0.0
H260 H 0.52425 0.14505 0.5192 0.0
H261 H 0.16258 0.13659 0.77689 0.0
H262 H 0.2331 0.19391 0.79736 0.0
H263 H 0.14227 0.26702 0.81269 0.0
H264 H 0.07235 0.21078 0.79263 0.0
H265 H 0.29172 0.31088 0.79989 0.0
H266 H 0.17426 0.21587 0.85783 0.0
H267 H 0.15684 0.18382 0.8371 0.0
H268 H 0.14085 0.23426 0.8425 0.0
C269 C 0.15765 0.16483 0.78464 0.0
C270 C 0.1115 0.16868 0.7831 0.0
C271 C 0.19796 0.19756 0.7963 0.0
C272 C 0.19243 0.23411 0.80671 0.0
C273 C 0.14694 0.23849 0.80501 0.0
H274 H 0.38174 0.46563 0.88684 0.0
H275 H 0.31343 0.41294 0.86512 0.0
C276 C 0.10702 0.20626 0.7934 0.0
C277 C 0.23404 0.26847 0.81932 0.0
H278 H 0.25509 0.29756 0.86191 0.0
C279 C 0.28393 0.30776 0.81345 0.0
C280 C 0.22348 0.26469 0.83701 0.0
C281 C 0.17113 0.22213 0.84406 0.0
C282 C 0.32336 0.34385 0.8248 0.0
C283 C 0.3128 0.34 0.84249 0.0
C284 C 0.26288 0.30077 0.84834 0.0
C285 C 0.35442 0.37368 0.85519 0.0
C286 C 0.37575 0.38636 0.81777 0.0
C287 C 0.39955 0.36863 0.85688 0.0
C288 C 0.43802 0.39809 0.86924 0.0
C289 C 0.43239 0.43343 0.88026 0.0
C290 C 0.38728 0.43888 0.87852 0.0
C291 C 0.34831 0.40882 0.86615 0.0
H292 H 0.37246 0.39311 0.80405 0.0
H293 H 0.39046 0.42448 0.82488 0.0
H294 H 0.40578 0.37381 0.81911 0.0
H295 H 0.40466 0.34115 0.84878 0.0
H296 H 0.47226 0.39288 0.87015 0.0
H297 H 0.92934 0.12455 0.7277 0.0
H298 H 0.8685 0.13387 0.7086 0.0
H299 H 0.83231 0.98783 0.68275 0.0
H300 H 0.89426 0.97879 0.70166 0.0
H301 H 0.85195 0.06797 0.66044 0.0
H302 H 0.70727 0.05179 0.70948 0.0
H303 H 0.77452 0.10289 0.714 0.0
H304 H 0.75757 0.03441 0.71357 0.0
C305 C 0.90811 0.09409 0.71805 0.0
C306 C 0.91639 0.05071 0.71626 0.0
C307 C 0.87316 0.09944 0.70716 0.0
C308 C 0.84524 0.06122 0.69437 0.0
C309 C 0.85331 0.01775 0.69256 0.0
H310 H 0.56716 0.99481 0.63851 0.0
H311 H 0.63509 1.00191 0.65806 0.0
C312 C 0.8885 0.01247 0.70343 0.0
C313 C 0.80832 0.06708 0.68271 0.0
H314 H 0.6956 0.0759 0.68186 0.0
C315 C 0.81777 0.06978 0.6651 0.0
C316 C 0.76362 0.06924 0.68881 0.0
C317 C 0.74971 0.06394 0.70748 0.0
C318 C 0.7835 0.07403 0.65343 0.0
C319 C 0.73908 0.07668 0.65956 0.0
C320 C 0.73004 0.07461 0.67718 0.0
C321 C 0.69815 0.07549 0.64791 0.0
C322 C 0.79402 0.07359 0.63463 0.0
C323 C 0.71052 0.11525 0.63584 0.0
C324 C 0.67134 0.11122 0.62445 0.0
C325 C 0.61926 0.06742 0.62503 0.0
C326 C 0.60689 0.02894 0.63757 0.0
C327 C 0.64575 0.03295 0.64884 0.0
H328 H 0.82322 0.0605 0.63196 0.0
H329 H 0.7566 0.04692 0.62757 0.0
H330 H 0.81041 0.11431 0.62965 0.0
H331 H 0.75048 0.14905 0.6351 0.0
H332 H 0.68212 0.14153 0.61496 0.0
H333 H 0.84946 0.98067 0.05782 0.0
H334 H 0.78876 0.91097 0.03817 0.0
H335 H 0.90918 0.86987 0.02746 0.0
H336 H 0.97002 0.93906 0.04761 0.0
H337 H 0.80054 0.90597 1.00489 0.0
H338 H 0.78123 0.72494 0.03379 0.0
H339 H 0.81046 0.78782 0.0451 0.0
H340 H 0.84919 0.77461 0.03001 0.0
C341 C 0.86293 0.95635 0.05148 0.0
C342 C 0.91474 0.96556 0.05427 0.0
C343 C 0.82807 0.91647 0.04021 0.0
C344 C 0.84405 0.88479 0.03137 0.0
C345 C 0.89538 0.89296 0.03439 0.0
H346 H 0.73146 0.66974 0.94632 0.0
H347 H 0.7794 0.73302 0.96925 0.0
C348 C 0.93026 0.93265 0.04587 0.0
C349 C 0.80811 0.84593 0.01821 0.0
H350 H 0.74955 0.71605 1.00517 0.0
C351 C 0.78892 0.86431 1.00508 0.0
C352 C 0.79261 0.79146 0.01846 0.0
C353 C 0.80898 0.76837 0.03269 0.0
C354 C 0.75625 0.8302 0.99195 0.0
C355 C 0.74215 0.77622 0.99196 0.0
C356 C 0.76044 0.75754 1.00521 0.0
C357 C 0.71203 0.73936 0.97765 0.0
C358 C 0.73849 0.85241 0.97783 0.0
C359 C 0.65805 0.72224 0.9746 0.0
C360 C 0.63009 0.68559 0.96138 0.0
C361 C 0.65581 0.66561 0.95106 0.0
C362 C 0.71016 0.68399 0.95401 0.0
C363 C 0.73778 0.72019 0.96717 0.0
H364 H 0.75877 0.89646 0.97845 0.0
H365 H 0.74642 0.84012 0.96523 0.0
H366 H 0.69494 0.83629 0.97876 0.0
H367 H 0.63735 0.73635 0.98265 0.0
H368 H 0.58825 0.67203 0.9595 0.0
H369 H 0.97561 0.89843 0.39781 0.0
H370 H 0.97153 0.82951 0.37876 0.0
H371 H 0.09437 0.94977 0.34767 0.0
H372 H 0.09969 0.01904 0.36703 0.0
H373 H 0.94503 0.81107 0.34557 0.0
H374 H 0.15108 0.85058 0.35441 0.0
H375 H 0.12258 0.87982 0.36809 0.0
H376 H 0.14807 0.90743 0.34753 0.0
C377 C 1.00225 0.91025 0.38703 0.0
C378 C 0.03824 0.96421 0.38398 0.0
C379 C 0.9997 0.87076 0.3761 0.0
C380 C 0.03295 0.88427 0.36185 0.0
C381 C 0.06908 0.9382 0.35878 0.0
H382 H 0.98494 0.6679 0.27604 0.0
H383 H 0.98167 0.73403 0.29487 0.0
C384 C 0.072 0.9778 0.36982 0.0
C385 C 0.02865 0.84176 0.35008 0.0
H386 H 0.09961 0.7889 0.33261 0.0
C387 C 0.97882 0.80613 0.34275 0.0
C388 C 0.07257 0.83495 0.34652 0.0
C389 C 0.12647 0.86987 0.35467 0.0
C390 C 0.97171 0.76398 0.33201 0.0
C391 C 0.0159 0.75789 0.32818 0.0
C392 C 0.06573 0.79363 0.33547 0.0
C393 C 0.01158 0.71398 0.3171 0.0
C394 C 0.91666 0.72558 0.32527 0.0
C395 C 0.02897 0.68032 0.32329 0.0
C396 C 0.03141 0.64308 0.31253 0.0
C397 C 0.01622 0.63835 0.29533 0.0
C398 C 0.99614 0.67006 0.2893 0.0
C399 C 0.99429 0.70792 0.30007 0.0
H400 H 0.88535 0.72688 0.33303 0.0
H401 H 0.91302 0.7364 0.31206 0.0
H402 H 0.9091 0.68424 0.32505 0.0
H403 H 0.04232 0.68401 0.33638 0.0
H404 H 0.04704 0.61922 0.31756 0.0
H405 H 0.08941 0.95529 0.72205 0.0
H406 H 0.14385 0.94369 0.70063 0.0
H407 H 0.22809 0.11242 0.69167 0.0
H408 H 0.17117 0.12344 0.71231 0.0
H409 H 0.20412 0.06562 0.66317 0.0
H410 H 0.2885 0.96577 0.7003 0.0
H411 H 0.21727 0.92861 0.70077 0.0
H412 H 0.2526 0.99429 0.71025 0.0
C413 C 0.12023 0.99003 0.71573 0.0
C414 C 0.12618 0.04032 0.71891 0.0
C415 C 0.15169 0.98341 0.70352 0.0
C416 C 0.19104 0.02723 0.69461 0.0
C417 C 0.19814 0.07783 0.69828 0.0
H418 H 0.43156 0.02228 0.62978 0.0
H419 H 0.37831 0.02433 0.6535 0.0
C420 C 0.16576 0.08422 0.71016 0.0
C421 C 0.22186 0.02007 0.68058 0.0
H422 H 0.29446 0.96122 0.66995 0.0
C423 C 0.22425 0.04316 0.66477 0.0
C424 C 0.24885 0.99129 0.68254 0.0
C425 C 0.25218 0.96913 0.69944 0.0
C426 C 0.25248 0.03838 0.65098 0.0
C427 C 0.27697 0.00714 0.65264 0.0
C428 C 0.27493 0.9843 0.66848 0.0
C429 C 0.30724 1.00018 0.6384 0.0
C430 C 0.25719 0.06869 0.63501 0.0
C431 C 0.2847 0.98367 0.62203 0.0
C432 C 0.3156 0.98368 0.60832 0.0
C433 C 0.36914 0.99829 0.61079 0.0
C434 C 0.39038 0.01062 0.62742 0.0
C435 C 0.35991 0.01193 0.64103 0.0
H436 H 0.25138 0.10295 0.6377 0.0
H437 H 0.29669 0.08389 0.62898 0.0
H438 H 0.22588 0.04203 0.62579 0.0
H439 H 0.24358 0.97223 0.61973 0.0
H440 H 0.29795 0.97349 0.5957 0.0
H441 H 0.18848 0.14478 0.06108 0.0
H442 H 0.26639 0.1942 0.04287 0.0
H443 H 0.19491 0.27926 0.02162 0.0
H444 H 0.11786 0.2313 0.03993 0.0
H445 H 0.2772 0.20148 1.00823 0.0
H446 H 0.33905 0.39987 0.03601 0.0
H447 H 0.28994 0.33928 0.04589 0.0
H448 H 0.27145 0.36657 0.02854 0.0
C449 C 0.18943 0.17422 0.0526 0.0
C450 C 0.14692 0.18431 0.05216 0.0
C451 C 0.23401 0.20237 0.04215 0.0
C452 C 0.23711 0.24126 0.03107 0.0
C453 C 0.19425 0.25054 0.03036 0.0
H454 H 0.43664 0.38244 0.94271 0.0
H455 H 0.36853 0.32216 0.96247 0.0
C456 C 0.14996 0.22277 0.04084 0.0
C457 C 0.28473 0.27198 0.02013 0.0
H458 H 0.37854 0.39843 0.00952 0.0
C459 C 0.2997 0.24455 0.00861 0.0
C460 C 0.31477 0.32819 0.02077 0.0
C461 C 0.30338 0.3602 0.03359 0.0
C462 C 0.34275 0.27178 0.99741 0.0
C463 C 0.37101 0.32808 0.99745 0.0
C464 C 0.35684 0.35534 0.00931 0.0
C465 C 0.41489 0.36 0.98527 0.0
C466 C 0.35779 0.23984 0.9858 0.0
C467 C 0.46401 0.40148 0.99135 0.0
C468 C 0.50272 0.4365 0.98007 0.0
C469 C 0.49345 0.43079 0.96239 0.0
C470 C 0.44546 0.38758 0.95623 0.0
C471 C 0.40639 0.35289 0.96756 0.0
H472 H 0.34492 0.20002 0.99108 0.0
H473 H 0.33758 0.23379 0.97331 0.0
H474 H 0.40142 0.26058 0.98367 0.0
H475 H 0.47173 0.40793 1.00492 0.0
H476 H 0.53917 0.46936 0.98525 0.0
H477 H 0.1133 0.23981 0.39961 0.0
H478 H 0.1255 0.31032 0.38019 0.0
H479 H 0.97767 0.20151 0.35494 0.0
H480 H 0.96516 0.13113 0.37423 0.0
H481 H 0.13218 0.30838 0.34388 0.0
H482 H 0.9638 0.33317 0.3646 0.0
H483 H 0.99003 0.30069 0.37749 0.0
H484 H 0.94479 0.26524 0.36022 0.0
C485 C 0.08297 0.23115 0.39009 0.0
C486 C 0.03806 0.17986 0.38854 0.0
C487 C 0.09017 0.27143 0.37895 0.0
C488 C 0.05229 0.2614 0.3662 0.0
C489 C 0.00703 0.2105 0.36484 0.0
H490 H 0.98882 0.38658 0.27909 0.0
H491 H 0.99674 0.33754 0.30258 0.0
C492 C 0.99998 0.1702 0.37587 0.0
C493 C 0.06063 0.30306 0.35379 0.0
H494 H 1.00076 0.36782 0.33732 0.0
C495 C 0.10401 0.32216 0.3426 0.0
C496 C 0.02404 0.32124 0.35219 0.0
C497 C 0.97833 0.30447 0.36437 0.0
C498 C 0.1099 0.35646 0.32923 0.0
C499 C 0.0718 0.37253 0.32716 0.0
C500 C 0.02987 0.35532 0.33885 0.0
C501 C 0.07119 0.40268 0.31209 0.0
C502 C 0.15517 0.37308 0.3169 0.0
C503 C 0.11116 0.45567 0.30933 0.0
C504 C 0.10683 0.48419 0.29571 0.0
C505 C 0.06226 0.46013 0.28476 0.0
C506 C 0.02353 0.40659 0.28731 0.0
C507 C 0.02791 0.37836 0.30078 0.0
H508 H 0.17685 0.35123 0.31884 0.0
H509 H 0.14012 0.3663 0.30358 0.0
H510 H 0.1838 0.41619 0.31861 0.0
H511 H 0.1447 0.47546 0.31801 0.0
H512 H 0.13709 0.52545 0.29417 0.0
loop_
_geom_bond_atom_site_label_1
_geom_bond_atom_site_label_2
_geom_bond_distance
_geom_bond_site_symmetry_2
_ccdc_geom_bond_type
Co0 O1 2.216 1_445 S
Co0 O2 2.091 . S
Co0 O4 2.004 . S
Co0 O10 2.030 1_455 S
Co0 O12 2.137 . S
Co0 O13 2.243 1_455 S
O1 Co0 2.216 1_665 S
O1 C8 1.247 1_655 S
O2 Co0 2.091 . S
O2 C8 1.261 1_545 S
C3 O12 1.247 . S
C3 O13 1.271 1_455 S
O4 Co0 2.004 . S
O4 C9 1.259 . S
Co5 O6 2.061 1_655 S
Co5 O11 2.052 . S
Co5 O13 2.135 . S
O6 Co5 2.061 1_455 S
O6 C9 1.235 . S
C7 O10 1.247 1_565 S
C7 O11 1.241 1_565 S
C8 O1 1.247 1_455 S
C8 O2 1.261 1_565 S
C9 O4 1.259 . S
C9 O6 1.235 . S
O10 Co0 2.030 1_655 S
O10 C7 1.247 1_545 S
O11 Co5 2.052 . S
O11 C7 1.241 1_545 S
O12 Co0 2.137 . S
O12 C3 1.247 . S
O13 Co0 2.243 1_655 S
O13 C3 1.271 1_655 S
O13 Co5 2.135 . S
Co14 O15 2.216 . S
Co14 O16 2.091 . S
Co14 O18 2.004 . S
Co14 O24 2.021 . S
Co14 O26 2.137 . S
Co14 O27 2.244 1_545 S
O15 Co14 2.216 . S
O15 C22 1.247 . S
O16 Co14 2.091 . S
O16 C22 1.261 . S
C17 O26 1.247 1_565 S
C17 O27 1.272 . S
O18 Co14 2.004 . S
O18 C23 1.259 . S
Co19 O20 2.061 1_665 S
Co19 O25 2.039 1_565 S
Co19 O27 2.135 1_655 S
O20 Co19 2.061 1_445 S
O20 C23 1.235 . S
C21 O24 1.238 1_655 S
C21 O25 1.256 . S
C22 O15 1.247 . S
C22 O16 1.261 . S
C23 O18 1.259 . S
C23 O20 1.235 . S
O24 Co14 2.021 . S
O24 C21 1.238 1_455 S
O25 Co19 2.039 1_545 S
O25 C21 1.256 . S
O26 Co14 2.137 . S
O26 C17 1.247 1_545 S
O27 Co14 2.244 1_565 S
O27 C17 1.272 . S
O27 Co19 2.135 1_455 S
Co28 O29 2.216 . S
Co28 O30 2.091 1_545 S
Co28 O32 2.004 1_445 S
Co28 O38 2.021 . S
Co28 O40 2.137 1_455 S
Co28 O41 2.244 1_455 S
O29 Co28 2.216 . S
O29 C36 1.247 . S
O30 Co28 2.091 1_565 S
O30 C36 1.261 1_565 S
C31 O40 1.247 . S
C31 O41 1.272 . S
O32 Co28 2.004 1_665 S
O32 C37 1.259 . S
Co33 O34 2.061 . S
Co33 O39 2.052 1_655 S
Co33 O41 2.135 . S
O34 Co33 2.061 . S
O34 C37 1.235 1_545 S
C35 O38 1.238 . S
C35 O39 1.241 . S
C36 O29 1.247 . S
C36 O30 1.261 1_545 S
C37 O32 1.259 . S
C37 O34 1.235 1_565 S
O38 Co28 2.021 . S
O38 C35 1.238 . S
O39 Co33 2.052 1_455 S
O39 C35 1.241 . S
O40 Co28 2.137 1_655 S
O40 C31 1.247 . S
O41 Co28 2.244 1_655 S
O41 C31 1.272 . S
O41 Co33 2.135 . S
Mg42 O49 2.141 . S
Mg42 O50 2.048 . S
Mg42 O51 2.048 . S
Mg42 O54 2.141 . S
C43 O44 1.313 1_455 S
C43 O50 1.195 . S
O44 C43 1.313 1_655 S
C45 O46 1.245 1_455 S
C45 O54 1.289 . S
O46 C45 1.245 1_655 S
C47 O48 1.245 1_455 S
C47 O49 1.289 . S
O48 C47 1.245 1_655 S
O49 Mg42 2.141 . S
O49 C47 1.289 . S
O50 Mg42 2.048 . S
O50 C43 1.195 . S
O51 Mg42 2.048 . S
O51 C52 1.195 . S
C52 O51 1.195 . S
C52 O53 1.313 1_455 S
O53 C52 1.313 1_655 S
O54 Mg42 2.141 . S
O54 C45 1.289 . S
Mg55 O62 2.141 . S
Mg55 O63 2.048 . S
Mg55 O64 2.048 . S
Mg55 O67 2.141 . S
C56 O57 1.313 1_545 S
C56 O63 1.195 . S
O57 C56 1.313 1_565 S
C58 O59 1.245 1_545 S
C58 O67 1.289 . S
O59 C58 1.245 1_565 S
C60 O61 1.245 1_545 S
C60 O62 1.289 . S
O61 C60 1.245 1_565 S
O62 Mg55 2.141 . S
O62 C60 1.289 . S
O63 Mg55 2.048 . S
O63 C56 1.195 . S
O64 Mg55 2.048 . S
O64 C65 1.195 . S
C65 O64 1.195 . S
C65 O66 1.313 1_545 S
O66 C65 1.313 1_565 S
O67 Mg55 2.141 . S
O67 C58 1.289 . S
Mg68 O75 2.141 . S
Mg68 O76 2.048 . S
Mg68 O77 2.048 . S
Mg68 O80 2.141 . S
C69 O70 1.313 . S
C69 O76 1.195 . S
O70 C69 1.313 . S
C71 O72 1.245 . S
C71 O80 1.289 . S
O72 C71 1.245 . S
C73 O74 1.245 . S
C73 O75 1.289 . S
O74 C73 1.245 . S
O75 Mg68 2.141 . S
O75 C73 1.289 . S
O76 Mg68 2.048 . S
O76 C69 1.195 . S
O77 Mg68 2.048 . S
O77 C78 1.195 . S
C78 O77 1.195 . S
C78 O79 1.313 . S
O79 C78 1.313 . S
O80 Mg68 2.141 . S
O80 C71 1.289 . S
H81 C89 0.929 . S
H82 C91 0.930 . S
H83 C93 0.930 . S
H84 C96 0.929 . S
H85 C99 0.930 . S
H86 C101 0.960 . S
H87 C101 0.960 . S
H88 C101 0.960 . S
C89 H81 0.929 . S
C89 C90 1.377 . S
C89 C91 1.384 . S
C90 C89 1.377 . S
C90 C96 1.390 1_455 S
C91 H82 0.930 . S
C91 C89 1.384 . S
C91 C92 1.372 . S
C92 C91 1.372 . S
C92 C93 1.400 1_455 S
C92 C97 1.490 . S
C93 H83 0.930 . S
C93 C92 1.400 1_655 S
C93 C96 1.386 . S
H94 C110 0.930 1_655 S
H95 C111 0.931 1_655 S
C96 H84 0.929 . S
C96 C90 1.390 1_655 S
C96 C93 1.386 . S
C97 C92 1.490 . S
C97 C99 1.395 . S
C97 C100 1.403 1_455 S
H98 C104 0.930 . S
C99 H85 0.930 . S
C99 C97 1.395 . S
C99 C102 1.403 . S
C100 C97 1.403 1_655 S
C100 C101 1.524 . S
C100 C104 1.400 . S
C101 H86 0.960 . S
C101 H87 0.960 . S
C101 H88 0.960 . S
C101 C100 1.524 . S
C102 C99 1.403 . S
C102 C103 1.392 . S
C102 C106 1.495 . S
C103 C102 1.392 . S
C103 C104 1.385 1_455 S
C103 C105 1.478 . S
C104 H98 0.930 . S
C104 C100 1.400 . S
C104 C103 1.385 1_655 S
C105 C103 1.478 . S
C105 C107 1.381 . S
C105 C111 1.383 . S
C106 C102 1.495 . S
C106 H112 0.959 . S
C106 H113 0.961 . S
C106 H114 0.960 . S
C107 C105 1.381 . S
C107 C108 1.394 . S
C107 H115 0.930 . S
C108 C107 1.394 . S
C108 C109 1.383 . S
C108 H116 0.929 . S
C109 C108 1.383 . S
C109 C110 1.377 . S
C110 H94 0.930 1_455 S
C110 C109 1.377 . S
C110 C111 1.379 . S
C111 H95 0.931 1_455 S
C111 C105 1.383 . S
C111 C110 1.379 . S
H112 C106 0.959 . S
H113 C106 0.961 . S
H114 C106 0.960 . S
H115 C107 0.930 . S
H116 C108 0.929 . S
H117 C125 0.929 . S
H118 C127 0.930 . S
H119 C129 0.930 1_565 S
H120 C132 0.929 1_565 S
H121 C135 0.930 . S
H122 C137 0.960 . S
H123 C137 0.960 . S
H124 C137 0.960 . S
C125 H117 0.929 . S
C125 C126 1.377 . S
C125 C127 1.384 . S
C126 C125 1.377 . S
C126 C132 1.390 . S
C127 H118 0.930 . S
C127 C125 1.384 . S
C127 C128 1.372 . S
C128 C127 1.372 . S
C128 C129 1.400 . S
C128 C133 1.490 . S
C129 H119 0.930 1_545 S
C129 C128 1.400 . S
C129 C132 1.386 . S
H130 C146 0.930 1_565 S
H131 C147 0.931 1_565 S
C132 H120 0.929 1_545 S
C132 C126 1.390 . S
C132 C129 1.386 . S
C133 C128 1.490 . S
C133 C135 1.395 . S
C133 C136 1.403 . S
H134 C140 0.930 . S
C135 H121 0.930 . S
C135 C133 1.395 . S
C135 C138 1.403 . S
C136 C133 1.403 . S
C136 C137 1.524 . S
C136 C140 1.400 . S
C137 H122 0.960 . S
C137 H123 0.960 . S
C137 H124 0.960 . S
C137 C136 1.524 . S
C138 C135 1.403 . S
C138 C139 1.392 . S
C138 C142 1.495 . S
C139 C138 1.392 . S
C139 C140 1.385 . S
C139 C141 1.478 . S
C140 H134 0.930 . S
C140 C136 1.400 . S
C140 C139 1.385 . S
C141 C139 1.478 . S
C141 C143 1.381 . S
C141 C147 1.383 . S
C142 C138 1.495 . S
C142 H148 0.959 . S
C142 H149 0.961 . S
C142 H150 0.960 . S
C143 C141 1.381 . S
C143 C144 1.394 . S
C143 H151 0.930 . S
C144 C143 1.394 . S
C144 C145 1.383 . S
C144 H152 0.929 . S
C145 C144 1.383 . S
C145 C146 1.377 . S
C146 H130 0.930 1_545 S
C146 C145 1.377 . S
C146 C147 1.379 . S
C147 H131 0.931 1_545 S
C147 C141 1.383 . S
C147 C146 1.379 . S
H148 C142 0.959 . S
H149 C142 0.961 . S
H150 C142 0.960 . S
H151 C143 0.930 . S
H152 C144 0.929 . S
H153 C161 0.929 . S
H154 C163 0.930 . S
H155 C165 0.930 . S
H156 C168 0.929 . S
H157 C171 0.930 . S
H158 C173 0.960 . S
H159 C173 0.960 . S
H160 C173 0.960 . S
C161 H153 0.929 . S
C161 C162 1.377 . S
C161 C163 1.384 . S
C162 C161 1.377 . S
C162 C168 1.390 . S
C163 H154 0.930 . S
C163 C161 1.384 . S
C163 C164 1.372 . S
C164 C163 1.372 . S
C164 C165 1.400 . S
C164 C169 1.490 . S
C165 H155 0.930 . S
C165 C164 1.400 . S
C165 C168 1.386 . S
H166 C182 0.930 . S
H167 C183 0.931 . S
C168 H156 0.929 . S
C168 C162 1.390 . S
C168 C165 1.386 . S
C169 C164 1.490 . S
C169 C171 1.395 . S
C169 C172 1.403 . S
H170 C176 0.930 . S
C171 H157 0.930 . S
C171 C169 1.395 . S
C171 C174 1.403 . S
C172 C169 1.403 . S
C172 C173 1.524 . S
C172 C176 1.400 . S
C173 H158 0.960 . S
C173 H159 0.960 . S
C173 H160 0.960 . S
C173 C172 1.524 . S
C174 C171 1.403 . S
C174 C175 1.392 . S
C174 C178 1.495 . S
C175 C174 1.392 . S
C175 C176 1.385 . S
C175 C177 1.478 . S
C176 H170 0.930 . S
C176 C172 1.400 . S
C176 C175 1.385 . S
C177 C175 1.478 . S
C177 C179 1.381 . S
C177 C183 1.383 . S
C178 C174 1.495 . S
C178 H184 0.959 . S
C178 H185 0.961 . S
C178 H186 0.960 . S
C179 C177 1.381 . S
C179 C180 1.394 . S
C179 H187 0.930 . S
C180 C179 1.394 . S
C180 C181 1.383 . S
C180 H188 0.929 . S
C181 C180 1.383 . S
C181 C182 1.377 . S
C182 H166 0.930 . S
C182 C181 1.377 . S
C182 C183 1.379 . S
C183 H167 0.931 . S
C183 C177 1.383 . S
C183 C182 1.379 . S
H184 C178 0.959 . S
H185 C178 0.961 . S
H186 C178 0.960 . S
H187 C179 0.930 . S
H188 C180 0.929 . S
H189 C197 0.929 . S
H190 C199 0.930 . S
H191 C201 0.930 . S
H192 C204 0.929 . S
H193 C207 0.930 . S
H194 C209 0.960 . S
H195 C209 0.960 . S
H196 C209 0.960 . S
C197 H189 0.929 . S
C197 C198 1.377 . S
C197 C199 1.384 . S
C198 C197 1.377 . S
C198 C204 1.390 . S
C199 H190 0.930 . S
C199 C197 1.384 . S
C199 C200 1.372 . S
C200 C199 1.372 . S
C200 C201 1.400 . S
C200 C205 1.490 . S
C201 H191 0.930 . S
C201 C200 1.400 . S
C201 C204 1.386 . S
H202 C218 0.930 . S
H203 C219 0.931 . S
C204 H192 0.929 . S
C204 C198 1.390 . S
C204 C201 1.386 . S
C205 C200 1.490 . S
C205 C207 1.395 . S
C205 C208 1.403 1_455 S
H206 C212 0.930 . S
C207 H193 0.930 . S
C207 C205 1.395 . S
C207 C210 1.403 . S
C208 C205 1.403 1_655 S
C208 C209 1.524 . S
C208 C212 1.400 . S
C209 H194 0.960 . S
C209 H195 0.960 . S
C209 H196 0.960 . S
C209 C208 1.524 . S
C210 C207 1.403 . S
C210 C211 1.392 . S
C210 C214 1.495 . S
C211 C210 1.392 . S
C211 C212 1.385 1_455 S
C211 C213 1.478 . S
C212 H206 0.930 . S
C212 C208 1.400 . S
C212 C211 1.385 1_655 S
C213 C211 1.478 . S
C213 C215 1.381 . S
C213 C219 1.383 . S
C214 C210 1.495 . S
C214 H220 0.959 . S
C214 H221 0.961 . S
C214 H222 0.960 . S
C215 C213 1.381 . S
C215 C216 1.394 . S
C215 H223 0.930 . S
C216 C215 1.394 . S
C216 C217 1.383 . S
C216 H224 0.929 . S
C217 C216 1.383 . S
C217 C218 1.377 . S
C218 H202 0.930 . S
C218 C217 1.377 . S
C218 C219 1.379 . S
C219 H203 0.931 . S
C219 C213 1.383 . S
C219 C218 1.379 . S
H220 C214 0.959 . S
H221 C214 0.961 . S
H222 C214 0.960 . S
H223 C215 0.930 . S
H224 C216 0.929 . S
H225 C233 0.929 . S
H226 C235 0.930 . S
H227 C237 0.930 . S
H228 C240 0.929 . S
H229 C243 0.930 . S
H230 C245 0.960 . S
H231 C245 0.960 . S
H232 C245 0.960 . S
C233 H225 0.929 . S
C233 C234 1.377 . S
C233 C235 1.384 . S
C234 C233 1.377 . S
C234 C240 1.390 . S
C235 H226 0.930 . S
C235 C233 1.384 . S
C235 C236 1.372 . S
C236 C235 1.372 . S
C236 C237 1.400 . S
C236 C241 1.490 . S
C237 H227 0.930 . S
C237 C236 1.400 . S
C237 C240 1.386 . S
H238 C254 0.930 . S
H239 C255 0.931 . S
C240 H228 0.929 . S
C240 C234 1.390 . S
C240 C237 1.386 . S
C241 C236 1.490 . S
C241 C243 1.395 . S
C241 C244 1.403 . S
H242 C248 0.930 1_565 S
C243 H229 0.930 . S
C243 C241 1.395 . S
C243 C246 1.403 . S
C244 C241 1.403 . S
C244 C245 1.524 1_545 S
C244 C248 1.400 . S
C245 H230 0.960 . S
C245 H231 0.960 . S
C245 H232 0.960 . S
C245 C244 1.524 1_565 S
C246 C243 1.403 . S
C246 C247 1.392 . S
C246 C250 1.495 . S
C247 C246 1.392 . S
C247 C248 1.385 . S
C247 C249 1.478 . S
C248 H242 0.930 1_545 S
C248 C244 1.400 . S
C248 C247 1.385 . S
C249 C247 1.478 . S
C249 C251 1.381 . S
C249 C255 1.383 . S
C250 C246 1.495 . S
C250 H256 0.959 . S
C250 H257 0.961 . S
C250 H258 0.960 . S
C251 C249 1.381 . S
C251 C252 1.394 . S
C251 H259 0.930 . S
C252 C251 1.394 . S
C252 C253 1.383 . S
C252 H260 0.929 . S
C253 C252 1.383 . S
C253 C254 1.377 . S
C254 H238 0.930 . S
C254 C253 1.377 . S
C254 C255 1.379 . S
C255 H239 0.931 . S
C255 C249 1.383 . S
C255 C254 1.379 . S
H256 C250 0.959 . S
H257 C250 0.961 . S
H258 C250 0.960 . S
H259 C251 0.930 . S
H260 C252 0.929 . S
H261 C269 0.929 . S
H262 C271 0.930 . S
H263 C273 0.930 . S
H264 C276 0.929 . S
H265 C279 0.930 . S
H266 C281 0.960 . S
H267 C281 0.960 . S
H268 C281 0.960 . S
C269 H261 0.929 . S
C269 C270 1.377 . S
C269 C271 1.384 . S
C270 C269 1.377 . S
C270 C276 1.390 . S
C271 H262 0.930 . S
C271 C269 1.384 . S
C271 C272 1.372 . S
C272 C271 1.372 . S
C272 C273 1.400 . S
C272 C277 1.490 . S
C273 H263 0.930 . S
C273 C272 1.400 . S
C273 C276 1.386 . S
H274 C290 0.930 . S
H275 C291 0.931 . S
C276 H264 0.929 . S
C276 C270 1.390 . S
C276 C273 1.386 . S
C277 C272 1.490 . S
C277 C279 1.395 . S
C277 C280 1.403 . S
H278 C284 0.930 . S
C279 H265 0.930 . S
C279 C277 1.395 . S
C279 C282 1.403 . S
C280 C277 1.403 . S
C280 C281 1.524 . S
C280 C284 1.400 . S
C281 H266 0.960 . S
C281 H267 0.960 . S
C281 H268 0.960 . S
C281 C280 1.524 . S
C282 C279 1.403 . S
C282 C283 1.392 . S
C282 C286 1.495 . S
C283 C282 1.392 . S
C283 C284 1.385 . S
C283 C285 1.478 . S
C284 H278 0.930 . S
C284 C280 1.400 . S
C284 C283 1.385 . S
C285 C283 1.478 . S
C285 C287 1.381 . S
C285 C291 1.383 . S
C286 C282 1.495 . S
C286 H292 0.959 . S
C286 H293 0.961 . S
C286 H294 0.960 . S
C287 C285 1.381 . S
C287 C288 1.394 . S
C287 H295 0.930 . S
C288 C287 1.394 . S
C288 C289 1.383 . S
C288 H296 0.929 . S
C289 C288 1.383 . S
C289 C290 1.377 . S
C290 H274 0.930 . S
C290 C289 1.377 . S
C290 C291 1.379 . S
C291 H275 0.931 . S
C291 C285 1.383 . S
C291 C290 1.379 . S
H292 C286 0.959 . S
H293 C286 0.961 . S
H294 C286 0.960 . S
H295 C287 0.930 . S
H296 C288 0.929 . S
H297 C305 0.929 . S
H298 C307 0.930 . S
H299 C309 0.934 . S
H300 C312 0.929 . S
H301 C315 0.930 . S
H302 C317 0.960 . S
H303 C317 0.960 . S
H304 C317 0.960 1_565 S
C305 H297 0.929 . S
C305 C306 1.377 . S
C305 C307 1.384 . S
C306 C305 1.377 . S
C306 C312 1.390 1_545 S
C307 H298 0.930 . S
C307 C305 1.384 . S
C307 C308 1.372 . S
C308 C307 1.372 . S
C308 C309 1.392 1_545 S
C308 C313 1.490 . S
C309 H299 0.934 . S
C309 C308 1.392 1_565 S
C309 C312 1.389 . S
H310 C326 0.930 . S
H311 C327 0.931 . S
C312 H300 0.929 . S
C312 C306 1.390 1_565 S
C312 C309 1.389 . S
C313 C308 1.490 . S
C313 C315 1.395 . S
C313 C316 1.403 . S
H314 C320 0.930 . S
C315 H301 0.930 . S
C315 C313 1.395 . S
C315 C318 1.403 . S
C316 C313 1.403 . S
C316 C317 1.524 . S
C316 C320 1.400 . S
C317 H302 0.960 . S
C317 H303 0.960 . S
C317 H304 0.960 1_545 S
C317 C316 1.524 . S
C318 C315 1.403 . S
C318 C319 1.392 . S
C318 C322 1.495 . S
C319 C318 1.392 . S
C319 C320 1.385 . S
C319 C321 1.478 . S
C320 H314 0.930 . S
C320 C316 1.400 . S
C320 C319 1.385 . S
C321 C319 1.478 . S
C321 C323 1.381 . S
C321 C327 1.383 1_545 S
C322 C318 1.495 . S
C322 H328 0.959 . S
C322 H329 0.961 . S
C322 H330 0.960 . S
C323 C321 1.381 . S
C323 C324 1.394 . S
C323 H331 0.930 . S
C324 C323 1.394 . S
C324 C325 1.383 . S
C324 H332 0.929 . S
C325 C324 1.383 . S
C325 C326 1.377 1_545 S
C326 H310 0.930 . S
C326 C325 1.377 1_565 S
C326 C327 1.379 . S
C327 H311 0.931 . S
C327 C321 1.383 1_565 S
C327 C326 1.379 . S
H328 C322 0.959 . S
H329 C322 0.961 . S
H330 C322 0.960 . S
H331 C323 0.930 . S
H332 C324 0.929 . S
H333 C341 0.929 . S
H334 C343 0.930 . S
H335 C345 0.930 . S
H336 C348 0.929 . S
H337 C351 0.927 1_554 S
H338 C353 0.960 . S
H339 C353 0.960 . S
H340 C353 0.960 . S
C341 H333 0.929 . S
C341 C342 1.377 . S
C341 C343 1.384 . S
C342 C341 1.377 . S
C342 C348 1.390 . S
C343 H334 0.930 . S
C343 C341 1.384 . S
C343 C344 1.372 . S
C344 C343 1.372 . S
C344 C345 1.400 . S
C344 C349 1.490 . S
C345 H335 0.930 . S
C345 C344 1.400 . S
C345 C348 1.386 . S
H346 C362 0.930 . S
H347 C363 0.931 . S
C348 H336 0.929 . S
C348 C342 1.390 . S
C348 C345 1.386 . S
C349 C344 1.490 . S
C349 C351 1.395 1_554 S
C349 C352 1.403 . S
H350 C356 0.930 . S
C351 H337 0.927 1_556 S
C351 C349 1.395 1_556 S
C351 C354 1.403 . S
C352 C349 1.403 . S
C352 C353 1.524 . S
C352 C356 1.400 1_554 S
C353 H338 0.960 . S
C353 H339 0.960 . S
C353 H340 0.960 . S
C353 C352 1.524 . S
C354 C351 1.403 . S
C354 C355 1.392 . S
C354 C358 1.495 . S
C355 C354 1.392 . S
C355 C356 1.385 . S
C355 C357 1.478 . S
C356 H350 0.930 . S
C356 C352 1.400 1_556 S
C356 C355 1.385 . S
C357 C355 1.478 . S
C357 C359 1.381 . S
C357 C363 1.383 . S
C358 C354 1.495 . S
C358 H364 0.959 . S
C358 H365 0.961 . S
C358 H366 0.960 . S
C359 C357 1.381 . S
C359 C360 1.394 . S
C359 H367 0.930 . S
C360 C359 1.394 . S
C360 C361 1.383 . S
C360 H368 0.929 . S
C361 C360 1.383 . S
C361 C362 1.377 . S
C362 H346 0.930 . S
C362 C361 1.377 . S
C362 C363 1.379 . S
C363 H347 0.931 . S
C363 C357 1.383 . S
C363 C362 1.379 . S
H364 C358 0.959 . S
H365 C358 0.961 . S
H366 C358 0.960 . S
H367 C359 0.930 . S
H368 C360 0.929 . S
H369 C377 0.929 . S
H370 C379 0.930 . S
H371 C381 0.930 . S
H372 C384 0.929 . S
H373 C387 0.930 . S
H374 C389 0.960 . S
H375 C389 0.960 . S
H376 C389 0.960 . S
C377 H369 0.929 . S
C377 C378 1.377 . S
C377 C379 1.384 . S
C378 C377 1.377 . S
C378 C384 1.390 . S
C379 H370 0.930 . S
C379 C377 1.384 . S
C379 C380 1.372 . S
C380 C379 1.372 . S
C380 C381 1.400 . S
C380 C385 1.490 . S
C381 H371 0.930 . S
C381 C380 1.400 . S
C381 C384 1.386 . S
H382 C398 0.930 . S
H383 C399 0.931 . S
C384 H372 0.929 . S
C384 C378 1.390 . S
C384 C381 1.386 . S
C385 C380 1.490 . S
C385 C387 1.395 1_455 S
C385 C388 1.403 . S
H386 C392 0.930 . S
C387 H373 0.930 . S
C387 C385 1.395 1_655 S
C387 C390 1.403 . S
C388 C385 1.403 . S
C388 C389 1.524 . S
C388 C392 1.400 . S
C389 H374 0.960 . S
C389 H375 0.960 . S
C389 H376 0.960 . S
C389 C388 1.524 . S
C390 C387 1.403 . S
C390 C391 1.392 1_655 S
C390 C394 1.495 . S
C391 C390 1.392 1_455 S
C391 C392 1.385 . S
C391 C393 1.478 . S
C392 H386 0.930 . S
C392 C388 1.400 . S
C392 C391 1.385 . S
C393 C391 1.478 . S
C393 C395 1.381 . S
C393 C399 1.383 . S
C394 C390 1.495 . S
C394 H400 0.959 . S
C394 H401 0.961 . S
C394 H402 0.960 . S
C395 C393 1.381 . S
C395 C396 1.394 . S
C395 H403 0.930 . S
C396 C395 1.394 . S
C396 C397 1.383 . S
C396 H404 0.929 . S
C397 C396 1.383 . S
C397 C398 1.377 . S
C398 H382 0.930 . S
C398 C397 1.377 . S
C398 C399 1.379 . S
C399 H383 0.931 . S
C399 C393 1.383 . S
C399 C398 1.379 . S
H400 C394 0.959 . S
H401 C394 0.961 . S
H402 C394 0.960 . S
H403 C395 0.930 . S
H404 C396 0.929 . S
H405 C413 0.929 . S
H406 C415 0.930 . S
H407 C417 0.930 . S
H408 C420 0.929 . S
H409 C423 0.930 . S
H410 C425 0.960 . S
H411 C425 0.960 1_565 S
H412 C425 0.960 . S
C413 H405 0.929 . S
C413 C414 1.377 1_565 S
C413 C415 1.384 . S
C414 C413 1.377 1_545 S
C414 C420 1.390 . S
C415 H406 0.930 . S
C415 C413 1.384 . S
C415 C416 1.372 1_565 S
C416 C415 1.372 1_545 S
C416 C417 1.400 . S
C416 C421 1.490 . S
C417 H407 0.930 . S
C417 C416 1.400 . S
C417 C420 1.386 . S
H418 C434 0.930 . S
H419 C435 0.931 . S
C420 H408 0.929 . S
C420 C414 1.390 . S
C420 C417 1.386 . S
C421 C416 1.490 . S
C421 C423 1.395 . S
C421 C424 1.403 . S
H422 C428 0.930 . S
C423 H409 0.930 . S
C423 C421 1.395 . S
C423 C426 1.403 . S
C424 C421 1.403 . S
C424 C425 1.524 . S
C424 C428 1.400 . S
C425 H410 0.960 . S
C425 H411 0.960 1_545 S
C425 H412 0.960 . S
C425 C424 1.524 . S
C426 C423 1.403 . S
C426 C427 1.392 . S
C426 C430 1.495 . S
C427 C426 1.392 . S
C427 C428 1.385 . S
C427 C429 1.478 . S
C428 H422 0.930 . S
C428 C424 1.400 . S
C428 C427 1.385 . S
C429 C427 1.478 . S
C429 C431 1.381 . S
C429 C435 1.383 . S
C430 C426 1.495 . S
C430 H436 0.959 . S
C430 H437 0.961 . S
C430 H438 0.960 . S
C431 C429 1.381 . S
C431 C432 1.394 . S
C431 H439 0.930 1_545 S
C432 C431 1.394 . S
C432 C433 1.383 . S
C432 H440 0.929 1_545 S
C433 C432 1.383 . S
C433 C434 1.377 . S
C434 H418 0.930 . S
C434 C433 1.377 . S
C434 C435 1.379 . S
C435 H419 0.931 . S
C435 C429 1.383 . S
C435 C434 1.379 . S
H436 C430 0.959 . S
H437 C430 0.961 . S
H438 C430 0.960 . S
H439 C431 0.930 1_565 S
H440 C432 0.929 1_565 S
H441 C449 0.929 . S
H442 C451 0.930 . S
H443 C453 0.930 . S
H444 C456 0.929 . S
H445 C459 0.930 . S
H446 C461 0.960 . S
H447 C461 0.960 . S
H448 C461 0.960 . S
C449 H441 0.929 . S
C449 C450 1.377 . S
C449 C451 1.384 . S
C450 C449 1.377 . S
C450 C456 1.390 . S
C451 H442 0.930 . S
C451 C449 1.384 . S
C451 C452 1.372 . S
C452 C451 1.372 . S
C452 C453 1.400 . S
C452 C457 1.490 . S
C453 H443 0.930 . S
C453 C452 1.400 . S
C453 C456 1.386 . S
H454 C470 0.930 . S
H455 C471 0.931 . S
C456 H444 0.929 . S
C456 C450 1.390 . S
C456 C453 1.386 . S
C457 C452 1.490 . S
C457 C459 1.395 1_554 S
C457 C460 1.403 . S
H458 C464 0.930 . S
C459 H445 0.930 . S
C459 C457 1.395 1_556 S
C459 C462 1.403 . S
C460 C457 1.403 . S
C460 C461 1.524 . S
C460 C464 1.400 1_554 S
C461 H446 0.960 . S
C461 H447 0.960 . S
C461 H448 0.960 . S
C461 C460 1.524 . S
C462 C459 1.403 . S
C462 C463 1.392 . S
C462 C466 1.495 . S
C463 C462 1.392 . S
C463 C464 1.385 . S
C463 C465 1.478 . S
C464 H458 0.930 . S
C464 C460 1.400 1_556 S
C464 C463 1.385 . S
C465 C463 1.478 . S
C465 C467 1.381 . S
C465 C471 1.383 . S
C466 C462 1.495 . S
C466 H472 0.959 . S
C466 H473 0.961 . S
C466 H474 0.960 . S
C467 C465 1.381 . S
C467 C468 1.394 . S
C467 H475 0.930 . S
C468 C467 1.394 . S
C468 C469 1.383 . S
C468 H476 0.929 . S
C469 C468 1.383 . S
C469 C470 1.377 . S
C470 H454 0.930 . S
C470 C469 1.377 . S
C470 C471 1.379 . S
C471 H455 0.931 . S
C471 C465 1.383 . S
C471 C470 1.379 . S
H472 C466 0.959 . S
H473 C466 0.961 . S
H474 C466 0.960 . S
H475 C467 0.930 . S
H476 C468 0.929 . S
H477 C485 0.929 . S
H478 C487 0.930 . S
H479 C489 0.930 . S
H480 C492 0.929 . S
H481 C495 0.930 . S
H482 C497 0.960 . S
H483 C497 0.960 1_455 S
H484 C497 0.960 . S
C485 H477 0.929 . S
C485 C486 1.377 . S
C485 C487 1.384 . S
C486 C485 1.377 . S
C486 C492 1.390 1_455 S
C487 H478 0.930 . S
C487 C485 1.384 . S
C487 C488 1.372 . S
C488 C487 1.372 . S
C488 C489 1.400 1_455 S
C488 C493 1.490 . S
C489 H479 0.930 . S
C489 C488 1.400 1_655 S
C489 C492 1.386 . S
H490 C506 0.930 . S
H491 C507 0.931 . S
C492 H480 0.929 . S
C492 C486 1.390 1_655 S
C492 C489 1.386 . S
C493 C488 1.490 . S
C493 C495 1.395 . S
C493 C496 1.403 . S
H494 C500 0.930 1_655 S
C495 H481 0.930 . S
C495 C493 1.395 . S
C495 C498 1.403 . S
C496 C493 1.403 . S
C496 C497 1.524 1_455 S
C496 C500 1.400 . S
C497 H482 0.960 . S
C497 H483 0.960 1_655 S
C497 H484 0.960 . S
C497 C496 1.524 1_655 S
C498 C495 1.403 . S
C498 C499 1.392 . S
C498 C502 1.495 . S
C499 C498 1.392 . S
C499 C500 1.385 . S
C499 C501 1.478 . S
C500 H494 0.930 1_455 S
C500 C496 1.400 . S
C500 C499 1.385 . S
C501 C499 1.478 . S
C501 C503 1.381 . S
C501 C507 1.383 1_455 S
C502 C498 1.495 . S
C502 H508 0.959 . S
C502 H509 0.961 . S
C502 H510 0.960 . S
C503 C501 1.381 . S
C503 C504 1.394 . S
C503 H511 0.930 . S
C504 C503 1.394 . S
C504 C505 1.383 . S
C504 H512 0.929 . S
C505 C504 1.383 . S
C505 C506 1.377 1_455 S
C506 H490 0.930 . S
C506 C505 1.377 1_655 S
C506 C507 1.379 . S
C507 H491 0.931 . S
C507 C501 1.383 1_655 S
C507 C506 1.379 . S
H508 C502 0.959 . S
H509 C502 0.961 . S
H510 C502 0.960 . S
H511 C503 0.930 . S
H512 C504 0.929 . S
C109 C47 1.412 . S
C90 C3 1.405 . S
C126 C21 1.498 . S
C145 C65 1.512 . S
C162 C37 1.476 . S
C181 C78 1.497 . S
C198 C8 1.410 . S
C217 C45 1.410 . S
C253 C56 1.489 . S
C234 C23 1.465 . S
C270 C35 1.474 . S
C289 C69 1.490 . S
C325 C58 1.402 . S
C306 C31 1.406 . S
C342 C7 1.395 . S
C361 C71 1.416 . S
C397 C52 1.471 . S
C378 C17 1.482 . S
C433 C60 1.360 . S
C414 C36 1.366 . S
C469 C73 1.394 . S
C450 C9 1.403 . S
C486 C22 1.481 . S
C505 C43 1.480 . S
