# Generated by pormake.
# Topology iac, (4,6)-cn, num edge types: 1
# Building blocks:
#     Node 0, Type 0, BuildingBlock: NAHDIM_clean_sbu_0, # of connection points: 4
#     Node 1, Type 0, BuildingBlock: NAHDIM_clean_sbu_0, # of connection points: 4
#     Node 2, Type 0, BuildingBlock: NAHDIM_clean_sbu_0, # of connection points: 4
#     Node 3, Type 0, BuildingBlock: NAHDIM_clean_sbu_0, # of connection points: 4
#     Node 4, Type 0, BuildingBlock: NAHDIM_clean_sbu_0, # of connection points: 4
#     Node 5, Type 0, BuildingBlock: NAHDIM_clean_sbu_0, # of connection points: 4
#     Node 6, Type 0, BuildingBlock: NAHDIM_clean_sbu_0, # of connection points: 4
#     Node 7, Type 0, BuildingBlock: NAHDIM_clean_sbu_0, # of connection points: 4
#     Node 8, Type 0, BuildingBlock: NAHDIM_clean_sbu_0, # of connection points: 4
#     Node 9, Type 0, BuildingBlock: NAHDIM_clean_sbu_0, # of connection points: 4
#     Node 10, Type 0, BuildingBlock: NAHDIM_clean_sbu_0, # of connection points: 4
#     Node 11, Type 0, BuildingBlock: NAHDIM_clean_sbu_0, # of connection points: 4
#     Node 12, Type 0, BuildingBlock: NAHDIM_clean_sbu_0, # of connection points: 4
#     Node 13, Type 0, BuildingBlock: NAHDIM_clean_sbu_0, # of connection points: 4
#     Node 14, Type 0, BuildingBlock: NAHDIM_clean_sbu_0, # of connection points: 4
#     Node 15, Type 0, BuildingBlock: NAHDIM_clean_sbu_0, # of connection points: 4
#     Node 16, Type 0, BuildingBlock: NAHDIM_clean_sbu_0, # of connection points: 4
#     Node 17, Type 0, BuildingBlock: NAHDIM_clean_sbu_0, # of connection points: 4
#     Node 18, Type 0, BuildingBlock: NAHDIM_clean_sbu_0, # of connection points: 4
#     Node 19, Type 0, BuildingBlock: NAHDIM_clean_sbu_0, # of connection points: 4
#     Node 20, Type 0, BuildingBlock: NAHDIM_clean_sbu_0, # of connection points: 4
#     Node 21, Type 0, BuildingBlock: NAHDIM_clean_sbu_0, # of connection points: 4
#     Node 22, Type 0, BuildingBlock: NAHDIM_clean_sbu_0, # of connection points: 4
#     Node 23, Type 0, BuildingBlock: NAHDIM_clean_sbu_0, # of connection points: 4
#     Node 24, Type 1, BuildingBlock: CIFDUS_clean_sbu_1, # of connection points: 6
#     Node 25, Type 1, BuildingBlock: CIFDUS_clean_sbu_1, # of connection points: 6
#     Node 26, Type 1, BuildingBlock: CIFDUS_clean_sbu_1, # of connection points: 6
#     Node 27, Type 1, BuildingBlock: CIFDUS_clean_sbu_1, # of connection points: 6
#     Node 28, Type 1, BuildingBlock: CIFDUS_clean_sbu_1, # of connection points: 6
#     Node 29, Type 1, BuildingBlock: CIFDUS_clean_sbu_1, # of connection points: 6
#     Node 30, Type 1, BuildingBlock: CIFDUS_clean_sbu_1, # of connection points: 6
#     Node 31, Type 1, BuildingBlock: CIFDUS_clean_sbu_1, # of connection points: 6
#     Node 32, Type 1, BuildingBlock: CIFDUS_clean_sbu_1, # of connection points: 6
#     Node 33, Type 1, BuildingBlock: CIFDUS_clean_sbu_1, # of connection points: 6
#     Node 34, Type 1, BuildingBlock: CIFDUS_clean_sbu_1, # of connection points: 6
#     Node 35, Type 1, BuildingBlock: CIFDUS_clean_sbu_1, # of connection points: 6
#     Node 36, Type 1, BuildingBlock: CIFDUS_clean_sbu_1, # of connection points: 6
#     Node 37, Type 1, BuildingBlock: CIFDUS_clean_sbu_1, # of connection points: 6
#     Node 38, Type 1, BuildingBlock: CIFDUS_clean_sbu_1, # of connection points: 6
#     Node 39, Type 1, BuildingBlock: CIFDUS_clean_sbu_1, # of connection points: 6
#     Edge 40, Type (0, 1), BuildingBlock: KIFKEQ_clean_linker_1, # of connection points: 2
#     Edge 41, Type (0, 1), BuildingBlock: KIFKEQ_clean_linker_1, # of connection points: 2
#     Edge 42, Type (0, 1), BuildingBlock: KIFKEQ_clean_linker_1, # of connection points: 2
#     Edge 43, Type (0, 1), BuildingBlock: KIFKEQ_clean_linker_1, # of connection points: 2
#     Edge 44, Type (0, 1), BuildingBlock: KIFKEQ_clean_linker_1, # of connection points: 2
#     Edge 45, Type (0, 1), BuildingBlock: KIFKEQ_clean_linker_1, # of connection points: 2
#     Edge 46, Type (0, 1), BuildingBlock: KIFKEQ_clean_linker_1, # of connection points: 2
#     Edge 47, Type (0, 1), BuildingBlock: KIFKEQ_clean_linker_1, # of connection points: 2
#     Edge 48, Type (0, 1), BuildingBlock: KIFKEQ_clean_linker_1, # of connection points: 2
#     Edge 49, Type (0, 1), BuildingBlock: KIFKEQ_clean_linker_1, # of connection points: 2
#     Edge 50, Type (0, 1), BuildingBlock: KIFKEQ_clean_linker_1, # of connection points: 2
#     Edge 51, Type (0, 1), BuildingBlock: KIFKEQ_clean_linker_1, # of connection points: 2
#     Edge 52, Type (0, 1), BuildingBlock: KIFKEQ_clean_linker_1, # of connection points: 2
#     Edge 53, Type (0, 1), BuildingBlock: KIFKEQ_clean_linker_1, # of connection points: 2
#     Edge 54, Type (0, 1), BuildingBlock: KIFKEQ_clean_linker_1, # of connection points: 2
#     Edge 55, Type (0, 1), BuildingBlock: KIFKEQ_clean_linker_1, # of connection points: 2
#     Edge 56, Type (0, 1), BuildingBlock: KIFKEQ_clean_linker_1, # of connection points: 2
#     Edge 57, Type (0, 1), BuildingBlock: KIFKEQ_clean_linker_1, # of connection points: 2
#     Edge 58, Type (0, 1), BuildingBlock: KIFKEQ_clean_linker_1, # of connection points: 2
#     Edge 59, Type (0, 1), BuildingBlock: KIFKEQ_clean_linker_1, # of connection points: 2
#     Edge 60, Type (0, 1), BuildingBlock: KIFKEQ_clean_linker_1, # of connection points: 2
#     Edge 61, Type (0, 1), BuildingBlock: KIFKEQ_clean_linker_1, # of connection points: 2
#     Edge 62, Type (0, 1), BuildingBlock: KIFKEQ_clean_linker_1, # of connection points: 2
#     Edge 63, Type (0, 1), BuildingBlock: KIFKEQ_clean_linker_1, # of connection points: 2
#     Edge 64, Type (0, 1), BuildingBlock: KIFKEQ_clean_linker_1, # of connection points: 2
#     Edge 65, Type (0, 1), BuildingBlock: KIFKEQ_clean_linker_1, # of connection points: 2
#     Edge 66, Type (0, 1), BuildingBlock: KIFKEQ_clean_linker_1, # of connection points: 2
#     Edge 67, Type (0, 1), BuildingBlock: KIFKEQ_clean_linker_1, # of connection points: 2
#     Edge 68, Type (0, 1), BuildingBlock: KIFKEQ_clean_linker_1, # of connection points: 2
#     Edge 69, Type (0, 1), BuildingBlock: KIFKEQ_clean_linker_1, # of connection points: 2
#     Edge 70, Type (0, 1), BuildingBlock: KIFKEQ_clean_linker_1, # of connection points: 2
#     Edge 71, Type (0, 1), BuildingBlock: KIFKEQ_clean_linker_1, # of connection points: 2
#     Edge 72, Type (0, 1), BuildingBlock: KIFKEQ_clean_linker_1, # of connection points: 2
#     Edge 73, Type (0, 1), BuildingBlock: KIFKEQ_clean_linker_1, # of connection points: 2
#     Edge 74, Type (0, 1), BuildingBlock: KIFKEQ_clean_linker_1, # of connection points: 2
#     Edge 75, Type (0, 1), BuildingBlock: KIFKEQ_clean_linker_1, # of connection points: 2
#     Edge 76, Type (0, 1), BuildingBlock: KIFKEQ_clean_linker_1, # of connection points: 2
#     Edge 77, Type (0, 1), BuildingBlock: KIFKEQ_clean_linker_1, # of connection points: 2
#     Edge 78, Type (0, 1), BuildingBlock: KIFKEQ_clean_linker_1, # of connection points: 2
#     Edge 79, Type (0, 1), BuildingBlock: KIFKEQ_clean_linker_1, # of connection points: 2
#     Edge 80, Type (0, 1), BuildingBlock: KIFKEQ_clean_linker_1, # of connection points: 2
#     Edge 81, Type (0, 1), BuildingBlock: KIFKEQ_clean_linker_1, # of connection points: 2
#     Edge 82, Type (0, 1), BuildingBlock: KIFKEQ_clean_linker_1, # of connection points: 2
#     Edge 83, Type (0, 1), BuildingBlock: KIFKEQ_clean_linker_1, # of connection points: 2
#     Edge 84, Type (0, 1), BuildingBlock: KIFKEQ_clean_linker_1, # of connection points: 2
#     Edge 85, Type (0, 1), BuildingBlock: KIFKEQ_clean_linker_1, # of connection points: 2
#     Edge 86, Type (0, 1), BuildingBlock: KIFKEQ_clean_linker_1, # of connection points: 2
#     Edge 87, Type (0, 1), BuildingBlock: KIFKEQ_clean_linker_1, # of connection points: 2
#     Edge 88, Type (0, 1), BuildingBlock: KIFKEQ_clean_linker_1, # of connection points: 2
#     Edge 89, Type (0, 1), BuildingBlock: KIFKEQ_clean_linker_1, # of connection points: 2
#     Edge 90, Type (0, 1), BuildingBlock: KIFKEQ_clean_linker_1, # of connection points: 2
#     Edge 91, Type (0, 1), BuildingBlock: KIFKEQ_clean_linker_1, # of connection points: 2
#     Edge 92, Type (0, 1), BuildingBlock: KIFKEQ_clean_linker_1, # of connection points: 2
#     Edge 93, Type (0, 1), BuildingBlock: KIFKEQ_clean_linker_1, # of connection points: 2
#     Edge 94, Type (0, 1), BuildingBlock: KIFKEQ_clean_linker_1, # of connection points: 2
#     Edge 95, Type (0, 1), BuildingBlock: KIFKEQ_clean_linker_1, # of connection points: 2
#     Edge 96, Type (0, 1), BuildingBlock: KIFKEQ_clean_linker_1, # of connection points: 2
#     Edge 97, Type (0, 1), BuildingBlock: KIFKEQ_clean_linker_1, # of connection points: 2
#     Edge 98, Type (0, 1), BuildingBlock: KIFKEQ_clean_linker_1, # of connection points: 2
#     Edge 99, Type (0, 1), BuildingBlock: KIFKEQ_clean_linker_1, # of connection points: 2
#     Edge 100, Type (0, 1), BuildingBlock: KIFKEQ_clean_linker_1, # of connection points: 2
#     Edge 101, Type (0, 1), BuildingBlock: KIFKEQ_clean_linker_1, # of connection points: 2
#     Edge 102, Type (0, 1), BuildingBlock: KIFKEQ_clean_linker_1, # of connection points: 2
#     Edge 103, Type (0, 1), BuildingBlock: KIFKEQ_clean_linker_1, # of connection points: 2
#     Edge 104, Type (0, 1), BuildingBlock: KIFKEQ_clean_linker_1, # of connection points: 2
#     Edge 105, Type (0, 1), BuildingBlock: KIFKEQ_clean_linker_1, # of connection points: 2
#     Edge 106, Type (0, 1), BuildingBlock: KIFKEQ_clean_linker_1, # of connection points: 2
#     Edge 107, Type (0, 1), BuildingBlock: KIFKEQ_clean_linker_1, # of connection points: 2
#     Edge 108, Type (0, 1), BuildingBlock: KIFKEQ_clean_linker_1, # of connection points: 2
#     Edge 109, Type (0, 1), BuildingBlock: KIFKEQ_clean_linker_1, # of connection points: 2
#     Edge 110, Type (0, 1), BuildingBlock: KIFKEQ_clean_linker_1, # of connection points: 2
#     Edge 111, Type (0, 1), BuildingBlock: KIFKEQ_clean_linker_1, # of connection points: 2
#     Edge 112, Type (0, 1), BuildingBlock: KIFKEQ_clean_linker_1, # of connection points: 2
#     Edge 113, Type (0, 1), BuildingBlock: KIFKEQ_clean_linker_1, # of connection points: 2
#     Edge 114, Type (0, 1), BuildingBlock: KIFKEQ_clean_linker_1, # of connection points: 2
#     Edge 115, Type (0, 1), BuildingBlock: KIFKEQ_clean_linker_1, # of connection points: 2
#     Edge 116, Type (0, 1), BuildingBlock: KIFKEQ_clean_linker_1, # of connection points: 2
#     Edge 117, Type (0, 1), BuildingBlock: KIFKEQ_clean_linker_1, # of connection points: 2
#     Edge 118, Type (0, 1), BuildingBlock: KIFKEQ_clean_linker_1, # of connection points: 2
#     Edge 119, Type (0, 1), BuildingBlock: KIFKEQ_clean_linker_1, # of connection points: 2
#     Edge 120, Type (0, 1), BuildingBlock: KIFKEQ_clean_linker_1, # of connection points: 2
#     Edge 121, Type (0, 1), BuildingBlock: KIFKEQ_clean_linker_1, # of connection points: 2
#     Edge 122, Type (0, 1), BuildingBlock: KIFKEQ_clean_linker_1, # of connection points: 2
#     Edge 123, Type (0, 1), BuildingBlock: KIFKEQ_clean_linker_1, # of connection points: 2
#     Edge 124, Type (0, 1), BuildingBlock: KIFKEQ_clean_linker_1, # of connection points: 2
#     Edge 125, Type (0, 1), BuildingBlock: KIFKEQ_clean_linker_1, # of connection points: 2
#     Edge 126, Type (0, 1), BuildingBlock: KIFKEQ_clean_linker_1, # of connection points: 2
#     Edge 127, Type (0, 1), BuildingBlock: KIFKEQ_clean_linker_1, # of connection points: 2
#     Edge 128, Type (0, 1), BuildingBlock: KIFKEQ_clean_linker_1, # of connection points: 2
#     Edge 129, Type (0, 1), BuildingBlock: KIFKEQ_clean_linker_1, # of connection points: 2
#     Edge 130, Type (0, 1), BuildingBlock: KIFKEQ_clean_linker_1, # of connection points: 2
#     Edge 131, Type (0, 1), BuildingBlock: KIFKEQ_clean_linker_1, # of connection points: 2
#     Edge 132, Type (0, 1), BuildingBlock: KIFKEQ_clean_linker_1, # of connection points: 2
#     Edge 133, Type (0, 1), BuildingBlock: KIFKEQ_clean_linker_1, # of connection points: 2
#     Edge 134, Type (0, 1), BuildingBlock: KIFKEQ_clean_linker_1, # of connection points: 2
#     Edge 135, Type (0, 1), BuildingBlock: KIFKEQ_clean_linker_1, # of connection points: 2
# Relax obj value: 0.111
# Max RMSD: 0.169
# Mean RMSD: 0.132
data_MOF--net-iac--node1-NAHDIM_clean_sbu_0--node2-CIFDUS_clean_sbu_1--edge1-KIFKEQ_clean_linker_1
_symmetry_space_group_name_H-M    P1
_symmetry_Int_Tables_number       1
_symmetry_cell_setting            triclinic
loop_
_symmetry_equiv_pos_as_xyz
'x, y, z'
_cell_length_a     56.335119
_cell_length_b     54.932686
_cell_length_c     53.793538
_cell_angle_alpha  89.933079
_cell_angle_beta   90.169854
_cell_angle_gamma 90.73662
loop_
_atom_site_label
_atom_site_type_symbol
_atom_site_fract_x
_atom_site_fract_y
_atom_site_fract_z
_atom_type_partial_charge
C0 C 0.9425 0.25044 0.13502 0.0
O1 O 0.94148 0.24321 0.11177 0.0
O2 O 0.9919 0.21737 0.10669 0.0
Zn3 Zn 0.9923 0.25022 0.12429 0.0
O4 O 0.99056 0.27842 0.10002 0.0
C5 C 0.03784 0.23737 0.14778 0.0
O6 O 0.03552 0.21753 0.13438 0.0
O7 O 0.96271 0.25372 0.14519 0.0
C8 C 0.00626 0.29524 0.10011 0.0
O9 O 0.02523 0.29268 0.11407 0.0
C10 C 0.00585 0.21224 0.08891 0.0
O11 O 0.0205 0.22915 0.08057 0.0
O12 O 0.02173 0.25342 0.1467 0.0
C13 C 0.04738 0.74436 0.35001 0.0
O14 O 0.05041 0.73972 0.37376 0.0
O15 O 0.00055 0.71767 0.38783 0.0
Zn16 Zn -0.0001 0.74719 0.36592 0.0
O17 O 0.00144 0.77823 0.38489 0.0
C18 C 0.95064 0.73847 0.35806 0.0
O19 O 0.95211 0.72838 0.38015 0.0
O20 O 0.02662 0.7478 0.34168 0.0
C21 C 0.98663 0.78351 0.4017 0.0
O22 O 0.9707 0.76724 0.40862 0.0
C23 C 0.00817 0.71691 0.41004 0.0
O24 O 0.01781 0.73645 0.4201 0.0
O25 O 0.96923 0.74696 0.34775 0.0
C26 C 0.44438 0.75908 0.63526 0.0
O27 O 0.4436 0.7641 0.61139 0.0
O28 O 0.4926 0.71873 0.60356 0.0
Zn29 Zn 0.49304 0.75073 0.62229 0.0
O30 O 0.49048 0.77958 0.59877 0.0
C31 C 0.53205 0.73674 0.65625 0.0
O32 O 0.52005 0.71623 0.65878 0.0
O33 O 0.46398 0.75227 0.64475 0.0
C34 C 0.50254 0.79882 0.6032 0.0
O35 O 0.51815 0.79864 0.62138 0.0
C36 C 0.51101 0.70952 0.59384 0.0
O37 O 0.53125 0.72162 0.59492 0.0
O38 O 0.52377 0.75338 0.64232 0.0
C39 C 0.54341 0.23849 0.85029 0.0
O40 O 0.54489 0.23594 0.8745 0.0
O41 O 0.49632 0.21833 0.88923 0.0
Zn42 Zn 0.49702 0.24612 0.86491 0.0
O43 O 0.50049 0.27888 0.88074 0.0
C44 C 0.44772 0.24576 0.86055 0.0
O45 O 0.44973 0.24588 0.88484 0.0
O46 O 0.52339 0.24276 0.84055 0.0
C47 C 0.49195 0.28461 0.90169 0.0
O48 O 0.48123 0.26795 0.91527 0.0
C49 C 0.50604 0.21699 0.91051 0.0
O50 O 0.51896 0.23531 0.91889 0.0
O51 O 0.46622 0.24537 0.84717 0.0
C52 C 0.14608 0.94769 0.26524 0.0
O53 O 0.12719 0.94974 0.27927 0.0
O54 O 0.11193 0.99522 0.22025 0.0
Zn55 Zn 0.13269 -0.00364 0.25081 0.0
O56 O 0.11242 -0.00388 0.28158 0.0
C57 C 0.14252 0.04682 0.24145 0.0
O58 O 0.11966 0.04596 0.23657 0.0
O59 O 0.15243 0.96556 0.25151 0.0
C60 C 0.11756 0.00758 0.30139 0.0
O61 O 0.13613 0.02229 0.30178 0.0
C62 C 0.08967 -0.00124 0.22059 0.0
O63 O 0.07907 0.00263 0.24191 0.0
O64 O 0.15271 0.02744 0.24863 0.0
C65 C 0.20293 0.90394 0.49618 0.0
O66 O 0.19973 0.88085 0.49057 0.0
O67 O 0.24833 0.86593 0.52913 0.0
Zn68 Zn 0.24942 0.8872 0.49888 0.0
O69 O 0.24647 0.8678 0.46752 0.0
C70 C 0.29772 0.90064 0.51205 0.0
O71 O 0.2937 0.88884 0.53289 0.0
O72 O 0.22375 0.91173 0.50081 0.0
C73 C 0.26434 0.8551 0.46186 0.0
O74 O 0.28243 0.85426 0.47729 0.0
C75 C 0.24508 0.843 0.52966 0.0
O76 O 0.24139 0.83106 0.50884 0.0
O77 O 0.28103 0.90345 0.49646 0.0
C78 C 0.34932 0.04761 0.75208 0.0
O79 O 0.37183 0.04953 0.75834 0.0
O80 O 0.38744 0.00403 0.7174 0.0
Zn81 Zn 0.36492 0.0014 0.74578 0.0
O82 O 0.37981 0.00353 0.77941 0.0
C83 C 0.35936 0.95077 0.73675 0.0
O84 O 0.38115 0.95264 0.72827 0.0
O85 O 0.34135 0.02744 0.74404 0.0
C86 C 0.39605 0.98906 0.78569 0.0
O87 O 0.40405 0.97321 0.76965 0.0
C88 C 0.40977 0.00747 0.71719 0.0
O89 O 0.42133 0.01114 0.73811 0.0
O90 O 0.34865 0.96962 0.74403 0.0
C91 C 0.29973 0.09797 0.99628 0.0
O92 O 0.30003 0.12114 0.00232 0.0
O93 O 0.25497 0.12713 0.02972 0.0
Zn94 Zn 0.25275 0.11049 0.99598 0.0
O95 O 0.25801 0.13267 0.96643 0.0
C96 C 0.20258 0.10524 0.0011 0.0
O97 O 0.2057 0.12629 0.01228 0.0
O98 O 0.27982 0.0872 0.99325 0.0
C99 C 0.24424 0.14892 0.9582 0.0
O100 O 0.22451 0.15364 0.97011 0.0
C101 C 0.2557 0.15006 0.03281 0.0
O102 O 0.25528 0.16435 0.01324 0.0
O103 O 0.22059 0.09417 0.99271 0.0
C104 C 0.702 0.40299 -0.00195 0.0
O105 O 0.69997 0.3796 0.99329 0.0
O106 O 0.74705 0.36474 0.02831 0.0
Zn107 Zn 0.74768 0.38766 -0.00068 0.0
O108 O 0.74416 0.37025 0.96727 0.0
C109 C 0.79544 0.40023 0.01349 0.0
O110 O 0.79041 0.38956 0.03472 0.0
O111 O 0.72243 0.41213 0.00189 0.0
C112 C 0.75866 0.35326 0.96336 0.0
O113 O 0.77359 0.347 0.98099 0.0
C114 C 0.73844 0.34326 0.02882 0.0
O115 O 0.72748 0.33446 0.00914 0.0
O116 O 0.77938 0.40298 -0.00279 0.0
C117 C 0.84901 0.54643 0.25226 0.0
O118 O 0.87193 0.54957 0.25571 0.0
O119 O 0.88869 0.50821 0.21995 0.0
Zn120 Zn 0.86544 0.50055 0.24696 0.0
O121 O 0.87986 0.50027 0.28077 0.0
C122 C 0.86002 0.45133 0.23021 0.0
O123 O 0.881 0.45461 0.22012 0.0
O124 O 0.84084 0.52549 0.24718 0.0
C125 C 0.88983 0.48138 0.28913 0.0
O126 O 0.89212 0.46222 0.27482 0.0
C127 C 0.91027 0.50183 0.21924 0.0
O128 O 0.91935 0.48959 0.23789 0.0
O129 O 0.85003 0.46882 0.24119 0.0
C130 C 0.79995 0.59945 0.49708 0.0
O131 O 0.79959 0.6222 0.50457 0.0
O132 O 0.75573 0.62571 0.53196 0.0
Zn133 Zn 0.75268 0.61053 0.49804 0.0
O134 O 0.75583 0.63535 0.4704 0.0
C135 C 0.70251 0.60622 0.50108 0.0
O136 O 0.70539 0.62925 0.50706 0.0
O137 O 0.78035 0.58836 0.49312 0.0
C138 C 0.74289 0.63347 0.4511 0.0
O139 O 0.72621 0.61657 0.45034 0.0
C140 C 0.75495 0.64861 0.53463 0.0
O141 O 0.7523 0.66242 0.51488 0.0
O142 O 0.72074 0.59356 0.49635 0.0
C143 C 0.64646 0.44645 0.75937 0.0
O144 O 0.62375 0.44609 0.76486 0.0
O145 O 0.61328 0.49311 0.72062 0.0
Zn146 Zn 0.63435 0.49552 0.75109 0.0
O147 O 0.61581 0.49289 0.78322 0.0
C148 C 0.64216 0.54669 0.7423 0.0
O149 O 0.61918 0.54571 0.73832 0.0
O150 O 0.65592 0.4663 0.7518 0.0
C151 C 0.60155 0.50796 0.79264 0.0
O152 O 0.59768 0.52875 0.78139 0.0
C153 C 0.59119 0.49751 0.71908 0.0
O154 O 0.57937 0.50322 0.73918 0.0
O155 O 0.65306 0.52741 0.74844 0.0
C156 C 0.05206 0.75559 0.85705 0.0
O157 O 0.05102 0.76903 0.87719 0.0
O158 O -0.00112 0.71958 0.8898 0.0
Zn159 Zn 0.00189 0.7497 0.86767 0.0
O160 O 0.00299 0.78152 0.88716 0.0
C161 C 0.95471 0.73881 0.84904 0.0
O162 O 0.95447 0.72516 0.8691 0.0
O163 O 0.033 0.7459 0.84864 0.0
C164 C 0.98498 0.79371 0.89381 0.0
O165 O 0.96357 0.78491 0.88951 0.0
C166 C 0.01591 0.71068 0.90236 0.0
O167 O 0.03633 0.72246 0.90318 0.0
O168 O 0.9734 0.75109 0.84395 0.0
C169 C 0.95489 0.24309 0.64843 0.0
O170 O 0.95274 0.23515 0.6255 0.0
O171 O -0.00078 0.21693 0.615 0.0
Zn172 Zn 0.00039 0.25022 0.63007 0.0
O173 O 0.99464 0.27639 0.60475 0.0
C174 C 0.04922 0.242 0.63619 0.0
O175 O 0.04525 0.2286 0.61641 0.0
O176 O 0.97484 0.25149 0.65567 0.0
C177 C 0.01073 0.28539 0.5909 0.0
O178 O 0.03249 0.27725 0.59264 0.0
C179 C 0.99397 0.21306 0.59243 0.0
O180 O 0.98759 0.23137 0.57828 0.0
O181 O 0.03248 0.25412 0.64569 0.0
C182 C 0.55112 0.23645 0.34845 0.0
O183 O 0.54643 0.21518 0.35857 0.0
O184 O 0.50492 0.21696 0.38494 0.0
Zn185 Zn 0.50384 0.2494 0.36686 0.0
O186 O 0.50219 0.27819 0.39072 0.0
C187 C 0.45616 0.24024 0.35137 0.0
O188 O 0.4566 0.2298 0.37335 0.0
O189 O 0.53539 0.25297 0.34875 0.0
C190 C 0.48417 0.29151 0.39447 0.0
O191 O 0.46397 0.28606 0.38345 0.0
C192 C 0.50056 0.21303 0.40777 0.0
O193 O 0.49352 0.23107 0.42184 0.0
O194 O 0.47519 0.25014 0.3433 0.0
C195 C 0.45177 0.74612 0.14603 0.0
O196 O 0.44834 0.74655 0.12187 0.0
O197 O 0.50173 0.71729 0.11275 0.0
Zn198 Zn 0.49951 0.74909 0.12981 0.0
O199 O 0.49406 0.77676 0.10639 0.0
C200 C 0.5492 0.74557 0.13751 0.0
O201 O 0.54821 0.7367 0.11487 0.0
O202 O 0.47286 0.74731 0.15439 0.0
C203 C 0.50551 0.78132 0.08657 0.0
O204 O 0.52252 0.76674 0.07957 0.0
C205 C 0.4913 0.70985 0.09327 0.0
O206 O 0.4763 0.72401 0.0816 0.0
O207 O 0.53035 0.75325 0.14765 0.0
C208 C 0.8545 0.04865 0.73464 0.0
O209 O 0.8763 0.04879 0.72607 0.0
O210 O 0.88236 -0.00193 0.70975 0.0
Zn211 Zn 0.86682 -0.00077 0.74354 0.0
O212 O 0.89018 0.00368 0.77165 0.0
C213 C 0.85631 0.94781 0.74263 0.0
O214 O 0.87532 0.94799 0.72855 0.0
O215 O 0.84582 0.0289 0.74342 0.0
C216 C 0.90661 0.98912 0.77768 0.0
O217 O 0.91042 0.96983 0.76393 0.0
C218 C 0.90375 0.00473 0.70615 0.0
O219 O 0.91697 0.01125 0.72521 0.0
O220 O 0.84842 0.96794 0.75064 0.0
C221 C 0.79771 0.09714 0.50412 0.0
O222 O 0.80097 0.11926 0.51286 0.0
O223 O 0.756 0.13185 0.53292 0.0
Zn224 Zn 0.7514 0.11486 0.5004 0.0
O225 O 0.75216 0.13925 0.47273 0.0
C226 C 0.70232 0.10909 0.51133 0.0
O227 O 0.70575 0.13111 0.5201 0.0
O228 O 0.77722 0.09072 0.49655 0.0
C229 C 0.73716 0.13827 0.4551 0.0
O230 O 0.72157 0.1203 0.45438 0.0
C231 C 0.75047 0.15401 0.53529 0.0
O232 O 0.74288 0.16623 0.51589 0.0
O233 O 0.71954 0.09794 0.50149 0.0
C234 C 0.64369 0.95543 0.24668 0.0
O235 O 0.62047 0.95309 0.24596 0.0
O236 O 0.61356 0.00529 0.21707 0.0
Zn237 Zn 0.63001 0.00355 0.24946 0.0
O238 O 0.60743 -0.00242 0.27712 0.0
C239 C 0.63566 0.05377 0.24629 0.0
O240 O 0.6135 0.05132 0.23903 0.0
O241 O 0.6529 0.97653 0.24842 0.0
C242 C 0.58742 0.00757 0.27989 0.0
O243 O 0.58006 0.02374 0.26373 0.0
C244 C 0.59423 0.99497 0.21084 0.0
O245 O 0.58305 0.98055 0.22652 0.0
O246 O 0.64694 0.03511 0.25335 0.0
C247 C 0.69389 0.89724 0.01454 0.0
O248 O 0.69403 0.8743 0.0214 0.0
O249 O 0.74013 0.86911 0.04159 0.0
Zn250 Zn 0.74207 0.88572 0.00843 0.0
O251 O 0.74125 0.86254 0.97927 0.0
C252 C 0.79173 0.89213 0.01035 0.0
O253 O 0.78976 0.86831 0.01166 0.0
O254 O 0.71314 0.90712 0.00696 0.0
C255 C 0.7476 0.87107 0.95828 0.0
O256 O 0.75495 0.89383 0.95694 0.0
C257 C 0.73602 0.84674 0.04582 0.0
O258 O 0.73406 0.83149 0.02711 0.0
O259 O 0.77296 0.90464 0.00826 0.0
C260 C 0.29488 0.59692 -0.00165 0.0
O261 O 0.29499 0.62075 0.00047 0.0
O262 O 0.25202 0.62691 0.03165 0.0
Zn263 Zn 0.24857 0.60951 -0.00105 0.0
O264 O 0.25181 0.63252 0.97008 0.0
C265 C 0.20048 0.60449 0.01113 0.0
O266 O 0.20604 0.62419 0.02371 0.0
O267 O 0.27504 0.58575 -0.00308 0.0
C268 C 0.23597 0.64739 0.96325 0.0
O269 O 0.21584 0.64828 0.97544 0.0
C270 C 0.25371 0.64991 0.03305 0.0
O271 O 0.25558 0.66279 0.01257 0.0
O272 O 0.21622 0.59402 -0.00179 0.0
C273 C 0.1437 0.4543 0.75165 0.0
O274 O 0.12099 0.45103 0.74685 0.0
O275 O 0.11223 0.49473 0.71836 0.0
Zn276 Zn 0.12751 0.50114 0.75099 0.0
O277 O 0.10335 0.49938 0.77786 0.0
C278 C 0.13675 0.54919 0.73299 0.0
O279 O 0.12066 0.543 0.71641 0.0
O280 O 0.15153 0.47568 0.75565 0.0
C281 C 0.0981 0.51768 0.79104 0.0
O282 O 0.10948 0.53845 0.78776 0.0
C283 C 0.09032 0.49844 0.7149 0.0
O284 O 0.07705 0.50481 0.73379 0.0
O285 O 0.14279 0.53407 0.74968 0.0
C286 C 0.19357 0.39883 0.51578 0.0
O287 O 0.19248 0.37544 0.52084 0.0
O288 O 0.23642 0.36458 0.53898 0.0
Zn289 Zn 0.23993 0.38392 0.50745 0.0
O290 O 0.2346 0.36336 0.47686 0.0
C291 C 0.28718 0.39879 0.52457 0.0
O292 O 0.27979 0.38893 0.54544 0.0
O293 O 0.21323 0.40811 0.5086 0.0
C294 C 0.25152 0.35469 0.46421 0.0
O295 O 0.27345 0.35773 0.47212 0.0
C296 C 0.24595 0.3444 0.54403 0.0
O297 O 0.25952 0.33398 0.52743 0.0
O298 O 0.273 0.39966 0.50609 0.0
C299 C 0.3592 0.55074 0.24117 0.0
O300 O 0.38234 0.55016 0.23823 0.0
O301 O 0.38316 0.50208 0.20899 0.0
Zn302 Zn 0.36732 0.50032 0.24228 0.0
O303 O 0.39193 0.50061 0.26967 0.0
C304 C 0.35846 0.44923 0.24651 0.0
O305 O 0.38176 0.44947 0.24555 0.0
O306 O 0.34787 0.53078 0.2444 0.0
C307 C 0.38772 0.49019 0.29034 0.0
O308 O 0.36693 0.47967 0.29391 0.0
C309 C 0.40432 0.49533 0.20541 0.0
O310 O 0.41632 0.48572 0.22387 0.0
O311 O 0.34752 0.46932 0.24484 0.0
O312 O 0.02594 0.02131 0.99126 0.0
Mn313 Mn -0.00425 0.00058 0.00045 0.0
O314 O 0.05696 -0.00203 0.00018 0.0
Mn315 Mn 0.03837 0.97309 0.01273 0.0
O316 O 0.9647 0.98087 0.00974 0.0
O317 O 0.97988 0.03256 0.00564 0.0
Mn318 Mn 0.95065 0.0321 0.99469 0.0
O319 O 0.98508 3e-05 0.96299 0.0
O320 O 0.93574 0.00849 0.01365 0.0
O321 O 0.0045 0.00269 0.03841 0.0
O322 O 0.03171 0.97479 0.046 0.0
O323 O 0.95622 0.06321 0.00682 0.0
O324 O 0.95298 0.02438 0.96129 0.0
C325 C 0.02315 0.94635 0.99062 0.0
C326 C 0.04832 0.0177 0.99231 0.0
C327 C 0.94344 0.98687 0.01582 0.0
C328 C 0.97701 0.05491 0.01209 0.0
C329 C 0.96778 0.01002 0.95117 0.0
C330 C 0.0173 0.99053 0.05352 0.0
O331 O 0.01236 0.96727 0.99428 0.0
O332 O 0.04374 0.94355 0.00105 0.0
O333 O 0.28722 0.74666 0.24578 0.0
Mn334 Mn 0.25039 0.74703 0.25077 0.0
O335 O 0.29811 0.78243 0.22924 0.0
Mn336 Mn 0.26872 0.78639 0.21467 0.0
O337 O 0.21349 0.7464 0.25566 0.0
O338 O 0.25311 0.71302 0.2633 0.0
Mn339 Mn 0.23546 0.70765 0.28955 0.0
O340 O 0.25492 0.76053 0.28666 0.0
O341 O 0.205 0.71267 0.27806 0.0
O342 O 0.24637 0.73367 0.21478 0.0
O343 O 0.26136 0.76356 0.19034 0.0
O344 O 0.25135 0.67895 0.28329 0.0
O345 O 0.24651 0.7298 0.31313 0.0
C346 C 0.24055 0.8033 0.23426 0.0
C347 C 0.30323 0.76205 0.23894 0.0
C348 C 0.19868 0.73107 0.26527 0.0
C349 C 0.26061 0.69111 0.26509 0.0
C350 C 0.25331 0.75167 0.30873 0.0
C351 C 0.25243 0.74226 0.19344 0.0
O352 O 0.24768 0.78138 0.23823 0.0
O353 O 0.25217 0.81494 0.21717 0.0
O354 O 0.46982 0.97978 0.48935 0.0
Mn355 Mn 0.50002 0.00037 0.49835 0.0
O356 O 0.43973 0.00597 0.48492 0.0
Mn357 Mn 0.455 0.0317 0.50049 0.0
O358 O 0.53017 0.021 0.50714 0.0
O359 O 0.51556 0.96935 0.50807 0.0
Mn360 Mn 0.54575 0.96956 0.50044 0.0
O361 O 0.51261 -0.00333 0.46238 0.0
O362 O 0.55875 0.99511 0.51849 0.0
O363 O 0.48834 0.00329 0.53458 0.0
O364 O 0.45769 0.02919 0.53484 0.0
O365 O 0.53924 0.9393 0.51422 0.0
O366 O 0.54576 0.97413 0.46628 0.0
C367 C 0.48008 0.05338 0.4804 0.0
C368 C 0.44827 0.98465 0.48355 0.0
C369 C 0.55067 0.01654 0.51638 0.0
C370 C 0.51788 0.94744 0.51602 0.0
C371 C 0.53088 0.98613 0.45326 0.0
C372 C 0.47249 0.01548 0.54586 0.0
O373 O 0.48422 0.03179 0.48883 0.0
O374 O 0.45892 0.06118 0.48473 0.0
O375 O 0.27855 0.25816 0.76791 0.0
Mn376 Mn 0.24648 0.25052 0.75128 0.0
O377 O 0.30362 0.23805 0.74336 0.0
Mn378 Mn 0.28531 0.23695 0.71453 0.0
O379 O 0.21382 0.24266 0.7351 0.0
O380 O 0.23321 0.24523 0.78534 0.0
Mn381 Mn 0.20584 0.25972 0.78887 0.0
O382 O 0.23823 0.28708 0.75214 0.0
O383 O 0.18629 0.24506 0.7653 0.0
O384 O 0.25486 0.21344 0.74987 0.0
O385 O 0.26891 0.20808 0.71149 0.0
O386 O 0.21234 0.24503 0.81904 0.0
O387 O 0.21269 0.29243 0.78377 0.0
C388 C 0.27103 0.27139 0.70344 0.0
C389 C 0.29877 0.24907 0.76344 0.0
C390 C 0.19243 0.24026 0.74302 0.0
C391 C 0.23148 0.23809 0.80806 0.0
C392 C 0.22592 0.30062 0.76639 0.0
C393 C 0.26135 0.19946 0.73201 0.0
O394 O 0.26001 0.25561 0.71707 0.0
O395 O 0.29027 0.26311 0.69378 0.0
O396 O 0.99407 0.96517 0.48077 0.0
Mn397 Mn -0.00081 -0.00081 0.49679 0.0
O398 O 0.00266 0.93731 0.51028 0.0
Mn399 Mn 0.01234 0.95893 0.53493 0.0
O400 O 0.00447 0.03346 0.51279 0.0
O401 O 0.00303 0.01301 0.46241 0.0
Mn402 Mn 0.98635 0.03955 0.45892 0.0
O403 O 0.96267 0.0048 0.49589 0.0
O404 O -0.00071 0.06088 0.48204 0.0
O405 O 0.03584 0.99346 0.49809 0.0
O406 O 0.04306 0.97066 0.53207 0.0
O407 O 0.00068 0.03464 0.42865 0.0
O408 O 0.95517 0.03007 0.46395 0.0
C409 C 0.98658 0.98129 0.55267 0.0
C410 C -0.00406 0.94316 0.48843 0.0
C411 C 0.005 0.05536 0.50431 0.0
C412 C 0.00957 0.01587 0.43963 0.0
C413 C 0.94831 0.01614 0.48152 0.0
C414 C 0.0501 0.98364 0.51382 0.0
O415 O 0.99486 0.98483 0.53068 0.0
O416 O 0.99521 0.96256 0.56392 0.0
O417 O 0.27046 0.7809 0.75935 0.0
Mn418 Mn 0.2511 0.74995 0.75048 0.0
O419 O 0.24518 0.81218 0.76077 0.0
Mn420 Mn 0.22088 0.7961 0.74396 0.0
O421 O 0.23206 0.71877 0.74168 0.0
O422 O 0.28204 0.73348 0.74403 0.0
Mn423 Mn 0.28254 0.70435 0.7575 0.0
O424 O 0.25168 0.73956 0.78768 0.0
O425 O 0.25775 0.68762 0.74199 0.0
O426 O 0.25065 0.76032 0.71329 0.0
O427 O 0.22563 0.79191 0.7101 0.0
O428 O 0.3117 0.70894 0.74225 0.0
O429 O 0.27894 0.71003 0.79128 0.0
C430 C 0.1986 0.77106 0.76389 0.0
C431 C 0.26568 0.80311 0.76405 0.0
C432 C 0.23722 0.69643 0.73802 0.0
C433 C 0.30331 0.72993 0.73621 0.0
C434 C 0.26417 0.72483 0.80066 0.0
C435 C 0.2395 0.77632 0.70058 0.0
O436 O 0.22 0.76657 0.75679 0.0
O437 O 0.19114 0.79242 0.75778 0.0
O438 O 0.47842 0.99001 0.96649 0.0
Mn439 Mn 0.49762 -0.00084 -0.00167 0.0
O440 O 0.5049 0.98777 0.93521 0.0
Mn441 Mn 0.52983 0.00315 0.95153 0.0
O442 O 0.51725 0.00829 0.02985 0.0
O443 O 0.46677 0.00652 0.01497 0.0
Mn444 Mn 0.46787 -0.00159 0.04649 0.0
O445 O 0.49535 0.96333 0.011 0.0
O446 O 0.49155 0.01789 0.05986 0.0
O447 O 0.4999 0.03517 0.98618 0.0
O448 O 0.52714 0.03653 0.9555 0.0
O449 O 0.43762 0.00972 0.041 0.0
O450 O 0.47424 0.96535 0.04657 0.0
C451 C 0.54966 0.98383 0.97913 0.0
C452 C 0.48394 0.98528 0.94388 0.0
C453 C 0.51254 0.01702 0.05133 0.0
C454 C 0.44508 0.01277 0.01848 0.0
C455 C 0.48617 0.95351 0.03052 0.0
C456 C 0.5128 0.04682 0.97036 0.0
O457 O 0.52836 0.99149 0.98184 0.0
O458 O 0.55858 0.98822 0.95744 0.0
O459 O 0.28133 0.24989 0.26158 0.0
Mn460 Mn 0.24559 0.25108 0.25011 0.0
O461 O 0.28162 0.22561 0.29551 0.0
Mn462 Mn 0.24928 0.2189 0.29714 0.0
O463 O 0.20961 0.25246 0.23908 0.0
O464 O 0.25261 0.28313 0.23389 0.0
Mn465 Mn 0.23896 0.28523 0.20463 0.0
O466 O 0.25358 0.23237 0.2172 0.0
O467 O 0.20674 0.28252 0.21075 0.0
O468 O 0.23771 0.27024 0.28285 0.0
O469 O 0.2322 0.24263 0.31318 0.0
O470 O 0.25544 0.31421 0.20923 0.0
O471 O 0.25191 0.26017 0.1863 0.0
C472 C 0.23171 0.19669 0.26993 0.0
C473 C 0.29207 0.23963 0.27994 0.0
C474 C 0.19732 0.26633 0.22471 0.0
C475 C 0.26151 0.30452 0.23019 0.0
C476 C 0.25594 0.23871 0.19427 0.0
C477 C 0.23164 0.26442 0.30515 0.0
O478 O 0.23885 0.21881 0.26631 0.0
O479 O 0.23644 0.18825 0.29182 0.0
O480 O 0.4947 0.46857 0.97358 0.0
Mn481 Mn 0.50011 0.49886 0.99629 0.0
O482 O 0.48999 0.43605 -0.00125 0.0
Mn483 Mn 0.50122 0.45109 0.02723 0.0
O484 O 0.50563 0.52939 0.01879 0.0
O485 O 0.51017 0.51696 0.96595 0.0
Mn486 Mn 0.50021 0.54702 0.96582 0.0
O487 O 0.46547 0.5094 0.99082 0.0
O488 O 0.51527 0.56039 0.99319 0.0
O489 O 0.53497 0.48886 0.00246 0.0
O490 O 0.53366 0.45683 0.02872 0.0
O491 O 0.51577 0.54236 0.93588 0.0
O492 O 0.46729 0.54437 0.96867 0.0
C493 C 0.47962 0.47588 0.04743 0.0
C494 C 0.48996 0.44598 0.97734 0.0
C495 C 0.51334 0.55116 0.01484 0.0
C496 C 0.51893 0.52058 0.94426 0.0
C497 C 0.45577 0.52759 0.98009 0.0
C498 C 0.54503 0.47317 0.01655 0.0
O499 O 0.48941 0.48043 0.02636 0.0
O500 O 0.48309 0.45407 0.0556 0.0
O501 O 0.77394 0.2816 0.25763 0.0
Mn502 Mn 0.75187 0.25258 0.2488 0.0
O503 O 0.75277 0.31555 0.2557 0.0
Mn504 Mn 0.72819 0.30027 0.23901 0.0
O505 O 0.7313 0.22226 0.23995 0.0
O506 O 0.78189 0.23411 0.24434 0.0
Mn507 Mn 0.78074 0.20527 0.258 0.0
O508 O 0.75048 0.243 0.28642 0.0
O509 O 0.75618 0.19029 0.24066 0.0
O510 O 0.75338 0.26095 0.2109 0.0
O511 O 0.73206 0.29472 0.20549 0.0
O512 O 0.81099 0.20897 0.24488 0.0
O513 O 0.77525 0.21131 0.29136 0.0
C514 C 0.70066 0.28239 0.25786 0.0
C515 C 0.77169 0.30439 0.26096 0.0
C516 C 0.7361 0.19982 0.2359 0.0
C517 C 0.80353 0.23012 0.23813 0.0
C518 C 0.76121 0.22725 0.29999 0.0
C519 C 0.74389 0.27709 0.19699 0.0
O520 O 0.7211 0.27202 0.25368 0.0
O521 O 0.69846 0.30457 0.24998 0.0
O522 O 0.97758 0.49264 0.46721 0.0
Mn523 Mn -0.00276 0.49946 0.49957 0.0
O524 O 0.00426 0.49024 0.43611 0.0
Mn525 Mn 0.02964 0.50371 0.45301 0.0
O526 O 0.01734 0.50683 0.53126 0.0
O527 O 0.96693 0.50771 0.5167 0.0
Mn528 Mn 0.96713 0.49769 0.54767 0.0
O529 O 0.99322 0.4632 0.51085 0.0
O530 O 0.99199 0.51466 0.56225 0.0
O531 O 0.00084 0.53579 0.48862 0.0
O532 O 0.02784 0.53701 0.45772 0.0
O533 O 0.93783 0.51156 0.54264 0.0
O534 O 0.97067 0.46424 0.54546 0.0
C535 C 0.04908 0.48357 0.48006 0.0
C536 C 0.98303 0.48946 0.44425 0.0
C537 C 0.01283 0.51447 0.55321 0.0
C538 C 0.94569 0.51517 0.52036 0.0
C539 C 0.9823 0.45264 0.529 0.0
C540 C 0.01381 0.5474 0.47282 0.0
O541 O 0.02773 0.49116 0.48284 0.0
O542 O 0.05802 0.48809 0.4584 0.0
O543 O 0.78031 0.76064 0.27208 0.0
Mn544 Mn 0.74856 0.75264 0.2542 0.0
O545 O 0.80832 0.76676 0.24296 0.0
Mn546 Mn 0.79073 0.75356 0.21705 0.0
O547 O 0.71626 0.74461 0.23695 0.0
O548 O 0.7355 0.74326 0.28746 0.0
Mn549 Mn 0.70808 0.75731 0.29272 0.0
O550 O 0.73776 0.78803 0.25844 0.0
O551 O 0.68861 0.74601 0.26733 0.0
O552 O 0.76023 0.71718 0.24874 0.0
O553 O 0.78745 0.7202 0.21797 0.0
O554 O 0.71457 0.73966 0.32107 0.0
O555 O 0.71383 0.79057 0.29153 0.0
C556 C 0.76322 0.77466 0.2007 0.0
C557 C 0.80147 0.76646 0.26551 0.0
C558 C 0.69474 0.74293 0.24471 0.0
C559 C 0.73386 0.73418 0.30947 0.0
C560 C 0.72549 0.80026 0.2738 0.0
C561 C 0.77534 0.70785 0.2337 0.0
O562 O 0.76169 0.7633 0.22153 0.0
O563 O 0.78326 0.77195 0.18943 0.0
O564 O 0.78618 0.24882 0.74035 0.0
Mn565 Mn 0.75067 0.24809 0.7507 0.0
O566 O 0.7902 0.27738 0.71043 0.0
Mn567 Mn 0.75807 0.28179 0.70469 0.0
O568 O 0.71521 0.24739 0.76113 0.0
O569 O 0.75624 0.21604 0.76743 0.0
Mn570 Mn 0.74487 0.21593 0.79777 0.0
O571 O 0.75904 0.26732 0.78296 0.0
O572 O 0.71278 0.22199 0.79413 0.0
O573 O 0.74202 0.22933 0.71822 0.0
O574 O 0.7426 0.25719 0.68732 0.0
O575 O 0.75749 0.18544 0.79289 0.0
O576 O 0.76166 0.24019 0.81417 0.0
C577 C 0.73831 0.30212 0.73142 0.0
C578 C 0.79882 0.26178 0.72542 0.0
C579 C 0.7035 0.23633 0.77825 0.0
C580 C 0.76291 0.194 0.7712 0.0
C581 C 0.764 0.26167 0.8055 0.0
C582 C 0.73843 0.23575 0.69556 0.0
O583 O 0.74523 0.2801 0.73424 0.0
O584 O 0.74416 0.31166 0.7103 0.0
O585 O 0.78084 0.7501 0.75956 0.0
Mn586 Mn 0.74433 0.75128 0.75118 0.0
O587 O 0.78483 0.72297 0.79077 0.0
Mn588 Mn 0.75271 0.71821 0.79684 0.0
O589 O 0.70767 0.75233 0.7424 0.0
O590 O 0.75013 0.78369 0.73521 0.0
Mn591 Mn 0.73427 0.78651 0.7073 0.0
O592 O 0.74997 0.73323 0.71749 0.0
O593 O 0.70265 0.78362 0.71586 0.0
O594 O 0.73852 0.76983 0.78459 0.0
O595 O 0.73843 0.74223 0.81549 0.0
O596 O 0.75058 0.81563 0.7116 0.0
O597 O 0.7448 0.76144 0.68737 0.0
C598 C 0.73243 0.69633 0.77151 0.0
C599 C 0.79357 0.73786 0.77494 0.0
C600 C 0.69435 0.76641 0.72928 0.0
C601 C 0.75797 0.80558 0.73191 0.0
C602 C 0.74927 0.73979 0.69453 0.0
C603 C 0.73565 0.76385 0.80751 0.0
O604 O 0.73881 0.71866 0.76745 0.0
O605 O 0.7391 0.68781 0.79281 0.0
O606 O 0.52691 0.52154 0.49269 0.0
Mn607 Mn 0.49624 0.49977 0.49862 0.0
O608 O 0.55392 0.49685 0.47852 0.0
Mn609 Mn 0.54106 0.4739 0.49936 0.0
O610 O 0.46453 0.4802 0.50551 0.0
O611 O 0.48052 0.53165 0.5061 0.0
Mn612 Mn 0.45292 0.5331 0.49079 0.0
O613 O 0.48699 0.5021 0.46095 0.0
O614 O 0.43507 0.50767 0.50386 0.0
O615 O 0.50601 0.497 0.53613 0.0
O616 O 0.54209 0.4803 0.53308 0.0
O617 O 0.45625 0.56205 0.50779 0.0
O618 O 0.45935 0.53106 0.45709 0.0
C619 C 0.52107 0.44516 0.48598 0.0
C620 C 0.5472 0.51817 0.48282 0.0
C621 C 0.44259 0.4862 0.50777 0.0
C622 C 0.47635 0.55311 0.51473 0.0
C623 C 0.47328 0.51547 0.44771 0.0
C624 C 0.52538 0.48928 0.54593 0.0
O625 O 0.51142 0.46632 0.49087 0.0
O626 O 0.54366 0.44297 0.48997 0.0
O627 O 0.96569 0.48125 0.9917 0.0
Mn628 Mn -0.0037 0.50122 -0.00101 0.0
O629 O 0.93548 0.50748 0.98933 0.0
Mn630 Mn 0.95198 0.53352 0.00314 0.0
O631 O 0.02721 0.52094 0.00636 0.0
O632 O 0.01183 0.46946 0.00722 0.0
Mn633 Mn 0.04045 0.46854 0.99436 0.0
O634 O 0.00603 0.49809 0.96204 0.0
O635 O 0.05678 0.49388 0.00955 0.0
O636 O 0.98651 0.50461 0.03617 0.0
O637 O 0.95717 0.53215 0.03713 0.0
O638 O 0.03589 0.439 0.00999 0.0
O639 O 0.036 0.47141 0.96032 0.0
C640 C 0.97636 0.55411 0.98094 0.0
C641 C 0.94394 0.48617 0.9873 0.0
C642 C 0.0487 0.51536 0.01148 0.0
C643 C 0.01529 0.44767 0.01529 0.0
C644 C 0.02111 0.4855 0.94992 0.0
C645 C 0.97189 0.51815 0.04793 0.0
O646 O 0.98056 0.53282 0.99007 0.0
O647 O 0.95557 0.56241 0.98607 0.0
H648 H 0.97618 0.17384 0.0995 0.0
H649 H 0.03836 0.19322 0.05669 0.0
H650 H 0.97773 0.13253 0.08343 0.0
H651 H 0.04026 0.15159 0.04098 0.0
H652 H 0.00511 0.0894 0.99132 0.0
H653 H 0.01776 0.12661 0.01241 0.0
H654 H -0.00142 0.09443 0.08301 0.0
H655 H 0.98564 0.05733 0.06154 0.0
C656 C 0.99034 0.16923 0.08684 0.0
C657 C 0.007 0.18695 0.07924 0.0
C658 C 0.99143 0.14539 0.07783 0.0
C659 C 0.00928 0.13854 0.06103 0.0
C660 C 0.02621 0.15619 0.05376 0.0
C661 C 0.02506 0.1801 0.06273 0.0
C662 C 0.00484 0.08987 0.01145 0.0
C663 C 0.99452 0.07055 0.02484 0.0
C664 C 0.01191 0.11129 0.02361 0.0
C665 C 0.00849 0.11385 0.04938 0.0
C666 C 0.00086 0.09332 0.06306 0.0
C667 C 0.99387 0.07187 0.05086 0.0
H668 H 0.08568 0.71548 0.35272 0.0
H669 H 0.05477 0.77321 0.30931 0.0
H670 H 0.11918 0.71417 0.32417 0.0
H671 H 0.08894 0.77238 0.28089 0.0
H672 H 0.17714 0.77492 0.27122 0.0
H673 H 0.1368 0.77995 0.2873 0.0
H674 H 0.12281 0.70328 0.2764 0.0
H675 H 0.16291 0.6982 0.26057 0.0
C676 C 0.08616 0.72794 0.33709 0.0
C677 C 0.06771 0.7443 0.33302 0.0
C678 C 0.10517 0.72708 0.32067 0.0
C679 C 0.10634 0.74293 0.30018 0.0
C680 C 0.08821 0.75983 0.29643 0.0
C681 C 0.06878 0.76026 0.31258 0.0
C682 C 0.16502 0.75944 0.27113 0.0
C683 C 0.17313 0.7361 0.26511 0.0
C684 C 0.14202 0.7623 0.28042 0.0
C685 C 0.12708 0.74185 0.28357 0.0
C686 C 0.13423 0.7192 0.27448 0.0
C687 C 0.15708 0.71633 0.26533 0.0
H688 H 0.5242 0.84276 0.61024 0.0
H689 H 0.46955 0.80723 0.56632 0.0
H690 H 0.51602 0.88104 0.58974 0.0
H691 H 0.46132 0.84605 0.54557 0.0
H692 H 0.49745 0.90879 0.49357 0.0
H693 H 0.48499 0.87237 0.51612 0.0
H694 H 0.48556 0.91332 0.5846 0.0
H695 H 0.49817 0.94977 0.56179 0.0
C696 C 0.51028 0.84313 0.59632 0.0
C697 C 0.4976 0.82187 0.5899 0.0
C698 C 0.50532 0.86523 0.5848 0.0
C699 C 0.48763 0.86674 0.56641 0.0
C700 C 0.47488 0.8455 0.55987 0.0
C701 C 0.47973 0.82328 0.57161 0.0
C702 C 0.49345 0.9103 0.5132 0.0
C703 C 0.49893 0.93186 0.52606 0.0
C704 C 0.48643 0.88939 0.52618 0.0
C705 C 0.48515 0.88981 0.55224 0.0
C706 C 0.48697 0.91239 0.56455 0.0
C707 C 0.49386 0.93334 0.55148 0.0
H708 H 0.43486 0.22624 0.81633 0.0
H709 H 0.40808 0.26694 0.87873 0.0
H710 H 0.39577 0.2273 0.7968 0.0
H711 H 0.36885 0.26837 0.85883 0.0
H712 H 0.31747 0.28803 0.78843 0.0
H713 H 0.35251 0.28737 0.81588 0.0
H714 H 0.3545 0.20903 0.80947 0.0
H715 H 0.32008 0.2098 0.78184 0.0
C716 C 0.42058 0.23544 0.82578 0.0
C717 C 0.42426 0.24641 0.84897 0.0
C718 C 0.39828 0.23594 0.81473 0.0
C719 C 0.37946 0.24775 0.82653 0.0
C720 C 0.38318 0.2591 0.84955 0.0
C721 C 0.40546 0.25817 0.86089 0.0
C722 C 0.32521 0.27075 0.79346 0.0
C723 C 0.3167 0.24901 0.78294 0.0
C724 C 0.34506 0.27034 0.8091 0.0
C725 C 0.35618 0.24816 0.81431 0.0
C726 C 0.34636 0.22633 0.80527 0.0
C727 C 0.32682 0.22677 0.78955 0.0
H728 H 0.01136 0.82318 0.38509 0.0
H729 H 0.96125 0.79996 0.44132 0.0
H730 H 0.01104 0.86428 0.4018 0.0
H731 H 0.96151 0.841 0.45853 0.0
H732 H 0.95451 0.92061 0.47551 0.0
H733 H 0.95032 0.88309 0.45104 0.0
H734 H 0.02619 0.88348 0.43879 0.0
H735 H 0.03 0.92104 0.46266 0.0
C736 C 0.00036 0.82683 0.40112 0.0
C737 C 0.98649 0.8083 0.41207 0.0
C738 C 0.00018 0.85039 0.41066 0.0
C739 C 0.98628 0.85588 0.43149 0.0
C740 C 0.97211 0.83743 0.44221 0.0
C741 C 0.97216 0.81387 0.43253 0.0
C742 C 0.97006 0.91283 0.46698 0.0
C743 C 0.99253 0.92341 0.47067 0.0
C744 C 0.96776 0.89134 0.45323 0.0
C745 C 0.98796 0.88023 0.44318 0.0
C746 C 0.01026 0.89169 0.44602 0.0
C747 C 0.01251 0.91309 0.45971 0.0
H748 H 0.43834 0.74735 0.68442 0.0
H749 H 0.40096 0.77582 0.62072 0.0
H750 H 0.40193 0.74869 0.70859 0.0
H751 H 0.36463 0.77782 0.64508 0.0
H752 H 0.30195 0.73697 0.68646 0.0
H753 H 0.33599 0.74986 0.66157 0.0
H754 H 0.37267 0.77277 0.72844 0.0
H755 H 0.33881 0.75889 0.75317 0.0
C756 C 0.42243 0.7542 0.67566 0.0
C757 C 0.42257 0.76122 0.65055 0.0
C758 C 0.40152 0.75524 0.68961 0.0
C759 C 0.3802 0.76345 0.67887 0.0
C760 C 0.38057 0.77116 0.65393 0.0
C761 C 0.40146 0.77003 0.63996 0.0
C762 C 0.31686 0.74586 0.69563 0.0
C763 C 0.31778 0.74712 0.72163 0.0
C764 C 0.33651 0.75312 0.68141 0.0
C765 C 0.35745 0.76173 0.69304 0.0
C766 C 0.35716 0.76555 0.71891 0.0
C767 C 0.3376 0.75806 0.73308 0.0
H768 H 0.53126 0.20364 0.95176 0.0
H769 H 0.47627 0.1786 0.90134 0.0
H770 H 0.53096 0.16378 0.97205 0.0
H771 H 0.47614 0.13895 0.92146 0.0
H772 H 0.47215 0.07278 0.9696 0.0
H773 H 0.46808 0.11625 0.96093 0.0
H774 H 0.54437 0.12337 0.95555 0.0
H775 H 0.54827 0.08008 0.96478 0.0
C776 C 0.5189 0.18978 0.94525 0.0
C777 C 0.50405 0.19411 0.92474 0.0
C778 C 0.51877 0.167 0.95682 0.0
C779 C 0.50362 0.1483 0.94823 0.0
C780 C 0.48784 0.15309 0.92863 0.0
C781 C 0.4881 0.17575 0.91696 0.0
C782 C 0.48798 0.0839 0.96756 0.0
C783 C 0.51047 0.07332 0.96825 0.0
C784 C 0.48568 0.10864 0.96226 0.0
C785 C 0.50592 0.12316 0.95766 0.0
C786 C 0.52849 0.1127 0.9594 0.0
C787 C 0.53073 0.08794 0.96447 0.0
H788 H 0.07734 0.2092 0.14939 0.0
H789 H 0.04728 0.27394 0.18137 0.0
H790 H 0.11348 0.21578 0.17336 0.0
H791 H 0.08342 0.28024 0.20595 0.0
H792 H 0.16421 0.29993 0.21273 0.0
H793 H 0.12395 0.29237 0.19806 0.0
H794 H 0.13133 0.21582 0.21446 0.0
H795 H 0.17206 0.22346 0.22874 0.0
C796 C 0.0783 0.22469 0.16182 0.0
C797 C 0.05939 0.24108 0.16338 0.0
C798 C 0.09901 0.22834 0.17578 0.0
C799 C 0.10139 0.24845 0.19177 0.0
C800 C 0.08229 0.26465 0.19369 0.0
C801 C 0.06155 0.26102 0.17962 0.0
C802 C 0.15707 0.28154 0.21373 0.0
C803 C 0.17139 0.26225 0.22173 0.0
C804 C 0.13389 0.27722 0.2054 0.0
C805 C 0.12443 0.25343 0.20471 0.0
C806 C 0.1382 0.23432 0.21434 0.0
C807 C 0.16143 0.23871 0.22286 0.0
H808 H 0.04156 0.00261 0.21436 0.0
H809 H 0.10722 -0.00259 0.1734 0.0
H810 H 0.0195 0.00479 0.17509 0.0
H811 H 0.08518 -0.00012 0.13445 0.0
H812 H 0.04306 0.02839 0.07035 0.0
H813 H 0.05862 0.03309 0.11264 0.0
H814 H 0.01407 0.97324 0.13711 0.0
H815 H -0.00092 0.96812 0.09449 0.0
C816 C 0.05128 0.00198 0.19704 0.0
C817 C 0.07614 -0.00019 0.197 0.0
C818 C 0.03864 0.00326 0.17464 0.0
C819 C 0.0507 0.0028 0.15186 0.0
C820 C 0.07552 0.0007 0.15182 0.0
C821 C 0.0881 -0.0009 0.17412 0.0
C822 C 0.03591 0.01694 0.08503 0.0
C823 C 0.01973 -0.00188 0.07947 0.0
C824 C 0.04497 0.01944 0.10909 0.0
C825 C 0.03767 0.00337 0.12797 0.0
C826 C 0.01988 0.9859 0.12285 0.0
C827 C 0.0112 0.98306 0.0986 0.0
H828 H 0.23678 0.86166 0.42055 0.0
H829 H 0.29336 0.8177 0.45012 0.0
H830 H 0.23723 0.83789 0.38209 0.0
H831 H 0.29357 0.79388 0.41184 0.0
H832 H 0.25671 0.73846 0.35755 0.0
H833 H 0.26164 0.76491 0.39344 0.0
H834 H 0.26609 0.82759 0.34516 0.0
H835 H 0.26166 0.80102 0.30889 0.0
C836 C 0.2493 0.84696 0.41881 0.0
C837 C 0.26486 0.84133 0.43839 0.0
C838 C 0.2497 0.83356 0.39676 0.0
C839 C 0.2654 0.81408 0.39413 0.0
C840 C 0.28122 0.80875 0.41352 0.0
C841 C 0.28109 0.82238 0.43538 0.0
C842 C 0.25896 0.75784 0.35444 0.0
C843 C 0.25844 0.76766 0.33029 0.0
C844 C 0.26188 0.77295 0.37504 0.0
C845 C 0.26411 0.79823 0.372 0.0
C846 C 0.26417 0.80812 0.34793 0.0
C847 C 0.26163 0.79293 0.32722 0.0
H848 H 0.45766 0.01257 0.70835 0.0
H849 H 0.39017 -0.00029 0.67173 0.0
H850 H 0.47759 0.01118 0.66782 0.0
H851 H 0.40997 -0.00173 0.6319 0.0
H852 H 0.45177 0.97623 0.56642 0.0
H853 H 0.44035 0.97101 0.61 0.0
H854 H 0.47437 0.03971 0.62803 0.0
H855 H 0.48545 0.04501 0.58417 0.0
C856 C 0.44713 0.00941 0.69177 0.0
C857 C 0.42234 0.00641 0.69322 0.0
C858 C 0.45852 0.00856 0.66869 0.0
C859 C 0.44527 0.00439 0.64692 0.0
C860 C 0.42062 0.00106 0.64849 0.0
C861 C 0.40928 0.0021 0.67134 0.0
C862 C 0.45717 0.98989 0.5799 0.0
C863 C 0.46918 0.01108 0.57233 0.0
C864 C 0.45071 0.98693 0.60468 0.0
C865 C 0.45641 0.00505 0.62219 0.0
C866 C 0.46992 0.02547 0.61484 0.0
C867 C 0.47608 0.0286 0.58989 0.0
H868 H 0.27115 0.13262 0.91956 0.0
H869 H 0.23019 0.194 0.94399 0.0
H870 H 0.27847 0.15304 0.87962 0.0
H871 H 0.23798 0.21452 0.90456 0.0
H872 H 0.26267 0.25497 0.84191 0.0
H873 H 0.27374 0.23181 0.87883 0.0
H874 H 0.24798 0.16586 0.84394 0.0
H875 H 0.23694 0.18918 0.80697 0.0
C876 C 0.26408 0.15063 0.91655 0.0
C877 C 0.25005 0.16177 0.93482 0.0
C878 C 0.26829 0.16225 0.89375 0.0
C879 C 0.2591 0.18546 0.88917 0.0
C880 C 0.24567 0.19681 0.90777 0.0
C881 C 0.24101 0.185 0.93024 0.0
C882 C 0.2608 0.23531 0.84155 0.0
C883 C 0.24897 0.22379 0.82174 0.0
C884 C 0.26683 0.22211 0.86278 0.0
C885 C 0.26111 0.19721 0.86443 0.0
C886 C 0.25253 0.18506 0.84316 0.0
C887 C 0.24641 0.19836 0.8219 0.0
H888 H 0.08603 0.97041 0.31022 0.0
H889 H 0.11784 0.03416 0.34423 0.0
H890 H 0.06301 0.9628 0.34778 0.0
H891 H 0.09421 0.0272 0.38135 0.0
H892 H 0.0565 0.01246 0.44878 0.0
H893 H 0.08614 0.0032 0.4172 0.0
H894 H 0.0299 0.98065 0.36704 0.0
H895 H 0.00083 0.98865 0.39915 0.0
C896 C 0.08806 0.98284 0.32571 0.0
C897 C 0.10362 0.00302 0.32421 0.0
C898 C 0.07491 0.97843 0.34728 0.0
C899 C 0.07679 0.99426 0.36773 0.0
C900 C 0.09269 0.01422 0.36628 0.0
C901 C 0.10604 0.01845 0.34483 0.0
C902 C 0.05079 0.0039 0.4316 0.0
C903 C 0.02659 0.00079 0.42643 0.0
C904 C 0.06764 -0.00081 0.41325 0.0
C905 C 0.06037 0.99191 0.38927 0.0
C906 C 0.03626 0.98619 0.38521 0.0
C907 C 0.01952 0.99066 0.40365 0.0
H908 H 0.25021 0.86311 0.57552 0.0
H909 H 0.24238 0.79373 0.53826 0.0
H910 H 0.25228 0.84241 0.61531 0.0
H911 H 0.24454 0.77291 0.57857 0.0
H912 H 0.21386 0.75885 0.66149 0.0
H913 H 0.21799 0.7717 0.61795 0.0
H914 H 0.28039 0.81408 0.6376 0.0
H915 H 0.27626 0.80102 0.68089 0.0
C916 C 0.24907 0.84341 0.57578 0.0
C917 C 0.24614 0.83006 0.55371 0.0
C918 C 0.25045 0.83155 0.5986 0.0
C919 C 0.2489 0.80606 0.59994 0.0
C920 C 0.24582 0.7926 0.57796 0.0
C921 C 0.24456 0.80451 0.55497 0.0
C922 C 0.22884 0.77026 0.65616 0.0
C923 C 0.24481 0.77899 0.67417 0.0
C924 C 0.23123 0.77758 0.63138 0.0
C925 C 0.24933 0.79409 0.62456 0.0
C926 C 0.26616 0.8015 0.64245 0.0
C927 C 0.26392 0.79396 0.66709 0.0
H928 H 0.44223 0.99207 0.79773 0.0
H929 H 0.37206 0.98866 0.82953 0.0
H930 H 0.45964 0.98979 0.83916 0.0
H931 H 0.38949 0.98516 0.87136 0.0
H932 H 0.44001 0.00548 0.94113 0.0
H933 H 0.41532 0.00702 0.90353 0.0
H934 H 0.46132 0.95516 0.86821 0.0
H935 H 0.48617 0.95425 0.90519 0.0
C936 C 0.43062 0.99073 0.81371 0.0
C937 C 0.406 0.99007 0.81072 0.0
C938 C 0.44048 0.98929 0.83735 0.0
C939 C 0.42587 0.98644 0.85834 0.0
C940 C 0.4011 0.98712 0.85545 0.0
C941 C 0.39119 0.98908 0.83166 0.0
C942 C 0.44426 0.9938 0.92558 0.0
C943 C 0.46512 0.98003 0.92572 0.0
C944 C 0.43025 0.99479 0.90408 0.0
C945 C 0.43698 0.98185 0.88276 0.0
C946 C 0.45623 0.96593 0.88414 0.0
C947 C 0.47029 0.96518 0.90536 0.0
H948 H 0.25628 0.19805 0.04542 0.0
H949 H 0.25804 0.12598 0.07763 0.0
H950 H 0.25928 0.2158 0.08662 0.0
H951 H 0.26142 0.14396 0.1192 0.0
H952 H 0.2369 0.19297 0.18814 0.0
H953 H 0.23832 0.16875 0.14983 0.0
H954 H 0.2893 0.21982 0.11909 0.0
H955 H 0.28725 0.24415 0.15679 0.0
C956 C 0.25745 0.18595 0.06129 0.0
C957 C 0.25715 0.16059 0.05815 0.0
C958 C 0.25934 0.19615 0.08496 0.0
C959 C 0.26105 0.1813 0.1062 0.0
C960 C 0.26022 0.15588 0.10321 0.0
C961 C 0.25836 0.14562 0.0794 0.0
C962 C 0.24896 0.19847 0.17345 0.0
C963 C 0.26183 0.22049 0.17523 0.0
C964 C 0.2497 0.18471 0.15149 0.0
C965 C 0.26343 0.19276 0.13116 0.0
C966 C 0.278 0.21352 0.1341 0.0
C967 C 0.27705 0.22732 0.15578 0.0
H968 H 0.16042 0.1271 0.01146 0.0
H969 H 0.18984 0.06058 0.98276 0.0
H970 H 0.12043 0.11078 0.005 0.0
H971 H 0.15003 0.04394 0.97711 0.0
H972 H 0.07888 0.0215 0.95381 0.0
H973 H 0.11501 0.04653 0.95302 0.0
H974 H 0.09367 0.08106 0.02149 0.0
H975 H 0.05699 0.05691 0.02123 0.0
C976 C 0.15836 0.10895 0.00383 0.0
C977 C 0.17832 0.09514 -0.00244 0.0
C978 C 0.1354 0.09958 0.00017 0.0
C979 C 0.13189 0.07613 0.99027 0.0
C980 C 0.15195 0.06233 0.98414 0.0
C981 C 0.17485 0.07175 0.98763 0.0
C982 C 0.08154 0.03526 0.96799 0.0
C983 C 0.06522 0.03759 0.98739 0.0
C984 C 0.10239 0.04928 0.96786 0.0
C985 C 0.10762 0.06534 0.98756 0.0
C986 C 0.09027 0.06899 0.00595 0.0
C987 C 0.06918 0.05526 0.00578 0.0
H988 H 0.69905 0.4527 -0.00288 0.0
H989 H 0.657 0.38667 0.00463 0.0
H990 H 0.66324 0.47698 0.00382 0.0
H991 H 0.6218 0.41079 0.0116 0.0
H992 H 0.57218 0.45452 0.05342 0.0
H993 H 0.61358 0.44292 0.05004 0.0
H994 H 0.61817 0.47806 0.9784 0.0
H995 H 0.57651 0.48988 0.98171 0.0
C996 C 0.68223 0.44345 0.00021 0.0
C997 C 0.68073 0.41786 0.00062 0.0
C998 C 0.66191 0.45729 0.00398 0.0
C999 C 0.64016 0.44558 0.00866 0.0
C1000 C 0.63861 0.42009 0.00845 0.0
C1001 C 0.65869 0.40633 0.00431 0.0
C1002 C 0.58216 0.46037 0.03724 0.0
C1003 C 0.57104 0.47235 0.0174 0.0
C1004 C 0.60582 0.45387 0.03543 0.0
C1005 C 0.61861 0.45928 0.01379 0.0
C1006 C 0.60845 0.47376 0.99523 0.0
C1007 C 0.58467 0.48038 -0.00292 0.0
H1008 H 0.81485 0.43928 0.24184 0.0
H1009 H 0.88397 0.40839 0.22921 0.0
H1010 H 0.8002 0.40025 0.25641 0.0
H1011 H 0.86927 0.36893 0.24438 0.0
H1012 H 0.81315 0.30259 0.23641 0.0
H1013 H 0.84045 0.33702 0.23195 0.0
H1014 H 0.80519 0.37368 0.29231 0.0
H1015 H 0.77693 0.33979 0.29555 0.0
C1016 C 0.82688 0.42404 0.2421 0.0
C1017 C 0.85053 0.42679 0.23455 0.0
C1018 C 0.81864 0.40179 0.25089 0.0
C1019 C 0.8339 0.38182 0.25244 0.0
C1020 C 0.8573 0.38419 0.24375 0.0
C1021 C 0.86558 0.40661 0.23482 0.0
C1022 C 0.81201 0.31755 0.24945 0.0
C1023 C 0.79283 0.31909 0.26592 0.0
C1024 C 0.82762 0.33725 0.24691 0.0
C1025 C 0.82425 0.35831 0.26116 0.0
C1026 C 0.80755 0.3579 0.28054 0.0
C1027 C 0.79154 0.33855 0.28257 0.0
H1028 H 0.84199 0.61174 0.51828 0.0
H1029 H 0.80977 0.5605 0.46716 0.0
H1030 H 0.8799 0.59217 0.51338 0.0
H1031 H 0.84833 0.54133 0.46113 0.0
H1032 H 0.90827 0.49403 0.49781 0.0
H1033 H 0.87334 0.51592 0.48434 0.0
H1034 H 0.91304 0.58374 0.48889 0.0
H1035 H 0.94739 0.56155 0.50415 0.0
C1036 C 0.84316 0.59649 0.50561 0.0
C1037 C 0.82292 0.58748 0.49329 0.0
C1038 C 0.86504 0.58543 0.50247 0.0
C1039 C 0.86739 0.56528 0.48656 0.0
C1040 C 0.84717 0.55668 0.47366 0.0
C1041 C 0.82509 0.56757 0.47715 0.0
C1042 C 0.90978 0.51349 0.49465 0.0
C1043 C 0.93044 0.5262 0.50164 0.0
C1044 C 0.88972 0.52613 0.48699 0.0
C1045 C 0.8901 0.55173 0.48625 0.0
C1046 C 0.91192 0.56407 0.48995 0.0
C1047 C 0.93186 0.55138 0.49802 0.0
H1048 H 0.12586 0.09041 0.22464 0.0
H1049 H 0.18942 0.05613 0.25195 0.0
H1050 H 0.1471 0.12925 0.22187 0.0
H1051 H 0.21051 0.09504 0.24973 0.0
H1052 H 0.24906 0.16311 0.2383 0.0
H1053 H 0.22694 0.12707 0.22416 0.0
H1054 H 0.16205 0.15861 0.25121 0.0
H1055 H 0.18424 0.19459 0.26467 0.0
C1056 C 0.14441 0.09111 0.22997 0.0
C1057 C 0.15589 0.07015 0.23874 0.0
C1058 C 0.15659 0.11343 0.22837 0.0
C1059 C 0.18056 0.11538 0.23551 0.0
C1060 C 0.1922 0.09422 0.2436 0.0
C1061 C 0.18003 0.07189 0.24516 0.0
C1062 C 0.22989 0.16279 0.23991 0.0
C1063 C 0.21823 0.18166 0.2522 0.0
C1064 C 0.21726 0.14198 0.23227 0.0
C1065 C 0.19279 0.1396 0.23716 0.0
C1066 C 0.18082 0.15973 0.24705 0.0
C1067 C 0.19348 0.18052 0.2546 0.0
H1068 H 0.3143 0.90883 0.46547 0.0
H1069 H 0.33599 0.90815 0.54259 0.0
H1070 H 0.35409 0.92147 0.45328 0.0
H1071 H 0.37575 0.92177 0.53046 0.0
H1072 H 0.4477 0.93968 0.50498 0.0
H1073 H 0.41276 0.9131 0.50873 0.0
H1074 H 0.37482 0.95937 0.45753 0.0
H1075 H 0.40968 0.98538 0.45352 0.0
C1076 C 0.32759 0.91151 0.47985 0.0
C1077 C 0.322 0.90797 0.50504 0.0
C1078 C 0.35041 0.91862 0.47283 0.0
C1079 C 0.36805 0.92271 0.49088 0.0
C1080 C 0.36266 0.91838 0.51605 0.0
C1081 C 0.33984 0.91091 0.52306 0.0
C1082 C 0.43222 0.94345 0.4937 0.0
C1083 C 0.43117 0.96469 0.4792 0.0
C1084 C 0.41212 0.92847 0.49612 0.0
C1085 C 0.39088 0.93446 0.4839 0.0
C1086 C 0.39086 0.95417 0.46721 0.0
C1087 C 0.41083 0.96915 0.46492 0.0
H1088 H 0.84886 0.5758 0.21282 0.0
H1089 H 0.81558 0.56336 0.28389 0.0
H1090 H 0.82586 0.61267 0.20725 0.0
H1091 H 0.79314 0.60127 0.27904 0.0
H1092 H 0.7485 0.66803 0.24916 0.0
H1093 H 0.76271 0.6258 0.25306 0.0
H1094 H 0.83287 0.65006 0.23107 0.0
H1095 H 0.81897 0.69093 0.22661 0.0
C1096 C 0.83646 0.58108 0.22715 0.0
C1097 C 0.83402 0.56739 0.24886 0.0
C1098 C 0.8233 0.60201 0.22402 0.0
C1099 C 0.80804 0.60989 0.24292 0.0
C1100 C 0.8047 0.59543 0.26419 0.0
C1101 C 0.81764 0.57408 0.26709 0.0
C1102 C 0.76684 0.66403 0.24502 0.0
C1103 C 0.78245 0.68247 0.23682 0.0
C1104 C 0.77494 0.64008 0.24731 0.0
C1105 C 0.79867 0.63471 0.24162 0.0
C1106 C 0.81427 0.65349 0.2346 0.0
C1107 C 0.80626 0.67696 0.23206 0.0
H1108 H 0.63229 0.40322 0.78003 0.0
H1109 H 0.69248 0.43892 0.74543 0.0
H1110 H 0.65475 0.3657 0.78342 0.0
H1111 H 0.71472 0.40133 0.74827 0.0
H1112 H 0.75626 0.33747 0.76068 0.0
H1113 H 0.73375 0.37233 0.77523 0.0
H1114 H 0.66848 0.33531 0.75448 0.0
H1115 H 0.69119 0.30028 0.74074 0.0
C1116 C 0.65035 0.4031 0.7732 0.0
C1117 C 0.66055 0.42403 0.76226 0.0
C1118 C 0.66322 0.38157 0.77519 0.0
C1119 C 0.68657 0.38046 0.76625 0.0
C1120 C 0.69694 0.40161 0.75587 0.0
C1121 C 0.68411 0.42315 0.75396 0.0
C1122 C 0.73703 0.33635 0.76058 0.0
C1123 C 0.72534 0.31635 0.74974 0.0
C1124 C 0.72415 0.35645 0.76848 0.0
C1125 C 0.69938 0.35695 0.76523 0.0
C1126 C 0.68754 0.33561 0.75719 0.0
C1127 C 0.70049 0.31542 0.74947 0.0
H1128 H 0.95152 0.82212 0.91668 0.0
H1129 H 0.02577 0.82072 0.89695 0.0
H1130 H 0.95797 0.86127 0.93782 0.0
H1131 H 0.03196 0.85974 0.91735 0.0
H1132 H 0.04241 0.90196 0.98759 0.0
H1133 H 0.03112 0.86787 0.9624 0.0
H1134 H 0.9715 0.90758 0.93337 0.0
H1135 H 0.98305 0.94304 0.95942 0.0
C1136 C 0.96913 0.83026 0.9166 0.0
C1137 C 0.98824 0.81803 0.90554 0.0
C1138 C 0.97273 0.85279 0.92848 0.0
C1139 C -0.00451 0.86352 0.92945 0.0
C1140 C 0.01426 0.8518 0.91728 0.0
C1141 C 0.01073 0.82934 0.90565 0.0
C1142 C 0.02684 0.90389 0.97591 0.0
C1143 C 0.01383 0.92564 0.97543 0.0
C1144 C 0.02046 0.88412 0.96127 0.0
C1145 C 0.00076 0.8851 0.94543 0.0
C1146 C 0.98694 0.9064 0.94532 0.0
C1147 C 0.99351 0.92665 0.96018 0.0
H1148 H 0.91216 0.22105 0.64016 0.0
H1149 H 0.95084 0.26427 0.69427 0.0
H1150 H 0.87682 0.22284 0.6659 0.0
H1151 H 0.91514 0.2661 0.72005 0.0
H1152 H 0.83454 0.29509 0.72272 0.0
H1153 H 0.87535 0.28755 0.70982 0.0
H1154 H 0.86054 0.2102 0.70897 0.0
H1155 H 0.81972 0.21785 0.72202 0.0
C1156 C 0.91321 0.23069 0.6577 0.0
C1157 C 0.9342 0.24272 0.6651 0.0
C1158 C 0.89303 0.23147 0.67255 0.0
C1159 C 0.89339 0.24447 0.69498 0.0
C1160 C 0.91453 0.25594 0.70281 0.0
C1161 C 0.93486 0.25491 0.68806 0.0
C1162 C 0.84033 0.27647 0.72056 0.0
C1163 C 0.82424 0.257 0.72342 0.0
C1164 C 0.86363 0.27215 0.71332 0.0
C1165 C 0.87095 0.24832 0.70835 0.0
C1166 C 0.85524 0.22873 0.71275 0.0
C1167 C 0.83204 0.23305 0.72041 0.0
H1168 H 0.52081 0.17354 0.3856 0.0
H1169 H 0.48752 0.19647 0.45378 0.0
H1170 H 0.52528 0.13262 0.40264 0.0
H1171 H 0.49159 0.15555 0.47058 0.0
H1172 H 0.50871 0.0859 0.50336 0.0
H1173 H 0.51988 0.12515 0.48515 0.0
H1174 H 0.49822 0.0988 0.41283 0.0
H1175 H 0.48734 0.05961 0.4312 0.0
C1176 C 0.51448 0.16989 0.40425 0.0
C1177 C 0.50371 0.18829 0.41831 0.0
C1178 C 0.51709 0.14642 0.414 0.0
C1179 C 0.50901 0.14081 0.43805 0.0
C1180 C 0.49856 0.15935 0.45221 0.0
C1181 C 0.49598 0.18279 0.44249 0.0
C1182 C 0.50774 0.08808 0.48336 0.0
C1183 C 0.49742 0.06975 0.4686 0.0
C1184 C 0.51365 0.11072 0.47298 0.0
C1185 C 0.50929 0.11535 0.44766 0.0
C1186 C 0.50178 0.09591 0.43239 0.0
C1187 C 0.49578 0.07331 0.44284 0.0
H1188 H 0.55511 0.75448 0.1868 0.0
H1189 H 0.59356 0.73431 0.12065 0.0
H1190 H 0.5914 0.75224 0.21092 0.0
H1191 H 0.63036 0.73283 0.1449 0.0
H1192 H 0.68579 0.71029 0.20677 0.0
H1193 H 0.65083 0.7102 0.17902 0.0
H1194 H 0.62701 0.77655 0.21361 0.0
H1195 H 0.66084 0.77591 0.2415 0.0
C1196 C 0.57138 0.74982 0.17734 0.0
C1197 C 0.57153 0.74485 0.15178 0.0
C1198 C 0.59222 0.74857 0.19116 0.0
C1199 C 0.61379 0.74266 0.17972 0.0
C1200 C 0.61397 0.73731 0.15421 0.0
C1201 C 0.59296 0.73837 0.14034 0.0
C1202 C 0.67296 0.72473 0.20819 0.0
C1203 C 0.67545 0.74277 0.22647 0.0
C1204 C 0.65312 0.7248 0.19236 0.0
C1205 C 0.63594 0.7431 0.19457 0.0
C1206 C 0.63946 0.76177 0.212 0.0
C1207 C 0.65885 0.76146 0.2279 0.0
H1208 H 0.01068 0.17237 0.61577 0.0
H1209 H 0.98447 0.19849 0.54509 0.0
H1210 H 0.01819 0.13259 0.59716 0.0
H1211 H 0.99183 0.15889 0.52673 0.0
H1212 H 0.02785 0.0974 0.49259 0.0
H1213 H 0.02822 0.13493 0.51664 0.0
H1214 H 0.99406 0.09738 0.57766 0.0
H1215 H 0.99389 0.05959 0.5535 0.0
C1216 C 0.00639 0.16959 0.59633 0.0
C1217 C -0.00291 0.18859 0.58181 0.0
C1218 C 0.01073 0.14686 0.58574 0.0
C1219 C 0.00598 0.14287 0.56046 0.0
C1220 C -0.0038 0.16169 0.54615 0.0
C1221 C 0.9918 0.18431 0.55671 0.0
C1222 C 0.02095 0.09703 0.51138 0.0
C1223 C 0.01052 0.07576 0.52113 0.0
C1224 C 0.02108 0.11849 0.52507 0.0
C1225 C 0.01059 0.11913 0.54868 0.0
C1226 C 0.00218 0.09735 0.55943 0.0
C1227 C 0.00217 0.07573 0.54569 0.0
H1228 H 0.57104 0.28061 0.33764 0.0
H1229 H 0.58518 0.20355 0.33539 0.0
H1230 H 0.60909 0.28901 0.318 0.0
H1231 H 0.62323 0.212 0.31487 0.0
H1232 H 0.6993 0.24488 0.2921 0.0
H1233 H 0.6645 0.23217 0.3173 0.0
H1234 H 0.62097 0.28168 0.27518 0.0
H1235 H 0.65508 0.29429 0.25123 0.0
C1236 C 0.58222 0.26544 0.33283 0.0
C1237 C 0.5748 0.2414 0.33749 0.0
C1238 C 0.60408 0.27023 0.32161 0.0
C1239 C 0.61895 0.25111 0.31436 0.0
C1240 C 0.61216 0.22709 0.32019 0.0
C1241 C 0.59028 0.22228 0.33172 0.0
C1242 C 0.68217 0.25264 0.28838 0.0
C1243 C 0.68001 0.27082 0.27024 0.0
C1244 C 0.66231 0.24552 0.30267 0.0
C1245 C 0.64011 0.25652 0.2987 0.0
C1246 C 0.63791 0.27348 0.27937 0.0
C1247 C 0.65752 0.28055 0.26545 0.0
H1248 H 0.53244 0.80289 0.04993 0.0
H1249 H 0.46862 0.8119 0.09323 0.0
H1250 H 0.52788 0.84409 0.0331 0.0
H1251 H 0.464 0.8525 0.07626 0.0
H1252 H 0.48463 0.93168 0.0755 0.0
H1253 H 0.48897 0.889 0.08524 0.0
H1254 H 0.50121 0.87316 0.00774 0.0
H1255 H 0.49719 0.91668 -0.00221 0.0
C1256 C 0.51724 0.81344 0.05548 0.0
C1257 C 0.50114 0.80437 0.07327 0.0
C1258 C 0.51461 0.83694 0.04578 0.0
C1259 C 0.49586 0.85159 0.05377 0.0
C1260 C 0.47893 0.84178 0.0702 0.0
C1261 C 0.48156 0.81849 0.07988 0.0
C1262 C 0.48811 0.9192 0.0604 0.0
C1263 C 0.49006 0.92748 0.03577 0.0
C1264 C 0.49055 0.89469 0.06602 0.0
C1265 C 0.49485 0.87771 0.04717 0.0
C1266 C 0.49776 0.88594 0.02258 0.0
C1267 C 0.49542 0.91074 0.0169 0.0
H1268 H 0.91881 0.70558 0.84673 0.0
H1269 H 0.94165 0.77454 0.8158 0.0
H1270 H 0.88227 0.70745 0.82286 0.0
H1271 H 0.90454 0.77649 0.79166 0.0
H1272 H 0.81861 0.77904 0.78707 0.0
H1273 H 0.86023 0.7807 0.80073 0.0
H1274 H 0.86817 0.70543 0.7796 0.0
H1275 H 0.82661 0.70375 0.76667 0.0
C1276 C 0.9161 0.7211 0.83465 0.0
C1277 C 0.93318 0.73987 0.83313 0.0
C1278 C 0.89518 0.72209 0.82077 0.0
C1279 C 0.89055 0.742 0.80511 0.0
C1280 C 0.90762 0.76087 0.8035 0.0
C1281 C 0.92888 0.7597 0.8172 0.0
C1282 C 0.82961 0.76322 0.78444 0.0
C1283 C 0.81956 0.74129 0.77572 0.0
C1284 C 0.85339 0.76411 0.79237 0.0
C1285 C 0.86738 0.74305 0.79169 0.0
C1286 C 0.85774 0.72181 0.78084 0.0
C1287 C 0.83404 0.72089 0.77319 0.0
H1288 H 0.89621 0.02124 0.81435 0.0
H1289 H 0.94575 0.96489 0.79508 0.0
H1290 H 0.91407 0.02441 0.85536 0.0
H1291 H 0.96381 0.96828 0.83659 0.0
H1292 H -0.00189 0.00639 0.91094 0.0
H1293 H 0.98603 0.00078 0.86707 0.0
H1294 H 0.91306 0.99234 0.89018 0.0
H1295 H 0.9249 -0.00191 0.93322 0.0
C1296 C 0.91114 0.00974 0.81871 0.0
C1297 C 0.91941 0.99264 0.8015 0.0
C1298 C 0.92132 0.01151 0.84227 0.0
C1299 C 0.94015 -0.0036 0.84919 0.0
C1300 C 0.94932 0.98013 0.83166 0.0
C1301 C 0.9389 0.97814 0.80801 0.0
C1302 C 0.97962 0.00289 0.90649 0.0
C1303 C 0.96236 0.00307 0.92528 0.0
C1304 C 0.97272 -0.00027 0.88153 0.0
C1305 C 0.94856 -0.00334 0.87531 0.0
C1306 C 0.93171 0.99528 0.89439 0.0
C1307 C 0.93851 -0.00149 0.91902 0.0
H1308 H 0.78102 0.15542 0.57437 0.0
H1309 H 0.70929 0.17164 0.55229 0.0
H1310 H 0.77263 0.16962 0.61646 0.0
H1311 H 0.7001 0.18393 0.59461 0.0
H1312 H 0.70911 0.24172 0.65643 0.0
H1313 H 0.70871 0.2176 0.6189 0.0
H1314 H 0.75266 0.16386 0.6549 0.0
H1315 H 0.75361 0.18886 0.69251 0.0
C1316 C 0.76342 0.16187 0.57874 0.0
C1317 C 0.74595 0.16315 0.56026 0.0
C1318 C 0.75842 0.16955 0.60287 0.0
C1319 C 0.73563 0.1779 0.60899 0.0
C1320 C 0.71795 0.17812 0.59048 0.0
C1321 C 0.72319 0.1712 0.56625 0.0
C1322 C 0.71808 0.22438 0.65653 0.0
C1323 C 0.73178 0.21734 0.67702 0.0
C1324 C 0.71778 0.21041 0.63502 0.0
C1325 C 0.7312 0.18905 0.63361 0.0
C1326 C 0.74269 0.18058 0.65519 0.0
C1327 C 0.74296 0.19466 0.67683 0.0
H1328 H 0.59033 0.96719 0.30845 0.0
H1329 H 0.55361 0.03551 0.30191 0.0
H1330 H 0.57257 0.96048 0.34901 0.0
H1331 H 0.53623 0.02905 0.34312 0.0
H1332 H 0.50055 -0.00061 0.41551 0.0
H1333 H 0.51017 0.00276 0.37112 0.0
H1334 H 0.58253 0.98273 0.38724 0.0
H1335 H 0.57308 0.97895 0.4308 0.0
C1336 C 0.57824 0.98064 0.31561 0.0
C1337 C 0.57364 0.00207 0.30235 0.0
C1338 C 0.5681 0.97682 0.33881 0.0
C1339 C 0.55344 0.99449 0.34933 0.0
C1340 C 0.54745 0.01514 0.33535 0.0
C1341 C 0.55745 0.01887 0.31188 0.0
C1342 C 0.51845 0.99564 0.40943 0.0
C1343 C 0.53596 0.98855 0.42655 0.0
C1344 C 0.52392 -0.0024 0.38414 0.0
C1345 C 0.54694 0.99254 0.37579 0.0
C1346 C 0.56444 0.986 0.39305 0.0
C1347 C 0.55901 0.98393 0.41807 0.0
H1348 H 0.73149 0.87495 0.08722 0.0
H1349 H 0.73165 0.80001 0.06292 0.0
H1350 H 0.72661 0.86163 0.13006 0.0
H1351 H 0.72767 0.78663 0.10581 0.0
H1352 H 0.72093 0.76172 0.17988 0.0
H1353 H 0.70532 0.783 0.14348 0.0
H1354 H 0.75242 0.84391 0.15917 0.0
H1355 H 0.76706 0.82294 0.19558 0.0
C1356 C 0.73042 0.8556 0.09101 0.0
C1357 C 0.73224 0.83849 0.07169 0.0
C1358 C 0.72753 0.84798 0.11561 0.0
C1359 C 0.72665 0.82305 0.12151 0.0
C1360 C 0.72771 0.80599 0.10201 0.0
C1361 C 0.73037 0.81362 0.07738 0.0
C1362 C 0.72668 0.78031 0.17635 0.0
C1363 C 0.74535 0.79069 0.19012 0.0
C1364 C 0.71815 0.79232 0.15524 0.0
C1365 C 0.72838 0.8147 0.14777 0.0
C1366 C 0.74419 0.82665 0.1641 0.0
C1367 C 0.75255 0.8147 0.18517 0.0
H1368 H 0.87881 0.00524 0.66238 0.0
H1369 H 0.95 0.00904 0.69229 0.0
H1370 H 0.89471 0.0086 0.62027 0.0
H1371 H 0.96589 0.0116 0.65047 0.0
H1372 H 0.99431 0.02271 0.57824 0.0
H1373 H 0.97033 0.03546 0.6135 0.0
H1374 H 0.91633 0.98256 0.59285 0.0
H1375 H 0.94001 0.97082 0.55714 0.0
C1376 C 0.89785 0.00674 0.65995 0.0
C1377 C 0.9132 0.00671 0.68062 0.0
C1378 C 0.90694 0.00877 0.63584 0.0
C1379 C 0.93156 0.01063 0.63192 0.0
C1380 C 0.9468 0.0109 0.65272 0.0
C1381 C 0.93772 0.0091 0.67675 0.0
C1382 C 0.97659 0.0151 0.58035 0.0
C1383 C 0.96876 -0.00389 0.56493 0.0
C1384 C 0.96307 0.02194 0.60085 0.0
C1385 C 0.94177 0.00945 0.60648 0.0
C1386 C 0.93264 0.99255 0.58918 0.0
C1387 C 0.94613 0.98587 0.5686 0.0
H1388 H 0.76246 0.18102 0.45438 0.0
H1389 H 0.71273 0.13772 0.4113 0.0
H1390 H 0.76531 0.21037 0.4204 0.0
H1391 H 0.71601 0.16664 0.37723 0.0
H1392 H 0.71756 0.2229 0.32075 0.0
H1393 H 0.70865 0.20754 0.36217 0.0
H1394 H 0.78362 0.20809 0.37952 0.0
H1395 H 0.79224 0.22428 0.33829 0.0
C1396 C 0.75206 0.17783 0.43771 0.0
C1397 C 0.73761 0.1569 0.43534 0.0
C1398 C 0.75367 0.19466 0.4183 0.0
C1399 C 0.74092 0.19083 0.39613 0.0
C1400 C 0.72575 0.17038 0.39422 0.0
C1401 C 0.72405 0.15364 0.41365 0.0
C1402 C 0.73194 0.22113 0.33388 0.0
C1403 C 0.75551 0.22512 0.32651 0.0
C1404 C 0.72691 0.21184 0.35747 0.0
C1405 C 0.74545 0.20625 0.37398 0.0
C1406 C 0.76891 0.21233 0.36733 0.0
C1407 C 0.77389 0.22155 0.34372 0.0
H1408 H 0.56166 0.96784 0.18494 0.0
H1409 H 0.60494 0.03335 0.18101 0.0
H1410 H 0.54671 0.97599 0.14294 0.0
H1411 H 0.5896 0.04154 0.13937 0.0
H1412 H 0.51834 0.05237 0.08619 0.0
H1413 H 0.54182 0.04835 0.1244 0.0
H1414 H 0.57098 0.98133 0.09689 0.0
H1415 H 0.54837 0.9858 0.05835 0.0
C1416 C 0.5679 0.98392 0.17514 0.0
C1417 C 0.58451 -0.00012 0.18606 0.0
C1418 C 0.55954 0.98846 0.15118 0.0
C1419 C 0.56737 0.0092 0.13814 0.0
C1420 C 0.58357 0.02538 0.14918 0.0
C1421 C 0.59227 0.02064 0.1729 0.0
C1422 C 0.53064 0.03745 0.08791 0.0
C1423 C 0.53174 0.01947 0.06948 0.0
C1424 C 0.54385 0.03506 0.10971 0.0
C1425 C 0.55773 0.01436 0.11342 0.0
C1426 C 0.56024 -0.00264 0.09425 0.0
C1427 C 0.54757 0.0001 0.07218 0.0
H1428 H 0.75235 0.88642 0.91026 0.0
H1429 H 0.73764 0.8223 0.9544 0.0
H1430 H 0.74621 0.86299 0.87247 0.0
H1431 H 0.73272 0.79844 0.91664 0.0
H1432 H 0.70655 0.76286 0.84773 0.0
H1433 H 0.70776 0.79039 0.88324 0.0
H1434 H 0.76174 0.83389 0.84634 0.0
H1435 H 0.7591 0.80722 0.81028 0.0
C1436 C 0.74802 0.86722 0.9119 0.0
C1437 C 0.74529 0.85627 0.93537 0.0
C1438 C 0.7446 0.8537 0.89015 0.0
C1439 C 0.73869 0.82876 0.89128 0.0
C1440 C 0.73655 0.81772 0.91486 0.0
C1441 C 0.73964 0.83134 0.93661 0.0
C1442 C 0.71814 0.77874 0.84705 0.0
C1443 C 0.73266 0.78301 0.82633 0.0
C1444 C 0.71917 0.79433 0.86755 0.0
C1445 C 0.7353 0.81413 0.8681 0.0
C1446 C 0.74894 0.81903 0.84669 0.0
C1447 C 0.74743 0.80377 0.82592 0.0
H1448 H 0.83496 0.87043 0.01523 0.0
H1449 H 0.802 0.9409 0.01038 0.0
H1450 H 0.87373 0.89021 0.02057 0.0
H1451 H 0.84069 0.96055 0.0154 0.0
H1452 H 0.90654 0.99111 0.04755 0.0
H1453 H 0.87067 0.96594 0.04819 0.0
H1454 H 0.90285 0.91574 -0.00303 0.0
H1455 H 0.93909 0.94088 -0.0033 0.0
C1456 C 0.83598 0.89013 0.01522 0.0
C1457 C 0.81535 0.90411 0.01252 0.0
C1458 C 0.85821 0.90142 0.01823 0.0
C1459 C 0.86025 0.92691 0.01876 0.0
C1460 C 0.83966 0.94085 0.01566 0.0
C1461 C 0.81748 0.92959 0.01257 0.0
C1462 C 0.90622 0.97429 0.03703 0.0
C1463 C 0.92549 0.96803 0.02193 0.0
C1464 C 0.88558 0.96003 0.03716 0.0
C1465 C 0.88368 0.93925 0.02208 0.0
C1466 C 0.90376 0.93171 0.00873 0.0
C1467 C 0.92457 0.946 0.0087 0.0
H1468 H 0.3391 0.61664 0.0016 0.0
H1469 H 0.30193 0.5477 0.99358 0.0
H1470 H 0.37677 0.59596 -0.00024 0.0
H1471 H 0.34015 0.52683 0.99188 0.0
H1472 H 0.41636 0.51277 0.9542 0.0
H1473 H 0.37551 0.52646 0.9614 0.0
H1474 H 0.39962 0.56677 0.02586 0.0
H1475 H 0.4401 0.55323 0.01847 0.0
C1476 C 0.33895 0.59702 -0.0004 0.0
C1477 C 0.31753 0.58381 -0.00231 0.0
C1478 C 0.36056 0.58516 -0.00128 0.0
C1479 C 0.36131 0.55979 0.99588 0.0
C1480 C 0.33997 0.54643 0.99401 0.0
C1481 C 0.31818 0.55836 0.99502 0.0
C1482 C 0.41261 0.52417 0.97009 0.0
C1483 C 0.43099 0.53227 0.98571 0.0
C1484 C 0.38939 0.53187 0.97431 0.0
C1485 C 0.38457 0.54788 0.994 0.0
C1486 C 0.40294 0.55469 0.01038 0.0
C1487 C 0.42598 0.54696 0.00622 0.0
H1488 H 0.16099 0.57232 0.76998 0.0
H1489 H 0.13763 0.58058 0.69379 0.0
H1490 H 0.18093 0.61199 0.76779 0.0
H1491 H 0.15814 0.62012 0.69161 0.0
H1492 H 0.23749 0.66048 0.7035 0.0
H1493 H 0.20827 0.62721 0.69959 0.0
H1494 H 0.1656 0.66005 0.75668 0.0
H1495 H 0.19427 0.69382 0.7599 0.0
C1496 C 0.16002 0.58266 0.75285 0.0
C1497 C 0.14791 0.57342 0.73202 0.0
C1498 C 0.17122 0.60535 0.7517 0.0
C1499 C 0.17074 0.61889 0.7296 0.0
C1500 C 0.15847 0.60988 0.70883 0.0
C1501 C 0.14686 0.58735 0.71012 0.0
C1502 C 0.22146 0.66089 0.71457 0.0
C1503 C 0.21796 0.67943 0.732 0.0
C1504 C 0.20481 0.64204 0.71229 0.0
C1505 C 0.18495 0.64131 0.72792 0.0
C1506 C 0.18081 0.66051 0.74441 0.0
C1507 C 0.19711 0.67972 0.74618 0.0
H1508 H 0.18459 0.44313 0.4947 0.0
H1509 H 0.15358 0.38762 0.54185 0.0
H1510 H 0.14741 0.46532 0.49554 0.0
H1511 H 0.11659 0.41013 0.54331 0.0
H1512 H 0.04965 0.43733 0.49757 0.0
H1513 H 0.08527 0.41787 0.51352 0.0
H1514 H 0.11968 0.48836 0.52019 0.0
H1515 H 0.08402 0.50753 0.50392 0.0
C1516 C 0.17 0.43595 0.50566 0.0
C1517 C 0.17194 0.41358 0.51803 0.0
C1518 C 0.14871 0.44874 0.50634 0.0
C1519 C 0.129 0.43954 0.51963 0.0
C1520 C 0.13132 0.4176 0.53275 0.0
C1521 C 0.15252 0.40472 0.53188 0.0
C1522 C 0.06434 0.44866 0.50385 0.0
C1523 C 0.06418 0.47381 0.49973 0.0
C1524 C 0.0849 0.43756 0.51276 0.0
C1525 C 0.10558 0.45155 0.51743 0.0
C1526 C 0.10425 0.47705 0.51619 0.0
C1527 C 0.08372 0.48807 0.50731 0.0
H1528 H 0.82333 0.93891 0.77909 0.0
H1529 H 0.86297 0.90355 0.72116 0.0
H1530 H 0.80284 0.9005 0.78827 0.0
H1531 H 0.84195 0.86564 0.72944 0.0
H1532 H 0.80476 0.79849 0.74227 0.0
H1533 H 0.83237 0.83132 0.75402 0.0
H1534 H 0.77276 0.87803 0.76856 0.0
H1535 H 0.74573 0.84506 0.75774 0.0
C1536 C 0.82766 0.92294 0.76832 0.0
C1537 C 0.84449 0.92438 0.74912 0.0
C1538 C 0.81596 0.90087 0.7736 0.0
C1539 C 0.82055 0.87982 0.75956 0.0
C1540 C 0.83814 0.88118 0.74105 0.0
C1541 C 0.85002 0.90311 0.736 0.0
C1542 C 0.79773 0.81536 0.7494 0.0
C1543 C 0.77323 0.81941 0.7491 0.0
C1544 C 0.81349 0.83437 0.75567 0.0
C1545 C 0.80487 0.85773 0.76134 0.0
C1546 C 0.78024 0.86049 0.76423 0.0
C1547 C 0.76461 0.84152 0.75809 0.0
H1548 H 0.66581 0.12242 0.54114 0.0
H1549 H 0.68533 0.07025 0.48488 0.0
H1550 H 0.62622 0.10373 0.54361 0.0
H1551 H 0.64554 0.05199 0.48712 0.0
H1552 H 0.5644 0.04617 0.47943 0.0
H1553 H 0.60072 0.07109 0.47839 0.0
H1554 H 0.61287 0.05575 0.55607 0.0
H1555 H 0.577 0.02979 0.55679 0.0
C1556 C 0.6616 0.10706 0.52923 0.0
C1557 C 0.67859 0.09774 0.5128 0.0
C1558 C 0.63903 0.09644 0.53071 0.0
C1559 C 0.63301 0.07669 0.51542 0.0
C1560 C 0.64987 0.06743 0.49888 0.0
C1561 C 0.67259 0.07775 0.49773 0.0
C1562 C 0.57442 0.04885 0.49647 0.0
C1563 C 0.56799 0.03644 0.51829 0.0
C1564 C 0.59522 0.06283 0.49579 0.0
C1565 C 0.60943 0.06508 0.51711 0.0
C1566 C 0.60203 0.05421 0.53946 0.0
C1567 C 0.58158 0.03957 0.53994 0.0
H1568 H 0.19128 0.45476 0.76157 0.0
H1569 H 0.13299 0.40736 0.73957 0.0
H1570 H 0.21812 0.42008 0.76065 0.0
H1571 H 0.15991 0.37305 0.73842 0.0
H1572 H 0.21586 0.31953 0.72142 0.0
H1573 H 0.20001 0.36016 0.71382 0.0
H1574 H 0.21468 0.37973 0.7901 0.0
H1575 H 0.22973 0.33884 0.7979 0.0
C1576 C 0.18425 0.43703 0.75638 0.0
C1577 C 0.16002 0.43368 0.75083 0.0
C1578 C 0.19962 0.41735 0.75571 0.0
C1579 C 0.19102 0.39421 0.74912 0.0
C1580 C 0.16696 0.39093 0.74304 0.0
C1581 C 0.15155 0.41049 0.74399 0.0
C1582 C 0.21658 0.3329 0.73621 0.0
C1583 C 0.22382 0.32634 0.76023 0.0
C1584 C 0.20744 0.35598 0.7319 0.0
C1585 C 0.20611 0.37278 0.75146 0.0
C1586 C 0.21572 0.36701 0.77478 0.0
C1587 C 0.22426 0.34374 0.77925 0.0
H1588 H 0.37854 0.59643 0.23587 0.0
H1589 H 0.31136 0.55816 0.24253 0.0
H1590 H 0.35771 0.63508 0.23298 0.0
H1591 H 0.29066 0.59665 0.23997 0.0
H1592 H 0.25402 0.66291 0.22463 0.0
H1593 H 0.28091 0.63051 0.21244 0.0
H1594 H 0.33467 0.66031 0.26158 0.0
H1595 H 0.30783 0.69289 0.27315 0.0
C1596 C 0.35933 0.59624 0.23664 0.0
C1597 C 0.3466 0.57419 0.23952 0.0
C1598 C 0.34743 0.61839 0.23493 0.0
C1599 C 0.32252 0.61896 0.2359 0.0
C1600 C 0.30984 0.59686 0.23852 0.0
C1601 C 0.32171 0.57477 0.24033 0.0
C1602 C 0.27207 0.66324 0.23166 0.0
C1603 C 0.27901 0.68028 0.24969 0.0
C1604 C 0.28733 0.64449 0.22505 0.0
C1605 C 0.30962 0.64239 0.23667 0.0
C1606 C 0.3176 0.66131 0.25234 0.0
C1607 C 0.30232 0.6801 0.25887 0.0
H1608 H 0.47185 0.6804 0.58772 0.0
H1609 H 0.54761 0.68236 0.57529 0.0
H1610 H 0.46993 0.63903 0.57185 0.0
H1611 H 0.54561 0.64055 0.55941 0.0
H1612 H 0.51518 0.57986 0.50138 0.0
H1613 H 0.5277 0.61735 0.52264 0.0
H1614 H 0.48321 0.59799 0.58501 0.0
H1615 H 0.47057 0.56093 0.56355 0.0
C1616 C 0.48814 0.67199 0.5817 0.0
C1617 C 0.5099 0.68469 0.58298 0.0
C1618 C 0.48707 0.64814 0.57279 0.0
C1619 C 0.50771 0.63629 0.56489 0.0
C1620 C 0.52944 0.64913 0.56553 0.0
C1621 C 0.53054 0.67308 0.57459 0.0
C1622 C 0.50917 0.58304 0.5202 0.0
C1623 C 0.49208 0.5675 0.53098 0.0
C1624 C 0.51612 0.60463 0.53228 0.0
C1625 C 0.50587 0.61095 0.55518 0.0
C1626 C 0.49099 0.59388 0.56713 0.0
C1627 C 0.48407 0.57243 0.55507 0.0
H1628 H 0.58525 0.21866 0.86306 0.0
H1629 H 0.55047 0.25776 0.80374 0.0
H1630 H 0.62269 0.22188 0.84099 0.0
H1631 H 0.5885 0.26117 0.78156 0.0
H1632 H 0.66441 0.22806 0.74873 0.0
H1633 H 0.62281 0.23065 0.76268 0.0
H1634 H 0.64681 0.26198 0.83209 0.0
H1635 H 0.68782 0.25905 0.81842 0.0
C1636 C 0.5856 0.22783 0.84522 0.0
C1637 C 0.56509 0.23821 0.83523 0.0
C1638 C 0.60701 0.22972 0.83264 0.0
C1639 C 0.6084 0.24217 0.80989 0.0
C1640 C 0.58773 0.25155 0.79914 0.0
C1641 C 0.56611 0.24958 0.81179 0.0
C1642 C 0.66051 0.23614 0.76659 0.0
C1643 C 0.67895 0.24303 0.7828 0.0
C1644 C 0.6369 0.23764 0.77452 0.0
C1645 C 0.63189 0.24601 0.7986 0.0
C1646 C 0.65036 0.25508 0.81361 0.0
C1647 C 0.67371 0.25346 0.80582 0.0
H1648 H 0.03427 0.33592 0.10101 0.0
H1649 H 0.96804 0.30807 0.07105 0.0
H1650 H 0.02625 0.37552 0.08313 0.0
H1651 H 0.96002 0.34817 0.05295 0.0
H1652 H 0.98765 0.41179 0.99638 0.0
H1653 H 0.9788 0.37439 0.01925 0.0
H1654 H -0.00162 0.41034 0.08777 0.0
H1655 H 0.00747 0.44758 0.06467 0.0
C1656 C 0.01794 0.33823 0.09064 0.0
C1657 C 0.00179 0.31879 0.08754 0.0
C1658 C 0.01317 0.3611 0.08067 0.0
C1659 C 0.99219 0.36517 0.06717 0.0
C1660 C 0.97618 0.34564 0.06354 0.0
C1661 C 0.98087 0.32268 0.07377 0.0
C1662 C 0.98857 0.41209 0.01651 0.0
C1663 C -0.00186 0.43249 0.02885 0.0
C1664 C 0.9837 0.39059 0.02961 0.0
C1665 C 0.98866 0.38924 0.05518 0.0
C1666 C 0.99488 0.41075 0.06796 0.0
C1667 C -0.00034 0.43224 0.05484 0.0
H1668 H 0.90722 0.73716 0.38044 0.0
H1669 H 0.94176 0.74974 0.30987 0.0
H1670 H 0.86924 0.74845 0.36205 0.0
H1671 H 0.90392 0.76003 0.29129 0.0
H1672 H 0.84036 0.79615 0.26544 0.0
H1673 H 0.87559 0.7916 0.29135 0.0
H1674 H 0.83992 0.7346 0.33304 0.0
H1675 H 0.80437 0.74022 0.30801 0.0
C1676 C 0.90661 0.74202 0.36093 0.0
C1677 C 0.92739 0.74274 0.34657 0.0
C1678 C 0.8849 0.74854 0.35043 0.0
C1679 C 0.88364 0.75563 0.32535 0.0
C1680 C 0.90438 0.75549 0.31089 0.0
C1681 C 0.92604 0.74928 0.32142 0.0
C1682 C 0.83989 0.78328 0.28072 0.0
C1683 C 0.81985 0.76846 0.28473 0.0
C1684 C 0.86009 0.78042 0.29534 0.0
C1685 C 0.86077 0.76222 0.31374 0.0
C1686 C 0.83998 0.74881 0.31907 0.0
C1687 C 0.81958 0.75206 0.30477 0.0
H1688 H 0.51266 0.32357 0.87811 0.0
H1689 H 0.47085 0.30376 0.9425 0.0
H1690 H 0.50987 0.36649 0.88949 0.0
H1691 H 0.46846 0.34634 0.95399 0.0
H1692 H 0.45038 0.42131 0.96365 0.0
H1693 H 0.4498 0.38358 0.9397 0.0
H1694 H 0.52415 0.39413 0.92255 0.0
H1695 H 0.52421 0.4325 0.94553 0.0
C1696 C 0.50295 0.32837 0.89472 0.0
C1697 C 0.49184 0.31032 0.90937 0.0
C1698 C 0.50134 0.35291 0.90116 0.0
C1699 C 0.4885 0.3598 0.92228 0.0
C1700 C 0.47786 0.34166 0.93716 0.0
C1701 C 0.4795 0.31721 0.93077 0.0
C1702 C 0.46619 0.41607 0.95367 0.0
C1703 C 0.4873 0.42954 0.95623 0.0
C1704 C 0.46601 0.39438 0.94031 0.0
C1705 C 0.48712 0.38558 0.92997 0.0
C1706 C 0.50762 0.40044 0.93034 0.0
C1707 C 0.50766 0.42242 0.94337 0.0
H1708 H 0.93668 0.27878 0.17633 0.0
H1709 H 0.89818 0.23261 0.12491 0.0
H1710 H 0.90034 0.28484 0.20006 0.0
H1711 H 0.86224 0.23757 0.1491 0.0
H1712 H 0.79801 0.24728 0.19111 0.0
H1713 H 0.83052 0.26095 0.16419 0.0
H1714 H 0.87798 0.26087 0.22757 0.0
H1715 H 0.84532 0.24828 0.25409 0.0
C1716 C 0.92044 0.26988 0.17015 0.0
C1717 C 0.92035 0.25491 0.14899 0.0
C1718 C 0.89958 0.27338 0.18371 0.0
C1719 C 0.87822 0.26162 0.17668 0.0
C1720 C 0.87809 0.24736 0.15494 0.0
C1721 C 0.89884 0.2442 0.14118 0.0
C1722 C 0.8151 0.25166 0.19935 0.0
C1723 C 0.81924 0.24696 0.22457 0.0
C1724 C 0.83389 0.25896 0.18391 0.0
C1725 C 0.85715 0.26131 0.19349 0.0
C1726 C 0.86047 0.2593 0.21935 0.0
C1727 C 0.84171 0.25207 0.23468 0.0
H1728 H 0.97947 0.67794 0.39991 0.0
H1729 H 0.03265 0.70394 0.45188 0.0
H1730 H 0.97882 0.63849 0.42066 0.0
H1731 H 0.03201 0.66424 0.47262 0.0
H1732 H 0.04944 0.58021 0.46647 0.0
H1733 H 0.04584 0.62323 0.45593 0.0
H1734 H 0.96954 0.61697 0.4618 0.0
H1735 H 0.9733 0.57373 0.4722 0.0
C1736 C 0.99087 0.67529 0.41592 0.0
C1737 C 0.00638 0.69388 0.42408 0.0
C1738 C 0.99029 0.65279 0.42795 0.0
C1739 C 0.0054 0.64836 0.44819 0.0
C1740 C 0.02027 0.66723 0.45696 0.0
C1741 C 0.02062 0.68989 0.44512 0.0
C1742 C 0.03197 0.58824 0.46613 0.0
C1743 C 0.01164 0.57391 0.47057 0.0
C1744 C 0.0299 0.61283 0.46023 0.0
C1745 C 0.00743 0.62342 0.45822 0.0
C1746 C 0.98708 0.60924 0.46338 0.0
C1747 C 0.9892 0.58465 0.46964 0.0
H1748 H 0.55229 0.70796 0.69205 0.0
H1749 H 0.56439 0.77367 0.64953 0.0
H1750 H 0.59005 0.7145 0.71367 0.0
H1751 H 0.60228 0.77983 0.67051 0.0
H1752 H 0.65869 0.7989 0.72524 0.0
H1753 H 0.61863 0.79121 0.70974 0.0
H1754 H 0.63259 0.71406 0.70788 0.0
H1755 H 0.67265 0.72197 0.72375 0.0
C1756 C 0.56302 0.72377 0.68725 0.0
C1757 C 0.55517 0.74042 0.66921 0.0
C1758 C 0.58474 0.72746 0.69959 0.0
C1759 C 0.59918 0.74786 0.69413 0.0
C1760 C 0.59142 0.76426 0.67576 0.0
C1761 C 0.5697 0.76065 0.66356 0.0
C1762 C 0.65292 0.78024 0.72223 0.0
C1763 C 0.66869 0.76099 0.72616 0.0
C1764 C 0.63006 0.77583 0.71299 0.0
C1765 C 0.6224 0.75204 0.70709 0.0
C1766 C 0.63773 0.7326 0.71238 0.0
C1767 C 0.66065 0.73706 0.7218 0.0
H1768 H 0.54464 0.50765 0.70808 0.0
H1769 H 0.61093 0.48704 0.67427 0.0
H1770 H 0.52532 0.50633 0.66715 0.0
H1771 H 0.59179 0.48601 0.63381 0.0
H1772 H 0.54773 0.45541 0.57288 0.0
H1773 H 0.56131 0.45815 0.61557 0.0
H1774 H 0.52647 0.52727 0.62347 0.0
H1775 H 0.51243 0.52436 0.58005 0.0
C1776 C 0.55509 0.50288 0.69198 0.0
C1777 C 0.57927 0.49713 0.6945 0.0
C1778 C 0.54405 0.50232 0.66857 0.0
C1779 C 0.55697 0.49581 0.64737 0.0
C1780 C 0.58125 0.49066 0.64989 0.0
C1781 C 0.59224 0.49128 0.67312 0.0
C1782 C 0.54263 0.47107 0.58377 0.0
C1783 C 0.52925 0.4898 0.57309 0.0
C1784 C 0.55053 0.47269 0.6082 0.0
C1785 C 0.54543 0.49317 0.62266 0.0
C1786 C 0.53071 0.5113 0.61265 0.0
C1787 C 0.52263 0.50962 0.58792 0.0
H1788 H 0.77134 0.30711 0.95289 0.0
H1789 H 0.74916 0.37422 0.91866 0.0
H1790 H 0.77514 0.28859 0.91213 0.0
H1791 H 0.75432 0.35627 0.87754 0.0
H1792 H 0.73859 0.3026 0.81199 0.0
H1793 H 0.73815 0.32734 0.84959 0.0
H1794 H 0.79955 0.28901 0.87709 0.0
H1795 H 0.79872 0.26326 0.84025 0.0
C1796 C 0.76754 0.31793 0.93653 0.0
C1797 C 0.76002 0.34198 0.93877 0.0
C1798 C 0.76998 0.30748 0.91314 0.0
C1799 C 0.76557 0.32112 0.89146 0.0
C1800 C 0.75778 0.34522 0.8938 0.0
C1801 C 0.75483 0.35549 0.9173 0.0
C1802 C 0.75239 0.30008 0.8258 0.0
C1803 C 0.76862 0.28106 0.82353 0.0
C1804 C 0.75213 0.31418 0.84739 0.0
C1805 C 0.76841 0.30967 0.86671 0.0
C1806 C 0.78621 0.29233 0.863 0.0
C1807 C 0.78604 0.27785 0.84178 0.0
H1808 H 0.89837 0.53092 0.1805 0.0
H1809 H 0.95282 0.48195 0.2059 0.0
H1810 H 0.91862 0.53551 0.1411 0.0
H1811 H 0.97348 0.4869 0.16612 0.0
H1812 H 0.97615 0.47805 0.07759 0.0
H1813 H 0.96561 0.47523 0.12167 0.0
H1814 H 0.95481 0.55295 0.12342 0.0
H1815 H 0.9646 0.55554 0.07943 0.0
C1816 C 0.91487 0.52138 0.17779 0.0
C1817 C 0.92401 0.50609 0.19632 0.0
C1818 C 0.9266 0.52416 0.15524 0.0
C1819 C 0.94778 0.51175 0.15062 0.0
C1820 C 0.95718 0.49667 0.16922 0.0
C1821 C 0.94544 0.49397 0.19199 0.0
C1822 C 0.97217 0.49454 0.08767 0.0
C1823 C 0.97083 0.51694 0.07519 0.0
C1824 C 0.96615 0.49296 0.11285 0.0
C1825 C 0.95895 0.51383 0.12581 0.0
C1826 C 0.95974 0.5365 0.11373 0.0
C1827 C 0.96541 0.538 0.08862 0.0
H1828 H 0.78083 0.66434 0.44264 0.0
H1829 H 0.71656 0.63589 0.40883 0.0
H1830 H 0.78993 0.68669 0.40427 0.0
H1831 H 0.72552 0.65812 0.37099 0.0
H1832 H 0.74394 0.68679 0.30149 0.0
H1833 H 0.75402 0.65949 0.33573 0.0
H1834 H 0.77157 0.72161 0.38169 0.0
H1835 H 0.76181 0.74863 0.34735 0.0
C1836 C 0.76867 0.66286 0.42707 0.0
C1837 C 0.74802 0.64825 0.42871 0.0
C1838 C 0.77399 0.67549 0.40508 0.0
C1839 C 0.75882 0.6736 0.38436 0.0
C1840 C 0.73806 0.65924 0.38626 0.0
C1841 C 0.73274 0.64675 0.40812 0.0
C1842 C 0.75148 0.69445 0.31835 0.0
C1843 C 0.75188 0.71968 0.32204 0.0
C1844 C 0.75688 0.67889 0.33811 0.0
C1845 C 0.76264 0.68851 0.36166 0.0
C1846 C 0.76695 0.71364 0.36388 0.0
C1847 C 0.76152 0.72915 0.34414 0.0
H1848 H 0.61422 0.47511 0.8285 0.0
H1849 H 0.55971 0.52625 0.80857 0.0
H1850 H 0.59347 0.46628 0.86764 0.0
H1851 H 0.5389 0.51704 0.84712 0.0
H1852 H 0.49778 0.49346 0.90877 0.0
H1853 H 0.51792 0.48105 0.87074 0.0
H1854 H 0.58567 0.49668 0.90523 0.0
H1855 H 0.5654 0.5095 0.94297 0.0
C1856 C 0.59766 0.48418 0.83233 0.0
C1857 C 0.58867 0.50159 0.81566 0.0
C1858 C 0.5858 0.47903 0.85461 0.0
C1859 C 0.56445 0.4907 0.86019 0.0
C1860 C 0.5551 0.5074 0.84306 0.0
C1861 C 0.56717 0.51294 0.82115 0.0
C1862 C 0.517 0.49275 0.90869 0.0
C1863 C 0.53014 0.50222 0.92871 0.0
C1864 C 0.52851 0.48589 0.88689 0.0
C1865 C 0.55329 0.4884 0.88496 0.0
C1866 C 0.56656 0.4945 0.90626 0.0
C1867 C 0.55499 0.50162 0.92798 0.0
H1868 H 0.76297 0.35554 0.07064 0.0
H1869 H 0.72161 0.29695 0.03783 0.0
H1870 H 0.76765 0.33189 0.10832 0.0
H1871 H 0.7265 0.27302 0.07595 0.0
H1872 H 0.70927 0.2686 0.16339 0.0
H1873 H 0.71076 0.27873 0.11921 0.0
H1874 H 0.78581 0.29474 0.12601 0.0
H1875 H 0.78403 0.28495 0.17036 0.0
C1876 C 0.75506 0.33748 0.07136 0.0
C1877 C 0.74174 0.32821 0.0513 0.0
C1878 C 0.75802 0.32378 0.09289 0.0
C1879 C 0.74769 0.30048 0.09497 0.0
C1880 C 0.7347 0.29092 0.07478 0.0
C1881 C 0.73185 0.30464 0.05305 0.0
C1882 C 0.72622 0.27335 0.15511 0.0
C1883 C 0.74658 0.27588 0.16998 0.0
C1884 C 0.72712 0.27908 0.12985 0.0
C1885 C 0.74834 0.28783 0.11928 0.0
C1886 C 0.76918 0.28824 0.13379 0.0
C1887 C 0.76827 0.28237 0.15904 0.0
H1888 H 0.8724 0.50489 0.32957 0.0
H1889 H 0.92884 0.45801 0.30542 0.0
H1890 H 0.89023 0.50679 0.37134 0.0
H1891 H 0.9467 0.46035 0.34683 0.0
H1892 H 0.98497 0.51398 0.40151 0.0
H1893 H 0.95763 0.51189 0.36668 0.0
H1894 H 0.91118 0.46427 0.40856 0.0
H1895 H 0.93894 0.46643 0.4443 0.0
C1896 C 0.88843 0.49482 0.33333 0.0
C1897 C 0.89938 0.48132 0.31447 0.0
C1898 C 0.89837 0.49571 0.35715 0.0
C1899 C 0.91943 0.48333 0.36208 0.0
C1900 C 0.93008 0.46951 0.34337 0.0
C1901 C 0.91999 0.4683 0.31977 0.0
C1902 C 0.96889 0.5031 0.40346 0.0
C1903 C 0.96439 0.4896 0.42517 0.0
C1904 C 0.95321 0.50217 0.38364 0.0
C1905 C 0.93271 0.48771 0.38509 0.0
C1906 C 0.92709 0.47547 0.4073 0.0
C1907 C 0.9429 0.47658 0.42751 0.0
H1908 H 0.76195 0.62574 0.57952 0.0
H1909 H 0.74992 0.69631 0.54643 0.0
H1910 H 0.7609 0.64425 0.62104 0.0
H1911 H 0.74894 0.71448 0.58752 0.0
H1912 H 0.71649 0.73387 0.65919 0.0
H1913 H 0.71835 0.70852 0.6223 0.0
H1914 H 0.78452 0.67854 0.64802 0.0
H1915 H 0.78238 0.70404 0.68577 0.0
C1916 C 0.75924 0.64516 0.58108 0.0
C1917 C 0.75581 0.65957 0.5597 0.0
C1918 C 0.75876 0.65569 0.60479 0.0
C1919 C 0.75459 0.68068 0.6074 0.0
C1920 C 0.75185 0.69508 0.586 0.0
C1921 C 0.75248 0.68467 0.56245 0.0
C1922 C 0.73131 0.72165 0.65714 0.0
C1923 C 0.7496 0.72125 0.67487 0.0
C1924 C 0.73236 0.70717 0.63607 0.0
C1925 C 0.75187 0.69211 0.63208 0.0
C1926 C 0.76938 0.69018 0.65069 0.0
C1927 C 0.76821 0.70471 0.67215 0.0
H1928 H 0.69041 0.55876 0.49236 0.0
H1929 H 0.65992 0.62952 0.50483 0.0
H1930 H 0.65069 0.54103 0.4889 0.0
H1931 H 0.61998 0.61154 0.50121 0.0
H1932 H 0.55676 0.56284 0.46047 0.0
H1933 H 0.59369 0.5872 0.4659 0.0
H1934 H 0.61732 0.53661 0.52195 0.0
H1935 H 0.58105 0.51279 0.51667 0.0
C1936 C 0.67526 0.57055 0.49432 0.0
C1937 C 0.67834 0.59552 0.49894 0.0
C1938 C 0.65252 0.56039 0.49235 0.0
C1939 C 0.63233 0.57496 0.4948 0.0
C1940 C 0.63528 0.6 0.49906 0.0
C1941 C 0.65812 0.61018 0.50128 0.0
C1942 C 0.56974 0.55739 0.47421 0.0
C1943 C 0.56645 0.53582 0.48784 0.0
C1944 C 0.59075 0.57122 0.47734 0.0
C1945 C 0.60848 0.56338 0.49396 0.0
C1946 C 0.60418 0.54276 0.50868 0.0
C1947 C 0.58342 0.5292 0.50568 0.0
H1948 H 0.2014 0.94989 0.51576 0.0
H1949 H 0.1585 0.89531 0.47829 0.0
H1950 H 0.16703 0.97675 0.51752 0.0
H1951 H 0.12451 0.92206 0.47995 0.0
H1952 H 0.07077 0.9763 0.46931 0.0
H1953 H 0.11121 0.96276 0.46249 0.0
H1954 H 0.12676 0.97314 0.54044 0.0
H1955 H 0.08637 0.98747 0.54703 0.0
C1956 C 0.18474 0.94375 0.5077 0.0
C1957 C 0.1826 0.92053 0.49685 0.0
C1958 C 0.16516 0.95911 0.5087 0.0
C1959 C 0.14332 0.95161 0.49849 0.0
C1960 C 0.14132 0.92852 0.48744 0.0
C1961 C 0.16071 0.9131 0.48672 0.0
C1962 C 0.08324 0.97721 0.4846 0.0
C1963 C 0.07562 0.98323 0.50856 0.0
C1964 C 0.10625 0.969 0.48083 0.0
C1965 C 0.1219 0.96658 0.50103 0.0
C1966 C 0.11505 0.97493 0.52455 0.0
C1967 C 0.09197 0.98308 0.52833 0.0
H1968 H 0.31287 0.94102 0.74432 0.0
H1969 H 0.38155 0.90697 0.74098 0.0
H1970 H 0.295 0.90286 0.75741 0.0
H1971 H 0.3636 0.86848 0.75486 0.0
H1972 H 0.30908 0.8026 0.74294 0.0
H1973 H 0.33604 0.83738 0.73966 0.0
H1974 H 0.29377 0.87637 0.79309 0.0
H1975 H 0.26607 0.84194 0.79523 0.0
C1976 C 0.32414 0.92531 0.74645 0.0
C1977 C 0.34856 0.9269 0.74175 0.0
C1978 C 0.31399 0.90353 0.75434 0.0
C1979 C 0.32805 0.88288 0.75792 0.0
C1980 C 0.35241 0.88421 0.75248 0.0
C1981 C 0.36261 0.90612 0.74437 0.0
C1982 C 0.30611 0.81827 0.75468 0.0
C1983 C 0.28537 0.81999 0.76893 0.0
C1984 C 0.32155 0.83819 0.75281 0.0
C1985 C 0.31651 0.85982 0.7655 0.0
C1986 C 0.29756 0.86015 0.78246 0.0
C1987 C 0.28184 0.84047 0.78386 0.0
H1988 H 0.34306 0.11116 0.01398 0.0
H1989 H 0.30753 0.05664 0.96911 0.0
H1990 H 0.38041 0.09066 0.00846 0.0
H1991 H 0.34543 0.03646 0.96239 0.0
H1992 H 0.40637 0.9908 -0.0008 0.0
H1993 H 0.37126 0.01238 0.98576 0.0
H1994 H 0.41219 0.07954 0.98342 0.0
H1995 H 0.44672 0.05777 -0.00114 0.0
C1996 C 0.34334 0.09493 0.00257 0.0
C1997 C 0.32235 0.08532 0.99225 0.0
C1998 C 0.3649 0.08331 -0.00098 0.0
C1999 C 0.36615 0.06193 0.9847 0.0
C2000 C 0.34516 0.05273 0.97371 0.0
C2001 C 0.32343 0.06421 0.97762 0.0
C2002 C 0.40805 0.00995 0.99453 0.0
C2003 C 0.42921 0.02269 -0.00039 0.0
C2004 C 0.38788 0.02243 0.98688 0.0
C2005 C 0.38862 0.04792 0.98424 0.0
C2006 C 0.41079 0.06001 0.98597 0.0
C2007 C 0.43085 0.04751 0.99404 0.0
H2008 H 0.68231 0.5576 0.71612 0.0
H2009 H 0.62981 0.58891 0.76411 0.0
H2010 H 0.70252 0.59714 0.71288 0.0
H2011 H 0.65074 0.62785 0.76282 0.0
H2012 H 0.68597 0.69801 0.75818 0.0
H2013 H 0.66246 0.6632 0.74341 0.0
H2014 H 0.72699 0.62196 0.73562 0.0
H2015 H 0.75 0.65728 0.74854 0.0
C2016 C 0.67533 0.57298 0.72621 0.0
C2017 C 0.65475 0.5703 0.74058 0.0
C2018 C 0.68687 0.59567 0.72442 0.0
C2019 C 0.67848 0.61599 0.73765 0.0
C2020 C 0.65759 0.61308 0.75179 0.0
C2021 C 0.64571 0.59061 0.7529 0.0
C2022 C 0.69503 0.68196 0.75169 0.0
C2023 C 0.71972 0.68037 0.75399 0.0
C2024 C 0.68159 0.66169 0.74391 0.0
C2025 C 0.69262 0.63925 0.73906 0.0
C2026 C 0.71761 0.63868 0.73904 0.0
C2027 C 0.73096 0.65903 0.74642 0.0
H2028 H 0.83248 0.40959 0.04506 0.0
H2029 H 0.81379 0.4044 0.96724 0.0
H2030 H 0.87251 0.42304 0.03359 0.0
H2031 H 0.8538 0.41718 0.95583 0.0
H2032 H 0.90495 0.48617 0.95781 0.0
H2033 H 0.87133 0.45817 0.96088 0.0
H2034 H 0.91083 0.41332 0.01207 0.0
H2035 H 0.94462 0.44153 0.0089 0.0
C2036 C 0.83708 0.41094 0.02556 0.0
C2037 C 0.82001 0.4066 0.00705 0.0
C2038 C 0.86001 0.4183 0.01897 0.0
C2039 C 0.86615 0.42116 0.99379 0.0
C2040 C 0.84941 0.41536 0.97534 0.0
C2041 C 0.82651 0.40827 0.98191 0.0
C2042 C 0.90669 0.46987 0.96901 0.0
C2043 C 0.92708 0.46607 0.98337 0.0
C2044 C 0.88753 0.45377 0.9707 0.0
C2045 C 0.88842 0.43383 0.98705 0.0
C2046 C 0.90969 0.42875 -0.00043 0.0
C2047 C 0.92903 0.44473 -0.00242 0.0
H2048 H 0.35926 0.09024 0.77554 0.0
H2049 H 0.30352 0.05154 0.73592 0.0
H2050 H 0.33437 0.12606 0.77754 0.0
H2051 H 0.2788 0.08773 0.73763 0.0
H2052 H 0.23913 0.16036 0.75478 0.0
H2053 H 0.25819 0.12155 0.76626 0.0
H2054 H 0.3249 0.1491 0.73754 0.0
H2055 H 0.30622 0.18674 0.72597 0.0
C2056 C 0.34161 0.08929 0.76752 0.0
C2057 C 0.33348 0.06836 0.75509 0.0
C2058 C 0.32732 0.10966 0.76891 0.0
C2059 C 0.30481 0.10949 0.75768 0.0
C2060 C 0.29601 0.08809 0.74668 0.0
C2061 C 0.31028 0.06758 0.7454 0.0
C2062 C 0.2578 0.15778 0.75095 0.0
C2063 C 0.27114 0.17597 0.73892 0.0
C2064 C 0.26865 0.13588 0.75758 0.0
C2065 C 0.29297 0.13265 0.75294 0.0
C2066 C 0.30622 0.15128 0.74162 0.0
C2067 C 0.29542 0.17263 0.73462 0.0
H2068 H 0.17801 0.93256 0.23055 0.0
H2069 H 0.14226 0.9095 0.29773 0.0
H2070 H 0.19625 0.89255 0.22739 0.0
H2071 H 0.16106 0.86957 0.29468 0.0
H2072 H 0.2375 0.82243 0.28067 0.0
H2073 H 0.21137 0.85611 0.29176 0.0
H2074 H 0.17322 0.84625 0.22281 0.0
H2075 H 0.19898 0.8124 0.21209 0.0
C2076 C 0.1742 0.91908 0.24474 0.0
C2077 C 0.1586 0.92417 0.26429 0.0
C2078 C 0.18452 0.89616 0.24284 0.0
C2079 C 0.17975 0.87804 0.26066 0.0
C2080 C 0.16483 0.88327 0.28069 0.0
C2081 C 0.15414 0.90609 0.28236 0.0
C2082 C 0.22257 0.82645 0.26875 0.0
C2083 C 0.21993 0.81465 0.24578 0.0
C2084 C 0.20784 0.84591 0.2749 0.0
C2085 C 0.19061 0.85386 0.2579 0.0
C2086 C 0.18649 0.84046 0.23611 0.0
C2087 C 0.20101 0.82095 0.23013 0.0
H2088 H 0.44885 0.32225 0.40954 0.0
H2089 H 0.52466 0.31183 0.4137 0.0
H2090 H 0.45311 0.35966 0.43411 0.0
H2091 H 0.52884 0.34905 0.43775 0.0
H2092 H 0.52966 0.39951 0.50057 0.0
H2093 H 0.51768 0.36215 0.47994 0.0
H2094 H 0.47171 0.40277 0.43122 0.0
H2095 H 0.48375 0.44074 0.45257 0.0
C2096 C 0.4664 0.32789 0.41568 0.0
C2097 C 0.48641 0.31389 0.40983 0.0
C2098 C 0.4688 0.34938 0.42963 0.0
C2099 C 0.49124 0.3572 0.43808 0.0
C2100 C 0.51121 0.34328 0.43198 0.0
C2101 C 0.50883 0.32191 0.41812 0.0
C2102 C 0.51653 0.4005 0.48585 0.0
C2103 C 0.50794 0.42311 0.4778 0.0
C2104 C 0.50982 0.37906 0.47389 0.0
C2105 C 0.49435 0.37957 0.45343 0.0
C2106 C 0.48388 0.40187 0.44681 0.0
C2107 C 0.49064 0.42357 0.459 0.0
H2108 H 0.45237 0.7476 0.19692 0.0
H2109 H 0.40495 0.74098 0.13386 0.0
H2110 H 0.41821 0.74661 0.22496 0.0
H2111 H 0.37105 0.73973 0.16194 0.0
H2112 H 0.31624 0.71939 0.21857 0.0
H2113 H 0.35428 0.71156 0.19855 0.0
H2114 H 0.38281 0.77855 0.22885 0.0
H2115 H 0.34446 0.7868 0.24821 0.0
C2116 C 0.43473 0.74573 0.18906 0.0
C2117 C 0.43135 0.74448 0.16316 0.0
C2118 C 0.41525 0.74511 0.20511 0.0
C2119 C 0.39213 0.74286 0.19557 0.0
C2120 C 0.38877 0.74104 0.16976 0.0
C2121 C 0.40818 0.74196 0.1537 0.0
C2122 C 0.33097 0.73187 0.22189 0.0
C2123 C 0.32758 0.75363 0.23505 0.0
C2124 C 0.3526 0.72753 0.21019 0.0
C2125 C 0.3713 0.74458 0.21205 0.0
C2126 C 0.36865 0.76511 0.22726 0.0
C2127 C 0.34681 0.76978 0.23842 0.0
H2128 H 0.97718 0.68016 0.90156 0.0
H2129 H 0.04935 0.68527 0.92864 0.0
H2130 H 0.9739 0.639 0.91795 0.0
H2131 H 0.04614 0.64372 0.94479 0.0
H2132 H 0.01241 0.58275 -0.00216 0.0
H2133 H 0.02557 0.62031 0.97732 0.0
H2134 H 0.9883 0.59823 0.91059 0.0
H2135 H 0.97479 0.56114 0.93148 0.0
C2136 C 0.99239 0.6725 0.91098 0.0
C2137 C 0.01354 0.68607 0.9137 0.0
C2138 C 0.99062 0.64872 0.92013 0.0
C2139 C 0.00993 0.6378 0.93229 0.0
C2140 C 0.03096 0.65152 0.93547 0.0
C2141 C 0.03277 0.67536 0.92622 0.0
C2142 C 0.00814 0.58541 0.97838 0.0
C2143 C 0.99284 0.56902 0.9661 0.0
C2144 C 0.01544 0.60706 0.96666 0.0
C2145 C 0.00738 0.61264 0.94254 0.0
C2146 C 0.99429 0.59482 0.92941 0.0
C2147 C 0.98695 0.57332 0.94116 0.0
H2148 H 0.06488 0.20127 0.658 0.0
H2149 H 0.08301 0.27667 0.64453 0.0
H2150 H 0.10152 0.19644 0.68217 0.0
H2151 H 0.1201 0.27172 0.66805 0.0
H2152 H 0.19327 0.2463 0.69273 0.0
H2153 H 0.1593 0.24424 0.66449 0.0
H2154 H 0.11498 0.2182 0.72445 0.0
H2155 H 0.14874 0.22078 0.75293 0.0
C2156 C 0.07696 0.21666 0.66004 0.0
C2157 C 0.07146 0.23931 0.64968 0.0
C2158 C 0.09777 0.2139 0.67376 0.0
C2159 C 0.11353 0.23365 0.67666 0.0
C2160 C 0.10823 0.2562 0.66573 0.0
C2161 C 0.0871 0.2591 0.65253 0.0
C2162 C 0.17641 0.23974 0.6998 0.0
C2163 C 0.17351 0.23417 0.72511 0.0
C2164 C 0.15702 0.23865 0.68366 0.0
C2165 C 0.13466 0.23137 0.69251 0.0
C2166 C 0.13214 0.2239 0.71731 0.0
C2167 C 0.1514 0.22546 0.73356 0.0
H2168 H 0.52846 0.68141 0.10611 0.0
H2169 H 0.46486 0.68226 0.0609 0.0
H2170 H 0.5359 0.63964 0.09317 0.0
H2171 H 0.47231 0.64023 0.04825 0.0
H2172 H 0.48017 0.55872 0.04991 0.0
H2173 H 0.47538 0.59691 0.07266 0.0
H2174 H 0.54448 0.6213 0.04775 0.0
H2175 H 0.54891 0.58349 0.02432 0.0
C2176 C 0.51601 0.67263 0.09351 0.0
C2177 C 0.49599 0.68501 0.08456 0.0
C2178 C 0.52029 0.64878 0.08621 0.0
C2179 C 0.50444 0.63677 0.07018 0.0
C2180 C 0.48449 0.64909 0.0611 0.0
C2181 C 0.48037 0.67313 0.06809 0.0
C2182 C 0.49475 0.57179 0.05027 0.0
C2183 C 0.51491 0.56837 0.03549 0.0
C2184 C 0.49187 0.59369 0.06295 0.0
C2185 C 0.50941 0.61199 0.06149 0.0
C2186 C 0.53073 0.60738 0.04904 0.0
C2187 C 0.53335 0.58577 0.03584 0.0
H2188 H 0.06329 0.72162 0.82157 0.0
H2189 H 0.09365 0.78011 0.86533 0.0
H2190 H 0.10171 0.7157 0.80148 0.0
H2191 H 0.13154 0.77484 0.84488 0.0
H2192 H 0.20047 0.7616 0.81328 0.0
H2193 H 0.16587 0.75094 0.83857 0.0
H2194 H 0.12544 0.73666 0.77161 0.0
H2195 H 0.16025 0.7466 0.74676 0.0
C2196 C 0.07813 0.73324 0.82687 0.0
C2197 C 0.07532 0.75149 0.84489 0.0
C2198 C 0.10019 0.72982 0.8154 0.0
C2199 C 0.1199 0.74469 0.82156 0.0
C2200 C 0.11706 0.76259 0.83998 0.0
C2201 C 0.09515 0.76586 0.85154 0.0
C2202 C 0.18457 0.75475 0.80415 0.0
C2203 C 0.18303 0.7546 0.77814 0.0
C2204 C 0.16455 0.74916 0.81857 0.0
C2205 C 0.14255 0.74364 0.80716 0.0
C2206 C 0.14194 0.7408 0.78116 0.0
C2207 C 0.16197 0.74635 0.76683 0.0
H2208 H 0.04212 0.31593 0.56731 0.0
H2209 H 0.96712 0.30262 0.57844 0.0
H2210 H 0.03324 0.35435 0.54673 0.0
H2211 H 0.95824 0.34065 0.5573 0.0
H2212 H 0.9584 0.42441 0.56248 0.0
H2213 H 0.96398 0.38187 0.5717 0.0
H2214 H 0.01492 0.37688 0.51209 0.0
H2215 H 0.00953 0.42015 0.50288 0.0
C2216 C 0.02372 0.32093 0.56486 0.0
C2217 C 0.00534 0.30652 0.57495 0.0
C2218 C 0.01862 0.34287 0.5529 0.0
C2219 C 0.99505 0.35071 0.5507 0.0
C2220 C 0.97661 0.33535 0.55916 0.0
C2221 C 0.98171 0.31355 0.57125 0.0
C2222 C 0.97064 0.41434 0.55105 0.0
C2223 C 0.98384 0.4259 0.53215 0.0
C2224 C 0.97366 0.38975 0.55623 0.0
C2225 C 0.98992 0.37595 0.54266 0.0
C2226 C 0.00243 0.38714 0.52304 0.0
C2227 C -0.00068 0.41189 0.51774 0.0
H2228 H 0.41349 0.2216 0.36557 0.0
H2229 H 0.44676 0.26253 0.30619 0.0
H2230 H 0.37529 0.22555 0.34535 0.0
H2231 H 0.40782 0.2665 0.2857 0.0
H2232 H 0.33224 0.23609 0.25066 0.0
H2233 H 0.3737 0.23896 0.26558 0.0
H2234 H 0.34864 0.26098 0.33781 0.0
H2235 H 0.30783 0.25765 0.32318 0.0
C2236 C 0.41272 0.23144 0.34813 0.0
C2237 C 0.43327 0.24187 0.33763 0.0
C2238 C 0.3907 0.23382 0.33657 0.0
C2239 C 0.38844 0.24665 0.3141 0.0
C2240 C 0.40902 0.25654 0.30304 0.0
C2241 C 0.43126 0.25428 0.31479 0.0
C2242 C 0.33579 0.2421 0.2695 0.0
C2243 C 0.31695 0.24623 0.28595 0.0
C2244 C 0.35944 0.24375 0.27804 0.0
C2245 C 0.36436 0.24961 0.30305 0.0
C2246 C 0.34543 0.25582 0.31864 0.0
C2247 C 0.32206 0.254 0.31025 0.0
H2248 H 0.38565 0.46652 0.33492 0.0
H2249 H 0.43028 0.51483 0.29143 0.0
H2250 H 0.41318 0.47026 0.36976 0.0
H2251 H 0.45782 0.51859 0.32651 0.0
H2252 H 0.46663 0.54804 0.41027 0.0
H2253 H 0.45113 0.53902 0.36878 0.0
H2254 H 0.45586 0.46205 0.38402 0.0
H2255 H 0.47178 0.47118 0.42536 0.0
C2256 C 0.40148 0.4777 0.33268 0.0
C2257 C 0.4056 0.49068 0.31054 0.0
C2258 C 0.41737 0.47964 0.35256 0.0
C2259 C 0.43762 0.49474 0.35081 0.0
C2260 C 0.44227 0.50693 0.32835 0.0
C2261 C 0.42649 0.50479 0.30833 0.0
C2262 C 0.46516 0.52923 0.40438 0.0
C2263 C 0.47039 0.51028 0.42098 0.0
C2264 C 0.45633 0.52405 0.38065 0.0
C2265 C 0.45207 0.49984 0.37332 0.0
C2266 C 0.45887 0.48087 0.38928 0.0
C2267 C 0.4682 0.48608 0.41283 0.0
H2268 H 0.25246 0.69856 0.04168 0.0
H2269 H 0.24874 0.62886 0.07904 0.0
H2270 H 0.24904 0.71909 0.08143 0.0
H2271 H 0.24575 0.64969 0.11914 0.0
H2272 H 0.22185 0.70357 0.18382 0.0
H2273 H 0.21976 0.67948 0.14518 0.0
H2274 H 0.27886 0.72111 0.11572 0.0
H2275 H 0.28069 0.74502 0.15334 0.0
C2276 C 0.25099 0.6876 0.05838 0.0
C2277 C 0.25138 0.66212 0.05727 0.0
C2278 C 0.24895 0.69936 0.08113 0.0
C2279 C 0.24745 0.68594 0.10332 0.0
C2280 C 0.24685 0.66042 0.10227 0.0
C2281 C 0.24883 0.64857 0.07937 0.0
C2282 C 0.2343 0.70744 0.16899 0.0
C2283 C 0.25102 0.72656 0.17128 0.0
C2284 C 0.23316 0.69369 0.14702 0.0
C2285 C 0.24882 0.69889 0.12733 0.0
C2286 C 0.2661 0.71723 0.13027 0.0
C2287 C 0.26712 0.73093 0.15187 0.0
H2288 H 0.09055 0.54791 0.83034 0.0
H2289 H 0.06497 0.48156 0.79575 0.0
H2290 H 0.06422 0.5405 0.8655 0.0
H2291 H 0.03832 0.47443 0.8307 0.0
H2292 H 0.03732 0.45346 0.91577 0.0
H2293 H 0.04949 0.46271 0.87347 0.0
H2294 H 0.02258 0.53565 0.88105 0.0
H2295 H 0.01042 0.52635 0.92363 0.0
C2296 C 0.07891 0.53206 0.83 0.0
C2297 C 0.08009 0.51507 0.81061 0.0
C2298 C 0.06368 0.52793 0.85 0.0
C2299 C 0.04933 0.50682 0.85082 0.0
C2300 C 0.04941 0.49069 0.83062 0.0
C2301 C 0.06471 0.49474 0.81071 0.0
C2302 C 0.03346 0.47126 0.90818 0.0
C2303 C 0.02327 0.4893 0.923 0.0
C2304 C 0.04026 0.47652 0.8839 0.0
C2305 C 0.03718 0.49999 0.87411 0.0
C2306 C 0.02533 0.51749 0.88829 0.0
C2307 C 0.01825 0.51212 0.91254 0.0
H2308 H 0.21288 0.35502 0.57939 0.0
H2309 H 0.27621 0.3132 0.56684 0.0
H2310 H 0.21359 0.34341 0.6235 0.0
H2311 H 0.27703 0.30214 0.61079 0.0
H2312 H 0.29184 0.31344 0.68957 0.0
H2313 H 0.28129 0.33495 0.65156 0.0
H2314 H 0.21458 0.29565 0.64871 0.0
H2315 H 0.22531 0.27389 0.68688 0.0
C2316 C 0.22682 0.34323 0.58601 0.0
C2317 C 0.2446 0.33509 0.56973 0.0
C2318 C 0.22718 0.33668 0.61116 0.0
C2319 C 0.24558 0.32234 0.6204 0.0
C2320 C 0.26286 0.31357 0.60402 0.0
C2321 C 0.26228 0.31971 0.57887 0.0
C2322 C 0.27432 0.31044 0.68166 0.0
C2323 C 0.25952 0.29176 0.69078 0.0
C2324 C 0.26842 0.32256 0.6598 0.0
C2325 C 0.24747 0.31637 0.64705 0.0
C2326 C 0.23091 0.30054 0.65826 0.0
C2327 C 0.23692 0.28828 0.6802 0.0
H2328 H 0.38866 0.52338 0.16678 0.0
H2329 H 0.44499 0.47499 0.18843 0.0
H2330 H 0.40696 0.5285 0.12581 0.0
H2331 H 0.46308 0.48007 0.14765 0.0
H2332 H 0.50153 0.50256 0.08233 0.0
H2333 H 0.48273 0.51389 0.12139 0.0
H2334 H 0.41387 0.49806 0.08942 0.0
H2335 H 0.43289 0.48646 0.05041 0.0
C2336 C 0.40495 0.51389 0.16281 0.0
C2337 C 0.41542 0.49875 0.1808 0.0
C2338 C 0.41541 0.51693 0.13945 0.0
C2339 C 0.43659 0.50502 0.13375 0.0
C2340 C 0.44708 0.49001 0.15179 0.0
C2341 C 0.43664 0.48694 0.17508 0.0
C2342 C 0.48231 0.50297 0.08322 0.0
C2343 C 0.46855 0.49381 0.06352 0.0
C2344 C 0.47159 0.50908 0.10565 0.0
C2345 C 0.44694 0.50627 0.10853 0.0
C2346 C 0.43293 0.50033 0.08768 0.0
C2347 C 0.44374 0.49393 0.06528 0.0
H2348 H 0.27368 0.64675 0.93185 0.0
H2349 H 0.20872 0.68509 0.94666 0.0
H2350 H 0.28056 0.67193 0.89562 0.0
H2351 H 0.21608 0.71116 0.91059 0.0
H2352 H 0.22168 0.72111 0.82391 0.0
H2353 H 0.21502 0.70734 0.86645 0.0
H2354 H 0.29069 0.7108 0.88026 0.0
H2355 H 0.29719 0.72329 0.83726 0.0
C2356 C 0.26102 0.66083 0.92757 0.0
C2357 C 0.24054 0.66378 0.94199 0.0
C2358 C 0.26511 0.67554 0.90689 0.0
C2359 C 0.24896 0.69376 0.90023 0.0
C2360 C 0.22877 0.69716 0.91507 0.0
C2361 C 0.22456 0.68225 0.93573 0.0
C2362 C 0.23674 0.71965 0.83636 0.0
C2363 C 0.25992 0.72296 0.82746 0.0
C2364 C 0.23298 0.71176 0.86075 0.0
C2365 C 0.25238 0.70739 0.87662 0.0
C2366 C 0.27541 0.71322 0.86828 0.0
C2367 C 0.27917 0.72057 0.84379 0.0
H2368 H 0.11389 0.48821 0.67201 0.0
H2369 H 0.04702 0.51444 0.69999 0.0
H2370 H 0.10117 0.49711 0.62968 0.0
H2371 H 0.03407 0.52259 0.65777 0.0
H2372 H 0.01807 0.55156 0.58593 0.0
H2373 H 0.04173 0.55008 0.62394 0.0
H2374 H 0.07317 0.48299 0.59901 0.0
H2375 H 0.05054 0.48542 0.56046 0.0
C2376 C 0.09638 0.49565 0.6691 0.0
C2377 C 0.08145 0.50075 0.6893 0.0
C2378 C 0.08916 0.5008 0.64486 0.0
C2379 C 0.06687 0.51107 0.64043 0.0
C2380 C 0.05169 0.51542 0.66062 0.0
C2381 C 0.05892 0.51034 0.68481 0.0
C2382 C 0.03086 0.53716 0.58821 0.0
C2383 C 0.03239 0.51844 0.57067 0.0
C2384 C 0.04414 0.53609 0.61003 0.0
C2385 C 0.05854 0.5159 0.61484 0.0
C2386 C 0.06213 0.49871 0.59592 0.0
C2387 C 0.04924 0.50011 0.5738 0.0
H2388 H 0.28348 0.33501 0.43199 0.0
H2389 H 0.20856 0.3484 0.44107 0.0
H2390 H 0.27557 0.31745 0.3911 0.0
H2391 H 0.20076 0.33091 0.4001 0.0
H2392 H 0.20029 0.26459 0.34344 0.0
H2393 H 0.2035 0.28912 0.38116 0.0
H2394 H 0.2611 0.33052 0.34836 0.0
H2395 H 0.25764 0.3061 0.31045 0.0
C2396 C 0.26534 0.33427 0.42526 0.0
C2397 C 0.24666 0.34311 0.43982 0.0
C2398 C 0.26085 0.32443 0.40173 0.0
C2399 C 0.23757 0.3231 0.39228 0.0
C2400 C 0.21886 0.33171 0.40691 0.0
C2401 C 0.22336 0.34167 0.43039 0.0
C2402 C 0.21303 0.27953 0.34399 0.0
C2403 C 0.22864 0.28354 0.32405 0.0
C2404 C 0.21494 0.29352 0.36559 0.0
C2405 C 0.23282 0.31145 0.36784 0.0
C2406 C 0.24735 0.31659 0.34722 0.0
C2407 C 0.24513 0.30289 0.3254 0.0
H2408 H 0.31942 0.40449 0.56212 0.0
H2409 H 0.3111 0.41424 0.48286 0.0
H2410 H 0.35972 0.42103 0.5597 0.0
H2411 H 0.35165 0.43072 0.48052 0.0
H2412 H 0.4326 0.44347 0.48375 0.0
H2413 H 0.39604 0.41881 0.4881 0.0
H2414 H 0.37447 0.46403 0.5494 0.0
H2415 H 0.41049 0.48873 0.54467 0.0
C2416 C 0.3262 0.41004 0.54414 0.0
C2417 C 0.3119 0.40831 0.52272 0.0
C2418 C 0.34932 0.41946 0.54278 0.0
C2419 C 0.35884 0.42711 0.51993 0.0
C2420 C 0.34486 0.42471 0.49835 0.0
C2421 C 0.32157 0.41552 0.49974 0.0
C2422 C 0.42034 0.44754 0.49861 0.0
C2423 C 0.42436 0.46776 0.51408 0.0
C2424 C 0.39934 0.43369 0.5009 0.0
C2425 C 0.38238 0.4396 0.51902 0.0
C2426 C 0.38727 0.45891 0.53542 0.0
C2427 C 0.40789 0.473 0.53278 0.0
H2428 H 0.84185 0.10344 0.52404 0.0
H2429 H 0.79827 0.0518 0.4832 0.0
H2430 H 0.8751 0.07566 0.522 0.0
H2431 H 0.8318 0.02402 0.4811 0.0
H2432 H 0.91156 0.01613 0.44897 0.0
H2433 H 0.87154 0.03008 0.45775 0.0
H2434 H 0.88828 0.03264 0.53612 0.0
H2435 H 0.92835 0.01837 0.5273 0.0
C2436 C 0.83929 0.08607 0.51485 0.0
C2437 C 0.81751 0.07987 0.50363 0.0
C2438 C 0.85824 0.07005 0.51396 0.0
C2439 C 0.85584 0.04762 0.50166 0.0
C2440 C 0.83397 0.04117 0.49082 0.0
C2441 C 0.81489 0.05711 0.49194 0.0
C2442 C 0.90632 0.0187 0.46814 0.0
C2443 C 0.92294 0.0164 0.48746 0.0
C2444 C 0.88345 0.02662 0.47318 0.0
C2445 C 0.87706 0.03273 0.49756 0.0
C2446 C 0.89294 0.02817 0.51715 0.0
C2447 C 0.91574 0.01981 0.51214 0.0
H2448 H 0.68316 0.06256 0.24995 0.0
H2449 H 0.61634 0.09753 0.23447 0.0
H2450 H 0.70417 0.1004 0.24088 0.0
H2451 H 0.63758 0.13553 0.22516 0.0
H2452 H 0.68994 0.20078 0.25023 0.0
H2453 H 0.66247 0.16603 0.24904 0.0
H2454 H 0.71206 0.12651 0.20369 0.0
H2455 H 0.73971 0.16096 0.20544 0.0
C2456 C 0.67296 0.07835 0.24469 0.0
C2457 C 0.64814 0.07713 0.24286 0.0
C2458 C 0.685 0.09991 0.23916 0.0
C2459 C 0.67245 0.12066 0.2318 0.0
C2460 C 0.6476 0.11967 0.23059 0.0
C2461 C 0.63552 0.098 0.23598 0.0
C2462 C 0.6945 0.185 0.23922 0.0
C2463 C 0.717 0.18313 0.22837 0.0
C2464 C 0.67883 0.16514 0.23858 0.0
C2465 C 0.68556 0.14347 0.22687 0.0
C2466 C 0.70683 0.14286 0.2134 0.0
C2467 C 0.72253 0.16254 0.21426 0.0
H2468 H 0.65266 0.88365 0.0375 0.0
H2469 H 0.68467 0.94215 0.99499 0.0
H2470 H 0.61535 0.90565 0.03879 0.0
H2471 H 0.64727 0.96386 0.99577 0.0
H2472 H 0.58412 0.00584 0.00568 0.0
H2473 H 0.61918 0.98527 0.02159 0.0
H2474 H 0.5846 0.9157 0.00874 0.0
H2475 H 0.54941 0.93655 0.99343 0.0
C2476 C 0.65175 0.90125 0.02847 0.0
C2477 C 0.6716 0.91113 0.016 0.0
C2478 C 0.63036 0.91384 0.02926 0.0
C2479 C 0.62831 0.93658 0.01755 0.0
C2480 C 0.64834 0.94664 0.0055 0.0
C2481 C 0.66975 0.9341 0.00482 0.0
C2482 C 0.58361 0.9862 0.00762 0.0
C2483 C 0.56421 0.97269 -0.00151 0.0
C2484 C 0.60381 0.97439 0.01629 0.0
C2485 C 0.60498 0.94885 0.01565 0.0
C2486 C 0.58436 0.9354 0.0094 0.0
C2487 C 0.56409 0.94729 0.00081 0.0
H2488 H 0.31043 0.44118 0.24533 0.0
H2489 H 0.37698 0.4047 0.25735 0.0
H2490 H 0.28921 0.40272 0.25076 0.0
H2491 H 0.35569 0.36627 0.26356 0.0
H2492 H 0.30909 0.3034 0.22757 0.0
H2493 H 0.33471 0.33791 0.23794 0.0
H2494 H 0.27702 0.37065 0.27823 0.0
H2495 H 0.25127 0.33624 0.2669 0.0
C2496 C 0.32051 0.425 0.24947 0.0
C2497 C 0.3454 0.426 0.25069 0.0
C2498 C 0.30832 0.40293 0.25292 0.0
C2499 C 0.32069 0.38131 0.25784 0.0
C2500 C 0.34558 0.38248 0.25965 0.0
C2501 C 0.35779 0.40454 0.25605 0.0
C2502 C 0.30235 0.31736 0.23979 0.0
C2503 C 0.27834 0.31725 0.24653 0.0
C2504 C 0.31696 0.33731 0.24561 0.0
C2505 C 0.30771 0.35749 0.25826 0.0
C2506 C 0.2845 0.35574 0.26782 0.0
C2507 C 0.26986 0.33584 0.2618 0.0
H2508 H 0.17685 0.57791 0.97599 0.0
H2509 H 0.16953 0.60952 0.04908 0.0
H2510 H 0.13612 0.56189 0.9786 0.0
H2511 H 0.12911 0.59291 0.05185 0.0
H2512 H 0.08174 0.5164 0.04801 0.0
H2513 H 0.11691 0.54299 0.04947 0.0
H2514 H 0.0908 0.5829 0.98609 0.0
H2515 H 0.05514 0.55681 0.98515 0.0
C2516 C 0.16651 0.58141 0.99253 0.0
C2517 C 0.17618 0.59482 0.01236 0.0
C2518 C 0.14326 0.57253 0.99391 0.0
C2519 C 0.12968 0.57656 0.01531 0.0
C2520 C 0.13932 0.58992 0.03512 0.0
C2521 C 0.16235 0.59928 0.03352 0.0
C2522 C 0.08315 0.53148 0.03507 0.0
C2523 C 0.06595 0.53477 0.01653 0.0
C2524 C 0.10316 0.54659 0.03588 0.0
C2525 C 0.10638 0.56467 0.01775 0.0
C2526 C 0.08848 0.56899 0.00019 0.0
C2527 C 0.06813 0.55427 -0.0002 0.0
H2528 H 0.62941 0.90829 0.24091 0.0
H2529 H 0.6918 0.95368 0.25264 0.0
H2530 H 0.6538 0.87209 0.24416 0.0
H2531 H 0.71606 0.91718 0.25621 0.0
H2532 H 0.72748 0.84087 0.30287 0.0
H2533 H 0.71098 0.88079 0.29224 0.0
H2534 H 0.69227 0.85408 0.2192 0.0
H2535 H 0.70951 0.81472 0.22942 0.0
C2536 C 0.64832 0.91055 0.24393 0.0
C2537 C 0.65869 0.93377 0.24675 0.0
C2538 C 0.66224 0.88988 0.24565 0.0
C2539 C 0.68664 0.89213 0.25042 0.0
C2540 C 0.6972 0.91524 0.25259 0.0
C2541 C 0.68333 0.93598 0.25056 0.0
C2542 C 0.72049 0.84394 0.28436 0.0
C2543 C 0.71984 0.82514 0.26685 0.0
C2544 C 0.71117 0.86659 0.27828 0.0
C2545 C 0.70048 0.87019 0.25497 0.0
C2546 C 0.70062 0.8516 0.23719 0.0
C2547 C 0.71053 0.82927 0.24301 0.0
H2548 H 0.86615 0.09208 0.71255 0.0
H2549 H 0.81183 0.05689 0.75693 0.0
H2550 H 0.84399 0.13008 0.7137 0.0
H2551 H 0.78989 0.09479 0.75814 0.0
H2552 H 0.74504 0.15735 0.74363 0.0
H2553 H 0.76768 0.12249 0.72918 0.0
H2554 H 0.83297 0.16035 0.74784 0.0
H2555 H 0.81011 0.19519 0.76229 0.0
C2556 C 0.84944 0.0924 0.72246 0.0
C2557 C 0.84069 0.07141 0.73461 0.0
C2558 C 0.8368 0.11416 0.72307 0.0
C2559 C 0.81507 0.11531 0.7357 0.0
C2560 C 0.8063 0.0943 0.74771 0.0
C2561 C 0.81894 0.0726 0.74716 0.0
C2562 C 0.76425 0.15864 0.7434 0.0
C2563 C 0.77593 0.17898 0.75358 0.0
C2564 C 0.7772 0.1386 0.7355 0.0
C2565 C 0.80204 0.13852 0.73787 0.0
C2566 C 0.81384 0.1599 0.74573 0.0
C2567 C 0.80081 0.17995 0.75375 0.0
loop_
_geom_bond_atom_site_label_1
_geom_bond_atom_site_label_2
_geom_bond_distance
_geom_bond_site_symmetry_2
_ccdc_geom_bond_type
C0 O1 1.160 . S
C0 O7 1.185 . S
O1 C0 1.160 . S
O2 Zn3 1.900 . S
O2 C10 1.284 1_655 S
Zn3 O2 1.900 . S
Zn3 O4 2.038 . S
Zn3 O7 2.104 . S
Zn3 O12 1.958 1_655 S
O4 Zn3 2.038 . S
O4 C8 1.278 1_655 S
C5 O6 1.203 . S
C5 O12 1.267 . S
O6 C5 1.203 . S
O7 C0 1.185 . S
O7 Zn3 2.104 . S
C8 O4 1.278 1_455 S
C8 O9 1.211 . S
O9 C8 1.211 . S
C10 O2 1.284 1_455 S
C10 O11 1.273 . S
O11 C10 1.273 . S
O12 Zn3 1.958 1_455 S
O12 C5 1.267 . S
C13 O14 1.160 . S
C13 O20 1.185 . S
O14 C13 1.160 . S
O15 Zn16 1.899 . S
O15 C23 1.284 . S
Zn16 O15 1.899 . S
Zn16 O17 2.032 . S
Zn16 O20 2.086 . S
Zn16 O25 1.977 1_455 S
O17 Zn16 2.032 . S
O17 C21 1.290 . S
C18 O19 1.203 . S
C18 O25 1.267 . S
O19 C18 1.203 . S
O20 C13 1.185 . S
O20 Zn16 2.086 . S
C21 O17 1.290 . S
C21 O22 1.194 1_455 S
O22 C21 1.194 1_655 S
C23 O15 1.284 . S
C23 O24 1.273 1_455 S
O24 C23 1.273 1_655 S
O25 Zn16 1.977 1_655 S
O25 C18 1.267 . S
C26 O27 1.160 . S
C26 O33 1.185 . S
O27 C26 1.160 . S
O28 Zn29 1.899 . S
O28 C36 1.284 . S
Zn29 O28 1.899 . S
Zn29 O30 2.032 . S
Zn29 O33 2.086 . S
Zn29 O38 1.977 . S
O30 Zn29 2.032 . S
O30 C34 1.278 . S
C31 O32 1.203 . S
C31 O38 1.267 . S
O32 C31 1.203 . S
O33 C26 1.185 . S
O33 Zn29 2.086 . S
C34 O30 1.278 . S
C34 O35 1.211 . S
O35 C34 1.211 . S
C36 O28 1.284 . S
C36 O37 1.273 . S
O37 C36 1.273 . S
O38 Zn29 1.977 . S
O38 C31 1.267 . S
C39 O40 1.160 . S
C39 O46 1.185 . S
O40 C39 1.160 . S
O41 Zn42 1.899 . S
O41 C49 1.284 . S
Zn42 O41 1.899 . S
Zn42 O43 2.032 . S
Zn42 O46 2.086 . S
Zn42 O51 1.977 . S
O43 Zn42 2.032 . S
O43 C47 1.278 . S
C44 O45 1.203 . S
C44 O51 1.267 . S
O45 C44 1.203 . S
O46 C39 1.185 . S
O46 Zn42 2.086 . S
C47 O43 1.278 . S
C47 O48 1.211 . S
O48 C47 1.211 . S
C49 O41 1.284 . S
C49 O50 1.273 . S
O50 C49 1.273 . S
O51 Zn42 1.977 . S
O51 C44 1.267 . S
C52 O53 1.160 . S
C52 O59 1.185 . S
O53 C52 1.160 . S
O54 Zn55 1.899 . S
O54 C62 1.284 1_565 S
Zn55 O54 1.899 . S
Zn55 O56 2.032 . S
Zn55 O59 2.087 . S
Zn55 O64 1.977 1_565 S
O56 Zn55 2.032 . S
O56 C60 1.278 1_565 S
C57 O58 1.203 . S
C57 O64 1.267 . S
O58 C57 1.203 . S
O59 C52 1.185 . S
O59 Zn55 2.087 . S
C60 O56 1.278 1_545 S
C60 O61 1.211 . S
O61 C60 1.211 . S
C62 O54 1.284 1_545 S
C62 O63 1.273 . S
O63 C62 1.273 . S
O64 Zn55 1.977 1_545 S
O64 C57 1.267 . S
C65 O66 1.160 . S
C65 O72 1.185 . S
O66 C65 1.160 . S
O67 Zn68 1.899 . S
O67 C75 1.284 . S
Zn68 O67 1.899 . S
Zn68 O69 2.032 . S
Zn68 O72 2.086 . S
Zn68 O77 1.977 . S
O69 Zn68 2.032 . S
O69 C73 1.278 . S
C70 O71 1.203 . S
C70 O77 1.267 . S
O71 C70 1.203 . S
O72 C65 1.185 . S
O72 Zn68 2.086 . S
C73 O69 1.278 . S
C73 O74 1.211 . S
O74 C73 1.211 . S
C75 O67 1.284 . S
C75 O76 1.273 . S
O76 C75 1.273 . S
O77 Zn68 1.977 . S
O77 C70 1.267 . S
C78 O79 1.160 . S
C78 O85 1.185 . S
O79 C78 1.160 . S
O80 Zn81 1.899 . S
O80 C88 1.284 . S
Zn81 O80 1.899 . S
Zn81 O82 2.032 . S
Zn81 O85 2.086 . S
Zn81 O90 1.977 1_545 S
O82 Zn81 2.032 . S
O82 C86 1.278 . S
C83 O84 1.203 . S
C83 O90 1.267 . S
O84 C83 1.203 . S
O85 C78 1.185 . S
O85 Zn81 2.086 . S
C86 O82 1.278 . S
C86 O87 1.211 1_545 S
O87 C86 1.211 1_565 S
C88 O80 1.284 . S
C88 O89 1.273 1_545 S
O89 C88 1.273 1_565 S
O90 Zn81 1.977 1_565 S
O90 C83 1.267 . S
C91 O92 1.160 . S
C91 O98 1.185 . S
O92 C91 1.160 . S
O93 Zn94 1.899 . S
O93 C101 1.284 . S
Zn94 O93 1.899 . S
Zn94 O95 2.032 1_554 S
Zn94 O98 2.086 . S
Zn94 O103 1.977 . S
O95 Zn94 2.032 1_556 S
O95 C99 1.278 . S
C96 O97 1.203 . S
C96 O103 1.267 . S
O97 C96 1.203 . S
O98 C91 1.185 . S
O98 Zn94 2.086 . S
C99 O95 1.278 . S
C99 O100 1.211 . S
O100 C99 1.211 . S
C101 O93 1.284 . S
C101 O102 1.273 . S
O102 C101 1.273 . S
O103 Zn94 1.977 . S
O103 C96 1.267 . S
C104 O105 1.160 . S
C104 O111 1.190 . S
O105 C104 1.160 . S
O106 Zn107 1.899 . S
O106 C114 1.284 . S
Zn107 O106 1.899 . S
Zn107 O108 2.032 1_554 S
Zn107 O111 2.089 . S
Zn107 O116 1.981 . S
O108 Zn107 2.032 1_556 S
O108 C112 1.278 . S
C109 O110 1.203 . S
C109 O116 1.273 . S
O110 C109 1.203 . S
O111 C104 1.190 . S
O111 Zn107 2.089 . S
C112 O108 1.278 . S
C112 O113 1.211 . S
O113 C112 1.211 . S
C114 O106 1.284 . S
C114 O115 1.273 . S
O115 C114 1.273 . S
O116 Zn107 1.981 . S
O116 C109 1.273 . S
C117 O118 1.160 . S
C117 O124 1.185 . S
O118 C117 1.160 . S
O119 Zn120 1.899 . S
O119 C127 1.284 . S
Zn120 O119 1.899 . S
Zn120 O121 2.032 . S
Zn120 O124 2.086 . S
Zn120 O129 1.977 . S
O121 Zn120 2.032 . S
O121 C125 1.278 . S
C122 O123 1.203 . S
C122 O129 1.267 . S
O123 C122 1.203 . S
O124 C117 1.185 . S
O124 Zn120 2.086 . S
C125 O121 1.278 . S
C125 O126 1.211 . S
O126 C125 1.211 . S
C127 O119 1.284 . S
C127 O128 1.273 . S
O128 C127 1.273 . S
O129 Zn120 1.977 . S
O129 C122 1.267 . S
C130 O131 1.160 . S
C130 O137 1.185 . S
O131 C130 1.160 . S
O132 Zn133 1.899 . S
O132 C140 1.284 . S
Zn133 O132 1.899 . S
Zn133 O134 2.032 . S
Zn133 O137 2.086 . S
Zn133 O142 1.977 . S
O134 Zn133 2.032 . S
O134 C138 1.278 . S
C135 O136 1.203 . S
C135 O142 1.267 . S
O136 C135 1.203 . S
O137 C130 1.185 . S
O137 Zn133 2.086 . S
C138 O134 1.278 . S
C138 O139 1.211 . S
O139 C138 1.211 . S
C140 O132 1.284 . S
C140 O141 1.273 . S
O141 C140 1.273 . S
O142 Zn133 1.977 . S
O142 C135 1.267 . S
C143 O144 1.160 . S
C143 O150 1.185 . S
O144 C143 1.160 . S
O145 Zn146 1.899 . S
O145 C153 1.284 . S
Zn146 O145 1.899 . S
Zn146 O147 2.032 . S
Zn146 O150 2.086 . S
Zn146 O155 1.977 . S
O147 Zn146 2.032 . S
O147 C151 1.278 . S
C148 O149 1.203 . S
C148 O155 1.267 . S
O149 C148 1.203 . S
O150 C143 1.185 . S
O150 Zn146 2.086 . S
C151 O147 1.278 . S
C151 O152 1.211 . S
O152 C151 1.211 . S
C153 O145 1.284 . S
C153 O154 1.273 . S
O154 C153 1.273 . S
O155 Zn146 1.977 . S
O155 C148 1.267 . S
C156 O157 1.160 . S
C156 O163 1.185 . S
O157 C156 1.160 . S
O158 Zn159 1.899 . S
O158 C166 1.284 . S
Zn159 O158 1.899 . S
Zn159 O160 2.032 . S
Zn159 O163 2.086 . S
Zn159 O168 1.977 1_455 S
O160 Zn159 2.032 . S
O160 C164 1.300 . S
C161 O162 1.203 . S
C161 O168 1.267 . S
O162 C161 1.203 . S
O163 C156 1.185 . S
O163 Zn159 2.086 . S
C164 O160 1.300 . S
C164 O165 1.180 1_455 S
O165 C164 1.180 1_655 S
C166 O158 1.284 . S
C166 O167 1.273 1_455 S
O167 C166 1.273 1_655 S
O168 Zn159 1.977 1_655 S
O168 C161 1.267 . S
C169 O170 1.160 . S
C169 O176 1.185 . S
O170 C169 1.160 . S
O171 Zn172 1.899 . S
O171 C179 1.286 . S
Zn172 O171 1.899 . S
Zn172 O173 2.032 1_455 S
Zn172 O176 2.086 1_455 S
Zn172 O181 1.977 . S
O173 Zn172 2.032 1_655 S
O173 C177 1.278 1_655 S
C174 O175 1.203 . S
C174 O181 1.267 . S
O175 C174 1.203 . S
O176 C169 1.185 . S
O176 Zn172 2.086 1_655 S
C177 O173 1.278 1_455 S
C177 O178 1.211 . S
O178 C177 1.211 . S
C179 O171 1.286 . S
C179 O180 1.273 . S
O180 C179 1.273 . S
O181 Zn172 1.977 . S
O181 C174 1.267 . S
C182 O183 1.160 . S
C182 O189 1.185 . S
O183 C182 1.160 . S
O184 Zn185 1.899 . S
O184 C192 1.284 . S
Zn185 O184 1.899 . S
Zn185 O186 2.032 . S
Zn185 O189 2.086 . S
Zn185 O194 1.977 . S
O186 Zn185 2.032 . S
O186 C190 1.278 . S
C187 O188 1.203 . S
C187 O194 1.267 . S
O188 C187 1.203 . S
O189 C182 1.185 . S
O189 Zn185 2.086 . S
C190 O186 1.278 . S
C190 O191 1.211 . S
O191 C190 1.211 . S
C192 O184 1.284 . S
C192 O193 1.273 . S
O193 C192 1.273 . S
O194 Zn185 1.977 . S
O194 C187 1.267 . S
C195 O196 1.160 . S
C195 O202 1.185 . S
O196 C195 1.160 . S
O197 Zn198 1.899 . S
O197 C205 1.284 . S
Zn198 O197 1.899 . S
Zn198 O199 2.032 . S
Zn198 O202 2.086 . S
Zn198 O207 1.977 . S
O199 Zn198 2.032 . S
O199 C203 1.278 . S
C200 O201 1.203 . S
C200 O207 1.267 . S
O201 C200 1.203 . S
O202 C195 1.185 . S
O202 Zn198 2.086 . S
C203 O199 1.278 . S
C203 O204 1.211 . S
O204 C203 1.211 . S
C205 O197 1.284 . S
C205 O206 1.273 . S
O206 C205 1.273 . S
O207 Zn198 1.977 . S
O207 C200 1.267 . S
C208 O209 1.160 . S
C208 O215 1.185 . S
O209 C208 1.160 . S
O210 Zn211 1.899 . S
O210 C218 1.278 1_545 S
Zn211 O210 1.899 . S
Zn211 O212 2.032 . S
Zn211 O215 2.086 . S
Zn211 O220 1.977 1_545 S
O212 Zn211 2.032 . S
O212 C216 1.278 1_545 S
C213 O214 1.203 . S
C213 O220 1.267 . S
O214 C213 1.203 . S
O215 C208 1.185 . S
O215 Zn211 2.086 . S
C216 O212 1.278 1_565 S
C216 O217 1.211 . S
O217 C216 1.211 . S
C218 O210 1.278 1_565 S
C218 O219 1.282 . S
O219 C218 1.282 . S
O220 Zn211 1.977 1_565 S
O220 C213 1.267 . S
C221 O222 1.160 . S
C221 O228 1.185 . S
O222 C221 1.160 . S
O223 Zn224 1.899 . S
O223 C231 1.284 . S
Zn224 O223 1.899 . S
Zn224 O225 2.032 . S
Zn224 O228 2.086 . S
Zn224 O233 1.977 . S
O225 Zn224 2.032 . S
O225 C229 1.278 . S
C226 O227 1.203 . S
C226 O233 1.267 . S
O227 C226 1.203 . S
O228 C221 1.185 . S
O228 Zn224 2.086 . S
C229 O225 1.278 . S
C229 O230 1.211 . S
O230 C229 1.211 . S
C231 O223 1.284 . S
C231 O232 1.273 . S
O232 C231 1.273 . S
O233 Zn224 1.977 . S
O233 C226 1.267 . S
C234 O235 1.160 . S
C234 O241 1.185 . S
O235 C234 1.160 . S
O236 Zn237 1.900 . S
O236 C244 1.290 . S
Zn237 O236 1.900 . S
Zn237 O238 2.032 1_545 S
Zn237 O241 2.086 1_545 S
Zn237 O246 1.977 . S
O238 Zn237 2.032 1_565 S
O238 C242 1.278 1_565 S
C239 O240 1.203 . S
C239 O246 1.267 . S
O240 C239 1.203 . S
O241 C234 1.185 . S
O241 Zn237 2.086 1_565 S
C242 O238 1.278 1_545 S
C242 O243 1.211 . S
O243 C242 1.211 . S
C244 O236 1.290 . S
C244 O245 1.273 . S
O245 C244 1.273 . S
O246 Zn237 1.977 . S
O246 C239 1.267 . S
C247 O248 1.160 . S
C247 O254 1.185 . S
O248 C247 1.160 . S
O249 Zn250 1.899 . S
O249 C257 1.284 . S
Zn250 O249 1.899 . S
Zn250 O251 2.032 1_554 S
Zn250 O254 2.086 . S
Zn250 O259 1.977 . S
O251 Zn250 2.032 1_556 S
O251 C255 1.278 . S
C252 O253 1.203 . S
C252 O259 1.267 . S
O253 C252 1.203 . S
O254 C247 1.185 . S
O254 Zn250 2.086 . S
C255 O251 1.278 . S
C255 O256 1.211 . S
O256 C255 1.211 . S
C257 O249 1.284 . S
C257 O258 1.273 . S
O258 C257 1.273 . S
O259 Zn250 1.977 . S
O259 C252 1.267 . S
C260 O261 1.160 . S
C260 O267 1.185 1_554 S
O261 C260 1.160 . S
O262 Zn263 1.899 . S
O262 C270 1.284 . S
Zn263 O262 1.899 . S
Zn263 O264 2.032 1_554 S
Zn263 O267 2.086 1_554 S
Zn263 O272 1.977 1_554 S
O264 Zn263 2.032 1_556 S
O264 C268 1.278 . S
C265 O266 1.203 . S
C265 O272 1.267 1_554 S
O266 C265 1.203 . S
O267 C260 1.185 1_556 S
O267 Zn263 2.086 1_556 S
C268 O264 1.278 . S
C268 O269 1.211 . S
O269 C268 1.211 . S
C270 O262 1.284 . S
C270 O271 1.273 . S
O271 C270 1.273 . S
O272 Zn263 1.977 1_556 S
O272 C265 1.267 1_556 S
C273 O274 1.160 . S
C273 O280 1.185 . S
O274 C273 1.160 . S
O275 Zn276 1.899 . S
O275 C283 1.284 . S
Zn276 O275 1.899 . S
Zn276 O277 2.032 . S
Zn276 O280 2.086 . S
Zn276 O285 1.977 . S
O277 Zn276 2.032 . S
O277 C281 1.278 . S
C278 O279 1.203 . S
C278 O285 1.267 . S
O279 C278 1.203 . S
O280 C273 1.185 . S
O280 Zn276 2.086 . S
C281 O277 1.278 . S
C281 O282 1.211 . S
O282 C281 1.211 . S
C283 O275 1.284 . S
C283 O284 1.273 . S
O284 C283 1.273 . S
O285 Zn276 1.977 . S
O285 C278 1.267 . S
C286 O287 1.160 . S
C286 O293 1.185 . S
O287 C286 1.160 . S
O288 Zn289 1.899 . S
O288 C296 1.284 . S
Zn289 O288 1.899 . S
Zn289 O290 2.032 . S
Zn289 O293 2.086 . S
Zn289 O298 1.977 . S
O290 Zn289 2.032 . S
O290 C294 1.278 . S
C291 O292 1.203 . S
C291 O298 1.267 . S
O292 C291 1.203 . S
O293 C286 1.185 . S
O293 Zn289 2.086 . S
C294 O290 1.278 . S
C294 O295 1.211 . S
O295 C294 1.211 . S
C296 O288 1.284 . S
C296 O297 1.273 . S
O297 C296 1.273 . S
O298 Zn289 1.977 . S
O298 C291 1.267 . S
C299 O300 1.160 . S
C299 O306 1.185 . S
O300 C299 1.160 . S
O301 Zn302 1.899 . S
O301 C309 1.284 . S
Zn302 O301 1.899 . S
Zn302 O303 2.032 . S
Zn302 O306 2.086 . S
Zn302 O311 1.977 . S
O303 Zn302 2.032 . S
O303 C307 1.278 . S
C304 O305 1.203 . S
C304 O311 1.267 . S
O305 C304 1.203 . S
O306 C299 1.185 . S
O306 Zn302 2.086 . S
C307 O303 1.278 . S
C307 O308 1.211 . S
O308 C307 1.211 . S
C309 O301 1.284 . S
C309 O310 1.273 . S
O310 C309 1.273 . S
O311 Zn302 1.977 . S
O311 C304 1.267 . S
O312 Mn313 2.170 . S
O312 C326 1.240 1_554 S
Mn313 O312 2.170 . S
Mn313 O316 2.160 1_445 S
Mn313 O317 2.221 1_455 S
Mn313 O319 2.163 1_454 S
Mn313 O321 2.160 1_545 S
Mn313 O331 2.221 1_544 S
O314 Mn315 2.100 1_556 S
O314 C326 1.242 1_565 S
Mn315 O314 2.100 1_554 S
Mn315 O322 2.089 . S
Mn315 O331 2.290 1_554 S
Mn315 O332 2.251 1_554 S
O316 Mn313 2.160 1_665 S
O316 C327 1.239 . S
O317 Mn313 2.221 1_655 S
O317 Mn318 2.290 1_554 S
O317 C328 1.278 . S
Mn318 O317 2.290 1_556 S
Mn318 O320 2.089 1_556 S
Mn318 O323 2.251 1_556 S
Mn318 O324 2.087 . S
O319 Mn313 2.163 1_656 S
O319 C329 1.244 . S
O320 Mn318 2.089 1_554 S
O320 C327 1.256 1_545 S
O321 Mn313 2.160 1_565 S
O321 C330 1.239 . S
O322 Mn315 2.089 . S
O322 C330 1.256 . S
O323 Mn318 2.251 1_554 S
O323 C328 1.241 . S
O324 Mn318 2.087 . S
O324 C329 1.256 . S
C325 O331 1.279 . S
C325 O332 1.241 . S
C326 O312 1.240 1_556 S
C326 O314 1.242 1_545 S
C327 O316 1.239 . S
C327 O320 1.256 1_565 S
C328 O317 1.278 . S
C328 O323 1.241 . S
C329 O319 1.244 . S
C329 O324 1.256 . S
C330 O321 1.239 . S
C330 O322 1.256 . S
O331 Mn313 2.221 1_566 S
O331 Mn315 2.290 1_556 S
O331 C325 1.279 . S
O332 Mn315 2.251 1_556 S
O332 C325 1.241 . S
O333 Mn334 2.163 . S
O333 C347 1.244 . S
Mn334 O333 2.163 . S
Mn334 O337 2.160 . S
Mn334 O338 2.221 . S
Mn334 O340 2.163 . S
Mn334 O342 2.160 . S
Mn334 O352 2.221 . S
O335 Mn336 2.087 . S
O335 C347 1.256 . S
Mn336 O335 2.087 . S
Mn336 O343 2.089 . S
Mn336 O352 2.290 . S
Mn336 O353 2.251 . S
O337 Mn334 2.160 . S
O337 C348 1.239 . S
O338 Mn334 2.221 . S
O338 Mn339 2.290 . S
O338 C349 1.278 . S
Mn339 O338 2.290 . S
Mn339 O341 2.089 . S
Mn339 O344 2.251 . S
Mn339 O345 2.087 . S
O340 Mn334 2.163 . S
O340 C350 1.244 . S
O341 Mn339 2.089 . S
O341 C348 1.256 . S
O342 Mn334 2.160 . S
O342 C351 1.239 . S
O343 Mn336 2.089 . S
O343 C351 1.256 . S
O344 Mn339 2.251 . S
O344 C349 1.241 . S
O345 Mn339 2.087 . S
O345 C350 1.256 . S
C346 O352 1.278 . S
C346 O353 1.241 . S
C347 O333 1.244 . S
C347 O335 1.256 . S
C348 O337 1.239 . S
C348 O341 1.256 . S
C349 O338 1.278 . S
C349 O344 1.241 . S
C350 O340 1.244 . S
C350 O345 1.256 . S
C351 O342 1.239 . S
C351 O343 1.256 . S
O352 Mn334 2.221 . S
O352 Mn336 2.290 . S
O352 C346 1.278 . S
O353 Mn336 2.251 . S
O353 C346 1.241 . S
O354 Mn355 2.163 1_565 S
O354 C368 1.244 . S
Mn355 O354 2.163 1_545 S
Mn355 O358 2.160 . S
Mn355 O359 2.221 1_545 S
Mn355 O361 2.163 . S
Mn355 O363 2.160 . S
Mn355 O373 2.221 . S
O356 Mn357 2.087 . S
O356 C368 1.256 1_545 S
Mn357 O356 2.087 . S
Mn357 O364 2.089 . S
Mn357 O373 2.290 . S
Mn357 O374 2.251 . S
O358 Mn355 2.160 . S
O358 C369 1.239 . S
O359 Mn355 2.221 1_565 S
O359 Mn360 2.290 . S
O359 C370 1.278 . S
Mn360 O359 2.290 . S
Mn360 O362 2.089 1_565 S
Mn360 O365 2.251 . S
Mn360 O366 2.087 . S
O361 Mn355 2.163 . S
O361 C371 1.244 1_545 S
O362 Mn360 2.089 1_545 S
O362 C369 1.256 . S
O363 Mn355 2.160 . S
O363 C372 1.239 . S
O364 Mn357 2.089 . S
O364 C372 1.256 . S
O365 Mn360 2.251 . S
O365 C370 1.241 . S
O366 Mn360 2.087 . S
O366 C371 1.256 . S
C367 O373 1.278 . S
C367 O374 1.241 . S
C368 O354 1.244 . S
C368 O356 1.256 1_565 S
C369 O358 1.239 . S
C369 O362 1.256 . S
C370 O359 1.278 . S
C370 O365 1.241 . S
C371 O361 1.244 1_565 S
C371 O366 1.256 . S
C372 O363 1.239 . S
C372 O364 1.256 . S
O373 Mn355 2.221 . S
O373 Mn357 2.290 . S
O373 C367 1.278 . S
O374 Mn357 2.251 . S
O374 C367 1.241 . S
O375 Mn376 2.163 . S
O375 C389 1.244 . S
Mn376 O375 2.163 . S
Mn376 O379 2.160 . S
Mn376 O380 2.221 . S
Mn376 O382 2.163 . S
Mn376 O384 2.160 . S
Mn376 O394 2.221 . S
O377 Mn378 2.087 . S
O377 C389 1.256 . S
Mn378 O377 2.087 . S
Mn378 O385 2.089 . S
Mn378 O394 2.290 . S
Mn378 O395 2.251 . S
O379 Mn376 2.160 . S
O379 C390 1.239 . S
O380 Mn376 2.221 . S
O380 Mn381 2.290 . S
O380 C391 1.278 . S
Mn381 O380 2.290 . S
Mn381 O383 2.089 . S
Mn381 O386 2.251 . S
Mn381 O387 2.087 . S
O382 Mn376 2.163 . S
O382 C392 1.244 . S
O383 Mn381 2.089 . S
O383 C390 1.256 . S
O384 Mn376 2.160 . S
O384 C393 1.239 . S
O385 Mn378 2.089 . S
O385 C393 1.256 . S
O386 Mn381 2.251 . S
O386 C391 1.241 . S
O387 Mn381 2.087 . S
O387 C392 1.256 . S
C388 O394 1.278 . S
C388 O395 1.241 . S
C389 O375 1.244 . S
C389 O377 1.256 . S
C390 O379 1.239 . S
C390 O383 1.256 . S
C391 O380 1.278 . S
C391 O386 1.241 . S
C392 O382 1.244 . S
C392 O387 1.256 . S
C393 O384 1.239 . S
C393 O385 1.256 . S
O394 Mn376 2.221 . S
O394 Mn378 2.290 . S
O394 C388 1.278 . S
O395 Mn378 2.251 . S
O395 C388 1.241 . S
O396 Mn397 2.163 1_565 S
O396 C410 1.242 1_455 S
Mn397 O396 2.163 1_545 S
Mn397 O400 2.160 . S
Mn397 O401 2.221 . S
Mn397 O403 2.163 1_455 S
Mn397 O405 2.160 1_545 S
Mn397 O415 2.223 1_545 S
O398 Mn399 2.087 1_655 S
O398 C410 1.257 . S
Mn399 O398 2.087 1_455 S
Mn399 O406 2.089 . S
Mn399 O415 2.293 . S
Mn399 O416 2.251 1_455 S
O400 Mn397 2.160 . S
O400 C411 1.239 . S
O401 Mn397 2.221 . S
O401 Mn402 2.290 1_455 S
O401 C412 1.278 . S
Mn402 O401 2.290 1_655 S
Mn402 O404 2.089 1_655 S
Mn402 O407 2.251 1_655 S
Mn402 O408 2.087 . S
O403 Mn397 2.163 1_655 S
O403 C413 1.244 . S
O404 Mn402 2.089 1_455 S
O404 C411 1.256 . S
O405 Mn397 2.160 1_565 S
O405 C414 1.239 . S
O406 Mn399 2.089 . S
O406 C414 1.256 . S
O407 Mn402 2.251 1_455 S
O407 C412 1.241 . S
O408 Mn402 2.087 . S
O408 C413 1.256 . S
C409 O415 1.272 1_655 S
C409 O416 1.241 . S
C410 O396 1.242 1_655 S
C410 O398 1.257 . S
C411 O400 1.239 . S
C411 O404 1.256 . S
C412 O401 1.278 . S
C412 O407 1.241 . S
C413 O403 1.244 . S
C413 O408 1.256 . S
C414 O405 1.239 . S
C414 O406 1.256 . S
O415 Mn397 2.223 1_565 S
O415 Mn399 2.293 . S
O415 C409 1.272 1_455 S
O416 Mn399 2.251 1_655 S
O416 C409 1.241 . S
O417 Mn418 2.163 . S
O417 C431 1.244 . S
Mn418 O417 2.163 . S
Mn418 O421 2.160 . S
Mn418 O422 2.221 . S
Mn418 O424 2.163 . S
Mn418 O426 2.160 . S
Mn418 O436 2.221 . S
O419 Mn420 2.087 . S
O419 C431 1.256 . S
Mn420 O419 2.087 . S
Mn420 O427 2.089 . S
Mn420 O436 2.290 . S
Mn420 O437 2.251 . S
O421 Mn418 2.160 . S
O421 C432 1.239 . S
O422 Mn418 2.221 . S
O422 Mn423 2.290 . S
O422 C433 1.278 . S
Mn423 O422 2.290 . S
Mn423 O425 2.089 . S
Mn423 O428 2.251 . S
Mn423 O429 2.087 . S
O424 Mn418 2.163 . S
O424 C434 1.244 . S
O425 Mn423 2.089 . S
O425 C432 1.256 . S
O426 Mn418 2.160 . S
O426 C435 1.239 . S
O427 Mn420 2.089 . S
O427 C435 1.256 . S
O428 Mn423 2.251 . S
O428 C433 1.241 . S
O429 Mn423 2.087 . S
O429 C434 1.256 . S
C430 O436 1.278 . S
C430 O437 1.241 . S
C431 O417 1.244 . S
C431 O419 1.256 . S
C432 O421 1.239 . S
C432 O425 1.256 . S
C433 O422 1.278 . S
C433 O428 1.241 . S
C434 O424 1.244 . S
C434 O429 1.256 . S
C435 O426 1.239 . S
C435 O427 1.256 . S
O436 Mn418 2.221 . S
O436 Mn420 2.290 . S
O436 C430 1.278 . S
O437 Mn420 2.251 . S
O437 C430 1.241 . S
O438 Mn439 2.169 1_556 S
O438 C452 1.240 1_545 S
Mn439 O438 2.169 1_554 S
Mn439 O442 2.160 . S
Mn439 O443 2.221 . S
Mn439 O445 2.163 1_545 S
Mn439 O447 2.160 1_554 S
Mn439 O457 2.221 1_554 S
O440 Mn441 2.087 1_565 S
O440 C452 1.256 . S
Mn441 O440 2.087 1_545 S
Mn441 O448 2.089 . S
Mn441 O457 2.290 . S
Mn441 O458 2.251 1_545 S
O442 Mn439 2.160 . S
O442 C453 1.239 . S
O443 Mn439 2.221 . S
O443 Mn444 2.290 1_545 S
O443 C454 1.278 . S
Mn444 O443 2.290 1_565 S
Mn444 O446 2.089 1_565 S
Mn444 O449 2.251 1_565 S
Mn444 O450 2.087 . S
O445 Mn439 2.163 1_565 S
O445 C455 1.244 . S
O446 Mn444 2.089 1_545 S
O446 C453 1.256 . S
O447 Mn439 2.160 1_556 S
O447 C456 1.239 . S
O448 Mn441 2.089 . S
O448 C456 1.256 . S
O449 Mn444 2.251 1_545 S
O449 C454 1.241 . S
O450 Mn444 2.087 . S
O450 C455 1.256 . S
C451 O457 1.279 1_565 S
C451 O458 1.241 . S
C452 O438 1.240 1_565 S
C452 O440 1.256 . S
C453 O442 1.239 . S
C453 O446 1.256 . S
C454 O443 1.278 . S
C454 O449 1.241 . S
C455 O445 1.244 . S
C455 O450 1.256 . S
C456 O447 1.239 . S
C456 O448 1.256 . S
O457 Mn439 2.221 1_556 S
O457 Mn441 2.290 . S
O457 C451 1.279 1_545 S
O458 Mn441 2.251 1_565 S
O458 C451 1.241 . S
O459 Mn460 2.163 . S
O459 C473 1.244 . S
Mn460 O459 2.163 . S
Mn460 O463 2.160 . S
Mn460 O464 2.221 . S
Mn460 O466 2.163 . S
Mn460 O468 2.160 . S
Mn460 O478 2.221 . S
O461 Mn462 2.087 . S
O461 C473 1.256 . S
Mn462 O461 2.087 . S
Mn462 O469 2.089 . S
Mn462 O478 2.290 . S
Mn462 O479 2.251 . S
O463 Mn460 2.160 . S
O463 C474 1.239 . S
O464 Mn460 2.221 . S
O464 Mn465 2.290 . S
O464 C475 1.278 . S
Mn465 O464 2.290 . S
Mn465 O467 2.089 . S
Mn465 O470 2.251 . S
Mn465 O471 2.087 . S
O466 Mn460 2.163 . S
O466 C476 1.244 . S
O467 Mn465 2.089 . S
O467 C474 1.256 . S
O468 Mn460 2.160 . S
O468 C477 1.239 . S
O469 Mn462 2.089 . S
O469 C477 1.256 . S
O470 Mn465 2.251 . S
O470 C475 1.241 . S
O471 Mn465 2.087 . S
O471 C476 1.256 . S
C472 O478 1.278 . S
C472 O479 1.241 . S
C473 O459 1.244 . S
C473 O461 1.256 . S
C474 O463 1.239 . S
C474 O467 1.256 . S
C475 O464 1.278 . S
C475 O470 1.241 . S
C476 O466 1.244 . S
C476 O471 1.256 . S
C477 O468 1.239 . S
C477 O469 1.256 . S
O478 Mn460 2.221 . S
O478 Mn462 2.290 . S
O478 C472 1.278 . S
O479 Mn462 2.251 . S
O479 C472 1.241 . S
O480 Mn481 2.163 1_556 S
O480 C494 1.244 . S
Mn481 O480 2.163 1_554 S
Mn481 O484 2.160 . S
Mn481 O485 2.221 1_554 S
Mn481 O487 2.164 . S
Mn481 O489 2.160 . S
Mn481 O499 2.221 . S
O482 Mn483 2.087 . S
O482 C494 1.256 1_554 S
Mn483 O482 2.087 . S
Mn483 O490 2.089 . S
Mn483 O499 2.290 . S
Mn483 O500 2.251 . S
O484 Mn481 2.160 . S
O484 C495 1.239 . S
O485 Mn481 2.221 1_556 S
O485 Mn486 2.290 . S
O485 C496 1.278 . S
Mn486 O485 2.290 . S
Mn486 O488 2.118 . S
Mn486 O491 2.251 . S
Mn486 O492 2.087 . S
O487 Mn481 2.164 . S
O487 C497 1.233 1_554 S
O488 Mn486 2.118 . S
O488 C495 1.231 1_556 S
O489 Mn481 2.160 . S
O489 C498 1.239 . S
O490 Mn483 2.089 . S
O490 C498 1.256 . S
O491 Mn486 2.251 . S
O491 C496 1.241 . S
O492 Mn486 2.087 . S
O492 C497 1.256 . S
C493 O499 1.278 . S
C493 O500 1.241 . S
C494 O480 1.244 . S
C494 O482 1.256 1_556 S
C495 O484 1.239 . S
C495 O488 1.231 1_554 S
C496 O485 1.278 . S
C496 O491 1.241 . S
C497 O487 1.233 1_556 S
C497 O492 1.256 . S
C498 O489 1.239 . S
C498 O490 1.256 . S
O499 Mn481 2.221 . S
O499 Mn483 2.290 . S
O499 C493 1.278 . S
O500 Mn483 2.251 . S
O500 C493 1.241 . S
O501 Mn502 2.163 . S
O501 C515 1.244 . S
Mn502 O501 2.163 . S
Mn502 O505 2.160 . S
Mn502 O506 2.221 . S
Mn502 O508 2.163 . S
Mn502 O510 2.160 . S
Mn502 O520 2.221 . S
O503 Mn504 2.087 . S
O503 C515 1.256 . S
Mn504 O503 2.087 . S
Mn504 O511 2.089 . S
Mn504 O520 2.290 . S
Mn504 O521 2.251 . S
O505 Mn502 2.160 . S
O505 C516 1.239 . S
O506 Mn502 2.221 . S
O506 Mn507 2.290 . S
O506 C517 1.278 . S
Mn507 O506 2.290 . S
Mn507 O509 2.089 . S
Mn507 O512 2.251 . S
Mn507 O513 2.087 . S
O508 Mn502 2.163 . S
O508 C518 1.244 . S
O509 Mn507 2.089 . S
O509 C516 1.256 . S
O510 Mn502 2.160 . S
O510 C519 1.239 . S
O511 Mn504 2.089 . S
O511 C519 1.256 . S
O512 Mn507 2.251 . S
O512 C517 1.241 . S
O513 Mn507 2.087 . S
O513 C518 1.256 . S
C514 O520 1.278 . S
C514 O521 1.241 . S
C515 O501 1.244 . S
C515 O503 1.256 . S
C516 O505 1.239 . S
C516 O509 1.256 . S
C517 O506 1.278 . S
C517 O512 1.241 . S
C518 O508 1.244 . S
C518 O513 1.256 . S
C519 O510 1.239 . S
C519 O511 1.256 . S
O520 Mn502 2.221 . S
O520 Mn504 2.290 . S
O520 C514 1.278 . S
O521 Mn504 2.251 . S
O521 C514 1.241 . S
O522 Mn523 2.163 1_655 S
O522 C536 1.244 . S
Mn523 O522 2.163 1_455 S
Mn523 O526 2.160 . S
Mn523 O527 2.221 1_455 S
Mn523 O529 2.163 . S
Mn523 O531 2.160 . S
Mn523 O541 2.221 . S
O524 Mn525 2.087 . S
O524 C536 1.256 1_455 S
Mn525 O524 2.087 . S
Mn525 O532 2.089 . S
Mn525 O541 2.290 . S
Mn525 O542 2.251 . S
O526 Mn523 2.160 . S
O526 C537 1.239 . S
O527 Mn523 2.221 1_655 S
O527 Mn528 2.290 . S
O527 C538 1.278 . S
Mn528 O527 2.290 . S
Mn528 O530 2.090 . S
Mn528 O533 2.251 . S
Mn528 O534 2.087 . S
O529 Mn523 2.163 . S
O529 C539 1.244 1_455 S
O530 Mn528 2.090 . S
O530 C537 1.255 1_655 S
O531 Mn523 2.160 . S
O531 C540 1.239 . S
O532 Mn525 2.089 . S
O532 C540 1.256 . S
O533 Mn528 2.251 . S
O533 C538 1.241 . S
O534 Mn528 2.087 . S
O534 C539 1.256 . S
C535 O541 1.278 . S
C535 O542 1.241 . S
C536 O522 1.244 . S
C536 O524 1.256 1_655 S
C537 O526 1.239 . S
C537 O530 1.255 1_455 S
C538 O527 1.278 . S
C538 O533 1.241 . S
C539 O529 1.244 1_655 S
C539 O534 1.256 . S
C540 O531 1.239 . S
C540 O532 1.256 . S
O541 Mn523 2.221 . S
O541 Mn525 2.290 . S
O541 C535 1.278 . S
O542 Mn525 2.251 . S
O542 C535 1.241 . S
O543 Mn544 2.163 . S
O543 C557 1.244 . S
Mn544 O543 2.163 . S
Mn544 O547 2.160 . S
Mn544 O548 2.221 . S
Mn544 O550 2.163 . S
Mn544 O552 2.160 . S
Mn544 O562 2.221 . S
O545 Mn546 2.087 . S
O545 C557 1.256 . S
Mn546 O545 2.087 . S
Mn546 O553 2.089 . S
Mn546 O562 2.290 . S
Mn546 O563 2.251 . S
O547 Mn544 2.160 . S
O547 C558 1.239 . S
O548 Mn544 2.221 . S
O548 Mn549 2.290 . S
O548 C559 1.278 . S
Mn549 O548 2.290 . S
Mn549 O551 2.089 . S
Mn549 O554 2.251 . S
Mn549 O555 2.087 . S
O550 Mn544 2.163 . S
O550 C560 1.244 . S
O551 Mn549 2.089 . S
O551 C558 1.256 . S
O552 Mn544 2.160 . S
O552 C561 1.239 . S
O553 Mn546 2.089 . S
O553 C561 1.256 . S
O554 Mn549 2.251 . S
O554 C559 1.241 . S
O555 Mn549 2.087 . S
O555 C560 1.256 . S
C556 O562 1.278 . S
C556 O563 1.241 . S
C557 O543 1.244 . S
C557 O545 1.256 . S
C558 O547 1.239 . S
C558 O551 1.256 . S
C559 O548 1.278 . S
C559 O554 1.241 . S
C560 O550 1.244 . S
C560 O555 1.256 . S
C561 O552 1.239 . S
C561 O553 1.256 . S
O562 Mn544 2.221 . S
O562 Mn546 2.290 . S
O562 C556 1.278 . S
O563 Mn546 2.251 . S
O563 C556 1.241 . S
O564 Mn565 2.163 . S
O564 C578 1.244 . S
Mn565 O564 2.163 . S
Mn565 O568 2.160 . S
Mn565 O569 2.221 . S
Mn565 O571 2.163 . S
Mn565 O573 2.160 . S
Mn565 O583 2.221 . S
O566 Mn567 2.087 . S
O566 C578 1.256 . S
Mn567 O566 2.087 . S
Mn567 O574 2.089 . S
Mn567 O583 2.290 . S
Mn567 O584 2.251 . S
O568 Mn565 2.160 . S
O568 C579 1.239 . S
O569 Mn565 2.221 . S
O569 Mn570 2.290 . S
O569 C580 1.278 . S
Mn570 O569 2.290 . S
Mn570 O572 2.089 . S
Mn570 O575 2.251 . S
Mn570 O576 2.087 . S
O571 Mn565 2.163 . S
O571 C581 1.244 . S
O572 Mn570 2.089 . S
O572 C579 1.256 . S
O573 Mn565 2.160 . S
O573 C582 1.239 . S
O574 Mn567 2.089 . S
O574 C582 1.256 . S
O575 Mn570 2.251 . S
O575 C580 1.241 . S
O576 Mn570 2.087 . S
O576 C581 1.256 . S
C577 O583 1.278 . S
C577 O584 1.241 . S
C578 O564 1.244 . S
C578 O566 1.256 . S
C579 O568 1.239 . S
C579 O572 1.256 . S
C580 O569 1.278 . S
C580 O575 1.241 . S
C581 O571 1.244 . S
C581 O576 1.256 . S
C582 O573 1.239 . S
C582 O574 1.256 . S
O583 Mn565 2.221 . S
O583 Mn567 2.290 . S
O583 C577 1.278 . S
O584 Mn567 2.251 . S
O584 C577 1.241 . S
O585 Mn586 2.163 . S
O585 C599 1.244 . S
Mn586 O585 2.163 . S
Mn586 O589 2.160 . S
Mn586 O590 2.221 . S
Mn586 O592 2.163 . S
Mn586 O594 2.160 . S
Mn586 O604 2.221 . S
O587 Mn588 2.087 . S
O587 C599 1.256 . S
Mn588 O587 2.087 . S
Mn588 O595 2.089 . S
Mn588 O604 2.290 . S
Mn588 O605 2.251 . S
O589 Mn586 2.160 . S
O589 C600 1.239 . S
O590 Mn586 2.221 . S
O590 Mn591 2.290 . S
O590 C601 1.278 . S
Mn591 O590 2.290 . S
Mn591 O593 2.089 . S
Mn591 O596 2.251 . S
Mn591 O597 2.087 . S
O592 Mn586 2.163 . S
O592 C602 1.244 . S
O593 Mn591 2.089 . S
O593 C600 1.256 . S
O594 Mn586 2.160 . S
O594 C603 1.239 . S
O595 Mn588 2.089 . S
O595 C603 1.256 . S
O596 Mn591 2.251 . S
O596 C601 1.241 . S
O597 Mn591 2.087 . S
O597 C602 1.256 . S
C598 O604 1.278 . S
C598 O605 1.241 . S
C599 O585 1.244 . S
C599 O587 1.256 . S
C600 O589 1.239 . S
C600 O593 1.256 . S
C601 O590 1.278 . S
C601 O596 1.241 . S
C602 O592 1.244 . S
C602 O597 1.256 . S
C603 O594 1.239 . S
C603 O595 1.256 . S
O604 Mn586 2.221 . S
O604 Mn588 2.290 . S
O604 C598 1.278 . S
O605 Mn588 2.251 . S
O605 C598 1.241 . S
O606 Mn607 2.163 . S
O606 C620 1.244 . S
Mn607 O606 2.163 . S
Mn607 O610 2.160 . S
Mn607 O611 2.221 . S
Mn607 O613 2.163 . S
Mn607 O615 2.160 . S
Mn607 O625 2.221 . S
O608 Mn609 2.087 . S
O608 C620 1.256 . S
Mn609 O608 2.087 . S
Mn609 O616 2.089 . S
Mn609 O625 2.290 . S
Mn609 O626 2.251 . S
O610 Mn607 2.160 . S
O610 C621 1.239 . S
O611 Mn607 2.221 . S
O611 Mn612 2.290 . S
O611 C622 1.278 . S
Mn612 O611 2.290 . S
Mn612 O614 2.089 . S
Mn612 O617 2.251 . S
Mn612 O618 2.087 . S
O613 Mn607 2.163 . S
O613 C623 1.244 . S
O614 Mn612 2.089 . S
O614 C621 1.256 . S
O615 Mn607 2.160 . S
O615 C624 1.239 . S
O616 Mn609 2.089 . S
O616 C624 1.256 . S
O617 Mn612 2.251 . S
O617 C622 1.241 . S
O618 Mn612 2.087 . S
O618 C623 1.256 . S
C619 O625 1.278 . S
C619 O626 1.241 . S
C620 O606 1.244 . S
C620 O608 1.256 . S
C621 O610 1.239 . S
C621 O614 1.256 . S
C622 O611 1.278 . S
C622 O617 1.241 . S
C623 O613 1.244 . S
C623 O618 1.256 . S
C624 O615 1.239 . S
C624 O616 1.256 . S
O625 Mn607 2.221 . S
O625 Mn609 2.290 . S
O625 C619 1.278 . S
O626 Mn609 2.251 . S
O626 C619 1.241 . S
O627 Mn628 2.160 1_656 S
O627 C641 1.246 . S
Mn628 O627 2.160 1_454 S
Mn628 O631 2.160 . S
Mn628 O632 2.221 . S
Mn628 O634 2.163 1_554 S
Mn628 O636 2.160 1_455 S
Mn628 O646 2.221 1_454 S
O629 Mn630 2.087 1_556 S
O629 C641 1.256 . S
Mn630 O629 2.087 1_554 S
Mn630 O637 2.089 . S
Mn630 O646 2.290 1_554 S
Mn630 O647 2.251 1_554 S
O631 Mn628 2.160 . S
O631 C642 1.239 . S
O632 Mn628 2.221 . S
O632 Mn633 2.290 1_554 S
O632 C643 1.278 . S
Mn633 O632 2.290 1_556 S
Mn633 O635 2.089 1_556 S
Mn633 O638 2.251 1_556 S
Mn633 O639 2.087 . S
O634 Mn628 2.163 1_556 S
O634 C644 1.244 . S
O635 Mn633 2.089 1_554 S
O635 C642 1.256 . S
O636 Mn628 2.160 1_655 S
O636 C645 1.239 . S
O637 Mn630 2.089 . S
O637 C645 1.256 . S
O638 Mn633 2.251 1_554 S
O638 C643 1.241 . S
O639 Mn633 2.087 . S
O639 C644 1.256 . S
C640 O646 1.278 . S
C640 O647 1.241 . S
C641 O627 1.246 . S
C641 O629 1.256 . S
C642 O631 1.239 . S
C642 O635 1.256 . S
C643 O632 1.278 . S
C643 O638 1.241 . S
C644 O634 1.244 . S
C644 O639 1.256 . S
C645 O636 1.239 . S
C645 O637 1.256 . S
O646 Mn628 2.221 1_656 S
O646 Mn630 2.290 1_556 S
O646 C640 1.278 . S
O647 Mn630 2.251 1_556 S
O647 C640 1.241 . S
H648 C656 0.950 . S
H649 C661 0.950 . S
H650 C658 0.950 . S
H651 C660 0.950 . S
H652 C662 0.950 . S
H653 C664 0.950 . S
H654 C666 0.950 . S
H655 C667 0.950 . S
C656 H648 0.950 . S
C656 C657 1.386 1_655 S
C656 C658 1.391 . S
C657 C656 1.386 1_455 S
C657 C661 1.393 . S
C658 H650 0.950 . S
C658 C656 1.391 . S
C658 C659 1.400 1_655 S
C659 C658 1.400 1_455 S
C659 C660 1.398 . S
C659 C665 1.491 . S
C660 H651 0.950 . S
C660 C659 1.398 . S
C660 C661 1.391 . S
C661 H649 0.950 . S
C661 C657 1.393 . S
C661 C660 1.391 . S
C662 H652 0.950 . S
C662 C663 1.386 1_455 S
C662 C664 1.391 . S
C663 C662 1.386 1_655 S
C663 C667 1.393 . S
C664 H653 0.950 . S
C664 C662 1.391 . S
C664 C665 1.411 . S
C665 C659 1.491 . S
C665 C664 1.411 . S
C665 C666 1.388 1_455 S
C666 H654 0.950 . S
C666 C665 1.388 1_655 S
C666 C667 1.391 . S
C667 H655 0.950 . S
C667 C663 1.393 . S
C667 C666 1.391 . S
H668 C676 0.950 . S
H669 C681 0.950 . S
H670 C678 0.950 . S
H671 C680 0.950 . S
H672 C682 0.950 . S
H673 C684 0.950 . S
H674 C686 0.950 . S
H675 C687 0.950 . S
C676 H668 0.950 . S
C676 C677 1.386 . S
C676 C678 1.391 . S
C677 C676 1.386 . S
C677 C681 1.393 . S
C678 H670 0.950 . S
C678 C676 1.391 . S
C678 C679 1.400 . S
C679 C678 1.400 . S
C679 C680 1.398 . S
C679 C685 1.491 . S
C680 H671 0.950 . S
C680 C679 1.398 . S
C680 C681 1.391 . S
C681 H669 0.950 . S
C681 C677 1.393 . S
C681 C680 1.391 . S
C682 H672 0.950 . S
C682 C683 1.386 . S
C682 C684 1.391 . S
C683 C682 1.386 . S
C683 C687 1.393 . S
C684 H673 0.950 . S
C684 C682 1.391 . S
C684 C685 1.400 . S
C685 C679 1.491 . S
C685 C684 1.400 . S
C685 C686 1.398 . S
C686 H674 0.950 . S
C686 C685 1.398 . S
C686 C687 1.391 . S
C687 H675 0.950 . S
C687 C683 1.393 . S
C687 C686 1.391 . S
H688 C696 0.950 . S
H689 C701 0.950 . S
H690 C698 0.950 . S
H691 C700 0.950 . S
H692 C702 0.950 . S
H693 C704 0.950 . S
H694 C706 0.950 . S
H695 C707 0.950 . S
C696 H688 0.950 . S
C696 C697 1.386 . S
C696 C698 1.391 . S
C697 C696 1.386 . S
C697 C701 1.393 . S
C698 H690 0.950 . S
C698 C696 1.391 . S
C698 C699 1.400 . S
C699 C698 1.400 . S
C699 C700 1.398 . S
C699 C705 1.491 . S
C700 H691 0.950 . S
C700 C699 1.398 . S
C700 C701 1.391 . S
C701 H689 0.950 . S
C701 C697 1.393 . S
C701 C700 1.391 . S
C702 H692 0.950 . S
C702 C703 1.386 . S
C702 C704 1.391 . S
C703 C702 1.386 . S
C703 C707 1.393 . S
C704 H693 0.950 . S
C704 C702 1.391 . S
C704 C705 1.400 . S
C705 C699 1.491 . S
C705 C704 1.400 . S
C705 C706 1.398 . S
C706 H694 0.950 . S
C706 C705 1.398 . S
C706 C707 1.391 . S
C707 H695 0.950 . S
C707 C703 1.393 . S
C707 C706 1.391 . S
H708 C716 0.950 . S
H709 C721 0.950 . S
H710 C718 0.950 . S
H711 C720 0.950 . S
H712 C722 0.950 . S
H713 C724 0.950 . S
H714 C726 0.950 . S
H715 C727 0.950 . S
C716 H708 0.950 . S
C716 C717 1.386 . S
C716 C718 1.391 . S
C717 C716 1.386 . S
C717 C721 1.393 . S
C718 H710 0.950 . S
C718 C716 1.391 . S
C718 C719 1.400 . S
C719 C718 1.400 . S
C719 C720 1.398 . S
C719 C725 1.491 . S
C720 H711 0.950 . S
C720 C719 1.398 . S
C720 C721 1.391 . S
C721 H709 0.950 . S
C721 C717 1.393 . S
C721 C720 1.391 . S
C722 H712 0.950 . S
C722 C723 1.386 . S
C722 C724 1.391 . S
C723 C722 1.386 . S
C723 C727 1.393 . S
C724 H713 0.950 . S
C724 C722 1.391 . S
C724 C725 1.400 . S
C725 C719 1.491 . S
C725 C724 1.400 . S
C725 C726 1.398 . S
C726 H714 0.950 . S
C726 C725 1.398 . S
C726 C727 1.391 . S
C727 H715 0.950 . S
C727 C723 1.393 . S
C727 C726 1.391 . S
H728 C736 0.950 . S
H729 C741 0.950 . S
H730 C738 0.950 . S
H731 C740 0.950 . S
H732 C742 0.950 . S
H733 C744 0.950 . S
H734 C746 0.950 . S
H735 C747 0.950 . S
C736 H728 0.950 . S
C736 C737 1.386 . S
C736 C738 1.391 . S
C737 C736 1.386 . S
C737 C741 1.393 1_455 S
C738 H730 0.950 . S
C738 C736 1.391 . S
C738 C739 1.400 . S
C739 C738 1.400 . S
C739 C740 1.398 1_455 S
C739 C745 1.491 . S
C740 H731 0.950 . S
C740 C739 1.398 1_655 S
C740 C741 1.391 . S
C741 H729 0.950 . S
C741 C737 1.393 1_655 S
C741 C740 1.391 . S
C742 H732 0.950 . S
C742 C743 1.392 . S
C742 C744 1.391 . S
C743 C742 1.392 . S
C743 C747 1.386 1_655 S
C744 H733 0.950 . S
C744 C742 1.391 . S
C744 C745 1.400 1_655 S
C745 C739 1.491 . S
C745 C744 1.400 1_455 S
C745 C746 1.398 . S
C746 H734 0.950 . S
C746 C745 1.398 . S
C746 C747 1.391 . S
C747 H735 0.950 . S
C747 C743 1.386 1_455 S
C747 C746 1.391 . S
H748 C756 0.950 . S
H749 C761 0.950 . S
H750 C758 0.950 . S
H751 C760 0.950 . S
H752 C762 0.950 . S
H753 C764 0.950 . S
H754 C766 0.950 . S
H755 C767 0.950 . S
C756 H748 0.950 . S
C756 C757 1.386 . S
C756 C758 1.391 . S
C757 C756 1.386 . S
C757 C761 1.393 . S
C758 H750 0.950 . S
C758 C756 1.391 . S
C758 C759 1.400 . S
C759 C758 1.400 . S
C759 C760 1.398 . S
C759 C765 1.491 . S
C760 H751 0.950 . S
C760 C759 1.398 . S
C760 C761 1.391 . S
C761 H749 0.950 . S
C761 C757 1.393 . S
C761 C760 1.391 . S
C762 H752 0.950 . S
C762 C763 1.386 . S
C762 C764 1.391 . S
C763 C762 1.386 . S
C763 C767 1.393 . S
C764 H753 0.950 . S
C764 C762 1.391 . S
C764 C765 1.400 . S
C765 C759 1.491 . S
C765 C764 1.400 . S
C765 C766 1.398 . S
C766 H754 0.950 . S
C766 C765 1.398 . S
C766 C767 1.391 . S
C767 H755 0.950 . S
C767 C763 1.393 . S
C767 C766 1.391 . S
H768 C776 0.950 . S
H769 C781 0.950 . S
H770 C778 0.950 . S
H771 C780 0.950 . S
H772 C782 0.950 . S
H773 C784 0.950 . S
H774 C786 0.950 . S
H775 C787 0.950 . S
C776 H768 0.950 . S
C776 C777 1.386 . S
C776 C778 1.391 . S
C777 C776 1.386 . S
C777 C781 1.393 . S
C778 H770 0.950 . S
C778 C776 1.391 . S
C778 C779 1.400 . S
C779 C778 1.400 . S
C779 C780 1.398 . S
C779 C785 1.491 . S
C780 H771 0.950 . S
C780 C779 1.398 . S
C780 C781 1.391 . S
C781 H769 0.950 . S
C781 C777 1.393 . S
C781 C780 1.391 . S
C782 H772 0.950 . S
C782 C783 1.386 . S
C782 C784 1.391 . S
C783 C782 1.386 . S
C783 C787 1.393 . S
C784 H773 0.950 . S
C784 C782 1.391 . S
C784 C785 1.400 . S
C785 C779 1.491 . S
C785 C784 1.400 . S
C785 C786 1.398 . S
C786 H774 0.950 . S
C786 C785 1.398 . S
C786 C787 1.391 . S
C787 H775 0.950 . S
C787 C783 1.393 . S
C787 C786 1.391 . S
H788 C796 0.950 . S
H789 C801 0.950 . S
H790 C798 0.950 . S
H791 C800 0.950 . S
H792 C802 0.950 . S
H793 C804 0.950 . S
H794 C806 0.950 . S
H795 C807 0.950 . S
C796 H788 0.950 . S
C796 C797 1.386 . S
C796 C798 1.391 . S
C797 C796 1.386 . S
C797 C801 1.393 . S
C798 H790 0.950 . S
C798 C796 1.391 . S
C798 C799 1.400 . S
C799 C798 1.400 . S
C799 C800 1.398 . S
C799 C805 1.491 . S
C800 H791 0.950 . S
C800 C799 1.398 . S
C800 C801 1.391 . S
C801 H789 0.950 . S
C801 C797 1.393 . S
C801 C800 1.391 . S
C802 H792 0.950 . S
C802 C803 1.386 . S
C802 C804 1.391 . S
C803 C802 1.386 . S
C803 C807 1.393 . S
C804 H793 0.950 . S
C804 C802 1.391 . S
C804 C805 1.400 . S
C805 C799 1.491 . S
C805 C804 1.400 . S
C805 C806 1.398 . S
C806 H794 0.950 . S
C806 C805 1.398 . S
C806 C807 1.391 . S
C807 H795 0.950 . S
C807 C803 1.393 . S
C807 C806 1.391 . S
H808 C816 0.950 . S
H809 C821 0.950 . S
H810 C818 0.955 . S
H811 C820 0.950 . S
H812 C822 0.950 . S
H813 C824 0.948 1_545 S
H814 C826 0.950 . S
H815 C827 0.950 . S
C816 H808 0.950 . S
C816 C817 1.386 . S
C816 C818 1.389 1_545 S
C817 C816 1.386 . S
C817 C821 1.393 . S
C818 H810 0.955 . S
C818 C816 1.389 1_565 S
C818 C819 1.398 1_565 S
C819 C818 1.398 1_545 S
C819 C820 1.405 . S
C819 C825 1.487 1_545 S
C820 H811 0.950 . S
C820 C819 1.405 . S
C820 C821 1.391 . S
C821 H809 0.950 . S
C821 C817 1.393 . S
C821 C820 1.391 . S
C822 H812 0.950 . S
C822 C823 1.386 . S
C822 C824 1.392 . S
C823 C822 1.386 . S
C823 C827 1.393 . S
C824 H813 0.948 1_565 S
C824 C822 1.392 . S
C824 C825 1.401 . S
C825 C819 1.487 1_565 S
C825 C824 1.401 . S
C825 C826 1.398 . S
C826 H814 0.950 . S
C826 C825 1.398 . S
C826 C827 1.391 . S
C827 H815 0.950 . S
C827 C823 1.393 . S
C827 C826 1.391 . S
H828 C836 0.950 . S
H829 C841 0.950 . S
H830 C838 0.950 . S
H831 C840 0.950 . S
H832 C842 0.950 . S
H833 C844 0.950 . S
H834 C846 0.950 . S
H835 C847 0.950 . S
C836 H828 0.950 . S
C836 C837 1.386 . S
C836 C838 1.391 . S
C837 C836 1.386 . S
C837 C841 1.393 . S
C838 H830 0.950 . S
C838 C836 1.391 . S
C838 C839 1.400 . S
C839 C838 1.400 . S
C839 C840 1.398 . S
C839 C845 1.491 . S
C840 H831 0.950 . S
C840 C839 1.398 . S
C840 C841 1.391 . S
C841 H829 0.950 . S
C841 C837 1.393 . S
C841 C840 1.391 . S
C842 H832 0.950 . S
C842 C843 1.386 . S
C842 C844 1.391 . S
C843 C842 1.386 . S
C843 C847 1.393 . S
C844 H833 0.950 . S
C844 C842 1.391 . S
C844 C845 1.400 . S
C845 C839 1.491 . S
C845 C844 1.400 . S
C845 C846 1.398 . S
C846 H834 0.950 . S
C846 C845 1.398 . S
C846 C847 1.391 . S
C847 H835 0.950 . S
C847 C843 1.393 . S
C847 C846 1.391 . S
H848 C856 0.950 . S
H849 C861 0.950 . S
H850 C858 0.950 . S
H851 C860 0.950 . S
H852 C862 0.950 . S
H853 C864 0.940 1_565 S
H854 C866 0.950 . S
H855 C867 0.950 . S
C856 H848 0.950 . S
C856 C857 1.386 . S
C856 C858 1.391 . S
C857 C856 1.386 . S
C857 C861 1.393 1_545 S
C858 H850 0.950 . S
C858 C856 1.391 . S
C858 C859 1.400 . S
C859 C858 1.400 . S
C859 C860 1.398 1_545 S
C859 C865 1.491 . S
C860 H851 0.950 . S
C860 C859 1.398 1_565 S
C860 C861 1.391 . S
C861 H849 0.950 . S
C861 C857 1.393 1_565 S
C861 C860 1.391 . S
C862 H852 0.950 . S
C862 C863 1.386 . S
C862 C864 1.391 . S
C863 C862 1.386 . S
C863 C867 1.393 . S
C864 H853 0.940 1_545 S
C864 C862 1.391 . S
C864 C865 1.400 . S
C865 C859 1.491 . S
C865 C864 1.400 . S
C865 C866 1.398 . S
C866 H854 0.950 . S
C866 C865 1.398 . S
C866 C867 1.391 . S
C867 H855 0.950 . S
C867 C863 1.393 . S
C867 C866 1.391 . S
H868 C876 0.950 . S
H869 C881 0.950 . S
H870 C878 0.950 . S
H871 C880 0.950 . S
H872 C882 0.950 . S
H873 C884 0.950 . S
H874 C886 0.950 . S
H875 C887 0.950 . S
C876 H868 0.950 . S
C876 C877 1.386 . S
C876 C878 1.391 . S
C877 C876 1.386 . S
C877 C881 1.393 . S
C878 H870 0.950 . S
C878 C876 1.391 . S
C878 C879 1.400 . S
C879 C878 1.400 . S
C879 C880 1.398 . S
C879 C885 1.491 . S
C880 H871 0.950 . S
C880 C879 1.398 . S
C880 C881 1.391 . S
C881 H869 0.950 . S
C881 C877 1.393 . S
C881 C880 1.391 . S
C882 H872 0.950 . S
C882 C883 1.386 . S
C882 C884 1.391 . S
C883 C882 1.386 . S
C883 C887 1.393 . S
C884 H873 0.950 . S
C884 C882 1.391 . S
C884 C885 1.400 . S
C885 C879 1.491 . S
C885 C884 1.400 . S
C885 C886 1.398 . S
C886 H874 0.950 . S
C886 C885 1.398 . S
C886 C887 1.391 . S
C887 H875 0.950 . S
C887 C883 1.393 . S
C887 C886 1.391 . S
H888 C896 0.950 . S
H889 C901 0.950 . S
H890 C898 0.950 . S
H891 C900 0.950 . S
H892 C902 0.950 . S
H893 C904 0.950 . S
H894 C906 0.950 . S
H895 C907 0.950 . S
C896 H888 0.950 . S
C896 C897 1.368 1_565 S
C896 C898 1.391 . S
C897 C896 1.368 1_545 S
C897 C901 1.414 . S
C898 H890 0.950 . S
C898 C896 1.391 . S
C898 C899 1.400 1_565 S
C899 C898 1.400 1_545 S
C899 C900 1.398 . S
C899 C905 1.491 . S
C900 H891 0.950 . S
C900 C899 1.398 . S
C900 C901 1.391 . S
C901 H889 0.950 . S
C901 C897 1.414 . S
C901 C900 1.391 . S
C902 H892 0.950 . S
C902 C903 1.386 . S
C902 C904 1.391 . S
C903 C902 1.386 . S
C903 C907 1.393 1_545 S
C904 H893 0.950 . S
C904 C902 1.391 . S
C904 C905 1.400 . S
C905 C899 1.491 . S
C905 C904 1.400 . S
C905 C906 1.398 1_545 S
C906 H894 0.950 . S
C906 C905 1.398 1_565 S
C906 C907 1.391 . S
C907 H895 0.950 . S
C907 C903 1.393 1_565 S
C907 C906 1.391 . S
H908 C916 0.950 . S
H909 C921 0.950 . S
H910 C918 0.950 . S
H911 C920 0.950 . S
H912 C922 0.950 . S
H913 C924 0.950 . S
H914 C926 0.950 . S
H915 C927 0.950 . S
C916 H908 0.950 . S
C916 C917 1.386 . S
C916 C918 1.391 . S
C917 C916 1.386 . S
C917 C921 1.393 . S
C918 H910 0.950 . S
C918 C916 1.391 . S
C918 C919 1.400 . S
C919 C918 1.400 . S
C919 C920 1.398 . S
C919 C925 1.491 . S
C920 H911 0.950 . S
C920 C919 1.398 . S
C920 C921 1.391 . S
C921 H909 0.950 . S
C921 C917 1.393 . S
C921 C920 1.391 . S
C922 H912 0.950 . S
C922 C923 1.386 . S
C922 C924 1.391 . S
C923 C922 1.386 . S
C923 C927 1.393 . S
C924 H913 0.950 . S
C924 C922 1.391 . S
C924 C925 1.400 . S
C925 C919 1.491 . S
C925 C924 1.400 . S
C925 C926 1.398 . S
C926 H914 0.950 . S
C926 C925 1.398 . S
C926 C927 1.391 . S
C927 H915 0.950 . S
C927 C923 1.393 . S
C927 C926 1.391 . S
H928 C936 0.950 . S
H929 C941 0.950 . S
H930 C938 0.950 . S
H931 C940 0.950 . S
H932 C942 0.950 . S
H933 C944 0.949 . S
H934 C946 0.950 . S
H935 C947 0.950 . S
C936 H928 0.950 . S
C936 C937 1.386 . S
C936 C938 1.391 . S
C937 C936 1.386 . S
C937 C941 1.393 . S
C938 H930 0.950 . S
C938 C936 1.391 . S
C938 C939 1.400 . S
C939 C938 1.400 . S
C939 C940 1.398 . S
C939 C945 1.493 . S
C940 H931 0.950 . S
C940 C939 1.398 . S
C940 C941 1.391 . S
C941 H929 0.950 . S
C941 C937 1.393 . S
C941 C940 1.391 . S
C942 H932 0.950 . S
C942 C943 1.386 . S
C942 C944 1.396 . S
C943 C942 1.386 . S
C943 C947 1.393 . S
C944 H933 0.949 . S
C944 C942 1.396 . S
C944 C945 1.398 1_565 S
C945 C939 1.493 . S
C945 C944 1.398 1_545 S
C945 C946 1.396 1_545 S
C946 H934 0.950 . S
C946 C945 1.396 1_565 S
C946 C947 1.394 . S
C947 H935 0.950 . S
C947 C943 1.393 . S
C947 C946 1.394 . S
H948 C956 0.950 . S
H949 C961 0.950 . S
H950 C958 0.950 . S
H951 C960 0.950 . S
H952 C962 0.950 . S
H953 C964 0.950 . S
H954 C966 0.950 . S
H955 C967 0.950 . S
C956 H948 0.950 . S
C956 C957 1.386 . S
C956 C958 1.391 . S
C957 C956 1.386 . S
C957 C961 1.393 . S
C958 H950 0.950 . S
C958 C956 1.391 . S
C958 C959 1.400 . S
C959 C958 1.400 . S
C959 C960 1.398 . S
C959 C965 1.491 . S
C960 H951 0.950 . S
C960 C959 1.398 . S
C960 C961 1.391 . S
C961 H949 0.950 . S
C961 C957 1.393 . S
C961 C960 1.391 . S
C962 H952 0.950 . S
C962 C963 1.386 . S
C962 C964 1.391 . S
C963 C962 1.386 . S
C963 C967 1.393 . S
C964 H953 0.950 . S
C964 C962 1.391 . S
C964 C965 1.400 . S
C965 C959 1.491 . S
C965 C964 1.400 . S
C965 C966 1.398 . S
C966 H954 0.950 . S
C966 C965 1.398 . S
C966 C967 1.391 . S
C967 H955 0.950 . S
C967 C963 1.393 . S
C967 C966 1.391 . S
H968 C976 0.950 . S
H969 C981 0.950 . S
H970 C978 0.950 . S
H971 C980 0.950 . S
H972 C982 0.950 . S
H973 C984 0.950 . S
H974 C986 0.950 . S
H975 C987 0.950 . S
C976 H968 0.950 . S
C976 C977 1.386 . S
C976 C978 1.391 . S
C977 C976 1.386 . S
C977 C981 1.393 1_554 S
C978 H970 0.950 . S
C978 C976 1.391 . S
C978 C979 1.400 . S
C979 C978 1.400 . S
C979 C980 1.398 1_554 S
C979 C985 1.493 . S
C980 H971 0.950 . S
C980 C979 1.398 1_556 S
C980 C981 1.391 . S
C981 H969 0.950 . S
C981 C977 1.393 1_556 S
C981 C980 1.391 . S
C982 H972 0.950 . S
C982 C983 1.386 . S
C982 C984 1.391 . S
C983 C982 1.386 . S
C983 C987 1.393 1_556 S
C984 H973 0.950 . S
C984 C982 1.391 . S
C984 C985 1.372 1_556 S
C985 C979 1.493 . S
C985 C984 1.372 1_554 S
C985 C986 1.426 . S
C986 H974 0.950 . S
C986 C985 1.426 . S
C986 C987 1.391 . S
C987 H975 0.950 . S
C987 C983 1.393 1_554 S
C987 C986 1.391 . S
H988 C996 0.950 . S
H989 C1001 0.950 . S
H990 C998 0.950 . S
H991 C1000 0.950 . S
H992 C1002 0.950 . S
H993 C1004 0.950 . S
H994 C1006 0.950 . S
H995 C1007 0.942 1_556 S
C996 H988 0.950 . S
C996 C997 1.386 1_556 S
C996 C998 1.391 . S
C997 C996 1.386 1_554 S
C997 C1001 1.393 . S
C998 H990 0.950 . S
C998 C996 1.391 . S
C998 C999 1.400 1_556 S
C999 C998 1.400 1_554 S
C999 C1000 1.398 . S
C999 C1005 1.491 . S
C1000 H991 0.950 . S
C1000 C999 1.398 . S
C1000 C1001 1.391 . S
C1001 H989 0.950 . S
C1001 C997 1.393 . S
C1001 C1000 1.391 . S
C1002 H992 0.950 . S
C1002 C1003 1.386 . S
C1002 C1004 1.391 . S
C1003 C1002 1.386 . S
C1003 C1007 1.402 . S
C1004 H993 0.950 . S
C1004 C1002 1.391 . S
C1004 C1005 1.400 . S
C1005 C999 1.491 . S
C1005 C1004 1.400 . S
C1005 C1006 1.398 1_554 S
C1006 H994 0.950 . S
C1006 C1005 1.398 1_556 S
C1006 C1007 1.389 1_556 S
C1007 H995 0.942 1_554 S
C1007 C1003 1.402 . S
C1007 C1006 1.389 1_554 S
H1008 C1016 0.950 . S
H1009 C1021 0.950 . S
H1010 C1018 0.950 . S
H1011 C1020 0.950 . S
H1012 C1022 0.950 . S
H1013 C1024 0.950 . S
H1014 C1026 0.950 . S
H1015 C1027 0.950 . S
C1016 H1008 0.950 . S
C1016 C1017 1.386 . S
C1016 C1018 1.391 . S
C1017 C1016 1.386 . S
C1017 C1021 1.393 . S
C1018 H1010 0.950 . S
C1018 C1016 1.391 . S
C1018 C1019 1.400 . S
C1019 C1018 1.400 . S
C1019 C1020 1.398 . S
C1019 C1025 1.491 . S
C1020 H1011 0.950 . S
C1020 C1019 1.398 . S
C1020 C1021 1.391 . S
C1021 H1009 0.950 . S
C1021 C1017 1.393 . S
C1021 C1020 1.391 . S
C1022 H1012 0.950 . S
C1022 C1023 1.386 . S
C1022 C1024 1.391 . S
C1023 C1022 1.386 . S
C1023 C1027 1.393 . S
C1024 H1013 0.950 . S
C1024 C1022 1.391 . S
C1024 C1025 1.400 . S
C1025 C1019 1.491 . S
C1025 C1024 1.400 . S
C1025 C1026 1.398 . S
C1026 H1014 0.950 . S
C1026 C1025 1.398 . S
C1026 C1027 1.391 . S
C1027 H1015 0.950 . S
C1027 C1023 1.393 . S
C1027 C1026 1.391 . S
H1028 C1036 0.950 . S
H1029 C1041 0.950 . S
H1030 C1038 0.950 . S
H1031 C1040 0.950 . S
H1032 C1042 0.950 . S
H1033 C1044 0.950 . S
H1034 C1046 0.950 . S
H1035 C1047 0.950 . S
C1036 H1028 0.950 . S
C1036 C1037 1.386 . S
C1036 C1038 1.391 . S
C1037 C1036 1.386 . S
C1037 C1041 1.393 . S
C1038 H1030 0.950 . S
C1038 C1036 1.391 . S
C1038 C1039 1.400 . S
C1039 C1038 1.400 . S
C1039 C1040 1.398 . S
C1039 C1045 1.491 . S
C1040 H1031 0.950 . S
C1040 C1039 1.398 . S
C1040 C1041 1.391 . S
C1041 H1029 0.950 . S
C1041 C1037 1.393 . S
C1041 C1040 1.391 . S
C1042 H1032 0.950 . S
C1042 C1043 1.386 . S
C1042 C1044 1.391 . S
C1043 C1042 1.386 . S
C1043 C1047 1.393 . S
C1044 H1033 0.950 . S
C1044 C1042 1.391 . S
C1044 C1045 1.400 . S
C1045 C1039 1.491 . S
C1045 C1044 1.400 . S
C1045 C1046 1.398 . S
C1046 H1034 0.950 . S
C1046 C1045 1.398 . S
C1046 C1047 1.391 . S
C1047 H1035 0.950 . S
C1047 C1043 1.393 . S
C1047 C1046 1.391 . S
H1048 C1056 0.950 . S
H1049 C1061 0.950 . S
H1050 C1058 0.950 . S
H1051 C1060 0.950 . S
H1052 C1062 0.950 . S
H1053 C1064 0.950 . S
H1054 C1066 0.950 . S
H1055 C1067 0.950 . S
C1056 H1048 0.950 . S
C1056 C1057 1.386 . S
C1056 C1058 1.391 . S
C1057 C1056 1.386 . S
C1057 C1061 1.393 . S
C1058 H1050 0.950 . S
C1058 C1056 1.391 . S
C1058 C1059 1.400 . S
C1059 C1058 1.400 . S
C1059 C1060 1.398 . S
C1059 C1065 1.491 . S
C1060 H1051 0.950 . S
C1060 C1059 1.398 . S
C1060 C1061 1.391 . S
C1061 H1049 0.950 . S
C1061 C1057 1.393 . S
C1061 C1060 1.391 . S
C1062 H1052 0.950 . S
C1062 C1063 1.386 . S
C1062 C1064 1.391 . S
C1063 C1062 1.386 . S
C1063 C1067 1.393 . S
C1064 H1053 0.950 . S
C1064 C1062 1.391 . S
C1064 C1065 1.400 . S
C1065 C1059 1.491 . S
C1065 C1064 1.400 . S
C1065 C1066 1.398 . S
C1066 H1054 0.950 . S
C1066 C1065 1.398 . S
C1066 C1067 1.391 . S
C1067 H1055 0.950 . S
C1067 C1063 1.393 . S
C1067 C1066 1.391 . S
H1068 C1076 0.950 . S
H1069 C1081 0.950 . S
H1070 C1078 0.950 . S
H1071 C1080 0.950 . S
H1072 C1082 0.950 . S
H1073 C1084 0.950 . S
H1074 C1086 0.950 . S
H1075 C1087 0.950 . S
C1076 H1068 0.950 . S
C1076 C1077 1.386 . S
C1076 C1078 1.391 . S
C1077 C1076 1.386 . S
C1077 C1081 1.393 . S
C1078 H1070 0.950 . S
C1078 C1076 1.391 . S
C1078 C1079 1.400 . S
C1079 C1078 1.400 . S
C1079 C1080 1.398 . S
C1079 C1085 1.491 . S
C1080 H1071 0.950 . S
C1080 C1079 1.398 . S
C1080 C1081 1.391 . S
C1081 H1069 0.950 . S
C1081 C1077 1.393 . S
C1081 C1080 1.391 . S
C1082 H1072 0.950 . S
C1082 C1083 1.386 . S
C1082 C1084 1.391 . S
C1083 C1082 1.386 . S
C1083 C1087 1.393 . S
C1084 H1073 0.950 . S
C1084 C1082 1.391 . S
C1084 C1085 1.400 . S
C1085 C1079 1.491 . S
C1085 C1084 1.400 . S
C1085 C1086 1.398 . S
C1086 H1074 0.950 . S
C1086 C1085 1.398 . S
C1086 C1087 1.391 . S
C1087 H1075 0.950 . S
C1087 C1083 1.393 . S
C1087 C1086 1.391 . S
H1088 C1096 0.950 . S
H1089 C1101 0.950 . S
H1090 C1098 0.950 . S
H1091 C1100 0.950 . S
H1092 C1102 0.950 . S
H1093 C1104 0.950 . S
H1094 C1106 0.950 . S
H1095 C1107 0.950 . S
C1096 H1088 0.950 . S
C1096 C1097 1.386 . S
C1096 C1098 1.391 . S
C1097 C1096 1.386 . S
C1097 C1101 1.393 . S
C1098 H1090 0.950 . S
C1098 C1096 1.391 . S
C1098 C1099 1.400 . S
C1099 C1098 1.400 . S
C1099 C1100 1.398 . S
C1099 C1105 1.491 . S
C1100 H1091 0.950 . S
C1100 C1099 1.398 . S
C1100 C1101 1.391 . S
C1101 H1089 0.950 . S
C1101 C1097 1.393 . S
C1101 C1100 1.391 . S
C1102 H1092 0.950 . S
C1102 C1103 1.386 . S
C1102 C1104 1.391 . S
C1103 C1102 1.386 . S
C1103 C1107 1.393 . S
C1104 H1093 0.950 . S
C1104 C1102 1.391 . S
C1104 C1105 1.400 . S
C1105 C1099 1.491 . S
C1105 C1104 1.400 . S
C1105 C1106 1.398 . S
C1106 H1094 0.950 . S
C1106 C1105 1.398 . S
C1106 C1107 1.391 . S
C1107 H1095 0.950 . S
C1107 C1103 1.393 . S
C1107 C1106 1.391 . S
H1108 C1116 0.950 . S
H1109 C1121 0.950 . S
H1110 C1118 0.950 . S
H1111 C1120 0.950 . S
H1112 C1122 0.950 . S
H1113 C1124 0.950 . S
H1114 C1126 0.950 . S
H1115 C1127 0.950 . S
C1116 H1108 0.950 . S
C1116 C1117 1.386 . S
C1116 C1118 1.391 . S
C1117 C1116 1.386 . S
C1117 C1121 1.393 . S
C1118 H1110 0.950 . S
C1118 C1116 1.391 . S
C1118 C1119 1.400 . S
C1119 C1118 1.400 . S
C1119 C1120 1.398 . S
C1119 C1125 1.491 . S
C1120 H1111 0.950 . S
C1120 C1119 1.398 . S
C1120 C1121 1.391 . S
C1121 H1109 0.950 . S
C1121 C1117 1.393 . S
C1121 C1120 1.391 . S
C1122 H1112 0.950 . S
C1122 C1123 1.386 . S
C1122 C1124 1.391 . S
C1123 C1122 1.386 . S
C1123 C1127 1.393 . S
C1124 H1113 0.950 . S
C1124 C1122 1.391 . S
C1124 C1125 1.400 . S
C1125 C1119 1.491 . S
C1125 C1124 1.400 . S
C1125 C1126 1.398 . S
C1126 H1114 0.950 . S
C1126 C1125 1.398 . S
C1126 C1127 1.391 . S
C1127 H1115 0.950 . S
C1127 C1123 1.393 . S
C1127 C1126 1.391 . S
H1128 C1136 0.950 . S
H1129 C1141 0.950 . S
H1130 C1138 0.950 . S
H1131 C1140 0.950 . S
H1132 C1142 0.950 . S
H1133 C1144 0.950 . S
H1134 C1146 0.950 . S
H1135 C1147 0.950 . S
C1136 H1128 0.950 . S
C1136 C1137 1.386 1_655 S
C1136 C1138 1.391 . S
C1137 C1136 1.386 1_455 S
C1137 C1141 1.393 . S
C1138 H1130 0.950 . S
C1138 C1136 1.391 . S
C1138 C1139 1.400 1_655 S
C1139 C1138 1.400 1_455 S
C1139 C1140 1.398 . S
C1139 C1145 1.491 . S
C1140 H1131 0.950 . S
C1140 C1139 1.398 . S
C1140 C1141 1.391 . S
C1141 H1129 0.950 . S
C1141 C1137 1.393 . S
C1141 C1140 1.391 . S
C1142 H1132 0.950 . S
C1142 C1143 1.386 . S
C1142 C1144 1.391 . S
C1143 C1142 1.386 . S
C1143 C1147 1.393 1_455 S
C1144 H1133 0.950 . S
C1144 C1142 1.391 . S
C1144 C1145 1.400 . S
C1145 C1139 1.491 . S
C1145 C1144 1.400 . S
C1145 C1146 1.398 1_455 S
C1146 H1134 0.950 . S
C1146 C1145 1.398 1_655 S
C1146 C1147 1.391 . S
C1147 H1135 0.950 . S
C1147 C1143 1.393 1_655 S
C1147 C1146 1.391 . S
H1148 C1156 0.950 . S
H1149 C1161 0.950 . S
H1150 C1158 0.950 . S
H1151 C1160 0.950 . S
H1152 C1162 0.950 . S
H1153 C1164 0.950 . S
H1154 C1166 0.950 . S
H1155 C1167 0.950 . S
C1156 H1148 0.950 . S
C1156 C1157 1.386 . S
C1156 C1158 1.391 . S
C1157 C1156 1.386 . S
C1157 C1161 1.393 . S
C1158 H1150 0.950 . S
C1158 C1156 1.391 . S
C1158 C1159 1.400 . S
C1159 C1158 1.400 . S
C1159 C1160 1.398 . S
C1159 C1165 1.491 . S
C1160 H1151 0.950 . S
C1160 C1159 1.398 . S
C1160 C1161 1.391 . S
C1161 H1149 0.950 . S
C1161 C1157 1.393 . S
C1161 C1160 1.391 . S
C1162 H1152 0.950 . S
C1162 C1163 1.386 . S
C1162 C1164 1.391 . S
C1163 C1162 1.386 . S
C1163 C1167 1.393 . S
C1164 H1153 0.950 . S
C1164 C1162 1.391 . S
C1164 C1165 1.400 . S
C1165 C1159 1.491 . S
C1165 C1164 1.400 . S
C1165 C1166 1.398 . S
C1166 H1154 0.950 . S
C1166 C1165 1.398 . S
C1166 C1167 1.391 . S
C1167 H1155 0.950 . S
C1167 C1163 1.393 . S
C1167 C1166 1.391 . S
H1168 C1176 0.950 . S
H1169 C1181 0.950 . S
H1170 C1178 0.950 . S
H1171 C1180 0.950 . S
H1172 C1182 0.950 . S
H1173 C1184 0.950 . S
H1174 C1186 0.950 . S
H1175 C1187 0.950 . S
C1176 H1168 0.950 . S
C1176 C1177 1.386 . S
C1176 C1178 1.391 . S
C1177 C1176 1.386 . S
C1177 C1181 1.393 . S
C1178 H1170 0.950 . S
C1178 C1176 1.391 . S
C1178 C1179 1.400 . S
C1179 C1178 1.400 . S
C1179 C1180 1.398 . S
C1179 C1185 1.491 . S
C1180 H1171 0.950 . S
C1180 C1179 1.398 . S
C1180 C1181 1.391 . S
C1181 H1169 0.950 . S
C1181 C1177 1.393 . S
C1181 C1180 1.391 . S
C1182 H1172 0.950 . S
C1182 C1183 1.386 . S
C1182 C1184 1.391 . S
C1183 C1182 1.386 . S
C1183 C1187 1.393 . S
C1184 H1173 0.950 . S
C1184 C1182 1.391 . S
C1184 C1185 1.400 . S
C1185 C1179 1.491 . S
C1185 C1184 1.400 . S
C1185 C1186 1.398 . S
C1186 H1174 0.950 . S
C1186 C1185 1.398 . S
C1186 C1187 1.391 . S
C1187 H1175 0.950 . S
C1187 C1183 1.393 . S
C1187 C1186 1.391 . S
H1188 C1196 0.950 . S
H1189 C1201 0.950 . S
H1190 C1198 0.950 . S
H1191 C1200 0.950 . S
H1192 C1202 0.950 . S
H1193 C1204 0.950 . S
H1194 C1206 0.950 . S
H1195 C1207 0.950 . S
C1196 H1188 0.950 . S
C1196 C1197 1.386 . S
C1196 C1198 1.391 . S
C1197 C1196 1.386 . S
C1197 C1201 1.393 . S
C1198 H1190 0.950 . S
C1198 C1196 1.391 . S
C1198 C1199 1.400 . S
C1199 C1198 1.400 . S
C1199 C1200 1.398 . S
C1199 C1205 1.491 . S
C1200 H1191 0.950 . S
C1200 C1199 1.398 . S
C1200 C1201 1.391 . S
C1201 H1189 0.950 . S
C1201 C1197 1.393 . S
C1201 C1200 1.391 . S
C1202 H1192 0.950 . S
C1202 C1203 1.386 . S
C1202 C1204 1.391 . S
C1203 C1202 1.386 . S
C1203 C1207 1.393 . S
C1204 H1193 0.950 . S
C1204 C1202 1.391 . S
C1204 C1205 1.400 . S
C1205 C1199 1.491 . S
C1205 C1204 1.400 . S
C1205 C1206 1.398 . S
C1206 H1194 0.950 . S
C1206 C1205 1.398 . S
C1206 C1207 1.391 . S
C1207 H1195 0.950 . S
C1207 C1203 1.393 . S
C1207 C1206 1.391 . S
H1208 C1216 0.950 . S
H1209 C1221 0.950 1_655 S
H1210 C1218 0.950 . S
H1211 C1220 0.942 1_655 S
H1212 C1222 0.950 . S
H1213 C1224 0.950 . S
H1214 C1226 0.950 . S
H1215 C1227 0.950 . S
C1216 H1208 0.950 . S
C1216 C1217 1.386 . S
C1216 C1218 1.391 . S
C1217 C1216 1.386 . S
C1217 C1221 1.393 . S
C1218 H1210 0.950 . S
C1218 C1216 1.391 . S
C1218 C1219 1.400 . S
C1219 C1218 1.400 . S
C1219 C1220 1.398 . S
C1219 C1225 1.491 . S
C1220 H1211 0.942 1_455 S
C1220 C1219 1.398 . S
C1220 C1221 1.391 . S
C1221 H1209 0.950 1_455 S
C1221 C1217 1.393 . S
C1221 C1220 1.391 . S
C1222 H1212 0.950 . S
C1222 C1223 1.386 . S
C1222 C1224 1.391 . S
C1223 C1222 1.386 . S
C1223 C1227 1.393 . S
C1224 H1213 0.950 . S
C1224 C1222 1.391 . S
C1224 C1225 1.400 . S
C1225 C1219 1.491 . S
C1225 C1224 1.400 . S
C1225 C1226 1.398 . S
C1226 H1214 0.950 . S
C1226 C1225 1.398 . S
C1226 C1227 1.391 . S
C1227 H1215 0.950 . S
C1227 C1223 1.393 . S
C1227 C1226 1.391 . S
H1228 C1236 0.950 . S
H1229 C1241 0.950 . S
H1230 C1238 0.950 . S
H1231 C1240 0.950 . S
H1232 C1242 0.950 . S
H1233 C1244 0.950 . S
H1234 C1246 0.950 . S
H1235 C1247 0.950 . S
C1236 H1228 0.950 . S
C1236 C1237 1.386 . S
C1236 C1238 1.391 . S
C1237 C1236 1.386 . S
C1237 C1241 1.393 . S
C1238 H1230 0.950 . S
C1238 C1236 1.391 . S
C1238 C1239 1.400 . S
C1239 C1238 1.400 . S
C1239 C1240 1.398 . S
C1239 C1245 1.491 . S
C1240 H1231 0.950 . S
C1240 C1239 1.398 . S
C1240 C1241 1.391 . S
C1241 H1229 0.950 . S
C1241 C1237 1.393 . S
C1241 C1240 1.391 . S
C1242 H1232 0.950 . S
C1242 C1243 1.386 . S
C1242 C1244 1.391 . S
C1243 C1242 1.386 . S
C1243 C1247 1.393 . S
C1244 H1233 0.950 . S
C1244 C1242 1.391 . S
C1244 C1245 1.400 . S
C1245 C1239 1.491 . S
C1245 C1244 1.400 . S
C1245 C1246 1.398 . S
C1246 H1234 0.950 . S
C1246 C1245 1.398 . S
C1246 C1247 1.391 . S
C1247 H1235 0.950 . S
C1247 C1243 1.393 . S
C1247 C1246 1.391 . S
H1248 C1256 0.950 . S
H1249 C1261 0.950 . S
H1250 C1258 0.950 . S
H1251 C1260 0.950 . S
H1252 C1262 0.950 . S
H1253 C1264 0.950 . S
H1254 C1266 0.950 . S
H1255 C1267 0.950 . S
C1256 H1248 0.950 . S
C1256 C1257 1.386 . S
C1256 C1258 1.391 . S
C1257 C1256 1.386 . S
C1257 C1261 1.393 . S
C1258 H1250 0.950 . S
C1258 C1256 1.391 . S
C1258 C1259 1.400 . S
C1259 C1258 1.400 . S
C1259 C1260 1.398 . S
C1259 C1265 1.491 . S
C1260 H1251 0.950 . S
C1260 C1259 1.398 . S
C1260 C1261 1.391 . S
C1261 H1249 0.950 . S
C1261 C1257 1.393 . S
C1261 C1260 1.391 . S
C1262 H1252 0.950 . S
C1262 C1263 1.386 . S
C1262 C1264 1.391 . S
C1263 C1262 1.386 . S
C1263 C1267 1.393 . S
C1264 H1253 0.950 . S
C1264 C1262 1.391 . S
C1264 C1265 1.400 . S
C1265 C1259 1.491 . S
C1265 C1264 1.400 . S
C1265 C1266 1.398 . S
C1266 H1254 0.950 . S
C1266 C1265 1.398 . S
C1266 C1267 1.391 . S
C1267 H1255 0.950 . S
C1267 C1263 1.393 . S
C1267 C1266 1.391 . S
H1268 C1276 0.950 . S
H1269 C1281 0.950 . S
H1270 C1278 0.950 . S
H1271 C1280 0.950 . S
H1272 C1282 0.950 . S
H1273 C1284 0.950 . S
H1274 C1286 0.950 . S
H1275 C1287 0.950 . S
C1276 H1268 0.950 . S
C1276 C1277 1.386 . S
C1276 C1278 1.391 . S
C1277 C1276 1.386 . S
C1277 C1281 1.393 . S
C1278 H1270 0.950 . S
C1278 C1276 1.391 . S
C1278 C1279 1.400 . S
C1279 C1278 1.400 . S
C1279 C1280 1.398 . S
C1279 C1285 1.491 . S
C1280 H1271 0.950 . S
C1280 C1279 1.398 . S
C1280 C1281 1.391 . S
C1281 H1269 0.950 . S
C1281 C1277 1.393 . S
C1281 C1280 1.391 . S
C1282 H1272 0.950 . S
C1282 C1283 1.386 . S
C1282 C1284 1.391 . S
C1283 C1282 1.386 . S
C1283 C1287 1.393 . S
C1284 H1273 0.950 . S
C1284 C1282 1.391 . S
C1284 C1285 1.400 . S
C1285 C1279 1.491 . S
C1285 C1284 1.400 . S
C1285 C1286 1.398 . S
C1286 H1274 0.950 . S
C1286 C1285 1.398 . S
C1286 C1287 1.391 . S
C1287 H1275 0.950 . S
C1287 C1283 1.393 . S
C1287 C1286 1.391 . S
H1288 C1296 0.950 . S
H1289 C1301 0.946 1_565 S
H1290 C1298 0.950 . S
H1291 C1300 0.950 . S
H1292 C1302 0.950 1_455 S
H1293 C1304 0.950 . S
H1294 C1306 0.950 . S
H1295 C1307 0.950 . S
C1296 H1288 0.950 . S
C1296 C1297 1.386 . S
C1296 C1298 1.391 . S
C1297 C1296 1.386 . S
C1297 C1301 1.393 . S
C1298 H1290 0.950 . S
C1298 C1296 1.391 . S
C1298 C1299 1.400 . S
C1299 C1298 1.400 . S
C1299 C1300 1.398 . S
C1299 C1305 1.491 . S
C1300 H1291 0.950 . S
C1300 C1299 1.398 . S
C1300 C1301 1.391 . S
C1301 H1289 0.946 1_545 S
C1301 C1297 1.393 . S
C1301 C1300 1.391 . S
C1302 H1292 0.950 1_655 S
C1302 C1303 1.386 . S
C1302 C1304 1.391 . S
C1303 C1302 1.386 . S
C1303 C1307 1.393 . S
C1304 H1293 0.950 . S
C1304 C1302 1.391 . S
C1304 C1305 1.400 . S
C1305 C1299 1.491 . S
C1305 C1304 1.400 . S
C1305 C1306 1.398 . S
C1306 H1294 0.950 . S
C1306 C1305 1.398 . S
C1306 C1307 1.391 . S
C1307 H1295 0.950 . S
C1307 C1303 1.393 . S
C1307 C1306 1.391 . S
H1308 C1316 0.950 . S
H1309 C1321 0.950 . S
H1310 C1318 0.950 . S
H1311 C1320 0.950 . S
H1312 C1322 0.950 . S
H1313 C1324 0.950 . S
H1314 C1326 0.950 . S
H1315 C1327 0.950 . S
C1316 H1308 0.950 . S
C1316 C1317 1.386 . S
C1316 C1318 1.391 . S
C1317 C1316 1.386 . S
C1317 C1321 1.393 . S
C1318 H1310 0.950 . S
C1318 C1316 1.391 . S
C1318 C1319 1.400 . S
C1319 C1318 1.400 . S
C1319 C1320 1.398 . S
C1319 C1325 1.491 . S
C1320 H1311 0.950 . S
C1320 C1319 1.398 . S
C1320 C1321 1.391 . S
C1321 H1309 0.950 . S
C1321 C1317 1.393 . S
C1321 C1320 1.391 . S
C1322 H1312 0.950 . S
C1322 C1323 1.386 . S
C1322 C1324 1.391 . S
C1323 C1322 1.386 . S
C1323 C1327 1.393 . S
C1324 H1313 0.950 . S
C1324 C1322 1.391 . S
C1324 C1325 1.400 . S
C1325 C1319 1.491 . S
C1325 C1324 1.400 . S
C1325 C1326 1.398 . S
C1326 H1314 0.950 . S
C1326 C1325 1.398 . S
C1326 C1327 1.391 . S
C1327 H1315 0.950 . S
C1327 C1323 1.393 . S
C1327 C1326 1.391 . S
H1328 C1336 0.950 . S
H1329 C1341 0.950 . S
H1330 C1338 0.950 . S
H1331 C1340 0.950 . S
H1332 C1342 0.950 . S
H1333 C1344 0.950 . S
H1334 C1346 0.950 . S
H1335 C1347 0.950 . S
C1336 H1328 0.950 . S
C1336 C1337 1.386 1_565 S
C1336 C1338 1.391 . S
C1337 C1336 1.386 1_545 S
C1337 C1341 1.393 . S
C1338 H1330 0.950 . S
C1338 C1336 1.391 . S
C1338 C1339 1.382 1_565 S
C1339 C1338 1.382 1_545 S
C1339 C1340 1.422 . S
C1339 C1345 1.488 1_545 S
C1340 H1331 0.950 . S
C1340 C1339 1.422 . S
C1340 C1341 1.391 . S
C1341 H1329 0.950 . S
C1341 C1337 1.393 . S
C1341 C1340 1.391 . S
C1342 H1332 0.950 . S
C1342 C1343 1.386 1_545 S
C1342 C1344 1.391 . S
C1343 C1342 1.386 1_565 S
C1343 C1347 1.393 . S
C1344 H1333 0.950 . S
C1344 C1342 1.391 . S
C1344 C1345 1.400 1_545 S
C1345 C1339 1.488 1_565 S
C1345 C1344 1.400 1_565 S
C1345 C1346 1.398 . S
C1346 H1334 0.950 . S
C1346 C1345 1.398 . S
C1346 C1347 1.391 . S
C1347 H1335 0.950 . S
C1347 C1343 1.393 . S
C1347 C1346 1.391 . S
H1348 C1356 0.950 . S
H1349 C1361 0.950 . S
H1350 C1358 0.950 . S
H1351 C1360 0.950 . S
H1352 C1362 0.950 . S
H1353 C1364 0.950 . S
H1354 C1366 0.950 . S
H1355 C1367 0.950 . S
C1356 H1348 0.950 . S
C1356 C1357 1.386 . S
C1356 C1358 1.391 . S
C1357 C1356 1.386 . S
C1357 C1361 1.393 . S
C1358 H1350 0.950 . S
C1358 C1356 1.391 . S
C1358 C1359 1.400 . S
C1359 C1358 1.400 . S
C1359 C1360 1.398 . S
C1359 C1365 1.491 . S
C1360 H1351 0.950 . S
C1360 C1359 1.398 . S
C1360 C1361 1.391 . S
C1361 H1349 0.950 . S
C1361 C1357 1.393 . S
C1361 C1360 1.391 . S
C1362 H1352 0.950 . S
C1362 C1363 1.386 . S
C1362 C1364 1.391 . S
C1363 C1362 1.386 . S
C1363 C1367 1.393 . S
C1364 H1353 0.950 . S
C1364 C1362 1.391 . S
C1364 C1365 1.400 . S
C1365 C1359 1.491 . S
C1365 C1364 1.400 . S
C1365 C1366 1.398 . S
C1366 H1354 0.950 . S
C1366 C1365 1.398 . S
C1366 C1367 1.391 . S
C1367 H1355 0.950 . S
C1367 C1363 1.393 . S
C1367 C1366 1.391 . S
H1368 C1376 0.950 . S
H1369 C1381 0.950 . S
H1370 C1378 0.950 . S
H1371 C1380 0.951 . S
H1372 C1382 0.950 1_455 S
H1373 C1384 0.950 . S
H1374 C1386 0.950 . S
H1375 C1387 0.950 . S
C1376 H1368 0.950 . S
C1376 C1377 1.390 . S
C1376 C1378 1.391 . S
C1377 C1376 1.390 . S
C1377 C1381 1.391 1_565 S
C1378 H1370 0.950 . S
C1378 C1376 1.391 . S
C1378 C1379 1.400 . S
C1379 C1378 1.400 . S
C1379 C1380 1.397 1_565 S
C1379 C1385 1.491 . S
C1380 H1371 0.951 . S
C1380 C1379 1.397 1_545 S
C1380 C1381 1.391 . S
C1381 H1369 0.950 . S
C1381 C1377 1.391 1_545 S
C1381 C1380 1.391 . S
C1382 H1372 0.950 1_655 S
C1382 C1383 1.386 . S
C1382 C1384 1.391 . S
C1383 C1382 1.386 . S
C1383 C1387 1.393 . S
C1384 H1373 0.950 . S
C1384 C1382 1.391 . S
C1384 C1385 1.400 . S
C1385 C1379 1.491 . S
C1385 C1384 1.400 . S
C1385 C1386 1.398 . S
C1386 H1374 0.950 . S
C1386 C1385 1.398 . S
C1386 C1387 1.391 . S
C1387 H1375 0.950 . S
C1387 C1383 1.393 . S
C1387 C1386 1.391 . S
H1388 C1396 0.950 . S
H1389 C1401 0.950 . S
H1390 C1398 0.950 . S
H1391 C1400 0.950 . S
H1392 C1402 0.950 . S
H1393 C1404 0.950 . S
H1394 C1406 0.950 . S
H1395 C1407 0.950 . S
C1396 H1388 0.950 . S
C1396 C1397 1.386 . S
C1396 C1398 1.391 . S
C1397 C1396 1.386 . S
C1397 C1401 1.393 . S
C1398 H1390 0.950 . S
C1398 C1396 1.391 . S
C1398 C1399 1.400 . S
C1399 C1398 1.400 . S
C1399 C1400 1.398 . S
C1399 C1405 1.491 . S
C1400 H1391 0.950 . S
C1400 C1399 1.398 . S
C1400 C1401 1.391 . S
C1401 H1389 0.950 . S
C1401 C1397 1.393 . S
C1401 C1400 1.391 . S
C1402 H1392 0.950 . S
C1402 C1403 1.386 . S
C1402 C1404 1.391 . S
C1403 C1402 1.386 . S
C1403 C1407 1.393 . S
C1404 H1393 0.950 . S
C1404 C1402 1.391 . S
C1404 C1405 1.400 . S
C1405 C1399 1.491 . S
C1405 C1404 1.400 . S
C1405 C1406 1.398 . S
C1406 H1394 0.950 . S
C1406 C1405 1.398 . S
C1406 C1407 1.391 . S
C1407 H1395 0.950 . S
C1407 C1403 1.393 . S
C1407 C1406 1.391 . S
H1408 C1416 0.950 . S
H1409 C1421 0.950 . S
H1410 C1418 0.950 . S
H1411 C1420 0.950 . S
H1412 C1422 0.950 . S
H1413 C1424 0.950 . S
H1414 C1426 0.950 . S
H1415 C1427 0.950 . S
C1416 H1408 0.950 . S
C1416 C1417 1.386 1_565 S
C1416 C1418 1.391 . S
C1417 C1416 1.386 1_545 S
C1417 C1421 1.393 . S
C1418 H1410 0.950 . S
C1418 C1416 1.391 . S
C1418 C1419 1.400 1_565 S
C1419 C1418 1.400 1_545 S
C1419 C1420 1.398 . S
C1419 C1425 1.491 . S
C1420 H1411 0.950 . S
C1420 C1419 1.398 . S
C1420 C1421 1.391 . S
C1421 H1409 0.950 . S
C1421 C1417 1.393 . S
C1421 C1420 1.391 . S
C1422 H1412 0.950 . S
C1422 C1423 1.386 . S
C1422 C1424 1.391 . S
C1423 C1422 1.386 . S
C1423 C1427 1.393 1_545 S
C1424 H1413 0.950 . S
C1424 C1422 1.391 . S
C1424 C1425 1.400 . S
C1425 C1419 1.491 . S
C1425 C1424 1.400 . S
C1425 C1426 1.398 1_545 S
C1426 H1414 0.950 . S
C1426 C1425 1.398 1_565 S
C1426 C1427 1.391 . S
C1427 H1415 0.950 . S
C1427 C1423 1.393 1_565 S
C1427 C1426 1.391 . S
H1428 C1436 0.950 . S
H1429 C1441 0.950 . S
H1430 C1438 0.950 . S
H1431 C1440 0.950 . S
H1432 C1442 0.950 . S
H1433 C1444 0.950 . S
H1434 C1446 0.950 . S
H1435 C1447 0.950 . S
C1436 H1428 0.950 . S
C1436 C1437 1.386 . S
C1436 C1438 1.391 . S
C1437 C1436 1.386 . S
C1437 C1441 1.393 . S
C1438 H1430 0.950 . S
C1438 C1436 1.391 . S
C1438 C1439 1.400 . S
C1439 C1438 1.400 . S
C1439 C1440 1.398 . S
C1439 C1445 1.491 . S
C1440 H1431 0.950 . S
C1440 C1439 1.398 . S
C1440 C1441 1.391 . S
C1441 H1429 0.950 . S
C1441 C1437 1.393 . S
C1441 C1440 1.391 . S
C1442 H1432 0.950 . S
C1442 C1443 1.386 . S
C1442 C1444 1.391 . S
C1443 C1442 1.386 . S
C1443 C1447 1.393 . S
C1444 H1433 0.950 . S
C1444 C1442 1.391 . S
C1444 C1445 1.400 . S
C1445 C1439 1.491 . S
C1445 C1444 1.400 . S
C1445 C1446 1.398 . S
C1446 H1434 0.950 . S
C1446 C1445 1.398 . S
C1446 C1447 1.391 . S
C1447 H1435 0.950 . S
C1447 C1443 1.393 . S
C1447 C1446 1.391 . S
H1448 C1456 0.947 1_556 S
H1449 C1461 0.950 . S
H1450 C1458 0.950 1_556 S
H1451 C1460 0.950 . S
H1452 C1462 0.950 1_545 S
H1453 C1464 0.950 . S
H1454 C1466 0.949 1_556 S
H1455 C1467 0.966 . S
C1456 H1448 0.947 1_554 S
C1456 C1457 1.388 . S
C1456 C1458 1.392 . S
C1457 C1456 1.388 . S
C1457 C1461 1.393 . S
C1458 H1450 0.950 1_554 S
C1458 C1456 1.392 . S
C1458 C1459 1.400 . S
C1459 C1458 1.400 . S
C1459 C1460 1.398 . S
C1459 C1465 1.491 . S
C1460 H1451 0.950 . S
C1460 C1459 1.398 . S
C1460 C1461 1.391 . S
C1461 H1449 0.950 . S
C1461 C1457 1.393 . S
C1461 C1460 1.391 . S
C1462 H1452 0.950 1_565 S
C1462 C1463 1.386 . S
C1462 C1464 1.391 . S
C1463 C1462 1.386 . S
C1463 C1467 1.393 . S
C1464 H1453 0.950 . S
C1464 C1462 1.391 . S
C1464 C1465 1.400 . S
C1465 C1459 1.491 . S
C1465 C1464 1.400 . S
C1465 C1466 1.398 . S
C1466 H1454 0.949 1_554 S
C1466 C1465 1.398 . S
C1466 C1467 1.391 . S
C1467 H1455 0.966 . S
C1467 C1463 1.393 . S
C1467 C1466 1.391 . S
H1468 C1476 0.950 . S
H1469 C1481 0.950 . S
H1470 C1478 0.950 . S
H1471 C1480 0.950 . S
H1472 C1482 0.950 . S
H1473 C1484 0.950 . S
H1474 C1486 0.952 . S
H1475 C1487 0.940 1_554 S
C1476 H1468 0.950 . S
C1476 C1477 1.377 1_554 S
C1476 C1478 1.391 . S
C1477 C1476 1.377 1_556 S
C1477 C1481 1.404 . S
C1478 H1470 0.950 . S
C1478 C1476 1.391 . S
C1478 C1479 1.400 1_554 S
C1479 C1478 1.400 1_556 S
C1479 C1480 1.398 . S
C1479 C1485 1.491 . S
C1480 H1471 0.950 . S
C1480 C1479 1.398 . S
C1480 C1481 1.391 . S
C1481 H1469 0.950 . S
C1481 C1477 1.404 . S
C1481 C1480 1.391 . S
C1482 H1472 0.950 . S
C1482 C1483 1.386 . S
C1482 C1484 1.391 . S
C1483 C1482 1.386 . S
C1483 C1487 1.406 . S
C1484 H1473 0.950 . S
C1484 C1482 1.391 . S
C1484 C1485 1.400 . S
C1485 C1479 1.491 . S
C1485 C1484 1.400 . S
C1485 C1486 1.397 1_556 S
C1486 H1474 0.952 . S
C1486 C1485 1.397 1_554 S
C1486 C1487 1.389 1_554 S
C1487 H1475 0.940 1_556 S
C1487 C1483 1.406 . S
C1487 C1486 1.389 1_556 S
H1488 C1496 0.950 . S
H1489 C1501 0.950 . S
H1490 C1498 0.950 . S
H1491 C1500 0.950 . S
H1492 C1502 0.950 . S
H1493 C1504 0.950 . S
H1494 C1506 0.950 . S
H1495 C1507 0.950 . S
C1496 H1488 0.950 . S
C1496 C1497 1.386 . S
C1496 C1498 1.391 . S
C1497 C1496 1.386 . S
C1497 C1501 1.393 . S
C1498 H1490 0.950 . S
C1498 C1496 1.391 . S
C1498 C1499 1.400 . S
C1499 C1498 1.400 . S
C1499 C1500 1.398 . S
C1499 C1505 1.491 . S
C1500 H1491 0.950 . S
C1500 C1499 1.398 . S
C1500 C1501 1.391 . S
C1501 H1489 0.950 . S
C1501 C1497 1.393 . S
C1501 C1500 1.391 . S
C1502 H1492 0.950 . S
C1502 C1503 1.386 . S
C1502 C1504 1.391 . S
C1503 C1502 1.386 . S
C1503 C1507 1.393 . S
C1504 H1493 0.950 . S
C1504 C1502 1.391 . S
C1504 C1505 1.400 . S
C1505 C1499 1.491 . S
C1505 C1504 1.400 . S
C1505 C1506 1.398 . S
C1506 H1494 0.950 . S
C1506 C1505 1.398 . S
C1506 C1507 1.391 . S
C1507 H1495 0.950 . S
C1507 C1503 1.393 . S
C1507 C1506 1.391 . S
H1508 C1516 0.950 . S
H1509 C1521 0.950 . S
H1510 C1518 0.950 . S
H1511 C1520 0.950 . S
H1512 C1522 0.950 . S
H1513 C1524 0.950 . S
H1514 C1526 0.950 . S
H1515 C1527 0.950 . S
C1516 H1508 0.950 . S
C1516 C1517 1.386 . S
C1516 C1518 1.391 . S
C1517 C1516 1.386 . S
C1517 C1521 1.393 . S
C1518 H1510 0.950 . S
C1518 C1516 1.391 . S
C1518 C1519 1.400 . S
C1519 C1518 1.400 . S
C1519 C1520 1.398 . S
C1519 C1525 1.491 . S
C1520 H1511 0.950 . S
C1520 C1519 1.398 . S
C1520 C1521 1.391 . S
C1521 H1509 0.950 . S
C1521 C1517 1.393 . S
C1521 C1520 1.391 . S
C1522 H1512 0.950 . S
C1522 C1523 1.386 . S
C1522 C1524 1.391 . S
C1523 C1522 1.386 . S
C1523 C1527 1.393 . S
C1524 H1513 0.950 . S
C1524 C1522 1.391 . S
C1524 C1525 1.400 . S
C1525 C1519 1.491 . S
C1525 C1524 1.400 . S
C1525 C1526 1.398 . S
C1526 H1514 0.950 . S
C1526 C1525 1.398 . S
C1526 C1527 1.391 . S
C1527 H1515 0.950 . S
C1527 C1523 1.393 . S
C1527 C1526 1.391 . S
H1528 C1536 0.950 . S
H1529 C1541 0.950 . S
H1530 C1538 0.950 . S
H1531 C1540 0.950 . S
H1532 C1542 0.950 . S
H1533 C1544 0.950 . S
H1534 C1546 0.950 . S
H1535 C1547 0.950 . S
C1536 H1528 0.950 . S
C1536 C1537 1.386 . S
C1536 C1538 1.391 . S
C1537 C1536 1.386 . S
C1537 C1541 1.393 . S
C1538 H1530 0.950 . S
C1538 C1536 1.391 . S
C1538 C1539 1.400 . S
C1539 C1538 1.400 . S
C1539 C1540 1.398 . S
C1539 C1545 1.491 . S
C1540 H1531 0.950 . S
C1540 C1539 1.398 . S
C1540 C1541 1.391 . S
C1541 H1529 0.950 . S
C1541 C1537 1.393 . S
C1541 C1540 1.391 . S
C1542 H1532 0.950 . S
C1542 C1543 1.386 . S
C1542 C1544 1.391 . S
C1543 C1542 1.386 . S
C1543 C1547 1.393 . S
C1544 H1533 0.950 . S
C1544 C1542 1.391 . S
C1544 C1545 1.400 . S
C1545 C1539 1.491 . S
C1545 C1544 1.400 . S
C1545 C1546 1.398 . S
C1546 H1534 0.950 . S
C1546 C1545 1.398 . S
C1546 C1547 1.391 . S
C1547 H1535 0.950 . S
C1547 C1543 1.393 . S
C1547 C1546 1.391 . S
H1548 C1556 0.950 . S
H1549 C1561 0.950 . S
H1550 C1558 0.950 . S
H1551 C1560 0.950 . S
H1552 C1562 0.950 . S
H1553 C1564 0.950 . S
H1554 C1566 0.950 . S
H1555 C1567 0.950 . S
C1556 H1548 0.950 . S
C1556 C1557 1.386 . S
C1556 C1558 1.391 . S
C1557 C1556 1.386 . S
C1557 C1561 1.393 . S
C1558 H1550 0.950 . S
C1558 C1556 1.391 . S
C1558 C1559 1.400 . S
C1559 C1558 1.400 . S
C1559 C1560 1.398 . S
C1559 C1565 1.491 . S
C1560 H1551 0.950 . S
C1560 C1559 1.398 . S
C1560 C1561 1.391 . S
C1561 H1549 0.950 . S
C1561 C1557 1.393 . S
C1561 C1560 1.391 . S
C1562 H1552 0.950 . S
C1562 C1563 1.386 . S
C1562 C1564 1.391 . S
C1563 C1562 1.386 . S
C1563 C1567 1.393 . S
C1564 H1553 0.950 . S
C1564 C1562 1.391 . S
C1564 C1565 1.400 . S
C1565 C1559 1.491 . S
C1565 C1564 1.400 . S
C1565 C1566 1.398 . S
C1566 H1554 0.950 . S
C1566 C1565 1.398 . S
C1566 C1567 1.391 . S
C1567 H1555 0.950 . S
C1567 C1563 1.393 . S
C1567 C1566 1.391 . S
H1568 C1576 0.950 . S
H1569 C1581 0.950 . S
H1570 C1578 0.950 . S
H1571 C1580 0.950 . S
H1572 C1582 0.950 . S
H1573 C1584 0.950 . S
H1574 C1586 0.950 . S
H1575 C1587 0.950 . S
C1576 H1568 0.950 . S
C1576 C1577 1.386 . S
C1576 C1578 1.391 . S
C1577 C1576 1.386 . S
C1577 C1581 1.393 . S
C1578 H1570 0.950 . S
C1578 C1576 1.391 . S
C1578 C1579 1.400 . S
C1579 C1578 1.400 . S
C1579 C1580 1.398 . S
C1579 C1585 1.491 . S
C1580 H1571 0.950 . S
C1580 C1579 1.398 . S
C1580 C1581 1.391 . S
C1581 H1569 0.950 . S
C1581 C1577 1.393 . S
C1581 C1580 1.391 . S
C1582 H1572 0.950 . S
C1582 C1583 1.386 . S
C1582 C1584 1.391 . S
C1583 C1582 1.386 . S
C1583 C1587 1.393 . S
C1584 H1573 0.950 . S
C1584 C1582 1.391 . S
C1584 C1585 1.400 . S
C1585 C1579 1.491 . S
C1585 C1584 1.400 . S
C1585 C1586 1.398 . S
C1586 H1574 0.950 . S
C1586 C1585 1.398 . S
C1586 C1587 1.391 . S
C1587 H1575 0.950 . S
C1587 C1583 1.393 . S
C1587 C1586 1.391 . S
H1588 C1596 0.950 . S
H1589 C1601 0.950 . S
H1590 C1598 0.950 . S
H1591 C1600 0.950 . S
H1592 C1602 0.950 . S
H1593 C1604 0.950 . S
H1594 C1606 0.950 . S
H1595 C1607 0.950 . S
C1596 H1588 0.950 . S
C1596 C1597 1.386 . S
C1596 C1598 1.391 . S
C1597 C1596 1.386 . S
C1597 C1601 1.393 . S
C1598 H1590 0.950 . S
C1598 C1596 1.391 . S
C1598 C1599 1.400 . S
C1599 C1598 1.400 . S
C1599 C1600 1.398 . S
C1599 C1605 1.491 . S
C1600 H1591 0.950 . S
C1600 C1599 1.398 . S
C1600 C1601 1.391 . S
C1601 H1589 0.950 . S
C1601 C1597 1.393 . S
C1601 C1600 1.391 . S
C1602 H1592 0.950 . S
C1602 C1603 1.386 . S
C1602 C1604 1.391 . S
C1603 C1602 1.386 . S
C1603 C1607 1.393 . S
C1604 H1593 0.950 . S
C1604 C1602 1.391 . S
C1604 C1605 1.400 . S
C1605 C1599 1.491 . S
C1605 C1604 1.400 . S
C1605 C1606 1.398 . S
C1606 H1594 0.950 . S
C1606 C1605 1.398 . S
C1606 C1607 1.391 . S
C1607 H1595 0.950 . S
C1607 C1603 1.393 . S
C1607 C1606 1.391 . S
H1608 C1616 0.950 . S
H1609 C1621 0.950 . S
H1610 C1618 0.950 . S
H1611 C1620 0.950 . S
H1612 C1622 0.950 . S
H1613 C1624 0.950 . S
H1614 C1626 0.950 . S
H1615 C1627 0.950 . S
C1616 H1608 0.950 . S
C1616 C1617 1.386 . S
C1616 C1618 1.391 . S
C1617 C1616 1.386 . S
C1617 C1621 1.393 . S
C1618 H1610 0.950 . S
C1618 C1616 1.391 . S
C1618 C1619 1.400 . S
C1619 C1618 1.400 . S
C1619 C1620 1.398 . S
C1619 C1625 1.491 . S
C1620 H1611 0.950 . S
C1620 C1619 1.398 . S
C1620 C1621 1.391 . S
C1621 H1609 0.950 . S
C1621 C1617 1.393 . S
C1621 C1620 1.391 . S
C1622 H1612 0.950 . S
C1622 C1623 1.386 . S
C1622 C1624 1.391 . S
C1623 C1622 1.386 . S
C1623 C1627 1.393 . S
C1624 H1613 0.950 . S
C1624 C1622 1.391 . S
C1624 C1625 1.400 . S
C1625 C1619 1.491 . S
C1625 C1624 1.400 . S
C1625 C1626 1.398 . S
C1626 H1614 0.950 . S
C1626 C1625 1.398 . S
C1626 C1627 1.391 . S
C1627 H1615 0.950 . S
C1627 C1623 1.393 . S
C1627 C1626 1.391 . S
H1628 C1636 0.950 . S
H1629 C1641 0.950 . S
H1630 C1638 0.950 . S
H1631 C1640 0.950 . S
H1632 C1642 0.950 . S
H1633 C1644 0.950 . S
H1634 C1646 0.950 . S
H1635 C1647 0.950 . S
C1636 H1628 0.950 . S
C1636 C1637 1.386 . S
C1636 C1638 1.391 . S
C1637 C1636 1.386 . S
C1637 C1641 1.393 . S
C1638 H1630 0.950 . S
C1638 C1636 1.391 . S
C1638 C1639 1.400 . S
C1639 C1638 1.400 . S
C1639 C1640 1.398 . S
C1639 C1645 1.491 . S
C1640 H1631 0.950 . S
C1640 C1639 1.398 . S
C1640 C1641 1.391 . S
C1641 H1629 0.950 . S
C1641 C1637 1.393 . S
C1641 C1640 1.391 . S
C1642 H1632 0.950 . S
C1642 C1643 1.386 . S
C1642 C1644 1.391 . S
C1643 C1642 1.386 . S
C1643 C1647 1.393 . S
C1644 H1633 0.950 . S
C1644 C1642 1.391 . S
C1644 C1645 1.400 . S
C1645 C1639 1.491 . S
C1645 C1644 1.400 . S
C1645 C1646 1.398 . S
C1646 H1634 0.950 . S
C1646 C1645 1.398 . S
C1646 C1647 1.391 . S
C1647 H1635 0.950 . S
C1647 C1643 1.393 . S
C1647 C1646 1.391 . S
H1648 C1656 0.950 . S
H1649 C1661 0.950 . S
H1650 C1658 0.950 . S
H1651 C1660 0.950 . S
H1652 C1662 0.950 . S
H1653 C1664 0.950 . S
H1654 C1666 0.950 . S
H1655 C1667 0.950 . S
C1656 H1648 0.950 . S
C1656 C1657 1.386 . S
C1656 C1658 1.391 . S
C1657 C1656 1.386 . S
C1657 C1661 1.393 1_455 S
C1658 H1650 0.950 . S
C1658 C1656 1.391 . S
C1658 C1659 1.400 . S
C1659 C1658 1.400 . S
C1659 C1660 1.398 1_455 S
C1659 C1665 1.491 . S
C1660 H1651 0.950 . S
C1660 C1659 1.398 1_655 S
C1660 C1661 1.391 . S
C1661 H1649 0.950 . S
C1661 C1657 1.393 1_655 S
C1661 C1660 1.391 . S
C1662 H1652 0.950 . S
C1662 C1663 1.386 1_655 S
C1662 C1664 1.391 . S
C1663 C1662 1.386 1_455 S
C1663 C1667 1.393 . S
C1664 H1653 0.950 . S
C1664 C1662 1.391 . S
C1664 C1665 1.400 1_655 S
C1665 C1659 1.491 . S
C1665 C1664 1.400 1_455 S
C1665 C1666 1.398 . S
C1666 H1654 0.950 . S
C1666 C1665 1.398 . S
C1666 C1667 1.391 . S
C1667 H1655 0.950 . S
C1667 C1663 1.393 . S
C1667 C1666 1.391 . S
H1668 C1676 0.950 . S
H1669 C1681 0.950 . S
H1670 C1678 0.950 . S
H1671 C1680 0.950 . S
H1672 C1682 0.950 . S
H1673 C1684 0.950 . S
H1674 C1686 0.950 . S
H1675 C1687 0.950 . S
C1676 H1668 0.950 . S
C1676 C1677 1.386 . S
C1676 C1678 1.391 . S
C1677 C1676 1.386 . S
C1677 C1681 1.393 . S
C1678 H1670 0.950 . S
C1678 C1676 1.391 . S
C1678 C1679 1.400 . S
C1679 C1678 1.400 . S
C1679 C1680 1.398 . S
C1679 C1685 1.491 . S
C1680 H1671 0.950 . S
C1680 C1679 1.398 . S
C1680 C1681 1.391 . S
C1681 H1669 0.950 . S
C1681 C1677 1.393 . S
C1681 C1680 1.391 . S
C1682 H1672 0.950 . S
C1682 C1683 1.386 . S
C1682 C1684 1.391 . S
C1683 C1682 1.386 . S
C1683 C1687 1.393 . S
C1684 H1673 0.950 . S
C1684 C1682 1.391 . S
C1684 C1685 1.400 . S
C1685 C1679 1.491 . S
C1685 C1684 1.400 . S
C1685 C1686 1.398 . S
C1686 H1674 0.950 . S
C1686 C1685 1.398 . S
C1686 C1687 1.391 . S
C1687 H1675 0.950 . S
C1687 C1683 1.393 . S
C1687 C1686 1.391 . S
H1688 C1696 0.950 . S
H1689 C1701 0.950 . S
H1690 C1698 0.950 . S
H1691 C1700 0.950 . S
H1692 C1702 0.950 . S
H1693 C1704 0.950 . S
H1694 C1706 0.950 . S
H1695 C1707 0.950 . S
C1696 H1688 0.950 . S
C1696 C1697 1.386 . S
C1696 C1698 1.391 . S
C1697 C1696 1.386 . S
C1697 C1701 1.393 . S
C1698 H1690 0.950 . S
C1698 C1696 1.391 . S
C1698 C1699 1.400 . S
C1699 C1698 1.400 . S
C1699 C1700 1.398 . S
C1699 C1705 1.491 . S
C1700 H1691 0.950 . S
C1700 C1699 1.398 . S
C1700 C1701 1.391 . S
C1701 H1689 0.950 . S
C1701 C1697 1.393 . S
C1701 C1700 1.391 . S
C1702 H1692 0.950 . S
C1702 C1703 1.386 . S
C1702 C1704 1.391 . S
C1703 C1702 1.386 . S
C1703 C1707 1.393 . S
C1704 H1693 0.950 . S
C1704 C1702 1.391 . S
C1704 C1705 1.400 . S
C1705 C1699 1.491 . S
C1705 C1704 1.400 . S
C1705 C1706 1.398 . S
C1706 H1694 0.950 . S
C1706 C1705 1.398 . S
C1706 C1707 1.391 . S
C1707 H1695 0.950 . S
C1707 C1703 1.393 . S
C1707 C1706 1.391 . S
H1708 C1716 0.950 . S
H1709 C1721 0.950 . S
H1710 C1718 0.950 . S
H1711 C1720 0.950 . S
H1712 C1722 0.950 . S
H1713 C1724 0.950 . S
H1714 C1726 0.950 . S
H1715 C1727 0.950 . S
C1716 H1708 0.950 . S
C1716 C1717 1.386 . S
C1716 C1718 1.391 . S
C1717 C1716 1.386 . S
C1717 C1721 1.393 . S
C1718 H1710 0.950 . S
C1718 C1716 1.391 . S
C1718 C1719 1.400 . S
C1719 C1718 1.400 . S
C1719 C1720 1.398 . S
C1719 C1725 1.491 . S
C1720 H1711 0.950 . S
C1720 C1719 1.398 . S
C1720 C1721 1.391 . S
C1721 H1709 0.950 . S
C1721 C1717 1.393 . S
C1721 C1720 1.391 . S
C1722 H1712 0.950 . S
C1722 C1723 1.386 . S
C1722 C1724 1.391 . S
C1723 C1722 1.386 . S
C1723 C1727 1.393 . S
C1724 H1713 0.950 . S
C1724 C1722 1.391 . S
C1724 C1725 1.400 . S
C1725 C1719 1.491 . S
C1725 C1724 1.400 . S
C1725 C1726 1.398 . S
C1726 H1714 0.950 . S
C1726 C1725 1.398 . S
C1726 C1727 1.391 . S
C1727 H1715 0.950 . S
C1727 C1723 1.393 . S
C1727 C1726 1.391 . S
H1728 C1736 0.950 . S
H1729 C1741 0.950 . S
H1730 C1738 0.950 . S
H1731 C1740 0.950 . S
H1732 C1742 0.950 . S
H1733 C1744 0.950 . S
H1734 C1746 0.950 . S
H1735 C1747 0.950 . S
C1736 H1728 0.950 . S
C1736 C1737 1.386 1_655 S
C1736 C1738 1.391 . S
C1737 C1736 1.386 1_455 S
C1737 C1741 1.393 . S
C1738 H1730 0.950 . S
C1738 C1736 1.391 . S
C1738 C1739 1.400 1_655 S
C1739 C1738 1.400 1_455 S
C1739 C1740 1.398 . S
C1739 C1745 1.491 . S
C1740 H1731 0.950 . S
C1740 C1739 1.398 . S
C1740 C1741 1.391 . S
C1741 H1729 0.950 . S
C1741 C1737 1.393 . S
C1741 C1740 1.391 . S
C1742 H1732 0.950 . S
C1742 C1743 1.386 . S
C1742 C1744 1.391 . S
C1743 C1742 1.386 . S
C1743 C1747 1.393 1_455 S
C1744 H1733 0.950 . S
C1744 C1742 1.391 . S
C1744 C1745 1.400 . S
C1745 C1739 1.491 . S
C1745 C1744 1.400 . S
C1745 C1746 1.398 1_455 S
C1746 H1734 0.950 . S
C1746 C1745 1.398 1_655 S
C1746 C1747 1.391 . S
C1747 H1735 0.950 . S
C1747 C1743 1.393 1_655 S
C1747 C1746 1.391 . S
H1748 C1756 0.950 . S
H1749 C1761 0.950 . S
H1750 C1758 0.950 . S
H1751 C1760 0.950 . S
H1752 C1762 0.950 . S
H1753 C1764 0.950 . S
H1754 C1766 0.950 . S
H1755 C1767 0.950 . S
C1756 H1748 0.950 . S
C1756 C1757 1.386 . S
C1756 C1758 1.391 . S
C1757 C1756 1.386 . S
C1757 C1761 1.393 . S
C1758 H1750 0.950 . S
C1758 C1756 1.391 . S
C1758 C1759 1.400 . S
C1759 C1758 1.400 . S
C1759 C1760 1.398 . S
C1759 C1765 1.491 . S
C1760 H1751 0.950 . S
C1760 C1759 1.398 . S
C1760 C1761 1.391 . S
C1761 H1749 0.950 . S
C1761 C1757 1.393 . S
C1761 C1760 1.391 . S
C1762 H1752 0.950 . S
C1762 C1763 1.386 . S
C1762 C1764 1.391 . S
C1763 C1762 1.386 . S
C1763 C1767 1.393 . S
C1764 H1753 0.950 . S
C1764 C1762 1.391 . S
C1764 C1765 1.400 . S
C1765 C1759 1.491 . S
C1765 C1764 1.400 . S
C1765 C1766 1.398 . S
C1766 H1754 0.950 . S
C1766 C1765 1.398 . S
C1766 C1767 1.391 . S
C1767 H1755 0.950 . S
C1767 C1763 1.393 . S
C1767 C1766 1.391 . S
H1768 C1776 0.950 . S
H1769 C1781 0.950 . S
H1770 C1778 0.950 . S
H1771 C1780 0.950 . S
H1772 C1782 0.950 . S
H1773 C1784 0.950 . S
H1774 C1786 0.950 . S
H1775 C1787 0.950 . S
C1776 H1768 0.950 . S
C1776 C1777 1.386 . S
C1776 C1778 1.391 . S
C1777 C1776 1.386 . S
C1777 C1781 1.393 . S
C1778 H1770 0.950 . S
C1778 C1776 1.391 . S
C1778 C1779 1.400 . S
C1779 C1778 1.400 . S
C1779 C1780 1.398 . S
C1779 C1785 1.491 . S
C1780 H1771 0.950 . S
C1780 C1779 1.398 . S
C1780 C1781 1.391 . S
C1781 H1769 0.950 . S
C1781 C1777 1.393 . S
C1781 C1780 1.391 . S
C1782 H1772 0.950 . S
C1782 C1783 1.386 . S
C1782 C1784 1.391 . S
C1783 C1782 1.386 . S
C1783 C1787 1.393 . S
C1784 H1773 0.950 . S
C1784 C1782 1.391 . S
C1784 C1785 1.400 . S
C1785 C1779 1.491 . S
C1785 C1784 1.400 . S
C1785 C1786 1.398 . S
C1786 H1774 0.950 . S
C1786 C1785 1.398 . S
C1786 C1787 1.391 . S
C1787 H1775 0.950 . S
C1787 C1783 1.393 . S
C1787 C1786 1.391 . S
H1788 C1796 0.950 . S
H1789 C1801 0.950 . S
H1790 C1798 0.950 . S
H1791 C1800 0.950 . S
H1792 C1802 0.950 . S
H1793 C1804 0.950 . S
H1794 C1806 0.950 . S
H1795 C1807 0.950 . S
C1796 H1788 0.950 . S
C1796 C1797 1.386 . S
C1796 C1798 1.391 . S
C1797 C1796 1.386 . S
C1797 C1801 1.393 . S
C1798 H1790 0.950 . S
C1798 C1796 1.391 . S
C1798 C1799 1.400 . S
C1799 C1798 1.400 . S
C1799 C1800 1.398 . S
C1799 C1805 1.491 . S
C1800 H1791 0.950 . S
C1800 C1799 1.398 . S
C1800 C1801 1.391 . S
C1801 H1789 0.950 . S
C1801 C1797 1.393 . S
C1801 C1800 1.391 . S
C1802 H1792 0.950 . S
C1802 C1803 1.386 . S
C1802 C1804 1.391 . S
C1803 C1802 1.386 . S
C1803 C1807 1.393 . S
C1804 H1793 0.950 . S
C1804 C1802 1.391 . S
C1804 C1805 1.400 . S
C1805 C1799 1.491 . S
C1805 C1804 1.400 . S
C1805 C1806 1.398 . S
C1806 H1794 0.950 . S
C1806 C1805 1.398 . S
C1806 C1807 1.391 . S
C1807 H1795 0.950 . S
C1807 C1803 1.393 . S
C1807 C1806 1.391 . S
H1808 C1816 0.950 . S
H1809 C1821 0.950 . S
H1810 C1818 0.950 . S
H1811 C1820 0.950 . S
H1812 C1822 0.950 . S
H1813 C1824 0.950 . S
H1814 C1826 0.950 . S
H1815 C1827 0.950 . S
C1816 H1808 0.950 . S
C1816 C1817 1.386 . S
C1816 C1818 1.391 . S
C1817 C1816 1.386 . S
C1817 C1821 1.393 . S
C1818 H1810 0.950 . S
C1818 C1816 1.391 . S
C1818 C1819 1.400 . S
C1819 C1818 1.400 . S
C1819 C1820 1.398 . S
C1819 C1825 1.491 . S
C1820 H1811 0.950 . S
C1820 C1819 1.398 . S
C1820 C1821 1.391 . S
C1821 H1809 0.950 . S
C1821 C1817 1.393 . S
C1821 C1820 1.391 . S
C1822 H1812 0.950 . S
C1822 C1823 1.386 . S
C1822 C1824 1.391 . S
C1823 C1822 1.386 . S
C1823 C1827 1.393 . S
C1824 H1813 0.950 . S
C1824 C1822 1.391 . S
C1824 C1825 1.400 . S
C1825 C1819 1.491 . S
C1825 C1824 1.400 . S
C1825 C1826 1.398 . S
C1826 H1814 0.950 . S
C1826 C1825 1.398 . S
C1826 C1827 1.391 . S
C1827 H1815 0.950 . S
C1827 C1823 1.393 . S
C1827 C1826 1.391 . S
H1828 C1836 0.950 . S
H1829 C1841 0.950 . S
H1830 C1838 0.950 . S
H1831 C1840 0.950 . S
H1832 C1842 0.950 . S
H1833 C1844 0.950 . S
H1834 C1846 0.950 . S
H1835 C1847 0.950 . S
C1836 H1828 0.950 . S
C1836 C1837 1.386 . S
C1836 C1838 1.391 . S
C1837 C1836 1.386 . S
C1837 C1841 1.393 . S
C1838 H1830 0.950 . S
C1838 C1836 1.391 . S
C1838 C1839 1.400 . S
C1839 C1838 1.400 . S
C1839 C1840 1.398 . S
C1839 C1845 1.491 . S
C1840 H1831 0.950 . S
C1840 C1839 1.398 . S
C1840 C1841 1.391 . S
C1841 H1829 0.950 . S
C1841 C1837 1.393 . S
C1841 C1840 1.391 . S
C1842 H1832 0.950 . S
C1842 C1843 1.386 . S
C1842 C1844 1.391 . S
C1843 C1842 1.386 . S
C1843 C1847 1.393 . S
C1844 H1833 0.950 . S
C1844 C1842 1.391 . S
C1844 C1845 1.400 . S
C1845 C1839 1.491 . S
C1845 C1844 1.400 . S
C1845 C1846 1.398 . S
C1846 H1834 0.950 . S
C1846 C1845 1.398 . S
C1846 C1847 1.391 . S
C1847 H1835 0.950 . S
C1847 C1843 1.393 . S
C1847 C1846 1.391 . S
H1848 C1856 0.950 . S
H1849 C1861 0.950 . S
H1850 C1858 0.950 . S
H1851 C1860 0.950 . S
H1852 C1862 0.950 . S
H1853 C1864 0.950 . S
H1854 C1866 0.950 . S
H1855 C1867 0.950 . S
C1856 H1848 0.950 . S
C1856 C1857 1.386 . S
C1856 C1858 1.391 . S
C1857 C1856 1.386 . S
C1857 C1861 1.393 . S
C1858 H1850 0.950 . S
C1858 C1856 1.391 . S
C1858 C1859 1.400 . S
C1859 C1858 1.400 . S
C1859 C1860 1.398 . S
C1859 C1865 1.491 . S
C1860 H1851 0.950 . S
C1860 C1859 1.398 . S
C1860 C1861 1.391 . S
C1861 H1849 0.950 . S
C1861 C1857 1.393 . S
C1861 C1860 1.391 . S
C1862 H1852 0.950 . S
C1862 C1863 1.386 . S
C1862 C1864 1.391 . S
C1863 C1862 1.386 . S
C1863 C1867 1.393 . S
C1864 H1853 0.950 . S
C1864 C1862 1.391 . S
C1864 C1865 1.400 . S
C1865 C1859 1.491 . S
C1865 C1864 1.400 . S
C1865 C1866 1.398 . S
C1866 H1854 0.950 . S
C1866 C1865 1.398 . S
C1866 C1867 1.391 . S
C1867 H1855 0.950 . S
C1867 C1863 1.393 . S
C1867 C1866 1.391 . S
H1868 C1876 0.950 . S
H1869 C1881 0.950 . S
H1870 C1878 0.950 . S
H1871 C1880 0.950 . S
H1872 C1882 0.950 . S
H1873 C1884 0.950 . S
H1874 C1886 0.950 . S
H1875 C1887 0.950 . S
C1876 H1868 0.950 . S
C1876 C1877 1.386 . S
C1876 C1878 1.391 . S
C1877 C1876 1.386 . S
C1877 C1881 1.393 . S
C1878 H1870 0.950 . S
C1878 C1876 1.391 . S
C1878 C1879 1.400 . S
C1879 C1878 1.400 . S
C1879 C1880 1.398 . S
C1879 C1885 1.491 . S
C1880 H1871 0.950 . S
C1880 C1879 1.398 . S
C1880 C1881 1.391 . S
C1881 H1869 0.950 . S
C1881 C1877 1.393 . S
C1881 C1880 1.391 . S
C1882 H1872 0.950 . S
C1882 C1883 1.386 . S
C1882 C1884 1.391 . S
C1883 C1882 1.386 . S
C1883 C1887 1.393 . S
C1884 H1873 0.950 . S
C1884 C1882 1.391 . S
C1884 C1885 1.400 . S
C1885 C1879 1.491 . S
C1885 C1884 1.400 . S
C1885 C1886 1.398 . S
C1886 H1874 0.950 . S
C1886 C1885 1.398 . S
C1886 C1887 1.391 . S
C1887 H1875 0.950 . S
C1887 C1883 1.393 . S
C1887 C1886 1.391 . S
H1888 C1896 0.950 . S
H1889 C1901 0.950 . S
H1890 C1898 0.950 . S
H1891 C1900 0.950 . S
H1892 C1902 0.950 1_455 S
H1893 C1904 0.950 . S
H1894 C1906 0.950 . S
H1895 C1907 0.950 . S
C1896 H1888 0.950 . S
C1896 C1897 1.386 . S
C1896 C1898 1.391 . S
C1897 C1896 1.386 . S
C1897 C1901 1.393 . S
C1898 H1890 0.950 . S
C1898 C1896 1.391 . S
C1898 C1899 1.400 . S
C1899 C1898 1.400 . S
C1899 C1900 1.398 . S
C1899 C1905 1.491 . S
C1900 H1891 0.950 . S
C1900 C1899 1.398 . S
C1900 C1901 1.391 . S
C1901 H1889 0.950 . S
C1901 C1897 1.393 . S
C1901 C1900 1.391 . S
C1902 H1892 0.950 1_655 S
C1902 C1903 1.386 . S
C1902 C1904 1.391 . S
C1903 C1902 1.386 . S
C1903 C1907 1.393 . S
C1904 H1893 0.950 . S
C1904 C1902 1.391 . S
C1904 C1905 1.400 . S
C1905 C1899 1.491 . S
C1905 C1904 1.400 . S
C1905 C1906 1.398 . S
C1906 H1894 0.950 . S
C1906 C1905 1.398 . S
C1906 C1907 1.391 . S
C1907 H1895 0.950 . S
C1907 C1903 1.393 . S
C1907 C1906 1.391 . S
H1908 C1916 0.950 . S
H1909 C1921 0.950 . S
H1910 C1918 0.950 . S
H1911 C1920 0.950 . S
H1912 C1922 0.950 . S
H1913 C1924 0.950 . S
H1914 C1926 0.950 . S
H1915 C1927 0.950 . S
C1916 H1908 0.950 . S
C1916 C1917 1.386 . S
C1916 C1918 1.391 . S
C1917 C1916 1.386 . S
C1917 C1921 1.393 . S
C1918 H1910 0.950 . S
C1918 C1916 1.391 . S
C1918 C1919 1.400 . S
C1919 C1918 1.400 . S
C1919 C1920 1.398 . S
C1919 C1925 1.491 . S
C1920 H1911 0.950 . S
C1920 C1919 1.398 . S
C1920 C1921 1.391 . S
C1921 H1909 0.950 . S
C1921 C1917 1.393 . S
C1921 C1920 1.391 . S
C1922 H1912 0.950 . S
C1922 C1923 1.386 . S
C1922 C1924 1.391 . S
C1923 C1922 1.386 . S
C1923 C1927 1.393 . S
C1924 H1913 0.950 . S
C1924 C1922 1.391 . S
C1924 C1925 1.400 . S
C1925 C1919 1.491 . S
C1925 C1924 1.400 . S
C1925 C1926 1.398 . S
C1926 H1914 0.950 . S
C1926 C1925 1.398 . S
C1926 C1927 1.391 . S
C1927 H1915 0.950 . S
C1927 C1923 1.393 . S
C1927 C1926 1.391 . S
H1928 C1936 0.950 . S
H1929 C1941 0.950 . S
H1930 C1938 0.950 . S
H1931 C1940 0.950 . S
H1932 C1942 0.950 . S
H1933 C1944 0.950 . S
H1934 C1946 0.950 . S
H1935 C1947 0.950 . S
C1936 H1928 0.950 . S
C1936 C1937 1.386 . S
C1936 C1938 1.391 . S
C1937 C1936 1.386 . S
C1937 C1941 1.393 . S
C1938 H1930 0.950 . S
C1938 C1936 1.391 . S
C1938 C1939 1.400 . S
C1939 C1938 1.400 . S
C1939 C1940 1.398 . S
C1939 C1945 1.491 . S
C1940 H1931 0.950 . S
C1940 C1939 1.398 . S
C1940 C1941 1.391 . S
C1941 H1929 0.950 . S
C1941 C1937 1.393 . S
C1941 C1940 1.391 . S
C1942 H1932 0.950 . S
C1942 C1943 1.386 . S
C1942 C1944 1.391 . S
C1943 C1942 1.386 . S
C1943 C1947 1.393 . S
C1944 H1933 0.950 . S
C1944 C1942 1.391 . S
C1944 C1945 1.400 . S
C1945 C1939 1.491 . S
C1945 C1944 1.400 . S
C1945 C1946 1.398 . S
C1946 H1934 0.950 . S
C1946 C1945 1.398 . S
C1946 C1947 1.391 . S
C1947 H1935 0.950 . S
C1947 C1943 1.393 . S
C1947 C1946 1.391 . S
H1948 C1956 0.950 . S
H1949 C1961 0.950 . S
H1950 C1958 0.950 . S
H1951 C1960 0.950 . S
H1952 C1962 0.950 . S
H1953 C1964 0.950 . S
H1954 C1966 0.950 . S
H1955 C1967 0.950 . S
C1956 H1948 0.950 . S
C1956 C1957 1.386 . S
C1956 C1958 1.391 . S
C1957 C1956 1.386 . S
C1957 C1961 1.393 . S
C1958 H1950 0.950 . S
C1958 C1956 1.391 . S
C1958 C1959 1.400 . S
C1959 C1958 1.400 . S
C1959 C1960 1.398 . S
C1959 C1965 1.491 . S
C1960 H1951 0.950 . S
C1960 C1959 1.398 . S
C1960 C1961 1.391 . S
C1961 H1949 0.950 . S
C1961 C1957 1.393 . S
C1961 C1960 1.391 . S
C1962 H1952 0.950 . S
C1962 C1963 1.386 . S
C1962 C1964 1.391 . S
C1963 C1962 1.386 . S
C1963 C1967 1.393 . S
C1964 H1953 0.950 . S
C1964 C1962 1.391 . S
C1964 C1965 1.400 . S
C1965 C1959 1.491 . S
C1965 C1964 1.400 . S
C1965 C1966 1.398 . S
C1966 H1954 0.950 . S
C1966 C1965 1.398 . S
C1966 C1967 1.391 . S
C1967 H1955 0.950 . S
C1967 C1963 1.393 . S
C1967 C1966 1.391 . S
H1968 C1976 0.950 . S
H1969 C1981 0.950 . S
H1970 C1978 0.950 . S
H1971 C1980 0.950 . S
H1972 C1982 0.950 . S
H1973 C1984 0.950 . S
H1974 C1986 0.950 . S
H1975 C1987 0.950 . S
C1976 H1968 0.950 . S
C1976 C1977 1.386 . S
C1976 C1978 1.391 . S
C1977 C1976 1.386 . S
C1977 C1981 1.393 . S
C1978 H1970 0.950 . S
C1978 C1976 1.391 . S
C1978 C1979 1.400 . S
C1979 C1978 1.400 . S
C1979 C1980 1.398 . S
C1979 C1985 1.491 . S
C1980 H1971 0.950 . S
C1980 C1979 1.398 . S
C1980 C1981 1.391 . S
C1981 H1969 0.950 . S
C1981 C1977 1.393 . S
C1981 C1980 1.391 . S
C1982 H1972 0.950 . S
C1982 C1983 1.386 . S
C1982 C1984 1.391 . S
C1983 C1982 1.386 . S
C1983 C1987 1.393 . S
C1984 H1973 0.950 . S
C1984 C1982 1.391 . S
C1984 C1985 1.400 . S
C1985 C1979 1.491 . S
C1985 C1984 1.400 . S
C1985 C1986 1.398 . S
C1986 H1974 0.950 . S
C1986 C1985 1.398 . S
C1986 C1987 1.391 . S
C1987 H1975 0.950 . S
C1987 C1983 1.393 . S
C1987 C1986 1.391 . S
H1988 C1996 0.950 . S
H1989 C2001 0.950 . S
H1990 C1998 0.950 . S
H1991 C2000 0.947 1_556 S
H1992 C2002 0.950 1_566 S
H1993 C2004 0.950 1_556 S
H1994 C2006 0.950 . S
H1995 C2007 0.950 . S
C1996 H1988 0.950 . S
C1996 C1997 1.386 . S
C1996 C1998 1.391 . S
C1997 C1996 1.386 . S
C1997 C2001 1.393 1_554 S
C1998 H1990 0.950 . S
C1998 C1996 1.391 . S
C1998 C1999 1.400 . S
C1999 C1998 1.400 . S
C1999 C2000 1.402 . S
C1999 C2005 1.491 . S
C2000 H1991 0.947 1_554 S
C2000 C1999 1.402 . S
C2000 C2001 1.390 1_554 S
C2001 H1989 0.950 . S
C2001 C1997 1.393 1_556 S
C2001 C2000 1.390 1_556 S
C2002 H1992 0.950 1_544 S
C2002 C2003 1.386 . S
C2002 C2004 1.391 . S
C2003 C2002 1.386 . S
C2003 C2007 1.393 . S
C2004 H1993 0.950 1_554 S
C2004 C2002 1.391 . S
C2004 C2005 1.400 . S
C2005 C1999 1.491 . S
C2005 C2004 1.400 . S
C2005 C2006 1.398 . S
C2006 H1994 0.950 . S
C2006 C2005 1.398 . S
C2006 C2007 1.391 . S
C2007 H1995 0.950 . S
C2007 C2003 1.393 . S
C2007 C2006 1.391 . S
H2008 C2016 0.950 . S
H2009 C2021 0.950 . S
H2010 C2018 0.950 . S
H2011 C2020 0.950 . S
H2012 C2022 0.950 . S
H2013 C2024 0.950 . S
H2014 C2026 0.950 . S
H2015 C2027 0.950 . S
C2016 H2008 0.950 . S
C2016 C2017 1.386 . S
C2016 C2018 1.391 . S
C2017 C2016 1.386 . S
C2017 C2021 1.393 . S
C2018 H2010 0.950 . S
C2018 C2016 1.391 . S
C2018 C2019 1.400 . S
C2019 C2018 1.400 . S
C2019 C2020 1.398 . S
C2019 C2025 1.491 . S
C2020 H2011 0.950 . S
C2020 C2019 1.398 . S
C2020 C2021 1.391 . S
C2021 H2009 0.950 . S
C2021 C2017 1.393 . S
C2021 C2020 1.391 . S
C2022 H2012 0.950 . S
C2022 C2023 1.386 . S
C2022 C2024 1.391 . S
C2023 C2022 1.386 . S
C2023 C2027 1.393 . S
C2024 H2013 0.950 . S
C2024 C2022 1.391 . S
C2024 C2025 1.400 . S
C2025 C2019 1.491 . S
C2025 C2024 1.400 . S
C2025 C2026 1.398 . S
C2026 H2014 0.950 . S
C2026 C2025 1.398 . S
C2026 C2027 1.391 . S
C2027 H2015 0.950 . S
C2027 C2023 1.393 . S
C2027 C2026 1.391 . S
H2028 C2036 0.950 . S
H2029 C2041 0.950 . S
H2030 C2038 0.950 . S
H2031 C2040 0.950 . S
H2032 C2042 0.950 . S
H2033 C2044 0.950 . S
H2034 C2046 0.950 . S
H2035 C2047 0.950 . S
C2036 H2028 0.950 . S
C2036 C2037 1.386 . S
C2036 C2038 1.391 . S
C2037 C2036 1.386 . S
C2037 C2041 1.393 1_554 S
C2038 H2030 0.950 . S
C2038 C2036 1.391 . S
C2038 C2039 1.400 . S
C2039 C2038 1.400 . S
C2039 C2040 1.398 1_554 S
C2039 C2045 1.490 1_554 S
C2040 H2031 0.950 . S
C2040 C2039 1.398 1_556 S
C2040 C2041 1.391 . S
C2041 H2029 0.950 . S
C2041 C2037 1.393 1_556 S
C2041 C2040 1.391 . S
C2042 H2032 0.950 . S
C2042 C2043 1.386 . S
C2042 C2044 1.391 . S
C2043 C2042 1.386 . S
C2043 C2047 1.393 1_556 S
C2044 H2033 0.950 . S
C2044 C2042 1.391 . S
C2044 C2045 1.413 . S
C2045 C2039 1.490 1_556 S
C2045 C2044 1.413 . S
C2045 C2046 1.387 1_556 S
C2046 H2034 0.950 . S
C2046 C2045 1.387 1_554 S
C2046 C2047 1.391 . S
C2047 H2035 0.950 . S
C2047 C2043 1.393 1_554 S
C2047 C2046 1.391 . S
H2048 C2056 0.950 . S
H2049 C2061 0.950 . S
H2050 C2058 0.950 . S
H2051 C2060 0.950 . S
H2052 C2062 0.950 . S
H2053 C2064 0.950 . S
H2054 C2066 0.950 . S
H2055 C2067 0.950 . S
C2056 H2048 0.950 . S
C2056 C2057 1.386 . S
C2056 C2058 1.391 . S
C2057 C2056 1.386 . S
C2057 C2061 1.393 . S
C2058 H2050 0.950 . S
C2058 C2056 1.391 . S
C2058 C2059 1.400 . S
C2059 C2058 1.400 . S
C2059 C2060 1.398 . S
C2059 C2065 1.491 . S
C2060 H2051 0.950 . S
C2060 C2059 1.398 . S
C2060 C2061 1.391 . S
C2061 H2049 0.950 . S
C2061 C2057 1.393 . S
C2061 C2060 1.391 . S
C2062 H2052 0.950 . S
C2062 C2063 1.386 . S
C2062 C2064 1.391 . S
C2063 C2062 1.386 . S
C2063 C2067 1.393 . S
C2064 H2053 0.950 . S
C2064 C2062 1.391 . S
C2064 C2065 1.400 . S
C2065 C2059 1.491 . S
C2065 C2064 1.400 . S
C2065 C2066 1.398 . S
C2066 H2054 0.950 . S
C2066 C2065 1.398 . S
C2066 C2067 1.391 . S
C2067 H2055 0.950 . S
C2067 C2063 1.393 . S
C2067 C2066 1.391 . S
H2068 C2076 0.950 . S
H2069 C2081 0.950 . S
H2070 C2078 0.950 . S
H2071 C2080 0.950 . S
H2072 C2082 0.950 . S
H2073 C2084 0.950 . S
H2074 C2086 0.950 . S
H2075 C2087 0.950 . S
C2076 H2068 0.950 . S
C2076 C2077 1.386 . S
C2076 C2078 1.391 . S
C2077 C2076 1.386 . S
C2077 C2081 1.393 . S
C2078 H2070 0.950 . S
C2078 C2076 1.391 . S
C2078 C2079 1.400 . S
C2079 C2078 1.400 . S
C2079 C2080 1.398 . S
C2079 C2085 1.491 . S
C2080 H2071 0.950 . S
C2080 C2079 1.398 . S
C2080 C2081 1.391 . S
C2081 H2069 0.950 . S
C2081 C2077 1.393 . S
C2081 C2080 1.391 . S
C2082 H2072 0.950 . S
C2082 C2083 1.386 . S
C2082 C2084 1.391 . S
C2083 C2082 1.386 . S
C2083 C2087 1.393 . S
C2084 H2073 0.950 . S
C2084 C2082 1.391 . S
C2084 C2085 1.400 . S
C2085 C2079 1.491 . S
C2085 C2084 1.400 . S
C2085 C2086 1.398 . S
C2086 H2074 0.950 . S
C2086 C2085 1.398 . S
C2086 C2087 1.391 . S
C2087 H2075 0.950 . S
C2087 C2083 1.393 . S
C2087 C2086 1.391 . S
H2088 C2096 0.950 . S
H2089 C2101 0.950 . S
H2090 C2098 0.950 . S
H2091 C2100 0.950 . S
H2092 C2102 0.950 . S
H2093 C2104 0.950 . S
H2094 C2106 0.950 . S
H2095 C2107 0.950 . S
C2096 H2088 0.950 . S
C2096 C2097 1.386 . S
C2096 C2098 1.391 . S
C2097 C2096 1.386 . S
C2097 C2101 1.393 . S
C2098 H2090 0.950 . S
C2098 C2096 1.391 . S
C2098 C2099 1.400 . S
C2099 C2098 1.400 . S
C2099 C2100 1.398 . S
C2099 C2105 1.491 . S
C2100 H2091 0.950 . S
C2100 C2099 1.398 . S
C2100 C2101 1.391 . S
C2101 H2089 0.950 . S
C2101 C2097 1.393 . S
C2101 C2100 1.391 . S
C2102 H2092 0.950 . S
C2102 C2103 1.386 . S
C2102 C2104 1.391 . S
C2103 C2102 1.386 . S
C2103 C2107 1.393 . S
C2104 H2093 0.950 . S
C2104 C2102 1.391 . S
C2104 C2105 1.400 . S
C2105 C2099 1.491 . S
C2105 C2104 1.400 . S
C2105 C2106 1.398 . S
C2106 H2094 0.950 . S
C2106 C2105 1.398 . S
C2106 C2107 1.391 . S
C2107 H2095 0.950 . S
C2107 C2103 1.393 . S
C2107 C2106 1.391 . S
H2108 C2116 0.950 . S
H2109 C2121 0.950 . S
H2110 C2118 0.950 . S
H2111 C2120 0.950 . S
H2112 C2122 0.950 . S
H2113 C2124 0.950 . S
H2114 C2126 0.950 . S
H2115 C2127 0.950 . S
C2116 H2108 0.950 . S
C2116 C2117 1.386 . S
C2116 C2118 1.391 . S
C2117 C2116 1.386 . S
C2117 C2121 1.393 . S
C2118 H2110 0.950 . S
C2118 C2116 1.391 . S
C2118 C2119 1.400 . S
C2119 C2118 1.400 . S
C2119 C2120 1.398 . S
C2119 C2125 1.491 . S
C2120 H2111 0.950 . S
C2120 C2119 1.398 . S
C2120 C2121 1.391 . S
C2121 H2109 0.950 . S
C2121 C2117 1.393 . S
C2121 C2120 1.391 . S
C2122 H2112 0.950 . S
C2122 C2123 1.386 . S
C2122 C2124 1.391 . S
C2123 C2122 1.386 . S
C2123 C2127 1.393 . S
C2124 H2113 0.950 . S
C2124 C2122 1.391 . S
C2124 C2125 1.400 . S
C2125 C2119 1.491 . S
C2125 C2124 1.400 . S
C2125 C2126 1.398 . S
C2126 H2114 0.950 . S
C2126 C2125 1.398 . S
C2126 C2127 1.391 . S
C2127 H2115 0.950 . S
C2127 C2123 1.393 . S
C2127 C2126 1.391 . S
H2128 C2136 0.950 . S
H2129 C2141 0.950 . S
H2130 C2138 0.950 . S
H2131 C2140 0.950 . S
H2132 C2142 0.950 . S
H2133 C2144 0.950 . S
H2134 C2146 0.950 . S
H2135 C2147 0.950 . S
C2136 H2128 0.950 . S
C2136 C2137 1.386 1_655 S
C2136 C2138 1.391 . S
C2137 C2136 1.386 1_455 S
C2137 C2141 1.393 . S
C2138 H2130 0.950 . S
C2138 C2136 1.391 . S
C2138 C2139 1.400 . S
C2139 C2138 1.400 . S
C2139 C2140 1.398 1_655 S
C2139 C2145 1.491 . S
C2140 H2131 0.950 . S
C2140 C2139 1.398 1_455 S
C2140 C2141 1.391 . S
C2141 H2129 0.950 . S
C2141 C2137 1.393 . S
C2141 C2140 1.391 . S
C2142 H2132 0.950 . S
C2142 C2143 1.386 1_455 S
C2142 C2144 1.391 . S
C2143 C2142 1.386 1_655 S
C2143 C2147 1.393 . S
C2144 H2133 0.950 . S
C2144 C2142 1.391 . S
C2144 C2145 1.400 1_455 S
C2145 C2139 1.491 . S
C2145 C2144 1.400 1_655 S
C2145 C2146 1.398 . S
C2146 H2134 0.950 . S
C2146 C2145 1.398 . S
C2146 C2147 1.391 . S
C2147 H2135 0.950 . S
C2147 C2143 1.393 . S
C2147 C2146 1.391 . S
H2148 C2156 0.950 . S
H2149 C2161 0.950 . S
H2150 C2158 0.950 . S
H2151 C2160 0.950 . S
H2152 C2162 0.950 . S
H2153 C2164 0.950 . S
H2154 C2166 0.950 . S
H2155 C2167 0.950 . S
C2156 H2148 0.950 . S
C2156 C2157 1.386 . S
C2156 C2158 1.391 . S
C2157 C2156 1.386 . S
C2157 C2161 1.393 . S
C2158 H2150 0.950 . S
C2158 C2156 1.391 . S
C2158 C2159 1.400 . S
C2159 C2158 1.400 . S
C2159 C2160 1.398 . S
C2159 C2165 1.491 . S
C2160 H2151 0.950 . S
C2160 C2159 1.398 . S
C2160 C2161 1.391 . S
C2161 H2149 0.950 . S
C2161 C2157 1.393 . S
C2161 C2160 1.391 . S
C2162 H2152 0.950 . S
C2162 C2163 1.386 . S
C2162 C2164 1.391 . S
C2163 C2162 1.386 . S
C2163 C2167 1.393 . S
C2164 H2153 0.950 . S
C2164 C2162 1.391 . S
C2164 C2165 1.400 . S
C2165 C2159 1.491 . S
C2165 C2164 1.400 . S
C2165 C2166 1.398 . S
C2166 H2154 0.950 . S
C2166 C2165 1.398 . S
C2166 C2167 1.391 . S
C2167 H2155 0.950 . S
C2167 C2163 1.393 . S
C2167 C2166 1.391 . S
H2168 C2176 0.950 . S
H2169 C2181 0.950 . S
H2170 C2178 0.950 . S
H2171 C2180 0.950 . S
H2172 C2182 0.950 . S
H2173 C2184 0.950 . S
H2174 C2186 0.950 . S
H2175 C2187 0.950 . S
C2176 H2168 0.950 . S
C2176 C2177 1.386 . S
C2176 C2178 1.391 . S
C2177 C2176 1.386 . S
C2177 C2181 1.393 . S
C2178 H2170 0.950 . S
C2178 C2176 1.391 . S
C2178 C2179 1.400 . S
C2179 C2178 1.400 . S
C2179 C2180 1.398 . S
C2179 C2185 1.491 . S
C2180 H2171 0.950 . S
C2180 C2179 1.398 . S
C2180 C2181 1.391 . S
C2181 H2169 0.950 . S
C2181 C2177 1.393 . S
C2181 C2180 1.391 . S
C2182 H2172 0.950 . S
C2182 C2183 1.386 . S
C2182 C2184 1.391 . S
C2183 C2182 1.386 . S
C2183 C2187 1.393 . S
C2184 H2173 0.950 . S
C2184 C2182 1.391 . S
C2184 C2185 1.400 . S
C2185 C2179 1.491 . S
C2185 C2184 1.400 . S
C2185 C2186 1.398 . S
C2186 H2174 0.950 . S
C2186 C2185 1.398 . S
C2186 C2187 1.391 . S
C2187 H2175 0.950 . S
C2187 C2183 1.393 . S
C2187 C2186 1.391 . S
H2188 C2196 0.950 . S
H2189 C2201 0.950 . S
H2190 C2198 0.950 . S
H2191 C2200 0.950 . S
H2192 C2202 0.950 . S
H2193 C2204 0.950 . S
H2194 C2206 0.950 . S
H2195 C2207 0.950 . S
C2196 H2188 0.950 . S
C2196 C2197 1.386 . S
C2196 C2198 1.391 . S
C2197 C2196 1.386 . S
C2197 C2201 1.393 . S
C2198 H2190 0.950 . S
C2198 C2196 1.391 . S
C2198 C2199 1.400 . S
C2199 C2198 1.400 . S
C2199 C2200 1.398 . S
C2199 C2205 1.491 . S
C2200 H2191 0.950 . S
C2200 C2199 1.398 . S
C2200 C2201 1.391 . S
C2201 H2189 0.950 . S
C2201 C2197 1.393 . S
C2201 C2200 1.391 . S
C2202 H2192 0.950 . S
C2202 C2203 1.386 . S
C2202 C2204 1.391 . S
C2203 C2202 1.386 . S
C2203 C2207 1.393 . S
C2204 H2193 0.950 . S
C2204 C2202 1.391 . S
C2204 C2205 1.400 . S
C2205 C2199 1.491 . S
C2205 C2204 1.400 . S
C2205 C2206 1.398 . S
C2206 H2194 0.950 . S
C2206 C2205 1.398 . S
C2206 C2207 1.391 . S
C2207 H2195 0.950 . S
C2207 C2203 1.393 . S
C2207 C2206 1.391 . S
H2208 C2216 0.950 . S
H2209 C2221 0.950 . S
H2210 C2218 0.950 . S
H2211 C2220 0.950 . S
H2212 C2222 0.950 . S
H2213 C2224 0.950 . S
H2214 C2226 0.950 . S
H2215 C2227 0.950 . S
C2216 H2208 0.950 . S
C2216 C2217 1.386 . S
C2216 C2218 1.391 . S
C2217 C2216 1.386 . S
C2217 C2221 1.393 1_455 S
C2218 H2210 0.950 . S
C2218 C2216 1.391 . S
C2218 C2219 1.400 1_455 S
C2219 C2218 1.400 1_655 S
C2219 C2220 1.398 . S
C2219 C2225 1.491 . S
C2220 H2211 0.950 . S
C2220 C2219 1.398 . S
C2220 C2221 1.391 . S
C2221 H2209 0.950 . S
C2221 C2217 1.393 1_655 S
C2221 C2220 1.391 . S
C2222 H2212 0.950 . S
C2222 C2223 1.386 . S
C2222 C2224 1.391 . S
C2223 C2222 1.386 . S
C2223 C2227 1.393 1_655 S
C2224 H2213 0.950 . S
C2224 C2222 1.391 . S
C2224 C2225 1.400 . S
C2225 C2219 1.491 . S
C2225 C2224 1.400 . S
C2225 C2226 1.398 1_655 S
C2226 H2214 0.950 . S
C2226 C2225 1.398 1_455 S
C2226 C2227 1.391 . S
C2227 H2215 0.950 . S
C2227 C2223 1.393 1_455 S
C2227 C2226 1.391 . S
H2228 C2236 0.950 . S
H2229 C2241 0.950 . S
H2230 C2238 0.950 . S
H2231 C2240 0.950 . S
H2232 C2242 0.950 . S
H2233 C2244 0.950 . S
H2234 C2246 0.950 . S
H2235 C2247 0.950 . S
C2236 H2228 0.950 . S
C2236 C2237 1.386 . S
C2236 C2238 1.391 . S
C2237 C2236 1.386 . S
C2237 C2241 1.393 . S
C2238 H2230 0.950 . S
C2238 C2236 1.391 . S
C2238 C2239 1.400 . S
C2239 C2238 1.400 . S
C2239 C2240 1.398 . S
C2239 C2245 1.491 . S
C2240 H2231 0.950 . S
C2240 C2239 1.398 . S
C2240 C2241 1.391 . S
C2241 H2229 0.950 . S
C2241 C2237 1.393 . S
C2241 C2240 1.391 . S
C2242 H2232 0.950 . S
C2242 C2243 1.386 . S
C2242 C2244 1.391 . S
C2243 C2242 1.386 . S
C2243 C2247 1.393 . S
C2244 H2233 0.950 . S
C2244 C2242 1.391 . S
C2244 C2245 1.400 . S
C2245 C2239 1.491 . S
C2245 C2244 1.400 . S
C2245 C2246 1.398 . S
C2246 H2234 0.950 . S
C2246 C2245 1.398 . S
C2246 C2247 1.391 . S
C2247 H2235 0.950 . S
C2247 C2243 1.393 . S
C2247 C2246 1.391 . S
H2248 C2256 0.950 . S
H2249 C2261 0.950 . S
H2250 C2258 0.950 . S
H2251 C2260 0.950 . S
H2252 C2262 0.950 . S
H2253 C2264 0.950 . S
H2254 C2266 0.950 . S
H2255 C2267 0.950 . S
C2256 H2248 0.950 . S
C2256 C2257 1.386 . S
C2256 C2258 1.391 . S
C2257 C2256 1.386 . S
C2257 C2261 1.393 . S
C2258 H2250 0.950 . S
C2258 C2256 1.391 . S
C2258 C2259 1.400 . S
C2259 C2258 1.400 . S
C2259 C2260 1.398 . S
C2259 C2265 1.491 . S
C2260 H2251 0.950 . S
C2260 C2259 1.398 . S
C2260 C2261 1.391 . S
C2261 H2249 0.950 . S
C2261 C2257 1.393 . S
C2261 C2260 1.391 . S
C2262 H2252 0.950 . S
C2262 C2263 1.386 . S
C2262 C2264 1.391 . S
C2263 C2262 1.386 . S
C2263 C2267 1.393 . S
C2264 H2253 0.950 . S
C2264 C2262 1.391 . S
C2264 C2265 1.400 . S
C2265 C2259 1.491 . S
C2265 C2264 1.400 . S
C2265 C2266 1.398 . S
C2266 H2254 0.950 . S
C2266 C2265 1.398 . S
C2266 C2267 1.391 . S
C2267 H2255 0.950 . S
C2267 C2263 1.393 . S
C2267 C2266 1.391 . S
H2268 C2276 0.950 . S
H2269 C2281 0.950 . S
H2270 C2278 0.950 . S
H2271 C2280 0.950 . S
H2272 C2282 0.950 . S
H2273 C2284 0.950 . S
H2274 C2286 0.950 . S
H2275 C2287 0.950 . S
C2276 H2268 0.950 . S
C2276 C2277 1.386 . S
C2276 C2278 1.391 . S
C2277 C2276 1.386 . S
C2277 C2281 1.393 . S
C2278 H2270 0.950 . S
C2278 C2276 1.391 . S
C2278 C2279 1.400 . S
C2279 C2278 1.400 . S
C2279 C2280 1.398 . S
C2279 C2285 1.491 . S
C2280 H2271 0.950 . S
C2280 C2279 1.398 . S
C2280 C2281 1.391 . S
C2281 H2269 0.950 . S
C2281 C2277 1.393 . S
C2281 C2280 1.391 . S
C2282 H2272 0.950 . S
C2282 C2283 1.386 . S
C2282 C2284 1.391 . S
C2283 C2282 1.386 . S
C2283 C2287 1.393 . S
C2284 H2273 0.950 . S
C2284 C2282 1.391 . S
C2284 C2285 1.400 . S
C2285 C2279 1.491 . S
C2285 C2284 1.400 . S
C2285 C2286 1.398 . S
C2286 H2274 0.950 . S
C2286 C2285 1.398 . S
C2286 C2287 1.391 . S
C2287 H2275 0.950 . S
C2287 C2283 1.393 . S
C2287 C2286 1.391 . S
H2288 C2296 0.950 . S
H2289 C2301 0.950 . S
H2290 C2298 0.950 . S
H2291 C2300 0.950 . S
H2292 C2302 0.950 . S
H2293 C2304 0.950 . S
H2294 C2306 0.950 . S
H2295 C2307 0.950 . S
C2296 H2288 0.950 . S
C2296 C2297 1.386 . S
C2296 C2298 1.391 . S
C2297 C2296 1.386 . S
C2297 C2301 1.393 . S
C2298 H2290 0.950 . S
C2298 C2296 1.391 . S
C2298 C2299 1.400 . S
C2299 C2298 1.400 . S
C2299 C2300 1.398 . S
C2299 C2305 1.491 . S
C2300 H2291 0.950 . S
C2300 C2299 1.398 . S
C2300 C2301 1.391 . S
C2301 H2289 0.950 . S
C2301 C2297 1.393 . S
C2301 C2300 1.391 . S
C2302 H2292 0.950 . S
C2302 C2303 1.386 . S
C2302 C2304 1.391 . S
C2303 C2302 1.386 . S
C2303 C2307 1.393 . S
C2304 H2293 0.950 . S
C2304 C2302 1.391 . S
C2304 C2305 1.400 . S
C2305 C2299 1.491 . S
C2305 C2304 1.400 . S
C2305 C2306 1.398 . S
C2306 H2294 0.950 . S
C2306 C2305 1.398 . S
C2306 C2307 1.391 . S
C2307 H2295 0.950 . S
C2307 C2303 1.393 . S
C2307 C2306 1.391 . S
H2308 C2316 0.950 . S
H2309 C2321 0.950 . S
H2310 C2318 0.950 . S
H2311 C2320 0.950 . S
H2312 C2322 0.950 . S
H2313 C2324 0.950 . S
H2314 C2326 0.950 . S
H2315 C2327 0.950 . S
C2316 H2308 0.950 . S
C2316 C2317 1.386 . S
C2316 C2318 1.391 . S
C2317 C2316 1.386 . S
C2317 C2321 1.393 . S
C2318 H2310 0.950 . S
C2318 C2316 1.391 . S
C2318 C2319 1.400 . S
C2319 C2318 1.400 . S
C2319 C2320 1.398 . S
C2319 C2325 1.491 . S
C2320 H2311 0.950 . S
C2320 C2319 1.398 . S
C2320 C2321 1.391 . S
C2321 H2309 0.950 . S
C2321 C2317 1.393 . S
C2321 C2320 1.391 . S
C2322 H2312 0.950 . S
C2322 C2323 1.386 . S
C2322 C2324 1.391 . S
C2323 C2322 1.386 . S
C2323 C2327 1.393 . S
C2324 H2313 0.950 . S
C2324 C2322 1.391 . S
C2324 C2325 1.400 . S
C2325 C2319 1.491 . S
C2325 C2324 1.400 . S
C2325 C2326 1.398 . S
C2326 H2314 0.950 . S
C2326 C2325 1.398 . S
C2326 C2327 1.391 . S
C2327 H2315 0.950 . S
C2327 C2323 1.393 . S
C2327 C2326 1.391 . S
H2328 C2336 0.950 . S
H2329 C2341 0.950 . S
H2330 C2338 0.950 . S
H2331 C2340 0.950 . S
H2332 C2342 0.950 . S
H2333 C2344 0.950 . S
H2334 C2346 0.950 . S
H2335 C2347 0.950 . S
C2336 H2328 0.950 . S
C2336 C2337 1.386 . S
C2336 C2338 1.391 . S
C2337 C2336 1.386 . S
C2337 C2341 1.393 . S
C2338 H2330 0.950 . S
C2338 C2336 1.391 . S
C2338 C2339 1.400 . S
C2339 C2338 1.400 . S
C2339 C2340 1.398 . S
C2339 C2345 1.491 . S
C2340 H2331 0.950 . S
C2340 C2339 1.398 . S
C2340 C2341 1.391 . S
C2341 H2329 0.950 . S
C2341 C2337 1.393 . S
C2341 C2340 1.391 . S
C2342 H2332 0.950 . S
C2342 C2343 1.386 . S
C2342 C2344 1.391 . S
C2343 C2342 1.386 . S
C2343 C2347 1.393 . S
C2344 H2333 0.950 . S
C2344 C2342 1.391 . S
C2344 C2345 1.400 . S
C2345 C2339 1.491 . S
C2345 C2344 1.400 . S
C2345 C2346 1.398 . S
C2346 H2334 0.950 . S
C2346 C2345 1.398 . S
C2346 C2347 1.391 . S
C2347 H2335 0.950 . S
C2347 C2343 1.393 . S
C2347 C2346 1.391 . S
H2348 C2356 0.950 . S
H2349 C2361 0.950 . S
H2350 C2358 0.950 . S
H2351 C2360 0.950 . S
H2352 C2362 0.950 . S
H2353 C2364 0.950 . S
H2354 C2366 0.950 . S
H2355 C2367 0.950 . S
C2356 H2348 0.950 . S
C2356 C2357 1.386 . S
C2356 C2358 1.391 . S
C2357 C2356 1.386 . S
C2357 C2361 1.393 . S
C2358 H2350 0.950 . S
C2358 C2356 1.391 . S
C2358 C2359 1.400 . S
C2359 C2358 1.400 . S
C2359 C2360 1.398 . S
C2359 C2365 1.491 . S
C2360 H2351 0.950 . S
C2360 C2359 1.398 . S
C2360 C2361 1.391 . S
C2361 H2349 0.950 . S
C2361 C2357 1.393 . S
C2361 C2360 1.391 . S
C2362 H2352 0.950 . S
C2362 C2363 1.386 . S
C2362 C2364 1.391 . S
C2363 C2362 1.386 . S
C2363 C2367 1.393 . S
C2364 H2353 0.950 . S
C2364 C2362 1.391 . S
C2364 C2365 1.400 . S
C2365 C2359 1.491 . S
C2365 C2364 1.400 . S
C2365 C2366 1.398 . S
C2366 H2354 0.950 . S
C2366 C2365 1.398 . S
C2366 C2367 1.391 . S
C2367 H2355 0.950 . S
C2367 C2363 1.393 . S
C2367 C2366 1.391 . S
H2368 C2376 0.950 . S
H2369 C2381 0.950 . S
H2370 C2378 0.950 . S
H2371 C2380 0.950 . S
H2372 C2382 0.950 . S
H2373 C2384 0.950 . S
H2374 C2386 0.950 . S
H2375 C2387 0.950 . S
C2376 H2368 0.950 . S
C2376 C2377 1.386 . S
C2376 C2378 1.391 . S
C2377 C2376 1.386 . S
C2377 C2381 1.393 . S
C2378 H2370 0.950 . S
C2378 C2376 1.391 . S
C2378 C2379 1.400 . S
C2379 C2378 1.400 . S
C2379 C2380 1.398 . S
C2379 C2385 1.491 . S
C2380 H2371 0.950 . S
C2380 C2379 1.398 . S
C2380 C2381 1.391 . S
C2381 H2369 0.950 . S
C2381 C2377 1.393 . S
C2381 C2380 1.391 . S
C2382 H2372 0.950 . S
C2382 C2383 1.386 . S
C2382 C2384 1.391 . S
C2383 C2382 1.386 . S
C2383 C2387 1.393 . S
C2384 H2373 0.950 . S
C2384 C2382 1.391 . S
C2384 C2385 1.400 . S
C2385 C2379 1.491 . S
C2385 C2384 1.400 . S
C2385 C2386 1.398 . S
C2386 H2374 0.950 . S
C2386 C2385 1.398 . S
C2386 C2387 1.391 . S
C2387 H2375 0.950 . S
C2387 C2383 1.393 . S
C2387 C2386 1.391 . S
H2388 C2396 0.950 . S
H2389 C2401 0.950 . S
H2390 C2398 0.950 . S
H2391 C2400 0.950 . S
H2392 C2402 0.950 . S
H2393 C2404 0.950 . S
H2394 C2406 0.950 . S
H2395 C2407 0.950 . S
C2396 H2388 0.950 . S
C2396 C2397 1.386 . S
C2396 C2398 1.391 . S
C2397 C2396 1.386 . S
C2397 C2401 1.393 . S
C2398 H2390 0.950 . S
C2398 C2396 1.391 . S
C2398 C2399 1.400 . S
C2399 C2398 1.400 . S
C2399 C2400 1.398 . S
C2399 C2405 1.491 . S
C2400 H2391 0.950 . S
C2400 C2399 1.398 . S
C2400 C2401 1.391 . S
C2401 H2389 0.950 . S
C2401 C2397 1.393 . S
C2401 C2400 1.391 . S
C2402 H2392 0.950 . S
C2402 C2403 1.386 . S
C2402 C2404 1.391 . S
C2403 C2402 1.386 . S
C2403 C2407 1.393 . S
C2404 H2393 0.950 . S
C2404 C2402 1.391 . S
C2404 C2405 1.400 . S
C2405 C2399 1.491 . S
C2405 C2404 1.400 . S
C2405 C2406 1.398 . S
C2406 H2394 0.950 . S
C2406 C2405 1.398 . S
C2406 C2407 1.391 . S
C2407 H2395 0.950 . S
C2407 C2403 1.393 . S
C2407 C2406 1.391 . S
H2408 C2416 0.950 . S
H2409 C2421 0.950 . S
H2410 C2418 0.950 . S
H2411 C2420 0.950 . S
H2412 C2422 0.950 . S
H2413 C2424 0.950 . S
H2414 C2426 0.950 . S
H2415 C2427 0.950 . S
C2416 H2408 0.950 . S
C2416 C2417 1.386 . S
C2416 C2418 1.391 . S
C2417 C2416 1.386 . S
C2417 C2421 1.393 . S
C2418 H2410 0.950 . S
C2418 C2416 1.391 . S
C2418 C2419 1.400 . S
C2419 C2418 1.400 . S
C2419 C2420 1.398 . S
C2419 C2425 1.491 . S
C2420 H2411 0.950 . S
C2420 C2419 1.398 . S
C2420 C2421 1.391 . S
C2421 H2409 0.950 . S
C2421 C2417 1.393 . S
C2421 C2420 1.391 . S
C2422 H2412 0.950 . S
C2422 C2423 1.386 . S
C2422 C2424 1.391 . S
C2423 C2422 1.386 . S
C2423 C2427 1.393 . S
C2424 H2413 0.950 . S
C2424 C2422 1.391 . S
C2424 C2425 1.400 . S
C2425 C2419 1.491 . S
C2425 C2424 1.400 . S
C2425 C2426 1.398 . S
C2426 H2414 0.950 . S
C2426 C2425 1.398 . S
C2426 C2427 1.391 . S
C2427 H2415 0.950 . S
C2427 C2423 1.393 . S
C2427 C2426 1.391 . S
H2428 C2436 0.950 . S
H2429 C2441 0.950 . S
H2430 C2438 0.950 . S
H2431 C2440 0.950 . S
H2432 C2442 0.950 . S
H2433 C2444 0.950 . S
H2434 C2446 0.950 . S
H2435 C2447 0.950 . S
C2436 H2428 0.950 . S
C2436 C2437 1.386 . S
C2436 C2438 1.391 . S
C2437 C2436 1.386 . S
C2437 C2441 1.393 . S
C2438 H2430 0.950 . S
C2438 C2436 1.391 . S
C2438 C2439 1.400 . S
C2439 C2438 1.400 . S
C2439 C2440 1.398 . S
C2439 C2445 1.491 . S
C2440 H2431 0.950 . S
C2440 C2439 1.398 . S
C2440 C2441 1.391 . S
C2441 H2429 0.950 . S
C2441 C2437 1.393 . S
C2441 C2440 1.391 . S
C2442 H2432 0.950 . S
C2442 C2443 1.386 . S
C2442 C2444 1.391 . S
C2443 C2442 1.386 . S
C2443 C2447 1.393 . S
C2444 H2433 0.950 . S
C2444 C2442 1.391 . S
C2444 C2445 1.400 . S
C2445 C2439 1.491 . S
C2445 C2444 1.400 . S
C2445 C2446 1.398 . S
C2446 H2434 0.950 . S
C2446 C2445 1.398 . S
C2446 C2447 1.391 . S
C2447 H2435 0.950 . S
C2447 C2443 1.393 . S
C2447 C2446 1.391 . S
H2448 C2456 0.950 . S
H2449 C2461 0.950 . S
H2450 C2458 0.950 . S
H2451 C2460 0.950 . S
H2452 C2462 0.950 . S
H2453 C2464 0.950 . S
H2454 C2466 0.950 . S
H2455 C2467 0.950 . S
C2456 H2448 0.950 . S
C2456 C2457 1.386 . S
C2456 C2458 1.391 . S
C2457 C2456 1.386 . S
C2457 C2461 1.393 . S
C2458 H2450 0.950 . S
C2458 C2456 1.391 . S
C2458 C2459 1.400 . S
C2459 C2458 1.400 . S
C2459 C2460 1.398 . S
C2459 C2465 1.491 . S
C2460 H2451 0.950 . S
C2460 C2459 1.398 . S
C2460 C2461 1.391 . S
C2461 H2449 0.950 . S
C2461 C2457 1.393 . S
C2461 C2460 1.391 . S
C2462 H2452 0.950 . S
C2462 C2463 1.386 . S
C2462 C2464 1.391 . S
C2463 C2462 1.386 . S
C2463 C2467 1.393 . S
C2464 H2453 0.950 . S
C2464 C2462 1.391 . S
C2464 C2465 1.400 . S
C2465 C2459 1.491 . S
C2465 C2464 1.400 . S
C2465 C2466 1.398 . S
C2466 H2454 0.950 . S
C2466 C2465 1.398 . S
C2466 C2467 1.391 . S
C2467 H2455 0.950 . S
C2467 C2463 1.393 . S
C2467 C2466 1.391 . S
H2468 C2476 0.950 . S
H2469 C2481 0.950 . S
H2470 C2478 0.950 . S
H2471 C2480 0.950 . S
H2472 C2482 0.950 . S
H2473 C2484 0.950 . S
H2474 C2486 0.950 . S
H2475 C2487 0.950 . S
C2476 H2468 0.950 . S
C2476 C2477 1.386 . S
C2476 C2478 1.391 . S
C2477 C2476 1.386 . S
C2477 C2481 1.393 1_554 S
C2478 H2470 0.950 . S
C2478 C2476 1.391 . S
C2478 C2479 1.398 1_554 S
C2479 C2478 1.398 1_556 S
C2479 C2480 1.400 . S
C2479 C2485 1.491 . S
C2480 H2471 0.950 . S
C2480 C2479 1.400 . S
C2480 C2481 1.391 . S
C2481 H2469 0.950 . S
C2481 C2477 1.393 1_556 S
C2481 C2480 1.391 . S
C2482 H2472 0.950 . S
C2482 C2483 1.386 . S
C2482 C2484 1.391 . S
C2483 C2482 1.386 . S
C2483 C2487 1.393 1_556 S
C2484 H2473 0.950 . S
C2484 C2482 1.391 . S
C2484 C2485 1.400 . S
C2485 C2479 1.491 . S
C2485 C2484 1.400 . S
C2485 C2486 1.398 1_556 S
C2486 H2474 0.950 . S
C2486 C2485 1.398 1_554 S
C2486 C2487 1.391 . S
C2487 H2475 0.950 . S
C2487 C2483 1.393 1_554 S
C2487 C2486 1.391 . S
H2488 C2496 0.950 . S
H2489 C2501 0.950 . S
H2490 C2498 0.950 . S
H2491 C2500 0.950 . S
H2492 C2502 0.950 . S
H2493 C2504 0.950 . S
H2494 C2506 0.950 . S
H2495 C2507 0.950 . S
C2496 H2488 0.950 . S
C2496 C2497 1.386 . S
C2496 C2498 1.391 . S
C2497 C2496 1.386 . S
C2497 C2501 1.393 . S
C2498 H2490 0.950 . S
C2498 C2496 1.391 . S
C2498 C2499 1.400 . S
C2499 C2498 1.400 . S
C2499 C2500 1.398 . S
C2499 C2505 1.491 . S
C2500 H2491 0.950 . S
C2500 C2499 1.398 . S
C2500 C2501 1.391 . S
C2501 H2489 0.950 . S
C2501 C2497 1.393 . S
C2501 C2500 1.391 . S
C2502 H2492 0.950 . S
C2502 C2503 1.386 . S
C2502 C2504 1.391 . S
C2503 C2502 1.386 . S
C2503 C2507 1.393 . S
C2504 H2493 0.950 . S
C2504 C2502 1.391 . S
C2504 C2505 1.400 . S
C2505 C2499 1.491 . S
C2505 C2504 1.400 . S
C2505 C2506 1.398 . S
C2506 H2494 0.950 . S
C2506 C2505 1.398 . S
C2506 C2507 1.391 . S
C2507 H2495 0.950 . S
C2507 C2503 1.393 . S
C2507 C2506 1.391 . S
H2508 C2516 0.950 . S
H2509 C2521 0.950 . S
H2510 C2518 0.950 . S
H2511 C2520 0.950 . S
H2512 C2522 0.950 . S
H2513 C2524 0.950 . S
H2514 C2526 0.950 . S
H2515 C2527 0.950 . S
C2516 H2508 0.950 . S
C2516 C2517 1.386 1_556 S
C2516 C2518 1.391 . S
C2517 C2516 1.386 1_554 S
C2517 C2521 1.393 . S
C2518 H2510 0.950 . S
C2518 C2516 1.391 . S
C2518 C2519 1.400 1_556 S
C2519 C2518 1.400 1_554 S
C2519 C2520 1.398 . S
C2519 C2525 1.491 . S
C2520 H2511 0.950 . S
C2520 C2519 1.398 . S
C2520 C2521 1.391 . S
C2521 H2509 0.950 . S
C2521 C2517 1.393 . S
C2521 C2520 1.391 . S
C2522 H2512 0.950 . S
C2522 C2523 1.386 . S
C2522 C2524 1.391 . S
C2523 C2522 1.386 . S
C2523 C2527 1.393 1_554 S
C2524 H2513 0.950 . S
C2524 C2522 1.391 . S
C2524 C2525 1.400 . S
C2525 C2519 1.491 . S
C2525 C2524 1.400 . S
C2525 C2526 1.398 1_554 S
C2526 H2514 0.950 . S
C2526 C2525 1.398 1_556 S
C2526 C2527 1.391 . S
C2527 H2515 0.950 . S
C2527 C2523 1.393 1_556 S
C2527 C2526 1.391 . S
H2528 C2536 0.950 . S
H2529 C2541 0.950 . S
H2530 C2538 0.950 . S
H2531 C2540 0.950 . S
H2532 C2542 0.950 . S
H2533 C2544 0.950 . S
H2534 C2546 0.950 . S
H2535 C2547 0.950 . S
C2536 H2528 0.950 . S
C2536 C2537 1.386 . S
C2536 C2538 1.391 . S
C2537 C2536 1.386 . S
C2537 C2541 1.393 . S
C2538 H2530 0.950 . S
C2538 C2536 1.391 . S
C2538 C2539 1.400 . S
C2539 C2538 1.400 . S
C2539 C2540 1.398 . S
C2539 C2545 1.491 . S
C2540 H2531 0.950 . S
C2540 C2539 1.398 . S
C2540 C2541 1.391 . S
C2541 H2529 0.950 . S
C2541 C2537 1.393 . S
C2541 C2540 1.391 . S
C2542 H2532 0.950 . S
C2542 C2543 1.386 . S
C2542 C2544 1.391 . S
C2543 C2542 1.386 . S
C2543 C2547 1.393 . S
C2544 H2533 0.950 . S
C2544 C2542 1.391 . S
C2544 C2545 1.400 . S
C2545 C2539 1.491 . S
C2545 C2544 1.400 . S
C2545 C2546 1.398 . S
C2546 H2534 0.950 . S
C2546 C2545 1.398 . S
C2546 C2547 1.391 . S
C2547 H2535 0.950 . S
C2547 C2543 1.393 . S
C2547 C2546 1.391 . S
H2548 C2556 0.950 . S
H2549 C2561 0.950 . S
H2550 C2558 0.950 . S
H2551 C2560 0.950 . S
H2552 C2562 0.950 . S
H2553 C2564 0.950 . S
H2554 C2566 0.950 . S
H2555 C2567 0.950 . S
C2556 H2548 0.950 . S
C2556 C2557 1.386 . S
C2556 C2558 1.391 . S
C2557 C2556 1.386 . S
C2557 C2561 1.393 . S
C2558 H2550 0.950 . S
C2558 C2556 1.391 . S
C2558 C2559 1.400 . S
C2559 C2558 1.400 . S
C2559 C2560 1.398 . S
C2559 C2565 1.491 . S
C2560 H2551 0.950 . S
C2560 C2559 1.398 . S
C2560 C2561 1.391 . S
C2561 H2549 0.950 . S
C2561 C2557 1.393 . S
C2561 C2560 1.391 . S
C2562 H2552 0.950 . S
C2562 C2563 1.386 . S
C2562 C2564 1.391 . S
C2563 C2562 1.386 . S
C2563 C2567 1.393 . S
C2564 H2553 0.950 . S
C2564 C2562 1.391 . S
C2564 C2565 1.400 . S
C2565 C2559 1.491 . S
C2565 C2564 1.400 . S
C2565 C2566 1.398 . S
C2566 H2554 0.950 . S
C2566 C2565 1.398 . S
C2566 C2567 1.391 . S
C2567 H2555 0.950 . S
C2567 C2563 1.393 . S
C2567 C2566 1.391 . S
C663 C328 1.218 . S
C657 C10 1.309 . S
C677 C13 1.073 . S
C683 C348 1.063 . S
C697 C34 1.251 . S
C703 C370 1.209 . S
C723 C389 1.236 . S
C717 C44 1.242 . S
C737 C21 1.262 . S
C743 C410 1.264 . S
C763 C433 1.141 . S
C757 C26 1.234 . S
C783 C456 1.124 . S
C777 C49 1.161 . S
C797 C5 1.212 . S
C803 C474 1.225 . S
C817 C62 1.211 . S
C823 C330 1.175 . S
C837 C73 1.215 . S
C843 C350 1.230 . S
C863 C372 1.093 . S
C857 C88 1.125 . S
C883 C391 1.206 . S
C877 C99 1.245 . S
C897 C60 1.284 . S
C903 C412 1.182 . S
C923 C435 1.060 . S
C917 C75 1.074 . S
C943 C452 1.226 . S
C937 C86 1.231 . S
C963 C476 1.197 . S
C957 C101 1.221 . S
C983 C326 1.197 . S
C977 C96 1.210 . S
C1003 C498 1.070 . S
C997 C104 1.054 . S
C1017 C122 1.172 . S
C1023 C515 1.171 . S
C1043 C538 1.195 . S
C1037 C130 1.232 . S
C1057 C57 1.181 . S
C1063 C472 1.130 . S
C1083 C368 1.264 . S
C1077 C70 1.266 . S
C1097 C117 0.996 . S
C1103 C561 0.991 . S
C1123 C577 1.087 . S
C1117 C143 1.096 . S
C1137 C164 1.345 . S
C1143 C325 1.251 . S
C1163 C578 1.211 . S
C1157 C169 1.218 . S
C1177 C192 1.442 . S
C1183 C367 1.307 . S
C1197 C200 1.207 . S
C1203 C558 1.195 . S
C1223 C411 1.236 . S
C1217 C179 1.274 . S
C1243 C514 1.195 . S
C1237 C182 1.276 . S
C1263 C455 1.358 . S
C1257 C203 1.358 . S
C1283 C599 1.372 . S
C1277 C161 1.333 . S
C1303 C329 1.317 . S
C1297 C216 1.312 1_545 S
C1317 C231 1.205 . S
C1323 C582 1.185 . S
C1343 C371 1.250 . S
C1337 C242 1.243 . S
C1357 C257 1.311 . S
C1363 C556 1.183 . S
C1377 C218 1.364 . S
C1383 C409 1.232 . S
C1397 C229 1.274 . S
C1403 C518 1.285 . S
C1423 C453 1.161 . S
C1417 C244 1.182 . S
C1437 C255 1.227 . S
C1443 C603 1.229 . S
C1457 C252 1.258 . S
C1463 C327 1.249 . S
C1477 C260 1.248 1_556 S
C1483 C497 1.258 . S
C1497 C278 1.151 . S
C1503 C432 1.140 . S
C1517 C286 1.271 . S
C1523 C535 1.206 . S
C1543 C601 1.170 . S
C1537 C213 1.211 . S
C1563 C369 1.187 . S
C1557 C226 1.197 . S
C1583 C392 1.193 . S
C1577 C273 1.185 . S
C1603 C349 1.183 . S
C1597 C299 1.266 . S
C1617 C36 1.310 . S
C1623 C622 1.204 . S
C1643 C579 1.071 . S
C1637 C39 1.058 . S
C1663 C643 1.208 . S
C1657 C8 1.255 . S
C1677 C18 1.252 . S
C1683 C557 1.238 . S
C1697 C47 1.258 . S
C1703 C494 1.266 . S
C1723 C517 1.141 . S
C1717 C0 1.229 . S
C1743 C540 1.151 . S
C1737 C23 1.164 . S
C1763 C600 1.223 . S
C1757 C31 1.210 . S
C1783 C624 1.186 . S
C1777 C153 1.214 . S
C1797 C112 1.241 . S
C1803 C581 1.239 . S
C1817 C127 1.118 . S
C1823 C645 1.085 . S
C1843 C559 1.163 . S
C1837 C138 1.259 . S
C1863 C496 1.222 . S
C1857 C151 1.253 . S
C1877 C114 1.078 . S
C1883 C519 1.069 . S
C1903 C536 1.223 . S
C1897 C125 1.208 . S
C1917 C140 1.215 . S
C1923 C602 1.196 . S
C1943 C620 1.206 . S
C1937 C135 1.207 . S
C1963 C414 1.049 . S
C1957 C65 1.067 . S
C1983 C431 1.170 . S
C1977 C83 1.171 . S
C1997 C91 1.227 . S
C2003 C454 1.196 . S
C2023 C598 1.085 . S
C2017 C148 1.163 . S
C2037 C109 1.246 . S
C2043 C641 1.238 . S
C2063 C393 1.003 . S
C2057 C78 0.986 . S
C2083 C346 1.068 . S
C2077 C52 1.123 . S
C2097 C190 1.338 . S
C2103 C619 1.252 . S
C2123 C347 1.231 . S
C2117 C195 1.222 . S
C2143 C640 1.295 . S
C2137 C166 1.444 . S
C2157 C174 1.193 . S
C2163 C390 1.182 . S
C2177 C205 1.275 . S
C2183 C495 1.222 . S
C2197 C156 1.297 . S
C2203 C430 1.227 . S
C2217 C177 1.359 . S
C2223 C539 1.352 . S
C2237 C187 1.348 . S
C2243 C473 1.360 . S
C2263 C623 1.314 . S
C2257 C307 1.318 . S
C2277 C270 1.205 . S
C2283 C351 1.168 . S
C2303 C644 1.241 . S
C2297 C281 1.257 . S
C2317 C296 1.306 . S
C2323 C388 1.216 . S
C2337 C309 1.361 . S
C2343 C493 1.256 . S
C2363 C434 1.281 . S
C2357 C268 1.265 . S
C2377 C283 1.183 . S
C2383 C537 1.168 . S
C2403 C477 1.226 . S
C2397 C294 1.239 . S
C2423 C621 1.221 . S
C2417 C291 1.234 . S
C2443 C413 1.257 . S
C2437 C221 1.261 . S
C2457 C239 1.128 . S
C2463 C516 1.113 . S
C2483 C451 1.193 . S
C2477 C247 1.272 . S
C2503 C475 1.166 . S
C2497 C304 1.205 . S
C2517 C265 1.215 . S
C2523 C642 1.204 . S
C2543 C560 1.174 . S
C2537 C234 1.175 . S
C2563 C580 1.202 . S
C2557 C208 1.278 . S
