# Generated by pormake.
# Topology myd, (4,6)-cn, num edge types: 1
# Building blocks:
#     Node 0, Type 0, BuildingBlock: NAWXER_clean_sbu_0, # of connection points: 4
#     Node 1, Type 0, BuildingBlock: NAWXER_clean_sbu_0, # of connection points: 4
#     Node 2, Type 0, BuildingBlock: NAWXER_clean_sbu_0, # of connection points: 4
#     Node 3, Type 0, BuildingBlock: NAWXER_clean_sbu_0, # of connection points: 4
#     Node 4, Type 0, BuildingBlock: NAWXER_clean_sbu_0, # of connection points: 4
#     Node 5, Type 0, BuildingBlock: NAWXER_clean_sbu_0, # of connection points: 4
#     Node 6, Type 0, BuildingBlock: NAWXER_clean_sbu_0, # of connection points: 4
#     Node 7, Type 0, BuildingBlock: NAWXER_clean_sbu_0, # of connection points: 4
#     Node 8, Type 0, BuildingBlock: NAWXER_clean_sbu_0, # of connection points: 4
#     Node 9, Type 0, BuildingBlock: NAWXER_clean_sbu_0, # of connection points: 4
#     Node 10, Type 0, BuildingBlock: NAWXER_clean_sbu_0, # of connection points: 4
#     Node 11, Type 0, BuildingBlock: NAWXER_clean_sbu_0, # of connection points: 4
#     Node 12, Type 1, BuildingBlock: JUFBIX_clean_sbu_0, # of connection points: 6
#     Node 13, Type 1, BuildingBlock: JUFBIX_clean_sbu_0, # of connection points: 6
#     Node 14, Type 1, BuildingBlock: JUFBIX_clean_sbu_0, # of connection points: 6
#     Node 15, Type 1, BuildingBlock: JUFBIX_clean_sbu_0, # of connection points: 6
#     Node 16, Type 1, BuildingBlock: JUFBIX_clean_sbu_0, # of connection points: 6
#     Node 17, Type 1, BuildingBlock: JUFBIX_clean_sbu_0, # of connection points: 6
#     Node 18, Type 1, BuildingBlock: JUFBIX_clean_sbu_0, # of connection points: 6
#     Node 19, Type 1, BuildingBlock: JUFBIX_clean_sbu_0, # of connection points: 6
#     Edge 20, Type (0, 1), BuildingBlock: CIFDUS_clean_linker_0, # of connection points: 2
#     Edge 21, Type (0, 1), BuildingBlock: CIFDUS_clean_linker_0, # of connection points: 2
#     Edge 22, Type (0, 1), BuildingBlock: CIFDUS_clean_linker_0, # of connection points: 2
#     Edge 23, Type (0, 1), BuildingBlock: CIFDUS_clean_linker_0, # of connection points: 2
#     Edge 24, Type (0, 1), BuildingBlock: CIFDUS_clean_linker_0, # of connection points: 2
#     Edge 25, Type (0, 1), BuildingBlock: CIFDUS_clean_linker_0, # of connection points: 2
#     Edge 26, Type (0, 1), BuildingBlock: CIFDUS_clean_linker_0, # of connection points: 2
#     Edge 27, Type (0, 1), BuildingBlock: CIFDUS_clean_linker_0, # of connection points: 2
#     Edge 28, Type (0, 1), BuildingBlock: CIFDUS_clean_linker_0, # of connection points: 2
#     Edge 29, Type (0, 1), BuildingBlock: CIFDUS_clean_linker_0, # of connection points: 2
#     Edge 30, Type (0, 1), BuildingBlock: CIFDUS_clean_linker_0, # of connection points: 2
#     Edge 31, Type (0, 1), BuildingBlock: CIFDUS_clean_linker_0, # of connection points: 2
#     Edge 32, Type (0, 1), BuildingBlock: CIFDUS_clean_linker_0, # of connection points: 2
#     Edge 33, Type (0, 1), BuildingBlock: CIFDUS_clean_linker_0, # of connection points: 2
#     Edge 34, Type (0, 1), BuildingBlock: CIFDUS_clean_linker_0, # of connection points: 2
#     Edge 35, Type (0, 1), BuildingBlock: CIFDUS_clean_linker_0, # of connection points: 2
#     Edge 36, Type (0, 1), BuildingBlock: CIFDUS_clean_linker_0, # of connection points: 2
#     Edge 37, Type (0, 1), BuildingBlock: CIFDUS_clean_linker_0, # of connection points: 2
#     Edge 38, Type (0, 1), BuildingBlock: CIFDUS_clean_linker_0, # of connection points: 2
#     Edge 39, Type (0, 1), BuildingBlock: CIFDUS_clean_linker_0, # of connection points: 2
#     Edge 40, Type (0, 1), BuildingBlock: CIFDUS_clean_linker_0, # of connection points: 2
#     Edge 41, Type (0, 1), BuildingBlock: CIFDUS_clean_linker_0, # of connection points: 2
#     Edge 42, Type (0, 1), BuildingBlock: CIFDUS_clean_linker_0, # of connection points: 2
#     Edge 43, Type (0, 1), BuildingBlock: CIFDUS_clean_linker_0, # of connection points: 2
#     Edge 44, Type (0, 1), BuildingBlock: CIFDUS_clean_linker_0, # of connection points: 2
#     Edge 45, Type (0, 1), BuildingBlock: CIFDUS_clean_linker_0, # of connection points: 2
#     Edge 46, Type (0, 1), BuildingBlock: CIFDUS_clean_linker_0, # of connection points: 2
#     Edge 47, Type (0, 1), BuildingBlock: CIFDUS_clean_linker_0, # of connection points: 2
#     Edge 48, Type (0, 1), BuildingBlock: CIFDUS_clean_linker_0, # of connection points: 2
#     Edge 49, Type (0, 1), BuildingBlock: CIFDUS_clean_linker_0, # of connection points: 2
#     Edge 50, Type (0, 1), BuildingBlock: CIFDUS_clean_linker_0, # of connection points: 2
#     Edge 51, Type (0, 1), BuildingBlock: CIFDUS_clean_linker_0, # of connection points: 2
#     Edge 52, Type (0, 1), BuildingBlock: CIFDUS_clean_linker_0, # of connection points: 2
#     Edge 53, Type (0, 1), BuildingBlock: CIFDUS_clean_linker_0, # of connection points: 2
#     Edge 54, Type (0, 1), BuildingBlock: CIFDUS_clean_linker_0, # of connection points: 2
#     Edge 55, Type (0, 1), BuildingBlock: CIFDUS_clean_linker_0, # of connection points: 2
#     Edge 56, Type (0, 1), BuildingBlock: CIFDUS_clean_linker_0, # of connection points: 2
#     Edge 57, Type (0, 1), BuildingBlock: CIFDUS_clean_linker_0, # of connection points: 2
#     Edge 58, Type (0, 1), BuildingBlock: CIFDUS_clean_linker_0, # of connection points: 2
#     Edge 59, Type (0, 1), BuildingBlock: CIFDUS_clean_linker_0, # of connection points: 2
#     Edge 60, Type (0, 1), BuildingBlock: CIFDUS_clean_linker_0, # of connection points: 2
#     Edge 61, Type (0, 1), BuildingBlock: CIFDUS_clean_linker_0, # of connection points: 2
#     Edge 62, Type (0, 1), BuildingBlock: CIFDUS_clean_linker_0, # of connection points: 2
#     Edge 63, Type (0, 1), BuildingBlock: CIFDUS_clean_linker_0, # of connection points: 2
#     Edge 64, Type (0, 1), BuildingBlock: CIFDUS_clean_linker_0, # of connection points: 2
#     Edge 65, Type (0, 1), BuildingBlock: CIFDUS_clean_linker_0, # of connection points: 2
#     Edge 66, Type (0, 1), BuildingBlock: CIFDUS_clean_linker_0, # of connection points: 2
#     Edge 67, Type (0, 1), BuildingBlock: CIFDUS_clean_linker_0, # of connection points: 2
# Relax obj value: 0.271
# Max RMSD: 0.235
# Mean RMSD: 0.145
data_MOF--net-myd--node1-NAWXER_clean_sbu_0--node2-JUFBIX_clean_sbu_0--edge1-CIFDUS_clean_linker_0
_symmetry_space_group_name_H-M    P1
_symmetry_Int_Tables_number       1
_symmetry_cell_setting            triclinic
loop_
_symmetry_equiv_pos_as_xyz
'x, y, z'
_cell_length_a     38.456035
_cell_length_b     41.786951
_cell_length_c     40.969372
_cell_angle_alpha  90.247021
_cell_angle_beta   86.897245
_cell_angle_gamma 91.18444
loop_
_atom_site_label
_atom_site_type_symbol
_atom_site_fract_x
_atom_site_fract_y
_atom_site_fract_z
_atom_type_partial_charge
C0 C 0.04964 0.18383 0.28365 0.0
C1 C 0.04132 0.2676 0.36757 0.0
O2 O 0.07413 0.20147 0.29397 0.0
Zn3 Zn 0.04681 0.22405 0.32715 0.0
O4 O 1.01874 0.18619 0.2968 0.0
Zn5 Zn 0.99255 0.21418 0.335 0.0
O6 O 0.95858 0.23639 0.31082 0.0
O7 O 1.01347 0.24937 0.297 0.0
O8 O 1.01236 0.25239 0.36446 0.0
O9 O 0.06838 0.25898 0.35097 0.0
O10 O 0.03356 0.18643 0.36136 0.0
O11 O 0.97617 0.1816 0.36515 0.0
C12 C 0.9809 0.25213 0.29299 0.0
C13 C 1.00575 0.17222 0.37307 0.0
C14 C 0.07833 0.75407 0.2308 0.0
C15 C 0.06071 0.66523 0.15678 0.0
O16 O 0.10208 0.73605 0.21883 0.0
Zn17 Zn 0.07054 0.70975 0.19418 0.0
O18 O 0.04636 0.74859 0.22501 0.0
Zn19 Zn 1.01586 0.71594 0.19791 0.0
O20 O 0.98777 0.69465 0.23185 0.0
O21 O 0.04333 0.68314 0.23339 0.0
O22 O 0.03225 0.6783 0.16667 0.0
O23 O 0.08956 0.67606 0.16627 0.0
O24 O 0.05082 0.74609 0.16186 0.0
O25 O 0.99357 0.7447 0.16979 0.0
C26 C 1.01182 0.67979 0.24504 0.0
C27 C 0.02086 0.75708 0.15574 0.0
C28 C 0.37717 1.00301 0.18722 0.0
C29 C 0.28937 0.97152 0.27437 0.0
O30 O 0.36726 0.97452 0.19436 0.0
Zn31 Zn 0.33337 0.98494 0.2308 0.0
O32 O 0.3645 0.0262 0.20422 0.0
Zn33 Zn 0.32789 0.03444 0.24371 0.0
O34 O 0.35565 0.05252 0.27777 0.0
O35 O 0.36407 1.00085 0.27078 0.0
O36 O 0.29598 1.0016 0.27227 0.0
O37 O 0.30425 0.95232 0.25401 0.0
O38 O 0.29389 0.00937 0.20596 0.0
O39 O 0.2931 0.05954 0.22273 0.0
C40 C 0.36964 0.02683 0.28666 0.0
C41 C 0.28107 0.0374 0.20482 0.0
C42 C 0.76729 0.47999 0.24686 0.0
C43 C 0.67863 0.48602 0.33742 0.0
O44 O 0.756 0.45786 0.26612 0.0
Zn45 Zn 0.7242 0.48298 0.2933 0.0
O46 O 0.75702 0.5087 0.25193 0.0
Zn47 Zn 0.7213 0.53283 0.28628 0.0
O48 O 0.75121 0.56186 0.30985 0.0
O49 O 0.75854 0.51123 0.32188 0.0
O50 O 0.6859 0.51339 0.32434 0.0
O51 O 0.69462 0.46149 0.32675 0.0
O52 O 0.68908 0.49786 0.25715 0.0
O53 O 0.69024 0.55068 0.25619 0.0
C54 C 0.76625 0.54091 0.32612 0.0
C55 C 0.67913 0.52418 0.24496 0.0
C56 C 0.21621 0.39135 0.01262 0.0
C57 C 0.29578 0.30115 1.00309 0.0
O58 O 0.22468 0.376 0.98659 0.0
Zn59 Zn 0.25985 0.34903 1.00459 0.0
O60 O 0.23281 0.38659 0.03846 0.0
Zn61 Zn 0.27223 0.35589 0.05491 0.0
O62 O 0.31275 0.38242 0.06412 0.0
O63 O 0.3048 0.37861 1.01135 0.0
O64 O 0.29473 0.31536 0.03087 0.0
O65 O 0.27987 0.31285 0.97957 0.0
O66 O 0.22785 0.32367 0.04063 0.0
O67 O 0.24607 0.3335 0.09024 0.0
C68 C 0.32275 0.38902 0.03482 0.0
C69 C 0.22494 0.31962 0.07162 0.0
C70 C 0.22636 0.74471 0.4957 0.0
C71 C 0.31449 0.66082 0.49196 0.0
O72 O 0.24095 0.73289 0.46984 0.0
Zn73 Zn 0.26874 0.70135 0.49163 0.0
O74 O 0.23269 0.73308 0.52356 0.0
Zn75 Zn 0.26299 0.69663 0.54376 0.0
O76 O 0.2921 0.72282 0.57149 0.0
O77 O 0.30165 0.73245 0.51883 0.0
O78 O 0.30098 0.66622 0.52068 0.0
O79 O 0.30359 0.67582 0.46767 0.0
O80 O 0.22949 0.66723 0.50822 0.0
O81 O 0.22699 0.66747 0.56214 0.0
C82 C 0.30828 0.73853 0.54857 0.0
C83 C 0.21573 0.65687 0.53545 0.0
C84 C 0.725 0.888 0.54373 0.0
C85 C 0.81448 0.80624 0.5462 0.0
O86 O 0.7368 0.88012 0.51508 0.0
Zn87 Zn 0.77839 0.8518 0.49473 0.0
O88 O 0.74096 0.87884 0.56833 0.0
Zn89 Zn 0.77525 0.85104 0.54664 0.0
O90 O 0.81784 0.88031 0.5275 0.0
O91 O 0.81317 0.88066 0.47426 0.0
O92 O 0.80005 0.81973 0.57123 0.0
O93 O 0.809 0.81623 0.51743 0.0
O94 O 0.75109 0.82258 0.46862 0.0
O95 O 0.74194 0.81776 0.52217 0.0
C96 C 0.82935 0.88951 0.4991 0.0
C97 C 0.73528 0.80891 0.49313 0.0
C98 C 0.47453 0.73337 0.79409 0.0
C99 C 0.51815 0.65807 0.87093 0.0
O100 O 0.4558 0.71615 0.81399 0.0
Zn101 Zn 0.49561 0.69822 0.83366 0.0
O102 O 0.50784 0.73348 0.79449 0.0
Zn103 Zn 0.54771 0.71062 0.82041 0.0
O104 O 0.57253 0.69103 0.78384 0.0
O105 O 0.5183 0.67304 0.79091 0.0
O106 O 0.54315 0.67346 0.85575 0.0
O107 O 0.48695 0.66516 0.86616 0.0
O108 O 0.51447 0.74173 0.85723 0.0
O109 O 0.56985 0.74655 0.84102 0.0
C110 C 0.54766 0.67341 0.77433 0.0
C111 C 0.5435 0.75753 0.85701 0.0
C112 C 0.50973 0.17846 0.73291 0.0
C113 C 0.52935 0.2654 0.65295 0.0
O114 O 0.48696 0.19641 0.72148 0.0
Zn115 Zn 0.51747 0.21916 0.68972 0.0
O116 O 0.54124 0.1802 0.72091 0.0
Zn117 Zn 0.57157 0.20823 0.68452 0.0
O118 O 0.60557 0.22757 0.71289 0.0
O119 O 0.55074 0.24176 0.7228 0.0
O120 O 0.55723 0.25004 0.65759 0.0
O121 O 0.50051 0.25497 0.6658 0.0
O122 O 0.52901 0.18344 0.65456 0.0
O123 O 0.58569 0.17577 0.6528 0.0
C124 C 0.58275 0.24301 0.72985 0.0
C125 C 0.55574 0.16872 0.64291 0.0
C126 C 0.74925 0.52493 0.70056 0.0
C127 C 0.83175 0.53197 0.78772 0.0
O128 O 0.75611 0.54985 0.71721 0.0
Zn129 Zn 0.79314 0.53204 0.74204 0.0
O130 O 0.76672 0.49955 0.70406 0.0
Zn131 Zn 0.80848 0.4834 0.73122 0.0
O132 O 0.78541 0.44753 0.75476 0.0
O133 O 0.7666 0.49534 0.7702 0.0
O134 O 0.83222 0.50549 0.77184 0.0
O135 O 0.81428 0.55524 0.77773 0.0
O136 O 0.83436 0.52853 0.70633 0.0
O137 O 0.84657 0.47783 0.69793 0.0
C138 C 0.76615 0.4649 0.77363 0.0
C139 C 0.85242 0.50721 0.6912 0.0
C140 C 0.26035 0.95866 0.75024 0.0
C141 C 0.17505 0.97382 0.84374 0.0
O142 O 0.24864 0.93692 0.76993 0.0
Zn143 Zn 0.21767 0.96394 0.79712 0.0
O144 O 0.25049 0.9875 0.7546 0.0
Zn145 Zn 0.2163 0.01429 0.78674 0.0
O146 O 0.24928 0.04323 0.80756 0.0
O147 O 0.25508 0.9927 0.82106 0.0
O148 O 0.18337 0.99933 0.82764 0.0
O149 O 0.18821 0.9474 0.83437 0.0
O150 O 0.1821 0.9767 0.76123 0.0
O151 O 0.18415 0.0291 0.75506 0.0
C152 C 0.26475 0.02209 0.8234 0.0
C153 C 0.1722 1.00176 0.74672 0.0
C154 C 0.72298 0.15687 0.03132 0.0
C155 C 0.8128 0.24083 0.04687 0.0
O156 O 0.73234 0.16835 0.05838 0.0
Zn157 Zn 0.77062 0.19628 0.0415 0.0
O158 O 0.74013 0.16488 1.00481 0.0
Zn159 Zn 0.78213 0.19689 0.98981 0.0
O160 O 0.82017 0.17043 0.97241 0.0
O161 O 0.81263 0.16563 0.02586 0.0
O162 O 0.81004 0.23164 0.01724 0.0
O163 O 0.79483 0.22653 0.06968 0.0
O164 O 0.74176 0.2296 0.0145 0.0
O165 O 0.75724 0.22573 0.96199 0.0
C166 C 0.82951 0.15856 0.99903 0.0
C167 C 0.73869 0.23866 0.98499 0.0
Co168 Co 0.05073 0.02973 0.07438 0.0
C169 C 0.04518 0.07514 0.12413 0.0
Co170 Co 0.07148 0.07766 0.0601 0.0
C171 C 0.04695 0.96052 0.08556 0.0
C172 C 0.99915 0.98404 0.09823 0.0
N173 N 0.03198 0.98959 0.08603 0.0
N174 N 0.02458 0.9371 0.09682 0.0
C175 C 0.99452 0.95198 0.10475 0.0
H176 H 0.07375 0.95667 0.07731 0.0
H177 H 0.97993 1.00228 0.1028 0.0
C178 C 0.07934 0.03351 1.00991 0.0
N179 N 0.08947 0.1178 0.04973 0.0
C180 C 0.11111 0.13542 0.06782 0.0
C181 C 0.08138 0.13719 0.02515 0.0
N182 N 0.11646 0.16511 0.05581 0.0
C183 C 0.09787 0.16645 0.02894 0.0
C184 C 0.11971 0.03894 0.08907 0.0
O185 O 0.06468 0.01412 0.03069 0.0
O186 O 0.08469 0.06245 0.01824 0.0
O187 O 0.11532 0.06593 0.07589 0.0
O188 O 0.09489 0.01828 0.08981 0.0
O189 O 0.05871 0.09283 0.10171 0.0
H190 H 0.06397 0.13075 1.0062 0.0
H191 H 0.1217 0.12707 0.09014 0.0
O192 O 0.03783 0.04597 0.11779 0.0
O193 O 1.0062 0.0422 0.05941 0.0
O194 O 0.02728 0.08942 0.04498 0.0
C195 C 1.00163 0.06979 0.0475 0.0
H196 H 0.97113 0.94071 0.11567 0.0
H197 H 0.09639 0.18707 0.0132 0.0
Co198 Co 0.96889 0.44377 0.08706 0.0
C199 C 0.98596 0.50722 0.07989 0.0
Co200 Co 0.95005 0.46356 0.04149 0.0
C201 C 0.98485 0.39625 0.13429 0.0
C202 C 0.97663 0.44257 0.1556 0.0
N203 N 0.97972 0.42706 0.12663 0.0
N204 N 0.98417 0.39193 0.16685 0.0
C205 C 0.97918 0.42094 0.18042 0.0
H206 H 0.98641 0.37698 0.11655 0.0
H207 H 0.97044 0.46758 0.15858 0.0
C208 C 0.93161 0.40018 0.04892 0.0
N209 N 0.93958 0.48253 1.00206 0.0
C210 C 0.91223 0.47981 0.98268 0.0
C211 C 0.96145 0.5039 0.98655 0.0
N212 N 0.91625 0.49909 0.95612 0.0
C213 C 0.94722 0.51416 0.95865 0.0
C214 C 1.0185 0.43827 0.03801 0.0
O215 O 0.94743 0.40398 0.07519 0.0
O216 O 0.9306 0.42343 0.02899 0.0
O217 O 0.99546 0.45163 0.0217 0.0
O218 O 1.01161 0.4315 0.06783 0.0
O219 O 0.96891 0.50337 0.05458 0.0
H220 H 0.98664 0.51132 0.99476 0.0
H221 H 0.88997 0.46402 0.98787 0.0
O222 O 0.98986 0.48358 0.09851 0.0
O223 O 0.92653 0.45591 0.10667 0.0
O224 O 0.90508 0.47513 0.06248 0.0
C225 C 0.90155 0.46842 0.0929 0.0
H226 H 0.97621 0.42583 0.20638 0.0
H227 H 0.95936 0.5306 0.94091 0.0
Co228 Co 0.09864 0.95891 0.47523 0.0
C229 C 0.14474 0.9583 0.41906 0.0
Co230 Co 0.07572 0.9429 0.4295 0.0
C231 C 0.11106 0.97474 0.54468 0.0
C232 C 0.14446 0.9993 0.50913 0.0
N233 N 0.11921 0.97637 0.51204 0.0
N234 N 0.13014 0.99606 0.56173 0.0
C235 C 0.15127 0.01117 0.53929 0.0
H236 H 0.09047 0.95954 0.55551 0.0
H237 H 0.15617 1.00827 0.48631 0.0
C238 C 0.02816 0.94242 0.48282 0.0
N239 N 0.05625 0.92789 0.39246 0.0
C240 C 0.07131 0.90785 0.37041 0.0
C241 C 0.02519 0.93473 0.38075 0.0
N242 N 0.051 0.90177 0.34528 0.0
C243 C 0.02185 0.91862 0.35169 0.0
C244 C 0.1065 0.89452 0.4648 0.0
O245 O 0.05339 0.95272 0.49939 0.0
O246 O 0.03378 0.93596 0.45283 0.0
O247 O 0.09023 0.90095 0.43947 0.0
O248 O 0.11184 0.91661 0.48564 0.0
O249 O 0.11749 0.94964 0.40536 0.0
H250 H 1.00627 0.95036 0.39259 0.0
H251 H 0.09695 0.89827 0.37271 0.0
O252 O 0.14286 0.96424 0.44962 0.0
O253 O 0.08604 1.00101 0.46429 0.0
O254 O 0.06174 0.98486 0.41981 0.0
C255 C 0.06964 1.0073 0.43918 0.0
H256 H 0.17001 0.03001 0.54429 0.0
H257 H 0.99939 0.91881 0.33689 0.0
Co258 Co 0.97559 0.58443 0.47407 0.0
C259 C 0.0447 0.56533 0.48517 0.0
Co260 Co 0.98985 0.535 0.45887 0.0
C261 C 0.94493 0.64303 0.5021 0.0
C262 C 0.99435 0.65044 0.47636 0.0
N263 N 0.97036 0.62751 0.48467 0.0
N264 N 0.95238 0.67474 0.50508 0.0
C265 C 0.98343 0.67929 0.48872 0.0
H266 H 0.92172 0.6312 0.51271 0.0
H267 H 1.01843 0.6464 0.4622 0.0
C268 C 0.92114 0.55466 0.44686 0.0
N269 N 0.9941 0.49106 0.44954 0.0
C270 C 1.01866 0.47198 0.43503 0.0
C271 C 0.96812 0.47056 0.45957 0.0
N272 N 1.00876 0.44054 0.43626 0.0
C273 C 0.97688 0.43998 0.4515 0.0
C274 C 0.96123 0.54285 0.5239 0.0
O275 O 0.92949 0.58156 0.45913 0.0
O276 O 0.9431 0.53233 0.44566 0.0
O277 O 0.97441 0.52364 0.50276 0.0
O278 O 0.95901 0.57222 0.51659 0.0
O279 O 0.03674 0.5388 0.47175 0.0
H280 H 0.94401 0.47738 0.47228 0.0
H281 H 0.04333 0.48082 0.42431 0.0
O282 O 0.02197 0.58694 0.48859 0.0
O283 O 0.99157 0.59602 0.43118 0.0
O284 O 1.00482 0.5472 0.41512 0.0
C285 C 1.00228 0.57691 0.40879 0.0
H286 H 0.99713 0.70201 0.48526 0.0
H287 H 0.96057 0.41888 0.45605 0.0
Co288 Co 0.47157 0.93221 0.59836 0.0
C289 C 0.4922 0.99551 0.59509 0.0
Co290 Co 0.45634 0.95544 0.5531 0.0
C291 C 0.48297 0.88082 0.64235 0.0
C292 C 0.48185 0.92641 0.66638 0.0
N293 N 0.48215 0.91249 0.63655 0.0
N294 N 0.48205 0.87449 0.67453 0.0
C295 C 0.48171 0.90304 0.68982 0.0
H296 H 0.48134 0.86262 0.62359 0.0
H297 H 0.47904 0.95175 0.67101 0.0
C298 C 0.43535 0.89198 0.5565 0.0
N299 N 0.44363 0.97725 0.5157 0.0
C300 C 0.4439 0.96933 0.48352 0.0
C301 C 0.43028 1.00684 0.51722 0.0
N302 N 0.4315 0.99309 0.46507 0.0
C303 C 0.42292 0.01656 0.48649 0.0
C304 C 0.52372 0.93009 0.55008 0.0
O305 O 0.4497 0.894 0.58364 0.0
O306 O 0.43642 0.91621 0.53768 0.0
O307 O 0.50243 0.94499 0.53279 0.0
O308 O 0.51376 0.92077 0.57853 0.0
O309 O 0.47628 0.99433 0.56878 0.0
H310 H 0.42558 0.02043 0.5395 0.0
H311 H 0.4529 0.94662 0.47391 0.0
O312 O 0.4931 0.97056 0.61247 0.0
O313 O 0.42985 0.94328 0.61896 0.0
O314 O 0.41092 0.96537 0.57523 0.0
C315 C 0.4057 0.95668 0.60497 0.0
H316 H 0.47984 0.90666 0.71603 0.0
H317 H 0.41099 0.0389 0.48062 0.0
Co318 Co 0.53565 0.53192 0.55821 0.0
C319 C 0.53104 0.58372 0.603 0.0
Co320 Co 0.55406 0.57922 0.53911 0.0
C321 C 0.52749 0.46291 0.57611 0.0
C322 C 0.48662 0.49318 0.59449 0.0
N323 N 0.51722 0.49384 0.57678 0.0
N324 N 0.50404 0.44324 0.59243 0.0
C325 C 0.47853 0.46247 0.60405 0.0
H326 H 0.55116 0.45493 0.56338 0.0
H327 H 0.47083 0.51386 0.59993 0.0
C328 C 0.5608 0.52848 0.49422 0.0
N329 N 0.57048 0.61704 0.51996 0.0
C330 C 0.59441 0.63841 0.53005 0.0
C331 C 0.56148 0.62807 0.49074 0.0
N332 N 0.60077 0.66225 0.50817 0.0
C333 C 0.57997 0.6558 0.48346 0.0
C334 C 0.60453 0.54553 0.57007 0.0
O335 O 0.54858 0.51037 0.51728 0.0
O336 O 0.56447 0.55822 0.49946 0.0
O337 O 0.59883 0.57041 0.55352 0.0
O338 O 0.58052 0.52416 0.57413 0.0
O339 O 0.54408 0.60024 0.57924 0.0
H340 H 0.54293 0.61642 0.47544 0.0
H341 H 0.60748 0.63602 0.55262 0.0
O342 O 0.52397 0.55415 0.59863 0.0
O343 O 0.4904 0.54092 0.54269 0.0
O344 O 0.50902 0.58803 0.52547 0.0
C345 C 0.48444 0.56752 0.52932 0.0
H346 H 0.4556 0.4549 0.61872 0.0
H347 H 0.57806 0.67015 0.46173 0.0
Co348 Co 0.59074 0.44805 0.98309 0.0
C349 C 0.63428 0.44388 0.92648 0.0
Co350 Co 0.56805 0.42165 0.94261 0.0
C351 C 0.60828 0.46533 0.04856 0.0
C352 C 0.62632 0.5003 0.0132 0.0
N353 N 0.60963 0.4717 0.01625 0.0
N354 N 0.62328 0.48897 0.06587 0.0
C355 C 0.63472 0.51099 0.04364 0.0
H356 H 0.59595 0.44401 0.0592 0.0
H357 H 0.63179 0.51271 0.99032 0.0
C358 C 0.52325 0.42552 0.99756 0.0
N359 N 0.54928 0.39836 0.90972 0.0
C360 C 0.56576 0.37599 0.89128 0.0
C361 C 0.5159 0.39704 0.90115 0.0
N362 N 0.5439 0.36036 0.87202 0.0
C363 C 0.51246 0.37337 0.87804 0.0
C364 C 0.607 0.38407 0.98277 0.0
O365 O 0.54816 0.44102 1.01001 0.0
O366 O 0.52765 0.41407 0.96902 0.0
O367 O 0.58852 0.38389 0.95802 0.0
O368 O 0.61016 0.40982 0.99912 0.0
O369 O 0.60805 0.42922 0.91594 0.0
H370 H 0.49522 0.41146 0.91192 0.0
H371 H 0.59285 0.37004 0.89323 0.0
O372 O 0.63272 0.45494 0.95556 0.0
O373 O 0.5719 0.48611 0.96656 0.0
O374 O 0.54818 0.45952 0.92695 0.0
C375 C 0.55372 0.48584 0.94159 0.0
H376 H 0.64865 0.53302 0.04889 0.0
H377 H 0.48865 0.36576 0.86707 0.0
Co378 Co 0.47855 0.07655 0.96166 0.0
C379 C 0.54846 0.07191 0.97377 0.0
Co380 Co 0.49991 0.02937 0.94631 0.0
C381 C 0.43564 0.13369 0.96088 0.0
C382 C 0.46621 0.1303 1.00291 0.0
N383 N 0.4597 0.11548 0.9745 0.0
N384 N 0.42673 0.15893 0.98008 0.0
C385 C 0.44602 0.15685 1.00641 0.0
H386 H 0.42378 0.12779 0.93819 0.0
H387 H 0.48373 0.12171 0.02056 0.0
C388 C 0.43083 0.03529 0.93256 0.0
N389 N 0.51965 0.98921 0.93577 0.0
C390 C 0.50896 0.96401 0.91743 0.0
C391 C 0.54766 0.97816 0.95042 0.0
N392 N 0.52958 0.93817 0.91998 0.0
C393 C 0.55383 0.94735 0.94075 0.0
C394 C 0.4714 0.03091 1.01079 0.0
O395 O 0.43502 0.06273 0.94558 0.0
O396 O 0.45586 0.01572 0.9315 0.0
O397 O 0.48671 0.01304 0.9895 0.0
O398 O 0.46544 0.05966 1.0034 0.0
O399 O 0.54401 0.04464 0.96071 0.0
H400 H 0.56197 0.99089 0.96855 0.0
H401 H 0.48607 0.96432 0.90322 0.0
O402 O 0.52271 0.09036 0.97721 0.0
O403 O 0.49118 0.0929 0.91983 0.0
O404 O 0.51207 0.04648 0.90317 0.0
C405 C 0.50475 0.07554 0.89715 0.0
H406 H 0.44498 0.17307 0.02711 0.0
H407 H 0.5737 0.93229 0.94986 0.0
H408 H 0.05958 0.15371 0.40804 0.0
H409 H 0.95911 0.12227 0.37672 0.0
H410 H 0.96975 0.06797 0.39504 0.0
H411 H 1.01026 0.02833 0.41484 0.0
H412 H 0.10923 0.0604 0.44897 0.0
H413 H 0.09671 0.11557 0.4345 0.0
C414 C 0.03976 0.13509 0.40584 0.0
C415 C 1.00879 0.14187 0.39081 0.0
C416 C 0.04606 0.10396 0.41636 0.0
C417 C 0.98313 0.11765 0.38835 0.0
C418 C 0.98934 0.08652 0.39849 0.0
C419 C 0.02891 0.04753 0.41919 0.0
C420 C 0.06081 0.04052 0.43231 0.0
C421 C 0.02115 0.07922 0.4116 0.0
C422 C 0.08458 0.06543 0.43863 0.0
C423 C 0.07744 0.09689 0.43039 0.0
H424 H 0.06802 0.32672 0.3514 0.0
H425 H 1.01329 0.27381 0.42905 0.0
H426 H 1.00355 0.3233 0.45986 0.0
H427 H 1.00427 0.38155 0.46171 0.0
H428 H 0.05241 0.43603 0.38183 0.0
H429 H 0.07212 0.38623 0.35527 0.0
C430 C 0.05479 0.3261 0.37545 0.0
C431 C 0.0416 0.2967 0.38818 0.0
C432 C 0.04787 0.35497 0.39239 0.0
C433 C 0.02378 0.29614 0.41895 0.0
C434 C 1.01809 0.32444 0.43647 0.0
C435 C 0.0192 0.38261 0.43853 0.0
C436 C 0.02625 0.41247 0.42346 0.0
C437 C 0.02898 0.354 0.42293 0.0
C438 C 0.0466 0.41342 0.39394 0.0
C439 C 0.05756 0.3849 0.37864 0.0
H440 H 0.07194 0.80197 0.14137 0.0
H441 H 0.96335 0.78009 0.12843 0.0
H442 H 0.95582 0.83341 0.10614 0.0
H443 H 0.97847 0.88782 0.09545 0.0
H444 H 0.08618 0.91096 0.11059 0.0
H445 H 0.09582 0.85554 0.12628 0.0
C446 C 0.04681 0.8086 0.13298 0.0
C447 C 1.01821 0.787 0.13667 0.0
C448 C 0.04242 0.8397 0.12088 0.0
C449 C 0.98577 0.7962 0.12598 0.0
C450 C 0.9814 0.82677 0.11334 0.0
C451 C 1.00409 0.88074 0.10209 0.0
C452 C 0.03143 0.9037 0.10223 0.0
C453 C 1.00926 0.849 0.1116 0.0
C454 C 0.06469 0.89386 0.11015 0.0
C455 C 0.07015 0.86217 0.11934 0.0
H456 H 1.01566 0.65182 0.11084 0.0
H457 H 0.09952 0.61171 0.16186 0.0
H458 H 0.08451 0.55822 0.14137 0.0
H459 H 0.04266 0.52238 0.11433 0.0
H460 H 0.95987 0.56379 0.0625 0.0
H461 H 0.97916 0.61734 0.07808 0.0
C462 C 0.03114 0.63143 0.11678 0.0
C463 C 0.05841 0.63541 0.13788 0.0
C464 C 0.02207 0.60099 0.10535 0.0
C465 C 0.07855 0.60907 0.14538 0.0
C466 C 0.06967 0.5785 0.13404 0.0
C467 C 0.02907 0.54321 0.10638 0.0
C468 C 0.99957 0.53927 0.08786 0.0
C469 C 0.04066 0.57405 0.11498 0.0
C470 C 0.98251 0.56632 0.07701 0.0
C471 C 0.99351 0.59692 0.08585 0.0
H472 H 0.40021 0.96336 0.13648 0.0
H473 H 0.40709 0.06067 0.17203 0.0
H474 H 0.43837 0.0771 0.12172 0.0
H475 H 0.45961 0.0655 0.06591 0.0
H476 H 0.45493 0.96885 0.02904 0.0
H477 H 0.42749 0.95058 0.08141 0.0
C478 C 0.40906 0.98801 0.1334 0.0
C479 C 0.40075 0.01073 0.15808 0.0
C480 C 0.42726 0.99759 0.10397 0.0
C481 C 0.4126 0.04261 0.15353 0.0
C482 C 0.43056 0.05216 0.12464 0.0
C483 C 0.45289 0.04034 0.06938 0.0
C484 C 0.45897 0.01865 0.04348 0.0
C485 C 0.43728 0.03009 0.09943 0.0
C486 C 0.45054 0.98608 0.04859 0.0
C487 C 0.43468 0.97566 0.0785 0.0
H488 H 0.65804 0.47142 0.21192 0.0
H489 H 0.65821 0.57471 0.2089 0.0
H490 H 0.63811 0.57273 0.15336 0.0
H491 H 0.62676 0.54172 0.10373 0.0
H492 H 0.62924 0.43862 0.10633 0.0
H493 H 0.64174 0.44049 0.16408 0.0
C494 C 0.65309 0.49356 0.19941 0.0
C495 C 0.66002 0.52319 0.21451 0.0
C496 C 0.64244 0.49227 0.16722 0.0
C497 C 0.65325 0.55157 0.19788 0.0
C498 C 0.64198 0.55046 0.16601 0.0
C499 C 0.63001 0.51968 0.11696 0.0
C500 C 0.62753 0.49009 0.1006 0.0
C501 C 0.63764 0.52096 0.15008 0.0
C502 C 0.63091 0.46169 0.1183 0.0
C503 C 0.63824 0.46275 0.15131 0.0
H504 H 0.38713 0.97393 0.32064 0.0
H505 H 0.3926 0.07719 0.32328 0.0
H506 H 0.41525 0.07551 0.37781 0.0
H507 H 0.42918 0.04504 0.42624 0.0
H508 H 0.42067 0.94196 0.42522 0.0
H509 H 0.40433 0.94324 0.36833 0.0
C510 C 0.39381 0.9961 0.33286 0.0
C511 C 0.38806 0.02571 0.31772 0.0
C512 C 0.40612 0.99497 0.36464 0.0
C513 C 0.39667 0.05411 0.33421 0.0
C514 C 0.40953 0.05315 0.3655 0.0
C515 C 0.4237 0.02278 0.4137 0.0
C516 C 0.42572 0.99343 0.43039 0.0
C517 C 0.41358 0.02377 0.38123 0.0
C518 C 0.41946 0.96487 0.41318 0.0
C519 C 0.40985 0.96563 0.38064 0.0
H520 H 0.62345 0.52372 0.35104 0.0
H521 H 0.67781 0.44382 0.38855 0.0
H522 H 0.64203 0.4463 0.43989 0.0
H523 H 0.60031 0.47628 0.47676 0.0
H524 H 0.5468 0.55605 0.43767 0.0
H525 H 0.57641 0.54806 0.38433 0.0
C526 C 0.62711 0.50653 0.37027 0.0
C527 C 0.65353 0.48395 0.36619 0.0
C528 C 0.60646 0.50807 0.39956 0.0
C529 C 0.65765 0.46152 0.39113 0.0
C530 C 0.63727 0.46301 0.42056 0.0
C531 C 0.59433 0.49109 0.45622 0.0
C532 C 0.57147 0.51677 0.46114 0.0
C533 C 0.6122 0.48681 0.42546 0.0
C534 C 0.56433 0.53615 0.43445 0.0
C535 C 0.58146 0.53178 0.40397 0.0
H536 H 0.16063 0.39005 0.97295 0.0
H537 H 0.19799 0.4338 0.06046 0.0
H538 H 0.14023 0.45391 0.07462 0.0
H539 H 0.07781 0.4533 0.06618 0.0
H540 H 0.03896 0.41142 0.97877 0.0
H541 H 0.09847 0.39645 0.9604 0.0
C542 C 0.15635 0.40475 0.9946 0.0
C543 C 0.18369 0.41003 0.0158 0.0
C544 C 0.12263 0.41605 1.00296 0.0
C545 C 0.17751 0.42907 0.04383 0.0
C546 C 0.14437 0.44047 0.0521 0.0
C547 C 0.08248 0.44122 0.04289 0.0
C548 C 0.05418 0.43296 0.02405 0.0
C549 C 0.11654 0.43308 0.03253 0.0
C550 C 0.06046 0.41787 0.99369 0.0
C551 C 0.09443 0.40926 0.9833 0.0
H552 H 0.20087 0.61109 0.49063 0.0
H553 H 0.15977 0.65596 0.57909 0.0
H554 H 0.10337 0.6291 0.57284 0.0
H555 H 0.06397 0.59804 0.53857 0.0
H556 H 0.10558 0.55055 0.45188 0.0
H557 H 0.16371 0.57282 0.46122 0.0
C558 C 0.17973 0.61444 0.50886 0.0
C559 C 0.18434 0.63573 0.53512 0.0
C560 C 0.14746 0.59863 0.50527 0.0
C561 C 0.1569 0.63964 0.55875 0.0
C562 C 0.12457 0.62446 0.55504 0.0
C563 C 0.08598 0.59204 0.52216 0.0
C564 C 0.08058 0.57291 0.49445 0.0
C565 C 0.11929 0.60467 0.5279 0.0
C566 C 0.10921 0.56507 0.47345 0.0
C567 C 0.14236 0.57803 0.47866 0.0
H568 H 0.88164 0.89421 0.54196 0.0
H569 H 0.85328 0.92453 0.44649 0.0
H570 H 0.9114 0.94778 0.43575 0.0
H571 H 0.97145 0.9542 0.45057 0.0
H572 H 1.0028 0.92152 0.54396 0.0
H573 H 0.94206 0.90521 0.55892 0.0
C574 C 0.88801 0.90644 0.51906 0.0
C575 C 0.86308 0.90744 0.49493 0.0
C576 C 0.922 0.91919 0.51269 0.0
C577 C 0.8719 0.92319 0.46534 0.0
C578 C 0.90517 0.93649 0.45918 0.0
C579 C 0.96498 0.94388 0.47446 0.0
C580 C 0.99162 0.93873 0.49603 0.0
C581 C 0.93059 0.93381 0.48225 0.0
C582 C 0.98276 0.92584 0.52701 0.0
C583 C 0.94811 0.91624 0.53535 0.0
H584 H 0.32847 0.60923 0.52857 0.0
H585 H 0.37059 0.66744 0.44867 0.0
H586 H 0.42694 0.64164 0.45144 0.0
H587 H 0.46597 0.60732 0.48124 0.0
H588 H 0.42309 0.54742 0.55953 0.0
H589 H 0.3652 0.56881 0.55256 0.0
C590 C 0.3498 0.61575 0.5113 0.0
C591 C 0.34551 0.6404 0.48864 0.0
C592 C 0.38205 0.60076 0.51302 0.0
C593 C 0.3732 0.64845 0.46623 0.0
C594 C 0.40552 0.6339 0.46801 0.0
C595 C 0.44379 0.59858 0.49637 0.0
C596 C 0.44881 0.57613 0.52114 0.0
C597 C 0.41053 0.61077 0.492 0.0
C598 C 0.41986 0.56467 0.54031 0.0
C599 C 0.3868 0.57704 0.53645 0.0
H600 H 0.4834 0.60122 0.87344 0.0
H601 H 0.57142 0.65185 0.91124 0.0
H602 H 0.58863 0.60325 0.93886 0.0
H603 H 0.58093 0.54554 0.94889 0.0
H604 H 0.49657 0.49361 0.90607 0.0
H605 H 0.47558 0.54342 0.88367 0.0
C606 C 0.50595 0.60166 0.88826 0.0
C607 C 0.52592 0.63002 0.89075 0.0
C608 C 0.51653 0.57331 0.90276 0.0
C609 C 0.5556 0.63024 0.90924 0.0
C610 C 0.56549 0.60248 0.92488 0.0
C611 C 0.55776 0.54522 0.93492 0.0
C612 C 0.54025 0.51603 0.92916 0.0
C613 C 0.54652 0.57374 0.9213 0.0
C614 C 0.51055 0.51581 0.91066 0.0
C615 C 0.49851 0.54427 0.89793 0.0
H616 H 0.49056 0.79949 0.86984 0.0
H617 H 0.6015 0.78931 0.87586 0.0
H618 H 0.60688 0.84465 0.89441 0.0
H619 H 0.58079 0.89615 0.90745 0.0
H620 H 0.4701 0.90768 0.902 0.0
H621 H 0.46407 0.85197 0.88364 0.0
C622 C 0.51581 0.80926 0.87573 0.0
C623 C 0.54558 0.79006 0.87178 0.0
C624 C 0.51887 0.84153 0.88583 0.0
C625 C 0.57818 0.80338 0.87883 0.0
C626 C 0.58131 0.83511 0.88929 0.0
C627 C 0.55521 0.88653 0.90259 0.0
C628 C 0.52591 0.90621 0.90647 0.0
C629 C 0.55193 0.85445 0.8926 0.0
C630 C 0.49317 0.89332 0.89906 0.0
C631 C 0.48968 0.86131 0.88886 0.0
H632 H 0.47578 0.30009 0.63178 0.0
H633 H 0.58761 0.30186 0.63615 0.0
H634 H 0.59037 0.35654 0.615 0.0
H635 H 0.5602 0.40605 0.60002 0.0
H636 H 0.44844 0.40296 0.5954 0.0
H637 H 0.44658 0.34698 0.61159 0.0
C638 C 0.50083 0.31225 0.62774 0.0
C639 C 0.53136 0.29684 0.63585 0.0
C640 C 0.50226 0.34378 0.61571 0.0
C641 C 0.56361 0.31302 0.63016 0.0
C642 C 0.56523 0.34444 0.61818 0.0
C643 C 0.5356 0.39289 0.60197 0.0
C644 C 0.50445 0.40895 0.59709 0.0
C645 C 0.53463 0.36038 0.61151 0.0
C646 C 0.47273 0.39149 0.59976 0.0
C647 C 0.47161 0.35936 0.60893 0.0
H648 H 0.57703 0.10967 0.65571 0.0
H649 H 0.51801 0.16323 0.58909 0.0
H650 H 0.49471 0.1134 0.56636 0.0
H651 H 0.48588 0.05514 0.57024 0.0
H652 H 0.54038 1.00217 0.64115 0.0
H653 H 0.5704 0.05114 0.65774 0.0
C654 C 0.56004 0.11024 0.63542 0.0
C655 C 0.54973 0.13979 0.62347 0.0
C656 C 0.54517 0.08166 0.62399 0.0
C657 C 0.5267 0.14056 0.59809 0.0
C658 C 0.51308 0.11215 0.58545 0.0
C659 C 0.50449 0.0543 0.58918 0.0
C660 C 0.51062 0.02515 0.60467 0.0
C661 C 0.52119 0.08263 0.59902 0.0
C662 C 0.53483 0.02441 0.62915 0.0
C663 C 0.55219 0.05235 0.63852 0.0
H664 H 0.88582 0.47048 0.6439 0.0
H665 H 0.87558 0.56787 0.67823 0.0
H666 H 0.91006 0.58727 0.63068 0.0
H667 H 0.93898 0.57742 0.57706 0.0
H668 H 0.94982 0.48043 0.542 0.0
H669 H 0.91969 0.46023 0.59199 0.0
C670 C 0.89162 0.49586 0.64121 0.0
C671 C 0.87771 0.51762 0.6645 0.0
C672 C 0.91138 0.50709 0.61345 0.0
C673 C 0.88556 0.5505 0.66059 0.0
C674 C 0.9053 0.56172 0.63332 0.0
C675 C 0.93506 0.55184 0.58047 0.0
C676 C 0.94636 0.53055 0.55567 0.0
C677 C 0.91762 0.54035 0.60921 0.0
C678 C 0.94133 0.49743 0.56065 0.0
C679 C 0.92398 0.48581 0.58923 0.0
H680 H 0.15853 0.04681 0.70122 0.0
H681 H 0.14241 0.94669 0.724 0.0
H682 H 0.12344 0.93636 0.66908 0.0
H683 H 0.1201 0.9543 0.61181 0.0
H684 H 0.13697 0.05424 0.5894 0.0
H685 H 0.14654 0.06602 0.64655 0.0
C686 C 0.15001 0.02289 0.6945 0.0
C687 C 0.15249 0.99757 0.71668 0.0
C688 C 0.13974 0.01689 0.66253 0.0
C689 C 0.14118 0.9667 0.70741 0.0
C690 C 0.13045 0.96066 0.67585 0.0
C691 C 0.125 0.9787 0.61969 0.0
C692 C 0.1286 1.0032 0.59628 0.0
C693 C 0.13095 0.98532 0.65275 0.0
C694 C 0.13493 0.0348 0.60682 0.0
C695 C 0.14034 0.04161 0.63955 0.0
H696 H 0.83464 0.48265 0.82913 0.0
H697 H 0.86184 0.58292 0.81929 0.0
H698 H 0.88853 0.58198 0.87247 0.0
H699 H 0.90652 0.5516 0.92016 0.0
H700 H 0.8778 0.45167 0.92986 0.0
H701 H 0.84832 0.45364 0.87846 0.0
C702 C 0.84658 0.50432 0.83853 0.0
C703 C 0.84711 0.53268 0.82003 0.0
C704 C 0.86117 0.50364 0.86913 0.0
C705 C 0.86156 0.56077 0.83295 0.0
C706 C 0.87673 0.56019 0.8633 0.0
C707 C 0.89364 0.53032 0.91105 0.0
C708 C 0.89465 0.50139 0.92859 0.0
C709 C 0.87704 0.53163 0.88137 0.0
C710 C 0.87723 0.47418 0.91693 0.0
C711 C 0.86069 0.47525 0.88741 0.0
H712 H 0.13754 0.02487 0.86404 0.0
H713 H 0.16252 0.92933 0.89301 0.0
H714 H 0.132 0.93785 0.94646 0.0
H715 H 0.1027 0.97489 0.987 0.0
H716 H 0.08093 0.07086 0.95654 0.0
H717 H 0.10542 0.05963 0.90189 0.0
C718 C 0.13611 1.00567 0.88183 0.0
C719 C 0.15264 0.97658 0.87447 0.0
C720 C 0.11915 0.01095 0.91254 0.0
C721 C 0.15008 0.95199 0.89791 0.0
C722 C 0.13275 0.95694 0.92859 0.0
C723 C 0.10283 0.99306 0.96817 0.0
C724 C 0.09018 0.02378 0.97599 0.0
C725 C 0.11781 0.98664 0.93652 0.0
C726 C 0.09077 0.04715 0.95136 0.0
C727 C 0.10479 0.04077 0.92001 0.0
H728 H 0.67702 0.89743 0.4976 0.0
H729 H 0.6943 0.91187 0.6 0.0
H730 H 0.63421 0.92842 0.60962 0.0
H731 H 0.57587 0.93398 0.5905 0.0
H732 H 0.55629 0.91921 0.48887 0.0
H733 H 0.61844 0.9079 0.47724 0.0
C734 C 0.66785 0.90477 0.52192 0.0
C735 C 0.69033 0.90319 0.54813 0.0
C736 C 0.63282 0.91381 0.52745 0.0
C737 C 0.67778 0.91269 0.57944 0.0
C738 C 0.64331 0.92206 0.58499 0.0
C739 C 0.58512 0.92839 0.56567 0.0
C740 C 0.56136 0.92681 0.54063 0.0
C741 C 0.62046 0.92185 0.55941 0.0
C742 C 0.57398 0.92038 0.50855 0.0
C743 C 0.60947 0.91382 0.50202 0.0
H744 H 0.70656 0.11233 0.98577 0.0
H745 H 0.66386 0.1615 0.07105 0.0
H746 H 0.60578 0.13972 0.06102 0.0
H747 H 0.56616 0.10984 0.02525 0.0
H748 H 0.61011 0.05757 0.9425 0.0
H749 H 0.66839 0.07738 0.95416 0.0
C750 C 0.68464 0.11779 1.00251 0.0
C751 C 0.68959 0.13859 0.02908 0.0
C752 C 0.65135 0.10496 0.99673 0.0
C753 C 0.66091 0.14533 0.0506 0.0
C754 C 0.62757 0.13313 0.04467 0.0
C755 C 0.58858 0.1027 1.00994 0.0
C756 C 0.58376 0.08259 0.98278 0.0
C757 C 0.62231 0.11348 0.01737 0.0
C758 C 0.61309 0.07307 0.96348 0.0
C759 C 0.64645 0.08442 0.97011 0.0
H760 H 0.37914 0.39464 0.07308 0.0
H761 H 0.34364 0.41819 0.97804 0.0
H762 H 0.40256 0.43426 0.95959 0.0
H763 H 0.46466 0.43554 0.96792 0.0
H764 H 0.5024 0.41218 0.06179 0.0
H765 H 0.44207 0.40241 0.08349 0.0
C766 C 0.38421 0.40402 0.04862 0.0
C767 C 0.357 0.40486 0.02684 0.0
C768 C 0.41857 0.41278 0.03784 0.0
C769 C 0.36406 0.41698 0.99518 0.0
C770 C 0.3978 0.42609 0.98454 0.0
C771 C 0.45965 0.42859 0.99327 0.0
C772 C 0.48774 0.42397 0.01315 0.0
C773 C 0.42532 0.42303 1.00525 0.0
C774 C 0.48105 0.41569 0.04607 0.0
C775 C 0.44663 0.41 0.05834 0.0
H776 H 0.84489 0.11165 0.04184 0.0
H777 H 0.88833 0.16539 0.95924 0.0
H778 H 0.94542 0.14237 0.96632 0.0
H779 H 0.98422 0.10994 0.99876 0.0
H780 H 0.93968 0.05275 0.07839 0.0
H781 H 0.88204 0.07388 0.06969 0.0
C782 C 0.86674 0.1179 0.02507 0.0
C783 C 0.86232 0.14035 1.00013 0.0
C784 C 0.89946 0.10412 0.02896 0.0
C785 C 0.89088 0.14804 0.97849 0.0
C786 C 0.92365 0.13505 0.9827 0.0
C787 C 0.96178 0.10187 0.01394 0.0
C788 C 0.9663 0.08 0.03938 0.0
C789 C 0.92845 0.11355 1.00825 0.0
C790 C 0.93693 0.06948 0.05861 0.0
C791 C 0.90395 0.08168 0.05373 0.0
H792 H 1.00726 0.13552 0.26268 0.0
H793 H 0.10597 0.18393 0.24039 0.0
H794 H 0.11369 0.15289 0.19009 0.0
H795 H 0.09074 0.11517 0.15068 0.0
H796 H 0.99315 0.0651 0.17223 0.0
H797 H 0.98671 0.09341 0.22499 0.0
C798 C 0.0306 0.13907 0.24694 0.0
C799 C 0.05585 0.16232 0.25515 0.0
C800 C 0.03495 0.12099 0.21798 0.0
C801 C 0.08613 0.16632 0.2347 0.0
C802 C 0.09051 0.14865 0.20585 0.0
C803 C 0.06809 0.11033 0.16702 0.0
C804 C 0.04211 0.08856 0.15752 0.0
C805 C 0.06481 0.12645 0.197 0.0
C806 C 1.01335 0.08187 0.1791 0.0
C807 C 1.00967 0.09816 0.20909 0.0
H808 H 1.01355 0.26319 0.23477 0.0
H809 H 0.92582 0.29241 0.29699 0.0
H810 H 0.91764 0.33843 0.26141 0.0
H811 H 0.94037 0.37346 0.21641 0.0
H812 H 0.02761 0.34352 0.15418 0.0
H813 H 0.0313 0.29424 0.18596 0.0
C814 C 0.99224 0.27936 0.24012 0.0
C815 C 0.97053 0.27493 0.26846 0.0
C816 C 0.98809 0.30567 0.21992 0.0
C817 C 0.9427 0.29552 0.27515 0.0
C818 C 0.9383 0.32191 0.25505 0.0
C819 C 0.96001 0.35596 0.20991 0.0
C820 C 0.98425 0.36205 0.18369 0.0
C821 C 0.96165 0.32778 0.22807 0.0
C822 C 1.00903 0.33912 0.17456 0.0
C823 C 1.01109 0.31113 0.19267 0.0
H824 H 0.05134 0.81145 0.22411 0.0
H825 H 0.12176 0.75936 0.28144 0.0
H826 H 0.12207 0.80327 0.32154 0.0
H827 H 0.09496 0.85207 0.34356 0.0
H828 H 0.02375 0.90333 0.28586 0.0
H829 H 0.0307 0.86361 0.24245 0.0
C830 C 0.06731 0.8101 0.24511 0.0
C831 C 0.08616 0.78239 0.25035 0.0
C832 C 0.06656 0.83479 0.26811 0.0
C833 C 0.10717 0.7807 0.27714 0.0
C834 C 0.107 0.80557 0.30011 0.0
C835 C 0.08154 0.85506 0.32127 0.0
C836 C 0.05825 0.88037 0.31829 0.0
C837 C 0.08567 0.83212 0.29641 0.0
C838 C 0.041 0.88363 0.28918 0.0
C839 C 0.04517 0.86108 0.26424 0.0
H840 H 0.05018 0.63177 0.2695 0.0
H841 H 0.95552 0.68431 0.28762 0.0
H842 H 0.94401 0.65605 0.33911 0.0
H843 H 0.96216 0.61884 0.38037 0.0
H844 H 0.05461 0.56356 0.36241 0.0
H845 H 0.06561 0.59019 0.30923 0.0
C846 C 0.02695 0.63686 0.28467 0.0
C847 C 1.0039 0.66038 0.27485 0.0
C848 C 0.02018 0.6201 0.31421 0.0
C849 C 0.97367 0.66638 0.29454 0.0
C850 C 0.96711 0.6503 0.32406 0.0
C851 C 0.98466 0.61251 0.3647 0.0
C852 C 1.00786 0.58967 0.37531 0.0
C853 C 0.9904 0.62752 0.33432 0.0
C854 C 0.03648 0.58114 0.35465 0.0
C855 C 0.04279 0.59647 0.3244 0.0
H856 H 0.24218 0.99308 0.17328 0.0
H857 H 0.25537 0.09505 0.18649 0.0
H858 H 0.2085 0.10444 0.14977 0.0
H859 H 0.16265 0.08362 0.11511 0.0
H860 H 0.14726 0.98159 0.10475 0.0
H861 H 0.19639 0.97231 0.13884 0.0
C862 C 0.23494 0.01741 0.16808 0.0
C863 C 0.25243 0.04334 0.18268 0.0
C864 C 0.20766 0.0226 0.14728 0.0
C865 C 0.24238 0.07464 0.17576 0.0
C866 C 0.21562 0.08002 0.15466 0.0
C867 C 0.17038 0.05934 0.11989 0.0
C868 C 0.15154 0.0333 0.10703 0.0
C869 C 0.198 0.05419 0.14036 0.0
C870 C 0.16143 1.00202 0.11413 0.0
C871 C 0.18944 0.99672 0.13373 0.0
H872 H 0.78386 0.51728 0.19297 0.0
H873 H 0.80358 0.42547 0.23559 0.0
H874 H 0.8431 0.41265 0.18912 0.0
H875 H 0.87489 0.42848 0.1386 0.0
H876 H 0.85741 0.52002 0.09505 0.0
H877 H 0.81323 0.53164 0.13912 0.0
C878 C 0.79684 0.49448 0.19207 0.0
C879 C 0.79106 0.47253 0.2181 0.0
C880 C 0.81952 0.48708 0.16495 0.0
C881 C 0.80765 0.44289 0.21619 0.0
C882 C 0.83021 0.43548 0.18953 0.0
C883 C 0.86096 0.45081 0.1384 0.0
C884 C 0.86937 0.47342 0.11367 0.0
C885 C 0.8366 0.4575 0.16406 0.0
C886 C 0.85107 0.50211 0.11359 0.0
C887 C 0.82622 0.50887 0.13905 0.0
H888 H 0.28009 0.99753 0.33442 0.0
H889 H 0.24295 0.92087 0.27377 0.0
H890 H 0.19605 0.90852 0.31509 0.0
H891 H 0.16263 0.92322 0.36566 0.0
H892 H 0.20044 0.9991 0.42693 0.0
H893 H 0.25062 1.00797 0.38818 0.0
C894 C 0.26192 0.97787 0.33042 0.0
C895 C 0.26454 0.96038 0.30091 0.0
C896 C 0.23522 0.97099 0.35424 0.0
C897 C 0.24136 0.93463 0.29625 0.0
C898 C 0.21449 0.92774 0.31977 0.0
C899 C 0.18207 0.94151 0.37069 0.0
C900 C 0.17766 0.9609 0.39881 0.0
C901 C 0.21069 0.94633 0.34841 0.0
C902 C 0.20329 0.98402 0.40542 0.0
C903 C 0.23181 0.98915 0.38319 0.0
H904 H 0.79597 0.5023 0.36914 0.0
H905 H 0.79546 0.60043 0.33685 0.0
H906 H 0.84086 0.61446 0.37443 0.0
H907 H 0.88386 0.59772 0.41375 0.0
H908 H 0.88469 0.49892 0.44373 0.0
H909 H 0.83566 0.48644 0.41025 0.0
C910 C 0.80562 0.52683 0.37032 0.0
C911 C 0.79253 0.55018 0.3499 0.0
C912 C 0.83173 0.53465 0.3918 0.0
C913 C 0.80518 0.5819 0.35214 0.0
C914 C 0.83114 0.58995 0.37366 0.0
C915 C 0.87269 0.57368 0.41348 0.0
C916 C 0.88776 0.54928 0.43125 0.0
C917 C 0.84498 0.56642 0.39332 0.0
C918 C 0.87351 0.51808 0.43026 0.0
C919 C 0.84559 0.51089 0.41099 0.0
H920 H 0.23448 0.26016 0.0936 0.0
H921 H 0.15584 0.32781 0.07261 0.0
H922 H 0.11259 0.28444 0.06908 0.0
H923 H 0.10074 0.227 0.06121 0.0
H924 H 0.17968 0.15895 0.08006 0.0
H925 H 0.21941 0.20246 0.09527 0.0
C926 C 0.20743 0.26536 0.08997 0.0
C927 C 0.19798 0.29691 0.08383 0.0
C928 C 0.18321 0.24013 0.08642 0.0
C929 C 0.16327 0.3036 0.07804 0.0
C930 C 0.13876 0.27878 0.07543 0.0
C931 C 0.1265 0.22185 0.06908 0.0
C932 C 0.13776 0.19015 0.06886 0.0
C933 C 0.14899 0.24692 0.07775 0.0
C934 C 0.17077 0.18336 0.07983 0.0
C935 C 0.19341 0.20818 0.08847 0.0
H936 H 0.18693 0.76462 0.44599 0.0
H937 H 0.21479 0.78815 0.54399 0.0
H938 H 0.17861 0.83525 0.54411 0.0
H939 H 0.14072 0.87116 0.51588 0.0
H940 H 0.1109 0.84725 0.41854 0.0
H941 H 0.14545 0.79897 0.41896 0.0
C942 C 0.18502 0.7801 0.4673 0.0
C943 C 0.20371 0.77294 0.49482 0.0
C944 C 0.16356 0.80707 0.4675 0.0
C945 C 0.20063 0.79302 0.52246 0.0
C946 C 0.17994 0.82004 0.5226 0.0
C947 C 0.14139 0.8552 0.49492 0.0
C948 C 0.12326 0.86299 0.46726 0.0
C949 C 0.16141 0.82743 0.49522 0.0
C950 C 0.12445 0.84189 0.44031 0.0
C951 C 0.14444 0.81431 0.44039 0.0
H952 H 0.88347 0.80184 0.55441 0.0
H953 H 0.79031 0.74578 0.54036 0.0
H954 H 0.82499 0.69807 0.52919 0.0
H955 H 0.88224 0.67447 0.51604 0.0
H956 H 0.9755 0.73099 0.52988 0.0
H957 H 0.9406 0.77612 0.5485 0.0
C958 C 0.87088 0.77885 0.55008 0.0
C959 C 0.83455 0.77694 0.54878 0.0
C960 C 0.89107 0.75177 0.54286 0.0
C961 C 0.81831 0.74742 0.54214 0.0
C962 C 0.83815 0.72028 0.53539 0.0
C963 C 0.89496 0.69637 0.5238 0.0
C964 C 0.93151 0.69943 0.52072 0.0
C965 C 0.87464 0.72242 0.53458 0.0
C966 C 0.94743 0.72816 0.53096 0.0
C967 C 0.92749 0.75401 0.54187 0.0
H968 H 0.33759 0.78165 0.50546 0.0
H969 H 0.33644 0.75412 0.60697 0.0
H970 H 0.37766 0.79789 0.61767 0.0
H971 H 0.41226 0.84506 0.59854 0.0
H972 H 0.41083 0.87392 0.49757 0.0
H973 H 0.37253 0.8282 0.48626 0.0
C974 C 0.34644 0.78502 0.52995 0.0
C975 C 0.33387 0.76451 0.5554 0.0
C976 C 0.36972 0.81044 0.53598 0.0
C977 C 0.34556 0.76952 0.58696 0.0
C978 C 0.36917 0.79453 0.59307 0.0
C979 C 0.40393 0.84116 0.57394 0.0
C980 C 0.41459 0.86284 0.54885 0.0
C981 C 0.38123 0.81526 0.5678 0.0
C982 C 0.40311 0.85762 0.51727 0.0
C983 C 0.38114 0.83152 0.51082 0.0
H984 H 0.50383 0.62799 0.74987 0.0
H985 H 0.59847 0.68231 0.72602 0.0
H986 H 0.60044 0.6606 0.67065 0.0
H987 H 0.57459 0.62746 0.62834 0.0
H988 H 0.48247 0.57005 0.65248 0.0
H989 H 0.47994 0.59191 0.70825 0.0
C990 C 0.52507 0.63483 0.73265 0.0
C991 C 0.55092 0.65685 0.74219 0.0
C992 C 0.52621 0.62206 0.70074 0.0
C993 C 0.57832 0.66532 0.71953 0.0
C994 C 0.57935 0.65309 0.68772 0.0
C995 C 0.55375 0.62001 0.64575 0.0
C996 C 0.5283 0.59773 0.63622 0.0
C997 C 0.55322 0.6318 0.67793 0.0
C998 C 0.50208 0.58748 0.65923 0.0
C999 C 0.50074 0.59988 0.69109 0.0
H1000 H 0.49261 0.73772 0.73085 0.0
H1001 H 0.42515 0.77814 0.80688 0.0
H1002 H 0.41856 0.82615 0.77369 0.0
H1003 H 0.44122 0.85984 0.72773 0.0
H1004 H 0.51161 0.81994 0.65362 0.0
H1005 H 0.50801 0.76815 0.68127 0.0
C1006 C 0.47543 0.75663 0.73949 0.0
C1007 C 0.45949 0.75488 0.77102 0.0
C1008 C 0.47325 0.78441 0.72107 0.0
C1009 C 0.43729 0.77913 0.7824 0.0
C1010 C 0.4341 0.80671 0.76371 0.0
C1011 C 0.45563 0.8397 0.71772 0.0
C1012 C 0.47744 0.84364 0.68933 0.0
C1013 C 0.45354 0.81023 0.73386 0.0
C1014 C 0.49505 0.81731 0.67572 0.0
C1015 C 0.49295 0.78782 0.69145 0.0
H1016 H 0.54723 0.23784 0.78641 0.0
H1017 H 0.63418 0.28862 0.73865 0.0
H1018 H 0.63241 0.32888 0.78275 0.0
H1019 H 0.59869 0.35406 0.82932 0.0
H1020 H 0.50693 0.30556 0.87101 0.0
H1021 H 0.51738 0.25989 0.83462 0.0
C1022 C 0.56639 0.25734 0.78618 0.0
C1023 C 0.5906 0.26069 0.75954 0.0
C1024 C 0.56352 0.2811 0.81001 0.0
C1025 C 0.61551 0.28565 0.75923 0.0
C1026 C 0.61405 0.30884 0.78409 0.0
C1027 C 0.58143 0.3332 0.83049 0.0
C1028 C 0.55179 0.33302 0.85214 0.0
C1029 C 0.58702 0.30759 0.80868 0.0
C1030 C 0.5294 0.30616 0.85389 0.0
C1031 C 0.53553 0.28011 0.83335 0.0
H1032 H 0.54687 0.12889 0.75567 0.0
H1033 H 0.45422 0.18349 0.77687 0.0
H1034 H 0.44457 0.15602 0.82913 0.0
H1035 H 0.46423 0.11904 0.8703 0.0
H1036 H 0.55496 0.06218 0.84892 0.0
H1037 H 0.56359 0.0879 0.79517 0.0
C1038 C 0.52433 0.13451 0.77156 0.0
C1039 C 0.5014 0.15842 0.76234 0.0
C1040 C 0.5188 0.11843 0.80165 0.0
C1041 C 0.47221 0.16518 0.78317 0.0
C1042 C 0.46679 0.14961 0.81321 0.0
C1043 C 0.48591 0.11223 0.85385 0.0
C1044 C 0.50932 0.08913 0.86376 0.0
C1045 C 0.49024 0.12666 0.82294 0.0
C1046 C 0.53675 0.08001 0.84191 0.0
C1047 C 0.54167 0.09476 0.81124 0.0
H1048 H 0.73123 0.57191 0.65904 0.0
H1049 H 0.70486 0.47551 0.6898 0.0
H1050 H 0.65919 0.47222 0.65065 0.0
H1051 H 0.62568 0.49719 0.60854 0.0
H1052 H 0.6541 0.59267 0.57558 0.0
H1053 H 0.70027 0.59553 0.61397 0.0
C1054 C 0.71528 0.55033 0.65722 0.0
C1055 C 0.721 0.52417 0.67751 0.0
C1056 C 0.6897 0.54823 0.63391 0.0
C1057 C 0.70074 0.49603 0.67449 0.0
C1058 C 0.6747 0.49408 0.65206 0.0
C1059 C 0.64231 0.51843 0.60937 0.0
C1060 C 0.63624 0.54463 0.58916 0.0
C1061 C 0.66891 0.52003 0.63162 0.0
C1062 C 0.65814 0.572 0.59067 0.0
C1063 C 0.68446 0.57382 0.61287 0.0
H1064 H 0.27757 0.99643 0.69745 0.0
H1065 H 0.29879 0.90482 0.7397 0.0
H1066 H 0.34283 0.89507 0.6957 0.0
H1067 H 0.37834 0.91431 0.64827 0.0
H1068 H 0.35861 1.00588 0.60566 0.0
H1069 H 0.31007 0.01368 0.64645 0.0
C1070 C 0.29171 0.97423 0.69699 0.0
C1071 C 0.28521 0.95153 0.72223 0.0
C1072 C 0.31701 0.96879 0.67152 0.0
C1073 C 0.30336 0.92272 0.72084 0.0
C1074 C 0.32855 0.91717 0.69566 0.0
C1075 C 0.36311 0.93586 0.6476 0.0
C1076 C 0.37218 0.95969 0.62419 0.0
C1077 C 0.33598 0.94027 0.67132 0.0
C1078 C 0.35201 0.9872 0.6233 0.0
C1079 C 0.32455 0.99172 0.64684 0.0
H1080 H 0.7598 0.49058 0.8334 0.0
H1081 H 0.72549 0.41004 0.77647 0.0
H1082 H 0.68314 0.39468 0.82107 0.0
H1083 H 0.65197 0.40815 0.87323 0.0
H1084 H 0.6865 0.48907 0.92977 0.0
H1085 H 0.73335 0.50025 0.88823 0.0
C1086 C 0.74328 0.46941 0.83096 0.0
C1087 C 0.74513 0.45166 0.80166 0.0
C1088 C 0.71911 0.46108 0.8564 0.0
C1089 C 0.72432 0.42399 0.79884 0.0
C1090 C 0.70005 0.41542 0.8242 0.0
C1091 C 0.66995 0.42809 0.87661 0.0
C1092 C 0.66547 0.4482 0.9042 0.0
C1093 C 0.69656 0.4344 0.85261 0.0
C1094 C 0.68934 0.47345 0.90866 0.0
C1095 C 0.71597 0.47989 0.88488 0.0
H1096 H 0.30723 0.98106 0.85226 0.0
H1097 H 0.28808 0.08184 0.84199 0.0
H1098 H 0.33625 0.09465 0.87695 0.0
H1099 H 0.38486 0.07709 0.90917 0.0
H1100 H 0.40516 0.97626 0.91671 0.0
H1101 H 0.3551 0.9636 0.88434 0.0
C1102 C 0.31341 1.00589 0.85769 0.0
C1103 C 0.29394 0.03046 0.84446 0.0
C1104 C 0.34126 0.01303 0.87748 0.0
C1105 C 0.30262 0.06245 0.85171 0.0
C1106 C 0.33012 0.06977 0.87178 0.0
C1107 C 0.37802 0.05232 0.90412 0.0
C1108 C 0.39857 0.0276 0.91562 0.0
C1109 C 0.3497 0.04525 0.88471 0.0
C1110 C 0.38974 0.99569 0.9083 0.0
C1111 C 0.36118 0.98845 0.8897 0.0
H1112 H 0.7014 0.77551 0.54166 0.0
H1113 H 0.71248 0.78187 0.43641 0.0
H1114 H 0.67144 0.73656 0.43181 0.0
H1115 H 0.63328 0.69485 0.45806 0.0
H1116 H 0.62278 0.68975 0.56338 0.0
H1117 H 0.66347 0.73485 0.56753 0.0
C1118 C 0.69489 0.76718 0.51758 0.0
C1119 C 0.70999 0.78215 0.48937 0.0
C1120 C 0.67163 0.74124 0.5152 0.0
C1121 C 0.7012 0.77083 0.45849 0.0
C1122 C 0.67779 0.74492 0.45589 0.0
C1123 C 0.6396 0.70379 0.48192 0.0
C1124 C 0.62494 0.68887 0.51041 0.0
C1125 C 0.66292 0.72993 0.48412 0.0
C1126 C 0.63397 0.70044 0.54111 0.0
C1127 C 0.65707 0.72638 0.5435 0.0
H1128 H 0.70931 0.27962 0.0293 0.0
H1129 H 0.71142 0.25504 0.9268 0.0
H1130 H 0.66852 0.29625 0.91779 0.0
H1131 H 0.63137 0.33994 0.939 0.0
H1132 H 0.63261 0.36654 0.04081 0.0
H1133 H 0.67297 0.32341 0.05028 0.0
C1134 C 0.70037 0.28315 1.00494 0.0
C1135 C 0.71353 0.26414 0.97874 0.0
C1136 C 0.67611 0.30707 0.99993 0.0
C1137 C 0.70186 0.26937 0.94734 0.0
C1138 C 0.67722 0.29284 0.94223 0.0
C1139 C 0.64006 0.33596 0.96338 0.0
C1140 C 0.62861 0.35612 0.98934 0.0
C1141 C 0.66418 0.31183 0.96836 0.0
C1142 C 0.6408 0.3512 0.02056 0.0
C1143 C 0.66398 0.32665 0.02592 0.0
H1144 H 0.33175 0.27458 0.94967 0.0
H1145 H 0.30029 0.25837 0.05115 0.0
H1146 H 0.33566 0.211 0.05186 0.0
H1147 H 0.37976 0.1772 0.02588 0.0
H1148 H 0.41362 0.19183 0.92521 0.0
H1149 H 0.37294 0.23634 0.92159 0.0
C1150 C 0.33233 0.26031 0.97167 0.0
C1151 C 0.31391 0.2703 1.00047 0.0
C1152 C 0.35336 0.23298 0.97213 0.0
C1153 C 0.31476 0.25157 0.02884 0.0
C1154 C 0.33493 0.2244 0.02931 0.0
C1155 C 0.37798 0.19003 1.0031 0.0
C1156 C 0.39984 0.18178 0.97604 0.0
C1157 C 0.35506 0.21546 1.00147 0.0
C1158 C 0.39695 0.19797 0.94636 0.0
C1159 C 0.37388 0.22346 0.94442 0.0
H1160 H 0.84177 0.28244 1.00236 0.0
H1161 H 0.83598 0.26226 0.10576 0.0
H1162 H 0.87421 0.30874 0.11519 0.0
H1163 H 0.90803 0.35592 0.09396 0.0
H1164 H 0.91051 0.37698 0.99079 0.0
H1165 H 0.875 0.32902 0.98134 0.0
C1166 C 0.84894 0.28799 0.02702 0.0
C1167 C 0.83606 0.26873 0.05333 0.0
C1168 C 0.87042 0.31489 0.03224 0.0
C1169 C 0.84544 0.27665 0.08509 0.0
C1170 C 0.86735 0.30319 0.09046 0.0
C1171 C 0.90111 0.3498 0.06935 0.0
C1172 C 0.91214 0.3699 0.04303 0.0
C1173 C 0.87989 0.32256 0.06421 0.0
C1174 C 0.90246 0.36192 1.01141 0.0
C1175 C 0.8821 0.33453 1.00601 0.0
loop_
_geom_bond_atom_site_label_1
_geom_bond_atom_site_label_2
_geom_bond_distance
_geom_bond_site_symmetry_2
_ccdc_geom_bond_type
C0 O2 1.247 . S
C0 O4 1.258 . S
C1 O8 1.247 1_455 S
C1 O9 1.258 . S
O2 C0 1.247 . S
O2 Zn3 2.028 . S
Zn3 O2 2.028 . S
Zn3 O7 2.035 . S
Zn3 O9 2.035 . S
Zn3 O10 2.028 . S
O4 C0 1.258 . S
O4 Zn5 2.035 1_455 S
Zn5 O4 2.035 1_655 S
Zn5 O6 2.028 . S
Zn5 O8 2.028 . S
Zn5 O11 2.035 1_655 S
O6 Zn5 2.028 . S
O6 C12 1.247 1_655 S
O7 Zn3 2.035 . S
O7 C12 1.258 . S
O8 C1 1.247 1_655 S
O8 Zn5 2.028 . S
O9 C1 1.258 . S
O9 Zn3 2.035 . S
O10 Zn3 2.028 . S
O10 C13 1.247 . S
O11 Zn5 2.035 1_455 S
O11 C13 1.258 . S
C12 O6 1.247 1_455 S
C12 O7 1.258 . S
C13 O10 1.247 . S
C13 O11 1.258 . S
C14 O16 1.247 . S
C14 O18 1.258 1_455 S
C15 O22 1.247 . S
C15 O23 1.258 1_655 S
O16 C14 1.247 . S
O16 Zn17 2.028 . S
Zn17 O16 2.028 . S
Zn17 O21 2.035 . S
Zn17 O23 2.035 . S
Zn17 O24 2.028 . S
O18 C14 1.258 1_655 S
O18 Zn19 2.035 . S
Zn19 O18 2.035 . S
Zn19 O20 2.028 . S
Zn19 O22 2.028 . S
Zn19 O25 2.035 . S
O20 Zn19 2.028 . S
O20 C26 1.247 1_655 S
O21 Zn17 2.035 . S
O21 C26 1.258 . S
O22 C15 1.247 . S
O22 Zn19 2.028 . S
O23 C15 1.258 1_455 S
O23 Zn17 2.035 . S
O24 Zn17 2.028 . S
O24 C27 1.247 . S
O25 Zn19 2.035 . S
O25 C27 1.258 1_655 S
C26 O20 1.247 1_455 S
C26 O21 1.258 . S
C27 O24 1.247 . S
C27 O25 1.258 1_455 S
C28 O30 1.247 1_545 S
C28 O32 1.258 . S
C29 O36 1.247 1_565 S
C29 O37 1.258 . S
O30 C28 1.247 1_565 S
O30 Zn31 2.028 . S
Zn31 O30 2.028 . S
Zn31 O35 2.035 . S
Zn31 O37 2.035 . S
Zn31 O38 2.028 . S
O32 C28 1.258 . S
O32 Zn33 2.035 . S
Zn33 O32 2.035 . S
Zn33 O34 2.028 . S
Zn33 O36 2.028 . S
Zn33 O39 2.035 . S
O34 Zn33 2.028 . S
O34 C40 1.247 1_545 S
O35 Zn31 2.035 . S
O35 C40 1.258 . S
O36 C29 1.247 1_545 S
O36 Zn33 2.028 . S
O37 C29 1.258 . S
O37 Zn31 2.035 . S
O38 Zn31 2.028 . S
O38 C41 1.247 1_565 S
O39 Zn33 2.035 . S
O39 C41 1.258 . S
C40 O34 1.247 1_565 S
C40 O35 1.258 . S
C41 O38 1.247 1_545 S
C41 O39 1.258 . S
C42 O44 1.247 . S
C42 O46 1.258 . S
C43 O50 1.247 . S
C43 O51 1.258 . S
O44 C42 1.247 . S
O44 Zn45 2.028 . S
Zn45 O44 2.028 . S
Zn45 O49 2.035 . S
Zn45 O51 2.035 . S
Zn45 O52 2.028 . S
O46 C42 1.258 . S
O46 Zn47 2.035 . S
Zn47 O46 2.035 . S
Zn47 O48 2.028 . S
Zn47 O50 2.028 . S
Zn47 O53 2.035 . S
O48 Zn47 2.028 . S
O48 C54 1.247 . S
O49 Zn45 2.035 . S
O49 C54 1.258 . S
O50 C43 1.247 . S
O50 Zn47 2.028 . S
O51 C43 1.258 . S
O51 Zn45 2.035 . S
O52 Zn45 2.028 . S
O52 C55 1.247 . S
O53 Zn47 2.035 . S
O53 C55 1.258 . S
C54 O48 1.247 . S
C54 O49 1.258 . S
C55 O52 1.247 . S
C55 O53 1.258 . S
C56 O58 1.247 1_554 S
C56 O60 1.258 . S
C57 O64 1.247 . S
C57 O65 1.258 1_554 S
O58 C56 1.247 1_556 S
O58 Zn59 2.028 . S
Zn59 O58 2.028 . S
Zn59 O63 2.035 . S
Zn59 O65 2.035 . S
Zn59 O66 2.028 . S
O60 C56 1.258 . S
O60 Zn61 2.035 . S
Zn61 O60 2.035 . S
Zn61 O62 2.028 . S
Zn61 O64 2.028 . S
Zn61 O67 2.035 . S
O62 Zn61 2.028 . S
O62 C68 1.247 . S
O63 Zn59 2.035 . S
O63 C68 1.258 1_556 S
O64 C57 1.247 . S
O64 Zn61 2.028 . S
O65 C57 1.258 1_556 S
O65 Zn59 2.035 . S
O66 Zn59 2.028 . S
O66 C69 1.247 1_556 S
O67 Zn61 2.035 . S
O67 C69 1.258 . S
C68 O62 1.247 . S
C68 O63 1.258 1_554 S
C69 O66 1.247 1_554 S
C69 O67 1.258 . S
C70 O72 1.247 . S
C70 O74 1.258 . S
C71 O78 1.247 . S
C71 O79 1.258 . S
O72 C70 1.247 . S
O72 Zn73 2.028 . S
Zn73 O72 2.028 . S
Zn73 O77 2.035 . S
Zn73 O79 2.035 . S
Zn73 O80 2.028 . S
O74 C70 1.258 . S
O74 Zn75 2.035 . S
Zn75 O74 2.035 . S
Zn75 O76 2.028 . S
Zn75 O78 2.028 . S
Zn75 O81 2.035 . S
O76 Zn75 2.028 . S
O76 C82 1.247 . S
O77 Zn73 2.035 . S
O77 C82 1.258 . S
O78 C71 1.247 . S
O78 Zn75 2.028 . S
O79 C71 1.258 . S
O79 Zn73 2.035 . S
O80 Zn73 2.028 . S
O80 C83 1.247 . S
O81 Zn75 2.035 . S
O81 C83 1.258 . S
C82 O76 1.247 . S
C82 O77 1.258 . S
C83 O80 1.247 . S
C83 O81 1.258 . S
C84 O86 1.247 . S
C84 O88 1.258 . S
C85 O92 1.247 . S
C85 O93 1.258 . S
O86 C84 1.247 . S
O86 Zn87 2.028 . S
Zn87 O86 2.028 . S
Zn87 O91 2.035 . S
Zn87 O93 2.035 . S
Zn87 O94 2.028 . S
O88 C84 1.258 . S
O88 Zn89 2.035 . S
Zn89 O88 2.035 . S
Zn89 O90 2.028 . S
Zn89 O92 2.028 . S
Zn89 O95 2.035 . S
O90 Zn89 2.028 . S
O90 C96 1.247 . S
O91 Zn87 2.035 . S
O91 C96 1.258 . S
O92 C85 1.247 . S
O92 Zn89 2.028 . S
O93 C85 1.258 . S
O93 Zn87 2.035 . S
O94 Zn87 2.028 . S
O94 C97 1.247 . S
O95 Zn89 2.035 . S
O95 C97 1.258 . S
C96 O90 1.247 . S
C96 O91 1.258 . S
C97 O94 1.247 . S
C97 O95 1.258 . S
C98 O100 1.247 . S
C98 O102 1.258 . S
C99 O106 1.247 . S
C99 O107 1.258 . S
O100 C98 1.247 . S
O100 Zn101 2.028 . S
Zn101 O100 2.028 . S
Zn101 O105 2.035 . S
Zn101 O107 2.035 . S
Zn101 O108 2.028 . S
O102 C98 1.258 . S
O102 Zn103 2.035 . S
Zn103 O102 2.035 . S
Zn103 O104 2.028 . S
Zn103 O106 2.028 . S
Zn103 O109 2.035 . S
O104 Zn103 2.028 . S
O104 C110 1.247 . S
O105 Zn101 2.035 . S
O105 C110 1.258 . S
O106 C99 1.247 . S
O106 Zn103 2.028 . S
O107 C99 1.258 . S
O107 Zn101 2.035 . S
O108 Zn101 2.028 . S
O108 C111 1.247 . S
O109 Zn103 2.035 . S
O109 C111 1.258 . S
C110 O104 1.247 . S
C110 O105 1.258 . S
C111 O108 1.247 . S
C111 O109 1.258 . S
C112 O114 1.247 . S
C112 O116 1.258 . S
C113 O120 1.247 . S
C113 O121 1.258 . S
O114 C112 1.247 . S
O114 Zn115 2.028 . S
Zn115 O114 2.028 . S
Zn115 O119 2.035 . S
Zn115 O121 2.035 . S
Zn115 O122 2.028 . S
O116 C112 1.258 . S
O116 Zn117 2.035 . S
Zn117 O116 2.035 . S
Zn117 O118 2.028 . S
Zn117 O120 2.028 . S
Zn117 O123 2.035 . S
O118 Zn117 2.028 . S
O118 C124 1.247 . S
O119 Zn115 2.035 . S
O119 C124 1.258 . S
O120 C113 1.247 . S
O120 Zn117 2.028 . S
O121 C113 1.258 . S
O121 Zn115 2.035 . S
O122 Zn115 2.028 . S
O122 C125 1.247 . S
O123 Zn117 2.035 . S
O123 C125 1.258 . S
C124 O118 1.247 . S
C124 O119 1.258 . S
C125 O122 1.247 . S
C125 O123 1.258 . S
C126 O128 1.247 . S
C126 O130 1.258 . S
C127 O134 1.247 . S
C127 O135 1.258 . S
O128 C126 1.247 . S
O128 Zn129 2.028 . S
Zn129 O128 2.028 . S
Zn129 O133 2.035 . S
Zn129 O135 2.035 . S
Zn129 O136 2.028 . S
O130 C126 1.258 . S
O130 Zn131 2.035 . S
Zn131 O130 2.035 . S
Zn131 O132 2.028 . S
Zn131 O134 2.028 . S
Zn131 O137 2.035 . S
O132 Zn131 2.028 . S
O132 C138 1.247 . S
O133 Zn129 2.035 . S
O133 C138 1.258 . S
O134 C127 1.247 . S
O134 Zn131 2.028 . S
O135 C127 1.258 . S
O135 Zn129 2.035 . S
O136 Zn129 2.028 . S
O136 C139 1.247 . S
O137 Zn131 2.035 . S
O137 C139 1.258 . S
C138 O132 1.247 . S
C138 O133 1.258 . S
C139 O136 1.247 . S
C139 O137 1.258 . S
C140 O142 1.247 . S
C140 O144 1.258 1_565 S
C141 O148 1.247 . S
C141 O149 1.258 1_545 S
O142 C140 1.247 . S
O142 Zn143 2.028 . S
Zn143 O142 2.028 . S
Zn143 O147 2.035 . S
Zn143 O149 2.035 . S
Zn143 O150 2.028 . S
O144 C140 1.258 1_545 S
O144 Zn145 2.035 . S
Zn145 O144 2.035 . S
Zn145 O146 2.028 . S
Zn145 O148 2.028 . S
Zn145 O151 2.035 . S
O146 Zn145 2.028 . S
O146 C152 1.247 . S
O147 Zn143 2.035 . S
O147 C152 1.258 1_565 S
O148 C141 1.247 . S
O148 Zn145 2.028 . S
O149 C141 1.258 1_565 S
O149 Zn143 2.035 . S
O150 Zn143 2.028 . S
O150 C153 1.247 . S
O151 Zn145 2.035 . S
O151 C153 1.258 1_545 S
C152 O146 1.247 . S
C152 O147 1.258 1_545 S
C153 O150 1.247 . S
C153 O151 1.258 1_565 S
C154 O156 1.247 . S
C154 O158 1.258 1_554 S
C155 O162 1.247 1_554 S
C155 O163 1.258 . S
O156 C154 1.247 . S
O156 Zn157 2.028 . S
Zn157 O156 2.028 . S
Zn157 O161 2.035 . S
Zn157 O163 2.035 . S
Zn157 O164 2.028 . S
O158 C154 1.258 1_556 S
O158 Zn159 2.035 . S
Zn159 O158 2.035 . S
Zn159 O160 2.028 . S
Zn159 O162 2.028 . S
Zn159 O165 2.035 . S
O160 Zn159 2.028 . S
O160 C166 1.247 1_556 S
O161 Zn157 2.035 . S
O161 C166 1.258 . S
O162 C155 1.247 1_556 S
O162 Zn159 2.028 . S
O163 C155 1.258 . S
O163 Zn157 2.035 . S
O164 Zn157 2.028 . S
O164 C167 1.247 . S
O165 Zn159 2.035 . S
O165 C167 1.258 1_556 S
C166 O160 1.247 1_554 S
C166 O161 1.258 . S
C167 O164 1.247 . S
C167 O165 1.258 1_554 S
Co168 N173 2.057 1_445 S
Co168 O185 2.021 1_545 S
Co168 O188 2.062 . S
Co168 O192 2.117 . S
Co168 O193 2.020 1_455 S
C169 O189 1.259 . S
C169 O192 1.258 . S
Co170 N179 2.057 . S
Co170 O186 2.124 . S
Co170 O187 2.020 . S
Co170 O189 2.021 . S
Co170 O194 2.062 . S
C171 N173 1.317 . S
C171 N174 1.350 . S
C171 H176 0.927 1_655 S
C172 N173 1.375 . S
C172 C175 1.350 . S
C172 H177 0.930 . S
N173 Co168 2.057 1_665 S
N173 C171 1.317 . S
N173 C172 1.375 . S
N174 C171 1.350 . S
N174 C175 1.373 . S
C175 C172 1.350 . S
C175 N174 1.373 . S
C175 H196 0.931 . S
H176 C171 0.927 1_455 S
H177 C172 0.930 . S
C178 O185 1.259 1_546 S
C178 O186 1.256 1_556 S
N179 Co170 2.057 . S
N179 C180 1.316 . S
N179 C181 1.375 1_554 S
C180 N179 1.316 . S
C180 N182 1.347 . S
C180 H191 0.931 . S
C181 N179 1.375 1_556 S
C181 C183 1.350 . S
C181 H190 0.930 . S
N182 C180 1.347 . S
N182 C183 1.373 1_554 S
C183 C181 1.350 . S
C183 N182 1.373 1_556 S
C183 H197 0.931 . S
C184 O187 1.256 . S
C184 O188 1.255 . S
O185 Co168 2.021 1_565 S
O185 C178 1.259 1_564 S
O186 Co170 2.124 . S
O186 C178 1.256 1_554 S
O187 Co170 2.020 . S
O187 C184 1.256 . S
O188 Co168 2.062 . S
O188 C184 1.255 . S
O189 C169 1.259 . S
O189 Co170 2.021 . S
H190 C181 0.930 . S
H191 C180 0.931 . S
O192 Co168 2.117 . S
O192 C169 1.258 . S
O193 Co168 2.020 1_655 S
O193 C195 1.256 . S
O194 Co170 2.062 . S
O194 C195 1.255 1_455 S
C195 O193 1.256 . S
C195 O194 1.255 1_655 S
H196 C175 0.931 . S
H197 C183 0.931 . S
Co198 N203 2.057 . S
Co198 O215 2.021 . S
Co198 O218 2.064 . S
Co198 O222 2.117 . S
Co198 O223 2.020 . S
C199 O219 1.259 . S
C199 O222 1.258 . S
Co200 N209 2.057 1_554 S
Co200 O216 2.117 . S
Co200 O217 2.020 . S
Co200 O219 2.021 . S
Co200 O224 2.062 . S
C201 N203 1.316 . S
C201 N204 1.347 . S
C201 H206 0.931 . S
C202 N203 1.375 . S
C202 C205 1.350 1_655 S
C202 H207 0.930 . S
N203 Co198 2.057 . S
N203 C201 1.316 . S
N203 C202 1.375 . S
N204 C201 1.347 . S
N204 C205 1.373 1_655 S
C205 C202 1.350 1_455 S
C205 N204 1.373 1_455 S
C205 H226 0.931 . S
H206 C201 0.931 . S
H207 C202 0.930 . S
C208 O215 1.259 . S
C208 O216 1.258 . S
N209 Co200 2.057 1_556 S
N209 C210 1.316 . S
N209 C211 1.375 . S
C210 N209 1.316 . S
C210 N212 1.347 . S
C210 H221 0.931 . S
C211 N209 1.375 . S
C211 C213 1.350 . S
C211 H220 0.930 . S
N212 C210 1.347 . S
N212 C213 1.373 . S
C213 C211 1.350 . S
C213 N212 1.373 . S
C213 H227 0.931 . S
C214 O217 1.256 1_455 S
C214 O218 1.254 1_455 S
O215 Co198 2.021 . S
O215 C208 1.259 . S
O216 Co200 2.117 . S
O216 C208 1.258 . S
O217 Co200 2.020 . S
O217 C214 1.256 1_655 S
O218 Co198 2.064 . S
O218 C214 1.254 1_655 S
O219 C199 1.259 . S
O219 Co200 2.021 . S
H220 C211 0.930 . S
H221 C210 0.931 . S
O222 Co198 2.117 . S
O222 C199 1.258 . S
O223 Co198 2.020 . S
O223 C225 1.256 . S
O224 Co200 2.062 . S
O224 C225 1.255 . S
C225 O223 1.256 . S
C225 O224 1.255 . S
H226 C205 0.931 . S
H227 C213 0.931 . S
Co228 N233 2.057 . S
Co228 O245 2.021 . S
Co228 O248 2.062 . S
Co228 O252 2.117 . S
Co228 O253 2.020 . S
C229 O249 1.259 . S
C229 O252 1.258 . S
Co230 N239 2.057 . S
Co230 O246 2.117 . S
Co230 O247 2.020 . S
Co230 O249 2.021 . S
Co230 O254 2.062 . S
C231 N233 1.316 . S
C231 N234 1.347 . S
C231 H236 0.931 . S
C232 N233 1.375 . S
C232 C235 1.350 1_565 S
C232 H237 0.930 . S
N233 Co228 2.057 . S
N233 C231 1.316 . S
N233 C232 1.375 . S
N234 C231 1.347 . S
N234 C235 1.373 1_565 S
C235 C232 1.350 1_545 S
C235 N234 1.373 1_545 S
C235 H256 0.931 . S
H236 C231 0.931 . S
H237 C232 0.930 . S
C238 O245 1.259 1_655 S
C238 O246 1.258 1_655 S
N239 Co230 2.057 . S
N239 C240 1.316 . S
N239 C241 1.375 1_455 S
C240 N239 1.316 . S
C240 N242 1.347 . S
C240 H251 0.931 . S
C241 N239 1.375 1_655 S
C241 C243 1.350 . S
C241 H250 0.930 . S
N242 C240 1.347 . S
N242 C243 1.373 1_455 S
C243 C241 1.350 . S
C243 N242 1.373 1_655 S
C243 H257 0.931 . S
C244 O247 1.256 . S
C244 O248 1.255 . S
O245 Co228 2.021 . S
O245 C238 1.259 1_455 S
O246 Co230 2.117 . S
O246 C238 1.258 1_455 S
O247 Co230 2.020 . S
O247 C244 1.256 . S
O248 Co228 2.062 . S
O248 C244 1.255 . S
O249 C229 1.259 . S
O249 Co230 2.021 . S
H250 C241 0.930 . S
H251 C240 0.931 . S
O252 Co228 2.117 . S
O252 C229 1.258 . S
O253 Co228 2.020 . S
O253 C255 1.256 . S
O254 Co230 2.062 . S
O254 C255 1.255 . S
C255 O253 1.256 . S
C255 O254 1.255 . S
H256 C235 0.931 . S
H257 C243 0.931 . S
Co258 N263 2.057 . S
Co258 O275 2.021 . S
Co258 O278 2.062 . S
Co258 O282 2.117 . S
Co258 O283 2.020 . S
C259 O279 1.259 . S
C259 O282 1.258 1_455 S
Co260 N269 2.057 . S
Co260 O276 2.117 . S
Co260 O277 2.020 . S
Co260 O279 2.021 1_655 S
Co260 O284 2.062 . S
C261 N263 1.316 . S
C261 N264 1.347 . S
C261 H266 0.931 . S
C262 N263 1.375 . S
C262 C265 1.350 . S
C262 H267 0.930 . S
N263 Co258 2.057 . S
N263 C261 1.316 . S
N263 C262 1.375 . S
N264 C261 1.347 . S
N264 C265 1.373 . S
C265 C262 1.350 . S
C265 N264 1.373 . S
C265 H286 0.931 . S
H266 C261 0.931 . S
H267 C262 0.930 . S
C268 O275 1.259 . S
C268 O276 1.258 . S
N269 Co260 2.057 . S
N269 C270 1.316 1_655 S
N269 C271 1.375 . S
C270 N269 1.316 1_455 S
C270 N272 1.347 . S
C270 H281 0.931 . S
C271 N269 1.375 . S
C271 C273 1.350 . S
C271 H280 0.930 . S
N272 C270 1.347 . S
N272 C273 1.373 1_455 S
C273 C271 1.350 . S
C273 N272 1.373 1_655 S
C273 H287 0.931 . S
C274 O277 1.256 . S
C274 O278 1.255 . S
O275 Co258 2.021 . S
O275 C268 1.259 . S
O276 Co260 2.117 . S
O276 C268 1.258 . S
O277 Co260 2.020 . S
O277 C274 1.256 . S
O278 Co258 2.062 . S
O278 C274 1.255 . S
O279 C259 1.259 . S
O279 Co260 2.021 1_455 S
H280 C271 0.930 . S
H281 C270 0.931 . S
O282 Co258 2.117 . S
O282 C259 1.258 1_655 S
O283 Co258 2.020 . S
O283 C285 1.256 . S
O284 Co260 2.062 . S
O284 C285 1.255 . S
C285 O283 1.256 . S
C285 O284 1.255 . S
H286 C265 0.931 . S
H287 C273 0.931 . S
Co288 N293 2.057 . S
Co288 O305 2.021 . S
Co288 O308 2.062 . S
Co288 O312 2.117 . S
Co288 O313 2.020 . S
C289 O309 1.259 . S
C289 O312 1.258 . S
Co290 N299 2.057 . S
Co290 O306 2.117 . S
Co290 O307 2.020 . S
Co290 O309 2.021 . S
Co290 O314 2.062 . S
C291 N293 1.316 . S
C291 N294 1.347 . S
C291 H296 0.931 . S
C292 N293 1.375 . S
C292 C295 1.350 . S
C292 H297 0.930 . S
N293 Co288 2.057 . S
N293 C291 1.316 . S
N293 C292 1.375 . S
N294 C291 1.347 . S
N294 C295 1.373 . S
C295 C292 1.350 . S
C295 N294 1.373 . S
C295 H316 0.931 . S
H296 C291 0.931 . S
H297 C292 0.930 . S
C298 O305 1.259 . S
C298 O306 1.258 . S
N299 Co290 2.057 . S
N299 C300 1.316 . S
N299 C301 1.375 . S
C300 N299 1.316 . S
C300 N302 1.347 . S
C300 H311 0.931 1_565 S
C301 N299 1.375 . S
C301 C303 1.350 . S
C301 H310 0.930 . S
N302 C300 1.347 . S
N302 C303 1.373 . S
C303 C301 1.350 . S
C303 N302 1.373 . S
C303 H317 0.931 . S
C304 O307 1.256 . S
C304 O308 1.255 . S
O305 Co288 2.021 . S
O305 C298 1.259 . S
O306 Co290 2.117 . S
O306 C298 1.258 . S
O307 Co290 2.020 . S
O307 C304 1.256 . S
O308 Co288 2.062 . S
O308 C304 1.255 . S
O309 C289 1.259 . S
O309 Co290 2.021 . S
H310 C301 0.930 . S
H311 C300 0.931 1_545 S
O312 Co288 2.117 . S
O312 C289 1.258 . S
O313 Co288 2.020 . S
O313 C315 1.256 . S
O314 Co290 2.062 . S
O314 C315 1.255 . S
C315 O313 1.256 . S
C315 O314 1.255 . S
H316 C295 0.931 . S
H317 C303 0.931 . S
Co318 N323 2.057 . S
Co318 O335 2.021 . S
Co318 O338 2.062 . S
Co318 O342 2.117 . S
Co318 O343 2.020 . S
C319 O339 1.259 . S
C319 O342 1.258 . S
Co320 N329 2.057 . S
Co320 O336 2.117 . S
Co320 O337 2.020 . S
Co320 O339 2.021 . S
Co320 O344 2.062 . S
C321 N323 1.316 . S
C321 N324 1.347 . S
C321 H326 0.931 . S
C322 N323 1.375 . S
C322 C325 1.350 . S
C322 H327 0.930 . S
N323 Co318 2.057 . S
N323 C321 1.316 . S
N323 C322 1.375 . S
N324 C321 1.347 . S
N324 C325 1.373 . S
C325 C322 1.350 . S
C325 N324 1.373 . S
C325 H346 0.931 . S
H326 C321 0.931 . S
H327 C322 0.930 . S
C328 O335 1.259 . S
C328 O336 1.258 . S
N329 Co320 2.057 . S
N329 C330 1.316 . S
N329 C331 1.375 . S
C330 N329 1.316 . S
C330 N332 1.347 . S
C330 H341 0.931 . S
C331 N329 1.375 . S
C331 C333 1.350 . S
C331 H340 0.930 . S
N332 C330 1.347 . S
N332 C333 1.373 . S
C333 C331 1.350 . S
C333 N332 1.373 . S
C333 H347 0.931 . S
C334 O337 1.256 . S
C334 O338 1.255 . S
O335 Co318 2.021 . S
O335 C328 1.259 . S
O336 Co320 2.117 . S
O336 C328 1.258 . S
O337 Co320 2.020 . S
O337 C334 1.256 . S
O338 Co318 2.062 . S
O338 C334 1.255 . S
O339 C319 1.259 . S
O339 Co320 2.021 . S
H340 C331 0.930 . S
H341 C330 0.931 . S
O342 Co318 2.117 . S
O342 C319 1.258 . S
O343 Co318 2.020 . S
O343 C345 1.256 . S
O344 Co320 2.062 . S
O344 C345 1.255 . S
C345 O343 1.256 . S
C345 O344 1.255 . S
H346 C325 0.931 . S
H347 C333 0.931 . S
Co348 N353 2.057 1_556 S
Co348 O365 2.021 . S
Co348 O368 2.062 . S
Co348 O372 2.117 . S
Co348 O373 2.020 . S
C349 O369 1.259 . S
C349 O372 1.258 . S
Co350 N359 2.057 . S
Co350 O366 2.117 . S
Co350 O367 2.020 . S
Co350 O369 2.021 . S
Co350 O374 2.062 . S
C351 N353 1.316 . S
C351 N354 1.347 . S
C351 H356 0.931 . S
C352 N353 1.375 . S
C352 C355 1.350 . S
C352 H357 0.930 1_554 S
N353 Co348 2.057 1_554 S
N353 C351 1.316 . S
N353 C352 1.375 . S
N354 C351 1.347 . S
N354 C355 1.373 . S
C355 C352 1.350 . S
C355 N354 1.373 . S
C355 H376 0.931 . S
H356 C351 0.931 . S
H357 C352 0.930 1_556 S
C358 O365 1.259 . S
C358 O366 1.258 . S
N359 Co350 2.057 . S
N359 C360 1.316 . S
N359 C361 1.375 . S
C360 N359 1.316 . S
C360 N362 1.347 . S
C360 H371 0.931 . S
C361 N359 1.375 . S
C361 C363 1.350 . S
C361 H370 0.930 . S
N362 C360 1.347 . S
N362 C363 1.373 . S
C363 C361 1.350 . S
C363 N362 1.373 . S
C363 H377 0.931 . S
C364 O367 1.256 . S
C364 O368 1.255 . S
O365 Co348 2.021 . S
O365 C358 1.259 . S
O366 Co350 2.117 . S
O366 C358 1.258 . S
O367 Co350 2.020 . S
O367 C364 1.256 . S
O368 Co348 2.062 . S
O368 C364 1.255 . S
O369 C349 1.259 . S
O369 Co350 2.021 . S
H370 C361 0.930 . S
H371 C360 0.931 . S
O372 Co348 2.117 . S
O372 C349 1.258 . S
O373 Co348 2.020 . S
O373 C375 1.256 . S
O374 Co350 2.062 . S
O374 C375 1.255 . S
C375 O373 1.256 . S
C375 O374 1.255 . S
H376 C355 0.931 . S
H377 C363 0.931 . S
Co378 N383 2.057 . S
Co378 O395 2.021 . S
Co378 O398 2.062 1_556 S
Co378 O402 2.117 . S
Co378 O403 2.020 . S
C379 O399 1.259 . S
C379 O402 1.258 . S
Co380 N389 2.057 1_545 S
Co380 O396 2.117 . S
Co380 O397 2.020 . S
Co380 O399 2.021 . S
Co380 O404 2.062 . S
C381 N383 1.316 . S
C381 N384 1.347 . S
C381 H386 0.931 . S
C382 N383 1.375 . S
C382 C385 1.350 1_556 S
C382 H387 0.930 . S
N383 Co378 2.057 . S
N383 C381 1.316 . S
N383 C382 1.375 . S
N384 C381 1.347 . S
N384 C385 1.373 1_556 S
C385 C382 1.350 1_554 S
C385 N384 1.373 1_554 S
C385 H406 0.931 . S
H386 C381 0.931 . S
H387 C382 0.930 . S
C388 O395 1.259 . S
C388 O396 1.258 . S
N389 Co380 2.057 1_565 S
N389 C390 1.316 . S
N389 C391 1.375 . S
C390 N389 1.316 . S
C390 N392 1.347 . S
C390 H401 0.931 . S
C391 N389 1.375 . S
C391 C393 1.350 . S
C391 H400 0.930 . S
N392 C390 1.347 . S
N392 C393 1.373 . S
C393 C391 1.350 . S
C393 N392 1.373 . S
C393 H407 0.931 . S
C394 O397 1.256 1_554 S
C394 O398 1.255 . S
O395 Co378 2.021 . S
O395 C388 1.259 . S
O396 Co380 2.117 . S
O396 C388 1.258 . S
O397 Co380 2.020 . S
O397 C394 1.256 1_556 S
O398 Co378 2.062 1_554 S
O398 C394 1.255 . S
O399 C379 1.259 . S
O399 Co380 2.021 . S
H400 C391 0.930 . S
H401 C390 0.931 . S
O402 Co378 2.117 . S
O402 C379 1.258 . S
O403 Co378 2.020 . S
O403 C405 1.256 . S
O404 Co380 2.062 . S
O404 C405 1.255 . S
C405 O403 1.256 . S
C405 O404 1.255 . S
H406 C385 0.931 . S
H407 C393 0.931 . S
H408 C414 0.930 . S
H409 C417 0.935 . S
H410 C418 0.930 . S
H411 C419 0.930 1_655 S
H412 C422 0.930 . S
H413 C423 0.930 . S
C414 H408 0.930 . S
C414 C415 1.355 . S
C414 C416 1.415 . S
C415 C414 1.355 . S
C415 C417 1.412 1_455 S
C416 C414 1.415 . S
C416 C421 1.425 . S
C416 C423 1.409 . S
C417 H409 0.935 . S
C417 C415 1.412 1_655 S
C417 C418 1.364 . S
C418 H410 0.930 . S
C418 C417 1.364 . S
C418 C421 1.409 1_655 S
C419 H411 0.930 1_455 S
C419 C420 1.355 . S
C419 C421 1.415 . S
C420 C419 1.355 . S
C420 C422 1.419 . S
C421 C416 1.425 . S
C421 C418 1.409 1_455 S
C421 C419 1.415 . S
C422 H412 0.930 . S
C422 C420 1.419 . S
C422 C423 1.362 . S
C423 H413 0.930 . S
C423 C416 1.409 . S
C423 C422 1.362 . S
H424 C430 0.930 . S
H425 C433 0.930 . S
H426 C434 0.930 . S
H427 C435 0.930 1_655 S
H428 C438 0.930 . S
H429 C439 0.930 . S
C430 H424 0.930 . S
C430 C431 1.355 . S
C430 C432 1.415 . S
C431 C430 1.355 . S
C431 C433 1.419 1_455 S
C432 C430 1.415 . S
C432 C437 1.425 . S
C432 C439 1.409 . S
C433 H425 0.930 . S
C433 C431 1.419 1_655 S
C433 C434 1.362 . S
C434 H426 0.930 . S
C434 C433 1.362 . S
C434 C437 1.409 1_655 S
C435 H427 0.930 1_455 S
C435 C436 1.355 . S
C435 C437 1.415 . S
C436 C435 1.355 . S
C436 C438 1.419 . S
C437 C432 1.425 . S
C437 C434 1.409 1_455 S
C437 C435 1.415 . S
C438 H428 0.930 . S
C438 C436 1.419 . S
C438 C439 1.362 . S
C439 H429 0.930 . S
C439 C432 1.409 . S
C439 C438 1.362 . S
H440 C446 0.930 . S
H441 C449 0.930 . S
H442 C450 0.930 . S
H443 C451 0.930 . S
H444 C454 0.930 . S
H445 C455 0.930 . S
C446 H440 0.930 . S
C446 C447 1.355 . S
C446 C448 1.415 . S
C447 C446 1.355 . S
C447 C449 1.419 1_455 S
C448 C446 1.415 . S
C448 C453 1.425 1_455 S
C448 C455 1.409 . S
C449 H441 0.930 . S
C449 C447 1.419 1_655 S
C449 C450 1.362 . S
C450 H442 0.930 . S
C450 C449 1.362 . S
C450 C453 1.409 . S
C451 H443 0.930 . S
C451 C452 1.355 . S
C451 C453 1.415 . S
C452 C451 1.355 . S
C452 C454 1.419 1_655 S
C453 C448 1.425 1_655 S
C453 C450 1.409 . S
C453 C451 1.415 . S
C454 H444 0.930 . S
C454 C452 1.419 1_455 S
C454 C455 1.362 . S
C455 H445 0.930 . S
C455 C448 1.409 . S
C455 C454 1.362 . S
H456 C462 0.930 . S
H457 C465 0.930 . S
H458 C466 0.930 . S
H459 C467 0.930 . S
H460 C470 0.930 . S
H461 C471 0.930 . S
C462 H456 0.930 . S
C462 C463 1.355 . S
C462 C464 1.415 . S
C463 C462 1.355 . S
C463 C465 1.419 1_655 S
C464 C462 1.415 . S
C464 C469 1.425 1_655 S
C464 C471 1.409 . S
C465 H457 0.930 . S
C465 C463 1.419 1_455 S
C465 C466 1.362 . S
C466 H458 0.930 . S
C466 C465 1.362 . S
C466 C469 1.409 . S
C467 H459 0.930 . S
C467 C468 1.355 1_455 S
C467 C469 1.415 . S
C468 C467 1.355 1_655 S
C468 C470 1.419 . S
C469 C464 1.425 1_455 S
C469 C466 1.409 . S
C469 C467 1.415 . S
C470 H460 0.930 . S
C470 C468 1.419 . S
C470 C471 1.362 . S
C471 H461 0.930 . S
C471 C464 1.409 . S
C471 C470 1.362 . S
H472 C478 0.930 1_565 S
H473 C481 0.930 . S
H474 C482 0.930 . S
H475 C483 0.930 . S
H476 C486 0.932 . S
H477 C487 0.930 . S
C478 H472 0.930 1_545 S
C478 C479 1.355 . S
C478 C480 1.415 . S
C479 C478 1.355 . S
C479 C481 1.419 . S
C480 C478 1.415 . S
C480 C485 1.425 . S
C480 C487 1.409 1_545 S
C481 H473 0.930 . S
C481 C479 1.419 . S
C481 C482 1.362 . S
C482 H474 0.930 . S
C482 C481 1.362 . S
C482 C485 1.409 . S
C483 H475 0.930 . S
C483 C484 1.355 . S
C483 C485 1.415 . S
C484 C483 1.355 . S
C484 C486 1.416 1_545 S
C485 C480 1.425 . S
C485 C482 1.409 . S
C485 C483 1.415 . S
C486 H476 0.932 . S
C486 C484 1.416 1_565 S
C486 C487 1.363 . S
C487 H477 0.930 . S
C487 C480 1.409 1_565 S
C487 C486 1.363 . S
H488 C494 0.930 . S
H489 C497 0.930 . S
H490 C498 0.930 . S
H491 C499 0.930 . S
H492 C502 0.930 . S
H493 C503 0.930 . S
C494 H488 0.930 . S
C494 C495 1.355 . S
C494 C496 1.415 . S
C495 C494 1.355 . S
C495 C497 1.419 . S
C496 C494 1.415 . S
C496 C501 1.425 . S
C496 C503 1.409 . S
C497 H489 0.930 . S
C497 C495 1.419 . S
C497 C498 1.362 . S
C498 H490 0.930 . S
C498 C497 1.362 . S
C498 C501 1.409 . S
C499 H491 0.930 . S
C499 C500 1.355 . S
C499 C501 1.415 . S
C500 C499 1.355 . S
C500 C502 1.419 . S
C501 C496 1.425 . S
C501 C498 1.409 . S
C501 C499 1.415 . S
C502 H492 0.930 . S
C502 C500 1.419 . S
C502 C503 1.362 . S
C503 H493 0.930 . S
C503 C496 1.409 . S
C503 C502 1.362 . S
H504 C510 0.930 . S
H505 C513 0.930 . S
H506 C514 0.930 . S
H507 C515 0.930 . S
H508 C518 0.930 . S
H509 C519 0.930 . S
C510 H504 0.930 . S
C510 C511 1.355 . S
C510 C512 1.415 . S
C511 C510 1.355 . S
C511 C513 1.419 1_565 S
C512 C510 1.415 . S
C512 C517 1.425 1_565 S
C512 C519 1.409 . S
C513 H505 0.930 . S
C513 C511 1.419 1_545 S
C513 C514 1.362 . S
C514 H506 0.930 . S
C514 C513 1.362 . S
C514 C517 1.409 . S
C515 H507 0.930 . S
C515 C516 1.355 . S
C515 C517 1.415 . S
C516 C515 1.355 . S
C516 C518 1.419 1_545 S
C517 C512 1.425 1_545 S
C517 C514 1.409 . S
C517 C515 1.415 . S
C518 H508 0.930 . S
C518 C516 1.419 1_565 S
C518 C519 1.362 . S
C519 H509 0.930 . S
C519 C512 1.409 . S
C519 C518 1.362 . S
H520 C526 0.930 . S
H521 C529 0.930 . S
H522 C530 0.930 . S
H523 C531 0.930 . S
H524 C534 0.930 . S
H525 C535 0.930 . S
C526 H520 0.930 . S
C526 C527 1.355 . S
C526 C528 1.415 . S
C527 C526 1.355 . S
C527 C529 1.419 . S
C528 C526 1.415 . S
C528 C533 1.425 . S
C528 C535 1.409 . S
C529 H521 0.930 . S
C529 C527 1.419 . S
C529 C530 1.362 . S
C530 H522 0.930 . S
C530 C529 1.362 . S
C530 C533 1.409 . S
C531 H523 0.930 . S
C531 C532 1.355 . S
C531 C533 1.415 . S
C532 C531 1.355 . S
C532 C534 1.419 . S
C533 C528 1.425 . S
C533 C530 1.409 . S
C533 C531 1.415 . S
C534 H524 0.930 . S
C534 C532 1.419 . S
C534 C535 1.362 . S
C535 H525 0.930 . S
C535 C528 1.409 . S
C535 C534 1.362 . S
H536 C542 0.930 1_556 S
H537 C545 0.930 . S
H538 C546 0.930 . S
H539 C547 0.930 . S
H540 C550 0.930 . S
H541 C551 0.930 . S
C542 H536 0.930 1_554 S
C542 C543 1.355 . S
C542 C544 1.415 . S
C543 C542 1.355 . S
C543 C545 1.419 . S
C544 C542 1.415 . S
C544 C549 1.425 . S
C544 C551 1.409 1_554 S
C545 H537 0.930 . S
C545 C543 1.419 . S
C545 C546 1.362 . S
C546 H538 0.930 . S
C546 C545 1.362 . S
C546 C549 1.409 . S
C547 H539 0.930 . S
C547 C548 1.355 . S
C547 C549 1.415 . S
C548 C547 1.355 . S
C548 C550 1.419 1_554 S
C549 C544 1.425 . S
C549 C546 1.409 . S
C549 C547 1.415 . S
C550 H540 0.930 . S
C550 C548 1.419 1_556 S
C550 C551 1.362 . S
C551 H541 0.930 . S
C551 C544 1.409 1_556 S
C551 C550 1.362 . S
H552 C558 0.930 . S
H553 C561 0.930 . S
H554 C562 0.930 . S
H555 C563 0.930 . S
H556 C566 0.930 . S
H557 C567 0.930 . S
C558 H552 0.930 . S
C558 C559 1.355 . S
C558 C560 1.415 . S
C559 C558 1.355 . S
C559 C561 1.419 . S
C560 C558 1.415 . S
C560 C565 1.425 . S
C560 C567 1.409 . S
C561 H553 0.930 . S
C561 C559 1.419 . S
C561 C562 1.362 . S
C562 H554 0.930 . S
C562 C561 1.362 . S
C562 C565 1.409 . S
C563 H555 0.930 . S
C563 C564 1.355 . S
C563 C565 1.415 . S
C564 C563 1.355 . S
C564 C566 1.419 . S
C565 C560 1.425 . S
C565 C562 1.409 . S
C565 C563 1.415 . S
C566 H556 0.930 . S
C566 C564 1.419 . S
C566 C567 1.362 . S
C567 H557 0.930 . S
C567 C560 1.409 . S
C567 C566 1.362 . S
H568 C574 0.930 . S
H569 C577 0.930 . S
H570 C578 0.930 . S
H571 C579 0.930 . S
H572 C582 0.930 . S
H573 C583 0.930 . S
C574 H568 0.930 . S
C574 C575 1.355 . S
C574 C576 1.415 . S
C575 C574 1.355 . S
C575 C577 1.419 . S
C576 C574 1.415 . S
C576 C581 1.425 . S
C576 C583 1.409 . S
C577 H569 0.930 . S
C577 C575 1.419 . S
C577 C578 1.362 . S
C578 H570 0.930 . S
C578 C577 1.362 . S
C578 C581 1.409 . S
C579 H571 0.930 . S
C579 C580 1.355 . S
C579 C581 1.415 . S
C580 C579 1.355 . S
C580 C582 1.419 . S
C581 C576 1.425 . S
C581 C578 1.409 . S
C581 C579 1.415 . S
C582 H572 0.930 . S
C582 C580 1.419 . S
C582 C583 1.362 . S
C583 H573 0.930 . S
C583 C576 1.409 . S
C583 C582 1.362 . S
H584 C590 0.930 . S
H585 C593 0.930 . S
H586 C594 0.930 . S
H587 C595 0.930 . S
H588 C598 0.930 . S
H589 C599 0.930 . S
C590 H584 0.930 . S
C590 C591 1.355 . S
C590 C592 1.415 . S
C591 C590 1.355 . S
C591 C593 1.419 . S
C592 C590 1.415 . S
C592 C597 1.425 . S
C592 C599 1.409 . S
C593 H585 0.930 . S
C593 C591 1.419 . S
C593 C594 1.362 . S
C594 H586 0.930 . S
C594 C593 1.362 . S
C594 C597 1.409 . S
C595 H587 0.930 . S
C595 C596 1.355 . S
C595 C597 1.415 . S
C596 C595 1.355 . S
C596 C598 1.419 . S
C597 C592 1.425 . S
C597 C594 1.409 . S
C597 C595 1.415 . S
C598 H588 0.930 . S
C598 C596 1.419 . S
C598 C599 1.362 . S
C599 H589 0.930 . S
C599 C592 1.409 . S
C599 C598 1.362 . S
H600 C606 0.930 . S
H601 C609 0.930 . S
H602 C610 0.930 . S
H603 C611 0.930 . S
H604 C614 0.930 . S
H605 C615 0.930 . S
C606 H600 0.930 . S
C606 C607 1.355 . S
C606 C608 1.415 . S
C607 C606 1.355 . S
C607 C609 1.419 . S
C608 C606 1.415 . S
C608 C613 1.425 . S
C608 C615 1.409 . S
C609 H601 0.930 . S
C609 C607 1.419 . S
C609 C610 1.362 . S
C610 H602 0.930 . S
C610 C609 1.362 . S
C610 C613 1.409 . S
C611 H603 0.930 . S
C611 C612 1.355 . S
C611 C613 1.415 . S
C612 C611 1.355 . S
C612 C614 1.419 . S
C613 C608 1.425 . S
C613 C610 1.409 . S
C613 C611 1.415 . S
C614 H604 0.930 . S
C614 C612 1.419 . S
C614 C615 1.362 . S
C615 H605 0.930 . S
C615 C608 1.409 . S
C615 C614 1.362 . S
H616 C622 0.930 . S
H617 C625 0.930 . S
H618 C626 0.930 . S
H619 C627 0.930 . S
H620 C630 0.930 . S
H621 C631 0.930 . S
C622 H616 0.930 . S
C622 C623 1.355 . S
C622 C624 1.415 . S
C623 C622 1.355 . S
C623 C625 1.419 . S
C624 C622 1.415 . S
C624 C629 1.425 . S
C624 C631 1.409 . S
C625 H617 0.930 . S
C625 C623 1.419 . S
C625 C626 1.362 . S
C626 H618 0.930 . S
C626 C625 1.362 . S
C626 C629 1.409 . S
C627 H619 0.930 . S
C627 C628 1.355 . S
C627 C629 1.415 . S
C628 C627 1.355 . S
C628 C630 1.419 . S
C629 C624 1.425 . S
C629 C626 1.409 . S
C629 C627 1.415 . S
C630 H620 0.930 . S
C630 C628 1.419 . S
C630 C631 1.362 . S
C631 H621 0.930 . S
C631 C624 1.409 . S
C631 C630 1.362 . S
H632 C638 0.930 . S
H633 C641 0.930 . S
H634 C642 0.930 . S
H635 C643 0.930 . S
H636 C646 0.930 . S
H637 C647 0.930 . S
C638 H632 0.930 . S
C638 C639 1.355 . S
C638 C640 1.415 . S
C639 C638 1.355 . S
C639 C641 1.419 . S
C640 C638 1.415 . S
C640 C645 1.425 . S
C640 C647 1.409 . S
C641 H633 0.930 . S
C641 C639 1.419 . S
C641 C642 1.362 . S
C642 H634 0.930 . S
C642 C641 1.362 . S
C642 C645 1.409 . S
C643 H635 0.930 . S
C643 C644 1.355 . S
C643 C645 1.415 . S
C644 C643 1.355 . S
C644 C646 1.419 . S
C645 C640 1.425 . S
C645 C642 1.409 . S
C645 C643 1.415 . S
C646 H636 0.930 . S
C646 C644 1.419 . S
C646 C647 1.362 . S
C647 H637 0.930 . S
C647 C640 1.409 . S
C647 C646 1.362 . S
H648 C654 0.930 . S
H649 C657 0.930 . S
H650 C658 0.930 . S
H651 C659 0.930 . S
H652 C662 0.930 1_565 S
H653 C663 0.930 . S
C654 H648 0.930 . S
C654 C655 1.355 . S
C654 C656 1.415 . S
C655 C654 1.355 . S
C655 C657 1.419 . S
C656 C654 1.415 . S
C656 C661 1.425 . S
C656 C663 1.409 . S
C657 H649 0.930 . S
C657 C655 1.419 . S
C657 C658 1.362 . S
C658 H650 0.930 . S
C658 C657 1.362 . S
C658 C661 1.409 . S
C659 H651 0.930 . S
C659 C660 1.355 . S
C659 C661 1.415 . S
C660 C659 1.355 . S
C660 C662 1.419 . S
C661 C656 1.425 . S
C661 C658 1.409 . S
C661 C659 1.415 . S
C662 H652 0.930 1_545 S
C662 C660 1.419 . S
C662 C663 1.362 . S
C663 H653 0.930 . S
C663 C656 1.409 . S
C663 C662 1.362 . S
H664 C670 0.930 . S
H665 C673 0.930 . S
H666 C674 0.930 . S
H667 C675 0.930 . S
H668 C678 0.930 . S
H669 C679 0.930 . S
C670 H664 0.930 . S
C670 C671 1.355 . S
C670 C672 1.415 . S
C671 C670 1.355 . S
C671 C673 1.419 . S
C672 C670 1.415 . S
C672 C677 1.425 . S
C672 C679 1.409 . S
C673 H665 0.930 . S
C673 C671 1.419 . S
C673 C674 1.362 . S
C674 H666 0.930 . S
C674 C673 1.362 . S
C674 C677 1.409 . S
C675 H667 0.930 . S
C675 C676 1.355 . S
C675 C677 1.415 . S
C676 C675 1.355 . S
C676 C678 1.419 . S
C677 C672 1.425 . S
C677 C674 1.409 . S
C677 C675 1.415 . S
C678 H668 0.930 . S
C678 C676 1.419 . S
C678 C679 1.362 . S
C679 H669 0.930 . S
C679 C672 1.409 . S
C679 C678 1.362 . S
H680 C686 0.930 1_545 S
H681 C689 0.930 . S
H682 C690 0.930 . S
H683 C691 0.930 . S
H684 C694 0.930 . S
H685 C695 0.930 . S
C686 H680 0.930 1_565 S
C686 C687 1.355 . S
C686 C688 1.416 . S
C687 C686 1.355 . S
C687 C689 1.419 . S
C688 C686 1.416 . S
C688 C693 1.432 . S
C688 C695 1.402 1_565 S
C689 H681 0.930 . S
C689 C687 1.419 . S
C689 C690 1.362 . S
C690 H682 0.930 . S
C690 C689 1.362 . S
C690 C693 1.409 . S
C691 H683 0.930 . S
C691 C692 1.363 . S
C691 C693 1.415 . S
C692 C691 1.363 . S
C692 C694 1.412 1_565 S
C693 C688 1.432 . S
C693 C690 1.409 . S
C693 C691 1.415 . S
C694 H684 0.930 . S
C694 C692 1.412 1_545 S
C694 C695 1.362 . S
C695 H685 0.930 . S
C695 C688 1.402 1_545 S
C695 C694 1.362 . S
H696 C702 0.930 . S
H697 C705 0.930 . S
H698 C706 0.930 . S
H699 C707 0.930 . S
H700 C710 0.930 . S
H701 C711 0.930 . S
C702 H696 0.930 . S
C702 C703 1.355 . S
C702 C704 1.415 . S
C703 C702 1.355 . S
C703 C705 1.419 . S
C704 C702 1.415 . S
C704 C709 1.425 . S
C704 C711 1.409 . S
C705 H697 0.930 . S
C705 C703 1.419 . S
C705 C706 1.362 . S
C706 H698 0.930 . S
C706 C705 1.362 . S
C706 C709 1.409 . S
C707 H699 0.930 . S
C707 C708 1.355 . S
C707 C709 1.415 . S
C708 C707 1.355 . S
C708 C710 1.419 . S
C709 C704 1.425 . S
C709 C706 1.409 . S
C709 C707 1.415 . S
C710 H700 0.930 . S
C710 C708 1.419 . S
C710 C711 1.362 . S
C711 H701 0.930 . S
C711 C704 1.409 . S
C711 C710 1.362 . S
H712 C718 0.930 . S
H713 C721 0.930 . S
H714 C722 0.930 . S
H715 C723 0.948 . S
H716 C726 0.930 . S
H717 C727 0.930 . S
C718 H712 0.930 . S
C718 C719 1.355 . S
C718 C720 1.415 . S
C719 C718 1.355 . S
C719 C721 1.419 1_545 S
C720 C718 1.415 . S
C720 C725 1.425 . S
C720 C727 1.409 . S
C721 H713 0.930 . S
C721 C719 1.419 1_565 S
C721 C722 1.362 . S
C722 H714 0.930 . S
C722 C721 1.362 . S
C722 C725 1.409 1_565 S
C723 H715 0.948 . S
C723 C724 1.341 1_565 S
C723 C725 1.411 1_565 S
C724 C723 1.341 1_545 S
C724 C726 1.419 . S
C725 C720 1.425 . S
C725 C722 1.409 1_545 S
C725 C723 1.411 1_545 S
C726 H716 0.930 . S
C726 C724 1.419 . S
C726 C727 1.362 . S
C727 H717 0.930 . S
C727 C720 1.409 . S
C727 C726 1.362 . S
H728 C734 0.930 . S
H729 C737 0.930 . S
H730 C738 0.930 . S
H731 C739 0.930 . S
H732 C742 0.930 . S
H733 C743 0.930 . S
C734 H728 0.930 . S
C734 C735 1.355 . S
C734 C736 1.415 . S
C735 C734 1.355 . S
C735 C737 1.419 . S
C736 C734 1.415 . S
C736 C741 1.425 . S
C736 C743 1.409 . S
C737 H729 0.930 . S
C737 C735 1.419 . S
C737 C738 1.362 . S
C738 H730 0.930 . S
C738 C737 1.362 . S
C738 C741 1.409 . S
C739 H731 0.930 . S
C739 C740 1.355 . S
C739 C741 1.415 . S
C740 C739 1.355 . S
C740 C742 1.419 . S
C741 C736 1.425 . S
C741 C738 1.409 . S
C741 C739 1.415 . S
C742 H732 0.930 . S
C742 C740 1.419 . S
C742 C743 1.362 . S
C743 H733 0.930 . S
C743 C736 1.409 . S
C743 C742 1.362 . S
H744 C750 0.930 . S
H745 C753 0.930 . S
H746 C754 0.930 . S
H747 C755 0.930 . S
H748 C758 0.930 . S
H749 C759 0.930 . S
C750 H744 0.930 . S
C750 C751 1.355 1_556 S
C750 C752 1.415 . S
C751 C750 1.355 1_554 S
C751 C753 1.419 . S
C752 C750 1.415 . S
C752 C757 1.425 1_556 S
C752 C759 1.409 . S
C753 H745 0.930 . S
C753 C751 1.419 . S
C753 C754 1.362 . S
C754 H746 0.930 . S
C754 C753 1.362 . S
C754 C757 1.409 . S
C755 H747 0.930 . S
C755 C756 1.355 1_554 S
C755 C757 1.415 . S
C756 C755 1.355 1_556 S
C756 C758 1.419 . S
C757 C752 1.425 1_554 S
C757 C754 1.409 . S
C757 C755 1.415 . S
C758 H748 0.930 . S
C758 C756 1.419 . S
C758 C759 1.362 . S
C759 H749 0.930 . S
C759 C752 1.409 . S
C759 C758 1.362 . S
H760 C766 0.930 . S
H761 C769 0.930 . S
H762 C770 0.930 . S
H763 C771 0.930 . S
H764 C774 0.930 . S
H765 C775 0.930 . S
C766 H760 0.930 . S
C766 C767 1.347 1_556 S
C766 C768 1.415 . S
C767 C766 1.347 1_554 S
C767 C769 1.427 . S
C768 C766 1.415 . S
C768 C773 1.425 . S
C768 C775 1.409 . S
C769 H761 0.930 . S
C769 C767 1.427 . S
C769 C770 1.362 . S
C770 H762 0.930 . S
C770 C769 1.362 . S
C770 C773 1.409 1_554 S
C771 H763 0.930 . S
C771 C772 1.355 . S
C771 C773 1.415 . S
C772 C771 1.355 . S
C772 C774 1.419 . S
C773 C768 1.425 . S
C773 C770 1.409 1_556 S
C773 C771 1.415 . S
C774 H764 0.930 . S
C774 C772 1.419 . S
C774 C775 1.362 . S
C775 H765 0.930 . S
C775 C768 1.409 . S
C775 C774 1.362 . S
H776 C782 0.930 . S
H777 C785 0.930 . S
H778 C786 0.930 . S
H779 C787 0.930 . S
H780 C790 0.930 . S
H781 C791 0.930 . S
C782 H776 0.930 . S
C782 C783 1.355 . S
C782 C784 1.415 . S
C783 C782 1.355 . S
C783 C785 1.419 . S
C784 C782 1.415 . S
C784 C789 1.425 . S
C784 C791 1.409 . S
C785 H777 0.930 . S
C785 C783 1.419 . S
C785 C786 1.362 . S
C786 H778 0.930 . S
C786 C785 1.362 . S
C786 C789 1.409 . S
C787 H779 0.930 . S
C787 C788 1.355 . S
C787 C789 1.415 . S
C788 C787 1.355 . S
C788 C790 1.419 . S
C789 C784 1.425 . S
C789 C786 1.409 . S
C789 C787 1.415 . S
C790 H780 0.930 . S
C790 C788 1.419 . S
C790 C791 1.362 . S
C791 H781 0.930 . S
C791 C784 1.409 . S
C791 C790 1.362 . S
H792 C798 0.930 1_655 S
H793 C801 0.930 . S
H794 C802 0.930 . S
H795 C803 0.930 . S
H796 C806 0.930 . S
H797 C807 0.930 . S
C798 H792 0.930 1_455 S
C798 C799 1.355 . S
C798 C800 1.415 . S
C799 C798 1.355 . S
C799 C801 1.419 . S
C800 C798 1.415 . S
C800 C805 1.425 . S
C800 C807 1.409 1_455 S
C801 H793 0.930 . S
C801 C799 1.419 . S
C801 C802 1.362 . S
C802 H794 0.930 . S
C802 C801 1.362 . S
C802 C805 1.409 . S
C803 H795 0.930 . S
C803 C804 1.355 . S
C803 C805 1.415 . S
C804 C803 1.355 . S
C804 C806 1.419 1_455 S
C805 C800 1.425 . S
C805 C802 1.409 . S
C805 C803 1.415 . S
C806 H796 0.930 . S
C806 C804 1.419 1_655 S
C806 C807 1.362 . S
C807 H797 0.930 . S
C807 C800 1.409 1_655 S
C807 C806 1.362 . S
H808 C814 0.930 . S
H809 C817 0.930 . S
H810 C818 0.930 . S
H811 C819 0.930 . S
H812 C822 0.930 . S
H813 C823 0.930 . S
C814 H808 0.930 . S
C814 C815 1.355 . S
C814 C816 1.415 . S
C815 C814 1.355 . S
C815 C817 1.419 1_455 S
C816 C814 1.415 . S
C816 C821 1.445 . S
C816 C823 1.409 . S
C817 H809 0.930 . S
C817 C815 1.419 1_655 S
C817 C818 1.362 . S
C818 H810 0.930 . S
C818 C817 1.362 . S
C818 C821 1.399 1_655 S
C819 H811 0.930 . S
C819 C820 1.355 1_655 S
C819 C821 1.407 1_655 S
C820 C819 1.355 1_455 S
C820 C822 1.419 . S
C821 C816 1.445 . S
C821 C818 1.399 1_455 S
C821 C819 1.407 1_455 S
C822 H812 0.930 . S
C822 C820 1.419 . S
C822 C823 1.362 . S
C823 H813 0.930 . S
C823 C816 1.409 . S
C823 C822 1.362 . S
H824 C830 0.930 1_655 S
H825 C833 0.930 . S
H826 C834 0.930 . S
H827 C835 0.930 . S
H828 C838 0.930 . S
H829 C839 0.930 . S
C830 H824 0.930 1_455 S
C830 C831 1.355 . S
C830 C832 1.415 . S
C831 C830 1.355 . S
C831 C833 1.419 . S
C832 C830 1.415 . S
C832 C837 1.425 . S
C832 C839 1.409 1_455 S
C833 H825 0.930 . S
C833 C831 1.419 . S
C833 C834 1.362 . S
C834 H826 0.930 . S
C834 C833 1.362 . S
C834 C837 1.409 . S
C835 H827 0.930 . S
C835 C836 1.355 . S
C835 C837 1.415 . S
C836 C835 1.355 . S
C836 C838 1.419 1_455 S
C837 C832 1.425 . S
C837 C834 1.409 . S
C837 C835 1.415 . S
C838 H828 0.930 . S
C838 C836 1.419 1_655 S
C838 C839 1.362 . S
C839 H829 0.930 . S
C839 C832 1.409 1_655 S
C839 C838 1.362 . S
H840 C846 0.929 1_455 S
H841 C849 0.930 . S
H842 C850 0.930 . S
H843 C851 0.930 . S
H844 C854 0.933 . S
H845 C855 0.930 . S
C846 H840 0.929 1_655 S
C846 C847 1.355 . S
C846 C848 1.415 . S
C847 C846 1.355 . S
C847 C849 1.419 . S
C848 C846 1.415 . S
C848 C853 1.425 . S
C848 C855 1.409 1_655 S
C849 H841 0.930 . S
C849 C847 1.419 . S
C849 C850 1.362 . S
C850 H842 0.930 . S
C850 C849 1.362 . S
C850 C853 1.409 . S
C851 H843 0.930 . S
C851 C852 1.355 . S
C851 C853 1.415 . S
C852 C851 1.355 . S
C852 C854 1.417 1_655 S
C853 C848 1.425 . S
C853 C850 1.409 . S
C853 C851 1.415 . S
C854 H844 0.933 . S
C854 C852 1.417 1_455 S
C854 C855 1.363 . S
C855 H845 0.930 . S
C855 C848 1.409 1_455 S
C855 C854 1.363 . S
H856 C862 0.930 . S
H857 C865 0.930 . S
H858 C866 0.930 . S
H859 C867 0.930 . S
H860 C870 0.930 . S
H861 C871 0.930 . S
C862 H856 0.930 . S
C862 C863 1.355 . S
C862 C864 1.415 . S
C863 C862 1.355 . S
C863 C865 1.419 . S
C864 C862 1.415 . S
C864 C869 1.425 . S
C864 C871 1.409 . S
C865 H857 0.930 . S
C865 C863 1.419 . S
C865 C866 1.362 . S
C866 H858 0.930 . S
C866 C865 1.362 . S
C866 C869 1.409 . S
C867 H859 0.930 . S
C867 C868 1.355 . S
C867 C869 1.415 . S
C868 C867 1.355 . S
C868 C870 1.419 . S
C869 C864 1.425 . S
C869 C866 1.409 . S
C869 C867 1.415 . S
C870 H860 0.930 . S
C870 C868 1.419 . S
C870 C871 1.362 . S
C871 H861 0.930 . S
C871 C864 1.409 . S
C871 C870 1.362 . S
H872 C878 0.930 . S
H873 C881 0.930 . S
H874 C882 0.930 . S
H875 C883 0.930 . S
H876 C886 0.930 . S
H877 C887 0.930 . S
C878 H872 0.930 . S
C878 C879 1.355 . S
C878 C880 1.415 . S
C879 C878 1.355 . S
C879 C881 1.419 . S
C880 C878 1.415 . S
C880 C885 1.425 . S
C880 C887 1.409 . S
C881 H873 0.930 . S
C881 C879 1.419 . S
C881 C882 1.362 . S
C882 H874 0.930 . S
C882 C881 1.362 . S
C882 C885 1.409 . S
C883 H875 0.930 . S
C883 C884 1.355 . S
C883 C885 1.415 . S
C884 C883 1.355 . S
C884 C886 1.419 . S
C885 C880 1.425 . S
C885 C882 1.409 . S
C885 C883 1.415 . S
C886 H876 0.930 . S
C886 C884 1.419 . S
C886 C887 1.362 . S
C887 H877 0.930 . S
C887 C880 1.409 . S
C887 C886 1.362 . S
H888 C894 0.930 . S
H889 C897 0.930 . S
H890 C898 0.930 . S
H891 C899 0.930 . S
H892 C902 0.930 . S
H893 C903 0.930 . S
C894 H888 0.930 . S
C894 C895 1.355 . S
C894 C896 1.415 . S
C895 C894 1.355 . S
C895 C897 1.419 . S
C896 C894 1.415 . S
C896 C901 1.425 . S
C896 C903 1.409 . S
C897 H889 0.930 . S
C897 C895 1.419 . S
C897 C898 1.362 . S
C898 H890 0.930 . S
C898 C897 1.362 . S
C898 C901 1.409 . S
C899 H891 0.930 . S
C899 C900 1.355 . S
C899 C901 1.415 . S
C900 C899 1.355 . S
C900 C902 1.419 . S
C901 C896 1.425 . S
C901 C898 1.409 . S
C901 C899 1.415 . S
C902 H892 0.930 . S
C902 C900 1.419 . S
C902 C903 1.362 . S
C903 H893 0.930 . S
C903 C896 1.409 . S
C903 C902 1.362 . S
H904 C910 0.930 . S
H905 C913 0.930 . S
H906 C914 0.930 . S
H907 C915 0.930 . S
H908 C918 0.930 . S
H909 C919 0.930 . S
C910 H904 0.930 . S
C910 C911 1.355 . S
C910 C912 1.415 . S
C911 C910 1.355 . S
C911 C913 1.419 . S
C912 C910 1.415 . S
C912 C917 1.425 . S
C912 C919 1.409 . S
C913 H905 0.930 . S
C913 C911 1.419 . S
C913 C914 1.362 . S
C914 H906 0.930 . S
C914 C913 1.362 . S
C914 C917 1.409 . S
C915 H907 0.930 . S
C915 C916 1.355 . S
C915 C917 1.415 . S
C916 C915 1.355 . S
C916 C918 1.419 . S
C917 C912 1.425 . S
C917 C914 1.409 . S
C917 C915 1.415 . S
C918 H908 0.930 . S
C918 C916 1.419 . S
C918 C919 1.362 . S
C919 H909 0.930 . S
C919 C912 1.409 . S
C919 C918 1.362 . S
H920 C926 0.930 . S
H921 C929 0.930 . S
H922 C930 0.930 . S
H923 C931 0.930 . S
H924 C934 0.930 . S
H925 C935 0.930 . S
C926 H920 0.930 . S
C926 C927 1.355 . S
C926 C928 1.415 . S
C927 C926 1.355 . S
C927 C929 1.419 1_554 S
C928 C926 1.415 . S
C928 C933 1.425 . S
C928 C935 1.409 . S
C929 H921 0.930 . S
C929 C927 1.419 1_556 S
C929 C930 1.362 . S
C930 H922 0.930 . S
C930 C929 1.362 . S
C930 C933 1.409 1_556 S
C931 H923 0.930 . S
C931 C932 1.355 1_556 S
C931 C933 1.415 1_556 S
C932 C931 1.355 1_554 S
C932 C934 1.419 . S
C933 C928 1.425 . S
C933 C930 1.409 1_554 S
C933 C931 1.415 1_554 S
C934 H924 0.930 . S
C934 C932 1.419 . S
C934 C935 1.362 . S
C935 H925 0.930 . S
C935 C928 1.409 . S
C935 C934 1.362 . S
H936 C942 0.930 . S
H937 C945 0.930 . S
H938 C946 0.930 . S
H939 C947 0.930 . S
H940 C950 0.930 . S
H941 C951 0.930 . S
C942 H936 0.930 . S
C942 C943 1.355 . S
C942 C944 1.415 . S
C943 C942 1.355 . S
C943 C945 1.419 . S
C944 C942 1.415 . S
C944 C949 1.425 . S
C944 C951 1.409 . S
C945 H937 0.930 . S
C945 C943 1.419 . S
C945 C946 1.362 . S
C946 H938 0.930 . S
C946 C945 1.362 . S
C946 C949 1.409 . S
C947 H939 0.930 . S
C947 C948 1.355 . S
C947 C949 1.415 . S
C948 C947 1.355 . S
C948 C950 1.419 . S
C949 C944 1.425 . S
C949 C946 1.409 . S
C949 C947 1.415 . S
C950 H940 0.930 . S
C950 C948 1.419 . S
C950 C951 1.362 . S
C951 H941 0.930 . S
C951 C944 1.409 . S
C951 C950 1.362 . S
H952 C958 0.930 . S
H953 C961 0.930 . S
H954 C962 0.930 . S
H955 C963 0.930 . S
H956 C966 0.930 . S
H957 C967 0.930 . S
C958 H952 0.930 . S
C958 C959 1.355 . S
C958 C960 1.415 . S
C959 C958 1.355 . S
C959 C961 1.419 . S
C960 C958 1.415 . S
C960 C965 1.425 . S
C960 C967 1.409 . S
C961 H953 0.930 . S
C961 C959 1.419 . S
C961 C962 1.362 . S
C962 H954 0.930 . S
C962 C961 1.362 . S
C962 C965 1.409 . S
C963 H955 0.930 . S
C963 C964 1.355 . S
C963 C965 1.415 . S
C964 C963 1.355 . S
C964 C966 1.419 . S
C965 C960 1.425 . S
C965 C962 1.409 . S
C965 C963 1.415 . S
C966 H956 0.930 . S
C966 C964 1.419 . S
C966 C967 1.362 . S
C967 H957 0.930 . S
C967 C960 1.409 . S
C967 C966 1.362 . S
H968 C974 0.930 . S
H969 C977 0.930 . S
H970 C978 0.930 . S
H971 C979 0.930 . S
H972 C982 0.930 . S
H973 C983 0.930 . S
C974 H968 0.930 . S
C974 C975 1.355 . S
C974 C976 1.415 . S
C975 C974 1.355 . S
C975 C977 1.419 . S
C976 C974 1.415 . S
C976 C981 1.425 . S
C976 C983 1.409 . S
C977 H969 0.930 . S
C977 C975 1.419 . S
C977 C978 1.362 . S
C978 H970 0.930 . S
C978 C977 1.362 . S
C978 C981 1.409 . S
C979 H971 0.930 . S
C979 C980 1.355 . S
C979 C981 1.415 . S
C980 C979 1.355 . S
C980 C982 1.419 . S
C981 C976 1.425 . S
C981 C978 1.409 . S
C981 C979 1.415 . S
C982 H972 0.930 . S
C982 C980 1.419 . S
C982 C983 1.362 . S
C983 H973 0.930 . S
C983 C976 1.409 . S
C983 C982 1.362 . S
H984 C990 0.930 . S
H985 C993 0.930 . S
H986 C994 0.930 . S
H987 C995 0.930 . S
H988 C998 0.930 . S
H989 C999 0.930 . S
C990 H984 0.930 . S
C990 C991 1.355 . S
C990 C992 1.415 . S
C991 C990 1.355 . S
C991 C993 1.419 . S
C992 C990 1.415 . S
C992 C997 1.425 . S
C992 C999 1.409 . S
C993 H985 0.930 . S
C993 C991 1.419 . S
C993 C994 1.362 . S
C994 H986 0.930 . S
C994 C993 1.362 . S
C994 C997 1.409 . S
C995 H987 0.930 . S
C995 C996 1.355 . S
C995 C997 1.415 . S
C996 C995 1.355 . S
C996 C998 1.419 . S
C997 C992 1.425 . S
C997 C994 1.409 . S
C997 C995 1.415 . S
C998 H988 0.930 . S
C998 C996 1.419 . S
C998 C999 1.362 . S
C999 H989 0.930 . S
C999 C992 1.409 . S
C999 C998 1.362 . S
H1000 C1006 0.930 . S
H1001 C1009 0.930 . S
H1002 C1010 0.930 . S
H1003 C1011 0.930 . S
H1004 C1014 0.930 . S
H1005 C1015 0.930 . S
C1006 H1000 0.930 . S
C1006 C1007 1.355 . S
C1006 C1008 1.415 . S
C1007 C1006 1.355 . S
C1007 C1009 1.419 . S
C1008 C1006 1.415 . S
C1008 C1013 1.425 . S
C1008 C1015 1.409 . S
C1009 H1001 0.930 . S
C1009 C1007 1.419 . S
C1009 C1010 1.362 . S
C1010 H1002 0.930 . S
C1010 C1009 1.362 . S
C1010 C1013 1.409 . S
C1011 H1003 0.930 . S
C1011 C1012 1.355 . S
C1011 C1013 1.415 . S
C1012 C1011 1.355 . S
C1012 C1014 1.419 . S
C1013 C1008 1.425 . S
C1013 C1010 1.409 . S
C1013 C1011 1.415 . S
C1014 H1004 0.930 . S
C1014 C1012 1.419 . S
C1014 C1015 1.362 . S
C1015 H1005 0.930 . S
C1015 C1008 1.409 . S
C1015 C1014 1.362 . S
H1016 C1022 0.930 . S
H1017 C1025 0.930 . S
H1018 C1026 0.930 . S
H1019 C1027 0.930 . S
H1020 C1030 0.930 . S
H1021 C1031 0.930 . S
C1022 H1016 0.930 . S
C1022 C1023 1.355 . S
C1022 C1024 1.415 . S
C1023 C1022 1.355 . S
C1023 C1025 1.419 . S
C1024 C1022 1.415 . S
C1024 C1029 1.425 . S
C1024 C1031 1.409 . S
C1025 H1017 0.930 . S
C1025 C1023 1.419 . S
C1025 C1026 1.362 . S
C1026 H1018 0.930 . S
C1026 C1025 1.362 . S
C1026 C1029 1.409 . S
C1027 H1019 0.930 . S
C1027 C1028 1.355 . S
C1027 C1029 1.415 . S
C1028 C1027 1.355 . S
C1028 C1030 1.419 . S
C1029 C1024 1.425 . S
C1029 C1026 1.409 . S
C1029 C1027 1.415 . S
C1030 H1020 0.930 . S
C1030 C1028 1.419 . S
C1030 C1031 1.362 . S
C1031 H1021 0.930 . S
C1031 C1024 1.409 . S
C1031 C1030 1.362 . S
H1032 C1038 0.930 . S
H1033 C1041 0.930 . S
H1034 C1042 0.930 . S
H1035 C1043 0.930 . S
H1036 C1046 0.930 . S
H1037 C1047 0.930 . S
C1038 H1032 0.930 . S
C1038 C1039 1.355 . S
C1038 C1040 1.415 . S
C1039 C1038 1.355 . S
C1039 C1041 1.419 . S
C1040 C1038 1.415 . S
C1040 C1045 1.425 . S
C1040 C1047 1.409 . S
C1041 H1033 0.930 . S
C1041 C1039 1.419 . S
C1041 C1042 1.362 . S
C1042 H1034 0.930 . S
C1042 C1041 1.362 . S
C1042 C1045 1.409 . S
C1043 H1035 0.930 . S
C1043 C1044 1.355 . S
C1043 C1045 1.415 . S
C1044 C1043 1.355 . S
C1044 C1046 1.419 . S
C1045 C1040 1.425 . S
C1045 C1042 1.409 . S
C1045 C1043 1.415 . S
C1046 H1036 0.930 . S
C1046 C1044 1.419 . S
C1046 C1047 1.362 . S
C1047 H1037 0.930 . S
C1047 C1040 1.409 . S
C1047 C1046 1.362 . S
H1048 C1054 0.930 . S
H1049 C1057 0.930 . S
H1050 C1058 0.930 . S
H1051 C1059 0.930 . S
H1052 C1062 0.930 . S
H1053 C1063 0.930 . S
C1054 H1048 0.930 . S
C1054 C1055 1.355 . S
C1054 C1056 1.415 . S
C1055 C1054 1.355 . S
C1055 C1057 1.419 . S
C1056 C1054 1.415 . S
C1056 C1061 1.425 . S
C1056 C1063 1.409 . S
C1057 H1049 0.930 . S
C1057 C1055 1.419 . S
C1057 C1058 1.362 . S
C1058 H1050 0.930 . S
C1058 C1057 1.362 . S
C1058 C1061 1.409 . S
C1059 H1051 0.930 . S
C1059 C1060 1.355 . S
C1059 C1061 1.415 . S
C1060 C1059 1.355 . S
C1060 C1062 1.419 . S
C1061 C1056 1.425 . S
C1061 C1058 1.409 . S
C1061 C1059 1.415 . S
C1062 H1052 0.930 . S
C1062 C1060 1.419 . S
C1062 C1063 1.362 . S
C1063 H1053 0.930 . S
C1063 C1056 1.409 . S
C1063 C1062 1.362 . S
H1064 C1070 0.930 . S
H1065 C1073 0.930 . S
H1066 C1074 0.930 . S
H1067 C1075 0.930 . S
H1068 C1078 0.930 . S
H1069 C1079 0.930 . S
C1070 H1064 0.930 . S
C1070 C1071 1.355 . S
C1070 C1072 1.415 . S
C1071 C1070 1.355 . S
C1071 C1073 1.419 . S
C1072 C1070 1.415 . S
C1072 C1077 1.425 . S
C1072 C1079 1.409 . S
C1073 H1065 0.930 . S
C1073 C1071 1.419 . S
C1073 C1074 1.362 . S
C1074 H1066 0.930 . S
C1074 C1073 1.362 . S
C1074 C1077 1.409 . S
C1075 H1067 0.930 . S
C1075 C1076 1.355 . S
C1075 C1077 1.415 . S
C1076 C1075 1.355 . S
C1076 C1078 1.419 . S
C1077 C1072 1.425 . S
C1077 C1074 1.409 . S
C1077 C1075 1.415 . S
C1078 H1068 0.930 . S
C1078 C1076 1.419 . S
C1078 C1079 1.362 . S
C1079 H1069 0.930 . S
C1079 C1072 1.409 . S
C1079 C1078 1.362 . S
H1080 C1086 0.930 . S
H1081 C1089 0.930 . S
H1082 C1090 0.930 . S
H1083 C1091 0.930 . S
H1084 C1094 0.930 . S
H1085 C1095 0.930 . S
C1086 H1080 0.930 . S
C1086 C1087 1.355 . S
C1086 C1088 1.415 . S
C1087 C1086 1.355 . S
C1087 C1089 1.419 . S
C1088 C1086 1.415 . S
C1088 C1093 1.425 . S
C1088 C1095 1.409 . S
C1089 H1081 0.930 . S
C1089 C1087 1.419 . S
C1089 C1090 1.362 . S
C1090 H1082 0.930 . S
C1090 C1089 1.362 . S
C1090 C1093 1.409 . S
C1091 H1083 0.930 . S
C1091 C1092 1.355 . S
C1091 C1093 1.415 . S
C1092 C1091 1.355 . S
C1092 C1094 1.419 . S
C1093 C1088 1.425 . S
C1093 C1090 1.409 . S
C1093 C1091 1.415 . S
C1094 H1084 0.930 . S
C1094 C1092 1.419 . S
C1094 C1095 1.362 . S
C1095 H1085 0.930 . S
C1095 C1088 1.409 . S
C1095 C1094 1.362 . S
H1096 C1102 0.925 1_565 S
H1097 C1105 0.930 . S
H1098 C1106 0.930 . S
H1099 C1107 0.930 . S
H1100 C1110 0.930 . S
H1101 C1111 0.930 . S
C1102 H1096 0.925 1_545 S
C1102 C1103 1.358 . S
C1102 C1104 1.415 . S
C1103 C1102 1.358 . S
C1103 C1105 1.419 . S
C1104 C1102 1.415 . S
C1104 C1109 1.425 . S
C1104 C1111 1.409 1_545 S
C1105 H1097 0.930 . S
C1105 C1103 1.419 . S
C1105 C1106 1.362 . S
C1106 H1098 0.930 . S
C1106 C1105 1.362 . S
C1106 C1109 1.409 . S
C1107 H1099 0.930 . S
C1107 C1108 1.355 . S
C1107 C1109 1.415 . S
C1108 C1107 1.355 . S
C1108 C1110 1.419 1_545 S
C1109 C1104 1.425 . S
C1109 C1106 1.409 . S
C1109 C1107 1.415 . S
C1110 H1100 0.930 . S
C1110 C1108 1.419 1_565 S
C1110 C1111 1.362 . S
C1111 H1101 0.930 . S
C1111 C1104 1.409 1_565 S
C1111 C1110 1.362 . S
H1112 C1118 0.930 . S
H1113 C1121 0.930 . S
H1114 C1122 0.930 . S
H1115 C1123 0.930 . S
H1116 C1126 0.930 . S
H1117 C1127 0.930 . S
C1118 H1112 0.930 . S
C1118 C1119 1.355 . S
C1118 C1120 1.415 . S
C1119 C1118 1.355 . S
C1119 C1121 1.419 . S
C1120 C1118 1.415 . S
C1120 C1125 1.425 . S
C1120 C1127 1.409 . S
C1121 H1113 0.930 . S
C1121 C1119 1.419 . S
C1121 C1122 1.362 . S
C1122 H1114 0.930 . S
C1122 C1121 1.362 . S
C1122 C1125 1.409 . S
C1123 H1115 0.930 . S
C1123 C1124 1.355 . S
C1123 C1125 1.415 . S
C1124 C1123 1.355 . S
C1124 C1126 1.419 . S
C1125 C1120 1.425 . S
C1125 C1122 1.409 . S
C1125 C1123 1.415 . S
C1126 H1116 0.930 . S
C1126 C1124 1.419 . S
C1126 C1127 1.362 . S
C1127 H1117 0.930 . S
C1127 C1120 1.409 . S
C1127 C1126 1.362 . S
H1128 C1134 0.930 . S
H1129 C1137 0.930 . S
H1130 C1138 0.930 . S
H1131 C1139 0.930 . S
H1132 C1142 0.930 . S
H1133 C1143 0.930 . S
C1134 H1128 0.930 . S
C1134 C1135 1.355 . S
C1134 C1136 1.415 . S
C1135 C1134 1.355 . S
C1135 C1137 1.419 . S
C1136 C1134 1.415 . S
C1136 C1141 1.425 . S
C1136 C1143 1.409 . S
C1137 H1129 0.930 . S
C1137 C1135 1.419 . S
C1137 C1138 1.362 . S
C1138 H1130 0.930 . S
C1138 C1137 1.362 . S
C1138 C1141 1.409 . S
C1139 H1131 0.930 . S
C1139 C1140 1.355 . S
C1139 C1141 1.415 . S
C1140 C1139 1.355 . S
C1140 C1142 1.419 . S
C1141 C1136 1.425 . S
C1141 C1138 1.409 . S
C1141 C1139 1.415 . S
C1142 H1132 0.930 . S
C1142 C1140 1.419 . S
C1142 C1143 1.362 . S
C1143 H1133 0.930 . S
C1143 C1136 1.409 . S
C1143 C1142 1.362 . S
H1144 C1150 0.930 . S
H1145 C1153 0.930 . S
H1146 C1154 0.930 . S
H1147 C1155 0.930 . S
H1148 C1158 0.930 . S
H1149 C1159 0.930 . S
C1150 H1144 0.930 . S
C1150 C1151 1.355 1_556 S
C1150 C1152 1.415 . S
C1151 C1150 1.355 1_554 S
C1151 C1153 1.419 . S
C1152 C1150 1.415 . S
C1152 C1157 1.425 1_556 S
C1152 C1159 1.409 . S
C1153 H1145 0.930 . S
C1153 C1151 1.419 . S
C1153 C1154 1.362 . S
C1154 H1146 0.930 . S
C1154 C1153 1.362 . S
C1154 C1157 1.409 . S
C1155 H1147 0.930 . S
C1155 C1156 1.368 . S
C1155 C1157 1.415 . S
C1156 C1155 1.368 . S
C1156 C1158 1.402 1_554 S
C1157 C1152 1.425 1_554 S
C1157 C1154 1.409 . S
C1157 C1155 1.415 . S
C1158 H1148 0.930 . S
C1158 C1156 1.402 1_556 S
C1158 C1159 1.362 . S
C1159 H1149 0.930 . S
C1159 C1152 1.409 . S
C1159 C1158 1.362 . S
H1160 C1166 0.930 . S
H1161 C1169 0.930 . S
H1162 C1170 0.930 . S
H1163 C1171 0.930 . S
H1164 C1174 0.930 . S
H1165 C1175 0.930 . S
C1166 H1160 0.930 . S
C1166 C1167 1.355 . S
C1166 C1168 1.415 . S
C1167 C1166 1.355 . S
C1167 C1169 1.419 . S
C1168 C1166 1.415 . S
C1168 C1173 1.425 . S
C1168 C1175 1.409 . S
C1169 H1161 0.930 . S
C1169 C1167 1.419 . S
C1169 C1170 1.362 . S
C1170 H1162 0.930 . S
C1170 C1169 1.362 . S
C1170 C1173 1.409 . S
C1171 H1163 0.930 . S
C1171 C1172 1.355 . S
C1171 C1173 1.415 . S
C1172 C1171 1.355 . S
C1172 C1174 1.419 . S
C1173 C1168 1.425 . S
C1173 C1170 1.409 . S
C1173 C1171 1.415 . S
C1174 H1164 0.930 . S
C1174 C1172 1.419 . S
C1174 C1175 1.362 . S
C1175 H1165 0.930 . S
C1175 C1168 1.409 . S
C1175 C1174 1.362 . S
C415 C13 1.562 . S
C420 C255 1.509 1_545 S
C436 N272 1.648 . S
C431 C1 1.759 . S
C452 N174 1.645 . S
C447 C27 1.615 . S
C463 C15 1.238 . S
C468 C199 1.212 . S
C479 C28 1.695 . S
C484 C394 1.698 . S
C495 C55 1.439 . S
C500 N354 1.454 . S
C516 N302 1.477 1_545 S
C511 C40 1.674 . S
C527 C43 1.661 . S
C532 C328 1.642 . S
C548 C214 1.581 . S
C543 C56 1.579 . S
C564 C259 1.743 . S
C559 C83 1.740 . S
C575 C96 1.637 . S
C580 C238 1.665 . S
C591 C71 1.830 . S
C596 C345 1.818 . S
C612 C375 1.579 . S
C607 C99 1.601 . S
C628 N392 1.557 . S
C623 C111 1.753 . S
C639 C113 1.665 . S
C644 N324 1.646 . S
C660 C289 1.238 1_545 S
C655 C125 1.267 . S
C671 C139 1.700 . S
C676 C274 1.698 . S
C687 C153 1.433 . S
C692 N234 1.459 . S
C708 N212 1.455 . S
C703 C127 1.679 . S
C719 C141 1.662 . S
C724 C178 1.643 . S
C740 C304 1.552 . S
C735 C84 1.528 . S
C756 C379 1.726 . S
C751 C154 1.748 . S
C767 C68 1.611 . S
C772 C358 1.636 . S
C783 C166 1.828 . S
C788 C195 1.817 . S
C804 C169 1.419 . S
C799 C0 1.420 . S
C815 C12 1.064 . S
C820 N204 1.068 1_455 S
C836 N242 1.213 . S
C831 C14 1.311 . S
C852 C285 1.761 . S
C847 C26 1.706 1_655 S
C863 C41 1.532 . S
C868 C184 1.477 . S
C879 C42 1.656 . S
C884 C225 1.601 . S
C900 C229 1.340 . S
C895 C29 1.334 . S
C911 C54 1.513 . S
C916 C268 1.521 . S
C927 C69 1.090 . S
C932 N182 1.044 . S
C948 C244 1.812 . S
C943 C70 1.803 . S
C959 C85 1.223 . S
C964 N264 1.225 . S
C975 C82 1.505 . S
C980 C298 1.451 . S
C996 C319 1.358 . S
C991 C110 1.427 . S
C1007 C98 1.059 . S
C1012 N294 1.048 . S
C1023 C124 1.296 . S
C1028 N362 1.110 . S
C1039 C112 1.701 . S
C1044 C405 1.755 . S
C1055 C126 1.511 . S
C1060 C334 1.511 . S
C1076 C315 1.595 . S
C1071 C140 1.657 . S
C1087 C138 1.334 . S
C1092 C349 1.338 . S
C1108 C388 1.524 . S
C1103 C152 1.533 . S
C1124 N332 1.021 . S
C1119 C97 1.102 . S
C1140 C364 1.824 . S
C1135 C167 1.802 1_556 S
C1156 N384 1.157 1_554 S
C1151 C57 1.174 . S
C1167 C155 1.471 . S
C1172 C208 1.481 . S
