# Generated by pormake.
# Topology eea, (3,6)-cn, num edge types: 1
# Building blocks:
#     Node 0, Type 0, BuildingBlock: WUSLED_clean_sbu_0, # of connection points: 3
#     Node 1, Type 0, BuildingBlock: WUSLED_clean_sbu_0, # of connection points: 3
#     Node 2, Type 0, BuildingBlock: WUSLED_clean_sbu_0, # of connection points: 3
#     Node 3, Type 0, BuildingBlock: WUSLED_clean_sbu_0, # of connection points: 3
#     Node 4, Type 0, BuildingBlock: WUSLED_clean_sbu_0, # of connection points: 3
#     Node 5, Type 0, BuildingBlock: WUSLED_clean_sbu_0, # of connection points: 3
#     Node 6, Type 0, BuildingBlock: WUSLED_clean_sbu_0, # of connection points: 3
#     Node 7, Type 0, BuildingBlock: WUSLED_clean_sbu_0, # of connection points: 3
#     Node 8, Type 0, BuildingBlock: WUSLED_clean_sbu_0, # of connection points: 3
#     Node 9, Type 0, BuildingBlock: WUSLED_clean_sbu_0, # of connection points: 3
#     Node 10, Type 0, BuildingBlock: WUSLED_clean_sbu_0, # of connection points: 3
#     Node 11, Type 0, BuildingBlock: WUSLED_clean_sbu_0, # of connection points: 3
#     Node 12, Type 0, BuildingBlock: WUSLED_clean_sbu_0, # of connection points: 3
#     Node 13, Type 0, BuildingBlock: WUSLED_clean_sbu_0, # of connection points: 3
#     Node 14, Type 0, BuildingBlock: WUSLED_clean_sbu_0, # of connection points: 3
#     Node 15, Type 0, BuildingBlock: WUSLED_clean_sbu_0, # of connection points: 3
#     Node 16, Type 0, BuildingBlock: WUSLED_clean_sbu_0, # of connection points: 3
#     Node 17, Type 0, BuildingBlock: WUSLED_clean_sbu_0, # of connection points: 3
#     Node 18, Type 1, BuildingBlock: KUMBOL_clean_sbu_0, # of connection points: 6
#     Node 19, Type 1, BuildingBlock: KUMBOL_clean_sbu_0, # of connection points: 6
#     Node 20, Type 1, BuildingBlock: KUMBOL_clean_sbu_0, # of connection points: 6
#     Node 21, Type 1, BuildingBlock: KUMBOL_clean_sbu_0, # of connection points: 6
#     Node 22, Type 1, BuildingBlock: KUMBOL_clean_sbu_0, # of connection points: 6
#     Node 23, Type 1, BuildingBlock: KUMBOL_clean_sbu_0, # of connection points: 6
#     Node 24, Type 1, BuildingBlock: KUMBOL_clean_sbu_0, # of connection points: 6
#     Node 25, Type 1, BuildingBlock: KUMBOL_clean_sbu_0, # of connection points: 6
#     Node 26, Type 1, BuildingBlock: KUMBOL_clean_sbu_0, # of connection points: 6
#     Edge 27, Type (0, 1), BuildingBlock: EZIPEK_clean_linker_0, # of connection points: 2
#     Edge 28, Type (0, 1), BuildingBlock: EZIPEK_clean_linker_0, # of connection points: 2
#     Edge 29, Type (0, 1), BuildingBlock: EZIPEK_clean_linker_0, # of connection points: 2
#     Edge 30, Type (0, 1), BuildingBlock: EZIPEK_clean_linker_0, # of connection points: 2
#     Edge 31, Type (0, 1), BuildingBlock: EZIPEK_clean_linker_0, # of connection points: 2
#     Edge 32, Type (0, 1), BuildingBlock: EZIPEK_clean_linker_0, # of connection points: 2
#     Edge 33, Type (0, 1), BuildingBlock: EZIPEK_clean_linker_0, # of connection points: 2
#     Edge 34, Type (0, 1), BuildingBlock: EZIPEK_clean_linker_0, # of connection points: 2
#     Edge 35, Type (0, 1), BuildingBlock: EZIPEK_clean_linker_0, # of connection points: 2
#     Edge 36, Type (0, 1), BuildingBlock: EZIPEK_clean_linker_0, # of connection points: 2
#     Edge 37, Type (0, 1), BuildingBlock: EZIPEK_clean_linker_0, # of connection points: 2
#     Edge 38, Type (0, 1), BuildingBlock: EZIPEK_clean_linker_0, # of connection points: 2
#     Edge 39, Type (0, 1), BuildingBlock: EZIPEK_clean_linker_0, # of connection points: 2
#     Edge 40, Type (0, 1), BuildingBlock: EZIPEK_clean_linker_0, # of connection points: 2
#     Edge 41, Type (0, 1), BuildingBlock: EZIPEK_clean_linker_0, # of connection points: 2
#     Edge 42, Type (0, 1), BuildingBlock: EZIPEK_clean_linker_0, # of connection points: 2
#     Edge 43, Type (0, 1), BuildingBlock: EZIPEK_clean_linker_0, # of connection points: 2
#     Edge 44, Type (0, 1), BuildingBlock: EZIPEK_clean_linker_0, # of connection points: 2
#     Edge 45, Type (0, 1), BuildingBlock: EZIPEK_clean_linker_0, # of connection points: 2
#     Edge 46, Type (0, 1), BuildingBlock: EZIPEK_clean_linker_0, # of connection points: 2
#     Edge 47, Type (0, 1), BuildingBlock: EZIPEK_clean_linker_0, # of connection points: 2
#     Edge 48, Type (0, 1), BuildingBlock: EZIPEK_clean_linker_0, # of connection points: 2
#     Edge 49, Type (0, 1), BuildingBlock: EZIPEK_clean_linker_0, # of connection points: 2
#     Edge 50, Type (0, 1), BuildingBlock: EZIPEK_clean_linker_0, # of connection points: 2
#     Edge 51, Type (0, 1), BuildingBlock: EZIPEK_clean_linker_0, # of connection points: 2
#     Edge 52, Type (0, 1), BuildingBlock: EZIPEK_clean_linker_0, # of connection points: 2
#     Edge 53, Type (0, 1), BuildingBlock: EZIPEK_clean_linker_0, # of connection points: 2
#     Edge 54, Type (0, 1), BuildingBlock: EZIPEK_clean_linker_0, # of connection points: 2
#     Edge 55, Type (0, 1), BuildingBlock: EZIPEK_clean_linker_0, # of connection points: 2
#     Edge 56, Type (0, 1), BuildingBlock: EZIPEK_clean_linker_0, # of connection points: 2
#     Edge 57, Type (0, 1), BuildingBlock: EZIPEK_clean_linker_0, # of connection points: 2
#     Edge 58, Type (0, 1), BuildingBlock: EZIPEK_clean_linker_0, # of connection points: 2
#     Edge 59, Type (0, 1), BuildingBlock: EZIPEK_clean_linker_0, # of connection points: 2
#     Edge 60, Type (0, 1), BuildingBlock: EZIPEK_clean_linker_0, # of connection points: 2
#     Edge 61, Type (0, 1), BuildingBlock: EZIPEK_clean_linker_0, # of connection points: 2
#     Edge 62, Type (0, 1), BuildingBlock: EZIPEK_clean_linker_0, # of connection points: 2
#     Edge 63, Type (0, 1), BuildingBlock: EZIPEK_clean_linker_0, # of connection points: 2
#     Edge 64, Type (0, 1), BuildingBlock: EZIPEK_clean_linker_0, # of connection points: 2
#     Edge 65, Type (0, 1), BuildingBlock: EZIPEK_clean_linker_0, # of connection points: 2
#     Edge 66, Type (0, 1), BuildingBlock: EZIPEK_clean_linker_0, # of connection points: 2
#     Edge 67, Type (0, 1), BuildingBlock: EZIPEK_clean_linker_0, # of connection points: 2
#     Edge 68, Type (0, 1), BuildingBlock: EZIPEK_clean_linker_0, # of connection points: 2
#     Edge 69, Type (0, 1), BuildingBlock: EZIPEK_clean_linker_0, # of connection points: 2
#     Edge 70, Type (0, 1), BuildingBlock: EZIPEK_clean_linker_0, # of connection points: 2
#     Edge 71, Type (0, 1), BuildingBlock: EZIPEK_clean_linker_0, # of connection points: 2
#     Edge 72, Type (0, 1), BuildingBlock: EZIPEK_clean_linker_0, # of connection points: 2
#     Edge 73, Type (0, 1), BuildingBlock: EZIPEK_clean_linker_0, # of connection points: 2
#     Edge 74, Type (0, 1), BuildingBlock: EZIPEK_clean_linker_0, # of connection points: 2
#     Edge 75, Type (0, 1), BuildingBlock: EZIPEK_clean_linker_0, # of connection points: 2
#     Edge 76, Type (0, 1), BuildingBlock: EZIPEK_clean_linker_0, # of connection points: 2
#     Edge 77, Type (0, 1), BuildingBlock: EZIPEK_clean_linker_0, # of connection points: 2
#     Edge 78, Type (0, 1), BuildingBlock: EZIPEK_clean_linker_0, # of connection points: 2
#     Edge 79, Type (0, 1), BuildingBlock: EZIPEK_clean_linker_0, # of connection points: 2
#     Edge 80, Type (0, 1), BuildingBlock: EZIPEK_clean_linker_0, # of connection points: 2
# Relax obj value: 0.008
# Max RMSD: 0.088
# Mean RMSD: 0.069
data_MOF--net-eea--node1-WUSLED_clean_sbu_0--node2-KUMBOL_clean_sbu_0--edge1-EZIPEK_clean_linker_0
_symmetry_space_group_name_H-M    P1
_symmetry_Int_Tables_number       1
_symmetry_cell_setting            triclinic
loop_
_symmetry_equiv_pos_as_xyz
'x, y, z'
_cell_length_a     52.60025
_cell_length_b     53.99344
_cell_length_c     74.340773
_cell_angle_alpha  89.700725
_cell_angle_beta   89.88864
_cell_angle_gamma 120.00943
loop_
_atom_site_label
_atom_site_type_symbol
_atom_site_fract_x
_atom_site_fract_y
_atom_site_fract_z
_atom_type_partial_charge
C0 C 0.23111 0.16949 0.40294 0.0
C1 C 0.25333 0.19785 0.40616 0.0
C2 C 0.22383 0.21578 0.39223 0.0
C3 C 0.24975 0.22081 0.40077 0.0
C4 C 0.20158 0.18755 0.38911 0.0
C5 C 0.20525 0.1646 0.39437 0.0
U6 U 0.25099 0.12827 0.43701 0.0
O7 O 0.22937 0.08225 0.44307 0.0
O8 O 0.27481 0.10472 0.43306 0.0
C9 C 0.25174 0.07996 0.43725 0.0
C10 C 0.23446 0.14478 0.40819 0.0
C11 C 0.24503 0.0558 0.42509 0.0
C12 C 0.25956 0.02305 0.41262 0.0
C13 C 0.26615 0.04743 0.42261 0.0
C14 C 0.21073 0.01519 0.40705 0.0
C15 C 0.23167 1.00653 0.40503 0.0
C16 C 0.21736 0.03969 0.41696 0.0
C17 C 0.27663 0.16127 0.48417 0.0
C18 C 0.29579 0.14358 0.50766 0.0
C19 C 0.28777 0.18323 0.51369 0.0
C20 C 0.27762 0.1817 0.49615 0.0
C21 C 0.29712 0.16437 0.51954 0.0
C22 C 0.28558 0.14203 0.49003 0.0
C23 C 0.26648 0.16088 0.46567 0.0
O24 O 0.26143 0.14993 0.41066 0.0
O25 O 0.21588 0.12749 0.42042 0.0
O26 O 0.23922 0.14127 0.46228 0.0
O27 O 0.28487 0.16393 0.4527 0.0
H28 H 0.27347 0.2023 0.41283 0.0
H29 H 0.26708 0.24249 0.40333 0.0
H30 H 0.18142 0.18331 0.38257 0.0
H31 H 0.18784 0.14297 0.39173 0.0
H32 H 0.27592 0.01657 0.41127 0.0
H33 H 0.28755 0.05936 0.4288 0.0
H34 H 0.18904 1.0026 0.40132 0.0
H35 H 0.2006 0.04557 0.41861 0.0
H36 H 0.30289 0.12883 0.51198 0.0
H37 H 0.28861 0.19937 0.52267 0.0
H38 H 0.27074 0.19666 0.49187 0.0
H39 H 0.28487 0.12605 0.48097 0.0
C40 C 0.96594 0.17609 0.39991 0.0
C41 C 0.98914 0.19074 0.41206 0.0
C42 C 0.01996 0.22265 0.38807 0.0
C43 C 1.01595 0.21376 0.40616 0.0
C44 C 0.99673 0.20827 0.37596 0.0
C45 C 0.96995 0.18512 0.38184 0.0
U46 U 0.9054 0.13324 0.43513 0.0
O47 O 0.85729 0.10813 0.43193 0.0
O48 O 0.88153 0.08704 0.44091 0.0
C49 C 0.85597 0.08389 0.4363 0.0
C50 C 0.93775 0.15108 0.40568 0.0
C51 C 0.83696 0.05881 0.42515 0.0
C52 C 0.82931 0.02601 0.40066 0.0
C53 C 0.84772 0.05117 0.41011 0.0
C54 C 0.78922 0.01623 0.42097 0.0
C55 C 0.8 1.00825 0.40616 0.0
C56 C 0.80754 0.04129 0.43037 0.0
C57 C 0.91199 0.16314 0.48287 0.0
C58 C 0.87501 0.13984 0.50631 0.0
C59 C 0.92045 0.18258 0.51307 0.0
C60 C 0.92965 0.18412 0.49522 0.0
C61 C 0.89385 0.15911 0.51957 0.0
C62 C 0.88427 0.14135 0.48841 0.0
C63 C 0.9226 0.16496 0.46424 0.0
O64 O 0.93948 0.1339 0.4176 0.0
O65 O 0.9161 0.15598 0.40899 0.0
O66 O 0.90682 0.16774 0.45156 0.0
O67 O 0.93121 0.14666 0.46009 0.0
H68 H 0.98659 0.18429 0.42607 0.0
H69 H 0.03359 0.22471 0.41571 0.0
H70 H 0.9994 0.21488 0.36197 0.0
H71 H 0.95237 0.17415 0.37224 0.0
H72 H 0.83801 0.02014 0.38927 0.0
H73 H 0.87037 0.06437 0.40588 0.0
H74 H 0.76672 1.0028 0.42542 0.0
H75 H 0.79885 0.04674 0.44196 0.0
H76 H 0.85263 0.12382 0.5092 0.0
H77 H 0.93436 0.20052 0.52148 0.0
H78 H 0.95058 0.202 0.491 0.0
H79 H 0.86958 0.12567 0.47884 0.0
C80 C 0.85337 0.79586 0.40137 0.0
C81 C 0.82898 0.78678 0.41283 0.0
C82 C 0.80555 0.80271 0.39094 0.0
C83 C 0.80522 0.79017 0.40764 0.0
C84 C 0.82983 0.8115 0.37945 0.0
C85 C 0.8535 0.80809 0.38463 0.0
U86 U 0.89859 0.77759 0.43454 0.0
O87 O 0.92493 0.7571 0.4289 0.0
O88 O 0.94645 0.801 0.43911 0.0
C89 C 0.94988 0.78006 0.43299 0.0
C90 C 0.87907 0.79324 0.40655 0.0
C91 C 0.97544 0.78816 0.42092 0.0
C92 C 0.99715 0.78558 0.39241 0.0
C93 C 0.97234 0.77976 0.40278 0.0
C94 C 0.02841 0.80881 0.41796 0.0
C95 C 0.02535 0.79974 0.40004 0.0
C96 C 1.00374 0.80305 0.42827 0.0
C97 C 0.86775 0.74958 0.48291 0.0
C98 C 0.86339 0.7123 0.50359 0.0
C99 C 0.86316 0.75391 0.5153 0.0
C100 C 0.86633 0.76487 0.49778 0.0
C101 C 0.86111 0.72728 0.51833 0.0
C102 C 0.86666 0.7233 0.48605 0.0
C103 C 0.86716 0.75996 0.46439 0.0
O104 O 0.89633 0.81116 0.41883 0.0
O105 O 0.87436 0.76714 0.40896 0.0
O106 O 0.86398 0.74299 0.4509 0.0
O107 O 0.88576 0.78703 0.46081 0.0
H108 H 0.82845 0.77732 0.42582 0.0
H109 H 0.78675 0.78337 0.41673 0.0
H110 H 0.83059 0.82135 0.36657 0.0
H111 H 0.87209 0.81526 0.37559 0.0
H112 H 0.99433 0.77853 0.37857 0.0
H113 H 0.95079 0.76824 0.39675 0.0
H114 H 0.04992 0.81982 0.4241 0.0
H115 H 1.00674 0.80966 0.44221 0.0
H116 H 0.86183 0.6917 0.50562 0.0
H117 H 0.86141 0.7658 0.52646 0.0
H118 H 0.86679 0.78499 0.49581 0.0
H119 H 0.86751 0.71083 0.47495 0.0
C120 C 0.0721 0.22472 0.65508 0.0
C121 C 0.06718 0.2297 0.67294 0.0
C122 C 1.0171 0.2174 0.66575 0.0
C123 C 0.03993 0.22611 0.67824 0.0
C124 C 0.02203 0.21266 0.64783 0.0
C125 C 0.04934 0.21638 0.64251 0.0
U126 U 0.13577 0.24246 0.62185 0.0
O127 O 0.18334 0.2641 0.62693 0.0
O128 O 0.16037 0.21983 0.61729 0.0
C129 C 0.18529 0.24143 0.62284 0.0
C130 C 0.10069 0.22745 0.6501 0.0
C131 C 0.20363 0.23444 0.63455 0.0
C132 C 0.22556 0.23425 0.66343 0.0
C133 C 0.2062 0.23945 0.6532 0.0
C134 C 0.23951 0.21862 0.63659 0.0
C135 C 0.24265 0.22414 0.65512 0.0
C136 C 0.22024 0.22373 0.62644 0.0
C137 C 0.13259 0.26819 0.57339 0.0
C138 C 0.17089 0.30076 0.55261 0.0
C139 C 0.12269 0.26704 0.54127 0.0
C140 C 0.11338 0.25654 0.55876 0.0
C141 C 0.15138 0.28956 0.53809 0.0
C142 C 0.16162 0.29016 0.57012 0.0
C143 C 0.12114 0.25838 0.59189 0.0
O144 O 0.09999 0.20913 0.63823 0.0
O145 O 0.12258 0.25359 0.64742 0.0
O146 O 0.13534 0.27598 0.60512 0.0
O147 O 0.11253 0.23156 0.59584 0.0
H148 H 0.08436 0.23609 0.68287 0.0
H149 H 0.03651 0.2298 0.69212 0.0
H150 H 1.00467 0.20592 0.63801 0.0
H151 H 0.05257 0.21247 0.62865 0.0
H152 H 0.22753 0.23847 0.67774 0.0
H153 H 0.1936 0.2477 0.65978 0.0
H154 H 0.25236 0.21073 0.62991 0.0
H155 H 0.21869 0.21976 0.61209 0.0
H156 H 0.19313 0.31811 0.55044 0.0
H157 H 0.10731 0.25809 0.53026 0.0
H158 H 0.0909 0.23968 0.56092 0.0
H159 H 0.17696 0.29956 0.5811 0.0
C160 C 0.80603 0.85082 0.64776 0.0
C161 C 0.82538 0.84471 0.63821 0.0
C162 C 0.81607 0.80656 0.65944 0.0
C163 C 0.83036 0.82276 0.64404 0.0
C164 C 0.79657 0.8124 0.66887 0.0
C165 C 0.79168 0.83439 0.66312 0.0
U166 U 0.78115 0.89118 0.61553 0.0
O167 O 0.75746 0.9141 0.62205 0.0
O168 O 0.80142 0.93724 0.60985 0.0
C169 C 0.77965 0.93906 0.61721 0.0
C170 C 0.80163 0.87504 0.64267 0.0
C171 C 0.78746 0.96318 0.62964 0.0
C172 C 0.82355 1.00456 0.64642 0.0
C173 C 0.81611 0.97998 0.63636 0.0
C174 C 0.77367 0.99537 0.64385 0.0
C175 C 0.80248 0.01264 0.64998 0.0
C176 C 0.76626 0.9709 0.63374 0.0
C177 C 0.74792 0.85887 0.56919 0.0
C178 C 0.74994 0.87928 0.5395 0.0
C179 C 0.70797 0.83373 0.54793 0.0
C180 C 0.72053 0.83532 0.56476 0.0
C181 C 0.72263 0.85559 0.53512 0.0
C182 C 0.76247 0.88097 0.5564 0.0
C183 C 0.7613 0.85897 0.58676 0.0
O184 O 0.81836 0.89224 0.62974 0.0
O185 O 0.77426 0.8693 0.6417 0.0
O186 O 0.74507 0.85525 0.60111 0.0
O187 O 0.78909 0.87828 0.58902 0.0
H188 H 0.8369 0.85701 0.62637 0.0
H189 H 0.8455 0.81852 0.6366 0.0
H190 H 0.78539 0.80015 0.68081 0.0
H191 H 0.7769 0.83879 0.67082 0.0
H192 H 0.84592 0.01773 0.65099 0.0
H193 H 0.83296 0.97463 0.63344 0.0
H194 H 0.75719 1.00138 0.64638 0.0
H195 H 0.74411 0.95844 0.62864 0.0
H196 H 0.76161 0.89633 0.52977 0.0
H197 H 0.68692 0.81526 0.54479 0.0
H198 H 0.70896 0.81791 0.57428 0.0
H199 H 0.78365 0.89938 0.55935 0.0
C200 C 0.06341 0.84308 0.65331 0.0
C201 C 0.04754 0.82092 0.64106 0.0
C202 C 1.00875 0.79578 0.66337 0.0
C203 C 0.02037 0.79743 0.64607 0.0
C204 C 0.0246 0.81796 0.67557 0.0
C205 C 0.05172 0.84143 0.67057 0.0
U206 U 0.12918 0.88628 0.62109 0.0
O207 O 0.1539 0.93271 0.61586 0.0
O208 O 0.17628 0.91141 0.62758 0.0
C209 C 0.17825 0.93584 0.62289 0.0
C210 C 0.09213 0.86802 0.64846 0.0
C211 C 0.19488 0.96087 0.63485 0.0
C212 C 0.22786 0.98425 0.66014 0.0
C213 C 0.20916 0.95936 0.65051 0.0
C214 C 0.21781 0.01239 0.63892 0.0
C215 C 0.23268 0.01101 0.65419 0.0
C216 C 0.19921 0.98765 0.62934 0.0
C217 C 0.13057 0.85683 0.57371 0.0
C218 C 0.14721 0.87831 0.5439 0.0
C219 C 0.14564 0.83385 0.55126 0.0
C220 C 0.13518 0.83438 0.56851 0.0
C221 C 0.15159 0.85569 0.53876 0.0
C222 C 0.13686 0.87892 0.56122 0.0
C223 C 0.11741 0.85556 0.59166 0.0
O224 O 0.11415 0.86316 0.64694 0.0
O225 O 0.09188 0.88477 0.63564 0.0
O226 O 0.10796 0.8736 0.59462 0.0
O227 O 0.13068 0.8522 0.60565 0.0
H228 H 0.05618 0.82179 0.62769 0.0
H229 H 1.00845 0.78047 0.63648 0.0
H230 H 1.016 0.81703 0.68897 0.0
H231 H 0.06363 0.85831 0.6802 0.0
H232 H 0.23922 0.98279 0.67187 0.0
H233 H 0.20658 0.93913 0.65505 0.0
H234 H 0.22131 0.03284 0.63409 0.0
H235 H 0.18891 0.98963 0.61724 0.0
H236 H 0.15161 0.89534 0.53445 0.0
H237 H 0.1488 0.81618 0.54757 0.0
H238 H 0.13026 0.81695 0.57776 0.0
H239 H 0.13343 0.89648 0.56472 0.0
C240 C 0.89962 0.50088 0.73775 0.0
C241 C 0.91178 0.52619 0.74781 0.0
C242 C 0.89155 0.54655 0.72682 0.0
C243 C 0.9078 0.54891 0.74235 0.0
C244 C 0.87939 0.52121 0.71683 0.0
C245 C 0.88342 0.49857 0.72226 0.0
U246 U 0.92308 0.46128 0.77107 0.0
O247 O 0.90231 0.4153 0.77713 0.0
O248 O 0.94676 0.438 0.76559 0.0
C249 C 0.92422 0.41318 0.77029 0.0
C250 C 0.90373 0.47677 0.74303 0.0
C251 C 0.9166 0.38906 0.75791 0.0
C252 C 0.92989 0.35599 0.74451 0.0
C253 C 0.93722 0.38022 0.75484 0.0
C254 C 0.88128 0.34923 0.73974 0.0
C255 C 0.90175 0.34009 0.73713 0.0
C256 C 0.88866 0.37358 0.75001 0.0
C257 C 0.95412 0.49393 0.81762 0.0
C258 C 0.95168 0.47225 0.84692 0.0
C259 C 0.99209 0.51957 0.83995 0.0
C260 C 0.9803 0.51824 0.82289 0.0
C261 C 0.97785 0.49665 0.85212 0.0
C262 C 0.93994 0.47083 0.82978 0.0
C263 C 0.94168 0.49385 0.79973 0.0
O264 O 0.93108 0.48272 0.74472 0.0
O265 O 0.8865 0.46017 0.75599 0.0
O266 O 0.91398 0.47461 0.79708 0.0
O267 O 0.95857 0.49733 0.78577 0.0
H268 H 0.92433 0.52834 0.75983 0.0
H269 H 0.91729 0.56829 0.75024 0.0
H270 H 0.86674 0.51898 0.70485 0.0
H271 H 0.87389 0.47921 0.71433 0.0
H272 H 0.94589 0.34915 0.7427 0.0
H273 H 0.95882 0.3917 0.76083 0.0
H274 H 0.85942 0.33711 0.73418 0.0
H275 H 0.87229 0.37988 0.7521 0.0
H276 H 0.94035 0.45436 0.85614 0.0
H277 H 1.01228 0.53859 0.84372 0.0
H278 H 0.99154 0.53638 0.81384 0.0
H279 H 0.91971 0.45179 0.82613 0.0
C280 C 0.63385 0.50794 0.7366 0.0
C281 C 0.65748 0.52263 0.74846 0.0
C282 C 0.68746 0.55451 0.7242 0.0
C283 C 0.68408 0.54566 0.74228 0.0
C284 C 0.66378 0.54014 0.71239 0.0
C285 C 0.63722 0.517 0.71854 0.0
U286 U 0.57134 0.46506 0.771 0.0
O287 O 0.52381 0.43832 0.76635 0.0
O288 O 0.5485 0.41904 0.7775 0.0
C289 C 0.52306 0.41469 0.77162 0.0
C290 C 0.60597 0.48262 0.7425 0.0
C291 C 0.50633 0.38939 0.76019 0.0
C292 C 0.49968 0.36297 0.73252 0.0
C293 C 0.51615 0.3875 0.74295 0.0
C294 C 0.46351 0.34212 0.75645 0.0
C295 C 0.47326 0.34013 0.73924 0.0
C296 C 0.47994 0.36657 0.76684 0.0
C297 C 0.57116 0.49683 0.81745 0.0
C298 C 0.55366 0.47513 0.84709 0.0
C299 C 0.5547 0.51926 0.8394 0.0
C300 C 0.56598 0.51902 0.82237 0.0
C301 C 0.54852 0.49738 0.85192 0.0
C302 C 0.56481 0.47479 0.82998 0.0
C303 C 0.5841 0.49785 0.79948 0.0
O304 O 0.6078 0.46681 0.7554 0.0
O305 O 0.58329 0.4864 0.74441 0.0
O306 O 0.56972 0.49972 0.78558 0.0
O307 O 0.59441 0.48043 0.79678 0.0
H308 H 0.65549 0.51618 0.76245 0.0
H309 H 0.7021 0.55657 0.7516 0.0
H310 H 0.66597 0.54668 0.69841 0.0
H311 H 0.61934 0.50597 0.70914 0.0
H312 H 0.50753 0.36174 0.71926 0.0
H313 H 0.53648 0.4049 0.7376 0.0
H314 H 0.44323 0.32471 0.76184 0.0
H315 H 0.47203 0.36764 0.78012 0.0
H316 H 0.54909 0.45809 0.85657 0.0
H317 H 0.55095 0.53663 0.84287 0.0
H318 H 0.57085 0.53634 0.81304 0.0
H319 H 0.56858 0.45739 0.82664 0.0
C320 C 0.52323 0.13234 0.73469 0.0
C321 C 0.49989 0.12415 0.74688 0.0
C322 C 0.47385 0.13693 0.72496 0.0
C323 C 0.47537 0.12644 0.74204 0.0
C324 C 0.49715 0.14502 0.71278 0.0
C325 C 0.52162 0.14271 0.71761 0.0
U326 U 0.57049 0.11701 0.76771 0.0
O327 O 0.59642 0.09596 0.76256 0.0
O328 O 0.61856 0.14066 0.77135 0.0
C329 C 0.6216 0.11919 0.76584 0.0
C330 C 0.54948 0.13045 0.73947 0.0
C331 C 0.64636 0.12624 0.75335 0.0
C332 C 0.66618 0.12285 0.72432 0.0
C333 C 0.64213 0.11782 0.7352 0.0
C334 C 0.69891 0.14528 0.74942 0.0
C335 C 0.69472 0.13624 0.73147 0.0
C336 C 0.67499 0.1403 0.76023 0.0
C337 C 0.54221 0.09258 0.81693 0.0
C338 C 0.53256 0.05496 0.83886 0.0
C339 C 0.54551 0.10223 0.84919 0.0
C340 C 0.5478 0.11152 0.8313 0.0
C341 C 0.53729 0.07371 0.85312 0.0
C342 C 0.53492 0.06424 0.82096 0.0
C343 C 0.54059 0.10165 0.79817 0.0
O344 O 0.56739 0.14933 0.75111 0.0
O345 O 0.54512 0.10461 0.74256 0.0
O346 O 0.53664 0.08368 0.78515 0.0
O347 O 0.55897 0.12842 0.79373 0.0
H348 H 0.50072 0.11614 0.76013 0.0
H349 H 0.45766 0.12024 0.75165 0.0
H350 H 0.49646 0.15332 0.6996 0.0
H351 H 0.53942 0.14917 0.70802 0.0
H352 H 0.66252 0.11585 0.71046 0.0
H353 H 0.62028 0.10696 0.72953 0.0
H354 H 0.72071 0.15572 0.75518 0.0
H355 H 0.67882 0.14692 0.77417 0.0
H356 H 0.52612 0.03285 0.84159 0.0
H357 H 0.54916 0.11702 0.86 0.0
H358 H 0.55302 0.13333 0.82872 0.0
H359 H 0.53012 0.04893 0.81032 0.0
C360 C 0.73665 0.55558 0.98637 0.0
C361 C 0.73204 0.56092 1.00423 0.0
C362 C 0.6818 0.54833 0.99733 0.0
C363 C 0.70487 0.55738 1.00967 0.0
C364 C 0.6864 0.54319 0.97943 0.0
C365 C 0.71362 0.54685 0.97397 0.0
U366 U 0.80095 0.57383 0.95334 0.0
O367 O 0.84831 0.59461 0.95894 0.0
O368 O 0.82501 0.55065 0.94878 0.0
C369 C 0.84985 0.57172 0.95487 0.0
C370 C 0.76517 0.55822 0.98127 0.0
C371 C 0.86695 0.56375 0.96703 0.0
C372 C 0.88993 0.56556 0.99587 0.0
C373 C 0.87135 0.57139 0.98531 0.0
C374 C 0.89929 0.54384 0.97018 0.0
C375 C 0.9044 0.55214 0.98826 0.0
C376 C 0.88081 0.54962 0.95968 0.0
C377 C 0.80006 0.60174 0.90513 0.0
C378 C 0.83933 0.63475 0.885 0.0
C379 C 0.79141 0.60193 0.8729 0.0
C380 C 0.78138 0.59085 0.8902 0.0
C381 C 0.82034 0.62428 0.87018 0.0
C382 C 0.82932 0.62357 0.90232 0.0
C383 C 0.78787 0.59133 0.92344 0.0
O384 O 0.76441 0.54025 0.96912 0.0
O385 O 0.7873 0.58434 0.97896 0.0
O386 O 0.80177 0.60831 0.93698 0.0
O387 O 0.77867 0.56427 0.92702 0.0
H388 H 0.74944 0.5676 1.01404 0.0
H389 H 0.70174 0.56148 1.02351 0.0
H390 H 0.66887 0.53627 0.96971 0.0
H391 H 0.71658 0.54264 0.96012 0.0
H392 H 0.8935 0.57202 1.00983 0.0
H393 H 0.86092 0.58229 0.99133 0.0
H394 H 0.91016 0.53341 0.96407 0.0
H395 H 0.87784 0.54359 0.94563 0.0
H396 H 0.86173 0.65197 0.88319 0.0
H397 H 0.77642 0.59354 0.86167 0.0
H398 H 0.75873 0.57412 0.89199 0.0
H399 H 0.84428 0.63241 0.91353 0.0
C400 C 0.46902 0.18298 0.98577 0.0
C401 C 0.4826 0.17157 0.97495 0.0
C402 C 0.4786 0.13935 0.99923 0.0
C403 C 0.48741 0.14996 0.98166 0.0
C404 C 0.46476 0.15048 1.00995 0.0
C405 C 0.46009 0.17217 1.00329 0.0
U406 U 0.44817 0.22282 0.95052 0.0
O407 O 0.42448 0.24643 0.95476 0.0
O408 O 0.46976 0.26884 0.94451 0.0
C409 C 0.44755 0.27119 0.95057 0.0
C410 C 0.46493 0.20681 0.97952 0.0
C411 C 0.45457 0.29522 0.96291 0.0
C412 C 0.48942 0.33572 0.98082 0.0
C413 C 0.48249 0.31129 0.97076 0.0
C414 C 0.44039 0.32783 0.97603 0.0
C415 C 0.46854 0.34436 0.98329 0.0
C416 C 0.4335 0.30352 0.96588 0.0
C417 C 0.42266 0.19184 0.90315 0.0
C418 C 0.4109 0.21553 0.87938 0.0
C419 C 0.40861 0.17068 0.87351 0.0
C420 C 0.41658 0.16958 0.89131 0.0
C421 C 0.40802 0.19489 0.86653 0.0
C422 C 0.41895 0.21446 0.89723 0.0
C423 C 0.4324 0.19073 0.92158 0.0
O424 O 0.48328 0.2239 0.96711 0.0
O425 O 0.43771 0.20067 0.97682 0.0
O426 O 0.41407 0.18752 0.93463 0.0
O427 O 0.45977 0.2098 0.92522 0.0
H428 H 0.48966 0.17947 0.96138 0.0
H429 H 0.49801 0.14149 0.97318 0.0
H430 H 0.45775 0.14248 1.02351 0.0
H431 H 0.44968 0.18069 1.01189 0.0
H432 H 0.51131 0.34834 0.98627 0.0
H433 H 0.49922 0.30546 0.96874 0.0
H434 H 0.42409 0.33432 0.97771 0.0
H435 H 0.41191 0.29162 0.95992 0.0
H436 H 0.40637 0.23241 0.87618 0.0
H437 H 0.40244 0.15191 0.86551 0.0
H438 H 0.41783 0.15111 0.89587 0.0
H439 H 0.42203 0.23119 0.90647 0.0
C440 C 0.72336 0.18202 0.97894 0.0
C441 C 0.71521 0.15342 0.9753 0.0
C442 C 0.66817 0.13671 0.99041 0.0
C443 C 0.68782 0.13093 0.98103 0.0
C444 C 0.67597 0.16524 0.99358 0.0
C445 C 0.70329 0.18766 0.98791 0.0
U446 U 0.79193 0.22457 0.94836 0.0
O447 O 0.81923 0.27107 0.94433 0.0
O448 O 0.83882 0.24699 0.95582 0.0
C449 C 0.84259 0.27231 0.95163 0.0
C450 C 0.75309 0.20621 0.9747 0.0
C451 C 0.85982 0.29601 0.96438 0.0
C452 C 0.90659 0.32639 0.97926 0.0
C453 C 0.88812 0.30196 0.96929 0.0
C454 C 0.86857 0.33916 0.98009 0.0
C455 C 0.89717 0.34547 0.98444 0.0
C456 C 0.85003 0.31465 0.97015 0.0
C457 C 0.79344 0.19611 0.90073 0.0
C458 C 0.83437 0.20177 0.88224 0.0
C459 C 0.78711 0.18657 0.86856 0.0
C460 C 0.77575 0.18806 0.88531 0.0
C461 C 0.81638 0.193 0.86694 0.0
C462 C 0.82302 0.20337 0.89901 0.0
C463 C 0.77991 0.19504 0.91842 0.0
O464 O 0.7745 0.20037 0.9736 0.0
O465 O 0.75473 0.22441 0.9623 0.0
O466 O 0.77236 0.21451 0.92126 0.0
O467 O 0.79166 0.19006 0.9326 0.0
H468 H 0.73022 0.14842 0.9684 0.0
H469 H 0.68223 0.10904 0.97853 0.0
H470 H 0.66117 0.17012 1.00086 0.0
H471 H 0.70906 0.20946 0.99093 0.0
H472 H 0.92861 0.33094 0.9824 0.0
H473 H 0.89637 0.28819 0.96488 0.0
H474 H 0.86093 0.35368 0.98393 0.0
H475 H 0.82844 0.31084 0.96653 0.0
H476 H 0.85702 0.20682 0.88125 0.0
H477 H 0.77289 0.17976 0.85693 0.0
H478 H 0.75289 0.18233 0.8863 0.0
H479 H 0.83718 0.20971 0.91067 0.0
C480 C 0.56879 0.8333 0.06871 0.0
C481 C 0.59313 0.86119 0.06712 0.0
C482 C 0.56117 0.87919 0.0574 0.0
C483 C 0.58933 0.88397 0.06144 0.0
C484 C 0.53705 0.85138 0.05871 0.0
C485 C 0.54083 0.82868 0.06422 0.0
U486 U 0.58488 0.79134 0.10456 0.0
O487 O 0.56026 0.74527 0.11094 0.0
O488 O 0.60639 0.76546 0.10237 0.0
C489 C 0.58208 0.74141 0.10613 0.0
C490 C 0.57174 0.80859 0.07469 0.0
C491 C 0.57431 0.71678 0.09419 0.0
C492 C 0.58037 0.69622 0.06652 0.0
C493 C 0.58705 0.72019 0.07702 0.0
C494 C 0.5476 0.66519 0.0899 0.0
C495 C 0.56077 0.66857 0.07297 0.0
C496 C 0.55438 0.68909 0.10043 0.0
C497 C 0.60739 0.8243 0.15198 0.0
C498 C 0.62785 0.80897 0.17604 0.0
C499 C 0.61435 0.84508 0.18173 0.0
C500 C 0.60506 0.84307 0.16394 0.0
C501 C 0.62617 0.82835 0.18785 0.0
C502 C 0.6185 0.80695 0.15817 0.0
C503 C 0.59907 0.82418 0.13306 0.0
O504 O 0.5983 0.81338 0.07828 0.0
O505 O 0.55194 0.79129 0.08639 0.0
O506 O 0.57184 0.80546 0.1289 0.0
O507 O 0.61824 0.8263 0.12089 0.0
H508 H 0.61502 0.86546 0.07032 0.0
H509 H 0.6082 0.9053 0.06041 0.0
H510 H 0.51518 0.84727 0.05556 0.0
H511 H 0.52176 0.80744 0.06508 0.0
H512 H 0.59074 0.69918 0.05347 0.0
H513 H 0.60242 0.74127 0.07181 0.0
H514 H 0.53249 0.64401 0.09509 0.0
H515 H 0.54433 0.68591 0.11361 0.0
H516 H 0.63691 0.79589 0.18057 0.0
H517 H 0.61289 0.86012 0.19065 0.0
H518 H 0.5965 0.85658 0.15941 0.0
H519 H 0.62038 0.79226 0.14914 0.0
C520 C 0.29528 0.84066 0.06842 0.0
C521 C 0.31546 0.86005 0.08081 0.0
C522 C 0.3506 0.88498 0.05659 0.0
C523 C 0.34295 0.88206 0.07493 0.0
C524 C 0.33008 0.86609 0.04417 0.0
C525 C 0.30266 0.84409 0.05006 0.0
U526 U 0.23323 0.79861 0.10317 0.0
O527 O 0.18544 0.77334 0.09866 0.0
O528 O 0.20912 0.7524 0.1089 0.0
C529 C 0.18397 0.7491 0.10321 0.0
C530 C 0.26705 0.81604 0.07432 0.0
C531 C 0.16663 0.72446 0.09135 0.0
C532 C 0.16248 0.69346 0.06646 0.0
C533 C 0.17929 0.71825 0.07663 0.0
C534 C 0.12018 0.6813 0.08535 0.0
C535 C 0.13287 0.67468 0.0709 0.0
C536 C 0.13691 0.70598 0.09547 0.0
C537 C 0.2361 0.82939 0.15058 0.0
C538 C 0.22113 0.80825 0.18059 0.0
C539 C 0.22139 0.85215 0.17338 0.0
C540 C 0.23124 0.85161 0.15596 0.0
C541 C 0.21634 0.83054 0.18587 0.0
C542 C 0.23086 0.80762 0.16309 0.0
C543 C 0.24793 0.83033 0.13226 0.0
O544 O 0.2686 0.79952 0.08682 0.0
O545 O 0.24535 0.82109 0.07697 0.0
O546 O 0.23347 0.83332 0.11881 0.0
O547 O 0.2571 0.8122 0.1288 0.0
H548 H 0.31018 0.8578 0.09504 0.0
H549 H 0.35854 0.89639 0.08471 0.0
H550 H 0.33562 0.86796 0.03 0.0
H551 H 0.28739 0.82936 0.04029 0.0
H552 H 0.17268 0.68861 0.0554 0.0
H553 H 0.20221 0.73224 0.07323 0.0
H554 H 0.09744 0.66702 0.08902 0.0
H555 H 0.12676 0.71034 0.10678 0.0
H556 H 0.21743 0.79142 0.19004 0.0
H557 H 0.2179 0.86956 0.17719 0.0
H558 H 0.23534 0.86878 0.14668 0.0
H559 H 0.23449 0.79024 0.15944 0.0
C560 C 0.18941 0.46418 0.06776 0.0
C561 C 0.17934 0.45868 0.04993 0.0
C562 C 0.14115 0.47008 0.057 0.0
C563 C 0.15539 0.46156 0.04459 0.0
C564 C 0.15093 0.47525 0.07489 0.0
C565 C 0.1748 0.47223 0.08026 0.0
U566 U 0.23598 0.44826 0.10104 0.0
O567 O 0.26264 0.42792 0.09603 0.0
O568 O 0.28379 0.47217 0.10563 0.0
C569 C 0.28742 0.45101 0.10019 0.0
C570 C 0.21573 0.4624 0.07277 0.0
C571 C 0.31321 0.45859 0.08857 0.0
C572 C 0.33662 0.46375 0.05932 0.0
C573 C 0.31181 0.45814 0.06966 0.0
C574 C 0.36436 0.47073 0.08663 0.0
C575 C 0.36299 0.46969 0.06778 0.0
C576 C 0.33977 0.46526 0.09689 0.0
C577 C 0.20521 0.42135 0.1495 0.0
C578 C 0.19988 0.38419 0.17061 0.0
C579 C 0.20201 0.42716 0.18185 0.0
C580 C 0.20503 0.43759 0.16419 0.0
C581 C 0.19884 0.40014 0.18518 0.0
C582 C 0.203 0.39465 0.15294 0.0
C583 C 0.20446 0.43121 0.13086 0.0
O584 O 0.23334 0.48097 0.08467 0.0
O585 O 0.21168 0.43658 0.0754 0.0
O586 O 0.20146 0.41395 0.11759 0.0
O587 O 0.22285 0.45824 0.12703 0.0
H588 H 0.19027 0.45249 0.04006 0.0
H589 H 0.14823 0.45758 0.03072 0.0
H590 H 0.14024 0.48188 0.08465 0.0
H591 H 0.18206 0.47653 0.0941 0.0
H592 H 0.33512 0.46292 0.04478 0.0
H593 H 0.29153 0.45306 0.06295 0.0
H594 H 0.38443 0.47529 0.09344 0.0
H595 H 0.34136 0.46571 0.11143 0.0
H596 H 0.19744 0.36327 0.17288 0.0
H597 H 0.20122 0.43979 0.19288 0.0
H598 H 0.20634 0.45804 0.16199 0.0
H599 H 0.20285 0.38143 0.14199 0.0
C600 C 0.40557 0.89592 0.32238 0.0
C601 C 0.38202 0.88579 0.31024 0.0
C602 C 0.3501 0.88684 0.33372 0.0
C603 C 0.35451 0.88121 0.31589 0.0
C604 C 0.37369 0.89729 0.34578 0.0
C605 C 0.40114 0.90176 0.34015 0.0
U606 U 0.46986 0.91589 0.28895 0.0
O607 O 0.51759 0.93901 0.29415 0.0
O608 O 0.4959 0.89477 0.28455 0.0
C609 C 0.52046 0.91686 0.29013 0.0
C610 C 0.4345 0.89957 0.31713 0.0
C611 C 0.53935 0.91083 0.30202 0.0
C612 C 0.54644 0.8827 0.32521 0.0
C613 C 0.52782 0.88952 0.31548 0.0
C614 C 0.5883 0.91883 0.30851 0.0
C615 C 0.57681 0.897 0.32157 0.0
C616 C 0.56977 0.92567 0.29887 0.0
C617 C 0.46515 0.94277 0.24056 0.0
C618 C 0.4861 0.98265 0.21911 0.0
C619 C 0.46265 0.93409 0.20818 0.0
C620 C 0.45676 0.92377 0.22596 0.0
C621 C 0.47682 0.96361 0.2046 0.0
C622 C 0.48026 0.97238 0.23688 0.0
C623 C 0.45468 0.93192 0.25919 0.0
O624 O 0.43438 0.88175 0.30509 0.0
O625 O 0.45592 0.92599 0.31462 0.0
O626 O 0.46845 0.94931 0.27258 0.0
O627 O 0.44705 0.90521 0.26284 0.0
H628 H 0.3848 0.88115 0.29645 0.0
H629 H 0.33658 0.87313 0.30639 0.0
H630 H 0.37072 0.9017 0.35959 0.0
H631 H 0.4189 0.9095 0.34977 0.0
H632 H 0.53712 0.86576 0.33522 0.0
H633 H 0.50442 0.87774 0.31815 0.0
H634 H 0.61158 0.93009 0.30545 0.0
H635 H 0.57917 0.9421 0.28854 0.0
H636 H 0.49694 1.0055 0.21666 0.0
H637 H 0.45519 0.91901 0.19718 0.0
H638 H 0.44467 0.90087 0.22821 0.0
H639 H 0.48665 0.98768 0.2477 0.0
C640 C 0.13929 0.5223 0.31711 0.0
C641 C 0.13825 0.50233 0.30466 0.0
C642 C 0.14827 0.47739 0.32855 0.0
C643 C 0.14277 0.48002 0.31034 0.0
C644 C 0.14913 0.49729 0.34096 0.0
C645 C 0.14468 0.51956 0.33528 0.0
U646 U 0.11619 0.56129 0.28307 0.0
O647 O 0.09153 0.58377 0.28791 0.0
O648 O 0.13645 0.60729 0.27718 0.0
C649 C 0.1138 0.6088 0.28328 0.0
C650 C 0.13485 0.5461 0.31156 0.0
C651 C 0.12058 0.63271 0.29551 0.0
C652 C 0.1452 0.66156 0.32175 0.0
C653 C 0.1377 0.63759 0.311 0.0
C654 C 0.11801 0.67552 0.30185 0.0
C655 C 0.13559 0.68081 0.31712 0.0
C656 C 0.11057 0.65166 0.29115 0.0
C657 C 0.08791 0.52916 0.23618 0.0
C658 C 0.05522 0.53637 0.21644 0.0
C659 C 0.08429 0.51679 0.20447 0.0
C660 C 0.09643 0.51867 0.2215 0.0
C661 C 0.06327 0.52523 0.20187 0.0
C662 C 0.0675 0.53841 0.23346 0.0
C663 C 0.09965 0.52907 0.25422 0.0
O664 O 0.15243 0.56303 0.29883 0.0
O665 O 0.10742 0.53963 0.30942 0.0
O666 O 0.08214 0.52498 0.26796 0.0
O667 O 0.127 0.54893 0.25715 0.0
H668 H 0.13403 0.50406 0.29058 0.0
H669 H 0.14207 0.46487 0.30058 0.0
H670 H 0.15335 0.4956 0.35505 0.0
H671 H 0.14552 0.53473 0.34508 0.0
H672 H 0.15893 0.66543 0.33343 0.0
H673 H 0.14564 0.62319 0.31458 0.0
H674 H 0.11055 0.69021 0.29803 0.0
H675 H 0.09738 0.64826 0.27924 0.0
H676 H 0.03907 0.54303 0.21468 0.0
H677 H 0.09081 0.50819 0.19339 0.0
H678 H 0.11214 0.51146 0.22328 0.0
H679 H 0.06068 0.54674 0.24454 0.0
C680 C 0.39858 0.50932 0.31645 0.0
C681 C 0.39543 0.48327 0.32251 0.0
C682 C 0.3444 0.46619 0.33221 0.0
C683 C 0.36863 0.46182 0.32966 0.0
C684 C 0.34691 0.49089 0.32366 0.0
C685 C 0.37366 0.51239 0.31655 0.0
U686 U 0.46597 0.55279 0.28458 0.0
O687 O 0.49068 0.59925 0.27945 0.0
O688 O 0.51283 0.5781 0.29167 0.0
C689 C 0.51485 0.60249 0.28683 0.0
C690 C 0.42776 0.53398 0.3113 0.0
C691 C 0.53104 0.62756 0.29883 0.0
C692 C 0.56304 0.65106 0.32451 0.0
C693 C 0.54483 0.62614 0.31475 0.0
C694 C 0.55359 0.67908 0.30286 0.0
C695 C 0.56789 0.67778 0.31844 0.0
C696 C 0.53547 0.65432 0.29316 0.0
C697 C 0.46859 0.52359 0.2373 0.0
C698 C 0.486 0.54528 0.20763 0.0
C699 C 0.48334 0.50029 0.2149 0.0
C700 C 0.47275 0.50087 0.2321 0.0
C701 C 0.48986 0.52237 0.20247 0.0
C702 C 0.47552 0.54594 0.2249 0.0
C703 C 0.4551 0.52228 0.25512 0.0
O704 O 0.45008 0.52946 0.31029 0.0
O705 O 0.42816 0.55117 0.29856 0.0
O706 O 0.44553 0.54027 0.2579 0.0
O707 O 0.46812 0.51894 0.26926 0.0
H708 H 0.41374 0.47942 0.3219 0.0
H709 H 0.36735 0.44176 0.33303 0.0
H710 H 0.3285 0.49417 0.32196 0.0
H711 H 0.37483 0.53166 0.31123 0.0
H712 H 0.57393 0.64964 0.33649 0.0
H713 H 0.54218 0.60595 0.31943 0.0
H714 H 0.55708 0.69948 0.29794 0.0
H715 H 0.52556 0.65624 0.28085 0.0
H716 H 0.49085 0.5625 0.19822 0.0
H717 H 0.4861 0.4824 0.21119 0.0
H718 H 0.46734 0.48325 0.24129 0.0
H719 H 0.47245 0.56372 0.22842 0.0
Gd720 Gd 0.52201 0.0174 0.05362 0.0
Gd721 Gd 0.50814 0.99759 1.00647 0.0
C722 C 0.42681 0.91388 0.99032 0.0
C723 C 0.44834 0.88859 0.97559 0.0
C724 C 0.47964 0.93543 0.98864 0.0
C725 C 0.45523 0.93654 0.99421 0.0
C726 C 0.47652 0.91189 0.97871 0.0
C727 C 0.4235 0.8895 0.98151 0.0
C728 C 0.40268 0.91706 0.99456 0.0
C729 C 0.40737 0.94303 1.0014 0.0
N730 N 0.45933 0.96094 1.00194 0.0
C731 C 0.43605 0.96509 1.00457 0.0
H732 H 0.43949 0.98515 1.00962 0.0
C733 C 0.53118 0.95971 0.9848 0.0
N734 N 0.50651 0.95822 0.992 0.0
C735 C 0.52921 0.93705 0.97466 0.0
C736 C 0.50177 0.91289 0.97175 0.0
H737 H 0.55242 0.97843 0.98691 0.0
H738 H 0.40186 0.87177 0.97855 0.0
H739 H 0.57915 1.00614 0.03794 0.0
H740 H 0.38048 0.90011 0.99191 0.0
H741 H 0.38895 0.94614 1.00416 0.0
H742 H 0.44549 0.87012 0.96821 0.0
H743 H 0.52436 0.07909 0.06529 0.0
H744 H 0.64359 0.03562 0.07925 0.0
H745 H 0.62382 0.01015 0.05065 0.0
H746 H 0.6226 0.09861 0.1126 0.0
H747 H 0.54883 0.93822 0.96915 0.0
H748 H 0.5003 0.89535 0.96393 0.0
H749 H 0.64242 0.06814 0.10281 0.0
H750 H 0.54924 0.11666 0.08779 0.0
N751 N 0.57067 0.02618 0.06018 0.0
C752 C 0.62328 0.03323 0.074 0.0
C753 C 0.61226 0.01896 0.05783 0.0
C754 C 0.60946 0.04656 0.08227 0.0
C755 C 0.58309 0.04283 0.07483 0.0
C756 C 0.58645 0.01643 0.05078 0.0
N757 N 0.55032 0.05955 0.07027 0.0
C758 C 0.57246 0.06041 0.08005 0.0
C759 C 0.55611 0.10104 0.08571 0.0
C760 C 0.57822 0.10154 0.0963 0.0
C761 C 0.54237 0.07986 0.07267 0.0
C762 C 0.58717 0.0815 0.09325 0.0
H763 H 0.58891 0.11805 0.10633 0.0
O764 O 0.49037 0.02334 0.06928 0.0
O765 O 0.48664 0.99244 0.03322 0.0
O766 O 0.48997 0.02701 1.01276 0.0
O767 O 0.5138 0.05009 0.03908 0.0
O768 O 0.48615 0.97179 0.05674 0.0
O769 O 0.51124 1.00136 0.08108 0.0
O770 O 0.53187 0.01521 0.98114 0.0
O771 O 0.53838 0.03263 0.02541 0.0
O772 O 0.53018 0.98058 0.05013 0.0
O773 O 0.51795 0.96479 1.02051 0.0
O774 O 0.5577 0.02019 1.00665 0.0
O775 O 0.48997 0.01205 0.98525 0.0
C776 C 0.47235 0.9691 0.04206 0.0
C777 C 0.61135 0.08293 0.10218 0.0
C778 C 0.62255 0.06548 0.09666 0.0
C779 C 0.49306 0.01078 0.08361 0.0
C780 C 0.49304 0.02253 0.10164 0.0
C781 C 0.49096 0.04736 0.10348 0.0
C782 C 0.49245 1.00727 0.11732 0.0
C783 C 0.49016 0.01697 0.13451 0.0
C784 C 0.48961 0.05743 0.12051 0.0
C785 C 0.48916 0.04236 0.13593 0.0
C786 C 0.49849 0.04818 0.02443 0.0
C787 C 0.56327 0.03925 1.01873 0.0
C788 C 0.51119 0.01834 0.97389 0.0
C789 C 0.50276 1.00817 0.9552 0.0
C790 C 0.48117 0.97972 0.95195 0.0
C791 C 0.51556 0.02709 0.94044 0.0
C792 C 0.50669 0.01734 0.9227 0.0
C793 C 0.47283 0.96996 0.93444 0.0
C794 C 0.48547 0.98861 0.91989 0.0
C795 C 0.52588 0.96208 0.03721 0.0
H796 H 0.48995 0.05885 0.0918 0.0
H797 H 0.49283 0.98746 0.11618 0.0
H798 H 0.48824 0.0767 0.12175 0.0
H799 H 0.48734 0.05014 0.149 0.0
H800 H 0.47033 0.96511 0.96292 0.0
H801 H 0.53185 0.04928 0.94272 0.0
H802 H 0.45618 0.94792 0.93215 0.0
H803 H 0.47834 0.98076 0.90639 0.0
Gd804 Gd 0.99967 0.50117 0.04963 0.0
Gd805 Gd 0.03822 0.5175 1.00521 0.0
C806 C 0.12488 0.51706 1.00099 0.0
C807 C 0.16013 0.56737 0.99605 0.0
C808 C 0.10805 0.55119 0.99881 0.0
C809 C 0.10208 0.52361 1.00169 0.0
C810 C 0.13698 0.57325 0.99521 0.0
C811 C 0.15407 0.53925 0.99891 0.0
C812 C 0.11751 0.48833 1.00147 0.0
C813 C 0.08799 0.46705 1.00163 0.0
N814 N 0.07359 0.50278 1.0033 0.0
C815 C 0.0662 0.4747 1.00225 0.0
H816 H 0.04353 0.45796 1.00229 0.0
C817 C 0.08898 0.58079 0.99034 0.0
N818 N 0.08504 0.55572 0.99745 0.0
C819 C 0.11726 0.6036 0.98695 0.0
C820 C 0.14148 0.60003 0.98982 0.0
H821 H 0.07022 0.58326 0.98759 0.0
H822 H 0.17194 0.53471 0.99869 0.0
H823 H 0.99115 0.55886 0.05216 0.0
H824 H 0.13434 0.48236 1.001 0.0
H825 H 0.08196 0.44473 1.00138 0.0
H826 H 0.18258 0.58412 0.99362 0.0
H827 H 0.97035 0.43587 0.06779 0.0
H828 H 0.89935 0.53064 0.05215 0.0
H829 H 0.95106 0.5699 0.05205 0.0
H830 H 0.85526 0.42943 0.06106 0.0
H831 H 0.12033 0.62378 0.98193 0.0
H832 H 0.16335 0.61757 0.98693 0.0
H833 H 0.86354 0.47783 0.05502 0.0
H834 H 0.92111 0.39425 0.07394 0.0
N835 N 0.96269 0.51378 0.05116 0.0
C836 C 0.91691 0.52567 0.05205 0.0
C837 C 0.94605 0.54787 0.05206 0.0
C838 C 0.91086 0.49735 0.05299 0.0
C839 C 0.93458 0.49213 0.05278 0.0
C840 C 0.96878 0.54149 0.05199 0.0
N841 N 0.95375 0.4619 0.0578 0.0
C842 C 0.92993 0.46512 0.05619 0.0
C843 C 0.92322 0.41395 0.06874 0.0
C844 C 0.89823 0.41617 0.06567 0.0
C845 C 0.95102 0.43745 0.06516 0.0
C846 C 0.90144 0.44229 0.05986 0.0
H847 H 0.87672 0.39807 0.06863 0.0
O848 O 1.01123 0.49074 0.07557 0.0
O849 O 0.0384 0.50617 0.03404 0.0
O850 O 1.00584 0.46967 1.00859 0.0
O851 O 0.97332 0.46204 0.03242 0.0
O852 O 0.02225 0.47525 0.05388 0.0
O853 O 1.01044 0.53009 0.07218 0.0
O854 O 0.02778 0.52962 0.97949 0.0
O855 O 0.9994 0.5126 1.02072 0.0
O856 O 0.03079 0.54916 0.04578 0.0
O857 O 0.06448 0.55635 1.02277 0.0
O858 O 1.01687 0.54447 1.00142 0.0
O859 O 0.0263 0.4891 0.98226 0.0
C860 C 0.04254 0.4875 0.04185 0.0
C861 C 0.87739 0.44678 0.05858 0.0
C862 C 0.88211 0.47433 0.05514 0.0
C863 C 1.01374 0.51333 0.08341 0.0
C864 C 0.99952 0.50889 0.10112 0.0
C865 C 0.96957 0.50009 0.10251 0.0
C866 C 1.01612 0.51353 0.11684 0.0
C867 C 1.00285 0.50945 0.13388 0.0
C868 C 0.95636 0.49603 0.11941 0.0
C869 C 0.97286 0.50068 0.13503 0.0
C870 C 0.981 0.45369 1.01763 0.0
C871 C 0.99608 0.53197 1.01313 0.0
C872 C 0.02413 0.50685 0.97131 0.0
C873 C 0.0386 0.51143 0.95367 0.0
C874 C 0.06878 0.52119 0.95249 0.0
C875 C 0.02216 0.50635 0.93783 0.0
C876 C 0.03592 0.51138 0.92087 0.0
C877 C 0.08244 0.52598 0.93569 0.0
C878 C 0.06617 0.52116 0.91996 0.0
C879 C 0.05605 0.56502 0.03713 0.0
H880 H 0.95646 0.49641 0.09056 0.0
H881 H 0.03926 0.52023 0.11586 0.0
H882 H 0.93325 0.48924 0.12042 0.0
H883 H 0.96226 0.49736 0.14804 0.0
H884 H 0.08174 0.52511 0.96452 0.0
H885 H 0.99881 0.49875 0.93867 0.0
H886 H 0.10574 0.53354 0.93487 0.0
H887 H 0.07719 0.52517 0.90706 0.0
Gd888 Gd 0.50681 0.51583 1.00454 0.0
Gd889 Gd 0.53003 0.50009 0.04874 0.0
C890 C 0.61554 0.49761 0.05404 0.0
C891 C 0.59764 0.44736 0.06038 0.0
C892 C 0.56336 0.46473 0.0563 0.0
C893 C 0.58628 0.49181 0.05295 0.0
C894 C 0.5687 0.44227 0.06059 0.0
C895 C 0.62107 0.47506 0.05717 0.0
C896 C 0.63826 0.52604 0.05271 0.0
C897 C 0.6314 0.54781 0.05119 0.0
N898 N 0.57999 0.51299 0.05028 0.0
C899 C 0.60198 0.54082 0.05035 0.0
H900 H 0.59686 0.55762 0.04956 0.0
C901 C 0.51329 0.43618 0.06381 0.0
N902 N 0.53598 0.46106 0.05708 0.0
C903 C 0.51722 0.41298 0.06784 0.0
C904 C 0.54498 0.41586 0.06589 0.0
H905 H 0.49201 0.4341 0.0659 0.0
H906 H 0.64337 0.479 0.05776 0.0
H907 H 0.43732 0.46295 1.00385 0.0
H908 H 0.66104 0.53144 0.05342 0.0
H909 H 0.64872 0.56996 0.05069 0.0
H910 H 0.60219 0.43032 0.06344 0.0
H911 H 0.55188 0.58272 0.98959 0.0
H912 H 0.38098 0.49896 1.00273 0.0
H913 H 0.38736 0.45658 1.00434 0.0
H914 H 0.44846 0.5985 0.9917 0.0
H915 H 0.49892 0.39303 0.07265 0.0
H916 H 0.54811 0.39803 0.06928 0.0
H917 H 0.4041 0.55219 0.99809 0.0
H918 H 0.5499 0.62655 0.9828 0.0
N919 N 0.45872 0.50818 1.00356 0.0
C920 C 0.40288 0.5018 1.00278 0.0
C921 C 0.40638 0.47784 1.00369 0.0
C922 C 0.42767 0.529 1.00091 0.0
C923 C 0.45563 0.53141 1.00108 0.0
C924 C 0.43466 0.48148 1.00367 0.0
N925 N 0.50658 0.55811 0.99653 0.0
C926 C 0.48037 0.55723 0.99722 0.0
C927 C 0.5302 0.60722 0.98693 0.0
C928 C 0.50363 0.60703 0.98856 0.0
C929 C 0.53122 0.58233 0.99071 0.0
C930 C 0.47817 0.5817 0.99347 0.0
H931 H 0.50289 0.62633 0.98559 0.0
O932 O 0.52739 0.52296 0.97818 0.0
O933 O 0.54172 0.51334 1.02011 0.0
O934 O 0.54495 0.54779 0.04553 0.0
O935 O 0.51837 0.55358 1.02233 0.0
O936 O 0.55516 0.53921 0.99775 0.0
O937 O 0.48391 0.48663 0.9826 0.0
O938 O 0.50701 0.48973 0.07448 0.0
O939 O 0.49516 0.50324 0.0335 0.0
O940 O 0.48855 0.46803 1.00866 0.0
O941 O 0.51698 0.46185 0.03068 0.0
O942 O 0.48134 0.47099 0.05244 0.0
O943 O 0.54805 0.52923 0.07133 0.0
C944 C 0.56429 0.52996 1.01075 0.0
C945 C 0.45059 0.57988 0.99435 0.0
C946 C 0.42536 0.55354 0.99805 0.0
C947 C 0.50474 0.50129 0.97091 0.0
C948 C 0.49599 0.50639 0.9531 0.0
C949 C 0.47593 0.5162 0.95146 0.0
C950 C 0.50836 0.50191 0.9375 0.0
C951 C 0.5008 0.50731 0.92035 0.0
C952 C 0.46825 0.52139 0.93445 0.0
C953 C 0.48058 0.517 0.91898 0.0
C954 C 0.53477 0.56277 0.03692 0.0
C955 C 0.47242 0.48274 0.04086 0.0
C956 C 0.52718 0.51249 0.08241 0.0
C957 C 0.53622 0.50812 0.10035 0.0
C958 C 0.55599 0.49799 0.10208 0.0
C959 C 0.52463 0.51369 0.11593 0.0
C960 C 0.53267 0.50894 0.13314 0.0
C961 C 0.56409 0.4934 0.11911 0.0
C962 C 0.55251 0.49879 0.13456 0.0
C963 C 0.49903 0.45293 1.01662 0.0
H964 H 0.46629 0.51989 0.96329 0.0
H965 H 0.52397 0.49444 0.93868 0.0
H966 H 0.45275 0.52895 0.93326 0.0
H967 H 0.47447 0.52127 0.9059 0.0
H968 H 0.56513 0.4936 0.09028 0.0
H969 H 0.5093 0.52149 0.11471 0.0
H970 H 0.57935 0.48556 0.12035 0.0
H971 H 0.55897 0.49501 0.14765 0.0
Gd972 Gd 0.1933 0.35991 0.38521 0.0
Gd973 Gd 0.17433 0.32988 0.33866 0.0
C974 C 0.0898 0.24428 0.33047 0.0
C975 C 0.10861 0.21268 0.32289 0.0
C976 C 0.14216 0.26311 0.32851 0.0
C977 C 0.11886 0.26711 0.33221 0.0
C978 C 0.13737 0.23609 0.32319 0.0
C979 C 0.08481 0.2168 0.32647 0.0
C980 C 0.06676 0.25007 0.33193 0.0
C981 C 0.07317 0.27827 0.33413 0.0
N982 N 0.12464 0.29404 0.33569 0.0
C983 C 0.10244 0.30012 0.33562 0.0
H984 H 0.10727 0.32176 0.33692 0.0
C985 C 0.19235 0.28488 0.32089 0.0
N986 N 0.16937 0.28645 0.32825 0.0
C987 C 0.18896 0.25847 0.31584 0.0
C988 C 0.16143 0.23382 0.31736 0.0
H989 H 0.21347 0.30397 0.31926 0.0
H990 H 0.06266 0.19887 0.32541 0.0
H991 H 0.26124 0.37107 0.38942 0.0
H992 H 0.04412 0.23316 0.33073 0.0
H993 H 0.05563 0.28322 0.33466 0.0
H994 H 0.10447 0.19164 0.31908 0.0
H995 H 0.14835 0.38293 0.40008 0.0
H996 H 0.31991 0.46014 0.3986 0.0
H997 H 0.31133 0.41105 0.39492 0.0
H998 H 0.25454 0.49673 0.40723 0.0
H999 H 0.20749 0.25721 0.31062 0.0
H1000 H 0.15873 0.21344 0.31319 0.0
H1001 H 0.29844 0.49223 0.40273 0.0
H1002 H 0.15136 0.42821 0.40924 0.0
N1003 N 0.24171 0.39723 0.38973 0.0
C1004 C 0.29787 0.44266 0.39622 0.0
C1005 C 0.29314 0.41501 0.39409 0.0
C1006 C 0.27381 0.44702 0.39651 0.0
C1007 C 0.24557 0.42339 0.39363 0.0
C1008 C 0.26474 0.39241 0.39091 0.0
N1009 N 0.1943 0.40183 0.39532 0.0
C1010 C 0.22102 0.42575 0.39667 0.0
C1011 C 0.17112 0.42785 0.40566 0.0
C1012 C 0.19836 0.45298 0.40611 0.0
C1013 C 0.16951 0.40221 0.40054 0.0
C1014 C 0.22382 0.45204 0.40195 0.0
H1015 H 0.19956 0.47278 0.41017 0.0
O1016 O 0.16976 0.34439 0.41065 0.0
O1017 O 0.15987 0.3261 0.36737 0.0
O1018 O 0.1606 0.36365 0.34331 0.0
O1019 O 0.18461 0.39006 0.36883 0.0
O1020 O 0.14439 0.33714 0.38946 0.0
O1021 O 0.21161 0.34666 0.40695 0.0
O1022 O 0.1982 0.34479 0.3133 0.0
O1023 O 0.20759 0.36368 0.35641 0.0
O1024 O 0.21154 0.33019 0.3795 0.0
O1025 O 0.18614 0.30142 0.35481 0.0
O1026 O 0.22356 0.34994 0.33578 0.0
O1027 O 0.15691 0.34368 0.3167 0.0
C1028 C 0.13643 0.32063 0.37573 0.0
C1029 C 0.25191 0.47624 0.40341 0.0
C1030 C 0.2769 0.47371 0.40075 0.0
C1031 C 0.19046 0.34154 0.41821 0.0
C1032 C 0.19912 0.35334 0.43648 0.0
C1033 C 0.22001 0.3823 0.43886 0.0
C1034 C 0.18624 0.33569 0.45172 0.0
C1035 C 0.19427 0.34705 0.46917 0.0
C1036 C 0.22798 0.39356 0.45613 0.0
C1037 C 0.21519 0.37609 0.47121 0.0
C1038 C 0.16996 0.3866 0.35375 0.0
C1039 C 0.23113 0.3673 0.34912 0.0
C1040 C 0.17803 0.34829 0.30556 0.0
C1041 C 0.1692 0.33619 0.28736 0.0
C1042 C 0.15102 0.3066 0.28517 0.0
C1043 C 0.17896 0.35415 0.27202 0.0
C1044 C 0.1705 0.34244 0.25466 0.0
C1045 C 0.14276 0.29499 0.26801 0.0
C1046 C 0.15238 0.31276 0.25284 0.0
C1047 C 0.20245 0.30695 0.36948 0.0
H1048 H 0.23017 0.39622 0.4274 0.0
H1049 H 0.16998 0.31331 0.45004 0.0
H1050 H 0.24409 0.41593 0.45783 0.0
H1051 H 0.22156 0.38522 0.48451 0.0
H1052 H 0.14314 0.29247 0.29672 0.0
H1053 H 0.19289 0.37705 0.27355 0.0
H1054 H 0.12872 0.27214 0.26647 0.0
H1055 H 0.14558 0.30338 0.23963 0.0
Gd1056 Gd 0.66399 0.83432 0.38225 0.0
Gd1057 Gd 0.70534 0.85371 0.33925 0.0
C1058 C 0.79054 0.85062 0.33818 0.0
C1059 C 0.82727 0.90106 0.33668 0.0
C1060 C 0.77528 0.88608 0.33633 0.0
C1061 C 0.7681 0.85775 0.33805 0.0
C1062 C 0.80493 0.9079 0.33484 0.0
C1063 C 0.82008 0.87243 0.33832 0.0
C1064 C 0.78269 0.82182 0.33719 0.0
C1065 C 0.75325 0.80112 0.33519 0.0
N1066 N 0.73927 0.83709 0.33789 0.0
C1067 C 0.73176 0.80915 0.3354 0.0
H1068 H 0.70933 0.79258 0.33393 0.0
C1069 C 0.75921 0.91826 0.32799 0.0
N1070 N 0.75325 0.89198 0.33419 0.0
C1071 C 0.7882 0.9407 0.32663 0.0
C1072 C 0.81119 0.93568 0.33055 0.0
H1073 H 0.74151 0.92205 0.32466 0.0
H1074 H 0.83754 0.86732 0.33884 0.0
H1075 H 0.64815 0.8865 0.38502 0.0
H1076 H 0.79924 0.81547 0.33718 0.0
H1077 H 0.747 0.77884 0.33376 0.0
H1078 H 0.85016 0.91759 0.33592 0.0
H1079 H 0.64034 0.76539 0.39245 0.0
H1080 H 0.55484 0.84983 0.3876 0.0
H1081 H 0.60454 0.89249 0.38617 0.0
H1082 H 0.52085 0.74974 0.39486 0.0
H1083 H 0.79278 0.96178 0.32245 0.0
H1084 H 0.83366 0.95302 0.3293 0.0
H1085 H 0.52371 0.79636 0.39085 0.0
H1086 H 0.5936 0.72098 0.39832 0.0
N1087 N 0.6234 0.84131 0.38405 0.0
C1088 C 0.57391 0.84717 0.38673 0.0
C1089 C 0.6019 0.87129 0.38591 0.0
C1090 C 0.571 0.81997 0.38744 0.0
C1091 C 0.59657 0.81778 0.38627 0.0
C1092 C 0.62655 0.86788 0.38496 0.0
N1093 N 0.62035 0.79091 0.38847 0.0
C1094 C 0.59501 0.79174 0.3888 0.0
C1095 C 0.59367 0.74074 0.39564 0.0
C1096 C 0.56733 0.74111 0.39543 0.0
C1097 C 0.62016 0.76601 0.39236 0.0
C1098 C 0.56778 0.76688 0.3922 0.0
H1099 H 0.54685 0.72151 0.398 0.0
O1100 O 0.67464 0.82394 0.40844 0.0
O1101 O 0.70359 0.83983 0.36759 0.0
O1102 O 0.67541 0.8054 0.34312 0.0
O1103 O 0.63796 0.79962 0.36195 0.0
O1104 O 0.6873 0.80931 0.38749 0.0
O1105 O 0.67065 0.86175 0.40515 0.0
O1106 O 0.67299 0.83643 0.31782 0.0
O1107 O 0.66684 0.85055 0.35402 0.0
O1108 O 0.69483 0.88266 0.38084 0.0
O1109 O 0.72866 0.89218 0.35751 0.0
O1110 O 0.68802 0.88439 0.33642 0.0
O1111 O 0.71875 0.85849 0.31108 0.0
C1112 C 0.70781 0.82143 0.37565 0.0
C1113 C 0.54202 0.76864 0.39245 0.0
C1114 C 0.54363 0.79516 0.39009 0.0
C1115 C 0.67501 0.84559 0.41636 0.0
C1116 C 0.66027 0.83982 0.43397 0.0
C1117 C 0.62981 0.82841 0.43525 0.0
C1118 C 0.67695 0.84554 0.44975 0.0
C1119 C 0.66325 0.83972 0.46675 0.0
C1120 C 0.61616 0.82276 0.45211 0.0
C1121 C 0.63274 0.82834 0.46779 0.0
C1122 C 0.64738 0.79099 0.34809 0.0
C1123 C 0.66598 0.87191 0.34736 0.0
C1124 C 0.69217 0.84645 0.30491 0.0
C1125 C 0.68652 0.8615 0.29024 0.0
C1126 C 0.69232 0.88966 0.29249 0.0
C1127 C 0.67521 0.84764 0.27376 0.0
C1128 C 0.66982 0.86195 0.2597 0.0
C1129 C 0.68671 0.90373 0.27861 0.0
C1130 C 0.67556 0.89 0.26228 0.0
C1131 C 0.72003 0.89947 0.37235 0.0
H1132 H 0.61663 0.82386 0.42326 0.0
H1133 H 0.70051 0.85432 0.44885 0.0
H1134 H 0.59265 0.81394 0.45302 0.0
H1135 H 0.62179 0.82371 0.48075 0.0
H1136 H 0.70132 0.90091 0.30488 0.0
H1137 H 0.67083 0.82597 0.27181 0.0
H1138 H 0.6912 0.92542 0.28048 0.0
H1139 H 0.67155 0.90131 0.25158 0.0
Gd1140 Gd 0.17544 0.85106 0.33983 0.0
Gd1141 Gd 0.19517 0.83503 0.38496 0.0
C1142 C 0.2822 0.83583 0.39096 0.0
C1143 C 0.26572 0.78554 0.39608 0.0
C1144 C 0.23029 0.80158 0.39255 0.0
C1145 C 0.25269 0.82919 0.38983 0.0
C1146 C 0.23649 0.77957 0.39643 0.0
C1147 C 0.2886 0.81369 0.39336 0.0
C1148 C 0.30428 0.86458 0.39056 0.0
C1149 C 0.29652 0.8858 0.3901 0.0
N1150 N 0.24556 0.84994 0.38788 0.0
C1151 C 0.26688 0.87805 0.38908 0.0
H1152 H 0.26133 0.89473 0.38885 0.0
C1153 C 0.18036 0.77169 0.40004 0.0
N1154 N 0.20252 0.79692 0.39332 0.0
C1155 C 0.18518 0.74894 0.40375 0.0
C1156 C 0.21328 0.7527 0.40153 0.0
H1157 H 0.15882 0.76901 0.40218 0.0
H1158 H 0.31113 0.81829 0.39392 0.0
H1159 H 0.10811 0.79287 0.33687 0.0
H1160 H 0.32723 0.87062 0.39135 0.0
H1161 H 0.31334 0.90814 0.39043 0.0
H1162 H 0.27094 0.76883 0.39874 0.0
H1163 H 0.21325 0.91629 0.32156 0.0
H1164 H 0.04456 0.82015 0.33532 0.0
H1165 H 0.05652 0.78128 0.33618 0.0
H1166 H 0.1038 0.9214 0.32622 0.0
H1167 H 0.16731 0.72866 0.40847 0.0
H1168 H 0.21709 0.73519 0.40464 0.0
H1169 H 0.06253 0.87283 0.3321 0.0
H1170 H 0.20643 0.95754 0.31482 0.0
N1171 N 0.12544 0.8379 0.33751 0.0
C1172 C 0.0673 0.82537 0.33576 0.0
C1173 C 0.07396 0.80339 0.33618 0.0
C1174 C 0.09013 0.85378 0.33485 0.0
C1175 C 0.11932 0.85933 0.33552 0.0
C1176 C 0.10333 0.81008 0.33669 0.0
N1177 N 0.16962 0.88996 0.3311 0.0
C1178 C 0.14232 0.88644 0.33223 0.0
C1179 C 0.18825 0.93777 0.31993 0.0
C1180 C 0.16073 0.93525 0.32252 0.0
C1181 C 0.19211 0.9145 0.32386 0.0
C1182 C 0.13708 0.90903 0.32819 0.0
H1183 H 0.15767 0.95318 0.31927 0.0
O1184 O 0.19906 0.86164 0.31429 0.0
O1185 O 0.20856 0.8465 0.35625 0.0
O1186 O 0.21201 0.88272 0.38122 0.0
O1187 O 0.18829 0.89017 0.35681 0.0
O1188 O 0.22475 0.87749 0.33644 0.0
O1189 O 0.15783 0.82223 0.31709 0.0
O1190 O 0.17097 0.82279 0.41032 0.0
O1191 O 0.16195 0.83968 0.36865 0.0
O1192 O 0.1576 0.80327 0.34385 0.0
O1193 O 0.18305 0.79646 0.36747 0.0
O1194 O 0.14604 0.80762 0.38784 0.0
O1195 O 0.21088 0.8635 0.40797 0.0
C1196 C 0.23215 0.86545 0.34874 0.0
C1197 C 0.10827 0.90422 0.32899 0.0
C1198 C 0.08478 0.87658 0.33233 0.0
C1199 C 0.17889 0.8391 0.30616 0.0
C1200 C 0.17011 0.84376 0.28822 0.0
C1201 C 0.15012 0.85365 0.28648 0.0
C1202 C 0.18192 0.83846 0.27265 0.0
C1203 C 0.17385 0.84317 0.25544 0.0
C1204 C 0.14203 0.85823 0.26945 0.0
C1205 C 0.1538 0.85305 0.25401 0.0
C1206 C 0.2039 0.89857 0.37181 0.0
C1207 C 0.13845 0.82008 0.37592 0.0
C1208 C 0.18997 0.84574 0.41867 0.0
C1209 C 0.19878 0.84153 0.43672 0.0
C1210 C 0.21887 0.83182 0.43868 0.0
C1211 C 0.18687 0.84705 0.45218 0.0
C1212 C 0.19488 0.84263 0.46949 0.0
C1213 C 0.22693 0.82756 0.4558 0.0
C1214 C 0.21503 0.83289 0.47112 0.0
C1215 C 0.1666 0.78775 0.35278 0.0
H1216 H 0.14077 0.85778 0.29827 0.0
H1217 H 0.19737 0.8308 0.27387 0.0
H1218 H 0.12659 0.86585 0.2682 0.0
H1219 H 0.1473 0.85678 0.24091 0.0
H1220 H 0.2283 0.82754 0.42699 0.0
H1221 H 0.17134 0.85458 0.45078 0.0
H1222 H 0.24244 0.82005 0.45721 0.0
H1223 H 0.22149 0.82937 0.48429 0.0
Gd1224 Gd 0.86146 0.69085 0.71715 0.0
Gd1225 Gd 0.83885 0.65735 0.67175 0.0
C1226 C 0.75228 0.5729 0.66585 0.0
C1227 C 0.76912 0.53963 0.65857 0.0
C1228 C 0.80424 0.59002 0.66307 0.0
C1229 C 0.78174 0.59516 0.6669 0.0
C1230 C 0.79824 0.56239 0.65827 0.0
C1231 C 0.74612 0.5449 0.66231 0.0
C1232 C 0.72999 0.5797 0.66761 0.0
C1233 C 0.73746 0.60826 0.66944 0.0
N1234 N 0.78862 0.62253 0.66996 0.0
C1235 C 0.76706 0.62952 0.67024 0.0
H1236 H 0.77266 0.65141 0.67138 0.0
C1237 C 0.85402 0.60982 0.6549 0.0
N1238 N 0.83184 0.61272 0.66226 0.0
C1239 C 0.84942 0.58279 0.65032 0.0
C1240 C 0.82149 0.55883 0.65237 0.0
H1241 H 0.87541 0.62837 0.65279 0.0
H1242 H 0.72366 0.52742 0.66176 0.0
H1243 H 0.92957 0.70158 0.71942 0.0
H1244 H 0.70708 0.56324 0.66695 0.0
H1245 H 0.72046 0.61395 0.67025 0.0
H1246 H 0.76406 0.51816 0.65515 0.0
H1247 H 0.81852 0.71612 0.73225 0.0
H1248 H 0.98976 0.79147 0.72372 0.0
H1249 H 0.98049 0.74194 0.72132 0.0
H1250 H 0.92607 0.82983 0.73352 0.0
H1251 H 0.86733 0.58051 0.64504 0.0
H1252 H 0.81785 0.53796 0.64857 0.0
H1253 H 0.96914 0.82428 0.728 0.0
H1254 H 0.82297 0.7626 0.73982 0.0
N1255 N 0.91042 0.72805 0.71978 0.0
C1256 C 0.96742 0.77384 0.7228 0.0
C1257 C 0.96227 0.74593 0.72147 0.0
C1258 C 0.94356 0.77846 0.72398 0.0
C1259 C 0.91496 0.7547 0.72276 0.0
C1260 C 0.93343 0.72313 0.7202 0.0
N1261 N 0.86396 0.73394 0.72615 0.0
C1262 C 0.89091 0.75775 0.72622 0.0
C1263 C 0.84225 0.76156 0.73594 0.0
C1264 C 0.86965 0.78648 0.73505 0.0
C1265 C 0.83983 0.73524 0.73173 0.0
C1266 C 0.89452 0.78472 0.73048 0.0
H1267 H 0.87147 0.80683 0.73836 0.0
O1268 O 0.8391 0.67677 0.74302 0.0
O1269 O 0.82662 0.65571 0.7007 0.0
O1270 O 0.82575 0.69165 0.67608 0.0
O1271 O 0.85293 0.72041 0.7001 0.0
O1272 O 0.81277 0.6694 0.72231 0.0
O1273 O 0.88134 0.67988 0.73916 0.0
O1274 O 0.86164 0.67015 0.64595 0.0
O1275 O 0.87356 0.69237 0.68812 0.0
O1276 O 0.87883 0.66031 0.71185 0.0
O1277 O 0.85098 0.62956 0.68846 0.0
O1278 O 0.88767 0.676 0.66802 0.0
O1279 O 0.8213 0.67081 0.64965 0.0
C1280 C 0.8038 0.6515 0.70927 0.0
C1281 C 0.92283 0.80884 0.73048 0.0
C1282 C 0.94735 0.8057 0.72728 0.0
C1283 C 0.86038 0.67487 0.75056 0.0
C1284 C 0.86923 0.68744 0.76862 0.0
C1285 C 0.88986 0.71656 0.7706 0.0
C1286 C 0.85662 0.67029 0.78409 0.0
C1287 C 0.86465 0.68228 0.80139 0.0
C1288 C 0.89785 0.72845 0.78773 0.0
C1289 C 0.88533 0.71147 0.80304 0.0
C1290 C 0.83689 0.71579 0.68551 0.0
C1291 C 0.89643 0.69486 0.68055 0.0
C1292 C 0.84186 0.67437 0.63834 0.0
C1293 C 0.83236 0.66215 0.62023 0.0
C1294 C 0.81418 0.63256 0.61813 0.0
C1295 C 0.84173 0.68007 0.60486 0.0
C1296 C 0.83292 0.66833 0.58753 0.0
C1297 C 0.8055 0.62091 0.601 0.0
C1298 C 0.81477 0.63863 0.5858 0.0
C1299 C 0.86858 0.63617 0.70262 0.0
H1300 H 0.89974 0.73011 0.75892 0.0
H1301 H 0.84053 0.6478 0.7827 0.0
H1302 H 0.91376 0.75095 0.78914 0.0
H1303 H 0.8917 0.7211 0.81621 0.0
H1304 H 0.80667 0.61847 0.62973 0.0
H1305 H 0.8557 0.70298 0.60634 0.0
H1306 H 0.79147 0.59804 0.59951 0.0
H1307 H 0.80769 0.62919 0.57262 0.0
Gd1308 Gd 0.33621 0.17042 0.71518 0.0
Gd1309 Gd 0.37425 0.18614 0.6715 0.0
C1310 C 0.45841 0.18168 0.66996 0.0
C1311 C 0.49573 0.23186 0.66766 0.0
C1312 C 0.44396 0.21772 0.66763 0.0
C1313 C 0.43634 0.18929 0.66997 0.0
C1314 C 0.4737 0.23912 0.66575 0.0
C1315 C 0.4881 0.20316 0.66973 0.0
C1316 C 0.45004 0.15275 0.66878 0.0
C1317 C 0.42047 0.13248 0.66653 0.0
N1318 N 0.40742 0.16891 0.66997 0.0
C1319 C 0.39935 0.14099 0.66702 0.0
H1320 H 0.37673 0.12495 0.66523 0.0
C1321 C 0.42848 0.25037 0.65901 0.0
N1322 N 0.42218 0.22403 0.66541 0.0
C1323 C 0.45762 0.27235 0.65723 0.0
C1324 C 0.48035 0.26687 0.66103 0.0
H1325 H 0.41102 0.25484 0.65636 0.0
H1326 H 0.5053 0.19769 0.67013 0.0
H1327 H 0.33309 0.23026 0.72029 0.0
H1328 H 0.46629 0.14603 0.66855 0.0
H1329 H 0.41385 0.11018 0.66469 0.0
H1330 H 0.5187 0.24809 0.6666 0.0
H1331 H 0.30184 0.10144 0.72772 0.0
H1332 H 0.24301 0.20878 0.72143 0.0
H1333 H 0.29582 0.24528 0.72136 0.0
H1334 H 0.19224 0.10673 0.72803 0.0
H1335 H 0.46253 0.29349 0.65296 0.0
H1336 H 0.50292 0.28389 0.65949 0.0
H1337 H 0.20429 0.15672 0.72375 0.0
H1338 H 0.25142 0.06233 0.73401 0.0
N1339 N 0.3019 0.18611 0.71798 0.0
C1340 C 0.25932 0.20216 0.72062 0.0
C1341 C 0.28909 0.22281 0.7206 0.0
C1342 C 0.25108 0.17319 0.72082 0.0
C1343 C 0.27325 0.16583 0.71972 0.0
C1344 C 0.31019 0.21428 0.71968 0.0
N1345 N 0.2889 0.13232 0.72237 0.0
C1346 C 0.26653 0.13794 0.72224 0.0
C1347 C 0.25534 0.08349 0.73066 0.0
C1348 C 0.2319 0.08871 0.72977 0.0
C1349 C 0.28389 0.10573 0.72713 0.0
C1350 C 0.23737 0.11631 0.72576 0.0
H1351 H 0.20982 0.07146 0.73253 0.0
O1352 O 0.34434 0.15571 0.74065 0.0
O1353 O 0.37429 0.17287 0.70011 0.0
O1354 O 0.34293 0.13824 0.67558 0.0
O1355 O 0.30779 0.13485 0.69569 0.0
O1356 O 0.35216 0.13887 0.71759 0.0
O1357 O 0.35019 0.19821 0.73854 0.0
O1358 O 0.34159 0.17103 0.65026 0.0
O1359 O 0.33719 0.18467 0.68691 0.0
O1360 O 0.37181 0.21815 0.71335 0.0
O1361 O 0.40193 0.22436 0.68864 0.0
O1362 O 0.35828 0.21816 0.66918 0.0
O1363 O 0.38675 0.18775 0.6433 0.0
C1364 C 0.37403 0.15091 0.70663 0.0
C1365 C 0.21485 0.12311 0.72562 0.0
C1366 C 0.2217 0.15155 0.72313 0.0
C1367 C 0.35086 0.1792 0.74908 0.0
C1368 C 0.33869 0.17606 0.76731 0.0
C1369 C 0.30866 0.16568 0.77015 0.0
C1370 C 0.35751 0.18294 0.78215 0.0
C1371 C 0.34641 0.17917 0.7998 0.0
C1372 C 0.29757 0.16209 0.78768 0.0
C1373 C 0.31629 0.16869 0.80246 0.0
C1374 C 0.31549 0.12478 0.68168 0.0
C1375 C 0.33655 0.20613 0.6804 0.0
C1376 C 0.36038 0.17821 0.63723 0.0
C1377 C 0.35692 0.1941 0.62215 0.0
C1378 C 0.36399 0.22265 0.62427 0.0
C1379 C 0.34588 0.18052 0.60555 0.0
C1380 C 0.34209 0.19555 0.59124 0.0
C1381 C 0.36029 0.23755 0.61008 0.0
C1382 C 0.34943 0.22412 0.59364 0.0
C1383 C 0.39611 0.23345 0.7036 0.0
H1384 H 0.29386 0.16026 0.75887 0.0
H1385 H 0.38074 0.19091 0.78 0.0
H1386 H 0.27437 0.15403 0.78983 0.0
H1387 H 0.30733 0.16562 0.81595 0.0
H1388 H 0.37227 0.23347 0.63687 0.0
H1389 H 0.34019 0.15842 0.60377 0.0
H1390 H 0.3658 0.25957 0.61186 0.0
H1391 H 0.34665 0.23598 0.58276 0.0
Gd1392 Gd 0.84376 0.18566 0.67027 0.0
Gd1393 Gd 0.8625 0.16857 0.71538 0.0
C1394 C 0.94909 0.16853 0.72164 0.0
C1395 C 0.93218 0.11808 0.72645 0.0
C1396 C 0.89709 0.13456 0.72291 0.0
C1397 C 0.91967 0.16212 0.72036 0.0
C1398 C 0.90301 0.11233 0.72669 0.0
C1399 C 0.95523 0.1462 0.72395 0.0
C1400 C 0.97132 0.19722 0.72149 0.0
C1401 C 0.96378 0.21859 0.72112 0.0
N1402 N 0.91277 0.18305 0.7185 0.0
C1403 C 0.93422 0.21107 0.71993 0.0
H1404 H 0.92885 0.22788 0.71975 0.0
C1405 C 0.84707 0.10491 0.73023 0.0
N1406 N 0.86942 0.13014 0.72364 0.0
C1407 C 0.8516 0.08195 0.73381 0.0
C1408 C 0.87961 0.08548 0.73162 0.0
H1409 H 0.82559 0.1024 0.73234 0.0
H1410 H 0.9777 0.15062 0.72461 0.0
H1411 H 0.77567 0.12867 0.6674 0.0
H1412 H 0.99421 0.20308 0.7224 0.0
H1413 H 0.98071 0.24087 0.72165 0.0
H1414 H 0.93719 0.10122 0.72904 0.0
H1415 H 0.88349 0.25073 0.65211 0.0
H1416 H 0.71411 0.15839 0.66516 0.0
H1417 H 0.72453 0.11851 0.66651 0.0
H1418 H 0.77585 0.25926 0.65557 0.0
H1419 H 0.83356 0.06166 0.7384 0.0
H1420 H 0.88319 0.06781 0.73463 0.0
H1421 H 0.73359 0.2113 0.66153 0.0
H1422 H 0.87821 0.29278 0.64499 0.0
N1423 N 0.7942 0.17385 0.6677 0.0
C1424 C 0.73663 0.16296 0.66569 0.0
C1425 C 0.74243 0.14041 0.66639 0.0
C1426 C 0.76005 0.19109 0.66464 0.0
C1427 C 0.78892 0.19579 0.66543 0.0
C1428 C 0.77153 0.14628 0.66701 0.0
N1429 N 0.83949 0.22531 0.66126 0.0
C1430 C 0.81249 0.22257 0.66211 0.0
C1431 C 0.85958 0.27326 0.65001 0.0
C1432 C 0.83237 0.27154 0.6523 0.0
C1433 C 0.86257 0.24953 0.65414 0.0
C1434 C 0.80815 0.24566 0.6579 0.0
H1435 H 0.83 0.28983 0.64892 0.0
O1436 O 0.86859 0.19493 0.64528 0.0
O1437 O 0.87617 0.18014 0.68677 0.0
O1438 O 0.87982 0.21638 0.71188 0.0
O1439 O 0.8571 0.22481 0.68731 0.0
O1440 O 0.89313 0.21171 0.66728 0.0
O1441 O 0.82524 0.15781 0.64713 0.0
O1442 O 0.83857 0.15601 0.74082 0.0
O1443 O 0.82981 0.17391 0.699 0.0
O1444 O 0.82499 0.13767 0.6741 0.0
O1445 O 0.84973 0.12997 0.69778 0.0
O1446 O 0.8133 0.14173 0.7181 0.0
O1447 O 0.87784 0.19726 0.73823 0.0
C1448 C 0.89999 0.19909 0.67951 0.0
C1449 C 0.77964 0.24169 0.65849 0.0
C1450 C 0.75558 0.21439 0.66188 0.0
C1451 C 0.84779 0.17335 0.63679 0.0
C1452 C 0.84186 0.1788 0.61829 0.0
C1453 C 0.82536 0.19219 0.6149 0.0
C1454 C 0.85348 0.17094 0.60377 0.0
C1455 C 0.84891 0.17667 0.58594 0.0
C1456 C 0.82062 0.19774 0.59719 0.0
C1457 C 0.83237 0.1901 0.58277 0.0
C1458 C 0.8723 0.23269 0.70247 0.0
C1459 C 0.8061 0.15449 0.70617 0.0
C1460 C 0.85729 0.17925 0.74903 0.0
C1461 C 0.86666 0.17566 0.76703 0.0
C1462 C 0.88786 0.16733 0.76898 0.0
C1463 C 0.85429 0.1806 0.78245 0.0
C1464 C 0.86307 0.17717 0.79973 0.0
C1465 C 0.89662 0.16397 0.78612 0.0
C1466 C 0.8843 0.16882 0.80142 0.0
C1467 C 0.83338 0.12164 0.68304 0.0
H1468 H 0.81624 0.19838 0.6259 0.0
H1469 H 0.8663 0.16062 0.60632 0.0
H1470 H 0.80789 0.2081 0.59463 0.0
H1471 H 0.82861 0.19468 0.56914 0.0
H1472 H 0.89762 0.16347 0.75729 0.0
H1473 H 0.83783 0.18696 0.78105 0.0
H1474 H 0.91297 0.15753 0.78754 0.0
H1475 H 0.89125 0.16599 0.81461 0.0
C1476 C 0.40161 0.89781 0.04686 0.0
C1477 C 0.38087 0.90657 0.0506 0.0
C1478 C 0.41937 0.9568 0.04682 0.0
C1479 C 0.43995 0.94812 0.04197 0.0
N1480 N 0.44889 0.90984 0.03443 0.0
N1481 N 0.36825 0.94368 0.05039 0.0
C1482 C 0.4304 0.91842 0.04106 0.0
C1483 C 0.38922 0.93586 0.04936 0.0
N1484 N 0.39427 0.86994 0.04969 0.0
N1485 N 0.42872 0.98492 0.04997 0.0
H1486 H 0.34605 0.92892 0.05242 0.0
H1487 H 0.37248 0.96434 0.04762 0.0
H1488 H 0.45019 1.00103 0.04766 0.0
H1489 H 0.41559 0.99208 0.05585 0.0
H1490 H 0.40941 0.86288 0.04937 0.0
H1491 H 0.3734 0.85409 0.05381 0.0
H1492 H 0.44252 0.88871 0.03142 0.0
H1493 H 0.46989 0.92443 0.03011 0.0
C1494 C 0.0877 0.45109 0.04972 0.0
C1495 C 0.11661 0.47459 0.05115 0.0
C1496 C 0.09834 0.50758 0.04479 0.0
C1497 C 0.06935 0.48404 0.04233 0.0
N1498 N 0.0388 0.43332 0.03791 0.0
N1499 N 0.1506 0.52453 0.04582 0.0
C1500 C 0.06477 0.45575 0.04357 0.0
C1501 C 0.12225 0.5026 0.04731 0.0
N1502 N 0.08195 0.42434 0.05462 0.0
N1503 N 0.10313 0.53472 0.04571 0.0
H1504 H 0.16868 0.5218 0.0478 0.0
H1505 H 0.15618 0.54478 0.04097 0.0
H1506 H 0.08663 0.53936 0.04371 0.0
H1507 H 0.12288 0.55221 0.04977 0.0
H1508 H 0.06078 0.40691 0.05588 0.0
H1509 H 0.09827 0.42001 0.05878 0.0
H1510 H 0.03481 0.41244 0.03692 0.0
H1511 H 0.02273 0.43639 0.03191 0.0
C1512 C 0.57531 0.63313 0.06269 0.0
C1513 C 0.55492 0.64293 0.06239 0.0
C1514 C 0.52078 0.60072 0.04504 0.0
C1515 C 0.54209 0.59159 0.04433 0.0
N1516 N 0.59333 0.60598 0.04724 0.0
N1517 N 0.51154 0.64005 0.04966 0.0
C1518 C 0.5704 0.60975 0.05172 0.0
C1519 C 0.52874 0.62802 0.05235 0.0
N1520 N 0.59929 0.64588 0.07363 0.0
N1521 N 0.49242 0.58305 0.03984 0.0
H1522 H 0.51645 0.65971 0.05511 0.0
H1523 H 0.49408 0.63191 0.04066 0.0
H1524 H 0.48451 0.56257 0.03495 0.0
H1525 H 0.47563 0.5876 0.04206 0.0
H1526 H 0.61304 0.63745 0.07585 0.0
H1527 H 0.60406 0.66347 0.08165 0.0
H1528 H 0.61498 0.62002 0.05092 0.0
H1529 H 0.59116 0.5911 0.03775 0.0
C1530 C 0.92516 0.37377 1.01166 0.0
C1531 C 0.9181 0.37312 0.9932 0.0
C1532 C 0.94953 0.42533 0.99146 0.0
C1533 C 0.95918 0.42574 1.0094 0.0
N1534 N 0.95966 0.39921 0.03547 0.0
N1535 N 0.92759 0.39757 0.96462 0.0
C1536 C 0.94782 0.39964 1.01925 0.0
C1537 C 0.93146 0.39871 0.98285 0.0
N1538 N 0.9098 0.34979 1.02205 0.0
N1539 N 0.95638 0.45034 0.98282 0.0
H1540 H 0.91433 0.37859 0.95777 0.0
H1541 H 0.93956 0.41505 0.95611 0.0
H1542 H 0.96892 0.47037 0.98861 0.0
H1543 H 0.9472 0.45117 0.97059 0.0
H1544 H 0.91161 0.34973 0.036 0.0
H1545 H 0.89335 0.33043 1.01689 0.0
H1546 H 0.9546 0.38049 0.04241 0.0
H1547 H 0.97656 0.41753 0.04125 0.0
C1548 C 0.62992 0.51662 1.00805 0.0
C1549 C 0.65268 0.5442 1.00302 0.0
C1550 C 0.61884 0.56289 1.00662 0.0
C1551 C 0.5951 0.53464 1.01027 0.0
N1552 N 0.5779 0.48395 1.00969 0.0
N1553 N 0.66886 0.59333 0.99582 0.0
C1554 C 0.60066 0.51134 1.00986 0.0
C1555 C 0.6472 0.56732 1.00201 0.0
N1556 N 0.63627 0.49529 1.01109 0.0
N1557 N 0.61432 0.58569 1.00747 0.0
H1558 H 0.69012 0.59765 0.99296 0.0
H1559 H 0.66549 0.61018 0.99238 0.0
H1560 H 0.59375 0.58367 1.00923 0.0
H1561 H 0.63119 0.6069 1.00756 0.0
H1562 H 0.62129 0.47549 1.01663 0.0
H1563 H 0.65733 0.49823 1.0096 0.0
H1564 H 0.58018 0.46616 1.00736 0.0
H1565 H 0.55639 0.47931 1.00997 0.0
C1566 C 0.46063 0.08748 1.00581 0.0
C1567 C 0.48357 0.11631 1.00639 0.0
C1568 C 0.51675 0.101 1.01891 0.0
C1569 C 0.4931 0.07215 1.01961 0.0
N1570 N 0.44096 0.0395 1.01751 0.0
N1571 N 0.53177 0.15134 1.01652 0.0
C1572 C 0.4646 0.06586 1.01408 0.0
C1573 C 0.51109 0.12331 1.01392 0.0
N1574 N 0.43516 0.08061 0.99699 0.0
N1575 N 0.54495 0.10713 1.0219 0.0
H1576 H 0.52871 0.16826 1.01262 0.0
H1577 H 0.55088 0.15776 0.02388 0.0
H1578 H 0.55063 0.09186 0.02534 0.0
H1579 H 0.56321 0.12713 1.01934 0.0
H1580 H 0.41903 0.05965 0.99425 0.0
H1581 H 0.43115 0.09589 0.9911 0.0
H1582 H 0.4193 0.03444 1.0155 0.0
H1583 H 0.44283 0.02363 0.02424 0.0
C1584 C 0.61359 0.10194 0.98835 0.0
C1585 C 0.64022 0.11311 0.99813 0.0
C1586 C 0.61266 0.08403 0.02414 0.0
C1587 C 0.58704 0.06946 1.01373 0.0
N1588 N 0.56036 0.07467 0.98942 0.0
N1589 N 0.66545 0.11357 0.02533 0.0
C1590 C 0.5867 0.08121 0.99667 0.0
C1591 C 0.63986 0.10373 1.01601 0.0
N1592 N 0.61415 0.1105 0.97096 0.0
N1593 N 0.60971 0.08292 0.0422 0.0
H1594 H 0.68587 0.12861 1.02007 0.0
H1595 H 0.66651 0.1051 0.03776 0.0
H1596 H 0.58874 0.07526 0.04723 0.0
H1597 H 0.6268 0.09451 0.05115 0.0
H1598 H 0.59612 0.1009 0.96243 0.0
H1599 H 0.63334 0.12597 0.96462 0.0
H1600 H 0.55794 0.0841 0.97779 0.0
H1601 H 0.5409 0.06233 0.99654 0.0
C1602 C 0.91813 0.5192 1.004 0.0
C1603 C 0.92575 0.54733 0.99878 0.0
C1604 C 0.97533 0.5646 1.01045 0.0
C1605 C 0.9697 0.53602 1.01214 0.0
N1606 N 0.93457 0.48552 1.00949 0.0
N1607 N 0.96252 0.59718 0.99606 0.0
C1608 C 0.94064 0.51311 1.00889 0.0
C1609 C 0.95453 0.57022 1.00193 0.0
N1610 N 0.88925 0.49829 1.0044 0.0
N1611 N 1.0004 0.5864 1.01755 0.0
H1612 H 0.94791 0.60233 0.98995 0.0
H1613 H 0.98415 0.61399 0.99605 0.0
H1614 H 1.01483 0.58254 0.02498 0.0
H1615 H 1.00481 0.60746 1.01817 0.0
H1616 H 0.88194 0.47805 1.00993 0.0
H1617 H 0.87236 0.50217 1.00087 0.0
H1618 H 0.91508 0.46831 1.00485 0.0
H1619 H 0.94967 0.48003 1.01386 0.0
C1620 C 0.4904 0.39762 0.9817 0.0
C1621 C 0.47688 0.37209 0.9921 0.0
C1622 C 0.47535 0.39897 1.01821 0.0
C1623 C 0.49137 0.42493 1.00833 0.0
N1624 N 0.51839 0.44927 0.98139 0.0
N1625 N 0.46027 0.34863 1.02086 0.0
C1626 C 0.50001 0.42433 0.99025 0.0
C1627 C 0.47055 0.37284 1.01057 0.0
N1628 N 0.49342 0.39631 0.9635 0.0
N1629 N 0.46321 0.399 0.03444 0.0
H1630 H 0.4559 0.32901 1.01559 0.0
H1631 H 0.45832 0.3485 0.03481 0.0
H1632 H 0.4653 0.41753 0.04004 0.0
H1633 H 0.44882 0.38048 0.04149 0.0
H1634 H 0.49964 0.41369 0.95487 0.0
H1635 H 0.48745 0.3773 0.95675 0.0
H1636 H 0.52829 0.45012 0.96908 0.0
H1637 H 0.52586 0.46936 0.98695 0.0
C1638 C 0.10196 0.64617 0.04455 0.0
C1639 C 0.11532 0.64703 0.06127 0.0
C1640 C 0.08946 0.59455 0.06233 0.0
C1641 C 0.07705 0.59345 0.04512 0.0
N1642 N 0.07436 0.6184 1.01883 0.0
N1643 N 0.12682 0.62272 0.08428 0.0
C1644 C 0.08439 0.61936 0.03587 0.0
C1645 C 0.11051 0.62139 0.06962 0.0
N1646 N 0.10506 0.6709 0.03735 0.0
N1647 N 0.08082 0.56998 0.072 0.0
H1648 H 0.14238 0.64197 0.09004 0.0
H1649 H 0.12697 0.60501 0.08976 0.0
H1650 H 0.06699 0.54967 0.06696 0.0
H1651 H 0.08583 0.56971 0.08552 0.0
H1652 H 0.09319 0.67154 0.02636 0.0
H1653 H 0.11821 0.6909 0.04314 0.0
H1654 H 0.08179 0.63622 1.01046 0.0
H1655 H 0.05964 0.59934 1.01266 0.0
C1656 C 0.41496 0.50127 0.05736 0.0
C1657 C 0.38929 0.47399 0.05736 0.0
C1658 C 0.41721 0.4542 0.04268 0.0
C1659 C 0.44357 0.48106 0.04441 0.0
N1660 N 0.46748 0.52598 0.06029 0.0
N1661 N 0.3665 0.42334 0.05201 0.0
C1662 C 0.44252 0.50369 0.0534 0.0
C1663 C 0.39046 0.45013 0.05038 0.0
N1664 N 0.41316 0.52493 0.06157 0.0
N1665 N 0.41779 0.4325 0.03367 0.0
H1666 H 0.34647 0.41952 0.05729 0.0
H1667 H 0.36691 0.40465 0.0493 0.0
H1668 H 0.43692 0.4347 0.02797 0.0
H1669 H 0.39907 0.41344 0.03026 0.0
H1670 H 0.43099 0.54563 0.06031 0.0
H1671 H 0.39325 0.52389 0.06457 0.0
H1672 H 0.46722 0.54113 0.06881 0.0
H1673 H 0.48803 0.52776 0.05911 0.0
C1674 C 0.54917 0.90497 0.03389 0.0
C1675 C 0.55589 0.90283 0.052 0.0
C1676 C 0.53632 0.93369 0.06092 0.0
C1677 C 0.53159 0.93788 0.04246 0.0
N1678 N 0.51724 0.91229 1.01455 0.0
N1679 N 0.56053 0.91881 0.08258 0.0
C1680 C 0.534 0.91979 0.02956 0.0
C1681 C 0.55113 0.91854 0.06542 0.0
N1682 N 0.55711 0.89258 1.02071 0.0
N1683 N 0.52271 0.94016 0.07423 0.0
H1684 H 0.57058 0.90721 0.08651 0.0
H1685 H 0.56092 0.93265 0.09243 0.0
H1686 H 0.50617 0.94482 0.07154 0.0
H1687 H 0.52361 0.93587 0.08781 0.0
H1688 H 0.55539 0.89594 1.00705 0.0
H1689 H 0.56811 0.8814 1.02347 0.0
H1690 H 0.51588 0.89699 1.00552 0.0
H1691 H 0.50016 0.91648 1.01341 0.0
C1692 C 0.05346 0.27557 0.38331 0.0
C1693 C 0.04858 0.24737 0.38203 0.0
C1694 C 0.10079 0.2663 0.37526 0.0
C1695 C 0.10588 0.29488 0.37547 0.0
N1696 N 0.08568 0.32632 0.37843 0.0
N1697 N 0.06575 0.21553 0.37309 0.0
C1698 C 0.08169 0.29929 0.37903 0.0
C1699 C 0.07165 0.2427 0.37671 0.0
N1700 N 0.03135 0.27974 0.38947 0.0
N1701 N 0.12379 0.26145 0.3752 0.0
H1702 H 0.04479 0.19769 0.37434 0.0
H1703 H 0.08096 0.21097 0.36727 0.0
H1704 H 0.14524 0.27788 0.37499 0.0
H1705 H 0.12174 0.24141 0.37715 0.0
H1706 H 0.03427 0.29956 0.39313 0.0
H1707 H 1.01011 0.26296 0.39199 0.0
H1708 H 0.06852 0.33069 0.37822 0.0
H1709 H 0.10615 0.34464 0.37711 0.0
C1710 C 0.75421 0.78509 0.37938 0.0
C1711 C 0.78111 0.80788 0.38577 0.0
C1712 C 0.76248 0.84115 0.3813 0.0
C1713 C 0.73442 0.81792 0.37646 0.0
N1714 N 0.70291 0.76706 0.37238 0.0
N1715 N 0.80988 0.85687 0.39514 0.0
C1716 C 0.73013 0.78966 0.37605 0.0
C1717 C 0.78503 0.83574 0.38724 0.0
N1718 N 0.75202 0.75927 0.37584 0.0
N1719 N 0.76784 0.86852 0.3802 0.0
H1720 H 0.82699 0.8539 0.39954 0.0
H1721 H 0.81264 0.87666 0.39876 0.0
H1722 H 0.75192 0.87335 0.37652 0.0
H1723 H 0.78862 0.88652 0.3812 0.0
H1724 H 0.73433 0.74272 0.36919 0.0
H1725 H 0.76908 0.75511 0.37825 0.0
H1726 H 0.69725 0.74579 0.37426 0.0
H1727 H 0.68545 0.76952 0.36805 0.0
C1728 C 0.2094 0.95319 0.40627 0.0
C1729 C 0.22375 0.97895 0.39615 0.0
C1730 C 0.22675 0.95259 0.37018 0.0
C1731 C 0.21041 0.92644 0.37985 0.0
N1732 N 0.18051 0.90161 0.40585 0.0
N1733 N 0.24183 1.00297 0.36768 0.0
C1734 C 0.20019 0.92668 0.39757 0.0
C1735 C 0.23109 0.97857 0.37784 0.0
N1736 N 0.20515 0.95404 0.42437 0.0
N1737 N 0.23947 0.95293 0.35411 0.0
H1738 H 0.24584 0.02246 0.37297 0.0
H1739 H 0.2445 1.00339 0.35378 0.0
H1740 H 0.23716 0.93449 0.34825 0.0
H1741 H 0.25429 0.9716 0.34734 0.0
H1742 H 0.19818 0.93638 0.43285 0.0
H1743 H 0.21084 0.97292 0.43121 0.0
H1744 H 0.16976 0.90068 0.41783 0.0
H1745 H 0.17259 0.88164 0.39997 0.0
C1746 C 0.57803 0.71776 0.33961 0.0
C1747 C 0.58885 0.70502 0.32759 0.0
C1748 C 0.63604 0.74993 0.32595 0.0
C1749 C 0.62619 0.76258 0.33914 0.0
N1750 N 0.58218 0.7615 0.35029 0.0
N1751 N 0.62974 0.70667 0.31204 0.0
C1752 C 0.59566 0.74726 0.34394 0.0
C1753 C 0.6184 0.72038 0.32173 0.0
N1754 N 0.55081 0.70148 0.34712 0.0
N1755 N 0.65991 0.76663 0.31538 0.0
H1756 H 0.61728 0.68528 0.3083 0.0
H1757 H 0.65209 0.71563 0.30931 0.0
H1758 H 0.66971 0.7887 0.31478 0.0
H1759 H 0.66676 0.75881 0.30478 0.0
H1760 H 0.54305 0.70851 0.3577 0.0
H1761 H 0.53723 0.67992 0.34403 0.0
H1762 H 0.5596 0.75188 0.3523 0.0
H1763 H 0.5923 0.78361 0.3508 0.0
C1764 C 0.31472 0.90406 0.34137 0.0
C1765 C 0.32057 0.88125 0.33983 0.0
C1766 C 0.26883 0.84692 0.34665 0.0
C1767 C 0.2629 0.86979 0.34893 0.0
N1768 N 0.2829 0.92025 0.35355 0.0
N1769 N 0.30518 0.83179 0.34548 0.0
C1770 C 0.28674 0.89842 0.34773 0.0
C1771 C 0.29823 0.85295 0.34391 0.0
N1772 N 0.33563 0.93109 0.33633 0.0
N1773 N 0.24647 0.81938 0.34622 0.0
H1774 H 0.32637 0.83535 0.34339 0.0
H1775 H 0.29063 0.81145 0.3505 0.0
H1776 H 0.2251 0.81394 0.34892 0.0
H1777 H 0.24892 0.80225 0.34218 0.0
H1778 H 0.3315 0.94799 0.33517 0.0
H1779 H 0.35654 0.93616 0.33193 0.0
H1780 H 0.29985 0.94136 0.35455 0.0
H1781 H 0.26346 0.91642 0.3597 0.0
C1782 C 0.12986 0.42578 0.33674 0.0
C1783 C 0.15359 0.45406 0.33475 0.0
C1784 C 0.18694 0.43951 0.34791 0.0
C1785 C 0.16398 0.41018 0.34804 0.0
N1786 N 0.11293 0.37595 0.3426 0.0
N1787 N 0.20557 0.48706 0.33544 0.0
C1788 C 0.13533 0.40354 0.34229 0.0
C1789 C 0.18228 0.46069 0.33959 0.0
N1790 N 0.10179 0.42043 0.33421 0.0
N1791 N 0.2133 0.44781 0.35592 0.0
H1792 H 0.20321 0.5032 0.32928 0.0
H1793 H 0.22737 0.49204 0.33651 0.0
H1794 H 0.22027 0.43399 0.36035 0.0
H1795 H 0.22803 0.46905 0.3591 0.0
H1796 H 0.08312 0.40112 0.33748 0.0
H1797 H 0.09694 0.43608 0.33006 0.0
H1798 H 0.09312 0.36878 0.33589 0.0
H1799 H 0.11444 0.36008 0.34949 0.0
C1800 C 0.29 0.44535 0.34158 0.0
C1801 C 0.31617 0.44386 0.34187 0.0
C1802 C 0.28652 0.39391 0.35242 0.0
C1803 C 0.26025 0.39429 0.34847 0.0
N1804 N 0.23923 0.41959 0.33338 0.0
N1805 N 0.33775 0.4225 0.36028 0.0
C1806 C 0.26252 0.41979 0.34152 0.0
C1807 C 0.31425 0.41959 0.35078 0.0
N1808 N 0.29086 0.47063 0.34441 0.0
N1809 N 0.28515 0.36908 0.35777 0.0
H1810 H 0.35624 0.44253 0.36238 0.0
H1811 H 0.33726 0.40624 0.36815 0.0
H1812 H 0.26539 0.35072 0.36085 0.0
H1813 H 0.30358 0.36666 0.35856 0.0
H1814 H 0.2719 0.47216 0.34513 0.0
H1815 H 0.30996 0.48865 0.34882 0.0
H1816 H 0.24133 0.43764 0.32677 0.0
H1817 H 0.21897 0.40107 0.33183 0.0
C1818 C 0.61794 0.90671 0.34294 0.0
C1819 C 0.59667 0.88823 0.33046 0.0
C1820 C 0.61594 0.85516 0.3331 0.0
C1821 C 0.63943 0.87513 0.34411 0.0
N1822 N 0.66462 0.92212 0.35733 0.0
N1823 N 0.57811 0.84693 0.31139 0.0
C1824 C 0.64092 0.90156 0.34832 0.0
C1825 C 0.59618 0.86284 0.32508 0.0
N1826 N 0.6158 0.92891 0.35 0.0
N1827 N 0.61272 0.82897 0.32982 0.0
H1828 H 0.56325 0.85164 0.30518 0.0
H1829 H 0.57948 0.8305 0.30504 0.0
H1830 H 0.62726 0.8229 0.33453 0.0
H1831 H 0.59432 0.81234 0.32374 0.0
H1832 H 0.62871 0.94139 0.36059 0.0
H1833 H 0.59919 0.93318 0.3464 0.0
H1834 H 0.66922 0.94317 0.35853 0.0
H1835 H 0.68021 0.9182 0.36318 0.0
C1836 C 0.13109 0.70733 0.34373 0.0
C1837 C 0.14536 0.70767 0.32744 0.0
C1838 C 0.17325 0.76012 0.32781 0.0
C1839 C 0.15996 0.75996 0.34456 0.0
N1840 N 0.12923 0.73335 0.36971 0.0
N1841 N 0.18439 0.73355 0.30603 0.0
C1842 C 0.13996 0.7335 0.35296 0.0
C1843 C 0.16775 0.73385 0.32011 0.0
N1844 N 0.10816 0.68212 0.34993 0.0
N1845 N 0.19074 0.78534 0.31896 0.0
H1846 H 0.18098 0.71472 0.30002 0.0
H1847 H 0.20324 0.75165 0.30138 0.0
H1848 H 0.19694 0.80528 0.32438 0.0
H1849 H 0.19764 0.78656 0.30568 0.0
H1850 H 0.09449 0.6807 0.36051 0.0
H1851 H 0.10148 0.66255 0.34371 0.0
H1852 H 0.1175 0.71498 0.37754 0.0
H1853 H 0.13359 0.752 0.37627 0.0
C1854 C 0.7667 0.98033 0.38054 0.0
C1855 C 0.78061 0.98062 0.39692 0.0
C1856 C 0.75358 0.92804 0.39769 0.0
C1857 C 0.74079 0.9276 0.38072 0.0
N1858 N 0.73841 0.95351 0.35481 0.0
N1859 N 0.7916 0.95532 0.41953 0.0
C1860 C 0.74846 0.95382 0.37176 0.0
C1861 C 0.7752 0.9546 0.40506 0.0
N1862 N 0.76999 1.00537 0.37375 0.0
N1863 N 0.74506 0.90306 0.40687 0.0
H1864 H 0.80755 0.97434 0.42533 0.0
H1865 H 0.79133 0.93732 0.42485 0.0
H1866 H 0.73122 0.88294 0.40153 0.0
H1867 H 0.75036 0.9022 0.42025 0.0
H1868 H 0.75771 1.00638 0.3631 0.0
H1869 H 0.78354 0.0252 0.37962 0.0
H1870 H 0.74622 0.97158 0.34662 0.0
H1871 H 0.7234 0.93479 0.34843 0.0
C1872 C 0.07314 0.8326 0.38429 0.0
C1873 C 0.05195 0.80454 0.38973 0.0
C1874 C 0.08419 0.78732 0.3785 0.0
C1875 C 0.1078 0.81593 0.37661 0.0
N1876 N 0.12409 0.86641 0.37854 0.0
N1877 N 0.03792 0.75486 0.39302 0.0
C1878 C 0.10201 0.83877 0.37948 0.0
C1879 C 0.05748 0.78172 0.38691 0.0
N1880 N 0.06554 0.85336 0.38355 0.0
N1881 N 0.08716 0.76544 0.37175 0.0
H1882 H 0.018 0.74973 0.39912 0.0
H1883 H 0.04246 0.73816 0.39326 0.0
H1884 H 0.10575 0.76921 0.36453 0.0
H1885 H 0.07004 0.74434 0.37127 0.0
H1886 H 0.07891 0.87348 0.37783 0.0
H1887 H 0.04458 0.84943 0.387 0.0
H1888 H 0.12214 0.88367 0.38296 0.0
H1889 H 0.14478 0.87194 0.37401 0.0
C1890 C 0.22829 0.25215 0.36925 0.0
C1891 C 0.21973 0.2401 0.38672 0.0
C1892 C 0.19939 0.27138 0.39285 0.0
C1893 C 0.20963 0.28484 0.37575 0.0
N1894 N 0.23965 0.29217 0.34952 0.0
N1895 N 0.20187 0.24134 0.41637 0.0
C1896 C 0.22565 0.27632 0.36443 0.0
C1897 C 0.20682 0.25076 0.39891 0.0
N1898 N 0.23845 0.24019 0.3571 0.0
N1899 N 0.18122 0.27709 0.40297 0.0
H1900 H 0.20607 0.22554 0.42115 0.0
H1901 H 0.19585 0.25075 0.42645 0.0
H1902 H 0.17493 0.29179 0.39915 0.0
H1903 H 0.17024 0.26549 0.41444 0.0
H1904 H 0.24161 0.24577 0.34351 0.0
H1905 H 0.24169 0.22313 0.36031 0.0
H1906 H 0.25428 0.28899 0.34178 0.0
H1907 H 0.23864 0.31024 0.34577 0.0
C1908 C 0.72117 0.60725 0.71869 0.0
C1909 C 0.716 0.57891 0.71778 0.0
C1910 C 0.76787 0.5972 0.71038 0.0
C1911 C 0.77317 0.62585 0.71006 0.0
N1912 N 0.75327 0.65761 0.71241 0.0
N1913 N 0.73249 0.54644 0.70902 0.0
C1914 C 0.74924 0.63061 0.71371 0.0
C1915 C 0.73872 0.57381 0.7123 0.0
N1916 N 0.69954 0.61192 0.7251 0.0
N1917 N 0.79073 0.59214 0.71041 0.0
H1918 H 0.71151 0.52874 0.71062 0.0
H1919 H 0.74741 0.54156 0.70312 0.0
H1920 H 0.8122 0.6085 0.71032 0.0
H1921 H 0.78853 0.57208 0.71258 0.0
H1922 H 0.70287 0.63201 0.72846 0.0
H1923 H 0.67842 0.59538 0.72818 0.0
H1924 H 0.73613 0.66201 0.71232 0.0
H1925 H 0.77365 0.67574 0.71026 0.0
C1926 C 0.44813 0.16559 0.72511 0.0
C1927 C 0.44825 0.14037 0.7201 0.0
C1928 C 0.39923 0.12158 0.70674 0.0
C1929 C 0.40025 0.1479 0.71046 0.0
N1930 N 0.41896 0.18772 0.73088 0.0
N1931 N 0.42512 0.09483 0.70524 0.0
C1932 C 0.42295 0.1681 0.72168 0.0
C1933 C 0.42398 0.11835 0.7108 0.0
N1934 N 0.47244 0.1876 0.73286 0.0
N1935 N 0.37407 0.09922 0.69997 0.0
H1936 H 0.44242 0.09139 0.70844 0.0
H1937 H 0.41002 0.0796 0.69651 0.0
H1938 H 0.35586 0.10093 0.69634 0.0
H1939 H 0.37041 0.07849 0.69889 0.0
H1940 H 0.47479 0.2077 0.73497 0.0
H1941 H 0.49119 0.18652 0.73598 0.0
H1942 H 0.43236 0.19964 0.74148 0.0
H1943 H 0.40103 0.19061 0.72897 0.0
C1944 C 0.9007 0.31274 0.70949 0.0
C1945 C 0.89313 0.31267 0.72781 0.0
C1946 C 0.86839 0.26029 0.72845 0.0
C1947 C 0.87896 0.26043 0.71077 0.0
N1948 N 0.90883 0.28744 0.68541 0.0
N1949 N 0.87353 0.28686 0.75565 0.0
C1950 C 0.89593 0.28684 0.70147 0.0
C1951 C 0.87803 0.28657 0.73755 0.0
N1952 N 0.9121 0.33753 0.69968 0.0
N1953 N 0.84805 0.23512 0.73633 0.0
H1954 H 0.87962 0.30557 0.76279 0.0
H1955 H 0.86597 0.26881 0.76386 0.0
H1956 H 0.83981 0.21534 0.73014 0.0
H1957 H 0.83713 0.23403 0.74827 0.0
H1958 H 0.91504 0.3384 0.68578 0.0
H1959 H 0.91635 0.35694 0.70523 0.0
H1960 H 0.92404 0.30622 0.67891 0.0
H1961 H 0.90623 0.26905 0.67931 0.0
C1962 C 0.24485 0.05152 0.67538 0.0
C1963 C 0.2545 0.03826 0.66296 0.0
C1964 C 0.30162 0.08284 0.65991 0.0
C1965 C 0.29314 0.09608 0.67351 0.0
N1966 N 0.25044 0.0957 0.68636 0.0
N1967 N 0.29401 0.03897 0.64628 0.0
C1968 C 0.26309 0.08111 0.67935 0.0
C1969 C 0.28356 0.05317 0.65628 0.0
N1970 N 0.21817 0.03563 0.68363 0.0
N1971 N 0.32436 0.09905 0.64846 0.0
H1972 H 0.28119 0.01743 0.64295 0.0
H1973 H 0.31611 0.04775 0.64289 0.0
H1974 H 0.33377 0.12105 0.64737 0.0
H1975 H 0.33019 0.0907 0.63764 0.0
H1976 H 0.21134 0.04302 0.6945 0.0
H1977 H 0.20419 0.01404 0.68082 0.0
H1978 H 0.22804 0.08636 0.68901 0.0
H1979 H 0.26085 0.11781 0.68681 0.0
C1980 C 0.98271 0.23593 0.67293 0.0
C1981 C 0.98773 0.21258 0.67147 0.0
C1982 C 0.93546 0.17923 0.67736 0.0
C1983 C 0.93036 0.20262 0.67971 0.0
N1984 N 0.95146 0.2532 0.68453 0.0
N1985 N 0.97066 0.16266 0.67668 0.0
C1986 C 0.95476 0.23099 0.67883 0.0
C1987 C 0.96465 0.18446 0.67511 0.0
N1988 N 1.00444 0.26282 0.66827 0.0
N1989 N 0.91255 0.15202 0.67627 0.0
H1990 H 0.99168 0.16561 0.6749 0.0
H1991 H 0.95543 0.14233 0.68141 0.0
H1992 H 0.89116 0.14712 0.67821 0.0
H1993 H 0.91463 0.13467 0.67222 0.0
H1994 H 1.00104 0.28017 0.66703 0.0
H1995 H 0.02538 0.26738 0.66429 0.0
H1996 H 0.96878 0.27409 0.68577 0.0
H1997 H 0.93196 0.24989 0.69032 0.0
C1998 C 0.80058 0.75458 0.66311 0.0
C1999 C 0.82173 0.7836 0.66593 0.0
C2000 C 0.85415 0.76887 0.68022 0.0
C2001 C 0.83156 0.73946 0.6792 0.0
N2002 N 0.77995 0.70652 0.67441 0.0
N2003 N 0.86597 0.81841 0.68063 0.0
C2004 C 0.80388 0.73289 0.67184 0.0
C2005 C 0.84767 0.79075 0.67556 0.0
N2006 N 0.77724 0.74759 0.65207 0.0
N2007 N 0.88228 0.77633 0.68466 0.0
H2008 H 0.86229 0.83512 0.67721 0.0
H2009 H 0.88322 0.82429 0.68961 0.0
H2010 H 0.88912 0.76179 0.68759 0.0
H2011 H 0.89983 0.79719 0.68364 0.0
H2012 H 0.76284 0.72668 0.64806 0.0
H2013 H 0.77385 0.76291 0.64562 0.0
H2014 H 0.75874 0.70128 0.67071 0.0
H2015 H 0.7807 0.69133 0.68257 0.0
C2016 C 0.9794 0.74639 0.6769 0.0
C2017 C 0.98007 0.77051 0.66872 0.0
C2018 C 0.92621 0.74517 0.6683 0.0
C2019 C 0.92519 0.72185 0.67796 0.0
N2020 N 0.95062 0.69724 0.68733 0.0
N2021 N 0.95454 0.79491 0.65925 0.0
C2022 C 0.95182 0.72162 0.68101 0.0
C2023 C 0.9536 0.7705 0.66526 0.0
N2024 N 1.00524 0.74769 0.68143 0.0
N2025 N 0.9015 0.74204 0.66018 0.0
H2026 H 0.97412 0.81372 0.65638 0.0
H2027 H 0.93601 0.79716 0.65853 0.0
H2028 H 0.88108 0.72359 0.66129 0.0
H2029 H 0.90169 0.75682 0.65103 0.0
H2030 H 1.00663 0.73248 0.68935 0.0
H2031 H 0.02575 0.76514 0.67824 0.0
H2032 H 0.96843 0.69386 0.68753 0.0
H2033 H 0.93126 0.67975 0.69197 0.0
C2034 C 0.25886 0.19112 0.66768 0.0
C2035 C 0.26425 0.21933 0.66538 0.0
C2036 C 0.31316 0.23718 0.6784 0.0
C2037 C 0.30981 0.20933 0.67763 0.0
N2038 N 0.28031 0.16118 0.66627 0.0
N2039 N 0.29816 0.27003 0.66695 0.0
C2040 C 0.28271 0.1865 0.67114 0.0
C2041 C 0.29181 0.24264 0.67042 0.0
N2042 N 0.23096 0.16856 0.66618 0.0
N2043 N 0.3364 0.2583 0.68732 0.0
H2044 H 0.28303 0.27495 0.66137 0.0
H2045 H 0.3191 0.2877 0.66836 0.0
H2046 H 0.35074 0.25404 0.69446 0.0
H2047 H 0.33897 0.27841 0.68974 0.0
H2048 H 0.22549 0.14763 0.66938 0.0
H2049 H 0.213 0.17128 0.66358 0.0
H2050 H 0.26226 0.14544 0.65935 0.0
H2051 H 0.29737 0.15704 0.66737 0.0
C2052 C 0.80463 0.04133 0.6772 0.0
C2053 C 0.81108 0.04046 0.65876 0.0
C2054 C 0.835 0.09274 0.65698 0.0
C2055 C 0.82586 0.09351 0.67492 0.0
N2056 N 0.79722 0.06764 0.70092 0.0
N2057 N 0.82791 0.06472 0.63019 0.0
C2058 C 0.80952 0.06755 0.68477 0.0
C2059 C 0.82497 0.066 0.6484 0.0
N2060 N 0.79424 0.01717 0.68755 0.0
N2061 N 0.85438 0.11751 0.64831 0.0
H2062 H 0.82134 0.04563 0.62338 0.0
H2063 H 0.83453 0.08225 0.62164 0.0
H2064 H 0.86272 0.13761 0.65403 0.0
H2065 H 0.8644 0.11803 0.63611 0.0
H2066 H 0.79219 0.01712 0.70149 0.0
H2067 H 0.78997 0.99754 0.68236 0.0
H2068 H 0.78254 0.04912 0.70788 0.0
H2069 H 0.79958 0.08623 0.70657 0.0
C2070 C 0.46065 0.29039 0.73017 0.0
C2071 C 0.45581 0.3139 0.72834 0.0
C2072 C 0.41784 0.28719 0.70585 0.0
C2073 C 0.41903 0.26225 0.71018 0.0
N2074 N 0.45258 0.24586 0.7175 0.0
N2075 N 0.42947 0.33489 0.71452 0.0
C2076 C 0.4436 0.26533 0.71984 0.0
C2077 C 0.43447 0.31246 0.71607 0.0
N2078 N 0.48094 0.29165 0.74214 0.0
N2079 N 0.40388 0.28778 0.69059 0.0
H2080 H 0.44174 0.35407 0.72139 0.0
H2081 H 0.41188 0.33366 0.70735 0.0
H2082 H 0.3947 0.27054 0.68179 0.0
H2083 H 0.40457 0.30617 0.6856 0.0
H2084 H 0.48286 0.27394 0.7456 0.0
H2085 H 0.49457 0.30996 0.74949 0.0
H2086 H 0.47225 0.24854 0.72254 0.0
H2087 H 0.44236 0.22905 0.70844 0.0
C2088 C 0.74183 0.16832 0.71493 0.0
C2089 C 0.72055 0.14044 0.72058 0.0
C2090 C 0.75179 0.12244 0.7088 0.0
C2091 C 0.77568 0.15087 0.70685 0.0
N2092 N 0.79268 0.20153 0.70849 0.0
N2093 N 0.70563 0.09051 0.72363 0.0
C2094 C 0.77039 0.17403 0.70975 0.0
C2095 C 0.72544 0.11727 0.7175 0.0
N2096 N 0.7346 0.18936 0.71438 0.0
N2097 N 0.75418 0.10032 0.7019 0.0
H2098 H 0.68591 0.08571 0.72988 0.0
H2099 H 0.70975 0.07354 0.72369 0.0
H2100 H 0.77253 0.10381 0.6945 0.0
H2101 H 0.73682 0.07932 0.70148 0.0
H2102 H 0.748 0.20938 0.70855 0.0
H2103 H 0.71387 0.18573 0.71811 0.0
H2104 H 0.79122 0.21904 0.71294 0.0
H2105 H 0.81304 0.20668 0.70355 0.0
C2106 C 0.86675 0.57576 0.73065 0.0
C2107 C 0.88683 0.57044 0.72107 0.0
C2108 C 0.8948 0.60787 0.6991 0.0
C2109 C 0.87599 0.61439 0.70927 0.0
N2110 N 0.84846 0.60799 0.7367 0.0
N2111 N 0.92397 0.58445 0.69811 0.0
C2112 C 0.86343 0.59947 0.72569 0.0
C2113 C 0.90197 0.58734 0.7058 0.0
N2114 N 0.84976 0.55732 0.744 0.0
N2115 N 0.90582 0.62127 0.683 0.0
H2116 H 0.92984 0.5697 0.70268 0.0
H2117 H 0.93807 0.59816 0.6882 0.0
H2118 H 0.90278 0.63775 0.67829 0.0
H2119 H 0.91646 0.61499 0.67383 0.0
H2120 H 0.83219 0.55796 0.74999 0.0
H2121 H 0.8515 0.53972 0.74808 0.0
H2122 H 0.84216 0.60041 0.7498 0.0
H2123 H 0.84411 0.62421 0.73334 0.0
C2124 C 0.45518 0.97269 0.17678 0.0
C2125 C 0.47998 0.97467 0.18573 0.0
C2126 C 0.5116 1.00267 0.1603 0.0
C2127 C 0.48662 0.99989 0.15118 0.0
N2128 N 0.43403 0.97713 0.1488 0.0
N2129 N 0.53064 0.98668 0.18479 0.0
C2130 C 0.4582 0.9832 0.15883 0.0
C2131 C 0.50787 0.98819 0.17708 0.0
N2132 N 0.429 0.96202 0.18574 0.0
N2133 N 0.53896 0.01998 0.15322 0.0
H2134 H 0.52861 0.97637 0.19706 0.0
H2135 H 0.55074 0.99354 0.17842 0.0
H2136 H 0.54238 0.03014 0.14075 0.0
H2137 H 0.55831 0.02566 0.16011 0.0
H2138 H 0.41111 0.96311 0.18074 0.0
H2139 H 0.42574 0.95405 0.19886 0.0
H2140 H 0.41264 0.96264 0.15283 0.0
H2141 H 0.43545 0.9846 0.13565 0.0
C2142 C 0.02799 0.49336 0.17823 0.0
C2143 C 0.0488 0.52131 0.18404 0.0
C2144 C 0.03931 0.54176 0.157 0.0
C2145 C 0.01999 0.51372 0.15067 0.0
N2146 N 1.00036 0.46285 0.1534 0.0
N2147 N 0.07829 0.57175 0.17763 0.0
C2148 C 1.01568 0.48952 0.16074 0.0
C2149 C 0.05564 0.54544 0.17302 0.0
N2150 N 0.01906 0.47059 0.1897 0.0
N2151 N 0.04127 0.56484 0.14805 0.0
H2152 H 0.09068 0.57522 0.18925 0.0
H2153 H 0.08642 0.58963 0.16923 0.0
H2154 H 0.02996 0.56303 0.13617 0.0
H2155 H 0.05234 0.58557 0.15307 0.0
H2156 H 1.00162 0.45024 0.18699 0.0
H2157 H 0.02736 0.47246 0.20266 0.0
H2158 H 0.99915 0.44471 0.15923 0.0
H2159 H 0.99105 0.45921 0.14062 0.0
C2160 C 0.52994 0.5392 0.17889 0.0
C2161 C 0.50014 0.52095 0.18393 0.0
C2162 C 0.4911 0.49535 0.15528 0.0
C2163 C 0.52055 0.51443 0.1499 0.0
N2164 N 0.56601 0.55829 0.15475 0.0
N2165 N 0.45084 0.48603 0.17541 0.0
C2166 C 0.53934 0.53756 0.16116 0.0
C2167 C 0.48025 0.50037 0.17163 0.0
N2168 N 0.54958 0.55724 0.19126 0.0
N2169 N 0.47386 0.47169 0.14521 0.0
H2170 H 0.44211 0.48926 0.18719 0.0
H2171 H 0.43492 0.47297 0.16619 0.0
H2172 H 0.48088 0.46727 0.13314 0.0
H2173 H 0.45343 0.45527 0.14949 0.0
H2174 H 0.57216 0.56868 0.18904 0.0
H2175 H 0.5436 0.55911 0.20435 0.0
H2176 H 0.57948 0.57718 0.16157 0.0
H2177 H 0.57346 0.55784 0.1418 0.0
C2178 C 1.00426 0.48245 0.87463 0.0
C2179 C 0.99045 0.4986 0.87037 0.0
C2180 C 1.00668 0.52376 0.8992 0.0
C2181 C 0.01894 0.50644 0.90388 0.0
N2182 N 0.02494 0.46645 0.89838 0.0
N2183 N 0.97305 0.5301 0.88005 0.0
C2184 C 1.01626 0.48481 0.89213 0.0
C2185 C 0.98999 0.51788 0.88313 0.0
N2186 N 1.00718 0.4661 0.86171 0.0
N2187 N 1.01216 0.54667 0.90963 0.0
H2188 H 0.96038 0.52613 0.8685 0.0
H2189 H 0.9694 0.542 0.88963 0.0
H2190 H 0.02468 0.55194 0.92131 0.0
H2191 H 1.00651 0.5619 0.90588 0.0
H2192 H 0.0201 0.45663 0.86323 0.0
H2193 H 0.99865 0.46387 0.84879 0.0
H2194 H 0.0221 0.44844 0.89153 0.0
H2195 H 0.0221 0.44844 0.89153 0.0
C2196 C 0.55562 0.51913 0.88272 0.0
C2197 C 0.53696 0.49818 0.87017 0.0
C2198 C 0.4965 0.47985 0.89216 0.0
C2199 C 0.51403 0.5031 0.90367 0.0
N2200 N 0.55933 0.54697 0.9091 0.0
N2201 N 0.48858 0.46055 0.86199 0.0
C2202 C 0.54343 0.52324 0.89879 0.0
C2203 C 0.50713 0.47891 0.87467 0.0
N2204 N 0.58516 0.53466 0.87945 0.0
N2205 N 0.46991 0.45833 0.8981 0.0
H2206 H 0.49546 0.45919 0.84905 0.0
H2207 H 0.46594 0.44829 0.86379 0.0
H2208 H 0.46153 0.4583 0.91084 0.0
H2209 H 0.45742 0.43935 0.89113 0.0
H2210 H 0.60032 0.54811 0.88889 0.0
H2211 H 0.59486 0.5321 0.86789 0.0
H2212 H 0.57958 0.56405 0.90516 0.0
H2213 H 0.55131 0.5507 0.921 0.0
C2214 C 0.50548 0.05754 0.88104 0.0
C2215 C 0.53167 0.06284 0.87211 0.0
C2216 C 0.54388 0.04165 0.89771 0.0
C2217 C 0.51796 0.03686 0.90671 0.0
N2218 N 0.47777 0.04602 0.909 0.0
N2219 N 0.57871 0.06548 0.87329 0.0
C2220 C 0.50002 0.0468 0.89902 0.0
C2221 C 0.55182 0.05663 0.88091 0.0
N2222 N 0.48502 0.06132 0.87201 0.0
N2223 N 0.56027 0.03088 0.90491 0.0
H2224 H 0.58508 0.07638 0.861 0.0
H2225 H 0.59555 0.06419 0.87975 0.0
H2226 H 0.55569 0.02078 0.91746 0.0
H2227 H 0.57738 0.03052 0.89808 0.0
H2228 H 0.46406 0.05467 0.87701 0.0
H2229 H 0.48804 0.06908 0.85885 0.0
H2230 H 0.46569 0.05552 0.90491 0.0
H2231 H 0.47318 0.03815 0.92216 0.0
C2232 C 0.1802 0.29705 0.50936 0.0
C2233 C 0.16063 0.3023 0.51967 0.0
C2234 C 0.15837 0.33151 0.4949 0.0
C2235 C 0.18064 0.32915 0.4856 0.0
N2236 N 0.21476 0.31172 0.48442 0.0
N2237 N 0.13361 0.32725 0.52326 0.0
C2238 C 0.19199 0.31231 0.4929 0.0
C2239 C 0.15021 0.32011 0.51265 0.0
N2240 N 0.18697 0.27697 0.51514 0.0
N2241 N 0.14475 0.34436 0.48661 0.0
H2242 H 0.12723 0.3195 0.53634 0.0
H2243 H 0.12814 0.34267 0.5197 0.0
H2244 H 0.15031 0.35303 0.47366 0.0
H2245 H 0.12627 0.34415 0.49183 0.0
H2246 H 0.19863 0.26994 0.50741 0.0
H2247 H 0.17881 0.2655 0.52713 0.0
H2248 H 0.22639 0.30271 0.49007 0.0
H2249 H 0.22334 0.32191 0.47211 0.0
C2250 C 0.70831 0.83263 0.50466 0.0
C2251 C 0.70946 0.85315 0.51699 0.0
C2252 C 0.68507 0.86818 0.49491 0.0
C2253 C 0.68062 0.84527 0.48359 0.0
N2254 N 0.68466 0.80324 0.47862 0.0
N2255 N 0.69582 0.88823 0.52491 0.0
C2256 C 0.69147 0.82689 0.48867 0.0
C2257 C 0.69712 0.87046 0.51237 0.0
N2258 N 0.72394 0.81912 0.50802 0.0
N2259 N 0.67839 0.88816 0.48879 0.0
H2260 H 0.70441 0.89054 0.53782 0.0
H2261 H 0.68417 0.89896 0.52303 0.0
H2262 H 0.66965 0.88722 0.47606 0.0
H2263 H 0.68394 0.90698 0.49562 0.0
H2264 H 0.72651 0.80621 0.49869 0.0
H2265 H 0.73666 0.8229 0.51953 0.0
H2266 H 0.68905 0.7873 0.48274 0.0
H2267 H 0.67245 0.79828 0.46682 0.0
C2268 C 0.19154 0.87309 0.51503 0.0
C2269 C 0.16189 0.85438 0.5202 0.0
C2270 C 0.15318 0.82861 0.49162 0.0
C2271 C 0.18248 0.84808 0.48615 0.0
N2272 N 0.22739 0.89254 0.49079 0.0
N2273 N 0.11283 0.8186 0.51185 0.0
C2274 C 0.20097 0.87151 0.4973 0.0
C2275 C 0.14219 0.83345 0.50798 0.0
N2276 N 0.21105 0.89152 0.52731 0.0
N2277 N 0.13625 0.80475 0.48164 0.0
H2278 H 0.104 0.8217 0.52363 0.0
H2279 H 0.09697 0.80523 0.5027 0.0
H2280 H 0.14336 0.80049 0.46955 0.0
H2281 H 0.11603 0.78809 0.48599 0.0
H2282 H 0.2336 0.90336 0.52502 0.0
H2283 H 0.20506 0.89336 0.54041 0.0
H2284 H 0.2406 0.9116 0.49752 0.0
H2285 H 0.23485 0.89212 0.47783 0.0
C2286 C 0.61807 0.82096 0.22123 0.0
C2287 C 0.63788 0.83244 0.20648 0.0
C2288 C 0.67914 0.85618 0.22739 0.0
C2289 C 0.65895 0.84836 0.24188 0.0
N2290 N 0.60915 0.82414 0.25297 0.0
N2291 N 0.68713 0.86237 0.19516 0.0
C2292 C 0.62837 0.83064 0.23895 0.0
C2293 C 0.66846 0.85013 0.20946 0.0
N2294 N 0.58948 0.80063 0.21822 0.0
N2295 N 0.70856 0.86929 0.23085 0.0
H2296 H 0.68029 0.85815 0.18181 0.0
H2297 H 0.70904 0.87819 0.19645 0.0
H2298 H 0.71702 0.87412 0.24386 0.0
H2299 H 0.72434 0.87305 0.2211 0.0
H2300 H 0.57448 0.78937 0.22845 0.0
H2301 H 0.58138 0.79323 0.20537 0.0
H2302 H 0.58649 0.81421 0.25143 0.0
H2303 H 0.61599 0.83015 0.2662 0.0
C2304 C 0.17688 0.81265 0.2099 0.0
C2305 C 0.20634 0.83171 0.20453 0.0
C2306 C 0.21521 0.85762 0.23304 0.0
C2307 C 0.18611 0.83786 0.2387 0.0
N2308 N 0.14149 0.79302 0.23437 0.0
N2309 N 0.25533 0.86816 0.21248 0.0
C2310 C 0.16766 0.81423 0.22768 0.0
C2311 C 0.22607 0.85292 0.21659 0.0
N2312 N 0.15732 0.79391 0.19776 0.0
N2313 N 0.23206 0.88158 0.24296 0.0
H2314 H 0.26405 0.86517 0.20061 0.0
H2315 H 0.27128 0.88182 0.22149 0.0
H2316 H 0.22506 0.88569 0.25515 0.0
H2317 H 0.25208 0.89843 0.2385 0.0
H2318 H 0.13484 0.78178 0.20021 0.0
H2319 H 0.16316 0.79206 0.18463 0.0
H2320 H 0.12838 0.77382 0.22775 0.0
H2321 H 0.13416 0.79347 0.24736 0.0
C2322 C 0.1644 0.37739 0.21156 0.0
C2323 C 0.19268 0.38773 0.20379 0.0
C2324 C 0.20745 0.37007 0.23008 0.0
C2325 C 0.17958 0.36082 0.23813 0.0
N2326 N 0.13391 0.361 0.23843 0.0
N2327 N 0.24288 0.39892 0.20697 0.0
C2328 C 0.15883 0.36623 0.22944 0.0
C2329 C 0.21476 0.38559 0.21348 0.0
N2330 N 0.1424 0.37696 0.20155 0.0
N2331 N 0.22649 0.36307 0.23797 0.0
H2332 H 0.24892 0.41033 0.19486 0.0
H2333 H 0.26065 0.40073 0.21421 0.0
H2334 H 0.22221 0.35242 0.25032 0.0
H2335 H 0.24564 0.36614 0.23178 0.0
H2336 H 0.12053 0.36671 0.20569 0.0
H2337 H 0.14545 0.3848 0.1884 0.0
H2338 H 0.11934 0.36722 0.23362 0.0
H2339 H 0.12914 0.35277 0.25151 0.0
C2340 C 0.82043 0.6558 0.84494 0.0
C2341 C 0.83038 0.6376 0.85195 0.0
C2342 C 0.86223 0.64778 0.82539 0.0
C2343 C 0.85115 0.66481 0.81802 0.0
N2344 N 0.81562 0.6805 0.81892 0.0
N2345 N 0.8565 0.61202 0.84751 0.0
C2346 C 0.82894 0.66737 0.82724 0.0
C2347 C 0.85005 0.63233 0.84175 0.0
N2348 N 0.80389 0.66306 0.8555 0.0
N2349 N 0.88511 0.64718 0.81708 0.0
H2350 H 0.84806 0.60041 0.85942 0.0
H2351 H 0.86818 0.60497 0.83982 0.0
H2352 H 0.89408 0.6576 0.80488 0.0
H2353 H 0.89652 0.63799 0.8228 0.0
H2354 H 0.79873 0.67872 0.85196 0.0
H2355 H 0.79726 0.65519 0.86853 0.0
H2356 H 0.79717 0.68042 0.82408 0.0
H2357 H 0.8214 0.68931 0.80602 0.0
C2358 C 0.39582 0.2181 0.83977 0.0
C2359 C 0.40101 0.19646 0.84668 0.0
C2360 C 0.37811 0.16795 0.81976 0.0
C2361 C 0.36643 0.18594 0.81547 0.0
N2362 N 0.36591 0.2298 0.82081 0.0
N2363 N 0.41802 0.16614 0.8344 0.0
C2364 C 0.37582 0.21156 0.82529 0.0
C2365 C 0.39828 0.1755 0.83417 0.0
N2366 N 0.41393 0.24586 0.84452 0.0
N2367 N 0.36939 0.14321 0.81052 0.0
H2368 H 0.43603 0.17502 0.84304 0.0
H2369 H 0.41881 0.15286 0.82455 0.0
H2370 H 0.3545 0.13669 0.79992 0.0
H2371 H 0.37525 0.12817 0.81443 0.0
H2372 H 0.4129 0.26297 0.83875 0.0
H2373 H 0.43288 0.25188 0.85203 0.0
H2374 H 0.3697 0.24712 0.8288 0.0
H2375 H 0.35254 0.22666 0.80971 0.0
C2376 C 0.84713 0.21341 0.83882 0.0
C2377 C 0.82772 0.18917 0.84935 0.0
C2378 C 0.82797 0.15743 0.82586 0.0
C2379 C 0.84969 0.18157 0.81625 0.0
N2380 N 0.88252 0.23249 0.81429 0.0
N2381 N 0.80278 0.13813 0.85424 0.0
C2382 C 0.85992 0.2096 0.82289 0.0
C2383 C 0.8189 0.16116 0.8432 0.0
N2384 N 0.85269 0.23999 0.8438 0.0
N2385 N 0.81555 0.13095 0.81821 0.0
H2386 H 0.79574 0.13991 0.86705 0.0
H2387 H 0.79846 0.11752 0.85138 0.0
H2388 H 0.82176 0.12739 0.80558 0.0
H2389 H 0.7974 0.11295 0.82362 0.0
H2390 H 0.86409 0.25817 0.83576 0.0
H2391 H 0.84387 0.24357 0.85542 0.0
H2392 H 0.89329 0.25308 0.81954 0.0
H2393 H 0.89198 0.23059 0.80241 0.0
C2394 C 0.33957 0.18273 0.54105 0.0
C2395 C 0.3088 0.1672 0.53811 0.0
C2396 C 0.29973 0.16616 0.5706 0.0
C2397 C 0.33049 0.18196 0.5735 0.0
N2398 N 0.37959 0.19931 0.56244 0.0
N2399 N 0.25984 0.13837 0.54991 0.0
C2400 C 0.35037 0.1882 0.55899 0.0
C2401 C 0.28895 0.15699 0.55289 0.0
N2402 N 0.3584 0.19349 0.52671 0.0
N2403 N 0.28088 0.16111 0.58464 0.0
H2404 H 0.25138 0.13137 0.53707 0.0
H2405 H 0.24455 0.12795 0.56015 0.0
H2406 H 0.28797 0.16671 0.59786 0.0
H2407 H 0.2584 0.15281 0.58311 0.0
H2408 H 0.38078 0.20787 0.52792 0.0
H2409 H 0.35139 0.18944 0.51339 0.0
H2410 H 0.39497 0.20185 0.5527 0.0
H2411 H 0.38809 0.20364 0.57545 0.0
C2412 C 0.90403 0.17682 0.55234 0.0
C2413 C 0.88478 0.15719 0.53939 0.0
C2414 C 0.84372 0.14397 0.5603 0.0
C2415 C 0.86168 0.16877 0.57058 0.0
N2416 N 0.90995 0.20879 0.57664 0.0
N2417 N 0.8443 0.10889 0.5406 0.0
C2418 C 0.89223 0.18502 0.56683 0.0
C2419 C 0.85645 0.13667 0.54583 0.0
N2420 N 0.93289 0.18417 0.55235 0.0
N2421 N 0.81458 0.12728 0.56429 0.0
H2422 H 0.85627 0.10193 0.53304 0.0
H2423 H 0.82482 0.0924 0.54601 0.0
H2424 H 0.80469 0.13099 0.57533 0.0
H2425 H 0.80007 0.11076 0.55596 0.0
H2426 H 0.94744 0.19631 0.56247 0.0
H2427 H 0.94095 0.17466 0.54355 0.0
H2428 H 0.93179 0.22282 0.57314 0.0
H2429 H 0.90228 0.21561 0.5874 0.0
C2430 C 0.82621 0.70279 0.54431 0.0
C2431 C 0.85481 0.71424 0.5368 0.0
C2432 C 0.86992 0.69695 0.56313 0.0
C2433 C 0.84172 0.68671 0.57097 0.0
N2434 N 0.7952 0.68522 0.57092 0.0
N2435 N 0.90544 0.72713 0.54043 0.0
C2436 C 0.82056 0.69135 0.56213 0.0
C2437 C 0.87716 0.7128 0.54665 0.0
N2438 N 0.80402 0.70163 0.53412 0.0
N2439 N 0.88939 0.69058 0.57107 0.0
H2440 H 0.91144 0.7388 0.52841 0.0
H2441 H 0.92329 0.72947 0.54783 0.0
H2442 H 0.88512 0.67959 0.58329 0.0
H2443 H 0.90891 0.69445 0.56501 0.0
H2444 H 0.78206 0.69063 0.53806 0.0
H2445 H 0.80712 0.70963 0.52101 0.0
H2446 H 0.78025 0.69085 0.566 0.0
H2447 H 0.7904 0.67686 0.58397 0.0
loop_
_geom_bond_atom_site_label_1
_geom_bond_atom_site_label_2
_geom_bond_distance
_geom_bond_site_symmetry_2
_ccdc_geom_bond_type
C0 C1 1.264 . S
C0 C5 1.479 . S
C0 C10 1.465 . S
C1 C0 1.264 . S
C1 C3 1.339 . S
C1 H28 0.931 . S
C2 C3 1.395 . S
C2 C4 1.320 . S
C3 C1 1.339 . S
C3 C2 1.395 . S
C3 H29 0.929 . S
C4 C2 1.320 . S
C4 C5 1.405 . S
C4 H30 0.930 . S
C5 C0 1.479 . S
C5 C4 1.405 . S
C5 H31 0.931 . S
U6 O7 2.454 . S
U6 O8 2.458 . S
U6 C9 2.984 . S
U6 C10 2.847 . S
U6 C23 2.882 . S
U6 O24 2.441 . S
U6 O25 2.420 . S
U6 O26 2.455 . S
U6 O27 2.449 . S
O7 U6 2.454 . S
O7 C9 1.353 . S
O8 U6 2.458 . S
O8 C9 1.286 . S
C9 U6 2.984 . S
C9 O7 1.353 . S
C9 O8 1.286 . S
C9 C11 1.363 . S
C10 C0 1.465 . S
C10 U6 2.847 . S
C10 O24 1.249 . S
C10 O25 1.202 . S
C11 C9 1.363 . S
C11 C13 1.408 . S
C11 C16 1.342 . S
C12 C13 1.310 . S
C12 C15 1.461 . S
C12 H32 0.932 . S
C13 C11 1.408 . S
C13 C12 1.310 . S
C13 H33 0.930 . S
C14 C15 1.474 . S
C14 C16 1.285 . S
C14 H34 0.929 1_545 S
C15 C12 1.461 . S
C15 C14 1.474 . S
C16 C11 1.342 . S
C16 C14 1.285 . S
C16 H35 0.930 . S
C17 C20 1.424 . S
C17 C22 1.245 . S
C17 C23 1.428 . S
C18 C21 1.260 . S
C18 C22 1.477 . S
C18 H36 0.932 . S
C19 C20 1.384 . S
C19 C21 1.479 . S
C19 H37 0.929 . S
C20 C17 1.424 . S
C20 C19 1.384 . S
C20 H38 0.928 . S
C21 C18 1.260 . S
C21 C19 1.479 . S
C22 C17 1.245 . S
C22 C18 1.477 . S
C22 H39 0.932 . S
C23 U6 2.882 . S
C23 C17 1.428 . S
C23 O26 1.301 . S
C23 O27 1.282 . S
O24 U6 2.441 . S
O24 C10 1.249 . S
O25 U6 2.420 . S
O25 C10 1.202 . S
O26 U6 2.455 . S
O26 C23 1.301 . S
O27 U6 2.449 . S
O27 C23 1.282 . S
H28 C1 0.931 . S
H29 C3 0.929 . S
H30 C4 0.930 . S
H31 C5 0.931 . S
H32 C12 0.932 . S
H33 C13 0.930 . S
H34 C14 0.929 1_565 S
H35 C16 0.930 . S
H36 C18 0.932 . S
H37 C19 0.929 . S
H38 C20 0.928 . S
H39 C22 0.932 . S
C40 C41 1.264 . S
C40 C45 1.479 . S
C40 C50 1.465 . S
C41 C40 1.264 . S
C41 C43 1.339 . S
C41 H68 0.931 . S
C42 C43 1.395 1_455 S
C42 C44 1.320 1_455 S
C43 C41 1.339 . S
C43 C42 1.395 1_655 S
C43 H69 0.929 1_655 S
C44 C42 1.320 1_655 S
C44 C45 1.405 . S
C44 H70 0.930 . S
C45 C40 1.479 . S
C45 C44 1.405 . S
C45 H71 0.931 . S
U46 O47 2.454 . S
U46 O48 2.458 . S
U46 C49 2.984 . S
U46 C50 2.847 . S
U46 C63 2.882 . S
U46 O64 2.441 . S
U46 O65 2.420 . S
U46 O66 2.455 . S
U46 O67 2.449 . S
O47 U46 2.454 . S
O47 C49 1.353 . S
O48 U46 2.458 . S
O48 C49 1.286 . S
C49 U46 2.984 . S
C49 O47 1.353 . S
C49 O48 1.286 . S
C49 C51 1.363 . S
C50 C40 1.465 . S
C50 U46 2.847 . S
C50 O64 1.249 . S
C50 O65 1.202 . S
C51 C49 1.363 . S
C51 C53 1.408 . S
C51 C56 1.342 . S
C52 C53 1.310 . S
C52 C55 1.461 1_545 S
C52 H72 0.932 . S
C53 C51 1.408 . S
C53 C52 1.310 . S
C53 H73 0.930 . S
C54 C55 1.474 1_545 S
C54 C56 1.285 . S
C54 H74 0.929 1_545 S
C55 C52 1.461 1_565 S
C55 C54 1.474 1_565 S
C56 C51 1.342 . S
C56 C54 1.285 . S
C56 H75 0.930 . S
C57 C60 1.424 . S
C57 C62 1.245 . S
C57 C63 1.428 . S
C58 C61 1.260 . S
C58 C62 1.477 . S
C58 H76 0.932 . S
C59 C60 1.384 . S
C59 C61 1.479 . S
C59 H77 0.929 . S
C60 C57 1.424 . S
C60 C59 1.384 . S
C60 H78 0.928 . S
C61 C58 1.260 . S
C61 C59 1.479 . S
C62 C57 1.245 . S
C62 C58 1.477 . S
C62 H79 0.932 . S
C63 U46 2.882 . S
C63 C57 1.428 . S
C63 O66 1.301 . S
C63 O67 1.282 . S
O64 U46 2.441 . S
O64 C50 1.249 . S
O65 U46 2.420 . S
O65 C50 1.202 . S
O66 U46 2.455 . S
O66 C63 1.301 . S
O67 U46 2.449 . S
O67 C63 1.282 . S
H68 C41 0.931 . S
H69 C43 0.929 1_455 S
H70 C44 0.930 . S
H71 C45 0.931 . S
H72 C52 0.932 . S
H73 C53 0.930 . S
H74 C54 0.929 1_565 S
H75 C56 0.930 . S
H76 C58 0.932 . S
H77 C59 0.929 . S
H78 C60 0.928 . S
H79 C62 0.932 . S
C80 C81 1.264 . S
C80 C85 1.479 . S
C80 C90 1.465 . S
C81 C80 1.264 . S
C81 C83 1.339 . S
C81 H108 0.931 . S
C82 C83 1.395 . S
C82 C84 1.320 . S
C83 C81 1.339 . S
C83 C82 1.395 . S
C83 H109 0.929 . S
C84 C82 1.320 . S
C84 C85 1.405 . S
C84 H110 0.930 . S
C85 C80 1.479 . S
C85 C84 1.405 . S
C85 H111 0.931 . S
U86 O87 2.454 . S
U86 O88 2.458 . S
U86 C89 2.984 . S
U86 C90 2.847 . S
U86 C103 2.882 . S
U86 O104 2.441 . S
U86 O105 2.420 . S
U86 O106 2.455 . S
U86 O107 2.449 . S
O87 U86 2.454 . S
O87 C89 1.353 . S
O88 U86 2.458 . S
O88 C89 1.286 . S
C89 U86 2.984 . S
C89 O87 1.353 . S
C89 O88 1.286 . S
C89 C91 1.363 . S
C90 C80 1.465 . S
C90 U86 2.847 . S
C90 O104 1.249 . S
C90 O105 1.202 . S
C91 C89 1.363 . S
C91 C93 1.408 . S
C91 C96 1.342 . S
C92 C93 1.310 . S
C92 C95 1.461 1_655 S
C92 H112 0.932 . S
C93 C91 1.408 . S
C93 C92 1.310 . S
C93 H113 0.930 . S
C94 C95 1.474 . S
C94 C96 1.285 1_455 S
C94 H114 0.929 . S
C95 C92 1.461 1_455 S
C95 C94 1.474 . S
C96 C91 1.342 . S
C96 C94 1.285 1_655 S
C96 H115 0.930 . S
C97 C100 1.424 . S
C97 C102 1.245 . S
C97 C103 1.428 . S
C98 C101 1.260 . S
C98 C102 1.477 . S
C98 H116 0.932 . S
C99 C100 1.384 . S
C99 C101 1.479 . S
C99 H117 0.929 . S
C100 C97 1.424 . S
C100 C99 1.384 . S
C100 H118 0.928 . S
C101 C98 1.260 . S
C101 C99 1.479 . S
C102 C97 1.245 . S
C102 C98 1.477 . S
C102 H119 0.932 . S
C103 U86 2.882 . S
C103 C97 1.428 . S
C103 O106 1.301 . S
C103 O107 1.282 . S
O104 U86 2.441 . S
O104 C90 1.249 . S
O105 U86 2.420 . S
O105 C90 1.202 . S
O106 U86 2.455 . S
O106 C103 1.301 . S
O107 U86 2.449 . S
O107 C103 1.282 . S
H108 C81 0.931 . S
H109 C83 0.929 . S
H110 C84 0.930 . S
H111 C85 0.931 . S
H112 C92 0.932 . S
H113 C93 0.930 . S
H114 C94 0.929 . S
H115 C96 0.930 . S
H116 C98 0.932 . S
H117 C99 0.929 . S
H118 C100 0.928 . S
H119 C102 0.932 . S
C120 C121 1.264 . S
C120 C125 1.479 . S
C120 C130 1.465 . S
C121 C120 1.264 . S
C121 C123 1.345 . S
C121 H148 0.931 . S
C122 C123 1.394 1_655 S
C122 C124 1.320 1_655 S
C123 C121 1.345 . S
C123 C122 1.394 1_455 S
C123 H149 0.922 1_455 S
C124 C122 1.320 1_455 S
C124 C125 1.405 . S
C124 H150 0.930 . S
C125 C120 1.479 . S
C125 C124 1.405 . S
C125 H151 0.931 . S
U126 O127 2.454 . S
U126 O128 2.458 . S
U126 C129 2.984 . S
U126 C130 2.847 . S
U126 C143 2.882 . S
U126 O144 2.441 . S
U126 O145 2.420 . S
U126 O146 2.455 . S
U126 O147 2.449 . S
O127 U126 2.454 . S
O127 C129 1.353 . S
O128 U126 2.458 . S
O128 C129 1.286 . S
C129 U126 2.984 . S
C129 O127 1.353 . S
C129 O128 1.286 . S
C129 C131 1.363 . S
C130 C120 1.465 . S
C130 U126 2.847 . S
C130 O144 1.249 . S
C130 O145 1.202 . S
C131 C129 1.363 . S
C131 C133 1.408 . S
C131 C136 1.342 . S
C132 C133 1.310 . S
C132 C135 1.461 . S
C132 H152 0.932 . S
C133 C131 1.408 . S
C133 C132 1.310 . S
C133 H153 0.930 . S
C134 C135 1.474 . S
C134 C136 1.285 . S
C134 H154 0.929 . S
C135 C132 1.461 . S
C135 C134 1.474 . S
C136 C131 1.342 . S
C136 C134 1.285 . S
C136 H155 0.930 . S
C137 C140 1.424 . S
C137 C142 1.245 . S
C137 C143 1.428 . S
C138 C141 1.260 . S
C138 C142 1.477 . S
C138 H156 0.932 . S
C139 C140 1.384 . S
C139 C141 1.479 . S
C139 H157 0.929 . S
C140 C137 1.424 . S
C140 C139 1.384 . S
C140 H158 0.928 . S
C141 C138 1.260 . S
C141 C139 1.479 . S
C142 C137 1.245 . S
C142 C138 1.477 . S
C142 H159 0.932 . S
C143 U126 2.882 . S
C143 C137 1.428 . S
C143 O146 1.301 . S
C143 O147 1.282 . S
O144 U126 2.441 . S
O144 C130 1.249 . S
O145 U126 2.420 . S
O145 C130 1.202 . S
O146 U126 2.455 . S
O146 C143 1.301 . S
O147 U126 2.449 . S
O147 C143 1.282 . S
H148 C121 0.931 . S
H149 C123 0.922 1_655 S
H150 C124 0.930 . S
H151 C125 0.931 . S
H152 C132 0.932 . S
H153 C133 0.930 . S
H154 C134 0.929 . S
H155 C136 0.930 . S
H156 C138 0.932 . S
H157 C139 0.929 . S
H158 C140 0.928 . S
H159 C142 0.932 . S
C160 C161 1.264 . S
C160 C165 1.479 . S
C160 C170 1.465 . S
C161 C160 1.264 . S
C161 C163 1.339 . S
C161 H188 0.931 . S
C162 C163 1.395 . S
C162 C164 1.320 . S
C163 C161 1.339 . S
C163 C162 1.395 . S
C163 H189 0.929 . S
C164 C162 1.320 . S
C164 C165 1.405 . S
C164 H190 0.930 . S
C165 C160 1.479 . S
C165 C164 1.405 . S
C165 H191 0.931 . S
U166 O167 2.454 . S
U166 O168 2.458 . S
U166 C169 2.984 . S
U166 C170 2.847 . S
U166 C183 2.882 . S
U166 O184 2.441 . S
U166 O185 2.420 . S
U166 O186 2.455 . S
U166 O187 2.449 . S
O167 U166 2.454 . S
O167 C169 1.353 . S
O168 U166 2.458 . S
O168 C169 1.286 . S
C169 U166 2.984 . S
C169 O167 1.353 . S
C169 O168 1.286 . S
C169 C171 1.363 . S
C170 C160 1.465 . S
C170 U166 2.847 . S
C170 O184 1.249 . S
C170 O185 1.202 . S
C171 C169 1.363 . S
C171 C173 1.408 . S
C171 C176 1.342 . S
C172 C173 1.310 . S
C172 C175 1.461 1_565 S
C172 H192 0.932 . S
C173 C171 1.408 . S
C173 C172 1.310 . S
C173 H193 0.930 . S
C174 C175 1.474 1_565 S
C174 C176 1.285 . S
C174 H194 0.929 1_565 S
C175 C172 1.461 1_545 S
C175 C174 1.474 1_545 S
C176 C171 1.342 . S
C176 C174 1.285 . S
C176 H195 0.930 . S
C177 C180 1.424 . S
C177 C182 1.245 . S
C177 C183 1.428 . S
C178 C181 1.260 . S
C178 C182 1.477 . S
C178 H196 0.932 . S
C179 C180 1.384 . S
C179 C181 1.479 . S
C179 H197 0.929 . S
C180 C177 1.424 . S
C180 C179 1.384 . S
C180 H198 0.928 . S
C181 C178 1.260 . S
C181 C179 1.479 . S
C182 C177 1.245 . S
C182 C178 1.477 . S
C182 H199 0.932 . S
C183 U166 2.882 . S
C183 C177 1.428 . S
C183 O186 1.301 . S
C183 O187 1.282 . S
O184 U166 2.441 . S
O184 C170 1.249 . S
O185 U166 2.420 . S
O185 C170 1.202 . S
O186 U166 2.455 . S
O186 C183 1.301 . S
O187 U166 2.449 . S
O187 C183 1.282 . S
H188 C161 0.931 . S
H189 C163 0.929 . S
H190 C164 0.930 . S
H191 C165 0.931 . S
H192 C172 0.932 . S
H193 C173 0.930 . S
H194 C174 0.929 1_545 S
H195 C176 0.930 . S
H196 C178 0.932 . S
H197 C179 0.929 . S
H198 C180 0.928 . S
H199 C182 0.932 . S
C200 C201 1.264 . S
C200 C205 1.479 . S
C200 C210 1.465 . S
C201 C200 1.264 . S
C201 C203 1.339 1_455 S
C201 H228 0.931 . S
C202 C203 1.395 . S
C202 C204 1.320 1_655 S
C203 C201 1.339 1_655 S
C203 C202 1.395 . S
C203 H229 0.929 . S
C204 C202 1.320 1_455 S
C204 C205 1.405 . S
C204 H230 0.930 . S
C205 C200 1.479 . S
C205 C204 1.405 . S
C205 H231 0.931 . S
U206 O207 2.454 . S
U206 O208 2.458 . S
U206 C209 2.984 . S
U206 C210 2.847 . S
U206 C223 2.882 . S
U206 O224 2.441 . S
U206 O225 2.420 . S
U206 O226 2.455 . S
U206 O227 2.449 . S
O207 U206 2.454 . S
O207 C209 1.353 . S
O208 U206 2.458 . S
O208 C209 1.286 . S
C209 U206 2.984 . S
C209 O207 1.353 . S
C209 O208 1.286 . S
C209 C211 1.363 . S
C210 C200 1.465 . S
C210 U206 2.847 . S
C210 O224 1.249 . S
C210 O225 1.202 . S
C211 C209 1.363 . S
C211 C213 1.408 . S
C211 C216 1.342 . S
C212 C213 1.310 . S
C212 C215 1.461 1_565 S
C212 H232 0.932 . S
C213 C211 1.408 . S
C213 C212 1.310 . S
C213 H233 0.930 . S
C214 C215 1.474 1_565 S
C214 C216 1.285 . S
C214 H234 0.929 1_565 S
C215 C212 1.461 1_545 S
C215 C214 1.474 1_545 S
C216 C211 1.342 . S
C216 C214 1.285 . S
C216 H235 0.930 . S
C217 C220 1.424 . S
C217 C222 1.245 . S
C217 C223 1.428 . S
C218 C221 1.260 . S
C218 C222 1.477 . S
C218 H236 0.932 . S
C219 C220 1.384 . S
C219 C221 1.479 . S
C219 H237 0.929 . S
C220 C217 1.424 . S
C220 C219 1.384 . S
C220 H238 0.928 . S
C221 C218 1.260 . S
C221 C219 1.479 . S
C222 C217 1.245 . S
C222 C218 1.477 . S
C222 H239 0.932 . S
C223 U206 2.882 . S
C223 C217 1.428 . S
C223 O226 1.301 . S
C223 O227 1.282 . S
O224 U206 2.441 . S
O224 C210 1.249 . S
O225 U206 2.420 . S
O225 C210 1.202 . S
O226 U206 2.455 . S
O226 C223 1.301 . S
O227 U206 2.449 . S
O227 C223 1.282 . S
H228 C201 0.931 . S
H229 C203 0.929 . S
H230 C204 0.930 . S
H231 C205 0.931 . S
H232 C212 0.932 . S
H233 C213 0.930 . S
H234 C214 0.929 1_545 S
H235 C216 0.930 . S
H236 C218 0.932 . S
H237 C219 0.929 . S
H238 C220 0.928 . S
H239 C222 0.932 . S
C240 C241 1.264 . S
C240 C245 1.479 . S
C240 C250 1.465 . S
C241 C240 1.264 . S
C241 C243 1.339 . S
C241 H268 0.931 . S
C242 C243 1.395 . S
C242 C244 1.320 . S
C243 C241 1.339 . S
C243 C242 1.395 . S
C243 H269 0.929 . S
C244 C242 1.320 . S
C244 C245 1.405 . S
C244 H270 0.930 . S
C245 C240 1.479 . S
C245 C244 1.405 . S
C245 H271 0.931 . S
U246 O247 2.454 . S
U246 O248 2.458 . S
U246 C249 2.984 . S
U246 C250 2.847 . S
U246 C263 2.882 . S
U246 O264 2.441 . S
U246 O265 2.420 . S
U246 O266 2.455 . S
U246 O267 2.449 . S
O247 U246 2.454 . S
O247 C249 1.353 . S
O248 U246 2.458 . S
O248 C249 1.286 . S
C249 U246 2.984 . S
C249 O247 1.353 . S
C249 O248 1.286 . S
C249 C251 1.363 . S
C250 C240 1.465 . S
C250 U246 2.847 . S
C250 O264 1.249 . S
C250 O265 1.202 . S
C251 C249 1.363 . S
C251 C253 1.408 . S
C251 C256 1.342 . S
C252 C253 1.310 . S
C252 C255 1.461 . S
C252 H272 0.932 . S
C253 C251 1.408 . S
C253 C252 1.310 . S
C253 H273 0.930 . S
C254 C255 1.474 . S
C254 C256 1.285 . S
C254 H274 0.929 . S
C255 C252 1.461 . S
C255 C254 1.474 . S
C256 C251 1.342 . S
C256 C254 1.285 . S
C256 H275 0.930 . S
C257 C260 1.424 . S
C257 C262 1.245 . S
C257 C263 1.428 . S
C258 C261 1.260 . S
C258 C262 1.477 . S
C258 H276 0.932 . S
C259 C260 1.384 . S
C259 C261 1.479 . S
C259 H277 0.929 . S
C260 C257 1.424 . S
C260 C259 1.384 . S
C260 H278 0.928 . S
C261 C258 1.260 . S
C261 C259 1.479 . S
C262 C257 1.245 . S
C262 C258 1.477 . S
C262 H279 0.932 . S
C263 U246 2.882 . S
C263 C257 1.428 . S
C263 O266 1.301 . S
C263 O267 1.282 . S
O264 U246 2.441 . S
O264 C250 1.249 . S
O265 U246 2.420 . S
O265 C250 1.202 . S
O266 U246 2.455 . S
O266 C263 1.301 . S
O267 U246 2.449 . S
O267 C263 1.282 . S
H268 C241 0.931 . S
H269 C243 0.929 . S
H270 C244 0.930 . S
H271 C245 0.931 . S
H272 C252 0.932 . S
H273 C253 0.930 . S
H274 C254 0.929 . S
H275 C256 0.930 . S
H276 C258 0.932 . S
H277 C259 0.929 . S
H278 C260 0.928 . S
H279 C262 0.932 . S
C280 C281 1.264 . S
C280 C285 1.479 . S
C280 C290 1.465 . S
C281 C280 1.264 . S
C281 C283 1.339 . S
C281 H308 0.931 . S
C282 C283 1.395 . S
C282 C284 1.320 . S
C283 C281 1.339 . S
C283 C282 1.395 . S
C283 H309 0.929 . S
C284 C282 1.320 . S
C284 C285 1.405 . S
C284 H310 0.930 . S
C285 C280 1.479 . S
C285 C284 1.405 . S
C285 H311 0.931 . S
U286 O287 2.454 . S
U286 O288 2.458 . S
U286 C289 2.984 . S
U286 C290 2.847 . S
U286 C303 2.882 . S
U286 O304 2.441 . S
U286 O305 2.420 . S
U286 O306 2.455 . S
U286 O307 2.449 . S
O287 U286 2.454 . S
O287 C289 1.353 . S
O288 U286 2.458 . S
O288 C289 1.286 . S
C289 U286 2.984 . S
C289 O287 1.353 . S
C289 O288 1.286 . S
C289 C291 1.363 . S
C290 C280 1.465 . S
C290 U286 2.847 . S
C290 O304 1.249 . S
C290 O305 1.202 . S
C291 C289 1.363 . S
C291 C293 1.408 . S
C291 C296 1.342 . S
C292 C293 1.310 . S
C292 C295 1.461 . S
C292 H312 0.932 . S
C293 C291 1.408 . S
C293 C292 1.310 . S
C293 H313 0.930 . S
C294 C295 1.474 . S
C294 C296 1.285 . S
C294 H314 0.929 . S
C295 C292 1.461 . S
C295 C294 1.474 . S
C296 C291 1.342 . S
C296 C294 1.285 . S
C296 H315 0.930 . S
C297 C300 1.424 . S
C297 C302 1.245 . S
C297 C303 1.428 . S
C298 C301 1.260 . S
C298 C302 1.477 . S
C298 H316 0.932 . S
C299 C300 1.384 . S
C299 C301 1.479 . S
C299 H317 0.929 . S
C300 C297 1.424 . S
C300 C299 1.384 . S
C300 H318 0.928 . S
C301 C298 1.260 . S
C301 C299 1.479 . S
C302 C297 1.245 . S
C302 C298 1.477 . S
C302 H319 0.932 . S
C303 U286 2.882 . S
C303 C297 1.428 . S
C303 O306 1.301 . S
C303 O307 1.282 . S
O304 U286 2.441 . S
O304 C290 1.249 . S
O305 U286 2.420 . S
O305 C290 1.202 . S
O306 U286 2.455 . S
O306 C303 1.301 . S
O307 U286 2.449 . S
O307 C303 1.282 . S
H308 C281 0.931 . S
H309 C283 0.929 . S
H310 C284 0.930 . S
H311 C285 0.931 . S
H312 C292 0.932 . S
H313 C293 0.930 . S
H314 C294 0.929 . S
H315 C296 0.930 . S
H316 C298 0.932 . S
H317 C299 0.929 . S
H318 C300 0.928 . S
H319 C302 0.932 . S
C320 C321 1.264 . S
C320 C325 1.479 . S
C320 C330 1.465 . S
C321 C320 1.264 . S
C321 C323 1.339 . S
C321 H348 0.931 . S
C322 C323 1.395 . S
C322 C324 1.320 . S
C323 C321 1.339 . S
C323 C322 1.395 . S
C323 H349 0.929 . S
C324 C322 1.320 . S
C324 C325 1.405 . S
C324 H350 0.930 . S
C325 C320 1.479 . S
C325 C324 1.405 . S
C325 H351 0.931 . S
U326 O327 2.454 . S
U326 O328 2.458 . S
U326 C329 2.984 . S
U326 C330 2.847 . S
U326 C343 2.882 . S
U326 O344 2.441 . S
U326 O345 2.420 . S
U326 O346 2.455 . S
U326 O347 2.449 . S
O327 U326 2.454 . S
O327 C329 1.353 . S
O328 U326 2.458 . S
O328 C329 1.286 . S
C329 U326 2.984 . S
C329 O327 1.353 . S
C329 O328 1.286 . S
C329 C331 1.363 . S
C330 C320 1.465 . S
C330 U326 2.847 . S
C330 O344 1.249 . S
C330 O345 1.202 . S
C331 C329 1.363 . S
C331 C333 1.408 . S
C331 C336 1.342 . S
C332 C333 1.310 . S
C332 C335 1.461 . S
C332 H352 0.932 . S
C333 C331 1.408 . S
C333 C332 1.310 . S
C333 H353 0.930 . S
C334 C335 1.474 . S
C334 C336 1.285 . S
C334 H354 0.929 . S
C335 C332 1.461 . S
C335 C334 1.474 . S
C336 C331 1.342 . S
C336 C334 1.285 . S
C336 H355 0.930 . S
C337 C340 1.424 . S
C337 C342 1.245 . S
C337 C343 1.428 . S
C338 C341 1.260 . S
C338 C342 1.477 . S
C338 H356 0.932 . S
C339 C340 1.384 . S
C339 C341 1.479 . S
C339 H357 0.929 . S
C340 C337 1.424 . S
C340 C339 1.384 . S
C340 H358 0.928 . S
C341 C338 1.260 . S
C341 C339 1.479 . S
C342 C337 1.245 . S
C342 C338 1.477 . S
C342 H359 0.932 . S
C343 U326 2.882 . S
C343 C337 1.428 . S
C343 O346 1.301 . S
C343 O347 1.282 . S
O344 U326 2.441 . S
O344 C330 1.249 . S
O345 U326 2.420 . S
O345 C330 1.202 . S
O346 U326 2.455 . S
O346 C343 1.301 . S
O347 U326 2.449 . S
O347 C343 1.282 . S
H348 C321 0.931 . S
H349 C323 0.929 . S
H350 C324 0.930 . S
H351 C325 0.931 . S
H352 C332 0.932 . S
H353 C333 0.930 . S
H354 C334 0.929 . S
H355 C336 0.930 . S
H356 C338 0.932 . S
H357 C339 0.929 . S
H358 C340 0.928 . S
H359 C342 0.932 . S
C360 C361 1.264 . S
C360 C365 1.479 . S
C360 C370 1.465 . S
C361 C360 1.264 . S
C361 C363 1.339 . S
C361 H388 0.931 . S
C362 C363 1.395 . S
C362 C364 1.320 . S
C363 C361 1.339 . S
C363 C362 1.395 . S
C363 H389 0.929 . S
C364 C362 1.320 . S
C364 C365 1.405 . S
C364 H390 0.930 . S
C365 C360 1.479 . S
C365 C364 1.405 . S
C365 H391 0.931 . S
U366 O367 2.454 . S
U366 O368 2.458 . S
U366 C369 2.984 . S
U366 C370 2.847 . S
U366 C383 2.882 . S
U366 O384 2.441 . S
U366 O385 2.420 . S
U366 O386 2.455 . S
U366 O387 2.449 . S
O367 U366 2.454 . S
O367 C369 1.353 . S
O368 U366 2.458 . S
O368 C369 1.286 . S
C369 U366 2.984 . S
C369 O367 1.353 . S
C369 O368 1.286 . S
C369 C371 1.363 . S
C370 C360 1.465 . S
C370 U366 2.847 . S
C370 O384 1.249 . S
C370 O385 1.202 . S
C371 C369 1.363 . S
C371 C373 1.408 . S
C371 C376 1.342 . S
C372 C373 1.310 . S
C372 C375 1.461 . S
C372 H392 0.932 . S
C373 C371 1.408 . S
C373 C372 1.310 . S
C373 H393 0.930 . S
C374 C375 1.474 . S
C374 C376 1.285 . S
C374 H394 0.929 . S
C375 C372 1.461 . S
C375 C374 1.474 . S
C376 C371 1.342 . S
C376 C374 1.285 . S
C376 H395 0.930 . S
C377 C380 1.424 . S
C377 C382 1.245 . S
C377 C383 1.428 . S
C378 C381 1.260 . S
C378 C382 1.477 . S
C378 H396 0.932 . S
C379 C380 1.384 . S
C379 C381 1.479 . S
C379 H397 0.929 . S
C380 C377 1.424 . S
C380 C379 1.384 . S
C380 H398 0.928 . S
C381 C378 1.260 . S
C381 C379 1.479 . S
C382 C377 1.245 . S
C382 C378 1.477 . S
C382 H399 0.932 . S
C383 U366 2.882 . S
C383 C377 1.428 . S
C383 O386 1.301 . S
C383 O387 1.282 . S
O384 U366 2.441 . S
O384 C370 1.249 . S
O385 U366 2.420 . S
O385 C370 1.202 . S
O386 U366 2.455 . S
O386 C383 1.301 . S
O387 U366 2.449 . S
O387 C383 1.282 . S
H388 C361 0.931 . S
H389 C363 0.929 . S
H390 C364 0.930 . S
H391 C365 0.931 . S
H392 C372 0.932 . S
H393 C373 0.930 . S
H394 C374 0.929 . S
H395 C376 0.930 . S
H396 C378 0.932 . S
H397 C379 0.929 . S
H398 C380 0.928 . S
H399 C382 0.932 . S
C400 C401 1.264 . S
C400 C405 1.479 . S
C400 C410 1.465 . S
C401 C400 1.264 . S
C401 C403 1.339 . S
C401 H428 0.931 . S
C402 C403 1.395 . S
C402 C404 1.320 . S
C403 C401 1.339 . S
C403 C402 1.395 . S
C403 H429 0.929 . S
C404 C402 1.320 . S
C404 C405 1.405 . S
C404 H430 0.930 . S
C405 C400 1.479 . S
C405 C404 1.405 . S
C405 H431 0.931 . S
U406 O407 2.454 . S
U406 O408 2.458 . S
U406 C409 2.984 . S
U406 C410 2.847 . S
U406 C423 2.882 . S
U406 O424 2.441 . S
U406 O425 2.420 . S
U406 O426 2.455 . S
U406 O427 2.449 . S
O407 U406 2.454 . S
O407 C409 1.353 . S
O408 U406 2.458 . S
O408 C409 1.286 . S
C409 U406 2.984 . S
C409 O407 1.353 . S
C409 O408 1.286 . S
C409 C411 1.363 . S
C410 C400 1.465 . S
C410 U406 2.847 . S
C410 O424 1.249 . S
C410 O425 1.202 . S
C411 C409 1.363 . S
C411 C413 1.408 . S
C411 C416 1.342 . S
C412 C413 1.310 . S
C412 C415 1.461 . S
C412 H432 0.932 . S
C413 C411 1.408 . S
C413 C412 1.310 . S
C413 H433 0.930 . S
C414 C415 1.474 . S
C414 C416 1.285 . S
C414 H434 0.929 . S
C415 C412 1.461 . S
C415 C414 1.474 . S
C416 C411 1.342 . S
C416 C414 1.285 . S
C416 H435 0.930 . S
C417 C420 1.424 . S
C417 C422 1.245 . S
C417 C423 1.428 . S
C418 C421 1.260 . S
C418 C422 1.477 . S
C418 H436 0.932 . S
C419 C420 1.384 . S
C419 C421 1.479 . S
C419 H437 0.929 . S
C420 C417 1.424 . S
C420 C419 1.384 . S
C420 H438 0.928 . S
C421 C418 1.260 . S
C421 C419 1.479 . S
C422 C417 1.245 . S
C422 C418 1.477 . S
C422 H439 0.932 . S
C423 U406 2.882 . S
C423 C417 1.428 . S
C423 O426 1.301 . S
C423 O427 1.282 . S
O424 U406 2.441 . S
O424 C410 1.249 . S
O425 U406 2.420 . S
O425 C410 1.202 . S
O426 U406 2.455 . S
O426 C423 1.301 . S
O427 U406 2.449 . S
O427 C423 1.282 . S
H428 C401 0.931 . S
H429 C403 0.929 . S
H430 C404 0.930 . S
H431 C405 0.931 . S
H432 C412 0.932 . S
H433 C413 0.930 . S
H434 C414 0.929 . S
H435 C416 0.930 . S
H436 C418 0.932 . S
H437 C419 0.929 . S
H438 C420 0.928 . S
H439 C422 0.932 . S
C440 C441 1.264 . S
C440 C445 1.479 . S
C440 C450 1.465 . S
C441 C440 1.264 . S
C441 C443 1.339 . S
C441 H468 0.931 . S
C442 C443 1.395 . S
C442 C444 1.320 . S
C443 C441 1.339 . S
C443 C442 1.395 . S
C443 H469 0.929 . S
C444 C442 1.320 . S
C444 C445 1.405 . S
C444 H470 0.930 . S
C445 C440 1.479 . S
C445 C444 1.405 . S
C445 H471 0.931 . S
U446 O447 2.454 . S
U446 O448 2.458 . S
U446 C449 2.984 . S
U446 C450 2.847 . S
U446 C463 2.882 . S
U446 O464 2.441 . S
U446 O465 2.420 . S
U446 O466 2.455 . S
U446 O467 2.449 . S
O447 U446 2.454 . S
O447 C449 1.353 . S
O448 U446 2.458 . S
O448 C449 1.286 . S
C449 U446 2.984 . S
C449 O447 1.353 . S
C449 O448 1.286 . S
C449 C451 1.363 . S
C450 C440 1.465 . S
C450 U446 2.847 . S
C450 O464 1.249 . S
C450 O465 1.202 . S
C451 C449 1.363 . S
C451 C453 1.408 . S
C451 C456 1.342 . S
C452 C453 1.310 . S
C452 C455 1.461 . S
C452 H472 0.932 . S
C453 C451 1.408 . S
C453 C452 1.310 . S
C453 H473 0.930 . S
C454 C455 1.474 . S
C454 C456 1.285 . S
C454 H474 0.929 . S
C455 C452 1.461 . S
C455 C454 1.474 . S
C456 C451 1.342 . S
C456 C454 1.285 . S
C456 H475 0.930 . S
C457 C460 1.424 . S
C457 C462 1.245 . S
C457 C463 1.428 . S
C458 C461 1.260 . S
C458 C462 1.477 . S
C458 H476 0.932 . S
C459 C460 1.384 . S
C459 C461 1.479 . S
C459 H477 0.929 . S
C460 C457 1.424 . S
C460 C459 1.384 . S
C460 H478 0.928 . S
C461 C458 1.260 . S
C461 C459 1.479 . S
C462 C457 1.245 . S
C462 C458 1.477 . S
C462 H479 0.932 . S
C463 U446 2.882 . S
C463 C457 1.428 . S
C463 O466 1.301 . S
C463 O467 1.282 . S
O464 U446 2.441 . S
O464 C450 1.249 . S
O465 U446 2.420 . S
O465 C450 1.202 . S
O466 U446 2.455 . S
O466 C463 1.301 . S
O467 U446 2.449 . S
O467 C463 1.282 . S
H468 C441 0.931 . S
H469 C443 0.929 . S
H470 C444 0.930 . S
H471 C445 0.931 . S
H472 C452 0.932 . S
H473 C453 0.930 . S
H474 C454 0.929 . S
H475 C456 0.930 . S
H476 C458 0.932 . S
H477 C459 0.929 . S
H478 C460 0.928 . S
H479 C462 0.932 . S
C480 C481 1.264 . S
C480 C485 1.479 . S
C480 C490 1.465 . S
C481 C480 1.264 . S
C481 C483 1.339 . S
C481 H508 0.931 . S
C482 C483 1.395 . S
C482 C484 1.320 . S
C483 C481 1.339 . S
C483 C482 1.395 . S
C483 H509 0.929 . S
C484 C482 1.320 . S
C484 C485 1.405 . S
C484 H510 0.930 . S
C485 C480 1.479 . S
C485 C484 1.405 . S
C485 H511 0.931 . S
U486 O487 2.454 . S
U486 O488 2.458 . S
U486 C489 2.984 . S
U486 C490 2.847 . S
U486 C503 2.882 . S
U486 O504 2.441 . S
U486 O505 2.420 . S
U486 O506 2.455 . S
U486 O507 2.449 . S
O487 U486 2.454 . S
O487 C489 1.353 . S
O488 U486 2.458 . S
O488 C489 1.286 . S
C489 U486 2.984 . S
C489 O487 1.353 . S
C489 O488 1.286 . S
C489 C491 1.363 . S
C490 C480 1.465 . S
C490 U486 2.847 . S
C490 O504 1.249 . S
C490 O505 1.202 . S
C491 C489 1.363 . S
C491 C493 1.408 . S
C491 C496 1.342 . S
C492 C493 1.310 . S
C492 C495 1.461 . S
C492 H512 0.932 . S
C493 C491 1.408 . S
C493 C492 1.310 . S
C493 H513 0.930 . S
C494 C495 1.474 . S
C494 C496 1.285 . S
C494 H514 0.929 . S
C495 C492 1.461 . S
C495 C494 1.474 . S
C496 C491 1.342 . S
C496 C494 1.285 . S
C496 H515 0.930 . S
C497 C500 1.424 . S
C497 C502 1.245 . S
C497 C503 1.428 . S
C498 C501 1.260 . S
C498 C502 1.477 . S
C498 H516 0.932 . S
C499 C500 1.384 . S
C499 C501 1.479 . S
C499 H517 0.929 . S
C500 C497 1.424 . S
C500 C499 1.384 . S
C500 H518 0.928 . S
C501 C498 1.260 . S
C501 C499 1.479 . S
C502 C497 1.245 . S
C502 C498 1.477 . S
C502 H519 0.932 . S
C503 U486 2.882 . S
C503 C497 1.428 . S
C503 O506 1.301 . S
C503 O507 1.282 . S
O504 U486 2.441 . S
O504 C490 1.249 . S
O505 U486 2.420 . S
O505 C490 1.202 . S
O506 U486 2.455 . S
O506 C503 1.301 . S
O507 U486 2.449 . S
O507 C503 1.282 . S
H508 C481 0.931 . S
H509 C483 0.929 . S
H510 C484 0.930 . S
H511 C485 0.931 . S
H512 C492 0.932 . S
H513 C493 0.930 . S
H514 C494 0.929 . S
H515 C496 0.930 . S
H516 C498 0.932 . S
H517 C499 0.929 . S
H518 C500 0.928 . S
H519 C502 0.932 . S
C520 C521 1.264 . S
C520 C525 1.479 . S
C520 C530 1.465 . S
C521 C520 1.264 . S
C521 C523 1.339 . S
C521 H548 0.931 . S
C522 C523 1.395 . S
C522 C524 1.320 . S
C523 C521 1.339 . S
C523 C522 1.395 . S
C523 H549 0.929 . S
C524 C522 1.320 . S
C524 C525 1.405 . S
C524 H550 0.930 . S
C525 C520 1.479 . S
C525 C524 1.405 . S
C525 H551 0.931 . S
U526 O527 2.454 . S
U526 O528 2.458 . S
U526 C529 2.984 . S
U526 C530 2.847 . S
U526 C543 2.882 . S
U526 O544 2.441 . S
U526 O545 2.420 . S
U526 O546 2.455 . S
U526 O547 2.449 . S
O527 U526 2.454 . S
O527 C529 1.353 . S
O528 U526 2.458 . S
O528 C529 1.286 . S
C529 U526 2.984 . S
C529 O527 1.353 . S
C529 O528 1.286 . S
C529 C531 1.363 . S
C530 C520 1.465 . S
C530 U526 2.847 . S
C530 O544 1.249 . S
C530 O545 1.202 . S
C531 C529 1.363 . S
C531 C533 1.408 . S
C531 C536 1.342 . S
C532 C533 1.310 . S
C532 C535 1.461 . S
C532 H552 0.932 . S
C533 C531 1.408 . S
C533 C532 1.310 . S
C533 H553 0.930 . S
C534 C535 1.474 . S
C534 C536 1.285 . S
C534 H554 0.929 . S
C535 C532 1.461 . S
C535 C534 1.474 . S
C536 C531 1.342 . S
C536 C534 1.285 . S
C536 H555 0.930 . S
C537 C540 1.424 . S
C537 C542 1.245 . S
C537 C543 1.428 . S
C538 C541 1.260 . S
C538 C542 1.477 . S
C538 H556 0.932 . S
C539 C540 1.384 . S
C539 C541 1.479 . S
C539 H557 0.929 . S
C540 C537 1.424 . S
C540 C539 1.384 . S
C540 H558 0.928 . S
C541 C538 1.260 . S
C541 C539 1.479 . S
C542 C537 1.245 . S
C542 C538 1.477 . S
C542 H559 0.932 . S
C543 U526 2.882 . S
C543 C537 1.428 . S
C543 O546 1.301 . S
C543 O547 1.282 . S
O544 U526 2.441 . S
O544 C530 1.249 . S
O545 U526 2.420 . S
O545 C530 1.202 . S
O546 U526 2.455 . S
O546 C543 1.301 . S
O547 U526 2.449 . S
O547 C543 1.282 . S
H548 C521 0.931 . S
H549 C523 0.929 . S
H550 C524 0.930 . S
H551 C525 0.931 . S
H552 C532 0.932 . S
H553 C533 0.930 . S
H554 C534 0.929 . S
H555 C536 0.930 . S
H556 C538 0.932 . S
H557 C539 0.929 . S
H558 C540 0.928 . S
H559 C542 0.932 . S
C560 C561 1.264 . S
C560 C565 1.479 . S
C560 C570 1.465 . S
C561 C560 1.264 . S
C561 C563 1.339 . S
C561 H588 0.931 . S
C562 C563 1.395 . S
C562 C564 1.320 . S
C563 C561 1.339 . S
C563 C562 1.395 . S
C563 H589 0.929 . S
C564 C562 1.320 . S
C564 C565 1.405 . S
C564 H590 0.930 . S
C565 C560 1.479 . S
C565 C564 1.405 . S
C565 H591 0.931 . S
U566 O567 2.454 . S
U566 O568 2.458 . S
U566 C569 2.984 . S
U566 C570 2.847 . S
U566 C583 2.882 . S
U566 O584 2.441 . S
U566 O585 2.420 . S
U566 O586 2.455 . S
U566 O587 2.449 . S
O567 U566 2.454 . S
O567 C569 1.353 . S
O568 U566 2.458 . S
O568 C569 1.286 . S
C569 U566 2.984 . S
C569 O567 1.353 . S
C569 O568 1.286 . S
C569 C571 1.363 . S
C570 C560 1.465 . S
C570 U566 2.847 . S
C570 O584 1.249 . S
C570 O585 1.202 . S
C571 C569 1.363 . S
C571 C573 1.408 . S
C571 C576 1.342 . S
C572 C573 1.310 . S
C572 C575 1.461 . S
C572 H592 0.932 . S
C573 C571 1.408 . S
C573 C572 1.310 . S
C573 H593 0.930 . S
C574 C575 1.474 . S
C574 C576 1.285 . S
C574 H594 0.929 . S
C575 C572 1.461 . S
C575 C574 1.474 . S
C576 C571 1.342 . S
C576 C574 1.285 . S
C576 H595 0.930 . S
C577 C580 1.424 . S
C577 C582 1.245 . S
C577 C583 1.428 . S
C578 C581 1.260 . S
C578 C582 1.477 . S
C578 H596 0.932 . S
C579 C580 1.384 . S
C579 C581 1.479 . S
C579 H597 0.929 . S
C580 C577 1.424 . S
C580 C579 1.384 . S
C580 H598 0.928 . S
C581 C578 1.260 . S
C581 C579 1.479 . S
C582 C577 1.245 . S
C582 C578 1.477 . S
C582 H599 0.932 . S
C583 U566 2.882 . S
C583 C577 1.428 . S
C583 O586 1.301 . S
C583 O587 1.282 . S
O584 U566 2.441 . S
O584 C570 1.249 . S
O585 U566 2.420 . S
O585 C570 1.202 . S
O586 U566 2.455 . S
O586 C583 1.301 . S
O587 U566 2.449 . S
O587 C583 1.282 . S
H588 C561 0.931 . S
H589 C563 0.929 . S
H590 C564 0.930 . S
H591 C565 0.931 . S
H592 C572 0.932 . S
H593 C573 0.930 . S
H594 C574 0.929 . S
H595 C576 0.930 . S
H596 C578 0.932 . S
H597 C579 0.929 . S
H598 C580 0.928 . S
H599 C582 0.932 . S
C600 C601 1.264 . S
C600 C605 1.479 . S
C600 C610 1.465 . S
C601 C600 1.264 . S
C601 C603 1.339 . S
C601 H628 0.931 . S
C602 C603 1.395 . S
C602 C604 1.320 . S
C603 C601 1.339 . S
C603 C602 1.395 . S
C603 H629 0.929 . S
C604 C602 1.320 . S
C604 C605 1.405 . S
C604 H630 0.930 . S
C605 C600 1.479 . S
C605 C604 1.405 . S
C605 H631 0.931 . S
U606 O607 2.454 . S
U606 O608 2.458 . S
U606 C609 2.984 . S
U606 C610 2.847 . S
U606 C623 2.882 . S
U606 O624 2.441 . S
U606 O625 2.420 . S
U606 O626 2.455 . S
U606 O627 2.449 . S
O607 U606 2.454 . S
O607 C609 1.353 . S
O608 U606 2.458 . S
O608 C609 1.286 . S
C609 U606 2.984 . S
C609 O607 1.353 . S
C609 O608 1.286 . S
C609 C611 1.363 . S
C610 C600 1.465 . S
C610 U606 2.847 . S
C610 O624 1.249 . S
C610 O625 1.202 . S
C611 C609 1.363 . S
C611 C613 1.408 . S
C611 C616 1.342 . S
C612 C613 1.310 . S
C612 C615 1.461 . S
C612 H632 0.932 . S
C613 C611 1.408 . S
C613 C612 1.310 . S
C613 H633 0.930 . S
C614 C615 1.474 . S
C614 C616 1.285 . S
C614 H634 0.929 . S
C615 C612 1.461 . S
C615 C614 1.474 . S
C616 C611 1.342 . S
C616 C614 1.285 . S
C616 H635 0.930 . S
C617 C620 1.424 . S
C617 C622 1.245 . S
C617 C623 1.428 . S
C618 C621 1.260 . S
C618 C622 1.477 . S
C618 H636 0.932 . S
C619 C620 1.384 . S
C619 C621 1.479 . S
C619 H637 0.929 . S
C620 C617 1.424 . S
C620 C619 1.384 . S
C620 H638 0.928 . S
C621 C618 1.260 . S
C621 C619 1.479 . S
C622 C617 1.245 . S
C622 C618 1.477 . S
C622 H639 0.932 . S
C623 U606 2.882 . S
C623 C617 1.428 . S
C623 O626 1.301 . S
C623 O627 1.282 . S
O624 U606 2.441 . S
O624 C610 1.249 . S
O625 U606 2.420 . S
O625 C610 1.202 . S
O626 U606 2.455 . S
O626 C623 1.301 . S
O627 U606 2.449 . S
O627 C623 1.282 . S
H628 C601 0.931 . S
H629 C603 0.929 . S
H630 C604 0.930 . S
H631 C605 0.931 . S
H632 C612 0.932 . S
H633 C613 0.930 . S
H634 C614 0.929 . S
H635 C616 0.930 . S
H636 C618 0.932 . S
H637 C619 0.929 . S
H638 C620 0.928 . S
H639 C622 0.932 . S
C640 C641 1.264 . S
C640 C645 1.479 . S
C640 C650 1.465 . S
C641 C640 1.264 . S
C641 C643 1.339 . S
C641 H668 0.931 . S
C642 C643 1.395 . S
C642 C644 1.320 . S
C643 C641 1.339 . S
C643 C642 1.395 . S
C643 H669 0.929 . S
C644 C642 1.320 . S
C644 C645 1.405 . S
C644 H670 0.930 . S
C645 C640 1.479 . S
C645 C644 1.405 . S
C645 H671 0.931 . S
U646 O647 2.454 . S
U646 O648 2.458 . S
U646 C649 2.984 . S
U646 C650 2.847 . S
U646 C663 2.882 . S
U646 O664 2.441 . S
U646 O665 2.420 . S
U646 O666 2.455 . S
U646 O667 2.449 . S
O647 U646 2.454 . S
O647 C649 1.353 . S
O648 U646 2.458 . S
O648 C649 1.286 . S
C649 U646 2.984 . S
C649 O647 1.353 . S
C649 O648 1.286 . S
C649 C651 1.363 . S
C650 C640 1.465 . S
C650 U646 2.847 . S
C650 O664 1.249 . S
C650 O665 1.202 . S
C651 C649 1.363 . S
C651 C653 1.408 . S
C651 C656 1.342 . S
C652 C653 1.310 . S
C652 C655 1.461 . S
C652 H672 0.932 . S
C653 C651 1.408 . S
C653 C652 1.310 . S
C653 H673 0.930 . S
C654 C655 1.474 . S
C654 C656 1.285 . S
C654 H674 0.929 . S
C655 C652 1.461 . S
C655 C654 1.474 . S
C656 C651 1.342 . S
C656 C654 1.285 . S
C656 H675 0.930 . S
C657 C660 1.424 . S
C657 C662 1.245 . S
C657 C663 1.428 . S
C658 C661 1.260 . S
C658 C662 1.477 . S
C658 H676 0.932 . S
C659 C660 1.384 . S
C659 C661 1.479 . S
C659 H677 0.929 . S
C660 C657 1.424 . S
C660 C659 1.384 . S
C660 H678 0.928 . S
C661 C658 1.260 . S
C661 C659 1.479 . S
C662 C657 1.245 . S
C662 C658 1.477 . S
C662 H679 0.932 . S
C663 U646 2.882 . S
C663 C657 1.428 . S
C663 O666 1.301 . S
C663 O667 1.282 . S
O664 U646 2.441 . S
O664 C650 1.249 . S
O665 U646 2.420 . S
O665 C650 1.202 . S
O666 U646 2.455 . S
O666 C663 1.301 . S
O667 U646 2.449 . S
O667 C663 1.282 . S
H668 C641 0.931 . S
H669 C643 0.929 . S
H670 C644 0.930 . S
H671 C645 0.931 . S
H672 C652 0.932 . S
H673 C653 0.930 . S
H674 C654 0.929 . S
H675 C656 0.930 . S
H676 C658 0.932 . S
H677 C659 0.929 . S
H678 C660 0.928 . S
H679 C662 0.932 . S
C680 C681 1.264 . S
C680 C685 1.479 . S
C680 C690 1.465 . S
C681 C680 1.264 . S
C681 C683 1.339 . S
C681 H708 0.931 . S
C682 C683 1.395 . S
C682 C684 1.320 . S
C683 C681 1.339 . S
C683 C682 1.395 . S
C683 H709 0.929 . S
C684 C682 1.320 . S
C684 C685 1.405 . S
C684 H710 0.930 . S
C685 C680 1.479 . S
C685 C684 1.405 . S
C685 H711 0.931 . S
U686 O687 2.454 . S
U686 O688 2.458 . S
U686 C689 2.984 . S
U686 C690 2.847 . S
U686 C703 2.882 . S
U686 O704 2.441 . S
U686 O705 2.420 . S
U686 O706 2.455 . S
U686 O707 2.449 . S
O687 U686 2.454 . S
O687 C689 1.353 . S
O688 U686 2.458 . S
O688 C689 1.286 . S
C689 U686 2.984 . S
C689 O687 1.353 . S
C689 O688 1.286 . S
C689 C691 1.363 . S
C690 C680 1.465 . S
C690 U686 2.847 . S
C690 O704 1.249 . S
C690 O705 1.202 . S
C691 C689 1.363 . S
C691 C693 1.408 . S
C691 C696 1.342 . S
C692 C693 1.310 . S
C692 C695 1.461 . S
C692 H712 0.932 . S
C693 C691 1.408 . S
C693 C692 1.310 . S
C693 H713 0.930 . S
C694 C695 1.474 . S
C694 C696 1.285 . S
C694 H714 0.929 . S
C695 C692 1.461 . S
C695 C694 1.474 . S
C696 C691 1.342 . S
C696 C694 1.285 . S
C696 H715 0.930 . S
C697 C700 1.424 . S
C697 C702 1.245 . S
C697 C703 1.428 . S
C698 C701 1.260 . S
C698 C702 1.477 . S
C698 H716 0.932 . S
C699 C700 1.384 . S
C699 C701 1.479 . S
C699 H717 0.929 . S
C700 C697 1.424 . S
C700 C699 1.384 . S
C700 H718 0.928 . S
C701 C698 1.260 . S
C701 C699 1.479 . S
C702 C697 1.245 . S
C702 C698 1.477 . S
C702 H719 0.932 . S
C703 U686 2.882 . S
C703 C697 1.428 . S
C703 O706 1.301 . S
C703 O707 1.282 . S
O704 U686 2.441 . S
O704 C690 1.249 . S
O705 U686 2.420 . S
O705 C690 1.202 . S
O706 U686 2.455 . S
O706 C703 1.301 . S
O707 U686 2.449 . S
O707 C703 1.282 . S
H708 C681 0.931 . S
H709 C683 0.929 . S
H710 C684 0.930 . S
H711 C685 0.931 . S
H712 C692 0.932 . S
H713 C693 0.930 . S
H714 C694 0.929 . S
H715 C696 0.930 . S
H716 C698 0.932 . S
H717 C699 0.929 . S
H718 C700 0.928 . S
H719 C702 0.932 . S
Gd720 N751 2.661 . S
Gd720 N757 2.601 . S
Gd720 O764 2.545 . S
Gd720 O765 2.606 1_545 S
Gd720 O767 2.429 . S
Gd720 O768 2.545 1_545 S
Gd720 O769 2.412 . S
Gd720 O771 2.332 1_554 S
Gd720 O772 2.324 1_545 S
Gd720 C779 2.828 . S
Gd721 N730 2.661 . S
Gd721 N734 2.601 . S
Gd721 O765 2.362 1_556 S
Gd721 O766 2.324 1_565 S
Gd721 O770 2.545 . S
Gd721 O771 2.624 1_565 S
Gd721 O773 2.429 . S
Gd721 O774 2.545 1_565 S
Gd721 O775 2.412 . S
Gd721 C788 2.828 . S
C722 C725 1.417 . S
C722 C727 1.431 . S
C722 C728 1.412 . S
C723 C726 1.437 . S
C723 C727 1.317 . S
C723 H742 0.929 . S
C724 C725 1.426 . S
C724 C726 1.413 . S
C724 N734 1.359 . S
C725 C722 1.417 . S
C725 C724 1.426 . S
C725 N730 1.350 . S
C726 C723 1.437 . S
C726 C724 1.413 . S
C726 C736 1.391 . S
C727 C722 1.431 . S
C727 C723 1.317 . S
C727 H738 0.930 . S
C728 C722 1.412 . S
C728 C729 1.355 . S
C728 H740 0.930 . S
C729 C728 1.355 . S
C729 C731 1.402 . S
C729 H741 0.930 . S
N730 Gd721 2.661 . S
N730 C725 1.350 . S
N730 C731 1.307 . S
C731 C729 1.402 . S
C731 N730 1.307 . S
C731 H732 0.930 . S
H732 C731 0.930 . S
C733 N734 1.334 . S
C733 C735 1.394 . S
C733 H737 0.930 . S
N734 Gd721 2.601 . S
N734 C724 1.359 . S
N734 C733 1.334 . S
C735 C733 1.394 . S
C735 C736 1.359 . S
C735 H747 0.930 . S
C736 C726 1.391 . S
C736 C735 1.359 . S
C736 H748 0.929 . S
H737 C733 0.930 . S
H738 C727 0.930 . S
H739 C756 0.930 . S
H740 C728 0.930 . S
H741 C729 0.930 . S
H742 C723 0.929 . S
H743 C761 0.930 . S
H744 C752 0.930 . S
H745 C753 0.930 . S
H746 C777 0.929 . S
H747 C735 0.930 . S
H748 C736 0.929 . S
H749 C778 0.930 . S
H750 C759 0.930 . S
N751 Gd720 2.661 . S
N751 C755 1.350 . S
N751 C756 1.307 . S
C752 H744 0.930 . S
C752 C753 1.355 . S
C752 C754 1.412 . S
C753 H745 0.930 . S
C753 C752 1.355 . S
C753 C756 1.402 . S
C754 C752 1.412 . S
C754 C755 1.417 . S
C754 C778 1.431 . S
C755 N751 1.350 . S
C755 C754 1.417 . S
C755 C758 1.426 . S
C756 H739 0.930 . S
C756 N751 1.307 . S
C756 C753 1.402 . S
N757 Gd720 2.601 . S
N757 C758 1.359 . S
N757 C761 1.334 . S
C758 C755 1.426 . S
C758 N757 1.359 . S
C758 C762 1.413 . S
C759 H750 0.930 . S
C759 C760 1.359 . S
C759 C761 1.394 . S
C760 C759 1.359 . S
C760 C762 1.391 . S
C760 H763 0.929 . S
C761 H743 0.930 . S
C761 N757 1.334 . S
C761 C759 1.394 . S
C762 C758 1.413 . S
C762 C760 1.391 . S
C762 C777 1.437 . S
H763 C760 0.929 . S
O764 Gd720 2.545 . S
O764 C779 1.258 . S
O765 Gd720 2.606 1_565 S
O765 Gd721 2.362 1_554 S
O765 C776 1.284 . S
O766 Gd721 2.324 1_545 S
O766 C786 1.254 . S
O767 Gd720 2.429 . S
O767 C786 1.268 1_554 S
O768 Gd720 2.545 1_565 S
O768 C776 1.250 . S
O769 Gd720 2.412 . S
O769 C779 1.252 . S
O770 Gd721 2.545 . S
O770 C788 1.258 . S
O771 Gd720 2.332 1_556 S
O771 Gd721 2.624 1_545 S
O771 C787 1.309 . S
O772 Gd720 2.324 1_565 S
O772 C795 1.254 . S
O773 Gd721 2.429 . S
O773 C795 1.268 1_556 S
O774 Gd721 2.545 1_545 S
O774 C787 1.250 . S
O775 Gd721 2.412 . S
O775 C788 1.252 . S
C776 O765 1.284 . S
C776 O768 1.250 . S
C777 H746 0.929 . S
C777 C762 1.437 . S
C777 C778 1.317 . S
C778 H749 0.930 . S
C778 C754 1.431 . S
C778 C777 1.317 . S
C779 Gd720 2.828 . S
C779 O764 1.258 . S
C779 O769 1.252 . S
C779 C780 1.497 . S
C780 C779 1.497 . S
C780 C781 1.395 . S
C780 C782 1.380 1_545 S
C781 C780 1.395 . S
C781 C784 1.398 . S
C781 H796 0.930 . S
C782 C780 1.380 1_565 S
C782 C783 1.391 . S
C782 H797 0.930 . S
C783 C782 1.391 . S
C783 C785 1.387 1_565 S
C784 C781 1.398 . S
C784 C785 1.380 . S
C784 H798 0.930 . S
C785 C783 1.387 1_545 S
C785 C784 1.380 . S
C785 H799 0.930 . S
C786 O766 1.254 . S
C786 O767 1.268 1_556 S
C787 O771 1.309 . S
C787 O774 1.250 . S
C788 Gd721 2.828 . S
C788 O770 1.258 . S
C788 O775 1.252 . S
C788 C789 1.497 . S
C789 C788 1.497 . S
C789 C790 1.395 . S
C789 C791 1.380 1_565 S
C790 C789 1.395 . S
C790 C793 1.398 . S
C790 H800 0.930 . S
C791 C789 1.380 1_545 S
C791 C792 1.391 . S
C791 H801 0.930 . S
C792 C791 1.391 . S
C792 C794 1.387 1_545 S
C793 C790 1.398 . S
C793 C794 1.380 . S
C793 H802 0.930 . S
C794 C792 1.387 1_565 S
C794 C793 1.380 . S
C794 H803 0.930 . S
C795 O772 1.254 . S
C795 O773 1.268 1_554 S
H796 C781 0.930 . S
H797 C782 0.930 . S
H798 C784 0.930 . S
H799 C785 0.930 . S
H800 C790 0.930 . S
H801 C791 0.930 . S
H802 C793 0.930 . S
H803 C794 0.930 . S
Gd804 N835 2.661 . S
Gd804 N841 2.601 . S
Gd804 O848 2.545 . S
Gd804 O849 2.606 1_655 S
Gd804 O851 2.429 . S
Gd804 O852 2.545 1_655 S
Gd804 O853 2.412 . S
Gd804 O855 2.319 1_554 S
Gd804 O856 2.324 1_655 S
Gd804 C863 2.828 . S
Gd805 N814 2.661 . S
Gd805 N818 2.601 . S
Gd805 O849 2.362 1_556 S
Gd805 O850 2.324 1_455 S
Gd805 O854 2.545 . S
Gd805 O855 2.632 1_455 S
Gd805 O857 2.429 . S
Gd805 O858 2.545 1_455 S
Gd805 O859 2.412 . S
Gd805 C872 2.828 . S
C806 C809 1.417 . S
C806 C811 1.431 . S
C806 C812 1.412 . S
C807 C810 1.437 . S
C807 C811 1.317 . S
C807 H826 0.929 . S
C808 C809 1.426 . S
C808 C810 1.413 . S
C808 N818 1.359 . S
C809 C806 1.417 . S
C809 C808 1.426 . S
C809 N814 1.350 . S
C810 C807 1.437 . S
C810 C808 1.413 . S
C810 C820 1.391 . S
C811 C806 1.431 . S
C811 C807 1.317 . S
C811 H822 0.930 . S
C812 C806 1.412 . S
C812 C813 1.355 . S
C812 H824 0.930 . S
C813 C812 1.355 . S
C813 C815 1.402 . S
C813 H825 0.930 . S
N814 Gd805 2.661 . S
N814 C809 1.350 . S
N814 C815 1.307 . S
C815 C813 1.402 . S
C815 N814 1.307 . S
C815 H816 0.930 . S
H816 C815 0.930 . S
C817 N818 1.334 . S
C817 C819 1.394 . S
C817 H821 0.930 . S
N818 Gd805 2.601 . S
N818 C808 1.359 . S
N818 C817 1.334 . S
C819 C817 1.394 . S
C819 C820 1.359 . S
C819 H831 0.930 . S
C820 C810 1.391 . S
C820 C819 1.359 . S
C820 H832 0.929 . S
H821 C817 0.930 . S
H822 C811 0.930 . S
H823 C840 0.930 . S
H824 C812 0.930 . S
H825 C813 0.930 . S
H826 C807 0.929 . S
H827 C845 0.930 . S
H828 C836 0.930 . S
H829 C837 0.930 . S
H830 C861 0.929 . S
H831 C819 0.930 . S
H832 C820 0.929 . S
H833 C862 0.930 . S
H834 C843 0.930 . S
N835 Gd804 2.661 . S
N835 C839 1.350 . S
N835 C840 1.307 . S
C836 H828 0.930 . S
C836 C837 1.355 . S
C836 C838 1.412 . S
C837 H829 0.930 . S
C837 C836 1.355 . S
C837 C840 1.402 . S
C838 C836 1.412 . S
C838 C839 1.417 . S
C838 C862 1.431 . S
C839 N835 1.350 . S
C839 C838 1.417 . S
C839 C842 1.426 . S
C840 H823 0.930 . S
C840 N835 1.307 . S
C840 C837 1.402 . S
N841 Gd804 2.601 . S
N841 C842 1.359 . S
N841 C845 1.334 . S
C842 C839 1.426 . S
C842 N841 1.359 . S
C842 C846 1.413 . S
C843 H834 0.930 . S
C843 C844 1.359 . S
C843 C845 1.394 . S
C844 C843 1.359 . S
C844 C846 1.391 . S
C844 H847 0.929 . S
C845 H827 0.930 . S
C845 N841 1.334 . S
C845 C843 1.394 . S
C846 C842 1.413 . S
C846 C844 1.391 . S
C846 C861 1.437 . S
H847 C844 0.929 . S
O848 Gd804 2.545 . S
O848 C863 1.258 . S
O849 Gd804 2.606 1_455 S
O849 Gd805 2.362 1_554 S
O849 C860 1.284 . S
O850 Gd805 2.324 1_655 S
O850 C870 1.254 . S
O851 Gd804 2.429 . S
O851 C870 1.268 1_554 S
O852 Gd804 2.545 1_455 S
O852 C860 1.250 . S
O853 Gd804 2.412 . S
O853 C863 1.252 . S
O854 Gd805 2.545 . S
O854 C872 1.258 . S
O855 Gd804 2.319 1_556 S
O855 Gd805 2.632 1_655 S
O855 C871 1.320 . S
O856 Gd804 2.324 1_455 S
O856 C879 1.254 . S
O857 Gd805 2.429 . S
O857 C879 1.268 1_556 S
O858 Gd805 2.545 1_655 S
O858 C871 1.250 . S
O859 Gd805 2.412 . S
O859 C872 1.252 . S
C860 O849 1.284 . S
C860 O852 1.250 . S
C861 H830 0.929 . S
C861 C846 1.437 . S
C861 C862 1.317 . S
C862 H833 0.930 . S
C862 C838 1.431 . S
C862 C861 1.317 . S
C863 Gd804 2.828 . S
C863 O848 1.258 . S
C863 O853 1.252 . S
C863 C864 1.497 . S
C864 C863 1.497 . S
C864 C865 1.395 . S
C864 C866 1.380 1_655 S
C865 C864 1.395 . S
C865 C868 1.398 . S
C865 H880 0.930 . S
C866 C864 1.380 1_455 S
C866 C867 1.391 . S
C866 H881 0.930 . S
C867 C866 1.391 . S
C867 C869 1.387 1_455 S
C868 C865 1.398 . S
C868 C869 1.380 . S
C868 H882 0.930 . S
C869 C867 1.387 1_655 S
C869 C868 1.380 . S
C869 H883 0.930 . S
C870 O850 1.254 . S
C870 O851 1.268 1_556 S
C871 O855 1.320 . S
C871 O858 1.250 . S
C872 Gd805 2.828 . S
C872 O854 1.258 . S
C872 O859 1.252 . S
C872 C873 1.497 . S
C873 C872 1.497 . S
C873 C874 1.395 . S
C873 C875 1.380 1_455 S
C874 C873 1.395 . S
C874 C877 1.398 . S
C874 H884 0.930 . S
C875 C873 1.380 1_655 S
C875 C876 1.391 . S
C875 H885 0.930 . S
C876 C875 1.391 . S
C876 C878 1.387 1_655 S
C877 C874 1.398 . S
C877 C878 1.380 . S
C877 H886 0.930 . S
C878 C876 1.387 1_455 S
C878 C877 1.380 . S
C878 H887 0.930 . S
C879 O856 1.254 . S
C879 O857 1.268 1_554 S
H880 C865 0.930 . S
H881 C866 0.930 . S
H882 C868 0.930 . S
H883 C869 0.930 . S
H884 C874 0.930 . S
H885 C875 0.930 . S
H886 C877 0.930 . S
H887 C878 0.930 . S
Gd888 N919 2.661 . S
Gd888 N925 2.601 . S
Gd888 O932 2.545 . S
Gd888 O933 2.606 . S
Gd888 O935 2.429 . S
Gd888 O936 2.545 . S
Gd888 O937 2.412 . S
Gd888 O939 2.362 1_556 S
Gd888 O940 2.324 . S
Gd888 C947 2.828 . S
Gd889 N898 2.661 . S
Gd889 N902 2.601 . S
Gd889 O933 2.362 1_554 S
Gd889 O934 2.324 . S
Gd889 O938 2.545 . S
Gd889 O939 2.606 . S
Gd889 O941 2.429 . S
Gd889 O942 2.545 . S
Gd889 O943 2.412 . S
Gd889 C956 2.828 . S
C890 C893 1.417 . S
C890 C895 1.431 . S
C890 C896 1.412 . S
C891 C894 1.437 . S
C891 C895 1.317 . S
C891 H910 0.929 . S
C892 C893 1.426 . S
C892 C894 1.413 . S
C892 N902 1.359 . S
C893 C890 1.417 . S
C893 C892 1.426 . S
C893 N898 1.350 . S
C894 C891 1.437 . S
C894 C892 1.413 . S
C894 C904 1.391 . S
C895 C890 1.431 . S
C895 C891 1.317 . S
C895 H906 0.930 . S
C896 C890 1.412 . S
C896 C897 1.355 . S
C896 H908 0.930 . S
C897 C896 1.355 . S
C897 C899 1.402 . S
C897 H909 0.930 . S
N898 Gd889 2.661 . S
N898 C893 1.350 . S
N898 C899 1.307 . S
C899 C897 1.402 . S
C899 N898 1.307 . S
C899 H900 0.930 . S
H900 C899 0.930 . S
C901 N902 1.334 . S
C901 C903 1.394 . S
C901 H905 0.930 . S
N902 Gd889 2.601 . S
N902 C892 1.359 . S
N902 C901 1.334 . S
C903 C901 1.394 . S
C903 C904 1.359 . S
C903 H915 0.930 . S
C904 C894 1.391 . S
C904 C903 1.359 . S
C904 H916 0.929 . S
H905 C901 0.930 . S
H906 C895 0.930 . S
H907 C924 0.930 . S
H908 C896 0.930 . S
H909 C897 0.930 . S
H910 C891 0.929 . S
H911 C929 0.930 . S
H912 C920 0.930 . S
H913 C921 0.930 . S
H914 C945 0.929 . S
H915 C903 0.930 . S
H916 C904 0.929 . S
H917 C946 0.930 . S
H918 C927 0.930 . S
N919 Gd888 2.661 . S
N919 C923 1.350 . S
N919 C924 1.307 . S
C920 H912 0.930 . S
C920 C921 1.355 . S
C920 C922 1.412 . S
C921 H913 0.930 . S
C921 C920 1.355 . S
C921 C924 1.402 . S
C922 C920 1.412 . S
C922 C923 1.417 . S
C922 C946 1.431 . S
C923 N919 1.350 . S
C923 C922 1.417 . S
C923 C926 1.426 . S
C924 H907 0.930 . S
C924 N919 1.307 . S
C924 C921 1.402 . S
N925 Gd888 2.601 . S
N925 C926 1.359 . S
N925 C929 1.334 . S
C926 C923 1.426 . S
C926 N925 1.359 . S
C926 C930 1.413 . S
C927 H918 0.930 . S
C927 C928 1.359 . S
C927 C929 1.394 . S
C928 C927 1.359 . S
C928 C930 1.391 . S
C928 H931 0.929 . S
C929 H911 0.930 . S
C929 N925 1.334 . S
C929 C927 1.394 . S
C930 C926 1.413 . S
C930 C928 1.391 . S
C930 C945 1.437 . S
H931 C928 0.929 . S
O932 Gd888 2.545 . S
O932 C947 1.258 . S
O933 Gd888 2.606 . S
O933 Gd889 2.362 1_556 S
O933 C944 1.284 . S
O934 Gd889 2.324 . S
O934 C954 1.254 . S
O935 Gd888 2.429 . S
O935 C954 1.268 1_556 S
O936 Gd888 2.545 . S
O936 C944 1.250 . S
O937 Gd888 2.412 . S
O937 C947 1.252 . S
O938 Gd889 2.545 . S
O938 C956 1.258 . S
O939 Gd888 2.362 1_554 S
O939 Gd889 2.606 . S
O939 C955 1.284 . S
O940 Gd888 2.324 . S
O940 C963 1.254 . S
O941 Gd889 2.429 . S
O941 C963 1.268 1_554 S
O942 Gd889 2.545 . S
O942 C955 1.250 . S
O943 Gd889 2.412 . S
O943 C956 1.252 . S
C944 O933 1.284 . S
C944 O936 1.250 . S
C945 H914 0.929 . S
C945 C930 1.437 . S
C945 C946 1.317 . S
C946 H917 0.930 . S
C946 C922 1.431 . S
C946 C945 1.317 . S
C947 Gd888 2.828 . S
C947 O932 1.258 . S
C947 O937 1.252 . S
C947 C948 1.497 . S
C948 C947 1.497 . S
C948 C949 1.395 . S
C948 C950 1.380 . S
C949 C948 1.395 . S
C949 C952 1.398 . S
C949 H964 0.930 . S
C950 C948 1.380 . S
C950 C951 1.391 . S
C950 H965 0.930 . S
C951 C950 1.391 . S
C951 C953 1.387 . S
C952 C949 1.398 . S
C952 C953 1.380 . S
C952 H966 0.930 . S
C953 C951 1.387 . S
C953 C952 1.380 . S
C953 H967 0.930 . S
C954 O934 1.254 . S
C954 O935 1.268 1_554 S
C955 O939 1.284 . S
C955 O942 1.250 . S
C956 Gd889 2.828 . S
C956 O938 1.258 . S
C956 O943 1.252 . S
C956 C957 1.497 . S
C957 C956 1.497 . S
C957 C958 1.395 . S
C957 C959 1.380 . S
C958 C957 1.395 . S
C958 C961 1.398 . S
C958 H968 0.930 . S
C959 C957 1.380 . S
C959 C960 1.391 . S
C959 H969 0.930 . S
C960 C959 1.391 . S
C960 C962 1.387 . S
C961 C958 1.398 . S
C961 C962 1.380 . S
C961 H970 0.930 . S
C962 C960 1.387 . S
C962 C961 1.380 . S
C962 H971 0.930 . S
C963 O940 1.254 . S
C963 O941 1.268 1_556 S
H964 C949 0.930 . S
H965 C950 0.930 . S
H966 C952 0.930 . S
H967 C953 0.930 . S
H968 C958 0.930 . S
H969 C959 0.930 . S
H970 C961 0.930 . S
H971 C962 0.930 . S
Gd972 N1003 2.661 . S
Gd972 N1009 2.601 . S
Gd972 O1016 2.545 . S
Gd972 O1017 2.606 . S
Gd972 O1019 2.429 . S
Gd972 O1020 2.545 . S
Gd972 O1021 2.412 . S
Gd972 O1023 2.362 . S
Gd972 O1024 2.324 . S
Gd972 C1031 2.828 . S
Gd973 N982 2.661 . S
Gd973 N986 2.601 . S
Gd973 O1017 2.362 . S
Gd973 O1018 2.324 . S
Gd973 O1022 2.545 . S
Gd973 O1023 2.606 . S
Gd973 O1025 2.429 . S
Gd973 O1026 2.545 . S
Gd973 O1027 2.412 . S
Gd973 C1040 2.828 . S
C974 C977 1.417 . S
C974 C979 1.431 . S
C974 C980 1.412 . S
C975 C978 1.437 . S
C975 C979 1.317 . S
C975 H994 0.929 . S
C976 C977 1.426 . S
C976 C978 1.413 . S
C976 N986 1.359 . S
C977 C974 1.417 . S
C977 C976 1.426 . S
C977 N982 1.350 . S
C978 C975 1.437 . S
C978 C976 1.413 . S
C978 C988 1.391 . S
C979 C974 1.431 . S
C979 C975 1.317 . S
C979 H990 0.930 . S
C980 C974 1.412 . S
C980 C981 1.355 . S
C980 H992 0.930 . S
C981 C980 1.355 . S
C981 C983 1.402 . S
C981 H993 0.930 . S
N982 Gd973 2.661 . S
N982 C977 1.350 . S
N982 C983 1.307 . S
C983 C981 1.402 . S
C983 N982 1.307 . S
C983 H984 0.930 . S
H984 C983 0.930 . S
C985 N986 1.334 . S
C985 C987 1.394 . S
C985 H989 0.930 . S
N986 Gd973 2.601 . S
N986 C976 1.359 . S
N986 C985 1.334 . S
C987 C985 1.394 . S
C987 C988 1.359 . S
C987 H999 0.930 . S
C988 C978 1.391 . S
C988 C987 1.359 . S
C988 H1000 0.929 . S
H989 C985 0.930 . S
H990 C979 0.930 . S
H991 C1008 0.930 . S
H992 C980 0.930 . S
H993 C981 0.930 . S
H994 C975 0.929 . S
H995 C1013 0.930 . S
H996 C1004 0.930 . S
H997 C1005 0.930 . S
H998 C1029 0.929 . S
H999 C987 0.930 . S
H1000 C988 0.929 . S
H1001 C1030 0.930 . S
H1002 C1011 0.930 . S
N1003 Gd972 2.661 . S
N1003 C1007 1.350 . S
N1003 C1008 1.307 . S
C1004 H996 0.930 . S
C1004 C1005 1.355 . S
C1004 C1006 1.412 . S
C1005 H997 0.930 . S
C1005 C1004 1.355 . S
C1005 C1008 1.402 . S
C1006 C1004 1.412 . S
C1006 C1007 1.417 . S
C1006 C1030 1.431 . S
C1007 N1003 1.350 . S
C1007 C1006 1.417 . S
C1007 C1010 1.426 . S
C1008 H991 0.930 . S
C1008 N1003 1.307 . S
C1008 C1005 1.402 . S
N1009 Gd972 2.601 . S
N1009 C1010 1.359 . S
N1009 C1013 1.334 . S
C1010 C1007 1.426 . S
C1010 N1009 1.359 . S
C1010 C1014 1.413 . S
C1011 H1002 0.930 . S
C1011 C1012 1.359 . S
C1011 C1013 1.394 . S
C1012 C1011 1.359 . S
C1012 C1014 1.391 . S
C1012 H1015 0.929 . S
C1013 H995 0.930 . S
C1013 N1009 1.334 . S
C1013 C1011 1.394 . S
C1014 C1010 1.413 . S
C1014 C1012 1.391 . S
C1014 C1029 1.437 . S
H1015 C1012 0.929 . S
O1016 Gd972 2.545 . S
O1016 C1031 1.258 . S
O1017 Gd972 2.606 . S
O1017 Gd973 2.362 . S
O1017 C1028 1.284 . S
O1018 Gd973 2.324 . S
O1018 C1038 1.254 . S
O1019 Gd972 2.429 . S
O1019 C1038 1.268 . S
O1020 Gd972 2.545 . S
O1020 C1028 1.250 . S
O1021 Gd972 2.412 . S
O1021 C1031 1.252 . S
O1022 Gd973 2.545 . S
O1022 C1040 1.258 . S
O1023 Gd972 2.362 . S
O1023 Gd973 2.606 . S
O1023 C1039 1.284 . S
O1024 Gd972 2.324 . S
O1024 C1047 1.254 . S
O1025 Gd973 2.429 . S
O1025 C1047 1.268 . S
O1026 Gd973 2.545 . S
O1026 C1039 1.250 . S
O1027 Gd973 2.412 . S
O1027 C1040 1.252 . S
C1028 O1017 1.284 . S
C1028 O1020 1.250 . S
C1029 H998 0.929 . S
C1029 C1014 1.437 . S
C1029 C1030 1.317 . S
C1030 H1001 0.930 . S
C1030 C1006 1.431 . S
C1030 C1029 1.317 . S
C1031 Gd972 2.828 . S
C1031 O1016 1.258 . S
C1031 O1021 1.252 . S
C1031 C1032 1.497 . S
C1032 C1031 1.497 . S
C1032 C1033 1.395 . S
C1032 C1034 1.380 . S
C1033 C1032 1.395 . S
C1033 C1036 1.398 . S
C1033 H1048 0.930 . S
C1034 C1032 1.380 . S
C1034 C1035 1.391 . S
C1034 H1049 0.930 . S
C1035 C1034 1.391 . S
C1035 C1037 1.387 . S
C1036 C1033 1.398 . S
C1036 C1037 1.380 . S
C1036 H1050 0.930 . S
C1037 C1035 1.387 . S
C1037 C1036 1.380 . S
C1037 H1051 0.930 . S
C1038 O1018 1.254 . S
C1038 O1019 1.268 . S
C1039 O1023 1.284 . S
C1039 O1026 1.250 . S
C1040 Gd973 2.828 . S
C1040 O1022 1.258 . S
C1040 O1027 1.252 . S
C1040 C1041 1.497 . S
C1041 C1040 1.497 . S
C1041 C1042 1.395 . S
C1041 C1043 1.380 . S
C1042 C1041 1.395 . S
C1042 C1045 1.398 . S
C1042 H1052 0.930 . S
C1043 C1041 1.380 . S
C1043 C1044 1.391 . S
C1043 H1053 0.930 . S
C1044 C1043 1.391 . S
C1044 C1046 1.387 . S
C1045 C1042 1.398 . S
C1045 C1046 1.380 . S
C1045 H1054 0.930 . S
C1046 C1044 1.387 . S
C1046 C1045 1.380 . S
C1046 H1055 0.930 . S
C1047 O1024 1.254 . S
C1047 O1025 1.268 . S
H1048 C1033 0.930 . S
H1049 C1034 0.930 . S
H1050 C1036 0.930 . S
H1051 C1037 0.930 . S
H1052 C1042 0.930 . S
H1053 C1043 0.930 . S
H1054 C1045 0.930 . S
H1055 C1046 0.930 . S
Gd1056 N1087 2.661 . S
Gd1056 N1093 2.601 . S
Gd1056 O1100 2.545 . S
Gd1056 O1101 2.606 . S
Gd1056 O1103 2.429 . S
Gd1056 O1104 2.545 . S
Gd1056 O1105 2.412 . S
Gd1056 O1107 2.362 . S
Gd1056 O1108 2.324 . S
Gd1056 C1115 2.828 . S
Gd1057 N1066 2.661 . S
Gd1057 N1070 2.601 . S
Gd1057 O1101 2.362 . S
Gd1057 O1102 2.324 . S
Gd1057 O1106 2.545 . S
Gd1057 O1107 2.606 . S
Gd1057 O1109 2.429 . S
Gd1057 O1110 2.545 . S
Gd1057 O1111 2.412 . S
Gd1057 C1124 2.828 . S
C1058 C1061 1.417 . S
C1058 C1063 1.431 . S
C1058 C1064 1.412 . S
C1059 C1062 1.437 . S
C1059 C1063 1.317 . S
C1059 H1078 0.929 . S
C1060 C1061 1.426 . S
C1060 C1062 1.413 . S
C1060 N1070 1.359 . S
C1061 C1058 1.417 . S
C1061 C1060 1.426 . S
C1061 N1066 1.350 . S
C1062 C1059 1.437 . S
C1062 C1060 1.413 . S
C1062 C1072 1.391 . S
C1063 C1058 1.431 . S
C1063 C1059 1.317 . S
C1063 H1074 0.930 . S
C1064 C1058 1.412 . S
C1064 C1065 1.355 . S
C1064 H1076 0.930 . S
C1065 C1064 1.355 . S
C1065 C1067 1.402 . S
C1065 H1077 0.930 . S
N1066 Gd1057 2.661 . S
N1066 C1061 1.350 . S
N1066 C1067 1.307 . S
C1067 C1065 1.402 . S
C1067 N1066 1.307 . S
C1067 H1068 0.930 . S
H1068 C1067 0.930 . S
C1069 N1070 1.334 . S
C1069 C1071 1.394 . S
C1069 H1073 0.930 . S
N1070 Gd1057 2.601 . S
N1070 C1060 1.359 . S
N1070 C1069 1.334 . S
C1071 C1069 1.394 . S
C1071 C1072 1.359 . S
C1071 H1083 0.930 . S
C1072 C1062 1.391 . S
C1072 C1071 1.359 . S
C1072 H1084 0.929 . S
H1073 C1069 0.930 . S
H1074 C1063 0.930 . S
H1075 C1092 0.930 . S
H1076 C1064 0.930 . S
H1077 C1065 0.930 . S
H1078 C1059 0.929 . S
H1079 C1097 0.930 . S
H1080 C1088 0.930 . S
H1081 C1089 0.930 . S
H1082 C1113 0.929 . S
H1083 C1071 0.930 . S
H1084 C1072 0.929 . S
H1085 C1114 0.930 . S
H1086 C1095 0.930 . S
N1087 Gd1056 2.661 . S
N1087 C1091 1.350 . S
N1087 C1092 1.307 . S
C1088 H1080 0.930 . S
C1088 C1089 1.355 . S
C1088 C1090 1.412 . S
C1089 H1081 0.930 . S
C1089 C1088 1.355 . S
C1089 C1092 1.402 . S
C1090 C1088 1.412 . S
C1090 C1091 1.417 . S
C1090 C1114 1.431 . S
C1091 N1087 1.350 . S
C1091 C1090 1.417 . S
C1091 C1094 1.426 . S
C1092 H1075 0.930 . S
C1092 N1087 1.307 . S
C1092 C1089 1.402 . S
N1093 Gd1056 2.601 . S
N1093 C1094 1.359 . S
N1093 C1097 1.334 . S
C1094 C1091 1.426 . S
C1094 N1093 1.359 . S
C1094 C1098 1.413 . S
C1095 H1086 0.930 . S
C1095 C1096 1.359 . S
C1095 C1097 1.394 . S
C1096 C1095 1.359 . S
C1096 C1098 1.391 . S
C1096 H1099 0.929 . S
C1097 H1079 0.930 . S
C1097 N1093 1.334 . S
C1097 C1095 1.394 . S
C1098 C1094 1.413 . S
C1098 C1096 1.391 . S
C1098 C1113 1.437 . S
H1099 C1096 0.929 . S
O1100 Gd1056 2.545 . S
O1100 C1115 1.258 . S
O1101 Gd1056 2.606 . S
O1101 Gd1057 2.362 . S
O1101 C1112 1.284 . S
O1102 Gd1057 2.324 . S
O1102 C1122 1.254 . S
O1103 Gd1056 2.429 . S
O1103 C1122 1.268 . S
O1104 Gd1056 2.545 . S
O1104 C1112 1.250 . S
O1105 Gd1056 2.412 . S
O1105 C1115 1.252 . S
O1106 Gd1057 2.545 . S
O1106 C1124 1.258 . S
O1107 Gd1056 2.362 . S
O1107 Gd1057 2.606 . S
O1107 C1123 1.284 . S
O1108 Gd1056 2.324 . S
O1108 C1131 1.254 . S
O1109 Gd1057 2.429 . S
O1109 C1131 1.268 . S
O1110 Gd1057 2.545 . S
O1110 C1123 1.250 . S
O1111 Gd1057 2.412 . S
O1111 C1124 1.252 . S
C1112 O1101 1.284 . S
C1112 O1104 1.250 . S
C1113 H1082 0.929 . S
C1113 C1098 1.437 . S
C1113 C1114 1.317 . S
C1114 H1085 0.930 . S
C1114 C1090 1.431 . S
C1114 C1113 1.317 . S
C1115 Gd1056 2.828 . S
C1115 O1100 1.258 . S
C1115 O1105 1.252 . S
C1115 C1116 1.497 . S
C1116 C1115 1.497 . S
C1116 C1117 1.395 . S
C1116 C1118 1.380 . S
C1117 C1116 1.395 . S
C1117 C1120 1.398 . S
C1117 H1132 0.930 . S
C1118 C1116 1.380 . S
C1118 C1119 1.391 . S
C1118 H1133 0.930 . S
C1119 C1118 1.391 . S
C1119 C1121 1.387 . S
C1120 C1117 1.398 . S
C1120 C1121 1.380 . S
C1120 H1134 0.930 . S
C1121 C1119 1.387 . S
C1121 C1120 1.380 . S
C1121 H1135 0.930 . S
C1122 O1102 1.254 . S
C1122 O1103 1.268 . S
C1123 O1107 1.284 . S
C1123 O1110 1.250 . S
C1124 Gd1057 2.828 . S
C1124 O1106 1.258 . S
C1124 O1111 1.252 . S
C1124 C1125 1.497 . S
C1125 C1124 1.497 . S
C1125 C1126 1.395 . S
C1125 C1127 1.380 . S
C1126 C1125 1.395 . S
C1126 C1129 1.398 . S
C1126 H1136 0.930 . S
C1127 C1125 1.380 . S
C1127 C1128 1.391 . S
C1127 H1137 0.930 . S
C1128 C1127 1.391 . S
C1128 C1130 1.387 . S
C1129 C1126 1.398 . S
C1129 C1130 1.380 . S
C1129 H1138 0.930 . S
C1130 C1128 1.387 . S
C1130 C1129 1.380 . S
C1130 H1139 0.930 . S
C1131 O1108 1.254 . S
C1131 O1109 1.268 . S
H1132 C1117 0.930 . S
H1133 C1118 0.930 . S
H1134 C1120 0.930 . S
H1135 C1121 0.930 . S
H1136 C1126 0.930 . S
H1137 C1127 0.930 . S
H1138 C1129 0.930 . S
H1139 C1130 0.930 . S
Gd1140 N1171 2.661 . S
Gd1140 N1177 2.601 . S
Gd1140 O1184 2.545 . S
Gd1140 O1185 2.606 . S
Gd1140 O1187 2.429 . S
Gd1140 O1188 2.545 . S
Gd1140 O1189 2.412 . S
Gd1140 O1191 2.362 . S
Gd1140 O1192 2.324 . S
Gd1140 C1199 2.828 . S
Gd1141 N1150 2.661 . S
Gd1141 N1154 2.601 . S
Gd1141 O1185 2.362 . S
Gd1141 O1186 2.324 . S
Gd1141 O1190 2.545 . S
Gd1141 O1191 2.606 . S
Gd1141 O1193 2.429 . S
Gd1141 O1194 2.545 . S
Gd1141 O1195 2.412 . S
Gd1141 C1208 2.828 . S
C1142 C1145 1.417 . S
C1142 C1147 1.431 . S
C1142 C1148 1.412 . S
C1143 C1146 1.437 . S
C1143 C1147 1.317 . S
C1143 H1162 0.929 . S
C1144 C1145 1.426 . S
C1144 C1146 1.413 . S
C1144 N1154 1.359 . S
C1145 C1142 1.417 . S
C1145 C1144 1.426 . S
C1145 N1150 1.350 . S
C1146 C1143 1.437 . S
C1146 C1144 1.413 . S
C1146 C1156 1.391 . S
C1147 C1142 1.431 . S
C1147 C1143 1.317 . S
C1147 H1158 0.930 . S
C1148 C1142 1.412 . S
C1148 C1149 1.355 . S
C1148 H1160 0.930 . S
C1149 C1148 1.355 . S
C1149 C1151 1.402 . S
C1149 H1161 0.930 . S
N1150 Gd1141 2.661 . S
N1150 C1145 1.350 . S
N1150 C1151 1.307 . S
C1151 C1149 1.402 . S
C1151 N1150 1.307 . S
C1151 H1152 0.930 . S
H1152 C1151 0.930 . S
C1153 N1154 1.334 . S
C1153 C1155 1.394 . S
C1153 H1157 0.930 . S
N1154 Gd1141 2.601 . S
N1154 C1144 1.359 . S
N1154 C1153 1.334 . S
C1155 C1153 1.394 . S
C1155 C1156 1.359 . S
C1155 H1167 0.930 . S
C1156 C1146 1.391 . S
C1156 C1155 1.359 . S
C1156 H1168 0.929 . S
H1157 C1153 0.930 . S
H1158 C1147 0.930 . S
H1159 C1176 0.930 . S
H1160 C1148 0.930 . S
H1161 C1149 0.930 . S
H1162 C1143 0.929 . S
H1163 C1181 0.930 . S
H1164 C1172 0.930 . S
H1165 C1173 0.930 . S
H1166 C1197 0.929 . S
H1167 C1155 0.930 . S
H1168 C1156 0.929 . S
H1169 C1198 0.930 . S
H1170 C1179 0.930 . S
N1171 Gd1140 2.661 . S
N1171 C1175 1.350 . S
N1171 C1176 1.307 . S
C1172 H1164 0.930 . S
C1172 C1173 1.355 . S
C1172 C1174 1.412 . S
C1173 H1165 0.930 . S
C1173 C1172 1.355 . S
C1173 C1176 1.402 . S
C1174 C1172 1.412 . S
C1174 C1175 1.417 . S
C1174 C1198 1.431 . S
C1175 N1171 1.350 . S
C1175 C1174 1.417 . S
C1175 C1178 1.426 . S
C1176 H1159 0.930 . S
C1176 N1171 1.307 . S
C1176 C1173 1.402 . S
N1177 Gd1140 2.601 . S
N1177 C1178 1.359 . S
N1177 C1181 1.334 . S
C1178 C1175 1.426 . S
C1178 N1177 1.359 . S
C1178 C1182 1.413 . S
C1179 H1170 0.930 . S
C1179 C1180 1.359 . S
C1179 C1181 1.394 . S
C1180 C1179 1.359 . S
C1180 C1182 1.391 . S
C1180 H1183 0.929 . S
C1181 H1163 0.930 . S
C1181 N1177 1.334 . S
C1181 C1179 1.394 . S
C1182 C1178 1.413 . S
C1182 C1180 1.391 . S
C1182 C1197 1.437 . S
H1183 C1180 0.929 . S
O1184 Gd1140 2.545 . S
O1184 C1199 1.258 . S
O1185 Gd1140 2.606 . S
O1185 Gd1141 2.362 . S
O1185 C1196 1.284 . S
O1186 Gd1141 2.324 . S
O1186 C1206 1.254 . S
O1187 Gd1140 2.429 . S
O1187 C1206 1.268 . S
O1188 Gd1140 2.545 . S
O1188 C1196 1.250 . S
O1189 Gd1140 2.412 . S
O1189 C1199 1.252 . S
O1190 Gd1141 2.545 . S
O1190 C1208 1.258 . S
O1191 Gd1140 2.362 . S
O1191 Gd1141 2.606 . S
O1191 C1207 1.284 . S
O1192 Gd1140 2.324 . S
O1192 C1215 1.254 . S
O1193 Gd1141 2.429 . S
O1193 C1215 1.268 . S
O1194 Gd1141 2.545 . S
O1194 C1207 1.250 . S
O1195 Gd1141 2.412 . S
O1195 C1208 1.252 . S
C1196 O1185 1.284 . S
C1196 O1188 1.250 . S
C1197 H1166 0.929 . S
C1197 C1182 1.437 . S
C1197 C1198 1.317 . S
C1198 H1169 0.930 . S
C1198 C1174 1.431 . S
C1198 C1197 1.317 . S
C1199 Gd1140 2.828 . S
C1199 O1184 1.258 . S
C1199 O1189 1.252 . S
C1199 C1200 1.497 . S
C1200 C1199 1.497 . S
C1200 C1201 1.395 . S
C1200 C1202 1.380 . S
C1201 C1200 1.395 . S
C1201 C1204 1.398 . S
C1201 H1216 0.930 . S
C1202 C1200 1.380 . S
C1202 C1203 1.391 . S
C1202 H1217 0.930 . S
C1203 C1202 1.391 . S
C1203 C1205 1.387 . S
C1204 C1201 1.398 . S
C1204 C1205 1.380 . S
C1204 H1218 0.930 . S
C1205 C1203 1.387 . S
C1205 C1204 1.380 . S
C1205 H1219 0.930 . S
C1206 O1186 1.254 . S
C1206 O1187 1.268 . S
C1207 O1191 1.284 . S
C1207 O1194 1.250 . S
C1208 Gd1141 2.828 . S
C1208 O1190 1.258 . S
C1208 O1195 1.252 . S
C1208 C1209 1.497 . S
C1209 C1208 1.497 . S
C1209 C1210 1.395 . S
C1209 C1211 1.380 . S
C1210 C1209 1.395 . S
C1210 C1213 1.398 . S
C1210 H1220 0.930 . S
C1211 C1209 1.380 . S
C1211 C1212 1.391 . S
C1211 H1221 0.930 . S
C1212 C1211 1.391 . S
C1212 C1214 1.387 . S
C1213 C1210 1.398 . S
C1213 C1214 1.380 . S
C1213 H1222 0.930 . S
C1214 C1212 1.387 . S
C1214 C1213 1.380 . S
C1214 H1223 0.930 . S
C1215 O1192 1.254 . S
C1215 O1193 1.268 . S
H1216 C1201 0.930 . S
H1217 C1202 0.930 . S
H1218 C1204 0.930 . S
H1219 C1205 0.930 . S
H1220 C1210 0.930 . S
H1221 C1211 0.930 . S
H1222 C1213 0.930 . S
H1223 C1214 0.930 . S
Gd1224 N1255 2.661 . S
Gd1224 N1261 2.601 . S
Gd1224 O1268 2.545 . S
Gd1224 O1269 2.606 . S
Gd1224 O1271 2.429 . S
Gd1224 O1272 2.545 . S
Gd1224 O1273 2.412 . S
Gd1224 O1275 2.362 . S
Gd1224 O1276 2.324 . S
Gd1224 C1283 2.828 . S
Gd1225 N1234 2.661 . S
Gd1225 N1238 2.601 . S
Gd1225 O1269 2.362 . S
Gd1225 O1270 2.324 . S
Gd1225 O1274 2.545 . S
Gd1225 O1275 2.606 . S
Gd1225 O1277 2.429 . S
Gd1225 O1278 2.545 . S
Gd1225 O1279 2.412 . S
Gd1225 C1292 2.828 . S
C1226 C1229 1.417 . S
C1226 C1231 1.431 . S
C1226 C1232 1.412 . S
C1227 C1230 1.437 . S
C1227 C1231 1.317 . S
C1227 H1246 0.929 . S
C1228 C1229 1.426 . S
C1228 C1230 1.413 . S
C1228 N1238 1.359 . S
C1229 C1226 1.417 . S
C1229 C1228 1.426 . S
C1229 N1234 1.350 . S
C1230 C1227 1.437 . S
C1230 C1228 1.413 . S
C1230 C1240 1.391 . S
C1231 C1226 1.431 . S
C1231 C1227 1.317 . S
C1231 H1242 0.930 . S
C1232 C1226 1.412 . S
C1232 C1233 1.355 . S
C1232 H1244 0.930 . S
C1233 C1232 1.355 . S
C1233 C1235 1.402 . S
C1233 H1245 0.930 . S
N1234 Gd1225 2.661 . S
N1234 C1229 1.350 . S
N1234 C1235 1.307 . S
C1235 C1233 1.402 . S
C1235 N1234 1.307 . S
C1235 H1236 0.930 . S
H1236 C1235 0.930 . S
C1237 N1238 1.334 . S
C1237 C1239 1.394 . S
C1237 H1241 0.930 . S
N1238 Gd1225 2.601 . S
N1238 C1228 1.359 . S
N1238 C1237 1.334 . S
C1239 C1237 1.394 . S
C1239 C1240 1.359 . S
C1239 H1251 0.930 . S
C1240 C1230 1.391 . S
C1240 C1239 1.359 . S
C1240 H1252 0.929 . S
H1241 C1237 0.930 . S
H1242 C1231 0.930 . S
H1243 C1260 0.930 . S
H1244 C1232 0.930 . S
H1245 C1233 0.930 . S
H1246 C1227 0.929 . S
H1247 C1265 0.930 . S
H1248 C1256 0.930 . S
H1249 C1257 0.930 . S
H1250 C1281 0.929 . S
H1251 C1239 0.930 . S
H1252 C1240 0.929 . S
H1253 C1282 0.930 . S
H1254 C1263 0.930 . S
N1255 Gd1224 2.661 . S
N1255 C1259 1.350 . S
N1255 C1260 1.307 . S
C1256 H1248 0.930 . S
C1256 C1257 1.355 . S
C1256 C1258 1.412 . S
C1257 H1249 0.930 . S
C1257 C1256 1.355 . S
C1257 C1260 1.402 . S
C1258 C1256 1.412 . S
C1258 C1259 1.417 . S
C1258 C1282 1.431 . S
C1259 N1255 1.350 . S
C1259 C1258 1.417 . S
C1259 C1262 1.426 . S
C1260 H1243 0.930 . S
C1260 N1255 1.307 . S
C1260 C1257 1.402 . S
N1261 Gd1224 2.601 . S
N1261 C1262 1.359 . S
N1261 C1265 1.334 . S
C1262 C1259 1.426 . S
C1262 N1261 1.359 . S
C1262 C1266 1.413 . S
C1263 H1254 0.930 . S
C1263 C1264 1.359 . S
C1263 C1265 1.394 . S
C1264 C1263 1.359 . S
C1264 C1266 1.391 . S
C1264 H1267 0.929 . S
C1265 H1247 0.930 . S
C1265 N1261 1.334 . S
C1265 C1263 1.394 . S
C1266 C1262 1.413 . S
C1266 C1264 1.391 . S
C1266 C1281 1.437 . S
H1267 C1264 0.929 . S
O1268 Gd1224 2.545 . S
O1268 C1283 1.258 . S
O1269 Gd1224 2.606 . S
O1269 Gd1225 2.362 . S
O1269 C1280 1.284 . S
O1270 Gd1225 2.324 . S
O1270 C1290 1.254 . S
O1271 Gd1224 2.429 . S
O1271 C1290 1.268 . S
O1272 Gd1224 2.545 . S
O1272 C1280 1.250 . S
O1273 Gd1224 2.412 . S
O1273 C1283 1.252 . S
O1274 Gd1225 2.545 . S
O1274 C1292 1.258 . S
O1275 Gd1224 2.362 . S
O1275 Gd1225 2.606 . S
O1275 C1291 1.284 . S
O1276 Gd1224 2.324 . S
O1276 C1299 1.254 . S
O1277 Gd1225 2.429 . S
O1277 C1299 1.268 . S
O1278 Gd1225 2.545 . S
O1278 C1291 1.250 . S
O1279 Gd1225 2.412 . S
O1279 C1292 1.252 . S
C1280 O1269 1.284 . S
C1280 O1272 1.250 . S
C1281 H1250 0.929 . S
C1281 C1266 1.437 . S
C1281 C1282 1.317 . S
C1282 H1253 0.930 . S
C1282 C1258 1.431 . S
C1282 C1281 1.317 . S
C1283 Gd1224 2.828 . S
C1283 O1268 1.258 . S
C1283 O1273 1.252 . S
C1283 C1284 1.497 . S
C1284 C1283 1.497 . S
C1284 C1285 1.395 . S
C1284 C1286 1.380 . S
C1285 C1284 1.395 . S
C1285 C1288 1.398 . S
C1285 H1300 0.930 . S
C1286 C1284 1.380 . S
C1286 C1287 1.391 . S
C1286 H1301 0.930 . S
C1287 C1286 1.391 . S
C1287 C1289 1.387 . S
C1288 C1285 1.398 . S
C1288 C1289 1.380 . S
C1288 H1302 0.930 . S
C1289 C1287 1.387 . S
C1289 C1288 1.380 . S
C1289 H1303 0.930 . S
C1290 O1270 1.254 . S
C1290 O1271 1.268 . S
C1291 O1275 1.284 . S
C1291 O1278 1.250 . S
C1292 Gd1225 2.828 . S
C1292 O1274 1.258 . S
C1292 O1279 1.252 . S
C1292 C1293 1.497 . S
C1293 C1292 1.497 . S
C1293 C1294 1.395 . S
C1293 C1295 1.380 . S
C1294 C1293 1.395 . S
C1294 C1297 1.398 . S
C1294 H1304 0.930 . S
C1295 C1293 1.380 . S
C1295 C1296 1.391 . S
C1295 H1305 0.930 . S
C1296 C1295 1.391 . S
C1296 C1298 1.387 . S
C1297 C1294 1.398 . S
C1297 C1298 1.380 . S
C1297 H1306 0.930 . S
C1298 C1296 1.387 . S
C1298 C1297 1.380 . S
C1298 H1307 0.930 . S
C1299 O1276 1.254 . S
C1299 O1277 1.268 . S
H1300 C1285 0.930 . S
H1301 C1286 0.930 . S
H1302 C1288 0.930 . S
H1303 C1289 0.930 . S
H1304 C1294 0.930 . S
H1305 C1295 0.930 . S
H1306 C1297 0.930 . S
H1307 C1298 0.930 . S
Gd1308 N1339 2.661 . S
Gd1308 N1345 2.601 . S
Gd1308 O1352 2.545 . S
Gd1308 O1353 2.606 . S
Gd1308 O1355 2.429 . S
Gd1308 O1356 2.545 . S
Gd1308 O1357 2.412 . S
Gd1308 O1359 2.362 . S
Gd1308 O1360 2.324 . S
Gd1308 C1367 2.828 . S
Gd1309 N1318 2.661 . S
Gd1309 N1322 2.601 . S
Gd1309 O1353 2.362 . S
Gd1309 O1354 2.324 . S
Gd1309 O1358 2.545 . S
Gd1309 O1359 2.606 . S
Gd1309 O1361 2.429 . S
Gd1309 O1362 2.545 . S
Gd1309 O1363 2.412 . S
Gd1309 C1376 2.828 . S
C1310 C1313 1.417 . S
C1310 C1315 1.431 . S
C1310 C1316 1.412 . S
C1311 C1314 1.437 . S
C1311 C1315 1.317 . S
C1311 H1330 0.929 . S
C1312 C1313 1.426 . S
C1312 C1314 1.413 . S
C1312 N1322 1.359 . S
C1313 C1310 1.417 . S
C1313 C1312 1.426 . S
C1313 N1318 1.350 . S
C1314 C1311 1.437 . S
C1314 C1312 1.413 . S
C1314 C1324 1.391 . S
C1315 C1310 1.431 . S
C1315 C1311 1.317 . S
C1315 H1326 0.930 . S
C1316 C1310 1.412 . S
C1316 C1317 1.355 . S
C1316 H1328 0.930 . S
C1317 C1316 1.355 . S
C1317 C1319 1.402 . S
C1317 H1329 0.930 . S
N1318 Gd1309 2.661 . S
N1318 C1313 1.350 . S
N1318 C1319 1.307 . S
C1319 C1317 1.402 . S
C1319 N1318 1.307 . S
C1319 H1320 0.930 . S
H1320 C1319 0.930 . S
C1321 N1322 1.334 . S
C1321 C1323 1.394 . S
C1321 H1325 0.930 . S
N1322 Gd1309 2.601 . S
N1322 C1312 1.359 . S
N1322 C1321 1.334 . S
C1323 C1321 1.394 . S
C1323 C1324 1.359 . S
C1323 H1335 0.930 . S
C1324 C1314 1.391 . S
C1324 C1323 1.359 . S
C1324 H1336 0.929 . S
H1325 C1321 0.930 . S
H1326 C1315 0.930 . S
H1327 C1344 0.930 . S
H1328 C1316 0.930 . S
H1329 C1317 0.930 . S
H1330 C1311 0.929 . S
H1331 C1349 0.930 . S
H1332 C1340 0.930 . S
H1333 C1341 0.930 . S
H1334 C1365 0.929 . S
H1335 C1323 0.930 . S
H1336 C1324 0.929 . S
H1337 C1366 0.930 . S
H1338 C1347 0.930 . S
N1339 Gd1308 2.661 . S
N1339 C1343 1.350 . S
N1339 C1344 1.307 . S
C1340 H1332 0.930 . S
C1340 C1341 1.355 . S
C1340 C1342 1.412 . S
C1341 H1333 0.930 . S
C1341 C1340 1.355 . S
C1341 C1344 1.402 . S
C1342 C1340 1.412 . S
C1342 C1343 1.417 . S
C1342 C1366 1.431 . S
C1343 N1339 1.350 . S
C1343 C1342 1.417 . S
C1343 C1346 1.426 . S
C1344 H1327 0.930 . S
C1344 N1339 1.307 . S
C1344 C1341 1.402 . S
N1345 Gd1308 2.601 . S
N1345 C1346 1.359 . S
N1345 C1349 1.334 . S
C1346 C1343 1.426 . S
C1346 N1345 1.359 . S
C1346 C1350 1.413 . S
C1347 H1338 0.930 . S
C1347 C1348 1.359 . S
C1347 C1349 1.394 . S
C1348 C1347 1.359 . S
C1348 C1350 1.391 . S
C1348 H1351 0.929 . S
C1349 H1331 0.930 . S
C1349 N1345 1.334 . S
C1349 C1347 1.394 . S
C1350 C1346 1.413 . S
C1350 C1348 1.391 . S
C1350 C1365 1.437 . S
H1351 C1348 0.929 . S
O1352 Gd1308 2.545 . S
O1352 C1367 1.258 . S
O1353 Gd1308 2.606 . S
O1353 Gd1309 2.362 . S
O1353 C1364 1.284 . S
O1354 Gd1309 2.324 . S
O1354 C1374 1.254 . S
O1355 Gd1308 2.429 . S
O1355 C1374 1.268 . S
O1356 Gd1308 2.545 . S
O1356 C1364 1.250 . S
O1357 Gd1308 2.412 . S
O1357 C1367 1.252 . S
O1358 Gd1309 2.545 . S
O1358 C1376 1.258 . S
O1359 Gd1308 2.362 . S
O1359 Gd1309 2.606 . S
O1359 C1375 1.284 . S
O1360 Gd1308 2.324 . S
O1360 C1383 1.254 . S
O1361 Gd1309 2.429 . S
O1361 C1383 1.268 . S
O1362 Gd1309 2.545 . S
O1362 C1375 1.250 . S
O1363 Gd1309 2.412 . S
O1363 C1376 1.252 . S
C1364 O1353 1.284 . S
C1364 O1356 1.250 . S
C1365 H1334 0.929 . S
C1365 C1350 1.437 . S
C1365 C1366 1.317 . S
C1366 H1337 0.930 . S
C1366 C1342 1.431 . S
C1366 C1365 1.317 . S
C1367 Gd1308 2.828 . S
C1367 O1352 1.258 . S
C1367 O1357 1.252 . S
C1367 C1368 1.497 . S
C1368 C1367 1.497 . S
C1368 C1369 1.395 . S
C1368 C1370 1.380 . S
C1369 C1368 1.395 . S
C1369 C1372 1.398 . S
C1369 H1384 0.930 . S
C1370 C1368 1.380 . S
C1370 C1371 1.391 . S
C1370 H1385 0.930 . S
C1371 C1370 1.391 . S
C1371 C1373 1.387 . S
C1372 C1369 1.398 . S
C1372 C1373 1.380 . S
C1372 H1386 0.930 . S
C1373 C1371 1.387 . S
C1373 C1372 1.380 . S
C1373 H1387 0.930 . S
C1374 O1354 1.254 . S
C1374 O1355 1.268 . S
C1375 O1359 1.284 . S
C1375 O1362 1.250 . S
C1376 Gd1309 2.828 . S
C1376 O1358 1.258 . S
C1376 O1363 1.252 . S
C1376 C1377 1.497 . S
C1377 C1376 1.497 . S
C1377 C1378 1.395 . S
C1377 C1379 1.380 . S
C1378 C1377 1.395 . S
C1378 C1381 1.398 . S
C1378 H1388 0.930 . S
C1379 C1377 1.380 . S
C1379 C1380 1.391 . S
C1379 H1389 0.930 . S
C1380 C1379 1.391 . S
C1380 C1382 1.387 . S
C1381 C1378 1.398 . S
C1381 C1382 1.380 . S
C1381 H1390 0.930 . S
C1382 C1380 1.387 . S
C1382 C1381 1.380 . S
C1382 H1391 0.930 . S
C1383 O1360 1.254 . S
C1383 O1361 1.268 . S
H1384 C1369 0.930 . S
H1385 C1370 0.930 . S
H1386 C1372 0.930 . S
H1387 C1373 0.930 . S
H1388 C1378 0.930 . S
H1389 C1379 0.930 . S
H1390 C1381 0.930 . S
H1391 C1382 0.930 . S
Gd1392 N1423 2.661 . S
Gd1392 N1429 2.601 . S
Gd1392 O1436 2.545 . S
Gd1392 O1437 2.606 . S
Gd1392 O1439 2.429 . S
Gd1392 O1440 2.545 . S
Gd1392 O1441 2.412 . S
Gd1392 O1443 2.362 . S
Gd1392 O1444 2.324 . S
Gd1392 C1451 2.828 . S
Gd1393 N1402 2.661 . S
Gd1393 N1406 2.601 . S
Gd1393 O1437 2.362 . S
Gd1393 O1438 2.324 . S
Gd1393 O1442 2.545 . S
Gd1393 O1443 2.606 . S
Gd1393 O1445 2.429 . S
Gd1393 O1446 2.545 . S
Gd1393 O1447 2.412 . S
Gd1393 C1460 2.828 . S
C1394 C1397 1.417 . S
C1394 C1399 1.431 . S
C1394 C1400 1.412 . S
C1395 C1398 1.437 . S
C1395 C1399 1.317 . S
C1395 H1414 0.929 . S
C1396 C1397 1.426 . S
C1396 C1398 1.413 . S
C1396 N1406 1.359 . S
C1397 C1394 1.417 . S
C1397 C1396 1.426 . S
C1397 N1402 1.350 . S
C1398 C1395 1.437 . S
C1398 C1396 1.413 . S
C1398 C1408 1.391 . S
C1399 C1394 1.431 . S
C1399 C1395 1.317 . S
C1399 H1410 0.930 . S
C1400 C1394 1.412 . S
C1400 C1401 1.355 . S
C1400 H1412 0.930 . S
C1401 C1400 1.355 . S
C1401 C1403 1.402 . S
C1401 H1413 0.930 . S
N1402 Gd1393 2.661 . S
N1402 C1397 1.350 . S
N1402 C1403 1.307 . S
C1403 C1401 1.402 . S
C1403 N1402 1.307 . S
C1403 H1404 0.930 . S
H1404 C1403 0.930 . S
C1405 N1406 1.334 . S
C1405 C1407 1.394 . S
C1405 H1409 0.930 . S
N1406 Gd1393 2.601 . S
N1406 C1396 1.359 . S
N1406 C1405 1.334 . S
C1407 C1405 1.394 . S
C1407 C1408 1.359 . S
C1407 H1419 0.930 . S
C1408 C1398 1.391 . S
C1408 C1407 1.359 . S
C1408 H1420 0.929 . S
H1409 C1405 0.930 . S
H1410 C1399 0.930 . S
H1411 C1428 0.930 . S
H1412 C1400 0.930 . S
H1413 C1401 0.930 . S
H1414 C1395 0.929 . S
H1415 C1433 0.930 . S
H1416 C1424 0.930 . S
H1417 C1425 0.930 . S
H1418 C1449 0.929 . S
H1419 C1407 0.930 . S
H1420 C1408 0.929 . S
H1421 C1450 0.930 . S
H1422 C1431 0.930 . S
N1423 Gd1392 2.661 . S
N1423 C1427 1.350 . S
N1423 C1428 1.307 . S
C1424 H1416 0.930 . S
C1424 C1425 1.355 . S
C1424 C1426 1.412 . S
C1425 H1417 0.930 . S
C1425 C1424 1.355 . S
C1425 C1428 1.402 . S
C1426 C1424 1.412 . S
C1426 C1427 1.417 . S
C1426 C1450 1.431 . S
C1427 N1423 1.350 . S
C1427 C1426 1.417 . S
C1427 C1430 1.426 . S
C1428 H1411 0.930 . S
C1428 N1423 1.307 . S
C1428 C1425 1.402 . S
N1429 Gd1392 2.601 . S
N1429 C1430 1.359 . S
N1429 C1433 1.334 . S
C1430 C1427 1.426 . S
C1430 N1429 1.359 . S
C1430 C1434 1.413 . S
C1431 H1422 0.930 . S
C1431 C1432 1.359 . S
C1431 C1433 1.394 . S
C1432 C1431 1.359 . S
C1432 C1434 1.391 . S
C1432 H1435 0.929 . S
C1433 H1415 0.930 . S
C1433 N1429 1.334 . S
C1433 C1431 1.394 . S
C1434 C1430 1.413 . S
C1434 C1432 1.391 . S
C1434 C1449 1.437 . S
H1435 C1432 0.929 . S
O1436 Gd1392 2.545 . S
O1436 C1451 1.258 . S
O1437 Gd1392 2.606 . S
O1437 Gd1393 2.362 . S
O1437 C1448 1.284 . S
O1438 Gd1393 2.324 . S
O1438 C1458 1.254 . S
O1439 Gd1392 2.429 . S
O1439 C1458 1.268 . S
O1440 Gd1392 2.545 . S
O1440 C1448 1.250 . S
O1441 Gd1392 2.412 . S
O1441 C1451 1.252 . S
O1442 Gd1393 2.545 . S
O1442 C1460 1.258 . S
O1443 Gd1392 2.362 . S
O1443 Gd1393 2.606 . S
O1443 C1459 1.284 . S
O1444 Gd1392 2.324 . S
O1444 C1467 1.254 . S
O1445 Gd1393 2.429 . S
O1445 C1467 1.268 . S
O1446 Gd1393 2.545 . S
O1446 C1459 1.250 . S
O1447 Gd1393 2.412 . S
O1447 C1460 1.252 . S
C1448 O1437 1.284 . S
C1448 O1440 1.250 . S
C1449 H1418 0.929 . S
C1449 C1434 1.437 . S
C1449 C1450 1.317 . S
C1450 H1421 0.930 . S
C1450 C1426 1.431 . S
C1450 C1449 1.317 . S
C1451 Gd1392 2.828 . S
C1451 O1436 1.258 . S
C1451 O1441 1.252 . S
C1451 C1452 1.497 . S
C1452 C1451 1.497 . S
C1452 C1453 1.395 . S
C1452 C1454 1.380 . S
C1453 C1452 1.395 . S
C1453 C1456 1.398 . S
C1453 H1468 0.930 . S
C1454 C1452 1.380 . S
C1454 C1455 1.391 . S
C1454 H1469 0.930 . S
C1455 C1454 1.391 . S
C1455 C1457 1.387 . S
C1456 C1453 1.398 . S
C1456 C1457 1.380 . S
C1456 H1470 0.930 . S
C1457 C1455 1.387 . S
C1457 C1456 1.380 . S
C1457 H1471 0.930 . S
C1458 O1438 1.254 . S
C1458 O1439 1.268 . S
C1459 O1443 1.284 . S
C1459 O1446 1.250 . S
C1460 Gd1393 2.828 . S
C1460 O1442 1.258 . S
C1460 O1447 1.252 . S
C1460 C1461 1.497 . S
C1461 C1460 1.497 . S
C1461 C1462 1.395 . S
C1461 C1463 1.380 . S
C1462 C1461 1.395 . S
C1462 C1465 1.398 . S
C1462 H1472 0.930 . S
C1463 C1461 1.380 . S
C1463 C1464 1.391 . S
C1463 H1473 0.930 . S
C1464 C1463 1.391 . S
C1464 C1466 1.387 . S
C1465 C1462 1.398 . S
C1465 C1466 1.380 . S
C1465 H1474 0.930 . S
C1466 C1464 1.387 . S
C1466 C1465 1.380 . S
C1466 H1475 0.930 . S
C1467 O1444 1.254 . S
C1467 O1445 1.268 . S
H1468 C1453 0.930 . S
H1469 C1454 0.930 . S
H1470 C1456 0.930 . S
H1471 C1457 0.930 . S
H1472 C1462 0.930 . S
H1473 C1463 0.930 . S
H1474 C1465 0.930 . S
H1475 C1466 0.930 . S
C1476 C1477 1.363 . S
C1476 C1482 1.379 . S
C1476 N1484 1.356 . S
C1477 C1476 1.363 . S
C1477 C1483 1.363 . S
C1478 C1479 1.363 . S
C1478 C1483 1.379 . S
C1478 N1485 1.356 . S
C1479 C1478 1.363 . S
C1479 C1482 1.363 . S
N1480 C1482 1.356 . S
N1480 H1492 0.984 . S
N1480 H1493 0.985 . S
N1481 C1483 1.356 . S
N1481 H1486 0.984 . S
N1481 H1487 0.985 . S
C1482 C1476 1.379 . S
C1482 C1479 1.363 . S
C1482 N1480 1.356 . S
C1483 C1477 1.363 . S
C1483 C1478 1.379 . S
C1483 N1481 1.356 . S
N1484 C1476 1.356 . S
N1484 H1490 0.984 . S
N1484 H1491 0.984 . S
N1485 C1478 1.356 . S
N1485 H1488 0.984 . S
N1485 H1489 0.985 . S
H1486 N1481 0.984 . S
H1487 N1481 0.985 . S
H1488 N1485 0.984 . S
H1489 N1485 0.985 . S
H1490 N1484 0.984 . S
H1491 N1484 0.984 . S
H1492 N1480 0.984 . S
H1493 N1480 0.985 . S
C1494 C1495 1.363 . S
C1494 C1500 1.379 . S
C1494 N1502 1.356 . S
C1495 C1494 1.363 . S
C1495 C1501 1.363 . S
C1496 C1497 1.363 . S
C1496 C1501 1.379 . S
C1496 N1503 1.356 1_554 S
C1497 C1496 1.363 . S
C1497 C1500 1.363 . S
N1498 C1500 1.356 . S
N1498 H1510 0.984 . S
N1498 H1511 0.985 . S
N1499 C1501 1.356 . S
N1499 H1504 0.984 . S
N1499 H1505 0.985 . S
C1500 C1494 1.379 . S
C1500 C1497 1.363 . S
C1500 N1498 1.356 . S
C1501 C1495 1.363 . S
C1501 C1496 1.379 . S
C1501 N1499 1.356 . S
N1502 C1494 1.356 . S
N1502 H1508 0.984 . S
N1502 H1509 0.984 . S
N1503 C1496 1.356 1_556 S
N1503 H1506 0.984 . S
N1503 H1507 0.985 . S
H1504 N1499 0.984 . S
H1505 N1499 0.985 . S
H1506 N1503 0.984 . S
H1507 N1503 0.985 . S
H1508 N1502 0.984 . S
H1509 N1502 0.984 . S
H1510 N1498 0.984 . S
H1511 N1498 0.985 . S
C1512 C1513 1.363 . S
C1512 C1518 1.379 . S
C1512 N1520 1.356 . S
C1513 C1512 1.363 . S
C1513 C1519 1.363 . S
C1514 C1515 1.363 . S
C1514 C1519 1.379 . S
C1514 N1521 1.382 . S
C1515 C1514 1.363 . S
C1515 C1518 1.363 . S
N1516 C1518 1.356 . S
N1516 H1528 0.984 . S
N1516 H1529 0.985 . S
N1517 C1519 1.356 . S
N1517 H1522 0.984 . S
N1517 H1523 0.985 . S
C1518 C1512 1.379 . S
C1518 C1515 1.363 . S
C1518 N1516 1.356 . S
C1519 C1513 1.363 . S
C1519 C1514 1.379 . S
C1519 N1517 1.356 . S
N1520 C1512 1.356 . S
N1520 H1526 0.984 . S
N1520 H1527 0.984 . S
N1521 C1514 1.382 . S
N1521 H1524 0.984 . S
N1521 H1525 0.960 1_554 S
H1522 N1517 0.984 . S
H1523 N1517 0.985 . S
H1524 N1521 0.984 . S
H1525 N1521 0.960 1_556 S
H1526 N1520 0.984 . S
H1527 N1520 0.984 . S
H1528 N1516 0.984 . S
H1529 N1516 0.985 . S
C1530 C1531 1.363 . S
C1530 C1536 1.379 . S
C1530 N1538 1.356 . S
C1531 C1530 1.363 . S
C1531 C1537 1.363 . S
C1532 C1533 1.363 . S
C1532 C1537 1.379 . S
C1532 N1539 1.356 . S
C1533 C1532 1.363 . S
C1533 C1536 1.363 . S
N1534 C1536 1.356 1_554 S
N1534 H1546 0.984 . S
N1534 H1547 0.985 . S
N1535 C1537 1.356 . S
N1535 H1540 0.984 . S
N1535 H1541 0.985 . S
C1536 C1530 1.379 . S
C1536 C1533 1.363 . S
C1536 N1534 1.356 1_556 S
C1537 C1531 1.363 . S
C1537 C1532 1.379 . S
C1537 N1535 1.356 . S
N1538 C1530 1.356 . S
N1538 H1544 0.984 1_556 S
N1538 H1545 0.984 . S
N1539 C1532 1.356 . S
N1539 H1542 0.984 . S
N1539 H1543 0.985 . S
H1540 N1535 0.984 . S
H1541 N1535 0.985 . S
H1542 N1539 0.984 . S
H1543 N1539 0.985 . S
H1544 N1538 0.984 1_554 S
H1545 N1538 0.984 . S
H1546 N1534 0.984 . S
H1547 N1534 0.985 . S
C1548 C1549 1.363 . S
C1548 C1554 1.379 . S
C1548 N1556 1.356 . S
C1549 C1548 1.363 . S
C1549 C1555 1.363 . S
C1550 C1551 1.363 . S
C1550 C1555 1.379 . S
C1550 N1557 1.356 . S
C1551 C1550 1.363 . S
C1551 C1554 1.363 . S
N1552 C1554 1.356 1_554 S
N1552 H1564 0.984 . S
N1552 H1565 0.985 . S
N1553 C1555 1.356 . S
N1553 H1558 0.984 . S
N1553 H1559 0.985 . S
C1554 C1548 1.379 . S
C1554 C1551 1.363 . S
C1554 N1552 1.356 1_556 S
C1555 C1549 1.363 . S
C1555 C1550 1.379 . S
C1555 N1553 1.356 . S
N1556 C1548 1.356 . S
N1556 H1562 0.984 1_556 S
N1556 H1563 0.984 . S
N1557 C1550 1.356 . S
N1557 H1560 0.984 . S
N1557 H1561 0.985 . S
H1558 N1553 0.984 . S
H1559 N1553 0.985 . S
H1560 N1557 0.984 . S
H1561 N1557 0.985 . S
H1562 N1556 0.984 1_554 S
H1563 N1556 0.984 . S
H1564 N1552 0.984 . S
H1565 N1552 0.985 . S
C1566 C1567 1.363 . S
C1566 C1572 1.379 . S
C1566 N1574 1.356 . S
C1567 C1566 1.363 . S
C1567 C1573 1.363 . S
C1568 C1569 1.363 . S
C1568 C1573 1.379 . S
C1568 N1575 1.356 1_556 S
C1569 C1568 1.363 . S
C1569 C1572 1.363 . S
N1570 C1572 1.356 . S
N1570 H1582 0.984 . S
N1570 H1583 0.985 . S
N1571 C1573 1.356 . S
N1571 H1576 0.984 . S
N1571 H1577 0.985 . S
C1572 C1566 1.379 . S
C1572 C1569 1.363 . S
C1572 N1570 1.356 . S
C1573 C1567 1.363 . S
C1573 C1568 1.379 . S
C1573 N1571 1.356 . S
N1574 C1566 1.356 . S
N1574 H1580 0.984 . S
N1574 H1581 0.984 . S
N1575 C1568 1.356 1_554 S
N1575 H1578 0.984 . S
N1575 H1579 0.985 . S
H1576 N1571 0.984 . S
H1577 N1571 0.985 . S
H1578 N1575 0.984 . S
H1579 N1575 0.985 . S
H1580 N1574 0.984 . S
H1581 N1574 0.984 . S
H1582 N1570 0.984 . S
H1583 N1570 0.985 . S
C1584 C1585 1.363 . S
C1584 C1590 1.379 . S
C1584 N1592 1.356 . S
C1585 C1584 1.363 . S
C1585 C1591 1.363 . S
C1586 C1587 1.363 . S
C1586 C1591 1.379 . S
C1586 N1593 1.356 1_556 S
C1587 C1586 1.363 . S
C1587 C1590 1.363 . S
N1588 C1590 1.356 . S
N1588 H1600 0.984 . S
N1588 H1601 0.985 . S
N1589 C1591 1.356 . S
N1589 H1594 0.984 . S
N1589 H1595 0.985 1_556 S
C1590 C1584 1.379 . S
C1590 C1587 1.363 . S
C1590 N1588 1.356 . S
C1591 C1585 1.363 . S
C1591 C1586 1.379 . S
C1591 N1589 1.356 . S
N1592 C1584 1.356 . S
N1592 H1598 0.984 . S
N1592 H1599 0.984 . S
N1593 C1586 1.356 1_554 S
N1593 H1596 0.984 . S
N1593 H1597 0.985 . S
H1594 N1589 0.984 . S
H1595 N1589 0.985 1_554 S
H1596 N1593 0.984 . S
H1597 N1593 0.985 . S
H1598 N1592 0.984 . S
H1599 N1592 0.984 . S
H1600 N1588 0.984 . S
H1601 N1588 0.985 . S
C1602 C1603 1.363 . S
C1602 C1608 1.379 . S
C1602 N1610 1.356 . S
C1603 C1602 1.363 . S
C1603 C1609 1.363 . S
C1604 C1605 1.363 . S
C1604 C1609 1.379 . S
C1604 N1611 1.356 . S
C1605 C1604 1.363 . S
C1605 C1608 1.363 . S
N1606 C1608 1.356 1_554 S
N1606 H1618 0.984 . S
N1606 H1619 0.985 . S
N1607 C1609 1.356 . S
N1607 H1612 0.984 . S
N1607 H1613 0.985 . S
C1608 C1602 1.379 . S
C1608 C1605 1.363 . S
C1608 N1606 1.356 1_556 S
C1609 C1603 1.363 . S
C1609 C1604 1.379 . S
C1609 N1607 1.356 . S
N1610 C1602 1.356 . S
N1610 H1616 0.984 1_556 S
N1610 H1617 0.984 . S
N1611 C1604 1.356 . S
N1611 H1614 0.984 . S
N1611 H1615 0.985 . S
H1612 N1607 0.984 . S
H1613 N1607 0.985 . S
H1614 N1611 0.984 . S
H1615 N1611 0.985 . S
H1616 N1610 0.984 1_554 S
H1617 N1610 0.984 . S
H1618 N1606 0.984 . S
H1619 N1606 0.985 . S
C1620 C1621 1.363 . S
C1620 C1626 1.379 . S
C1620 N1628 1.356 . S
C1621 C1620 1.363 . S
C1621 C1627 1.363 . S
C1622 C1623 1.363 . S
C1622 C1627 1.379 . S
C1622 N1629 1.356 1_556 S
C1623 C1622 1.363 . S
C1623 C1626 1.363 . S
N1624 C1626 1.356 . S
N1624 H1636 0.984 . S
N1624 H1637 0.985 . S
N1625 C1627 1.356 . S
N1625 H1630 0.984 . S
N1625 H1631 0.985 1_556 S
C1626 C1620 1.379 . S
C1626 C1623 1.363 . S
C1626 N1624 1.356 . S
C1627 C1621 1.363 . S
C1627 C1622 1.379 . S
C1627 N1625 1.356 . S
N1628 C1620 1.356 . S
N1628 H1634 0.984 . S
N1628 H1635 0.984 . S
N1629 C1622 1.356 1_554 S
N1629 H1632 0.984 . S
N1629 H1633 0.985 . S
H1630 N1625 0.984 . S
H1631 N1625 0.985 1_554 S
H1632 N1629 0.984 . S
H1633 N1629 0.985 . S
H1634 N1628 0.984 . S
H1635 N1628 0.984 . S
H1636 N1624 0.984 . S
H1637 N1624 0.985 . S
C1638 C1639 1.363 . S
C1638 C1644 1.379 . S
C1638 N1646 1.356 . S
C1639 C1638 1.363 . S
C1639 C1645 1.363 . S
C1640 C1641 1.363 . S
C1640 C1645 1.379 . S
C1640 N1647 1.356 . S
C1641 C1640 1.363 . S
C1641 C1644 1.363 . S
N1642 C1644 1.356 . S
N1642 H1654 0.984 1_554 S
N1642 H1655 0.985 . S
N1643 C1645 1.356 . S
N1643 H1648 0.984 . S
N1643 H1649 0.985 . S
C1644 C1638 1.379 . S
C1644 C1641 1.363 . S
C1644 N1642 1.356 . S
C1645 C1639 1.363 . S
C1645 C1640 1.379 . S
C1645 N1643 1.356 . S
N1646 C1638 1.356 . S
N1646 H1652 0.984 . S
N1646 H1653 0.984 . S
N1647 C1640 1.356 . S
N1647 H1650 0.984 . S
N1647 H1651 0.985 . S
H1648 N1643 0.984 . S
H1649 N1643 0.985 . S
H1650 N1647 0.984 . S
H1651 N1647 0.985 . S
H1652 N1646 0.984 . S
H1653 N1646 0.984 . S
H1654 N1642 0.984 1_556 S
H1655 N1642 0.985 . S
C1656 C1657 1.363 . S
C1656 C1662 1.379 . S
C1656 N1664 1.356 . S
C1657 C1656 1.363 . S
C1657 C1663 1.363 . S
C1658 C1659 1.363 . S
C1658 C1663 1.379 . S
C1658 N1665 1.356 . S
C1659 C1658 1.363 . S
C1659 C1662 1.363 . S
N1660 C1662 1.356 . S
N1660 H1672 0.984 . S
N1660 H1673 0.985 . S
N1661 C1663 1.356 . S
N1661 H1666 0.984 . S
N1661 H1667 0.985 . S
C1662 C1656 1.379 . S
C1662 C1659 1.363 . S
C1662 N1660 1.356 . S
C1663 C1657 1.363 . S
C1663 C1658 1.379 . S
C1663 N1661 1.356 . S
N1664 C1656 1.356 . S
N1664 H1670 0.984 . S
N1664 H1671 0.984 . S
N1665 C1658 1.356 . S
N1665 H1668 0.984 . S
N1665 H1669 0.985 . S
H1666 N1661 0.984 . S
H1667 N1661 0.985 . S
H1668 N1665 0.984 . S
H1669 N1665 0.985 . S
H1670 N1664 0.984 . S
H1671 N1664 0.984 . S
H1672 N1660 0.984 . S
H1673 N1660 0.985 . S
C1674 C1675 1.363 . S
C1674 C1680 1.379 . S
C1674 N1682 1.356 . S
C1675 C1674 1.363 . S
C1675 C1681 1.363 . S
C1676 C1677 1.363 . S
C1676 C1681 1.379 . S
C1676 N1683 1.356 . S
C1677 C1676 1.363 . S
C1677 C1680 1.363 . S
N1678 C1680 1.356 1_556 S
N1678 H1690 0.984 . S
N1678 H1691 0.985 . S
N1679 C1681 1.356 . S
N1679 H1684 0.984 . S
N1679 H1685 0.985 . S
C1680 C1674 1.379 . S
C1680 C1677 1.363 . S
C1680 N1678 1.356 1_554 S
C1681 C1675 1.363 . S
C1681 C1676 1.379 . S
C1681 N1679 1.356 . S
N1682 C1674 1.356 . S
N1682 H1688 0.984 1_554 S
N1682 H1689 0.984 . S
N1683 C1676 1.356 . S
N1683 H1686 0.984 . S
N1683 H1687 0.985 . S
H1684 N1679 0.984 . S
H1685 N1679 0.985 . S
H1686 N1683 0.984 . S
H1687 N1683 0.985 . S
H1688 N1682 0.984 1_556 S
H1689 N1682 0.984 . S
H1690 N1678 0.984 . S
H1691 N1678 0.985 . S
C1692 C1693 1.363 . S
C1692 C1698 1.379 . S
C1692 N1700 1.356 . S
C1693 C1692 1.363 . S
C1693 C1699 1.363 . S
C1694 C1695 1.363 . S
C1694 C1699 1.379 . S
C1694 N1701 1.356 . S
C1695 C1694 1.363 . S
C1695 C1698 1.363 . S
N1696 C1698 1.356 . S
N1696 H1708 0.984 . S
N1696 H1709 0.985 . S
N1697 C1699 1.356 . S
N1697 H1702 0.984 . S
N1697 H1703 0.985 . S
C1698 C1692 1.379 . S
C1698 C1695 1.363 . S
C1698 N1696 1.356 . S
C1699 C1693 1.363 . S
C1699 C1694 1.379 . S
C1699 N1697 1.356 . S
N1700 C1692 1.356 . S
N1700 H1706 0.984 . S
N1700 H1707 0.984 . S
N1701 C1694 1.356 . S
N1701 H1704 0.984 . S
N1701 H1705 0.985 . S
H1702 N1697 0.984 . S
H1703 N1697 0.985 . S
H1704 N1701 0.984 . S
H1705 N1701 0.985 . S
H1706 N1700 0.984 . S
H1707 N1700 0.984 . S
H1708 N1696 0.984 . S
H1709 N1696 0.985 . S
C1710 C1711 1.363 . S
C1710 C1716 1.379 . S
C1710 N1718 1.356 . S
C1711 C1710 1.363 . S
C1711 C1717 1.363 . S
C1712 C1713 1.363 . S
C1712 C1717 1.379 . S
C1712 N1719 1.356 . S
C1713 C1712 1.363 . S
C1713 C1716 1.363 . S
N1714 C1716 1.356 . S
N1714 H1726 0.984 . S
N1714 H1727 0.985 . S
N1715 C1717 1.356 . S
N1715 H1720 0.984 . S
N1715 H1721 0.985 . S
C1716 C1710 1.379 . S
C1716 C1713 1.363 . S
C1716 N1714 1.356 . S
C1717 C1711 1.363 . S
C1717 C1712 1.379 . S
C1717 N1715 1.356 . S
N1718 C1710 1.356 . S
N1718 H1724 0.984 . S
N1718 H1725 0.984 . S
N1719 C1712 1.356 . S
N1719 H1722 0.984 . S
N1719 H1723 0.985 . S
H1720 N1715 0.984 . S
H1721 N1715 0.985 . S
H1722 N1719 0.984 . S
H1723 N1719 0.985 . S
H1724 N1718 0.984 . S
H1725 N1718 0.984 . S
H1726 N1714 0.984 . S
H1727 N1714 0.985 . S
C1728 C1729 1.363 . S
C1728 C1734 1.379 . S
C1728 N1736 1.356 . S
C1729 C1728 1.363 . S
C1729 C1735 1.363 . S
C1730 C1731 1.363 . S
C1730 C1735 1.379 . S
C1730 N1737 1.356 . S
C1731 C1730 1.363 . S
C1731 C1734 1.363 . S
N1732 C1734 1.356 . S
N1732 H1744 0.984 . S
N1732 H1745 0.985 . S
N1733 C1735 1.356 . S
N1733 H1738 0.984 1_565 S
N1733 H1739 0.985 . S
C1734 C1728 1.379 . S
C1734 C1731 1.363 . S
C1734 N1732 1.356 . S
C1735 C1729 1.363 . S
C1735 C1730 1.379 . S
C1735 N1733 1.356 . S
N1736 C1728 1.356 . S
N1736 H1742 0.984 . S
N1736 H1743 0.984 . S
N1737 C1730 1.356 . S
N1737 H1740 0.984 . S
N1737 H1741 0.985 . S
H1738 N1733 0.984 1_545 S
H1739 N1733 0.985 . S
H1740 N1737 0.984 . S
H1741 N1737 0.985 . S
H1742 N1736 0.984 . S
H1743 N1736 0.984 . S
H1744 N1732 0.984 . S
H1745 N1732 0.985 . S
C1746 C1747 1.363 . S
C1746 C1752 1.379 . S
C1746 N1754 1.356 . S
C1747 C1746 1.363 . S
C1747 C1753 1.363 . S
C1748 C1749 1.363 . S
C1748 C1753 1.379 . S
C1748 N1755 1.356 . S
C1749 C1748 1.363 . S
C1749 C1752 1.363 . S
N1750 C1752 1.356 . S
N1750 H1762 0.984 . S
N1750 H1763 0.985 . S
N1751 C1753 1.356 . S
N1751 H1756 0.984 . S
N1751 H1757 0.985 . S
C1752 C1746 1.379 . S
C1752 C1749 1.363 . S
C1752 N1750 1.356 . S
C1753 C1747 1.363 . S
C1753 C1748 1.379 . S
C1753 N1751 1.356 . S
N1754 C1746 1.356 . S
N1754 H1760 0.984 . S
N1754 H1761 0.984 . S
N1755 C1748 1.356 . S
N1755 H1758 0.984 . S
N1755 H1759 0.985 . S
H1756 N1751 0.984 . S
H1757 N1751 0.985 . S
H1758 N1755 0.984 . S
H1759 N1755 0.985 . S
H1760 N1754 0.984 . S
H1761 N1754 0.984 . S
H1762 N1750 0.984 . S
H1763 N1750 0.985 . S
C1764 C1765 1.363 . S
C1764 C1770 1.379 . S
C1764 N1772 1.356 . S
C1765 C1764 1.363 . S
C1765 C1771 1.363 . S
C1766 C1767 1.363 . S
C1766 C1771 1.379 . S
C1766 N1773 1.356 . S
C1767 C1766 1.363 . S
C1767 C1770 1.363 . S
N1768 C1770 1.356 . S
N1768 H1780 0.984 . S
N1768 H1781 0.985 . S
N1769 C1771 1.356 . S
N1769 H1774 0.984 . S
N1769 H1775 0.985 . S
C1770 C1764 1.379 . S
C1770 C1767 1.363 . S
C1770 N1768 1.356 . S
C1771 C1765 1.363 . S
C1771 C1766 1.379 . S
C1771 N1769 1.356 . S
N1772 C1764 1.356 . S
N1772 H1778 0.984 . S
N1772 H1779 0.984 . S
N1773 C1766 1.356 . S
N1773 H1776 0.984 . S
N1773 H1777 0.985 . S
H1774 N1769 0.984 . S
H1775 N1769 0.985 . S
H1776 N1773 0.984 . S
H1777 N1773 0.985 . S
H1778 N1772 0.984 . S
H1779 N1772 0.984 . S
H1780 N1768 0.984 . S
H1781 N1768 0.985 . S
C1782 C1783 1.363 . S
C1782 C1788 1.379 . S
C1782 N1790 1.356 . S
C1783 C1782 1.363 . S
C1783 C1789 1.363 . S
C1784 C1785 1.363 . S
C1784 C1789 1.379 . S
C1784 N1791 1.356 . S
C1785 C1784 1.363 . S
C1785 C1788 1.363 . S
N1786 C1788 1.356 . S
N1786 H1798 0.984 . S
N1786 H1799 0.985 . S
N1787 C1789 1.356 . S
N1787 H1792 0.984 . S
N1787 H1793 0.985 . S
C1788 C1782 1.379 . S
C1788 C1785 1.363 . S
C1788 N1786 1.356 . S
C1789 C1783 1.363 . S
C1789 C1784 1.379 . S
C1789 N1787 1.356 . S
N1790 C1782 1.356 . S
N1790 H1796 0.984 . S
N1790 H1797 0.984 . S
N1791 C1784 1.356 . S
N1791 H1794 0.984 . S
N1791 H1795 0.985 . S
H1792 N1787 0.984 . S
H1793 N1787 0.985 . S
H1794 N1791 0.984 . S
H1795 N1791 0.985 . S
H1796 N1790 0.984 . S
H1797 N1790 0.984 . S
H1798 N1786 0.984 . S
H1799 N1786 0.985 . S
C1800 C1801 1.363 . S
C1800 C1806 1.379 . S
C1800 N1808 1.356 . S
C1801 C1800 1.363 . S
C1801 C1807 1.363 . S
C1802 C1803 1.363 . S
C1802 C1807 1.379 . S
C1802 N1809 1.356 . S
C1803 C1802 1.363 . S
C1803 C1806 1.363 . S
N1804 C1806 1.356 . S
N1804 H1816 0.984 . S
N1804 H1817 0.985 . S
N1805 C1807 1.356 . S
N1805 H1810 0.984 . S
N1805 H1811 0.985 . S
C1806 C1800 1.379 . S
C1806 C1803 1.363 . S
C1806 N1804 1.356 . S
C1807 C1801 1.363 . S
C1807 C1802 1.379 . S
C1807 N1805 1.356 . S
N1808 C1800 1.356 . S
N1808 H1814 0.984 . S
N1808 H1815 0.984 . S
N1809 C1802 1.356 . S
N1809 H1812 0.984 . S
N1809 H1813 0.985 . S
H1810 N1805 0.984 . S
H1811 N1805 0.985 . S
H1812 N1809 0.984 . S
H1813 N1809 0.985 . S
H1814 N1808 0.984 . S
H1815 N1808 0.984 . S
H1816 N1804 0.984 . S
H1817 N1804 0.985 . S
C1818 C1819 1.363 . S
C1818 C1824 1.379 . S
C1818 N1826 1.356 . S
C1819 C1818 1.363 . S
C1819 C1825 1.363 . S
C1820 C1821 1.363 . S
C1820 C1825 1.379 . S
C1820 N1827 1.356 . S
C1821 C1820 1.363 . S
C1821 C1824 1.363 . S
N1822 C1824 1.356 . S
N1822 H1834 0.984 . S
N1822 H1835 0.985 . S
N1823 C1825 1.356 . S
N1823 H1828 0.984 . S
N1823 H1829 0.985 . S
C1824 C1818 1.379 . S
C1824 C1821 1.363 . S
C1824 N1822 1.356 . S
C1825 C1819 1.363 . S
C1825 C1820 1.379 . S
C1825 N1823 1.356 . S
N1826 C1818 1.356 . S
N1826 H1832 0.984 . S
N1826 H1833 0.984 . S
N1827 C1820 1.356 . S
N1827 H1830 0.984 . S
N1827 H1831 0.985 . S
H1828 N1823 0.984 . S
H1829 N1823 0.985 . S
H1830 N1827 0.984 . S
H1831 N1827 0.985 . S
H1832 N1826 0.984 . S
H1833 N1826 0.984 . S
H1834 N1822 0.984 . S
H1835 N1822 0.985 . S
C1836 C1837 1.363 . S
C1836 C1842 1.379 . S
C1836 N1844 1.356 . S
C1837 C1836 1.363 . S
C1837 C1843 1.363 . S
C1838 C1839 1.363 . S
C1838 C1843 1.379 . S
C1838 N1845 1.356 . S
C1839 C1838 1.363 . S
C1839 C1842 1.363 . S
N1840 C1842 1.356 . S
N1840 H1852 0.984 . S
N1840 H1853 0.985 . S
N1841 C1843 1.356 . S
N1841 H1846 0.984 . S
N1841 H1847 0.985 . S
C1842 C1836 1.379 . S
C1842 C1839 1.363 . S
C1842 N1840 1.356 . S
C1843 C1837 1.363 . S
C1843 C1838 1.379 . S
C1843 N1841 1.356 . S
N1844 C1836 1.356 . S
N1844 H1850 0.984 . S
N1844 H1851 0.984 . S
N1845 C1838 1.356 . S
N1845 H1848 0.984 . S
N1845 H1849 0.985 . S
H1846 N1841 0.984 . S
H1847 N1841 0.985 . S
H1848 N1845 0.984 . S
H1849 N1845 0.985 . S
H1850 N1844 0.984 . S
H1851 N1844 0.984 . S
H1852 N1840 0.984 . S
H1853 N1840 0.985 . S
C1854 C1855 1.363 . S
C1854 C1860 1.379 . S
C1854 N1862 1.356 . S
C1855 C1854 1.363 . S
C1855 C1861 1.363 . S
C1856 C1857 1.363 . S
C1856 C1861 1.379 . S
C1856 N1863 1.356 . S
C1857 C1856 1.363 . S
C1857 C1860 1.363 . S
N1858 C1860 1.356 . S
N1858 H1870 0.984 . S
N1858 H1871 0.985 . S
N1859 C1861 1.356 . S
N1859 H1864 0.984 . S
N1859 H1865 0.985 . S
C1860 C1854 1.379 . S
C1860 C1857 1.363 . S
C1860 N1858 1.356 . S
C1861 C1855 1.363 . S
C1861 C1856 1.379 . S
C1861 N1859 1.356 . S
N1862 C1854 1.356 . S
N1862 H1868 0.984 . S
N1862 H1869 0.984 1_565 S
N1863 C1856 1.356 . S
N1863 H1866 0.984 . S
N1863 H1867 0.985 . S
H1864 N1859 0.984 . S
H1865 N1859 0.985 . S
H1866 N1863 0.984 . S
H1867 N1863 0.985 . S
H1868 N1862 0.984 . S
H1869 N1862 0.984 1_545 S
H1870 N1858 0.984 . S
H1871 N1858 0.985 . S
C1872 C1873 1.363 . S
C1872 C1878 1.379 . S
C1872 N1880 1.356 . S
C1873 C1872 1.363 . S
C1873 C1879 1.363 . S
C1874 C1875 1.363 . S
C1874 C1879 1.379 . S
C1874 N1881 1.356 . S
C1875 C1874 1.363 . S
C1875 C1878 1.363 . S
N1876 C1878 1.356 . S
N1876 H1888 0.984 . S
N1876 H1889 0.985 . S
N1877 C1879 1.356 . S
N1877 H1882 0.984 . S
N1877 H1883 0.985 . S
C1878 C1872 1.379 . S
C1878 C1875 1.363 . S
C1878 N1876 1.356 . S
C1879 C1873 1.363 . S
C1879 C1874 1.379 . S
C1879 N1877 1.356 . S
N1880 C1872 1.356 . S
N1880 H1886 0.984 . S
N1880 H1887 0.984 . S
N1881 C1874 1.356 . S
N1881 H1884 0.984 . S
N1881 H1885 0.985 . S
H1882 N1877 0.984 . S
H1883 N1877 0.985 . S
H1884 N1881 0.984 . S
H1885 N1881 0.985 . S
H1886 N1880 0.984 . S
H1887 N1880 0.984 . S
H1888 N1876 0.984 . S
H1889 N1876 0.985 . S
C1890 C1891 1.363 . S
C1890 C1896 1.379 . S
C1890 N1898 1.356 . S
C1891 C1890 1.363 . S
C1891 C1897 1.363 . S
C1892 C1893 1.363 . S
C1892 C1897 1.379 . S
C1892 N1899 1.356 . S
C1893 C1892 1.363 . S
C1893 C1896 1.363 . S
N1894 C1896 1.356 . S
N1894 H1906 0.984 . S
N1894 H1907 0.985 . S
N1895 C1897 1.356 . S
N1895 H1900 0.984 . S
N1895 H1901 0.985 . S
C1896 C1890 1.379 . S
C1896 C1893 1.363 . S
C1896 N1894 1.356 . S
C1897 C1891 1.363 . S
C1897 C1892 1.379 . S
C1897 N1895 1.356 . S
N1898 C1890 1.356 . S
N1898 H1904 0.984 . S
N1898 H1905 0.984 . S
N1899 C1892 1.356 . S
N1899 H1902 0.984 . S
N1899 H1903 0.985 . S
H1900 N1895 0.984 . S
H1901 N1895 0.985 . S
H1902 N1899 0.984 . S
H1903 N1899 0.985 . S
H1904 N1898 0.984 . S
H1905 N1898 0.984 . S
H1906 N1894 0.984 . S
H1907 N1894 0.985 . S
C1908 C1909 1.363 . S
C1908 C1914 1.379 . S
C1908 N1916 1.356 . S
C1909 C1908 1.363 . S
C1909 C1915 1.363 . S
C1910 C1911 1.363 . S
C1910 C1915 1.379 . S
C1910 N1917 1.356 . S
C1911 C1910 1.363 . S
C1911 C1914 1.363 . S
N1912 C1914 1.356 . S
N1912 H1924 0.984 . S
N1912 H1925 0.985 . S
N1913 C1915 1.356 . S
N1913 H1918 0.984 . S
N1913 H1919 0.985 . S
C1914 C1908 1.379 . S
C1914 C1911 1.363 . S
C1914 N1912 1.356 . S
C1915 C1909 1.363 . S
C1915 C1910 1.379 . S
C1915 N1913 1.356 . S
N1916 C1908 1.356 . S
N1916 H1922 0.984 . S
N1916 H1923 0.984 . S
N1917 C1910 1.356 . S
N1917 H1920 0.984 . S
N1917 H1921 0.985 . S
H1918 N1913 0.984 . S
H1919 N1913 0.985 . S
H1920 N1917 0.984 . S
H1921 N1917 0.985 . S
H1922 N1916 0.984 . S
H1923 N1916 0.984 . S
H1924 N1912 0.984 . S
H1925 N1912 0.985 . S
C1926 C1927 1.363 . S
C1926 C1932 1.379 . S
C1926 N1934 1.356 . S
C1927 C1926 1.363 . S
C1927 C1933 1.363 . S
C1928 C1929 1.363 . S
C1928 C1933 1.379 . S
C1928 N1935 1.356 . S
C1929 C1928 1.363 . S
C1929 C1932 1.363 . S
N1930 C1932 1.356 . S
N1930 H1942 0.984 . S
N1930 H1943 0.985 . S
N1931 C1933 1.356 . S
N1931 H1936 0.984 . S
N1931 H1937 0.985 . S
C1932 C1926 1.379 . S
C1932 C1929 1.363 . S
C1932 N1930 1.356 . S
C1933 C1927 1.363 . S
C1933 C1928 1.379 . S
C1933 N1931 1.356 . S
N1934 C1926 1.356 . S
N1934 H1940 0.984 . S
N1934 H1941 0.984 . S
N1935 C1928 1.356 . S
N1935 H1938 0.984 . S
N1935 H1939 0.985 . S
H1936 N1931 0.984 . S
H1937 N1931 0.985 . S
H1938 N1935 0.984 . S
H1939 N1935 0.985 . S
H1940 N1934 0.984 . S
H1941 N1934 0.984 . S
H1942 N1930 0.984 . S
H1943 N1930 0.985 . S
C1944 C1945 1.363 . S
C1944 C1950 1.379 . S
C1944 N1952 1.356 . S
C1945 C1944 1.363 . S
C1945 C1951 1.363 . S
C1946 C1947 1.363 . S
C1946 C1951 1.379 . S
C1946 N1953 1.356 . S
C1947 C1946 1.363 . S
C1947 C1950 1.363 . S
N1948 C1950 1.356 . S
N1948 H1960 0.984 . S
N1948 H1961 0.985 . S
N1949 C1951 1.356 . S
N1949 H1954 0.984 . S
N1949 H1955 0.985 . S
C1950 C1944 1.379 . S
C1950 C1947 1.363 . S
C1950 N1948 1.356 . S
C1951 C1945 1.363 . S
C1951 C1946 1.379 . S
C1951 N1949 1.356 . S
N1952 C1944 1.356 . S
N1952 H1958 0.984 . S
N1952 H1959 0.984 . S
N1953 C1946 1.356 . S
N1953 H1956 0.984 . S
N1953 H1957 0.985 . S
H1954 N1949 0.984 . S
H1955 N1949 0.985 . S
H1956 N1953 0.984 . S
H1957 N1953 0.985 . S
H1958 N1952 0.984 . S
H1959 N1952 0.984 . S
H1960 N1948 0.984 . S
H1961 N1948 0.985 . S
C1962 C1963 1.363 . S
C1962 C1968 1.379 . S
C1962 N1970 1.356 . S
C1963 C1962 1.363 . S
C1963 C1969 1.363 . S
C1964 C1965 1.363 . S
C1964 C1969 1.379 . S
C1964 N1971 1.356 . S
C1965 C1964 1.363 . S
C1965 C1968 1.363 . S
N1966 C1968 1.356 . S
N1966 H1978 0.984 . S
N1966 H1979 0.985 . S
N1967 C1969 1.356 . S
N1967 H1972 0.984 . S
N1967 H1973 0.985 . S
C1968 C1962 1.379 . S
C1968 C1965 1.363 . S
C1968 N1966 1.356 . S
C1969 C1963 1.363 . S
C1969 C1964 1.379 . S
C1969 N1967 1.356 . S
N1970 C1962 1.356 . S
N1970 H1976 0.984 . S
N1970 H1977 0.984 . S
N1971 C1964 1.356 . S
N1971 H1974 0.984 . S
N1971 H1975 0.985 . S
H1972 N1967 0.984 . S
H1973 N1967 0.985 . S
H1974 N1971 0.984 . S
H1975 N1971 0.985 . S
H1976 N1970 0.984 . S
H1977 N1970 0.984 . S
H1978 N1966 0.984 . S
H1979 N1966 0.985 . S
C1980 C1981 1.363 . S
C1980 C1986 1.379 . S
C1980 N1988 1.356 . S
C1981 C1980 1.363 . S
C1981 C1987 1.363 . S
C1982 C1983 1.363 . S
C1982 C1987 1.379 . S
C1982 N1989 1.356 . S
C1983 C1982 1.363 . S
C1983 C1986 1.363 . S
N1984 C1986 1.356 . S
N1984 H1996 0.984 . S
N1984 H1997 0.985 . S
N1985 C1987 1.356 . S
N1985 H1990 0.984 . S
N1985 H1991 0.985 . S
C1986 C1980 1.379 . S
C1986 C1983 1.363 . S
C1986 N1984 1.356 . S
C1987 C1981 1.363 . S
C1987 C1982 1.379 . S
C1987 N1985 1.356 . S
N1988 C1980 1.356 . S
N1988 H1994 0.984 . S
N1988 H1995 0.984 . S
N1989 C1982 1.356 . S
N1989 H1992 0.984 . S
N1989 H1993 0.985 . S
H1990 N1985 0.984 . S
H1991 N1985 0.985 . S
H1992 N1989 0.984 . S
H1993 N1989 0.985 . S
H1994 N1988 0.984 . S
H1995 N1988 0.984 . S
H1996 N1984 0.984 . S
H1997 N1984 0.985 . S
C1998 C1999 1.363 . S
C1998 C2004 1.379 . S
C1998 N2006 1.356 . S
C1999 C1998 1.363 . S
C1999 C2005 1.363 . S
C2000 C2001 1.363 . S
C2000 C2005 1.379 . S
C2000 N2007 1.356 . S
C2001 C2000 1.363 . S
C2001 C2004 1.363 . S
N2002 C2004 1.356 . S
N2002 H2014 0.984 . S
N2002 H2015 0.985 . S
N2003 C2005 1.356 . S
N2003 H2008 0.984 . S
N2003 H2009 0.985 . S
C2004 C1998 1.379 . S
C2004 C2001 1.363 . S
C2004 N2002 1.356 . S
C2005 C1999 1.363 . S
C2005 C2000 1.379 . S
C2005 N2003 1.356 . S
N2006 C1998 1.356 . S
N2006 H2012 0.984 . S
N2006 H2013 0.984 . S
N2007 C2000 1.356 . S
N2007 H2010 0.984 . S
N2007 H2011 0.985 . S
H2008 N2003 0.984 . S
H2009 N2003 0.985 . S
H2010 N2007 0.984 . S
H2011 N2007 0.985 . S
H2012 N2006 0.984 . S
H2013 N2006 0.984 . S
H2014 N2002 0.984 . S
H2015 N2002 0.985 . S
C2016 C2017 1.363 . S
C2016 C2022 1.379 . S
C2016 N2024 1.356 . S
C2017 C2016 1.363 . S
C2017 C2023 1.363 . S
C2018 C2019 1.363 . S
C2018 C2023 1.379 . S
C2018 N2025 1.356 . S
C2019 C2018 1.363 . S
C2019 C2022 1.363 . S
N2020 C2022 1.356 . S
N2020 H2032 0.984 . S
N2020 H2033 0.985 . S
N2021 C2023 1.356 . S
N2021 H2026 0.984 . S
N2021 H2027 0.985 . S
C2022 C2016 1.379 . S
C2022 C2019 1.363 . S
C2022 N2020 1.356 . S
C2023 C2017 1.363 . S
C2023 C2018 1.379 . S
C2023 N2021 1.356 . S
N2024 C2016 1.356 . S
N2024 H2030 0.984 . S
N2024 H2031 0.984 1_655 S
N2025 C2018 1.356 . S
N2025 H2028 0.984 . S
N2025 H2029 0.985 . S
H2026 N2021 0.984 . S
H2027 N2021 0.985 . S
H2028 N2025 0.984 . S
H2029 N2025 0.985 . S
H2030 N2024 0.984 . S
H2031 N2024 0.984 1_455 S
H2032 N2020 0.984 . S
H2033 N2020 0.985 . S
C2034 C2035 1.363 . S
C2034 C2040 1.379 . S
C2034 N2042 1.356 . S
C2035 C2034 1.363 . S
C2035 C2041 1.363 . S
C2036 C2037 1.363 . S
C2036 C2041 1.379 . S
C2036 N2043 1.356 . S
C2037 C2036 1.363 . S
C2037 C2040 1.363 . S
N2038 C2040 1.356 . S
N2038 H2050 0.984 . S
N2038 H2051 0.985 . S
N2039 C2041 1.356 . S
N2039 H2044 0.984 . S
N2039 H2045 0.985 . S
C2040 C2034 1.379 . S
C2040 C2037 1.363 . S
C2040 N2038 1.356 . S
C2041 C2035 1.363 . S
C2041 C2036 1.379 . S
C2041 N2039 1.356 . S
N2042 C2034 1.356 . S
N2042 H2048 0.984 . S
N2042 H2049 0.984 . S
N2043 C2036 1.356 . S
N2043 H2046 0.984 . S
N2043 H2047 0.985 . S
H2044 N2039 0.984 . S
H2045 N2039 0.985 . S
H2046 N2043 0.984 . S
H2047 N2043 0.985 . S
H2048 N2042 0.984 . S
H2049 N2042 0.984 . S
H2050 N2038 0.984 . S
H2051 N2038 0.985 . S
C2052 C2053 1.363 . S
C2052 C2058 1.379 . S
C2052 N2060 1.356 . S
C2053 C2052 1.363 . S
C2053 C2059 1.363 . S
C2054 C2055 1.363 . S
C2054 C2059 1.379 . S
C2054 N2061 1.356 . S
C2055 C2054 1.363 . S
C2055 C2058 1.363 . S
N2056 C2058 1.356 . S
N2056 H2068 0.984 . S
N2056 H2069 0.985 . S
N2057 C2059 1.356 . S
N2057 H2062 0.984 . S
N2057 H2063 0.985 . S
C2058 C2052 1.379 . S
C2058 C2055 1.363 . S
C2058 N2056 1.356 . S
C2059 C2053 1.363 . S
C2059 C2054 1.379 . S
C2059 N2057 1.356 . S
N2060 C2052 1.356 . S
N2060 H2066 0.984 . S
N2060 H2067 0.984 1_545 S
N2061 C2054 1.356 . S
N2061 H2064 0.984 . S
N2061 H2065 0.985 . S
H2062 N2057 0.984 . S
H2063 N2057 0.985 . S
H2064 N2061 0.984 . S
H2065 N2061 0.985 . S
H2066 N2060 0.984 . S
H2067 N2060 0.984 1_565 S
H2068 N2056 0.984 . S
H2069 N2056 0.985 . S
C2070 C2071 1.363 . S
C2070 C2076 1.379 . S
C2070 N2078 1.356 . S
C2071 C2070 1.363 . S
C2071 C2077 1.363 . S
C2072 C2073 1.363 . S
C2072 C2077 1.379 . S
C2072 N2079 1.356 . S
C2073 C2072 1.363 . S
C2073 C2076 1.363 . S
N2074 C2076 1.356 . S
N2074 H2086 0.984 . S
N2074 H2087 0.985 . S
N2075 C2077 1.356 . S
N2075 H2080 0.984 . S
N2075 H2081 0.985 . S
C2076 C2070 1.379 . S
C2076 C2073 1.363 . S
C2076 N2074 1.356 . S
C2077 C2071 1.363 . S
C2077 C2072 1.379 . S
C2077 N2075 1.356 . S
N2078 C2070 1.356 . S
N2078 H2084 0.984 . S
N2078 H2085 0.984 . S
N2079 C2072 1.356 . S
N2079 H2082 0.984 . S
N2079 H2083 0.985 . S
H2080 N2075 0.984 . S
H2081 N2075 0.985 . S
H2082 N2079 0.984 . S
H2083 N2079 0.985 . S
H2084 N2078 0.984 . S
H2085 N2078 0.984 . S
H2086 N2074 0.984 . S
H2087 N2074 0.985 . S
C2088 C2089 1.363 . S
C2088 C2094 1.379 . S
C2088 N2096 1.356 . S
C2089 C2088 1.363 . S
C2089 C2095 1.363 . S
C2090 C2091 1.363 . S
C2090 C2095 1.379 . S
C2090 N2097 1.356 . S
C2091 C2090 1.363 . S
C2091 C2094 1.363 . S
N2092 C2094 1.356 . S
N2092 H2104 0.984 . S
N2092 H2105 0.985 . S
N2093 C2095 1.356 . S
N2093 H2098 0.984 . S
N2093 H2099 0.985 . S
C2094 C2088 1.379 . S
C2094 C2091 1.363 . S
C2094 N2092 1.356 . S
C2095 C2089 1.363 . S
C2095 C2090 1.379 . S
C2095 N2093 1.356 . S
N2096 C2088 1.356 . S
N2096 H2102 0.984 . S
N2096 H2103 0.984 . S
N2097 C2090 1.356 . S
N2097 H2100 0.984 . S
N2097 H2101 0.985 . S
H2098 N2093 0.984 . S
H2099 N2093 0.985 . S
H2100 N2097 0.984 . S
H2101 N2097 0.985 . S
H2102 N2096 0.984 . S
H2103 N2096 0.984 . S
H2104 N2092 0.984 . S
H2105 N2092 0.985 . S
C2106 C2107 1.363 . S
C2106 C2112 1.379 . S
C2106 N2114 1.356 . S
C2107 C2106 1.363 . S
C2107 C2113 1.363 . S
C2108 C2109 1.363 . S
C2108 C2113 1.379 . S
C2108 N2115 1.356 . S
C2109 C2108 1.363 . S
C2109 C2112 1.363 . S
N2110 C2112 1.356 . S
N2110 H2122 0.984 . S
N2110 H2123 0.985 . S
N2111 C2113 1.356 . S
N2111 H2116 0.984 . S
N2111 H2117 0.985 . S
C2112 C2106 1.379 . S
C2112 C2109 1.363 . S
C2112 N2110 1.356 . S
C2113 C2107 1.363 . S
C2113 C2108 1.379 . S
C2113 N2111 1.356 . S
N2114 C2106 1.356 . S
N2114 H2120 0.984 . S
N2114 H2121 0.984 . S
N2115 C2108 1.356 . S
N2115 H2118 0.984 . S
N2115 H2119 0.985 . S
H2116 N2111 0.984 . S
H2117 N2111 0.985 . S
H2118 N2115 0.984 . S
H2119 N2115 0.985 . S
H2120 N2114 0.984 . S
H2121 N2114 0.984 . S
H2122 N2110 0.984 . S
H2123 N2110 0.985 . S
C2124 C2125 1.363 . S
C2124 C2130 1.379 . S
C2124 N2132 1.356 . S
C2125 C2124 1.363 . S
C2125 C2131 1.363 . S
C2126 C2127 1.363 . S
C2126 C2131 1.379 . S
C2126 N2133 1.356 . S
C2127 C2126 1.363 . S
C2127 C2130 1.363 . S
N2128 C2130 1.356 1_545 S
N2128 H2140 0.984 . S
N2128 H2141 0.985 . S
N2129 C2131 1.356 . S
N2129 H2134 0.984 . S
N2129 H2135 0.985 . S
C2130 C2124 1.379 . S
C2130 C2127 1.363 . S
C2130 N2128 1.356 1_565 S
C2131 C2125 1.363 . S
C2131 C2126 1.379 . S
C2131 N2129 1.356 . S
N2132 C2124 1.356 . S
N2132 H2138 0.984 . S
N2132 H2139 0.984 . S
N2133 C2126 1.356 . S
N2133 H2136 0.984 . S
N2133 H2137 0.985 . S
H2134 N2129 0.984 . S
H2135 N2129 0.985 . S
H2136 N2133 0.984 . S
H2137 N2133 0.985 . S
H2138 N2132 0.984 . S
H2139 N2132 0.984 . S
H2140 N2128 0.984 . S
H2141 N2128 0.985 . S
C2142 C2143 1.363 . S
C2142 C2148 1.379 . S
C2142 N2150 1.356 . S
C2143 C2142 1.363 . S
C2143 C2149 1.363 . S
C2144 C2145 1.363 . S
C2144 C2149 1.379 . S
C2144 N2151 1.356 . S
C2145 C2144 1.363 . S
C2145 C2148 1.363 . S
N2146 C2148 1.356 . S
N2146 H2158 0.984 . S
N2146 H2159 0.985 . S
N2147 C2149 1.356 . S
N2147 H2152 0.984 . S
N2147 H2153 0.985 . S
C2148 C2142 1.379 . S
C2148 C2145 1.363 . S
C2148 N2146 1.356 . S
C2149 C2143 1.363 . S
C2149 C2144 1.379 . S
C2149 N2147 1.356 . S
N2150 C2142 1.356 . S
N2150 H2156 0.984 . S
N2150 H2157 0.984 . S
N2151 C2144 1.356 . S
N2151 H2154 0.984 . S
N2151 H2155 0.985 . S
H2152 N2147 0.984 . S
H2153 N2147 0.985 . S
H2154 N2151 0.984 . S
H2155 N2151 0.985 . S
H2156 N2150 0.984 . S
H2157 N2150 0.984 . S
H2158 N2146 0.984 . S
H2159 N2146 0.985 . S
C2160 C2161 1.363 . S
C2160 C2166 1.379 . S
C2160 N2168 1.356 . S
C2161 C2160 1.363 . S
C2161 C2167 1.363 . S
C2162 C2163 1.363 . S
C2162 C2167 1.379 . S
C2162 N2169 1.356 . S
C2163 C2162 1.363 . S
C2163 C2166 1.363 . S
N2164 C2166 1.356 . S
N2164 H2176 0.984 . S
N2164 H2177 0.985 . S
N2165 C2167 1.356 . S
N2165 H2170 0.984 . S
N2165 H2171 0.985 . S
C2166 C2160 1.379 . S
C2166 C2163 1.363 . S
C2166 N2164 1.356 . S
C2167 C2161 1.363 . S
C2167 C2162 1.379 . S
C2167 N2165 1.356 . S
N2168 C2160 1.356 . S
N2168 H2174 0.984 . S
N2168 H2175 0.984 . S
N2169 C2162 1.356 . S
N2169 H2172 0.984 . S
N2169 H2173 0.985 . S
H2170 N2165 0.984 . S
H2171 N2165 0.985 . S
H2172 N2169 0.984 . S
H2173 N2169 0.985 . S
H2174 N2168 0.984 . S
H2175 N2168 0.984 . S
H2176 N2164 0.984 . S
H2177 N2164 0.985 . S
C2178 C2179 1.363 . S
C2178 C2184 1.379 . S
C2178 N2186 1.346 1_655 S
C2179 C2178 1.363 . S
C2179 C2185 1.363 . S
C2180 C2181 1.363 . S
C2180 C2185 1.379 . S
C2180 N2187 1.356 . S
C2181 C2180 1.363 . S
C2181 C2184 1.363 . S
N2182 C2184 1.356 1_455 S
N2182 H2194 0.984 . S
N2182 H2195 0.985 . S
N2183 C2185 1.356 . S
N2183 H2188 0.984 . S
N2183 H2189 0.985 . S
C2184 C2178 1.379 . S
C2184 C2181 1.363 . S
C2184 N2182 1.356 1_655 S
C2185 C2179 1.363 . S
C2185 C2180 1.379 . S
C2185 N2183 1.356 . S
N2186 C2178 1.346 1_455 S
N2186 H2192 1.009 . S
N2186 H2193 0.972 1_455 S
N2187 C2180 1.356 . S
N2187 H2190 0.984 . S
N2187 H2191 0.985 . S
H2188 N2183 0.984 . S
H2189 N2183 0.985 . S
H2190 N2187 0.984 . S
H2191 N2187 0.985 . S
H2192 N2186 1.009 . S
H2193 N2186 0.972 1_655 S
H2194 N2182 0.984 . S
H2195 N2182 0.985 . S
C2196 C2197 1.363 . S
C2196 C2202 1.379 . S
C2196 N2204 1.356 . S
C2197 C2196 1.363 . S
C2197 C2203 1.363 . S
C2198 C2199 1.363 . S
C2198 C2203 1.379 . S
C2198 N2205 1.356 . S
C2199 C2198 1.363 . S
C2199 C2202 1.363 . S
N2200 C2202 1.356 . S
N2200 H2212 0.984 . S
N2200 H2213 0.985 . S
N2201 C2203 1.356 . S
N2201 H2206 0.984 . S
N2201 H2207 0.985 . S
C2202 C2196 1.379 . S
C2202 C2199 1.363 . S
C2202 N2200 1.356 . S
C2203 C2197 1.363 . S
C2203 C2198 1.379 . S
C2203 N2201 1.356 . S
N2204 C2196 1.356 . S
N2204 H2210 0.984 . S
N2204 H2211 0.984 . S
N2205 C2198 1.356 . S
N2205 H2208 0.984 . S
N2205 H2209 0.985 . S
H2206 N2201 0.984 . S
H2207 N2201 0.985 . S
H2208 N2205 0.984 . S
H2209 N2205 0.985 . S
H2210 N2204 0.984 . S
H2211 N2204 0.984 . S
H2212 N2200 0.984 . S
H2213 N2200 0.985 . S
C2214 C2215 1.363 . S
C2214 C2220 1.379 . S
C2214 N2222 1.356 . S
C2215 C2214 1.363 . S
C2215 C2221 1.363 . S
C2216 C2217 1.363 . S
C2216 C2221 1.379 . S
C2216 N2223 1.356 . S
C2217 C2216 1.363 . S
C2217 C2220 1.363 . S
N2218 C2220 1.356 . S
N2218 H2230 0.984 . S
N2218 H2231 0.985 . S
N2219 C2221 1.356 . S
N2219 H2224 0.984 . S
N2219 H2225 0.985 . S
C2220 C2214 1.379 . S
C2220 C2217 1.363 . S
C2220 N2218 1.356 . S
C2221 C2215 1.363 . S
C2221 C2216 1.379 . S
C2221 N2219 1.356 . S
N2222 C2214 1.356 . S
N2222 H2228 0.984 . S
N2222 H2229 0.984 . S
N2223 C2216 1.356 . S
N2223 H2226 0.984 . S
N2223 H2227 0.985 . S
H2224 N2219 0.984 . S
H2225 N2219 0.985 . S
H2226 N2223 0.984 . S
H2227 N2223 0.985 . S
H2228 N2222 0.984 . S
H2229 N2222 0.984 . S
H2230 N2218 0.984 . S
H2231 N2218 0.985 . S
C2232 C2233 1.363 . S
C2232 C2238 1.379 . S
C2232 N2240 1.356 . S
C2233 C2232 1.363 . S
C2233 C2239 1.363 . S
C2234 C2235 1.363 . S
C2234 C2239 1.379 . S
C2234 N2241 1.356 . S
C2235 C2234 1.363 . S
C2235 C2238 1.363 . S
N2236 C2238 1.356 . S
N2236 H2248 0.984 . S
N2236 H2249 0.985 . S
N2237 C2239 1.356 . S
N2237 H2242 0.984 . S
N2237 H2243 0.985 . S
C2238 C2232 1.379 . S
C2238 C2235 1.363 . S
C2238 N2236 1.356 . S
C2239 C2233 1.363 . S
C2239 C2234 1.379 . S
C2239 N2237 1.356 . S
N2240 C2232 1.356 . S
N2240 H2246 0.984 . S
N2240 H2247 0.984 . S
N2241 C2234 1.356 . S
N2241 H2244 0.984 . S
N2241 H2245 0.985 . S
H2242 N2237 0.984 . S
H2243 N2237 0.985 . S
H2244 N2241 0.984 . S
H2245 N2241 0.985 . S
H2246 N2240 0.984 . S
H2247 N2240 0.984 . S
H2248 N2236 0.984 . S
H2249 N2236 0.985 . S
C2250 C2251 1.363 . S
C2250 C2256 1.379 . S
C2250 N2258 1.356 . S
C2251 C2250 1.363 . S
C2251 C2257 1.363 . S
C2252 C2253 1.363 . S
C2252 C2257 1.379 . S
C2252 N2259 1.356 . S
C2253 C2252 1.363 . S
C2253 C2256 1.363 . S
N2254 C2256 1.356 . S
N2254 H2266 0.984 . S
N2254 H2267 0.985 . S
N2255 C2257 1.356 . S
N2255 H2260 0.984 . S
N2255 H2261 0.985 . S
C2256 C2250 1.379 . S
C2256 C2253 1.363 . S
C2256 N2254 1.356 . S
C2257 C2251 1.363 . S
C2257 C2252 1.379 . S
C2257 N2255 1.356 . S
N2258 C2250 1.356 . S
N2258 H2264 0.984 . S
N2258 H2265 0.984 . S
N2259 C2252 1.356 . S
N2259 H2262 0.984 . S
N2259 H2263 0.985 . S
H2260 N2255 0.984 . S
H2261 N2255 0.985 . S
H2262 N2259 0.984 . S
H2263 N2259 0.985 . S
H2264 N2258 0.984 . S
H2265 N2258 0.984 . S
H2266 N2254 0.984 . S
H2267 N2254 0.985 . S
C2268 C2269 1.363 . S
C2268 C2274 1.379 . S
C2268 N2276 1.356 . S
C2269 C2268 1.363 . S
C2269 C2275 1.363 . S
C2270 C2271 1.363 . S
C2270 C2275 1.379 . S
C2270 N2277 1.356 . S
C2271 C2270 1.363 . S
C2271 C2274 1.363 . S
N2272 C2274 1.356 . S
N2272 H2284 0.984 . S
N2272 H2285 0.985 . S
N2273 C2275 1.356 . S
N2273 H2278 0.984 . S
N2273 H2279 0.985 . S
C2274 C2268 1.379 . S
C2274 C2271 1.363 . S
C2274 N2272 1.356 . S
C2275 C2269 1.363 . S
C2275 C2270 1.379 . S
C2275 N2273 1.356 . S
N2276 C2268 1.356 . S
N2276 H2282 0.984 . S
N2276 H2283 0.984 . S
N2277 C2270 1.356 . S
N2277 H2280 0.984 . S
N2277 H2281 0.985 . S
H2278 N2273 0.984 . S
H2279 N2273 0.985 . S
H2280 N2277 0.984 . S
H2281 N2277 0.985 . S
H2282 N2276 0.984 . S
H2283 N2276 0.984 . S
H2284 N2272 0.984 . S
H2285 N2272 0.985 . S
C2286 C2287 1.363 . S
C2286 C2292 1.379 . S
C2286 N2294 1.356 . S
C2287 C2286 1.363 . S
C2287 C2293 1.363 . S
C2288 C2289 1.363 . S
C2288 C2293 1.379 . S
C2288 N2295 1.356 . S
C2289 C2288 1.363 . S
C2289 C2292 1.363 . S
N2290 C2292 1.356 . S
N2290 H2302 0.984 . S
N2290 H2303 0.985 . S
N2291 C2293 1.356 . S
N2291 H2296 0.984 . S
N2291 H2297 0.985 . S
C2292 C2286 1.379 . S
C2292 C2289 1.363 . S
C2292 N2290 1.356 . S
C2293 C2287 1.363 . S
C2293 C2288 1.379 . S
C2293 N2291 1.356 . S
N2294 C2286 1.356 . S
N2294 H2300 0.984 . S
N2294 H2301 0.984 . S
N2295 C2288 1.356 . S
N2295 H2298 0.984 . S
N2295 H2299 0.985 . S
H2296 N2291 0.984 . S
H2297 N2291 0.985 . S
H2298 N2295 0.984 . S
H2299 N2295 0.985 . S
H2300 N2294 0.984 . S
H2301 N2294 0.984 . S
H2302 N2290 0.984 . S
H2303 N2290 0.985 . S
C2304 C2305 1.363 . S
C2304 C2310 1.379 . S
C2304 N2312 1.356 . S
C2305 C2304 1.363 . S
C2305 C2311 1.363 . S
C2306 C2307 1.363 . S
C2306 C2311 1.379 . S
C2306 N2313 1.356 . S
C2307 C2306 1.363 . S
C2307 C2310 1.363 . S
N2308 C2310 1.356 . S
N2308 H2320 0.984 . S
N2308 H2321 0.985 . S
N2309 C2311 1.356 . S
N2309 H2314 0.984 . S
N2309 H2315 0.985 . S
C2310 C2304 1.379 . S
C2310 C2307 1.363 . S
C2310 N2308 1.356 . S
C2311 C2305 1.363 . S
C2311 C2306 1.379 . S
C2311 N2309 1.356 . S
N2312 C2304 1.356 . S
N2312 H2318 0.984 . S
N2312 H2319 0.984 . S
N2313 C2306 1.356 . S
N2313 H2316 0.984 . S
N2313 H2317 0.985 . S
H2314 N2309 0.984 . S
H2315 N2309 0.985 . S
H2316 N2313 0.984 . S
H2317 N2313 0.985 . S
H2318 N2312 0.984 . S
H2319 N2312 0.984 . S
H2320 N2308 0.984 . S
H2321 N2308 0.985 . S
C2322 C2323 1.363 . S
C2322 C2328 1.379 . S
C2322 N2330 1.356 . S
C2323 C2322 1.363 . S
C2323 C2329 1.363 . S
C2324 C2325 1.363 . S
C2324 C2329 1.379 . S
C2324 N2331 1.356 . S
C2325 C2324 1.363 . S
C2325 C2328 1.363 . S
N2326 C2328 1.356 . S
N2326 H2338 0.984 . S
N2326 H2339 0.985 . S
N2327 C2329 1.356 . S
N2327 H2332 0.984 . S
N2327 H2333 0.985 . S
C2328 C2322 1.379 . S
C2328 C2325 1.363 . S
C2328 N2326 1.356 . S
C2329 C2323 1.363 . S
C2329 C2324 1.379 . S
C2329 N2327 1.356 . S
N2330 C2322 1.356 . S
N2330 H2336 0.984 . S
N2330 H2337 0.984 . S
N2331 C2324 1.356 . S
N2331 H2334 0.984 . S
N2331 H2335 0.985 . S
H2332 N2327 0.984 . S
H2333 N2327 0.985 . S
H2334 N2331 0.984 . S
H2335 N2331 0.985 . S
H2336 N2330 0.984 . S
H2337 N2330 0.984 . S
H2338 N2326 0.984 . S
H2339 N2326 0.985 . S
C2340 C2341 1.363 . S
C2340 C2346 1.379 . S
C2340 N2348 1.356 . S
C2341 C2340 1.363 . S
C2341 C2347 1.363 . S
C2342 C2343 1.363 . S
C2342 C2347 1.379 . S
C2342 N2349 1.356 . S
C2343 C2342 1.363 . S
C2343 C2346 1.363 . S
N2344 C2346 1.356 . S
N2344 H2356 0.984 . S
N2344 H2357 0.985 . S
N2345 C2347 1.356 . S
N2345 H2350 0.984 . S
N2345 H2351 0.985 . S
C2346 C2340 1.379 . S
C2346 C2343 1.363 . S
C2346 N2344 1.356 . S
C2347 C2341 1.363 . S
C2347 C2342 1.379 . S
C2347 N2345 1.356 . S
N2348 C2340 1.356 . S
N2348 H2354 0.984 . S
N2348 H2355 0.984 . S
N2349 C2342 1.356 . S
N2349 H2352 0.984 . S
N2349 H2353 0.985 . S
H2350 N2345 0.984 . S
H2351 N2345 0.985 . S
H2352 N2349 0.984 . S
H2353 N2349 0.985 . S
H2354 N2348 0.984 . S
H2355 N2348 0.984 . S
H2356 N2344 0.984 . S
H2357 N2344 0.985 . S
C2358 C2359 1.363 . S
C2358 C2364 1.379 . S
C2358 N2366 1.356 . S
C2359 C2358 1.363 . S
C2359 C2365 1.363 . S
C2360 C2361 1.363 . S
C2360 C2365 1.379 . S
C2360 N2367 1.356 . S
C2361 C2360 1.363 . S
C2361 C2364 1.363 . S
N2362 C2364 1.356 . S
N2362 H2374 0.984 . S
N2362 H2375 0.985 . S
N2363 C2365 1.356 . S
N2363 H2368 0.984 . S
N2363 H2369 0.985 . S
C2364 C2358 1.379 . S
C2364 C2361 1.363 . S
C2364 N2362 1.356 . S
C2365 C2359 1.363 . S
C2365 C2360 1.379 . S
C2365 N2363 1.356 . S
N2366 C2358 1.356 . S
N2366 H2372 0.984 . S
N2366 H2373 0.984 . S
N2367 C2360 1.356 . S
N2367 H2370 0.984 . S
N2367 H2371 0.985 . S
H2368 N2363 0.984 . S
H2369 N2363 0.985 . S
H2370 N2367 0.984 . S
H2371 N2367 0.985 . S
H2372 N2366 0.984 . S
H2373 N2366 0.984 . S
H2374 N2362 0.984 . S
H2375 N2362 0.985 . S
C2376 C2377 1.363 . S
C2376 C2382 1.379 . S
C2376 N2384 1.356 . S
C2377 C2376 1.363 . S
C2377 C2383 1.363 . S
C2378 C2379 1.363 . S
C2378 C2383 1.379 . S
C2378 N2385 1.356 . S
C2379 C2378 1.363 . S
C2379 C2382 1.363 . S
N2380 C2382 1.356 . S
N2380 H2392 0.984 . S
N2380 H2393 0.985 . S
N2381 C2383 1.356 . S
N2381 H2386 0.984 . S
N2381 H2387 0.985 . S
C2382 C2376 1.379 . S
C2382 C2379 1.363 . S
C2382 N2380 1.356 . S
C2383 C2377 1.363 . S
C2383 C2378 1.379 . S
C2383 N2381 1.356 . S
N2384 C2376 1.356 . S
N2384 H2390 0.984 . S
N2384 H2391 0.984 . S
N2385 C2378 1.356 . S
N2385 H2388 0.984 . S
N2385 H2389 0.985 . S
H2386 N2381 0.984 . S
H2387 N2381 0.985 . S
H2388 N2385 0.984 . S
H2389 N2385 0.985 . S
H2390 N2384 0.984 . S
H2391 N2384 0.984 . S
H2392 N2380 0.984 . S
H2393 N2380 0.985 . S
C2394 C2395 1.363 . S
C2394 C2400 1.379 . S
C2394 N2402 1.356 . S
C2395 C2394 1.363 . S
C2395 C2401 1.363 . S
C2396 C2397 1.363 . S
C2396 C2401 1.379 . S
C2396 N2403 1.356 . S
C2397 C2396 1.363 . S
C2397 C2400 1.363 . S
N2398 C2400 1.356 . S
N2398 H2410 0.984 . S
N2398 H2411 0.985 . S
N2399 C2401 1.356 . S
N2399 H2404 0.984 . S
N2399 H2405 0.985 . S
C2400 C2394 1.379 . S
C2400 C2397 1.363 . S
C2400 N2398 1.356 . S
C2401 C2395 1.363 . S
C2401 C2396 1.379 . S
C2401 N2399 1.356 . S
N2402 C2394 1.356 . S
N2402 H2408 0.984 . S
N2402 H2409 0.984 . S
N2403 C2396 1.356 . S
N2403 H2406 0.984 . S
N2403 H2407 0.985 . S
H2404 N2399 0.984 . S
H2405 N2399 0.985 . S
H2406 N2403 0.984 . S
H2407 N2403 0.985 . S
H2408 N2402 0.984 . S
H2409 N2402 0.984 . S
H2410 N2398 0.984 . S
H2411 N2398 0.985 . S
C2412 C2413 1.363 . S
C2412 C2418 1.379 . S
C2412 N2420 1.356 . S
C2413 C2412 1.363 . S
C2413 C2419 1.363 . S
C2414 C2415 1.363 . S
C2414 C2419 1.379 . S
C2414 N2421 1.356 . S
C2415 C2414 1.363 . S
C2415 C2418 1.363 . S
N2416 C2418 1.356 . S
N2416 H2428 0.984 . S
N2416 H2429 0.985 . S
N2417 C2419 1.356 . S
N2417 H2422 0.984 . S
N2417 H2423 0.985 . S
C2418 C2412 1.379 . S
C2418 C2415 1.363 . S
C2418 N2416 1.356 . S
C2419 C2413 1.363 . S
C2419 C2414 1.379 . S
C2419 N2417 1.356 . S
N2420 C2412 1.356 . S
N2420 H2426 0.984 . S
N2420 H2427 0.984 . S
N2421 C2414 1.356 . S
N2421 H2424 0.984 . S
N2421 H2425 0.985 . S
H2422 N2417 0.984 . S
H2423 N2417 0.985 . S
H2424 N2421 0.984 . S
H2425 N2421 0.985 . S
H2426 N2420 0.984 . S
H2427 N2420 0.984 . S
H2428 N2416 0.984 . S
H2429 N2416 0.985 . S
C2430 C2431 1.363 . S
C2430 C2436 1.379 . S
C2430 N2438 1.356 . S
C2431 C2430 1.363 . S
C2431 C2437 1.363 . S
C2432 C2433 1.363 . S
C2432 C2437 1.379 . S
C2432 N2439 1.356 . S
C2433 C2432 1.363 . S
C2433 C2436 1.363 . S
N2434 C2436 1.356 . S
N2434 H2446 0.984 . S
N2434 H2447 0.985 . S
N2435 C2437 1.356 . S
N2435 H2440 0.984 . S
N2435 H2441 0.985 . S
C2436 C2430 1.379 . S
C2436 C2433 1.363 . S
C2436 N2434 1.356 . S
C2437 C2431 1.363 . S
C2437 C2432 1.379 . S
C2437 N2435 1.356 . S
N2438 C2430 1.356 . S
N2438 H2444 0.984 . S
N2438 H2445 0.984 . S
N2439 C2432 1.356 . S
N2439 H2442 0.984 . S
N2439 H2443 0.985 . S
H2440 N2435 0.984 . S
H2441 N2435 0.985 . S
H2442 N2439 0.984 . S
H2443 N2439 0.985 . S
H2444 N2438 0.984 . S
H2445 N2438 0.984 . S
H2446 N2434 0.984 . S
H2447 N2434 0.985 . S
C1477 C522 1.503 . S
C1479 C776 1.414 . S
C1495 C562 1.487 . S
C1497 C860 1.412 . S
C1513 C495 1.522 . S
C1515 C954 1.467 . S
C1531 C455 1.474 . S
C1533 C870 1.424 . S
C1551 C944 1.352 . S
C1549 C362 1.432 . S
C1567 C402 1.495 . S
C1569 C786 1.414 . S
C1587 C787 1.438 . S
C1585 C442 1.476 . S
C1605 C871 1.397 . S
C1603 C375 1.462 . S
C1621 C415 1.528 . S
C1623 C963 1.466 . S
C1639 C535 1.478 . S
C1641 C879 1.423 . S
C1657 C575 1.407 . S
C1659 C955 1.336 . S
C1677 C795 1.438 . S
C1675 C482 1.458 . S
C1695 C1028 1.414 . S
C1693 C42 1.502 . S
C1711 C82 1.487 . S
C1713 C1112 1.412 . S
C1729 C15 1.523 1_565 S
C1731 C1206 1.467 . S
C1747 C695 1.474 . S
C1749 C1122 1.424 . S
C1765 C602 1.433 . S
C1767 C1196 1.353 . S
C1783 C642 1.496 . S
C1785 C1038 1.414 . S
C1801 C682 1.476 . S
C1803 C1039 1.438 . S
C1819 C615 1.462 . S
C1821 C1123 1.397 . S
C1839 C1215 1.466 . S
C1837 C655 1.528 . S
C1855 C55 1.478 . S
C1857 C1131 1.423 . S
C1875 C1207 1.336 . S
C1873 C95 1.407 . S
C1891 C2 1.458 . S
C1893 C1047 1.438 . S
C1911 C1280 1.414 . S
C1909 C282 1.502 . S
C1927 C322 1.487 . S
C1929 C1364 1.413 . S
C1947 C1458 1.467 . S
C1945 C255 1.523 . S
C1965 C1374 1.424 . S
C1963 C215 1.474 . S
C1983 C1448 1.352 . S
C1981 C122 1.432 . S
C1999 C162 1.496 . S
C2001 C1290 1.414 . S
C2017 C202 1.476 . S
C2019 C1291 1.438 . S
C2035 C135 1.461 . S
C2037 C1375 1.396 . S
C2055 C1467 1.466 . S
C2053 C175 1.529 . S
C2071 C295 1.478 . S
C2073 C1383 1.422 . S
C2089 C335 1.407 . S
C2091 C1459 1.336 . S
C2107 C242 1.458 . S
C2109 C1299 1.438 . S
C2125 C621 1.442 . S
C2127 C783 1.351 . S
C2145 C867 1.359 . S
C2143 C661 1.513 . S
C2161 C701 1.490 . S
C2163 C960 1.364 . S
C2179 C261 1.509 . S
C2181 C876 1.371 . S
C2197 C301 1.479 . S
C2199 C951 1.351 . S
C2217 C792 1.354 . S
C2215 C341 1.442 . S
C2233 C141 1.442 . S
C2235 C1035 1.351 . S
C2251 C181 1.512 . S
C2253 C1119 1.359 . S
C2269 C221 1.491 . S
C2271 C1212 1.364 . S
C2287 C501 1.509 . S
C2289 C1128 1.371 . S
C2307 C1203 1.351 . S
C2305 C541 1.479 . S
C2323 C581 1.442 . S
C2325 C1044 1.354 . S
C2341 C381 1.441 . S
C2343 C1287 1.351 . S
C2359 C421 1.513 . S
C2361 C1371 1.359 . S
C2379 C1464 1.364 . S
C2377 C461 1.491 . S
C2395 C21 1.509 . S
C2397 C1380 1.371 . S
C2413 C61 1.478 . S
C2415 C1455 1.351 . S
C2431 C101 1.443 . S
C2433 C1296 1.354 . S
