# Generated by pormake.
# Topology ibd, (4,6)-cn, num edge types: 1
# Building blocks:
#     Node 0, Type 0, BuildingBlock: QUQFOY_clean_sbu_3, # of connection points: 4
#     Node 1, Type 0, BuildingBlock: QUQFOY_clean_sbu_3, # of connection points: 4
#     Node 2, Type 0, BuildingBlock: QUQFOY_clean_sbu_3, # of connection points: 4
#     Node 3, Type 0, BuildingBlock: QUQFOY_clean_sbu_3, # of connection points: 4
#     Node 4, Type 0, BuildingBlock: QUQFOY_clean_sbu_3, # of connection points: 4
#     Node 5, Type 0, BuildingBlock: QUQFOY_clean_sbu_3, # of connection points: 4
#     Node 6, Type 0, BuildingBlock: QUQFOY_clean_sbu_3, # of connection points: 4
#     Node 7, Type 0, BuildingBlock: QUQFOY_clean_sbu_3, # of connection points: 4
#     Node 8, Type 0, BuildingBlock: QUQFOY_clean_sbu_3, # of connection points: 4
#     Node 9, Type 0, BuildingBlock: QUQFOY_clean_sbu_3, # of connection points: 4
#     Node 10, Type 0, BuildingBlock: QUQFOY_clean_sbu_3, # of connection points: 4
#     Node 11, Type 0, BuildingBlock: QUQFOY_clean_sbu_3, # of connection points: 4
#     Node 12, Type 0, BuildingBlock: QUQFOY_clean_sbu_3, # of connection points: 4
#     Node 13, Type 0, BuildingBlock: QUQFOY_clean_sbu_3, # of connection points: 4
#     Node 14, Type 0, BuildingBlock: QUQFOY_clean_sbu_3, # of connection points: 4
#     Node 15, Type 0, BuildingBlock: QUQFOY_clean_sbu_3, # of connection points: 4
#     Node 16, Type 0, BuildingBlock: QUQFOY_clean_sbu_3, # of connection points: 4
#     Node 17, Type 0, BuildingBlock: QUQFOY_clean_sbu_3, # of connection points: 4
#     Node 18, Type 0, BuildingBlock: QUQFOY_clean_sbu_3, # of connection points: 4
#     Node 19, Type 0, BuildingBlock: QUQFOY_clean_sbu_3, # of connection points: 4
#     Node 20, Type 0, BuildingBlock: QUQFOY_clean_sbu_3, # of connection points: 4
#     Node 21, Type 0, BuildingBlock: QUQFOY_clean_sbu_3, # of connection points: 4
#     Node 22, Type 0, BuildingBlock: QUQFOY_clean_sbu_3, # of connection points: 4
#     Node 23, Type 0, BuildingBlock: QUQFOY_clean_sbu_3, # of connection points: 4
#     Node 24, Type 1, BuildingBlock: CIFDUS_clean_sbu_1, # of connection points: 6
#     Node 25, Type 1, BuildingBlock: CIFDUS_clean_sbu_1, # of connection points: 6
#     Node 26, Type 1, BuildingBlock: CIFDUS_clean_sbu_1, # of connection points: 6
#     Node 27, Type 1, BuildingBlock: CIFDUS_clean_sbu_1, # of connection points: 6
#     Node 28, Type 1, BuildingBlock: CIFDUS_clean_sbu_1, # of connection points: 6
#     Node 29, Type 1, BuildingBlock: CIFDUS_clean_sbu_1, # of connection points: 6
#     Node 30, Type 1, BuildingBlock: CIFDUS_clean_sbu_1, # of connection points: 6
#     Node 31, Type 1, BuildingBlock: CIFDUS_clean_sbu_1, # of connection points: 6
#     Node 32, Type 1, BuildingBlock: CIFDUS_clean_sbu_1, # of connection points: 6
#     Node 33, Type 1, BuildingBlock: CIFDUS_clean_sbu_1, # of connection points: 6
#     Node 34, Type 1, BuildingBlock: CIFDUS_clean_sbu_1, # of connection points: 6
#     Node 35, Type 1, BuildingBlock: CIFDUS_clean_sbu_1, # of connection points: 6
#     Node 36, Type 1, BuildingBlock: CIFDUS_clean_sbu_1, # of connection points: 6
#     Node 37, Type 1, BuildingBlock: CIFDUS_clean_sbu_1, # of connection points: 6
#     Node 38, Type 1, BuildingBlock: CIFDUS_clean_sbu_1, # of connection points: 6
#     Node 39, Type 1, BuildingBlock: CIFDUS_clean_sbu_1, # of connection points: 6
#     Edge 40, Type (0, 1), BuildingBlock: KIFKEQ_clean_linker_1, # of connection points: 2
#     Edge 41, Type (0, 1), BuildingBlock: KIFKEQ_clean_linker_1, # of connection points: 2
#     Edge 42, Type (0, 1), BuildingBlock: KIFKEQ_clean_linker_1, # of connection points: 2
#     Edge 43, Type (0, 1), BuildingBlock: KIFKEQ_clean_linker_1, # of connection points: 2
#     Edge 44, Type (0, 1), BuildingBlock: KIFKEQ_clean_linker_1, # of connection points: 2
#     Edge 45, Type (0, 1), BuildingBlock: KIFKEQ_clean_linker_1, # of connection points: 2
#     Edge 46, Type (0, 1), BuildingBlock: KIFKEQ_clean_linker_1, # of connection points: 2
#     Edge 47, Type (0, 1), BuildingBlock: KIFKEQ_clean_linker_1, # of connection points: 2
#     Edge 48, Type (0, 1), BuildingBlock: KIFKEQ_clean_linker_1, # of connection points: 2
#     Edge 49, Type (0, 1), BuildingBlock: KIFKEQ_clean_linker_1, # of connection points: 2
#     Edge 50, Type (0, 1), BuildingBlock: KIFKEQ_clean_linker_1, # of connection points: 2
#     Edge 51, Type (0, 1), BuildingBlock: KIFKEQ_clean_linker_1, # of connection points: 2
#     Edge 52, Type (0, 1), BuildingBlock: KIFKEQ_clean_linker_1, # of connection points: 2
#     Edge 53, Type (0, 1), BuildingBlock: KIFKEQ_clean_linker_1, # of connection points: 2
#     Edge 54, Type (0, 1), BuildingBlock: KIFKEQ_clean_linker_1, # of connection points: 2
#     Edge 55, Type (0, 1), BuildingBlock: KIFKEQ_clean_linker_1, # of connection points: 2
#     Edge 56, Type (0, 1), BuildingBlock: KIFKEQ_clean_linker_1, # of connection points: 2
#     Edge 57, Type (0, 1), BuildingBlock: KIFKEQ_clean_linker_1, # of connection points: 2
#     Edge 58, Type (0, 1), BuildingBlock: KIFKEQ_clean_linker_1, # of connection points: 2
#     Edge 59, Type (0, 1), BuildingBlock: KIFKEQ_clean_linker_1, # of connection points: 2
#     Edge 60, Type (0, 1), BuildingBlock: KIFKEQ_clean_linker_1, # of connection points: 2
#     Edge 61, Type (0, 1), BuildingBlock: KIFKEQ_clean_linker_1, # of connection points: 2
#     Edge 62, Type (0, 1), BuildingBlock: KIFKEQ_clean_linker_1, # of connection points: 2
#     Edge 63, Type (0, 1), BuildingBlock: KIFKEQ_clean_linker_1, # of connection points: 2
#     Edge 64, Type (0, 1), BuildingBlock: KIFKEQ_clean_linker_1, # of connection points: 2
#     Edge 65, Type (0, 1), BuildingBlock: KIFKEQ_clean_linker_1, # of connection points: 2
#     Edge 66, Type (0, 1), BuildingBlock: KIFKEQ_clean_linker_1, # of connection points: 2
#     Edge 67, Type (0, 1), BuildingBlock: KIFKEQ_clean_linker_1, # of connection points: 2
#     Edge 68, Type (0, 1), BuildingBlock: KIFKEQ_clean_linker_1, # of connection points: 2
#     Edge 69, Type (0, 1), BuildingBlock: KIFKEQ_clean_linker_1, # of connection points: 2
#     Edge 70, Type (0, 1), BuildingBlock: KIFKEQ_clean_linker_1, # of connection points: 2
#     Edge 71, Type (0, 1), BuildingBlock: KIFKEQ_clean_linker_1, # of connection points: 2
#     Edge 72, Type (0, 1), BuildingBlock: KIFKEQ_clean_linker_1, # of connection points: 2
#     Edge 73, Type (0, 1), BuildingBlock: KIFKEQ_clean_linker_1, # of connection points: 2
#     Edge 74, Type (0, 1), BuildingBlock: KIFKEQ_clean_linker_1, # of connection points: 2
#     Edge 75, Type (0, 1), BuildingBlock: KIFKEQ_clean_linker_1, # of connection points: 2
#     Edge 76, Type (0, 1), BuildingBlock: KIFKEQ_clean_linker_1, # of connection points: 2
#     Edge 77, Type (0, 1), BuildingBlock: KIFKEQ_clean_linker_1, # of connection points: 2
#     Edge 78, Type (0, 1), BuildingBlock: KIFKEQ_clean_linker_1, # of connection points: 2
#     Edge 79, Type (0, 1), BuildingBlock: KIFKEQ_clean_linker_1, # of connection points: 2
#     Edge 80, Type (0, 1), BuildingBlock: KIFKEQ_clean_linker_1, # of connection points: 2
#     Edge 81, Type (0, 1), BuildingBlock: KIFKEQ_clean_linker_1, # of connection points: 2
#     Edge 82, Type (0, 1), BuildingBlock: KIFKEQ_clean_linker_1, # of connection points: 2
#     Edge 83, Type (0, 1), BuildingBlock: KIFKEQ_clean_linker_1, # of connection points: 2
#     Edge 84, Type (0, 1), BuildingBlock: KIFKEQ_clean_linker_1, # of connection points: 2
#     Edge 85, Type (0, 1), BuildingBlock: KIFKEQ_clean_linker_1, # of connection points: 2
#     Edge 86, Type (0, 1), BuildingBlock: KIFKEQ_clean_linker_1, # of connection points: 2
#     Edge 87, Type (0, 1), BuildingBlock: KIFKEQ_clean_linker_1, # of connection points: 2
#     Edge 88, Type (0, 1), BuildingBlock: KIFKEQ_clean_linker_1, # of connection points: 2
#     Edge 89, Type (0, 1), BuildingBlock: KIFKEQ_clean_linker_1, # of connection points: 2
#     Edge 90, Type (0, 1), BuildingBlock: KIFKEQ_clean_linker_1, # of connection points: 2
#     Edge 91, Type (0, 1), BuildingBlock: KIFKEQ_clean_linker_1, # of connection points: 2
#     Edge 92, Type (0, 1), BuildingBlock: KIFKEQ_clean_linker_1, # of connection points: 2
#     Edge 93, Type (0, 1), BuildingBlock: KIFKEQ_clean_linker_1, # of connection points: 2
#     Edge 94, Type (0, 1), BuildingBlock: KIFKEQ_clean_linker_1, # of connection points: 2
#     Edge 95, Type (0, 1), BuildingBlock: KIFKEQ_clean_linker_1, # of connection points: 2
#     Edge 96, Type (0, 1), BuildingBlock: KIFKEQ_clean_linker_1, # of connection points: 2
#     Edge 97, Type (0, 1), BuildingBlock: KIFKEQ_clean_linker_1, # of connection points: 2
#     Edge 98, Type (0, 1), BuildingBlock: KIFKEQ_clean_linker_1, # of connection points: 2
#     Edge 99, Type (0, 1), BuildingBlock: KIFKEQ_clean_linker_1, # of connection points: 2
#     Edge 100, Type (0, 1), BuildingBlock: KIFKEQ_clean_linker_1, # of connection points: 2
#     Edge 101, Type (0, 1), BuildingBlock: KIFKEQ_clean_linker_1, # of connection points: 2
#     Edge 102, Type (0, 1), BuildingBlock: KIFKEQ_clean_linker_1, # of connection points: 2
#     Edge 103, Type (0, 1), BuildingBlock: KIFKEQ_clean_linker_1, # of connection points: 2
#     Edge 104, Type (0, 1), BuildingBlock: KIFKEQ_clean_linker_1, # of connection points: 2
#     Edge 105, Type (0, 1), BuildingBlock: KIFKEQ_clean_linker_1, # of connection points: 2
#     Edge 106, Type (0, 1), BuildingBlock: KIFKEQ_clean_linker_1, # of connection points: 2
#     Edge 107, Type (0, 1), BuildingBlock: KIFKEQ_clean_linker_1, # of connection points: 2
#     Edge 108, Type (0, 1), BuildingBlock: KIFKEQ_clean_linker_1, # of connection points: 2
#     Edge 109, Type (0, 1), BuildingBlock: KIFKEQ_clean_linker_1, # of connection points: 2
#     Edge 110, Type (0, 1), BuildingBlock: KIFKEQ_clean_linker_1, # of connection points: 2
#     Edge 111, Type (0, 1), BuildingBlock: KIFKEQ_clean_linker_1, # of connection points: 2
#     Edge 112, Type (0, 1), BuildingBlock: KIFKEQ_clean_linker_1, # of connection points: 2
#     Edge 113, Type (0, 1), BuildingBlock: KIFKEQ_clean_linker_1, # of connection points: 2
#     Edge 114, Type (0, 1), BuildingBlock: KIFKEQ_clean_linker_1, # of connection points: 2
#     Edge 115, Type (0, 1), BuildingBlock: KIFKEQ_clean_linker_1, # of connection points: 2
#     Edge 116, Type (0, 1), BuildingBlock: KIFKEQ_clean_linker_1, # of connection points: 2
#     Edge 117, Type (0, 1), BuildingBlock: KIFKEQ_clean_linker_1, # of connection points: 2
#     Edge 118, Type (0, 1), BuildingBlock: KIFKEQ_clean_linker_1, # of connection points: 2
#     Edge 119, Type (0, 1), BuildingBlock: KIFKEQ_clean_linker_1, # of connection points: 2
#     Edge 120, Type (0, 1), BuildingBlock: KIFKEQ_clean_linker_1, # of connection points: 2
#     Edge 121, Type (0, 1), BuildingBlock: KIFKEQ_clean_linker_1, # of connection points: 2
#     Edge 122, Type (0, 1), BuildingBlock: KIFKEQ_clean_linker_1, # of connection points: 2
#     Edge 123, Type (0, 1), BuildingBlock: KIFKEQ_clean_linker_1, # of connection points: 2
#     Edge 124, Type (0, 1), BuildingBlock: KIFKEQ_clean_linker_1, # of connection points: 2
#     Edge 125, Type (0, 1), BuildingBlock: KIFKEQ_clean_linker_1, # of connection points: 2
#     Edge 126, Type (0, 1), BuildingBlock: KIFKEQ_clean_linker_1, # of connection points: 2
#     Edge 127, Type (0, 1), BuildingBlock: KIFKEQ_clean_linker_1, # of connection points: 2
#     Edge 128, Type (0, 1), BuildingBlock: KIFKEQ_clean_linker_1, # of connection points: 2
#     Edge 129, Type (0, 1), BuildingBlock: KIFKEQ_clean_linker_1, # of connection points: 2
#     Edge 130, Type (0, 1), BuildingBlock: KIFKEQ_clean_linker_1, # of connection points: 2
#     Edge 131, Type (0, 1), BuildingBlock: KIFKEQ_clean_linker_1, # of connection points: 2
#     Edge 132, Type (0, 1), BuildingBlock: KIFKEQ_clean_linker_1, # of connection points: 2
#     Edge 133, Type (0, 1), BuildingBlock: KIFKEQ_clean_linker_1, # of connection points: 2
#     Edge 134, Type (0, 1), BuildingBlock: KIFKEQ_clean_linker_1, # of connection points: 2
#     Edge 135, Type (0, 1), BuildingBlock: KIFKEQ_clean_linker_1, # of connection points: 2
# Relax obj value: 0.354
# Max RMSD: 0.309
# Mean RMSD: 0.279
data_MOF--net-ibd--node1-QUQFOY_clean_sbu_3--node2-CIFDUS_clean_sbu_1--edge1-KIFKEQ_clean_linker_1
_symmetry_space_group_name_H-M    P1
_symmetry_Int_Tables_number       1
_symmetry_cell_setting            triclinic
loop_
_symmetry_equiv_pos_as_xyz
'x, y, z'
_cell_length_a     48.360171
_cell_length_b     49.851584
_cell_length_c     50.698609
_cell_angle_alpha  90.80142
_cell_angle_beta   89.269404
_cell_angle_gamma 94.624653
loop_
_atom_site_label
_atom_site_type_symbol
_atom_site_fract_x
_atom_site_fract_y
_atom_site_fract_z
_atom_type_partial_charge
C0 C 0.96298 0.30145 0.40753 0.0
O1 O 0.94748 0.32009 0.40259 0.0
Cd2 Cd 0.96686 0.35517 0.37407 0.0
O3 O 0.98471 0.29873 0.3936 0.0
Cd4 Cd 0.00893 0.31798 0.35397 0.0
C5 C 0.03274 0.36073 0.39958 0.0
O6 O 0.97362 0.33813 0.33 0.0
O7 O 0.01589 0.35419 0.32213 0.0
O8 O 0.00558 0.27589 0.32927 0.0
C9 C 0.99071 0.35174 0.31516 0.0
O10 O 0.00884 0.3697 0.39877 0.0
C11 C 0.03146 0.27622 0.3246 0.0
O12 O 0.03892 0.34181 0.38418 0.0
O13 O 0.04693 0.29491 0.33544 0.0
C14 C 0.02638 0.82105 0.60084 0.0
O15 O 0.01711 0.84305 0.60825 0.0
Cd16 Cd 0.97438 0.83612 0.63264 0.0
O17 O 0.01776 0.79921 0.61183 0.0
Cd18 Cd 0.98937 0.78408 0.64951 0.0
C19 C 0.94799 0.7789 0.59975 0.0
O20 O 0.98282 0.8227 0.67711 0.0
O21 O 0.94936 0.79086 0.67674 0.0
O22 O 0.03007 0.77258 0.67142 0.0
C23 C 0.9619 0.81079 0.68862 0.0
O24 O 0.94774 0.80428 0.60287 0.0
C25 C 0.01953 0.7499 0.67929 0.0
O26 O 0.96168 0.76524 0.61508 0.0
O27 O -0.00459 0.74203 0.67123 0.0
C28 C 0.45785 0.80088 0.90464 0.0
O29 O 0.44755 0.82328 0.90179 0.0
Cd30 Cd 0.46998 0.85686 0.87321 0.0
O31 O 0.4775 0.79435 0.88951 0.0
Cd32 Cd 0.50376 0.81391 0.85092 0.0
C33 C 0.53574 0.85382 0.8957 0.0
O34 O 0.47195 0.84088 0.82831 0.0
O35 O 0.51566 0.84994 0.81965 0.0
O36 O 0.4974 0.7739 0.82277 0.0
C37 C 0.49065 0.85214 0.8134 0.0
O38 O 0.51453 0.86736 0.89498 0.0
C39 C 0.52328 0.7719 0.81968 0.0
O40 O 0.53697 0.83283 0.8815 0.0
O41 O 0.53953 0.78815 0.83278 0.0
C42 C 0.53055 0.31838 0.1034 0.0
O43 O 0.52048 0.33966 0.11175 0.0
Cd44 Cd 0.477 0.33292 0.13452 0.0
O45 O 0.52125 0.29563 0.11215 0.0
Cd46 Cd 0.49061 0.27899 0.14824 0.0
C47 C 0.44615 0.27824 0.10051 0.0
O48 O 0.4843 0.31633 0.17783 0.0
O49 O 0.45087 0.28451 0.17606 0.0
O50 O 0.53199 0.26806 0.16857 0.0
C51 C 0.46297 0.30426 0.1885 0.0
O52 O 0.44806 0.30363 0.10438 0.0
C53 C 0.52235 0.24554 0.17749 0.0
O54 O 0.46002 0.26312 0.11428 0.0
O55 O 0.49799 0.23694 0.17058 0.0
C56 C 0.9456 0.75139 0.15589 0.0
O57 O 0.92573 0.76463 0.14859 0.0
Cd58 Cd 0.93538 0.80472 0.12409 0.0
O59 O 0.9697 0.75583 0.14564 0.0
Cd60 Cd -0.00753 0.78305 0.1097 0.0
C61 C -0.00665 0.8275 0.15965 0.0
O62 O 0.95293 0.79041 0.08257 0.0
O63 O 0.99031 0.81683 0.07626 0.0
O64 O 0.00268 0.74223 0.08764 0.0
C65 C 0.96665 0.80752 0.0683 0.0
O66 O 0.96757 0.82812 0.15515 0.0
C67 C 0.027 0.75048 0.0801 0.0
O68 O 0.00842 0.81331 0.1452 0.0
O69 O 0.03708 0.77284 0.08967 0.0
C70 C 0.55658 0.83419 0.35191 0.0
O71 O 0.54141 0.85298 0.35811 0.0
Cd72 Cd 0.49757 0.838 0.37725 0.0
O73 O 0.55183 0.81104 0.36202 0.0
Cd74 Cd 0.52328 0.7854 0.39436 0.0
C75 C 0.48614 0.77932 0.33908 0.0
O76 O 0.50583 0.82137 0.41991 0.0
O77 O 0.48156 0.7829 0.42211 0.0
O78 O 0.56433 0.78093 0.42115 0.0
C79 C 0.48671 0.80661 0.43115 0.0
O80 O 0.4816 0.80366 0.34442 0.0
C81 C 0.55714 0.75669 0.42708 0.0
O82 O 0.50105 0.7664 0.35422 0.0
O83 O 0.53635 0.74517 0.41515 0.0
C84 C 0.45115 0.2382 0.65589 0.0
O85 O 0.42925 0.24659 0.64659 0.0
Cd86 Cd 0.43683 0.28963 0.62635 0.0
O87 O 0.47469 0.24803 0.6476 0.0
Cd88 Cd 0.49233 0.27787 0.61153 0.0
C89 C 0.49172 0.318 0.66324 0.0
O90 O 0.45424 0.28631 0.58203 0.0
O91 O 0.48753 0.31784 0.58624 0.0
O92 O 0.50348 0.23955 0.58599 0.0
C93 C 0.46703 0.30761 0.5731 0.0
O94 O 0.46575 0.31573 0.65883 0.0
C95 C 0.5278 0.24867 0.57937 0.0
O96 O 0.50834 0.30619 0.64823 0.0
O97 O 0.53717 0.27068 0.59021 0.0
C98 C 0.05497 0.33137 0.84766 0.0
O99 O 0.03818 0.3494 0.85131 0.0
Cd100 Cd -0.00617 0.33482 0.86985 0.0
O101 O 0.05123 0.30905 0.85947 0.0
Cd102 Cd 0.02101 0.28763 0.89347 0.0
C103 C 0.98658 0.27347 0.83733 0.0
O104 O 3e-05 0.32437 0.91499 0.0
O105 O 0.97747 0.28513 0.91853 0.0
O106 O 0.05785 0.29105 0.92548 0.0
C107 C 0.98179 0.3092 0.92704 0.0
O108 O 0.97935 0.29737 0.83987 0.0
C109 C 0.05595 0.26621 0.93098 0.0
O110 O 0.00249 0.26382 0.85398 0.0
O111 O 0.03935 0.25071 0.91728 0.0
C112 C 0.40053 0.95238 0.20386 0.0
O113 O 0.38633 0.93349 0.21544 0.0
Cd114 Cd 0.37224 0.94937 0.25756 0.0
O115 O 0.39472 0.97661 0.2074 0.0
Cd116 Cd 0.3591 0.00192 0.22858 0.0
C117 C 0.41588 0.00852 0.26442 0.0
O118 O 0.33021 0.96924 0.25222 0.0
O119 O 0.33683 0.00893 0.27049 0.0
O120 O 0.32623 0.00395 0.19285 0.0
C121 C 0.3242 0.98563 0.27038 0.0
O122 O 0.40972 0.98369 0.2693 0.0
C123 C 0.32481 0.02925 0.19496 0.0
O124 O 0.40049 0.02168 0.24998 0.0
O125 O 0.34212 0.04203 0.21022 0.0
C126 C 0.28273 0.1155 0.54693 0.0
O127 O 0.30431 0.12262 0.53349 0.0
Cd128 Cd 0.29992 0.1381 0.49012 0.0
O129 O 0.259 0.12234 0.54004 0.0
Cd130 Cd 0.24213 0.15421 0.50656 0.0
C131 C 0.24125 0.09803 0.47084 0.0
O132 O 0.28435 0.18156 0.49547 0.0
O133 O 0.25246 0.17895 0.46587 0.0
O134 O 0.22589 0.18342 0.54182 0.0
C135 C 0.27468 0.19082 0.47469 0.0
O136 O 0.26748 0.10312 0.47086 0.0
C137 C 0.20462 0.18968 0.52958 0.0
O138 O 0.22538 0.11384 0.48232 0.0
O139 O 0.19911 0.17718 0.50803 0.0
C140 C 0.15693 0.01648 0.68941 0.0
O141 O 0.14335 -0.00458 0.69772 0.0
Cd142 Cd 0.12437 0.00201 0.74044 0.0
O143 O 0.15261 0.03928 0.69951 0.0
Cd144 Cd 0.11734 0.05673 0.72958 0.0
C145 C 0.16954 0.05266 0.76721 0.0
O146 O 0.08069 0.02091 0.73725 0.0
O147 O 0.09088 0.04824 0.76985 0.0
O148 O 0.09547 0.07497 0.69277 0.0
C149 C 0.0738 0.03074 0.75935 0.0
O150 O 0.16222 0.02764 0.76459 0.0
C151 C 0.08949 0.09638 0.70462 0.0
O152 O 0.1559 0.07012 0.75638 0.0
O153 O 0.09987 0.10106 0.72727 0.0
C154 C 0.28912 0.86851 0.01942 0.0
O155 O 0.30497 0.87974 0.00195 0.0
Cd156 Cd 0.2823 0.90738 0.97211 0.0
O157 O 0.26565 0.87723 0.02483 0.0
Cd158 Cd 0.23608 0.91378 0.01616 0.0
C159 C 0.21922 0.86779 0.97114 0.0
O160 O 0.26941 0.94572 -0.00351 0.0
O161 O 0.22651 0.95135 0.98785 0.0
O162 O 0.24134 0.93083 0.06059 0.0
C163 C 0.25186 0.96006 0.98644 0.0
O164 O 0.24346 0.87419 0.96196 0.0
C165 C 0.21565 0.93343 0.06412 0.0
O166 O 0.20975 0.8801 -0.00905 0.0
O167 O 0.19924 0.92313 0.04664 0.0
C168 C 0.22427 0.3713 0.03804 0.0
O169 O 0.23688 0.3816 0.05798 0.0
Cd170 Cd 0.28047 0.40532 0.04742 0.0
O171 O 0.2315 0.37885 0.015 0.0
Cd172 Cd 0.26073 0.41583 -0.00483 0.0
C173 C 0.30197 0.3663 -0.00455 0.0
O174 O 0.26947 0.44836 0.03097 0.0
O175 O 0.29775 0.45225 -0.0025 0.0
O176 O 0.21595 0.42961 0.98552 0.0
C177 C 0.28763 0.46276 0.01806 0.0
O178 O 0.3033 0.37172 0.02004 0.0
C179 C 0.22177 0.43681 0.96209 0.0
O180 O 0.28832 0.38044 0.98042 0.0
O181 O 0.24569 0.43235 0.95308 0.0
C182 C 0.72259 0.115 0.03449 0.0
O183 O 0.74232 0.12372 0.04936 0.0
Cd184 Cd 0.77492 0.15874 0.03397 0.0
O185 O 0.71666 0.12788 0.01414 0.0
Cd186 Cd 0.73102 0.17016 -0.0075 0.0
C187 C 0.77942 0.13325 0.97031 0.0
O188 O 0.75161 0.1978 0.02704 0.0
O189 O 0.76628 0.20762 0.98749 0.0
O190 O 0.68687 0.18911 -0.00287 0.0
C191 C 0.76481 0.21427 0.01169 0.0
O192 O 0.79031 0.13843 -0.00723 0.0
C193 C 0.68616 0.19538 0.97297 0.0
O194 O 0.75635 0.14192 0.96442 0.0
O195 O 0.70414 0.18606 0.95759 0.0
C196 C 0.17672 0.56644 0.22996 0.0
O197 O 0.16877 0.54829 0.21328 0.0
Cd198 Cd 0.14316 0.50891 0.22866 0.0
O199 O 0.16523 0.56774 0.25265 0.0
Cd200 Cd 0.1245 0.54784 0.27764 0.0
C201 C 0.17638 0.51054 0.29013 0.0
O202 O 0.10144 0.52396 0.24323 0.0
O203 O 0.08972 0.50813 0.2816 0.0
O204 O 0.10009 0.58647 0.26811 0.0
C205 C 0.0862 0.50751 0.25679 0.0
O206 O 0.17124 0.50132 0.26697 0.0
C207 C 0.09152 0.59014 0.29154 0.0
O208 O 0.16271 0.52895 0.30046 0.0
O209 O 0.10095 0.57585 0.30953 0.0
C210 C 0.73455 0.87223 0.54388 0.0
O211 O 0.75307 0.87986 0.56052 0.0
Cd212 Cd 0.79325 0.9072 0.5456 0.0
O213 O 0.73511 0.88249 0.52104 0.0
Cd214 Cd 0.76161 0.91798 0.49583 0.0
C215 C 0.80484 0.8682 0.49122 0.0
O216 O 0.77727 0.94924 0.53119 0.0
O217 O 0.79577 0.95647 0.49248 0.0
O218 O 0.71602 0.93234 0.49071 0.0
C219 C 0.79124 0.96508 0.51569 0.0
O220 O 0.81226 0.87505 0.51451 0.0
C221 C 0.71897 0.93909 0.46675 0.0
O222 O 0.78704 0.88099 0.47933 0.0
O223 O 0.7415 0.93394 0.45519 0.0
C224 C 0.91375 0.03476 0.22877 0.0
O225 O 0.90534 0.02052 0.20907 0.0
Cd226 Cd 0.87765 0.97912 0.21598 0.0
O227 O 0.90231 0.03137 0.25132 0.0
Cd228 Cd 0.86141 0.00509 0.26992 0.0
C229 C 0.91275 0.96559 0.2719 0.0
O230 O 0.83394 0.98562 0.23487 0.0
O231 O 0.83321 0.96329 0.2716 0.0
O232 O 0.83373 0.04275 0.2751 0.0
C233 C 0.82265 0.96705 0.2493 0.0
O234 O 0.90706 0.96022 0.24786 0.0
C235 C 0.82546 0.03676 0.29835 0.0
O236 O 0.89928 0.98201 0.28544 0.0
O237 O 0.8374 0.0184 0.30991 0.0
C238 C 0.22893 0.61393 0.53595 0.0
O239 O 0.25394 0.61886 0.54299 0.0
Cd240 Cd 0.28419 0.65665 0.52919 0.0
O241 O 0.21742 0.62986 0.52099 0.0
Cd242 Cd 0.233 0.67048 0.49675 0.0
C243 C 0.27912 0.63369 0.46642 0.0
O244 O 0.26114 0.6967 0.52787 0.0
O245 O 0.26777 0.70702 0.48671 0.0
O246 O 0.19191 0.6931 0.50739 0.0
C247 C 0.27162 0.71311 0.51085 0.0
O248 O 0.29529 0.64125 0.4852 0.0
C249 C 0.18594 0.69703 0.48352 0.0
O250 O 0.25415 0.64003 0.46634 0.0
O251 O 0.20041 0.68622 0.4658 0.0
C252 C 0.41151 0.5231 0.71835 0.0
O253 O 0.40401 0.50548 0.70097 0.0
Cd254 Cd 0.37496 0.46577 0.7109 0.0
O255 O 0.39916 0.52328 0.74071 0.0
Cd256 Cd 0.35901 0.49717 0.76229 0.0
C257 C 0.41002 0.45622 0.76735 0.0
O258 O 0.33142 0.47723 0.72732 0.0
O259 O 0.32753 0.45702 0.76507 0.0
O260 O 0.33406 0.53718 0.76694 0.0
C261 C 0.31795 0.46047 0.74229 0.0
O262 O 0.40388 0.44811 0.74409 0.0
C263 C 0.32533 0.53234 0.79028 0.0
O264 O 0.39708 0.47443 0.77892 0.0
O265 O 0.33499 0.51272 0.80194 0.0
C266 C 0.68083 0.06232 0.73108 0.0
O267 O 0.67727 0.04129 0.71676 0.0
Cd268 Cd 0.64844 0.0031 0.73096 0.0
O269 O 0.66611 0.06563 0.75161 0.0
Cd270 Cd 0.62581 0.04359 0.7744 0.0
C271 C 0.67641 0.007 0.79362 0.0
O272 O 0.60423 0.01747 0.73957 0.0
O273 O 0.5915 0.00457 0.77883 0.0
O274 O 0.59965 0.08098 0.76378 0.0
C275 C 0.58799 0.00273 0.75405 0.0
O276 O 0.67255 -0.00456 0.77126 0.0
C277 C 0.59162 0.08525 0.78727 0.0
O278 O 0.66267 0.02668 0.8008 0.0
O279 O 0.60163 0.07161 0.80542 0.0
C280 C 0.7841 0.61368 0.04803 0.0
O281 O 0.80577 0.62201 0.03529 0.0
Cd282 Cd 0.80124 0.64088 -0.0067 0.0
O283 O 0.76039 0.62063 0.04141 0.0
Cd284 Cd 0.74483 0.6547 0.01007 0.0
C285 C 0.74348 0.60174 0.97118 0.0
O286 O 0.78579 0.68425 0.00125 0.0
O287 O 0.7556 0.68059 0.97002 0.0
O288 O 0.73211 0.68346 0.04575 0.0
C289 C 0.77597 0.69398 0.98077 0.0
O290 O 0.76968 0.60696 0.97125 0.0
C291 C 0.70964 0.68976 0.03573 0.0
O292 O 0.72763 0.61662 0.98385 0.0
O293 O 0.70119 0.6765 0.01536 0.0
C294 C 0.90393 0.44641 0.71444 0.0
O295 O 0.89372 0.43153 0.7328 0.0
Cd296 Cd 0.86986 0.45127 0.76805 0.0
O297 O 0.89467 0.46918 0.71015 0.0
Cd298 Cd 0.85898 0.49775 0.72764 0.0
C299 C 0.91288 0.51065 0.76762 0.0
O300 O 0.82883 0.46704 0.75249 0.0
O301 O 0.83301 0.50819 0.76736 0.0
O302 O 0.8265 0.49876 0.69061 0.0
C303 C 0.82027 0.48493 0.76788 0.0
O304 O 0.90405 0.48853 0.7783 0.0
C305 C 0.82642 0.52428 0.69095 0.0
O306 O 0.90097 0.51946 0.74756 0.0
O307 O 0.84414 0.53714 0.70572 0.0
C308 C 0.79021 0.35978 0.51102 0.0
O309 O 0.79998 0.36645 0.48848 0.0
Cd310 Cd 0.78141 0.40089 0.46294 0.0
O311 O 0.77171 0.37301 0.52208 0.0
Cd312 Cd 0.74447 0.41123 0.51253 0.0
C313 C 0.71581 0.37018 0.46584 0.0
O314 O 0.7771 0.44099 0.48848 0.0
O315 O 0.73372 0.44736 0.48327 0.0
O316 O 0.7511 0.43428 0.55502 0.0
C317 C 0.75899 0.45583 0.48019 0.0
O318 O 0.737 0.37749 0.45173 0.0
C319 C 0.72529 0.43448 0.55993 0.0
O320 O 0.71354 0.37887 0.4894 0.0
O321 O 0.70888 0.42151 0.54405 0.0
C322 C 0.65615 0.50816 0.19647 0.0
O323 O 0.64699 0.48876 0.21094 0.0
Cd324 Cd 0.62253 0.49813 0.25106 0.0
O325 O 0.64833 0.53161 0.20044 0.0
Cd326 Cd 0.61535 0.5534 0.22891 0.0
C327 C 0.6672 0.55139 0.27036 0.0
O328 O 0.58032 0.51712 0.24019 0.0
O329 O 0.58219 0.55295 0.2651 0.0
O330 O 0.59399 0.56838 0.19028 0.0
C331 C 0.56904 0.53112 0.25779 0.0
O332 O 0.65805 0.52709 0.27416 0.0
C333 C 0.59085 0.5918 0.19948 0.0
O334 O 0.65583 0.56602 0.25409 0.0
O335 O 0.60307 0.59854 0.2209 0.0
O336 O 0.1495 0.18047 0.10536 0.0
Mn337 Mn 0.12703 0.15035 0.12743 0.0
O338 O 0.18819 0.19246 0.12778 0.0
Mn339 Mn 0.17304 0.18077 0.15933 0.0
O340 O 0.10374 0.1216 0.15001 0.0
O341 O 0.09563 0.15224 0.1023 0.0
Mn342 Mn 0.07984 0.1202 0.09436 0.0
O343 O 0.14303 0.12049 0.10406 0.0
O344 O 0.06668 0.10621 0.12604 0.0
O345 O 0.11017 0.17952 0.15104 0.0
O346 O 0.14565 0.20055 0.17347 0.0
O347 O 0.06188 0.1448 0.0751 0.0
O348 O 0.1081 0.10218 0.07886 0.0
C349 C 0.17621 0.14032 0.17015 0.0
C350 C 0.17313 0.19409 0.10763 0.0
C351 C 0.08045 0.10753 0.14734 0.0
C352 C 0.07994 0.16232 0.08536 0.0
C353 C 0.13341 0.1039 0.08609 0.0
C354 C 0.12 0.19716 0.16786 0.0
O355 O 0.15814 0.1478 0.15358 0.0
O356 O 0.19215 0.1597 0.1805 0.0
O357 O 0.08432 0.86449 0.34784 0.0
Mn358 Mn 0.11086 0.88698 0.37457 0.0
O359 O 0.11136 0.8358 0.32683 0.0
Mn360 Mn 0.14554 0.84959 0.33859 0.0
O361 O 0.13802 0.91034 0.39932 0.0
O362 O 0.084 0.9146 0.37965 0.0
Mn363 Mn 0.0777 0.92368 0.4126 0.0
O364 O 0.09356 0.86577 0.40644 0.0
O365 O 0.11221 0.93723 0.42416 0.0
O366 O 0.1295 0.9086 0.34363 0.0
O367 O 0.1595 0.88164 0.32429 0.0
O368 O 0.05693 0.94474 0.39155 0.0
O369 O 0.06391 0.89156 0.42768 0.0
C370 C 0.15328 0.84238 0.37978 0.0
C371 C 0.08791 0.8452 0.33101 0.0
C372 C 0.13548 0.92942 0.41641 0.0
C373 C 0.06806 0.93213 0.37222 0.0
C374 C 0.07508 0.86942 0.42422 0.0
C375 C 0.15099 0.90476 0.32939 0.0
O376 O 0.13838 0.86 0.37071 0.0
O377 O 0.16558 0.82949 0.3614 0.0
O378 O 0.40845 0.946 0.64291 0.0
Mn379 Mn 0.38061 0.92193 0.62054 0.0
O380 O 0.43517 0.97156 0.61465 0.0
Mn381 Mn 0.42009 0.95784 0.58313 0.0
O382 O 0.35302 0.8977 0.59793 0.0
O383 O 0.37551 0.89571 0.65001 0.0
Mn384 Mn 0.34001 0.8885 0.65767 0.0
O385 O 0.34847 0.94332 0.63454 0.0
O386 O 0.32516 0.87378 0.62664 0.0
O387 O 0.41216 0.90008 0.60494 0.0
O388 O 0.43292 0.92538 0.57247 0.0
O389 O 0.35973 0.86761 0.67952 0.0
O390 O 0.32671 0.92102 0.66792 0.0
C391 C 0.37718 0.96684 0.57769 0.0
C392 C 0.42819 0.9641 0.63801 0.0
C393 C 0.33309 0.87991 0.60318 0.0
C394 C 0.38139 0.87851 0.66734 0.0
C395 C 0.33059 0.94162 0.65336 0.0
C396 C 0.429 0.90339 0.5852 0.0
O397 O 0.38556 0.94785 0.59139 0.0
O398 O 0.39713 0.97916 0.56432 0.0
O399 O 0.3972 0.18865 0.91267 0.0
Mn400 Mn 0.37774 0.16772 0.88174 0.0
O401 O 0.41713 0.15727 0.93606 0.0
Mn402 Mn 0.41057 0.12812 0.91303 0.0
O403 O 0.35702 0.14549 0.85186 0.0
O404 O 0.34872 0.19401 0.88313 0.0
Mn405 Mn 0.33842 0.20308 0.85174 0.0
O406 O 0.40053 0.19108 0.85338 0.0
O407 O 0.32458 0.17113 0.83634 0.0
O408 O 0.35281 0.14374 0.90803 0.0
O409 O 0.3771 0.10875 0.91787 0.0
O410 O 0.31805 0.222 0.87581 0.0
O411 O 0.37055 0.21853 0.83638 0.0
C412 C 0.42837 0.12862 0.87419 0.0
C413 C 0.41009 0.18117 0.93289 0.0
C414 C 0.33595 0.149 0.83751 0.0
C415 C 0.33222 0.21046 0.8932 0.0
C416 C 0.39458 0.20973 0.83742 0.0
C417 C 0.35442 0.11982 0.91668 0.0
O418 O 0.40771 0.14192 0.88143 0.0
O419 O 0.4379 0.11425 0.89253 0.0
O420 O 0.58129 0.3723 0.85186 0.0
Mn421 Mn 0.60936 0.39223 0.87772 0.0
O422 O 0.60244 0.33974 0.83031 0.0
Mn423 Mn 0.63813 0.35278 0.83938 0.0
O424 O 0.63743 0.41457 0.90219 0.0
O425 O 0.58293 0.41949 0.88366 0.0
Mn426 Mn 0.57742 0.43001 0.91623 0.0
O427 O 0.59283 0.37129 0.90991 0.0
O428 O 0.61268 0.44497 0.92403 0.0
O429 O 0.62733 0.41351 0.84597 0.0
O430 O 0.6506 0.3838 0.82197 0.0
O431 O 0.5527 0.44653 0.89448 0.0
O432 O 0.56694 0.3984 0.93412 0.0
C433 C 0.65212 0.34683 0.87912 0.0
C434 C 0.58127 0.35276 0.83507 0.0
C435 C 0.63553 0.43531 0.91745 0.0
C436 C 0.5638 0.43318 0.87568 0.0
C437 C 0.57694 0.37584 0.92961 0.0
C438 C 0.64339 0.40754 0.82667 0.0
O439 O 0.63559 0.3641 0.87215 0.0
O440 O 0.66118 0.33307 0.8595 0.0
O441 O 0.91118 0.44294 0.14196 0.0
Mn442 Mn 0.88092 0.42098 0.12074 0.0
O443 O 0.94038 0.46416 0.11243 0.0
Mn444 Mn 0.92225 0.45273 0.08151 0.0
O445 O 0.8511 0.39794 0.09948 0.0
O446 O 0.87462 0.39685 0.15087 0.0
Mn447 Mn 0.83995 0.38879 0.1599 0.0
O448 O 0.85058 0.44456 0.13502 0.0
O449 O 0.82567 0.37265 0.12922 0.0
O450 O 0.91031 0.3963 0.10521 0.0
O451 O 0.93126 0.41887 0.07097 0.0
O452 O 0.86242 0.37123 0.183 0.0
O453 O 0.82673 0.42211 0.1675 0.0
C454 C 0.88015 0.46502 0.07721 0.0
C455 C 0.93317 0.45774 0.136 0.0
C456 C 0.83197 0.37958 0.10553 0.0
C457 C 0.88276 0.38272 0.1695 0.0
C458 C 0.83189 0.44286 0.15322 0.0
C459 C 0.92658 0.39774 0.08489 0.0
O460 O 0.88748 0.44567 0.09095 0.0
O461 O 0.90054 0.47606 0.06347 0.0
O462 O 0.89296 0.68969 0.41092 0.0
Mn463 Mn 0.87477 0.6659 0.3811 0.0
O464 O 0.92223 0.66506 0.43266 0.0
Mn465 Mn 0.91166 0.63249 0.41605 0.0
O466 O 0.85516 0.64165 0.35187 0.0
O467 O 0.84537 0.69141 0.37969 0.0
Mn468 Mn 0.8363 0.69963 0.34772 0.0
O469 O 0.89795 0.68737 0.35211 0.0
O470 O 0.82409 0.66682 0.33299 0.0
O471 O 0.85063 0.64341 0.40878 0.0
O472 O 0.87866 0.61584 0.4284 0.0
O473 O 0.81538 0.71938 0.37091 0.0
O474 O 0.86915 0.71474 0.33316 0.0
C475 C 0.9253 0.6275 0.3758 0.0
C476 C 0.91092 0.68689 0.42882 0.0
C477 C 0.83536 0.64475 0.33575 0.0
C478 C 0.82921 0.70846 0.38897 0.0
C479 C 0.89293 0.70569 0.33558 0.0
C480 C 0.8548 0.62415 0.42449 0.0
O481 O 0.90481 0.64077 0.38326 0.0
O482 O 0.93656 0.61544 0.39483 0.0
O483 O 0.85131 0.88835 0.90897 0.0
Mn484 Mn 0.87252 0.91847 0.88681 0.0
O485 O 0.81342 0.87291 0.8869 0.0
Mn486 Mn 0.83034 0.88136 0.8549 0.0
O487 O 0.89457 0.94797 0.86458 0.0
O488 O 0.90223 0.92122 0.9136 0.0
Mn489 Mn 0.91225 0.95433 0.92334 0.0
O490 O 0.85115 0.9475 0.90717 0.0
O491 O 0.92377 0.97149 0.89241 0.0
O492 O 0.89359 0.8897 0.86702 0.0
O493 O 0.86083 0.86227 0.84672 0.0
O494 O 0.935 0.93222 0.94089 0.0
O495 O 0.88008 0.96533 0.93847 0.0
C496 C 0.82889 0.92114 0.83911 0.0
C497 C 0.828 0.87421 0.90761 0.0
C498 C 0.9139 0.96653 0.86944 0.0
C499 C 0.92077 0.91295 0.92863 0.0
C500 C 0.85627 0.96251 0.92773 0.0
C501 C 0.88598 0.86881 0.85306 0.0
O502 O 0.84381 0.91509 0.85866 0.0
O503 O 0.81399 0.90074 0.82935 0.0
O504 O 0.91405 0.19634 0.64797 0.0
Mn505 Mn 0.88603 0.17806 0.62022 0.0
O506 O 0.89662 0.2334 0.66467 0.0
Mn507 Mn 0.86071 0.21943 0.65875 0.0
O508 O 0.85727 0.15905 0.59351 0.0
O509 O 0.90975 0.14691 0.61591 0.0
Mn510 Mn 0.91581 0.14021 0.58232 0.0
O511 O 0.90755 0.19938 0.58933 0.0
O512 O 0.88156 0.13186 0.56772 0.0
O513 O 0.86433 0.15766 0.65029 0.0
O514 O 0.84934 0.1892 0.67829 0.0
O515 O 0.9332 0.11473 0.60042 0.0
O516 O 0.93505 0.1707 0.56955 0.0
C517 C 0.84132 0.22207 0.62083 0.0
C518 C 0.91625 0.218 0.66227 0.0
C519 C 0.85899 0.14156 0.57466 0.0
C520 C 0.92426 0.12703 0.62111 0.0
C521 C 0.92676 0.19416 0.57251 0.0
C522 C 0.85157 0.16475 0.67133 0.0
O523 O 0.86148 0.20783 0.62581 0.0
O524 O 0.83409 0.23654 0.64075 0.0
O525 O 0.63597 0.17352 0.40554 0.0
Mn526 Mn 0.61708 0.14357 0.38078 0.0
O527 O 0.67819 0.18599 0.38897 0.0
Mn528 Mn 0.67029 0.17162 0.35603 0.0
O529 O 0.59685 0.11464 0.35529 0.0
O530 O 0.58225 0.14705 0.40156 0.0
Mn531 Mn 0.56271 0.11625 0.40581 0.0
O532 O 0.62727 0.11327 0.40572 0.0
O533 O 0.55349 0.10625 0.37191 0.0
O534 O 0.60641 0.17286 0.35442 0.0
O535 O 0.64667 0.18972 0.33586 0.0
O536 O 0.54532 0.14172 0.42563 0.0
O537 O 0.58669 0.09398 0.42161 0.0
C538 C 0.67278 0.12993 0.34788 0.0
C539 C 0.65956 0.18732 0.40674 0.0
C540 C 0.57154 0.10448 0.35361 0.0
C541 C 0.56613 0.15786 0.41821 0.0
C542 C 0.61313 0.09512 0.41915 0.0
C543 C 0.62025 0.18766 0.33741 0.0
O544 O 0.65262 0.13975 0.36069 0.0
O545 O 0.69217 0.14756 0.34009 0.0
O546 O 0.6064 0.87094 0.08962 0.0
Mn547 Mn 0.6231 0.89582 0.11964 0.0
O548 O 0.56862 0.88929 0.07498 0.0
Mn549 Mn 0.57932 0.9235 0.08718 0.0
O550 O 0.64007 0.92119 0.14933 0.0
O551 O 0.65575 0.87407 0.11925 0.0
Mn552 Mn 0.66775 0.86726 0.15048 0.0
O553 O 0.60396 0.87169 0.14914 0.0
O554 O 0.67612 0.90065 0.16555 0.0
O555 O 0.64296 0.92075 0.09139 0.0
O556 O 0.60956 0.94049 0.06994 0.0
O557 O 0.68979 0.85005 0.12647 0.0
O558 O 0.63764 0.84836 0.16615 0.0
C559 C 0.57166 0.93199 0.12801 0.0
C560 C 0.58485 0.87039 0.07506 0.0
C561 C 0.6607 0.92021 0.16485 0.0
C562 C 0.6731 0.85851 0.10928 0.0
C563 C 0.61253 0.85441 0.16521 0.0
C564 C 0.63496 0.9367 0.07383 0.0
O565 O 0.59091 0.91809 0.11909 0.0
O566 O 0.55697 0.94179 0.10989 0.0
O567 O 0.41111 0.69841 0.14958 0.0
Mn568 Mn 0.38425 0.67871 0.12152 0.0
O569 O 0.38855 0.7307 0.16966 0.0
Mn570 Mn 0.35432 0.71415 0.16153 0.0
O571 O 0.35805 0.65736 0.09429 0.0
O572 O 0.41183 0.65215 0.11532 0.0
Mn573 Mn 0.41988 0.64604 0.08214 0.0
O574 O 0.40213 0.70254 0.09084 0.0
O575 O 0.38606 0.63386 0.06806 0.0
O576 O 0.3656 0.65455 0.1512 0.0
O577 O 0.34479 0.68252 0.17909 0.0
O578 O 0.44045 0.62394 0.10223 0.0
O579 O 0.43414 0.67919 0.06996 0.0
C580 C 0.33635 0.72112 0.12431 0.0
C581 C 0.41043 0.71877 0.16546 0.0
C582 C 0.36215 0.64067 0.07517 0.0
C583 C 0.42863 0.6351 0.12209 0.0
C584 C 0.4217 0.70054 0.07356 0.0
C585 C 0.35109 0.65912 0.172 0.0
O586 O 0.35575 0.70528 0.12781 0.0
O587 O 0.32776 0.73254 0.14564 0.0
O588 O 0.13086 0.67407 0.90763 0.0
Mn589 Mn 0.11462 0.64343 0.88188 0.0
O590 O 0.17075 0.69105 0.89041 0.0
Mn591 Mn 0.15844 0.67957 0.8581 0.0
O592 O 0.09557 0.61277 0.85749 0.0
O593 O 0.0812 0.64176 0.90524 0.0
Mn594 Mn 0.06817 0.60905 0.91329 0.0
O595 O 0.13174 0.61497 0.9043 0.0
O596 O 0.05828 0.59479 0.88073 0.0
O597 O 0.09633 0.6704 0.85758 0.0
O598 O 0.13166 0.69816 0.84338 0.0
O599 O 0.04828 0.63273 0.93324 0.0
O600 O 0.09763 0.59329 0.92842 0.0
C601 C 0.17295 0.64455 0.84402 0.0
C602 C 0.15379 0.68868 0.90947 0.0
C603 C 0.07309 0.597 0.8597 0.0
C604 C 0.06522 0.65112 0.92287 0.0
C605 C 0.12295 0.59718 0.92106 0.0
C606 C 0.10622 0.69 0.84337 0.0
O607 O 0.1503 0.6441 0.85873 0.0
O608 O 0.18374 0.66774 0.83601 0.0
O609 O 0.10864 0.36888 0.58855 0.0
Mn610 Mn 0.12349 0.39744 0.61623 0.0
O611 O 0.06699 0.3803 0.5758 0.0
Mn612 Mn 0.07392 0.41618 0.58478 0.0
O613 O 0.13809 0.42627 0.64404 0.0
O614 O 0.15922 0.38027 0.61455 0.0
Mn615 Mn 0.17688 0.38193 0.64424 0.0
O616 O 0.11077 0.3729 0.64768 0.0
O617 O 0.18257 0.41851 0.65042 0.0
O618 O 0.1377 0.42302 0.58618 0.0
O619 O 0.10057 0.43604 0.56489 0.0
O620 O 0.19703 0.36172 0.62082 0.0
O621 O 0.15119 0.36414 0.66706 0.0
C622 C 0.06814 0.42862 0.62488 0.0
C623 C 0.08594 0.36397 0.57594 0.0
C624 C 0.16218 0.43304 0.6533 0.0
C625 C 0.17653 0.36429 0.60521 0.0
C626 C 0.12464 0.36231 0.66589 0.0
C627 C 0.1267 0.43685 0.56848 0.0
O628 O 0.088 0.41511 0.61647 0.0
O629 O 0.05073 0.43401 0.60692 0.0
O630 O 0.64733 0.67742 0.60037 0.0
Mn631 Mn 0.62751 0.65003 0.62676 0.0
O632 O 0.68322 0.69915 0.62175 0.0
Mn633 Mn 0.67395 0.68571 0.65488 0.0
O634 O 0.60577 0.62384 0.65384 0.0
O635 O 0.59539 0.64769 0.60296 0.0
Mn636 Mn 0.57744 0.6159 0.60083 0.0
O637 O 0.64262 0.61752 0.6073 0.0
O638 O 0.56429 0.61234 0.63493 0.0
O639 O 0.61103 0.68156 0.64745 0.0
O640 O 0.64547 0.70187 0.6718 0.0
O641 O 0.5632 0.63759 0.57522 0.0
O642 O 0.60462 0.59235 0.59287 0.0
C643 C 0.68181 0.64482 0.66315 0.0
C644 C 0.66842 0.69482 0.60126 0.0
C645 C 0.58027 0.61384 0.65482 0.0
C646 C 0.58185 0.65564 0.58349 0.0
C647 C 0.63071 0.59599 0.59705 0.0
C648 C 0.62006 0.69862 0.66515 0.0
O649 O 0.6612 0.65194 0.6497 0.0
O650 O 0.69738 0.66487 0.67267 0.0
O651 O 0.35355 0.38834 0.41287 0.0
Mn652 Mn 0.37133 0.41819 0.38787 0.0
O653 O 0.31305 0.37331 0.39549 0.0
Mn654 Mn 0.3275 0.37817 0.362 0.0
O655 O 0.39044 0.44738 0.36287 0.0
O656 O 0.40291 0.42393 0.41301 0.0
Mn657 Mn 0.41043 0.45828 0.4202 0.0
O658 O 0.34921 0.44686 0.40768 0.0
O659 O 0.41966 0.47399 0.38808 0.0
O660 O 0.39199 0.38967 0.3674 0.0
O661 O 0.35797 0.3593 0.35321 0.0
O662 O 0.4358 0.4401 0.43859 0.0
O663 O 0.37845 0.46871 0.43626 0.0
C664 C 0.32445 0.41576 0.34254 0.0
C665 C 0.3299 0.37478 0.41449 0.0
C666 C 0.40908 0.46708 0.36583 0.0
C667 C 0.42271 0.41884 0.42843 0.0
C668 C 0.35423 0.46357 0.42689 0.0
C669 C 0.3835 0.36781 0.35531 0.0
O670 O 0.34075 0.41204 0.36177 0.0
O671 O 0.30895 0.39446 0.33579 0.0
H672 H 0.08565 0.26956 0.31299 0.0
H673 H 0.00205 0.24496 0.28851 0.0
H674 H 0.10367 0.25063 0.2724 0.0
H675 H 0.02 0.22692 0.24741 0.0
H676 H 0.06927 0.1779 0.18616 0.0
H677 H 0.04613 0.19418 0.22559 0.0
H678 H 0.10451 0.2646 0.22729 0.0
H679 H 0.12841 0.24746 0.18882 0.0
C680 C 0.07116 0.25975 0.2991 0.0
C681 C 0.04246 0.25909 0.30371 0.0
C682 C 0.08142 0.24927 0.27566 0.0
C683 C 0.06318 0.23819 0.25625 0.0
C684 C 0.03458 0.23556 0.26184 0.0
C685 C 0.02431 0.2458 0.28545 0.0
C686 C 0.07665 0.19716 0.19463 0.0
C687 C 0.10092 0.21115 0.18494 0.0
C688 C 0.06349 0.20646 0.21727 0.0
C689 C 0.07416 0.23016 0.23014 0.0
C690 C 0.09652 0.24566 0.21849 0.0
C691 C 0.10993 0.23613 0.19622 0.0
H692 H 0.06489 0.85836 0.58029 0.0
H693 H 0.02081 0.78105 0.56442 0.0
H694 H 0.08177 0.85975 0.53454 0.0
H695 H 0.03676 0.78306 0.51855 0.0
H696 H 0.02659 0.84555 0.44362 0.0
H697 H 0.02061 0.82411 0.48676 0.0
H698 H 0.1094 0.83086 0.49686 0.0
H699 H 0.11534 0.85201 0.45377 0.0
C700 C 0.05952 0.8414 0.56723 0.0
C701 C 0.04165 0.81967 0.57575 0.0
C702 C 0.0692 0.8421 0.54119 0.0
C703 C 0.06046 0.82145 0.52328 0.0
C704 C 0.04389 0.79901 0.53217 0.0
C705 C 0.03489 0.79792 0.55837 0.0
C706 C 0.04476 0.84125 0.4546 0.0
C707 C 0.07138 0.84994 0.44545 0.0
C708 C 0.04141 0.82898 0.47913 0.0
C709 C 0.06463 0.82602 0.49492 0.0
C710 C 0.09132 0.83286 0.48486 0.0
C711 C 0.09466 0.84473 0.46021 0.0
H712 H 0.52378 0.85801 0.76908 0.0
H713 H 0.44113 0.86839 0.79888 0.0
H714 H 0.50771 0.86386 0.72378 0.0
H715 H 0.42555 0.87461 0.75409 0.0
H716 H 0.396 0.83131 0.68601 0.0
H717 H 0.43424 0.82694 0.71593 0.0
H718 H 0.468 0.90706 0.69686 0.0
H719 H 0.43048 0.9106 0.66528 0.0
C720 C 0.50248 0.86237 0.76604 0.0
C721 C 0.48348 0.86227 0.78739 0.0
C722 C 0.4934 0.86565 0.7402 0.0
C723 C 0.46541 0.8692 0.73573 0.0
C724 C 0.44721 0.87161 0.75725 0.0
C725 C 0.45611 0.86807 0.78282 0.0
C726 C 0.41233 0.84749 0.68711 0.0
C727 C 0.40948 0.87208 0.6747 0.0
C728 C 0.4343 0.8449 0.70411 0.0
C729 C 0.45326 0.86708 0.70927 0.0
C730 C 0.45323 0.8899 0.69343 0.0
C731 C 0.43156 0.89211 0.67569 0.0
H732 H 0.43099 0.22545 0.09137 0.0
H733 H 0.42795 0.30426 0.05751 0.0
H734 H 0.417 0.20473 0.04975 0.0
H735 H 0.4131 0.28327 0.01553 0.0
H736 H 0.43757 0.23111 0.94058 0.0
H737 H 0.43852 0.25767 0.9819 0.0
H738 H 0.38142 0.1971 0.01764 0.0
H739 H 0.38181 0.17035 0.97717 0.0
C740 C 0.42658 0.23837 0.07519 0.0
C741 C 0.43103 0.26644 0.07756 0.0
C742 C 0.41839 0.22649 0.0513 0.0
C743 C 0.41429 0.24241 0.02924 0.0
C744 C 0.4166 0.27056 0.03212 0.0
C745 C 0.42481 0.28252 0.05619 0.0
C746 C 0.42534 0.22373 0.9574 0.0
C747 C 0.41034 0.19852 0.95633 0.0
C748 C 0.42551 0.23897 0.98083 0.0
C749 C 0.41028 0.22923 0.0031 0.0
C750 C 0.39385 0.20481 0.00107 0.0
C751 C 0.39415 0.18948 0.97802 0.0
H752 H 0.96397 0.83576 0.20491 0.0
H753 H 0.04728 0.84129 0.17256 0.0
H754 H 0.98246 0.8381 0.24942 0.0
H755 H 0.06578 0.84494 0.21702 0.0
H756 H 0.09278 0.81032 0.28951 0.0
H757 H 0.06738 0.81001 0.24904 0.0
H758 H 0.00822 0.8598 0.28534 0.0
H759 H 0.03282 0.85785 0.32725 0.0
C760 C 0.98625 0.83852 0.20728 0.0
C761 C 0.00425 0.83776 0.18525 0.0
C762 C -0.00318 0.83974 0.23286 0.0
C763 C 0.02555 0.84057 0.23677 0.0
C764 C 0.04348 0.84308 0.21465 0.0
C765 C 0.03294 0.8414 0.18915 0.0
C766 C 0.07418 0.82105 0.2893 0.0
C767 C 0.06645 0.83684 0.31104 0.0
C768 C 0.05981 0.82116 0.26576 0.0
C769 C 0.03717 0.8368 0.26333 0.0
C770 C 0.02662 0.84886 0.28618 0.0
C771 C 0.04098 0.84837 0.31005 0.0
H772 H 0.46748 0.77576 0.4729 0.0
H773 H 0.47958 0.85768 0.44579 0.0
H774 H 0.45628 0.79241 0.51742 0.0
H775 H 0.4683 0.87407 0.48966 0.0
H776 H 0.48181 0.90165 0.56763 0.0
H777 H 0.49638 0.87117 0.5331 0.0
H778 H 0.4184 0.82315 0.54061 0.0
H779 H 0.4041 0.85334 0.57591 0.0
C780 C 0.46712 0.79722 0.47634 0.0
C781 C 0.47462 0.81556 0.45613 0.0
C782 C 0.46098 0.80667 0.50175 0.0
C783 C 0.4624 0.83446 0.50701 0.0
C784 C 0.46805 0.85254 0.48627 0.0
C785 C 0.47421 0.8432 0.46114 0.0
C786 C 0.4684 0.88382 0.56283 0.0
C787 C 0.44167 0.88005 0.57384 0.0
C788 C 0.47663 0.8665 0.54303 0.0
C789 C 0.45804 0.8455 0.53372 0.0
C790 C 0.43294 0.83938 0.54737 0.0
C791 C 0.42482 0.8566 0.56757 0.0
H792 H 0.40555 0.21042 0.67739 0.0
H793 H 0.49253 0.2324 0.69119 0.0
H794 H 0.3986 0.20177 0.72431 0.0
H795 H 0.48527 0.22395 0.73823 0.0
H796 H 0.4432 0.18856 0.82247 0.0
H797 H 0.46237 0.1883 0.77744 0.0
H798 H 0.40641 0.24718 0.75575 0.0
H799 H 0.38811 0.24794 0.8004 0.0
C800 C 0.42336 0.21248 0.69022 0.0
C801 C 0.44934 0.22302 0.68077 0.0
C802 C 0.41936 0.20762 0.71706 0.0
C803 C 0.44126 0.2132 0.73477 0.0
C804 C 0.46807 0.21989 0.7249 0.0
C805 C 0.47213 0.22466 0.69795 0.0
C806 C 0.43577 0.20198 0.80835 0.0
C807 C 0.41343 0.21725 0.81489 0.0
C808 C 0.4465 0.20169 0.78253 0.0
C809 C 0.43476 0.21672 0.76304 0.0
C810 C 0.41504 0.23464 0.77035 0.0
C811 C 0.40477 0.23521 0.79607 0.0
H812 H 0.07272 0.21621 0.93937 0.0
H813 H 0.06777 0.29422 0.97641 0.0
H814 H 0.08698 0.19824 0.9812 0.0
H815 H 0.08124 0.27595 0.01859 0.0
H816 H 0.04998 0.20624 0.08352 0.0
H817 H 0.05217 0.23807 0.04694 0.0
H818 H 0.1255 0.20379 0.0167 0.0
H819 H 0.12322 0.17227 0.05326 0.0
C820 C 0.07526 0.2296 0.95633 0.0
C821 C 0.06922 0.25653 0.95468 0.0
C822 C 0.08352 0.2194 0.98023 0.0
C823 C 0.08521 0.23577 0.00309 0.0
C824 C 0.08017 0.26299 0.00124 0.0
C825 C 0.07262 0.27339 0.9771 0.0
C826 C 0.06747 0.20674 0.06992 0.0
C827 C 0.08704 0.18754 0.07154 0.0
C828 C 0.06867 0.22479 0.04892 0.0
C829 C 0.08897 0.22322 0.02895 0.0
C830 C 0.10972 0.20544 0.03186 0.0
C831 C 0.10872 0.18775 0.053 0.0
H832 H 0.31402 0.08173 0.20063 0.0
H833 H 0.27973 0.00561 0.16845 0.0
H834 H 0.2693 0.10003 0.19615 0.0
H835 H 0.23464 0.02433 0.16378 0.0
H836 H 0.17708 0.0977 0.13608 0.0
H837 H 0.21161 0.06429 0.14004 0.0
H838 H 0.22289 0.08732 0.22161 0.0
H839 H 0.18923 0.1207 0.21729 0.0
C840 C 0.29712 0.06904 0.19209 0.0
C841 C 0.30038 0.04209 0.18528 0.0
C842 C 0.27136 0.07941 0.1899 0.0
C843 C 0.24829 0.0632 0.18064 0.0
C844 C 0.25199 0.03701 0.17154 0.0
C845 C 0.27785 0.02646 0.17397 0.0
C846 C 0.18605 0.09455 0.15497 0.0
C847 C 0.1817 0.11242 0.17586 0.0
C848 C 0.20584 0.07565 0.15725 0.0
C849 C 0.22084 0.07442 0.18066 0.0
C850 C 0.21229 0.08863 0.20302 0.0
C851 C 0.19276 0.10749 0.20063 0.0
H852 H 0.2667 0.05148 0.46643 0.0
H853 H 0.18927 0.08573 0.45113 0.0
H854 H 0.2462 0.00713 0.45236 0.0
H855 H 0.16911 0.04127 0.43654 0.0
H856 H 0.17127 0.95683 0.3835 0.0
H857 H 0.2008 -0.00247 0.39487 0.0
H858 H 0.18162 0.985 0.47727 0.0
H859 H 0.1518 0.9444 0.46588 0.0
C860 C 0.24551 0.04964 0.45954 0.0
C861 C 0.22955 0.07205 0.45979 0.0
C862 C 0.23387 0.0243 0.45161 0.0
C863 C 0.20629 0.02108 0.44338 0.0
C864 C 0.19051 0.0435 0.44282 0.0
C865 C 0.20199 0.06881 0.45116 0.0
C866 C 0.17465 0.96192 0.4041 0.0
C867 C 0.15994 0.94715 0.42389 0.0
C868 C 0.1911 0.98541 0.41053 0.0
C869 C 0.19323 -0.00583 0.43687 0.0
C870 C 0.18022 0.9784 0.45684 0.0
C871 C 0.16348 0.95513 0.45038 0.0
H872 H 0.20321 0.05128 0.68664 0.0
H873 H 0.16767 0.97469 0.65665 0.0
H874 H 0.24922 0.03974 0.67228 0.0
H875 H 0.21356 0.96356 0.64185 0.0
H876 H 0.29908 0.95258 0.61255 0.0
H877 H 0.25826 0.97846 0.6132 0.0
H878 H 0.27251 -0.00145 0.6953 0.0
H879 H 0.31335 0.97223 0.69467 0.0
C880 C 0.20502 0.03251 0.67598 0.0
C881 C 0.18197 0.01363 0.67313 0.0
C882 C 0.23136 0.02591 0.66795 0.0
C883 C 0.23479 0.00069 0.65637 0.0
C884 C 0.21135 0.98318 0.65072 0.0
C885 C 0.18511 0.98952 0.65921 0.0
C886 C 0.29386 0.96319 0.63051 0.0
C887 C 0.30922 0.96075 0.65354 0.0
C888 C 0.2706 0.97791 0.63084 0.0
C889 C 0.26248 0.99052 0.65421 0.0
C890 C 0.27874 0.9893 0.67692 0.0
C891 C 0.30184 0.97416 0.67669 0.0
H892 H 0.30296 0.974 0.96677 0.0
H893 H 0.22175 0.00334 0.977 0.0
H894 H 0.31983 0.01626 0.94674 0.0
H895 H 0.23914 0.0464 0.95703 0.0
H896 H 0.31802 0.12226 0.95846 0.0
H897 H 0.28547 0.08458 0.97301 0.0
H898 H 0.3034 0.04038 0.90187 0.0
H899 H 0.33604 0.07731 0.88787 0.0
C900 C 0.28869 0.98949 0.96465 0.0
C901 C 0.26107 0.98541 0.97333 0.0
C902 C 0.29832 0.01361 0.95313 0.0
C903 C 0.28067 0.03435 0.9503 0.0
C904 C 0.253 0.03054 0.95903 0.0
C905 C 0.24313 0.006 0.97025 0.0
C906 C 0.31391 0.10494 0.94554 0.0
C907 C 0.3292 0.10249 0.92206 0.0
C908 C 0.29536 0.08351 0.95378 0.0
C909 C 0.2922 0.05972 0.93851 0.0
C910 C 0.30553 0.05857 0.91388 0.0
C911 C 0.32411 0.07965 0.90589 0.0
H912 H 0.29229 0.01967 0.29711 0.0
H913 H 0.30506 0.93555 0.2846 0.0
H914 H 0.2484 0.00689 0.32023 0.0
H915 H 0.26182 0.923 0.30798 0.0
H916 H 0.19337 0.90561 0.36123 0.0
H917 H 0.23777 0.93152 0.35604 0.0
H918 H 0.20386 0.97691 0.29393 0.0
H919 H 0.15896 0.95016 0.29878 0.0
C920 C 0.2861 -0.00146 0.30002 0.0
C921 C 0.30158 0.97849 0.28887 0.0
C922 C 0.26112 -0.00865 0.31308 0.0
C923 C 0.25205 0.96415 0.31559 0.0
C924 C 0.2687 0.94416 0.30633 0.0
C925 C 0.29326 0.95129 0.2929 0.0
C926 C 0.19517 0.92183 0.3471 0.0
C927 C 0.17333 0.92591 0.33004 0.0
C928 C 0.22039 0.93668 0.34436 0.0
C929 C 0.22392 0.95594 0.32463 0.0
C930 C 0.20118 0.96216 0.30943 0.0
C931 C 0.17574 0.94693 0.31202 0.0
H932 H 0.32478 0.11147 0.581 0.0
H933 H 0.24724 0.07109 0.55557 0.0
H934 H 0.3384 0.06972 0.59887 0.0
H935 H 0.26098 0.02879 0.57342 0.0
H936 H 0.33227 0.97048 0.54651 0.0
H937 H 0.29879 0.00454 0.55101 0.0
H938 H 0.33378 0.02931 0.62634 0.0
H939 H 0.36729 -0.0046 0.62152 0.0
C940 C 0.31007 0.09389 0.58043 0.0
C941 C 0.28518 0.09438 0.56662 0.0
C942 C 0.31782 0.06987 0.59072 0.0
C943 C 0.30099 0.04578 0.58703 0.0
C944 C 0.2745 0.04699 0.5762 0.0
C945 C 0.26653 0.07125 0.56622 0.0
C946 C 0.33185 0.98241 0.56451 0.0
C947 C 0.35197 0.98026 0.5838 0.0
C948 C 0.31265 0.00186 0.56721 0.0
C949 C 0.31386 0.01984 0.58895 0.0
C950 C 0.3325 0.01593 0.6093 0.0
C951 C 0.35152 -0.00358 0.60664 0.0
H952 H 0.21538 0.02478 0.77164 0.0
H953 H 0.18267 0.10075 0.79169 0.0
H954 H 0.26097 0.04205 0.78826 0.0
H955 H 0.2281 0.11763 0.80851 0.0
H956 H 0.30802 0.1101 0.86457 0.0
H957 H 0.26884 0.08063 0.84833 0.0
H958 H 0.2864 0.1086 0.7693 0.0
H959 H 0.32572 0.1382 0.78572 0.0
C960 C 0.21778 0.04488 0.78014 0.0
C961 C 0.1956 0.06147 0.78047 0.0
C962 C 0.24379 0.0547 0.7894 0.0
C963 C 0.24766 0.08102 0.79937 0.0
C964 C 0.22532 0.09725 0.8007 0.0
C965 C 0.19947 0.0876 0.79117 0.0
C966 C 0.30462 0.10849 0.84354 0.0
C967 C 0.32019 0.12556 0.82621 0.0
C968 C 0.28206 0.09201 0.83434 0.0
C969 C 0.27506 0.09241 0.80767 0.0
C970 C 0.29189 0.10789 0.78992 0.0
C971 C 0.31433 0.12459 0.79921 0.0
H972 H 0.16362 0.94074 0.08326 0.0
H973 H 0.24761 0.97726 0.08092 0.0
H974 H 0.14644 0.98499 0.08858 0.0
H975 H 0.23073 0.0213 0.08308 0.0
H976 H 0.18944 0.10039 0.09241 0.0
H977 H 0.21132 0.0584 0.09465 0.0
H978 H 0.1393 0.01678 0.05835 0.0
H979 H 0.11677 0.05821 0.05825 0.0
C980 C 0.17842 0.9582 0.08466 0.0
C981 C 0.2068 0.9557 0.0806 0.0
C982 C 0.16862 0.98369 0.08681 0.0
C983 C 0.18699 0.00698 0.08406 0.0
C984 C 0.21567 0.00413 0.08447 0.0
C985 C 0.22548 0.97861 0.08345 0.0
C986 C 0.17824 0.08213 0.08519 0.0
C987 C 0.15055 0.08217 0.07731 0.0
C988 C 0.19079 0.05792 0.08644 0.0
C989 C 0.17607 0.03352 0.07902 0.0
C990 C 0.15036 0.03466 0.06654 0.0
C991 C 0.13765 0.05868 0.06582 0.0
H992 H 0.18755 0.36027 0.0783 0.0
H993 H 0.21804 0.32801 0.00501 0.0
H994 H 0.16702 0.31563 0.08988 0.0
H995 H 0.1992 0.28305 0.01737 0.0
H996 H 0.16387 0.20207 0.05449 0.0
H997 H 0.16478 0.24621 0.03282 0.0
H998 H 0.19967 0.28402 0.10346 0.0
H999 H 0.1969 0.24138 0.12499 0.0
C1000 C 0.18921 0.34374 0.06442 0.0
C1001 C 0.20504 0.34724 0.04125 0.0
C1002 C 0.17756 0.31821 0.07099 0.0
C1003 C 0.1827 0.29575 0.05505 0.0
C1004 C 0.19522 0.29991 0.03018 0.0
C1005 C 0.20615 0.32565 0.02321 0.0
C1006 C 0.17089 0.22006 0.06533 0.0
C1007 C 0.1791 0.2184 0.09167 0.0
C1008 C 0.17174 0.24517 0.05297 0.0
C1009 C 0.181 0.26873 0.06695 0.0
C1010 C 0.19107 0.26651 0.09256 0.0
C1011 C 0.19012 0.2418 0.10472 0.0
H1012 H 0.65893 0.23005 0.00449 0.0
H1013 H 0.68256 0.21446 0.92345 0.0
H1014 H 0.65111 0.27657 -0.00687 0.0
H1015 H 0.67528 0.26066 0.91261 0.0
H1016 H 0.70026 0.34245 0.90465 0.0
H1017 H 0.70572 0.30892 0.93855 0.0
H1018 H 0.61686 0.29618 0.94685 0.0
H1019 H 0.61149 0.3277 0.91185 0.0
C1020 C 0.6617 0.23627 0.98418 0.0
C1021 C 0.67182 0.21877 0.96489 0.0
C1022 C 0.65775 0.26293 0.97793 0.0
C1023 C 0.664 0.27212 0.95243 0.0
C1024 C 0.67144 0.254 0.93269 0.0
C1025 C 0.67506 0.22748 0.93878 0.0
C1026 C 0.682 0.33374 0.91497 0.0
C1027 C 0.65541 0.33817 0.9062 0.0
C1028 C 0.68511 0.31474 0.93442 0.0
C1029 C 0.6616 0.30007 0.94495 0.0
C1030 C 0.63516 0.3076 0.93919 0.0
C1031 C 0.63207 0.32613 0.91938 0.0
H1032 H 0.08845 0.48875 0.20713 0.0
H1033 H 0.03527 0.48795 0.27622 0.0
H1034 H 0.04983 0.47202 0.18044 0.0
H1035 H -0.00406 0.46988 0.2493 0.0
H1036 H 0.93178 0.48617 0.18273 0.0
H1037 H 0.96846 0.49035 0.21605 0.0
H1038 H 0.01657 0.43761 0.16883 0.0
H1039 H 0.9811 0.4353 0.13519 0.0
C1040 C 0.06852 0.48408 0.21675 0.0
C1041 C 0.06464 0.49004 0.24356 0.0
C1042 C 0.04631 0.47428 0.20146 0.0
C1043 C 0.01962 0.46995 0.21265 0.0
C1044 C 0.01618 0.47356 0.24006 0.0
C1045 C 0.03867 0.48351 0.25551 0.0
C1046 C 0.95048 0.47591 0.17959 0.0
C1047 C 0.95443 0.46136 0.15619 0.0
C1048 C 0.97118 0.4778 0.19876 0.0
C1049 C -0.00438 0.46455 0.19492 0.0
C1050 C -0.00157 0.44867 0.17209 0.0
C1051 C 0.97826 0.44747 0.15277 0.0
H1052 H 0.7782 0.83819 0.45286 0.0
H1053 H 0.84803 0.83864 0.50532 0.0
H1054 H 0.78635 0.79299 0.43821 0.0
H1055 H 0.85658 0.79297 0.48989 0.0
H1056 H 0.87313 0.73767 0.40958 0.0
H1057 H 0.86989 0.77351 0.44242 0.0
H1058 H 0.78475 0.74518 0.45852 0.0
H1059 H 0.78819 0.70913 0.4257 0.0
C1060 C 0.79556 0.8288 0.46104 0.0
C1061 C 0.81264 0.8422 0.48007 0.0
C1062 C 0.79989 0.80265 0.45299 0.0
C1063 C 0.82168 0.78927 0.4634 0.0
C1064 C 0.83938 0.80276 0.48189 0.0
C1065 C 0.83466 0.82892 0.49044 0.0
C1066 C 0.85436 0.73799 0.42142 0.0
C1067 C 0.831 0.72053 0.41544 0.0
C1068 C 0.85241 0.75869 0.44007 0.0
C1069 C 0.8269 0.76241 0.45251 0.0
C1070 C 0.80459 0.74285 0.44894 0.0
C1071 C 0.80658 0.72213 0.43034 0.0
H1072 H 0.95992 0.01181 0.24047 0.0
H1073 H 0.93069 0.08601 0.21338 0.0
H1074 H 0.00784 0.02879 0.23078 0.0
H1075 H 0.97883 0.10341 0.20422 0.0
H1076 H 0.0684 0.13049 0.19447 0.0
H1077 H 0.03073 0.11369 0.2243 0.0
H1078 H 0.02396 0.03823 0.18113 0.0
H1079 H 0.06049 0.05549 0.1508 0.0
C1080 C 0.96398 0.03212 0.2332 0.0
C1081 C 0.94196 0.0477 0.22746 0.0
C1082 C -0.00872 0.0418 0.22779 0.0
C1083 C -0.00306 0.06738 0.2169 0.0
C1084 C 0.97496 0.08375 0.213 0.0
C1085 C 0.94751 0.07383 0.218 0.0
C1086 C 0.05955 0.10998 0.19211 0.0
C1087 C 0.06692 0.09432 0.17031 0.0
C1088 C 0.03799 0.10045 0.20904 0.0
C1089 C 0.02432 0.07486 0.20472 0.0
C1090 C 0.03423 0.05801 0.18491 0.0
C1091 C 0.05514 0.06782 0.16759 0.0
H1092 H 0.29075 0.72678 0.55945 0.0
H1093 H 0.28333 0.75808 0.48095 0.0
H1094 H 0.30513 0.77179 0.57576 0.0
H1095 H 0.29792 0.80352 0.49761 0.0
H1096 H 0.35702 0.86873 0.55549 0.0
H1097 H 0.34375 0.82954 0.52734 0.0
H1098 H 0.26976 0.81282 0.57467 0.0
H1099 H 0.28277 0.85164 0.60276 0.0
C1100 C 0.29259 0.74322 0.54562 0.0
C1101 C 0.28541 0.73912 0.5191 0.0
C1102 C 0.30075 0.76891 0.55495 0.0
C1103 C 0.30187 0.79092 0.53795 0.0
C1104 C 0.29689 0.7867 0.51099 0.0
C1105 C 0.28865 0.76081 0.50156 0.0
C1106 C 0.33739 0.8573 0.55923 0.0
C1107 C 0.32122 0.86275 0.58166 0.0
C1108 C 0.3299 0.83492 0.54316 0.0
C1109 C 0.30616 0.8181 0.54942 0.0
C1110 C 0.28841 0.82543 0.56987 0.0
C1111 C 0.29585 0.84761 0.58588 0.0
H1112 H 0.07862 0.61771 0.33643 0.0
H1113 H 0.04945 0.59663 0.25812 0.0
H1114 H 0.03393 0.63522 0.34717 0.0
H1115 H 0.00439 0.61305 0.26928 0.0
H1116 H 0.93029 0.59028 0.33702 0.0
H1117 H 0.97085 0.58944 0.30779 0.0
H1118 H -0.00252 0.67065 0.33198 0.0
H1119 H 0.95656 0.6716 0.36075 0.0
C1120 C 0.06294 0.61753 0.32134 0.0
C1121 C 0.06748 0.60595 0.2965 0.0
C1122 C 0.03745 0.62761 0.32739 0.0
C1123 C 0.01584 0.62553 0.30896 0.0
C1124 C 0.02082 0.61513 0.28368 0.0
C1125 C 0.04662 0.60582 0.27735 0.0
C1126 C 0.94387 0.6085 0.33471 0.0
C1127 C 0.94027 0.63112 0.35073 0.0
C1128 C 0.96714 0.60801 0.31812 0.0
C1129 C 0.98737 0.62989 0.318 0.0
C1130 C 0.98216 0.65356 0.33185 0.0
C1131 C 0.95867 0.65417 0.34809 0.0
H1132 H 0.44276 0.48543 0.80162 0.0
H1133 H 0.43671 0.41067 0.75697 0.0
H1134 H 0.48825 0.47604 0.81668 0.0
H1135 H 0.48266 0.40091 0.77283 0.0
H1136 H 0.52865 0.39219 0.85955 0.0
H1137 H 0.49638 0.39353 0.8231 0.0
H1138 H 0.53822 0.46883 0.79796 0.0
H1139 H 0.57049 0.46744 0.83473 0.0
C1140 C 0.45104 0.46681 0.79527 0.0
C1141 C 0.436 0.44851 0.77858 0.0
C1142 C 0.47738 0.46176 0.80335 0.0
C1143 C 0.48909 0.43809 0.79533 0.0
C1144 C 0.47411 0.41952 0.77881 0.0
C1145 C 0.44781 0.42491 0.77016 0.0
C1146 C 0.53166 0.40832 0.84543 0.0
C1147 C 0.55152 0.42988 0.84975 0.0
C1148 C 0.51338 0.409 0.82452 0.0
C1149 C 0.51467 0.43151 0.80817 0.0
C1150 C 0.5369 0.45135 0.81052 0.0
C1151 C 0.55516 0.45067 0.8315 0.0
H1152 H 0.91315 0.79847 0.71434 0.0
H1153 H -0.00358 0.8347 0.72548 0.0
H1154 H 0.90262 0.80632 0.76058 0.0
H1155 H 0.98643 0.84147 0.77228 0.0
H1156 H 0.93549 0.88965 0.83394 0.0
H1157 H 0.96015 0.87072 0.79717 0.0
H1158 H 0.90959 0.79556 0.80518 0.0
H1159 H 0.88381 0.81531 0.84119 0.0
C1160 C 0.92924 0.80796 0.72682 0.0
C1161 C 0.95534 0.81654 0.71633 0.0
C1162 C 0.92345 0.812 0.75346 0.0
C1163 C 0.94381 0.8243 0.77029 0.0
C1164 C 0.97022 0.83219 0.75983 0.0
C1165 C 0.97586 0.82853 0.73303 0.0
C1166 C 0.93043 0.86873 0.82855 0.0
C1167 C 0.90726 0.85416 0.83964 0.0
C1168 C 0.9446 0.85779 0.80742 0.0
C1169 C 0.93601 0.83199 0.79754 0.0
C1170 C 0.91587 0.81591 0.81168 0.0
C1171 C 0.9013 0.82707 0.83242 0.0
H1172 H 0.00137 0.27679 0.43488 0.0
H1173 H 0.91444 0.29099 0.43561 0.0
H1174 H -0.0042 0.25506 0.47734 0.0
H1175 H 0.90843 0.2679 0.47781 0.0
H1176 H 0.90985 0.24512 0.5638 0.0
H1177 H 0.91915 0.27191 0.5242 0.0
H1178 H 0.97677 0.21549 0.49666 0.0
H1179 H 0.96776 0.1892 0.53581 0.0
C1180 C 0.98088 0.27474 0.44387 0.0
C1181 C 0.95829 0.28547 0.43179 0.0
C1182 C 0.97768 0.2623 0.46833 0.0
C1183 C 0.95167 0.25978 0.48119 0.0
C1184 C 0.9289 0.27002 0.46881 0.0
C1185 C 0.93222 0.28293 0.44446 0.0
C1186 C 0.92454 0.23852 0.54935 0.0
C1187 C 0.93707 0.21433 0.55259 0.0
C1188 C 0.92984 0.25384 0.52658 0.0
C1189 C 0.94816 0.24551 0.50682 0.0
C1190 C 0.96247 0.22261 0.51128 0.0
C1191 C 0.95715 0.20738 0.53387 0.0
H1192 H 0.5766 0.25484 0.18907 0.0
H1193 H 0.50126 0.20932 0.21412 0.0
H1194 H 0.59905 0.24336 0.22923 0.0
H1195 H 0.52434 0.19656 0.25425 0.0
H1196 H 0.56649 0.20271 0.33556 0.0
H1197 H 0.54225 0.21574 0.29593 0.0
H1198 H 0.61677 0.20709 0.24956 0.0
H1199 H 0.64087 0.19599 0.2885 0.0
C1200 C 0.56507 0.24173 0.20291 0.0
C1201 C 0.53725 0.23291 0.19846 0.0
C1202 C 0.57793 0.23514 0.226 0.0
C1203 C 0.56344 0.21914 0.24507 0.0
C1204 C 0.53589 0.20929 0.24013 0.0
C1205 C 0.52288 0.2161 0.21694 0.0
C1206 C 0.57762 0.20417 0.3169 0.0
C1207 C 0.60562 0.19868 0.31522 0.0
C1208 C 0.56375 0.21128 0.29421 0.0
C1209 C 0.5776 0.21242 0.26957 0.0
C1210 C 0.6056 0.20708 0.26821 0.0
C1211 C 0.61947 0.20069 0.29071 0.0
H1212 H 0.57696 0.8224 0.90946 0.0
H1213 H 0.53786 0.89434 0.93263 0.0
H1214 H 0.59452 0.81893 0.95413 0.0
H1215 H 0.55563 0.89065 0.97709 0.0
H1216 H 0.62794 0.85932 0.04354 0.0
H1217 H 0.62381 0.85431 -0.00418 0.0
H1218 H 0.53494 0.84112 0.00439 0.0
H1219 H 0.53896 0.84592 0.05219 0.0
C1220 C 0.573 0.83806 0.92371 0.0
C1221 C 0.55514 0.85812 0.91783 0.0
C1222 C 0.58299 0.83591 0.94924 0.0
C1223 C 0.57543 0.85395 0.96886 0.0
C1224 C 0.56099 0.87615 0.96213 0.0
C1225 C 0.55103 0.87834 0.93669 0.0
C1226 C 0.60771 0.85339 0.03546 0.0
C1227 C 0.58369 0.85315 0.05146 0.0
C1228 C 0.60538 0.85106 0.0081 0.0
C1229 C 0.57906 0.84819 -0.00319 0.0
C1230 C 0.55541 0.84381 0.01296 0.0
C1231 C 0.55772 0.84611 0.04024 0.0
H1232 H 0.02287 0.26296 0.79834 0.0
H1233 H 0.93604 0.25362 0.8195 0.0
H1234 H 0.01196 0.24623 0.7535 0.0
H1235 H 0.92522 0.23576 0.77508 0.0
H1236 H 0.92077 0.18277 0.70113 0.0
H1237 H 0.94181 0.19227 0.7441 0.0
H1238 H 0.97628 0.26943 0.71648 0.0
H1239 H 0.95451 0.26012 0.67336 0.0
C1240 C 0.00158 0.2565 0.79356 0.0
C1241 C 0.98028 0.25903 0.81234 0.0
C1242 C -0.00464 0.24716 0.76796 0.0
C1243 C 0.96782 0.23959 0.761 0.0
C1244 C 0.94666 0.24123 0.78011 0.0
C1245 C 0.95279 0.25131 0.80546 0.0
C1246 C 0.93408 0.20114 0.70371 0.0
C1247 C 0.93671 0.22039 0.68366 0.0
C1248 C 0.94572 0.20673 0.72846 0.0
C1249 C 0.96054 0.23156 0.73354 0.0
C1250 C 0.96509 0.25003 0.71291 0.0
C1251 C 0.95285 0.24467 0.68824 0.0
H1252 H 0.5063 0.20903 0.54694 0.0
H1253 H 0.58034 0.26217 0.55931 0.0
H1254 H 0.52415 0.19578 0.50424 0.0
H1255 H 0.59866 0.24789 0.51616 0.0
H1256 H 0.60687 0.16336 0.45396 0.0
H1257 H 0.60505 0.19148 0.49381 0.0
H1258 H 0.53822 0.23177 0.46064 0.0
H1259 H 0.54011 0.20373 0.4208 0.0
C1260 C 0.52668 0.2175 0.54084 0.0
C1261 C 0.54183 0.23682 0.55648 0.0
C1262 C 0.53672 0.21011 0.51623 0.0
C1263 C 0.56236 0.22142 0.50682 0.0
C1264 C 0.57858 0.23935 0.52298 0.0
C1265 C 0.56822 0.24725 0.54764 0.0
C1266 C 0.59311 0.17947 0.45451 0.0
C1267 C 0.57387 0.18177 0.43429 0.0
C1268 C 0.59202 0.19546 0.47732 0.0
C1269 C 0.5714 0.21352 0.48018 0.0
C1270 C 0.55441 0.21803 0.45867 0.0
C1271 C 0.55556 0.20212 0.43588 0.0
H1272 H 0.56936 0.79275 0.32033 0.0
H1273 H 0.57818 0.87955 0.32636 0.0
H1274 H 0.57736 0.79495 0.27369 0.0
H1275 H 0.58969 0.88191 0.27952 0.0
H1276 H 0.5809 0.88579 0.19455 0.0
H1277 H 0.56818 0.87925 0.2403 0.0
H1278 H 0.60132 0.80103 0.23672 0.0
H1279 H 0.6099 0.80643 0.18999 0.0
C1280 C 0.57433 0.8124 0.31184 0.0
C1281 C 0.57239 0.83605 0.32692 0.0
C1282 C 0.57894 0.81368 0.28476 0.0
C1283 C 0.5831 0.83867 0.27223 0.0
C1284 C 0.58492 0.86228 0.28805 0.0
C1285 C 0.57911 0.86101 0.31509 0.0
C1286 C 0.58307 0.86632 0.20294 0.0
C1287 C 0.59556 0.84635 0.18843 0.0
C1288 C 0.5772 0.86302 0.22973 0.0
C1289 C 0.58487 0.84011 0.24288 0.0
C1290 C 0.59507 0.81908 0.2277 0.0
C1291 C 0.59992 0.82203 0.20069 0.0
H1292 H -0.00702 0.79957 0.02188 0.0
H1293 H 0.91855 0.82801 0.05607 0.0
H1294 H 0.97798 0.81128 0.97792 0.0
H1295 H 0.90425 0.84166 0.01285 0.0
H1296 H 0.88126 0.87445 0.94381 0.0
H1297 H 0.88945 0.83547 0.96973 0.0
H1298 H 0.97779 0.85229 0.95715 0.0
H1299 H 0.96896 0.88948 0.92913 0.0
C1300 C 0.97342 0.80847 0.01981 0.0
C1301 C 0.95707 0.81359 0.04205 0.0
C1302 C 0.96474 0.81506 -0.00528 0.0
C1303 C 0.94001 0.82771 -0.00835 0.0
C1304 C 0.92312 0.83149 0.0141 0.0
C1305 C 0.93146 0.82417 0.03902 0.0
C1306 C 0.90212 0.86838 0.94466 0.0
C1307 C 0.92442 0.88476 0.93434 0.0
C1308 C 0.90701 0.84646 0.96026 0.0
C1309 C 0.93434 0.84154 0.96672 0.0
C1310 C 0.95642 0.85553 0.95304 0.0
C1311 C 0.95143 0.87704 0.93699 0.0
H1312 H 0.71452 0.04177 0.8188 0.0
H1313 H 0.69515 0.95798 0.79864 0.0
H1314 H 0.76274 0.03242 0.82797 0.0
H1315 H 0.74262 0.94879 0.80768 0.0
H1316 H 0.82108 0.93609 0.78881 0.0
H1317 H 0.78705 0.96777 0.77916 0.0
H1318 H 0.79222 -0.00172 0.85913 0.0
H1319 H 0.82883 0.96796 0.8676 0.0
C1320 C 0.72028 0.02124 0.81734 0.0
C1321 C 0.70124 0.00054 0.80793 0.0
C1322 C 0.74789 0.01605 0.82214 0.0
C1323 C 0.7565 0.99018 0.81741 0.0
C1324 C 0.73669 0.96915 0.81054 0.0
C1325 C 0.70941 0.97427 0.80582 0.0
C1326 C 0.81642 0.95085 0.80379 0.0
C1327 C 0.8255 0.94843 0.82973 0.0
C1328 C 0.79675 0.96884 0.79834 0.0
C1329 C 0.7858 0.98401 0.81897 0.0
C1330 C 0.79966 0.98601 0.84317 0.0
C1331 C 0.82026 0.96856 0.84819 0.0
H1332 H 0.78821 0.0082 0.4837 0.0
H1333 H 0.80538 0.98668 0.56359 0.0
H1334 H 0.79297 0.05583 0.4962 0.0
H1335 H 0.81191 0.03413 0.57593 0.0
H1336 H 0.81489 0.11658 0.6006 0.0
H1337 H 0.79142 0.07451 0.5845 0.0
H1338 H 0.82647 0.09012 0.5068 0.0
H1339 H 0.84873 0.13238 0.52287 0.0
C1340 C 0.79351 0.01376 0.50386 0.0
C1341 C 0.79669 -0.00615 0.52268 0.0
C1342 C 0.79611 0.04106 0.51109 0.0
C1343 C 0.80252 0.04908 0.53721 0.0
C1344 C 0.80604 0.02893 0.55585 0.0
C1345 C 0.8028 0.00168 0.54874 0.0
C1346 C 0.81605 0.11179 0.57975 0.0
C1347 C 0.83402 0.12743 0.5631 0.0
C1348 C 0.80323 0.08728 0.5706 0.0
C1349 C 0.8082 0.07813 0.54464 0.0
C1350 C 0.82239 0.09608 0.52699 0.0
C1351 C 0.83501 0.12059 0.53614 0.0
H1352 H 0.79314 0.01651 0.33927 0.0
H1353 H 0.79807 0.0781 0.2799 0.0
H1354 H 0.746 0.02734 0.35075 0.0
H1355 H 0.75149 0.0892 0.29161 0.0
H1356 H 0.66846 0.10287 0.30155 0.0
H1357 H 0.70295 0.07179 0.28921 0.0
H1358 H 0.72313 0.06414 0.3714 0.0
H1359 H 0.6885 0.0949 0.38332 0.0
C1360 C 0.78439 0.03271 0.32904 0.0
C1361 C 0.79943 0.04662 0.30882 0.0
C1362 C 0.75726 0.03864 0.33538 0.0
C1363 C 0.74467 0.0586 0.32162 0.0
C1364 C 0.76012 0.07302 0.30198 0.0
C1365 C 0.7871 0.06707 0.29563 0.0
C1366 C 0.67886 0.09295 0.31704 0.0
C1367 C 0.67619 0.1014 0.34338 0.0
C1368 C 0.69906 0.07561 0.30997 0.0
C1369 C 0.71674 0.06669 0.32926 0.0
C1370 C 0.71019 0.071 0.356 0.0
C1371 C 0.68988 0.08829 0.36299 0.0
H1372 H 0.71414 0.08721 0.08018 0.0
H1373 H 0.70482 0.08029 -0.00432 0.0
H1374 H 0.69897 0.03961 0.08443 0.0
H1375 H 0.69119 0.03248 -0.00036 0.0
H1376 H 0.62897 0.96156 0.02716 0.0
H1377 H 0.65363 0.00365 0.0144 0.0
H1378 H 0.71295 -0.00472 0.0763 0.0
H1379 H 0.68731 0.95354 0.08987 0.0
C1380 C 0.70883 0.07544 0.06257 0.0
C1381 C 0.71032 0.08736 0.0377 0.0
C1382 C 0.70067 0.0481 0.06488 0.0
C1383 C 0.69447 0.03208 0.04229 0.0
C1384 C 0.69571 0.04421 0.01743 0.0
C1385 C 0.7033 0.07164 0.01519 0.0
C1386 C 0.64774 0.96833 0.03758 0.0
C1387 C 0.65562 0.95496 0.06016 0.0
C1388 C 0.66199 -0.00754 0.03019 0.0
C1389 C 0.68454 0.00339 0.04512 0.0
C1390 C 0.69491 0.98784 0.06514 0.0
C1391 C 0.6805 0.96373 0.07266 0.0
H1392 H 0.68878 0.1062 0.69982 0.0
H1393 H 0.72939 0.05685 0.7542 0.0
H1394 H 0.73366 0.13079 0.68946 0.0
H1395 H 0.77422 0.08131 0.74386 0.0
H1396 H 0.84061 0.15942 0.72419 0.0
H1397 H 0.79867 0.13547 0.74327 0.0
H1398 H 0.77627 0.10404 0.66603 0.0
H1399 H 0.81827 0.12678 0.64734 0.0
C1400 C 0.70729 0.10104 0.70977 0.0
C1401 C 0.70615 0.07971 0.72744 0.0
C1402 C 0.73276 0.11496 0.70396 0.0
C1403 C 0.75713 0.10755 0.71576 0.0
C1404 C 0.7556 0.08732 0.7347 0.0
C1405 C 0.73016 0.07337 0.74045 0.0
C1406 C 0.82718 0.14649 0.71163 0.0
C1407 C 0.8326 0.14466 0.68439 0.0
C1408 C 0.80321 0.13315 0.72242 0.0
C1409 C 0.78421 0.11867 0.70584 0.0
C1410 C 0.7906 0.11546 0.67902 0.0
C1411 C 0.81481 0.12806 0.66844 0.0
H1412 H 0.66764 0.94836 0.48511 0.0
H1413 H 0.72649 0.97014 0.42267 0.0
H1414 H 0.64122 0.98597 0.47412 0.0
H1415 H 0.69951 0.00765 0.41117 0.0
H1416 H 0.66896 0.09179 0.42577 0.0
H1417 H 0.69243 0.05106 0.43357 0.0
H1418 H 0.61292 0.00575 0.44231 0.0
H1419 H 0.58961 0.04615 0.43444 0.0
C1420 C 0.67449 0.96075 0.46852 0.0
C1421 C 0.69935 0.95656 0.45502 0.0
C1422 C 0.65934 0.98235 0.46222 0.0
C1423 C 0.66865 0.00017 0.44219 0.0
C1424 C 0.69226 -0.00535 0.42719 0.0
C1425 C 0.70746 0.97294 0.43349 0.0
C1426 C 0.65656 0.07311 0.42934 0.0
C1427 C 0.62746 0.07215 0.42893 0.0
C1428 C 0.66996 0.04976 0.43364 0.0
C1429 C 0.6545 0.02505 0.43796 0.0
C1430 C 0.62543 0.02443 0.43897 0.0
C1431 C 0.61207 0.0477 0.43459 0.0
H1432 H 0.7779 0.9693 0.28165 0.0
H1433 H 0.80408 0.94406 0.20412 0.0
H1434 H 0.72968 0.968 0.26662 0.0
H1435 H 0.75624 0.94205 0.18932 0.0
H1436 H 0.6887 0.96778 0.15409 0.0
H1437 H 0.727 0.98305 0.18267 0.0
H1438 H 0.69019 0.93448 0.24573 0.0
H1439 H 0.65141 0.92001 0.21729 0.0
C1440 C 0.77305 0.96243 0.26174 0.0
C1441 C 0.7943 0.95694 0.24377 0.0
C1442 C 0.74571 0.96215 0.2531 0.0
C1443 C 0.73975 0.95635 0.22654 0.0
C1444 C 0.76068 0.9479 0.20959 0.0
C1445 C 0.78785 0.94845 0.21809 0.0
C1446 C 0.68763 0.9622 0.17469 0.0
C1447 C 0.66792 0.94211 0.18339 0.0
C1448 C 0.70978 0.9705 0.19092 0.0
C1449 C 0.712 0.95866 0.21574 0.0
C1450 C 0.68912 0.94338 0.22643 0.0
C1451 C 0.66679 0.93536 0.21023 0.0
H1452 H 0.83282 0.12059 0.96535 0.0
H1453 H 0.74923 0.0955 0.94135 0.0
H1454 H 0.84703 0.07611 0.95406 0.0
H1455 H 0.76298 0.05054 0.93143 0.0
H1456 H 0.80719 0.97449 0.90462 0.0
H1457 H 0.78854 0.01843 0.90851 0.0
H1458 H 0.83753 0.03555 0.97833 0.0
H1459 H 0.8582 -0.00676 0.97266 0.0
C1460 C 0.81771 0.10575 0.95695 0.0
C1461 C 0.78991 0.11123 0.95465 0.0
C1462 C 0.82563 0.08014 0.95097 0.0
C1463 C 0.80575 0.05947 0.94317 0.0
C1464 C 0.77867 0.06589 0.93782 0.0
C1465 C 0.77086 0.09174 0.9433 0.0
C1466 C 0.81436 0.98791 0.92038 0.0
C1467 C 0.83617 0.98164 0.93665 0.0
C1468 C 0.80333 0.0129 0.92292 0.0
C1469 C 0.81312 0.03123 0.94264 0.0
C1470 C 0.83106 0.02264 0.9618 0.0
C1471 C 0.84255 -0.00187 0.9588 0.0
H1472 H 0.7717 0.71491 0.93172 0.0
H1473 H 0.80068 0.73446 0.01052 0.0
H1474 H 0.78555 0.76123 0.91826 0.0
H1475 H 0.81388 0.78079 -0.00296 0.0
H1476 H 0.78422 0.86296 0.94162 0.0
H1477 H 0.77229 0.8191 0.96263 0.0
H1478 H 0.84784 0.78998 0.93143 0.0
H1479 H 0.86006 0.8336 0.91121 0.0
C1480 C 0.78099 0.72908 0.94608 0.0
C1481 C 0.78542 0.72116 0.97202 0.0
C1482 C 0.78873 0.75544 0.93845 0.0
C1483 C 0.8004 0.77422 0.95683 0.0
C1484 C 0.80473 0.76646 0.98274 0.0
C1485 C 0.79745 0.74001 -0.00973 0.0
C1486 C 0.79861 0.84742 0.94019 0.0
C1487 C 0.82327 0.85156 0.92546 0.0
C1488 C 0.79178 0.82249 0.95195 0.0
C1489 C 0.80926 0.80155 0.94838 0.0
C1490 C 0.83432 0.80608 0.93451 0.0
C1491 C 0.84136 0.83099 0.92324 0.0
H1492 H 0.33991 0.85071 0.02995 0.0
H1493 H 0.25206 0.82743 0.03244 0.0
H1494 H 0.34907 0.80691 0.04692 0.0
H1495 H 0.26097 0.78258 0.04519 0.0
H1496 H 0.28371 0.72922 0.11296 0.0
H1497 H 0.27055 0.76087 0.08109 0.0
H1498 H 0.35242 0.76189 0.04504 0.0
H1499 H 0.36598 0.7323 0.07941 0.0
C1500 C 0.32265 0.83595 0.0336 0.0
C1501 C 0.29533 0.84245 0.0301 0.0
C1502 C 0.32782 0.81053 0.04277 0.0
C1503 C 0.30578 0.79074 0.04752 0.0
C1504 C 0.27855 0.79718 0.04264 0.0
C1505 C 0.27338 0.82295 0.03498 0.0
C1506 C 0.29852 0.7355 0.09758 0.0
C1507 C 0.32597 0.72867 0.09872 0.0
C1508 C 0.29101 0.75376 0.07903 0.0
C1509 C 0.31082 0.76519 0.06094 0.0
C1510 C 0.33696 0.75462 0.05942 0.0
C1511 C 0.34462 0.73683 0.07855 0.0
H1512 H 0.95278 0.54118 0.74 0.0
H1513 H 0.93192 0.51052 0.81757 0.0
H1514 H -0.00172 0.55931 0.75606 0.0
H1515 H 0.97661 0.52903 0.83371 0.0
H1516 H 0.06143 0.54333 0.8566 0.0
H1517 H 0.0251 0.52087 0.82947 0.0
H1518 H 0.01922 0.59435 0.78642 0.0
H1519 H 0.05635 0.6165 0.81324 0.0
C1520 C 0.95774 0.53876 0.76056 0.0
C1521 C 0.93883 0.52455 0.7776 0.0
C1522 C 0.98382 0.54895 0.76969 0.0
C1523 C -0.00868 0.54513 0.79601 0.0
C1524 C 0.97194 0.53158 0.8131 0.0
C1525 C 0.94614 0.52127 0.80397 0.0
C1526 C 0.05337 0.55421 0.84039 0.0
C1527 C 0.06159 0.58159 0.83692 0.0
C1528 C 0.03222 0.54153 0.82516 0.0
C1529 C 0.01859 0.55614 0.80646 0.0
C1530 C 0.02918 0.58259 0.8008 0.0
C1531 C 0.05062 0.59525 0.81596 0.0
H1532 H 0.19496 0.20834 0.57947 0.0
H1533 H 0.18414 0.22619 0.49735 0.0
H1534 H 0.17967 0.25252 0.59189 0.0
H1535 H 0.17004 0.27088 0.50981 0.0
H1536 H 0.20664 0.35382 0.56132 0.0
H1537 H 0.20551 0.3101 0.53839 0.0
H1538 H 0.13295 0.28251 0.58375 0.0
H1539 H 0.13376 0.32632 0.60618 0.0
C1540 C 0.18865 0.22144 0.56416 0.0
C1541 C 0.19038 0.21372 0.5375 0.0
C1542 C 0.17993 0.24666 0.57123 0.0
C1543 C 0.17358 0.26493 0.55176 0.0
C1544 C 0.17456 0.257 0.52514 0.0
C1545 C 0.18246 0.23141 0.51809 0.0
C1546 C 0.18957 0.33891 0.56521 0.0
C1547 C 0.16989 0.34356 0.58497 0.0
C1548 C 0.189 0.3139 0.55225 0.0
C1549 C 0.16921 0.29302 0.55949 0.0
C1550 C 0.14829 0.29838 0.57778 0.0
C1551 C 0.14854 0.32354 0.59033 0.0
H1552 H 0.02566 0.00991 0.73665 0.0
H1553 H 0.06241 0.03304 0.8116 0.0
H1554 H 0.981 -0.0015 0.7589 0.0
H1555 H 0.01853 0.02092 0.83381 0.0
H1556 H 0.93737 0.01782 0.86944 0.0
H1557 H 0.97268 0.03627 0.8386 0.0
H1558 H 0.9599 0.96481 0.78961 0.0
H1559 H 0.92375 0.94681 0.82008 0.0
C1560 C 0.0242 0.01227 0.75789 0.0
C1561 C 0.04735 0.02234 0.7725 0.0
C1562 C -0.00131 0.00585 0.77057 0.0
C1563 C -0.0039 0.00927 0.79804 0.0
C1564 C 0.01954 0.01889 0.81253 0.0
C1565 C 0.04479 0.02556 0.79988 0.0
C1566 C 0.94148 0.00648 0.85161 0.0
C1567 C 0.92831 0.9807 0.84734 0.0
C1568 C 0.96183 0.01692 0.83408 0.0
C1569 C 0.96973 0.00155 0.81221 0.0
C1570 C 0.95439 0.97706 0.80638 0.0
C1571 C 0.93365 0.96675 0.8238 0.0
H1572 H 0.71642 0.34464 0.41795 0.0
H1573 H 0.67494 0.34158 0.49413 0.0
H1574 H 0.69911 0.2982 0.40923 0.0
H1575 H 0.65728 0.29504 0.48487 0.0
H1576 H 0.61987 0.21898 0.42423 0.0
H1577 H 0.62761 0.26478 0.44155 0.0
H1578 H 0.71559 0.25629 0.44317 0.0
H1579 H 0.70776 0.20977 0.42744 0.0
C1580 C 0.70294 0.33441 0.4325 0.0
C1581 C 0.6977 0.34657 0.45704 0.0
C1582 C 0.69325 0.3078 0.42756 0.0
C1583 C 0.67772 0.29311 0.44681 0.0
C1584 C 0.66963 0.30605 0.47 0.0
C1585 C 0.67959 0.3327 0.47513 0.0
C1586 C 0.64058 0.22607 0.43016 0.0
C1587 C 0.6631 0.21049 0.42508 0.0
C1588 C 0.64505 0.25254 0.43948 0.0
C1589 C 0.67215 0.2639 0.44318 0.0
C1590 C 0.6945 0.24779 0.4402 0.0
C1591 C 0.69 0.22119 0.43142 0.0
H1592 H 0.94098 0.41564 0.73683 0.0
H1593 H 0.93107 0.4688 0.67156 0.0
H1594 H 0.99053 0.41717 0.72791 0.0
H1595 H 0.98051 0.46933 0.66188 0.0
H1596 H 0.06385 0.47803 0.64633 0.0
H1597 H 0.02647 0.48503 0.67775 0.0
H1598 H 0.01965 0.39994 0.69454 0.0
H1599 H 0.05668 0.39336 0.66327 0.0
C1600 C 0.94923 0.42708 0.72009 0.0
C1601 C 0.93202 0.44192 0.70468 0.0
C1602 C 0.97774 0.42829 0.71531 0.0
C1603 C 0.98959 0.44392 0.69469 0.0
C1604 C 0.97222 0.45791 0.67861 0.0
C1605 C 0.94376 0.45703 0.68364 0.0
C1606 C 0.05564 0.46127 0.65826 0.0
C1607 C 0.06259 0.43508 0.65235 0.0
C1608 C 0.03395 0.46516 0.67589 0.0
C1609 C 0.01917 0.44276 0.68737 0.0
C1610 C 0.03025 0.41757 0.68562 0.0
C1611 C 0.05192 0.41376 0.66799 0.0
H1612 H 0.56055 0.58153 0.15533 0.0
H1613 H 0.56709 0.63327 0.22456 0.0
H1614 H 0.51306 0.59252 0.14963 0.0
H1615 H 0.51916 0.64442 0.21854 0.0
H1616 H 0.45392 0.6743 0.15182 0.0
H1617 H 0.49168 0.66671 0.18086 0.0
H1618 H 0.46778 0.58142 0.17853 0.0
H1619 H 0.42923 0.58929 0.1498 0.0
C1620 C 0.55207 0.59574 0.16897 0.0
C1621 C 0.56734 0.60612 0.19067 0.0
C1622 C 0.52468 0.6015 0.16611 0.0
C1623 C 0.51217 0.61806 0.18462 0.0
C1624 C 0.52822 0.63082 0.20466 0.0
C1625 C 0.55573 0.62486 0.2077 0.0
C1626 C 0.45503 0.65429 0.15945 0.0
C1627 C 0.43878 0.63238 0.14872 0.0
C1628 C 0.47704 0.64986 0.17582 0.0
C1629 C 0.48308 0.62345 0.18086 0.0
C1630 C 0.46366 0.60197 0.1743 0.0
C1631 C 0.44158 0.60644 0.158 0.0
H1632 H 0.49452 0.74554 0.77967 0.0
H1633 H 0.57693 0.76141 0.81118 0.0
H1634 H 0.51438 0.72897 0.7386 0.0
H1635 H 0.59663 0.74432 0.77062 0.0
H1636 H 0.6282 0.7474 0.68958 0.0
H1637 H 0.60136 0.76316 0.72679 0.0
H1638 H 0.54086 0.69526 0.71641 0.0
H1639 H 0.56708 0.68046 0.67805 0.0
C1640 C 0.51681 0.74478 0.7781 0.0
C1641 C 0.53424 0.75523 0.79839 0.0
C1642 C 0.52816 0.73543 0.75454 0.0
C1643 C 0.55708 0.73631 0.75105 0.0
C1644 C 0.57428 0.7444 0.77234 0.0
C1645 C 0.56299 0.75383 0.79574 0.0
C1646 C 0.60875 0.7363 0.69481 0.0
C1647 C 0.60006 0.71227 0.68157 0.0
C1648 C 0.59358 0.74508 0.71631 0.0
C1649 C 0.56972 0.72972 0.72525 0.0
C1650 C 0.55941 0.70728 0.71024 0.0
C1651 C 0.57438 0.6988 0.68831 0.0
H1652 H 0.56421 0.36123 0.08617 0.0
H1653 H 0.53771 0.27831 0.06757 0.0
H1654 H 0.58347 0.36676 0.04171 0.0
H1655 H 0.55629 0.28422 0.02281 0.0
H1656 H 0.53383 0.34194 0.94797 0.0
H1657 H 0.53206 0.31947 -0.00916 0.0
H1658 H 0.61741 0.34808 0.00442 0.0
H1659 H 0.61928 0.36991 0.96147 0.0
C1660 C 0.5633 0.344 0.07286 0.0
C1661 C 0.54899 0.31956 0.08008 0.0
C1662 C 0.57441 0.34709 0.04749 0.0
C1663 C 0.5709 0.32596 0.02891 0.0
C1664 C 0.55904 0.30077 0.03686 0.0
C1665 C 0.54849 0.29746 0.06246 0.0
C1666 C 0.5524 0.34243 0.95976 0.0
C1667 C 0.5767 0.35734 0.95169 0.0
C1668 C 0.55151 0.32953 0.98409 0.0
C1669 C 0.57467 0.33214 0.00074 0.0
C1670 C 0.59944 0.34568 -0.00819 0.0
C1671 C 0.60045 0.35813 0.96737 0.0
H1672 H 0.93977 0.34341 0.29397 0.0
H1673 H 0.02249 0.37925 0.27715 0.0
H1674 H 0.92599 0.35288 0.24953 0.0
H1675 H 0.00801 0.38937 0.2321 0.0
H1676 H 0.91561 0.42401 0.18959 0.0
H1677 H 0.95466 0.41928 0.21869 0.0
H1678 H 0.95203 0.33472 0.19906 0.0
H1679 H 0.91303 0.33952 0.16976 0.0
C1680 C 0.955 0.35347 0.28086 0.0
C1681 C 0.98223 0.36046 0.28904 0.0
C1682 C 0.94716 0.35864 0.25535 0.0
C1683 C 0.96622 0.37114 0.23745 0.0
C1684 C -0.00676 0.37921 0.2456 0.0
C1685 C 0.00133 0.37364 0.27131 0.0
C1686 C 0.92476 0.40491 0.18995 0.0
C1687 C 0.91161 0.38214 0.17751 0.0
C1688 C 0.94713 0.40222 0.20658 0.0
C1689 C 0.95603 0.37665 0.2111 0.0
C1690 C 0.94552 0.35466 0.19561 0.0
C1691 C 0.9231 0.35734 0.17909 0.0
H1692 H 0.90437 0.79139 0.56928 0.0
H1693 H 0.97133 0.73922 0.57339 0.0
H1694 H 0.894 0.77427 0.5244 0.0
H1695 H 0.96146 0.72283 0.52902 0.0
H1696 H 0.95828 0.71665 0.44259 0.0
H1697 H 0.96512 0.74342 0.48331 0.0
H1698 H 0.87813 0.72797 0.50288 0.0
H1699 H 0.87141 0.70159 0.46218 0.0
C1700 C 0.91658 0.77613 0.5607 0.0
C1701 C 0.93839 0.76639 0.57479 0.0
C1702 C 0.91083 0.76654 0.53511 0.0
C1703 C 0.92741 0.74778 0.52319 0.0
C1704 C 0.94877 0.73773 0.53758 0.0
C1705 C 0.95406 0.74676 0.56317 0.0
C1706 C 0.9406 0.71981 0.45528 0.0
C1707 C 0.91433 0.70758 0.44938 0.0
C1708 C 0.94444 0.73492 0.47849 0.0
C1709 C 0.92214 0.73745 0.49621 0.0
C1710 C 0.89553 0.72658 0.4894 0.0
C1711 C 0.8917 0.71159 0.46615 0.0
H1712 H 0.54545 0.33288 0.67672 0.0
H1713 H 0.46114 0.33117 0.70654 0.0
H1714 H 0.56256 0.34543 0.72079 0.0
H1715 H 0.47855 0.3431 0.75063 0.0
H1716 H 0.5447 0.3106 0.81953 0.0
H1717 H 0.51914 0.30765 0.77769 0.0
H1718 H 0.54956 0.38918 0.75992 0.0
H1719 H 0.5742 0.39243 0.80181 0.0
C1720 C 0.53058 0.33566 0.69249 0.0
C1721 C 0.50196 0.33076 0.68817 0.0
C1722 C 0.54038 0.3428 0.71764 0.0
C1723 C 0.52175 0.34479 0.7389 0.0
C1724 C 0.49318 0.3414 0.73444 0.0
C1725 C 0.48332 0.33474 0.70919 0.0
C1726 C 0.54489 0.32814 0.80713 0.0
C1727 C 0.56065 0.35196 0.81406 0.0
C1728 C 0.53047 0.32646 0.78328 0.0
C1729 C 0.53247 0.34827 0.76588 0.0
C1730 C 0.54757 0.37227 0.77321 0.0
C1731 C 0.56141 0.37414 0.79719 0.0
H1732 H 0.98805 0.35893 0.94933 0.0
H1733 H 0.95351 0.27781 0.96437 0.0
H1734 H 0.97847 0.37157 -0.00543 0.0
H1735 H 0.94389 0.29067 0.0103 0.0
H1736 H 0.89876 0.35019 0.0716 0.0
H1737 H 0.91362 0.32164 0.03538 0.0
H1738 H -0.00404 0.36207 0.03894 0.0
H1739 H 0.98052 0.3915 0.074 0.0
C1740 C 0.97827 0.34379 0.96229 0.0
C1741 C 0.9717 0.31734 0.9533 0.0
C1742 C 0.97318 0.35092 0.98839 0.0
C1743 C 0.96132 0.33183 0.00623 0.0
C1744 C 0.95349 0.30563 -0.00295 0.0
C1745 C 0.95874 0.2984 0.97075 0.0
C1746 C 0.92032 0.35205 0.06539 0.0
C1747 C 0.93832 0.37344 0.07473 0.0
C1748 C 0.92886 0.33572 0.04466 0.0
C1749 C 0.95558 0.34056 0.03364 0.0
C1750 C 0.97493 0.35864 0.0465 0.0
C1751 C 0.96624 0.37527 0.06673 0.0
H1752 H 0.98618 0.73294 0.18652 0.0
H1753 H 0.89718 0.73519 0.18122 0.0
H1754 H 0.98099 0.7204 0.23299 0.0
H1755 H 0.89235 0.72293 0.22751 0.0
H1756 H 0.90244 0.75398 0.31168 0.0
H1757 H 0.92009 0.76015 0.26665 0.0
H1758 H 0.94459 0.67887 0.26498 0.0
H1759 H 0.92594 0.67227 0.30967 0.0
C1760 C 0.96549 0.7299 0.19494 0.0
C1761 C 0.9421 0.73565 0.18036 0.0
C1762 C 0.96263 0.7229 0.22153 0.0
C1763 C 0.93641 0.72152 0.23368 0.0
C1764 C 0.91284 0.72445 0.21847 0.0
C1765 C 0.91563 0.73131 0.19199 0.0
C1766 C 0.91273 0.73784 0.30217 0.0
C1767 C 0.91307 0.71271 0.31428 0.0
C1768 C 0.92261 0.74131 0.27641 0.0
C1769 C 0.93323 0.7198 0.26251 0.0
C1770 C 0.93654 0.69569 0.27551 0.0
C1771 C 0.92636 0.69211 0.30127 0.0
H1772 H 0.60993 0.76228 0.44776 0.0
H1773 H 0.52684 0.72635 0.46165 0.0
H1774 H 0.62402 0.74591 0.49102 0.0
H1775 H 0.54038 0.7113 0.50449 0.0
H1776 H 0.55742 0.70256 0.5851 0.0
H1777 H 0.55855 0.7349 0.54912 0.0
H1778 H 0.62288 0.69367 0.5099 0.0
H1779 H 0.62193 0.66157 0.5461 0.0
C1780 C 0.59484 0.75081 0.45995 0.0
C1781 C 0.56749 0.74497 0.45119 0.0
C1782 C 0.60277 0.74179 0.48468 0.0
C1783 C 0.58309 0.72788 0.5012 0.0
C1784 C 0.55583 0.7224 0.49235 0.0
C1785 C 0.54823 0.73054 0.46758 0.0
C1786 C 0.57274 0.70133 0.56944 0.0
C1787 C 0.5896 0.67979 0.56817 0.0
C1788 C 0.5734 0.71975 0.5489 0.0
C1789 C 0.59052 0.71642 0.52663 0.0
C1790 C 0.60965 0.69672 0.5269 0.0
C1791 C 0.60904 0.67834 0.54753 0.0
H1792 H 0.82056 0.57805 0.69076 0.0
H1793 H 0.77953 0.50179 0.66594 0.0
H1794 H 0.77848 0.6 0.68226 0.0
H1795 H 0.73721 0.52432 0.65693 0.0
H1796 H 0.69285 0.61021 0.62295 0.0
H1797 H 0.72506 0.57474 0.62566 0.0
H1798 H 0.72671 0.58484 0.7102 0.0
H1799 H 0.6942 0.61968 0.70752 0.0
C1800 C 0.80283 0.56604 0.68285 0.0
C1801 C 0.80344 0.5381 0.67927 0.0
C1802 C 0.77866 0.57862 0.67816 0.0
C1803 C 0.75456 0.56371 0.66947 0.0
C1804 C 0.75554 0.53615 0.66385 0.0
C1805 C 0.77981 0.52338 0.66884 0.0
C1806 C 0.6985 0.60345 0.64218 0.0
C1807 C 0.69066 0.61731 0.66506 0.0
C1808 C 0.71727 0.58344 0.6437 0.0
C1809 C 0.72853 0.57739 0.6681 0.0
C1810 C 0.71832 0.58922 0.69116 0.0
C1811 C 0.69959 0.60902 0.68964 0.0
H1812 H 0.77018 0.55668 0.96047 0.0
H1813 H 0.69015 0.58915 0.9557 0.0
H1814 H 0.74935 0.51254 0.94606 0.0
H1815 H 0.66971 0.54515 0.94072 0.0
H1816 H 0.65527 0.47305 0.88486 0.0
H1817 H 0.68646 0.51239 0.89525 0.0
H1818 H 0.69908 0.48077 0.97255 0.0
H1819 H 0.66773 0.44072 0.96166 0.0
C1820 C 0.74829 0.55452 0.95589 0.0
C1821 C 0.73173 0.57633 0.95916 0.0
C1822 C 0.73646 0.52928 0.94793 0.0
C1823 C 0.70809 0.52572 0.94259 0.0
C1824 C 0.6917 0.54764 0.94488 0.0
C1825 C 0.70337 0.57272 0.95333 0.0
C1826 C 0.66624 0.47359 0.90327 0.0
C1827 C 0.66029 0.45343 0.92193 0.0
C1828 C 0.68356 0.49632 0.90945 0.0
C1829 C 0.69511 0.4993 0.93454 0.0
C1830 C 0.6906 0.47847 0.95289 0.0
C1831 C 0.67294 0.45564 0.94668 0.0
H1832 H 0.69773 0.54605 0.18451 0.0
H1833 H 0.66983 0.46251 0.17087 0.0
H1834 H 0.74375 0.5376 0.1674 0.0
H1835 H 0.71562 0.45446 0.15283 0.0
H1836 H 0.79918 0.45215 0.11277 0.0
H1837 H 0.75611 0.47479 0.11481 0.0
H1838 H 0.7734 0.49877 0.19542 0.0
H1839 H 0.81615 0.47529 0.19363 0.0
C1840 C 0.70104 0.52618 0.17677 0.0
C1841 C 0.68033 0.5048 0.17919 0.0
C1842 C 0.72737 0.52143 0.1671 0.0
C1843 C 0.73299 0.49545 0.15897 0.0
C1844 C 0.71154 0.47471 0.15887 0.0
C1845 C 0.68544 0.47928 0.1692 0.0
C1846 C 0.79421 0.46312 0.13059 0.0
C1847 C 0.81082 0.4623 0.15303 0.0
C1848 C 0.76967 0.47598 0.13171 0.0
C1849 C 0.76173 0.48847 0.15519 0.0
C1850 C 0.77947 0.48951 0.177 0.0
C1851 C 0.80374 0.47609 0.17606 0.0
H1852 H 0.8105 0.47489 0.46479 0.0
H1853 H 0.72612 0.49725 0.47151 0.0
H1854 H 0.82607 0.52086 0.45335 0.0
H1855 H 0.74207 0.54378 0.45985 0.0
H1856 H 0.80454 0.60881 0.4026 0.0
H1857 H 0.77424 0.56938 0.41624 0.0
H1858 H 0.82183 0.56462 0.48719 0.0
H1859 H 0.85227 0.60333 0.47343 0.0
C1860 C 0.79524 0.48957 0.46358 0.0
C1861 C 0.7672 0.48262 0.46945 0.0
C1862 C 0.80416 0.51586 0.45711 0.0
C1863 C 0.78528 0.53577 0.45638 0.0
C1864 C 0.75694 0.52868 0.46057 0.0
C1865 C 0.74791 0.50215 0.46714 0.0
C1866 C 0.8077 0.59999 0.42161 0.0
C1867 C 0.83107 0.60849 0.43668 0.0
C1868 C 0.7904 0.57751 0.42938 0.0
C1869 C 0.79629 0.56383 0.45239 0.0
C1870 C 0.81724 0.57474 0.46916 0.0
C1871 C 0.83459 0.59686 0.46132 0.0
H1872 H 0.79907 0.43673 0.78552 0.0
H1873 H 0.78317 0.52072 0.78318 0.0
H1874 H 0.75096 0.42511 0.79819 0.0
H1875 H 0.73451 0.5089 0.79566 0.0
H1876 H 0.65704 0.45881 0.84382 0.0
H1877 H 0.7013 0.48352 0.83242 0.0
H1878 H 0.70977 0.43021 0.76549 0.0
H1879 H 0.66639 0.40509 0.77757 0.0
C1880 C 0.78536 0.45273 0.78829 0.0
C1881 C 0.7944 0.47947 0.78276 0.0
C1882 C 0.75787 0.4461 0.79529 0.0
C1883 C 0.73903 0.46609 0.79666 0.0
C1884 C 0.74871 0.49321 0.79412 0.0
C1885 C 0.77645 0.49991 0.7872 0.0
C1886 C 0.66794 0.4531 0.82622 0.0
C1887 C 0.65933 0.42929 0.81252 0.0
C1888 C 0.69319 0.46717 0.8197 0.0
C1889 C 0.70929 0.45778 0.7989 0.0
C1890 C 0.698 0.43711 0.78224 0.0
C1891 C 0.67306 0.42295 0.78897 0.0
H1892 H 0.7494 0.56824 0.05428 0.0
H1893 H 0.82533 0.60939 0.08273 0.0
H1894 H 0.76341 0.52582 0.07165 0.0
H1895 H 0.8393 0.56761 0.09999 0.0
H1896 H 0.87052 0.49448 0.12051 0.0
H1897 H 0.8359 0.5272 0.12581 0.0
H1898 H 0.80133 0.50216 0.05033 0.0
H1899 H 0.83555 0.46881 0.04568 0.0
C1900 C 0.76839 0.56846 0.06542 0.0
C1901 C 0.78658 0.59187 0.06687 0.0
C1902 C 0.77651 0.54416 0.07514 0.0
C1903 C 0.80272 0.54322 0.08666 0.0
C1904 C 0.81895 0.5675 0.0913 0.0
C1905 C 0.81103 0.59155 0.08133 0.0
C1906 C 0.85467 0.49522 0.10568 0.0
C1907 C 0.85533 0.47915 0.08283 0.0
C1908 C 0.83499 0.51403 0.10861 0.0
C1909 C 0.81614 0.51758 0.08834 0.0
C1910 C 0.81535 0.49977 0.06647 0.0
C1911 C 0.83504 0.48084 0.06362 0.0
H1912 H 0.71297 0.55526 0.2403 0.0
H1913 H 0.68366 0.56657 0.32006 0.0
H1914 H 0.76035 0.5693 0.25369 0.0
H1915 H 0.73101 0.58167 0.33355 0.0
H1916 H 0.81757 0.59652 0.35658 0.0
H1917 H 0.7787 0.56731 0.33924 0.0
H1918 H 0.78282 0.61262 0.26701 0.0
H1919 H 0.82132 0.64157 0.28444 0.0
C1920 C 0.71687 0.56087 0.26074 0.0
C1921 C 0.69506 0.56012 0.27925 0.0
C1922 C 0.74387 0.56876 0.2684 0.0
C1923 C 0.74942 0.57631 0.29469 0.0
C1924 C 0.72745 0.57526 0.31329 0.0
C1925 C 0.7004 0.56702 0.30562 0.0
C1926 C 0.81093 0.5993 0.33655 0.0
C1927 C 0.8219 0.62139 0.32192 0.0
C1928 C 0.7885 0.58288 0.32678 0.0
C1929 C 0.77726 0.58823 0.30213 0.0
C1930 C 0.79089 0.60806 0.28613 0.0
C1931 C 0.81301 0.6246 0.29603 0.0
H1932 H 0.7536 0.47859 0.58222 0.0
H1933 H 0.67252 0.43554 0.57873 0.0
H1934 H 0.73249 0.51891 0.59769 0.0
H1935 H 0.65148 0.47565 0.59365 0.0
H1936 H 0.61779 0.55034 0.62283 0.0
H1937 H 0.64402 0.51073 0.62467 0.0
H1938 H 0.70551 0.54844 0.57141 0.0
H1939 H 0.67965 0.58885 0.57083 0.0
C1940 C 0.73139 0.47741 0.58572 0.0
C1941 C 0.71457 0.45416 0.57862 0.0
C1942 C 0.7193 0.50062 0.59421 0.0
C1943 C 0.69028 0.50072 0.59599 0.0
C1944 C 0.6739 0.47638 0.59231 0.0
C1945 C 0.68595 0.45329 0.58374 0.0
C1946 C 0.63687 0.55 0.6114 0.0
C1947 C 0.64646 0.57212 0.59609 0.0
C1948 C 0.65198 0.52746 0.61263 0.0
C1949 C 0.67675 0.52633 0.5981 0.0
C1950 C 0.68667 0.54883 0.58314 0.0
C1951 C 0.67174 0.57172 0.58238 0.0
H1952 H 0.72609 0.846 0.59055 0.0
H1953 H 0.7005 0.84331 0.50904 0.0
H1954 H 0.70471 0.80043 0.59636 0.0
H1955 H 0.67915 0.79748 0.51516 0.0
H1956 H 0.62977 0.72506 0.58158 0.0
H1957 H 0.63935 0.76957 0.56214 0.0
H1958 H 0.72642 0.75684 0.55794 0.0
H1959 H 0.71683 0.71224 0.57707 0.0
C1960 C 0.71534 0.83601 0.57407 0.0
C1961 C 0.71553 0.84809 0.54921 0.0
C1962 C 0.70318 0.80995 0.5774 0.0
C1963 C 0.69089 0.79554 0.55603 0.0
C1964 C 0.68873 0.80829 0.5318 0.0
C1965 C 0.70091 0.8345 0.52842 0.0
C1966 C 0.65065 0.731 0.57482 0.0
C1967 C 0.67253 0.71509 0.58046 0.0
C1968 C 0.65614 0.75661 0.56405 0.0
C1969 C 0.6836 0.76647 0.5589 0.0
C1970 C 0.70508 0.74946 0.56181 0.0
C1971 C 0.6996 0.72396 0.57259 0.0
H1972 H 0.15801 0.70161 0.43781 0.0
H1973 H 0.17488 0.74076 0.51313 0.0
H1974 H 0.14101 0.74289 0.42141 0.0
H1975 H 0.15877 0.78246 0.49624 0.0
H1976 H 0.19071 0.84112 0.41918 0.0
H1977 H 0.18818 0.80731 0.45397 0.0
H1978 H 0.10465 0.78101 0.43087 0.0
H1979 H 0.10712 0.81493 0.39654 0.0
C1980 C 0.15705 0.7187 0.45114 0.0
C1981 C 0.16782 0.71808 0.47663 0.0
C1982 C 0.14731 0.74229 0.44181 0.0
C1983 C 0.14875 0.76571 0.45765 0.0
C1984 C 0.1574 0.76454 0.48383 0.0
C1985 C 0.16645 0.74067 0.49343 0.0
C1986 C 0.17134 0.82914 0.4227 0.0
C1987 C 0.14893 0.83069 0.40575 0.0
C1988 C 0.16982 0.80988 0.44253 0.0
C1989 C 0.14619 0.79166 0.44489 0.0
C1990 C 0.12294 0.795 0.42945 0.0
C1991 C 0.12432 0.81445 0.40998 0.0
H1992 H 0.58386 0.98016 0.70565 0.0
H1993 H 0.53587 -0.00402 0.77575 0.0
H1994 H 0.54137 0.97135 0.68079 0.0
H1995 H 0.49297 0.9877 0.75055 0.0
H1996 H 0.42401 0.95077 0.69055 0.0
H1997 H 0.46166 0.95597 0.72235 0.0
H1998 H 0.51039 0.00619 0.66746 0.0
H1999 H 0.47365 0.00015 0.63536 0.0
C2000 C 0.56411 0.98101 0.71586 0.0
C2001 C 0.56299 0.98914 0.74238 0.0
C2002 C 0.53984 0.97633 0.70161 0.0
C2003 C 0.51404 0.97999 0.71356 0.0
C2004 C 0.51268 0.98517 0.74084 0.0
C2005 C 0.53715 0.98969 0.75526 0.0
C2006 C 0.44268 0.96311 0.68535 0.0
C2007 C 0.44643 0.97386 0.65988 0.0
C2008 C 0.46413 0.96616 0.70365 0.0
C2009 C 0.48933 0.98041 0.6968 0.0
C2010 C 0.49159 -0.00596 0.67272 0.0
C2011 C 0.47038 -0.00921 0.65442 0.0
H2012 H 0.28937 0.34208 0.94835 0.0
H2013 H 0.33601 0.33217 0.01931 0.0
H2014 H 0.29852 0.29706 0.93386 0.0
H2015 H 0.34583 0.28673 0.00402 0.0
H2016 H 0.37573 0.23325 0.92109 0.0
H2017 H 0.37122 0.2681 0.95477 0.0
H2018 H 0.2829 0.24777 0.95819 0.0
H2019 H 0.28758 0.21232 0.92516 0.0
C2020 C 0.30198 0.33052 0.96071 0.0
C2021 C 0.31188 0.34078 0.98507 0.0
C2022 C 0.30691 0.30456 0.95252 0.0
C2023 C 0.32223 0.2883 0.9682 0.0
C2024 C 0.33354 0.29883 -0.00811 0.0
C2025 C 0.32809 0.32483 0.00044 0.0
C2026 C 0.35576 0.23462 0.93064 0.0
C2027 C 0.33203 0.21996 0.92073 0.0
C2028 C 0.35311 0.25492 0.94967 0.0
C2029 C 0.32666 0.26088 0.95852 0.0
C2030 C 0.3035 0.24356 0.95149 0.0
C2031 C 0.30619 0.22321 0.9327 0.0
H2032 H 0.44284 0.52699 0.67337 0.0
H2033 H 0.44043 0.55676 0.75383 0.0
H2034 H 0.48969 0.54766 0.66819 0.0
H2035 H 0.48777 0.57798 0.74826 0.0
H2036 H 0.55315 0.63806 0.69459 0.0
H2037 H 0.51281 0.61575 0.71699 0.0
H2038 H 0.5371 0.53883 0.68916 0.0
H2039 H 0.57732 0.56126 0.66671 0.0
C2040 C 0.45215 0.53818 0.68991 0.0
C2041 C 0.43783 0.54002 0.71407 0.0
C2042 C 0.4792 0.54972 0.68703 0.0
C2043 C 0.49266 0.56366 0.70811 0.0
C2044 C 0.47798 0.56692 0.73187 0.0
C2045 C 0.45082 0.55502 0.73491 0.0
C2046 C 0.55085 0.61632 0.69469 0.0
C2047 C 0.56821 0.60138 0.67884 0.0
C2048 C 0.52758 0.60353 0.70734 0.0
C2049 C 0.52143 0.5757 0.70403 0.0
C2050 C 0.54116 0.56041 0.69158 0.0
C2051 C 0.56443 0.5732 0.67908 0.0
H2052 H 0.76954 0.22986 0.06275 0.0
H2053 H 0.78658 0.25763 0.98331 0.0
H2054 H 0.7838 0.27431 0.07996 0.0
H2055 H 0.80081 0.30276 0.00083 0.0
H2056 H 0.85469 0.36542 0.05835 0.0
H2057 H 0.83813 0.32665 0.03108 0.0
H2058 H 0.76247 0.31841 0.0775 0.0
H2059 H 0.77947 0.35621 0.10533 0.0
C2060 C 0.77641 0.24549 0.04895 0.0
C2061 C 0.77661 0.24044 0.0217 0.0
C2062 C 0.78434 0.271 0.05879 0.0
C2063 C 0.79255 0.29208 0.04161 0.0
C2064 C 0.79419 0.28684 0.01439 0.0
C2065 C 0.78616 0.2611 0.00444 0.0
C2066 C 0.8342 0.35575 0.06218 0.0
C2067 C 0.81866 0.3631 0.08435 0.0
C2068 C 0.82473 0.33366 0.04655 0.0
C2069 C 0.79946 0.31917 0.05282 0.0
C2070 C 0.78242 0.32886 0.07283 0.0
C2071 C 0.79204 0.35052 0.08863 0.0
H2072 H 0.58093 0.11299 0.83229 0.0
H2073 H 0.54913 0.09349 0.75457 0.0
H2074 H 0.53769 0.13224 0.8442 0.0
H2075 H 0.50532 0.11215 0.76678 0.0
H2076 H 0.42957 0.09468 0.83209 0.0
H2077 H 0.46959 0.09234 0.80235 0.0
H2078 H 0.50496 0.1682 0.83387 0.0
H2079 H 0.46542 0.1699 0.86408 0.0
C2080 C 0.56495 0.11352 0.81757 0.0
C2081 C 0.56831 0.10183 0.7926 0.0
C2082 C 0.54024 0.12464 0.82427 0.0
C2083 C 0.5182 0.12374 0.80633 0.0
C2084 C 0.52205 0.11323 0.78086 0.0
C2085 C 0.54712 0.10269 0.77392 0.0
C2086 C 0.44516 0.11155 0.83147 0.0
C2087 C 0.4443 0.13282 0.84978 0.0
C2088 C 0.46807 0.11023 0.81451 0.0
C2089 C 0.49048 0.12999 0.8161 0.0
C2090 C 0.48804 0.15265 0.83244 0.0
C2091 C 0.46538 0.15373 0.84956 0.0
H2092 H 0.94306 0.98919 0.3116 0.0
H2093 H 0.94208 0.92422 0.25402 0.0
H2094 H 0.98965 0.98035 0.324 0.0
H2095 H 0.98909 0.91511 0.26699 0.0
H2096 H 0.03611 0.89429 0.34996 0.0
H2097 H 0.00377 0.89982 0.31446 0.0
H2098 H 0.04016 0.98087 0.30338 0.0
H2099 H 0.07338 0.9743 0.33846 0.0
C2100 C 0.95269 0.97283 0.30178 0.0
C2101 C 0.93889 0.95722 0.28203 0.0
C2102 C 0.97963 0.96826 0.30838 0.0
C2103 C -0.00685 0.94773 0.29568 0.0
C2104 C 0.97921 0.93153 0.27644 0.0
C2105 C 0.95229 0.93644 0.26944 0.0
C2106 C 0.0389 0.91201 0.33789 0.0
C2107 C 0.0576 0.93321 0.34571 0.0
C2108 C 0.02022 0.91549 0.31792 0.0
C2109 C 0.01961 0.94073 0.30632 0.0
C2110 C 0.0405 0.96117 0.31208 0.0
C2111 C 0.05937 0.95749 0.33204 0.0
H2112 H 0.41151 0.29474 0.20983 0.0
H2113 H 0.49451 0.32851 0.22735 0.0
H2114 H 0.39626 0.30722 0.25421 0.0
H2115 H 0.47913 0.34054 0.27196 0.0
H2116 H 0.42078 0.32865 0.35689 0.0
H2117 H 0.44369 0.30961 0.31762 0.0
H2118 H 0.40609 0.3661 0.26825 0.0
H2119 H 0.38425 0.38528 0.30684 0.0
C2120 C 0.4265 0.30448 0.2233 0.0
C2121 C 0.45398 0.31121 0.21519 0.0
C2122 C 0.41789 0.31126 0.24863 0.0
C2123 C 0.43679 0.32432 0.26625 0.0
C2124 C 0.4645 0.33004 0.25863 0.0
C2125 C 0.47306 0.32363 0.23311 0.0
C2126 C 0.41823 0.33723 0.33765 0.0
C2127 C 0.40126 0.35842 0.33448 0.0
C2128 C 0.43103 0.32637 0.31541 0.0
C2129 C 0.42621 0.33648 0.29029 0.0
C2130 C 0.4099 0.35813 0.28754 0.0
C2131 C 0.39765 0.36911 0.3095 0.0
H2132 H 0.48785 0.76384 0.92797 0.0
H2133 H 0.41058 0.80133 0.93488 0.0
H2134 H 0.47849 0.74196 0.9702 0.0
H2135 H 0.4013 0.77964 0.97729 0.0
H2136 H 0.38307 0.71313 0.03936 0.0
H2137 H 0.39049 0.73683 -0.00207 0.0
H2138 H 0.47709 0.75392 0.01679 0.0
H2139 H 0.46944 0.72954 0.05828 0.0
C2140 C 0.46864 0.76709 0.93831 0.0
C2141 C 0.44997 0.7844 0.92809 0.0
C2142 C 0.46348 0.75487 0.96274 0.0
C2143 C 0.4394 0.75944 0.97743 0.0
C2144 C 0.4201 0.77573 0.96658 0.0
C2145 C 0.4254 0.78817 0.94226 0.0
C2146 C 0.40337 0.72308 0.03522 0.0
C2147 C 0.42544 0.72047 0.05244 0.0
C2148 C 0.40775 0.73634 0.01127 0.0
C2149 C 0.43441 0.74721 0.0039 0.0
C2150 C 0.45637 0.74542 0.02165 0.0
C2151 C 0.45197 0.73191 0.04558 0.0
H2152 H 0.07241 0.75921 0.69611 0.0
H2153 H -0.00401 0.71032 0.71099 0.0
H2154 H 0.09117 0.74402 0.73693 0.0
H2155 H 0.01517 0.69461 0.75194 0.0
H2156 H 0.05168 0.70329 0.83863 0.0
H2157 H 0.02962 0.71523 0.79708 0.0
H2158 H 0.10542 0.7022 0.7544 0.0
H2159 H 0.12714 0.69144 0.79489 0.0
C2160 C 0.05986 0.74474 0.70783 0.0
C2161 C 0.03276 0.73597 0.70045 0.0
C2162 C 0.07054 0.73612 0.73127 0.0
C2163 C 0.0544 0.71842 0.74771 0.0
C2164 C 0.02775 0.70865 0.7398 0.0
C2165 C 0.01704 0.71726 0.7162 0.0
C2166 C 0.06338 0.7032 0.82027 0.0
C2167 C 0.09123 0.69726 0.81994 0.0
C2168 C 0.05085 0.70976 0.79662 0.0
C2169 C 0.06606 0.70994 0.77268 0.0
C2170 C 0.09345 0.70293 0.77258 0.0
C2171 C 0.10588 0.69686 0.79586 0.0
H2172 H 0.01861 0.3867 0.44489 0.0
H2173 H 0.08469 0.34507 0.4086 0.0
H2174 H 0.03597 0.37704 0.48816 0.0
H2175 H 0.10184 0.33522 0.45222 0.0
H2176 H 0.12859 0.35513 0.5428 0.0
H2177 H 0.12039 0.35463 0.49566 0.0
H2178 H 0.03374 0.33086 0.51006 0.0
H2179 H 0.04188 0.33208 0.55737 0.0
C2180 C 0.03735 0.37626 0.44606 0.0
C2181 C 0.04967 0.36575 0.42336 0.0
C2182 C 0.04692 0.37021 0.47087 0.0
C2183 C 0.06918 0.35397 0.47333 0.0
C2184 C 0.08405 0.34695 0.45072 0.0
C2185 C 0.07439 0.3529 0.42582 0.0
C2186 C 0.10816 0.34801 0.53591 0.0
C2187 C 0.08551 0.34502 0.55359 0.0
C2188 C 0.1034 0.34821 0.50884 0.0
C2189 C 0.07616 0.34436 0.49958 0.0
C2190 C 0.05475 0.33514 0.51701 0.0
C2191 C 0.0595 0.33517 0.54403 0.0
H2192 H 0.45098 0.79996 0.30449 0.0
H2193 H 0.50007 0.73229 0.31501 0.0
H2194 H 0.43932 0.78401 0.26031 0.0
H2195 H 0.48866 0.71645 0.27022 0.0
H2196 H 0.42908 0.68464 0.20082 0.0
H2197 H 0.45041 0.69776 0.2429 0.0
H2198 H 0.46061 0.78036 0.21744 0.0
H2199 H 0.4385 0.76711 0.17568 0.0
C2200 C 0.45927 0.78159 0.29742 0.0
C2201 C 0.47657 0.76749 0.31337 0.0
C2202 C 0.45286 0.77261 0.27185 0.0
C2203 C 0.46361 0.74928 0.26136 0.0
C2204 C 0.48013 0.73457 0.27759 0.0
C2205 C 0.48658 0.7436 0.30332 0.0
C2206 C 0.43728 0.70533 0.20369 0.0
C2207 C 0.4326 0.72481 0.18483 0.0
C2208 C 0.44918 0.71296 0.228 0.0
C2209 C 0.45659 0.74024 0.23387 0.0
C2210 C 0.45442 0.75927 0.21387 0.0
C2211 C 0.44226 0.75167 0.18973 0.0
H2212 H 0.07986 0.76042 0.0593 0.0
H2213 H 0.00206 0.71292 0.04749 0.0
H2214 H 0.09639 0.74494 0.01589 0.0
H2215 H 0.01809 0.69858 0.00456 0.0
H2216 H 0.03472 0.69433 0.9226 0.0
H2217 H 0.0315 0.72539 0.96011 0.0
H2218 H 0.1031 0.69408 -0.00529 0.0
H2219 H 0.10633 0.66318 0.95717 0.0
C2220 C 0.06648 0.74652 0.04766 0.0
C2221 C 0.03969 0.73783 0.05687 0.0
C2222 C 0.07579 0.738 0.0228 0.0
C2223 C 0.05809 0.72136 0.00666 0.0
C2224 C 0.03182 0.71205 0.01633 0.0
C2225 C 0.02285 0.71992 0.04118 0.0
C2226 C 0.05074 0.69532 0.93742 0.0
C2227 C 0.07094 0.67672 0.93698 0.0
C2228 C 0.04882 0.7129 0.95894 0.0
C2229 C 0.0668 0.71169 0.9804 0.0
C2230 C 0.08911 0.69546 0.97836 0.0
C2231 C 0.09102 0.67788 0.95682 0.0
H2232 H 0.0828 0.37615 0.82687 0.0
H2233 H 0.06679 0.29041 0.81496 0.0
H2234 H 0.10027 0.38032 0.78162 0.0
H2235 H 0.0823 0.2947 0.76933 0.0
H2236 H 0.12993 0.31476 0.69048 0.0
H2237 H 0.11742 0.30513 0.73655 0.0
H2238 H 0.07579 0.37868 0.74127 0.0
H2239 H 0.08986 0.38873 0.6962 0.0
C2240 C 0.08356 0.35818 0.81471 0.0
C2241 C 0.07315 0.33309 0.82421 0.0
C2242 C 0.09306 0.36054 0.78869 0.0
C2243 C 0.09151 0.33799 0.77156 0.0
C2244 C 0.08358 0.3125 0.78188 0.0
C2245 C 0.07479 0.31005 0.80811 0.0
C2246 C 0.11737 0.32832 0.7013 0.0
C2247 C 0.11006 0.3521 0.68966 0.0
C2248 C 0.11038 0.32295 0.72767 0.0
C2249 C 0.0963 0.34154 0.74281 0.0
C2250 C 0.08732 0.3643 0.73042 0.0
C2251 C 0.0944 0.36963 0.70422 0.0
H2252 H 0.48772 0.35505 0.55239 0.0
H2253 H 0.43149 0.28526 0.53556 0.0
H2254 H 0.47832 0.37328 0.5096 0.0
H2255 H 0.42207 0.30371 0.49224 0.0
H2256 H 0.38635 0.38034 0.44889 0.0
H2257 H 0.39817 0.34533 0.47866 0.0
H2258 H 0.48506 0.36442 0.46104 0.0
H2259 H 0.47292 0.39907 0.43064 0.0
C2260 C 0.47347 0.3435 0.53946 0.0
C2261 C 0.46022 0.31882 0.54741 0.0
C2262 C 0.46836 0.35378 0.51476 0.0
C2263 C 0.44987 0.33964 0.49737 0.0
C2264 C 0.43655 0.3149 0.50523 0.0
C2265 C 0.44176 0.30451 0.53005 0.0
C2266 C 0.40772 0.37565 0.44977 0.0
C2267 C 0.42864 0.39202 0.43718 0.0
C2268 C 0.41461 0.35584 0.46721 0.0
C2269 C 0.44256 0.35265 0.47261 0.0
C2270 C 0.46334 0.3668 0.45751 0.0
C2271 C 0.45642 0.38648 0.44002 0.0
H2272 H 0.21853 0.54216 0.31315 0.0
H2273 H 0.19121 0.45992 0.29323 0.0
H2274 H 0.26538 0.52847 0.3219 0.0
H2275 H 0.23718 0.44628 0.30221 0.0
H2276 H 0.31464 0.42363 0.29105 0.0
H2277 H 0.28261 0.45571 0.27729 0.0
H2278 H 0.29192 0.49708 0.35243 0.0
H2279 H 0.3266 0.46609 0.3648 0.0
C2280 C 0.22234 0.52108 0.31155 0.0
C2281 C 0.20138 0.50198 0.30265 0.0
C2282 C 0.24915 0.51337 0.31613 0.0
C2283 C 0.25513 0.48656 0.3117 0.0
C2284 C 0.23348 0.46732 0.30475 0.0
C2285 C 0.20701 0.47497 0.30011 0.0
C2286 C 0.31122 0.4406 0.30395 0.0
C2287 C 0.32107 0.44153 0.32984 0.0
C2288 C 0.29262 0.45879 0.29622 0.0
C2289 C 0.28335 0.47753 0.3146 0.0
C2290 C 0.29792 0.48209 0.33827 0.0
C2291 C 0.31745 0.46431 0.34554 0.0
H2292 H 0.3319 0.49605 0.00154 0.0
H2293 H 0.25697 0.49474 0.04887 0.0
H2294 H 0.34184 0.54359 0.01214 0.0
H2295 H 0.26612 0.54264 0.05856 0.0
H2296 H 0.31938 0.61332 0.10067 0.0
H2297 H 0.29623 0.57135 0.08434 0.0
H2298 H 0.32984 0.58808 0.0063 0.0
H2299 H 0.35403 0.62943 0.02322 0.0
C2300 C 0.31744 0.50602 0.01404 0.0
C2301 C 0.29391 0.49158 0.02468 0.0
C2302 C 0.32288 0.53342 0.01984 0.0
C2303 C 0.30466 0.54718 0.03611 0.0
C2304 C 0.2808 0.53274 0.04627 0.0
C2305 C 0.27559 0.50524 0.04076 0.0
C2306 C 0.32067 0.60864 0.07979 0.0
C2307 C 0.33872 0.62435 0.06329 0.0
C2308 C 0.30757 0.58439 0.07037 0.0
C2309 C 0.31202 0.57574 0.04417 0.0
C2310 C 0.32683 0.59357 0.02682 0.0
C2311 C 0.34023 0.61755 0.03635 0.0
H2312 H 0.31047 0.58173 0.7769 0.0
H2313 H 0.28751 0.51503 0.82833 0.0
H2314 H 0.27013 0.60412 0.79251 0.0
H2315 H 0.24667 0.53753 0.84367 0.0
H2316 H 0.16227 0.59149 0.82646 0.0
H2317 H 0.19843 0.56045 0.81536 0.0
H2318 H 0.26112 0.61861 0.84613 0.0
H2319 H 0.22582 0.64871 0.85754 0.0
C2320 C 0.29688 0.57192 0.79162 0.0
C2321 C 0.30243 0.54687 0.80173 0.0
C2322 C 0.27368 0.58458 0.80032 0.0
C2323 C 0.25523 0.5723 0.81899 0.0
C2324 C 0.26047 0.54716 0.82901 0.0
C2325 C 0.28404 0.5346 0.82058 0.0
C2326 C 0.18367 0.59702 0.83159 0.0
C2327 C 0.19137 0.62245 0.84267 0.0
C2328 C 0.20428 0.57947 0.82516 0.0
C2329 C 0.23248 0.5875 0.82965 0.0
C2330 C 0.2396 0.61209 0.84233 0.0
C2331 C 0.21933 0.62925 0.84886 0.0
H2332 H 0.2526 0.56686 0.53291 0.0
H2333 H 0.17411 0.60053 0.54636 0.0
H2334 H 0.22946 0.52168 0.53315 0.0
H2335 H 0.1509 0.55515 0.54823 0.0
H2336 H 0.1111 0.4739 0.53323 0.0
H2337 H 0.13721 0.51603 0.52195 0.0
H2338 H 0.20816 0.4908 0.56326 0.0
H2339 H 0.18253 0.44852 0.57375 0.0
C2340 C 0.23044 0.56447 0.53671 0.0
C2341 C 0.21513 0.58702 0.54019 0.0
C2342 C 0.21715 0.53861 0.53665 0.0
C2343 C 0.18832 0.53473 0.54065 0.0
C2344 C 0.17306 0.55741 0.54451 0.0
C2345 C 0.18632 0.58335 0.54394 0.0
C2346 C 0.13253 0.47701 0.53927 0.0
C2347 C 0.14448 0.45814 0.55507 0.0
C2348 C 0.14739 0.50132 0.53306 0.0
C2349 C 0.17444 0.50717 0.54248 0.0
C2350 C 0.18731 0.48708 0.5558 0.0
C2351 C 0.17253 0.46276 0.5619 0.0
H2352 H 0.21904 0.57528 0.2641 0.0
H2353 H 0.1945 0.59058 0.1845 0.0
H2354 H 0.26686 0.59133 0.25322 0.0
H2355 H 0.24199 0.60774 0.17382 0.0
H2356 H 0.3282 0.61267 0.15012 0.0
H2357 H 0.28645 0.58795 0.16731 0.0
H2358 H 0.29592 0.63166 0.24128 0.0
H2359 H 0.33788 0.65598 0.22417 0.0
C2360 C 0.22379 0.58292 0.24451 0.0
C2361 C 0.2033 0.58183 0.22505 0.0
C2362 C 0.25117 0.59181 0.23823 0.0
C2363 C 0.25831 0.59999 0.21246 0.0
C2364 C 0.2373 0.60051 0.19355 0.0
C2365 C 0.21009 0.59121 0.19972 0.0
C2366 C 0.32216 0.61598 0.17048 0.0
C2367 C 0.33574 0.63665 0.18562 0.0
C2368 C 0.29796 0.60222 0.18016 0.0
C2369 C 0.28732 0.60881 0.20517 0.0
C2370 C 0.30334 0.62648 0.22176 0.0
C2371 C 0.32747 0.6403 0.21203 0.0
H2372 H 0.16804 0.44504 0.97389 0.0
H2373 H 0.23586 0.47013 0.9212 0.0
H2374 H 0.14463 0.48458 0.96252 0.0
H2375 H 0.21327 0.51029 0.91078 0.0
H2376 H 0.15715 0.57431 0.88696 0.0
H2377 H 0.17812 0.53224 0.89241 0.0
H2378 H 0.15127 0.53045 0.97422 0.0
H2379 H 0.1283 0.57175 0.96789 0.0
C2380 C 0.17764 0.45873 0.95941 0.0
C2381 C 0.20402 0.45487 0.94881 0.0
C2382 C 0.16448 0.48165 0.95326 0.0
C2383 C 0.1776 0.50121 0.9366 0.0
C2384 C 0.20262 0.49582 0.92388 0.0
C2385 C 0.21558 0.47268 0.92975 0.0
C2386 C 0.1563 0.5652 0.90628 0.0
C2387 C 0.14125 0.57616 0.92708 0.0
C2388 C 0.16822 0.54098 0.90938 0.0
C2389 C 0.16597 0.5276 0.9336 0.0
C2390 C 0.15253 0.53969 0.95499 0.0
C2391 C 0.13986 0.56357 0.95162 0.0
H2392 H 0.29741 0.44445 0.69525 0.0
H2393 H 0.27344 0.46073 0.77586 0.0
H2394 H 0.24985 0.44771 0.68145 0.0
H2395 H 0.2254 0.46454 0.76185 0.0
H2396 H 0.14591 0.42755 0.70397 0.0
H2397 H 0.18316 0.43616 0.7356 0.0
H2398 H 0.22469 0.49321 0.6822 0.0
H2399 H 0.18837 0.48318 0.65003 0.0
C2400 C 0.28171 0.44799 0.71006 0.0
C2401 C 0.28892 0.45276 0.73639 0.0
C2402 C 0.25468 0.4504 0.70219 0.0
C2403 C 0.23454 0.45796 0.72047 0.0
C2404 C 0.2409 0.45957 0.74738 0.0
C2405 C 0.26815 0.45696 0.75536 0.0
C2406 C 0.16195 0.44347 0.69984 0.0
C2407 C 0.16551 0.4535 0.67411 0.0
C2408 C 0.18345 0.44813 0.71791 0.0
C2409 C 0.20736 0.46408 0.71044 0.0
C2410 C 0.20674 0.48001 0.68781 0.0
C2411 C 0.18569 0.47467 0.66954 0.0
H2412 H 0.33138 0.62056 0.4548 0.0
H2413 H 0.24504 0.59528 0.44135 0.0
H2414 H 0.34362 0.57518 0.44482 0.0
H2415 H 0.2574 0.54957 0.43174 0.0
H2416 H 0.30542 0.47348 0.4023 0.0
H2417 H 0.28492 0.51671 0.40525 0.0
H2418 H 0.33191 0.53645 0.47571 0.0
H2419 H 0.3539 0.49452 0.47151 0.0
C2420 C 0.31514 0.60555 0.44878 0.0
C2421 C 0.2872 0.61123 0.44964 0.0
C2422 C 0.32207 0.57949 0.44347 0.0
C2423 C 0.30121 0.55873 0.43888 0.0
C2424 C 0.27374 0.56516 0.43586 0.0
C2425 C 0.26676 0.5914 0.44111 0.0
C2426 C 0.31143 0.48711 0.41828 0.0
C2427 C 0.33305 0.48178 0.43525 0.0
C2428 C 0.29944 0.51169 0.42015 0.0
C2429 C 0.3083 0.53052 0.43971 0.0
C2430 C 0.326 0.52286 0.45951 0.0
C2431 C 0.33832 0.49869 0.45729 0.0
H2432 H 0.24815 0.22553 0.44479 0.0
H2433 H 0.32632 0.21511 0.4821 0.0
H2434 H 0.26395 0.27205 0.43504 0.0
H2435 H 0.342 0.26177 0.47279 0.0
H2436 H 0.3665 0.33832 0.42305 0.0
H2437 H 0.35481 0.29268 0.43788 0.0
H2438 H 0.27269 0.31387 0.46017 0.0
H2439 H 0.28434 0.35957 0.44434 0.0
C2440 C 0.26887 0.23309 0.45053 0.0
C2441 C 0.28595 0.21692 0.46444 0.0
C2442 C 0.27774 0.25984 0.44538 0.0
C2443 C 0.30389 0.27078 0.45389 0.0
C2444 C 0.32163 0.25401 0.46626 0.0
C2445 C 0.31269 0.22732 0.47156 0.0
C2446 C 0.34648 0.33363 0.43246 0.0
C2447 C 0.32641 0.35246 0.43297 0.0
C2448 C 0.33962 0.30733 0.44059 0.0
C2449 C 0.31262 0.29954 0.44957 0.0
C2450 C 0.29343 0.31916 0.45259 0.0
C2451 C 0.30021 0.3454 0.4441 0.0
H2452 H 0.77745 0.34217 0.56058 0.0
H2453 H 0.8178 0.31935 0.48803 0.0
H2454 H 0.78441 0.29872 0.5789 0.0
H2455 H 0.82421 0.27518 0.50628 0.0
H2456 H 0.86688 0.22631 0.57313 0.0
H2457 H 0.85133 0.25586 0.53946 0.0
H2458 H 0.77 0.25165 0.57636 0.0
H2459 H 0.78672 0.22399 0.61102 0.0
C2460 C 0.78779 0.32783 0.5485 0.0
C2461 C 0.79719 0.33432 0.52291 0.0
C2462 C 0.79133 0.30263 0.55881 0.0
C2463 C 0.80422 0.2831 0.54377 0.0
C2464 C 0.81403 0.28968 0.51828 0.0
C2465 C 0.81058 0.31507 0.50796 0.0
C2466 C 0.84547 0.23087 0.57326 0.0
C2467 C 0.82847 0.22438 0.59511 0.0
C2468 C 0.83641 0.24779 0.55398 0.0
C2469 C 0.80988 0.25738 0.55623 0.0
C2470 C 0.79103 0.24569 0.57494 0.0
C2471 C 0.80043 0.22954 0.59456 0.0
H2472 H 0.42696 0.06095 0.27899 0.0
H2473 H 0.46422 0.98535 0.27168 0.0
H2474 H 0.47084 0.08269 0.29433 0.0
H2475 H 0.50869 0.0073 0.28548 0.0
H2476 H 0.56647 0.05061 0.34917 0.0
H2477 H 0.5306 0.02569 0.32353 0.0
H2478 H 0.5165 0.0983 0.28171 0.0
H2479 H 0.5518 0.12326 0.30842 0.0
C2480 C 0.44472 0.04912 0.28031 0.0
C2481 C 0.44227 0.02156 0.27415 0.0
C2482 C 0.47 0.0616 0.28877 0.0
C2483 C 0.49359 0.0469 0.29067 0.0
C2484 C 0.49102 0.01924 0.2844 0.0
C2485 C 0.46554 0.00666 0.2765 0.0
C2486 C 0.55669 0.06083 0.33349 0.0
C2487 C 0.56193 0.0887 0.33052 0.0
C2488 C 0.53589 0.04663 0.3189 0.0
C2489 C 0.52001 0.06015 0.30106 0.0
C2490 C 0.52775 0.08743 0.29585 0.0
C2491 C 0.54844 0.10165 0.31064 0.0
H2492 H 0.65992 0.7086 0.02151 0.0
H2493 H 0.73393 0.72914 0.06683 0.0
H2494 H 0.64585 0.75455 0.02872 0.0
H2495 H 0.72034 0.77442 0.0733 0.0
H2496 H 0.71019 0.8562 0.06926 0.0
H2497 H 0.71481 0.81501 0.04357 0.0
H2498 H 0.63356 0.78388 0.07032 0.0
H2499 H 0.62904 0.82503 0.09584 0.0
C2500 C 0.67297 0.72275 0.03319 0.0
C2501 C 0.69797 0.71519 0.04368 0.0
C2502 C 0.6651 0.74904 0.037 0.0
C2503 C 0.68251 0.76822 0.05073 0.0
C2504 C 0.70695 0.7603 0.06188 0.0
C2505 C 0.71445 0.73412 0.0586 0.0
C2506 C 0.6926 0.84132 0.06814 0.0
C2507 C 0.66926 0.84372 0.08436 0.0
C2508 C 0.69534 0.81762 0.05373 0.0
C2509 C 0.67487 0.79601 0.05573 0.0
C2510 C 0.64966 0.80018 0.06852 0.0
C2511 C 0.64693 0.82395 0.08291 0.0
H2512 H 0.54631 0.48041 0.26675 0.0
H2513 H 0.52901 0.56387 0.2719 0.0
H2514 H 0.50116 0.46726 0.28661 0.0
H2515 H 0.48306 0.55085 0.29025 0.0
H2516 H 0.43124 0.51862 0.36262 0.0
H2517 H 0.46605 0.53566 0.33106 0.0
H2518 H 0.45208 0.4626 0.28443 0.0
H2519 H 0.41764 0.44516 0.3169 0.0
C2520 C 0.53253 0.49586 0.27173 0.0
C2521 C 0.54119 0.5231 0.26834 0.0
C2522 C 0.50649 0.48837 0.28279 0.0
C2523 C 0.48832 0.50798 0.29012 0.0
C2524 C 0.49665 0.53522 0.28538 0.0
C2525 C 0.52295 0.54272 0.27492 0.0
C2526 C 0.43501 0.50653 0.34521 0.0
C2527 C 0.42218 0.48037 0.34248 0.0
C2528 C 0.45496 0.51635 0.32695 0.0
C2529 C 0.4625 0.50023 0.30547 0.0
C2530 C 0.44734 0.47524 0.30116 0.0
C2531 C 0.42728 0.46539 0.31952 0.0
H2532 H 0.17377 0.85167 0.94107 0.0
H2533 H 0.23739 0.82329 -0.01039 0.0
H2534 H 0.15441 0.80512 0.93407 0.0
H2535 H 0.21678 0.77752 0.98557 0.0
H2536 H 0.20137 0.70058 0.93546 0.0
H2537 H 0.21519 0.74407 0.95474 0.0
H2538 H 0.1305 0.76592 0.95034 0.0
H2539 H 0.1174 0.72274 0.92899 0.0
C2540 C 0.18325 0.8354 0.95049 0.0
C2541 C 0.20704 0.84062 0.96569 0.0
C2542 C 0.17199 0.80883 0.94699 0.0
C2543 C 0.18394 0.78738 0.95936 0.0
C2544 C 0.20726 0.79322 0.97528 0.0
C2545 C 0.21898 0.81944 0.97787 0.0
C2546 C 0.18554 0.71429 0.93969 0.0
C2547 C 0.15838 0.70838 0.93091 0.0
C2548 C 0.1934 0.73938 0.95073 0.0
C2549 C 0.17408 0.75894 0.95354 0.0
C2550 C 0.14608 0.75165 0.94774 0.0
C2551 C 0.13833 0.72659 0.93623 0.0
H2552 H 0.44478 0.9806 0.22413 0.0
H2553 H 0.42108 0.91351 0.17234 0.0
H2554 H 0.49297 0.97092 0.22072 0.0
H2555 H 0.46988 0.90517 0.16657 0.0
H2556 H 0.5507 0.8888 0.15419 0.0
H2557 H 0.51116 0.89091 0.18396 0.0
H2558 H 0.52712 0.97753 0.18865 0.0
H2559 H 0.56749 0.9748 0.16041 0.0
C2560 C 0.45009 0.96408 0.21149 0.0
C2561 C 0.42948 0.94813 0.19795 0.0
C2562 C 0.47769 0.95841 0.2097 0.0
C2563 C 0.48544 0.93725 0.19347 0.0
C2564 C 0.46466 0.9212 0.17989 0.0
C2565 C 0.4368 0.92631 0.18253 0.0
C2566 C 0.54695 0.90796 0.16335 0.0
C2567 C 0.56178 0.93167 0.15511 0.0
C2568 C 0.52391 0.90929 0.17989 0.0
C2569 C 0.51507 0.93448 0.18736 0.0
C2570 C 0.53296 0.95774 0.18293 0.0
C2571 C 0.55631 0.95627 0.16682 0.0
H2572 H 0.05549 0.12584 0.73481 0.0
H2573 H 0.06784 0.09546 0.6556 0.0
H2574 H 0.00665 0.13085 0.72506 0.0
H2575 H 0.01938 0.10035 0.64611 0.0
H2576 H 0.93572 0.07814 0.63861 0.0
H2577 H 0.975 0.07256 0.66709 0.0
H2578 H 0.97683 0.15626 0.69018 0.0
H2579 H 0.93843 0.16161 0.66142 0.0
C2580 C 0.04805 0.12114 0.71509 0.0
C2581 C 0.06522 0.10971 0.69607 0.0
C2582 C 0.02006 0.1235 0.70977 0.0
C2583 C 0.00919 0.11446 0.68545 0.0
C2584 C 0.02714 0.10615 0.6655 0.0
C2585 C 0.05497 0.10394 0.67072 0.0
C2586 C 0.94345 0.09494 0.65097 0.0
C2587 C 0.93455 0.12072 0.64724 0.0
C2588 C 0.96598 0.09177 0.66715 0.0
C2589 C 0.97947 0.11436 0.67973 0.0
C2590 C 0.96695 0.13867 0.68031 0.0
C2591 C 0.94452 0.14176 0.66398 0.0
loop_
_geom_bond_atom_site_label_1
_geom_bond_atom_site_label_2
_geom_bond_distance
_geom_bond_site_symmetry_2
_ccdc_geom_bond_type
C0 O1 1.306 . S
C0 O3 1.160 1_655 S
O1 C0 1.306 . S
O1 Cd2 2.228 . S
Cd2 O1 2.228 . S
Cd2 O6 2.273 . S
Cd2 O10 2.277 1_655 S
O3 C0 1.160 1_455 S
O3 Cd4 2.203 . S
Cd4 O3 2.203 . S
Cd4 O6 2.411 1_455 S
Cd4 O7 2.333 . S
Cd4 O8 2.352 . S
Cd4 O12 2.277 . S
Cd4 O13 2.356 . S
C5 O10 1.209 . S
C5 O12 1.226 . S
O6 Cd2 2.273 . S
O6 Cd4 2.411 1_655 S
O6 C9 1.305 1_655 S
O7 Cd4 2.333 . S
O7 C9 1.246 . S
O8 Cd4 2.352 . S
O8 C11 1.258 . S
C9 O6 1.305 1_455 S
C9 O7 1.246 . S
O10 Cd2 2.277 1_455 S
O10 C5 1.209 . S
C11 O8 1.258 . S
C11 O13 1.282 . S
O12 Cd4 2.277 . S
O12 C5 1.226 . S
O13 Cd4 2.356 . S
O13 C11 1.282 . S
C14 O15 1.306 . S
C14 O17 1.160 . S
O15 C14 1.306 . S
O15 Cd16 2.228 1_455 S
Cd16 O15 2.228 1_655 S
Cd16 O20 2.273 . S
Cd16 O24 2.277 . S
O17 C14 1.160 . S
O17 Cd18 2.203 . S
Cd18 O17 2.203 . S
Cd18 O20 2.411 1_455 S
Cd18 O21 2.333 1_455 S
Cd18 O22 2.352 . S
Cd18 O26 2.277 1_455 S
Cd18 O27 2.356 . S
C19 O24 1.209 . S
C19 O26 1.226 . S
O20 Cd16 2.273 . S
O20 Cd18 2.411 1_655 S
O20 C23 1.320 . S
O21 Cd18 2.333 1_655 S
O21 C23 1.214 . S
O22 Cd18 2.352 . S
O22 C25 1.258 . S
C23 O20 1.320 . S
C23 O21 1.214 . S
O24 Cd16 2.277 . S
O24 C19 1.209 . S
C25 O22 1.258 . S
C25 O27 1.282 . S
O26 Cd18 2.277 1_655 S
O26 C19 1.226 . S
O27 Cd18 2.356 . S
O27 C25 1.282 . S
C28 O29 1.306 . S
C28 O31 1.160 . S
O29 C28 1.306 . S
O29 Cd30 2.228 . S
Cd30 O29 2.228 . S
Cd30 O34 2.273 . S
Cd30 O38 2.277 . S
O31 C28 1.160 . S
O31 Cd32 2.203 . S
Cd32 O31 2.203 . S
Cd32 O34 2.411 . S
Cd32 O35 2.333 . S
Cd32 O36 2.352 . S
Cd32 O40 2.277 . S
Cd32 O41 2.356 . S
C33 O38 1.209 . S
C33 O40 1.226 . S
O34 Cd30 2.273 . S
O34 Cd32 2.411 . S
O34 C37 1.320 . S
O35 Cd32 2.333 . S
O35 C37 1.214 . S
O36 Cd32 2.352 . S
O36 C39 1.258 . S
C37 O34 1.320 . S
C37 O35 1.214 . S
O38 Cd30 2.277 . S
O38 C33 1.209 . S
C39 O36 1.258 . S
C39 O41 1.282 . S
O40 Cd32 2.277 . S
O40 C33 1.226 . S
O41 Cd32 2.356 . S
O41 C39 1.282 . S
C42 O43 1.306 . S
C42 O45 1.160 . S
O43 C42 1.306 . S
O43 Cd44 2.228 . S
Cd44 O43 2.228 . S
Cd44 O48 2.273 . S
Cd44 O52 2.277 . S
O45 C42 1.160 . S
O45 Cd46 2.203 . S
Cd46 O45 2.203 . S
Cd46 O48 2.411 . S
Cd46 O49 2.333 . S
Cd46 O50 2.352 . S
Cd46 O54 2.277 . S
Cd46 O55 2.356 . S
C47 O52 1.209 . S
C47 O54 1.226 . S
O48 Cd44 2.273 . S
O48 Cd46 2.411 . S
O48 C51 1.320 . S
O49 Cd46 2.333 . S
O49 C51 1.214 . S
O50 Cd46 2.352 . S
O50 C53 1.258 . S
C51 O48 1.320 . S
C51 O49 1.214 . S
O52 Cd44 2.277 . S
O52 C47 1.209 . S
C53 O50 1.258 . S
C53 O55 1.282 . S
O54 Cd46 2.277 . S
O54 C47 1.226 . S
O55 Cd46 2.356 . S
O55 C53 1.282 . S
C56 O57 1.306 . S
C56 O59 1.160 . S
O57 C56 1.306 . S
O57 Cd58 2.228 . S
Cd58 O57 2.228 . S
Cd58 O62 2.273 . S
Cd58 O66 2.310 . S
O59 C56 1.160 . S
O59 Cd60 2.203 1_655 S
Cd60 O59 2.203 1_455 S
Cd60 O62 2.411 1_455 S
Cd60 O63 2.333 . S
Cd60 O64 2.348 1_455 S
Cd60 O68 2.277 . S
Cd60 O69 2.356 . S
C61 O66 1.175 1_455 S
C61 O68 1.226 . S
O62 Cd58 2.273 . S
O62 Cd60 2.411 1_655 S
O62 C65 1.320 . S
O63 Cd60 2.333 . S
O63 C65 1.214 1_455 S
O64 Cd60 2.348 1_655 S
O64 C67 1.235 1_655 S
C65 O62 1.320 . S
C65 O63 1.214 1_655 S
O66 Cd58 2.310 . S
O66 C61 1.175 1_655 S
C67 O64 1.235 1_455 S
C67 O69 1.282 . S
O68 Cd60 2.277 . S
O68 C61 1.226 . S
O69 Cd60 2.356 . S
O69 C67 1.282 . S
C70 O71 1.306 . S
C70 O73 1.160 . S
O71 C70 1.306 . S
O71 Cd72 2.228 . S
Cd72 O71 2.228 . S
Cd72 O76 2.273 . S
Cd72 O80 2.277 . S
O73 C70 1.160 . S
O73 Cd74 2.203 . S
Cd74 O73 2.203 . S
Cd74 O76 2.411 . S
Cd74 O77 2.333 . S
Cd74 O78 2.352 . S
Cd74 O82 2.277 . S
Cd74 O83 2.356 . S
C75 O80 1.209 . S
C75 O82 1.226 . S
O76 Cd72 2.273 . S
O76 Cd74 2.411 . S
O76 C79 1.320 . S
O77 Cd74 2.333 . S
O77 C79 1.214 . S
O78 Cd74 2.352 . S
O78 C81 1.258 . S
C79 O76 1.320 . S
C79 O77 1.214 . S
O80 Cd72 2.277 . S
O80 C75 1.209 . S
C81 O78 1.258 . S
C81 O83 1.282 . S
O82 Cd74 2.277 . S
O82 C75 1.226 . S
O83 Cd74 2.356 . S
O83 C81 1.282 . S
C84 O85 1.306 . S
C84 O87 1.160 . S
O85 C84 1.306 . S
O85 Cd86 2.228 . S
Cd86 O85 2.228 . S
Cd86 O90 2.273 . S
Cd86 O94 2.277 . S
O87 C84 1.160 . S
O87 Cd88 2.203 . S
Cd88 O87 2.203 . S
Cd88 O90 2.411 . S
Cd88 O91 2.333 . S
Cd88 O92 2.352 . S
Cd88 O96 2.277 . S
Cd88 O97 2.356 . S
C89 O94 1.209 . S
C89 O96 1.226 . S
O90 Cd86 2.273 . S
O90 Cd88 2.411 . S
O90 C93 1.320 . S
O91 Cd88 2.333 . S
O91 C93 1.214 . S
O92 Cd88 2.352 . S
O92 C95 1.258 . S
C93 O90 1.320 . S
C93 O91 1.214 . S
O94 Cd86 2.277 . S
O94 C89 1.209 . S
C95 O92 1.258 . S
C95 O97 1.282 . S
O96 Cd88 2.277 . S
O96 C89 1.226 . S
O97 Cd88 2.356 . S
O97 C95 1.282 . S
C98 O99 1.306 . S
C98 O101 1.160 . S
O99 C98 1.306 . S
O99 Cd100 2.228 . S
Cd100 O99 2.228 . S
Cd100 O104 2.273 . S
Cd100 O108 2.277 1_455 S
O101 C98 1.160 . S
O101 Cd102 2.203 . S
Cd102 O101 2.203 . S
Cd102 O104 2.411 . S
Cd102 O105 2.333 . S
Cd102 O106 2.352 . S
Cd102 O110 2.277 . S
Cd102 O111 2.356 . S
C103 O108 1.209 . S
C103 O110 1.226 1_655 S
O104 Cd100 2.273 . S
O104 Cd102 2.411 . S
O104 C107 1.320 . S
O105 Cd102 2.333 . S
O105 C107 1.214 . S
O106 Cd102 2.352 . S
O106 C109 1.258 . S
C107 O104 1.320 . S
C107 O105 1.214 . S
O108 Cd100 2.277 1_655 S
O108 C103 1.209 . S
C109 O106 1.258 . S
C109 O111 1.282 . S
O110 Cd102 2.277 . S
O110 C103 1.226 1_455 S
O111 Cd102 2.356 . S
O111 C109 1.282 . S
C112 O113 1.306 . S
C112 O115 1.160 . S
O113 C112 1.306 . S
O113 Cd114 2.228 . S
Cd114 O113 2.228 . S
Cd114 O118 2.273 . S
Cd114 O122 2.277 . S
O115 C112 1.160 . S
O115 Cd116 2.203 1_565 S
Cd116 O115 2.203 1_545 S
Cd116 O118 2.411 1_545 S
Cd116 O119 2.333 . S
Cd116 O120 2.352 . S
Cd116 O124 2.277 . S
Cd116 O125 2.356 . S
C117 O122 1.209 1_545 S
C117 O124 1.226 . S
O118 Cd114 2.273 . S
O118 Cd116 2.411 1_565 S
O118 C121 1.320 . S
O119 Cd116 2.333 . S
O119 C121 1.214 1_545 S
O120 Cd116 2.352 . S
O120 C123 1.258 . S
C121 O118 1.320 . S
C121 O119 1.214 1_565 S
O122 Cd114 2.277 . S
O122 C117 1.209 1_565 S
C123 O120 1.258 . S
C123 O125 1.282 . S
O124 Cd116 2.277 . S
O124 C117 1.226 . S
O125 Cd116 2.356 . S
O125 C123 1.282 . S
C126 O127 1.306 . S
C126 O129 1.160 . S
O127 C126 1.306 . S
O127 Cd128 2.228 . S
Cd128 O127 2.228 . S
Cd128 O132 2.273 . S
Cd128 O136 2.277 . S
O129 C126 1.160 . S
O129 Cd130 2.203 . S
Cd130 O129 2.203 . S
Cd130 O132 2.411 . S
Cd130 O133 2.333 . S
Cd130 O134 2.352 . S
Cd130 O138 2.277 . S
Cd130 O139 2.356 . S
C131 O136 1.209 . S
C131 O138 1.226 . S
O132 Cd128 2.273 . S
O132 Cd130 2.411 . S
O132 C135 1.320 . S
O133 Cd130 2.333 . S
O133 C135 1.214 . S
O134 Cd130 2.352 . S
O134 C137 1.258 . S
C135 O132 1.320 . S
C135 O133 1.214 . S
O136 Cd128 2.277 . S
O136 C131 1.209 . S
C137 O134 1.258 . S
C137 O139 1.282 . S
O138 Cd130 2.277 . S
O138 C131 1.226 . S
O139 Cd130 2.356 . S
O139 C137 1.282 . S
C140 O141 1.306 . S
C140 O143 1.160 . S
O141 C140 1.306 . S
O141 Cd142 2.228 . S
Cd142 O141 2.228 . S
Cd142 O146 2.273 . S
Cd142 O150 2.277 . S
O143 C140 1.160 . S
O143 Cd144 2.203 . S
Cd144 O143 2.203 . S
Cd144 O146 2.411 . S
Cd144 O147 2.333 . S
Cd144 O148 2.352 . S
Cd144 O152 2.277 . S
Cd144 O153 2.356 . S
C145 O150 1.209 . S
C145 O152 1.226 . S
O146 Cd142 2.273 . S
O146 Cd144 2.411 . S
O146 C149 1.320 . S
O147 Cd144 2.333 . S
O147 C149 1.214 . S
O148 Cd144 2.352 . S
O148 C151 1.258 . S
C149 O146 1.320 . S
C149 O147 1.214 . S
O150 Cd142 2.277 . S
O150 C145 1.209 . S
C151 O148 1.258 . S
C151 O153 1.282 . S
O152 Cd144 2.277 . S
O152 C145 1.226 . S
O153 Cd144 2.356 . S
O153 C151 1.282 . S
C154 O155 1.306 . S
C154 O157 1.160 . S
O155 C154 1.306 . S
O155 Cd156 2.228 1_554 S
Cd156 O155 2.228 1_556 S
Cd156 O160 2.273 1_556 S
Cd156 O164 2.277 . S
O157 C154 1.160 . S
O157 Cd158 2.203 . S
Cd158 O157 2.203 . S
Cd158 O160 2.411 . S
Cd158 O161 2.333 1_554 S
Cd158 O162 2.352 . S
Cd158 O166 2.277 . S
Cd158 O167 2.356 . S
C159 O164 1.209 . S
C159 O166 1.226 1_556 S
O160 Cd156 2.273 1_554 S
O160 Cd158 2.411 . S
O160 C163 1.320 1_554 S
O161 Cd158 2.333 1_556 S
O161 C163 1.214 . S
O162 Cd158 2.352 . S
O162 C165 1.258 . S
C163 O160 1.320 1_556 S
C163 O161 1.214 . S
O164 Cd156 2.277 . S
O164 C159 1.209 . S
C165 O162 1.258 . S
C165 O167 1.282 . S
O166 Cd158 2.277 . S
O166 C159 1.226 1_554 S
O167 Cd158 2.356 . S
O167 C165 1.282 . S
C168 O169 1.306 . S
C168 O171 1.160 . S
O169 C168 1.306 . S
O169 Cd170 2.228 . S
Cd170 O169 2.228 . S
Cd170 O174 2.273 . S
Cd170 O178 2.277 . S
O171 C168 1.160 . S
O171 Cd172 2.203 1_554 S
Cd172 O171 2.203 1_556 S
Cd172 O174 2.411 1_556 S
Cd172 O175 2.333 1_556 S
Cd172 O176 2.352 1_556 S
Cd172 O180 2.277 . S
Cd172 O181 2.356 . S
C173 O178 1.209 1_556 S
C173 O180 1.226 . S
O174 Cd170 2.273 . S
O174 Cd172 2.411 1_554 S
O174 C177 1.320 . S
O175 Cd172 2.333 1_554 S
O175 C177 1.214 . S
O176 Cd172 2.352 1_554 S
O176 C179 1.258 1_554 S
C177 O174 1.320 . S
C177 O175 1.214 . S
O178 Cd170 2.277 . S
O178 C173 1.209 1_554 S
C179 O176 1.258 1_556 S
C179 O181 1.282 . S
O180 Cd172 2.277 . S
O180 C173 1.226 . S
O181 Cd172 2.356 . S
O181 C179 1.282 . S
C182 O183 1.306 . S
C182 O185 1.160 . S
O183 C182 1.306 . S
O183 Cd184 2.228 . S
Cd184 O183 2.228 . S
Cd184 O188 2.273 . S
Cd184 O192 2.277 . S
O185 C182 1.160 . S
O185 Cd186 2.203 1_554 S
Cd186 O185 2.203 1_556 S
Cd186 O188 2.411 1_556 S
Cd186 O189 2.333 . S
Cd186 O190 2.352 1_556 S
Cd186 O194 2.277 . S
Cd186 O195 2.356 . S
C187 O192 1.209 1_556 S
C187 O194 1.226 . S
O188 Cd184 2.273 . S
O188 Cd186 2.411 1_554 S
O188 C191 1.320 . S
O189 Cd186 2.333 . S
O189 C191 1.214 1_556 S
O190 Cd186 2.352 1_554 S
O190 C193 1.258 1_554 S
C191 O188 1.320 . S
C191 O189 1.214 1_554 S
O192 Cd184 2.277 . S
O192 C187 1.209 1_554 S
C193 O190 1.258 1_556 S
C193 O195 1.282 . S
O194 Cd186 2.277 . S
O194 C187 1.226 . S
O195 Cd186 2.356 . S
O195 C193 1.282 . S
C196 O197 1.306 . S
C196 O199 1.160 . S
O197 C196 1.306 . S
O197 Cd198 2.228 . S
Cd198 O197 2.228 . S
Cd198 O202 2.273 . S
Cd198 O206 2.277 . S
O199 C196 1.160 . S
O199 Cd200 2.203 . S
Cd200 O199 2.203 . S
Cd200 O202 2.411 . S
Cd200 O203 2.333 . S
Cd200 O204 2.352 . S
Cd200 O208 2.277 . S
Cd200 O209 2.356 . S
C201 O206 1.209 . S
C201 O208 1.226 . S
O202 Cd198 2.273 . S
O202 Cd200 2.411 . S
O202 C205 1.320 . S
O203 Cd200 2.333 . S
O203 C205 1.214 . S
O204 Cd200 2.352 . S
O204 C207 1.258 . S
C205 O202 1.320 . S
C205 O203 1.214 . S
O206 Cd198 2.277 . S
O206 C201 1.209 . S
C207 O204 1.258 . S
C207 O209 1.282 . S
O208 Cd200 2.277 . S
O208 C201 1.226 . S
O209 Cd200 2.356 . S
O209 C207 1.282 . S
C210 O211 1.306 . S
C210 O213 1.160 . S
O211 C210 1.306 . S
O211 Cd212 2.228 . S
Cd212 O211 2.228 . S
Cd212 O216 2.273 . S
Cd212 O220 2.277 . S
O213 C210 1.160 . S
O213 Cd214 2.203 . S
Cd214 O213 2.203 . S
Cd214 O216 2.411 . S
Cd214 O217 2.333 . S
Cd214 O218 2.352 . S
Cd214 O222 2.277 . S
Cd214 O223 2.356 . S
C215 O220 1.209 . S
C215 O222 1.226 . S
O216 Cd212 2.273 . S
O216 Cd214 2.411 . S
O216 C219 1.320 . S
O217 Cd214 2.333 . S
O217 C219 1.214 . S
O218 Cd214 2.352 . S
O218 C221 1.258 . S
C219 O216 1.320 . S
C219 O217 1.214 . S
O220 Cd212 2.277 . S
O220 C215 1.209 . S
C221 O218 1.258 . S
C221 O223 1.282 . S
O222 Cd214 2.277 . S
O222 C215 1.226 . S
O223 Cd214 2.356 . S
O223 C221 1.282 . S
C224 O225 1.306 . S
C224 O227 1.160 . S
O225 C224 1.306 . S
O225 Cd226 2.228 1_545 S
Cd226 O225 2.228 1_565 S
Cd226 O230 2.273 . S
Cd226 O234 2.277 . S
O227 C224 1.160 . S
O227 Cd228 2.203 . S
Cd228 O227 2.203 . S
Cd228 O230 2.411 1_545 S
Cd228 O231 2.333 1_545 S
Cd228 O232 2.352 . S
Cd228 O236 2.277 1_545 S
Cd228 O237 2.356 . S
C229 O234 1.209 . S
C229 O236 1.226 . S
O230 Cd226 2.273 . S
O230 Cd228 2.411 1_565 S
O230 C233 1.320 . S
O231 Cd228 2.333 1_565 S
O231 C233 1.214 . S
O232 Cd228 2.352 . S
O232 C235 1.258 . S
C233 O230 1.320 . S
C233 O231 1.214 . S
O234 Cd226 2.277 . S
O234 C229 1.209 . S
C235 O232 1.258 . S
C235 O237 1.282 . S
O236 Cd228 2.277 1_565 S
O236 C229 1.226 . S
O237 Cd228 2.356 . S
O237 C235 1.282 . S
C238 O239 1.306 . S
C238 O241 1.160 . S
O239 C238 1.306 . S
O239 Cd240 2.228 . S
Cd240 O239 2.228 . S
Cd240 O244 2.273 . S
Cd240 O248 2.277 . S
O241 C238 1.160 . S
O241 Cd242 2.203 . S
Cd242 O241 2.203 . S
Cd242 O244 2.411 . S
Cd242 O245 2.333 . S
Cd242 O246 2.352 . S
Cd242 O250 2.277 . S
Cd242 O251 2.356 . S
C243 O248 1.209 . S
C243 O250 1.226 . S
O244 Cd240 2.273 . S
O244 Cd242 2.411 . S
O244 C247 1.320 . S
O245 Cd242 2.333 . S
O245 C247 1.214 . S
O246 Cd242 2.352 . S
O246 C249 1.258 . S
C247 O244 1.320 . S
C247 O245 1.214 . S
O248 Cd240 2.277 . S
O248 C243 1.209 . S
C249 O246 1.258 . S
C249 O251 1.282 . S
O250 Cd242 2.277 . S
O250 C243 1.226 . S
O251 Cd242 2.356 . S
O251 C249 1.282 . S
C252 O253 1.306 . S
C252 O255 1.160 . S
O253 C252 1.306 . S
O253 Cd254 2.228 . S
Cd254 O253 2.228 . S
Cd254 O258 2.273 . S
Cd254 O262 2.277 . S
O255 C252 1.160 . S
O255 Cd256 2.203 . S
Cd256 O255 2.203 . S
Cd256 O258 2.411 . S
Cd256 O259 2.333 . S
Cd256 O260 2.352 . S
Cd256 O264 2.277 . S
Cd256 O265 2.356 . S
C257 O262 1.209 . S
C257 O264 1.226 . S
O258 Cd254 2.273 . S
O258 Cd256 2.411 . S
O258 C261 1.320 . S
O259 Cd256 2.333 . S
O259 C261 1.214 . S
O260 Cd256 2.352 . S
O260 C263 1.258 . S
C261 O258 1.320 . S
C261 O259 1.214 . S
O262 Cd254 2.277 . S
O262 C257 1.209 . S
C263 O260 1.258 . S
C263 O265 1.282 . S
O264 Cd256 2.277 . S
O264 C257 1.226 . S
O265 Cd256 2.356 . S
O265 C263 1.282 . S
C266 O267 1.306 . S
C266 O269 1.160 . S
O267 C266 1.306 . S
O267 Cd268 2.228 . S
Cd268 O267 2.228 . S
Cd268 O272 2.273 . S
Cd268 O276 2.277 . S
O269 C266 1.160 . S
O269 Cd270 2.203 . S
Cd270 O269 2.203 . S
Cd270 O272 2.411 . S
Cd270 O273 2.333 . S
Cd270 O274 2.352 . S
Cd270 O278 2.277 . S
Cd270 O279 2.356 . S
C271 O276 1.209 . S
C271 O278 1.226 . S
O272 Cd268 2.273 . S
O272 Cd270 2.411 . S
O272 C275 1.320 . S
O273 Cd270 2.333 . S
O273 C275 1.214 . S
O274 Cd270 2.352 . S
O274 C277 1.258 . S
C275 O272 1.320 . S
C275 O273 1.214 . S
O276 Cd268 2.277 . S
O276 C271 1.209 . S
C277 O274 1.258 . S
C277 O279 1.282 . S
O278 Cd270 2.277 . S
O278 C271 1.226 . S
O279 Cd270 2.356 . S
O279 C277 1.282 . S
C280 O281 1.306 . S
C280 O283 1.160 . S
O281 C280 1.306 . S
O281 Cd282 2.228 1_554 S
Cd282 O281 2.228 1_556 S
Cd282 O286 2.273 . S
Cd282 O290 2.277 . S
O283 C280 1.160 . S
O283 Cd284 2.203 . S
Cd284 O283 2.203 . S
Cd284 O286 2.411 1_554 S
Cd284 O287 2.333 1_554 S
Cd284 O288 2.352 . S
Cd284 O292 2.277 1_554 S
Cd284 O293 2.356 . S
C285 O290 1.209 . S
C285 O292 1.226 . S
O286 Cd282 2.273 . S
O286 Cd284 2.411 1_556 S
O286 C289 1.320 . S
O287 Cd284 2.333 1_556 S
O287 C289 1.214 . S
O288 Cd284 2.352 . S
O288 C291 1.258 . S
C289 O286 1.320 . S
C289 O287 1.214 . S
O290 Cd282 2.277 . S
O290 C285 1.209 . S
C291 O288 1.258 . S
C291 O293 1.282 . S
O292 Cd284 2.277 1_556 S
O292 C285 1.226 . S
O293 Cd284 2.356 . S
O293 C291 1.282 . S
C294 O295 1.306 . S
C294 O297 1.160 . S
O295 C294 1.306 . S
O295 Cd296 2.228 . S
Cd296 O295 2.228 . S
Cd296 O300 2.273 . S
Cd296 O304 2.277 . S
O297 C294 1.160 . S
O297 Cd298 2.203 . S
Cd298 O297 2.203 . S
Cd298 O300 2.411 . S
Cd298 O301 2.333 . S
Cd298 O302 2.352 . S
Cd298 O306 2.277 . S
Cd298 O307 2.356 . S
C299 O304 1.209 . S
C299 O306 1.226 . S
O300 Cd296 2.273 . S
O300 Cd298 2.411 . S
O300 C303 1.320 . S
O301 Cd298 2.333 . S
O301 C303 1.214 . S
O302 Cd298 2.352 . S
O302 C305 1.258 . S
C303 O300 1.320 . S
C303 O301 1.214 . S
O304 Cd296 2.277 . S
O304 C299 1.209 . S
C305 O302 1.258 . S
C305 O307 1.282 . S
O306 Cd298 2.277 . S
O306 C299 1.226 . S
O307 Cd298 2.356 . S
O307 C305 1.282 . S
C308 O309 1.306 . S
C308 O311 1.160 . S
O309 C308 1.306 . S
O309 Cd310 2.228 . S
Cd310 O309 2.228 . S
Cd310 O314 2.273 . S
Cd310 O318 2.277 . S
O311 C308 1.160 . S
O311 Cd312 2.203 . S
Cd312 O311 2.203 . S
Cd312 O314 2.411 . S
Cd312 O315 2.333 . S
Cd312 O316 2.352 . S
Cd312 O320 2.277 . S
Cd312 O321 2.356 . S
C313 O318 1.209 . S
C313 O320 1.226 . S
O314 Cd310 2.273 . S
O314 Cd312 2.411 . S
O314 C317 1.320 . S
O315 Cd312 2.333 . S
O315 C317 1.214 . S
O316 Cd312 2.352 . S
O316 C319 1.258 . S
C317 O314 1.320 . S
C317 O315 1.214 . S
O318 Cd310 2.277 . S
O318 C313 1.209 . S
C319 O316 1.258 . S
C319 O321 1.282 . S
O320 Cd312 2.277 . S
O320 C313 1.226 . S
O321 Cd312 2.356 . S
O321 C319 1.282 . S
C322 O323 1.306 . S
C322 O325 1.160 . S
O323 C322 1.306 . S
O323 Cd324 2.228 . S
Cd324 O323 2.228 . S
Cd324 O328 2.273 . S
Cd324 O332 2.277 . S
O325 C322 1.160 . S
O325 Cd326 2.203 . S
Cd326 O325 2.203 . S
Cd326 O328 2.411 . S
Cd326 O329 2.333 . S
Cd326 O330 2.352 . S
Cd326 O334 2.277 . S
Cd326 O335 2.356 . S
C327 O332 1.209 . S
C327 O334 1.226 . S
O328 Cd324 2.273 . S
O328 Cd326 2.411 . S
O328 C331 1.320 . S
O329 Cd326 2.333 . S
O329 C331 1.214 . S
O330 Cd326 2.352 . S
O330 C333 1.258 . S
C331 O328 1.320 . S
C331 O329 1.214 . S
O332 Cd324 2.277 . S
O332 C327 1.209 . S
C333 O330 1.258 . S
C333 O335 1.282 . S
O334 Cd326 2.277 . S
O334 C327 1.226 . S
O335 Cd326 2.356 . S
O335 C333 1.282 . S
O336 Mn337 2.163 . S
O336 C350 1.244 . S
Mn337 O336 2.163 . S
Mn337 O340 2.160 . S
Mn337 O341 2.221 . S
Mn337 O343 2.163 . S
Mn337 O345 2.160 . S
Mn337 O355 2.221 . S
O338 Mn339 2.087 . S
O338 C350 1.256 . S
Mn339 O338 2.087 . S
Mn339 O346 2.089 . S
Mn339 O355 2.290 . S
Mn339 O356 2.251 . S
O340 Mn337 2.160 . S
O340 C351 1.239 . S
O341 Mn337 2.221 . S
O341 Mn342 2.290 . S
O341 C352 1.278 . S
Mn342 O341 2.290 . S
Mn342 O344 2.089 . S
Mn342 O347 2.251 . S
Mn342 O348 2.087 . S
O343 Mn337 2.163 . S
O343 C353 1.244 . S
O344 Mn342 2.089 . S
O344 C351 1.256 . S
O345 Mn337 2.160 . S
O345 C354 1.239 . S
O346 Mn339 2.089 . S
O346 C354 1.256 . S
O347 Mn342 2.251 . S
O347 C352 1.241 . S
O348 Mn342 2.087 . S
O348 C353 1.256 . S
C349 O355 1.278 . S
C349 O356 1.241 . S
C350 O336 1.244 . S
C350 O338 1.256 . S
C351 O340 1.239 . S
C351 O344 1.256 . S
C352 O341 1.278 . S
C352 O347 1.241 . S
C353 O343 1.244 . S
C353 O348 1.256 . S
C354 O345 1.239 . S
C354 O346 1.256 . S
O355 Mn337 2.221 . S
O355 Mn339 2.290 . S
O355 C349 1.278 . S
O356 Mn339 2.251 . S
O356 C349 1.241 . S
O357 Mn358 2.163 . S
O357 C371 1.244 . S
Mn358 O357 2.163 . S
Mn358 O361 2.160 . S
Mn358 O362 2.221 . S
Mn358 O364 2.163 . S
Mn358 O366 2.160 . S
Mn358 O376 2.221 . S
O359 Mn360 2.087 . S
O359 C371 1.256 . S
Mn360 O359 2.087 . S
Mn360 O367 2.089 . S
Mn360 O376 2.290 . S
Mn360 O377 2.251 . S
O361 Mn358 2.160 . S
O361 C372 1.239 . S
O362 Mn358 2.221 . S
O362 Mn363 2.290 . S
O362 C373 1.278 . S
Mn363 O362 2.290 . S
Mn363 O365 2.089 . S
Mn363 O368 2.251 . S
Mn363 O369 2.087 . S
O364 Mn358 2.163 . S
O364 C374 1.244 . S
O365 Mn363 2.089 . S
O365 C372 1.256 . S
O366 Mn358 2.160 . S
O366 C375 1.239 . S
O367 Mn360 2.089 . S
O367 C375 1.256 . S
O368 Mn363 2.251 . S
O368 C373 1.241 . S
O369 Mn363 2.087 . S
O369 C374 1.256 . S
C370 O376 1.278 . S
C370 O377 1.241 . S
C371 O357 1.244 . S
C371 O359 1.256 . S
C372 O361 1.239 . S
C372 O365 1.256 . S
C373 O362 1.278 . S
C373 O368 1.241 . S
C374 O364 1.244 . S
C374 O369 1.256 . S
C375 O366 1.239 . S
C375 O367 1.256 . S
O376 Mn358 2.221 . S
O376 Mn360 2.290 . S
O376 C370 1.278 . S
O377 Mn360 2.251 . S
O377 C370 1.241 . S
O378 Mn379 2.163 . S
O378 C392 1.244 . S
Mn379 O378 2.163 . S
Mn379 O382 2.160 . S
Mn379 O383 2.221 . S
Mn379 O385 2.163 . S
Mn379 O387 2.160 . S
Mn379 O397 2.221 . S
O380 Mn381 2.087 . S
O380 C392 1.256 . S
Mn381 O380 2.087 . S
Mn381 O388 2.089 . S
Mn381 O397 2.290 . S
Mn381 O398 2.251 . S
O382 Mn379 2.160 . S
O382 C393 1.239 . S
O383 Mn379 2.221 . S
O383 Mn384 2.290 . S
O383 C394 1.278 . S
Mn384 O383 2.290 . S
Mn384 O386 2.089 . S
Mn384 O389 2.251 . S
Mn384 O390 2.087 . S
O385 Mn379 2.163 . S
O385 C395 1.244 . S
O386 Mn384 2.089 . S
O386 C393 1.256 . S
O387 Mn379 2.160 . S
O387 C396 1.239 . S
O388 Mn381 2.089 . S
O388 C396 1.256 . S
O389 Mn384 2.251 . S
O389 C394 1.241 . S
O390 Mn384 2.087 . S
O390 C395 1.256 . S
C391 O397 1.278 . S
C391 O398 1.241 . S
C392 O378 1.244 . S
C392 O380 1.256 . S
C393 O382 1.239 . S
C393 O386 1.256 . S
C394 O383 1.278 . S
C394 O389 1.241 . S
C395 O385 1.244 . S
C395 O390 1.256 . S
C396 O387 1.239 . S
C396 O388 1.256 . S
O397 Mn379 2.221 . S
O397 Mn381 2.290 . S
O397 C391 1.278 . S
O398 Mn381 2.251 . S
O398 C391 1.241 . S
O399 Mn400 2.163 . S
O399 C413 1.244 . S
Mn400 O399 2.163 . S
Mn400 O403 2.160 . S
Mn400 O404 2.221 . S
Mn400 O406 2.163 . S
Mn400 O408 2.160 . S
Mn400 O418 2.221 . S
O401 Mn402 2.087 . S
O401 C413 1.256 . S
Mn402 O401 2.087 . S
Mn402 O409 2.089 . S
Mn402 O418 2.290 . S
Mn402 O419 2.251 . S
O403 Mn400 2.160 . S
O403 C414 1.239 . S
O404 Mn400 2.221 . S
O404 Mn405 2.290 . S
O404 C415 1.278 . S
Mn405 O404 2.290 . S
Mn405 O407 2.089 . S
Mn405 O410 2.251 . S
Mn405 O411 2.087 . S
O406 Mn400 2.163 . S
O406 C416 1.244 . S
O407 Mn405 2.089 . S
O407 C414 1.256 . S
O408 Mn400 2.160 . S
O408 C417 1.239 . S
O409 Mn402 2.089 . S
O409 C417 1.256 . S
O410 Mn405 2.251 . S
O410 C415 1.241 . S
O411 Mn405 2.087 . S
O411 C416 1.256 . S
C412 O418 1.278 . S
C412 O419 1.241 . S
C413 O399 1.244 . S
C413 O401 1.256 . S
C414 O403 1.239 . S
C414 O407 1.256 . S
C415 O404 1.278 . S
C415 O410 1.241 . S
C416 O406 1.244 . S
C416 O411 1.256 . S
C417 O408 1.239 . S
C417 O409 1.256 . S
O418 Mn400 2.221 . S
O418 Mn402 2.290 . S
O418 C412 1.278 . S
O419 Mn402 2.251 . S
O419 C412 1.241 . S
O420 Mn421 2.163 . S
O420 C434 1.244 . S
Mn421 O420 2.163 . S
Mn421 O424 2.160 . S
Mn421 O425 2.221 . S
Mn421 O427 2.163 . S
Mn421 O429 2.160 . S
Mn421 O439 2.221 . S
O422 Mn423 2.087 . S
O422 C434 1.256 . S
Mn423 O422 2.087 . S
Mn423 O430 2.089 . S
Mn423 O439 2.290 . S
Mn423 O440 2.251 . S
O424 Mn421 2.160 . S
O424 C435 1.239 . S
O425 Mn421 2.221 . S
O425 Mn426 2.290 . S
O425 C436 1.278 . S
Mn426 O425 2.290 . S
Mn426 O428 2.089 . S
Mn426 O431 2.251 . S
Mn426 O432 2.087 . S
O427 Mn421 2.163 . S
O427 C437 1.244 . S
O428 Mn426 2.089 . S
O428 C435 1.256 . S
O429 Mn421 2.160 . S
O429 C438 1.239 . S
O430 Mn423 2.089 . S
O430 C438 1.256 . S
O431 Mn426 2.251 . S
O431 C436 1.241 . S
O432 Mn426 2.087 . S
O432 C437 1.256 . S
C433 O439 1.278 . S
C433 O440 1.241 . S
C434 O420 1.244 . S
C434 O422 1.256 . S
C435 O424 1.239 . S
C435 O428 1.256 . S
C436 O425 1.278 . S
C436 O431 1.241 . S
C437 O427 1.244 . S
C437 O432 1.256 . S
C438 O429 1.239 . S
C438 O430 1.256 . S
O439 Mn421 2.221 . S
O439 Mn423 2.290 . S
O439 C433 1.278 . S
O440 Mn423 2.251 . S
O440 C433 1.241 . S
O441 Mn442 2.163 . S
O441 C455 1.244 . S
Mn442 O441 2.163 . S
Mn442 O445 2.160 . S
Mn442 O446 2.221 . S
Mn442 O448 2.163 . S
Mn442 O450 2.160 . S
Mn442 O460 2.221 . S
O443 Mn444 2.087 . S
O443 C455 1.256 . S
Mn444 O443 2.087 . S
Mn444 O451 2.089 . S
Mn444 O460 2.290 . S
Mn444 O461 2.251 . S
O445 Mn442 2.160 . S
O445 C456 1.239 . S
O446 Mn442 2.221 . S
O446 Mn447 2.290 . S
O446 C457 1.278 . S
Mn447 O446 2.290 . S
Mn447 O449 2.089 . S
Mn447 O452 2.251 . S
Mn447 O453 2.087 . S
O448 Mn442 2.163 . S
O448 C458 1.244 . S
O449 Mn447 2.089 . S
O449 C456 1.256 . S
O450 Mn442 2.160 . S
O450 C459 1.239 . S
O451 Mn444 2.089 . S
O451 C459 1.256 . S
O452 Mn447 2.251 . S
O452 C457 1.241 . S
O453 Mn447 2.087 . S
O453 C458 1.256 . S
C454 O460 1.278 . S
C454 O461 1.241 . S
C455 O441 1.244 . S
C455 O443 1.256 . S
C456 O445 1.239 . S
C456 O449 1.256 . S
C457 O446 1.278 . S
C457 O452 1.241 . S
C458 O448 1.244 . S
C458 O453 1.256 . S
C459 O450 1.239 . S
C459 O451 1.256 . S
O460 Mn442 2.221 . S
O460 Mn444 2.290 . S
O460 C454 1.278 . S
O461 Mn444 2.251 . S
O461 C454 1.241 . S
O462 Mn463 2.163 . S
O462 C476 1.244 . S
Mn463 O462 2.163 . S
Mn463 O466 2.160 . S
Mn463 O467 2.221 . S
Mn463 O469 2.163 . S
Mn463 O471 2.160 . S
Mn463 O481 2.221 . S
O464 Mn465 2.087 . S
O464 C476 1.256 . S
Mn465 O464 2.087 . S
Mn465 O472 2.089 . S
Mn465 O481 2.290 . S
Mn465 O482 2.251 . S
O466 Mn463 2.160 . S
O466 C477 1.239 . S
O467 Mn463 2.221 . S
O467 Mn468 2.290 . S
O467 C478 1.278 . S
Mn468 O467 2.290 . S
Mn468 O470 2.089 . S
Mn468 O473 2.251 . S
Mn468 O474 2.087 . S
O469 Mn463 2.163 . S
O469 C479 1.244 . S
O470 Mn468 2.089 . S
O470 C477 1.256 . S
O471 Mn463 2.160 . S
O471 C480 1.239 . S
O472 Mn465 2.089 . S
O472 C480 1.256 . S
O473 Mn468 2.251 . S
O473 C478 1.241 . S
O474 Mn468 2.087 . S
O474 C479 1.256 . S
C475 O481 1.278 . S
C475 O482 1.241 . S
C476 O462 1.244 . S
C476 O464 1.256 . S
C477 O466 1.239 . S
C477 O470 1.256 . S
C478 O467 1.278 . S
C478 O473 1.241 . S
C479 O469 1.244 . S
C479 O474 1.256 . S
C480 O471 1.239 . S
C480 O472 1.256 . S
O481 Mn463 2.221 . S
O481 Mn465 2.290 . S
O481 C475 1.278 . S
O482 Mn465 2.251 . S
O482 C475 1.241 . S
O483 Mn484 2.163 . S
O483 C497 1.244 . S
Mn484 O483 2.163 . S
Mn484 O487 2.160 . S
Mn484 O488 2.221 . S
Mn484 O490 2.163 . S
Mn484 O492 2.160 . S
Mn484 O502 2.221 . S
O485 Mn486 2.087 . S
O485 C497 1.256 . S
Mn486 O485 2.087 . S
Mn486 O493 2.089 . S
Mn486 O502 2.290 . S
Mn486 O503 2.251 . S
O487 Mn484 2.160 . S
O487 C498 1.239 . S
O488 Mn484 2.221 . S
O488 Mn489 2.290 . S
O488 C499 1.278 . S
Mn489 O488 2.290 . S
Mn489 O491 2.089 . S
Mn489 O494 2.251 . S
Mn489 O495 2.087 . S
O490 Mn484 2.163 . S
O490 C500 1.244 . S
O491 Mn489 2.089 . S
O491 C498 1.256 . S
O492 Mn484 2.160 . S
O492 C501 1.239 . S
O493 Mn486 2.089 . S
O493 C501 1.256 . S
O494 Mn489 2.251 . S
O494 C499 1.241 . S
O495 Mn489 2.087 . S
O495 C500 1.256 . S
C496 O502 1.278 . S
C496 O503 1.241 . S
C497 O483 1.244 . S
C497 O485 1.256 . S
C498 O487 1.239 . S
C498 O491 1.256 . S
C499 O488 1.278 . S
C499 O494 1.241 . S
C500 O490 1.244 . S
C500 O495 1.256 . S
C501 O492 1.239 . S
C501 O493 1.256 . S
O502 Mn484 2.221 . S
O502 Mn486 2.290 . S
O502 C496 1.278 . S
O503 Mn486 2.251 . S
O503 C496 1.241 . S
O504 Mn505 2.163 . S
O504 C518 1.244 . S
Mn505 O504 2.163 . S
Mn505 O508 2.160 . S
Mn505 O509 2.221 . S
Mn505 O511 2.163 . S
Mn505 O513 2.160 . S
Mn505 O523 2.221 . S
O506 Mn507 2.087 . S
O506 C518 1.256 . S
Mn507 O506 2.087 . S
Mn507 O514 2.089 . S
Mn507 O523 2.290 . S
Mn507 O524 2.251 . S
O508 Mn505 2.160 . S
O508 C519 1.239 . S
O509 Mn505 2.221 . S
O509 Mn510 2.290 . S
O509 C520 1.278 . S
Mn510 O509 2.290 . S
Mn510 O512 2.089 . S
Mn510 O515 2.251 . S
Mn510 O516 2.087 . S
O511 Mn505 2.163 . S
O511 C521 1.244 . S
O512 Mn510 2.089 . S
O512 C519 1.256 . S
O513 Mn505 2.160 . S
O513 C522 1.239 . S
O514 Mn507 2.089 . S
O514 C522 1.256 . S
O515 Mn510 2.251 . S
O515 C520 1.241 . S
O516 Mn510 2.087 . S
O516 C521 1.256 . S
C517 O523 1.278 . S
C517 O524 1.241 . S
C518 O504 1.244 . S
C518 O506 1.256 . S
C519 O508 1.239 . S
C519 O512 1.256 . S
C520 O509 1.278 . S
C520 O515 1.241 . S
C521 O511 1.244 . S
C521 O516 1.256 . S
C522 O513 1.239 . S
C522 O514 1.256 . S
O523 Mn505 2.221 . S
O523 Mn507 2.290 . S
O523 C517 1.278 . S
O524 Mn507 2.251 . S
O524 C517 1.241 . S
O525 Mn526 2.163 . S
O525 C539 1.244 . S
Mn526 O525 2.163 . S
Mn526 O529 2.160 . S
Mn526 O530 2.221 . S
Mn526 O532 2.163 . S
Mn526 O534 2.160 . S
Mn526 O544 2.221 . S
O527 Mn528 2.087 . S
O527 C539 1.256 . S
Mn528 O527 2.087 . S
Mn528 O535 2.089 . S
Mn528 O544 2.290 . S
Mn528 O545 2.251 . S
O529 Mn526 2.160 . S
O529 C540 1.239 . S
O530 Mn526 2.221 . S
O530 Mn531 2.290 . S
O530 C541 1.278 . S
Mn531 O530 2.290 . S
Mn531 O533 2.089 . S
Mn531 O536 2.251 . S
Mn531 O537 2.087 . S
O532 Mn526 2.163 . S
O532 C542 1.244 . S
O533 Mn531 2.089 . S
O533 C540 1.256 . S
O534 Mn526 2.160 . S
O534 C543 1.239 . S
O535 Mn528 2.089 . S
O535 C543 1.256 . S
O536 Mn531 2.251 . S
O536 C541 1.241 . S
O537 Mn531 2.087 . S
O537 C542 1.256 . S
C538 O544 1.278 . S
C538 O545 1.241 . S
C539 O525 1.244 . S
C539 O527 1.256 . S
C540 O529 1.239 . S
C540 O533 1.256 . S
C541 O530 1.278 . S
C541 O536 1.241 . S
C542 O532 1.244 . S
C542 O537 1.256 . S
C543 O534 1.239 . S
C543 O535 1.256 . S
O544 Mn526 2.221 . S
O544 Mn528 2.290 . S
O544 C538 1.278 . S
O545 Mn528 2.251 . S
O545 C538 1.241 . S
O546 Mn547 2.163 . S
O546 C560 1.244 . S
Mn547 O546 2.163 . S
Mn547 O550 2.160 . S
Mn547 O551 2.221 . S
Mn547 O553 2.163 . S
Mn547 O555 2.160 . S
Mn547 O565 2.221 . S
O548 Mn549 2.087 . S
O548 C560 1.256 . S
Mn549 O548 2.087 . S
Mn549 O556 2.089 . S
Mn549 O565 2.290 . S
Mn549 O566 2.251 . S
O550 Mn547 2.160 . S
O550 C561 1.239 . S
O551 Mn547 2.221 . S
O551 Mn552 2.290 . S
O551 C562 1.278 . S
Mn552 O551 2.290 . S
Mn552 O554 2.089 . S
Mn552 O557 2.251 . S
Mn552 O558 2.087 . S
O553 Mn547 2.163 . S
O553 C563 1.244 . S
O554 Mn552 2.089 . S
O554 C561 1.256 . S
O555 Mn547 2.160 . S
O555 C564 1.239 . S
O556 Mn549 2.089 . S
O556 C564 1.256 . S
O557 Mn552 2.251 . S
O557 C562 1.241 . S
O558 Mn552 2.087 . S
O558 C563 1.256 . S
C559 O565 1.278 . S
C559 O566 1.241 . S
C560 O546 1.244 . S
C560 O548 1.256 . S
C561 O550 1.239 . S
C561 O554 1.256 . S
C562 O551 1.278 . S
C562 O557 1.241 . S
C563 O553 1.244 . S
C563 O558 1.256 . S
C564 O555 1.239 . S
C564 O556 1.256 . S
O565 Mn547 2.221 . S
O565 Mn549 2.290 . S
O565 C559 1.278 . S
O566 Mn549 2.251 . S
O566 C559 1.241 . S
O567 Mn568 2.163 . S
O567 C581 1.244 . S
Mn568 O567 2.163 . S
Mn568 O571 2.160 . S
Mn568 O572 2.221 . S
Mn568 O574 2.163 . S
Mn568 O576 2.160 . S
Mn568 O586 2.221 . S
O569 Mn570 2.087 . S
O569 C581 1.256 . S
Mn570 O569 2.087 . S
Mn570 O577 2.089 . S
Mn570 O586 2.290 . S
Mn570 O587 2.251 . S
O571 Mn568 2.160 . S
O571 C582 1.239 . S
O572 Mn568 2.221 . S
O572 Mn573 2.290 . S
O572 C583 1.278 . S
Mn573 O572 2.290 . S
Mn573 O575 2.089 . S
Mn573 O578 2.251 . S
Mn573 O579 2.087 . S
O574 Mn568 2.163 . S
O574 C584 1.244 . S
O575 Mn573 2.089 . S
O575 C582 1.256 . S
O576 Mn568 2.160 . S
O576 C585 1.239 . S
O577 Mn570 2.089 . S
O577 C585 1.256 . S
O578 Mn573 2.251 . S
O578 C583 1.241 . S
O579 Mn573 2.087 . S
O579 C584 1.256 . S
C580 O586 1.278 . S
C580 O587 1.241 . S
C581 O567 1.244 . S
C581 O569 1.256 . S
C582 O571 1.239 . S
C582 O575 1.256 . S
C583 O572 1.278 . S
C583 O578 1.241 . S
C584 O574 1.244 . S
C584 O579 1.256 . S
C585 O576 1.239 . S
C585 O577 1.256 . S
O586 Mn568 2.221 . S
O586 Mn570 2.290 . S
O586 C580 1.278 . S
O587 Mn570 2.251 . S
O587 C580 1.241 . S
O588 Mn589 2.163 . S
O588 C602 1.244 . S
Mn589 O588 2.163 . S
Mn589 O592 2.160 . S
Mn589 O593 2.221 . S
Mn589 O595 2.163 . S
Mn589 O597 2.160 . S
Mn589 O607 2.221 . S
O590 Mn591 2.087 . S
O590 C602 1.256 . S
Mn591 O590 2.087 . S
Mn591 O598 2.089 . S
Mn591 O607 2.290 . S
Mn591 O608 2.251 . S
O592 Mn589 2.160 . S
O592 C603 1.239 . S
O593 Mn589 2.221 . S
O593 Mn594 2.290 . S
O593 C604 1.278 . S
Mn594 O593 2.290 . S
Mn594 O596 2.089 . S
Mn594 O599 2.251 . S
Mn594 O600 2.087 . S
O595 Mn589 2.163 . S
O595 C605 1.244 . S
O596 Mn594 2.089 . S
O596 C603 1.256 . S
O597 Mn589 2.160 . S
O597 C606 1.239 . S
O598 Mn591 2.089 . S
O598 C606 1.256 . S
O599 Mn594 2.251 . S
O599 C604 1.241 . S
O600 Mn594 2.087 . S
O600 C605 1.256 . S
C601 O607 1.278 . S
C601 O608 1.241 . S
C602 O588 1.244 . S
C602 O590 1.256 . S
C603 O592 1.239 . S
C603 O596 1.256 . S
C604 O593 1.278 . S
C604 O599 1.241 . S
C605 O595 1.244 . S
C605 O600 1.256 . S
C606 O597 1.239 . S
C606 O598 1.256 . S
O607 Mn589 2.221 . S
O607 Mn591 2.290 . S
O607 C601 1.278 . S
O608 Mn591 2.251 . S
O608 C601 1.241 . S
O609 Mn610 2.163 . S
O609 C623 1.244 . S
Mn610 O609 2.163 . S
Mn610 O613 2.160 . S
Mn610 O614 2.221 . S
Mn610 O616 2.163 . S
Mn610 O618 2.160 . S
Mn610 O628 2.221 . S
O611 Mn612 2.087 . S
O611 C623 1.256 . S
Mn612 O611 2.087 . S
Mn612 O619 2.089 . S
Mn612 O628 2.290 . S
Mn612 O629 2.251 . S
O613 Mn610 2.160 . S
O613 C624 1.239 . S
O614 Mn610 2.221 . S
O614 Mn615 2.290 . S
O614 C625 1.278 . S
Mn615 O614 2.290 . S
Mn615 O617 2.089 . S
Mn615 O620 2.251 . S
Mn615 O621 2.087 . S
O616 Mn610 2.163 . S
O616 C626 1.244 . S
O617 Mn615 2.089 . S
O617 C624 1.256 . S
O618 Mn610 2.160 . S
O618 C627 1.239 . S
O619 Mn612 2.089 . S
O619 C627 1.256 . S
O620 Mn615 2.251 . S
O620 C625 1.241 . S
O621 Mn615 2.087 . S
O621 C626 1.256 . S
C622 O628 1.278 . S
C622 O629 1.241 . S
C623 O609 1.244 . S
C623 O611 1.256 . S
C624 O613 1.239 . S
C624 O617 1.256 . S
C625 O614 1.278 . S
C625 O620 1.241 . S
C626 O616 1.244 . S
C626 O621 1.256 . S
C627 O618 1.239 . S
C627 O619 1.256 . S
O628 Mn610 2.221 . S
O628 Mn612 2.290 . S
O628 C622 1.278 . S
O629 Mn612 2.251 . S
O629 C622 1.241 . S
O630 Mn631 2.163 . S
O630 C644 1.244 . S
Mn631 O630 2.163 . S
Mn631 O634 2.160 . S
Mn631 O635 2.221 . S
Mn631 O637 2.163 . S
Mn631 O639 2.160 . S
Mn631 O649 2.221 . S
O632 Mn633 2.087 . S
O632 C644 1.256 . S
Mn633 O632 2.087 . S
Mn633 O640 2.089 . S
Mn633 O649 2.290 . S
Mn633 O650 2.251 . S
O634 Mn631 2.160 . S
O634 C645 1.239 . S
O635 Mn631 2.221 . S
O635 Mn636 2.290 . S
O635 C646 1.278 . S
Mn636 O635 2.290 . S
Mn636 O638 2.089 . S
Mn636 O641 2.251 . S
Mn636 O642 2.087 . S
O637 Mn631 2.163 . S
O637 C647 1.244 . S
O638 Mn636 2.089 . S
O638 C645 1.256 . S
O639 Mn631 2.160 . S
O639 C648 1.239 . S
O640 Mn633 2.089 . S
O640 C648 1.256 . S
O641 Mn636 2.251 . S
O641 C646 1.241 . S
O642 Mn636 2.087 . S
O642 C647 1.256 . S
C643 O649 1.278 . S
C643 O650 1.241 . S
C644 O630 1.244 . S
C644 O632 1.256 . S
C645 O634 1.239 . S
C645 O638 1.256 . S
C646 O635 1.278 . S
C646 O641 1.241 . S
C647 O637 1.244 . S
C647 O642 1.256 . S
C648 O639 1.239 . S
C648 O640 1.256 . S
O649 Mn631 2.221 . S
O649 Mn633 2.290 . S
O649 C643 1.278 . S
O650 Mn633 2.251 . S
O650 C643 1.241 . S
O651 Mn652 2.163 . S
O651 C665 1.244 . S
Mn652 O651 2.163 . S
Mn652 O655 2.160 . S
Mn652 O656 2.221 . S
Mn652 O658 2.163 . S
Mn652 O660 2.160 . S
Mn652 O670 2.221 . S
O653 Mn654 2.087 . S
O653 C665 1.256 . S
Mn654 O653 2.087 . S
Mn654 O661 2.089 . S
Mn654 O670 2.290 . S
Mn654 O671 2.251 . S
O655 Mn652 2.160 . S
O655 C666 1.239 . S
O656 Mn652 2.221 . S
O656 Mn657 2.290 . S
O656 C667 1.278 . S
Mn657 O656 2.290 . S
Mn657 O659 2.089 . S
Mn657 O662 2.251 . S
Mn657 O663 2.087 . S
O658 Mn652 2.163 . S
O658 C668 1.244 . S
O659 Mn657 2.089 . S
O659 C666 1.256 . S
O660 Mn652 2.160 . S
O660 C669 1.239 . S
O661 Mn654 2.089 . S
O661 C669 1.256 . S
O662 Mn657 2.251 . S
O662 C667 1.241 . S
O663 Mn657 2.087 . S
O663 C668 1.256 . S
C664 O670 1.278 . S
C664 O671 1.241 . S
C665 O651 1.244 . S
C665 O653 1.256 . S
C666 O655 1.239 . S
C666 O659 1.256 . S
C667 O656 1.278 . S
C667 O662 1.241 . S
C668 O658 1.244 . S
C668 O663 1.256 . S
C669 O660 1.239 . S
C669 O661 1.256 . S
O670 Mn652 2.221 . S
O670 Mn654 2.290 . S
O670 C664 1.278 . S
O671 Mn654 2.251 . S
O671 C664 1.241 . S
H672 C680 0.950 . S
H673 C685 0.950 . S
H674 C682 0.950 . S
H675 C684 0.950 . S
H676 C686 0.950 . S
H677 C688 0.950 . S
H678 C690 0.950 . S
H679 C691 0.950 . S
C680 H672 0.950 . S
C680 C681 1.386 . S
C680 C682 1.391 . S
C681 C680 1.386 . S
C681 C685 1.393 . S
C682 H674 0.950 . S
C682 C680 1.391 . S
C682 C683 1.400 . S
C683 C682 1.400 . S
C683 C684 1.398 . S
C683 C689 1.491 . S
C684 H675 0.950 . S
C684 C683 1.398 . S
C684 C685 1.391 . S
C685 H673 0.950 . S
C685 C681 1.393 . S
C685 C684 1.391 . S
C686 H676 0.950 . S
C686 C687 1.386 . S
C686 C688 1.391 . S
C687 C686 1.386 . S
C687 C691 1.393 . S
C688 H677 0.950 . S
C688 C686 1.391 . S
C688 C689 1.400 . S
C689 C683 1.491 . S
C689 C688 1.400 . S
C689 C690 1.398 . S
C690 H678 0.950 . S
C690 C689 1.398 . S
C690 C691 1.391 . S
C691 H679 0.950 . S
C691 C687 1.393 . S
C691 C690 1.391 . S
H692 C700 0.950 . S
H693 C705 0.950 . S
H694 C702 0.950 . S
H695 C704 0.950 . S
H696 C706 0.950 . S
H697 C708 0.950 . S
H698 C710 0.950 . S
H699 C711 0.950 . S
C700 H692 0.950 . S
C700 C701 1.386 . S
C700 C702 1.391 . S
C701 C700 1.386 . S
C701 C705 1.393 . S
C702 H694 0.950 . S
C702 C700 1.391 . S
C702 C703 1.400 . S
C703 C702 1.400 . S
C703 C704 1.398 . S
C703 C709 1.491 . S
C704 H695 0.950 . S
C704 C703 1.398 . S
C704 C705 1.391 . S
C705 H693 0.950 . S
C705 C701 1.393 . S
C705 C704 1.391 . S
C706 H696 0.950 . S
C706 C707 1.386 . S
C706 C708 1.391 . S
C707 C706 1.386 . S
C707 C711 1.393 . S
C708 H697 0.950 . S
C708 C706 1.391 . S
C708 C709 1.400 . S
C709 C703 1.491 . S
C709 C708 1.400 . S
C709 C710 1.398 . S
C710 H698 0.950 . S
C710 C709 1.398 . S
C710 C711 1.391 . S
C711 H699 0.950 . S
C711 C707 1.393 . S
C711 C710 1.391 . S
H712 C720 0.950 . S
H713 C725 0.950 . S
H714 C722 0.950 . S
H715 C724 0.950 . S
H716 C726 0.950 . S
H717 C728 0.950 . S
H718 C730 0.950 . S
H719 C731 0.950 . S
C720 H712 0.950 . S
C720 C721 1.386 . S
C720 C722 1.391 . S
C721 C720 1.386 . S
C721 C725 1.393 . S
C722 H714 0.950 . S
C722 C720 1.391 . S
C722 C723 1.400 . S
C723 C722 1.400 . S
C723 C724 1.398 . S
C723 C729 1.491 . S
C724 H715 0.950 . S
C724 C723 1.398 . S
C724 C725 1.391 . S
C725 H713 0.950 . S
C725 C721 1.393 . S
C725 C724 1.391 . S
C726 H716 0.950 . S
C726 C727 1.386 . S
C726 C728 1.391 . S
C727 C726 1.386 . S
C727 C731 1.393 . S
C728 H717 0.950 . S
C728 C726 1.391 . S
C728 C729 1.400 . S
C729 C723 1.491 . S
C729 C728 1.400 . S
C729 C730 1.398 . S
C730 H718 0.950 . S
C730 C729 1.398 . S
C730 C731 1.391 . S
C731 H719 0.950 . S
C731 C727 1.393 . S
C731 C730 1.391 . S
H732 C740 0.950 . S
H733 C745 0.950 . S
H734 C742 0.950 . S
H735 C744 0.950 . S
H736 C746 0.950 . S
H737 C748 0.950 . S
H738 C750 0.950 . S
H739 C751 0.950 . S
C740 H732 0.950 . S
C740 C741 1.386 . S
C740 C742 1.391 . S
C741 C740 1.386 . S
C741 C745 1.393 . S
C742 H734 0.950 . S
C742 C740 1.391 . S
C742 C743 1.400 . S
C743 C742 1.400 . S
C743 C744 1.398 . S
C743 C749 1.491 . S
C744 H735 0.950 . S
C744 C743 1.398 . S
C744 C745 1.391 . S
C745 H733 0.950 . S
C745 C741 1.393 . S
C745 C744 1.391 . S
C746 H736 0.950 . S
C746 C747 1.386 . S
C746 C748 1.391 . S
C747 C746 1.386 . S
C747 C751 1.393 . S
C748 H737 0.950 . S
C748 C746 1.391 . S
C748 C749 1.400 1_556 S
C749 C743 1.491 . S
C749 C748 1.400 1_554 S
C749 C750 1.398 . S
C750 H738 0.950 . S
C750 C749 1.398 . S
C750 C751 1.391 1_554 S
C751 H739 0.950 . S
C751 C747 1.393 . S
C751 C750 1.391 1_556 S
H752 C760 0.950 1_655 S
H753 C765 0.950 . S
H754 C762 0.950 . S
H755 C764 0.950 . S
H756 C766 0.950 . S
H757 C768 0.950 . S
H758 C770 0.950 . S
H759 C771 0.950 . S
C760 H752 0.950 1_455 S
C760 C761 1.386 . S
C760 C762 1.391 . S
C761 C760 1.386 . S
C761 C765 1.393 . S
C762 H754 0.950 . S
C762 C760 1.391 . S
C762 C763 1.400 . S
C763 C762 1.400 . S
C763 C764 1.398 . S
C763 C769 1.491 . S
C764 H755 0.950 . S
C764 C763 1.398 . S
C764 C765 1.391 . S
C765 H753 0.950 . S
C765 C761 1.393 . S
C765 C764 1.391 . S
C766 H756 0.950 . S
C766 C767 1.386 . S
C766 C768 1.391 . S
C767 C766 1.386 . S
C767 C771 1.393 . S
C768 H757 0.950 . S
C768 C766 1.391 . S
C768 C769 1.400 . S
C769 C763 1.491 . S
C769 C768 1.400 . S
C769 C770 1.398 . S
C770 H758 0.950 . S
C770 C769 1.398 . S
C770 C771 1.391 . S
C771 H759 0.950 . S
C771 C767 1.393 . S
C771 C770 1.391 . S
H772 C780 0.950 . S
H773 C785 0.950 . S
H774 C782 0.950 . S
H775 C784 0.950 . S
H776 C786 0.950 . S
H777 C788 0.950 . S
H778 C790 0.950 . S
H779 C791 0.950 . S
C780 H772 0.950 . S
C780 C781 1.386 . S
C780 C782 1.391 . S
C781 C780 1.386 . S
C781 C785 1.393 . S
C782 H774 0.950 . S
C782 C780 1.391 . S
C782 C783 1.400 . S
C783 C782 1.400 . S
C783 C784 1.398 . S
C783 C789 1.491 . S
C784 H775 0.950 . S
C784 C783 1.398 . S
C784 C785 1.391 . S
C785 H773 0.950 . S
C785 C781 1.393 . S
C785 C784 1.391 . S
C786 H776 0.950 . S
C786 C787 1.386 . S
C786 C788 1.391 . S
C787 C786 1.386 . S
C787 C791 1.393 . S
C788 H777 0.950 . S
C788 C786 1.391 . S
C788 C789 1.400 . S
C789 C783 1.491 . S
C789 C788 1.400 . S
C789 C790 1.398 . S
C790 H778 0.950 . S
C790 C789 1.398 . S
C790 C791 1.391 . S
C791 H779 0.950 . S
C791 C787 1.393 . S
C791 C790 1.391 . S
H792 C800 0.950 . S
H793 C805 0.950 . S
H794 C802 0.950 . S
H795 C804 0.950 . S
H796 C806 0.950 . S
H797 C808 0.950 . S
H798 C810 0.950 . S
H799 C811 0.950 . S
C800 H792 0.950 . S
C800 C801 1.386 . S
C800 C802 1.391 . S
C801 C800 1.386 . S
C801 C805 1.393 . S
C802 H794 0.950 . S
C802 C800 1.391 . S
C802 C803 1.400 . S
C803 C802 1.400 . S
C803 C804 1.398 . S
C803 C809 1.491 . S
C804 H795 0.950 . S
C804 C803 1.398 . S
C804 C805 1.391 . S
C805 H793 0.950 . S
C805 C801 1.393 . S
C805 C804 1.391 . S
C806 H796 0.950 . S
C806 C807 1.386 . S
C806 C808 1.391 . S
C807 C806 1.386 . S
C807 C811 1.393 . S
C808 H797 0.950 . S
C808 C806 1.391 . S
C808 C809 1.400 . S
C809 C803 1.491 . S
C809 C808 1.400 . S
C809 C810 1.398 . S
C810 H798 0.950 . S
C810 C809 1.398 . S
C810 C811 1.391 . S
C811 H799 0.950 . S
C811 C807 1.393 . S
C811 C810 1.391 . S
H812 C820 0.950 . S
H813 C825 0.950 . S
H814 C822 0.950 . S
H815 C824 0.950 . S
H816 C826 0.950 . S
H817 C828 0.950 . S
H818 C830 0.950 . S
H819 C831 0.950 . S
C820 H812 0.950 . S
C820 C821 1.386 . S
C820 C822 1.391 . S
C821 C820 1.386 . S
C821 C825 1.393 . S
C822 H814 0.950 . S
C822 C820 1.391 . S
C822 C823 1.400 1_556 S
C823 C822 1.400 1_554 S
C823 C824 1.398 . S
C823 C829 1.491 . S
C824 H815 0.950 . S
C824 C823 1.398 . S
C824 C825 1.391 1_554 S
C825 H813 0.950 . S
C825 C821 1.393 . S
C825 C824 1.391 1_556 S
C826 H816 0.950 . S
C826 C827 1.386 . S
C826 C828 1.391 . S
C827 C826 1.386 . S
C827 C831 1.393 . S
C828 H817 0.950 . S
C828 C826 1.391 . S
C828 C829 1.400 . S
C829 C823 1.491 . S
C829 C828 1.400 . S
C829 C830 1.398 . S
C830 H818 0.950 . S
C830 C829 1.398 . S
C830 C831 1.391 . S
C831 H819 0.950 . S
C831 C827 1.393 . S
C831 C830 1.391 . S
H832 C840 0.950 . S
H833 C845 0.950 . S
H834 C842 0.950 . S
H835 C844 0.950 . S
H836 C846 0.950 . S
H837 C848 0.950 . S
H838 C850 0.950 . S
H839 C851 0.950 . S
C840 H832 0.950 . S
C840 C841 1.386 . S
C840 C842 1.391 . S
C841 C840 1.386 . S
C841 C845 1.393 . S
C842 H834 0.950 . S
C842 C840 1.391 . S
C842 C843 1.400 . S
C843 C842 1.400 . S
C843 C844 1.398 . S
C843 C849 1.491 . S
C844 H835 0.950 . S
C844 C843 1.398 . S
C844 C845 1.391 . S
C845 H833 0.950 . S
C845 C841 1.393 . S
C845 C844 1.391 . S
C846 H836 0.950 . S
C846 C847 1.386 . S
C846 C848 1.391 . S
C847 C846 1.386 . S
C847 C851 1.393 . S
C848 H837 0.950 . S
C848 C846 1.391 . S
C848 C849 1.400 . S
C849 C843 1.491 . S
C849 C848 1.400 . S
C849 C850 1.398 . S
C850 H838 0.950 . S
C850 C849 1.398 . S
C850 C851 1.391 . S
C851 H839 0.950 . S
C851 C847 1.393 . S
C851 C850 1.391 . S
H852 C860 0.950 . S
H853 C865 0.950 . S
H854 C862 0.950 . S
H855 C864 0.950 . S
H856 C866 0.950 . S
H857 C868 0.950 . S
H858 C870 0.952 . S
H859 C871 0.950 . S
C860 H852 0.950 . S
C860 C861 1.386 . S
C860 C862 1.391 . S
C861 C860 1.386 . S
C861 C865 1.393 . S
C862 H854 0.950 . S
C862 C860 1.391 . S
C862 C863 1.400 . S
C863 C862 1.400 . S
C863 C864 1.398 . S
C863 C869 1.491 . S
C864 H855 0.950 . S
C864 C863 1.398 . S
C864 C865 1.391 . S
C865 H853 0.950 . S
C865 C861 1.393 . S
C865 C864 1.391 . S
C866 H856 0.950 . S
C866 C867 1.386 . S
C866 C868 1.391 1_565 S
C867 C866 1.386 . S
C867 C871 1.393 . S
C868 H857 0.950 . S
C868 C866 1.391 1_545 S
C868 C869 1.400 . S
C869 C863 1.491 . S
C869 C868 1.400 . S
C869 C870 1.398 1_545 S
C870 H858 0.952 . S
C870 C869 1.398 1_565 S
C870 C871 1.391 . S
C871 H859 0.950 . S
C871 C867 1.393 . S
C871 C870 1.391 . S
H872 C880 0.950 . S
H873 C885 0.950 1_565 S
H874 C882 0.950 . S
H875 C884 0.950 . S
H876 C886 0.950 . S
H877 C888 0.950 . S
H878 C890 0.950 1_545 S
H879 C891 0.950 . S
C880 H872 0.950 . S
C880 C881 1.386 . S
C880 C882 1.391 . S
C881 C880 1.386 . S
C881 C885 1.393 . S
C882 H874 0.950 . S
C882 C880 1.391 . S
C882 C883 1.400 1_545 S
C883 C882 1.400 1_565 S
C883 C884 1.398 . S
C883 C889 1.491 . S
C884 H875 0.950 . S
C884 C883 1.398 . S
C884 C885 1.391 1_565 S
C885 H873 0.950 1_545 S
C885 C881 1.393 . S
C885 C884 1.391 1_545 S
C886 H876 0.950 . S
C886 C887 1.386 . S
C886 C888 1.391 . S
C887 C886 1.386 . S
C887 C891 1.393 . S
C888 H877 0.950 . S
C888 C886 1.391 . S
C888 C889 1.400 . S
C889 C883 1.491 . S
C889 C888 1.400 . S
C889 C890 1.398 . S
C890 H878 0.950 1_565 S
C890 C889 1.398 . S
C890 C891 1.391 . S
C891 H879 0.950 . S
C891 C887 1.393 . S
C891 C890 1.391 . S
H892 C900 0.950 . S
H893 C905 0.951 . S
H894 C902 0.950 . S
H895 C904 0.950 . S
H896 C906 0.950 . S
H897 C908 0.950 . S
H898 C910 0.950 . S
H899 C911 0.950 . S
C900 H892 0.950 . S
C900 C901 1.386 . S
C900 C902 1.391 1_565 S
C901 C900 1.386 . S
C901 C905 1.409 . S
C902 H894 0.950 . S
C902 C900 1.391 1_545 S
C902 C903 1.400 . S
C903 C902 1.400 . S
C903 C904 1.398 . S
C903 C909 1.491 . S
C904 H895 0.950 . S
C904 C903 1.398 . S
C904 C905 1.374 1_545 S
C905 H893 0.951 . S
C905 C901 1.409 . S
C905 C904 1.374 1_565 S
C906 H896 0.950 . S
C906 C907 1.386 . S
C906 C908 1.391 . S
C907 C906 1.386 . S
C907 C911 1.393 . S
C908 H897 0.950 . S
C908 C906 1.391 . S
C908 C909 1.400 . S
C909 C903 1.491 . S
C909 C908 1.400 . S
C909 C910 1.398 . S
C910 H898 0.950 . S
C910 C909 1.398 . S
C910 C911 1.391 . S
C911 H899 0.950 . S
C911 C907 1.393 . S
C911 C910 1.391 . S
H912 C920 0.950 1_545 S
H913 C925 0.950 . S
H914 C922 0.950 . S
H915 C924 0.950 . S
H916 C926 0.950 . S
H917 C928 0.950 . S
H918 C930 0.950 . S
H919 C931 0.950 . S
C920 H912 0.950 1_565 S
C920 C921 1.386 . S
C920 C922 1.391 . S
C921 C920 1.386 . S
C921 C925 1.393 . S
C922 H914 0.950 . S
C922 C920 1.391 . S
C922 C923 1.400 . S
C923 C922 1.400 . S
C923 C924 1.398 . S
C923 C929 1.491 . S
C924 H915 0.950 . S
C924 C923 1.398 . S
C924 C925 1.391 . S
C925 H913 0.950 . S
C925 C921 1.393 . S
C925 C924 1.391 . S
C926 H916 0.950 . S
C926 C927 1.386 . S
C926 C928 1.391 . S
C927 C926 1.386 . S
C927 C931 1.393 . S
C928 H917 0.950 . S
C928 C926 1.391 . S
C928 C929 1.400 . S
C929 C923 1.491 . S
C929 C928 1.400 . S
C929 C930 1.398 . S
C930 H918 0.950 . S
C930 C929 1.398 . S
C930 C931 1.391 . S
C931 H919 0.950 . S
C931 C927 1.393 . S
C931 C930 1.391 . S
H932 C940 0.950 . S
H933 C945 0.950 . S
H934 C942 0.950 . S
H935 C944 0.950 . S
H936 C946 0.950 . S
H937 C948 0.950 . S
H938 C950 0.950 . S
H939 C951 0.950 . S
C940 H932 0.950 . S
C940 C941 1.386 . S
C940 C942 1.391 . S
C941 C940 1.386 . S
C941 C945 1.393 . S
C942 H934 0.950 . S
C942 C940 1.391 . S
C942 C943 1.400 . S
C943 C942 1.400 . S
C943 C944 1.398 . S
C943 C949 1.491 . S
C944 H935 0.950 . S
C944 C943 1.398 . S
C944 C945 1.391 . S
C945 H933 0.950 . S
C945 C941 1.393 . S
C945 C944 1.391 . S
C946 H936 0.950 . S
C946 C947 1.386 . S
C946 C948 1.391 1_565 S
C947 C946 1.386 . S
C947 C951 1.393 1_565 S
C948 H937 0.950 . S
C948 C946 1.391 1_545 S
C948 C949 1.400 . S
C949 C943 1.491 . S
C949 C948 1.400 . S
C949 C950 1.398 . S
C950 H938 0.950 . S
C950 C949 1.398 . S
C950 C951 1.391 . S
C951 H939 0.950 . S
C951 C947 1.393 1_545 S
C951 C950 1.391 . S
H952 C960 0.950 . S
H953 C965 0.950 . S
H954 C962 0.950 . S
H955 C964 0.950 . S
H956 C966 0.950 . S
H957 C968 0.950 . S
H958 C970 0.950 . S
H959 C971 0.950 . S
C960 H952 0.950 . S
C960 C961 1.386 . S
C960 C962 1.391 . S
C961 C960 1.386 . S
C961 C965 1.393 . S
C962 H954 0.950 . S
C962 C960 1.391 . S
C962 C963 1.400 . S
C963 C962 1.400 . S
C963 C964 1.398 . S
C963 C969 1.491 . S
C964 H955 0.950 . S
C964 C963 1.398 . S
C964 C965 1.391 . S
C965 H953 0.950 . S
C965 C961 1.393 . S
C965 C964 1.391 . S
C966 H956 0.950 . S
C966 C967 1.386 . S
C966 C968 1.391 . S
C967 C966 1.386 . S
C967 C971 1.393 . S
C968 H957 0.950 . S
C968 C966 1.391 . S
C968 C969 1.400 . S
C969 C963 1.491 . S
C969 C968 1.400 . S
C969 C970 1.398 . S
C970 H958 0.950 . S
C970 C969 1.398 . S
C970 C971 1.391 . S
C971 H959 0.950 . S
C971 C967 1.393 . S
C971 C970 1.391 . S
H972 C980 0.950 . S
H973 C985 0.950 . S
H974 C982 0.950 . S
H975 C984 0.950 . S
H976 C986 0.950 . S
H977 C988 0.950 . S
H978 C990 0.950 . S
H979 C991 0.950 . S
C980 H972 0.950 . S
C980 C981 1.386 . S
C980 C982 1.391 . S
C981 C980 1.386 . S
C981 C985 1.393 . S
C982 H974 0.950 . S
C982 C980 1.391 . S
C982 C983 1.400 1_565 S
C983 C982 1.400 1_545 S
C983 C984 1.398 . S
C983 C989 1.491 . S
C984 H975 0.950 . S
C984 C983 1.398 . S
C984 C985 1.391 1_545 S
C985 H973 0.950 . S
C985 C981 1.393 . S
C985 C984 1.391 1_565 S
C986 H976 0.950 . S
C986 C987 1.386 . S
C986 C988 1.391 . S
C987 C986 1.386 . S
C987 C991 1.393 . S
C988 H977 0.950 . S
C988 C986 1.391 . S
C988 C989 1.400 . S
C989 C983 1.491 . S
C989 C988 1.400 . S
C989 C990 1.398 . S
C990 H978 0.950 . S
C990 C989 1.398 . S
C990 C991 1.391 . S
C991 H979 0.950 . S
C991 C987 1.393 . S
C991 C990 1.391 . S
H992 C1000 0.950 . S
H993 C1005 0.950 . S
H994 C1002 0.950 . S
H995 C1004 0.950 . S
H996 C1006 0.950 . S
H997 C1008 0.950 . S
H998 C1010 0.950 . S
H999 C1011 0.950 . S
C1000 H992 0.950 . S
C1000 C1001 1.386 . S
C1000 C1002 1.391 . S
C1001 C1000 1.386 . S
C1001 C1005 1.393 . S
C1002 H994 0.950 . S
C1002 C1000 1.391 . S
C1002 C1003 1.400 . S
C1003 C1002 1.400 . S
C1003 C1004 1.398 . S
C1003 C1009 1.491 . S
C1004 H995 0.950 . S
C1004 C1003 1.398 . S
C1004 C1005 1.391 . S
C1005 H993 0.950 . S
C1005 C1001 1.393 . S
C1005 C1004 1.391 . S
C1006 H996 0.950 . S
C1006 C1007 1.386 . S
C1006 C1008 1.391 . S
C1007 C1006 1.386 . S
C1007 C1011 1.393 . S
C1008 H997 0.950 . S
C1008 C1006 1.391 . S
C1008 C1009 1.400 . S
C1009 C1003 1.491 . S
C1009 C1008 1.400 . S
C1009 C1010 1.398 . S
C1010 H998 0.950 . S
C1010 C1009 1.398 . S
C1010 C1011 1.391 . S
C1011 H999 0.950 . S
C1011 C1007 1.393 . S
C1011 C1010 1.391 . S
H1012 C1020 0.950 1_554 S
H1013 C1025 0.950 . S
H1014 C1022 0.950 . S
H1015 C1024 0.950 . S
H1016 C1026 0.950 . S
H1017 C1028 0.950 . S
H1018 C1030 0.950 . S
H1019 C1031 0.950 . S
C1020 H1012 0.950 1_556 S
C1020 C1021 1.386 . S
C1020 C1022 1.391 . S
C1021 C1020 1.386 . S
C1021 C1025 1.393 . S
C1022 H1014 0.950 . S
C1022 C1020 1.391 . S
C1022 C1023 1.400 . S
C1023 C1022 1.400 . S
C1023 C1024 1.398 . S
C1023 C1029 1.491 . S
C1024 H1015 0.950 . S
C1024 C1023 1.398 . S
C1024 C1025 1.391 . S
C1025 H1013 0.950 . S
C1025 C1021 1.393 . S
C1025 C1024 1.391 . S
C1026 H1016 0.950 . S
C1026 C1027 1.386 . S
C1026 C1028 1.391 . S
C1027 C1026 1.386 . S
C1027 C1031 1.393 . S
C1028 H1017 0.950 . S
C1028 C1026 1.391 . S
C1028 C1029 1.400 . S
C1029 C1023 1.491 . S
C1029 C1028 1.400 . S
C1029 C1030 1.398 . S
C1030 H1018 0.950 . S
C1030 C1029 1.398 . S
C1030 C1031 1.391 . S
C1031 H1019 0.950 . S
C1031 C1027 1.393 . S
C1031 C1030 1.391 . S
H1032 C1040 0.950 . S
H1033 C1045 0.950 . S
H1034 C1042 0.950 . S
H1035 C1044 0.950 . S
H1036 C1046 0.950 . S
H1037 C1048 0.950 . S
H1038 C1050 0.950 . S
H1039 C1051 0.950 . S
C1040 H1032 0.950 . S
C1040 C1041 1.386 . S
C1040 C1042 1.391 . S
C1041 C1040 1.386 . S
C1041 C1045 1.393 . S
C1042 H1034 0.950 . S
C1042 C1040 1.391 . S
C1042 C1043 1.400 . S
C1043 C1042 1.400 . S
C1043 C1044 1.398 . S
C1043 C1049 1.491 . S
C1044 H1035 0.950 . S
C1044 C1043 1.398 . S
C1044 C1045 1.391 . S
C1045 H1033 0.950 . S
C1045 C1041 1.393 . S
C1045 C1044 1.391 . S
C1046 H1036 0.950 . S
C1046 C1047 1.386 . S
C1046 C1048 1.391 . S
C1047 C1046 1.386 . S
C1047 C1051 1.393 . S
C1048 H1037 0.950 . S
C1048 C1046 1.391 . S
C1048 C1049 1.400 1_655 S
C1049 C1043 1.491 . S
C1049 C1048 1.400 1_455 S
C1049 C1050 1.398 . S
C1050 H1038 0.950 . S
C1050 C1049 1.398 . S
C1050 C1051 1.391 1_455 S
C1051 H1039 0.950 . S
C1051 C1047 1.393 . S
C1051 C1050 1.391 1_655 S
H1052 C1060 0.950 . S
H1053 C1065 0.950 . S
H1054 C1062 0.950 . S
H1055 C1064 0.950 . S
H1056 C1066 0.950 . S
H1057 C1068 0.950 . S
H1058 C1070 0.950 . S
H1059 C1071 0.950 . S
C1060 H1052 0.950 . S
C1060 C1061 1.386 . S
C1060 C1062 1.391 . S
C1061 C1060 1.386 . S
C1061 C1065 1.393 . S
C1062 H1054 0.950 . S
C1062 C1060 1.391 . S
C1062 C1063 1.400 . S
C1063 C1062 1.400 . S
C1063 C1064 1.398 . S
C1063 C1069 1.491 . S
C1064 H1055 0.950 . S
C1064 C1063 1.398 . S
C1064 C1065 1.391 . S
C1065 H1053 0.950 . S
C1065 C1061 1.393 . S
C1065 C1064 1.391 . S
C1066 H1056 0.950 . S
C1066 C1067 1.386 . S
C1066 C1068 1.391 . S
C1067 C1066 1.386 . S
C1067 C1071 1.393 . S
C1068 H1057 0.950 . S
C1068 C1066 1.391 . S
C1068 C1069 1.400 . S
C1069 C1063 1.491 . S
C1069 C1068 1.400 . S
C1069 C1070 1.398 . S
C1070 H1058 0.950 . S
C1070 C1069 1.398 . S
C1070 C1071 1.391 . S
C1071 H1059 0.950 . S
C1071 C1067 1.393 . S
C1071 C1070 1.391 . S
H1072 C1080 0.950 . S
H1073 C1085 0.950 . S
H1074 C1082 0.950 . S
H1075 C1084 0.950 . S
H1076 C1086 0.950 . S
H1077 C1088 0.950 . S
H1078 C1090 0.950 . S
H1079 C1091 0.950 . S
C1080 H1072 0.950 . S
C1080 C1081 1.386 . S
C1080 C1082 1.391 . S
C1081 C1080 1.386 . S
C1081 C1085 1.393 . S
C1082 H1074 0.950 . S
C1082 C1080 1.391 . S
C1082 C1083 1.400 . S
C1083 C1082 1.400 . S
C1083 C1084 1.398 . S
C1083 C1089 1.491 1_655 S
C1084 H1075 0.950 . S
C1084 C1083 1.398 . S
C1084 C1085 1.391 . S
C1085 H1073 0.950 . S
C1085 C1081 1.393 . S
C1085 C1084 1.391 . S
C1086 H1076 0.950 . S
C1086 C1087 1.386 . S
C1086 C1088 1.391 . S
C1087 C1086 1.386 . S
C1087 C1091 1.393 . S
C1088 H1077 0.950 . S
C1088 C1086 1.391 . S
C1088 C1089 1.400 . S
C1089 C1083 1.491 1_455 S
C1089 C1088 1.400 . S
C1089 C1090 1.398 . S
C1090 H1078 0.950 . S
C1090 C1089 1.398 . S
C1090 C1091 1.391 . S
C1091 H1079 0.950 . S
C1091 C1087 1.393 . S
C1091 C1090 1.391 . S
H1092 C1100 0.950 . S
H1093 C1105 0.950 . S
H1094 C1102 0.950 . S
H1095 C1104 0.950 . S
H1096 C1106 0.950 . S
H1097 C1108 0.950 . S
H1098 C1110 0.950 . S
H1099 C1111 0.950 . S
C1100 H1092 0.950 . S
C1100 C1101 1.386 . S
C1100 C1102 1.391 . S
C1101 C1100 1.386 . S
C1101 C1105 1.393 . S
C1102 H1094 0.950 . S
C1102 C1100 1.391 . S
C1102 C1103 1.400 . S
C1103 C1102 1.400 . S
C1103 C1104 1.398 . S
C1103 C1109 1.491 . S
C1104 H1095 0.950 . S
C1104 C1103 1.398 . S
C1104 C1105 1.391 . S
C1105 H1093 0.950 . S
C1105 C1101 1.393 . S
C1105 C1104 1.391 . S
C1106 H1096 0.950 . S
C1106 C1107 1.386 . S
C1106 C1108 1.391 . S
C1107 C1106 1.386 . S
C1107 C1111 1.393 . S
C1108 H1097 0.950 . S
C1108 C1106 1.391 . S
C1108 C1109 1.400 . S
C1109 C1103 1.491 . S
C1109 C1108 1.400 . S
C1109 C1110 1.398 . S
C1110 H1098 0.950 . S
C1110 C1109 1.398 . S
C1110 C1111 1.391 . S
C1111 H1099 0.950 . S
C1111 C1107 1.393 . S
C1111 C1110 1.391 . S
H1112 C1120 0.950 . S
H1113 C1125 0.950 . S
H1114 C1122 0.950 . S
H1115 C1124 0.950 . S
H1116 C1126 0.950 . S
H1117 C1128 0.950 . S
H1118 C1130 0.950 1_455 S
H1119 C1131 0.950 . S
C1120 H1112 0.950 . S
C1120 C1121 1.386 . S
C1120 C1122 1.391 . S
C1121 C1120 1.386 . S
C1121 C1125 1.393 . S
C1122 H1114 0.950 . S
C1122 C1120 1.391 . S
C1122 C1123 1.400 . S
C1123 C1122 1.400 . S
C1123 C1124 1.398 . S
C1123 C1129 1.491 . S
C1124 H1115 0.950 . S
C1124 C1123 1.398 . S
C1124 C1125 1.391 . S
C1125 H1113 0.950 . S
C1125 C1121 1.393 . S
C1125 C1124 1.391 . S
C1126 H1116 0.950 . S
C1126 C1127 1.386 . S
C1126 C1128 1.391 . S
C1127 C1126 1.386 . S
C1127 C1131 1.393 . S
C1128 H1117 0.950 . S
C1128 C1126 1.391 . S
C1128 C1129 1.400 1_655 S
C1129 C1123 1.491 . S
C1129 C1128 1.400 1_455 S
C1129 C1130 1.398 1_455 S
C1130 H1118 0.950 1_655 S
C1130 C1129 1.398 1_655 S
C1130 C1131 1.391 . S
C1131 H1119 0.950 . S
C1131 C1127 1.393 . S
C1131 C1130 1.391 . S
H1132 C1140 0.950 . S
H1133 C1145 0.950 . S
H1134 C1142 0.950 . S
H1135 C1144 0.950 . S
H1136 C1146 0.950 . S
H1137 C1148 0.950 . S
H1138 C1150 0.950 . S
H1139 C1151 0.950 . S
C1140 H1132 0.950 . S
C1140 C1141 1.386 . S
C1140 C1142 1.391 . S
C1141 C1140 1.386 . S
C1141 C1145 1.393 . S
C1142 H1134 0.950 . S
C1142 C1140 1.391 . S
C1142 C1143 1.400 . S
C1143 C1142 1.400 . S
C1143 C1144 1.398 . S
C1143 C1149 1.491 . S
C1144 H1135 0.950 . S
C1144 C1143 1.398 . S
C1144 C1145 1.391 . S
C1145 H1133 0.950 . S
C1145 C1141 1.393 . S
C1145 C1144 1.391 . S
C1146 H1136 0.950 . S
C1146 C1147 1.386 . S
C1146 C1148 1.391 . S
C1147 C1146 1.386 . S
C1147 C1151 1.393 . S
C1148 H1137 0.950 . S
C1148 C1146 1.391 . S
C1148 C1149 1.400 . S
C1149 C1143 1.491 . S
C1149 C1148 1.400 . S
C1149 C1150 1.398 . S
C1150 H1138 0.950 . S
C1150 C1149 1.398 . S
C1150 C1151 1.391 . S
C1151 H1139 0.950 . S
C1151 C1147 1.393 . S
C1151 C1150 1.391 . S
H1152 C1160 0.950 . S
H1153 C1165 0.950 . S
H1154 C1162 0.950 . S
H1155 C1164 0.950 . S
H1156 C1166 0.950 . S
H1157 C1168 0.950 . S
H1158 C1170 0.950 . S
H1159 C1171 0.950 . S
C1160 H1152 0.950 . S
C1160 C1161 1.386 . S
C1160 C1162 1.391 . S
C1161 C1160 1.386 . S
C1161 C1165 1.393 . S
C1162 H1154 0.950 . S
C1162 C1160 1.391 . S
C1162 C1163 1.400 . S
C1163 C1162 1.400 . S
C1163 C1164 1.398 . S
C1163 C1169 1.491 . S
C1164 H1155 0.950 . S
C1164 C1163 1.398 . S
C1164 C1165 1.391 . S
C1165 H1153 0.950 . S
C1165 C1161 1.393 . S
C1165 C1164 1.391 . S
C1166 H1156 0.950 . S
C1166 C1167 1.386 . S
C1166 C1168 1.391 . S
C1167 C1166 1.386 . S
C1167 C1171 1.393 . S
C1168 H1157 0.950 . S
C1168 C1166 1.391 . S
C1168 C1169 1.400 . S
C1169 C1163 1.491 . S
C1169 C1168 1.400 . S
C1169 C1170 1.398 . S
C1170 H1158 0.950 . S
C1170 C1169 1.398 . S
C1170 C1171 1.391 . S
C1171 H1159 0.950 . S
C1171 C1167 1.393 . S
C1171 C1170 1.391 . S
H1172 C1180 0.950 1_455 S
H1173 C1185 0.950 . S
H1174 C1182 0.950 . S
H1175 C1184 0.950 . S
H1176 C1186 0.950 . S
H1177 C1188 0.950 . S
H1178 C1190 0.950 . S
H1179 C1191 0.950 . S
C1180 H1172 0.950 1_655 S
C1180 C1181 1.386 . S
C1180 C1182 1.391 . S
C1181 C1180 1.386 . S
C1181 C1185 1.393 . S
C1182 H1174 0.950 . S
C1182 C1180 1.391 . S
C1182 C1183 1.400 . S
C1183 C1182 1.400 . S
C1183 C1184 1.398 . S
C1183 C1189 1.491 . S
C1184 H1175 0.950 . S
C1184 C1183 1.398 . S
C1184 C1185 1.391 . S
C1185 H1173 0.950 . S
C1185 C1181 1.393 . S
C1185 C1184 1.391 . S
C1186 H1176 0.950 . S
C1186 C1187 1.386 . S
C1186 C1188 1.391 . S
C1187 C1186 1.386 . S
C1187 C1191 1.393 . S
C1188 H1177 0.950 . S
C1188 C1186 1.391 . S
C1188 C1189 1.400 . S
C1189 C1183 1.491 . S
C1189 C1188 1.400 . S
C1189 C1190 1.398 . S
C1190 H1178 0.950 . S
C1190 C1189 1.398 . S
C1190 C1191 1.391 . S
C1191 H1179 0.950 . S
C1191 C1187 1.393 . S
C1191 C1190 1.391 . S
H1192 C1200 0.950 . S
H1193 C1205 0.950 . S
H1194 C1202 0.950 . S
H1195 C1204 0.950 . S
H1196 C1206 0.950 . S
H1197 C1208 0.950 . S
H1198 C1210 0.950 . S
H1199 C1211 0.950 . S
C1200 H1192 0.950 . S
C1200 C1201 1.386 . S
C1200 C1202 1.391 . S
C1201 C1200 1.386 . S
C1201 C1205 1.393 . S
C1202 H1194 0.950 . S
C1202 C1200 1.391 . S
C1202 C1203 1.400 . S
C1203 C1202 1.400 . S
C1203 C1204 1.398 . S
C1203 C1209 1.491 . S
C1204 H1195 0.950 . S
C1204 C1203 1.398 . S
C1204 C1205 1.391 . S
C1205 H1193 0.950 . S
C1205 C1201 1.393 . S
C1205 C1204 1.391 . S
C1206 H1196 0.950 . S
C1206 C1207 1.386 . S
C1206 C1208 1.391 . S
C1207 C1206 1.386 . S
C1207 C1211 1.393 . S
C1208 H1197 0.950 . S
C1208 C1206 1.391 . S
C1208 C1209 1.400 . S
C1209 C1203 1.491 . S
C1209 C1208 1.400 . S
C1209 C1210 1.398 . S
C1210 H1198 0.950 . S
C1210 C1209 1.398 . S
C1210 C1211 1.391 . S
C1211 H1199 0.950 . S
C1211 C1207 1.393 . S
C1211 C1210 1.391 . S
H1212 C1220 0.950 . S
H1213 C1225 0.950 . S
H1214 C1222 0.950 . S
H1215 C1224 0.950 . S
H1216 C1226 0.950 . S
H1217 C1228 0.950 . S
H1218 C1230 0.950 . S
H1219 C1231 0.950 . S
C1220 H1212 0.950 . S
C1220 C1221 1.386 . S
C1220 C1222 1.391 . S
C1221 C1220 1.386 . S
C1221 C1225 1.393 . S
C1222 H1214 0.950 . S
C1222 C1220 1.391 . S
C1222 C1223 1.400 . S
C1223 C1222 1.400 . S
C1223 C1224 1.398 . S
C1223 C1229 1.491 1_556 S
C1224 H1215 0.950 . S
C1224 C1223 1.398 . S
C1224 C1225 1.391 . S
C1225 H1213 0.950 . S
C1225 C1221 1.393 . S
C1225 C1224 1.391 . S
C1226 H1216 0.950 . S
C1226 C1227 1.386 . S
C1226 C1228 1.391 . S
C1227 C1226 1.386 . S
C1227 C1231 1.393 . S
C1228 H1217 0.950 . S
C1228 C1226 1.391 . S
C1228 C1229 1.400 . S
C1229 C1223 1.491 1_554 S
C1229 C1228 1.400 . S
C1229 C1230 1.398 . S
C1230 H1218 0.950 . S
C1230 C1229 1.398 . S
C1230 C1231 1.391 . S
C1231 H1219 0.950 . S
C1231 C1227 1.393 . S
C1231 C1230 1.391 . S
H1232 C1240 0.950 1_455 S
H1233 C1245 0.950 . S
H1234 C1242 0.950 . S
H1235 C1244 0.950 . S
H1236 C1246 0.950 . S
H1237 C1248 0.950 . S
H1238 C1250 0.950 . S
H1239 C1251 0.950 . S
C1240 H1232 0.950 1_655 S
C1240 C1241 1.386 . S
C1240 C1242 1.391 . S
C1241 C1240 1.386 . S
C1241 C1245 1.393 . S
C1242 H1234 0.950 . S
C1242 C1240 1.391 . S
C1242 C1243 1.400 . S
C1243 C1242 1.400 . S
C1243 C1244 1.398 . S
C1243 C1249 1.491 . S
C1244 H1235 0.950 . S
C1244 C1243 1.398 . S
C1244 C1245 1.391 . S
C1245 H1233 0.950 . S
C1245 C1241 1.393 . S
C1245 C1244 1.391 . S
C1246 H1236 0.950 . S
C1246 C1247 1.386 . S
C1246 C1248 1.391 . S
C1247 C1246 1.386 . S
C1247 C1251 1.393 . S
C1248 H1237 0.950 . S
C1248 C1246 1.391 . S
C1248 C1249 1.400 . S
C1249 C1243 1.491 . S
C1249 C1248 1.400 . S
C1249 C1250 1.398 . S
C1250 H1238 0.950 . S
C1250 C1249 1.398 . S
C1250 C1251 1.391 . S
C1251 H1239 0.950 . S
C1251 C1247 1.393 . S
C1251 C1250 1.391 . S
H1252 C1260 0.950 . S
H1253 C1265 0.950 . S
H1254 C1262 0.950 . S
H1255 C1264 0.950 . S
H1256 C1266 0.950 . S
H1257 C1268 0.950 . S
H1258 C1270 0.950 . S
H1259 C1271 0.950 . S
C1260 H1252 0.950 . S
C1260 C1261 1.386 . S
C1260 C1262 1.391 . S
C1261 C1260 1.386 . S
C1261 C1265 1.393 . S
C1262 H1254 0.950 . S
C1262 C1260 1.391 . S
C1262 C1263 1.400 . S
C1263 C1262 1.400 . S
C1263 C1264 1.398 . S
C1263 C1269 1.491 . S
C1264 H1255 0.950 . S
C1264 C1263 1.398 . S
C1264 C1265 1.391 . S
C1265 H1253 0.950 . S
C1265 C1261 1.393 . S
C1265 C1264 1.391 . S
C1266 H1256 0.950 . S
C1266 C1267 1.386 . S
C1266 C1268 1.391 . S
C1267 C1266 1.386 . S
C1267 C1271 1.393 . S
C1268 H1257 0.950 . S
C1268 C1266 1.391 . S
C1268 C1269 1.400 . S
C1269 C1263 1.491 . S
C1269 C1268 1.400 . S
C1269 C1270 1.398 . S
C1270 H1258 0.950 . S
C1270 C1269 1.398 . S
C1270 C1271 1.391 . S
C1271 H1259 0.950 . S
C1271 C1267 1.393 . S
C1271 C1270 1.391 . S
H1272 C1280 0.950 . S
H1273 C1285 0.950 . S
H1274 C1282 0.950 . S
H1275 C1284 0.950 . S
H1276 C1286 0.950 . S
H1277 C1288 0.950 . S
H1278 C1290 0.950 . S
H1279 C1291 0.950 . S
C1280 H1272 0.950 . S
C1280 C1281 1.386 . S
C1280 C1282 1.391 . S
C1281 C1280 1.386 . S
C1281 C1285 1.393 . S
C1282 H1274 0.950 . S
C1282 C1280 1.391 . S
C1282 C1283 1.400 . S
C1283 C1282 1.400 . S
C1283 C1284 1.398 . S
C1283 C1289 1.491 . S
C1284 H1275 0.950 . S
C1284 C1283 1.398 . S
C1284 C1285 1.391 . S
C1285 H1273 0.950 . S
C1285 C1281 1.393 . S
C1285 C1284 1.391 . S
C1286 H1276 0.950 . S
C1286 C1287 1.386 . S
C1286 C1288 1.391 . S
C1287 C1286 1.386 . S
C1287 C1291 1.393 . S
C1288 H1277 0.950 . S
C1288 C1286 1.391 . S
C1288 C1289 1.400 . S
C1289 C1283 1.491 . S
C1289 C1288 1.400 . S
C1289 C1290 1.398 . S
C1290 H1278 0.950 . S
C1290 C1289 1.398 . S
C1290 C1291 1.391 . S
C1291 H1279 0.950 . S
C1291 C1287 1.393 . S
C1291 C1290 1.391 . S
H1292 C1300 0.946 . S
H1293 C1305 0.950 . S
H1294 C1302 0.950 . S
H1295 C1304 0.950 . S
H1296 C1306 0.950 . S
H1297 C1308 0.938 1_554 S
H1298 C1310 0.950 . S
H1299 C1311 0.950 . S
C1300 H1292 0.946 . S
C1300 C1301 1.386 . S
C1300 C1302 1.391 . S
C1301 C1300 1.386 . S
C1301 C1305 1.393 . S
C1302 H1294 0.950 . S
C1302 C1300 1.391 . S
C1302 C1303 1.400 . S
C1303 C1302 1.400 . S
C1303 C1304 1.398 . S
C1303 C1309 1.491 . S
C1304 H1295 0.950 . S
C1304 C1303 1.398 . S
C1304 C1305 1.391 . S
C1305 H1293 0.950 . S
C1305 C1301 1.393 . S
C1305 C1304 1.391 . S
C1306 H1296 0.950 . S
C1306 C1307 1.386 . S
C1306 C1308 1.404 . S
C1307 C1306 1.386 . S
C1307 C1311 1.393 . S
C1308 H1297 0.938 1_556 S
C1308 C1306 1.404 . S
C1308 C1309 1.399 1_556 S
C1309 C1303 1.491 . S
C1309 C1308 1.399 1_554 S
C1309 C1310 1.398 1_554 S
C1310 H1298 0.950 . S
C1310 C1309 1.398 1_556 S
C1310 C1311 1.391 . S
C1311 H1299 0.950 . S
C1311 C1307 1.393 . S
C1311 C1310 1.391 . S
H1312 C1320 0.950 . S
H1313 C1325 0.950 . S
H1314 C1322 0.950 . S
H1315 C1324 0.950 . S
H1316 C1326 0.950 . S
H1317 C1328 0.950 . S
H1318 C1330 0.950 1_545 S
H1319 C1331 0.950 . S
C1320 H1312 0.950 . S
C1320 C1321 1.386 . S
C1320 C1322 1.391 . S
C1321 C1320 1.386 . S
C1321 C1325 1.393 1_545 S
C1322 H1314 0.950 . S
C1322 C1320 1.391 . S
C1322 C1323 1.400 1_545 S
C1323 C1322 1.400 1_565 S
C1323 C1324 1.398 . S
C1323 C1329 1.491 . S
C1324 H1315 0.950 . S
C1324 C1323 1.398 . S
C1324 C1325 1.391 . S
C1325 H1313 0.950 . S
C1325 C1321 1.393 1_565 S
C1325 C1324 1.391 . S
C1326 H1316 0.950 . S
C1326 C1327 1.386 . S
C1326 C1328 1.391 . S
C1327 C1326 1.386 . S
C1327 C1331 1.393 . S
C1328 H1317 0.950 . S
C1328 C1326 1.391 . S
C1328 C1329 1.400 . S
C1329 C1323 1.491 . S
C1329 C1328 1.400 . S
C1329 C1330 1.398 . S
C1330 H1318 0.950 1_565 S
C1330 C1329 1.398 . S
C1330 C1331 1.391 . S
C1331 H1319 0.950 . S
C1331 C1327 1.393 . S
C1331 C1330 1.391 . S
H1332 C1340 0.953 . S
H1333 C1345 0.950 . S
H1334 C1342 0.950 . S
H1335 C1344 0.950 . S
H1336 C1346 0.950 . S
H1337 C1348 0.950 . S
H1338 C1350 0.950 . S
H1339 C1351 0.950 . S
C1340 H1332 0.953 . S
C1340 C1341 1.386 1_545 S
C1340 C1342 1.391 . S
C1341 C1340 1.386 1_565 S
C1341 C1345 1.393 . S
C1342 H1334 0.950 . S
C1342 C1340 1.391 . S
C1342 C1343 1.400 . S
C1343 C1342 1.400 . S
C1343 C1344 1.398 . S
C1343 C1349 1.491 . S
C1344 H1335 0.950 . S
C1344 C1343 1.398 . S
C1344 C1345 1.391 1_545 S
C1345 H1333 0.950 . S
C1345 C1341 1.393 . S
C1345 C1344 1.391 1_565 S
C1346 H1336 0.950 . S
C1346 C1347 1.386 . S
C1346 C1348 1.391 . S
C1347 C1346 1.386 . S
C1347 C1351 1.393 . S
C1348 H1337 0.950 . S
C1348 C1346 1.391 . S
C1348 C1349 1.400 . S
C1349 C1343 1.491 . S
C1349 C1348 1.400 . S
C1349 C1350 1.398 . S
C1350 H1338 0.950 . S
C1350 C1349 1.398 . S
C1350 C1351 1.391 . S
C1351 H1339 0.950 . S
C1351 C1347 1.393 . S
C1351 C1350 1.391 . S
H1352 C1360 0.950 . S
H1353 C1365 0.950 . S
H1354 C1362 0.950 . S
H1355 C1364 0.950 . S
H1356 C1366 0.950 . S
H1357 C1368 0.950 . S
H1358 C1370 0.950 . S
H1359 C1371 0.950 . S
C1360 H1352 0.950 . S
C1360 C1361 1.386 . S
C1360 C1362 1.391 . S
C1361 C1360 1.386 . S
C1361 C1365 1.393 . S
C1362 H1354 0.950 . S
C1362 C1360 1.391 . S
C1362 C1363 1.400 . S
C1363 C1362 1.400 . S
C1363 C1364 1.398 . S
C1363 C1369 1.491 . S
C1364 H1355 0.950 . S
C1364 C1363 1.398 . S
C1364 C1365 1.391 . S
C1365 H1353 0.950 . S
C1365 C1361 1.393 . S
C1365 C1364 1.391 . S
C1366 H1356 0.950 . S
C1366 C1367 1.386 . S
C1366 C1368 1.391 . S
C1367 C1366 1.386 . S
C1367 C1371 1.393 . S
C1368 H1357 0.950 . S
C1368 C1366 1.391 . S
C1368 C1369 1.400 . S
C1369 C1363 1.491 . S
C1369 C1368 1.400 . S
C1369 C1370 1.398 . S
C1370 H1358 0.950 . S
C1370 C1369 1.398 . S
C1370 C1371 1.391 . S
C1371 H1359 0.950 . S
C1371 C1367 1.393 . S
C1371 C1370 1.391 . S
H1372 C1380 0.950 . S
H1373 C1385 0.950 . S
H1374 C1382 0.950 . S
H1375 C1384 0.950 . S
H1376 C1386 0.950 . S
H1377 C1388 0.950 . S
H1378 C1390 0.950 . S
H1379 C1391 0.950 . S
C1380 H1372 0.950 . S
C1380 C1381 1.386 . S
C1380 C1382 1.391 . S
C1381 C1380 1.386 . S
C1381 C1385 1.393 . S
C1382 H1374 0.950 . S
C1382 C1380 1.391 . S
C1382 C1383 1.400 . S
C1383 C1382 1.400 . S
C1383 C1384 1.398 . S
C1383 C1389 1.491 . S
C1384 H1375 0.950 . S
C1384 C1383 1.398 . S
C1384 C1385 1.391 . S
C1385 H1373 0.950 . S
C1385 C1381 1.393 . S
C1385 C1384 1.391 . S
C1386 H1376 0.950 . S
C1386 C1387 1.386 . S
C1386 C1388 1.391 1_565 S
C1387 C1386 1.386 . S
C1387 C1391 1.393 . S
C1388 H1377 0.950 . S
C1388 C1386 1.391 1_545 S
C1388 C1389 1.400 . S
C1389 C1383 1.491 . S
C1389 C1388 1.400 . S
C1389 C1390 1.398 . S
C1390 H1378 0.950 . S
C1390 C1389 1.398 . S
C1390 C1391 1.391 1_545 S
C1391 H1379 0.950 . S
C1391 C1387 1.393 . S
C1391 C1390 1.391 1_565 S
H1392 C1400 0.950 . S
H1393 C1405 0.950 . S
H1394 C1402 0.950 . S
H1395 C1404 0.950 . S
H1396 C1406 0.950 . S
H1397 C1408 0.950 . S
H1398 C1410 0.950 . S
H1399 C1411 0.950 . S
C1400 H1392 0.950 . S
C1400 C1401 1.386 . S
C1400 C1402 1.391 . S
C1401 C1400 1.386 . S
C1401 C1405 1.393 . S
C1402 H1394 0.950 . S
C1402 C1400 1.391 . S
C1402 C1403 1.400 . S
C1403 C1402 1.400 . S
C1403 C1404 1.398 . S
C1403 C1409 1.491 . S
C1404 H1395 0.950 . S
C1404 C1403 1.398 . S
C1404 C1405 1.391 . S
C1405 H1393 0.950 . S
C1405 C1401 1.393 . S
C1405 C1404 1.391 . S
C1406 H1396 0.950 . S
C1406 C1407 1.386 . S
C1406 C1408 1.391 . S
C1407 C1406 1.386 . S
C1407 C1411 1.393 . S
C1408 H1397 0.950 . S
C1408 C1406 1.391 . S
C1408 C1409 1.400 . S
C1409 C1403 1.491 . S
C1409 C1408 1.400 . S
C1409 C1410 1.398 . S
C1410 H1398 0.950 . S
C1410 C1409 1.398 . S
C1410 C1411 1.391 . S
C1411 H1399 0.950 . S
C1411 C1407 1.393 . S
C1411 C1410 1.391 . S
H1412 C1420 0.950 . S
H1413 C1425 0.950 . S
H1414 C1422 0.950 1_545 S
H1415 C1424 0.950 . S
H1416 C1426 0.950 . S
H1417 C1428 0.950 . S
H1418 C1430 0.950 . S
H1419 C1431 0.950 . S
C1420 H1412 0.950 . S
C1420 C1421 1.386 . S
C1420 C1422 1.391 . S
C1421 C1420 1.386 . S
C1421 C1425 1.393 . S
C1422 H1414 0.950 1_565 S
C1422 C1420 1.391 . S
C1422 C1423 1.400 1_565 S
C1423 C1422 1.400 1_545 S
C1423 C1424 1.398 . S
C1423 C1429 1.491 . S
C1424 H1415 0.950 . S
C1424 C1423 1.398 . S
C1424 C1425 1.391 1_545 S
C1425 H1413 0.950 . S
C1425 C1421 1.393 . S
C1425 C1424 1.391 1_565 S
C1426 H1416 0.950 . S
C1426 C1427 1.386 . S
C1426 C1428 1.391 . S
C1427 C1426 1.386 . S
C1427 C1431 1.393 . S
C1428 H1417 0.950 . S
C1428 C1426 1.391 . S
C1428 C1429 1.400 . S
C1429 C1423 1.491 . S
C1429 C1428 1.400 . S
C1429 C1430 1.398 . S
C1430 H1418 0.950 . S
C1430 C1429 1.398 . S
C1430 C1431 1.391 . S
C1431 H1419 0.950 . S
C1431 C1427 1.393 . S
C1431 C1430 1.391 . S
H1432 C1440 0.950 . S
H1433 C1445 0.950 . S
H1434 C1442 0.950 . S
H1435 C1444 0.950 . S
H1436 C1446 0.950 . S
H1437 C1448 0.950 . S
H1438 C1450 0.950 . S
H1439 C1451 0.950 . S
C1440 H1432 0.950 . S
C1440 C1441 1.386 . S
C1440 C1442 1.391 . S
C1441 C1440 1.386 . S
C1441 C1445 1.393 . S
C1442 H1434 0.950 . S
C1442 C1440 1.391 . S
C1442 C1443 1.400 . S
C1443 C1442 1.400 . S
C1443 C1444 1.398 . S
C1443 C1449 1.491 . S
C1444 H1435 0.950 . S
C1444 C1443 1.398 . S
C1444 C1445 1.391 . S
C1445 H1433 0.950 . S
C1445 C1441 1.393 . S
C1445 C1444 1.391 . S
C1446 H1436 0.950 . S
C1446 C1447 1.386 . S
C1446 C1448 1.391 . S
C1447 C1446 1.386 . S
C1447 C1451 1.393 . S
C1448 H1437 0.950 . S
C1448 C1446 1.391 . S
C1448 C1449 1.400 . S
C1449 C1443 1.491 . S
C1449 C1448 1.400 . S
C1449 C1450 1.398 . S
C1450 H1438 0.950 . S
C1450 C1449 1.398 . S
C1450 C1451 1.391 . S
C1451 H1439 0.950 . S
C1451 C1447 1.393 . S
C1451 C1450 1.391 . S
H1452 C1460 0.950 . S
H1453 C1465 0.950 . S
H1454 C1462 0.950 . S
H1455 C1464 0.950 . S
H1456 C1466 0.963 . S
H1457 C1468 0.950 . S
H1458 C1470 0.950 . S
H1459 C1471 0.950 . S
C1460 H1452 0.950 . S
C1460 C1461 1.386 . S
C1460 C1462 1.391 . S
C1461 C1460 1.386 . S
C1461 C1465 1.393 . S
C1462 H1454 0.950 . S
C1462 C1460 1.391 . S
C1462 C1463 1.400 . S
C1463 C1462 1.400 . S
C1463 C1464 1.398 . S
C1463 C1469 1.491 . S
C1464 H1455 0.950 . S
C1464 C1463 1.398 . S
C1464 C1465 1.391 . S
C1465 H1453 0.950 . S
C1465 C1461 1.393 . S
C1465 C1464 1.391 . S
C1466 H1456 0.963 . S
C1466 C1467 1.395 . S
C1466 C1468 1.369 1_565 S
C1467 C1466 1.395 . S
C1467 C1471 1.393 1_565 S
C1468 H1457 0.950 . S
C1468 C1466 1.369 1_545 S
C1468 C1469 1.400 . S
C1469 C1463 1.491 . S
C1469 C1468 1.400 . S
C1469 C1470 1.398 . S
C1470 H1458 0.950 . S
C1470 C1469 1.398 . S
C1470 C1471 1.391 . S
C1471 H1459 0.950 . S
C1471 C1467 1.393 1_545 S
C1471 C1470 1.391 . S
H1472 C1480 0.950 . S
H1473 C1485 0.950 1_554 S
H1474 C1482 0.950 . S
H1475 C1484 0.950 . S
H1476 C1486 0.950 . S
H1477 C1488 0.950 . S
H1478 C1490 0.950 . S
H1479 C1491 0.950 . S
C1480 H1472 0.950 . S
C1480 C1481 1.386 . S
C1480 C1482 1.391 . S
C1481 C1480 1.386 . S
C1481 C1485 1.393 . S
C1482 H1474 0.950 . S
C1482 C1480 1.391 . S
C1482 C1483 1.400 . S
C1483 C1482 1.400 . S
C1483 C1484 1.398 . S
C1483 C1489 1.491 . S
C1484 H1475 0.950 . S
C1484 C1483 1.398 . S
C1484 C1485 1.391 . S
C1485 H1473 0.950 1_556 S
C1485 C1481 1.393 . S
C1485 C1484 1.391 . S
C1486 H1476 0.950 . S
C1486 C1487 1.386 . S
C1486 C1488 1.391 . S
C1487 C1486 1.386 . S
C1487 C1491 1.393 . S
C1488 H1477 0.950 . S
C1488 C1486 1.391 . S
C1488 C1489 1.400 . S
C1489 C1483 1.491 . S
C1489 C1488 1.400 . S
C1489 C1490 1.398 . S
C1490 H1478 0.950 . S
C1490 C1489 1.398 . S
C1490 C1491 1.391 . S
C1491 H1479 0.950 . S
C1491 C1487 1.393 . S
C1491 C1490 1.391 . S
H1492 C1500 0.950 . S
H1493 C1505 0.950 . S
H1494 C1502 0.950 . S
H1495 C1504 0.950 . S
H1496 C1506 0.950 . S
H1497 C1508 0.950 . S
H1498 C1510 0.950 . S
H1499 C1511 0.950 . S
C1500 H1492 0.950 . S
C1500 C1501 1.386 . S
C1500 C1502 1.391 . S
C1501 C1500 1.386 . S
C1501 C1505 1.393 . S
C1502 H1494 0.950 . S
C1502 C1500 1.391 . S
C1502 C1503 1.400 . S
C1503 C1502 1.400 . S
C1503 C1504 1.398 . S
C1503 C1509 1.491 . S
C1504 H1495 0.950 . S
C1504 C1503 1.398 . S
C1504 C1505 1.391 . S
C1505 H1493 0.950 . S
C1505 C1501 1.393 . S
C1505 C1504 1.391 . S
C1506 H1496 0.950 . S
C1506 C1507 1.386 . S
C1506 C1508 1.391 . S
C1507 C1506 1.386 . S
C1507 C1511 1.393 . S
C1508 H1497 0.950 . S
C1508 C1506 1.391 . S
C1508 C1509 1.400 . S
C1509 C1503 1.491 . S
C1509 C1508 1.400 . S
C1509 C1510 1.398 . S
C1510 H1498 0.950 . S
C1510 C1509 1.398 . S
C1510 C1511 1.391 . S
C1511 H1499 0.950 . S
C1511 C1507 1.393 . S
C1511 C1510 1.391 . S
H1512 C1520 0.950 . S
H1513 C1525 0.950 . S
H1514 C1522 0.950 . S
H1515 C1524 0.950 . S
H1516 C1526 0.950 . S
H1517 C1528 0.950 . S
H1518 C1530 0.950 . S
H1519 C1531 0.950 . S
C1520 H1512 0.950 . S
C1520 C1521 1.386 . S
C1520 C1522 1.391 . S
C1521 C1520 1.386 . S
C1521 C1525 1.393 . S
C1522 H1514 0.950 . S
C1522 C1520 1.391 . S
C1522 C1523 1.400 . S
C1523 C1522 1.400 . S
C1523 C1524 1.398 . S
C1523 C1529 1.491 1_655 S
C1524 H1515 0.950 . S
C1524 C1523 1.398 . S
C1524 C1525 1.391 . S
C1525 H1513 0.950 . S
C1525 C1521 1.393 . S
C1525 C1524 1.391 . S
C1526 H1516 0.950 . S
C1526 C1527 1.386 . S
C1526 C1528 1.391 . S
C1527 C1526 1.386 . S
C1527 C1531 1.393 . S
C1528 H1517 0.950 . S
C1528 C1526 1.391 . S
C1528 C1529 1.400 . S
C1529 C1523 1.491 1_455 S
C1529 C1528 1.400 . S
C1529 C1530 1.398 . S
C1530 H1518 0.950 . S
C1530 C1529 1.398 . S
C1530 C1531 1.391 . S
C1531 H1519 0.950 . S
C1531 C1527 1.393 . S
C1531 C1530 1.391 . S
H1532 C1540 0.950 . S
H1533 C1545 0.950 . S
H1534 C1542 0.950 . S
H1535 C1544 0.950 . S
H1536 C1546 0.950 . S
H1537 C1548 0.950 . S
H1538 C1550 0.950 . S
H1539 C1551 0.950 . S
C1540 H1532 0.950 . S
C1540 C1541 1.386 . S
C1540 C1542 1.391 . S
C1541 C1540 1.386 . S
C1541 C1545 1.393 . S
C1542 H1534 0.950 . S
C1542 C1540 1.391 . S
C1542 C1543 1.400 . S
C1543 C1542 1.400 . S
C1543 C1544 1.398 . S
C1543 C1549 1.491 . S
C1544 H1535 0.950 . S
C1544 C1543 1.398 . S
C1544 C1545 1.391 . S
C1545 H1533 0.950 . S
C1545 C1541 1.393 . S
C1545 C1544 1.391 . S
C1546 H1536 0.950 . S
C1546 C1547 1.386 . S
C1546 C1548 1.391 . S
C1547 C1546 1.386 . S
C1547 C1551 1.393 . S
C1548 H1537 0.950 . S
C1548 C1546 1.391 . S
C1548 C1549 1.400 . S
C1549 C1543 1.491 . S
C1549 C1548 1.400 . S
C1549 C1550 1.398 . S
C1550 H1538 0.950 . S
C1550 C1549 1.398 . S
C1550 C1551 1.391 . S
C1551 H1539 0.950 . S
C1551 C1547 1.393 . S
C1551 C1550 1.391 . S
H1552 C1560 0.950 . S
H1553 C1565 0.950 . S
H1554 C1562 0.950 . S
H1555 C1564 0.950 . S
H1556 C1566 0.950 . S
H1557 C1568 0.950 1_455 S
H1558 C1570 0.950 1_545 S
H1559 C1571 0.950 . S
C1560 H1552 0.950 . S
C1560 C1561 1.386 . S
C1560 C1562 1.391 . S
C1561 C1560 1.386 . S
C1561 C1565 1.393 . S
C1562 H1554 0.950 . S
C1562 C1560 1.391 . S
C1562 C1563 1.400 . S
C1563 C1562 1.400 . S
C1563 C1564 1.398 . S
C1563 C1569 1.491 1_455 S
C1564 H1555 0.950 . S
C1564 C1563 1.398 . S
C1564 C1565 1.391 . S
C1565 H1553 0.950 . S
C1565 C1561 1.393 . S
C1565 C1564 1.391 . S
C1566 H1556 0.950 . S
C1566 C1567 1.386 . S
C1566 C1568 1.391 1_565 S
C1567 C1566 1.386 . S
C1567 C1571 1.393 . S
C1568 H1557 0.950 1_655 S
C1568 C1566 1.391 1_545 S
C1568 C1569 1.400 . S
C1569 C1563 1.491 1_655 S
C1569 C1568 1.400 . S
C1569 C1570 1.398 1_545 S
C1570 H1558 0.950 1_565 S
C1570 C1569 1.398 1_565 S
C1570 C1571 1.391 . S
C1571 H1559 0.950 . S
C1571 C1567 1.393 . S
C1571 C1570 1.391 . S
H1572 C1580 0.950 . S
H1573 C1585 0.950 . S
H1574 C1582 0.950 . S
H1575 C1584 0.950 . S
H1576 C1586 0.950 . S
H1577 C1588 0.950 . S
H1578 C1590 0.950 . S
H1579 C1591 0.950 . S
C1580 H1572 0.950 . S
C1580 C1581 1.386 . S
C1580 C1582 1.391 . S
C1581 C1580 1.386 . S
C1581 C1585 1.393 . S
C1582 H1574 0.950 . S
C1582 C1580 1.391 . S
C1582 C1583 1.400 . S
C1583 C1582 1.400 . S
C1583 C1584 1.398 . S
C1583 C1589 1.491 . S
C1584 H1575 0.950 . S
C1584 C1583 1.398 . S
C1584 C1585 1.391 . S
C1585 H1573 0.950 . S
C1585 C1581 1.393 . S
C1585 C1584 1.391 . S
C1586 H1576 0.950 . S
C1586 C1587 1.386 . S
C1586 C1588 1.391 . S
C1587 C1586 1.386 . S
C1587 C1591 1.393 . S
C1588 H1577 0.950 . S
C1588 C1586 1.391 . S
C1588 C1589 1.400 . S
C1589 C1583 1.491 . S
C1589 C1588 1.400 . S
C1589 C1590 1.398 . S
C1590 H1578 0.950 . S
C1590 C1589 1.398 . S
C1590 C1591 1.391 . S
C1591 H1579 0.950 . S
C1591 C1587 1.393 . S
C1591 C1590 1.391 . S
H1592 C1600 0.950 . S
H1593 C1605 0.950 . S
H1594 C1602 0.950 . S
H1595 C1604 0.950 . S
H1596 C1606 0.950 . S
H1597 C1608 0.950 . S
H1598 C1610 0.950 . S
H1599 C1611 0.950 . S
C1600 H1592 0.950 . S
C1600 C1601 1.386 . S
C1600 C1602 1.391 . S
C1601 C1600 1.386 . S
C1601 C1605 1.393 . S
C1602 H1594 0.950 . S
C1602 C1600 1.391 . S
C1602 C1603 1.400 . S
C1603 C1602 1.400 . S
C1603 C1604 1.398 . S
C1603 C1609 1.491 1_655 S
C1604 H1595 0.950 . S
C1604 C1603 1.398 . S
C1604 C1605 1.391 . S
C1605 H1593 0.950 . S
C1605 C1601 1.393 . S
C1605 C1604 1.391 . S
C1606 H1596 0.950 . S
C1606 C1607 1.386 . S
C1606 C1608 1.391 . S
C1607 C1606 1.386 . S
C1607 C1611 1.393 . S
C1608 H1597 0.950 . S
C1608 C1606 1.391 . S
C1608 C1609 1.400 . S
C1609 C1603 1.491 1_455 S
C1609 C1608 1.400 . S
C1609 C1610 1.398 . S
C1610 H1598 0.950 . S
C1610 C1609 1.398 . S
C1610 C1611 1.391 . S
C1611 H1599 0.950 . S
C1611 C1607 1.393 . S
C1611 C1610 1.391 . S
H1612 C1620 0.950 . S
H1613 C1625 0.950 . S
H1614 C1622 0.950 . S
H1615 C1624 0.950 . S
H1616 C1626 0.950 . S
H1617 C1628 0.950 . S
H1618 C1630 0.950 . S
H1619 C1631 0.950 . S
C1620 H1612 0.950 . S
C1620 C1621 1.386 . S
C1620 C1622 1.391 . S
C1621 C1620 1.386 . S
C1621 C1625 1.393 . S
C1622 H1614 0.950 . S
C1622 C1620 1.391 . S
C1622 C1623 1.400 . S
C1623 C1622 1.400 . S
C1623 C1624 1.398 . S
C1623 C1629 1.491 . S
C1624 H1615 0.950 . S
C1624 C1623 1.398 . S
C1624 C1625 1.391 . S
C1625 H1613 0.950 . S
C1625 C1621 1.393 . S
C1625 C1624 1.391 . S
C1626 H1616 0.950 . S
C1626 C1627 1.386 . S
C1626 C1628 1.391 . S
C1627 C1626 1.386 . S
C1627 C1631 1.393 . S
C1628 H1617 0.950 . S
C1628 C1626 1.391 . S
C1628 C1629 1.400 . S
C1629 C1623 1.491 . S
C1629 C1628 1.400 . S
C1629 C1630 1.398 . S
C1630 H1618 0.950 . S
C1630 C1629 1.398 . S
C1630 C1631 1.391 . S
C1631 H1619 0.950 . S
C1631 C1627 1.393 . S
C1631 C1630 1.391 . S
H1632 C1640 0.950 . S
H1633 C1645 0.950 . S
H1634 C1642 0.950 . S
H1635 C1644 0.950 . S
H1636 C1646 0.950 . S
H1637 C1648 0.950 . S
H1638 C1650 0.950 . S
H1639 C1651 0.950 . S
C1640 H1632 0.950 . S
C1640 C1641 1.386 . S
C1640 C1642 1.391 . S
C1641 C1640 1.386 . S
C1641 C1645 1.393 . S
C1642 H1634 0.950 . S
C1642 C1640 1.391 . S
C1642 C1643 1.400 . S
C1643 C1642 1.400 . S
C1643 C1644 1.398 . S
C1643 C1649 1.491 . S
C1644 H1635 0.950 . S
C1644 C1643 1.398 . S
C1644 C1645 1.391 . S
C1645 H1633 0.950 . S
C1645 C1641 1.393 . S
C1645 C1644 1.391 . S
C1646 H1636 0.950 . S
C1646 C1647 1.386 . S
C1646 C1648 1.391 . S
C1647 C1646 1.386 . S
C1647 C1651 1.393 . S
C1648 H1637 0.950 . S
C1648 C1646 1.391 . S
C1648 C1649 1.400 . S
C1649 C1643 1.491 . S
C1649 C1648 1.400 . S
C1649 C1650 1.398 . S
C1650 H1638 0.950 . S
C1650 C1649 1.398 . S
C1650 C1651 1.391 . S
C1651 H1639 0.950 . S
C1651 C1647 1.393 . S
C1651 C1650 1.391 . S
H1652 C1660 0.950 . S
H1653 C1665 0.950 . S
H1654 C1662 0.950 . S
H1655 C1664 0.950 . S
H1656 C1666 0.950 . S
H1657 C1668 0.950 . S
H1658 C1670 0.950 . S
H1659 C1671 0.950 . S
C1660 H1652 0.950 . S
C1660 C1661 1.386 . S
C1660 C1662 1.391 . S
C1661 C1660 1.386 . S
C1661 C1665 1.393 . S
C1662 H1654 0.950 . S
C1662 C1660 1.391 . S
C1662 C1663 1.400 . S
C1663 C1662 1.400 . S
C1663 C1664 1.398 . S
C1663 C1669 1.491 . S
C1664 H1655 0.950 . S
C1664 C1663 1.398 . S
C1664 C1665 1.391 . S
C1665 H1653 0.950 . S
C1665 C1661 1.393 . S
C1665 C1664 1.391 . S
C1666 H1656 0.950 . S
C1666 C1667 1.386 . S
C1666 C1668 1.391 . S
C1667 C1666 1.386 . S
C1667 C1671 1.393 . S
C1668 H1657 0.950 . S
C1668 C1666 1.391 . S
C1668 C1669 1.400 1_556 S
C1669 C1663 1.491 . S
C1669 C1668 1.400 1_554 S
C1669 C1670 1.398 . S
C1670 H1658 0.950 . S
C1670 C1669 1.398 . S
C1670 C1671 1.391 1_554 S
C1671 H1659 0.950 . S
C1671 C1667 1.393 . S
C1671 C1670 1.391 1_556 S
H1672 C1680 0.950 . S
H1673 C1685 0.950 1_455 S
H1674 C1682 0.950 . S
H1675 C1684 0.950 . S
H1676 C1686 0.950 . S
H1677 C1688 0.950 . S
H1678 C1690 0.950 . S
H1679 C1691 0.950 . S
C1680 H1672 0.950 . S
C1680 C1681 1.386 . S
C1680 C1682 1.391 . S
C1681 C1680 1.386 . S
C1681 C1685 1.393 . S
C1682 H1674 0.950 . S
C1682 C1680 1.391 . S
C1682 C1683 1.400 . S
C1683 C1682 1.400 . S
C1683 C1684 1.398 . S
C1683 C1689 1.491 . S
C1684 H1675 0.950 . S
C1684 C1683 1.398 . S
C1684 C1685 1.391 . S
C1685 H1673 0.950 1_655 S
C1685 C1681 1.393 . S
C1685 C1684 1.391 . S
C1686 H1676 0.950 . S
C1686 C1687 1.386 . S
C1686 C1688 1.391 . S
C1687 C1686 1.386 . S
C1687 C1691 1.393 . S
C1688 H1677 0.950 . S
C1688 C1686 1.391 . S
C1688 C1689 1.400 . S
C1689 C1683 1.491 . S
C1689 C1688 1.400 . S
C1689 C1690 1.398 . S
C1690 H1678 0.950 . S
C1690 C1689 1.398 . S
C1690 C1691 1.391 . S
C1691 H1679 0.950 . S
C1691 C1687 1.393 . S
C1691 C1690 1.391 . S
H1692 C1700 0.950 . S
H1693 C1705 0.950 . S
H1694 C1702 0.950 . S
H1695 C1704 0.950 . S
H1696 C1706 0.950 . S
H1697 C1708 0.950 . S
H1698 C1710 0.950 . S
H1699 C1711 0.950 . S
C1700 H1692 0.950 . S
C1700 C1701 1.386 . S
C1700 C1702 1.391 . S
C1701 C1700 1.386 . S
C1701 C1705 1.393 . S
C1702 H1694 0.950 . S
C1702 C1700 1.391 . S
C1702 C1703 1.400 . S
C1703 C1702 1.400 . S
C1703 C1704 1.398 . S
C1703 C1709 1.491 . S
C1704 H1695 0.950 . S
C1704 C1703 1.398 . S
C1704 C1705 1.391 . S
C1705 H1693 0.950 . S
C1705 C1701 1.393 . S
C1705 C1704 1.391 . S
C1706 H1696 0.950 . S
C1706 C1707 1.386 . S
C1706 C1708 1.391 . S
C1707 C1706 1.386 . S
C1707 C1711 1.393 . S
C1708 H1697 0.950 . S
C1708 C1706 1.391 . S
C1708 C1709 1.400 . S
C1709 C1703 1.491 . S
C1709 C1708 1.400 . S
C1709 C1710 1.398 . S
C1710 H1698 0.950 . S
C1710 C1709 1.398 . S
C1710 C1711 1.391 . S
C1711 H1699 0.950 . S
C1711 C1707 1.393 . S
C1711 C1710 1.391 . S
H1712 C1720 0.950 . S
H1713 C1725 0.950 . S
H1714 C1722 0.950 . S
H1715 C1724 0.950 . S
H1716 C1726 0.950 . S
H1717 C1728 0.950 . S
H1718 C1730 0.950 . S
H1719 C1731 0.950 . S
C1720 H1712 0.950 . S
C1720 C1721 1.386 . S
C1720 C1722 1.391 . S
C1721 C1720 1.386 . S
C1721 C1725 1.393 . S
C1722 H1714 0.950 . S
C1722 C1720 1.391 . S
C1722 C1723 1.400 . S
C1723 C1722 1.400 . S
C1723 C1724 1.398 . S
C1723 C1729 1.491 . S
C1724 H1715 0.950 . S
C1724 C1723 1.398 . S
C1724 C1725 1.391 . S
C1725 H1713 0.950 . S
C1725 C1721 1.393 . S
C1725 C1724 1.391 . S
C1726 H1716 0.950 . S
C1726 C1727 1.386 . S
C1726 C1728 1.391 . S
C1727 C1726 1.386 . S
C1727 C1731 1.393 . S
C1728 H1717 0.950 . S
C1728 C1726 1.391 . S
C1728 C1729 1.400 . S
C1729 C1723 1.491 . S
C1729 C1728 1.400 . S
C1729 C1730 1.398 . S
C1730 H1718 0.950 . S
C1730 C1729 1.398 . S
C1730 C1731 1.391 . S
C1731 H1719 0.950 . S
C1731 C1727 1.393 . S
C1731 C1730 1.391 . S
H1732 C1740 0.950 . S
H1733 C1745 0.950 . S
H1734 C1742 0.953 . S
H1735 C1744 0.950 . S
H1736 C1746 0.950 . S
H1737 C1748 0.950 . S
H1738 C1750 0.950 1_455 S
H1739 C1751 0.950 . S
C1740 H1732 0.950 . S
C1740 C1741 1.386 1_455 S
C1740 C1742 1.391 . S
C1741 C1740 1.386 1_655 S
C1741 C1745 1.393 . S
C1742 H1734 0.953 . S
C1742 C1740 1.391 . S
C1742 C1743 1.400 1_456 S
C1743 C1742 1.400 1_654 S
C1743 C1744 1.398 1_554 S
C1743 C1749 1.491 . S
C1744 H1735 0.950 . S
C1744 C1743 1.398 1_556 S
C1744 C1745 1.391 . S
C1745 H1733 0.950 . S
C1745 C1741 1.393 . S
C1745 C1744 1.391 . S
C1746 H1736 0.950 . S
C1746 C1747 1.386 . S
C1746 C1748 1.391 . S
C1747 C1746 1.386 . S
C1747 C1751 1.393 . S
C1748 H1737 0.950 . S
C1748 C1746 1.391 . S
C1748 C1749 1.400 . S
C1749 C1743 1.491 . S
C1749 C1748 1.400 . S
C1749 C1750 1.398 . S
C1750 H1738 0.950 1_655 S
C1750 C1749 1.398 . S
C1750 C1751 1.391 . S
C1751 H1739 0.950 . S
C1751 C1747 1.393 . S
C1751 C1750 1.391 . S
H1752 C1760 0.950 . S
H1753 C1765 0.950 . S
H1754 C1762 0.950 . S
H1755 C1764 0.950 . S
H1756 C1766 0.950 . S
H1757 C1768 0.950 . S
H1758 C1770 0.950 . S
H1759 C1771 0.950 . S
C1760 H1752 0.950 . S
C1760 C1761 1.386 . S
C1760 C1762 1.391 . S
C1761 C1760 1.386 . S
C1761 C1765 1.393 . S
C1762 H1754 0.950 . S
C1762 C1760 1.391 . S
C1762 C1763 1.400 . S
C1763 C1762 1.400 . S
C1763 C1764 1.398 . S
C1763 C1769 1.491 . S
C1764 H1755 0.950 . S
C1764 C1763 1.398 . S
C1764 C1765 1.391 . S
C1765 H1753 0.950 . S
C1765 C1761 1.393 . S
C1765 C1764 1.391 . S
C1766 H1756 0.950 . S
C1766 C1767 1.386 . S
C1766 C1768 1.391 . S
C1767 C1766 1.386 . S
C1767 C1771 1.393 . S
C1768 H1757 0.950 . S
C1768 C1766 1.391 . S
C1768 C1769 1.400 . S
C1769 C1763 1.491 . S
C1769 C1768 1.400 . S
C1769 C1770 1.398 . S
C1770 H1758 0.950 . S
C1770 C1769 1.398 . S
C1770 C1771 1.391 . S
C1771 H1759 0.950 . S
C1771 C1767 1.393 . S
C1771 C1770 1.391 . S
H1772 C1780 0.950 . S
H1773 C1785 0.950 . S
H1774 C1782 0.950 . S
H1775 C1784 0.950 . S
H1776 C1786 0.950 . S
H1777 C1788 0.950 . S
H1778 C1790 0.950 . S
H1779 C1791 0.950 . S
C1780 H1772 0.950 . S
C1780 C1781 1.386 . S
C1780 C1782 1.391 . S
C1781 C1780 1.386 . S
C1781 C1785 1.393 . S
C1782 H1774 0.950 . S
C1782 C1780 1.391 . S
C1782 C1783 1.400 . S
C1783 C1782 1.400 . S
C1783 C1784 1.398 . S
C1783 C1789 1.491 . S
C1784 H1775 0.950 . S
C1784 C1783 1.398 . S
C1784 C1785 1.391 . S
C1785 H1773 0.950 . S
C1785 C1781 1.393 . S
C1785 C1784 1.391 . S
C1786 H1776 0.950 . S
C1786 C1787 1.386 . S
C1786 C1788 1.391 . S
C1787 C1786 1.386 . S
C1787 C1791 1.393 . S
C1788 H1777 0.950 . S
C1788 C1786 1.391 . S
C1788 C1789 1.400 . S
C1789 C1783 1.491 . S
C1789 C1788 1.400 . S
C1789 C1790 1.398 . S
C1790 H1778 0.950 . S
C1790 C1789 1.398 . S
C1790 C1791 1.391 . S
C1791 H1779 0.950 . S
C1791 C1787 1.393 . S
C1791 C1790 1.391 . S
H1792 C1800 0.950 . S
H1793 C1805 0.950 . S
H1794 C1802 0.950 . S
H1795 C1804 0.950 . S
H1796 C1806 0.950 . S
H1797 C1808 0.950 . S
H1798 C1810 0.950 . S
H1799 C1811 0.950 . S
C1800 H1792 0.950 . S
C1800 C1801 1.386 . S
C1800 C1802 1.391 . S
C1801 C1800 1.386 . S
C1801 C1805 1.393 . S
C1802 H1794 0.950 . S
C1802 C1800 1.391 . S
C1802 C1803 1.400 . S
C1803 C1802 1.400 . S
C1803 C1804 1.398 . S
C1803 C1809 1.491 . S
C1804 H1795 0.950 . S
C1804 C1803 1.398 . S
C1804 C1805 1.391 . S
C1805 H1793 0.950 . S
C1805 C1801 1.393 . S
C1805 C1804 1.391 . S
C1806 H1796 0.950 . S
C1806 C1807 1.386 . S
C1806 C1808 1.391 . S
C1807 C1806 1.386 . S
C1807 C1811 1.393 . S
C1808 H1797 0.950 . S
C1808 C1806 1.391 . S
C1808 C1809 1.400 . S
C1809 C1803 1.491 . S
C1809 C1808 1.400 . S
C1809 C1810 1.398 . S
C1810 H1798 0.950 . S
C1810 C1809 1.398 . S
C1810 C1811 1.391 . S
C1811 H1799 0.950 . S
C1811 C1807 1.393 . S
C1811 C1810 1.391 . S
H1812 C1820 0.950 . S
H1813 C1825 0.950 . S
H1814 C1822 0.950 . S
H1815 C1824 0.950 . S
H1816 C1826 0.950 . S
H1817 C1828 0.950 . S
H1818 C1830 0.950 . S
H1819 C1831 0.950 . S
C1820 H1812 0.950 . S
C1820 C1821 1.386 . S
C1820 C1822 1.391 . S
C1821 C1820 1.386 . S
C1821 C1825 1.393 . S
C1822 H1814 0.950 . S
C1822 C1820 1.391 . S
C1822 C1823 1.400 . S
C1823 C1822 1.400 . S
C1823 C1824 1.398 . S
C1823 C1829 1.491 . S
C1824 H1815 0.950 . S
C1824 C1823 1.398 . S
C1824 C1825 1.391 . S
C1825 H1813 0.950 . S
C1825 C1821 1.393 . S
C1825 C1824 1.391 . S
C1826 H1816 0.950 . S
C1826 C1827 1.386 . S
C1826 C1828 1.391 . S
C1827 C1826 1.386 . S
C1827 C1831 1.393 . S
C1828 H1817 0.950 . S
C1828 C1826 1.391 . S
C1828 C1829 1.400 . S
C1829 C1823 1.491 . S
C1829 C1828 1.400 . S
C1829 C1830 1.398 . S
C1830 H1818 0.950 . S
C1830 C1829 1.398 . S
C1830 C1831 1.391 . S
C1831 H1819 0.950 . S
C1831 C1827 1.393 . S
C1831 C1830 1.391 . S
H1832 C1840 0.950 . S
H1833 C1845 0.950 . S
H1834 C1842 0.950 . S
H1835 C1844 0.950 . S
H1836 C1846 0.950 . S
H1837 C1848 0.950 . S
H1838 C1850 0.950 . S
H1839 C1851 0.950 . S
C1840 H1832 0.950 . S
C1840 C1841 1.386 . S
C1840 C1842 1.391 . S
C1841 C1840 1.386 . S
C1841 C1845 1.393 . S
C1842 H1834 0.950 . S
C1842 C1840 1.391 . S
C1842 C1843 1.400 . S
C1843 C1842 1.400 . S
C1843 C1844 1.398 . S
C1843 C1849 1.491 . S
C1844 H1835 0.950 . S
C1844 C1843 1.398 . S
C1844 C1845 1.391 . S
C1845 H1833 0.950 . S
C1845 C1841 1.393 . S
C1845 C1844 1.391 . S
C1846 H1836 0.950 . S
C1846 C1847 1.386 . S
C1846 C1848 1.391 . S
C1847 C1846 1.386 . S
C1847 C1851 1.393 . S
C1848 H1837 0.950 . S
C1848 C1846 1.391 . S
C1848 C1849 1.400 . S
C1849 C1843 1.491 . S
C1849 C1848 1.400 . S
C1849 C1850 1.398 . S
C1850 H1838 0.950 . S
C1850 C1849 1.398 . S
C1850 C1851 1.391 . S
C1851 H1839 0.950 . S
C1851 C1847 1.393 . S
C1851 C1850 1.391 . S
H1852 C1860 0.950 . S
H1853 C1865 0.950 . S
H1854 C1862 0.950 . S
H1855 C1864 0.950 . S
H1856 C1866 0.950 . S
H1857 C1868 0.950 . S
H1858 C1870 0.950 . S
H1859 C1871 0.950 . S
C1860 H1852 0.950 . S
C1860 C1861 1.386 . S
C1860 C1862 1.391 . S
C1861 C1860 1.386 . S
C1861 C1865 1.393 . S
C1862 H1854 0.950 . S
C1862 C1860 1.391 . S
C1862 C1863 1.400 . S
C1863 C1862 1.400 . S
C1863 C1864 1.398 . S
C1863 C1869 1.491 . S
C1864 H1855 0.950 . S
C1864 C1863 1.398 . S
C1864 C1865 1.391 . S
C1865 H1853 0.950 . S
C1865 C1861 1.393 . S
C1865 C1864 1.391 . S
C1866 H1856 0.950 . S
C1866 C1867 1.386 . S
C1866 C1868 1.391 . S
C1867 C1866 1.386 . S
C1867 C1871 1.393 . S
C1868 H1857 0.950 . S
C1868 C1866 1.391 . S
C1868 C1869 1.400 . S
C1869 C1863 1.491 . S
C1869 C1868 1.400 . S
C1869 C1870 1.398 . S
C1870 H1858 0.950 . S
C1870 C1869 1.398 . S
C1870 C1871 1.391 . S
C1871 H1859 0.950 . S
C1871 C1867 1.393 . S
C1871 C1870 1.391 . S
H1872 C1880 0.950 . S
H1873 C1885 0.950 . S
H1874 C1882 0.950 . S
H1875 C1884 0.950 . S
H1876 C1886 0.950 . S
H1877 C1888 0.950 . S
H1878 C1890 0.950 . S
H1879 C1891 0.950 . S
C1880 H1872 0.950 . S
C1880 C1881 1.386 . S
C1880 C1882 1.391 . S
C1881 C1880 1.386 . S
C1881 C1885 1.393 . S
C1882 H1874 0.950 . S
C1882 C1880 1.391 . S
C1882 C1883 1.400 . S
C1883 C1882 1.400 . S
C1883 C1884 1.398 . S
C1883 C1889 1.491 . S
C1884 H1875 0.950 . S
C1884 C1883 1.398 . S
C1884 C1885 1.391 . S
C1885 H1873 0.950 . S
C1885 C1881 1.393 . S
C1885 C1884 1.391 . S
C1886 H1876 0.950 . S
C1886 C1887 1.386 . S
C1886 C1888 1.391 . S
C1887 C1886 1.386 . S
C1887 C1891 1.393 . S
C1888 H1877 0.950 . S
C1888 C1886 1.391 . S
C1888 C1889 1.400 . S
C1889 C1883 1.491 . S
C1889 C1888 1.400 . S
C1889 C1890 1.398 . S
C1890 H1878 0.950 . S
C1890 C1889 1.398 . S
C1890 C1891 1.391 . S
C1891 H1879 0.950 . S
C1891 C1887 1.393 . S
C1891 C1890 1.391 . S
H1892 C1900 0.950 . S
H1893 C1905 0.950 . S
H1894 C1902 0.950 . S
H1895 C1904 0.950 . S
H1896 C1906 0.950 . S
H1897 C1908 0.950 . S
H1898 C1910 0.950 . S
H1899 C1911 0.950 . S
C1900 H1892 0.950 . S
C1900 C1901 1.386 . S
C1900 C1902 1.391 . S
C1901 C1900 1.386 . S
C1901 C1905 1.393 . S
C1902 H1894 0.950 . S
C1902 C1900 1.391 . S
C1902 C1903 1.400 . S
C1903 C1902 1.400 . S
C1903 C1904 1.398 . S
C1903 C1909 1.491 . S
C1904 H1895 0.950 . S
C1904 C1903 1.398 . S
C1904 C1905 1.391 . S
C1905 H1893 0.950 . S
C1905 C1901 1.393 . S
C1905 C1904 1.391 . S
C1906 H1896 0.950 . S
C1906 C1907 1.386 . S
C1906 C1908 1.391 . S
C1907 C1906 1.386 . S
C1907 C1911 1.393 . S
C1908 H1897 0.950 . S
C1908 C1906 1.391 . S
C1908 C1909 1.400 . S
C1909 C1903 1.491 . S
C1909 C1908 1.400 . S
C1909 C1910 1.398 . S
C1910 H1898 0.950 . S
C1910 C1909 1.398 . S
C1910 C1911 1.391 . S
C1911 H1899 0.950 . S
C1911 C1907 1.393 . S
C1911 C1910 1.391 . S
H1912 C1920 0.950 . S
H1913 C1925 0.950 . S
H1914 C1922 0.950 . S
H1915 C1924 0.950 . S
H1916 C1926 0.950 . S
H1917 C1928 0.950 . S
H1918 C1930 0.950 . S
H1919 C1931 0.950 . S
C1920 H1912 0.950 . S
C1920 C1921 1.386 . S
C1920 C1922 1.391 . S
C1921 C1920 1.386 . S
C1921 C1925 1.393 . S
C1922 H1914 0.950 . S
C1922 C1920 1.391 . S
C1922 C1923 1.400 . S
C1923 C1922 1.400 . S
C1923 C1924 1.398 . S
C1923 C1929 1.491 . S
C1924 H1915 0.950 . S
C1924 C1923 1.398 . S
C1924 C1925 1.391 . S
C1925 H1913 0.950 . S
C1925 C1921 1.393 . S
C1925 C1924 1.391 . S
C1926 H1916 0.950 . S
C1926 C1927 1.386 . S
C1926 C1928 1.391 . S
C1927 C1926 1.386 . S
C1927 C1931 1.393 . S
C1928 H1917 0.950 . S
C1928 C1926 1.391 . S
C1928 C1929 1.400 . S
C1929 C1923 1.491 . S
C1929 C1928 1.400 . S
C1929 C1930 1.398 . S
C1930 H1918 0.950 . S
C1930 C1929 1.398 . S
C1930 C1931 1.391 . S
C1931 H1919 0.950 . S
C1931 C1927 1.393 . S
C1931 C1930 1.391 . S
H1932 C1940 0.950 . S
H1933 C1945 0.950 . S
H1934 C1942 0.950 . S
H1935 C1944 0.950 . S
H1936 C1946 0.950 . S
H1937 C1948 0.950 . S
H1938 C1950 0.950 . S
H1939 C1951 0.950 . S
C1940 H1932 0.950 . S
C1940 C1941 1.386 . S
C1940 C1942 1.391 . S
C1941 C1940 1.386 . S
C1941 C1945 1.393 . S
C1942 H1934 0.950 . S
C1942 C1940 1.391 . S
C1942 C1943 1.400 . S
C1943 C1942 1.400 . S
C1943 C1944 1.398 . S
C1943 C1949 1.491 . S
C1944 H1935 0.950 . S
C1944 C1943 1.398 . S
C1944 C1945 1.391 . S
C1945 H1933 0.950 . S
C1945 C1941 1.393 . S
C1945 C1944 1.391 . S
C1946 H1936 0.950 . S
C1946 C1947 1.386 . S
C1946 C1948 1.391 . S
C1947 C1946 1.386 . S
C1947 C1951 1.393 . S
C1948 H1937 0.950 . S
C1948 C1946 1.391 . S
C1948 C1949 1.400 . S
C1949 C1943 1.491 . S
C1949 C1948 1.400 . S
C1949 C1950 1.398 . S
C1950 H1938 0.950 . S
C1950 C1949 1.398 . S
C1950 C1951 1.391 . S
C1951 H1939 0.950 . S
C1951 C1947 1.393 . S
C1951 C1950 1.391 . S
H1952 C1960 0.950 . S
H1953 C1965 0.950 . S
H1954 C1962 0.950 . S
H1955 C1964 0.950 . S
H1956 C1966 0.950 . S
H1957 C1968 0.950 . S
H1958 C1970 0.950 . S
H1959 C1971 0.950 . S
C1960 H1952 0.950 . S
C1960 C1961 1.386 . S
C1960 C1962 1.391 . S
C1961 C1960 1.386 . S
C1961 C1965 1.393 . S
C1962 H1954 0.950 . S
C1962 C1960 1.391 . S
C1962 C1963 1.400 . S
C1963 C1962 1.400 . S
C1963 C1964 1.398 . S
C1963 C1969 1.491 . S
C1964 H1955 0.950 . S
C1964 C1963 1.398 . S
C1964 C1965 1.391 . S
C1965 H1953 0.950 . S
C1965 C1961 1.393 . S
C1965 C1964 1.391 . S
C1966 H1956 0.950 . S
C1966 C1967 1.386 . S
C1966 C1968 1.391 . S
C1967 C1966 1.386 . S
C1967 C1971 1.393 . S
C1968 H1957 0.950 . S
C1968 C1966 1.391 . S
C1968 C1969 1.400 . S
C1969 C1963 1.491 . S
C1969 C1968 1.400 . S
C1969 C1970 1.398 . S
C1970 H1958 0.950 . S
C1970 C1969 1.398 . S
C1970 C1971 1.391 . S
C1971 H1959 0.950 . S
C1971 C1967 1.393 . S
C1971 C1970 1.391 . S
H1972 C1980 0.950 . S
H1973 C1985 0.950 . S
H1974 C1982 0.950 . S
H1975 C1984 0.950 . S
H1976 C1986 0.950 . S
H1977 C1988 0.950 . S
H1978 C1990 0.950 . S
H1979 C1991 0.950 . S
C1980 H1972 0.950 . S
C1980 C1981 1.386 . S
C1980 C1982 1.391 . S
C1981 C1980 1.386 . S
C1981 C1985 1.393 . S
C1982 H1974 0.950 . S
C1982 C1980 1.391 . S
C1982 C1983 1.400 . S
C1983 C1982 1.400 . S
C1983 C1984 1.398 . S
C1983 C1989 1.491 . S
C1984 H1975 0.950 . S
C1984 C1983 1.398 . S
C1984 C1985 1.391 . S
C1985 H1973 0.950 . S
C1985 C1981 1.393 . S
C1985 C1984 1.391 . S
C1986 H1976 0.950 . S
C1986 C1987 1.386 . S
C1986 C1988 1.391 . S
C1987 C1986 1.386 . S
C1987 C1991 1.393 . S
C1988 H1977 0.950 . S
C1988 C1986 1.391 . S
C1988 C1989 1.400 . S
C1989 C1983 1.491 . S
C1989 C1988 1.400 . S
C1989 C1990 1.398 . S
C1990 H1978 0.950 . S
C1990 C1989 1.398 . S
C1990 C1991 1.391 . S
C1991 H1979 0.950 . S
C1991 C1987 1.393 . S
C1991 C1990 1.391 . S
H1992 C2000 0.950 . S
H1993 C2005 0.950 . S
H1994 C2002 0.950 . S
H1995 C2004 0.950 . S
H1996 C2006 0.950 . S
H1997 C2008 0.950 . S
H1998 C2010 0.950 1_545 S
H1999 C2011 0.950 . S
C2000 H1992 0.950 . S
C2000 C2001 1.386 . S
C2000 C2002 1.391 . S
C2001 C2000 1.386 . S
C2001 C2005 1.393 1_545 S
C2002 H1994 0.950 . S
C2002 C2000 1.391 . S
C2002 C2003 1.400 1_545 S
C2003 C2002 1.400 1_565 S
C2003 C2004 1.398 . S
C2003 C2009 1.491 . S
C2004 H1995 0.950 . S
C2004 C2003 1.398 . S
C2004 C2005 1.391 . S
C2005 H1993 0.950 . S
C2005 C2001 1.393 1_565 S
C2005 C2004 1.391 . S
C2006 H1996 0.950 . S
C2006 C2007 1.386 . S
C2006 C2008 1.391 . S
C2007 C2006 1.386 . S
C2007 C2011 1.393 . S
C2008 H1997 0.950 . S
C2008 C2006 1.391 . S
C2008 C2009 1.400 . S
C2009 C2003 1.491 . S
C2009 C2008 1.400 . S
C2009 C2010 1.398 . S
C2010 H1998 0.950 1_565 S
C2010 C2009 1.398 . S
C2010 C2011 1.391 . S
C2011 H1999 0.950 . S
C2011 C2007 1.393 . S
C2011 C2010 1.391 . S
H2012 C2020 0.950 . S
H2013 C2025 0.950 . S
H2014 C2022 0.950 . S
H2015 C2024 0.950 . S
H2016 C2026 0.950 . S
H2017 C2028 0.950 . S
H2018 C2030 0.950 . S
H2019 C2031 0.950 . S
C2020 H2012 0.950 . S
C2020 C2021 1.386 . S
C2020 C2022 1.391 . S
C2021 C2020 1.386 . S
C2021 C2025 1.393 . S
C2022 H2014 0.950 . S
C2022 C2020 1.391 . S
C2022 C2023 1.400 . S
C2023 C2022 1.400 . S
C2023 C2024 1.398 . S
C2023 C2029 1.491 . S
C2024 H2015 0.950 . S
C2024 C2023 1.398 . S
C2024 C2025 1.391 . S
C2025 H2013 0.950 . S
C2025 C2021 1.393 . S
C2025 C2024 1.391 . S
C2026 H2016 0.950 . S
C2026 C2027 1.386 . S
C2026 C2028 1.391 . S
C2027 C2026 1.386 . S
C2027 C2031 1.393 . S
C2028 H2017 0.950 . S
C2028 C2026 1.391 . S
C2028 C2029 1.400 . S
C2029 C2023 1.491 . S
C2029 C2028 1.400 . S
C2029 C2030 1.398 . S
C2030 H2018 0.950 . S
C2030 C2029 1.398 . S
C2030 C2031 1.391 . S
C2031 H2019 0.950 . S
C2031 C2027 1.393 . S
C2031 C2030 1.391 . S
H2032 C2040 0.950 . S
H2033 C2045 0.950 . S
H2034 C2042 0.950 . S
H2035 C2044 0.950 . S
H2036 C2046 0.950 . S
H2037 C2048 0.950 . S
H2038 C2050 0.950 . S
H2039 C2051 0.950 . S
C2040 H2032 0.950 . S
C2040 C2041 1.386 . S
C2040 C2042 1.391 . S
C2041 C2040 1.386 . S
C2041 C2045 1.393 . S
C2042 H2034 0.950 . S
C2042 C2040 1.391 . S
C2042 C2043 1.400 . S
C2043 C2042 1.400 . S
C2043 C2044 1.398 . S
C2043 C2049 1.491 . S
C2044 H2035 0.950 . S
C2044 C2043 1.398 . S
C2044 C2045 1.391 . S
C2045 H2033 0.950 . S
C2045 C2041 1.393 . S
C2045 C2044 1.391 . S
C2046 H2036 0.950 . S
C2046 C2047 1.386 . S
C2046 C2048 1.391 . S
C2047 C2046 1.386 . S
C2047 C2051 1.393 . S
C2048 H2037 0.950 . S
C2048 C2046 1.391 . S
C2048 C2049 1.400 . S
C2049 C2043 1.491 . S
C2049 C2048 1.400 . S
C2049 C2050 1.398 . S
C2050 H2038 0.950 . S
C2050 C2049 1.398 . S
C2050 C2051 1.391 . S
C2051 H2039 0.950 . S
C2051 C2047 1.393 . S
C2051 C2050 1.391 . S
H2052 C2060 0.950 . S
H2053 C2065 0.950 . S
H2054 C2062 0.950 . S
H2055 C2064 0.950 . S
H2056 C2066 0.950 . S
H2057 C2068 0.950 . S
H2058 C2070 0.950 . S
H2059 C2071 0.950 . S
C2060 H2052 0.950 . S
C2060 C2061 1.386 . S
C2060 C2062 1.391 . S
C2061 C2060 1.386 . S
C2061 C2065 1.393 . S
C2062 H2054 0.950 . S
C2062 C2060 1.391 . S
C2062 C2063 1.400 . S
C2063 C2062 1.400 . S
C2063 C2064 1.398 . S
C2063 C2069 1.491 . S
C2064 H2055 0.950 . S
C2064 C2063 1.398 . S
C2064 C2065 1.391 . S
C2065 H2053 0.950 . S
C2065 C2061 1.393 . S
C2065 C2064 1.391 . S
C2066 H2056 0.950 . S
C2066 C2067 1.386 . S
C2066 C2068 1.391 . S
C2067 C2066 1.386 . S
C2067 C2071 1.393 . S
C2068 H2057 0.950 . S
C2068 C2066 1.391 . S
C2068 C2069 1.400 . S
C2069 C2063 1.491 . S
C2069 C2068 1.400 . S
C2069 C2070 1.398 . S
C2070 H2058 0.950 . S
C2070 C2069 1.398 . S
C2070 C2071 1.391 . S
C2071 H2059 0.950 . S
C2071 C2067 1.393 . S
C2071 C2070 1.391 . S
H2072 C2080 0.950 . S
H2073 C2085 0.950 . S
H2074 C2082 0.950 . S
H2075 C2084 0.950 . S
H2076 C2086 0.950 . S
H2077 C2088 0.950 . S
H2078 C2090 0.950 . S
H2079 C2091 0.950 . S
C2080 H2072 0.950 . S
C2080 C2081 1.386 . S
C2080 C2082 1.391 . S
C2081 C2080 1.386 . S
C2081 C2085 1.393 . S
C2082 H2074 0.950 . S
C2082 C2080 1.391 . S
C2082 C2083 1.400 . S
C2083 C2082 1.400 . S
C2083 C2084 1.398 . S
C2083 C2089 1.491 . S
C2084 H2075 0.950 . S
C2084 C2083 1.398 . S
C2084 C2085 1.391 . S
C2085 H2073 0.950 . S
C2085 C2081 1.393 . S
C2085 C2084 1.391 . S
C2086 H2076 0.950 . S
C2086 C2087 1.386 . S
C2086 C2088 1.391 . S
C2087 C2086 1.386 . S
C2087 C2091 1.393 . S
C2088 H2077 0.950 . S
C2088 C2086 1.391 . S
C2088 C2089 1.400 . S
C2089 C2083 1.491 . S
C2089 C2088 1.400 . S
C2089 C2090 1.398 . S
C2090 H2078 0.950 . S
C2090 C2089 1.398 . S
C2090 C2091 1.391 . S
C2091 H2079 0.950 . S
C2091 C2087 1.393 . S
C2091 C2090 1.391 . S
H2092 C2100 0.950 1_545 S
H2093 C2105 0.950 . S
H2094 C2102 0.950 . S
H2095 C2104 0.950 . S
H2096 C2106 0.950 . S
H2097 C2108 0.950 . S
H2098 C2110 0.950 . S
H2099 C2111 0.950 . S
C2100 H2092 0.950 1_565 S
C2100 C2101 1.386 . S
C2100 C2102 1.391 . S
C2101 C2100 1.386 . S
C2101 C2105 1.393 . S
C2102 H2094 0.950 . S
C2102 C2100 1.391 . S
C2102 C2103 1.400 . S
C2103 C2102 1.400 . S
C2103 C2104 1.398 . S
C2103 C2109 1.491 1_655 S
C2104 H2095 0.950 . S
C2104 C2103 1.398 . S
C2104 C2105 1.391 . S
C2105 H2093 0.950 . S
C2105 C2101 1.393 . S
C2105 C2104 1.391 . S
C2106 H2096 0.950 . S
C2106 C2107 1.386 . S
C2106 C2108 1.391 . S
C2107 C2106 1.386 . S
C2107 C2111 1.393 . S
C2108 H2097 0.950 . S
C2108 C2106 1.391 . S
C2108 C2109 1.400 . S
C2109 C2103 1.491 1_455 S
C2109 C2108 1.400 . S
C2109 C2110 1.398 . S
C2110 H2098 0.950 . S
C2110 C2109 1.398 . S
C2110 C2111 1.391 . S
C2111 H2099 0.950 . S
C2111 C2107 1.393 . S
C2111 C2110 1.391 . S
H2112 C2120 0.950 . S
H2113 C2125 0.950 . S
H2114 C2122 0.950 . S
H2115 C2124 0.950 . S
H2116 C2126 0.950 . S
H2117 C2128 0.950 . S
H2118 C2130 0.950 . S
H2119 C2131 0.950 . S
C2120 H2112 0.950 . S
C2120 C2121 1.386 . S
C2120 C2122 1.391 . S
C2121 C2120 1.386 . S
C2121 C2125 1.393 . S
C2122 H2114 0.950 . S
C2122 C2120 1.391 . S
C2122 C2123 1.400 . S
C2123 C2122 1.400 . S
C2123 C2124 1.398 . S
C2123 C2129 1.491 . S
C2124 H2115 0.950 . S
C2124 C2123 1.398 . S
C2124 C2125 1.391 . S
C2125 H2113 0.950 . S
C2125 C2121 1.393 . S
C2125 C2124 1.391 . S
C2126 H2116 0.950 . S
C2126 C2127 1.386 . S
C2126 C2128 1.391 . S
C2127 C2126 1.386 . S
C2127 C2131 1.393 . S
C2128 H2117 0.950 . S
C2128 C2126 1.391 . S
C2128 C2129 1.400 . S
C2129 C2123 1.491 . S
C2129 C2128 1.400 . S
C2129 C2130 1.398 . S
C2130 H2118 0.950 . S
C2130 C2129 1.398 . S
C2130 C2131 1.391 . S
C2131 H2119 0.950 . S
C2131 C2127 1.393 . S
C2131 C2130 1.391 . S
H2132 C2140 0.950 . S
H2133 C2145 0.950 . S
H2134 C2142 0.950 . S
H2135 C2144 0.950 . S
H2136 C2146 0.950 . S
H2137 C2148 0.950 1_556 S
H2138 C2150 0.950 . S
H2139 C2151 0.950 . S
C2140 H2132 0.950 . S
C2140 C2141 1.386 . S
C2140 C2142 1.391 . S
C2141 C2140 1.386 . S
C2141 C2145 1.393 . S
C2142 H2134 0.950 . S
C2142 C2140 1.391 . S
C2142 C2143 1.400 . S
C2143 C2142 1.400 . S
C2143 C2144 1.398 . S
C2143 C2149 1.491 1_556 S
C2144 H2135 0.950 . S
C2144 C2143 1.398 . S
C2144 C2145 1.391 . S
C2145 H2133 0.950 . S
C2145 C2141 1.393 . S
C2145 C2144 1.391 . S
C2146 H2136 0.950 . S
C2146 C2147 1.386 . S
C2146 C2148 1.391 . S
C2147 C2146 1.386 . S
C2147 C2151 1.393 . S
C2148 H2137 0.950 1_554 S
C2148 C2146 1.391 . S
C2148 C2149 1.400 . S
C2149 C2143 1.491 1_554 S
C2149 C2148 1.400 . S
C2149 C2150 1.398 . S
C2150 H2138 0.950 . S
C2150 C2149 1.398 . S
C2150 C2151 1.391 . S
C2151 H2139 0.950 . S
C2151 C2147 1.393 . S
C2151 C2150 1.391 . S
H2152 C2160 0.950 . S
H2153 C2165 0.950 . S
H2154 C2162 0.950 . S
H2155 C2164 0.950 . S
H2156 C2166 0.950 . S
H2157 C2168 0.950 . S
H2158 C2170 0.950 . S
H2159 C2171 0.950 . S
C2160 H2152 0.950 . S
C2160 C2161 1.386 . S
C2160 C2162 1.391 . S
C2161 C2160 1.386 . S
C2161 C2165 1.393 . S
C2162 H2154 0.950 . S
C2162 C2160 1.391 . S
C2162 C2163 1.400 . S
C2163 C2162 1.400 . S
C2163 C2164 1.398 . S
C2163 C2169 1.491 . S
C2164 H2155 0.950 . S
C2164 C2163 1.398 . S
C2164 C2165 1.391 . S
C2165 H2153 0.950 . S
C2165 C2161 1.393 . S
C2165 C2164 1.391 . S
C2166 H2156 0.950 . S
C2166 C2167 1.386 . S
C2166 C2168 1.391 . S
C2167 C2166 1.386 . S
C2167 C2171 1.393 . S
C2168 H2157 0.950 . S
C2168 C2166 1.391 . S
C2168 C2169 1.400 . S
C2169 C2163 1.491 . S
C2169 C2168 1.400 . S
C2169 C2170 1.398 . S
C2170 H2158 0.950 . S
C2170 C2169 1.398 . S
C2170 C2171 1.391 . S
C2171 H2159 0.950 . S
C2171 C2167 1.393 . S
C2171 C2170 1.391 . S
H2172 C2180 0.950 . S
H2173 C2185 0.950 . S
H2174 C2182 0.950 . S
H2175 C2184 0.950 . S
H2176 C2186 0.950 . S
H2177 C2188 0.950 . S
H2178 C2190 0.950 . S
H2179 C2191 0.950 . S
C2180 H2172 0.950 . S
C2180 C2181 1.386 . S
C2180 C2182 1.391 . S
C2181 C2180 1.386 . S
C2181 C2185 1.393 . S
C2182 H2174 0.950 . S
C2182 C2180 1.391 . S
C2182 C2183 1.400 . S
C2183 C2182 1.400 . S
C2183 C2184 1.398 . S
C2183 C2189 1.491 . S
C2184 H2175 0.950 . S
C2184 C2183 1.398 . S
C2184 C2185 1.391 . S
C2185 H2173 0.950 . S
C2185 C2181 1.393 . S
C2185 C2184 1.391 . S
C2186 H2176 0.950 . S
C2186 C2187 1.386 . S
C2186 C2188 1.391 . S
C2187 C2186 1.386 . S
C2187 C2191 1.393 . S
C2188 H2177 0.950 . S
C2188 C2186 1.391 . S
C2188 C2189 1.400 . S
C2189 C2183 1.491 . S
C2189 C2188 1.400 . S
C2189 C2190 1.398 . S
C2190 H2178 0.950 . S
C2190 C2189 1.398 . S
C2190 C2191 1.391 . S
C2191 H2179 0.950 . S
C2191 C2187 1.393 . S
C2191 C2190 1.391 . S
H2192 C2200 0.950 . S
H2193 C2205 0.950 . S
H2194 C2202 0.950 . S
H2195 C2204 0.950 . S
H2196 C2206 0.950 . S
H2197 C2208 0.950 . S
H2198 C2210 0.950 . S
H2199 C2211 0.950 . S
C2200 H2192 0.950 . S
C2200 C2201 1.386 . S
C2200 C2202 1.391 . S
C2201 C2200 1.386 . S
C2201 C2205 1.393 . S
C2202 H2194 0.950 . S
C2202 C2200 1.391 . S
C2202 C2203 1.400 . S
C2203 C2202 1.400 . S
C2203 C2204 1.398 . S
C2203 C2209 1.491 . S
C2204 H2195 0.950 . S
C2204 C2203 1.398 . S
C2204 C2205 1.391 . S
C2205 H2193 0.950 . S
C2205 C2201 1.393 . S
C2205 C2204 1.391 . S
C2206 H2196 0.950 . S
C2206 C2207 1.386 . S
C2206 C2208 1.391 . S
C2207 C2206 1.386 . S
C2207 C2211 1.393 . S
C2208 H2197 0.950 . S
C2208 C2206 1.391 . S
C2208 C2209 1.400 . S
C2209 C2203 1.491 . S
C2209 C2208 1.400 . S
C2209 C2210 1.398 . S
C2210 H2198 0.950 . S
C2210 C2209 1.398 . S
C2210 C2211 1.391 . S
C2211 H2199 0.950 . S
C2211 C2207 1.393 . S
C2211 C2210 1.391 . S
H2212 C2220 0.950 . S
H2213 C2225 0.985 . S
H2214 C2222 0.950 . S
H2215 C2224 0.950 . S
H2216 C2226 0.950 . S
H2217 C2228 0.950 . S
H2218 C2230 0.950 1_554 S
H2219 C2231 0.950 . S
C2220 H2212 0.950 . S
C2220 C2221 1.386 . S
C2220 C2222 1.391 . S
C2221 C2220 1.386 . S
C2221 C2225 1.393 . S
C2222 H2214 0.950 . S
C2222 C2220 1.391 . S
C2222 C2223 1.400 . S
C2223 C2222 1.400 . S
C2223 C2224 1.398 . S
C2223 C2229 1.491 1_554 S
C2224 H2215 0.950 . S
C2224 C2223 1.398 . S
C2224 C2225 1.391 . S
C2225 H2213 0.985 . S
C2225 C2221 1.393 . S
C2225 C2224 1.391 . S
C2226 H2216 0.950 . S
C2226 C2227 1.386 . S
C2226 C2228 1.391 . S
C2227 C2226 1.386 . S
C2227 C2231 1.393 . S
C2228 H2217 0.950 . S
C2228 C2226 1.391 . S
C2228 C2229 1.400 . S
C2229 C2223 1.491 1_556 S
C2229 C2228 1.400 . S
C2229 C2230 1.398 . S
C2230 H2218 0.950 1_556 S
C2230 C2229 1.398 . S
C2230 C2231 1.391 . S
C2231 H2219 0.950 . S
C2231 C2227 1.393 . S
C2231 C2230 1.391 . S
H2232 C2240 0.950 . S
H2233 C2245 0.950 . S
H2234 C2242 0.950 . S
H2235 C2244 0.950 . S
H2236 C2246 0.950 . S
H2237 C2248 0.950 . S
H2238 C2250 0.950 . S
H2239 C2251 0.950 . S
C2240 H2232 0.950 . S
C2240 C2241 1.386 . S
C2240 C2242 1.391 . S
C2241 C2240 1.386 . S
C2241 C2245 1.393 . S
C2242 H2234 0.950 . S
C2242 C2240 1.391 . S
C2242 C2243 1.400 . S
C2243 C2242 1.400 . S
C2243 C2244 1.398 . S
C2243 C2249 1.491 . S
C2244 H2235 0.950 . S
C2244 C2243 1.398 . S
C2244 C2245 1.391 . S
C2245 H2233 0.950 . S
C2245 C2241 1.393 . S
C2245 C2244 1.391 . S
C2246 H2236 0.950 . S
C2246 C2247 1.386 . S
C2246 C2248 1.391 . S
C2247 C2246 1.386 . S
C2247 C2251 1.393 . S
C2248 H2237 0.950 . S
C2248 C2246 1.391 . S
C2248 C2249 1.400 . S
C2249 C2243 1.491 . S
C2249 C2248 1.400 . S
C2249 C2250 1.398 . S
C2250 H2238 0.950 . S
C2250 C2249 1.398 . S
C2250 C2251 1.391 . S
C2251 H2239 0.950 . S
C2251 C2247 1.393 . S
C2251 C2250 1.391 . S
H2252 C2260 0.950 . S
H2253 C2265 0.950 . S
H2254 C2262 0.950 . S
H2255 C2264 0.950 . S
H2256 C2266 0.950 . S
H2257 C2268 0.950 . S
H2258 C2270 0.950 . S
H2259 C2271 0.950 . S
C2260 H2252 0.950 . S
C2260 C2261 1.386 . S
C2260 C2262 1.391 . S
C2261 C2260 1.386 . S
C2261 C2265 1.393 . S
C2262 H2254 0.950 . S
C2262 C2260 1.391 . S
C2262 C2263 1.400 . S
C2263 C2262 1.400 . S
C2263 C2264 1.398 . S
C2263 C2269 1.491 . S
C2264 H2255 0.950 . S
C2264 C2263 1.398 . S
C2264 C2265 1.391 . S
C2265 H2253 0.950 . S
C2265 C2261 1.393 . S
C2265 C2264 1.391 . S
C2266 H2256 0.950 . S
C2266 C2267 1.386 . S
C2266 C2268 1.391 . S
C2267 C2266 1.386 . S
C2267 C2271 1.393 . S
C2268 H2257 0.950 . S
C2268 C2266 1.391 . S
C2268 C2269 1.400 . S
C2269 C2263 1.491 . S
C2269 C2268 1.400 . S
C2269 C2270 1.398 . S
C2270 H2258 0.950 . S
C2270 C2269 1.398 . S
C2270 C2271 1.391 . S
C2271 H2259 0.950 . S
C2271 C2267 1.393 . S
C2271 C2270 1.391 . S
H2272 C2280 0.950 . S
H2273 C2285 0.950 . S
H2274 C2282 0.950 . S
H2275 C2284 0.950 . S
H2276 C2286 0.950 . S
H2277 C2288 0.950 . S
H2278 C2290 0.950 . S
H2279 C2291 0.950 . S
C2280 H2272 0.950 . S
C2280 C2281 1.386 . S
C2280 C2282 1.391 . S
C2281 C2280 1.386 . S
C2281 C2285 1.393 . S
C2282 H2274 0.950 . S
C2282 C2280 1.391 . S
C2282 C2283 1.400 . S
C2283 C2282 1.400 . S
C2283 C2284 1.398 . S
C2283 C2289 1.491 . S
C2284 H2275 0.950 . S
C2284 C2283 1.398 . S
C2284 C2285 1.391 . S
C2285 H2273 0.950 . S
C2285 C2281 1.393 . S
C2285 C2284 1.391 . S
C2286 H2276 0.950 . S
C2286 C2287 1.386 . S
C2286 C2288 1.391 . S
C2287 C2286 1.386 . S
C2287 C2291 1.393 . S
C2288 H2277 0.950 . S
C2288 C2286 1.391 . S
C2288 C2289 1.400 . S
C2289 C2283 1.491 . S
C2289 C2288 1.400 . S
C2289 C2290 1.398 . S
C2290 H2278 0.950 . S
C2290 C2289 1.398 . S
C2290 C2291 1.391 . S
C2291 H2279 0.950 . S
C2291 C2287 1.393 . S
C2291 C2290 1.391 . S
H2292 C2300 0.950 . S
H2293 C2305 0.950 . S
H2294 C2302 0.950 . S
H2295 C2304 0.950 . S
H2296 C2306 0.950 . S
H2297 C2308 0.950 . S
H2298 C2310 0.950 . S
H2299 C2311 0.950 . S
C2300 H2292 0.950 . S
C2300 C2301 1.386 . S
C2300 C2302 1.391 . S
C2301 C2300 1.386 . S
C2301 C2305 1.393 . S
C2302 H2294 0.950 . S
C2302 C2300 1.391 . S
C2302 C2303 1.400 . S
C2303 C2302 1.400 . S
C2303 C2304 1.398 . S
C2303 C2309 1.491 . S
C2304 H2295 0.950 . S
C2304 C2303 1.398 . S
C2304 C2305 1.391 . S
C2305 H2293 0.950 . S
C2305 C2301 1.393 . S
C2305 C2304 1.391 . S
C2306 H2296 0.950 . S
C2306 C2307 1.386 . S
C2306 C2308 1.391 . S
C2307 C2306 1.386 . S
C2307 C2311 1.393 . S
C2308 H2297 0.950 . S
C2308 C2306 1.391 . S
C2308 C2309 1.400 . S
C2309 C2303 1.491 . S
C2309 C2308 1.400 . S
C2309 C2310 1.398 . S
C2310 H2298 0.950 . S
C2310 C2309 1.398 . S
C2310 C2311 1.391 . S
C2311 H2299 0.950 . S
C2311 C2307 1.393 . S
C2311 C2310 1.391 . S
H2312 C2320 0.950 . S
H2313 C2325 0.950 . S
H2314 C2322 0.950 . S
H2315 C2324 0.950 . S
H2316 C2326 0.950 . S
H2317 C2328 0.950 . S
H2318 C2330 0.950 . S
H2319 C2331 0.950 . S
C2320 H2312 0.950 . S
C2320 C2321 1.386 . S
C2320 C2322 1.391 . S
C2321 C2320 1.386 . S
C2321 C2325 1.393 . S
C2322 H2314 0.950 . S
C2322 C2320 1.391 . S
C2322 C2323 1.400 . S
C2323 C2322 1.400 . S
C2323 C2324 1.398 . S
C2323 C2329 1.491 . S
C2324 H2315 0.950 . S
C2324 C2323 1.398 . S
C2324 C2325 1.391 . S
C2325 H2313 0.950 . S
C2325 C2321 1.393 . S
C2325 C2324 1.391 . S
C2326 H2316 0.950 . S
C2326 C2327 1.386 . S
C2326 C2328 1.391 . S
C2327 C2326 1.386 . S
C2327 C2331 1.393 . S
C2328 H2317 0.950 . S
C2328 C2326 1.391 . S
C2328 C2329 1.400 . S
C2329 C2323 1.491 . S
C2329 C2328 1.400 . S
C2329 C2330 1.398 . S
C2330 H2318 0.950 . S
C2330 C2329 1.398 . S
C2330 C2331 1.391 . S
C2331 H2319 0.950 . S
C2331 C2327 1.393 . S
C2331 C2330 1.391 . S
H2332 C2340 0.950 . S
H2333 C2345 0.950 . S
H2334 C2342 0.950 . S
H2335 C2344 0.950 . S
H2336 C2346 0.950 . S
H2337 C2348 0.950 . S
H2338 C2350 0.950 . S
H2339 C2351 0.950 . S
C2340 H2332 0.950 . S
C2340 C2341 1.386 . S
C2340 C2342 1.391 . S
C2341 C2340 1.386 . S
C2341 C2345 1.393 . S
C2342 H2334 0.950 . S
C2342 C2340 1.391 . S
C2342 C2343 1.400 . S
C2343 C2342 1.400 . S
C2343 C2344 1.398 . S
C2343 C2349 1.491 . S
C2344 H2335 0.950 . S
C2344 C2343 1.398 . S
C2344 C2345 1.391 . S
C2345 H2333 0.950 . S
C2345 C2341 1.393 . S
C2345 C2344 1.391 . S
C2346 H2336 0.950 . S
C2346 C2347 1.386 . S
C2346 C2348 1.391 . S
C2347 C2346 1.386 . S
C2347 C2351 1.393 . S
C2348 H2337 0.950 . S
C2348 C2346 1.391 . S
C2348 C2349 1.400 . S
C2349 C2343 1.491 . S
C2349 C2348 1.400 . S
C2349 C2350 1.398 . S
C2350 H2338 0.950 . S
C2350 C2349 1.398 . S
C2350 C2351 1.391 . S
C2351 H2339 0.950 . S
C2351 C2347 1.393 . S
C2351 C2350 1.391 . S
H2352 C2360 0.950 . S
H2353 C2365 0.950 . S
H2354 C2362 0.950 . S
H2355 C2364 0.950 . S
H2356 C2366 0.950 . S
H2357 C2368 0.950 . S
H2358 C2370 0.950 . S
H2359 C2371 0.950 . S
C2360 H2352 0.950 . S
C2360 C2361 1.386 . S
C2360 C2362 1.391 . S
C2361 C2360 1.386 . S
C2361 C2365 1.393 . S
C2362 H2354 0.950 . S
C2362 C2360 1.391 . S
C2362 C2363 1.400 . S
C2363 C2362 1.400 . S
C2363 C2364 1.398 . S
C2363 C2369 1.491 . S
C2364 H2355 0.950 . S
C2364 C2363 1.398 . S
C2364 C2365 1.391 . S
C2365 H2353 0.950 . S
C2365 C2361 1.393 . S
C2365 C2364 1.391 . S
C2366 H2356 0.950 . S
C2366 C2367 1.386 . S
C2366 C2368 1.391 . S
C2367 C2366 1.386 . S
C2367 C2371 1.393 . S
C2368 H2357 0.950 . S
C2368 C2366 1.391 . S
C2368 C2369 1.400 . S
C2369 C2363 1.491 . S
C2369 C2368 1.400 . S
C2369 C2370 1.398 . S
C2370 H2358 0.950 . S
C2370 C2369 1.398 . S
C2370 C2371 1.391 . S
C2371 H2359 0.950 . S
C2371 C2367 1.393 . S
C2371 C2370 1.391 . S
H2372 C2380 0.950 1_554 S
H2373 C2385 0.950 . S
H2374 C2382 0.950 . S
H2375 C2384 0.950 . S
H2376 C2386 0.950 . S
H2377 C2388 0.950 . S
H2378 C2390 0.950 . S
H2379 C2391 0.950 . S
C2380 H2372 0.950 1_556 S
C2380 C2381 1.386 . S
C2380 C2382 1.391 . S
C2381 C2380 1.386 . S
C2381 C2385 1.393 . S
C2382 H2374 0.950 . S
C2382 C2380 1.391 . S
C2382 C2383 1.400 . S
C2383 C2382 1.400 . S
C2383 C2384 1.398 . S
C2383 C2389 1.491 . S
C2384 H2375 0.950 . S
C2384 C2383 1.398 . S
C2384 C2385 1.391 . S
C2385 H2373 0.950 . S
C2385 C2381 1.393 . S
C2385 C2384 1.391 . S
C2386 H2376 0.950 . S
C2386 C2387 1.386 . S
C2386 C2388 1.391 . S
C2387 C2386 1.386 . S
C2387 C2391 1.393 . S
C2388 H2377 0.950 . S
C2388 C2386 1.391 . S
C2388 C2389 1.400 . S
C2389 C2383 1.491 . S
C2389 C2388 1.400 . S
C2389 C2390 1.398 . S
C2390 H2378 0.950 . S
C2390 C2389 1.398 . S
C2390 C2391 1.391 . S
C2391 H2379 0.950 . S
C2391 C2387 1.393 . S
C2391 C2390 1.391 . S
H2392 C2400 0.950 . S
H2393 C2405 0.950 . S
H2394 C2402 0.950 . S
H2395 C2404 0.950 . S
H2396 C2406 0.950 . S
H2397 C2408 0.950 . S
H2398 C2410 0.950 . S
H2399 C2411 0.950 . S
C2400 H2392 0.950 . S
C2400 C2401 1.386 . S
C2400 C2402 1.391 . S
C2401 C2400 1.386 . S
C2401 C2405 1.393 . S
C2402 H2394 0.950 . S
C2402 C2400 1.391 . S
C2402 C2403 1.400 . S
C2403 C2402 1.400 . S
C2403 C2404 1.398 . S
C2403 C2409 1.491 . S
C2404 H2395 0.950 . S
C2404 C2403 1.398 . S
C2404 C2405 1.391 . S
C2405 H2393 0.950 . S
C2405 C2401 1.393 . S
C2405 C2404 1.391 . S
C2406 H2396 0.950 . S
C2406 C2407 1.386 . S
C2406 C2408 1.391 . S
C2407 C2406 1.386 . S
C2407 C2411 1.393 . S
C2408 H2397 0.950 . S
C2408 C2406 1.391 . S
C2408 C2409 1.400 . S
C2409 C2403 1.491 . S
C2409 C2408 1.400 . S
C2409 C2410 1.398 . S
C2410 H2398 0.950 . S
C2410 C2409 1.398 . S
C2410 C2411 1.391 . S
C2411 H2399 0.950 . S
C2411 C2407 1.393 . S
C2411 C2410 1.391 . S
H2412 C2420 0.950 . S
H2413 C2425 0.950 . S
H2414 C2422 0.950 . S
H2415 C2424 0.950 . S
H2416 C2426 0.950 . S
H2417 C2428 0.950 . S
H2418 C2430 0.950 . S
H2419 C2431 0.950 . S
C2420 H2412 0.950 . S
C2420 C2421 1.386 . S
C2420 C2422 1.391 . S
C2421 C2420 1.386 . S
C2421 C2425 1.393 . S
C2422 H2414 0.950 . S
C2422 C2420 1.391 . S
C2422 C2423 1.400 . S
C2423 C2422 1.400 . S
C2423 C2424 1.398 . S
C2423 C2429 1.491 . S
C2424 H2415 0.950 . S
C2424 C2423 1.398 . S
C2424 C2425 1.391 . S
C2425 H2413 0.950 . S
C2425 C2421 1.393 . S
C2425 C2424 1.391 . S
C2426 H2416 0.950 . S
C2426 C2427 1.386 . S
C2426 C2428 1.391 . S
C2427 C2426 1.386 . S
C2427 C2431 1.393 . S
C2428 H2417 0.950 . S
C2428 C2426 1.391 . S
C2428 C2429 1.400 . S
C2429 C2423 1.491 . S
C2429 C2428 1.400 . S
C2429 C2430 1.398 . S
C2430 H2418 0.950 . S
C2430 C2429 1.398 . S
C2430 C2431 1.391 . S
C2431 H2419 0.950 . S
C2431 C2427 1.393 . S
C2431 C2430 1.391 . S
H2432 C2440 0.950 . S
H2433 C2445 0.950 . S
H2434 C2442 0.950 . S
H2435 C2444 0.950 . S
H2436 C2446 0.950 . S
H2437 C2448 0.950 . S
H2438 C2450 0.950 . S
H2439 C2451 0.950 . S
C2440 H2432 0.950 . S
C2440 C2441 1.386 . S
C2440 C2442 1.391 . S
C2441 C2440 1.386 . S
C2441 C2445 1.393 . S
C2442 H2434 0.950 . S
C2442 C2440 1.391 . S
C2442 C2443 1.400 . S
C2443 C2442 1.400 . S
C2443 C2444 1.398 . S
C2443 C2449 1.491 . S
C2444 H2435 0.950 . S
C2444 C2443 1.398 . S
C2444 C2445 1.391 . S
C2445 H2433 0.950 . S
C2445 C2441 1.393 . S
C2445 C2444 1.391 . S
C2446 H2436 0.950 . S
C2446 C2447 1.386 . S
C2446 C2448 1.391 . S
C2447 C2446 1.386 . S
C2447 C2451 1.393 . S
C2448 H2437 0.950 . S
C2448 C2446 1.391 . S
C2448 C2449 1.400 . S
C2449 C2443 1.491 . S
C2449 C2448 1.400 . S
C2449 C2450 1.398 . S
C2450 H2438 0.950 . S
C2450 C2449 1.398 . S
C2450 C2451 1.391 . S
C2451 H2439 0.950 . S
C2451 C2447 1.393 . S
C2451 C2450 1.391 . S
H2452 C2460 0.950 . S
H2453 C2465 0.950 . S
H2454 C2462 0.950 . S
H2455 C2464 0.950 . S
H2456 C2466 0.950 . S
H2457 C2468 0.950 . S
H2458 C2470 0.950 . S
H2459 C2471 0.950 . S
C2460 H2452 0.950 . S
C2460 C2461 1.386 . S
C2460 C2462 1.391 . S
C2461 C2460 1.386 . S
C2461 C2465 1.393 . S
C2462 H2454 0.950 . S
C2462 C2460 1.391 . S
C2462 C2463 1.400 . S
C2463 C2462 1.400 . S
C2463 C2464 1.398 . S
C2463 C2469 1.491 . S
C2464 H2455 0.950 . S
C2464 C2463 1.398 . S
C2464 C2465 1.391 . S
C2465 H2453 0.950 . S
C2465 C2461 1.393 . S
C2465 C2464 1.391 . S
C2466 H2456 0.950 . S
C2466 C2467 1.386 . S
C2466 C2468 1.391 . S
C2467 C2466 1.386 . S
C2467 C2471 1.393 . S
C2468 H2457 0.950 . S
C2468 C2466 1.391 . S
C2468 C2469 1.400 . S
C2469 C2463 1.491 . S
C2469 C2468 1.400 . S
C2469 C2470 1.398 . S
C2470 H2458 0.950 . S
C2470 C2469 1.398 . S
C2470 C2471 1.391 . S
C2471 H2459 0.950 . S
C2471 C2467 1.393 . S
C2471 C2470 1.391 . S
H2472 C2480 0.950 . S
H2473 C2485 0.950 . S
H2474 C2482 0.950 . S
H2475 C2484 0.950 . S
H2476 C2486 0.950 . S
H2477 C2488 0.950 . S
H2478 C2490 0.950 . S
H2479 C2491 0.950 . S
C2480 H2472 0.950 . S
C2480 C2481 1.386 . S
C2480 C2482 1.391 . S
C2481 C2480 1.386 . S
C2481 C2485 1.393 . S
C2482 H2474 0.950 . S
C2482 C2480 1.391 . S
C2482 C2483 1.400 . S
C2483 C2482 1.400 . S
C2483 C2484 1.398 . S
C2483 C2489 1.491 . S
C2484 H2475 0.950 . S
C2484 C2483 1.398 . S
C2484 C2485 1.391 . S
C2485 H2473 0.950 . S
C2485 C2481 1.393 . S
C2485 C2484 1.391 . S
C2486 H2476 0.950 . S
C2486 C2487 1.386 . S
C2486 C2488 1.391 . S
C2487 C2486 1.386 . S
C2487 C2491 1.393 . S
C2488 H2477 0.950 . S
C2488 C2486 1.391 . S
C2488 C2489 1.400 . S
C2489 C2483 1.491 . S
C2489 C2488 1.400 . S
C2489 C2490 1.398 . S
C2490 H2478 0.950 . S
C2490 C2489 1.398 . S
C2490 C2491 1.391 . S
C2491 H2479 0.950 . S
C2491 C2487 1.393 . S
C2491 C2490 1.391 . S
H2492 C2500 0.950 . S
H2493 C2505 0.950 . S
H2494 C2502 0.950 . S
H2495 C2504 0.950 . S
H2496 C2506 0.950 . S
H2497 C2508 0.950 . S
H2498 C2510 0.950 . S
H2499 C2511 0.950 . S
C2500 H2492 0.950 . S
C2500 C2501 1.386 . S
C2500 C2502 1.391 . S
C2501 C2500 1.386 . S
C2501 C2505 1.393 . S
C2502 H2494 0.950 . S
C2502 C2500 1.391 . S
C2502 C2503 1.400 . S
C2503 C2502 1.400 . S
C2503 C2504 1.398 . S
C2503 C2509 1.491 . S
C2504 H2495 0.950 . S
C2504 C2503 1.398 . S
C2504 C2505 1.391 . S
C2505 H2493 0.950 . S
C2505 C2501 1.393 . S
C2505 C2504 1.391 . S
C2506 H2496 0.950 . S
C2506 C2507 1.386 . S
C2506 C2508 1.391 . S
C2507 C2506 1.386 . S
C2507 C2511 1.393 . S
C2508 H2497 0.950 . S
C2508 C2506 1.391 . S
C2508 C2509 1.400 . S
C2509 C2503 1.491 . S
C2509 C2508 1.400 . S
C2509 C2510 1.398 . S
C2510 H2498 0.950 . S
C2510 C2509 1.398 . S
C2510 C2511 1.391 . S
C2511 H2499 0.950 . S
C2511 C2507 1.393 . S
C2511 C2510 1.391 . S
H2512 C2520 0.950 . S
H2513 C2525 0.950 . S
H2514 C2522 0.950 . S
H2515 C2524 0.950 . S
H2516 C2526 0.950 . S
H2517 C2528 0.950 . S
H2518 C2530 0.950 . S
H2519 C2531 0.950 . S
C2520 H2512 0.950 . S
C2520 C2521 1.386 . S
C2520 C2522 1.391 . S
C2521 C2520 1.386 . S
C2521 C2525 1.393 . S
C2522 H2514 0.950 . S
C2522 C2520 1.391 . S
C2522 C2523 1.400 . S
C2523 C2522 1.400 . S
C2523 C2524 1.398 . S
C2523 C2529 1.491 . S
C2524 H2515 0.950 . S
C2524 C2523 1.398 . S
C2524 C2525 1.391 . S
C2525 H2513 0.950 . S
C2525 C2521 1.393 . S
C2525 C2524 1.391 . S
C2526 H2516 0.950 . S
C2526 C2527 1.386 . S
C2526 C2528 1.391 . S
C2527 C2526 1.386 . S
C2527 C2531 1.393 . S
C2528 H2517 0.950 . S
C2528 C2526 1.391 . S
C2528 C2529 1.400 . S
C2529 C2523 1.491 . S
C2529 C2528 1.400 . S
C2529 C2530 1.398 . S
C2530 H2518 0.950 . S
C2530 C2529 1.398 . S
C2530 C2531 1.391 . S
C2531 H2519 0.950 . S
C2531 C2527 1.393 . S
C2531 C2530 1.391 . S
H2532 C2540 0.950 . S
H2533 C2545 0.950 . S
H2534 C2542 0.950 . S
H2535 C2544 0.950 . S
H2536 C2546 0.950 . S
H2537 C2548 0.950 . S
H2538 C2550 0.950 . S
H2539 C2551 0.950 . S
C2540 H2532 0.950 . S
C2540 C2541 1.386 . S
C2540 C2542 1.391 . S
C2541 C2540 1.386 . S
C2541 C2545 1.393 . S
C2542 H2534 0.950 . S
C2542 C2540 1.391 . S
C2542 C2543 1.400 . S
C2543 C2542 1.400 . S
C2543 C2544 1.398 . S
C2543 C2549 1.491 . S
C2544 H2535 0.950 . S
C2544 C2543 1.398 . S
C2544 C2545 1.391 . S
C2545 H2533 0.950 . S
C2545 C2541 1.393 . S
C2545 C2544 1.391 . S
C2546 H2536 0.950 . S
C2546 C2547 1.386 . S
C2546 C2548 1.391 . S
C2547 C2546 1.386 . S
C2547 C2551 1.393 . S
C2548 H2537 0.950 . S
C2548 C2546 1.391 . S
C2548 C2549 1.400 . S
C2549 C2543 1.491 . S
C2549 C2548 1.400 . S
C2549 C2550 1.398 . S
C2550 H2538 0.950 . S
C2550 C2549 1.398 . S
C2550 C2551 1.391 . S
C2551 H2539 0.950 . S
C2551 C2547 1.393 . S
C2551 C2550 1.391 . S
H2552 C2560 0.950 . S
H2553 C2565 0.950 . S
H2554 C2562 0.950 . S
H2555 C2564 0.950 . S
H2556 C2566 0.950 . S
H2557 C2568 0.950 . S
H2558 C2570 0.950 . S
H2559 C2571 0.950 . S
C2560 H2552 0.950 . S
C2560 C2561 1.386 . S
C2560 C2562 1.391 . S
C2561 C2560 1.386 . S
C2561 C2565 1.393 . S
C2562 H2554 0.950 . S
C2562 C2560 1.391 . S
C2562 C2563 1.400 . S
C2563 C2562 1.400 . S
C2563 C2564 1.398 . S
C2563 C2569 1.491 . S
C2564 H2555 0.950 . S
C2564 C2563 1.398 . S
C2564 C2565 1.391 . S
C2565 H2553 0.950 . S
C2565 C2561 1.393 . S
C2565 C2564 1.391 . S
C2566 H2556 0.950 . S
C2566 C2567 1.386 . S
C2566 C2568 1.391 . S
C2567 C2566 1.386 . S
C2567 C2571 1.393 . S
C2568 H2557 0.950 . S
C2568 C2566 1.391 . S
C2568 C2569 1.400 . S
C2569 C2563 1.491 . S
C2569 C2568 1.400 . S
C2569 C2570 1.398 . S
C2570 H2558 0.950 . S
C2570 C2569 1.398 . S
C2570 C2571 1.391 . S
C2571 H2559 0.950 . S
C2571 C2567 1.393 . S
C2571 C2570 1.391 . S
H2572 C2580 0.950 . S
H2573 C2585 0.950 . S
H2574 C2582 0.950 . S
H2575 C2584 0.950 . S
H2576 C2586 0.950 . S
H2577 C2588 0.950 1_455 S
H2578 C2590 0.950 . S
H2579 C2591 0.950 . S
C2580 H2572 0.950 . S
C2580 C2581 1.386 . S
C2580 C2582 1.391 . S
C2581 C2580 1.386 . S
C2581 C2585 1.393 . S
C2582 H2574 0.950 . S
C2582 C2580 1.391 . S
C2582 C2583 1.400 . S
C2583 C2582 1.400 . S
C2583 C2584 1.398 . S
C2583 C2589 1.494 1_455 S
C2584 H2575 0.950 . S
C2584 C2583 1.398 . S
C2584 C2585 1.391 . S
C2585 H2573 0.950 . S
C2585 C2581 1.393 . S
C2585 C2584 1.391 . S
C2586 H2576 0.950 . S
C2586 C2587 1.386 . S
C2586 C2588 1.391 . S
C2587 C2586 1.386 . S
C2587 C2591 1.393 . S
C2588 H2577 0.950 1_655 S
C2588 C2586 1.391 . S
C2588 C2589 1.399 . S
C2589 C2583 1.494 1_655 S
C2589 C2588 1.399 . S
C2589 C2590 1.396 . S
C2590 H2578 0.950 . S
C2590 C2589 1.396 . S
C2590 C2591 1.391 . S
C2591 H2579 0.950 . S
C2591 C2587 1.393 . S
C2591 C2590 1.391 . S
C687 C354 1.024 . S
C681 C11 1.046 . S
C701 C14 1.437 . S
C707 C374 1.500 . S
C727 C394 1.109 . S
C721 C37 1.180 . S
C747 C413 1.460 . S
C741 C47 1.438 . S
C767 C371 1.381 . S
C761 C61 1.337 . S
C781 C79 1.216 . S
C787 C396 1.175 . S
C807 C416 1.382 . S
C801 C84 1.352 . S
C821 C109 1.179 . S
C827 C352 1.072 . S
C841 C123 1.423 . S
C847 C349 1.350 . S
C867 C372 1.209 . S
C861 C131 1.258 . S
C887 C395 1.454 . S
C881 C140 1.358 . S
C907 C417 1.384 . S
C901 C163 1.431 . S
C927 C375 0.963 . S
C921 C121 1.002 . S
C947 C391 1.064 . S
C941 C126 1.179 . S
C961 C145 1.103 . S
C967 C414 1.058 . S
C987 C353 0.928 . S
C981 C165 0.927 . S
C1001 C168 1.321 . S
C1007 C350 1.371 . S
C1021 C193 0.864 . S
C1027 C433 0.825 . S
C1047 C455 1.370 . S
C1041 C205 1.336 . S
C1067 C478 1.124 . S
C1061 C215 1.260 . S
C1081 C224 1.354 . S
C1087 C351 1.346 . S
C1101 C247 1.460 . S
C1107 C393 1.420 . S
C1127 C475 1.118 . S
C1121 C207 1.296 . S
C1147 C436 0.972 . S
C1141 C257 1.028 . S
C1167 C501 0.990 . S
C1161 C23 1.029 . S
C1187 C521 1.499 . S
C1181 C0 1.476 . S
C1201 C53 1.007 . S
C1207 C543 0.964 . S
C1221 C33 1.222 . S
C1227 C560 1.225 . S
C1241 C103 1.649 . S
C1247 C518 1.645 . S
C1261 C95 1.074 . S
C1267 C541 0.937 . S
C1287 C563 1.224 . S
C1281 C70 1.186 . S
C1301 C65 1.270 . S
C1307 C499 1.116 . S
C1321 C271 1.129 . S
C1327 C496 1.014 . S
C1347 C519 1.430 . S
C1341 C219 1.498 . S
C1367 C538 1.167 . S
C1361 C235 1.288 . S
C1387 C564 1.232 . S
C1381 C182 1.281 . S
C1407 C522 0.976 . S
C1401 C266 1.022 . S
C1427 C542 0.886 . S
C1421 C221 0.875 . S
C1447 C561 0.891 . S
C1441 C233 0.920 . S
C1461 C187 1.337 . S
C1467 C500 1.352 . S
C1487 C497 1.358 . S
C1481 C289 1.319 . S
C1501 C154 1.204 . S
C1507 C580 1.070 . S
C1527 C603 1.290 . S
C1521 C299 1.345 . S
C1541 C137 1.242 . S
C1547 C625 1.054 . S
C1567 C498 1.315 . S
C1561 C149 1.355 . S
C1587 C539 1.328 . S
C1581 C313 1.320 . S
C1607 C622 0.958 . S
C1601 C294 1.081 . S
C1621 C333 0.883 . S
C1627 C583 0.797 . S
C1641 C39 1.018 . S
C1647 C648 0.981 . S
C1661 C42 1.448 . S
C1667 C437 1.504 . S
C1687 C457 1.135 . S
C1681 C9 1.197 1_655 S
C1701 C19 1.430 . S
C1707 C476 1.455 . S
C1721 C89 1.362 . S
C1727 C434 1.379 . S
C1741 C107 1.243 1_655 S
C1747 C459 1.209 . S
C1767 C479 1.373 . S
C1761 C56 1.318 . S
C1787 C646 1.071 . S
C1781 C81 1.177 . S
C1807 C643 1.346 . S
C1801 C305 1.424 . S
C1827 C435 1.204 . S
C1821 C285 1.255 . S
C1847 C458 1.454 . S
C1841 C322 1.358 . S
C1861 C317 1.438 . S
C1867 C480 1.396 . S
C1887 C438 0.994 . S
C1881 C303 1.033 . S
C1901 C280 1.151 . S
C1907 C454 1.095 . S
C1927 C477 1.066 . S
C1921 C327 1.109 . S
C1941 C319 0.888 . S
C1947 C647 0.930 . S
C1967 C644 1.375 . S
C1961 C210 1.316 . S
C1981 C249 0.900 . S
C1987 C370 0.800 . S
C2007 C392 1.376 . S
C2001 C275 1.343 . S
C2021 C173 1.268 . S
C2027 C415 1.118 . S
C2047 C645 1.347 . S
C2041 C252 1.358 . S
C2067 C456 1.426 . S
C2061 C191 1.460 . S
C2087 C412 1.118 . S
C2081 C277 1.297 . S
C2107 C373 0.974 . S
C2101 C229 1.035 . S
C2121 C51 1.041 . S
C2127 C669 1.008 . S
C2141 C28 1.480 . S
C2147 C584 1.498 . S
C2161 C25 1.004 . S
C2167 C606 0.960 . S
C2187 C623 1.211 . S
C2181 C5 1.203 . S
C2207 C581 1.639 . S
C2201 C75 1.640 . S
C2221 C67 1.095 . S
C2227 C604 0.993 . S
C2247 C626 1.250 . S
C2241 C98 1.215 . S
C2261 C93 1.261 . S
C2267 C667 1.129 . S
C2287 C664 1.006 . S
C2281 C201 1.127 . S
C2301 C177 1.487 . S
C2307 C582 1.415 . S
C2321 C263 1.272 . S
C2327 C601 1.137 . S
C2347 C627 1.221 . S
C2341 C238 1.267 . S
C2367 C585 0.977 . S
C2361 C196 1.006 . S
C2381 C179 0.870 . S
C2387 C605 0.878 . S
C2407 C624 0.927 . S
C2401 C261 0.951 . S
C2427 C668 1.352 . S
C2421 C243 1.337 . S
C2447 C665 1.347 . S
C2441 C135 1.323 . S
C2467 C517 1.018 . S
C2461 C308 1.175 . S
C2481 C117 1.343 . S
C2487 C540 1.277 . S
C2501 C291 1.253 . S
C2507 C562 1.075 . S
C2527 C666 1.313 . S
C2521 C331 1.352 . S
C2547 C602 1.342 . S
C2541 C159 1.332 . S
C2567 C559 0.920 . S
C2561 C112 1.062 . S
C2587 C520 0.839 . S
C2581 C151 0.910 . S
