# Generated by pormake.
# Topology gar, (4,6)-cn, num edge types: 1
# Building blocks:
#     Node 0, Type 0, BuildingBlock: GALJAG_clean_sbu_0, # of connection points: 4
#     Node 1, Type 0, BuildingBlock: GALJAG_clean_sbu_0, # of connection points: 4
#     Node 2, Type 0, BuildingBlock: GALJAG_clean_sbu_0, # of connection points: 4
#     Node 3, Type 0, BuildingBlock: GALJAG_clean_sbu_0, # of connection points: 4
#     Node 4, Type 0, BuildingBlock: GALJAG_clean_sbu_0, # of connection points: 4
#     Node 5, Type 0, BuildingBlock: GALJAG_clean_sbu_0, # of connection points: 4
#     Node 6, Type 0, BuildingBlock: GALJAG_clean_sbu_0, # of connection points: 4
#     Node 7, Type 0, BuildingBlock: GALJAG_clean_sbu_0, # of connection points: 4
#     Node 8, Type 0, BuildingBlock: GALJAG_clean_sbu_0, # of connection points: 4
#     Node 9, Type 0, BuildingBlock: GALJAG_clean_sbu_0, # of connection points: 4
#     Node 10, Type 0, BuildingBlock: GALJAG_clean_sbu_0, # of connection points: 4
#     Node 11, Type 0, BuildingBlock: GALJAG_clean_sbu_0, # of connection points: 4
#     Node 12, Type 0, BuildingBlock: GALJAG_clean_sbu_0, # of connection points: 4
#     Node 13, Type 0, BuildingBlock: GALJAG_clean_sbu_0, # of connection points: 4
#     Node 14, Type 0, BuildingBlock: GALJAG_clean_sbu_0, # of connection points: 4
#     Node 15, Type 0, BuildingBlock: GALJAG_clean_sbu_0, # of connection points: 4
#     Node 16, Type 0, BuildingBlock: GALJAG_clean_sbu_0, # of connection points: 4
#     Node 17, Type 0, BuildingBlock: GALJAG_clean_sbu_0, # of connection points: 4
#     Node 18, Type 0, BuildingBlock: GALJAG_clean_sbu_0, # of connection points: 4
#     Node 19, Type 0, BuildingBlock: GALJAG_clean_sbu_0, # of connection points: 4
#     Node 20, Type 0, BuildingBlock: GALJAG_clean_sbu_0, # of connection points: 4
#     Node 21, Type 0, BuildingBlock: GALJAG_clean_sbu_0, # of connection points: 4
#     Node 22, Type 0, BuildingBlock: GALJAG_clean_sbu_0, # of connection points: 4
#     Node 23, Type 0, BuildingBlock: GALJAG_clean_sbu_0, # of connection points: 4
#     Node 24, Type 1, BuildingBlock: PAMTOO_clean_sbu_0, # of connection points: 6
#     Node 25, Type 1, BuildingBlock: PAMTOO_clean_sbu_0, # of connection points: 6
#     Node 26, Type 1, BuildingBlock: PAMTOO_clean_sbu_0, # of connection points: 6
#     Node 27, Type 1, BuildingBlock: PAMTOO_clean_sbu_0, # of connection points: 6
#     Node 28, Type 1, BuildingBlock: PAMTOO_clean_sbu_0, # of connection points: 6
#     Node 29, Type 1, BuildingBlock: PAMTOO_clean_sbu_0, # of connection points: 6
#     Node 30, Type 1, BuildingBlock: PAMTOO_clean_sbu_0, # of connection points: 6
#     Node 31, Type 1, BuildingBlock: PAMTOO_clean_sbu_0, # of connection points: 6
#     Node 32, Type 1, BuildingBlock: PAMTOO_clean_sbu_0, # of connection points: 6
#     Node 33, Type 1, BuildingBlock: PAMTOO_clean_sbu_0, # of connection points: 6
#     Node 34, Type 1, BuildingBlock: PAMTOO_clean_sbu_0, # of connection points: 6
#     Node 35, Type 1, BuildingBlock: PAMTOO_clean_sbu_0, # of connection points: 6
#     Node 36, Type 1, BuildingBlock: PAMTOO_clean_sbu_0, # of connection points: 6
#     Node 37, Type 1, BuildingBlock: PAMTOO_clean_sbu_0, # of connection points: 6
#     Node 38, Type 1, BuildingBlock: PAMTOO_clean_sbu_0, # of connection points: 6
#     Node 39, Type 1, BuildingBlock: PAMTOO_clean_sbu_0, # of connection points: 6
#     Edge 40, Type (0, 1), BuildingBlock: UVAHIK_clean_linker_0, # of connection points: 2
#     Edge 41, Type (0, 1), BuildingBlock: UVAHIK_clean_linker_0, # of connection points: 2
#     Edge 42, Type (0, 1), BuildingBlock: UVAHIK_clean_linker_0, # of connection points: 2
#     Edge 43, Type (0, 1), BuildingBlock: UVAHIK_clean_linker_0, # of connection points: 2
#     Edge 44, Type (0, 1), BuildingBlock: UVAHIK_clean_linker_0, # of connection points: 2
#     Edge 45, Type (0, 1), BuildingBlock: UVAHIK_clean_linker_0, # of connection points: 2
#     Edge 46, Type (0, 1), BuildingBlock: UVAHIK_clean_linker_0, # of connection points: 2
#     Edge 47, Type (0, 1), BuildingBlock: UVAHIK_clean_linker_0, # of connection points: 2
#     Edge 48, Type (0, 1), BuildingBlock: UVAHIK_clean_linker_0, # of connection points: 2
#     Edge 49, Type (0, 1), BuildingBlock: UVAHIK_clean_linker_0, # of connection points: 2
#     Edge 50, Type (0, 1), BuildingBlock: UVAHIK_clean_linker_0, # of connection points: 2
#     Edge 51, Type (0, 1), BuildingBlock: UVAHIK_clean_linker_0, # of connection points: 2
#     Edge 52, Type (0, 1), BuildingBlock: UVAHIK_clean_linker_0, # of connection points: 2
#     Edge 53, Type (0, 1), BuildingBlock: UVAHIK_clean_linker_0, # of connection points: 2
#     Edge 54, Type (0, 1), BuildingBlock: UVAHIK_clean_linker_0, # of connection points: 2
#     Edge 55, Type (0, 1), BuildingBlock: UVAHIK_clean_linker_0, # of connection points: 2
#     Edge 56, Type (0, 1), BuildingBlock: UVAHIK_clean_linker_0, # of connection points: 2
#     Edge 57, Type (0, 1), BuildingBlock: UVAHIK_clean_linker_0, # of connection points: 2
#     Edge 58, Type (0, 1), BuildingBlock: UVAHIK_clean_linker_0, # of connection points: 2
#     Edge 59, Type (0, 1), BuildingBlock: UVAHIK_clean_linker_0, # of connection points: 2
#     Edge 60, Type (0, 1), BuildingBlock: UVAHIK_clean_linker_0, # of connection points: 2
#     Edge 61, Type (0, 1), BuildingBlock: UVAHIK_clean_linker_0, # of connection points: 2
#     Edge 62, Type (0, 1), BuildingBlock: UVAHIK_clean_linker_0, # of connection points: 2
#     Edge 63, Type (0, 1), BuildingBlock: UVAHIK_clean_linker_0, # of connection points: 2
#     Edge 64, Type (0, 1), BuildingBlock: UVAHIK_clean_linker_0, # of connection points: 2
#     Edge 65, Type (0, 1), BuildingBlock: UVAHIK_clean_linker_0, # of connection points: 2
#     Edge 66, Type (0, 1), BuildingBlock: UVAHIK_clean_linker_0, # of connection points: 2
#     Edge 67, Type (0, 1), BuildingBlock: UVAHIK_clean_linker_0, # of connection points: 2
#     Edge 68, Type (0, 1), BuildingBlock: UVAHIK_clean_linker_0, # of connection points: 2
#     Edge 69, Type (0, 1), BuildingBlock: UVAHIK_clean_linker_0, # of connection points: 2
#     Edge 70, Type (0, 1), BuildingBlock: UVAHIK_clean_linker_0, # of connection points: 2
#     Edge 71, Type (0, 1), BuildingBlock: UVAHIK_clean_linker_0, # of connection points: 2
#     Edge 72, Type (0, 1), BuildingBlock: UVAHIK_clean_linker_0, # of connection points: 2
#     Edge 73, Type (0, 1), BuildingBlock: UVAHIK_clean_linker_0, # of connection points: 2
#     Edge 74, Type (0, 1), BuildingBlock: UVAHIK_clean_linker_0, # of connection points: 2
#     Edge 75, Type (0, 1), BuildingBlock: UVAHIK_clean_linker_0, # of connection points: 2
#     Edge 76, Type (0, 1), BuildingBlock: UVAHIK_clean_linker_0, # of connection points: 2
#     Edge 77, Type (0, 1), BuildingBlock: UVAHIK_clean_linker_0, # of connection points: 2
#     Edge 78, Type (0, 1), BuildingBlock: UVAHIK_clean_linker_0, # of connection points: 2
#     Edge 79, Type (0, 1), BuildingBlock: UVAHIK_clean_linker_0, # of connection points: 2
#     Edge 80, Type (0, 1), BuildingBlock: UVAHIK_clean_linker_0, # of connection points: 2
#     Edge 81, Type (0, 1), BuildingBlock: UVAHIK_clean_linker_0, # of connection points: 2
#     Edge 82, Type (0, 1), BuildingBlock: UVAHIK_clean_linker_0, # of connection points: 2
#     Edge 83, Type (0, 1), BuildingBlock: UVAHIK_clean_linker_0, # of connection points: 2
#     Edge 84, Type (0, 1), BuildingBlock: UVAHIK_clean_linker_0, # of connection points: 2
#     Edge 85, Type (0, 1), BuildingBlock: UVAHIK_clean_linker_0, # of connection points: 2
#     Edge 86, Type (0, 1), BuildingBlock: UVAHIK_clean_linker_0, # of connection points: 2
#     Edge 87, Type (0, 1), BuildingBlock: UVAHIK_clean_linker_0, # of connection points: 2
#     Edge 88, Type (0, 1), BuildingBlock: UVAHIK_clean_linker_0, # of connection points: 2
#     Edge 89, Type (0, 1), BuildingBlock: UVAHIK_clean_linker_0, # of connection points: 2
#     Edge 90, Type (0, 1), BuildingBlock: UVAHIK_clean_linker_0, # of connection points: 2
#     Edge 91, Type (0, 1), BuildingBlock: UVAHIK_clean_linker_0, # of connection points: 2
#     Edge 92, Type (0, 1), BuildingBlock: UVAHIK_clean_linker_0, # of connection points: 2
#     Edge 93, Type (0, 1), BuildingBlock: UVAHIK_clean_linker_0, # of connection points: 2
#     Edge 94, Type (0, 1), BuildingBlock: UVAHIK_clean_linker_0, # of connection points: 2
#     Edge 95, Type (0, 1), BuildingBlock: UVAHIK_clean_linker_0, # of connection points: 2
#     Edge 96, Type (0, 1), BuildingBlock: UVAHIK_clean_linker_0, # of connection points: 2
#     Edge 97, Type (0, 1), BuildingBlock: UVAHIK_clean_linker_0, # of connection points: 2
#     Edge 98, Type (0, 1), BuildingBlock: UVAHIK_clean_linker_0, # of connection points: 2
#     Edge 99, Type (0, 1), BuildingBlock: UVAHIK_clean_linker_0, # of connection points: 2
#     Edge 100, Type (0, 1), BuildingBlock: UVAHIK_clean_linker_0, # of connection points: 2
#     Edge 101, Type (0, 1), BuildingBlock: UVAHIK_clean_linker_0, # of connection points: 2
#     Edge 102, Type (0, 1), BuildingBlock: UVAHIK_clean_linker_0, # of connection points: 2
#     Edge 103, Type (0, 1), BuildingBlock: UVAHIK_clean_linker_0, # of connection points: 2
#     Edge 104, Type (0, 1), BuildingBlock: UVAHIK_clean_linker_0, # of connection points: 2
#     Edge 105, Type (0, 1), BuildingBlock: UVAHIK_clean_linker_0, # of connection points: 2
#     Edge 106, Type (0, 1), BuildingBlock: UVAHIK_clean_linker_0, # of connection points: 2
#     Edge 107, Type (0, 1), BuildingBlock: UVAHIK_clean_linker_0, # of connection points: 2
#     Edge 108, Type (0, 1), BuildingBlock: UVAHIK_clean_linker_0, # of connection points: 2
#     Edge 109, Type (0, 1), BuildingBlock: UVAHIK_clean_linker_0, # of connection points: 2
#     Edge 110, Type (0, 1), BuildingBlock: UVAHIK_clean_linker_0, # of connection points: 2
#     Edge 111, Type (0, 1), BuildingBlock: UVAHIK_clean_linker_0, # of connection points: 2
#     Edge 112, Type (0, 1), BuildingBlock: UVAHIK_clean_linker_0, # of connection points: 2
#     Edge 113, Type (0, 1), BuildingBlock: UVAHIK_clean_linker_0, # of connection points: 2
#     Edge 114, Type (0, 1), BuildingBlock: UVAHIK_clean_linker_0, # of connection points: 2
#     Edge 115, Type (0, 1), BuildingBlock: UVAHIK_clean_linker_0, # of connection points: 2
#     Edge 116, Type (0, 1), BuildingBlock: UVAHIK_clean_linker_0, # of connection points: 2
#     Edge 117, Type (0, 1), BuildingBlock: UVAHIK_clean_linker_0, # of connection points: 2
#     Edge 118, Type (0, 1), BuildingBlock: UVAHIK_clean_linker_0, # of connection points: 2
#     Edge 119, Type (0, 1), BuildingBlock: UVAHIK_clean_linker_0, # of connection points: 2
#     Edge 120, Type (0, 1), BuildingBlock: UVAHIK_clean_linker_0, # of connection points: 2
#     Edge 121, Type (0, 1), BuildingBlock: UVAHIK_clean_linker_0, # of connection points: 2
#     Edge 122, Type (0, 1), BuildingBlock: UVAHIK_clean_linker_0, # of connection points: 2
#     Edge 123, Type (0, 1), BuildingBlock: UVAHIK_clean_linker_0, # of connection points: 2
#     Edge 124, Type (0, 1), BuildingBlock: UVAHIK_clean_linker_0, # of connection points: 2
#     Edge 125, Type (0, 1), BuildingBlock: UVAHIK_clean_linker_0, # of connection points: 2
#     Edge 126, Type (0, 1), BuildingBlock: UVAHIK_clean_linker_0, # of connection points: 2
#     Edge 127, Type (0, 1), BuildingBlock: UVAHIK_clean_linker_0, # of connection points: 2
#     Edge 128, Type (0, 1), BuildingBlock: UVAHIK_clean_linker_0, # of connection points: 2
#     Edge 129, Type (0, 1), BuildingBlock: UVAHIK_clean_linker_0, # of connection points: 2
#     Edge 130, Type (0, 1), BuildingBlock: UVAHIK_clean_linker_0, # of connection points: 2
#     Edge 131, Type (0, 1), BuildingBlock: UVAHIK_clean_linker_0, # of connection points: 2
#     Edge 132, Type (0, 1), BuildingBlock: UVAHIK_clean_linker_0, # of connection points: 2
#     Edge 133, Type (0, 1), BuildingBlock: UVAHIK_clean_linker_0, # of connection points: 2
#     Edge 134, Type (0, 1), BuildingBlock: UVAHIK_clean_linker_0, # of connection points: 2
#     Edge 135, Type (0, 1), BuildingBlock: UVAHIK_clean_linker_0, # of connection points: 2
# Relax obj value: 0.142
# Max RMSD: 0.261
# Mean RMSD: 0.170
data_MOF--net-gar--node1-GALJAG_clean_sbu_0--node2-PAMTOO_clean_sbu_0--edge1-UVAHIK_clean_linker_0
_symmetry_space_group_name_H-M    P1
_symmetry_Int_Tables_number       1
_symmetry_cell_setting            triclinic
loop_
_symmetry_equiv_pos_as_xyz
'x, y, z'
_cell_length_a     75.430517
_cell_length_b     75.465811
_cell_length_c     73.25974
_cell_angle_alpha  96.093813
_cell_angle_beta   95.289064
_cell_angle_gamma 104.21401
loop_
_atom_site_label
_atom_site_type_symbol
_atom_site_fract_x
_atom_site_fract_y
_atom_site_fract_z
_atom_type_partial_charge
In0 In 0.0412 0.30597 0.35924 0.0
O1 O 0.05791 0.30161 0.33463 0.0
O2 O 0.07271 0.31104 0.36118 0.0
C3 C 0.00624 0.29974 0.34144 0.0
C4 C 0.03813 0.27673 0.37849 0.0
C5 C 0.04426 0.34012 0.37777 0.0
O6 O 0.02042 0.30607 0.33381 0.0
O7 O 0.00977 0.29613 0.35757 0.0
O8 O 0.04619 0.32656 0.38564 0.0
O9 O 0.04139 0.33676 0.36035 0.0
C10 C 0.07346 0.30622 0.34434 0.0
O11 O 0.04116 0.29318 0.38604 0.0
O12 O 0.03657 0.27484 0.36101 0.0
In13 In 0.01428 0.75661 0.67841 0.0
O14 O 0.00789 0.7707 0.65342 0.0
O15 O 0.02212 0.78801 0.67772 0.0
C16 C 0.01021 0.72321 0.65812 0.0
C17 C 0.04991 0.76091 0.69347 0.0
C18 C 0.98333 0.75551 0.69582 0.0
O19 O 0.01147 0.73797 0.65115 0.0
O20 O 0.01061 0.72508 0.67552 0.0
O21 O 0.99944 0.76195 0.7042 0.0
O22 O 0.98296 0.7493 0.6791 0.0
C23 C 0.01531 0.78692 0.66111 0.0
O24 O 0.03652 0.75721 0.70288 0.0
O25 O 0.04527 0.76269 0.67693 0.0
In26 In 0.5425 0.80639 0.86145 0.0
O27 O 0.55809 0.79772 0.83742 0.0
O28 O 0.57376 0.81603 0.86028 0.0
C29 C 0.50704 0.80155 0.84565 0.0
C30 C 0.54075 0.77797 0.88181 0.0
C31 C 0.54628 0.84104 0.87854 0.0
O32 O 0.52035 0.80293 0.83609 0.0
O33 O 0.51162 0.80215 0.86273 0.0
O34 O 0.54815 0.82781 0.88709 0.0
O35 O 0.54313 0.83701 0.86114 0.0
C36 C 0.57391 0.80682 0.84494 0.0
O37 O 0.54621 0.79469 0.8887 0.0
O38 O 0.53622 0.77545 0.86453 0.0
In39 In 0.51261 0.25544 0.17663 0.0
O40 O 0.5092 0.23646 0.14956 0.0
O41 O 0.50674 0.22365 0.17395 0.0
C42 C 0.51623 0.28608 0.15939 0.0
C43 C 0.4809 0.25435 0.19273 0.0
C44 C 0.54815 0.25983 0.19207 0.0
O45 O 0.50874 0.27001 0.15136 0.0
O46 O 0.52198 0.28686 0.17627 0.0
O47 O 0.53604 0.26384 0.20144 0.0
O48 O 0.54225 0.25367 0.17538 0.0
C49 C 0.50675 0.22163 0.15659 0.0
O50 O 0.49565 0.2534 0.20186 0.0
O51 O 0.48226 0.2556 0.1759 0.0
In52 In 0.05555 0.80626 0.12102 0.0
O53 O 0.05905 0.78467 0.09731 0.0
O54 O 0.04405 0.77493 0.11879 0.0
C55 C 0.0566 0.83744 0.10418 0.0
C56 C 0.02592 0.80569 0.13966 0.0
C57 C 0.08828 0.80914 0.14184 0.0
O58 O 0.04846 0.82141 0.09629 0.0
O59 O 0.06453 0.83765 0.12014 0.0
O60 O 0.07331 0.80808 0.14856 0.0
O61 O 0.08694 0.80912 0.12452 0.0
C62 C 0.05035 0.77082 0.10405 0.0
O63 O 0.04232 0.81071 0.14742 0.0
O64 O 0.02438 0.80119 0.12236 0.0
In65 In 0.50005 0.7731 0.43918 0.0
O66 O 0.51279 0.76511 0.4132 0.0
O67 O 0.53068 0.78248 0.43555 0.0
C68 C 0.46696 0.76953 0.41906 0.0
C69 C 0.49976 0.74281 0.45741 0.0
C70 C 0.50422 0.80864 0.45519 0.0
O71 O 0.48092 0.76707 0.4119 0.0
O72 O 0.46947 0.77322 0.4365 0.0
O73 O 0.50089 0.79513 0.46438 0.0
O74 O 0.50568 0.80415 0.43845 0.0
C75 C 0.52902 0.77418 0.41937 0.0
O76 O 0.4874 0.74324 0.44479 0.0
O77 O 0.51189 0.75792 0.46156 0.0
In78 In 0.55724 0.30615 0.62125 0.0
O79 O 0.56111 0.28436 0.59794 0.0
O80 O 0.54579 0.27479 0.6193 0.0
C81 C 0.55794 0.33698 0.60371 0.0
C82 C 0.52758 0.30441 0.64014 0.0
C83 C 0.59003 0.31004 0.64244 0.0
O84 O 0.54945 0.32086 0.59636 0.0
O85 O 0.56652 0.33744 0.61941 0.0
O86 O 0.57595 0.31304 0.64888 0.0
O87 O 0.58784 0.30554 0.62511 0.0
C88 C 0.55232 0.27057 0.60471 0.0
O89 O 0.54392 0.3081 0.64794 0.0
O90 O 0.5261 0.3017 0.62268 0.0
In91 In 1.00157 0.27484 0.94116 0.0
O92 O 0.006 0.25818 0.96556 0.0
O93 O 0.99602 0.2433 0.93906 0.0
C94 C 0.00731 0.30889 0.96154 0.0
C95 C 0.0297 0.27597 0.92038 0.0
C96 C 0.96924 0.27471 0.92115 0.0
O97 O 0.99373 0.29559 0.96268 0.0
O98 O 0.01841 0.30474 0.95105 0.0
O99 O 0.98478 0.28038 0.91571 0.0
O100 O 0.96988 0.26862 0.93653 0.0
C101 C 1.00107 0.24257 0.95577 0.0
O102 O 0.01297 0.27128 0.91349 0.0
O103 O 0.03226 0.28006 0.93778 0.0
In104 In 0.40302 0.05512 0.30028 0.0
O105 O 0.42341 0.06688 0.2809 0.0
O106 O 0.40299 0.04182 0.27108 0.0
C107 C 0.42718 0.07251 0.33006 0.0
C108 C 0.37438 0.06917 0.29122 0.0
C109 C 0.39268 0.02026 0.30816 0.0
O110 O 0.43148 0.06335 0.3166 0.0
O111 O 0.41061 0.07324 0.32849 0.0
O112 O 0.38602 0.03289 0.31493 0.0
O113 O 0.40494 0.02534 0.29786 0.0
C114 C 0.41684 0.05385 0.26789 0.0
O115 O 0.37265 0.05437 0.29814 0.0
O116 O 0.39068 0.07724 0.28921 0.0
In117 In 0.28119 0.19331 0.51893 0.0
O118 O 0.2757 0.21781 0.53719 0.0
O119 O 0.29152 0.20171 0.54963 0.0
C120 C 0.28392 0.20605 0.48571 0.0
C121 C 0.30775 0.17498 0.51923 0.0
C122 C 0.24692 0.17177 0.51931 0.0
O123 O 0.29198 0.21582 0.50065 0.0
O124 O 0.27468 0.19019 0.48766 0.0
O125 O 0.26126 0.16708 0.52469 0.0
O126 O 0.24984 0.18744 0.51389 0.0
C127 C 0.28416 0.21493 0.55181 0.0
O128 O 0.2908 0.16704 0.51557 0.0
O129 O 0.31145 0.19237 0.52248 0.0
In130 In 0.13413 0.03792 0.78512 0.0
O131 O 0.1088 0.02687 0.76298 0.0
O132 O 0.12954 0.04999 0.75842 0.0
C133 C 0.12018 0.03341 0.81764 0.0
C134 C 0.15079 0.01087 0.77605 0.0
C135 C 0.15576 0.07231 0.79505 0.0
O136 O 0.11063 0.0356 0.80338 0.0
O137 O 0.13645 0.03315 0.81533 0.0
O138 O 0.16215 0.05836 0.7929 0.0
O139 O 0.13839 0.06889 0.79237 0.0
C140 C 0.11431 0.03873 0.75244 0.0
O141 O 0.15837 0.02773 0.7761 0.0
O142 O 0.13458 0.00752 0.78032 0.0
In143 In 0.25141 0.90346 0.99425 0.0
O144 O 0.25935 0.87903 0.00541 0.0
O145 O 0.24857 0.89662 0.02343 0.0
C146 C 0.23408 0.88588 0.96094 0.0
C147 C 0.23329 0.92702 0.00863 0.0
C148 C 0.28667 0.91978 0.99053 0.0
O149 O 0.23211 0.87873 0.97562 0.0
O150 O 0.24436 0.90202 0.96315 0.0
O151 O 0.27367 0.92708 0.98672 0.0
O152 O 0.28184 0.90423 0.996 0.0
C153 C 0.2549 0.88266 0.0213 0.0
O154 O 0.25045 0.93148 0.00808 0.0
O155 O 0.22513 0.9107 0.00161 0.0
In156 In 0.28062 0.39206 0.03953 0.0
O157 O 0.27885 0.36686 0.0553 0.0
O158 O 0.2753 0.39135 0.0696 0.0
C159 C 0.28069 0.37439 0.00528 0.0
C160 C 0.2534 0.40951 0.03552 0.0
C161 C 0.31532 0.41378 0.04611 0.0
O162 O 0.2694 0.36778 0.01608 0.0
O163 O 0.29166 0.38971 0.01174 0.0
O164 O 0.30155 0.41977 0.0416 0.0
O165 O 0.31162 0.39672 0.04738 0.0
C166 C 0.27606 0.37498 0.07031 0.0
O167 O 0.26877 0.41679 0.04497 0.0
O168 O 0.2516 0.39325 0.02791 0.0
In169 In 0.77718 0.13967 0.03111 0.0
O170 O 0.79472 0.12161 0.04162 0.0
O171 O 0.79485 0.12613 0.01347 0.0
C172 C 0.74541 0.11332 0.02672 0.0
C173 C 0.78692 0.16318 0.06264 0.0
C174 C 0.77135 0.16499 0.00973 0.0
O175 O 0.75343 0.11882 0.01318 0.0
O176 O 0.75365 0.1209 0.04244 0.0
O177 O 0.78681 0.16136 0.01212 0.0
O178 O 0.75892 0.15549 0.01761 0.0
C179 C 0.80043 0.11822 0.02633 0.0
O180 O 0.77166 0.15126 0.05906 0.0
O181 O 0.79777 0.1628 0.05056 0.0
In182 In 0.16806 0.52654 0.25289 0.0
O183 O 0.19486 0.51866 0.24932 0.0
O184 O 0.17626 0.50282 0.26515 0.0
C185 C 0.18746 0.56208 0.25791 0.0
C186 C 0.14845 0.51035 0.22023 0.0
C187 C 0.14434 0.53113 0.27698 0.0
O188 O 0.18804 0.55152 0.27003 0.0
O189 O 0.17727 0.55465 0.24307 0.0
O190 O 0.14309 0.53595 0.26104 0.0
O191 O 0.15726 0.52363 0.28054 0.0
C192 C 0.19164 0.50567 0.25901 0.0
O193 O 0.14348 0.50596 0.23546 0.0
O194 O 0.16349 0.52251 0.22152 0.0
In195 In 0.78112 0.89018 0.54135 0.0
O196 O 0.78048 0.86479 0.55656 0.0
O197 O 0.77381 0.88776 0.57065 0.0
C198 C 0.78157 0.8723 0.50738 0.0
C199 C 0.75396 0.90764 0.53719 0.0
C200 C 0.8153 0.91304 0.54839 0.0
O201 O 0.7693 0.86649 0.51752 0.0
O202 O 0.79338 0.88693 0.51437 0.0
O203 O 0.80136 0.91827 0.54273 0.0
O204 O 0.81202 0.89622 0.5506 0.0
C205 C 0.77599 0.87184 0.57125 0.0
O206 O 0.76846 0.91409 0.54831 0.0
O207 O 0.75302 0.89223 0.52804 0.0
In208 In 0.93808 0.03839 0.26758 0.0
O209 O 0.96158 0.04928 0.25046 0.0
O210 O 0.93689 0.03104 0.23653 0.0
C211 C 0.95878 0.0417 0.30074 0.0
C212 C 0.9193 0.06446 0.26577 0.0
C213 C 0.91561 0.00458 0.26784 0.0
O214 O 0.96138 0.03223 0.28647 0.0
O215 O 0.94636 0.04996 0.29806 0.0
O216 O 0.91177 0.01924 0.27405 0.0
O217 O 0.93094 0.00692 0.26157 0.0
C218 C 0.95279 0.04073 0.23528 0.0
O219 O 0.9116 0.04743 0.26382 0.0
O220 O 0.9367 0.06852 0.26855 0.0
In221 In 0.28122 0.64745 0.53157 0.0
O222 O 0.29512 0.62521 0.5388 0.0
O223 O 0.29639 0.63302 0.5118 0.0
C224 C 0.24707 0.62483 0.52757 0.0
C225 C 0.29065 0.66873 0.56454 0.0
C226 C 0.28478 0.67541 0.51121 0.0
O227 O 0.25514 0.63006 0.51401 0.0
O228 O 0.25632 0.63085 0.5432 0.0
O229 O 0.2694 0.66537 0.51367 0.0
O230 O 0.29861 0.67093 0.51849 0.0
C231 C 0.30042 0.62271 0.52312 0.0
O232 O 0.27556 0.66685 0.55467 0.0
O233 O 0.30099 0.65943 0.55804 0.0
In234 In 0.43451 0.53639 0.76796 0.0
O235 O 0.41093 0.54833 0.75839 0.0
O236 O 0.43377 0.5665 0.77551 0.0
C237 C 0.41116 0.50277 0.76584 0.0
C238 C 0.45141 0.53819 0.73688 0.0
C239 C 0.45227 0.53697 0.80198 0.0
O240 O 0.40616 0.5175 0.76859 0.0
O241 O 0.42806 0.50495 0.76414 0.0
O242 O 0.46032 0.53657 0.78762 0.0
O243 O 0.43571 0.5375 0.79911 0.0
C244 C 0.41806 0.56436 0.76667 0.0
O245 O 0.45791 0.54925 0.75148 0.0
O246 O 0.43682 0.52623 0.7382 0.0
In247 In 0.6706 0.03272 0.75461 0.0
O248 O 0.69681 0.02311 0.75294 0.0
O249 O 0.67753 0.01009 0.76988 0.0
C250 C 0.68659 0.06891 0.75618 0.0
C251 C 0.6539 0.01837 0.72026 0.0
C252 C 0.64887 0.03656 0.781 0.0
O253 O 0.69572 0.05735 0.75917 0.0
O254 O 0.66949 0.06213 0.75193 0.0
O255 O 0.64241 0.02997 0.76448 0.0
O256 O 0.66621 0.04065 0.78425 0.0
C257 C 0.69291 0.01141 0.76397 0.0
O258 O 0.64944 0.01087 0.73432 0.0
O259 O 0.66704 0.03273 0.72354 0.0
In260 In 0.78236 0.6948 0.02073 0.0
O261 O 0.79453 0.67085 0.01225 0.0
O262 O 0.81245 0.69462 0.0284 0.0
C263 C 0.74851 0.6721 0.01996 0.0
C264 C 0.78328 0.71406 0.05434 0.0
C265 C 0.78417 0.70996 0.9888 0.0
O266 O 0.76305 0.66682 0.0227 0.0
O267 O 0.75106 0.68884 0.01768 0.0
O268 O 0.79459 0.7177 0.00344 0.0
O269 O 0.77303 0.69495 0.99045 0.0
C270 C 0.81048 0.67849 0.02037 0.0
O271 O 0.78015 0.72053 0.03951 0.0
O272 O 0.78637 0.69836 0.05208 0.0
In273 In 0.90749 0.5611 0.79202 0.0
O274 O 0.87806 0.56186 0.78324 0.0
O275 O 0.89913 0.58601 0.7821 0.0
C276 C 0.89265 0.52576 0.79635 0.0
C277 C 0.92765 0.56108 0.76375 0.0
C278 C 0.92859 0.57365 0.82485 0.0
O279 O 0.88878 0.53903 0.80571 0.0
O280 O 0.90421 0.53039 0.78524 0.0
O281 O 0.93393 0.56572 0.81123 0.0
O282 O 0.91251 0.57569 0.82192 0.0
C283 C 0.88219 0.57798 0.77908 0.0
O284 O 0.93194 0.57382 0.77728 0.0
O285 O 0.913 0.54884 0.76435 0.0
In286 In 0.7555 0.40038 0.50315 0.0
O287 O 0.74673 0.37383 0.51578 0.0
O288 O 0.75433 0.39935 0.53374 0.0
C289 C 0.75435 0.37619 0.47306 0.0
C290 C 0.73175 0.42172 0.50133 0.0
C291 C 0.78993 0.42275 0.51006 0.0
O292 O 0.74044 0.38178 0.47664 0.0
O293 O 0.76852 0.38284 0.48452 0.0
O294 O 0.7781 0.42482 0.49772 0.0
O295 O 0.78433 0.40955 0.51904 0.0
C296 C 0.74908 0.38196 0.53214 0.0
O297 O 0.74526 0.42367 0.49214 0.0
O298 O 0.72973 0.40844 0.51069 0.0
In299 In 0.63347 0.53879 0.28671 0.0
O300 O 0.65903 0.52924 0.28105 0.0
O301 O 0.63407 0.50855 0.28014 0.0
C302 C 0.65355 0.57394 0.29576 0.0
C303 C 0.61442 0.53876 0.25339 0.0
C304 C 0.61889 0.5338 0.31885 0.0
O305 O 0.66077 0.56056 0.2936 0.0
O306 O 0.63613 0.56955 0.29361 0.0
O307 O 0.60956 0.53589 0.30441 0.0
O308 O 0.63534 0.5339 0.31695 0.0
C309 C 0.65106 0.51228 0.2786 0.0
O310 O 0.60841 0.52752 0.26435 0.0
O311 O 0.62982 0.5498 0.25923 0.0
Dy312 Dy 0.05424 0.0524 0.03672 0.0
Dy313 Dy 0.01474 0.02804 0.01487 0.0
C314 C 0.05102 0.03558 0.9946 0.0
O315 O 0.04339 0.07145 0.01993 0.0
O316 O 0.01251 0.0575 0.01758 0.0
O317 O 0.08145 0.0704 0.03707 0.0
O318 O 0.07119 0.06353 0.06269 0.0
O319 O 0.01062 0.03133 0.04463 0.0
O320 O 0.03281 0.05824 0.05387 0.0
O321 O 0.03145 0.00771 0.01975 0.0
O322 O 0.0505 0.02406 0.04524 0.0
O323 O 0.99218 0.00358 0.01174 0.0
O324 O 0.99303 0.02319 0.99213 0.0
C325 C 0.02613 0.07196 0.01636 0.0
O326 O 0.06117 0.03839 0.01073 0.0
O327 O 0.03338 0.03467 0.99344 0.0
C328 C 0.10286 0.06627 0.06101 0.0
C329 C 0.13316 0.05184 0.06982 0.0
C330 C 0.13199 0.06066 0.05395 0.0
C331 C 0.117 0.06785 0.04961 0.0
C332 C 0.10487 0.05892 0.07772 0.0
C333 C 0.11986 0.05172 0.08204 0.0
C334 C 0.08554 0.07092 0.05486 0.0
C335 C 0.01814 0.04588 0.05682 0.0
C336 C 0.04246 0.00825 0.03492 0.0
C337 C 0.96414 0.00837 0.99964 0.0
C338 C 0.92798 0.01128 0.00183 0.0
C339 C 0.94159 0.01791 0.01713 0.0
C340 C 0.95954 0.01653 0.01602 0.0
C341 C 0.95053 1.00117 0.98455 0.0
C342 C 0.93254 0.00263 0.98561 0.0
C343 C 0.98331 0.00852 0.99787 0.0
H344 H 0.14196 0.06089 0.04419 0.0
H345 H 0.11602 0.07377 0.03683 0.0
H346 H 0.09443 0.05791 0.08704 0.0
H347 H 0.12059 0.04527 0.09452 0.0
H348 H 0.93858 0.02496 0.02968 0.0
H349 H 0.96996 0.02234 0.02775 0.0
H350 H 0.95394 0.99488 0.9718 0.0
H351 H 0.92229 0.99738 0.97365 0.0
Dy352 Dy 0.28858 0.78893 0.26377 0.0
Dy353 Dy 0.26876 0.79862 0.30009 0.0
C354 C 0.29467 0.83011 0.28282 0.0
O355 O 0.30342 0.77924 0.28702 0.0
O356 O 0.29763 0.7986 0.31071 0.0
O357 O 0.31256 0.79213 0.2492 0.0
O358 O 0.28674 0.77318 0.237 0.0
O359 O 0.26659 0.76842 0.29782 0.0
O360 O 0.26647 0.76416 0.26653 0.0
O361 O 0.24729 0.79459 0.27567 0.0
O362 O 0.26643 0.8018 0.25344 0.0
O363 O 0.24742 0.79195 0.31791 0.0
O364 O 0.2682 0.818 0.32371 0.0
C365 C 0.30728 0.78757 0.30414 0.0
O366 O 0.30269 0.81795 0.2756 0.0
O367 O 0.27856 0.82495 0.28868 0.0
C368 C 0.30431 0.79004 0.21712 0.0
C369 C 0.30015 0.80441 0.1836 0.0
C370 C 0.30213 0.81572 0.20058 0.0
C371 C 0.30405 0.80857 0.21719 0.0
C372 C 0.30323 0.77892 0.20027 0.0
C373 C 0.30119 0.78605 0.18359 0.0
C374 C 0.3033 0.78176 0.2343 0.0
C375 C 0.26287 0.7576 0.282 0.0
C376 C 0.25005 0.79929 0.25915 0.0
C377 C 0.25933 0.80304 0.34882 0.0
C378 C 0.26902 0.79693 0.38512 0.0
C379 C 0.27837 0.79151 0.37066 0.0
C380 C 0.27352 0.79449 0.35267 0.0
C381 C 0.24998 0.80858 0.36314 0.0
C382 C 0.25473 0.80546 0.38122 0.0
C383 C 0.25493 0.80655 0.32991 0.0
H384 H 0.3017 0.83 0.20103 0.0
H385 H 0.30467 0.81734 0.23007 0.0
H386 H 0.30319 0.76452 0.20001 0.0
H387 H 0.29954 0.77697 0.17073 0.0
H388 H 0.28915 0.78455 0.37316 0.0
H389 H 0.28081 0.79005 0.34172 0.0
H390 H 0.23905 0.81528 0.36033 0.0
H391 H 0.24731 0.80974 0.39213 0.0
Dy392 Dy 0.50942 0.03607 0.53685 0.0
Dy393 Dy 0.55066 0.04372 0.52251 0.0
C394 C 0.51663 0.05038 0.49827 0.0
O395 O 0.50995 0.00964 0.51956 0.0
O396 O 0.54118 0.01309 0.52175 0.0
O397 O 0.47998 0.02571 0.53006 0.0
O398 O 0.49158 0.03822 0.55798 0.0
O399 O 0.55484 0.03894 0.55182 0.0
O400 O 0.52551 0.02357 0.55651 0.0
O401 O 0.5461 0.07187 0.52965 0.0
O402 O 0.52486 0.06465 0.54997 0.0
O403 O 0.5797 0.05749 0.52631 0.0
O404 O 0.5677 0.03836 0.50152 0.0
C405 C 0.52422 0.00264 0.51805 0.0
O406 O 0.50868 0.05229 0.51324 0.0
O407 O 0.53063 0.04301 0.49805 0.0
C408 C 0.46402 0.04423 0.54582 0.0
C409 C 0.43925 0.06667 0.54324 0.0
C410 C 0.45709 0.07253 0.53816 0.0
C411 C 0.46936 0.06141 0.53945 0.0
C412 C 0.44638 0.03838 0.55112 0.0
C413 C 0.43408 0.04951 0.54987 0.0
C414 C 0.47663 0.0322 0.54624 0.0
C415 C 0.54343 0.02835 0.56106 0.0
C416 C 0.53679 0.07693 0.54272 0.0
C417 C 0.59726 0.03801 0.51425 0.0
C418 C 0.6228 0.01651 0.51786 0.0
C419 C 0.61283 0.01998 0.53254 0.0
C420 C 0.60008 0.03053 0.53071 0.0
C421 C 0.60737 0.03481 0.49969 0.0
C422 C 0.62001 0.0241 0.50145 0.0
C423 C 0.58285 0.0479 0.51162 0.0
H424 H 0.46145 0.08552 0.53277 0.0
H425 H 0.48294 0.06609 0.53522 0.0
H426 H 0.44206 0.02514 0.55607 0.0
H427 H 0.42055 0.0447 0.55413 0.0
H428 H 0.61453 0.01412 0.54526 0.0
H429 H 0.5922 0.03257 0.54204 0.0
H430 H 0.60525 0.04032 0.48683 0.0
H431 H 0.6276 0.02176 0.48997 0.0
Dy432 Dy 0.29826 0.28407 0.7813 0.0
Dy433 Dy 0.25732 0.29358 0.7764 0.0
C434 C 0.29441 0.32242 0.77052 0.0
O435 O 0.29557 0.30006 0.80811 0.0
O436 O 0.26407 0.29218 0.80638 0.0
O437 O 0.32753 0.29337 0.79015 0.0
O438 O 0.31551 0.26526 0.77729 0.0
O439 O 0.25212 0.26331 0.77724 0.0
O440 O 0.27935 0.26178 0.79313 0.0
O441 O 0.2648 0.28987 0.74755 0.0
O442 O 0.2846 0.27168 0.7529 0.0
O443 O 0.22831 0.28654 0.76581 0.0
O444 O 0.24079 0.3124 0.78328 0.0
C445 C 0.28039 0.29863 0.81599 0.0
O446 O 0.30156 0.30858 0.7664 0.0
O447 O 0.279 0.32014 0.77804 0.0
C448 C 0.34544 0.27973 0.7711 0.0
C449 C 0.37432 0.2837 0.74855 0.0
C450 C 0.35825 0.28922 0.7433 0.0
C451 C 0.34395 0.28725 0.75448 0.0
C452 C 0.3613 0.27406 0.77632 0.0
C453 C 0.37559 0.276 0.76517 0.0
C454 C 0.3307 0.27797 0.7832 0.0
C455 C 0.2618 0.25463 0.78716 0.0
C456 C 0.27432 0.27846 0.74149 0.0
C457 C 0.20983 0.29777 0.78688 0.0
C458 C 0.18015 0.29237 0.80862 0.0
C459 C 0.18127 0.27844 0.79472 0.0
C460 C 0.19593 0.2811 0.78398 0.0
C461 C 0.20857 0.31175 0.80063 0.0
C462 C 0.19399 0.30906 0.81141 0.0
C463 C 0.22542 0.30088 0.77553 0.0
H464 H 0.35685 0.29538 0.73073 0.0
H465 H 0.3318 0.29174 0.75023 0.0
H466 H 0.36266 0.26815 0.78906 0.0
H467 H 0.38758 0.27132 0.76952 0.0
H468 H 0.17093 0.26537 0.79228 0.0
H469 H 0.19636 0.27007 0.77343 0.0
H470 H 0.21886 0.32486 0.80308 0.0
H471 H 0.19341 0.32021 0.82176 0.0
Dy472 Dy 0.03659 0.01766 0.52516 0.0
Dy473 Dy 0.02598 0.05804 0.5302 0.0
C474 C 0.99691 0.02105 0.53565 0.0
O475 O 0.03305 0.02505 0.49644 0.0
O476 O 0.01378 0.04375 0.502 0.0
O477 O 0.03107 0.98898 0.51352 0.0
O478 O 0.05564 1.00167 0.53272 0.0
O479 O 0.05087 0.06162 0.51553 0.0
O480 O 0.0628 0.03999 0.52802 0.0
O481 O 0.04086 0.05555 0.55746 0.0
O482 O 0.03384 0.02398 0.55498 0.0
O483 O 0.03485 0.08755 0.53825 0.0
O484 O 0.00665 0.07469 0.52647 0.0
C485 C 0.02103 0.03381 0.49049 0.0
O486 O 0.00625 0.01142 0.52628 0.0
O487 O 1.00341 0.03879 0.54138 0.0
C488 C 0.04145 0.9704 0.53447 0.0
C489 C 0.03565 0.94082 0.55586 0.0
C490 C 0.02062 0.94627 0.54754 0.0
C491 C 0.02348 0.96098 0.53703 0.0
C492 C 0.05643 0.96484 0.54261 0.0
C493 C 0.05358 0.95028 0.55325 0.0
C494 C 0.04499 0.9863 0.52384 0.0
C495 C 0.06498 0.0552 0.52036 0.0
C496 C 0.03945 0.04025 0.56498 0.0
C497 C 0.02038 0.104 0.51858 0.0
C498 C 0.02236 0.13058 0.49382 0.0
C499 C 0.02914 0.11498 0.4898 0.0
C500 C 0.02812 0.1018 0.50204 0.0
C501 C 0.01361 0.11949 0.52267 0.0
C502 C 0.01458 0.13264 0.51043 0.0
C503 C 0.01921 0.09018 0.53152 0.0
H504 H 0.00666 0.93938 0.54943 0.0
H505 H 0.01164 0.96503 0.53106 0.0
H506 H 0.0704 0.97186 0.54083 0.0
H507 H 0.06544 0.94629 0.55928 0.0
H508 H 0.03502 0.11281 0.47707 0.0
H509 H 0.03333 0.08986 0.49859 0.0
H510 H 0.00761 0.12143 0.53537 0.0
H511 H 0.00944 0.14458 0.5141 0.0
Dy512 Dy 0.28426 0.80483 0.7618 0.0
Dy513 Dy 0.27497 0.76257 0.77288 0.0
C514 C 0.26719 0.79555 0.79912 0.0
O515 O 0.31199 0.79981 0.76922 0.0
O516 O 0.30349 0.77647 0.78696 0.0
O517 O 0.29768 0.83394 0.76798 0.0
O518 O 0.28083 0.82307 0.74173 0.0
O519 O 0.29271 0.76306 0.75029 0.0
O520 O 0.28407 0.78573 0.73629 0.0
O521 O 0.24988 0.76454 0.75475 0.0
O522 O 0.25353 0.79576 0.76015 0.0
O523 O 0.26439 0.73339 0.76398 0.0
O524 O 0.27464 0.74339 0.79282 0.0
C525 C 0.31624 0.78919 0.78116 0.0
O526 O 0.27903 0.80729 0.7913 0.0
O527 O 0.26165 0.77796 0.79265 0.0
C528 C 0.27941 0.85199 0.75553 0.0
C529 C 0.25803 0.87776 0.75849 0.0
C530 C 0.25534 0.86308 0.76915 0.0
C531 C 0.26589 0.85027 0.76763 0.0
C532 C 0.28236 0.86669 0.74507 0.0
C533 C 0.27177 0.87949 0.74653 0.0
C534 C 0.28958 0.83783 0.75296 0.0
C535 C 0.29123 0.77156 0.7358 0.0
C536 C 0.24306 0.77903 0.7546 0.0
C537 C 0.28103 0.71567 0.7799 0.0
C538 C 0.30443 0.69159 0.77852 0.0
C539 C 0.29154 0.69127 0.76327 0.0
C540 C 0.27992 0.70309 0.76398 0.0
C541 C 0.29361 0.7157 0.79533 0.0
C542 C 0.30519 0.70381 0.79464 0.0
C543 C 0.26956 0.72904 0.78005 0.0
H544 H 0.24507 0.86147 0.77868 0.0
H545 H 0.26334 0.83889 0.77573 0.0
H546 H 0.29261 0.86808 0.73552 0.0
H547 H 0.27403 0.89047 0.73794 0.0
H548 H 0.29069 0.68218 0.75057 0.0
H549 H 0.27031 0.70261 0.7519 0.0
H550 H 0.29468 0.72506 0.8079 0.0
H551 H 0.31473 0.70418 0.80675 0.0
Dy552 Dy 0.51158 0.04019 0.99595 0.0
Dy553 Dy 0.51787 0.01744 0.0307 0.0
C554 C 0.52114 1.00048 0.98946 0.0
O555 O 0.48429 0.02975 0.00541 0.0
O556 O 0.49047 0.00382 0.01453 0.0
O557 O 0.49811 0.04161 0.96896 0.0
O558 O 0.51708 0.06591 0.98466 0.0
O559 O 0.50741 0.04084 0.04278 0.0
O560 O 0.51653 0.06046 0.02167 0.0
O561 O 0.54406 0.03883 0.02993 0.0
O562 O 0.54111 0.04019 0.99888 0.0
O563 O 0.53563 0.01078 0.05237 0.0
O564 O 0.50643 0.99759 0.04837 0.0
C565 C 0.47861 0.01278 0.00891 0.0
O566 O 0.51279 0.01225 0.98271 0.0
O567 O 0.52659 1.00169 0.00722 0.0
C568 C 0.51797 0.06147 0.95278 0.0
C569 C 0.53804 0.06682 0.9225 0.0
C570 C 0.54549 0.06095 0.93836 0.0
C571 C 0.53551 0.05823 0.95332 0.0
C572 C 0.51041 0.06734 0.93703 0.0
C573 C 0.52038 0.06993 0.9219 0.0
C574 C 0.50769 0.05849 0.96866 0.0
C575 C 0.5112 0.05748 0.03789 0.0
C576 C 0.55141 0.04233 0.01474 0.0
C577 C 0.5206 0.00532 0.07871 0.0
C578 C 0.51157 0.01351 0.11444 0.0
C579 C 0.51674 0.02761 0.1034 0.0
C580 C 0.52119 0.02353 0.08565 0.0
C581 C 0.51642 0.99138 0.08999 0.0
C582 C 0.51199 0.99544 0.10777 0.0
C583 C 0.52189 1.00052 0.0591 0.0
H584 H 0.55889 0.05805 0.93906 0.0
H585 H 0.54148 0.0535 0.9653 0.0
H586 H 0.49684 0.06983 0.93642 0.0
H587 H 0.51434 0.07442 0.90979 0.0
H588 H 0.51632 0.0416 0.10803 0.0
H589 H 0.52425 0.03444 0.07703 0.0
H590 H 0.51583 0.97724 0.08476 0.0
H591 H 0.50828 0.98435 0.11607 0.0
Dy592 Dy 0.26779 0.26037 0.26213 0.0
Dy593 Dy 0.29122 0.30068 0.28383 0.0
C594 C 0.28477 0.2651 0.30466 0.0
O595 O 0.24664 0.27616 0.26679 0.0
O596 O 0.2624 0.29745 0.29119 0.0
O597 O 0.24407 0.23704 0.25913 0.0
O598 O 0.26349 0.23888 0.23898 0.0
O599 O 0.27765 0.30722 0.25787 0.0
O600 O 0.27394 0.27911 0.24065 0.0
O601 O 0.31019 0.28969 0.26664 0.0
O602 O 0.29734 0.25872 0.26488 0.0
O603 O 0.31396 0.32468 0.28525 0.0
O604 O 0.29734 0.32153 0.30783 0.0
C605 C 0.24685 0.28831 0.28111 0.0
O606 O 0.27092 0.25663 0.29202 0.0
O607 O 0.29664 0.28025 0.30206 0.0
C608 C 0.2491 0.2093 0.2453 0.0
C609 C 0.2528 0.17319 0.24547 0.0
C610 C 0.2544 0.18477 0.2622 0.0
C611 C 0.25269 0.20275 0.26212 0.0
C612 C 0.24666 0.1975 0.22864 0.0
C613 C 0.24856 0.17957 0.2287 0.0
C614 C 0.2491 0.22866 0.24478 0.0
C615 C 0.27484 0.29679 0.2418 0.0
C616 C 0.31141 0.27261 0.26344 0.0
C617 C 0.30864 0.35159 0.30069 0.0
C618 C 0.30296 0.38708 0.30129 0.0
C619 C 0.3026 0.37624 0.28438 0.0
C620 C 0.3053 0.35861 0.28407 0.0
C621 C 0.30965 0.36263 0.3176 0.0
C622 C 0.30673 0.38023 0.31792 0.0
C623 C 0.31013 0.33254 0.30058 0.0
H624 H 0.25799 0.18029 0.2753 0.0
H625 H 0.25479 0.21169 0.27515 0.0
H626 H 0.24389 0.20237 0.21554 0.0
H627 H 0.24727 0.17088 0.21564 0.0
H628 H 0.29938 0.38105 0.27137 0.0
H629 H 0.30428 0.35032 0.27081 0.0
H630 H 0.3122 0.35743 0.33056 0.0
H631 H 0.30707 0.38835 0.33112 0.0
Dy632 Dy 0.53807 0.51779 0.02526 0.0
Dy633 Dy 0.5276 0.55831 0.03128 0.0
C634 C 0.49815 0.52085 0.03502 0.0
O635 O 0.5347 0.5255 0.99667 0.0
O636 O 0.5168 0.54576 0.00225 0.0
O637 O 0.53254 0.48916 0.01344 0.0
O638 O 0.55722 0.50182 0.03248 0.0
O639 O 0.5527 0.56248 0.01696 0.0
O640 O 0.56434 0.54008 0.02829 0.0
O641 O 0.54258 0.55509 0.05814 0.0
O642 O 0.53494 0.52352 0.05509 0.0
O643 O 0.53644 0.58761 0.0406 0.0
O644 O 0.50837 0.57514 0.02814 0.0
C645 C 0.52373 0.53541 0.99082 0.0
O646 O 0.50765 0.51149 0.02557 0.0
O647 O 0.50465 0.53846 0.04136 0.0
C648 C 0.5432 0.4705 0.03414 0.0
C649 C 0.53774 0.4409 0.05549 0.0
C650 C 0.52259 0.44585 0.04676 0.0
C651 C 0.52528 0.46057 0.03627 0.0
C652 C 0.5583 0.4654 0.04266 0.0
C653 C 0.55562 0.45084 0.05328 0.0
C654 C 0.54656 0.48646 0.02359 0.0
C655 C 0.56665 0.55565 0.02125 0.0
C656 C 0.54084 0.53962 0.06537 0.0
C657 C 0.52246 0.60486 0.02152 0.0
C658 C 0.52545 0.63255 0.99797 0.0
C659 C 0.5306 0.6162 0.99273 0.0
C660 C 0.52915 0.6025 0.00441 0.0
C661 C 0.51725 0.62106 0.0268 0.0
C662 C 0.51873 0.63478 0.01516 0.0
C663 C 0.52093 0.5905 0.03387 0.0
H664 H 0.50865 0.43857 0.04833 0.0
H665 H 0.51334 0.46424 0.02998 0.0
H666 H 0.57225 0.47281 0.04121 0.0
H667 H 0.56757 0.44723 0.05964 0.0
H668 H 0.53604 0.61409 0.97973 0.0
H669 H 0.53331 0.59009 1.00013 0.0
H670 H 0.51201 0.62309 0.03993 0.0
H671 H 0.5144 0.64705 0.01954 0.0
Dy672 Dy 0.78471 0.3064 0.25669 0.0
Dy673 Dy 0.77474 0.26276 0.26311 0.0
C674 C 0.77257 0.29427 0.29456 0.0
O675 O 0.81041 0.30251 0.27214 0.0
O676 O 0.80545 0.27131 0.26409 0.0
O677 O 0.79612 0.33526 0.26678 0.0
O678 O 0.7846 0.32669 0.23803 0.0
O679 O 0.77207 0.26517 0.23299 0.0
O680 O 0.79515 0.29115 0.23422 0.0
O681 O 0.74716 0.26886 0.26054 0.0
O682 O 0.75457 0.29476 0.24587 0.0
O683 O 0.76772 0.23422 0.25079 0.0
O684 O 0.77119 0.24107 0.28052 0.0
C685 C 0.81649 0.28753 0.27081 0.0
O686 O 0.77047 0.30473 0.2818 0.0
O687 O 0.77798 0.27916 0.29095 0.0
C688 C 0.77957 0.35385 0.25271 0.0
C689 C 0.75749 0.37902 0.25474 0.0
C690 C 0.7527 0.36256 0.26265 0.0
C691 C 0.76361 0.35006 0.26159 0.0
C692 C 0.78446 0.3702 0.24483 0.0
C693 C 0.77351 0.3827 0.24582 0.0
C694 C 0.79077 0.3405 0.25124 0.0
C695 C 0.78487 0.27566 0.22515 0.0
C696 C 0.74225 0.28118 0.25115 0.0
C697 C 0.78155 0.21573 0.26811 0.0
C698 C 0.8054 0.19218 0.26849 0.0
C699 C 0.78718 0.1858 0.25966 0.0
C700 C 0.77538 0.19746 0.25952 0.0
C701 C 0.79968 0.22221 0.27697 0.0
C702 C 0.81146 0.21052 0.27724 0.0
C703 C 0.76934 0.22814 0.26666 0.0
H704 H 0.74063 0.3594 0.26984 0.0
H705 H 0.75959 0.33742 0.26768 0.0
H706 H 0.79665 0.37323 0.23779 0.0
H707 H 0.77745 0.3951 0.23935 0.0
H708 H 0.78212 0.1719 0.25247 0.0
H709 H 0.76151 0.1923 0.2524 0.0
H710 H 0.80481 0.23635 0.28352 0.0
H711 H 0.8253 0.21586 0.28436 0.0
Dy712 Dy 0.01237 0.54007 0.49691 0.0
Dy713 Dy 0.02167 0.51909 0.53225 0.0
C714 C 0.02211 0.5006 0.49079 0.0
O715 O 0.98601 0.53005 0.50838 0.0
O716 O 0.99327 0.50501 0.51882 0.0
O717 O 0.99636 0.54062 0.47106 0.0
O718 O 0.01811 0.56453 0.48343 0.0
O719 O 0.0117 0.5426 0.54486 0.0
O720 O 0.01653 0.56115 0.52191 0.0
O721 O 0.04598 0.54228 0.53058 0.0
O722 O 0.04227 0.5412 0.49929 0.0
O723 O 0.04158 0.51217 0.55155 0.0
O724 O 0.01237 0.50132 0.55248 0.0
C725 C 0.98099 0.51374 0.51375 0.0
O726 O 0.01276 0.51169 0.48431 0.0
O727 O 0.02915 0.50289 0.50823 0.0
C728 C 0.0154 0.55685 0.45157 0.0
C729 C 0.03546 0.55949 0.42112 0.0
C730 C 0.03661 0.54626 0.43299 0.0
C731 C 0.02672 0.54499 0.4481 0.0
C732 C 0.01374 0.56976 0.43954 0.0
C733 C 0.02367 0.57102 0.42428 0.0
C734 C 0.00681 0.55657 0.46866 0.0
C735 C 0.01336 0.55871 0.53895 0.0
C736 C 0.05291 0.54526 0.51511 0.0
C737 C 0.03114 0.50958 0.58063 0.0
C738 C 0.02815 0.51987 0.61796 0.0
C739 C 0.03034 0.53306 0.6056 0.0
C740 C 0.03181 0.52793 0.58706 0.0
C741 C 0.03015 0.49664 0.59309 0.0
C742 C 0.02875 0.50177 0.61167 0.0
C743 C 0.02895 0.50347 0.56076 0.0
H744 H 0.0453 0.53695 0.43068 0.0
H745 H 0.02822 0.535 0.45733 0.0
H746 H 0.00515 0.57911 0.44219 0.0
H747 H 0.02257 0.58133 0.41532 0.0
H748 H 0.02971 0.54705 0.60993 0.0
H749 H 0.03248 0.53806 0.57754 0.0
H750 H 0.02958 0.48241 0.58828 0.0
H751 H 0.02732 0.49138 0.62095 0.0
Dy752 Dy 0.79737 0.78578 0.28179 0.0
Dy753 Dy 0.75763 0.79771 0.2778 0.0
C754 C 0.79562 0.8252 0.2725 0.0
O755 O 0.79534 0.80103 0.30922 0.0
O756 O 0.76389 0.79477 0.30746 0.0
O757 O 0.82669 0.79375 0.29055 0.0
O758 O 0.81364 0.76623 0.2767 0.0
O759 O 0.75074 0.76729 0.27807 0.0
O760 O 0.7776 0.76355 0.29292 0.0
O761 O 0.76494 0.79405 0.2489 0.0
O762 O 0.78271 0.77385 0.25368 0.0
O763 O 0.72917 0.79296 0.26622 0.0
O764 O 0.74195 0.81691 0.28638 0.0
C765 C 0.78023 0.80006 0.31714 0.0
O766 O 0.80173 0.81082 0.26754 0.0
O767 O 0.78043 0.82348 0.28033 0.0
C768 C 0.84381 0.78003 0.27062 0.0
C769 C 0.87234 0.78384 0.24764 0.0
C770 C 0.85606 0.78899 0.2424 0.0
C771 C 0.84193 0.7871 0.25378 0.0
C772 C 0.85994 0.77485 0.2759 0.0
C773 C 0.87406 0.77673 0.26455 0.0
C774 C 0.8292 0.7783 0.28288 0.0
C775 C 0.75985 0.75756 0.28723 0.0
C776 C 0.77299 0.78144 0.24255 0.0
C777 C 0.7105 0.80295 0.28765 0.0
C778 C 0.68063 0.7968 0.30898 0.0
C779 C 0.68683 0.78192 0.30112 0.0
C780 C 0.70168 0.78497 0.29065 0.0
C781 C 0.70418 0.81776 0.29531 0.0
C782 C 0.68947 0.81475 0.3059 0.0
C783 C 0.72659 0.8067 0.27715 0.0
H784 H 0.85413 0.79431 0.22941 0.0
H785 H 0.82955 0.79117 0.24946 0.0
H786 H 0.86168 0.76946 0.28889 0.0
H787 H 0.88648 0.77288 0.26919 0.0
H788 H 0.68044 0.76796 0.30338 0.0
H789 H 0.70635 0.77327 0.28507 0.0
H790 H 0.71075 0.83174 0.2932 0.0
H791 H 0.68491 0.82648 0.31158 0.0
Dy792 Dy 0.7891 0.29537 0.77329 0.0
Dy793 Dy 0.76717 0.30537 0.80796 0.0
C794 C 0.79194 0.33683 0.78831 0.0
O795 O 0.81002 0.30291 0.79833 0.0
O796 O 0.79079 0.29542 0.82032 0.0
O797 O 0.81268 0.30062 0.7582 0.0
O798 O 0.7902 0.27618 0.74968 0.0
O799 O 0.75535 0.27558 0.7971 0.0
O800 O 0.78151 0.27029 0.78715 0.0
O801 O 0.75152 0.31218 0.78338 0.0
O802 O 0.76026 0.29367 0.76086 0.0
O803 O 0.74313 0.29989 0.82251 0.0
O804 O 0.76653 0.32278 0.83308 0.0
C805 C 0.80734 0.29869 0.81498 0.0
O806 O 0.79023 0.32509 0.77332 0.0
O807 O 0.78703 0.33142 0.80394 0.0
C808 C 0.80377 0.29157 0.72606 0.0
C809 C 0.79592 0.30287 0.69154 0.0
C810 C 0.80927 0.3146 0.70507 0.0
C811 C 0.81319 0.309 0.72217 0.0
C812 C 0.79158 0.27927 0.71196 0.0
C813 C 0.78763 0.2849 0.69484 0.0
C814 C 0.80504 0.28697 0.74514 0.0
C815 C 0.76521 0.26419 0.79228 0.0
C816 C 0.74913 0.30357 0.76641 0.0
C817 C 0.75123 0.30616 0.85459 0.0
C818 C 0.7525 0.29389 0.88944 0.0
C819 C 0.76392 0.28938 0.87656 0.0
C820 C 0.76327 0.29543 0.85929 0.0
C821 C 0.73977 0.31076 0.86731 0.0
C822 C 0.74034 0.30458 0.88466 0.0
C823 C 0.75089 0.31251 0.83642 0.0
H824 H 0.81618 0.32838 0.70268 0.0
H825 H 0.82294 0.31869 0.7326 0.0
H826 H 0.78432 0.26564 0.71448 0.0
H827 H 0.7773 0.27556 0.68464 0.0
H828 H 0.77312 0.28081 0.87966 0.0
H829 H 0.7721 0.29165 0.84956 0.0
H830 H 0.73041 0.31905 0.86382 0.0
H831 H 0.73138 0.30821 0.89434 0.0
Dy832 Dy 0.76952 0.76106 0.76528 0.0
Dy833 Dy 0.79205 0.8019 0.78579 0.0
C834 C 0.78463 0.76807 0.8077 0.0
O835 O 0.74736 0.77545 0.77034 0.0
O836 O 0.76321 0.79859 0.79323 0.0
O837 O 0.76002 0.73182 0.76566 0.0
O838 O 0.75208 0.74383 0.74163 0.0
O839 O 0.77771 0.80591 0.75902 0.0
O840 O 0.77882 0.77851 0.74351 0.0
O841 O 0.81276 0.79162 0.77053 0.0
O842 O 0.79932 0.76043 0.76609 0.0
O843 O 0.80995 0.8289 0.78508 0.0
O844 O 0.80105 0.82088 0.81097 0.0
C845 C 0.74761 0.78851 0.78385 0.0
O846 O 0.76988 0.76091 0.7958 0.0
O847 O 0.79783 0.78135 0.80363 0.0
C848 C 0.75761 0.71445 0.73684 0.0
C849 C 0.76878 0.68436 0.7201 0.0
C850 C 0.78186 0.70101 0.72734 0.0
C851 C 0.7763 0.71593 0.73553 0.0
C852 C 0.74439 0.69852 0.72846 0.0
C853 C 0.74992 0.6836 0.72 0.0
C854 C 0.7522 0.72865 0.74859 0.0
C855 C 0.77747 0.79548 0.74344 0.0
C856 C 0.81363 0.77455 0.76595 0.0
C857 C 0.80421 0.85165 0.80623 0.0
C858 C 0.79427 0.8852 0.81077 0.0
C859 C 0.78065 0.8684 0.80654 0.0
C860 C 0.78558 0.85176 0.80423 0.0
C861 C 0.81785 0.86828 0.81087 0.0
C862 C 0.81292 0.88499 0.81311 0.0
C863 C 0.80937 0.8343 0.80247 0.0
H864 H 0.7965 0.70218 0.72798 0.0
H865 H 0.78668 0.72821 0.74185 0.0
H866 H 0.72987 0.69728 0.72923 0.0
H867 H 0.73946 0.67117 0.71422 0.0
H868 H 0.76618 0.86813 0.80429 0.0
H869 H 0.77488 0.83901 0.80046 0.0
H870 H 0.8323 0.86836 0.81239 0.0
H871 H 0.82368 0.89774 0.81643 0.0
Dy872 Dy 0.55158 0.55119 0.53685 0.0
Dy873 Dy 0.51147 0.52706 0.51578 0.0
C874 C 0.54721 0.53455 0.4946 0.0
O875 O 0.53978 0.57074 0.5216 0.0
O876 O 0.50892 0.55635 0.51833 0.0
O877 O 0.57555 0.57387 0.53762 0.0
O878 O 0.57323 0.55707 0.55986 0.0
O879 O 0.50812 0.53089 0.5458 0.0
O880 O 0.53163 0.55675 0.55591 0.0
O881 O 0.52802 0.50649 0.52016 0.0
O882 O 0.54748 0.52278 0.54538 0.0
O883 O 0.48799 0.50364 0.51427 0.0
O884 O 0.49013 0.52112 0.49259 0.0
C885 C 0.52247 0.57109 0.51796 0.0
O886 O 0.55767 0.53725 0.5105 0.0
O887 O 0.52961 0.53373 0.49385 0.0
C888 C 0.60248 0.56687 0.55024 0.0
C889 C 0.63533 0.55618 0.5469 0.0
C890 C 0.62381 0.55714 0.53104 0.0
C891 C 0.60749 0.56234 0.53269 0.0
C892 C 0.61445 0.56696 0.56609 0.0
C893 C 0.63076 0.5616 0.56444 0.0
C894 C 0.58406 0.56957 0.55213 0.0
C895 C 0.51645 0.54485 0.55845 0.0
C896 C 0.53928 0.50698 0.53513 0.0
C897 C 0.4607 0.50861 0.5003 0.0
C898 C 0.42488 0.51328 0.50019 0.0
C899 C 0.43864 0.52206 0.51487 0.0
C900 C 0.45643 0.51979 0.51489 0.0
C901 C 0.44694 0.49935 0.48592 0.0
C902 C 0.42912 0.50167 0.48585 0.0
C903 C 0.47971 0.5076 0.49943 0.0
H904 H 0.6268 0.55275 0.51735 0.0
H905 H 0.59843 0.56198 0.52021 0.0
H906 H 0.61079 0.57038 0.57974 0.0
H907 H 0.63946 0.56103 0.57687 0.0
H908 H 0.4359 0.53135 0.52593 0.0
H909 H 0.46699 0.52717 0.52602 0.0
H910 H 0.4501 0.49071 0.47454 0.0
H911 H 0.41876 0.49469 0.47442 0.0
Dy912 Dy 0.0082 0.53615 0.0373 0.0
Dy913 Dy 0.04916 0.54454 0.0226 0.0
C914 C 0.01406 0.54904 0.99784 0.0
O915 O 0.00921 0.50948 0.02089 0.0
O916 O 0.04055 0.51395 0.02231 0.0
O917 O 0.97899 0.52362 0.03198 0.0
O918 O 0.9907 0.5399 0.05847 0.0
O919 O 0.05349 0.54207 0.05265 0.0
O920 O 0.0251 0.52438 0.05682 0.0
O921 O 0.04355 0.57234 0.02831 0.0
O922 O 0.02339 0.56511 0.04958 0.0
O923 O 0.07814 0.5586 0.02643 0.0
O924 O 0.06631 0.53947 0.00162 0.0
C925 C 0.02378 0.50304 0.01906 0.0
O926 O 0.00596 0.55081 0.01273 0.0
O927 O 0.02889 0.54292 0.99798 0.0
C928 C 0.96199 0.54305 0.04534 0.0
C929 C 0.93734 0.56561 0.04212 0.0
C930 C 0.94416 0.55873 0.0264 0.0
C931 C 0.95641 0.54765 0.02799 0.0
C932 C 0.95505 0.54975 0.06104 0.0
C933 C 0.94289 0.56101 0.05946 0.0
C934 C 0.97566 0.5321 0.04727 0.0
C935 C 0.04288 0.53069 0.06191 0.0
C936 C 0.03457 0.57743 0.04164 0.0
C937 C 0.09606 0.53946 0.01417 0.0
C938 C 0.12182 0.51814 0.01756 0.0
C939 C 0.11351 0.52334 0.03296 0.0
C940 C 0.10065 0.53379 0.03125 0.0
C941 C 0.1046 0.53459 0.99888 0.0
C942 C 0.11732 0.52397 0.00053 0.0
C943 C 0.08141 0.54912 0.01172 0.0
H944 H 0.94033 0.56225 0.0129 0.0
H945 H 0.96167 0.54291 0.01563 0.0
H946 H 0.95921 0.54645 0.07455 0.0
H947 H 0.93775 0.56603 0.07179 0.0
H948 H 0.11656 0.51887 0.04619 0.0
H949 H 0.09404 0.53712 0.0432 0.0
H950 H 0.10115 0.53871 0.98556 0.0
H951 H 0.12363 0.52029 0.98848 0.0
C952 C 0.99916 0.20865 0.95023 0.0
C953 C 1.00198 0.22486 0.96276 0.0
C954 C 1.00086 0.19209 0.95636 0.0
C955 C 1.00028 0.16697 0.99726 0.0
H956 H 0.02783 0.13872 0.96949 0.0
C957 C 0.00468 0.0925 0.01022 0.0
C958 C 0.02232 0.08926 0.01059 0.0
C959 C 1.00153 0.10896 0.00483 0.0
C960 C 0.02011 0.14642 0.97745 0.0
H961 H 0.00844 0.23611 0.99175 0.0
H962 H 0.01114 0.20704 0.00253 0.0
H963 H 0.02368 0.16747 0.95963 0.0
H964 H 0.05039 0.10097 0.0054 0.0
H965 H 0.04483 0.12924 0.99585 0.0
H966 H 0.99673 0.14577 0.01507 0.0
C967 C 0.00764 0.20722 0.98789 0.0
C968 C 0.01761 0.16288 0.9717 0.0
C969 C 0.00617 0.22392 0.98171 0.0
C970 C 0.03662 0.10288 0.00534 0.0
C971 C 0.03342 0.11913 0.99974 0.0
C972 C 1.00257 0.1503 0.00288 0.0
C973 C 0.00523 0.19111 0.97526 0.0
C974 C 0.00773 0.17347 0.98154 0.0
C975 C 0.01585 0.12245 0.99938 0.0
C976 C 0.01265 0.13986 0.99312 0.0
H977 H 0.9959 0.2088 0.93554 0.0
H978 H 0.99868 0.17997 0.94624 0.0
H979 H 0.99249 0.17466 0.00511 0.0
H980 H 0.99333 0.08237 0.01418 0.0
H981 H 0.98779 0.11099 0.00463 0.0
C982 C 0.10591 0.80868 0.17246 0.0
C983 C 0.10575 0.80972 0.1534 0.0
C984 C 0.1221 0.80862 0.18341 0.0
C985 C 0.1682 0.7996 0.1807 0.0
H986 H 0.17802 0.82421 0.23117 0.0
C987 C 0.23604 0.80477 0.22828 0.0
C988 C 0.23425 0.80167 0.24671 0.0
C989 C 0.22098 0.80657 0.21654 0.0
C990 C 0.17543 0.81713 0.21716 0.0
H991 H 0.12261 0.81167 0.13094 0.0
H992 H 0.15101 0.81186 0.1501 0.0
H993 H 0.15094 0.82609 0.21141 0.0
H994 H 0.21507 0.79815 0.26719 0.0
H995 H 0.18895 0.80127 0.24681 0.0
H996 H 0.19277 0.79067 0.18653 0.0
C997 C 0.13852 0.81082 0.15656 0.0
C998 C 0.15984 0.81818 0.20579 0.0
C999 C 0.12226 0.81084 0.14558 0.0
C1000 C 0.21703 0.80056 0.25311 0.0
C1001 C 0.20203 0.80247 0.24143 0.0
C1002 C 0.18385 0.79861 0.19206 0.0
C1003 C 0.13867 0.80965 0.17565 0.0
C1004 C 0.15586 0.80927 0.18745 0.0
C1005 C 0.20376 0.80545 0.22297 0.0
C1006 C 0.18757 0.8072 0.21052 0.0
H1007 H 0.09342 0.8077 0.17893 0.0
H1008 H 0.12152 0.80738 0.19795 0.0
H1009 H 0.16552 0.79235 0.16676 0.0
H1010 H 0.24907 0.80569 0.22284 0.0
H1011 H 0.22287 0.80902 0.20246 0.0
C1012 C 0.50729 0.84179 0.45096 0.0
C1013 C 0.50581 0.82819 0.46289 0.0
C1014 C 0.50848 0.86017 0.45771 0.0
C1015 C 0.52108 0.89432 0.50004 0.0
H1016 H 0.49444 0.92206 0.47138 0.0
C1017 C 0.53627 0.97429 0.51367 0.0
C1018 C 0.5213 0.98237 0.51243 0.0
C1019 C 0.5337 0.9553 0.50851 0.0
C1020 C 0.50188 0.91453 0.47967 0.0
H1021 H 0.50456 0.82346 0.49144 0.0
H1022 H 0.50684 0.85573 0.50334 0.0
H1023 H 0.49103 0.88944 0.46107 0.0
H1024 H 0.49179 0.9765 0.50475 0.0
H1025 H 0.48734 0.94342 0.49561 0.0
H1026 H 0.53199 0.91948 0.5186 0.0
C1027 C 0.50708 0.85208 0.48868 0.0
C1028 C 0.50006 0.89581 0.47364 0.0
C1029 C 0.5057 0.83356 0.48186 0.0
C1030 C 0.50366 0.97084 0.50588 0.0
C1031 C 0.50112 0.95184 0.50054 0.0
C1032 C 0.52303 0.91311 0.50599 0.0
C1033 C 0.50838 0.86565 0.47666 0.0
C1034 C 0.50972 0.88543 0.48365 0.0
C1035 C 0.51611 0.94377 0.50179 0.0
C1036 C 0.51354 0.92354 0.49583 0.0
H1037 H 0.50744 0.83822 0.43627 0.0
H1038 H 0.50974 0.87019 0.44804 0.0
H1039 H 0.52882 0.88687 0.50807 0.0
H1040 H 0.55006 0.98264 0.51869 0.0
H1041 H 0.54562 0.94971 0.50947 0.0
C1042 C 0.49342 0.29781 0.64163 0.0
C1043 C 0.51152 0.30285 0.65072 0.0
C1044 C 0.47832 0.29583 0.65177 0.0
C1045 C 0.46538 0.28825 0.69861 0.0
H1046 H 0.42263 0.30497 0.68226 0.0
C1047 C 0.40822 0.29167 0.74516 0.0
C1048 C 0.38979 0.2861 0.73689 0.0
C1049 C 0.42276 0.29369 0.73434 0.0
C1050 C 0.43437 0.30003 0.68692 0.0
H1051 H 0.52796 0.31003 0.67758 0.0
H1052 H 0.50176 0.30683 0.69521 0.0
H1053 H 0.44846 0.3086 0.66398 0.0
H1054 H 0.37232 0.27825 0.71059 0.0
H1055 H 0.3977 0.28182 0.69172 0.0
H1056 H 0.45135 0.27973 0.72155 0.0
C1057 C 0.49914 0.30409 0.68027 0.0
C1058 C 0.4492 0.30211 0.67642 0.0
C1059 C 0.51419 0.30605 0.67014 0.0
C1060 C 0.38632 0.28278 0.71746 0.0
C1061 C 0.40089 0.28483 0.70661 0.0
C1062 C 0.45058 0.2862 0.7091 0.0
C1063 C 0.48098 0.29883 0.67125 0.0
C1064 C 0.46496 0.29634 0.68218 0.0
C1065 C 0.41931 0.29022 0.71492 0.0
C1066 C 0.43491 0.29214 0.70346 0.0
H1067 H 0.49089 0.2952 0.62667 0.0
H1068 H 0.46455 0.29159 0.64434 0.0
H1069 H 0.47709 0.28329 0.7033 0.0
H1070 H 0.41146 0.29471 0.76005 0.0
H1071 H 0.43675 0.29821 0.74123 0.0
C1072 C 0.0275 0.82066 0.65886 0.0
C1073 C 0.01637 0.80319 0.65113 0.0
C1074 C 0.02911 0.83576 0.64894 0.0
C1075 C 0.02164 0.84701 0.60091 0.0
H1076 H 0.02685 0.89627 0.62589 0.0
C1077 C 0.0191 0.90884 0.5611 0.0
C1078 C 0.03272 0.92535 0.56724 0.0
C1079 C 0.01673 0.89411 0.57156 0.0
C1080 C 0.02553 0.88261 0.61873 0.0
H1081 H 0.99781 0.78796 0.62715 0.0
H1082 H 1.00013 0.81426 0.61011 0.0
H1083 H 0.0232 0.87037 0.64375 0.0
H1084 H 0.0542 0.93949 0.58941 0.0
H1085 H 0.05002 0.91381 0.60768 0.0
H1086 H 0.02373 0.85927 0.57587 0.0
C1087 C 0.00806 0.81631 0.6236 0.0
C1088 C 0.02349 0.86773 0.62898 0.0
C1089 C 0.00661 0.80122 0.63344 0.0
C1090 C 0.0437 0.92689 0.58421 0.0
C1091 C 0.0412 0.91225 0.59476 0.0
C1092 C 0.0235 0.86184 0.59066 0.0
C1093 C 0.01949 0.83377 0.6311 0.0
C1094 C 0.02154 0.8497 0.62023 0.0
C1095 C 0.02778 0.89563 0.5885 0.0
C1096 C 0.02551 0.87983 0.59944 0.0
H1097 H 0.03527 0.82259 0.67244 0.0
H1098 H 0.03823 0.84888 0.65512 0.0
H1099 H 0.02057 0.83344 0.59367 0.0
H1100 H 0.0105 0.90717 0.54804 0.0
H1101 H 0.00616 0.88156 0.56642 0.0
C1102 C 0.48164 0.7955 0.81889 0.0
C1103 C 0.4877 0.80019 0.83794 0.0
C1104 C 0.46328 0.79433 0.81199 0.0
C1105 C 0.42322 0.81167 0.82238 0.0
H1106 H 0.39366 0.76845 0.79004 0.0
C1107 C 0.34972 0.80698 0.78615 0.0
C1108 C 0.33603 0.7909 0.78757 0.0
C1109 C 0.36836 0.80837 0.79183 0.0
C1110 C 0.40174 0.78062 0.79906 0.0
H1111 H 0.47923 0.80756 0.86459 0.0
H1112 H 0.44755 0.80597 0.85253 0.0
H1113 H 0.42605 0.77052 0.80044 0.0
H1114 H 0.33138 0.76354 0.79587 0.0
H1115 H 0.3639 0.76586 0.80541 0.0
H1116 H 0.39899 0.82185 0.82092 0.0
C1117 C 0.45688 0.80305 0.84293 0.0
C1118 C 0.42033 0.78186 0.80489 0.0
C1119 C 0.47504 0.80385 0.84985 0.0
C1120 C 0.34151 0.77619 0.79469 0.0
C1121 C 0.36017 0.77745 0.80003 0.0
C1122 C 0.40475 0.8106 0.81626 0.0
C1123 C 0.45072 0.79824 0.82394 0.0
C1124 C 0.43124 0.79731 0.8168 0.0
C1125 C 0.37385 0.79357 0.79872 0.0
C1126 C 0.39371 0.79497 0.80468 0.0
H1127 H 0.49103 0.7926 0.80935 0.0
H1128 H 0.45898 0.79066 0.79727 0.0
H1129 H 0.43126 0.82381 0.83146 0.0
H1130 H 0.34602 0.81857 0.78072 0.0
H1131 H 0.37855 0.82094 0.79056 0.0
C1132 C 0.50689 0.20303 0.12629 0.0
C1133 C 0.50539 0.20368 0.14532 0.0
C1134 C 0.50706 0.18658 0.11566 0.0
C1135 C 0.49484 0.13589 0.11355 0.0
H1136 H 0.53104 0.1394 0.07891 0.0
C1137 C 0.5063 0.07149 0.06931 0.0
C1138 C 0.5099 0.07345 0.05101 0.0
C1139 C 0.50564 0.08681 0.08165 0.0
C1140 C 0.52068 0.13814 0.08833 0.0
H1141 H 0.5024 0.18737 0.16801 0.0
H1142 H 0.50259 0.15845 0.14931 0.0
H1143 H 0.52972 0.16688 0.09873 0.0
H1144 H 0.51518 0.09311 0.03132 0.0
H1145 H 0.51369 0.11951 0.05255 0.0
H1146 H 0.48564 0.10712 0.10289 0.0
C1147 C 0.50362 0.17075 0.14266 0.0
C1148 C 0.51995 0.15394 0.09974 0.0
C1149 C 0.50355 0.18732 0.15338 0.0
C1150 C 0.51254 0.09104 0.04532 0.0
C1151 C 0.51181 0.10627 0.05759 0.0
C1152 C 0.4955 0.12003 0.10201 0.0
C1153 C 0.50568 0.17028 0.12372 0.0
C1154 C 0.50688 0.15309 0.11233 0.0
C1155 C 0.50852 0.10445 0.07598 0.0
C1156 C 0.50828 0.121 0.08905 0.0
H1157 H 0.50826 0.21535 0.1196 0.0
H1158 H 0.50833 0.18666 0.10106 0.0
H1159 H 0.48454 0.13477 0.12304 0.0
H1160 H 0.50419 0.05817 0.07419 0.0
H1161 H 0.50321 0.08487 0.09574 0.0
C1162 C 0.1068 0.30593 0.34925 0.0
C1163 C 0.09111 0.30535 0.33701 0.0
C1164 C 0.12338 0.30465 0.34265 0.0
C1165 C 0.14325 0.29178 0.29924 0.0
H1166 H 0.1893 0.31463 0.33035 0.0
C1167 C 0.21232 0.27789 0.28032 0.0
C1168 C 0.229 0.2913 0.28635 0.0
C1169 C 0.19562 0.28016 0.28596 0.0
C1170 C 0.17669 0.30835 0.32124 0.0
H1171 H 0.08072 0.3032 0.30811 0.0
H1172 H 0.10978 0.30182 0.29654 0.0
H1173 H 0.16068 0.3183 0.34058 0.0
H1174 H 0.24097 0.31794 0.3027 0.0
H1175 H 0.21194 0.32237 0.3118 0.0
H1176 H 0.15938 0.28267 0.27946 0.0
C1177 C 0.10924 0.30267 0.31131 0.0
C1178 C 0.16003 0.31016 0.32734 0.0
C1179 C 0.09251 0.30363 0.31794 0.0
C1180 C 0.22844 0.30724 0.29788 0.0
C1181 C 0.21168 0.30969 0.30325 0.0
C1182 C 0.15995 0.29023 0.293 0.0
C1183 C 0.125 0.30308 0.32355 0.0
C1184 C 0.14294 0.30173 0.31658 0.0
C1185 C 0.19494 0.29609 0.29757 0.0
C1186 C 0.17701 0.29832 0.30395 0.0
H1187 H 0.1062 0.30705 0.36403 0.0
H1188 H 0.13483 0.30455 0.35266 0.0
H1189 H 0.13056 0.28484 0.2905 0.0
H1190 H 0.21219 0.26534 0.27159 0.0
H1191 H 0.18331 0.26911 0.28149 0.0
C1192 C 0.94993 0.03109 0.20126 0.0
C1193 C 0.96018 0.04202 0.21731 0.0
C1194 C 0.95655 0.03229 0.18415 0.0
C1195 C 0.98829 0.06272 0.15862 0.0
H1196 H 0.9833 0.01753 0.12573 0.0
C1197 C 0.02067 0.06047 0.08972 0.0
C1198 C 0.01064 0.04765 0.07472 0.0
C1199 C 0.01449 0.06072 0.10716 0.0
C1200 C 0.98457 0.03031 0.13461 0.0
H1201 H 0.98539 0.06284 0.22802 0.0
H1202 H 0.99703 0.06495 0.19796 0.0
H1203 H 0.9731 0.01599 0.1562 0.0
H1204 H 0.98575 0.02565 0.06609 0.0
H1205 H 0.9748 0.02635 0.09631 0.0
H1206 H 0.99967 0.07705 0.13692 0.0
C1207 C 0.98381 0.05551 0.19867 0.0
C1208 C 0.97877 0.02941 0.15212 0.0
C1209 C 0.97721 0.05423 0.21588 0.0
C1210 C 0.99392 0.03559 0.07738 0.0
C1211 C 0.98771 0.0359 0.09476 0.0
C1212 C 0.99405 0.06363 0.14103 0.0
C1213 C 0.97356 0.0445 0.18262 0.0
C1214 C 0.98044 0.04559 0.1643 0.0
C1215 C 0.99809 0.0482 0.10997 0.0
C1216 C 0.99213 0.04743 0.12876 0.0
H1217 H 0.93672 0.02159 0.20189 0.0
H1218 H 0.9482 0.0238 0.17203 0.0
H1219 H 0.98959 0.07544 0.16762 0.0
H1220 H 0.03365 0.06992 0.08817 0.0
H1221 H 0.0229 0.07029 0.11857 0.0
C1222 C 0.27018 0.69665 0.49527 0.0
C1223 C 0.28624 0.69176 0.50156 0.0
C1224 C 0.27129 0.71246 0.48675 0.0
C1225 C 0.3005 0.7426 0.45993 0.0
H1226 H 0.2663 0.77271 0.46816 0.0
C1227 C 0.29198 0.79481 0.41118 0.0
C1228 C 0.27353 0.79244 0.40387 0.0
C1229 C 0.29621 0.78745 0.42721 0.0
C1230 C 0.27599 0.76449 0.46578 0.0
H1231 H 0.31609 0.69956 0.504 0.0
H1232 H 0.31803 0.72726 0.4888 0.0
H1233 H 0.26897 0.74965 0.48853 0.0
H1234 H 0.24507 0.78166 0.40825 0.0
H1235 H 0.2524 0.76868 0.43612 0.0
H1236 H 0.3069 0.75671 0.43667 0.0
C1237 C 0.3046 0.71881 0.49052 0.0
C1238 C 0.27751 0.7513 0.4774 0.0
C1239 C 0.30348 0.70298 0.49917 0.0
C1240 C 0.25941 0.7838 0.41364 0.0
C1241 C 0.26364 0.7764 0.42964 0.0
C1242 C 0.29897 0.75576 0.44829 0.0
C1243 C 0.28849 0.72371 0.48429 0.0
C1244 C 0.2893 0.73979 0.47418 0.0
C1245 C 0.28206 0.77755 0.4362 0.0
C1246 C 0.28623 0.7664 0.4507 0.0
H1247 H 0.25669 0.68829 0.49696 0.0
H1248 H 0.25862 0.71566 0.48174 0.0
H1249 H 0.3096 0.73384 0.45703 0.0
H1250 H 0.30313 0.80173 0.40407 0.0
H1251 H 0.31053 0.78884 0.43214 0.0
C1252 C 0.64796 0.02247 0.68725 0.0
C1253 C 0.64335 0.0122 0.70178 0.0
C1254 C 0.63657 0.01848 0.67048 0.0
C1255 C 0.58814 0.99809 0.65182 0.0
H1256 H 0.60756 0.00978 0.60618 0.0
C1257 C 0.54703 0.02246 0.59387 0.0
C1258 C 0.55154 0.02013 0.57583 0.0
C1259 C 0.55666 0.01641 0.60816 0.0
C1260 C 0.60171 0.00601 0.6186 0.0
H1261 H 0.62384 0.98899 0.70988 0.0
H1262 H 0.60404 0.98171 0.68028 0.0
H1263 H 0.62824 0.00719 0.6324 0.0
H1264 H 0.56821 0.0084 0.55795 0.0
H1265 H 0.58427 0.99686 0.58255 0.0
H1266 H 0.56152 0.99663 0.63789 0.0
C1267 C 0.61627 0.99311 0.68202 0.0
C1268 C 0.6137 0.00482 0.63379 0.0
C1269 C 0.62766 0.99719 0.6989 0.0
C1270 C 0.56482 0.01061 0.57193 0.0
C1271 C 0.57406 0.00412 0.58606 0.0
C1272 C 0.57605 0.99898 0.63649 0.0
C1273 C 0.62037 0.00402 0.66778 0.0
C1274 C 0.60719 1.0016 0.65079 0.0
C1275 C 0.57063 0.00755 0.60448 0.0
C1276 C 0.58279 0.00361 0.61988 0.0
H1277 H 0.65995 0.03414 0.68908 0.0
H1278 H 0.64004 0.02739 0.65998 0.0
H1279 H 0.58262 0.99563 0.66472 0.0
H1280 H 0.53678 0.02979 0.59705 0.0
H1281 H 0.55374 0.01952 0.62216 0.0
C1282 C 0.29621 0.3716 0.97684 0.0
C1283 C 0.28116 0.36522 0.9865 0.0
C1284 C 0.29669 0.36347 0.95891 0.0
C1285 C 0.27477 0.32182 0.9246 0.0
H1286 H 0.2963 0.35368 0.88984 0.0
C1287 C 0.26578 0.29977 0.84532 0.0
C1288 C 0.28146 0.30473 0.83609 0.0
C1289 C 0.26637 0.30622 0.86404 0.0
C1290 C 0.29043 0.34457 0.89944 0.0
H1291 H 0.25481 0.34522 0.98497 0.0
H1292 H 0.2553 0.33133 0.95338 0.0
H1293 H 0.29562 0.36676 0.92151 0.0
H1294 H 0.31013 0.32018 0.8394 0.0
H1295 H 0.31108 0.33164 0.8721 0.0
H1296 H 0.26909 0.29973 0.90215 0.0
C1297 C 0.26699 0.34237 0.9598 0.0
C1298 C 0.29007 0.35205 0.91766 0.0
C1299 C 0.26663 0.35039 0.97789 0.0
C1300 C 0.29783 0.31608 0.84609 0.0
C1301 C 0.29834 0.32273 0.86478 0.0
C1302 C 0.27494 0.31438 0.90628 0.0
C1303 C 0.28199 0.34888 0.95001 0.0
C1304 C 0.28228 0.34079 0.93054 0.0
C1305 C 0.28258 0.31795 0.87393 0.0
C1306 C 0.2828 0.32568 0.89351 0.0
H1307 H 0.30771 0.3829 0.98317 0.0
H1308 H 0.30868 0.36861 0.95208 0.0
H1309 H 0.26893 0.31263 0.93413 0.0
H1310 H 0.25295 0.29101 0.83806 0.0
H1311 H 0.25396 0.30242 0.87065 0.0
C1312 C 0.98035 0.03067 0.32239 0.0
C1313 C 0.96802 0.04166 0.31946 0.0
C1314 C 0.98732 0.02911 0.34039 0.0
C1315 C 0.97505 0.03309 0.38779 0.0
H1316 H 0.02615 0.03523 0.40346 0.0
C1317 C 1.00303 0.04293 0.46436 0.0
C1318 C 0.01554 0.03304 0.47037 0.0
C1319 C 0.99783 0.0427 0.44557 0.0
C1320 C 0.01178 0.03432 0.39922 0.0
H1321 H 0.95398 0.06023 0.33303 0.0
H1322 H 0.96617 0.0576 0.36428 0.0
H1323 H 0.01648 0.03782 0.37119 0.0
H1324 H 0.03249 0.01525 0.46116 0.0
H1325 H 0.02321 0.01475 0.42809 0.0
H1326 H 0.97023 0.02963 0.41562 0.0
C1327 C 0.97025 0.04996 0.35274 0.0
C1328 C 0.00626 0.03586 0.38076 0.0
C1329 C 0.96337 0.05157 0.33481 0.0
C1330 C 0.02279 0.02296 0.45702 0.0
C1331 C 0.01755 0.02276 0.43808 0.0
C1332 C 0.98052 0.0315 0.40612 0.0
C1333 C 0.98199 0.03841 0.35577 0.0
C1334 C 0.9879 0.03564 0.37496 0.0
C1335 C 0.00492 0.03256 0.43217 0.0
C1336 C 0.99901 0.03248 0.41219 0.0
H1337 H 0.98416 0.02284 0.31081 0.0
H1338 H 0.99632 0.02009 0.34229 0.0
H1339 H 0.96071 0.03239 0.38366 0.0
H1340 H 0.99726 0.05101 0.47416 0.0
H1341 H 0.98839 0.05073 0.44154 0.0
C1342 C 0.31042 0.68027 0.59489 0.0
C1343 C 0.29588 0.68134 0.582 0.0
C1344 C 0.31485 0.69209 0.61163 0.0
C1345 C 0.30997 0.73598 0.6346 0.0
H1346 H 0.30703 0.7122 0.67898 0.0
C1347 C 0.29064 0.76887 0.70147 0.0
C1348 C 0.29722 0.76452 0.71852 0.0
C1349 C 0.29496 0.76077 0.68501 0.0
C1350 C 0.30838 0.71921 0.66683 0.0
H1351 H 0.27497 0.69589 0.57608 0.0
H1352 H 0.28284 0.71661 0.60513 0.0
H1353 H 0.30699 0.69414 0.64942 0.0
H1354 H 0.31448 0.74932 0.73188 0.0
H1355 H 0.32248 0.73561 0.70321 0.0
H1356 H 0.31109 0.76101 0.65187 0.0
C1357 C 0.29079 0.70667 0.60236 0.0
C1358 C 0.30832 0.70881 0.6499 0.0
C1359 C 0.28618 0.6947 0.58584 0.0
C1360 C 0.30896 0.75269 0.71889 0.0
C1361 C 0.3135 0.74479 0.70246 0.0
C1362 C 0.31028 0.74645 0.65156 0.0
C1363 C 0.30503 0.70535 0.61547 0.0
C1364 C 0.3085 0.71699 0.63358 0.0
C1365 C 0.30617 0.74836 0.6853 0.0
C1366 C 0.30886 0.73805 0.6678 0.0
H1367 H 0.31812 0.6701 0.5922 0.0
H1368 H 0.32587 0.69084 0.62159 0.0
H1369 H 0.31033 0.74261 0.62217 0.0
H1370 H 0.28153 0.77793 0.70078 0.0
H1371 H 0.28883 0.76364 0.67207 0.0
C1372 C 0.64534 0.04988 0.81262 0.0
C1373 C 0.6372 0.04037 0.79518 0.0
C1374 C 0.63443 0.05445 0.82578 0.0
C1375 C 0.5879 0.06042 0.83099 0.0
H1376 H 0.6013 0.05517 0.88214 0.0
C1377 C 0.54019 0.06042 0.88867 0.0
C1378 C 0.54857 0.06873 0.90647 0.0
C1379 C 0.55088 0.05945 0.87419 0.0
C1380 C 0.59753 0.05699 0.86796 0.0
H1381 H 0.6113 0.02802 0.77781 0.0
H1382 H 0.59213 0.03562 0.80102 0.0
H1383 H 0.62007 0.04754 0.8588 0.0
H1384 H 0.57429 0.084 0.92276 0.0
H1385 H 0.59294 0.08236 0.89746 0.0
H1386 H 0.56504 0.06949 0.84028 0.0
C1387 C 0.60697 0.03985 0.80439 0.0
C1388 C 0.60828 0.05259 0.85457 0.0
C1389 C 0.61792 0.03535 0.79117 0.0
C1390 C 0.56757 0.0772 0.90923 0.0
C1391 C 0.57822 0.07625 0.89479 0.0
C1392 C 0.57706 0.06475 0.84442 0.0
C1393 C 0.61512 0.0495 0.82182 0.0
C1394 C 0.6036 0.05425 0.83595 0.0
C1395 C 0.57009 0.06679 0.87731 0.0
C1396 C 0.58181 0.06309 0.86303 0.0
H1397 H 0.66019 0.05407 0.81602 0.0
H1398 H 0.64114 0.06213 0.83897 0.0
H1399 H 0.58408 0.06207 0.81677 0.0
H1400 H 0.52558 0.05371 0.88621 0.0
H1401 H 0.54427 0.05202 0.86086 0.0
C1402 C 0.27473 0.34797 0.08793 0.0
C1403 C 0.27454 0.36649 0.08761 0.0
C1404 C 0.27394 0.34033 0.10455 0.0
C1405 C 0.26219 0.34814 0.15261 0.0
H1406 H 0.29215 0.31433 0.16216 0.0
C1407 C 0.27446 0.32391 0.2245 0.0
C1408 C 0.27355 0.30505 0.22436 0.0
C1409 C 0.27399 0.33156 0.20788 0.0
C1410 C 0.28358 0.32364 0.15964 0.0
H1411 H 0.2733 0.39151 0.10441 0.0
H1412 H 0.27231 0.37837 0.13332 0.0
H1413 H 0.29225 0.32704 0.13297 0.0
H1414 H 0.27116 0.27944 0.20653 0.0
H1415 H 0.27037 0.29275 0.17782 0.0
H1416 H 0.25377 0.34488 0.1795 0.0
C1417 C 0.27269 0.36957 0.12077 0.0
C1418 C 0.28358 0.33088 0.14285 0.0
C1419 C 0.27338 0.37715 0.10418 0.0
C1420 C 0.27195 0.29403 0.20724 0.0
C1421 C 0.27161 0.30167 0.19073 0.0
C1422 C 0.2623 0.34098 0.16947 0.0
C1423 C 0.27304 0.35107 0.12122 0.0
C1424 C 0.27284 0.34319 0.13907 0.0
C1425 C 0.27276 0.32054 0.19083 0.0
C1426 C 0.27293 0.32858 0.17314 0.0
H1427 H 0.27556 0.33939 0.07537 0.0
H1428 H 0.27395 0.32596 0.10429 0.0
H1429 H 0.25355 0.35737 0.1501 0.0
H1430 H 0.27572 0.3328 0.23742 0.0
H1431 H 0.275 0.34617 0.20841 0.0
C1432 C 0.23255 0.95849 0.0222 0.0
C1433 C 0.22376 0.93964 0.01776 0.0
C1434 C 0.22371 0.97042 0.03128 0.0
C1435 C 0.17729 0.97378 0.04067 0.0
H1436 H 0.20476 0.01609 0.07556 0.0
C1437 C 0.1401 0.02219 0.07563 0.0
C1438 C 0.14641 0.04041 0.07189 0.0
C1439 C 0.151 0.00984 0.07339 0.0
C1440 C 0.19696 0.00426 0.0659 0.0
H1441 H 0.19911 0.9183 0.01965 0.0
H1442 H 0.18385 0.93896 0.036 0.0
H1443 H 0.22065 0.99399 0.0625 0.0
H1444 H 0.1697 0.0605 0.06467 0.0
H1445 H 0.18881 0.03879 0.06066 0.0
H1446 H 0.15365 0.98403 0.04405 0.0
C1447 C 0.19735 0.94471 0.03204 0.0
C1448 C 0.20603 0.99169 0.05832 0.0
C1449 C 0.20608 0.93284 0.02271 0.0
C1450 C 0.16445 0.04647 0.06744 0.0
C1451 C 0.17541 0.03411 0.06529 0.0
C1452 C 0.16823 0.98616 0.04842 0.0
C1453 C 0.206 0.96367 0.03633 0.0
C1454 C 0.19632 0.97644 0.0454 0.0
C1455 C 0.16842 0.01551 0.06744 0.0
C1456 C 0.178 1.00162 0.06093 0.0
H1457 H 0.2462 0.96407 0.0185 0.0
H1458 H 0.23065 0.98498 0.03404 0.0
H1459 H 0.16943 0.96245 0.03049 0.0
H1460 H 0.12622 0.01704 0.07893 0.0
H1461 H 0.14541 0.99559 0.07529 0.0
C1462 C 0.72783 0.64146 0.02327 0.0
C1463 C 0.72997 0.65964 0.01937 0.0
C1464 C 0.71026 0.62972 0.02279 0.0
C1465 C 0.66171 0.63052 0.02509 0.0
H1466 H 0.65132 0.57888 0.0049 0.0
C1467 C 0.58804 0.5837 0.01283 0.0
C1468 C 0.58541 0.56634 0.01903 0.0
C1469 C 0.60576 0.59452 0.01203 0.0
C1470 C 0.65408 0.59324 0.01071 0.0
H1471 H 0.71545 0.67973 0.01165 0.0
H1472 H 0.6848 0.65917 0.01049 0.0
H1473 H 0.68217 0.59901 0.00521 0.0
H1474 H 0.59933 0.54649 0.02869 0.0
H1475 H 0.63036 0.56547 0.02727 0.0
H1476 H 0.63363 0.62479 0.0305 0.0
C1477 C 0.69666 0.65406 0.01428 0.0
C1478 C 0.67174 0.60476 0.01092 0.0
C1479 C 0.71422 0.66582 0.01484 0.0
C1480 C 0.60089 0.55981 0.02387 0.0
C1481 C 0.61865 0.57063 0.02299 0.0
C1482 C 0.64407 0.61904 0.0248 0.0
C1483 C 0.69446 0.63589 0.01833 0.0
C1484 C 0.67574 0.62355 0.0181 0.0
C1485 C 0.62126 0.58822 0.01734 0.0
C1486 C 0.64005 0.60029 0.01757 0.0
H1487 H 0.73975 0.63635 0.02685 0.0
H1488 H 0.70905 0.61589 0.02622 0.0
H1489 H 0.66441 0.64482 0.03106 0.0
H1490 H 0.57644 0.58915 0.0089 0.0
H1491 H 0.60734 0.6079 0.00734 0.0
C1492 C 0.6517 0.47922 0.27149 0.0
C1493 C 0.66104 0.49802 0.27461 0.0
C1494 C 0.66136 0.46582 0.26809 0.0
C1495 C 0.70573 0.45977 0.2539 0.0
H1496 H 0.69387 0.41542 0.27751 0.0
C1497 C 0.75394 0.41141 0.25911 0.0
C1498 C 0.74583 0.3923 0.25585 0.0
C1499 C 0.743 0.42387 0.26037 0.0
C1500 C 0.6972 0.42763 0.27064 0.0
H1501 H 0.68778 0.51756 0.27659 0.0
H1502 H 0.70464 0.49427 0.27099 0.0
H1503 H 0.67572 0.43791 0.28146 0.0
H1504 H 0.71978 0.37136 0.25099 0.0
H1505 H 0.70071 0.39315 0.25343 0.0
H1506 H 0.72742 0.44961 0.24336 0.0
C1507 C 0.68983 0.48981 0.27082 0.0
C1508 C 0.68678 0.44051 0.27288 0.0
C1509 C 0.68018 0.50317 0.27416 0.0
C1510 C 0.7265 0.38597 0.25383 0.0
C1511 C 0.71556 0.39844 0.25518 0.0
C1512 C 0.71619 0.44693 0.25174 0.0
C1513 C 0.68056 0.47097 0.26778 0.0
C1514 C 0.69102 0.45681 0.26466 0.0
C1515 C 0.72369 0.41752 0.25849 0.0
C1516 C 0.71213 0.4308 0.26021 0.0
H1517 H 0.63693 0.47485 0.2717 0.0
H1518 H 0.65377 0.45144 0.26559 0.0
H1519 H 0.70915 0.472 0.24709 0.0
H1520 H 0.76878 0.41675 0.26104 0.0
H1521 H 0.74968 0.43849 0.2632 0.0
C1522 C 0.81461 0.44896 0.50296 0.0
C1523 C 0.80912 0.43406 0.51294 0.0
C1524 C 0.83311 0.4587 0.50457 0.0
C1525 C 0.87899 0.45209 0.51479 0.0
H1526 H 0.89548 0.50542 0.51943 0.0
C1527 C 0.95593 0.48975 0.52367 0.0
C1528 C 0.96129 0.50512 0.51428 0.0
C1529 C 0.93733 0.48171 0.52443 0.0
C1530 C 0.89106 0.49051 0.51791 0.0
H1531 H 0.8185 0.41801 0.53288 0.0
H1532 H 0.85085 0.43499 0.5356 0.0
H1533 H 0.86283 0.49055 0.51947 0.0
H1534 H 0.95139 0.52409 0.49825 0.0
H1535 H 0.91886 0.50971 0.49911 0.0
H1536 H 0.90698 0.45188 0.51272 0.0
C1537 C 0.84086 0.43905 0.52647 0.0
C1538 C 0.8724 0.48203 0.51802 0.0
C1539 C 0.82235 0.42941 0.52497 0.0
C1540 C 0.94768 0.51229 0.50565 0.0
C1541 C 0.92904 0.50412 0.50626 0.0
C1542 C 0.89758 0.46053 0.51452 0.0
C1543 C 0.84644 0.45359 0.51607 0.0
C1544 C 0.86622 0.46274 0.51647 0.0
C1545 C 0.92365 0.48873 0.51565 0.0
C1546 C 0.90386 0.47984 0.51609 0.0
H1547 H 0.80467 0.45285 0.4936 0.0
H1548 H 0.83708 0.46979 0.49632 0.0
H1549 H 0.87452 0.43717 0.51325 0.0
H1550 H 0.96611 0.48404 0.53063 0.0
H1551 H 0.93368 0.47008 0.53206 0.0
C1552 C 0.34129 0.06888 0.29138 0.0
C1553 C 0.3584 0.07593 0.28521 0.0
C1554 C 0.32597 0.07492 0.28532 0.0
C1555 C 0.30649 0.09528 0.248 0.0
H1556 H 0.28343 0.11867 0.28544 0.0
C1557 C 0.27122 0.15194 0.23447 0.0
C1558 C 0.25799 0.15556 0.24556 0.0
C1559 C 0.2791 0.13738 0.23705 0.0
C1560 C 0.28924 0.11172 0.27473 0.0
H1561 H 0.37294 0.09452 0.26772 0.0
H1562 H 0.34602 0.10491 0.25691 0.0
H1563 H 0.30619 0.10241 0.2947 0.0
H1564 H 0.24133 0.14594 0.26683 0.0
H1565 H 0.25467 0.12 0.27099 0.0
H1566 H 0.28973 0.10466 0.22799 0.0
C1567 C 0.34453 0.09475 0.26644 0.0
C1568 C 0.3024 0.10253 0.2801 0.0
C1569 C 0.35992 0.08897 0.27276 0.0
C1570 C 0.25169 0.14351 0.25827 0.0
C1571 C 0.2594 0.12875 0.26069 0.0
C1572 C 0.29309 0.10419 0.24259 0.0
C1573 C 0.32746 0.08781 0.27273 0.0
C1574 C 0.31157 0.09484 0.26682 0.0
C1575 C 0.27376 0.126 0.25066 0.0
C1576 C 0.28485 0.11317 0.25594 0.0
H1577 H 0.33977 0.05879 0.30098 0.0
H1578 H 0.31293 0.06946 0.29037 0.0
H1579 H 0.31325 0.08917 0.23753 0.0
H1580 H 0.27648 0.16116 0.22471 0.0
H1581 H 0.29028 0.13593 0.22924 0.0
C1582 C 0.31678 0.14521 0.51645 0.0
C1583 C 0.32192 0.16453 0.52052 0.0
C1584 C 0.32983 0.13507 0.51871 0.0
C1585 C 0.37993 0.1388 0.52349 0.0
H1586 H 0.36551 0.09347 0.54515 0.0
C1587 C 0.43184 0.09753 0.54558 0.0
C1588 C 0.42597 0.07822 0.5412 0.0
C1589 C 0.41942 0.10838 0.54324 0.0
C1590 C 0.3697 0.106 0.53892 0.0
H1591 H 0.34485 0.18842 0.52983 0.0
H1592 H 0.3677 0.17067 0.53396 0.0
H1593 H 0.34352 0.11187 0.54042 0.0
H1594 H 0.40242 0.05525 0.53065 0.0
H1595 H 0.38076 0.07415 0.52668 0.0
H1596 H 0.40617 0.13289 0.52206 0.0
C1597 C 0.35358 0.16337 0.52884 0.0
C1598 C 0.35709 0.11655 0.53618 0.0
C1599 C 0.34049 0.17354 0.52654 0.0
C1600 C 0.40735 0.07004 0.53449 0.0
C1601 C 0.39493 0.08088 0.53218 0.0
C1602 C 0.39258 0.12825 0.52626 0.0
C1603 C 0.34835 0.14399 0.52515 0.0
C1604 C 0.36199 0.13302 0.52833 0.0
C1605 C 0.40082 0.10018 0.53649 0.0
C1606 C 0.38757 0.11167 0.53391 0.0
H1607 H 0.30259 0.13786 0.51169 0.0
H1608 H 0.32538 0.1202 0.5154 0.0
H1609 H 0.38409 0.15131 0.51723 0.0
H1610 H 0.44602 0.10426 0.55103 0.0
H1611 H 0.42433 0.12319 0.54693 0.0
C1612 C 0.68397 0.59743 0.30127 0.0
C1613 C 0.66462 0.59329 0.29903 0.0
C1614 C 0.69447 0.61565 0.30251 0.0
C1615 C 0.69119 0.65937 0.28736 0.0
H1616 H 0.736 0.68057 0.32105 0.0
C1617 C 0.73016 0.73503 0.28973 0.0
C1618 C 0.74948 0.73932 0.29113 0.0
C1619 C 0.72006 0.71763 0.29251 0.0
C1620 C 0.72362 0.67477 0.31143 0.0
H1621 H 0.64109 0.60499 0.29709 0.0
H1622 H 0.65943 0.63683 0.29923 0.0
H1623 H 0.71774 0.64936 0.32307 0.0
H1624 H 0.77343 0.72887 0.29703 0.0
H1625 H 0.7557 0.69816 0.30144 0.0
H1626 H 0.69715 0.6844 0.27536 0.0
C1627 C 0.66646 0.62597 0.29987 0.0
C1628 C 0.71315 0.65694 0.31264 0.0
C1629 C 0.65598 0.60776 0.29874 0.0
C1630 C 0.75854 0.72595 0.29585 0.0
C1631 C 0.74839 0.7084 0.29847 0.0
C1632 C 0.70168 0.67708 0.28607 0.0
C1633 C 0.6858 0.63006 0.30141 0.0
C1634 C 0.69679 0.64911 0.30064 0.0
C1635 C 0.729 0.70397 0.29657 0.0
C1636 C 0.71799 0.68505 0.29812 0.0
H1637 H 0.69101 0.58654 0.30157 0.0
H1638 H 0.70933 0.61838 0.30357 0.0
H1639 H 0.67887 0.65355 0.27766 0.0
H1640 H 0.72275 0.74512 0.28642 0.0
H1641 H 0.70519 0.71486 0.2914 0.0
C1642 C 0.87065 0.50149 0.80973 0.0
C1643 C 0.88339 0.5063 0.79714 0.0
C1644 C 0.86087 0.48311 0.80934 0.0
C1645 C 0.86048 0.43517 0.79108 0.0
H1646 H 0.80853 0.42512 0.79699 0.0
C1647 C 0.81144 0.36229 0.77408 0.0
C1648 C 0.8007 0.35654 0.78809 0.0
C1649 C 0.8211 0.38075 0.77494 0.0
C1650 C 0.82304 0.42776 0.7954 0.0
H1651 H 0.89618 0.49574 0.77451 0.0
H1652 H 0.87891 0.46386 0.77356 0.0
H1653 H 0.82694 0.45698 0.79989 0.0
H1654 H 0.791 0.3657 0.81353 0.0
H1655 H 0.80771 0.39794 0.81486 0.0
H1656 H 0.85643 0.40589 0.78625 0.0
C1657 C 0.87666 0.47411 0.78398 0.0
C1658 C 0.83362 0.44598 0.79718 0.0
C1659 C 0.8865 0.49242 0.78445 0.0
C1660 C 0.79925 0.3697 0.80257 0.0
C1661 C 0.80872 0.38817 0.8033 0.0
C1662 C 0.84986 0.41697 0.78912 0.0
C1663 C 0.86359 0.46925 0.79628 0.0
C1664 C 0.85247 0.44989 0.79502 0.0
C1665 C 0.81998 0.3938 0.78967 0.0
C1666 C 0.83105 0.4131 0.79126 0.0
H1667 H 0.86804 0.51193 0.81969 0.0
H1668 H 0.85113 0.47978 0.81922 0.0
H1669 H 0.87502 0.43768 0.78964 0.0
H1670 H 0.81284 0.35245 0.76276 0.0
H1671 H 0.82957 0.38482 0.76416 0.0
C1672 C 0.04593 0.85417 0.07879 0.0
C1673 C 0.05624 0.8547 0.09595 0.0
C1674 C 0.04497 0.87056 0.07165 0.0
C1675 C 0.05236 0.92125 0.08634 0.0
H1676 H 0.05048 0.92422 0.03374 0.0
C1677 C 0.05656 0.99079 0.05739 0.0
C1678 C 0.04527 0.99064 0.04092 0.0
C1679 C 0.05836 0.97425 0.06362 0.0
C1680 C 0.0508 0.92363 0.04847 0.0
H1681 H 0.07389 0.87305 0.11886 0.0
H1682 H 0.0725 0.90142 0.1064 0.0
H1683 H 0.05268 0.89557 0.04531 0.0
H1684 H 0.02722 0.97265 0.01801 0.0
H1685 H 0.03027 0.94394 0.02885 0.0
H1686 H 0.05046 0.94926 0.08952 0.0
C1687 C 0.06483 0.8884 0.09851 0.0
C1688 C 0.05205 0.90711 0.05513 0.0
C1689 C 0.06575 0.87205 0.10563 0.0
C1690 C 0.0361 0.97341 0.03071 0.0
C1691 C 0.03792 0.95686 0.03692 0.0
C1692 C 0.05114 0.93775 0.07968 0.0
C1693 C 0.05429 0.88799 0.08147 0.0
C1694 C 0.05288 0.90563 0.0742 0.0
C1695 C 0.04895 0.95698 0.05358 0.0
C1696 C 0.05036 0.93926 0.06063 0.0
H1697 H 0.03835 0.84108 0.07098 0.0
H1698 H 0.03655 0.86955 0.0586 0.0
H1699 H 0.05257 0.92069 0.10106 0.0
H1700 H 0.06392 0.00371 0.06565 0.0
H1701 H 0.06724 0.97504 0.07632 0.0
C1702 C 0.93494 0.27096 0.91786 0.0
C1703 C 0.95188 0.27608 0.91073 0.0
C1704 C 0.91879 0.27331 0.90843 0.0
C1705 C 0.90323 0.30011 0.87329 0.0
H1706 H 0.8564 0.26359 0.86966 0.0
C1707 C 0.84114 0.30137 0.82197 0.0
C1708 C 0.82336 0.29689 0.82745 0.0
C1709 C 0.85627 0.29916 0.83315 0.0
C1710 C 0.86931 0.27405 0.87075 0.0
H1711 H 0.96503 0.28731 0.88789 0.0
H1712 H 0.93698 0.29117 0.87137 0.0
H1713 H 0.88373 0.25867 0.88691 0.0
H1714 H 0.80768 0.28662 0.84923 0.0
H1715 H 0.83424 0.28283 0.86887 0.0
H1716 H 0.88894 0.31543 0.85707 0.0
C1717 C 0.93614 0.28564 0.88441 0.0
C1718 C 0.88501 0.27122 0.88064 0.0
C1719 C 0.95224 0.28329 0.89382 0.0
C1720 C 0.82116 0.29023 0.84456 0.0
C1721 C 0.83637 0.28794 0.85577 0.0
C1722 C 0.88759 0.30292 0.86343 0.0
C1723 C 0.91922 0.28089 0.89166 0.0
C1724 C 0.90224 0.28411 0.88183 0.0
C1725 C 0.85414 0.29238 0.85019 0.0
C1726 C 0.87046 0.28984 0.86181 0.0
H1727 H 0.9342 0.26542 0.9309 0.0
H1728 H 0.90606 0.26962 0.91451 0.0
H1729 H 0.91613 0.31057 0.87427 0.0
H1730 H 0.84343 0.30648 0.80889 0.0
H1731 H 0.86966 0.30246 0.82824 0.0
C1732 C 0.55964 0.24637 0.58203 0.0
C1733 C 0.55033 0.25097 0.59689 0.0
C1734 C 0.55827 0.2278 0.57544 0.0
C1735 C 0.52923 0.17993 0.57568 0.0
H1736 H 0.57269 0.16507 0.56295 0.0
C1737 C 0.52919 0.10275 0.56279 0.0
C1738 C 0.53911 0.09702 0.54893 0.0
C1739 C 0.53075 0.12154 0.56816 0.0
C1740 C 0.56032 0.16895 0.5662 0.0
H1741 H 0.53214 0.23951 0.61634 0.0
H1742 H 0.52974 0.2074 0.60495 0.0
H1743 H 0.57478 0.19757 0.57259 0.0
H1744 H 0.55854 0.10689 0.52993 0.0
H1745 H 0.5611 0.13956 0.53912 0.0
H1746 H 0.51472 0.15141 0.56926 0.0
C1747 C 0.538 0.21804 0.5982 0.0
C1748 C 0.56154 0.18767 0.57176 0.0
C1749 C 0.53946 0.23653 0.60483 0.0
C1750 C 0.55075 0.1107 0.54072 0.0
C1751 C 0.55228 0.12952 0.54607 0.0
C1752 C 0.528 0.16125 0.57008 0.0
C1753 C 0.54743 0.21334 0.58346 0.0
C1754 C 0.54604 0.19345 0.57674 0.0
C1755 C 0.54223 0.13527 0.55983 0.0
C1756 C 0.54355 0.15539 0.56539 0.0
H1757 H 0.56817 0.25712 0.57561 0.0
H1758 H 0.5656 0.22478 0.56396 0.0
H1759 H 0.51689 0.1838 0.57904 0.0
H1760 H 0.52009 0.09271 0.5695 0.0
H1761 H 0.52301 0.12529 0.57902 0.0
C1762 C 0.56193 0.78776 0.41494 0.0
C1763 C 0.54472 0.7755 0.40833 0.0
C1764 C 0.57659 0.78958 0.40427 0.0
C1765 C 0.59411 0.76599 0.3658 0.0
H1766 H 0.62307 0.81521 0.36175 0.0
C1767 C 0.64909 0.77935 0.31492 0.0
C1768 C 0.66514 0.79372 0.32051 0.0
C1769 C 0.6344 0.77679 0.3256 0.0
C1770 C 0.61534 0.80133 0.36292 0.0
H1771 H 0.52948 0.75533 0.38543 0.0
H1772 H 0.55514 0.7584 0.36683 0.0
H1773 H 0.59774 0.81124 0.38055 0.0
H1774 H 0.67852 0.81628 0.34203 0.0
H1775 H 0.65317 0.81164 0.3608 0.0
H1776 H 0.61185 0.75603 0.3484 0.0
C1777 C 0.5573 0.76659 0.3803 0.0
C1778 C 0.60076 0.79907 0.37369 0.0
C1779 C 0.54258 0.76488 0.39091 0.0
C1780 C 0.66624 0.80528 0.33716 0.0
C1781 C 0.65163 0.80263 0.34791 0.0
C1782 C 0.60882 0.76823 0.35514 0.0
C1783 C 0.57444 0.77908 0.38679 0.0
C1784 C 0.58996 0.78138 0.37528 0.0
C1785 C 0.63543 0.78844 0.34223 0.0
C1786 C 0.61967 0.78595 0.35355 0.0
H1787 H 0.56405 0.79613 0.42831 0.0
H1788 H 0.58967 0.79917 0.40977 0.0
H1789 H 0.58619 0.75216 0.3669 0.0
H1790 H 0.64773 0.77032 0.30207 0.0
H1791 H 0.62208 0.76589 0.32059 0.0
C1792 C 0.03233 0.24275 0.38082 0.0
C1793 C 0.03639 0.26107 0.38946 0.0
C1794 C 0.03051 0.22811 0.39142 0.0
C1795 C 0.02182 0.21658 0.43846 0.0
H1796 H 0.04119 0.17475 0.42429 0.0
C1797 C 0.00873 0.15275 0.47737 0.0
C1798 C 0.02344 0.14468 0.48083 0.0
C1799 C 0.00986 0.16627 0.46554 0.0
C1800 C 0.03579 0.18638 0.42852 0.0
H1801 H 0.04196 0.27837 0.416 0.0
H1802 H 0.03905 0.25301 0.43438 0.0
H1803 H 0.04434 0.19971 0.4052 0.0
H1804 H 0.05094 0.14464 0.47446 0.0
H1805 H 0.05298 0.16829 0.45393 0.0
H1806 H 0.0137 0.20357 0.46201 0.0
C1807 C 0.03692 0.24984 0.41945 0.0
C1808 C 0.03741 0.20061 0.41743 0.0
C1809 C 0.03872 0.26442 0.40889 0.0
C1810 C 0.03925 0.15037 0.47195 0.0
C1811 C 0.04041 0.16394 0.46014 0.0
C1812 C 0.0202 0.20238 0.44953 0.0
C1813 C 0.03269 0.23146 0.41089 0.0
C1814 C 0.03054 0.21597 0.42232 0.0
C1815 C 0.02577 0.17217 0.45685 0.0
C1816 C 0.02722 0.18711 0.44477 0.0
H1817 H 0.03043 0.23972 0.36588 0.0
H1818 H 0.02708 0.21414 0.38433 0.0
H1819 H 0.01613 0.22804 0.44256 0.0
H1820 H 0.99621 0.14848 0.48369 0.0
H1821 H 0.99817 0.17202 0.46309 0.0
C1822 C 0.57947 0.25506 0.1886 0.0
C1823 C 0.56778 0.26216 0.19956 0.0
C1824 C 0.59803 0.2573 0.19511 0.0
C1825 C 0.63665 0.28611 0.22864 0.0
H1826 H 0.65829 0.245 0.21878 0.0
C1827 C 0.71604 0.29364 0.23855 0.0
C1828 C 0.72218 0.27952 0.24619 0.0
C1829 C 0.69714 0.29189 0.2338 0.0
C1830 C 0.65249 0.25661 0.22178 0.0
H1831 H 0.56661 0.27732 0.22604 0.0
H1832 H 0.59922 0.28137 0.23745 0.0
H1833 H 0.62558 0.24111 0.20931 0.0
H1834 H 0.71299 0.25251 0.2549 0.0
H1835 H 0.68026 0.24946 0.24658 0.0
H1836 H 0.66368 0.30161 0.2411 0.0
C1837 C 0.59392 0.27405 0.22374 0.0
C1838 C 0.63372 0.25442 0.21618 0.0
C1839 C 0.57521 0.27164 0.21726 0.0
C1840 C 0.70887 0.26367 0.24902 0.0
C1841 C 0.69003 0.26187 0.24414 0.0
C1842 C 0.65553 0.28836 0.2341 0.0
C1843 C 0.60557 0.26683 0.21276 0.0
C1844 C 0.62551 0.26914 0.21946 0.0
C1845 C 0.68387 0.2759 0.23639 0.0
C1846 C 0.66372 0.27363 0.23073 0.0
H1847 H 0.57427 0.24773 0.17488 0.0
H1848 H 0.60657 0.25176 0.18614 0.0
H1849 H 0.63087 0.29778 0.23128 0.0
H1850 H 0.72583 0.30609 0.23621 0.0
H1851 H 0.69295 0.30293 0.22774 0.0
C1852 C 0.54078 0.87263 0.87888 0.0
C1853 C 0.54638 0.85931 0.88838 0.0
C1854 C 0.53934 0.88919 0.88856 0.0
C1855 C 0.55425 0.91953 0.93351 0.0
H1856 H 0.51013 0.93583 0.92177 0.0
C1857 C 0.53278 0.97218 0.98386 0.0
C1858 C 0.52472 0.98535 0.97673 0.0
C1859 C 0.53625 0.95791 0.9721 0.0
C1860 C 0.52268 0.93167 0.92508 0.0
H1861 H 0.55529 0.85311 0.91542 0.0
H1862 H 0.55289 0.88189 0.93222 0.0
H1863 H 0.51518 0.90927 0.90289 0.0
H1864 H 0.51407 0.99377 0.95144 0.0
H1865 H 0.52029 0.9689 0.93087 0.0
H1866 H 0.56174 0.94179 0.95574 0.0
C1867 C 0.54968 0.87967 0.91731 0.0
C1868 C 0.52557 0.91641 0.91423 0.0
C1869 C 0.55099 0.86311 0.90767 0.0
C1870 C 0.52023 0.98385 0.95745 0.0
C1871 C 0.52373 0.96953 0.94564 0.0
C1872 C 0.5514 0.9348 0.9443 0.0
C1873 C 0.54363 0.89284 0.90793 0.0
C1874 C 0.54126 0.90997 0.9185 0.0
C1875 C 0.53182 0.95637 0.95282 0.0
C1876 C 0.53543 0.94091 0.94044 0.0
H1877 H 0.53708 0.87009 0.86402 0.0
H1878 H 0.53481 0.89911 0.88089 0.0
H1879 H 0.56665 0.91517 0.93699 0.0
H1880 H 0.53637 0.97278 0.99861 0.0
H1881 H 0.54216 0.94787 0.9782 0.0
C1882 C 0.96675 0.76245 0.72317 0.0
C1883 C 0.96616 0.75589 0.70437 0.0
C1884 C 0.95049 0.76338 0.7308 0.0
C1885 C 0.89875 0.74655 0.72133 0.0
H1886 H 0.90029 0.78754 0.75856 0.0
C1887 C 0.83355 0.75354 0.75578 0.0
C1888 C 0.83122 0.77141 0.75999 0.0
C1889 C 0.85008 0.7509 0.7499 0.0
C1890 C 0.89948 0.77606 0.74805 0.0
H1891 H 0.94789 0.74513 0.6789 0.0
H1892 H 0.91983 0.7471 0.69194 0.0
H1893 H 0.9285 0.7845 0.74649 0.0
H1894 H 0.84469 0.80051 0.76108 0.0
H1895 H 0.87301 0.79594 0.75057 0.0
H1896 H 0.8696 0.73853 0.72236 0.0
C1897 C 0.9327 0.75118 0.70103 0.0
C1898 C 0.91584 0.77415 0.74129 0.0
C1899 C 0.9489 0.75015 0.69346 0.0
C1900 C 0.8459 0.78651 0.75814 0.0
C1901 C 0.86233 0.78388 0.75219 0.0
C1902 C 0.88237 0.74852 0.72802 0.0
C1903 C 0.93317 0.75787 0.71982 0.0
C1904 C 0.91576 0.75944 0.72769 0.0
C1905 C 0.86476 0.76604 0.74798 0.0
C1906 C 0.88241 0.76341 0.74139 0.0
H1907 H 0.97979 0.76695 0.732 0.0
H1908 H 0.95153 0.76836 0.74537 0.0
H1909 H 0.89802 0.73484 0.71111 0.0
H1910 H 0.82262 0.74155 0.75704 0.0
H1911 H 0.85138 0.73693 0.74704 0.0
C1912 C 0.09501 0.03217 0.83795 0.0
C1913 C 0.11333 0.03218 0.83587 0.0
C1914 C 0.08891 0.03197 0.85542 0.0
C1915 C 0.10066 0.0224 0.90327 0.0
H1916 H 0.06734 0.0525 0.91515 0.0
C1917 C 0.07824 0.03554 0.97686 0.0
C1918 C 0.05932 0.03414 0.97707 0.0
C1919 C 0.08574 0.03502 0.96002 0.0
C1920 C 0.07656 0.04394 0.91201 0.0
H1921 H 0.13956 0.03175 0.85042 0.0
H1922 H 0.12904 0.03172 0.88088 0.0
H1923 H 0.0783 0.05185 0.88495 0.0
H1924 H 0.03343 0.03061 0.95963 0.0
H1925 H 0.04645 0.02975 0.93067 0.0
H1926 H 0.09893 0.01467 0.93055 0.0
C1927 C 0.11927 0.03157 0.86903 0.0
C1928 C 0.08279 0.04349 0.89465 0.0
C1929 C 0.12533 0.03169 0.85156 0.0
C1930 C 0.04808 0.03187 0.96011 0.0
C1931 C 0.05555 0.03147 0.94343 0.0
C1932 C 0.09449 0.02294 0.92074 0.0
C1933 C 0.10102 0.03188 0.87123 0.0
C1934 C 0.09475 0.03255 0.88994 0.0
C1935 C 0.07448 0.03326 0.94315 0.0
C1936 C 0.08218 0.03354 0.92519 0.0
H1937 H 0.08542 0.03247 0.82611 0.0
H1938 H 0.07467 0.03187 0.85652 0.0
H1939 H 0.10974 0.0137 0.90008 0.0
H1940 H 0.08727 0.03728 0.98966 0.0
H1941 H 0.1004 0.03645 0.96021 0.0
C1942 C 0.749 0.38168 0.56602 0.0
C1943 C 0.74788 0.372 0.54834 0.0
C1944 C 0.751 0.37305 0.58168 0.0
C1945 C 0.74953 0.32817 0.59854 0.0
H1946 H 0.78875 0.35833 0.63512 0.0
C1947 C 0.78596 0.29932 0.65739 0.0
C1948 C 0.78941 0.31001 0.67486 0.0
C1949 C 0.77929 0.30613 0.64189 0.0
C1950 C 0.77763 0.3498 0.62515 0.0
H1951 H 0.74668 0.34544 0.533 0.0
H1952 H 0.75059 0.33042 0.56045 0.0
H1953 H 0.77853 0.3714 0.60846 0.0
H1954 H 0.7879 0.33583 0.68997 0.0
H1955 H 0.77642 0.34772 0.66299 0.0
H1956 H 0.74897 0.30644 0.61528 0.0
C1957 C 0.74972 0.3446 0.56222 0.0
C1958 C 0.77171 0.35731 0.60991 0.0
C1959 C 0.74755 0.35321 0.54651 0.0
C1960 C 0.78585 0.32749 0.6766 0.0
C1961 C 0.7792 0.33426 0.66117 0.0
C1962 C 0.75551 0.32062 0.61385 0.0
C1963 C 0.7521 0.35464 0.57995 0.0
C1964 C 0.75757 0.34661 0.59647 0.0
C1965 C 0.77597 0.32372 0.64365 0.0
C1966 C 0.76959 0.33141 0.6273 0.0
H1967 H 0.74905 0.39613 0.56778 0.0
H1968 H 0.75236 0.38099 0.59518 0.0
H1969 H 0.73857 0.31964 0.58842 0.0
H1970 H 0.78861 0.28581 0.65569 0.0
H1971 H 0.77707 0.29781 0.62849 0.0
C1972 C 0.4332 0.08328 0.36399 0.0
C1973 C 0.43993 0.07943 0.34719 0.0
C1974 C 0.44459 0.08571 0.38071 0.0
C1975 C 0.48298 0.06862 0.39824 0.0
H1976 H 0.48057 0.09785 0.44433 0.0
C1977 C 0.52034 0.05828 0.46635 0.0
C1978 C 0.51015 0.05731 0.48148 0.0
C1979 C 0.5142 0.06471 0.45042 0.0
C1980 C 0.48132 0.08958 0.43155 0.0
H1981 H 0.46422 0.07714 0.33442 0.0
H1982 H 0.4842 0.08178 0.36354 0.0
H1983 H 0.46592 0.10403 0.4153 0.0
H1984 H 0.48571 0.06269 0.49195 0.0
H1985 H 0.47471 0.0734 0.46389 0.0
H1986 H 0.49766 0.05368 0.41434 0.0
C1987 C 0.47003 0.0824 0.36388 0.0
C1988 C 0.473 0.09316 0.41496 0.0
C1989 C 0.45863 0.07981 0.34723 0.0
C1990 C 0.49386 0.06322 0.48049 0.0
C1991 C 0.48764 0.06954 0.46448 0.0
C1992 C 0.49121 0.06503 0.41475 0.0
C1993 C 0.46289 0.08444 0.3808 0.0
C1994 C 0.47354 0.08252 0.39817 0.0
C1995 C 0.49765 0.07016 0.4492 0.0
C1996 C 0.49025 0.07526 0.43163 0.0
H1997 H 0.41882 0.0831 0.36431 0.0
H1998 H 0.43866 0.0872 0.39352 0.0
H1999 H 0.48328 0.05988 0.38562 0.0
H2000 H 0.5331 0.05407 0.46677 0.0
H2001 H 0.52238 0.0653 0.43899 0.0
C2002 C 0.77628 0.73955 0.07524 0.0
C2003 C 0.78221 0.72327 0.07293 0.0
C2004 C 0.77384 0.74712 0.09288 0.0
C2005 C 0.76548 0.73321 0.13886 0.0
H2006 H 0.78255 0.78539 0.15719 0.0
C2007 C 0.77707 0.75972 0.21606 0.0
C2008 C 0.77149 0.77552 0.22238 0.0
C2009 C 0.77641 0.75418 0.1972 0.0
C2010 C 0.77745 0.77083 0.15215 0.0
H2011 H 0.79087 0.70257 0.08733 0.0
H2012 H 0.78686 0.7158 0.11789 0.0
H2013 H 0.78568 0.77446 0.12521 0.0
H2014 H 0.76084 0.7979 0.21371 0.0
H2015 H 0.75981 0.78817 0.18046 0.0
H2016 H 0.75762 0.72944 0.16576 0.0
C2017 C 0.78372 0.72256 0.10613 0.0
C2018 C 0.77926 0.76457 0.13386 0.0
C2019 C 0.78616 0.71505 0.08861 0.0
C2020 C 0.76515 0.78563 0.20929 0.0
C2021 C 0.76467 0.78013 0.19029 0.0
C2022 C 0.76371 0.73944 0.15705 0.0
C2023 C 0.77721 0.73848 0.10848 0.0
C2024 C 0.77372 0.74561 0.12718 0.0
C2025 C 0.77026 0.7643 0.18407 0.0
C2026 C 0.77008 0.75824 0.16406 0.0
H2027 H 0.77311 0.74618 0.06339 0.0
H2028 H 0.7688 0.7594 0.09424 0.0
H2029 H 0.76062 0.71858 0.13401 0.0
H2030 H 0.78204 0.75158 0.22571 0.0
H2031 H 0.78108 0.74208 0.1929 0.0
C2032 C 0.08933 0.02464 0.72608 0.0
C2033 C 0.1042 0.03934 0.73431 0.0
C2034 C 0.0806 0.02498 0.70843 0.0
C2035 C 0.07347 0.05611 0.67433 0.0
H2036 H 0.06616 0.01275 0.63821 0.0
C2037 C 0.0558 0.05717 0.59574 0.0
C2038 C 0.04455 0.04105 0.58514 0.0
C2039 C 0.06171 0.05723 0.61447 0.0
C2040 C 0.06776 0.02489 0.64815 0.0
H2041 H 0.12124 0.06612 0.73073 0.0
H2042 H 0.10592 0.06677 0.70011 0.0
H2043 H 0.07832 0.01218 0.67002 0.0
H2044 H 0.02995 0.01262 0.58612 0.0
H2045 H 0.03969 0.01289 0.6187 0.0
H2046 H 0.06282 0.06882 0.65253 0.0
C2047 C 0.10099 0.055 0.70725 0.0
C2048 C 0.07478 0.02455 0.66641 0.0
C2049 C 0.10984 0.05456 0.72475 0.0
C2050 C 0.03882 0.02522 0.59382 0.0
C2051 C 0.04452 0.02534 0.61253 0.0
C2052 C 0.06626 0.0564 0.65609 0.0
C2053 C 0.08641 0.04013 0.69879 0.0
C2054 C 0.07787 0.04019 0.67967 0.0
C2055 C 0.05633 0.04123 0.62306 0.0
C2056 C 0.06343 0.04084 0.64269 0.0
H2057 H 0.08469 0.01273 0.73312 0.0
H2058 H 0.06931 0.01337 0.70231 0.0
H2059 H 0.07553 0.06833 0.68429 0.0
H2060 H 0.06053 0.06956 0.58944 0.0
H2061 H 0.07096 0.06967 0.62203 0.0
C2062 C 0.77097 0.3587 0.45324 0.0
C2063 C 0.75458 0.36353 0.45642 0.0
C2064 C 0.77203 0.34822 0.43677 0.0
C2065 C 0.74596 0.31755 0.39596 0.0
H2066 H 0.78662 0.3417 0.37099 0.0
C2067 C 0.76793 0.31817 0.3184 0.0
C2068 C 0.76916 0.30005 0.31346 0.0
C2069 C 0.76543 0.32409 0.33639 0.0
C2070 C 0.77527 0.33479 0.37786 0.0
H2071 H 0.72613 0.36034 0.44542 0.0
H2072 H 0.72802 0.34191 0.41636 0.0
H2073 H 0.78349 0.35466 0.40208 0.0
H2074 H 0.76812 0.27372 0.32328 0.0
H2075 H 0.76345 0.28416 0.35493 0.0
H2076 H 0.73775 0.29774 0.37144 0.0
C2077 C 0.73999 0.34626 0.42672 0.0
C2078 C 0.77354 0.3421 0.39564 0.0
C2079 C 0.73895 0.35688 0.44323 0.0
C2080 C 0.76734 0.2878 0.32676 0.0
C2081 C 0.76457 0.29369 0.34477 0.0
C2082 C 0.74786 0.31005 0.37817 0.0
C2083 C 0.7567 0.3423 0.42319 0.0
C2084 C 0.75879 0.33367 0.40477 0.0
C2085 C 0.76388 0.31196 0.34973 0.0
C2086 C 0.76238 0.31882 0.36894 0.0
H2087 H 0.7832 0.36348 0.46325 0.0
H2088 H 0.785 0.34516 0.43441 0.0
H2089 H 0.73451 0.31082 0.4028 0.0
H2090 H 0.76926 0.32795 0.30848 0.0
H2091 H 0.76479 0.33821 0.33994 0.0
C2092 C 0.41876 0.03606 0.23782 0.0
C2093 C 0.4258 0.05171 0.25106 0.0
C2094 C 0.42846 0.03269 0.22309 0.0
C2095 C 0.46503 0.05391 0.19629 0.0
H2096 H 0.47012 0.00394 0.18684 0.0
C2097 C 0.51175 0.03369 0.14403 0.0
C2098 C 0.50394 0.01732 0.13192 0.0
C2099 C 0.50327 0.0381 0.15944 0.0
C2100 C 0.46871 0.01792 0.18921 0.0
H2101 H 0.44801 0.07655 0.25886 0.0
H2102 H 0.46501 0.07065 0.23303 0.0
H2103 H 0.45235 0.01179 0.21116 0.0
H2104 H 0.48121 0.99268 0.12651 0.0
H2105 H 0.46649 1.0003 0.15333 0.0
H2106 H 0.48125 0.05997 0.17417 0.0
C2107 C 0.45198 0.06102 0.23405 0.0
C2108 C 0.45851 0.0224 0.2031 0.0
C2109 C 0.44228 0.06438 0.24884 0.0
C2110 C 0.48778 0.00522 0.13579 0.0
C2111 C 0.47931 0.00961 0.15114 0.0
C2112 C 0.47521 0.04941 0.18232 0.0
C2113 C 0.44537 0.04492 0.2213 0.0
C2114 C 0.45642 0.04039 0.20667 0.0
C2115 C 0.48681 0.02621 0.16299 0.0
C2116 C 0.47702 0.03132 0.17855 0.0
H2117 H 0.40604 0.0261 0.23914 0.0
H2118 H 0.42288 0.02034 0.21326 0.0
H2119 H 0.46355 0.06786 0.19868 0.0
H2120 H 0.5243 0.0432 0.14148 0.0
H2121 H 0.50951 0.05085 0.16849 0.0
C2122 C 0.77157 0.70864 0.95588 0.0
C2123 C 0.78484 0.71744 0.97094 0.0
C2124 C 0.77212 0.71516 0.93877 0.0
C2125 C 0.80316 0.74197 0.9101 0.0
H2126 H 0.75746 0.74354 0.88215 0.0
C2127 C 0.80043 0.77127 0.84003 0.0
C2128 C 0.78582 0.76209 0.8263 0.0
C2129 C 0.80092 0.76636 0.85792 0.0
C2130 C 0.77032 0.74298 0.88966 0.0
H2131 H 0.80913 0.73999 0.97988 0.0
H2132 H 0.81014 0.75145 0.94977 0.0
H2133 H 0.75715 0.73463 0.91312 0.0
H2134 H 0.76053 0.74018 0.82052 0.0
H2135 H 0.76155 0.73142 0.85157 0.0
H2136 H 0.8163 0.75009 0.88649 0.0
C2137 C 0.79934 0.73944 0.95128 0.0
C2138 C 0.77015 0.73793 0.90745 0.0
C2139 C 0.7987 0.73296 0.96852 0.0
C2140 C 0.77193 0.74762 0.83077 0.0
C2141 C 0.77244 0.74269 0.84864 0.0
C2142 C 0.80333 0.74697 0.89223 0.0
C2143 C 0.78601 0.7306 0.93623 0.0
C2144 C 0.78652 0.73717 0.91781 0.0
C2145 C 0.78682 0.75214 0.86251 0.0
C2146 C 0.78687 0.74734 0.88171 0.0
H2147 H 0.76072 0.69661 0.95727 0.0
H2148 H 0.76181 0.70787 0.92741 0.0
H2149 H 0.81597 0.74133 0.91766 0.0
H2150 H 0.81134 0.78252 0.83708 0.0
H2151 H 0.81211 0.77404 0.86828 0.0
C2152 C 0.81807 0.10174 0.00637 0.0
C2153 C 0.81182 0.10512 0.02354 0.0
C2154 C 0.82822 0.08872 0.00361 0.0
C2155 C 0.85712 0.06463 0.02926 0.0
H2156 H 0.84978 0.03247 0.98274 0.0
C2157 C 0.9009 0.01371 0.01831 0.0
C2158 C 0.9098 0.01529 0.00232 0.0
C2159 C 0.88577 0.02099 0.02023 0.0
C2160 C 0.85193 0.04135 0.9958 0.0
H2161 H 0.81109 0.09749 0.05123 0.0
H2162 H 0.8286 0.07464 0.04639 0.0
H2163 H 0.83002 0.05339 0.98766 0.0
H2164 H 0.9091 0.02453 0.97528 0.0
H2165 H 0.88272 0.03724 0.97863 0.0
H2166 H 0.87922 0.05296 0.03731 0.0
C2167 C 0.82593 0.08221 0.03513 0.0
C2168 C 0.84071 0.05337 0.99858 0.0
C2169 C 0.81587 0.09527 0.0379 0.0
C2170 C 0.90243 0.02298 0.9877 0.0
C2171 C 0.88731 0.03027 0.98962 0.0
C2172 C 0.86827 0.05261 0.02651 0.0
C2173 C 0.83222 0.0788 0.01797 0.0
C2174 C 0.84337 0.06531 0.01526 0.0
C2175 C 0.87931 0.02999 0.0062 0.0
C2176 C 0.86595 0.04101 0.00968 0.0
H2177 H 0.81511 0.10915 0.99505 0.0
H2178 H 0.83313 0.08659 0.99033 0.0
H2179 H 0.85971 0.07386 0.04215 0.0
H2180 H 0.90614 0.00756 0.02966 0.0
H2181 H 0.87962 0.02028 0.03301 0.0
C2182 C 0.34943 0.41791 0.04906 0.0
C2183 C 0.33431 0.42567 0.04861 0.0
C2184 C 0.36732 0.42915 0.04994 0.0
C2185 C 0.39218 0.47529 0.04012 0.0
H2186 H 0.43425 0.46314 0.06534 0.0
C2187 C 0.46685 0.52064 0.04412 0.0
C2188 C 0.47967 0.51096 0.03885 0.0
C2189 C 0.44921 0.5111 0.04718 0.0
C2190 C 0.42261 0.46667 0.05823 0.0
H2191 H 0.32602 0.45126 0.04954 0.0
H2192 H 0.35722 0.47092 0.0517 0.0
H2193 H 0.40318 0.44498 0.06782 0.0
H2194 H 0.48425 0.48371 0.03316 0.0
H2195 H 0.45359 0.46715 0.03866 0.0
H2196 H 0.4117 0.49703 0.03063 0.0
C2197 C 0.35531 0.45614 0.05081 0.0
C2198 C 0.40481 0.45623 0.05956 0.0
C2199 C 0.33743 0.44489 0.0497 0.0
C2200 C 0.47465 0.49159 0.03708 0.0
C2201 C 0.45715 0.48208 0.04038 0.0
C2202 C 0.40996 0.48584 0.03897 0.0
C2203 C 0.37047 0.4484 0.05061 0.0
C2204 C 0.38937 0.46024 0.0503 0.0
C2205 C 0.4442 0.49173 0.0453 0.0
C2206 C 0.42535 0.48146 0.04778 0.0
H2207 H 0.34741 0.40312 0.04815 0.0
H2208 H 0.3786 0.42265 0.0495 0.0
H2209 H 0.38068 0.47861 0.03252 0.0
H2210 H 0.47032 0.53557 0.04559 0.0
H2211 H 0.4395 0.51885 0.05105 0.0
C2212 C 0.4163 0.59672 0.77635 0.0
C2213 C 0.40825 0.57905 0.76665 0.0
C2214 C 0.40645 0.61021 0.77702 0.0
C2215 C 0.36553 0.62177 0.75398 0.0
H2216 H 0.36715 0.65145 0.80099 0.0
C2217 C 0.31099 0.66125 0.76833 0.0
C2218 C 0.31719 0.67941 0.77746 0.0
C2219 C 0.3231 0.64999 0.76676 0.0
C2220 C 0.36672 0.64341 0.78772 0.0
H2221 H 0.38369 0.5617 0.74988 0.0
H2222 H 0.36646 0.58501 0.75125 0.0
H2223 H 0.38684 0.63025 0.79832 0.0
H2224 H 0.34105 0.69995 0.79207 0.0
H2225 H 0.36212 0.68012 0.78955 0.0
H2226 H 0.34511 0.63464 0.74351 0.0
C2227 C 0.38046 0.58864 0.7581 0.0
C2228 C 0.37804 0.63131 0.78617 0.0
C2229 C 0.39031 0.57522 0.7574 0.0
C2230 C 0.33575 0.68594 0.78519 0.0
C2231 C 0.34784 0.67462 0.78371 0.0
C2232 C 0.35416 0.63378 0.75556 0.0
C2233 C 0.38835 0.60626 0.768 0.0
C2234 C 0.3774 0.62016 0.76933 0.0
C2235 C 0.34167 0.65657 0.77435 0.0
C2236 C 0.35447 0.64456 0.7725 0.0
H2237 H 0.43014 0.60006 0.78358 0.0
H2238 H 0.413 0.62371 0.78459 0.0
H2239 H 0.36496 0.61367 0.74072 0.0
H2240 H 0.29672 0.65565 0.76251 0.0
H2241 H 0.31786 0.63602 0.75976 0.0
C2242 C 0.21793 0.60806 0.50761 0.0
C2243 C 0.22789 0.61355 0.52532 0.0
C2244 C 0.19929 0.59875 0.50553 0.0
C2245 C 0.1627 0.57259 0.52976 0.0
H2246 H 0.13032 0.59098 0.49668 0.0
C2247 C 0.08455 0.55661 0.53238 0.0
C2248 C 0.07299 0.55254 0.51549 0.0
C2249 C 0.10359 0.56291 0.53275 0.0
C2250 C 0.13919 0.58551 0.50577 0.0
H2251 H 0.22641 0.6131 0.55468 0.0
H2252 H 0.19379 0.59694 0.55107 0.0
H2253 H 0.16357 0.60332 0.49868 0.0
H2254 H 0.07232 0.55195 0.48574 0.0
H2255 H 0.10563 0.56289 0.48642 0.0
H2256 H 0.13828 0.55494 0.53702 0.0
C2257 C 0.20041 0.59969 0.53879 0.0
C2258 C 0.15823 0.59256 0.5069 0.0
C2259 C 0.21906 0.60902 0.54087 0.0
C2260 C 0.08086 0.55503 0.49899 0.0
C2261 C 0.09992 0.56134 0.49937 0.0
C2262 C 0.14366 0.56553 0.52862 0.0
C2263 C 0.19028 0.59474 0.52112 0.0
C2264 C 0.17017 0.58631 0.51905 0.0
C2265 C 0.11148 0.56528 0.51626 0.0
C2266 C 0.1317 0.57207 0.51676 0.0
H2267 H 0.22443 0.61129 0.49536 0.0
H2268 H 0.19188 0.59486 0.49173 0.0
H2269 H 0.17159 0.56734 0.53905 0.0
H2270 H 0.07892 0.55488 0.54535 0.0
H2271 H 0.11212 0.56613 0.546 0.0
C2272 C 0.70098 0.98841 0.78307 0.0
C2273 C 0.70574 1.00079 0.77024 0.0
C2274 C 0.71339 0.97884 0.78954 0.0
C2275 C 0.75314 0.96264 0.77707 0.0
H2276 H 0.75779 0.95418 0.82841 0.0
C2277 C 0.79808 0.91678 0.80161 0.0
C2278 C 0.78888 0.9028 0.81117 0.0
C2279 C 0.79109 0.932 0.79926 0.0
C2280 C 0.75664 0.95646 0.81404 0.0
H2281 H 0.72719 0.01298 0.75415 0.0
H2282 H 0.74891 0.99625 0.76549 0.0
H2283 H 0.73892 0.97432 0.8185 0.0
H2284 H 0.7661 0.89446 0.82707 0.0
H2285 H 0.7537 0.92082 0.82269 0.0
H2286 H 0.77033 0.94438 0.77243 0.0
C2287 C 0.73554 0.99385 0.77043 0.0
C2288 C 0.74582 0.96793 0.80837 0.0
C2289 C 0.72312 0.00343 0.76396 0.0
C2290 C 0.77331 0.90493 0.81942 0.0
C2291 C 0.76633 0.92013 0.81707 0.0
C2292 C 0.76394 0.95119 0.78273 0.0
C2293 C 0.7308 0.98148 0.78331 0.0
C2294 C 0.74366 0.97081 0.78974 0.0
C2295 C 0.7748 0.9335 0.80644 0.0
C2296 C 0.7655 0.94768 0.8012 0.0
H2297 H 0.68766 0.98613 0.78815 0.0
H2298 H 0.70923 0.96916 0.79922 0.0
H2299 H 0.75157 0.96444 0.76258 0.0
H2300 H 0.81006 0.91548 0.79503 0.0
H2301 H 0.79805 0.94224 0.79122 0.0
C2302 C 0.72502 0.91176 0.52045 0.0
C2303 C 0.73941 0.91752 0.5351 0.0
C2304 C 0.7116 0.92157 0.51834 0.0
C2305 C 0.69002 0.95344 0.54399 0.0
H2306 H 0.67813 0.96804 0.49615 0.0
C2307 C 0.64827 0.00716 0.53562 0.0
C2308 C 0.63577 0.00469 0.51956 0.0
C2309 C 0.66037 0.9959 0.5373 0.0
C2310 C 0.68104 0.96385 0.50955 0.0
H2311 H 0.75091 0.93784 0.55917 0.0
H2312 H 0.7274 0.95478 0.5556 0.0
H2313 H 0.69975 0.94895 0.49948 0.0
H2314 H 0.62589 0.98831 0.49278 0.0
H2315 H 0.64672 0.96838 0.49582 0.0
H2316 H 0.67123 0.96808 0.5541 0.0
C2317 C 0.72648 0.94272 0.54576 0.0
C2318 C 0.69347 0.95293 0.51144 0.0
C2319 C 0.73999 0.93308 0.54773 0.0
C2320 C 0.63557 0.99069 0.50522 0.0
C2321 C 0.64754 0.9793 0.50696 0.0
C2322 C 0.67747 0.96419 0.54208 0.0
C2323 C 0.71221 0.93714 0.53099 0.0
C2324 C 0.69823 0.9478 0.52872 0.0
C2325 C 0.66011 0.98176 0.52302 0.0
C2326 C 0.67297 0.96972 0.52488 0.0
H2327 H 0.72425 0.89982 0.5105 0.0
H2328 H 0.70068 0.9169 0.50689 0.0
H2329 H 0.69326 0.94946 0.55744 0.0
H2330 H 0.64887 0.01799 0.54681 0.0
H2331 H 0.67009 0.99846 0.54971 0.0
C2332 C 0.37987 0.48294 0.76818 0.0
C2333 C 0.39817 0.48444 0.76475 0.0
C2334 C 0.36757 0.46564 0.76742 0.0
C2335 C 0.35947 0.4168 0.74851 0.0
H2336 H 0.3293 0.40789 0.78835 0.0
C2337 C 0.32185 0.3438 0.76093 0.0
C2338 C 0.30452 0.34107 0.76739 0.0
C2339 C 0.33207 0.36149 0.75914 0.0
C2340 C 0.33737 0.41022 0.77694 0.0
H2341 H 0.41792 0.46907 0.75765 0.0
H2342 H 0.39639 0.43877 0.75632 0.0
H2343 H 0.34959 0.43843 0.78811 0.0
H2344 H 0.28408 0.35475 0.77644 0.0
H2345 H 0.30185 0.38566 0.77301 0.0
H2346 H 0.34732 0.38859 0.73734 0.0
C2347 C 0.39155 0.45099 0.75948 0.0
C2348 C 0.34904 0.42771 0.77684 0.0
C2349 C 0.40389 0.46831 0.76036 0.0
C2350 C 0.29742 0.35639 0.77153 0.0
C2351 C 0.30765 0.37412 0.76966 0.0
C2352 C 0.34773 0.39933 0.74854 0.0
C2353 C 0.37329 0.44949 0.7631 0.0
C2354 C 0.36035 0.43113 0.76274 0.0
C2355 C 0.3252 0.37689 0.76367 0.0
C2356 C 0.3367 0.39577 0.76288 0.0
H2357 H 0.37506 0.49514 0.77156 0.0
H2358 H 0.35354 0.4649 0.77009 0.0
H2359 H 0.36783 0.41912 0.7373 0.0
H2360 H 0.32777 0.33232 0.75765 0.0
H2361 H 0.34564 0.36313 0.75474 0.0
C2362 C 0.1973 0.59272 0.24687 0.0
C2363 C 0.19727 0.58177 0.26119 0.0
C2364 C 0.20589 0.61156 0.25023 0.0
C2365 C 0.21908 0.65049 0.28707 0.0
H2366 H 0.2493 0.67421 0.25206 0.0
C2367 C 0.25538 0.72887 0.29725 0.0
C2368 C 0.25505 0.73758 0.28125 0.0
C2369 C 0.24917 0.70967 0.29597 0.0
C2370 C 0.24076 0.66781 0.26189 0.0
H2371 H 0.20632 0.58176 0.29018 0.0
H2372 H 0.22126 0.61479 0.29605 0.0
H2373 H 0.23728 0.6408 0.24741 0.0
H2374 H 0.2472 0.73316 0.25152 0.0
H2375 H 0.23606 0.69995 0.24939 0.0
H2376 H 0.22217 0.67757 0.3013 0.0
C2377 C 0.2146 0.60879 0.28228 0.0
C2378 C 0.23394 0.6487 0.25923 0.0
C2379 C 0.20615 0.58991 0.27888 0.0
C2380 C 0.24787 0.72685 0.26409 0.0
C2381 C 0.2416 0.70778 0.26284 0.0
C2382 C 0.22582 0.66967 0.28967 0.0
C2383 C 0.21447 0.61979 0.268 0.0
C2384 C 0.22281 0.63989 0.27164 0.0
C2385 C 0.24247 0.69893 0.27868 0.0
C2386 C 0.23647 0.67854 0.27691 0.0
H2387 H 0.19054 0.58679 0.23312 0.0
H2388 H 0.20543 0.61978 0.23902 0.0
H2389 H 0.21041 0.64402 0.29676 0.0
H2390 H 0.26089 0.73681 0.31065 0.0
H2391 H 0.25005 0.70321 0.30842 0.0
C2392 C 0.51637 0.72475 0.47691 0.0
C2393 C 0.50063 0.7256 0.4655 0.0
C2394 C 0.51773 0.70815 0.48333 0.0
C2395 C 0.49696 0.65681 0.47398 0.0
H2396 H 0.52485 0.65742 0.52128 0.0
C2397 C 0.50104 0.58926 0.50502 0.0
C2398 C 0.51857 0.58867 0.51302 0.0
C2399 C 0.49794 0.60579 0.49975 0.0
C2400 C 0.5171 0.65696 0.50796 0.0
H2401 H 0.47377 0.70958 0.45229 0.0
H2402 H 0.47583 0.68093 0.46386 0.0
H2403 H 0.52111 0.68627 0.51149 0.0
H2404 H 0.54646 0.60536 0.52197 0.0
H2405 H 0.54103 0.63389 0.51302 0.0
H2406 H 0.49284 0.6274 0.47064 0.0
C2407 C 0.48741 0.69291 0.46754 0.0
C2408 C 0.51499 0.67361 0.50227 0.0
C2409 C 0.48613 0.70947 0.46101 0.0
C2410 C 0.53276 0.60515 0.51586 0.0
C2411 C 0.52962 0.62164 0.51081 0.0
C2412 C 0.49894 0.64014 0.47977 0.0
C2413 C 0.50333 0.69186 0.47867 0.0
C2414 C 0.50503 0.6739 0.48508 0.0
C2415 C 0.51221 0.62225 0.50257 0.0
C2416 C 0.5092 0.63995 0.49678 0.0
H2417 H 0.52789 0.73683 0.48054 0.0
H2418 H 0.53036 0.70804 0.49158 0.0
H2419 H 0.48944 0.65628 0.46053 0.0
H2420 H 0.48977 0.57689 0.50257 0.0
H2421 H 0.48431 0.6057 0.49358 0.0
C2422 C 0.62169 0.30457 0.64736 0.0
C2423 C 0.60729 0.31081 0.65448 0.0
C2424 C 0.6374 0.30424 0.65907 0.0
C2425 C 0.65359 0.30473 0.70892 0.0
H2426 H 0.70207 0.31505 0.69256 0.0
C2427 C 0.71981 0.31322 0.75937 0.0
C2428 C 0.73335 0.30489 0.75323 0.0
C2429 C 0.70476 0.31414 0.7471 0.0
C2430 C 0.68861 0.31197 0.6973 0.0
H2431 H 0.59837 0.32207 0.67944 0.0
H2432 H 0.6258 0.32196 0.69969 0.0
H2433 H 0.6755 0.31661 0.67166 0.0
H2434 H 0.74168 0.29122 0.72915 0.0
H2435 H 0.71547 0.29288 0.70778 0.0
H2436 H 0.66672 0.30025 0.7346 0.0
C2437 C 0.62486 0.31686 0.68516 0.0
C2438 C 0.67332 0.31283 0.68528 0.0
C2439 C 0.60915 0.31708 0.67349 0.0
C2440 C 0.73153 0.29771 0.73441 0.0
C2441 C 0.71653 0.29876 0.72211 0.0
C2442 C 0.66887 0.30398 0.72095 0.0
C2443 C 0.63915 0.31022 0.6782 0.0
C2444 C 0.65556 0.30926 0.69092 0.0
C2445 C 0.70287 0.30688 0.72831 0.0
C2446 C 0.6866 0.30762 0.71534 0.0
H2447 H 0.62065 0.29955 0.63279 0.0
H2448 H 0.64794 0.29884 0.65316 0.0
H2449 H 0.64015 0.30147 0.71371 0.0
H2450 H 0.72072 0.31894 0.77373 0.0
H2451 H 0.69466 0.32072 0.75234 0.0
C2452 C 0.99448 0.3333 0.9778 0.0
C2453 C 0.00924 0.32819 0.97018 0.0
C2454 C 0.99572 0.35186 0.98416 0.0
C2455 C 0.02916 0.39743 0.99933 0.0
H2456 H 0.98804 0.41747 0.98518 0.0
C2457 C 0.0366 0.47617 0.00919 0.0
C2458 C 0.02146 0.48284 0.01368 0.0
C2459 C 0.03472 0.45725 0.00448 0.0
C2460 C 0.99959 0.41212 0.98954 0.0
H2461 H 0.03704 0.33861 0.96368 0.0
H2462 H 0.03931 0.37081 0.97499 0.0
H2463 H 0.98557 0.38472 0.97671 0.0
H2464 H 0.99238 0.47455 0.01672 0.0
H2465 H 0.98917 0.44155 0.00893 0.0
H2466 H 0.04315 0.42465 0.01235 0.0
C2467 C 0.02675 0.36052 0.97609 0.0
C2468 C 0.99816 0.39327 0.98463 0.0
C2469 C 0.02543 0.34203 0.96955 0.0
C2470 C 0.00434 0.46998 0.01326 0.0
C2471 C 1.00249 0.45099 0.00868 0.0
C2472 C 0.03054 0.41622 0.00439 0.0
C2473 C 0.01183 0.36576 0.98326 0.0
C2474 C 0.01299 0.38568 0.9893 0.0
C2475 C 0.01768 0.44428 0.00426 0.0
C2476 C 0.01586 0.42397 0.99941 0.0
H2477 H 0.98177 0.32302 0.97841 0.0
H2478 H 0.98402 0.35533 0.98976 0.0
H2479 H 0.04077 0.39206 0.00343 0.0
H2480 H 0.04999 0.4856 0.00921 0.0
H2481 H 0.04669 0.45285 0.00079 0.0
C2482 C 0.99173 0.79817 0.14116 0.0
C2483 C 0.00984 0.80445 0.15018 0.0
C2484 C 0.97663 0.79628 0.15128 0.0
C2485 C 0.96411 0.79076 0.19852 0.0
H2486 H 0.91976 0.80387 0.18029 0.0
C2487 C 0.89755 0.77259 0.23361 0.0
C2488 C 0.88754 0.78599 0.23566 0.0
C2489 C 0.91211 0.7748 0.22279 0.0
C2490 C 0.93208 0.80024 0.18564 0.0
H2491 H 0.02626 0.81395 0.1769 0.0
H2492 H 1.00001 0.81083 0.1945 0.0
H2493 H 0.94593 0.80837 0.16242 0.0
H2494 H 0.88515 0.81231 0.22782 0.0
H2495 H 0.91049 0.81613 0.20893 0.0
H2496 H 0.95044 0.78291 0.22187 0.0
C2497 C 0.99743 0.8071 0.17963 0.0
C2498 C 0.94703 0.80264 0.17529 0.0
C2499 C 0.01249 0.80902 0.16952 0.0
C2500 C 0.89236 0.80157 0.22638 0.0
C2501 C 0.90692 0.80377 0.21553 0.0
C2502 C 0.94917 0.78831 0.20883 0.0
C2503 C 0.97928 0.80057 0.17068 0.0
C2504 C 0.96327 0.79797 0.18161 0.0
C2505 C 0.91708 0.79047 0.21368 0.0
C2506 C 0.93294 0.79302 0.20256 0.0
H2507 H 0.98921 0.79449 0.12628 0.0
H2508 H 0.96288 0.79104 0.14393 0.0
H2509 H 0.97628 0.7868 0.20373 0.0
H2510 H 0.89404 0.76024 0.24024 0.0
H2511 H 0.91938 0.7641 0.22142 0.0
C2512 C 0.52884 0.31995 0.15806 0.0
C2513 C 0.51808 0.30255 0.14963 0.0
C2514 C 0.53076 0.33535 0.14854 0.0
C2515 C 0.50856 0.35322 0.11003 0.0
H2516 H 0.55709 0.38569 0.10979 0.0
C2517 C 0.52186 0.40869 0.06061 0.0
C2518 C 0.53498 0.42549 0.06692 0.0
C2519 C 0.5196 0.39406 0.07118 0.0
C2520 C 0.54338 0.37697 0.10992 0.0
H2521 H 0.50078 0.2877 0.1247 0.0
H2522 H 0.50401 0.31454 0.10821 0.0
H2523 H 0.55345 0.35982 0.12766 0.0
H2524 H 0.55566 0.44026 0.08952 0.0
H2525 H 0.55148 0.41496 0.10814 0.0
H2526 H 0.49838 0.37039 0.09252 0.0
C2527 C 0.51093 0.31632 0.12217 0.0
C2528 C 0.54131 0.36209 0.12015 0.0
C2529 C 0.50916 0.30092 0.13158 0.0
C2530 C 0.54562 0.42739 0.08415 0.0
C2531 C 0.54325 0.41284 0.0948 0.0
C2532 C 0.51058 0.36818 0.09994 0.0
C2533 C 0.5218 0.33371 0.13049 0.0
C2534 C 0.5239 0.34996 0.12022 0.0
C2535 C 0.53028 0.39591 0.08843 0.0
C2536 C 0.52804 0.38021 0.09961 0.0
H2537 H 0.53588 0.32164 0.17194 0.0
H2538 H 0.53913 0.34859 0.15538 0.0
H2539 H 0.49491 0.34427 0.11 0.0
H2540 H 0.5136 0.40671 0.0473 0.0
H2541 H 0.50971 0.38118 0.06562 0.0
C2542 C 0.97203 0.29044 0.34235 0.0
C2543 C 0.987 0.29756 0.3328 0.0
C2544 C 0.9539 0.28909 0.33487 0.0
C2545 C 0.9263 0.30766 0.30047 0.0
H2546 H 0.88706 0.26603 0.30796 0.0
C2547 C 0.84867 0.30579 0.28442 0.0
C2548 C 0.83627 0.2888 0.27702 0.0
C2549 C 0.86716 0.3068 0.29051 0.0
C2550 C 0.89781 0.2777 0.30556 0.0
H2551 H 0.99449 0.30873 0.30773 0.0
H2552 H 0.96278 0.30621 0.29452 0.0
H2553 H 0.91883 0.26741 0.31916 0.0
H2554 H 0.83388 0.25955 0.27013 0.0
H2555 H 0.86594 0.26135 0.2805 0.0
H2556 H 0.90524 0.3178 0.28661 0.0
C2557 C 0.96511 0.30184 0.30795 0.0
C2558 C 0.9161 0.27861 0.31221 0.0
C2559 C 0.98331 0.30316 0.31545 0.0
C2560 C 0.84293 0.27289 0.27579 0.0
C2561 C 0.86138 0.2739 0.28187 0.0
C2562 C 0.90798 0.30677 0.29383 0.0
C2563 C 0.95011 0.29483 0.31758 0.0
C2564 C 0.93064 0.29363 0.30986 0.0
C2565 C 0.87379 0.29085 0.28941 0.0
C2566 C 0.89343 0.29179 0.29631 0.0
H2567 H 0.97433 0.28608 0.35579 0.0
H2568 H 0.94285 0.28389 0.34288 0.0
H2569 H 0.93703 0.31955 0.29852 0.0
H2570 H 0.84409 0.31834 0.28565 0.0
H2571 H 0.87616 0.32007 0.29642 0.0
C2572 C 0.00964 0.70477 0.62751 0.0
C2573 C 0.00926 0.70544 0.64671 0.0
C2574 C 0.00977 0.68842 0.61666 0.0
C2575 C 0.99935 0.6377 0.61535 0.0
H2576 H 0.0319 0.64156 0.57716 0.0
C2577 C 0.01062 0.57352 0.57077 0.0
C2578 C 0.01217 0.57484 0.55193 0.0
C2579 C 0.01015 0.58899 0.58298 0.0
C2580 C 0.02256 0.64021 0.5876 0.0
H2581 H 0.00836 0.6893 0.66953 0.0
H2582 H 0.00858 0.66062 0.65052 0.0
H2583 H 0.03112 0.66914 0.59717 0.0
H2584 H 0.01405 0.5935 0.53118 0.0
H2585 H 0.01295 0.6202 0.55227 0.0
H2586 H 0.99071 0.60871 0.60562 0.0
C2587 C 0.0087 0.67278 0.64386 0.0
C2588 C 0.02213 0.65607 0.59911 0.0
C2589 C 0.00863 0.68923 0.65477 0.0
C2590 C 0.01298 0.59193 0.54559 0.0
C2591 C 0.01247 0.60734 0.55776 0.0
C2592 C 0.99974 0.62179 0.60376 0.0
C2593 C 0.0095 0.67224 0.62469 0.0
C2594 C 0.01038 0.65508 0.61301 0.0
C2595 C 0.01121 0.60616 0.57665 0.0
C2596 C 0.01122 0.62287 0.58959 0.0
H2597 H 0.01005 0.71697 0.62083 0.0
H2598 H 0.01004 0.68845 0.60191 0.0
H2599 H 0.99004 0.63645 0.62583 0.0
H2600 H 0.01 0.5606 0.57618 0.0
H2601 H 0.00932 0.58758 0.59746 0.0
C2602 C 0.59135 0.79413 0.82103 0.0
C2603 C 0.59138 0.80607 0.83715 0.0
C2604 C 0.60798 0.79276 0.81446 0.0
C2605 C 0.65812 0.81704 0.81821 0.0
H2606 H 0.66326 0.7688 0.7995 0.0
C2607 C 0.72916 0.80455 0.80404 0.0
C2608 C 0.72968 0.79149 0.789 0.0
C2609 C 0.71227 0.80674 0.8093 0.0
C2610 C 0.66206 0.78245 0.80443 0.0
H2611 H 0.60906 0.82609 0.85885 0.0
H2612 H 0.63788 0.82371 0.8475 0.0
H2613 H 0.63407 0.7719 0.80935 0.0
H2614 H 0.71255 0.77072 0.76754 0.0
H2615 H 0.68332 0.77472 0.77645 0.0
H2616 H 0.68611 0.82759 0.81331 0.0
C2617 C 0.62506 0.81549 0.83976 0.0
C2618 C 0.64522 0.78423 0.81011 0.0
C2619 C 0.60847 0.8168 0.84634 0.0
C2620 C 0.7128 0.78088 0.77924 0.0
C2621 C 0.69594 0.78308 0.78447 0.0
C2622 C 0.67495 0.81527 0.81249 0.0
C2623 C 0.62512 0.80335 0.82378 0.0
C2624 C 0.64298 0.80154 0.81717 0.0
C2625 C 0.69536 0.79595 0.79967 0.0
C2626 C 0.67725 0.79793 0.80556 0.0
H2627 H 0.57848 0.78565 0.8136 0.0
H2628 H 0.60738 0.78342 0.802 0.0
H2629 H 0.65693 0.83065 0.82327 0.0
H2630 H 0.74181 0.81297 0.81196 0.0
H2631 H 0.71252 0.81665 0.8212 0.0
C2632 C 0.47517 0.55351 0.71767 0.0
C2633 C 0.45955 0.53939 0.7193 0.0
C2634 C 0.48218 0.55486 0.70066 0.0
C2635 C 0.48118 0.52745 0.65528 0.0
H2636 H 0.49616 0.57511 0.63803 0.0
C2637 C 0.49335 0.53337 0.57977 0.0
C2638 C 0.50929 0.5463 0.57659 0.0
C2639 C 0.48758 0.53346 0.59734 0.0
C2640 C 0.49219 0.56173 0.64274 0.0
H2641 H 0.43907 0.51561 0.70445 0.0
H2642 H 0.45112 0.51804 0.67493 0.0
H2643 H 0.48625 0.57325 0.66879 0.0
H2644 H 0.53126 0.56997 0.58931 0.0
H2645 H 0.52115 0.57009 0.62003 0.0
H2646 H 0.48694 0.51589 0.62925 0.0
C2647 C 0.45817 0.52793 0.68676 0.0
C2648 C 0.48656 0.56066 0.66037 0.0
C2649 C 0.45119 0.52659 0.70368 0.0
C2650 C 0.51892 0.55979 0.59126 0.0
C2651 C 0.51311 0.5599 0.60887 0.0
C2652 C 0.48674 0.52851 0.63769 0.0
C2653 C 0.47372 0.54208 0.685 0.0
C2654 C 0.4808 0.54348 0.66676 0.0
C2655 C 0.49758 0.5465 0.61218 0.0
C2656 C 0.49212 0.54563 0.63112 0.0
H2657 H 0.48188 0.56358 0.72948 0.0
H2658 H 0.49429 0.56582 0.69981 0.0
H2659 H 0.4772 0.51403 0.6599 0.0
H2660 H 0.4855 0.52287 0.56878 0.0
H2661 H 0.47535 0.52318 0.59935 0.0
C2662 C 0.75029 0.18233 0.99636 0.0
C2663 C 0.76814 0.1799 0.99948 0.0
C2664 C 0.74721 0.19692 0.98743 0.0
C2665 C 0.77037 0.24245 0.97598 0.0
H2666 H 0.73122 0.23144 0.93505 0.0
C2667 C 0.7697 0.28621 0.917 0.0
C2668 C 0.75282 0.28647 0.90733 0.0
C2669 C 0.77009 0.27614 0.93183 0.0
C2670 C 0.74192 0.23492 0.94673 0.0
H2671 H 0.79679 0.19077 0.99581 0.0
H2672 H 0.79139 0.21629 0.98005 0.0
H2673 H 0.73494 0.2074 0.95354 0.0
H2674 H 0.72313 0.27775 0.90654 0.0
H2675 H 0.72379 0.26045 0.93284 0.0
H2676 H 0.77757 0.26991 0.96894 0.0
C2677 C 0.77982 0.20698 0.98468 0.0
C2678 C 0.7441 0.22108 0.95725 0.0
C2679 C 0.78288 0.1923 0.9935 0.0
C2680 C 0.73633 0.27776 0.91374 0.0
C2681 C 0.73672 0.26771 0.92866 0.0
C2682 C 0.7681 0.25635 0.96553 0.0
C2683 C 0.76195 0.20942 0.98157 0.0
C2684 C 0.75862 0.2246 0.97167 0.0
C2685 C 0.75361 0.26619 0.93738 0.0
C2686 C 0.75414 0.2526 0.95048 0.0
H2687 H 0.73867 0.17302 0.0009 0.0
H2688 H 0.73333 0.19854 0.98529 0.0
H2689 H 0.78147 0.24559 0.98725 0.0
H2690 H 0.78262 0.29309 0.91253 0.0
H2691 H 0.78334 0.27522 0.93814 0.0
C2692 C 0.11817 0.49362 0.20206 0.0
C2693 C 0.1366 0.50361 0.20249 0.0
C2694 C 0.10608 0.49016 0.18568 0.0
C2695 C 0.10387 0.49291 0.13513 0.0
H2696 H 0.06018 0.51 0.14216 0.0
C2697 C 0.07083 0.52824 0.08147 0.0
C2698 C 0.05154 0.52396 0.07777 0.0
C2699 C 0.07921 0.52114 0.09571 0.0
C2700 C 0.0721 0.50482 0.13994 0.0
H2701 H 0.15721 0.5166 0.18594 0.0
H2702 H 0.13621 0.51071 0.15749 0.0
H2703 H 0.07874 0.50429 0.16884 0.0
H2704 H 0.02588 0.50895 0.08628 0.0
H2705 H 0.04066 0.49679 0.11154 0.0
H2706 H 0.09771 0.4944 0.10632 0.0
C2707 C 0.13102 0.50542 0.16968 0.0
C2708 C 0.08271 0.50148 0.15521 0.0
C2709 C 0.14305 0.50893 0.18603 0.0
C2710 C 0.04079 0.51255 0.08881 0.0
C2711 C 0.04921 0.50557 0.10323 0.0
C2712 C 0.0933 0.49631 0.11989 0.0
C2713 C 0.11228 0.49655 0.16947 0.0
C2714 C 0.09909 0.49616 0.15303 0.0
C2715 C 0.06851 0.5097 0.1067 0.0
C2716 C 0.07771 0.50295 0.12225 0.0
H2717 H 0.11286 0.48929 0.21457 0.0
H2718 H 0.09176 0.48311 0.18587 0.0
H2719 H 0.11623 0.48849 0.13299 0.0
H2720 H 0.07956 0.53697 0.07326 0.0
H2721 H 0.09412 0.52487 0.09832 0.0
C2722 C 0.76694 0.84931 0.47941 0.0
C2723 C 0.78209 0.86311 0.48863 0.0
C2724 C 0.76732 0.84142 0.46129 0.0
C2725 C 0.79207 0.85051 0.42017 0.0
H2726 H 0.76784 0.79912 0.40293 0.0
C2727 C 0.7982 0.81554 0.34769 0.0
C2728 C 0.78146 0.80543 0.33737 0.0
C2729 C 0.79893 0.82163 0.36654 0.0
C2730 C 0.77461 0.81351 0.40755 0.0
H2731 H 0.80977 0.87902 0.4864 0.0
H2732 H 0.81071 0.86493 0.45521 0.0
H2733 H 0.76788 0.81144 0.43513 0.0
H2734 H 0.75249 0.79327 0.33894 0.0
H2735 H 0.75386 0.80373 0.3718 0.0
H2736 H 0.79894 0.85248 0.39261 0.0
C2737 C 0.79826 0.86053 0.46161 0.0
C2738 C 0.77457 0.82062 0.42599 0.0
C2739 C 0.79779 0.86853 0.47958 0.0
C2740 C 0.76561 0.80109 0.34645 0.0
C2741 C 0.76639 0.80698 0.36531 0.0
C2742 C 0.79228 0.84335 0.40182 0.0
C2743 C 0.78296 0.84704 0.45209 0.0
C2744 C 0.78323 0.83925 0.43254 0.0
C2745 C 0.783 0.81753 0.37552 0.0
C2746 C 0.78347 0.82481 0.39527 0.0
H2747 H 0.75463 0.84491 0.48603 0.0
H2748 H 0.75518 0.83125 0.45437 0.0
H2749 H 0.79855 0.865 0.42454 0.0
H2750 H 0.81065 0.81914 0.34112 0.0
H2751 H 0.81196 0.82961 0.3741 0.0
C2752 C 0.45015 0.53337 0.83516 0.0
C2753 C 0.46108 0.53632 0.82071 0.0
C2754 C 0.45807 0.53276 0.85297 0.0
C2755 C 0.50025 0.52768 0.88012 0.0
H2756 H 0.47944 0.5497 0.92038 0.0
C2757 C 0.51917 0.52067 0.95762 0.0
C2758 C 0.51917 0.53563 0.97078 0.0
C2759 C 0.51347 0.52078 0.93885 0.0
C2760 C 0.48564 0.54368 0.90936 0.0
H2761 H 0.4889 0.54072 0.81352 0.0
H2762 H 0.50295 0.54023 0.84493 0.0
H2763 H 0.46733 0.55031 0.8888 0.0
H2764 H 0.51442 0.56293 0.97447 0.0
H2765 H 0.50524 0.56342 0.94201 0.0
H2766 H 0.51903 0.52164 0.90092 0.0
C2767 C 0.48816 0.53805 0.84238 0.0
C2768 C 0.47845 0.54376 0.89116 0.0
C2769 C 0.48015 0.53846 0.82442 0.0
C2770 C 0.51421 0.551 0.96474 0.0
C2771 C 0.50884 0.55124 0.94607 0.0
C2772 C 0.5076 0.52774 0.89843 0.0
C2773 C 0.4772 0.53535 0.85692 0.0
C2774 C 0.48551 0.53564 0.87627 0.0
C2775 C 0.50791 0.53596 0.9329 0.0
C2776 C 0.50037 0.53576 0.9133 0.0
H2777 H 0.43536 0.53141 0.83271 0.0
H2778 H 0.4491 0.53018 0.86365 0.0
H2779 H 0.50595 0.52116 0.869 0.0
H2780 H 0.52296 0.50865 0.96189 0.0
H2781 H 0.51286 0.50873 0.92912 0.0
C2782 C 0.80745 0.19144 0.082 0.0
C2783 C 0.79072 0.17766 0.07865 0.0
C2784 C 0.80995 0.20624 0.09605 0.0
C2785 C 0.78313 0.23214 0.12165 0.0
H2786 H 0.82226 0.2426 0.16255 0.0
C2787 C 0.77347 0.25652 0.19469 0.0
C2788 C 0.78757 0.26981 0.20605 0.0
C2789 C 0.77621 0.24995 0.17699 0.0
C2790 C 0.81154 0.2402 0.15099 0.0
H2791 H 0.76379 0.16819 0.08767 0.0
H2792 H 0.76813 0.19392 0.11199 0.0
H2793 H 0.8233 0.22141 0.13513 0.0
H2794 H 0.8155 0.28697 0.20778 0.0
H2795 H 0.82044 0.27505 0.17667 0.0
H2796 H 0.77084 0.25008 0.13779 0.0
C2797 C 0.77921 0.19342 0.10368 0.0
C2798 C 0.81212 0.22807 0.13537 0.0
C2799 C 0.7768 0.17862 0.08987 0.0
C2800 C 0.80438 0.27674 0.19924 0.0
C2801 C 0.80723 0.26993 0.18153 0.0
C2802 C 0.78257 0.24424 0.13717 0.0
C2803 C 0.79564 0.20752 0.10667 0.0
C2804 C 0.79745 0.22331 0.12102 0.0
C2805 C 0.79317 0.25639 0.17033 0.0
C2806 C 0.7963 0.24766 0.15233 0.0
H2807 H 0.8184 0.191 0.07351 0.0
H2808 H 0.82278 0.21693 0.09826 0.0
H2809 H 0.77183 0.2289 0.11056 0.0
H2810 H 0.76035 0.25099 0.19956 0.0
H2811 H 0.76523 0.2393 0.16876 0.0
C2812 C 0.11655 0.54086 0.28577 0.0
C2813 C 0.13224 0.53475 0.29078 0.0
C2814 C 0.1054 0.54467 0.2991 0.0
C2815 C 0.09509 0.53509 0.34602 0.0
H2816 H 0.07425 0.57728 0.34614 0.0
C2817 C 0.06536 0.56052 0.40891 0.0
C2818 C 0.0469 0.56116 0.40575 0.0
C2819 C 0.07558 0.55927 0.39419 0.0
C2820 C 0.07992 0.56542 0.34614 0.0
H2821 H 0.14885 0.52817 0.31357 0.0
H2822 H 0.12979 0.53525 0.33684 0.0
H2823 H 0.0924 0.57052 0.32144 0.0
H2824 H 0.02504 0.56243 0.38493 0.0
H2825 H 0.04316 0.5604 0.35897 0.0
H2826 H 0.08306 0.53026 0.3709 0.0
C2827 C 0.1257 0.53662 0.32261 0.0
C2828 C 0.09022 0.56148 0.33201 0.0
C2829 C 0.13669 0.53264 0.30929 0.0
C2830 C 0.03924 0.56192 0.38771 0.0
C2831 C 0.04956 0.56076 0.3729 0.0
C2832 C 0.08504 0.53915 0.36017 0.0
C2833 C 0.10986 0.54256 0.31767 0.0
C2834 C 0.0981 0.54638 0.33196 0.0
C2835 C 0.06758 0.55877 0.37603 0.0
C2836 C 0.07758 0.55445 0.36048 0.0
H2837 H 0.11284 0.54261 0.27156 0.0
H2838 H 0.09319 0.54903 0.29482 0.0
H2839 H 0.10051 0.52308 0.34613 0.0
H2840 H 0.07173 0.56038 0.42275 0.0
H2841 H 0.08958 0.5581 0.39694 0.0
C2842 C 0.77704 0.84507 0.58861 0.0
C2843 C 0.77432 0.86279 0.58819 0.0
C2844 C 0.77635 0.83708 0.60502 0.0
C2845 C 0.76048 0.84116 0.65159 0.0
H2846 H 0.7967 0.81441 0.66416 0.0
C2847 C 0.77387 0.82073 0.72471 0.0
C2848 C 0.77625 0.80293 0.72556 0.0
C2849 C 0.77297 0.82767 0.70775 0.0
C2850 C 0.78637 0.82169 0.66077 0.0
H2851 H 0.76855 0.88594 0.60456 0.0
H2852 H 0.76764 0.8722 0.63313 0.0
H2853 H 0.796 0.82676 0.63476 0.0
H2854 H 0.77946 0.77843 0.7092 0.0
H2855 H 0.77788 0.79052 0.67978 0.0
H2856 H 0.75106 0.83629 0.67777 0.0
C2857 C 0.77 0.86429 0.62079 0.0
C2858 C 0.78592 0.82872 0.64388 0.0
C2859 C 0.77063 0.87222 0.60441 0.0
C2860 C 0.77766 0.79222 0.70909 0.0
C2861 C 0.77686 0.79918 0.6922 0.0
C2862 C 0.76099 0.8342 0.66852 0.0
C2863 C 0.77297 0.84666 0.62137 0.0
C2864 C 0.773 0.8386 0.63908 0.0
C2865 C 0.77455 0.81699 0.69132 0.0
C2866 C 0.77396 0.8244 0.67332 0.0
H2867 H 0.77987 0.83745 0.57632 0.0
H2868 H 0.77844 0.82338 0.60489 0.0
H2869 H 0.75014 0.84844 0.64824 0.0
H2870 H 0.77275 0.82935 0.73713 0.0
H2871 H 0.77135 0.84152 0.70755 0.0
C2872 C 0.72475 0.45098 0.49382 0.0
C2873 C 0.72103 0.43553 0.50336 0.0
C2874 C 0.71691 0.46561 0.49815 0.0
C2875 C 0.69996 0.48755 0.53717 0.0
H2876 H 0.67617 0.51081 0.5009 0.0
C2877 C 0.65187 0.53294 0.55552 0.0
C2878 C 0.65047 0.54713 0.54498 0.0
C2879 C 0.66349 0.52171 0.55129 0.0
C2880 C 0.68315 0.50475 0.51119 0.0
H2881 H 0.70547 0.42277 0.52413 0.0
H2882 H 0.69179 0.44831 0.53165 0.0
H2883 H 0.68928 0.4855 0.4906 0.0
H2884 H 0.66117 0.5617 0.52276 0.0
H2885 H 0.68181 0.54222 0.51554 0.0
H2886 H 0.69386 0.50667 0.55779 0.0
C2887 C 0.70092 0.44919 0.52102 0.0
C2888 C 0.69051 0.49018 0.50527 0.0
C2889 C 0.70862 0.43453 0.51659 0.0
C2890 C 0.66186 0.5507 0.53096 0.0
C2891 C 0.67357 0.53951 0.52678 0.0
C2892 C 0.69276 0.5022 0.54309 0.0
C2893 C 0.70538 0.46505 0.51219 0.0
C2894 C 0.6986 0.48121 0.51824 0.0
C2895 C 0.67402 0.5245 0.53649 0.0
C2896 C 0.68391 0.51071 0.53019 0.0
H2897 H 0.73429 0.4521 0.48355 0.0
H2898 H 0.72051 0.47769 0.49113 0.0
H2899 H 0.70651 0.48108 0.54742 0.0
H2900 H 0.64307 0.52969 0.56623 0.0
H2901 H 0.66331 0.51014 0.55891 0.0
C2902 C 0.2258 0.14239 0.52529 0.0
C2903 C 0.22823 0.15967 0.51898 0.0
C2904 C 0.20815 0.13077 0.52469 0.0
C2905 C 0.15915 0.13108 0.522 0.0
H2906 H 0.15051 0.07848 0.50716 0.0
C2907 C 0.08611 0.08258 0.51041 0.0
C2908 C 0.08369 0.06596 0.51808 0.0
C2909 C 0.10376 0.09353 0.50951 0.0
C2910 C 0.15275 0.09312 0.51148 0.0
H2911 H 0.21415 0.17833 0.50706 0.0
H2912 H 0.18333 0.15797 0.50584 0.0
H2913 H 0.18132 0.09873 0.50778 0.0
H2914 H 0.09795 0.04758 0.53034 0.0
H2915 H 0.1288 0.0668 0.52886 0.0
H2916 H 0.13062 0.1255 0.52575 0.0
C2917 C 0.19503 0.15349 0.51148 0.0
C2918 C 0.17039 0.10472 0.51186 0.0
C2919 C 0.21269 0.16512 0.5121 0.0
C2920 C 0.09933 0.06029 0.52434 0.0
C2921 C 0.11701 0.07127 0.52343 0.0
C2922 C 0.14152 0.11951 0.5216 0.0
C2923 C 0.19256 0.13617 0.51775 0.0
C2924 C 0.17379 0.12383 0.51716 0.0
C2925 C 0.11941 0.08814 0.51625 0.0
C2926 C 0.13812 0.10039 0.51635 0.0
H2927 H 0.23754 0.13784 0.53071 0.0
H2928 H 0.20671 0.11763 0.52987 0.0
H2929 H 0.16136 0.1457 0.52645 0.0
H2930 H 0.07437 0.08733 0.50535 0.0
H2931 H 0.10516 0.10631 0.50362 0.0
C2932 C 0.15179 0.97775 0.77254 0.0
C2933 C 0.16053 0.9964 0.77216 0.0
C2934 C 0.16145 0.96425 0.76983 0.0
C2935 C 0.20355 0.95588 0.75188 0.0
H2936 H 0.19739 0.91762 0.78392 0.0
C2937 C 0.25395 0.90989 0.75916 0.0
C2938 C 0.24632 0.89098 0.75957 0.0
C2939 C 0.24287 0.92226 0.75994 0.0
C2940 C 0.19911 0.92809 0.77473 0.0
H2941 H 0.18613 0.01553 0.76841 0.0
H2942 H 0.20302 0.99209 0.76394 0.0
H2943 H 0.17889 0.93994 0.78621 0.0
H2944 H 0.22096 0.87025 0.76085 0.0
H2945 H 0.20171 0.89189 0.76243 0.0
H2946 H 0.22399 0.94418 0.74062 0.0
C2947 C 0.18865 0.98779 0.76604 0.0
C2948 C 0.18848 0.94086 0.776 0.0
C2949 C 0.179 1.00125 0.76871 0.0
C2950 C 0.22735 0.88476 0.76083 0.0
C2951 C 0.2163 0.89714 0.76169 0.0
C2952 C 0.21422 0.94316 0.75066 0.0
C2953 C 0.18005 0.96914 0.76671 0.0
C2954 C 0.19067 0.95499 0.76469 0.0
C2955 C 0.22393 0.91602 0.76122 0.0
C2956 C 0.21221 0.92921 0.76216 0.0
H2957 H 0.13754 0.9736 0.77512 0.0
H2958 H 0.15434 0.94997 0.77017 0.0
H2959 H 0.20537 0.96639 0.74274 0.0
H2960 H 0.26854 0.9152 0.75848 0.0
H2961 H 0.24921 0.93677 0.75984 0.0
C2962 C 0.31999 0.92036 0.9945 0.0
C2963 C 0.30611 0.92903 0.98956 0.0
C2964 C 0.33849 0.92949 0.99471 0.0
C2965 C 0.3692 0.97604 0.9994 0.0
H2966 H 0.40462 0.9502 0.98296 0.0
C2967 C 0.44591 0.01271 0.99924 0.0
C2968 C 0.45875 0.00345 0.00581 0.0
C2969 C 0.42716 0.00379 0.99605 0.0
C2970 C 0.3949 0.95755 0.98773 0.0
H2971 H 0.30059 0.9538 0.98051 0.0
H2972 H 0.33301 0.96973 0.98074 0.0
H2973 H 0.37193 0.9342 0.97888 0.0
H2974 H 0.46197 0.97759 0.01426 0.0
H2975 H 0.42921 0.96211 0.00887 0.0
H2976 H 0.39217 0.99932 0.00847 0.0
C2977 C 0.32957 0.95597 0.98466 0.0
C2978 C 0.3762 0.94841 0.98538 0.0
C2979 C 0.31104 0.94682 0.98443 0.0
C2980 C 0.45244 0.9851 0.00916 0.0
C2981 C 0.43369 0.97619 0.00595 0.0
C2982 C 0.38789 0.98518 0.00176 0.0
C2983 C 0.34349 0.94746 0.98999 0.0
C2984 C 0.36318 0.9575 0.99136 0.0
C2985 C 0.42086 0.98543 0.99934 0.0
C2986 C 0.40095 0.97597 0.99612 0.0
H2987 H 0.31659 0.90666 0.99855 0.0
H2988 H 0.3489 0.92265 0.9991 0.0
H2989 H 0.35952 0.98332 0.0044 0.0
H2990 H 0.45033 0.02684 0.99647 0.0
H2991 H 0.4176 0.0112 0.99079 0.0
C2992 C 0.84954 0.57727 0.769 0.0
C2993 C 0.86838 0.58608 0.77008 0.0
C2994 C 0.83642 0.58425 0.75953 0.0
C2995 C 0.83 0.61338 0.72377 0.0
H2996 H 0.79035 0.62255 0.75031 0.0
C2997 C 0.79214 0.66832 0.70915 0.0
C2998 C 0.77504 0.66734 0.71575 0.0
C2999 C 0.80077 0.65408 0.7107 0.0
C3000 C 0.80094 0.61963 0.74236 0.0
H3001 H 0.88835 0.60899 0.76207 0.0
H3002 H 0.86532 0.62123 0.74547 0.0
H3003 H 0.81135 0.60655 0.76393 0.0
H3004 H 0.75238 0.64926 0.72646 0.0
H3005 H 0.76683 0.62407 0.7279 0.0
H3006 H 0.81973 0.62667 0.70226 0.0
C3007 C 0.86076 0.60887 0.75187 0.0
C3008 C 0.81309 0.61057 0.75031 0.0
C3009 C 0.87389 0.602 0.76153 0.0
C3010 C 0.76561 0.65069 0.72137 0.0
C3011 C 0.77406 0.63628 0.72251 0.0
C3012 C 0.81767 0.62226 0.71567 0.0
C3013 C 0.84192 0.60004 0.75079 0.0
C3014 C 0.828 0.60781 0.74132 0.0
C3015 C 0.79226 0.63836 0.71847 0.0
C3016 C 0.80329 0.62595 0.72512 0.0
H3017 H 0.84493 0.56492 0.7754 0.0
H3018 H 0.82197 0.5772 0.75888 0.0
H3019 H 0.84127 0.61114 0.71646 0.0
H3020 H 0.79953 0.68068 0.70412 0.0
H3021 H 0.81472 0.65617 0.70725 0.0
C3022 C 0.84142 0.67599 0.03375 0.0
C3023 C 0.82525 0.66877 0.02135 0.0
C3024 C 0.85464 0.66596 0.03574 0.0
C3025 C 0.87108 0.6283 0.01265 0.0
H3026 H 0.8886 0.62197 0.06237 0.0
C3027 C 0.91003 0.57336 0.02597 0.0
C3028 C 0.92471 0.57778 0.04032 0.0
C3029 C 0.89853 0.58514 0.02376 0.0
C3030 C 0.88409 0.6238 0.0484 0.0
H3031 H 0.81048 0.64569 0.00092 0.0
H3032 H 0.83364 0.6283 0.00424 0.0
H3033 H 0.86804 0.64196 0.05787 0.0
H3034 H 0.93891 0.59801 0.0636 0.0
H3035 H 0.91901 0.61877 0.05962 0.0
H3036 H 0.88714 0.61029 0.00311 0.0
C3037 C 0.8361 0.64168 0.01242 0.0
C3038 C 0.87229 0.63526 0.04583 0.0
C3039 C 0.82281 0.65161 0.01058 0.0
C3040 C 0.92755 0.59415 0.05254 0.0
C3041 C 0.91614 0.60603 0.05025 0.0
C3042 C 0.88298 0.61698 0.0152 0.0
C3043 C 0.85204 0.64863 0.0252 0.0
C3044 C 0.8655 0.63745 0.02793 0.0
C3045 C 0.90154 0.60171 0.03576 0.0
C3046 C 0.88946 0.61439 0.03311 0.0
H3047 H 0.84364 0.68918 0.04225 0.0
H3048 H 0.86688 0.67171 0.04558 0.0
H3049 H 0.86625 0.62994 0.99869 0.0
H3050 H 0.90734 0.56071 0.01649 0.0
H3051 H 0.88719 0.58115 0.01271 0.0
C3052 C 0.18694 0.09431 0.80284 0.0
C3053 C 0.16774 0.09126 0.79917 0.0
C3054 C 0.1984 0.11221 0.80523 0.0
C3055 C 0.19817 0.16171 0.81307 0.0
H3056 H 0.24154 0.16874 0.78729 0.0
C3057 C 0.23306 0.23062 0.7896 0.0
C3058 C 0.25241 0.23636 0.79178 0.0
C3059 C 0.22399 0.21327 0.79354 0.0
C3060 C 0.22966 0.16698 0.79482 0.0
H3061 H 0.14544 0.1045 0.79563 0.0
H3062 H 0.1654 0.13567 0.79937 0.0
H3063 H 0.22323 0.13761 0.78886 0.0
H3064 H 0.27744 0.22846 0.80005 0.0
H3065 H 0.26149 0.19787 0.80671 0.0
H3066 H 0.20427 0.19118 0.81832 0.0
C3067 C 0.17165 0.12433 0.80076 0.0
C3068 C 0.21916 0.14914 0.79576 0.0
C3069 C 0.16019 0.10645 0.79849 0.0
C3070 C 0.26252 0.22442 0.79822 0.0
C3071 C 0.25341 0.20692 0.80197 0.0
C3072 C 0.2086 0.17955 0.812 0.0
C3073 C 0.19092 0.12742 0.80389 0.0
C3074 C 0.20309 0.1463 0.8046 0.0
C3075 C 0.23406 0.20118 0.79961 0.0
C3076 C 0.22424 0.18235 0.80256 0.0
H3077 H 0.19313 0.08285 0.80356 0.0
H3078 H 0.21316 0.11411 0.80792 0.0
H3079 H 0.1861 0.16002 0.8203 0.0
H3080 H 0.22485 0.23953 0.78478 0.0
H3081 H 0.20907 0.20913 0.79138 0.0
C3082 C 0.39213 0.98704 0.30116 0.0
C3083 C 0.38511 1.00073 0.31018 0.0
C3084 C 0.3832 0.96843 0.30063 0.0
C3085 C 0.33701 0.93931 0.30152 0.0
H3086 H 0.36181 0.90019 0.30433 0.0
C3087 C 0.29741 0.86278 0.29584 0.0
C3088 C 0.30453 0.84986 0.28565 0.0
C3089 C 0.30742 0.88121 0.29983 0.0
C3090 C 0.35472 0.91097 0.30332 0.0
H3091 H 0.36396 0.00573 0.32668 0.0
H3092 H 0.34841 0.97317 0.32584 0.0
H3093 H 0.3797 0.93233 0.31105 0.0
H3094 H 0.3275 0.84622 0.27118 0.0
H3095 H 0.3448 0.87847 0.27785 0.0
H3096 H 0.31209 0.91806 0.29344 0.0
C3097 C 0.36066 0.97685 0.31896 0.0
C3098 C 0.36495 0.92934 0.30725 0.0
C3099 C 0.36962 0.99547 0.31954 0.0
C3100 C 0.32167 0.85582 0.27915 0.0
C3101 C 0.33166 0.87426 0.28309 0.0
C3102 C 0.32679 0.92097 0.29754 0.0
C3103 C 0.36707 0.96318 0.30907 0.0
C3104 C 0.3562 0.94369 0.30627 0.0
C3105 C 0.32473 0.88711 0.29365 0.0
C3106 C 0.33555 0.90659 0.29826 0.0
H3107 H 0.40407 0.99072 0.29384 0.0
H3108 H 0.3884 0.95821 0.2928 0.0
H3109 H 0.32993 0.95008 0.30031 0.0
H3110 H 0.28429 0.85863 0.30115 0.0
H3111 H 0.30179 0.89074 0.30814 0.0
C3112 C 0.54623 0.35318 0.57839 0.0
C3113 C 0.55714 0.35405 0.59528 0.0
C3114 C 0.5448 0.36938 0.57109 0.0
C3115 C 0.56752 0.4201 0.57497 0.0
H3116 H 0.52033 0.42256 0.55108 0.0
C3117 C 0.55388 0.48944 0.55719 0.0
C3118 C 0.54226 0.48934 0.54095 0.0
C3119 C 0.55607 0.47289 0.56311 0.0
C3120 C 0.53371 0.42212 0.55747 0.0
H3121 H 0.57518 0.37285 0.61764 0.0
H3122 H 0.57265 0.40091 0.6051 0.0
H3123 H 0.52347 0.39411 0.56238 0.0
H3124 H 0.524 0.47137 0.51816 0.0
H3125 H 0.52797 0.44266 0.52831 0.0
H3126 H 0.57775 0.44811 0.57013 0.0
C3127 C 0.56534 0.38775 0.59726 0.0
C3128 C 0.53552 0.40569 0.564 0.0
C3129 C 0.56673 0.37158 0.60455 0.0
C3130 C 0.53305 0.47212 0.53074 0.0
C3131 C 0.53523 0.45556 0.53668 0.0
C3132 C 0.56571 0.43651 0.56845 0.0
C3133 C 0.55426 0.38697 0.58045 0.0
C3134 C 0.55244 0.4044 0.57296 0.0
C3135 C 0.54671 0.45563 0.55303 0.0
C3136 C 0.54875 0.43787 0.55965 0.0
H3137 H 0.53863 0.33996 0.57085 0.0
H3138 H 0.53633 0.36808 0.55802 0.0
H3139 H 0.58087 0.41969 0.58145 0.0
H3140 H 0.56118 0.50235 0.56552 0.0
H3141 H 0.56484 0.47367 0.57589 0.0
C3142 C 0.44696 0.76364 0.38858 0.0
C3143 C 0.44948 0.76927 0.40776 0.0
C3144 C 0.43105 0.76457 0.37765 0.0
C3145 C 0.38331 0.77011 0.38001 0.0
H3146 H 0.38883 0.78467 0.33124 0.0
C3147 C 0.32593 0.79118 0.3353 0.0
C3148 C 0.32295 0.78458 0.31628 0.0
C3149 C 0.34086 0.78861 0.34664 0.0
C3150 C 0.38699 0.78041 0.34475 0.0
H3151 H 0.4371 0.7801 0.43053 0.0
H3152 H 0.40955 0.78211 0.41148 0.0
H3153 H 0.41555 0.78145 0.35061 0.0
H3154 H 0.33341 0.76995 0.29435 0.0
H3155 H 0.35946 0.76559 0.31406 0.0
H3156 H 0.35474 0.76948 0.37416 0.0
C3157 C 0.41968 0.77663 0.40485 0.0
C3158 C 0.40234 0.77849 0.35588 0.0
C3159 C 0.43554 0.77555 0.4158 0.0
C3160 C 0.33525 0.77525 0.30891 0.0
C3161 C 0.35027 0.77284 0.32021 0.0
C3162 C 0.36797 0.77218 0.36891 0.0
C3163 C 0.41727 0.77133 0.38556 0.0
C3164 C 0.40075 0.77326 0.37368 0.0
C3165 C 0.35332 0.77953 0.3392 0.0
C3166 C 0.3696 0.77731 0.35111 0.0
H3167 H 0.45739 0.75865 0.38195 0.0
H3168 H 0.4296 0.75997 0.36295 0.0
H3169 H 0.38141 0.7658 0.39349 0.0
H3170 H 0.31675 0.79841 0.34149 0.0
H3171 H 0.34287 0.79407 0.36117 0.0
C3172 C 0.03758 0.73681 0.10409 0.0
C3173 C 0.04823 0.75128 0.09603 0.0
C3174 C 0.03603 0.71834 0.09732 0.0
C3175 C 0.05906 0.68811 0.07005 0.0
H3176 H 0.01244 0.65178 0.06853 0.0
C3177 C 0.04784 0.61114 0.03894 0.0
C3178 C 0.03669 0.59751 0.04763 0.0
C3179 C 0.04935 0.62996 0.04425 0.0
C3180 C 0.02565 0.66165 0.06906 0.0
H3181 H 0.06557 0.75754 0.07437 0.0
H3182 H 0.06282 0.72523 0.06244 0.0
H3183 H 0.01467 0.68417 0.07839 0.0
H3184 H 0.01853 0.59325 0.06896 0.0
H3185 H 0.02137 0.62585 0.07835 0.0
H3186 H 0.07007 0.66553 0.06086 0.0
C3187 C 0.05575 0.72821 0.07414 0.0
C3188 C 0.02693 0.68032 0.07471 0.0
C3189 C 0.05722 0.74675 0.08089 0.0
C3190 C 0.02722 0.60327 0.06187 0.0
C3191 C 0.02874 0.62206 0.06719 0.0
C3192 C 0.05779 0.6694 0.06443 0.0
C3193 C 0.04514 0.71371 0.08229 0.0
C3194 C 0.04367 0.69385 0.07543 0.0
C3195 C 0.03975 0.63573 0.05841 0.0
C3196 C 0.04109 0.65583 0.06398 0.0
H3197 H 0.03052 0.73973 0.11583 0.0
H3198 H 0.02797 0.70767 0.10418 0.0
H3199 H 0.07225 0.69803 0.07062 0.0
H3200 H 0.05529 0.6073 0.02787 0.0
H3201 H 0.0578 0.63997 0.03698 0.0
C3202 C 0.06347 0.2836 0.91701 0.0
C3203 C 0.04506 0.27686 0.90893 0.0
C3204 C 0.07796 0.28471 0.90615 0.0
C3205 C 0.08817 0.28558 0.85742 0.0
H3206 H 0.13356 0.27505 0.87668 0.0
C3207 C 0.14641 0.28112 0.81207 0.0
C3208 C 0.16459 0.28964 0.82012 0.0
C3209 C 0.13177 0.27905 0.82281 0.0
C3210 C 0.12104 0.2782 0.87115 0.0
H3211 H 0.02743 0.26582 0.88312 0.0
H3212 H 0.05263 0.26742 0.86423 0.0
H3213 H 0.10823 0.27234 0.89549 0.0
H3214 H 0.18161 0.30225 0.84595 0.0
H3215 H 0.15611 0.29877 0.86461 0.0
H3216 H 0.10099 0.29133 0.83304 0.0
C3217 C 0.05594 0.27219 0.87891 0.0
C3218 C 0.10649 0.27668 0.88196 0.0
C3219 C 0.04147 0.27115 0.88976 0.0
C3220 C 0.16777 0.2958 0.83924 0.0
C3221 C 0.15316 0.29363 0.84999 0.0
C3222 C 0.10269 0.28701 0.84658 0.0
C3223 C 0.0744 0.27904 0.88692 0.0
C3224 C 0.08986 0.28041 0.87529 0.0
C3225 C 0.13495 0.28532 0.84191 0.0
C3226 C 0.11934 0.28341 0.85333 0.0
H3227 H 0.06671 0.28818 0.93173 0.0
H3228 H 0.09194 0.29032 0.91281 0.0
H3229 H 0.07573 0.28887 0.8519 0.0
H3230 H 0.14343 0.27634 0.79737 0.0
H3231 H 0.11796 0.27242 0.81615 0.0
C3232 C 0.53311 0.74419 0.88512 0.0
C3233 C 0.53946 0.7627 0.89322 0.0
C3234 C 0.53159 0.72986 0.89608 0.0
C3235 C 0.52784 0.72041 0.94444 0.0
H3236 H 0.54216 0.67596 0.92801 0.0
C3237 C 0.53335 0.66599 0.99304 0.0
C3238 C 0.52713 0.64726 0.98562 0.0
C3239 C 0.5348 0.67981 0.98153 0.0
C3240 C 0.53789 0.68818 0.93272 0.0
H3241 H 0.54941 0.78067 0.91914 0.0
H3242 H 0.54693 0.75579 0.93817 0.0
H3243 H 0.54476 0.70042 0.90835 0.0
H3244 H 0.51741 0.62845 0.96017 0.0
H3245 H 0.5199 0.65255 0.9401 0.0
H3246 H 0.52096 0.70822 0.96878 0.0
C3247 C 0.54286 0.75228 0.92341 0.0
C3248 C 0.53939 0.70222 0.92144 0.0
C3249 C 0.54439 0.76656 0.91247 0.0
C3250 C 0.52249 0.64272 0.96635 0.0
C3251 C 0.52393 0.65655 0.95482 0.0
C3252 C 0.52634 0.70638 0.95571 0.0
C3253 C 0.53636 0.73373 0.91539 0.0
C3254 C 0.53447 0.71857 0.92719 0.0
C3255 C 0.53005 0.6753 0.96226 0.0
C3256 C 0.53142 0.69011 0.95006 0.0
H3257 H 0.52917 0.74076 0.87033 0.0
H3258 H 0.52637 0.71576 0.88944 0.0
H3259 H 0.52359 0.73264 0.94919 0.0
H3260 H 0.53737 0.67001 0.00776 0.0
H3261 H 0.5399 0.69407 0.98773 0.0
C3262 C 0.0748 0.7617 0.71947 0.0
C3263 C 0.06947 0.76258 0.70074 0.0
C3264 C 0.09331 0.76304 0.72591 0.0
C3265 C 0.13711 0.75722 0.70959 0.0
H3266 H 0.16031 0.78708 0.75595 0.0
C3267 C 0.21149 0.75918 0.74099 0.0
C3268 C 0.22301 0.77654 0.74865 0.0
C3269 C 0.19262 0.75696 0.73561 0.0
C3270 C 0.15408 0.77872 0.74293 0.0
H3271 H 0.07954 0.7656 0.67415 0.0
H3272 H 0.11154 0.76788 0.6853 0.0
H3273 H 0.12782 0.78428 0.74582 0.0
H3274 H 0.22345 0.80518 0.75672 0.0
H3275 H 0.19073 0.80131 0.74739 0.0
H3276 H 0.16338 0.75184 0.70656 0.0
C3277 C 0.10148 0.76602 0.69504 0.0
C3278 C 0.13536 0.77696 0.73721 0.0
C3279 C 0.08309 0.76484 0.68866 0.0
C3280 C 0.21509 0.79159 0.75085 0.0
C3281 C 0.19623 0.78934 0.74562 0.0
C3282 C 0.15576 0.75885 0.71538 0.0
C3283 C 0.1069 0.7651 0.71374 0.0
C3284 C 0.12664 0.76633 0.72036 0.0
C3285 C 0.1847 0.77201 0.7379 0.0
C3286 C 0.16458 0.76975 0.73206 0.0
H3287 H 0.06467 0.75994 0.72914 0.0
H3288 H 0.09692 0.76215 0.74038 0.0
H3289 H 0.13086 0.74874 0.69663 0.0
H3290 H 0.21704 0.74725 0.73912 0.0
H3291 H 0.18417 0.74337 0.72988 0.0
C3292 C 0.03821 0.3716 0.37945 0.0
C3293 C 0.04396 0.35796 0.38831 0.0
C3294 C 0.0363 0.38764 0.38979 0.0
C3295 C 0.03004 0.40518 0.43755 0.0
H3296 H 0.04205 0.45313 0.42051 0.0
C3297 C 0.03268 0.47163 0.48543 0.0
C3298 C 0.0248 0.48489 0.4782 0.0
C3299 C 0.03501 0.45662 0.47385 0.0
C3300 C 0.03845 0.4398 0.42537 0.0
H3301 H 0.0529 0.35082 0.41488 0.0
H3302 H 0.05005 0.37882 0.43279 0.0
H3303 H 0.04668 0.42634 0.40151 0.0
H3304 H 0.01352 0.49281 0.45292 0.0
H3305 H 0.01763 0.46651 0.43267 0.0
H3306 H 0.02197 0.41859 0.46143 0.0
C3307 C 0.04652 0.37702 0.41793 0.0
C3308 C 0.0411 0.42441 0.41447 0.0
C3309 C 0.04832 0.36099 0.40763 0.0
C3310 C 0.01956 0.48284 0.45899 0.0
C3311 C 0.02202 0.46782 0.44736 0.0
C3312 C 0.02749 0.42052 0.44844 0.0
C3313 C 0.04015 0.39043 0.40922 0.0
C3314 C 0.03707 0.4069 0.4205 0.0
C3315 C 0.02963 0.45443 0.45469 0.0
C3316 C 0.03179 0.43806 0.44259 0.0
H3317 H 0.03466 0.36963 0.36458 0.0
H3318 H 0.03124 0.39756 0.38258 0.0
H3319 H 0.02631 0.39189 0.44248 0.0
H3320 H 0.03696 0.47273 0.50012 0.0
H3321 H 0.04119 0.44676 0.47995 0.0
C3322 C 0.44811 0.2565 0.18945 0.0
C3323 C 0.46343 0.25453 0.20078 0.0
C3324 C 0.43176 0.25739 0.1967 0.0
C3325 C 0.40502 0.24702 0.23627 0.0
H3326 H 0.38064 0.28288 0.21911 0.0
C3327 C 0.33147 0.25154 0.25351 0.0
C3328 C 0.32894 0.26938 0.2574 0.0
C3329 C 0.34793 0.24897 0.24728 0.0
C3330 C 0.38726 0.27284 0.22417 0.0
H3331 H 0.4733 0.25159 0.22873 0.0
H3332 H 0.44463 0.25315 0.24148 0.0
H3333 H 0.40911 0.28003 0.20749 0.0
H3334 H 0.34217 0.2985 0.25806 0.0
H3335 H 0.37044 0.29403 0.24738 0.0
H3336 H 0.38308 0.24002 0.25313 0.0
C3337 C 0.44531 0.25393 0.22688 0.0
C3338 C 0.40357 0.27106 0.21732 0.0
C3339 C 0.4618 0.25313 0.2196 0.0
C3340 C 0.34342 0.28451 0.25513 0.0
C3341 C 0.35971 0.28196 0.24887 0.0
C3342 C 0.38855 0.24872 0.24306 0.0
C3343 C 0.43011 0.2563 0.21556 0.0
C3344 C 0.41274 0.25814 0.22324 0.0
C3345 C 0.3622 0.26417 0.24466 0.0
C3346 C 0.37948 0.26175 0.23717 0.0
H3347 H 0.44877 0.25753 0.17488 0.0
H3348 H 0.42033 0.25888 0.18744 0.0
H3349 H 0.41158 0.23682 0.24106 0.0
H3350 H 0.32069 0.23954 0.25509 0.0
H3351 H 0.34928 0.23506 0.24411 0.0
C3352 C 0.59301 0.53173 0.33833 0.0
C3353 C 0.61154 0.53223 0.33682 0.0
C3354 C 0.58637 0.53119 0.35553 0.0
C3355 C 0.59709 0.52147 0.40351 0.0
H3356 H 0.56286 0.55078 0.41455 0.0
C3357 C 0.57416 0.53437 0.47661 0.0
C3358 C 0.55527 0.53309 0.47694 0.0
C3359 C 0.58156 0.53377 0.45974 0.0
C3360 C 0.5723 0.5424 0.41163 0.0
H3361 H 0.6376 0.53232 0.35209 0.0
H3362 H 0.62613 0.53169 0.3821 0.0
H3363 H 0.57445 0.55041 0.38464 0.0
H3364 H 0.52932 0.52976 0.4597 0.0
H3365 H 0.54218 0.52871 0.43059 0.0
H3366 H 0.595 0.51365 0.43071 0.0
C3367 C 0.61661 0.53142 0.37001 0.0
C3368 C 0.5789 0.54213 0.39444 0.0
C3369 C 0.62322 0.53188 0.3528 0.0
C3370 C 0.54395 0.53091 0.46005 0.0
C3371 C 0.55133 0.5304 0.4433 0.0
C3372 C 0.59054 0.52182 0.42078 0.0
C3373 C 0.59814 0.53124 0.37163 0.0
C3374 C 0.59127 0.53155 0.39007 0.0
C3375 C 0.57023 0.53202 0.44293 0.0
C3376 C 0.57794 0.53217 0.42496 0.0
H3377 H 0.58366 0.5319 0.32625 0.0
H3378 H 0.57198 0.53072 0.35619 0.0
H3379 H 0.60646 0.51302 0.40056 0.0
H3380 H 0.58326 0.53606 0.48936 0.0
H3381 H 0.5962 0.53512 0.45989 0.0
C3382 C 0.26862 0.85939 0.03504 0.0
C3383 C 0.25799 0.87224 0.03662 0.0
C3384 C 0.27297 0.85088 0.05026 0.0
C3385 C 0.27724 0.85848 0.10108 0.0
H3386 H 0.27823 0.8071 0.09761 0.0
C3387 C 0.28307 0.82231 0.16517 0.0
C3388 C 0.29573 0.81144 0.16608 0.0
C3389 C 0.27876 0.82905 0.14884 0.0
C3390 C 0.27819 0.82151 0.0987 0.0
H3391 H 0.24276 0.88559 0.05495 0.0
H3392 H 0.24995 0.87044 0.08134 0.0
H3393 H 0.26936 0.81972 0.06976 0.0
H3394 H 0.31361 0.79888 0.15047 0.0
H3395 H 0.30589 0.81065 0.12169 0.0
H3396 H 0.28584 0.86027 0.12997 0.0
C3397 C 0.25537 0.86729 0.06854 0.0
C3398 C 0.27311 0.82873 0.0828 0.0
C3399 C 0.25115 0.87587 0.0534 0.0
C3400 C 0.30374 0.80716 0.15015 0.0
C3401 C 0.29934 0.81387 0.13371 0.0
C3402 C 0.2822 0.85127 0.11691 0.0
C3403 C 0.26666 0.85502 0.06727 0.0
C3404 C 0.2724 0.84725 0.08389 0.0
C3405 C 0.28692 0.82501 0.133 0.0
C3406 C 0.28255 0.83269 0.11592 0.0
H3407 H 0.27409 0.85638 0.02223 0.0
H3408 H 0.28178 0.84156 0.04888 0.0
H3409 H 0.27729 0.87293 0.1023 0.0
H3410 H 0.27627 0.82543 0.17705 0.0
H3411 H 0.26886 0.83731 0.14855 0.0
C3412 C 0.9581 0.57729 0.84473 0.0
C3413 C 0.93962 0.57802 0.84317 0.0
C3414 C 0.96779 0.57798 0.86202 0.0
C3415 C 0.96732 0.587 0.91263 0.0
H3416 H 0.99182 0.54743 0.91298 0.0
C3417 C 0.98987 0.55971 0.97953 0.0
C3418 C 0.0066 0.55457 0.9806 0.0
C3419 C 0.98278 0.5648 0.96317 0.0
C3420 C 0.98533 0.55875 0.91313 0.0
H3421 H 0.91712 0.58135 0.85846 0.0
H3422 H 0.93403 0.58226 0.88883 0.0
H3423 H 0.97804 0.55358 0.88387 0.0
H3424 H 0.02926 0.55127 0.96548 0.0
H3425 H 0.01702 0.56035 0.93707 0.0
H3426 H 0.97446 0.59193 0.94206 0.0
C3427 C 0.94107 0.58132 0.87667 0.0
C3428 C 0.97744 0.5623 0.89642 0.0
C3429 C 0.93137 0.58076 0.8593 0.0
C3430 C 0.01624 0.55494 0.96507 0.0
C3431 C 0.0092 0.56011 0.94876 0.0
C3432 C 0.9753 0.58348 0.92942 0.0
C3433 C 0.95915 0.57923 0.87812 0.0
C3434 C 0.96831 0.57642 0.89596 0.0
C3435 C 0.99231 0.56491 0.94756 0.0
C3436 C 0.98433 0.56925 0.92983 0.0
H3437 H 0.96487 0.57542 0.83251 0.0
H3438 H 0.98185 0.57677 0.86275 0.0
H3439 H 0.96044 0.59803 0.91267 0.0
H3440 H 0.98211 0.5596 0.99126 0.0
H3441 H 0.96963 0.56821 0.96262 0.0
C3442 C 0.29494 0.22169 0.58569 0.0
C3443 C 0.28435 0.22511 0.5703 0.0
C3444 C 0.29411 0.22997 0.60345 0.0
C3445 C 0.26386 0.25013 0.63118 0.0
H3446 H 0.30779 0.2659 0.66685 0.0
C3447 C 0.26381 0.28023 0.7081 0.0
C3448 C 0.27438 0.27357 0.7213 0.0
C3449 C 0.26479 0.27609 0.68913 0.0
C3450 C 0.29536 0.26146 0.6571 0.0
H3451 H 0.26478 0.24019 0.56145 0.0
H3452 H 0.26336 0.25477 0.59263 0.0
H3453 H 0.3104 0.2561 0.63468 0.0
H3454 H 0.29408 0.25709 0.72473 0.0
H3455 H 0.29562 0.24987 0.69199 0.0
H3456 H 0.24881 0.25523 0.65379 0.0
C3457 C 0.27223 0.24556 0.5909 0.0
C3458 C 0.29686 0.25585 0.63864 0.0
C3459 C 0.27315 0.23733 0.57304 0.0
C3460 C 0.28575 0.26253 0.71506 0.0
C3461 C 0.28677 0.25849 0.69622 0.0
C3462 C 0.26235 0.25576 0.64972 0.0
C3463 C 0.28261 0.24186 0.60634 0.0
C3464 C 0.2811 0.24972 0.62551 0.0
C3465 C 0.27646 0.26534 0.683 0.0
C3466 C 0.27805 0.2611 0.66297 0.0
H3467 H 0.30365 0.2123 0.58406 0.0
H3468 H 0.30209 0.22658 0.61502 0.0
H3469 H 0.25142 0.24536 0.62147 0.0
H3470 H 0.25494 0.28879 0.71241 0.0
H3471 H 0.25671 0.28162 0.67929 0.0
C3472 C 0.61045 0.55396 0.22517 0.0
C3473 C 0.60456 0.53903 0.23504 0.0
C3474 C 0.6017 0.55415 0.20757 0.0
C3475 C 0.57548 0.52349 0.16702 0.0
H3476 H 0.56336 0.56758 0.15281 0.0
C3477 C 0.54024 0.52414 0.09396 0.0
C3478 C 0.54593 0.5401 0.08548 0.0
C3479 C 0.54579 0.52413 0.11269 0.0
C3480 C 0.56685 0.55521 0.15645 0.0
H3481 H 0.58479 0.51264 0.23427 0.0
H3482 H 0.56961 0.51283 0.20324 0.0
H3483 H 0.57595 0.56727 0.18464 0.0
H3484 H 0.56175 0.56868 0.09011 0.0
H3485 H 0.57192 0.56856 0.12266 0.0
H3486 H 0.56707 0.51158 0.13882 0.0
C3487 C 0.58099 0.52441 0.20923 0.0
C3488 C 0.57398 0.55502 0.17473 0.0
C3489 C 0.58961 0.52433 0.22699 0.0
C3490 C 0.55705 0.55618 0.09625 0.0
C3491 C 0.5628 0.55612 0.11497 0.0
C3492 C 0.56855 0.52374 0.1487 0.0
C3493 C 0.587 0.53931 0.19932 0.0
C3494 C 0.57846 0.53919 0.18018 0.0
C3495 C 0.55739 0.54003 0.12341 0.0
C3496 C 0.56422 0.53963 0.14312 0.0
H3497 H 0.62192 0.5655 0.23102 0.0
H3498 H 0.60676 0.56572 0.20021 0.0
H3499 H 0.57905 0.51118 0.17075 0.0
H3500 H 0.5315 0.51155 0.08611 0.0
H3501 H 0.54097 0.5116 0.11873 0.0
C3502 C 0.23181 0.88355 0.92664 0.0
C3503 C 0.2273 0.87534 0.94248 0.0
C3504 C 0.22905 0.87277 0.90945 0.0
C3505 C 0.22965 0.82613 0.89184 0.0
H3506 H 0.22345 0.84384 0.84449 0.0
C3507 C 0.2474 0.79049 0.8247 0.0
C3508 C 0.25876 0.80266 0.81478 0.0
C3509 C 0.2388 0.7973 0.83897 0.0
C3510 C 0.22513 0.83869 0.85762 0.0
H3511 H 0.21468 0.8498 0.95258 0.0
H3512 H 0.20963 0.83094 0.92242 0.0
H3513 H 0.21463 0.85946 0.87181 0.0
H3514 H 0.26983 0.83151 0.81188 0.0
H3515 H 0.25499 0.84331 0.83684 0.0
H3516 H 0.24078 0.8058 0.8778 0.0
C3517 C 0.21565 0.84564 0.92336 0.0
C3518 C 0.22006 0.84759 0.87323 0.0
C3519 C 0.21845 0.85645 0.9406 0.0
C3520 C 0.26127 0.82175 0.81933 0.0
C3521 C 0.25257 0.82852 0.83347 0.0
C3522 C 0.23461 0.81717 0.87622 0.0
C3523 C 0.22167 0.85358 0.90777 0.0
C3524 C 0.22294 0.84184 0.89063 0.0
C3525 C 0.24127 0.81638 0.84343 0.0
C3526 C 0.23304 0.82381 0.85912 0.0
H3527 H 0.23856 0.89812 0.92768 0.0
H3528 H 0.23399 0.87934 0.89778 0.0
H3529 H 0.23229 0.82147 0.90506 0.0
H3530 H 0.24512 0.77571 0.82146 0.0
H3531 H 0.23014 0.78765 0.84643 0.0
C3532 C 0.95631 0.5728 0.74922 0.0
C3533 C 0.93968 0.5594 0.74929 0.0
C3534 C 0.96854 0.56999 0.73664 0.0
C3535 C 0.98162 0.53256 0.71013 0.0
H3536 H 1.00139 0.56817 0.67795 0.0
C3537 C 0.00825 0.51205 0.64281 0.0
C3538 C 0.02282 0.5244 0.63651 0.0
C3539 C 1.00123 0.51713 0.65892 0.0
C3540 C 0.99634 0.55824 0.68713 0.0
H3541 H 0.92247 0.53294 0.73591 0.0
H3542 H 0.94379 0.52807 0.71409 0.0
H3543 H 0.98253 0.57623 0.70132 0.0
H3544 H 0.04209 0.55142 0.64264 0.0
H3545 H 0.02983 0.5603 0.671 0.0
H3546 H 0.99514 0.51447 0.69595 0.0
C3547 C 0.94746 0.54061 0.72383 0.0
C3548 C 0.98548 0.56284 0.70042 0.0
C3549 C 0.93521 0.54349 0.73623 0.0
C3550 C 0.03074 0.54169 0.64709 0.0
C3551 C 0.0237 0.54678 0.66328 0.0
C3552 C 0.99257 0.52802 0.697 0.0
C3553 C 0.96436 0.55366 0.72415 0.0
C3554 C 0.97761 0.54982 0.71163 0.0
C3555 C 0.00863 0.53467 0.66914 0.0
C3556 C 0.99958 0.54059 0.68498 0.0
H3557 H 0.96007 0.5852 0.75916 0.0
H3558 H 0.98149 0.58026 0.73707 0.0
H3559 H 0.97598 0.52242 0.7189 0.0
H3560 H 1.00157 0.4988 0.63479 0.0
H3561 H 0.98938 0.5076 0.66283 0.0
C3562 C 0.27431 0.20109 0.45163 0.0
C3563 C 0.28493 0.21242 0.46729 0.0
C3564 C 0.27497 0.20683 0.43414 0.0
C3565 C 0.30353 0.23838 0.40693 0.0
H3566 H 0.25768 0.23017 0.37476 0.0
C3567 C 0.29912 0.26857 0.33759 0.0
C3568 C 0.28646 0.25804 0.32274 0.0
C3569 C 0.29965 0.26274 0.35509 0.0
C3570 C 0.27065 0.23232 0.38342 0.0
H3571 H 0.30473 0.23862 0.47687 0.0
H3572 H 0.30593 0.2487 0.44617 0.0
H3573 H 0.25717 0.22099 0.40561 0.0
H3574 H 0.2649 0.23273 0.31454 0.0
H3575 H 0.2661 0.22237 0.34492 0.0
H3576 H 0.31704 0.24958 0.38467 0.0
C3577 C 0.29713 0.23532 0.44748 0.0
C3578 C 0.27035 0.22711 0.40116 0.0
C3579 C 0.29637 0.2296 0.46506 0.0
C3580 C 0.27474 0.24126 0.32568 0.0
C3581 C 0.27534 0.23538 0.34317 0.0
C3582 C 0.30386 0.24351 0.38912 0.0
C3583 C 0.28635 0.22402 0.43183 0.0
C3584 C 0.28678 0.23003 0.41312 0.0
C3585 C 0.2876 0.24619 0.35819 0.0
C3586 C 0.28741 0.24052 0.3771 0.0
H3587 H 0.26539 0.18774 0.45286 0.0
H3588 H 0.26669 0.19768 0.42237 0.0
H3589 H 0.31645 0.24061 0.41573 0.0
H3590 H 0.30831 0.28161 0.33587 0.0
H3591 H 0.30914 0.27154 0.36633 0.0
C3592 C 0.31501 0.59799 0.53169 0.0
C3593 C 0.31013 0.60849 0.51828 0.0
C3594 C 0.32416 0.58446 0.52714 0.0
C3595 C 0.3538 0.57182 0.49381 0.0
H3596 H 0.34465 0.5263 0.51567 0.0
C3597 C 0.3992 0.52224 0.48256 0.0
C3598 C 0.4068 0.51773 0.49913 0.0
C3599 C 0.38395 0.52962 0.48229 0.0
C3600 C 0.3473 0.53893 0.50943 0.0
H3601 H 0.3106 0.61289 0.48953 0.0
H3602 H 0.32646 0.58911 0.48153 0.0
H3603 H 0.32458 0.54695 0.52019 0.0
H3604 H 0.40351 0.51589 0.52801 0.0
H3605 H 0.37705 0.52905 0.52763 0.0
H3606 H 0.37678 0.56413 0.48349 0.0
C3607 C 0.32344 0.5915 0.49561 0.0
C3608 C 0.33588 0.55077 0.51206 0.0
C3609 C 0.31435 0.60508 0.50019 0.0
C3610 C 0.39807 0.51949 0.5151 0.0
C3611 C 0.38281 0.52685 0.51483 0.0
C3612 C 0.36516 0.55997 0.49114 0.0
C3613 C 0.32854 0.58112 0.50908 0.0
C3614 C 0.33927 0.56754 0.50463 0.0
C3615 C 0.37601 0.53259 0.49858 0.0
C3616 C 0.36227 0.54361 0.49925 0.0
H3617 H 0.31192 0.60033 0.54575 0.0
H3618 H 0.32818 0.57693 0.53792 0.0
H3619 H 0.35695 0.58474 0.48811 0.0
H3620 H 0.40568 0.52112 0.47004 0.0
H3621 H 0.37883 0.53372 0.46952 0.0
C3622 C 0.84952 0.9182 0.55268 0.0
C3623 C 0.83407 0.92542 0.55106 0.0
C3624 C 0.86725 0.92978 0.55364 0.0
C3625 C 0.89135 0.97534 0.54183 0.0
H3626 H 0.93361 0.96531 0.56902 0.0
C3627 C 0.96568 0.02117 0.54471 0.0
C3628 C 0.97858 0.01137 0.54001 0.0
C3629 C 0.94813 0.01177 0.54815 0.0
C3630 C 0.92191 0.96825 0.56138 0.0
H3631 H 0.82499 0.95044 0.55001 0.0
H3632 H 0.85592 0.97075 0.55233 0.0
H3633 H 0.90266 0.94707 0.57181 0.0
H3634 H 0.98345 0.98413 0.53581 0.0
H3635 H 0.95294 0.96783 0.54202 0.0
H3636 H 0.91071 0.99659 0.53149 0.0
C3637 C 0.8544 0.9561 0.55229 0.0
C3638 C 0.90418 0.95777 0.56288 0.0
C3639 C 0.83667 0.94449 0.55109 0.0
C3640 C 0.97377 0.99207 0.53926 0.0
C3641 C 0.95636 0.98273 0.54297 0.0
C3642 C 0.90906 0.98597 0.54051 0.0
C3643 C 0.86991 0.94886 0.55323 0.0
C3644 C 0.88869 0.96096 0.55287 0.0
C3645 C 0.94331 0.99247 0.54727 0.0
C3646 C 0.92451 0.98232 0.55003 0.0
H3647 H 0.8479 0.90353 0.5526 0.0
H3648 H 0.8788 0.92363 0.55407 0.0
H3649 H 0.87982 0.97803 0.53365 0.0
H3650 H 0.969 0.03604 0.54539 0.0
H3651 H 0.93831 0.01959 0.55152 0.0
C3652 C 0.88929 0.07285 0.26413 0.0
C3653 C 0.90858 0.07839 0.26519 0.0
C3654 C 0.87894 0.08583 0.26386 0.0
C3655 C 0.88248 0.13562 0.27545 0.0
H3656 H 0.83477 0.12256 0.24565 0.0
C3657 C 0.83681 0.18667 0.26635 0.0
C3658 C 0.81805 0.17981 0.26827 0.0
C3659 C 0.84854 0.17491 0.26569 0.0
C3660 C 0.84802 0.12635 0.25412 0.0
H3661 H 0.93219 0.10185 0.26665 0.0
H3662 H 0.91406 0.12461 0.26578 0.0
H3663 H 0.85417 0.1011 0.24438 0.0
H3664 H 0.79713 0.15524 0.27154 0.0
H3665 H 0.8175 0.13474 0.26995 0.0
H3666 H 0.87626 0.16102 0.285 0.0
C3667 C 0.90695 0.11023 0.26548 0.0
C3668 C 0.85914 0.11405 0.25344 0.0
C3669 C 0.91733 0.0972 0.26588 0.0
C3670 C 0.81138 0.16095 0.26966 0.0
C3671 C 0.82305 0.14919 0.2688 0.0
C3672 C 0.8714 0.14802 0.27599 0.0
C3673 C 0.88761 0.10468 0.26448 0.0
C3674 C 0.87639 0.11839 0.26432 0.0
C3675 C 0.84173 0.15603 0.26674 0.0
C3676 C 0.85395 0.14338 0.26553 0.0
H3677 H 0.88214 0.05846 0.26371 0.0
H3678 H 0.86414 0.08107 0.26348 0.0
H3679 H 0.89558 0.13935 0.28417 0.0
H3680 H 0.84239 0.20105 0.26495 0.0
H3681 H 0.86285 0.18051 0.26393 0.0
C3682 C 0.71722 0.09444 0.00658 0.0
C3683 C 0.72687 0.10064 0.02434 0.0
C3684 C 0.69866 0.08484 0.00442 0.0
C3685 C 0.66095 0.06064 0.02883 0.0
H3686 H 0.63059 0.08146 0.99601 0.0
C3687 C 0.58313 0.05074 0.0321 0.0
C3688 C 0.57164 0.04788 0.01527 0.0
C3689 C 0.60226 0.05535 0.0324 0.0
C3690 C 0.63885 0.07526 0.005 0.0
H3691 H 0.72513 0.10066 0.05372 0.0
H3692 H 0.69269 0.08401 0.04997 0.0
H3693 H 0.66395 0.09131 0.9975 0.0
H3694 H 0.57118 0.04748 0.98553 0.0
H3695 H 0.60448 0.05533 0.98608 0.0
H3696 H 0.63577 0.0448 0.03654 0.0
C3697 C 0.69944 0.08647 0.03771 0.0
C3698 C 0.65797 0.08088 0.00583 0.0
C3699 C 0.71799 0.09609 0.03987 0.0
C3700 C 0.57964 0.04974 0.99876 0.0
C3701 C 0.59874 0.05427 0.99907 0.0
C3702 C 0.64178 0.05497 0.02797 0.0
C3703 C 0.68946 0.08126 0.01999 0.0
C3704 C 0.66922 0.0738 0.0179 0.0
C3705 C 0.61026 0.05714 0.01588 0.0
C3706 C 0.63055 0.0624 0.0162 0.0
H3707 H 0.72377 0.09766 0.99435 0.0
H3708 H 0.69134 0.08073 0.99059 0.0
H3709 H 0.6693 0.05484 0.03815 0.0
H3710 H 0.57738 0.04942 0.04505 0.0
H3711 H 0.61079 0.05776 0.04561 0.0
C3712 C 0.22198 0.49866 0.25605 0.0
C3713 C 0.20536 0.49553 0.26389 0.0
C3714 C 0.23544 0.48984 0.26149 0.0
C3715 C 0.25134 0.4672 0.2994 0.0
H3716 H 0.27227 0.44167 0.26165 0.0
C3717 C 0.28371 0.40771 0.31193 0.0
C3718 C 0.29748 0.40456 0.30133 0.0
C3719 C 0.27586 0.42232 0.30938 0.0
C3720 C 0.26695 0.44909 0.27242 0.0
H3721 H 0.18969 0.4807 0.28344 0.0
H3722 H 0.21321 0.46521 0.29289 0.0
H3723 H 0.2514 0.46005 0.25265 0.0
H3724 H 0.31503 0.41501 0.28101 0.0
H3725 H 0.30158 0.44086 0.27681 0.0
H3726 H 0.26665 0.45601 0.31918 0.0
C3727 C 0.21588 0.47462 0.28269 0.0
C3728 C 0.2549 0.45953 0.26722 0.0
C3729 C 0.20237 0.48333 0.27715 0.0
C3730 C 0.30424 0.41705 0.28915 0.0
C3731 C 0.2965 0.43176 0.28671 0.0
C3732 C 0.2635 0.45686 0.30463 0.0
C3733 C 0.23256 0.47786 0.27496 0.0
C3734 C 0.24667 0.46832 0.28063 0.0
C3735 C 0.28174 0.43412 0.29628 0.0
C3736 C 0.2711 0.44733 0.29115 0.0
H3737 H 0.22465 0.50806 0.24584 0.0
H3738 H 0.24821 0.49258 0.25536 0.0
H3739 H 0.24539 0.47413 0.31003 0.0
H3740 H 0.27812 0.39817 0.32128 0.0
H3741 H 0.26439 0.42359 0.31683 0.0
C3742 C 0.24063 0.43614 0.04493 0.0
C3743 C 0.23881 0.41938 0.03364 0.0
C3744 C 0.22707 0.44573 0.04319 0.0
C3745 C 0.1908 0.45277 0.01041 0.0
H3746 H 0.17351 0.47294 0.05424 0.0
C3747 C 0.13313 0.49097 0.00586 0.0
C3748 C 0.1348 0.50631 0.01918 0.0
C3749 C 0.14511 0.47959 0.00756 0.0
C3750 C 0.17835 0.46763 0.04186 0.0
H3751 H 0.2214 0.39953 0.01164 0.0
H3752 H 0.1977 0.41653 0.00841 0.0
H3753 H 0.19562 0.45438 0.05732 0.0
H3754 H 0.15051 0.52197 0.04453 0.0
H3755 H 0.17174 0.50243 0.04731 0.0
H3756 H 0.174 0.46641 0.99494 0.0
C3757 C 0.20964 0.42215 0.01864 0.0
C3758 C 0.19095 0.45691 0.04364 0.0
C3759 C 0.22314 0.41241 0.02054 0.0
C3760 C 0.14877 0.51011 0.03417 0.0
C3761 C 0.16088 0.49885 0.03579 0.0
C3762 C 0.17833 0.46365 0.00863 0.0
C3763 C 0.21147 0.4389 0.02998 0.0
C3764 C 0.19739 0.44947 0.02795 0.0
C3765 C 0.15916 0.48338 0.02255 0.0
C3766 C 0.17203 0.47134 0.02435 0.0
H3767 H 0.25256 0.44186 0.05516 0.0
H3768 H 0.22894 0.4587 0.05199 0.0
H3769 H 0.19569 0.44737 0.9981 0.0
H3770 H 0.12231 0.48756 0.99429 0.0
H3771 H 0.14316 0.46765 0.99727 0.0
C3772 C 0.8859 0.98461 0.2745 0.0
C3773 C 0.90294 0.98621 0.26767 0.0
C3774 C 0.87375 0.96731 0.27422 0.0
C3775 C 0.86264 0.91914 0.25165 0.0
H3776 H 0.83713 0.90875 0.29445 0.0
C3777 C 0.82319 0.84577 0.26214 0.0
C3778 C 0.80658 0.84373 0.26996 0.0
C3779 C 0.83421 0.86329 0.26085 0.0
C3780 C 0.84393 0.91151 0.28228 0.0
H3781 H 0.92066 0.971 0.25518 0.0
H3782 H 0.8995 0.94069 0.25487 0.0
H3783 H 0.85806 0.93898 0.29442 0.0
H3784 H 0.78826 0.85851 0.28205 0.0
H3785 H 0.80745 0.88909 0.27963 0.0
H3786 H 0.84859 0.89159 0.23958 0.0
C3787 C 0.89543 0.95284 0.26024 0.0
C3788 C 0.85596 0.92883 0.28227 0.0
C3789 C 0.9076 0.97017 0.26052 0.0
C3790 C 0.80101 0.85959 0.27603 0.0
C3791 C 0.81206 0.87712 0.27475 0.0
C3792 C 0.85061 0.9018 0.25166 0.0
C3793 C 0.87838 0.95122 0.2671 0.0
C3794 C 0.86549 0.93283 0.26699 0.0
C3795 C 0.82888 0.87917 0.26735 0.0
C3796 C 0.84116 0.89778 0.267 0.0
H3797 H 0.88189 0.99675 0.28001 0.0
H3798 H 0.86062 0.96656 0.27938 0.0
H3799 H 0.86956 0.92189 0.23955 0.0
H3800 H 0.82791 0.83385 0.25733 0.0
H3801 H 0.84718 0.8644 0.25526 0.0
C3802 C 0.68378 0.10127 0.75882 0.0
C3803 C 0.69499 0.08892 0.75883 0.0
C3804 C 0.69161 0.12022 0.76286 0.0
C3805 C 0.73423 0.15607 0.76351 0.0
H3806 H 0.71366 0.18398 0.79972 0.0
C3807 C 0.76906 0.23218 0.78949 0.0
C3808 C 0.75751 0.24413 0.79127 0.0
C3809 C 0.76167 0.21313 0.78677 0.0
C3810 C 0.71944 0.17643 0.78944 0.0
H3811 H 0.72316 0.08662 0.76257 0.0
H3812 H 0.73688 0.11985 0.76941 0.0
H3813 H 0.70009 0.1509 0.79148 0.0
H3814 H 0.72924 0.24557 0.79216 0.0
H3815 H 0.71624 0.21228 0.78696 0.0
H3816 H 0.75331 0.18154 0.76109 0.0
C3817 C 0.72205 0.11484 0.76632 0.0
C3818 C 0.71168 0.15751 0.78475 0.0
C3819 C 0.7142 0.09586 0.76245 0.0
C3820 C 0.73848 0.23668 0.7909 0.0
C3821 C 0.73105 0.21759 0.78798 0.0
C3822 C 0.74188 0.17501 0.76806 0.0
C3823 C 0.71079 0.12716 0.76681 0.0
C3824 C 0.71901 0.14718 0.77174 0.0
C3825 C 0.74255 0.20561 0.78557 0.0
C3826 C 0.73459 0.18541 0.78109 0.0
H3827 H 0.66892 0.09629 0.75609 0.0
H3828 H 0.68266 0.12947 0.76294 0.0
H3829 H 0.74 0.14843 0.75329 0.0
H3830 H 0.78382 0.23753 0.78994 0.0
H3831 H 0.77095 0.20428 0.78541 0.0
loop_
_geom_bond_atom_site_label_1
_geom_bond_atom_site_label_2
_geom_bond_distance
_geom_bond_site_symmetry_2
_ccdc_geom_bond_type
In0 O1 2.294 . S
In0 O2 2.326 . S
In0 O6 2.266 . S
In0 O7 2.354 . S
In0 O8 2.266 . S
In0 O9 2.326 . S
In0 O11 2.294 . S
In0 O12 2.326 . S
O1 In0 2.294 . S
O1 C10 1.240 . S
O2 In0 2.326 . S
O2 C10 1.252 . S
C3 O6 1.252 1_655 S
C3 O7 1.258 1_655 S
C4 O11 1.240 . S
C4 O12 1.252 . S
C5 O8 1.252 . S
C5 O9 1.260 . S
O6 In0 2.266 . S
O6 C3 1.252 1_455 S
O7 In0 2.354 . S
O7 C3 1.258 1_455 S
O8 In0 2.266 . S
O8 C5 1.252 . S
O9 In0 2.326 . S
O9 C5 1.260 . S
C10 O1 1.240 . S
C10 O2 1.252 . S
O11 In0 2.294 . S
O11 C4 1.240 . S
O12 In0 2.326 . S
O12 C4 1.252 . S
In13 O14 2.294 . S
In13 O15 2.326 . S
In13 O19 2.266 . S
In13 O20 2.326 . S
In13 O21 2.266 . S
In13 O22 2.326 1_455 S
In13 O24 2.294 . S
In13 O25 2.326 . S
O14 In13 2.294 . S
O14 C23 1.240 . S
O15 In13 2.326 . S
O15 C23 1.252 . S
C16 O19 1.252 . S
C16 O20 1.260 . S
C17 O24 1.240 . S
C17 O25 1.252 . S
C18 O21 1.252 1_655 S
C18 O22 1.260 . S
O19 In13 2.266 . S
O19 C16 1.252 . S
O20 In13 2.326 . S
O20 C16 1.260 . S
O21 In13 2.266 . S
O21 C18 1.252 1_455 S
O22 In13 2.326 1_655 S
O22 C18 1.260 . S
C23 O14 1.240 . S
C23 O15 1.252 . S
O24 In13 2.294 . S
O24 C17 1.240 . S
O25 In13 2.326 . S
O25 C17 1.252 . S
In26 O27 2.294 . S
In26 O28 2.326 . S
In26 O32 2.266 . S
In26 O33 2.326 . S
In26 O34 2.266 . S
In26 O35 2.326 . S
In26 O37 2.294 . S
In26 O38 2.326 . S
O27 In26 2.294 . S
O27 C36 1.240 . S
O28 In26 2.326 . S
O28 C36 1.252 . S
C29 O32 1.252 . S
C29 O33 1.260 . S
C30 O37 1.240 . S
C30 O38 1.252 . S
C31 O34 1.252 . S
C31 O35 1.260 . S
O32 In26 2.266 . S
O32 C29 1.252 . S
O33 In26 2.326 . S
O33 C29 1.260 . S
O34 In26 2.266 . S
O34 C31 1.252 . S
O35 In26 2.326 . S
O35 C31 1.260 . S
C36 O27 1.240 . S
C36 O28 1.252 . S
O37 In26 2.294 . S
O37 C30 1.240 . S
O38 In26 2.326 . S
O38 C30 1.252 . S
In39 O40 2.294 . S
In39 O41 2.326 . S
In39 O45 2.266 . S
In39 O46 2.326 . S
In39 O47 2.266 . S
In39 O48 2.326 . S
In39 O50 2.294 . S
In39 O51 2.326 . S
O40 In39 2.294 . S
O40 C49 1.240 . S
O41 In39 2.326 . S
O41 C49 1.252 . S
C42 O45 1.252 . S
C42 O46 1.260 . S
C43 O50 1.240 . S
C43 O51 1.252 . S
C44 O47 1.252 . S
C44 O48 1.260 . S
O45 In39 2.266 . S
O45 C42 1.252 . S
O46 In39 2.326 . S
O46 C42 1.260 . S
O47 In39 2.266 . S
O47 C44 1.252 . S
O48 In39 2.326 . S
O48 C44 1.260 . S
C49 O40 1.240 . S
C49 O41 1.252 . S
O50 In39 2.294 . S
O50 C43 1.240 . S
O51 In39 2.326 . S
O51 C43 1.252 . S
In52 O53 2.294 . S
In52 O54 2.326 . S
In52 O58 2.266 . S
In52 O59 2.326 . S
In52 O60 2.266 . S
In52 O61 2.326 . S
In52 O63 2.294 . S
In52 O64 2.326 . S
O53 In52 2.294 . S
O53 C62 1.240 . S
O54 In52 2.326 . S
O54 C62 1.252 . S
C55 O58 1.252 . S
C55 O59 1.260 . S
C56 O63 1.240 . S
C56 O64 1.252 . S
C57 O60 1.252 . S
C57 O61 1.260 . S
O58 In52 2.266 . S
O58 C55 1.252 . S
O59 In52 2.326 . S
O59 C55 1.260 . S
O60 In52 2.266 . S
O60 C57 1.252 . S
O61 In52 2.326 . S
O61 C57 1.260 . S
C62 O53 1.240 . S
C62 O54 1.252 . S
O63 In52 2.294 . S
O63 C56 1.240 . S
O64 In52 2.326 . S
O64 C56 1.252 . S
In65 O66 2.294 . S
In65 O67 2.326 . S
In65 O71 2.266 . S
In65 O72 2.326 . S
In65 O73 2.266 . S
In65 O74 2.326 . S
In65 O76 2.294 . S
In65 O77 2.326 . S
O66 In65 2.294 . S
O66 C75 1.240 . S
O67 In65 2.326 . S
O67 C75 1.252 . S
C68 O71 1.252 . S
C68 O72 1.260 . S
C69 O76 1.240 . S
C69 O77 1.252 . S
C70 O73 1.252 . S
C70 O74 1.260 . S
O71 In65 2.266 . S
O71 C68 1.252 . S
O72 In65 2.326 . S
O72 C68 1.260 . S
O73 In65 2.266 . S
O73 C70 1.252 . S
O74 In65 2.326 . S
O74 C70 1.260 . S
C75 O66 1.240 . S
C75 O67 1.252 . S
O76 In65 2.294 . S
O76 C69 1.240 . S
O77 In65 2.326 . S
O77 C69 1.252 . S
In78 O79 2.294 . S
In78 O80 2.326 . S
In78 O84 2.266 . S
In78 O85 2.326 . S
In78 O86 2.266 . S
In78 O87 2.326 . S
In78 O89 2.294 . S
In78 O90 2.326 . S
O79 In78 2.294 . S
O79 C88 1.240 . S
O80 In78 2.326 . S
O80 C88 1.252 . S
C81 O84 1.252 . S
C81 O85 1.260 . S
C82 O89 1.240 . S
C82 O90 1.252 . S
C83 O86 1.252 . S
C83 O87 1.260 . S
O84 In78 2.266 . S
O84 C81 1.252 . S
O85 In78 2.326 . S
O85 C81 1.260 . S
O86 In78 2.266 . S
O86 C83 1.252 . S
O87 In78 2.326 . S
O87 C83 1.260 . S
C88 O79 1.240 . S
C88 O80 1.252 . S
O89 In78 2.294 . S
O89 C82 1.240 . S
O90 In78 2.326 . S
O90 C82 1.252 . S
In91 O92 2.294 . S
In91 O93 2.327 1_455 S
In91 O97 2.276 . S
In91 O98 2.325 . S
In91 O99 2.264 1_455 S
In91 O100 2.323 1_455 S
In91 O102 2.296 . S
In91 O103 2.329 . S
O92 In91 2.294 . S
O92 C101 1.234 . S
O93 In91 2.327 1_655 S
O93 C101 1.251 1_655 S
C94 O97 1.250 . S
C94 O98 1.260 . S
C95 O102 1.240 . S
C95 O103 1.252 . S
C96 O99 1.252 . S
C96 O100 1.260 . S
O97 In91 2.276 . S
O97 C94 1.250 . S
O98 In91 2.325 . S
O98 C94 1.260 . S
O99 In91 2.264 1_655 S
O99 C96 1.252 . S
O100 In91 2.323 1_655 S
O100 C96 1.260 . S
C101 O92 1.234 . S
C101 O93 1.251 1_455 S
O102 In91 2.296 . S
O102 C95 1.240 . S
O103 In91 2.329 . S
O103 C95 1.252 . S
In104 O105 2.294 . S
In104 O106 2.326 . S
In104 O110 2.266 . S
In104 O111 2.326 . S
In104 O112 2.266 1_545 S
In104 O113 2.326 1_545 S
In104 O115 2.294 . S
In104 O116 2.326 . S
O105 In104 2.294 . S
O105 C114 1.240 . S
O106 In104 2.326 . S
O106 C114 1.252 . S
C107 O110 1.252 . S
C107 O111 1.260 . S
C108 O115 1.240 . S
C108 O116 1.252 . S
C109 O112 1.252 . S
C109 O113 1.260 . S
O110 In104 2.266 . S
O110 C107 1.252 . S
O111 In104 2.326 . S
O111 C107 1.260 . S
O112 In104 2.266 1_565 S
O112 C109 1.252 . S
O113 In104 2.326 1_565 S
O113 C109 1.260 . S
C114 O105 1.240 . S
C114 O106 1.252 . S
O115 In104 2.294 . S
O115 C108 1.240 . S
O116 In104 2.326 . S
O116 C108 1.252 . S
In117 O118 2.294 . S
In117 O119 2.326 . S
In117 O123 2.266 . S
In117 O124 2.326 . S
In117 O125 2.266 . S
In117 O126 2.326 . S
In117 O128 2.294 . S
In117 O129 2.326 . S
O118 In117 2.294 . S
O118 C127 1.240 . S
O119 In117 2.326 . S
O119 C127 1.252 . S
C120 O123 1.252 . S
C120 O124 1.260 . S
C121 O128 1.240 . S
C121 O129 1.252 . S
C122 O125 1.252 . S
C122 O126 1.260 . S
O123 In117 2.266 . S
O123 C120 1.252 . S
O124 In117 2.326 . S
O124 C120 1.260 . S
O125 In117 2.266 . S
O125 C122 1.252 . S
O126 In117 2.326 . S
O126 C122 1.260 . S
C127 O118 1.240 . S
C127 O119 1.252 . S
O128 In117 2.294 . S
O128 C121 1.240 . S
O129 In117 2.326 . S
O129 C121 1.252 . S
In130 O131 2.294 . S
In130 O132 2.326 . S
In130 O136 2.266 . S
In130 O137 2.326 . S
In130 O138 2.266 . S
In130 O139 2.326 . S
In130 O141 2.294 . S
In130 O142 2.326 . S
O131 In130 2.294 . S
O131 C140 1.240 . S
O132 In130 2.326 . S
O132 C140 1.252 . S
C133 O136 1.252 . S
C133 O137 1.260 . S
C134 O141 1.240 . S
C134 O142 1.252 . S
C135 O138 1.252 . S
C135 O139 1.260 . S
O136 In130 2.266 . S
O136 C133 1.252 . S
O137 In130 2.326 . S
O137 C133 1.260 . S
O138 In130 2.266 . S
O138 C135 1.252 . S
O139 In130 2.326 . S
O139 C135 1.260 . S
C140 O131 1.240 . S
C140 O132 1.252 . S
O141 In130 2.294 . S
O141 C134 1.240 . S
O142 In130 2.326 . S
O142 C134 1.252 . S
In143 O144 2.296 . S
In143 O145 2.329 . S
In143 O149 2.264 1_554 S
In143 O150 2.322 1_554 S
In143 O151 2.266 1_554 S
In143 O152 2.323 1_554 S
In143 O154 2.294 . S
In143 O155 2.327 . S
O144 In143 2.296 . S
O144 C153 1.240 . S
O145 In143 2.329 . S
O145 C153 1.252 . S
C146 O149 1.252 . S
C146 O150 1.260 . S
C147 O154 1.240 . S
C147 O155 1.252 . S
C148 O151 1.253 . S
C148 O152 1.256 . S
O149 In143 2.264 1_556 S
O149 C146 1.252 . S
O150 In143 2.322 1_556 S
O150 C146 1.260 . S
O151 In143 2.266 1_556 S
O151 C148 1.253 . S
O152 In143 2.323 1_556 S
O152 C148 1.256 . S
C153 O144 1.240 . S
C153 O145 1.252 . S
O154 In143 2.294 . S
O154 C147 1.240 . S
O155 In143 2.327 . S
O155 C147 1.252 . S
In156 O157 2.294 . S
In156 O158 2.326 . S
In156 O162 2.266 . S
In156 O163 2.326 1_554 S
In156 O164 2.266 . S
In156 O165 2.326 . S
In156 O167 2.294 . S
In156 O168 2.326 . S
O157 In156 2.294 . S
O157 C166 1.240 . S
O158 In156 2.326 . S
O158 C166 1.252 . S
C159 O162 1.252 1_556 S
C159 O163 1.260 . S
C160 O167 1.240 . S
C160 O168 1.252 . S
C161 O164 1.252 . S
C161 O165 1.260 . S
O162 In156 2.266 . S
O162 C159 1.252 1_554 S
O163 In156 2.326 1_556 S
O163 C159 1.260 . S
O164 In156 2.266 . S
O164 C161 1.252 . S
O165 In156 2.326 . S
O165 C161 1.260 . S
C166 O157 1.240 . S
C166 O158 1.252 . S
O167 In156 2.294 . S
O167 C160 1.240 . S
O168 In156 2.326 . S
O168 C160 1.252 . S
In169 O170 2.294 . S
In169 O171 2.326 . S
In169 O175 2.266 . S
In169 O176 2.326 . S
In169 O177 2.266 . S
In169 O178 2.326 . S
In169 O180 2.294 . S
In169 O181 2.326 . S
O170 In169 2.294 . S
O170 C179 1.240 . S
O171 In169 2.326 . S
O171 C179 1.252 . S
C172 O175 1.252 . S
C172 O176 1.260 . S
C173 O180 1.240 . S
C173 O181 1.252 . S
C174 O177 1.252 . S
C174 O178 1.260 . S
O175 In169 2.266 . S
O175 C172 1.252 . S
O176 In169 2.326 . S
O176 C172 1.260 . S
O177 In169 2.266 . S
O177 C174 1.252 . S
O178 In169 2.326 . S
O178 C174 1.260 . S
C179 O170 1.240 . S
C179 O171 1.252 . S
O180 In169 2.294 . S
O180 C173 1.240 . S
O181 In169 2.326 . S
O181 C173 1.252 . S
In182 O183 2.294 . S
In182 O184 2.326 . S
In182 O188 2.266 . S
In182 O189 2.326 . S
In182 O190 2.266 . S
In182 O191 2.326 . S
In182 O193 2.294 . S
In182 O194 2.326 . S
O183 In182 2.294 . S
O183 C192 1.240 . S
O184 In182 2.326 . S
O184 C192 1.252 . S
C185 O188 1.252 . S
C185 O189 1.260 . S
C186 O193 1.240 . S
C186 O194 1.252 . S
C187 O190 1.252 . S
C187 O191 1.260 . S
O188 In182 2.266 . S
O188 C185 1.252 . S
O189 In182 2.326 . S
O189 C185 1.260 . S
O190 In182 2.266 . S
O190 C187 1.252 . S
O191 In182 2.326 . S
O191 C187 1.260 . S
C192 O183 1.240 . S
C192 O184 1.252 . S
O193 In182 2.294 . S
O193 C186 1.240 . S
O194 In182 2.326 . S
O194 C186 1.252 . S
In195 O196 2.294 . S
In195 O197 2.326 . S
In195 O201 2.266 . S
In195 O202 2.326 . S
In195 O203 2.266 . S
In195 O204 2.326 . S
In195 O206 2.294 . S
In195 O207 2.326 . S
O196 In195 2.294 . S
O196 C205 1.240 . S
O197 In195 2.326 . S
O197 C205 1.252 . S
C198 O201 1.252 . S
C198 O202 1.260 . S
C199 O206 1.240 . S
C199 O207 1.252 . S
C200 O203 1.252 . S
C200 O204 1.260 . S
O201 In195 2.266 . S
O201 C198 1.252 . S
O202 In195 2.326 . S
O202 C198 1.260 . S
O203 In195 2.266 . S
O203 C200 1.252 . S
O204 In195 2.326 . S
O204 C200 1.260 . S
C205 O196 1.240 . S
C205 O197 1.252 . S
O206 In195 2.294 . S
O206 C199 1.240 . S
O207 In195 2.326 . S
O207 C199 1.252 . S
In208 O209 2.294 . S
In208 O210 2.326 . S
In208 O214 2.266 . S
In208 O215 2.326 . S
In208 O216 2.266 . S
In208 O217 2.264 1_545 S
In208 O219 2.294 . S
In208 O220 2.326 . S
O209 In208 2.294 . S
O209 C218 1.240 . S
O210 In208 2.326 . S
O210 C218 1.252 . S
C211 O214 1.252 . S
C211 O215 1.260 . S
C212 O219 1.240 . S
C212 O220 1.252 . S
C213 O216 1.252 1_565 S
C213 O217 1.264 . S
O214 In208 2.266 . S
O214 C211 1.252 . S
O215 In208 2.326 . S
O215 C211 1.260 . S
O216 In208 2.266 . S
O216 C213 1.252 1_545 S
O217 In208 2.264 1_565 S
O217 C213 1.264 . S
C218 O209 1.240 . S
C218 O210 1.252 . S
O219 In208 2.294 . S
O219 C212 1.240 . S
O220 In208 2.326 . S
O220 C212 1.252 . S
In221 O222 2.294 . S
In221 O223 2.326 . S
In221 O227 2.266 . S
In221 O228 2.326 . S
In221 O229 2.266 . S
In221 O230 2.326 . S
In221 O232 2.294 . S
In221 O233 2.326 . S
O222 In221 2.294 . S
O222 C231 1.240 . S
O223 In221 2.326 . S
O223 C231 1.252 . S
C224 O227 1.252 . S
C224 O228 1.260 . S
C225 O232 1.240 . S
C225 O233 1.252 . S
C226 O229 1.252 . S
C226 O230 1.260 . S
O227 In221 2.266 . S
O227 C224 1.252 . S
O228 In221 2.326 . S
O228 C224 1.260 . S
O229 In221 2.266 . S
O229 C226 1.252 . S
O230 In221 2.326 . S
O230 C226 1.260 . S
C231 O222 1.240 . S
C231 O223 1.252 . S
O232 In221 2.294 . S
O232 C225 1.240 . S
O233 In221 2.326 . S
O233 C225 1.252 . S
In234 O235 2.294 . S
In234 O236 2.326 . S
In234 O240 2.266 . S
In234 O241 2.326 . S
In234 O242 2.266 . S
In234 O243 2.326 . S
In234 O245 2.294 . S
In234 O246 2.326 . S
O235 In234 2.294 . S
O235 C244 1.240 . S
O236 In234 2.326 . S
O236 C244 1.252 . S
C237 O240 1.252 . S
C237 O241 1.260 . S
C238 O245 1.240 . S
C238 O246 1.252 . S
C239 O242 1.252 . S
C239 O243 1.260 . S
O240 In234 2.266 . S
O240 C237 1.252 . S
O241 In234 2.326 . S
O241 C237 1.260 . S
O242 In234 2.266 . S
O242 C239 1.252 . S
O243 In234 2.326 . S
O243 C239 1.260 . S
C244 O235 1.240 . S
C244 O236 1.252 . S
O245 In234 2.294 . S
O245 C238 1.240 . S
O246 In234 2.326 . S
O246 C238 1.252 . S
In247 O248 2.294 . S
In247 O249 2.326 . S
In247 O253 2.266 . S
In247 O254 2.326 . S
In247 O255 2.266 . S
In247 O256 2.326 . S
In247 O258 2.294 . S
In247 O259 2.326 . S
O248 In247 2.294 . S
O248 C257 1.240 . S
O249 In247 2.326 . S
O249 C257 1.252 . S
C250 O253 1.252 . S
C250 O254 1.260 . S
C251 O258 1.240 . S
C251 O259 1.252 . S
C252 O255 1.252 . S
C252 O256 1.260 . S
O253 In247 2.266 . S
O253 C250 1.252 . S
O254 In247 2.326 . S
O254 C250 1.260 . S
O255 In247 2.266 . S
O255 C252 1.252 . S
O256 In247 2.326 . S
O256 C252 1.260 . S
C257 O248 1.240 . S
C257 O249 1.252 . S
O258 In247 2.294 . S
O258 C251 1.240 . S
O259 In247 2.326 . S
O259 C251 1.252 . S
In260 O261 2.294 . S
In260 O262 2.326 . S
In260 O266 2.266 . S
In260 O267 2.326 . S
In260 O268 2.303 . S
In260 O269 2.326 1_554 S
In260 O271 2.294 . S
In260 O272 2.326 . S
O261 In260 2.294 . S
O261 C270 1.240 . S
O262 In260 2.326 . S
O262 C270 1.252 . S
C263 O266 1.252 . S
C263 O267 1.260 . S
C264 O271 1.240 . S
C264 O272 1.252 . S
C265 O268 1.210 1_556 S
C265 O269 1.260 . S
O266 In260 2.266 . S
O266 C263 1.252 . S
O267 In260 2.326 . S
O267 C263 1.260 . S
O268 In260 2.303 . S
O268 C265 1.210 1_554 S
O269 In260 2.326 1_556 S
O269 C265 1.260 . S
C270 O261 1.240 . S
C270 O262 1.252 . S
O271 In260 2.294 . S
O271 C264 1.240 . S
O272 In260 2.326 . S
O272 C264 1.252 . S
In273 O274 2.294 . S
In273 O275 2.326 . S
In273 O279 2.266 . S
In273 O280 2.326 . S
In273 O281 2.266 . S
In273 O282 2.326 . S
In273 O284 2.294 . S
In273 O285 2.326 . S
O274 In273 2.294 . S
O274 C283 1.240 . S
O275 In273 2.326 . S
O275 C283 1.252 . S
C276 O279 1.252 . S
C276 O280 1.260 . S
C277 O284 1.240 . S
C277 O285 1.252 . S
C278 O281 1.252 . S
C278 O282 1.260 . S
O279 In273 2.266 . S
O279 C276 1.252 . S
O280 In273 2.326 . S
O280 C276 1.260 . S
O281 In273 2.266 . S
O281 C278 1.252 . S
O282 In273 2.326 . S
O282 C278 1.260 . S
C283 O274 1.240 . S
C283 O275 1.252 . S
O284 In273 2.294 . S
O284 C277 1.240 . S
O285 In273 2.326 . S
O285 C277 1.252 . S
In286 O287 2.294 . S
In286 O288 2.326 . S
In286 O292 2.266 . S
In286 O293 2.326 . S
In286 O294 2.266 . S
In286 O295 2.326 . S
In286 O297 2.294 . S
In286 O298 2.326 . S
O287 In286 2.294 . S
O287 C296 1.240 . S
O288 In286 2.326 . S
O288 C296 1.252 . S
C289 O292 1.252 . S
C289 O293 1.260 . S
C290 O297 1.240 . S
C290 O298 1.252 . S
C291 O294 1.252 . S
C291 O295 1.260 . S
O292 In286 2.266 . S
O292 C289 1.252 . S
O293 In286 2.326 . S
O293 C289 1.260 . S
O294 In286 2.266 . S
O294 C291 1.252 . S
O295 In286 2.326 . S
O295 C291 1.260 . S
C296 O287 1.240 . S
C296 O288 1.252 . S
O297 In286 2.294 . S
O297 C290 1.240 . S
O298 In286 2.326 . S
O298 C290 1.252 . S
In299 O300 2.294 . S
In299 O301 2.326 . S
In299 O305 2.266 . S
In299 O306 2.326 . S
In299 O307 2.266 . S
In299 O308 2.326 . S
In299 O310 2.294 . S
In299 O311 2.326 . S
O300 In299 2.294 . S
O300 C309 1.240 . S
O301 In299 2.326 . S
O301 C309 1.252 . S
C302 O305 1.252 . S
C302 O306 1.260 . S
C303 O310 1.240 . S
C303 O311 1.252 . S
C304 O307 1.252 . S
C304 O308 1.260 . S
O305 In299 2.266 . S
O305 C302 1.252 . S
O306 In299 2.326 . S
O306 C302 1.260 . S
O307 In299 2.266 . S
O307 C304 1.252 . S
O308 In299 2.326 . S
O308 C304 1.260 . S
C309 O300 1.240 . S
C309 O301 1.252 . S
O310 In299 2.294 . S
O310 C303 1.240 . S
O311 In299 2.326 . S
O311 C303 1.252 . S
Dy312 O315 2.307 . S
Dy312 O317 2.395 . S
Dy312 O318 2.379 . S
Dy312 O320 2.339 . S
Dy312 O322 2.298 . S
Dy312 O326 2.275 . S
Dy312 C334 2.738 . S
Dy313 O316 2.298 . S
Dy313 O319 2.275 . S
Dy313 O321 2.307 . S
Dy313 O323 2.395 1_455 S
Dy313 O324 2.379 1_455 S
Dy313 O327 2.339 1_554 S
Dy313 C343 2.738 1_455 S
C314 O326 1.254 . S
C314 O327 1.257 1_554 S
O315 Dy312 2.307 . S
O315 C325 1.266 . S
O316 Dy313 2.298 . S
O316 C325 1.236 . S
O317 Dy312 2.395 . S
O317 C334 1.255 . S
O318 Dy312 2.379 . S
O318 C334 1.249 . S
O319 Dy313 2.275 . S
O319 C335 1.254 . S
O320 Dy312 2.339 . S
O320 C335 1.257 . S
O321 Dy313 2.307 . S
O321 C336 1.266 . S
O322 Dy312 2.298 . S
O322 C336 1.236 . S
O323 Dy313 2.395 1_655 S
O323 C343 1.255 . S
O324 Dy313 2.379 1_655 S
O324 C343 1.249 . S
C325 O315 1.266 . S
C325 O316 1.236 . S
O326 Dy312 2.275 . S
O326 C314 1.254 . S
O327 Dy313 2.339 1_556 S
O327 C314 1.257 1_556 S
C328 C331 1.344 . S
C328 C332 1.328 . S
C328 C334 1.516 . S
C329 C330 1.304 . S
C329 C333 1.323 . S
C330 C329 1.304 . S
C330 C331 1.371 . S
C330 H344 0.930 . S
C331 C328 1.344 . S
C331 C330 1.371 . S
C331 H345 0.931 . S
C332 C328 1.328 . S
C332 C333 1.433 . S
C332 H346 0.931 . S
C333 C329 1.323 . S
C333 C332 1.433 . S
C333 H347 0.933 . S
C334 Dy312 2.738 . S
C334 O317 1.255 . S
C334 O318 1.249 . S
C334 C328 1.516 . S
C335 O319 1.254 . S
C335 O320 1.257 . S
C336 O321 1.266 . S
C336 O322 1.236 . S
C337 C340 1.344 . S
C337 C341 1.328 . S
C337 C343 1.516 . S
C338 C339 1.304 . S
C338 C342 1.323 . S
C339 C338 1.304 . S
C339 C340 1.371 . S
C339 H348 0.930 . S
C340 C337 1.344 . S
C340 C339 1.371 . S
C340 H349 0.931 . S
C341 C337 1.328 . S
C341 C342 1.433 . S
C341 H350 0.931 1_554 S
C342 C338 1.323 . S
C342 C341 1.433 . S
C342 H351 0.933 1_554 S
C343 Dy313 2.738 1_655 S
C343 O323 1.255 . S
C343 O324 1.249 . S
C343 C337 1.516 . S
H344 C330 0.930 . S
H345 C331 0.931 . S
H346 C332 0.931 . S
H347 C333 0.933 . S
H348 C339 0.930 . S
H349 C340 0.931 . S
H350 C341 0.931 1_556 S
H351 C342 0.933 1_556 S
Dy352 O355 2.307 . S
Dy352 O357 2.395 . S
Dy352 O358 2.379 . S
Dy352 O360 2.339 . S
Dy352 O362 2.298 . S
Dy352 O366 2.275 . S
Dy352 C374 2.738 . S
Dy353 O356 2.298 . S
Dy353 O359 2.275 . S
Dy353 O361 2.307 . S
Dy353 O363 2.395 . S
Dy353 O364 2.379 . S
Dy353 O367 2.339 . S
Dy353 C383 2.738 . S
C354 O366 1.254 . S
C354 O367 1.257 . S
O355 Dy352 2.307 . S
O355 C365 1.266 . S
O356 Dy353 2.298 . S
O356 C365 1.236 . S
O357 Dy352 2.395 . S
O357 C374 1.255 . S
O358 Dy352 2.379 . S
O358 C374 1.249 . S
O359 Dy353 2.275 . S
O359 C375 1.254 . S
O360 Dy352 2.339 . S
O360 C375 1.257 . S
O361 Dy353 2.307 . S
O361 C376 1.266 . S
O362 Dy352 2.298 . S
O362 C376 1.236 . S
O363 Dy353 2.395 . S
O363 C383 1.255 . S
O364 Dy353 2.379 . S
O364 C383 1.249 . S
C365 O355 1.266 . S
C365 O356 1.236 . S
O366 Dy352 2.275 . S
O366 C354 1.254 . S
O367 Dy353 2.339 . S
O367 C354 1.257 . S
C368 C371 1.344 . S
C368 C372 1.328 . S
C368 C374 1.516 . S
C369 C370 1.304 . S
C369 C373 1.323 . S
C370 C369 1.304 . S
C370 C371 1.371 . S
C370 H384 0.930 . S
C371 C368 1.344 . S
C371 C370 1.371 . S
C371 H385 0.931 . S
C372 C368 1.328 . S
C372 C373 1.433 . S
C372 H386 0.931 . S
C373 C369 1.323 . S
C373 C372 1.433 . S
C373 H387 0.933 . S
C374 Dy352 2.738 . S
C374 O357 1.255 . S
C374 O358 1.249 . S
C374 C368 1.516 . S
C375 O359 1.254 . S
C375 O360 1.257 . S
C376 O361 1.266 . S
C376 O362 1.236 . S
C377 C380 1.344 . S
C377 C381 1.328 . S
C377 C383 1.516 . S
C378 C379 1.304 . S
C378 C382 1.323 . S
C379 C378 1.304 . S
C379 C380 1.371 . S
C379 H388 0.930 . S
C380 C377 1.344 . S
C380 C379 1.371 . S
C380 H389 0.931 . S
C381 C377 1.328 . S
C381 C382 1.433 . S
C381 H390 0.931 . S
C382 C378 1.323 . S
C382 C381 1.433 . S
C382 H391 0.933 . S
C383 Dy353 2.738 . S
C383 O363 1.255 . S
C383 O364 1.249 . S
C383 C377 1.516 . S
H384 C370 0.930 . S
H385 C371 0.931 . S
H386 C372 0.931 . S
H387 C373 0.933 . S
H388 C379 0.930 . S
H389 C380 0.931 . S
H390 C381 0.931 . S
H391 C382 0.933 . S
Dy392 O395 2.307 1_545 S
Dy392 O397 2.395 . S
Dy392 O398 2.379 . S
Dy392 O400 2.339 . S
Dy392 O402 2.298 . S
Dy392 O406 2.275 . S
Dy392 C414 2.738 . S
Dy393 O396 2.298 1_545 S
Dy393 O399 2.275 . S
Dy393 O401 2.307 . S
Dy393 O403 2.395 . S
Dy393 O404 2.379 . S
Dy393 O407 2.339 . S
Dy393 C423 2.738 . S
C394 O406 1.254 . S
C394 O407 1.257 . S
O395 Dy392 2.307 1_565 S
O395 C405 1.266 . S
O396 Dy393 2.298 1_565 S
O396 C405 1.236 . S
O397 Dy392 2.395 . S
O397 C414 1.255 . S
O398 Dy392 2.379 . S
O398 C414 1.249 . S
O399 Dy393 2.275 . S
O399 C415 1.254 . S
O400 Dy392 2.339 . S
O400 C415 1.257 . S
O401 Dy393 2.307 . S
O401 C416 1.266 . S
O402 Dy392 2.298 . S
O402 C416 1.236 . S
O403 Dy393 2.395 . S
O403 C423 1.255 . S
O404 Dy393 2.379 . S
O404 C423 1.249 . S
C405 O395 1.266 . S
C405 O396 1.236 . S
O406 Dy392 2.275 . S
O406 C394 1.254 . S
O407 Dy393 2.339 . S
O407 C394 1.257 . S
C408 C411 1.344 . S
C408 C412 1.328 . S
C408 C414 1.516 . S
C409 C410 1.304 . S
C409 C413 1.323 . S
C410 C409 1.304 . S
C410 C411 1.371 . S
C410 H424 0.930 . S
C411 C408 1.344 . S
C411 C410 1.371 . S
C411 H425 0.931 . S
C412 C408 1.328 . S
C412 C413 1.433 . S
C412 H426 0.931 . S
C413 C409 1.323 . S
C413 C412 1.433 . S
C413 H427 0.933 . S
C414 Dy392 2.738 . S
C414 O397 1.255 . S
C414 O398 1.249 . S
C414 C408 1.516 . S
C415 O399 1.254 . S
C415 O400 1.257 . S
C416 O401 1.266 . S
C416 O402 1.236 . S
C417 C420 1.344 . S
C417 C421 1.328 . S
C417 C423 1.516 1_565 S
C418 C419 1.304 . S
C418 C422 1.323 . S
C419 C418 1.304 . S
C419 C420 1.371 . S
C419 H428 0.930 . S
C420 C417 1.344 . S
C420 C419 1.371 . S
C420 H429 0.931 . S
C421 C417 1.328 . S
C421 C422 1.433 . S
C421 H430 0.953 . S
C422 C418 1.323 . S
C422 C421 1.433 . S
C422 H431 0.933 . S
C423 Dy393 2.738 . S
C423 O403 1.255 . S
C423 O404 1.249 . S
C423 C417 1.516 1_545 S
H424 C410 0.930 . S
H425 C411 0.931 . S
H426 C412 0.931 . S
H427 C413 0.933 . S
H428 C419 0.930 . S
H429 C420 0.931 . S
H430 C421 0.953 . S
H431 C422 0.933 . S
Dy432 O435 2.307 . S
Dy432 O437 2.395 . S
Dy432 O438 2.379 . S
Dy432 O440 2.339 . S
Dy432 O442 2.298 . S
Dy432 O446 2.275 . S
Dy432 C454 2.738 . S
Dy433 O436 2.298 . S
Dy433 O439 2.275 . S
Dy433 O441 2.307 . S
Dy433 O443 2.395 . S
Dy433 O444 2.379 . S
Dy433 O447 2.339 . S
Dy433 C463 2.738 . S
C434 O446 1.254 . S
C434 O447 1.257 . S
O435 Dy432 2.307 . S
O435 C445 1.266 . S
O436 Dy433 2.298 . S
O436 C445 1.236 . S
O437 Dy432 2.395 . S
O437 C454 1.255 . S
O438 Dy432 2.379 . S
O438 C454 1.249 . S
O439 Dy433 2.275 . S
O439 C455 1.254 . S
O440 Dy432 2.339 . S
O440 C455 1.257 . S
O441 Dy433 2.307 . S
O441 C456 1.266 . S
O442 Dy432 2.298 . S
O442 C456 1.236 . S
O443 Dy433 2.395 . S
O443 C463 1.255 . S
O444 Dy433 2.379 . S
O444 C463 1.249 . S
C445 O435 1.266 . S
C445 O436 1.236 . S
O446 Dy432 2.275 . S
O446 C434 1.254 . S
O447 Dy433 2.339 . S
O447 C434 1.257 . S
C448 C451 1.344 . S
C448 C452 1.328 . S
C448 C454 1.516 . S
C449 C450 1.304 . S
C449 C453 1.323 . S
C450 C449 1.304 . S
C450 C451 1.371 . S
C450 H464 0.930 . S
C451 C448 1.344 . S
C451 C450 1.371 . S
C451 H465 0.931 . S
C452 C448 1.328 . S
C452 C453 1.433 . S
C452 H466 0.931 . S
C453 C449 1.323 . S
C453 C452 1.433 . S
C453 H467 0.933 . S
C454 Dy432 2.738 . S
C454 O437 1.255 . S
C454 O438 1.249 . S
C454 C448 1.516 . S
C455 O439 1.254 . S
C455 O440 1.257 . S
C456 O441 1.266 . S
C456 O442 1.236 . S
C457 C460 1.344 . S
C457 C461 1.328 . S
C457 C463 1.516 . S
C458 C459 1.304 . S
C458 C462 1.323 . S
C459 C458 1.304 . S
C459 C460 1.371 . S
C459 H468 0.930 . S
C460 C457 1.344 . S
C460 C459 1.371 . S
C460 H469 0.931 . S
C461 C457 1.328 . S
C461 C462 1.433 . S
C461 H470 0.931 . S
C462 C458 1.323 . S
C462 C461 1.433 . S
C462 H471 0.933 . S
C463 Dy433 2.738 . S
C463 O443 1.255 . S
C463 O444 1.249 . S
C463 C457 1.516 . S
H464 C450 0.930 . S
H465 C451 0.931 . S
H466 C452 0.931 . S
H467 C453 0.933 . S
H468 C459 0.930 . S
H469 C460 0.931 . S
H470 C461 0.931 . S
H471 C462 0.933 . S
Dy472 O475 2.307 . S
Dy472 O477 2.395 1_545 S
Dy472 O478 2.379 1_545 S
Dy472 O480 2.339 . S
Dy472 O482 2.298 . S
Dy472 O486 2.275 . S
Dy472 C494 2.738 1_545 S
Dy473 O476 2.298 . S
Dy473 O479 2.275 . S
Dy473 O481 2.307 . S
Dy473 O483 2.395 . S
Dy473 O484 2.379 . S
Dy473 O487 2.299 1_455 S
Dy473 C503 2.738 . S
C474 O486 1.254 . S
C474 O487 1.239 1_455 S
O475 Dy472 2.307 . S
O475 C485 1.266 . S
O476 Dy473 2.298 . S
O476 C485 1.236 . S
O477 Dy472 2.395 1_565 S
O477 C494 1.255 . S
O478 Dy472 2.379 1_565 S
O478 C494 1.249 . S
O479 Dy473 2.275 . S
O479 C495 1.254 . S
O480 Dy472 2.339 . S
O480 C495 1.257 . S
O481 Dy473 2.307 . S
O481 C496 1.266 . S
O482 Dy472 2.298 . S
O482 C496 1.236 . S
O483 Dy473 2.395 . S
O483 C503 1.255 . S
O484 Dy473 2.379 . S
O484 C503 1.249 . S
C485 O475 1.266 . S
C485 O476 1.236 . S
O486 Dy472 2.275 . S
O486 C474 1.254 . S
O487 Dy473 2.299 1_655 S
O487 C474 1.239 1_655 S
C488 C491 1.344 . S
C488 C492 1.328 . S
C488 C494 1.516 . S
C489 C490 1.304 . S
C489 C493 1.323 . S
C490 C489 1.304 . S
C490 C491 1.371 . S
C490 H504 0.930 . S
C491 C488 1.344 . S
C491 C490 1.371 . S
C491 H505 0.931 . S
C492 C488 1.328 . S
C492 C493 1.433 . S
C492 H506 0.931 . S
C493 C489 1.323 . S
C493 C492 1.433 . S
C493 H507 0.933 . S
C494 Dy472 2.738 1_565 S
C494 O477 1.255 . S
C494 O478 1.249 . S
C494 C488 1.516 . S
C495 O479 1.254 . S
C495 O480 1.257 . S
C496 O481 1.266 . S
C496 O482 1.236 . S
C497 C500 1.344 . S
C497 C501 1.328 . S
C497 C503 1.516 . S
C498 C499 1.304 . S
C498 C502 1.323 . S
C499 C498 1.304 . S
C499 C500 1.371 . S
C499 H508 0.930 . S
C500 C497 1.344 . S
C500 C499 1.371 . S
C500 H509 0.931 . S
C501 C497 1.328 . S
C501 C502 1.433 . S
C501 H510 0.931 1_455 S
C502 C498 1.323 . S
C502 C501 1.433 . S
C502 H511 0.933 1_455 S
C503 Dy473 2.738 . S
C503 O483 1.255 . S
C503 O484 1.249 . S
C503 C497 1.516 . S
H504 C490 0.930 . S
H505 C491 0.931 . S
H506 C492 0.931 . S
H507 C493 0.933 . S
H508 C499 0.930 . S
H509 C500 0.931 . S
H510 C501 0.931 1_655 S
H511 C502 0.933 1_655 S
Dy512 O515 2.307 . S
Dy512 O517 2.395 . S
Dy512 O518 2.379 . S
Dy512 O520 2.339 . S
Dy512 O522 2.298 . S
Dy512 O526 2.275 . S
Dy512 C534 2.738 . S
Dy513 O516 2.298 . S
Dy513 O519 2.275 . S
Dy513 O521 2.307 . S
Dy513 O523 2.395 . S
Dy513 O524 2.379 . S
Dy513 O527 2.339 . S
Dy513 C543 2.738 . S
C514 O526 1.254 . S
C514 O527 1.257 . S
O515 Dy512 2.307 . S
O515 C525 1.266 . S
O516 Dy513 2.298 . S
O516 C525 1.236 . S
O517 Dy512 2.395 . S
O517 C534 1.255 . S
O518 Dy512 2.379 . S
O518 C534 1.249 . S
O519 Dy513 2.275 . S
O519 C535 1.254 . S
O520 Dy512 2.339 . S
O520 C535 1.257 . S
O521 Dy513 2.307 . S
O521 C536 1.266 . S
O522 Dy512 2.298 . S
O522 C536 1.236 . S
O523 Dy513 2.395 . S
O523 C543 1.255 . S
O524 Dy513 2.379 . S
O524 C543 1.249 . S
C525 O515 1.266 . S
C525 O516 1.236 . S
O526 Dy512 2.275 . S
O526 C514 1.254 . S
O527 Dy513 2.339 . S
O527 C514 1.257 . S
C528 C531 1.344 . S
C528 C532 1.328 . S
C528 C534 1.516 . S
C529 C530 1.304 . S
C529 C533 1.323 . S
C530 C529 1.304 . S
C530 C531 1.371 . S
C530 H544 0.930 . S
C531 C528 1.344 . S
C531 C530 1.371 . S
C531 H545 0.931 . S
C532 C528 1.328 . S
C532 C533 1.433 . S
C532 H546 0.931 . S
C533 C529 1.323 . S
C533 C532 1.433 . S
C533 H547 0.933 . S
C534 Dy512 2.738 . S
C534 O517 1.255 . S
C534 O518 1.249 . S
C534 C528 1.516 . S
C535 O519 1.254 . S
C535 O520 1.257 . S
C536 O521 1.266 . S
C536 O522 1.236 . S
C537 C540 1.344 . S
C537 C541 1.328 . S
C537 C543 1.516 . S
C538 C539 1.304 . S
C538 C542 1.323 . S
C539 C538 1.304 . S
C539 C540 1.371 . S
C539 H548 0.930 . S
C540 C537 1.344 . S
C540 C539 1.371 . S
C540 H549 0.931 . S
C541 C537 1.328 . S
C541 C542 1.433 . S
C541 H550 0.931 . S
C542 C538 1.323 . S
C542 C541 1.433 . S
C542 H551 0.933 . S
C543 Dy513 2.738 . S
C543 O523 1.255 . S
C543 O524 1.249 . S
C543 C537 1.516 . S
H544 C530 0.930 . S
H545 C531 0.931 . S
H546 C532 0.931 . S
H547 C533 0.933 . S
H548 C539 0.930 . S
H549 C540 0.931 . S
H550 C541 0.931 . S
H551 C542 0.933 . S
Dy552 O555 2.307 . S
Dy552 O557 2.395 . S
Dy552 O558 2.379 . S
Dy552 O560 2.339 1_556 S
Dy552 O562 2.298 1_556 S
Dy552 O566 2.275 . S
Dy552 C574 2.738 . S
Dy553 O556 2.298 . S
Dy553 O559 2.275 . S
Dy553 O561 2.307 . S
Dy553 O563 2.395 . S
Dy553 O564 2.379 . S
Dy553 O567 2.339 . S
Dy553 C583 2.738 . S
C554 O566 1.254 1_554 S
C554 O567 1.257 . S
O555 Dy552 2.307 . S
O555 C565 1.266 1_556 S
O556 Dy553 2.298 . S
O556 C565 1.236 . S
O557 Dy552 2.395 . S
O557 C574 1.255 . S
O558 Dy552 2.379 . S
O558 C574 1.249 . S
O559 Dy553 2.275 . S
O559 C575 1.254 . S
O560 Dy552 2.339 1_554 S
O560 C575 1.257 . S
O561 Dy553 2.307 . S
O561 C576 1.266 . S
O562 Dy552 2.298 1_554 S
O562 C576 1.236 . S
O563 Dy553 2.395 . S
O563 C583 1.255 . S
O564 Dy553 2.379 . S
O564 C583 1.249 . S
C565 O555 1.266 1_554 S
C565 O556 1.236 . S
O566 Dy552 2.275 . S
O566 C554 1.254 1_556 S
O567 Dy553 2.339 . S
O567 C554 1.257 . S
C568 C571 1.344 . S
C568 C572 1.328 . S
C568 C574 1.516 . S
C569 C570 1.304 . S
C569 C573 1.323 . S
C570 C569 1.304 . S
C570 C571 1.371 . S
C570 H584 0.930 . S
C571 C568 1.344 . S
C571 C570 1.371 . S
C571 H585 0.931 . S
C572 C568 1.328 . S
C572 C573 1.433 . S
C572 H586 0.931 . S
C573 C569 1.323 . S
C573 C572 1.433 . S
C573 H587 0.933 . S
C574 Dy552 2.738 . S
C574 O557 1.255 . S
C574 O558 1.249 . S
C574 C568 1.516 . S
C575 O559 1.254 . S
C575 O560 1.257 . S
C576 O561 1.266 . S
C576 O562 1.236 . S
C577 C580 1.344 . S
C577 C581 1.328 . S
C577 C583 1.516 . S
C578 C579 1.304 . S
C578 C582 1.323 1_545 S
C579 C578 1.304 . S
C579 C580 1.371 . S
C579 H588 0.930 . S
C580 C577 1.344 . S
C580 C579 1.371 . S
C580 H589 0.931 . S
C581 C577 1.328 . S
C581 C582 1.433 1_545 S
C581 H590 0.931 1_545 S
C582 C578 1.323 1_565 S
C582 C581 1.433 1_565 S
C582 H591 0.933 . S
C583 Dy553 2.738 . S
C583 O563 1.255 . S
C583 O564 1.249 . S
C583 C577 1.516 . S
H584 C570 0.930 . S
H585 C571 0.931 . S
H586 C572 0.931 . S
H587 C573 0.933 . S
H588 C579 0.930 . S
H589 C580 0.931 . S
H590 C581 0.931 1_565 S
H591 C582 0.933 . S
Dy592 O595 2.307 . S
Dy592 O597 2.395 . S
Dy592 O598 2.379 . S
Dy592 O600 2.339 . S
Dy592 O602 2.298 . S
Dy592 O606 2.275 . S
Dy592 C614 2.738 . S
Dy593 O596 2.298 . S
Dy593 O599 2.275 . S
Dy593 O601 2.307 . S
Dy593 O603 2.395 . S
Dy593 O604 2.379 . S
Dy593 O607 2.339 . S
Dy593 C623 2.738 . S
C594 O606 1.254 . S
C594 O607 1.257 . S
O595 Dy592 2.307 . S
O595 C605 1.266 . S
O596 Dy593 2.298 . S
O596 C605 1.236 . S
O597 Dy592 2.395 . S
O597 C614 1.255 . S
O598 Dy592 2.379 . S
O598 C614 1.249 . S
O599 Dy593 2.275 . S
O599 C615 1.254 . S
O600 Dy592 2.339 . S
O600 C615 1.257 . S
O601 Dy593 2.307 . S
O601 C616 1.266 . S
O602 Dy592 2.298 . S
O602 C616 1.236 . S
O603 Dy593 2.395 . S
O603 C623 1.255 . S
O604 Dy593 2.379 . S
O604 C623 1.249 . S
C605 O595 1.266 . S
C605 O596 1.236 . S
O606 Dy592 2.275 . S
O606 C594 1.254 . S
O607 Dy593 2.339 . S
O607 C594 1.257 . S
C608 C611 1.344 . S
C608 C612 1.328 . S
C608 C614 1.516 . S
C609 C610 1.304 . S
C609 C613 1.323 . S
C610 C609 1.304 . S
C610 C611 1.371 . S
C610 H624 0.930 . S
C611 C608 1.344 . S
C611 C610 1.371 . S
C611 H625 0.931 . S
C612 C608 1.328 . S
C612 C613 1.433 . S
C612 H626 0.931 . S
C613 C609 1.323 . S
C613 C612 1.433 . S
C613 H627 0.933 . S
C614 Dy592 2.738 . S
C614 O597 1.255 . S
C614 O598 1.249 . S
C614 C608 1.516 . S
C615 O599 1.254 . S
C615 O600 1.257 . S
C616 O601 1.266 . S
C616 O602 1.236 . S
C617 C620 1.344 . S
C617 C621 1.328 . S
C617 C623 1.516 . S
C618 C619 1.304 . S
C618 C622 1.323 . S
C619 C618 1.304 . S
C619 C620 1.371 . S
C619 H628 0.930 . S
C620 C617 1.344 . S
C620 C619 1.371 . S
C620 H629 0.931 . S
C621 C617 1.328 . S
C621 C622 1.433 . S
C621 H630 0.931 . S
C622 C618 1.323 . S
C622 C621 1.433 . S
C622 H631 0.933 . S
C623 Dy593 2.738 . S
C623 O603 1.255 . S
C623 O604 1.249 . S
C623 C617 1.516 . S
H624 C610 0.930 . S
H625 C611 0.931 . S
H626 C612 0.931 . S
H627 C613 0.933 . S
H628 C619 0.930 . S
H629 C620 0.931 . S
H630 C621 0.931 . S
H631 C622 0.933 . S
Dy632 O635 2.307 1_554 S
Dy632 O637 2.395 . S
Dy632 O638 2.379 . S
Dy632 O640 2.339 . S
Dy632 O642 2.298 . S
Dy632 O646 2.275 . S
Dy632 C654 2.738 . S
Dy633 O636 2.298 1_554 S
Dy633 O639 2.275 . S
Dy633 O641 2.307 . S
Dy633 O643 2.414 . S
Dy633 O644 2.379 . S
Dy633 O647 2.339 . S
Dy633 C663 2.738 1_554 S
C634 O646 1.254 . S
C634 O647 1.257 . S
O635 Dy632 2.307 1_556 S
O635 C645 1.266 . S
O636 Dy633 2.298 1_556 S
O636 C645 1.236 . S
O637 Dy632 2.395 . S
O637 C654 1.255 . S
O638 Dy632 2.379 . S
O638 C654 1.249 . S
O639 Dy633 2.275 . S
O639 C655 1.254 . S
O640 Dy632 2.339 . S
O640 C655 1.257 . S
O641 Dy633 2.307 . S
O641 C656 1.266 . S
O642 Dy632 2.298 . S
O642 C656 1.236 . S
O643 Dy633 2.414 . S
O643 C663 1.254 1_554 S
O644 Dy633 2.379 . S
O644 C663 1.249 1_554 S
C645 O635 1.266 . S
C645 O636 1.236 . S
O646 Dy632 2.275 . S
O646 C634 1.254 . S
O647 Dy633 2.339 . S
O647 C634 1.257 . S
C648 C651 1.344 . S
C648 C652 1.328 . S
C648 C654 1.516 . S
C649 C650 1.304 . S
C649 C653 1.323 . S
C650 C649 1.304 . S
C650 C651 1.371 . S
C650 H664 0.930 . S
C651 C648 1.344 . S
C651 C650 1.371 . S
C651 H665 0.931 . S
C652 C648 1.328 . S
C652 C653 1.433 . S
C652 H666 0.931 . S
C653 C649 1.323 . S
C653 C652 1.433 . S
C653 H667 0.933 . S
C654 Dy632 2.738 . S
C654 O637 1.255 . S
C654 O638 1.249 . S
C654 C648 1.516 . S
C655 O639 1.254 . S
C655 O640 1.257 . S
C656 O641 1.266 . S
C656 O642 1.236 . S
C657 C660 1.344 . S
C657 C661 1.328 . S
C657 C663 1.516 . S
C658 C659 1.304 . S
C658 C662 1.323 . S
C659 C658 1.304 . S
C659 C660 1.371 . S
C659 H668 0.930 . S
C660 C657 1.344 . S
C660 C659 1.371 . S
C660 H669 0.931 . S
C661 C657 1.328 . S
C661 C662 1.433 . S
C661 H670 0.931 . S
C662 C658 1.323 . S
C662 C661 1.433 . S
C662 H671 0.933 . S
C663 Dy633 2.738 1_556 S
C663 O643 1.254 1_556 S
C663 O644 1.249 1_556 S
C663 C657 1.516 . S
H664 C650 0.930 . S
H665 C651 0.931 . S
H666 C652 0.931 . S
H667 C653 0.933 . S
H668 C659 0.930 . S
H669 C660 0.931 . S
H670 C661 0.931 . S
H671 C662 0.933 . S
Dy672 O675 2.307 . S
Dy672 O677 2.395 . S
Dy672 O678 2.379 . S
Dy672 O680 2.339 . S
Dy672 O682 2.298 . S
Dy672 O686 2.275 . S
Dy672 C694 2.738 . S
Dy673 O676 2.298 . S
Dy673 O679 2.275 . S
Dy673 O681 2.307 . S
Dy673 O683 2.395 . S
Dy673 O684 2.379 . S
Dy673 O687 2.339 . S
Dy673 C703 2.738 . S
C674 O686 1.254 . S
C674 O687 1.257 . S
O675 Dy672 2.307 . S
O675 C685 1.266 . S
O676 Dy673 2.298 . S
O676 C685 1.236 . S
O677 Dy672 2.395 . S
O677 C694 1.255 . S
O678 Dy672 2.379 . S
O678 C694 1.249 . S
O679 Dy673 2.275 . S
O679 C695 1.254 . S
O680 Dy672 2.339 . S
O680 C695 1.257 . S
O681 Dy673 2.307 . S
O681 C696 1.266 . S
O682 Dy672 2.298 . S
O682 C696 1.236 . S
O683 Dy673 2.395 . S
O683 C703 1.255 . S
O684 Dy673 2.379 . S
O684 C703 1.249 . S
C685 O675 1.266 . S
C685 O676 1.236 . S
O686 Dy672 2.275 . S
O686 C674 1.254 . S
O687 Dy673 2.339 . S
O687 C674 1.257 . S
C688 C691 1.344 . S
C688 C692 1.328 . S
C688 C694 1.516 . S
C689 C690 1.304 . S
C689 C693 1.323 . S
C690 C689 1.304 . S
C690 C691 1.371 . S
C690 H704 0.930 . S
C691 C688 1.344 . S
C691 C690 1.371 . S
C691 H705 0.931 . S
C692 C688 1.328 . S
C692 C693 1.433 . S
C692 H706 0.931 . S
C693 C689 1.323 . S
C693 C692 1.433 . S
C693 H707 0.933 . S
C694 Dy672 2.738 . S
C694 O677 1.255 . S
C694 O678 1.249 . S
C694 C688 1.516 . S
C695 O679 1.254 . S
C695 O680 1.257 . S
C696 O681 1.266 . S
C696 O682 1.236 . S
C697 C700 1.344 . S
C697 C701 1.328 . S
C697 C703 1.516 . S
C698 C699 1.304 . S
C698 C702 1.323 . S
C699 C698 1.304 . S
C699 C700 1.371 . S
C699 H708 0.930 . S
C700 C697 1.344 . S
C700 C699 1.371 . S
C700 H709 0.931 . S
C701 C697 1.328 . S
C701 C702 1.433 . S
C701 H710 0.931 . S
C702 C698 1.323 . S
C702 C701 1.433 . S
C702 H711 0.933 . S
C703 Dy673 2.738 . S
C703 O683 1.255 . S
C703 O684 1.249 . S
C703 C697 1.516 . S
H704 C690 0.930 . S
H705 C691 0.931 . S
H706 C692 0.931 . S
H707 C693 0.933 . S
H708 C699 0.930 . S
H709 C700 0.931 . S
H710 C701 0.931 . S
H711 C702 0.933 . S
Dy712 O715 2.307 1_455 S
Dy712 O717 2.395 . S
Dy712 O718 2.379 . S
Dy712 O720 2.339 . S
Dy712 O722 2.298 . S
Dy712 O726 2.275 . S
Dy712 C734 2.738 . S
Dy713 O716 2.298 1_455 S
Dy713 O719 2.275 . S
Dy713 O721 2.307 . S
Dy713 O723 2.395 1_455 S
Dy713 O724 2.379 . S
Dy713 O727 2.339 . S
Dy713 C743 2.738 1_455 S
C714 O726 1.254 . S
C714 O727 1.257 . S
O715 Dy712 2.307 1_655 S
O715 C725 1.266 . S
O716 Dy713 2.298 1_655 S
O716 C725 1.236 . S
O717 Dy712 2.395 . S
O717 C734 1.255 . S
O718 Dy712 2.379 . S
O718 C734 1.249 . S
O719 Dy713 2.275 . S
O719 C735 1.254 . S
O720 Dy712 2.339 . S
O720 C735 1.257 . S
O721 Dy713 2.307 . S
O721 C736 1.266 . S
O722 Dy712 2.298 . S
O722 C736 1.236 . S
O723 Dy713 2.395 1_655 S
O723 C743 1.255 . S
O724 Dy713 2.379 . S
O724 C743 1.249 1_455 S
C725 O715 1.266 . S
C725 O716 1.236 . S
O726 Dy712 2.275 . S
O726 C714 1.254 . S
O727 Dy713 2.339 . S
O727 C714 1.257 . S
C728 C731 1.344 . S
C728 C732 1.328 . S
C728 C734 1.516 . S
C729 C730 1.304 . S
C729 C733 1.323 . S
C730 C729 1.304 . S
C730 C731 1.371 . S
C730 H744 0.930 . S
C731 C728 1.344 . S
C731 C730 1.371 . S
C731 H745 0.931 . S
C732 C728 1.328 . S
C732 C733 1.433 . S
C732 H746 0.931 . S
C733 C729 1.323 . S
C733 C732 1.433 . S
C733 H747 0.933 . S
C734 Dy712 2.738 . S
C734 O717 1.255 . S
C734 O718 1.249 . S
C734 C728 1.516 . S
C735 O719 1.254 . S
C735 O720 1.257 . S
C736 O721 1.266 . S
C736 O722 1.236 . S
C737 C740 1.344 . S
C737 C741 1.328 . S
C737 C743 1.516 . S
C738 C739 1.304 . S
C738 C742 1.323 . S
C739 C738 1.304 . S
C739 C740 1.371 . S
C739 H748 0.930 . S
C740 C737 1.344 . S
C740 C739 1.371 . S
C740 H749 0.931 . S
C741 C737 1.328 . S
C741 C742 1.433 . S
C741 H750 0.931 . S
C742 C738 1.323 . S
C742 C741 1.433 . S
C742 H751 0.933 . S
C743 Dy713 2.738 1_655 S
C743 O723 1.255 . S
C743 O724 1.249 1_655 S
C743 C737 1.516 . S
H744 C730 0.930 . S
H745 C731 0.931 . S
H746 C732 0.931 . S
H747 C733 0.933 . S
H748 C739 0.930 . S
H749 C740 0.931 . S
H750 C741 0.931 . S
H751 C742 0.933 . S
Dy752 O755 2.307 . S
Dy752 O757 2.395 . S
Dy752 O758 2.379 . S
Dy752 O760 2.339 . S
Dy752 O762 2.298 . S
Dy752 O766 2.275 . S
Dy752 C774 2.738 . S
Dy753 O756 2.298 . S
Dy753 O759 2.275 . S
Dy753 O761 2.307 . S
Dy753 O763 2.395 . S
Dy753 O764 2.379 . S
Dy753 O767 2.339 . S
Dy753 C783 2.738 . S
C754 O766 1.254 . S
C754 O767 1.257 . S
O755 Dy752 2.307 . S
O755 C765 1.266 . S
O756 Dy753 2.298 . S
O756 C765 1.236 . S
O757 Dy752 2.395 . S
O757 C774 1.255 . S
O758 Dy752 2.379 . S
O758 C774 1.249 . S
O759 Dy753 2.275 . S
O759 C775 1.254 . S
O760 Dy752 2.339 . S
O760 C775 1.257 . S
O761 Dy753 2.307 . S
O761 C776 1.266 . S
O762 Dy752 2.298 . S
O762 C776 1.236 . S
O763 Dy753 2.395 . S
O763 C783 1.255 . S
O764 Dy753 2.379 . S
O764 C783 1.249 . S
C765 O755 1.266 . S
C765 O756 1.236 . S
O766 Dy752 2.275 . S
O766 C754 1.254 . S
O767 Dy753 2.339 . S
O767 C754 1.257 . S
C768 C771 1.344 . S
C768 C772 1.328 . S
C768 C774 1.516 . S
C769 C770 1.304 . S
C769 C773 1.323 . S
C770 C769 1.304 . S
C770 C771 1.371 . S
C770 H784 0.930 . S
C771 C768 1.344 . S
C771 C770 1.371 . S
C771 H785 0.931 . S
C772 C768 1.328 . S
C772 C773 1.433 . S
C772 H786 0.931 . S
C773 C769 1.323 . S
C773 C772 1.433 . S
C773 H787 0.933 . S
C774 Dy752 2.738 . S
C774 O757 1.255 . S
C774 O758 1.249 . S
C774 C768 1.516 . S
C775 O759 1.254 . S
C775 O760 1.257 . S
C776 O761 1.266 . S
C776 O762 1.236 . S
C777 C780 1.344 . S
C777 C781 1.328 . S
C777 C783 1.516 . S
C778 C779 1.304 . S
C778 C782 1.323 . S
C779 C778 1.304 . S
C779 C780 1.371 . S
C779 H788 0.930 . S
C780 C777 1.344 . S
C780 C779 1.371 . S
C780 H789 0.931 . S
C781 C777 1.328 . S
C781 C782 1.433 . S
C781 H790 0.931 . S
C782 C778 1.323 . S
C782 C781 1.433 . S
C782 H791 0.933 . S
C783 Dy753 2.738 . S
C783 O763 1.255 . S
C783 O764 1.249 . S
C783 C777 1.516 . S
H784 C770 0.930 . S
H785 C771 0.931 . S
H786 C772 0.931 . S
H787 C773 0.933 . S
H788 C779 0.930 . S
H789 C780 0.931 . S
H790 C781 0.931 . S
H791 C782 0.933 . S
Dy792 O795 2.307 . S
Dy792 O797 2.395 . S
Dy792 O798 2.379 . S
Dy792 O800 2.339 . S
Dy792 O802 2.298 . S
Dy792 O806 2.275 . S
Dy792 C814 2.738 . S
Dy793 O796 2.298 . S
Dy793 O799 2.275 . S
Dy793 O801 2.307 . S
Dy793 O803 2.395 . S
Dy793 O804 2.379 . S
Dy793 O807 2.339 . S
Dy793 C823 2.738 . S
C794 O806 1.254 . S
C794 O807 1.257 . S
O795 Dy792 2.307 . S
O795 C805 1.266 . S
O796 Dy793 2.298 . S
O796 C805 1.236 . S
O797 Dy792 2.395 . S
O797 C814 1.255 . S
O798 Dy792 2.379 . S
O798 C814 1.249 . S
O799 Dy793 2.275 . S
O799 C815 1.254 . S
O800 Dy792 2.339 . S
O800 C815 1.257 . S
O801 Dy793 2.307 . S
O801 C816 1.266 . S
O802 Dy792 2.298 . S
O802 C816 1.236 . S
O803 Dy793 2.395 . S
O803 C823 1.255 . S
O804 Dy793 2.379 . S
O804 C823 1.249 . S
C805 O795 1.266 . S
C805 O796 1.236 . S
O806 Dy792 2.275 . S
O806 C794 1.254 . S
O807 Dy793 2.339 . S
O807 C794 1.257 . S
C808 C811 1.344 . S
C808 C812 1.328 . S
C808 C814 1.516 . S
C809 C810 1.304 . S
C809 C813 1.323 . S
C810 C809 1.304 . S
C810 C811 1.371 . S
C810 H824 0.930 . S
C811 C808 1.344 . S
C811 C810 1.371 . S
C811 H825 0.931 . S
C812 C808 1.328 . S
C812 C813 1.433 . S
C812 H826 0.931 . S
C813 C809 1.323 . S
C813 C812 1.433 . S
C813 H827 0.933 . S
C814 Dy792 2.738 . S
C814 O797 1.255 . S
C814 O798 1.249 . S
C814 C808 1.516 . S
C815 O799 1.254 . S
C815 O800 1.257 . S
C816 O801 1.266 . S
C816 O802 1.236 . S
C817 C820 1.344 . S
C817 C821 1.328 . S
C817 C823 1.516 . S
C818 C819 1.304 . S
C818 C822 1.323 . S
C819 C818 1.304 . S
C819 C820 1.371 . S
C819 H828 0.930 . S
C820 C817 1.344 . S
C820 C819 1.371 . S
C820 H829 0.931 . S
C821 C817 1.328 . S
C821 C822 1.433 . S
C821 H830 0.931 . S
C822 C818 1.323 . S
C822 C821 1.433 . S
C822 H831 0.933 . S
C823 Dy793 2.738 . S
C823 O803 1.255 . S
C823 O804 1.249 . S
C823 C817 1.516 . S
H824 C810 0.930 . S
H825 C811 0.931 . S
H826 C812 0.931 . S
H827 C813 0.933 . S
H828 C819 0.930 . S
H829 C820 0.931 . S
H830 C821 0.931 . S
H831 C822 0.933 . S
Dy832 O835 2.307 . S
Dy832 O837 2.395 . S
Dy832 O838 2.379 . S
Dy832 O840 2.339 . S
Dy832 O842 2.298 . S
Dy832 O846 2.275 . S
Dy832 C854 2.738 . S
Dy833 O836 2.298 . S
Dy833 O839 2.275 . S
Dy833 O841 2.307 . S
Dy833 O843 2.395 . S
Dy833 O844 2.379 . S
Dy833 O847 2.339 . S
Dy833 C863 2.738 . S
C834 O846 1.254 . S
C834 O847 1.257 . S
O835 Dy832 2.307 . S
O835 C845 1.266 . S
O836 Dy833 2.298 . S
O836 C845 1.236 . S
O837 Dy832 2.395 . S
O837 C854 1.255 . S
O838 Dy832 2.379 . S
O838 C854 1.249 . S
O839 Dy833 2.275 . S
O839 C855 1.254 . S
O840 Dy832 2.339 . S
O840 C855 1.257 . S
O841 Dy833 2.307 . S
O841 C856 1.266 . S
O842 Dy832 2.298 . S
O842 C856 1.236 . S
O843 Dy833 2.395 . S
O843 C863 1.255 . S
O844 Dy833 2.379 . S
O844 C863 1.249 . S
C845 O835 1.266 . S
C845 O836 1.236 . S
O846 Dy832 2.275 . S
O846 C834 1.254 . S
O847 Dy833 2.339 . S
O847 C834 1.257 . S
C848 C851 1.344 . S
C848 C852 1.328 . S
C848 C854 1.516 . S
C849 C850 1.304 . S
C849 C853 1.323 . S
C850 C849 1.304 . S
C850 C851 1.371 . S
C850 H864 0.930 . S
C851 C848 1.344 . S
C851 C850 1.371 . S
C851 H865 0.931 . S
C852 C848 1.328 . S
C852 C853 1.433 . S
C852 H866 0.931 . S
C853 C849 1.323 . S
C853 C852 1.433 . S
C853 H867 0.933 . S
C854 Dy832 2.738 . S
C854 O837 1.255 . S
C854 O838 1.249 . S
C854 C848 1.516 . S
C855 O839 1.254 . S
C855 O840 1.257 . S
C856 O841 1.266 . S
C856 O842 1.236 . S
C857 C860 1.344 . S
C857 C861 1.328 . S
C857 C863 1.516 . S
C858 C859 1.304 . S
C858 C862 1.323 . S
C859 C858 1.304 . S
C859 C860 1.371 . S
C859 H868 0.930 . S
C860 C857 1.344 . S
C860 C859 1.371 . S
C860 H869 0.931 . S
C861 C857 1.328 . S
C861 C862 1.433 . S
C861 H870 0.931 . S
C862 C858 1.323 . S
C862 C861 1.433 . S
C862 H871 0.933 . S
C863 Dy833 2.738 . S
C863 O843 1.255 . S
C863 O844 1.249 . S
C863 C857 1.516 . S
H864 C850 0.930 . S
H865 C851 0.931 . S
H866 C852 0.931 . S
H867 C853 0.933 . S
H868 C859 0.930 . S
H869 C860 0.931 . S
H870 C861 0.931 . S
H871 C862 0.933 . S
Dy872 O875 2.307 . S
Dy872 O877 2.395 . S
Dy872 O878 2.379 . S
Dy872 O880 2.339 . S
Dy872 O882 2.298 . S
Dy872 O886 2.275 . S
Dy872 C894 2.738 . S
Dy873 O876 2.298 . S
Dy873 O879 2.275 . S
Dy873 O881 2.307 . S
Dy873 O883 2.395 . S
Dy873 O884 2.379 . S
Dy873 O887 2.339 . S
Dy873 C903 2.738 . S
C874 O886 1.254 . S
C874 O887 1.257 . S
O875 Dy872 2.307 . S
O875 C885 1.266 . S
O876 Dy873 2.298 . S
O876 C885 1.236 . S
O877 Dy872 2.395 . S
O877 C894 1.255 . S
O878 Dy872 2.379 . S
O878 C894 1.249 . S
O879 Dy873 2.275 . S
O879 C895 1.254 . S
O880 Dy872 2.339 . S
O880 C895 1.257 . S
O881 Dy873 2.307 . S
O881 C896 1.266 . S
O882 Dy872 2.298 . S
O882 C896 1.236 . S
O883 Dy873 2.395 . S
O883 C903 1.255 . S
O884 Dy873 2.379 . S
O884 C903 1.249 . S
C885 O875 1.266 . S
C885 O876 1.236 . S
O886 Dy872 2.275 . S
O886 C874 1.254 . S
O887 Dy873 2.339 . S
O887 C874 1.257 . S
C888 C891 1.344 . S
C888 C892 1.328 . S
C888 C894 1.516 . S
C889 C890 1.304 . S
C889 C893 1.323 . S
C890 C889 1.304 . S
C890 C891 1.371 . S
C890 H904 0.930 . S
C891 C888 1.344 . S
C891 C890 1.371 . S
C891 H905 0.931 . S
C892 C888 1.328 . S
C892 C893 1.433 . S
C892 H906 0.931 . S
C893 C889 1.323 . S
C893 C892 1.433 . S
C893 H907 0.933 . S
C894 Dy872 2.738 . S
C894 O877 1.255 . S
C894 O878 1.249 . S
C894 C888 1.516 . S
C895 O879 1.254 . S
C895 O880 1.257 . S
C896 O881 1.266 . S
C896 O882 1.236 . S
C897 C900 1.344 . S
C897 C901 1.328 . S
C897 C903 1.516 . S
C898 C899 1.304 . S
C898 C902 1.323 . S
C899 C898 1.304 . S
C899 C900 1.371 . S
C899 H908 0.930 . S
C900 C897 1.344 . S
C900 C899 1.371 . S
C900 H909 0.931 . S
C901 C897 1.328 . S
C901 C902 1.433 . S
C901 H910 0.931 . S
C902 C898 1.323 . S
C902 C901 1.433 . S
C902 H911 0.933 . S
C903 Dy873 2.738 . S
C903 O883 1.255 . S
C903 O884 1.249 . S
C903 C897 1.516 . S
H904 C890 0.930 . S
H905 C891 0.931 . S
H906 C892 0.931 . S
H907 C893 0.933 . S
H908 C899 0.930 . S
H909 C900 0.931 . S
H910 C901 0.931 . S
H911 C902 0.933 . S
Dy912 O915 2.328 . S
Dy912 O917 2.395 . S
Dy912 O918 2.379 . S
Dy912 O920 2.339 1_655 S
Dy912 O922 2.298 1_655 S
Dy912 O926 2.275 1_655 S
Dy912 C934 2.738 . S
Dy913 O916 2.298 . S
Dy913 O919 2.275 . S
Dy913 O921 2.307 . S
Dy913 O923 2.395 . S
Dy913 O924 2.379 . S
Dy913 O927 2.339 1_554 S
Dy913 C943 2.738 . S
C914 O926 1.254 . S
C914 O927 1.257 1_554 S
O915 Dy912 2.328 . S
O915 C925 1.232 1_655 S
O916 Dy913 2.298 . S
O916 C925 1.236 . S
O917 Dy912 2.395 . S
O917 C934 1.255 . S
O918 Dy912 2.379 . S
O918 C934 1.249 . S
O919 Dy913 2.275 . S
O919 C935 1.254 . S
O920 Dy912 2.339 1_455 S
O920 C935 1.257 . S
O921 Dy913 2.307 . S
O921 C936 1.266 . S
O922 Dy912 2.298 1_455 S
O922 C936 1.236 . S
O923 Dy913 2.395 . S
O923 C943 1.255 . S
O924 Dy913 2.379 . S
O924 C943 1.249 . S
C925 O915 1.232 1_455 S
C925 O916 1.236 . S
O926 Dy912 2.275 1_455 S
O926 C914 1.254 . S
O927 Dy913 2.339 1_556 S
O927 C914 1.257 1_556 S
C928 C931 1.344 . S
C928 C932 1.328 . S
C928 C934 1.516 . S
C929 C930 1.304 . S
C929 C933 1.323 . S
C930 C929 1.304 . S
C930 C931 1.371 . S
C930 H944 0.930 . S
C931 C928 1.344 . S
C931 C930 1.371 . S
C931 H945 0.931 . S
C932 C928 1.328 . S
C932 C933 1.433 . S
C932 H946 0.931 . S
C933 C929 1.323 . S
C933 C932 1.433 . S
C933 H947 0.933 . S
C934 Dy912 2.738 . S
C934 O917 1.255 . S
C934 O918 1.249 . S
C934 C928 1.516 . S
C935 O919 1.254 . S
C935 O920 1.257 . S
C936 O921 1.266 . S
C936 O922 1.236 . S
C937 C940 1.344 . S
C937 C941 1.328 . S
C937 C943 1.516 . S
C938 C939 1.304 . S
C938 C942 1.361 . S
C939 C938 1.304 . S
C939 C940 1.371 . S
C939 H948 0.930 . S
C940 C937 1.344 . S
C940 C939 1.371 . S
C940 H949 0.931 . S
C941 C937 1.328 . S
C941 C942 1.439 . S
C941 H950 0.931 1_554 S
C942 C938 1.361 . S
C942 C941 1.439 . S
C942 H951 0.889 1_554 S
C943 Dy913 2.738 . S
C943 O923 1.255 . S
C943 O924 1.249 . S
C943 C937 1.516 . S
H944 C930 0.930 . S
H945 C931 0.931 . S
H946 C932 0.931 . S
H947 C933 0.933 . S
H948 C939 0.930 . S
H949 C940 0.931 . S
H950 C941 0.931 1_556 S
H951 C942 0.889 1_556 S
C952 C953 1.349 . S
C952 C954 1.327 . S
C952 H977 0.950 . S
C953 C952 1.349 . S
C953 C969 1.349 1_455 S
C954 C952 1.327 . S
C954 C973 1.429 . S
C954 H978 0.950 . S
C955 C972 1.574 . S
C955 C974 1.368 1_554 S
C955 H979 0.949 . S
H956 C960 0.949 . S
C957 C958 1.349 . S
C957 C959 1.327 . S
C957 H980 0.950 . S
C958 C957 1.349 . S
C958 C970 1.349 . S
C959 C957 1.327 . S
C959 C975 1.429 . S
C959 H981 0.950 . S
C960 H956 0.949 . S
C960 C968 1.574 . S
C960 C976 1.368 1_556 S
H961 C969 0.950 . S
H962 C967 0.950 1_654 S
H963 C968 0.949 . S
H964 C970 0.950 . S
H965 C971 0.950 1_556 S
H966 C972 0.949 . S
C967 H962 0.950 1_456 S
C967 C969 1.327 1_455 S
C967 C973 1.429 . S
C968 C960 1.574 . S
C968 H963 0.949 . S
C968 C974 1.368 . S
C969 C953 1.349 1_655 S
C969 H961 0.950 . S
C969 C967 1.327 1_655 S
C970 C958 1.349 . S
C970 H964 0.950 . S
C970 C971 1.327 . S
C971 H965 0.950 1_554 S
C971 C970 1.327 . S
C971 C975 1.429 . S
C972 C955 1.574 . S
C972 H966 0.949 . S
C972 C976 1.368 . S
C973 C954 1.429 . S
C973 C967 1.429 . S
C973 C974 1.523 . S
C974 C955 1.368 1_556 S
C974 C968 1.368 . S
C974 C973 1.523 . S
C975 C959 1.429 . S
C975 C971 1.429 . S
C975 C976 1.523 . S
C976 C960 1.368 1_554 S
C976 C972 1.368 . S
C976 C975 1.523 . S
H977 C952 0.950 . S
H978 C954 0.950 . S
H979 C955 0.949 . S
H980 C957 0.950 . S
H981 C959 0.950 . S
C982 C983 1.349 . S
C982 C984 1.327 . S
C982 H1007 0.950 . S
C983 C982 1.349 . S
C983 C999 1.349 . S
C984 C982 1.327 . S
C984 C1003 1.429 . S
C984 H1008 0.950 . S
C985 C1002 1.574 . S
C985 C1004 1.368 . S
C985 H1009 0.949 . S
H986 C990 0.949 . S
C987 C988 1.349 . S
C987 C989 1.327 . S
C987 H1010 0.950 . S
C988 C987 1.349 . S
C988 C1000 1.349 . S
C989 C987 1.327 . S
C989 C1005 1.429 . S
C989 H1011 0.950 . S
C990 H986 0.949 . S
C990 C998 1.574 . S
C990 C1006 1.368 . S
H991 C999 0.950 . S
H992 C997 0.950 . S
H993 C998 0.949 . S
H994 C1000 0.950 . S
H995 C1001 0.950 . S
H996 C1002 0.949 . S
C997 H992 0.950 . S
C997 C999 1.327 . S
C997 C1003 1.429 . S
C998 C990 1.574 . S
C998 H993 0.949 . S
C998 C1004 1.368 . S
C999 C983 1.349 . S
C999 H991 0.950 . S
C999 C997 1.327 . S
C1000 C988 1.349 . S
C1000 H994 0.950 . S
C1000 C1001 1.327 . S
C1001 H995 0.950 . S
C1001 C1000 1.327 . S
C1001 C1005 1.429 . S
C1002 C985 1.574 . S
C1002 H996 0.949 . S
C1002 C1006 1.368 . S
C1003 C984 1.429 . S
C1003 C997 1.429 . S
C1003 C1004 1.523 . S
C1004 C985 1.368 . S
C1004 C998 1.368 . S
C1004 C1003 1.523 . S
C1005 C989 1.429 . S
C1005 C1001 1.429 . S
C1005 C1006 1.523 . S
C1006 C990 1.368 . S
C1006 C1002 1.368 . S
C1006 C1005 1.523 . S
H1007 C982 0.950 . S
H1008 C984 0.950 . S
H1009 C985 0.949 . S
H1010 C987 0.950 . S
H1011 C989 0.950 . S
C1012 C1013 1.349 . S
C1012 C1014 1.327 . S
C1012 H1037 0.950 . S
C1013 C1012 1.349 . S
C1013 C1029 1.349 . S
C1014 C1012 1.327 . S
C1014 C1033 1.429 . S
C1014 H1038 0.950 . S
C1015 C1032 1.574 . S
C1015 C1034 1.368 . S
C1015 H1039 0.949 . S
H1016 C1020 0.949 . S
C1017 C1018 1.349 . S
C1017 C1019 1.327 . S
C1017 H1040 0.950 . S
C1018 C1017 1.349 . S
C1018 C1030 1.349 . S
C1019 C1017 1.327 . S
C1019 C1035 1.429 . S
C1019 H1041 0.950 . S
C1020 H1016 0.949 . S
C1020 C1028 1.574 . S
C1020 C1036 1.368 . S
H1021 C1029 0.950 . S
H1022 C1027 0.950 . S
H1023 C1028 0.949 . S
H1024 C1030 0.950 . S
H1025 C1031 0.950 . S
H1026 C1032 0.949 . S
C1027 H1022 0.950 . S
C1027 C1029 1.327 . S
C1027 C1033 1.429 . S
C1028 C1020 1.574 . S
C1028 H1023 0.949 . S
C1028 C1034 1.368 . S
C1029 C1013 1.349 . S
C1029 H1021 0.950 . S
C1029 C1027 1.327 . S
C1030 C1018 1.349 . S
C1030 H1024 0.950 . S
C1030 C1031 1.327 . S
C1031 H1025 0.950 . S
C1031 C1030 1.327 . S
C1031 C1035 1.429 . S
C1032 C1015 1.574 . S
C1032 H1026 0.949 . S
C1032 C1036 1.368 . S
C1033 C1014 1.429 . S
C1033 C1027 1.429 . S
C1033 C1034 1.523 . S
C1034 C1015 1.368 . S
C1034 C1028 1.368 . S
C1034 C1033 1.523 . S
C1035 C1019 1.429 . S
C1035 C1031 1.429 . S
C1035 C1036 1.523 . S
C1036 C1020 1.368 . S
C1036 C1032 1.368 . S
C1036 C1035 1.523 . S
H1037 C1012 0.950 . S
H1038 C1014 0.950 . S
H1039 C1015 0.949 . S
H1040 C1017 0.950 . S
H1041 C1019 0.950 . S
C1042 C1043 1.349 . S
C1042 C1044 1.327 . S
C1042 H1067 0.950 . S
C1043 C1042 1.349 . S
C1043 C1059 1.349 . S
C1044 C1042 1.327 . S
C1044 C1063 1.429 . S
C1044 H1068 0.950 . S
C1045 C1062 1.574 . S
C1045 C1064 1.368 . S
C1045 H1069 0.949 . S
H1046 C1050 0.949 . S
C1047 C1048 1.349 . S
C1047 C1049 1.327 . S
C1047 H1070 0.950 . S
C1048 C1047 1.349 . S
C1048 C1060 1.349 . S
C1049 C1047 1.327 . S
C1049 C1065 1.429 . S
C1049 H1071 0.950 . S
C1050 H1046 0.949 . S
C1050 C1058 1.574 . S
C1050 C1066 1.368 . S
H1051 C1059 0.950 . S
H1052 C1057 0.950 . S
H1053 C1058 0.949 . S
H1054 C1060 0.950 . S
H1055 C1061 0.950 . S
H1056 C1062 0.949 . S
C1057 H1052 0.950 . S
C1057 C1059 1.327 . S
C1057 C1063 1.429 . S
C1058 C1050 1.574 . S
C1058 H1053 0.949 . S
C1058 C1064 1.368 . S
C1059 C1043 1.349 . S
C1059 H1051 0.950 . S
C1059 C1057 1.327 . S
C1060 C1048 1.349 . S
C1060 H1054 0.950 . S
C1060 C1061 1.327 . S
C1061 H1055 0.950 . S
C1061 C1060 1.327 . S
C1061 C1065 1.429 . S
C1062 C1045 1.574 . S
C1062 H1056 0.949 . S
C1062 C1066 1.368 . S
C1063 C1044 1.429 . S
C1063 C1057 1.429 . S
C1063 C1064 1.523 . S
C1064 C1045 1.368 . S
C1064 C1058 1.368 . S
C1064 C1063 1.523 . S
C1065 C1049 1.429 . S
C1065 C1061 1.429 . S
C1065 C1066 1.523 . S
C1066 C1050 1.368 . S
C1066 C1062 1.368 . S
C1066 C1065 1.523 . S
H1067 C1042 0.950 . S
H1068 C1044 0.950 . S
H1069 C1045 0.949 . S
H1070 C1047 0.950 . S
H1071 C1049 0.950 . S
C1072 C1073 1.349 . S
C1072 C1074 1.327 . S
C1072 H1097 0.950 . S
C1073 C1072 1.349 . S
C1073 C1089 1.349 . S
C1074 C1072 1.327 . S
C1074 C1093 1.429 . S
C1074 H1098 0.950 . S
C1075 C1092 1.574 . S
C1075 C1094 1.368 . S
C1075 H1099 0.949 . S
H1076 C1080 0.949 . S
C1077 C1078 1.349 . S
C1077 C1079 1.327 . S
C1077 H1100 0.950 . S
C1078 C1077 1.349 . S
C1078 C1090 1.349 . S
C1079 C1077 1.327 . S
C1079 C1095 1.429 . S
C1079 H1101 0.950 . S
C1080 H1076 0.949 . S
C1080 C1088 1.574 . S
C1080 C1096 1.368 . S
H1081 C1089 0.950 . S
H1082 C1087 0.950 . S
H1083 C1088 0.949 . S
H1084 C1090 0.950 . S
H1085 C1091 0.950 . S
H1086 C1092 0.949 . S
C1087 H1082 0.950 . S
C1087 C1089 1.327 . S
C1087 C1093 1.429 . S
C1088 C1080 1.574 . S
C1088 H1083 0.949 . S
C1088 C1094 1.368 . S
C1089 C1073 1.349 . S
C1089 H1081 0.950 . S
C1089 C1087 1.327 . S
C1090 C1078 1.349 . S
C1090 H1084 0.950 . S
C1090 C1091 1.327 . S
C1091 H1085 0.950 . S
C1091 C1090 1.327 . S
C1091 C1095 1.429 . S
C1092 C1075 1.574 . S
C1092 H1086 0.949 . S
C1092 C1096 1.368 . S
C1093 C1074 1.429 . S
C1093 C1087 1.429 . S
C1093 C1094 1.523 . S
C1094 C1075 1.368 . S
C1094 C1088 1.368 . S
C1094 C1093 1.523 . S
C1095 C1079 1.429 . S
C1095 C1091 1.429 . S
C1095 C1096 1.523 . S
C1096 C1080 1.368 . S
C1096 C1092 1.368 . S
C1096 C1095 1.523 . S
H1097 C1072 0.950 . S
H1098 C1074 0.950 . S
H1099 C1075 0.949 . S
H1100 C1077 0.950 . S
H1101 C1079 0.950 . S
C1102 C1103 1.349 . S
C1102 C1104 1.327 . S
C1102 H1127 0.950 . S
C1103 C1102 1.349 . S
C1103 C1119 1.349 . S
C1104 C1102 1.327 . S
C1104 C1123 1.429 . S
C1104 H1128 0.950 . S
C1105 C1122 1.574 . S
C1105 C1124 1.368 . S
C1105 H1129 0.949 . S
H1106 C1110 0.949 . S
C1107 C1108 1.349 . S
C1107 C1109 1.327 . S
C1107 H1130 0.950 . S
C1108 C1107 1.349 . S
C1108 C1120 1.349 . S
C1109 C1107 1.327 . S
C1109 C1125 1.429 . S
C1109 H1131 0.950 . S
C1110 H1106 0.949 . S
C1110 C1118 1.574 . S
C1110 C1126 1.368 . S
H1111 C1119 0.950 . S
H1112 C1117 0.950 . S
H1113 C1118 0.949 . S
H1114 C1120 0.950 . S
H1115 C1121 0.950 . S
H1116 C1122 0.949 . S
C1117 H1112 0.950 . S
C1117 C1119 1.327 . S
C1117 C1123 1.429 . S
C1118 C1110 1.574 . S
C1118 H1113 0.949 . S
C1118 C1124 1.368 . S
C1119 C1103 1.349 . S
C1119 H1111 0.950 . S
C1119 C1117 1.327 . S
C1120 C1108 1.349 . S
C1120 H1114 0.950 . S
C1120 C1121 1.327 . S
C1121 H1115 0.950 . S
C1121 C1120 1.327 . S
C1121 C1125 1.429 . S
C1122 C1105 1.574 . S
C1122 H1116 0.949 . S
C1122 C1126 1.368 . S
C1123 C1104 1.429 . S
C1123 C1117 1.429 . S
C1123 C1124 1.523 . S
C1124 C1105 1.368 . S
C1124 C1118 1.368 . S
C1124 C1123 1.523 . S
C1125 C1109 1.429 . S
C1125 C1121 1.429 . S
C1125 C1126 1.523 . S
C1126 C1110 1.368 . S
C1126 C1122 1.368 . S
C1126 C1125 1.523 . S
H1127 C1102 0.950 . S
H1128 C1104 0.950 . S
H1129 C1105 0.949 . S
H1130 C1107 0.950 . S
H1131 C1109 0.950 . S
C1132 C1133 1.349 . S
C1132 C1134 1.327 . S
C1132 H1157 0.950 . S
C1133 C1132 1.349 . S
C1133 C1149 1.349 . S
C1134 C1132 1.327 . S
C1134 C1153 1.429 . S
C1134 H1158 0.950 . S
C1135 C1152 1.574 . S
C1135 C1154 1.368 . S
C1135 H1159 0.949 . S
H1136 C1140 0.949 . S
C1137 C1138 1.349 . S
C1137 C1139 1.327 . S
C1137 H1160 0.950 . S
C1138 C1137 1.349 . S
C1138 C1150 1.349 . S
C1139 C1137 1.327 . S
C1139 C1155 1.429 . S
C1139 H1161 0.950 . S
C1140 H1136 0.949 . S
C1140 C1148 1.574 . S
C1140 C1156 1.368 . S
H1141 C1149 0.950 . S
H1142 C1147 0.950 . S
H1143 C1148 0.949 . S
H1144 C1150 0.950 . S
H1145 C1151 0.950 . S
H1146 C1152 0.949 . S
C1147 H1142 0.950 . S
C1147 C1149 1.327 . S
C1147 C1153 1.429 . S
C1148 C1140 1.574 . S
C1148 H1143 0.949 . S
C1148 C1154 1.368 . S
C1149 C1133 1.349 . S
C1149 H1141 0.950 . S
C1149 C1147 1.327 . S
C1150 C1138 1.349 . S
C1150 H1144 0.950 . S
C1150 C1151 1.327 . S
C1151 H1145 0.950 . S
C1151 C1150 1.327 . S
C1151 C1155 1.429 . S
C1152 C1135 1.574 . S
C1152 H1146 0.949 . S
C1152 C1156 1.368 . S
C1153 C1134 1.429 . S
C1153 C1147 1.429 . S
C1153 C1154 1.523 . S
C1154 C1135 1.368 . S
C1154 C1148 1.368 . S
C1154 C1153 1.523 . S
C1155 C1139 1.429 . S
C1155 C1151 1.429 . S
C1155 C1156 1.523 . S
C1156 C1140 1.368 . S
C1156 C1152 1.368 . S
C1156 C1155 1.523 . S
H1157 C1132 0.950 . S
H1158 C1134 0.950 . S
H1159 C1135 0.949 . S
H1160 C1137 0.950 . S
H1161 C1139 0.950 . S
C1162 C1163 1.349 . S
C1162 C1164 1.327 . S
C1162 H1187 0.950 . S
C1163 C1162 1.349 . S
C1163 C1179 1.349 . S
C1164 C1162 1.327 . S
C1164 C1183 1.429 . S
C1164 H1188 0.950 . S
C1165 C1182 1.574 . S
C1165 C1184 1.368 . S
C1165 H1189 0.949 . S
H1166 C1170 0.949 . S
C1167 C1168 1.349 . S
C1167 C1169 1.327 . S
C1167 H1190 0.950 . S
C1168 C1167 1.349 . S
C1168 C1180 1.349 . S
C1169 C1167 1.327 . S
C1169 C1185 1.429 . S
C1169 H1191 0.950 . S
C1170 H1166 0.949 . S
C1170 C1178 1.574 . S
C1170 C1186 1.368 . S
H1171 C1179 0.950 . S
H1172 C1177 0.950 . S
H1173 C1178 0.949 . S
H1174 C1180 0.950 . S
H1175 C1181 0.950 . S
H1176 C1182 0.949 . S
C1177 H1172 0.950 . S
C1177 C1179 1.327 . S
C1177 C1183 1.429 . S
C1178 C1170 1.574 . S
C1178 H1173 0.949 . S
C1178 C1184 1.368 . S
C1179 C1163 1.349 . S
C1179 H1171 0.950 . S
C1179 C1177 1.327 . S
C1180 C1168 1.349 . S
C1180 H1174 0.950 . S
C1180 C1181 1.327 . S
C1181 H1175 0.950 . S
C1181 C1180 1.327 . S
C1181 C1185 1.429 . S
C1182 C1165 1.574 . S
C1182 H1176 0.949 . S
C1182 C1186 1.368 . S
C1183 C1164 1.429 . S
C1183 C1177 1.429 . S
C1183 C1184 1.523 . S
C1184 C1165 1.368 . S
C1184 C1178 1.368 . S
C1184 C1183 1.523 . S
C1185 C1169 1.429 . S
C1185 C1181 1.429 . S
C1185 C1186 1.523 . S
C1186 C1170 1.368 . S
C1186 C1182 1.368 . S
C1186 C1185 1.523 . S
H1187 C1162 0.950 . S
H1188 C1164 0.950 . S
H1189 C1165 0.949 . S
H1190 C1167 0.950 . S
H1191 C1169 0.950 . S
C1192 C1193 1.349 . S
C1192 C1194 1.327 . S
C1192 H1217 0.950 . S
C1193 C1192 1.349 . S
C1193 C1209 1.349 . S
C1194 C1192 1.327 . S
C1194 C1213 1.429 . S
C1194 H1218 0.950 . S
C1195 C1212 1.574 1_655 S
C1195 C1214 1.368 . S
C1195 H1219 0.949 . S
H1196 C1200 0.949 . S
C1197 C1198 1.349 . S
C1197 C1199 1.327 . S
C1197 H1220 0.950 . S
C1198 C1197 1.349 . S
C1198 C1210 1.349 . S
C1199 C1197 1.327 . S
C1199 C1215 1.429 . S
C1199 H1221 0.950 . S
C1200 H1196 0.949 . S
C1200 C1208 1.574 . S
C1200 C1216 1.368 . S
H1201 C1209 0.950 . S
H1202 C1207 0.950 . S
H1203 C1208 0.949 . S
H1204 C1210 0.950 . S
H1205 C1211 0.950 1_655 S
H1206 C1212 0.949 . S
C1207 H1202 0.950 . S
C1207 C1209 1.327 . S
C1207 C1213 1.429 . S
C1208 C1200 1.574 . S
C1208 H1203 0.949 . S
C1208 C1214 1.368 . S
C1209 C1193 1.349 . S
C1209 H1201 0.950 . S
C1209 C1207 1.327 . S
C1210 C1198 1.349 . S
C1210 H1204 0.950 . S
C1210 C1211 1.327 . S
C1211 H1205 0.950 1_455 S
C1211 C1210 1.327 . S
C1211 C1215 1.429 . S
C1212 C1195 1.574 1_455 S
C1212 H1206 0.949 . S
C1212 C1216 1.368 1_455 S
C1213 C1194 1.429 . S
C1213 C1207 1.429 . S
C1213 C1214 1.523 . S
C1214 C1195 1.368 . S
C1214 C1208 1.368 . S
C1214 C1213 1.523 . S
C1215 C1199 1.429 . S
C1215 C1211 1.429 . S
C1215 C1216 1.523 1_455 S
C1216 C1200 1.368 . S
C1216 C1212 1.368 1_655 S
C1216 C1215 1.523 1_655 S
H1217 C1192 0.950 . S
H1218 C1194 0.950 . S
H1219 C1195 0.949 . S
H1220 C1197 0.950 . S
H1221 C1199 0.950 . S
C1222 C1223 1.349 . S
C1222 C1224 1.327 . S
C1222 H1247 0.950 . S
C1223 C1222 1.349 . S
C1223 C1239 1.349 . S
C1224 C1222 1.327 . S
C1224 C1243 1.429 . S
C1224 H1248 0.950 . S
C1225 C1242 1.574 . S
C1225 C1244 1.368 . S
C1225 H1249 0.949 . S
H1226 C1230 0.949 . S
C1227 C1228 1.349 . S
C1227 C1229 1.327 . S
C1227 H1250 0.950 . S
C1228 C1227 1.349 . S
C1228 C1240 1.349 . S
C1229 C1227 1.327 . S
C1229 C1245 1.429 . S
C1229 H1251 0.950 . S
C1230 H1226 0.949 . S
C1230 C1238 1.574 . S
C1230 C1246 1.368 . S
H1231 C1239 0.950 . S
H1232 C1237 0.950 . S
H1233 C1238 0.949 . S
H1234 C1240 0.950 . S
H1235 C1241 0.950 . S
H1236 C1242 0.949 . S
C1237 H1232 0.950 . S
C1237 C1239 1.327 . S
C1237 C1243 1.429 . S
C1238 C1230 1.574 . S
C1238 H1233 0.949 . S
C1238 C1244 1.368 . S
C1239 C1223 1.349 . S
C1239 H1231 0.950 . S
C1239 C1237 1.327 . S
C1240 C1228 1.349 . S
C1240 H1234 0.950 . S
C1240 C1241 1.327 . S
C1241 H1235 0.950 . S
C1241 C1240 1.327 . S
C1241 C1245 1.429 . S
C1242 C1225 1.574 . S
C1242 H1236 0.949 . S
C1242 C1246 1.368 . S
C1243 C1224 1.429 . S
C1243 C1237 1.429 . S
C1243 C1244 1.523 . S
C1244 C1225 1.368 . S
C1244 C1238 1.368 . S
C1244 C1243 1.523 . S
C1245 C1229 1.429 . S
C1245 C1241 1.429 . S
C1245 C1246 1.523 . S
C1246 C1230 1.368 . S
C1246 C1242 1.368 . S
C1246 C1245 1.523 . S
H1247 C1222 0.950 . S
H1248 C1224 0.950 . S
H1249 C1225 0.949 . S
H1250 C1227 0.950 . S
H1251 C1229 0.950 . S
C1252 C1253 1.349 . S
C1252 C1254 1.327 . S
C1252 H1277 0.950 . S
C1253 C1252 1.349 . S
C1253 C1269 1.349 . S
C1254 C1252 1.327 . S
C1254 C1273 1.429 . S
C1254 H1278 0.950 . S
C1255 C1272 1.574 . S
C1255 C1274 1.368 . S
C1255 H1279 0.949 . S
H1256 C1260 0.949 . S
C1257 C1258 1.349 . S
C1257 C1259 1.327 . S
C1257 H1280 0.950 . S
C1258 C1257 1.349 . S
C1258 C1270 1.349 . S
C1259 C1257 1.327 . S
C1259 C1275 1.429 . S
C1259 H1281 0.950 . S
C1260 H1256 0.949 . S
C1260 C1268 1.574 . S
C1260 C1276 1.368 . S
H1261 C1269 0.950 . S
H1262 C1267 0.950 . S
H1263 C1268 0.949 . S
H1264 C1270 0.950 . S
H1265 C1271 0.950 . S
H1266 C1272 0.949 . S
C1267 H1262 0.950 . S
C1267 C1269 1.327 . S
C1267 C1273 1.429 . S
C1268 C1260 1.574 . S
C1268 H1263 0.949 . S
C1268 C1274 1.368 . S
C1269 C1253 1.349 . S
C1269 H1261 0.950 . S
C1269 C1267 1.327 . S
C1270 C1258 1.349 . S
C1270 H1264 0.950 . S
C1270 C1271 1.327 . S
C1271 H1265 0.950 . S
C1271 C1270 1.327 . S
C1271 C1275 1.429 . S
C1272 C1255 1.574 . S
C1272 H1266 0.949 . S
C1272 C1276 1.368 . S
C1273 C1254 1.429 . S
C1273 C1267 1.429 . S
C1273 C1274 1.523 . S
C1274 C1255 1.368 . S
C1274 C1268 1.368 . S
C1274 C1273 1.523 . S
C1275 C1259 1.429 . S
C1275 C1271 1.429 . S
C1275 C1276 1.523 . S
C1276 C1260 1.368 . S
C1276 C1272 1.368 . S
C1276 C1275 1.523 . S
H1277 C1252 0.950 . S
H1278 C1254 0.950 . S
H1279 C1255 0.949 . S
H1280 C1257 0.950 . S
H1281 C1259 0.950 . S
C1282 C1283 1.349 . S
C1282 C1284 1.327 . S
C1282 H1307 0.950 . S
C1283 C1282 1.349 . S
C1283 C1299 1.349 . S
C1284 C1282 1.327 . S
C1284 C1303 1.429 . S
C1284 H1308 0.950 . S
C1285 C1302 1.574 . S
C1285 C1304 1.368 . S
C1285 H1309 0.949 . S
H1286 C1290 0.949 . S
C1287 C1288 1.349 . S
C1287 C1289 1.327 . S
C1287 H1310 0.950 . S
C1288 C1287 1.349 . S
C1288 C1300 1.349 . S
C1289 C1287 1.327 . S
C1289 C1305 1.429 . S
C1289 H1311 0.950 . S
C1290 H1286 0.949 . S
C1290 C1298 1.574 . S
C1290 C1306 1.368 . S
H1291 C1299 0.950 . S
H1292 C1297 0.950 . S
H1293 C1298 0.949 . S
H1294 C1300 0.950 . S
H1295 C1301 0.950 . S
H1296 C1302 0.949 . S
C1297 H1292 0.950 . S
C1297 C1299 1.327 . S
C1297 C1303 1.429 . S
C1298 C1290 1.574 . S
C1298 H1293 0.949 . S
C1298 C1304 1.368 . S
C1299 C1283 1.349 . S
C1299 H1291 0.950 . S
C1299 C1297 1.327 . S
C1300 C1288 1.349 . S
C1300 H1294 0.950 . S
C1300 C1301 1.327 . S
C1301 H1295 0.950 . S
C1301 C1300 1.327 . S
C1301 C1305 1.429 . S
C1302 C1285 1.574 . S
C1302 H1296 0.949 . S
C1302 C1306 1.368 . S
C1303 C1284 1.429 . S
C1303 C1297 1.429 . S
C1303 C1304 1.523 . S
C1304 C1285 1.368 . S
C1304 C1298 1.368 . S
C1304 C1303 1.523 . S
C1305 C1289 1.429 . S
C1305 C1301 1.429 . S
C1305 C1306 1.523 . S
C1306 C1290 1.368 . S
C1306 C1302 1.368 . S
C1306 C1305 1.523 . S
H1307 C1282 0.950 . S
H1308 C1284 0.950 . S
H1309 C1285 0.949 . S
H1310 C1287 0.950 . S
H1311 C1289 0.950 . S
C1312 C1313 1.349 . S
C1312 C1314 1.327 . S
C1312 H1337 0.950 . S
C1313 C1312 1.349 . S
C1313 C1329 1.349 . S
C1314 C1312 1.327 . S
C1314 C1333 1.429 . S
C1314 H1338 0.950 . S
C1315 C1332 1.574 . S
C1315 C1334 1.368 . S
C1315 H1339 0.949 . S
H1316 C1320 0.949 . S
C1317 C1318 1.349 . S
C1317 C1319 1.327 . S
C1317 H1340 0.950 . S
C1318 C1317 1.349 . S
C1318 C1330 1.349 . S
C1319 C1317 1.327 . S
C1319 C1335 1.429 . S
C1319 H1341 0.950 1_455 S
C1320 H1316 0.949 . S
C1320 C1328 1.574 1_455 S
C1320 C1336 1.368 1_455 S
H1321 C1329 0.950 . S
H1322 C1327 0.950 . S
H1323 C1328 0.949 . S
H1324 C1330 0.950 . S
H1325 C1331 0.950 . S
H1326 C1332 0.949 . S
C1327 H1322 0.950 . S
C1327 C1329 1.327 . S
C1327 C1333 1.429 . S
C1328 C1320 1.574 1_655 S
C1328 H1323 0.949 . S
C1328 C1334 1.368 . S
C1329 C1313 1.349 . S
C1329 H1321 0.950 . S
C1329 C1327 1.327 . S
C1330 C1318 1.349 . S
C1330 H1324 0.950 . S
C1330 C1331 1.327 . S
C1331 H1325 0.950 . S
C1331 C1330 1.327 . S
C1331 C1335 1.429 . S
C1332 C1315 1.574 . S
C1332 H1326 0.949 . S
C1332 C1336 1.368 . S
C1333 C1314 1.429 . S
C1333 C1327 1.429 . S
C1333 C1334 1.523 . S
C1334 C1315 1.368 . S
C1334 C1328 1.368 . S
C1334 C1333 1.523 . S
C1335 C1319 1.429 . S
C1335 C1331 1.429 . S
C1335 C1336 1.523 1_455 S
C1336 C1320 1.368 1_655 S
C1336 C1332 1.368 . S
C1336 C1335 1.523 1_655 S
H1337 C1312 0.950 . S
H1338 C1314 0.950 . S
H1339 C1315 0.949 . S
H1340 C1317 0.950 . S
H1341 C1319 0.950 1_655 S
C1342 C1343 1.349 . S
C1342 C1344 1.327 . S
C1342 H1367 0.950 . S
C1343 C1342 1.349 . S
C1343 C1359 1.349 . S
C1344 C1342 1.327 . S
C1344 C1363 1.429 . S
C1344 H1368 0.950 . S
C1345 C1362 1.574 . S
C1345 C1364 1.368 . S
C1345 H1369 0.949 . S
H1346 C1350 0.949 . S
C1347 C1348 1.349 . S
C1347 C1349 1.327 . S
C1347 H1370 0.950 . S
C1348 C1347 1.349 . S
C1348 C1360 1.349 . S
C1349 C1347 1.327 . S
C1349 C1365 1.429 . S
C1349 H1371 0.950 . S
C1350 H1346 0.949 . S
C1350 C1358 1.574 . S
C1350 C1366 1.368 . S
H1351 C1359 0.950 . S
H1352 C1357 0.950 . S
H1353 C1358 0.949 . S
H1354 C1360 0.950 . S
H1355 C1361 0.950 . S
H1356 C1362 0.949 . S
C1357 H1352 0.950 . S
C1357 C1359 1.327 . S
C1357 C1363 1.429 . S
C1358 C1350 1.574 . S
C1358 H1353 0.949 . S
C1358 C1364 1.368 . S
C1359 C1343 1.349 . S
C1359 H1351 0.950 . S
C1359 C1357 1.327 . S
C1360 C1348 1.349 . S
C1360 H1354 0.950 . S
C1360 C1361 1.327 . S
C1361 H1355 0.950 . S
C1361 C1360 1.327 . S
C1361 C1365 1.429 . S
C1362 C1345 1.574 . S
C1362 H1356 0.949 . S
C1362 C1366 1.368 . S
C1363 C1344 1.429 . S
C1363 C1357 1.429 . S
C1363 C1364 1.523 . S
C1364 C1345 1.368 . S
C1364 C1358 1.368 . S
C1364 C1363 1.523 . S
C1365 C1349 1.429 . S
C1365 C1361 1.429 . S
C1365 C1366 1.523 . S
C1366 C1350 1.368 . S
C1366 C1362 1.368 . S
C1366 C1365 1.523 . S
H1367 C1342 0.950 . S
H1368 C1344 0.950 . S
H1369 C1345 0.949 . S
H1370 C1347 0.950 . S
H1371 C1349 0.950 . S
C1372 C1373 1.349 . S
C1372 C1374 1.327 . S
C1372 H1397 0.950 . S
C1373 C1372 1.349 . S
C1373 C1389 1.349 . S
C1374 C1372 1.327 . S
C1374 C1393 1.429 . S
C1374 H1398 0.950 . S
C1375 C1392 1.574 . S
C1375 C1394 1.368 . S
C1375 H1399 0.949 . S
H1376 C1380 0.949 . S
C1377 C1378 1.349 . S
C1377 C1379 1.327 . S
C1377 H1400 0.950 . S
C1378 C1377 1.349 . S
C1378 C1390 1.349 . S
C1379 C1377 1.327 . S
C1379 C1395 1.429 . S
C1379 H1401 0.950 . S
C1380 H1376 0.949 . S
C1380 C1388 1.574 . S
C1380 C1396 1.368 . S
H1381 C1389 0.950 . S
H1382 C1387 0.950 . S
H1383 C1388 0.949 . S
H1384 C1390 0.950 . S
H1385 C1391 0.950 . S
H1386 C1392 0.949 . S
C1387 H1382 0.950 . S
C1387 C1389 1.327 . S
C1387 C1393 1.429 . S
C1388 C1380 1.574 . S
C1388 H1383 0.949 . S
C1388 C1394 1.368 . S
C1389 C1373 1.349 . S
C1389 H1381 0.950 . S
C1389 C1387 1.327 . S
C1390 C1378 1.349 . S
C1390 H1384 0.950 . S
C1390 C1391 1.327 . S
C1391 H1385 0.950 . S
C1391 C1390 1.327 . S
C1391 C1395 1.429 . S
C1392 C1375 1.574 . S
C1392 H1386 0.949 . S
C1392 C1396 1.368 . S
C1393 C1374 1.429 . S
C1393 C1387 1.429 . S
C1393 C1394 1.523 . S
C1394 C1375 1.368 . S
C1394 C1388 1.368 . S
C1394 C1393 1.523 . S
C1395 C1379 1.429 . S
C1395 C1391 1.429 . S
C1395 C1396 1.523 . S
C1396 C1380 1.368 . S
C1396 C1392 1.368 . S
C1396 C1395 1.523 . S
H1397 C1372 0.950 . S
H1398 C1374 0.950 . S
H1399 C1375 0.949 . S
H1400 C1377 0.950 . S
H1401 C1379 0.950 . S
C1402 C1403 1.349 . S
C1402 C1404 1.327 . S
C1402 H1427 0.950 . S
C1403 C1402 1.349 . S
C1403 C1419 1.349 . S
C1404 C1402 1.327 . S
C1404 C1423 1.429 . S
C1404 H1428 0.950 . S
C1405 C1422 1.574 . S
C1405 C1424 1.368 . S
C1405 H1429 0.949 . S
H1406 C1410 0.949 . S
C1407 C1408 1.349 . S
C1407 C1409 1.327 . S
C1407 H1430 0.950 . S
C1408 C1407 1.349 . S
C1408 C1420 1.349 . S
C1409 C1407 1.327 . S
C1409 C1425 1.429 . S
C1409 H1431 0.950 . S
C1410 H1406 0.949 . S
C1410 C1418 1.574 . S
C1410 C1426 1.368 . S
H1411 C1419 0.950 . S
H1412 C1417 0.950 . S
H1413 C1418 0.949 . S
H1414 C1420 0.950 . S
H1415 C1421 0.950 . S
H1416 C1422 0.949 . S
C1417 H1412 0.950 . S
C1417 C1419 1.327 . S
C1417 C1423 1.429 . S
C1418 C1410 1.574 . S
C1418 H1413 0.949 . S
C1418 C1424 1.368 . S
C1419 C1403 1.349 . S
C1419 H1411 0.950 . S
C1419 C1417 1.327 . S
C1420 C1408 1.349 . S
C1420 H1414 0.950 . S
C1420 C1421 1.327 . S
C1421 H1415 0.950 . S
C1421 C1420 1.327 . S
C1421 C1425 1.429 . S
C1422 C1405 1.574 . S
C1422 H1416 0.949 . S
C1422 C1426 1.368 . S
C1423 C1404 1.429 . S
C1423 C1417 1.429 . S
C1423 C1424 1.523 . S
C1424 C1405 1.368 . S
C1424 C1418 1.368 . S
C1424 C1423 1.523 . S
C1425 C1409 1.429 . S
C1425 C1421 1.429 . S
C1425 C1426 1.523 . S
C1426 C1410 1.368 . S
C1426 C1422 1.368 . S
C1426 C1425 1.523 . S
H1427 C1402 0.950 . S
H1428 C1404 0.950 . S
H1429 C1405 0.949 . S
H1430 C1407 0.950 . S
H1431 C1409 0.950 . S
C1432 C1433 1.356 . S
C1432 C1434 1.333 . S
C1432 H1457 0.938 1_554 S
C1433 C1432 1.356 . S
C1433 C1449 1.349 . S
C1434 C1432 1.333 . S
C1434 C1453 1.429 . S
C1434 H1458 0.950 . S
C1435 C1452 1.574 . S
C1435 C1454 1.368 . S
C1435 H1459 0.949 . S
H1436 C1440 0.966 . S
C1437 C1438 1.349 1_565 S
C1437 C1439 1.327 . S
C1437 H1460 0.950 . S
C1438 C1437 1.349 1_545 S
C1438 C1450 1.349 . S
C1439 C1437 1.327 . S
C1439 C1455 1.429 . S
C1439 H1461 0.950 . S
C1440 H1436 0.966 . S
C1440 C1448 1.574 . S
C1440 C1456 1.368 . S
H1441 C1449 0.950 . S
H1442 C1447 0.950 . S
H1443 C1448 0.949 . S
H1444 C1450 0.950 . S
H1445 C1451 0.950 . S
H1446 C1452 0.949 . S
C1447 H1442 0.950 . S
C1447 C1449 1.327 . S
C1447 C1453 1.429 . S
C1448 C1440 1.574 . S
C1448 H1443 0.949 . S
C1448 C1454 1.368 . S
C1449 C1433 1.349 . S
C1449 H1441 0.950 . S
C1449 C1447 1.327 . S
C1450 C1438 1.349 . S
C1450 H1444 0.950 . S
C1450 C1451 1.327 . S
C1451 H1445 0.950 . S
C1451 C1450 1.327 . S
C1451 C1455 1.429 1_545 S
C1452 C1435 1.574 . S
C1452 H1446 0.949 . S
C1452 C1456 1.368 . S
C1453 C1434 1.429 . S
C1453 C1447 1.429 . S
C1453 C1454 1.523 . S
C1454 C1435 1.368 . S
C1454 C1448 1.368 . S
C1454 C1453 1.523 . S
C1455 C1439 1.429 . S
C1455 C1451 1.429 1_565 S
C1455 C1456 1.523 . S
C1456 C1440 1.368 . S
C1456 C1452 1.368 . S
C1456 C1455 1.523 . S
H1457 C1432 0.938 1_556 S
H1458 C1434 0.950 . S
H1459 C1435 0.949 . S
H1460 C1437 0.950 . S
H1461 C1439 0.950 . S
C1462 C1463 1.349 1_556 S
C1462 C1464 1.327 . S
C1462 H1487 0.950 . S
C1463 C1462 1.349 1_554 S
C1463 C1479 1.349 . S
C1464 C1462 1.327 . S
C1464 C1483 1.429 1_556 S
C1464 H1488 0.950 . S
C1465 C1482 1.574 . S
C1465 C1484 1.368 . S
C1465 H1489 0.949 . S
H1466 C1470 0.949 . S
C1467 C1468 1.349 . S
C1467 C1469 1.327 . S
C1467 H1490 0.950 . S
C1468 C1467 1.349 . S
C1468 C1480 1.349 1_554 S
C1469 C1467 1.327 . S
C1469 C1485 1.429 . S
C1469 H1491 0.950 . S
C1470 H1466 0.949 . S
C1470 C1478 1.574 . S
C1470 C1486 1.368 1_556 S
H1471 C1479 0.950 . S
H1472 C1477 0.950 . S
H1473 C1478 0.949 . S
H1474 C1480 0.950 . S
H1475 C1481 0.950 . S
H1476 C1482 0.949 . S
C1477 H1472 0.950 . S
C1477 C1479 1.327 . S
C1477 C1483 1.429 . S
C1478 C1470 1.574 . S
C1478 H1473 0.949 . S
C1478 C1484 1.368 1_556 S
C1479 C1463 1.349 . S
C1479 H1471 0.950 . S
C1479 C1477 1.327 . S
C1480 C1468 1.349 1_556 S
C1480 H1474 0.950 . S
C1480 C1481 1.327 . S
C1481 H1475 0.950 . S
C1481 C1480 1.327 . S
C1481 C1485 1.429 1_556 S
C1482 C1465 1.574 . S
C1482 H1476 0.949 . S
C1482 C1486 1.368 . S
C1483 C1464 1.429 1_554 S
C1483 C1477 1.429 . S
C1483 C1484 1.523 . S
C1484 C1465 1.368 . S
C1484 C1478 1.368 1_554 S
C1484 C1483 1.523 . S
C1485 C1469 1.429 . S
C1485 C1481 1.429 1_554 S
C1485 C1486 1.523 . S
C1486 C1470 1.368 1_554 S
C1486 C1482 1.368 . S
C1486 C1485 1.523 . S
H1487 C1462 0.950 . S
H1488 C1464 0.950 . S
H1489 C1465 0.949 . S
H1490 C1467 0.950 . S
H1491 C1469 0.950 . S
C1492 C1493 1.349 . S
C1492 C1494 1.327 . S
C1492 H1517 0.950 . S
C1493 C1492 1.349 . S
C1493 C1509 1.349 . S
C1494 C1492 1.327 . S
C1494 C1513 1.429 . S
C1494 H1518 0.950 . S
C1495 C1512 1.574 . S
C1495 C1514 1.368 . S
C1495 H1519 0.949 . S
H1496 C1500 0.949 . S
C1497 C1498 1.349 . S
C1497 C1499 1.327 . S
C1497 H1520 0.950 . S
C1498 C1497 1.349 . S
C1498 C1510 1.349 . S
C1499 C1497 1.327 . S
C1499 C1515 1.429 . S
C1499 H1521 0.950 . S
C1500 H1496 0.949 . S
C1500 C1508 1.574 . S
C1500 C1516 1.368 . S
H1501 C1509 0.950 . S
H1502 C1507 0.950 . S
H1503 C1508 0.949 . S
H1504 C1510 0.950 . S
H1505 C1511 0.950 . S
H1506 C1512 0.949 . S
C1507 H1502 0.950 . S
C1507 C1509 1.327 . S
C1507 C1513 1.429 . S
C1508 C1500 1.574 . S
C1508 H1503 0.949 . S
C1508 C1514 1.368 . S
C1509 C1493 1.349 . S
C1509 H1501 0.950 . S
C1509 C1507 1.327 . S
C1510 C1498 1.349 . S
C1510 H1504 0.950 . S
C1510 C1511 1.327 . S
C1511 H1505 0.950 . S
C1511 C1510 1.327 . S
C1511 C1515 1.429 . S
C1512 C1495 1.574 . S
C1512 H1506 0.949 . S
C1512 C1516 1.368 . S
C1513 C1494 1.429 . S
C1513 C1507 1.429 . S
C1513 C1514 1.523 . S
C1514 C1495 1.368 . S
C1514 C1508 1.368 . S
C1514 C1513 1.523 . S
C1515 C1499 1.429 . S
C1515 C1511 1.429 . S
C1515 C1516 1.523 . S
C1516 C1500 1.368 . S
C1516 C1512 1.368 . S
C1516 C1515 1.523 . S
H1517 C1492 0.950 . S
H1518 C1494 0.950 . S
H1519 C1495 0.949 . S
H1520 C1497 0.950 . S
H1521 C1499 0.950 . S
C1522 C1523 1.349 . S
C1522 C1524 1.327 . S
C1522 H1547 0.950 . S
C1523 C1522 1.349 . S
C1523 C1539 1.349 . S
C1524 C1522 1.327 . S
C1524 C1543 1.429 . S
C1524 H1548 0.950 . S
C1525 C1542 1.574 . S
C1525 C1544 1.368 . S
C1525 H1549 0.949 . S
H1526 C1530 0.949 . S
C1527 C1528 1.349 . S
C1527 C1529 1.327 . S
C1527 H1550 0.950 . S
C1528 C1527 1.349 . S
C1528 C1540 1.349 . S
C1529 C1527 1.327 . S
C1529 C1545 1.429 . S
C1529 H1551 0.950 . S
C1530 H1526 0.949 . S
C1530 C1538 1.574 . S
C1530 C1546 1.368 . S
H1531 C1539 0.950 . S
H1532 C1537 0.950 . S
H1533 C1538 0.949 . S
H1534 C1540 0.950 . S
H1535 C1541 0.950 . S
H1536 C1542 0.949 . S
C1537 H1532 0.950 . S
C1537 C1539 1.327 . S
C1537 C1543 1.429 . S
C1538 C1530 1.574 . S
C1538 H1533 0.949 . S
C1538 C1544 1.368 . S
C1539 C1523 1.349 . S
C1539 H1531 0.950 . S
C1539 C1537 1.327 . S
C1540 C1528 1.349 . S
C1540 H1534 0.950 . S
C1540 C1541 1.327 . S
C1541 H1535 0.950 . S
C1541 C1540 1.327 . S
C1541 C1545 1.429 . S
C1542 C1525 1.574 . S
C1542 H1536 0.949 . S
C1542 C1546 1.368 . S
C1543 C1524 1.429 . S
C1543 C1537 1.429 . S
C1543 C1544 1.523 . S
C1544 C1525 1.368 . S
C1544 C1538 1.368 . S
C1544 C1543 1.523 . S
C1545 C1529 1.429 . S
C1545 C1541 1.429 . S
C1545 C1546 1.523 . S
C1546 C1530 1.368 . S
C1546 C1542 1.368 . S
C1546 C1545 1.523 . S
H1547 C1522 0.950 . S
H1548 C1524 0.950 . S
H1549 C1525 0.949 . S
H1550 C1527 0.950 . S
H1551 C1529 0.950 . S
C1552 C1553 1.349 . S
C1552 C1554 1.327 . S
C1552 H1577 0.950 . S
C1553 C1552 1.349 . S
C1553 C1569 1.349 . S
C1554 C1552 1.327 . S
C1554 C1573 1.429 . S
C1554 H1578 0.950 . S
C1555 C1572 1.574 . S
C1555 C1574 1.368 . S
C1555 H1579 0.949 . S
H1556 C1560 0.949 . S
C1557 C1558 1.349 . S
C1557 C1559 1.327 . S
C1557 H1580 0.950 . S
C1558 C1557 1.349 . S
C1558 C1570 1.349 . S
C1559 C1557 1.327 . S
C1559 C1575 1.429 . S
C1559 H1581 0.950 . S
C1560 H1556 0.949 . S
C1560 C1568 1.574 . S
C1560 C1576 1.368 . S
H1561 C1569 0.950 . S
H1562 C1567 0.950 . S
H1563 C1568 0.949 . S
H1564 C1570 0.950 . S
H1565 C1571 0.950 . S
H1566 C1572 0.949 . S
C1567 H1562 0.950 . S
C1567 C1569 1.327 . S
C1567 C1573 1.429 . S
C1568 C1560 1.574 . S
C1568 H1563 0.949 . S
C1568 C1574 1.368 . S
C1569 C1553 1.349 . S
C1569 H1561 0.950 . S
C1569 C1567 1.327 . S
C1570 C1558 1.349 . S
C1570 H1564 0.950 . S
C1570 C1571 1.327 . S
C1571 H1565 0.950 . S
C1571 C1570 1.327 . S
C1571 C1575 1.429 . S
C1572 C1555 1.574 . S
C1572 H1566 0.949 . S
C1572 C1576 1.368 . S
C1573 C1554 1.429 . S
C1573 C1567 1.429 . S
C1573 C1574 1.523 . S
C1574 C1555 1.368 . S
C1574 C1568 1.368 . S
C1574 C1573 1.523 . S
C1575 C1559 1.429 . S
C1575 C1571 1.429 . S
C1575 C1576 1.523 . S
C1576 C1560 1.368 . S
C1576 C1572 1.368 . S
C1576 C1575 1.523 . S
H1577 C1552 0.950 . S
H1578 C1554 0.950 . S
H1579 C1555 0.949 . S
H1580 C1557 0.950 . S
H1581 C1559 0.950 . S
C1582 C1583 1.349 . S
C1582 C1584 1.327 . S
C1582 H1607 0.950 . S
C1583 C1582 1.349 . S
C1583 C1599 1.349 . S
C1584 C1582 1.327 . S
C1584 C1603 1.429 . S
C1584 H1608 0.950 . S
C1585 C1602 1.574 . S
C1585 C1604 1.368 . S
C1585 H1609 0.949 . S
H1586 C1590 0.949 . S
C1587 C1588 1.349 . S
C1587 C1589 1.327 . S
C1587 H1610 0.950 . S
C1588 C1587 1.349 . S
C1588 C1600 1.349 . S
C1589 C1587 1.327 . S
C1589 C1605 1.429 . S
C1589 H1611 0.950 . S
C1590 H1586 0.949 . S
C1590 C1598 1.574 . S
C1590 C1606 1.368 . S
H1591 C1599 0.950 . S
H1592 C1597 0.950 . S
H1593 C1598 0.949 . S
H1594 C1600 0.950 . S
H1595 C1601 0.950 . S
H1596 C1602 0.949 . S
C1597 H1592 0.950 . S
C1597 C1599 1.327 . S
C1597 C1603 1.429 . S
C1598 C1590 1.574 . S
C1598 H1593 0.949 . S
C1598 C1604 1.368 . S
C1599 C1583 1.349 . S
C1599 H1591 0.950 . S
C1599 C1597 1.327 . S
C1600 C1588 1.349 . S
C1600 H1594 0.950 . S
C1600 C1601 1.327 . S
C1601 H1595 0.950 . S
C1601 C1600 1.327 . S
C1601 C1605 1.429 . S
C1602 C1585 1.574 . S
C1602 H1596 0.949 . S
C1602 C1606 1.368 . S
C1603 C1584 1.429 . S
C1603 C1597 1.429 . S
C1603 C1604 1.523 . S
C1604 C1585 1.368 . S
C1604 C1598 1.368 . S
C1604 C1603 1.523 . S
C1605 C1589 1.429 . S
C1605 C1601 1.429 . S
C1605 C1606 1.523 . S
C1606 C1590 1.368 . S
C1606 C1602 1.368 . S
C1606 C1605 1.523 . S
H1607 C1582 0.950 . S
H1608 C1584 0.950 . S
H1609 C1585 0.949 . S
H1610 C1587 0.950 . S
H1611 C1589 0.950 . S
C1612 C1613 1.349 . S
C1612 C1614 1.327 . S
C1612 H1637 0.950 . S
C1613 C1612 1.349 . S
C1613 C1629 1.349 . S
C1614 C1612 1.327 . S
C1614 C1633 1.429 . S
C1614 H1638 0.950 . S
C1615 C1632 1.574 . S
C1615 C1634 1.368 . S
C1615 H1639 0.949 . S
H1616 C1620 0.949 . S
C1617 C1618 1.349 . S
C1617 C1619 1.327 . S
C1617 H1640 0.950 . S
C1618 C1617 1.349 . S
C1618 C1630 1.349 . S
C1619 C1617 1.327 . S
C1619 C1635 1.429 . S
C1619 H1641 0.950 . S
C1620 H1616 0.949 . S
C1620 C1628 1.574 . S
C1620 C1636 1.368 . S
H1621 C1629 0.950 . S
H1622 C1627 0.950 . S
H1623 C1628 0.949 . S
H1624 C1630 0.950 . S
H1625 C1631 0.950 . S
H1626 C1632 0.949 . S
C1627 H1622 0.950 . S
C1627 C1629 1.327 . S
C1627 C1633 1.429 . S
C1628 C1620 1.574 . S
C1628 H1623 0.949 . S
C1628 C1634 1.368 . S
C1629 C1613 1.349 . S
C1629 H1621 0.950 . S
C1629 C1627 1.327 . S
C1630 C1618 1.349 . S
C1630 H1624 0.950 . S
C1630 C1631 1.327 . S
C1631 H1625 0.950 . S
C1631 C1630 1.327 . S
C1631 C1635 1.429 . S
C1632 C1615 1.574 . S
C1632 H1626 0.949 . S
C1632 C1636 1.368 . S
C1633 C1614 1.429 . S
C1633 C1627 1.429 . S
C1633 C1634 1.523 . S
C1634 C1615 1.368 . S
C1634 C1628 1.368 . S
C1634 C1633 1.523 . S
C1635 C1619 1.429 . S
C1635 C1631 1.429 . S
C1635 C1636 1.523 . S
C1636 C1620 1.368 . S
C1636 C1632 1.368 . S
C1636 C1635 1.523 . S
H1637 C1612 0.950 . S
H1638 C1614 0.950 . S
H1639 C1615 0.949 . S
H1640 C1617 0.950 . S
H1641 C1619 0.950 . S
C1642 C1643 1.349 . S
C1642 C1644 1.327 . S
C1642 H1667 0.950 . S
C1643 C1642 1.349 . S
C1643 C1659 1.349 . S
C1644 C1642 1.327 . S
C1644 C1663 1.429 . S
C1644 H1668 0.950 . S
C1645 C1662 1.574 . S
C1645 C1664 1.368 . S
C1645 H1669 0.949 . S
H1646 C1650 0.949 . S
C1647 C1648 1.349 . S
C1647 C1649 1.327 . S
C1647 H1670 0.950 . S
C1648 C1647 1.349 . S
C1648 C1660 1.349 . S
C1649 C1647 1.327 . S
C1649 C1665 1.429 . S
C1649 H1671 0.950 . S
C1650 H1646 0.949 . S
C1650 C1658 1.574 . S
C1650 C1666 1.368 . S
H1651 C1659 0.950 . S
H1652 C1657 0.950 . S
H1653 C1658 0.949 . S
H1654 C1660 0.950 . S
H1655 C1661 0.950 . S
H1656 C1662 0.949 . S
C1657 H1652 0.950 . S
C1657 C1659 1.327 . S
C1657 C1663 1.429 . S
C1658 C1650 1.574 . S
C1658 H1653 0.949 . S
C1658 C1664 1.368 . S
C1659 C1643 1.349 . S
C1659 H1651 0.950 . S
C1659 C1657 1.327 . S
C1660 C1648 1.349 . S
C1660 H1654 0.950 . S
C1660 C1661 1.327 . S
C1661 H1655 0.950 . S
C1661 C1660 1.327 . S
C1661 C1665 1.429 . S
C1662 C1645 1.574 . S
C1662 H1656 0.949 . S
C1662 C1666 1.368 . S
C1663 C1644 1.429 . S
C1663 C1657 1.429 . S
C1663 C1664 1.523 . S
C1664 C1645 1.368 . S
C1664 C1658 1.368 . S
C1664 C1663 1.523 . S
C1665 C1649 1.429 . S
C1665 C1661 1.429 . S
C1665 C1666 1.523 . S
C1666 C1650 1.368 . S
C1666 C1662 1.368 . S
C1666 C1665 1.523 . S
H1667 C1642 0.950 . S
H1668 C1644 0.950 . S
H1669 C1645 0.949 . S
H1670 C1647 0.950 . S
H1671 C1649 0.950 . S
C1672 C1673 1.349 . S
C1672 C1674 1.327 . S
C1672 H1697 0.950 . S
C1673 C1672 1.349 . S
C1673 C1689 1.349 . S
C1674 C1672 1.327 . S
C1674 C1693 1.429 . S
C1674 H1698 0.950 . S
C1675 C1692 1.574 . S
C1675 C1694 1.368 . S
C1675 H1699 0.949 . S
H1676 C1680 0.949 . S
C1677 C1678 1.349 . S
C1677 C1679 1.327 . S
C1677 H1700 0.950 . S
C1678 C1677 1.349 . S
C1678 C1690 1.349 . S
C1679 C1677 1.327 . S
C1679 C1695 1.429 . S
C1679 H1701 0.950 . S
C1680 H1676 0.949 . S
C1680 C1688 1.574 . S
C1680 C1696 1.368 . S
H1681 C1689 0.950 . S
H1682 C1687 0.950 . S
H1683 C1688 0.949 . S
H1684 C1690 0.950 . S
H1685 C1691 0.950 . S
H1686 C1692 0.949 . S
C1687 H1682 0.950 . S
C1687 C1689 1.327 . S
C1687 C1693 1.429 . S
C1688 C1680 1.574 . S
C1688 H1683 0.949 . S
C1688 C1694 1.368 . S
C1689 C1673 1.349 . S
C1689 H1681 0.950 . S
C1689 C1687 1.327 . S
C1690 C1678 1.349 . S
C1690 H1684 0.950 . S
C1690 C1691 1.327 . S
C1691 H1685 0.950 . S
C1691 C1690 1.327 . S
C1691 C1695 1.429 . S
C1692 C1675 1.574 . S
C1692 H1686 0.949 . S
C1692 C1696 1.368 . S
C1693 C1674 1.429 . S
C1693 C1687 1.429 . S
C1693 C1694 1.523 . S
C1694 C1675 1.368 . S
C1694 C1688 1.368 . S
C1694 C1693 1.523 . S
C1695 C1679 1.429 . S
C1695 C1691 1.429 . S
C1695 C1696 1.523 . S
C1696 C1680 1.368 . S
C1696 C1692 1.368 . S
C1696 C1695 1.523 . S
H1697 C1672 0.950 . S
H1698 C1674 0.950 . S
H1699 C1675 0.949 . S
H1700 C1677 0.950 . S
H1701 C1679 0.950 . S
C1702 C1703 1.349 . S
C1702 C1704 1.327 . S
C1702 H1727 0.950 . S
C1703 C1702 1.349 . S
C1703 C1719 1.349 . S
C1704 C1702 1.327 . S
C1704 C1723 1.429 . S
C1704 H1728 0.950 . S
C1705 C1722 1.574 . S
C1705 C1724 1.368 . S
C1705 H1729 0.949 . S
H1706 C1710 0.949 . S
C1707 C1708 1.349 . S
C1707 C1709 1.327 . S
C1707 H1730 0.950 . S
C1708 C1707 1.349 . S
C1708 C1720 1.349 . S
C1709 C1707 1.327 . S
C1709 C1725 1.429 . S
C1709 H1731 0.950 . S
C1710 H1706 0.949 . S
C1710 C1718 1.574 . S
C1710 C1726 1.368 . S
H1711 C1719 0.950 . S
H1712 C1717 0.950 . S
H1713 C1718 0.949 . S
H1714 C1720 0.950 . S
H1715 C1721 0.950 . S
H1716 C1722 0.949 . S
C1717 H1712 0.950 . S
C1717 C1719 1.327 . S
C1717 C1723 1.429 . S
C1718 C1710 1.574 . S
C1718 H1713 0.949 . S
C1718 C1724 1.368 . S
C1719 C1703 1.349 . S
C1719 H1711 0.950 . S
C1719 C1717 1.327 . S
C1720 C1708 1.349 . S
C1720 H1714 0.950 . S
C1720 C1721 1.327 . S
C1721 H1715 0.950 . S
C1721 C1720 1.327 . S
C1721 C1725 1.429 . S
C1722 C1705 1.574 . S
C1722 H1716 0.949 . S
C1722 C1726 1.368 . S
C1723 C1704 1.429 . S
C1723 C1717 1.429 . S
C1723 C1724 1.523 . S
C1724 C1705 1.368 . S
C1724 C1718 1.368 . S
C1724 C1723 1.523 . S
C1725 C1709 1.429 . S
C1725 C1721 1.429 . S
C1725 C1726 1.523 . S
C1726 C1710 1.368 . S
C1726 C1722 1.368 . S
C1726 C1725 1.523 . S
H1727 C1702 0.950 . S
H1728 C1704 0.950 . S
H1729 C1705 0.949 . S
H1730 C1707 0.950 . S
H1731 C1709 0.950 . S
C1732 C1733 1.349 . S
C1732 C1734 1.327 . S
C1732 H1757 0.950 . S
C1733 C1732 1.349 . S
C1733 C1749 1.349 . S
C1734 C1732 1.327 . S
C1734 C1753 1.429 . S
C1734 H1758 0.950 . S
C1735 C1752 1.574 . S
C1735 C1754 1.368 . S
C1735 H1759 0.949 . S
H1736 C1740 0.949 . S
C1737 C1738 1.349 . S
C1737 C1739 1.327 . S
C1737 H1760 0.950 . S
C1738 C1737 1.349 . S
C1738 C1750 1.349 . S
C1739 C1737 1.327 . S
C1739 C1755 1.429 . S
C1739 H1761 0.950 . S
C1740 H1736 0.949 . S
C1740 C1748 1.574 . S
C1740 C1756 1.368 . S
H1741 C1749 0.950 . S
H1742 C1747 0.950 . S
H1743 C1748 0.949 . S
H1744 C1750 0.950 . S
H1745 C1751 0.950 . S
H1746 C1752 0.949 . S
C1747 H1742 0.950 . S
C1747 C1749 1.327 . S
C1747 C1753 1.429 . S
C1748 C1740 1.574 . S
C1748 H1743 0.949 . S
C1748 C1754 1.368 . S
C1749 C1733 1.349 . S
C1749 H1741 0.950 . S
C1749 C1747 1.327 . S
C1750 C1738 1.349 . S
C1750 H1744 0.950 . S
C1750 C1751 1.327 . S
C1751 H1745 0.950 . S
C1751 C1750 1.327 . S
C1751 C1755 1.429 . S
C1752 C1735 1.574 . S
C1752 H1746 0.949 . S
C1752 C1756 1.368 . S
C1753 C1734 1.429 . S
C1753 C1747 1.429 . S
C1753 C1754 1.523 . S
C1754 C1735 1.368 . S
C1754 C1748 1.368 . S
C1754 C1753 1.523 . S
C1755 C1739 1.429 . S
C1755 C1751 1.429 . S
C1755 C1756 1.523 . S
C1756 C1740 1.368 . S
C1756 C1752 1.368 . S
C1756 C1755 1.523 . S
H1757 C1732 0.950 . S
H1758 C1734 0.950 . S
H1759 C1735 0.949 . S
H1760 C1737 0.950 . S
H1761 C1739 0.950 . S
C1762 C1763 1.349 . S
C1762 C1764 1.327 . S
C1762 H1787 0.950 . S
C1763 C1762 1.349 . S
C1763 C1779 1.349 . S
C1764 C1762 1.327 . S
C1764 C1783 1.429 . S
C1764 H1788 0.950 . S
C1765 C1782 1.574 . S
C1765 C1784 1.368 . S
C1765 H1789 0.949 . S
H1766 C1770 0.949 . S
C1767 C1768 1.349 . S
C1767 C1769 1.327 . S
C1767 H1790 0.950 . S
C1768 C1767 1.349 . S
C1768 C1780 1.349 . S
C1769 C1767 1.327 . S
C1769 C1785 1.429 . S
C1769 H1791 0.950 . S
C1770 H1766 0.949 . S
C1770 C1778 1.574 . S
C1770 C1786 1.368 . S
H1771 C1779 0.950 . S
H1772 C1777 0.950 . S
H1773 C1778 0.949 . S
H1774 C1780 0.950 . S
H1775 C1781 0.950 . S
H1776 C1782 0.949 . S
C1777 H1772 0.950 . S
C1777 C1779 1.327 . S
C1777 C1783 1.429 . S
C1778 C1770 1.574 . S
C1778 H1773 0.949 . S
C1778 C1784 1.368 . S
C1779 C1763 1.349 . S
C1779 H1771 0.950 . S
C1779 C1777 1.327 . S
C1780 C1768 1.349 . S
C1780 H1774 0.950 . S
C1780 C1781 1.327 . S
C1781 H1775 0.950 . S
C1781 C1780 1.327 . S
C1781 C1785 1.429 . S
C1782 C1765 1.574 . S
C1782 H1776 0.949 . S
C1782 C1786 1.368 . S
C1783 C1764 1.429 . S
C1783 C1777 1.429 . S
C1783 C1784 1.523 . S
C1784 C1765 1.368 . S
C1784 C1778 1.368 . S
C1784 C1783 1.523 . S
C1785 C1769 1.429 . S
C1785 C1781 1.429 . S
C1785 C1786 1.523 . S
C1786 C1770 1.368 . S
C1786 C1782 1.368 . S
C1786 C1785 1.523 . S
H1787 C1762 0.950 . S
H1788 C1764 0.950 . S
H1789 C1765 0.949 . S
H1790 C1767 0.950 . S
H1791 C1769 0.950 . S
C1792 C1793 1.349 . S
C1792 C1794 1.327 . S
C1792 H1817 0.950 . S
C1793 C1792 1.349 . S
C1793 C1809 1.349 . S
C1794 C1792 1.327 . S
C1794 C1813 1.429 . S
C1794 H1818 0.950 . S
C1795 C1812 1.574 . S
C1795 C1814 1.368 . S
C1795 H1819 0.954 1_455 S
H1796 C1800 0.949 . S
C1797 C1798 1.349 . S
C1797 C1799 1.327 . S
C1797 H1820 0.950 1_455 S
C1798 C1797 1.349 . S
C1798 C1810 1.349 . S
C1799 C1797 1.327 . S
C1799 C1815 1.429 . S
C1799 H1821 0.950 1_455 S
C1800 H1796 0.949 . S
C1800 C1808 1.574 . S
C1800 C1816 1.368 . S
H1801 C1809 0.950 . S
H1802 C1807 0.950 . S
H1803 C1808 0.949 . S
H1804 C1810 0.950 . S
H1805 C1811 0.950 . S
H1806 C1812 0.949 1_655 S
C1807 H1802 0.950 . S
C1807 C1809 1.327 . S
C1807 C1813 1.429 . S
C1808 C1800 1.574 . S
C1808 H1803 0.949 . S
C1808 C1814 1.368 . S
C1809 C1793 1.349 . S
C1809 H1801 0.950 . S
C1809 C1807 1.327 . S
C1810 C1798 1.349 . S
C1810 H1804 0.950 . S
C1810 C1811 1.327 . S
C1811 H1805 0.950 . S
C1811 C1810 1.327 . S
C1811 C1815 1.429 . S
C1812 C1795 1.574 . S
C1812 H1806 0.949 1_455 S
C1812 C1816 1.368 . S
C1813 C1794 1.429 . S
C1813 C1807 1.429 . S
C1813 C1814 1.523 . S
C1814 C1795 1.368 . S
C1814 C1808 1.368 . S
C1814 C1813 1.523 . S
C1815 C1799 1.429 . S
C1815 C1811 1.429 . S
C1815 C1816 1.523 . S
C1816 C1800 1.368 . S
C1816 C1812 1.368 . S
C1816 C1815 1.523 . S
H1817 C1792 0.950 . S
H1818 C1794 0.950 . S
H1819 C1795 0.954 1_655 S
H1820 C1797 0.950 1_655 S
H1821 C1799 0.950 1_655 S
C1822 C1823 1.349 . S
C1822 C1824 1.327 . S
C1822 H1847 0.950 . S
C1823 C1822 1.349 . S
C1823 C1839 1.349 . S
C1824 C1822 1.327 . S
C1824 C1843 1.429 . S
C1824 H1848 0.950 . S
C1825 C1842 1.574 . S
C1825 C1844 1.368 . S
C1825 H1849 0.949 . S
H1826 C1830 0.949 . S
C1827 C1828 1.349 . S
C1827 C1829 1.327 . S
C1827 H1850 0.950 . S
C1828 C1827 1.349 . S
C1828 C1840 1.349 . S
C1829 C1827 1.327 . S
C1829 C1845 1.429 . S
C1829 H1851 0.950 . S
C1830 H1826 0.949 . S
C1830 C1838 1.574 . S
C1830 C1846 1.368 . S
H1831 C1839 0.950 . S
H1832 C1837 0.950 . S
H1833 C1838 0.949 . S
H1834 C1840 0.950 . S
H1835 C1841 0.950 . S
H1836 C1842 0.949 . S
C1837 H1832 0.950 . S
C1837 C1839 1.327 . S
C1837 C1843 1.429 . S
C1838 C1830 1.574 . S
C1838 H1833 0.949 . S
C1838 C1844 1.368 . S
C1839 C1823 1.349 . S
C1839 H1831 0.950 . S
C1839 C1837 1.327 . S
C1840 C1828 1.349 . S
C1840 H1834 0.950 . S
C1840 C1841 1.327 . S
C1841 H1835 0.950 . S
C1841 C1840 1.327 . S
C1841 C1845 1.429 . S
C1842 C1825 1.574 . S
C1842 H1836 0.949 . S
C1842 C1846 1.368 . S
C1843 C1824 1.429 . S
C1843 C1837 1.429 . S
C1843 C1844 1.523 . S
C1844 C1825 1.368 . S
C1844 C1838 1.368 . S
C1844 C1843 1.523 . S
C1845 C1829 1.429 . S
C1845 C1841 1.429 . S
C1845 C1846 1.523 . S
C1846 C1830 1.368 . S
C1846 C1842 1.368 . S
C1846 C1845 1.523 . S
H1847 C1822 0.950 . S
H1848 C1824 0.950 . S
H1849 C1825 0.949 . S
H1850 C1827 0.950 . S
H1851 C1829 0.950 . S
C1852 C1853 1.349 . S
C1852 C1854 1.327 . S
C1852 H1877 0.950 . S
C1853 C1852 1.349 . S
C1853 C1869 1.349 . S
C1854 C1852 1.327 . S
C1854 C1873 1.429 . S
C1854 H1878 0.950 . S
C1855 C1872 1.574 . S
C1855 C1874 1.368 . S
C1855 H1879 0.949 . S
H1856 C1860 0.949 . S
C1857 C1858 1.349 . S
C1857 C1859 1.327 . S
C1857 H1880 0.950 1_556 S
C1858 C1857 1.349 . S
C1858 C1870 1.349 . S
C1859 C1857 1.327 . S
C1859 C1875 1.429 . S
C1859 H1881 0.950 . S
C1860 H1856 0.949 . S
C1860 C1868 1.574 . S
C1860 C1876 1.368 . S
H1861 C1869 0.950 . S
H1862 C1867 0.950 . S
H1863 C1868 0.949 . S
H1864 C1870 0.950 . S
H1865 C1871 0.950 . S
H1866 C1872 0.949 . S
C1867 H1862 0.950 . S
C1867 C1869 1.327 . S
C1867 C1873 1.429 . S
C1868 C1860 1.574 . S
C1868 H1863 0.949 . S
C1868 C1874 1.368 . S
C1869 C1853 1.349 . S
C1869 H1861 0.950 . S
C1869 C1867 1.327 . S
C1870 C1858 1.349 . S
C1870 H1864 0.950 . S
C1870 C1871 1.327 . S
C1871 H1865 0.950 . S
C1871 C1870 1.327 . S
C1871 C1875 1.429 . S
C1872 C1855 1.574 . S
C1872 H1866 0.949 . S
C1872 C1876 1.368 . S
C1873 C1854 1.429 . S
C1873 C1867 1.429 . S
C1873 C1874 1.523 . S
C1874 C1855 1.368 . S
C1874 C1868 1.368 . S
C1874 C1873 1.523 . S
C1875 C1859 1.429 . S
C1875 C1871 1.429 . S
C1875 C1876 1.523 . S
C1876 C1860 1.368 . S
C1876 C1872 1.368 . S
C1876 C1875 1.523 . S
H1877 C1852 0.950 . S
H1878 C1854 0.950 . S
H1879 C1855 0.949 . S
H1880 C1857 0.950 1_554 S
H1881 C1859 0.950 . S
C1882 C1883 1.349 . S
C1882 C1884 1.327 . S
C1882 H1907 0.950 . S
C1883 C1882 1.349 . S
C1883 C1899 1.349 . S
C1884 C1882 1.327 . S
C1884 C1903 1.429 . S
C1884 H1908 0.950 . S
C1885 C1902 1.574 . S
C1885 C1904 1.368 . S
C1885 H1909 0.949 . S
H1886 C1890 0.949 . S
C1887 C1888 1.349 . S
C1887 C1889 1.327 . S
C1887 H1910 0.950 . S
C1888 C1887 1.349 . S
C1888 C1900 1.349 . S
C1889 C1887 1.327 . S
C1889 C1905 1.429 . S
C1889 H1911 0.950 . S
C1890 H1886 0.949 . S
C1890 C1898 1.574 . S
C1890 C1906 1.368 . S
H1891 C1899 0.950 . S
H1892 C1897 0.950 . S
H1893 C1898 0.949 . S
H1894 C1900 0.950 . S
H1895 C1901 0.950 . S
H1896 C1902 0.949 . S
C1897 H1892 0.950 . S
C1897 C1899 1.327 . S
C1897 C1903 1.429 . S
C1898 C1890 1.574 . S
C1898 H1893 0.949 . S
C1898 C1904 1.368 . S
C1899 C1883 1.349 . S
C1899 H1891 0.950 . S
C1899 C1897 1.327 . S
C1900 C1888 1.349 . S
C1900 H1894 0.950 . S
C1900 C1901 1.327 . S
C1901 H1895 0.950 . S
C1901 C1900 1.327 . S
C1901 C1905 1.429 . S
C1902 C1885 1.574 . S
C1902 H1896 0.949 . S
C1902 C1906 1.368 . S
C1903 C1884 1.429 . S
C1903 C1897 1.429 . S
C1903 C1904 1.523 . S
C1904 C1885 1.368 . S
C1904 C1898 1.368 . S
C1904 C1903 1.523 . S
C1905 C1889 1.429 . S
C1905 C1901 1.429 . S
C1905 C1906 1.523 . S
C1906 C1890 1.368 . S
C1906 C1902 1.368 . S
C1906 C1905 1.523 . S
H1907 C1882 0.950 . S
H1908 C1884 0.950 . S
H1909 C1885 0.949 . S
H1910 C1887 0.950 . S
H1911 C1889 0.950 . S
C1912 C1913 1.349 . S
C1912 C1914 1.327 . S
C1912 H1937 0.950 . S
C1913 C1912 1.349 . S
C1913 C1929 1.349 . S
C1914 C1912 1.327 . S
C1914 C1933 1.429 . S
C1914 H1938 0.950 . S
C1915 C1932 1.574 . S
C1915 C1934 1.368 . S
C1915 H1939 0.949 . S
H1916 C1920 0.949 . S
C1917 C1918 1.349 . S
C1917 C1919 1.327 . S
C1917 H1940 0.950 . S
C1918 C1917 1.349 . S
C1918 C1930 1.349 . S
C1919 C1917 1.327 . S
C1919 C1935 1.429 . S
C1919 H1941 0.950 . S
C1920 H1916 0.949 . S
C1920 C1928 1.574 . S
C1920 C1936 1.368 . S
H1921 C1929 0.950 . S
H1922 C1927 0.950 . S
H1923 C1928 0.949 . S
H1924 C1930 0.950 . S
H1925 C1931 0.950 . S
H1926 C1932 0.949 . S
C1927 H1922 0.950 . S
C1927 C1929 1.327 . S
C1927 C1933 1.429 . S
C1928 C1920 1.574 . S
C1928 H1923 0.949 . S
C1928 C1934 1.368 . S
C1929 C1913 1.349 . S
C1929 H1921 0.950 . S
C1929 C1927 1.327 . S
C1930 C1918 1.349 . S
C1930 H1924 0.950 . S
C1930 C1931 1.327 . S
C1931 H1925 0.950 . S
C1931 C1930 1.327 . S
C1931 C1935 1.429 . S
C1932 C1915 1.574 . S
C1932 H1926 0.949 . S
C1932 C1936 1.368 . S
C1933 C1914 1.429 . S
C1933 C1927 1.429 . S
C1933 C1934 1.523 . S
C1934 C1915 1.368 . S
C1934 C1928 1.368 . S
C1934 C1933 1.523 . S
C1935 C1919 1.429 . S
C1935 C1931 1.429 . S
C1935 C1936 1.523 . S
C1936 C1920 1.368 . S
C1936 C1932 1.368 . S
C1936 C1935 1.523 . S
H1937 C1912 0.950 . S
H1938 C1914 0.950 . S
H1939 C1915 0.949 . S
H1940 C1917 0.950 . S
H1941 C1919 0.950 . S
C1942 C1943 1.349 . S
C1942 C1944 1.327 . S
C1942 H1967 0.950 . S
C1943 C1942 1.349 . S
C1943 C1959 1.349 . S
C1944 C1942 1.327 . S
C1944 C1963 1.429 . S
C1944 H1968 0.950 . S
C1945 C1962 1.574 . S
C1945 C1964 1.368 . S
C1945 H1969 0.949 . S
H1946 C1950 0.949 . S
C1947 C1948 1.349 . S
C1947 C1949 1.327 . S
C1947 H1970 0.950 . S
C1948 C1947 1.349 . S
C1948 C1960 1.349 . S
C1949 C1947 1.327 . S
C1949 C1965 1.429 . S
C1949 H1971 0.950 . S
C1950 H1946 0.949 . S
C1950 C1958 1.574 . S
C1950 C1966 1.368 . S
H1951 C1959 0.950 . S
H1952 C1957 0.950 . S
H1953 C1958 0.949 . S
H1954 C1960 0.950 . S
H1955 C1961 0.950 . S
H1956 C1962 0.949 . S
C1957 H1952 0.950 . S
C1957 C1959 1.327 . S
C1957 C1963 1.429 . S
C1958 C1950 1.574 . S
C1958 H1953 0.949 . S
C1958 C1964 1.368 . S
C1959 C1943 1.349 . S
C1959 H1951 0.950 . S
C1959 C1957 1.327 . S
C1960 C1948 1.349 . S
C1960 H1954 0.950 . S
C1960 C1961 1.327 . S
C1961 H1955 0.950 . S
C1961 C1960 1.327 . S
C1961 C1965 1.429 . S
C1962 C1945 1.574 . S
C1962 H1956 0.949 . S
C1962 C1966 1.368 . S
C1963 C1944 1.429 . S
C1963 C1957 1.429 . S
C1963 C1964 1.523 . S
C1964 C1945 1.368 . S
C1964 C1958 1.368 . S
C1964 C1963 1.523 . S
C1965 C1949 1.429 . S
C1965 C1961 1.429 . S
C1965 C1966 1.523 . S
C1966 C1950 1.368 . S
C1966 C1962 1.368 . S
C1966 C1965 1.523 . S
H1967 C1942 0.950 . S
H1968 C1944 0.950 . S
H1969 C1945 0.949 . S
H1970 C1947 0.950 . S
H1971 C1949 0.950 . S
C1972 C1973 1.349 . S
C1972 C1974 1.327 . S
C1972 H1997 0.950 . S
C1973 C1972 1.349 . S
C1973 C1989 1.349 1_545 S
C1974 C1972 1.327 . S
C1974 C1993 1.429 . S
C1974 H1998 0.950 . S
C1975 C1992 1.574 . S
C1975 C1994 1.368 . S
C1975 H1999 0.949 1_545 S
H1976 C1980 0.949 . S
C1977 C1978 1.349 . S
C1977 C1979 1.327 . S
C1977 H2000 0.950 . S
C1978 C1977 1.349 . S
C1978 C1990 1.349 . S
C1979 C1977 1.327 . S
C1979 C1995 1.429 . S
C1979 H2001 0.910 1_545 S
C1980 H1976 0.949 . S
C1980 C1988 1.574 . S
C1980 C1996 1.368 . S
H1981 C1989 0.950 . S
H1982 C1987 0.950 . S
H1983 C1988 0.949 . S
H1984 C1990 0.950 . S
H1985 C1991 0.950 . S
H1986 C1992 0.949 1_565 S
C1987 H1982 0.950 . S
C1987 C1989 1.327 . S
C1987 C1993 1.429 1_565 S
C1988 C1980 1.574 . S
C1988 H1983 0.949 . S
C1988 C1994 1.368 . S
C1989 C1973 1.349 1_565 S
C1989 H1981 0.950 . S
C1989 C1987 1.327 . S
C1990 C1978 1.349 . S
C1990 H1984 0.950 . S
C1990 C1991 1.327 . S
C1991 H1985 0.950 . S
C1991 C1990 1.327 . S
C1991 C1995 1.429 . S
C1992 C1975 1.574 . S
C1992 H1986 0.949 1_545 S
C1992 C1996 1.368 . S
C1993 C1974 1.429 . S
C1993 C1987 1.429 1_545 S
C1993 C1994 1.523 . S
C1994 C1975 1.368 . S
C1994 C1988 1.368 . S
C1994 C1993 1.523 . S
C1995 C1979 1.429 . S
C1995 C1991 1.429 . S
C1995 C1996 1.523 . S
C1996 C1980 1.368 . S
C1996 C1992 1.368 . S
C1996 C1995 1.523 . S
H1997 C1972 0.950 . S
H1998 C1974 0.950 . S
H1999 C1975 0.949 1_565 S
H2000 C1977 0.950 . S
H2001 C1979 0.910 1_565 S
C2002 C2003 1.349 . S
C2002 C2004 1.327 . S
C2002 H2027 0.950 . S
C2003 C2002 1.349 . S
C2003 C2019 1.349 . S
C2004 C2002 1.327 . S
C2004 C2023 1.429 . S
C2004 H2028 0.950 . S
C2005 C2022 1.574 . S
C2005 C2024 1.368 . S
C2005 H2029 0.949 . S
H2006 C2010 0.949 . S
C2007 C2008 1.349 . S
C2007 C2009 1.327 . S
C2007 H2030 0.950 . S
C2008 C2007 1.349 . S
C2008 C2020 1.349 . S
C2009 C2007 1.327 . S
C2009 C2025 1.429 . S
C2009 H2031 0.950 . S
C2010 H2006 0.949 . S
C2010 C2018 1.574 . S
C2010 C2026 1.368 . S
H2011 C2019 0.950 . S
H2012 C2017 0.950 . S
H2013 C2018 0.949 . S
H2014 C2020 0.950 . S
H2015 C2021 0.950 . S
H2016 C2022 0.949 . S
C2017 H2012 0.950 . S
C2017 C2019 1.327 . S
C2017 C2023 1.429 . S
C2018 C2010 1.574 . S
C2018 H2013 0.949 . S
C2018 C2024 1.368 . S
C2019 C2003 1.349 . S
C2019 H2011 0.950 . S
C2019 C2017 1.327 . S
C2020 C2008 1.349 . S
C2020 H2014 0.950 . S
C2020 C2021 1.327 . S
C2021 H2015 0.950 . S
C2021 C2020 1.327 . S
C2021 C2025 1.429 . S
C2022 C2005 1.574 . S
C2022 H2016 0.949 . S
C2022 C2026 1.368 . S
C2023 C2004 1.429 . S
C2023 C2017 1.429 . S
C2023 C2024 1.523 . S
C2024 C2005 1.368 . S
C2024 C2018 1.368 . S
C2024 C2023 1.523 . S
C2025 C2009 1.429 . S
C2025 C2021 1.429 . S
C2025 C2026 1.523 . S
C2026 C2010 1.368 . S
C2026 C2022 1.368 . S
C2026 C2025 1.523 . S
H2027 C2002 0.950 . S
H2028 C2004 0.950 . S
H2029 C2005 0.949 . S
H2030 C2007 0.950 . S
H2031 C2009 0.950 . S
C2032 C2033 1.349 . S
C2032 C2034 1.327 . S
C2032 H2057 0.950 . S
C2033 C2032 1.349 . S
C2033 C2049 1.349 . S
C2034 C2032 1.327 . S
C2034 C2053 1.429 . S
C2034 H2058 0.950 . S
C2035 C2052 1.574 . S
C2035 C2054 1.368 . S
C2035 H2059 0.949 . S
H2036 C2040 0.949 . S
C2037 C2038 1.349 . S
C2037 C2039 1.327 . S
C2037 H2060 0.950 . S
C2038 C2037 1.349 . S
C2038 C2050 1.349 . S
C2039 C2037 1.327 . S
C2039 C2055 1.429 . S
C2039 H2061 0.950 . S
C2040 H2036 0.949 . S
C2040 C2048 1.574 . S
C2040 C2056 1.368 . S
H2041 C2049 0.950 . S
H2042 C2047 0.950 . S
H2043 C2048 0.949 . S
H2044 C2050 0.950 . S
H2045 C2051 0.950 . S
H2046 C2052 0.949 . S
C2047 H2042 0.950 . S
C2047 C2049 1.327 . S
C2047 C2053 1.429 . S
C2048 C2040 1.574 . S
C2048 H2043 0.949 . S
C2048 C2054 1.368 . S
C2049 C2033 1.349 . S
C2049 H2041 0.950 . S
C2049 C2047 1.327 . S
C2050 C2038 1.349 . S
C2050 H2044 0.950 . S
C2050 C2051 1.327 . S
C2051 H2045 0.950 . S
C2051 C2050 1.327 . S
C2051 C2055 1.429 . S
C2052 C2035 1.574 . S
C2052 H2046 0.949 . S
C2052 C2056 1.368 . S
C2053 C2034 1.429 . S
C2053 C2047 1.429 . S
C2053 C2054 1.523 . S
C2054 C2035 1.368 . S
C2054 C2048 1.368 . S
C2054 C2053 1.523 . S
C2055 C2039 1.429 . S
C2055 C2051 1.429 . S
C2055 C2056 1.523 . S
C2056 C2040 1.368 . S
C2056 C2052 1.368 . S
C2056 C2055 1.523 . S
H2057 C2032 0.950 . S
H2058 C2034 0.950 . S
H2059 C2035 0.949 . S
H2060 C2037 0.950 . S
H2061 C2039 0.950 . S
C2062 C2063 1.349 . S
C2062 C2064 1.327 . S
C2062 H2087 0.950 . S
C2063 C2062 1.349 . S
C2063 C2079 1.349 . S
C2064 C2062 1.327 . S
C2064 C2083 1.429 . S
C2064 H2088 0.950 . S
C2065 C2082 1.574 . S
C2065 C2084 1.368 . S
C2065 H2089 0.949 . S
H2066 C2070 0.949 . S
C2067 C2068 1.349 . S
C2067 C2069 1.327 . S
C2067 H2090 0.950 . S
C2068 C2067 1.349 . S
C2068 C2080 1.349 . S
C2069 C2067 1.327 . S
C2069 C2085 1.429 . S
C2069 H2091 0.950 . S
C2070 H2066 0.949 . S
C2070 C2078 1.574 . S
C2070 C2086 1.368 . S
H2071 C2079 0.950 . S
H2072 C2077 0.950 . S
H2073 C2078 0.949 . S
H2074 C2080 0.950 . S
H2075 C2081 0.950 . S
H2076 C2082 0.949 . S
C2077 H2072 0.950 . S
C2077 C2079 1.327 . S
C2077 C2083 1.429 . S
C2078 C2070 1.574 . S
C2078 H2073 0.949 . S
C2078 C2084 1.368 . S
C2079 C2063 1.349 . S
C2079 H2071 0.950 . S
C2079 C2077 1.327 . S
C2080 C2068 1.349 . S
C2080 H2074 0.950 . S
C2080 C2081 1.327 . S
C2081 H2075 0.950 . S
C2081 C2080 1.327 . S
C2081 C2085 1.429 . S
C2082 C2065 1.574 . S
C2082 H2076 0.949 . S
C2082 C2086 1.368 . S
C2083 C2064 1.429 . S
C2083 C2077 1.429 . S
C2083 C2084 1.523 . S
C2084 C2065 1.368 . S
C2084 C2078 1.368 . S
C2084 C2083 1.523 . S
C2085 C2069 1.429 . S
C2085 C2081 1.429 . S
C2085 C2086 1.523 . S
C2086 C2070 1.368 . S
C2086 C2082 1.368 . S
C2086 C2085 1.523 . S
H2087 C2062 0.950 . S
H2088 C2064 0.950 . S
H2089 C2065 0.949 . S
H2090 C2067 0.950 . S
H2091 C2069 0.950 . S
C2092 C2093 1.349 1_565 S
C2092 C2094 1.327 . S
C2092 H2117 0.950 . S
C2093 C2092 1.349 1_545 S
C2093 C2109 1.349 . S
C2094 C2092 1.327 . S
C2094 C2113 1.429 1_565 S
C2094 H2118 0.950 . S
C2095 C2112 1.574 . S
C2095 C2114 1.368 . S
C2095 H2119 0.949 . S
H2096 C2100 0.949 . S
C2097 C2098 1.349 . S
C2097 C2099 1.327 . S
C2097 H2120 0.950 . S
C2098 C2097 1.349 . S
C2098 C2110 1.349 1_545 S
C2099 C2097 1.327 . S
C2099 C2115 1.429 . S
C2099 H2121 0.950 . S
C2100 H2096 0.949 . S
C2100 C2108 1.574 . S
C2100 C2116 1.368 1_565 S
H2101 C2109 0.950 . S
H2102 C2107 0.950 . S
H2103 C2108 0.949 . S
H2104 C2110 0.950 . S
H2105 C2111 0.950 . S
H2106 C2112 0.949 . S
C2107 H2102 0.950 . S
C2107 C2109 1.327 . S
C2107 C2113 1.429 . S
C2108 C2100 1.574 . S
C2108 H2103 0.949 . S
C2108 C2114 1.368 1_565 S
C2109 C2093 1.349 . S
C2109 H2101 0.950 . S
C2109 C2107 1.327 . S
C2110 C2098 1.349 1_565 S
C2110 H2104 0.950 . S
C2110 C2111 1.327 . S
C2111 H2105 0.950 . S
C2111 C2110 1.327 . S
C2111 C2115 1.429 1_565 S
C2112 C2095 1.574 . S
C2112 H2106 0.949 . S
C2112 C2116 1.368 . S
C2113 C2094 1.429 1_545 S
C2113 C2107 1.429 . S
C2113 C2114 1.523 . S
C2114 C2095 1.368 . S
C2114 C2108 1.368 1_545 S
C2114 C2113 1.523 . S
C2115 C2099 1.429 . S
C2115 C2111 1.429 1_545 S
C2115 C2116 1.523 . S
C2116 C2100 1.368 1_545 S
C2116 C2112 1.368 . S
C2116 C2115 1.523 . S
H2117 C2092 0.950 . S
H2118 C2094 0.950 . S
H2119 C2095 0.949 . S
H2120 C2097 0.950 . S
H2121 C2099 0.950 . S
C2122 C2123 1.349 . S
C2122 C2124 1.327 . S
C2122 H2147 0.950 . S
C2123 C2122 1.349 . S
C2123 C2139 1.349 . S
C2124 C2122 1.327 . S
C2124 C2143 1.429 . S
C2124 H2148 0.950 . S
C2125 C2142 1.574 . S
C2125 C2144 1.368 . S
C2125 H2149 0.949 . S
H2126 C2130 0.949 . S
C2127 C2128 1.349 . S
C2127 C2129 1.327 . S
C2127 H2150 0.950 . S
C2128 C2127 1.349 . S
C2128 C2140 1.349 . S
C2129 C2127 1.327 . S
C2129 C2145 1.429 . S
C2129 H2151 0.950 . S
C2130 H2126 0.949 . S
C2130 C2138 1.574 . S
C2130 C2146 1.368 . S
H2131 C2139 0.950 . S
H2132 C2137 0.950 . S
H2133 C2138 0.949 . S
H2134 C2140 0.950 . S
H2135 C2141 0.950 . S
H2136 C2142 0.949 . S
C2137 H2132 0.950 . S
C2137 C2139 1.327 . S
C2137 C2143 1.429 . S
C2138 C2130 1.574 . S
C2138 H2133 0.949 . S
C2138 C2144 1.368 . S
C2139 C2123 1.349 . S
C2139 H2131 0.950 . S
C2139 C2137 1.327 . S
C2140 C2128 1.349 . S
C2140 H2134 0.950 . S
C2140 C2141 1.327 . S
C2141 H2135 0.950 . S
C2141 C2140 1.327 . S
C2141 C2145 1.429 . S
C2142 C2125 1.574 . S
C2142 H2136 0.949 . S
C2142 C2146 1.368 . S
C2143 C2124 1.429 . S
C2143 C2137 1.429 . S
C2143 C2144 1.523 . S
C2144 C2125 1.368 . S
C2144 C2138 1.368 . S
C2144 C2143 1.523 . S
C2145 C2129 1.429 . S
C2145 C2141 1.429 . S
C2145 C2146 1.523 . S
C2146 C2130 1.368 . S
C2146 C2142 1.368 . S
C2146 C2145 1.523 . S
H2147 C2122 0.950 . S
H2148 C2124 0.950 . S
H2149 C2125 0.949 . S
H2150 C2127 0.950 . S
H2151 C2129 0.950 . S
C2152 C2153 1.349 . S
C2152 C2154 1.327 . S
C2152 H2177 0.950 . S
C2153 C2152 1.349 . S
C2153 C2169 1.349 . S
C2154 C2152 1.327 . S
C2154 C2173 1.429 . S
C2154 H2178 0.950 . S
C2155 C2172 1.574 . S
C2155 C2174 1.368 . S
C2155 H2179 0.949 . S
H2156 C2160 0.949 . S
C2157 C2158 1.349 . S
C2157 C2159 1.327 . S
C2157 H2180 0.950 . S
C2158 C2157 1.349 . S
C2158 C2170 1.349 . S
C2159 C2157 1.327 . S
C2159 C2175 1.429 . S
C2159 H2181 0.950 . S
C2160 H2156 0.949 . S
C2160 C2168 1.574 . S
C2160 C2176 1.368 . S
H2161 C2169 0.950 . S
H2162 C2167 0.950 . S
H2163 C2168 0.949 . S
H2164 C2170 0.950 1_556 S
H2165 C2171 0.950 1_556 S
H2166 C2172 0.949 . S
C2167 H2162 0.950 . S
C2167 C2169 1.327 . S
C2167 C2173 1.429 . S
C2168 C2160 1.574 . S
C2168 H2163 0.949 . S
C2168 C2174 1.368 . S
C2169 C2153 1.349 . S
C2169 H2161 0.950 . S
C2169 C2167 1.327 . S
C2170 C2158 1.349 . S
C2170 H2164 0.950 1_554 S
C2170 C2171 1.327 . S
C2171 H2165 0.950 1_554 S
C2171 C2170 1.327 . S
C2171 C2175 1.429 . S
C2172 C2155 1.574 . S
C2172 H2166 0.949 . S
C2172 C2176 1.368 . S
C2173 C2154 1.429 . S
C2173 C2167 1.429 . S
C2173 C2174 1.523 . S
C2174 C2155 1.368 . S
C2174 C2168 1.368 . S
C2174 C2173 1.523 . S
C2175 C2159 1.429 . S
C2175 C2171 1.429 . S
C2175 C2176 1.523 . S
C2176 C2160 1.368 . S
C2176 C2172 1.368 . S
C2176 C2175 1.523 . S
H2177 C2152 0.950 . S
H2178 C2154 0.950 . S
H2179 C2155 0.949 . S
H2180 C2157 0.950 . S
H2181 C2159 0.950 . S
C2182 C2183 1.349 . S
C2182 C2184 1.327 . S
C2182 H2207 0.950 . S
C2183 C2182 1.349 . S
C2183 C2199 1.349 . S
C2184 C2182 1.327 . S
C2184 C2203 1.429 . S
C2184 H2208 0.950 . S
C2185 C2202 1.574 . S
C2185 C2204 1.368 . S
C2185 H2209 0.953 1_554 S
H2186 C2190 0.949 . S
C2187 C2188 1.349 . S
C2187 C2189 1.327 . S
C2187 H2210 0.950 1_554 S
C2188 C2187 1.349 . S
C2188 C2200 1.349 . S
C2189 C2187 1.327 . S
C2189 C2205 1.429 . S
C2189 H2211 0.950 1_554 S
C2190 H2186 0.949 . S
C2190 C2198 1.574 . S
C2190 C2206 1.368 . S
H2191 C2199 0.950 . S
H2192 C2197 0.950 . S
H2193 C2198 0.949 . S
H2194 C2200 0.950 . S
H2195 C2201 0.950 . S
H2196 C2202 0.949 1_556 S
C2197 H2192 0.950 . S
C2197 C2199 1.327 . S
C2197 C2203 1.429 . S
C2198 C2190 1.574 . S
C2198 H2193 0.949 . S
C2198 C2204 1.368 . S
C2199 C2183 1.349 . S
C2199 H2191 0.950 . S
C2199 C2197 1.327 . S
C2200 C2188 1.349 . S
C2200 H2194 0.950 . S
C2200 C2201 1.327 . S
C2201 H2195 0.950 . S
C2201 C2200 1.327 . S
C2201 C2205 1.429 . S
C2202 C2185 1.574 . S
C2202 H2196 0.949 1_554 S
C2202 C2206 1.368 . S
C2203 C2184 1.429 . S
C2203 C2197 1.429 . S
C2203 C2204 1.523 . S
C2204 C2185 1.368 . S
C2204 C2198 1.368 . S
C2204 C2203 1.523 . S
C2205 C2189 1.429 . S
C2205 C2201 1.429 . S
C2205 C2206 1.523 . S
C2206 C2190 1.368 . S
C2206 C2202 1.368 . S
C2206 C2205 1.523 . S
H2207 C2182 0.950 . S
H2208 C2184 0.950 . S
H2209 C2185 0.953 1_556 S
H2210 C2187 0.950 1_556 S
H2211 C2189 0.950 1_556 S
C2212 C2213 1.349 . S
C2212 C2214 1.327 . S
C2212 H2237 0.950 . S
C2213 C2212 1.349 . S
C2213 C2229 1.349 . S
C2214 C2212 1.327 . S
C2214 C2233 1.429 . S
C2214 H2238 0.950 . S
C2215 C2232 1.574 . S
C2215 C2234 1.368 . S
C2215 H2239 0.949 . S
H2216 C2220 0.949 . S
C2217 C2218 1.349 . S
C2217 C2219 1.327 . S
C2217 H2240 0.950 . S
C2218 C2217 1.349 . S
C2218 C2230 1.349 . S
C2219 C2217 1.327 . S
C2219 C2235 1.429 . S
C2219 H2241 0.950 . S
C2220 H2216 0.949 . S
C2220 C2228 1.574 . S
C2220 C2236 1.368 . S
H2221 C2229 0.950 . S
H2222 C2227 0.950 . S
H2223 C2228 0.949 . S
H2224 C2230 0.950 . S
H2225 C2231 0.950 . S
H2226 C2232 0.949 . S
C2227 H2222 0.950 . S
C2227 C2229 1.327 . S
C2227 C2233 1.429 . S
C2228 C2220 1.574 . S
C2228 H2223 0.949 . S
C2228 C2234 1.368 . S
C2229 C2213 1.349 . S
C2229 H2221 0.950 . S
C2229 C2227 1.327 . S
C2230 C2218 1.349 . S
C2230 H2224 0.950 . S
C2230 C2231 1.327 . S
C2231 H2225 0.950 . S
C2231 C2230 1.327 . S
C2231 C2235 1.429 . S
C2232 C2215 1.574 . S
C2232 H2226 0.949 . S
C2232 C2236 1.368 . S
C2233 C2214 1.429 . S
C2233 C2227 1.429 . S
C2233 C2234 1.523 . S
C2234 C2215 1.368 . S
C2234 C2228 1.368 . S
C2234 C2233 1.523 . S
C2235 C2219 1.429 . S
C2235 C2231 1.429 . S
C2235 C2236 1.523 . S
C2236 C2220 1.368 . S
C2236 C2232 1.368 . S
C2236 C2235 1.523 . S
H2237 C2212 0.950 . S
H2238 C2214 0.950 . S
H2239 C2215 0.949 . S
H2240 C2217 0.950 . S
H2241 C2219 0.950 . S
C2242 C2243 1.349 . S
C2242 C2244 1.327 . S
C2242 H2267 0.950 . S
C2243 C2242 1.349 . S
C2243 C2259 1.349 . S
C2244 C2242 1.327 . S
C2244 C2263 1.429 . S
C2244 H2268 0.950 . S
C2245 C2262 1.574 . S
C2245 C2264 1.368 . S
C2245 H2269 0.949 . S
H2246 C2250 0.949 . S
C2247 C2248 1.349 . S
C2247 C2249 1.327 . S
C2247 H2270 0.950 . S
C2248 C2247 1.349 . S
C2248 C2260 1.349 . S
C2249 C2247 1.327 . S
C2249 C2265 1.429 . S
C2249 H2271 0.950 . S
C2250 H2246 0.949 . S
C2250 C2258 1.574 . S
C2250 C2266 1.368 . S
H2251 C2259 0.950 . S
H2252 C2257 0.950 . S
H2253 C2258 0.949 . S
H2254 C2260 0.950 . S
H2255 C2261 0.950 . S
H2256 C2262 0.949 . S
C2257 H2252 0.950 . S
C2257 C2259 1.327 . S
C2257 C2263 1.429 . S
C2258 C2250 1.574 . S
C2258 H2253 0.949 . S
C2258 C2264 1.368 . S
C2259 C2243 1.349 . S
C2259 H2251 0.950 . S
C2259 C2257 1.327 . S
C2260 C2248 1.349 . S
C2260 H2254 0.950 . S
C2260 C2261 1.327 . S
C2261 H2255 0.950 . S
C2261 C2260 1.327 . S
C2261 C2265 1.429 . S
C2262 C2245 1.574 . S
C2262 H2256 0.949 . S
C2262 C2266 1.368 . S
C2263 C2244 1.429 . S
C2263 C2257 1.429 . S
C2263 C2264 1.523 . S
C2264 C2245 1.368 . S
C2264 C2258 1.368 . S
C2264 C2263 1.523 . S
C2265 C2249 1.429 . S
C2265 C2261 1.429 . S
C2265 C2266 1.523 . S
C2266 C2250 1.368 . S
C2266 C2262 1.368 . S
C2266 C2265 1.523 . S
H2267 C2242 0.950 . S
H2268 C2244 0.950 . S
H2269 C2245 0.949 . S
H2270 C2247 0.950 . S
H2271 C2249 0.950 . S
C2272 C2273 1.349 . S
C2272 C2274 1.327 1_545 S
C2272 H2297 0.950 . S
C2273 C2272 1.349 . S
C2273 C2289 1.349 . S
C2274 C2272 1.327 1_565 S
C2274 C2293 1.429 . S
C2274 H2298 0.950 . S
C2275 C2292 1.574 . S
C2275 C2294 1.368 . S
C2275 H2299 0.949 . S
H2276 C2280 0.949 . S
C2277 C2278 1.349 . S
C2277 C2279 1.327 . S
C2277 H2300 0.950 . S
C2278 C2277 1.349 . S
C2278 C2290 1.349 . S
C2279 C2277 1.327 . S
C2279 C2295 1.429 . S
C2279 H2301 0.950 . S
C2280 H2276 0.949 . S
C2280 C2288 1.574 . S
C2280 C2296 1.368 . S
H2281 C2289 0.950 . S
H2282 C2287 0.966 . S
H2283 C2288 0.949 . S
H2284 C2290 0.950 . S
H2285 C2291 0.950 . S
H2286 C2292 0.949 . S
C2287 H2282 0.966 . S
C2287 C2289 1.283 1_565 S
C2287 C2293 1.458 . S
C2288 C2280 1.574 . S
C2288 H2283 0.949 . S
C2288 C2294 1.368 . S
C2289 C2273 1.349 . S
C2289 H2281 0.950 . S
C2289 C2287 1.283 1_545 S
C2290 C2278 1.349 . S
C2290 H2284 0.950 . S
C2290 C2291 1.327 . S
C2291 H2285 0.950 . S
C2291 C2290 1.327 . S
C2291 C2295 1.429 . S
C2292 C2275 1.574 . S
C2292 H2286 0.949 . S
C2292 C2296 1.368 . S
C2293 C2274 1.429 . S
C2293 C2287 1.458 . S
C2293 C2294 1.523 . S
C2294 C2275 1.368 . S
C2294 C2288 1.368 . S
C2294 C2293 1.523 . S
C2295 C2279 1.429 . S
C2295 C2291 1.429 . S
C2295 C2296 1.523 . S
C2296 C2280 1.368 . S
C2296 C2292 1.368 . S
C2296 C2295 1.523 . S
H2297 C2272 0.950 . S
H2298 C2274 0.950 . S
H2299 C2275 0.949 . S
H2300 C2277 0.950 . S
H2301 C2279 0.950 . S
C2302 C2303 1.349 . S
C2302 C2304 1.327 . S
C2302 H2327 0.950 . S
C2303 C2302 1.349 . S
C2303 C2319 1.349 . S
C2304 C2302 1.327 . S
C2304 C2323 1.429 . S
C2304 H2328 0.950 . S
C2305 C2322 1.574 . S
C2305 C2324 1.368 . S
C2305 H2329 0.949 . S
H2306 C2310 0.949 . S
C2307 C2308 1.349 . S
C2307 C2309 1.327 . S
C2307 H2330 0.950 . S
C2308 C2307 1.349 . S
C2308 C2320 1.349 . S
C2309 C2307 1.327 . S
C2309 C2325 1.429 . S
C2309 H2331 0.950 . S
C2310 H2306 0.949 . S
C2310 C2318 1.574 . S
C2310 C2326 1.368 . S
H2311 C2319 0.950 . S
H2312 C2317 0.950 . S
H2313 C2318 0.949 . S
H2314 C2320 0.950 . S
H2315 C2321 0.950 . S
H2316 C2322 0.949 . S
C2317 H2312 0.950 . S
C2317 C2319 1.327 . S
C2317 C2323 1.429 . S
C2318 C2310 1.574 . S
C2318 H2313 0.949 . S
C2318 C2324 1.368 . S
C2319 C2303 1.349 . S
C2319 H2311 0.950 . S
C2319 C2317 1.327 . S
C2320 C2308 1.349 . S
C2320 H2314 0.950 . S
C2320 C2321 1.327 . S
C2321 H2315 0.950 . S
C2321 C2320 1.327 . S
C2321 C2325 1.429 . S
C2322 C2305 1.574 . S
C2322 H2316 0.949 . S
C2322 C2326 1.368 . S
C2323 C2304 1.429 . S
C2323 C2317 1.429 . S
C2323 C2324 1.523 . S
C2324 C2305 1.368 . S
C2324 C2318 1.368 . S
C2324 C2323 1.523 . S
C2325 C2309 1.429 . S
C2325 C2321 1.429 . S
C2325 C2326 1.523 . S
C2326 C2310 1.368 . S
C2326 C2322 1.368 . S
C2326 C2325 1.523 . S
H2327 C2302 0.950 . S
H2328 C2304 0.950 . S
H2329 C2305 0.949 . S
H2330 C2307 0.950 . S
H2331 C2309 0.950 . S
C2332 C2333 1.349 . S
C2332 C2334 1.327 . S
C2332 H2357 0.950 . S
C2333 C2332 1.349 . S
C2333 C2349 1.349 . S
C2334 C2332 1.327 . S
C2334 C2353 1.429 . S
C2334 H2358 0.950 . S
C2335 C2352 1.574 . S
C2335 C2354 1.368 . S
C2335 H2359 0.949 . S
H2336 C2340 0.949 . S
C2337 C2338 1.349 . S
C2337 C2339 1.327 . S
C2337 H2360 0.950 . S
C2338 C2337 1.349 . S
C2338 C2350 1.349 . S
C2339 C2337 1.327 . S
C2339 C2355 1.429 . S
C2339 H2361 0.950 . S
C2340 H2336 0.949 . S
C2340 C2348 1.574 . S
C2340 C2356 1.368 . S
H2341 C2349 0.950 . S
H2342 C2347 0.950 . S
H2343 C2348 0.949 . S
H2344 C2350 0.950 . S
H2345 C2351 0.950 . S
H2346 C2352 0.949 . S
C2347 H2342 0.950 . S
C2347 C2349 1.327 . S
C2347 C2353 1.429 . S
C2348 C2340 1.574 . S
C2348 H2343 0.949 . S
C2348 C2354 1.368 . S
C2349 C2333 1.349 . S
C2349 H2341 0.950 . S
C2349 C2347 1.327 . S
C2350 C2338 1.349 . S
C2350 H2344 0.950 . S
C2350 C2351 1.327 . S
C2351 H2345 0.950 . S
C2351 C2350 1.327 . S
C2351 C2355 1.429 . S
C2352 C2335 1.574 . S
C2352 H2346 0.949 . S
C2352 C2356 1.368 . S
C2353 C2334 1.429 . S
C2353 C2347 1.429 . S
C2353 C2354 1.523 . S
C2354 C2335 1.368 . S
C2354 C2348 1.368 . S
C2354 C2353 1.523 . S
C2355 C2339 1.429 . S
C2355 C2351 1.429 . S
C2355 C2356 1.523 . S
C2356 C2340 1.368 . S
C2356 C2352 1.368 . S
C2356 C2355 1.523 . S
H2357 C2332 0.950 . S
H2358 C2334 0.950 . S
H2359 C2335 0.949 . S
H2360 C2337 0.950 . S
H2361 C2339 0.950 . S
C2362 C2363 1.349 . S
C2362 C2364 1.327 . S
C2362 H2387 0.950 . S
C2363 C2362 1.349 . S
C2363 C2379 1.349 . S
C2364 C2362 1.327 . S
C2364 C2383 1.429 . S
C2364 H2388 0.950 . S
C2365 C2382 1.574 . S
C2365 C2384 1.368 . S
C2365 H2389 0.949 . S
H2366 C2370 0.949 . S
C2367 C2368 1.349 . S
C2367 C2369 1.327 . S
C2367 H2390 0.950 . S
C2368 C2367 1.349 . S
C2368 C2380 1.349 . S
C2369 C2367 1.327 . S
C2369 C2385 1.429 . S
C2369 H2391 0.950 . S
C2370 H2366 0.949 . S
C2370 C2378 1.574 . S
C2370 C2386 1.368 . S
H2371 C2379 0.950 . S
H2372 C2377 0.950 . S
H2373 C2378 0.949 . S
H2374 C2380 0.950 . S
H2375 C2381 0.950 . S
H2376 C2382 0.949 . S
C2377 H2372 0.950 . S
C2377 C2379 1.327 . S
C2377 C2383 1.429 . S
C2378 C2370 1.574 . S
C2378 H2373 0.949 . S
C2378 C2384 1.368 . S
C2379 C2363 1.349 . S
C2379 H2371 0.950 . S
C2379 C2377 1.327 . S
C2380 C2368 1.349 . S
C2380 H2374 0.950 . S
C2380 C2381 1.327 . S
C2381 H2375 0.950 . S
C2381 C2380 1.327 . S
C2381 C2385 1.429 . S
C2382 C2365 1.574 . S
C2382 H2376 0.949 . S
C2382 C2386 1.368 . S
C2383 C2364 1.429 . S
C2383 C2377 1.429 . S
C2383 C2384 1.523 . S
C2384 C2365 1.368 . S
C2384 C2378 1.368 . S
C2384 C2383 1.523 . S
C2385 C2369 1.429 . S
C2385 C2381 1.429 . S
C2385 C2386 1.523 . S
C2386 C2370 1.368 . S
C2386 C2382 1.368 . S
C2386 C2385 1.523 . S
H2387 C2362 0.950 . S
H2388 C2364 0.950 . S
H2389 C2365 0.949 . S
H2390 C2367 0.950 . S
H2391 C2369 0.950 . S
C2392 C2393 1.349 . S
C2392 C2394 1.327 . S
C2392 H2417 0.950 . S
C2393 C2392 1.349 . S
C2393 C2409 1.349 . S
C2394 C2392 1.327 . S
C2394 C2413 1.429 . S
C2394 H2418 0.950 . S
C2395 C2412 1.574 . S
C2395 C2414 1.368 . S
C2395 H2419 0.949 . S
H2396 C2400 0.949 . S
C2397 C2398 1.349 . S
C2397 C2399 1.327 . S
C2397 H2420 0.950 . S
C2398 C2397 1.349 . S
C2398 C2410 1.349 . S
C2399 C2397 1.327 . S
C2399 C2415 1.429 . S
C2399 H2421 0.950 . S
C2400 H2396 0.949 . S
C2400 C2408 1.574 . S
C2400 C2416 1.368 . S
H2401 C2409 0.950 . S
H2402 C2407 0.950 . S
H2403 C2408 0.949 . S
H2404 C2410 0.950 . S
H2405 C2411 0.950 . S
H2406 C2412 0.949 . S
C2407 H2402 0.950 . S
C2407 C2409 1.327 . S
C2407 C2413 1.429 . S
C2408 C2400 1.574 . S
C2408 H2403 0.949 . S
C2408 C2414 1.368 . S
C2409 C2393 1.349 . S
C2409 H2401 0.950 . S
C2409 C2407 1.327 . S
C2410 C2398 1.349 . S
C2410 H2404 0.950 . S
C2410 C2411 1.327 . S
C2411 H2405 0.950 . S
C2411 C2410 1.327 . S
C2411 C2415 1.429 . S
C2412 C2395 1.574 . S
C2412 H2406 0.949 . S
C2412 C2416 1.368 . S
C2413 C2394 1.429 . S
C2413 C2407 1.429 . S
C2413 C2414 1.523 . S
C2414 C2395 1.368 . S
C2414 C2408 1.368 . S
C2414 C2413 1.523 . S
C2415 C2399 1.429 . S
C2415 C2411 1.429 . S
C2415 C2416 1.523 . S
C2416 C2400 1.368 . S
C2416 C2412 1.368 . S
C2416 C2415 1.523 . S
H2417 C2392 0.950 . S
H2418 C2394 0.950 . S
H2419 C2395 0.949 . S
H2420 C2397 0.950 . S
H2421 C2399 0.950 . S
C2422 C2423 1.349 . S
C2422 C2424 1.327 . S
C2422 H2447 0.950 . S
C2423 C2422 1.349 . S
C2423 C2439 1.349 . S
C2424 C2422 1.327 . S
C2424 C2443 1.429 . S
C2424 H2448 0.950 . S
C2425 C2442 1.574 . S
C2425 C2444 1.368 . S
C2425 H2449 0.949 . S
H2426 C2430 0.949 . S
C2427 C2428 1.349 . S
C2427 C2429 1.327 . S
C2427 H2450 0.950 . S
C2428 C2427 1.349 . S
C2428 C2440 1.349 . S
C2429 C2427 1.327 . S
C2429 C2445 1.429 . S
C2429 H2451 0.950 . S
C2430 H2426 0.949 . S
C2430 C2438 1.574 . S
C2430 C2446 1.368 . S
H2431 C2439 0.950 . S
H2432 C2437 0.950 . S
H2433 C2438 0.949 . S
H2434 C2440 0.950 . S
H2435 C2441 0.950 . S
H2436 C2442 0.949 . S
C2437 H2432 0.950 . S
C2437 C2439 1.327 . S
C2437 C2443 1.429 . S
C2438 C2430 1.574 . S
C2438 H2433 0.949 . S
C2438 C2444 1.368 . S
C2439 C2423 1.349 . S
C2439 H2431 0.950 . S
C2439 C2437 1.327 . S
C2440 C2428 1.349 . S
C2440 H2434 0.950 . S
C2440 C2441 1.327 . S
C2441 H2435 0.950 . S
C2441 C2440 1.327 . S
C2441 C2445 1.429 . S
C2442 C2425 1.574 . S
C2442 H2436 0.949 . S
C2442 C2446 1.368 . S
C2443 C2424 1.429 . S
C2443 C2437 1.429 . S
C2443 C2444 1.523 . S
C2444 C2425 1.368 . S
C2444 C2438 1.368 . S
C2444 C2443 1.523 . S
C2445 C2429 1.429 . S
C2445 C2441 1.429 . S
C2445 C2446 1.523 . S
C2446 C2430 1.368 . S
C2446 C2442 1.368 . S
C2446 C2445 1.523 . S
H2447 C2422 0.950 . S
H2448 C2424 0.950 . S
H2449 C2425 0.949 . S
H2450 C2427 0.950 . S
H2451 C2429 0.950 . S
C2452 C2453 1.349 1_655 S
C2452 C2454 1.327 . S
C2452 H2477 0.950 . S
C2453 C2452 1.349 1_455 S
C2453 C2469 1.349 . S
C2454 C2452 1.327 . S
C2454 C2473 1.429 1_655 S
C2454 H2478 0.950 . S
C2455 C2472 1.574 1_556 S
C2455 C2474 1.368 . S
C2455 H2479 0.949 . S
H2456 C2460 0.949 . S
C2457 C2458 1.349 . S
C2457 C2459 1.327 . S
C2457 H2480 0.950 . S
C2458 C2457 1.349 . S
C2458 C2470 1.349 1_455 S
C2459 C2457 1.327 . S
C2459 C2475 1.429 . S
C2459 H2481 0.950 . S
C2460 H2456 0.949 . S
C2460 C2468 1.583 . S
C2460 C2476 1.368 1_655 S
H2461 C2469 0.950 . S
H2462 C2467 0.950 . S
H2463 C2468 0.955 1_556 S
H2464 C2470 0.950 . S
H2465 C2471 0.950 . S
H2466 C2472 0.949 . S
C2467 H2462 0.950 . S
C2467 C2469 1.327 . S
C2467 C2473 1.429 . S
C2468 C2460 1.583 . S
C2468 H2463 0.955 1_554 S
C2468 C2474 1.356 1_654 S
C2469 C2453 1.349 . S
C2469 H2461 0.950 . S
C2469 C2467 1.327 . S
C2470 C2458 1.349 1_655 S
C2470 H2464 0.950 . S
C2470 C2471 1.327 . S
C2471 H2465 0.950 . S
C2471 C2470 1.327 . S
C2471 C2475 1.429 1_655 S
C2472 C2455 1.574 1_554 S
C2472 H2466 0.949 . S
C2472 C2476 1.368 . S
C2473 C2454 1.429 1_455 S
C2473 C2467 1.429 . S
C2473 C2474 1.523 . S
C2474 C2455 1.368 . S
C2474 C2468 1.356 1_456 S
C2474 C2473 1.523 . S
C2475 C2459 1.429 . S
C2475 C2471 1.429 1_455 S
C2475 C2476 1.523 . S
C2476 C2460 1.368 1_455 S
C2476 C2472 1.368 . S
C2476 C2475 1.523 . S
H2477 C2452 0.950 . S
H2478 C2454 0.950 . S
H2479 C2455 0.949 . S
H2480 C2457 0.950 . S
H2481 C2459 0.950 . S
C2482 C2483 1.354 . S
C2482 C2484 1.327 . S
C2482 H2507 0.950 . S
C2483 C2482 1.354 . S
C2483 C2499 1.349 . S
C2484 C2482 1.327 . S
C2484 C2503 1.429 . S
C2484 H2508 0.950 . S
C2485 C2502 1.574 . S
C2485 C2504 1.368 . S
C2485 H2509 0.949 . S
H2486 C2490 0.949 . S
C2487 C2488 1.349 . S
C2487 C2489 1.327 . S
C2487 H2510 0.950 . S
C2488 C2487 1.349 . S
C2488 C2500 1.349 . S
C2489 C2487 1.327 . S
C2489 C2505 1.429 . S
C2489 H2511 0.950 . S
C2490 H2486 0.949 . S
C2490 C2498 1.574 . S
C2490 C2506 1.368 . S
H2491 C2499 0.950 1_455 S
H2492 C2497 0.950 . S
H2493 C2498 0.949 . S
H2494 C2500 0.950 . S
H2495 C2501 0.950 . S
H2496 C2502 0.949 . S
C2497 H2492 0.950 . S
C2497 C2499 1.327 . S
C2497 C2503 1.429 . S
C2498 C2490 1.574 . S
C2498 H2493 0.949 . S
C2498 C2504 1.368 . S
C2499 C2483 1.349 . S
C2499 H2491 0.950 1_655 S
C2499 C2497 1.327 . S
C2500 C2488 1.349 . S
C2500 H2494 0.950 . S
C2500 C2501 1.327 . S
C2501 H2495 0.950 . S
C2501 C2500 1.327 . S
C2501 C2505 1.429 . S
C2502 C2485 1.574 . S
C2502 H2496 0.949 . S
C2502 C2506 1.368 . S
C2503 C2484 1.429 . S
C2503 C2497 1.429 . S
C2503 C2504 1.523 . S
C2504 C2485 1.368 . S
C2504 C2498 1.368 . S
C2504 C2503 1.523 . S
C2505 C2489 1.429 . S
C2505 C2501 1.429 . S
C2505 C2506 1.523 . S
C2506 C2490 1.368 . S
C2506 C2502 1.368 . S
C2506 C2505 1.523 . S
H2507 C2482 0.950 . S
H2508 C2484 0.950 . S
H2509 C2485 0.949 . S
H2510 C2487 0.950 . S
H2511 C2489 0.950 . S
C2512 C2513 1.349 . S
C2512 C2514 1.327 . S
C2512 H2537 0.950 . S
C2513 C2512 1.349 . S
C2513 C2529 1.349 . S
C2514 C2512 1.327 . S
C2514 C2533 1.429 . S
C2514 H2538 0.950 . S
C2515 C2532 1.574 . S
C2515 C2534 1.368 . S
C2515 H2539 0.949 . S
H2516 C2520 0.949 . S
C2517 C2518 1.349 . S
C2517 C2519 1.327 . S
C2517 H2540 0.950 . S
C2518 C2517 1.349 . S
C2518 C2530 1.349 . S
C2519 C2517 1.327 . S
C2519 C2535 1.429 . S
C2519 H2541 0.950 . S
C2520 H2516 0.949 . S
C2520 C2528 1.574 . S
C2520 C2536 1.368 . S
H2521 C2529 0.950 . S
H2522 C2527 0.950 . S
H2523 C2528 0.949 . S
H2524 C2530 0.950 . S
H2525 C2531 0.950 . S
H2526 C2532 0.949 . S
C2527 H2522 0.950 . S
C2527 C2529 1.327 . S
C2527 C2533 1.429 . S
C2528 C2520 1.574 . S
C2528 H2523 0.949 . S
C2528 C2534 1.368 . S
C2529 C2513 1.349 . S
C2529 H2521 0.950 . S
C2529 C2527 1.327 . S
C2530 C2518 1.349 . S
C2530 H2524 0.950 . S
C2530 C2531 1.327 . S
C2531 H2525 0.950 . S
C2531 C2530 1.327 . S
C2531 C2535 1.429 . S
C2532 C2515 1.574 . S
C2532 H2526 0.949 . S
C2532 C2536 1.368 . S
C2533 C2514 1.429 . S
C2533 C2527 1.429 . S
C2533 C2534 1.523 . S
C2534 C2515 1.368 . S
C2534 C2528 1.368 . S
C2534 C2533 1.523 . S
C2535 C2519 1.429 . S
C2535 C2531 1.429 . S
C2535 C2536 1.523 . S
C2536 C2520 1.368 . S
C2536 C2532 1.368 . S
C2536 C2535 1.523 . S
H2537 C2512 0.950 . S
H2538 C2514 0.950 . S
H2539 C2515 0.949 . S
H2540 C2517 0.950 . S
H2541 C2519 0.950 . S
C2542 C2543 1.349 . S
C2542 C2544 1.327 . S
C2542 H2567 0.950 . S
C2543 C2542 1.349 . S
C2543 C2559 1.349 . S
C2544 C2542 1.327 . S
C2544 C2563 1.429 . S
C2544 H2568 0.950 . S
C2545 C2562 1.574 . S
C2545 C2564 1.368 . S
C2545 H2569 0.949 . S
H2546 C2550 0.949 . S
C2547 C2548 1.349 . S
C2547 C2549 1.327 . S
C2547 H2570 0.950 . S
C2548 C2547 1.349 . S
C2548 C2560 1.349 . S
C2549 C2547 1.327 . S
C2549 C2565 1.429 . S
C2549 H2571 0.950 . S
C2550 H2546 0.949 . S
C2550 C2558 1.574 . S
C2550 C2566 1.368 . S
H2551 C2559 0.950 . S
H2552 C2557 0.950 . S
H2553 C2558 0.949 . S
H2554 C2560 0.950 . S
H2555 C2561 0.950 . S
H2556 C2562 0.949 . S
C2557 H2552 0.950 . S
C2557 C2559 1.327 . S
C2557 C2563 1.429 . S
C2558 C2550 1.574 . S
C2558 H2553 0.949 . S
C2558 C2564 1.368 . S
C2559 C2543 1.349 . S
C2559 H2551 0.950 . S
C2559 C2557 1.327 . S
C2560 C2548 1.349 . S
C2560 H2554 0.950 . S
C2560 C2561 1.327 . S
C2561 H2555 0.950 . S
C2561 C2560 1.327 . S
C2561 C2565 1.429 . S
C2562 C2545 1.574 . S
C2562 H2556 0.949 . S
C2562 C2566 1.368 . S
C2563 C2544 1.429 . S
C2563 C2557 1.429 . S
C2563 C2564 1.523 . S
C2564 C2545 1.368 . S
C2564 C2558 1.368 . S
C2564 C2563 1.523 . S
C2565 C2549 1.429 . S
C2565 C2561 1.429 . S
C2565 C2566 1.523 . S
C2566 C2550 1.368 . S
C2566 C2562 1.368 . S
C2566 C2565 1.523 . S
H2567 C2542 0.950 . S
H2568 C2544 0.950 . S
H2569 C2545 0.949 . S
H2570 C2547 0.950 . S
H2571 C2549 0.950 . S
C2572 C2573 1.349 . S
C2572 C2574 1.327 . S
C2572 H2597 0.950 . S
C2573 C2572 1.349 . S
C2573 C2589 1.349 1_455 S
C2574 C2572 1.327 . S
C2574 C2593 1.429 . S
C2574 H2598 0.950 . S
C2575 C2592 1.574 . S
C2575 C2594 1.368 1_655 S
C2575 H2599 0.949 . S
H2576 C2580 0.949 . S
C2577 C2578 1.349 1_655 S
C2577 C2579 1.327 . S
C2577 H2600 0.950 . S
C2578 C2577 1.349 1_455 S
C2578 C2590 1.349 . S
C2579 C2577 1.327 . S
C2579 C2595 1.429 1_655 S
C2579 H2601 0.950 . S
C2580 H2576 0.949 . S
C2580 C2588 1.574 . S
C2580 C2596 1.368 . S
H2581 C2589 0.950 . S
H2582 C2587 0.950 . S
H2583 C2588 0.949 . S
H2584 C2590 0.950 . S
H2585 C2591 0.950 . S
H2586 C2592 0.949 . S
C2587 H2582 0.950 . S
C2587 C2589 1.327 . S
C2587 C2593 1.429 1_655 S
C2588 C2580 1.574 . S
C2588 H2583 0.949 . S
C2588 C2594 1.368 . S
C2589 C2573 1.349 1_655 S
C2589 H2581 0.950 . S
C2589 C2587 1.327 . S
C2590 C2578 1.349 . S
C2590 H2584 0.950 . S
C2590 C2591 1.327 . S
C2591 H2585 0.950 . S
C2591 C2590 1.327 . S
C2591 C2595 1.429 . S
C2592 C2575 1.574 . S
C2592 H2586 0.949 . S
C2592 C2596 1.368 1_655 S
C2593 C2574 1.429 . S
C2593 C2587 1.429 1_455 S
C2593 C2594 1.523 . S
C2594 C2575 1.368 1_455 S
C2594 C2588 1.368 . S
C2594 C2593 1.523 . S
C2595 C2579 1.429 1_455 S
C2595 C2591 1.429 . S
C2595 C2596 1.523 . S
C2596 C2580 1.368 . S
C2596 C2592 1.368 1_455 S
C2596 C2595 1.523 . S
H2597 C2572 0.950 . S
H2598 C2574 0.950 . S
H2599 C2575 0.949 . S
H2600 C2577 0.950 . S
H2601 C2579 0.950 . S
C2602 C2603 1.349 . S
C2602 C2604 1.327 . S
C2602 H2627 0.950 . S
C2603 C2602 1.349 . S
C2603 C2619 1.349 . S
C2604 C2602 1.327 . S
C2604 C2623 1.429 . S
C2604 H2628 0.950 . S
C2605 C2622 1.574 . S
C2605 C2624 1.368 . S
C2605 H2629 0.949 . S
H2606 C2610 0.949 . S
C2607 C2608 1.349 . S
C2607 C2609 1.327 . S
C2607 H2630 0.950 . S
C2608 C2607 1.349 . S
C2608 C2620 1.349 . S
C2609 C2607 1.327 . S
C2609 C2625 1.429 . S
C2609 H2631 0.950 . S
C2610 H2606 0.949 . S
C2610 C2618 1.574 . S
C2610 C2626 1.368 . S
H2611 C2619 0.950 . S
H2612 C2617 0.950 . S
H2613 C2618 0.949 . S
H2614 C2620 0.950 . S
H2615 C2621 0.950 . S
H2616 C2622 0.949 . S
C2617 H2612 0.950 . S
C2617 C2619 1.327 . S
C2617 C2623 1.429 . S
C2618 C2610 1.574 . S
C2618 H2613 0.949 . S
C2618 C2624 1.368 . S
C2619 C2603 1.349 . S
C2619 H2611 0.950 . S
C2619 C2617 1.327 . S
C2620 C2608 1.349 . S
C2620 H2614 0.950 . S
C2620 C2621 1.327 . S
C2621 H2615 0.950 . S
C2621 C2620 1.327 . S
C2621 C2625 1.429 . S
C2622 C2605 1.574 . S
C2622 H2616 0.949 . S
C2622 C2626 1.368 . S
C2623 C2604 1.429 . S
C2623 C2617 1.429 . S
C2623 C2624 1.523 . S
C2624 C2605 1.368 . S
C2624 C2618 1.368 . S
C2624 C2623 1.523 . S
C2625 C2609 1.429 . S
C2625 C2621 1.429 . S
C2625 C2626 1.523 . S
C2626 C2610 1.368 . S
C2626 C2622 1.368 . S
C2626 C2625 1.523 . S
H2627 C2602 0.950 . S
H2628 C2604 0.950 . S
H2629 C2605 0.949 . S
H2630 C2607 0.950 . S
H2631 C2609 0.950 . S
C2632 C2633 1.349 . S
C2632 C2634 1.327 . S
C2632 H2657 0.950 . S
C2633 C2632 1.349 . S
C2633 C2649 1.349 . S
C2634 C2632 1.327 . S
C2634 C2653 1.429 . S
C2634 H2658 0.950 . S
C2635 C2652 1.574 . S
C2635 C2654 1.368 . S
C2635 H2659 0.949 . S
H2636 C2640 0.949 . S
C2637 C2638 1.349 . S
C2637 C2639 1.327 . S
C2637 H2660 0.950 . S
C2638 C2637 1.349 . S
C2638 C2650 1.349 . S
C2639 C2637 1.327 . S
C2639 C2655 1.429 . S
C2639 H2661 0.950 . S
C2640 H2636 0.949 . S
C2640 C2648 1.574 . S
C2640 C2656 1.368 . S
H2641 C2649 0.950 . S
H2642 C2647 0.950 . S
H2643 C2648 0.949 . S
H2644 C2650 0.950 . S
H2645 C2651 0.950 . S
H2646 C2652 0.949 . S
C2647 H2642 0.950 . S
C2647 C2649 1.327 . S
C2647 C2653 1.429 . S
C2648 C2640 1.574 . S
C2648 H2643 0.949 . S
C2648 C2654 1.368 . S
C2649 C2633 1.349 . S
C2649 H2641 0.950 . S
C2649 C2647 1.327 . S
C2650 C2638 1.349 . S
C2650 H2644 0.950 . S
C2650 C2651 1.327 . S
C2651 H2645 0.950 . S
C2651 C2650 1.327 . S
C2651 C2655 1.429 . S
C2652 C2635 1.574 . S
C2652 H2646 0.949 . S
C2652 C2656 1.368 . S
C2653 C2634 1.429 . S
C2653 C2647 1.429 . S
C2653 C2654 1.523 . S
C2654 C2635 1.368 . S
C2654 C2648 1.368 . S
C2654 C2653 1.523 . S
C2655 C2639 1.429 . S
C2655 C2651 1.429 . S
C2655 C2656 1.523 . S
C2656 C2640 1.368 . S
C2656 C2652 1.368 . S
C2656 C2655 1.523 . S
H2657 C2632 0.950 . S
H2658 C2634 0.950 . S
H2659 C2635 0.949 . S
H2660 C2637 0.950 . S
H2661 C2639 0.950 . S
C2662 C2663 1.349 1_556 S
C2662 C2664 1.327 . S
C2662 H2687 0.950 . S
C2663 C2662 1.349 1_554 S
C2663 C2679 1.349 . S
C2664 C2662 1.327 . S
C2664 C2683 1.429 . S
C2664 H2688 0.950 . S
C2665 C2682 1.574 . S
C2665 C2684 1.368 . S
C2665 H2689 0.949 . S
H2666 C2670 0.949 . S
C2667 C2668 1.349 . S
C2667 C2669 1.327 . S
C2667 H2690 0.950 . S
C2668 C2667 1.349 . S
C2668 C2680 1.349 . S
C2669 C2667 1.327 . S
C2669 C2685 1.429 . S
C2669 H2691 0.950 . S
C2670 H2666 0.949 . S
C2670 C2678 1.574 . S
C2670 C2686 1.368 . S
H2671 C2679 0.950 . S
H2672 C2677 0.950 . S
H2673 C2678 0.949 . S
H2674 C2680 0.950 . S
H2675 C2681 0.950 . S
H2676 C2682 0.949 . S
C2677 H2672 0.950 . S
C2677 C2679 1.327 . S
C2677 C2683 1.429 1_554 S
C2678 C2670 1.574 . S
C2678 H2673 0.949 . S
C2678 C2684 1.368 . S
C2679 C2663 1.349 . S
C2679 H2671 0.950 . S
C2679 C2677 1.327 . S
C2680 C2668 1.349 . S
C2680 H2674 0.950 . S
C2680 C2681 1.327 . S
C2681 H2675 0.950 . S
C2681 C2680 1.327 . S
C2681 C2685 1.429 . S
C2682 C2665 1.574 . S
C2682 H2676 0.949 . S
C2682 C2686 1.368 . S
C2683 C2664 1.429 . S
C2683 C2677 1.429 1_556 S
C2683 C2684 1.523 . S
C2684 C2665 1.368 . S
C2684 C2678 1.368 . S
C2684 C2683 1.523 . S
C2685 C2669 1.429 . S
C2685 C2681 1.429 . S
C2685 C2686 1.523 . S
C2686 C2670 1.368 . S
C2686 C2682 1.368 . S
C2686 C2685 1.523 . S
H2687 C2662 0.950 . S
H2688 C2664 0.950 . S
H2689 C2665 0.949 . S
H2690 C2667 0.950 . S
H2691 C2669 0.950 . S
C2692 C2693 1.349 . S
C2692 C2694 1.327 . S
C2692 H2717 0.950 . S
C2693 C2692 1.349 . S
C2693 C2709 1.349 . S
C2694 C2692 1.327 . S
C2694 C2713 1.429 . S
C2694 H2718 0.950 . S
C2695 C2712 1.574 . S
C2695 C2714 1.368 . S
C2695 H2719 0.949 . S
H2696 C2700 0.949 . S
C2697 C2698 1.349 . S
C2697 C2699 1.327 . S
C2697 H2720 0.950 . S
C2698 C2697 1.349 . S
C2698 C2710 1.349 . S
C2699 C2697 1.327 . S
C2699 C2715 1.429 . S
C2699 H2721 0.950 . S
C2700 H2696 0.949 . S
C2700 C2708 1.574 . S
C2700 C2716 1.368 . S
H2701 C2709 0.950 . S
H2702 C2707 0.950 . S
H2703 C2708 0.949 . S
H2704 C2710 0.950 . S
H2705 C2711 0.950 . S
H2706 C2712 0.949 . S
C2707 H2702 0.950 . S
C2707 C2709 1.327 . S
C2707 C2713 1.429 . S
C2708 C2700 1.574 . S
C2708 H2703 0.949 . S
C2708 C2714 1.368 . S
C2709 C2693 1.349 . S
C2709 H2701 0.950 . S
C2709 C2707 1.327 . S
C2710 C2698 1.349 . S
C2710 H2704 0.950 . S
C2710 C2711 1.327 . S
C2711 H2705 0.950 . S
C2711 C2710 1.327 . S
C2711 C2715 1.429 . S
C2712 C2695 1.574 . S
C2712 H2706 0.949 . S
C2712 C2716 1.368 . S
C2713 C2694 1.429 . S
C2713 C2707 1.429 . S
C2713 C2714 1.523 . S
C2714 C2695 1.368 . S
C2714 C2708 1.368 . S
C2714 C2713 1.523 . S
C2715 C2699 1.429 . S
C2715 C2711 1.429 . S
C2715 C2716 1.523 . S
C2716 C2700 1.368 . S
C2716 C2712 1.368 . S
C2716 C2715 1.523 . S
H2717 C2692 0.950 . S
H2718 C2694 0.950 . S
H2719 C2695 0.949 . S
H2720 C2697 0.950 . S
H2721 C2699 0.950 . S
C2722 C2723 1.349 . S
C2722 C2724 1.327 . S
C2722 H2747 0.950 . S
C2723 C2722 1.349 . S
C2723 C2739 1.349 . S
C2724 C2722 1.327 . S
C2724 C2743 1.429 . S
C2724 H2748 0.950 . S
C2725 C2742 1.574 . S
C2725 C2744 1.368 . S
C2725 H2749 0.949 . S
H2726 C2730 0.949 . S
C2727 C2728 1.349 . S
C2727 C2729 1.327 . S
C2727 H2750 0.950 . S
C2728 C2727 1.349 . S
C2728 C2740 1.349 . S
C2729 C2727 1.327 . S
C2729 C2745 1.429 . S
C2729 H2751 0.950 . S
C2730 H2726 0.949 . S
C2730 C2738 1.574 . S
C2730 C2746 1.368 . S
H2731 C2739 0.950 . S
H2732 C2737 0.950 . S
H2733 C2738 0.949 . S
H2734 C2740 0.950 . S
H2735 C2741 0.950 . S
H2736 C2742 0.949 . S
C2737 H2732 0.950 . S
C2737 C2739 1.327 . S
C2737 C2743 1.429 . S
C2738 C2730 1.574 . S
C2738 H2733 0.949 . S
C2738 C2744 1.368 . S
C2739 C2723 1.349 . S
C2739 H2731 0.950 . S
C2739 C2737 1.327 . S
C2740 C2728 1.349 . S
C2740 H2734 0.950 . S
C2740 C2741 1.327 . S
C2741 H2735 0.950 . S
C2741 C2740 1.327 . S
C2741 C2745 1.429 . S
C2742 C2725 1.574 . S
C2742 H2736 0.949 . S
C2742 C2746 1.368 . S
C2743 C2724 1.429 . S
C2743 C2737 1.429 . S
C2743 C2744 1.523 . S
C2744 C2725 1.368 . S
C2744 C2738 1.368 . S
C2744 C2743 1.523 . S
C2745 C2729 1.429 . S
C2745 C2741 1.429 . S
C2745 C2746 1.523 . S
C2746 C2730 1.368 . S
C2746 C2742 1.368 . S
C2746 C2745 1.523 . S
H2747 C2722 0.950 . S
H2748 C2724 0.950 . S
H2749 C2725 0.949 . S
H2750 C2727 0.950 . S
H2751 C2729 0.950 . S
C2752 C2753 1.349 . S
C2752 C2754 1.327 . S
C2752 H2777 0.950 . S
C2753 C2752 1.349 . S
C2753 C2769 1.349 . S
C2754 C2752 1.327 . S
C2754 C2773 1.429 . S
C2754 H2778 0.950 . S
C2755 C2772 1.574 . S
C2755 C2774 1.368 . S
C2755 H2779 0.949 . S
H2756 C2760 0.949 . S
C2757 C2758 1.349 . S
C2757 C2759 1.327 . S
C2757 H2780 0.950 . S
C2758 C2757 1.349 . S
C2758 C2770 1.349 . S
C2759 C2757 1.327 . S
C2759 C2775 1.429 . S
C2759 H2781 0.950 . S
C2760 H2756 0.949 . S
C2760 C2768 1.574 . S
C2760 C2776 1.368 . S
H2761 C2769 0.950 . S
H2762 C2767 0.950 . S
H2763 C2768 0.949 . S
H2764 C2770 0.950 . S
H2765 C2771 0.950 . S
H2766 C2772 0.949 . S
C2767 H2762 0.950 . S
C2767 C2769 1.327 . S
C2767 C2773 1.429 . S
C2768 C2760 1.574 . S
C2768 H2763 0.949 . S
C2768 C2774 1.368 . S
C2769 C2753 1.349 . S
C2769 H2761 0.950 . S
C2769 C2767 1.327 . S
C2770 C2758 1.349 . S
C2770 H2764 0.950 . S
C2770 C2771 1.327 . S
C2771 H2765 0.950 . S
C2771 C2770 1.327 . S
C2771 C2775 1.429 . S
C2772 C2755 1.574 . S
C2772 H2766 0.949 . S
C2772 C2776 1.368 . S
C2773 C2754 1.429 . S
C2773 C2767 1.429 . S
C2773 C2774 1.523 . S
C2774 C2755 1.368 . S
C2774 C2768 1.368 . S
C2774 C2773 1.523 . S
C2775 C2759 1.429 . S
C2775 C2771 1.429 . S
C2775 C2776 1.523 . S
C2776 C2760 1.368 . S
C2776 C2772 1.368 . S
C2776 C2775 1.523 . S
H2777 C2752 0.950 . S
H2778 C2754 0.950 . S
H2779 C2755 0.949 . S
H2780 C2757 0.950 . S
H2781 C2759 0.950 . S
C2782 C2783 1.349 . S
C2782 C2784 1.327 . S
C2782 H2807 0.950 . S
C2783 C2782 1.349 . S
C2783 C2799 1.349 . S
C2784 C2782 1.327 . S
C2784 C2803 1.429 . S
C2784 H2808 0.950 . S
C2785 C2802 1.574 . S
C2785 C2804 1.368 . S
C2785 H2809 0.949 . S
H2786 C2790 0.949 . S
C2787 C2788 1.349 . S
C2787 C2789 1.327 . S
C2787 H2810 0.950 . S
C2788 C2787 1.349 . S
C2788 C2800 1.349 . S
C2789 C2787 1.327 . S
C2789 C2805 1.429 . S
C2789 H2811 0.950 . S
C2790 H2786 0.949 . S
C2790 C2798 1.574 . S
C2790 C2806 1.368 . S
H2791 C2799 0.950 . S
H2792 C2797 0.950 . S
H2793 C2798 0.949 . S
H2794 C2800 0.950 . S
H2795 C2801 0.950 . S
H2796 C2802 0.949 . S
C2797 H2792 0.950 . S
C2797 C2799 1.327 . S
C2797 C2803 1.429 . S
C2798 C2790 1.574 . S
C2798 H2793 0.949 . S
C2798 C2804 1.368 . S
C2799 C2783 1.349 . S
C2799 H2791 0.950 . S
C2799 C2797 1.327 . S
C2800 C2788 1.349 . S
C2800 H2794 0.950 . S
C2800 C2801 1.327 . S
C2801 H2795 0.950 . S
C2801 C2800 1.327 . S
C2801 C2805 1.429 . S
C2802 C2785 1.574 . S
C2802 H2796 0.949 . S
C2802 C2806 1.368 . S
C2803 C2784 1.429 . S
C2803 C2797 1.429 . S
C2803 C2804 1.523 . S
C2804 C2785 1.368 . S
C2804 C2798 1.368 . S
C2804 C2803 1.523 . S
C2805 C2789 1.429 . S
C2805 C2801 1.429 . S
C2805 C2806 1.523 . S
C2806 C2790 1.368 . S
C2806 C2802 1.368 . S
C2806 C2805 1.523 . S
H2807 C2782 0.950 . S
H2808 C2784 0.950 . S
H2809 C2785 0.949 . S
H2810 C2787 0.950 . S
H2811 C2789 0.950 . S
C2812 C2813 1.349 . S
C2812 C2814 1.327 . S
C2812 H2837 0.950 . S
C2813 C2812 1.349 . S
C2813 C2829 1.349 . S
C2814 C2812 1.327 . S
C2814 C2833 1.429 . S
C2814 H2838 0.950 . S
C2815 C2832 1.574 . S
C2815 C2834 1.368 . S
C2815 H2839 0.949 . S
H2816 C2820 0.949 . S
C2817 C2818 1.349 . S
C2817 C2819 1.327 . S
C2817 H2840 0.950 . S
C2818 C2817 1.349 . S
C2818 C2830 1.349 . S
C2819 C2817 1.327 . S
C2819 C2835 1.429 . S
C2819 H2841 0.950 . S
C2820 H2816 0.949 . S
C2820 C2828 1.574 . S
C2820 C2836 1.368 . S
H2821 C2829 0.950 . S
H2822 C2827 0.950 . S
H2823 C2828 0.949 . S
H2824 C2830 0.950 . S
H2825 C2831 0.950 . S
H2826 C2832 0.949 . S
C2827 H2822 0.950 . S
C2827 C2829 1.327 . S
C2827 C2833 1.429 . S
C2828 C2820 1.574 . S
C2828 H2823 0.949 . S
C2828 C2834 1.368 . S
C2829 C2813 1.349 . S
C2829 H2821 0.950 . S
C2829 C2827 1.327 . S
C2830 C2818 1.349 . S
C2830 H2824 0.950 . S
C2830 C2831 1.327 . S
C2831 H2825 0.950 . S
C2831 C2830 1.327 . S
C2831 C2835 1.429 . S
C2832 C2815 1.574 . S
C2832 H2826 0.949 . S
C2832 C2836 1.368 . S
C2833 C2814 1.429 . S
C2833 C2827 1.429 . S
C2833 C2834 1.523 . S
C2834 C2815 1.368 . S
C2834 C2828 1.368 . S
C2834 C2833 1.523 . S
C2835 C2819 1.429 . S
C2835 C2831 1.429 . S
C2835 C2836 1.523 . S
C2836 C2820 1.368 . S
C2836 C2832 1.368 . S
C2836 C2835 1.523 . S
H2837 C2812 0.950 . S
H2838 C2814 0.950 . S
H2839 C2815 0.949 . S
H2840 C2817 0.950 . S
H2841 C2819 0.950 . S
C2842 C2843 1.349 . S
C2842 C2844 1.327 . S
C2842 H2867 0.950 . S
C2843 C2842 1.349 . S
C2843 C2859 1.349 . S
C2844 C2842 1.327 . S
C2844 C2863 1.429 . S
C2844 H2868 0.950 . S
C2845 C2862 1.574 . S
C2845 C2864 1.368 . S
C2845 H2869 0.949 . S
H2846 C2850 0.949 . S
C2847 C2848 1.349 . S
C2847 C2849 1.327 . S
C2847 H2870 0.950 . S
C2848 C2847 1.349 . S
C2848 C2860 1.349 . S
C2849 C2847 1.327 . S
C2849 C2865 1.429 . S
C2849 H2871 0.950 . S
C2850 H2846 0.949 . S
C2850 C2858 1.574 . S
C2850 C2866 1.368 . S
H2851 C2859 0.950 . S
H2852 C2857 0.950 . S
H2853 C2858 0.949 . S
H2854 C2860 0.950 . S
H2855 C2861 0.950 . S
H2856 C2862 0.949 . S
C2857 H2852 0.950 . S
C2857 C2859 1.327 . S
C2857 C2863 1.429 . S
C2858 C2850 1.574 . S
C2858 H2853 0.949 . S
C2858 C2864 1.368 . S
C2859 C2843 1.349 . S
C2859 H2851 0.950 . S
C2859 C2857 1.327 . S
C2860 C2848 1.349 . S
C2860 H2854 0.950 . S
C2860 C2861 1.327 . S
C2861 H2855 0.950 . S
C2861 C2860 1.327 . S
C2861 C2865 1.429 . S
C2862 C2845 1.574 . S
C2862 H2856 0.949 . S
C2862 C2866 1.368 . S
C2863 C2844 1.429 . S
C2863 C2857 1.429 . S
C2863 C2864 1.523 . S
C2864 C2845 1.368 . S
C2864 C2858 1.368 . S
C2864 C2863 1.523 . S
C2865 C2849 1.429 . S
C2865 C2861 1.429 . S
C2865 C2866 1.523 . S
C2866 C2850 1.368 . S
C2866 C2862 1.368 . S
C2866 C2865 1.523 . S
H2867 C2842 0.950 . S
H2868 C2844 0.950 . S
H2869 C2845 0.949 . S
H2870 C2847 0.950 . S
H2871 C2849 0.950 . S
C2872 C2873 1.349 . S
C2872 C2874 1.327 . S
C2872 H2897 0.950 . S
C2873 C2872 1.349 . S
C2873 C2889 1.349 . S
C2874 C2872 1.327 . S
C2874 C2893 1.429 . S
C2874 H2898 0.950 . S
C2875 C2892 1.574 . S
C2875 C2894 1.368 . S
C2875 H2899 0.949 . S
H2876 C2880 0.949 . S
C2877 C2878 1.349 . S
C2877 C2879 1.327 . S
C2877 H2900 0.950 . S
C2878 C2877 1.349 . S
C2878 C2890 1.349 . S
C2879 C2877 1.327 . S
C2879 C2895 1.429 . S
C2879 H2901 0.950 . S
C2880 H2876 0.949 . S
C2880 C2888 1.574 . S
C2880 C2896 1.368 . S
H2881 C2889 0.950 . S
H2882 C2887 0.950 . S
H2883 C2888 0.949 . S
H2884 C2890 0.950 . S
H2885 C2891 0.950 . S
H2886 C2892 0.949 . S
C2887 H2882 0.950 . S
C2887 C2889 1.327 . S
C2887 C2893 1.429 . S
C2888 C2880 1.574 . S
C2888 H2883 0.949 . S
C2888 C2894 1.368 . S
C2889 C2873 1.349 . S
C2889 H2881 0.950 . S
C2889 C2887 1.327 . S
C2890 C2878 1.349 . S
C2890 H2884 0.950 . S
C2890 C2891 1.327 . S
C2891 H2885 0.950 . S
C2891 C2890 1.327 . S
C2891 C2895 1.429 . S
C2892 C2875 1.574 . S
C2892 H2886 0.949 . S
C2892 C2896 1.368 . S
C2893 C2874 1.429 . S
C2893 C2887 1.429 . S
C2893 C2894 1.523 . S
C2894 C2875 1.368 . S
C2894 C2888 1.368 . S
C2894 C2893 1.523 . S
C2895 C2879 1.429 . S
C2895 C2891 1.429 . S
C2895 C2896 1.523 . S
C2896 C2880 1.368 . S
C2896 C2892 1.368 . S
C2896 C2895 1.523 . S
H2897 C2872 0.950 . S
H2898 C2874 0.950 . S
H2899 C2875 0.949 . S
H2900 C2877 0.950 . S
H2901 C2879 0.950 . S
C2902 C2903 1.349 . S
C2902 C2904 1.327 . S
C2902 H2927 0.950 . S
C2903 C2902 1.349 . S
C2903 C2919 1.349 . S
C2904 C2902 1.327 . S
C2904 C2923 1.429 . S
C2904 H2928 0.950 . S
C2905 C2922 1.574 . S
C2905 C2924 1.368 . S
C2905 H2929 0.949 . S
H2906 C2910 0.949 . S
C2907 C2908 1.349 . S
C2907 C2909 1.327 . S
C2907 H2930 0.950 . S
C2908 C2907 1.349 . S
C2908 C2920 1.349 . S
C2909 C2907 1.327 . S
C2909 C2925 1.429 . S
C2909 H2931 0.950 . S
C2910 H2906 0.949 . S
C2910 C2918 1.574 . S
C2910 C2926 1.368 . S
H2911 C2919 0.950 . S
H2912 C2917 0.950 . S
H2913 C2918 0.949 . S
H2914 C2920 0.950 . S
H2915 C2921 0.950 . S
H2916 C2922 0.949 . S
C2917 H2912 0.950 . S
C2917 C2919 1.327 . S
C2917 C2923 1.429 . S
C2918 C2910 1.574 . S
C2918 H2913 0.949 . S
C2918 C2924 1.368 . S
C2919 C2903 1.349 . S
C2919 H2911 0.950 . S
C2919 C2917 1.327 . S
C2920 C2908 1.349 . S
C2920 H2914 0.950 . S
C2920 C2921 1.327 . S
C2921 H2915 0.950 . S
C2921 C2920 1.327 . S
C2921 C2925 1.429 . S
C2922 C2905 1.574 . S
C2922 H2916 0.949 . S
C2922 C2926 1.368 . S
C2923 C2904 1.429 . S
C2923 C2917 1.429 . S
C2923 C2924 1.523 . S
C2924 C2905 1.368 . S
C2924 C2918 1.368 . S
C2924 C2923 1.523 . S
C2925 C2909 1.429 . S
C2925 C2921 1.429 . S
C2925 C2926 1.523 . S
C2926 C2910 1.368 . S
C2926 C2922 1.368 . S
C2926 C2925 1.523 . S
H2927 C2902 0.950 . S
H2928 C2904 0.950 . S
H2929 C2905 0.949 . S
H2930 C2907 0.950 . S
H2931 C2909 0.950 . S
C2932 C2933 1.349 . S
C2932 C2934 1.327 . S
C2932 H2957 0.950 . S
C2933 C2932 1.349 . S
C2933 C2949 1.355 . S
C2934 C2932 1.327 . S
C2934 C2953 1.429 . S
C2934 H2958 0.950 . S
C2935 C2952 1.574 . S
C2935 C2954 1.368 . S
C2935 H2959 0.949 . S
H2936 C2940 0.949 . S
C2937 C2938 1.349 . S
C2937 C2939 1.327 . S
C2937 H2960 0.950 . S
C2938 C2937 1.349 . S
C2938 C2950 1.349 . S
C2939 C2937 1.327 . S
C2939 C2955 1.429 . S
C2939 H2961 0.950 . S
C2940 H2936 0.949 . S
C2940 C2948 1.574 . S
C2940 C2956 1.368 . S
H2941 C2949 0.914 1_545 S
H2942 C2947 0.950 . S
H2943 C2948 0.949 . S
H2944 C2950 0.950 . S
H2945 C2951 0.950 . S
H2946 C2952 0.949 . S
C2947 H2942 0.950 . S
C2947 C2949 1.357 . S
C2947 C2953 1.429 . S
C2948 C2940 1.574 . S
C2948 H2943 0.949 . S
C2948 C2954 1.368 . S
C2949 C2933 1.355 . S
C2949 H2941 0.914 1_565 S
C2949 C2947 1.357 . S
C2950 C2938 1.349 . S
C2950 H2944 0.950 . S
C2950 C2951 1.327 . S
C2951 H2945 0.950 . S
C2951 C2950 1.327 . S
C2951 C2955 1.429 . S
C2952 C2935 1.574 . S
C2952 H2946 0.949 . S
C2952 C2956 1.368 . S
C2953 C2934 1.429 . S
C2953 C2947 1.429 . S
C2953 C2954 1.523 . S
C2954 C2935 1.368 . S
C2954 C2948 1.368 . S
C2954 C2953 1.523 . S
C2955 C2939 1.429 . S
C2955 C2951 1.429 . S
C2955 C2956 1.523 . S
C2956 C2940 1.368 . S
C2956 C2952 1.368 . S
C2956 C2955 1.523 . S
H2957 C2932 0.950 . S
H2958 C2934 0.950 . S
H2959 C2935 0.949 . S
H2960 C2937 0.950 . S
H2961 C2939 0.950 . S
C2962 C2963 1.311 1_554 S
C2962 C2964 1.327 . S
C2962 H2987 0.950 . S
C2963 C2962 1.311 1_556 S
C2963 C2979 1.393 . S
C2964 C2962 1.327 . S
C2964 C2983 1.429 . S
C2964 H2988 0.950 . S
C2965 C2982 1.574 . S
C2965 C2984 1.368 1_556 S
C2965 H2989 0.949 . S
H2966 C2970 0.949 . S
C2967 C2968 1.349 1_556 S
C2967 C2969 1.327 . S
C2967 H2990 0.950 . S
C2968 C2967 1.349 1_554 S
C2968 C2980 1.349 . S
C2969 C2967 1.327 . S
C2969 C2985 1.429 1_556 S
C2969 H2991 0.950 . S
C2970 H2966 0.949 . S
C2970 C2978 1.574 . S
C2970 C2986 1.368 . S
H2971 C2979 0.950 . S
H2972 C2977 0.950 . S
H2973 C2978 0.949 . S
H2974 C2980 0.950 . S
H2975 C2981 0.950 1_565 S
H2976 C2982 0.949 1_545 S
C2977 H2972 0.950 . S
C2977 C2979 1.327 . S
C2977 C2983 1.429 1_556 S
C2978 C2970 1.574 . S
C2978 H2973 0.949 . S
C2978 C2984 1.368 . S
C2979 C2963 1.393 . S
C2979 H2971 0.950 . S
C2979 C2977 1.327 . S
C2980 C2968 1.349 . S
C2980 H2974 0.950 . S
C2980 C2981 1.327 . S
C2981 H2975 0.950 1_545 S
C2981 C2980 1.327 . S
C2981 C2985 1.429 . S
C2982 C2965 1.574 . S
C2982 H2976 0.949 1_565 S
C2982 C2986 1.368 1_556 S
C2983 C2964 1.429 . S
C2983 C2977 1.429 1_554 S
C2983 C2984 1.523 . S
C2984 C2965 1.368 1_554 S
C2984 C2978 1.368 . S
C2984 C2983 1.523 . S
C2985 C2969 1.429 1_554 S
C2985 C2981 1.429 . S
C2985 C2986 1.523 1_545 S
C2986 C2970 1.368 . S
C2986 C2982 1.368 1_554 S
C2986 C2985 1.523 1_565 S
H2987 C2962 0.950 . S
H2988 C2964 0.950 . S
H2989 C2965 0.949 . S
H2990 C2967 0.950 . S
H2991 C2969 0.950 . S
C2992 C2993 1.349 . S
C2992 C2994 1.327 . S
C2992 H3017 0.950 . S
C2993 C2992 1.349 . S
C2993 C3009 1.349 . S
C2994 C2992 1.327 . S
C2994 C3013 1.429 . S
C2994 H3018 0.950 . S
C2995 C3012 1.574 . S
C2995 C3014 1.368 . S
C2995 H3019 0.949 . S
H2996 C3000 0.949 . S
C2997 C2998 1.349 . S
C2997 C2999 1.327 . S
C2997 H3020 0.950 . S
C2998 C2997 1.349 . S
C2998 C3010 1.349 . S
C2999 C2997 1.327 . S
C2999 C3015 1.429 . S
C2999 H3021 0.950 . S
C3000 H2996 0.949 . S
C3000 C3008 1.574 . S
C3000 C3016 1.368 . S
H3001 C3009 0.950 . S
H3002 C3007 0.950 . S
H3003 C3008 0.949 . S
H3004 C3010 0.950 . S
H3005 C3011 0.950 . S
H3006 C3012 0.949 . S
C3007 H3002 0.950 . S
C3007 C3009 1.327 . S
C3007 C3013 1.429 . S
C3008 C3000 1.574 . S
C3008 H3003 0.949 . S
C3008 C3014 1.368 . S
C3009 C2993 1.349 . S
C3009 H3001 0.950 . S
C3009 C3007 1.327 . S
C3010 C2998 1.349 . S
C3010 H3004 0.950 . S
C3010 C3011 1.327 . S
C3011 H3005 0.950 . S
C3011 C3010 1.327 . S
C3011 C3015 1.429 . S
C3012 C2995 1.574 . S
C3012 H3006 0.949 . S
C3012 C3016 1.368 . S
C3013 C2994 1.429 . S
C3013 C3007 1.429 . S
C3013 C3014 1.523 . S
C3014 C2995 1.368 . S
C3014 C3008 1.368 . S
C3014 C3013 1.523 . S
C3015 C2999 1.429 . S
C3015 C3011 1.429 . S
C3015 C3016 1.523 . S
C3016 C3000 1.368 . S
C3016 C3012 1.368 . S
C3016 C3015 1.523 . S
H3017 C2992 0.950 . S
H3018 C2994 0.950 . S
H3019 C2995 0.949 . S
H3020 C2997 0.950 . S
H3021 C2999 0.950 . S
C3022 C3023 1.349 . S
C3022 C3024 1.327 . S
C3022 H3047 0.950 . S
C3023 C3022 1.349 . S
C3023 C3039 1.349 . S
C3024 C3022 1.327 . S
C3024 C3043 1.429 . S
C3024 H3048 0.950 . S
C3025 C3042 1.574 . S
C3025 C3044 1.368 . S
C3025 H3049 0.949 . S
H3026 C3030 0.949 . S
C3027 C3028 1.349 . S
C3027 C3029 1.327 . S
C3027 H3050 0.950 . S
C3028 C3027 1.349 . S
C3028 C3040 1.349 . S
C3029 C3027 1.327 . S
C3029 C3045 1.429 . S
C3029 H3051 0.950 . S
C3030 H3026 0.949 . S
C3030 C3038 1.574 . S
C3030 C3046 1.368 . S
H3031 C3039 0.950 . S
H3032 C3037 0.950 . S
H3033 C3038 0.949 . S
H3034 C3040 0.950 . S
H3035 C3041 0.950 . S
H3036 C3042 0.949 . S
C3037 H3032 0.950 . S
C3037 C3039 1.327 . S
C3037 C3043 1.429 . S
C3038 C3030 1.574 . S
C3038 H3033 0.949 . S
C3038 C3044 1.368 . S
C3039 C3023 1.349 . S
C3039 H3031 0.950 . S
C3039 C3037 1.327 . S
C3040 C3028 1.349 . S
C3040 H3034 0.950 . S
C3040 C3041 1.327 . S
C3041 H3035 0.950 . S
C3041 C3040 1.327 . S
C3041 C3045 1.429 . S
C3042 C3025 1.574 . S
C3042 H3036 0.949 . S
C3042 C3046 1.368 . S
C3043 C3024 1.429 . S
C3043 C3037 1.429 . S
C3043 C3044 1.523 . S
C3044 C3025 1.368 . S
C3044 C3038 1.368 . S
C3044 C3043 1.523 . S
C3045 C3029 1.429 . S
C3045 C3041 1.429 . S
C3045 C3046 1.523 . S
C3046 C3030 1.368 . S
C3046 C3042 1.368 . S
C3046 C3045 1.523 . S
H3047 C3022 0.950 . S
H3048 C3024 0.950 . S
H3049 C3025 0.949 . S
H3050 C3027 0.950 . S
H3051 C3029 0.950 . S
C3052 C3053 1.349 . S
C3052 C3054 1.327 . S
C3052 H3077 0.950 . S
C3053 C3052 1.349 . S
C3053 C3069 1.349 . S
C3054 C3052 1.327 . S
C3054 C3073 1.429 . S
C3054 H3078 0.950 . S
C3055 C3072 1.574 . S
C3055 C3074 1.368 . S
C3055 H3079 0.949 . S
H3056 C3060 0.949 . S
C3057 C3058 1.349 . S
C3057 C3059 1.327 . S
C3057 H3080 0.950 . S
C3058 C3057 1.349 . S
C3058 C3070 1.349 . S
C3059 C3057 1.327 . S
C3059 C3075 1.429 . S
C3059 H3081 0.950 . S
C3060 H3056 0.949 . S
C3060 C3068 1.574 . S
C3060 C3076 1.368 . S
H3061 C3069 0.950 . S
H3062 C3067 0.950 . S
H3063 C3068 0.949 . S
H3064 C3070 0.950 . S
H3065 C3071 0.950 . S
H3066 C3072 0.949 . S
C3067 H3062 0.950 . S
C3067 C3069 1.327 . S
C3067 C3073 1.429 . S
C3068 C3060 1.574 . S
C3068 H3063 0.949 . S
C3068 C3074 1.368 . S
C3069 C3053 1.349 . S
C3069 H3061 0.950 . S
C3069 C3067 1.327 . S
C3070 C3058 1.349 . S
C3070 H3064 0.950 . S
C3070 C3071 1.327 . S
C3071 H3065 0.950 . S
C3071 C3070 1.327 . S
C3071 C3075 1.429 . S
C3072 C3055 1.574 . S
C3072 H3066 0.949 . S
C3072 C3076 1.368 . S
C3073 C3054 1.429 . S
C3073 C3067 1.429 . S
C3073 C3074 1.523 . S
C3074 C3055 1.368 . S
C3074 C3068 1.368 . S
C3074 C3073 1.523 . S
C3075 C3059 1.429 . S
C3075 C3071 1.429 . S
C3075 C3076 1.523 . S
C3076 C3060 1.368 . S
C3076 C3072 1.368 . S
C3076 C3075 1.523 . S
H3077 C3052 0.950 . S
H3078 C3054 0.950 . S
H3079 C3055 0.949 . S
H3080 C3057 0.950 . S
H3081 C3059 0.950 . S
C3082 C3083 1.349 . S
C3082 C3084 1.327 . S
C3082 H3107 0.950 . S
C3083 C3082 1.349 . S
C3083 C3099 1.349 . S
C3084 C3082 1.327 . S
C3084 C3103 1.429 . S
C3084 H3108 0.950 . S
C3085 C3102 1.574 . S
C3085 C3104 1.368 . S
C3085 H3109 0.949 . S
H3086 C3090 0.949 . S
C3087 C3088 1.349 . S
C3087 C3089 1.327 . S
C3087 H3110 0.950 . S
C3088 C3087 1.349 . S
C3088 C3100 1.349 . S
C3089 C3087 1.327 . S
C3089 C3105 1.429 . S
C3089 H3111 0.950 . S
C3090 H3086 0.949 . S
C3090 C3098 1.574 . S
C3090 C3106 1.368 . S
H3091 C3099 0.950 . S
H3092 C3097 0.950 . S
H3093 C3098 0.949 . S
H3094 C3100 0.950 . S
H3095 C3101 0.950 . S
H3096 C3102 0.949 . S
C3097 H3092 0.950 . S
C3097 C3099 1.327 . S
C3097 C3103 1.429 . S
C3098 C3090 1.574 . S
C3098 H3093 0.949 . S
C3098 C3104 1.368 . S
C3099 C3083 1.349 . S
C3099 H3091 0.950 . S
C3099 C3097 1.327 . S
C3100 C3088 1.349 . S
C3100 H3094 0.950 . S
C3100 C3101 1.327 . S
C3101 H3095 0.950 . S
C3101 C3100 1.327 . S
C3101 C3105 1.429 . S
C3102 C3085 1.574 . S
C3102 H3096 0.949 . S
C3102 C3106 1.368 . S
C3103 C3084 1.429 . S
C3103 C3097 1.429 . S
C3103 C3104 1.523 . S
C3104 C3085 1.368 . S
C3104 C3098 1.368 . S
C3104 C3103 1.523 . S
C3105 C3089 1.429 . S
C3105 C3101 1.429 . S
C3105 C3106 1.523 . S
C3106 C3090 1.368 . S
C3106 C3102 1.368 . S
C3106 C3105 1.523 . S
H3107 C3082 0.950 . S
H3108 C3084 0.950 . S
H3109 C3085 0.949 . S
H3110 C3087 0.950 . S
H3111 C3089 0.950 . S
C3112 C3113 1.349 . S
C3112 C3114 1.327 . S
C3112 H3137 0.950 . S
C3113 C3112 1.349 . S
C3113 C3129 1.349 . S
C3114 C3112 1.327 . S
C3114 C3133 1.429 . S
C3114 H3138 0.950 . S
C3115 C3132 1.574 . S
C3115 C3134 1.368 . S
C3115 H3139 0.949 . S
H3116 C3120 0.949 . S
C3117 C3118 1.349 . S
C3117 C3119 1.327 . S
C3117 H3140 0.950 . S
C3118 C3117 1.349 . S
C3118 C3130 1.349 . S
C3119 C3117 1.327 . S
C3119 C3135 1.429 . S
C3119 H3141 0.950 . S
C3120 H3116 0.949 . S
C3120 C3128 1.574 . S
C3120 C3136 1.368 . S
H3121 C3129 0.950 . S
H3122 C3127 0.950 . S
H3123 C3128 0.949 . S
H3124 C3130 0.950 . S
H3125 C3131 0.950 . S
H3126 C3132 0.949 . S
C3127 H3122 0.950 . S
C3127 C3129 1.327 . S
C3127 C3133 1.429 . S
C3128 C3120 1.574 . S
C3128 H3123 0.949 . S
C3128 C3134 1.368 . S
C3129 C3113 1.349 . S
C3129 H3121 0.950 . S
C3129 C3127 1.327 . S
C3130 C3118 1.349 . S
C3130 H3124 0.950 . S
C3130 C3131 1.327 . S
C3131 H3125 0.950 . S
C3131 C3130 1.327 . S
C3131 C3135 1.429 . S
C3132 C3115 1.574 . S
C3132 H3126 0.949 . S
C3132 C3136 1.368 . S
C3133 C3114 1.429 . S
C3133 C3127 1.429 . S
C3133 C3134 1.523 . S
C3134 C3115 1.368 . S
C3134 C3128 1.368 . S
C3134 C3133 1.523 . S
C3135 C3119 1.429 . S
C3135 C3131 1.429 . S
C3135 C3136 1.523 . S
C3136 C3120 1.368 . S
C3136 C3132 1.368 . S
C3136 C3135 1.523 . S
H3137 C3112 0.950 . S
H3138 C3114 0.950 . S
H3139 C3115 0.949 . S
H3140 C3117 0.950 . S
H3141 C3119 0.950 . S
C3142 C3143 1.349 . S
C3142 C3144 1.327 . S
C3142 H3167 0.950 . S
C3143 C3142 1.349 . S
C3143 C3159 1.349 . S
C3144 C3142 1.327 . S
C3144 C3163 1.429 . S
C3144 H3168 0.950 . S
C3145 C3162 1.574 . S
C3145 C3164 1.368 . S
C3145 H3169 0.949 . S
H3146 C3150 0.949 . S
C3147 C3148 1.349 . S
C3147 C3149 1.327 . S
C3147 H3170 0.950 . S
C3148 C3147 1.349 . S
C3148 C3160 1.349 . S
C3149 C3147 1.327 . S
C3149 C3165 1.429 . S
C3149 H3171 0.950 . S
C3150 H3146 0.949 . S
C3150 C3158 1.574 . S
C3150 C3166 1.368 . S
H3151 C3159 0.950 . S
H3152 C3157 0.950 . S
H3153 C3158 0.949 . S
H3154 C3160 0.950 . S
H3155 C3161 0.950 . S
H3156 C3162 0.949 . S
C3157 H3152 0.950 . S
C3157 C3159 1.327 . S
C3157 C3163 1.429 . S
C3158 C3150 1.574 . S
C3158 H3153 0.949 . S
C3158 C3164 1.368 . S
C3159 C3143 1.349 . S
C3159 H3151 0.950 . S
C3159 C3157 1.327 . S
C3160 C3148 1.349 . S
C3160 H3154 0.950 . S
C3160 C3161 1.327 . S
C3161 H3155 0.950 . S
C3161 C3160 1.327 . S
C3161 C3165 1.429 . S
C3162 C3145 1.574 . S
C3162 H3156 0.949 . S
C3162 C3166 1.368 . S
C3163 C3144 1.429 . S
C3163 C3157 1.429 . S
C3163 C3164 1.523 . S
C3164 C3145 1.368 . S
C3164 C3158 1.368 . S
C3164 C3163 1.523 . S
C3165 C3149 1.429 . S
C3165 C3161 1.429 . S
C3165 C3166 1.523 . S
C3166 C3150 1.368 . S
C3166 C3162 1.368 . S
C3166 C3165 1.523 . S
H3167 C3142 0.950 . S
H3168 C3144 0.950 . S
H3169 C3145 0.949 . S
H3170 C3147 0.950 . S
H3171 C3149 0.950 . S
C3172 C3173 1.349 . S
C3172 C3174 1.327 . S
C3172 H3197 0.950 . S
C3173 C3172 1.349 . S
C3173 C3189 1.349 . S
C3174 C3172 1.327 . S
C3174 C3193 1.429 . S
C3174 H3198 0.950 . S
C3175 C3192 1.574 . S
C3175 C3194 1.368 . S
C3175 H3199 0.949 . S
H3176 C3180 0.949 . S
C3177 C3178 1.349 . S
C3177 C3179 1.327 . S
C3177 H3200 0.950 . S
C3178 C3177 1.349 . S
C3178 C3190 1.349 . S
C3179 C3177 1.327 . S
C3179 C3195 1.429 . S
C3179 H3201 0.950 . S
C3180 H3176 0.949 . S
C3180 C3188 1.574 . S
C3180 C3196 1.368 . S
H3181 C3189 0.950 . S
H3182 C3187 0.950 . S
H3183 C3188 0.949 . S
H3184 C3190 0.950 . S
H3185 C3191 0.950 . S
H3186 C3192 0.949 . S
C3187 H3182 0.950 . S
C3187 C3189 1.327 . S
C3187 C3193 1.429 . S
C3188 C3180 1.574 . S
C3188 H3183 0.949 . S
C3188 C3194 1.368 . S
C3189 C3173 1.349 . S
C3189 H3181 0.950 . S
C3189 C3187 1.327 . S
C3190 C3178 1.349 . S
C3190 H3184 0.950 . S
C3190 C3191 1.327 . S
C3191 H3185 0.950 . S
C3191 C3190 1.327 . S
C3191 C3195 1.429 . S
C3192 C3175 1.574 . S
C3192 H3186 0.949 . S
C3192 C3196 1.368 . S
C3193 C3174 1.429 . S
C3193 C3187 1.429 . S
C3193 C3194 1.523 . S
C3194 C3175 1.368 . S
C3194 C3188 1.368 . S
C3194 C3193 1.523 . S
C3195 C3179 1.429 . S
C3195 C3191 1.429 . S
C3195 C3196 1.523 . S
C3196 C3180 1.368 . S
C3196 C3192 1.368 . S
C3196 C3195 1.523 . S
H3197 C3172 0.950 . S
H3198 C3174 0.950 . S
H3199 C3175 0.949 . S
H3200 C3177 0.950 . S
H3201 C3179 0.950 . S
C3202 C3203 1.349 . S
C3202 C3204 1.327 . S
C3202 H3227 0.950 . S
C3203 C3202 1.349 . S
C3203 C3219 1.349 . S
C3204 C3202 1.327 . S
C3204 C3223 1.429 . S
C3204 H3228 0.950 . S
C3205 C3222 1.574 . S
C3205 C3224 1.368 . S
C3205 H3229 0.949 . S
H3206 C3210 0.949 . S
C3207 C3208 1.349 . S
C3207 C3209 1.327 . S
C3207 H3230 0.950 . S
C3208 C3207 1.349 . S
C3208 C3220 1.349 . S
C3209 C3207 1.327 . S
C3209 C3225 1.429 . S
C3209 H3231 0.950 . S
C3210 H3206 0.949 . S
C3210 C3218 1.574 . S
C3210 C3226 1.368 . S
H3211 C3219 0.950 . S
H3212 C3217 0.950 . S
H3213 C3218 0.949 . S
H3214 C3220 0.950 . S
H3215 C3221 0.950 . S
H3216 C3222 0.949 . S
C3217 H3212 0.950 . S
C3217 C3219 1.327 . S
C3217 C3223 1.429 . S
C3218 C3210 1.574 . S
C3218 H3213 0.949 . S
C3218 C3224 1.368 . S
C3219 C3203 1.349 . S
C3219 H3211 0.950 . S
C3219 C3217 1.327 . S
C3220 C3208 1.349 . S
C3220 H3214 0.950 . S
C3220 C3221 1.327 . S
C3221 H3215 0.950 . S
C3221 C3220 1.327 . S
C3221 C3225 1.429 . S
C3222 C3205 1.574 . S
C3222 H3216 0.949 . S
C3222 C3226 1.368 . S
C3223 C3204 1.429 . S
C3223 C3217 1.429 . S
C3223 C3224 1.523 . S
C3224 C3205 1.368 . S
C3224 C3218 1.368 . S
C3224 C3223 1.523 . S
C3225 C3209 1.429 . S
C3225 C3221 1.429 . S
C3225 C3226 1.523 . S
C3226 C3210 1.368 . S
C3226 C3222 1.368 . S
C3226 C3225 1.523 . S
H3227 C3202 0.950 . S
H3228 C3204 0.950 . S
H3229 C3205 0.949 . S
H3230 C3207 0.950 . S
H3231 C3209 0.950 . S
C3232 C3233 1.349 . S
C3232 C3234 1.327 . S
C3232 H3257 0.950 . S
C3233 C3232 1.349 . S
C3233 C3249 1.349 . S
C3234 C3232 1.327 . S
C3234 C3253 1.429 . S
C3234 H3258 0.950 . S
C3235 C3252 1.574 . S
C3235 C3254 1.368 . S
C3235 H3259 0.949 . S
H3236 C3240 0.949 . S
C3237 C3238 1.349 . S
C3237 C3239 1.327 . S
C3237 H3260 0.950 . S
C3238 C3237 1.349 . S
C3238 C3250 1.349 . S
C3239 C3237 1.327 . S
C3239 C3255 1.429 . S
C3239 H3261 0.950 . S
C3240 H3236 0.949 . S
C3240 C3248 1.574 . S
C3240 C3256 1.368 . S
H3241 C3249 0.950 . S
H3242 C3247 0.950 . S
H3243 C3248 0.949 . S
H3244 C3250 0.950 . S
H3245 C3251 0.950 . S
H3246 C3252 0.949 . S
C3247 H3242 0.950 . S
C3247 C3249 1.327 . S
C3247 C3253 1.429 . S
C3248 C3240 1.574 . S
C3248 H3243 0.949 . S
C3248 C3254 1.368 . S
C3249 C3233 1.349 . S
C3249 H3241 0.950 . S
C3249 C3247 1.327 . S
C3250 C3238 1.349 . S
C3250 H3244 0.950 . S
C3250 C3251 1.327 . S
C3251 H3245 0.950 . S
C3251 C3250 1.327 . S
C3251 C3255 1.429 . S
C3252 C3235 1.574 . S
C3252 H3246 0.949 . S
C3252 C3256 1.368 . S
C3253 C3234 1.429 . S
C3253 C3247 1.429 . S
C3253 C3254 1.523 . S
C3254 C3235 1.368 . S
C3254 C3248 1.368 . S
C3254 C3253 1.523 . S
C3255 C3239 1.429 . S
C3255 C3251 1.429 . S
C3255 C3256 1.523 . S
C3256 C3240 1.368 . S
C3256 C3252 1.368 . S
C3256 C3255 1.523 . S
H3257 C3232 0.950 . S
H3258 C3234 0.950 . S
H3259 C3235 0.949 . S
H3260 C3237 0.950 . S
H3261 C3239 0.950 . S
C3262 C3263 1.349 . S
C3262 C3264 1.327 . S
C3262 H3287 0.950 . S
C3263 C3262 1.349 . S
C3263 C3279 1.349 . S
C3264 C3262 1.327 . S
C3264 C3283 1.429 . S
C3264 H3288 0.950 . S
C3265 C3282 1.574 . S
C3265 C3284 1.368 . S
C3265 H3289 0.949 . S
H3266 C3270 0.949 . S
C3267 C3268 1.349 . S
C3267 C3269 1.327 . S
C3267 H3290 0.950 . S
C3268 C3267 1.349 . S
C3268 C3280 1.349 . S
C3269 C3267 1.327 . S
C3269 C3285 1.429 . S
C3269 H3291 0.950 . S
C3270 H3266 0.949 . S
C3270 C3278 1.574 . S
C3270 C3286 1.368 . S
H3271 C3279 0.950 . S
H3272 C3277 0.950 . S
H3273 C3278 0.949 . S
H3274 C3280 0.950 . S
H3275 C3281 0.950 . S
H3276 C3282 0.949 . S
C3277 H3272 0.950 . S
C3277 C3279 1.327 . S
C3277 C3283 1.429 . S
C3278 C3270 1.574 . S
C3278 H3273 0.949 . S
C3278 C3284 1.368 . S
C3279 C3263 1.349 . S
C3279 H3271 0.950 . S
C3279 C3277 1.327 . S
C3280 C3268 1.349 . S
C3280 H3274 0.950 . S
C3280 C3281 1.327 . S
C3281 H3275 0.950 . S
C3281 C3280 1.327 . S
C3281 C3285 1.429 . S
C3282 C3265 1.574 . S
C3282 H3276 0.949 . S
C3282 C3286 1.368 . S
C3283 C3264 1.429 . S
C3283 C3277 1.429 . S
C3283 C3284 1.523 . S
C3284 C3265 1.368 . S
C3284 C3278 1.368 . S
C3284 C3283 1.523 . S
C3285 C3269 1.429 . S
C3285 C3281 1.429 . S
C3285 C3286 1.523 . S
C3286 C3270 1.368 . S
C3286 C3282 1.368 . S
C3286 C3285 1.523 . S
H3287 C3262 0.950 . S
H3288 C3264 0.950 . S
H3289 C3265 0.949 . S
H3290 C3267 0.950 . S
H3291 C3269 0.950 . S
C3292 C3293 1.349 . S
C3292 C3294 1.327 . S
C3292 H3317 0.950 . S
C3293 C3292 1.349 . S
C3293 C3309 1.349 . S
C3294 C3292 1.327 . S
C3294 C3313 1.429 . S
C3294 H3318 0.950 . S
C3295 C3312 1.574 . S
C3295 C3314 1.368 . S
C3295 H3319 0.949 . S
H3296 C3300 0.949 . S
C3297 C3298 1.349 . S
C3297 C3299 1.327 . S
C3297 H3320 0.950 . S
C3298 C3297 1.349 . S
C3298 C3310 1.349 . S
C3299 C3297 1.327 . S
C3299 C3315 1.429 . S
C3299 H3321 0.950 . S
C3300 H3296 0.949 . S
C3300 C3308 1.574 . S
C3300 C3316 1.368 . S
H3301 C3309 0.950 . S
H3302 C3307 0.950 . S
H3303 C3308 0.949 . S
H3304 C3310 0.950 . S
H3305 C3311 0.950 . S
H3306 C3312 0.949 . S
C3307 H3302 0.950 . S
C3307 C3309 1.327 . S
C3307 C3313 1.429 . S
C3308 C3300 1.574 . S
C3308 H3303 0.949 . S
C3308 C3314 1.368 . S
C3309 C3293 1.349 . S
C3309 H3301 0.950 . S
C3309 C3307 1.327 . S
C3310 C3298 1.349 . S
C3310 H3304 0.950 . S
C3310 C3311 1.327 . S
C3311 H3305 0.950 . S
C3311 C3310 1.327 . S
C3311 C3315 1.429 . S
C3312 C3295 1.574 . S
C3312 H3306 0.949 . S
C3312 C3316 1.368 . S
C3313 C3294 1.429 . S
C3313 C3307 1.429 . S
C3313 C3314 1.523 . S
C3314 C3295 1.368 . S
C3314 C3308 1.368 . S
C3314 C3313 1.523 . S
C3315 C3299 1.429 . S
C3315 C3311 1.429 . S
C3315 C3316 1.523 . S
C3316 C3300 1.368 . S
C3316 C3312 1.368 . S
C3316 C3315 1.523 . S
H3317 C3292 0.950 . S
H3318 C3294 0.950 . S
H3319 C3295 0.949 . S
H3320 C3297 0.950 . S
H3321 C3299 0.950 . S
C3322 C3323 1.349 . S
C3322 C3324 1.327 . S
C3322 H3347 0.950 . S
C3323 C3322 1.349 . S
C3323 C3339 1.349 . S
C3324 C3322 1.327 . S
C3324 C3343 1.429 . S
C3324 H3348 0.950 . S
C3325 C3342 1.574 . S
C3325 C3344 1.368 . S
C3325 H3349 0.949 . S
H3326 C3330 0.949 . S
C3327 C3328 1.349 . S
C3327 C3329 1.327 . S
C3327 H3350 0.950 . S
C3328 C3327 1.349 . S
C3328 C3340 1.349 . S
C3329 C3327 1.327 . S
C3329 C3345 1.429 . S
C3329 H3351 0.950 . S
C3330 H3326 0.949 . S
C3330 C3338 1.574 . S
C3330 C3346 1.368 . S
H3331 C3339 0.950 . S
H3332 C3337 0.950 . S
H3333 C3338 0.949 . S
H3334 C3340 0.950 . S
H3335 C3341 0.950 . S
H3336 C3342 0.949 . S
C3337 H3332 0.950 . S
C3337 C3339 1.327 . S
C3337 C3343 1.429 . S
C3338 C3330 1.574 . S
C3338 H3333 0.949 . S
C3338 C3344 1.368 . S
C3339 C3323 1.349 . S
C3339 H3331 0.950 . S
C3339 C3337 1.327 . S
C3340 C3328 1.349 . S
C3340 H3334 0.950 . S
C3340 C3341 1.327 . S
C3341 H3335 0.950 . S
C3341 C3340 1.327 . S
C3341 C3345 1.429 . S
C3342 C3325 1.574 . S
C3342 H3336 0.949 . S
C3342 C3346 1.368 . S
C3343 C3324 1.429 . S
C3343 C3337 1.429 . S
C3343 C3344 1.523 . S
C3344 C3325 1.368 . S
C3344 C3338 1.368 . S
C3344 C3343 1.523 . S
C3345 C3329 1.429 . S
C3345 C3341 1.429 . S
C3345 C3346 1.523 . S
C3346 C3330 1.368 . S
C3346 C3342 1.368 . S
C3346 C3345 1.523 . S
H3347 C3322 0.950 . S
H3348 C3324 0.950 . S
H3349 C3325 0.949 . S
H3350 C3327 0.950 . S
H3351 C3329 0.950 . S
C3352 C3353 1.349 . S
C3352 C3354 1.327 . S
C3352 H3377 0.950 . S
C3353 C3352 1.349 . S
C3353 C3369 1.349 . S
C3354 C3352 1.327 . S
C3354 C3373 1.429 . S
C3354 H3378 0.950 . S
C3355 C3372 1.574 . S
C3355 C3374 1.368 . S
C3355 H3379 0.949 . S
H3356 C3360 0.949 . S
C3357 C3358 1.349 . S
C3357 C3359 1.327 . S
C3357 H3380 0.950 . S
C3358 C3357 1.349 . S
C3358 C3370 1.349 . S
C3359 C3357 1.327 . S
C3359 C3375 1.429 . S
C3359 H3381 0.950 . S
C3360 H3356 0.949 . S
C3360 C3368 1.574 . S
C3360 C3376 1.368 . S
H3361 C3369 0.950 . S
H3362 C3367 0.950 . S
H3363 C3368 0.949 . S
H3364 C3370 0.950 . S
H3365 C3371 0.950 . S
H3366 C3372 0.949 . S
C3367 H3362 0.950 . S
C3367 C3369 1.327 . S
C3367 C3373 1.429 . S
C3368 C3360 1.574 . S
C3368 H3363 0.949 . S
C3368 C3374 1.368 . S
C3369 C3353 1.349 . S
C3369 H3361 0.950 . S
C3369 C3367 1.327 . S
C3370 C3358 1.349 . S
C3370 H3364 0.950 . S
C3370 C3371 1.327 . S
C3371 H3365 0.950 . S
C3371 C3370 1.327 . S
C3371 C3375 1.429 . S
C3372 C3355 1.574 . S
C3372 H3366 0.949 . S
C3372 C3376 1.368 . S
C3373 C3354 1.429 . S
C3373 C3367 1.429 . S
C3373 C3374 1.523 . S
C3374 C3355 1.368 . S
C3374 C3368 1.368 . S
C3374 C3373 1.523 . S
C3375 C3359 1.429 . S
C3375 C3371 1.429 . S
C3375 C3376 1.523 . S
C3376 C3360 1.368 . S
C3376 C3372 1.368 . S
C3376 C3375 1.523 . S
H3377 C3352 0.950 . S
H3378 C3354 0.950 . S
H3379 C3355 0.949 . S
H3380 C3357 0.950 . S
H3381 C3359 0.950 . S
C3382 C3383 1.349 . S
C3382 C3384 1.327 . S
C3382 H3407 0.950 . S
C3383 C3382 1.349 . S
C3383 C3399 1.349 . S
C3384 C3382 1.327 . S
C3384 C3403 1.429 . S
C3384 H3408 0.950 . S
C3385 C3402 1.574 . S
C3385 C3404 1.368 . S
C3385 H3409 0.949 . S
H3386 C3390 0.949 . S
C3387 C3388 1.349 . S
C3387 C3389 1.327 . S
C3387 H3410 0.950 . S
C3388 C3387 1.349 . S
C3388 C3400 1.349 . S
C3389 C3387 1.327 . S
C3389 C3405 1.429 . S
C3389 H3411 0.950 . S
C3390 H3386 0.949 . S
C3390 C3398 1.574 . S
C3390 C3406 1.368 . S
H3391 C3399 0.950 . S
H3392 C3397 0.950 . S
H3393 C3398 0.949 . S
H3394 C3400 0.950 . S
H3395 C3401 0.950 . S
H3396 C3402 0.949 . S
C3397 H3392 0.950 . S
C3397 C3399 1.327 . S
C3397 C3403 1.429 . S
C3398 C3390 1.574 . S
C3398 H3393 0.949 . S
C3398 C3404 1.368 . S
C3399 C3383 1.349 . S
C3399 H3391 0.950 . S
C3399 C3397 1.327 . S
C3400 C3388 1.349 . S
C3400 H3394 0.950 . S
C3400 C3401 1.327 . S
C3401 H3395 0.950 . S
C3401 C3400 1.327 . S
C3401 C3405 1.429 . S
C3402 C3385 1.574 . S
C3402 H3396 0.949 . S
C3402 C3406 1.368 . S
C3403 C3384 1.429 . S
C3403 C3397 1.429 . S
C3403 C3404 1.523 . S
C3404 C3385 1.368 . S
C3404 C3398 1.368 . S
C3404 C3403 1.523 . S
C3405 C3389 1.429 . S
C3405 C3401 1.429 . S
C3405 C3406 1.523 . S
C3406 C3390 1.368 . S
C3406 C3402 1.368 . S
C3406 C3405 1.523 . S
H3407 C3382 0.950 . S
H3408 C3384 0.950 . S
H3409 C3385 0.949 . S
H3410 C3387 0.950 . S
H3411 C3389 0.950 . S
C3412 C3413 1.349 . S
C3412 C3414 1.327 . S
C3412 H3437 0.950 . S
C3413 C3412 1.349 . S
C3413 C3429 1.349 . S
C3414 C3412 1.327 . S
C3414 C3433 1.429 . S
C3414 H3438 0.950 . S
C3415 C3432 1.574 . S
C3415 C3434 1.368 . S
C3415 H3439 0.949 . S
H3416 C3420 0.949 . S
C3417 C3418 1.349 . S
C3417 C3419 1.327 . S
C3417 H3440 0.950 . S
C3418 C3417 1.349 . S
C3418 C3430 1.349 . S
C3419 C3417 1.327 . S
C3419 C3435 1.429 . S
C3419 H3441 0.950 . S
C3420 H3416 0.949 . S
C3420 C3428 1.574 . S
C3420 C3436 1.368 . S
H3421 C3429 0.950 . S
H3422 C3427 0.950 . S
H3423 C3428 0.949 . S
H3424 C3430 0.950 1_455 S
H3425 C3431 0.950 . S
H3426 C3432 0.949 . S
C3427 H3422 0.950 . S
C3427 C3429 1.327 . S
C3427 C3433 1.429 . S
C3428 C3420 1.574 . S
C3428 H3423 0.949 . S
C3428 C3434 1.368 . S
C3429 C3413 1.349 . S
C3429 H3421 0.950 . S
C3429 C3427 1.327 . S
C3430 C3418 1.349 . S
C3430 H3424 0.950 1_655 S
C3430 C3431 1.327 . S
C3431 H3425 0.950 . S
C3431 C3430 1.327 . S
C3431 C3435 1.429 . S
C3432 C3415 1.574 . S
C3432 H3426 0.949 . S
C3432 C3436 1.368 . S
C3433 C3414 1.429 . S
C3433 C3427 1.429 . S
C3433 C3434 1.523 . S
C3434 C3415 1.368 . S
C3434 C3428 1.368 . S
C3434 C3433 1.523 . S
C3435 C3419 1.429 . S
C3435 C3431 1.429 . S
C3435 C3436 1.523 . S
C3436 C3420 1.368 . S
C3436 C3432 1.368 . S
C3436 C3435 1.523 . S
H3437 C3412 0.950 . S
H3438 C3414 0.950 . S
H3439 C3415 0.949 . S
H3440 C3417 0.950 . S
H3441 C3419 0.950 . S
C3442 C3443 1.349 . S
C3442 C3444 1.327 . S
C3442 H3467 0.950 . S
C3443 C3442 1.349 . S
C3443 C3459 1.349 . S
C3444 C3442 1.327 . S
C3444 C3463 1.429 . S
C3444 H3468 0.950 . S
C3445 C3462 1.574 . S
C3445 C3464 1.368 . S
C3445 H3469 0.949 . S
H3446 C3450 0.949 . S
C3447 C3448 1.349 . S
C3447 C3449 1.327 . S
C3447 H3470 0.950 . S
C3448 C3447 1.349 . S
C3448 C3460 1.349 . S
C3449 C3447 1.327 . S
C3449 C3465 1.429 . S
C3449 H3471 0.950 . S
C3450 H3446 0.949 . S
C3450 C3458 1.574 . S
C3450 C3466 1.368 . S
H3451 C3459 0.950 . S
H3452 C3457 0.950 . S
H3453 C3458 0.949 . S
H3454 C3460 0.950 . S
H3455 C3461 0.950 . S
H3456 C3462 0.949 . S
C3457 H3452 0.950 . S
C3457 C3459 1.327 . S
C3457 C3463 1.429 . S
C3458 C3450 1.574 . S
C3458 H3453 0.949 . S
C3458 C3464 1.368 . S
C3459 C3443 1.349 . S
C3459 H3451 0.950 . S
C3459 C3457 1.327 . S
C3460 C3448 1.349 . S
C3460 H3454 0.950 . S
C3460 C3461 1.327 . S
C3461 H3455 0.950 . S
C3461 C3460 1.327 . S
C3461 C3465 1.429 . S
C3462 C3445 1.574 . S
C3462 H3456 0.949 . S
C3462 C3466 1.368 . S
C3463 C3444 1.429 . S
C3463 C3457 1.429 . S
C3463 C3464 1.523 . S
C3464 C3445 1.368 . S
C3464 C3458 1.368 . S
C3464 C3463 1.523 . S
C3465 C3449 1.429 . S
C3465 C3461 1.429 . S
C3465 C3466 1.523 . S
C3466 C3450 1.368 . S
C3466 C3462 1.368 . S
C3466 C3465 1.523 . S
H3467 C3442 0.950 . S
H3468 C3444 0.950 . S
H3469 C3445 0.949 . S
H3470 C3447 0.950 . S
H3471 C3449 0.950 . S
C3472 C3473 1.349 . S
C3472 C3474 1.327 . S
C3472 H3497 0.950 . S
C3473 C3472 1.349 . S
C3473 C3489 1.349 . S
C3474 C3472 1.327 . S
C3474 C3493 1.429 . S
C3474 H3498 0.950 . S
C3475 C3492 1.574 . S
C3475 C3494 1.368 . S
C3475 H3499 0.949 . S
H3476 C3480 0.949 . S
C3477 C3478 1.349 . S
C3477 C3479 1.327 . S
C3477 H3500 0.950 . S
C3478 C3477 1.349 . S
C3478 C3490 1.349 . S
C3479 C3477 1.327 . S
C3479 C3495 1.429 . S
C3479 H3501 0.950 . S
C3480 H3476 0.949 . S
C3480 C3488 1.574 . S
C3480 C3496 1.368 . S
H3481 C3489 0.950 . S
H3482 C3487 0.950 . S
H3483 C3488 0.949 . S
H3484 C3490 0.950 . S
H3485 C3491 0.950 . S
H3486 C3492 0.949 . S
C3487 H3482 0.950 . S
C3487 C3489 1.327 . S
C3487 C3493 1.429 . S
C3488 C3480 1.574 . S
C3488 H3483 0.949 . S
C3488 C3494 1.368 . S
C3489 C3473 1.349 . S
C3489 H3481 0.950 . S
C3489 C3487 1.327 . S
C3490 C3478 1.349 . S
C3490 H3484 0.950 . S
C3490 C3491 1.327 . S
C3491 H3485 0.950 . S
C3491 C3490 1.327 . S
C3491 C3495 1.429 . S
C3492 C3475 1.574 . S
C3492 H3486 0.949 . S
C3492 C3496 1.368 . S
C3493 C3474 1.429 . S
C3493 C3487 1.429 . S
C3493 C3494 1.523 . S
C3494 C3475 1.368 . S
C3494 C3488 1.368 . S
C3494 C3493 1.523 . S
C3495 C3479 1.429 . S
C3495 C3491 1.429 . S
C3495 C3496 1.523 . S
C3496 C3480 1.368 . S
C3496 C3492 1.368 . S
C3496 C3495 1.523 . S
H3497 C3472 0.950 . S
H3498 C3474 0.950 . S
H3499 C3475 0.949 . S
H3500 C3477 0.950 . S
H3501 C3479 0.950 . S
C3502 C3503 1.349 . S
C3502 C3504 1.327 . S
C3502 H3527 0.950 . S
C3503 C3502 1.349 . S
C3503 C3519 1.349 . S
C3504 C3502 1.327 . S
C3504 C3523 1.429 . S
C3504 H3528 0.950 . S
C3505 C3522 1.574 . S
C3505 C3524 1.368 . S
C3505 H3529 0.949 . S
H3506 C3510 0.949 . S
C3507 C3508 1.349 . S
C3507 C3509 1.327 . S
C3507 H3530 0.950 . S
C3508 C3507 1.349 . S
C3508 C3520 1.349 . S
C3509 C3507 1.327 . S
C3509 C3525 1.429 . S
C3509 H3531 0.950 . S
C3510 H3506 0.949 . S
C3510 C3518 1.574 . S
C3510 C3526 1.368 . S
H3511 C3519 0.950 . S
H3512 C3517 0.950 . S
H3513 C3518 0.949 . S
H3514 C3520 0.950 . S
H3515 C3521 0.950 . S
H3516 C3522 0.949 . S
C3517 H3512 0.950 . S
C3517 C3519 1.327 . S
C3517 C3523 1.429 . S
C3518 C3510 1.574 . S
C3518 H3513 0.949 . S
C3518 C3524 1.368 . S
C3519 C3503 1.349 . S
C3519 H3511 0.950 . S
C3519 C3517 1.327 . S
C3520 C3508 1.349 . S
C3520 H3514 0.950 . S
C3520 C3521 1.327 . S
C3521 H3515 0.950 . S
C3521 C3520 1.327 . S
C3521 C3525 1.429 . S
C3522 C3505 1.574 . S
C3522 H3516 0.949 . S
C3522 C3526 1.368 . S
C3523 C3504 1.429 . S
C3523 C3517 1.429 . S
C3523 C3524 1.523 . S
C3524 C3505 1.368 . S
C3524 C3518 1.368 . S
C3524 C3523 1.523 . S
C3525 C3509 1.429 . S
C3525 C3521 1.429 . S
C3525 C3526 1.523 . S
C3526 C3510 1.368 . S
C3526 C3522 1.368 . S
C3526 C3525 1.523 . S
H3527 C3502 0.950 . S
H3528 C3504 0.950 . S
H3529 C3505 0.949 . S
H3530 C3507 0.950 . S
H3531 C3509 0.950 . S
C3532 C3533 1.349 . S
C3532 C3534 1.327 . S
C3532 H3557 0.950 . S
C3533 C3532 1.349 . S
C3533 C3549 1.349 . S
C3534 C3532 1.327 . S
C3534 C3553 1.429 . S
C3534 H3558 0.950 . S
C3535 C3552 1.574 . S
C3535 C3554 1.368 . S
C3535 H3559 0.949 . S
H3536 C3540 0.949 . S
C3537 C3538 1.349 . S
C3537 C3539 1.327 . S
C3537 H3560 0.950 . S
C3538 C3537 1.349 . S
C3538 C3550 1.349 . S
C3539 C3537 1.327 . S
C3539 C3555 1.429 . S
C3539 H3561 0.950 . S
C3540 H3536 0.949 . S
C3540 C3548 1.574 . S
C3540 C3556 1.368 . S
H3541 C3549 0.950 . S
H3542 C3547 0.950 . S
H3543 C3548 0.949 . S
H3544 C3550 0.950 . S
H3545 C3551 0.950 . S
H3546 C3552 0.949 . S
C3547 H3542 0.950 . S
C3547 C3549 1.327 . S
C3547 C3553 1.429 . S
C3548 C3540 1.574 . S
C3548 H3543 0.949 . S
C3548 C3554 1.368 . S
C3549 C3533 1.349 . S
C3549 H3541 0.950 . S
C3549 C3547 1.327 . S
C3550 C3538 1.349 . S
C3550 H3544 0.950 . S
C3550 C3551 1.327 . S
C3551 H3545 0.950 . S
C3551 C3550 1.327 . S
C3551 C3555 1.429 . S
C3552 C3535 1.574 . S
C3552 H3546 0.949 . S
C3552 C3556 1.368 . S
C3553 C3534 1.429 . S
C3553 C3547 1.429 . S
C3553 C3554 1.523 . S
C3554 C3535 1.368 . S
C3554 C3548 1.368 . S
C3554 C3553 1.523 . S
C3555 C3539 1.429 . S
C3555 C3551 1.429 . S
C3555 C3556 1.523 . S
C3556 C3540 1.368 . S
C3556 C3552 1.368 . S
C3556 C3555 1.523 . S
H3557 C3532 0.950 . S
H3558 C3534 0.950 . S
H3559 C3535 0.949 . S
H3560 C3537 0.950 . S
H3561 C3539 0.950 . S
C3562 C3563 1.349 . S
C3562 C3564 1.327 . S
C3562 H3587 0.950 . S
C3563 C3562 1.349 . S
C3563 C3579 1.349 . S
C3564 C3562 1.327 . S
C3564 C3583 1.429 . S
C3564 H3588 0.950 . S
C3565 C3582 1.574 . S
C3565 C3584 1.368 . S
C3565 H3589 0.949 . S
H3566 C3570 0.949 . S
C3567 C3568 1.349 . S
C3567 C3569 1.327 . S
C3567 H3590 0.950 . S
C3568 C3567 1.349 . S
C3568 C3580 1.349 . S
C3569 C3567 1.327 . S
C3569 C3585 1.429 . S
C3569 H3591 0.950 . S
C3570 H3566 0.949 . S
C3570 C3578 1.574 . S
C3570 C3586 1.368 . S
H3571 C3579 0.950 . S
H3572 C3577 0.950 . S
H3573 C3578 0.949 . S
H3574 C3580 0.950 . S
H3575 C3581 0.950 . S
H3576 C3582 0.949 . S
C3577 H3572 0.950 . S
C3577 C3579 1.327 . S
C3577 C3583 1.429 . S
C3578 C3570 1.574 . S
C3578 H3573 0.949 . S
C3578 C3584 1.368 . S
C3579 C3563 1.349 . S
C3579 H3571 0.950 . S
C3579 C3577 1.327 . S
C3580 C3568 1.349 . S
C3580 H3574 0.950 . S
C3580 C3581 1.327 . S
C3581 H3575 0.950 . S
C3581 C3580 1.327 . S
C3581 C3585 1.429 . S
C3582 C3565 1.574 . S
C3582 H3576 0.949 . S
C3582 C3586 1.368 . S
C3583 C3564 1.429 . S
C3583 C3577 1.429 . S
C3583 C3584 1.523 . S
C3584 C3565 1.368 . S
C3584 C3578 1.368 . S
C3584 C3583 1.523 . S
C3585 C3569 1.429 . S
C3585 C3581 1.429 . S
C3585 C3586 1.523 . S
C3586 C3570 1.368 . S
C3586 C3582 1.368 . S
C3586 C3585 1.523 . S
H3587 C3562 0.950 . S
H3588 C3564 0.950 . S
H3589 C3565 0.949 . S
H3590 C3567 0.950 . S
H3591 C3569 0.950 . S
C3592 C3593 1.349 . S
C3592 C3594 1.327 . S
C3592 H3617 0.950 . S
C3593 C3592 1.349 . S
C3593 C3609 1.349 . S
C3594 C3592 1.327 . S
C3594 C3613 1.429 . S
C3594 H3618 0.950 . S
C3595 C3612 1.574 . S
C3595 C3614 1.368 . S
C3595 H3619 0.949 . S
H3596 C3600 0.949 . S
C3597 C3598 1.349 . S
C3597 C3599 1.327 . S
C3597 H3620 0.950 . S
C3598 C3597 1.349 . S
C3598 C3610 1.349 . S
C3599 C3597 1.327 . S
C3599 C3615 1.429 . S
C3599 H3621 0.950 . S
C3600 H3596 0.949 . S
C3600 C3608 1.574 . S
C3600 C3616 1.368 . S
H3601 C3609 0.950 . S
H3602 C3607 0.950 . S
H3603 C3608 0.949 . S
H3604 C3610 0.950 . S
H3605 C3611 0.950 . S
H3606 C3612 0.949 . S
C3607 H3602 0.950 . S
C3607 C3609 1.327 . S
C3607 C3613 1.429 . S
C3608 C3600 1.574 . S
C3608 H3603 0.949 . S
C3608 C3614 1.368 . S
C3609 C3593 1.349 . S
C3609 H3601 0.950 . S
C3609 C3607 1.327 . S
C3610 C3598 1.349 . S
C3610 H3604 0.950 . S
C3610 C3611 1.327 . S
C3611 H3605 0.950 . S
C3611 C3610 1.327 . S
C3611 C3615 1.429 . S
C3612 C3595 1.574 . S
C3612 H3606 0.949 . S
C3612 C3616 1.368 . S
C3613 C3594 1.429 . S
C3613 C3607 1.429 . S
C3613 C3614 1.523 . S
C3614 C3595 1.368 . S
C3614 C3608 1.368 . S
C3614 C3613 1.523 . S
C3615 C3599 1.429 . S
C3615 C3611 1.429 . S
C3615 C3616 1.523 . S
C3616 C3600 1.368 . S
C3616 C3612 1.368 . S
C3616 C3615 1.523 . S
H3617 C3592 0.950 . S
H3618 C3594 0.950 . S
H3619 C3595 0.949 . S
H3620 C3597 0.950 . S
H3621 C3599 0.950 . S
C3622 C3623 1.349 . S
C3622 C3624 1.327 . S
C3622 H3647 0.950 . S
C3623 C3622 1.349 . S
C3623 C3639 1.349 . S
C3624 C3622 1.327 . S
C3624 C3643 1.429 . S
C3624 H3648 0.950 . S
C3625 C3642 1.574 . S
C3625 C3644 1.368 . S
C3625 H3649 0.949 . S
H3626 C3630 0.949 . S
C3627 C3628 1.349 1_545 S
C3627 C3629 1.327 1_545 S
C3627 H3650 0.950 . S
C3628 C3627 1.349 1_565 S
C3628 C3640 1.349 . S
C3629 C3627 1.327 1_565 S
C3629 C3645 1.429 . S
C3629 H3651 0.950 . S
C3630 H3626 0.949 . S
C3630 C3638 1.574 . S
C3630 C3646 1.368 . S
H3631 C3639 0.950 . S
H3632 C3637 0.950 . S
H3633 C3638 0.949 . S
H3634 C3640 0.950 . S
H3635 C3641 0.950 . S
H3636 C3642 0.949 . S
C3637 H3632 0.950 . S
C3637 C3639 1.327 . S
C3637 C3643 1.429 . S
C3638 C3630 1.574 . S
C3638 H3633 0.949 . S
C3638 C3644 1.368 . S
C3639 C3623 1.349 . S
C3639 H3631 0.950 . S
C3639 C3637 1.327 . S
C3640 C3628 1.349 . S
C3640 H3634 0.950 . S
C3640 C3641 1.327 . S
C3641 H3635 0.950 . S
C3641 C3640 1.327 . S
C3641 C3645 1.429 . S
C3642 C3625 1.574 . S
C3642 H3636 0.949 . S
C3642 C3646 1.368 . S
C3643 C3624 1.429 . S
C3643 C3637 1.429 . S
C3643 C3644 1.523 . S
C3644 C3625 1.368 . S
C3644 C3638 1.368 . S
C3644 C3643 1.523 . S
C3645 C3629 1.429 . S
C3645 C3641 1.429 . S
C3645 C3646 1.523 . S
C3646 C3630 1.368 . S
C3646 C3642 1.368 . S
C3646 C3645 1.523 . S
H3647 C3622 0.950 . S
H3648 C3624 0.950 . S
H3649 C3625 0.949 . S
H3650 C3627 0.950 . S
H3651 C3629 0.950 . S
C3652 C3653 1.349 . S
C3652 C3654 1.327 . S
C3652 H3677 0.950 . S
C3653 C3652 1.349 . S
C3653 C3669 1.349 . S
C3654 C3652 1.327 . S
C3654 C3673 1.429 . S
C3654 H3678 0.950 . S
C3655 C3672 1.574 . S
C3655 C3674 1.368 . S
C3655 H3679 0.949 . S
H3656 C3660 0.949 . S
C3657 C3658 1.349 . S
C3657 C3659 1.327 . S
C3657 H3680 0.950 . S
C3658 C3657 1.349 . S
C3658 C3670 1.349 . S
C3659 C3657 1.327 . S
C3659 C3675 1.429 . S
C3659 H3681 0.950 . S
C3660 H3656 0.949 . S
C3660 C3668 1.574 . S
C3660 C3676 1.368 . S
H3661 C3669 0.950 . S
H3662 C3667 0.950 . S
H3663 C3668 0.949 . S
H3664 C3670 0.950 . S
H3665 C3671 0.950 . S
H3666 C3672 0.949 . S
C3667 H3662 0.950 . S
C3667 C3669 1.327 . S
C3667 C3673 1.429 . S
C3668 C3660 1.574 . S
C3668 H3663 0.949 . S
C3668 C3674 1.368 . S
C3669 C3653 1.349 . S
C3669 H3661 0.950 . S
C3669 C3667 1.327 . S
C3670 C3658 1.349 . S
C3670 H3664 0.950 . S
C3670 C3671 1.327 . S
C3671 H3665 0.950 . S
C3671 C3670 1.327 . S
C3671 C3675 1.429 . S
C3672 C3655 1.574 . S
C3672 H3666 0.949 . S
C3672 C3676 1.368 . S
C3673 C3654 1.429 . S
C3673 C3667 1.429 . S
C3673 C3674 1.523 . S
C3674 C3655 1.368 . S
C3674 C3668 1.368 . S
C3674 C3673 1.523 . S
C3675 C3659 1.429 . S
C3675 C3671 1.429 . S
C3675 C3676 1.523 . S
C3676 C3660 1.368 . S
C3676 C3672 1.368 . S
C3676 C3675 1.523 . S
H3677 C3652 0.950 . S
H3678 C3654 0.950 . S
H3679 C3655 0.949 . S
H3680 C3657 0.950 . S
H3681 C3659 0.950 . S
C3682 C3683 1.349 . S
C3682 C3684 1.327 . S
C3682 H3707 0.950 . S
C3683 C3682 1.349 . S
C3683 C3699 1.349 . S
C3684 C3682 1.327 . S
C3684 C3703 1.429 . S
C3684 H3708 0.950 . S
C3685 C3702 1.574 . S
C3685 C3704 1.368 . S
C3685 H3709 0.949 . S
H3686 C3690 0.949 1_556 S
C3687 C3688 1.349 . S
C3687 C3689 1.327 . S
C3687 H3710 0.950 . S
C3688 C3687 1.349 . S
C3688 C3700 1.391 . S
C3689 C3687 1.327 . S
C3689 C3705 1.429 . S
C3689 H3711 0.950 . S
C3690 H3686 0.949 1_554 S
C3690 C3698 1.574 . S
C3690 C3706 1.368 . S
H3691 C3699 0.950 . S
H3692 C3697 0.950 . S
H3693 C3698 0.949 . S
H3694 C3700 0.909 1_556 S
H3695 C3701 0.950 1_556 S
H3696 C3702 0.949 . S
C3697 H3692 0.950 . S
C3697 C3699 1.327 . S
C3697 C3703 1.429 . S
C3698 C3690 1.574 . S
C3698 H3693 0.949 . S
C3698 C3704 1.368 . S
C3699 C3683 1.349 . S
C3699 H3691 0.950 . S
C3699 C3697 1.327 . S
C3700 C3688 1.391 . S
C3700 H3694 0.909 1_554 S
C3700 C3701 1.327 . S
C3701 H3695 0.950 1_554 S
C3701 C3700 1.327 . S
C3701 C3705 1.429 . S
C3702 C3685 1.574 . S
C3702 H3696 0.949 . S
C3702 C3706 1.368 . S
C3703 C3684 1.429 . S
C3703 C3697 1.429 . S
C3703 C3704 1.523 . S
C3704 C3685 1.368 . S
C3704 C3698 1.368 . S
C3704 C3703 1.523 . S
C3705 C3689 1.429 . S
C3705 C3701 1.429 . S
C3705 C3706 1.523 . S
C3706 C3690 1.368 . S
C3706 C3702 1.368 . S
C3706 C3705 1.523 . S
H3707 C3682 0.950 . S
H3708 C3684 0.950 . S
H3709 C3685 0.949 . S
H3710 C3687 0.950 . S
H3711 C3689 0.950 . S
C3712 C3713 1.349 . S
C3712 C3714 1.327 . S
C3712 H3737 0.950 . S
C3713 C3712 1.349 . S
C3713 C3729 1.349 . S
C3714 C3712 1.327 . S
C3714 C3733 1.429 . S
C3714 H3738 0.950 . S
C3715 C3732 1.574 . S
C3715 C3734 1.368 . S
C3715 H3739 0.949 . S
H3716 C3720 0.949 . S
C3717 C3718 1.349 . S
C3717 C3719 1.327 . S
C3717 H3740 0.950 . S
C3718 C3717 1.349 . S
C3718 C3730 1.349 . S
C3719 C3717 1.327 . S
C3719 C3735 1.429 . S
C3719 H3741 0.950 . S
C3720 H3716 0.949 . S
C3720 C3728 1.574 . S
C3720 C3736 1.368 . S
H3721 C3729 0.950 . S
H3722 C3727 0.950 . S
H3723 C3728 0.949 . S
H3724 C3730 0.950 . S
H3725 C3731 0.950 . S
H3726 C3732 0.949 . S
C3727 H3722 0.950 . S
C3727 C3729 1.327 . S
C3727 C3733 1.429 . S
C3728 C3720 1.574 . S
C3728 H3723 0.949 . S
C3728 C3734 1.368 . S
C3729 C3713 1.349 . S
C3729 H3721 0.950 . S
C3729 C3727 1.327 . S
C3730 C3718 1.349 . S
C3730 H3724 0.950 . S
C3730 C3731 1.327 . S
C3731 H3725 0.950 . S
C3731 C3730 1.327 . S
C3731 C3735 1.429 . S
C3732 C3715 1.574 . S
C3732 H3726 0.949 . S
C3732 C3736 1.368 . S
C3733 C3714 1.429 . S
C3733 C3727 1.429 . S
C3733 C3734 1.523 . S
C3734 C3715 1.368 . S
C3734 C3728 1.368 . S
C3734 C3733 1.523 . S
C3735 C3719 1.429 . S
C3735 C3731 1.429 . S
C3735 C3736 1.523 . S
C3736 C3720 1.368 . S
C3736 C3732 1.368 . S
C3736 C3735 1.523 . S
H3737 C3712 0.950 . S
H3738 C3714 0.950 . S
H3739 C3715 0.949 . S
H3740 C3717 0.950 . S
H3741 C3719 0.950 . S
C3742 C3743 1.349 . S
C3742 C3744 1.327 . S
C3742 H3767 0.950 . S
C3743 C3742 1.349 . S
C3743 C3759 1.349 . S
C3744 C3742 1.327 . S
C3744 C3763 1.429 . S
C3744 H3768 0.950 . S
C3745 C3762 1.574 . S
C3745 C3764 1.368 . S
C3745 H3769 0.949 1_554 S
H3746 C3750 0.949 . S
C3747 C3748 1.349 1_556 S
C3747 C3749 1.328 . S
C3747 H3770 0.950 . S
C3748 C3747 1.349 1_554 S
C3748 C3760 1.349 . S
C3749 C3747 1.328 . S
C3749 C3765 1.422 1_556 S
C3749 H3771 0.956 . S
C3750 H3746 0.949 . S
C3750 C3758 1.574 . S
C3750 C3766 1.368 . S
H3751 C3759 0.950 . S
H3752 C3757 0.898 1_556 S
H3753 C3758 0.949 . S
H3754 C3760 0.950 . S
H3755 C3761 0.950 . S
H3756 C3762 0.949 1_556 S
C3757 H3752 0.898 1_554 S
C3757 C3759 1.327 . S
C3757 C3763 1.429 . S
C3758 C3750 1.574 . S
C3758 H3753 0.949 . S
C3758 C3764 1.368 . S
C3759 C3743 1.349 . S
C3759 H3751 0.950 . S
C3759 C3757 1.327 . S
C3760 C3748 1.349 . S
C3760 H3754 0.950 . S
C3760 C3761 1.327 . S
C3761 H3755 0.950 . S
C3761 C3760 1.327 . S
C3761 C3765 1.429 . S
C3762 C3745 1.574 . S
C3762 H3756 0.949 1_554 S
C3762 C3766 1.368 . S
C3763 C3744 1.429 . S
C3763 C3757 1.429 . S
C3763 C3764 1.523 . S
C3764 C3745 1.368 . S
C3764 C3758 1.368 . S
C3764 C3763 1.523 . S
C3765 C3749 1.422 1_554 S
C3765 C3761 1.429 . S
C3765 C3766 1.523 . S
C3766 C3750 1.368 . S
C3766 C3762 1.368 . S
C3766 C3765 1.523 . S
H3767 C3742 0.950 . S
H3768 C3744 0.950 . S
H3769 C3745 0.949 1_556 S
H3770 C3747 0.950 . S
H3771 C3749 0.956 . S
C3772 C3773 1.349 . S
C3772 C3774 1.327 . S
C3772 H3797 0.950 . S
C3773 C3772 1.349 . S
C3773 C3789 1.349 . S
C3774 C3772 1.327 . S
C3774 C3793 1.429 . S
C3774 H3798 0.950 . S
C3775 C3792 1.574 . S
C3775 C3794 1.368 . S
C3775 H3799 0.949 . S
H3776 C3780 0.949 . S
C3777 C3778 1.349 . S
C3777 C3779 1.327 . S
C3777 H3800 0.950 . S
C3778 C3777 1.349 . S
C3778 C3790 1.349 . S
C3779 C3777 1.327 . S
C3779 C3795 1.429 . S
C3779 H3801 0.950 . S
C3780 H3776 0.949 . S
C3780 C3788 1.574 . S
C3780 C3796 1.368 . S
H3781 C3789 0.950 . S
H3782 C3787 0.950 . S
H3783 C3788 0.949 . S
H3784 C3790 0.950 . S
H3785 C3791 0.950 . S
H3786 C3792 0.949 . S
C3787 H3782 0.950 . S
C3787 C3789 1.327 . S
C3787 C3793 1.429 . S
C3788 C3780 1.574 . S
C3788 H3783 0.949 . S
C3788 C3794 1.368 . S
C3789 C3773 1.349 . S
C3789 H3781 0.950 . S
C3789 C3787 1.327 . S
C3790 C3778 1.349 . S
C3790 H3784 0.950 . S
C3790 C3791 1.327 . S
C3791 H3785 0.950 . S
C3791 C3790 1.327 . S
C3791 C3795 1.429 . S
C3792 C3775 1.574 . S
C3792 H3786 0.949 . S
C3792 C3796 1.368 . S
C3793 C3774 1.429 . S
C3793 C3787 1.429 . S
C3793 C3794 1.523 . S
C3794 C3775 1.368 . S
C3794 C3788 1.368 . S
C3794 C3793 1.523 . S
C3795 C3779 1.429 . S
C3795 C3791 1.429 . S
C3795 C3796 1.523 . S
C3796 C3780 1.368 . S
C3796 C3792 1.368 . S
C3796 C3795 1.523 . S
H3797 C3772 0.950 . S
H3798 C3774 0.950 . S
H3799 C3775 0.949 . S
H3800 C3777 0.950 . S
H3801 C3779 0.950 . S
C3802 C3803 1.349 . S
C3802 C3804 1.327 . S
C3802 H3827 0.950 . S
C3803 C3802 1.349 . S
C3803 C3819 1.349 . S
C3804 C3802 1.327 . S
C3804 C3823 1.429 . S
C3804 H3828 0.950 . S
C3805 C3822 1.574 . S
C3805 C3824 1.368 . S
C3805 H3829 0.949 . S
H3806 C3810 0.949 . S
C3807 C3808 1.349 . S
C3807 C3809 1.327 . S
C3807 H3830 0.950 . S
C3808 C3807 1.349 . S
C3808 C3820 1.349 . S
C3809 C3807 1.327 . S
C3809 C3825 1.429 . S
C3809 H3831 0.950 . S
C3810 H3806 0.949 . S
C3810 C3818 1.574 . S
C3810 C3826 1.368 . S
H3811 C3819 0.950 . S
H3812 C3817 0.950 . S
H3813 C3818 0.949 . S
H3814 C3820 0.950 . S
H3815 C3821 0.950 . S
H3816 C3822 0.949 . S
C3817 H3812 0.950 . S
C3817 C3819 1.327 . S
C3817 C3823 1.429 . S
C3818 C3810 1.574 . S
C3818 H3813 0.949 . S
C3818 C3824 1.368 . S
C3819 C3803 1.349 . S
C3819 H3811 0.950 . S
C3819 C3817 1.327 . S
C3820 C3808 1.349 . S
C3820 H3814 0.950 . S
C3820 C3821 1.327 . S
C3821 H3815 0.950 . S
C3821 C3820 1.327 . S
C3821 C3825 1.429 . S
C3822 C3805 1.574 . S
C3822 H3816 0.949 . S
C3822 C3826 1.368 . S
C3823 C3804 1.429 . S
C3823 C3817 1.429 . S
C3823 C3824 1.523 . S
C3824 C3805 1.368 . S
C3824 C3818 1.368 . S
C3824 C3823 1.523 . S
C3825 C3809 1.429 . S
C3825 C3821 1.429 . S
C3825 C3826 1.523 . S
C3826 C3810 1.368 . S
C3826 C3822 1.368 . S
C3826 C3825 1.523 . S
H3827 C3802 0.950 . S
H3828 C3804 0.950 . S
H3829 C3805 0.949 . S
H3830 C3807 0.950 . S
H3831 C3809 0.950 . S
C953 C101 1.910 . S
C958 C325 1.845 . S
C983 C57 1.917 . S
C988 C376 1.920 . S
C1013 C70 1.215 . S
C1018 C405 1.189 . S
C1048 C449 1.469 . S
C1043 C82 1.504 . S
C1073 C23 1.370 . S
C1078 C489 1.335 . S
C1108 C525 1.261 . S
C1103 C29 1.291 . S
C1138 C575 1.646 . S
C1133 C49 1.619 . S
C1163 C10 2.093 . S
C1168 C605 2.047 . S
C1198 C335 1.690 . S
C1193 C218 1.712 . S
C1223 C226 0.470 . S
C1228 C378 0.543 . S
C1258 C415 1.123 . S
C1253 C251 1.117 . S
C1288 C445 1.148 . S
C1283 C159 1.171 . S
C1313 C211 1.233 . S
C1318 C485 1.207 . S
C1348 C535 0.789 . S
C1343 C225 0.789 . S
C1378 C569 0.700 . S
C1373 C252 0.690 . S
C1408 C615 1.677 . S
C1403 C166 1.699 . S
C1438 C329 1.058 . S
C1433 C147 1.094 . S
C1463 C263 1.569 . S
C1468 C655 1.581 . S
C1498 C689 1.428 . S
C1493 C309 1.468 . S
C1528 C725 0.785 . S
C1523 C291 0.788 . S
C1553 C108 1.345 . S
C1558 C609 1.297 . S
C1583 C121 1.533 . S
C1588 C409 1.488 . S
C1613 C302 1.487 . S
C1618 C775 1.497 . S
C1648 C794 0.276 . S
C1643 C276 0.155 . S
C1678 C336 2.172 1_565 S
C1673 C55 2.183 . S
C1708 C805 2.321 . S
C1703 C96 2.328 . S
C1733 C88 1.700 . S
C1738 C416 1.691 . S
C1763 C75 1.701 . S
C1768 C778 1.673 . S
C1798 C498 1.529 . S
C1793 C4 1.556 . S
C1823 C44 1.749 . S
C1828 C696 1.739 . S
C1858 C554 2.008 1_566 S
C1853 C31 2.008 . S
C1888 C856 2.333 . S
C1883 C18 2.350 . S
C1918 C314 2.032 1_556 S
C1913 C133 2.062 . S
C1948 C809 0.628 . S
C1943 C296 0.618 . S
C1973 C107 1.443 . S
C1978 C394 1.428 . S
C2003 C264 1.608 . S
C2008 C776 1.600 . S
C2033 C140 1.671 . S
C2038 C496 1.662 . S
C2068 C674 1.117 . S
C2063 C289 1.130 . S
C2093 C114 0.903 . S
C2098 C578 0.892 . S
C2123 C265 2.052 . S
C2128 C834 2.023 . S
C2153 C179 1.076 . S
C2158 C338 1.056 . S
C2183 C161 1.917 . S
C2188 C634 1.902 . S
C2213 C244 1.534 . S
C2218 C538 1.511 . S
C2243 C224 1.140 . S
C2248 C736 1.126 . S
C2278 C858 1.376 . S
C2273 C257 1.405 . S
C2303 C199 1.601 . S
C2308 C418 1.573 . S
C2338 C434 1.819 . S
C2333 C237 1.833 . S
C2368 C375 0.461 . S
C2363 C185 0.433 . S
C2393 C69 1.892 . S
C2398 C885 1.849 . S
C2428 C816 1.920 . S
C2423 C83 1.917 . S
C2453 C94 1.217 . S
C2458 C925 1.192 . S
C2483 C56 1.498 1_655 S
C2488 C769 1.469 . S
C2513 C42 1.382 . S
C2518 C649 1.344 . S
C2548 C685 1.261 . S
C2543 C3 1.291 . S
C2578 C735 1.656 . S
C2573 C16 1.628 . S
C2608 C845 2.046 . S
C2603 C36 2.093 . S
C2638 C895 1.690 . S
C2633 C238 1.713 . S
C2663 C174 0.469 . S
C2668 C818 0.542 . S
C2698 C935 1.123 . S
C2693 C186 1.117 . S
C2728 C765 1.147 . S
C2723 C198 1.169 . S
C2758 C645 1.208 . S
C2753 C239 1.234 . S
C2783 C173 0.788 . S
C2788 C695 0.789 . S
C2818 C729 0.702 . S
C2813 C187 0.692 . S
C2843 C205 1.698 . S
C2848 C855 1.676 . S
C2878 C889 1.057 . S
C2873 C290 1.093 . S
C2903 C122 1.571 . S
C2908 C495 1.582 . S
C2938 C529 1.432 . S
C2933 C134 1.471 1_565 S
C2968 C565 0.785 . S
C2963 C148 0.789 . S
C2998 C849 1.294 . S
C2993 C283 1.342 . S
C3023 C270 1.531 . S
C3028 C929 1.486 . S
C3058 C455 1.496 . S
C3053 C135 1.486 . S
C3088 C354 0.276 . S
C3083 C109 0.155 . S
C3113 C81 2.183 . S
C3118 C896 2.172 . S
C3148 C365 2.320 . S
C3143 C68 2.321 . S
C3173 C62 1.700 . S
C3178 C936 1.691 . S
C3203 C95 1.700 . S
C3208 C458 1.665 . S
C3233 C30 1.556 . S
C3238 C658 1.530 . S
C3268 C536 1.727 . S
C3263 C17 1.740 . S
C3293 C5 2.009 . S
C3298 C714 2.008 . S
C3323 C43 2.346 . S
C3328 C616 2.323 . S
C3358 C874 2.032 . S
C3353 C304 2.062 . S
C3383 C153 0.616 . S
C3388 C369 0.619 . S
C3418 C914 1.429 1_656 S
C3413 C278 1.444 . S
C3443 C127 1.607 . S
C3448 C456 1.599 . S
C3473 C303 1.667 . S
C3478 C656 1.657 . S
C3508 C514 1.115 . S
C3503 C146 1.134 . S
C3533 C277 0.899 . S
C3538 C738 0.889 . S
C3568 C594 2.021 . S
C3563 C120 2.049 . S
C3598 C898 1.056 . S
C3593 C231 1.076 . S
C3628 C474 1.902 1_665 S
C3623 C200 1.917 . S
C3653 C212 1.535 . S
C3658 C698 1.513 . S
C3688 C576 1.126 . S
C3683 C172 1.139 . S
C3713 C192 1.404 . S
C3718 C618 1.375 . S
C3743 C160 1.601 . S
C3748 C938 1.573 . S
C3778 C754 1.821 . S
C3773 C213 1.835 . S
C3808 C815 0.463 . S
C3803 C250 0.435 . S
