# Generated by pormake.
# Topology gar, (4,6)-cn, num edge types: 1
# Building blocks:
#     Node 0, Type 0, BuildingBlock: QUQFOY_clean_sbu_1, # of connection points: 4
#     Node 1, Type 0, BuildingBlock: QUQFOY_clean_sbu_1, # of connection points: 4
#     Node 2, Type 0, BuildingBlock: QUQFOY_clean_sbu_1, # of connection points: 4
#     Node 3, Type 0, BuildingBlock: QUQFOY_clean_sbu_1, # of connection points: 4
#     Node 4, Type 0, BuildingBlock: QUQFOY_clean_sbu_1, # of connection points: 4
#     Node 5, Type 0, BuildingBlock: QUQFOY_clean_sbu_1, # of connection points: 4
#     Node 6, Type 0, BuildingBlock: QUQFOY_clean_sbu_1, # of connection points: 4
#     Node 7, Type 0, BuildingBlock: QUQFOY_clean_sbu_1, # of connection points: 4
#     Node 8, Type 0, BuildingBlock: QUQFOY_clean_sbu_1, # of connection points: 4
#     Node 9, Type 0, BuildingBlock: QUQFOY_clean_sbu_1, # of connection points: 4
#     Node 10, Type 0, BuildingBlock: QUQFOY_clean_sbu_1, # of connection points: 4
#     Node 11, Type 0, BuildingBlock: QUQFOY_clean_sbu_1, # of connection points: 4
#     Node 12, Type 0, BuildingBlock: QUQFOY_clean_sbu_1, # of connection points: 4
#     Node 13, Type 0, BuildingBlock: QUQFOY_clean_sbu_1, # of connection points: 4
#     Node 14, Type 0, BuildingBlock: QUQFOY_clean_sbu_1, # of connection points: 4
#     Node 15, Type 0, BuildingBlock: QUQFOY_clean_sbu_1, # of connection points: 4
#     Node 16, Type 0, BuildingBlock: QUQFOY_clean_sbu_1, # of connection points: 4
#     Node 17, Type 0, BuildingBlock: QUQFOY_clean_sbu_1, # of connection points: 4
#     Node 18, Type 0, BuildingBlock: QUQFOY_clean_sbu_1, # of connection points: 4
#     Node 19, Type 0, BuildingBlock: QUQFOY_clean_sbu_1, # of connection points: 4
#     Node 20, Type 0, BuildingBlock: QUQFOY_clean_sbu_1, # of connection points: 4
#     Node 21, Type 0, BuildingBlock: QUQFOY_clean_sbu_1, # of connection points: 4
#     Node 22, Type 0, BuildingBlock: QUQFOY_clean_sbu_1, # of connection points: 4
#     Node 23, Type 0, BuildingBlock: QUQFOY_clean_sbu_1, # of connection points: 4
#     Node 24, Type 1, BuildingBlock: NUHQIS_clean_sbu_0, # of connection points: 6
#     Node 25, Type 1, BuildingBlock: NUHQIS_clean_sbu_0, # of connection points: 6
#     Node 26, Type 1, BuildingBlock: NUHQIS_clean_sbu_0, # of connection points: 6
#     Node 27, Type 1, BuildingBlock: NUHQIS_clean_sbu_0, # of connection points: 6
#     Node 28, Type 1, BuildingBlock: NUHQIS_clean_sbu_0, # of connection points: 6
#     Node 29, Type 1, BuildingBlock: NUHQIS_clean_sbu_0, # of connection points: 6
#     Node 30, Type 1, BuildingBlock: NUHQIS_clean_sbu_0, # of connection points: 6
#     Node 31, Type 1, BuildingBlock: NUHQIS_clean_sbu_0, # of connection points: 6
#     Node 32, Type 1, BuildingBlock: NUHQIS_clean_sbu_0, # of connection points: 6
#     Node 33, Type 1, BuildingBlock: NUHQIS_clean_sbu_0, # of connection points: 6
#     Node 34, Type 1, BuildingBlock: NUHQIS_clean_sbu_0, # of connection points: 6
#     Node 35, Type 1, BuildingBlock: NUHQIS_clean_sbu_0, # of connection points: 6
#     Node 36, Type 1, BuildingBlock: NUHQIS_clean_sbu_0, # of connection points: 6
#     Node 37, Type 1, BuildingBlock: NUHQIS_clean_sbu_0, # of connection points: 6
#     Node 38, Type 1, BuildingBlock: NUHQIS_clean_sbu_0, # of connection points: 6
#     Node 39, Type 1, BuildingBlock: NUHQIS_clean_sbu_0, # of connection points: 6
#     Edge 40, Type (0, 1), BuildingBlock: ZUJKAS_clean_linker_0, # of connection points: 2
#     Edge 41, Type (0, 1), BuildingBlock: ZUJKAS_clean_linker_0, # of connection points: 2
#     Edge 42, Type (0, 1), BuildingBlock: ZUJKAS_clean_linker_0, # of connection points: 2
#     Edge 43, Type (0, 1), BuildingBlock: ZUJKAS_clean_linker_0, # of connection points: 2
#     Edge 44, Type (0, 1), BuildingBlock: ZUJKAS_clean_linker_0, # of connection points: 2
#     Edge 45, Type (0, 1), BuildingBlock: ZUJKAS_clean_linker_0, # of connection points: 2
#     Edge 46, Type (0, 1), BuildingBlock: ZUJKAS_clean_linker_0, # of connection points: 2
#     Edge 47, Type (0, 1), BuildingBlock: ZUJKAS_clean_linker_0, # of connection points: 2
#     Edge 48, Type (0, 1), BuildingBlock: ZUJKAS_clean_linker_0, # of connection points: 2
#     Edge 49, Type (0, 1), BuildingBlock: ZUJKAS_clean_linker_0, # of connection points: 2
#     Edge 50, Type (0, 1), BuildingBlock: ZUJKAS_clean_linker_0, # of connection points: 2
#     Edge 51, Type (0, 1), BuildingBlock: ZUJKAS_clean_linker_0, # of connection points: 2
#     Edge 52, Type (0, 1), BuildingBlock: ZUJKAS_clean_linker_0, # of connection points: 2
#     Edge 53, Type (0, 1), BuildingBlock: ZUJKAS_clean_linker_0, # of connection points: 2
#     Edge 54, Type (0, 1), BuildingBlock: ZUJKAS_clean_linker_0, # of connection points: 2
#     Edge 55, Type (0, 1), BuildingBlock: ZUJKAS_clean_linker_0, # of connection points: 2
#     Edge 56, Type (0, 1), BuildingBlock: ZUJKAS_clean_linker_0, # of connection points: 2
#     Edge 57, Type (0, 1), BuildingBlock: ZUJKAS_clean_linker_0, # of connection points: 2
#     Edge 58, Type (0, 1), BuildingBlock: ZUJKAS_clean_linker_0, # of connection points: 2
#     Edge 59, Type (0, 1), BuildingBlock: ZUJKAS_clean_linker_0, # of connection points: 2
#     Edge 60, Type (0, 1), BuildingBlock: ZUJKAS_clean_linker_0, # of connection points: 2
#     Edge 61, Type (0, 1), BuildingBlock: ZUJKAS_clean_linker_0, # of connection points: 2
#     Edge 62, Type (0, 1), BuildingBlock: ZUJKAS_clean_linker_0, # of connection points: 2
#     Edge 63, Type (0, 1), BuildingBlock: ZUJKAS_clean_linker_0, # of connection points: 2
#     Edge 64, Type (0, 1), BuildingBlock: ZUJKAS_clean_linker_0, # of connection points: 2
#     Edge 65, Type (0, 1), BuildingBlock: ZUJKAS_clean_linker_0, # of connection points: 2
#     Edge 66, Type (0, 1), BuildingBlock: ZUJKAS_clean_linker_0, # of connection points: 2
#     Edge 67, Type (0, 1), BuildingBlock: ZUJKAS_clean_linker_0, # of connection points: 2
#     Edge 68, Type (0, 1), BuildingBlock: ZUJKAS_clean_linker_0, # of connection points: 2
#     Edge 69, Type (0, 1), BuildingBlock: ZUJKAS_clean_linker_0, # of connection points: 2
#     Edge 70, Type (0, 1), BuildingBlock: ZUJKAS_clean_linker_0, # of connection points: 2
#     Edge 71, Type (0, 1), BuildingBlock: ZUJKAS_clean_linker_0, # of connection points: 2
#     Edge 72, Type (0, 1), BuildingBlock: ZUJKAS_clean_linker_0, # of connection points: 2
#     Edge 73, Type (0, 1), BuildingBlock: ZUJKAS_clean_linker_0, # of connection points: 2
#     Edge 74, Type (0, 1), BuildingBlock: ZUJKAS_clean_linker_0, # of connection points: 2
#     Edge 75, Type (0, 1), BuildingBlock: ZUJKAS_clean_linker_0, # of connection points: 2
#     Edge 76, Type (0, 1), BuildingBlock: ZUJKAS_clean_linker_0, # of connection points: 2
#     Edge 77, Type (0, 1), BuildingBlock: ZUJKAS_clean_linker_0, # of connection points: 2
#     Edge 78, Type (0, 1), BuildingBlock: ZUJKAS_clean_linker_0, # of connection points: 2
#     Edge 79, Type (0, 1), BuildingBlock: ZUJKAS_clean_linker_0, # of connection points: 2
#     Edge 80, Type (0, 1), BuildingBlock: ZUJKAS_clean_linker_0, # of connection points: 2
#     Edge 81, Type (0, 1), BuildingBlock: ZUJKAS_clean_linker_0, # of connection points: 2
#     Edge 82, Type (0, 1), BuildingBlock: ZUJKAS_clean_linker_0, # of connection points: 2
#     Edge 83, Type (0, 1), BuildingBlock: ZUJKAS_clean_linker_0, # of connection points: 2
#     Edge 84, Type (0, 1), BuildingBlock: ZUJKAS_clean_linker_0, # of connection points: 2
#     Edge 85, Type (0, 1), BuildingBlock: ZUJKAS_clean_linker_0, # of connection points: 2
#     Edge 86, Type (0, 1), BuildingBlock: ZUJKAS_clean_linker_0, # of connection points: 2
#     Edge 87, Type (0, 1), BuildingBlock: ZUJKAS_clean_linker_0, # of connection points: 2
#     Edge 88, Type (0, 1), BuildingBlock: ZUJKAS_clean_linker_0, # of connection points: 2
#     Edge 89, Type (0, 1), BuildingBlock: ZUJKAS_clean_linker_0, # of connection points: 2
#     Edge 90, Type (0, 1), BuildingBlock: ZUJKAS_clean_linker_0, # of connection points: 2
#     Edge 91, Type (0, 1), BuildingBlock: ZUJKAS_clean_linker_0, # of connection points: 2
#     Edge 92, Type (0, 1), BuildingBlock: ZUJKAS_clean_linker_0, # of connection points: 2
#     Edge 93, Type (0, 1), BuildingBlock: ZUJKAS_clean_linker_0, # of connection points: 2
#     Edge 94, Type (0, 1), BuildingBlock: ZUJKAS_clean_linker_0, # of connection points: 2
#     Edge 95, Type (0, 1), BuildingBlock: ZUJKAS_clean_linker_0, # of connection points: 2
#     Edge 96, Type (0, 1), BuildingBlock: ZUJKAS_clean_linker_0, # of connection points: 2
#     Edge 97, Type (0, 1), BuildingBlock: ZUJKAS_clean_linker_0, # of connection points: 2
#     Edge 98, Type (0, 1), BuildingBlock: ZUJKAS_clean_linker_0, # of connection points: 2
#     Edge 99, Type (0, 1), BuildingBlock: ZUJKAS_clean_linker_0, # of connection points: 2
#     Edge 100, Type (0, 1), BuildingBlock: ZUJKAS_clean_linker_0, # of connection points: 2
#     Edge 101, Type (0, 1), BuildingBlock: ZUJKAS_clean_linker_0, # of connection points: 2
#     Edge 102, Type (0, 1), BuildingBlock: ZUJKAS_clean_linker_0, # of connection points: 2
#     Edge 103, Type (0, 1), BuildingBlock: ZUJKAS_clean_linker_0, # of connection points: 2
#     Edge 104, Type (0, 1), BuildingBlock: ZUJKAS_clean_linker_0, # of connection points: 2
#     Edge 105, Type (0, 1), BuildingBlock: ZUJKAS_clean_linker_0, # of connection points: 2
#     Edge 106, Type (0, 1), BuildingBlock: ZUJKAS_clean_linker_0, # of connection points: 2
#     Edge 107, Type (0, 1), BuildingBlock: ZUJKAS_clean_linker_0, # of connection points: 2
#     Edge 108, Type (0, 1), BuildingBlock: ZUJKAS_clean_linker_0, # of connection points: 2
#     Edge 109, Type (0, 1), BuildingBlock: ZUJKAS_clean_linker_0, # of connection points: 2
#     Edge 110, Type (0, 1), BuildingBlock: ZUJKAS_clean_linker_0, # of connection points: 2
#     Edge 111, Type (0, 1), BuildingBlock: ZUJKAS_clean_linker_0, # of connection points: 2
#     Edge 112, Type (0, 1), BuildingBlock: ZUJKAS_clean_linker_0, # of connection points: 2
#     Edge 113, Type (0, 1), BuildingBlock: ZUJKAS_clean_linker_0, # of connection points: 2
#     Edge 114, Type (0, 1), BuildingBlock: ZUJKAS_clean_linker_0, # of connection points: 2
#     Edge 115, Type (0, 1), BuildingBlock: ZUJKAS_clean_linker_0, # of connection points: 2
#     Edge 116, Type (0, 1), BuildingBlock: ZUJKAS_clean_linker_0, # of connection points: 2
#     Edge 117, Type (0, 1), BuildingBlock: ZUJKAS_clean_linker_0, # of connection points: 2
#     Edge 118, Type (0, 1), BuildingBlock: ZUJKAS_clean_linker_0, # of connection points: 2
#     Edge 119, Type (0, 1), BuildingBlock: ZUJKAS_clean_linker_0, # of connection points: 2
#     Edge 120, Type (0, 1), BuildingBlock: ZUJKAS_clean_linker_0, # of connection points: 2
#     Edge 121, Type (0, 1), BuildingBlock: ZUJKAS_clean_linker_0, # of connection points: 2
#     Edge 122, Type (0, 1), BuildingBlock: ZUJKAS_clean_linker_0, # of connection points: 2
#     Edge 123, Type (0, 1), BuildingBlock: ZUJKAS_clean_linker_0, # of connection points: 2
#     Edge 124, Type (0, 1), BuildingBlock: ZUJKAS_clean_linker_0, # of connection points: 2
#     Edge 125, Type (0, 1), BuildingBlock: ZUJKAS_clean_linker_0, # of connection points: 2
#     Edge 126, Type (0, 1), BuildingBlock: ZUJKAS_clean_linker_0, # of connection points: 2
#     Edge 127, Type (0, 1), BuildingBlock: ZUJKAS_clean_linker_0, # of connection points: 2
#     Edge 128, Type (0, 1), BuildingBlock: ZUJKAS_clean_linker_0, # of connection points: 2
#     Edge 129, Type (0, 1), BuildingBlock: ZUJKAS_clean_linker_0, # of connection points: 2
#     Edge 130, Type (0, 1), BuildingBlock: ZUJKAS_clean_linker_0, # of connection points: 2
#     Edge 131, Type (0, 1), BuildingBlock: ZUJKAS_clean_linker_0, # of connection points: 2
#     Edge 132, Type (0, 1), BuildingBlock: ZUJKAS_clean_linker_0, # of connection points: 2
#     Edge 133, Type (0, 1), BuildingBlock: ZUJKAS_clean_linker_0, # of connection points: 2
#     Edge 134, Type (0, 1), BuildingBlock: ZUJKAS_clean_linker_0, # of connection points: 2
#     Edge 135, Type (0, 1), BuildingBlock: ZUJKAS_clean_linker_0, # of connection points: 2
# Relax obj value: 0.183
# Max RMSD: 0.291
# Mean RMSD: 0.168
data_MOF--net-gar--node1-QUQFOY_clean_sbu_1--node2-NUHQIS_clean_sbu_0--edge1-ZUJKAS_clean_linker_0
_symmetry_space_group_name_H-M    P1
_symmetry_Int_Tables_number       1
_symmetry_cell_setting            triclinic
loop_
_symmetry_equiv_pos_as_xyz
'x, y, z'
_cell_length_a     74.452257
_cell_length_b     77.287976
_cell_length_c     73.872371
_cell_angle_alpha  93.460944
_cell_angle_beta   96.692527
_cell_angle_gamma 102.6673
loop_
_atom_site_label
_atom_site_type_symbol
_atom_site_fract_x
_atom_site_fract_y
_atom_site_fract_z
_atom_type_partial_charge
O0 O 0.06555 0.25625 0.42379 0.0
Cd1 Cd 0.06863 0.27386 0.40199 0.0
Cd2 Cd 0.05103 0.29508 0.4382 0.0
O3 O 0.05601 0.2693 0.44781 0.0
O4 O 0.0827 0.2633 0.38218 0.0
O5 O 0.09529 0.28854 0.39794 0.0
C6 C 0.09696 0.27656 0.38564 0.0
C7 C 0.05382 0.32517 0.45526 0.0
C8 C 0.06073 0.25565 0.44003 0.0
C9 C 0.02932 0.28538 0.39699 0.0
O10 O 0.03163 0.29109 0.41398 0.0
O11 O 0.04211 0.27926 0.39001 0.0
O12 O 0.04078 0.31141 0.45678 0.0
O13 O 0.06609 0.32185 0.44532 0.0
O14 O 0.02889 0.76269 0.64975 0.0
Cd15 Cd 0.02932 0.78343 0.67088 0.0
Cd16 Cd 0.0508 0.80447 0.63858 0.0
O17 O 0.04221 0.77625 0.62706 0.0
O18 O 1.01162 0.77379 0.69026 0.0
O19 O 1.00641 0.79501 0.67387 0.0
C20 C 1.00112 0.78469 0.68633 0.0
C21 C 0.04974 0.83279 0.62315 0.0
C22 C 0.03485 0.76175 0.63406 0.0
C23 C 0.07271 0.80099 0.67764 0.0
O24 O 0.07188 0.80617 0.66139 0.0
O25 O 0.05776 0.79336 0.68393 0.0
O26 O 0.0618 0.82341 0.62065 0.0
O27 O 0.03774 0.82601 0.63361 0.0
O28 O 0.59529 0.78558 0.91636 0.0
Cd29 Cd 0.57713 0.78269 0.93782 0.0
Cd30 Cd 0.5551 0.80024 0.90254 0.0
O31 O 0.58029 0.7954 0.89245 0.0
O32 O 0.58632 0.76627 0.95753 0.0
O33 O 0.56079 0.75643 0.93908 0.0
C34 C 0.57248 0.75297 0.95196 0.0
C35 C 0.52409 0.7963 0.88438 0.0
C36 C 0.59472 0.79037 0.89986 0.0
C37 C 0.56568 0.82134 0.94245 0.0
O38 O 0.55953 0.8195 0.92532 0.0
O39 O 0.57202 0.80859 0.94982 0.0
O40 O 0.5379 0.8092 0.8826 0.0
O41 O 0.5279 0.78496 0.89555 0.0
O42 O 0.53865 0.25452 0.14919 0.0
Cd43 Cd 0.53926 0.27514 0.17049 0.0
Cd44 Cd 0.56072 0.29659 0.13889 0.0
O45 O 0.55193 0.26847 0.12676 0.0
O46 O 0.52069 0.26482 0.18884 0.0
O47 O 0.51706 0.28758 0.17414 0.0
C48 C 0.51092 0.27648 0.18564 0.0
C49 C 0.55913 0.32543 0.12452 0.0
C50 C 0.54458 0.2538 0.13349 0.0
C51 C 0.58275 0.29245 0.17766 0.0
O52 O 0.58203 0.29785 0.16149 0.0
O53 O 0.56771 0.28475 0.1838 0.0
O54 O 0.57038 0.31565 0.12041 0.0
O55 O 0.54823 0.3188 0.13603 0.0
O56 O 0.10794 0.81928 0.157 0.0
Cd57 Cd 0.11074 0.84214 0.17411 0.0
Cd58 Cd 0.13018 0.85484 0.1469 0.0
O59 O 0.12529 0.82907 0.13584 0.0
O60 O 0.09657 0.83256 0.19387 0.0
O61 O 0.08815 0.85222 0.17622 0.0
C62 C 0.08498 0.84219 0.18935 0.0
C63 C 0.11194 0.87286 0.13461 0.0
C64 C 0.11494 0.81642 0.14252 0.0
C65 C 0.15149 0.86124 0.1837 0.0
O66 O 0.15255 0.86323 0.16688 0.0
O67 O 0.13622 0.85377 0.18891 0.0
O68 O 0.12706 0.87166 0.12809 0.0
O69 O 0.10773 0.86429 0.14856 0.0
O70 O 0.56728 0.73899 0.39801 0.0
Cd71 Cd 0.54924 0.74251 0.41611 0.0
Cd72 Cd 0.52402 0.74112 0.38409 0.0
O73 O 0.54668 0.73578 0.37333 0.0
O74 O 0.56053 0.73723 0.44009 0.0
O75 O 0.53375 0.72129 0.42547 0.0
C76 C 0.54641 0.72404 0.43954 0.0
C77 C 0.49591 0.72706 0.36646 0.0
C78 C 0.56291 0.73582 0.38083 0.0
C79 C 0.53322 0.77426 0.41092 0.0
O80 O 0.52444 0.76626 0.39588 0.0
O81 O 0.54388 0.76698 0.42097 0.0
O82 O 0.50712 0.74034 0.36116 0.0
O83 O 0.50059 0.7216 0.38211 0.0
O84 O 0.59511 0.31555 0.67496 0.0
Cd85 Cd 0.60265 0.34099 0.68815 0.0
Cd86 Cd 0.61952 0.34728 0.65838 0.0
O87 O 0.6096 0.32082 0.65084 0.0
O88 O 0.58901 0.3381 0.7097 0.0
O89 O 0.58372 0.35609 0.68862 0.0
C90 C 0.57982 0.3493 0.7036 0.0
C91 C 0.60633 0.36664 0.64198 0.0
C92 C 0.59949 0.31011 0.65987 0.0
C93 C 0.6445 0.35505 0.69312 0.0
O94 O 0.64395 0.35472 0.67585 0.0
O95 O 0.62967 0.35053 0.70032 0.0
O96 O 0.61929 0.36007 0.63598 0.0
O97 O 0.60146 0.36268 0.65772 0.0
O98 O 0.03658 0.20735 0.91199 0.0
Cd99 Cd 0.03077 0.22097 0.88984 0.0
Cd100 Cd 1.01284 0.23669 0.91352 0.0
O101 O 0.02218 0.22023 0.93146 0.0
O102 O 0.04936 0.21875 0.87309 0.0
O103 O 0.04762 0.24434 0.88717 0.0
C104 C 0.05562 0.23574 0.87628 0.0
C105 C 1.02113 0.26715 0.92177 0.0
C106 C 0.03193 0.2092 0.92788 0.0
C107 C 0.99026 0.21783 0.87863 0.0
O108 O 0.99034 0.22665 0.89376 0.0
O109 O 1.00509 0.21405 0.87439 0.0
O110 O 1.00759 0.25705 0.92824 0.0
O111 O 0.02986 0.25988 0.91049 0.0
O112 O 0.48103 0.10835 0.28682 0.0
Cd113 Cd 0.46082 0.09817 0.3026 0.0
Cd114 Cd 0.49009 0.09268 0.32584 0.0
O115 O 0.50451 0.1039 0.30565 0.0
O116 O 0.45168 0.11308 0.32122 0.0
O117 O 0.43818 0.10574 0.29265 0.0
C118 C 0.43818 0.11339 0.30864 0.0
C119 C 0.50451 0.10092 0.35587 0.0
C120 C 0.4983 0.10925 0.29077 0.0
C121 C 0.45993 0.06053 0.3104 0.0
O122 O 0.47499 0.06658 0.32103 0.0
O123 O 0.45213 0.071 0.30146 0.0
O124 O 0.51045 0.09061 0.34483 0.0
O125 O 0.49026 0.10688 0.34979 0.0
O126 O 0.33242 0.16626 0.56665 0.0
Cd127 Cd 0.33076 0.1446 0.54654 0.0
Cd128 Cd 0.31329 0.17482 0.52413 0.0
O129 O 0.32181 0.18726 0.55189 0.0
O130 O 0.34583 0.12668 0.5575 0.0
O131 O 0.35419 0.14119 0.5344 0.0
C132 C 0.3576 0.12998 0.54591 0.0
C133 C 0.31559 0.1899 0.49532 0.0
C134 C 0.32805 0.18149 0.56689 0.0
C135 C 0.2881 0.13713 0.5298 0.0
O136 O 0.29077 0.1526 0.52376 0.0
O137 O 0.30184 0.13149 0.53777 0.0
O138 O 0.30392 0.19212 0.50639 0.0
O139 O 0.32652 0.17978 0.50069 0.0
O140 O 0.19934 0.05106 0.81648 0.0
Cd141 Cd 0.21632 0.056 0.84125 0.0
Cd142 Cd 0.18698 0.06246 0.85447 0.0
O143 O 0.17545 0.0581 0.82759 0.0
O144 O 0.23815 0.04619 0.83738 0.0
O145 O 0.21892 0.03632 0.85712 0.0
C146 C 0.23355 0.03546 0.84962 0.0
C147 C 0.17102 0.04457 0.87405 0.0
C148 C 0.18282 0.05319 0.81411 0.0
C149 C 0.21986 0.09252 0.85983 0.0
O150 O 0.20333 0.08732 0.86335 0.0
O151 O 0.22736 0.08201 0.85106 0.0
O152 O 0.16537 0.0581 0.86816 0.0
O153 O 0.18633 0.04161 0.86937 0.0
O154 O 0.30689 0.87201 0.07663 0.0
Cd155 Cd 0.30618 0.88895 0.05614 0.0
Cd156 Cd 0.32084 0.86372 0.03909 0.0
O157 O 0.31746 0.85096 0.06277 0.0
O158 O 0.29392 0.90672 0.06694 0.0
O159 O 0.28223 0.89048 0.04092 0.0
C160 C 0.28107 0.90271 0.05315 0.0
C161 C 0.30776 0.85051 0.00993 0.0
C162 C 0.31189 0.85732 0.07683 0.0
C163 C 0.34454 0.90059 0.04503 0.0
O164 O 0.34378 0.88445 0.03985 0.0
O165 O 0.33085 0.90495 0.05135 0.0
O166 O 0.32195 0.84614 0.01862 0.0
O167 O 0.30038 0.86185 0.01825 0.0
O168 O 0.28577 0.40396 0.07557 0.0
Cd169 Cd 0.28501 0.42472 0.05717 0.0
Cd170 Cd 0.30116 0.39198 0.03511 0.0
O171 O 0.29416 0.3814 0.06078 0.0
O172 O 0.27096 0.44313 0.06789 0.0
O173 O 0.25928 0.42643 0.04271 0.0
C174 C 0.25731 0.43849 0.05476 0.0
C175 C 0.29884 0.37532 1.00489 0.0
C176 C 0.28937 0.38835 0.07533 0.0
C177 C 0.32549 0.43173 0.04439 0.0
O178 O 0.32257 0.41523 0.03876 0.0
O179 O 0.31251 0.43803 0.05073 0.0
O180 O 0.31099 0.37427 0.01851 0.0
O181 O 0.28716 0.38478 1.00851 0.0
O182 O 0.81433 0.19845 0.06697 0.0
Cd183 Cd 0.8085 0.17987 0.04442 0.0
Cd184 Cd 0.78918 0.20349 0.03136 0.0
O185 O 0.79785 0.21725 0.05681 0.0
O186 O 0.82488 0.16347 0.05116 0.0
O187 O 0.827 0.1785 0.02671 0.0
C188 C 0.83273 0.16721 0.03681 0.0
C189 C 0.79556 0.21591 1.00425 0.0
C190 C 0.80832 0.21247 0.06948 0.0
C191 C 0.76711 0.16667 0.03341 0.0
O192 O 0.76668 0.18236 0.02953 0.0
O193 O 0.7824 0.16292 0.03932 0.0
O194 O 0.78265 0.21966 0.01297 0.0
O195 O 0.80541 0.20556 0.01137 0.0
O196 O 0.11258 0.45075 0.21652 0.0
Cd197 Cd 0.13256 0.46651 0.23578 0.0
Cd198 Cd 0.10463 0.46932 0.25428 0.0
O199 O 0.08952 0.45327 0.23191 0.0
O200 O 0.15688 0.46011 0.23516 0.0
O201 O 0.14111 0.45706 0.25892 0.0
C202 C 0.15581 0.45581 0.25169 0.0
C203 C 0.09661 0.46249 0.28291 0.0
C204 C 0.09533 0.44718 0.2179 0.0
C205 C 0.12799 0.5033 0.24364 0.0
O206 O 0.11472 0.49619 0.2521 0.0
O207 O 0.13687 0.49364 0.23548 0.0
O208 O 0.08605 0.46901 0.27146 0.0
O209 O 0.11175 0.45941 0.27794 0.0
O210 O 0.78176 0.90541 0.57701 0.0
Cd211 Cd 0.78057 0.92598 0.55852 0.0
Cd212 Cd 0.79788 0.89294 0.53667 0.0
O213 O 0.79116 0.88305 0.5629 0.0
O214 O 0.76653 0.94436 0.5692 0.0
O215 O 0.75491 0.92765 0.544 0.0
C216 C 0.75296 0.93977 0.55599 0.0
C217 C 0.79671 0.87543 0.50708 0.0
C218 C 0.78591 0.89004 0.5772 0.0
C219 C 0.82057 0.93363 0.5448 0.0
O220 O 0.81802 0.91716 0.53917 0.0
O221 O 0.8077 0.93948 0.55183 0.0
O222 O 0.80923 0.8758 0.52084 0.0
O223 O 0.78404 0.88386 0.51026 0.0
O224 O 0.8978 0.03345 0.18698 0.0
Cd225 Cd 0.88372 0.025 0.20829 0.0
Cd226 Cd 0.91799 0.02746 0.22747 0.0
O227 O 0.92482 0.04024 0.20472 0.0
O228 O 0.86221 0.03601 0.21026 0.0
O229 O 0.88789 0.042 0.23034 0.0
C230 C 0.87166 0.04475 0.22509 0.0
C231 C 0.93794 0.0386 0.25445 0.0
C232 C 0.91508 0.04045 0.18948 0.0
C233 C 0.89063 0.99111 0.21961 0.0
O234 O 0.90685 1.00025 0.22561 0.0
O235 O 0.87832 0.99855 0.21234 0.0
O236 O 0.94282 0.02927 0.24167 0.0
O237 O 0.92158 0.04179 0.25192 0.0
O238 O 0.30978 0.69375 0.56725 0.0
Cd239 Cd 0.30376 0.67576 0.54435 0.0
Cd240 Cd 0.2892 0.70184 0.52973 0.0
O241 O 0.29923 0.71559 0.55515 0.0
O242 O 0.31812 0.65758 0.55063 0.0
O243 O 0.32256 0.67374 0.52719 0.0
C244 C 0.32681 0.66143 0.53679 0.0
C245 C 0.29598 0.71405 0.50253 0.0
C246 C 0.30679 0.70931 0.56883 0.0
C247 C 0.26275 0.6668 0.5316 0.0
O248 O 0.26466 0.68279 0.52757 0.0
O249 O 0.27676 0.66123 0.53817 0.0
O250 O 0.28441 0.71931 0.51207 0.0
O251 O 0.30439 0.70229 0.5089 0.0
O252 O 0.39919 0.53829 0.69707 0.0
Cd253 Cd 0.38005 0.52792 0.71372 0.0
Cd254 Cd 0.40993 0.52955 0.73929 0.0
O255 O 0.42265 0.54287 0.7193 0.0
O256 O 0.358 0.53861 0.71108 0.0
O257 O 0.37917 0.54341 0.73575 0.0
C258 C 0.3642 0.54652 0.72725 0.0
C259 C 0.42347 0.53949 0.76931 0.0
C260 C 0.41628 0.5444 0.70291 0.0
C261 C 0.38456 0.49333 0.72545 0.0
O262 O 0.39924 0.50242 0.73508 0.0
O263 O 0.37395 0.50097 0.71571 0.0
O264 O 0.43146 0.53103 0.75836 0.0
O265 O 0.40762 0.54254 0.76319 0.0
O266 O 0.64065 0.94977 0.71623 0.0
Cd267 Cd 0.6567 0.96069 0.74052 0.0
Cd268 Cd 0.62427 0.96441 0.75185 0.0
O269 O 0.61418 0.9502 0.72681 0.0
O270 O 0.67758 0.94909 0.74756 0.0
O271 O 0.65333 0.94767 0.76269 0.0
C272 C 0.66907 0.94368 0.76119 0.0
C273 C 0.60729 0.95781 0.77612 0.0
C274 C 0.623 0.94612 0.71407 0.0
C275 C 0.65478 0.99775 0.75035 0.0
O276 O 0.63843 0.9909 0.75355 0.0
O277 O 0.66496 0.98791 0.74472 0.0
O278 O 0.60136 0.96589 0.76273 0.0
O279 O 0.62263 0.95281 0.77541 0.0
O280 O 0.83809 0.66861 0.0694 0.0
Cd281 Cd 0.83681 0.64664 0.04953 0.0
Cd282 Cd 0.81703 0.67666 0.02699 0.0
O283 O 0.82556 0.68873 0.05489 0.0
O284 O 0.85218 0.62902 0.06079 0.0
O285 O 0.86024 0.64306 0.03734 0.0
C286 C 0.86378 0.63204 0.04901 0.0
C287 C 0.81713 0.69264 0.99859 0.0
C288 C 0.83277 0.68342 0.06973 0.0
C289 C 0.79396 0.63787 0.03271 0.0
O290 O 0.79588 0.6533 0.02666 0.0
O291 O 0.80808 0.63287 0.04078 0.0
O292 O 0.80532 0.69322 0.00997 0.0
O293 O 0.82941 0.68369 1.00341 0.0
O294 O 0.99701 0.61116 0.78041 0.0
Cd295 Cd 0.97357 0.59956 0.79137 0.0
Cd296 Cd 0.99921 0.59143 0.81842 0.0
O297 O 1.01688 0.60338 0.80106 0.0
O298 O 0.95311 0.60799 0.77777 0.0
O299 O 0.96106 0.61357 0.80772 0.0
C300 C 0.95014 0.61483 0.79316 0.0
C301 C 1.01152 0.59718 0.84924 0.0
C302 C 1.01356 0.61085 0.7866 0.0
C303 C 0.96936 0.56114 0.79824 0.0
O304 O 0.98267 0.56621 0.81119 0.0
O305 O 0.96416 0.57234 0.78817 0.0
O306 O 1.01752 0.58695 0.83819 0.0
O307 O 0.99818 0.60424 0.84283 0.0
O308 O 0.80078 0.37561 0.57844 0.0
Cd309 Cd 0.79964 0.39363 0.55903 0.0
Cd310 Cd 0.81537 0.36877 0.54039 0.0
O311 O 0.8133 0.35616 0.56421 0.0
O312 O 0.78837 0.41124 0.57167 0.0
O313 O 0.77527 0.39627 0.54536 0.0
C314 C 0.77502 0.40812 0.55835 0.0
C315 C 0.80448 0.35355 0.51154 0.0
C316 C 0.80699 0.36153 0.57827 0.0
C317 C 0.83764 0.4064 0.54706 0.0
O318 O 0.83707 0.39056 0.54092 0.0
O319 O 0.82412 0.41009 0.5543 0.0
O320 O 0.81945 0.35152 0.52101 0.0
O321 O 0.79513 0.36374 0.51885 0.0
O322 O 0.66591 0.54285 0.31075 0.0
Cd323 Cd 0.69077 0.54687 0.32778 0.0
Cd324 Cd 0.6723 0.56176 0.35017 0.0
O325 O 0.6521 0.55854 0.32812 0.0
O326 O 0.7053 0.53281 0.3147 0.0
O327 O 0.69718 0.52718 0.342 0.0
C328 C 0.70561 0.52338 0.32848 0.0
C329 C 0.66277 0.5477 0.37524 0.0
C330 C 0.65202 0.54931 0.31332 0.0
C331 C 0.70747 0.5848 0.34318 0.0
O332 O 0.69413 0.58356 0.35262 0.0
O333 O 0.70829 0.57183 0.33214 0.0
O334 O 0.65938 0.56295 0.37185 0.0
O335 O 0.67249 0.54074 0.3647 0.0
Tb336 Tb 0.03109 0.02694 0.02167 0.0
Eu337 Eu 0.07315 0.03597 0.04539 0.0
C338 C 0.06359 0.01526 1.00481 0.0
C339 C 0.046 0.99797 0.04298 0.0
C340 C 0.98551 0.03548 1.00627 0.0
C341 C 0.96395 0.05037 0.9898 0.0
C342 C 0.97558 0.0384 0.98985 0.0
C343 C 0.98364 0.04473 0.02266 0.0
C344 C 0.97191 0.05655 0.02265 0.0
C345 C 0.96196 0.05961 1.00621 0.0
C346 C 0.99838 0.02344 1.00609 0.0
O347 O 0.03177 0.04651 0.04415 0.0
O348 O 0.05255 0.03794 0.06496 0.0
O349 O 0.06749 0.0621 0.03783 0.0
O350 O 0.04769 0.0504 0.01183 0.0
C351 C 0.03844 0.04528 0.06109 0.0
O352 O 0.09205 0.03273 0.06914 0.0
O353 O 0.1025 0.04927 0.04825 0.0
O354 O 0.07565 0.02675 0.01659 0.0
O355 O 0.04564 1.0114 1.00569 0.0
O356 O 0.03191 1.00546 0.03946 0.0
O357 O 0.06307 1.00644 0.04206 0.0
C358 C 0.05852 0.06408 0.02202 0.0
O359 O 1.01304 0.02879 0.99805 0.0
O360 O 1.00252 0.017 0.02154 0.0
C361 C 0.12086 0.03068 0.06041 0.0
C362 C 0.14776 1.01087 0.05538 0.0
C363 C 0.15263 0.02737 0.06603 0.0
C364 C 0.13926 0.0372 0.06852 0.0
C365 C 0.11595 0.0143 0.04972 0.0
C366 C 0.12924 1.00447 0.04727 0.0
C367 C 0.10675 0.041 0.06246 0.0
H368 H 0.95672 0.05257 0.97686 0.0
H369 H 0.97699 0.03155 0.97704 0.0
H370 H 0.99125 0.04287 0.03554 0.0
H371 H 0.97052 0.06316 0.03559 0.0
H372 H 0.16682 0.0328 0.07227 0.0
H373 H 0.14329 0.04991 0.07666 0.0
H374 H 0.10179 1.00911 0.04326 0.0
H375 H 0.12492 0.99172 0.03922 0.0
Tb376 Tb 0.32689 0.79311 0.29532 0.0
Eu377 Eu 0.29721 0.7564 0.27523 0.0
C378 C 0.28562 0.79337 0.28211 0.0
C379 C 0.30393 0.76541 0.319 0.0
C380 C 0.35807 0.83861 0.30739 0.0
C381 C 0.3552 0.86658 0.29533 0.0
C382 C 0.34745 0.84877 0.29761 0.0
C383 C 0.37659 0.84629 0.31443 0.0
C384 C 0.38437 0.86401 0.31206 0.0
C385 C 0.37372 0.87441 0.30265 0.0
C386 C 0.35011 0.8202 0.31096 0.0
O387 O 0.33836 0.77025 0.30076 0.0
O388 O 0.32619 0.75271 0.2744 0.0
O389 O 0.30584 0.77255 0.25236 0.0
O390 O 0.33089 0.7942 0.2665 0.0
C391 C 0.33886 0.75727 0.28873 0.0
O392 O 0.28941 0.72758 0.26978 0.0
O393 O 0.27224 0.74372 0.25639 0.0
O394 O 0.28065 0.7761 0.28326 0.0
O395 O 0.30306 0.80174 0.28277 0.0
O396 O 0.31119 0.78215 0.31677 0.0
O397 O 0.29953 0.75292 0.30533 0.0
C398 C 0.32 0.78591 0.25175 0.0
O399 O 0.33258 0.81634 0.31315 0.0
O400 O 0.35458 0.8077 0.30096 0.0
C401 C 0.25781 0.71365 0.25963 0.0
C402 C 0.22864 0.6834 0.25904 0.0
C403 C 0.23174 0.69184 0.243 0.0
C404 C 0.24619 0.70681 0.24331 0.0
C405 C 0.25423 0.70586 0.27591 0.0
C406 C 0.23968 0.69084 0.27562 0.0
C407 C 0.27445 0.72769 0.25871 0.0
H408 H 0.34673 0.87423 0.28787 0.0
H409 H 0.33313 0.84303 0.29194 0.0
H410 H 0.38497 0.83864 0.32203 0.0
H411 H 0.39859 0.86972 0.31806 0.0
H412 H 0.22327 0.68656 0.23008 0.0
H413 H 0.24873 0.71268 0.23062 0.0
H414 H 0.26306 0.71097 0.28868 0.0
H415 H 0.23765 0.68456 0.28818 0.0
Tb416 Tb 0.54526 0.02153 0.53206 0.0
Eu417 Eu 0.56617 0.04947 0.5668 0.0
C418 C 0.54784 1.00814 0.57198 0.0
C419 C 0.52313 0.04912 0.55074 0.0
C420 C 0.52739 0.98315 0.4969 0.0
C421 C 0.51057 0.95703 0.47722 0.0
C422 C 0.51195 0.97444 0.48446 0.0
C423 C 0.54136 0.97424 0.50228 0.0
C424 C 0.54006 0.95687 0.49496 0.0
C425 C 0.52469 0.9481 0.48227 0.0
C426 C 0.52872 1.00153 0.50405 0.0
O427 O 0.5628 0.04412 0.52176 0.0
O428 O 0.56117 0.06559 0.54331 0.0
O429 O 0.58849 0.03555 0.5577 0.0
O430 O 0.57084 1.01153 0.53895 0.0
C431 C 0.56299 0.06072 0.52655 0.0
O432 O 0.58962 0.07137 0.57735 0.0
O433 O 0.56984 0.06001 0.59528 0.0
O434 O 0.55705 0.02395 0.5792 0.0
O435 O 0.54173 1.00461 0.55445 0.0
O436 O 0.52473 0.03807 0.53685 0.0
O437 O 0.53662 0.05388 0.56461 0.0
C438 C 0.58698 0.01998 0.54838 0.0
O439 O 0.52129 1.00347 0.51894 0.0
O440 O 0.54491 1.01238 0.50471 0.0
C441 C 0.58202 0.09077 0.59923 0.0
C442 C 0.57898 0.12541 0.60978 0.0
C443 C 0.59445 0.1191 0.61699 0.0
C444 C 0.59593 0.10187 0.61174 0.0
C445 C 0.56652 0.09692 0.59207 0.0
C446 C 0.56498 0.1141 0.59735 0.0
C447 C 0.58384 0.07294 0.59328 0.0
H448 H 0.49841 0.95055 0.46774 0.0
H449 H 0.50098 0.98113 0.48031 0.0
H450 H 0.55335 0.98078 0.51196 0.0
H451 H 0.55128 0.95046 0.49897 0.0
H452 H 0.60561 0.1276 0.62636 0.0
H453 H 0.60803 0.09729 0.61727 0.0
H454 H 0.55567 0.08846 0.58232 0.0
H455 H 0.55282 0.11851 0.59172 0.0
Tb456 Tb 0.29543 0.28617 0.77641 0.0
Eu457 Eu 0.33665 0.28213 0.79166 0.0
C458 C 0.32997 0.31447 0.76964 0.0
C459 C 0.31798 0.2674 0.74974 0.0
C460 C 0.24762 0.29229 0.77429 0.0
C461 C 0.21613 0.29629 0.77275 0.0
C462 C 0.23168 0.29531 0.76417 0.0
C463 C 0.24811 0.29063 0.79312 0.0
C464 C 0.2326 0.2916 0.8017 0.0
C465 C 0.21637 0.29426 0.79156 0.0
C466 C 0.26367 0.29073 0.7652 0.0
O467 O 0.29077 0.2663 0.79584 0.0
O468 O 0.3177 0.25641 0.79646 0.0
O469 O 0.32477 0.28954 0.81737 0.0
O470 O 0.30184 0.30181 0.80377 0.0
C471 C 0.3006 0.25463 0.80013 0.0
O472 O 0.35973 0.26898 0.79104 0.0
O473 O 0.36241 0.29206 0.81012 0.0
O474 O 0.33927 0.3102 0.78414 0.0
O475 O 0.31436 0.30397 0.76203 0.0
O476 O 0.30166 0.26759 0.75513 0.0
O477 O 0.3334 0.27498 0.76067 0.0
C478 C 0.31234 0.2992 0.8187 0.0
O479 O 0.27832 0.30369 0.76969 0.0
O480 O 0.26782 0.27517 0.76509 0.0
C481 C 0.3882 0.29023 0.79575 0.0
C482 C 0.42009 0.31114 0.78426 0.0
C483 C 0.42067 0.30557 0.80208 0.0
C484 C 0.40481 0.2952 0.80777 0.0
C485 C 0.3876 0.2956 0.77793 0.0
C486 C 0.40342 0.30586 0.7722 0.0
C487 C 0.37104 0.28131 0.80236 0.0
H488 H 0.20389 0.29852 0.76464 0.0
H489 H 0.2312 0.29672 0.74963 0.0
H490 H 0.26039 0.2883 0.8011 0.0
H491 H 0.23312 0.2897 0.81614 0.0
H492 H 0.43323 0.30957 0.81175 0.0
H493 H 0.40539 0.29144 0.82169 0.0
H494 H 0.37479 0.29213 0.76853 0.0
H495 H 0.40257 0.30963 0.7583 0.0
Tb496 Tb 0.04929 0.03489 0.51316 0.0
Eu497 Eu 0.05227 0.05348 0.55351 0.0
C498 C 0.08978 0.05493 0.53389 0.0
C499 C 0.05412 1.01068 0.54732 0.0
C500 C 0.04571 0.02845 0.46247 0.0
C501 C 0.04494 0.02239 0.42978 0.0
C502 C 0.04746 0.01721 0.44753 0.0
C503 C 0.04277 0.04546 0.45961 0.0
C504 C 0.04006 0.05059 0.4419 0.0
C505 C 0.04037 0.03881 0.42671 0.0
C506 C 0.04445 0.02153 0.48046 0.0
O507 O 0.02265 0.02334 0.52303 0.0
O508 O 1.02119 0.04606 0.54324 0.0
O509 O 0.05161 0.07723 0.53633 0.0
O510 O 0.04699 0.06276 0.5076 0.0
C511 C 1.0129 0.03119 0.53325 0.0
O512 O 0.04106 0.05397 0.57944 0.0
O513 O 0.06516 0.07408 0.57555 0.0
O514 O 0.08262 0.05581 0.54934 0.0
O515 O 0.07901 0.04848 0.5184 0.0
O516 O 0.05399 1.01244 0.52952 0.0
O517 O 0.05351 0.02448 0.5586 0.0
C518 C 0.04934 0.07774 0.51838 0.0
O519 O 0.05991 0.0232 0.49141 0.0
O520 O 0.03139 0.02566 0.48899 0.0
C521 C 0.06393 0.06374 0.60461 0.0
C522 C 0.08224 0.05737 0.63812 0.0
C523 C 0.07241 0.07098 0.63726 0.0
C524 C 0.06331 0.07413 0.62059 0.0
C525 C 0.07367 0.05014 0.60535 0.0
C526 C 0.08275 0.04696 0.622 0.0
C527 C 0.05442 0.06706 0.58716 0.0
H528 H 0.04571 0.01317 0.41841 0.0
H529 H 0.04984 1.00407 0.4495 0.0
H530 H 0.04137 0.05435 0.47099 0.0
H531 H 0.03645 0.06326 0.44013 0.0
H532 H 0.072 0.07938 0.64941 0.0
H533 H 0.05587 0.08471 0.62016 0.0
H534 H 0.07422 0.04199 0.59306 0.0
H535 H 0.09003 0.03626 0.62227 0.0
Tb536 Tb 0.28955 0.77665 0.78695 0.0
Eu537 Eu 0.30494 0.81761 0.77965 0.0
C538 C 0.28921 0.80699 0.81685 0.0
C539 C 0.26108 0.79894 0.76941 0.0
C540 C 0.28501 0.72839 0.79118 0.0
C541 C 0.28171 0.69704 0.79532 0.0
C542 C 0.2753 0.71265 0.79722 0.0
C543 C 0.3014 0.72855 0.78352 0.0
C544 C 0.3078 0.71296 0.78155 0.0
C545 C 0.29792 0.69699 0.78728 0.0
C546 C 0.27769 0.74443 0.79239 0.0
O547 O 0.30492 0.77539 0.76368 0.0
O548 O 0.30266 0.80195 0.75262 0.0
O549 O 0.33111 0.80697 0.78596 0.0
O550 O 0.31871 0.78295 0.80084 0.0
C551 C 0.30538 0.78583 0.75026 0.0
O552 O 0.30227 0.84143 0.7661 0.0
O553 O 0.32658 0.84204 0.78541 0.0
O554 O 0.30188 0.81775 0.80946 0.0
O555 O 0.27986 0.79186 0.80808 0.0
O556 O 0.266 0.78352 0.76978 0.0
O557 O 0.27324 0.81371 0.7761 0.0
C558 C 0.33339 0.79454 0.79693 0.0
O559 O 0.28631 0.75673 0.80522 0.0
O560 O 0.27427 0.75108 0.77692 0.0
C561 C 0.31356 0.86669 0.78693 0.0
C562 C 0.30883 0.89498 0.81026 0.0
C563 C 0.32322 0.89757 0.79921 0.0
C564 C 0.32558 0.88347 0.78763 0.0
C565 C 0.29921 0.86405 0.7979 0.0
C566 C 0.29681 0.87808 0.80939 0.0
C567 C 0.31682 0.85142 0.77619 0.0
H568 H 0.27394 0.68502 0.80008 0.0
H569 H 0.26265 0.71238 0.80323 0.0
H570 H 0.30904 0.74066 0.77877 0.0
H571 H 0.32018 0.71331 0.77508 0.0
H572 H 0.33279 0.9104 0.7997 0.0
H573 H 0.33692 0.88559 0.77947 0.0
H574 H 0.28996 0.85107 0.79772 0.0
H575 H 0.28539 0.87571 0.81745 0.0
Tb576 Tb 0.56091 0.03181 0.06119 0.0
Eu577 Eu 0.54825 0.04074 0.0206 0.0
C578 C 0.55814 1.00165 0.02758 0.0
C579 C 0.58998 0.05015 0.03766 0.0
C580 C 0.57587 0.03756 0.11094 0.0
C581 C 0.57878 0.04012 0.14403 0.0
C582 C 0.57735 0.02982 0.12752 0.0
C583 C 0.57704 0.05594 0.11103 0.0
C584 C 0.5784 0.06626 0.12754 0.0
C585 C 0.57858 0.0583 0.14416 0.0
C586 C 0.57037 0.02608 0.09378 0.0
O587 O 0.5522 0.05761 0.06613 0.0
O588 O 0.55229 0.06773 0.03757 0.0
O589 O 0.52276 0.03536 0.03472 0.0
O590 O 0.53312 0.01578 0.05247 0.0
C591 C 0.5518 0.07077 0.05535 0.0
O592 O 0.55352 0.05556 0.99678 0.0
O593 O 0.52774 0.03591 0.99623 0.0
O594 O 0.54866 1.01091 0.01725 0.0
O595 O 0.56614 1.00863 0.04429 0.0
O596 O 0.58372 0.0513 0.05339 0.0
O597 O 0.57886 0.0419 0.02326 0.0
C598 C 0.51939 0.02185 0.04459 0.0
O599 O 0.55325 0.02479 0.08656 0.0
O600 O 0.58181 0.02845 0.08157 0.0
C601 C 0.54227 0.0369 0.96985 0.0
C602 C 0.54998 0.01932 0.93821 0.0
C603 C 0.54287 0.03474 0.93706 0.0
C604 C 0.53902 0.04347 0.95282 0.0
C605 C 0.54926 0.02153 0.97099 0.0
C606 C 0.55293 0.01273 0.95535 0.0
C607 C 0.53877 0.04595 0.98663 0.0
H608 H 0.57919 0.03369 0.15665 0.0
H609 H 0.57644 0.01564 0.12765 0.0
H610 H 0.57586 0.0621 0.09829 0.0
H611 H 0.57808 0.08018 0.12717 0.0
H612 H 0.54064 0.04025 0.92407 0.0
H613 H 0.5337 0.0554 0.95175 0.0
H614 H 0.55197 0.01632 0.98403 0.0
H615 H 0.55805 1.00074 0.95671 0.0
Tb616 Tb 0.312 0.30107 0.29191 0.0
Eu617 Eu 0.29366 0.26223 0.27104 0.0
C618 C 0.3104 0.26616 0.31477 0.0
C619 C 0.33818 0.28023 0.2703 0.0
C620 C 0.31836 0.34818 0.30817 0.0
C621 C 0.31149 0.3732 0.32534 0.0
C622 C 0.32017 0.3589 0.32459 0.0
C623 C 0.30827 0.35225 0.29238 0.0
C624 C 0.29972 0.36655 0.29309 0.0
C625 C 0.30095 0.37699 0.30963 0.0
C626 C 0.32536 0.33184 0.308 0.0
O627 O 0.30035 0.30803 0.26484 0.0
O628 O 0.29246 0.28084 0.24809 0.0
O629 O 0.2697 0.26888 0.28503 0.0
O630 O 0.28261 0.29737 0.29764 0.0
C631 C 0.29534 0.29837 0.24886 0.0
O632 O 0.2969 0.23802 0.25652 0.0
O633 O 0.26944 0.24073 0.26065 0.0
O634 O 0.30059 0.25595 0.30049 0.0
O635 O 0.31778 0.28317 0.31331 0.0
O636 O 0.33598 0.29479 0.27936 0.0
O637 O 0.3244 0.26595 0.26726 0.0
C638 C 0.26842 0.28331 0.29486 0.0
O639 O 0.31562 0.31881 0.31549 0.0
O640 O 0.32982 0.32633 0.29252 0.0
C641 C 0.2774 0.21303 0.26498 0.0
C642 C 0.28679 0.18616 0.28574 0.0
C643 C 0.28767 0.18545 0.26677 0.0
C644 C 0.28298 0.19877 0.25649 0.0
C645 C 0.2745 0.21274 0.28343 0.0
C646 C 0.279 0.19931 0.29369 0.0
C647 C 0.27964 0.22982 0.25625 0.0
H648 H 0.31269 0.38106 0.33825 0.0
H649 H 0.32779 0.35586 0.33694 0.0
H650 H 0.30643 0.34402 0.2796 0.0
H651 H 0.2914 0.36888 0.28084 0.0
H652 H 0.29371 0.17566 0.26012 0.0
H653 H 0.2855 0.19886 0.24233 0.0
H654 H 0.2703 0.22367 0.29034 0.0
H655 H 0.27773 0.20001 0.30816 0.0
Tb656 Tb 0.5573 0.5301 0.01963 0.0
Eu657 Eu 0.56114 0.54793 0.06052 0.0
C658 C 0.59789 0.55017 0.03957 0.0
C659 C 0.56213 0.50522 0.05372 0.0
C660 C 0.53982 0.52059 0.97127 0.0
C661 C 0.5292 0.51775 0.93874 0.0
C662 C 0.54057 0.51362 0.95352 0.0
C663 C 0.52761 0.53166 0.97416 0.0
C664 C 0.51626 0.53576 0.95945 0.0
C665 C 0.51697 0.52892 0.94156 0.0
C666 C 0.55208 0.51692 0.98683 0.0
O667 O 0.52807 0.52881 0.02425 0.0
O668 O 0.53174 0.53063 0.05535 0.0
O669 O 0.55849 0.5714 0.04323 0.0
O670 O 0.55702 0.55833 0.01427 0.0
C671 C 0.52091 0.52621 0.03967 0.0
O672 O 0.54961 0.56258 0.0807 0.0
O673 O 0.57615 0.55559 0.08784 0.0
O674 O 0.5901 0.55697 0.05252 0.0
O675 O 0.58788 0.53752 0.02731 0.0
O676 O 0.56019 0.50693 0.03583 0.0
O677 O 0.56352 0.51925 0.06545 0.0
C678 C 0.55786 0.57271 0.0254 0.0
O679 O 0.56568 0.53025 0.99344 0.0
O680 O 0.54369 0.50933 0.99977 0.0
C681 C 0.55721 0.55619 0.11101 0.0
C682 C 0.55093 0.5453 0.14575 0.0
C683 C 0.55402 0.56343 0.14263 0.0
C684 C 0.55719 0.56882 0.12538 0.0
C685 C 0.55296 0.53801 0.1137 0.0
C686 C 0.54989 0.53259 0.13099 0.0
C687 C 0.56294 0.56219 0.09372 0.0
H688 H 0.53023 0.51246 0.92508 0.0
H689 H 0.55003 0.50517 0.95109 0.0
H690 H 0.52692 0.5372 0.98782 0.0
H691 H 0.50683 0.54419 0.96211 0.0
H692 H 0.55517 0.57354 0.15378 0.0
H693 H 0.56041 0.58291 0.12345 0.0
H694 H 0.55276 0.52808 0.10263 0.0
H695 H 0.54742 0.51854 0.133 0.0
Tb696 Tb 0.79766 0.26953 0.29328 0.0
Eu697 Eu 0.8139 0.31038 0.28562 0.0
C698 C 0.79709 0.30025 0.32214 0.0
C699 C 0.76981 0.29136 0.27394 0.0
C700 C 0.79387 0.22211 0.30045 0.0
C701 C 0.79113 0.19091 0.30502 0.0
C702 C 0.78414 0.20624 0.30624 0.0
C703 C 0.81087 0.2227 0.29384 0.0
C704 C 0.81784 0.2074 0.29256 0.0
C705 C 0.80795 0.19127 0.29795 0.0
C706 C 0.78601 0.23787 0.30071 0.0
O707 O 0.81127 0.26672 0.26907 0.0
O708 O 0.81439 0.29482 0.25921 0.0
O709 O 0.83999 0.29969 0.29196 0.0
O710 O 0.82707 0.27575 0.30674 0.0
C711 C 0.81453 0.27793 0.25649 0.0
O712 O 0.81231 0.33353 0.27046 0.0
O713 O 0.83389 0.33566 0.29329 0.0
O714 O 0.81093 0.31007 0.31544 0.0
O715 O 0.78702 0.28576 0.31275 0.0
O716 O 0.77438 0.27587 0.27537 0.0
O717 O 0.78206 0.30624 0.28031 0.0
C718 C 0.84195 0.28709 0.30281 0.0
O719 O 0.79448 0.25086 0.31288 0.0
O720 O 0.78236 0.24358 0.28477 0.0
C721 C 0.8195 0.35962 0.29021 0.0
C722 C 0.80479 0.38741 0.30422 0.0
C723 C 0.81289 0.38881 0.28791 0.0
C724 C 0.82018 0.37498 0.28095 0.0
C725 C 0.81194 0.35841 0.30675 0.0
C726 C 0.80475 0.37222 0.31375 0.0
C727 C 0.82513 0.34425 0.28196 0.0
H728 H 0.7833 0.17875 0.30948 0.0
H729 H 0.77102 0.20565 0.31144 0.0
H730 H 0.81854 0.23491 0.2893 0.0
H731 H 0.83067 0.20808 0.28679 0.0
H732 H 0.81291 0.40025 0.28013 0.0
H733 H 0.8258 0.37603 0.26807 0.0
H734 H 0.81116 0.34658 0.31406 0.0
H735 H 0.79884 0.37084 0.32645 0.0
Tb736 Tb 0.05354 0.54091 0.56276 0.0
Eu737 Eu 0.03928 0.54899 0.52218 0.0
C738 C 0.04919 0.50994 0.52936 0.0
C739 C 0.08135 0.55891 0.53783 0.0
C740 C 0.07543 0.55 0.61011 0.0
C741 C 0.0866 0.55718 0.6424 0.0
C742 C 0.0802 0.54454 0.62738 0.0
C743 C 0.07807 0.56823 0.60774 0.0
C744 C 0.08428 0.58084 0.62274 0.0
C745 C 0.0881 0.5754 0.64029 0.0
C746 C 0.0662 0.53684 0.59491 0.0
O747 O 0.04465 0.56657 0.56774 0.0
O748 O 0.04308 0.57604 0.53888 0.0
O749 O 1.01418 0.5431 0.53684 0.0
O750 O 0.02546 0.52486 0.55595 0.0
C751 C 0.04337 0.57937 0.55672 0.0
O752 O 0.04267 0.56509 0.49904 0.0
O753 O 1.01957 0.54216 0.49715 0.0
O754 O 0.04029 0.51939 0.5187 0.0
O755 O 0.057 0.51681 0.54613 0.0
O756 O 0.07564 0.56036 0.55379 0.0
O757 O 0.06983 0.55037 0.52387 0.0
C758 C 1.01142 0.53018 0.54755 0.0
O759 O 0.04886 0.53696 0.58978 0.0
O760 O 0.07539 0.53615 0.58099 0.0
C761 C 0.03627 0.54569 0.47235 0.0
C762 C 0.04707 0.5265 0.4436 0.0
C763 C 0.03127 0.5337 0.44061 0.0
C764 C 0.02584 0.54319 0.45497 0.0
C765 C 0.05225 0.53885 0.47519 0.0
C766 C 0.05763 0.52942 0.46097 0.0
C767 C 0.02983 0.55363 0.48817 0.0
H768 H 0.08921 0.55263 0.65583 0.0
H769 H 0.07822 0.53052 0.6294 0.0
H770 H 0.07456 0.57266 0.59442 0.0
H771 H 0.08535 0.59479 0.62077 0.0
H772 H 0.02284 0.53155 0.42734 0.0
H773 H 1.01332 0.54816 0.45263 0.0
H774 H 0.06037 0.54045 0.48857 0.0
H775 H 0.07003 0.52431 0.46361 0.0
Tb776 Tb 0.79931 0.78607 0.27984 0.0
Eu777 Eu 0.84075 0.78268 0.29521 0.0
C778 C 0.8335 0.81588 0.27436 0.0
C779 C 0.82306 0.76926 0.25297 0.0
C780 C 0.74837 0.77934 0.27182 0.0
C781 C 0.71532 0.77775 0.26923 0.0
C782 C 0.73281 0.78528 0.26457 0.0
C783 C 0.74634 0.76569 0.28361 0.0
C784 C 0.72887 0.75805 0.28814 0.0
C785 C 0.71323 0.7641 0.2811 0.0
C786 C 0.7667 0.78742 0.26715 0.0
O787 O 0.79595 0.75912 0.28811 0.0
O788 O 0.82232 0.76178 0.30845 0.0
O789 O 0.83179 0.79842 0.31852 0.0
O790 O 0.80025 0.79187 0.30985 0.0
C791 C 0.80555 0.75321 0.30145 0.0
O792 O 0.86238 0.76768 0.29877 0.0
O793 O 0.86823 0.7954 0.3093 0.0
O794 O 0.84409 0.80451 0.27634 0.0
O795 O 0.81662 0.81234 0.27873 0.0
O796 O 0.81173 0.78003 0.25494 0.0
O797 O 0.83337 0.7659 0.26754 0.0
C798 C 0.81488 0.79849 0.3223 0.0
O799 O 0.77732 0.79914 0.27948 0.0
O800 O 0.77565 0.77627 0.26066 0.0
C801 C 0.89116 0.78587 0.29526 0.0
C802 C 0.92178 0.79641 0.27627 0.0
C803 C 0.92427 0.79103 0.2941 0.0
C804 C 0.90902 0.78584 0.30356 0.0
C805 C 0.88857 0.7909 0.2774 0.0
C806 C 0.90374 0.79618 0.26801 0.0
C807 C 0.87519 0.78178 0.30534 0.0
H808 H 0.70344 0.78258 0.26359 0.0
H809 H 0.73421 0.79581 0.25544 0.0
H810 H 0.7583 0.76109 0.28943 0.0
H811 H 0.72767 0.74775 0.29755 0.0
H812 H 0.93797 0.79083 0.30073 0.0
H813 H 0.9112 0.78202 0.31738 0.0
H814 H 0.87482 0.79109 0.27085 0.0
H815 H 0.90134 0.8005 0.25444 0.0
Tb816 Tb 0.83145 0.29797 0.79694 0.0
Eu817 Eu 0.8016 0.26091 0.77829 0.0
C818 C 0.78908 0.29678 0.78775 0.0
C819 C 0.81161 0.26929 0.82203 0.0
C820 C 0.86181 0.34394 0.80591 0.0
C821 C 0.85833 0.3693 0.78906 0.0
C822 C 0.85131 0.35189 0.79326 0.0
C823 C 0.87938 0.35343 0.81412 0.0
C824 C 0.88643 0.37074 0.80986 0.0
C825 C 0.87599 0.37889 0.79731 0.0
C826 C 0.85485 0.32577 0.81072 0.0
O827 O 0.84437 0.27578 0.80063 0.0
O828 O 0.83064 0.25921 0.77419 0.0
O829 O 0.8052 0.27915 0.75599 0.0
O830 O 0.83307 0.29819 0.76753 0.0
C831 C 0.84445 0.2637 0.78748 0.0
O832 O 0.79692 0.23284 0.76879 0.0
O833 O 0.77453 0.24657 0.76413 0.0
O834 O 0.78505 0.27949 0.7889 0.0
O835 O 0.8061 0.30572 0.78705 0.0
O836 O 0.81914 0.28602 0.81991 0.0
O837 O 0.80591 0.25698 0.80823 0.0
C838 C 0.81974 0.29158 0.75395 0.0
O839 O 0.83768 0.32172 0.81409 0.0
O840 O 0.85891 0.31311 0.80063 0.0
C841 C 0.76638 0.21509 0.76432 0.0
C842 C 0.7417 0.18248 0.76764 0.0
C843 C 0.75039 0.18527 0.75181 0.0
C844 C 0.76255 0.20141 0.75018 0.0
C845 C 0.75787 0.21252 0.78023 0.0
C846 C 0.74558 0.19629 0.78188 0.0
C847 C 0.77968 0.23158 0.76201 0.0
H848 H 0.85004 0.3752 0.77925 0.0
H849 H 0.83774 0.34467 0.78669 0.0
H850 H 0.88764 0.34747 0.82391 0.0
H851 H 0.89994 0.37787 0.81665 0.0
H852 H 0.74812 0.17483 0.74078 0.0
H853 H 0.76915 0.20315 0.73788 0.0
H854 H 0.76079 0.22298 0.79132 0.0
H855 H 0.73906 0.19458 0.79421 0.0
Tb856 Tb 0.80551 0.80886 0.79788 0.0
Eu857 Eu 0.78529 0.77056 0.77723 0.0
C858 C 0.80287 0.77382 0.82054 0.0
C859 C 0.8301 0.78772 0.77493 0.0
C860 C 0.81286 0.84856 0.82965 0.0
C861 C 0.79149 0.84705 0.85228 0.0
C862 C 0.80265 0.839 0.84213 0.0
C863 C 0.8133 0.86667 0.82887 0.0
C864 C 0.80193 0.87463 0.83873 0.0
C865 C 0.78995 0.8646 0.84969 0.0
C866 C 0.81908 0.83915 0.81458 0.0
O867 O 0.80094 0.81448 0.7686 0.0
O868 O 0.77976 0.78945 0.75555 0.0
O869 O 0.76192 0.77823 0.79145 0.0
O870 O 0.77666 0.80587 0.80518 0.0
C871 C 0.7895 0.80571 0.75427 0.0
O872 O 0.7827 0.74988 0.75492 0.0
O873 O 0.76413 0.74574 0.77534 0.0
O874 O 0.79784 0.76365 0.80497 0.0
O875 O 0.80527 0.79128 0.82061 0.0
O876 O 0.82952 0.8012 0.78668 0.0
O877 O 0.81506 0.77488 0.76984 0.0
C878 C 0.76175 0.79251 0.80214 0.0
O879 O 0.82532 0.82505 0.81819 0.0
O880 O 0.8074 0.83632 0.79957 0.0
C881 C 0.77631 0.72157 0.76556 0.0
C882 C 0.79496 0.69407 0.77187 0.0
C883 C 0.78789 0.69665 0.75397 0.0
C884 C 0.77865 0.71032 0.75084 0.0
C885 C 0.78214 0.71816 0.78351 0.0
C886 C 0.79133 0.70452 0.78664 0.0
C887 C 0.77073 0.73832 0.7621 0.0
H888 H 0.78293 0.83903 0.86097 0.0
H889 H 0.80208 0.82494 0.84293 0.0
H890 H 0.821 0.87421 0.81922 0.0
H891 H 0.80124 0.88811 0.83613 0.0
H892 H 0.79028 0.68864 0.74233 0.0
H893 H 0.77431 0.71277 0.7369 0.0
H894 H 0.78062 0.72671 0.79512 0.0
H895 H 0.79676 0.70304 0.80057 0.0
Tb896 Tb 0.53648 0.53604 0.53563 0.0
Eu897 Eu 0.57878 0.55074 0.55861 0.0
C898 C 0.57114 0.53022 0.51854 0.0
C899 C 0.5561 0.51068 0.55827 0.0
C900 C 0.48933 0.53854 0.51751 0.0
C901 C 0.46279 0.54648 0.50046 0.0
C902 C 0.4764 0.53646 0.50169 0.0
C903 C 0.48862 0.55089 0.532 0.0
C904 C 0.47501 0.56077 0.53085 0.0
C905 C 0.46189 0.55863 0.51512 0.0
C906 C 0.50388 0.52829 0.5188 0.0
O907 O 0.53389 0.55365 0.55872 0.0
O908 O 0.55875 0.55105 0.57902 0.0
O909 O 0.56853 0.57509 0.55231 0.0
O910 O 0.54906 0.56169 0.52659 0.0
C911 C 0.54243 0.55485 0.57548 0.0
O912 O 0.59944 0.54952 0.58175 0.0
O913 O 0.60706 0.56683 0.56052 0.0
O914 O 0.58092 0.54421 0.52903 0.0
O915 O 0.55405 0.5228 0.52095 0.0
O916 O 0.54035 0.51516 0.55322 0.0
O917 O 0.57224 0.52112 0.55706 0.0
C918 C 0.55819 0.57607 0.53696 0.0
O919 O 0.51851 0.53471 0.51109 0.0
O920 O 0.50841 0.52342 0.53499 0.0
C921 C 0.62805 0.5497 0.57143 0.0
C922 C 0.65292 0.5275 0.56657 0.0
C923 C 0.65226 0.53555 0.58403 0.0
C924 C 0.6399 0.54654 0.58643 0.0
C925 C 0.62908 0.5421 0.55393 0.0
C926 C 0.64145 0.53123 0.5515 0.0
C927 C 0.61304 0.55881 0.57429 0.0
H928 H 0.45281 0.54451 0.4882 0.0
H929 H 0.47683 0.5271 0.49031 0.0
H930 H 0.49859 0.5529 0.54424 0.0
H931 H 0.47487 0.57023 0.54224 0.0
H932 H 0.66075 0.53281 0.59596 0.0
H933 H 0.63911 0.55203 0.60008 0.0
H934 H 0.61991 0.54411 0.54215 0.0
H935 H 0.6418 0.52551 0.53783 0.0
Tb936 Tb 0.04675 0.51716 0.03564 0.0
Eu937 Eu 0.07119 0.54851 0.0654 0.0
C938 C 0.04773 0.51274 0.07706 0.0
C939 C 0.02744 0.54834 0.05064 0.0
C940 C 0.03185 0.47864 1.00002 0.0
C941 C 1.0196 0.45273 0.97843 0.0
C942 C 1.01706 0.46782 0.98822 0.0
C943 C 0.04951 0.47483 1.0012 0.0
C944 C 0.05206 0.45969 0.99142 0.0
C945 C 0.03697 0.44819 0.98038 0.0
C946 C 0.02812 0.49253 0.01244 0.0
O947 O 0.06524 0.53555 0.02125 0.0
O948 O 0.06604 0.56064 0.0391 0.0
O949 O 0.09234 0.53316 0.05659 0.0
O950 O 0.07278 0.50754 0.04239 0.0
C951 C 0.06662 0.55275 0.02312 0.0
O952 O 0.09647 0.56919 0.07279 0.0
O953 O 0.07632 0.56378 0.09201 0.0
O954 O 0.06391 0.52397 0.08012 0.0
O955 O 0.03686 0.51197 0.06167 0.0
O956 O 0.02763 0.53558 0.03781 0.0
O957 O 0.04185 0.55395 0.06358 0.0
C958 C 0.08975 0.51659 0.04936 0.0
O959 O 0.03198 0.49073 0.02978 0.0
O960 O 0.03367 0.50896 1.00869 0.0
C961 C 0.09304 0.59366 0.09135 0.0
C962 C 0.09678 0.63081 0.0956 0.0
C963 C 0.1122 0.62362 0.09313 0.0
C964 C 0.11036 0.60524 0.09113 0.0
C965 C 0.07756 0.60073 0.09378 0.0
C966 C 0.07944 0.61914 0.09599 0.0
C967 C 0.09139 0.57439 0.08815 0.0
H968 H 1.00779 0.44427 0.96979 0.0
H969 H 1.00336 0.47062 0.98716 0.0
H970 H 0.06107 0.48309 0.01031 0.0
H971 H 0.06557 0.45648 0.99328 0.0
H972 H 0.12569 0.63219 0.09246 0.0
H973 H 0.12244 0.60004 0.08912 0.0
H974 H 0.06399 0.59209 0.09387 0.0
H975 H 0.06733 0.62421 0.09815 0.0
H976 H 0.02597 0.2104 0.96383 0.0
H977 H 0.03502 0.19148 0.98703 0.0
H978 H 0.06006 0.16454 0.94742 0.0
H979 H 0.05145 0.18347 0.92436 0.0
H980 H 0.02308 0.15608 0.98548 0.0
H981 H 0.09953 0.17219 0.99125 0.0
H982 H 0.0857 0.18637 0.98085 0.0
H983 H 0.08961 0.16744 0.9677 0.0
C984 C 0.03362 0.20058 0.96013 0.0
C985 C 0.03794 0.19839 0.94222 0.0
C986 C 0.03884 0.18987 0.97343 0.0
C987 C 0.04856 0.17689 0.96905 0.0
C988 C 0.05308 0.17485 0.95127 0.0
H989 H 0.04145 0.07266 0.99033 0.0
H990 H 0.04024 0.10222 0.98145 0.0
C991 C 0.04794 0.18555 0.93801 0.0
C992 C 0.05207 0.16396 0.98221 0.0
H993 H 0.08503 0.14199 0.99782 0.0
C994 C 0.03672 0.15331 0.9886 0.0
C995 C 0.06991 0.16054 0.98659 0.0
C996 C 0.08713 0.1724 0.98139 0.0
C997 C 0.03846 0.13834 0.9978 0.0
C998 C 0.05592 0.13382 1.00035 0.0
C999 C 0.07159 0.14535 0.99551 0.0
C1000 C 0.05757 0.11616 1.00582 0.0
C1001 C 1.02143 0.12699 1.00395 0.0
C1002 C 0.06835 0.11432 0.02214 0.0
C1003 C 0.06917 0.09735 0.02728 0.0
C1004 C 0.05931 0.08207 0.01603 0.0
C1005 C 0.04912 0.08411 0.99937 0.0
C1006 C 0.0483 0.10099 0.99431 0.0
H1007 H 1.01097 0.13488 1.00629 0.0
H1008 H 1.01492 0.1161 0.99313 0.0
H1009 H 0.02506 0.12093 0.01673 0.0
H1010 H 0.07576 0.12596 0.03106 0.0
H1011 H 0.07716 0.09621 0.04019 0.0
H1012 H 0.18557 0.85759 0.17695 0.0
H1013 H 0.21012 0.85276 0.19958 0.0
H1014 H 0.18071 0.86719 0.24306 0.0
H1015 H 0.15543 0.87088 0.22033 0.0
H1016 H 0.23392 0.86819 0.22772 0.0
H1017 H 0.17952 0.8168 0.2521 0.0
H1018 H 0.17471 0.82859 0.23249 0.0
H1019 H 0.17632 0.83906 0.25526 0.0
C1020 C 0.18458 0.86024 0.19132 0.0
C1021 C 0.16848 0.86427 0.19693 0.0
C1022 C 0.19861 0.85743 0.20429 0.0
C1023 C 0.19689 0.85894 0.22302 0.0
C1024 C 0.18195 0.86524 0.22866 0.0
H1025 H 0.28792 0.82839 0.29177 0.0
H1026 H 0.26598 0.84618 0.28113 0.0
C1027 C 0.16764 0.86757 0.21569 0.0
C1028 C 0.20954 0.85186 0.23613 0.0
H1029 H 0.21016 0.81913 0.26511 0.0
C1030 C 0.22876 0.85758 0.23606 0.0
C1031 C 0.20273 0.83781 0.2468 0.0
C1032 C 0.18221 0.83007 0.2466 0.0
C1033 C 0.24133 0.84911 0.24558 0.0
C1034 C 0.23449 0.83505 0.2562 0.0
C1035 C 0.21535 0.82995 0.25704 0.0
C1036 C 0.24662 0.82415 0.26489 0.0
C1037 C 0.2616 0.85459 0.24315 0.0
C1038 C 0.24236 0.80563 0.2604 0.0
C1039 C 0.25454 0.79536 0.26698 0.0
C1040 C 0.27131 0.8035 0.2779 0.0
C1041 C 0.27514 0.82186 0.28316 0.0
C1042 C 0.26272 0.83205 0.27695 0.0
H1043 H 0.26369 0.86229 0.23104 0.0
H1044 H 0.26935 0.86319 0.2554 0.0
H1045 H 0.26769 0.84279 0.24152 0.0
H1046 H 0.22995 0.79921 0.2512 0.0
H1047 H 0.25131 0.78125 0.26267 0.0
H1048 H 0.54599 0.79276 0.44421 0.0
H1049 H 0.54176 0.82195 0.45473 0.0
H1050 H 0.51086 0.82533 0.40246 0.0
H1051 H 0.51493 0.79596 0.3917 0.0
H1052 H 0.54198 0.85638 0.41791 0.0
H1053 H 0.49095 0.83362 0.46566 0.0
H1054 H 0.51101 0.82411 0.46734 0.0
H1055 H 0.49458 0.81924 0.44688 0.0
C1056 C 0.53827 0.79966 0.43491 0.0
C1057 C 0.53077 0.79203 0.41711 0.0
C1058 C 0.5358 0.81628 0.441 0.0
C1059 C 0.52583 0.82559 0.42942 0.0
C1060 C 0.51848 0.81819 0.41159 0.0
H1061 H 0.51254 0.9346 0.44675 0.0
H1062 H 0.51128 0.90469 0.43317 0.0
C1063 C 0.52083 0.80146 0.4055 0.0
C1064 C 0.52367 0.84332 0.43591 0.0
H1065 H 0.50448 0.86461 0.46772 0.0
C1066 C 0.53363 0.85825 0.42864 0.0
C1067 C 0.51285 0.84555 0.44997 0.0
C1068 C 0.5016 0.8298 0.45788 0.0
C1069 C 0.53359 0.87553 0.43558 0.0
C1070 C 0.52292 0.87779 0.44983 0.0
C1071 C 0.51264 0.8628 0.4568 0.0
C1072 C 0.52277 0.89562 0.45815 0.0
C1073 C 0.54556 0.89115 0.42812 0.0
C1074 C 0.529 0.90017 0.47685 0.0
C1075 C 0.52941 0.91713 0.48475 0.0
C1076 C 0.52358 0.92985 0.47407 0.0
C1077 C 0.51699 0.92509 0.4554 0.0
C1078 C 0.51648 0.90808 0.44755 0.0
H1079 H 0.55633 0.88708 0.4207 0.0
H1080 H 0.5367 0.89713 0.41837 0.0
H1081 H 0.55256 0.90155 0.43928 0.0
H1082 H 0.53377 0.89065 0.48529 0.0
H1083 H 0.53424 0.92026 0.49923 0.0
H1084 H 0.56924 0.33674 0.73516 0.0
H1085 H 0.54218 0.34024 0.74923 0.0
H1086 H 0.52917 0.37473 0.7083 0.0
H1087 H 0.55622 0.37093 0.69371 0.0
H1088 H 0.53021 0.3692 0.76358 0.0
H1089 H 0.48282 0.33411 0.70187 0.0
H1090 H 0.50733 0.33467 0.70476 0.0
H1091 H 0.49931 0.35413 0.69878 0.0
C1092 C 0.56076 0.34521 0.72919 0.0
C1093 C 0.56469 0.35334 0.71316 0.0
C1094 C 0.54534 0.34728 0.73733 0.0
C1095 C 0.53354 0.35753 0.72966 0.0
C1096 C 0.53795 0.36651 0.71423 0.0
H1097 H 0.42191 0.33913 0.76289 0.0
H1098 H 0.44911 0.3554 0.7504 0.0
C1099 C 0.55342 0.36438 0.70597 0.0
C1100 C 0.51596 0.35731 0.7372 0.0
H1101 H 0.46964 0.33809 0.7285 0.0
C1102 C 0.51688 0.36277 0.75582 0.0
C1103 C 0.4986 0.34897 0.727 0.0
C1104 C 0.49682 0.34251 0.70703 0.0
C1105 C 0.50109 0.35901 0.76482 0.0
C1106 C 0.48406 0.34948 0.75493 0.0
C1107 C 0.4828 0.34535 0.73601 0.0
C1108 C 0.46814 0.34145 0.76421 0.0
C1109 C 0.5029 0.36459 0.78499 0.0
C1110 C 0.4699 0.32824 0.77608 0.0
C1111 C 0.45439 0.31873 0.78299 0.0
C1112 C 0.43681 0.32223 0.77811 0.0
C1113 C 0.43521 0.3359 0.76666 0.0
C1114 C 0.45074 0.34533 0.75966 0.0
H1115 H 0.51465 0.37629 0.78913 0.0
H1116 H 0.48993 0.36788 0.78871 0.0
H1117 H 0.50566 0.35346 0.79288 0.0
H1118 H 0.48315 0.32475 0.77937 0.0
H1119 H 0.45607 0.30814 0.79153 0.0
H1120 H 0.0229 0.85332 0.62072 0.0
H1121 H 0.02364 0.88193 0.60768 0.0
H1122 H 0.07882 0.88323 0.59481 0.0
H1123 H 0.07759 0.85423 0.60683 0.0
H1124 H 0.03871 0.91388 0.61305 0.0
H1125 H 0.06328 0.89825 0.54799 0.0
H1126 H 0.05684 0.88142 0.56333 0.0
H1127 H 0.0798 0.89592 0.56678 0.0
C1128 C 0.03516 0.85951 0.61489 0.0
C1129 C 0.05006 0.85081 0.61482 0.0
C1130 C 0.03564 0.87622 0.60737 0.0
C1131 C 0.05111 0.88536 0.59943 0.0
C1132 C 0.06619 0.87679 0.59982 0.0
H1133 H 0.06219 1.00268 0.58341 0.0
H1134 H 0.06209 0.97395 0.59566 0.0
C1135 C 0.06558 0.85995 0.60705 0.0
C1136 C 0.05158 0.90373 0.59139 0.0
H1137 H 0.06497 0.92891 0.55593 0.0
C1138 C 0.04442 0.91692 0.60047 0.0
C1139 C 0.05854 0.90848 0.57466 0.0
C1140 C 0.06484 0.89521 0.56252 0.0
C1141 C 0.04427 0.93398 0.59382 0.0
C1142 C 0.05222 0.93911 0.57765 0.0
C1143 C 0.05909 0.92581 0.56841 0.0
C1144 C 0.05311 0.95765 0.56988 0.0
C1145 C 0.03469 0.94599 0.60407 0.0
C1146 C 0.04928 0.95936 0.55085 0.0
C1147 C 0.04995 0.97622 0.54362 0.0
C1148 C 0.05438 0.99245 0.55497 0.0
C1149 C 0.05849 0.99081 0.57394 0.0
C1150 C 0.05815 0.974 0.58112 0.0
H1151 H 0.02396 0.93821 0.61152 0.0
H1152 H 0.04506 0.95506 0.6144 0.0
H1153 H 0.02788 0.95405 0.59472 0.0
H1154 H 0.04542 0.94751 0.54137 0.0
H1155 H 0.04661 0.97646 0.52899 0.0
H1156 H 0.51178 0.81861 0.86009 0.0
H1157 H 0.48012 0.81757 0.84561 0.0
H1158 H 0.45974 0.77019 0.87174 0.0
H1159 H 0.49134 0.77135 0.88645 0.0
H1160 H 0.45479 0.79489 0.82159 0.0
H1161 H 0.4232 0.79787 0.88548 0.0
H1162 H 0.44799 0.80172 0.88552 0.0
H1163 H 0.43393 0.77936 0.88324 0.0
C1164 C 0.50061 0.80792 0.86282 0.0
C1165 C 0.50449 0.7951 0.87467 0.0
C1166 C 0.4823 0.80733 0.85444 0.0
C1167 C 0.46695 0.79401 0.85765 0.0
C1168 C 0.47088 0.78099 0.86921 0.0
H1169 H 0.34482 0.77076 0.82023 0.0
H1170 H 0.37637 0.77037 0.83411 0.0
C1171 C 0.4892 0.78156 0.87757 0.0
C1172 C 0.44713 0.79368 0.84875 0.0
H1173 H 0.40239 0.79201 0.85781 0.0
C1174 C 0.44343 0.79434 0.82964 0.0
C1175 C 0.43183 0.7929 0.85885 0.0
C1176 C 0.4344 0.79309 0.87941 0.0
C1177 C 0.42534 0.79391 0.82054 0.0
C1178 C 0.41005 0.79324 0.83065 0.0
C1179 C 0.41374 0.7925 0.84976 0.0
C1180 C 0.39034 0.79341 0.8218 0.0
C1181 C 0.42278 0.79359 0.79996 0.0
C1182 C 0.38694 0.80655 0.81019 0.0
C1183 C 0.36876 0.80675 0.8021 0.0
C1184 C 0.353 0.79392 0.80536 0.0
C1185 C 0.35635 0.78088 0.81714 0.0
C1186 C 0.37459 0.78067 0.82522 0.0
H1187 H 0.43371 0.78829 0.79396 0.0
H1188 H 0.409 0.78534 0.79388 0.0
H1189 H 0.42385 0.80737 0.79604 0.0
H1190 H 0.39839 0.81697 0.80752 0.0
H1191 H 0.36706 0.8172 0.79337 0.0
H1192 H 0.53492 0.22037 0.1465 0.0
H1193 H 0.53645 0.19106 0.13332 0.0
H1194 H 0.55457 0.21433 0.08518 0.0
H1195 H 0.5539 0.24394 0.09882 0.0
H1196 H 0.52114 0.16768 0.10831 0.0
H1197 H 0.59156 0.18603 0.08864 0.0
H1198 H 0.58231 0.20149 0.10193 0.0
H1199 H 0.57656 0.19842 0.07734 0.0
C1200 C 0.53929 0.21946 0.13307 0.0
C1201 C 0.5443 0.23518 0.12402 0.0
C1202 C 0.54017 0.20233 0.12538 0.0
C1203 C 0.54612 0.19967 0.10809 0.0
C1204 C 0.55062 0.21533 0.09876 0.0
H1205 H 0.55428 0.10244 0.0383 0.0
H1206 H 0.55289 0.13225 0.05075 0.0
C1207 C 0.54994 0.23257 0.10657 0.0
C1208 C 0.54717 0.18073 0.10008 0.0
H1209 H 0.57382 0.15718 0.07743 0.0
C1210 C 0.53285 0.16562 0.10172 0.0
C1211 C 0.56224 0.17707 0.09124 0.0
C1212 C 0.57912 0.19156 0.08983 0.0
C1213 C 0.53296 0.14787 0.09483 0.0
C1214 C 0.5479 0.14429 0.08585 0.0
C1215 C 0.56218 0.15934 0.0841 0.0
C1216 C 0.54891 0.12532 0.07817 0.0
C1217 C 0.51656 0.13307 0.09686 0.0
C1218 C 0.54748 0.11064 0.08902 0.0
C1219 C 0.54844 0.0933 0.08184 0.0
C1220 C 0.55078 0.08955 0.06332 0.0
C1221 C 0.55234 0.10427 0.05253 0.0
C1222 C 0.55159 0.12163 0.05977 0.0
H1223 H 0.50413 0.13825 0.09908 0.0
H1224 H 0.51296 0.12334 0.08458 0.0
H1225 H 0.5201 0.12596 0.1089 0.0
H1226 H 0.54587 0.11259 0.10332 0.0
H1227 H 0.54733 0.08274 0.09093 0.0
H1228 H 0.10516 0.25242 0.35988 0.0
H1229 H 0.13337 0.25408 0.34518 0.0
H1230 H 0.15733 0.30544 0.37425 0.0
H1231 H 0.12936 0.30358 0.38928 0.0
H1232 H 0.15102 0.2732 0.32224 0.0
H1233 H 0.20148 0.28588 0.38512 0.0
H1234 H 0.17679 0.27999 0.38583 0.0
H1235 H 0.18829 0.30265 0.38333 0.0
C1236 C 0.11643 0.26409 0.3633 0.0
C1237 C 0.11457 0.27779 0.37612 0.0
C1238 C 0.1328 0.26507 0.35474 0.0
C1239 C 0.14833 0.27973 0.35858 0.0
C1240 C 0.14629 0.29357 0.37114 0.0
H1241 H 0.25982 0.30949 0.31826 0.0
H1242 H 0.23159 0.30874 0.33281 0.0
C1243 C 0.12994 0.29258 0.37974 0.0
C1244 C 0.16614 0.28061 0.34922 0.0
H1245 H 0.21418 0.28942 0.35717 0.0
C1246 C 0.16475 0.27666 0.33007 0.0
C1247 C 0.18458 0.28513 0.35886 0.0
C1248 C 0.18793 0.28848 0.37943 0.0
C1249 C 0.1806 0.27744 0.32058 0.0
C1250 C 0.19902 0.28197 0.33022 0.0
C1251 C 0.20043 0.28597 0.34936 0.0
C1252 C 0.21676 0.2825 0.32086 0.0
C1253 C 0.1773 0.27389 0.30004 0.0
C1254 C 0.21877 0.26806 0.30912 0.0
C1255 C 0.2351 0.26848 0.30067 0.0
C1256 C 0.25046 0.28336 0.30349 0.0
C1257 C 0.24854 0.29777 0.31536 0.0
C1258 C 0.23218 0.29731 0.32387 0.0
H1259 H 0.16374 0.27638 0.29425 0.0
H1260 H 0.18844 0.28233 0.29359 0.0
H1261 H 0.17705 0.25971 0.29629 0.0
H1262 H 0.20776 0.25611 0.30665 0.0
H1263 H 0.23572 0.2569 0.29196 0.0
H1264 H 0.91173 0.02462 0.15515 0.0
H1265 H 0.93321 0.03261 0.13275 0.0
H1266 H 0.96088 0.08046 0.16705 0.0
H1267 H 0.94027 0.07171 0.19009 0.0
H1268 H 0.9444 0.0579 0.11231 0.0
H1269 H 1.00284 0.05681 0.16604 0.0
H1270 H 0.97896 0.05046 0.1699 0.0
H1271 H 0.99053 0.07364 0.17102 0.0
C1272 C 0.92217 0.03701 0.15767 0.0
C1273 C 0.92463 0.04747 0.17432 0.0
C1274 C 0.93445 0.04158 0.14491 0.0
C1275 C 0.94906 0.05684 0.14853 0.0
C1276 C 0.95019 0.06827 0.16432 0.0
H1277 H 1.02098 0.07266 0.06159 0.0
H1278 H 1.00097 0.07947 0.08377 0.0
C1279 C 0.93831 0.0634 0.17735 0.0
C1280 C 0.96394 0.05968 0.13661 0.0
H1281 H 1.01039 0.06272 0.1368 0.0
C1282 C 0.95886 0.05906 0.11764 0.0
C1283 C 0.98279 0.06098 0.14363 0.0
C1284 C 0.98912 0.06034 0.16372 0.0
C1285 C 0.9719 0.05887 0.10542 0.0
C1286 C 0.99075 0.06026 0.11247 0.0
C1287 C 0.99597 0.06176 0.13146 0.0
C1288 C 1.00489 0.05817 0.10049 0.0
C1289 C 0.96506 0.05607 0.08515 0.0
C1290 C 1.01487 0.04487 0.10333 0.0
C1291 C 0.02685 0.04145 0.09111 0.0
C1292 C 0.02874 0.05105 0.07569 0.0
C1293 C 1.01954 0.06496 0.07333 0.0
C1294 C 1.00796 0.06872 0.08585 0.0
H1295 H 0.9498 0.05065 0.08236 0.0
H1296 H 0.96818 0.06902 0.0791 0.0
H1297 H 0.97197 0.04677 0.07808 0.0
H1298 H 1.01281 0.03662 0.1146 0.0
H1299 H 0.03374 0.0306 0.09313 0.0
H1300 H 0.28045 0.73897 0.4861 0.0
H1301 H 0.28214 0.74769 0.45501 0.0
H1302 H 0.31839 0.71233 0.4463 0.0
H1303 H 0.31694 0.70362 0.47756 0.0
H1304 H 0.32961 0.74581 0.43285 0.0
H1305 H 0.2552 0.71549 0.40922 0.0
H1306 H 0.25912 0.73098 0.42916 0.0
H1307 H 0.26711 0.7107 0.43039 0.0
C1308 C 0.2889 0.73312 0.47765 0.0
C1309 C 0.29847 0.7205 0.48429 0.0
C1310 C 0.28974 0.73804 0.45982 0.0
C1311 C 0.30007 0.73038 0.44822 0.0
C1312 C 0.31021 0.71829 0.455 0.0
H1313 H 0.29125 0.73207 0.32982 0.0
H1314 H 0.29044 0.7235 0.3611 0.0
C1315 C 0.30939 0.71335 0.47287 0.0
C1316 C 0.3001 0.73489 0.42899 0.0
H1317 H 0.27162 0.73372 0.38894 0.0
C1318 C 0.31695 0.74313 0.42322 0.0
C1319 C 0.2836 0.73112 0.41637 0.0
C1320 C 0.26525 0.72143 0.4215 0.0
C1321 C 0.31769 0.74807 0.40528 0.0
C1322 C 0.30108 0.74492 0.39288 0.0
C1323 C 0.2843 0.73631 0.39853 0.0
C1324 C 0.30088 0.75031 0.37392 0.0
C1325 C 0.33629 0.75639 0.39968 0.0
C1326 C 0.30653 0.76828 0.37074 0.0
C1327 C 0.307 0.77325 0.35289 0.0
C1328 C 0.30172 0.76033 0.33782 0.0
C1329 C 0.29545 0.74238 0.34106 0.0
C1330 C 0.29499 0.73744 0.35894 0.0
H1331 H 0.34796 0.75366 0.40903 0.0
H1332 H 0.33732 0.75139 0.38551 0.0
H1333 H 0.33793 0.77104 0.40012 0.0
H1334 H 0.31072 0.77847 0.3821 0.0
H1335 H 0.31182 0.7872 0.35095 0.0
H1336 H 0.63246 0.95659 0.68154 0.0
H1337 H 0.61142 0.95372 0.65316 0.0
H1338 H 0.56905 0.91793 0.67668 0.0
H1339 H 0.58969 0.92214 0.70578 0.0
H1340 H 0.59118 0.93157 0.62737 0.0
H1341 H 0.543 0.95643 0.66946 0.0
H1342 H 0.56553 0.95431 0.6794 0.0
H1343 H 0.54683 0.93485 0.67362 0.0
C1344 C 0.61882 0.94776 0.6805 0.0
C1345 C 0.61251 0.93987 0.69587 0.0
C1346 C 0.60675 0.94609 0.66425 0.0
C1347 C 0.58832 0.93615 0.66297 0.0
C1348 C 0.58288 0.92632 0.67758 0.0
H1349 H 0.53685 0.97197 0.56238 0.0
H1350 H 0.5401 0.94825 0.58233 0.0
C1351 C 0.59473 0.92854 0.69411 0.0
C1352 C 0.57463 0.93847 0.64748 0.0
H1353 H 0.53832 0.95839 0.63831 0.0
C1354 C 0.57938 0.93712 0.62967 0.0
C1355 C 0.55902 0.94549 0.65046 0.0
C1356 C 0.5533 0.94799 0.66924 0.0
C1357 C 0.57055 0.94463 0.61531 0.0
C1358 C 0.55599 0.95296 0.61873 0.0
C1359 C 0.5496 0.95211 0.63585 0.0
C1360 C 0.55051 0.96621 0.60678 0.0
C1361 C 0.57816 0.94516 0.59723 0.0
C1362 C 0.55407 0.98399 0.61412 0.0
C1363 C 0.55188 0.99741 0.60294 0.0
C1364 C 0.54624 0.99343 0.58406 0.0
C1365 C 0.54136 0.97548 0.57686 0.0
C1366 C 0.5434 0.96193 0.5882 0.0
H1367 H 0.59088 0.93981 0.59761 0.0
H1368 H 0.56754 0.93705 0.58643 0.0
H1369 H 0.58157 0.95903 0.5933 0.0
H1370 H 0.5595 0.98767 0.62843 0.0
H1371 H 0.55554 1.01103 0.60904 0.0
H1372 H 0.32222 0.35479 0.99305 0.0
H1373 H 0.32356 0.34237 0.962 0.0
H1374 H 0.27714 0.36373 0.94158 0.0
H1375 H 0.27595 0.3764 0.97258 0.0
H1376 H 0.30084 0.31815 0.93741 0.0
H1377 H 0.31088 0.38173 0.90525 0.0
H1378 H 0.3124 0.38092 0.92972 0.0
H1379 H 0.29009 0.37706 0.91588 0.0
C1380 C 0.31224 0.35689 0.98201 0.0
C1381 C 0.29899 0.36679 0.98569 0.0
C1382 C 0.31303 0.34971 0.96405 0.0
C1383 C 0.30074 0.35223 0.94887 0.0
C1384 C 0.28725 0.36183 0.9526 0.0
H1385 H 0.28719 0.31893 0.82883 0.0
H1386 H 0.28402 0.33115 0.85955 0.0
C1387 C 0.28643 0.36899 0.97057 0.0
C1388 C 0.30192 0.34462 0.92944 0.0
H1389 H 0.30542 0.35546 0.88514 0.0
C1390 C 0.30192 0.32644 0.92608 0.0
C1391 C 0.30326 0.35506 0.91417 0.0
C1392 C 0.30435 0.3748 0.9164 0.0
C1393 C 0.30288 0.31854 0.90838 0.0
C1394 C 0.30439 0.32901 0.89314 0.0
C1395 C 0.30427 0.34717 0.89647 0.0
C1396 C 0.30638 0.32148 0.87392 0.0
C1397 C 0.30167 0.29877 0.90617 0.0
C1398 C 0.3202 0.31205 0.87105 0.0
C1399 C 0.32201 0.30498 0.85338 0.0
C1400 C 0.31024 0.30714 0.83761 0.0
C1401 C 0.29659 0.31684 0.8404 0.0
C1402 C 0.29476 0.32392 0.85815 0.0
H1403 H 0.29451 0.29185 0.91699 0.0
H1404 H 0.29414 0.29273 0.89262 0.0
H1405 H 0.31591 0.2964 0.9074 0.0
H1406 H 0.32985 0.31025 0.88252 0.0
H1407 H 0.33284 0.29781 0.85212 0.0
H1408 H 0.93324 0.06045 0.28333 0.0
H1409 H 0.95339 0.06848 0.3127 0.0
H1410 H 0.9907 0.03788 0.29391 0.0
H1411 H 0.97112 0.03034 0.26457 0.0
H1412 H 0.96018 0.04634 0.33648 0.0
H1413 H 0.02761 0.0808 0.31807 0.0
H1414 H 1.00641 0.07702 0.3023 0.0
H1415 H 1.01949 0.06 0.30438 0.0
C1416 C 0.94593 0.05574 0.28538 0.0
C1417 C 0.95058 0.04475 0.27166 0.0
C1418 C 0.95745 0.06037 0.30212 0.0
C1419 C 0.97377 0.05408 0.3054 0.0
C1420 C 0.97855 0.0434 0.29154 0.0
H1421 H 1.01844 0.01536 0.39968 0.0
H1422 H 1.00352 0.02198 0.37071 0.0
C1423 C 0.96718 0.03891 0.27481 0.0
C1424 C 0.98459 0.05663 0.32389 0.0
H1425 H 0.02899 0.06514 0.34588 0.0
C1426 C 0.97519 0.05085 0.3386 0.0
C1427 C 1.00415 0.06282 0.32682 0.0
C1428 C 1.01493 0.0707 0.31206 0.0
C1429 C 0.98491 0.04983 0.35576 0.0
C1430 C 1.00456 0.05425 0.35811 0.0
C1431 C 1.01393 0.06135 0.34388 0.0
C1432 C 1.01542 0.05032 0.37479 0.0
C1433 C 0.97403 0.04359 0.37108 0.0
C1434 C 0.02796 0.06394 0.38617 0.0
C1435 C 0.03692 0.06014 0.40269 0.0
C1436 C 0.03347 0.04264 0.40802 0.0
C1437 C 1.02164 0.02894 0.39601 0.0
C1438 C 1.01283 0.03274 0.37954 0.0
H1439 H 0.95995 0.04639 0.36908 0.0
H1440 H 0.97229 0.02898 0.37131 0.0
H1441 H 0.98132 0.05008 0.38457 0.0
H1442 H 0.03033 0.07756 0.38258 0.0
H1443 H 0.04617 0.07096 0.41148 0.0
H1444 H 0.31905 0.69818 0.6015 0.0
H1445 H 0.3213 0.71302 0.63205 0.0
H1446 H 0.30563 0.75814 0.60849 0.0
H1447 H 0.30285 0.74318 0.57779 0.0
H1448 H 0.34164 0.7445 0.64975 0.0
H1449 H 0.26647 0.7441 0.64198 0.0
H1450 H 0.27645 0.73182 0.62585 0.0
H1451 H 0.27864 0.75539 0.62492 0.0
C1452 C 0.31622 0.71134 0.60275 0.0
C1453 C 0.31054 0.71939 0.58715 0.0
C1454 C 0.31753 0.71981 0.62027 0.0
C1455 C 0.31322 0.73651 0.62259 0.0
C1456 C 0.30855 0.74504 0.60704 0.0
H1457 H 0.30454 0.80277 0.71885 0.0
H1458 H 0.30786 0.79127 0.6882 0.0
C1459 C 0.3071 0.73652 0.58949 0.0
C1460 C 0.31299 0.74461 0.6413 0.0
H1461 H 0.28466 0.75895 0.66916 0.0
C1462 C 0.32919 0.74766 0.654 0.0
C1463 C 0.29667 0.74859 0.64689 0.0
C1464 C 0.27851 0.74467 0.63427 0.0
C1465 C 0.32956 0.75479 0.67204 0.0
C1466 C 0.31328 0.75884 0.67754 0.0
C1467 C 0.29713 0.75589 0.66485 0.0
C1468 C 0.31259 0.7661 0.69642 0.0
C1469 C 0.3474 0.75816 0.68504 0.0
C1470 C 0.31416 0.75572 0.71123 0.0
C1471 C 0.31218 0.76221 0.72883 0.0
C1472 C 0.3086 0.77921 0.7319 0.0
C1473 C 0.30734 0.78964 0.71703 0.0
C1474 C 0.30921 0.78311 0.69947 0.0
H1475 H 0.35957 0.75786 0.67774 0.0
H1476 H 0.34983 0.77125 0.69311 0.0
H1477 H 0.34636 0.74771 0.69477 0.0
H1478 H 0.31648 0.74244 0.7091 0.0
H1479 H 0.31318 0.7538 0.73994 0.0
H1480 H 0.62042 0.94883 0.80947 0.0
H1481 H 0.60817 0.95329 0.83829 0.0
H1482 H 0.56122 0.96843 0.80905 0.0
H1483 H 0.57331 0.96405 0.78022 0.0
H1484 H 0.60386 0.98883 0.84719 0.0
H1485 H 0.53872 0.93797 0.84913 0.0
H1486 H 0.55643 0.93436 0.83548 0.0
H1487 H 0.54074 0.94786 0.82783 0.0
C1488 C 0.60718 0.95255 0.80911 0.0
C1489 C 0.59793 0.95633 0.79265 0.0
C1490 C 0.60022 0.95507 0.82558 0.0
C1491 C 0.58379 0.96111 0.82573 0.0
C1492 C 0.57377 0.96351 0.80916 0.0
H1493 H 0.5307 0.01307 0.90358 0.0
H1494 H 0.53908 0.99826 0.87658 0.0
C1495 C 0.58078 0.96112 0.79272 0.0
C1496 C 0.57891 0.96799 0.84309 0.0
H1497 H 0.5445 0.96374 0.87032 0.0
C1498 C 0.59102 0.98321 0.85243 0.0
C1499 C 0.562 0.96076 0.84958 0.0
C1500 C 0.54874 0.94425 0.8401 0.0
C1501 C 0.58644 0.99176 0.8679 0.0
C1502 C 0.56952 0.98456 0.87445 0.0
C1503 C 0.55747 0.96919 0.86523 0.0
C1504 C 0.56412 0.99295 0.89083 0.0
C1505 C 0.59948 1.00878 0.87666 0.0
C1506 C 0.57536 0.99468 0.90772 0.0
C1507 C 0.57082 1.00339 0.92301 0.0
C1508 C 0.55475 1.01025 0.92179 0.0
C1509 C 0.54331 1.00818 0.90489 0.0
C1510 C 0.54796 0.99956 0.88953 0.0
H1511 H 0.609 0.015 0.86715 0.0
H1512 H 0.59166 0.01858 0.88119 0.0
H1513 H 0.60811 1.00577 0.88883 0.0
H1514 H 0.58775 0.98942 0.90904 0.0
H1515 H 0.58007 1.00493 0.93575 0.0
H1516 H 0.29278 0.35356 0.08103 0.0
H1517 H 0.29276 0.33862 0.10949 0.0
H1518 H 0.28627 0.38625 0.13881 0.0
H1519 H 0.2855 0.40085 0.11042 0.0
H1520 H 0.31321 0.34119 0.14027 0.0
H1521 H 0.24827 0.35437 0.16064 0.0
H1522 H 0.25514 0.3592 0.13858 0.0
H1523 H 0.26439 0.37479 0.15841 0.0
C1524 C 0.29107 0.36085 0.09346 0.0
C1525 C 0.28886 0.37857 0.09291 0.0
C1526 C 0.29114 0.35222 0.10998 0.0
C1527 C 0.28903 0.36082 0.12685 0.0
C1528 C 0.28719 0.37864 0.12631 0.0
H1529 H 0.29623 0.33416 0.24363 0.0
H1530 H 0.2947 0.34866 0.2149 0.0
C1531 C 0.28691 0.38719 0.10981 0.0
C1532 C 0.28935 0.35148 0.14484 0.0
H1533 H 0.26779 0.34428 0.18365 0.0
C1534 C 0.30309 0.34184 0.14955 0.0
C1535 C 0.27632 0.35192 0.15755 0.0
C1536 C 0.2601 0.36046 0.15347 0.0
C1537 C 0.3044 0.33332 0.16615 0.0
C1538 C 0.29157 0.33402 0.17893 0.0
C1539 C 0.27784 0.34362 0.17427 0.0
C1540 C 0.29209 0.32484 0.19692 0.0
C1541 C 0.32 0.32394 0.17007 0.0
C1542 C 0.29078 0.30631 0.19707 0.0
C1543 C 0.29142 0.29787 0.21365 0.0
C1544 C 0.2935 0.30751 0.23099 0.0
C1545 C 0.29461 0.32603 0.23083 0.0
C1546 C 0.29374 0.33445 0.2142 0.0
H1547 H 0.33142 0.32852 0.16182 0.0
H1548 H 0.32579 0.32613 0.18479 0.0
H1549 H 0.31458 0.30942 0.16655 0.0
H1550 H 0.28912 0.29821 0.18426 0.0
H1551 H 0.29052 0.28367 0.21281 0.0
H1552 H 0.2738 0.92614 0.07865 0.0
H1553 H 0.25027 0.94362 0.07563 0.0
H1554 H 0.2309 0.91931 0.0207 0.0
H1555 H 0.25439 0.9014 0.02372 0.0
H1556 H 0.24703 0.9681 0.05021 0.0
H1557 H 0.18281 0.91413 0.04402 0.0
H1558 H 0.20547 0.91061 0.05208 0.0
H1559 H 0.19881 0.91175 0.02811 0.0
C1560 C 0.26446 0.92435 0.06596 0.0
C1561 C 0.26596 0.91237 0.05142 0.0
C1562 C 0.25102 0.93439 0.06425 0.0
C1563 C 0.23877 0.93269 0.048 0.0
C1564 C 0.24003 0.92061 0.03347 0.0
H1565 H 0.15173 0.99147 0.02433 0.0
H1566 H 0.17395 0.97276 0.02087 0.0
C1567 C 0.25349 0.91044 0.0352 0.0
C1568 C 0.22525 0.94418 0.0463 0.0
H1569 H 0.17894 0.94351 0.04254 0.0
C1570 C 0.23214 0.96272 0.04843 0.0
C1571 C 0.20584 0.93712 0.04388 0.0
C1572 C 0.1977 0.91732 0.04202 0.0
C1573 C 0.22015 0.97439 0.0486 0.0
C1574 C 0.20079 0.96733 0.04677 0.0
C1575 C 0.19383 0.94883 0.04398 0.0
C1576 C 0.18762 0.97892 0.04871 0.0
C1577 C 0.22829 0.9942 0.05084 0.0
C1578 C 0.18792 0.98845 0.06556 0.0
C1579 C 0.17515 0.999 0.06766 0.0
C1580 C 0.16181 1.00018 0.05294 0.0
C1581 C 0.16165 0.99067 0.03602 0.0
C1582 C 0.17438 0.98005 0.03397 0.0
H1583 H 0.24272 0.99748 0.04742 0.0
H1584 H 0.21967 1.00129 0.04205 0.0
H1585 H 0.22861 0.99924 0.0653 0.0
H1586 H 0.19785 0.98749 0.07718 0.0
H1587 H 0.17546 1.00587 0.08095 0.0
H1588 H 0.78151 0.60493 0.04634 0.0
H1589 H 0.74932 0.58831 0.04659 0.0
H1590 H 0.72925 0.62887 0.01831 0.0
H1591 H 0.76107 0.64512 0.01754 0.0
H1592 H 0.72095 0.59476 0.06185 0.0
H1593 H 0.6975 0.58717 0.98766 0.0
H1594 H 0.72164 0.59504 0.99689 0.0
H1595 H 0.7063 0.61016 0.99564 0.0
C1596 C 0.77029 0.61018 0.03985 0.0
C1597 C 0.7743 0.62644 0.03171 0.0
C1598 C 0.7517 0.60065 0.0401 0.0
C1599 C 0.73638 0.60693 0.03215 0.0
C1600 C 0.74044 0.62316 0.02407 0.0
H1601 H 0.62218 0.5781 0.06094 0.0
H1602 H 0.65489 0.59081 0.05915 0.0
C1603 C 0.75891 0.63262 0.02375 0.0
C1604 C 0.7163 0.59707 0.0329 0.0
H1605 H 0.67347 0.58222 1.00695 0.0
C1606 C 0.71067 0.59196 0.04975 0.0
C1607 C 0.70252 0.59288 0.01723 0.0
C1608 C 0.70733 0.59642 0.99832 0.0
C1609 C 0.69203 0.5835 0.05146 0.0
C1610 C 0.67802 0.58023 0.03598 0.0
C1611 C 0.68378 0.58482 0.01902 0.0
C1612 C 0.65751 0.57219 0.03705 0.0
C1613 C 0.68771 0.57778 0.06994 0.0
C1614 C 0.64718 0.55766 0.02487 0.0
C1615 C 0.62809 0.55039 0.02571 0.0
C1616 C 0.61852 0.5574 0.03876 0.0
C1617 C 0.62885 0.57202 0.05082 0.0
C1618 C 0.64784 0.57931 0.0499 0.0
H1619 H 0.70022 0.57552 0.07835 0.0
H1620 H 0.68297 0.58848 0.07742 0.0
H1621 H 0.67663 0.56537 0.06863 0.0
H1622 H 0.65392 0.5518 0.01466 0.0
H1623 H 0.62083 0.53928 0.01605 0.0
H1624 H 0.70909 0.50063 0.35515 0.0
H1625 H 0.72576 0.47651 0.35478 0.0
H1626 H 0.74128 0.48946 0.30192 0.0
H1627 H 0.72464 0.51329 0.30205 0.0
H1628 H 0.72567 0.45297 0.3044 0.0
H1629 H 0.78311 0.48168 0.36059 0.0
H1630 H 0.75979 0.48039 0.36558 0.0
H1631 H 0.7689 0.49501 0.34922 0.0
C1632 C 0.7161 0.49833 0.34349 0.0
C1633 C 0.71555 0.50884 0.32863 0.0
C1634 C 0.72568 0.48465 0.34335 0.0
C1635 C 0.73486 0.48138 0.3284 0.0
C1636 C 0.73429 0.49184 0.31359 0.0
H1637 H 0.8163 0.42368 0.30494 0.0
H1638 H 0.79891 0.44595 0.31279 0.0
C1639 C 0.72477 0.50545 0.3137 0.0
C1640 C 0.74465 0.46676 0.32764 0.0
H1641 H 0.78332 0.45375 0.34592 0.0
C1642 C 0.73818 0.45301 0.31357 0.0
C1643 C 0.76103 0.46706 0.33955 0.0
C1644 C 0.76878 0.48186 0.35454 0.0
C1645 C 0.74788 0.43968 0.31084 0.0
C1646 C 0.7643 0.43999 0.3227 0.0
C1647 C 0.77065 0.45357 0.33696 0.0
C1648 C 0.77548 0.42675 0.31981 0.0
C1649 C 0.74085 0.42574 0.29488 0.0
C1650 C 0.76817 0.40872 0.32157 0.0
C1651 C 0.77794 0.396 0.31693 0.0
C1652 C 0.79527 0.40113 0.31058 0.0
C1653 C 0.80288 0.41931 0.30954 0.0
C1654 C 0.79306 0.43204 0.31416 0.0
H1655 H 0.73025 0.42951 0.28497 0.0
H1656 H 0.75246 0.42352 0.28754 0.0
H1657 H 0.73438 0.41296 0.30002 0.0
H1658 H 0.75468 0.40445 0.32605 0.0
H1659 H 0.7716 0.38209 0.31771 0.0
H1660 H 0.87062 0.40301 0.53601 0.0
H1661 H 0.89864 0.42644 0.53607 0.0
H1662 H 0.87043 0.46548 0.5558 0.0
H1663 H 0.84243 0.44212 0.55614 0.0
H1664 H 0.90459 0.45716 0.51793 0.0
H1665 H 0.91686 0.47307 0.59336 0.0
H1666 H 0.90058 0.45334 0.58246 0.0
H1667 H 0.89439 0.47455 0.58263 0.0
C1668 C 0.87034 0.41656 0.54034 0.0
C1669 C 0.85434 0.42066 0.54623 0.0
C1670 C 0.88636 0.42994 0.54035 0.0
C1671 C 0.88667 0.44762 0.54622 0.0
C1672 C 0.87058 0.45185 0.55159 0.0
H1673 H 0.97869 0.5358 0.53048 0.0
H1674 H 0.94743 0.51729 0.53038 0.0
C1675 C 0.85458 0.43848 0.55169 0.0
C1676 C 0.90395 0.46155 0.54687 0.0
H1677 H 0.9372 0.49097 0.5761 0.0
C1678 C 0.9117 0.46463 0.53061 0.0
C1679 C 0.91322 0.47113 0.5635 0.0
C1680 C 0.90597 0.46779 0.58152 0.0
C1681 C 0.92863 0.47691 0.53055 0.0
C1682 C 0.93783 0.48658 0.54715 0.0
C1683 C 0.92997 0.48365 0.56337 0.0
C1684 C 0.95636 0.49872 0.54823 0.0
C1685 C 0.93686 0.47893 0.51285 0.0
C1686 C 0.97157 0.49479 0.55888 0.0
C1687 C 0.98937 0.50538 0.5591 0.0
C1688 C 0.9923 0.52014 0.54868 0.0
C1689 C 0.97692 0.52446 0.53857 0.0
C1690 C 0.95907 0.51384 0.5384 0.0
H1691 H 0.93007 0.46786 0.50228 0.0
H1692 H 0.93497 0.49158 0.50742 0.0
H1693 H 0.95199 0.47943 0.5151 0.0
H1694 H 0.96974 0.48321 0.56663 0.0
H1695 H 1.00087 0.50171 0.56711 0.0
H1696 H 0.40727 0.11356 0.28521 0.0
H1697 H 0.38057 0.12529 0.29142 0.0
H1698 H 0.40644 0.14284 0.34669 0.0
H1699 H 0.43346 0.13093 0.34066 0.0
H1700 H 0.35855 0.11637 0.32622 0.0
H1701 H 0.3913 0.18701 0.31749 0.0
H1702 H 0.39867 0.16914 0.30575 0.0
H1703 H 0.40408 0.17326 0.33012 0.0
C1704 C 0.40739 0.11994 0.2987 0.0
C1705 C 0.42253 0.12137 0.31244 0.0
C1706 C 0.39206 0.12653 0.30223 0.0
C1707 C 0.39157 0.13477 0.31951 0.0
C1708 C 0.40663 0.13641 0.33329 0.0
H1709 H 0.308 0.19693 0.31902 0.0
H1710 H 0.33132 0.18291 0.33381 0.0
C1711 C 0.42203 0.12969 0.3298 0.0
C1712 C 0.37533 0.14206 0.32251 0.0
H1713 H 0.35892 0.17937 0.31659 0.0
C1714 C 0.35863 0.13024 0.32459 0.0
C1715 C 0.37561 0.16014 0.32054 0.0
C1716 C 0.39333 0.17325 0.31836 0.0
C1717 C 0.34188 0.13589 0.32367 0.0
C1718 C 0.34187 0.15366 0.32006 0.0
C1719 C 0.35886 0.16573 0.31932 0.0
C1720 C 0.32451 0.15955 0.31446 0.0
C1721 C 0.32436 0.12263 0.32609 0.0
C1722 C 0.31219 0.15064 0.2992 0.0
C1723 C 0.2985 0.15846 0.29088 0.0
C1724 C 0.29714 0.17554 0.2974 0.0
C1725 C 0.30845 0.18371 0.31363 0.0
C1726 C 0.32197 0.17577 0.32208 0.0
H1727 H 0.32742 0.1129 0.33579 0.0
H1728 H 0.31391 0.12929 0.33119 0.0
H1729 H 0.31829 0.11505 0.31273 0.0
H1730 H 0.31402 0.13828 0.29282 0.0
H1731 H 0.28984 0.15165 0.2786 0.0
H1732 H 0.38808 0.13802 0.52675 0.0
H1733 H 0.41531 0.12498 0.52759 0.0
H1734 H 0.39294 0.0889 0.56585 0.0
H1735 H 0.36609 0.10253 0.56563 0.0
H1736 H 0.42734 0.09689 0.57617 0.0
H1737 H 0.42439 0.08299 0.50175 0.0
H1738 H 0.42697 0.1063 0.50765 0.0
H1739 H 0.40619 0.09068 0.51154 0.0
C1740 C 0.38881 0.12723 0.5353 0.0
C1741 C 0.37442 0.12143 0.546 0.0
C1742 C 0.40453 0.11952 0.53564 0.0
C1743 C 0.40655 0.10531 0.54641 0.0
C1744 C 0.39221 0.09965 0.55724 0.0
H1745 H 0.48923 0.03938 0.52785 0.0
H1746 H 0.46187 0.05231 0.52738 0.0
C1747 C 0.37659 0.10751 0.55706 0.0
C1748 C 0.42356 0.09674 0.54683 0.0
H1749 H 0.45222 0.08057 0.51984 0.0
C1750 C 0.4326 0.09332 0.56373 0.0
C1751 C 0.43082 0.09144 0.53084 0.0
C1752 C 0.42148 0.09285 0.51193 0.0
C1753 C 0.44825 0.08532 0.56511 0.0
C1754 C 0.4561 0.08087 0.54919 0.0
C1755 C 0.44687 0.08401 0.53227 0.0
C1756 C 0.47338 0.07269 0.54968 0.0
C1757 C 0.45568 0.08115 0.58382 0.0
C1758 C 0.48976 0.07952 0.56211 0.0
C1759 C 0.50549 0.07183 0.5626 0.0
C1760 C 0.50591 0.05712 0.55039 0.0
C1761 C 0.48974 0.05055 0.53763 0.0
C1762 C 0.4739 0.0581 0.53732 0.0
H1763 H 0.4448 0.07943 0.59309 0.0
H1764 H 0.46103 0.06884 0.5831 0.0
H1765 H 0.46713 0.09242 0.59005 0.0
H1766 H 0.49063 0.0911 0.57143 0.0
H1767 H 0.51755 0.07769 0.57248 0.0
H1768 H 0.74139 0.59011 0.33125 0.0
H1769 H 0.76263 0.61858 0.32879 0.0
H1770 H 0.72587 0.6462 0.35346 0.0
H1771 H 0.7049 0.61777 0.35654 0.0
H1772 H 0.75365 0.64249 0.30796 0.0
H1773 H 0.77527 0.67433 0.37847 0.0
H1774 H 0.76437 0.65095 0.37369 0.0
H1775 H 0.75048 0.66733 0.37351 0.0
C1776 C 0.73804 0.60223 0.33652 0.0
C1777 C 0.72143 0.60173 0.34397 0.0
C1778 C 0.7502 0.61848 0.33514 0.0
C1779 C 0.74593 0.63451 0.34108 0.0
C1780 C 0.72971 0.634 0.34921 0.0
H1781 H 0.77027 0.73294 0.29241 0.0
H1782 H 0.75712 0.70418 0.303 0.0
C1783 C 0.71765 0.61773 0.35082 0.0
C1784 C 0.75705 0.65167 0.33657 0.0
H1785 H 0.77825 0.69403 0.35424 0.0
C1786 C 0.75927 0.65367 0.31815 0.0
C1787 C 0.76455 0.6662 0.34987 0.0
C1788 C 0.76372 0.66454 0.37001 0.0
C1789 C 0.76815 0.66997 0.31254 0.0
C1790 C 0.77451 0.6848 0.32564 0.0
C1791 C 0.77305 0.68267 0.34419 0.0
C1792 C 0.78226 0.7027 0.32018 0.0
C1793 C 0.77057 0.67114 0.29261 0.0
C1794 C 0.80053 0.71167 0.32689 0.0
C1795 C 0.80806 0.72824 0.32101 0.0
C1796 C 0.7974 0.73607 0.30833 0.0
C1797 C 0.77893 0.72722 0.30204 0.0
C1798 C 0.7714 0.71074 0.30801 0.0
H1799 H 0.77014 0.65787 0.28566 0.0
H1800 H 0.75907 0.67629 0.28557 0.0
H1801 H 0.78392 0.6803 0.29099 0.0
H1802 H 0.80907 0.70569 0.33639 0.0
H1803 H 0.82231 0.73474 0.32619 0.0
H1804 H 0.94013 0.5456 0.77208 0.0
H1805 H 0.922 0.51481 0.76905 0.0
H1806 H 0.95732 0.50313 0.81501 0.0
H1807 H 0.97546 0.53385 0.81827 0.0
H1808 H 0.93353 0.48213 0.76388 0.0
H1809 H 0.90417 0.48839 0.829 0.0
H1810 H 0.91511 0.50746 0.81804 0.0
H1811 H 0.92905 0.49528 0.83135 0.0
C1812 C 0.94411 0.53647 0.78151 0.0
C1813 C 0.95918 0.54224 0.79551 0.0
C1814 C 0.93373 0.5189 0.77973 0.0
C1815 C 0.93816 0.50683 0.79199 0.0
C1816 C 0.9535 0.51237 0.80563 0.0
H1817 H 0.91115 0.39368 0.79073 0.0
H1818 H 0.92445 0.42493 0.78721 0.0
C1819 C 0.9639 0.52991 0.8074 0.0
C1820 C 0.92672 0.48845 0.79066 0.0
H1821 H 0.90023 0.45899 0.81494 0.0
C1822 C 0.9261 0.47708 0.77495 0.0
C1823 C 0.91676 0.48204 0.80499 0.0
C1824 C 0.91611 0.49395 0.82173 0.0
C1825 C 0.91642 0.45918 0.77354 0.0
C1826 C 0.90735 0.45252 0.78831 0.0
C1827 C 0.90731 0.4641 0.80368 0.0
C1828 C 0.89876 0.43339 0.78868 0.0
C1829 C 0.91607 0.44754 0.7563 0.0
C1830 C 0.87993 0.42781 0.79079 0.0
C1831 C 0.87232 0.40995 0.79295 0.0
C1832 C 0.88349 0.39745 0.79326 0.0
C1833 C 0.90224 0.40304 0.79071 0.0
C1834 C 0.90981 0.42085 0.78849 0.0
H1835 H 0.9187 0.45558 0.74451 0.0
H1836 H 0.92712 0.44001 0.7584 0.0
H1837 H 0.90251 0.43782 0.75282 0.0
H1838 H 0.87123 0.43734 0.79113 0.0
H1839 H 0.85788 0.40607 0.79507 0.0
H1840 H 0.11668 0.89209 0.10508 0.0
H1841 H 0.09521 0.9081 0.0899 0.0
H1842 H 0.05698 0.8925 0.12873 0.0
H1843 H 0.07848 0.87653 0.1442 0.0
H1844 H 0.05638 0.89349 0.07447 0.0
H1845 H 0.06583 0.94778 0.1305 0.0
H1846 H 0.08229 0.93385 0.12929 0.0
H1847 H 0.05992 0.92501 0.13596 0.0
C1848 C 0.10377 0.89212 0.11047 0.0
C1849 C 0.09933 0.88314 0.12589 0.0
C1850 C 0.09148 0.90118 0.10173 0.0
C1851 C 0.07458 0.90146 0.10825 0.0
C1852 C 0.07004 0.89252 0.12362 0.0
H1853 H 1.01955 0.98179 0.06318 0.0
H1854 H 1.01923 0.95416 0.07818 0.0
C1855 C 0.08235 0.88344 0.13241 0.0
C1856 C 0.06209 0.91151 0.09892 0.0
H1857 H 0.05037 0.95168 0.10216 0.0
C1858 C 0.05464 0.90602 0.08063 0.0
C1859 C 0.0596 0.92766 0.10713 0.0
C1860 C 0.06734 0.93407 0.12678 0.0
C1861 C 0.04607 0.917 0.06985 0.0
C1862 C 0.04525 0.93394 0.07756 0.0
C1863 C 0.05106 0.93866 0.09631 0.0
C1864 C 0.04248 0.94826 0.06593 0.0
C1865 C 0.03894 0.91084 0.05005 0.0
C1866 C 0.05546 0.95384 0.05395 0.0
C1867 C 0.05581 0.96956 0.04566 0.0
C1868 C 0.04315 0.97997 0.04915 0.0
C1869 C 0.02936 0.97387 0.06021 0.0
C1870 C 0.02918 0.95816 0.06876 0.0
H1871 H 0.0341 0.89611 0.0481 0.0
H1872 H 0.02736 0.91694 0.04492 0.0
H1873 H 0.05039 0.9147 0.04168 0.0
H1874 H 0.06612 0.94664 0.0519 0.0
H1875 H 0.06654 0.97397 0.03712 0.0
H1876 H 0.95598 0.22319 0.88324 0.0
H1877 H 0.92958 0.2206 0.8597 0.0
H1878 H 0.95939 0.20001 0.8199 0.0
H1879 H 0.9861 0.20276 0.84342 0.0
H1880 H 0.94764 0.22883 0.80938 0.0
H1881 H 0.8888 0.18199 0.83127 0.0
H1882 H 0.90043 0.19766 0.85012 0.0
H1883 H 0.91265 0.18259 0.84007 0.0
C1884 C 0.95681 0.21771 0.86961 0.0
C1885 C 0.97323 0.21336 0.86518 0.0
C1886 C 0.94159 0.21604 0.85617 0.0
C1887 C 0.94242 0.20987 0.83808 0.0
C1888 C 0.95842 0.20464 0.83381 0.0
H1889 H 0.84376 0.23011 0.7727 0.0
H1890 H 0.86791 0.21322 0.77886 0.0
C1891 C 0.97367 0.20626 0.84728 0.0
C1892 C 0.92783 0.21179 0.82344 0.0
H1893 H 0.88093 0.20684 0.81502 0.0
C1894 C 0.93303 0.22353 0.81019 0.0
C1895 C 0.90879 0.20462 0.82418 0.0
C1896 C 0.90237 0.19085 0.83707 0.0
C1897 C 0.9197 0.22989 0.79919 0.0
C1898 C 0.90084 0.22451 0.80168 0.0
C1899 C 0.89546 0.21118 0.81333 0.0
C1900 C 0.88728 0.23497 0.79544 0.0
C1901 C 0.92604 0.24327 0.78588 0.0
C1902 C 0.8903 0.25272 0.80266 0.0
C1903 C 0.87658 0.26223 0.79938 0.0
C1904 C 0.85958 0.25418 0.78877 0.0
C1905 C 0.85682 0.23664 0.78084 0.0
C1906 C 0.87054 0.227 0.78434 0.0
H1907 H 0.93894 0.2412 0.78079 0.0
H1908 H 0.91515 0.24245 0.77403 0.0
H1909 H 0.92914 0.25688 0.79295 0.0
H1910 H 0.90296 0.25899 0.81158 0.0
H1911 H 0.8791 0.27574 0.80562 0.0
H1912 H 0.60593 0.29435 0.62797 0.0
H1913 H 0.59843 0.26263 0.61799 0.0
H1914 H 0.57229 0.2511 0.66636 0.0
H1915 H 0.57957 0.28288 0.67646 0.0
H1916 H 0.61198 0.23798 0.63909 0.0
H1917 H 0.53491 0.22045 0.62434 0.0
H1918 H 0.54843 0.24306 0.6254 0.0
H1919 H 0.54424 0.23272 0.6461 0.0
C1920 C 0.59836 0.28512 0.63639 0.0
C1921 C 0.59346 0.29112 0.65308 0.0
C1922 C 0.59406 0.26702 0.63063 0.0
C1923 C 0.5847 0.25462 0.64138 0.0
C1924 C 0.57925 0.26054 0.65775 0.0
H1925 H 0.58777 0.14388 0.64357 0.0
H1926 H 0.58806 0.17521 0.65121 0.0
C1927 C 0.58354 0.27868 0.66354 0.0
C1928 C 0.58237 0.23544 0.63636 0.0
H1929 H 0.5501 0.19635 0.62499 0.0
C1930 C 0.59846 0.22888 0.63593 0.0
C1931 C 0.5647 0.22372 0.63218 0.0
C1932 C 0.54705 0.23031 0.63185 0.0
C1933 C 0.59735 0.21077 0.63166 0.0
C1934 C 0.57971 0.19897 0.62795 0.0
C1935 C 0.56358 0.20552 0.62806 0.0
C1936 C 0.57793 0.17979 0.62369 0.0
C1937 C 0.61504 0.20437 0.63101 0.0
C1938 C 0.57176 0.17208 0.60577 0.0
C1939 C 0.57175 0.15428 0.60132 0.0
C1940 C 0.5778 0.14393 0.61477 0.0
C1941 C 0.58335 0.1516 0.63286 0.0
C1942 C 0.58341 0.16941 0.63727 0.0
H1943 H 0.62727 0.21556 0.63088 0.0
H1944 H 0.6176 0.19716 0.64325 0.0
H1945 H 0.6138 0.19498 0.6187 0.0
H1946 H 0.56756 0.17999 0.59514 0.0
H1947 H 0.56759 0.1488 0.58723 0.0
H1948 H 0.55661 0.71975 0.34612 0.0
H1949 H 0.57966 0.7167 0.32589 0.0
H1950 H 0.62356 0.74245 0.36873 0.0
H1951 H 0.60063 0.74489 0.38923 0.0
H1952 H 0.60171 0.74271 0.31356 0.0
H1953 H 0.64534 0.70331 0.34999 0.0
H1954 H 0.62304 0.70489 0.35639 0.0
H1955 H 0.64361 0.72184 0.36493 0.0
C1956 C 0.57121 0.72448 0.35132 0.0
C1957 C 0.57686 0.73262 0.36922 0.0
C1958 C 0.58434 0.72268 0.33976 0.0
C1959 C 0.60334 0.72911 0.34586 0.0
C1960 C 0.60902 0.73689 0.36388 0.0
H1961 H 0.6894 0.78281 0.29312 0.0
H1962 H 0.66075 0.77128 0.30572 0.0
C1963 C 0.59589 0.73844 0.37555 0.0
C1964 C 0.61708 0.72966 0.33286 0.0
H1965 H 0.66047 0.72343 0.32925 0.0
C1966 C 0.61438 0.73811 0.31679 0.0
C1967 C 0.63341 0.72331 0.33679 0.0
C1968 C 0.63639 0.71265 0.35287 0.0
C1969 C 0.62817 0.74157 0.30529 0.0
C1970 C 0.64529 0.73695 0.31031 0.0
C1971 C 0.64745 0.72728 0.32559 0.0
C1972 C 0.66171 0.74357 0.30109 0.0
C1973 C 0.62437 0.75051 0.2881 0.0
C1974 C 0.67196 0.73184 0.29463 0.0
C1975 C 0.68852 0.73845 0.28764 0.0
C1976 C 0.695 0.75688 0.287 0.0
C1977 C 0.68452 0.76854 0.29313 0.0
C1978 C 0.66811 0.76195 0.30026 0.0
H1979 H 0.60933 0.74696 0.28272 0.0
H1980 H 0.62843 0.76517 0.29129 0.0
H1981 H 0.63229 0.74677 0.27723 0.0
H1982 H 0.66732 0.71762 0.29529 0.0
H1983 H 0.69636 0.7292 0.28293 0.0
H1984 H 0.06551 0.22307 0.42557 0.0
H1985 H 0.06305 0.19459 0.43879 0.0
H1986 H 0.05213 0.21837 0.48935 0.0
H1987 H 0.0538 0.24686 0.47577 0.0
H1988 H 0.07942 0.17969 0.4623 0.0
H1989 H 1.01307 0.17608 0.48972 0.0
H1990 H 0.02181 0.19317 0.4754 0.0
H1991 H 0.03016 0.19544 0.49956 0.0
C1992 C 0.06248 0.22244 0.43953 0.0
C1993 C 0.05981 0.23791 0.44928 0.0
C1994 C 0.06108 0.20578 0.44725 0.0
C1995 C 0.0569 0.20333 0.46529 0.0
C1996 C 0.05464 0.21892 0.47525 0.0
H1997 H 0.0495 0.11102 0.53581 0.0
H1998 H 0.05124 0.14 0.52331 0.0
C1999 C 0.05587 0.23564 0.46744 0.0
C2000 C 0.05542 0.18483 0.47339 0.0
H2001 H 0.02982 0.15453 0.49883 0.0
C2002 C 0.06837 0.17434 0.47014 0.0
C2003 C 0.0412 0.17695 0.48386 0.0
C2004 C 0.02566 0.18588 0.48719 0.0
C2005 C 0.0678 0.15724 0.47699 0.0
C2006 C 0.05369 0.14948 0.48755 0.0
C2007 C 0.04079 0.15994 0.49091 0.0
C2008 C 0.05221 0.13088 0.49526 0.0
C2009 C 0.08287 0.14785 0.47319 0.0
C2010 C 0.05176 0.1151 0.48411 0.0
C2011 C 0.05056 0.09816 0.49134 0.0
C2012 C 0.0498 0.09592 0.51019 0.0
C2013 C 0.05006 0.11167 0.52128 0.0
C2014 C 0.05105 0.12856 0.51402 0.0
H2015 H 0.09538 0.15727 0.46987 0.0
H2016 H 0.08705 0.14081 0.48508 0.0
H2017 H 0.07763 0.13788 0.46124 0.0
H2018 H 0.05215 0.11576 0.46957 0.0
H2019 H 0.05043 0.08676 0.48203 0.0
H2020 H 0.59194 0.28576 0.21408 0.0
H2021 H 0.62271 0.28668 0.23087 0.0
H2022 H 0.64795 0.30157 0.18283 0.0
H2023 H 0.61755 0.3015 0.16644 0.0
H2024 H 0.64811 0.26968 0.22992 0.0
H2025 H 0.68359 0.33701 0.21636 0.0
H2026 H 0.65888 0.32889 0.21042 0.0
H2027 H 0.67466 0.32365 0.19525 0.0
C2028 C 0.60405 0.28956 0.20713 0.0
C2029 C 0.60185 0.29385 0.18877 0.0
C2030 C 0.62186 0.28999 0.2168 0.0
C2031 C 0.63834 0.29465 0.20859 0.0
C2032 C 0.63603 0.29863 0.19014 0.0
H2033 H 0.74326 0.26451 0.25305 0.0
H2034 H 0.71255 0.26529 0.23776 0.0
C2035 C 0.61832 0.29844 0.18058 0.0
C2036 C 0.65762 0.29472 0.21893 0.0
H2037 H 0.70332 0.31818 0.2271 0.0
C2038 C 0.66007 0.28042 0.22929 0.0
C2039 C 0.67369 0.30873 0.21884 0.0
C2040 C 0.67255 0.32551 0.2098 0.0
C2041 C 0.67758 0.27954 0.23891 0.0
C2042 C 0.69387 0.29303 0.23791 0.0
C2043 C 0.69133 0.30753 0.2279 0.0
C2044 C 0.71341 0.29258 0.24725 0.0
C2045 C 0.6781 0.26428 0.2506 0.0
C2046 C 0.72535 0.3078 0.2573 0.0
C2047 C 0.74341 0.30749 0.26581 0.0
C2048 C 0.75041 0.29191 0.26478 0.0
C2049 C 0.73857 0.27676 0.25458 0.0
C2050 C 0.72065 0.27715 0.24586 0.0
H2051 H 0.66436 0.25908 0.25513 0.0
H2052 H 0.68154 0.25321 0.24244 0.0
H2053 H 0.68861 0.2683 0.26293 0.0
H2054 H 0.72065 0.32005 0.25876 0.0
H2055 H 0.75187 0.31953 0.27337 0.0
H2056 H 0.57932 0.83542 0.97946 0.0
H2057 H 0.57842 0.86454 0.99479 0.0
H2058 H 0.55081 0.87789 0.94491 0.0
H2059 H 0.55137 0.84921 0.92987 0.0
H2060 H 0.59237 0.89975 0.99113 0.0
H2061 H 0.51652 0.89131 0.9774 0.0
H2062 H 0.52751 0.8731 0.97339 0.0
H2063 H 0.52632 0.88897 0.95661 0.0
C2064 C 0.57286 0.84441 0.97172 0.0
C2065 C 0.56526 0.83923 0.95315 0.0
C2066 C 0.5724 0.86137 0.98059 0.0
C2067 C 0.56412 0.87397 0.97147 0.0
C2068 C 0.5568 0.86879 0.95292 0.0
H2069 H 0.54416 0.98321 0.99332 0.0
H2070 H 0.54622 0.95364 0.98102 0.0
C2071 C 0.55729 0.85204 0.94411 0.0
C2072 C 0.56328 0.89241 0.98083 0.0
H2073 H 0.53394 0.92084 0.98682 0.0
C2074 C 0.57946 0.90415 0.99025 0.0
C2075 C 0.54667 0.89894 0.98005 0.0
C2076 C 0.52824 0.88737 0.97149 0.0
C2077 C 0.57965 0.92172 0.99802 0.0
C2078 C 0.56306 0.92832 0.99707 0.0
C2079 C 0.54686 0.91647 0.98781 0.0
C2080 C 0.56213 0.94725 1.00511 0.0
C2081 C 0.59806 0.93332 1.00656 0.0
C2082 C 0.57006 0.95449 0.02317 0.0
C2083 C 0.56894 0.9718 0.03035 0.0
C2084 C 0.55965 0.98288 0.01998 0.0
C2085 C 0.55154 0.97555 1.00203 0.0
C2086 C 0.55269 0.9583 0.99487 0.0
H2087 H 0.60986 0.92898 1.00121 0.0
H2088 H 0.59901 0.94747 1.00399 0.0
H2089 H 0.59964 0.93233 0.02155 0.0
H2090 H 0.57697 0.94663 0.03203 0.0
H2091 H 0.5753 0.97645 0.04422 0.0
H2092 H 0.97331 0.80314 0.6779 0.0
H2093 H 0.94537 0.80354 0.69234 0.0
H2094 H 0.96102 0.76825 0.73105 0.0
H2095 H 0.98858 0.76724 0.71608 0.0
H2096 H 0.92618 0.75842 0.72469 0.0
H2097 H 0.93636 0.83127 0.73468 0.0
H2098 H 0.93458 0.82407 0.71091 0.0
H2099 H 0.95383 0.82102 0.72669 0.0
C2100 C 0.97096 0.79549 0.68955 0.0
C2101 C 0.98372 0.78525 0.69566 0.0
C2102 C 0.95481 0.79587 0.69809 0.0
C2103 C 0.95067 0.78634 0.71348 0.0
C2104 C 0.96337 0.77594 0.71943 0.0
H2105 H 0.86592 0.80969 0.78341 0.0
H2106 H 0.89414 0.8089 0.7694 0.0
C2107 C 0.97942 0.7754 0.71077 0.0
C2108 C 0.93317 0.78675 0.72299 0.0
H2109 H 0.90666 0.81436 0.73922 0.0
C2110 C 0.92211 0.77078 0.72784 0.0
C2111 C 0.92735 0.80267 0.72783 0.0
C2112 C 0.93875 0.82073 0.72495 0.0
C2113 C 0.90591 0.7702 0.73671 0.0
C2114 C 0.89956 0.78601 0.7407 0.0
C2115 C 0.91081 0.80203 0.73617 0.0
C2116 C 0.88173 0.78631 0.74969 0.0
C2117 C 0.8962 0.75248 0.7423 0.0
C2118 C 0.86454 0.77414 0.74368 0.0
C2119 C 0.84826 0.77443 0.75198 0.0
C2120 C 0.84807 0.78713 0.76658 0.0
C2121 C 0.86514 0.79954 0.77241 0.0
C2122 C 0.8815 0.79913 0.7642 0.0
H2123 H 0.90587 0.74345 0.74431 0.0
H2124 H 0.89016 0.75403 0.75518 0.0
H2125 H 0.88489 0.74593 0.73129 0.0
H2126 H 0.86347 0.76443 0.7322 0.0
H2127 H 0.83561 0.76474 0.74663 0.0
H2128 H 0.18189 0.0198 0.89526 0.0
H2129 H 0.16357 1.00173 0.91589 0.0
H2130 H 0.11697 0.02446 0.899 0.0
H2131 H 0.13506 0.04252 0.87866 0.0
H2132 H 0.14933 0.01865 0.94419 0.0
H2133 H 0.09267 0.97116 0.90002 0.0
H2134 H 0.1144 0.98119 0.89219 0.0
H2135 H 0.09621 0.99316 0.8925 0.0
C2136 C 0.16764 0.0207 0.89578 0.0
C2137 C 0.15994 0.0327 0.88555 0.0
C2138 C 0.15719 1.01031 0.90744 0.0
C2139 C 0.13883 1.01151 0.90864 0.0
C2140 C 0.13096 0.023 0.89791 0.0
H2141 H 0.05569 0.01681 0.96832 0.0
H2142 H 0.07421 1.00909 0.94506 0.0
C2143 C 0.14142 0.03351 0.8865 0.0
C2144 C 0.12868 1.0033 0.9231 0.0
H2145 H 0.08538 0.98112 0.9297 0.0
C2146 C 0.13557 1.00994 0.94121 0.0
C2147 C 0.11081 0.99196 0.91903 0.0
C2148 C 0.10316 0.98381 0.89987 0.0
C2149 C 0.12426 1.00727 0.95513 0.0
C2150 C 0.10574 0.99709 0.95079 0.0
C2151 C 0.09951 0.98898 0.93297 0.0
C2152 C 0.09195 0.99737 0.96364 0.0
C2153 C 0.13172 0.01687 0.97384 0.0
C2154 C 0.09508 0.99239 0.98148 0.0
C2155 C 0.08489 0.99729 0.99482 0.0
C2156 C 0.07096 1.0065 0.99024 0.0
C2157 C 0.06637 1.00964 0.97202 0.0
C2158 C 0.07692 1.0052 0.95878 0.0
H2159 H 0.14508 0.02669 0.97383 0.0
H2160 H 0.12161 0.02401 0.97889 0.0
H2161 H 0.13422 1.00706 0.98365 0.0
H2162 H 0.10624 0.98587 0.98538 0.0
H2163 H 0.08846 0.99466 1.00887 0.0
H2164 H 0.82824 0.3377 0.58724 0.0
H2165 H 0.83275 0.32523 0.61666 0.0
H2166 H 0.79303 0.35196 0.63701 0.0
H2167 H 0.7889 0.3649 0.6079 0.0
H2168 H 0.82389 0.35703 0.66103 0.0
H2169 H 0.80002 0.28512 0.63782 0.0
H2170 H 0.81849 0.29663 0.6264 0.0
H2171 H 0.7962 0.30227 0.62333 0.0
C2172 C 0.82025 0.3407 0.59788 0.0
C2173 C 0.80817 0.35226 0.59521 0.0
C2174 C 0.82282 0.33352 0.6147 0.0
C2175 C 0.81309 0.3375 0.62901 0.0
C2176 C 0.80072 0.34872 0.62619 0.0
H2177 H 0.79208 0.28511 0.72519 0.0
H2178 H 0.79257 0.2967 0.69537 0.0
C2179 C 0.79831 0.35605 0.6095 0.0
C2180 C 0.81622 0.33062 0.64719 0.0
H2181 H 0.81327 0.29246 0.66878 0.0
C2182 C 0.8216 0.3429 0.66274 0.0
C2183 C 0.81315 0.31219 0.6494 0.0
C2184 C 0.80648 0.29827 0.63338 0.0
C2185 C 0.82363 0.33728 0.68044 0.0
C2186 C 0.82069 0.31886 0.68263 0.0
C2187 C 0.81569 0.30659 0.66706 0.0
C2188 C 0.82101 0.3119 0.70095 0.0
C2189 C 0.82812 0.3511 0.69663 0.0
C2190 C 0.83691 0.31651 0.7141 0.0
C2191 C 0.83664 0.31 0.73141 0.0
C2192 C 0.82054 0.29856 0.73572 0.0
C2193 C 0.80478 0.29382 0.72238 0.0
C2194 C 0.80502 0.30042 0.70525 0.0
H2195 H 0.82566 0.36414 0.69277 0.0
H2196 H 0.81966 0.3467 0.70764 0.0
H2197 H 0.84299 0.35312 0.70222 0.0
H2198 H 0.84954 0.32508 0.71097 0.0
H2199 H 0.84904 0.31384 0.74134 0.0
H2200 H 0.53279 0.08793 0.37209 0.0
H2201 H 0.54558 0.09162 0.40422 0.0
H2202 H 0.50993 0.12697 0.41544 0.0
H2203 H 0.49647 0.12284 0.38306 0.0
H2204 H 0.56369 0.11977 0.42836 0.0
H2205 H 0.49511 0.08847 0.44909 0.0
H2206 H 0.4989 0.08845 0.42544 0.0
H2207 H 0.49634 0.10843 0.4376 0.0
C2208 C 0.52769 0.0966 0.38131 0.0
C2209 C 0.5134 0.10489 0.37507 0.0
C2210 C 0.53512 0.09878 0.3997 0.0
C2211 C 0.52853 0.10935 0.4123 0.0
C2212 C 0.51495 0.11845 0.40601 0.0
H2213 H 0.55154 0.09197 0.52822 0.0
H2214 H 0.54572 0.10968 0.50267 0.0
C2215 C 0.50733 0.11614 0.38752 0.0
C2216 C 0.53513 0.10946 0.43203 0.0
H2217 H 0.52119 0.09239 0.47097 0.0
C2218 C 0.55436 0.11415 0.43782 0.0
C2219 C 0.52294 0.10219 0.4444 0.0
C2220 C 0.50218 0.09647 0.43889 0.0
C2221 C 0.56179 0.11058 0.45516 0.0
C2222 C 0.54967 0.10214 0.46695 0.0
C2223 C 0.53041 0.09886 0.46182 0.0
C2224 C 0.55649 0.09396 0.48317 0.0
C2225 C 0.58257 0.11509 0.46042 0.0
C2226 C 0.56473 0.07947 0.48069 0.0
C2227 C 0.56785 0.06922 0.49513 0.0
C2228 C 0.56286 0.07335 0.51235 0.0
C2229 C 0.55565 0.08853 0.51512 0.0
C2230 C 0.5523 0.09866 0.50057 0.0
H2231 H 0.58942 0.12613 0.45285 0.0
H2232 H 0.58635 0.1189 0.47535 0.0
H2233 H 0.58806 0.10324 0.45695 0.0
H2234 H 0.56773 0.07542 0.46727 0.0
H2235 H 0.57344 0.05761 0.49259 0.0
H2236 H 0.81745 0.71232 0.07825 0.0
H2237 H 0.81644 0.72709 0.10841 0.0
H2238 H 0.84783 0.6925 0.13408 0.0
H2239 H 0.84894 0.67778 0.10407 0.0
H2240 H 0.8013 0.71487 0.13873 0.0
H2241 H 0.8768 0.73952 0.15977 0.0
H2242 H 0.8672 0.73111 0.13653 0.0
H2243 H 0.87016 0.71597 0.15362 0.0
C2244 C 0.82442 0.70796 0.09023 0.0
C2245 C 0.83348 0.69378 0.08828 0.0
C2246 C 0.82373 0.71644 0.10768 0.0
C2247 C 0.83227 0.71133 0.12399 0.0
C2248 C 0.84142 0.69725 0.12203 0.0
H2249 H 0.84333 0.74466 0.24318 0.0
H2250 H 0.84502 0.73104 0.21273 0.0
C2251 C 0.84199 0.68869 0.10463 0.0
C2252 C 0.83113 0.72023 0.14288 0.0
H2253 H 0.85744 0.74149 0.18281 0.0
C2254 C 0.81366 0.72078 0.14825 0.0
C2255 C 0.84704 0.72799 0.1558 0.0
C2256 C 0.86637 0.72881 0.15114 0.0
C2257 C 0.81165 0.72825 0.16584 0.0
C2258 C 0.82757 0.73614 0.17875 0.0
C2259 C 0.84505 0.73561 0.17333 0.0
C2260 C 0.82646 0.74479 0.19781 0.0
C2261 C 0.79224 0.72688 0.17056 0.0
C2262 C 0.81574 0.75757 0.20031 0.0
C2263 C 0.81463 0.76536 0.21794 0.0
C2264 C 0.82442 0.76097 0.23395 0.0
C2265 C 0.83547 0.7485 0.23144 0.0
C2266 C 0.83648 0.74063 0.21381 0.0
H2267 H 0.78214 0.7157 0.16223 0.0
H2268 H 0.79157 0.72491 0.18524 0.0
H2269 H 0.78782 0.73934 0.16758 0.0
H2270 H 0.80828 0.76177 0.18854 0.0
H2271 H 0.8061 0.77497 0.21896 0.0
H2272 H 0.1952 0.04696 0.78132 0.0
H2273 H 0.17801 0.04538 0.75064 0.0
H2274 H 0.12943 0.05187 0.77443 0.0
H2275 H 0.14641 0.05366 0.80502 0.0
H2276 H 0.14326 0.0224 0.7336 0.0
H2277 H 0.14033 0.0936 0.74183 0.0
H2278 H 0.15591 0.08421 0.75678 0.0
H2279 H 0.13182 0.08079 0.75981 0.0
C2280 C 0.18081 0.04792 0.78001 0.0
C2281 C 0.17224 0.05067 0.79559 0.0
C2282 C 0.17104 0.047 0.76251 0.0
C2283 C 0.1526 0.04883 0.76038 0.0
C2284 C 0.14377 0.05077 0.77586 0.0
H2285 H 0.07007 0.05712 0.67162 0.0
H2286 H 0.08723 0.05366 0.70098 0.0
C2287 C 0.15351 0.05175 0.79332 0.0
C2288 C 0.1427 0.04941 0.74201 0.0
H2289 H 0.12206 0.07629 0.7158 0.0
C2290 C 0.1387 0.03418 0.72961 0.0
C2291 C 0.13688 0.06487 0.73694 0.0
C2292 C 0.14158 0.08187 0.74945 0.0
C2293 C 0.12849 0.03385 0.71232 0.0
C2294 C 0.12242 0.04922 0.7074 0.0
C2295 C 0.12664 0.0645 0.71973 0.0
C2296 C 0.11168 0.0499 0.68948 0.0
C2297 C 0.12388 0.01699 0.69964 0.0
C2298 C 0.11982 0.04894 0.67339 0.0
C2299 C 0.11013 0.05105 0.65663 0.0
C2300 C 0.09217 0.05425 0.65575 0.0
C2301 C 0.08397 0.05492 0.6719 0.0
C2302 C 0.09368 0.05282 0.68864 0.0
H2303 H 0.12597 1.00529 0.70696 0.0
H2304 H 0.10927 0.01428 0.69295 0.0
H2305 H 0.13305 0.01857 0.68875 0.0
H2306 H 0.13386 0.04706 0.67386 0.0
H2307 H 0.11691 0.05073 0.64445 0.0
H2308 H 0.8239 0.33508 0.49171 0.0
H2309 H 0.81717 0.32459 0.45934 0.0
H2310 H 0.76611 0.34266 0.45555 0.0
H2311 H 0.77309 0.35379 0.48799 0.0
H2312 H 0.78957 0.30079 0.43885 0.0
H2313 H 0.79121 0.36832 0.41614 0.0
H2314 H 0.79842 0.36477 0.43951 0.0
H2315 H 0.77413 0.36091 0.43094 0.0
C2316 C 0.81116 0.33675 0.48407 0.0
C2317 C 0.79912 0.34545 0.49242 0.0
C2318 C 0.80731 0.3307 0.46553 0.0
C2319 C 0.79131 0.33313 0.45488 0.0
C2320 C 0.77878 0.34104 0.46336 0.0
H2321 H 0.76889 0.28411 0.3407 0.0
H2322 H 0.7645 0.29167 0.37235 0.0
C2323 C 0.78272 0.34727 0.48194 0.0
C2324 C 0.78836 0.32789 0.43485 0.0
H2325 H 0.78566 0.3447 0.39314 0.0
C2326 C 0.78854 0.31035 0.42882 0.0
C2327 C 0.78721 0.34042 0.42179 0.0
C2328 C 0.78789 0.3597 0.42736 0.0
C2329 C 0.78822 0.30512 0.41021 0.0
C2330 C 0.78715 0.31767 0.39716 0.0
C2331 C 0.78635 0.33506 0.40313 0.0
C2332 C 0.78869 0.31361 0.37754 0.0
C2333 C 0.79001 0.28648 0.40484 0.0
C2334 C 0.80326 0.32387 0.36965 0.0
C2335 C 0.80563 0.31977 0.35155 0.0
C2336 C 0.79351 0.30524 0.34087 0.0
C2337 C 0.77857 0.29528 0.34859 0.0
C2338 C 0.77612 0.29951 0.36673 0.0
H2339 H 0.795 0.27994 0.41681 0.0
H2340 H 0.77621 0.2783 0.39872 0.0
H2341 H 0.79975 0.28655 0.39454 0.0
H2342 H 0.81311 0.33485 0.37767 0.0
H2343 H 0.81725 0.3278 0.34607 0.0
H2344 H 0.48909 0.10758 0.25383 0.0
H2345 H 0.51012 0.10752 0.2309 0.0
H2346 H 0.55717 0.12195 0.27326 0.0
H2347 H 0.53608 0.12113 0.29643 0.0
H2348 H 0.53931 0.12833 0.21858 0.0
H2349 H 0.56174 0.07364 0.2543 0.0
H2350 H 0.54296 0.08288 0.26067 0.0
H2351 H 0.56666 0.09476 0.26752 0.0
C2352 C 0.50392 0.11116 0.25825 0.0
C2353 C 0.51094 0.11395 0.27695 0.0
C2354 C 0.51595 0.11115 0.24511 0.0
C2355 C 0.5352 0.11417 0.25043 0.0
C2356 C 0.54234 0.119 0.26892 0.0
H2357 H 0.5957 0.09271 0.15766 0.0
H2358 H 0.58928 0.10937 0.18466 0.0
C2359 C 0.53029 0.11863 0.28212 0.0
C2360 C 0.54716 0.10984 0.23691 0.0
H2361 H 0.57187 0.07919 0.22614 0.0
C2362 C 0.54673 0.1178 0.22031 0.0
C2363 C 0.55672 0.09599 0.2392 0.0
C2364 C 0.55699 0.0862 0.25629 0.0
C2365 C 0.55459 0.11155 0.20554 0.0
C2366 C 0.56349 0.09726 0.20766 0.0
C2367 C 0.56506 0.09017 0.22464 0.0
C2368 C 0.5685 0.0875 0.19185 0.0
C2369 C 0.55215 0.11941 0.18746 0.0
C2370 C 0.55936 0.0696 0.1873 0.0
C2371 C 0.56311 0.06009 0.17214 0.0
C2372 C 0.57611 0.06825 0.16114 0.0
C2373 C 0.58554 0.08612 0.16586 0.0
C2374 C 0.58184 0.09566 0.18119 0.0
H2375 H 0.54251 0.12854 0.1874 0.0
H2376 H 0.56581 0.12706 0.1846 0.0
H2377 H 0.54674 0.1087 0.17618 0.0
H2378 H 0.54894 0.06307 0.19528 0.0
H2379 H 0.55532 0.04648 0.16869 0.0
H2380 H 0.84279 0.69807 0.97362 0.0
H2381 H 0.84101 0.71197 0.94462 0.0
H2382 H 0.7869 0.72003 0.95243 0.0
H2383 H 0.78909 0.70698 0.98175 0.0
H2384 H 0.82263 0.70589 0.91317 0.0
H2385 H 0.80539 0.76784 0.93874 0.0
H2386 H 0.81179 0.75226 0.95403 0.0
H2387 H 0.7882 0.74891 0.94297 0.0
C2388 C 0.83056 0.70299 0.96933 0.0
C2389 C 0.81622 0.70144 0.98053 0.0
C2390 C 0.82949 0.71098 0.95249 0.0
C2391 C 0.81398 0.71776 0.94592 0.0
C2392 C 0.79947 0.71581 0.95698 0.0
H2393 H 0.79274 0.73823 0.82766 0.0
H2394 H 0.79508 0.72495 0.85681 0.0
C2395 C 0.80065 0.70806 0.97392 0.0
C2396 C 0.81285 0.72631 0.92753 0.0
H2397 H 0.80094 0.76159 0.90634 0.0
C2398 C 0.81795 0.71813 0.91187 0.0
C2399 C 0.80714 0.7426 0.92519 0.0
C2400 C 0.80303 0.75351 0.94116 0.0
C2401 C 0.81725 0.72532 0.8945 0.0
C2402 C 0.81059 0.7411 0.89193 0.0
C2403 C 0.8058 0.74944 0.90767 0.0
C2404 C 0.80887 0.74938 0.87342 0.0
C2405 C 0.82443 0.71608 0.87926 0.0
C2406 C 0.81493 0.76793 0.87224 0.0
C2407 C 0.81315 0.77572 0.85534 0.0
C2408 C 0.80531 0.76535 0.83869 0.0
C2409 C 0.79916 0.74683 0.83986 0.0
C2410 C 0.80069 0.73909 0.85679 0.0
H2411 H 0.83471 0.70858 0.88472 0.0
H2412 H 0.8127 0.70634 0.87105 0.0
H2413 H 0.83114 0.72569 0.87013 0.0
H2414 H 0.82122 0.77655 0.88447 0.0
H2415 H 0.818 0.78999 0.85538 0.0
H2416 H 0.84796 0.16706 1.00469 0.0
H2417 H 0.87021 0.14978 0.99619 0.0
H2418 H 0.87286 0.13012 0.04962 0.0
H2419 H 0.8505 0.14693 0.05804 0.0
H2420 H 0.90623 0.14948 0.01128 0.0
H2421 H 0.85829 0.0845 0.01552 0.0
H2422 H 0.85066 0.10511 0.01539 0.0
H2423 H 0.86168 0.09887 0.03622 0.0
C2424 C 0.85337 0.15912 0.01463 0.0
C2425 C 0.84731 0.15819 0.03195 0.0
C2426 C 0.86606 0.14926 1.00976 0.0
C2427 C 0.87283 0.13835 0.02214 0.0
C2428 C 0.86742 0.13807 0.03969 0.0
H2429 H 0.96749 0.09145 0.02698 0.0
H2430 H 0.94591 0.1109 0.02881 0.0
C2431 C 0.8547 0.14777 0.04451 0.0
C2432 C 0.88539 0.12704 0.01682 0.0
H2433 H 0.89025 0.08412 0.01499 0.0
C2434 C 0.9027 0.13516 0.01188 0.0
C2435 C 0.88059 0.10832 0.01725 0.0
C2436 C 0.86171 0.09866 0.02119 0.0
C2437 C 0.91566 0.12512 1.00813 0.0
C2438 C 0.91131 0.10655 1.00975 0.0
C2439 C 0.89369 0.09837 0.01395 0.0
C2440 C 0.92492 0.09533 1.00778 0.0
C2441 C 0.93384 0.13453 1.00243 0.0
C2442 C 0.92016 0.07983 0.99567 0.0
C2443 C 0.93229 0.0684 0.99493 0.0
C2444 C 0.94945 0.07222 1.0063 0.0
C2445 C 0.9543 0.08794 0.01819 0.0
C2446 C 0.9421 0.09927 0.01903 0.0
H2447 H 0.93251 0.14689 0.99598 0.0
H2448 H 0.94442 0.13838 0.01472 0.0
H2449 H 0.93891 0.12581 0.99266 0.0
H2450 H 0.90691 0.07642 0.98697 0.0
H2451 H 0.92795 0.05631 0.98581 0.0
H2452 H 0.33892 0.46906 0.04869 0.0
H2453 H 0.37067 0.4863 0.04689 0.0
H2454 H 0.38853 0.43745 0.03822 0.0
H2455 H 0.35717 0.42045 0.03922 0.0
H2456 H 0.40373 0.4911 0.06494 0.0
H2457 H 0.41058 0.46041 0.99771 0.0
H2458 H 0.38875 0.4564 1.00677 0.0
H2459 H 0.40568 0.44358 0.01319 0.0
C2460 C 0.34955 0.46197 0.04623 0.0
C2461 C 0.34498 0.44315 0.04383 0.0
C2462 C 0.3679 0.4719 0.04522 0.0
C2463 C 0.38242 0.46344 0.04182 0.0
C2464 C 0.37788 0.44468 0.04006 0.0
H2465 H 0.50288 0.51337 0.06841 0.0
H2466 H 0.47026 0.49911 0.06869 0.0
C2467 C 0.35966 0.43483 0.04082 0.0
C2468 C 0.40226 0.47391 0.04054 0.0
H2469 H 0.43907 0.47576 0.01584 0.0
C2470 C 0.41131 0.48774 0.05407 0.0
C2471 C 0.41257 0.47021 0.02624 0.0
C2472 C 0.40382 0.45699 0.01007 0.0
C2473 C 0.43 0.49729 0.05405 0.0
C2474 C 0.44071 0.49275 0.04044 0.0
C2475 C 0.43145 0.47932 0.02659 0.0
C2476 C 0.46129 0.50166 0.04021 0.0
C2477 C 0.43779 0.51258 0.0685 0.0
C2478 C 0.46815 0.50743 0.02397 0.0
C2479 C 0.48723 0.51535 0.02368 0.0
C2480 C 0.5003 0.51794 0.03965 0.0
C2481 C 0.49346 0.51202 0.05582 0.0
C2482 C 0.47449 0.50391 0.05604 0.0
H2483 H 0.42659 0.51838 0.07327 0.0
H2484 H 0.44486 0.50765 0.08052 0.0
H2485 H 0.44792 0.52332 0.06335 0.0
H2486 H 0.4587 0.50592 0.01138 0.0
H2487 H 0.49172 0.51953 0.01088 0.0
H2488 H 0.33491 0.55883 0.71148 0.0
H2489 H 0.32223 0.58299 0.72391 0.0
H2490 H 0.36023 0.58814 0.77368 0.0
H2491 H 0.37302 0.56399 0.76144 0.0
H2492 H 0.3211 0.58972 0.77751 0.0
H2493 H 0.35532 0.63548 0.72994 0.0
H2494 H 0.34142 0.61436 0.7197 0.0
H2495 H 0.36222 0.61512 0.735 0.0
C2496 C 0.34041 0.56494 0.72516 0.0
C2497 C 0.35508 0.55963 0.73542 0.0
C2498 C 0.33318 0.57874 0.7322 0.0
C2499 C 0.34048 0.58739 0.74958 0.0
C2500 C 0.35449 0.58159 0.76021 0.0
H2501 H 0.33347 0.69218 0.79188 0.0
H2502 H 0.34375 0.66499 0.78421 0.0
C2503 C 0.36179 0.56784 0.75317 0.0
C2504 C 0.33431 0.6032 0.75623 0.0
H2505 H 0.33584 0.6465 0.74848 0.0
C2506 C 0.32428 0.60215 0.77121 0.0
C2507 C 0.33879 0.61939 0.74808 0.0
C2508 C 0.35015 0.62131 0.73237 0.0
C2509 C 0.31827 0.61694 0.77808 0.0
C2510 C 0.3224 0.63301 0.76964 0.0
C2511 C 0.33268 0.6341 0.75485 0.0
C2512 C 0.31602 0.64891 0.77574 0.0
C2513 C 0.30778 0.61535 0.7944 0.0
C2514 C 0.29704 0.64876 0.77353 0.0
C2515 C 0.29113 0.66429 0.77773 0.0
C2516 C 0.30413 0.68022 0.78416 0.0
C2517 C 0.32313 0.68018 0.78674 0.0
C2518 C 0.32902 0.66466 0.78248 0.0
H2519 H 0.30937 0.60355 0.80176 0.0
H2520 H 0.31258 0.62748 0.80412 0.0
H2521 H 0.29278 0.61396 0.7897 0.0
H2522 H 0.28684 0.63679 0.76799 0.0
H2523 H 0.27642 0.66395 0.7753 0.0
H2524 H 0.25294 0.63335 0.54282 0.0
H2525 H 0.22183 0.61424 0.54046 0.0
H2526 H 0.19915 0.65356 0.51232 0.0
H2527 H 0.2302 0.673 0.515 0.0
H2528 H 0.18034 0.64249 0.53981 0.0
H2529 H 0.18875 0.58375 0.49781 0.0
H2530 H 0.20593 0.58963 0.51765 0.0
H2531 H 0.20544 0.60485 0.50018 0.0
C2532 C 0.24138 0.63788 0.53594 0.0
C2533 C 0.24406 0.65473 0.52912 0.0
C2534 C 0.2236 0.62685 0.53448 0.0
C2535 C 0.2082 0.63234 0.52594 0.0
C2536 C 0.21086 0.64903 0.51887 0.0
H2537 H 0.0959 0.5643 0.50568 0.0
H2538 H 0.12651 0.58219 0.50179 0.0
C2539 C 0.22862 0.66013 0.52043 0.0
C2540 C 0.1892 0.62127 0.52568 0.0
H2541 H 0.1622 0.57939 0.51406 0.0
C2542 C 0.17632 0.62875 0.534 0.0
C2543 C 0.18387 0.60342 0.51788 0.0
C2544 C 0.19667 0.59499 0.50771 0.0
C2545 C 0.15847 0.61871 0.53529 0.0
C2546 C 0.15353 0.60056 0.52846 0.0
C2547 C 0.16614 0.59323 0.51954 0.0
C2548 C 0.13544 0.58896 0.53079 0.0
C2549 C 0.14505 0.62767 0.54389 0.0
C2550 C 0.13057 0.58644 0.54838 0.0
C2551 C 0.11312 0.57636 0.55065 0.0
C2552 C 0.10028 0.5684 0.53534 0.0
C2553 C 0.10547 0.57031 0.51774 0.0
C2554 C 0.12293 0.58052 0.51549 0.0
H2555 H 0.14884 0.64234 0.54333 0.0
H2556 H 0.13062 0.62254 0.53697 0.0
H2557 H 0.14541 0.62497 0.55849 0.0
H2558 H 0.14021 0.59246 0.56038 0.0
H2559 H 0.10963 0.57497 0.5644 0.0
H2560 H 0.70177 0.93319 0.76174 0.0
H2561 H 0.71572 0.91701 0.78478 0.0
H2562 H 0.66921 0.91516 0.81494 0.0
H2563 H 0.65514 0.93157 0.79197 0.0
H2564 H 0.70438 0.92495 0.8371 0.0
H2565 H 0.69773 0.86388 0.79153 0.0
H2566 H 0.70842 0.88341 0.78141 0.0
H2567 H 0.68479 0.88054 0.7861 0.0
C2568 C 0.69443 0.92928 0.7732 0.0
C2569 C 0.67729 0.93354 0.77495 0.0
C2570 C 0.70239 0.91999 0.78633 0.0
C2571 C 0.69333 0.91467 0.80139 0.0
C2572 C 0.67633 0.91907 0.80335 0.0
H2573 H 0.75467 0.84491 0.85131 0.0
H2574 H 0.72653 0.85585 0.8474 0.0
C2575 C 0.66832 0.92838 0.79018 0.0
C2576 C 0.70197 0.90468 0.81503 0.0
H2577 H 0.72174 0.86908 0.81738 0.0
C2578 C 0.70787 0.91251 0.83299 0.0
C2579 C 0.70595 0.88819 0.80985 0.0
C2580 C 0.6987 0.87841 0.79122 0.0
C2581 C 0.71915 0.90504 0.84541 0.0
C2582 C 0.72494 0.88962 0.83949 0.0
C2583 C 0.71755 0.88099 0.82204 0.0
C2584 C 0.74068 0.88366 0.84951 0.0
C2585 C 0.7251 0.91403 0.86451 0.0
C2586 C 0.758 0.89569 0.8539 0.0
C2587 C 0.77425 0.88946 0.85683 0.0
C2588 C 0.77353 0.87109 0.85462 0.0
C2589 C 0.75601 0.85915 0.85288 0.0
C2590 C 0.73975 0.86541 0.85048 0.0
H2591 H 0.71378 0.91959 0.86938 0.0
H2592 H 0.72901 0.90473 0.87433 0.0
H2593 H 0.73719 0.92534 0.86441 0.0
H2594 H 0.75926 0.90984 0.85318 0.0
H2595 H 0.78744 0.89909 0.85894 0.0
H2596 H 0.74626 0.96782 0.57775 0.0
H2597 H 0.71878 0.98072 0.57607 0.0
H2598 H 0.69276 0.94355 0.5298 0.0
H2599 H 0.7202 0.93063 0.53146 0.0
H2600 H 0.7015 0.99787 0.55033 0.0
H2601 H 0.65046 0.93657 0.56008 0.0
H2602 H 0.67518 0.9382 0.56404 0.0
H2603 H 0.66302 0.93415 0.54112 0.0
C2604 C 0.73471 0.96228 0.5672 0.0
C2605 C 0.73582 0.94794 0.55481 0.0
C2606 C 0.71881 0.96977 0.56622 0.0
C2607 C 0.70304 0.96315 0.55299 0.0
C2608 C 0.7042 0.94891 0.54051 0.0
H2609 H 0.59152 0.98944 0.5287 0.0
H2610 H 0.61892 0.97647 0.52954 0.0
C2611 C 0.72017 0.94152 0.54138 0.0
C2612 C 0.68579 0.97131 0.55211 0.0
H2613 H 0.63823 0.96133 0.55217 0.0
C2614 C 0.68772 0.98978 0.55083 0.0
C2615 C 0.6674 0.96114 0.55258 0.0
C2616 C 0.66382 0.94145 0.5547 0.0
C2617 C 0.67229 0.99807 0.54962 0.0
C2618 C 0.65388 0.98796 0.55034 0.0
C2619 C 0.65197 0.96945 0.5516 0.0
C2620 C 0.63664 0.99619 0.54983 0.0
C2621 C 0.67599 0.01764 0.54683 0.0
C2622 C 0.63654 1.01168 0.56106 0.0
C2623 C 0.62076 0.0193 0.56043 0.0
C2624 C 0.60404 1.0117 0.54877 0.0
C2625 C 0.60393 0.99597 0.53783 0.0
C2626 C 0.6198 0.98842 0.53836 0.0
H2627 H 0.68875 0.02189 0.54027 0.0
H2628 H 0.66421 0.02096 0.53819 0.0
H2629 H 0.6782 0.02545 0.56033 0.0
H2630 H 0.64868 0.0179 0.57066 0.0
H2631 H 0.62167 0.03118 0.56936 0.0
H2632 H 0.40412 0.47321 0.74516 0.0
H2633 H 0.39525 0.44139 0.74821 0.0
H2634 H 0.34535 0.43724 0.71056 0.0
H2635 H 0.35397 0.4693 0.7076 0.0
H2636 H 0.33898 0.42231 0.74271 0.0
H2637 H 0.39549 0.39828 0.71401 0.0
H2638 H 0.40401 0.41662 0.73117 0.0
H2639 H 0.39083 0.41983 0.71012 0.0
C2640 C 0.39135 0.46554 0.73733 0.0
C2641 C 0.37972 0.47381 0.72616 0.0
C2642 C 0.38639 0.4473 0.73897 0.0
C2643 C 0.36982 0.43693 0.72936 0.0
C2644 C 0.35829 0.44503 0.71795 0.0
H2645 H 0.31355 0.32747 0.74013 0.0
H2646 H 0.32342 0.35654 0.72868 0.0
C2647 C 0.36323 0.46333 0.71631 0.0
C2648 C 0.36379 0.41799 0.73264 0.0
H2649 H 0.37767 0.37872 0.73278 0.0
C2650 C 0.34727 0.41269 0.74027 0.0
C2651 C 0.37473 0.40555 0.72954 0.0
C2652 C 0.39216 0.4103 0.72059 0.0
C2653 C 0.34173 0.39543 0.74554 0.0
C2654 C 0.3529 0.38313 0.74284 0.0
C2655 C 0.36922 0.38827 0.73487 0.0
C2656 C 0.34796 0.36497 0.74867 0.0
C2657 C 0.32431 0.39065 0.75453 0.0
C2658 C 0.35889 0.35995 0.7633 0.0
C2659 C 0.35332 0.34331 0.76991 0.0
C2660 C 0.33677 0.33147 0.76189 0.0
C2661 C 0.32629 0.33633 0.74673 0.0
C2662 C 0.33186 0.35294 0.74017 0.0
H2663 H 0.31938 0.40261 0.75892 0.0
H2664 H 0.31311 0.38194 0.74468 0.0
H2665 H 0.32669 0.38322 0.76665 0.0
H2666 H 0.37141 0.3691 0.76996 0.0
H2667 H 0.36176 0.33991 0.78152 0.0
H2668 H 0.11747 0.5282 0.26547 0.0
H2669 H 0.12975 0.56051 0.26849 0.0
H2670 H 0.16438 0.55501 0.22659 0.0
H2671 H 0.1523 0.52278 0.2235 0.0
H2672 H 0.16929 0.57688 0.27765 0.0
H2673 H 0.1387 0.59599 0.21181 0.0
H2674 H 0.12901 0.57554 0.22135 0.0
H2675 H 0.14914 0.5772 0.20972 0.0
C2676 C 0.12748 0.53389 0.25669 0.0
C2677 C 0.13393 0.52291 0.24425 0.0
C2678 C 0.13449 0.55233 0.25847 0.0
C2679 C 0.14781 0.56009 0.24764 0.0
C2680 C 0.15389 0.54926 0.23488 0.0
H2681 H 0.22402 0.6551 0.23392 0.0
H2682 H 0.20242 0.6262 0.23246 0.0
C2683 C 0.14703 0.53083 0.2332 0.0
C2684 C 0.15652 0.57933 0.25055 0.0
H2685 H 0.16448 0.61718 0.22843 0.0
C2686 C 0.16804 0.58584 0.26705 0.0
C2687 C 0.15481 0.59086 0.23666 0.0
C2688 C 0.14212 0.58463 0.21893 0.0
C2689 C 0.17879 0.60337 0.26963 0.0
C2690 C 0.17759 0.61476 0.25545 0.0
C2691 C 0.1654 0.60843 0.23927 0.0
C2692 C 0.19009 0.63266 0.25637 0.0
C2693 C 0.1921 0.60919 0.28706 0.0
C2694 C 0.19021 0.64599 0.27022 0.0
C2695 C 0.20268 0.66257 0.27115 0.0
C2696 C 0.21498 0.66613 0.25806 0.0
C2697 C 0.21454 0.65285 0.24405 0.0
C2698 C 0.20223 0.63631 0.24322 0.0
H2699 H 0.19419 0.59772 0.29476 0.0
H2700 H 0.20582 0.61664 0.28408 0.0
H2701 H 0.18645 0.61815 0.29601 0.0
H2702 H 0.1807 0.64357 0.2803 0.0
H2703 H 0.20263 0.67263 0.28199 0.0
H2704 H 0.52207 0.69205 0.44011 0.0
H2705 H 0.52307 0.6707 0.46308 0.0
H2706 H 0.56919 0.70766 0.49539 0.0
H2707 H 0.56855 0.72893 0.47233 0.0
H2708 H 0.57669 0.67575 0.48801 0.0
H2709 H 0.50889 0.66613 0.51413 0.0
H2710 H 0.50621 0.66373 0.4896 0.0
H2711 H 0.51774 0.68491 0.50171 0.0
C2712 C 0.53218 0.69576 0.45228 0.0
C2713 C 0.54533 0.71207 0.45435 0.0
C2714 C 0.53263 0.68362 0.46547 0.0
C2715 C 0.54606 0.68772 0.48104 0.0
C2716 C 0.55866 0.70432 0.48352 0.0
H2717 H 0.57698 0.60901 0.55289 0.0
H2718 H 0.57438 0.63799 0.54248 0.0
C2719 C 0.55831 0.7164 0.47029 0.0
C2720 C 0.5485 0.67381 0.49334 0.0
H2721 H 0.52489 0.64216 0.51748 0.0
C2722 C 0.56552 0.66865 0.49482 0.0
C2723 C 0.5339 0.66463 0.5022 0.0
C2724 C 0.51573 0.67027 0.50199 0.0
C2725 C 0.56794 0.65381 0.50395 0.0
C2726 C 0.55299 0.64405 0.51192 0.0
C2727 C 0.53628 0.64971 0.51126 0.0
C2728 C 0.55379 0.62687 0.51919 0.0
C2729 C 0.58605 0.64803 0.50406 0.0
C2730 C 0.54283 0.61119 0.50965 0.0
C2731 C 0.5443 0.5947 0.51547 0.0
C2732 C 0.55673 0.59362 0.531 0.0
C2733 C 0.5674 0.60941 0.54079 0.0
C2734 C 0.56594 0.62595 0.5349 0.0
H2735 H 0.59528 0.65567 0.49509 0.0
H2736 H 0.59349 0.65009 0.5182 0.0
H2737 H 0.58343 0.63364 0.49949 0.0
H2738 H 0.5334 0.61171 0.49747 0.0
H2739 H 0.53572 0.58281 0.50773 0.0
H2740 H 0.67664 0.34797 0.68397 0.0
H2741 H 0.70305 0.34464 0.70522 0.0
H2742 H 0.67956 0.36542 0.75021 0.0
H2743 H 0.65252 0.36784 0.72906 0.0
H2744 H 0.72968 0.36339 0.72996 0.0
H2745 H 0.67987 0.31657 0.76477 0.0
H2746 H 0.67277 0.32582 0.74406 0.0
H2747 H 0.67665 0.33892 0.76574 0.0
C2748 C 0.67732 0.35225 0.69832 0.0
C2749 C 0.66242 0.35784 0.70495 0.0
C2750 C 0.69241 0.35031 0.71048 0.0
C2751 C 0.69295 0.3542 0.72939 0.0
C2752 C 0.67907 0.36172 0.73576 0.0
H2753 H 0.79073 0.33213 0.79492 0.0
H2754 H 0.76719 0.34829 0.78442 0.0
C2755 C 0.66375 0.36326 0.72366 0.0
C2756 C 0.70697 0.34863 0.74227 0.0
H2757 H 0.71147 0.32009 0.77516 0.0
C2758 C 0.72576 0.35407 0.73999 0.0
C2759 C 0.70173 0.33625 0.75518 0.0
C2760 C 0.68167 0.3289 0.75752 0.0
C2761 C 0.73937 0.3469 0.74963 0.0
C2762 C 0.73411 0.33449 0.7625 0.0
C2763 C 0.71545 0.3297 0.7654 0.0
C2764 C 0.74728 0.32479 0.77149 0.0
C2765 C 0.759 0.35185 0.74505 0.0
C2766 C 0.74333 0.30611 0.7689 0.0
C2767 C 0.7565 0.29682 0.77536 0.0
C2768 C 0.77393 0.3061 0.78429 0.0
C2769 C 0.77745 0.32469 0.78786 0.0
C2770 C 0.7641 0.33395 0.78173 0.0
H2771 H 0.75967 0.35808 0.7319 0.0
H2772 H 0.76773 0.3616 0.75597 0.0
H2773 H 0.76507 0.33998 0.74409 0.0
H2774 H 0.73038 0.29875 0.76113 0.0
H2775 H 0.75344 0.2825 0.77236 0.0
H2776 H 0.04826 0.29211 0.90977 0.0
H2777 H 0.05696 0.32418 0.91895 0.0
H2778 H 1.01474 0.31786 0.9549 0.0
H2779 H 1.00606 0.28591 0.94598 0.0
H2780 H 0.03423 0.34884 0.91553 0.0
H2781 H 0.06133 0.34597 0.98802 0.0
H2782 H 0.0581 0.32737 0.97101 0.0
H2783 H 0.03872 0.33163 0.98159 0.0
C2784 C 0.0409 0.29755 0.91971 0.0
C2785 C 0.02651 0.28648 0.92721 0.0
C2786 C 0.0459 0.31585 0.92492 0.0
C2787 C 0.03671 0.32329 0.93783 0.0
C2788 C 0.02228 0.31229 0.94522 0.0
H2789 H 1.01299 0.4162 0.9806 0.0
H2790 H 1.01622 0.38699 0.96895 0.0
C2791 C 1.01725 0.29405 0.94001 0.0
C2792 C 0.04146 0.34267 0.9431 0.0
H2793 H 0.05186 0.3729 0.98053 0.0
C2794 C 0.03852 0.35421 0.92966 0.0
C2795 C 0.04721 0.34961 0.96153 0.0
C2796 C 0.05171 0.33802 0.97634 0.0
C2797 C 0.03986 0.37235 0.93443 0.0
C2798 C 0.04431 0.37897 0.95302 0.0
C2799 C 0.04835 0.36768 0.96629 0.0
C2800 C 0.04253 0.39692 0.95925 0.0
C2801 C 0.03545 0.38416 0.91982 0.0
C2802 C 0.05628 0.41212 0.95752 0.0
C2803 C 0.05445 0.42893 0.96414 0.0
C2804 C 0.03878 0.43068 0.97243 0.0
C2805 C 0.02503 0.41535 0.97395 0.0
C2806 C 0.02691 0.39864 0.96745 0.0
H2807 H 0.03202 0.37689 0.90596 0.0
H2808 H 0.02352 0.38977 0.92288 0.0
H2809 H 0.04753 0.39549 0.91976 0.0
H2810 H 0.06847 0.41094 0.95127 0.0
H2811 H 0.06525 0.44052 0.96277 0.0
H2812 H 0.07752 0.82567 0.21993 0.0
H2813 H 0.04851 0.8204 0.23313 0.0
H2814 H 0.0252 0.84995 0.19247 0.0
H2815 H 0.05446 0.85554 0.17919 0.0
H2816 H 1.01684 0.85675 0.22898 0.0
H2817 H 1.00194 0.78474 0.20636 0.0
H2818 H 0.02448 0.79287 0.21936 0.0
H2819 H 1.01926 0.80105 0.19753 0.0
C2820 C 0.06631 0.8312 0.21385 0.0
C2821 C 0.06816 0.84084 0.19839 0.0
C2822 C 0.04973 0.82812 0.22139 0.0
C2823 C 0.03466 0.83446 0.21351 0.0
C2824 C 0.0367 0.84484 0.19862 0.0
H2825 H 0.92412 0.78943 0.23998 0.0
H2826 H 0.95029 0.80037 0.22346 0.0
C2827 C 0.05338 0.84802 0.19108 0.0
C2828 C 1.01665 0.82955 0.22052 0.0
H2829 H 0.98398 0.79344 0.22852 0.0
C2830 C 1.00949 0.84295 0.22874 0.0
C2831 C 1.00698 0.81156 0.21982 0.0
C2832 C 1.01344 0.79673 0.21013 0.0
C2833 C 0.99325 0.8387 0.23704 0.0
C2834 C 0.98427 0.8206 0.23738 0.0
C2835 C 0.99103 0.8073 0.22845 0.0
C2836 C 0.96809 0.815 0.24725 0.0
C2837 C 0.98588 0.85361 0.24533 0.0
C2838 C 0.96952 0.81946 0.26613 0.0
C2839 C 0.95451 0.81339 0.27559 0.0
C2840 C 0.93789 0.80257 0.26635 0.0
C2841 C 0.93661 0.79797 0.24745 0.0
C2842 C 0.95157 0.80414 0.238 0.0
H2843 H 0.99067 0.86623 0.23904 0.0
H2844 H 0.97046 0.85026 0.24368 0.0
H2845 H 0.99109 0.85595 0.26017 0.0
H2846 H 0.98232 0.82744 0.27362 0.0
H2847 H 0.95588 0.81732 0.2901 0.0
H2848 H 0.54288 0.35289 0.13622 0.0
H2849 H 0.54371 0.38222 0.12457 0.0
H2850 H 0.5761 0.36957 0.08324 0.0
H2851 H 0.57568 0.34041 0.09513 0.0
H2852 H 0.57524 0.41185 0.12021 0.0
H2853 H 0.53395 0.38737 0.05265 0.0
H2854 H 0.53366 0.37369 0.07165 0.0
H2855 H 0.55312 0.37731 0.05899 0.0
C2856 C 0.55018 0.35619 0.12459 0.0
C2857 C 0.55913 0.34369 0.11678 0.0
C2858 C 0.55069 0.37325 0.11787 0.0
C2859 C 0.55981 0.37869 0.10265 0.0
C2860 C 0.56867 0.36616 0.09476 0.0
H2861 H 0.56721 0.47371 0.0359 0.0
H2862 H 0.56729 0.44464 0.04768 0.0
C2863 C 0.56847 0.34924 0.1017 0.0
C2864 C 0.56029 0.39727 0.09535 0.0
H2865 H 0.5468 0.41822 0.05766 0.0
C2866 C 0.56892 0.41311 0.10652 0.0
C2867 C 0.55242 0.39964 0.07737 0.0
C2868 C 0.54262 0.38368 0.06442 0.0
C2869 C 0.57023 0.43057 0.10036 0.0
C2870 C 0.56188 0.43306 0.08248 0.0
C2871 C 0.55326 0.4171 0.07133 0.0
C2872 C 0.56204 0.45171 0.0751 0.0
C2873 C 0.58152 0.44613 0.1131 0.0
C2874 C 0.55886 0.46632 0.0859 0.0
C2875 C 0.55926 0.48334 0.07918 0.0
C2876 C 0.56231 0.48678 0.061 0.0
C2877 C 0.56494 0.47209 0.04997 0.0
C2878 C 0.56489 0.45513 0.05682 0.0
H2879 H 0.59222 0.44203 0.1226 0.0
H2880 H 0.58865 0.45695 0.10546 0.0
H2881 H 0.57222 0.4514 0.12158 0.0
H2882 H 0.55568 0.46462 0.09968 0.0
H2883 H 0.55677 0.49382 0.08829 0.0
H2884 H 1.01522 0.27263 0.36035 0.0
H2885 H 0.98461 0.2727 0.34346 0.0
H2886 H 0.9699 0.29797 0.39132 0.0
H2887 H 1.00017 0.29825 0.40796 0.0
H2888 H 0.94878 0.2578 0.34692 0.0
H2889 H 0.95557 0.33043 0.35527 0.0
H2890 H 0.97502 0.32047 0.36095 0.0
H2891 H 0.95867 0.32149 0.37694 0.0
C2892 C 1.00558 0.27839 0.36727 0.0
C2893 C 1.01071 0.28561 0.3857 0.0
C2894 C 0.98786 0.27836 0.35754 0.0
C2895 C 0.97457 0.28568 0.36574 0.0
C2896 C 0.97968 0.29267 0.38416 0.0
H2897 H 0.85255 0.26386 0.32724 0.0
H2898 H 0.88373 0.26315 0.34169 0.0
C2899 C 0.99724 0.2927 0.39384 0.0
C2900 C 0.95542 0.28583 0.35543 0.0
H2901 H 0.925 0.31285 0.34551 0.0
C2902 C 0.94371 0.26992 0.34661 0.0
C2903 C 0.94836 0.30152 0.35445 0.0
C2904 C 0.96012 0.31947 0.36223 0.0
C2905 C 0.92551 0.26919 0.33752 0.0
C2906 C 0.91815 0.28475 0.33727 0.0
C2907 C 0.93007 0.30073 0.34568 0.0
C2908 C 0.89851 0.28493 0.32815 0.0
C2909 C 0.91455 0.25167 0.32786 0.0
C2910 C 0.89557 0.29767 0.31585 0.0
C2911 C 0.87752 0.29821 0.30761 0.0
C2912 C 0.86144 0.28609 0.31133 0.0
C2913 C 0.86434 0.27338 0.32371 0.0
C2914 C 0.88242 0.27287 0.33198 0.0
H2915 H 0.9238 0.24287 0.32424 0.0
H2916 H 0.9052 0.24468 0.33709 0.0
H2917 H 0.90596 0.25365 0.31517 0.0
H2918 H 0.90736 0.30729 0.31246 0.0
H2919 H 0.8762 0.3083 0.29831 0.0
H2920 H 0.04436 0.75141 0.59964 0.0
H2921 H 0.04506 0.72151 0.58652 0.0
H2922 H 0.02709 0.69933 0.6352 0.0
H2923 H 0.02556 0.72874 0.64782 0.0
H2924 H 0.06297 0.69724 0.59194 0.0
H2925 H 0.99268 0.66253 0.60263 0.0
H2926 H 1.00031 0.68638 0.60641 0.0
H2927 H 1.00583 0.67241 0.624 0.0
C2928 C 0.04019 0.74017 0.60749 0.0
C2929 C 0.03453 0.74304 0.62489 0.0
C2930 C 0.04071 0.72279 0.59992 0.0
C2931 C 0.03565 0.70729 0.60932 0.0
C2932 C 0.03036 0.71032 0.62685 0.0
H2933 H 0.03945 0.59169 0.59234 0.0
H2934 H 0.03776 0.62162 0.6044 0.0
C2935 C 0.02964 0.72756 0.63429 0.0
C2936 C 0.03643 0.68835 0.60127 0.0
H2937 H 1.01317 0.64389 0.596 0.0
C2938 C 0.05187 0.68573 0.59278 0.0
C2939 C 0.02221 0.67264 0.60193 0.0
C2940 C 1.00425 0.67363 0.60905 0.0
C2941 C 0.05367 0.66857 0.58569 0.0
C2942 C 0.03964 0.65289 0.58671 0.0
C2943 C 0.02419 0.65547 0.59513 0.0
C2944 C 0.04063 0.63398 0.57906 0.0
C2945 C 0.07104 0.66738 0.57755 0.0
C2946 C 0.04257 0.63 0.56051 0.0
C2947 C 0.04332 0.61261 0.55345 0.0
C2948 C 0.04229 0.59815 0.56453 0.0
C2949 C 0.04032 0.6021 0.5831 0.0
C2950 C 0.03933 0.61948 0.59011 0.0
H2951 H 0.08253 0.67921 0.58214 0.0
H2952 H 0.07577 0.65524 0.58125 0.0
H2953 H 0.06808 0.6667 0.56242 0.0
H2954 H 0.04327 0.64038 0.55124 0.0
H2955 H 0.04479 0.61055 0.53912 0.0
H2956 H 0.60069 0.80133 0.86506 0.0
H2957 H 0.62778 0.80242 0.84884 0.0
H2958 H 0.65497 0.7809 0.8939 0.0
H2959 H 0.62805 0.78021 0.91035 0.0
H2960 H 0.68085 0.80425 0.88257 0.0
H2961 H 0.64343 0.7662 0.81863 0.0
H2962 H 0.63505 0.78577 0.82357 0.0
H2963 H 0.63215 0.7682 0.8387 0.0
C2964 C 0.6123 0.79667 0.8716 0.0
C2965 C 0.61158 0.79052 0.88927 0.0
C2966 C 0.62803 0.79716 0.86209 0.0
C2967 C 0.64393 0.79137 0.86957 0.0
C2968 C 0.64327 0.78543 0.88732 0.0
H2969 H 0.72959 0.76603 0.80254 0.0
H2970 H 0.70259 0.76626 0.81854 0.0
C2971 C 0.62757 0.78496 0.89685 0.0
C2972 C 0.66116 0.7918 0.8593 0.0
H2973 H 0.67494 0.78055 0.81784 0.0
C2974 C 0.67936 0.799 0.8684 0.0
C2975 C 0.66006 0.78482 0.84073 0.0
C2976 C 0.64166 0.77565 0.82987 0.0
C2977 C 0.69578 0.79964 0.85981 0.0
C2978 C 0.69465 0.7932 0.84104 0.0
C2979 C 0.67646 0.78578 0.83202 0.0
C2980 C 0.71185 0.79341 0.83078 0.0
C2981 C 0.71432 0.80673 0.87139 0.0
C2982 C 0.72676 0.80858 0.83146 0.0
C2983 C 0.74261 0.80842 0.82228 0.0
C2984 C 0.74432 0.79317 0.81154 0.0
C2985 C 0.72921 0.77816 0.81047 0.0
C2986 C 0.71348 0.77829 0.81977 0.0
H2987 H 0.71325 0.80567 0.88618 0.0
H2988 H 0.72482 0.79947 0.86755 0.0
H2989 H 0.71929 0.82103 0.86946 0.0
H2990 H 0.72616 0.82082 0.83901 0.0
H2991 H 0.75359 0.82039 0.82361 0.0
H2992 H 0.4101 0.54275 0.66553 0.0
H2993 H 0.43355 0.55069 0.64494 0.0
H2994 H 0.47537 0.57083 0.69127 0.0
H2995 H 0.45215 0.56296 0.71199 0.0
H2996 H 0.47508 0.5911 0.655 0.0
H2997 H 0.4755 0.51892 0.65004 0.0
H2998 H 0.45327 0.52474 0.64702 0.0
H2999 H 0.46733 0.52948 0.66893 0.0
C3000 C 0.42418 0.54926 0.67132 0.0
C3001 C 0.42936 0.55197 0.69037 0.0
C3002 C 0.43752 0.55379 0.65956 0.0
C3003 C 0.45609 0.56122 0.6667 0.0
C3004 C 0.46104 0.56513 0.6856 0.0
H3005 H 0.55031 0.55089 0.61185 0.0
H3006 H 0.53161 0.55576 0.63601 0.0
C3007 C 0.44778 0.56052 0.69737 0.0
C3008 C 0.4707 0.56261 0.65475 0.0
H3009 H 0.4943 0.53717 0.63196 0.0
C3010 C 0.47937 0.57938 0.64994 0.0
C3011 C 0.47638 0.54727 0.64859 0.0
C3012 C 0.46778 0.52905 0.65394 0.0
C3013 C 0.49338 0.5811 0.63854 0.0
C3014 C 0.49863 0.56565 0.63191 0.0
C3015 C 0.49025 0.54898 0.63716 0.0
C3016 C 0.51182 0.56607 0.61845 0.0
C3017 C 0.50245 0.59935 0.63369 0.0
C3018 C 0.50701 0.57059 0.60075 0.0
C3019 C 0.51756 0.56775 0.58695 0.0
C3020 C 0.53304 0.56024 0.59062 0.0
C3021 C 0.53844 0.55667 0.60861 0.0
C3022 C 0.52781 0.55946 0.62242 0.0
H3023 H 0.50059 0.60999 0.64362 0.0
H3024 H 0.51753 0.60059 0.63324 0.0
H3025 H 0.496 0.60151 0.61995 0.0
H3026 H 0.49453 0.57541 0.59737 0.0
H3027 H 0.51319 0.57087 0.57327 0.0
H3028 H 0.77197 0.23057 0.98235 0.0
H3029 H 0.77499 0.23951 0.95154 0.0
H3030 H 0.82836 0.22584 0.95447 0.0
H3031 H 0.82501 0.2161 0.98509 0.0
H3032 H 0.79833 0.26415 0.93831 0.0
H3033 H 0.80372 0.19881 0.90714 0.0
H3034 H 0.79767 0.20166 0.92988 0.0
H3035 H 0.8216 0.20736 0.92595 0.0
C3036 C 0.78437 0.22947 0.97646 0.0
C3037 C 0.7982 0.22251 0.98612 0.0
C3038 C 0.78608 0.23459 0.95881 0.0
C3039 C 0.80172 0.23301 0.95046 0.0
C3040 C 0.81589 0.22667 0.96035 0.0
H3041 H 0.83048 0.28706 0.85408 0.0
H3042 H 0.82813 0.27832 0.88507 0.0
C3043 C 0.81404 0.22126 0.97793 0.0
C3044 C 0.80313 0.23819 0.93151 0.0
H3045 H 0.80986 0.22322 0.88891 0.0
C3046 C 0.80079 0.25516 0.9275 0.0
C3047 C 0.80598 0.22637 0.91727 0.0
C3048 C 0.80719 0.20747 0.9202 0.0
C3049 C 0.80135 0.26069 0.90977 0.0
C3050 C 0.80505 0.24917 0.89573 0.0
C3051 C 0.80723 0.23214 0.89969 0.0
C3052 C 0.80659 0.25444 0.87682 0.0
C3053 C 0.79744 0.27863 0.90621 0.0
C3054 C 0.79578 0.2436 0.86173 0.0
C3055 C 0.79739 0.24837 0.84391 0.0
C3056 C 0.80974 0.26417 0.84085 0.0
C3057 C 0.82061 0.27495 0.85597 0.0
C3058 C 0.8192 0.27002 0.87374 0.0
H3059 H 0.7891 0.28302 0.91638 0.0
H3060 H 0.81078 0.28868 0.90739 0.0
H3061 H 0.78985 0.27838 0.89231 0.0
H3062 H 0.78601 0.23146 0.86373 0.0
H3063 H 0.78883 0.23977 0.83256 0.0
H3064 H 0.05795 0.4339 0.21694 0.0
H3065 H 0.03485 0.42992 0.18982 0.0
H3066 H 0.07888 0.43896 0.15588 0.0
H3067 H 0.10175 0.4421 0.18264 0.0
H3068 H 0.03373 0.45772 0.17437 0.0
H3069 H 0.03984 0.41025 0.11908 0.0
H3070 H 0.04876 0.40822 0.14249 0.0
H3071 H 0.06318 0.42134 0.12787 0.0
C3072 C 0.06263 0.4342 0.20359 0.0
C3073 C 0.08168 0.43882 0.20193 0.0
C3074 C 0.04938 0.43186 0.18808 0.0
C3075 C 0.05501 0.43429 0.17073 0.0
C3076 C 0.07399 0.43665 0.16895 0.0
H3077 H 0.06297 0.51461 0.11258 0.0
H3078 H 0.05625 0.49229 0.13422 0.0
C3079 C 0.08719 0.4387 0.1844 0.0
C3080 C 0.04253 0.43942 0.15586 0.0
H3081 H 0.0394 0.44148 0.1097 0.0
C3082 C 0.03425 0.45358 0.16019 0.0
C3083 C 0.04248 0.43387 0.13725 0.0
C3084 C 0.04888 0.41742 0.13151 0.0
C3085 C 0.02886 0.46404 0.14669 0.0
C3086 C 0.03213 0.46041 0.12857 0.0
C3087 C 0.03749 0.44462 0.12376 0.0
C3088 C 0.03418 0.47451 0.11584 0.0
C3089 C 1.02133 0.47988 0.15223 0.0
C3090 C 0.02409 0.47185 0.09827 0.0
C3091 C 0.02793 0.48468 0.08582 0.0
C3092 C 0.04216 0.50014 0.09069 0.0
C3093 C 0.05194 0.50287 0.10842 0.0
C3094 C 0.04799 0.49018 0.12085 0.0
H3095 H 1.01311 0.47711 0.16377 0.0
H3096 H 0.03308 0.49143 0.15693 0.0
H3097 H 1.01245 0.48357 0.14062 0.0
H3098 H 1.01356 0.45973 0.09411 0.0
H3099 H 1.02024 0.48217 0.07218 0.0
H3100 H 0.82472 0.8611 0.49493 0.0
H3101 H 0.82698 0.84848 0.46424 0.0
H3102 H 0.77261 0.85621 0.44523 0.0
H3103 H 0.77069 0.86952 0.47573 0.0
H3104 H 0.81117 0.82116 0.44235 0.0
H3105 H 0.79628 0.87694 0.40453 0.0
H3106 H 0.79985 0.87844 0.42916 0.0
H3107 H 0.7775 0.86766 0.41668 0.0
C3108 C 0.8132 0.86019 0.48425 0.0
C3109 C 0.79753 0.86658 0.48817 0.0
C3110 C 0.81451 0.85288 0.46647 0.0
C3111 C 0.80023 0.85157 0.45169 0.0
C3112 C 0.78431 0.85748 0.45577 0.0
H3113 H 0.78308 0.80547 0.33508 0.0
H3114 H 0.77948 0.81779 0.36561 0.0
C3115 C 0.78308 0.86497 0.47351 0.0
C3116 C 0.80194 0.84378 0.4324 0.0
H3117 H 0.79646 0.85047 0.38644 0.0
C3118 C 0.80802 0.82777 0.43024 0.0
C3119 C 0.79796 0.85201 0.41606 0.0
C3120 C 0.79273 0.86979 0.41669 0.0
C3121 C 0.8099 0.81986 0.41282 0.0
C3122 C 0.80577 0.828 0.39654 0.0
C3123 C 0.79959 0.84393 0.39862 0.0
C3124 C 0.80803 0.82039 0.37745 0.0
C3125 C 0.81594 0.80247 0.412 0.0
C3126 C 0.82531 0.81773 0.37322 0.0
C3127 C 0.82745 0.81077 0.35558 0.0
C3128 C 0.81239 0.80604 0.34128 0.0
C3129 C 0.79509 0.80877 0.34549 0.0
C3130 C 0.79301 0.81592 0.36312 0.0
H3131 H 0.81369 0.7955 0.42455 0.0
H3132 H 0.80832 0.79348 0.39993 0.0
H3133 H 0.83099 0.80514 0.41078 0.0
H3134 H 0.83736 0.82125 0.38358 0.0
H3135 H 0.84105 0.80906 0.35319 0.0
H3136 H 0.40821 0.55269 0.79769 0.0
H3137 H 0.4218 0.55829 0.83002 0.0
H3138 H 0.47129 0.54313 0.81622 0.0
H3139 H 0.45804 0.53776 0.78418 0.0
H3140 H 0.43154 0.53281 0.85082 0.0
H3141 H 0.49297 0.58762 0.85049 0.0
H3142 H 0.47401 0.58242 0.83193 0.0
H3143 H 0.49221 0.57036 0.83289 0.0
C3144 C 0.42213 0.55091 0.80155 0.0
C3145 C 0.43204 0.54473 0.78843 0.0
C3146 C 0.42985 0.55411 0.81998 0.0
C3147 C 0.44766 0.55141 0.82544 0.0
C3148 C 0.45773 0.54575 0.81225 0.0
H3149 H 0.49775 0.50696 0.91196 0.0
H3150 H 0.47891 0.51482 0.88579 0.0
C3151 C 0.45004 0.54251 0.79394 0.0
C3152 C 0.45512 0.55239 0.84501 0.0
H3153 H 0.49533 0.56726 0.87419 0.0
C3154 C 0.4453 0.54068 0.85612 0.0
C3155 C 0.47291 0.56289 0.85203 0.0
C3156 C 0.48352 0.57667 0.84124 0.0
C3157 C 0.45346 0.53807 0.87352 0.0
C3158 C 0.47202 0.54716 0.87971 0.0
C3159 C 0.48122 0.56002 0.86927 0.0
C3160 C 0.48269 0.54239 0.89607 0.0
C3161 C 0.44235 0.52519 0.88484 0.0
C3162 C 0.4915 0.55541 0.91026 0.0
C3163 C 0.50255 0.55102 0.9251 0.0
C3164 C 0.50507 0.53355 0.92592 0.0
C3165 C 0.49621 0.52055 0.91166 0.0
C3166 C 0.4852 0.52496 0.89684 0.0
H3167 H 0.42722 0.52431 0.88143 0.0
H3168 H 0.44481 0.51172 0.88184 0.0
H3169 H 0.44643 0.52914 0.89971 0.0
H3170 H 0.48993 0.569 0.90979 0.0
H3171 H 0.50942 0.5614 0.93574 0.0
H3172 H 0.83873 0.21574 0.09506 0.0
H3173 H 0.84304 0.22867 0.12678 0.0
H3174 H 0.78975 0.2424 0.11759 0.0
H3175 H 0.78602 0.23058 0.08561 0.0
H3176 H 0.81187 0.26726 0.13861 0.0
H3177 H 0.81983 0.20399 0.16626 0.0
H3178 H 0.83769 0.21227 0.15263 0.0
H3179 H 0.81382 0.20558 0.14219 0.0
C3180 C 0.82808 0.22176 0.09979 0.0
C3181 C 0.81201 0.2221 0.08791 0.0
C3182 C 0.83044 0.22894 0.11798 0.0
C3183 C 0.81644 0.23597 0.12484 0.0
C3184 C 0.80072 0.23695 0.11274 0.0
H3185 H 0.79926 0.2452 0.23864 0.0
H3186 H 0.80062 0.23551 0.20679 0.0
C3187 C 0.7986 0.23022 0.09442 0.0
C3188 C 0.81789 0.24204 0.1446 0.0
H3189 H 0.82529 0.2292 0.18779 0.0
C3190 C 0.81475 0.2589 0.14935 0.0
C3191 C 0.8213 0.23103 0.15869 0.0
C3192 C 0.82315 0.21215 0.15469 0.0
C3193 C 0.81477 0.265 0.16766 0.0
C3194 C 0.81902 0.25432 0.18179 0.0
C3195 C 0.82229 0.23751 0.17704 0.0
C3196 C 0.81923 0.25991 0.20149 0.0
C3197 C 0.80943 0.28249 0.17148 0.0
C3198 C 0.82967 0.27662 0.20939 0.0
C3199 C 0.8285 0.28234 0.22745 0.0
C3200 C 0.81744 0.27119 0.23818 0.0
C3201 C 0.80796 0.25404 0.23069 0.0
C3202 C 0.80871 0.24852 0.21247 0.0
H3203 H 0.80103 0.28596 0.15938 0.0
H3204 H 0.80133 0.28212 0.1832 0.0
H3205 H 0.8222 0.29326 0.17474 0.0
H3206 H 0.8385 0.28539 0.20151 0.0
H3207 H 0.83614 0.29555 0.23299 0.0
H3208 H 0.12003 0.45948 0.31337 0.0
H3209 H 0.1139 0.4625 0.34518 0.0
H3210 H 0.0573 0.46422 0.32633 0.0
H3211 H 0.06325 0.46114 0.29475 0.0
H3212 H 0.10462 0.493 0.3575 0.0
H3213 H 0.0508 0.43509 0.37002 0.0
H3214 H 0.06488 0.43446 0.35175 0.0
H3215 H 0.04449 0.44349 0.34866 0.0
C3216 C 0.10613 0.4599 0.31605 0.0
C3217 C 0.09215 0.46029 0.30165 0.0
C3218 C 0.10266 0.46162 0.3342 0.0
C3219 C 0.08511 0.46343 0.33809 0.0
C3220 C 0.07082 0.46246 0.32366 0.0
H3221 H 0.04859 0.53363 0.40798 0.0
H3222 H 0.05953 0.51668 0.38418 0.0
C3223 C 0.0743 0.46089 0.3056 0.0
C3224 C 0.08245 0.46961 0.35667 0.0
H3225 H 0.05101 0.46325 0.3871 0.0
C3226 C 0.09321 0.48627 0.36425 0.0
C3227 C 0.06768 0.46077 0.36554 0.0
C3228 C 0.05644 0.44237 0.35864 0.0
C3229 C 0.08864 0.49496 0.37964 0.0
C3230 C 0.07278 0.48685 0.38743 0.0
C3231 C 0.06294 0.46958 0.38081 0.0
C3232 C 0.06557 0.4966 0.40165 0.0
C3233 C 0.10043 0.51302 0.38706 0.0
C3234 C 0.06477 0.49051 0.41907 0.0
C3235 C 0.0584 0.50007 0.43261 0.0
C3236 C 0.05263 0.5158 0.42887 0.0
C3237 C 0.0529 0.52154 0.41121 0.0
C3238 C 0.05932 0.51199 0.3977 0.0
H3239 H 0.11467 0.515 0.38317 0.0
H3240 H 0.094 0.5235 0.38128 0.0
H3241 H 0.10145 0.51481 0.4022 0.0
H3242 H 0.06935 0.47853 0.42226 0.0
H3243 H 0.05803 0.49518 0.44603 0.0
H3244 H 0.78794 0.85496 0.58369 0.0
H3245 H 0.7875 0.8407 0.61259 0.0
H3246 H 0.78405 0.88994 0.64097 0.0
H3247 H 0.78349 0.90381 0.61218 0.0
H3248 H 0.80742 0.84225 0.64315 0.0
H3249 H 0.74534 0.86124 0.6642 0.0
H3250 H 0.75209 0.86503 0.6419 0.0
H3251 H 0.76251 0.88073 0.6614 0.0
C3252 C 0.78682 0.86275 0.59601 0.0
C3253 C 0.78544 0.88068 0.59507 0.0
C3254 C 0.78664 0.85451 0.6128 0.0
C3255 C 0.78519 0.86377 0.62957 0.0
C3256 C 0.78433 0.88182 0.62861 0.0
H3257 H 0.80258 0.84096 0.74691 0.0
H3258 H 0.80136 0.8543 0.71749 0.0
C3259 C 0.78421 0.88995 0.61185 0.0
C3260 C 0.78509 0.85486 0.64786 0.0
H3261 H 0.76438 0.85085 0.68749 0.0
C3262 C 0.7978 0.84413 0.65263 0.0
C3263 C 0.77263 0.85677 0.66083 0.0
C3264 C 0.75726 0.8664 0.65674 0.0
C3265 C 0.79867 0.83597 0.6695 0.0
C3266 C 0.78666 0.83841 0.68258 0.0
C3267 C 0.77386 0.84896 0.67786 0.0
C3268 C 0.78713 0.83005 0.70101 0.0
C3269 C 0.81272 0.82487 0.67344 0.0
C3270 C 0.77942 0.8118 0.70223 0.0
C3271 C 0.77985 0.80409 0.71927 0.0
C3272 C 0.78822 0.81421 0.73595 0.0
C3273 C 0.79595 0.8325 0.73466 0.0
C3274 C 0.79527 0.84024 0.71765 0.0
H3275 H 0.8222 0.82534 0.66283 0.0
H3276 H 0.82112 0.82956 0.68698 0.0
H3277 H 0.80538 0.81082 0.67407 0.0
H3278 H 0.77297 0.80339 0.68989 0.0
H3279 H 0.77379 0.79002 0.7193 0.0
H3280 H 0.77303 0.435 0.58299 0.0
H3281 H 0.75045 0.4536 0.58166 0.0
H3282 H 0.7216 0.42383 0.53153 0.0
H3283 H 0.74435 0.40502 0.53263 0.0
H3284 H 0.74183 0.47331 0.54723 0.0
H3285 H 0.68216 0.42676 0.57036 0.0
H3286 H 0.70585 0.42517 0.577 0.0
H3287 H 0.69513 0.41862 0.55389 0.0
C3288 C 0.76183 0.43225 0.57171 0.0
C3289 C 0.7605 0.41852 0.55789 0.0
C3290 C 0.74897 0.44294 0.57099 0.0
C3291 C 0.73441 0.44003 0.55655 0.0
C3292 C 0.73274 0.42617 0.54284 0.0
H3293 H 0.6445 0.4962 0.5446 0.0
H3294 H 0.66415 0.47515 0.54048 0.0
C3295 C 0.74573 0.41547 0.54349 0.0
C3296 C 0.72149 0.45208 0.55569 0.0
H3297 H 0.6788 0.45577 0.56559 0.0
C3298 C 0.72797 0.46948 0.55108 0.0
C3299 C 0.70347 0.44693 0.56064 0.0
C3300 C 0.6961 0.42838 0.56583 0.0
C3301 C 0.71694 0.48202 0.55154 0.0
C3302 C 0.69915 0.47712 0.55724 0.0
C3303 C 0.69248 0.45953 0.56134 0.0
C3304 C 0.68746 0.49016 0.55948 0.0
C3305 C 0.7244 0.50035 0.54582 0.0
C3306 C 0.69397 0.50552 0.57167 0.0
C3307 C 0.68286 0.51771 0.57391 0.0
C3308 C 0.66493 0.5147 0.56411 0.0
C3309 C 0.65838 0.49915 0.55208 0.0
C3310 C 0.66952 0.48701 0.54982 0.0
H3311 H 0.73528 0.50028 0.53674 0.0
H3312 H 0.71316 0.50572 0.53859 0.0
H3313 H 0.73079 0.50949 0.55818 0.0
H3314 H 0.70761 0.50802 0.57958 0.0
H3315 H 0.68837 0.52956 0.58322 0.0
H3316 H 0.27414 0.10518 0.5446 0.0
H3317 H 0.24154 0.09023 0.54546 0.0
H3318 H 0.22365 0.13017 0.51433 0.0
H3319 H 0.25597 0.14518 0.51357 0.0
H3320 H 0.20356 0.12447 0.54176 0.0
H3321 H 0.20285 0.05832 0.50816 0.0
H3322 H 0.22008 0.06493 0.52791 0.0
H3323 H 0.2219 0.07731 0.50809 0.0
C3324 C 0.26332 0.11067 0.53766 0.0
C3325 C 0.2681 0.12649 0.52889 0.0
C3326 C 0.24448 0.10201 0.53812 0.0
C3327 C 0.22966 0.10877 0.52978 0.0
C3328 C 0.23448 0.12444 0.52091 0.0
H3329 H 0.11038 0.05485 0.50489 0.0
H3330 H 0.14356 0.06743 0.50439 0.0
C3331 C 0.25321 0.13305 0.52041 0.0
C3332 C 0.20927 0.10012 0.53076 0.0
H3333 H 0.17581 0.06101 0.52121 0.0
C3334 C 0.19761 0.11056 0.53727 0.0
C3335 C 0.20097 0.08199 0.52473 0.0
C3336 C 0.21201 0.06999 0.51666 0.0
C3337 C 0.17843 0.10354 0.53809 0.0
C3338 C 0.17022 0.0853 0.53248 0.0
C3339 C 0.1818 0.0749 0.52575 0.0
C3340 C 0.14969 0.077 0.53306 0.0
C3341 C 0.167 0.11601 0.54451 0.0
C3342 C 0.14156 0.07763 0.54937 0.0
C3343 C 0.12241 0.07033 0.54971 0.0
C3344 C 0.11056 0.06201 0.53375 0.0
C3345 C 0.11879 0.06108 0.51752 0.0
C3346 C 0.13796 0.06833 0.51721 0.0
H3347 H 0.17375 0.13015 0.54334 0.0
H3348 H 0.15292 0.11298 0.53652 0.0
H3349 H 0.16546 0.11445 0.55912 0.0
H3350 H 0.15005 0.08376 0.56199 0.0
H3351 H 0.11688 0.07136 0.56255 0.0
H3352 H 0.22674 1.00958 0.87337 0.0
H3353 H 0.24353 0.98596 0.87858 0.0
H3354 H 0.28129 1.00769 0.84126 0.0
H3355 H 0.26499 0.03133 0.83632 0.0
H3356 H 0.2455 0.96161 0.85235 0.0
H3357 H 0.31703 0.99564 0.8807 0.0
H3358 H 0.29786 1.00648 0.88097 0.0
H3359 H 0.30977 1.00616 0.86107 0.0
C3360 C 0.23887 1.0095 0.8666 0.0
C3361 C 0.24449 0.02223 0.85435 0.0
C3362 C 0.24847 0.99606 0.86964 0.0
C3363 C 0.26388 0.99527 0.8606 0.0
C3364 C 0.26982 1.00834 0.84885 0.0
H3365 H 0.31113 0.92936 0.80226 0.0
H3366 H 0.30225 0.95295 0.82018 0.0
C3367 C 0.2603 0.02173 0.84584 0.0
C3368 C 0.27211 0.97952 0.86096 0.0
H3369 H 0.31382 0.96814 0.86055 0.0
C3370 C 0.2604 0.96287 0.85478 0.0
C3371 C 0.29154 0.98117 0.86425 0.0
C3372 C 0.30471 0.99833 0.87231 0.0
C3373 C 0.26772 0.94828 0.84999 0.0
C3374 C 0.2872 0.95047 0.85153 0.0
C3375 C 0.29888 0.96663 0.85922 0.0
C3376 C 0.2954 0.93708 0.84262 0.0
C3377 C 0.25466 0.93105 0.84185 0.0
C3378 C 0.29497 0.9206 0.84965 0.0
C3379 C 0.30016 0.90711 0.83949 0.0
C3380 C 0.30575 0.90992 0.82213 0.0
C3381 C 0.30706 0.9268 0.81563 0.0
C3382 C 0.30196 0.94028 0.82582 0.0
H3383 H 0.23986 0.93188 0.84069 0.0
H3384 H 0.25791 0.92739 0.82803 0.0
H3385 H 0.25653 0.9202 0.85054 0.0
H3386 H 0.29002 0.918 0.86266 0.0
H3387 H 0.29936 0.89434 0.84503 0.0
H3388 H 0.34989 0.93646 0.05318 0.0
H3389 H 0.37789 0.95945 0.05181 0.0
H3390 H 0.4055 0.91943 0.03328 0.0
H3391 H 0.37744 0.89631 0.03431 0.0
H3392 H 0.41227 0.96261 0.07108 0.0
H3393 H 0.41596 0.95651 0.99654 0.0
H3394 H 0.39534 0.94675 1.0063 0.0
H3395 H 0.4143 0.93575 1.00662 0.0
C3396 C 0.36187 0.93252 0.04868 0.0
C3397 C 0.36142 0.91452 0.04383 0.0
C3398 C 0.37784 0.9457 0.0479 0.0
C3399 C 0.39365 0.94117 0.04219 0.0
C3400 C 0.39329 0.92325 0.03733 0.0
H3401 H 0.50791 0.99411 0.06472 0.0
H3402 H 0.47645 0.9764 0.06433 0.0
C3403 C 0.37729 0.91003 0.03805 0.0
C3404 C 0.41085 0.9551 0.04229 0.0
H3405 H 0.44333 0.97303 0.01555 0.0
C3406 C 0.41897 0.96502 0.0589 0.0
C3407 C 0.41938 0.95843 0.02633 0.0
C3408 C 0.41071 0.94893 1.00789 0.0
C3409 C 0.43581 0.9777 0.06014 0.0
C3410 C 0.44488 0.98028 0.04441 0.0
C3411 C 0.4364 0.9709 0.02763 0.0
C3412 C 0.46371 0.99181 0.04531 0.0
C3413 C 0.4438 0.98815 0.07829 0.0
C3414 C 0.467 1.00625 0.03455 0.0
C3415 C 0.48505 0.01641 0.03466 0.0
C3416 C 0.50009 1.01214 0.0454 0.0
C3417 C 0.49665 0.9978 0.05632 0.0
C3418 C 0.47865 0.9877 0.05622 0.0
H3419 H 0.43284 0.98863 0.0872 0.0
H3420 H 0.45406 0.9816 0.08551 0.0
H3421 H 0.45097 1.00198 0.0764 0.0
H3422 H 0.45562 1.00954 0.02595 0.0
H3423 H 0.48726 0.02734 0.02605 0.0
H3424 H 0.92498 0.61834 0.76469 0.0
H3425 H 0.89743 0.63031 0.76573 0.0
H3426 H 0.91087 0.64159 0.82423 0.0
H3427 H 0.93873 0.62957 0.82337 0.0
H3428 H 0.86722 0.61804 0.78761 0.0
H3429 H 0.90359 0.68951 0.80319 0.0
H3430 H 0.91486 0.67323 0.79381 0.0
H3431 H 0.91091 0.67345 0.81729 0.0
C3432 C 0.9222 0.62344 0.77781 0.0
C3433 C 0.93408 0.62305 0.79396 0.0
C3434 C 0.90639 0.63019 0.77836 0.0
C3435 C 0.90217 0.63679 0.79503 0.0
C3436 C 0.91401 0.63661 0.81122 0.0
H3437 H 0.79727 0.67148 0.79897 0.0
H3438 H 0.8224 0.65618 0.80674 0.0
C3439 C 0.92989 0.62978 0.81069 0.0
C3440 C 0.88535 0.64392 0.79509 0.0
H3441 H 0.87106 0.68292 0.79686 0.0
C3442 C 0.86796 0.63219 0.78995 0.0
C3443 C 0.88651 0.66238 0.79806 0.0
C3444 C 0.90493 0.67548 0.80332 0.0
C3445 C 0.85169 0.63855 0.787 0.0
C3446 C 0.85297 0.65706 0.78929 0.0
C3447 C 0.87024 0.66872 0.79515 0.0
C3448 C 0.83691 0.6648 0.784 0.0
C3449 C 0.8334 0.62563 0.78057 0.0
C3450 C 0.83671 0.67441 0.76852 0.0
C3451 C 0.82249 0.68312 0.76407 0.0
C3452 C 0.80822 0.68245 0.77509 0.0
C3453 C 0.80812 0.67228 0.79027 0.0
C3454 C 0.82239 0.6635 0.7947 0.0
H3455 H 0.83504 0.61178 0.77797 0.0
H3456 H 0.82394 0.62581 0.7911 0.0
H3457 H 0.82667 0.6297 0.76781 0.0
H3458 H 0.84787 0.67555 0.76015 0.0
H3459 H 0.8232 0.69109 0.7525 0.0
H3460 H 0.87254 0.6051 0.06936 0.0
H3461 H 0.89904 0.5911 0.06942 0.0
H3462 H 0.92049 0.62523 0.0292 0.0
H3463 H 0.8935 0.63874 0.02859 0.0
H3464 H 0.92807 0.59561 0.02068 0.0
H3465 H 0.94949 0.60494 0.09519 0.0
H3466 H 0.92623 0.59181 0.08987 0.0
H3467 H 0.93156 0.61468 0.08446 0.0
C3468 C 0.88287 0.60975 0.06051 0.0
C3469 C 0.88052 0.62333 0.04904 0.0
C3470 C 0.8984 0.60176 0.0607 0.0
C3471 C 0.91267 0.60714 0.04971 0.0
C3472 C 0.91016 0.62057 0.03804 0.0
H3473 H 0.02314 0.57826 0.07137 0.0
H3474 H 0.99642 0.59209 0.07057 0.0
C3475 C 0.89452 0.62844 0.03771 0.0
C3476 C 0.92978 0.59869 0.05002 0.0
H3477 H 0.96358 0.58545 0.07848 0.0
C3478 C 0.93575 0.59351 0.03343 0.0
C3479 C 0.94064 0.59595 0.06642 0.0
C3480 C 0.9368 0.60231 0.08497 0.0
C3481 C 0.95144 0.58572 0.03276 0.0
C3482 C 0.96173 0.58218 0.04914 0.0
C3483 C 0.95596 0.58765 0.06573 0.0
C3484 C 0.97858 0.57335 0.04947 0.0
C3485 C 0.95714 0.58201 0.01424 0.0
C3486 C 0.97823 0.55775 0.03817 0.0
C3487 C 0.99383 0.54985 0.03846 0.0
C3488 C 1.01055 0.55687 0.05034 0.0
C3489 C 1.01079 0.57223 0.06194 0.0
C3490 C 0.99525 0.58024 0.06151 0.0
H3491 H 0.95239 0.59072 1.00418 0.0
H3492 H 0.97245 0.58404 0.01498 0.0
H3493 H 0.9506 0.56802 1.00899 0.0
H3494 H 0.96572 0.55138 0.02915 0.0
H3495 H 0.99266 0.538 0.0294 0.0
H3496 H 0.20577 0.12071 0.87108 0.0
H3497 H 0.21975 0.15225 0.86939 0.0
H3498 H 0.2696 0.13856 0.85469 0.0
H3499 H 0.25598 0.10719 0.85666 0.0
H3500 H 0.27586 0.17197 0.87632 0.0
H3501 H 0.22161 0.16433 0.81575 0.0
H3502 H 0.21356 0.15991 0.83738 0.0
H3503 H 0.22626 0.14551 0.82718 0.0
C3504 C 0.21992 0.12446 0.86806 0.0
C3505 C 0.22961 0.11144 0.86354 0.0
C3506 C 0.22785 0.14247 0.86704 0.0
C3507 C 0.24549 0.1476 0.86148 0.0
C3508 C 0.2559 0.13482 0.85888 0.0
H3509 H 0.31523 0.22647 0.81008 0.0
H3510 H 0.30166 0.2023 0.8277 0.0
C3511 C 0.24804 0.11687 0.85992 0.0
C3512 C 0.25206 0.16551 0.85551 0.0
H3513 H 0.24459 0.19066 0.82024 0.0
C3514 C 0.2689 0.17625 0.86425 0.0
C3515 C 0.24297 0.17092 0.83966 0.0
C3516 C 0.22517 0.15957 0.82931 0.0
C3517 C 0.27715 0.19213 0.85726 0.0
C3518 C 0.26843 0.19711 0.84097 0.0
C3519 C 0.25122 0.18675 0.83271 0.0
C3520 C 0.2773 0.21239 0.83153 0.0
C3521 C 0.29517 0.20331 0.86724 0.0
C3522 C 0.26786 0.22578 0.82743 0.0
C3523 C 0.2754 0.23941 0.81712 0.0
C3524 C 0.29255 0.2399 0.81068 0.0
C3525 C 0.30203 0.2265 0.81487 0.0
C3526 C 0.2944 0.21279 0.82512 0.0
H3527 H 0.29688 0.20087 0.88194 0.0
H3528 H 0.30693 0.19975 0.86109 0.0
H3529 H 0.29597 0.21772 0.86616 0.0
H3530 H 0.25456 0.22559 0.8321 0.0
H3531 H 0.26777 0.24957 0.81425 0.0
H3532 H 0.47252 0.03407 0.32733 0.0
H3533 H 0.45781 1.00228 0.32445 0.0
H3534 H 0.41286 1.01156 0.28675 0.0
H3535 H 0.42751 0.04331 0.28934 0.0
H3536 H 0.42237 0.9863 0.33254 0.0
H3537 H 0.42924 0.97089 0.2596 0.0
H3538 H 0.44235 0.99106 0.27281 0.0
H3539 H 0.41845 0.98913 0.26374 0.0
C3540 C 0.45958 0.02936 0.31835 0.0
C3541 C 0.45125 0.04124 0.30852 0.0
C3542 C 0.45118 1.0112 0.31673 0.0
C3543 C 0.4344 1.00457 0.3052 0.0
C3544 C 0.426 0.01637 0.29544 0.0
H3545 H 0.35762 0.90255 0.30799 0.0
H3546 H 0.37192 0.93426 0.30787 0.0
C3547 C 0.43437 0.03452 0.29703 0.0
C3548 C 0.42533 0.98541 0.30387 0.0
H3549 H 0.41057 0.94814 0.27396 0.0
C3550 C 0.41982 0.97793 0.31975 0.0
C3551 C 0.42217 0.97454 0.28719 0.0
C3552 C 0.42849 0.98173 0.26988 0.0
C3553 C 0.41101 0.95988 0.31936 0.0
C3554 C 0.40744 0.94912 0.30258 0.0
C3555 C 0.41316 0.95652 0.28674 0.0
C3556 C 0.39831 0.92999 0.30139 0.0
C3557 C 0.40586 0.95238 0.33693 0.0
C3558 C 0.40823 0.91715 0.29719 0.0
C3559 C 0.40008 0.89906 0.29714 0.0
C3560 C 0.38181 0.89351 0.30118 0.0
C3561 C 0.37167 0.90642 0.30473 0.0
C3562 C 0.37987 0.92452 0.30484 0.0
H3563 H 0.4131 0.96137 0.34915 0.0
H3564 H 0.39068 0.9506 0.33705 0.0
H3565 H 0.40929 0.93917 0.33803 0.0
H3566 H 0.42244 0.92115 0.29437 0.0
H3567 H 0.40814 0.88941 0.29412 0.0
H3568 H 0.60183 0.36657 0.60494 0.0
H3569 H 0.58699 0.38613 0.58654 0.0
H3570 H 0.57571 0.41243 0.63578 0.0
H3571 H 0.58953 0.39218 0.65413 0.0
H3572 H 0.54752 0.40916 0.60905 0.0
H3573 H 0.61405 0.4359 0.58242 0.0
H3574 H 0.60488 0.41251 0.57665 0.0
H3575 H 0.61249 0.42092 0.6002 0.0
C3576 C 0.59612 0.37651 0.61179 0.0
C3577 C 0.59709 0.37815 0.63094 0.0
C3578 C 0.58767 0.38766 0.60129 0.0
C3579 C 0.58068 0.40102 0.60982 0.0
C3580 C 0.58107 0.40224 0.62892 0.0
H3581 H 0.58149 0.5042 0.58431 0.0
H3582 H 0.5841 0.47565 0.59511 0.0
C3583 C 0.58908 0.39078 0.63939 0.0
C3584 C 0.57413 0.41457 0.59917 0.0
H3585 H 0.58896 0.44829 0.57295 0.0
C3586 C 0.55649 0.41766 0.60102 0.0
C3587 C 0.58591 0.42561 0.58872 0.0
C3588 C 0.60543 0.42371 0.58698 0.0
C3589 C 0.5507 0.4321 0.59349 0.0
C3590 C 0.56272 0.44336 0.58348 0.0
C3591 C 0.57982 0.43957 0.58067 0.0
C3592 C 0.55934 0.46055 0.57801 0.0
C3593 C 0.53233 0.43581 0.59716 0.0
C3594 C 0.54421 0.46158 0.56518 0.0
C3595 C 0.54251 0.47808 0.55918 0.0
C3596 C 0.55615 0.49352 0.56571 0.0
C3597 C 0.57091 0.49244 0.57891 0.0
C3598 C 0.57241 0.47615 0.58509 0.0
H3599 H 0.52611 0.42751 0.60761 0.0
H3600 H 0.53402 0.45006 0.6019 0.0
H3601 H 0.52246 0.43288 0.58431 0.0
H3602 H 0.53413 0.44964 0.55938 0.0
H3603 H 0.53107 0.47866 0.54891 0.0
H3604 H 0.46789 0.69956 0.37353 0.0
H3605 H 0.43679 0.68962 0.35601 0.0
H3606 H 0.45247 0.72764 0.31692 0.0
H3607 H 0.48331 0.73694 0.33369 0.0
H3608 H 0.41325 0.70878 0.35275 0.0
H3609 H 0.42101 0.68941 0.28233 0.0
H3610 H 0.43955 0.69062 0.3008 0.0
H3611 H 0.43772 0.70994 0.28869 0.0
C3612 C 0.46478 0.70539 0.3609 0.0
C3613 C 0.47798 0.71916 0.35509 0.0
C3614 C 0.44705 0.69966 0.35087 0.0
C3615 C 0.4423 0.7076 0.33489 0.0
C3616 C 0.45584 0.72076 0.32874 0.0
H3617 H 0.37056 0.76693 0.31246 0.0
H3618 H 0.3918 0.74855 0.32239 0.0
C3619 C 0.47348 0.72634 0.3386 0.0
C3620 C 0.42268 0.70505 0.32654 0.0
H3621 H 0.39837 0.70928 0.28558 0.0
C3622 C 0.40974 0.70813 0.33802 0.0
C3623 C 0.4176 0.70361 0.30732 0.0
C3624 C 0.42972 0.69799 0.29417 0.0
C3625 C 0.39321 0.71248 0.33089 0.0
C3626 C 0.38985 0.71425 0.31194 0.0
C3627 C 0.40132 0.70855 0.30021 0.0
C3628 C 0.37697 0.72509 0.30487 0.0
C3629 C 0.3802 0.71656 0.34391 0.0
C3630 C 0.36216 0.71829 0.29091 0.0
C3631 C 0.35 0.72894 0.28498 0.0
C3632 C 0.35262 0.74648 0.29293 0.0
C3633 C 0.36799 0.75339 0.30626 0.0
C3634 C 0.38007 0.74285 0.31206 0.0
H3635 H 0.3805 0.70832 0.35571 0.0
H3636 H 0.38476 0.73074 0.34941 0.0
H3637 H 0.3657 0.71416 0.337 0.0
H3638 H 0.35977 0.70469 0.28498 0.0
H3639 H 0.33826 0.72328 0.27467 0.0
H3640 H 0.08723 0.78833 0.14736 0.0
H3641 H 0.08344 0.75723 0.13613 0.0
H3642 H 0.1313 0.77162 0.10777 0.0
H3643 H 0.13491 0.80296 0.11856 0.0
H3644 H 0.10275 0.74551 0.08791 0.0
H3645 H 0.1187 0.72871 0.15906 0.0
H3646 H 0.09935 0.73906 0.15598 0.0
H3647 H 0.12216 0.75136 0.15304 0.0
C3648 C 0.09686 0.78492 0.13859 0.0
C3649 C 0.11156 0.79802 0.13407 0.0
C3650 C 0.09469 0.76714 0.13223 0.0
C3651 C 0.10737 0.76212 0.12153 0.0
C3652 C 0.12146 0.77526 0.11615 0.0
H3653 H 0.12585 0.65565 0.11456 0.0
H3654 H 0.12916 0.68775 0.11878 0.0
C3655 C 0.12352 0.79313 0.12233 0.0
C3656 C 0.10653 0.74308 0.11691 0.0
H3657 H 0.10798 0.70445 0.13635 0.0
C3658 C 0.10397 0.7365 0.09845 0.0
C3659 C 0.10849 0.73149 0.13074 0.0
C3660 C 0.11252 0.73802 0.15081 0.0
C3661 C 0.10292 0.71845 0.09344 0.0
C3662 C 0.10409 0.70674 0.10731 0.0
C3663 C 0.10694 0.71343 0.12575 0.0
C3664 C 0.10259 0.68747 0.1032 0.0
C3665 C 0.10091 0.7122 0.07341 0.0
C3666 C 0.08657 0.67667 0.09299 0.0
C3667 C 0.08477 0.6583 0.09026 0.0
C3668 C 0.09885 0.65038 0.09796 0.0
C3669 C 0.11488 0.6613 0.10816 0.0
C3670 C 0.11675 0.67965 0.1107 0.0
H3671 H 0.1057 0.7234 0.06508 0.0
H3672 H 0.10888 0.70188 0.07112 0.0
H3673 H 0.08604 0.70634 0.06842 0.0
H3674 H 0.07528 0.68237 0.08744 0.0
H3675 H 0.07233 0.65031 0.08216 0.0
H3676 H 0.07195 0.27135 0.88008 0.0
H3677 H 0.09936 0.28631 0.86691 0.0
H3678 H 0.10289 0.23604 0.8406 0.0
H3679 H 0.07567 0.22098 0.8537 0.0
H3680 H 0.13672 0.25706 0.862 0.0
H3681 H 0.10303 0.29493 0.81163 0.0
H3682 H 0.09792 0.29655 0.83483 0.0
H3683 H 0.09007 0.27575 0.82104 0.0
C3684 C 0.07851 0.26351 0.8714 0.0
C3685 C 0.07168 0.24499 0.86792 0.0
C3686 C 0.09408 0.27209 0.86385 0.0
C3687 C 0.10297 0.26225 0.85273 0.0
C3688 C 0.09613 0.24382 0.84915 0.0
H3689 H 0.18081 0.27738 0.7779 0.0
H3690 H 0.15349 0.27313 0.79391 0.0
C3691 C 0.08058 0.23525 0.85663 0.0
C3692 C 0.11988 0.27087 0.84525 0.0
H3693 H 0.13521 0.2974 0.81235 0.0
C3694 C 0.13651 0.26607 0.85131 0.0
C3695 C 0.11937 0.28252 0.83129 0.0
C3696 C 0.10166 0.28774 0.82416 0.0
C3697 C 0.15262 0.27218 0.84334 0.0
C3698 C 0.15206 0.28357 0.82911 0.0
C3699 C 0.13555 0.28879 0.82338 0.0
C3700 C 0.16795 0.28859 0.81881 0.0
C3701 C 0.16986 0.26572 0.84957 0.0
C3702 C 0.18492 0.29917 0.82738 0.0
C3703 C 0.20057 0.30167 0.81825 0.0
C3704 C 0.19942 0.29365 0.80041 0.0
C3705 C 0.18212 0.28387 0.79156 0.0
C3706 C 0.16651 0.28138 0.80069 0.0
H3707 H 0.16703 0.2547 0.85857 0.0
H3708 H 0.17586 0.26105 0.83762 0.0
H3709 H 0.18045 0.27688 0.85734 0.0
H3710 H 0.18618 0.30501 0.8413 0.0
H3711 H 0.21366 0.30953 0.82529 0.0
H3712 H 0.59087 0.74299 0.98366 0.0
H3713 H 0.58791 0.71351 0.99552 0.0
H3714 H 0.54687 0.69043 0.94962 0.0
H3715 H 0.54945 0.71994 0.93796 0.0
H3716 H 0.55513 0.68771 1.00555 0.0
H3717 H 0.58427 0.65692 0.9495 0.0
H3718 H 0.58813 0.68078 0.95406 0.0
H3719 H 0.56612 0.66814 0.94272 0.0
C3720 C 0.58112 0.73173 0.976 0.0
C3721 C 0.57043 0.73442 0.95964 0.0
C3722 C 0.57941 0.71461 0.98291 0.0
C3723 C 0.56725 0.69905 0.97364 0.0
C3724 C 0.55659 0.70172 0.95727 0.0
H3725 H 0.54918 0.58147 0.98939 0.0
H3726 H 0.55077 0.61083 0.97769 0.0
C3727 C 0.55802 0.7189 0.95055 0.0
C3728 C 0.56564 0.68037 0.98107 0.0
H3729 H 0.57276 0.63816 0.97149 0.0
C3730 C 0.55909 0.67696 0.99803 0.0
C3731 C 0.57039 0.66572 0.97158 0.0
C3732 C 0.57775 0.66795 0.95351 0.0
C3733 C 0.55685 0.6599 1.00532 0.0
C3734 C 0.56213 0.64527 0.9961 0.0
C3735 C 0.56866 0.64877 0.97907 0.0
C3736 C 0.56092 0.62653 1.00365 0.0
C3737 C 0.54786 0.65774 0.02256 0.0
C3738 C 0.5662 0.62438 0.02235 0.0
C3739 C 0.56483 0.6073 0.02922 0.0
C3740 C 0.55866 0.59117 0.01777 0.0
C3741 C 0.5539 0.59321 0.99897 0.0
C3742 C 0.55491 0.61034 0.99215 0.0
H3743 H 0.53866 0.66714 0.02398 0.0
H3744 H 0.53945 0.64401 0.0228 0.0
H3745 H 0.5588 0.6608 0.03459 0.0
H3746 H 0.57179 0.636 0.03189 0.0
H3747 H 0.56908 0.60681 0.04367 0.0
H3748 H 0.10739 0.8105 0.66621 0.0
H3749 H 0.1379 0.81014 0.68217 0.0
H3750 H 0.11301 0.79467 0.73025 0.0
H3751 H 0.08221 0.79419 0.71393 0.0
H3752 H 0.16079 0.82667 0.70844 0.0
H3753 H 0.14261 0.75875 0.73035 0.0
H3754 H 0.12665 0.76733 0.71513 0.0
H3755 H 0.12889 0.77262 0.73953 0.0
C3756 C 0.10825 0.80701 0.68021 0.0
C3757 C 0.09187 0.80232 0.68854 0.0
C3758 C 0.12597 0.8068 0.68946 0.0
C3759 C 0.12834 0.80194 0.70757 0.0
C3760 C 0.11204 0.79785 0.71616 0.0
H3761 H 0.24308 0.82692 0.77076 0.0
H3762 H 0.2118 0.82788 0.75695 0.0
C3763 C 0.09421 0.79783 0.70681 0.0
C3764 C 0.14772 0.80146 0.71721 0.0
H3765 H 0.17216 0.7764 0.74312 0.0
C3766 C 0.16311 0.81557 0.71596 0.0
C3767 C 0.15152 0.78699 0.72695 0.0
C3768 C 0.1366 0.77049 0.72793 0.0
C3769 C 0.18153 0.81574 0.72397 0.0
C3770 C 0.18519 0.80164 0.73439 0.0
C3771 C 0.16984 0.78745 0.73551 0.0
C3772 C 0.20468 0.80104 0.74367 0.0
C3773 C 0.19699 0.83085 0.72041 0.0
C3774 C 0.21157 0.78543 0.74198 0.0
C3775 C 0.22953 0.78473 0.75036 0.0
C3776 C 0.24154 0.79962 0.76081 0.0
C3777 C 0.23459 0.81516 0.76273 0.0
C3778 C 0.21653 0.81578 0.75455 0.0
H3779 H 0.19317 0.83688 0.70765 0.0
H3780 H 0.19967 0.84143 0.73187 0.0
H3781 H 0.21 0.82634 0.7192 0.0
H3782 H 0.20313 0.77369 0.7339 0.0
H3783 H 0.23408 0.77245 0.74842 0.0
H3784 H 0.07889 0.35761 0.45319 0.0
H3785 H 0.07852 0.38775 0.4654 0.0
H3786 H 0.02896 0.36676 0.48905 0.0
H3787 H 0.0291 0.33662 0.47648 0.0
H3788 H 0.02458 0.39654 0.47699 0.0
H3789 H 0.09583 0.41441 0.51366 0.0
H3790 H 0.09567 0.40878 0.48974 0.0
H3791 H 0.08528 0.39208 0.50378 0.0
C3792 C 0.06795 0.35924 0.46114 0.0
C3793 C 0.05415 0.3441 0.46379 0.0
C3794 C 0.06781 0.37678 0.46837 0.0
C3795 C 0.05393 0.38025 0.47882 0.0
C3796 C 0.04004 0.3651 0.4813 0.0
H3797 H 0.06432 0.48401 0.54695 0.0
H3798 H 0.06514 0.45375 0.53517 0.0
C3799 C 0.04017 0.34756 0.47407 0.0
C3800 C 0.05355 0.39937 0.48665 0.0
H3801 H 0.08036 0.43816 0.51059 0.0
C3802 C 0.0369 0.4055 0.48433 0.0
C3803 C 0.06925 0.41166 0.49673 0.0
C3804 C 0.08746 0.40638 0.50132 0.0
C3805 C 0.0356 0.42289 0.49118 0.0
C3806 C 0.05148 0.43543 0.50062 0.0
C3807 C 0.06804 0.42918 0.50328 0.0
C3808 C 0.05113 0.4547 0.50799 0.0
C3809 C 1.01679 0.42735 0.48862 0.0
C3810 C 0.04335 0.46637 0.49703 0.0
C3811 C 0.04282 0.48389 0.50388 0.0
C3812 C 0.0502 0.49096 0.52207 0.0
C3813 C 0.05835 0.47946 0.53295 0.0
C3814 C 0.05886 0.46188 0.52609 0.0
H3815 H 1.00541 0.41514 0.48689 0.0
H3816 H 1.01488 0.43604 0.50043 0.0
H3817 H 1.01546 0.4344 0.47606 0.0
H3818 H 0.03778 0.46205 0.4829 0.0
H3819 H 0.03657 0.49199 0.4947 0.0
H3820 H 0.49098 0.30316 0.18747 0.0
H3821 H 0.46324 0.30392 0.20226 0.0
H3822 H 0.46181 0.25098 0.21813 0.0
H3823 H 0.49008 0.25069 0.20434 0.0
H3824 H 0.42942 0.28989 0.19907 0.0
H3825 H 0.4532 0.26837 0.26561 0.0
H3826 H 0.46857 0.27343 0.24861 0.0
H3827 H 0.45307 0.25174 0.24764 0.0
C3828 C 0.48494 0.2917 0.19428 0.0
C3829 C 0.49335 0.27695 0.19469 0.0
C3830 C 0.46878 0.29211 0.20282 0.0
C3831 C 0.46002 0.27772 0.21215 0.0
C3832 C 0.46818 0.26277 0.21203 0.0
H3833 H 0.35136 0.25135 0.25717 0.0
H3834 H 0.38005 0.25104 0.24377 0.0
C3835 C 0.48452 0.2625 0.2038 0.0
C3836 C 0.44235 0.27825 0.22138 0.0
H3837 H 0.42084 0.26762 0.2597 0.0
C3838 C 0.42786 0.28512 0.21242 0.0
C3839 C 0.43952 0.27224 0.23902 0.0
C3840 C 0.4545 0.26622 0.25086 0.0
C3841 C 0.41118 0.28577 0.22008 0.0
C3842 C 0.40823 0.27931 0.23739 0.0
C3843 C 0.42261 0.27247 0.2464 0.0
C3844 C 0.39045 0.27959 0.24623 0.0
C3845 C 0.39651 0.29314 0.20936 0.0
C3846 C 0.3862 0.29566 0.25265 0.0
C3847 C 0.36976 0.29587 0.26075 0.0
C3848 C 0.35656 0.28001 0.26261 0.0
C3849 C 0.36088 0.26394 0.25619 0.0
C3850 C 0.37749 0.26373 0.2484 0.0
H3851 H 0.39933 0.2951 0.19509 0.0
H3852 H 0.38263 0.28408 0.209 0.0
H3853 H 0.39603 0.30618 0.2162 0.0
H3854 H 0.3957 0.30821 0.25146 0.0
H3855 H 0.36723 0.3086 0.26528 0.0
H3856 H 0.66275 0.51344 0.38346 0.0
H3857 H 0.64563 0.49695 0.40602 0.0
H3858 H 0.62689 0.5438 0.42237 0.0
H3859 H 0.64376 0.56023 0.4002 0.0
H3860 H 0.64775 0.50662 0.44617 0.0
H3861 H 0.57862 0.50313 0.40794 0.0
H3862 H 0.59952 0.50605 0.39708 0.0
H3863 H 0.5935 0.52488 0.40839 0.0
C3864 C 0.65511 0.52023 0.39202 0.0
C3865 C 0.65446 0.53809 0.38998 0.0
C3866 C 0.6453 0.51078 0.40478 0.0
C3867 C 0.63468 0.51909 0.41544 0.0
C3868 C 0.63468 0.53707 0.41391 0.0
H3869 H 0.60568 0.54293 0.50957 0.0
H3870 H 0.62002 0.53166 0.48505 0.0
C3871 C 0.64443 0.54647 0.40131 0.0
C3872 C 0.62361 0.5096 0.4286 0.0
H3873 H 0.58065 0.5063 0.44136 0.0
C3874 C 0.63293 0.50584 0.44496 0.0
C3875 C 0.60421 0.50799 0.42679 0.0
C3876 C 0.59335 0.51054 0.40899 0.0
C3877 C 0.62372 0.50302 0.46041 0.0
C3878 C 0.60501 0.50449 0.45939 0.0
C3879 C 0.59511 0.50557 0.4423 0.0
C3880 C 0.59698 0.50919 0.4759 0.0
C3881 C 0.63448 0.49986 0.47801 0.0
C3882 C 0.57897 0.5006 0.47871 0.0
C3883 C 0.57052 0.50724 0.49273 0.0
C3884 C 0.57991 0.52266 0.50398 0.0
C3885 C 0.59804 0.53098 0.50127 0.0
C3886 C 0.60642 0.52437 0.48736 0.0
H3887 H 0.64438 0.49149 0.47518 0.0
H3888 H 0.64277 0.5128 0.48487 0.0
H3889 H 0.62515 0.49327 0.48749 0.0
H3890 H 0.57132 0.48905 0.46979 0.0
H3891 H 0.55656 0.50049 0.49453 0.0
H3892 H 0.32529 0.82767 0.08419 0.0
H3893 H 0.32788 0.81446 0.11348 0.0
H3894 H 0.30283 0.85385 0.1378 0.0
H3895 H 0.29998 0.86698 0.10872 0.0
H3896 H 0.34717 0.83115 0.14776 0.0
H3897 H 0.27187 0.80672 0.151 0.0
H3898 H 0.28086 0.81318 0.13014 0.0
H3899 H 0.27842 0.82985 0.14716 0.0
C3900 C 0.32012 0.83339 0.09571 0.0
C3901 C 0.31233 0.84834 0.09404 0.0
C3902 C 0.32171 0.82588 0.11245 0.0
C3903 C 0.3154 0.83308 0.12776 0.0
C3904 C 0.30752 0.8479 0.1261 0.0
H3905 H 0.33927 0.81857 0.24368 0.0
H3906 H 0.33981 0.82993 0.21337 0.0
C3907 C 0.30595 0.85541 0.10943 0.0
C3908 C 0.31732 0.82539 0.14562 0.0
H3909 H 0.29229 0.80664 0.17819 0.0
C3910 C 0.33519 0.82568 0.15439 0.0
C3911 C 0.30167 0.81818 0.15418 0.0
C3912 C 0.2821 0.81678 0.14509 0.0
C3913 C 0.33781 0.81919 0.17166 0.0
C3914 C 0.32216 0.81244 0.18044 0.0
C3915 C 0.3043 0.81194 0.17152 0.0
C3916 C 0.32375 0.80529 0.19863 0.0
C3917 C 0.35726 0.81937 0.18025 0.0
C3918 C 0.31464 0.78769 0.20042 0.0
C3919 C 0.31419 0.78126 0.21763 0.0
C3920 C 0.32284 0.79227 0.23352 0.0
C3921 C 0.33262 0.80971 0.2317 0.0
C3922 C 0.33297 0.8162 0.21438 0.0
H3923 H 0.36717 0.82083 0.17 0.0
H3924 H 0.36204 0.8308 0.19082 0.0
H3925 H 0.35764 0.80698 0.18699 0.0
H3926 H 0.30747 0.77903 0.18847 0.0
H3927 H 0.30664 0.76772 0.21849 0.0
H3928 H 0.99802 0.6119 0.87807 0.0
H3929 H 1.00991 0.61318 0.91069 0.0
H3930 H 0.05463 0.58988 0.89668 0.0
H3931 H 0.04307 0.58871 0.86438 0.0
H3932 H 1.01199 0.58321 0.92783 0.0
H3933 H 0.08165 0.62823 0.93644 0.0
H3934 H 0.06436 0.62819 0.9171 0.0
H3935 H 0.07874 0.61223 0.91709 0.0
C3936 C 1.01061 0.60743 0.88198 0.0
C3937 C 1.01953 0.60008 0.86871 0.0
C3938 C 1.0174 0.6082 0.90058 0.0
C3939 C 0.03333 0.6019 0.90607 0.0
C3940 C 0.04262 0.59525 0.89275 0.0
H3941 H 0.06334 0.53971 0.98741 0.0
H3942 H 0.05608 0.55486 0.96037 0.0
C3943 C 0.03583 0.59439 0.87428 0.0
C3944 C 0.03887 0.5997 0.92552 0.0
H3945 H 0.07711 0.60494 0.95752 0.0
C3946 C 0.02609 0.58835 0.93452 0.0
C3947 C 0.05724 0.6065 0.93429 0.0
C3948 C 0.07121 0.61962 0.92577 0.0
C3949 C 0.0316 0.58253 0.95143 0.0
C3950 C 0.05035 0.58809 0.95938 0.0
C3951 C 0.06281 0.60049 0.95114 0.0
C3952 C 0.05733 0.58002 0.97553 0.0
C3953 C 1.01753 0.56984 0.96032 0.0
C3954 C 0.06112 0.58945 0.99283 0.0
C3955 C 0.06528 0.58084 1.00836 0.0
C3956 C 0.06572 0.56269 1.00671 0.0
C3957 C 0.06306 0.55366 0.98918 0.0
C3958 C 0.05886 0.56226 0.97372 0.0
H3959 H 1.00306 0.56988 0.95461 0.0
H3960 H 1.01959 0.55613 0.95793 0.0
H3961 H 1.01938 0.57331 0.97533 0.0
H3962 H 0.06005 0.6032 0.9944 0.0
H3963 H 0.06732 0.58819 0.02167 0.0
H3964 H 0.31828 0.2138 0.57485 0.0
H3965 H 0.3168 0.22861 0.60483 0.0
H3966 H 0.33703 0.1873 0.63151 0.0
H3967 H 0.33839 0.1724 0.60169 0.0
H3968 H 0.30916 0.19433 0.64814 0.0
H3969 H 0.35611 0.25933 0.64224 0.0
H3970 H 0.33704 0.25345 0.6241 0.0
H3971 H 0.35418 0.24024 0.62622 0.0
C3972 C 0.3227 0.20793 0.58705 0.0
C3973 C 0.32866 0.1918 0.58542 0.0
C3974 C 0.3219 0.21654 0.60441 0.0
C3975 C 0.32702 0.20943 0.62095 0.0
C3976 C 0.33299 0.19335 0.6193 0.0
H3977 H 0.34911 0.26576 0.73283 0.0
H3978 H 0.3509 0.25198 0.70248 0.0
C3979 C 0.33387 0.1848 0.60201 0.0
C3980 C 0.32569 0.21825 0.63981 0.0
H3981 H 0.33935 0.25748 0.66778 0.0
C3982 C 0.3158 0.20817 0.65231 0.0
C3983 C 0.33445 0.2363 0.64588 0.0
C3984 C 0.3462 0.24795 0.63401 0.0
C3985 C 0.31422 0.21545 0.67009 0.0
C3986 C 0.32255 0.23364 0.67598 0.0
C3987 C 0.33269 0.24365 0.66359 0.0
C3988 C 0.32126 0.24232 0.69491 0.0
C3989 C 0.304 0.2033 0.68262 0.0
C3990 C 0.30402 0.24201 0.70133 0.0
C3991 C 0.30295 0.24998 0.71889 0.0
C3992 C 0.31907 0.25871 0.73085 0.0
C3993 C 0.33629 0.25919 0.72433 0.0
C3994 C 0.33735 0.25127 0.70675 0.0
H3995 H 0.30326 0.18907 0.67845 0.0
H3996 H 0.31077 0.20638 0.69701 0.0
H3997 H 0.28957 0.20509 0.682 0.0
H3998 H 0.29123 0.23573 0.69266 0.0
H3999 H 0.28937 0.24933 0.72306 0.0
H4000 H 0.62103 0.56295 0.3131 0.0
H4001 H 0.5948 0.55846 0.28871 0.0
H4002 H 0.62001 0.52398 0.25693 0.0
H4003 H 0.64617 0.52825 0.28118 0.0
H4004 H 0.5989 0.5679 0.25354 0.0
H4005 H 0.56566 0.49634 0.25181 0.0
H4006 H 0.58104 0.50851 0.27141 0.0
H4007 H 0.59037 0.50028 0.25209 0.0
C4008 C 0.62089 0.55423 0.30102 0.0
C4009 C 0.63574 0.54602 0.29903 0.0
C4010 C 0.60585 0.55163 0.28716 0.0
C4011 C 0.60532 0.54063 0.27121 0.0
C4012 C 0.61993 0.53215 0.26935 0.0
H4013 H 0.57049 0.52281 0.16096 0.0
H4014 H 0.57809 0.52 0.19343 0.0
C4015 C 0.63498 0.53479 0.28314 0.0
C4016 C 0.59082 0.53968 0.25551 0.0
H4017 H 0.56048 0.51029 0.22378 0.0
C4018 C 0.5901 0.5554 0.24724 0.0
C4019 C 0.5794 0.52332 0.24743 0.0
C4020 C 0.579 0.50618 0.25625 0.0
C4021 C 0.57943 0.55504 0.23025 0.0
C4022 C 0.56883 0.5385 0.22158 0.0
C4023 C 0.56858 0.52293 0.23048 0.0
C4024 C 0.5605 0.53689 0.20221 0.0
C4025 C 0.58082 0.57216 0.22109 0.0
C4026 C 0.54726 0.54649 0.19636 0.0
C4027 C 0.54298 0.54824 0.17773 0.0
C4028 C 0.55167 0.54015 0.16475 0.0
C4029 C 0.56347 0.5291 0.1706 0.0
C4030 C 0.56787 0.52751 0.18919 0.0
H4031 H 0.59204 0.58313 0.22835 0.0
H4032 H 0.58351 0.57021 0.20672 0.0
H4033 H 0.5675 0.5764 0.22092 0.0
H4034 H 0.54112 0.5535 0.20623 0.0
H4035 H 0.53362 0.55662 0.17353 0.0
H4036 H 0.31795 0.82402 0.99029 0.0
H4037 H 0.31086 0.81583 0.95735 0.0
H4038 H 0.27651 0.85397 0.95237 0.0
H4039 H 0.28324 0.86204 0.98548 0.0
H4040 H 0.26161 0.82215 0.92985 0.0
H4041 H 0.33541 0.84937 0.92209 0.0
H4042 H 0.33228 0.83251 0.93785 0.0
H4043 H 0.32597 0.85327 0.94297 0.0
C4044 C 0.30867 0.83052 0.98225 0.0
C4045 C 0.30132 0.84383 0.99049 0.0
C4046 C 0.30471 0.82587 0.9634 0.0
C4047 C 0.29351 0.83459 0.95234 0.0
C4048 C 0.28529 0.84717 0.96064 0.0
H4049 H 0.29994 0.83961 0.83619 0.0
H4050 H 0.29866 0.84673 0.8686 0.0
C4051 C 0.28915 0.85176 0.97956 0.0
C4052 C 0.29132 0.83128 0.93209 0.0
H4053 H 0.31614 0.83336 0.89592 0.0
C4054 C 0.27349 0.82465 0.92239 0.0
C4055 C 0.30681 0.83488 0.92234 0.0
C4056 C 0.32618 0.84307 0.9318 0.0
C4057 C 0.27082 0.82111 0.90322 0.0
C4058 C 0.28643 0.82403 0.89357 0.0
C4059 C 0.30417 0.83099 0.90329 0.0
C4060 C 0.28491 0.82002 0.87342 0.0
C4061 C 0.25131 0.81457 0.89348 0.0
C4062 C 0.2773 0.80268 0.86519 0.0
C4063 C 0.27786 0.79858 0.84656 0.0
C4064 C 0.28633 0.8117 0.83588 0.0
C4065 C 0.29342 0.82916 0.84404 0.0
C4066 C 0.29269 0.83326 0.86258 0.0
H4067 H 0.24091 0.81808 0.90181 0.0
H4068 H 0.24966 0.82019 0.88007 0.0
H4069 H 0.24821 0.79984 0.89101 0.0
H4070 H 0.27159 0.79212 0.87331 0.0
H4071 H 0.27241 0.78497 0.84073 0.0
H4072 H 0.05058 0.61279 0.79623 0.0
H4073 H 0.07473 0.61761 0.7762 0.0
H4074 H 0.03556 0.62834 0.73297 0.0
H4075 H 1.01138 0.62375 0.75291 0.0
H4076 H 0.06856 0.59414 0.74611 0.0
H4077 H 0.0835 0.66243 0.72465 0.0
H4078 H 0.07335 0.65694 0.74524 0.0
H4079 H 0.05901 0.65335 0.72336 0.0
C4080 C 0.04722 0.6167 0.78263 0.0
C4081 C 0.02894 0.61753 0.77602 0.0
C4082 C 0.0611 0.61957 0.77126 0.0
C4083 C 0.05699 0.62343 0.75315 0.0
C4084 C 0.03917 0.62574 0.74702 0.0
H4085 H 0.06703 0.59887 0.64713 0.0
H4086 H 0.06613 0.6145 0.67648 0.0
C4087 C 0.02527 0.6229 0.75839 0.0
C4088 C 0.06961 0.62108 0.73962 0.0
H4089 H 0.08729 0.63907 0.70265 0.0
C4090 C 0.07321 0.60412 0.73691 0.0
C4091 C 0.07556 0.63412 0.72768 0.0
C4092 C 0.07281 0.65279 0.7305 0.0
C4093 C 0.08092 0.59923 0.72153 0.0
C4094 C 0.08577 0.61192 0.70883 0.0
C4095 C 0.08359 0.62937 0.71239 0.0
C4096 C 0.08974 0.60637 0.69046 0.0
C4097 C 0.08209 0.58003 0.71824 0.0
C4098 C 0.10398 0.59744 0.68827 0.0
C4099 C 0.10428 0.58813 0.67152 0.0
C4100 C 0.09068 0.58814 0.65663 0.0
C4101 C 0.07773 0.59869 0.65835 0.0
C4102 C 0.07722 0.60767 0.67514 0.0
H4103 H 0.07473 0.57137 0.72781 0.0
H4104 H 0.07601 0.57462 0.70404 0.0
H4105 H 0.09686 0.57919 0.7202 0.0
H4106 H 0.1141 0.5967 0.69981 0.0
H4107 H 0.11455 0.58027 0.67042 0.0
H4108 H 0.33835 0.18726 0.46835 0.0
H4109 H 0.33822 0.19978 0.4386 0.0
H4110 H 0.29353 0.22403 0.45026 0.0
H4111 H 0.29343 0.21127 0.47989 0.0
H4112 H 0.28649 0.21122 0.41564 0.0
H4113 H 0.35977 0.24829 0.42501 0.0
H4114 H 0.35751 0.22498 0.42732 0.0
H4115 H 0.34882 0.23831 0.44357 0.0
C4116 C 0.32855 0.19537 0.46474 0.0
C4117 C 0.316 0.1982 0.47698 0.0
C4118 C 0.32856 0.20273 0.44755 0.0
C4119 C 0.31611 0.21339 0.44179 0.0
C4120 C 0.30345 0.21607 0.45397 0.0
H4121 H 0.32686 0.28284 0.3492 0.0
H4122 H 0.3281 0.27026 0.37898 0.0
C4123 C 0.30344 0.20873 0.47116 0.0
C4124 C 0.3159 0.22133 0.42312 0.0
H4125 H 0.34343 0.24607 0.395 0.0
C4126 C 0.29903 0.21883 0.41126 0.0
C4127 C 0.332 0.23166 0.41694 0.0
C4128 C 0.35052 0.23615 0.42893 0.0
C4129 C 0.29787 0.22586 0.39385 0.0
C4130 C 0.31408 0.23568 0.3874 0.0
C4131 C 0.33089 0.23847 0.3994 0.0
C4132 C 0.31381 0.24337 0.36862 0.0
C4133 C 0.27898 0.22307 0.38275 0.0
C4134 C 0.30581 0.23273 0.35218 0.0
C4135 C 0.30508 0.23998 0.33497 0.0
C4136 C 0.31249 0.25823 0.33325 0.0
C4137 C 0.32097 0.26878 0.34962 0.0
C4138 C 0.32168 0.26151 0.36686 0.0
H4139 H 0.2677 0.22042 0.39152 0.0
H4140 H 0.27767 0.23484 0.37523 0.0
H4141 H 0.27686 0.21134 0.37266 0.0
H4142 H 0.3001 0.21864 0.35256 0.0
H4143 H 0.29852 0.23119 0.32294 0.0
H4144 H 0.34589 0.66406 0.50698 0.0
H4145 H 0.36815 0.64658 0.49894 0.0
H4146 H 0.36187 0.61958 0.54801 0.0
H4147 H 0.3396 0.63665 0.55598 0.0
H4148 H 0.40195 0.64368 0.51835 0.0
H4149 H 0.35168 0.57841 0.50823 0.0
H4150 H 0.34449 0.59925 0.50927 0.0
H4151 H 0.35168 0.59005 0.52999 0.0
C4152 C 0.34927 0.65438 0.51603 0.0
C4153 C 0.34086 0.65163 0.53204 0.0
C4154 C 0.36196 0.64442 0.51142 0.0
C4155 C 0.36633 0.63151 0.52268 0.0
C4156 C 0.35833 0.62913 0.53888 0.0
H4157 H 0.44066 0.56412 0.54161 0.0
H4158 H 0.41741 0.58212 0.54091 0.0
C4159 C 0.34567 0.639 0.54347 0.0
C4160 C 0.37951 0.62065 0.5179 0.0
H4161 H 0.38399 0.57765 0.51288 0.0
C4162 C 0.39798 0.62925 0.51681 0.0
C4163 C 0.37425 0.60183 0.51579 0.0
C4164 C 0.3544 0.59184 0.51569 0.0
C4165 C 0.41157 0.61947 0.51472 0.0
C4166 C 0.40645 0.60067 0.51357 0.0
C4167 C 0.38785 0.59208 0.51388 0.0
C4168 C 0.42042 0.5897 0.51353 0.0
C4169 C 0.43146 0.62924 0.51462 0.0
C4170 C 0.42962 0.58785 0.49824 0.0
C4171 C 0.44292 0.57752 0.49858 0.0
C4172 C 0.44726 0.56899 0.51426 0.0
C4173 C 0.4378 0.57073 0.52943 0.0
C4174 C 0.42446 0.58092 0.52903 0.0
H4175 H 0.43349 0.64384 0.51768 0.0
H4176 H 0.44079 0.62423 0.52485 0.0
H4177 H 0.43566 0.62672 0.50096 0.0
H4178 H 0.42653 0.59442 0.4861 0.0
H4179 H 0.45006 0.57649 0.48673 0.0
H4180 H 0.84849 0.92602 0.52655 0.0
H4181 H 0.87955 0.9439 0.52514 0.0
H4182 H 0.86769 0.98681 0.55816 0.0
H4183 H 0.83631 0.96874 0.55978 0.0
H4184 H 0.89265 0.97496 0.51138 0.0
H4185 H 0.91692 0.98391 0.58587 0.0
H4186 H 0.89573 0.96831 0.57613 0.0
H4187 H 0.89626 0.99167 0.57935 0.0
C4188 C 0.85231 0.93926 0.53358 0.0
C4189 C 0.83949 0.94569 0.54337 0.0
C4190 C 0.87031 0.94959 0.53273 0.0
C4191 C 0.87655 0.96682 0.54177 0.0
C4192 C 0.86372 0.97349 0.55133 0.0
H4193 H 0.98732 0.04315 0.55262 0.0
H4194 H 0.9548 0.02855 0.55433 0.0
C4195 C 0.84554 0.96313 0.55211 0.0
C4196 C 0.89626 0.97754 0.5408 0.0
H4197 H 0.93757 0.99876 0.56684 0.0
C4198 C 0.90239 0.98012 0.52358 0.0
C4199 C 0.90937 0.98456 0.55654 0.0
C4200 C 0.90438 0.98188 0.57554 0.0
C4201 C 0.92071 0.9894 0.52167 0.0
C4202 C 0.93397 0.9961 0.5374 0.0
C4203 C 0.92777 0.99375 0.55464 0.0
C4204 C 0.95422 1.00527 0.53625 0.0
C4205 C 0.92543 0.99231 0.50261 0.0
C4206 C 0.96541 0.99729 0.52575 0.0
C4207 C 0.9841 1.00574 0.52464 0.0
C4208 C 0.99258 0.02249 0.53417 0.0
C4209 C 0.98149 0.03038 0.54492 0.0
C4210 C 0.96273 0.02193 0.54597 0.0
H4211 H 0.91281 0.99202 0.49284 0.0
H4212 H 0.93541 1.00524 0.50229 0.0
H4213 H 0.93176 0.98146 0.49774 0.0
H4214 H 0.9598 0.98428 0.5185 0.0
H4215 H 0.992 0.99896 0.51639 0.0
H4216 H 0.83998 0.05628 0.21565 0.0
H4217 H 0.82938 0.08004 0.23171 0.0
H4218 H 0.87624 0.08706 0.27381 0.0
H4219 H 0.88708 0.06338 0.25785 0.0
H4220 H 0.83349 0.08507 0.2827 0.0
H4221 H 0.86569 0.13482 0.23742 0.0
H4222 H 0.85333 0.11304 0.22725 0.0
H4223 H 0.87466 0.11542 0.24218 0.0
C4224 C 0.84794 0.06274 0.22842 0.0
C4225 C 0.86442 0.05805 0.23544 0.0
C4226 C 0.84184 0.07626 0.23756 0.0
C4227 C 0.85208 0.08519 0.25386 0.0
C4228 C 0.86819 0.08021 0.26124 0.0
H4229 H 0.84373 0.18715 0.30385 0.0
H4230 H 0.855 0.1607 0.29547 0.0
C4231 C 0.87436 0.06674 0.25207 0.0
C4232 C 0.84656 0.1005 0.26254 0.0
H4233 H 0.84793 0.14446 0.25867 0.0
C4234 C 0.83667 0.09809 0.27756 0.0
C4235 C 0.85096 0.1174 0.2558 0.0
C4236 C 0.86182 0.1205 0.23982 0.0
C4237 C 0.83067 0.11226 0.28585 0.0
C4238 C 0.83465 0.12908 0.27879 0.0
C4239 C 0.84493 0.13152 0.26403 0.0
C4240 C 0.82768 0.14423 0.28594 0.0
C4241 C 0.82016 0.1092 0.30206 0.0
C4242 C 0.80858 0.14359 0.28346 0.0
C4243 C 0.80211 0.15871 0.28803 0.0
C4244 C 0.81465 0.17472 0.29511 0.0
C4245 C 0.83374 0.17509 0.29819 0.0
C4246 C 0.8402 0.15999 0.29353 0.0
H4247 H 0.82206 0.09695 0.30844 0.0
H4248 H 0.82469 0.12073 0.31256 0.0
H4249 H 0.80511 0.10767 0.29747 0.0
H4250 H 0.79875 0.13163 0.27727 0.0
H4251 H 0.78736 0.15805 0.28521 0.0
H4252 H 0.73173 0.17157 0.02981 0.0
H4253 H 0.7029 0.14898 0.02852 0.0
H4254 H 0.73389 0.1079 0.03071 0.0
H4255 H 0.76292 0.13054 0.03273 0.0
H4256 H 0.6863 0.12119 1.00478 0.0
H4257 H 0.7044 0.09736 0.07246 0.0
H4258 H 0.71805 0.11712 0.06475 0.0
H4259 H 0.72052 0.09545 0.05661 0.0
C4260 C 0.73243 0.15773 0.03001 0.0
C4261 C 0.74962 0.15285 0.03157 0.0
C4262 C 0.71593 0.14482 0.02923 0.0
C4263 C 0.71625 0.12677 0.02986 0.0
C4264 C 0.73334 0.12179 0.03072 0.0
H4265 H 0.60978 0.047 1.00905 0.0
H4266 H 0.64116 0.06375 1.00611 0.0
C4267 C 0.74991 0.13473 0.03177 0.0
C4268 C 0.69863 0.11337 0.0299 0.0
H4269 H 0.67599 0.08226 0.05531 0.0
C4270 C 0.68404 0.11261 0.01578 0.0
C4271 C 0.69569 0.10231 0.04437 0.0
C4272 C 0.71042 0.10317 0.0605 0.0
C4273 C 0.66645 0.10145 0.01595 0.0
C4274 C 0.66355 0.0903 0.03035 0.0
C4275 C 0.67829 0.09072 0.04421 0.0
C4276 C 0.64498 0.07928 0.03224 0.0
C4277 C 0.65095 0.10235 1.00116 0.0
C4278 C 0.63702 0.08192 0.04819 0.0
C4279 C 0.61933 0.07215 0.05006 0.0
C4280 C 0.60914 0.05962 0.03593 0.0
C4281 C 0.61724 0.0567 0.02009 0.0
C4282 C 0.63511 0.06634 0.01834 0.0
H4283 H 0.65428 0.11461 0.99392 0.0
H4284 H 0.64873 0.09073 0.99091 0.0
H4285 H 0.63777 0.10198 1.00693 0.0
H4286 H 0.64439 0.0918 0.05912 0.0
H4287 H 0.61349 0.07474 0.06244 0.0
H4288 H 0.15731 0.44434 0.28608 0.0
H4289 H 0.1834 0.43541 0.30348 0.0
H4290 H 0.21525 0.44571 0.25854 0.0
H4291 H 0.18941 0.45466 0.24113 0.0
H4292 H 0.19969 0.40754 0.29218 0.0
H4293 H 0.25138 0.47194 0.30328 0.0
H4294 H 0.2268 0.47035 0.29727 0.0
H4295 H 0.24092 0.46665 0.27988 0.0
C4296 C 0.16991 0.44477 0.27995 0.0
C4297 C 0.17131 0.45018 0.26223 0.0
C4298 C 0.18479 0.43975 0.28993 0.0
C4299 C 0.20134 0.44029 0.28242 0.0
C4300 C 0.20274 0.44564 0.26474 0.0
H4301 H 0.29669 0.40135 0.28517 0.0
H4302 H 0.27314 0.41897 0.2832 0.0
C4303 C 0.18788 0.45056 0.25474 0.0
C4304 C 0.21672 0.43392 0.29228 0.0
H4305 H 0.26353 0.44555 0.30549 0.0
C4306 C 0.21359 0.4159 0.29553 0.0
C4307 C 0.23476 0.44493 0.29664 0.0
C4308 C 0.23866 0.46459 0.29426 0.0
C4309 C 0.22833 0.40824 0.30171 0.0
C4310 C 0.24659 0.41905 0.30508 0.0
C4311 C 0.24953 0.43732 0.30289 0.0
C4312 C 0.26289 0.41114 0.30842 0.0
C4313 C 0.22441 0.38841 0.3033 0.0
C4314 C 0.26549 0.4016 0.32371 0.0
C4315 C 0.27881 0.39135 0.32476 0.0
C4316 C 0.28978 0.39061 0.31058 0.0
C4317 C 0.28819 0.40141 0.29612 0.0
C4318 C 0.27485 0.41157 0.29504 0.0
H4319 H 0.21005 0.3816 0.29722 0.0
H4320 H 0.23431 0.38233 0.29642 0.0
H4321 H 0.22613 0.38589 0.31796 0.0
H4322 H 0.25658 0.40137 0.33433 0.0
H4323 H 0.27969 0.38314 0.33606 0.0
H4324 H 0.22376 0.42831 0.03136 0.0
H4325 H 0.19605 0.4409 0.03021 0.0
H4326 H 0.22329 0.47957 0.07484 0.0
H4327 H 0.25092 0.46698 0.0761 0.0
H4328 H 0.17144 0.44478 0.05534 0.0
H4329 H 0.20527 0.51217 0.03928 0.0
H4330 H 0.21622 0.4936 0.03751 0.0
H4331 H 0.21643 0.50509 0.05947 0.0
C4332 C 0.224 0.43956 0.04093 0.0
C4333 C 0.24004 0.44651 0.05377 0.0
C4334 C 0.20792 0.44681 0.04029 0.0
C4335 C 0.20716 0.4616 0.05223 0.0
C4336 C 0.22317 0.4685 0.06509 0.0
H4337 H 0.1258 0.52911 0.06706 0.0
H4338 H 0.15267 0.51562 0.06769 0.0
C4339 C 0.23915 0.46113 0.06588 0.0
C4340 C 0.18974 0.46952 0.0514 0.0
H4341 H 0.17458 0.50833 0.04645 0.0
C4342 C 0.17223 0.45869 0.05329 0.0
C4343 C 0.19017 0.48774 0.04887 0.0
C4344 C 0.20796 0.50034 0.04599 0.0
C4345 C 0.15577 0.46541 0.05325 0.0
C4346 C 0.15612 0.48365 0.05053 0.0
C4347 C 0.17369 0.49443 0.04855 0.0
C4348 C 0.13884 0.49189 0.05007 0.0
C4349 C 0.1383 0.45283 0.05698 0.0
C4350 C 0.12138 0.48365 0.03983 0.0
C4351 C 0.10564 0.49138 0.03967 0.0
C4352 C 0.10658 0.50797 0.04941 0.0
C4353 C 0.12411 0.51638 0.05932 0.0
C4354 C 0.13975 0.50856 0.05965 0.0
H4355 H 0.14151 0.44177 0.06474 0.0
H4356 H 0.12979 0.45982 0.06488 0.0
H4357 H 0.12994 0.44684 0.04377 0.0
H4358 H 0.11985 0.47122 0.03162 0.0
H4359 H 0.0927 0.48436 0.03165 0.0
H4360 H 0.91441 0.97021 0.23037 0.0
H4361 H 0.90646 0.9389 0.23638 0.0
H4362 H 0.8484 0.93733 0.22083 0.0
H4363 H 0.85625 0.9685 0.21434 0.0
H4364 H 0.88566 0.9255 0.26179 0.0
H4365 H 0.85337 0.89211 0.19366 0.0
H4366 H 0.86688 0.91478 0.19671 0.0
H4367 H 0.84293 0.90983 0.20059 0.0
C4368 C 0.89996 0.96314 0.22797 0.0
C4369 C 0.88595 0.97184 0.22189 0.0
C4370 C 0.89546 0.94525 0.2314 0.0
C4371 C 0.87688 0.93573 0.22882 0.0
C4372 C 0.86288 0.94429 0.22247 0.0
H4373 H 0.81413 0.84072 0.26435 0.0
H4374 H 0.82596 0.86926 0.25249 0.0
C4375 C 0.86738 0.96215 0.21889 0.0
C4376 C 0.872 0.91735 0.23427 0.0
H4377 H 0.84744 0.87517 0.21943 0.0
C4378 C 0.87755 0.91444 0.25245 0.0
C4379 C 0.86142 0.90295 0.22205 0.0
C4380 C 0.85597 0.90502 0.20212 0.0
C4381 C 0.87221 0.89765 0.25892 0.0
C4382 C 0.86114 0.88345 0.24686 0.0
C4383 C 0.85591 0.88619 0.2286 0.0
C4384 C 0.8541 0.86588 0.2533 0.0
C4385 C 0.87789 0.89528 0.27874 0.0
C4386 C 0.86606 0.85456 0.25749 0.0
C4387 C 0.85936 0.83821 0.26424 0.0
C4388 C 0.84061 0.83301 0.26696 0.0
C4389 C 0.82866 0.84436 0.26252 0.0
C4390 C 0.83535 0.86063 0.25568 0.0
H4391 H 0.88464 0.90814 0.2868 0.0
H4392 H 0.86559 0.88882 0.28505 0.0
H4393 H 0.88781 0.88645 0.2796 0.0
H4394 H 0.88057 0.85844 0.25564 0.0
H4395 H 0.86891 0.82974 0.26748 0.0
H4396 H 0.68555 0.01797 0.73872 0.0
H4397 H 0.69809 0.05 0.74525 0.0
H4398 H 0.65377 0.05348 0.77709 0.0
H4399 H 0.64076 0.02157 0.77005 0.0
H4400 H 0.65906 0.07999 0.75624 0.0
H4401 H 0.72733 0.0758 0.79162 0.0
H4402 H 0.7231 0.06454 0.76909 0.0
H4403 H 0.70839 0.0565 0.78595 0.0
C4404 C 0.67848 0.02555 0.74712 0.0
C4405 C 0.6622 0.01721 0.75391 0.0
C4406 C 0.68576 0.04384 0.75099 0.0
C4407 C 0.67715 0.05409 0.76206 0.0
C4408 C 0.66074 0.04583 0.76864 0.0
H4409 H 0.7391 0.16332 0.79774 0.0
H4410 H 0.72098 0.13298 0.79903 0.0
C4411 C 0.6533 0.02759 0.76457 0.0
C4412 C 0.68494 0.07351 0.76624 0.0
H4413 H 0.72527 0.10423 0.78103 0.0
C4414 C 0.67348 0.08529 0.76189 0.0
C4415 C 0.70361 0.08048 0.77409 0.0
C4416 C 0.71624 0.06865 0.78065 0.0
C4417 C 0.68042 0.1038 0.76428 0.0
C4418 C 0.69949 0.11072 0.77066 0.0
C4419 C 0.7107 0.09896 0.7759 0.0
C4420 C 0.70845 0.12988 0.77071 0.0
C4421 C 0.66722 0.11571 0.75992 0.0
C4422 C 0.70722 0.13834 0.75449 0.0
C4423 C 0.71727 0.15573 0.75381 0.0
C4424 C 0.72915 0.16495 0.76923 0.0
C4425 C 0.72995 0.15668 0.78566 0.0
C4426 C 0.71972 0.13928 0.78638 0.0
H4427 H 0.65287 0.10921 0.76211 0.0
H4428 H 0.67156 0.12863 0.76844 0.0
H4429 H 0.66684 0.11834 0.7453 0.0
H4430 H 0.69901 0.13128 0.7421 0.0
H4431 H 0.71611 0.16178 0.741 0.0
loop_
_geom_bond_atom_site_label_1
_geom_bond_atom_site_label_2
_geom_bond_distance
_geom_bond_site_symmetry_2
_ccdc_geom_bond_type
O0 Cd1 2.223 . S
O0 C8 1.315 . S
Cd1 O0 2.223 . S
Cd1 O4 2.297 . S
Cd1 O5 2.439 . S
Cd1 O11 2.240 . S
Cd2 O3 2.240 . S
Cd2 O10 2.208 1_455 S
Cd2 O12 2.297 . S
Cd2 O13 2.439 . S
O3 Cd2 2.240 . S
O3 C8 1.279 . S
O4 Cd1 2.297 . S
O4 C6 1.247 . S
O5 Cd1 2.439 . S
O5 C6 1.208 . S
C6 O4 1.247 . S
C6 O5 1.208 . S
C7 O12 1.247 . S
C7 O13 1.208 . S
C8 O0 1.315 . S
C8 O3 1.279 . S
C9 O10 1.311 1_455 S
C9 O11 1.279 . S
O10 Cd2 2.208 1_655 S
O10 C9 1.311 1_655 S
O11 Cd1 2.240 . S
O11 C9 1.279 . S
O12 Cd2 2.297 . S
O12 C7 1.247 . S
O13 Cd2 2.439 . S
O13 C7 1.208 . S
O14 Cd15 2.223 . S
O14 C22 1.315 . S
Cd15 O14 2.223 . S
Cd15 O18 2.297 1_455 S
Cd15 O19 2.393 1_455 S
Cd15 O25 2.240 . S
Cd16 O17 2.240 . S
Cd16 O24 2.223 . S
Cd16 O26 2.297 . S
Cd16 O27 2.439 . S
O17 Cd16 2.240 . S
O17 C22 1.279 . S
O18 Cd15 2.297 1_655 S
O18 C20 1.247 . S
O19 Cd15 2.393 1_655 S
O19 C20 1.233 . S
C20 O18 1.247 . S
C20 O19 1.233 . S
C21 O26 1.247 . S
C21 O27 1.208 . S
C22 O14 1.315 . S
C22 O17 1.279 . S
C23 O24 1.315 . S
C23 O25 1.279 . S
O24 Cd16 2.223 . S
O24 C23 1.315 . S
O25 Cd15 2.240 . S
O25 C23 1.279 . S
O26 Cd16 2.297 . S
O26 C21 1.247 . S
O27 Cd16 2.439 . S
O27 C21 1.208 . S
O28 Cd29 2.223 . S
O28 C36 1.315 . S
Cd29 O28 2.223 . S
Cd29 O32 2.297 . S
Cd29 O33 2.439 . S
Cd29 O39 2.240 . S
Cd30 O31 2.240 . S
Cd30 O38 2.223 . S
Cd30 O40 2.297 . S
Cd30 O41 2.439 . S
O31 Cd30 2.240 . S
O31 C36 1.279 . S
O32 Cd29 2.297 . S
O32 C34 1.247 . S
O33 Cd29 2.439 . S
O33 C34 1.208 . S
C34 O32 1.247 . S
C34 O33 1.208 . S
C35 O40 1.247 . S
C35 O41 1.208 . S
C36 O28 1.315 . S
C36 O31 1.279 . S
C37 O38 1.315 . S
C37 O39 1.279 . S
O38 Cd30 2.223 . S
O38 C37 1.315 . S
O39 Cd29 2.240 . S
O39 C37 1.279 . S
O40 Cd30 2.297 . S
O40 C35 1.247 . S
O41 Cd30 2.439 . S
O41 C35 1.208 . S
O42 Cd43 2.223 . S
O42 C50 1.315 . S
Cd43 O42 2.223 . S
Cd43 O46 2.297 . S
Cd43 O47 2.439 . S
Cd43 O53 2.240 . S
Cd44 O45 2.240 . S
Cd44 O52 2.223 . S
Cd44 O54 2.297 . S
Cd44 O55 2.439 . S
O45 Cd44 2.240 . S
O45 C50 1.279 . S
O46 Cd43 2.297 . S
O46 C48 1.247 . S
O47 Cd43 2.439 . S
O47 C48 1.208 . S
C48 O46 1.247 . S
C48 O47 1.208 . S
C49 O54 1.247 . S
C49 O55 1.208 . S
C50 O42 1.315 . S
C50 O45 1.279 . S
C51 O52 1.315 . S
C51 O53 1.279 . S
O52 Cd44 2.223 . S
O52 C51 1.315 . S
O53 Cd43 2.240 . S
O53 C51 1.279 . S
O54 Cd44 2.297 . S
O54 C49 1.247 . S
O55 Cd44 2.439 . S
O55 C49 1.208 . S
O56 Cd57 2.223 . S
O56 C64 1.315 . S
Cd57 O56 2.223 . S
Cd57 O60 2.297 . S
Cd57 O61 2.439 . S
Cd57 O67 2.240 . S
Cd58 O59 2.240 . S
Cd58 O66 2.223 . S
Cd58 O68 2.297 . S
Cd58 O69 2.439 . S
O59 Cd58 2.240 . S
O59 C64 1.279 . S
O60 Cd57 2.297 . S
O60 C62 1.247 . S
O61 Cd57 2.439 . S
O61 C62 1.208 . S
C62 O60 1.247 . S
C62 O61 1.208 . S
C63 O68 1.247 . S
C63 O69 1.208 . S
C64 O56 1.315 . S
C64 O59 1.279 . S
C65 O66 1.315 . S
C65 O67 1.279 . S
O66 Cd58 2.223 . S
O66 C65 1.315 . S
O67 Cd57 2.240 . S
O67 C65 1.279 . S
O68 Cd58 2.297 . S
O68 C63 1.247 . S
O69 Cd58 2.439 . S
O69 C63 1.208 . S
O70 Cd71 2.223 . S
O70 C78 1.315 . S
Cd71 O70 2.223 . S
Cd71 O74 2.297 . S
Cd71 O75 2.439 . S
Cd71 O81 2.240 . S
Cd72 O73 2.240 . S
Cd72 O80 2.223 . S
Cd72 O82 2.297 . S
Cd72 O83 2.439 . S
O73 Cd72 2.240 . S
O73 C78 1.279 . S
O74 Cd71 2.297 . S
O74 C76 1.247 . S
O75 Cd71 2.439 . S
O75 C76 1.208 . S
C76 O74 1.247 . S
C76 O75 1.208 . S
C77 O82 1.247 . S
C77 O83 1.208 . S
C78 O70 1.315 . S
C78 O73 1.279 . S
C79 O80 1.315 . S
C79 O81 1.279 . S
O80 Cd72 2.223 . S
O80 C79 1.315 . S
O81 Cd71 2.240 . S
O81 C79 1.279 . S
O82 Cd72 2.297 . S
O82 C77 1.247 . S
O83 Cd72 2.439 . S
O83 C77 1.208 . S
O84 Cd85 2.223 . S
O84 C92 1.315 . S
Cd85 O84 2.223 . S
Cd85 O88 2.297 . S
Cd85 O89 2.439 . S
Cd85 O95 2.240 . S
Cd86 O87 2.240 . S
Cd86 O94 2.223 . S
Cd86 O96 2.297 . S
Cd86 O97 2.439 . S
O87 Cd86 2.240 . S
O87 C92 1.279 . S
O88 Cd85 2.297 . S
O88 C90 1.247 . S
O89 Cd85 2.439 . S
O89 C90 1.208 . S
C90 O88 1.247 . S
C90 O89 1.208 . S
C91 O96 1.247 . S
C91 O97 1.208 . S
C92 O84 1.315 . S
C92 O87 1.279 . S
C93 O94 1.315 . S
C93 O95 1.279 . S
O94 Cd86 2.223 . S
O94 C93 1.315 . S
O95 Cd85 2.240 . S
O95 C93 1.279 . S
O96 Cd86 2.297 . S
O96 C91 1.247 . S
O97 Cd86 2.439 . S
O97 C91 1.208 . S
O98 Cd99 2.223 1_655 S
O98 C106 1.315 . S
Cd99 O98 2.223 1_455 S
Cd99 O102 2.297 . S
Cd99 O103 2.439 . S
Cd99 O109 2.240 1_455 S
Cd100 O101 2.240 1_655 S
Cd100 O108 2.223 . S
Cd100 O110 2.297 . S
Cd100 O111 2.439 1_655 S
O101 Cd100 2.240 1_455 S
O101 C106 1.279 1_455 S
O102 Cd99 2.297 . S
O102 C104 1.247 . S
O103 Cd99 2.439 . S
O103 C104 1.208 . S
C104 O102 1.247 . S
C104 O103 1.208 . S
C105 O110 1.253 . S
C105 O111 1.202 1_655 S
C106 O98 1.315 . S
C106 O101 1.279 1_655 S
C107 O108 1.315 . S
C107 O109 1.279 . S
O108 Cd100 2.223 . S
O108 C107 1.315 . S
O109 Cd99 2.240 1_655 S
O109 C107 1.279 . S
O110 Cd100 2.297 . S
O110 C105 1.253 . S
O111 Cd100 2.439 1_455 S
O111 C105 1.202 1_455 S
O112 Cd113 2.223 . S
O112 C120 1.315 . S
Cd113 O112 2.223 . S
Cd113 O116 2.297 . S
Cd113 O117 2.439 . S
Cd113 O123 2.240 . S
Cd114 O115 2.240 . S
Cd114 O122 2.223 . S
Cd114 O124 2.297 . S
Cd114 O125 2.439 . S
O115 Cd114 2.240 . S
O115 C120 1.279 . S
O116 Cd113 2.297 . S
O116 C118 1.247 . S
O117 Cd113 2.439 . S
O117 C118 1.208 . S
C118 O116 1.247 . S
C118 O117 1.208 . S
C119 O124 1.247 . S
C119 O125 1.208 . S
C120 O112 1.315 . S
C120 O115 1.279 . S
C121 O122 1.315 . S
C121 O123 1.279 . S
O122 Cd114 2.223 . S
O122 C121 1.315 . S
O123 Cd113 2.240 . S
O123 C121 1.279 . S
O124 Cd114 2.297 . S
O124 C119 1.247 . S
O125 Cd114 2.439 . S
O125 C119 1.208 . S
O126 Cd127 2.223 . S
O126 C134 1.315 . S
Cd127 O126 2.223 . S
Cd127 O130 2.297 . S
Cd127 O131 2.439 . S
Cd127 O137 2.240 . S
Cd128 O129 2.240 . S
Cd128 O136 2.223 . S
Cd128 O138 2.297 . S
Cd128 O139 2.439 . S
O129 Cd128 2.240 . S
O129 C134 1.279 . S
O130 Cd127 2.297 . S
O130 C132 1.247 . S
O131 Cd127 2.439 . S
O131 C132 1.208 . S
C132 O130 1.247 . S
C132 O131 1.208 . S
C133 O138 1.247 . S
C133 O139 1.208 . S
C134 O126 1.315 . S
C134 O129 1.279 . S
C135 O136 1.315 . S
C135 O137 1.279 . S
O136 Cd128 2.223 . S
O136 C135 1.315 . S
O137 Cd127 2.240 . S
O137 C135 1.279 . S
O138 Cd128 2.297 . S
O138 C133 1.247 . S
O139 Cd128 2.439 . S
O139 C133 1.208 . S
O140 Cd141 2.223 . S
O140 C148 1.315 . S
Cd141 O140 2.223 . S
Cd141 O144 2.297 . S
Cd141 O145 2.439 . S
Cd141 O151 2.240 . S
Cd142 O143 2.240 . S
Cd142 O150 2.223 . S
Cd142 O152 2.297 . S
Cd142 O153 2.439 . S
O143 Cd142 2.240 . S
O143 C148 1.279 . S
O144 Cd141 2.297 . S
O144 C146 1.247 . S
O145 Cd141 2.439 . S
O145 C146 1.208 . S
C146 O144 1.247 . S
C146 O145 1.208 . S
C147 O152 1.247 . S
C147 O153 1.208 . S
C148 O140 1.315 . S
C148 O143 1.279 . S
C149 O150 1.315 . S
C149 O151 1.279 . S
O150 Cd142 2.223 . S
O150 C149 1.315 . S
O151 Cd141 2.240 . S
O151 C149 1.279 . S
O152 Cd142 2.297 . S
O152 C147 1.247 . S
O153 Cd142 2.439 . S
O153 C147 1.208 . S
O154 Cd155 2.223 . S
O154 C162 1.315 . S
Cd155 O154 2.223 . S
Cd155 O158 2.297 . S
Cd155 O159 2.439 . S
Cd155 O165 2.240 . S
Cd156 O157 2.240 . S
Cd156 O164 2.223 . S
Cd156 O166 2.297 . S
Cd156 O167 2.439 . S
O157 Cd156 2.240 . S
O157 C162 1.279 . S
O158 Cd155 2.297 . S
O158 C160 1.247 . S
O159 Cd155 2.439 . S
O159 C160 1.208 . S
C160 O158 1.247 . S
C160 O159 1.208 . S
C161 O166 1.247 1_556 S
C161 O167 1.208 1_556 S
C162 O154 1.315 . S
C162 O157 1.279 . S
C163 O164 1.315 . S
C163 O165 1.279 . S
O164 Cd156 2.223 . S
O164 C163 1.315 . S
O165 Cd155 2.240 . S
O165 C163 1.279 . S
O166 Cd156 2.297 . S
O166 C161 1.247 1_554 S
O167 Cd156 2.439 . S
O167 C161 1.208 1_554 S
O168 Cd169 2.223 . S
O168 C176 1.315 . S
Cd169 O168 2.223 . S
Cd169 O172 2.297 . S
Cd169 O173 2.439 . S
Cd169 O179 2.240 . S
Cd170 O171 2.240 . S
Cd170 O178 2.223 . S
Cd170 O180 2.297 1_554 S
Cd170 O181 2.439 1_554 S
O171 Cd170 2.240 . S
O171 C176 1.279 . S
O172 Cd169 2.297 . S
O172 C174 1.247 . S
O173 Cd169 2.439 . S
O173 C174 1.208 . S
C174 O172 1.247 . S
C174 O173 1.208 . S
C175 O180 1.247 . S
C175 O181 1.208 . S
C176 O168 1.315 . S
C176 O171 1.279 . S
C177 O178 1.315 . S
C177 O179 1.279 . S
O178 Cd170 2.223 . S
O178 C177 1.315 . S
O179 Cd169 2.240 . S
O179 C177 1.279 . S
O180 Cd170 2.297 1_556 S
O180 C175 1.247 . S
O181 Cd170 2.439 1_556 S
O181 C175 1.208 . S
O182 Cd183 2.223 . S
O182 C190 1.315 . S
Cd183 O182 2.223 . S
Cd183 O186 2.297 . S
Cd183 O187 2.439 1_554 S
Cd183 O193 2.240 1_554 S
Cd184 O185 2.240 1_556 S
Cd184 O192 2.223 1_556 S
Cd184 O194 2.297 . S
Cd184 O195 2.439 . S
O185 Cd184 2.240 1_554 S
O185 C190 1.279 . S
O186 Cd183 2.297 . S
O186 C188 1.247 . S
O187 Cd183 2.439 1_556 S
O187 C188 1.208 1_556 S
C188 O186 1.247 . S
C188 O187 1.208 1_554 S
C189 O194 1.247 . S
C189 O195 1.208 . S
C190 O182 1.315 . S
C190 O185 1.279 . S
C191 O192 1.315 1_556 S
C191 O193 1.279 . S
O192 Cd184 2.223 1_554 S
O192 C191 1.315 1_554 S
O193 Cd183 2.240 1_556 S
O193 C191 1.279 . S
O194 Cd184 2.297 . S
O194 C189 1.247 . S
O195 Cd184 2.439 . S
O195 C189 1.208 . S
O196 Cd197 2.223 . S
O196 C204 1.315 . S
Cd197 O196 2.223 . S
Cd197 O200 2.297 . S
Cd197 O201 2.439 . S
Cd197 O207 2.240 . S
Cd198 O199 2.240 . S
Cd198 O206 2.223 . S
Cd198 O208 2.297 . S
Cd198 O209 2.439 . S
O199 Cd198 2.240 . S
O199 C204 1.279 . S
O200 Cd197 2.297 . S
O200 C202 1.247 . S
O201 Cd197 2.439 . S
O201 C202 1.208 . S
C202 O200 1.247 . S
C202 O201 1.208 . S
C203 O208 1.247 . S
C203 O209 1.208 . S
C204 O196 1.315 . S
C204 O199 1.279 . S
C205 O206 1.315 . S
C205 O207 1.279 . S
O206 Cd198 2.223 . S
O206 C205 1.315 . S
O207 Cd197 2.240 . S
O207 C205 1.279 . S
O208 Cd198 2.297 . S
O208 C203 1.247 . S
O209 Cd198 2.439 . S
O209 C203 1.208 . S
O210 Cd211 2.223 . S
O210 C218 1.315 . S
Cd211 O210 2.223 . S
Cd211 O214 2.297 . S
Cd211 O215 2.439 . S
Cd211 O221 2.240 . S
Cd212 O213 2.240 . S
Cd212 O220 2.223 . S
Cd212 O222 2.297 . S
Cd212 O223 2.439 . S
O213 Cd212 2.240 . S
O213 C218 1.279 . S
O214 Cd211 2.297 . S
O214 C216 1.247 . S
O215 Cd211 2.439 . S
O215 C216 1.208 . S
C216 O214 1.247 . S
C216 O215 1.208 . S
C217 O222 1.247 . S
C217 O223 1.208 . S
C218 O210 1.315 . S
C218 O213 1.279 . S
C219 O220 1.315 . S
C219 O221 1.279 . S
O220 Cd212 2.223 . S
O220 C219 1.315 . S
O221 Cd211 2.240 . S
O221 C219 1.279 . S
O222 Cd212 2.297 . S
O222 C217 1.247 . S
O223 Cd212 2.439 . S
O223 C217 1.208 . S
O224 Cd225 2.211 1_565 S
O224 C232 1.315 1_565 S
Cd225 O224 2.211 1_545 S
Cd225 O228 2.297 . S
Cd225 O229 2.439 . S
Cd225 O235 2.240 1_545 S
Cd226 O227 2.215 1_565 S
Cd226 O234 2.259 . S
Cd226 O236 2.315 . S
Cd226 O237 2.420 1_565 S
O227 Cd226 2.215 1_545 S
O227 C232 1.279 . S
O228 Cd225 2.297 . S
O228 C230 1.247 . S
O229 Cd225 2.439 . S
O229 C230 1.208 . S
C230 O228 1.247 . S
C230 O229 1.208 . S
C231 O236 1.247 1_545 S
C231 O237 1.208 . S
C232 O224 1.315 1_545 S
C232 O227 1.279 . S
C233 O234 1.315 . S
C233 O235 1.279 . S
O234 Cd226 2.259 . S
O234 C233 1.315 . S
O235 Cd225 2.240 1_565 S
O235 C233 1.279 . S
O236 Cd226 2.315 . S
O236 C231 1.247 1_565 S
O237 Cd226 2.420 1_545 S
O237 C231 1.208 . S
O238 Cd239 2.223 . S
O238 C246 1.315 . S
Cd239 O238 2.223 . S
Cd239 O242 2.297 . S
Cd239 O243 2.439 . S
Cd239 O249 2.240 . S
Cd240 O241 2.240 . S
Cd240 O248 2.223 . S
Cd240 O250 2.297 . S
Cd240 O251 2.439 . S
O241 Cd240 2.240 . S
O241 C246 1.279 . S
O242 Cd239 2.297 . S
O242 C244 1.247 . S
O243 Cd239 2.439 . S
O243 C244 1.208 . S
C244 O242 1.247 . S
C244 O243 1.208 . S
C245 O250 1.247 . S
C245 O251 1.208 . S
C246 O238 1.315 . S
C246 O241 1.279 . S
C247 O248 1.315 . S
C247 O249 1.279 . S
O248 Cd240 2.223 . S
O248 C247 1.315 . S
O249 Cd239 2.240 . S
O249 C247 1.279 . S
O250 Cd240 2.297 . S
O250 C245 1.247 . S
O251 Cd240 2.439 . S
O251 C245 1.208 . S
O252 Cd253 2.223 . S
O252 C260 1.315 . S
Cd253 O252 2.223 . S
Cd253 O256 2.297 . S
Cd253 O257 2.439 . S
Cd253 O263 2.240 . S
Cd254 O255 2.240 . S
Cd254 O262 2.223 . S
Cd254 O264 2.297 . S
Cd254 O265 2.439 . S
O255 Cd254 2.240 . S
O255 C260 1.279 . S
O256 Cd253 2.297 . S
O256 C258 1.247 . S
O257 Cd253 2.439 . S
O257 C258 1.208 . S
C258 O256 1.247 . S
C258 O257 1.208 . S
C259 O264 1.247 . S
C259 O265 1.208 . S
C260 O252 1.315 . S
C260 O255 1.279 . S
C261 O262 1.315 . S
C261 O263 1.279 . S
O262 Cd254 2.223 . S
O262 C261 1.315 . S
O263 Cd253 2.240 . S
O263 C261 1.279 . S
O264 Cd254 2.297 . S
O264 C259 1.247 . S
O265 Cd254 2.439 . S
O265 C259 1.208 . S
O266 Cd267 2.223 1_545 S
O266 C274 1.315 1_545 S
Cd267 O266 2.223 1_565 S
Cd267 O270 2.297 . S
Cd267 O271 2.439 . S
Cd267 O277 2.240 1_565 S
Cd268 O269 2.240 1_545 S
Cd268 O276 2.223 . S
Cd268 O278 2.297 . S
Cd268 O279 2.439 1_545 S
O269 Cd268 2.240 1_565 S
O269 C274 1.304 . S
O270 Cd267 2.297 . S
O270 C272 1.247 . S
O271 Cd267 2.439 . S
O271 C272 1.208 . S
C272 O270 1.247 . S
C272 O271 1.208 . S
C273 O278 1.247 . S
C273 O279 1.208 1_545 S
C274 O266 1.315 1_565 S
C274 O269 1.304 . S
C275 O276 1.315 . S
C275 O277 1.279 . S
O276 Cd268 2.223 . S
O276 C275 1.315 . S
O277 Cd267 2.240 1_545 S
O277 C275 1.279 . S
O278 Cd268 2.297 . S
O278 C273 1.247 . S
O279 Cd268 2.439 1_565 S
O279 C273 1.208 1_565 S
O280 Cd281 2.223 . S
O280 C288 1.315 . S
Cd281 O280 2.223 . S
Cd281 O284 2.297 . S
Cd281 O285 2.439 . S
Cd281 O291 2.240 . S
Cd282 O283 2.240 . S
Cd282 O290 2.223 . S
Cd282 O292 2.297 1_554 S
Cd282 O293 2.439 1_554 S
O283 Cd282 2.240 . S
O283 C288 1.279 . S
O284 Cd281 2.297 . S
O284 C286 1.247 . S
O285 Cd281 2.439 . S
O285 C286 1.208 . S
C286 O284 1.247 . S
C286 O285 1.208 . S
C287 O292 1.247 . S
C287 O293 1.208 . S
C288 O280 1.315 . S
C288 O283 1.279 . S
C289 O290 1.315 . S
C289 O291 1.279 . S
O290 Cd282 2.223 . S
O290 C289 1.315 . S
O291 Cd281 2.240 . S
O291 C289 1.279 . S
O292 Cd282 2.297 1_556 S
O292 C287 1.247 . S
O293 Cd282 2.439 1_556 S
O293 C287 1.208 . S
O294 Cd295 2.223 . S
O294 C302 1.315 . S
Cd295 O294 2.223 . S
Cd295 O298 2.297 . S
Cd295 O299 2.439 . S
Cd295 O305 2.240 . S
Cd296 O297 2.240 . S
Cd296 O304 2.223 . S
Cd296 O306 2.297 . S
Cd296 O307 2.439 . S
O297 Cd296 2.240 . S
O297 C302 1.279 . S
O298 Cd295 2.297 . S
O298 C300 1.247 . S
O299 Cd295 2.439 . S
O299 C300 1.208 . S
C300 O298 1.247 . S
C300 O299 1.208 . S
C301 O306 1.247 . S
C301 O307 1.208 . S
C302 O294 1.315 . S
C302 O297 1.279 . S
C303 O304 1.315 . S
C303 O305 1.279 . S
O304 Cd296 2.223 . S
O304 C303 1.315 . S
O305 Cd295 2.240 . S
O305 C303 1.279 . S
O306 Cd296 2.297 . S
O306 C301 1.247 . S
O307 Cd296 2.439 . S
O307 C301 1.208 . S
O308 Cd309 2.223 . S
O308 C316 1.315 . S
Cd309 O308 2.223 . S
Cd309 O312 2.297 . S
Cd309 O313 2.439 . S
Cd309 O319 2.240 . S
Cd310 O311 2.240 . S
Cd310 O318 2.223 . S
Cd310 O320 2.297 . S
Cd310 O321 2.439 . S
O311 Cd310 2.240 . S
O311 C316 1.279 . S
O312 Cd309 2.297 . S
O312 C314 1.247 . S
O313 Cd309 2.439 . S
O313 C314 1.208 . S
C314 O312 1.247 . S
C314 O313 1.208 . S
C315 O320 1.247 . S
C315 O321 1.208 . S
C316 O308 1.315 . S
C316 O311 1.279 . S
C317 O318 1.315 . S
C317 O319 1.279 . S
O318 Cd310 2.223 . S
O318 C317 1.315 . S
O319 Cd309 2.240 . S
O319 C317 1.279 . S
O320 Cd310 2.297 . S
O320 C315 1.247 . S
O321 Cd310 2.439 . S
O321 C315 1.208 . S
O322 Cd323 2.223 . S
O322 C330 1.315 . S
Cd323 O322 2.223 . S
Cd323 O326 2.297 . S
Cd323 O327 2.439 . S
Cd323 O333 2.240 . S
Cd324 O325 2.240 . S
Cd324 O332 2.223 . S
Cd324 O334 2.297 . S
Cd324 O335 2.439 . S
O325 Cd324 2.240 . S
O325 C330 1.279 . S
O326 Cd323 2.297 . S
O326 C328 1.247 . S
O327 Cd323 2.439 . S
O327 C328 1.208 . S
C328 O326 1.247 . S
C328 O327 1.208 . S
C329 O334 1.247 . S
C329 O335 1.208 . S
C330 O322 1.315 . S
C330 O325 1.279 . S
C331 O332 1.315 . S
C331 O333 1.279 . S
O332 Cd324 2.223 . S
O332 C331 1.315 . S
O333 Cd323 2.240 . S
O333 C331 1.279 . S
O334 Cd324 2.297 . S
O334 C329 1.247 . S
O335 Cd324 2.439 . S
O335 C329 1.208 . S
Tb336 C346 2.825 1_455 S
Tb336 O347 2.347 . S
Tb336 O350 2.366 . S
Tb336 O355 2.418 1_554 S
Tb336 O356 2.384 . S
Tb336 O359 2.479 1_455 S
Tb336 O360 2.471 1_455 S
Eu337 O348 2.418 . S
Eu337 O349 2.384 . S
Eu337 O352 2.479 . S
Eu337 O353 2.471 . S
Eu337 O354 2.347 . S
Eu337 O357 2.366 . S
Eu337 C367 2.825 . S
C338 O354 1.259 . S
C338 O355 1.265 1_554 S
C339 O356 1.255 . S
C339 O357 1.265 . S
C340 C342 1.380 1_554 S
C340 C343 1.374 . S
C340 C346 1.507 . S
C341 C342 1.384 . S
C341 C345 1.387 . S
C341 H368 0.930 . S
C342 C340 1.380 1_556 S
C342 C341 1.384 . S
C342 H369 0.931 . S
C343 C340 1.374 . S
C343 C344 1.390 . S
C343 H370 0.930 . S
C344 C343 1.390 . S
C344 C345 1.391 1_554 S
C344 H371 0.930 . S
C345 C341 1.387 . S
C345 C344 1.391 1_556 S
C346 Tb336 2.825 1_655 S
C346 C340 1.507 . S
C346 O359 1.238 . S
C346 O360 1.247 . S
O347 Tb336 2.347 . S
O347 C351 1.259 . S
O348 Eu337 2.418 . S
O348 C351 1.265 . S
O349 Eu337 2.384 . S
O349 C358 1.255 . S
O350 Tb336 2.366 . S
O350 C358 1.265 . S
C351 O347 1.259 . S
C351 O348 1.265 . S
O352 Eu337 2.479 . S
O352 C367 1.238 . S
O353 Eu337 2.471 . S
O353 C367 1.247 . S
O354 Eu337 2.347 . S
O354 C338 1.259 . S
O355 Tb336 2.418 1_556 S
O355 C338 1.265 1_556 S
O356 Tb336 2.384 . S
O356 C339 1.255 . S
O357 Eu337 2.366 . S
O357 C339 1.265 . S
C358 O349 1.255 . S
C358 O350 1.265 . S
O359 Tb336 2.479 1_655 S
O359 C346 1.238 . S
O360 Tb336 2.471 1_655 S
O360 C346 1.247 . S
C361 C364 1.380 . S
C361 C365 1.374 . S
C361 C367 1.507 . S
C362 C363 1.387 . S
C362 C366 1.391 . S
C363 C362 1.387 . S
C363 C364 1.384 . S
C363 H372 0.930 . S
C364 C361 1.380 . S
C364 C363 1.384 . S
C364 H373 0.931 . S
C365 C361 1.374 . S
C365 C366 1.390 . S
C365 H374 0.930 . S
C366 C362 1.391 . S
C366 C365 1.390 . S
C366 H375 0.930 1_545 S
C367 Eu337 2.825 . S
C367 O352 1.238 . S
C367 O353 1.247 . S
C367 C361 1.507 . S
H368 C341 0.930 . S
H369 C342 0.931 . S
H370 C343 0.930 . S
H371 C344 0.930 . S
H372 C363 0.930 . S
H373 C364 0.931 . S
H374 C365 0.930 . S
H375 C366 0.930 1_565 S
Tb376 C386 2.825 . S
Tb376 O387 2.347 . S
Tb376 O390 2.366 . S
Tb376 O395 2.418 . S
Tb376 O396 2.384 . S
Tb376 O399 2.479 . S
Tb376 O400 2.471 . S
Eu377 O388 2.418 . S
Eu377 O389 2.384 . S
Eu377 O392 2.479 . S
Eu377 O393 2.471 . S
Eu377 O394 2.347 . S
Eu377 O397 2.366 . S
Eu377 C407 2.825 . S
C378 O394 1.259 . S
C378 O395 1.265 . S
C379 O396 1.255 . S
C379 O397 1.265 . S
C380 C382 1.380 . S
C380 C383 1.374 . S
C380 C386 1.507 . S
C381 C382 1.384 . S
C381 C385 1.387 . S
C381 H408 0.930 . S
C382 C380 1.380 . S
C382 C381 1.384 . S
C382 H409 0.931 . S
C383 C380 1.374 . S
C383 C384 1.390 . S
C383 H410 0.930 . S
C384 C383 1.390 . S
C384 C385 1.391 . S
C384 H411 0.930 . S
C385 C381 1.387 . S
C385 C384 1.391 . S
C386 Tb376 2.825 . S
C386 C380 1.507 . S
C386 O399 1.238 . S
C386 O400 1.247 . S
O387 Tb376 2.347 . S
O387 C391 1.259 . S
O388 Eu377 2.418 . S
O388 C391 1.265 . S
O389 Eu377 2.384 . S
O389 C398 1.255 . S
O390 Tb376 2.366 . S
O390 C398 1.265 . S
C391 O387 1.259 . S
C391 O388 1.265 . S
O392 Eu377 2.479 . S
O392 C407 1.238 . S
O393 Eu377 2.471 . S
O393 C407 1.247 . S
O394 Eu377 2.347 . S
O394 C378 1.259 . S
O395 Tb376 2.418 . S
O395 C378 1.265 . S
O396 Tb376 2.384 . S
O396 C379 1.255 . S
O397 Eu377 2.366 . S
O397 C379 1.265 . S
C398 O389 1.255 . S
C398 O390 1.265 . S
O399 Tb376 2.479 . S
O399 C386 1.238 . S
O400 Tb376 2.471 . S
O400 C386 1.247 . S
C401 C404 1.380 . S
C401 C405 1.374 . S
C401 C407 1.507 . S
C402 C403 1.387 . S
C402 C406 1.391 . S
C403 C402 1.387 . S
C403 C404 1.384 . S
C403 H412 0.930 . S
C404 C401 1.380 . S
C404 C403 1.384 . S
C404 H413 0.931 . S
C405 C401 1.374 . S
C405 C406 1.390 . S
C405 H414 0.930 . S
C406 C402 1.391 . S
C406 C405 1.390 . S
C406 H415 0.930 . S
C407 Eu377 2.825 . S
C407 O392 1.238 . S
C407 O393 1.247 . S
C407 C401 1.507 . S
H408 C381 0.930 . S
H409 C382 0.931 . S
H410 C383 0.930 . S
H411 C384 0.930 . S
H412 C403 0.930 . S
H413 C404 0.931 . S
H414 C405 0.930 . S
H415 C406 0.930 . S
Tb416 C426 2.825 1_545 S
Tb416 O427 2.347 . S
Tb416 O430 2.381 . S
Tb416 O435 2.418 . S
Tb416 O436 2.384 . S
Tb416 O439 2.479 1_545 S
Tb416 O440 2.471 1_545 S
Eu417 O428 2.418 . S
Eu417 O429 2.384 . S
Eu417 O432 2.479 . S
Eu417 O433 2.471 . S
Eu417 O434 2.347 . S
Eu417 O437 2.366 . S
Eu417 C447 2.825 . S
C418 O434 1.259 . S
C418 O435 1.265 . S
C419 O436 1.255 . S
C419 O437 1.265 . S
C420 C422 1.380 . S
C420 C423 1.374 . S
C420 C426 1.507 . S
C421 C422 1.384 . S
C421 C425 1.387 . S
C421 H448 0.930 . S
C422 C420 1.380 . S
C422 C421 1.384 . S
C422 H449 0.931 . S
C423 C420 1.374 . S
C423 C424 1.390 . S
C423 H450 0.930 . S
C424 C423 1.390 . S
C424 C425 1.391 . S
C424 H451 0.930 . S
C425 C421 1.387 . S
C425 C424 1.391 . S
C426 Tb416 2.825 1_565 S
C426 C420 1.507 . S
C426 O439 1.238 . S
C426 O440 1.247 . S
O427 Tb416 2.347 . S
O427 C431 1.259 . S
O428 Eu417 2.418 . S
O428 C431 1.265 . S
O429 Eu417 2.384 . S
O429 C438 1.255 . S
O430 Tb416 2.381 . S
O430 C438 1.287 . S
C431 O427 1.259 . S
C431 O428 1.265 . S
O432 Eu417 2.479 . S
O432 C447 1.238 . S
O433 Eu417 2.471 . S
O433 C447 1.247 . S
O434 Eu417 2.347 . S
O434 C418 1.259 . S
O435 Tb416 2.418 . S
O435 C418 1.265 . S
O436 Tb416 2.384 . S
O436 C419 1.255 . S
O437 Eu417 2.366 . S
O437 C419 1.265 . S
C438 O429 1.255 . S
C438 O430 1.287 . S
O439 Tb416 2.479 1_565 S
O439 C426 1.238 . S
O440 Tb416 2.471 1_565 S
O440 C426 1.247 . S
C441 C444 1.380 . S
C441 C445 1.374 . S
C441 C447 1.507 . S
C442 C443 1.387 . S
C442 C446 1.391 . S
C443 C442 1.387 . S
C443 C444 1.384 . S
C443 H452 0.930 . S
C444 C441 1.380 . S
C444 C443 1.384 . S
C444 H453 0.931 . S
C445 C441 1.374 . S
C445 C446 1.390 . S
C445 H454 0.930 . S
C446 C442 1.391 . S
C446 C445 1.390 . S
C446 H455 0.930 . S
C447 Eu417 2.825 . S
C447 O432 1.238 . S
C447 O433 1.247 . S
C447 C441 1.507 . S
H448 C421 0.930 . S
H449 C422 0.931 . S
H450 C423 0.930 . S
H451 C424 0.930 . S
H452 C443 0.930 . S
H453 C444 0.931 . S
H454 C445 0.930 . S
H455 C446 0.930 . S
Tb456 C466 2.825 . S
Tb456 O467 2.347 . S
Tb456 O470 2.366 . S
Tb456 O475 2.418 . S
Tb456 O476 2.384 . S
Tb456 O479 2.479 . S
Tb456 O480 2.471 . S
Eu457 O468 2.418 . S
Eu457 O469 2.384 . S
Eu457 O472 2.479 . S
Eu457 O473 2.471 . S
Eu457 O474 2.347 . S
Eu457 O477 2.366 . S
Eu457 C487 2.825 . S
C458 O474 1.259 . S
C458 O475 1.265 . S
C459 O476 1.255 . S
C459 O477 1.265 . S
C460 C462 1.380 . S
C460 C463 1.374 . S
C460 C466 1.507 . S
C461 C462 1.384 . S
C461 C465 1.387 . S
C461 H488 0.930 . S
C462 C460 1.380 . S
C462 C461 1.384 . S
C462 H489 0.931 . S
C463 C460 1.374 . S
C463 C464 1.390 . S
C463 H490 0.930 . S
C464 C463 1.390 . S
C464 C465 1.391 . S
C464 H491 0.930 . S
C465 C461 1.387 . S
C465 C464 1.391 . S
C466 Tb456 2.825 . S
C466 C460 1.507 . S
C466 O479 1.238 . S
C466 O480 1.247 . S
O467 Tb456 2.347 . S
O467 C471 1.259 . S
O468 Eu457 2.418 . S
O468 C471 1.265 . S
O469 Eu457 2.384 . S
O469 C478 1.255 . S
O470 Tb456 2.366 . S
O470 C478 1.265 . S
C471 O467 1.259 . S
C471 O468 1.265 . S
O472 Eu457 2.479 . S
O472 C487 1.238 . S
O473 Eu457 2.471 . S
O473 C487 1.247 . S
O474 Eu457 2.347 . S
O474 C458 1.259 . S
O475 Tb456 2.418 . S
O475 C458 1.265 . S
O476 Tb456 2.384 . S
O476 C459 1.255 . S
O477 Eu457 2.366 . S
O477 C459 1.265 . S
C478 O469 1.255 . S
C478 O470 1.265 . S
O479 Tb456 2.479 . S
O479 C466 1.238 . S
O480 Tb456 2.471 . S
O480 C466 1.247 . S
C481 C484 1.380 . S
C481 C485 1.374 . S
C481 C487 1.507 . S
C482 C483 1.387 . S
C482 C486 1.391 . S
C483 C482 1.387 . S
C483 C484 1.384 . S
C483 H492 0.930 . S
C484 C481 1.380 . S
C484 C483 1.384 . S
C484 H493 0.931 . S
C485 C481 1.374 . S
C485 C486 1.390 . S
C485 H494 0.930 . S
C486 C482 1.391 . S
C486 C485 1.390 . S
C486 H495 0.930 . S
C487 Eu457 2.825 . S
C487 O472 1.238 . S
C487 O473 1.247 . S
C487 C481 1.507 . S
H488 C461 0.930 . S
H489 C462 0.931 . S
H490 C463 0.930 . S
H491 C464 0.930 . S
H492 C483 0.930 . S
H493 C484 0.931 . S
H494 C485 0.930 . S
H495 C486 0.930 . S
Tb496 C506 2.825 . S
Tb496 O507 2.347 . S
Tb496 O510 2.366 . S
Tb496 O515 2.418 . S
Tb496 O516 2.384 1_545 S
Tb496 O519 2.479 . S
Tb496 O520 2.471 . S
Eu497 O508 2.418 . S
Eu497 O509 2.384 . S
Eu497 O512 2.479 . S
Eu497 O513 2.471 . S
Eu497 O514 2.347 . S
Eu497 O517 2.366 . S
Eu497 C527 2.825 . S
C498 O514 1.259 . S
C498 O515 1.265 . S
C499 O516 1.255 . S
C499 O517 1.265 1_565 S
C500 C502 1.380 . S
C500 C503 1.318 1_455 S
C500 C506 1.507 . S
C501 C502 1.384 . S
C501 C505 1.387 . S
C501 H528 0.930 . S
C502 C500 1.380 . S
C502 C501 1.384 . S
C502 H529 0.931 . S
C503 C500 1.318 1_655 S
C503 C504 1.410 . S
C503 H530 0.969 . S
C504 C503 1.410 . S
C504 C505 1.391 1_655 S
C504 H531 0.930 . S
C505 C501 1.387 . S
C505 C504 1.391 1_455 S
C506 Tb496 2.825 . S
C506 C500 1.507 . S
C506 O519 1.238 . S
C506 O520 1.247 . S
O507 Tb496 2.347 . S
O507 C511 1.259 . S
O508 Eu497 2.418 . S
O508 C511 1.265 . S
O509 Eu497 2.384 . S
O509 C518 1.255 . S
O510 Tb496 2.366 . S
O510 C518 1.265 . S
C511 O507 1.259 . S
C511 O508 1.265 . S
O512 Eu497 2.479 . S
O512 C527 1.238 . S
O513 Eu497 2.471 . S
O513 C527 1.247 . S
O514 Eu497 2.347 . S
O514 C498 1.259 . S
O515 Tb496 2.418 . S
O515 C498 1.265 . S
O516 Tb496 2.384 1_565 S
O516 C499 1.255 . S
O517 Eu497 2.366 . S
O517 C499 1.265 1_545 S
C518 O509 1.255 . S
C518 O510 1.265 . S
O519 Tb496 2.479 . S
O519 C506 1.238 . S
O520 Tb496 2.471 . S
O520 C506 1.247 . S
C521 C524 1.380 . S
C521 C525 1.374 . S
C521 C527 1.507 . S
C522 C523 1.387 . S
C522 C526 1.391 . S
C523 C522 1.387 . S
C523 C524 1.384 . S
C523 H532 0.930 . S
C524 C521 1.380 . S
C524 C523 1.384 . S
C524 H533 0.931 . S
C525 C521 1.374 . S
C525 C526 1.390 . S
C525 H534 0.930 . S
C526 C522 1.391 . S
C526 C525 1.390 . S
C526 H535 0.930 . S
C527 Eu497 2.825 . S
C527 O512 1.238 . S
C527 O513 1.247 . S
C527 C521 1.507 . S
H528 C501 0.930 . S
H529 C502 0.931 . S
H530 C503 0.969 . S
H531 C504 0.930 . S
H532 C523 0.930 . S
H533 C524 0.931 . S
H534 C525 0.930 . S
H535 C526 0.930 . S
Tb536 C546 2.825 . S
Tb536 O547 2.347 . S
Tb536 O550 2.366 . S
Tb536 O555 2.418 . S
Tb536 O556 2.384 . S
Tb536 O559 2.479 . S
Tb536 O560 2.471 . S
Eu537 O548 2.418 . S
Eu537 O549 2.384 . S
Eu537 O552 2.479 . S
Eu537 O553 2.471 . S
Eu537 O554 2.347 . S
Eu537 O557 2.366 . S
Eu537 C567 2.825 . S
C538 O554 1.259 . S
C538 O555 1.265 . S
C539 O556 1.255 . S
C539 O557 1.265 . S
C540 C542 1.380 . S
C540 C543 1.374 . S
C540 C546 1.507 . S
C541 C542 1.384 . S
C541 C545 1.387 . S
C541 H568 0.930 . S
C542 C540 1.380 . S
C542 C541 1.384 . S
C542 H569 0.931 . S
C543 C540 1.374 . S
C543 C544 1.390 . S
C543 H570 0.930 . S
C544 C543 1.390 . S
C544 C545 1.391 . S
C544 H571 0.930 . S
C545 C541 1.387 . S
C545 C544 1.391 . S
C546 Tb536 2.825 . S
C546 C540 1.507 . S
C546 O559 1.238 . S
C546 O560 1.247 . S
O547 Tb536 2.347 . S
O547 C551 1.259 . S
O548 Eu537 2.418 . S
O548 C551 1.265 . S
O549 Eu537 2.384 . S
O549 C558 1.255 . S
O550 Tb536 2.366 . S
O550 C558 1.265 . S
C551 O547 1.259 . S
C551 O548 1.265 . S
O552 Eu537 2.479 . S
O552 C567 1.238 . S
O553 Eu537 2.471 . S
O553 C567 1.247 . S
O554 Eu537 2.347 . S
O554 C538 1.259 . S
O555 Tb536 2.418 . S
O555 C538 1.265 . S
O556 Tb536 2.384 . S
O556 C539 1.255 . S
O557 Eu537 2.366 . S
O557 C539 1.265 . S
C558 O549 1.255 . S
C558 O550 1.265 . S
O559 Tb536 2.479 . S
O559 C546 1.238 . S
O560 Tb536 2.471 . S
O560 C546 1.247 . S
C561 C564 1.380 . S
C561 C565 1.374 . S
C561 C567 1.507 . S
C562 C563 1.387 . S
C562 C566 1.391 . S
C563 C562 1.387 . S
C563 C564 1.384 . S
C563 H572 0.930 . S
C564 C561 1.380 . S
C564 C563 1.384 . S
C564 H573 0.931 . S
C565 C561 1.374 . S
C565 C566 1.390 . S
C565 H574 0.930 . S
C566 C562 1.391 . S
C566 C565 1.390 . S
C566 H575 0.930 . S
C567 Eu537 2.825 . S
C567 O552 1.238 . S
C567 O553 1.247 . S
C567 C561 1.507 . S
H568 C541 0.930 . S
H569 C542 0.931 . S
H570 C543 0.930 . S
H571 C544 0.930 . S
H572 C563 0.930 . S
H573 C564 0.931 . S
H574 C565 0.930 . S
H575 C566 0.930 . S
Tb576 C586 2.825 . S
Tb576 O587 2.347 . S
Tb576 O590 2.366 . S
Tb576 O595 2.418 1_545 S
Tb576 O596 2.384 . S
Tb576 O599 2.479 . S
Tb576 O600 2.471 . S
Eu577 O588 2.418 . S
Eu577 O589 2.384 . S
Eu577 O592 2.479 1_554 S
Eu577 O593 2.471 1_554 S
Eu577 O594 2.347 . S
Eu577 O597 2.366 . S
Eu577 C607 2.825 1_554 S
C578 O594 1.259 1_565 S
C578 O595 1.265 . S
C579 O596 1.255 . S
C579 O597 1.265 . S
C580 C582 1.380 1_545 S
C580 C583 1.374 . S
C580 C586 1.507 . S
C581 C582 1.384 . S
C581 C585 1.387 1_565 S
C581 H608 0.930 . S
C582 C580 1.380 1_565 S
C582 C581 1.384 . S
C582 H609 0.931 . S
C583 C580 1.374 . S
C583 C584 1.390 . S
C583 H610 0.930 . S
C584 C583 1.390 . S
C584 C585 1.391 . S
C584 H611 0.930 . S
C585 C581 1.387 1_545 S
C585 C584 1.391 . S
C586 Tb576 2.825 . S
C586 C580 1.507 . S
C586 O599 1.238 . S
C586 O600 1.247 . S
O587 Tb576 2.347 . S
O587 C591 1.259 . S
O588 Eu577 2.418 . S
O588 C591 1.265 . S
O589 Eu577 2.384 . S
O589 C598 1.255 . S
O590 Tb576 2.366 . S
O590 C598 1.265 . S
C591 O587 1.259 . S
C591 O588 1.265 . S
O592 Eu577 2.479 1_556 S
O592 C607 1.238 . S
O593 Eu577 2.471 1_556 S
O593 C607 1.247 . S
O594 Eu577 2.347 . S
O594 C578 1.259 1_545 S
O595 Tb576 2.418 1_565 S
O595 C578 1.265 . S
O596 Tb576 2.384 . S
O596 C579 1.255 . S
O597 Eu577 2.366 . S
O597 C579 1.265 . S
C598 O589 1.255 . S
C598 O590 1.265 . S
O599 Tb576 2.479 . S
O599 C586 1.238 . S
O600 Tb576 2.471 . S
O600 C586 1.247 . S
C601 C604 1.380 . S
C601 C605 1.374 . S
C601 C607 1.507 . S
C602 C603 1.387 . S
C602 C606 1.391 . S
C603 C602 1.387 . S
C603 C604 1.384 . S
C603 H612 0.930 . S
C604 C601 1.380 . S
C604 C603 1.384 . S
C604 H613 0.931 . S
C605 C601 1.374 . S
C605 C606 1.390 . S
C605 H614 0.930 . S
C606 C602 1.391 . S
C606 C605 1.390 . S
C606 H615 0.930 . S
C607 Eu577 2.825 1_556 S
C607 O592 1.238 . S
C607 O593 1.247 . S
C607 C601 1.507 . S
H608 C581 0.930 . S
H609 C582 0.931 . S
H610 C583 0.930 . S
H611 C584 0.930 . S
H612 C603 0.930 . S
H613 C604 0.931 . S
H614 C605 0.930 . S
H615 C606 0.930 . S
Tb616 C626 2.825 . S
Tb616 O627 2.347 . S
Tb616 O630 2.366 . S
Tb616 O635 2.418 . S
Tb616 O636 2.384 . S
Tb616 O639 2.479 . S
Tb616 O640 2.471 . S
Eu617 O628 2.418 . S
Eu617 O629 2.384 . S
Eu617 O632 2.479 . S
Eu617 O633 2.471 . S
Eu617 O634 2.347 . S
Eu617 O637 2.366 . S
Eu617 C647 2.825 . S
C618 O634 1.259 . S
C618 O635 1.265 . S
C619 O636 1.255 . S
C619 O637 1.265 . S
C620 C622 1.380 . S
C620 C623 1.374 . S
C620 C626 1.507 . S
C621 C622 1.384 . S
C621 C625 1.387 . S
C621 H648 0.930 . S
C622 C620 1.380 . S
C622 C621 1.384 . S
C622 H649 0.931 . S
C623 C620 1.374 . S
C623 C624 1.390 . S
C623 H650 0.930 . S
C624 C623 1.390 . S
C624 C625 1.391 . S
C624 H651 0.930 . S
C625 C621 1.387 . S
C625 C624 1.391 . S
C626 Tb616 2.825 . S
C626 C620 1.507 . S
C626 O639 1.238 . S
C626 O640 1.247 . S
O627 Tb616 2.347 . S
O627 C631 1.259 . S
O628 Eu617 2.418 . S
O628 C631 1.265 . S
O629 Eu617 2.384 . S
O629 C638 1.255 . S
O630 Tb616 2.366 . S
O630 C638 1.265 . S
C631 O627 1.259 . S
C631 O628 1.265 . S
O632 Eu617 2.479 . S
O632 C647 1.238 . S
O633 Eu617 2.471 . S
O633 C647 1.247 . S
O634 Eu617 2.347 . S
O634 C618 1.259 . S
O635 Tb616 2.418 . S
O635 C618 1.265 . S
O636 Tb616 2.384 . S
O636 C619 1.255 . S
O637 Eu617 2.366 . S
O637 C619 1.265 . S
C638 O629 1.255 . S
C638 O630 1.265 . S
O639 Tb616 2.479 . S
O639 C626 1.238 . S
O640 Tb616 2.471 . S
O640 C626 1.247 . S
C641 C644 1.380 . S
C641 C645 1.374 . S
C641 C647 1.507 . S
C642 C643 1.387 . S
C642 C646 1.391 . S
C643 C642 1.387 . S
C643 C644 1.384 . S
C643 H652 0.930 . S
C644 C641 1.380 . S
C644 C643 1.384 . S
C644 H653 0.931 . S
C645 C641 1.374 . S
C645 C646 1.390 . S
C645 H654 0.930 . S
C646 C642 1.391 . S
C646 C645 1.390 . S
C646 H655 0.930 . S
C647 Eu617 2.825 . S
C647 O632 1.238 . S
C647 O633 1.247 . S
C647 C641 1.507 . S
H648 C621 0.930 . S
H649 C622 0.931 . S
H650 C623 0.930 . S
H651 C624 0.930 . S
H652 C643 0.930 . S
H653 C644 0.931 . S
H654 C645 0.930 . S
H655 C646 0.930 . S
Tb656 C666 2.825 1_554 S
Tb656 O667 2.347 . S
Tb656 O670 2.366 . S
Tb656 O675 2.418 . S
Tb656 O676 2.384 . S
Tb656 O679 2.479 1_554 S
Tb656 O680 2.471 1_554 S
Eu657 O668 2.418 . S
Eu657 O669 2.384 . S
Eu657 O672 2.479 . S
Eu657 O673 2.471 . S
Eu657 O674 2.347 . S
Eu657 O677 2.366 . S
Eu657 C687 2.825 . S
C658 O674 1.259 . S
C658 O675 1.265 . S
C659 O676 1.255 . S
C659 O677 1.265 . S
C660 C662 1.380 . S
C660 C663 1.374 . S
C660 C666 1.507 . S
C661 C662 1.384 . S
C661 C665 1.387 . S
C661 H688 0.930 . S
C662 C660 1.380 . S
C662 C661 1.384 . S
C662 H689 0.931 . S
C663 C660 1.374 . S
C663 C664 1.390 . S
C663 H690 0.930 . S
C664 C663 1.390 . S
C664 C665 1.391 . S
C664 H691 0.930 . S
C665 C661 1.387 . S
C665 C664 1.391 . S
C666 Tb656 2.825 1_556 S
C666 C660 1.507 . S
C666 O679 1.238 . S
C666 O680 1.247 . S
O667 Tb656 2.347 . S
O667 C671 1.259 . S
O668 Eu657 2.418 . S
O668 C671 1.265 . S
O669 Eu657 2.384 . S
O669 C678 1.255 . S
O670 Tb656 2.366 . S
O670 C678 1.265 . S
C671 O667 1.259 . S
C671 O668 1.265 . S
O672 Eu657 2.479 . S
O672 C687 1.238 . S
O673 Eu657 2.471 . S
O673 C687 1.247 . S
O674 Eu657 2.347 . S
O674 C658 1.259 . S
O675 Tb656 2.418 . S
O675 C658 1.265 . S
O676 Tb656 2.384 . S
O676 C659 1.255 . S
O677 Eu657 2.366 . S
O677 C659 1.265 . S
C678 O669 1.255 . S
C678 O670 1.265 . S
O679 Tb656 2.479 1_556 S
O679 C666 1.238 . S
O680 Tb656 2.471 1_556 S
O680 C666 1.247 . S
C681 C684 1.380 . S
C681 C685 1.374 . S
C681 C687 1.507 . S
C682 C683 1.387 . S
C682 C686 1.391 . S
C683 C682 1.387 . S
C683 C684 1.384 . S
C683 H692 0.930 . S
C684 C681 1.380 . S
C684 C683 1.384 . S
C684 H693 0.931 . S
C685 C681 1.374 . S
C685 C686 1.390 . S
C685 H694 0.930 . S
C686 C682 1.391 . S
C686 C685 1.390 . S
C686 H695 0.930 . S
C687 Eu657 2.825 . S
C687 O672 1.238 . S
C687 O673 1.247 . S
C687 C681 1.507 . S
H688 C661 0.930 . S
H689 C662 0.931 . S
H690 C663 0.930 . S
H691 C664 0.930 . S
H692 C683 0.930 . S
H693 C684 0.931 . S
H694 C685 0.930 . S
H695 C686 0.930 . S
Tb696 C706 2.825 . S
Tb696 O707 2.347 . S
Tb696 O710 2.366 . S
Tb696 O715 2.418 . S
Tb696 O716 2.384 . S
Tb696 O719 2.479 . S
Tb696 O720 2.471 . S
Eu697 O708 2.418 . S
Eu697 O709 2.384 . S
Eu697 O712 2.479 . S
Eu697 O713 2.471 . S
Eu697 O714 2.347 . S
Eu697 O717 2.366 . S
Eu697 C727 2.825 . S
C698 O714 1.259 . S
C698 O715 1.265 . S
C699 O716 1.255 . S
C699 O717 1.265 . S
C700 C702 1.380 . S
C700 C703 1.374 . S
C700 C706 1.507 . S
C701 C702 1.384 . S
C701 C705 1.387 . S
C701 H728 0.930 . S
C702 C700 1.380 . S
C702 C701 1.384 . S
C702 H729 0.931 . S
C703 C700 1.374 . S
C703 C704 1.390 . S
C703 H730 0.930 . S
C704 C703 1.390 . S
C704 C705 1.391 . S
C704 H731 0.930 . S
C705 C701 1.387 . S
C705 C704 1.391 . S
C706 Tb696 2.825 . S
C706 C700 1.507 . S
C706 O719 1.238 . S
C706 O720 1.247 . S
O707 Tb696 2.347 . S
O707 C711 1.259 . S
O708 Eu697 2.418 . S
O708 C711 1.265 . S
O709 Eu697 2.384 . S
O709 C718 1.255 . S
O710 Tb696 2.366 . S
O710 C718 1.265 . S
C711 O707 1.259 . S
C711 O708 1.265 . S
O712 Eu697 2.479 . S
O712 C727 1.238 . S
O713 Eu697 2.471 . S
O713 C727 1.247 . S
O714 Eu697 2.347 . S
O714 C698 1.259 . S
O715 Tb696 2.418 . S
O715 C698 1.265 . S
O716 Tb696 2.384 . S
O716 C699 1.255 . S
O717 Eu697 2.366 . S
O717 C699 1.265 . S
C718 O709 1.255 . S
C718 O710 1.265 . S
O719 Tb696 2.479 . S
O719 C706 1.238 . S
O720 Tb696 2.471 . S
O720 C706 1.247 . S
C721 C724 1.380 . S
C721 C725 1.374 . S
C721 C727 1.507 . S
C722 C723 1.387 . S
C722 C726 1.391 . S
C723 C722 1.387 . S
C723 C724 1.384 . S
C723 H732 0.930 . S
C724 C721 1.380 . S
C724 C723 1.384 . S
C724 H733 0.931 . S
C725 C721 1.374 . S
C725 C726 1.390 . S
C725 H734 0.930 . S
C726 C722 1.391 . S
C726 C725 1.390 . S
C726 H735 0.930 . S
C727 Eu697 2.825 . S
C727 O712 1.238 . S
C727 O713 1.247 . S
C727 C721 1.507 . S
H728 C701 0.930 . S
H729 C702 0.931 . S
H730 C703 0.930 . S
H731 C704 0.930 . S
H732 C723 0.930 . S
H733 C724 0.931 . S
H734 C725 0.930 . S
H735 C726 0.930 . S
Tb736 C746 2.825 . S
Tb736 O747 2.347 . S
Tb736 O750 2.366 . S
Tb736 O755 2.418 . S
Tb736 O756 2.384 . S
Tb736 O759 2.479 . S
Tb736 O760 2.471 . S
Eu737 O748 2.418 . S
Eu737 O749 2.384 1_455 S
Eu737 O752 2.479 . S
Eu737 O753 2.471 . S
Eu737 O754 2.347 . S
Eu737 O757 2.366 . S
Eu737 C767 2.825 . S
C738 O754 1.259 . S
C738 O755 1.265 . S
C739 O756 1.255 . S
C739 O757 1.265 . S
C740 C742 1.380 . S
C740 C743 1.374 . S
C740 C746 1.507 . S
C741 C742 1.384 . S
C741 C745 1.387 1_455 S
C741 H768 0.930 . S
C742 C740 1.380 . S
C742 C741 1.384 . S
C742 H769 0.931 . S
C743 C740 1.374 . S
C743 C744 1.390 1_455 S
C743 H770 0.925 1_455 S
C744 C743 1.390 1_655 S
C744 C745 1.391 . S
C744 H771 0.930 . S
C745 C741 1.387 1_655 S
C745 C744 1.391 . S
C746 Tb736 2.825 . S
C746 C740 1.507 . S
C746 O759 1.238 . S
C746 O760 1.247 . S
O747 Tb736 2.347 . S
O747 C751 1.259 . S
O748 Eu737 2.418 . S
O748 C751 1.265 . S
O749 Eu737 2.384 1_655 S
O749 C758 1.255 . S
O750 Tb736 2.366 . S
O750 C758 1.265 1_455 S
C751 O747 1.259 . S
C751 O748 1.265 . S
O752 Eu737 2.479 . S
O752 C767 1.238 . S
O753 Eu737 2.471 . S
O753 C767 1.247 . S
O754 Eu737 2.347 . S
O754 C738 1.259 . S
O755 Tb736 2.418 . S
O755 C738 1.265 . S
O756 Tb736 2.384 . S
O756 C739 1.255 . S
O757 Eu737 2.366 . S
O757 C739 1.265 . S
C758 O749 1.255 . S
C758 O750 1.265 1_655 S
O759 Tb736 2.479 . S
O759 C746 1.238 . S
O760 Tb736 2.471 . S
O760 C746 1.247 . S
C761 C764 1.380 . S
C761 C765 1.374 . S
C761 C767 1.507 . S
C762 C763 1.387 . S
C762 C766 1.391 . S
C763 C762 1.387 . S
C763 C764 1.384 . S
C763 H772 0.930 . S
C764 C761 1.380 . S
C764 C763 1.384 . S
C764 H773 0.931 . S
C765 C761 1.374 . S
C765 C766 1.390 . S
C765 H774 0.930 . S
C766 C762 1.391 . S
C766 C765 1.390 . S
C766 H775 0.930 . S
C767 Eu737 2.825 . S
C767 O752 1.238 . S
C767 O753 1.247 . S
C767 C761 1.507 . S
H768 C741 0.930 . S
H769 C742 0.931 . S
H770 C743 0.925 1_655 S
H771 C744 0.930 . S
H772 C763 0.930 . S
H773 C764 0.931 . S
H774 C765 0.930 . S
H775 C766 0.930 . S
Tb776 C786 2.825 . S
Tb776 O787 2.347 . S
Tb776 O790 2.366 . S
Tb776 O795 2.418 . S
Tb776 O796 2.384 . S
Tb776 O799 2.479 . S
Tb776 O800 2.471 . S
Eu777 O788 2.418 . S
Eu777 O789 2.384 . S
Eu777 O792 2.479 . S
Eu777 O793 2.471 . S
Eu777 O794 2.347 . S
Eu777 O797 2.366 . S
Eu777 C807 2.825 . S
C778 O794 1.259 . S
C778 O795 1.265 . S
C779 O796 1.255 . S
C779 O797 1.265 . S
C780 C782 1.380 . S
C780 C783 1.374 . S
C780 C786 1.507 . S
C781 C782 1.384 . S
C781 C785 1.387 . S
C781 H808 0.930 . S
C782 C780 1.380 . S
C782 C781 1.384 . S
C782 H809 0.931 . S
C783 C780 1.374 . S
C783 C784 1.390 . S
C783 H810 0.930 . S
C784 C783 1.390 . S
C784 C785 1.391 . S
C784 H811 0.930 . S
C785 C781 1.387 . S
C785 C784 1.391 . S
C786 Tb776 2.825 . S
C786 C780 1.507 . S
C786 O799 1.238 . S
C786 O800 1.247 . S
O787 Tb776 2.347 . S
O787 C791 1.259 . S
O788 Eu777 2.418 . S
O788 C791 1.265 . S
O789 Eu777 2.384 . S
O789 C798 1.255 . S
O790 Tb776 2.366 . S
O790 C798 1.265 . S
C791 O787 1.259 . S
C791 O788 1.265 . S
O792 Eu777 2.479 . S
O792 C807 1.238 . S
O793 Eu777 2.471 . S
O793 C807 1.247 . S
O794 Eu777 2.347 . S
O794 C778 1.259 . S
O795 Tb776 2.418 . S
O795 C778 1.265 . S
O796 Tb776 2.384 . S
O796 C779 1.255 . S
O797 Eu777 2.366 . S
O797 C779 1.265 . S
C798 O789 1.255 . S
C798 O790 1.265 . S
O799 Tb776 2.479 . S
O799 C786 1.238 . S
O800 Tb776 2.471 . S
O800 C786 1.247 . S
C801 C804 1.380 . S
C801 C805 1.374 . S
C801 C807 1.507 . S
C802 C803 1.387 . S
C802 C806 1.391 . S
C803 C802 1.387 . S
C803 C804 1.384 . S
C803 H812 0.930 . S
C804 C801 1.380 . S
C804 C803 1.384 . S
C804 H813 0.931 . S
C805 C801 1.374 . S
C805 C806 1.390 . S
C805 H814 0.930 . S
C806 C802 1.391 . S
C806 C805 1.390 . S
C806 H815 0.930 . S
C807 Eu777 2.825 . S
C807 O792 1.238 . S
C807 O793 1.247 . S
C807 C801 1.507 . S
H808 C781 0.930 . S
H809 C782 0.931 . S
H810 C783 0.930 . S
H811 C784 0.930 . S
H812 C803 0.930 . S
H813 C804 0.931 . S
H814 C805 0.930 . S
H815 C806 0.930 . S
Tb816 C826 2.825 . S
Tb816 O827 2.347 . S
Tb816 O830 2.366 . S
Tb816 O835 2.418 . S
Tb816 O836 2.384 . S
Tb816 O839 2.479 . S
Tb816 O840 2.471 . S
Eu817 O828 2.418 . S
Eu817 O829 2.384 . S
Eu817 O832 2.479 . S
Eu817 O833 2.471 . S
Eu817 O834 2.347 . S
Eu817 O837 2.366 . S
Eu817 C847 2.825 . S
C818 O834 1.259 . S
C818 O835 1.265 . S
C819 O836 1.255 . S
C819 O837 1.265 . S
C820 C822 1.380 . S
C820 C823 1.374 . S
C820 C826 1.507 . S
C821 C822 1.384 . S
C821 C825 1.387 . S
C821 H848 0.930 . S
C822 C820 1.380 . S
C822 C821 1.384 . S
C822 H849 0.931 . S
C823 C820 1.374 . S
C823 C824 1.390 . S
C823 H850 0.930 . S
C824 C823 1.390 . S
C824 C825 1.391 . S
C824 H851 0.930 . S
C825 C821 1.387 . S
C825 C824 1.391 . S
C826 Tb816 2.825 . S
C826 C820 1.507 . S
C826 O839 1.238 . S
C826 O840 1.247 . S
O827 Tb816 2.347 . S
O827 C831 1.259 . S
O828 Eu817 2.418 . S
O828 C831 1.265 . S
O829 Eu817 2.384 . S
O829 C838 1.255 . S
O830 Tb816 2.366 . S
O830 C838 1.265 . S
C831 O827 1.259 . S
C831 O828 1.265 . S
O832 Eu817 2.479 . S
O832 C847 1.238 . S
O833 Eu817 2.471 . S
O833 C847 1.247 . S
O834 Eu817 2.347 . S
O834 C818 1.259 . S
O835 Tb816 2.418 . S
O835 C818 1.265 . S
O836 Tb816 2.384 . S
O836 C819 1.255 . S
O837 Eu817 2.366 . S
O837 C819 1.265 . S
C838 O829 1.255 . S
C838 O830 1.265 . S
O839 Tb816 2.479 . S
O839 C826 1.238 . S
O840 Tb816 2.471 . S
O840 C826 1.247 . S
C841 C844 1.380 . S
C841 C845 1.374 . S
C841 C847 1.507 . S
C842 C843 1.387 . S
C842 C846 1.391 . S
C843 C842 1.387 . S
C843 C844 1.384 . S
C843 H852 0.930 . S
C844 C841 1.380 . S
C844 C843 1.384 . S
C844 H853 0.931 . S
C845 C841 1.374 . S
C845 C846 1.390 . S
C845 H854 0.930 . S
C846 C842 1.391 . S
C846 C845 1.390 . S
C846 H855 0.930 . S
C847 Eu817 2.825 . S
C847 O832 1.238 . S
C847 O833 1.247 . S
C847 C841 1.507 . S
H848 C821 0.930 . S
H849 C822 0.931 . S
H850 C823 0.930 . S
H851 C824 0.930 . S
H852 C843 0.930 . S
H853 C844 0.931 . S
H854 C845 0.930 . S
H855 C846 0.930 . S
Tb856 C866 2.825 . S
Tb856 O867 2.347 . S
Tb856 O870 2.366 . S
Tb856 O875 2.418 . S
Tb856 O876 2.384 . S
Tb856 O879 2.479 . S
Tb856 O880 2.471 . S
Eu857 O868 2.418 . S
Eu857 O869 2.384 . S
Eu857 O872 2.479 . S
Eu857 O873 2.471 . S
Eu857 O874 2.347 . S
Eu857 O877 2.366 . S
Eu857 C887 2.825 . S
C858 O874 1.259 . S
C858 O875 1.265 . S
C859 O876 1.255 . S
C859 O877 1.265 . S
C860 C862 1.380 . S
C860 C863 1.374 . S
C860 C866 1.507 . S
C861 C862 1.384 . S
C861 C865 1.387 . S
C861 H888 0.930 . S
C862 C860 1.380 . S
C862 C861 1.384 . S
C862 H889 0.931 . S
C863 C860 1.374 . S
C863 C864 1.390 . S
C863 H890 0.930 . S
C864 C863 1.390 . S
C864 C865 1.391 . S
C864 H891 0.930 . S
C865 C861 1.387 . S
C865 C864 1.391 . S
C866 Tb856 2.825 . S
C866 C860 1.507 . S
C866 O879 1.238 . S
C866 O880 1.247 . S
O867 Tb856 2.347 . S
O867 C871 1.259 . S
O868 Eu857 2.418 . S
O868 C871 1.265 . S
O869 Eu857 2.384 . S
O869 C878 1.255 . S
O870 Tb856 2.366 . S
O870 C878 1.265 . S
C871 O867 1.259 . S
C871 O868 1.265 . S
O872 Eu857 2.479 . S
O872 C887 1.238 . S
O873 Eu857 2.471 . S
O873 C887 1.247 . S
O874 Eu857 2.347 . S
O874 C858 1.259 . S
O875 Tb856 2.418 . S
O875 C858 1.265 . S
O876 Tb856 2.384 . S
O876 C859 1.255 . S
O877 Eu857 2.366 . S
O877 C859 1.265 . S
C878 O869 1.255 . S
C878 O870 1.265 . S
O879 Tb856 2.479 . S
O879 C866 1.238 . S
O880 Tb856 2.471 . S
O880 C866 1.247 . S
C881 C884 1.380 . S
C881 C885 1.374 . S
C881 C887 1.507 . S
C882 C883 1.387 . S
C882 C886 1.391 . S
C883 C882 1.387 . S
C883 C884 1.384 . S
C883 H892 0.930 . S
C884 C881 1.380 . S
C884 C883 1.384 . S
C884 H893 0.931 . S
C885 C881 1.374 . S
C885 C886 1.390 . S
C885 H894 0.930 . S
C886 C882 1.391 . S
C886 C885 1.390 . S
C886 H895 0.930 . S
C887 Eu857 2.825 . S
C887 O872 1.238 . S
C887 O873 1.247 . S
C887 C881 1.507 . S
H888 C861 0.930 . S
H889 C862 0.931 . S
H890 C863 0.930 . S
H891 C864 0.930 . S
H892 C883 0.930 . S
H893 C884 0.931 . S
H894 C885 0.930 . S
H895 C886 0.930 . S
Tb896 C906 2.825 . S
Tb896 O907 2.347 . S
Tb896 O910 2.366 . S
Tb896 O915 2.418 . S
Tb896 O916 2.384 . S
Tb896 O919 2.479 . S
Tb896 O920 2.471 . S
Eu897 O908 2.418 . S
Eu897 O909 2.384 . S
Eu897 O912 2.479 . S
Eu897 O913 2.471 . S
Eu897 O914 2.347 . S
Eu897 O917 2.366 . S
Eu897 C927 2.825 . S
C898 O914 1.259 . S
C898 O915 1.265 . S
C899 O916 1.255 . S
C899 O917 1.265 . S
C900 C902 1.380 . S
C900 C903 1.374 . S
C900 C906 1.507 . S
C901 C902 1.384 . S
C901 C905 1.387 . S
C901 H928 0.930 . S
C902 C900 1.380 . S
C902 C901 1.384 . S
C902 H929 0.931 . S
C903 C900 1.374 . S
C903 C904 1.390 . S
C903 H930 0.930 . S
C904 C903 1.390 . S
C904 C905 1.391 . S
C904 H931 0.930 . S
C905 C901 1.387 . S
C905 C904 1.391 . S
C906 Tb896 2.825 . S
C906 C900 1.507 . S
C906 O919 1.238 . S
C906 O920 1.247 . S
O907 Tb896 2.347 . S
O907 C911 1.259 . S
O908 Eu897 2.418 . S
O908 C911 1.265 . S
O909 Eu897 2.384 . S
O909 C918 1.255 . S
O910 Tb896 2.366 . S
O910 C918 1.265 . S
C911 O907 1.259 . S
C911 O908 1.265 . S
O912 Eu897 2.479 . S
O912 C927 1.238 . S
O913 Eu897 2.471 . S
O913 C927 1.247 . S
O914 Eu897 2.347 . S
O914 C898 1.259 . S
O915 Tb896 2.418 . S
O915 C898 1.265 . S
O916 Tb896 2.384 . S
O916 C899 1.255 . S
O917 Eu897 2.366 . S
O917 C899 1.265 . S
C918 O909 1.255 . S
C918 O910 1.265 . S
O919 Tb896 2.479 . S
O919 C906 1.238 . S
O920 Tb896 2.471 . S
O920 C906 1.247 . S
C921 C924 1.380 . S
C921 C925 1.374 . S
C921 C927 1.507 . S
C922 C923 1.387 . S
C922 C926 1.391 . S
C923 C922 1.387 . S
C923 C924 1.384 . S
C923 H932 0.930 . S
C924 C921 1.380 . S
C924 C923 1.384 . S
C924 H933 0.931 . S
C925 C921 1.374 . S
C925 C926 1.390 . S
C925 H934 0.930 . S
C926 C922 1.391 . S
C926 C925 1.390 . S
C926 H935 0.930 . S
C927 Eu897 2.825 . S
C927 O912 1.238 . S
C927 O913 1.247 . S
C927 C921 1.507 . S
H928 C901 0.930 . S
H929 C902 0.931 . S
H930 C903 0.930 . S
H931 C904 0.930 . S
H932 C923 0.930 . S
H933 C924 0.931 . S
H934 C925 0.930 . S
H935 C926 0.930 . S
Tb936 C946 2.825 . S
Tb936 O947 2.347 . S
Tb936 O950 2.366 . S
Tb936 O955 2.418 . S
Tb936 O956 2.384 . S
Tb936 O959 2.479 . S
Tb936 O960 2.471 . S
Eu937 O948 2.418 . S
Eu937 O949 2.384 . S
Eu937 O952 2.479 . S
Eu937 O953 2.471 . S
Eu937 O954 2.347 . S
Eu937 O957 2.366 . S
Eu937 C967 2.825 . S
C938 O954 1.259 . S
C938 O955 1.265 . S
C939 O956 1.255 . S
C939 O957 1.265 . S
C940 C942 1.380 . S
C940 C943 1.374 . S
C940 C946 1.507 . S
C941 C942 1.384 . S
C941 C945 1.387 . S
C941 H968 0.930 . S
C942 C940 1.380 . S
C942 C941 1.384 . S
C942 H969 0.931 . S
C943 C940 1.374 . S
C943 C944 1.390 1_554 S
C943 H970 0.923 1_554 S
C944 C943 1.390 1_556 S
C944 C945 1.391 1_556 S
C944 H971 0.930 . S
C945 C941 1.387 . S
C945 C944 1.391 1_554 S
C946 Tb936 2.825 . S
C946 C940 1.507 . S
C946 O959 1.238 . S
C946 O960 1.247 . S
O947 Tb936 2.347 . S
O947 C951 1.259 . S
O948 Eu937 2.418 . S
O948 C951 1.265 . S
O949 Eu937 2.384 . S
O949 C958 1.255 . S
O950 Tb936 2.366 . S
O950 C958 1.265 . S
C951 O947 1.259 . S
C951 O948 1.265 . S
O952 Eu937 2.479 . S
O952 C967 1.238 . S
O953 Eu937 2.471 . S
O953 C967 1.247 . S
O954 Eu937 2.347 . S
O954 C938 1.259 . S
O955 Tb936 2.418 . S
O955 C938 1.265 . S
O956 Tb936 2.384 . S
O956 C939 1.255 . S
O957 Eu937 2.366 . S
O957 C939 1.265 . S
C958 O949 1.255 . S
C958 O950 1.265 . S
O959 Tb936 2.479 . S
O959 C946 1.238 . S
O960 Tb936 2.471 . S
O960 C946 1.247 . S
C961 C964 1.380 . S
C961 C965 1.374 . S
C961 C967 1.507 . S
C962 C963 1.387 . S
C962 C966 1.391 . S
C963 C962 1.387 . S
C963 C964 1.384 . S
C963 H972 0.930 . S
C964 C961 1.380 . S
C964 C963 1.384 . S
C964 H973 0.931 . S
C965 C961 1.374 . S
C965 C966 1.390 . S
C965 H974 0.930 . S
C966 C962 1.391 . S
C966 C965 1.390 . S
C966 H975 0.930 . S
C967 Eu937 2.825 . S
C967 O952 1.238 . S
C967 O953 1.247 . S
C967 C961 1.507 . S
H968 C941 0.930 . S
H969 C942 0.931 . S
H970 C943 0.923 1_556 S
H971 C944 0.930 . S
H972 C963 0.930 . S
H973 C964 0.931 . S
H974 C965 0.930 . S
H975 C966 0.930 . S
H976 C984 0.929 . S
H977 C986 0.930 . S
H978 C988 0.930 . S
H979 C991 0.929 . S
H980 C994 0.930 . S
H981 C996 0.960 . S
H982 C996 0.960 . S
H983 C996 0.960 . S
C984 H976 0.929 . S
C984 C985 1.377 . S
C984 C986 1.384 . S
C985 C984 1.377 . S
C985 C991 1.390 1_655 S
C986 H977 0.930 . S
C986 C984 1.384 . S
C986 C987 1.372 1_655 S
C987 C986 1.372 1_455 S
C987 C988 1.400 . S
C987 C992 1.490 . S
C988 H978 0.930 . S
C988 C987 1.400 . S
C988 C991 1.386 . S
H989 C1005 0.947 . S
H990 C1006 0.931 . S
C991 H979 0.929 . S
C991 C985 1.390 1_455 S
C991 C988 1.386 . S
C992 C987 1.490 . S
C992 C994 1.395 1_455 S
C992 C995 1.403 . S
H993 C999 0.930 . S
C994 H980 0.930 . S
C994 C992 1.395 1_655 S
C994 C997 1.403 . S
C995 C992 1.403 . S
C995 C996 1.524 . S
C995 C999 1.400 . S
C996 H981 0.960 . S
C996 H982 0.960 . S
C996 H983 0.960 . S
C996 C995 1.524 . S
C997 C994 1.403 . S
C997 C998 1.392 1_655 S
C997 C1001 1.495 . S
C998 C997 1.392 1_455 S
C998 C999 1.385 . S
C998 C1000 1.478 . S
C999 H993 0.930 . S
C999 C995 1.400 . S
C999 C998 1.385 . S
C1000 C998 1.478 . S
C1000 C1002 1.381 1_556 S
C1000 C1006 1.383 . S
C1001 C997 1.495 . S
C1001 H1007 0.959 . S
C1001 H1008 0.961 . S
C1001 H1009 0.960 . S
C1002 C1000 1.381 1_554 S
C1002 C1003 1.394 . S
C1002 H1010 0.930 . S
C1003 C1002 1.394 . S
C1003 C1004 1.383 . S
C1003 H1011 0.929 . S
C1004 C1003 1.383 . S
C1004 C1005 1.326 1_554 S
C1005 H989 0.947 . S
C1005 C1004 1.326 1_556 S
C1005 C1006 1.415 . S
C1006 H990 0.931 . S
C1006 C1000 1.383 . S
C1006 C1005 1.415 . S
H1007 C1001 0.959 . S
H1008 C1001 0.961 . S
H1009 C1001 0.960 . S
H1010 C1002 0.930 . S
H1011 C1003 0.929 . S
H1012 C1020 0.929 . S
H1013 C1022 0.930 . S
H1014 C1024 0.930 . S
H1015 C1027 0.929 . S
H1016 C1030 0.930 . S
H1017 C1032 0.960 . S
H1018 C1032 0.960 . S
H1019 C1032 0.960 . S
C1020 H1012 0.929 . S
C1020 C1021 1.377 . S
C1020 C1022 1.384 . S
C1021 C1020 1.377 . S
C1021 C1027 1.390 . S
C1022 H1013 0.930 . S
C1022 C1020 1.384 . S
C1022 C1023 1.372 . S
C1023 C1022 1.372 . S
C1023 C1024 1.400 . S
C1023 C1028 1.490 . S
C1024 H1014 0.930 . S
C1024 C1023 1.400 . S
C1024 C1027 1.386 . S
H1025 C1041 0.930 . S
H1026 C1042 0.931 . S
C1027 H1015 0.929 . S
C1027 C1021 1.390 . S
C1027 C1024 1.386 . S
C1028 C1023 1.490 . S
C1028 C1030 1.395 . S
C1028 C1031 1.403 . S
H1029 C1035 0.930 . S
C1030 H1016 0.930 . S
C1030 C1028 1.395 . S
C1030 C1033 1.403 . S
C1031 C1028 1.403 . S
C1031 C1032 1.524 . S
C1031 C1035 1.400 . S
C1032 H1017 0.960 . S
C1032 H1018 0.960 . S
C1032 H1019 0.960 . S
C1032 C1031 1.524 . S
C1033 C1030 1.403 . S
C1033 C1034 1.392 . S
C1033 C1037 1.495 . S
C1034 C1033 1.392 . S
C1034 C1035 1.385 . S
C1034 C1036 1.478 . S
C1035 H1029 0.930 . S
C1035 C1031 1.400 . S
C1035 C1034 1.385 . S
C1036 C1034 1.478 . S
C1036 C1038 1.381 . S
C1036 C1042 1.383 . S
C1037 C1033 1.495 . S
C1037 H1043 0.959 . S
C1037 H1044 0.961 . S
C1037 H1045 0.960 . S
C1038 C1036 1.381 . S
C1038 C1039 1.394 . S
C1038 H1046 0.930 . S
C1039 C1038 1.394 . S
C1039 C1040 1.383 . S
C1039 H1047 0.929 . S
C1040 C1039 1.383 . S
C1040 C1041 1.377 . S
C1041 H1025 0.930 . S
C1041 C1040 1.377 . S
C1041 C1042 1.379 . S
C1042 H1026 0.931 . S
C1042 C1036 1.383 . S
C1042 C1041 1.379 . S
H1043 C1037 0.959 . S
H1044 C1037 0.961 . S
H1045 C1037 0.960 . S
H1046 C1038 0.930 . S
H1047 C1039 0.929 . S
H1048 C1056 0.929 . S
H1049 C1058 0.930 . S
H1050 C1060 0.930 . S
H1051 C1063 0.929 . S
H1052 C1066 0.930 . S
H1053 C1068 0.960 . S
H1054 C1068 0.960 . S
H1055 C1068 0.960 . S
C1056 H1048 0.929 . S
C1056 C1057 1.377 . S
C1056 C1058 1.384 . S
C1057 C1056 1.377 . S
C1057 C1063 1.390 . S
C1058 H1049 0.930 . S
C1058 C1056 1.384 . S
C1058 C1059 1.372 . S
C1059 C1058 1.372 . S
C1059 C1060 1.400 . S
C1059 C1064 1.490 . S
C1060 H1050 0.930 . S
C1060 C1059 1.400 . S
C1060 C1063 1.386 . S
H1061 C1077 0.930 . S
H1062 C1078 0.931 . S
C1063 H1051 0.929 . S
C1063 C1057 1.390 . S
C1063 C1060 1.386 . S
C1064 C1059 1.490 . S
C1064 C1066 1.395 . S
C1064 C1067 1.403 . S
H1065 C1071 0.930 . S
C1066 H1052 0.930 . S
C1066 C1064 1.395 . S
C1066 C1069 1.403 . S
C1067 C1064 1.403 . S
C1067 C1068 1.524 . S
C1067 C1071 1.400 . S
C1068 H1053 0.960 . S
C1068 H1054 0.960 . S
C1068 H1055 0.960 . S
C1068 C1067 1.524 . S
C1069 C1066 1.403 . S
C1069 C1070 1.392 . S
C1069 C1073 1.495 . S
C1070 C1069 1.392 . S
C1070 C1071 1.385 . S
C1070 C1072 1.478 . S
C1071 H1065 0.930 . S
C1071 C1067 1.400 . S
C1071 C1070 1.385 . S
C1072 C1070 1.478 . S
C1072 C1074 1.381 . S
C1072 C1078 1.383 . S
C1073 C1069 1.495 . S
C1073 H1079 0.959 . S
C1073 H1080 0.961 . S
C1073 H1081 0.960 . S
C1074 C1072 1.381 . S
C1074 C1075 1.394 . S
C1074 H1082 0.930 . S
C1075 C1074 1.394 . S
C1075 C1076 1.383 . S
C1075 H1083 0.929 . S
C1076 C1075 1.383 . S
C1076 C1077 1.377 . S
C1077 H1061 0.930 . S
C1077 C1076 1.377 . S
C1077 C1078 1.379 . S
C1078 H1062 0.931 . S
C1078 C1072 1.383 . S
C1078 C1077 1.379 . S
H1079 C1073 0.959 . S
H1080 C1073 0.961 . S
H1081 C1073 0.960 . S
H1082 C1074 0.930 . S
H1083 C1075 0.929 . S
H1084 C1092 0.929 . S
H1085 C1094 0.930 . S
H1086 C1096 0.930 . S
H1087 C1099 0.929 . S
H1088 C1102 0.930 . S
H1089 C1104 0.960 . S
H1090 C1104 0.960 . S
H1091 C1104 0.960 . S
C1092 H1084 0.929 . S
C1092 C1093 1.377 . S
C1092 C1094 1.384 . S
C1093 C1092 1.377 . S
C1093 C1099 1.390 . S
C1094 H1085 0.930 . S
C1094 C1092 1.384 . S
C1094 C1095 1.372 . S
C1095 C1094 1.372 . S
C1095 C1096 1.400 . S
C1095 C1100 1.490 . S
C1096 H1086 0.930 . S
C1096 C1095 1.400 . S
C1096 C1099 1.386 . S
H1097 C1113 0.930 . S
H1098 C1114 0.931 . S
C1099 H1087 0.929 . S
C1099 C1093 1.390 . S
C1099 C1096 1.386 . S
C1100 C1095 1.490 . S
C1100 C1102 1.395 . S
C1100 C1103 1.403 . S
H1101 C1107 0.930 . S
C1102 H1088 0.930 . S
C1102 C1100 1.395 . S
C1102 C1105 1.403 . S
C1103 C1100 1.403 . S
C1103 C1104 1.524 . S
C1103 C1107 1.400 . S
C1104 H1089 0.960 . S
C1104 H1090 0.960 . S
C1104 H1091 0.960 . S
C1104 C1103 1.524 . S
C1105 C1102 1.403 . S
C1105 C1106 1.392 . S
C1105 C1109 1.495 . S
C1106 C1105 1.392 . S
C1106 C1107 1.385 . S
C1106 C1108 1.478 . S
C1107 H1101 0.930 . S
C1107 C1103 1.400 . S
C1107 C1106 1.385 . S
C1108 C1106 1.478 . S
C1108 C1110 1.381 . S
C1108 C1114 1.383 . S
C1109 C1105 1.495 . S
C1109 H1115 0.959 . S
C1109 H1116 0.961 . S
C1109 H1117 0.960 . S
C1110 C1108 1.381 . S
C1110 C1111 1.394 . S
C1110 H1118 0.930 . S
C1111 C1110 1.394 . S
C1111 C1112 1.383 . S
C1111 H1119 0.929 . S
C1112 C1111 1.383 . S
C1112 C1113 1.377 . S
C1113 H1097 0.930 . S
C1113 C1112 1.377 . S
C1113 C1114 1.379 . S
C1114 H1098 0.931 . S
C1114 C1108 1.383 . S
C1114 C1113 1.379 . S
H1115 C1109 0.959 . S
H1116 C1109 0.961 . S
H1117 C1109 0.960 . S
H1118 C1110 0.930 . S
H1119 C1111 0.929 . S
H1120 C1128 0.929 . S
H1121 C1130 0.930 . S
H1122 C1132 0.930 . S
H1123 C1135 0.929 . S
H1124 C1138 0.930 . S
H1125 C1140 0.960 . S
H1126 C1140 0.960 . S
H1127 C1140 0.960 . S
C1128 H1120 0.929 . S
C1128 C1129 1.377 . S
C1128 C1130 1.384 . S
C1129 C1128 1.377 . S
C1129 C1135 1.390 . S
C1130 H1121 0.930 . S
C1130 C1128 1.384 . S
C1130 C1131 1.372 . S
C1131 C1130 1.372 . S
C1131 C1132 1.400 . S
C1131 C1136 1.490 . S
C1132 H1122 0.930 . S
C1132 C1131 1.400 . S
C1132 C1135 1.386 . S
H1133 C1149 0.930 . S
H1134 C1150 0.931 . S
C1135 H1123 0.929 . S
C1135 C1129 1.390 . S
C1135 C1132 1.386 . S
C1136 C1131 1.490 . S
C1136 C1138 1.395 . S
C1136 C1139 1.403 . S
H1137 C1143 0.930 . S
C1138 H1124 0.930 . S
C1138 C1136 1.395 . S
C1138 C1141 1.403 . S
C1139 C1136 1.403 . S
C1139 C1140 1.524 . S
C1139 C1143 1.400 . S
C1140 H1125 0.960 . S
C1140 H1126 0.960 . S
C1140 H1127 0.960 . S
C1140 C1139 1.524 . S
C1141 C1138 1.403 . S
C1141 C1142 1.392 . S
C1141 C1145 1.495 . S
C1142 C1141 1.392 . S
C1142 C1143 1.385 . S
C1142 C1144 1.478 . S
C1143 H1137 0.930 . S
C1143 C1139 1.400 . S
C1143 C1142 1.385 . S
C1144 C1142 1.478 . S
C1144 C1146 1.381 . S
C1144 C1150 1.383 . S
C1145 C1141 1.495 . S
C1145 H1151 0.959 1_455 S
C1145 H1152 0.961 . S
C1145 H1153 0.960 . S
C1146 C1144 1.381 . S
C1146 C1147 1.394 . S
C1146 H1154 0.930 . S
C1147 C1146 1.394 . S
C1147 C1148 1.383 . S
C1147 H1155 0.929 . S
C1148 C1147 1.383 . S
C1148 C1149 1.377 . S
C1149 H1133 0.930 . S
C1149 C1148 1.377 . S
C1149 C1150 1.379 . S
C1150 H1134 0.931 . S
C1150 C1144 1.383 . S
C1150 C1149 1.379 . S
H1151 C1145 0.959 1_655 S
H1152 C1145 0.961 . S
H1153 C1145 0.960 . S
H1154 C1146 0.930 . S
H1155 C1147 0.929 . S
H1156 C1164 0.929 . S
H1157 C1166 0.930 . S
H1158 C1168 0.930 . S
H1159 C1171 0.929 . S
H1160 C1174 0.930 . S
H1161 C1176 0.960 . S
H1162 C1176 0.960 . S
H1163 C1176 0.960 . S
C1164 H1156 0.929 . S
C1164 C1165 1.377 . S
C1164 C1166 1.384 . S
C1165 C1164 1.377 . S
C1165 C1171 1.390 . S
C1166 H1157 0.930 . S
C1166 C1164 1.384 . S
C1166 C1167 1.372 . S
C1167 C1166 1.372 . S
C1167 C1168 1.400 . S
C1167 C1172 1.490 . S
C1168 H1158 0.930 . S
C1168 C1167 1.400 . S
C1168 C1171 1.386 . S
H1169 C1185 0.930 . S
H1170 C1186 0.931 . S
C1171 H1159 0.929 . S
C1171 C1165 1.390 . S
C1171 C1168 1.386 . S
C1172 C1167 1.490 . S
C1172 C1174 1.395 . S
C1172 C1175 1.403 . S
H1173 C1179 0.930 . S
C1174 H1160 0.930 . S
C1174 C1172 1.395 . S
C1174 C1177 1.403 . S
C1175 C1172 1.403 . S
C1175 C1176 1.524 . S
C1175 C1179 1.400 . S
C1176 H1161 0.960 . S
C1176 H1162 0.960 . S
C1176 H1163 0.960 . S
C1176 C1175 1.524 . S
C1177 C1174 1.403 . S
C1177 C1178 1.392 . S
C1177 C1181 1.495 . S
C1178 C1177 1.392 . S
C1178 C1179 1.385 . S
C1178 C1180 1.478 . S
C1179 H1173 0.930 . S
C1179 C1175 1.400 . S
C1179 C1178 1.385 . S
C1180 C1178 1.478 . S
C1180 C1182 1.381 . S
C1180 C1186 1.383 . S
C1181 C1177 1.495 . S
C1181 H1187 0.959 . S
C1181 H1188 0.961 . S
C1181 H1189 0.960 . S
C1182 C1180 1.381 . S
C1182 C1183 1.394 . S
C1182 H1190 0.930 . S
C1183 C1182 1.394 . S
C1183 C1184 1.383 . S
C1183 H1191 0.929 . S
C1184 C1183 1.383 . S
C1184 C1185 1.377 . S
C1185 H1169 0.930 . S
C1185 C1184 1.377 . S
C1185 C1186 1.379 . S
C1186 H1170 0.931 . S
C1186 C1180 1.383 . S
C1186 C1185 1.379 . S
H1187 C1181 0.959 . S
H1188 C1181 0.961 . S
H1189 C1181 0.960 . S
H1190 C1182 0.930 . S
H1191 C1183 0.929 . S
H1192 C1200 0.929 . S
H1193 C1202 0.930 . S
H1194 C1204 0.930 . S
H1195 C1207 0.929 . S
H1196 C1210 0.930 . S
H1197 C1212 0.960 . S
H1198 C1212 0.960 . S
H1199 C1212 0.960 . S
C1200 H1192 0.929 . S
C1200 C1201 1.377 . S
C1200 C1202 1.384 . S
C1201 C1200 1.377 . S
C1201 C1207 1.390 . S
C1202 H1193 0.930 . S
C1202 C1200 1.384 . S
C1202 C1203 1.372 . S
C1203 C1202 1.372 . S
C1203 C1204 1.400 . S
C1203 C1208 1.490 . S
C1204 H1194 0.930 . S
C1204 C1203 1.400 . S
C1204 C1207 1.386 . S
H1205 C1221 0.930 . S
H1206 C1222 0.931 . S
C1207 H1195 0.929 . S
C1207 C1201 1.390 . S
C1207 C1204 1.386 . S
C1208 C1203 1.490 . S
C1208 C1210 1.395 . S
C1208 C1211 1.403 . S
H1209 C1215 0.930 . S
C1210 H1196 0.930 . S
C1210 C1208 1.395 . S
C1210 C1213 1.403 . S
C1211 C1208 1.403 . S
C1211 C1212 1.524 . S
C1211 C1215 1.400 . S
C1212 H1197 0.960 . S
C1212 H1198 0.960 . S
C1212 H1199 0.960 . S
C1212 C1211 1.524 . S
C1213 C1210 1.403 . S
C1213 C1214 1.392 . S
C1213 C1217 1.495 . S
C1214 C1213 1.392 . S
C1214 C1215 1.385 . S
C1214 C1216 1.478 . S
C1215 H1209 0.930 . S
C1215 C1211 1.400 . S
C1215 C1214 1.385 . S
C1216 C1214 1.478 . S
C1216 C1218 1.381 . S
C1216 C1222 1.383 . S
C1217 C1213 1.495 . S
C1217 H1223 0.959 . S
C1217 H1224 0.961 . S
C1217 H1225 0.960 . S
C1218 C1216 1.381 . S
C1218 C1219 1.394 . S
C1218 H1226 0.930 . S
C1219 C1218 1.394 . S
C1219 C1220 1.383 . S
C1219 H1227 0.929 . S
C1220 C1219 1.383 . S
C1220 C1221 1.377 . S
C1221 H1205 0.930 . S
C1221 C1220 1.377 . S
C1221 C1222 1.379 . S
C1222 H1206 0.931 . S
C1222 C1216 1.383 . S
C1222 C1221 1.379 . S
H1223 C1217 0.959 . S
H1224 C1217 0.961 . S
H1225 C1217 0.960 . S
H1226 C1218 0.930 . S
H1227 C1219 0.929 . S
H1228 C1236 0.929 . S
H1229 C1238 0.930 . S
H1230 C1240 0.930 . S
H1231 C1243 0.929 . S
H1232 C1246 0.930 . S
H1233 C1248 0.960 . S
H1234 C1248 0.960 . S
H1235 C1248 0.960 . S
C1236 H1228 0.929 . S
C1236 C1237 1.377 . S
C1236 C1238 1.384 . S
C1237 C1236 1.377 . S
C1237 C1243 1.390 . S
C1238 H1229 0.930 . S
C1238 C1236 1.384 . S
C1238 C1239 1.372 . S
C1239 C1238 1.372 . S
C1239 C1240 1.400 . S
C1239 C1244 1.490 . S
C1240 H1230 0.930 . S
C1240 C1239 1.400 . S
C1240 C1243 1.386 . S
H1241 C1257 0.930 . S
H1242 C1258 0.931 . S
C1243 H1231 0.929 . S
C1243 C1237 1.390 . S
C1243 C1240 1.386 . S
C1244 C1239 1.490 . S
C1244 C1246 1.395 . S
C1244 C1247 1.403 . S
H1245 C1251 0.930 . S
C1246 H1232 0.930 . S
C1246 C1244 1.395 . S
C1246 C1249 1.403 . S
C1247 C1244 1.403 . S
C1247 C1248 1.524 . S
C1247 C1251 1.400 . S
C1248 H1233 0.960 . S
C1248 H1234 0.960 . S
C1248 H1235 0.960 . S
C1248 C1247 1.524 . S
C1249 C1246 1.403 . S
C1249 C1250 1.392 . S
C1249 C1253 1.495 . S
C1250 C1249 1.392 . S
C1250 C1251 1.385 . S
C1250 C1252 1.478 . S
C1251 H1245 0.930 . S
C1251 C1247 1.400 . S
C1251 C1250 1.385 . S
C1252 C1250 1.478 . S
C1252 C1254 1.381 . S
C1252 C1258 1.383 . S
C1253 C1249 1.495 . S
C1253 H1259 0.959 . S
C1253 H1260 0.961 . S
C1253 H1261 0.960 . S
C1254 C1252 1.381 . S
C1254 C1255 1.394 . S
C1254 H1262 0.930 . S
C1255 C1254 1.394 . S
C1255 C1256 1.383 . S
C1255 H1263 0.929 . S
C1256 C1255 1.383 . S
C1256 C1257 1.377 . S
C1257 H1241 0.930 . S
C1257 C1256 1.377 . S
C1257 C1258 1.379 . S
C1258 H1242 0.931 . S
C1258 C1252 1.383 . S
C1258 C1257 1.379 . S
H1259 C1253 0.959 . S
H1260 C1253 0.961 . S
H1261 C1253 0.960 . S
H1262 C1254 0.930 . S
H1263 C1255 0.929 . S
H1264 C1272 0.929 1_565 S
H1265 C1274 0.930 . S
H1266 C1276 0.930 . S
H1267 C1279 0.929 . S
H1268 C1282 0.930 . S
H1269 C1284 0.960 . S
H1270 C1284 0.960 . S
H1271 C1284 0.960 1_545 S
C1272 H1264 0.929 1_545 S
C1272 C1273 1.377 . S
C1272 C1274 1.384 . S
C1273 C1272 1.377 . S
C1273 C1279 1.390 . S
C1274 H1265 0.930 . S
C1274 C1272 1.384 . S
C1274 C1275 1.372 . S
C1275 C1274 1.372 . S
C1275 C1276 1.400 . S
C1275 C1280 1.490 . S
C1276 H1266 0.930 . S
C1276 C1275 1.400 . S
C1276 C1279 1.386 . S
H1277 C1293 0.930 . S
H1278 C1294 0.931 . S
C1279 H1267 0.929 . S
C1279 C1273 1.390 . S
C1279 C1276 1.386 . S
C1280 C1275 1.490 . S
C1280 C1282 1.395 . S
C1280 C1283 1.403 . S
H1281 C1287 0.930 . S
C1282 H1268 0.930 . S
C1282 C1280 1.395 . S
C1282 C1285 1.403 . S
C1283 C1280 1.403 . S
C1283 C1284 1.524 1_545 S
C1283 C1287 1.400 . S
C1284 H1269 0.960 . S
C1284 H1270 0.960 . S
C1284 H1271 0.960 1_565 S
C1284 C1283 1.524 1_565 S
C1285 C1282 1.403 . S
C1285 C1286 1.392 . S
C1285 C1289 1.495 . S
C1286 C1285 1.392 . S
C1286 C1287 1.385 . S
C1286 C1288 1.478 . S
C1287 H1281 0.930 . S
C1287 C1283 1.400 . S
C1287 C1286 1.385 . S
C1288 C1286 1.478 . S
C1288 C1290 1.381 . S
C1288 C1294 1.383 1_655 S
C1289 C1285 1.495 . S
C1289 H1295 0.959 . S
C1289 H1296 0.961 . S
C1289 H1297 0.960 . S
C1290 C1288 1.381 . S
C1290 C1291 1.394 . S
C1290 H1298 0.930 . S
C1291 C1290 1.394 . S
C1291 C1292 1.383 1_655 S
C1291 H1299 0.929 . S
C1292 C1291 1.383 1_455 S
C1292 C1293 1.377 . S
C1293 H1277 0.930 . S
C1293 C1292 1.377 . S
C1293 C1294 1.379 . S
C1294 H1278 0.931 . S
C1294 C1288 1.383 1_455 S
C1294 C1293 1.379 . S
H1295 C1289 0.959 . S
H1296 C1289 0.961 . S
H1297 C1289 0.960 . S
H1298 C1290 0.930 . S
H1299 C1291 0.929 . S
H1300 C1308 0.929 . S
H1301 C1310 0.930 . S
H1302 C1312 0.930 . S
H1303 C1315 0.929 . S
H1304 C1318 0.930 . S
H1305 C1320 0.960 . S
H1306 C1320 0.960 . S
H1307 C1320 0.960 . S
C1308 H1300 0.929 . S
C1308 C1309 1.377 . S
C1308 C1310 1.384 . S
C1309 C1308 1.377 . S
C1309 C1315 1.390 . S
C1310 H1301 0.930 . S
C1310 C1308 1.384 . S
C1310 C1311 1.372 . S
C1311 C1310 1.372 . S
C1311 C1312 1.400 . S
C1311 C1316 1.490 . S
C1312 H1302 0.930 . S
C1312 C1311 1.400 . S
C1312 C1315 1.386 . S
H1313 C1329 0.930 . S
H1314 C1330 0.931 . S
C1315 H1303 0.929 . S
C1315 C1309 1.390 . S
C1315 C1312 1.386 . S
C1316 C1311 1.490 . S
C1316 C1318 1.395 . S
C1316 C1319 1.403 . S
H1317 C1323 0.930 . S
C1318 H1304 0.930 . S
C1318 C1316 1.395 . S
C1318 C1321 1.403 . S
C1319 C1316 1.403 . S
C1319 C1320 1.524 . S
C1319 C1323 1.400 . S
C1320 H1305 0.960 . S
C1320 H1306 0.960 . S
C1320 H1307 0.960 . S
C1320 C1319 1.524 . S
C1321 C1318 1.403 . S
C1321 C1322 1.392 . S
C1321 C1325 1.495 . S
C1322 C1321 1.392 . S
C1322 C1323 1.385 . S
C1322 C1324 1.478 . S
C1323 H1317 0.930 . S
C1323 C1319 1.400 . S
C1323 C1322 1.385 . S
C1324 C1322 1.478 . S
C1324 C1326 1.381 . S
C1324 C1330 1.383 . S
C1325 C1321 1.495 . S
C1325 H1331 0.959 . S
C1325 H1332 0.961 . S
C1325 H1333 0.960 . S
C1326 C1324 1.381 . S
C1326 C1327 1.394 . S
C1326 H1334 0.930 . S
C1327 C1326 1.394 . S
C1327 C1328 1.383 . S
C1327 H1335 0.929 . S
C1328 C1327 1.383 . S
C1328 C1329 1.377 . S
C1329 H1313 0.930 . S
C1329 C1328 1.377 . S
C1329 C1330 1.379 . S
C1330 H1314 0.931 . S
C1330 C1324 1.383 . S
C1330 C1329 1.379 . S
H1331 C1325 0.959 . S
H1332 C1325 0.961 . S
H1333 C1325 0.960 . S
H1334 C1326 0.930 . S
H1335 C1327 0.929 . S
H1336 C1344 0.929 . S
H1337 C1346 0.930 . S
H1338 C1348 0.930 . S
H1339 C1351 0.929 . S
H1340 C1354 0.930 1_565 S
H1341 C1356 0.960 . S
H1342 C1356 0.960 . S
H1343 C1356 0.960 . S
C1344 H1336 0.929 . S
C1344 C1345 1.367 1_545 S
C1344 C1346 1.384 . S
C1345 C1344 1.367 1_565 S
C1345 C1351 1.392 . S
C1346 H1337 0.930 . S
C1346 C1344 1.384 . S
C1346 C1347 1.372 . S
C1347 C1346 1.372 . S
C1347 C1348 1.400 1_545 S
C1347 C1352 1.490 . S
C1348 H1338 0.930 . S
C1348 C1347 1.400 1_565 S
C1348 C1351 1.386 . S
H1349 C1365 0.930 . S
H1350 C1366 0.911 1_565 S
C1351 H1339 0.929 . S
C1351 C1345 1.392 . S
C1351 C1348 1.386 . S
C1352 C1347 1.490 . S
C1352 C1354 1.395 . S
C1352 C1355 1.403 . S
H1353 C1359 0.930 . S
C1354 H1340 0.930 1_545 S
C1354 C1352 1.395 . S
C1354 C1357 1.403 . S
C1355 C1352 1.403 . S
C1355 C1356 1.524 . S
C1355 C1359 1.400 . S
C1356 H1341 0.960 . S
C1356 H1342 0.960 . S
C1356 H1343 0.960 . S
C1356 C1355 1.524 . S
C1357 C1354 1.403 . S
C1357 C1358 1.392 . S
C1357 C1361 1.495 1_545 S
C1358 C1357 1.392 . S
C1358 C1359 1.385 . S
C1358 C1360 1.478 . S
C1359 H1353 0.930 . S
C1359 C1355 1.400 . S
C1359 C1358 1.385 . S
C1360 C1358 1.478 . S
C1360 C1362 1.381 . S
C1360 C1366 1.383 . S
C1361 C1357 1.495 1_565 S
C1361 H1367 0.959 . S
C1361 H1368 0.961 . S
C1361 H1369 0.960 1_565 S
C1362 C1360 1.381 . S
C1362 C1363 1.394 . S
C1362 H1370 0.930 . S
C1363 C1362 1.394 . S
C1363 C1364 1.383 . S
C1363 H1371 0.929 . S
C1364 C1363 1.383 . S
C1364 C1365 1.377 . S
C1365 H1349 0.930 . S
C1365 C1364 1.377 . S
C1365 C1366 1.379 . S
C1366 H1350 0.911 1_545 S
C1366 C1360 1.383 . S
C1366 C1365 1.379 . S
H1367 C1361 0.959 . S
H1368 C1361 0.961 . S
H1369 C1361 0.960 1_545 S
H1370 C1362 0.930 . S
H1371 C1363 0.929 . S
H1372 C1380 0.929 . S
H1373 C1382 0.930 . S
H1374 C1384 0.930 . S
H1375 C1387 0.929 . S
H1376 C1390 0.930 . S
H1377 C1392 0.960 . S
H1378 C1392 0.960 . S
H1379 C1392 0.960 . S
C1380 H1372 0.929 . S
C1380 C1381 1.377 . S
C1380 C1382 1.384 . S
C1381 C1380 1.377 . S
C1381 C1387 1.390 . S
C1382 H1373 0.930 . S
C1382 C1380 1.384 . S
C1382 C1383 1.372 . S
C1383 C1382 1.372 . S
C1383 C1384 1.400 . S
C1383 C1388 1.490 . S
C1384 H1374 0.930 . S
C1384 C1383 1.400 . S
C1384 C1387 1.386 . S
H1385 C1401 0.930 . S
H1386 C1402 0.931 . S
C1387 H1375 0.929 . S
C1387 C1381 1.390 . S
C1387 C1384 1.386 . S
C1388 C1383 1.490 . S
C1388 C1390 1.395 . S
C1388 C1391 1.403 . S
H1389 C1395 0.930 . S
C1390 H1376 0.930 . S
C1390 C1388 1.395 . S
C1390 C1393 1.403 . S
C1391 C1388 1.403 . S
C1391 C1392 1.524 . S
C1391 C1395 1.400 . S
C1392 H1377 0.960 . S
C1392 H1378 0.960 . S
C1392 H1379 0.960 . S
C1392 C1391 1.524 . S
C1393 C1390 1.403 . S
C1393 C1394 1.392 . S
C1393 C1397 1.495 . S
C1394 C1393 1.392 . S
C1394 C1395 1.385 . S
C1394 C1396 1.478 . S
C1395 H1389 0.930 . S
C1395 C1391 1.400 . S
C1395 C1394 1.385 . S
C1396 C1394 1.478 . S
C1396 C1398 1.381 . S
C1396 C1402 1.383 . S
C1397 C1393 1.495 . S
C1397 H1403 0.959 . S
C1397 H1404 0.961 . S
C1397 H1405 0.960 . S
C1398 C1396 1.381 . S
C1398 C1399 1.394 . S
C1398 H1406 0.930 . S
C1399 C1398 1.394 . S
C1399 C1400 1.383 . S
C1399 H1407 0.929 . S
C1400 C1399 1.383 . S
C1400 C1401 1.377 . S
C1401 H1385 0.930 . S
C1401 C1400 1.377 . S
C1401 C1402 1.379 . S
C1402 H1386 0.931 . S
C1402 C1396 1.383 . S
C1402 C1401 1.379 . S
H1403 C1397 0.959 . S
H1404 C1397 0.961 . S
H1405 C1397 0.960 . S
H1406 C1398 0.930 . S
H1407 C1399 0.929 . S
H1408 C1416 0.929 . S
H1409 C1418 0.930 . S
H1410 C1420 0.930 . S
H1411 C1423 0.929 . S
H1412 C1426 0.930 . S
H1413 C1428 0.960 . S
H1414 C1428 0.960 . S
H1415 C1428 0.960 1_565 S
C1416 H1408 0.929 . S
C1416 C1417 1.377 . S
C1416 C1418 1.384 . S
C1417 C1416 1.377 . S
C1417 C1423 1.390 1_545 S
C1418 H1409 0.930 . S
C1418 C1416 1.384 . S
C1418 C1419 1.372 . S
C1419 C1418 1.372 . S
C1419 C1420 1.400 1_545 S
C1419 C1424 1.490 . S
C1420 H1410 0.930 . S
C1420 C1419 1.400 1_565 S
C1420 C1423 1.386 . S
H1421 C1437 0.913 1_465 S
H1422 C1438 0.931 1_565 S
C1423 H1411 0.929 . S
C1423 C1417 1.390 1_565 S
C1423 C1420 1.386 . S
C1424 C1419 1.490 . S
C1424 C1426 1.395 . S
C1424 C1427 1.403 . S
H1425 C1431 0.930 . S
C1426 H1412 0.930 . S
C1426 C1424 1.395 . S
C1426 C1429 1.403 . S
C1427 C1424 1.403 . S
C1427 C1428 1.524 . S
C1427 C1431 1.400 . S
C1428 H1413 0.960 . S
C1428 H1414 0.960 . S
C1428 H1415 0.960 1_545 S
C1428 C1427 1.524 . S
C1429 C1426 1.403 . S
C1429 C1430 1.392 . S
C1429 C1433 1.495 . S
C1430 C1429 1.392 . S
C1430 C1431 1.385 . S
C1430 C1432 1.478 . S
C1431 H1425 0.930 . S
C1431 C1427 1.400 . S
C1431 C1430 1.385 . S
C1432 C1430 1.478 . S
C1432 C1434 1.381 . S
C1432 C1438 1.383 . S
C1433 C1429 1.495 . S
C1433 H1439 0.959 . S
C1433 H1440 0.961 . S
C1433 H1441 0.960 . S
C1434 C1432 1.381 . S
C1434 C1435 1.394 . S
C1434 H1442 0.930 . S
C1435 C1434 1.394 . S
C1435 C1436 1.383 1_655 S
C1435 H1443 0.929 . S
C1436 C1435 1.383 1_455 S
C1436 C1437 1.377 1_455 S
C1437 H1421 0.913 1_645 S
C1437 C1436 1.377 1_655 S
C1437 C1438 1.379 . S
C1438 H1422 0.931 1_545 S
C1438 C1432 1.383 . S
C1438 C1437 1.379 . S
H1439 C1433 0.959 . S
H1440 C1433 0.961 . S
H1441 C1433 0.960 . S
H1442 C1434 0.930 . S
H1443 C1435 0.929 . S
H1444 C1452 0.929 . S
H1445 C1454 0.930 . S
H1446 C1456 0.930 . S
H1447 C1459 0.929 . S
H1448 C1462 0.930 . S
H1449 C1464 0.960 . S
H1450 C1464 0.960 . S
H1451 C1464 0.960 . S
C1452 H1444 0.929 . S
C1452 C1453 1.377 . S
C1452 C1454 1.384 . S
C1453 C1452 1.377 . S
C1453 C1459 1.390 . S
C1454 H1445 0.930 . S
C1454 C1452 1.384 . S
C1454 C1455 1.372 . S
C1455 C1454 1.372 . S
C1455 C1456 1.400 . S
C1455 C1460 1.490 . S
C1456 H1446 0.930 . S
C1456 C1455 1.400 . S
C1456 C1459 1.386 . S
H1457 C1473 0.930 . S
H1458 C1474 0.931 . S
C1459 H1447 0.929 . S
C1459 C1453 1.390 . S
C1459 C1456 1.386 . S
C1460 C1455 1.490 . S
C1460 C1462 1.395 . S
C1460 C1463 1.403 . S
H1461 C1467 0.930 . S
C1462 H1448 0.930 . S
C1462 C1460 1.395 . S
C1462 C1465 1.403 . S
C1463 C1460 1.403 . S
C1463 C1464 1.524 . S
C1463 C1467 1.400 . S
C1464 H1449 0.960 . S
C1464 H1450 0.960 . S
C1464 H1451 0.960 . S
C1464 C1463 1.524 . S
C1465 C1462 1.403 . S
C1465 C1466 1.392 . S
C1465 C1469 1.495 . S
C1466 C1465 1.392 . S
C1466 C1467 1.385 . S
C1466 C1468 1.478 . S
C1467 H1461 0.930 . S
C1467 C1463 1.400 . S
C1467 C1466 1.385 . S
C1468 C1466 1.478 . S
C1468 C1470 1.381 . S
C1468 C1474 1.383 . S
C1469 C1465 1.495 . S
C1469 H1475 0.959 . S
C1469 H1476 0.961 . S
C1469 H1477 0.960 . S
C1470 C1468 1.381 . S
C1470 C1471 1.394 . S
C1470 H1478 0.930 . S
C1471 C1470 1.394 . S
C1471 C1472 1.383 . S
C1471 H1479 0.929 . S
C1472 C1471 1.383 . S
C1472 C1473 1.377 . S
C1473 H1457 0.930 . S
C1473 C1472 1.377 . S
C1473 C1474 1.379 . S
C1474 H1458 0.931 . S
C1474 C1468 1.383 . S
C1474 C1473 1.379 . S
H1475 C1469 0.959 . S
H1476 C1469 0.961 . S
H1477 C1469 0.960 . S
H1478 C1470 0.930 . S
H1479 C1471 0.929 . S
H1480 C1488 0.929 . S
H1481 C1490 0.941 . S
H1482 C1492 0.930 . S
H1483 C1495 0.929 . S
H1484 C1498 0.930 . S
H1485 C1500 0.960 . S
H1486 C1500 0.983 . S
H1487 C1500 0.950 1_545 S
C1488 H1480 0.929 . S
C1488 C1489 1.373 1_565 S
C1488 C1490 1.384 1_565 S
C1489 C1488 1.373 1_545 S
C1489 C1495 1.398 . S
C1490 H1481 0.941 . S
C1490 C1488 1.384 1_545 S
C1490 C1491 1.372 . S
C1491 C1490 1.372 . S
C1491 C1492 1.400 . S
C1491 C1496 1.490 . S
C1492 H1482 0.930 . S
C1492 C1491 1.400 . S
C1492 C1495 1.386 . S
H1493 C1509 0.930 . S
H1494 C1510 0.931 . S
C1495 H1483 0.929 . S
C1495 C1489 1.398 . S
C1495 C1492 1.386 . S
C1496 C1491 1.490 . S
C1496 C1498 1.395 . S
C1496 C1499 1.403 . S
H1497 C1503 0.930 . S
C1498 H1484 0.930 . S
C1498 C1496 1.395 . S
C1498 C1501 1.403 . S
C1499 C1496 1.403 . S
C1499 C1500 1.512 1_545 S
C1499 C1503 1.400 . S
C1500 H1485 0.960 . S
C1500 H1486 0.983 . S
C1500 H1487 0.950 1_565 S
C1500 C1499 1.512 1_565 S
C1501 C1498 1.403 . S
C1501 C1502 1.392 . S
C1501 C1505 1.495 . S
C1502 C1501 1.392 . S
C1502 C1503 1.385 . S
C1502 C1504 1.478 . S
C1503 H1497 0.930 . S
C1503 C1499 1.400 . S
C1503 C1502 1.385 . S
C1504 C1502 1.478 . S
C1504 C1506 1.381 . S
C1504 C1510 1.383 . S
C1505 C1501 1.495 . S
C1505 H1511 0.959 . S
C1505 H1512 0.961 . S
C1505 H1513 0.960 . S
C1506 C1504 1.381 . S
C1506 C1507 1.394 . S
C1506 H1514 0.930 . S
C1507 C1506 1.394 . S
C1507 C1508 1.383 . S
C1507 H1515 0.929 . S
C1508 C1507 1.383 . S
C1508 C1509 1.377 . S
C1509 H1493 0.930 . S
C1509 C1508 1.377 . S
C1509 C1510 1.379 . S
C1510 H1494 0.931 . S
C1510 C1504 1.383 . S
C1510 C1509 1.379 . S
H1511 C1505 0.959 . S
H1512 C1505 0.961 . S
H1513 C1505 0.960 . S
H1514 C1506 0.930 . S
H1515 C1507 0.929 . S
H1516 C1524 0.929 . S
H1517 C1526 0.930 . S
H1518 C1528 0.930 . S
H1519 C1531 0.929 . S
H1520 C1534 0.930 . S
H1521 C1536 0.960 . S
H1522 C1536 0.960 . S
H1523 C1536 0.960 . S
C1524 H1516 0.929 . S
C1524 C1525 1.377 . S
C1524 C1526 1.384 . S
C1525 C1524 1.377 . S
C1525 C1531 1.390 . S
C1526 H1517 0.930 . S
C1526 C1524 1.384 . S
C1526 C1527 1.372 . S
C1527 C1526 1.372 . S
C1527 C1528 1.400 . S
C1527 C1532 1.490 . S
C1528 H1518 0.930 . S
C1528 C1527 1.400 . S
C1528 C1531 1.386 . S
H1529 C1545 0.930 . S
H1530 C1546 0.931 . S
C1531 H1519 0.929 . S
C1531 C1525 1.390 . S
C1531 C1528 1.386 . S
C1532 C1527 1.490 . S
C1532 C1534 1.395 . S
C1532 C1535 1.403 . S
H1533 C1539 0.930 . S
C1534 H1520 0.930 . S
C1534 C1532 1.395 . S
C1534 C1537 1.403 . S
C1535 C1532 1.403 . S
C1535 C1536 1.524 . S
C1535 C1539 1.400 . S
C1536 H1521 0.960 . S
C1536 H1522 0.960 . S
C1536 H1523 0.960 . S
C1536 C1535 1.524 . S
C1537 C1534 1.403 . S
C1537 C1538 1.392 . S
C1537 C1541 1.495 . S
C1538 C1537 1.392 . S
C1538 C1539 1.385 . S
C1538 C1540 1.478 . S
C1539 H1533 0.930 . S
C1539 C1535 1.400 . S
C1539 C1538 1.385 . S
C1540 C1538 1.478 . S
C1540 C1542 1.381 . S
C1540 C1546 1.383 . S
C1541 C1537 1.495 . S
C1541 H1547 0.959 . S
C1541 H1548 0.961 . S
C1541 H1549 0.960 . S
C1542 C1540 1.381 . S
C1542 C1543 1.394 . S
C1542 H1550 0.930 . S
C1543 C1542 1.394 . S
C1543 C1544 1.383 . S
C1543 H1551 0.929 . S
C1544 C1543 1.383 . S
C1544 C1545 1.377 . S
C1545 H1529 0.930 . S
C1545 C1544 1.377 . S
C1545 C1546 1.379 . S
C1546 H1530 0.931 . S
C1546 C1540 1.383 . S
C1546 C1545 1.379 . S
H1547 C1541 0.959 . S
H1548 C1541 0.961 . S
H1549 C1541 0.960 . S
H1550 C1542 0.930 . S
H1551 C1543 0.929 . S
H1552 C1560 0.929 . S
H1553 C1562 0.930 . S
H1554 C1564 0.930 . S
H1555 C1567 0.929 . S
H1556 C1570 0.930 . S
H1557 C1572 0.960 . S
H1558 C1572 0.960 . S
H1559 C1572 0.960 . S
C1560 H1552 0.929 . S
C1560 C1561 1.377 . S
C1560 C1562 1.384 . S
C1561 C1560 1.377 . S
C1561 C1567 1.390 . S
C1562 H1553 0.930 . S
C1562 C1560 1.384 . S
C1562 C1563 1.372 . S
C1563 C1562 1.372 . S
C1563 C1564 1.400 . S
C1563 C1568 1.490 . S
C1564 H1554 0.930 . S
C1564 C1563 1.400 . S
C1564 C1567 1.386 . S
H1565 C1581 0.880 1_545 S
H1566 C1582 0.931 . S
C1567 H1555 0.929 . S
C1567 C1561 1.390 . S
C1567 C1564 1.386 . S
C1568 C1563 1.490 . S
C1568 C1570 1.395 . S
C1568 C1571 1.403 . S
H1569 C1575 0.930 . S
C1570 H1556 0.930 . S
C1570 C1568 1.395 . S
C1570 C1573 1.403 . S
C1571 C1568 1.403 . S
C1571 C1572 1.524 . S
C1571 C1575 1.400 . S
C1572 H1557 0.960 . S
C1572 H1558 0.960 . S
C1572 H1559 0.960 . S
C1572 C1571 1.524 . S
C1573 C1570 1.403 . S
C1573 C1574 1.392 . S
C1573 C1577 1.495 . S
C1574 C1573 1.392 . S
C1574 C1575 1.385 . S
C1574 C1576 1.478 . S
C1575 H1569 0.930 . S
C1575 C1571 1.400 . S
C1575 C1574 1.385 . S
C1576 C1574 1.478 . S
C1576 C1578 1.381 . S
C1576 C1582 1.383 . S
C1577 C1573 1.495 . S
C1577 H1583 0.959 . S
C1577 H1584 0.961 . S
C1577 H1585 0.960 . S
C1578 C1576 1.381 . S
C1578 C1579 1.394 . S
C1578 H1586 0.930 . S
C1579 C1578 1.394 . S
C1579 C1580 1.383 . S
C1579 H1587 0.929 . S
C1580 C1579 1.383 . S
C1580 C1581 1.382 . S
C1581 H1565 0.880 1_565 S
C1581 C1580 1.382 . S
C1581 C1582 1.425 . S
C1582 H1566 0.931 . S
C1582 C1576 1.383 . S
C1582 C1581 1.425 . S
H1583 C1577 0.959 . S
H1584 C1577 0.961 . S
H1585 C1577 0.960 . S
H1586 C1578 0.930 . S
H1587 C1579 0.929 . S
H1588 C1596 0.929 . S
H1589 C1598 0.930 . S
H1590 C1600 0.930 . S
H1591 C1603 0.929 . S
H1592 C1606 0.930 . S
H1593 C1608 0.960 1_556 S
H1594 C1608 0.960 1_556 S
H1595 C1608 0.960 . S
C1596 H1588 0.929 . S
C1596 C1597 1.377 . S
C1596 C1598 1.384 . S
C1597 C1596 1.377 . S
C1597 C1603 1.390 . S
C1598 H1589 0.930 . S
C1598 C1596 1.384 . S
C1598 C1599 1.372 . S
C1599 C1598 1.372 . S
C1599 C1600 1.400 . S
C1599 C1604 1.490 . S
C1600 H1590 0.930 . S
C1600 C1599 1.400 . S
C1600 C1603 1.386 . S
H1601 C1617 0.930 . S
H1602 C1618 0.931 . S
C1603 H1591 0.929 . S
C1603 C1597 1.390 . S
C1603 C1600 1.386 . S
C1604 C1599 1.490 . S
C1604 C1606 1.395 . S
C1604 C1607 1.403 . S
H1605 C1611 0.930 . S
C1606 H1592 0.930 . S
C1606 C1604 1.395 . S
C1606 C1609 1.403 . S
C1607 C1604 1.403 . S
C1607 C1608 1.524 . S
C1607 C1611 1.400 . S
C1608 H1593 0.960 1_554 S
C1608 H1594 0.960 1_554 S
C1608 H1595 0.960 . S
C1608 C1607 1.524 . S
C1609 C1606 1.403 . S
C1609 C1610 1.392 . S
C1609 C1613 1.495 . S
C1610 C1609 1.392 . S
C1610 C1611 1.385 . S
C1610 C1612 1.478 . S
C1611 H1605 0.930 . S
C1611 C1607 1.400 . S
C1611 C1610 1.385 . S
C1612 C1610 1.478 . S
C1612 C1614 1.381 . S
C1612 C1618 1.383 . S
C1613 C1609 1.495 . S
C1613 H1619 0.959 . S
C1613 H1620 0.961 . S
C1613 H1621 0.960 . S
C1614 C1612 1.381 . S
C1614 C1615 1.394 . S
C1614 H1622 0.930 . S
C1615 C1614 1.394 . S
C1615 C1616 1.383 . S
C1615 H1623 0.929 . S
C1616 C1615 1.383 . S
C1616 C1617 1.377 . S
C1617 H1601 0.930 . S
C1617 C1616 1.377 . S
C1617 C1618 1.379 . S
C1618 H1602 0.931 . S
C1618 C1612 1.383 . S
C1618 C1617 1.379 . S
H1619 C1613 0.959 . S
H1620 C1613 0.961 . S
H1621 C1613 0.960 . S
H1622 C1614 0.930 . S
H1623 C1615 0.929 . S
H1624 C1632 0.929 . S
H1625 C1634 0.930 . S
H1626 C1636 0.930 . S
H1627 C1639 0.929 . S
H1628 C1642 0.930 . S
H1629 C1644 0.960 . S
H1630 C1644 0.960 . S
H1631 C1644 0.960 . S
C1632 H1624 0.929 . S
C1632 C1633 1.377 . S
C1632 C1634 1.384 . S
C1633 C1632 1.377 . S
C1633 C1639 1.390 . S
C1634 H1625 0.930 . S
C1634 C1632 1.384 . S
C1634 C1635 1.372 . S
C1635 C1634 1.372 . S
C1635 C1636 1.400 . S
C1635 C1640 1.490 . S
C1636 H1626 0.930 . S
C1636 C1635 1.400 . S
C1636 C1639 1.386 . S
H1637 C1653 0.930 . S
H1638 C1654 0.931 . S
C1639 H1627 0.929 . S
C1639 C1633 1.390 . S
C1639 C1636 1.386 . S
C1640 C1635 1.490 . S
C1640 C1642 1.395 . S
C1640 C1643 1.403 . S
H1641 C1647 0.930 . S
C1642 H1628 0.930 . S
C1642 C1640 1.395 . S
C1642 C1645 1.403 . S
C1643 C1640 1.403 . S
C1643 C1644 1.524 . S
C1643 C1647 1.400 . S
C1644 H1629 0.960 . S
C1644 H1630 0.960 . S
C1644 H1631 0.960 . S
C1644 C1643 1.524 . S
C1645 C1642 1.403 . S
C1645 C1646 1.392 . S
C1645 C1649 1.495 . S
C1646 C1645 1.392 . S
C1646 C1647 1.385 . S
C1646 C1648 1.478 . S
C1647 H1641 0.930 . S
C1647 C1643 1.400 . S
C1647 C1646 1.385 . S
C1648 C1646 1.478 . S
C1648 C1650 1.381 . S
C1648 C1654 1.383 . S
C1649 C1645 1.495 . S
C1649 H1655 0.959 . S
C1649 H1656 0.961 . S
C1649 H1657 0.960 . S
C1650 C1648 1.381 . S
C1650 C1651 1.394 . S
C1650 H1658 0.930 . S
C1651 C1650 1.394 . S
C1651 C1652 1.383 . S
C1651 H1659 0.929 . S
C1652 C1651 1.383 . S
C1652 C1653 1.377 . S
C1653 H1637 0.930 . S
C1653 C1652 1.377 . S
C1653 C1654 1.379 . S
C1654 H1638 0.931 . S
C1654 C1648 1.383 . S
C1654 C1653 1.379 . S
H1655 C1649 0.959 . S
H1656 C1649 0.961 . S
H1657 C1649 0.960 . S
H1658 C1650 0.930 . S
H1659 C1651 0.929 . S
H1660 C1668 0.929 . S
H1661 C1670 0.930 . S
H1662 C1672 0.930 . S
H1663 C1675 0.929 . S
H1664 C1678 0.930 . S
H1665 C1680 0.960 . S
H1666 C1680 0.960 . S
H1667 C1680 0.960 . S
C1668 H1660 0.929 . S
C1668 C1669 1.377 . S
C1668 C1670 1.384 . S
C1669 C1668 1.377 . S
C1669 C1675 1.390 . S
C1670 H1661 0.930 . S
C1670 C1668 1.384 . S
C1670 C1671 1.372 . S
C1671 C1670 1.372 . S
C1671 C1672 1.400 . S
C1671 C1676 1.490 . S
C1672 H1662 0.930 . S
C1672 C1671 1.400 . S
C1672 C1675 1.386 . S
H1673 C1689 0.930 . S
H1674 C1690 0.931 . S
C1675 H1663 0.929 . S
C1675 C1669 1.390 . S
C1675 C1672 1.386 . S
C1676 C1671 1.490 . S
C1676 C1678 1.395 . S
C1676 C1679 1.403 . S
H1677 C1683 0.930 . S
C1678 H1664 0.930 . S
C1678 C1676 1.395 . S
C1678 C1681 1.403 . S
C1679 C1676 1.403 . S
C1679 C1680 1.524 . S
C1679 C1683 1.400 . S
C1680 H1665 0.960 . S
C1680 H1666 0.960 . S
C1680 H1667 0.960 . S
C1680 C1679 1.524 . S
C1681 C1678 1.403 . S
C1681 C1682 1.392 . S
C1681 C1685 1.495 . S
C1682 C1681 1.392 . S
C1682 C1683 1.385 . S
C1682 C1684 1.478 . S
C1683 H1677 0.930 . S
C1683 C1679 1.400 . S
C1683 C1682 1.385 . S
C1684 C1682 1.478 . S
C1684 C1686 1.381 . S
C1684 C1690 1.383 . S
C1685 C1681 1.495 . S
C1685 H1691 0.959 . S
C1685 H1692 0.961 . S
C1685 H1693 0.960 . S
C1686 C1684 1.381 . S
C1686 C1687 1.394 . S
C1686 H1694 0.930 . S
C1687 C1686 1.394 . S
C1687 C1688 1.383 . S
C1687 H1695 0.929 . S
C1688 C1687 1.383 . S
C1688 C1689 1.377 . S
C1689 H1673 0.930 . S
C1689 C1688 1.377 . S
C1689 C1690 1.379 . S
C1690 H1674 0.931 . S
C1690 C1684 1.383 . S
C1690 C1689 1.379 . S
H1691 C1685 0.959 . S
H1692 C1685 0.961 . S
H1693 C1685 0.960 . S
H1694 C1686 0.930 . S
H1695 C1687 0.929 . S
H1696 C1704 0.929 . S
H1697 C1706 0.930 . S
H1698 C1708 0.930 . S
H1699 C1711 0.929 . S
H1700 C1714 0.930 . S
H1701 C1716 0.960 . S
H1702 C1716 0.960 . S
H1703 C1716 0.960 . S
C1704 H1696 0.929 . S
C1704 C1705 1.377 . S
C1704 C1706 1.384 . S
C1705 C1704 1.377 . S
C1705 C1711 1.390 . S
C1706 H1697 0.930 . S
C1706 C1704 1.384 . S
C1706 C1707 1.372 . S
C1707 C1706 1.372 . S
C1707 C1708 1.400 . S
C1707 C1712 1.490 . S
C1708 H1698 0.930 . S
C1708 C1707 1.400 . S
C1708 C1711 1.386 . S
H1709 C1725 0.930 . S
H1710 C1726 0.931 . S
C1711 H1699 0.929 . S
C1711 C1705 1.390 . S
C1711 C1708 1.386 . S
C1712 C1707 1.490 . S
C1712 C1714 1.395 . S
C1712 C1715 1.403 . S
H1713 C1719 0.930 . S
C1714 H1700 0.930 . S
C1714 C1712 1.395 . S
C1714 C1717 1.403 . S
C1715 C1712 1.403 . S
C1715 C1716 1.524 . S
C1715 C1719 1.400 . S
C1716 H1701 0.960 . S
C1716 H1702 0.960 . S
C1716 H1703 0.960 . S
C1716 C1715 1.524 . S
C1717 C1714 1.403 . S
C1717 C1718 1.392 . S
C1717 C1721 1.495 . S
C1718 C1717 1.392 . S
C1718 C1719 1.385 . S
C1718 C1720 1.478 . S
C1719 H1713 0.930 . S
C1719 C1715 1.400 . S
C1719 C1718 1.385 . S
C1720 C1718 1.478 . S
C1720 C1722 1.381 . S
C1720 C1726 1.383 . S
C1721 C1717 1.495 . S
C1721 H1727 0.959 . S
C1721 H1728 0.961 . S
C1721 H1729 0.960 . S
C1722 C1720 1.381 . S
C1722 C1723 1.394 . S
C1722 H1730 0.930 . S
C1723 C1722 1.394 . S
C1723 C1724 1.383 . S
C1723 H1731 0.929 . S
C1724 C1723 1.383 . S
C1724 C1725 1.377 . S
C1725 H1709 0.930 . S
C1725 C1724 1.377 . S
C1725 C1726 1.379 . S
C1726 H1710 0.931 . S
C1726 C1720 1.383 . S
C1726 C1725 1.379 . S
H1727 C1721 0.959 . S
H1728 C1721 0.961 . S
H1729 C1721 0.960 . S
H1730 C1722 0.930 . S
H1731 C1723 0.929 . S
H1732 C1740 0.929 . S
H1733 C1742 0.930 . S
H1734 C1744 0.930 . S
H1735 C1747 0.929 . S
H1736 C1750 0.930 . S
H1737 C1752 0.960 . S
H1738 C1752 0.960 . S
H1739 C1752 0.960 . S
C1740 H1732 0.929 . S
C1740 C1741 1.377 . S
C1740 C1742 1.384 . S
C1741 C1740 1.377 . S
C1741 C1747 1.390 . S
C1742 H1733 0.930 . S
C1742 C1740 1.384 . S
C1742 C1743 1.372 . S
C1743 C1742 1.372 . S
C1743 C1744 1.400 . S
C1743 C1748 1.490 . S
C1744 H1734 0.930 . S
C1744 C1743 1.400 . S
C1744 C1747 1.386 . S
H1745 C1761 0.930 . S
H1746 C1762 0.931 . S
C1747 H1735 0.929 . S
C1747 C1741 1.390 . S
C1747 C1744 1.386 . S
C1748 C1743 1.490 . S
C1748 C1750 1.395 . S
C1748 C1751 1.403 . S
H1749 C1755 0.930 . S
C1750 H1736 0.930 . S
C1750 C1748 1.395 . S
C1750 C1753 1.403 . S
C1751 C1748 1.403 . S
C1751 C1752 1.524 . S
C1751 C1755 1.400 . S
C1752 H1737 0.960 . S
C1752 H1738 0.960 . S
C1752 H1739 0.960 . S
C1752 C1751 1.524 . S
C1753 C1750 1.403 . S
C1753 C1754 1.392 . S
C1753 C1757 1.495 . S
C1754 C1753 1.392 . S
C1754 C1755 1.385 . S
C1754 C1756 1.478 . S
C1755 H1749 0.930 . S
C1755 C1751 1.400 . S
C1755 C1754 1.385 . S
C1756 C1754 1.478 . S
C1756 C1758 1.381 . S
C1756 C1762 1.383 . S
C1757 C1753 1.495 . S
C1757 H1763 0.959 . S
C1757 H1764 0.961 . S
C1757 H1765 0.960 . S
C1758 C1756 1.381 . S
C1758 C1759 1.394 . S
C1758 H1766 0.930 . S
C1759 C1758 1.394 . S
C1759 C1760 1.383 . S
C1759 H1767 0.929 . S
C1760 C1759 1.383 . S
C1760 C1761 1.377 . S
C1761 H1745 0.930 . S
C1761 C1760 1.377 . S
C1761 C1762 1.379 . S
C1762 H1746 0.931 . S
C1762 C1756 1.383 . S
C1762 C1761 1.379 . S
H1763 C1757 0.959 . S
H1764 C1757 0.961 . S
H1765 C1757 0.960 . S
H1766 C1758 0.930 . S
H1767 C1759 0.929 . S
H1768 C1776 0.929 . S
H1769 C1778 0.930 . S
H1770 C1780 0.930 . S
H1771 C1783 0.929 . S
H1772 C1786 0.930 . S
H1773 C1788 0.960 . S
H1774 C1788 0.960 . S
H1775 C1788 0.960 . S
C1776 H1768 0.929 . S
C1776 C1777 1.377 . S
C1776 C1778 1.384 . S
C1777 C1776 1.377 . S
C1777 C1783 1.390 . S
C1778 H1769 0.930 . S
C1778 C1776 1.384 . S
C1778 C1779 1.372 . S
C1779 C1778 1.372 . S
C1779 C1780 1.400 . S
C1779 C1784 1.490 . S
C1780 H1770 0.930 . S
C1780 C1779 1.400 . S
C1780 C1783 1.386 . S
H1781 C1797 0.930 . S
H1782 C1798 0.931 . S
C1783 H1771 0.929 . S
C1783 C1777 1.390 . S
C1783 C1780 1.386 . S
C1784 C1779 1.490 . S
C1784 C1786 1.395 . S
C1784 C1787 1.403 . S
H1785 C1791 0.930 . S
C1786 H1772 0.930 . S
C1786 C1784 1.395 . S
C1786 C1789 1.403 . S
C1787 C1784 1.403 . S
C1787 C1788 1.524 . S
C1787 C1791 1.400 . S
C1788 H1773 0.960 . S
C1788 H1774 0.960 . S
C1788 H1775 0.960 . S
C1788 C1787 1.524 . S
C1789 C1786 1.403 . S
C1789 C1790 1.392 . S
C1789 C1793 1.495 . S
C1790 C1789 1.392 . S
C1790 C1791 1.385 . S
C1790 C1792 1.478 . S
C1791 H1785 0.930 . S
C1791 C1787 1.400 . S
C1791 C1790 1.385 . S
C1792 C1790 1.478 . S
C1792 C1794 1.381 . S
C1792 C1798 1.383 . S
C1793 C1789 1.495 . S
C1793 H1799 0.959 . S
C1793 H1800 0.961 . S
C1793 H1801 0.960 . S
C1794 C1792 1.381 . S
C1794 C1795 1.394 . S
C1794 H1802 0.930 . S
C1795 C1794 1.394 . S
C1795 C1796 1.383 . S
C1795 H1803 0.929 . S
C1796 C1795 1.383 . S
C1796 C1797 1.377 . S
C1797 H1781 0.930 . S
C1797 C1796 1.377 . S
C1797 C1798 1.379 . S
C1798 H1782 0.931 . S
C1798 C1792 1.383 . S
C1798 C1797 1.379 . S
H1799 C1793 0.959 . S
H1800 C1793 0.961 . S
H1801 C1793 0.960 . S
H1802 C1794 0.930 . S
H1803 C1795 0.929 . S
H1804 C1812 0.929 . S
H1805 C1814 0.930 . S
H1806 C1816 0.930 . S
H1807 C1819 0.929 . S
H1808 C1822 0.930 . S
H1809 C1824 0.960 . S
H1810 C1824 0.960 . S
H1811 C1824 0.960 . S
C1812 H1804 0.929 . S
C1812 C1813 1.377 . S
C1812 C1814 1.384 . S
C1813 C1812 1.377 . S
C1813 C1819 1.390 . S
C1814 H1805 0.930 . S
C1814 C1812 1.384 . S
C1814 C1815 1.372 . S
C1815 C1814 1.372 . S
C1815 C1816 1.400 . S
C1815 C1820 1.490 . S
C1816 H1806 0.930 . S
C1816 C1815 1.400 . S
C1816 C1819 1.386 . S
H1817 C1833 0.930 . S
H1818 C1834 0.931 . S
C1819 H1807 0.929 . S
C1819 C1813 1.390 . S
C1819 C1816 1.386 . S
C1820 C1815 1.490 . S
C1820 C1822 1.395 . S
C1820 C1823 1.403 . S
H1821 C1827 0.930 . S
C1822 H1808 0.930 . S
C1822 C1820 1.395 . S
C1822 C1825 1.403 . S
C1823 C1820 1.403 . S
C1823 C1824 1.524 . S
C1823 C1827 1.400 . S
C1824 H1809 0.960 . S
C1824 H1810 0.960 . S
C1824 H1811 0.960 . S
C1824 C1823 1.524 . S
C1825 C1822 1.403 . S
C1825 C1826 1.392 . S
C1825 C1829 1.495 . S
C1826 C1825 1.392 . S
C1826 C1827 1.385 . S
C1826 C1828 1.478 . S
C1827 H1821 0.930 . S
C1827 C1823 1.400 . S
C1827 C1826 1.385 . S
C1828 C1826 1.478 . S
C1828 C1830 1.381 . S
C1828 C1834 1.383 . S
C1829 C1825 1.495 . S
C1829 H1835 0.959 . S
C1829 H1836 0.961 . S
C1829 H1837 0.960 . S
C1830 C1828 1.381 . S
C1830 C1831 1.394 . S
C1830 H1838 0.930 . S
C1831 C1830 1.394 . S
C1831 C1832 1.383 . S
C1831 H1839 0.929 . S
C1832 C1831 1.383 . S
C1832 C1833 1.377 . S
C1833 H1817 0.930 . S
C1833 C1832 1.377 . S
C1833 C1834 1.379 . S
C1834 H1818 0.931 . S
C1834 C1828 1.383 . S
C1834 C1833 1.379 . S
H1835 C1829 0.959 . S
H1836 C1829 0.961 . S
H1837 C1829 0.960 . S
H1838 C1830 0.930 . S
H1839 C1831 0.929 . S
H1840 C1848 0.929 . S
H1841 C1850 0.930 . S
H1842 C1852 0.930 . S
H1843 C1855 0.929 . S
H1844 C1858 0.930 . S
H1845 C1860 0.960 . S
H1846 C1860 0.960 . S
H1847 C1860 0.960 . S
C1848 H1840 0.929 . S
C1848 C1849 1.377 . S
C1848 C1850 1.384 . S
C1849 C1848 1.377 . S
C1849 C1855 1.390 . S
C1850 H1841 0.930 . S
C1850 C1848 1.384 . S
C1850 C1851 1.372 . S
C1851 C1850 1.372 . S
C1851 C1852 1.400 . S
C1851 C1856 1.490 . S
C1852 H1842 0.930 . S
C1852 C1851 1.400 . S
C1852 C1855 1.386 . S
H1853 C1869 0.930 . S
H1854 C1870 0.931 . S
C1855 H1843 0.929 . S
C1855 C1849 1.390 . S
C1855 C1852 1.386 . S
C1856 C1851 1.490 . S
C1856 C1858 1.395 . S
C1856 C1859 1.403 . S
H1857 C1863 0.930 . S
C1858 H1844 0.930 . S
C1858 C1856 1.395 . S
C1858 C1861 1.403 . S
C1859 C1856 1.403 . S
C1859 C1860 1.524 . S
C1859 C1863 1.400 . S
C1860 H1845 0.960 . S
C1860 H1846 0.960 . S
C1860 H1847 0.960 . S
C1860 C1859 1.524 . S
C1861 C1858 1.403 . S
C1861 C1862 1.392 . S
C1861 C1865 1.495 . S
C1862 C1861 1.392 . S
C1862 C1863 1.385 . S
C1862 C1864 1.478 . S
C1863 H1857 0.930 . S
C1863 C1859 1.400 . S
C1863 C1862 1.385 . S
C1864 C1862 1.478 . S
C1864 C1866 1.381 . S
C1864 C1870 1.383 . S
C1865 C1861 1.495 . S
C1865 H1871 0.959 . S
C1865 H1872 0.961 . S
C1865 H1873 0.960 . S
C1866 C1864 1.381 . S
C1866 C1867 1.394 . S
C1866 H1874 0.930 . S
C1867 C1866 1.394 . S
C1867 C1868 1.383 . S
C1867 H1875 0.929 . S
C1868 C1867 1.383 . S
C1868 C1869 1.377 . S
C1869 H1853 0.930 . S
C1869 C1868 1.377 . S
C1869 C1870 1.379 . S
C1870 H1854 0.931 . S
C1870 C1864 1.383 . S
C1870 C1869 1.379 . S
H1871 C1865 0.959 . S
H1872 C1865 0.961 . S
H1873 C1865 0.960 . S
H1874 C1866 0.930 . S
H1875 C1867 0.929 . S
H1876 C1884 0.929 . S
H1877 C1886 0.930 . S
H1878 C1888 0.930 . S
H1879 C1891 0.929 . S
H1880 C1894 0.930 . S
H1881 C1896 0.960 . S
H1882 C1896 0.960 . S
H1883 C1896 0.960 . S
C1884 H1876 0.929 . S
C1884 C1885 1.377 . S
C1884 C1886 1.384 . S
C1885 C1884 1.377 . S
C1885 C1891 1.390 . S
C1886 H1877 0.930 . S
C1886 C1884 1.384 . S
C1886 C1887 1.372 . S
C1887 C1886 1.372 . S
C1887 C1888 1.400 . S
C1887 C1892 1.490 . S
C1888 H1878 0.930 . S
C1888 C1887 1.400 . S
C1888 C1891 1.386 . S
H1889 C1905 0.930 . S
H1890 C1906 0.931 . S
C1891 H1879 0.929 . S
C1891 C1885 1.390 . S
C1891 C1888 1.386 . S
C1892 C1887 1.490 . S
C1892 C1894 1.395 . S
C1892 C1895 1.403 . S
H1893 C1899 0.930 . S
C1894 H1880 0.930 . S
C1894 C1892 1.395 . S
C1894 C1897 1.403 . S
C1895 C1892 1.403 . S
C1895 C1896 1.524 . S
C1895 C1899 1.400 . S
C1896 H1881 0.960 . S
C1896 H1882 0.960 . S
C1896 H1883 0.960 . S
C1896 C1895 1.524 . S
C1897 C1894 1.403 . S
C1897 C1898 1.392 . S
C1897 C1901 1.495 . S
C1898 C1897 1.392 . S
C1898 C1899 1.385 . S
C1898 C1900 1.478 . S
C1899 H1893 0.930 . S
C1899 C1895 1.400 . S
C1899 C1898 1.385 . S
C1900 C1898 1.478 . S
C1900 C1902 1.381 . S
C1900 C1906 1.383 . S
C1901 C1897 1.495 . S
C1901 H1907 0.959 . S
C1901 H1908 0.961 . S
C1901 H1909 0.960 . S
C1902 C1900 1.381 . S
C1902 C1903 1.394 . S
C1902 H1910 0.930 . S
C1903 C1902 1.394 . S
C1903 C1904 1.383 . S
C1903 H1911 0.929 . S
C1904 C1903 1.383 . S
C1904 C1905 1.377 . S
C1905 H1889 0.930 . S
C1905 C1904 1.377 . S
C1905 C1906 1.379 . S
C1906 H1890 0.931 . S
C1906 C1900 1.383 . S
C1906 C1905 1.379 . S
H1907 C1901 0.959 . S
H1908 C1901 0.961 . S
H1909 C1901 0.960 . S
H1910 C1902 0.930 . S
H1911 C1903 0.929 . S
H1912 C1920 0.929 . S
H1913 C1922 0.930 . S
H1914 C1924 0.930 . S
H1915 C1927 0.929 . S
H1916 C1930 0.930 . S
H1917 C1932 0.960 . S
H1918 C1932 0.960 . S
H1919 C1932 0.960 . S
C1920 H1912 0.929 . S
C1920 C1921 1.377 . S
C1920 C1922 1.384 . S
C1921 C1920 1.377 . S
C1921 C1927 1.390 . S
C1922 H1913 0.930 . S
C1922 C1920 1.384 . S
C1922 C1923 1.372 . S
C1923 C1922 1.372 . S
C1923 C1924 1.400 . S
C1923 C1928 1.490 . S
C1924 H1914 0.930 . S
C1924 C1923 1.400 . S
C1924 C1927 1.386 . S
H1925 C1941 0.930 . S
H1926 C1942 0.931 . S
C1927 H1915 0.929 . S
C1927 C1921 1.390 . S
C1927 C1924 1.386 . S
C1928 C1923 1.490 . S
C1928 C1930 1.395 . S
C1928 C1931 1.403 . S
H1929 C1935 0.930 . S
C1930 H1916 0.930 . S
C1930 C1928 1.395 . S
C1930 C1933 1.403 . S
C1931 C1928 1.403 . S
C1931 C1932 1.524 . S
C1931 C1935 1.400 . S
C1932 H1917 0.960 . S
C1932 H1918 0.960 . S
C1932 H1919 0.960 . S
C1932 C1931 1.524 . S
C1933 C1930 1.403 . S
C1933 C1934 1.392 . S
C1933 C1937 1.495 . S
C1934 C1933 1.392 . S
C1934 C1935 1.385 . S
C1934 C1936 1.478 . S
C1935 H1929 0.930 . S
C1935 C1931 1.400 . S
C1935 C1934 1.385 . S
C1936 C1934 1.478 . S
C1936 C1938 1.381 . S
C1936 C1942 1.383 . S
C1937 C1933 1.495 . S
C1937 H1943 0.959 . S
C1937 H1944 0.961 . S
C1937 H1945 0.960 . S
C1938 C1936 1.381 . S
C1938 C1939 1.394 . S
C1938 H1946 0.930 . S
C1939 C1938 1.394 . S
C1939 C1940 1.383 . S
C1939 H1947 0.929 . S
C1940 C1939 1.383 . S
C1940 C1941 1.377 . S
C1941 H1925 0.930 . S
C1941 C1940 1.377 . S
C1941 C1942 1.379 . S
C1942 H1926 0.931 . S
C1942 C1936 1.383 . S
C1942 C1941 1.379 . S
H1943 C1937 0.959 . S
H1944 C1937 0.961 . S
H1945 C1937 0.960 . S
H1946 C1938 0.930 . S
H1947 C1939 0.929 . S
H1948 C1956 0.929 . S
H1949 C1958 0.930 . S
H1950 C1960 0.930 . S
H1951 C1963 0.929 . S
H1952 C1966 0.930 . S
H1953 C1968 0.960 . S
H1954 C1968 0.960 . S
H1955 C1968 0.960 . S
C1956 H1948 0.929 . S
C1956 C1957 1.377 . S
C1956 C1958 1.384 . S
C1957 C1956 1.377 . S
C1957 C1963 1.390 . S
C1958 H1949 0.930 . S
C1958 C1956 1.384 . S
C1958 C1959 1.372 . S
C1959 C1958 1.372 . S
C1959 C1960 1.400 . S
C1959 C1964 1.490 . S
C1960 H1950 0.930 . S
C1960 C1959 1.400 . S
C1960 C1963 1.386 . S
H1961 C1977 0.930 . S
H1962 C1978 0.931 . S
C1963 H1951 0.929 . S
C1963 C1957 1.390 . S
C1963 C1960 1.386 . S
C1964 C1959 1.490 . S
C1964 C1966 1.395 . S
C1964 C1967 1.403 . S
H1965 C1971 0.930 . S
C1966 H1952 0.930 . S
C1966 C1964 1.395 . S
C1966 C1969 1.403 . S
C1967 C1964 1.403 . S
C1967 C1968 1.524 . S
C1967 C1971 1.400 . S
C1968 H1953 0.960 . S
C1968 H1954 0.960 . S
C1968 H1955 0.960 . S
C1968 C1967 1.524 . S
C1969 C1966 1.403 . S
C1969 C1970 1.392 . S
C1969 C1973 1.495 . S
C1970 C1969 1.392 . S
C1970 C1971 1.385 . S
C1970 C1972 1.478 . S
C1971 H1965 0.930 . S
C1971 C1967 1.400 . S
C1971 C1970 1.385 . S
C1972 C1970 1.478 . S
C1972 C1974 1.381 . S
C1972 C1978 1.383 . S
C1973 C1969 1.495 . S
C1973 H1979 0.959 . S
C1973 H1980 0.961 . S
C1973 H1981 0.960 . S
C1974 C1972 1.381 . S
C1974 C1975 1.394 . S
C1974 H1982 0.930 . S
C1975 C1974 1.394 . S
C1975 C1976 1.383 . S
C1975 H1983 0.929 . S
C1976 C1975 1.383 . S
C1976 C1977 1.377 . S
C1977 H1961 0.930 . S
C1977 C1976 1.377 . S
C1977 C1978 1.379 . S
C1978 H1962 0.931 . S
C1978 C1972 1.383 . S
C1978 C1977 1.379 . S
H1979 C1973 0.959 . S
H1980 C1973 0.961 . S
H1981 C1973 0.960 . S
H1982 C1974 0.930 . S
H1983 C1975 0.929 . S
H1984 C1992 0.929 . S
H1985 C1994 0.930 . S
H1986 C1996 0.930 . S
H1987 C1999 0.929 . S
H1988 C2002 0.930 . S
H1989 C2004 0.960 . S
H1990 C2004 0.960 1_655 S
H1991 C2004 0.960 . S
C1992 H1984 0.929 . S
C1992 C1993 1.377 . S
C1992 C1994 1.384 . S
C1993 C1992 1.377 . S
C1993 C1999 1.390 . S
C1994 H1985 0.930 . S
C1994 C1992 1.384 . S
C1994 C1995 1.372 . S
C1995 C1994 1.372 . S
C1995 C1996 1.400 . S
C1995 C2000 1.490 . S
C1996 H1986 0.930 . S
C1996 C1995 1.400 . S
C1996 C1999 1.386 . S
H1997 C2013 0.930 . S
H1998 C2014 0.931 . S
C1999 H1987 0.929 . S
C1999 C1993 1.390 . S
C1999 C1996 1.386 . S
C2000 C1995 1.490 . S
C2000 C2002 1.395 . S
C2000 C2003 1.403 . S
H2001 C2007 0.930 . S
C2002 H1988 0.930 . S
C2002 C2000 1.395 . S
C2002 C2005 1.403 . S
C2003 C2000 1.403 . S
C2003 C2004 1.524 . S
C2003 C2007 1.400 . S
C2004 H1989 0.960 . S
C2004 H1990 0.960 1_455 S
C2004 H1991 0.960 . S
C2004 C2003 1.524 . S
C2005 C2002 1.403 . S
C2005 C2006 1.392 . S
C2005 C2009 1.495 . S
C2006 C2005 1.392 . S
C2006 C2007 1.385 . S
C2006 C2008 1.478 . S
C2007 H2001 0.930 . S
C2007 C2003 1.400 . S
C2007 C2006 1.385 . S
C2008 C2006 1.478 . S
C2008 C2010 1.381 . S
C2008 C2014 1.383 . S
C2009 C2005 1.495 . S
C2009 H2015 0.959 . S
C2009 H2016 0.961 . S
C2009 H2017 0.960 . S
C2010 C2008 1.381 . S
C2010 C2011 1.394 . S
C2010 H2018 0.930 . S
C2011 C2010 1.394 . S
C2011 C2012 1.383 . S
C2011 H2019 0.929 . S
C2012 C2011 1.383 . S
C2012 C2013 1.377 . S
C2013 H1997 0.930 . S
C2013 C2012 1.377 . S
C2013 C2014 1.379 . S
C2014 H1998 0.931 . S
C2014 C2008 1.383 . S
C2014 C2013 1.379 . S
H2015 C2009 0.959 . S
H2016 C2009 0.961 . S
H2017 C2009 0.960 . S
H2018 C2010 0.930 . S
H2019 C2011 0.929 . S
H2020 C2028 0.929 . S
H2021 C2030 0.930 . S
H2022 C2032 0.930 . S
H2023 C2035 0.929 . S
H2024 C2038 0.930 . S
H2025 C2040 0.960 . S
H2026 C2040 0.960 . S
H2027 C2040 0.960 . S
C2028 H2020 0.929 . S
C2028 C2029 1.377 . S
C2028 C2030 1.384 . S
C2029 C2028 1.377 . S
C2029 C2035 1.390 . S
C2030 H2021 0.930 . S
C2030 C2028 1.384 . S
C2030 C2031 1.372 . S
C2031 C2030 1.372 . S
C2031 C2032 1.400 . S
C2031 C2036 1.490 . S
C2032 H2022 0.930 . S
C2032 C2031 1.400 . S
C2032 C2035 1.386 . S
H2033 C2049 0.930 . S
H2034 C2050 0.931 . S
C2035 H2023 0.929 . S
C2035 C2029 1.390 . S
C2035 C2032 1.386 . S
C2036 C2031 1.490 . S
C2036 C2038 1.395 . S
C2036 C2039 1.403 . S
H2037 C2043 0.930 . S
C2038 H2024 0.930 . S
C2038 C2036 1.395 . S
C2038 C2041 1.403 . S
C2039 C2036 1.403 . S
C2039 C2040 1.524 . S
C2039 C2043 1.400 . S
C2040 H2025 0.960 . S
C2040 H2026 0.960 . S
C2040 H2027 0.960 . S
C2040 C2039 1.524 . S
C2041 C2038 1.403 . S
C2041 C2042 1.392 . S
C2041 C2045 1.495 . S
C2042 C2041 1.392 . S
C2042 C2043 1.385 . S
C2042 C2044 1.478 . S
C2043 H2037 0.930 . S
C2043 C2039 1.400 . S
C2043 C2042 1.385 . S
C2044 C2042 1.478 . S
C2044 C2046 1.381 . S
C2044 C2050 1.383 . S
C2045 C2041 1.495 . S
C2045 H2051 0.959 . S
C2045 H2052 0.961 . S
C2045 H2053 0.960 . S
C2046 C2044 1.381 . S
C2046 C2047 1.394 . S
C2046 H2054 0.930 . S
C2047 C2046 1.394 . S
C2047 C2048 1.383 . S
C2047 H2055 0.929 . S
C2048 C2047 1.383 . S
C2048 C2049 1.377 . S
C2049 H2033 0.930 . S
C2049 C2048 1.377 . S
C2049 C2050 1.379 . S
C2050 H2034 0.931 . S
C2050 C2044 1.383 . S
C2050 C2049 1.379 . S
H2051 C2045 0.959 . S
H2052 C2045 0.961 . S
H2053 C2045 0.960 . S
H2054 C2046 0.930 . S
H2055 C2047 0.929 . S
H2056 C2064 0.929 . S
H2057 C2066 0.930 . S
H2058 C2068 0.930 . S
H2059 C2071 0.929 . S
H2060 C2074 0.930 . S
H2061 C2076 0.960 . S
H2062 C2076 0.960 . S
H2063 C2076 0.960 . S
C2064 H2056 0.929 . S
C2064 C2065 1.377 . S
C2064 C2066 1.384 . S
C2065 C2064 1.377 . S
C2065 C2071 1.390 . S
C2066 H2057 0.930 . S
C2066 C2064 1.384 . S
C2066 C2067 1.372 . S
C2067 C2066 1.372 . S
C2067 C2068 1.400 . S
C2067 C2072 1.490 . S
C2068 H2058 0.930 . S
C2068 C2067 1.400 . S
C2068 C2071 1.386 . S
H2069 C2085 0.930 . S
H2070 C2086 0.931 . S
C2071 H2059 0.929 . S
C2071 C2065 1.390 . S
C2071 C2068 1.386 . S
C2072 C2067 1.490 . S
C2072 C2074 1.395 . S
C2072 C2075 1.403 . S
H2073 C2079 0.930 . S
C2074 H2060 0.930 . S
C2074 C2072 1.395 . S
C2074 C2077 1.403 . S
C2075 C2072 1.403 . S
C2075 C2076 1.524 . S
C2075 C2079 1.400 . S
C2076 H2061 0.960 . S
C2076 H2062 0.960 . S
C2076 H2063 0.960 . S
C2076 C2075 1.524 . S
C2077 C2074 1.403 . S
C2077 C2078 1.392 . S
C2077 C2081 1.495 . S
C2078 C2077 1.392 . S
C2078 C2079 1.385 . S
C2078 C2080 1.478 . S
C2079 H2073 0.930 . S
C2079 C2075 1.400 . S
C2079 C2078 1.385 . S
C2080 C2078 1.478 . S
C2080 C2082 1.381 . S
C2080 C2086 1.383 . S
C2081 C2077 1.495 . S
C2081 H2087 0.959 . S
C2081 H2088 0.961 . S
C2081 H2089 0.960 . S
C2082 C2080 1.381 . S
C2082 C2083 1.394 1_556 S
C2082 H2090 0.930 . S
C2083 C2082 1.394 1_554 S
C2083 C2084 1.383 . S
C2083 H2091 0.929 . S
C2084 C2083 1.383 . S
C2084 C2085 1.377 1_554 S
C2085 H2069 0.930 . S
C2085 C2084 1.377 1_556 S
C2085 C2086 1.379 . S
C2086 H2070 0.931 . S
C2086 C2080 1.383 . S
C2086 C2085 1.379 . S
H2087 C2081 0.959 . S
H2088 C2081 0.961 . S
H2089 C2081 0.960 . S
H2090 C2082 0.930 . S
H2091 C2083 0.929 . S
H2092 C2100 0.929 . S
H2093 C2102 0.930 . S
H2094 C2104 0.930 . S
H2095 C2107 0.929 . S
H2096 C2110 0.930 . S
H2097 C2112 0.960 . S
H2098 C2112 0.960 . S
H2099 C2112 0.960 . S
C2100 H2092 0.929 . S
C2100 C2101 1.377 . S
C2100 C2102 1.384 . S
C2101 C2100 1.377 . S
C2101 C2107 1.390 . S
C2102 H2093 0.930 . S
C2102 C2100 1.384 . S
C2102 C2103 1.372 . S
C2103 C2102 1.372 . S
C2103 C2104 1.400 . S
C2103 C2108 1.490 . S
C2104 H2094 0.930 . S
C2104 C2103 1.400 . S
C2104 C2107 1.386 . S
H2105 C2121 0.930 . S
H2106 C2122 0.931 . S
C2107 H2095 0.929 . S
C2107 C2101 1.390 . S
C2107 C2104 1.386 . S
C2108 C2103 1.490 . S
C2108 C2110 1.395 . S
C2108 C2111 1.403 . S
H2109 C2115 0.930 . S
C2110 H2096 0.930 . S
C2110 C2108 1.395 . S
C2110 C2113 1.403 . S
C2111 C2108 1.403 . S
C2111 C2112 1.524 . S
C2111 C2115 1.400 . S
C2112 H2097 0.960 . S
C2112 H2098 0.960 . S
C2112 H2099 0.960 . S
C2112 C2111 1.524 . S
C2113 C2110 1.403 . S
C2113 C2114 1.392 . S
C2113 C2117 1.495 . S
C2114 C2113 1.392 . S
C2114 C2115 1.385 . S
C2114 C2116 1.478 . S
C2115 H2109 0.930 . S
C2115 C2111 1.400 . S
C2115 C2114 1.385 . S
C2116 C2114 1.478 . S
C2116 C2118 1.381 . S
C2116 C2122 1.383 . S
C2117 C2113 1.495 . S
C2117 H2123 0.959 . S
C2117 H2124 0.961 . S
C2117 H2125 0.960 . S
C2118 C2116 1.381 . S
C2118 C2119 1.394 . S
C2118 H2126 0.930 . S
C2119 C2118 1.394 . S
C2119 C2120 1.383 . S
C2119 H2127 0.929 . S
C2120 C2119 1.383 . S
C2120 C2121 1.377 . S
C2121 H2105 0.930 . S
C2121 C2120 1.377 . S
C2121 C2122 1.379 . S
C2122 H2106 0.931 . S
C2122 C2116 1.383 . S
C2122 C2121 1.379 . S
H2123 C2117 0.959 . S
H2124 C2117 0.961 . S
H2125 C2117 0.960 . S
H2126 C2118 0.930 . S
H2127 C2119 0.929 . S
H2128 C2136 0.929 . S
H2129 C2138 0.930 . S
H2130 C2140 0.930 . S
H2131 C2143 0.929 . S
H2132 C2146 0.930 . S
H2133 C2148 0.960 . S
H2134 C2148 0.960 . S
H2135 C2148 0.960 . S
C2136 H2128 0.929 . S
C2136 C2137 1.377 . S
C2136 C2138 1.384 . S
C2137 C2136 1.377 . S
C2137 C2143 1.390 . S
C2138 H2129 0.930 . S
C2138 C2136 1.384 . S
C2138 C2139 1.372 . S
C2139 C2138 1.372 . S
C2139 C2140 1.400 . S
C2139 C2144 1.490 . S
C2140 H2130 0.930 . S
C2140 C2139 1.400 . S
C2140 C2143 1.386 . S
H2141 C2157 0.930 . S
H2142 C2158 0.931 . S
C2143 H2131 0.929 . S
C2143 C2137 1.390 . S
C2143 C2140 1.386 . S
C2144 C2139 1.490 . S
C2144 C2146 1.395 . S
C2144 C2147 1.403 . S
H2145 C2151 0.930 . S
C2146 H2132 0.930 . S
C2146 C2144 1.395 . S
C2146 C2149 1.403 . S
C2147 C2144 1.403 . S
C2147 C2148 1.524 . S
C2147 C2151 1.400 . S
C2148 H2133 0.960 . S
C2148 H2134 0.960 . S
C2148 H2135 0.960 . S
C2148 C2147 1.524 . S
C2149 C2146 1.403 . S
C2149 C2150 1.392 . S
C2149 C2153 1.495 . S
C2150 C2149 1.392 . S
C2150 C2151 1.385 . S
C2150 C2152 1.478 . S
C2151 H2145 0.930 . S
C2151 C2147 1.400 . S
C2151 C2150 1.385 . S
C2152 C2150 1.478 . S
C2152 C2154 1.381 . S
C2152 C2158 1.383 . S
C2153 C2149 1.495 . S
C2153 H2159 0.959 . S
C2153 H2160 0.961 . S
C2153 H2161 0.960 . S
C2154 C2152 1.381 . S
C2154 C2155 1.394 . S
C2154 H2162 0.930 . S
C2155 C2154 1.394 . S
C2155 C2156 1.383 . S
C2155 H2163 0.929 . S
C2156 C2155 1.383 . S
C2156 C2157 1.377 . S
C2157 H2141 0.930 . S
C2157 C2156 1.377 . S
C2157 C2158 1.379 . S
C2158 H2142 0.931 . S
C2158 C2152 1.383 . S
C2158 C2157 1.379 . S
H2159 C2153 0.959 . S
H2160 C2153 0.961 . S
H2161 C2153 0.960 . S
H2162 C2154 0.930 . S
H2163 C2155 0.929 . S
H2164 C2172 0.929 . S
H2165 C2174 0.930 . S
H2166 C2176 0.930 . S
H2167 C2179 0.929 . S
H2168 C2182 0.930 . S
H2169 C2184 0.960 . S
H2170 C2184 0.960 . S
H2171 C2184 0.960 . S
C2172 H2164 0.929 . S
C2172 C2173 1.377 . S
C2172 C2174 1.384 . S
C2173 C2172 1.377 . S
C2173 C2179 1.390 . S
C2174 H2165 0.930 . S
C2174 C2172 1.384 . S
C2174 C2175 1.372 . S
C2175 C2174 1.372 . S
C2175 C2176 1.400 . S
C2175 C2180 1.490 . S
C2176 H2166 0.930 . S
C2176 C2175 1.400 . S
C2176 C2179 1.386 . S
H2177 C2193 0.930 . S
H2178 C2194 0.931 . S
C2179 H2167 0.929 . S
C2179 C2173 1.390 . S
C2179 C2176 1.386 . S
C2180 C2175 1.490 . S
C2180 C2182 1.395 . S
C2180 C2183 1.403 . S
H2181 C2187 0.930 . S
C2182 H2168 0.930 . S
C2182 C2180 1.395 . S
C2182 C2185 1.403 . S
C2183 C2180 1.403 . S
C2183 C2184 1.524 . S
C2183 C2187 1.400 . S
C2184 H2169 0.960 . S
C2184 H2170 0.960 . S
C2184 H2171 0.960 . S
C2184 C2183 1.524 . S
C2185 C2182 1.403 . S
C2185 C2186 1.392 . S
C2185 C2189 1.495 . S
C2186 C2185 1.392 . S
C2186 C2187 1.385 . S
C2186 C2188 1.478 . S
C2187 H2181 0.930 . S
C2187 C2183 1.400 . S
C2187 C2186 1.385 . S
C2188 C2186 1.478 . S
C2188 C2190 1.381 . S
C2188 C2194 1.383 . S
C2189 C2185 1.495 . S
C2189 H2195 0.959 . S
C2189 H2196 0.961 . S
C2189 H2197 0.960 . S
C2190 C2188 1.381 . S
C2190 C2191 1.394 . S
C2190 H2198 0.930 . S
C2191 C2190 1.394 . S
C2191 C2192 1.383 . S
C2191 H2199 0.929 . S
C2192 C2191 1.383 . S
C2192 C2193 1.377 . S
C2193 H2177 0.930 . S
C2193 C2192 1.377 . S
C2193 C2194 1.379 . S
C2194 H2178 0.931 . S
C2194 C2188 1.383 . S
C2194 C2193 1.379 . S
H2195 C2189 0.959 . S
H2196 C2189 0.961 . S
H2197 C2189 0.960 . S
H2198 C2190 0.930 . S
H2199 C2191 0.929 . S
H2200 C2208 0.929 . S
H2201 C2210 0.930 . S
H2202 C2212 0.930 . S
H2203 C2215 0.929 . S
H2204 C2218 0.930 . S
H2205 C2220 0.960 . S
H2206 C2220 0.960 . S
H2207 C2220 0.960 . S
C2208 H2200 0.929 . S
C2208 C2209 1.377 . S
C2208 C2210 1.384 . S
C2209 C2208 1.377 . S
C2209 C2215 1.390 . S
C2210 H2201 0.930 . S
C2210 C2208 1.384 . S
C2210 C2211 1.372 . S
C2211 C2210 1.372 . S
C2211 C2212 1.400 . S
C2211 C2216 1.490 . S
C2212 H2202 0.930 . S
C2212 C2211 1.400 . S
C2212 C2215 1.386 . S
H2213 C2229 0.930 . S
H2214 C2230 0.931 . S
C2215 H2203 0.929 . S
C2215 C2209 1.390 . S
C2215 C2212 1.386 . S
C2216 C2211 1.490 . S
C2216 C2218 1.395 . S
C2216 C2219 1.403 . S
H2217 C2223 0.930 . S
C2218 H2204 0.930 . S
C2218 C2216 1.395 . S
C2218 C2221 1.403 . S
C2219 C2216 1.403 . S
C2219 C2220 1.524 . S
C2219 C2223 1.400 . S
C2220 H2205 0.960 . S
C2220 H2206 0.960 . S
C2220 H2207 0.960 . S
C2220 C2219 1.524 . S
C2221 C2218 1.403 . S
C2221 C2222 1.392 . S
C2221 C2225 1.495 . S
C2222 C2221 1.392 . S
C2222 C2223 1.385 . S
C2222 C2224 1.478 . S
C2223 H2217 0.930 . S
C2223 C2219 1.400 . S
C2223 C2222 1.385 . S
C2224 C2222 1.478 . S
C2224 C2226 1.381 . S
C2224 C2230 1.383 . S
C2225 C2221 1.495 . S
C2225 H2231 0.959 . S
C2225 H2232 0.961 . S
C2225 H2233 0.960 . S
C2226 C2224 1.381 . S
C2226 C2227 1.394 . S
C2226 H2234 0.930 . S
C2227 C2226 1.394 . S
C2227 C2228 1.383 . S
C2227 H2235 0.929 . S
C2228 C2227 1.383 . S
C2228 C2229 1.377 . S
C2229 H2213 0.930 . S
C2229 C2228 1.377 . S
C2229 C2230 1.379 . S
C2230 H2214 0.931 . S
C2230 C2224 1.383 . S
C2230 C2229 1.379 . S
H2231 C2225 0.959 . S
H2232 C2225 0.961 . S
H2233 C2225 0.960 . S
H2234 C2226 0.930 . S
H2235 C2227 0.929 . S
H2236 C2244 0.929 . S
H2237 C2246 0.930 . S
H2238 C2248 0.930 . S
H2239 C2251 0.929 . S
H2240 C2254 0.930 . S
H2241 C2256 0.960 . S
H2242 C2256 0.960 . S
H2243 C2256 0.960 . S
C2244 H2236 0.929 . S
C2244 C2245 1.377 . S
C2244 C2246 1.384 . S
C2245 C2244 1.377 . S
C2245 C2251 1.390 . S
C2246 H2237 0.930 . S
C2246 C2244 1.384 . S
C2246 C2247 1.372 . S
C2247 C2246 1.372 . S
C2247 C2248 1.400 . S
C2247 C2252 1.490 . S
C2248 H2238 0.930 . S
C2248 C2247 1.400 . S
C2248 C2251 1.386 . S
H2249 C2265 0.930 . S
H2250 C2266 0.931 . S
C2251 H2239 0.929 . S
C2251 C2245 1.390 . S
C2251 C2248 1.386 . S
C2252 C2247 1.490 . S
C2252 C2254 1.395 . S
C2252 C2255 1.403 . S
H2253 C2259 0.930 . S
C2254 H2240 0.930 . S
C2254 C2252 1.395 . S
C2254 C2257 1.403 . S
C2255 C2252 1.403 . S
C2255 C2256 1.524 . S
C2255 C2259 1.400 . S
C2256 H2241 0.960 . S
C2256 H2242 0.960 . S
C2256 H2243 0.960 . S
C2256 C2255 1.524 . S
C2257 C2254 1.403 . S
C2257 C2258 1.392 . S
C2257 C2261 1.495 . S
C2258 C2257 1.392 . S
C2258 C2259 1.385 . S
C2258 C2260 1.478 . S
C2259 H2253 0.930 . S
C2259 C2255 1.400 . S
C2259 C2258 1.385 . S
C2260 C2258 1.478 . S
C2260 C2262 1.381 . S
C2260 C2266 1.383 . S
C2261 C2257 1.495 . S
C2261 H2267 0.959 . S
C2261 H2268 0.961 . S
C2261 H2269 0.960 . S
C2262 C2260 1.381 . S
C2262 C2263 1.394 . S
C2262 H2270 0.930 . S
C2263 C2262 1.394 . S
C2263 C2264 1.383 . S
C2263 H2271 0.929 . S
C2264 C2263 1.383 . S
C2264 C2265 1.377 . S
C2265 H2249 0.930 . S
C2265 C2264 1.377 . S
C2265 C2266 1.379 . S
C2266 H2250 0.931 . S
C2266 C2260 1.383 . S
C2266 C2265 1.379 . S
H2267 C2261 0.959 . S
H2268 C2261 0.961 . S
H2269 C2261 0.960 . S
H2270 C2262 0.930 . S
H2271 C2263 0.929 . S
H2272 C2280 0.929 . S
H2273 C2282 0.930 . S
H2274 C2284 0.930 . S
H2275 C2287 0.929 . S
H2276 C2290 0.930 . S
H2277 C2292 0.960 . S
H2278 C2292 0.960 . S
H2279 C2292 0.960 . S
C2280 H2272 0.929 . S
C2280 C2281 1.377 . S
C2280 C2282 1.384 . S
C2281 C2280 1.377 . S
C2281 C2287 1.390 . S
C2282 H2273 0.930 . S
C2282 C2280 1.384 . S
C2282 C2283 1.372 . S
C2283 C2282 1.372 . S
C2283 C2284 1.400 . S
C2283 C2288 1.490 . S
C2284 H2274 0.930 . S
C2284 C2283 1.400 . S
C2284 C2287 1.386 . S
H2285 C2301 0.930 . S
H2286 C2302 0.931 . S
C2287 H2275 0.929 . S
C2287 C2281 1.390 . S
C2287 C2284 1.386 . S
C2288 C2283 1.490 . S
C2288 C2290 1.395 . S
C2288 C2291 1.403 . S
H2289 C2295 0.930 . S
C2290 H2276 0.930 . S
C2290 C2288 1.395 . S
C2290 C2293 1.403 . S
C2291 C2288 1.403 . S
C2291 C2292 1.524 . S
C2291 C2295 1.400 . S
C2292 H2277 0.960 . S
C2292 H2278 0.960 . S
C2292 H2279 0.960 . S
C2292 C2291 1.524 . S
C2293 C2290 1.403 . S
C2293 C2294 1.392 . S
C2293 C2297 1.495 . S
C2294 C2293 1.392 . S
C2294 C2295 1.385 . S
C2294 C2296 1.478 . S
C2295 H2289 0.930 . S
C2295 C2291 1.400 . S
C2295 C2294 1.385 . S
C2296 C2294 1.478 . S
C2296 C2298 1.381 . S
C2296 C2302 1.383 . S
C2297 C2293 1.495 . S
C2297 H2303 0.959 . S
C2297 H2304 0.924 1_545 S
C2297 H2305 0.960 . S
C2298 C2296 1.381 . S
C2298 C2299 1.394 . S
C2298 H2306 0.930 . S
C2299 C2298 1.394 . S
C2299 C2300 1.383 . S
C2299 H2307 0.929 . S
C2300 C2299 1.383 . S
C2300 C2301 1.377 . S
C2301 H2285 0.930 . S
C2301 C2300 1.377 . S
C2301 C2302 1.379 . S
C2302 H2286 0.931 . S
C2302 C2296 1.383 . S
C2302 C2301 1.379 . S
H2303 C2297 0.959 . S
H2304 C2297 0.924 1_565 S
H2305 C2297 0.960 . S
H2306 C2298 0.930 . S
H2307 C2299 0.929 . S
H2308 C2316 0.929 . S
H2309 C2318 0.930 . S
H2310 C2320 0.930 . S
H2311 C2323 0.929 . S
H2312 C2326 0.930 . S
H2313 C2328 0.960 . S
H2314 C2328 0.960 . S
H2315 C2328 0.960 . S
C2316 H2308 0.929 . S
C2316 C2317 1.377 . S
C2316 C2318 1.384 . S
C2317 C2316 1.377 . S
C2317 C2323 1.390 . S
C2318 H2309 0.930 . S
C2318 C2316 1.384 . S
C2318 C2319 1.372 . S
C2319 C2318 1.372 . S
C2319 C2320 1.400 . S
C2319 C2324 1.490 . S
C2320 H2310 0.930 . S
C2320 C2319 1.400 . S
C2320 C2323 1.386 . S
H2321 C2337 0.930 . S
H2322 C2338 0.931 . S
C2323 H2311 0.929 . S
C2323 C2317 1.390 . S
C2323 C2320 1.386 . S
C2324 C2319 1.490 . S
C2324 C2326 1.395 . S
C2324 C2327 1.403 . S
H2325 C2331 0.930 . S
C2326 H2312 0.930 . S
C2326 C2324 1.395 . S
C2326 C2329 1.403 . S
C2327 C2324 1.403 . S
C2327 C2328 1.524 . S
C2327 C2331 1.400 . S
C2328 H2313 0.960 . S
C2328 H2314 0.960 . S
C2328 H2315 0.960 . S
C2328 C2327 1.524 . S
C2329 C2326 1.403 . S
C2329 C2330 1.392 . S
C2329 C2333 1.495 . S
C2330 C2329 1.392 . S
C2330 C2331 1.385 . S
C2330 C2332 1.478 . S
C2331 H2325 0.930 . S
C2331 C2327 1.400 . S
C2331 C2330 1.385 . S
C2332 C2330 1.478 . S
C2332 C2334 1.381 . S
C2332 C2338 1.383 . S
C2333 C2329 1.495 . S
C2333 H2339 0.959 . S
C2333 H2340 0.961 . S
C2333 H2341 0.960 . S
C2334 C2332 1.381 . S
C2334 C2335 1.394 . S
C2334 H2342 0.930 . S
C2335 C2334 1.394 . S
C2335 C2336 1.383 . S
C2335 H2343 0.929 . S
C2336 C2335 1.383 . S
C2336 C2337 1.377 . S
C2337 H2321 0.930 . S
C2337 C2336 1.377 . S
C2337 C2338 1.379 . S
C2338 H2322 0.931 . S
C2338 C2332 1.383 . S
C2338 C2337 1.379 . S
H2339 C2333 0.959 . S
H2340 C2333 0.961 . S
H2341 C2333 0.960 . S
H2342 C2334 0.930 . S
H2343 C2335 0.929 . S
H2344 C2352 0.929 . S
H2345 C2354 0.930 . S
H2346 C2356 0.930 . S
H2347 C2359 0.929 . S
H2348 C2362 0.930 . S
H2349 C2364 0.960 . S
H2350 C2364 0.960 . S
H2351 C2364 0.960 . S
C2352 H2344 0.929 . S
C2352 C2353 1.377 . S
C2352 C2354 1.384 . S
C2353 C2352 1.377 . S
C2353 C2359 1.390 . S
C2354 H2345 0.930 . S
C2354 C2352 1.384 . S
C2354 C2355 1.372 . S
C2355 C2354 1.372 . S
C2355 C2356 1.400 . S
C2355 C2360 1.490 . S
C2356 H2346 0.930 . S
C2356 C2355 1.400 . S
C2356 C2359 1.386 . S
H2357 C2373 0.930 . S
H2358 C2374 0.931 . S
C2359 H2347 0.929 . S
C2359 C2353 1.390 . S
C2359 C2356 1.386 . S
C2360 C2355 1.490 . S
C2360 C2362 1.395 . S
C2360 C2363 1.403 . S
H2361 C2367 0.930 . S
C2362 H2348 0.930 . S
C2362 C2360 1.395 . S
C2362 C2365 1.403 . S
C2363 C2360 1.403 . S
C2363 C2364 1.524 . S
C2363 C2367 1.400 . S
C2364 H2349 0.960 . S
C2364 H2350 0.960 . S
C2364 H2351 0.960 . S
C2364 C2363 1.524 . S
C2365 C2362 1.403 . S
C2365 C2366 1.392 . S
C2365 C2369 1.495 . S
C2366 C2365 1.392 . S
C2366 C2367 1.385 . S
C2366 C2368 1.478 . S
C2367 H2361 0.930 . S
C2367 C2363 1.400 . S
C2367 C2366 1.385 . S
C2368 C2366 1.478 . S
C2368 C2370 1.381 1_545 S
C2368 C2374 1.383 . S
C2369 C2365 1.495 . S
C2369 H2375 0.959 . S
C2369 H2376 0.961 . S
C2369 H2377 0.960 . S
C2370 C2368 1.381 1_565 S
C2370 C2371 1.394 . S
C2370 H2378 0.930 . S
C2371 C2370 1.394 . S
C2371 C2372 1.397 . S
C2371 H2379 0.929 . S
C2372 C2371 1.397 . S
C2372 C2373 1.352 1_565 S
C2373 H2357 0.930 . S
C2373 C2372 1.352 1_545 S
C2373 C2374 1.379 . S
C2374 H2358 0.931 . S
C2374 C2368 1.383 . S
C2374 C2373 1.379 . S
H2375 C2369 0.959 . S
H2376 C2369 0.961 . S
H2377 C2369 0.960 . S
H2378 C2370 0.930 . S
H2379 C2371 0.929 . S
H2380 C2388 0.929 . S
H2381 C2390 0.930 . S
H2382 C2392 0.930 . S
H2383 C2395 0.929 . S
H2384 C2398 0.930 . S
H2385 C2400 0.960 . S
H2386 C2400 0.960 . S
H2387 C2400 0.960 . S
C2388 H2380 0.929 . S
C2388 C2389 1.377 . S
C2388 C2390 1.384 . S
C2389 C2388 1.377 . S
C2389 C2395 1.390 . S
C2390 H2381 0.930 . S
C2390 C2388 1.384 . S
C2390 C2391 1.372 . S
C2391 C2390 1.372 . S
C2391 C2392 1.400 . S
C2391 C2396 1.490 . S
C2392 H2382 0.930 . S
C2392 C2391 1.400 . S
C2392 C2395 1.386 . S
H2393 C2409 0.930 . S
H2394 C2410 0.931 . S
C2395 H2383 0.929 . S
C2395 C2389 1.390 . S
C2395 C2392 1.386 . S
C2396 C2391 1.490 . S
C2396 C2398 1.395 . S
C2396 C2399 1.403 . S
H2397 C2403 0.930 . S
C2398 H2384 0.930 . S
C2398 C2396 1.395 . S
C2398 C2401 1.403 . S
C2399 C2396 1.403 . S
C2399 C2400 1.524 . S
C2399 C2403 1.400 . S
C2400 H2385 0.960 . S
C2400 H2386 0.960 . S
C2400 H2387 0.960 . S
C2400 C2399 1.524 . S
C2401 C2398 1.403 . S
C2401 C2402 1.392 . S
C2401 C2405 1.495 . S
C2402 C2401 1.392 . S
C2402 C2403 1.385 . S
C2402 C2404 1.478 . S
C2403 H2397 0.930 . S
C2403 C2399 1.400 . S
C2403 C2402 1.385 . S
C2404 C2402 1.478 . S
C2404 C2406 1.381 . S
C2404 C2410 1.383 . S
C2405 C2401 1.495 . S
C2405 H2411 0.959 . S
C2405 H2412 0.961 . S
C2405 H2413 0.960 . S
C2406 C2404 1.381 . S
C2406 C2407 1.394 . S
C2406 H2414 0.930 . S
C2407 C2406 1.394 . S
C2407 C2408 1.383 . S
C2407 H2415 0.929 . S
C2408 C2407 1.383 . S
C2408 C2409 1.377 . S
C2409 H2393 0.930 . S
C2409 C2408 1.377 . S
C2409 C2410 1.379 . S
C2410 H2394 0.931 . S
C2410 C2404 1.383 . S
C2410 C2409 1.379 . S
H2411 C2405 0.959 . S
H2412 C2405 0.961 . S
H2413 C2405 0.960 . S
H2414 C2406 0.930 . S
H2415 C2407 0.929 . S
H2416 C2424 0.929 . S
H2417 C2426 0.930 . S
H2418 C2428 0.930 . S
H2419 C2431 0.929 . S
H2420 C2434 0.930 . S
H2421 C2436 0.960 . S
H2422 C2436 0.960 . S
H2423 C2436 0.960 . S
C2424 H2416 0.929 . S
C2424 C2425 1.377 1_556 S
C2424 C2426 1.384 . S
C2425 C2424 1.377 1_554 S
C2425 C2431 1.390 . S
C2426 H2417 0.930 . S
C2426 C2424 1.384 . S
C2426 C2427 1.372 1_556 S
C2427 C2426 1.372 1_554 S
C2427 C2428 1.400 . S
C2427 C2432 1.490 . S
C2428 H2418 0.930 . S
C2428 C2427 1.400 . S
C2428 C2431 1.386 . S
H2429 C2445 0.930 . S
H2430 C2446 0.931 . S
C2431 H2419 0.929 . S
C2431 C2425 1.390 . S
C2431 C2428 1.386 . S
C2432 C2427 1.490 . S
C2432 C2434 1.395 1_554 S
C2432 C2435 1.403 . S
H2433 C2439 0.930 . S
C2434 H2420 0.930 . S
C2434 C2432 1.395 1_556 S
C2434 C2437 1.403 . S
C2435 C2432 1.403 . S
C2435 C2436 1.524 . S
C2435 C2439 1.400 . S
C2436 H2421 0.960 . S
C2436 H2422 0.960 . S
C2436 H2423 0.960 . S
C2436 C2435 1.524 . S
C2437 C2434 1.403 . S
C2437 C2438 1.392 . S
C2437 C2441 1.495 . S
C2438 C2437 1.392 . S
C2438 C2439 1.385 1_556 S
C2438 C2440 1.478 . S
C2439 H2433 0.930 . S
C2439 C2435 1.400 . S
C2439 C2438 1.385 1_554 S
C2440 C2438 1.478 . S
C2440 C2442 1.381 . S
C2440 C2446 1.383 1_556 S
C2441 C2437 1.495 . S
C2441 H2447 0.959 . S
C2441 H2448 0.961 . S
C2441 H2449 0.960 . S
C2442 C2440 1.381 . S
C2442 C2443 1.394 . S
C2442 H2450 0.930 . S
C2443 C2442 1.394 . S
C2443 C2444 1.383 . S
C2443 H2451 0.929 . S
C2444 C2443 1.383 . S
C2444 C2445 1.377 1_556 S
C2445 H2429 0.930 . S
C2445 C2444 1.377 1_554 S
C2445 C2446 1.379 . S
C2446 H2430 0.931 . S
C2446 C2440 1.383 1_554 S
C2446 C2445 1.379 . S
H2447 C2441 0.959 . S
H2448 C2441 0.961 . S
H2449 C2441 0.960 . S
H2450 C2442 0.930 . S
H2451 C2443 0.929 . S
H2452 C2460 0.929 . S
H2453 C2462 0.930 . S
H2454 C2464 0.930 . S
H2455 C2467 0.929 . S
H2456 C2470 0.930 . S
H2457 C2472 0.960 . S
H2458 C2472 0.960 . S
H2459 C2472 0.960 . S
C2460 H2452 0.929 . S
C2460 C2461 1.377 . S
C2460 C2462 1.384 . S
C2461 C2460 1.377 . S
C2461 C2467 1.390 . S
C2462 H2453 0.930 . S
C2462 C2460 1.384 . S
C2462 C2463 1.372 . S
C2463 C2462 1.372 . S
C2463 C2464 1.400 . S
C2463 C2468 1.490 . S
C2464 H2454 0.930 . S
C2464 C2463 1.400 . S
C2464 C2467 1.386 . S
H2465 C2481 0.930 . S
H2466 C2482 0.931 . S
C2467 H2455 0.929 . S
C2467 C2461 1.390 . S
C2467 C2464 1.386 . S
C2468 C2463 1.490 . S
C2468 C2470 1.395 . S
C2468 C2471 1.403 . S
H2469 C2475 0.930 . S
C2470 H2456 0.930 . S
C2470 C2468 1.395 . S
C2470 C2473 1.403 . S
C2471 C2468 1.403 . S
C2471 C2472 1.524 . S
C2471 C2475 1.400 . S
C2472 H2457 0.960 . S
C2472 H2458 0.960 . S
C2472 H2459 0.960 . S
C2472 C2471 1.524 . S
C2473 C2470 1.403 . S
C2473 C2474 1.392 . S
C2473 C2477 1.495 . S
C2474 C2473 1.392 . S
C2474 C2475 1.385 . S
C2474 C2476 1.478 . S
C2475 H2469 0.930 . S
C2475 C2471 1.400 . S
C2475 C2474 1.385 . S
C2476 C2474 1.478 . S
C2476 C2478 1.381 . S
C2476 C2482 1.383 . S
C2477 C2473 1.495 . S
C2477 H2483 0.959 . S
C2477 H2484 0.961 . S
C2477 H2485 0.960 . S
C2478 C2476 1.381 . S
C2478 C2479 1.394 . S
C2478 H2486 0.930 . S
C2479 C2478 1.394 . S
C2479 C2480 1.383 . S
C2479 H2487 0.929 . S
C2480 C2479 1.383 . S
C2480 C2481 1.377 . S
C2481 H2465 0.930 . S
C2481 C2480 1.377 . S
C2481 C2482 1.379 . S
C2482 H2466 0.931 . S
C2482 C2476 1.383 . S
C2482 C2481 1.379 . S
H2483 C2477 0.959 . S
H2484 C2477 0.961 . S
H2485 C2477 0.960 . S
H2486 C2478 0.930 . S
H2487 C2479 0.929 . S
H2488 C2496 0.929 . S
H2489 C2498 0.930 . S
H2490 C2500 0.930 . S
H2491 C2503 0.929 . S
H2492 C2506 0.930 . S
H2493 C2508 0.960 . S
H2494 C2508 0.960 . S
H2495 C2508 0.960 . S
C2496 H2488 0.929 . S
C2496 C2497 1.377 . S
C2496 C2498 1.384 . S
C2497 C2496 1.377 . S
C2497 C2503 1.390 . S
C2498 H2489 0.930 . S
C2498 C2496 1.384 . S
C2498 C2499 1.372 . S
C2499 C2498 1.372 . S
C2499 C2500 1.400 . S
C2499 C2504 1.490 . S
C2500 H2490 0.930 . S
C2500 C2499 1.400 . S
C2500 C2503 1.386 . S
H2501 C2517 0.930 . S
H2502 C2518 0.931 . S
C2503 H2491 0.929 . S
C2503 C2497 1.390 . S
C2503 C2500 1.386 . S
C2504 C2499 1.490 . S
C2504 C2506 1.395 . S
C2504 C2507 1.403 . S
H2505 C2511 0.930 . S
C2506 H2492 0.930 . S
C2506 C2504 1.395 . S
C2506 C2509 1.403 . S
C2507 C2504 1.403 . S
C2507 C2508 1.524 . S
C2507 C2511 1.400 . S
C2508 H2493 0.960 . S
C2508 H2494 0.960 . S
C2508 H2495 0.960 . S
C2508 C2507 1.524 . S
C2509 C2506 1.403 . S
C2509 C2510 1.392 . S
C2509 C2513 1.495 . S
C2510 C2509 1.392 . S
C2510 C2511 1.385 . S
C2510 C2512 1.478 . S
C2511 H2505 0.930 . S
C2511 C2507 1.400 . S
C2511 C2510 1.385 . S
C2512 C2510 1.478 . S
C2512 C2514 1.381 . S
C2512 C2518 1.383 . S
C2513 C2509 1.495 . S
C2513 H2519 0.959 . S
C2513 H2520 0.961 . S
C2513 H2521 0.960 . S
C2514 C2512 1.381 . S
C2514 C2515 1.394 . S
C2514 H2522 0.930 . S
C2515 C2514 1.394 . S
C2515 C2516 1.383 . S
C2515 H2523 0.929 . S
C2516 C2515 1.383 . S
C2516 C2517 1.377 . S
C2517 H2501 0.930 . S
C2517 C2516 1.377 . S
C2517 C2518 1.379 . S
C2518 H2502 0.931 . S
C2518 C2512 1.383 . S
C2518 C2517 1.379 . S
H2519 C2513 0.959 . S
H2520 C2513 0.961 . S
H2521 C2513 0.960 . S
H2522 C2514 0.930 . S
H2523 C2515 0.929 . S
H2524 C2532 0.929 . S
H2525 C2534 0.930 . S
H2526 C2536 0.930 . S
H2527 C2539 0.929 . S
H2528 C2542 0.930 . S
H2529 C2544 0.960 . S
H2530 C2544 0.960 . S
H2531 C2544 0.960 . S
C2532 H2524 0.929 . S
C2532 C2533 1.377 . S
C2532 C2534 1.384 . S
C2533 C2532 1.377 . S
C2533 C2539 1.390 . S
C2534 H2525 0.930 . S
C2534 C2532 1.384 . S
C2534 C2535 1.372 . S
C2535 C2534 1.372 . S
C2535 C2536 1.400 . S
C2535 C2540 1.490 . S
C2536 H2526 0.930 . S
C2536 C2535 1.400 . S
C2536 C2539 1.386 . S
H2537 C2553 0.930 . S
H2538 C2554 0.931 . S
C2539 H2527 0.929 . S
C2539 C2533 1.390 . S
C2539 C2536 1.386 . S
C2540 C2535 1.490 . S
C2540 C2542 1.395 . S
C2540 C2543 1.403 . S
H2541 C2547 0.930 . S
C2542 H2528 0.930 . S
C2542 C2540 1.395 . S
C2542 C2545 1.403 . S
C2543 C2540 1.403 . S
C2543 C2544 1.524 . S
C2543 C2547 1.400 . S
C2544 H2529 0.960 . S
C2544 H2530 0.960 . S
C2544 H2531 0.960 . S
C2544 C2543 1.524 . S
C2545 C2542 1.403 . S
C2545 C2546 1.392 . S
C2545 C2549 1.495 . S
C2546 C2545 1.392 . S
C2546 C2547 1.385 . S
C2546 C2548 1.478 . S
C2547 H2541 0.930 . S
C2547 C2543 1.400 . S
C2547 C2546 1.385 . S
C2548 C2546 1.478 . S
C2548 C2550 1.381 . S
C2548 C2554 1.383 . S
C2549 C2545 1.495 . S
C2549 H2555 0.959 . S
C2549 H2556 0.961 . S
C2549 H2557 0.960 . S
C2550 C2548 1.381 . S
C2550 C2551 1.394 . S
C2550 H2558 0.930 . S
C2551 C2550 1.394 . S
C2551 C2552 1.383 . S
C2551 H2559 0.929 . S
C2552 C2551 1.383 . S
C2552 C2553 1.377 . S
C2553 H2537 0.930 . S
C2553 C2552 1.377 . S
C2553 C2554 1.379 . S
C2554 H2538 0.931 . S
C2554 C2548 1.383 . S
C2554 C2553 1.379 . S
H2555 C2549 0.959 . S
H2556 C2549 0.961 . S
H2557 C2549 0.960 . S
H2558 C2550 0.930 . S
H2559 C2551 0.929 . S
H2560 C2568 0.929 . S
H2561 C2570 0.930 . S
H2562 C2572 0.930 . S
H2563 C2575 0.929 . S
H2564 C2578 0.930 . S
H2565 C2580 0.960 . S
H2566 C2580 0.960 . S
H2567 C2580 0.960 . S
C2568 H2560 0.929 . S
C2568 C2569 1.377 . S
C2568 C2570 1.384 . S
C2569 C2568 1.377 . S
C2569 C2575 1.390 . S
C2570 H2561 0.930 . S
C2570 C2568 1.384 . S
C2570 C2571 1.372 . S
C2571 C2570 1.372 . S
C2571 C2572 1.400 . S
C2571 C2576 1.490 . S
C2572 H2562 0.930 . S
C2572 C2571 1.400 . S
C2572 C2575 1.386 . S
H2573 C2589 0.930 . S
H2574 C2590 0.931 . S
C2575 H2563 0.929 . S
C2575 C2569 1.390 . S
C2575 C2572 1.386 . S
C2576 C2571 1.490 . S
C2576 C2578 1.395 . S
C2576 C2579 1.403 . S
H2577 C2583 0.930 . S
C2578 H2564 0.930 . S
C2578 C2576 1.395 . S
C2578 C2581 1.403 . S
C2579 C2576 1.403 . S
C2579 C2580 1.524 . S
C2579 C2583 1.400 . S
C2580 H2565 0.960 . S
C2580 H2566 0.960 . S
C2580 H2567 0.960 . S
C2580 C2579 1.524 . S
C2581 C2578 1.403 . S
C2581 C2582 1.392 . S
C2581 C2585 1.495 . S
C2582 C2581 1.392 . S
C2582 C2583 1.385 . S
C2582 C2584 1.478 . S
C2583 H2577 0.930 . S
C2583 C2579 1.400 . S
C2583 C2582 1.385 . S
C2584 C2582 1.478 . S
C2584 C2586 1.381 . S
C2584 C2590 1.383 . S
C2585 C2581 1.495 . S
C2585 H2591 0.959 . S
C2585 H2592 0.961 . S
C2585 H2593 0.960 . S
C2586 C2584 1.381 . S
C2586 C2587 1.394 . S
C2586 H2594 0.930 . S
C2587 C2586 1.394 . S
C2587 C2588 1.383 . S
C2587 H2595 0.929 . S
C2588 C2587 1.383 . S
C2588 C2589 1.377 . S
C2589 H2573 0.930 . S
C2589 C2588 1.377 . S
C2589 C2590 1.379 . S
C2590 H2574 0.931 . S
C2590 C2584 1.383 . S
C2590 C2589 1.379 . S
H2591 C2585 0.959 . S
H2592 C2585 0.961 . S
H2593 C2585 0.960 . S
H2594 C2586 0.930 . S
H2595 C2587 0.929 . S
H2596 C2604 0.929 . S
H2597 C2606 0.930 . S
H2598 C2608 0.930 . S
H2599 C2611 0.929 . S
H2600 C2614 0.930 . S
H2601 C2616 0.960 . S
H2602 C2616 0.960 . S
H2603 C2616 0.960 . S
C2604 H2596 0.929 . S
C2604 C2605 1.377 . S
C2604 C2606 1.384 . S
C2605 C2604 1.377 . S
C2605 C2611 1.390 . S
C2606 H2597 0.930 . S
C2606 C2604 1.384 . S
C2606 C2607 1.372 . S
C2607 C2606 1.372 . S
C2607 C2608 1.400 . S
C2607 C2612 1.490 . S
C2608 H2598 0.930 . S
C2608 C2607 1.400 . S
C2608 C2611 1.386 . S
H2609 C2625 0.930 . S
H2610 C2626 0.931 . S
C2611 H2599 0.929 . S
C2611 C2605 1.390 . S
C2611 C2608 1.386 . S
C2612 C2607 1.490 . S
C2612 C2614 1.395 . S
C2612 C2615 1.403 . S
H2613 C2619 0.930 . S
C2614 H2600 0.930 . S
C2614 C2612 1.395 . S
C2614 C2617 1.403 . S
C2615 C2612 1.403 . S
C2615 C2616 1.524 . S
C2615 C2619 1.400 . S
C2616 H2601 0.960 . S
C2616 H2602 0.960 . S
C2616 H2603 0.960 . S
C2616 C2615 1.524 . S
C2617 C2614 1.403 . S
C2617 C2618 1.392 . S
C2617 C2621 1.495 . S
C2618 C2617 1.392 . S
C2618 C2619 1.385 . S
C2618 C2620 1.478 . S
C2619 H2613 0.930 . S
C2619 C2615 1.400 . S
C2619 C2618 1.385 . S
C2620 C2618 1.478 . S
C2620 C2622 1.381 . S
C2620 C2626 1.383 . S
C2621 C2617 1.495 . S
C2621 H2627 0.959 . S
C2621 H2628 0.961 . S
C2621 H2629 0.960 . S
C2622 C2620 1.381 . S
C2622 C2623 1.394 1_565 S
C2622 H2630 0.930 1_565 S
C2623 C2622 1.394 1_545 S
C2623 C2624 1.383 1_545 S
C2623 H2631 0.929 . S
C2624 C2623 1.383 1_565 S
C2624 C2625 1.377 . S
C2625 H2609 0.930 . S
C2625 C2624 1.377 . S
C2625 C2626 1.379 . S
C2626 H2610 0.931 . S
C2626 C2620 1.383 . S
C2626 C2625 1.379 . S
H2627 C2621 0.959 . S
H2628 C2621 0.961 . S
H2629 C2621 0.960 . S
H2630 C2622 0.930 1_545 S
H2631 C2623 0.929 . S
H2632 C2640 0.929 . S
H2633 C2642 0.930 . S
H2634 C2644 0.930 . S
H2635 C2647 0.929 . S
H2636 C2650 0.930 . S
H2637 C2652 0.960 . S
H2638 C2652 0.960 . S
H2639 C2652 0.960 . S
C2640 H2632 0.929 . S
C2640 C2641 1.377 . S
C2640 C2642 1.384 . S
C2641 C2640 1.377 . S
C2641 C2647 1.390 . S
C2642 H2633 0.930 . S
C2642 C2640 1.384 . S
C2642 C2643 1.372 . S
C2643 C2642 1.372 . S
C2643 C2644 1.400 . S
C2643 C2648 1.490 . S
C2644 H2634 0.930 . S
C2644 C2643 1.400 . S
C2644 C2647 1.386 . S
H2645 C2661 0.930 . S
H2646 C2662 0.931 . S
C2647 H2635 0.929 . S
C2647 C2641 1.390 . S
C2647 C2644 1.386 . S
C2648 C2643 1.490 . S
C2648 C2650 1.395 . S
C2648 C2651 1.403 . S
H2649 C2655 0.930 . S
C2650 H2636 0.930 . S
C2650 C2648 1.395 . S
C2650 C2653 1.403 . S
C2651 C2648 1.403 . S
C2651 C2652 1.524 . S
C2651 C2655 1.400 . S
C2652 H2637 0.960 . S
C2652 H2638 0.960 . S
C2652 H2639 0.960 . S
C2652 C2651 1.524 . S
C2653 C2650 1.403 . S
C2653 C2654 1.392 . S
C2653 C2657 1.495 . S
C2654 C2653 1.392 . S
C2654 C2655 1.385 . S
C2654 C2656 1.478 . S
C2655 H2649 0.930 . S
C2655 C2651 1.400 . S
C2655 C2654 1.385 . S
C2656 C2654 1.478 . S
C2656 C2658 1.381 . S
C2656 C2662 1.383 . S
C2657 C2653 1.495 . S
C2657 H2663 0.959 . S
C2657 H2664 0.961 . S
C2657 H2665 0.960 . S
C2658 C2656 1.381 . S
C2658 C2659 1.394 . S
C2658 H2666 0.930 . S
C2659 C2658 1.394 . S
C2659 C2660 1.383 . S
C2659 H2667 0.929 . S
C2660 C2659 1.383 . S
C2660 C2661 1.377 . S
C2661 H2645 0.930 . S
C2661 C2660 1.377 . S
C2661 C2662 1.379 . S
C2662 H2646 0.931 . S
C2662 C2656 1.383 . S
C2662 C2661 1.379 . S
H2663 C2657 0.959 . S
H2664 C2657 0.961 . S
H2665 C2657 0.960 . S
H2666 C2658 0.930 . S
H2667 C2659 0.929 . S
H2668 C2676 0.929 . S
H2669 C2678 0.930 . S
H2670 C2680 0.930 . S
H2671 C2683 0.929 . S
H2672 C2686 0.930 . S
H2673 C2688 0.960 . S
H2674 C2688 0.960 . S
H2675 C2688 0.960 . S
C2676 H2668 0.929 . S
C2676 C2677 1.377 . S
C2676 C2678 1.384 . S
C2677 C2676 1.377 . S
C2677 C2683 1.390 . S
C2678 H2669 0.930 . S
C2678 C2676 1.384 . S
C2678 C2679 1.372 . S
C2679 C2678 1.372 . S
C2679 C2680 1.400 . S
C2679 C2684 1.490 . S
C2680 H2670 0.930 . S
C2680 C2679 1.400 . S
C2680 C2683 1.386 . S
H2681 C2697 0.930 . S
H2682 C2698 0.931 . S
C2683 H2671 0.929 . S
C2683 C2677 1.390 . S
C2683 C2680 1.386 . S
C2684 C2679 1.490 . S
C2684 C2686 1.395 . S
C2684 C2687 1.403 . S
H2685 C2691 0.930 . S
C2686 H2672 0.930 . S
C2686 C2684 1.395 . S
C2686 C2689 1.403 . S
C2687 C2684 1.403 . S
C2687 C2688 1.524 . S
C2687 C2691 1.400 . S
C2688 H2673 0.960 . S
C2688 H2674 0.960 . S
C2688 H2675 0.960 . S
C2688 C2687 1.524 . S
C2689 C2686 1.403 . S
C2689 C2690 1.392 . S
C2689 C2693 1.495 . S
C2690 C2689 1.392 . S
C2690 C2691 1.385 . S
C2690 C2692 1.478 . S
C2691 H2685 0.930 . S
C2691 C2687 1.400 . S
C2691 C2690 1.385 . S
C2692 C2690 1.478 . S
C2692 C2694 1.381 . S
C2692 C2698 1.383 . S
C2693 C2689 1.495 . S
C2693 H2699 0.959 . S
C2693 H2700 0.961 . S
C2693 H2701 0.960 . S
C2694 C2692 1.381 . S
C2694 C2695 1.394 . S
C2694 H2702 0.930 . S
C2695 C2694 1.394 . S
C2695 C2696 1.383 . S
C2695 H2703 0.929 . S
C2696 C2695 1.383 . S
C2696 C2697 1.377 . S
C2697 H2681 0.930 . S
C2697 C2696 1.377 . S
C2697 C2698 1.379 . S
C2698 H2682 0.931 . S
C2698 C2692 1.383 . S
C2698 C2697 1.379 . S
H2699 C2693 0.959 . S
H2700 C2693 0.961 . S
H2701 C2693 0.960 . S
H2702 C2694 0.930 . S
H2703 C2695 0.929 . S
H2704 C2712 0.929 . S
H2705 C2714 0.930 . S
H2706 C2716 0.930 . S
H2707 C2719 0.929 . S
H2708 C2722 0.930 . S
H2709 C2724 0.960 . S
H2710 C2724 0.960 . S
H2711 C2724 0.960 . S
C2712 H2704 0.929 . S
C2712 C2713 1.377 . S
C2712 C2714 1.384 . S
C2713 C2712 1.377 . S
C2713 C2719 1.390 . S
C2714 H2705 0.930 . S
C2714 C2712 1.384 . S
C2714 C2715 1.372 . S
C2715 C2714 1.372 . S
C2715 C2716 1.400 . S
C2715 C2720 1.490 . S
C2716 H2706 0.930 . S
C2716 C2715 1.400 . S
C2716 C2719 1.386 . S
H2717 C2733 0.930 . S
H2718 C2734 0.931 . S
C2719 H2707 0.929 . S
C2719 C2713 1.390 . S
C2719 C2716 1.386 . S
C2720 C2715 1.490 . S
C2720 C2722 1.395 . S
C2720 C2723 1.403 . S
H2721 C2727 0.930 . S
C2722 H2708 0.930 . S
C2722 C2720 1.395 . S
C2722 C2725 1.403 . S
C2723 C2720 1.403 . S
C2723 C2724 1.524 . S
C2723 C2727 1.400 . S
C2724 H2709 0.960 . S
C2724 H2710 0.960 . S
C2724 H2711 0.960 . S
C2724 C2723 1.524 . S
C2725 C2722 1.403 . S
C2725 C2726 1.392 . S
C2725 C2729 1.495 . S
C2726 C2725 1.392 . S
C2726 C2727 1.385 . S
C2726 C2728 1.478 . S
C2727 H2721 0.930 . S
C2727 C2723 1.400 . S
C2727 C2726 1.385 . S
C2728 C2726 1.478 . S
C2728 C2730 1.381 . S
C2728 C2734 1.383 . S
C2729 C2725 1.495 . S
C2729 H2735 0.959 . S
C2729 H2736 0.961 . S
C2729 H2737 0.960 . S
C2730 C2728 1.381 . S
C2730 C2731 1.394 . S
C2730 H2738 0.930 . S
C2731 C2730 1.394 . S
C2731 C2732 1.383 . S
C2731 H2739 0.929 . S
C2732 C2731 1.383 . S
C2732 C2733 1.377 . S
C2733 H2717 0.930 . S
C2733 C2732 1.377 . S
C2733 C2734 1.379 . S
C2734 H2718 0.931 . S
C2734 C2728 1.383 . S
C2734 C2733 1.379 . S
H2735 C2729 0.959 . S
H2736 C2729 0.961 . S
H2737 C2729 0.960 . S
H2738 C2730 0.930 . S
H2739 C2731 0.929 . S
H2740 C2748 0.929 . S
H2741 C2750 0.930 . S
H2742 C2752 0.930 . S
H2743 C2755 0.929 . S
H2744 C2758 0.930 . S
H2745 C2760 0.960 . S
H2746 C2760 0.960 . S
H2747 C2760 0.960 . S
C2748 H2740 0.929 . S
C2748 C2749 1.377 . S
C2748 C2750 1.384 . S
C2749 C2748 1.377 . S
C2749 C2755 1.390 . S
C2750 H2741 0.930 . S
C2750 C2748 1.384 . S
C2750 C2751 1.372 . S
C2751 C2750 1.372 . S
C2751 C2752 1.400 . S
C2751 C2756 1.490 . S
C2752 H2742 0.930 . S
C2752 C2751 1.400 . S
C2752 C2755 1.386 . S
H2753 C2769 0.930 . S
H2754 C2770 0.931 . S
C2755 H2743 0.929 . S
C2755 C2749 1.390 . S
C2755 C2752 1.386 . S
C2756 C2751 1.490 . S
C2756 C2758 1.395 . S
C2756 C2759 1.403 . S
H2757 C2763 0.930 . S
C2758 H2744 0.930 . S
C2758 C2756 1.395 . S
C2758 C2761 1.403 . S
C2759 C2756 1.403 . S
C2759 C2760 1.524 . S
C2759 C2763 1.400 . S
C2760 H2745 0.960 . S
C2760 H2746 0.960 . S
C2760 H2747 0.960 . S
C2760 C2759 1.524 . S
C2761 C2758 1.403 . S
C2761 C2762 1.392 . S
C2761 C2765 1.495 . S
C2762 C2761 1.392 . S
C2762 C2763 1.385 . S
C2762 C2764 1.478 . S
C2763 H2757 0.930 . S
C2763 C2759 1.400 . S
C2763 C2762 1.385 . S
C2764 C2762 1.478 . S
C2764 C2766 1.381 . S
C2764 C2770 1.383 . S
C2765 C2761 1.495 . S
C2765 H2771 0.959 . S
C2765 H2772 0.961 . S
C2765 H2773 0.960 . S
C2766 C2764 1.381 . S
C2766 C2767 1.394 . S
C2766 H2774 0.930 . S
C2767 C2766 1.394 . S
C2767 C2768 1.383 . S
C2767 H2775 0.929 . S
C2768 C2767 1.383 . S
C2768 C2769 1.377 . S
C2769 H2753 0.930 . S
C2769 C2768 1.377 . S
C2769 C2770 1.379 . S
C2770 H2754 0.931 . S
C2770 C2764 1.383 . S
C2770 C2769 1.379 . S
H2771 C2765 0.959 . S
H2772 C2765 0.961 . S
H2773 C2765 0.960 . S
H2774 C2766 0.930 . S
H2775 C2767 0.929 . S
H2776 C2784 0.929 . S
H2777 C2786 0.930 . S
H2778 C2788 0.930 . S
H2779 C2791 0.929 . S
H2780 C2794 0.930 . S
H2781 C2796 0.960 . S
H2782 C2796 0.960 . S
H2783 C2796 0.960 . S
C2784 H2776 0.929 . S
C2784 C2785 1.377 1_655 S
C2784 C2786 1.384 . S
C2785 C2784 1.377 1_455 S
C2785 C2791 1.390 . S
C2786 H2777 0.930 . S
C2786 C2784 1.384 . S
C2786 C2787 1.372 1_655 S
C2787 C2786 1.372 1_455 S
C2787 C2788 1.400 . S
C2787 C2792 1.490 . S
C2788 H2778 0.930 . S
C2788 C2787 1.400 . S
C2788 C2791 1.386 . S
H2789 C2805 0.930 . S
H2790 C2806 0.931 . S
C2791 H2779 0.929 . S
C2791 C2785 1.390 . S
C2791 C2788 1.386 . S
C2792 C2787 1.490 . S
C2792 C2794 1.395 1_455 S
C2792 C2795 1.403 . S
H2793 C2799 0.930 . S
C2794 H2780 0.930 . S
C2794 C2792 1.395 1_655 S
C2794 C2797 1.403 . S
C2795 C2792 1.403 . S
C2795 C2796 1.524 . S
C2795 C2799 1.400 . S
C2796 H2781 0.960 . S
C2796 H2782 0.960 . S
C2796 H2783 0.960 . S
C2796 C2795 1.524 . S
C2797 C2794 1.403 . S
C2797 C2798 1.392 1_655 S
C2797 C2801 1.495 . S
C2798 C2797 1.392 1_455 S
C2798 C2799 1.385 . S
C2798 C2800 1.478 . S
C2799 H2793 0.930 . S
C2799 C2795 1.400 . S
C2799 C2798 1.385 . S
C2800 C2798 1.478 . S
C2800 C2802 1.381 . S
C2800 C2806 1.383 1_556 S
C2801 C2797 1.495 . S
C2801 H2807 0.959 . S
C2801 H2808 0.961 . S
C2801 H2809 0.960 . S
C2802 C2800 1.381 . S
C2802 C2803 1.394 . S
C2802 H2810 0.930 . S
C2803 C2802 1.394 . S
C2803 C2804 1.383 1_556 S
C2803 H2811 0.929 . S
C2804 C2803 1.383 1_554 S
C2804 C2805 1.377 . S
C2805 H2789 0.930 . S
C2805 C2804 1.377 . S
C2805 C2806 1.379 . S
C2806 H2790 0.931 . S
C2806 C2800 1.383 1_554 S
C2806 C2805 1.379 . S
H2807 C2801 0.959 . S
H2808 C2801 0.961 . S
H2809 C2801 0.960 . S
H2810 C2802 0.930 . S
H2811 C2803 0.929 . S
H2812 C2820 0.929 . S
H2813 C2822 0.930 . S
H2814 C2824 0.930 . S
H2815 C2827 0.929 . S
H2816 C2830 0.930 . S
H2817 C2832 0.960 . S
H2818 C2832 0.960 . S
H2819 C2832 0.960 . S
C2820 H2812 0.929 . S
C2820 C2821 1.377 . S
C2820 C2822 1.384 . S
C2821 C2820 1.377 . S
C2821 C2827 1.390 . S
C2822 H2813 0.930 . S
C2822 C2820 1.384 . S
C2822 C2823 1.372 1_455 S
C2823 C2822 1.372 1_655 S
C2823 C2824 1.400 . S
C2823 C2828 1.490 . S
C2824 H2814 0.930 . S
C2824 C2823 1.400 . S
C2824 C2827 1.386 1_655 S
H2825 C2841 0.930 . S
H2826 C2842 0.931 . S
C2827 H2815 0.929 . S
C2827 C2821 1.390 . S
C2827 C2824 1.386 1_455 S
C2828 C2823 1.490 . S
C2828 C2830 1.395 . S
C2828 C2831 1.403 . S
H2829 C2835 0.930 . S
C2830 H2816 0.930 . S
C2830 C2828 1.395 . S
C2830 C2833 1.403 . S
C2831 C2828 1.403 . S
C2831 C2832 1.524 . S
C2831 C2835 1.400 . S
C2832 H2817 0.960 . S
C2832 H2818 0.960 . S
C2832 H2819 0.960 . S
C2832 C2831 1.524 . S
C2833 C2830 1.403 . S
C2833 C2834 1.392 . S
C2833 C2837 1.495 . S
C2834 C2833 1.392 . S
C2834 C2835 1.385 . S
C2834 C2836 1.478 . S
C2835 H2829 0.930 . S
C2835 C2831 1.400 . S
C2835 C2834 1.385 . S
C2836 C2834 1.478 . S
C2836 C2838 1.381 . S
C2836 C2842 1.383 . S
C2837 C2833 1.495 . S
C2837 H2843 0.959 . S
C2837 H2844 0.961 . S
C2837 H2845 0.960 . S
C2838 C2836 1.381 . S
C2838 C2839 1.394 . S
C2838 H2846 0.930 . S
C2839 C2838 1.394 . S
C2839 C2840 1.383 . S
C2839 H2847 0.929 . S
C2840 C2839 1.383 . S
C2840 C2841 1.377 . S
C2841 H2825 0.930 . S
C2841 C2840 1.377 . S
C2841 C2842 1.379 . S
C2842 H2826 0.931 . S
C2842 C2836 1.383 . S
C2842 C2841 1.379 . S
H2843 C2837 0.959 . S
H2844 C2837 0.961 . S
H2845 C2837 0.960 . S
H2846 C2838 0.930 . S
H2847 C2839 0.929 . S
H2848 C2856 0.929 . S
H2849 C2858 0.930 . S
H2850 C2860 0.930 . S
H2851 C2863 0.929 . S
H2852 C2866 0.930 . S
H2853 C2868 0.960 . S
H2854 C2868 0.960 . S
H2855 C2868 0.960 . S
C2856 H2848 0.929 . S
C2856 C2857 1.377 . S
C2856 C2858 1.384 . S
C2857 C2856 1.377 . S
C2857 C2863 1.390 . S
C2858 H2849 0.930 . S
C2858 C2856 1.384 . S
C2858 C2859 1.372 . S
C2859 C2858 1.372 . S
C2859 C2860 1.400 . S
C2859 C2864 1.490 . S
C2860 H2850 0.930 . S
C2860 C2859 1.400 . S
C2860 C2863 1.386 . S
H2861 C2877 0.930 . S
H2862 C2878 0.931 . S
C2863 H2851 0.929 . S
C2863 C2857 1.390 . S
C2863 C2860 1.386 . S
C2864 C2859 1.490 . S
C2864 C2866 1.395 . S
C2864 C2867 1.403 . S
H2865 C2871 0.930 . S
C2866 H2852 0.930 . S
C2866 C2864 1.395 . S
C2866 C2869 1.403 . S
C2867 C2864 1.403 . S
C2867 C2868 1.524 . S
C2867 C2871 1.400 . S
C2868 H2853 0.960 . S
C2868 H2854 0.960 . S
C2868 H2855 0.960 . S
C2868 C2867 1.524 . S
C2869 C2866 1.403 . S
C2869 C2870 1.392 . S
C2869 C2873 1.495 . S
C2870 C2869 1.392 . S
C2870 C2871 1.385 . S
C2870 C2872 1.478 . S
C2871 H2865 0.930 . S
C2871 C2867 1.400 . S
C2871 C2870 1.385 . S
C2872 C2870 1.478 . S
C2872 C2874 1.381 . S
C2872 C2878 1.383 . S
C2873 C2869 1.495 . S
C2873 H2879 0.959 . S
C2873 H2880 0.961 . S
C2873 H2881 0.960 . S
C2874 C2872 1.381 . S
C2874 C2875 1.394 . S
C2874 H2882 0.930 . S
C2875 C2874 1.394 . S
C2875 C2876 1.383 . S
C2875 H2883 0.929 . S
C2876 C2875 1.383 . S
C2876 C2877 1.377 . S
C2877 H2861 0.930 . S
C2877 C2876 1.377 . S
C2877 C2878 1.379 . S
C2878 H2862 0.931 . S
C2878 C2872 1.383 . S
C2878 C2877 1.379 . S
H2879 C2873 0.959 . S
H2880 C2873 0.961 . S
H2881 C2873 0.960 . S
H2882 C2874 0.930 . S
H2883 C2875 0.929 . S
H2884 C2892 0.929 . S
H2885 C2894 0.930 . S
H2886 C2896 0.930 . S
H2887 C2899 0.929 . S
H2888 C2902 0.930 . S
H2889 C2904 0.960 . S
H2890 C2904 0.960 . S
H2891 C2904 0.960 . S
C2892 H2884 0.929 . S
C2892 C2893 1.377 . S
C2892 C2894 1.384 . S
C2893 C2892 1.377 . S
C2893 C2899 1.390 . S
C2894 H2885 0.930 . S
C2894 C2892 1.384 . S
C2894 C2895 1.372 . S
C2895 C2894 1.372 . S
C2895 C2896 1.400 . S
C2895 C2900 1.490 . S
C2896 H2886 0.930 . S
C2896 C2895 1.400 . S
C2896 C2899 1.386 . S
H2897 C2913 0.930 . S
H2898 C2914 0.931 . S
C2899 H2887 0.929 . S
C2899 C2893 1.390 . S
C2899 C2896 1.386 . S
C2900 C2895 1.490 . S
C2900 C2902 1.395 . S
C2900 C2903 1.403 . S
H2901 C2907 0.930 . S
C2902 H2888 0.930 . S
C2902 C2900 1.395 . S
C2902 C2905 1.403 . S
C2903 C2900 1.403 . S
C2903 C2904 1.524 . S
C2903 C2907 1.400 . S
C2904 H2889 0.960 . S
C2904 H2890 0.960 . S
C2904 H2891 0.960 . S
C2904 C2903 1.524 . S
C2905 C2902 1.403 . S
C2905 C2906 1.392 . S
C2905 C2909 1.495 . S
C2906 C2905 1.392 . S
C2906 C2907 1.385 . S
C2906 C2908 1.478 . S
C2907 H2901 0.930 . S
C2907 C2903 1.400 . S
C2907 C2906 1.385 . S
C2908 C2906 1.478 . S
C2908 C2910 1.381 . S
C2908 C2914 1.383 . S
C2909 C2905 1.495 . S
C2909 H2915 0.959 . S
C2909 H2916 0.961 . S
C2909 H2917 0.960 . S
C2910 C2908 1.381 . S
C2910 C2911 1.394 . S
C2910 H2918 0.930 . S
C2911 C2910 1.394 . S
C2911 C2912 1.383 . S
C2911 H2919 0.929 . S
C2912 C2911 1.383 . S
C2912 C2913 1.377 . S
C2913 H2897 0.930 . S
C2913 C2912 1.377 . S
C2913 C2914 1.379 . S
C2914 H2898 0.931 . S
C2914 C2908 1.383 . S
C2914 C2913 1.379 . S
H2915 C2909 0.959 . S
H2916 C2909 0.961 . S
H2917 C2909 0.960 . S
H2918 C2910 0.930 . S
H2919 C2911 0.929 . S
H2920 C2928 0.906 1_655 S
H2921 C2930 0.930 1_655 S
H2922 C2932 0.930 . S
H2923 C2935 0.929 . S
H2924 C2938 0.930 . S
H2925 C2940 0.960 . S
H2926 C2940 0.960 . S
H2927 C2940 0.960 . S
C2928 H2920 0.906 1_455 S
C2928 C2929 1.377 . S
C2928 C2930 1.384 . S
C2929 C2928 1.377 . S
C2929 C2935 1.390 . S
C2930 H2921 0.930 1_455 S
C2930 C2928 1.384 . S
C2930 C2931 1.372 . S
C2931 C2930 1.372 . S
C2931 C2932 1.400 . S
C2931 C2936 1.490 . S
C2932 H2922 0.930 . S
C2932 C2931 1.400 . S
C2932 C2935 1.386 . S
H2933 C2949 0.930 . S
H2934 C2950 0.931 . S
C2935 H2923 0.929 . S
C2935 C2929 1.390 . S
C2935 C2932 1.386 . S
C2936 C2931 1.490 . S
C2936 C2938 1.395 . S
C2936 C2939 1.403 . S
H2937 C2943 0.930 . S
C2938 H2924 0.930 . S
C2938 C2936 1.395 . S
C2938 C2941 1.403 . S
C2939 C2936 1.403 . S
C2939 C2940 1.524 . S
C2939 C2943 1.400 . S
C2940 H2925 0.960 . S
C2940 H2926 0.960 . S
C2940 H2927 0.960 . S
C2940 C2939 1.524 . S
C2941 C2938 1.403 . S
C2941 C2942 1.392 . S
C2941 C2945 1.495 . S
C2942 C2941 1.392 . S
C2942 C2943 1.385 . S
C2942 C2944 1.478 . S
C2943 H2937 0.930 . S
C2943 C2939 1.400 . S
C2943 C2942 1.385 . S
C2944 C2942 1.478 . S
C2944 C2946 1.381 . S
C2944 C2950 1.383 . S
C2945 C2941 1.495 . S
C2945 H2951 0.959 . S
C2945 H2952 0.961 . S
C2945 H2953 0.960 . S
C2946 C2944 1.381 . S
C2946 C2947 1.394 . S
C2946 H2954 0.930 1_455 S
C2947 C2946 1.394 . S
C2947 C2948 1.383 . S
C2947 H2955 0.929 1_455 S
C2948 C2947 1.383 . S
C2948 C2949 1.377 . S
C2949 H2933 0.930 . S
C2949 C2948 1.377 . S
C2949 C2950 1.379 . S
C2950 H2934 0.931 . S
C2950 C2944 1.383 . S
C2950 C2949 1.379 . S
H2951 C2945 0.959 . S
H2952 C2945 0.961 . S
H2953 C2945 0.960 . S
H2954 C2946 0.930 1_655 S
H2955 C2947 0.929 1_655 S
H2956 C2964 0.929 . S
H2957 C2966 0.930 . S
H2958 C2968 0.930 . S
H2959 C2971 0.929 . S
H2960 C2974 0.930 . S
H2961 C2976 0.960 . S
H2962 C2976 0.960 . S
H2963 C2976 0.960 . S
C2964 H2956 0.929 . S
C2964 C2965 1.377 . S
C2964 C2966 1.384 . S
C2965 C2964 1.377 . S
C2965 C2971 1.390 . S
C2966 H2957 0.930 . S
C2966 C2964 1.384 . S
C2966 C2967 1.372 . S
C2967 C2966 1.372 . S
C2967 C2968 1.400 . S
C2967 C2972 1.490 . S
C2968 H2958 0.930 . S
C2968 C2967 1.400 . S
C2968 C2971 1.386 . S
H2969 C2985 0.930 . S
H2970 C2986 0.931 . S
C2971 H2959 0.929 . S
C2971 C2965 1.390 . S
C2971 C2968 1.386 . S
C2972 C2967 1.490 . S
C2972 C2974 1.395 . S
C2972 C2975 1.403 . S
H2973 C2979 0.930 . S
C2974 H2960 0.930 . S
C2974 C2972 1.395 . S
C2974 C2977 1.403 . S
C2975 C2972 1.403 . S
C2975 C2976 1.524 . S
C2975 C2979 1.400 . S
C2976 H2961 0.960 . S
C2976 H2962 0.960 . S
C2976 H2963 0.960 . S
C2976 C2975 1.524 . S
C2977 C2974 1.403 . S
C2977 C2978 1.392 . S
C2977 C2981 1.495 . S
C2978 C2977 1.392 . S
C2978 C2979 1.385 . S
C2978 C2980 1.478 . S
C2979 H2973 0.930 . S
C2979 C2975 1.400 . S
C2979 C2978 1.385 . S
C2980 C2978 1.478 . S
C2980 C2982 1.381 . S
C2980 C2986 1.383 . S
C2981 C2977 1.495 . S
C2981 H2987 0.959 . S
C2981 H2988 0.961 . S
C2981 H2989 0.960 . S
C2982 C2980 1.381 . S
C2982 C2983 1.394 . S
C2982 H2990 0.930 . S
C2983 C2982 1.394 . S
C2983 C2984 1.383 . S
C2983 H2991 0.929 . S
C2984 C2983 1.383 . S
C2984 C2985 1.377 . S
C2985 H2969 0.930 . S
C2985 C2984 1.377 . S
C2985 C2986 1.379 . S
C2986 H2970 0.931 . S
C2986 C2980 1.383 . S
C2986 C2985 1.379 . S
H2987 C2981 0.959 . S
H2988 C2981 0.961 . S
H2989 C2981 0.960 . S
H2990 C2982 0.930 . S
H2991 C2983 0.929 . S
H2992 C3000 0.929 . S
H2993 C3002 0.930 . S
H2994 C3004 0.930 . S
H2995 C3007 0.929 . S
H2996 C3010 0.930 . S
H2997 C3012 0.960 . S
H2998 C3012 0.960 . S
H2999 C3012 0.960 . S
C3000 H2992 0.929 . S
C3000 C3001 1.377 . S
C3000 C3002 1.384 . S
C3001 C3000 1.377 . S
C3001 C3007 1.390 . S
C3002 H2993 0.930 . S
C3002 C3000 1.384 . S
C3002 C3003 1.372 . S
C3003 C3002 1.372 . S
C3003 C3004 1.400 . S
C3003 C3008 1.490 . S
C3004 H2994 0.930 . S
C3004 C3003 1.400 . S
C3004 C3007 1.386 . S
H3005 C3021 0.930 . S
H3006 C3022 0.931 . S
C3007 H2995 0.929 . S
C3007 C3001 1.390 . S
C3007 C3004 1.386 . S
C3008 C3003 1.490 . S
C3008 C3010 1.395 . S
C3008 C3011 1.403 . S
H3009 C3015 0.930 . S
C3010 H2996 0.930 . S
C3010 C3008 1.395 . S
C3010 C3013 1.403 . S
C3011 C3008 1.403 . S
C3011 C3012 1.524 . S
C3011 C3015 1.400 . S
C3012 H2997 0.960 . S
C3012 H2998 0.960 . S
C3012 H2999 0.960 . S
C3012 C3011 1.524 . S
C3013 C3010 1.403 . S
C3013 C3014 1.392 . S
C3013 C3017 1.495 . S
C3014 C3013 1.392 . S
C3014 C3015 1.385 . S
C3014 C3016 1.478 . S
C3015 H3009 0.930 . S
C3015 C3011 1.400 . S
C3015 C3014 1.385 . S
C3016 C3014 1.478 . S
C3016 C3018 1.381 . S
C3016 C3022 1.383 . S
C3017 C3013 1.495 . S
C3017 H3023 0.959 . S
C3017 H3024 0.961 . S
C3017 H3025 0.960 . S
C3018 C3016 1.381 . S
C3018 C3019 1.394 . S
C3018 H3026 0.930 . S
C3019 C3018 1.394 . S
C3019 C3020 1.383 . S
C3019 H3027 0.929 . S
C3020 C3019 1.383 . S
C3020 C3021 1.377 . S
C3021 H3005 0.930 . S
C3021 C3020 1.377 . S
C3021 C3022 1.379 . S
C3022 H3006 0.931 . S
C3022 C3016 1.383 . S
C3022 C3021 1.379 . S
H3023 C3017 0.959 . S
H3024 C3017 0.961 . S
H3025 C3017 0.960 . S
H3026 C3018 0.930 . S
H3027 C3019 0.929 . S
H3028 C3036 0.929 . S
H3029 C3038 0.930 . S
H3030 C3040 0.930 . S
H3031 C3043 0.929 . S
H3032 C3046 0.930 . S
H3033 C3048 0.960 . S
H3034 C3048 0.960 . S
H3035 C3048 0.960 . S
C3036 H3028 0.929 . S
C3036 C3037 1.377 . S
C3036 C3038 1.384 . S
C3037 C3036 1.377 . S
C3037 C3043 1.390 . S
C3038 H3029 0.930 . S
C3038 C3036 1.384 . S
C3038 C3039 1.372 . S
C3039 C3038 1.372 . S
C3039 C3040 1.400 . S
C3039 C3044 1.490 . S
C3040 H3030 0.930 . S
C3040 C3039 1.400 . S
C3040 C3043 1.386 . S
H3041 C3057 0.930 . S
H3042 C3058 0.931 . S
C3043 H3031 0.929 . S
C3043 C3037 1.390 . S
C3043 C3040 1.386 . S
C3044 C3039 1.490 . S
C3044 C3046 1.395 . S
C3044 C3047 1.403 . S
H3045 C3051 0.930 . S
C3046 H3032 0.930 . S
C3046 C3044 1.395 . S
C3046 C3049 1.403 . S
C3047 C3044 1.403 . S
C3047 C3048 1.524 . S
C3047 C3051 1.400 . S
C3048 H3033 0.960 . S
C3048 H3034 0.960 . S
C3048 H3035 0.960 . S
C3048 C3047 1.524 . S
C3049 C3046 1.403 . S
C3049 C3050 1.392 . S
C3049 C3053 1.495 . S
C3050 C3049 1.392 . S
C3050 C3051 1.385 . S
C3050 C3052 1.478 . S
C3051 H3045 0.930 . S
C3051 C3047 1.400 . S
C3051 C3050 1.385 . S
C3052 C3050 1.478 . S
C3052 C3054 1.381 . S
C3052 C3058 1.383 . S
C3053 C3049 1.495 . S
C3053 H3059 0.959 . S
C3053 H3060 0.961 . S
C3053 H3061 0.960 . S
C3054 C3052 1.381 . S
C3054 C3055 1.394 . S
C3054 H3062 0.930 . S
C3055 C3054 1.394 . S
C3055 C3056 1.383 . S
C3055 H3063 0.929 . S
C3056 C3055 1.383 . S
C3056 C3057 1.377 . S
C3057 H3041 0.930 . S
C3057 C3056 1.377 . S
C3057 C3058 1.379 . S
C3058 H3042 0.931 . S
C3058 C3052 1.383 . S
C3058 C3057 1.379 . S
H3059 C3053 0.959 . S
H3060 C3053 0.961 . S
H3061 C3053 0.960 . S
H3062 C3054 0.930 . S
H3063 C3055 0.929 . S
H3064 C3072 0.929 . S
H3065 C3074 0.930 . S
H3066 C3076 0.930 . S
H3067 C3079 0.929 . S
H3068 C3082 0.930 . S
H3069 C3084 0.960 . S
H3070 C3084 0.960 . S
H3071 C3084 0.960 . S
C3072 H3064 0.929 . S
C3072 C3073 1.377 . S
C3072 C3074 1.384 . S
C3073 C3072 1.377 . S
C3073 C3079 1.390 . S
C3074 H3065 0.930 . S
C3074 C3072 1.384 . S
C3074 C3075 1.372 . S
C3075 C3074 1.372 . S
C3075 C3076 1.400 . S
C3075 C3080 1.490 . S
C3076 H3066 0.930 . S
C3076 C3075 1.400 . S
C3076 C3079 1.386 . S
H3077 C3093 0.930 . S
H3078 C3094 0.931 . S
C3079 H3067 0.929 . S
C3079 C3073 1.390 . S
C3079 C3076 1.386 . S
C3080 C3075 1.490 . S
C3080 C3082 1.395 . S
C3080 C3083 1.403 . S
H3081 C3087 0.930 . S
C3082 H3068 0.930 . S
C3082 C3080 1.395 . S
C3082 C3085 1.403 . S
C3083 C3080 1.403 . S
C3083 C3084 1.524 . S
C3083 C3087 1.400 . S
C3084 H3069 0.960 . S
C3084 H3070 0.960 . S
C3084 H3071 0.960 . S
C3084 C3083 1.524 . S
C3085 C3082 1.403 . S
C3085 C3086 1.392 . S
C3085 C3089 1.495 . S
C3086 C3085 1.392 . S
C3086 C3087 1.385 . S
C3086 C3088 1.478 . S
C3087 H3081 0.930 . S
C3087 C3083 1.400 . S
C3087 C3086 1.385 . S
C3088 C3086 1.478 . S
C3088 C3090 1.381 . S
C3088 C3094 1.383 . S
C3089 C3085 1.495 . S
C3089 H3095 0.959 . S
C3089 H3096 0.961 . S
C3089 H3097 0.960 . S
C3090 C3088 1.381 . S
C3090 C3091 1.394 . S
C3090 H3098 0.930 . S
C3091 C3090 1.394 . S
C3091 C3092 1.383 . S
C3091 H3099 0.929 . S
C3092 C3091 1.383 . S
C3092 C3093 1.377 . S
C3093 H3077 0.930 . S
C3093 C3092 1.377 . S
C3093 C3094 1.379 . S
C3094 H3078 0.931 . S
C3094 C3088 1.383 . S
C3094 C3093 1.379 . S
H3095 C3089 0.959 . S
H3096 C3089 0.961 . S
H3097 C3089 0.960 . S
H3098 C3090 0.930 . S
H3099 C3091 0.929 . S
H3100 C3108 0.929 . S
H3101 C3110 0.930 . S
H3102 C3112 0.930 . S
H3103 C3115 0.929 . S
H3104 C3118 0.930 . S
H3105 C3120 0.960 . S
H3106 C3120 0.960 . S
H3107 C3120 0.960 . S
C3108 H3100 0.929 . S
C3108 C3109 1.377 . S
C3108 C3110 1.384 . S
C3109 C3108 1.377 . S
C3109 C3115 1.390 . S
C3110 H3101 0.930 . S
C3110 C3108 1.384 . S
C3110 C3111 1.372 . S
C3111 C3110 1.372 . S
C3111 C3112 1.400 . S
C3111 C3116 1.490 . S
C3112 H3102 0.930 . S
C3112 C3111 1.400 . S
C3112 C3115 1.386 . S
H3113 C3129 0.930 . S
H3114 C3130 0.931 . S
C3115 H3103 0.929 . S
C3115 C3109 1.390 . S
C3115 C3112 1.386 . S
C3116 C3111 1.490 . S
C3116 C3118 1.395 . S
C3116 C3119 1.403 . S
H3117 C3123 0.930 . S
C3118 H3104 0.930 . S
C3118 C3116 1.395 . S
C3118 C3121 1.403 . S
C3119 C3116 1.403 . S
C3119 C3120 1.524 . S
C3119 C3123 1.400 . S
C3120 H3105 0.960 . S
C3120 H3106 0.960 . S
C3120 H3107 0.960 . S
C3120 C3119 1.524 . S
C3121 C3118 1.403 . S
C3121 C3122 1.392 . S
C3121 C3125 1.495 . S
C3122 C3121 1.392 . S
C3122 C3123 1.385 . S
C3122 C3124 1.478 . S
C3123 H3117 0.930 . S
C3123 C3119 1.400 . S
C3123 C3122 1.385 . S
C3124 C3122 1.478 . S
C3124 C3126 1.381 . S
C3124 C3130 1.383 . S
C3125 C3121 1.495 . S
C3125 H3131 0.959 . S
C3125 H3132 0.961 . S
C3125 H3133 0.960 . S
C3126 C3124 1.381 . S
C3126 C3127 1.394 . S
C3126 H3134 0.930 . S
C3127 C3126 1.394 . S
C3127 C3128 1.383 . S
C3127 H3135 0.929 . S
C3128 C3127 1.383 . S
C3128 C3129 1.377 . S
C3129 H3113 0.930 . S
C3129 C3128 1.377 . S
C3129 C3130 1.379 . S
C3130 H3114 0.931 . S
C3130 C3124 1.383 . S
C3130 C3129 1.379 . S
H3131 C3125 0.959 . S
H3132 C3125 0.961 . S
H3133 C3125 0.960 . S
H3134 C3126 0.930 . S
H3135 C3127 0.929 . S
H3136 C3144 0.929 . S
H3137 C3146 0.930 . S
H3138 C3148 0.930 . S
H3139 C3151 0.929 . S
H3140 C3154 0.930 . S
H3141 C3156 0.960 . S
H3142 C3156 0.960 . S
H3143 C3156 0.960 . S
C3144 H3136 0.929 . S
C3144 C3145 1.377 . S
C3144 C3146 1.384 . S
C3145 C3144 1.377 . S
C3145 C3151 1.390 . S
C3146 H3137 0.930 . S
C3146 C3144 1.384 . S
C3146 C3147 1.372 . S
C3147 C3146 1.372 . S
C3147 C3148 1.400 . S
C3147 C3152 1.490 . S
C3148 H3138 0.930 . S
C3148 C3147 1.400 . S
C3148 C3151 1.386 . S
H3149 C3165 0.930 . S
H3150 C3166 0.931 . S
C3151 H3139 0.929 . S
C3151 C3145 1.390 . S
C3151 C3148 1.386 . S
C3152 C3147 1.490 . S
C3152 C3154 1.395 . S
C3152 C3155 1.403 . S
H3153 C3159 0.930 . S
C3154 H3140 0.930 . S
C3154 C3152 1.395 . S
C3154 C3157 1.403 . S
C3155 C3152 1.403 . S
C3155 C3156 1.524 . S
C3155 C3159 1.400 . S
C3156 H3141 0.960 . S
C3156 H3142 0.960 . S
C3156 H3143 0.960 . S
C3156 C3155 1.524 . S
C3157 C3154 1.403 . S
C3157 C3158 1.392 . S
C3157 C3161 1.495 . S
C3158 C3157 1.392 . S
C3158 C3159 1.385 . S
C3158 C3160 1.478 . S
C3159 H3153 0.930 . S
C3159 C3155 1.400 . S
C3159 C3158 1.385 . S
C3160 C3158 1.478 . S
C3160 C3162 1.381 . S
C3160 C3166 1.383 . S
C3161 C3157 1.495 . S
C3161 H3167 0.959 . S
C3161 H3168 0.961 . S
C3161 H3169 0.960 . S
C3162 C3160 1.381 . S
C3162 C3163 1.394 . S
C3162 H3170 0.930 . S
C3163 C3162 1.394 . S
C3163 C3164 1.383 . S
C3163 H3171 0.929 . S
C3164 C3163 1.383 . S
C3164 C3165 1.377 . S
C3165 H3149 0.930 . S
C3165 C3164 1.377 . S
C3165 C3166 1.379 . S
C3166 H3150 0.931 . S
C3166 C3160 1.383 . S
C3166 C3165 1.379 . S
H3167 C3161 0.959 . S
H3168 C3161 0.961 . S
H3169 C3161 0.960 . S
H3170 C3162 0.930 . S
H3171 C3163 0.929 . S
H3172 C3180 0.929 . S
H3173 C3182 0.930 . S
H3174 C3184 0.930 . S
H3175 C3187 0.929 . S
H3176 C3190 0.930 . S
H3177 C3192 0.960 . S
H3178 C3192 0.960 . S
H3179 C3192 0.960 . S
C3180 H3172 0.929 . S
C3180 C3181 1.377 . S
C3180 C3182 1.384 . S
C3181 C3180 1.377 . S
C3181 C3187 1.390 . S
C3182 H3173 0.930 . S
C3182 C3180 1.384 . S
C3182 C3183 1.372 . S
C3183 C3182 1.372 . S
C3183 C3184 1.400 . S
C3183 C3188 1.490 . S
C3184 H3174 0.930 . S
C3184 C3183 1.400 . S
C3184 C3187 1.386 . S
H3185 C3201 0.930 . S
H3186 C3202 0.931 . S
C3187 H3175 0.929 . S
C3187 C3181 1.390 . S
C3187 C3184 1.386 . S
C3188 C3183 1.490 . S
C3188 C3190 1.395 . S
C3188 C3191 1.403 . S
H3189 C3195 0.930 . S
C3190 H3176 0.930 . S
C3190 C3188 1.395 . S
C3190 C3193 1.403 . S
C3191 C3188 1.403 . S
C3191 C3192 1.524 . S
C3191 C3195 1.400 . S
C3192 H3177 0.960 . S
C3192 H3178 0.960 . S
C3192 H3179 0.960 . S
C3192 C3191 1.524 . S
C3193 C3190 1.403 . S
C3193 C3194 1.392 . S
C3193 C3197 1.495 . S
C3194 C3193 1.392 . S
C3194 C3195 1.385 . S
C3194 C3196 1.478 . S
C3195 H3189 0.930 . S
C3195 C3191 1.400 . S
C3195 C3194 1.385 . S
C3196 C3194 1.478 . S
C3196 C3198 1.381 . S
C3196 C3202 1.383 . S
C3197 C3193 1.495 . S
C3197 H3203 0.959 . S
C3197 H3204 0.961 . S
C3197 H3205 0.960 . S
C3198 C3196 1.381 . S
C3198 C3199 1.394 . S
C3198 H3206 0.930 . S
C3199 C3198 1.394 . S
C3199 C3200 1.383 . S
C3199 H3207 0.929 . S
C3200 C3199 1.383 . S
C3200 C3201 1.377 . S
C3201 H3185 0.930 . S
C3201 C3200 1.377 . S
C3201 C3202 1.379 . S
C3202 H3186 0.931 . S
C3202 C3196 1.383 . S
C3202 C3201 1.379 . S
H3203 C3197 0.959 . S
H3204 C3197 0.961 . S
H3205 C3197 0.960 . S
H3206 C3198 0.930 . S
H3207 C3199 0.929 . S
H3208 C3216 0.929 . S
H3209 C3218 0.930 . S
H3210 C3220 0.930 . S
H3211 C3223 0.929 . S
H3212 C3226 0.930 . S
H3213 C3228 0.960 . S
H3214 C3228 0.960 . S
H3215 C3228 0.960 . S
C3216 H3208 0.929 . S
C3216 C3217 1.377 . S
C3216 C3218 1.384 . S
C3217 C3216 1.377 . S
C3217 C3223 1.390 . S
C3218 H3209 0.930 . S
C3218 C3216 1.384 . S
C3218 C3219 1.372 . S
C3219 C3218 1.372 . S
C3219 C3220 1.400 . S
C3219 C3224 1.490 . S
C3220 H3210 0.930 . S
C3220 C3219 1.400 . S
C3220 C3223 1.386 . S
H3221 C3237 0.930 . S
H3222 C3238 0.931 . S
C3223 H3211 0.929 . S
C3223 C3217 1.390 . S
C3223 C3220 1.386 . S
C3224 C3219 1.490 . S
C3224 C3226 1.395 . S
C3224 C3227 1.403 . S
H3225 C3231 0.930 . S
C3226 H3212 0.930 . S
C3226 C3224 1.395 . S
C3226 C3229 1.403 . S
C3227 C3224 1.403 . S
C3227 C3228 1.524 . S
C3227 C3231 1.400 . S
C3228 H3213 0.960 . S
C3228 H3214 0.960 . S
C3228 H3215 0.960 . S
C3228 C3227 1.524 . S
C3229 C3226 1.403 . S
C3229 C3230 1.392 . S
C3229 C3233 1.495 . S
C3230 C3229 1.392 . S
C3230 C3231 1.385 . S
C3230 C3232 1.478 . S
C3231 H3225 0.930 . S
C3231 C3227 1.400 . S
C3231 C3230 1.385 . S
C3232 C3230 1.478 . S
C3232 C3234 1.381 . S
C3232 C3238 1.383 . S
C3233 C3229 1.495 . S
C3233 H3239 0.959 . S
C3233 H3240 0.961 . S
C3233 H3241 0.960 . S
C3234 C3232 1.381 . S
C3234 C3235 1.394 . S
C3234 H3242 0.930 . S
C3235 C3234 1.394 . S
C3235 C3236 1.383 . S
C3235 H3243 0.929 . S
C3236 C3235 1.383 . S
C3236 C3237 1.377 . S
C3237 H3221 0.930 . S
C3237 C3236 1.377 . S
C3237 C3238 1.379 . S
C3238 H3222 0.931 . S
C3238 C3232 1.383 . S
C3238 C3237 1.379 . S
H3239 C3233 0.959 . S
H3240 C3233 0.961 . S
H3241 C3233 0.960 . S
H3242 C3234 0.930 . S
H3243 C3235 0.929 . S
H3244 C3252 0.929 . S
H3245 C3254 0.930 . S
H3246 C3256 0.930 . S
H3247 C3259 0.929 . S
H3248 C3262 0.930 . S
H3249 C3264 0.960 . S
H3250 C3264 0.960 . S
H3251 C3264 0.960 . S
C3252 H3244 0.929 . S
C3252 C3253 1.377 . S
C3252 C3254 1.384 . S
C3253 C3252 1.377 . S
C3253 C3259 1.390 . S
C3254 H3245 0.930 . S
C3254 C3252 1.384 . S
C3254 C3255 1.372 . S
C3255 C3254 1.372 . S
C3255 C3256 1.400 . S
C3255 C3260 1.490 . S
C3256 H3246 0.930 . S
C3256 C3255 1.400 . S
C3256 C3259 1.386 . S
H3257 C3273 0.930 . S
H3258 C3274 0.931 . S
C3259 H3247 0.929 . S
C3259 C3253 1.390 . S
C3259 C3256 1.386 . S
C3260 C3255 1.490 . S
C3260 C3262 1.395 . S
C3260 C3263 1.403 . S
H3261 C3267 0.930 . S
C3262 H3248 0.930 . S
C3262 C3260 1.395 . S
C3262 C3265 1.403 . S
C3263 C3260 1.403 . S
C3263 C3264 1.524 . S
C3263 C3267 1.400 . S
C3264 H3249 0.960 . S
C3264 H3250 0.960 . S
C3264 H3251 0.960 . S
C3264 C3263 1.524 . S
C3265 C3262 1.403 . S
C3265 C3266 1.392 . S
C3265 C3269 1.495 . S
C3266 C3265 1.392 . S
C3266 C3267 1.385 . S
C3266 C3268 1.478 . S
C3267 H3261 0.930 . S
C3267 C3263 1.400 . S
C3267 C3266 1.385 . S
C3268 C3266 1.478 . S
C3268 C3270 1.381 . S
C3268 C3274 1.383 . S
C3269 C3265 1.495 . S
C3269 H3275 0.959 . S
C3269 H3276 0.961 . S
C3269 H3277 0.960 . S
C3270 C3268 1.381 . S
C3270 C3271 1.394 . S
C3270 H3278 0.930 . S
C3271 C3270 1.394 . S
C3271 C3272 1.383 . S
C3271 H3279 0.929 . S
C3272 C3271 1.383 . S
C3272 C3273 1.377 . S
C3273 H3257 0.930 . S
C3273 C3272 1.377 . S
C3273 C3274 1.379 . S
C3274 H3258 0.931 . S
C3274 C3268 1.383 . S
C3274 C3273 1.379 . S
H3275 C3269 0.959 . S
H3276 C3269 0.961 . S
H3277 C3269 0.960 . S
H3278 C3270 0.930 . S
H3279 C3271 0.929 . S
H3280 C3288 0.929 . S
H3281 C3290 0.930 . S
H3282 C3292 0.930 . S
H3283 C3295 0.929 . S
H3284 C3298 0.930 . S
H3285 C3300 0.960 . S
H3286 C3300 0.960 . S
H3287 C3300 0.960 . S
C3288 H3280 0.929 . S
C3288 C3289 1.377 . S
C3288 C3290 1.384 . S
C3289 C3288 1.377 . S
C3289 C3295 1.390 . S
C3290 H3281 0.930 . S
C3290 C3288 1.384 . S
C3290 C3291 1.372 . S
C3291 C3290 1.372 . S
C3291 C3292 1.400 . S
C3291 C3296 1.490 . S
C3292 H3282 0.930 . S
C3292 C3291 1.400 . S
C3292 C3295 1.386 . S
H3293 C3309 0.930 . S
H3294 C3310 0.931 . S
C3295 H3283 0.929 . S
C3295 C3289 1.390 . S
C3295 C3292 1.386 . S
C3296 C3291 1.490 . S
C3296 C3298 1.395 . S
C3296 C3299 1.403 . S
H3297 C3303 0.930 . S
C3298 H3284 0.930 . S
C3298 C3296 1.395 . S
C3298 C3301 1.403 . S
C3299 C3296 1.403 . S
C3299 C3300 1.524 . S
C3299 C3303 1.400 . S
C3300 H3285 0.960 . S
C3300 H3286 0.960 . S
C3300 H3287 0.960 . S
C3300 C3299 1.524 . S
C3301 C3298 1.403 . S
C3301 C3302 1.392 . S
C3301 C3305 1.495 . S
C3302 C3301 1.392 . S
C3302 C3303 1.385 . S
C3302 C3304 1.478 . S
C3303 H3297 0.930 . S
C3303 C3299 1.400 . S
C3303 C3302 1.385 . S
C3304 C3302 1.478 . S
C3304 C3306 1.381 . S
C3304 C3310 1.383 . S
C3305 C3301 1.495 . S
C3305 H3311 0.959 . S
C3305 H3312 0.961 . S
C3305 H3313 0.960 . S
C3306 C3304 1.381 . S
C3306 C3307 1.394 . S
C3306 H3314 0.930 . S
C3307 C3306 1.394 . S
C3307 C3308 1.383 . S
C3307 H3315 0.929 . S
C3308 C3307 1.383 . S
C3308 C3309 1.377 . S
C3309 H3293 0.930 . S
C3309 C3308 1.377 . S
C3309 C3310 1.379 . S
C3310 H3294 0.931 . S
C3310 C3304 1.383 . S
C3310 C3309 1.379 . S
H3311 C3305 0.959 . S
H3312 C3305 0.961 . S
H3313 C3305 0.960 . S
H3314 C3306 0.930 . S
H3315 C3307 0.929 . S
H3316 C3324 0.929 . S
H3317 C3326 0.930 . S
H3318 C3328 0.930 . S
H3319 C3331 0.929 . S
H3320 C3334 0.930 . S
H3321 C3336 0.960 . S
H3322 C3336 0.960 . S
H3323 C3336 0.960 . S
C3324 H3316 0.929 . S
C3324 C3325 1.377 . S
C3324 C3326 1.384 . S
C3325 C3324 1.377 . S
C3325 C3331 1.390 . S
C3326 H3317 0.930 . S
C3326 C3324 1.384 . S
C3326 C3327 1.372 . S
C3327 C3326 1.372 . S
C3327 C3328 1.400 . S
C3327 C3332 1.490 . S
C3328 H3318 0.930 . S
C3328 C3327 1.400 . S
C3328 C3331 1.386 . S
H3329 C3345 0.930 . S
H3330 C3346 0.931 . S
C3331 H3319 0.929 . S
C3331 C3325 1.390 . S
C3331 C3328 1.386 . S
C3332 C3327 1.490 . S
C3332 C3334 1.395 . S
C3332 C3335 1.403 . S
H3333 C3339 0.930 . S
C3334 H3320 0.930 . S
C3334 C3332 1.395 . S
C3334 C3337 1.403 . S
C3335 C3332 1.403 . S
C3335 C3336 1.524 . S
C3335 C3339 1.400 . S
C3336 H3321 0.960 . S
C3336 H3322 0.960 . S
C3336 H3323 0.960 . S
C3336 C3335 1.524 . S
C3337 C3334 1.403 . S
C3337 C3338 1.392 . S
C3337 C3341 1.495 . S
C3338 C3337 1.392 . S
C3338 C3339 1.385 . S
C3338 C3340 1.478 . S
C3339 H3333 0.930 . S
C3339 C3335 1.400 . S
C3339 C3338 1.385 . S
C3340 C3338 1.478 . S
C3340 C3342 1.381 . S
C3340 C3346 1.383 . S
C3341 C3337 1.495 . S
C3341 H3347 0.959 . S
C3341 H3348 0.961 . S
C3341 H3349 0.960 . S
C3342 C3340 1.381 . S
C3342 C3343 1.394 . S
C3342 H3350 0.930 . S
C3343 C3342 1.394 . S
C3343 C3344 1.383 . S
C3343 H3351 0.929 . S
C3344 C3343 1.383 . S
C3344 C3345 1.377 . S
C3345 H3329 0.930 . S
C3345 C3344 1.377 . S
C3345 C3346 1.379 . S
C3346 H3330 0.931 . S
C3346 C3340 1.383 . S
C3346 C3345 1.379 . S
H3347 C3341 0.959 . S
H3348 C3341 0.961 . S
H3349 C3341 0.960 . S
H3350 C3342 0.930 . S
H3351 C3343 0.929 . S
H3352 C3360 0.929 . S
H3353 C3362 0.930 . S
H3354 C3364 0.930 . S
H3355 C3367 0.929 . S
H3356 C3370 0.930 . S
H3357 C3372 0.960 . S
H3358 C3372 0.960 . S
H3359 C3372 0.960 . S
C3360 H3352 0.929 . S
C3360 C3361 1.377 . S
C3360 C3362 1.384 . S
C3361 C3360 1.377 . S
C3361 C3367 1.390 . S
C3362 H3353 0.930 . S
C3362 C3360 1.384 . S
C3362 C3363 1.372 . S
C3363 C3362 1.372 . S
C3363 C3364 1.400 . S
C3363 C3368 1.490 . S
C3364 H3354 0.930 . S
C3364 C3363 1.400 . S
C3364 C3367 1.386 . S
H3365 C3381 0.930 . S
H3366 C3382 0.931 . S
C3367 H3355 0.929 . S
C3367 C3361 1.390 . S
C3367 C3364 1.386 . S
C3368 C3363 1.490 . S
C3368 C3370 1.395 . S
C3368 C3371 1.403 . S
H3369 C3375 0.930 . S
C3370 H3356 0.930 . S
C3370 C3368 1.395 . S
C3370 C3373 1.403 . S
C3371 C3368 1.403 . S
C3371 C3372 1.524 . S
C3371 C3375 1.400 . S
C3372 H3357 0.960 . S
C3372 H3358 0.960 . S
C3372 H3359 0.960 . S
C3372 C3371 1.524 . S
C3373 C3370 1.403 . S
C3373 C3374 1.392 . S
C3373 C3377 1.495 . S
C3374 C3373 1.392 . S
C3374 C3375 1.385 . S
C3374 C3376 1.478 . S
C3375 H3369 0.930 . S
C3375 C3371 1.400 . S
C3375 C3374 1.385 . S
C3376 C3374 1.478 . S
C3376 C3378 1.381 . S
C3376 C3382 1.383 . S
C3377 C3373 1.495 . S
C3377 H3383 0.959 . S
C3377 H3384 0.961 . S
C3377 H3385 0.960 . S
C3378 C3376 1.381 . S
C3378 C3379 1.394 . S
C3378 H3386 0.930 . S
C3379 C3378 1.394 . S
C3379 C3380 1.383 . S
C3379 H3387 0.929 . S
C3380 C3379 1.383 . S
C3380 C3381 1.377 . S
C3381 H3365 0.930 . S
C3381 C3380 1.377 . S
C3381 C3382 1.379 . S
C3382 H3366 0.931 . S
C3382 C3376 1.383 . S
C3382 C3381 1.379 . S
H3383 C3377 0.959 . S
H3384 C3377 0.961 . S
H3385 C3377 0.960 . S
H3386 C3378 0.930 . S
H3387 C3379 0.929 . S
H3388 C3396 0.929 . S
H3389 C3398 0.930 . S
H3390 C3400 0.930 . S
H3391 C3403 0.929 . S
H3392 C3406 0.930 . S
H3393 C3408 0.960 . S
H3394 C3408 0.960 . S
H3395 C3408 0.960 . S
C3396 H3388 0.929 . S
C3396 C3397 1.377 . S
C3396 C3398 1.384 . S
C3397 C3396 1.377 . S
C3397 C3403 1.390 . S
C3398 H3389 0.930 . S
C3398 C3396 1.384 . S
C3398 C3399 1.372 . S
C3399 C3398 1.372 . S
C3399 C3400 1.400 . S
C3399 C3404 1.490 . S
C3400 H3390 0.930 . S
C3400 C3399 1.400 . S
C3400 C3403 1.386 . S
H3401 C3417 0.930 . S
H3402 C3418 0.931 . S
C3403 H3391 0.929 . S
C3403 C3397 1.390 . S
C3403 C3400 1.386 . S
C3404 C3399 1.490 . S
C3404 C3406 1.395 . S
C3404 C3407 1.403 . S
H3405 C3411 0.930 . S
C3406 H3392 0.930 . S
C3406 C3404 1.395 . S
C3406 C3409 1.403 . S
C3407 C3404 1.403 . S
C3407 C3408 1.524 . S
C3407 C3411 1.400 . S
C3408 H3393 0.960 . S
C3408 H3394 0.960 . S
C3408 H3395 0.960 . S
C3408 C3407 1.524 . S
C3409 C3406 1.403 . S
C3409 C3410 1.392 . S
C3409 C3413 1.495 . S
C3410 C3409 1.392 . S
C3410 C3411 1.385 . S
C3410 C3412 1.478 . S
C3411 H3405 0.930 . S
C3411 C3407 1.400 . S
C3411 C3410 1.385 . S
C3412 C3410 1.478 . S
C3412 C3414 1.381 . S
C3412 C3418 1.383 . S
C3413 C3409 1.495 . S
C3413 H3419 0.959 . S
C3413 H3420 0.961 . S
C3413 H3421 0.960 . S
C3414 C3412 1.381 . S
C3414 C3415 1.394 . S
C3414 H3422 0.930 . S
C3415 C3414 1.394 . S
C3415 C3416 1.383 . S
C3415 H3423 0.929 1_565 S
C3416 C3415 1.383 . S
C3416 C3417 1.377 . S
C3417 H3401 0.930 . S
C3417 C3416 1.377 . S
C3417 C3418 1.379 . S
C3418 H3402 0.931 . S
C3418 C3412 1.383 . S
C3418 C3417 1.379 . S
H3419 C3413 0.959 . S
H3420 C3413 0.961 . S
H3421 C3413 0.960 . S
H3422 C3414 0.930 . S
H3423 C3415 0.929 1_545 S
H3424 C3432 0.929 . S
H3425 C3434 0.930 . S
H3426 C3436 0.930 . S
H3427 C3439 0.929 . S
H3428 C3442 0.930 . S
H3429 C3444 0.960 . S
H3430 C3444 0.960 . S
H3431 C3444 0.960 . S
C3432 H3424 0.929 . S
C3432 C3433 1.377 . S
C3432 C3434 1.384 . S
C3433 C3432 1.377 . S
C3433 C3439 1.390 . S
C3434 H3425 0.930 . S
C3434 C3432 1.384 . S
C3434 C3435 1.372 . S
C3435 C3434 1.372 . S
C3435 C3436 1.400 . S
C3435 C3440 1.490 . S
C3436 H3426 0.930 . S
C3436 C3435 1.400 . S
C3436 C3439 1.386 . S
H3437 C3453 0.930 . S
H3438 C3454 0.931 . S
C3439 H3427 0.929 . S
C3439 C3433 1.390 . S
C3439 C3436 1.386 . S
C3440 C3435 1.490 . S
C3440 C3442 1.395 . S
C3440 C3443 1.403 . S
H3441 C3447 0.930 . S
C3442 H3428 0.930 . S
C3442 C3440 1.395 . S
C3442 C3445 1.403 . S
C3443 C3440 1.403 . S
C3443 C3444 1.524 . S
C3443 C3447 1.400 . S
C3444 H3429 0.960 . S
C3444 H3430 0.960 . S
C3444 H3431 0.960 . S
C3444 C3443 1.524 . S
C3445 C3442 1.403 . S
C3445 C3446 1.392 . S
C3445 C3449 1.495 . S
C3446 C3445 1.392 . S
C3446 C3447 1.385 . S
C3446 C3448 1.478 . S
C3447 H3441 0.930 . S
C3447 C3443 1.400 . S
C3447 C3446 1.385 . S
C3448 C3446 1.478 . S
C3448 C3450 1.381 . S
C3448 C3454 1.383 . S
C3449 C3445 1.495 . S
C3449 H3455 0.959 . S
C3449 H3456 0.961 . S
C3449 H3457 0.960 . S
C3450 C3448 1.381 . S
C3450 C3451 1.394 . S
C3450 H3458 0.930 . S
C3451 C3450 1.394 . S
C3451 C3452 1.383 . S
C3451 H3459 0.929 . S
C3452 C3451 1.383 . S
C3452 C3453 1.377 . S
C3453 H3437 0.930 . S
C3453 C3452 1.377 . S
C3453 C3454 1.379 . S
C3454 H3438 0.931 . S
C3454 C3448 1.383 . S
C3454 C3453 1.379 . S
H3455 C3449 0.959 . S
H3456 C3449 0.961 . S
H3457 C3449 0.960 . S
H3458 C3450 0.930 . S
H3459 C3451 0.929 . S
H3460 C3468 0.929 . S
H3461 C3470 0.930 . S
H3462 C3472 0.930 . S
H3463 C3475 0.929 . S
H3464 C3478 0.930 . S
H3465 C3480 0.960 . S
H3466 C3480 0.960 . S
H3467 C3480 0.960 . S
C3468 H3460 0.929 . S
C3468 C3469 1.377 . S
C3468 C3470 1.384 . S
C3469 C3468 1.377 . S
C3469 C3475 1.390 . S
C3470 H3461 0.930 . S
C3470 C3468 1.384 . S
C3470 C3471 1.372 . S
C3471 C3470 1.372 . S
C3471 C3472 1.400 . S
C3471 C3476 1.490 . S
C3472 H3462 0.930 . S
C3472 C3471 1.400 . S
C3472 C3475 1.386 . S
H3473 C3489 0.930 . S
H3474 C3490 0.931 . S
C3475 H3463 0.929 . S
C3475 C3469 1.390 . S
C3475 C3472 1.386 . S
C3476 C3471 1.490 . S
C3476 C3478 1.395 . S
C3476 C3479 1.403 . S
H3477 C3483 0.930 . S
C3478 H3464 0.930 . S
C3478 C3476 1.395 . S
C3478 C3481 1.403 . S
C3479 C3476 1.403 . S
C3479 C3480 1.524 . S
C3479 C3483 1.400 . S
C3480 H3465 0.960 . S
C3480 H3466 0.960 . S
C3480 H3467 0.960 . S
C3480 C3479 1.524 . S
C3481 C3478 1.403 . S
C3481 C3482 1.392 . S
C3481 C3485 1.495 . S
C3482 C3481 1.392 . S
C3482 C3483 1.385 . S
C3482 C3484 1.478 . S
C3483 H3477 0.930 . S
C3483 C3479 1.400 . S
C3483 C3482 1.385 . S
C3484 C3482 1.478 . S
C3484 C3486 1.381 . S
C3484 C3490 1.383 . S
C3485 C3481 1.495 . S
C3485 H3491 0.959 . S
C3485 H3492 0.961 . S
C3485 H3493 0.960 . S
C3486 C3484 1.381 . S
C3486 C3487 1.394 . S
C3486 H3494 0.930 . S
C3487 C3486 1.394 . S
C3487 C3488 1.383 . S
C3487 H3495 0.929 . S
C3488 C3487 1.383 . S
C3488 C3489 1.377 . S
C3489 H3473 0.930 . S
C3489 C3488 1.377 . S
C3489 C3490 1.379 . S
C3490 H3474 0.931 . S
C3490 C3484 1.383 . S
C3490 C3489 1.379 . S
H3491 C3485 0.959 . S
H3492 C3485 0.961 . S
H3493 C3485 0.960 . S
H3494 C3486 0.930 . S
H3495 C3487 0.929 . S
H3496 C3504 0.929 . S
H3497 C3506 0.930 . S
H3498 C3508 0.930 . S
H3499 C3511 0.929 . S
H3500 C3514 0.930 . S
H3501 C3516 0.960 . S
H3502 C3516 0.960 . S
H3503 C3516 0.960 . S
C3504 H3496 0.929 . S
C3504 C3505 1.377 . S
C3504 C3506 1.384 . S
C3505 C3504 1.377 . S
C3505 C3511 1.390 . S
C3506 H3497 0.930 . S
C3506 C3504 1.384 . S
C3506 C3507 1.372 . S
C3507 C3506 1.372 . S
C3507 C3508 1.400 . S
C3507 C3512 1.490 . S
C3508 H3498 0.930 . S
C3508 C3507 1.400 . S
C3508 C3511 1.386 . S
H3509 C3525 0.930 . S
H3510 C3526 0.931 . S
C3511 H3499 0.929 . S
C3511 C3505 1.390 . S
C3511 C3508 1.386 . S
C3512 C3507 1.490 . S
C3512 C3514 1.395 . S
C3512 C3515 1.403 . S
H3513 C3519 0.930 . S
C3514 H3500 0.930 . S
C3514 C3512 1.395 . S
C3514 C3517 1.403 . S
C3515 C3512 1.403 . S
C3515 C3516 1.524 . S
C3515 C3519 1.400 . S
C3516 H3501 0.960 . S
C3516 H3502 0.960 . S
C3516 H3503 0.960 . S
C3516 C3515 1.524 . S
C3517 C3514 1.403 . S
C3517 C3518 1.392 . S
C3517 C3521 1.495 . S
C3518 C3517 1.392 . S
C3518 C3519 1.385 . S
C3518 C3520 1.478 . S
C3519 H3513 0.930 . S
C3519 C3515 1.400 . S
C3519 C3518 1.385 . S
C3520 C3518 1.478 . S
C3520 C3522 1.381 . S
C3520 C3526 1.383 . S
C3521 C3517 1.495 . S
C3521 H3527 0.959 . S
C3521 H3528 0.961 . S
C3521 H3529 0.960 . S
C3522 C3520 1.381 . S
C3522 C3523 1.394 . S
C3522 H3530 0.930 . S
C3523 C3522 1.394 . S
C3523 C3524 1.383 . S
C3523 H3531 0.929 . S
C3524 C3523 1.383 . S
C3524 C3525 1.377 . S
C3525 H3509 0.930 . S
C3525 C3524 1.377 . S
C3525 C3526 1.379 . S
C3526 H3510 0.931 . S
C3526 C3520 1.383 . S
C3526 C3525 1.379 . S
H3527 C3521 0.959 . S
H3528 C3521 0.961 . S
H3529 C3521 0.960 . S
H3530 C3522 0.930 . S
H3531 C3523 0.929 . S
H3532 C3540 0.929 . S
H3533 C3542 0.930 . S
H3534 C3544 0.930 . S
H3535 C3547 0.929 . S
H3536 C3550 0.930 . S
H3537 C3552 0.960 . S
H3538 C3552 0.960 . S
H3539 C3552 0.960 . S
C3540 H3532 0.929 . S
C3540 C3541 1.377 . S
C3540 C3542 1.384 1_545 S
C3541 C3540 1.377 . S
C3541 C3547 1.390 . S
C3542 H3533 0.930 . S
C3542 C3540 1.384 1_565 S
C3542 C3543 1.372 . S
C3543 C3542 1.372 . S
C3543 C3544 1.400 . S
C3543 C3548 1.490 . S
C3544 H3534 0.930 . S
C3544 C3543 1.400 . S
C3544 C3547 1.386 1_565 S
H3545 C3561 0.930 . S
H3546 C3562 0.931 . S
C3547 H3535 0.929 . S
C3547 C3541 1.390 . S
C3547 C3544 1.386 1_545 S
C3548 C3543 1.490 . S
C3548 C3550 1.395 . S
C3548 C3551 1.403 . S
H3549 C3555 0.930 . S
C3550 H3536 0.930 . S
C3550 C3548 1.395 . S
C3550 C3553 1.403 . S
C3551 C3548 1.403 . S
C3551 C3552 1.524 . S
C3551 C3555 1.400 . S
C3552 H3537 0.960 . S
C3552 H3538 0.960 . S
C3552 H3539 0.960 . S
C3552 C3551 1.524 . S
C3553 C3550 1.403 . S
C3553 C3554 1.392 . S
C3553 C3557 1.495 . S
C3554 C3553 1.392 . S
C3554 C3555 1.385 . S
C3554 C3556 1.478 . S
C3555 H3549 0.930 . S
C3555 C3551 1.400 . S
C3555 C3554 1.385 . S
C3556 C3554 1.478 . S
C3556 C3558 1.381 . S
C3556 C3562 1.383 . S
C3557 C3553 1.495 . S
C3557 H3563 0.959 . S
C3557 H3564 0.961 . S
C3557 H3565 0.960 . S
C3558 C3556 1.381 . S
C3558 C3559 1.394 . S
C3558 H3566 0.930 . S
C3559 C3558 1.394 . S
C3559 C3560 1.383 . S
C3559 H3567 0.929 . S
C3560 C3559 1.383 . S
C3560 C3561 1.377 . S
C3561 H3545 0.930 . S
C3561 C3560 1.377 . S
C3561 C3562 1.379 . S
C3562 H3546 0.931 . S
C3562 C3556 1.383 . S
C3562 C3561 1.379 . S
H3563 C3557 0.959 . S
H3564 C3557 0.961 . S
H3565 C3557 0.960 . S
H3566 C3558 0.930 . S
H3567 C3559 0.929 . S
H3568 C3576 0.929 . S
H3569 C3578 0.930 . S
H3570 C3580 0.930 . S
H3571 C3583 0.929 . S
H3572 C3586 0.930 . S
H3573 C3588 0.960 . S
H3574 C3588 0.960 . S
H3575 C3588 0.960 . S
C3576 H3568 0.929 . S
C3576 C3577 1.377 . S
C3576 C3578 1.384 . S
C3577 C3576 1.377 . S
C3577 C3583 1.390 . S
C3578 H3569 0.930 . S
C3578 C3576 1.384 . S
C3578 C3579 1.372 . S
C3579 C3578 1.372 . S
C3579 C3580 1.400 . S
C3579 C3584 1.490 . S
C3580 H3570 0.930 . S
C3580 C3579 1.400 . S
C3580 C3583 1.386 . S
H3581 C3597 0.930 . S
H3582 C3598 0.931 . S
C3583 H3571 0.929 . S
C3583 C3577 1.390 . S
C3583 C3580 1.386 . S
C3584 C3579 1.490 . S
C3584 C3586 1.395 . S
C3584 C3587 1.403 . S
H3585 C3591 0.930 . S
C3586 H3572 0.930 . S
C3586 C3584 1.395 . S
C3586 C3589 1.403 . S
C3587 C3584 1.403 . S
C3587 C3588 1.524 . S
C3587 C3591 1.400 . S
C3588 H3573 0.960 . S
C3588 H3574 0.960 . S
C3588 H3575 0.960 . S
C3588 C3587 1.524 . S
C3589 C3586 1.403 . S
C3589 C3590 1.392 . S
C3589 C3593 1.495 . S
C3590 C3589 1.392 . S
C3590 C3591 1.385 . S
C3590 C3592 1.478 . S
C3591 H3585 0.930 . S
C3591 C3587 1.400 . S
C3591 C3590 1.385 . S
C3592 C3590 1.478 . S
C3592 C3594 1.381 . S
C3592 C3598 1.383 . S
C3593 C3589 1.495 . S
C3593 H3599 0.959 . S
C3593 H3600 0.961 . S
C3593 H3601 0.960 . S
C3594 C3592 1.381 . S
C3594 C3595 1.394 . S
C3594 H3602 0.930 . S
C3595 C3594 1.394 . S
C3595 C3596 1.383 . S
C3595 H3603 0.929 . S
C3596 C3595 1.383 . S
C3596 C3597 1.377 . S
C3597 H3581 0.930 . S
C3597 C3596 1.377 . S
C3597 C3598 1.379 . S
C3598 H3582 0.931 . S
C3598 C3592 1.383 . S
C3598 C3597 1.379 . S
H3599 C3593 0.959 . S
H3600 C3593 0.961 . S
H3601 C3593 0.960 . S
H3602 C3594 0.930 . S
H3603 C3595 0.929 . S
H3604 C3612 0.929 . S
H3605 C3614 0.930 . S
H3606 C3616 0.930 . S
H3607 C3619 0.929 . S
H3608 C3622 0.930 . S
H3609 C3624 0.960 . S
H3610 C3624 0.960 . S
H3611 C3624 0.960 . S
C3612 H3604 0.929 . S
C3612 C3613 1.377 . S
C3612 C3614 1.384 . S
C3613 C3612 1.377 . S
C3613 C3619 1.390 . S
C3614 H3605 0.930 . S
C3614 C3612 1.384 . S
C3614 C3615 1.372 . S
C3615 C3614 1.372 . S
C3615 C3616 1.400 . S
C3615 C3620 1.490 . S
C3616 H3606 0.930 . S
C3616 C3615 1.400 . S
C3616 C3619 1.386 . S
H3617 C3633 0.930 . S
H3618 C3634 0.931 . S
C3619 H3607 0.929 . S
C3619 C3613 1.390 . S
C3619 C3616 1.386 . S
C3620 C3615 1.490 . S
C3620 C3622 1.395 . S
C3620 C3623 1.403 . S
H3621 C3627 0.930 . S
C3622 H3608 0.930 . S
C3622 C3620 1.395 . S
C3622 C3625 1.403 . S
C3623 C3620 1.403 . S
C3623 C3624 1.524 . S
C3623 C3627 1.400 . S
C3624 H3609 0.960 . S
C3624 H3610 0.960 . S
C3624 H3611 0.960 . S
C3624 C3623 1.524 . S
C3625 C3622 1.403 . S
C3625 C3626 1.392 . S
C3625 C3629 1.495 . S
C3626 C3625 1.392 . S
C3626 C3627 1.385 . S
C3626 C3628 1.478 . S
C3627 H3621 0.930 . S
C3627 C3623 1.400 . S
C3627 C3626 1.385 . S
C3628 C3626 1.478 . S
C3628 C3630 1.381 . S
C3628 C3634 1.383 . S
C3629 C3625 1.495 . S
C3629 H3635 0.959 . S
C3629 H3636 0.961 . S
C3629 H3637 0.960 . S
C3630 C3628 1.381 . S
C3630 C3631 1.394 . S
C3630 H3638 0.930 . S
C3631 C3630 1.394 . S
C3631 C3632 1.383 . S
C3631 H3639 0.929 . S
C3632 C3631 1.383 . S
C3632 C3633 1.377 . S
C3633 H3617 0.930 . S
C3633 C3632 1.377 . S
C3633 C3634 1.379 . S
C3634 H3618 0.931 . S
C3634 C3628 1.383 . S
C3634 C3633 1.379 . S
H3635 C3629 0.959 . S
H3636 C3629 0.961 . S
H3637 C3629 0.960 . S
H3638 C3630 0.930 . S
H3639 C3631 0.929 . S
H3640 C3648 0.929 . S
H3641 C3650 0.930 . S
H3642 C3652 0.930 . S
H3643 C3655 0.929 . S
H3644 C3658 0.930 . S
H3645 C3660 0.960 . S
H3646 C3660 0.960 . S
H3647 C3660 0.960 . S
C3648 H3640 0.929 . S
C3648 C3649 1.377 . S
C3648 C3650 1.384 . S
C3649 C3648 1.377 . S
C3649 C3655 1.390 . S
C3650 H3641 0.930 . S
C3650 C3648 1.384 . S
C3650 C3651 1.372 . S
C3651 C3650 1.372 . S
C3651 C3652 1.400 . S
C3651 C3656 1.490 . S
C3652 H3642 0.930 . S
C3652 C3651 1.400 . S
C3652 C3655 1.386 . S
H3653 C3669 0.930 . S
H3654 C3670 0.931 . S
C3655 H3643 0.929 . S
C3655 C3649 1.390 . S
C3655 C3652 1.386 . S
C3656 C3651 1.490 . S
C3656 C3658 1.395 . S
C3656 C3659 1.403 . S
H3657 C3663 0.930 . S
C3658 H3644 0.930 . S
C3658 C3656 1.395 . S
C3658 C3661 1.403 . S
C3659 C3656 1.403 . S
C3659 C3660 1.524 . S
C3659 C3663 1.400 . S
C3660 H3645 0.960 . S
C3660 H3646 0.960 . S
C3660 H3647 0.960 . S
C3660 C3659 1.524 . S
C3661 C3658 1.403 . S
C3661 C3662 1.392 . S
C3661 C3665 1.495 . S
C3662 C3661 1.392 . S
C3662 C3663 1.385 . S
C3662 C3664 1.478 . S
C3663 H3657 0.930 . S
C3663 C3659 1.400 . S
C3663 C3662 1.385 . S
C3664 C3662 1.478 . S
C3664 C3666 1.381 . S
C3664 C3670 1.383 . S
C3665 C3661 1.495 . S
C3665 H3671 0.959 . S
C3665 H3672 0.961 . S
C3665 H3673 0.960 . S
C3666 C3664 1.381 . S
C3666 C3667 1.394 . S
C3666 H3674 0.930 . S
C3667 C3666 1.394 . S
C3667 C3668 1.383 . S
C3667 H3675 0.929 . S
C3668 C3667 1.383 . S
C3668 C3669 1.377 . S
C3669 H3653 0.930 . S
C3669 C3668 1.377 . S
C3669 C3670 1.379 . S
C3670 H3654 0.931 . S
C3670 C3664 1.383 . S
C3670 C3669 1.379 . S
H3671 C3665 0.959 . S
H3672 C3665 0.961 . S
H3673 C3665 0.960 . S
H3674 C3666 0.930 . S
H3675 C3667 0.929 . S
H3676 C3684 0.929 . S
H3677 C3686 0.930 . S
H3678 C3688 0.930 . S
H3679 C3691 0.929 . S
H3680 C3694 0.930 . S
H3681 C3696 0.960 . S
H3682 C3696 0.960 . S
H3683 C3696 0.960 . S
C3684 H3676 0.929 . S
C3684 C3685 1.377 . S
C3684 C3686 1.384 . S
C3685 C3684 1.377 . S
C3685 C3691 1.390 . S
C3686 H3677 0.930 . S
C3686 C3684 1.384 . S
C3686 C3687 1.372 . S
C3687 C3686 1.372 . S
C3687 C3688 1.400 . S
C3687 C3692 1.490 . S
C3688 H3678 0.930 . S
C3688 C3687 1.400 . S
C3688 C3691 1.386 . S
H3689 C3705 0.930 . S
H3690 C3706 0.931 . S
C3691 H3679 0.929 . S
C3691 C3685 1.390 . S
C3691 C3688 1.386 . S
C3692 C3687 1.490 . S
C3692 C3694 1.395 . S
C3692 C3695 1.403 . S
H3693 C3699 0.930 . S
C3694 H3680 0.930 . S
C3694 C3692 1.395 . S
C3694 C3697 1.403 . S
C3695 C3692 1.403 . S
C3695 C3696 1.524 . S
C3695 C3699 1.400 . S
C3696 H3681 0.960 . S
C3696 H3682 0.960 . S
C3696 H3683 0.960 . S
C3696 C3695 1.524 . S
C3697 C3694 1.403 . S
C3697 C3698 1.392 . S
C3697 C3701 1.495 . S
C3698 C3697 1.392 . S
C3698 C3699 1.385 . S
C3698 C3700 1.478 . S
C3699 H3693 0.930 . S
C3699 C3695 1.400 . S
C3699 C3698 1.385 . S
C3700 C3698 1.478 . S
C3700 C3702 1.381 . S
C3700 C3706 1.383 . S
C3701 C3697 1.495 . S
C3701 H3707 0.959 . S
C3701 H3708 0.961 . S
C3701 H3709 0.960 . S
C3702 C3700 1.381 . S
C3702 C3703 1.394 . S
C3702 H3710 0.930 . S
C3703 C3702 1.394 . S
C3703 C3704 1.383 . S
C3703 H3711 0.929 . S
C3704 C3703 1.383 . S
C3704 C3705 1.377 . S
C3705 H3689 0.930 . S
C3705 C3704 1.377 . S
C3705 C3706 1.379 . S
C3706 H3690 0.931 . S
C3706 C3700 1.383 . S
C3706 C3705 1.379 . S
H3707 C3701 0.959 . S
H3708 C3701 0.961 . S
H3709 C3701 0.960 . S
H3710 C3702 0.930 . S
H3711 C3703 0.929 . S
H3712 C3720 0.929 . S
H3713 C3722 0.930 . S
H3714 C3724 0.930 . S
H3715 C3727 0.929 . S
H3716 C3730 0.930 . S
H3717 C3732 0.960 . S
H3718 C3732 0.960 . S
H3719 C3732 0.960 . S
C3720 H3712 0.929 . S
C3720 C3721 1.377 . S
C3720 C3722 1.384 . S
C3721 C3720 1.377 . S
C3721 C3727 1.390 . S
C3722 H3713 0.930 . S
C3722 C3720 1.384 . S
C3722 C3723 1.372 . S
C3723 C3722 1.372 . S
C3723 C3724 1.400 . S
C3723 C3728 1.490 . S
C3724 H3714 0.930 . S
C3724 C3723 1.400 . S
C3724 C3727 1.386 . S
H3725 C3741 0.930 . S
H3726 C3742 0.931 . S
C3727 H3715 0.929 . S
C3727 C3721 1.390 . S
C3727 C3724 1.386 . S
C3728 C3723 1.490 . S
C3728 C3730 1.395 . S
C3728 C3731 1.403 . S
H3729 C3735 0.930 . S
C3730 H3716 0.930 . S
C3730 C3728 1.395 . S
C3730 C3733 1.403 . S
C3731 C3728 1.403 . S
C3731 C3732 1.524 . S
C3731 C3735 1.400 . S
C3732 H3717 0.960 . S
C3732 H3718 0.960 . S
C3732 H3719 0.960 . S
C3732 C3731 1.524 . S
C3733 C3730 1.403 . S
C3733 C3734 1.392 . S
C3733 C3737 1.495 1_556 S
C3734 C3733 1.392 . S
C3734 C3735 1.385 . S
C3734 C3736 1.478 . S
C3735 H3729 0.930 . S
C3735 C3731 1.400 . S
C3735 C3734 1.385 . S
C3736 C3734 1.478 . S
C3736 C3738 1.381 . S
C3736 C3742 1.383 . S
C3737 C3733 1.495 1_554 S
C3737 H3743 0.959 . S
C3737 H3744 0.961 . S
C3737 H3745 0.960 . S
C3738 C3736 1.381 . S
C3738 C3739 1.402 . S
C3738 H3746 0.930 . S
C3739 C3738 1.402 . S
C3739 C3740 1.379 1_556 S
C3739 H3747 0.925 1_556 S
C3740 C3739 1.379 1_554 S
C3740 C3741 1.377 1_554 S
C3741 H3725 0.930 . S
C3741 C3740 1.377 1_556 S
C3741 C3742 1.379 . S
C3742 H3726 0.931 . S
C3742 C3736 1.383 . S
C3742 C3741 1.379 . S
H3743 C3737 0.959 . S
H3744 C3737 0.961 . S
H3745 C3737 0.960 . S
H3746 C3738 0.930 . S
H3747 C3739 0.925 1_554 S
H3748 C3756 0.929 . S
H3749 C3758 0.930 . S
H3750 C3760 0.930 . S
H3751 C3763 0.929 . S
H3752 C3766 0.930 . S
H3753 C3768 0.960 . S
H3754 C3768 0.960 . S
H3755 C3768 0.960 . S
C3756 H3748 0.929 . S
C3756 C3757 1.377 . S
C3756 C3758 1.384 . S
C3757 C3756 1.377 . S
C3757 C3763 1.390 . S
C3758 H3749 0.930 . S
C3758 C3756 1.384 . S
C3758 C3759 1.372 . S
C3759 C3758 1.372 . S
C3759 C3760 1.400 . S
C3759 C3764 1.490 . S
C3760 H3750 0.930 . S
C3760 C3759 1.400 . S
C3760 C3763 1.386 . S
H3761 C3777 0.930 . S
H3762 C3778 0.931 . S
C3763 H3751 0.929 . S
C3763 C3757 1.390 . S
C3763 C3760 1.386 . S
C3764 C3759 1.490 . S
C3764 C3766 1.395 . S
C3764 C3767 1.403 . S
H3765 C3771 0.930 . S
C3766 H3752 0.930 . S
C3766 C3764 1.395 . S
C3766 C3769 1.403 . S
C3767 C3764 1.403 . S
C3767 C3768 1.524 . S
C3767 C3771 1.400 . S
C3768 H3753 0.960 . S
C3768 H3754 0.960 . S
C3768 H3755 0.960 . S
C3768 C3767 1.524 . S
C3769 C3766 1.403 . S
C3769 C3770 1.392 . S
C3769 C3773 1.495 . S
C3770 C3769 1.392 . S
C3770 C3771 1.385 . S
C3770 C3772 1.478 . S
C3771 H3765 0.930 . S
C3771 C3767 1.400 . S
C3771 C3770 1.385 . S
C3772 C3770 1.478 . S
C3772 C3774 1.381 . S
C3772 C3778 1.383 . S
C3773 C3769 1.495 . S
C3773 H3779 0.959 . S
C3773 H3780 0.961 . S
C3773 H3781 0.960 . S
C3774 C3772 1.381 . S
C3774 C3775 1.394 . S
C3774 H3782 0.930 . S
C3775 C3774 1.394 . S
C3775 C3776 1.383 . S
C3775 H3783 0.929 . S
C3776 C3775 1.383 . S
C3776 C3777 1.377 . S
C3777 H3761 0.930 . S
C3777 C3776 1.377 . S
C3777 C3778 1.379 . S
C3778 H3762 0.931 . S
C3778 C3772 1.383 . S
C3778 C3777 1.379 . S
H3779 C3773 0.959 . S
H3780 C3773 0.961 . S
H3781 C3773 0.960 . S
H3782 C3774 0.930 . S
H3783 C3775 0.929 . S
H3784 C3792 0.929 . S
H3785 C3794 0.930 . S
H3786 C3796 0.930 . S
H3787 C3799 0.929 . S
H3788 C3802 0.930 . S
H3789 C3804 0.960 . S
H3790 C3804 0.960 . S
H3791 C3804 0.960 . S
C3792 H3784 0.929 . S
C3792 C3793 1.377 . S
C3792 C3794 1.384 . S
C3793 C3792 1.377 . S
C3793 C3799 1.390 . S
C3794 H3785 0.930 . S
C3794 C3792 1.384 . S
C3794 C3795 1.372 . S
C3795 C3794 1.372 . S
C3795 C3796 1.400 . S
C3795 C3800 1.490 . S
C3796 H3786 0.930 . S
C3796 C3795 1.400 . S
C3796 C3799 1.386 . S
H3797 C3813 0.930 . S
H3798 C3814 0.931 . S
C3799 H3787 0.929 . S
C3799 C3793 1.390 . S
C3799 C3796 1.386 . S
C3800 C3795 1.490 . S
C3800 C3802 1.395 . S
C3800 C3803 1.403 . S
H3801 C3807 0.930 . S
C3802 H3788 0.930 . S
C3802 C3800 1.395 . S
C3802 C3805 1.403 . S
C3803 C3800 1.403 . S
C3803 C3804 1.524 . S
C3803 C3807 1.400 . S
C3804 H3789 0.960 . S
C3804 H3790 0.960 . S
C3804 H3791 0.960 . S
C3804 C3803 1.524 . S
C3805 C3802 1.403 . S
C3805 C3806 1.392 . S
C3805 C3809 1.495 1_455 S
C3806 C3805 1.392 . S
C3806 C3807 1.385 . S
C3806 C3808 1.478 . S
C3807 H3801 0.930 . S
C3807 C3803 1.400 . S
C3807 C3806 1.385 . S
C3808 C3806 1.478 . S
C3808 C3810 1.381 . S
C3808 C3814 1.383 . S
C3809 C3805 1.495 1_655 S
C3809 H3815 0.959 . S
C3809 H3816 0.961 . S
C3809 H3817 0.959 . S
C3810 C3808 1.381 . S
C3810 C3811 1.394 . S
C3810 H3818 0.930 . S
C3811 C3810 1.394 . S
C3811 C3812 1.383 . S
C3811 H3819 0.929 . S
C3812 C3811 1.383 . S
C3812 C3813 1.377 . S
C3813 H3797 0.930 . S
C3813 C3812 1.377 . S
C3813 C3814 1.379 . S
C3814 H3798 0.931 . S
C3814 C3808 1.383 . S
C3814 C3813 1.379 . S
H3815 C3809 0.959 . S
H3816 C3809 0.961 . S
H3817 C3809 0.959 . S
H3818 C3810 0.930 . S
H3819 C3811 0.929 . S
H3820 C3828 0.929 . S
H3821 C3830 0.930 . S
H3822 C3832 0.930 . S
H3823 C3835 0.929 . S
H3824 C3838 0.930 . S
H3825 C3840 0.960 . S
H3826 C3840 0.960 . S
H3827 C3840 0.960 . S
C3828 H3820 0.929 . S
C3828 C3829 1.377 . S
C3828 C3830 1.384 . S
C3829 C3828 1.377 . S
C3829 C3835 1.390 . S
C3830 H3821 0.930 . S
C3830 C3828 1.384 . S
C3830 C3831 1.372 . S
C3831 C3830 1.372 . S
C3831 C3832 1.400 . S
C3831 C3836 1.490 . S
C3832 H3822 0.930 . S
C3832 C3831 1.400 . S
C3832 C3835 1.386 . S
H3833 C3849 0.930 . S
H3834 C3850 0.931 . S
C3835 H3823 0.929 . S
C3835 C3829 1.390 . S
C3835 C3832 1.386 . S
C3836 C3831 1.490 . S
C3836 C3838 1.395 . S
C3836 C3839 1.403 . S
H3837 C3843 0.930 . S
C3838 H3824 0.930 . S
C3838 C3836 1.395 . S
C3838 C3841 1.403 . S
C3839 C3836 1.403 . S
C3839 C3840 1.524 . S
C3839 C3843 1.400 . S
C3840 H3825 0.960 . S
C3840 H3826 0.960 . S
C3840 H3827 0.960 . S
C3840 C3839 1.524 . S
C3841 C3838 1.403 . S
C3841 C3842 1.392 . S
C3841 C3845 1.495 . S
C3842 C3841 1.392 . S
C3842 C3843 1.385 . S
C3842 C3844 1.478 . S
C3843 H3837 0.930 . S
C3843 C3839 1.400 . S
C3843 C3842 1.385 . S
C3844 C3842 1.478 . S
C3844 C3846 1.381 . S
C3844 C3850 1.383 . S
C3845 C3841 1.495 . S
C3845 H3851 0.959 . S
C3845 H3852 0.961 . S
C3845 H3853 0.960 . S
C3846 C3844 1.381 . S
C3846 C3847 1.394 . S
C3846 H3854 0.930 . S
C3847 C3846 1.394 . S
C3847 C3848 1.383 . S
C3847 H3855 0.929 . S
C3848 C3847 1.383 . S
C3848 C3849 1.377 . S
C3849 H3833 0.930 . S
C3849 C3848 1.377 . S
C3849 C3850 1.379 . S
C3850 H3834 0.931 . S
C3850 C3844 1.383 . S
C3850 C3849 1.379 . S
H3851 C3845 0.959 . S
H3852 C3845 0.961 . S
H3853 C3845 0.960 . S
H3854 C3846 0.930 . S
H3855 C3847 0.929 . S
H3856 C3864 0.929 . S
H3857 C3866 0.930 . S
H3858 C3868 0.930 . S
H3859 C3871 0.929 . S
H3860 C3874 0.930 . S
H3861 C3876 0.960 . S
H3862 C3876 0.960 . S
H3863 C3876 0.960 . S
C3864 H3856 0.929 . S
C3864 C3865 1.377 . S
C3864 C3866 1.384 . S
C3865 C3864 1.377 . S
C3865 C3871 1.390 . S
C3866 H3857 0.930 . S
C3866 C3864 1.384 . S
C3866 C3867 1.372 . S
C3867 C3866 1.372 . S
C3867 C3868 1.400 . S
C3867 C3872 1.490 . S
C3868 H3858 0.930 . S
C3868 C3867 1.400 . S
C3868 C3871 1.386 . S
H3869 C3885 0.930 . S
H3870 C3886 0.931 . S
C3871 H3859 0.929 . S
C3871 C3865 1.390 . S
C3871 C3868 1.386 . S
C3872 C3867 1.490 . S
C3872 C3874 1.395 . S
C3872 C3875 1.403 . S
H3873 C3879 0.930 . S
C3874 H3860 0.930 . S
C3874 C3872 1.395 . S
C3874 C3877 1.403 . S
C3875 C3872 1.403 . S
C3875 C3876 1.524 . S
C3875 C3879 1.400 . S
C3876 H3861 0.960 . S
C3876 H3862 0.960 . S
C3876 H3863 0.960 . S
C3876 C3875 1.524 . S
C3877 C3874 1.403 . S
C3877 C3878 1.392 . S
C3877 C3881 1.495 . S
C3878 C3877 1.392 . S
C3878 C3879 1.385 . S
C3878 C3880 1.478 . S
C3879 H3873 0.930 . S
C3879 C3875 1.400 . S
C3879 C3878 1.385 . S
C3880 C3878 1.478 . S
C3880 C3882 1.381 . S
C3880 C3886 1.383 . S
C3881 C3877 1.495 . S
C3881 H3887 0.959 . S
C3881 H3888 0.961 . S
C3881 H3889 0.960 . S
C3882 C3880 1.381 . S
C3882 C3883 1.394 . S
C3882 H3890 0.930 . S
C3883 C3882 1.394 . S
C3883 C3884 1.383 . S
C3883 H3891 0.929 . S
C3884 C3883 1.383 . S
C3884 C3885 1.377 . S
C3885 H3869 0.930 . S
C3885 C3884 1.377 . S
C3885 C3886 1.379 . S
C3886 H3870 0.931 . S
C3886 C3880 1.383 . S
C3886 C3885 1.379 . S
H3887 C3881 0.959 . S
H3888 C3881 0.961 . S
H3889 C3881 0.960 . S
H3890 C3882 0.930 . S
H3891 C3883 0.929 . S
H3892 C3900 0.929 . S
H3893 C3902 0.930 . S
H3894 C3904 0.930 . S
H3895 C3907 0.929 . S
H3896 C3910 0.930 . S
H3897 C3912 0.960 . S
H3898 C3912 0.960 . S
H3899 C3912 0.960 . S
C3900 H3892 0.929 . S
C3900 C3901 1.377 . S
C3900 C3902 1.384 . S
C3901 C3900 1.377 . S
C3901 C3907 1.390 . S
C3902 H3893 0.930 . S
C3902 C3900 1.384 . S
C3902 C3903 1.372 . S
C3903 C3902 1.372 . S
C3903 C3904 1.400 . S
C3903 C3908 1.490 . S
C3904 H3894 0.930 . S
C3904 C3903 1.400 . S
C3904 C3907 1.386 . S
H3905 C3921 0.930 . S
H3906 C3922 0.931 . S
C3907 H3895 0.929 . S
C3907 C3901 1.390 . S
C3907 C3904 1.386 . S
C3908 C3903 1.490 . S
C3908 C3910 1.395 . S
C3908 C3911 1.403 . S
H3909 C3915 0.930 . S
C3910 H3896 0.930 . S
C3910 C3908 1.395 . S
C3910 C3913 1.403 . S
C3911 C3908 1.403 . S
C3911 C3912 1.524 . S
C3911 C3915 1.400 . S
C3912 H3897 0.960 . S
C3912 H3898 0.960 . S
C3912 H3899 0.960 . S
C3912 C3911 1.524 . S
C3913 C3910 1.403 . S
C3913 C3914 1.392 . S
C3913 C3917 1.495 . S
C3914 C3913 1.392 . S
C3914 C3915 1.385 . S
C3914 C3916 1.478 . S
C3915 H3909 0.930 . S
C3915 C3911 1.400 . S
C3915 C3914 1.385 . S
C3916 C3914 1.478 . S
C3916 C3918 1.381 . S
C3916 C3922 1.383 . S
C3917 C3913 1.495 . S
C3917 H3923 0.959 . S
C3917 H3924 0.961 . S
C3917 H3925 0.960 . S
C3918 C3916 1.381 . S
C3918 C3919 1.394 . S
C3918 H3926 0.930 . S
C3919 C3918 1.394 . S
C3919 C3920 1.383 . S
C3919 H3927 0.929 . S
C3920 C3919 1.383 . S
C3920 C3921 1.377 . S
C3921 H3905 0.930 . S
C3921 C3920 1.377 . S
C3921 C3922 1.379 . S
C3922 H3906 0.931 . S
C3922 C3916 1.383 . S
C3922 C3921 1.379 . S
H3923 C3917 0.959 . S
H3924 C3917 0.961 . S
H3925 C3917 0.960 . S
H3926 C3918 0.930 . S
H3927 C3919 0.929 . S
H3928 C3936 0.929 . S
H3929 C3938 0.930 . S
H3930 C3940 0.930 . S
H3931 C3943 0.929 1_455 S
H3932 C3946 0.930 . S
H3933 C3948 0.960 . S
H3934 C3948 0.960 . S
H3935 C3948 0.960 . S
C3936 H3928 0.929 . S
C3936 C3937 1.377 . S
C3936 C3938 1.384 . S
C3937 C3936 1.377 . S
C3937 C3943 1.390 . S
C3938 H3929 0.930 . S
C3938 C3936 1.384 . S
C3938 C3939 1.372 . S
C3939 C3938 1.372 . S
C3939 C3940 1.400 1_655 S
C3939 C3944 1.497 . S
C3940 H3930 0.930 . S
C3940 C3939 1.400 1_455 S
C3940 C3943 1.385 1_455 S
H3941 C3957 0.930 . S
H3942 C3958 0.931 . S
C3943 H3931 0.929 1_655 S
C3943 C3937 1.390 . S
C3943 C3940 1.385 1_655 S
C3944 C3939 1.497 . S
C3944 C3946 1.411 . S
C3944 C3947 1.381 1_655 S
H3945 C3951 0.930 . S
C3946 H3932 0.930 . S
C3946 C3944 1.411 . S
C3946 C3949 1.403 . S
C3947 C3944 1.381 1_455 S
C3947 C3948 1.524 . S
C3947 C3951 1.400 . S
C3948 H3933 0.960 . S
C3948 H3934 0.960 . S
C3948 H3935 0.960 . S
C3948 C3947 1.524 . S
C3949 C3946 1.403 . S
C3949 C3950 1.392 1_655 S
C3949 C3953 1.495 . S
C3950 C3949 1.392 1_455 S
C3950 C3951 1.385 . S
C3950 C3952 1.478 . S
C3951 H3945 0.930 . S
C3951 C3947 1.400 . S
C3951 C3950 1.385 . S
C3952 C3950 1.478 . S
C3952 C3954 1.381 . S
C3952 C3958 1.383 . S
C3953 C3949 1.495 . S
C3953 H3959 0.959 . S
C3953 H3960 0.961 . S
C3953 H3961 0.960 . S
C3954 C3952 1.381 . S
C3954 C3955 1.394 1_556 S
C3954 H3962 0.930 1_455 S
C3955 C3954 1.394 1_554 S
C3955 C3956 1.383 . S
C3955 H3963 0.929 . S
C3956 C3955 1.383 . S
C3956 C3957 1.377 1_554 S
C3957 H3941 0.930 . S
C3957 C3956 1.377 1_556 S
C3957 C3958 1.379 . S
C3958 H3942 0.931 . S
C3958 C3952 1.383 . S
C3958 C3957 1.379 . S
H3959 C3953 0.959 . S
H3960 C3953 0.961 . S
H3961 C3953 0.960 . S
H3962 C3954 0.930 1_655 S
H3963 C3955 0.929 . S
H3964 C3972 0.929 . S
H3965 C3974 0.930 . S
H3966 C3976 0.930 . S
H3967 C3979 0.929 . S
H3968 C3982 0.930 . S
H3969 C3984 0.960 . S
H3970 C3984 0.960 . S
H3971 C3984 0.960 . S
C3972 H3964 0.929 . S
C3972 C3973 1.377 . S
C3972 C3974 1.384 . S
C3973 C3972 1.377 . S
C3973 C3979 1.390 . S
C3974 H3965 0.930 . S
C3974 C3972 1.384 . S
C3974 C3975 1.372 . S
C3975 C3974 1.372 . S
C3975 C3976 1.400 . S
C3975 C3980 1.490 . S
C3976 H3966 0.930 . S
C3976 C3975 1.400 . S
C3976 C3979 1.386 . S
H3977 C3993 0.930 . S
H3978 C3994 0.931 . S
C3979 H3967 0.929 . S
C3979 C3973 1.390 . S
C3979 C3976 1.386 . S
C3980 C3975 1.490 . S
C3980 C3982 1.395 . S
C3980 C3983 1.403 . S
H3981 C3987 0.930 . S
C3982 H3968 0.930 . S
C3982 C3980 1.395 . S
C3982 C3985 1.403 . S
C3983 C3980 1.403 . S
C3983 C3984 1.524 . S
C3983 C3987 1.400 . S
C3984 H3969 0.960 . S
C3984 H3970 0.960 . S
C3984 H3971 0.960 . S
C3984 C3983 1.524 . S
C3985 C3982 1.403 . S
C3985 C3986 1.392 . S
C3985 C3989 1.495 . S
C3986 C3985 1.392 . S
C3986 C3987 1.385 . S
C3986 C3988 1.478 . S
C3987 H3981 0.930 . S
C3987 C3983 1.400 . S
C3987 C3986 1.385 . S
C3988 C3986 1.478 . S
C3988 C3990 1.381 . S
C3988 C3994 1.383 . S
C3989 C3985 1.495 . S
C3989 H3995 0.959 . S
C3989 H3996 0.961 . S
C3989 H3997 0.960 . S
C3990 C3988 1.381 . S
C3990 C3991 1.394 . S
C3990 H3998 0.930 . S
C3991 C3990 1.394 . S
C3991 C3992 1.383 . S
C3991 H3999 0.929 . S
C3992 C3991 1.383 . S
C3992 C3993 1.377 . S
C3993 H3977 0.930 . S
C3993 C3992 1.377 . S
C3993 C3994 1.379 . S
C3994 H3978 0.931 . S
C3994 C3988 1.383 . S
C3994 C3993 1.379 . S
H3995 C3989 0.959 . S
H3996 C3989 0.961 . S
H3997 C3989 0.960 . S
H3998 C3990 0.930 . S
H3999 C3991 0.929 . S
H4000 C4008 0.929 . S
H4001 C4010 0.930 . S
H4002 C4012 0.930 . S
H4003 C4015 0.929 . S
H4004 C4018 0.930 . S
H4005 C4020 0.960 . S
H4006 C4020 0.960 . S
H4007 C4020 0.960 . S
C4008 H4000 0.929 . S
C4008 C4009 1.377 . S
C4008 C4010 1.384 . S
C4009 C4008 1.377 . S
C4009 C4015 1.390 . S
C4010 H4001 0.930 . S
C4010 C4008 1.384 . S
C4010 C4011 1.372 . S
C4011 C4010 1.372 . S
C4011 C4012 1.400 . S
C4011 C4016 1.490 . S
C4012 H4002 0.930 . S
C4012 C4011 1.400 . S
C4012 C4015 1.386 . S
H4013 C4029 0.930 . S
H4014 C4030 0.931 . S
C4015 H4003 0.929 . S
C4015 C4009 1.390 . S
C4015 C4012 1.386 . S
C4016 C4011 1.490 . S
C4016 C4018 1.395 . S
C4016 C4019 1.403 . S
H4017 C4023 0.930 . S
C4018 H4004 0.930 . S
C4018 C4016 1.395 . S
C4018 C4021 1.403 . S
C4019 C4016 1.403 . S
C4019 C4020 1.524 . S
C4019 C4023 1.400 . S
C4020 H4005 0.960 . S
C4020 H4006 0.960 . S
C4020 H4007 0.960 . S
C4020 C4019 1.524 . S
C4021 C4018 1.403 . S
C4021 C4022 1.392 . S
C4021 C4025 1.495 . S
C4022 C4021 1.392 . S
C4022 C4023 1.385 . S
C4022 C4024 1.478 . S
C4023 H4017 0.930 . S
C4023 C4019 1.400 . S
C4023 C4022 1.385 . S
C4024 C4022 1.478 . S
C4024 C4026 1.381 . S
C4024 C4030 1.383 . S
C4025 C4021 1.495 . S
C4025 H4031 0.959 . S
C4025 H4032 0.961 . S
C4025 H4033 0.960 . S
C4026 C4024 1.381 . S
C4026 C4027 1.394 . S
C4026 H4034 0.930 . S
C4027 C4026 1.394 . S
C4027 C4028 1.383 . S
C4027 H4035 0.929 . S
C4028 C4027 1.383 . S
C4028 C4029 1.377 . S
C4029 H4013 0.930 . S
C4029 C4028 1.377 . S
C4029 C4030 1.379 . S
C4030 H4014 0.931 . S
C4030 C4024 1.383 . S
C4030 C4029 1.379 . S
H4031 C4025 0.959 . S
H4032 C4025 0.961 . S
H4033 C4025 0.960 . S
H4034 C4026 0.930 . S
H4035 C4027 0.929 . S
H4036 C4044 0.929 . S
H4037 C4046 0.930 . S
H4038 C4048 0.930 . S
H4039 C4051 0.929 . S
H4040 C4054 0.930 . S
H4041 C4056 0.960 . S
H4042 C4056 0.960 . S
H4043 C4056 0.960 . S
C4044 H4036 0.929 . S
C4044 C4045 1.377 . S
C4044 C4046 1.384 . S
C4045 C4044 1.377 . S
C4045 C4051 1.390 . S
C4046 H4037 0.930 . S
C4046 C4044 1.384 . S
C4046 C4047 1.372 . S
C4047 C4046 1.372 . S
C4047 C4048 1.400 . S
C4047 C4052 1.490 . S
C4048 H4038 0.930 . S
C4048 C4047 1.400 . S
C4048 C4051 1.386 . S
H4049 C4065 0.930 . S
H4050 C4066 0.931 . S
C4051 H4039 0.929 . S
C4051 C4045 1.390 . S
C4051 C4048 1.386 . S
C4052 C4047 1.490 . S
C4052 C4054 1.395 . S
C4052 C4055 1.403 . S
H4053 C4059 0.930 . S
C4054 H4040 0.930 . S
C4054 C4052 1.395 . S
C4054 C4057 1.403 . S
C4055 C4052 1.403 . S
C4055 C4056 1.524 . S
C4055 C4059 1.400 . S
C4056 H4041 0.960 . S
C4056 H4042 0.960 . S
C4056 H4043 0.960 . S
C4056 C4055 1.524 . S
C4057 C4054 1.403 . S
C4057 C4058 1.392 . S
C4057 C4061 1.495 . S
C4058 C4057 1.392 . S
C4058 C4059 1.385 . S
C4058 C4060 1.478 . S
C4059 H4053 0.930 . S
C4059 C4055 1.400 . S
C4059 C4058 1.385 . S
C4060 C4058 1.478 . S
C4060 C4062 1.381 . S
C4060 C4066 1.383 . S
C4061 C4057 1.495 . S
C4061 H4067 0.959 . S
C4061 H4068 0.961 . S
C4061 H4069 0.960 . S
C4062 C4060 1.381 . S
C4062 C4063 1.394 . S
C4062 H4070 0.930 . S
C4063 C4062 1.394 . S
C4063 C4064 1.383 . S
C4063 H4071 0.929 . S
C4064 C4063 1.383 . S
C4064 C4065 1.377 . S
C4065 H4049 0.930 . S
C4065 C4064 1.377 . S
C4065 C4066 1.379 . S
C4066 H4050 0.931 . S
C4066 C4060 1.383 . S
C4066 C4065 1.379 . S
H4067 C4061 0.959 . S
H4068 C4061 0.961 . S
H4069 C4061 0.960 . S
H4070 C4062 0.930 . S
H4071 C4063 0.929 . S
H4072 C4080 0.929 . S
H4073 C4082 0.930 1_455 S
H4074 C4084 0.930 . S
H4075 C4087 0.929 . S
H4076 C4090 0.930 . S
H4077 C4092 0.960 . S
H4078 C4092 0.960 . S
H4079 C4092 0.960 . S
C4080 H4072 0.929 . S
C4080 C4081 1.377 . S
C4080 C4082 1.384 . S
C4081 C4080 1.377 . S
C4081 C4087 1.390 . S
C4082 H4073 0.930 1_655 S
C4082 C4080 1.384 . S
C4082 C4083 1.372 . S
C4083 C4082 1.372 . S
C4083 C4084 1.400 . S
C4083 C4088 1.490 . S
C4084 H4074 0.930 . S
C4084 C4083 1.400 . S
C4084 C4087 1.386 . S
H4085 C4101 0.930 . S
H4086 C4102 0.931 . S
C4087 H4075 0.929 . S
C4087 C4081 1.390 . S
C4087 C4084 1.386 . S
C4088 C4083 1.490 . S
C4088 C4090 1.395 . S
C4088 C4091 1.403 . S
H4089 C4095 0.930 . S
C4090 H4076 0.930 . S
C4090 C4088 1.395 . S
C4090 C4093 1.403 . S
C4091 C4088 1.403 . S
C4091 C4092 1.524 . S
C4091 C4095 1.400 . S
C4092 H4077 0.960 . S
C4092 H4078 0.960 . S
C4092 H4079 0.960 . S
C4092 C4091 1.524 . S
C4093 C4090 1.403 . S
C4093 C4094 1.392 . S
C4093 C4097 1.495 1_655 S
C4094 C4093 1.392 . S
C4094 C4095 1.385 . S
C4094 C4096 1.478 . S
C4095 H4089 0.930 . S
C4095 C4091 1.400 . S
C4095 C4094 1.385 . S
C4096 C4094 1.478 . S
C4096 C4098 1.381 1_655 S
C4096 C4102 1.383 . S
C4097 C4093 1.495 1_455 S
C4097 H4103 0.959 . S
C4097 H4104 0.961 1_455 S
C4097 H4105 0.960 . S
C4098 C4096 1.381 1_455 S
C4098 C4099 1.394 . S
C4098 H4106 0.930 . S
C4099 C4098 1.394 . S
C4099 C4100 1.383 1_455 S
C4099 H4107 0.929 . S
C4100 C4099 1.383 1_655 S
C4100 C4101 1.377 . S
C4101 H4085 0.930 . S
C4101 C4100 1.377 . S
C4101 C4102 1.379 . S
C4102 H4086 0.931 . S
C4102 C4096 1.383 . S
C4102 C4101 1.379 . S
H4103 C4097 0.959 . S
H4104 C4097 0.961 1_655 S
H4105 C4097 0.960 . S
H4106 C4098 0.930 . S
H4107 C4099 0.929 . S
H4108 C4116 0.929 . S
H4109 C4118 0.930 . S
H4110 C4120 0.930 . S
H4111 C4123 0.929 . S
H4112 C4126 0.930 . S
H4113 C4128 0.960 . S
H4114 C4128 0.960 . S
H4115 C4128 0.960 . S
C4116 H4108 0.929 . S
C4116 C4117 1.377 . S
C4116 C4118 1.384 . S
C4117 C4116 1.377 . S
C4117 C4123 1.390 . S
C4118 H4109 0.930 . S
C4118 C4116 1.384 . S
C4118 C4119 1.372 . S
C4119 C4118 1.372 . S
C4119 C4120 1.400 . S
C4119 C4124 1.490 . S
C4120 H4110 0.930 . S
C4120 C4119 1.400 . S
C4120 C4123 1.386 . S
H4121 C4137 0.930 . S
H4122 C4138 0.931 . S
C4123 H4111 0.929 . S
C4123 C4117 1.390 . S
C4123 C4120 1.386 . S
C4124 C4119 1.490 . S
C4124 C4126 1.395 . S
C4124 C4127 1.403 . S
H4125 C4131 0.930 . S
C4126 H4112 0.930 . S
C4126 C4124 1.395 . S
C4126 C4129 1.403 . S
C4127 C4124 1.403 . S
C4127 C4128 1.524 . S
C4127 C4131 1.400 . S
C4128 H4113 0.960 . S
C4128 H4114 0.960 . S
C4128 H4115 0.960 . S
C4128 C4127 1.524 . S
C4129 C4126 1.403 . S
C4129 C4130 1.392 . S
C4129 C4133 1.495 . S
C4130 C4129 1.392 . S
C4130 C4131 1.385 . S
C4130 C4132 1.478 . S
C4131 H4125 0.930 . S
C4131 C4127 1.400 . S
C4131 C4130 1.385 . S
C4132 C4130 1.478 . S
C4132 C4134 1.381 . S
C4132 C4138 1.383 . S
C4133 C4129 1.495 . S
C4133 H4139 0.959 . S
C4133 H4140 0.961 . S
C4133 H4141 0.960 . S
C4134 C4132 1.381 . S
C4134 C4135 1.394 . S
C4134 H4142 0.930 . S
C4135 C4134 1.394 . S
C4135 C4136 1.383 . S
C4135 H4143 0.929 . S
C4136 C4135 1.383 . S
C4136 C4137 1.377 . S
C4137 H4121 0.930 . S
C4137 C4136 1.377 . S
C4137 C4138 1.379 . S
C4138 H4122 0.931 . S
C4138 C4132 1.383 . S
C4138 C4137 1.379 . S
H4139 C4133 0.959 . S
H4140 C4133 0.961 . S
H4141 C4133 0.960 . S
H4142 C4134 0.930 . S
H4143 C4135 0.929 . S
H4144 C4152 0.929 . S
H4145 C4154 0.930 . S
H4146 C4156 0.930 . S
H4147 C4159 0.929 . S
H4148 C4162 0.930 . S
H4149 C4164 0.960 . S
H4150 C4164 0.960 . S
H4151 C4164 0.960 . S
C4152 H4144 0.929 . S
C4152 C4153 1.377 . S
C4152 C4154 1.384 . S
C4153 C4152 1.377 . S
C4153 C4159 1.390 . S
C4154 H4145 0.930 . S
C4154 C4152 1.384 . S
C4154 C4155 1.372 . S
C4155 C4154 1.372 . S
C4155 C4156 1.400 . S
C4155 C4160 1.490 . S
C4156 H4146 0.930 . S
C4156 C4155 1.400 . S
C4156 C4159 1.386 . S
H4157 C4173 0.930 . S
H4158 C4174 0.931 . S
C4159 H4147 0.929 . S
C4159 C4153 1.390 . S
C4159 C4156 1.386 . S
C4160 C4155 1.490 . S
C4160 C4162 1.395 . S
C4160 C4163 1.403 . S
H4161 C4167 0.930 . S
C4162 H4148 0.930 . S
C4162 C4160 1.395 . S
C4162 C4165 1.403 . S
C4163 C4160 1.403 . S
C4163 C4164 1.524 . S
C4163 C4167 1.400 . S
C4164 H4149 0.960 . S
C4164 H4150 0.960 . S
C4164 H4151 0.960 . S
C4164 C4163 1.524 . S
C4165 C4162 1.403 . S
C4165 C4166 1.392 . S
C4165 C4169 1.495 . S
C4166 C4165 1.392 . S
C4166 C4167 1.385 . S
C4166 C4168 1.478 . S
C4167 H4161 0.930 . S
C4167 C4163 1.400 . S
C4167 C4166 1.385 . S
C4168 C4166 1.478 . S
C4168 C4170 1.381 . S
C4168 C4174 1.383 . S
C4169 C4165 1.495 . S
C4169 H4175 0.959 . S
C4169 H4176 0.961 . S
C4169 H4177 0.960 . S
C4170 C4168 1.381 . S
C4170 C4171 1.394 . S
C4170 H4178 0.930 . S
C4171 C4170 1.394 . S
C4171 C4172 1.383 . S
C4171 H4179 0.929 . S
C4172 C4171 1.383 . S
C4172 C4173 1.377 . S
C4173 H4157 0.930 . S
C4173 C4172 1.377 . S
C4173 C4174 1.379 . S
C4174 H4158 0.931 . S
C4174 C4168 1.383 . S
C4174 C4173 1.379 . S
H4175 C4169 0.959 . S
H4176 C4169 0.961 . S
H4177 C4169 0.960 . S
H4178 C4170 0.930 . S
H4179 C4171 0.929 . S
H4180 C4188 0.929 . S
H4181 C4190 0.930 . S
H4182 C4192 0.930 . S
H4183 C4195 0.929 . S
H4184 C4198 0.930 . S
H4185 C4200 0.960 . S
H4186 C4200 0.960 . S
H4187 C4200 0.960 . S
C4188 H4180 0.929 . S
C4188 C4189 1.377 . S
C4188 C4190 1.384 . S
C4189 C4188 1.377 . S
C4189 C4195 1.390 . S
C4190 H4181 0.930 . S
C4190 C4188 1.384 . S
C4190 C4191 1.372 . S
C4191 C4190 1.372 . S
C4191 C4192 1.400 . S
C4191 C4196 1.490 . S
C4192 H4182 0.930 . S
C4192 C4191 1.400 . S
C4192 C4195 1.386 . S
H4193 C4209 0.930 . S
H4194 C4210 0.931 . S
C4195 H4183 0.929 . S
C4195 C4189 1.390 . S
C4195 C4192 1.386 . S
C4196 C4191 1.490 . S
C4196 C4198 1.395 . S
C4196 C4199 1.403 . S
H4197 C4203 0.930 . S
C4198 H4184 0.930 . S
C4198 C4196 1.395 . S
C4198 C4201 1.403 . S
C4199 C4196 1.403 . S
C4199 C4200 1.524 . S
C4199 C4203 1.400 . S
C4200 H4185 0.960 . S
C4200 H4186 0.960 . S
C4200 H4187 0.960 . S
C4200 C4199 1.524 . S
C4201 C4198 1.403 . S
C4201 C4202 1.392 . S
C4201 C4205 1.495 . S
C4202 C4201 1.392 . S
C4202 C4203 1.385 . S
C4202 C4204 1.478 . S
C4203 H4197 0.930 . S
C4203 C4199 1.400 . S
C4203 C4202 1.385 . S
C4204 C4202 1.478 . S
C4204 C4206 1.381 . S
C4204 C4210 1.383 . S
C4205 C4201 1.495 . S
C4205 H4211 0.959 . S
C4205 H4212 0.961 . S
C4205 H4213 0.960 . S
C4206 C4204 1.381 . S
C4206 C4207 1.394 . S
C4206 H4214 0.930 . S
C4207 C4206 1.394 . S
C4207 C4208 1.383 . S
C4207 H4215 0.929 . S
C4208 C4207 1.383 . S
C4208 C4209 1.377 1_565 S
C4209 H4193 0.930 . S
C4209 C4208 1.377 1_545 S
C4209 C4210 1.379 1_545 S
C4210 H4194 0.931 . S
C4210 C4204 1.383 . S
C4210 C4209 1.379 1_565 S
H4211 C4205 0.959 . S
H4212 C4205 0.961 . S
H4213 C4205 0.960 . S
H4214 C4206 0.930 . S
H4215 C4207 0.929 . S
H4216 C4224 0.929 . S
H4217 C4226 0.930 . S
H4218 C4228 0.930 . S
H4219 C4231 0.929 . S
H4220 C4234 0.930 . S
H4221 C4236 0.960 . S
H4222 C4236 0.960 . S
H4223 C4236 0.960 . S
C4224 H4216 0.929 . S
C4224 C4225 1.377 . S
C4224 C4226 1.384 . S
C4225 C4224 1.377 . S
C4225 C4231 1.390 . S
C4226 H4217 0.930 . S
C4226 C4224 1.384 . S
C4226 C4227 1.372 . S
C4227 C4226 1.372 . S
C4227 C4228 1.400 . S
C4227 C4232 1.490 . S
C4228 H4218 0.930 . S
C4228 C4227 1.400 . S
C4228 C4231 1.386 . S
H4229 C4245 0.930 . S
H4230 C4246 0.931 . S
C4231 H4219 0.929 . S
C4231 C4225 1.390 . S
C4231 C4228 1.386 . S
C4232 C4227 1.490 . S
C4232 C4234 1.395 . S
C4232 C4235 1.403 . S
H4233 C4239 0.930 . S
C4234 H4220 0.930 . S
C4234 C4232 1.395 . S
C4234 C4237 1.403 . S
C4235 C4232 1.403 . S
C4235 C4236 1.524 . S
C4235 C4239 1.400 . S
C4236 H4221 0.960 . S
C4236 H4222 0.960 . S
C4236 H4223 0.960 . S
C4236 C4235 1.524 . S
C4237 C4234 1.403 . S
C4237 C4238 1.392 . S
C4237 C4241 1.495 . S
C4238 C4237 1.392 . S
C4238 C4239 1.385 . S
C4238 C4240 1.478 . S
C4239 H4233 0.930 . S
C4239 C4235 1.400 . S
C4239 C4238 1.385 . S
C4240 C4238 1.478 . S
C4240 C4242 1.381 . S
C4240 C4246 1.383 . S
C4241 C4237 1.495 . S
C4241 H4247 0.959 . S
C4241 H4248 0.961 . S
C4241 H4249 0.960 . S
C4242 C4240 1.381 . S
C4242 C4243 1.394 . S
C4242 H4250 0.930 . S
C4243 C4242 1.394 . S
C4243 C4244 1.383 . S
C4243 H4251 0.929 . S
C4244 C4243 1.383 . S
C4244 C4245 1.377 . S
C4245 H4229 0.930 . S
C4245 C4244 1.377 . S
C4245 C4246 1.379 . S
C4246 H4230 0.931 . S
C4246 C4240 1.383 . S
C4246 C4245 1.379 . S
H4247 C4241 0.959 . S
H4248 C4241 0.961 . S
H4249 C4241 0.960 . S
H4250 C4242 0.930 . S
H4251 C4243 0.929 . S
H4252 C4260 0.929 . S
H4253 C4262 0.930 . S
H4254 C4264 0.930 . S
H4255 C4267 0.929 . S
H4256 C4270 0.930 . S
H4257 C4272 0.960 . S
H4258 C4272 0.960 . S
H4259 C4272 0.960 . S
C4260 H4252 0.929 . S
C4260 C4261 1.377 . S
C4260 C4262 1.384 . S
C4261 C4260 1.377 . S
C4261 C4267 1.390 1_554 S
C4262 H4253 0.930 . S
C4262 C4260 1.384 . S
C4262 C4263 1.372 . S
C4263 C4262 1.372 . S
C4263 C4264 1.400 1_554 S
C4263 C4268 1.490 . S
C4264 H4254 0.930 . S
C4264 C4263 1.400 1_556 S
C4264 C4267 1.386 . S
H4265 C4281 0.930 1_556 S
H4266 C4282 0.931 1_556 S
C4267 H4255 0.929 . S
C4267 C4261 1.390 1_556 S
C4267 C4264 1.386 . S
C4268 C4263 1.490 . S
C4268 C4270 1.395 . S
C4268 C4271 1.403 . S
H4269 C4275 0.930 . S
C4270 H4256 0.930 . S
C4270 C4268 1.395 . S
C4270 C4273 1.403 . S
C4271 C4268 1.403 . S
C4271 C4272 1.524 . S
C4271 C4275 1.400 . S
C4272 H4257 0.960 . S
C4272 H4258 0.960 . S
C4272 H4259 0.960 . S
C4272 C4271 1.524 . S
C4273 C4270 1.403 . S
C4273 C4274 1.392 . S
C4273 C4277 1.495 . S
C4274 C4273 1.392 . S
C4274 C4275 1.385 . S
C4274 C4276 1.478 . S
C4275 H4269 0.930 . S
C4275 C4271 1.400 . S
C4275 C4274 1.385 . S
C4276 C4274 1.478 . S
C4276 C4278 1.381 . S
C4276 C4282 1.383 . S
C4277 C4273 1.495 . S
C4277 H4283 0.959 . S
C4277 H4284 0.961 . S
C4277 H4285 0.960 . S
C4278 C4276 1.381 . S
C4278 C4279 1.394 . S
C4278 H4286 0.930 . S
C4279 C4278 1.394 . S
C4279 C4280 1.383 . S
C4279 H4287 0.929 . S
C4280 C4279 1.383 . S
C4280 C4281 1.377 . S
C4281 H4265 0.930 1_554 S
C4281 C4280 1.377 . S
C4281 C4282 1.379 . S
C4282 H4266 0.931 1_554 S
C4282 C4276 1.383 . S
C4282 C4281 1.379 . S
H4283 C4277 0.959 . S
H4284 C4277 0.961 . S
H4285 C4277 0.960 . S
H4286 C4278 0.930 . S
H4287 C4279 0.929 . S
H4288 C4296 0.929 . S
H4289 C4298 0.930 . S
H4290 C4300 0.930 . S
H4291 C4303 0.929 . S
H4292 C4306 0.930 . S
H4293 C4308 0.960 . S
H4294 C4308 0.960 . S
H4295 C4308 0.960 . S
C4296 H4288 0.929 . S
C4296 C4297 1.377 . S
C4296 C4298 1.384 . S
C4297 C4296 1.377 . S
C4297 C4303 1.390 . S
C4298 H4289 0.930 . S
C4298 C4296 1.384 . S
C4298 C4299 1.372 . S
C4299 C4298 1.372 . S
C4299 C4300 1.400 . S
C4299 C4304 1.490 . S
C4300 H4290 0.930 . S
C4300 C4299 1.400 . S
C4300 C4303 1.386 . S
H4301 C4317 0.930 . S
H4302 C4318 0.931 . S
C4303 H4291 0.929 . S
C4303 C4297 1.390 . S
C4303 C4300 1.386 . S
C4304 C4299 1.490 . S
C4304 C4306 1.395 . S
C4304 C4307 1.403 . S
H4305 C4311 0.930 . S
C4306 H4292 0.930 . S
C4306 C4304 1.395 . S
C4306 C4309 1.403 . S
C4307 C4304 1.403 . S
C4307 C4308 1.524 . S
C4307 C4311 1.400 . S
C4308 H4293 0.960 . S
C4308 H4294 0.960 . S
C4308 H4295 0.960 . S
C4308 C4307 1.524 . S
C4309 C4306 1.403 . S
C4309 C4310 1.392 . S
C4309 C4313 1.495 . S
C4310 C4309 1.392 . S
C4310 C4311 1.385 . S
C4310 C4312 1.478 . S
C4311 H4305 0.930 . S
C4311 C4307 1.400 . S
C4311 C4310 1.385 . S
C4312 C4310 1.478 . S
C4312 C4314 1.381 . S
C4312 C4318 1.383 . S
C4313 C4309 1.495 . S
C4313 H4319 0.959 . S
C4313 H4320 0.961 . S
C4313 H4321 0.960 . S
C4314 C4312 1.381 . S
C4314 C4315 1.394 . S
C4314 H4322 0.930 . S
C4315 C4314 1.394 . S
C4315 C4316 1.383 . S
C4315 H4323 0.929 . S
C4316 C4315 1.383 . S
C4316 C4317 1.377 . S
C4317 H4301 0.930 . S
C4317 C4316 1.377 . S
C4317 C4318 1.379 . S
C4318 H4302 0.931 . S
C4318 C4312 1.383 . S
C4318 C4317 1.379 . S
H4319 C4313 0.959 . S
H4320 C4313 0.961 . S
H4321 C4313 0.960 . S
H4322 C4314 0.930 . S
H4323 C4315 0.929 . S
H4324 C4332 0.929 . S
H4325 C4334 0.930 . S
H4326 C4336 0.930 . S
H4327 C4339 0.929 . S
H4328 C4342 0.930 . S
H4329 C4344 0.960 . S
H4330 C4344 0.960 . S
H4331 C4344 0.960 . S
C4332 H4324 0.929 . S
C4332 C4333 1.377 . S
C4332 C4334 1.384 . S
C4333 C4332 1.377 . S
C4333 C4339 1.390 . S
C4334 H4325 0.930 . S
C4334 C4332 1.384 . S
C4334 C4335 1.372 . S
C4335 C4334 1.372 . S
C4335 C4336 1.400 . S
C4335 C4340 1.490 . S
C4336 H4326 0.930 . S
C4336 C4335 1.400 . S
C4336 C4339 1.386 . S
H4337 C4353 0.930 . S
H4338 C4354 0.931 . S
C4339 H4327 0.929 . S
C4339 C4333 1.390 . S
C4339 C4336 1.386 . S
C4340 C4335 1.490 . S
C4340 C4342 1.395 . S
C4340 C4343 1.403 . S
H4341 C4347 0.930 . S
C4342 H4328 0.930 . S
C4342 C4340 1.395 . S
C4342 C4345 1.403 . S
C4343 C4340 1.403 . S
C4343 C4344 1.524 . S
C4343 C4347 1.400 . S
C4344 H4329 0.960 . S
C4344 H4330 0.960 . S
C4344 H4331 0.960 . S
C4344 C4343 1.524 . S
C4345 C4342 1.403 . S
C4345 C4346 1.392 . S
C4345 C4349 1.495 . S
C4346 C4345 1.392 . S
C4346 C4347 1.385 . S
C4346 C4348 1.478 . S
C4347 H4341 0.930 . S
C4347 C4343 1.400 . S
C4347 C4346 1.385 . S
C4348 C4346 1.478 . S
C4348 C4350 1.381 . S
C4348 C4354 1.383 . S
C4349 C4345 1.495 . S
C4349 H4355 0.959 . S
C4349 H4356 0.961 . S
C4349 H4357 0.960 . S
C4350 C4348 1.381 . S
C4350 C4351 1.394 . S
C4350 H4358 0.930 . S
C4351 C4350 1.394 . S
C4351 C4352 1.383 . S
C4351 H4359 0.929 . S
C4352 C4351 1.383 . S
C4352 C4353 1.377 . S
C4353 H4337 0.930 . S
C4353 C4352 1.377 . S
C4353 C4354 1.379 . S
C4354 H4338 0.931 . S
C4354 C4348 1.383 . S
C4354 C4353 1.379 . S
H4355 C4349 0.959 . S
H4356 C4349 0.961 . S
H4357 C4349 0.960 . S
H4358 C4350 0.930 . S
H4359 C4351 0.929 . S
H4360 C4368 0.929 . S
H4361 C4370 0.930 . S
H4362 C4372 0.930 . S
H4363 C4375 0.929 . S
H4364 C4378 0.930 . S
H4365 C4380 0.960 . S
H4366 C4380 0.960 . S
H4367 C4380 0.960 . S
C4368 H4360 0.929 . S
C4368 C4369 1.377 . S
C4368 C4370 1.384 . S
C4369 C4368 1.377 . S
C4369 C4375 1.390 . S
C4370 H4361 0.930 . S
C4370 C4368 1.384 . S
C4370 C4371 1.372 . S
C4371 C4370 1.372 . S
C4371 C4372 1.400 . S
C4371 C4376 1.490 . S
C4372 H4362 0.930 . S
C4372 C4371 1.400 . S
C4372 C4375 1.386 . S
H4373 C4389 0.930 . S
H4374 C4390 0.931 . S
C4375 H4363 0.929 . S
C4375 C4369 1.390 . S
C4375 C4372 1.386 . S
C4376 C4371 1.490 . S
C4376 C4378 1.395 . S
C4376 C4379 1.403 . S
H4377 C4383 0.930 . S
C4378 H4364 0.930 . S
C4378 C4376 1.395 . S
C4378 C4381 1.403 . S
C4379 C4376 1.403 . S
C4379 C4380 1.524 . S
C4379 C4383 1.400 . S
C4380 H4365 0.960 . S
C4380 H4366 0.960 . S
C4380 H4367 0.960 . S
C4380 C4379 1.524 . S
C4381 C4378 1.403 . S
C4381 C4382 1.392 . S
C4381 C4385 1.495 . S
C4382 C4381 1.392 . S
C4382 C4383 1.385 . S
C4382 C4384 1.478 . S
C4383 H4377 0.930 . S
C4383 C4379 1.400 . S
C4383 C4382 1.385 . S
C4384 C4382 1.478 . S
C4384 C4386 1.381 . S
C4384 C4390 1.383 . S
C4385 C4381 1.495 . S
C4385 H4391 0.959 . S
C4385 H4392 0.961 . S
C4385 H4393 0.960 . S
C4386 C4384 1.381 . S
C4386 C4387 1.394 . S
C4386 H4394 0.930 . S
C4387 C4386 1.394 . S
C4387 C4388 1.383 . S
C4387 H4395 0.929 . S
C4388 C4387 1.383 . S
C4388 C4389 1.377 . S
C4389 H4373 0.930 . S
C4389 C4388 1.377 . S
C4389 C4390 1.379 . S
C4390 H4374 0.931 . S
C4390 C4384 1.383 . S
C4390 C4389 1.379 . S
H4391 C4385 0.959 . S
H4392 C4385 0.961 . S
H4393 C4385 0.960 . S
H4394 C4386 0.930 . S
H4395 C4387 0.929 . S
H4396 C4404 0.929 . S
H4397 C4406 0.930 . S
H4398 C4408 0.930 . S
H4399 C4411 0.929 . S
H4400 C4414 0.930 . S
H4401 C4416 0.960 . S
H4402 C4416 0.960 . S
H4403 C4416 0.960 . S
C4404 H4396 0.929 . S
C4404 C4405 1.377 . S
C4404 C4406 1.384 . S
C4405 C4404 1.377 . S
C4405 C4411 1.390 . S
C4406 H4397 0.930 . S
C4406 C4404 1.384 . S
C4406 C4407 1.372 . S
C4407 C4406 1.372 . S
C4407 C4408 1.400 . S
C4407 C4412 1.490 . S
C4408 H4398 0.930 . S
C4408 C4407 1.400 . S
C4408 C4411 1.386 . S
H4409 C4425 0.930 . S
H4410 C4426 0.931 . S
C4411 H4399 0.929 . S
C4411 C4405 1.390 . S
C4411 C4408 1.386 . S
C4412 C4407 1.490 . S
C4412 C4414 1.395 . S
C4412 C4415 1.403 . S
H4413 C4419 0.930 . S
C4414 H4400 0.930 . S
C4414 C4412 1.395 . S
C4414 C4417 1.403 . S
C4415 C4412 1.403 . S
C4415 C4416 1.524 . S
C4415 C4419 1.400 . S
C4416 H4401 0.960 . S
C4416 H4402 0.960 . S
C4416 H4403 0.960 . S
C4416 C4415 1.524 . S
C4417 C4414 1.403 . S
C4417 C4418 1.392 . S
C4417 C4421 1.495 . S
C4418 C4417 1.392 . S
C4418 C4419 1.385 . S
C4418 C4420 1.478 . S
C4419 H4413 0.930 . S
C4419 C4415 1.400 . S
C4419 C4418 1.385 . S
C4420 C4418 1.478 . S
C4420 C4422 1.381 . S
C4420 C4426 1.383 . S
C4421 C4417 1.495 . S
C4421 H4427 0.959 . S
C4421 H4428 0.961 . S
C4421 H4429 0.960 . S
C4422 C4420 1.381 . S
C4422 C4423 1.394 . S
C4422 H4430 0.930 . S
C4423 C4422 1.394 . S
C4423 C4424 1.383 . S
C4423 H4431 0.929 . S
C4424 C4423 1.383 . S
C4424 C4425 1.377 . S
C4425 H4409 0.930 . S
C4425 C4424 1.377 . S
C4425 C4426 1.379 . S
C4426 H4410 0.931 . S
C4426 C4420 1.383 . S
C4426 C4425 1.379 . S
H4427 C4421 0.959 . S
H4428 C4421 0.961 . S
H4429 C4421 0.960 . S
H4430 C4422 0.930 . S
H4431 C4423 0.929 . S
C985 C106 2.150 . S
C1004 C358 2.139 . S
C1021 C65 1.011 . S
C1040 C378 0.967 . S
C1057 C79 0.934 . S
C1076 C425 0.929 . S
C1112 C482 0.701 . S
C1093 C90 0.716 . S
C1129 C21 2.338 . S
C1148 C499 2.360 . S
C1184 C558 1.695 . S
C1165 C35 1.663 . S
C1220 C591 2.736 . S
C1201 C50 2.738 . S
C1237 C6 2.466 . S
C1256 C638 2.510 . S
C1292 C351 1.715 . S
C1273 C232 1.700 . S
C1309 C245 1.334 . S
C1328 C379 1.340 . S
C1364 C418 0.591 . S
C1345 C274 0.599 . S
C1400 C478 2.117 . S
C1381 C175 2.044 . S
C1417 C231 0.336 . S
C1436 C505 0.211 . S
C1472 C551 2.281 . S
C1453 C246 2.269 . S
C1508 C602 0.630 . S
C1489 C273 0.582 . S
C1544 C631 2.494 . S
C1525 C176 2.502 . S
C1580 C362 1.763 1_565 S
C1561 C160 1.698 . S
C1597 C289 2.245 . S
C1616 C658 2.227 . S
C1652 C722 1.229 . S
C1633 C328 1.186 . S
C1688 C758 1.334 . S
C1669 C317 1.352 . S
C1705 C118 1.111 . S
C1724 C642 1.173 . S
C1741 C132 2.582 . S
C1760 C419 2.630 . S
C1777 C331 1.524 . S
C1796 C791 1.518 . S
C1832 C825 0.434 . S
C1813 C303 0.353 . S
C1868 C339 1.703 1_565 S
C1849 C63 1.663 . S
C1904 C831 1.520 . S
C1885 C107 1.494 . S
C1921 C92 0.724 . S
C1940 C442 0.735 . S
C1957 C78 1.178 . S
C1976 C785 1.164 . S
C2012 C518 3.055 . S
C1993 C8 3.042 . S
C2029 C51 1.804 . S
C2048 C699 1.810 . S
C2084 C578 3.084 . S
C2065 C37 3.048 . S
C2120 C859 2.360 . S
C2101 C20 2.353 . S
C2156 C338 1.378 1_556 S
C2137 C147 1.322 . S
C2192 C838 1.502 . S
C2173 C316 1.498 . S
C2209 C119 0.584 . S
C2228 C431 0.591 . S
C2245 C288 2.211 . S
C2264 C779 2.211 . S
C2281 C148 0.399 . S
C2300 C522 0.416 . S
C2336 C698 2.293 . S
C2317 C315 2.285 . S
C2353 C120 0.313 . S
C2372 C585 0.402 1_565 S
C2389 C287 2.324 . S
C2408 C858 2.378 . S
C2425 C188 1.413 . S
C2444 C345 1.455 . S
C2461 C177 2.517 . S
C2480 C671 2.511 . S
C2497 C258 1.146 . S
C2516 C545 1.172 . S
C2533 C247 1.569 . S
C2552 C739 1.557 . S
C2588 C865 0.976 . S
C2569 C272 0.937 . S
C2605 C216 2.282 . S
C2624 C438 2.340 1_565 S
C2660 C458 1.791 . S
C2641 C261 1.745 . S
C2696 C402 0.295 . S
C2677 C205 0.261 . S
C2713 C76 1.712 . S
C2732 C918 1.760 . S
C2768 C818 1.078 . S
C2749 C93 1.111 . S
C2785 C105 0.552 1_455 S
C2804 C945 0.485 . S
C2821 C62 0.714 . S
C2840 C802 0.693 . S
C2857 C49 2.302 . S
C2876 C659 2.332 . S
C2912 C718 2.119 . S
C2893 C9 2.092 1_655 S
C2948 C751 2.636 . S
C2929 C22 2.644 . S
C2984 C878 2.853 . S
C2965 C36 2.875 . S
C3020 C911 1.605 . S
C3001 C260 1.589 . S
C3037 C189 1.212 . S
C3056 C819 1.233 . S
C3092 C938 0.533 . S
C3073 C204 0.481 . S
C3128 C798 1.806 . S
C3109 C217 1.762 . S
C3164 C665 0.243 . S
C3145 C259 0.368 . S
C3181 C190 2.393 . S
C3200 C711 2.400 . S
C3236 C762 0.523 . S
C3217 C203 0.515 . S
C3253 C218 2.540 . S
C3272 C871 2.530 . S
C3308 C922 1.720 . S
C3289 C314 1.664 . S
C3325 C135 2.331 . S
C3344 C498 2.309 . S
C3380 C562 1.139 . S
C3361 C146 1.118 1_565 S
C3416 C598 1.447 1_565 S
C3397 C163 1.426 . S
C3452 C882 1.203 . S
C3433 C300 1.129 . S
C3469 C286 2.446 . S
C3488 C939 2.497 1_655 S
C3524 C471 1.387 . S
C3505 C149 1.398 . S
C3560 C385 0.386 . S
C3541 C121 0.353 . S
C3577 C91 1.621 . S
C3596 C899 1.653 . S
C3632 C391 1.073 . S
C3613 C77 1.071 . S
C3649 C64 0.721 . S
C3668 C962 0.735 . S
C3685 C104 0.816 . S
C3704 C465 0.786 . S
C3721 C34 2.624 . S
C3740 C678 2.662 . S
C3776 C539 1.766 . S
C3757 C23 1.767 . S
C3793 C7 2.606 . S
C3812 C738 2.662 . S
C3829 C48 2.308 . S
C3848 C619 2.321 . S
C3884 C898 1.363 . S
C3865 C329 1.303 . S
C3901 C162 1.498 . S
C3920 C398 1.501 . S
C3956 C951 0.684 . S
C3937 C301 0.651 . S
C3973 C134 2.158 . S
C3992 C459 2.161 . S
C4009 C330 0.414 . S
C4028 C682 0.432 . S
C4064 C538 2.291 . S
C4045 C161 2.275 . S
C4081 C302 0.355 . S
C4100 C745 0.442 . S
C4136 C618 2.341 . S
C4117 C133 2.302 . S
C4172 C905 1.641 . S
C4153 C244 1.610 . S
C4208 C511 2.503 1_665 S
C4189 C219 2.500 . S
C4225 C230 0.970 . S
C4244 C705 0.990 . S
C4280 C579 1.498 . S
C4261 C191 1.530 1_554 S
C4297 C202 1.098 . S
C4316 C625 1.136 . S
C4333 C174 2.650 . S
C4352 C958 2.708 . S
C4388 C778 1.727 . S
C4369 C233 1.667 . S
C4424 C842 0.256 . S
C4405 C275 0.278 . S
