# Generated by pormake.
# Topology gar, (4,6)-cn, num edge types: 1
# Building blocks:
#     Node 0, Type 0, BuildingBlock: GALJAG_clean_sbu_0, # of connection points: 4
#     Node 1, Type 0, BuildingBlock: GALJAG_clean_sbu_0, # of connection points: 4
#     Node 2, Type 0, BuildingBlock: GALJAG_clean_sbu_0, # of connection points: 4
#     Node 3, Type 0, BuildingBlock: GALJAG_clean_sbu_0, # of connection points: 4
#     Node 4, Type 0, BuildingBlock: GALJAG_clean_sbu_0, # of connection points: 4
#     Node 5, Type 0, BuildingBlock: GALJAG_clean_sbu_0, # of connection points: 4
#     Node 6, Type 0, BuildingBlock: GALJAG_clean_sbu_0, # of connection points: 4
#     Node 7, Type 0, BuildingBlock: GALJAG_clean_sbu_0, # of connection points: 4
#     Node 8, Type 0, BuildingBlock: GALJAG_clean_sbu_0, # of connection points: 4
#     Node 9, Type 0, BuildingBlock: GALJAG_clean_sbu_0, # of connection points: 4
#     Node 10, Type 0, BuildingBlock: GALJAG_clean_sbu_0, # of connection points: 4
#     Node 11, Type 0, BuildingBlock: GALJAG_clean_sbu_0, # of connection points: 4
#     Node 12, Type 0, BuildingBlock: GALJAG_clean_sbu_0, # of connection points: 4
#     Node 13, Type 0, BuildingBlock: GALJAG_clean_sbu_0, # of connection points: 4
#     Node 14, Type 0, BuildingBlock: GALJAG_clean_sbu_0, # of connection points: 4
#     Node 15, Type 0, BuildingBlock: GALJAG_clean_sbu_0, # of connection points: 4
#     Node 16, Type 0, BuildingBlock: GALJAG_clean_sbu_0, # of connection points: 4
#     Node 17, Type 0, BuildingBlock: GALJAG_clean_sbu_0, # of connection points: 4
#     Node 18, Type 0, BuildingBlock: GALJAG_clean_sbu_0, # of connection points: 4
#     Node 19, Type 0, BuildingBlock: GALJAG_clean_sbu_0, # of connection points: 4
#     Node 20, Type 0, BuildingBlock: GALJAG_clean_sbu_0, # of connection points: 4
#     Node 21, Type 0, BuildingBlock: GALJAG_clean_sbu_0, # of connection points: 4
#     Node 22, Type 0, BuildingBlock: GALJAG_clean_sbu_0, # of connection points: 4
#     Node 23, Type 0, BuildingBlock: GALJAG_clean_sbu_0, # of connection points: 4
#     Node 24, Type 1, BuildingBlock: KUMBOL_clean_sbu_1, # of connection points: 6
#     Node 25, Type 1, BuildingBlock: KUMBOL_clean_sbu_1, # of connection points: 6
#     Node 26, Type 1, BuildingBlock: KUMBOL_clean_sbu_1, # of connection points: 6
#     Node 27, Type 1, BuildingBlock: KUMBOL_clean_sbu_1, # of connection points: 6
#     Node 28, Type 1, BuildingBlock: KUMBOL_clean_sbu_1, # of connection points: 6
#     Node 29, Type 1, BuildingBlock: KUMBOL_clean_sbu_1, # of connection points: 6
#     Node 30, Type 1, BuildingBlock: KUMBOL_clean_sbu_1, # of connection points: 6
#     Node 31, Type 1, BuildingBlock: KUMBOL_clean_sbu_1, # of connection points: 6
#     Node 32, Type 1, BuildingBlock: KUMBOL_clean_sbu_1, # of connection points: 6
#     Node 33, Type 1, BuildingBlock: KUMBOL_clean_sbu_1, # of connection points: 6
#     Node 34, Type 1, BuildingBlock: KUMBOL_clean_sbu_1, # of connection points: 6
#     Node 35, Type 1, BuildingBlock: KUMBOL_clean_sbu_1, # of connection points: 6
#     Node 36, Type 1, BuildingBlock: KUMBOL_clean_sbu_1, # of connection points: 6
#     Node 37, Type 1, BuildingBlock: KUMBOL_clean_sbu_1, # of connection points: 6
#     Node 38, Type 1, BuildingBlock: KUMBOL_clean_sbu_1, # of connection points: 6
#     Node 39, Type 1, BuildingBlock: KUMBOL_clean_sbu_1, # of connection points: 6
#     Edge 40, Type (0, 1), BuildingBlock: UVAHIK_clean_linker_0, # of connection points: 2
#     Edge 41, Type (0, 1), BuildingBlock: UVAHIK_clean_linker_0, # of connection points: 2
#     Edge 42, Type (0, 1), BuildingBlock: UVAHIK_clean_linker_0, # of connection points: 2
#     Edge 43, Type (0, 1), BuildingBlock: UVAHIK_clean_linker_0, # of connection points: 2
#     Edge 44, Type (0, 1), BuildingBlock: UVAHIK_clean_linker_0, # of connection points: 2
#     Edge 45, Type (0, 1), BuildingBlock: UVAHIK_clean_linker_0, # of connection points: 2
#     Edge 46, Type (0, 1), BuildingBlock: UVAHIK_clean_linker_0, # of connection points: 2
#     Edge 47, Type (0, 1), BuildingBlock: UVAHIK_clean_linker_0, # of connection points: 2
#     Edge 48, Type (0, 1), BuildingBlock: UVAHIK_clean_linker_0, # of connection points: 2
#     Edge 49, Type (0, 1), BuildingBlock: UVAHIK_clean_linker_0, # of connection points: 2
#     Edge 50, Type (0, 1), BuildingBlock: UVAHIK_clean_linker_0, # of connection points: 2
#     Edge 51, Type (0, 1), BuildingBlock: UVAHIK_clean_linker_0, # of connection points: 2
#     Edge 52, Type (0, 1), BuildingBlock: UVAHIK_clean_linker_0, # of connection points: 2
#     Edge 53, Type (0, 1), BuildingBlock: UVAHIK_clean_linker_0, # of connection points: 2
#     Edge 54, Type (0, 1), BuildingBlock: UVAHIK_clean_linker_0, # of connection points: 2
#     Edge 55, Type (0, 1), BuildingBlock: UVAHIK_clean_linker_0, # of connection points: 2
#     Edge 56, Type (0, 1), BuildingBlock: UVAHIK_clean_linker_0, # of connection points: 2
#     Edge 57, Type (0, 1), BuildingBlock: UVAHIK_clean_linker_0, # of connection points: 2
#     Edge 58, Type (0, 1), BuildingBlock: UVAHIK_clean_linker_0, # of connection points: 2
#     Edge 59, Type (0, 1), BuildingBlock: UVAHIK_clean_linker_0, # of connection points: 2
#     Edge 60, Type (0, 1), BuildingBlock: UVAHIK_clean_linker_0, # of connection points: 2
#     Edge 61, Type (0, 1), BuildingBlock: UVAHIK_clean_linker_0, # of connection points: 2
#     Edge 62, Type (0, 1), BuildingBlock: UVAHIK_clean_linker_0, # of connection points: 2
#     Edge 63, Type (0, 1), BuildingBlock: UVAHIK_clean_linker_0, # of connection points: 2
#     Edge 64, Type (0, 1), BuildingBlock: UVAHIK_clean_linker_0, # of connection points: 2
#     Edge 65, Type (0, 1), BuildingBlock: UVAHIK_clean_linker_0, # of connection points: 2
#     Edge 66, Type (0, 1), BuildingBlock: UVAHIK_clean_linker_0, # of connection points: 2
#     Edge 67, Type (0, 1), BuildingBlock: UVAHIK_clean_linker_0, # of connection points: 2
#     Edge 68, Type (0, 1), BuildingBlock: UVAHIK_clean_linker_0, # of connection points: 2
#     Edge 69, Type (0, 1), BuildingBlock: UVAHIK_clean_linker_0, # of connection points: 2
#     Edge 70, Type (0, 1), BuildingBlock: UVAHIK_clean_linker_0, # of connection points: 2
#     Edge 71, Type (0, 1), BuildingBlock: UVAHIK_clean_linker_0, # of connection points: 2
#     Edge 72, Type (0, 1), BuildingBlock: UVAHIK_clean_linker_0, # of connection points: 2
#     Edge 73, Type (0, 1), BuildingBlock: UVAHIK_clean_linker_0, # of connection points: 2
#     Edge 74, Type (0, 1), BuildingBlock: UVAHIK_clean_linker_0, # of connection points: 2
#     Edge 75, Type (0, 1), BuildingBlock: UVAHIK_clean_linker_0, # of connection points: 2
#     Edge 76, Type (0, 1), BuildingBlock: UVAHIK_clean_linker_0, # of connection points: 2
#     Edge 77, Type (0, 1), BuildingBlock: UVAHIK_clean_linker_0, # of connection points: 2
#     Edge 78, Type (0, 1), BuildingBlock: UVAHIK_clean_linker_0, # of connection points: 2
#     Edge 79, Type (0, 1), BuildingBlock: UVAHIK_clean_linker_0, # of connection points: 2
#     Edge 80, Type (0, 1), BuildingBlock: UVAHIK_clean_linker_0, # of connection points: 2
#     Edge 81, Type (0, 1), BuildingBlock: UVAHIK_clean_linker_0, # of connection points: 2
#     Edge 82, Type (0, 1), BuildingBlock: UVAHIK_clean_linker_0, # of connection points: 2
#     Edge 83, Type (0, 1), BuildingBlock: UVAHIK_clean_linker_0, # of connection points: 2
#     Edge 84, Type (0, 1), BuildingBlock: UVAHIK_clean_linker_0, # of connection points: 2
#     Edge 85, Type (0, 1), BuildingBlock: UVAHIK_clean_linker_0, # of connection points: 2
#     Edge 86, Type (0, 1), BuildingBlock: UVAHIK_clean_linker_0, # of connection points: 2
#     Edge 87, Type (0, 1), BuildingBlock: UVAHIK_clean_linker_0, # of connection points: 2
#     Edge 88, Type (0, 1), BuildingBlock: UVAHIK_clean_linker_0, # of connection points: 2
#     Edge 89, Type (0, 1), BuildingBlock: UVAHIK_clean_linker_0, # of connection points: 2
#     Edge 90, Type (0, 1), BuildingBlock: UVAHIK_clean_linker_0, # of connection points: 2
#     Edge 91, Type (0, 1), BuildingBlock: UVAHIK_clean_linker_0, # of connection points: 2
#     Edge 92, Type (0, 1), BuildingBlock: UVAHIK_clean_linker_0, # of connection points: 2
#     Edge 93, Type (0, 1), BuildingBlock: UVAHIK_clean_linker_0, # of connection points: 2
#     Edge 94, Type (0, 1), BuildingBlock: UVAHIK_clean_linker_0, # of connection points: 2
#     Edge 95, Type (0, 1), BuildingBlock: UVAHIK_clean_linker_0, # of connection points: 2
#     Edge 96, Type (0, 1), BuildingBlock: UVAHIK_clean_linker_0, # of connection points: 2
#     Edge 97, Type (0, 1), BuildingBlock: UVAHIK_clean_linker_0, # of connection points: 2
#     Edge 98, Type (0, 1), BuildingBlock: UVAHIK_clean_linker_0, # of connection points: 2
#     Edge 99, Type (0, 1), BuildingBlock: UVAHIK_clean_linker_0, # of connection points: 2
#     Edge 100, Type (0, 1), BuildingBlock: UVAHIK_clean_linker_0, # of connection points: 2
#     Edge 101, Type (0, 1), BuildingBlock: UVAHIK_clean_linker_0, # of connection points: 2
#     Edge 102, Type (0, 1), BuildingBlock: UVAHIK_clean_linker_0, # of connection points: 2
#     Edge 103, Type (0, 1), BuildingBlock: UVAHIK_clean_linker_0, # of connection points: 2
#     Edge 104, Type (0, 1), BuildingBlock: UVAHIK_clean_linker_0, # of connection points: 2
#     Edge 105, Type (0, 1), BuildingBlock: UVAHIK_clean_linker_0, # of connection points: 2
#     Edge 106, Type (0, 1), BuildingBlock: UVAHIK_clean_linker_0, # of connection points: 2
#     Edge 107, Type (0, 1), BuildingBlock: UVAHIK_clean_linker_0, # of connection points: 2
#     Edge 108, Type (0, 1), BuildingBlock: UVAHIK_clean_linker_0, # of connection points: 2
#     Edge 109, Type (0, 1), BuildingBlock: UVAHIK_clean_linker_0, # of connection points: 2
#     Edge 110, Type (0, 1), BuildingBlock: UVAHIK_clean_linker_0, # of connection points: 2
#     Edge 111, Type (0, 1), BuildingBlock: UVAHIK_clean_linker_0, # of connection points: 2
#     Edge 112, Type (0, 1), BuildingBlock: UVAHIK_clean_linker_0, # of connection points: 2
#     Edge 113, Type (0, 1), BuildingBlock: UVAHIK_clean_linker_0, # of connection points: 2
#     Edge 114, Type (0, 1), BuildingBlock: UVAHIK_clean_linker_0, # of connection points: 2
#     Edge 115, Type (0, 1), BuildingBlock: UVAHIK_clean_linker_0, # of connection points: 2
#     Edge 116, Type (0, 1), BuildingBlock: UVAHIK_clean_linker_0, # of connection points: 2
#     Edge 117, Type (0, 1), BuildingBlock: UVAHIK_clean_linker_0, # of connection points: 2
#     Edge 118, Type (0, 1), BuildingBlock: UVAHIK_clean_linker_0, # of connection points: 2
#     Edge 119, Type (0, 1), BuildingBlock: UVAHIK_clean_linker_0, # of connection points: 2
#     Edge 120, Type (0, 1), BuildingBlock: UVAHIK_clean_linker_0, # of connection points: 2
#     Edge 121, Type (0, 1), BuildingBlock: UVAHIK_clean_linker_0, # of connection points: 2
#     Edge 122, Type (0, 1), BuildingBlock: UVAHIK_clean_linker_0, # of connection points: 2
#     Edge 123, Type (0, 1), BuildingBlock: UVAHIK_clean_linker_0, # of connection points: 2
#     Edge 124, Type (0, 1), BuildingBlock: UVAHIK_clean_linker_0, # of connection points: 2
#     Edge 125, Type (0, 1), BuildingBlock: UVAHIK_clean_linker_0, # of connection points: 2
#     Edge 126, Type (0, 1), BuildingBlock: UVAHIK_clean_linker_0, # of connection points: 2
#     Edge 127, Type (0, 1), BuildingBlock: UVAHIK_clean_linker_0, # of connection points: 2
#     Edge 128, Type (0, 1), BuildingBlock: UVAHIK_clean_linker_0, # of connection points: 2
#     Edge 129, Type (0, 1), BuildingBlock: UVAHIK_clean_linker_0, # of connection points: 2
#     Edge 130, Type (0, 1), BuildingBlock: UVAHIK_clean_linker_0, # of connection points: 2
#     Edge 131, Type (0, 1), BuildingBlock: UVAHIK_clean_linker_0, # of connection points: 2
#     Edge 132, Type (0, 1), BuildingBlock: UVAHIK_clean_linker_0, # of connection points: 2
#     Edge 133, Type (0, 1), BuildingBlock: UVAHIK_clean_linker_0, # of connection points: 2
#     Edge 134, Type (0, 1), BuildingBlock: UVAHIK_clean_linker_0, # of connection points: 2
#     Edge 135, Type (0, 1), BuildingBlock: UVAHIK_clean_linker_0, # of connection points: 2
# Relax obj value: 0.074
# Max RMSD: 0.175
# Mean RMSD: 0.127
data_MOF--net-gar--node1-GALJAG_clean_sbu_0--node2-KUMBOL_clean_sbu_1--edge1-UVAHIK_clean_linker_0
_symmetry_space_group_name_H-M    P1
_symmetry_Int_Tables_number       1
_symmetry_cell_setting            triclinic
loop_
_symmetry_equiv_pos_as_xyz
'x, y, z'
_cell_length_a     76.259552
_cell_length_b     76.331007
_cell_length_c     71.860658
_cell_angle_alpha  95.578363
_cell_angle_beta   95.572249
_cell_angle_gamma 100.2522
loop_
_atom_site_label
_atom_site_type_symbol
_atom_site_fract_x
_atom_site_fract_y
_atom_site_fract_z
_atom_type_partial_charge
In0 In 0.04144 0.3048 0.36096 0.0
O1 O 0.05656 0.29454 0.33645 0.0
O2 O 0.07221 0.31282 0.35807 0.0
C3 C 0.00688 0.30114 0.34301 0.0
C4 C 0.04111 0.27513 0.37991 0.0
C5 C 0.04272 0.3379 0.3812 0.0
O6 O 0.02058 0.3087 0.33622 0.0
O7 O 0.01065 0.29513 0.35833 0.0
O8 O 0.04406 0.32388 0.38885 0.0
O9 O 0.0415 0.33544 0.36343 0.0
C10 C 0.0721 0.30282 0.34297 0.0
O11 O 0.04451 0.29095 0.38822 0.0
O12 O 0.03783 0.27433 0.36226 0.0
In13 In 0.01722 0.75515 0.68314 0.0
O14 O 0.01225 0.77007 0.65746 0.0
O15 O 0.02659 0.7855 0.68204 0.0
C16 C 0.01424 0.72401 0.65973 0.0
C17 C 0.05244 0.75744 0.69995 0.0
C18 C 0.98427 0.75397 0.69796 0.0
O19 O 0.01845 0.73947 0.65472 0.0
O20 O 0.01118 0.72402 0.67678 0.0
O21 O 0.99876 0.75392 0.70826 0.0
O22 O 0.98653 0.7542 0.68088 0.0
C23 C 0.02009 0.78532 0.66519 0.0
O24 O 0.04158 0.76617 0.70714 0.0
O25 O 0.04525 0.74714 0.68543 0.0
In26 In 0.54153 0.80477 0.86178 0.0
O27 O 0.55681 0.79715 0.83633 0.0
O28 O 0.57262 0.81091 0.86079 0.0
C29 C 0.5072 0.80102 0.84331 0.0
C30 C 0.54069 0.77468 0.88019 0.0
C31 C 0.54322 0.83804 0.88191 0.0
O32 O 0.52098 0.80895 0.83699 0.0
O33 O 0.51077 0.79454 0.8584 0.0
O34 O 0.54497 0.82415 0.88962 0.0
O35 O 0.54145 0.83538 0.86414 0.0
C36 C 0.57249 0.8033 0.84435 0.0
O37 O 0.54134 0.79015 0.88865 0.0
O38 O 0.54032 0.77437 0.86255 0.0
In39 In 0.51675 0.2552 0.18375 0.0
O40 O 0.514 0.23878 0.15493 0.0
O41 O 0.5118 0.2239 0.17824 0.0
C42 C 0.52031 0.28522 0.16563 0.0
C43 C 0.48371 0.25492 0.19855 0.0
C44 C 0.55259 0.25848 0.19951 0.0
O45 O 0.51479 0.26957 0.15743 0.0
O46 O 0.52409 0.28594 0.18325 0.0
O47 O 0.54095 0.26445 0.20851 0.0
O48 O 0.54599 0.25055 0.18353 0.0
C49 C 0.51199 0.2235 0.16058 0.0
O50 O 0.49718 0.25085 0.2078 0.0
O51 O 0.48704 0.25895 0.18251 0.0
In52 In 0.0521 0.79166 0.11103 0.0
O53 O 0.0539 0.76857 0.08673 0.0
O54 O 0.04238 0.7612 0.11092 0.0
C55 C 0.05244 0.82434 0.09581 0.0
C56 C 0.02263 0.78984 0.12988 0.0
C57 C 0.08443 0.79539 0.13301 0.0
O58 O 0.04691 0.80923 0.08607 0.0
O59 O 0.05824 0.82282 0.11249 0.0
O60 O 0.07027 0.79866 0.13911 0.0
O61 O 0.08263 0.79064 0.11545 0.0
C62 C 0.04696 0.75577 0.09534 0.0
O63 O 0.03804 0.78904 0.13744 0.0
O64 O 0.02187 0.79178 0.11256 0.0
In65 In 0.50227 0.76704 0.43231 0.0
O66 O 0.51797 0.76032 0.40719 0.0
O67 O 0.53296 0.77514 0.43171 0.0
C68 C 0.46903 0.76558 0.41174 0.0
C69 C 0.50422 0.73599 0.44955 0.0
C70 C 0.50505 0.80138 0.45064 0.0
O71 O 0.48389 0.77039 0.40564 0.0
O72 O 0.47068 0.76062 0.42802 0.0
O73 O 0.50331 0.78758 0.4593 0.0
O74 O 0.50568 0.79782 0.43325 0.0
C75 C 0.53329 0.76784 0.41525 0.0
O76 O 0.50632 0.75141 0.45867 0.0
O77 O 0.50031 0.73613 0.43208 0.0
In78 In 0.55238 0.29081 0.61113 0.0
O79 O 0.55431 0.26767 0.58701 0.0
O80 O 0.54176 0.26037 0.61067 0.0
C81 C 0.55323 0.32366 0.59613 0.0
C82 C 0.52301 0.28912 0.6301 0.0
C83 C 0.58487 0.29432 0.63271 0.0
O84 O 0.54786 0.30864 0.58614 0.0
O85 O 0.55858 0.32192 0.61287 0.0
O86 O 0.57125 0.29904 0.63874 0.0
O87 O 0.58242 0.28811 0.61549 0.0
C88 C 0.54677 0.2549 0.59531 0.0
O89 O 0.53835 0.28789 0.63755 0.0
O90 O 0.52229 0.29133 0.61284 0.0
In91 In 1.0023 0.26681 0.93239 0.0
O92 O 1.00325 0.25024 0.95857 0.0
O93 O 1.0043 0.23657 0.93194 0.0
C94 C 0.00557 0.30115 0.95113 0.0
C95 C 0.03331 0.26788 0.91536 0.0
C96 C 0.96912 0.26527 0.9114 0.0
O97 O 1.00332 0.28725 0.95961 0.0
O98 O 0.00655 0.29766 0.93381 0.0
O99 O 0.984 0.27211 0.9065 0.0
O100 O 0.97074 0.25828 0.92657 0.0
C101 C 0.00478 0.23562 0.94943 0.0
O102 O 0.01798 0.26047 0.90719 0.0
O103 O 0.03302 0.2749 0.93196 0.0
In104 In 0.39179 0.02 0.29475 0.0
O105 O 0.41394 0.02951 0.27723 0.0
O106 O 0.38918 0.01373 0.26362 0.0
C107 C 0.40805 0.02215 0.32907 0.0
C108 C 0.37398 0.04652 0.29387 0.0
C109 C 0.37565 0.98659 0.29546 0.0
O110 O 0.41555 0.01764 0.31492 0.0
O111 O 0.39321 0.02688 0.32563 0.0
O112 O 0.36774 0.99963 0.29814 0.0
O113 O 0.39163 0.9904 0.29176 0.0
C114 C 0.40461 0.02224 0.26202 0.0
O115 O 0.3663 0.03029 0.29037 0.0
O116 O 0.39086 0.04938 0.29767 0.0
In117 In 0.26855 0.17506 0.51118 0.0
O118 O 0.27082 0.19993 0.53356 0.0
O119 O 0.27242 0.17486 0.54309 0.0
C120 C 0.26979 0.18955 0.47785 0.0
C121 C 0.29672 0.15802 0.51297 0.0
C122 C 0.23486 0.15528 0.50639 0.0
O123 O 0.27332 0.19921 0.4936 0.0
O124 O 0.26567 0.17302 0.47911 0.0
O125 O 0.2485 0.14903 0.50273 0.0
O126 O 0.23804 0.17179 0.51231 0.0
C127 C 0.2726 0.19125 0.54755 0.0
O128 O 0.2812 0.15104 0.51606 0.0
O129 O 0.2983 0.1739 0.50884 0.0
In130 In 0.13133 0.03929 0.78559 0.0
O131 O 0.10689 0.03009 0.76222 0.0
O132 O 0.13122 0.04398 0.75475 0.0
C133 C 0.11665 0.03765 0.8188 0.0
C134 C 0.14869 0.01162 0.782 0.0
C135 C 0.15253 0.07213 0.79268 0.0
O136 O 0.10988 0.04463 0.80525 0.0
O137 O 0.13027 0.03126 0.81535 0.0
O138 O 0.15845 0.05779 0.7934 0.0
O139 O 0.13571 0.07 0.78885 0.0
C140 C 0.11535 0.03622 0.74923 0.0
O141 O 0.15626 0.02775 0.7823 0.0
O142 O 0.13206 0.00922 0.78347 0.0
In143 In 0.28521 0.91562 0.99829 0.0
O144 O 0.28331 0.89437 0.01787 0.0
O145 O 0.28485 0.92163 0.02955 0.0
C146 C 0.28354 0.8973 0.96498 0.0
C147 C 0.25525 0.92786 0.99461 0.0
C148 C 0.31825 0.93373 0.99931 0.0
O149 O 0.28796 0.89091 0.97991 0.0
O150 O 0.279 0.91233 0.96702 0.0
O151 O 0.30478 0.94112 0.99722 0.0
O152 O 0.31504 0.91742 0.0017 0.0
C153 C 0.28375 0.90541 0.03227 0.0
O154 O 0.27035 0.93773 0.99417 0.0
O155 O 0.25531 0.91168 0.99708 0.0
In156 In 0.29222 0.39051 0.03568 0.0
O157 O 0.28026 0.36672 0.05048 0.0
O158 O 0.29934 0.38744 0.06687 0.0
C159 C 0.29123 0.37184 0.00142 0.0
C160 C 0.26293 0.40616 0.03629 0.0
C161 C 0.32571 0.41008 0.03657 0.0
O162 O 0.29075 0.36438 0.01635 0.0
O163 O 0.29222 0.38858 0.0038 0.0
O164 O 0.31169 0.41645 0.03312 0.0
O165 O 0.32286 0.394 0.04013 0.0
C166 C 0.28875 0.37264 0.06643 0.0
O167 O 0.27764 0.41306 0.04604 0.0
O168 O 0.26325 0.39187 0.02613 0.0
In169 In 0.76447 0.12322 0.0446 0.0
O170 O 0.77997 0.10043 0.04544 0.0
O171 O 0.79414 0.12741 0.04651 0.0
C172 C 0.73042 0.10712 0.04117 0.0
C173 C 0.76524 0.13913 0.079 0.0
C174 C 0.76654 0.14096 0.01458 0.0
O175 O 0.74213 0.09884 0.03514 0.0
O176 O 0.73617 0.12288 0.04886 0.0
O177 O 0.77362 0.14793 0.03078 0.0
O178 O 0.75837 0.12494 0.01341 0.0
C179 C 0.79491 0.1111 0.04668 0.0
O180 O 0.76113 0.14622 0.06445 0.0
O181 O 0.76938 0.12386 0.07634 0.0
In182 In 0.1835 0.54266 0.25105 0.0
O183 O 0.20588 0.52717 0.24749 0.0
O184 O 0.1819 0.51522 0.25825 0.0
C185 C 0.19912 0.5763 0.25278 0.0
C186 C 0.16758 0.53274 0.2165 0.0
C187 C 0.16597 0.54704 0.28066 0.0
O188 O 0.20745 0.56493 0.25944 0.0
O189 O 0.18337 0.57037 0.245 0.0
O190 O 0.1589 0.54707 0.26402 0.0
O191 O 0.18203 0.54482 0.2824 0.0
C192 C 0.1968 0.51348 0.25295 0.0
O193 O 0.16008 0.5285 0.23075 0.0
O194 O 0.18304 0.54233 0.21967 0.0
In195 In 0.79237 0.89062 0.53477 0.0
O196 O 0.79159 0.86548 0.54982 0.0
O197 O 0.79033 0.88979 0.56629 0.0
C198 C 0.78992 0.87191 0.5002 0.0
C199 C 0.7624 0.90518 0.53532 0.0
C200 C 0.82602 0.91029 0.53626 0.0
O201 O 0.78736 0.86434 0.51483 0.0
O202 O 0.79346 0.88879 0.50301 0.0
O203 O 0.81222 0.91513 0.52895 0.0
O204 O 0.82288 0.89582 0.54352 0.0
C205 C 0.79011 0.87317 0.56582 0.0
O206 O 0.7776 0.91351 0.54291 0.0
O207 O 0.76244 0.88976 0.52727 0.0
In208 In 0.91717 0.01549 0.26094 0.0
O209 O 0.94118 0.0281 0.24676 0.0
O210 O 0.92045 0.00955 0.22968 0.0
C211 C 0.93633 0.01615 0.29494 0.0
C212 C 0.90155 0.04477 0.2597 0.0
C213 C 0.89728 0.98201 0.25984 0.0
O214 O 0.94217 0.01189 0.27961 0.0
O215 O 0.92094 0.0201 0.29309 0.0
O216 O 0.89143 0.99598 0.26496 0.0
O217 O 0.91283 0.98498 0.25483 0.0
C218 C 0.93533 0.02012 0.23056 0.0
O219 O 0.89417 0.02972 0.25088 0.0
O220 O 0.91629 0.04478 0.26926 0.0
In221 In 0.26275 0.62308 0.54348 0.0
O222 O 0.27953 0.60156 0.54753 0.0
O223 O 0.29193 0.62811 0.54334 0.0
C224 C 0.22934 0.60568 0.54086 0.0
C225 C 0.26442 0.64081 0.57714 0.0
C226 C 0.26456 0.63981 0.51278 0.0
O227 O 0.24111 0.59831 0.53363 0.0
O228 O 0.23474 0.62122 0.54925 0.0
O229 O 0.27018 0.64768 0.52905 0.0
O230 O 0.25759 0.62343 0.51193 0.0
C231 C 0.29383 0.61259 0.54646 0.0
O232 O 0.25904 0.64673 0.56224 0.0
O233 O 0.26909 0.62573 0.57513 0.0
In234 In 0.41774 0.51471 0.76005 0.0
O235 O 0.39459 0.52883 0.75038 0.0
O236 O 0.41717 0.54406 0.768 0.0
C237 C 0.39796 0.48126 0.75925 0.0
C238 C 0.43554 0.51906 0.72938 0.0
C239 C 0.43668 0.51584 0.79424 0.0
O240 O 0.39193 0.49526 0.76387 0.0
O241 O 0.41365 0.48419 0.7546 0.0
O242 O 0.44269 0.51143 0.77905 0.0
O243 O 0.42124 0.51966 0.79214 0.0
C244 C 0.40221 0.54396 0.75885 0.0
O245 O 0.4415 0.52724 0.74546 0.0
O246 O 0.42076 0.50839 0.72875 0.0
In247 In 0.68339 0.04277 0.75164 0.0
O248 O 0.70562 0.02697 0.74861 0.0
O249 O 0.6807 0.01492 0.75752 0.0
C250 C 0.69935 0.07623 0.75309 0.0
C251 C 0.66744 0.03317 0.71707 0.0
C252 C 0.66618 0.04715 0.7815 0.0
O253 O 0.70751 0.06485 0.76001 0.0
O254 O 0.6836 0.07039 0.74526 0.0
O255 O 0.65918 0.04783 0.76499 0.0
O256 O 0.68205 0.04433 0.78301 0.0
C257 C 0.69584 0.0131 0.75294 0.0
O258 O 0.65972 0.02937 0.73131 0.0
O259 O 0.68316 0.04222 0.72023 0.0
In260 In 0.769 0.67504 0.01041 0.0
O261 O 0.78153 0.65088 0.01381 0.0
O262 O 0.79915 0.6748 0.00977 0.0
C263 C 0.73583 0.65423 0.00633 0.0
C264 C 0.7728 0.69205 0.04652 0.0
C265 C 0.77052 0.68831 0.97642 0.0
O266 O 0.75004 0.64814 0.00555 0.0
O267 O 0.73816 0.67111 0.00913 0.0
O268 O 0.77253 0.69845 0.9918 0.0
O269 O 0.7679 0.67187 0.97833 0.0
C270 C 0.79734 0.65842 0.01232 0.0
O271 O 0.76867 0.69969 0.03231 0.0
O272 O 0.77516 0.67631 0.04242 0.0
In273 In 0.89238 0.51944 0.79516 0.0
O274 O 0.8672 0.52971 0.78924 0.0
O275 O 0.89119 0.54875 0.79973 0.0
C276 C 0.87607 0.4861 0.79569 0.0
C277 C 0.90549 0.52201 0.76261 0.0
C278 C 0.90787 0.52111 0.82963 0.0
O279 O 0.86819 0.49918 0.79822 0.0
O280 O 0.89213 0.48984 0.79223 0.0
O281 O 0.91591 0.51723 0.81565 0.0
O282 O 0.89288 0.52547 0.82597 0.0
C283 C 0.87455 0.54586 0.79431 0.0
O284 O 0.9147 0.52932 0.77789 0.0
O285 O 0.89015 0.51328 0.7641 0.0
In286 In 0.78683 0.41808 0.5002 0.0
O287 O 0.78084 0.39516 0.51716 0.0
O288 O 0.79031 0.4215 0.53178 0.0
C289 C 0.78495 0.40065 0.46664 0.0
C290 C 0.75951 0.43462 0.4999 0.0
C291 C 0.82017 0.43378 0.49891 0.0
O292 O 0.78647 0.39296 0.48134 0.0
O293 O 0.78307 0.41674 0.46898 0.0
O294 O 0.80713 0.44146 0.49533 0.0
O295 O 0.81644 0.41844 0.50421 0.0
C296 C 0.78523 0.40498 0.5327 0.0
O297 O 0.77542 0.44254 0.5053 0.0
O298 O 0.75727 0.41797 0.49482 0.0
In299 In 0.63318 0.53897 0.28507 0.0
O300 O 0.65812 0.52745 0.28139 0.0
O301 O 0.63409 0.50891 0.28299 0.0
C302 C 0.65306 0.57247 0.29148 0.0
C303 C 0.61719 0.53564 0.24875 0.0
C304 C 0.61899 0.53738 0.31856 0.0
O305 O 0.65944 0.55862 0.2939 0.0
O306 O 0.6364 0.56954 0.28619 0.0
O307 O 0.6106 0.54176 0.30418 0.0
O308 O 0.63398 0.53357 0.31579 0.0
C309 C 0.65067 0.51132 0.28127 0.0
O310 O 0.60857 0.53016 0.26194 0.0
O311 O 0.6333 0.54279 0.25404 0.0
C312 C 1.00062 0.98723 0.00255 0.0
C313 C 0.98422 0.97226 0.02571 0.0
C314 C 0.9942 0.98787 0.02012 0.0
C315 C 0.98075 0.95617 0.01355 0.0
C316 C 0.99692 0.97114 0.99023 0.0
C317 C 0.98699 0.95564 0.99584 0.0
N318 N 0.01064 1.00229 0.99761 0.0
C319 C 0.01636 1.00252 0.98022 0.0
C320 C 1.00326 0.97113 0.97258 0.0
C321 C 0.01292 0.98692 0.96752 0.0
Gd322 Gd 0.06162 0.0444 0.04629 0.0
Gd323 Gd 0.01336 0.02805 0.01874 0.0
N324 N 0.99752 0.00372 0.03157 0.0
C325 C 0.97775 0.97333 0.04327 0.0
C326 C 0.99028 0.00501 0.04817 0.0
C327 C 0.98068 0.98981 0.05447 0.0
H328 H 0.99123 0.01776 0.05633 0.0
H329 H 0.97519 0.99089 0.06778 0.0
H330 H 0.08548 0.05506 0.01122 0.0
H331 H 0.02312 0.01482 0.97584 0.0
H332 H 0.10481 0.08148 0.00192 0.0
H333 H 0.97008 0.96163 0.04809 0.0
H334 H 0.97307 0.94409 0.01762 0.0
H335 H 0.053 0.05624 0.0907 0.0
H336 H 1.00058 0.95907 0.96267 0.0
H337 H 0.01751 0.98715 0.95374 0.0
H338 H 0.10833 0.1269 0.05394 0.0
H339 H 0.98403 0.94316 0.98656 0.0
H340 H 0.07805 0.1109 0.10689 0.0
H341 H 0.05969 0.08283 0.1141 0.0
N342 N 0.06576 0.06939 0.06936 0.0
C343 C 0.07654 0.08449 0.06544 0.0
C344 C 0.06008 0.06859 0.08678 0.0
C345 C 0.07466 0.09938 0.09625 0.0
C346 C 0.06423 0.08359 0.10034 0.0
C347 C 0.08114 0.09994 0.07873 0.0
H348 H 0.09613 0.1272 0.08439 0.0
N349 N 0.07983 0.06893 0.03633 0.0
C350 C 0.08377 0.08425 0.04845 0.0
C351 C 0.10262 0.09857 0.02695 0.0
C352 C 0.0953 0.09952 0.04407 0.0
C353 C 0.08765 0.06762 0.0201 0.0
C354 C 0.09886 0.0825 0.01496 0.0
O355 O 0.03092 0.00675 0.02391 0.0
O356 O 0.04566 0.01801 0.05265 0.0
O357 O 0.08454 0.03161 0.04223 0.0
O358 O 0.08021 0.04254 0.07009 0.0
O359 O 0.01313 0.04195 0.04813 0.0
O360 O 0.03899 0.03613 0.06348 0.0
O361 O 0.05066 0.06542 0.02984 0.0
O362 O 0.02027 0.05769 0.03034 0.0
O363 O 0.98463 0.02601 0.01368 0.0
O364 O 1.00151 0.03624 0.9931 0.0
O365 O 0.0596 0.03042 0.01647 0.0
O366 O 0.03514 0.03941 0.00196 0.0
C367 C 0.03901 0.00412 0.0402 0.0
C368 C 0.02338 0.041 0.06368 0.0
C369 C 0.11003 0.04104 0.06537 0.0
C370 C 0.13983 0.03526 0.06241 0.0
C371 C 0.13505 0.0556 0.08857 0.0
C372 C 0.11683 0.0528 0.08187 0.0
C373 C 0.14653 0.04664 0.07901 0.0
C374 C 0.12171 0.03263 0.05554 0.0
C375 C 0.09069 0.035 0.06007 0.0
C376 C 0.09946 0.11506 0.05703 0.0
C377 C 0.09248 0.11524 0.07435 0.0
H378 H 0.11149 0.11002 0.02305 0.0
C379 C 0.03447 0.06941 0.02763 0.0
C380 C 0.05098 0.03506 0.00149 0.0
C381 C 0.97557 0.04844 0.99653 0.0
C382 C 0.95576 0.06739 0.0087 0.0
C383 C 0.96558 0.07038 0.97781 0.0
C384 C 0.97531 0.05673 0.97994 0.0
C385 C 0.95581 0.07569 0.99207 0.0
C386 C 0.96586 0.05394 0.01094 0.0
C387 C 0.98545 0.0337 0.9983 0.0
H388 H 0.14016 0.0643 0.10148 0.0
H389 H 0.10804 0.05929 0.08997 0.0
H390 H 0.16051 0.04833 0.08465 0.0
H391 H 0.11654 0.02309 0.04317 0.0
H392 H 0.9653 0.07662 0.96492 0.0
H393 H 0.98254 0.05254 0.96856 0.0
H394 H 0.94775 0.0858 0.98979 0.0
H395 H 0.96582 0.04757 0.02379 0.0
C396 C 0.29556 0.7508 0.24096 0.0
C397 C 0.27088 0.73609 0.21765 0.0
C398 C 0.27857 0.75029 0.23177 0.0
C399 C 0.2804 0.72241 0.21313 0.0
C400 C 0.30518 0.73711 0.23646 0.0
C401 C 0.2975 0.72292 0.22251 0.0
N402 N 0.30253 0.76451 0.25464 0.0
C403 C 0.31916 0.76565 0.26405 0.0
C404 C 0.32221 0.73807 0.24621 0.0
C405 C 0.32924 0.75244 0.26002 0.0
Gd406 Gd 0.25625 0.78915 0.30984 0.0
Gd407 Gd 0.28495 0.78609 0.26057 0.0
N408 N 0.26958 0.76361 0.23669 0.0
C409 C 0.25389 0.73612 0.20839 0.0
C410 C 0.25333 0.76404 0.22706 0.0
C411 C 0.24516 0.75024 0.21301 0.0
H412 H 0.24663 0.77509 0.22964 0.0
H413 H 0.23221 0.75063 0.20559 0.0
H414 H 0.29413 0.79918 0.34153 0.0
H415 H 0.32476 0.77684 0.27455 0.0
H416 H 0.30703 0.82167 0.36808 0.0
H417 H 0.24753 0.72547 0.19746 0.0
H418 H 0.27467 0.71139 0.20236 0.0
H419 H 0.21556 0.7977 0.29682 0.0
H420 H 0.33003 0.72783 0.24314 0.0
H421 H 0.34244 0.75337 0.26754 0.0
H422 H 0.26203 0.85742 0.37575 0.0
H423 H 0.30467 0.71226 0.21887 0.0
H424 H 0.20757 0.8424 0.33359 0.0
H425 H 0.19661 0.81915 0.30652 0.0
N426 N 0.23722 0.80886 0.318 0.0
C427 C 0.24339 0.82129 0.33314 0.0
C428 C 0.22063 0.80792 0.30851 0.0
C429 C 0.21599 0.83303 0.32938 0.0
C430 C 0.20977 0.81997 0.31405 0.0
C431 C 0.23297 0.83384 0.33913 0.0
H432 H 0.23204 0.8566 0.35929 0.0
N433 N 0.27018 0.80957 0.33616 0.0
C434 C 0.26033 0.82169 0.34247 0.0
C435 C 0.2843 0.83482 0.36708 0.0
C436 C 0.26722 0.83474 0.35798 0.0
C437 C 0.28659 0.80924 0.3455 0.0
C438 C 0.29394 0.82193 0.3609 0.0
O439 O 0.27696 0.7594 0.27096 0.0
O440 O 0.25658 0.77234 0.28313 0.0
O441 O 0.25664 0.76848 0.32835 0.0
O442 O 0.23126 0.77429 0.31675 0.0
O443 O 0.25779 0.79552 0.2563 0.0
O444 O 0.23984 0.78827 0.28074 0.0
O445 O 0.26648 0.81746 0.30465 0.0
O446 O 0.27731 0.80044 0.28527 0.0
O447 O 0.28446 0.80296 0.2384 0.0
O448 O 0.31037 0.80075 0.25343 0.0
O449 O 0.28467 0.78147 0.31283 0.0
O450 O 0.30207 0.79228 0.28936 0.0
C451 C 0.26446 0.75875 0.282 0.0
C452 C 0.24232 0.79373 0.26385 0.0
C453 C 0.23351 0.76639 0.34769 0.0
C454 C 0.23552 0.75582 0.37832 0.0
C455 C 0.21728 0.77798 0.37211 0.0
C456 C 0.22199 0.77771 0.35377 0.0
C457 C 0.2241 0.76711 0.38445 0.0
C458 C 0.24009 0.75542 0.36 0.0
C459 C 0.23934 0.76594 0.32887 0.0
C460 C 0.25691 0.84729 0.36391 0.0
C461 C 0.23983 0.84682 0.35454 0.0
H462 H 0.29007 0.84464 0.37901 0.0
C463 C 0.27573 0.81665 0.2907 0.0
C464 C 0.30033 0.78551 0.30568 0.0
C465 C 0.3107 0.81977 0.22801 0.0
C466 C 0.30903 0.83426 0.19958 0.0
C467 C 0.33744 0.83782 0.2192 0.0
C468 C 0.32912 0.827 0.23163 0.0
C469 C 0.32748 0.84133 0.2031 0.0
C470 C 0.30067 0.82369 0.21209 0.0
C471 C 0.30186 0.80761 0.2402 0.0
H472 H 0.20831 0.78658 0.37675 0.0
H473 H 0.21668 0.78634 0.34447 0.0
H474 H 0.22024 0.76723 0.39857 0.0
H475 H 0.24887 0.74655 0.35535 0.0
H476 H 0.35165 0.84337 0.22196 0.0
H477 H 0.33705 0.8242 0.24395 0.0
H478 H 0.3341 0.84962 0.19347 0.0
H479 H 0.28643 0.81814 0.20907 0.0
C480 C 0.56419 0.05988 0.50753 0.0
C481 C 0.58483 0.07771 0.53316 0.0
C482 C 0.57169 0.06243 0.5263 0.0
C483 C 0.5903 0.09042 0.52097 0.0
C484 C 0.56968 0.07261 0.49528 0.0
C485 C 0.58274 0.08788 0.50211 0.0
N486 N 0.55141 0.04509 0.50133 0.0
C487 C 0.54403 0.04188 0.48297 0.0
C488 C 0.56186 0.06961 0.47651 0.0
C489 C 0.54905 0.05414 0.47032 0.0
Gd490 Gd 0.49835 0.02187 0.54626 0.0
Gd491 Gd 0.54482 0.02524 0.52363 0.0
N492 N 0.56575 0.05018 0.53795 0.0
C493 C 0.59208 0.07977 0.55209 0.0
C494 C 0.57331 0.05167 0.55612 0.0
C495 C 0.58641 0.0666 0.56356 0.0
H496 H 0.56963 0.04117 0.56473 0.0
H497 H 0.59227 0.06783 0.57808 0.0
H498 H 0.47417 0.00464 0.50484 0.0
H499 H 0.53463 0.02966 0.47787 0.0
H500 H 0.45302 0.97707 0.49138 0.0
H501 H 0.60224 0.09132 0.55789 0.0
H502 H 0.60036 0.10227 0.52601 0.0
H503 H 0.50877 0.01776 0.59202 0.0
H504 H 0.56574 0.07906 0.46666 0.0
H505 H 0.54315 0.05155 0.45577 0.0
H506 H 0.44628 0.94267 0.54355 0.0
H507 H 0.58711 0.09781 0.4929 0.0
H508 H 0.47959 0.96733 0.60313 0.0
H509 H 0.50101 0.99562 0.61414 0.0
N510 N 0.49276 1.00169 0.56846 0.0
C511 C 0.48065 0.98639 0.56216 0.0
C512 C 0.49991 0.0052 0.58689 0.0
C513 C 0.48316 0.97687 0.59327 0.0
C514 C 0.49532 0.9928 0.59953 0.0
C515 C 0.47561 0.97352 0.57442 0.0
H516 H 0.45913 0.94778 0.57678 0.0
N517 N 0.47857 0.99606 0.5317 0.0
C518 C 0.47331 0.98351 0.54331 0.0
C519 C 0.45375 0.96527 0.51743 0.0
C520 C 0.46087 0.96769 0.5364 0.0
C521 C 0.47108 0.99411 0.51346 0.0
C522 C 0.4588 0.9786 0.50595 0.0
O523 O 0.53623 0.05245 0.53124 0.0
O524 O 0.51708 0.04895 0.55434 0.0
O525 O 0.4742 0.03293 0.53836 0.0
O526 O 0.48343 0.03091 0.56785 0.0
O527 O 0.54209 0.01486 0.5517 0.0
O528 O 0.52335 0.03126 0.56558 0.0
O529 O 0.50887 0.9955 0.5396 0.0
O530 O 0.52414 0.99994 0.51387 0.0
O531 O 0.56697 0.01121 0.53164 0.0
O532 O 0.56038 0.01636 0.50257 0.0
O533 O 0.50142 0.03357 0.51907 0.0
O534 O 0.51964 0.01761 0.50392 0.0
C535 C 0.52753 0.05925 0.54447 0.0
C536 C 0.53632 0.02228 0.56656 0.0
C537 C 0.4569 0.0437 0.56296 0.0
C538 C 0.4307 0.0577 0.558 0.0
C539 C 0.44213 0.05324 0.58961 0.0
C540 C 0.45557 0.04544 0.58242 0.0
C541 C 0.42978 0.05932 0.57753 0.0
C542 C 0.44445 0.04999 0.55071 0.0
C543 C 0.47172 0.03582 0.55606 0.0
C544 C 0.45586 0.95488 0.54861 0.0
C545 C 0.46318 0.95779 0.56755 0.0
H546 H 0.44415 0.95331 0.51159 0.0
C547 C 0.5155 0.98915 0.52455 0.0
C548 C 0.50626 0.02619 0.50371 0.0
C549 C 0.58519 1.00104 0.50746 0.0
C550 C 0.60908 0.9838 0.51175 0.0
C551 C 0.60113 0.99294 0.48114 0.0
C552 C 0.58806 1.00128 0.48841 0.0
C553 C 0.61153 0.9842 0.49268 0.0
C554 C 0.59594 0.99235 0.51926 0.0
C555 C 0.57068 0.00963 0.51426 0.0
H556 H 0.44132 0.05465 0.60462 0.0
H557 H 0.46501 0.04087 0.59221 0.0
H558 H 0.41956 0.06554 0.58352 0.0
H559 H 0.44536 0.04884 0.5357 0.0
H560 H 0.60316 0.9932 0.46646 0.0
H561 H 0.58012 0.00787 0.47899 0.0
H562 H 0.62161 0.97775 0.48673 0.0
H563 H 0.59395 0.99199 0.53396 0.0
C564 C 0.24305 0.29089 0.73864 0.0
C565 C 0.22626 0.26346 0.72061 0.0
C566 C 0.23719 0.2724 0.73692 0.0
C567 C 0.22124 0.27333 0.70613 0.0
C568 C 0.23807 0.30082 0.72411 0.0
C569 C 0.22712 0.29195 0.70788 0.0
N570 N 0.25381 0.29913 0.75439 0.0
C571 C 0.25971 0.31724 0.75673 0.0
C572 C 0.24428 0.31939 0.7263 0.0
C573 C 0.25511 0.32763 0.74272 0.0
Gd574 Gd 0.30833 0.26334 0.78146 0.0
Gd575 Gd 0.26041 0.28055 0.77711 0.0
N576 N 0.24263 0.26313 0.75098 0.0
C577 C 0.22072 0.24485 0.71931 0.0
C578 C 0.23678 0.2451 0.75006 0.0
C579 C 0.22593 0.23565 0.73415 0.0
H580 H 0.24027 0.23797 0.76157 0.0
H581 H 0.22147 0.2213 0.7334 0.0
H582 H 0.33236 0.30518 0.79257 0.0
H583 H 0.26758 0.32376 0.76962 0.0
H584 H 0.35438 0.32229 0.81805 0.0
H585 H 0.21232 0.23748 0.707 0.0
H586 H 0.21283 0.26668 0.6935 0.0
H587 H 0.30058 0.22096 0.79193 0.0
H588 H 0.24072 0.32749 0.71547 0.0
H589 H 0.2598 0.342 0.74464 0.0
H590 H 0.36356 0.27917 0.86054 0.0
H591 H 0.22314 0.29936 0.69658 0.0
H592 H 0.33097 0.21899 0.84461 0.0
H593 H 0.30937 0.20381 0.81747 0.0
N594 N 0.31593 0.24579 0.80498 0.0
C595 C 0.32822 0.25428 0.81948 0.0
C596 C 0.30938 0.22785 0.80402 0.0
C597 C 0.32688 0.22664 0.83357 0.0
C598 C 0.31462 0.21804 0.81833 0.0
C599 C 0.33397 0.24494 0.83423 0.0
H600 H 0.35117 0.24713 0.86052 0.0
N601 N 0.32898 0.28112 0.80534 0.0
C602 C 0.33515 0.27238 0.81952 0.0
C603 C 0.35487 0.29975 0.8338 0.0
C604 C 0.34811 0.28153 0.83425 0.0
C605 C 0.33611 0.29866 0.80446 0.0
C606 C 0.34892 0.30831 0.81876 0.0
O607 O 0.27251 0.27349 0.74998 0.0
O608 O 0.28715 0.25101 0.75748 0.0
O609 O 0.3301 0.27046 0.76354 0.0
O610 O 0.32407 0.24393 0.77306 0.0
O611 O 0.26267 0.25594 0.7917 0.0
O612 O 0.28319 0.24177 0.77764 0.0
O613 O 0.29825 0.27193 0.80924 0.0
O614 O 0.28058 0.29248 0.80193 0.0
O615 O 0.23649 0.2716 0.79184 0.0
O616 O 0.24414 0.29927 0.78602 0.0
O617 O 0.3066 0.28909 0.76832 0.0
O618 O 0.28534 0.30221 0.78251 0.0
C619 C 0.28022 0.25993 0.74489 0.0
C620 C 0.26872 0.24138 0.78642 0.0
C621 C 0.34794 0.24776 0.75326 0.0
C622 C 0.375 0.2519 0.73707 0.0
C623 C 0.36048 0.22203 0.74217 0.0
C624 C 0.34753 0.22916 0.75111 0.0
C625 C 0.37414 0.23327 0.73528 0.0
C626 C 0.36168 0.25921 0.74593 0.0
C627 C 0.33398 0.25448 0.76347 0.0
C628 C 0.35374 0.27231 0.84904 0.0
C629 C 0.34666 0.25408 0.84904 0.0
H630 H 0.36478 0.30727 0.84488 0.0
C631 C 0.28869 0.28406 0.81419 0.0
C632 C 0.30001 0.30331 0.774 0.0
C633 C 0.21729 0.29349 0.80164 0.0
C634 C 0.19175 0.2898 0.82048 0.0
C635 C 0.20013 0.31729 0.80638 0.0
C636 C 0.21401 0.31065 0.7987 0.0
C637 C 0.18916 0.30703 0.81718 0.0
C638 C 0.2059 0.28287 0.81257 0.0
C639 C 0.23285 0.28772 0.7932 0.0
H640 H 0.35998 0.20769 0.74064 0.0
H641 H 0.33714 0.21999 0.75638 0.0
H642 H 0.38408 0.22734 0.72841 0.0
H643 H 0.36226 0.27357 0.74746 0.0
H644 H 0.19789 0.33053 0.80396 0.0
H645 H 0.22224 0.31913 0.79039 0.0
H646 H 0.17847 0.31259 0.82301 0.0
H647 H 0.20813 0.26963 0.81509 0.0
C648 C 0.01882 0.065 0.55873 0.0
C649 C 0.04549 0.08469 0.57536 0.0
C650 C 0.03687 0.07276 0.5596 0.0
C651 C 0.03604 0.08789 0.59077 0.0
C652 C 0.0091 0.06885 0.57387 0.0
C653 C 0.01792 0.07991 0.59007 0.0
N654 N 0.01049 0.05479 0.54263 0.0
C655 C 0.99221 0.04967 0.54014 0.0
C656 C 0.99064 0.06209 0.57201 0.0
C657 C 0.98212 0.05275 0.55493 0.0
Gd658 Gd 0.04192 0.99946 0.51641 0.0
Gd659 Gd 0.02936 0.04984 0.51935 0.0
N660 N 0.04589 0.06905 0.54473 0.0
C661 C 0.06329 0.09329 0.575 0.0
C662 C 0.06284 0.07814 0.54376 0.0
C663 C 0.07191 0.09017 0.55902 0.0
H664 H 0.06933 0.07585 0.53127 0.0
H665 H 0.08551 0.09706 0.55844 0.0
H666 H 0.99974 0.97761 0.50169 0.0
H667 H 0.98518 0.04351 0.5267 0.0
H668 H 0.9835 0.95766 0.47398 0.0
H669 H 0.07036 0.10258 0.58682 0.0
H670 H 0.04251 0.09681 0.60313 0.0
H671 H 0.08579 0.00567 0.50988 0.0
H672 H 0.98272 0.06471 0.58333 0.0
H673 H 0.96771 0.04825 0.55301 0.0
H674 H 0.02918 0.9496 0.43424 0.0
H675 H 0.01069 0.08287 0.60188 0.0
H676 H 0.08972 0.97856 0.45597 0.0
H677 H 0.10409 0.99764 0.48516 0.0
N678 N 0.06102 0.99226 0.49438 0.0
C679 C 0.05291 0.9811 0.47881 0.0
C680 C 0.0792 0.99779 0.49701 0.0
C681 C 0.08153 0.98222 0.46669 0.0
C682 C 0.08969 0.99305 0.48312 0.0
C683 C 0.06297 0.97594 0.46444 0.0
H684 H 0.06176 0.9606 0.43718 0.0
N685 N 0.02502 0.98013 0.49113 0.0
C686 C 0.03446 0.97477 0.47718 0.0
C687 C 0.00716 0.95724 0.45995 0.0
C688 C 0.02571 0.96332 0.46111 0.0
C689 C 0.00702 0.97393 0.49029 0.0
C690 C 0.99781 0.96249 0.47465 0.0
O691 O 0.04783 0.04301 0.54347 0.0
O692 O 0.03506 0.01389 0.54275 0.0
O693 O 0.03463 0.97297 0.52537 0.0
O694 O 0.0613 0.98882 0.53413 0.0
O695 O 0.05274 0.04302 0.50494 0.0
O696 O 0.06507 0.02315 0.5218 0.0
O697 O 0.03493 0.01089 0.48874 0.0
O698 O 0.01489 0.02928 0.49586 0.0
O699 O 0.03852 0.0681 0.49895 0.0
O700 O 0.01714 0.0729 0.51497 0.0
O701 O 0.01556 1.00185 0.52714 0.0
O702 O 0.00532 0.02626 0.51567 0.0
C703 C 0.04531 0.02832 0.55173 0.0
C704 C 0.06669 0.0375 0.51284 0.0
C705 C 0.05703 0.95735 0.53695 0.0
C706 C 0.05693 0.93014 0.55237 0.0
C707 C 0.07895 0.93867 0.53097 0.0
C708 C 0.07169 0.95385 0.52782 0.0
C709 C 0.07173 0.92696 0.54327 0.0
C710 C 0.04953 0.94532 0.54906 0.0
C711 C 0.05007 0.974 0.53529 0.0
C712 C 0.03569 0.95835 0.44672 0.0
C713 C 0.05425 0.96463 0.44838 0.0
H714 H 0.99997 0.94841 0.44784 0.0
C715 C 0.0222 0.01977 0.48359 0.0
C716 C 1.00267 0.01065 0.5227 0.0
C717 C 0.01854 0.08626 0.48657 0.0
C718 C 0.01801 0.11051 0.46639 0.0
C719 C 0.99221 0.08621 0.46466 0.0
C720 C 1.00113 0.07826 0.47846 0.0
C721 C 1.00056 0.10212 0.45863 0.0
C722 C 0.02696 0.10254 0.48056 0.0
C723 C 0.02724 0.07861 0.50243 0.0
H724 H 0.09037 0.93609 0.52405 0.0
H725 H 0.07766 0.96295 0.51852 0.0
H726 H 0.07772 0.91543 0.54575 0.0
H727 H 0.03833 0.94806 0.55634 0.0
H728 H 0.97868 0.08007 0.45869 0.0
H729 H 0.99427 0.06605 0.48308 0.0
H730 H 0.99324 0.10806 0.44802 0.0
H731 H 0.04031 0.10896 0.48691 0.0
C732 C 0.24538 0.74434 0.78609 0.0
C733 C 0.2288 0.7216 0.7614 0.0
C734 C 0.24374 0.73532 0.76792 0.0
C735 C 0.21538 0.71723 0.77311 0.0
C736 C 0.23208 0.73952 0.79801 0.0
C737 C 0.21701 0.72615 0.79134 0.0
N738 N 0.26027 0.75708 0.79242 0.0
C739 C 0.26322 0.7643 0.81091 0.0
C740 C 0.23454 0.74784 0.81654 0.0
C741 C 0.25028 0.7601 0.82307 0.0
Gd742 Gd 0.28575 0.81134 0.75043 0.0
Gd743 Gd 0.28129 0.76114 0.7706 0.0
N744 N 0.25675 0.73986 0.75663 0.0
C745 C 0.2278 0.71265 0.74323 0.0
C746 C 0.25624 0.73081 0.73921 0.0
C747 C 0.24161 0.71723 0.73213 0.0
H748 H 0.26713 0.73412 0.73086 0.0
H749 H 0.24106 0.71021 0.71819 0.0
H750 H 0.30081 0.83926 0.7899 0.0
H751 H 0.27574 0.77282 0.81681 0.0
H752 H 0.32772 0.86185 0.80264 0.0
H753 H 0.21651 0.70208 0.73772 0.0
H754 H 0.20376 0.70681 0.76829 0.0
H755 H 0.2905 0.79981 0.70411 0.0
H756 H 0.22466 0.74443 0.82612 0.0
H757 H 0.25265 0.76601 0.83762 0.0
H758 H 0.36396 0.86477 0.75173 0.0
H759 H 0.20667 0.72237 0.80031 0.0
H760 H 0.3416 0.82763 0.69391 0.0
H761 H 0.31335 0.80628 0.68284 0.0
N762 N 0.30635 0.81562 0.72816 0.0
C763 C 0.32134 0.82834 0.73422 0.0
C764 C 0.30312 0.80831 0.70971 0.0
C765 C 0.3318 0.82445 0.70362 0.0
C766 C 0.31591 0.81231 0.69734 0.0
C767 C 0.33455 0.83287 0.72212 0.0
H768 H 0.36018 0.84948 0.71952 0.0
N769 N 0.31058 0.83284 0.76405 0.0
C770 C 0.32341 0.83731 0.75247 0.0
C771 C 0.34045 0.85917 0.7773 0.0
C772 C 0.3388 0.85052 0.75894 0.0
C773 C 0.31172 0.84182 0.78159 0.0
C774 C 0.32678 0.8549 0.78861 0.0
O775 O 0.25653 0.7667 0.75227 0.0
O776 O 0.25798 0.79749 0.75632 0.0
O777 O 0.27737 0.83706 0.7569 0.0
O778 O 0.27307 0.82325 0.72802 0.0
O779 O 0.29486 0.77097 0.74651 0.0
O780 O 0.27844 0.787 0.72947 0.0
O781 O 0.3125 0.80494 0.7639 0.0
O782 O 0.30883 0.77845 0.77831 0.0
O783 O 0.29465 0.73864 0.76147 0.0
O784 O 0.28921 0.74436 0.79062 0.0
O785 O 0.27396 0.80378 0.77641 0.0
O786 O 0.28849 0.78506 0.79199 0.0
C787 C 0.2488 0.78095 0.75153 0.0
C788 C 0.28593 0.77301 0.7308 0.0
C789 C 0.2634 0.85174 0.73215 0.0
C790 C 0.24974 0.87808 0.73718 0.0
C791 C 0.25534 0.86744 0.70574 0.0
C792 C 0.26249 0.85355 0.71283 0.0
C793 C 0.24905 0.87967 0.71782 0.0
C794 C 0.25687 0.86401 0.74435 0.0
C795 C 0.27144 0.83719 0.73927 0.0
C796 C 0.35205 0.85468 0.74698 0.0
C797 C 0.34992 0.84592 0.72864 0.0
H798 H 0.35209 0.86936 0.78277 0.0
C799 C 0.31882 0.79315 0.77392 0.0
C800 C 0.28348 0.80046 0.79119 0.0
C801 C 0.30413 0.71948 0.7852 0.0
C802 C 0.32234 0.69637 0.78127 0.0
C803 C 0.31188 0.7033 0.81146 0.0
C804 C 0.30333 0.71616 0.80408 0.0
C805 C 0.3214 0.69353 0.80019 0.0
C806 C 0.31355 0.7093 0.77364 0.0
C807 C 0.29604 0.7344 0.77867 0.0
H808 H 0.25469 0.86875 0.69084 0.0
H809 H 0.26747 0.84431 0.70318 0.0
H810 H 0.24343 0.89031 0.71199 0.0
H811 H 0.25745 0.86273 0.75929 0.0
H812 H 0.31124 0.70099 0.82602 0.0
H813 H 0.29625 0.72369 0.81337 0.0
H814 H 0.32803 0.68361 0.80623 0.0
H815 H 0.31443 0.7117 0.75911 0.0
C816 C 0.55529 0.00892 0.05704 0.0
C817 C 0.56942 0.03268 0.08171 0.0
C818 C 0.55597 0.02581 0.06656 0.0
C819 C 0.5821 0.02233 0.08717 0.0
C820 C 0.56786 0.9984 0.06269 0.0
C821 C 0.58129 0.00523 0.07772 0.0
N822 N 0.54239 1.00278 0.04228 0.0
C823 C 0.5408 0.98593 0.03314 0.0
C824 C 0.56656 0.9813 0.05306 0.0
C825 C 0.55288 0.97499 0.03833 0.0
Gd826 Gd 0.52089 0.05175 0.9848 0.0
Gd827 Gd 0.52314 0.02239 0.03433 0.0
N828 N 0.54378 0.03571 0.06066 0.0
C829 C 0.56981 0.04979 0.09088 0.0
C830 C 0.54376 0.05217 0.07003 0.0
C831 C 0.55683 0.05951 0.0851 0.0
H832 H 0.5338 0.05981 0.06607 0.0
H833 H 0.55686 0.07267 0.09225 0.0
H834 H 0.51634 0.0196 0.94698 0.0
H835 H 0.53005 0.98073 0.02199 0.0
H836 H 0.49301 0.00538 0.9214 0.0
H837 H 0.57997 0.05556 0.10251 0.0
H838 H 0.59257 0.02743 0.09871 0.0
H839 H 0.51114 0.09155 0.99836 0.0
H840 H 0.57593 0.9728 0.05701 0.0
H841 H 0.55161 0.96168 0.03098 0.0
H842 H 0.44842 0.04241 0.92337 0.0
H843 H 0.59112 0.99737 0.08216 0.0
H844 H 0.46158 0.09577 0.96733 0.0
H845 H 0.48693 0.10843 0.9919 0.0
N846 N 0.49961 0.06955 0.97783 0.0
C847 C 0.48623 0.0627 0.96384 0.0
C848 C 0.50015 0.08588 0.98768 0.0
C849 C 0.47221 0.08832 0.97011 0.0
C850 C 0.48648 0.09551 0.98399 0.0
C851 C 0.472 0.07177 0.95974 0.0
H852 H 0.44705 0.0708 0.94209 0.0
N853 N 0.50146 0.03894 0.95726 0.0
C854 C 0.48706 0.04677 0.95335 0.0
C855 C 0.47553 0.02399 0.92718 0.0
C856 C 0.47361 0.03942 0.93836 0.0
C857 C 0.50412 0.02481 0.94535 0.0
C858 C 0.49103 0.01688 0.93046 0.0
O859 O 0.55081 0.03742 0.03185 0.0
O860 O 0.53315 0.04203 0.00878 0.0
O861 O 0.5437 0.05284 0.96927 0.0
O862 O 0.53671 0.07752 0.98092 0.0
O863 O 0.51503 0.05016 0.03739 0.0
O864 O 0.5241 0.0684 0.01383 0.0
O865 O 0.49448 0.04417 0.99539 0.0
O866 O 0.50485 0.02169 0.00767 0.0
O867 O 0.50191 0.02366 0.052 0.0
O868 O 0.50874 0.99802 0.04303 0.0
O869 O 0.52552 0.02255 0.97918 0.0
O870 O 0.52571 0.00652 0.006 0.0
C871 C 0.54937 0.04491 0.01674 0.0
C872 C 0.51838 0.06592 0.03055 0.0
C873 C 0.54813 0.07721 0.95149 0.0
C874 C 0.55481 0.07271 0.91917 0.0
C875 C 0.54915 0.10155 0.93204 0.0
C876 C 0.54679 0.09502 0.94929 0.0
C877 C 0.55324 0.09051 0.91705 0.0
C878 C 0.55185 0.0661 0.93627 0.0
C879 C 0.54642 0.07021 0.96968 0.0
C880 C 0.45898 0.04797 0.93469 0.0
C881 C 0.45821 0.06415 0.94532 0.0
H882 H 0.46546 0.01787 0.91558 0.0
C883 C 0.49231 0.03121 0.00599 0.0
C884 C 0.52699 0.00796 0.98777 0.0
C885 C 0.49818 1.00168 0.07277 0.0
C886 C 0.48615 0.00611 0.10242 0.0
C887 C 0.50493 0.98394 0.09788 0.0
C888 C 0.50674 0.98833 0.07965 0.0
C889 C 0.49475 0.99288 0.10932 0.0
C890 C 0.48771 0.01033 0.08416 0.0
C891 C 0.49945 0.00658 0.0537 0.0
H892 H 0.54825 0.11532 0.93042 0.0
H893 H 0.54408 0.10391 0.9609 0.0
H894 H 0.55588 0.09614 0.90411 0.0
H895 H 0.55294 0.05234 0.93782 0.0
H896 H 0.5114 0.97358 0.10312 0.0
H897 H 0.51474 0.98129 0.071 0.0
H898 H 0.49335 0.98932 0.1234 0.0
H899 H 0.48084 0.02046 0.07888 0.0
C900 C 0.31984 0.30538 0.29172 0.0
C901 C 0.33434 0.32175 0.26824 0.0
C902 C 0.31917 0.31106 0.27393 0.0
C903 C 0.35033 0.3263 0.28054 0.0
C904 C 0.33569 0.31061 0.30439 0.0
C905 C 0.35097 0.32083 0.2986 0.0
N906 N 0.30471 0.29583 0.29709 0.0
C907 C 0.3043 0.29206 0.31528 0.0
C908 C 0.33552 0.30602 0.32275 0.0
C909 C 0.3197 0.29687 0.32827 0.0
Gd910 Gd 0.25998 0.24177 0.24692 0.0
Gd911 Gd 0.27926 0.28992 0.27444 0.0
N912 N 0.3034 0.30688 0.26251 0.0
C913 C 0.33278 0.32808 0.25062 0.0
C914 C 0.30143 0.31424 0.24606 0.0
C915 C 0.31617 0.3245 0.23959 0.0
H916 H 0.28845 0.31259 0.23816 0.0
H917 H 0.3146 0.32997 0.22631 0.0
H918 H 0.24689 0.21681 0.28145 0.0
H919 H 0.29197 0.28594 0.32016 0.0
H920 H 0.21905 0.19959 0.28988 0.0
H921 H 0.34414 0.33628 0.24572 0.0
H922 H 0.36211 0.33449 0.27642 0.0
H923 H 0.24913 0.25364 0.20375 0.0
H924 H 0.34736 0.30996 0.33294 0.0
H925 H 0.31927 0.29383 0.34263 0.0
H926 H 0.17472 0.20295 0.23909 0.0
H927 H 0.36325 0.32493 0.30814 0.0
H928 H 0.19309 0.23515 0.18833 0.0
H929 H 0.22236 0.25108 0.18123 0.0
N930 N 0.23505 0.24171 0.22497 0.0
C931 C 0.21933 0.23179 0.22862 0.0
C932 C 0.23635 0.24794 0.20785 0.0
C933 C 0.20475 0.23686 0.19869 0.0
C934 C 0.22121 0.24598 0.19468 0.0
C935 C 0.2037 0.22935 0.21564 0.0
H936 H 0.17556 0.21708 0.20985 0.0
N937 N 0.2343 0.22555 0.25722 0.0
C938 C 0.21895 0.22351 0.24512 0.0
C939 C 0.20283 0.20468 0.26551 0.0
C940 C 0.20281 0.213 0.249 0.0
C941 C 0.23453 0.21668 0.27282 0.0
C942 C 0.21878 0.20645 0.27739 0.0
O943 O 0.29843 0.2781 0.25656 0.0
O944 O 0.29043 0.24759 0.25687 0.0
O945 O 0.25662 0.21303 0.24141 0.0
O946 O 0.26677 0.22964 0.22059 0.0
O947 O 0.26302 0.28727 0.24587 0.0
O948 O 0.2719 0.26351 0.23048 0.0
O949 O 0.23956 0.25928 0.25545 0.0
O950 O 0.25375 0.27476 0.2832 0.0
O951 O 0.26416 0.3106 0.26879 0.0
O952 O 0.28038 0.31208 0.29615 0.0
O953 O 0.27115 0.23953 0.27697 0.0
O954 O 0.27488 0.2681 0.29351 0.0
C955 C 0.30247 0.26197 0.25493 0.0
C956 C 0.26728 0.27919 0.2305 0.0
C957 C 0.27456 0.20111 0.22038 0.0
C958 C 0.29153 0.17869 0.22908 0.0
C959 C 0.28739 0.18429 0.19652 0.0
C960 C 0.2774 0.19731 0.20152 0.0
C961 C 0.2944 0.1749 0.21027 0.0
C962 C 0.28182 0.19186 0.23418 0.0
C963 C 0.26261 0.21344 0.22508 0.0
C964 C 0.1872 0.21097 0.2363 0.0
C965 C 0.18765 0.21907 0.21966 0.0
H966 H 0.1907 0.19656 0.26899 0.0
C967 C 0.23895 0.26858 0.27182 0.0
C968 C 0.27414 0.25067 0.29272 0.0
C969 C 0.26385 0.33583 0.29172 0.0
C970 C 0.24741 0.35897 0.2845 0.0
C971 C 0.2603 0.35837 0.31656 0.0
C972 C 0.26703 0.34315 0.31072 0.0
C973 C 0.25037 0.36623 0.3035 0.0
C974 C 0.25425 0.34394 0.27864 0.0
C975 C 0.26947 0.31919 0.28554 0.0
H976 H 0.28939 0.18122 0.18194 0.0
H977 H 0.2716 0.20415 0.19064 0.0
H978 H 0.3017 0.16446 0.20622 0.0
H979 H 0.2795 0.19442 0.24877 0.0
H980 H 0.26268 0.36399 0.3312 0.0
H981 H 0.27443 0.33697 0.32105 0.0
H982 H 0.24521 0.37806 0.30812 0.0
H983 H 0.25178 0.33844 0.26392 0.0
C984 C 0.5183 0.56374 0.05881 0.0
C985 C 0.5448 0.58305 0.07619 0.0
C986 C 0.53645 0.57123 0.06022 0.0
C987 C 0.53497 0.58628 0.09128 0.0
C988 C 0.50819 0.56772 0.07357 0.0
C989 C 0.51673 0.57856 0.09001 0.0
N990 N 0.51025 0.55385 0.04245 0.0
C991 C 0.49197 0.54913 0.03931 0.0
C992 C 0.48964 0.56139 0.07103 0.0
C993 C 0.48146 0.55234 0.05368 0.0
Gd994 Gd 0.54274 0.49877 0.01457 0.0
Gd995 Gd 0.52952 0.54887 0.01966 0.0
N996 N 0.54575 0.5677 0.04554 0.0
C997 C 0.56265 0.59169 0.07626 0.0
C998 C 0.56273 0.57692 0.04497 0.0
C999 C 0.57156 0.58881 0.06045 0.0
H1000 H 0.56945 0.57485 0.03262 0.0
H1001 H 0.58517 0.59578 0.06016 0.0
H1002 H 0.50014 0.47746 0.00037 0.0
H1003 H 0.48535 0.54322 0.02561 0.0
H1004 H 0.48327 0.4581 0.97266 0.0
H1005 H 0.56951 0.60091 0.08823 0.0
H1006 H 0.54122 0.59512 0.10378 0.0
H1007 H 0.58611 0.50518 0.0066 0.0
H1008 H 0.48141 0.56415 0.08203 0.0
H1009 H 0.46702 0.54819 0.05123 0.0
H1010 H 0.52786 0.4503 0.9315 0.0
H1011 H 0.5092 0.58161 0.10154 0.0
H1012 H 0.58877 0.47864 0.9521 0.0
H1013 H 0.60382 0.49728 0.98129 0.0
N1014 N 0.56101 0.49255 0.99133 0.0
C1015 C 0.55255 0.48153 0.97581 0.0
C1016 C 0.57924 0.49775 0.99364 0.0
C1017 C 0.58085 0.48239 0.96304 0.0
C1018 C 0.58939 0.49299 0.97945 0.0
C1019 C 0.56225 0.47635 0.96113 0.0
H1020 H 0.56043 0.46106 0.93375 0.0
N1021 N 0.52506 0.48033 0.98907 0.0
C1022 C 0.53412 0.47522 0.97466 0.0
C1023 C 0.50651 0.45787 0.9579 0.0
C1024 C 0.52502 0.46391 0.95864 0.0
C1025 C 0.50711 0.4741 0.98863 0.0
C1026 C 0.49754 0.46293 0.973 0.0
O1027 O 0.54829 0.5415 0.04322 0.0
O1028 O 0.5369 0.51176 0.04225 0.0
O1029 O 0.53661 0.47098 0.02155 0.0
O1030 O 0.56328 0.4878 0.0298 0.0
O1031 O 0.55239 0.54235 0.00443 0.0
O1032 O 0.56587 0.5226 0.01998 0.0
O1033 O 0.53499 0.51111 0.98778 0.0
O1034 O 0.51455 0.52871 0.99599 0.0
O1035 O 0.53889 0.56739 -0.00038 0.0
O1036 O 0.51725 0.57197 0.0153 0.0
O1037 O 0.51672 0.50029 0.02668 0.0
O1038 O 0.50594 0.52499 0.01652 0.0
C1039 C 0.54642 0.52663 0.05129 0.0
C1040 C 0.56685 0.53751 0.01197 0.0
C1041 C 0.55987 0.45742 0.03779 0.0
C1042 C 0.55676 0.43126 0.05527 0.0
C1043 C 0.58419 0.44092 0.04146 0.0
C1044 C 0.57719 0.45502 0.03458 0.0
C1045 C 0.57406 0.42912 0.05171 0.0
C1046 C 0.54957 0.44544 0.04818 0.0
C1047 C 0.55279 0.47232 0.02995 0.0
C1048 C 0.53464 0.45897 0.9439 0.0
C1049 C 0.55319 0.46514 0.94516 0.0
H1050 H 0.49905 0.44918 0.94583 0.0
C1051 C 0.52171 0.51954 0.98328 0.0
C1052 C 0.50362 0.50909 0.02297 0.0
C1053 C 0.51908 0.58553 0.98699 0.0
C1054 C 0.51868 0.60998 0.96706 0.0
C1055 C 0.49339 0.58502 0.96403 0.0
C1056 C 0.50203 0.57719 0.97814 0.0
C1057 C 0.50163 0.60122 0.9585 0.0
C1058 C 0.5274 0.60208 0.98145 0.0
C1059 C 0.52755 0.57784 0.00298 0.0
H1060 H 0.59754 0.43915 0.03884 0.0
H1061 H 0.58528 0.46398 0.02657 0.0
H1062 H 0.57981 0.41832 0.05704 0.0
H1063 H 0.53621 0.4472 0.05085 0.0
H1064 H 0.48014 0.57857 0.95745 0.0
H1065 H 0.49524 0.56477 0.9824 0.0
H1066 H 0.49455 0.6071 0.94763 0.0
H1067 H 0.54045 0.6088 0.98837 0.0
C1068 C 0.74649 0.2454 0.28438 0.0
C1069 C 0.72983 0.22349 0.25913 0.0
C1070 C 0.7447 0.23715 0.26598 0.0
C1071 C 0.71657 0.2185 0.27088 0.0
C1072 C 0.73346 0.23999 0.29638 0.0
C1073 C 0.71838 0.22671 0.28945 0.0
N1074 N 0.76138 0.25801 0.29084 0.0
C1075 C 0.76463 0.2647 0.30944 0.0
C1076 C 0.73624 0.24765 0.31519 0.0
C1077 C 0.75201 0.25989 0.32178 0.0
Gd1078 Gd 0.78776 0.31212 0.24814 0.0
Gd1079 Gd 0.78209 0.26383 0.26904 0.0
N1080 N 0.75763 0.24233 0.25481 0.0
C1081 C 0.72883 0.21512 0.24071 0.0
C1082 C 0.75722 0.2337 0.23719 0.0
C1083 C 0.74265 0.22017 0.22975 0.0
H1084 H 0.76813 0.23731 0.22896 0.0
H1085 H 0.74217 0.21354 0.21564 0.0
H1086 H 0.80453 0.33513 0.29034 0.0
H1087 H 0.77722 0.2732 0.31505 0.0
H1088 H 0.83183 0.35674 0.30402 0.0
H1089 H 0.7176 0.20459 0.23493 0.0
H1090 H 0.70499 0.2081 0.26583 0.0
H1091 H 0.79355 0.30011 0.20272 0.0
H1092 H 0.7266 0.24377 0.32486 0.0
H1093 H 0.75463 0.26534 0.33648 0.0
H1094 H 0.86723 0.36341 0.25262 0.0
H1095 H 0.70822 0.22246 0.29845 0.0
H1096 H 0.84471 0.3287 0.19334 0.0
H1097 H 0.81665 0.30721 0.18167 0.0
N1098 N 0.80908 0.31586 0.22685 0.0
C1099 C 0.82414 0.32828 0.23344 0.0
C1100 C 0.80612 0.30865 0.20841 0.0
C1101 C 0.83481 0.32524 0.20288 0.0
C1102 C 0.81904 0.31301 0.19625 0.0
C1103 C 0.83746 0.33316 0.22159 0.0
H1104 H 0.86323 0.34982 0.2197 0.0
N1105 N 0.81349 0.33114 0.26356 0.0
C1106 C 0.82633 0.33623 0.25215 0.0
C1107 C 0.84397 0.35615 0.27816 0.0
C1108 C 0.84197 0.34884 0.25926 0.0
C1109 C 0.81515 0.33851 0.28181 0.0
C1110 C 0.8305 0.35097 0.28947 0.0
O1111 O 0.75684 0.26912 0.25167 0.0
O1112 O 0.75884 0.29993 0.25201 0.0
O1113 O 0.78284 0.3394 0.25279 0.0
O1114 O 0.7784 0.32502 0.22469 0.0
O1115 O 0.79521 0.27021 0.24352 0.0
O1116 O 0.77859 0.2874 0.22787 0.0
O1117 O 0.81352 0.30171 0.25803 0.0
O1118 O 0.80651 0.28442 0.28179 0.0
O1119 O 0.79864 0.24361 0.26083 0.0
O1120 O 0.78908 0.24616 0.28851 0.0
O1121 O 0.77519 0.31032 0.27485 0.0
O1122 O 0.78722 0.28871 0.28942 0.0
C1123 C 0.74933 0.28341 0.25018 0.0
C1124 C 0.78669 0.27369 0.22812 0.0
C1125 C 0.76252 0.34884 0.22988 0.0
C1126 C 0.74442 0.3715 0.23673 0.0
C1127 C 0.74193 0.35625 0.20512 0.0
C1128 C 0.75471 0.34639 0.21102 0.0
C1129 C 0.73681 0.36875 0.21788 0.0
C1130 C 0.75732 0.36157 0.24279 0.0
C1131 C 0.7776 0.33979 0.23504 0.0
C1132 C 0.85517 0.35367 0.2474 0.0
C1133 C 0.85291 0.34589 0.22865 0.0
H1134 H 0.85581 0.36587 0.28413 0.0
C1135 C 0.81846 0.29351 0.27256 0.0
C1136 C 0.78027 0.30326 0.28985 0.0
C1137 C 0.80715 0.22368 0.28435 0.0
C1138 C 0.82477 0.19999 0.28059 0.0
C1139 C 0.81563 0.20841 0.31109 0.0
C1140 C 0.80711 0.22119 0.30353 0.0
C1141 C 0.82444 0.19792 0.29976 0.0
C1142 C 0.81597 0.21286 0.27275 0.0
C1143 C 0.7982 0.23793 0.27738 0.0
H1144 H 0.73618 0.35439 0.19053 0.0
H1145 H 0.75881 0.33714 0.20065 0.0
H1146 H 0.72705 0.37651 0.21299 0.0
H1147 H 0.76352 0.36409 0.25726 0.0
H1148 H 0.81547 0.20667 0.32585 0.0
H1149 H 0.80054 0.22922 0.31288 0.0
H1150 H 0.831 0.18804 0.30597 0.0
H1151 H 0.81621 0.21455 0.25797 0.0
C1152 C 0.05504 0.50986 0.55741 0.0
C1153 C 0.06806 0.53367 0.58245 0.0
C1154 C 0.05498 0.52652 0.56706 0.0
C1155 C 0.08119 0.52385 0.58798 0.0
C1156 C 0.06799 0.49981 0.5632 0.0
C1157 C 0.08112 0.50694 0.57842 0.0
N1158 N 0.0424 0.50344 0.54247 0.0
C1159 C 0.04133 0.48664 0.53343 0.0
C1160 C 0.06731 0.48282 0.55356 0.0
C1161 C 0.05382 0.47615 0.53874 0.0
Gd1162 Gd 0.02078 0.55153 0.48452 0.0
Gd1163 Gd 0.02251 0.52238 0.53426 0.0
N1164 N 0.04234 0.53591 0.5611 0.0
C1165 C 0.06759 0.55049 0.59183 0.0
C1166 C 0.04136 0.55196 0.57076 0.0
C1167 C 0.05406 0.55959 0.58606 0.0
H1168 H 0.03085 0.559 0.56689 0.0
H1169 H 0.05336 0.57246 0.59343 0.0
H1170 H 0.01603 0.51989 0.4465 0.0
H1171 H 0.0307 0.48112 0.52225 0.0
H1172 H 0.99285 0.50638 0.42043 0.0
H1173 H 0.07744 0.55647 0.60366 0.0
H1174 H 0.09141 0.52917 0.5997 0.0
H1175 H 0.01122 0.59126 0.49913 0.0
H1176 H 0.07699 0.47467 0.55761 0.0
H1177 H 0.05298 0.46289 0.53143 0.0
H1178 H 0.94879 0.54401 0.42287 0.0
H1179 H 0.09126 0.49946 0.58295 0.0
H1180 H 0.96199 0.59644 0.46814 0.0
H1181 H 0.9872 0.60842 0.49306 0.0
N1182 N 0.99967 0.56967 0.4781 0.0
C1183 C 0.98637 0.5632 0.4639 0.0
C1184 C 1.00027 0.58583 0.48832 0.0
C1185 C 0.97252 0.58885 0.47076 0.0
C1186 C 0.98671 0.59565 0.48484 0.0
C1187 C 0.97228 0.57249 0.45998 0.0
H1188 H 0.94752 0.5721 0.44223 0.0
N1189 N 1.00134 0.53931 0.4569 0.0
C1190 C 0.98712 0.54742 0.45308 0.0
C1191 C 0.9756 0.52518 0.42642 0.0
C1192 C 0.97376 0.54048 0.43789 0.0
C1193 C 1.00392 0.52529 0.4448 0.0
C1194 C 0.99093 0.51778 0.42968 0.0
O1195 O 0.05 0.53827 0.5326 0.0
O1196 O 0.03314 0.54132 0.50819 0.0
O1197 O 0.04321 0.55238 0.46853 0.0
O1198 O 0.03686 0.5772 0.4807 0.0
O1199 O 0.0142 0.55006 0.53677 0.0
O1200 O 0.02456 0.56812 0.51357 0.0
O1201 O 0.9942 0.54416 0.49482 0.0
O1202 O 0.00458 0.52186 0.50741 0.0
O1203 O 1.00097 0.52326 0.55159 0.0
O1204 O 0.00831 0.49784 0.54283 0.0
O1205 O 0.02491 0.52212 0.47894 0.0
O1206 O 0.02538 0.50637 0.506 0.0
C1207 C 0.04903 0.54509 0.51702 0.0
C1208 C 0.01834 0.5658 0.53007 0.0
C1209 C 0.04771 0.57679 0.45093 0.0
C1210 C 0.0546 0.57238 0.41871 0.0
C1211 C 0.04753 0.60074 0.43109 0.0
C1212 C 0.04548 0.59433 0.44846 0.0
C1213 C 0.05214 0.58988 0.41627 0.0
C1214 C 0.05202 0.56589 0.43591 0.0
C1215 C 0.04621 0.56977 0.46912 0.0
C1216 C 0.95928 0.54926 0.43434 0.0
C1217 C 0.95857 0.56527 0.44534 0.0
H1218 H 0.96561 0.51938 0.41465 0.0
C1219 C 0.99204 0.53135 0.50557 0.0
C1220 C 0.02648 0.50762 0.48767 0.0
C1221 C 0.99744 0.50132 0.57244 0.0
C1222 C 0.98563 0.50596 0.6022 0.0
C1223 C 1.00402 0.48345 0.59748 0.0
C1224 C 0.0058 0.48781 0.57924 0.0
C1225 C 0.99406 0.49258 0.60902 0.0
C1226 C 0.98716 0.51015 0.58392 0.0
C1227 C 0.99877 0.50621 0.55336 0.0
H1228 H 0.04593 0.6143 0.42925 0.0
H1229 H 0.04229 0.60308 0.45991 0.0
H1230 H 0.05446 0.59541 0.40321 0.0
H1231 H 0.05381 0.55235 0.43769 0.0
H1232 H 0.01035 0.47298 0.60267 0.0
H1233 H 0.01363 0.48062 0.57053 0.0
H1234 H 0.9927 0.48905 0.62312 0.0
H1235 H 0.98043 0.5204 0.57871 0.0
C1236 C 0.74224 0.78961 0.23869 0.0
C1237 C 0.72429 0.76191 0.22236 0.0
C1238 C 0.73591 0.77127 0.23802 0.0
C1239 C 0.71935 0.77115 0.20731 0.0
C1240 C 0.73728 0.79892 0.22362 0.0
C1241 C 0.72584 0.78959 0.20793 0.0
N1242 N 0.75349 0.79825 0.25393 0.0
C1243 C 0.75982 0.81626 0.2553 0.0
C1244 C 0.74401 0.81735 0.22476 0.0
C1245 C 0.75527 0.82606 0.24071 0.0
Gd1246 Gd 0.80795 0.76346 0.28097 0.0
Gd1247 Gd 0.76043 0.78058 0.27743 0.0
N1248 N 0.74136 0.76256 0.25256 0.0
C1249 C 0.7179 0.74354 0.22235 0.0
C1250 C 0.7344 0.74493 0.25308 0.0
C1251 C 0.72281 0.73507 0.23789 0.0
H1252 H 0.73728 0.73853 0.26536 0.0
H1253 H 0.71748 0.72101 0.23829 0.0
H1254 H 0.83122 0.80549 0.29403 0.0
H1255 H 0.76807 0.82316 0.2678 0.0
H1256 H 0.85115 0.82242 0.32125 0.0
H1257 H 0.7089 0.73588 0.21061 0.0
H1258 H 0.71047 0.76416 0.19513 0.0
H1259 H 0.79874 0.72089 0.29065 0.0
H1260 H 0.74052 0.82499 0.21348 0.0
H1261 H 0.76036 0.84034 0.24184 0.0
H1262 H 0.85812 0.77834 0.36325 0.0
H1263 H 0.7219 0.79653 0.1962 0.0
H1264 H 0.82699 0.71799 0.34437 0.0
H1265 H 0.80646 0.70326 0.31623 0.0
N1266 N 0.8142 0.74548 0.30449 0.0
C1267 C 0.8257 0.75381 0.31971 0.0
C1268 C 0.80737 0.72755 0.30306 0.0
C1269 C 0.82352 0.72584 0.33327 0.0
C1270 C 0.81188 0.71748 0.31743 0.0
C1271 C 0.8306 0.7442 0.33457 0.0
H1272 H 0.84626 0.74602 0.36175 0.0
N1273 N 0.82716 0.78105 0.30612 0.0
C1274 C 0.83239 0.77209 0.32055 0.0
C1275 C 0.8507 0.79951 0.33661 0.0
C1276 C 0.84415 0.78114 0.33628 0.0
C1277 C 0.83417 0.79875 0.30602 0.0
C1278 C 0.8458 0.80831 0.32134 0.0
O1279 O 0.7719 0.77387 0.2497 0.0
O1280 O 0.78755 0.75173 0.2561 0.0
O1281 O 0.83097 0.77079 0.26469 0.0
O1282 O 0.82362 0.74388 0.27293 0.0
O1283 O 0.76253 0.75524 0.29098 0.0
O1284 O 0.78275 0.74235 0.27507 0.0
O1285 O 0.79623 0.76998 0.30834 0.0
O1286 O 0.78125 0.79266 0.30179 0.0
O1287 O 0.73755 0.77251 0.29383 0.0
O1288 O 0.74413 0.79953 0.28585 0.0
O1289 O 0.80671 0.78944 0.26819 0.0
O1290 O 0.78535 0.80232 0.28247 0.0
C1291 C 0.77984 0.76063 0.24401 0.0
C1292 C 0.76915 0.74119 0.28509 0.0
C1293 C 0.84884 0.74794 0.25488 0.0
C1294 C 0.87598 0.75205 0.23877 0.0
C1295 C 0.86227 0.72236 0.2453 0.0
C1296 C 0.84903 0.72946 0.25373 0.0
C1297 C 0.87565 0.73352 0.23794 0.0
C1298 C 0.86234 0.7593 0.2471 0.0
C1299 C 0.83436 0.7546 0.26427 0.0
C1300 C 0.84907 0.7716 0.35108 0.0
C1301 C 0.84233 0.75319 0.35022 0.0
H1302 H 0.85977 0.80694 0.34843 0.0
C1303 C 0.78919 0.78386 0.31378 0.0
C1304 C 0.79991 0.80355 0.27373 0.0
C1305 C 0.71835 0.79443 0.30333 0.0
C1306 C 0.6927 0.79054 0.32205 0.0
C1307 C 0.70206 0.81871 0.30949 0.0
C1308 C 0.7157 0.81198 0.30142 0.0
C1309 C 0.69072 0.80815 0.31971 0.0
C1310 C 0.7066 0.78353 0.31371 0.0
C1311 C 0.7335 0.78843 0.29425 0.0
H1312 H 0.86219 0.70811 0.2445 0.0
H1313 H 0.83886 0.72034 0.25935 0.0
H1314 H 0.88579 0.7276 0.23142 0.0
H1315 H 0.86245 0.77357 0.24782 0.0
H1316 H 0.70029 0.83225 0.30783 0.0
H1317 H 0.72424 0.82071 0.29359 0.0
H1318 H 0.68022 0.81378 0.32586 0.0
H1319 H 0.70831 0.76997 0.31543 0.0
C1320 C 0.79579 0.2508 0.74059 0.0
C1321 C 0.77064 0.23558 0.71807 0.0
C1322 C 0.77848 0.24992 0.73198 0.0
C1323 C 0.78043 0.2223 0.71294 0.0
C1324 C 0.8056 0.23742 0.73559 0.0
C1325 C 0.79787 0.22322 0.72166 0.0
N1326 N 0.8028 0.26444 0.75433 0.0
C1327 C 0.81956 0.26572 0.76348 0.0
C1328 C 0.82285 0.23861 0.74491 0.0
C1329 C 0.82986 0.25283 0.75892 0.0
Gd1330 Gd 0.75618 0.28879 0.80964 0.0
Gd1331 Gd 0.78508 0.28576 0.76072 0.0
N1332 N 0.76921 0.26283 0.73752 0.0
C1333 C 0.75315 0.23496 0.70976 0.0
C1334 C 0.75229 0.26246 0.72903 0.0
C1335 C 0.74398 0.2485 0.71522 0.0
H1336 H 0.74504 0.27288 0.73241 0.0
H1337 H 0.73053 0.24828 0.70868 0.0
H1338 H 0.79358 0.29809 0.84195 0.0
H1339 H 0.82509 0.27679 0.77418 0.0
H1340 H 0.80645 0.3205 0.86861 0.0
H1341 H 0.74665 0.22416 0.69905 0.0
H1342 H 0.77461 0.21121 0.70228 0.0
H1343 H 0.71572 0.29771 0.79623 0.0
H1344 H 0.83084 0.22861 0.74145 0.0
H1345 H 0.84318 0.25388 0.76617 0.0
H1346 H 0.76203 0.35711 0.87546 0.0
H1347 H 0.80521 0.21282 0.71762 0.0
H1348 H 0.70801 0.34281 0.83258 0.0
H1349 H 0.69705 0.31957 0.8055 0.0
N1350 N 0.73723 0.30861 0.81766 0.0
C1351 C 0.74337 0.32102 0.83284 0.0
C1352 C 0.72078 0.3079 0.80794 0.0
C1353 C 0.7163 0.33324 0.82857 0.0
C1354 C 0.71009 0.32019 0.81324 0.0
C1355 C 0.73312 0.33379 0.83859 0.0
H1356 H 0.73232 0.35673 0.85856 0.0
N1357 N 0.76991 0.3089 0.83625 0.0
C1358 C 0.76017 0.32119 0.84239 0.0
C1359 C 0.78398 0.33404 0.86725 0.0
C1360 C 0.76706 0.3342 0.85792 0.0
C1361 C 0.78615 0.30831 0.84581 0.0
C1362 C 0.79348 0.32095 0.86126 0.0
O1363 O 0.77705 0.25904 0.77095 0.0
O1364 O 0.75676 0.27227 0.78285 0.0
O1365 O 0.75611 0.26775 0.82769 0.0
O1366 O 0.73096 0.27403 0.81613 0.0
O1367 O 0.75829 0.29587 0.75639 0.0
O1368 O 0.74008 0.28818 0.78046 0.0
O1369 O 0.76657 0.31714 0.80471 0.0
O1370 O 0.77767 0.30025 0.78549 0.0
O1371 O 0.78444 0.30224 0.73832 0.0
O1372 O 0.81046 0.30044 0.75341 0.0
O1373 O 0.78457 0.28094 0.81282 0.0
O1374 O 0.80216 0.2919 0.78954 0.0
C1375 C 0.76443 0.25853 0.78182 0.0
C1376 C 0.74269 0.29396 0.76374 0.0
C1377 C 0.73245 0.26472 0.84658 0.0
C1378 C 0.73503 0.25404 0.87732 0.0
C1379 C 0.7119 0.271 0.869 0.0
C1380 C 0.71781 0.27241 0.85131 0.0
C1381 C 0.72039 0.2618 0.88195 0.0
C1382 C 0.74106 0.25579 0.8597 0.0
C1383 C 0.73877 0.26522 0.82797 0.0
C1384 C 0.7569 0.34698 0.86362 0.0
C1385 C 0.73998 0.34677 0.854 0.0
H1386 H 0.78974 0.34383 0.8792 0.0
C1387 C 0.77598 0.31642 0.79088 0.0
C1388 C 0.80028 0.28502 0.80578 0.0
C1389 C 0.81046 0.3193 0.72785 0.0
C1390 C 0.80748 0.33677 0.70181 0.0
C1391 C 0.83684 0.33744 0.71842 0.0
C1392 C 0.82908 0.32556 0.73026 0.0
C1393 C 0.82607 0.34312 0.70424 0.0
C1394 C 0.79976 0.3249 0.71351 0.0
C1395 C 0.80182 0.30712 0.74013 0.0
H1396 H 0.70054 0.27682 0.87258 0.0
H1397 H 0.71088 0.2794 0.84139 0.0
H1398 H 0.71524 0.2604 0.89536 0.0
H1399 H 0.75249 0.25007 0.85607 0.0
H1400 H 0.85121 0.3422 0.72018 0.0
H1401 H 0.83758 0.32131 0.74124 0.0
H1402 H 0.83221 0.35216 0.69497 0.0
H1403 H 0.78536 0.32007 0.71134 0.0
C1404 C 0.81972 0.80711 0.79345 0.0
C1405 C 0.83521 0.82319 0.7704 0.0
C1406 C 0.81977 0.81246 0.77553 0.0
C1407 C 0.85056 0.8285 0.78355 0.0
C1408 C 0.83506 0.81267 0.80678 0.0
C1409 C 0.85046 0.82331 0.80171 0.0
N1410 N 0.80458 0.79688 0.79801 0.0
C1411 C 0.80373 0.79239 0.81587 0.0
C1412 C 0.83437 0.80765 0.82494 0.0
C1413 C 0.81859 0.79755 0.82952 0.0
Gd1414 Gd 0.75899 0.74278 0.74751 0.0
Gd1415 Gd 0.77988 0.79066 0.7745 0.0
N1416 N 0.80476 0.80705 0.76304 0.0
C1417 C 0.83474 0.82835 0.75222 0.0
C1418 C 0.80394 0.81289 0.7457 0.0
C1419 C 0.81897 0.82328 0.73987 0.0
H1420 H 0.79166 0.81001 0.73652 0.0
H1421 H 0.81826 0.82763 0.72596 0.0
H1422 H 0.74551 0.72705 0.7876 0.0
H1423 H 0.7914 0.78551 0.81995 0.0
H1424 H 0.71784 0.71185 0.79811 0.0
H1425 H 0.84633 0.83653 0.74773 0.0
H1426 H 0.86252 0.83675 0.77987 0.0
H1427 H 0.74712 0.75266 0.70369 0.0
H1428 H 0.84581 0.81177 0.83561 0.0
H1429 H 0.81777 0.794 0.84367 0.0
H1430 H 0.67402 0.70529 0.74427 0.0
H1431 H 0.86234 0.8277 0.81177 0.0
H1432 H 0.69163 0.73022 0.68893 0.0
H1433 H 0.72021 0.74672 0.68069 0.0
N1434 N 0.73376 0.74146 0.72563 0.0
C1435 C 0.71823 0.73207 0.73039 0.0
C1436 C 0.73457 0.74661 0.708 0.0
C1437 C 0.70332 0.73337 0.69938 0.0
C1438 C 0.71938 0.7428 0.69471 0.0
C1439 C 0.70258 0.72786 0.71734 0.0
H1440 H 0.67469 0.71458 0.71255 0.0
N1441 N 0.73326 0.73047 0.7607 0.0
C1442 C 0.71795 0.72652 0.74835 0.0
C1443 C 0.70186 0.71195 0.77176 0.0
C1444 C 0.70188 0.71703 0.75358 0.0
C1445 C 0.73336 0.72507 0.77825 0.0
C1446 C 0.71765 0.71604 0.78414 0.0
O1447 O 0.80132 0.77763 0.76176 0.0
O1448 O 0.7896 0.7486 0.74768 0.0
O1449 O 0.75741 0.71427 0.74794 0.0
O1450 O 0.7588 0.72576 0.72163 0.0
O1451 O 0.76473 0.78839 0.74533 0.0
O1452 O 0.77139 0.76328 0.72989 0.0
O1453 O 0.73964 0.76176 0.75496 0.0
O1454 O 0.75385 0.77619 0.78298 0.0
O1455 O 0.76678 0.8126 0.76815 0.0
O1456 O 0.78012 0.81209 0.79666 0.0
O1457 O 0.77351 0.74174 0.77668 0.0
O1458 O 0.77217 0.76903 0.79291 0.0
C1459 C 0.80321 0.76219 0.75294 0.0
C1460 C 0.76796 0.77947 0.72987 0.0
C1461 C 0.77074 0.69968 0.72398 0.0
C1462 C 0.78764 0.67663 0.73047 0.0
C1463 C 0.78497 0.68574 0.69917 0.0
C1464 C 0.77456 0.69802 0.70519 0.0
C1465 C 0.7914 0.67491 0.71175 0.0
C1466 C 0.77749 0.68902 0.73661 0.0
C1467 C 0.75857 0.71139 0.72995 0.0
C1468 C 0.68638 0.71277 0.74054 0.0
C1469 C 0.68675 0.71808 0.72247 0.0
H1470 H 0.68978 0.70468 0.77629 0.0
C1471 C 0.73904 0.77078 0.77143 0.0
C1472 C 0.7743 0.75229 0.79256 0.0
C1473 C 0.76571 0.83716 0.79172 0.0
C1474 C 0.74987 0.86069 0.78452 0.0
C1475 C 0.76172 0.85932 0.81674 0.0
C1476 C 0.76839 0.84407 0.81085 0.0
C1477 C 0.75229 0.86756 0.80361 0.0
C1478 C 0.75672 0.84571 0.77859 0.0
C1479 C 0.77084 0.8203 0.78546 0.0
H1480 H 0.7878 0.6844 0.68469 0.0
H1481 H 0.76927 0.70597 0.69511 0.0
H1482 H 0.79916 0.66514 0.70691 0.0
H1483 H 0.7744 0.68982 0.75106 0.0
H1484 H 0.76365 0.8646 0.83147 0.0
H1485 H 0.77528 0.83753 0.82124 0.0
H1486 H 0.747 0.8793 0.80826 0.0
H1487 H 0.75453 0.84048 0.76379 0.0
C1488 C 0.50123 0.48942 0.50231 0.0
C1489 C 0.48336 0.47492 0.52472 0.0
C1490 C 0.49463 0.49004 0.51968 0.0
C1491 C 0.47893 0.45913 0.51213 0.0
C1492 C 0.49641 0.4737 0.48946 0.0
C1493 C 0.48539 0.45854 0.49453 0.0
N1494 N 0.51183 0.50433 0.49775 0.0
C1495 C 0.51718 0.50467 0.48016 0.0
C1496 C 0.50249 0.47378 0.47171 0.0
C1497 C 0.51277 0.48939 0.46699 0.0
Gd1498 Gd 0.56479 0.54925 0.54788 0.0
Gd1499 Gd 0.51721 0.52945 0.52066 0.0
N1500 N 0.49923 0.50544 0.53166 0.0
C1501 C 0.47672 0.47621 0.5422 0.0
C1502 C 0.49182 0.50716 0.54809 0.0
C1503 C 0.48081 0.49248 0.55385 0.0
H1504 H 0.49393 0.51993 0.55653 0.0
H1505 H 0.47523 0.49383 0.56709 0.0
H1506 H 0.58263 0.56236 0.50858 0.0
H1507 H 0.52428 0.51682 0.47588 0.0
H1508 H 0.5975 0.59015 0.49803 0.0
H1509 H 0.46807 0.46489 0.54661 0.0
H1510 H 0.47032 0.44738 0.51577 0.0
H1511 H 0.55336 0.56112 0.59093 0.0
H1512 H 0.49898 0.46201 0.4614 0.0
H1513 H 0.51707 0.48976 0.4531 0.0
H1514 H 0.60079 0.63451 0.55075 0.0
H1515 H 0.4816 0.44634 0.48484 0.0
H1516 H 0.57446 0.61693 0.60539 0.0
H1517 H 0.55825 0.58822 0.61359 0.0
N1518 N 0.56499 0.57452 0.56918 0.0
C1519 C 0.57434 0.5901 0.5645 0.0
C1520 C 0.55939 0.5737 0.58662 0.0
C1521 C 0.57182 0.60515 0.59509 0.0
C1522 C 0.56257 0.589 0.59973 0.0
C1523 C 0.57786 0.60587 0.57734 0.0
H1524 H 0.59046 0.63394 0.58203 0.0
N1525 N 0.57751 0.57484 0.53474 0.0
C1526 C 0.58055 0.59032 0.5468 0.0
C1527 C 0.59578 0.60637 0.52377 0.0
C1528 C 0.58993 0.60645 0.54162 0.0
C1529 C 0.58378 0.57463 0.51758 0.0
C1530 C 0.59266 0.59041 0.5117 0.0
O1531 O 0.52921 0.50796 0.53483 0.0
O1532 O 0.5596 0.51838 0.54453 0.0
O1533 O 0.59363 0.55259 0.54964 0.0
O1534 O 0.58027 0.54802 0.57445 0.0
O1535 O 0.51989 0.54407 0.55007 0.0
O1536 O 0.5444 0.53604 0.56512 0.0
O1537 O 0.54568 0.56864 0.5405 0.0
O1538 O 0.53215 0.55514 0.51199 0.0
O1539 O 0.49591 0.54381 0.5263 0.0
O1540 O 0.49584 0.52901 0.49835 0.0
O1541 O 0.56643 0.53506 0.51876 0.0
O1542 O 0.5392 0.53675 0.50257 0.0
C1543 C 0.54524 0.5053 0.54132 0.0
C1544 C 0.52813 0.53919 0.56501 0.0
C1545 C 0.60755 0.53814 0.57299 0.0
C1546 C 0.63043 0.52126 0.56581 0.0
C1547 C 0.62262 0.5246 0.59761 0.0
C1548 C 0.61001 0.53478 0.59187 0.0
C1549 C 0.63298 0.51797 0.58463 0.0
C1550 C 0.61769 0.53112 0.55996 0.0
C1551 C 0.59541 0.54998 0.56733 0.0
C1552 C 0.59341 0.62209 0.55444 0.0
C1553 C 0.5875 0.62177 0.57226 0.0
H1554 H 0.60297 0.6185 0.51927 0.0
C1555 C 0.53774 0.56981 0.52364 0.0
C1556 C 0.55588 0.53439 0.50291 0.0
C1557 C 0.47146 0.5447 0.50248 0.0
C1558 C 0.44658 0.55868 0.50946 0.0
C1559 C 0.45005 0.5494 0.47707 0.0
C1560 C 0.46548 0.5431 0.48315 0.0
C1561 C 0.4406 0.55728 0.4902 0.0
C1562 C 0.46188 0.55239 0.51557 0.0
C1563 C 0.48805 0.53918 0.5091 0.0
H1564 H 0.62456 0.5221 0.61217 0.0
H1565 H 0.60239 0.54025 0.60221 0.0
H1566 H 0.64299 0.51037 0.58923 0.0
H1567 H 0.61619 0.53376 0.54538 0.0
H1568 H 0.44548 0.54827 0.46219 0.0
H1569 H 0.47283 0.53725 0.4728 0.0
H1570 H 0.42866 0.56219 0.48542 0.0
H1571 H 0.46635 0.55366 0.53053 0.0
C1572 C 0.0648 0.55985 0.00753 0.0
C1573 C 0.08557 0.57757 0.03312 0.0
C1574 C 0.07231 0.56236 0.02629 0.0
C1575 C 0.09116 0.5902 0.02089 0.0
C1576 C 0.07041 0.57249 0.99524 0.0
C1577 C 0.0836 0.58767 0.00203 0.0
N1578 N 0.05189 0.54514 0.00138 0.0
C1579 C 0.04456 0.54191 0.98299 0.0
C1580 C 0.06262 0.56948 0.97646 0.0
C1581 C 0.04971 0.55408 0.97031 0.0
Gd1582 Gd 0.99841 0.52184 0.04606 0.0
Gd1583 Gd 0.04504 0.52543 0.02374 0.0
N1584 N 0.0662 0.55023 0.03798 0.0
C1585 C 0.09274 0.57967 0.05207 0.0
C1586 C 0.07367 0.55176 0.05619 0.0
C1587 C 0.08686 0.56663 0.06361 0.0
H1588 H 0.06981 0.54137 0.06487 0.0
H1589 H 0.09264 0.56791 0.07816 0.0
H1590 H 0.97526 0.50479 0.00402 0.0
H1591 H 0.03514 0.52971 0.97793 0.0
H1592 H 0.95422 0.47727 0.99012 0.0
H1593 H 0.10295 0.59117 0.05786 0.0
H1594 H 0.1013 0.602 0.0259 0.0
H1595 H 0.00861 0.51714 0.0917 0.0
H1596 H 0.0666 0.57887 0.96658 0.0
H1597 H 0.04385 0.55147 0.95574 0.0
H1598 H 0.94639 0.44253 0.0419 0.0
H1599 H 0.08806 0.59754 0.99279 0.0
H1600 H 0.97901 0.4666 0.10198 0.0
H1601 H 1.00049 0.49474 0.11346 0.0
N1602 N 0.99273 0.50135 0.06789 0.0
C1603 C 0.98062 0.48612 0.06131 0.0
C1604 C 0.99973 0.50463 0.08637 0.0
C1605 C 0.98274 0.47625 0.09227 0.0
C1606 C 0.99494 0.49209 0.0988 0.0
C1607 C 0.97538 0.47311 0.07335 0.0
H1608 H 0.95877 0.44733 0.07527 0.0
N1609 N 0.97899 0.49609 0.03093 0.0
C1610 C 0.97352 0.48343 0.04237 0.0
C1611 C 0.95437 0.46535 0.0161 0.0
C1612 C 0.96116 0.46764 0.03517 0.0
C1613 C 0.9719 0.49423 0.01257 0.0
C1614 C 0.9597 0.47875 0.00478 0.0
O1615 O 0.03685 0.55274 0.03164 0.0
O1616 O 0.01654 0.54928 0.05371 0.0
O1617 O 0.97391 0.53227 0.03831 0.0
O1618 O 0.98344 0.53062 0.06782 0.0
O1619 O 0.04217 0.51521 0.05187 0.0
O1620 O 0.02323 0.53151 0.06556 0.0
O1621 O 0.00927 0.49563 0.03953 0.0
O1622 O 0.02413 0.50039 0.01369 0.0
O1623 O 0.06683 0.51092 0.03172 0.0
O1624 O 0.06053 0.51643 0.00273 0.0
O1625 O 1.00128 0.53392 0.01908 0.0
O1626 O 0.01978 0.51815 0.00416 0.0
C1627 C 0.02755 0.55951 0.0443 0.0
C1628 C 0.03637 0.52276 0.06664 0.0
C1629 C 0.95634 0.54252 0.06279 0.0
C1630 C 0.93043 0.55685 0.0577 0.0
C1631 C 0.94 0.54996 0.08894 0.0
C1632 C 0.95391 0.54276 0.08196 0.0
C1633 C 0.9283 0.55693 0.07692 0.0
C1634 C 0.94459 0.54974 0.05064 0.0
C1635 C 0.97146 0.53512 0.05602 0.0
C1636 C 0.95592 0.45471 0.04718 0.0
C1637 C 0.96298 0.45744 0.0662 0.0
H1638 H 0.94485 0.4534 0.01004 0.0
C1639 C 0.0158 0.48939 0.02437 0.0
C1640 C 0.00682 0.52727 0.00376 0.0
C1641 C 0.08488 0.50055 0.00745 0.0
C1642 C 0.1086 0.4831 0.01166 0.0
C1643 C 0.10025 0.49176 0.98092 0.0
C1644 C 0.08742 0.50039 0.98829 0.0
C1645 C 0.11072 0.48311 0.99248 0.0
C1646 C 0.09572 0.49197 0.01927 0.0
C1647 C 0.0706 0.5094 0.01436 0.0
H1648 H 0.93831 0.55017 0.10373 0.0
H1649 H 0.9628 0.53741 0.09165 0.0
H1650 H 0.91765 0.56259 0.08268 0.0
H1651 H 0.94636 0.54976 0.03585 0.0
H1652 H 0.10203 0.49173 0.96615 0.0
H1653 H 0.0794 0.50689 0.97884 0.0
H1654 H 0.12063 0.47645 0.98645 0.0
H1655 H 0.09398 0.49192 0.03406 0.0
C1656 C 0.0061 0.2172 0.97744 0.0
C1657 C 0.00773 0.21892 0.95827 0.0
C1658 C 0.0092 0.20162 0.98549 0.0
C1659 C 0.03056 0.16049 0.97701 0.0
H1660 H 1.00347 0.14335 0.01663 0.0
C1661 C 0.04628 0.09911 0.01518 0.0
C1662 C 0.03199 0.08728 0.02106 0.0
C1663 C 0.04372 0.11532 0.00822 0.0
C1664 C 0.01116 0.14774 0.00548 0.0
H1665 H 0.01417 0.20513 0.93278 0.0
H1666 H 0.01951 0.17831 0.94657 0.0
H1667 H 0.99814 0.17038 0.00329 0.0
H1668 H 1.00362 0.08386 0.02408 0.0
H1669 H 0.99917 0.11178 0.01212 0.0
H1670 H 0.04334 0.13769 0.97894 0.0
C1671 C 0.01593 0.18899 0.9556 0.0
C1672 C 0.00822 0.16357 0.9979 0.0
C1673 C 0.01267 0.20446 0.94754 0.0
C1674 C 0.01507 0.09246 0.01986 0.0
C1675 C 0.01253 0.10871 0.01301 0.0
C1676 C 0.03355 0.1447 0.98464 0.0
C1677 C 0.01428 0.18714 0.97478 0.0
C1678 C 0.01776 0.17029 0.98337 0.0
C1679 C 0.02675 0.12051 0.00689 0.0
C1680 C 0.02384 0.13785 0.99899 0.0
H1681 H 1.00239 0.22795 0.98628 0.0
H1682 H 0.00791 0.20111 0.0003 0.0
H1683 H 0.03851 0.16506 0.96613 0.0
H1684 H 0.05951 0.09576 0.01571 0.0
H1685 H 0.0552 0.12387 0.004 0.0
C1686 C 0.10249 0.80311 0.16491 0.0
C1687 C 0.10136 0.79637 0.14581 0.0
C1688 C 0.1179 0.80335 0.17739 0.0
C1689 C 0.15874 0.78257 0.18328 0.0
H1690 H 0.17393 0.82103 0.22414 0.0
C1691 C 0.21336 0.77895 0.24459 0.0
C1692 C 0.22599 0.79464 0.25114 0.0
C1693 C 0.19842 0.7794 0.23168 0.0
C1694 C 0.17 0.81022 0.21275 0.0
H1695 H 0.11581 0.78464 0.12489 0.0
H1696 H 0.14282 0.78519 0.14655 0.0
H1697 H 0.14822 0.82176 0.20146 0.0
H1698 H 0.23274 0.82314 0.24969 0.0
H1699 H 0.20637 0.82415 0.22757 0.0
H1700 H 0.18074 0.7712 0.19445 0.0
C1701 C 0.13166 0.79017 0.152 0.0
C1702 C 0.15504 0.81052 0.19979 0.0
C1703 C 0.11621 0.78999 0.13948 0.0
C1704 C 0.2232 0.81087 0.24483 0.0
C1705 C 0.20804 0.8114 0.23221 0.0
C1706 C 0.17368 0.78226 0.19628 0.0
C1707 C 0.13276 0.7968 0.17121 0.0
C1708 C 0.14909 0.79668 0.18483 0.0
C1709 C 0.1955 0.79564 0.22524 0.0
C1710 C 0.17955 0.79606 0.21126 0.0
H1711 H 0.09132 0.80809 0.17035 0.0
H1712 H 0.11795 0.80832 0.19202 0.0
H1713 H 0.15458 0.77154 0.17218 0.0
H1714 H 0.21529 0.76623 0.24913 0.0
H1715 H 0.18907 0.767 0.22686 0.0
C1716 C 0.50904 0.82497 0.47929 0.0
C1717 C 0.50577 0.82021 0.45965 0.0
C1718 C 0.5097 0.84279 0.48731 0.0
C1719 C 0.49518 0.88571 0.47641 0.0
H1720 H 0.52987 0.90797 0.51885 0.0
C1721 C 0.50879 0.96278 0.49925 0.0
C1722 C 0.51237 0.96932 0.5185 0.0
C1723 C 0.50711 0.94441 0.49309 0.0
C1724 C 0.5199 0.90195 0.50715 0.0
H1725 H 0.50056 0.83076 0.43317 0.0
H1726 H 0.50149 0.8614 0.44694 0.0
H1727 H 0.52889 0.87673 0.50641 0.0
H1728 H 0.51692 0.96141 0.5464 0.0
H1729 H 0.51444 0.92935 0.53568 0.0
H1730 H 0.48624 0.91086 0.47701 0.0
C1731 C 0.50353 0.85148 0.45631 0.0
C1732 C 0.51934 0.88392 0.49996 0.0
C1733 C 0.50312 0.83381 0.44834 0.0
C1734 C 0.51405 0.95685 0.53148 0.0
C1735 C 0.51278 0.93845 0.52527 0.0
C1736 C 0.49575 0.90368 0.48356 0.0
C1737 C 0.5068 0.85638 0.47596 0.0
C1738 C 0.50707 0.87549 0.48432 0.0
C1739 C 0.50932 0.93188 0.50592 0.0
C1740 C 0.50822 0.91225 0.49896 0.0
H1741 H 0.51121 0.81494 0.48849 0.0
H1742 H 0.51217 0.84585 0.50247 0.0
H1743 H 0.48523 0.87979 0.46467 0.0
H1744 H 0.50733 0.97194 0.48885 0.0
H1745 H 0.50457 0.94012 0.47811 0.0
C1746 C 0.50793 0.27986 0.65787 0.0
C1747 C 0.50721 0.2874 0.64081 0.0
C1748 C 0.49321 0.27796 0.66818 0.0
C1749 C 0.45153 0.29475 0.67591 0.0
H1750 H 0.44015 0.25071 0.69864 0.0
C1751 C 0.3874 0.27192 0.7137 0.0
C1752 C 0.39023 0.26295 0.72959 0.0
C1753 C 0.40168 0.27761 0.70334 0.0
C1754 C 0.44325 0.26319 0.69258 0.0
H1755 H 0.4905 0.2991 0.62128 0.0
H1756 H 0.46469 0.29595 0.63949 0.0
H1757 H 0.46434 0.25444 0.67886 0.0
H1758 H 0.41035 0.25427 0.74801 0.0
H1759 H 0.43516 0.26434 0.73024 0.0
H1760 H 0.43012 0.30331 0.68968 0.0
C1761 C 0.4767 0.29147 0.64484 0.0
C1762 C 0.45715 0.26533 0.6812 0.0
C1763 C 0.49142 0.29317 0.63435 0.0
C1764 C 0.4078 0.26115 0.73581 0.0
C1765 C 0.42196 0.26674 0.72551 0.0
C1766 C 0.43748 0.29256 0.68731 0.0
C1767 C 0.47737 0.28369 0.66183 0.0
C1768 C 0.46169 0.28123 0.67294 0.0
C1769 C 0.41895 0.27428 0.70868 0.0
C1770 C 0.4334 0.27684 0.69603 0.0
H1771 H 0.51986 0.27523 0.66323 0.0
H1772 H 0.49434 0.27212 0.68129 0.0
H1773 H 0.45472 0.30721 0.66985 0.0
H1774 H 0.37396 0.27329 0.70849 0.0
H1775 H 0.39895 0.28344 0.69046 0.0
C1776 C 0.03456 0.81696 0.66211 0.0
C1777 C 0.02181 0.8015 0.6551 0.0
C1778 C 0.03681 0.83188 0.65205 0.0
C1779 C 0.01512 0.85377 0.61448 0.0
H1780 H 0.06412 0.87536 0.60932 0.0
C1781 C 0.03443 0.90478 0.56087 0.0
C1782 C 0.05 0.91794 0.56594 0.0
C1783 C 0.02945 0.89166 0.57278 0.0
C1784 C 0.05033 0.86978 0.61085 0.0
H1785 H 1.00099 0.78978 0.63236 0.0
H1786 H 0.00477 0.8159 0.6149 0.0
H1787 H 0.0584 0.85062 0.62808 0.0
H1788 H 0.07199 0.92844 0.5877 0.0
H1789 H 0.06308 0.90607 0.60879 0.0
H1790 H 0.00708 0.87298 0.59711 0.0
C1791 C 0.01309 0.81649 0.62813 0.0
C1792 C 0.04705 0.8555 0.62162 0.0
C1793 C 0.01101 0.80147 0.63808 0.0
C1794 C 0.05999 0.91834 0.58347 0.0
C1795 C 0.05495 0.9054 0.59543 0.0
C1796 C 0.0184 0.86818 0.60374 0.0
C1797 C 0.02621 0.83179 0.63485 0.0
C1798 C 0.02943 0.84728 0.6236 0.0
C1799 C 0.03994 0.89151 0.59003 0.0
C1800 C 0.03609 0.87641 0.60179 0.0
H1801 H 0.04308 0.8174 0.67518 0.0
H1802 H 0.04691 0.8435 0.65774 0.0
H1803 H 1.00137 0.84783 0.61581 0.0
H1804 H 0.02657 0.90419 0.54736 0.0
H1805 H 0.01787 0.88118 0.56806 0.0
C1806 C 0.48446 0.8101 0.81963 0.0
C1807 C 0.48832 0.80008 0.83447 0.0
C1808 C 0.4666 0.80983 0.81215 0.0
C1809 C 0.41994 0.78306 0.80918 0.0
H1810 H 0.40482 0.82686 0.79694 0.0
C1811 C 0.34454 0.78554 0.79447 0.0
C1812 C 0.33856 0.79592 0.78082 0.0
C1813 C 0.36286 0.78661 0.80017 0.0
C1814 C 0.40878 0.81442 0.80002 0.0
H1815 H 0.47615 0.78179 0.85286 0.0
H1816 H 0.44527 0.78119 0.83984 0.0
H1817 H 0.43632 0.82734 0.80795 0.0
H1818 H 0.34787 0.81565 0.76253 0.0
H1819 H 0.37986 0.81779 0.77265 0.0
H1820 H 0.39261 0.77004 0.80117 0.0
C1821 C 0.45599 0.78923 0.83384 0.0
C1822 C 0.42695 0.8147 0.80639 0.0
C1823 C 0.47379 0.78963 0.84141 0.0
C1824 C 0.35174 0.80772 0.77332 0.0
C1825 C 0.37021 0.80885 0.77911 0.0
C1826 C 0.40187 0.78276 0.80275 0.0
C1827 C 0.45202 0.79939 0.81913 0.0
C1828 C 0.4328 0.79906 0.81134 0.0
C1829 C 0.37612 0.79809 0.79246 0.0
C1830 C 0.39583 0.79847 0.79832 0.0
H1831 H 0.49526 0.81835 0.81395 0.0
H1832 H 0.46422 0.81771 0.80074 0.0
H1833 H 0.42385 0.77063 0.81237 0.0
H1834 H 0.33501 0.77633 0.80079 0.0
H1835 H 0.36658 0.77839 0.81079 0.0
C1836 C 0.51375 0.20817 0.12841 0.0
C1837 C 0.51105 0.20684 0.14736 0.0
C1838 C 0.51378 0.1929 0.11587 0.0
C1839 C 0.51637 0.14373 0.11435 0.0
H1840 H 0.50389 0.14443 0.06086 0.0
C1841 C 0.50775 0.08023 0.05965 0.0
C1842 C 0.51636 0.08214 0.04325 0.0
C1843 C 0.50662 0.09522 0.07215 0.0
C1844 C 0.50753 0.14403 0.07574 0.0
H1845 H 0.50596 0.18811 0.16782 0.0
H1846 H 0.50522 0.16135 0.14589 0.0
H1847 H 0.50198 0.17018 0.08282 0.0
H1848 H 0.53035 0.10182 0.02732 0.0
H1849 H 0.5277 0.12794 0.04871 0.0
H1850 H 0.52124 0.11718 0.10707 0.0
C1851 C 0.50787 0.17428 0.14069 0.0
C1852 C 0.50655 0.15894 0.08847 0.0
C1853 C 0.5081 0.18967 0.15334 0.0
C1854 C 0.52339 0.09967 0.03957 0.0
C1855 C 0.52194 0.11471 0.05192 0.0
C1856 C 0.517 0.1287 0.10163 0.0
C1857 C 0.51083 0.17559 0.12169 0.0
C1858 C 0.51114 0.15921 0.10806 0.0
C1859 C 0.51373 0.11269 0.06852 0.0
C1860 C 0.51274 0.12867 0.08211 0.0
H1861 H 0.51619 0.22116 0.12325 0.0
H1862 H 0.51654 0.19487 0.10167 0.0
H1863 H 0.52038 0.14325 0.12912 0.0
H1864 H 0.50198 0.06706 0.06302 0.0
H1865 H 0.5 0.09312 0.08465 0.0
C1866 C 0.10529 0.31218 0.33932 0.0
C1867 C 0.08887 0.30006 0.33436 0.0
C1868 C 0.12109 0.30912 0.3318 0.0
C1869 C 0.14183 0.2725 0.30876 0.0
H1870 H 0.17691 0.31198 0.29703 0.0
C1871 C 0.20484 0.26093 0.27154 0.0
C1872 C 0.22138 0.27246 0.27778 0.0
C1873 C 0.18868 0.26427 0.27799 0.0
C1874 C 0.16741 0.30075 0.30039 0.0
H1875 H 0.07653 0.27507 0.31747 0.0
H1876 H 0.10388 0.26963 0.30462 0.0
H1877 H 0.14926 0.31778 0.30885 0.0
H1878 H 0.23338 0.29721 0.29533 0.0
H1879 H 0.20537 0.30338 0.306 0.0
H1880 H 0.15998 0.25548 0.30029 0.0
C1881 C 0.10465 0.28159 0.31431 0.0
C1882 C 0.15142 0.3041 0.30725 0.0
C1883 C 0.08881 0.2848 0.3216 0.0
C1884 C 0.22105 0.28782 0.29028 0.0
C1885 C 0.20485 0.29144 0.29635 0.0
C1886 C 0.1578 0.26915 0.30188 0.0
C1887 C 0.12116 0.29366 0.31927 0.0
C1888 C 0.13829 0.29006 0.31164 0.0
C1889 C 0.18833 0.27962 0.29054 0.0
C1890 C 0.17097 0.28321 0.29761 0.0
H1891 H 0.10596 0.32407 0.34909 0.0
H1892 H 0.13339 0.31875 0.3362 0.0
H1893 H 0.13238 0.26126 0.31219 0.0
H1894 H 0.20431 0.24913 0.26187 0.0
H1895 H 0.17637 0.25487 0.2729 0.0
C1896 C 0.94129 0.01061 0.1978 0.0
C1897 C 0.94494 0.02322 0.2139 0.0
C1898 C 0.95031 0.01359 0.18201 0.0
C1899 C 0.98998 0.04261 0.1662 0.0
H1900 H 0.96564 0.02261 0.1168 0.0
C1901 C 0.0085 0.05551 0.08906 0.0
C1902 C 0.01539 0.04083 0.08155 0.0
C1903 C 1.00084 0.05493 0.10603 0.0
C1904 C 0.97251 0.02834 0.13053 0.0
H1905 H 0.96064 0.04899 0.22603 0.0
H1906 H 0.97572 0.05468 0.19824 0.0
H1907 H 0.94989 0.01866 0.14446 0.0
H1908 H 0.01999 0.01422 0.08575 0.0
H1909 H 0.00579 0.01289 0.11491 0.0
H1910 H 0.01246 0.05264 0.15177 0.0
C1911 C 0.96642 0.04214 0.19791 0.0
C1912 C 0.96361 0.02591 0.14647 0.0
C1913 C 0.95768 0.03895 0.21385 0.0
C1914 C 0.01475 0.0257 0.09132 0.0
C1915 C 0.00669 0.02493 0.10794 0.0
C1916 C 0.99877 0.04527 0.15017 0.0
C1917 C 0.96291 0.02948 0.18172 0.0
C1918 C 0.97227 0.03278 0.16462 0.0
C1919 C 0.99965 0.0395 0.11538 0.0
C1920 C 0.99013 0.03799 0.13226 0.0
H1921 H 0.93162 0.9983 0.1975 0.0
H1922 H 0.94748 0.00326 0.17013 0.0
H1923 H 0.99729 0.04792 0.17984 0.0
H1924 H 0.00916 0.06741 0.08188 0.0
H1925 H 0.99551 0.06632 0.11163 0.0
C1926 C 0.27846 0.66506 0.49666 0.0
C1927 C 0.26559 0.64936 0.49619 0.0
C1928 C 0.27822 0.67535 0.48171 0.0
C1929 C 0.24527 0.68635 0.44807 0.0
H1930 H 0.28546 0.71002 0.42475 0.0
C1931 C 0.23468 0.72511 0.38633 0.0
C1932 C 0.24186 0.74343 0.3904 0.0
C1933 C 0.24037 0.71307 0.39775 0.0
C1934 C 0.27424 0.70348 0.43128 0.0
H1935 H 0.24302 0.63143 0.47969 0.0
H1936 H 0.24236 0.64964 0.45359 0.0
H1937 H 0.29032 0.68855 0.44732 0.0
H1938 H 0.26127 0.76373 0.40836 0.0
H1939 H 0.27136 0.74238 0.4287 0.0
H1940 H 0.22921 0.7012 0.43227 0.0
C1941 C 0.25266 0.65392 0.46544 0.0
C1942 C 0.27697 0.69128 0.44405 0.0
C1943 C 0.25305 0.64352 0.48027 0.0
C1944 C 0.25542 0.7496 0.4054 0.0
C1945 C 0.2613 0.73747 0.41675 0.0
C1946 C 0.24256 0.6984 0.43535 0.0
C1947 C 0.26493 0.67013 0.46631 0.0
C1948 C 0.26242 0.68256 0.45238 0.0
C1949 C 0.25344 0.71924 0.41319 0.0
C1950 C 0.25696 0.70691 0.42681 0.0
H1951 H 0.28838 0.66964 0.50881 0.0
H1952 H 0.28775 0.68785 0.48268 0.0
H1953 H 0.23398 0.6802 0.45476 0.0
H1954 H 0.2244 0.7202 0.37457 0.0
H1955 H 0.23422 0.699 0.39487 0.0
C1956 C 0.65804 0.04252 0.68652 0.0
C1957 C 0.65785 0.02901 0.69835 0.0
C1958 C 0.64518 0.04025 0.67096 0.0
C1959 C 0.5994 0.01555 0.65836 0.0
H1960 H 0.60311 0.0379 0.61236 0.0
C1961 C 0.55114 0.00594 0.58924 0.0
C1962 C 0.54581 0.02179 0.58483 0.0
C1963 C 0.56291 0.00627 0.60529 0.0
C1964 C 0.60204 0.03179 0.6253 0.0
H1965 H 0.64618 1.00192 0.70255 0.0
H1966 H 0.62439 0.99736 0.67453 0.0
H1967 H 0.63036 0.0376 0.63311 0.0
H1968 H 0.54706 0.05 0.59373 0.0
H1969 H 0.56865 0.05075 0.62152 0.0
H1970 H 0.57106 0.00915 0.64994 0.0
C1971 C 0.63374 0.01001 0.67769 0.0
C1972 C 0.61751 0.03154 0.63707 0.0
C1973 C 0.64622 0.01251 0.69353 0.0
C1974 C 0.55114 0.03767 0.59712 0.0
C1975 C 0.56334 0.03812 0.61287 0.0
C1976 C 0.58399 0.01551 0.6464 0.0
C1977 C 0.63238 0.02427 0.66702 0.0
C1978 C 0.61632 0.02342 0.65371 0.0
C1979 C 0.56961 0.02252 0.61658 0.0
C1980 C 0.58533 0.02372 0.62996 0.0
H1981 H 0.66697 0.05539 0.69025 0.0
H1982 H 0.64441 0.05151 0.66304 0.0
H1983 H 0.59801 0.00966 0.67138 0.0
H1984 H 0.54683 0.99358 0.57988 0.0
H1985 H 0.56782 0.9942 0.60812 0.0
C1986 C 0.28507 0.34319 0.97957 0.0
C1987 C 0.29075 0.36188 0.9826 0.0
C1988 C 0.28459 0.33387 0.96169 0.0
C1989 C 0.30407 0.3377 0.91675 0.0
H1990 H 0.26399 0.29964 0.89663 0.0
C1991 C 0.30442 0.29334 0.84697 0.0
C1992 C 0.28873 0.29039 0.83431 0.0
C1993 C 0.30463 0.30104 0.86549 0.0
C1994 C 0.27525 0.31027 0.90203 0.0
H1995 H 0.3004 0.3855 0.96934 0.0
H1996 H 0.29974 0.36928 0.93823 0.0
H1997 H 0.26426 0.31555 0.92788 0.0
H1998 H 0.26068 0.29255 0.83123 0.0
H1999 H 0.26086 0.30568 0.86366 0.0
H2000 H 0.31491 0.33269 0.8908 0.0
C2001 C 0.29568 0.36177 0.94963 0.0
C2002 C 0.27549 0.31928 0.92001 0.0
C2003 C 0.29596 0.37108 0.96743 0.0
C2004 C 0.27302 0.29473 0.8407 0.0
C2005 C 0.27311 0.30216 0.8593 0.0
C2006 C 0.30388 0.32865 0.89883 0.0
C2007 C 0.29001 0.34304 0.94652 0.0
C2008 C 0.28986 0.33317 0.92755 0.0
C2009 C 0.289 0.30571 0.87184 0.0
C2010 C 0.28943 0.31487 0.8912 0.0
H2011 H 0.28088 0.33576 0.99099 0.0
H2012 H 0.28025 0.31945 0.95982 0.0
H2013 H 0.31544 0.3482 0.9222 0.0
H2014 H 0.3167 0.29039 0.84242 0.0
H2015 H 0.31707 0.30345 0.87481 0.0
C2016 C 0.94048 0.02364 0.32999 0.0
C2017 C 0.94663 0.01651 0.31361 0.0
C2018 C 0.95014 0.02408 0.34765 0.0
C2019 C 0.98289 1.00276 0.37373 0.0
H2020 H 0.98953 0.04586 0.40893 0.0
C2021 C 0.02247 0.0099 0.44887 0.0
C2022 C 0.01506 0.01877 0.4634 0.0
C2023 C 0.01557 0.00962 0.42994 0.0
C2024 C 0.98766 0.03363 0.39938 0.0
H2025 H 0.96766 0.00411 0.30293 0.0
H2026 H 0.98449 0.00472 0.33389 0.0
H2027 H 0.97444 0.04525 0.37737 0.0
H2028 H 0.99436 0.03409 0.46921 0.0
H2029 H 0.98246 0.03348 0.43677 0.0
H2030 H 0.9957 0.99097 0.39595 0.0
C2031 C 0.97219 0.00998 0.33302 0.0
C2032 C 0.97903 0.03331 0.38124 0.0
C2033 C 0.9626 0.00971 0.3153 0.0
C2034 C 1.00059 0.02723 0.45851 0.0
C2035 C 0.99378 0.02699 0.43976 0.0
C2036 C 0.99142 0.00301 0.39199 0.0
C2037 C 0.96611 0.01726 0.34939 0.0
C2038 C 0.97629 0.0178 0.36828 0.0
C2039 C 1.00119 0.01831 0.42516 0.0
C2040 C 0.99364 0.01836 0.40517 0.0
H2041 H 0.9282 0.02895 0.32917 0.0
H2042 H 0.94498 0.02959 0.36 0.0
H2043 H 0.9809 0.99057 0.36408 0.0
H2044 H 0.03371 0.00337 0.45206 0.0
H2045 H 0.02169 1.00288 0.41906 0.0
C2046 C 0.25513 0.6642 0.5977 0.0
C2047 C 0.26612 0.6515 0.59527 0.0
C2048 C 0.25891 0.67703 0.61326 0.0
C2049 C 0.284 0.69033 0.65952 0.0
H2050 H 0.28374 0.73811 0.64524 0.0
C2051 C 0.3012 0.7516 0.71387 0.0
C2052 C 0.28748 0.76164 0.71387 0.0
C2053 C 0.30184 0.73945 0.69845 0.0
C2054 C 0.28393 0.72485 0.64933 0.0
H2055 H 0.28867 0.64102 0.60746 0.0
H2056 H 0.29558 0.66392 0.63481 0.0
H2057 H 0.2771 0.71238 0.62108 0.0
H2058 H 0.26428 0.76781 0.69776 0.0
H2059 H 0.26516 0.74615 0.67074 0.0
H2060 H 0.29038 0.70278 0.68785 0.0
C2061 C 0.28401 0.66383 0.62474 0.0
C2062 C 0.28005 0.71019 0.63563 0.0
C2063 C 0.28007 0.65079 0.60922 0.0
C2064 C 0.27495 0.76014 0.69796 0.0
C2065 C 0.27554 0.74789 0.68254 0.0
C2066 C 0.2879 0.70502 0.67325 0.0
C2067 C 0.27388 0.67743 0.62635 0.0
C2068 C 0.27955 0.69282 0.64073 0.0
C2069 C 0.28871 0.73717 0.68296 0.0
C2070 C 0.28744 0.72227 0.66824 0.0
H2071 H 0.2441 0.66469 0.58717 0.0
H2072 H 0.25062 0.68713 0.61461 0.0
H2073 H 0.28369 0.67702 0.66367 0.0
H2074 H 0.31122 0.75281 0.72593 0.0
H2075 H 0.31221 0.73142 0.69888 0.0
C2076 C 0.66072 0.0414 0.81415 0.0
C2077 C 0.65613 0.04881 0.79764 0.0
C2078 C 0.64993 0.04163 0.82875 0.0
C2079 C 0.61632 0.06494 0.84717 0.0
H2080 H 0.59689 0.0202 0.86565 0.0
C2081 C 0.55663 0.06263 0.88542 0.0
C2082 C 0.56172 0.06176 0.90454 0.0
C2083 C 0.5664 0.05598 0.8719 0.0
C2084 C 0.60225 0.03269 0.86048 0.0
H2085 H 0.6374 0.06285 0.78349 0.0
H2086 H 0.61872 0.06346 0.80896 0.0
H2087 H 0.6205 0.02099 0.84451 0.0
H2088 H 0.57948 0.05121 0.92433 0.0
H2089 H 0.59639 0.03963 0.9006 0.0
H2090 H 0.59802 0.07662 0.86266 0.0
C2091 C 0.63052 0.05742 0.81068 0.0
C2092 C 0.61582 0.03321 0.84869 0.0
C2093 C 0.64111 0.05699 0.79609 0.0
C2094 C 0.57522 0.05213 0.9097 0.0
C2095 C 0.5849 0.0454 0.89615 0.0
C2096 C 0.60275 0.06437 0.85868 0.0
C2097 C 0.6347 0.04956 0.82699 0.0
C2098 C 0.6226 0.0493 0.84164 0.0
C2099 C 0.58127 0.04841 0.87741 0.0
C2100 C 0.59534 0.04818 0.86501 0.0
H2101 H 0.67227 0.03496 0.81553 0.0
H2102 H 0.65338 0.03558 0.84129 0.0
H2103 H 0.62164 0.07755 0.8422 0.0
H2104 H 0.54596 0.06953 0.88106 0.0
H2105 H 0.56338 0.05823 0.85737 0.0
C2106 C 0.2982 0.36811 0.09977 0.0
C2107 C 0.28611 0.3632 0.08329 0.0
C2108 C 0.29561 0.35918 0.1157 0.0
C2109 C 0.26094 0.33035 0.13796 0.0
H2110 H 0.30225 0.31882 0.16665 0.0
C2111 C 0.25784 0.30155 0.20996 0.0
C2112 C 0.26792 0.28819 0.21313 0.0
C2113 C 0.25927 0.31052 0.19389 0.0
C2114 C 0.29054 0.32182 0.15873 0.0
H2115 H 0.26164 0.34527 0.07067 0.0
H2116 H 0.2571 0.32969 0.09841 0.0
H2117 H 0.30633 0.33471 0.13916 0.0
H2118 H 0.28716 0.27353 0.20184 0.0
H2119 H 0.28964 0.2891 0.17393 0.0
H2120 H 0.24513 0.3171 0.15742 0.0
C2121 C 0.26858 0.34046 0.0991 0.0
C2122 C 0.29291 0.33115 0.14308 0.0
C2123 C 0.27126 0.34929 0.08313 0.0
C2124 C 0.27919 0.28375 0.19978 0.0
C2125 C 0.28074 0.2928 0.18386 0.0
C2126 C 0.25857 0.32103 0.15367 0.0
C2127 C 0.28076 0.34523 0.11557 0.0
C2128 C 0.27816 0.33551 0.13244 0.0
C2129 C 0.27095 0.30643 0.18079 0.0
C2130 C 0.27334 0.31657 0.1642 0.0
H2131 H 0.30975 0.3788 0.10033 0.0
H2132 H 0.30516 0.36336 0.12819 0.0
H2133 H 0.24929 0.33364 0.13023 0.0
H2134 H 0.24898 0.30517 0.21997 0.0
H2135 H 0.25158 0.32099 0.19199 0.0
C2136 C 0.22617 0.929 0.00617 0.0
C2137 C 0.23912 0.93542 0.99472 0.0
C2138 C 0.21305 0.93882 0.01009 0.0
C2139 C 0.18893 0.97318 0.99861 0.0
H2140 H 0.19847 0.98964 0.0521 0.0
C2141 C 0.15628 0.02769 0.03561 0.0
C2142 C 0.15106 0.02435 0.05328 0.0
C2143 C 0.16617 0.01652 0.02651 0.0
C2144 C 0.19549 0.98498 0.0372 0.0
H2145 H 0.2479 0.95581 0.97687 0.0
H2146 H 0.22443 0.9729 0.98345 0.0
H2147 H 0.21593 0.9692 0.03816 0.0
H2148 H 0.15067 0.00655 0.07495 0.0
H2149 H 0.16768 0.98671 0.05893 0.0
H2150 H 0.16819 0.98875 0.99774 0.0
C2151 C 0.22457 0.96043 0.98944 0.0
C2152 C 0.20547 0.97336 0.02929 0.0
C2153 C 0.23793 0.95077 0.98579 0.0
C2154 C 0.15518 0.00954 0.06156 0.0
C2155 C 0.16482 0.99826 0.0524 0.0
C2156 C 0.17872 0.98469 0.00661 0.0
C2157 C 0.21265 0.95488 0.00227 0.0
C2158 C 0.20204 0.96723 0.01006 0.0
C2159 C 0.17064 1.00183 0.03496 0.0
C2160 C 0.1818 0.99044 0.02603 0.0
H2161 H 0.22707 0.91727 0.01332 0.0
H2162 H 0.20394 0.93453 0.02014 0.0
H2163 H 0.18638 0.96862 0.98367 0.0
H2164 H 0.15276 0.03893 0.02896 0.0
H2165 H 0.17056 0.01954 0.01309 0.0
C2166 C 0.71709 0.62367 0.00412 0.0
C2167 C 0.71812 0.64227 0.00468 0.0
C2168 C 0.70057 0.61218 0.00344 0.0
C2169 C 0.65359 0.61235 0.01313 0.0
H2170 H 0.64576 0.56355 0.98861 0.0
C2171 C 0.5851 0.5639 0.0004 0.0
C2172 C 0.58448 0.5485 0.00983 0.0
C2173 C 0.60141 0.57497 0.99896 0.0
C2174 C 0.64788 0.57712 0.99557 0.0
H2175 H 0.70261 0.66342 0.00432 0.0
H2176 H 0.67358 0.64333 0.00244 0.0
H2177 H 0.67369 0.58416 0.98624 0.0
H2178 H 0.60073 0.53257 0.02483 0.0
H2179 H 0.62948 0.55162 0.02139 0.0
H2180 H 0.62734 0.60532 0.02173 0.0
C2181 C 0.6856 0.6376 0.0031 0.0
C2182 C 0.66387 0.58894 0.99432 0.0
C2183 C 0.70222 0.64914 0.00404 0.0
C2184 C 0.60069 0.54418 0.01732 0.0
C2185 C 0.61712 0.55508 0.01543 0.0
C2186 C 0.63747 0.60063 0.01403 0.0
C2187 C 0.68457 0.61896 0.00304 0.0
C2188 C 0.66706 0.60668 0.00329 0.0
C2189 C 0.61752 0.57068 0.00647 0.0
C2190 C 0.6346 0.58291 0.00544 0.0
H2191 H 0.72913 0.61795 0.00462 0.0
H2192 H 0.70046 0.59802 0.00376 0.0
H2193 H 0.65559 0.62572 0.02053 0.0
H2194 H 0.57297 0.56767 0.99434 0.0
H2195 H 0.60146 0.58692 0.99194 0.0
C2196 C 0.65343 0.47913 0.28259 0.0
C2197 C 0.66081 0.4966 0.27926 0.0
C2198 C 0.66339 0.46542 0.28074 0.0
C2199 C 0.70105 0.45355 0.25698 0.0
H2200 H 0.70269 0.41891 0.29289 0.0
C2201 C 0.74749 0.40337 0.24957 0.0
C2202 C 0.73908 0.38546 0.24939 0.0
C2203 C 0.73938 0.41721 0.25673 0.0
C2204 C 0.70231 0.42848 0.28275 0.0
H2205 H 0.68435 0.51348 0.27149 0.0
H2206 H 0.70159 0.48972 0.26821 0.0
H2207 H 0.68469 0.44224 0.29758 0.0
H2208 H 0.7164 0.36773 0.25744 0.0
H2209 H 0.70217 0.39193 0.27013 0.0
H2210 H 0.71841 0.43985 0.24201 0.0
C2211 C 0.68813 0.48649 0.27214 0.0
C2212 C 0.69196 0.44176 0.28537 0.0
C2213 C 0.67828 0.50014 0.27412 0.0
C2214 C 0.72318 0.38151 0.25773 0.0
C2215 C 0.71506 0.39535 0.26493 0.0
C2216 C 0.71138 0.44037 0.25439 0.0
C2217 C 0.68081 0.46896 0.27533 0.0
C2218 C 0.69131 0.45449 0.27254 0.0
C2219 C 0.72266 0.41333 0.26368 0.0
C2220 C 0.71223 0.42774 0.26727 0.0
H2221 H 0.64002 0.47607 0.28668 0.0
H2222 H 0.65736 0.45202 0.28318 0.0
H2223 H 0.70051 0.46289 0.24661 0.0
H2224 H 0.75966 0.40665 0.24298 0.0
H2225 H 0.74571 0.43094 0.25588 0.0
C2226 C 0.85289 0.4358 0.50564 0.0
C2227 C 0.83839 0.44231 0.49721 0.0
C2228 C 0.87016 0.44554 0.50619 0.0
C2229 C 0.89745 0.48341 0.48841 0.0
H2230 H 0.92057 0.49261 0.53993 0.0
C2231 C 0.96088 0.53506 0.50876 0.0
C2232 C 0.97452 0.52508 0.51132 0.0
C2233 C 0.94327 0.52726 0.51037 0.0
C2234 C 0.91396 0.49032 0.52563 0.0
H2235 H 0.83027 0.46262 0.48091 0.0
H2236 H 0.86043 0.47982 0.48216 0.0
H2237 H 0.89246 0.47092 0.53232 0.0
H2238 H 0.98077 0.49965 0.51814 0.0
H2239 H 0.95039 0.48665 0.52239 0.0
H2240 H 0.91909 0.50277 0.48177 0.0
C2241 C 0.85855 0.46734 0.48838 0.0
C2242 C 0.89825 0.47772 0.52117 0.0
C2243 C 0.84133 0.45766 0.48788 0.0
C2244 C 0.97068 0.50791 0.51697 0.0
C2245 C 0.95328 0.50041 0.51924 0.0
C2246 C 0.91306 0.49614 0.49291 0.0
C2247 C 0.8729 0.46175 0.49827 0.0
C2248 C 0.89004 0.47408 0.50251 0.0
C2249 C 0.93948 0.50972 0.51506 0.0
C2250 C 0.92138 0.49948 0.51149 0.0
H2251 H 0.85083 0.42377 0.51263 0.0
H2252 H 0.88122 0.44093 0.5136 0.0
H2253 H 0.89128 0.4807 0.47393 0.0
H2254 H 0.96359 0.54833 0.50426 0.0
H2255 H 0.93255 0.53439 0.50684 0.0
C2256 C 0.34512 0.05696 0.29021 0.0
C2257 C 0.3639 0.06102 0.29324 0.0
C2258 C 0.33543 0.07058 0.28844 0.0
C2259 C 0.33822 0.11939 0.29557 0.0
H2260 H 0.30317 0.10971 0.25119 0.0
C2261 C 0.3151 0.1716 0.25168 0.0
C2262 C 0.29735 0.16786 0.2432 0.0
C2263 C 0.32115 0.15982 0.2633 0.0
C2264 C 0.31256 0.11248 0.26391 0.0
H2265 H 0.3874 0.08231 0.29747 0.0
H2266 H 0.37039 0.10622 0.29385 0.0
H2267 H 0.3183 0.08615 0.26069 0.0
H2268 H 0.27144 0.1503 0.24106 0.0
H2269 H 0.28205 0.12944 0.26132 0.0
H2270 H 0.33302 0.14615 0.29803 0.0
C2271 C 0.36318 0.09256 0.29321 0.0
C2272 C 0.32125 0.09901 0.26932 0.0
C2273 C 0.37289 0.07891 0.2951 0.0
C2274 C 0.28527 0.15313 0.24742 0.0
C2275 C 0.2913 0.14133 0.25899 0.0
C2276 C 0.32954 0.13297 0.29007 0.0
C2277 C 0.3444 0.08842 0.28953 0.0
C2278 C 0.33428 0.1024 0.28505 0.0
C2279 C 0.30945 0.14422 0.26634 0.0
C2280 C 0.3168 0.12961 0.27407 0.0
H2281 H 0.33789 0.04324 0.28888 0.0
H2282 H 0.32093 0.06712 0.28579 0.0
H2283 H 0.3482 0.12223 0.30781 0.0
H2284 H 0.32442 0.18314 0.24863 0.0
H2285 H 0.33522 0.16224 0.26875 0.0
C2286 C 0.3104 0.13374 0.52542 0.0
C2287 C 0.31175 0.14829 0.51478 0.0
C2288 C 0.32437 0.12432 0.5275 0.0
C2289 C 0.36328 0.1127 0.50668 0.0
H2290 H 0.37582 0.10098 0.55698 0.0
C2291 C 0.4226 0.07781 0.53415 0.0
C2292 C 0.41729 0.06458 0.54586 0.0
C2293 C 0.41017 0.08761 0.52679 0.0
C2294 C 0.37241 0.1041 0.54284 0.0
H2295 H 0.32858 0.16421 0.49761 0.0
H2296 H 0.3532 0.14741 0.50108 0.0
H2297 H 0.35395 0.12017 0.55196 0.0
H2298 H 0.39464 0.04976 0.55725 0.0
H2299 H 0.3731 0.06682 0.54454 0.0
H2300 H 0.38192 0.09639 0.49772 0.0
C2301 C 0.34128 0.14346 0.50788 0.0
C2302 C 0.35991 0.11507 0.53997 0.0
C2303 C 0.3273 0.15311 0.50601 0.0
C2304 C 0.39911 0.06008 0.5485 0.0
C2305 C 0.38681 0.06985 0.54127 0.0
C2306 C 0.37597 0.1017 0.50961 0.0
C2307 C 0.33999 0.1291 0.51885 0.0
C2308 C 0.35484 0.11913 0.52182 0.0
C2309 C 0.3924 0.08425 0.53115 0.0
C2310 C 0.38025 0.09696 0.52767 0.0
H2311 H 0.29858 0.12972 0.53236 0.0
H2312 H 0.32288 0.11318 0.53585 0.0
H2313 H 0.35957 0.11561 0.49254 0.0
H2314 H 0.43656 0.0815 0.53192 0.0
H2315 H 0.41474 0.09864 0.51895 0.0
C2316 C 0.68276 0.59286 0.30049 0.0
C2317 C 0.66455 0.59046 0.29342 0.0
C2318 C 0.6941 0.60945 0.30092 0.0
C2319 C 0.69863 0.65054 0.27761 0.0
H2320 H 0.73572 0.66934 0.31915 0.0
C2321 C 0.75626 0.70943 0.27257 0.0
C2322 C 0.75919 0.72333 0.28747 0.0
C2323 C 0.74501 0.69314 0.27394 0.0
C2324 C 0.72538 0.66427 0.30749 0.0
H2325 H 0.64383 0.60363 0.28165 0.0
H2326 H 0.66364 0.63271 0.28248 0.0
H2327 H 0.71463 0.64157 0.32096 0.0
H2328 H 0.75352 0.73101 0.31573 0.0
H2329 H 0.73434 0.70221 0.31844 0.0
H2330 H 0.70936 0.67329 0.26419 0.0
C2331 C 0.66918 0.6217 0.28754 0.0
C2332 C 0.71339 0.64833 0.30845 0.0
C2333 C 0.6578 0.6051 0.2872 0.0
C2334 C 0.75136 0.72046 0.30405 0.0
C2335 C 0.74047 0.70401 0.3056 0.0
C2336 C 0.7107 0.66641 0.27659 0.0
C2337 C 0.68751 0.624 0.2942 0.0
C2338 C 0.69988 0.64127 0.29351 0.0
C2339 C 0.73688 0.69033 0.29041 0.0
C2340 C 0.72421 0.67341 0.2915 0.0
H2341 H 0.68836 0.58181 0.30538 0.0
H2342 H 0.70817 0.61071 0.30597 0.0
H2343 H 0.68852 0.64537 0.26577 0.0
H2344 H 0.76201 0.71145 0.25956 0.0
H2345 H 0.74257 0.68279 0.26207 0.0
C2346 C 0.85023 0.46466 0.8031 0.0
C2347 C 0.86686 0.46779 0.79606 0.0
C2348 C 0.8403 0.4474 0.80136 0.0
C2349 C 0.83355 0.40634 0.76988 0.0
H2350 H 0.80465 0.38713 0.80736 0.0
C2351 C 0.80033 0.33436 0.77714 0.0
C2352 C 0.78289 0.33208 0.78211 0.0
C2353 C 0.80874 0.35098 0.77315 0.0
C2354 C 0.81242 0.39261 0.7967 0.0
H2355 H 0.88699 0.45559 0.78311 0.0
H2356 H 0.86948 0.42516 0.78007 0.0
H2357 H 0.82581 0.41539 0.81559 0.0
H2358 H 0.75992 0.34457 0.786 0.0
H2359 H 0.77514 0.37422 0.78017 0.0
H2360 H 0.82059 0.38295 0.7513 0.0
C2361 C 0.86406 0.43611 0.78661 0.0
C2362 C 0.82459 0.40858 0.80144 0.0
C2363 C 0.87405 0.4534 0.78842 0.0
C2364 C 0.77339 0.34618 0.78196 0.0
C2365 C 0.78195 0.36296 0.77848 0.0
C2366 C 0.82151 0.39019 0.76521 0.0
C2367 C 0.8469 0.43313 0.79253 0.0
C2368 C 0.83516 0.41558 0.78804 0.0
C2369 C 0.79993 0.36554 0.77498 0.0
C2370 C 0.81084 0.38342 0.77857 0.0
H2371 H 0.84461 0.4756 0.80934 0.0
H2372 H 0.82707 0.4454 0.80602 0.0
H2373 H 0.84141 0.4117 0.75924 0.0
H2374 H 0.80815 0.32398 0.77841 0.0
H2375 H 0.82278 0.35293 0.77093 0.0
C2376 C 0.05731 0.85841 0.10146 0.0
C2377 C 0.05162 0.84248 0.089 0.0
C2378 C 0.05614 0.87542 0.09577 0.0
C2379 C 0.03426 0.89839 0.05747 0.0
H2380 H 0.06862 0.9401 0.08098 0.0
C2381 C 0.03411 0.96984 0.03228 0.0
C2382 C 0.04035 0.98539 0.04515 0.0
C2383 C 0.03547 0.95254 0.03721 0.0
C2384 C 0.05863 0.92879 0.07433 0.0
H2385 H 0.04022 0.83252 0.06036 0.0
H2386 H 0.03845 0.86203 0.05029 0.0
H2387 H 0.07101 0.9107 0.0899 0.0
H2388 H 0.05313 0.99432 0.0736 0.0
H2389 H 0.05534 0.9647 0.08217 0.0
H2390 H 0.02182 0.91651 0.04196 0.0
C2391 C 0.04362 0.86142 0.06473 0.0
C2392 C 0.06005 0.91162 0.07953 0.0
C2393 C 0.04477 0.84433 0.07047 0.0
C2394 C 0.04811 0.98288 0.06313 0.0
C2395 C 0.04952 0.96564 0.06805 0.0
C2396 C 0.03281 0.91559 0.05231 0.0
C2397 C 0.04925 0.87742 0.07726 0.0
C2398 C 0.04787 0.89596 0.07129 0.0
C2399 C 0.04327 0.94997 0.05523 0.0
C2400 C 0.04492 0.93127 0.06064 0.0
H2401 H 0.06255 0.85776 0.11589 0.0
H2402 H 0.06037 0.88703 0.10617 0.0
H2403 H 0.02435 0.88701 0.05082 0.0
H2404 H 0.02832 0.97099 0.01822 0.0
H2405 H 0.03067 0.9412 0.0266 0.0
C2406 C 0.93555 0.25422 0.9016 0.0
C2407 C 0.95143 0.26667 0.90083 0.0
C2408 C 0.9191 0.25589 0.89165 0.0
C2409 C 0.89566 0.28948 0.86942 0.0
H2410 H 0.86258 0.24767 0.8439 0.0
C2411 C 0.83331 0.29534 0.81756 0.0
C2412 C 0.81715 0.28304 0.81748 0.0
C2413 C 0.84925 0.2934 0.8282 0.0
C2414 C 0.8715 0.25952 0.85112 0.0
H2415 H 0.96211 0.29087 0.88911 0.0
H2416 H 0.93363 0.29404 0.87229 0.0
H2417 H 0.89068 0.24413 0.86132 0.0
H2418 H 0.80536 0.25887 0.82854 0.0
H2419 H 0.83315 0.2552 0.84672 0.0
H2420 H 0.87654 0.30489 0.85921 0.0
C2421 C 0.93379 0.28283 0.8804 0.0
C2422 C 0.88773 0.25748 0.86118 0.0
C2423 C 0.95026 0.28092 0.88997 0.0
C2424 C 0.81747 0.26868 0.82834 0.0
C2425 C 0.83352 0.26651 0.83867 0.0
C2426 C 0.87945 0.29152 0.85937 0.0
C2427 C 0.91786 0.27033 0.88096 0.0
C2428 C 0.90019 0.27242 0.87047 0.0
C2429 C 0.84974 0.27886 0.83886 0.0
C2430 C 0.86704 0.2766 0.84995 0.0
H2431 H 0.93588 0.24306 0.90977 0.0
H2432 H 0.90724 0.246 0.89264 0.0
H2433 H 0.90459 0.30136 0.87658 0.0
H2434 H 0.83362 0.30662 0.80946 0.0
H2435 H 0.86132 0.30318 0.82774 0.0
C2436 C 0.53586 0.22223 0.59928 0.0
C2437 C 0.54448 0.23504 0.58862 0.0
C2438 C 0.53409 0.20365 0.594 0.0
C2439 C 0.53962 0.16888 0.5539 0.0
H2440 H 0.53502 0.13738 0.59299 0.0
C2441 C 0.54048 0.09154 0.53907 0.0
C2442 C 0.52999 0.07945 0.54913 0.0
C2443 C 0.54248 0.11034 0.54348 0.0
C2444 C 0.53607 0.14581 0.58172 0.0
H2445 H 0.55793 0.23773 0.56361 0.0
H2446 H 0.5553 0.2055 0.55455 0.0
H2447 H 0.53816 0.1694 0.60109 0.0
H2448 H 0.51305 0.07836 0.57171 0.0
H2449 H 0.51621 0.11064 0.57909 0.0
H2450 H 0.5379 0.14505 0.53463 0.0
C2451 C 0.54952 0.20974 0.56699 0.0
C2452 C 0.53783 0.1645 0.58641 0.0
C2453 C 0.55117 0.22844 0.57225 0.0
C2454 C 0.52143 0.08698 0.56366 0.0
C2455 C 0.52336 0.10572 0.56802 0.0
C2456 C 0.53801 0.15014 0.54924 0.0
C2457 C 0.54105 0.19684 0.57784 0.0
C2458 C 0.53951 0.17657 0.57263 0.0
C2459 C 0.53397 0.11788 0.5581 0.0
C2460 C 0.53608 0.13815 0.56303 0.0
H2461 H 0.53042 0.22656 0.61195 0.0
H2462 H 0.52702 0.19467 0.60271 0.0
H2463 H 0.5406 0.17725 0.5426 0.0
H2464 H 0.54711 0.08654 0.52761 0.0
H2465 H 0.55091 0.11896 0.53549 0.0
C2466 C 0.56676 0.77755 0.41561 0.0
C2467 C 0.55027 0.76794 0.40632 0.0
C2468 C 0.58275 0.77773 0.40734 0.0
C2469 C 0.60329 0.75415 0.36887 0.0
H2470 H 0.63869 0.79817 0.37673 0.0
C2471 C 0.66394 0.76937 0.32457 0.0
C2472 C 0.67981 0.78055 0.33347 0.0
C2473 C 0.64889 0.76525 0.33441 0.0
C2474 C 0.62914 0.78563 0.37457 0.0
H2475 H 0.53784 0.75076 0.38099 0.0
H2476 H 0.56559 0.75121 0.36645 0.0
H2477 H 0.6112 0.79663 0.39142 0.0
H2478 H 0.69256 0.79539 0.35993 0.0
H2479 H 0.66673 0.78784 0.3772 0.0
H2480 H 0.62125 0.74337 0.35158 0.0
C2481 C 0.56628 0.75851 0.38027 0.0
C2482 C 0.61324 0.78473 0.38307 0.0
C2483 C 0.55026 0.75837 0.38855 0.0
C2484 C 0.68067 0.78646 0.35275 0.0
C2485 C 0.66568 0.7824 0.36256 0.0
C2486 C 0.61922 0.75509 0.36026 0.0
C2487 C 0.58283 0.76829 0.38947 0.0
C2488 C 0.59998 0.769 0.3804 0.0
C2489 C 0.64928 0.77238 0.35336 0.0
C2490 C 0.63244 0.77085 0.36299 0.0
H2491 H 0.56735 0.78501 0.42935 0.0
H2492 H 0.59512 0.78517 0.41514 0.0
H2493 H 0.59364 0.74168 0.36661 0.0
H2494 H 0.66267 0.76501 0.30962 0.0
H2495 H 0.63656 0.75753 0.32677 0.0
C2496 C 0.04227 0.25985 0.40961 0.0
C2497 C 0.04097 0.25878 0.38985 0.0
C2498 C 0.04192 0.24435 0.41881 0.0
C2499 C 0.0479 0.1965 0.41145 0.0
H2500 H 0.02197 0.19142 0.455 0.0
C2501 C 0.02706 0.12814 0.44002 0.0
C2502 C 0.02617 0.12761 0.45942 0.0
C2503 C 0.03142 0.14449 0.43261 0.0
C2504 C 0.02955 0.19268 0.44306 0.0
H2505 H 0.03841 0.24043 0.36434 0.0
H2506 H 0.03774 0.21356 0.38024 0.0
H2507 H 0.02402 0.21889 0.43999 0.0
H2508 H 0.02984 0.14391 0.48636 0.0
H2509 H 0.03756 0.1726 0.47348 0.0
H2510 H 0.05317 0.17015 0.41435 0.0
C2511 C 0.03919 0.22635 0.38875 0.0
C2512 C 0.03071 0.20851 0.43438 0.0
C2513 C 0.03943 0.24181 0.37957 0.0
C2514 C 0.03056 0.14385 0.47137 0.0
C2515 C 0.03475 0.16031 0.46392 0.0
C2516 C 0.04671 0.18066 0.42012 0.0
C2517 C 0.04038 0.22732 0.40854 0.0
C2518 C 0.03976 0.21065 0.41831 0.0
C2519 C 0.03484 0.1609 0.44434 0.0
C2520 C 0.03736 0.1784 0.43596 0.0
H2521 H 0.04348 0.27268 0.418 0.0
H2522 H 0.04307 0.24579 0.43404 0.0
H2523 H 0.05529 0.19766 0.39937 0.0
H2524 H 0.02368 0.11585 0.43044 0.0
H2525 H 0.0312 0.14425 0.4175 0.0
C2526 C 0.58399 0.25383 0.19448 0.0
C2527 C 0.57252 0.26096 0.20616 0.0
C2528 C 0.60266 0.25636 0.19973 0.0
C2529 C 0.64101 0.28335 0.23506 0.0
H2530 H 0.66707 0.24905 0.21298 0.0
C2531 C 0.72012 0.29558 0.24658 0.0
C2532 C 0.72906 0.28088 0.24556 0.0
C2533 C 0.70127 0.29326 0.24232 0.0
C2534 C 0.66022 0.25877 0.21962 0.0
H2535 H 0.57235 0.27658 0.23291 0.0
H2536 H 0.60473 0.28061 0.24241 0.0
H2537 H 0.63489 0.24448 0.2058 0.0
H2538 H 0.72445 0.25215 0.23851 0.0
H2539 H 0.69204 0.24788 0.23214 0.0
H2540 H 0.66638 0.29716 0.24962 0.0
C2541 C 0.59936 0.27321 0.22885 0.0
C2542 C 0.64141 0.2563 0.21513 0.0
C2543 C 0.58056 0.27075 0.22348 0.0
C2544 C 0.71831 0.2638 0.23999 0.0
C2545 C 0.69946 0.26142 0.23592 0.0
C2546 C 0.65984 0.28571 0.23975 0.0
C2547 C 0.61091 0.26605 0.21708 0.0
C2548 C 0.63127 0.26859 0.22257 0.0
C2549 C 0.6904 0.2761 0.23689 0.0
C2550 C 0.66997 0.27352 0.23208 0.0
H2551 H 0.57854 0.24633 0.18096 0.0
H2552 H 0.6106 0.25089 0.18978 0.0
H2553 H 0.63418 0.29338 0.24115 0.0
H2554 H 0.72771 0.30903 0.25068 0.0
H2555 H 0.69531 0.30512 0.24303 0.0
C2556 C 0.54413 0.858 0.91253 0.0
C2557 C 0.54227 0.85569 0.89272 0.0
C2558 C 0.54238 0.87427 0.92262 0.0
C2559 C 0.52662 0.91824 0.91618 0.0
H2560 H 0.55008 0.93137 0.96707 0.0
C2561 C 0.51619 0.98313 0.96098 0.0
C2562 C 0.52909 0.99132 0.97606 0.0
C2563 C 0.51754 0.96669 0.95096 0.0
C2564 C 0.5436 0.92831 0.95277 0.0
H2565 H 0.53716 0.86906 0.86809 0.0
H2566 H 0.53478 0.8974 0.88537 0.0
H2567 H 0.5537 0.90393 0.94956 0.0
H2568 H 0.55354 0.98859 0.99242 0.0
H2569 H 0.55671 0.96086 0.97449 0.0
H2570 H 0.51748 0.94316 0.91891 0.0
C2571 C 0.53716 0.8866 0.89338 0.0
C2572 C 0.5454 0.91206 0.94269 0.0
C2573 C 0.53876 0.87027 0.88333 0.0
C2574 C 0.54343 0.9827 0.98079 0.0
C2575 C 0.54505 0.9665 0.97052 0.0
C2576 C 0.52515 0.93469 0.9261 0.0
C2577 C 0.53884 0.88899 0.91329 0.0
C2578 C 0.53692 0.90659 0.92416 0.0
C2579 C 0.53205 0.95795 0.95545 0.0
C2580 C 0.5336 0.94015 0.94467 0.0
H2581 H 0.54673 0.84709 0.92032 0.0
H2582 H 0.5435 0.87506 0.93781 0.0
H2583 H 0.51945 0.9147 0.9022 0.0
H2584 H 0.50466 0.98911 0.95734 0.0
H2585 H 0.50686 0.96071 0.93998 0.0
C2586 C 0.96342 0.75662 0.72387 0.0
C2587 C 0.96599 0.7541 0.70468 0.0
C2588 C 0.94615 0.75722 0.72948 0.0
C2589 C 0.89623 0.74679 0.71042 0.0
H2590 H 0.89113 0.77388 0.75727 0.0
C2591 C 0.82485 0.74596 0.73573 0.0
C2592 C 0.82184 0.76051 0.74791 0.0
C2593 C 0.84222 0.74489 0.7308 0.0
C2594 C 0.89203 0.76637 0.74395 0.0
H2595 H 0.95189 0.75031 0.6765 0.0
H2596 H 0.92246 0.75158 0.68601 0.0
H2597 H 0.92082 0.77313 0.74819 0.0
H2598 H 0.83562 0.78512 0.76457 0.0
H2599 H 0.86509 0.78387 0.75553 0.0
H2600 H 0.86751 0.74068 0.70569 0.0
C2601 C 0.93351 0.75277 0.69698 0.0
C2602 C 0.9094 0.76568 0.73884 0.0
C2603 C 0.95066 0.75219 0.69142 0.0
C2604 C 0.83699 0.77382 0.75497 0.0
C2605 C 0.85426 0.77289 0.74992 0.0
C2606 C 0.87888 0.74764 0.71542 0.0
C2607 C 0.93073 0.75527 0.71614 0.0
C2608 C 0.91197 0.75588 0.72192 0.0
C2609 C 0.85742 0.75839 0.73772 0.0
C2610 C 0.87627 0.75743 0.73233 0.0
H2611 H 0.97478 0.75826 0.73458 0.0
H2612 H 0.94495 0.75901 0.74439 0.0
H2613 H 0.89716 0.73875 0.69744 0.0
H2614 H 0.81373 0.73534 0.72988 0.0
H2615 H 0.84364 0.73324 0.72166 0.0
C2616 C 0.11662 0.02715 0.85082 0.0
C2617 C 0.10983 0.03736 0.83753 0.0
C2618 C 0.11085 0.02717 0.86874 0.0
C2619 C 0.08944 0.0534 0.90326 0.0
H2620 H 0.08065 0.00887 0.92562 0.0
C2621 C 0.05319 0.04643 0.97009 0.0
C2622 C 0.05914 0.03589 0.98352 0.0
C2623 C 0.06029 0.04708 0.95287 0.0
C2624 C 0.08329 0.02148 0.91973 0.0
H2625 H 0.09171 0.05574 0.83279 0.0
H2626 H 0.08157 0.05581 0.86413 0.0
H2627 H 0.09072 0.00901 0.89443 0.0
H2628 H 0.0774 0.01788 0.98939 0.0
H2629 H 0.08978 0.01889 0.95917 0.0
H2630 H 0.08191 0.06585 0.92854 0.0
C2631 C 0.09143 0.04779 0.86068 0.0
C2632 C 0.08904 0.02156 0.90178 0.0
C2633 C 0.09712 0.04764 0.84265 0.0
C2634 C 0.07253 0.02612 0.97935 0.0
C2635 C 0.07953 0.02663 0.96198 0.0
C2636 C 0.08368 0.05332 0.92122 0.0
C2637 C 0.0982 0.03751 0.87399 0.0
C2638 C 0.09213 0.0375 0.89322 0.0
C2639 C 0.07346 0.03709 0.94847 0.0
C2640 C 0.08042 0.03734 0.92968 0.0
H2641 H 0.1265 0.01913 0.8474 0.0
H2642 H 0.11656 0.01928 0.87862 0.0
H2643 H 0.09199 0.06599 0.89732 0.0
H2644 H 0.04297 0.05423 0.97285 0.0
H2645 H 0.05512 0.05514 0.94282 0.0
C2646 C 0.78391 0.40871 0.56717 0.0
C2647 C 0.78454 0.39762 0.55058 0.0
C2648 C 0.78271 0.40139 0.5841 0.0
C2649 C 0.79304 0.36354 0.60692 0.0
H2650 H 0.75832 0.37397 0.64051 0.0
C2651 C 0.78912 0.32888 0.67091 0.0
C2652 C 0.79619 0.34167 0.68635 0.0
C2653 C 0.78134 0.33422 0.65464 0.0
C2654 C 0.76788 0.37087 0.63107 0.0
H2655 H 0.78501 0.37059 0.53845 0.0
H2656 H 0.78306 0.35783 0.56807 0.0
H2657 H 0.75965 0.38765 0.61094 0.0
H2658 H 0.79865 0.36921 0.69839 0.0
H2659 H 0.78507 0.37873 0.66966 0.0
H2660 H 0.8015 0.34704 0.62692 0.0
C2661 C 0.78332 0.37206 0.56799 0.0
C2662 C 0.76879 0.37878 0.6144 0.0
C2663 C 0.78433 0.37931 0.55109 0.0
C2664 C 0.79357 0.35935 0.68631 0.0
C2665 C 0.78559 0.36467 0.67008 0.0
C2666 C 0.79201 0.35555 0.62336 0.0
C2667 C 0.78238 0.38301 0.58456 0.0
C2668 C 0.78141 0.37513 0.60228 0.0
C2669 C 0.78055 0.35236 0.65383 0.0
C2670 C 0.77945 0.35915 0.63552 0.0
H2671 H 0.78411 0.42292 0.56699 0.0
H2672 H 0.78224 0.41008 0.59683 0.0
H2673 H 0.80313 0.36087 0.59797 0.0
H2674 H 0.79086 0.31509 0.67095 0.0
H2675 H 0.77746 0.32458 0.64217 0.0
C2676 C 0.40626 0.02621 0.36323 0.0
C2677 C 0.41469 0.01986 0.34815 0.0
C2678 C 0.41195 0.02344 0.38142 0.0
C2679 C 0.43902 0.9995 0.41058 0.0
H2680 H 0.45685 0.04657 0.4383 0.0
C2681 C 0.49607 0.01311 0.47069 0.0
C2682 C 0.4947 0.02531 0.48616 0.0
C2683 C 0.4835 0.01058 0.45491 0.0
C2684 C 0.45158 0.03329 0.43101 0.0
H2685 H 0.43469 0.00466 0.33977 0.0
H2686 H 0.4451 1.00028 0.37192 0.0
H2687 H 0.43775 0.04386 0.40886 0.0
H2688 H 0.47946 0.04457 0.49734 0.0
H2689 H 0.45727 0.0398 0.46996 0.0
H2690 H 0.45325 0.98901 0.43272 0.0
C2691 C 0.43399 0.0072 0.36955 0.0
C2692 C 0.44066 0.03176 0.41421 0.0
C2693 C 0.42834 0.01004 0.35131 0.0
C2694 C 0.48086 0.03516 0.48553 0.0
C2695 C 0.46815 0.03242 0.46991 0.0
C2696 C 0.4498 1.00101 0.42763 0.0
C2697 C 0.42609 0.01427 0.38466 0.0
C2698 C 0.4347 0.01495 0.40373 0.0
C2699 C 0.46937 0.0201 0.45452 0.0
C2700 C 0.45648 0.01799 0.43768 0.0
H2701 H 0.39545 0.03354 0.36103 0.0
H2702 H 0.40579 0.029 0.39303 0.0
H2703 H 0.43448 0.98645 0.40253 0.0
H2704 H 0.50653 0.00519 0.47094 0.0
H2705 H 0.48489 1.00128 0.443 0.0
C2706 C 0.77982 0.69096 0.08125 0.0
C2707 C 0.77431 0.70032 0.06647 0.0
C2708 C 0.78077 0.69818 0.10011 0.0
C2709 C 0.76324 0.73111 0.13127 0.0
H2710 H 0.80247 0.72552 0.16734 0.0
C2711 C 0.77166 0.76358 0.20949 0.0
C2712 C 0.77875 0.75425 0.22348 0.0
C2713 C 0.77117 0.75753 0.19027 0.0
C2714 C 0.79123 0.72702 0.1576 0.0
H2715 H 0.76559 0.72477 0.06008 0.0
H2716 H 0.76723 0.73744 0.09305 0.0
H2717 H 0.80168 0.71419 0.13437 0.0
H2718 H 0.79069 0.73098 0.22792 0.0
H2719 H 0.7895 0.72037 0.19484 0.0
H2720 H 0.75258 0.74364 0.15453 0.0
C2721 C 0.77071 0.72439 0.09002 0.0
C2722 C 0.79083 0.72053 0.13857 0.0
C2723 C 0.76987 0.71719 0.07109 0.0
C2724 C 0.78519 0.73864 0.21766 0.0
C2725 C 0.78464 0.73259 0.19853 0.0
C2726 C 0.76356 0.73749 0.15036 0.0
C2727 C 0.77614 0.71497 0.10483 0.0
C2728 C 0.7768 0.72241 0.1251 0.0
C2729 C 0.77774 0.74196 0.18444 0.0
C2730 C 0.77752 0.73549 0.16389 0.0
H2731 H 0.78329 0.6779 0.07827 0.0
H2732 H 0.78479 0.69039 0.11103 0.0
H2733 H 0.75208 0.73261 0.12142 0.0
H2734 H 0.76673 0.77571 0.21334 0.0
H2735 H 0.76593 0.76531 0.17998 0.0
C2736 C 0.11904 0.04062 0.71564 0.0
C2737 C 0.10787 0.03436 0.729 0.0
C2738 C 0.11255 0.03902 0.69654 0.0
C2739 C 0.07359 0.01652 0.66073 0.0
H2740 H 0.09542 0.05252 0.6313 0.0
C2741 C 0.05169 0.01228 0.5801 0.0
C2742 C 0.05333 0.02823 0.57155 0.0
C2743 C 0.05881 0.01235 0.59891 0.0
C2744 C 0.0888 0.04244 0.63917 0.0
H2745 H 0.081 0.0213 0.73254 0.0
H2746 H 0.06935 0.01907 0.69927 0.0
H2747 H 0.10547 0.05447 0.66433 0.0
H2748 H 0.06463 0.05651 0.57607 0.0
H2749 H 0.07531 0.05719 0.60887 0.0
H2750 H 0.05601 0.00524 0.63581 0.0
C2751 C 0.08334 0.02492 0.70346 0.0
C2752 C 0.09495 0.04334 0.65832 0.0
C2753 C 0.08996 0.02634 0.72266 0.0
C2754 C 0.06256 0.04412 0.58224 0.0
C2755 C 0.06914 0.04435 0.60117 0.0
C2756 C 0.06711 0.01586 0.64162 0.0
C2757 C 0.09453 0.03135 0.69004 0.0
C2758 C 0.08757 0.03036 0.66949 0.0
C2759 C 0.06745 0.02847 0.60996 0.0
C2760 C 0.07457 0.02884 0.63042 0.0
H2761 H 0.13298 0.04672 0.71992 0.0
H2762 H 0.12189 0.0437 0.68687 0.0
H2763 H 0.06764 0.00604 0.66856 0.0
H2764 H 0.04496 0.99966 0.57224 0.0
H2765 H 0.05757 0.99967 0.60466 0.0
C2766 C 0.79423 0.37642 0.44708 0.0
C2767 C 0.78733 0.39224 0.44834 0.0
C2768 C 0.79703 0.36862 0.4297 0.0
C2769 C 0.79857 0.37479 0.37989 0.0
H2770 H 0.77595 0.32446 0.37297 0.0
C2771 C 0.77321 0.32898 0.30966 0.0
C2772 C 0.78161 0.31405 0.30797 0.0
C2773 C 0.77603 0.34022 0.32648 0.0
C2774 C 0.78237 0.33848 0.37486 0.0
H2775 H 0.77892 0.41305 0.43299 0.0
H2776 H 0.78296 0.39878 0.40227 0.0
H2777 H 0.77849 0.3415 0.40377 0.0
H2778 H 0.79994 0.29943 0.32222 0.0
H2779 H 0.80389 0.31854 0.35188 0.0
H2780 H 0.80178 0.37158 0.3505 0.0
C2781 C 0.78652 0.39266 0.41474 0.0
C2782 C 0.78399 0.34815 0.39238 0.0
C2783 C 0.78392 0.4006 0.43219 0.0
C2784 C 0.79281 0.31049 0.32327 0.0
C2785 C 0.79537 0.32153 0.34009 0.0
C2786 C 0.79678 0.36507 0.3622 0.0
C2787 C 0.79265 0.37639 0.41341 0.0
C2788 C 0.79215 0.36632 0.39503 0.0
C2789 C 0.78702 0.33638 0.34168 0.0
C2790 C 0.78872 0.34692 0.35979 0.0
H2791 H 0.79744 0.37007 0.45949 0.0
H2792 H 0.80208 0.35619 0.4289 0.0
H2793 H 0.80489 0.38883 0.38176 0.0
H2794 H 0.76468 0.33209 0.29796 0.0
H2795 H 0.7694 0.35164 0.32778 0.0
C2796 C 0.42723 0.03482 0.24175 0.0
C2797 C 0.41073 0.02402 0.24355 0.0
C2798 C 0.43261 0.0367 0.22396 0.0
C2799 C 0.42508 0.01289 0.17653 0.0
H2800 H 0.45226 0.05717 0.16368 0.0
C2801 C 0.45636 0.01183 0.10929 0.0
C2802 C 0.475 0.01513 0.11406 0.0
C2803 C 0.44548 0.01799 0.12193 0.0
C2804 C 0.44439 0.04485 0.16703 0.0
H2805 H 0.3868 0.00683 0.22845 0.0
H2806 H 0.39607 0.01028 0.19748 0.0
H2807 H 0.43891 0.05711 0.19337 0.0
H2808 H 0.49726 0.02893 0.1342 0.0
H2809 H 0.4782 0.03979 0.15647 0.0
H2810 H 0.43098 1.00048 0.15064 0.0
C2811 C 0.40495 0.01716 0.2097 0.0
C2812 C 0.43697 0.04474 0.18401 0.0
C2813 C 0.39964 0.01521 0.22742 0.0
C2814 C 0.48283 0.02608 0.13058 0.0
C2815 C 0.47197 0.03247 0.1431 0.0
C2816 C 0.43227 0.01305 0.15954 0.0
C2817 C 0.42152 0.02782 0.2078 0.0
C2818 C 0.42766 0.02864 0.18908 0.0
C2819 C 0.45324 0.02764 0.13927 0.0
C2820 C 0.44237 0.0289 0.1549 0.0
H2821 H 0.43596 0.04177 0.25404 0.0
H2822 H 0.44561 0.04476 0.22288 0.0
H2823 H 0.41831 1.0002 0.18023 0.0
H2824 H 0.45021 0.00351 0.09642 0.0
H2825 H 0.43103 0.01415 0.11879 0.0
C2826 C 0.77094 0.71286 0.95518 0.0
C2827 C 0.77107 0.69483 0.95756 0.0
C2828 C 0.77113 0.71867 0.93721 0.0
C2829 C 0.7642 0.70136 0.8855 0.0
H2830 H 0.78834 0.74954 0.8806 0.0
C2831 C 0.77849 0.72772 0.81323 0.0
C2832 C 0.77421 0.74464 0.81097 0.0
C2833 C 0.77808 0.72099 0.8308 0.0
C2834 C 0.7815 0.73604 0.88172 0.0
H2835 H 0.77165 0.66881 0.94285 0.0
H2836 H 0.77267 0.67893 0.91188 0.0
H2837 H 0.78765 0.73946 0.91167 0.0
H2838 H 0.76494 0.76707 0.82543 0.0
H2839 H 0.76508 0.75579 0.85573 0.0
H2840 H 0.75847 0.69799 0.85534 0.0
C2841 C 0.77189 0.68861 0.92367 0.0
C2842 C 0.78096 0.73026 0.89963 0.0
C2843 C 0.77148 0.6828 0.94156 0.0
C2844 C 0.76911 0.75435 0.82662 0.0
C2845 C 0.76903 0.74783 0.8441 0.0
C2846 C 0.76498 0.70708 0.86755 0.0
C2847 C 0.77168 0.70665 0.92113 0.0
C2848 C 0.77223 0.71284 0.90188 0.0
C2849 C 0.77359 0.73112 0.84651 0.0
C2850 C 0.77354 0.72454 0.86545 0.0
H2851 H 0.77048 0.72246 0.96717 0.0
H2852 H 0.77061 0.73259 0.93596 0.0
H2853 H 0.75701 0.68798 0.88649 0.0
H2854 H 0.78219 0.71973 0.80148 0.0
H2855 H 0.78158 0.708 0.83219 0.0
C2856 C 0.82809 0.1183 0.05066 0.0
C2857 C 0.81223 0.10535 0.04848 0.0
C2858 C 0.84468 0.11313 0.0519 0.0
C2859 C 0.86492 0.07516 0.03742 0.0
H2860 H 0.90715 0.10307 0.06825 0.0
C2861 C 0.93213 0.05716 0.02893 0.0
C2862 C 0.94355 0.07134 0.0226 0.0
C2863 C 0.91783 0.06052 0.03847 0.0
C2864 C 0.8954 0.09509 0.05976 0.0
H2865 H 0.8011 0.07698 0.04642 0.0
H2866 H 0.83028 0.06784 0.04875 0.0
H2867 H 0.87756 0.11022 0.07222 0.0
H2868 H 0.95044 0.10019 0.02322 0.0
H2869 H 0.92514 0.10607 0.03967 0.0
H2870 H 0.88266 0.0604 0.02456 0.0
C2871 C 0.82982 0.08198 0.0493 0.0
C2872 C 0.87856 0.0992 0.06192 0.0
C2873 C 0.81317 0.08717 0.048 0.0
C2874 C 0.94157 0.08905 0.02767 0.0
C2875 C 0.92726 0.09241 0.03726 0.0
C2876 C 0.88166 0.07097 0.0354 0.0
C2877 C 0.8457 0.09492 0.05106 0.0
C2878 C 0.86323 0.08944 0.05051 0.0
C2879 C 0.91476 0.07807 0.04178 0.0
C2880 C 0.89706 0.08105 0.04633 0.0
H2881 H 0.82772 0.13246 0.05113 0.0
H2882 H 0.85666 0.12338 0.05291 0.0
H2883 H 0.85343 0.06772 0.0281 0.0
H2884 H 0.93334 0.04336 0.02523 0.0
H2885 H 0.9084 0.0493 0.04202 0.0
C2886 C 0.34624 0.43649 0.02743 0.0
C2887 C 0.34397 0.42033 0.03552 0.0
C2888 C 0.36341 0.44584 0.02567 0.0
C2889 C 0.41163 0.44086 0.0278 0.0
H2890 H 0.41975 0.49276 0.03166 0.0
C2891 C 0.48265 0.48498 0.03538 0.0
C2892 C 0.48517 0.49965 0.02482 0.0
C2893 C 0.46548 0.47516 0.03623 0.0
C2894 C 0.41768 0.47826 0.03036 0.0
H2895 H 0.35798 0.40136 0.04824 0.0
H2896 H 0.38796 0.41803 0.046 0.0
H2897 H 0.39008 0.47606 0.03451 0.0
H2898 H 0.47149 0.51515 0.00649 0.0
H2899 H 0.44144 0.49823 0.00831 0.0
H2900 H 0.43952 0.44326 0.02422 0.0
C2901 C 0.37651 0.4233 0.04046 0.0
C2902 C 0.40058 0.46861 0.03193 0.0
C2903 C 0.35929 0.4138 0.04194 0.0
C2904 C 0.47003 0.50427 0.01516 0.0
C2905 C 0.4528 0.49449 0.01611 0.0
C2906 C 0.4288 0.45055 0.02648 0.0
C2907 C 0.37886 0.43948 0.03225 0.0
C2908 C 0.39724 0.44974 0.03063 0.0
C2909 C 0.45033 0.47978 0.02661 0.0
C2910 C 0.43203 0.46938 0.02772 0.0
H2911 H 0.3347 0.44177 0.02212 0.0
H2912 H 0.3645 0.45796 0.01885 0.0
H2913 H 0.40965 0.42637 0.02635 0.0
H2914 H 0.49399 0.48098 0.04297 0.0
H2915 H 0.46405 0.46406 0.04462 0.0
C2916 C 0.37814 0.56046 0.74749 0.0
C2917 C 0.39467 0.56051 0.75802 0.0
C2918 C 0.37132 0.57633 0.74694 0.0
C2919 C 0.37581 0.62119 0.77393 0.0
H2920 H 0.34933 0.63243 0.72919 0.0
C2921 C 0.35114 0.6872 0.77573 0.0
C2922 C 0.33268 0.6854 0.77024 0.0
C2923 C 0.36013 0.67339 0.77057 0.0
C2924 C 0.35671 0.62945 0.74177 0.0
H2925 H 0.41718 0.5773 0.77588 0.0
H2926 H 0.40554 0.6048 0.7747 0.0
H2927 H 0.36193 0.60502 0.72796 0.0
H2928 H 0.30939 0.66853 0.75397 0.0
H2929 H 0.32512 0.64429 0.74476 0.0
H2930 H 0.37056 0.64541 0.78781 0.0
C2931 C 0.39758 0.59254 0.76715 0.0
C2932 C 0.36384 0.61371 0.74112 0.0
C2933 C 0.40433 0.57675 0.76775 0.0
C2934 C 0.3237 0.6703 0.75808 0.0
C2935 C 0.3327 0.65641 0.75293 0.0
C2936 C 0.36883 0.6369 0.77454 0.0
C2937 C 0.38091 0.59256 0.75691 0.0
C2938 C 0.37344 0.60936 0.75723 0.0
C2939 C 0.35079 0.65743 0.75996 0.0
C2940 C 0.35916 0.64124 0.75851 0.0
H2941 H 0.37043 0.54816 0.73978 0.0
H2942 H 0.35836 0.57579 0.73904 0.0
H2943 H 0.38274 0.61814 0.78675 0.0
H2944 H 0.35829 0.69868 0.78526 0.0
H2945 H 0.37415 0.67473 0.77591 0.0
C2946 C 0.20274 0.58547 0.52268 0.0
C2947 C 0.21022 0.59824 0.53803 0.0
C2948 C 0.18418 0.58155 0.51792 0.0
C2949 C 0.1421 0.58579 0.53705 0.0
H2950 H 0.12284 0.58361 0.48466 0.0
C2951 C 0.069 0.57443 0.52159 0.0
C2952 C 0.06362 0.55744 0.51146 0.0
C2953 C 0.08576 0.58441 0.51996 0.0
C2954 C 0.12818 0.5845 0.49933 0.0
H2955 H 0.20455 0.61616 0.56111 0.0
H2956 H 0.17245 0.60954 0.55273 0.0
H2957 H 0.15543 0.58842 0.49322 0.0
H2958 H 0.06987 0.53793 0.49048 0.0
H2959 H 0.09959 0.55512 0.48803 0.0
H2960 H 0.11512 0.58164 0.54328 0.0
C2961 C 0.18066 0.60243 0.54441 0.0
C2962 C 0.14666 0.58693 0.50418 0.0
C2963 C 0.19904 0.60624 0.54918 0.0
C2964 C 0.07404 0.55115 0.4983 0.0
C2965 C 0.09087 0.56106 0.49675 0.0
C2966 C 0.12378 0.5836 0.53226 0.0
C2967 C 0.1731 0.59036 0.52854 0.0
C2968 C 0.15369 0.58743 0.52308 0.0
C2969 C 0.09728 0.57709 0.50863 0.0
C2970 C 0.11667 0.58281 0.51338 0.0
H2971 H 0.21121 0.57929 0.51384 0.0
H2972 H 0.17853 0.57197 0.50578 0.0
H2973 H 0.14717 0.58582 0.55167 0.0
H2974 H 0.06093 0.57931 0.53182 0.0
H2975 H 0.09052 0.59682 0.52915 0.0
C2976 C 0.71539 0.99216 0.74225 0.0
C2977 C 0.70047 0.99542 0.75106 0.0
C2978 C 0.71871 0.97475 0.73968 0.0
C2979 C 0.71146 0.93545 0.76308 0.0
H2980 H 0.72167 0.90861 0.71798 0.0
C2981 C 0.72181 0.86862 0.77103 0.0
C2982 C 0.74016 0.86908 0.77062 0.0
C2983 C 0.71329 0.87946 0.76026 0.0
C2984 C 0.71856 0.916 0.73049 0.0
H2985 H 0.67698 0.98336 0.76347 0.0
H2986 H 0.68277 0.95328 0.75892 0.0
H2987 H 0.71537 0.93913 0.71661 0.0
H2988 H 0.76362 0.87865 0.75711 0.0
H2989 H 0.74898 0.8988 0.73921 0.0
H2990 H 0.71487 0.91298 0.77719 0.0
C2991 C 0.69193 0.96402 0.75415 0.0
C2992 C 0.71523 0.93334 0.72979 0.0
C2993 C 0.68873 0.98123 0.75685 0.0
C2994 C 0.74947 0.87861 0.75776 0.0
C2995 C 0.74104 0.88977 0.74727 0.0
C2996 C 0.71456 0.91829 0.76374 0.0
C2997 C 0.70709 0.96073 0.74592 0.0
C2998 C 0.71152 0.94298 0.74611 0.0
C2999 C 0.72333 0.89124 0.74969 0.0
C3000 C 0.71795 0.90837 0.74746 0.0
H3001 H 0.72437 0.00295 0.73738 0.0
H3002 H 0.73054 0.97234 0.7334 0.0
H3003 H 0.70909 0.94291 0.77592 0.0
H3004 H 0.71444 0.86088 0.7806 0.0
H3005 H 0.69954 0.88041 0.76213 0.0
C3006 C 0.72934 0.90245 0.52731 0.0
C3007 C 0.74578 0.91258 0.53605 0.0
C3008 C 0.71355 0.90923 0.5279 0.0
C3009 C 0.69319 0.94452 0.55251 0.0
H3010 H 0.66004 0.93524 0.5067 0.0
C3011 C 0.63608 0.98377 0.53428 0.0
C3012 C 0.62061 0.97419 0.52307 0.0
C3013 C 0.65017 0.97509 0.53966 0.0
C3014 C 0.66897 0.9377 0.51975 0.0
H3015 H 0.75852 0.93772 0.55252 0.0
H3016 H 0.73093 0.9498 0.55321 0.0
H3017 H 0.68724 0.9229 0.50788 0.0
H3018 H 0.60697 0.94799 0.50996 0.0
H3019 H 0.63127 0.9327 0.51972 0.0
H3020 H 0.67495 0.95991 0.56405 0.0
C3021 C 0.73021 0.93647 0.54612 0.0
C3022 C 0.68462 0.93062 0.52042 0.0
C3023 C 0.74605 0.92962 0.54558 0.0
C3024 C 0.61873 0.95559 0.51876 0.0
C3025 C 0.63274 0.94692 0.52414 0.0
C3026 C 0.6775 0.95175 0.55178 0.0
C3027 C 0.71376 0.9264 0.53715 0.0
C3028 C 0.69697 0.9339 0.53679 0.0
C3029 C 0.64898 0.95673 0.53379 0.0
C3030 C 0.66519 0.94838 0.53537 0.0
H3031 H 0.72866 0.88921 0.51998 0.0
H3032 H 0.70112 0.90094 0.52112 0.0
H3033 H 0.7023 0.94717 0.56542 0.0
H3034 H 0.63792 0.99819 0.53747 0.0
H3035 H 0.66252 0.98303 0.54705 0.0
C3036 C 0.37175 0.46012 0.76823 0.0
C3037 C 0.38789 0.46287 0.76007 0.0
C3038 C 0.36278 0.44273 0.76981 0.0
C3039 C 0.35803 0.39546 0.74983 0.0
H3040 H 0.33862 0.38524 0.79633 0.0
C3041 C 0.32493 0.3234 0.76136 0.0
C3042 C 0.31022 0.32141 0.77188 0.0
C3043 C 0.33503 0.3404 0.76017 0.0
C3044 C 0.34369 0.38785 0.78311 0.0
H3045 H 0.40718 0.4495 0.74702 0.0
H3046 H 0.39145 0.41919 0.74961 0.0
H3047 H 0.35461 0.41528 0.79355 0.0
H3048 H 0.29485 0.33593 0.78963 0.0
H3049 H 0.31164 0.36544 0.78667 0.0
H3050 H 0.34681 0.36821 0.73917 0.0
C3051 C 0.38569 0.43046 0.75475 0.0
C3052 C 0.35293 0.40512 0.78157 0.0
C3053 C 0.39474 0.44784 0.75332 0.0
C3054 C 0.30584 0.33689 0.7811 0.0
C3055 C 0.31575 0.35388 0.77968 0.0
C3056 C 0.34861 0.37822 0.75129 0.0
C3057 C 0.36966 0.42768 0.76312 0.0
C3058 C 0.36013 0.40918 0.76488 0.0
C3059 C 0.33057 0.35593 0.76928 0.0
C3060 C 0.34118 0.37417 0.76791 0.0
H3061 H 0.36615 0.47141 0.77361 0.0
H3062 H 0.35036 0.44106 0.77615 0.0
H3063 H 0.36329 0.39816 0.73672 0.0
H3064 H 0.32884 0.31178 0.75423 0.0
H3065 H 0.34651 0.3413 0.75231 0.0
C3066 C 0.19581 0.6071 0.24804 0.0
C3067 C 0.20607 0.59548 0.25581 0.0
C3068 C 0.2006 0.6254 0.25325 0.0
C3069 C 0.22588 0.65783 0.29136 0.0
H3070 H 0.22405 0.6912 0.25413 0.0
C3071 C 0.26554 0.72927 0.29277 0.0
C3072 C 0.25555 0.74184 0.28701 0.0
C3073 C 0.25686 0.71182 0.29374 0.0
C3074 C 0.22423 0.68196 0.26467 0.0
H3075 H 0.22971 0.59362 0.27431 0.0
H3076 H 0.23852 0.62594 0.283 0.0
H3077 H 0.21525 0.65918 0.24422 0.0
H3078 H 0.22892 0.74701 0.27888 0.0
H3079 H 0.21387 0.71618 0.2797 0.0
H3080 H 0.23596 0.68085 0.31157 0.0
C3081 C 0.22653 0.62078 0.27328 0.0
C3082 C 0.21928 0.66374 0.25903 0.0
C3083 C 0.22167 0.6024 0.26814 0.0
C3084 C 0.23678 0.73739 0.28354 0.0
C3085 C 0.22818 0.7199 0.28405 0.0
C3086 C 0.23108 0.67611 0.29696 0.0
C3087 C 0.21579 0.63232 0.26617 0.0
C3088 C 0.22031 0.65155 0.2723 0.0
C3089 C 0.2383 0.70697 0.28846 0.0
C3090 C 0.23041 0.68815 0.28358 0.0
H3091 H 0.18368 0.60202 0.23849 0.0
H3092 H 0.19207 0.63405 0.24766 0.0
H3093 H 0.22642 0.64861 0.30186 0.0
H3094 H 0.28004 0.73269 0.29553 0.0
H3095 H 0.26478 0.70181 0.29697 0.0
C3096 C 0.51183 0.71946 0.47776 0.0
C3097 C 0.50714 0.71925 0.45824 0.0
C3098 C 0.51538 0.70391 0.48555 0.0
C3099 C 0.52631 0.65805 0.47159 0.0
H3100 H 0.51584 0.64902 0.52185 0.0
C3101 C 0.52917 0.58865 0.49825 0.0
C3102 C 0.53523 0.58764 0.51723 0.0
C3103 C 0.52641 0.60494 0.49187 0.0
C3104 C 0.51907 0.65134 0.50785 0.0
H3105 H 0.50243 0.70201 0.43179 0.0
H3106 H 0.50824 0.67517 0.44513 0.0
H3107 H 0.50945 0.67622 0.50943 0.0
H3108 H 0.54309 0.60362 0.54434 0.0
H3109 H 0.53824 0.63204 0.53326 0.0
H3110 H 0.53579 0.63316 0.46992 0.0
C3111 C 0.50954 0.68737 0.4546 0.0
C3112 C 0.51538 0.6671 0.50064 0.0
C3113 C 0.50598 0.70287 0.44686 0.0
C3114 C 0.53845 0.6037 0.52962 0.0
C3115 C 0.53553 0.62007 0.52324 0.0
C3116 C 0.5299 0.64231 0.47874 0.0
C3117 C 0.51448 0.68752 0.47411 0.0
C3118 C 0.51878 0.67076 0.48225 0.0
C3119 C 0.52946 0.62103 0.50417 0.0
C3120 C 0.52624 0.63849 0.49696 0.0
H3121 H 0.51296 0.73175 0.48707 0.0
H3122 H 0.51925 0.70493 0.50056 0.0
H3123 H 0.52971 0.66028 0.45762 0.0
H3124 H 0.52649 0.57673 0.48814 0.0
H3125 H 0.52151 0.60479 0.47719 0.0
C3126 C 0.61434 0.28442 0.64083 0.0
C3127 C 0.60194 0.29535 0.64523 0.0
C3128 C 0.62975 0.28461 0.65339 0.0
C3129 C 0.65967 0.31214 0.69395 0.0
H3130 H 0.67364 0.26716 0.70358 0.0
C3131 C 0.72709 0.3081 0.73814 0.0
C3132 C 0.72642 0.29529 0.75099 0.0
C3133 C 0.71198 0.30857 0.72542 0.0
C3134 C 0.66991 0.27986 0.70113 0.0
H3135 H 0.59629 0.31536 0.66615 0.0
H3136 H 0.62323 0.31601 0.68777 0.0
H3137 H 0.64755 0.26716 0.68094 0.0
H3138 H 0.7094 0.27274 0.76029 0.0
H3139 H 0.68325 0.2733 0.73792 0.0
H3140 H 0.682 0.32482 0.71421 0.0
C3141 C 0.62108 0.30719 0.67469 0.0
C3142 C 0.65502 0.27987 0.68797 0.0
C3143 C 0.60555 0.30676 0.6623 0.0
C3144 C 0.7103 0.28294 0.75077 0.0
C3145 C 0.69535 0.28315 0.73778 0.0
C3146 C 0.67469 0.31214 0.70695 0.0
C3147 C 0.63335 0.29599 0.67055 0.0
C3148 C 0.6496 0.29601 0.68422 0.0
C3149 C 0.69595 0.29595 0.72488 0.0
C3150 C 0.68 0.29599 0.71082 0.0
H3151 H 0.61192 0.27539 0.62787 0.0
H3152 H 0.63891 0.27589 0.64961 0.0
H3153 H 0.65603 0.32486 0.6914 0.0
H3154 H 0.73931 0.31775 0.73792 0.0
H3155 H 0.71302 0.31857 0.71567 0.0
C3156 C 0.00535 0.33393 0.94875 0.0
C3157 C 0.0064 0.32004 0.96014 0.0
C3158 C 0.00575 0.35164 0.95663 0.0
C3159 C 0.01804 0.38334 0.00153 0.0
H3160 H 0.98956 0.41204 0.9744 0.0
C3161 C 0.01188 0.45676 0.03117 0.0
C3162 C 0.01289 0.46954 0.01821 0.0
C3163 C 0.01058 0.43832 0.02507 0.0
C3164 C 0.99776 0.40435 0.98216 0.0
H3165 H 0.00896 0.31432 0.98908 0.0
H3166 H 0.00977 0.34524 0.00292 0.0
H3167 H 0.98849 0.38091 0.9623 0.0
H3168 H 0.0126 0.47255 0.98853 0.0
H3169 H 0.00987 0.44076 0.97797 0.0
H3170 H 0.02719 0.40695 0.02146 0.0
C3171 C 0.00864 0.34242 0.98775 0.0
C3172 C 0.99718 0.38634 0.97514 0.0
C3173 C 0.00807 0.32457 0.97981 0.0
C3174 C 0.01199 0.46322 0.99899 0.0
C3175 C 0.01031 0.44485 0.99289 0.0
C3176 C 0.01855 0.4014 0.00862 0.0
C3177 C 0.00733 0.3563 0.97629 0.0
C3178 C 0.00747 0.37548 0.98451 0.0
C3179 C 0.00978 0.43201 0.00578 0.0
C3180 C 0.00856 0.41232 0.99894 0.0
H3181 H 1.00407 0.33111 0.93356 0.0
H3182 H 0.00503 0.36175 0.94716 0.0
H3183 H 0.02633 0.37568 0.00919 0.0
H3184 H 0.01257 0.46107 0.04608 0.0
H3185 H 0.01008 0.42896 0.0355 0.0
C3186 C 0.99089 0.79343 0.13409 0.0
C3187 C 0.00681 0.78791 0.14058 0.0
C3188 C 0.97619 0.79157 0.14461 0.0
C3189 C 0.95708 0.76545 0.18123 0.0
H3190 H 0.92973 0.80315 0.18973 0.0
C3191 C 0.90863 0.76151 0.23674 0.0
C3192 C 0.89092 0.76302 0.23074 0.0
C3193 C 0.92253 0.76704 0.22609 0.0
C3194 C 0.93717 0.79247 0.18736 0.0
H3195 H 0.0197 0.77597 0.16303 0.0
H3196 H 0.99423 0.77258 0.18113 0.0
H3197 H 0.95412 0.80714 0.16964 0.0
H3198 H 0.87413 0.77284 0.20967 0.0
H3199 H 0.89868 0.78292 0.19105 0.0
H3200 H 0.94041 0.75083 0.19896 0.0
C3201 C 0.99298 0.77836 0.16799 0.0
C3202 C 0.9511 0.79471 0.17581 0.0
C3203 C 0.00767 0.78042 0.15766 0.0
C3204 C 0.88768 0.77167 0.2147 0.0
C3205 C 0.90171 0.77732 0.204 0.0
C3206 C 0.94331 0.76326 0.19277 0.0
C3207 C 0.97701 0.78387 0.16164 0.0
C3208 C 0.9614 0.7813 0.17283 0.0
C3209 C 0.91913 0.77427 0.20914 0.0
C3210 C 0.93335 0.77682 0.19623 0.0
H3211 H 0.98986 0.7993 0.121 0.0
H3212 H 0.96408 0.79588 0.13926 0.0
H3213 H 0.96438 0.75464 0.1789 0.0
H3214 H 0.91152 0.75492 0.24907 0.0
H3215 H 0.93585 0.76487 0.23067 0.0
C3216 C 0.52887 0.31854 0.16446 0.0
C3217 C 0.52211 0.30123 0.1552 0.0
C3218 C 0.5306 0.33348 0.15436 0.0
C3219 C 0.51514 0.34835 0.10845 0.0
H3220 H 0.55719 0.386 0.12107 0.0
C3221 C 0.53861 0.40132 0.05871 0.0
C3222 C 0.54692 0.41865 0.06682 0.0
C3223 C 0.53315 0.38792 0.07009 0.0
C3224 C 0.5452 0.37578 0.11752 0.0
H3225 H 0.51187 0.28607 0.12804 0.0
H3226 H 0.5151 0.31192 0.11047 0.0
H3227 H 0.55295 0.36092 0.1397 0.0
H3228 H 0.55563 0.43576 0.09305 0.0
H3229 H 0.54588 0.41248 0.11303 0.0
H3230 H 0.50765 0.36308 0.08596 0.0
C3231 C 0.51881 0.31411 0.12556 0.0
C3232 C 0.54276 0.36133 0.12824 0.0
C3233 C 0.51708 0.29922 0.13564 0.0
C3234 C 0.54898 0.42257 0.08648 0.0
C3235 C 0.54362 0.40916 0.09789 0.0
C3236 C 0.51762 0.36278 0.09767 0.0
C3237 C 0.5256 0.33149 0.13474 0.0
C3238 C 0.52777 0.34732 0.12379 0.0
C3239 C 0.53613 0.3915 0.08987 0.0
C3240 C 0.53275 0.37665 0.10198 0.0
H3241 H 0.53284 0.32055 0.17951 0.0
H3242 H 0.53571 0.34663 0.16199 0.0
H3243 H 0.50326 0.33802 0.10475 0.0
H3244 H 0.53722 0.39791 0.04358 0.0
H3245 H 0.52757 0.37449 0.06339 0.0
C3246 C 0.97355 0.28955 0.34164 0.0
C3247 C 0.98789 0.29994 0.33434 0.0
C3248 C 0.95564 0.28881 0.3342 0.0
C3249 C 0.92608 0.31321 0.30564 0.0
H3250 H 0.89162 0.26886 0.30302 0.0
C3251 C 0.85175 0.30484 0.27058 0.0
C3252 C 0.8381 0.29471 0.27912 0.0
C3253 C 0.87004 0.30574 0.27684 0.0
C3254 C 0.90095 0.28146 0.30383 0.0
H3255 H 0.99434 0.31776 0.31329 0.0
H3256 H 0.96315 0.31651 0.30026 0.0
H3257 H 0.92297 0.26979 0.31435 0.0
H3258 H 0.8335 0.27718 0.30091 0.0
H3259 H 0.86505 0.27856 0.31155 0.0
H3260 H 0.90398 0.32485 0.29511 0.0
C3261 C 0.96574 0.30894 0.31188 0.0
C3262 C 0.91907 0.282 0.31037 0.0
C3263 C 0.98371 0.30955 0.31926 0.0
C3264 C 0.84344 0.28528 0.29396 0.0
C3265 C 0.86169 0.28596 0.30003 0.0
C3266 C 0.90792 0.31266 0.29908 0.0
C3267 C 0.95134 0.29855 0.31923 0.0
C3268 C 0.93199 0.29791 0.31155 0.0
C3269 C 0.87537 0.29622 0.29162 0.0
C3270 C 0.89497 0.2968 0.29818 0.0
H3271 H 0.97615 0.282 0.35328 0.0
H3272 H 0.94511 0.28084 0.34052 0.0
H3273 H 0.93543 0.3258 0.3065 0.0
H3274 H 0.84838 0.31194 0.25886 0.0
H3275 H 0.88002 0.31361 0.26975 0.0
C3276 C 0.0209 0.7088 0.62932 0.0
C3277 C 0.01385 0.70744 0.64663 0.0
C3278 C 0.02102 0.69347 0.61692 0.0
C3279 C 0.99937 0.64566 0.60421 0.0
H3280 H 0.04158 0.64301 0.57887 0.0
C3281 C 0.00674 0.58075 0.55813 0.0
C3282 C 0.01667 0.5822 0.54262 0.0
C3283 C 0.00599 0.5959 0.5706 0.0
C3284 C 0.02951 0.64354 0.58551 0.0
H3285 H 1.00124 0.68871 0.66432 0.0
H3286 H 1.00121 0.66185 0.64251 0.0
H3287 H 0.04108 0.66913 0.60095 0.0
H3288 H 0.03326 0.60116 0.528 0.0
H3289 H 0.03136 0.62754 0.54913 0.0
H3290 H 0.98763 0.62024 0.58856 0.0
C3291 C 0.00668 0.67486 0.63856 0.0
C3292 C 0.02927 0.65859 0.59832 0.0
C3293 C 0.00677 0.69026 0.65112 0.0
C3294 C 0.02542 0.5994 0.5397 0.0
C3295 C 0.02453 0.61459 0.55207 0.0
C3296 C 0.99953 0.63065 0.59124 0.0
C3297 C 0.01392 0.67624 0.6213 0.0
C3298 C 0.0142 0.65991 0.60788 0.0
C3299 C 0.01497 0.61311 0.56789 0.0
C3300 C 0.01462 0.6293 0.58164 0.0
H3301 H 0.0265 0.72178 0.62536 0.0
H3302 H 0.02651 0.69516 0.60372 0.0
H3303 H 0.98742 0.64625 0.61107 0.0
H3304 H 0.9997 0.56781 0.56088 0.0
H3305 H 0.99865 0.59396 0.58263 0.0
C3306 C 0.60645 0.80861 0.84493 0.0
C3307 C 0.58929 0.80082 0.83568 0.0
C3308 C 0.62218 0.80563 0.83728 0.0
C3309 C 0.63926 0.77448 0.80218 0.0
H3310 H 0.68155 0.81208 0.80934 0.0
C3311 C 0.70473 0.76664 0.76736 0.0
C3312 C 0.72147 0.77426 0.77773 0.0
C3313 C 0.68847 0.76976 0.77379 0.0
C3314 C 0.67 0.80126 0.80734 0.0
H3315 H 0.57553 0.78369 0.81084 0.0
H3316 H 0.60276 0.77858 0.79749 0.0
H3317 H 0.65412 0.8177 0.82148 0.0
H3318 H 0.73382 0.79164 0.803 0.0
H3319 H 0.70589 0.79716 0.81399 0.0
H3320 H 0.65523 0.75804 0.78805 0.0
C3321 C 0.60416 0.78693 0.81081 0.0
C3322 C 0.6541 0.80453 0.81438 0.0
C3323 C 0.58843 0.79 0.81843 0.0
C3324 C 0.72133 0.78538 0.79456 0.0
C3325 C 0.70515 0.78868 0.80085 0.0
C3326 C 0.6552 0.77121 0.79514 0.0
C3327 C 0.6214 0.79464 0.8201 0.0
C3328 C 0.6384 0.79119 0.81208 0.0
C3329 C 0.68835 0.78091 0.79066 0.0
C3330 C 0.67097 0.7845 0.79768 0.0
H3331 H 0.60777 0.81694 0.85827 0.0
H3332 H 0.63502 0.8117 0.84513 0.0
H3333 H 0.6277 0.76368 0.80022 0.0
H3334 H 0.7041 0.75825 0.7542 0.0
H3335 H 0.67599 0.76363 0.76528 0.0
C3336 C 0.44199 0.50879 0.69703 0.0
C3337 C 0.44498 0.52198 0.71259 0.0
C3338 C 0.45113 0.51147 0.68125 0.0
C3339 C 0.49015 0.54147 0.66515 0.0
H3340 H 0.46877 0.51707 0.61619 0.0
C3341 C 0.51175 0.55281 0.58947 0.0
C3342 C 0.51957 0.53855 0.58254 0.0
C3343 C 0.50322 0.55187 0.60585 0.0
C3344 C 0.47483 0.52397 0.62981 0.0
H3345 H 0.45938 0.54859 0.72366 0.0
H3346 H 0.47448 0.55381 0.69584 0.0
H3347 H 0.45204 0.51384 0.64325 0.0
H3348 H 0.52467 0.51219 0.58703 0.0
H3349 H 0.50892 0.51017 0.61524 0.0
H3350 H 0.51266 0.55214 0.65111 0.0
C3351 C 0.46578 0.54099 0.69596 0.0
C3352 C 0.46536 0.522 0.64544 0.0
C3353 C 0.457 0.53808 0.71193 0.0
C3354 C 0.51882 0.52338 0.59223 0.0
C3355 C 0.50982 0.52221 0.60826 0.0
C3356 C 0.49943 0.54374 0.6494 0.0
C3357 C 0.46314 0.52766 0.68039 0.0
C3358 C 0.47295 0.53049 0.66347 0.0
C3359 C 0.50197 0.53644 0.61517 0.0
C3360 C 0.49191 0.53483 0.63169 0.0
H3361 H 0.43286 0.49621 0.6972 0.0
H3362 H 0.44893 0.50064 0.66991 0.0
H3363 H 0.49672 0.54804 0.67869 0.0
H3364 H 0.51236 0.5647 0.58228 0.0
H3365 H 0.49727 0.56299 0.61103 0.0
C3366 C 0.78233 0.16428 0.99735 0.0
C3367 C 0.76726 0.15111 0.99844 0.0
C3368 C 0.78263 0.17476 0.98254 0.0
C3369 C 0.75798 0.17848 0.93629 0.0
H3370 H 0.77857 0.22899 0.94894 0.0
C3371 C 0.74883 0.22748 0.88316 0.0
C3372 C 0.74357 0.24333 0.89029 0.0
C3373 C 0.75608 0.21684 0.89528 0.0
C3374 C 0.77274 0.21492 0.94522 0.0
H3375 H 0.74069 0.13835 0.98541 0.0
H3376 H 0.74064 0.15734 0.96011 0.0
H3377 H 0.78194 0.20841 0.97217 0.0
H3378 H 0.74263 0.26089 0.91561 0.0
H3379 H 0.75421 0.24168 0.93695 0.0
H3380 H 0.74741 0.1852 0.90999 0.0
C3381 C 0.75261 0.15914 0.97006 0.0
C3382 C 0.77489 0.20305 0.95842 0.0
C3383 C 0.75253 0.14834 0.98458 0.0
C3384 C 0.74623 0.24858 0.90976 0.0
C3385 C 0.75319 0.23773 0.92194 0.0
C3386 C 0.75552 0.19038 0.92325 0.0
C3387 C 0.76764 0.17254 0.96893 0.0
C3388 C 0.76718 0.18476 0.95423 0.0
C3389 C 0.75781 0.22155 0.91482 0.0
C3390 C 0.76256 0.20878 0.92773 0.0
H3391 H 0.79386 0.16647 0.00795 0.0
H3392 H 0.79454 0.1847 0.98189 0.0
H3393 H 0.75221 0.16441 0.93245 0.0
H3394 H 0.74683 0.22293 0.86823 0.0
H3395 H 0.75982 0.20463 0.88935 0.0
C3396 C 0.15805 0.54214 0.18602 0.0
C3397 C 0.1579 0.5286 0.19782 0.0
C3398 C 0.14511 0.53994 0.17056 0.0
C3399 C 0.09922 0.51547 0.15832 0.0
H3400 H 0.10263 0.53809 0.11245 0.0
C3401 C 0.05075 0.50631 0.08951 0.0
C3402 C 0.04567 0.52223 0.08498 0.0
C3403 C 0.06237 0.50656 0.10565 0.0
C3404 C 0.10164 0.53192 0.12537 0.0
H3405 H 0.14621 0.5015 0.20198 0.0
H3406 H 0.12425 0.49707 0.17411 0.0
H3407 H 0.13 0.53748 0.13285 0.0
H3408 H 0.04714 0.55049 0.09377 0.0
H3409 H 0.06851 0.55111 0.12171 0.0
H3410 H 0.07083 0.50928 0.15019 0.0
C3411 C 0.13365 0.50969 0.17724 0.0
C3412 C 0.11719 0.53149 0.13693 0.0
C3413 C 0.14623 0.51212 0.193 0.0
C3414 C 0.05105 0.53812 0.09726 0.0
C3415 C 0.06311 0.53848 0.1131 0.0
C3416 C 0.08373 0.5156 0.14655 0.0
C3417 C 0.13225 0.524 0.16665 0.0
C3418 C 0.1161 0.52327 0.15352 0.0
C3419 C 0.06919 0.52281 0.1169 0.0
C3420 C 0.08497 0.52392 0.13017 0.0
H3421 H 0.16702 0.55499 0.18973 0.0
H3422 H 0.14432 0.55123 0.16269 0.0
H3423 H 0.09793 0.50951 0.17131 0.0
H3424 H 0.04637 0.49394 0.08017 0.0
H3425 H 0.06714 0.49443 0.10853 0.0
C3426 C 0.78348 0.84325 0.47823 0.0
C3427 C 0.78946 0.86191 0.48137 0.0
C3428 C 0.78369 0.83383 0.46053 0.0
C3429 C 0.80613 0.83737 0.41734 0.0
H3430 H 0.76656 0.79992 0.39444 0.0
C3431 C 0.79772 0.8097 0.3388 0.0
C3432 C 0.79185 0.79121 0.33381 0.0
C3433 C 0.79851 0.81724 0.35744 0.0
C3434 C 0.77783 0.81016 0.40078 0.0
H3435 H 0.80011 0.88538 0.46835 0.0
H3436 H 0.80054 0.86903 0.43758 0.0
H3437 H 0.76514 0.8154 0.42557 0.0
H3438 H 0.78247 0.76596 0.34421 0.0
H3439 H 0.78343 0.77923 0.37698 0.0
H3440 H 0.81872 0.83234 0.3925 0.0
C3441 C 0.79581 0.8616 0.44879 0.0
C3442 C 0.77701 0.81905 0.4186 0.0
C3443 C 0.79545 0.871 0.4664 0.0
C3444 C 0.78716 0.78026 0.34782 0.0
C3445 C 0.78756 0.78787 0.36648 0.0
C3446 C 0.80694 0.82852 0.39956 0.0
C3447 C 0.79008 0.84288 0.44565 0.0
C3448 C 0.79108 0.8329 0.42701 0.0
C3449 C 0.79311 0.80649 0.37146 0.0
C3450 C 0.79274 0.81493 0.39097 0.0
H3451 H 0.77874 0.83589 0.48949 0.0
H3452 H 0.77926 0.81942 0.45862 0.0
H3453 H 0.81736 0.84772 0.42355 0.0
H3454 H 0.80148 0.81838 0.3282 0.0
H3455 H 0.80275 0.83161 0.36074 0.0
C3456 C 0.44043 0.52382 0.82919 0.0
C3457 C 0.44679 0.51649 0.81304 0.0
C3458 C 0.44985 0.52442 0.847 0.0
C3459 C 0.48219 0.50307 0.87369 0.0
H3460 H 0.48795 0.5459 0.90916 0.0
C3461 C 0.52187 0.51041 0.9485 0.0
C3462 C 0.51428 0.51875 0.96323 0.0
C3463 C 0.51478 0.51019 0.92968 0.0
C3464 C 0.48632 0.53375 0.89951 0.0
H3465 H 0.46799 0.50399 0.80291 0.0
H3466 H 0.48441 0.50491 0.83413 0.0
H3467 H 0.47335 0.54541 0.87738 0.0
H3468 H 0.49309 0.53322 0.96955 0.0
H3469 H 0.48096 0.53293 0.93712 0.0
H3470 H 0.49484 0.49127 0.89598 0.0
C3471 C 0.47211 0.51017 0.83297 0.0
C3472 C 0.47797 0.5335 0.88127 0.0
C3473 C 0.46277 0.50973 0.8151 0.0
C3474 C 0.49945 0.5268 0.95866 0.0
C3475 C 0.4925 0.52671 0.93996 0.0
C3476 C 0.49048 0.50327 0.89202 0.0
C3477 C 0.46578 0.51758 0.84913 0.0
C3478 C 0.47559 0.51809 0.8682 0.0
C3479 C 0.50007 0.51848 0.92518 0.0
C3480 C 0.49242 0.51854 0.90526 0.0
H3481 H 0.42816 0.52912 0.82808 0.0
H3482 H 0.44449 0.53002 0.85917 0.0
H3483 H 0.48044 0.49094 0.864 0.0
H3484 H 0.5334 0.50425 0.95143 0.0
H3485 H 0.52104 0.50382 0.91866 0.0
C3486 C 0.75391 0.16028 0.10036 0.0
C3487 C 0.76609 0.14885 0.09751 0.0
C3488 C 0.75732 0.17338 0.11567 0.0
C3489 C 0.78509 0.19092 0.15989 0.0
H3490 H 0.78101 0.23662 0.14193 0.0
C3491 C 0.80333 0.25485 0.20959 0.0
C3492 C 0.78866 0.26355 0.21054 0.0
C3493 C 0.80381 0.24262 0.1942 0.0
C3494 C 0.78229 0.22396 0.14703 0.0
H3495 H 0.79023 0.14052 0.10891 0.0
H3496 H 0.7965 0.16393 0.13581 0.0
H3497 H 0.77352 0.20923 0.12 0.0
H3498 H 0.76387 0.26781 0.19586 0.0
H3499 H 0.76449 0.24598 0.16886 0.0
H3500 H 0.79348 0.20564 0.18703 0.0
C3501 C 0.7843 0.16266 0.1263 0.0
C3502 C 0.77789 0.20834 0.13462 0.0
C3503 C 0.78072 0.14931 0.11104 0.0
C3504 C 0.77524 0.26112 0.19531 0.0
C3505 C 0.77567 0.24876 0.17991 0.0
C3506 C 0.78952 0.20658 0.17232 0.0
C3507 C 0.7731 0.17532 0.12803 0.0
C3508 C 0.7788 0.1917 0.14111 0.0
C3509 C 0.78958 0.23892 0.17971 0.0
C3510 C 0.78776 0.2231 0.166 0.0
H3511 H 0.7424 0.15984 0.09008 0.0
H3512 H 0.74826 0.18275 0.11714 0.0
H3513 H 0.78594 0.17821 0.16508 0.0
H3514 H 0.81405 0.2569 0.2211 0.0
H3515 H 0.81477 0.23532 0.19409 0.0
C3516 C 0.16109 0.54262 0.31377 0.0
C3517 C 0.15583 0.54882 0.29671 0.0
C3518 C 0.15036 0.543 0.32841 0.0
C3519 C 0.11525 0.56495 0.34542 0.0
H3520 H 0.09885 0.52103 0.36695 0.0
C3521 C 0.05638 0.56179 0.38509 0.0
C3522 C 0.06191 0.56164 0.40425 0.0
C3523 C 0.0662 0.5552 0.3716 0.0
C3524 C 0.10335 0.53328 0.36091 0.0
H3525 H 0.13594 0.5609 0.28163 0.0
H3526 H 0.11734 0.56173 0.30714 0.0
H3527 H 0.12225 0.522 0.34556 0.0
H3528 H 0.08061 0.55248 0.42425 0.0
H3529 H 0.09766 0.54104 0.40058 0.0
H3530 H 0.09633 0.5762 0.36035 0.0
C3531 C 0.12962 0.55653 0.30926 0.0
C3532 C 0.1168 0.53393 0.34898 0.0
C3533 C 0.14017 0.55596 0.29465 0.0
C3534 C 0.07602 0.55283 0.40957 0.0
C3535 C 0.08577 0.54617 0.39606 0.0
C3536 C 0.10179 0.56424 0.35708 0.0
C3537 C 0.13451 0.54986 0.32613 0.0
C3538 C 0.1225 0.54969 0.34086 0.0
C3539 C 0.0816 0.54845 0.37718 0.0
C3540 C 0.09547 0.54832 0.36452 0.0
H3541 H 0.17316 0.53702 0.31558 0.0
H3542 H 0.15437 0.5379 0.34139 0.0
H3543 H 0.11973 0.57734 0.33962 0.0
H3544 H 0.04525 0.56805 0.38064 0.0
H3545 H 0.06275 0.55684 0.35697 0.0
C3546 C 0.78415 0.87211 0.5995 0.0
C3547 C 0.78749 0.86332 0.58244 0.0
C3548 C 0.78094 0.8626 0.61494 0.0
C3549 C 0.78905 0.82201 0.63526 0.0
H3550 H 0.74991 0.82874 0.66414 0.0
C3551 C 0.77355 0.77975 0.69593 0.0
C3552 C 0.76763 0.78786 0.71197 0.0
C3553 C 0.7744 0.78817 0.67951 0.0
C3554 C 0.76108 0.82684 0.65646 0.0
H3555 H 0.79008 0.83768 0.56824 0.0
H3556 H 0.78467 0.82116 0.59523 0.0
H3557 H 0.75505 0.84538 0.63726 0.0
H3558 H 0.7575 0.81108 0.72303 0.0
H3559 H 0.75995 0.82623 0.69491 0.0
H3560 H 0.79564 0.80407 0.65465 0.0
C3561 C 0.7846 0.8354 0.59668 0.0
C3562 C 0.76396 0.83636 0.64096 0.0
C3563 C 0.78766 0.84487 0.58121 0.0
C3564 C 0.76218 0.80444 0.71098 0.0
C3565 C 0.76344 0.81308 0.6947 0.0
C3566 C 0.78637 0.81271 0.6509 0.0
C3567 C 0.78114 0.84414 0.61371 0.0
C3568 C 0.77797 0.83404 0.63017 0.0
C3569 C 0.7698 0.8052 0.67876 0.0
C3570 C 0.77232 0.81492 0.66176 0.0
H3571 H 0.78389 0.88631 0.60088 0.0
H3572 H 0.77851 0.86975 0.62792 0.0
H3573 H 0.80011 0.82009 0.62739 0.0
H3574 H 0.77776 0.76694 0.6961 0.0
H3575 H 0.77883 0.78132 0.66745 0.0
C3576 C 0.74816 0.46215 0.5082 0.0
C3577 C 0.74467 0.44417 0.5004 0.0
C3578 C 0.7341 0.47101 0.51059 0.0
C3579 C 0.68852 0.47386 0.49784 0.0
H3580 H 0.69084 0.49095 0.55085 0.0
C3581 C 0.63466 0.50112 0.53818 0.0
C3582 C 0.64174 0.51526 0.55233 0.0
C3583 C 0.6461 0.49398 0.5269 0.0
C3584 C 0.69019 0.48645 0.53598 0.0
H3585 H 0.72413 0.42151 0.48789 0.0
H3586 H 0.69918 0.43728 0.49233 0.0
H3587 H 0.71266 0.47374 0.54047 0.0
H3588 H 0.66521 0.53476 0.56451 0.0
H3589 H 0.68533 0.52236 0.54462 0.0
H3590 H 0.66583 0.48671 0.49354 0.0
C3591 C 0.71285 0.44435 0.49643 0.0
C3592 C 0.7025 0.47653 0.53012 0.0
C3593 C 0.72701 0.43538 0.49407 0.0
C3594 C 0.65979 0.52349 0.55392 0.0
C3595 C 0.67114 0.51656 0.5425 0.0
C3596 C 0.67604 0.48387 0.50376 0.0
C3597 C 0.71642 0.462 0.50519 0.0
C3598 C 0.70199 0.47057 0.51101 0.0
C3599 C 0.66452 0.50113 0.52975 0.0
C3600 C 0.67718 0.49055 0.52282 0.0
H3601 H 0.76168 0.46923 0.51312 0.0
H3602 H 0.73697 0.48469 0.51737 0.0
H3603 H 0.68805 0.46919 0.48304 0.0
H3604 H 0.62057 0.49498 0.53667 0.0
H3605 H 0.64083 0.48206 0.51712 0.0
C3606 C 0.21442 0.12562 0.49735 0.0
C3607 C 0.21686 0.14375 0.5047 0.0
C3608 C 0.19787 0.11422 0.49694 0.0
C3609 C 0.15661 0.10951 0.5204 0.0
H3610 H 0.13887 0.07137 0.47967 0.0
C3611 C 0.09792 0.05178 0.52643 0.0
C3612 C 0.08462 0.04758 0.51094 0.0
C3613 C 0.11415 0.06323 0.52512 0.0
C3614 C 0.1436 0.082 0.49111 0.0
H3615 H 0.20371 0.16429 0.51686 0.0
H3616 H 0.17462 0.1444 0.51598 0.0
H3617 H 0.16615 0.09291 0.47752 0.0
H3618 H 0.07794 0.05126 0.48179 0.0
H3619 H 0.10646 0.07084 0.47928 0.0
H3620 H 0.13388 0.09873 0.53384 0.0
C3621 C 0.18563 0.13893 0.51078 0.0
C3622 C 0.15932 0.09427 0.48996 0.0
C3623 C 0.20223 0.15037 0.51116 0.0
C3624 C 0.08803 0.05439 0.49393 0.0
C3625 C 0.10436 0.06552 0.4925 0.0
C3626 C 0.14091 0.09722 0.52156 0.0
C3627 C 0.18331 0.12066 0.50389 0.0
C3628 C 0.16608 0.10813 0.50463 0.0
C3629 C 0.11748 0.07037 0.50818 0.0
C3630 C 0.13428 0.08328 0.50698 0.0
H3631 H 0.22544 0.12011 0.49223 0.0
H3632 H 0.19667 0.10021 0.49173 0.0
H3633 H 0.16151 0.11987 0.53206 0.0
H3634 H 0.09545 0.04682 0.53975 0.0
H3635 H 0.12407 0.0666 0.5374 0.0
C3636 C 0.17563 1.00013 0.77336 0.0
C3637 C 0.15875 0.99689 0.77993 0.0
C3638 C 0.18543 0.98647 0.77124 0.0
C3639 C 0.19187 0.94341 0.78645 0.0
H3640 H 0.21355 0.93918 0.73999 0.0
C3641 C 0.22773 0.88567 0.75892 0.0
C3642 C 0.24262 0.89119 0.74937 0.0
C3643 C 0.21811 0.89829 0.76615 0.0
C3644 C 0.20777 0.94032 0.75314 0.0
H3645 H 0.13898 0.97696 0.78983 0.0
H3646 H 0.15633 0.95286 0.78621 0.0
H3647 H 0.19453 0.96116 0.74479 0.0
H3648 H 0.26038 0.91408 0.74169 0.0
H3649 H 0.24387 0.93609 0.75456 0.0
H3650 H 0.20524 0.92233 0.79463 0.0
C3651 C 0.16188 0.96603 0.78268 0.0
C3652 C 0.19683 0.95287 0.75585 0.0
C3653 C 0.15192 0.97974 0.7846 0.0
C3654 C 0.24881 0.90953 0.74881 0.0
C3655 C 0.23931 0.92208 0.75608 0.0
C3656 C 0.20288 0.93072 0.78369 0.0
C3657 C 0.17864 0.96926 0.77577 0.0
C3658 C 0.18902 0.9548 0.77264 0.0
C3659 C 0.22334 0.9165 0.76388 0.0
C3660 C 0.21121 0.92935 0.76714 0.0
H3661 H 0.18124 0.01322 0.76967 0.0
H3662 H 0.1984 0.98941 0.7661 0.0
H3663 H 0.18602 0.94467 0.79954 0.0
H3664 H 0.22275 0.87155 0.75948 0.0
H3665 H 0.20588 0.89367 0.77218 0.0
C3666 C 0.35107 0.93644 0.00611 0.0
C3667 C 0.33637 0.94337 0.99878 0.0
C3668 C 0.36829 0.94637 0.00689 0.0
C3669 C 0.39533 0.98422 0.9893 0.0
H3670 H 0.42166 0.99102 0.03934 0.0
C3671 C 0.46076 0.0342 0.00803 0.0
C3672 C 0.47457 0.0245 0.01105 0.0
C3673 C 0.44313 0.02616 0.00923 0.0
C3674 C 0.41425 0.98931 0.02542 0.0
H3675 H 0.32784 0.96504 0.98508 0.0
H3676 H 0.35805 0.98251 0.98655 0.0
H3677 H 0.39257 0.9707 0.03308 0.0
H3678 H 0.48104 0.99925 0.01827 0.0
H3679 H 0.4505 0.98575 0.0216 0.0
H3680 H 0.41717 1.00274 0.98165 0.0
C3681 C 0.35626 0.96955 0.99179 0.0
C3682 C 0.3979 0.97757 0.02176 0.0
C3683 C 0.33905 0.9597 0.99116 0.0
C3684 C 0.47078 0.00727 0.01661 0.0
C3685 C 0.4533 0.99947 0.01835 0.0
C3686 C 0.41165 0.99604 0.993 0.0
C3687 C 0.37087 0.96318 0.0002 0.0
C3688 C 0.38844 0.97489 0.00365 0.0
C3689 C 0.4394 0.0086 0.01391 0.0
C3690 C 0.42115 0.99853 0.01105 0.0
H3691 H 0.34922 0.9237 0.01183 0.0
H3692 H 0.37951 0.94119 0.0132 0.0
H3693 H 0.38822 0.98217 0.97522 0.0
H3694 H 0.46341 0.04751 0.00364 0.0
H3695 H 0.43238 0.03323 0.00563 0.0
C3696 C 0.87228 0.57794 0.80048 0.0
C3697 C 0.86442 0.56024 0.79322 0.0
C3698 C 0.86282 0.59172 0.79796 0.0
C3699 C 0.83047 0.60196 0.76361 0.0
H3700 H 0.82107 0.6384 0.80094 0.0
C3701 C 0.78482 0.64672 0.74107 0.0
C3702 C 0.79332 0.66471 0.74343 0.0
C3703 C 0.79146 0.63479 0.75192 0.0
C3704 C 0.82367 0.62825 0.7905 0.0
H3705 H 0.84048 0.54276 0.77847 0.0
H3706 H 0.82412 0.56681 0.77397 0.0
H3707 H 0.83821 0.61572 0.81083 0.0
H3708 H 0.81384 0.68512 0.75985 0.0
H3709 H 0.82622 0.66385 0.77844 0.0
H3710 H 0.81631 0.61427 0.74325 0.0
C3711 C 0.83749 0.57002 0.78157 0.0
C3712 C 0.83345 0.61546 0.79609 0.0
C3713 C 0.84684 0.55632 0.78414 0.0
C3714 C 0.80747 0.67109 0.75775 0.0
C3715 C 0.81432 0.65907 0.76848 0.0
C3716 C 0.82077 0.61459 0.75809 0.0
C3717 C 0.84558 0.58779 0.78807 0.0
C3718 C 0.83655 0.60211 0.78264 0.0
C3719 C 0.80686 0.64074 0.7649 0.0
C3720 C 0.817 0.62758 0.7715 0.0
H3721 H 0.88582 0.58117 0.80765 0.0
H3722 H 0.86923 0.60543 0.80295 0.0
H3723 H 0.83316 0.59199 0.75301 0.0
H3724 H 0.77356 0.64182 0.73033 0.0
H3725 H 0.7854 0.62068 0.74923 0.0
C3726 C 0.82933 0.65551 0.00912 0.0
C3727 C 0.81233 0.64862 0.01416 0.0
C3728 C 0.84328 0.64584 0.01121 0.0
C3729 C 0.85714 0.61175 0.03903 0.0
H3730 H 0.88754 0.60259 0.00031 0.0
C3731 C 0.89926 0.55874 0.04588 0.0
C3732 C 0.91772 0.56456 0.04559 0.0
C3733 C 0.88707 0.56867 0.03873 0.0
C3734 C 0.8792 0.60518 0.01124 0.0
H3735 H 0.79652 0.62624 0.02515 0.0
H3736 H 0.82065 0.6096 0.02888 0.0
H3737 H 0.86519 0.62177 0.99506 0.0
H3738 H 0.93793 0.58429 0.03608 0.0
H3739 H 0.9164 0.60187 0.02346 0.0
H3740 H 0.87079 0.59517 0.05516 0.0
C3741 C 0.82334 0.62242 0.02339 0.0
C3742 C 0.86651 0.61618 0.00829 0.0
C3743 C 0.80947 0.63193 0.02115 0.0
C3744 C 0.92371 0.57957 0.03641 0.0
C3745 C 0.91143 0.58961 0.02925 0.0
C3746 C 0.86967 0.60081 0.04192 0.0
C3747 C 0.84043 0.62931 0.01863 0.0
C3748 C 0.85512 0.61924 0.02205 0.0
C3749 C 0.89311 0.58468 0.03123 0.0
C3750 C 0.88055 0.59708 0.02794 0.0
H3751 H 0.83183 0.6683 0.00357 0.0
H3752 H 0.85636 0.65144 0.00745 0.0
H3753 H 0.84887 0.61422 0.05008 0.0
H3754 H 0.89434 0.54709 0.05272 0.0
H3755 H 0.87296 0.56437 0.04007 0.0
C3756 C 0.18327 0.09103 0.79664 0.0
C3757 C 0.16457 0.08984 0.79476 0.0
C3758 C 0.19473 0.10755 0.79704 0.0
C3759 C 0.19474 0.15354 0.78394 0.0
H3760 H 0.24199 0.1638 0.81248 0.0
C3761 C 0.24174 0.22329 0.79745 0.0
C3762 C 0.25775 0.22384 0.78908 0.0
C3763 C 0.23061 0.20695 0.79882 0.0
C3764 C 0.22884 0.16101 0.80443 0.0
H3765 H 0.14322 0.10509 0.79247 0.0
H3766 H 0.16319 0.13403 0.79383 0.0
H3767 H 0.22167 0.1356 0.81459 0.0
H3768 H 0.27424 0.20737 0.77519 0.0
H3769 H 0.2554 0.17879 0.77899 0.0
H3770 H 0.20186 0.17936 0.77438 0.0
C3771 C 0.16906 0.12216 0.79445 0.0
C3772 C 0.21721 0.14485 0.80552 0.0
C3773 C 0.15758 0.10559 0.79386 0.0
C3774 C 0.26244 0.20755 0.78236 0.0
C3775 C 0.25156 0.19117 0.7843 0.0
C3776 C 0.20624 0.16982 0.78316 0.0
C3777 C 0.1878 0.12335 0.79575 0.0
C3778 C 0.20001 0.14084 0.79519 0.0
C3779 C 0.23547 0.19079 0.79232 0.0
C3780 C 0.22338 0.17361 0.79331 0.0
H3781 H 0.18907 0.07911 0.7973 0.0
H3782 H 0.20902 0.10781 0.79778 0.0
H3783 H 0.18182 0.15083 0.77544 0.0
H3784 H 0.23751 0.23551 0.80259 0.0
H3785 H 0.21818 0.20692 0.80496 0.0
C3786 C 0.35002 0.96498 0.30307 0.0
C3787 C 0.36658 0.96822 0.2959 0.0
C3788 C 0.34021 0.94767 0.30139 0.0
C3789 C 0.33363 0.90658 0.26991 0.0
H3790 H 0.30481 0.8873 0.30742 0.0
C3791 C 0.30038 0.83455 0.27735 0.0
C3792 C 0.28282 0.83228 0.282 0.0
C3793 C 0.30891 0.85116 0.27345 0.0
C3794 C 0.31257 0.8928 0.29676 0.0
H3795 H 0.38673 0.95617 0.28282 0.0
H3796 H 0.36945 0.92566 0.2799 0.0
H3797 H 0.32588 0.91562 0.31562 0.0
H3798 H 0.25981 0.84481 0.28547 0.0
H3799 H 0.27523 0.87445 0.27979 0.0
H3800 H 0.32074 0.88314 0.25136 0.0
C3801 C 0.36398 0.93655 0.28648 0.0
C3802 C 0.32468 0.9088 0.30148 0.0
C3803 C 0.37384 0.9539 0.28822 0.0
C3804 C 0.27337 0.8464 0.28166 0.0
C3805 C 0.28204 0.86318 0.27827 0.0
C3806 C 0.32165 0.89039 0.26526 0.0
C3807 C 0.34686 0.93346 0.2925 0.0
C3808 C 0.33521 0.91584 0.28806 0.0
C3809 C 0.3001 0.86572 0.27505 0.0
C3810 C 0.311 0.8836 0.27864 0.0
H3811 H 0.34436 0.97586 0.30935 0.0
H3812 H 0.32702 0.94558 0.30614 0.0
H3813 H 0.34145 0.91196 0.25925 0.0
H3814 H 0.30816 0.82416 0.27876 0.0
H3815 H 0.323 0.85309 0.27146 0.0
C3816 C 0.54731 0.34433 0.5708 0.0
C3817 C 0.55276 0.34198 0.58957 0.0
C3818 C 0.54678 0.36164 0.5653 0.0
C3819 C 0.56097 0.41201 0.58347 0.0
H3820 H 0.53136 0.41732 0.53834 0.0
C3821 C 0.56188 0.48327 0.55749 0.0
C3822 C 0.5468 0.48659 0.54632 0.0
C3823 C 0.56281 0.46589 0.56253 0.0
C3824 C 0.53959 0.41638 0.55119 0.0
H3825 H 0.56167 0.35659 0.61722 0.0
H3826 H 0.56018 0.38603 0.60811 0.0
H3827 H 0.53188 0.38772 0.54748 0.0
H3828 H 0.52102 0.47334 0.5317 0.0
H3829 H 0.52222 0.44385 0.54072 0.0
H3830 H 0.56795 0.44072 0.58769 0.0
C3831 C 0.5568 0.37481 0.59718 0.0
C3832 C 0.54016 0.39901 0.55635 0.0
C3833 C 0.55753 0.35761 0.60258 0.0
C3834 C 0.53281 0.47173 0.5404 0.0
C3835 C 0.53367 0.45444 0.54547 0.0
C3836 C 0.5602 0.42938 0.57846 0.0
C3837 C 0.5515 0.37741 0.57837 0.0
C3838 C 0.55088 0.39628 0.57264 0.0
C3839 C 0.54869 0.45097 0.55668 0.0
C3840 C 0.54953 0.43209 0.56214 0.0
H3841 H 0.54347 0.33277 0.56027 0.0
H3842 H 0.54282 0.36252 0.55061 0.0
H3843 H 0.56977 0.41111 0.59592 0.0
H3844 H 0.57301 0.49416 0.56252 0.0
H3845 H 0.57485 0.46424 0.57091 0.0
C3846 C 0.45086 0.77757 0.38616 0.0
C3847 C 0.45135 0.76687 0.40106 0.0
C3848 C 0.43447 0.77955 0.37649 0.0
C3849 C 0.38555 0.75854 0.36631 0.0
H3850 H 0.3808 0.80481 0.35068 0.0
C3851 C 0.31697 0.77224 0.33174 0.0
C3852 C 0.31731 0.78355 0.31734 0.0
C3853 C 0.33296 0.77017 0.34226 0.0
C3854 C 0.38185 0.79168 0.35466 0.0
H3855 H 0.43458 0.74968 0.41717 0.0
H3856 H 0.40602 0.75278 0.40011 0.0
H3857 H 0.40877 0.80117 0.368 0.0
H3858 H 0.33517 0.80178 0.30316 0.0
H3859 H 0.36276 0.79817 0.32123 0.0
H3860 H 0.35865 0.74903 0.35285 0.0
C3861 C 0.41838 0.75976 0.3959 0.0
C3862 C 0.39803 0.78958 0.3647 0.0
C3863 C 0.43482 0.75802 0.4058 0.0
C3864 C 0.3342 0.79286 0.314 0.0
C3865 C 0.35015 0.79089 0.32457 0.0
C3866 C 0.36936 0.76063 0.35621 0.0
C3867 C 0.41787 0.77069 0.38114 0.0
C3868 C 0.40027 0.77295 0.37067 0.0
C3869 C 0.34991 0.77945 0.33889 0.0
C3870 C 0.36718 0.77723 0.3501 0.0
H3871 H 0.46323 0.78471 0.38211 0.0
H3872 H 0.43487 0.78792 0.36516 0.0
H3873 H 0.38665 0.74544 0.37034 0.0
H3874 H 0.30431 0.7648 0.3348 0.0
H3875 H 0.33198 0.76139 0.35322 0.0
C3876 C 0.04913 0.72921 0.07117 0.0
C3877 C 0.04483 0.73592 0.08877 0.0
C3878 C 0.04725 0.71048 0.06585 0.0
C3879 C 0.03254 0.66445 0.08461 0.0
H3880 H 0.04594 0.64629 0.03702 0.0
C3881 C 0.01948 0.5872 0.06158 0.0
C3882 C 0.02985 0.57971 0.04884 0.0
C3883 C 0.0212 0.60591 0.06579 0.0
C3884 C 0.0423 0.65093 0.05055 0.0
H3885 H 0.03517 0.72768 0.11448 0.0
H3886 H 0.03221 0.69621 0.10592 0.0
H3887 H 0.04937 0.67813 0.04523 0.0
H3888 H 0.04996 0.58688 0.03022 0.0
H3889 H 0.05387 0.61912 0.03833 0.0
H3890 H 0.02621 0.6372 0.09019 0.0
C3891 C 0.03687 0.70469 0.09559 0.0
C3892 C 0.04411 0.66967 0.05535 0.0
C3893 C 0.03861 0.72325 0.10075 0.0
C3894 C 0.04197 0.59183 0.04041 0.0
C3895 C 0.04398 0.6106 0.0449 0.0
C3896 C 0.03097 0.64582 0.07993 0.0
C3897 C 0.04113 0.69756 0.07797 0.0
C3898 C 0.03923 0.67711 0.07255 0.0
C3899 C 0.03363 0.61817 0.05773 0.0
C3900 C 0.03568 0.63849 0.06274 0.0
H3901 H 0.05396 0.73842 0.06145 0.0
H3902 H 0.05073 0.70643 0.0521 0.0
H3903 H 0.02837 0.66853 0.098 0.0
H3904 H 0.00973 0.57856 0.06826 0.0
H3905 H 0.01243 0.61065 0.07526 0.0
C3906 C 0.06673 0.27799 0.91547 0.0
C3907 C 0.05027 0.26812 0.90636 0.0
C3908 C 0.0827 0.27823 0.90713 0.0
C3909 C 0.10332 0.25419 0.86911 0.0
H3910 H 0.13829 0.2985 0.87571 0.0
C3911 C 0.16337 0.26855 0.824 0.0
C3912 C 0.1792 0.28011 0.83243 0.0
C3913 C 0.14848 0.26463 0.83411 0.0
C3914 C 0.12887 0.28588 0.87392 0.0
H3915 H 0.0379 0.25057 0.88124 0.0
H3916 H 0.0656 0.25108 0.86662 0.0
H3917 H 0.11089 0.29706 0.89059 0.0
H3918 H 0.19205 0.2959 0.85836 0.0
H3919 H 0.16652 0.28869 0.87614 0.0
H3920 H 0.12131 0.24319 0.85205 0.0
C3921 C 0.06628 0.25855 0.88035 0.0
C3922 C 0.11302 0.28505 0.88251 0.0
C3923 C 0.05029 0.25837 0.88868 0.0
C3924 C 0.1802 0.28665 0.85157 0.0
C3925 C 0.16537 0.28279 0.86165 0.0
C3926 C 0.1192 0.25505 0.86043 0.0
C3927 C 0.08279 0.26856 0.88938 0.0
C3928 C 0.09991 0.26922 0.88027 0.0
C3929 C 0.14899 0.27235 0.85287 0.0
C3930 C 0.13226 0.27092 0.86269 0.0
H3931 H 0.0673 0.28561 0.92911 0.0
H3932 H 0.09504 0.28589 0.91478 0.0
H3933 H 0.0938 0.24164 0.8672 0.0
H3934 H 0.16199 0.26371 0.80916 0.0
H3935 H 0.13618 0.25658 0.82678 0.0
C3936 C 0.54286 0.74205 0.88044 0.0
C3937 C 0.54035 0.75824 0.89003 0.0
C3938 C 0.54246 0.72655 0.88961 0.0
C3939 C 0.52605 0.70606 0.93144 0.0
H3940 H 0.55762 0.67283 0.92034 0.0
C3941 C 0.52653 0.64374 0.97177 0.0
C3942 C 0.52659 0.62748 0.9608 0.0
C3943 C 0.53023 0.66015 0.96417 0.0
C3944 C 0.54861 0.68188 0.92356 0.0
H3945 H 0.5355 0.77069 0.91695 0.0
H3946 H 0.53473 0.74377 0.93293 0.0
H3947 H 0.55967 0.70017 0.90495 0.0
H3948 H 0.53119 0.61572 0.93354 0.0
H3949 H 0.53802 0.6442 0.92038 0.0
H3950 H 0.51487 0.68775 0.94989 0.0
C3951 C 0.53691 0.74295 0.91823 0.0
C3952 C 0.54975 0.69761 0.91465 0.0
C3953 C 0.53747 0.75849 0.90909 0.0
C3954 C 0.53128 0.62807 0.9424 0.0
C3955 C 0.53516 0.64444 0.93486 0.0
C3956 C 0.52493 0.69037 0.94035 0.0
C3957 C 0.53937 0.72669 0.90866 0.0
C3958 C 0.53844 0.70996 0.91839 0.0
C3959 C 0.53418 0.66073 0.94542 0.0
C3960 C 0.53613 0.67796 0.93653 0.0
H3961 H 0.54516 0.74135 0.86577 0.0
H3962 H 0.54424 0.71435 0.88162 0.0
H3963 H 0.51685 0.71496 0.93449 0.0
H3964 H 0.52271 0.6437 0.9859 0.0
H3965 H 0.52959 0.67236 0.97288 0.0
C3966 C 0.08311 0.74985 0.69672 0.0
C3967 C 0.07228 0.75968 0.70668 0.0
C3968 C 0.10178 0.75227 0.70183 0.0
C3969 C 0.14123 0.78302 0.73266 0.0
H3970 H 0.16572 0.74476 0.71723 0.0
C3971 C 0.22001 0.79336 0.74564 0.0
C3972 C 0.22865 0.77849 0.74623 0.0
C3973 C 0.20124 0.79121 0.74095 0.0
C3974 C 0.15937 0.75566 0.72206 0.0
H3975 H 0.07318 0.77994 0.73017 0.0
H3976 H 0.10549 0.78376 0.73961 0.0
H3977 H 0.13365 0.74054 0.71045 0.0
H3978 H 0.2236 0.74961 0.74133 0.0
H3979 H 0.19133 0.74562 0.73486 0.0
H3980 H 0.16687 0.79771 0.74534 0.0
C3981 C 0.09968 0.77432 0.72744 0.0
C3982 C 0.14058 0.75333 0.71771 0.0
C3983 C 0.08091 0.772 0.72215 0.0
C3984 C 0.21768 0.76141 0.7417 0.0
C3985 C 0.19887 0.75919 0.73749 0.0
C3986 C 0.16003 0.78523 0.73736 0.0
C3987 C 0.11063 0.76452 0.71735 0.0
C3988 C 0.13098 0.76699 0.7227 0.0
C3989 C 0.19009 0.77404 0.73693 0.0
C3990 C 0.16966 0.77164 0.73208 0.0
H3991 H 0.07717 0.74034 0.68461 0.0
H3992 H 0.10924 0.74465 0.69314 0.0
H3993 H 0.13485 0.79414 0.73674 0.0
H3994 H 0.22779 0.80685 0.74869 0.0
H3995 H 0.19564 0.80321 0.74031 0.0
C3996 C 0.03907 0.37039 0.38278 0.0
C3997 C 0.04172 0.35551 0.39208 0.0
C3998 C 0.0375 0.38671 0.3929 0.0
C3999 C 0.04383 0.41122 0.44269 0.0
H4000 H 0.01891 0.44404 0.41791 0.0
C4001 C 0.04232 0.48174 0.48136 0.0
C4002 C 0.02855 0.4909 0.47603 0.0
C4003 C 0.04395 0.46557 0.47105 0.0
C4004 C 0.02571 0.43507 0.42536 0.0
H4005 H 0.04465 0.34634 0.41958 0.0
H4006 H 0.04138 0.37423 0.43711 0.0
H4007 H 0.0208 0.41566 0.401 0.0
H4008 H 0.00514 0.48969 0.45608 0.0
H4009 H 0.00738 0.46139 0.43854 0.0
H4010 H 0.04763 0.42999 0.46745 0.0
C4011 C 0.04097 0.37374 0.42199 0.0
C4012 C 0.02716 0.41866 0.41535 0.0
C4013 C 0.04272 0.35748 0.41186 0.0
C4014 C 0.01625 0.4833 0.46024 0.0
C4015 C 0.01761 0.4669 0.45013 0.0
C4016 C 0.04202 0.42743 0.45283 0.0
C4017 C 0.03831 0.38878 0.41276 0.0
C4018 C 0.03641 0.40638 0.4237 0.0
C4019 C 0.03154 0.45762 0.45526 0.0
C4020 C 0.03308 0.43987 0.44438 0.0
H4021 H 0.03815 0.36945 0.36757 0.0
H4022 H 0.03584 0.39775 0.38495 0.0
H4023 H 0.05132 0.40261 0.44991 0.0
H4024 H 0.05201 0.48721 0.49347 0.0
H4025 H 0.05516 0.45948 0.47552 0.0
C4026 C 0.46139 0.25137 0.22342 0.0
C4027 C 0.46537 0.25509 0.20527 0.0
C4028 C 0.44409 0.2518 0.22914 0.0
C4029 C 0.39947 0.26632 0.21374 0.0
H4030 H 0.38263 0.24036 0.25421 0.0
C4031 C 0.33148 0.27454 0.24206 0.0
C4032 C 0.32097 0.2603 0.24948 0.0
C4033 C 0.34876 0.27358 0.23703 0.0
C4034 C 0.38689 0.24759 0.24271 0.0
H4035 H 0.45359 0.26199 0.17897 0.0
H4036 H 0.42399 0.26211 0.18834 0.0
H4037 H 0.41232 0.23907 0.24499 0.0
H4038 H 0.32104 0.23359 0.25718 0.0
H4039 H 0.35105 0.2318 0.24839 0.0
H4040 H 0.37383 0.27427 0.21096 0.0
C4041 C 0.4341 0.25937 0.19868 0.0
C4042 C 0.40431 0.24707 0.2375 0.0
C4043 C 0.45133 0.25911 0.1931 0.0
C4044 C 0.32854 0.24491 0.25156 0.0
C4045 C 0.34598 0.24396 0.2466 0.0
C4046 C 0.38206 0.2667 0.21882 0.0
C4047 C 0.42994 0.25584 0.2169 0.0
C4048 C 0.41112 0.25643 0.22283 0.0
C4049 C 0.35652 0.25828 0.23914 0.0
C4050 C 0.3753 0.25742 0.23349 0.0
H4051 H 0.47169 0.24823 0.23333 0.0
H4052 H 0.44201 0.24917 0.24335 0.0
H4053 H 0.40373 0.27412 0.20266 0.0
H4054 H 0.32631 0.28659 0.23992 0.0
H4055 H 0.35613 0.28512 0.23169 0.0
C4056 C 0.62221 0.53095 0.35217 0.0
C4057 C 0.61234 0.53707 0.33739 0.0
C4058 C 0.61647 0.53086 0.37009 0.0
C4059 C 0.57619 0.53268 0.39532 0.0
H4060 H 0.61124 0.54251 0.43972 0.0
C4061 C 0.55485 0.54212 0.4698 0.0
C4062 C 0.5635 0.53471 0.48453 0.0
C4063 C 0.56125 0.54246 0.45227 0.0
C4064 C 0.60127 0.53951 0.42748 0.0
H4065 H 0.58869 0.54811 0.33002 0.0
H4066 H 0.57873 0.54826 0.3614 0.0
H4067 H 0.62126 0.54361 0.40856 0.0
H4068 H 0.58616 0.52238 0.49234 0.0
H4069 H 0.5974 0.52279 0.46139 0.0
H4070 H 0.5562 0.5287 0.41423 0.0
C4071 C 0.5908 0.54317 0.35906 0.0
C4072 C 0.60701 0.54015 0.40953 0.0
C4073 C 0.59654 0.54317 0.34104 0.0
C4074 C 0.57911 0.52806 0.4813 0.0
C4075 C 0.58556 0.52837 0.46358 0.0
C4076 C 0.57046 0.5321 0.41325 0.0
C4077 C 0.60069 0.537 0.37389 0.0
C4078 C 0.59456 0.53672 0.39314 0.0
C4079 C 0.57657 0.53542 0.44875 0.0
C4080 C 0.5829 0.53553 0.42962 0.0
H4081 H 0.63445 0.52612 0.34989 0.0
H4082 H 0.62433 0.5257 0.38091 0.0
H4083 H 0.56616 0.52962 0.38315 0.0
H4084 H 0.54305 0.54784 0.47179 0.0
H4085 H 0.55422 0.54846 0.44149 0.0
C4086 C 0.29442 0.88782 0.05636 0.0
C4087 C 0.28347 0.89974 0.05094 0.0
C4088 C 0.294 0.88195 0.07401 0.0
C4089 C 0.26565 0.87059 0.10898 0.0
H4090 H 0.31068 0.87333 0.14029 0.0
C4091 C 0.28556 0.8486 0.18416 0.0
C4092 C 0.29856 0.83779 0.18267 0.0
C4093 C 0.27833 0.85495 0.16811 0.0
C4094 C 0.29801 0.8726 0.13169 0.0
H4095 H 0.26357 0.91507 0.05913 0.0
H4096 H 0.26227 0.90405 0.09016 0.0
H4097 H 0.31009 0.88979 0.1129 0.0
H4098 H 0.31247 0.823 0.16363 0.0
H4099 H 0.29976 0.83406 0.1355 0.0
H4100 H 0.25381 0.85269 0.12764 0.0
C4101 C 0.27132 0.89957 0.08082 0.0
C4102 C 0.29768 0.88201 0.11618 0.0
C4103 C 0.27211 0.90586 0.06327 0.0
C4104 C 0.30271 0.83165 0.16495 0.0
C4105 C 0.29533 0.83777 0.14896 0.0
C4106 C 0.266 0.86107 0.12464 0.0
C4107 C 0.2823 0.88761 0.08622 0.0
C4108 C 0.28165 0.8806 0.10441 0.0
C4109 C 0.28399 0.85028 0.15065 0.0
C4110 C 0.28234 0.86164 0.13562 0.0
H4111 H 0.30337 0.88316 0.04698 0.0
H4112 H 0.30255 0.87268 0.078 0.0
H4113 H 0.25319 0.86934 0.09989 0.0
H4114 H 0.28211 0.85324 0.19782 0.0
H4115 H 0.26967 0.8647 0.16958 0.0
C4116 C 0.9053 0.5245 0.86365 0.0
C4117 C 0.91424 0.51868 0.84873 0.0
C4118 C 0.91099 0.52189 0.88189 0.0
C4119 C 0.93933 0.49968 0.91154 0.0
H4120 H 0.95669 0.54748 0.93773 0.0
C4121 C 0.99712 0.51475 0.97053 0.0
C4122 C 0.9957 0.52688 0.98603 0.0
C4123 C 0.98463 0.51233 0.9547 0.0
C4124 C 0.95157 0.53402 0.93087 0.0
H4125 H 0.93505 0.50445 0.84065 0.0
H4126 H 0.94541 0.50035 0.87289 0.0
H4127 H 0.9367 0.54359 0.90873 0.0
H4128 H 0.98067 0.5464 0.99709 0.0
H4129 H 0.95856 0.54176 0.96964 0.0
H4130 H 0.95453 0.49015 0.93364 0.0
C4131 C 0.93393 0.50673 0.87035 0.0
C4132 C 0.94013 0.5318 0.91434 0.0
C4133 C 0.9283 0.50942 0.85207 0.0
C4134 C 0.98205 0.53698 0.98527 0.0
C4135 C 0.96941 0.53433 0.9696 0.0
C4136 C 0.9506 0.50186 0.92832 0.0
C4137 C 0.92559 0.51341 0.88532 0.0
C4138 C 0.93437 0.51472 0.90438 0.0
C4139 C 0.9705 0.52184 0.95432 0.0
C4140 C 0.95717 0.51912 0.93778 0.0
H4141 H 0.89416 0.53138 0.8613 0.0
H4142 H 0.90452 0.52717 0.89341 0.0
H4143 H 0.93497 0.48643 0.90386 0.0
H4144 H 0.00743 0.50665 0.97084 0.0
H4145 H 0.98596 0.50293 0.94285 0.0
C4146 C 0.27402 0.21734 0.57269 0.0
C4147 C 0.27435 0.19914 0.56765 0.0
C4148 C 0.27509 0.2243 0.59174 0.0
C4149 C 0.26891 0.20953 0.63942 0.0
H4150 H 0.29287 0.25822 0.65753 0.0
C4151 C 0.28294 0.23616 0.719 0.0
C4152 C 0.27936 0.25327 0.72451 0.0
C4153 C 0.28238 0.22985 0.69992 0.0
C4154 C 0.28599 0.24464 0.65266 0.0
H4155 H 0.27651 0.17413 0.57884 0.0
H4156 H 0.27871 0.18619 0.61171 0.0
H4157 H 0.29233 0.24681 0.62445 0.0
H4158 H 0.27246 0.27715 0.71404 0.0
H4159 H 0.27175 0.26621 0.68071 0.0
H4160 H 0.26289 0.20728 0.66774 0.0
C4161 C 0.27721 0.19512 0.60109 0.0
C4162 C 0.28562 0.23807 0.63362 0.0
C4163 C 0.27609 0.18819 0.58213 0.0
C4164 C 0.27526 0.26391 0.71036 0.0
C4165 C 0.27496 0.25768 0.69123 0.0
C4166 C 0.26944 0.21603 0.65846 0.0
C4167 C 0.27653 0.21325 0.60627 0.0
C4168 C 0.27705 0.2204 0.62665 0.0
C4169 C 0.27846 0.24053 0.68574 0.0
C4170 C 0.27794 0.23369 0.66537 0.0
H4171 H 0.27271 0.22616 0.56192 0.0
H4172 H 0.27437 0.23828 0.59501 0.0
H4173 H 0.26183 0.196 0.6347 0.0
H4174 H 0.28613 0.22755 0.72946 0.0
H4175 H 0.28528 0.21664 0.69627 0.0
C4176 C 0.62065 0.53972 0.21503 0.0
C4177 C 0.60953 0.53383 0.22858 0.0
C4178 C 0.61395 0.53818 0.19599 0.0
C4179 C 0.57452 0.51608 0.16071 0.0
H4180 H 0.5963 0.55168 0.13079 0.0
C4181 C 0.55291 0.51094 0.07993 0.0
C4182 C 0.55426 0.52681 0.07124 0.0
C4183 C 0.55994 0.51125 0.09882 0.0
C4184 C 0.58971 0.54171 0.13881 0.0
H4185 H 0.58251 0.52155 0.23254 0.0
H4186 H 0.57054 0.51937 0.19936 0.0
H4187 H 0.60663 0.55379 0.16383 0.0
H4188 H 0.56499 0.55522 0.07568 0.0
H4189 H 0.57561 0.55624 0.10856 0.0
H4190 H 0.55678 0.50468 0.1359 0.0
C4191 C 0.58464 0.52489 0.20337 0.0
C4192 C 0.59601 0.54271 0.15794 0.0
C4193 C 0.59144 0.52627 0.2225 0.0
C4194 C 0.56312 0.54287 0.08192 0.0
C4195 C 0.56966 0.54331 0.10089 0.0
C4196 C 0.56794 0.51529 0.14161 0.0
C4197 C 0.59577 0.53092 0.18976 0.0
C4198 C 0.58863 0.52987 0.16927 0.0
C4199 C 0.56826 0.52751 0.10978 0.0
C4200 C 0.57542 0.5281 0.13025 0.0
H4201 H 0.6347 0.54548 0.21911 0.0
H4202 H 0.62321 0.54257 0.18615 0.0
H4203 H 0.56856 0.50572 0.16868 0.0
H4204 H 0.54649 0.49819 0.07211 0.0
H4205 H 0.55892 0.49864 0.10469 0.0
C4206 C 0.27628 0.89285 0.93048 0.0
C4207 C 0.28638 0.88949 0.94662 0.0
C4208 C 0.28001 0.88653 0.9128 0.0
C4209 C 0.29905 0.85049 0.89164 0.0
H4210 H 0.2928 0.8737 0.84639 0.0
C4211 C 0.30237 0.8139 0.82048 0.0
C4212 C 0.28696 0.81323 0.80796 0.0
C4213 C 0.30614 0.82646 0.83628 0.0
C4214 C 0.29473 0.86723 0.85901 0.0
H4215 H 0.30901 0.87835 0.95744 0.0
H4216 H 0.31588 0.86762 0.92647 0.0
H4217 H 0.29286 0.89055 0.87722 0.0
H4218 H 0.26355 0.82502 0.80144 0.0
H4219 H 0.26985 0.84672 0.82965 0.0
H4220 H 0.3003 0.82707 0.87363 0.0
C4221 C 0.3047 0.87451 0.92742 0.0
C4222 C 0.29472 0.87677 0.87651 0.0
C4223 C 0.30068 0.88044 0.94506 0.0
C4224 C 0.27546 0.82535 0.81111 0.0
C4225 C 0.2792 0.83788 0.82698 0.0
C4226 C 0.29919 0.84107 0.87427 0.0
C4227 C 0.29414 0.87714 0.9112 0.0
C4228 C 0.29653 0.8683 0.8929 0.0
C4229 C 0.29441 0.83828 0.83976 0.0
C4230 C 0.29671 0.84927 0.85787 0.0
H4231 H 0.26539 0.90015 0.93156 0.0
H4232 H 0.27153 0.8885 0.90049 0.0
H4233 H 0.3 0.8435 0.90401 0.0
H4234 H 0.31155 0.80482 0.818 0.0
H4235 H 0.31798 0.82668 0.84602 0.0
C4236 C 0.92822 0.53459 0.74239 0.0
C4237 C 0.91158 0.52401 0.74415 0.0
C4238 C 0.93354 0.53662 0.72458 0.0
C4239 C 0.92517 0.51348 0.67677 0.0
H4240 H 0.95342 0.55747 0.66452 0.0
C4241 C 0.95615 0.51244 0.60931 0.0
C4242 C 0.97478 0.51523 0.614 0.0
C4243 C 0.94549 0.51875 0.62212 0.0
C4244 C 0.94525 0.54524 0.6677 0.0
H4245 H 0.88732 0.50746 0.72895 0.0
H4246 H 0.89645 0.51124 0.69801 0.0
H4247 H 0.9403 0.55736 0.69434 0.0
H4248 H 0.99728 0.52829 0.63423 0.0
H4249 H 0.97864 0.53942 0.65677 0.0
H4250 H 0.93052 0.5012 0.65057 0.0
C4251 C 0.90551 0.51777 0.71026 0.0
C4252 C 0.93795 0.5451 0.68476 0.0
C4253 C 0.90028 0.51564 0.72797 0.0
C4254 C 0.98286 0.52584 0.63065 0.0
C4255 C 0.97224 0.53238 0.64333 0.0
C4256 C 0.93223 0.51369 0.65971 0.0
C4257 C 0.92223 0.52815 0.70838 0.0
C4258 C 0.92827 0.52908 0.68961 0.0
C4259 C 0.95347 0.52805 0.63956 0.0
C4260 C 0.94271 0.52942 0.65528 0.0
H4261 H 0.93711 0.5412 0.75471 0.0
H4262 H 0.94664 0.54447 0.72352 0.0
H4263 H 0.91808 0.50085 0.68027 0.0
H4264 H 0.9498 0.50437 0.59636 0.0
H4265 H 0.93102 0.51529 0.61902 0.0
C4266 C 0.26714 0.18464 0.4426 0.0
C4267 C 0.27047 0.19664 0.45924 0.0
C4268 C 0.26771 0.19088 0.42494 0.0
C4269 C 0.28414 0.23108 0.40102 0.0
H4270 H 0.25147 0.20417 0.35908 0.0
C4271 C 0.29015 0.24522 0.32322 0.0
C4272 C 0.27418 0.24329 0.31106 0.0
C4273 C 0.28984 0.24004 0.34146 0.0
C4274 C 0.26062 0.21201 0.3706 0.0
H4275 H 0.27705 0.22473 0.47025 0.0
H4276 H 0.27771 0.23573 0.43934 0.0
H4277 H 0.25009 0.19489 0.39033 0.0
H4278 H 0.24528 0.23607 0.3091 0.0
H4279 H 0.24463 0.22649 0.34043 0.0
H4280 H 0.29426 0.24851 0.38122 0.0
C4281 C 0.27492 0.22141 0.43996 0.0
C4282 C 0.26 0.2065 0.38861 0.0
C4283 C 0.27443 0.21512 0.45772 0.0
C4284 C 0.25788 0.23663 0.3177 0.0
C4285 C 0.25753 0.23134 0.33582 0.0
C4286 C 0.2847 0.23665 0.38295 0.0
C4287 C 0.27151 0.20936 0.42325 0.0
C4288 C 0.27184 0.21583 0.40413 0.0
C4289 C 0.2735 0.23291 0.34802 0.0
C4290 C 0.27299 0.22714 0.36742 0.0
H4291 H 0.26416 0.1703 0.44318 0.0
H4292 H 0.26539 0.18108 0.41258 0.0
H4293 H 0.29359 0.23859 0.41247 0.0
H4294 H 0.30285 0.25094 0.31869 0.0
H4295 H 0.30243 0.24151 0.35036 0.0
C4296 C 0.31445 0.59131 0.55269 0.0
C4297 C 0.31174 0.60847 0.54937 0.0
C4298 C 0.33186 0.58789 0.55489 0.0
C4299 C 0.37444 0.60405 0.53893 0.0
H4300 H 0.39385 0.57487 0.57401 0.0
C4301 C 0.43936 0.5853 0.52706 0.0
C4302 C 0.43682 0.56666 0.52332 0.0
C4303 C 0.42808 0.59293 0.5381 0.0
C4304 C 0.38862 0.58326 0.56436 0.0
H4305 H 0.32482 0.63573 0.54669 0.0
H4306 H 0.35489 0.62976 0.55068 0.0
H4307 H 0.36433 0.58273 0.57723 0.0
H4308 H 0.42255 0.54116 0.52949 0.0
H4309 H 0.40204 0.55445 0.54808 0.0
H4310 H 0.39795 0.60401 0.52541 0.0
C4311 C 0.34373 0.61893 0.55134 0.0
C4312 C 0.37179 0.58758 0.56609 0.0
C4313 C 0.32651 0.62229 0.54901 0.0
C4314 C 0.42428 0.55562 0.53209 0.0
C4315 C 0.41284 0.56323 0.54294 0.0
C4316 C 0.39113 0.59983 0.53725 0.0
C4317 C 0.34653 0.60165 0.55384 0.0
C4318 C 0.36458 0.59781 0.5532 0.0
C4319 C 0.414 0.58189 0.54503 0.0
C4320 C 0.39826 0.58917 0.54974 0.0
H4321 H 0.3032 0.58055 0.55319 0.0
H4322 H 0.33381 0.5744 0.55666 0.0
H4323 H 0.36894 0.61161 0.52854 0.0
H4324 H 0.44937 0.59387 0.52063 0.0
H4325 H 0.42932 0.60737 0.5398 0.0
C4326 C 0.85921 0.91681 0.54657 0.0
C4327 C 0.8444 0.92021 0.53522 0.0
C4328 C 0.87658 0.92598 0.54513 0.0
C4329 C 0.90361 0.95172 0.5131 0.0
H4330 H 0.93488 0.9719 0.55878 0.0
C4331 C 0.96927 0.00372 0.51299 0.0
C4332 C 0.98426 1.00149 0.52487 0.0
C4333 C 0.9523 0.99336 0.51402 0.0
C4334 C 0.92641 0.9662 0.54586 0.0
H4335 H 0.83619 0.93558 0.51322 0.0
H4336 H 0.86641 0.95146 0.51063 0.0
H4337 H 0.9055 0.95391 0.56088 0.0
H4338 H 0.99317 0.98688 0.5473 0.0
H4339 H 0.96379 0.96906 0.54914 0.0
H4340 H 0.92457 0.96403 0.49809 0.0
C4341 C 0.86466 0.94176 0.52066 0.0
C4342 C 0.90956 0.95584 0.54708 0.0
C4343 C 0.84732 0.93279 0.52228 0.0
C4344 C 0.98187 0.98899 0.53799 0.0
C4345 C 0.96499 0.97879 0.5391 0.0
C4346 C 0.9205 0.96205 0.51188 0.0
C4347 C 0.87951 0.93853 0.5321 0.0
C4348 C 0.89787 0.94863 0.53073 0.0
C4349 C 0.94998 0.98073 0.52707 0.0
C4350 C 0.93205 0.96956 0.52826 0.0
H4351 H 0.85737 0.90713 0.55661 0.0
H4352 H 0.88774 0.92309 0.55406 0.0
H4353 H 0.89506 0.94608 0.50022 0.0
H4354 H 0.97075 0.01304 0.50256 0.0
H4355 H 0.94098 0.99528 0.50463 0.0
C4356 C 0.90349 0.07753 0.26879 0.0
C4357 C 0.89403 0.06135 0.25876 0.0
C4358 C 0.89679 0.09335 0.26807 0.0
C4359 C 0.86355 0.11478 0.24139 0.0
H4360 H 0.87015 0.14661 0.28799 0.0
C4361 C 0.82494 0.17314 0.25778 0.0
C4362 C 0.83449 0.18825 0.26959 0.0
C4363 C 0.83332 0.15868 0.25285 0.0
C4364 C 0.86842 0.13804 0.27476 0.0
H4365 H 0.87018 0.04916 0.23984 0.0
H4366 H 0.85817 0.07682 0.23891 0.0
H4367 H 0.88183 0.11907 0.28723 0.0
H4368 H 0.86049 0.20085 0.2842 0.0
H4369 H 0.87521 0.1759 0.27533 0.0
H4370 H 0.84952 0.13376 0.22921 0.0
C4371 C 0.87094 0.0773 0.24715 0.0
C4372 C 0.87514 0.12218 0.27431 0.0
C4373 C 0.87773 0.0614 0.24781 0.0
C4374 C 0.8529 0.1894 0.27493 0.0
C4375 C 0.86124 0.17501 0.27005 0.0
C4376 C 0.85664 0.13067 0.2419 0.0
C4377 C 0.88033 0.09347 0.25742 0.0
C4378 C 0.8729 0.11033 0.25762 0.0
C4379 C 0.85133 0.15913 0.25979 0.0
C4380 C 0.8591 0.14253 0.25859 0.0
H4381 H 0.91617 0.07802 0.27723 0.0
H4382 H 0.90463 0.10555 0.27585 0.0
H4383 H 0.86172 0.1061 0.22824 0.0
H4384 H 0.81066 0.17184 0.25378 0.0
H4385 H 0.82532 0.14663 0.24494 0.0
C4386 C 0.69975 0.10998 0.0469 0.0
C4387 C 0.71112 0.10023 0.03792 0.0
C4388 C 0.6814 0.10583 0.04179 0.0
C4389 C 0.64774 0.08425 0.00284 0.0
H4390 H 0.61565 0.08566 0.04141 0.0
C4391 C 0.57529 0.04827 0.99899 0.0
C4392 C 0.56423 0.05619 0.01024 0.0
C4393 C 0.59225 0.0577 0.99711 0.0
C4394 C 0.62445 0.08571 0.03043 0.0
H4395 H 0.71239 0.07796 0.01728 0.0
H4396 H 0.67979 0.07014 0.00869 0.0
H4397 H 0.6477 0.09144 0.05053 0.0
H4398 H 0.56067 0.08027 0.02677 0.0
H4399 H 0.59049 0.09694 0.02349 0.0
H4400 H 0.62411 0.07749 0.98283 0.0
C4401 C 0.68528 0.08133 0.01934 0.0
C4402 C 0.64279 0.08884 0.03567 0.0
C4403 C 0.70381 0.0856 0.02441 0.0
C4404 C 0.56921 0.07411 0.01798 0.0
C4405 C 0.58614 0.08358 0.01607 0.0
C4406 C 0.62926 0.08091 0.99758 0.0
C4407 C 0.67401 0.09167 0.02776 0.0
C4408 C 0.65459 0.08804 0.02196 0.0
C4409 C 0.59819 0.07495 0.00676 0.0
C4410 C 0.61752 0.08154 0.01138 0.0
H4411 H 0.70507 0.12135 0.05741 0.0
H4412 H 0.67307 0.11413 0.0484 0.0
H4413 H 0.65663 0.08383 0.992 0.0
H4414 H 0.57141 0.03435 0.99299 0.0
H4415 H 0.60135 0.05075 0.98995 0.0
C4416 C 0.19185 0.48237 0.25995 0.0
C4417 C 0.20187 0.496 0.25154 0.0
C4418 C 0.19523 0.46519 0.25758 0.0
C4419 C 0.21353 0.43274 0.23012 0.0
H4420 H 0.22189 0.41561 0.27871 0.0
C4421 C 0.2466 0.37544 0.25656 0.0
C4422 C 0.23763 0.36741 0.27061 0.0
C4423 C 0.23881 0.38724 0.24637 0.0
C4424 C 0.21932 0.42016 0.26505 0.0
H4425 H 0.22282 0.50256 0.23359 0.0
H4426 H 0.22927 0.47202 0.22998 0.0
H4427 H 0.21723 0.44602 0.27742 0.0
H4428 H 0.21278 0.3626 0.28309 0.0
H4429 H 0.19908 0.38331 0.2652 0.0
H4430 H 0.21614 0.40657 0.21793 0.0
C4431 C 0.21868 0.47485 0.23816 0.0
C4432 C 0.21684 0.43752 0.26433 0.0
C4433 C 0.21524 0.49222 0.2405 0.0
C4434 C 0.21993 0.36908 0.27253 0.0
C4435 C 0.21202 0.38058 0.2621 0.0
C4436 C 0.21621 0.41517 0.23085 0.0
C4437 C 0.2088 0.4614 0.24694 0.0
C4438 C 0.21352 0.44377 0.24693 0.0
C4439 C 0.22209 0.39085 0.25026 0.0
C4440 C 0.21862 0.40877 0.24837 0.0
H4441 H 0.18131 0.48492 0.26835 0.0
H4442 H 0.18743 0.45487 0.26436 0.0
H4443 H 0.21101 0.43755 0.2166 0.0
H4444 H 0.26024 0.37397 0.25481 0.0
H4445 H 0.24676 0.39519 0.23737 0.0
C4446 C 0.2302 0.40405 0.027 0.0
C4447 C 0.24635 0.41367 0.03694 0.0
C4448 C 0.21437 0.41075 0.02748 0.0
C4449 C 0.19304 0.44468 0.05318 0.0
H4450 H 0.16111 0.43684 0.00655 0.0
C4451 C 0.13539 0.48337 0.03463 0.0
C4452 C 0.12022 0.47364 0.02304 0.0
C4453 C 0.14963 0.47494 0.04016 0.0
C4454 C 0.16971 0.43891 0.01979 0.0
H4455 H 0.25855 0.4378 0.0554 0.0
H4456 H 0.2309 0.44988 0.05581 0.0
H4457 H 0.1886 0.42506 0.00781 0.0
H4458 H 0.10722 0.44738 0.00946 0.0
H4459 H 0.13181 0.43256 0.01941 0.0
H4460 H 0.17417 0.45923 0.06481 0.0
C4461 C 0.23041 0.43695 0.0479 0.0
C4462 C 0.18553 0.43213 0.02054 0.0
C4463 C 0.2463 0.43012 0.04754 0.0
C4464 C 0.11875 0.4551 0.01853 0.0
C4465 C 0.13291 0.44669 0.02403 0.0
C4466 C 0.17719 0.45167 0.05237 0.0
C4467 C 0.21425 0.42739 0.03774 0.0
C4468 C 0.19741 0.43482 0.03724 0.0
C4469 C 0.14888 0.4567 0.03405 0.0
C4470 C 0.16532 0.44876 0.03566 0.0
H4471 H 0.22973 0.39123 0.01885 0.0
H4472 H 0.20217 0.40278 0.01983 0.0
H4473 H 0.20175 0.44687 0.06635 0.0
H4474 H 0.13689 0.49774 0.03801 0.0
H4475 H 0.16177 0.483 0.04785 0.0
C4476 C 0.87113 0.96073 0.26876 0.0
C4477 C 0.88724 0.96358 0.26054 0.0
C4478 C 0.86221 0.9433 0.27027 0.0
C4479 C 0.85765 0.89605 0.25013 0.0
H4480 H 0.83814 0.88564 0.29653 0.0
C4481 C 0.82495 0.82382 0.2615 0.0
C4482 C 0.81009 0.82172 0.27181 0.0
C4483 C 0.83499 0.84088 0.26042 0.0
C4484 C 0.84324 0.88831 0.28334 0.0
H4485 H 0.9065 0.95032 0.2473 0.0
H4486 H 0.89087 0.91995 0.2498 0.0
H4487 H 0.85401 0.91576 0.29384 0.0
H4488 H 0.79445 0.83607 0.28939 0.0
H4489 H 0.8112 0.86568 0.28668 0.0
H4490 H 0.8466 0.86877 0.23943 0.0
C4491 C 0.8851 0.93117 0.25503 0.0
C4492 C 0.85241 0.90562 0.28184 0.0
C4493 C 0.89409 0.94859 0.25365 0.0
C4494 C 0.80556 0.83712 0.281 0.0
C4495 C 0.81543 0.85418 0.27972 0.0
C4496 C 0.84831 0.87877 0.25155 0.0
C4497 C 0.8691 0.9283 0.26347 0.0
C4498 C 0.85964 0.90975 0.26518 0.0
C4499 C 0.83034 0.85635 0.26947 0.0
C4500 C 0.84085 0.87465 0.26814 0.0
H4501 H 0.86552 0.97198 0.27425 0.0
H4502 H 0.84981 0.94157 0.27665 0.0
H4503 H 0.86292 0.89879 0.23703 0.0
H4504 H 0.829 0.81226 0.25442 0.0
H4505 H 0.84655 0.84189 0.25269 0.0
C4506 C 0.72165 0.10237 0.76875 0.0
C4507 C 0.70646 0.09537 0.75587 0.0
C4508 C 0.72644 0.12078 0.77371 0.0
C4509 C 0.72002 0.16355 0.75837 0.0
H4510 H 0.73406 0.18105 0.81127 0.0
C4511 C 0.73651 0.23725 0.78218 0.0
C4512 C 0.75519 0.24172 0.78665 0.0
C4513 C 0.72776 0.2198 0.78262 0.0
C4514 C 0.72991 0.1762 0.79654 0.0
H4515 H 0.68481 0.10176 0.73733 0.0
H4516 H 0.69308 0.13384 0.74617 0.0
H4517 H 0.72497 0.14876 0.80163 0.0
H4518 H 0.77931 0.23275 0.79684 0.0
H4519 H 0.76377 0.20193 0.79814 0.0
H4520 H 0.72508 0.19095 0.75328 0.0
C4521 C 0.70133 0.12523 0.75234 0.0
C4522 C 0.72497 0.15789 0.79101 0.0
C4523 C 0.69661 0.10691 0.74732 0.0
C4524 C 0.76488 0.22927 0.79331 0.0
C4525 C 0.75602 0.21188 0.79421 0.0
C4526 C 0.7247 0.1818 0.76393 0.0
C4527 C 0.71605 0.13224 0.76584 0.0
C4528 C 0.72036 0.15149 0.77184 0.0
C4529 C 0.73764 0.20696 0.78795 0.0
C4530 C 0.72992 0.18812 0.78298 0.0
H4531 H 0.72936 0.09364 0.77552 0.0
H4532 H 0.73807 0.12602 0.7839 0.0
H4533 H 0.71672 0.15888 0.7435 0.0
H4534 H 0.72892 0.24679 0.77682 0.0
H4535 H 0.71361 0.21602 0.77751 0.0
loop_
_geom_bond_atom_site_label_1
_geom_bond_atom_site_label_2
_geom_bond_distance
_geom_bond_site_symmetry_2
_ccdc_geom_bond_type
In0 O1 2.294 . S
In0 O2 2.326 . S
In0 O6 2.266 . S
In0 O7 2.326 . S
In0 O8 2.266 . S
In0 O9 2.326 . S
In0 O11 2.294 . S
In0 O12 2.326 . S
O1 In0 2.294 . S
O1 C10 1.240 . S
O2 In0 2.326 . S
O2 C10 1.252 . S
C3 O6 1.252 . S
C3 O7 1.260 . S
C4 O11 1.240 . S
C4 O12 1.252 . S
C5 O8 1.252 . S
C5 O9 1.260 . S
O6 In0 2.266 . S
O6 C3 1.252 . S
O7 In0 2.326 . S
O7 C3 1.260 . S
O8 In0 2.266 . S
O8 C5 1.252 . S
O9 In0 2.326 . S
O9 C5 1.260 . S
C10 O1 1.240 . S
C10 O2 1.252 . S
O11 In0 2.294 . S
O11 C4 1.240 . S
O12 In0 2.326 . S
O12 C4 1.252 . S
In13 O14 2.294 . S
In13 O15 2.326 . S
In13 O19 2.266 . S
In13 O20 2.326 . S
In13 O21 2.266 1_455 S
In13 O22 2.326 1_455 S
In13 O24 2.294 . S
In13 O25 2.326 . S
O14 In13 2.294 . S
O14 C23 1.240 . S
O15 In13 2.326 . S
O15 C23 1.252 . S
C16 O19 1.252 . S
C16 O20 1.260 . S
C17 O24 1.240 . S
C17 O25 1.252 . S
C18 O21 1.252 . S
C18 O22 1.260 . S
O19 In13 2.266 . S
O19 C16 1.252 . S
O20 In13 2.326 . S
O20 C16 1.260 . S
O21 In13 2.266 1_655 S
O21 C18 1.252 . S
O22 In13 2.326 1_655 S
O22 C18 1.260 . S
C23 O14 1.240 . S
C23 O15 1.252 . S
O24 In13 2.294 . S
O24 C17 1.240 . S
O25 In13 2.326 . S
O25 C17 1.252 . S
In26 O27 2.294 . S
In26 O28 2.326 . S
In26 O32 2.266 . S
In26 O33 2.326 . S
In26 O34 2.266 . S
In26 O35 2.326 . S
In26 O37 2.294 . S
In26 O38 2.326 . S
O27 In26 2.294 . S
O27 C36 1.240 . S
O28 In26 2.326 . S
O28 C36 1.252 . S
C29 O32 1.252 . S
C29 O33 1.260 . S
C30 O37 1.240 . S
C30 O38 1.252 . S
C31 O34 1.252 . S
C31 O35 1.260 . S
O32 In26 2.266 . S
O32 C29 1.252 . S
O33 In26 2.326 . S
O33 C29 1.260 . S
O34 In26 2.266 . S
O34 C31 1.252 . S
O35 In26 2.326 . S
O35 C31 1.260 . S
C36 O27 1.240 . S
C36 O28 1.252 . S
O37 In26 2.294 . S
O37 C30 1.240 . S
O38 In26 2.326 . S
O38 C30 1.252 . S
In39 O40 2.294 . S
In39 O41 2.326 . S
In39 O45 2.266 . S
In39 O46 2.326 . S
In39 O47 2.266 . S
In39 O48 2.326 . S
In39 O50 2.294 . S
In39 O51 2.326 . S
O40 In39 2.294 . S
O40 C49 1.240 . S
O41 In39 2.326 . S
O41 C49 1.252 . S
C42 O45 1.252 . S
C42 O46 1.260 . S
C43 O50 1.240 . S
C43 O51 1.252 . S
C44 O47 1.252 . S
C44 O48 1.260 . S
O45 In39 2.266 . S
O45 C42 1.252 . S
O46 In39 2.326 . S
O46 C42 1.260 . S
O47 In39 2.266 . S
O47 C44 1.252 . S
O48 In39 2.326 . S
O48 C44 1.260 . S
C49 O40 1.240 . S
C49 O41 1.252 . S
O50 In39 2.294 . S
O50 C43 1.240 . S
O51 In39 2.326 . S
O51 C43 1.252 . S
In52 O53 2.294 . S
In52 O54 2.326 . S
In52 O58 2.266 . S
In52 O59 2.326 . S
In52 O60 2.266 . S
In52 O61 2.326 . S
In52 O63 2.294 . S
In52 O64 2.326 . S
O53 In52 2.294 . S
O53 C62 1.240 . S
O54 In52 2.326 . S
O54 C62 1.252 . S
C55 O58 1.252 . S
C55 O59 1.260 . S
C56 O63 1.240 . S
C56 O64 1.252 . S
C57 O60 1.252 . S
C57 O61 1.260 . S
O58 In52 2.266 . S
O58 C55 1.252 . S
O59 In52 2.326 . S
O59 C55 1.260 . S
O60 In52 2.266 . S
O60 C57 1.252 . S
O61 In52 2.326 . S
O61 C57 1.260 . S
C62 O53 1.240 . S
C62 O54 1.252 . S
O63 In52 2.294 . S
O63 C56 1.240 . S
O64 In52 2.326 . S
O64 C56 1.252 . S
In65 O66 2.294 . S
In65 O67 2.326 . S
In65 O71 2.266 . S
In65 O72 2.326 . S
In65 O73 2.266 . S
In65 O74 2.326 . S
In65 O76 2.294 . S
In65 O77 2.326 . S
O66 In65 2.294 . S
O66 C75 1.240 . S
O67 In65 2.326 . S
O67 C75 1.252 . S
C68 O71 1.252 . S
C68 O72 1.260 . S
C69 O76 1.240 . S
C69 O77 1.252 . S
C70 O73 1.252 . S
C70 O74 1.260 . S
O71 In65 2.266 . S
O71 C68 1.252 . S
O72 In65 2.326 . S
O72 C68 1.260 . S
O73 In65 2.266 . S
O73 C70 1.252 . S
O74 In65 2.326 . S
O74 C70 1.260 . S
C75 O66 1.240 . S
C75 O67 1.252 . S
O76 In65 2.294 . S
O76 C69 1.240 . S
O77 In65 2.326 . S
O77 C69 1.252 . S
In78 O79 2.294 . S
In78 O80 2.326 . S
In78 O84 2.266 . S
In78 O85 2.326 . S
In78 O86 2.266 . S
In78 O87 2.326 . S
In78 O89 2.294 . S
In78 O90 2.326 . S
O79 In78 2.294 . S
O79 C88 1.240 . S
O80 In78 2.326 . S
O80 C88 1.252 . S
C81 O84 1.252 . S
C81 O85 1.260 . S
C82 O89 1.240 . S
C82 O90 1.252 . S
C83 O86 1.252 . S
C83 O87 1.260 . S
O84 In78 2.266 . S
O84 C81 1.252 . S
O85 In78 2.326 . S
O85 C81 1.260 . S
O86 In78 2.266 . S
O86 C83 1.252 . S
O87 In78 2.326 . S
O87 C83 1.260 . S
C88 O79 1.240 . S
C88 O80 1.252 . S
O89 In78 2.294 . S
O89 C82 1.240 . S
O90 In78 2.326 . S
O90 C82 1.252 . S
In91 O92 2.294 . S
In91 O93 2.328 1_455 S
In91 O97 2.266 1_455 S
In91 O98 2.332 . S
In91 O99 2.264 1_455 S
In91 O100 2.323 1_455 S
In91 O102 2.296 . S
In91 O103 2.329 . S
O92 In91 2.294 . S
O92 C101 1.240 . S
O93 In91 2.328 1_655 S
O93 C101 1.252 1_655 S
C94 O97 1.254 1_455 S
C94 O98 1.259 . S
C95 O102 1.240 . S
C95 O103 1.252 . S
C96 O99 1.252 . S
C96 O100 1.260 . S
O97 In91 2.266 1_655 S
O97 C94 1.254 1_655 S
O98 In91 2.332 . S
O98 C94 1.259 . S
O99 In91 2.264 1_655 S
O99 C96 1.252 . S
O100 In91 2.323 1_655 S
O100 C96 1.260 . S
C101 O92 1.240 . S
C101 O93 1.252 1_455 S
O102 In91 2.296 . S
O102 C95 1.240 . S
O103 In91 2.329 . S
O103 C95 1.252 . S
In104 O105 2.294 . S
In104 O106 2.326 . S
In104 O110 2.266 . S
In104 O111 2.326 . S
In104 O112 2.266 1_545 S
In104 O113 2.326 1_545 S
In104 O115 2.294 . S
In104 O116 2.326 . S
O105 In104 2.294 . S
O105 C114 1.240 . S
O106 In104 2.326 . S
O106 C114 1.252 . S
C107 O110 1.252 . S
C107 O111 1.260 . S
C108 O115 1.240 . S
C108 O116 1.252 . S
C109 O112 1.252 . S
C109 O113 1.260 . S
O110 In104 2.266 . S
O110 C107 1.252 . S
O111 In104 2.326 . S
O111 C107 1.260 . S
O112 In104 2.266 1_565 S
O112 C109 1.252 . S
O113 In104 2.326 1_565 S
O113 C109 1.260 . S
C114 O105 1.240 . S
C114 O106 1.252 . S
O115 In104 2.294 . S
O115 C108 1.240 . S
O116 In104 2.326 . S
O116 C108 1.252 . S
In117 O118 2.294 . S
In117 O119 2.326 . S
In117 O123 2.266 . S
In117 O124 2.326 . S
In117 O125 2.266 . S
In117 O126 2.326 . S
In117 O128 2.294 . S
In117 O129 2.326 . S
O118 In117 2.294 . S
O118 C127 1.240 . S
O119 In117 2.326 . S
O119 C127 1.252 . S
C120 O123 1.252 . S
C120 O124 1.260 . S
C121 O128 1.240 . S
C121 O129 1.252 . S
C122 O125 1.252 . S
C122 O126 1.260 . S
O123 In117 2.266 . S
O123 C120 1.252 . S
O124 In117 2.326 . S
O124 C120 1.260 . S
O125 In117 2.266 . S
O125 C122 1.252 . S
O126 In117 2.326 . S
O126 C122 1.260 . S
C127 O118 1.240 . S
C127 O119 1.252 . S
O128 In117 2.294 . S
O128 C121 1.240 . S
O129 In117 2.326 . S
O129 C121 1.252 . S
In130 O131 2.294 . S
In130 O132 2.326 . S
In130 O136 2.266 . S
In130 O137 2.326 . S
In130 O138 2.266 . S
In130 O139 2.326 . S
In130 O141 2.294 . S
In130 O142 2.326 . S
O131 In130 2.294 . S
O131 C140 1.240 . S
O132 In130 2.326 . S
O132 C140 1.252 . S
C133 O136 1.252 . S
C133 O137 1.260 . S
C134 O141 1.240 . S
C134 O142 1.252 . S
C135 O138 1.252 . S
C135 O139 1.260 . S
O136 In130 2.266 . S
O136 C133 1.252 . S
O137 In130 2.326 . S
O137 C133 1.260 . S
O138 In130 2.266 . S
O138 C135 1.252 . S
O139 In130 2.326 . S
O139 C135 1.260 . S
C140 O131 1.240 . S
C140 O132 1.252 . S
O141 In130 2.294 . S
O141 C134 1.240 . S
O142 In130 2.326 . S
O142 C134 1.252 . S
In143 O144 2.296 . S
In143 O145 2.329 . S
In143 O149 2.264 1_554 S
In143 O150 2.322 1_554 S
In143 O151 2.266 1_554 S
In143 O152 2.322 1_554 S
In143 O154 2.294 . S
In143 O155 2.327 . S
O144 In143 2.296 . S
O144 C153 1.240 . S
O145 In143 2.329 . S
O145 C153 1.252 . S
C146 O149 1.252 . S
C146 O150 1.260 . S
C147 O154 1.240 . S
C147 O155 1.252 . S
C148 O151 1.252 . S
C148 O152 1.266 . S
O149 In143 2.264 1_556 S
O149 C146 1.252 . S
O150 In143 2.322 1_556 S
O150 C146 1.260 . S
O151 In143 2.266 1_556 S
O151 C148 1.252 . S
O152 In143 2.322 1_556 S
O152 C148 1.266 . S
C153 O144 1.240 . S
C153 O145 1.252 . S
O154 In143 2.294 . S
O154 C147 1.240 . S
O155 In143 2.327 . S
O155 C147 1.252 . S
In156 O157 2.294 . S
In156 O158 2.326 . S
In156 O162 2.266 . S
In156 O163 2.326 . S
In156 O164 2.266 . S
In156 O165 2.326 . S
In156 O167 2.294 . S
In156 O168 2.326 . S
O157 In156 2.294 . S
O157 C166 1.240 . S
O158 In156 2.326 . S
O158 C166 1.252 . S
C159 O162 1.252 . S
C159 O163 1.260 . S
C160 O167 1.240 . S
C160 O168 1.252 . S
C161 O164 1.252 . S
C161 O165 1.260 . S
O162 In156 2.266 . S
O162 C159 1.252 . S
O163 In156 2.326 . S
O163 C159 1.260 . S
O164 In156 2.266 . S
O164 C161 1.252 . S
O165 In156 2.326 . S
O165 C161 1.260 . S
C166 O157 1.240 . S
C166 O158 1.252 . S
O167 In156 2.294 . S
O167 C160 1.240 . S
O168 In156 2.326 . S
O168 C160 1.252 . S
In169 O170 2.294 . S
In169 O171 2.326 . S
In169 O175 2.266 . S
In169 O176 2.326 . S
In169 O177 2.266 . S
In169 O178 2.326 . S
In169 O180 2.294 . S
In169 O181 2.326 . S
O170 In169 2.294 . S
O170 C179 1.240 . S
O171 In169 2.326 . S
O171 C179 1.252 . S
C172 O175 1.252 . S
C172 O176 1.260 . S
C173 O180 1.240 . S
C173 O181 1.252 . S
C174 O177 1.252 . S
C174 O178 1.260 . S
O175 In169 2.266 . S
O175 C172 1.252 . S
O176 In169 2.326 . S
O176 C172 1.260 . S
O177 In169 2.266 . S
O177 C174 1.252 . S
O178 In169 2.326 . S
O178 C174 1.260 . S
C179 O170 1.240 . S
C179 O171 1.252 . S
O180 In169 2.294 . S
O180 C173 1.240 . S
O181 In169 2.326 . S
O181 C173 1.252 . S
In182 O183 2.294 . S
In182 O184 2.326 . S
In182 O188 2.266 . S
In182 O189 2.326 . S
In182 O190 2.266 . S
In182 O191 2.326 . S
In182 O193 2.294 . S
In182 O194 2.326 . S
O183 In182 2.294 . S
O183 C192 1.240 . S
O184 In182 2.326 . S
O184 C192 1.252 . S
C185 O188 1.252 . S
C185 O189 1.260 . S
C186 O193 1.240 . S
C186 O194 1.252 . S
C187 O190 1.252 . S
C187 O191 1.260 . S
O188 In182 2.266 . S
O188 C185 1.252 . S
O189 In182 2.326 . S
O189 C185 1.260 . S
O190 In182 2.266 . S
O190 C187 1.252 . S
O191 In182 2.326 . S
O191 C187 1.260 . S
C192 O183 1.240 . S
C192 O184 1.252 . S
O193 In182 2.294 . S
O193 C186 1.240 . S
O194 In182 2.326 . S
O194 C186 1.252 . S
In195 O196 2.294 . S
In195 O197 2.326 . S
In195 O201 2.266 . S
In195 O202 2.326 . S
In195 O203 2.266 . S
In195 O204 2.326 . S
In195 O206 2.294 . S
In195 O207 2.326 . S
O196 In195 2.294 . S
O196 C205 1.240 . S
O197 In195 2.326 . S
O197 C205 1.252 . S
C198 O201 1.252 . S
C198 O202 1.260 . S
C199 O206 1.240 . S
C199 O207 1.252 . S
C200 O203 1.252 . S
C200 O204 1.260 . S
O201 In195 2.266 . S
O201 C198 1.252 . S
O202 In195 2.326 . S
O202 C198 1.260 . S
O203 In195 2.266 . S
O203 C200 1.252 . S
O204 In195 2.326 . S
O204 C200 1.260 . S
C205 O196 1.240 . S
C205 O197 1.252 . S
O206 In195 2.294 . S
O206 C199 1.240 . S
O207 In195 2.326 . S
O207 C199 1.252 . S
In208 O209 2.294 . S
In208 O210 2.326 . S
In208 O214 2.266 . S
In208 O215 2.326 . S
In208 O216 2.266 1_545 S
In208 O217 2.326 1_545 S
In208 O219 2.294 . S
In208 O220 2.326 . S
O209 In208 2.294 . S
O209 C218 1.240 . S
O210 In208 2.326 . S
O210 C218 1.252 . S
C211 O214 1.252 . S
C211 O215 1.260 . S
C212 O219 1.240 . S
C212 O220 1.252 . S
C213 O216 1.252 . S
C213 O217 1.260 . S
O214 In208 2.266 . S
O214 C211 1.252 . S
O215 In208 2.326 . S
O215 C211 1.260 . S
O216 In208 2.266 1_565 S
O216 C213 1.252 . S
O217 In208 2.326 1_565 S
O217 C213 1.260 . S
C218 O209 1.240 . S
C218 O210 1.252 . S
O219 In208 2.294 . S
O219 C212 1.240 . S
O220 In208 2.326 . S
O220 C212 1.252 . S
In221 O222 2.294 . S
In221 O223 2.326 . S
In221 O227 2.266 . S
In221 O228 2.326 . S
In221 O229 2.266 . S
In221 O230 2.326 . S
In221 O232 2.294 . S
In221 O233 2.326 . S
O222 In221 2.294 . S
O222 C231 1.240 . S
O223 In221 2.326 . S
O223 C231 1.252 . S
C224 O227 1.252 . S
C224 O228 1.260 . S
C225 O232 1.240 . S
C225 O233 1.252 . S
C226 O229 1.252 . S
C226 O230 1.260 . S
O227 In221 2.266 . S
O227 C224 1.252 . S
O228 In221 2.326 . S
O228 C224 1.260 . S
O229 In221 2.266 . S
O229 C226 1.252 . S
O230 In221 2.326 . S
O230 C226 1.260 . S
C231 O222 1.240 . S
C231 O223 1.252 . S
O232 In221 2.294 . S
O232 C225 1.240 . S
O233 In221 2.326 . S
O233 C225 1.252 . S
In234 O235 2.294 . S
In234 O236 2.326 . S
In234 O240 2.266 . S
In234 O241 2.326 . S
In234 O242 2.266 . S
In234 O243 2.326 . S
In234 O245 2.294 . S
In234 O246 2.326 . S
O235 In234 2.294 . S
O235 C244 1.240 . S
O236 In234 2.326 . S
O236 C244 1.252 . S
C237 O240 1.252 . S
C237 O241 1.260 . S
C238 O245 1.240 . S
C238 O246 1.252 . S
C239 O242 1.252 . S
C239 O243 1.260 . S
O240 In234 2.266 . S
O240 C237 1.252 . S
O241 In234 2.326 . S
O241 C237 1.260 . S
O242 In234 2.266 . S
O242 C239 1.252 . S
O243 In234 2.326 . S
O243 C239 1.260 . S
C244 O235 1.240 . S
C244 O236 1.252 . S
O245 In234 2.294 . S
O245 C238 1.240 . S
O246 In234 2.326 . S
O246 C238 1.252 . S
In247 O248 2.294 . S
In247 O249 2.326 . S
In247 O253 2.266 . S
In247 O254 2.326 . S
In247 O255 2.266 . S
In247 O256 2.326 . S
In247 O258 2.294 . S
In247 O259 2.326 . S
O248 In247 2.294 . S
O248 C257 1.240 . S
O249 In247 2.326 . S
O249 C257 1.252 . S
C250 O253 1.252 . S
C250 O254 1.260 . S
C251 O258 1.240 . S
C251 O259 1.252 . S
C252 O255 1.252 . S
C252 O256 1.260 . S
O253 In247 2.266 . S
O253 C250 1.252 . S
O254 In247 2.326 . S
O254 C250 1.260 . S
O255 In247 2.266 . S
O255 C252 1.252 . S
O256 In247 2.326 . S
O256 C252 1.260 . S
C257 O248 1.240 . S
C257 O249 1.252 . S
O258 In247 2.294 . S
O258 C251 1.240 . S
O259 In247 2.326 . S
O259 C251 1.252 . S
In260 O261 2.294 . S
In260 O262 2.326 . S
In260 O266 2.266 . S
In260 O267 2.326 . S
In260 O268 2.266 1_554 S
In260 O269 2.326 1_554 S
In260 O271 2.294 . S
In260 O272 2.326 . S
O261 In260 2.294 . S
O261 C270 1.240 . S
O262 In260 2.326 . S
O262 C270 1.252 . S
C263 O266 1.252 . S
C263 O267 1.260 . S
C264 O271 1.240 . S
C264 O272 1.252 . S
C265 O268 1.252 . S
C265 O269 1.260 . S
O266 In260 2.266 . S
O266 C263 1.252 . S
O267 In260 2.326 . S
O267 C263 1.260 . S
O268 In260 2.266 1_556 S
O268 C265 1.252 . S
O269 In260 2.326 1_556 S
O269 C265 1.260 . S
C270 O261 1.240 . S
C270 O262 1.252 . S
O271 In260 2.294 . S
O271 C264 1.240 . S
O272 In260 2.326 . S
O272 C264 1.252 . S
In273 O274 2.294 . S
In273 O275 2.326 . S
In273 O279 2.266 . S
In273 O280 2.326 . S
In273 O281 2.266 . S
In273 O282 2.326 . S
In273 O284 2.294 . S
In273 O285 2.326 . S
O274 In273 2.294 . S
O274 C283 1.240 . S
O275 In273 2.326 . S
O275 C283 1.252 . S
C276 O279 1.252 . S
C276 O280 1.260 . S
C277 O284 1.240 . S
C277 O285 1.252 . S
C278 O281 1.252 . S
C278 O282 1.260 . S
O279 In273 2.266 . S
O279 C276 1.252 . S
O280 In273 2.326 . S
O280 C276 1.260 . S
O281 In273 2.266 . S
O281 C278 1.252 . S
O282 In273 2.326 . S
O282 C278 1.260 . S
C283 O274 1.240 . S
C283 O275 1.252 . S
O284 In273 2.294 . S
O284 C277 1.240 . S
O285 In273 2.326 . S
O285 C277 1.252 . S
In286 O287 2.294 . S
In286 O288 2.326 . S
In286 O292 2.266 . S
In286 O293 2.326 . S
In286 O294 2.266 . S
In286 O295 2.326 . S
In286 O297 2.294 . S
In286 O298 2.326 . S
O287 In286 2.294 . S
O287 C296 1.240 . S
O288 In286 2.326 . S
O288 C296 1.252 . S
C289 O292 1.252 . S
C289 O293 1.260 . S
C290 O297 1.240 . S
C290 O298 1.252 . S
C291 O294 1.252 . S
C291 O295 1.260 . S
O292 In286 2.266 . S
O292 C289 1.252 . S
O293 In286 2.326 . S
O293 C289 1.260 . S
O294 In286 2.266 . S
O294 C291 1.252 . S
O295 In286 2.326 . S
O295 C291 1.260 . S
C296 O287 1.240 . S
C296 O288 1.252 . S
O297 In286 2.294 . S
O297 C290 1.240 . S
O298 In286 2.326 . S
O298 C290 1.252 . S
In299 O300 2.294 . S
In299 O301 2.326 . S
In299 O305 2.266 . S
In299 O306 2.326 . S
In299 O307 2.266 . S
In299 O308 2.326 . S
In299 O310 2.294 . S
In299 O311 2.326 . S
O300 In299 2.294 . S
O300 C309 1.240 . S
O301 In299 2.326 . S
O301 C309 1.252 . S
C302 O305 1.252 . S
C302 O306 1.260 . S
C303 O310 1.240 . S
C303 O311 1.252 . S
C304 O307 1.252 . S
C304 O308 1.260 . S
O305 In299 2.266 . S
O305 C302 1.252 . S
O306 In299 2.326 . S
O306 C302 1.260 . S
O307 In299 2.266 . S
O307 C304 1.252 . S
O308 In299 2.326 . S
O308 C304 1.260 . S
C309 O300 1.240 . S
C309 O301 1.252 . S
O310 In299 2.294 . S
O310 C303 1.240 . S
O311 In299 2.326 . S
O311 C303 1.252 . S
C312 C314 1.422 . S
C312 C316 1.415 1_554 S
C312 N318 1.369 1_564 S
C313 C314 1.421 . S
C313 C315 1.417 . S
C313 C325 1.422 . S
C314 C312 1.422 . S
C314 C313 1.421 . S
C314 N324 1.359 1_565 S
C315 C313 1.417 . S
C315 C317 1.329 1_554 S
C315 H334 0.930 . S
C316 C312 1.415 1_556 S
C316 C317 1.437 . S
C316 C320 1.413 . S
C317 C315 1.329 1_556 S
C317 C316 1.437 . S
C317 H339 0.929 . S
N318 C312 1.369 1_546 S
N318 C319 1.324 1_655 S
N318 Gd323 2.622 1_656 S
C319 N318 1.324 1_455 S
C319 C321 1.376 1_445 S
C319 H331 0.949 . S
C320 C316 1.413 . S
C320 C321 1.348 . S
C320 H336 0.931 . S
C321 C319 1.376 1_665 S
C321 C320 1.348 . S
C321 H337 0.930 . S
Gd322 N342 2.622 . S
Gd322 N349 2.570 . S
Gd322 O356 2.353 . S
Gd322 O357 2.468 . S
Gd322 O358 2.427 . S
Gd322 O360 2.388 . S
Gd322 O361 2.386 . S
Gd322 O365 2.307 . S
Gd322 C375 2.805 . S
Gd323 N318 2.622 1_454 S
Gd323 N324 2.570 1_455 S
Gd323 O355 2.386 . S
Gd323 O359 2.307 . S
Gd323 O362 2.353 . S
Gd323 O363 2.468 1_455 S
Gd323 O364 2.427 1_455 S
Gd323 O366 2.354 1_554 S
Gd323 C387 2.805 1_455 S
N324 C314 1.359 1_545 S
N324 Gd323 2.570 1_655 S
N324 C326 1.343 . S
C325 C313 1.422 . S
C325 C327 1.321 . S
C325 H333 0.931 . S
C326 N324 1.343 . S
C326 C327 1.390 1_545 S
C326 H328 0.931 . S
C327 C325 1.321 . S
C327 C326 1.390 1_565 S
C327 H329 0.930 . S
H328 C326 0.931 . S
H329 C327 0.930 . S
H330 C353 0.931 . S
H331 C319 0.949 . S
H332 C354 0.930 . S
H333 C325 0.931 . S
H334 C315 0.930 . S
H335 C344 0.929 . S
H336 C320 0.931 . S
H337 C321 0.930 . S
H338 C376 0.930 . S
H339 C317 0.929 . S
H340 C345 0.931 . S
H341 C346 0.930 . S
N342 Gd322 2.622 . S
N342 C343 1.369 . S
N342 C344 1.338 . S
C343 N342 1.369 . S
C343 C347 1.415 . S
C343 C350 1.422 . S
C344 H335 0.929 . S
C344 N342 1.338 . S
C344 C346 1.378 . S
C345 H340 0.931 . S
C345 C346 1.348 . S
C345 C347 1.413 . S
C346 H341 0.930 . S
C346 C344 1.378 . S
C346 C345 1.348 . S
C347 C343 1.415 . S
C347 C345 1.413 . S
C347 C377 1.437 . S
H348 C377 0.929 . S
N349 Gd322 2.570 . S
N349 C350 1.359 . S
N349 C353 1.343 . S
C350 C343 1.422 . S
C350 N349 1.359 . S
C350 C352 1.421 . S
C351 C352 1.422 . S
C351 C354 1.321 . S
C351 H378 0.931 . S
C352 C350 1.421 . S
C352 C351 1.422 . S
C352 C376 1.417 . S
C353 H330 0.931 . S
C353 N349 1.343 . S
C353 C354 1.390 . S
C354 H332 0.930 . S
C354 C351 1.321 . S
C354 C353 1.390 . S
O355 Gd323 2.386 . S
O355 C367 1.265 . S
O356 Gd322 2.353 . S
O356 C367 1.242 . S
O357 Gd322 2.468 . S
O357 C375 1.263 . S
O358 Gd322 2.427 . S
O358 C375 1.252 . S
O359 Gd323 2.307 . S
O359 C368 1.261 . S
O360 Gd322 2.388 . S
O360 C368 1.252 . S
O361 Gd322 2.386 . S
O361 C379 1.265 . S
O362 Gd323 2.353 . S
O362 C379 1.242 . S
O363 Gd323 2.468 1_655 S
O363 C387 1.263 . S
O364 Gd323 2.427 1_655 S
O364 C387 1.252 . S
O365 Gd322 2.307 . S
O365 C380 1.261 . S
O366 Gd323 2.354 1_556 S
O366 C380 1.248 1_556 S
C367 O355 1.265 . S
C367 O356 1.242 . S
C368 O359 1.261 . S
C368 O360 1.252 . S
C369 C372 1.394 . S
C369 C374 1.370 . S
C369 C375 1.500 . S
C370 C373 1.383 . S
C370 C374 1.395 . S
C371 C372 1.396 . S
C371 C373 1.365 . S
C371 H388 0.929 . S
C372 C369 1.394 . S
C372 C371 1.396 . S
C372 H389 0.930 . S
C373 C370 1.383 . S
C373 C371 1.365 . S
C373 H390 0.931 . S
C374 C369 1.370 . S
C374 C370 1.395 . S
C374 H391 0.930 . S
C375 Gd322 2.805 . S
C375 O357 1.263 . S
C375 O358 1.252 . S
C375 C369 1.500 . S
C376 H338 0.930 . S
C376 C352 1.417 . S
C376 C377 1.329 . S
C377 C347 1.437 . S
C377 H348 0.929 . S
C377 C376 1.329 . S
H378 C351 0.931 . S
C379 O361 1.265 . S
C379 O362 1.242 . S
C380 O365 1.261 . S
C380 O366 1.248 1_554 S
C381 C384 1.394 1_554 S
C381 C386 1.370 . S
C381 C387 1.500 . S
C382 C385 1.383 . S
C382 C386 1.395 . S
C383 C384 1.396 . S
C383 C385 1.365 1_556 S
C383 H392 0.929 . S
C384 C381 1.394 1_556 S
C384 C383 1.396 . S
C384 H393 0.930 . S
C385 C382 1.383 . S
C385 C383 1.365 1_554 S
C385 H394 0.931 . S
C386 C381 1.370 . S
C386 C382 1.395 . S
C386 H395 0.930 . S
C387 Gd323 2.805 1_655 S
C387 O363 1.263 . S
C387 O364 1.252 . S
C387 C381 1.500 . S
H388 C371 0.929 . S
H389 C372 0.930 . S
H390 C373 0.931 . S
H391 C374 0.930 . S
H392 C383 0.929 . S
H393 C384 0.930 . S
H394 C385 0.931 . S
H395 C386 0.930 . S
C396 C398 1.422 . S
C396 C400 1.415 . S
C396 N402 1.369 . S
C397 C398 1.421 . S
C397 C399 1.417 . S
C397 C409 1.422 . S
C398 C396 1.422 . S
C398 C397 1.421 . S
C398 N408 1.359 . S
C399 C397 1.417 . S
C399 C401 1.329 . S
C399 H418 0.930 . S
C400 C396 1.415 . S
C400 C401 1.437 . S
C400 C404 1.413 . S
C401 C399 1.329 . S
C401 C400 1.437 . S
C401 H423 0.929 . S
N402 C396 1.369 . S
N402 C403 1.338 . S
N402 Gd407 2.622 . S
C403 N402 1.338 . S
C403 C405 1.378 . S
C403 H415 0.929 . S
C404 C400 1.413 . S
C404 C405 1.348 . S
C404 H420 0.931 . S
C405 C403 1.378 . S
C405 C404 1.348 . S
C405 H421 0.930 . S
Gd406 N426 2.622 . S
Gd406 N433 2.570 . S
Gd406 O440 2.353 . S
Gd406 O441 2.468 . S
Gd406 O442 2.427 . S
Gd406 O444 2.388 . S
Gd406 O445 2.386 . S
Gd406 O449 2.307 . S
Gd406 C459 2.805 . S
Gd407 N402 2.622 . S
Gd407 N408 2.570 . S
Gd407 O439 2.386 . S
Gd407 O443 2.307 . S
Gd407 O446 2.353 . S
Gd407 O447 2.468 . S
Gd407 O448 2.427 . S
Gd407 O450 2.388 . S
Gd407 C471 2.805 . S
N408 C398 1.359 . S
N408 Gd407 2.570 . S
N408 C410 1.343 . S
C409 C397 1.422 . S
C409 C411 1.321 . S
C409 H417 0.931 . S
C410 N408 1.343 . S
C410 C411 1.390 . S
C410 H412 0.931 . S
C411 C409 1.321 . S
C411 C410 1.390 . S
C411 H413 0.930 . S
H412 C410 0.931 . S
H413 C411 0.930 . S
H414 C437 0.931 . S
H415 C403 0.929 . S
H416 C438 0.930 . S
H417 C409 0.931 . S
H418 C399 0.930 . S
H419 C428 0.929 . S
H420 C404 0.931 . S
H421 C405 0.930 . S
H422 C460 0.930 . S
H423 C401 0.929 . S
H424 C429 0.931 . S
H425 C430 0.930 . S
N426 Gd406 2.622 . S
N426 C427 1.369 . S
N426 C428 1.338 . S
C427 N426 1.369 . S
C427 C431 1.415 . S
C427 C434 1.422 . S
C428 H419 0.929 . S
C428 N426 1.338 . S
C428 C430 1.378 . S
C429 H424 0.931 . S
C429 C430 1.348 . S
C429 C431 1.413 . S
C430 H425 0.930 . S
C430 C428 1.378 . S
C430 C429 1.348 . S
C431 C427 1.415 . S
C431 C429 1.413 . S
C431 C461 1.437 . S
H432 C461 0.929 . S
N433 Gd406 2.570 . S
N433 C434 1.359 . S
N433 C437 1.343 . S
C434 C427 1.422 . S
C434 N433 1.359 . S
C434 C436 1.421 . S
C435 C436 1.422 . S
C435 C438 1.321 . S
C435 H462 0.931 . S
C436 C434 1.421 . S
C436 C435 1.422 . S
C436 C460 1.417 . S
C437 H414 0.931 . S
C437 N433 1.343 . S
C437 C438 1.390 . S
C438 H416 0.930 . S
C438 C435 1.321 . S
C438 C437 1.390 . S
O439 Gd407 2.386 . S
O439 C451 1.265 . S
O440 Gd406 2.353 . S
O440 C451 1.242 . S
O441 Gd406 2.468 . S
O441 C459 1.263 . S
O442 Gd406 2.427 . S
O442 C459 1.252 . S
O443 Gd407 2.307 . S
O443 C452 1.261 . S
O444 Gd406 2.388 . S
O444 C452 1.252 . S
O445 Gd406 2.386 . S
O445 C463 1.265 . S
O446 Gd407 2.353 . S
O446 C463 1.242 . S
O447 Gd407 2.468 . S
O447 C471 1.263 . S
O448 Gd407 2.427 . S
O448 C471 1.252 . S
O449 Gd406 2.307 . S
O449 C464 1.261 . S
O450 Gd407 2.388 . S
O450 C464 1.252 . S
C451 O439 1.265 . S
C451 O440 1.242 . S
C452 O443 1.261 . S
C452 O444 1.252 . S
C453 C456 1.394 . S
C453 C458 1.370 . S
C453 C459 1.500 . S
C454 C457 1.383 . S
C454 C458 1.395 . S
C455 C456 1.396 . S
C455 C457 1.365 . S
C455 H472 0.929 . S
C456 C453 1.394 . S
C456 C455 1.396 . S
C456 H473 0.930 . S
C457 C454 1.383 . S
C457 C455 1.365 . S
C457 H474 0.931 . S
C458 C453 1.370 . S
C458 C454 1.395 . S
C458 H475 0.930 . S
C459 Gd406 2.805 . S
C459 O441 1.263 . S
C459 O442 1.252 . S
C459 C453 1.500 . S
C460 H422 0.930 . S
C460 C436 1.417 . S
C460 C461 1.329 . S
C461 C431 1.437 . S
C461 H432 0.929 . S
C461 C460 1.329 . S
H462 C435 0.931 . S
C463 O445 1.265 . S
C463 O446 1.242 . S
C464 O449 1.261 . S
C464 O450 1.252 . S
C465 C468 1.394 . S
C465 C470 1.370 . S
C465 C471 1.500 . S
C466 C469 1.383 . S
C466 C470 1.395 . S
C467 C468 1.396 . S
C467 C469 1.365 . S
C467 H476 0.929 . S
C468 C465 1.394 . S
C468 C467 1.396 . S
C468 H477 0.930 . S
C469 C466 1.383 . S
C469 C467 1.365 . S
C469 H478 0.931 . S
C470 C465 1.370 . S
C470 C466 1.395 . S
C470 H479 0.930 . S
C471 Gd407 2.805 . S
C471 O447 1.263 . S
C471 O448 1.252 . S
C471 C465 1.500 . S
H472 C455 0.929 . S
H473 C456 0.930 . S
H474 C457 0.931 . S
H475 C458 0.930 . S
H476 C467 0.929 . S
H477 C468 0.930 . S
H478 C469 0.931 . S
H479 C470 0.930 . S
C480 C482 1.422 . S
C480 C484 1.415 . S
C480 N486 1.369 . S
C481 C482 1.421 . S
C481 C483 1.417 . S
C481 C493 1.422 . S
C482 C480 1.422 . S
C482 C481 1.421 . S
C482 N492 1.359 . S
C483 C481 1.417 . S
C483 C485 1.329 . S
C483 H502 0.930 . S
C484 C480 1.415 . S
C484 C485 1.437 . S
C484 C488 1.413 . S
C485 C483 1.329 . S
C485 C484 1.437 . S
C485 H507 0.929 . S
N486 C480 1.369 . S
N486 C487 1.338 . S
N486 Gd491 2.622 . S
C487 N486 1.338 . S
C487 C489 1.378 . S
C487 H499 0.929 . S
C488 C484 1.413 . S
C488 C489 1.348 . S
C488 H504 0.931 . S
C489 C487 1.378 . S
C489 C488 1.348 . S
C489 H505 0.930 . S
Gd490 N510 2.622 1_545 S
Gd490 N517 2.570 1_545 S
Gd490 O524 2.353 . S
Gd490 O525 2.468 . S
Gd490 O526 2.427 . S
Gd490 O528 2.388 . S
Gd490 O529 2.386 1_545 S
Gd490 O533 2.307 . S
Gd490 C543 2.805 . S
Gd491 N486 2.622 . S
Gd491 N492 2.570 . S
Gd491 O523 2.386 . S
Gd491 O527 2.307 . S
Gd491 O530 2.353 1_545 S
Gd491 O531 2.468 . S
Gd491 O532 2.427 . S
Gd491 O534 2.388 . S
Gd491 C555 2.805 . S
N492 C482 1.359 . S
N492 Gd491 2.570 . S
N492 C494 1.343 . S
C493 C481 1.422 . S
C493 C495 1.321 . S
C493 H501 0.931 . S
C494 N492 1.343 . S
C494 C495 1.390 . S
C494 H496 0.931 . S
C495 C493 1.321 . S
C495 C494 1.390 . S
C495 H497 0.930 . S
H496 C494 0.931 . S
H497 C495 0.930 . S
H498 C521 0.931 . S
H499 C487 0.929 . S
H500 C522 0.930 . S
H501 C493 0.931 . S
H502 C483 0.930 . S
H503 C512 0.929 1_545 S
H504 C488 0.931 . S
H505 C489 0.930 . S
H506 C544 0.930 . S
H507 C485 0.929 . S
H508 C513 0.931 . S
H509 C514 0.930 . S
N510 Gd490 2.622 1_565 S
N510 C511 1.369 . S
N510 C512 1.338 . S
C511 N510 1.369 . S
C511 C515 1.415 . S
C511 C518 1.422 . S
C512 H503 0.929 1_565 S
C512 N510 1.338 . S
C512 C514 1.378 . S
C513 H508 0.931 . S
C513 C514 1.348 . S
C513 C515 1.413 . S
C514 H509 0.930 . S
C514 C512 1.378 . S
C514 C513 1.348 . S
C515 C511 1.415 . S
C515 C513 1.413 . S
C515 C545 1.437 . S
H516 C545 0.929 . S
N517 Gd490 2.570 1_565 S
N517 C518 1.359 . S
N517 C521 1.343 . S
C518 C511 1.422 . S
C518 N517 1.359 . S
C518 C520 1.421 . S
C519 C520 1.422 . S
C519 C522 1.321 . S
C519 H546 0.931 . S
C520 C518 1.421 . S
C520 C519 1.422 . S
C520 C544 1.417 . S
C521 H498 0.931 . S
C521 N517 1.343 . S
C521 C522 1.390 . S
C522 H500 0.930 . S
C522 C519 1.321 . S
C522 C521 1.390 . S
O523 Gd491 2.386 . S
O523 C535 1.265 . S
O524 Gd490 2.353 . S
O524 C535 1.242 . S
O525 Gd490 2.468 . S
O525 C543 1.263 . S
O526 Gd490 2.427 . S
O526 C543 1.252 . S
O527 Gd491 2.307 . S
O527 C536 1.261 . S
O528 Gd490 2.388 . S
O528 C536 1.252 . S
O529 Gd490 2.386 1_565 S
O529 C547 1.265 . S
O530 Gd491 2.353 1_565 S
O530 C547 1.242 . S
O531 Gd491 2.468 . S
O531 C555 1.263 . S
O532 Gd491 2.427 . S
O532 C555 1.252 . S
O533 Gd490 2.307 . S
O533 C548 1.261 . S
O534 Gd491 2.388 . S
O534 C548 1.252 . S
C535 O523 1.265 . S
C535 O524 1.242 . S
C536 O527 1.261 . S
C536 O528 1.252 . S
C537 C540 1.394 . S
C537 C542 1.370 . S
C537 C543 1.500 . S
C538 C541 1.383 . S
C538 C542 1.395 . S
C539 C540 1.396 . S
C539 C541 1.365 . S
C539 H556 0.929 . S
C540 C537 1.394 . S
C540 C539 1.396 . S
C540 H557 0.930 . S
C541 C538 1.383 . S
C541 C539 1.365 . S
C541 H558 0.931 . S
C542 C537 1.370 . S
C542 C538 1.395 . S
C542 H559 0.930 . S
C543 Gd490 2.805 . S
C543 O525 1.263 . S
C543 O526 1.252 . S
C543 C537 1.500 . S
C544 H506 0.930 . S
C544 C520 1.417 . S
C544 C545 1.329 . S
C545 C515 1.437 . S
C545 H516 0.929 . S
C545 C544 1.329 . S
H546 C519 0.931 . S
C547 O529 1.265 . S
C547 O530 1.242 . S
C548 O533 1.261 . S
C548 O534 1.252 . S
C549 C552 1.394 . S
C549 C554 1.370 . S
C549 C555 1.500 1_565 S
C550 C553 1.383 . S
C550 C554 1.395 . S
C551 C552 1.396 . S
C551 C553 1.365 . S
C551 H560 0.929 . S
C552 C549 1.394 . S
C552 C551 1.396 . S
C552 H561 0.930 . S
C553 C550 1.383 . S
C553 C551 1.365 . S
C553 H562 0.931 . S
C554 C549 1.370 . S
C554 C550 1.395 . S
C554 H563 0.930 . S
C555 Gd491 2.805 . S
C555 O531 1.263 . S
C555 O532 1.252 . S
C555 C549 1.500 1_545 S
H556 C539 0.929 . S
H557 C540 0.930 . S
H558 C541 0.931 . S
H559 C542 0.930 . S
H560 C551 0.929 . S
H561 C552 0.930 . S
H562 C553 0.931 . S
H563 C554 0.930 . S
C564 C566 1.422 . S
C564 C568 1.415 . S
C564 N570 1.369 . S
C565 C566 1.421 . S
C565 C567 1.417 . S
C565 C577 1.422 . S
C566 C564 1.422 . S
C566 C565 1.421 . S
C566 N576 1.359 . S
C567 C565 1.417 . S
C567 C569 1.329 . S
C567 H586 0.930 . S
C568 C564 1.415 . S
C568 C569 1.437 . S
C568 C572 1.413 . S
C569 C567 1.329 . S
C569 C568 1.437 . S
C569 H591 0.929 . S
N570 C564 1.369 . S
N570 C571 1.338 . S
N570 Gd575 2.622 . S
C571 N570 1.338 . S
C571 C573 1.378 . S
C571 H583 0.929 . S
C572 C568 1.413 . S
C572 C573 1.348 . S
C572 H588 0.931 . S
C573 C571 1.378 . S
C573 C572 1.348 . S
C573 H589 0.930 . S
Gd574 N594 2.622 . S
Gd574 N601 2.570 . S
Gd574 O608 2.353 . S
Gd574 O609 2.468 . S
Gd574 O610 2.427 . S
Gd574 O612 2.388 . S
Gd574 O613 2.386 . S
Gd574 O617 2.307 . S
Gd574 C627 2.805 . S
Gd575 N570 2.622 . S
Gd575 N576 2.570 . S
Gd575 O607 2.386 . S
Gd575 O611 2.307 . S
Gd575 O614 2.353 . S
Gd575 O615 2.468 . S
Gd575 O616 2.427 . S
Gd575 O618 2.388 . S
Gd575 C639 2.805 . S
N576 C566 1.359 . S
N576 Gd575 2.570 . S
N576 C578 1.343 . S
C577 C565 1.422 . S
C577 C579 1.321 . S
C577 H585 0.931 . S
C578 N576 1.343 . S
C578 C579 1.390 . S
C578 H580 0.931 . S
C579 C577 1.321 . S
C579 C578 1.390 . S
C579 H581 0.930 . S
H580 C578 0.931 . S
H581 C579 0.930 . S
H582 C605 0.931 . S
H583 C571 0.929 . S
H584 C606 0.930 . S
H585 C577 0.931 . S
H586 C567 0.930 . S
H587 C596 0.929 . S
H588 C572 0.931 . S
H589 C573 0.930 . S
H590 C628 0.930 . S
H591 C569 0.929 . S
H592 C597 0.931 . S
H593 C598 0.930 . S
N594 Gd574 2.622 . S
N594 C595 1.369 . S
N594 C596 1.338 . S
C595 N594 1.369 . S
C595 C599 1.415 . S
C595 C602 1.422 . S
C596 H587 0.929 . S
C596 N594 1.338 . S
C596 C598 1.378 . S
C597 H592 0.931 . S
C597 C598 1.348 . S
C597 C599 1.413 . S
C598 H593 0.930 . S
C598 C596 1.378 . S
C598 C597 1.348 . S
C599 C595 1.415 . S
C599 C597 1.413 . S
C599 C629 1.437 . S
H600 C629 0.929 . S
N601 Gd574 2.570 . S
N601 C602 1.359 . S
N601 C605 1.343 . S
C602 C595 1.422 . S
C602 N601 1.359 . S
C602 C604 1.421 . S
C603 C604 1.422 . S
C603 C606 1.321 . S
C603 H630 0.931 . S
C604 C602 1.421 . S
C604 C603 1.422 . S
C604 C628 1.417 . S
C605 H582 0.931 . S
C605 N601 1.343 . S
C605 C606 1.390 . S
C606 H584 0.930 . S
C606 C603 1.321 . S
C606 C605 1.390 . S
O607 Gd575 2.386 . S
O607 C619 1.265 . S
O608 Gd574 2.353 . S
O608 C619 1.242 . S
O609 Gd574 2.468 . S
O609 C627 1.263 . S
O610 Gd574 2.427 . S
O610 C627 1.252 . S
O611 Gd575 2.307 . S
O611 C620 1.261 . S
O612 Gd574 2.388 . S
O612 C620 1.252 . S
O613 Gd574 2.386 . S
O613 C631 1.265 . S
O614 Gd575 2.353 . S
O614 C631 1.242 . S
O615 Gd575 2.468 . S
O615 C639 1.263 . S
O616 Gd575 2.427 . S
O616 C639 1.252 . S
O617 Gd574 2.307 . S
O617 C632 1.261 . S
O618 Gd575 2.388 . S
O618 C632 1.252 . S
C619 O607 1.265 . S
C619 O608 1.242 . S
C620 O611 1.261 . S
C620 O612 1.252 . S
C621 C624 1.394 . S
C621 C626 1.370 . S
C621 C627 1.500 . S
C622 C625 1.383 . S
C622 C626 1.395 . S
C623 C624 1.396 . S
C623 C625 1.365 . S
C623 H640 0.929 . S
C624 C621 1.394 . S
C624 C623 1.396 . S
C624 H641 0.930 . S
C625 C622 1.383 . S
C625 C623 1.365 . S
C625 H642 0.931 . S
C626 C621 1.370 . S
C626 C622 1.395 . S
C626 H643 0.930 . S
C627 Gd574 2.805 . S
C627 O609 1.263 . S
C627 O610 1.252 . S
C627 C621 1.500 . S
C628 H590 0.930 . S
C628 C604 1.417 . S
C628 C629 1.329 . S
C629 C599 1.437 . S
C629 H600 0.929 . S
C629 C628 1.329 . S
H630 C603 0.931 . S
C631 O613 1.265 . S
C631 O614 1.242 . S
C632 O617 1.261 . S
C632 O618 1.252 . S
C633 C636 1.394 . S
C633 C638 1.370 . S
C633 C639 1.500 . S
C634 C637 1.383 . S
C634 C638 1.395 . S
C635 C636 1.396 . S
C635 C637 1.365 . S
C635 H644 0.929 . S
C636 C633 1.394 . S
C636 C635 1.396 . S
C636 H645 0.930 . S
C637 C634 1.383 . S
C637 C635 1.365 . S
C637 H646 0.931 . S
C638 C633 1.370 . S
C638 C634 1.395 . S
C638 H647 0.930 . S
C639 Gd575 2.805 . S
C639 O615 1.263 . S
C639 O616 1.252 . S
C639 C633 1.500 . S
H640 C623 0.929 . S
H641 C624 0.930 . S
H642 C625 0.931 . S
H643 C626 0.930 . S
H644 C635 0.929 . S
H645 C636 0.930 . S
H646 C637 0.931 . S
H647 C638 0.930 . S
C648 C650 1.422 . S
C648 C652 1.415 . S
C648 N654 1.369 . S
C649 C650 1.421 . S
C649 C651 1.417 . S
C649 C661 1.422 . S
C650 C648 1.422 . S
C650 C649 1.421 . S
C650 N660 1.359 . S
C651 C649 1.417 . S
C651 C653 1.329 . S
C651 H670 0.930 . S
C652 C648 1.415 . S
C652 C653 1.437 . S
C652 C656 1.413 1_455 S
C653 C651 1.329 . S
C653 C652 1.437 . S
C653 H675 0.929 . S
N654 C648 1.369 . S
N654 C655 1.338 1_455 S
N654 Gd659 2.622 . S
C655 N654 1.338 1_655 S
C655 C657 1.378 . S
C655 H667 0.929 . S
C656 C652 1.413 1_655 S
C656 C657 1.348 . S
C656 H672 0.931 . S
C657 C655 1.378 . S
C657 C656 1.348 . S
C657 H673 0.930 . S
Gd658 N678 2.622 . S
Gd658 N685 2.570 . S
Gd658 O692 2.353 1_565 S
Gd658 O693 2.468 . S
Gd658 O694 2.427 . S
Gd658 O696 2.388 1_565 S
Gd658 O697 2.386 1_565 S
Gd658 O701 2.307 . S
Gd658 C711 2.805 . S
Gd659 N654 2.622 . S
Gd659 N660 2.570 . S
Gd659 O691 2.386 . S
Gd659 O695 2.307 . S
Gd659 O698 2.353 . S
Gd659 O699 2.468 . S
Gd659 O700 2.427 . S
Gd659 O702 2.388 1_455 S
Gd659 C723 2.805 . S
N660 C650 1.359 . S
N660 Gd659 2.570 . S
N660 C662 1.343 . S
C661 C649 1.422 . S
C661 C663 1.321 . S
C661 H669 0.931 . S
C662 N660 1.343 . S
C662 C663 1.390 . S
C662 H664 0.931 . S
C663 C661 1.321 . S
C663 C662 1.390 . S
C663 H665 0.930 . S
H664 C662 0.931 . S
H665 C663 0.930 . S
H666 C689 0.931 . S
H667 C655 0.929 . S
H668 C690 0.945 . S
H669 C661 0.931 . S
H670 C651 0.930 . S
H671 C680 0.958 . S
H672 C656 0.931 . S
H673 C657 0.930 . S
H674 C712 0.930 . S
H675 C653 0.929 . S
H676 C681 0.931 . S
H677 C682 0.930 . S
N678 Gd658 2.622 . S
N678 C679 1.369 . S
N678 C680 1.338 . S
C679 N678 1.369 . S
C679 C683 1.415 . S
C679 C686 1.422 . S
C680 H671 0.958 . S
C680 N678 1.338 . S
C680 C682 1.378 . S
C681 H676 0.931 . S
C681 C682 1.348 . S
C681 C683 1.413 . S
C682 H677 0.930 . S
C682 C680 1.378 . S
C682 C681 1.348 . S
C683 C679 1.415 . S
C683 C681 1.413 . S
C683 C713 1.437 . S
H684 C713 0.929 . S
N685 Gd658 2.570 . S
N685 C686 1.359 . S
N685 C689 1.343 . S
C686 C679 1.422 . S
C686 N685 1.359 . S
C686 C688 1.421 . S
C687 C688 1.422 . S
C687 C690 1.311 1_455 S
C687 H714 0.931 . S
C688 C686 1.421 . S
C688 C687 1.422 . S
C688 C712 1.417 . S
C689 H666 0.931 . S
C689 N685 1.343 . S
C689 C690 1.385 1_455 S
C690 H668 0.945 . S
C690 C687 1.311 1_655 S
C690 C689 1.385 1_655 S
O691 Gd659 2.386 . S
O691 C703 1.265 . S
O692 Gd658 2.353 1_545 S
O692 C703 1.242 . S
O693 Gd658 2.468 . S
O693 C711 1.263 . S
O694 Gd658 2.427 . S
O694 C711 1.252 . S
O695 Gd659 2.307 . S
O695 C704 1.261 . S
O696 Gd658 2.388 1_545 S
O696 C704 1.252 . S
O697 Gd658 2.386 1_545 S
O697 C715 1.265 . S
O698 Gd659 2.353 . S
O698 C715 1.242 . S
O699 Gd659 2.468 . S
O699 C723 1.263 . S
O700 Gd659 2.427 . S
O700 C723 1.252 . S
O701 Gd658 2.307 . S
O701 C716 1.249 1_465 S
O702 Gd659 2.388 1_655 S
O702 C716 1.256 . S
C703 O691 1.265 . S
C703 O692 1.242 . S
C704 O695 1.261 . S
C704 O696 1.252 . S
C705 C708 1.394 . S
C705 C710 1.370 . S
C705 C711 1.500 . S
C706 C709 1.383 . S
C706 C710 1.395 . S
C707 C708 1.396 . S
C707 C709 1.365 . S
C707 H724 0.929 . S
C708 C705 1.394 . S
C708 C707 1.396 . S
C708 H725 0.930 . S
C709 C706 1.383 . S
C709 C707 1.365 . S
C709 H726 0.931 . S
C710 C705 1.370 . S
C710 C706 1.395 . S
C710 H727 0.930 . S
C711 Gd658 2.805 . S
C711 O693 1.263 . S
C711 O694 1.252 . S
C711 C705 1.500 . S
C712 H674 0.930 . S
C712 C688 1.417 . S
C712 C713 1.329 . S
C713 C683 1.437 . S
C713 H684 0.929 . S
C713 C712 1.329 . S
H714 C687 0.931 . S
C715 O697 1.265 . S
C715 O698 1.242 . S
C716 O701 1.249 1_645 S
C716 O702 1.256 . S
C717 C720 1.394 1_455 S
C717 C722 1.370 . S
C717 C723 1.500 . S
C718 C721 1.383 . S
C718 C722 1.395 . S
C719 C720 1.396 . S
C719 C721 1.365 1_655 S
C719 H728 0.929 . S
C720 C717 1.394 1_655 S
C720 C719 1.396 . S
C720 H729 0.930 . S
C721 C718 1.383 . S
C721 C719 1.365 1_455 S
C721 H730 0.931 . S
C722 C717 1.370 . S
C722 C718 1.395 . S
C722 H731 0.930 . S
C723 Gd659 2.805 . S
C723 O699 1.263 . S
C723 O700 1.252 . S
C723 C717 1.500 . S
H724 C707 0.929 . S
H725 C708 0.930 . S
H726 C709 0.931 . S
H727 C710 0.930 . S
H728 C719 0.929 . S
H729 C720 0.930 . S
H730 C721 0.931 . S
H731 C722 0.930 . S
C732 C734 1.422 . S
C732 C736 1.415 . S
C732 N738 1.369 . S
C733 C734 1.421 . S
C733 C735 1.417 . S
C733 C745 1.422 . S
C734 C732 1.422 . S
C734 C733 1.421 . S
C734 N744 1.359 . S
C735 C733 1.417 . S
C735 C737 1.329 . S
C735 H754 0.930 . S
C736 C732 1.415 . S
C736 C737 1.437 . S
C736 C740 1.413 . S
C737 C735 1.329 . S
C737 C736 1.437 . S
C737 H759 0.929 . S
N738 C732 1.369 . S
N738 C739 1.338 . S
N738 Gd743 2.622 . S
C739 N738 1.338 . S
C739 C741 1.378 . S
C739 H751 0.929 . S
C740 C736 1.413 . S
C740 C741 1.348 . S
C740 H756 0.931 . S
C741 C739 1.378 . S
C741 C740 1.348 . S
C741 H757 0.930 . S
Gd742 N762 2.622 . S
Gd742 N769 2.570 . S
Gd742 O776 2.353 . S
Gd742 O777 2.468 . S
Gd742 O778 2.427 . S
Gd742 O780 2.388 . S
Gd742 O781 2.386 . S
Gd742 O785 2.307 . S
Gd742 C795 2.805 . S
Gd743 N738 2.622 . S
Gd743 N744 2.570 . S
Gd743 O775 2.386 . S
Gd743 O779 2.307 . S
Gd743 O782 2.353 . S
Gd743 O783 2.468 . S
Gd743 O784 2.427 . S
Gd743 O786 2.388 . S
Gd743 C807 2.805 . S
N744 C734 1.359 . S
N744 Gd743 2.570 . S
N744 C746 1.343 . S
C745 C733 1.422 . S
C745 C747 1.321 . S
C745 H753 0.931 . S
C746 N744 1.343 . S
C746 C747 1.390 . S
C746 H748 0.931 . S
C747 C745 1.321 . S
C747 C746 1.390 . S
C747 H749 0.930 . S
H748 C746 0.931 . S
H749 C747 0.930 . S
H750 C773 0.931 . S
H751 C739 0.929 . S
H752 C774 0.930 . S
H753 C745 0.931 . S
H754 C735 0.930 . S
H755 C764 0.929 . S
H756 C740 0.931 . S
H757 C741 0.930 . S
H758 C796 0.930 . S
H759 C737 0.929 . S
H760 C765 0.931 . S
H761 C766 0.930 . S
N762 Gd742 2.622 . S
N762 C763 1.369 . S
N762 C764 1.338 . S
C763 N762 1.369 . S
C763 C767 1.415 . S
C763 C770 1.422 . S
C764 H755 0.929 . S
C764 N762 1.338 . S
C764 C766 1.378 . S
C765 H760 0.931 . S
C765 C766 1.348 . S
C765 C767 1.413 . S
C766 H761 0.930 . S
C766 C764 1.378 . S
C766 C765 1.348 . S
C767 C763 1.415 . S
C767 C765 1.413 . S
C767 C797 1.437 . S
H768 C797 0.929 . S
N769 Gd742 2.570 . S
N769 C770 1.359 . S
N769 C773 1.343 . S
C770 C763 1.422 . S
C770 N769 1.359 . S
C770 C772 1.421 . S
C771 C772 1.422 . S
C771 C774 1.321 . S
C771 H798 0.931 . S
C772 C770 1.421 . S
C772 C771 1.422 . S
C772 C796 1.417 . S
C773 H750 0.931 . S
C773 N769 1.343 . S
C773 C774 1.390 . S
C774 H752 0.930 . S
C774 C771 1.321 . S
C774 C773 1.390 . S
O775 Gd743 2.386 . S
O775 C787 1.265 . S
O776 Gd742 2.353 . S
O776 C787 1.242 . S
O777 Gd742 2.468 . S
O777 C795 1.263 . S
O778 Gd742 2.427 . S
O778 C795 1.252 . S
O779 Gd743 2.307 . S
O779 C788 1.261 . S
O780 Gd742 2.388 . S
O780 C788 1.252 . S
O781 Gd742 2.386 . S
O781 C799 1.265 . S
O782 Gd743 2.353 . S
O782 C799 1.242 . S
O783 Gd743 2.468 . S
O783 C807 1.263 . S
O784 Gd743 2.427 . S
O784 C807 1.252 . S
O785 Gd742 2.307 . S
O785 C800 1.261 . S
O786 Gd743 2.388 . S
O786 C800 1.252 . S
C787 O775 1.265 . S
C787 O776 1.242 . S
C788 O779 1.261 . S
C788 O780 1.252 . S
C789 C792 1.394 . S
C789 C794 1.370 . S
C789 C795 1.500 . S
C790 C793 1.383 . S
C790 C794 1.395 . S
C791 C792 1.396 . S
C791 C793 1.365 . S
C791 H808 0.929 . S
C792 C789 1.394 . S
C792 C791 1.396 . S
C792 H809 0.930 . S
C793 C790 1.383 . S
C793 C791 1.365 . S
C793 H810 0.931 . S
C794 C789 1.370 . S
C794 C790 1.395 . S
C794 H811 0.930 . S
C795 Gd742 2.805 . S
C795 O777 1.263 . S
C795 O778 1.252 . S
C795 C789 1.500 . S
C796 H758 0.930 . S
C796 C772 1.417 . S
C796 C797 1.329 . S
C797 C767 1.437 . S
C797 H768 0.929 . S
C797 C796 1.329 . S
H798 C771 0.931 . S
C799 O781 1.265 . S
C799 O782 1.242 . S
C800 O785 1.261 . S
C800 O786 1.252 . S
C801 C804 1.394 . S
C801 C806 1.370 . S
C801 C807 1.500 . S
C802 C805 1.383 . S
C802 C806 1.395 . S
C803 C804 1.396 . S
C803 C805 1.365 . S
C803 H812 0.929 . S
C804 C801 1.394 . S
C804 C803 1.396 . S
C804 H813 0.930 . S
C805 C802 1.383 . S
C805 C803 1.365 . S
C805 H814 0.931 . S
C806 C801 1.370 . S
C806 C802 1.395 . S
C806 H815 0.930 . S
C807 Gd743 2.805 . S
C807 O783 1.263 . S
C807 O784 1.252 . S
C807 C801 1.500 . S
H808 C791 0.929 . S
H809 C792 0.930 . S
H810 C793 0.931 . S
H811 C794 0.930 . S
H812 C803 0.929 . S
H813 C804 0.930 . S
H814 C805 0.931 . S
H815 C806 0.930 . S
C816 C818 1.422 . S
C816 C820 1.415 . S
C816 N822 1.369 . S
C817 C818 1.421 . S
C817 C819 1.417 . S
C817 C829 1.422 . S
C818 C816 1.422 . S
C818 C817 1.421 . S
C818 N828 1.359 . S
C819 C817 1.417 . S
C819 C821 1.329 . S
C819 H838 0.930 . S
C820 C816 1.415 . S
C820 C821 1.437 . S
C820 C824 1.413 1_545 S
C821 C819 1.329 . S
C821 C820 1.437 . S
C821 H843 0.929 . S
N822 C816 1.369 . S
N822 C823 1.338 1_545 S
N822 Gd827 2.622 . S
C823 N822 1.338 1_565 S
C823 C825 1.378 . S
C823 H835 0.929 . S
C824 C820 1.413 1_565 S
C824 C825 1.348 . S
C824 H840 0.931 . S
C825 C823 1.378 . S
C825 C824 1.348 . S
C825 H841 0.930 . S
Gd826 N846 2.622 . S
Gd826 N853 2.570 . S
Gd826 O860 2.354 1_556 S
Gd826 O861 2.468 . S
Gd826 O862 2.427 . S
Gd826 O864 2.388 1_556 S
Gd826 O865 2.386 . S
Gd826 O869 2.307 . S
Gd826 C879 2.805 . S
Gd827 N822 2.622 . S
Gd827 N828 2.570 . S
Gd827 O859 2.386 . S
Gd827 O863 2.307 . S
Gd827 O866 2.353 . S
Gd827 O867 2.468 . S
Gd827 O868 2.427 . S
Gd827 O870 2.388 . S
Gd827 C891 2.805 . S
N828 C818 1.359 . S
N828 Gd827 2.570 . S
N828 C830 1.343 . S
C829 C817 1.422 . S
C829 C831 1.321 . S
C829 H837 0.931 . S
C830 N828 1.343 . S
C830 C831 1.390 . S
C830 H832 0.931 . S
C831 C829 1.321 . S
C831 C830 1.390 . S
C831 H833 0.930 . S
H832 C830 0.931 . S
H833 C831 0.930 . S
H834 C857 0.931 . S
H835 C823 0.929 . S
H836 C858 0.930 1_565 S
H837 C829 0.931 . S
H838 C819 0.930 . S
H839 C848 0.929 . S
H840 C824 0.931 . S
H841 C825 0.930 . S
H842 C880 0.930 . S
H843 C821 0.929 . S
H844 C849 0.931 . S
H845 C850 0.930 . S
N846 Gd826 2.622 . S
N846 C847 1.369 . S
N846 C848 1.338 . S
C847 N846 1.369 . S
C847 C851 1.415 . S
C847 C854 1.422 . S
C848 H839 0.929 . S
C848 N846 1.338 . S
C848 C850 1.378 . S
C849 H844 0.931 . S
C849 C850 1.348 . S
C849 C851 1.413 . S
C850 H845 0.930 . S
C850 C848 1.378 . S
C850 C849 1.348 . S
C851 C847 1.415 . S
C851 C849 1.413 . S
C851 C881 1.437 . S
H852 C881 0.929 . S
N853 Gd826 2.570 . S
N853 C854 1.359 . S
N853 C857 1.343 . S
C854 C847 1.422 . S
C854 N853 1.359 . S
C854 C856 1.421 . S
C855 C856 1.422 . S
C855 C858 1.321 . S
C855 H882 0.931 . S
C856 C854 1.421 . S
C856 C855 1.422 . S
C856 C880 1.417 . S
C857 H834 0.931 . S
C857 N853 1.343 . S
C857 C858 1.390 . S
C858 H836 0.930 1_545 S
C858 C855 1.321 . S
C858 C857 1.390 . S
O859 Gd827 2.386 . S
O859 C871 1.265 . S
O860 Gd826 2.354 1_554 S
O860 C871 1.239 . S
O861 Gd826 2.468 . S
O861 C879 1.263 . S
O862 Gd826 2.427 . S
O862 C879 1.252 . S
O863 Gd827 2.307 . S
O863 C872 1.261 . S
O864 Gd826 2.388 1_554 S
O864 C872 1.252 . S
O865 Gd826 2.386 . S
O865 C883 1.265 1_556 S
O866 Gd827 2.353 . S
O866 C883 1.242 . S
O867 Gd827 2.468 . S
O867 C891 1.263 . S
O868 Gd827 2.427 . S
O868 C891 1.252 . S
O869 Gd826 2.307 . S
O869 C884 1.261 . S
O870 Gd827 2.388 . S
O870 C884 1.252 1_554 S
C871 O859 1.265 . S
C871 O860 1.239 . S
C872 O863 1.261 . S
C872 O864 1.252 . S
C873 C876 1.394 . S
C873 C878 1.370 . S
C873 C879 1.500 . S
C874 C877 1.383 . S
C874 C878 1.395 . S
C875 C876 1.396 . S
C875 C877 1.365 . S
C875 H892 0.929 . S
C876 C873 1.394 . S
C876 C875 1.396 . S
C876 H893 0.930 . S
C877 C874 1.383 . S
C877 C875 1.365 . S
C877 H894 0.931 . S
C878 C873 1.370 . S
C878 C874 1.395 . S
C878 H895 0.930 . S
C879 Gd826 2.805 . S
C879 O861 1.263 . S
C879 O862 1.252 . S
C879 C873 1.500 . S
C880 H842 0.930 . S
C880 C856 1.417 . S
C880 C881 1.329 . S
C881 C851 1.437 . S
C881 H852 0.929 . S
C881 C880 1.329 . S
H882 C855 0.931 . S
C883 O865 1.265 1_554 S
C883 O866 1.242 . S
C884 O869 1.261 . S
C884 O870 1.252 1_556 S
C885 C888 1.394 1_545 S
C885 C890 1.370 . S
C885 C891 1.500 . S
C886 C889 1.383 1_545 S
C886 C890 1.395 . S
C887 C888 1.396 . S
C887 C889 1.365 . S
C887 H896 0.929 . S
C888 C885 1.394 1_565 S
C888 C887 1.396 . S
C888 H897 0.930 . S
C889 C886 1.383 1_565 S
C889 C887 1.365 . S
C889 H898 0.931 . S
C890 C885 1.370 . S
C890 C886 1.395 . S
C890 H899 0.930 . S
C891 Gd827 2.805 . S
C891 O867 1.263 . S
C891 O868 1.252 . S
C891 C885 1.500 . S
H892 C875 0.929 . S
H893 C876 0.930 . S
H894 C877 0.931 . S
H895 C878 0.930 . S
H896 C887 0.929 . S
H897 C888 0.930 . S
H898 C889 0.931 . S
H899 C890 0.930 . S
C900 C902 1.422 . S
C900 C904 1.415 . S
C900 N906 1.369 . S
C901 C902 1.421 . S
C901 C903 1.417 . S
C901 C913 1.422 . S
C902 C900 1.422 . S
C902 C901 1.421 . S
C902 N912 1.359 . S
C903 C901 1.417 . S
C903 C905 1.329 . S
C903 H922 0.930 . S
C904 C900 1.415 . S
C904 C905 1.437 . S
C904 C908 1.413 . S
C905 C903 1.329 . S
C905 C904 1.437 . S
C905 H927 0.929 . S
N906 C900 1.369 . S
N906 C907 1.338 . S
N906 Gd911 2.622 . S
C907 N906 1.338 . S
C907 C909 1.378 . S
C907 H919 0.929 . S
C908 C904 1.413 . S
C908 C909 1.348 . S
C908 H924 0.931 . S
C909 C907 1.378 . S
C909 C908 1.348 . S
C909 H925 0.930 . S
Gd910 N930 2.622 . S
Gd910 N937 2.570 . S
Gd910 O944 2.353 . S
Gd910 O945 2.468 . S
Gd910 O946 2.427 . S
Gd910 O948 2.388 . S
Gd910 O949 2.386 . S
Gd910 O953 2.307 . S
Gd910 C963 2.805 . S
Gd911 N906 2.622 . S
Gd911 N912 2.570 . S
Gd911 O943 2.386 . S
Gd911 O947 2.307 . S
Gd911 O950 2.353 . S
Gd911 O951 2.468 . S
Gd911 O952 2.427 . S
Gd911 O954 2.388 . S
Gd911 C975 2.805 . S
N912 C902 1.359 . S
N912 Gd911 2.570 . S
N912 C914 1.343 . S
C913 C901 1.422 . S
C913 C915 1.321 . S
C913 H921 0.931 . S
C914 N912 1.343 . S
C914 C915 1.390 . S
C914 H916 0.931 . S
C915 C913 1.321 . S
C915 C914 1.390 . S
C915 H917 0.930 . S
H916 C914 0.931 . S
H917 C915 0.930 . S
H918 C941 0.931 . S
H919 C907 0.929 . S
H920 C942 0.930 . S
H921 C913 0.931 . S
H922 C903 0.930 . S
H923 C932 0.929 . S
H924 C908 0.931 . S
H925 C909 0.930 . S
H926 C964 0.930 . S
H927 C905 0.929 . S
H928 C933 0.931 . S
H929 C934 0.930 . S
N930 Gd910 2.622 . S
N930 C931 1.369 . S
N930 C932 1.338 . S
C931 N930 1.369 . S
C931 C935 1.415 . S
C931 C938 1.422 . S
C932 H923 0.929 . S
C932 N930 1.338 . S
C932 C934 1.378 . S
C933 H928 0.931 . S
C933 C934 1.348 . S
C933 C935 1.413 . S
C934 H929 0.930 . S
C934 C932 1.378 . S
C934 C933 1.348 . S
C935 C931 1.415 . S
C935 C933 1.413 . S
C935 C965 1.437 . S
H936 C965 0.929 . S
N937 Gd910 2.570 . S
N937 C938 1.359 . S
N937 C941 1.343 . S
C938 C931 1.422 . S
C938 N937 1.359 . S
C938 C940 1.421 . S
C939 C940 1.422 . S
C939 C942 1.321 . S
C939 H966 0.931 . S
C940 C938 1.421 . S
C940 C939 1.422 . S
C940 C964 1.417 . S
C941 H918 0.931 . S
C941 N937 1.343 . S
C941 C942 1.390 . S
C942 H920 0.930 . S
C942 C939 1.321 . S
C942 C941 1.390 . S
O943 Gd911 2.386 . S
O943 C955 1.265 . S
O944 Gd910 2.353 . S
O944 C955 1.242 . S
O945 Gd910 2.468 . S
O945 C963 1.263 . S
O946 Gd910 2.427 . S
O946 C963 1.252 . S
O947 Gd911 2.307 . S
O947 C956 1.261 . S
O948 Gd910 2.388 . S
O948 C956 1.252 . S
O949 Gd910 2.386 . S
O949 C967 1.265 . S
O950 Gd911 2.353 . S
O950 C967 1.242 . S
O951 Gd911 2.468 . S
O951 C975 1.263 . S
O952 Gd911 2.427 . S
O952 C975 1.252 . S
O953 Gd910 2.307 . S
O953 C968 1.261 . S
O954 Gd911 2.388 . S
O954 C968 1.252 . S
C955 O943 1.265 . S
C955 O944 1.242 . S
C956 O947 1.261 . S
C956 O948 1.252 . S
C957 C960 1.394 . S
C957 C962 1.370 . S
C957 C963 1.500 . S
C958 C961 1.383 . S
C958 C962 1.395 . S
C959 C960 1.396 . S
C959 C961 1.365 . S
C959 H976 0.929 . S
C960 C957 1.394 . S
C960 C959 1.396 . S
C960 H977 0.930 . S
C961 C958 1.383 . S
C961 C959 1.365 . S
C961 H978 0.931 . S
C962 C957 1.370 . S
C962 C958 1.395 . S
C962 H979 0.930 . S
C963 Gd910 2.805 . S
C963 O945 1.263 . S
C963 O946 1.252 . S
C963 C957 1.500 . S
C964 H926 0.930 . S
C964 C940 1.417 . S
C964 C965 1.329 . S
C965 C935 1.437 . S
C965 H936 0.929 . S
C965 C964 1.329 . S
H966 C939 0.931 . S
C967 O949 1.265 . S
C967 O950 1.242 . S
C968 O953 1.261 . S
C968 O954 1.252 . S
C969 C972 1.394 . S
C969 C974 1.370 . S
C969 C975 1.500 . S
C970 C973 1.383 . S
C970 C974 1.395 . S
C971 C972 1.396 . S
C971 C973 1.365 . S
C971 H980 0.929 . S
C972 C969 1.394 . S
C972 C971 1.396 . S
C972 H981 0.930 . S
C973 C970 1.383 . S
C973 C971 1.365 . S
C973 H982 0.931 . S
C974 C969 1.370 . S
C974 C970 1.395 . S
C974 H983 0.930 . S
C975 Gd911 2.805 . S
C975 O951 1.263 . S
C975 O952 1.252 . S
C975 C969 1.500 . S
H976 C959 0.929 . S
H977 C960 0.930 . S
H978 C961 0.931 . S
H979 C962 0.930 . S
H980 C971 0.929 . S
H981 C972 0.930 . S
H982 C973 0.931 . S
H983 C974 0.930 . S
C984 C986 1.422 . S
C984 C988 1.415 . S
C984 N990 1.369 . S
C985 C986 1.421 . S
C985 C987 1.417 . S
C985 C997 1.422 . S
C986 C984 1.422 . S
C986 C985 1.421 . S
C986 N996 1.359 . S
C987 C985 1.417 . S
C987 C989 1.329 . S
C987 H1006 0.930 . S
C988 C984 1.415 . S
C988 C989 1.437 . S
C988 C992 1.413 . S
C989 C987 1.329 . S
C989 C988 1.437 . S
C989 H1011 0.929 . S
N990 C984 1.369 . S
N990 C991 1.338 . S
N990 Gd995 2.622 . S
C991 N990 1.338 . S
C991 C993 1.378 . S
C991 H1003 0.929 . S
C992 C988 1.413 . S
C992 C993 1.348 . S
C992 H1008 0.931 . S
C993 C991 1.378 . S
C993 C992 1.348 . S
C993 H1009 0.930 . S
Gd994 N1014 2.622 1_554 S
Gd994 N1021 2.570 1_554 S
Gd994 O1028 2.353 . S
Gd994 O1029 2.468 . S
Gd994 O1030 2.427 . S
Gd994 O1032 2.388 . S
Gd994 O1033 2.386 1_554 S
Gd994 O1037 2.307 . S
Gd994 C1047 2.805 . S
Gd995 N990 2.622 . S
Gd995 N996 2.570 . S
Gd995 O1027 2.386 . S
Gd995 O1031 2.307 . S
Gd995 O1034 2.353 1_554 S
Gd995 O1035 2.468 . S
Gd995 O1036 2.427 . S
Gd995 O1038 2.388 . S
Gd995 C1059 2.805 1_554 S
N996 C986 1.359 . S
N996 Gd995 2.570 . S
N996 C998 1.343 . S
C997 C985 1.422 . S
C997 C999 1.321 . S
C997 H1005 0.931 . S
C998 N996 1.343 . S
C998 C999 1.390 . S
C998 H1000 0.931 . S
C999 C997 1.321 . S
C999 C998 1.390 . S
C999 H1001 0.930 . S
H1000 C998 0.931 . S
H1001 C999 0.930 . S
H1002 C1025 0.931 . S
H1003 C991 0.929 . S
H1004 C1026 0.930 . S
H1005 C997 0.931 . S
H1006 C987 0.930 . S
H1007 C1016 0.929 . S
H1008 C992 0.931 . S
H1009 C993 0.930 . S
H1010 C1048 0.930 . S
H1011 C989 0.929 . S
H1012 C1017 0.931 . S
H1013 C1018 0.930 . S
N1014 Gd994 2.622 1_556 S
N1014 C1015 1.369 . S
N1014 C1016 1.338 . S
C1015 N1014 1.369 . S
C1015 C1019 1.415 . S
C1015 C1022 1.422 . S
C1016 H1007 0.929 . S
C1016 N1014 1.338 . S
C1016 C1018 1.378 . S
C1017 H1012 0.931 . S
C1017 C1018 1.348 . S
C1017 C1019 1.413 . S
C1018 H1013 0.930 . S
C1018 C1016 1.378 . S
C1018 C1017 1.348 . S
C1019 C1015 1.415 . S
C1019 C1017 1.413 . S
C1019 C1049 1.437 . S
H1020 C1049 0.929 . S
N1021 Gd994 2.570 1_556 S
N1021 C1022 1.359 . S
N1021 C1025 1.343 . S
C1022 C1015 1.422 . S
C1022 N1021 1.359 . S
C1022 C1024 1.421 . S
C1023 C1024 1.422 . S
C1023 C1026 1.321 . S
C1023 H1050 0.931 . S
C1024 C1022 1.421 . S
C1024 C1023 1.422 . S
C1024 C1048 1.417 . S
C1025 H1002 0.931 . S
C1025 N1021 1.343 . S
C1025 C1026 1.390 . S
C1026 H1004 0.930 . S
C1026 C1023 1.321 . S
C1026 C1025 1.390 . S
O1027 Gd995 2.386 . S
O1027 C1039 1.265 . S
O1028 Gd994 2.353 . S
O1028 C1039 1.242 . S
O1029 Gd994 2.468 . S
O1029 C1047 1.263 . S
O1030 Gd994 2.427 . S
O1030 C1047 1.252 . S
O1031 Gd995 2.307 . S
O1031 C1040 1.261 . S
O1032 Gd994 2.388 . S
O1032 C1040 1.252 . S
O1033 Gd994 2.386 1_556 S
O1033 C1051 1.265 . S
O1034 Gd995 2.353 1_556 S
O1034 C1051 1.242 . S
O1035 Gd995 2.468 . S
O1035 C1059 1.263 1_554 S
O1036 Gd995 2.427 . S
O1036 C1059 1.252 1_554 S
O1037 Gd994 2.307 . S
O1037 C1052 1.261 . S
O1038 Gd995 2.388 . S
O1038 C1052 1.252 . S
C1039 O1027 1.265 . S
C1039 O1028 1.242 . S
C1040 O1031 1.261 . S
C1040 O1032 1.252 . S
C1041 C1044 1.394 . S
C1041 C1046 1.370 . S
C1041 C1047 1.500 . S
C1042 C1045 1.383 . S
C1042 C1046 1.395 . S
C1043 C1044 1.396 . S
C1043 C1045 1.365 . S
C1043 H1060 0.929 . S
C1044 C1041 1.394 . S
C1044 C1043 1.396 . S
C1044 H1061 0.930 . S
C1045 C1042 1.383 . S
C1045 C1043 1.365 . S
C1045 H1062 0.931 . S
C1046 C1041 1.370 . S
C1046 C1042 1.395 . S
C1046 H1063 0.930 . S
C1047 Gd994 2.805 . S
C1047 O1029 1.263 . S
C1047 O1030 1.252 . S
C1047 C1041 1.500 . S
C1048 H1010 0.930 . S
C1048 C1024 1.417 . S
C1048 C1049 1.329 . S
C1049 C1019 1.437 . S
C1049 H1020 0.929 . S
C1049 C1048 1.329 . S
H1050 C1023 0.931 . S
C1051 O1033 1.265 . S
C1051 O1034 1.242 . S
C1052 O1037 1.261 . S
C1052 O1038 1.252 . S
C1053 C1056 1.394 . S
C1053 C1058 1.370 . S
C1053 C1059 1.500 . S
C1054 C1057 1.383 . S
C1054 C1058 1.395 . S
C1055 C1056 1.396 . S
C1055 C1057 1.365 . S
C1055 H1064 0.929 . S
C1056 C1053 1.394 . S
C1056 C1055 1.396 . S
C1056 H1065 0.930 . S
C1057 C1054 1.383 . S
C1057 C1055 1.365 . S
C1057 H1066 0.931 . S
C1058 C1053 1.370 . S
C1058 C1054 1.395 . S
C1058 H1067 0.930 . S
C1059 Gd995 2.805 1_556 S
C1059 O1035 1.263 1_556 S
C1059 O1036 1.252 1_556 S
C1059 C1053 1.500 . S
H1060 C1043 0.929 . S
H1061 C1044 0.930 . S
H1062 C1045 0.931 . S
H1063 C1046 0.930 . S
H1064 C1055 0.929 . S
H1065 C1056 0.930 . S
H1066 C1057 0.931 . S
H1067 C1058 0.930 . S
C1068 C1070 1.422 . S
C1068 C1072 1.415 . S
C1068 N1074 1.369 . S
C1069 C1070 1.421 . S
C1069 C1071 1.417 . S
C1069 C1081 1.422 . S
C1070 C1068 1.422 . S
C1070 C1069 1.421 . S
C1070 N1080 1.359 . S
C1071 C1069 1.417 . S
C1071 C1073 1.329 . S
C1071 H1090 0.930 . S
C1072 C1068 1.415 . S
C1072 C1073 1.437 . S
C1072 C1076 1.413 . S
C1073 C1071 1.329 . S
C1073 C1072 1.437 . S
C1073 H1095 0.929 . S
N1074 C1068 1.369 . S
N1074 C1075 1.338 . S
N1074 Gd1079 2.622 . S
C1075 N1074 1.338 . S
C1075 C1077 1.378 . S
C1075 H1087 0.929 . S
C1076 C1072 1.413 . S
C1076 C1077 1.348 . S
C1076 H1092 0.931 . S
C1077 C1075 1.378 . S
C1077 C1076 1.348 . S
C1077 H1093 0.930 . S
Gd1078 N1098 2.622 . S
Gd1078 N1105 2.570 . S
Gd1078 O1112 2.353 . S
Gd1078 O1113 2.468 . S
Gd1078 O1114 2.427 . S
Gd1078 O1116 2.388 . S
Gd1078 O1117 2.386 . S
Gd1078 O1121 2.307 . S
Gd1078 C1131 2.805 . S
Gd1079 N1074 2.622 . S
Gd1079 N1080 2.570 . S
Gd1079 O1111 2.386 . S
Gd1079 O1115 2.307 . S
Gd1079 O1118 2.353 . S
Gd1079 O1119 2.468 . S
Gd1079 O1120 2.427 . S
Gd1079 O1122 2.388 . S
Gd1079 C1143 2.805 . S
N1080 C1070 1.359 . S
N1080 Gd1079 2.570 . S
N1080 C1082 1.343 . S
C1081 C1069 1.422 . S
C1081 C1083 1.321 . S
C1081 H1089 0.931 . S
C1082 N1080 1.343 . S
C1082 C1083 1.390 . S
C1082 H1084 0.931 . S
C1083 C1081 1.321 . S
C1083 C1082 1.390 . S
C1083 H1085 0.930 . S
H1084 C1082 0.931 . S
H1085 C1083 0.930 . S
H1086 C1109 0.931 . S
H1087 C1075 0.929 . S
H1088 C1110 0.930 . S
H1089 C1081 0.931 . S
H1090 C1071 0.930 . S
H1091 C1100 0.929 . S
H1092 C1076 0.931 . S
H1093 C1077 0.930 . S
H1094 C1132 0.930 . S
H1095 C1073 0.929 . S
H1096 C1101 0.931 . S
H1097 C1102 0.930 . S
N1098 Gd1078 2.622 . S
N1098 C1099 1.369 . S
N1098 C1100 1.338 . S
C1099 N1098 1.369 . S
C1099 C1103 1.415 . S
C1099 C1106 1.422 . S
C1100 H1091 0.929 . S
C1100 N1098 1.338 . S
C1100 C1102 1.378 . S
C1101 H1096 0.931 . S
C1101 C1102 1.348 . S
C1101 C1103 1.413 . S
C1102 H1097 0.930 . S
C1102 C1100 1.378 . S
C1102 C1101 1.348 . S
C1103 C1099 1.415 . S
C1103 C1101 1.413 . S
C1103 C1133 1.437 . S
H1104 C1133 0.929 . S
N1105 Gd1078 2.570 . S
N1105 C1106 1.359 . S
N1105 C1109 1.343 . S
C1106 C1099 1.422 . S
C1106 N1105 1.359 . S
C1106 C1108 1.421 . S
C1107 C1108 1.422 . S
C1107 C1110 1.321 . S
C1107 H1134 0.931 . S
C1108 C1106 1.421 . S
C1108 C1107 1.422 . S
C1108 C1132 1.417 . S
C1109 H1086 0.931 . S
C1109 N1105 1.343 . S
C1109 C1110 1.390 . S
C1110 H1088 0.930 . S
C1110 C1107 1.321 . S
C1110 C1109 1.390 . S
O1111 Gd1079 2.386 . S
O1111 C1123 1.265 . S
O1112 Gd1078 2.353 . S
O1112 C1123 1.242 . S
O1113 Gd1078 2.468 . S
O1113 C1131 1.263 . S
O1114 Gd1078 2.427 . S
O1114 C1131 1.252 . S
O1115 Gd1079 2.307 . S
O1115 C1124 1.261 . S
O1116 Gd1078 2.388 . S
O1116 C1124 1.252 . S
O1117 Gd1078 2.386 . S
O1117 C1135 1.265 . S
O1118 Gd1079 2.353 . S
O1118 C1135 1.242 . S
O1119 Gd1079 2.468 . S
O1119 C1143 1.263 . S
O1120 Gd1079 2.427 . S
O1120 C1143 1.252 . S
O1121 Gd1078 2.307 . S
O1121 C1136 1.261 . S
O1122 Gd1079 2.388 . S
O1122 C1136 1.252 . S
C1123 O1111 1.265 . S
C1123 O1112 1.242 . S
C1124 O1115 1.261 . S
C1124 O1116 1.252 . S
C1125 C1128 1.394 . S
C1125 C1130 1.370 . S
C1125 C1131 1.500 . S
C1126 C1129 1.383 . S
C1126 C1130 1.395 . S
C1127 C1128 1.396 . S
C1127 C1129 1.365 . S
C1127 H1144 0.929 . S
C1128 C1125 1.394 . S
C1128 C1127 1.396 . S
C1128 H1145 0.930 . S
C1129 C1126 1.383 . S
C1129 C1127 1.365 . S
C1129 H1146 0.931 . S
C1130 C1125 1.370 . S
C1130 C1126 1.395 . S
C1130 H1147 0.930 . S
C1131 Gd1078 2.805 . S
C1131 O1113 1.263 . S
C1131 O1114 1.252 . S
C1131 C1125 1.500 . S
C1132 H1094 0.930 . S
C1132 C1108 1.417 . S
C1132 C1133 1.329 . S
C1133 C1103 1.437 . S
C1133 H1104 0.929 . S
C1133 C1132 1.329 . S
H1134 C1107 0.931 . S
C1135 O1117 1.265 . S
C1135 O1118 1.242 . S
C1136 O1121 1.261 . S
C1136 O1122 1.252 . S
C1137 C1140 1.394 . S
C1137 C1142 1.370 . S
C1137 C1143 1.500 . S
C1138 C1141 1.383 . S
C1138 C1142 1.395 . S
C1139 C1140 1.396 . S
C1139 C1141 1.365 . S
C1139 H1148 0.929 . S
C1140 C1137 1.394 . S
C1140 C1139 1.396 . S
C1140 H1149 0.930 . S
C1141 C1138 1.383 . S
C1141 C1139 1.365 . S
C1141 H1150 0.931 . S
C1142 C1137 1.370 . S
C1142 C1138 1.395 . S
C1142 H1151 0.930 . S
C1143 Gd1079 2.805 . S
C1143 O1119 1.263 . S
C1143 O1120 1.252 . S
C1143 C1137 1.500 . S
H1144 C1127 0.929 . S
H1145 C1128 0.930 . S
H1146 C1129 0.931 . S
H1147 C1130 0.930 . S
H1148 C1139 0.929 . S
H1149 C1140 0.930 . S
H1150 C1141 0.931 . S
H1151 C1142 0.930 . S
C1152 C1154 1.422 . S
C1152 C1156 1.415 . S
C1152 N1158 1.369 . S
C1153 C1154 1.421 . S
C1153 C1155 1.417 . S
C1153 C1165 1.422 . S
C1154 C1152 1.422 . S
C1154 C1153 1.421 . S
C1154 N1164 1.359 . S
C1155 C1153 1.417 . S
C1155 C1157 1.329 . S
C1155 H1174 0.930 . S
C1156 C1152 1.415 . S
C1156 C1157 1.437 . S
C1156 C1160 1.413 . S
C1157 C1155 1.329 . S
C1157 C1156 1.437 . S
C1157 H1179 0.929 . S
N1158 C1152 1.369 . S
N1158 C1159 1.338 . S
N1158 Gd1163 2.622 . S
C1159 N1158 1.338 . S
C1159 C1161 1.378 . S
C1159 H1171 0.929 . S
C1160 C1156 1.413 . S
C1160 C1161 1.348 . S
C1160 H1176 0.931 . S
C1161 C1159 1.378 . S
C1161 C1160 1.348 . S
C1161 H1177 0.930 . S
Gd1162 N1182 2.622 1_455 S
Gd1162 N1189 2.570 1_455 S
Gd1162 O1196 2.353 . S
Gd1162 O1197 2.468 . S
Gd1162 O1198 2.427 . S
Gd1162 O1200 2.388 . S
Gd1162 O1201 2.386 1_455 S
Gd1162 O1205 2.307 . S
Gd1162 C1215 2.805 . S
Gd1163 N1158 2.622 . S
Gd1163 N1164 2.570 . S
Gd1163 O1195 2.386 . S
Gd1163 O1199 2.307 . S
Gd1163 O1202 2.353 1_455 S
Gd1163 O1203 2.510 . S
Gd1163 O1204 2.427 . S
Gd1163 O1206 2.388 . S
Gd1163 C1227 2.805 1_455 S
N1164 C1154 1.359 . S
N1164 Gd1163 2.570 . S
N1164 C1166 1.343 . S
C1165 C1153 1.422 . S
C1165 C1167 1.321 . S
C1165 H1173 0.931 . S
C1166 N1164 1.343 . S
C1166 C1167 1.390 . S
C1166 H1168 0.931 . S
C1167 C1165 1.321 . S
C1167 C1166 1.390 . S
C1167 H1169 0.930 . S
H1168 C1166 0.931 . S
H1169 C1167 0.930 . S
H1170 C1193 0.931 . S
H1171 C1159 0.929 . S
H1172 C1194 0.930 . S
H1173 C1165 0.931 . S
H1174 C1155 0.930 . S
H1175 C1184 0.946 . S
H1176 C1160 0.931 . S
H1177 C1161 0.930 . S
H1178 C1216 0.930 . S
H1179 C1157 0.929 . S
H1180 C1185 0.931 . S
H1181 C1186 0.930 . S
N1182 Gd1162 2.622 1_655 S
N1182 C1183 1.369 . S
N1182 C1184 1.338 . S
C1183 N1182 1.369 . S
C1183 C1187 1.415 . S
C1183 C1190 1.422 . S
C1184 H1175 0.946 . S
C1184 N1182 1.338 . S
C1184 C1186 1.378 . S
C1185 H1180 0.931 . S
C1185 C1186 1.348 . S
C1185 C1187 1.413 . S
C1186 H1181 0.930 . S
C1186 C1184 1.378 . S
C1186 C1185 1.348 . S
C1187 C1183 1.415 . S
C1187 C1185 1.413 . S
C1187 C1217 1.437 . S
H1188 C1217 0.929 . S
N1189 Gd1162 2.570 1_655 S
N1189 C1190 1.359 . S
N1189 C1193 1.343 . S
C1190 C1183 1.422 . S
C1190 N1189 1.359 . S
C1190 C1192 1.421 . S
C1191 C1192 1.422 . S
C1191 C1194 1.321 . S
C1191 H1218 0.931 . S
C1192 C1190 1.421 . S
C1192 C1191 1.422 . S
C1192 C1216 1.417 . S
C1193 H1170 0.931 . S
C1193 N1189 1.343 . S
C1193 C1194 1.390 . S
C1194 H1172 0.930 . S
C1194 C1191 1.321 . S
C1194 C1193 1.390 . S
O1195 Gd1163 2.386 . S
O1195 C1207 1.265 . S
O1196 Gd1162 2.353 . S
O1196 C1207 1.242 . S
O1197 Gd1162 2.468 . S
O1197 C1215 1.263 . S
O1198 Gd1162 2.427 . S
O1198 C1215 1.252 . S
O1199 Gd1163 2.307 . S
O1199 C1208 1.261 . S
O1200 Gd1162 2.388 . S
O1200 C1208 1.252 . S
O1201 Gd1162 2.386 1_655 S
O1201 C1219 1.265 . S
O1202 Gd1163 2.353 1_655 S
O1202 C1219 1.242 . S
O1203 Gd1163 2.510 . S
O1203 C1227 1.261 1_455 S
O1204 Gd1163 2.427 . S
O1204 C1227 1.252 1_455 S
O1205 Gd1162 2.307 . S
O1205 C1220 1.261 . S
O1206 Gd1163 2.388 . S
O1206 C1220 1.252 . S
C1207 O1195 1.265 . S
C1207 O1196 1.242 . S
C1208 O1199 1.261 . S
C1208 O1200 1.252 . S
C1209 C1212 1.394 . S
C1209 C1214 1.370 . S
C1209 C1215 1.500 . S
C1210 C1213 1.383 . S
C1210 C1214 1.395 . S
C1211 C1212 1.396 . S
C1211 C1213 1.365 . S
C1211 H1228 0.929 . S
C1212 C1209 1.394 . S
C1212 C1211 1.396 . S
C1212 H1229 0.930 . S
C1213 C1210 1.383 . S
C1213 C1211 1.365 . S
C1213 H1230 0.931 . S
C1214 C1209 1.370 . S
C1214 C1210 1.395 . S
C1214 H1231 0.930 . S
C1215 Gd1162 2.805 . S
C1215 O1197 1.263 . S
C1215 O1198 1.252 . S
C1215 C1209 1.500 . S
C1216 H1178 0.930 . S
C1216 C1192 1.417 . S
C1216 C1217 1.329 . S
C1217 C1187 1.437 . S
C1217 H1188 0.929 . S
C1217 C1216 1.329 . S
H1218 C1191 0.931 . S
C1219 O1201 1.265 . S
C1219 O1202 1.242 . S
C1220 O1205 1.261 . S
C1220 O1206 1.252 . S
C1221 C1224 1.394 . S
C1221 C1226 1.370 . S
C1221 C1227 1.500 . S
C1222 C1225 1.383 . S
C1222 C1226 1.395 . S
C1223 C1224 1.396 . S
C1223 C1225 1.365 . S
C1223 H1232 0.929 . S
C1224 C1221 1.394 . S
C1224 C1223 1.396 . S
C1224 H1233 0.930 . S
C1225 C1222 1.383 . S
C1225 C1223 1.365 . S
C1225 H1234 0.931 . S
C1226 C1221 1.370 . S
C1226 C1222 1.395 . S
C1226 H1235 0.930 . S
C1227 Gd1163 2.805 1_655 S
C1227 O1203 1.261 1_655 S
C1227 O1204 1.252 1_655 S
C1227 C1221 1.500 . S
H1228 C1211 0.929 . S
H1229 C1212 0.930 . S
H1230 C1213 0.931 . S
H1231 C1214 0.930 . S
H1232 C1223 0.929 . S
H1233 C1224 0.930 . S
H1234 C1225 0.931 . S
H1235 C1226 0.930 . S
C1236 C1238 1.422 . S
C1236 C1240 1.415 . S
C1236 N1242 1.369 . S
C1237 C1238 1.421 . S
C1237 C1239 1.417 . S
C1237 C1249 1.422 . S
C1238 C1236 1.422 . S
C1238 C1237 1.421 . S
C1238 N1248 1.359 . S
C1239 C1237 1.417 . S
C1239 C1241 1.329 . S
C1239 H1258 0.930 . S
C1240 C1236 1.415 . S
C1240 C1241 1.437 . S
C1240 C1244 1.413 . S
C1241 C1239 1.329 . S
C1241 C1240 1.437 . S
C1241 H1263 0.929 . S
N1242 C1236 1.369 . S
N1242 C1243 1.338 . S
N1242 Gd1247 2.622 . S
C1243 N1242 1.338 . S
C1243 C1245 1.378 . S
C1243 H1255 0.929 . S
C1244 C1240 1.413 . S
C1244 C1245 1.348 . S
C1244 H1260 0.931 . S
C1245 C1243 1.378 . S
C1245 C1244 1.348 . S
C1245 H1261 0.930 . S
Gd1246 N1266 2.622 . S
Gd1246 N1273 2.570 . S
Gd1246 O1280 2.353 . S
Gd1246 O1281 2.468 . S
Gd1246 O1282 2.427 . S
Gd1246 O1284 2.388 . S
Gd1246 O1285 2.386 . S
Gd1246 O1289 2.307 . S
Gd1246 C1299 2.805 . S
Gd1247 N1242 2.622 . S
Gd1247 N1248 2.570 . S
Gd1247 O1279 2.386 . S
Gd1247 O1283 2.307 . S
Gd1247 O1286 2.353 . S
Gd1247 O1287 2.468 . S
Gd1247 O1288 2.427 . S
Gd1247 O1290 2.388 . S
Gd1247 C1311 2.805 . S
N1248 C1238 1.359 . S
N1248 Gd1247 2.570 . S
N1248 C1250 1.343 . S
C1249 C1237 1.422 . S
C1249 C1251 1.321 . S
C1249 H1257 0.931 . S
C1250 N1248 1.343 . S
C1250 C1251 1.390 . S
C1250 H1252 0.931 . S
C1251 C1249 1.321 . S
C1251 C1250 1.390 . S
C1251 H1253 0.930 . S
H1252 C1250 0.931 . S
H1253 C1251 0.930 . S
H1254 C1277 0.931 . S
H1255 C1243 0.929 . S
H1256 C1278 0.930 . S
H1257 C1249 0.931 . S
H1258 C1239 0.930 . S
H1259 C1268 0.929 . S
H1260 C1244 0.931 . S
H1261 C1245 0.930 . S
H1262 C1300 0.930 . S
H1263 C1241 0.929 . S
H1264 C1269 0.931 . S
H1265 C1270 0.930 . S
N1266 Gd1246 2.622 . S
N1266 C1267 1.369 . S
N1266 C1268 1.338 . S
C1267 N1266 1.369 . S
C1267 C1271 1.415 . S
C1267 C1274 1.422 . S
C1268 H1259 0.929 . S
C1268 N1266 1.338 . S
C1268 C1270 1.378 . S
C1269 H1264 0.931 . S
C1269 C1270 1.348 . S
C1269 C1271 1.413 . S
C1270 H1265 0.930 . S
C1270 C1268 1.378 . S
C1270 C1269 1.348 . S
C1271 C1267 1.415 . S
C1271 C1269 1.413 . S
C1271 C1301 1.437 . S
H1272 C1301 0.929 . S
N1273 Gd1246 2.570 . S
N1273 C1274 1.359 . S
N1273 C1277 1.343 . S
C1274 C1267 1.422 . S
C1274 N1273 1.359 . S
C1274 C1276 1.421 . S
C1275 C1276 1.422 . S
C1275 C1278 1.321 . S
C1275 H1302 0.931 . S
C1276 C1274 1.421 . S
C1276 C1275 1.422 . S
C1276 C1300 1.417 . S
C1277 H1254 0.931 . S
C1277 N1273 1.343 . S
C1277 C1278 1.390 . S
C1278 H1256 0.930 . S
C1278 C1275 1.321 . S
C1278 C1277 1.390 . S
O1279 Gd1247 2.386 . S
O1279 C1291 1.265 . S
O1280 Gd1246 2.353 . S
O1280 C1291 1.242 . S
O1281 Gd1246 2.468 . S
O1281 C1299 1.263 . S
O1282 Gd1246 2.427 . S
O1282 C1299 1.252 . S
O1283 Gd1247 2.307 . S
O1283 C1292 1.261 . S
O1284 Gd1246 2.388 . S
O1284 C1292 1.252 . S
O1285 Gd1246 2.386 . S
O1285 C1303 1.265 . S
O1286 Gd1247 2.353 . S
O1286 C1303 1.242 . S
O1287 Gd1247 2.468 . S
O1287 C1311 1.263 . S
O1288 Gd1247 2.427 . S
O1288 C1311 1.252 . S
O1289 Gd1246 2.307 . S
O1289 C1304 1.261 . S
O1290 Gd1247 2.388 . S
O1290 C1304 1.252 . S
C1291 O1279 1.265 . S
C1291 O1280 1.242 . S
C1292 O1283 1.261 . S
C1292 O1284 1.252 . S
C1293 C1296 1.394 . S
C1293 C1298 1.370 . S
C1293 C1299 1.500 . S
C1294 C1297 1.383 . S
C1294 C1298 1.395 . S
C1295 C1296 1.396 . S
C1295 C1297 1.365 . S
C1295 H1312 0.929 . S
C1296 C1293 1.394 . S
C1296 C1295 1.396 . S
C1296 H1313 0.930 . S
C1297 C1294 1.383 . S
C1297 C1295 1.365 . S
C1297 H1314 0.931 . S
C1298 C1293 1.370 . S
C1298 C1294 1.395 . S
C1298 H1315 0.930 . S
C1299 Gd1246 2.805 . S
C1299 O1281 1.263 . S
C1299 O1282 1.252 . S
C1299 C1293 1.500 . S
C1300 H1262 0.930 . S
C1300 C1276 1.417 . S
C1300 C1301 1.329 . S
C1301 C1271 1.437 . S
C1301 H1272 0.929 . S
C1301 C1300 1.329 . S
H1302 C1275 0.931 . S
C1303 O1285 1.265 . S
C1303 O1286 1.242 . S
C1304 O1289 1.261 . S
C1304 O1290 1.252 . S
C1305 C1308 1.394 . S
C1305 C1310 1.370 . S
C1305 C1311 1.500 . S
C1306 C1309 1.383 . S
C1306 C1310 1.395 . S
C1307 C1308 1.396 . S
C1307 C1309 1.365 . S
C1307 H1316 0.929 . S
C1308 C1305 1.394 . S
C1308 C1307 1.396 . S
C1308 H1317 0.930 . S
C1309 C1306 1.383 . S
C1309 C1307 1.365 . S
C1309 H1318 0.931 . S
C1310 C1305 1.370 . S
C1310 C1306 1.395 . S
C1310 H1319 0.930 . S
C1311 Gd1247 2.805 . S
C1311 O1287 1.263 . S
C1311 O1288 1.252 . S
C1311 C1305 1.500 . S
H1312 C1295 0.929 . S
H1313 C1296 0.930 . S
H1314 C1297 0.931 . S
H1315 C1298 0.930 . S
H1316 C1307 0.929 . S
H1317 C1308 0.930 . S
H1318 C1309 0.931 . S
H1319 C1310 0.930 . S
C1320 C1322 1.422 . S
C1320 C1324 1.415 . S
C1320 N1326 1.369 . S
C1321 C1322 1.421 . S
C1321 C1323 1.417 . S
C1321 C1333 1.422 . S
C1322 C1320 1.422 . S
C1322 C1321 1.421 . S
C1322 N1332 1.359 . S
C1323 C1321 1.417 . S
C1323 C1325 1.329 . S
C1323 H1342 0.930 . S
C1324 C1320 1.415 . S
C1324 C1325 1.437 . S
C1324 C1328 1.413 . S
C1325 C1323 1.329 . S
C1325 C1324 1.437 . S
C1325 H1347 0.929 . S
N1326 C1320 1.369 . S
N1326 C1327 1.338 . S
N1326 Gd1331 2.622 . S
C1327 N1326 1.338 . S
C1327 C1329 1.378 . S
C1327 H1339 0.929 . S
C1328 C1324 1.413 . S
C1328 C1329 1.348 . S
C1328 H1344 0.931 . S
C1329 C1327 1.378 . S
C1329 C1328 1.348 . S
C1329 H1345 0.930 . S
Gd1330 N1350 2.622 . S
Gd1330 N1357 2.570 . S
Gd1330 O1364 2.353 . S
Gd1330 O1365 2.468 . S
Gd1330 O1366 2.427 . S
Gd1330 O1368 2.388 . S
Gd1330 O1369 2.386 . S
Gd1330 O1373 2.307 . S
Gd1330 C1383 2.805 . S
Gd1331 N1326 2.622 . S
Gd1331 N1332 2.570 . S
Gd1331 O1363 2.386 . S
Gd1331 O1367 2.307 . S
Gd1331 O1370 2.353 . S
Gd1331 O1371 2.468 . S
Gd1331 O1372 2.427 . S
Gd1331 O1374 2.388 . S
Gd1331 C1395 2.805 . S
N1332 C1322 1.359 . S
N1332 Gd1331 2.570 . S
N1332 C1334 1.343 . S
C1333 C1321 1.422 . S
C1333 C1335 1.321 . S
C1333 H1341 0.931 . S
C1334 N1332 1.343 . S
C1334 C1335 1.390 . S
C1334 H1336 0.931 . S
C1335 C1333 1.321 . S
C1335 C1334 1.390 . S
C1335 H1337 0.930 . S
H1336 C1334 0.931 . S
H1337 C1335 0.930 . S
H1338 C1361 0.931 . S
H1339 C1327 0.929 . S
H1340 C1362 0.930 . S
H1341 C1333 0.931 . S
H1342 C1323 0.930 . S
H1343 C1352 0.929 . S
H1344 C1328 0.931 . S
H1345 C1329 0.930 . S
H1346 C1384 0.930 . S
H1347 C1325 0.929 . S
H1348 C1353 0.931 . S
H1349 C1354 0.930 . S
N1350 Gd1330 2.622 . S
N1350 C1351 1.369 . S
N1350 C1352 1.338 . S
C1351 N1350 1.369 . S
C1351 C1355 1.415 . S
C1351 C1358 1.422 . S
C1352 H1343 0.929 . S
C1352 N1350 1.338 . S
C1352 C1354 1.378 . S
C1353 H1348 0.931 . S
C1353 C1354 1.348 . S
C1353 C1355 1.413 . S
C1354 H1349 0.930 . S
C1354 C1352 1.378 . S
C1354 C1353 1.348 . S
C1355 C1351 1.415 . S
C1355 C1353 1.413 . S
C1355 C1385 1.437 . S
H1356 C1385 0.929 . S
N1357 Gd1330 2.570 . S
N1357 C1358 1.359 . S
N1357 C1361 1.343 . S
C1358 C1351 1.422 . S
C1358 N1357 1.359 . S
C1358 C1360 1.421 . S
C1359 C1360 1.422 . S
C1359 C1362 1.321 . S
C1359 H1386 0.931 . S
C1360 C1358 1.421 . S
C1360 C1359 1.422 . S
C1360 C1384 1.417 . S
C1361 H1338 0.931 . S
C1361 N1357 1.343 . S
C1361 C1362 1.390 . S
C1362 H1340 0.930 . S
C1362 C1359 1.321 . S
C1362 C1361 1.390 . S
O1363 Gd1331 2.386 . S
O1363 C1375 1.265 . S
O1364 Gd1330 2.353 . S
O1364 C1375 1.242 . S
O1365 Gd1330 2.468 . S
O1365 C1383 1.263 . S
O1366 Gd1330 2.427 . S
O1366 C1383 1.252 . S
O1367 Gd1331 2.307 . S
O1367 C1376 1.261 . S
O1368 Gd1330 2.388 . S
O1368 C1376 1.252 . S
O1369 Gd1330 2.386 . S
O1369 C1387 1.265 . S
O1370 Gd1331 2.353 . S
O1370 C1387 1.242 . S
O1371 Gd1331 2.468 . S
O1371 C1395 1.263 . S
O1372 Gd1331 2.427 . S
O1372 C1395 1.252 . S
O1373 Gd1330 2.307 . S
O1373 C1388 1.261 . S
O1374 Gd1331 2.388 . S
O1374 C1388 1.252 . S
C1375 O1363 1.265 . S
C1375 O1364 1.242 . S
C1376 O1367 1.261 . S
C1376 O1368 1.252 . S
C1377 C1380 1.394 . S
C1377 C1382 1.370 . S
C1377 C1383 1.500 . S
C1378 C1381 1.383 . S
C1378 C1382 1.395 . S
C1379 C1380 1.396 . S
C1379 C1381 1.365 . S
C1379 H1396 0.929 . S
C1380 C1377 1.394 . S
C1380 C1379 1.396 . S
C1380 H1397 0.930 . S
C1381 C1378 1.383 . S
C1381 C1379 1.365 . S
C1381 H1398 0.931 . S
C1382 C1377 1.370 . S
C1382 C1378 1.395 . S
C1382 H1399 0.930 . S
C1383 Gd1330 2.805 . S
C1383 O1365 1.263 . S
C1383 O1366 1.252 . S
C1383 C1377 1.500 . S
C1384 H1346 0.930 . S
C1384 C1360 1.417 . S
C1384 C1385 1.329 . S
C1385 C1355 1.437 . S
C1385 H1356 0.929 . S
C1385 C1384 1.329 . S
H1386 C1359 0.931 . S
C1387 O1369 1.265 . S
C1387 O1370 1.242 . S
C1388 O1373 1.261 . S
C1388 O1374 1.252 . S
C1389 C1392 1.394 . S
C1389 C1394 1.370 . S
C1389 C1395 1.500 . S
C1390 C1393 1.383 . S
C1390 C1394 1.395 . S
C1391 C1392 1.396 . S
C1391 C1393 1.365 . S
C1391 H1400 0.929 . S
C1392 C1389 1.394 . S
C1392 C1391 1.396 . S
C1392 H1401 0.930 . S
C1393 C1390 1.383 . S
C1393 C1391 1.365 . S
C1393 H1402 0.931 . S
C1394 C1389 1.370 . S
C1394 C1390 1.395 . S
C1394 H1403 0.930 . S
C1395 Gd1331 2.805 . S
C1395 O1371 1.263 . S
C1395 O1372 1.252 . S
C1395 C1389 1.500 . S
H1396 C1379 0.929 . S
H1397 C1380 0.930 . S
H1398 C1381 0.931 . S
H1399 C1382 0.930 . S
H1400 C1391 0.929 . S
H1401 C1392 0.930 . S
H1402 C1393 0.931 . S
H1403 C1394 0.930 . S
C1404 C1406 1.422 . S
C1404 C1408 1.415 . S
C1404 N1410 1.369 . S
C1405 C1406 1.421 . S
C1405 C1407 1.417 . S
C1405 C1417 1.422 . S
C1406 C1404 1.422 . S
C1406 C1405 1.421 . S
C1406 N1416 1.359 . S
C1407 C1405 1.417 . S
C1407 C1409 1.329 . S
C1407 H1426 0.930 . S
C1408 C1404 1.415 . S
C1408 C1409 1.437 . S
C1408 C1412 1.413 . S
C1409 C1407 1.329 . S
C1409 C1408 1.437 . S
C1409 H1431 0.929 . S
N1410 C1404 1.369 . S
N1410 C1411 1.338 . S
N1410 Gd1415 2.622 . S
C1411 N1410 1.338 . S
C1411 C1413 1.378 . S
C1411 H1423 0.929 . S
C1412 C1408 1.413 . S
C1412 C1413 1.348 . S
C1412 H1428 0.931 . S
C1413 C1411 1.378 . S
C1413 C1412 1.348 . S
C1413 H1429 0.930 . S
Gd1414 N1434 2.622 . S
Gd1414 N1441 2.570 . S
Gd1414 O1448 2.353 . S
Gd1414 O1449 2.468 . S
Gd1414 O1450 2.427 . S
Gd1414 O1452 2.388 . S
Gd1414 O1453 2.386 . S
Gd1414 O1457 2.307 . S
Gd1414 C1467 2.805 . S
Gd1415 N1410 2.622 . S
Gd1415 N1416 2.570 . S
Gd1415 O1447 2.386 . S
Gd1415 O1451 2.307 . S
Gd1415 O1454 2.353 . S
Gd1415 O1455 2.468 . S
Gd1415 O1456 2.427 . S
Gd1415 O1458 2.388 . S
Gd1415 C1479 2.805 . S
N1416 C1406 1.359 . S
N1416 Gd1415 2.570 . S
N1416 C1418 1.343 . S
C1417 C1405 1.422 . S
C1417 C1419 1.321 . S
C1417 H1425 0.931 . S
C1418 N1416 1.343 . S
C1418 C1419 1.390 . S
C1418 H1420 0.931 . S
C1419 C1417 1.321 . S
C1419 C1418 1.390 . S
C1419 H1421 0.930 . S
H1420 C1418 0.931 . S
H1421 C1419 0.930 . S
H1422 C1445 0.931 . S
H1423 C1411 0.929 . S
H1424 C1446 0.930 . S
H1425 C1417 0.931 . S
H1426 C1407 0.930 . S
H1427 C1436 0.929 . S
H1428 C1412 0.931 . S
H1429 C1413 0.930 . S
H1430 C1468 0.930 . S
H1431 C1409 0.929 . S
H1432 C1437 0.931 . S
H1433 C1438 0.930 . S
N1434 Gd1414 2.622 . S
N1434 C1435 1.369 . S
N1434 C1436 1.338 . S
C1435 N1434 1.369 . S
C1435 C1439 1.415 . S
C1435 C1442 1.422 . S
C1436 H1427 0.929 . S
C1436 N1434 1.338 . S
C1436 C1438 1.378 . S
C1437 H1432 0.931 . S
C1437 C1438 1.348 . S
C1437 C1439 1.413 . S
C1438 H1433 0.930 . S
C1438 C1436 1.378 . S
C1438 C1437 1.348 . S
C1439 C1435 1.415 . S
C1439 C1437 1.413 . S
C1439 C1469 1.437 . S
H1440 C1469 0.929 . S
N1441 Gd1414 2.570 . S
N1441 C1442 1.359 . S
N1441 C1445 1.343 . S
C1442 C1435 1.422 . S
C1442 N1441 1.359 . S
C1442 C1444 1.421 . S
C1443 C1444 1.422 . S
C1443 C1446 1.321 . S
C1443 H1470 0.931 . S
C1444 C1442 1.421 . S
C1444 C1443 1.422 . S
C1444 C1468 1.417 . S
C1445 H1422 0.931 . S
C1445 N1441 1.343 . S
C1445 C1446 1.390 . S
C1446 H1424 0.930 . S
C1446 C1443 1.321 . S
C1446 C1445 1.390 . S
O1447 Gd1415 2.386 . S
O1447 C1459 1.265 . S
O1448 Gd1414 2.353 . S
O1448 C1459 1.242 . S
O1449 Gd1414 2.468 . S
O1449 C1467 1.263 . S
O1450 Gd1414 2.427 . S
O1450 C1467 1.252 . S
O1451 Gd1415 2.307 . S
O1451 C1460 1.261 . S
O1452 Gd1414 2.388 . S
O1452 C1460 1.252 . S
O1453 Gd1414 2.386 . S
O1453 C1471 1.265 . S
O1454 Gd1415 2.353 . S
O1454 C1471 1.242 . S
O1455 Gd1415 2.468 . S
O1455 C1479 1.263 . S
O1456 Gd1415 2.427 . S
O1456 C1479 1.252 . S
O1457 Gd1414 2.307 . S
O1457 C1472 1.261 . S
O1458 Gd1415 2.388 . S
O1458 C1472 1.252 . S
C1459 O1447 1.265 . S
C1459 O1448 1.242 . S
C1460 O1451 1.261 . S
C1460 O1452 1.252 . S
C1461 C1464 1.394 . S
C1461 C1466 1.370 . S
C1461 C1467 1.500 . S
C1462 C1465 1.383 . S
C1462 C1466 1.395 . S
C1463 C1464 1.396 . S
C1463 C1465 1.365 . S
C1463 H1480 0.929 . S
C1464 C1461 1.394 . S
C1464 C1463 1.396 . S
C1464 H1481 0.930 . S
C1465 C1462 1.383 . S
C1465 C1463 1.365 . S
C1465 H1482 0.931 . S
C1466 C1461 1.370 . S
C1466 C1462 1.395 . S
C1466 H1483 0.930 . S
C1467 Gd1414 2.805 . S
C1467 O1449 1.263 . S
C1467 O1450 1.252 . S
C1467 C1461 1.500 . S
C1468 H1430 0.930 . S
C1468 C1444 1.417 . S
C1468 C1469 1.329 . S
C1469 C1439 1.437 . S
C1469 H1440 0.929 . S
C1469 C1468 1.329 . S
H1470 C1443 0.931 . S
C1471 O1453 1.265 . S
C1471 O1454 1.242 . S
C1472 O1457 1.261 . S
C1472 O1458 1.252 . S
C1473 C1476 1.394 . S
C1473 C1478 1.370 . S
C1473 C1479 1.500 . S
C1474 C1477 1.383 . S
C1474 C1478 1.395 . S
C1475 C1476 1.396 . S
C1475 C1477 1.365 . S
C1475 H1484 0.929 . S
C1476 C1473 1.394 . S
C1476 C1475 1.396 . S
C1476 H1485 0.930 . S
C1477 C1474 1.383 . S
C1477 C1475 1.365 . S
C1477 H1486 0.931 . S
C1478 C1473 1.370 . S
C1478 C1474 1.395 . S
C1478 H1487 0.930 . S
C1479 Gd1415 2.805 . S
C1479 O1455 1.263 . S
C1479 O1456 1.252 . S
C1479 C1473 1.500 . S
H1480 C1463 0.929 . S
H1481 C1464 0.930 . S
H1482 C1465 0.931 . S
H1483 C1466 0.930 . S
H1484 C1475 0.929 . S
H1485 C1476 0.930 . S
H1486 C1477 0.931 . S
H1487 C1478 0.930 . S
C1488 C1490 1.422 . S
C1488 C1492 1.415 . S
C1488 N1494 1.369 . S
C1489 C1490 1.421 . S
C1489 C1491 1.417 . S
C1489 C1501 1.422 . S
C1490 C1488 1.422 . S
C1490 C1489 1.421 . S
C1490 N1500 1.359 . S
C1491 C1489 1.417 . S
C1491 C1493 1.329 . S
C1491 H1510 0.930 . S
C1492 C1488 1.415 . S
C1492 C1493 1.437 . S
C1492 C1496 1.413 . S
C1493 C1491 1.329 . S
C1493 C1492 1.437 . S
C1493 H1515 0.929 . S
N1494 C1488 1.369 . S
N1494 C1495 1.338 . S
N1494 Gd1499 2.622 . S
C1495 N1494 1.338 . S
C1495 C1497 1.378 . S
C1495 H1507 0.929 . S
C1496 C1492 1.413 . S
C1496 C1497 1.348 . S
C1496 H1512 0.931 . S
C1497 C1495 1.378 . S
C1497 C1496 1.348 . S
C1497 H1513 0.930 . S
Gd1498 N1518 2.622 . S
Gd1498 N1525 2.570 . S
Gd1498 O1532 2.353 . S
Gd1498 O1533 2.468 . S
Gd1498 O1534 2.427 . S
Gd1498 O1536 2.388 . S
Gd1498 O1537 2.386 . S
Gd1498 O1541 2.307 . S
Gd1498 C1551 2.805 . S
Gd1499 N1494 2.622 . S
Gd1499 N1500 2.570 . S
Gd1499 O1531 2.386 . S
Gd1499 O1535 2.307 . S
Gd1499 O1538 2.353 . S
Gd1499 O1539 2.468 . S
Gd1499 O1540 2.427 . S
Gd1499 O1542 2.388 . S
Gd1499 C1563 2.805 . S
N1500 C1490 1.359 . S
N1500 Gd1499 2.570 . S
N1500 C1502 1.343 . S
C1501 C1489 1.422 . S
C1501 C1503 1.321 . S
C1501 H1509 0.931 . S
C1502 N1500 1.343 . S
C1502 C1503 1.390 . S
C1502 H1504 0.931 . S
C1503 C1501 1.321 . S
C1503 C1502 1.390 . S
C1503 H1505 0.930 . S
H1504 C1502 0.931 . S
H1505 C1503 0.930 . S
H1506 C1529 0.931 . S
H1507 C1495 0.929 . S
H1508 C1530 0.930 . S
H1509 C1501 0.931 . S
H1510 C1491 0.930 . S
H1511 C1520 0.929 . S
H1512 C1496 0.931 . S
H1513 C1497 0.930 . S
H1514 C1552 0.930 . S
H1515 C1493 0.929 . S
H1516 C1521 0.931 . S
H1517 C1522 0.930 . S
N1518 Gd1498 2.622 . S
N1518 C1519 1.369 . S
N1518 C1520 1.338 . S
C1519 N1518 1.369 . S
C1519 C1523 1.415 . S
C1519 C1526 1.422 . S
C1520 H1511 0.929 . S
C1520 N1518 1.338 . S
C1520 C1522 1.378 . S
C1521 H1516 0.931 . S
C1521 C1522 1.348 . S
C1521 C1523 1.413 . S
C1522 H1517 0.930 . S
C1522 C1520 1.378 . S
C1522 C1521 1.348 . S
C1523 C1519 1.415 . S
C1523 C1521 1.413 . S
C1523 C1553 1.437 . S
H1524 C1553 0.929 . S
N1525 Gd1498 2.570 . S
N1525 C1526 1.359 . S
N1525 C1529 1.343 . S
C1526 C1519 1.422 . S
C1526 N1525 1.359 . S
C1526 C1528 1.421 . S
C1527 C1528 1.422 . S
C1527 C1530 1.321 . S
C1527 H1554 0.931 . S
C1528 C1526 1.421 . S
C1528 C1527 1.422 . S
C1528 C1552 1.417 . S
C1529 H1506 0.931 . S
C1529 N1525 1.343 . S
C1529 C1530 1.390 . S
C1530 H1508 0.930 . S
C1530 C1527 1.321 . S
C1530 C1529 1.390 . S
O1531 Gd1499 2.386 . S
O1531 C1543 1.265 . S
O1532 Gd1498 2.353 . S
O1532 C1543 1.242 . S
O1533 Gd1498 2.468 . S
O1533 C1551 1.263 . S
O1534 Gd1498 2.427 . S
O1534 C1551 1.252 . S
O1535 Gd1499 2.307 . S
O1535 C1544 1.261 . S
O1536 Gd1498 2.388 . S
O1536 C1544 1.252 . S
O1537 Gd1498 2.386 . S
O1537 C1555 1.265 . S
O1538 Gd1499 2.353 . S
O1538 C1555 1.242 . S
O1539 Gd1499 2.468 . S
O1539 C1563 1.263 . S
O1540 Gd1499 2.427 . S
O1540 C1563 1.252 . S
O1541 Gd1498 2.307 . S
O1541 C1556 1.261 . S
O1542 Gd1499 2.388 . S
O1542 C1556 1.252 . S
C1543 O1531 1.265 . S
C1543 O1532 1.242 . S
C1544 O1535 1.261 . S
C1544 O1536 1.252 . S
C1545 C1548 1.394 . S
C1545 C1550 1.370 . S
C1545 C1551 1.500 . S
C1546 C1549 1.383 . S
C1546 C1550 1.395 . S
C1547 C1548 1.396 . S
C1547 C1549 1.365 . S
C1547 H1564 0.929 . S
C1548 C1545 1.394 . S
C1548 C1547 1.396 . S
C1548 H1565 0.930 . S
C1549 C1546 1.383 . S
C1549 C1547 1.365 . S
C1549 H1566 0.931 . S
C1550 C1545 1.370 . S
C1550 C1546 1.395 . S
C1550 H1567 0.930 . S
C1551 Gd1498 2.805 . S
C1551 O1533 1.263 . S
C1551 O1534 1.252 . S
C1551 C1545 1.500 . S
C1552 H1514 0.930 . S
C1552 C1528 1.417 . S
C1552 C1553 1.329 . S
C1553 C1523 1.437 . S
C1553 H1524 0.929 . S
C1553 C1552 1.329 . S
H1554 C1527 0.931 . S
C1555 O1537 1.265 . S
C1555 O1538 1.242 . S
C1556 O1541 1.261 . S
C1556 O1542 1.252 . S
C1557 C1560 1.394 . S
C1557 C1562 1.370 . S
C1557 C1563 1.500 . S
C1558 C1561 1.383 . S
C1558 C1562 1.395 . S
C1559 C1560 1.396 . S
C1559 C1561 1.365 . S
C1559 H1568 0.929 . S
C1560 C1557 1.394 . S
C1560 C1559 1.396 . S
C1560 H1569 0.930 . S
C1561 C1558 1.383 . S
C1561 C1559 1.365 . S
C1561 H1570 0.931 . S
C1562 C1557 1.370 . S
C1562 C1558 1.395 . S
C1562 H1571 0.930 . S
C1563 Gd1499 2.805 . S
C1563 O1539 1.263 . S
C1563 O1540 1.252 . S
C1563 C1557 1.500 . S
H1564 C1547 0.929 . S
H1565 C1548 0.930 . S
H1566 C1549 0.931 . S
H1567 C1550 0.930 . S
H1568 C1559 0.929 . S
H1569 C1560 0.930 . S
H1570 C1561 0.931 . S
H1571 C1562 0.930 . S
C1572 C1574 1.422 . S
C1572 C1576 1.415 1_554 S
C1572 N1578 1.369 1_554 S
C1573 C1574 1.421 . S
C1573 C1575 1.417 . S
C1573 C1585 1.422 . S
C1574 C1572 1.422 . S
C1574 C1573 1.421 . S
C1574 N1584 1.359 . S
C1575 C1573 1.417 . S
C1575 C1577 1.329 1_554 S
C1575 H1594 0.930 . S
C1576 C1572 1.415 1_556 S
C1576 C1577 1.437 . S
C1576 C1580 1.413 . S
C1577 C1575 1.329 1_556 S
C1577 C1576 1.437 . S
C1577 H1599 0.929 . S
N1578 C1572 1.369 1_556 S
N1578 C1579 1.338 . S
N1578 Gd1583 2.622 1_556 S
C1579 N1578 1.338 . S
C1579 C1581 1.378 . S
C1579 H1591 0.929 . S
C1580 C1576 1.413 . S
C1580 C1581 1.348 . S
C1580 H1596 0.931 . S
C1581 C1579 1.378 . S
C1581 C1580 1.348 . S
C1581 H1597 0.930 . S
Gd1582 N1602 2.622 . S
Gd1582 N1609 2.570 . S
Gd1582 O1616 2.353 1_655 S
Gd1582 O1617 2.468 . S
Gd1582 O1618 2.427 . S
Gd1582 O1620 2.388 1_655 S
Gd1582 O1621 2.386 1_655 S
Gd1582 O1625 2.307 . S
Gd1582 C1635 2.805 . S
Gd1583 N1578 2.622 1_554 S
Gd1583 N1584 2.570 . S
Gd1583 O1615 2.386 . S
Gd1583 O1619 2.307 . S
Gd1583 O1622 2.353 . S
Gd1583 O1623 2.468 . S
Gd1583 O1624 2.427 . S
Gd1583 O1626 2.388 1_554 S
Gd1583 C1647 2.805 . S
N1584 C1574 1.359 . S
N1584 Gd1583 2.570 . S
N1584 C1586 1.343 . S
C1585 C1573 1.422 . S
C1585 C1587 1.321 . S
C1585 H1593 0.931 . S
C1586 N1584 1.343 . S
C1586 C1587 1.390 . S
C1586 H1588 0.931 . S
C1587 C1585 1.321 . S
C1587 C1586 1.390 . S
C1587 H1589 0.930 . S
H1588 C1586 0.931 . S
H1589 C1587 0.930 . S
H1590 C1613 0.931 . S
H1591 C1579 0.929 . S
H1592 C1614 0.890 1_556 S
H1593 C1585 0.931 . S
H1594 C1575 0.930 . S
H1595 C1604 0.929 . S
H1596 C1580 0.931 . S
H1597 C1581 0.930 . S
H1598 C1636 0.930 . S
H1599 C1577 0.929 . S
H1600 C1605 0.931 . S
H1601 C1606 0.930 . S
N1602 Gd1582 2.622 . S
N1602 C1603 1.369 . S
N1602 C1604 1.338 . S
C1603 N1602 1.369 . S
C1603 C1607 1.415 . S
C1603 C1610 1.422 . S
C1604 H1595 0.929 . S
C1604 N1602 1.338 . S
C1604 C1606 1.378 . S
C1605 H1600 0.931 . S
C1605 C1606 1.348 . S
C1605 C1607 1.413 . S
C1606 H1601 0.930 . S
C1606 C1604 1.378 . S
C1606 C1605 1.348 . S
C1607 C1603 1.415 . S
C1607 C1605 1.413 . S
C1607 C1637 1.437 . S
H1608 C1637 0.929 . S
N1609 Gd1582 2.570 . S
N1609 C1610 1.359 . S
N1609 C1613 1.343 . S
C1610 C1603 1.422 . S
C1610 N1609 1.359 . S
C1610 C1612 1.421 . S
C1611 C1612 1.422 . S
C1611 C1614 1.321 . S
C1611 H1638 0.931 . S
C1612 C1610 1.421 . S
C1612 C1611 1.422 . S
C1612 C1636 1.417 . S
C1613 H1590 0.931 . S
C1613 N1609 1.343 . S
C1613 C1614 1.390 . S
C1614 H1592 0.890 1_554 S
C1614 C1611 1.321 . S
C1614 C1613 1.390 . S
O1615 Gd1583 2.386 . S
O1615 C1627 1.265 . S
O1616 Gd1582 2.353 1_455 S
O1616 C1627 1.242 . S
O1617 Gd1582 2.468 . S
O1617 C1635 1.263 . S
O1618 Gd1582 2.427 . S
O1618 C1635 1.252 . S
O1619 Gd1583 2.307 . S
O1619 C1628 1.261 . S
O1620 Gd1582 2.388 1_455 S
O1620 C1628 1.252 . S
O1621 Gd1582 2.386 1_455 S
O1621 C1639 1.265 . S
O1622 Gd1583 2.353 . S
O1622 C1639 1.242 . S
O1623 Gd1583 2.468 . S
O1623 C1647 1.263 . S
O1624 Gd1583 2.427 . S
O1624 C1647 1.252 . S
O1625 Gd1582 2.307 . S
O1625 C1640 1.310 . S
O1626 Gd1583 2.388 1_556 S
O1626 C1640 1.235 1_456 S
C1627 O1615 1.265 . S
C1627 O1616 1.242 . S
C1628 O1619 1.261 . S
C1628 O1620 1.252 . S
C1629 C1632 1.394 . S
C1629 C1634 1.370 . S
C1629 C1635 1.500 . S
C1630 C1633 1.383 . S
C1630 C1634 1.395 . S
C1631 C1632 1.396 . S
C1631 C1633 1.365 . S
C1631 H1648 0.929 . S
C1632 C1629 1.394 . S
C1632 C1631 1.396 . S
C1632 H1649 0.930 . S
C1633 C1630 1.383 . S
C1633 C1631 1.365 . S
C1633 H1650 0.931 . S
C1634 C1629 1.370 . S
C1634 C1630 1.395 . S
C1634 H1651 0.930 . S
C1635 Gd1582 2.805 . S
C1635 O1617 1.263 . S
C1635 O1618 1.252 . S
C1635 C1629 1.500 . S
C1636 H1598 0.930 . S
C1636 C1612 1.417 . S
C1636 C1637 1.329 . S
C1637 C1607 1.437 . S
C1637 H1608 0.929 . S
C1637 C1636 1.329 . S
H1638 C1611 0.931 . S
C1639 O1621 1.265 . S
C1639 O1622 1.242 . S
C1640 O1625 1.310 . S
C1640 O1626 1.235 1_654 S
C1641 C1644 1.394 1_554 S
C1641 C1646 1.370 . S
C1641 C1647 1.500 . S
C1642 C1645 1.383 . S
C1642 C1646 1.395 . S
C1643 C1644 1.396 . S
C1643 C1645 1.365 1_556 S
C1643 H1652 0.929 . S
C1644 C1641 1.394 1_556 S
C1644 C1643 1.396 . S
C1644 H1653 0.930 . S
C1645 C1642 1.383 . S
C1645 C1643 1.365 1_554 S
C1645 H1654 0.943 . S
C1646 C1641 1.370 . S
C1646 C1642 1.395 . S
C1646 H1655 0.930 . S
C1647 Gd1583 2.805 . S
C1647 O1623 1.263 . S
C1647 O1624 1.252 . S
C1647 C1641 1.500 . S
H1648 C1631 0.929 . S
H1649 C1632 0.930 . S
H1650 C1633 0.931 . S
H1651 C1634 0.930 . S
H1652 C1643 0.929 . S
H1653 C1644 0.930 . S
H1654 C1645 0.943 . S
H1655 C1646 0.930 . S
C1656 C1657 1.349 1_655 S
C1656 C1658 1.327 . S
C1656 H1681 0.950 . S
C1657 C1656 1.349 1_455 S
C1657 C1673 1.349 . S
C1658 C1656 1.327 . S
C1658 C1677 1.429 1_655 S
C1658 H1682 0.950 . S
C1659 C1676 1.574 . S
C1659 C1678 1.368 . S
C1659 H1683 0.949 . S
H1660 C1664 0.949 . S
C1661 C1662 1.349 . S
C1661 C1663 1.327 . S
C1661 H1684 0.950 . S
C1662 C1661 1.349 . S
C1662 C1674 1.349 . S
C1663 C1661 1.327 . S
C1663 C1679 1.429 . S
C1663 H1685 0.950 1_554 S
C1664 H1660 0.949 . S
C1664 C1672 1.574 1_554 S
C1664 C1680 1.369 1_554 S
H1665 C1673 0.950 . S
H1666 C1671 0.950 . S
H1667 C1672 0.949 1_654 S
H1668 C1674 0.950 . S
H1669 C1675 0.950 . S
H1670 C1676 0.949 . S
C1671 H1666 0.950 . S
C1671 C1673 1.327 . S
C1671 C1677 1.429 . S
C1672 C1664 1.574 1_556 S
C1672 H1667 0.949 1_456 S
C1672 C1678 1.368 . S
C1673 C1657 1.349 . S
C1673 H1665 0.950 . S
C1673 C1671 1.327 . S
C1674 C1662 1.349 . S
C1674 H1668 0.950 . S
C1674 C1675 1.327 . S
C1675 H1669 0.950 . S
C1675 C1674 1.327 . S
C1675 C1679 1.429 . S
C1676 C1659 1.574 . S
C1676 H1670 0.949 . S
C1676 C1680 1.367 . S
C1677 C1658 1.429 1_455 S
C1677 C1671 1.429 . S
C1677 C1678 1.523 . S
C1678 C1659 1.368 . S
C1678 C1672 1.368 . S
C1678 C1677 1.523 . S
C1679 C1663 1.429 . S
C1679 C1675 1.429 . S
C1679 C1680 1.523 1_554 S
C1680 C1664 1.369 1_556 S
C1680 C1676 1.367 . S
C1680 C1679 1.523 1_556 S
H1681 C1656 0.950 . S
H1682 C1658 0.950 . S
H1683 C1659 0.949 . S
H1684 C1661 0.950 . S
H1685 C1663 0.950 1_556 S
C1686 C1687 1.349 . S
C1686 C1688 1.327 . S
C1686 H1711 0.950 . S
C1687 C1686 1.349 . S
C1687 C1703 1.349 . S
C1688 C1686 1.327 . S
C1688 C1707 1.429 . S
C1688 H1712 0.950 . S
C1689 C1706 1.574 . S
C1689 C1708 1.368 . S
C1689 H1713 0.949 . S
H1690 C1694 0.949 . S
C1691 C1692 1.349 . S
C1691 C1693 1.327 . S
C1691 H1714 0.950 . S
C1692 C1691 1.349 . S
C1692 C1704 1.349 . S
C1693 C1691 1.327 . S
C1693 C1709 1.429 . S
C1693 H1715 0.950 . S
C1694 H1690 0.949 . S
C1694 C1702 1.574 . S
C1694 C1710 1.368 . S
H1695 C1703 0.950 . S
H1696 C1701 0.950 . S
H1697 C1702 0.949 . S
H1698 C1704 0.950 . S
H1699 C1705 0.950 . S
H1700 C1706 0.949 . S
C1701 H1696 0.950 . S
C1701 C1703 1.327 . S
C1701 C1707 1.429 . S
C1702 C1694 1.574 . S
C1702 H1697 0.949 . S
C1702 C1708 1.368 . S
C1703 C1687 1.349 . S
C1703 H1695 0.950 . S
C1703 C1701 1.327 . S
C1704 C1692 1.349 . S
C1704 H1698 0.950 . S
C1704 C1705 1.327 . S
C1705 H1699 0.950 . S
C1705 C1704 1.327 . S
C1705 C1709 1.429 . S
C1706 C1689 1.574 . S
C1706 H1700 0.949 . S
C1706 C1710 1.368 . S
C1707 C1688 1.429 . S
C1707 C1701 1.429 . S
C1707 C1708 1.523 . S
C1708 C1689 1.368 . S
C1708 C1702 1.368 . S
C1708 C1707 1.523 . S
C1709 C1693 1.429 . S
C1709 C1705 1.429 . S
C1709 C1710 1.523 . S
C1710 C1694 1.368 . S
C1710 C1706 1.368 . S
C1710 C1709 1.523 . S
H1711 C1686 0.950 . S
H1712 C1688 0.950 . S
H1713 C1689 0.949 . S
H1714 C1691 0.950 . S
H1715 C1693 0.950 . S
C1716 C1717 1.349 . S
C1716 C1718 1.327 . S
C1716 H1741 0.950 . S
C1717 C1716 1.349 . S
C1717 C1733 1.349 . S
C1718 C1716 1.327 . S
C1718 C1737 1.429 . S
C1718 H1742 0.950 . S
C1719 C1736 1.574 . S
C1719 C1738 1.368 . S
C1719 H1743 0.949 . S
H1720 C1724 0.949 . S
C1721 C1722 1.349 . S
C1721 C1723 1.327 . S
C1721 H1744 0.950 . S
C1722 C1721 1.349 . S
C1722 C1734 1.349 . S
C1723 C1721 1.327 . S
C1723 C1739 1.429 . S
C1723 H1745 0.950 . S
C1724 H1720 0.949 . S
C1724 C1732 1.574 . S
C1724 C1740 1.368 . S
H1725 C1733 0.950 . S
H1726 C1731 0.950 . S
H1727 C1732 0.949 . S
H1728 C1734 0.950 . S
H1729 C1735 0.950 . S
H1730 C1736 0.949 . S
C1731 H1726 0.950 . S
C1731 C1733 1.327 . S
C1731 C1737 1.429 . S
C1732 C1724 1.574 . S
C1732 H1727 0.949 . S
C1732 C1738 1.368 . S
C1733 C1717 1.349 . S
C1733 H1725 0.950 . S
C1733 C1731 1.327 . S
C1734 C1722 1.349 . S
C1734 H1728 0.950 . S
C1734 C1735 1.327 . S
C1735 H1729 0.950 . S
C1735 C1734 1.327 . S
C1735 C1739 1.429 . S
C1736 C1719 1.574 . S
C1736 H1730 0.949 . S
C1736 C1740 1.368 . S
C1737 C1718 1.429 . S
C1737 C1731 1.429 . S
C1737 C1738 1.523 . S
C1738 C1719 1.368 . S
C1738 C1732 1.368 . S
C1738 C1737 1.523 . S
C1739 C1723 1.429 . S
C1739 C1735 1.429 . S
C1739 C1740 1.523 . S
C1740 C1724 1.368 . S
C1740 C1736 1.368 . S
C1740 C1739 1.523 . S
H1741 C1716 0.950 . S
H1742 C1718 0.950 . S
H1743 C1719 0.949 . S
H1744 C1721 0.950 . S
H1745 C1723 0.950 . S
C1746 C1747 1.349 . S
C1746 C1748 1.327 . S
C1746 H1771 0.950 . S
C1747 C1746 1.349 . S
C1747 C1763 1.349 . S
C1748 C1746 1.327 . S
C1748 C1767 1.429 . S
C1748 H1772 0.950 . S
C1749 C1766 1.574 . S
C1749 C1768 1.368 . S
C1749 H1773 0.949 . S
H1750 C1754 0.949 . S
C1751 C1752 1.349 . S
C1751 C1753 1.327 . S
C1751 H1774 0.950 . S
C1752 C1751 1.349 . S
C1752 C1764 1.349 . S
C1753 C1751 1.327 . S
C1753 C1769 1.429 . S
C1753 H1775 0.950 . S
C1754 H1750 0.949 . S
C1754 C1762 1.574 . S
C1754 C1770 1.368 . S
H1755 C1763 0.950 . S
H1756 C1761 0.950 . S
H1757 C1762 0.949 . S
H1758 C1764 0.950 . S
H1759 C1765 0.950 . S
H1760 C1766 0.949 . S
C1761 H1756 0.950 . S
C1761 C1763 1.327 . S
C1761 C1767 1.429 . S
C1762 C1754 1.574 . S
C1762 H1757 0.949 . S
C1762 C1768 1.368 . S
C1763 C1747 1.349 . S
C1763 H1755 0.950 . S
C1763 C1761 1.327 . S
C1764 C1752 1.349 . S
C1764 H1758 0.950 . S
C1764 C1765 1.327 . S
C1765 H1759 0.950 . S
C1765 C1764 1.327 . S
C1765 C1769 1.429 . S
C1766 C1749 1.574 . S
C1766 H1760 0.949 . S
C1766 C1770 1.368 . S
C1767 C1748 1.429 . S
C1767 C1761 1.429 . S
C1767 C1768 1.523 . S
C1768 C1749 1.368 . S
C1768 C1762 1.368 . S
C1768 C1767 1.523 . S
C1769 C1753 1.429 . S
C1769 C1765 1.429 . S
C1769 C1770 1.523 . S
C1770 C1754 1.368 . S
C1770 C1766 1.368 . S
C1770 C1769 1.523 . S
H1771 C1746 0.950 . S
H1772 C1748 0.950 . S
H1773 C1749 0.949 . S
H1774 C1751 0.950 . S
H1775 C1753 0.950 . S
C1776 C1777 1.349 . S
C1776 C1778 1.327 . S
C1776 H1801 0.950 . S
C1777 C1776 1.349 . S
C1777 C1793 1.349 . S
C1778 C1776 1.327 . S
C1778 C1797 1.429 . S
C1778 H1802 0.950 . S
C1779 C1796 1.574 . S
C1779 C1798 1.368 . S
C1779 H1803 0.898 1_455 S
H1780 C1784 0.949 . S
C1781 C1782 1.349 . S
C1781 C1783 1.327 . S
C1781 H1804 0.950 . S
C1782 C1781 1.349 . S
C1782 C1794 1.349 . S
C1783 C1781 1.327 . S
C1783 C1799 1.429 . S
C1783 H1805 0.950 . S
C1784 H1780 0.949 . S
C1784 C1792 1.574 . S
C1784 C1800 1.368 . S
H1785 C1793 0.950 1_655 S
H1786 C1791 0.950 1_655 S
H1787 C1792 0.949 . S
H1788 C1794 0.950 . S
H1789 C1795 0.950 . S
H1790 C1796 0.949 . S
C1791 H1786 0.950 1_455 S
C1791 C1793 1.327 . S
C1791 C1797 1.429 . S
C1792 C1784 1.574 . S
C1792 H1787 0.949 . S
C1792 C1798 1.368 . S
C1793 C1777 1.349 . S
C1793 H1785 0.950 1_455 S
C1793 C1791 1.327 . S
C1794 C1782 1.349 . S
C1794 H1788 0.950 . S
C1794 C1795 1.327 . S
C1795 H1789 0.950 . S
C1795 C1794 1.327 . S
C1795 C1799 1.429 . S
C1796 C1779 1.574 . S
C1796 H1790 0.949 . S
C1796 C1800 1.368 . S
C1797 C1778 1.429 . S
C1797 C1791 1.429 . S
C1797 C1798 1.523 . S
C1798 C1779 1.368 . S
C1798 C1792 1.368 . S
C1798 C1797 1.523 . S
C1799 C1783 1.429 . S
C1799 C1795 1.429 . S
C1799 C1800 1.523 . S
C1800 C1784 1.368 . S
C1800 C1796 1.368 . S
C1800 C1799 1.523 . S
H1801 C1776 0.950 . S
H1802 C1778 0.950 . S
H1803 C1779 0.898 1_655 S
H1804 C1781 0.950 . S
H1805 C1783 0.950 . S
C1806 C1807 1.349 . S
C1806 C1808 1.327 . S
C1806 H1831 0.950 . S
C1807 C1806 1.349 . S
C1807 C1823 1.349 . S
C1808 C1806 1.327 . S
C1808 C1827 1.429 . S
C1808 H1832 0.950 . S
C1809 C1826 1.574 . S
C1809 C1828 1.368 . S
C1809 H1833 0.949 . S
H1810 C1814 0.949 . S
C1811 C1812 1.349 . S
C1811 C1813 1.327 . S
C1811 H1834 0.950 . S
C1812 C1811 1.349 . S
C1812 C1824 1.349 . S
C1813 C1811 1.327 . S
C1813 C1829 1.429 . S
C1813 H1835 0.950 . S
C1814 H1810 0.949 . S
C1814 C1822 1.574 . S
C1814 C1830 1.368 . S
H1815 C1823 0.950 . S
H1816 C1821 0.950 . S
H1817 C1822 0.949 . S
H1818 C1824 0.950 . S
H1819 C1825 0.950 . S
H1820 C1826 0.949 . S
C1821 H1816 0.950 . S
C1821 C1823 1.327 . S
C1821 C1827 1.429 . S
C1822 C1814 1.574 . S
C1822 H1817 0.949 . S
C1822 C1828 1.368 . S
C1823 C1807 1.349 . S
C1823 H1815 0.950 . S
C1823 C1821 1.327 . S
C1824 C1812 1.349 . S
C1824 H1818 0.950 . S
C1824 C1825 1.327 . S
C1825 H1819 0.950 . S
C1825 C1824 1.327 . S
C1825 C1829 1.429 . S
C1826 C1809 1.574 . S
C1826 H1820 0.949 . S
C1826 C1830 1.368 . S
C1827 C1808 1.429 . S
C1827 C1821 1.429 . S
C1827 C1828 1.523 . S
C1828 C1809 1.368 . S
C1828 C1822 1.368 . S
C1828 C1827 1.523 . S
C1829 C1813 1.429 . S
C1829 C1825 1.429 . S
C1829 C1830 1.523 . S
C1830 C1814 1.368 . S
C1830 C1826 1.368 . S
C1830 C1829 1.523 . S
H1831 C1806 0.950 . S
H1832 C1808 0.950 . S
H1833 C1809 0.949 . S
H1834 C1811 0.950 . S
H1835 C1813 0.950 . S
C1836 C1837 1.349 . S
C1836 C1838 1.327 . S
C1836 H1861 0.950 . S
C1837 C1836 1.349 . S
C1837 C1853 1.349 . S
C1838 C1836 1.327 . S
C1838 C1857 1.429 . S
C1838 H1862 0.950 . S
C1839 C1856 1.574 . S
C1839 C1858 1.368 . S
C1839 H1863 0.949 . S
H1840 C1844 0.949 . S
C1841 C1842 1.349 . S
C1841 C1843 1.327 . S
C1841 H1864 0.950 . S
C1842 C1841 1.349 . S
C1842 C1854 1.349 . S
C1843 C1841 1.327 . S
C1843 C1859 1.429 . S
C1843 H1865 0.950 . S
C1844 H1840 0.949 . S
C1844 C1852 1.574 . S
C1844 C1860 1.368 . S
H1845 C1853 0.950 . S
H1846 C1851 0.950 . S
H1847 C1852 0.949 . S
H1848 C1854 0.950 . S
H1849 C1855 0.950 . S
H1850 C1856 0.949 . S
C1851 H1846 0.950 . S
C1851 C1853 1.327 . S
C1851 C1857 1.429 . S
C1852 C1844 1.574 . S
C1852 H1847 0.949 . S
C1852 C1858 1.368 . S
C1853 C1837 1.349 . S
C1853 H1845 0.950 . S
C1853 C1851 1.327 . S
C1854 C1842 1.349 . S
C1854 H1848 0.950 . S
C1854 C1855 1.327 . S
C1855 H1849 0.950 . S
C1855 C1854 1.327 . S
C1855 C1859 1.429 . S
C1856 C1839 1.574 . S
C1856 H1850 0.949 . S
C1856 C1860 1.368 . S
C1857 C1838 1.429 . S
C1857 C1851 1.429 . S
C1857 C1858 1.523 . S
C1858 C1839 1.368 . S
C1858 C1852 1.368 . S
C1858 C1857 1.523 . S
C1859 C1843 1.429 . S
C1859 C1855 1.429 . S
C1859 C1860 1.523 . S
C1860 C1844 1.368 . S
C1860 C1856 1.368 . S
C1860 C1859 1.523 . S
H1861 C1836 0.950 . S
H1862 C1838 0.950 . S
H1863 C1839 0.949 . S
H1864 C1841 0.950 . S
H1865 C1843 0.950 . S
C1866 C1867 1.349 . S
C1866 C1868 1.327 . S
C1866 H1891 0.950 . S
C1867 C1866 1.349 . S
C1867 C1883 1.349 . S
C1868 C1866 1.327 . S
C1868 C1887 1.429 . S
C1868 H1892 0.950 . S
C1869 C1886 1.574 . S
C1869 C1888 1.368 . S
C1869 H1893 0.949 . S
H1870 C1874 0.949 . S
C1871 C1872 1.349 . S
C1871 C1873 1.327 . S
C1871 H1894 0.950 . S
C1872 C1871 1.349 . S
C1872 C1884 1.349 . S
C1873 C1871 1.327 . S
C1873 C1889 1.429 . S
C1873 H1895 0.950 . S
C1874 H1870 0.949 . S
C1874 C1882 1.574 . S
C1874 C1890 1.368 . S
H1875 C1883 0.950 . S
H1876 C1881 0.950 . S
H1877 C1882 0.949 . S
H1878 C1884 0.950 . S
H1879 C1885 0.950 . S
H1880 C1886 0.949 . S
C1881 H1876 0.950 . S
C1881 C1883 1.327 . S
C1881 C1887 1.429 . S
C1882 C1874 1.574 . S
C1882 H1877 0.949 . S
C1882 C1888 1.368 . S
C1883 C1867 1.349 . S
C1883 H1875 0.950 . S
C1883 C1881 1.327 . S
C1884 C1872 1.349 . S
C1884 H1878 0.950 . S
C1884 C1885 1.327 . S
C1885 H1879 0.950 . S
C1885 C1884 1.327 . S
C1885 C1889 1.429 . S
C1886 C1869 1.574 . S
C1886 H1880 0.949 . S
C1886 C1890 1.368 . S
C1887 C1868 1.429 . S
C1887 C1881 1.429 . S
C1887 C1888 1.523 . S
C1888 C1869 1.368 . S
C1888 C1882 1.368 . S
C1888 C1887 1.523 . S
C1889 C1873 1.429 . S
C1889 C1885 1.429 . S
C1889 C1890 1.523 . S
C1890 C1874 1.368 . S
C1890 C1886 1.368 . S
C1890 C1889 1.523 . S
H1891 C1866 0.950 . S
H1892 C1868 0.950 . S
H1893 C1869 0.949 . S
H1894 C1871 0.950 . S
H1895 C1873 0.950 . S
C1896 C1897 1.349 . S
C1896 C1898 1.327 . S
C1896 H1921 0.924 1_545 S
C1897 C1896 1.349 . S
C1897 C1913 1.349 . S
C1898 C1896 1.327 . S
C1898 C1917 1.429 . S
C1898 H1922 0.950 . S
C1899 C1916 1.574 . S
C1899 C1918 1.368 . S
C1899 H1923 0.949 . S
H1900 C1904 0.949 . S
C1901 C1902 1.349 . S
C1901 C1903 1.327 . S
C1901 H1924 0.950 . S
C1902 C1901 1.349 . S
C1902 C1914 1.349 . S
C1903 C1901 1.327 . S
C1903 C1919 1.429 1_455 S
C1903 H1925 0.950 . S
C1904 H1900 0.949 . S
C1904 C1912 1.574 . S
C1904 C1920 1.368 . S
H1905 C1913 0.950 . S
H1906 C1911 0.950 . S
H1907 C1912 0.949 . S
H1908 C1914 0.951 . S
H1909 C1915 0.950 . S
H1910 C1916 0.949 1_455 S
C1911 H1906 0.950 . S
C1911 C1913 1.327 . S
C1911 C1917 1.429 . S
C1912 C1904 1.574 . S
C1912 H1907 0.949 . S
C1912 C1918 1.368 . S
C1913 C1897 1.349 . S
C1913 H1905 0.950 . S
C1913 C1911 1.327 . S
C1914 C1902 1.349 . S
C1914 H1908 0.951 . S
C1914 C1915 1.327 1_455 S
C1915 H1909 0.950 . S
C1915 C1914 1.327 1_655 S
C1915 C1919 1.429 . S
C1916 C1899 1.574 . S
C1916 H1910 0.949 1_655 S
C1916 C1920 1.368 . S
C1917 C1898 1.429 . S
C1917 C1911 1.429 . S
C1917 C1918 1.523 . S
C1918 C1899 1.368 . S
C1918 C1912 1.368 . S
C1918 C1917 1.523 . S
C1919 C1903 1.429 1_655 S
C1919 C1915 1.429 . S
C1919 C1920 1.523 . S
C1920 C1904 1.368 . S
C1920 C1916 1.368 . S
C1920 C1919 1.523 . S
H1921 C1896 0.924 1_565 S
H1922 C1898 0.950 . S
H1923 C1899 0.949 . S
H1924 C1901 0.950 . S
H1925 C1903 0.950 . S
C1926 C1927 1.349 . S
C1926 C1928 1.327 . S
C1926 H1951 0.950 . S
C1927 C1926 1.349 . S
C1927 C1943 1.349 . S
C1928 C1926 1.327 . S
C1928 C1947 1.429 . S
C1928 H1952 0.950 . S
C1929 C1946 1.574 . S
C1929 C1948 1.368 . S
C1929 H1953 0.949 . S
H1930 C1934 0.949 . S
C1931 C1932 1.349 . S
C1931 C1933 1.327 . S
C1931 H1954 0.950 . S
C1932 C1931 1.349 . S
C1932 C1944 1.349 . S
C1933 C1931 1.327 . S
C1933 C1949 1.429 . S
C1933 H1955 0.950 . S
C1934 H1930 0.949 . S
C1934 C1942 1.574 . S
C1934 C1950 1.368 . S
H1935 C1943 0.950 . S
H1936 C1941 0.950 . S
H1937 C1942 0.949 . S
H1938 C1944 0.950 . S
H1939 C1945 0.950 . S
H1940 C1946 0.949 . S
C1941 H1936 0.950 . S
C1941 C1943 1.327 . S
C1941 C1947 1.429 . S
C1942 C1934 1.574 . S
C1942 H1937 0.949 . S
C1942 C1948 1.368 . S
C1943 C1927 1.349 . S
C1943 H1935 0.950 . S
C1943 C1941 1.327 . S
C1944 C1932 1.349 . S
C1944 H1938 0.950 . S
C1944 C1945 1.327 . S
C1945 H1939 0.950 . S
C1945 C1944 1.327 . S
C1945 C1949 1.429 . S
C1946 C1929 1.574 . S
C1946 H1940 0.949 . S
C1946 C1950 1.368 . S
C1947 C1928 1.429 . S
C1947 C1941 1.429 . S
C1947 C1948 1.523 . S
C1948 C1929 1.368 . S
C1948 C1942 1.368 . S
C1948 C1947 1.523 . S
C1949 C1933 1.429 . S
C1949 C1945 1.429 . S
C1949 C1950 1.523 . S
C1950 C1934 1.368 . S
C1950 C1946 1.368 . S
C1950 C1949 1.523 . S
H1951 C1926 0.950 . S
H1952 C1928 0.950 . S
H1953 C1929 0.949 . S
H1954 C1931 0.950 . S
H1955 C1933 0.950 . S
C1956 C1957 1.349 . S
C1956 C1958 1.327 . S
C1956 H1981 0.950 . S
C1957 C1956 1.349 . S
C1957 C1973 1.349 . S
C1958 C1956 1.327 . S
C1958 C1977 1.429 . S
C1958 H1982 0.950 . S
C1959 C1976 1.574 . S
C1959 C1978 1.368 . S
C1959 H1983 0.949 . S
H1960 C1964 0.949 . S
C1961 C1962 1.349 . S
C1961 C1963 1.327 . S
C1961 H1984 0.950 1_545 S
C1962 C1961 1.349 . S
C1962 C1974 1.349 . S
C1963 C1961 1.327 . S
C1963 C1979 1.429 . S
C1963 H1985 0.950 1_545 S
C1964 H1960 0.949 . S
C1964 C1972 1.574 . S
C1964 C1980 1.368 . S
H1965 C1973 0.950 . S
H1966 C1971 0.950 . S
H1967 C1972 0.949 . S
H1968 C1974 0.950 . S
H1969 C1975 0.950 . S
H1970 C1976 0.935 1_565 S
C1971 H1966 0.950 . S
C1971 C1973 1.327 . S
C1971 C1977 1.429 . S
C1972 C1964 1.574 . S
C1972 H1967 0.949 . S
C1972 C1978 1.368 . S
C1973 C1957 1.349 . S
C1973 H1965 0.950 . S
C1973 C1971 1.327 . S
C1974 C1962 1.349 . S
C1974 H1968 0.950 . S
C1974 C1975 1.327 . S
C1975 H1969 0.950 . S
C1975 C1974 1.327 . S
C1975 C1979 1.429 . S
C1976 C1959 1.574 . S
C1976 H1970 0.935 1_545 S
C1976 C1980 1.368 . S
C1977 C1958 1.429 . S
C1977 C1971 1.429 . S
C1977 C1978 1.523 . S
C1978 C1959 1.368 . S
C1978 C1972 1.368 . S
C1978 C1977 1.523 . S
C1979 C1963 1.429 . S
C1979 C1975 1.429 . S
C1979 C1980 1.523 . S
C1980 C1964 1.368 . S
C1980 C1976 1.368 . S
C1980 C1979 1.523 . S
H1981 C1956 0.950 . S
H1982 C1958 0.950 . S
H1983 C1959 0.949 . S
H1984 C1961 0.950 1_565 S
H1985 C1963 0.950 1_565 S
C1986 C1987 1.349 . S
C1986 C1988 1.327 . S
C1986 H2011 0.950 . S
C1987 C1986 1.349 . S
C1987 C2003 1.349 . S
C1988 C1986 1.327 . S
C1988 C2007 1.429 . S
C1988 H2012 0.950 . S
C1989 C2006 1.574 . S
C1989 C2008 1.368 . S
C1989 H2013 0.949 . S
H1990 C1994 0.949 . S
C1991 C1992 1.349 . S
C1991 C1993 1.327 . S
C1991 H2014 0.950 . S
C1992 C1991 1.349 . S
C1992 C2004 1.349 . S
C1993 C1991 1.327 . S
C1993 C2009 1.429 . S
C1993 H2015 0.950 . S
C1994 H1990 0.949 . S
C1994 C2002 1.574 . S
C1994 C2010 1.368 . S
H1995 C2003 0.950 . S
H1996 C2001 0.950 . S
H1997 C2002 0.949 . S
H1998 C2004 0.950 . S
H1999 C2005 0.950 . S
H2000 C2006 0.949 . S
C2001 H1996 0.950 . S
C2001 C2003 1.327 . S
C2001 C2007 1.429 . S
C2002 C1994 1.574 . S
C2002 H1997 0.949 . S
C2002 C2008 1.368 . S
C2003 C1987 1.349 . S
C2003 H1995 0.950 . S
C2003 C2001 1.327 . S
C2004 C1992 1.349 . S
C2004 H1998 0.950 . S
C2004 C2005 1.327 . S
C2005 H1999 0.950 . S
C2005 C2004 1.327 . S
C2005 C2009 1.429 . S
C2006 C1989 1.574 . S
C2006 H2000 0.949 . S
C2006 C2010 1.368 . S
C2007 C1988 1.429 . S
C2007 C2001 1.429 . S
C2007 C2008 1.523 . S
C2008 C1989 1.368 . S
C2008 C2002 1.368 . S
C2008 C2007 1.523 . S
C2009 C1993 1.429 . S
C2009 C2005 1.429 . S
C2009 C2010 1.523 . S
C2010 C1994 1.368 . S
C2010 C2006 1.368 . S
C2010 C2009 1.523 . S
H2011 C1986 0.950 . S
H2012 C1988 0.950 . S
H2013 C1989 0.949 . S
H2014 C1991 0.950 . S
H2015 C1993 0.950 . S
C2016 C2017 1.349 . S
C2016 C2018 1.327 . S
C2016 H2041 0.950 . S
C2017 C2016 1.349 . S
C2017 C2033 1.349 . S
C2018 C2016 1.327 . S
C2018 C2037 1.429 . S
C2018 H2042 0.950 . S
C2019 C2036 1.574 . S
C2019 C2038 1.368 . S
C2019 H2043 0.949 1_545 S
H2020 C2024 0.949 . S
C2021 C2022 1.349 . S
C2021 C2023 1.327 . S
C2021 H2044 0.950 1_545 S
C2022 C2021 1.349 . S
C2022 C2034 1.349 . S
C2023 C2021 1.327 . S
C2023 C2039 1.429 1_455 S
C2023 H2045 0.950 1_545 S
C2024 H2020 0.949 . S
C2024 C2032 1.574 . S
C2024 C2040 1.368 . S
H2025 C2033 0.950 1_565 S
H2026 C2031 0.950 1_565 S
H2027 C2032 0.949 . S
H2028 C2034 0.966 . S
H2029 C2035 0.950 . S
H2030 C2036 0.949 1_565 S
C2031 H2026 0.950 1_545 S
C2031 C2033 1.327 . S
C2031 C2037 1.429 . S
C2032 C2024 1.574 . S
C2032 H2027 0.949 . S
C2032 C2038 1.368 . S
C2033 C2017 1.349 . S
C2033 H2025 0.950 1_545 S
C2033 C2031 1.327 . S
C2034 C2022 1.349 . S
C2034 H2028 0.966 . S
C2034 C2035 1.327 1_455 S
C2035 H2029 0.950 . S
C2035 C2034 1.327 1_655 S
C2035 C2039 1.429 . S
C2036 C2019 1.574 . S
C2036 H2030 0.949 1_545 S
C2036 C2040 1.368 . S
C2037 C2018 1.429 . S
C2037 C2031 1.429 . S
C2037 C2038 1.523 . S
C2038 C2019 1.368 . S
C2038 C2032 1.368 . S
C2038 C2037 1.523 . S
C2039 C2023 1.429 1_655 S
C2039 C2035 1.429 . S
C2039 C2040 1.523 . S
C2040 C2024 1.368 . S
C2040 C2036 1.368 . S
C2040 C2039 1.523 . S
H2041 C2016 0.950 . S
H2042 C2018 0.950 . S
H2043 C2019 0.949 1_565 S
H2044 C2021 0.950 1_565 S
H2045 C2023 0.950 1_565 S
C2046 C2047 1.349 . S
C2046 C2048 1.327 . S
C2046 H2071 0.950 . S
C2047 C2046 1.349 . S
C2047 C2063 1.349 . S
C2048 C2046 1.327 . S
C2048 C2067 1.429 . S
C2048 H2072 0.950 . S
C2049 C2066 1.574 . S
C2049 C2068 1.368 . S
C2049 H2073 0.949 . S
H2050 C2054 0.949 . S
C2051 C2052 1.349 . S
C2051 C2053 1.327 . S
C2051 H2074 0.950 . S
C2052 C2051 1.349 . S
C2052 C2064 1.349 . S
C2053 C2051 1.327 . S
C2053 C2069 1.429 . S
C2053 H2075 0.950 . S
C2054 H2050 0.949 . S
C2054 C2062 1.574 . S
C2054 C2070 1.368 . S
H2055 C2063 0.950 . S
H2056 C2061 0.950 . S
H2057 C2062 0.949 . S
H2058 C2064 0.950 . S
H2059 C2065 0.950 . S
H2060 C2066 0.949 . S
C2061 H2056 0.950 . S
C2061 C2063 1.327 . S
C2061 C2067 1.429 . S
C2062 C2054 1.574 . S
C2062 H2057 0.949 . S
C2062 C2068 1.368 . S
C2063 C2047 1.349 . S
C2063 H2055 0.950 . S
C2063 C2061 1.327 . S
C2064 C2052 1.349 . S
C2064 H2058 0.950 . S
C2064 C2065 1.327 . S
C2065 H2059 0.950 . S
C2065 C2064 1.327 . S
C2065 C2069 1.429 . S
C2066 C2049 1.574 . S
C2066 H2060 0.949 . S
C2066 C2070 1.368 . S
C2067 C2048 1.429 . S
C2067 C2061 1.429 . S
C2067 C2068 1.523 . S
C2068 C2049 1.368 . S
C2068 C2062 1.368 . S
C2068 C2067 1.523 . S
C2069 C2053 1.429 . S
C2069 C2065 1.429 . S
C2069 C2070 1.523 . S
C2070 C2054 1.368 . S
C2070 C2066 1.368 . S
C2070 C2069 1.523 . S
H2071 C2046 0.950 . S
H2072 C2048 0.950 . S
H2073 C2049 0.949 . S
H2074 C2051 0.950 . S
H2075 C2053 0.950 . S
C2076 C2077 1.349 . S
C2076 C2078 1.327 . S
C2076 H2101 0.950 . S
C2077 C2076 1.349 . S
C2077 C2093 1.349 . S
C2078 C2076 1.327 . S
C2078 C2097 1.429 . S
C2078 H2102 0.950 . S
C2079 C2096 1.574 . S
C2079 C2098 1.368 . S
C2079 H2103 0.949 . S
H2080 C2084 0.949 . S
C2081 C2082 1.349 . S
C2081 C2083 1.327 . S
C2081 H2104 0.950 . S
C2082 C2081 1.349 . S
C2082 C2094 1.349 . S
C2083 C2081 1.327 . S
C2083 C2099 1.429 . S
C2083 H2105 0.950 . S
C2084 H2080 0.949 . S
C2084 C2092 1.574 . S
C2084 C2100 1.368 . S
H2085 C2093 0.950 . S
H2086 C2091 0.950 . S
H2087 C2092 0.949 . S
H2088 C2094 0.950 . S
H2089 C2095 0.950 . S
H2090 C2096 0.949 . S
C2091 H2086 0.950 . S
C2091 C2093 1.327 . S
C2091 C2097 1.429 . S
C2092 C2084 1.574 . S
C2092 H2087 0.949 . S
C2092 C2098 1.368 . S
C2093 C2077 1.349 . S
C2093 H2085 0.950 . S
C2093 C2091 1.327 . S
C2094 C2082 1.349 . S
C2094 H2088 0.950 . S
C2094 C2095 1.327 . S
C2095 H2089 0.950 . S
C2095 C2094 1.327 . S
C2095 C2099 1.429 . S
C2096 C2079 1.574 . S
C2096 H2090 0.949 . S
C2096 C2100 1.368 . S
C2097 C2078 1.429 . S
C2097 C2091 1.429 . S
C2097 C2098 1.523 . S
C2098 C2079 1.368 . S
C2098 C2092 1.368 . S
C2098 C2097 1.523 . S
C2099 C2083 1.429 . S
C2099 C2095 1.429 . S
C2099 C2100 1.523 . S
C2100 C2084 1.368 . S
C2100 C2096 1.368 . S
C2100 C2099 1.523 . S
H2101 C2076 0.950 . S
H2102 C2078 0.950 . S
H2103 C2079 0.949 . S
H2104 C2081 0.950 . S
H2105 C2083 0.950 . S
C2106 C2107 1.349 . S
C2106 C2108 1.327 . S
C2106 H2131 0.950 . S
C2107 C2106 1.349 . S
C2107 C2123 1.349 . S
C2108 C2106 1.327 . S
C2108 C2127 1.429 . S
C2108 H2132 0.950 . S
C2109 C2126 1.574 . S
C2109 C2128 1.368 . S
C2109 H2133 0.949 . S
H2110 C2114 0.949 . S
C2111 C2112 1.349 . S
C2111 C2113 1.327 . S
C2111 H2134 0.950 . S
C2112 C2111 1.349 . S
C2112 C2124 1.349 . S
C2113 C2111 1.327 . S
C2113 C2129 1.429 . S
C2113 H2135 0.950 . S
C2114 H2110 0.949 . S
C2114 C2122 1.574 . S
C2114 C2130 1.368 . S
H2115 C2123 0.950 . S
H2116 C2121 0.950 . S
H2117 C2122 0.949 . S
H2118 C2124 0.950 . S
H2119 C2125 0.950 . S
H2120 C2126 0.949 . S
C2121 H2116 0.950 . S
C2121 C2123 1.327 . S
C2121 C2127 1.429 . S
C2122 C2114 1.574 . S
C2122 H2117 0.949 . S
C2122 C2128 1.368 . S
C2123 C2107 1.349 . S
C2123 H2115 0.950 . S
C2123 C2121 1.327 . S
C2124 C2112 1.349 . S
C2124 H2118 0.950 . S
C2124 C2125 1.327 . S
C2125 H2119 0.950 . S
C2125 C2124 1.327 . S
C2125 C2129 1.429 . S
C2126 C2109 1.574 . S
C2126 H2120 0.949 . S
C2126 C2130 1.368 . S
C2127 C2108 1.429 . S
C2127 C2121 1.429 . S
C2127 C2128 1.523 . S
C2128 C2109 1.368 . S
C2128 C2122 1.368 . S
C2128 C2127 1.523 . S
C2129 C2113 1.429 . S
C2129 C2125 1.429 . S
C2129 C2130 1.523 . S
C2130 C2114 1.368 . S
C2130 C2126 1.368 . S
C2130 C2129 1.523 . S
H2131 C2106 0.950 . S
H2132 C2108 0.950 . S
H2133 C2109 0.949 . S
H2134 C2111 0.950 . S
H2135 C2113 0.950 . S
C2136 C2137 1.349 . S
C2136 C2138 1.327 . S
C2136 H2161 0.950 . S
C2137 C2136 1.349 . S
C2137 C2153 1.349 1_554 S
C2138 C2136 1.327 . S
C2138 C2157 1.429 . S
C2138 H2162 0.950 . S
C2139 C2156 1.574 . S
C2139 C2158 1.368 . S
C2139 H2163 0.949 1_554 S
H2140 C2144 0.949 . S
C2141 C2142 1.349 . S
C2141 C2143 1.348 . S
C2141 H2164 0.950 . S
C2142 C2141 1.349 . S
C2142 C2154 1.349 . S
C2143 C2141 1.348 . S
C2143 C2159 1.408 1_545 S
C2143 H2165 0.951 . S
C2144 H2140 0.949 . S
C2144 C2152 1.574 . S
C2144 C2160 1.368 . S
H2145 C2153 0.950 . S
H2146 C2151 0.950 . S
H2147 C2152 0.949 . S
H2148 C2154 0.950 . S
H2149 C2155 0.950 . S
H2150 C2156 0.938 1_556 S
C2151 H2146 0.950 . S
C2151 C2153 1.327 . S
C2151 C2157 1.429 1_556 S
C2152 C2144 1.574 . S
C2152 H2147 0.949 . S
C2152 C2158 1.368 . S
C2153 C2137 1.349 1_556 S
C2153 H2145 0.950 . S
C2153 C2151 1.327 . S
C2154 C2142 1.349 . S
C2154 H2148 0.950 . S
C2154 C2155 1.327 1_545 S
C2155 H2149 0.950 . S
C2155 C2154 1.327 1_565 S
C2155 C2159 1.429 . S
C2156 C2139 1.574 . S
C2156 H2150 0.938 1_554 S
C2156 C2160 1.368 . S
C2157 C2138 1.429 . S
C2157 C2151 1.429 1_554 S
C2157 C2158 1.523 . S
C2158 C2139 1.368 . S
C2158 C2152 1.368 . S
C2158 C2157 1.523 . S
C2159 C2143 1.408 1_565 S
C2159 C2155 1.429 . S
C2159 C2160 1.523 . S
C2160 C2144 1.368 . S
C2160 C2156 1.368 . S
C2160 C2159 1.523 . S
H2161 C2136 0.950 . S
H2162 C2138 0.950 . S
H2163 C2139 0.949 1_556 S
H2164 C2141 0.950 . S
H2165 C2143 0.951 . S
C2166 C2167 1.347 1_556 S
C2166 C2168 1.327 . S
C2166 H2191 0.950 . S
C2167 C2166 1.347 1_554 S
C2167 C2183 1.354 . S
C2168 C2166 1.327 . S
C2168 C2187 1.429 1_556 S
C2168 H2192 0.950 . S
C2169 C2186 1.574 . S
C2169 C2188 1.368 . S
C2169 H2193 0.949 . S
H2170 C2174 0.949 . S
C2171 C2172 1.349 . S
C2171 C2173 1.327 . S
C2171 H2194 0.950 . S
C2172 C2171 1.349 . S
C2172 C2184 1.366 . S
C2173 C2171 1.327 . S
C2173 C2189 1.429 . S
C2173 H2195 0.950 . S
C2174 H2170 0.949 . S
C2174 C2182 1.574 . S
C2174 C2190 1.368 1_556 S
H2175 C2183 0.950 . S
H2176 C2181 0.950 . S
H2177 C2182 0.949 . S
H2178 C2184 0.945 1_556 S
H2179 C2185 0.950 1_556 S
H2180 C2186 0.949 . S
C2181 H2176 0.950 . S
C2181 C2183 1.327 . S
C2181 C2187 1.429 . S
C2182 C2174 1.574 . S
C2182 H2177 0.949 . S
C2182 C2188 1.368 1_556 S
C2183 C2167 1.354 . S
C2183 H2175 0.950 . S
C2183 C2181 1.327 . S
C2184 C2172 1.366 . S
C2184 H2178 0.945 1_554 S
C2184 C2185 1.318 . S
C2185 H2179 0.950 1_554 S
C2185 C2184 1.318 . S
C2185 C2189 1.428 . S
C2186 C2169 1.574 . S
C2186 H2180 0.949 . S
C2186 C2190 1.368 . S
C2187 C2168 1.429 1_554 S
C2187 C2181 1.429 . S
C2187 C2188 1.523 . S
C2188 C2169 1.368 . S
C2188 C2182 1.368 1_554 S
C2188 C2187 1.523 . S
C2189 C2173 1.429 . S
C2189 C2185 1.428 . S
C2189 C2190 1.523 . S
C2190 C2174 1.368 1_554 S
C2190 C2186 1.368 . S
C2190 C2189 1.523 . S
H2191 C2166 0.950 . S
H2192 C2168 0.950 . S
H2193 C2169 0.949 . S
H2194 C2171 0.950 . S
H2195 C2173 0.950 . S
C2196 C2197 1.349 . S
C2196 C2198 1.327 . S
C2196 H2221 0.950 . S
C2197 C2196 1.349 . S
C2197 C2213 1.349 . S
C2198 C2196 1.327 . S
C2198 C2217 1.429 . S
C2198 H2222 0.950 . S
C2199 C2216 1.574 . S
C2199 C2218 1.368 . S
C2199 H2223 0.949 . S
H2200 C2204 0.949 . S
C2201 C2202 1.349 . S
C2201 C2203 1.327 . S
C2201 H2224 0.950 . S
C2202 C2201 1.349 . S
C2202 C2214 1.349 . S
C2203 C2201 1.327 . S
C2203 C2219 1.429 . S
C2203 H2225 0.950 . S
C2204 H2200 0.949 . S
C2204 C2212 1.574 . S
C2204 C2220 1.368 . S
H2205 C2213 0.950 . S
H2206 C2211 0.950 . S
H2207 C2212 0.949 . S
H2208 C2214 0.950 . S
H2209 C2215 0.950 . S
H2210 C2216 0.949 . S
C2211 H2206 0.950 . S
C2211 C2213 1.327 . S
C2211 C2217 1.429 . S
C2212 C2204 1.574 . S
C2212 H2207 0.949 . S
C2212 C2218 1.368 . S
C2213 C2197 1.349 . S
C2213 H2205 0.950 . S
C2213 C2211 1.327 . S
C2214 C2202 1.349 . S
C2214 H2208 0.950 . S
C2214 C2215 1.327 . S
C2215 H2209 0.950 . S
C2215 C2214 1.327 . S
C2215 C2219 1.429 . S
C2216 C2199 1.574 . S
C2216 H2210 0.949 . S
C2216 C2220 1.368 . S
C2217 C2198 1.429 . S
C2217 C2211 1.429 . S
C2217 C2218 1.523 . S
C2218 C2199 1.368 . S
C2218 C2212 1.368 . S
C2218 C2217 1.523 . S
C2219 C2203 1.429 . S
C2219 C2215 1.429 . S
C2219 C2220 1.523 . S
C2220 C2204 1.368 . S
C2220 C2216 1.368 . S
C2220 C2219 1.523 . S
H2221 C2196 0.950 . S
H2222 C2198 0.950 . S
H2223 C2199 0.949 . S
H2224 C2201 0.950 . S
H2225 C2203 0.950 . S
C2226 C2227 1.349 . S
C2226 C2228 1.327 . S
C2226 H2251 0.950 . S
C2227 C2226 1.349 . S
C2227 C2243 1.349 . S
C2228 C2226 1.327 . S
C2228 C2247 1.429 . S
C2228 H2252 0.950 . S
C2229 C2246 1.574 . S
C2229 C2248 1.368 . S
C2229 H2253 0.949 . S
H2230 C2234 0.949 . S
C2231 C2232 1.349 . S
C2231 C2233 1.327 . S
C2231 H2254 0.950 . S
C2232 C2231 1.349 . S
C2232 C2244 1.349 . S
C2233 C2231 1.327 . S
C2233 C2249 1.429 . S
C2233 H2255 0.950 . S
C2234 H2230 0.949 . S
C2234 C2242 1.574 . S
C2234 C2250 1.368 . S
H2235 C2243 0.950 . S
H2236 C2241 0.950 . S
H2237 C2242 0.949 . S
H2238 C2244 0.950 . S
H2239 C2245 0.950 . S
H2240 C2246 0.949 . S
C2241 H2236 0.950 . S
C2241 C2243 1.327 . S
C2241 C2247 1.429 . S
C2242 C2234 1.574 . S
C2242 H2237 0.949 . S
C2242 C2248 1.368 . S
C2243 C2227 1.349 . S
C2243 H2235 0.950 . S
C2243 C2241 1.327 . S
C2244 C2232 1.349 . S
C2244 H2238 0.950 . S
C2244 C2245 1.327 . S
C2245 H2239 0.950 . S
C2245 C2244 1.327 . S
C2245 C2249 1.429 . S
C2246 C2229 1.574 . S
C2246 H2240 0.949 . S
C2246 C2250 1.368 . S
C2247 C2228 1.429 . S
C2247 C2241 1.429 . S
C2247 C2248 1.523 . S
C2248 C2229 1.368 . S
C2248 C2242 1.368 . S
C2248 C2247 1.523 . S
C2249 C2233 1.429 . S
C2249 C2245 1.429 . S
C2249 C2250 1.523 . S
C2250 C2234 1.368 . S
C2250 C2246 1.368 . S
C2250 C2249 1.523 . S
H2251 C2226 0.950 . S
H2252 C2228 0.950 . S
H2253 C2229 0.949 . S
H2254 C2231 0.950 . S
H2255 C2233 0.950 . S
C2256 C2257 1.349 . S
C2256 C2258 1.327 . S
C2256 H2281 0.950 . S
C2257 C2256 1.349 . S
C2257 C2273 1.349 . S
C2258 C2256 1.327 . S
C2258 C2277 1.429 . S
C2258 H2282 0.950 . S
C2259 C2276 1.574 . S
C2259 C2278 1.368 . S
C2259 H2283 0.949 . S
H2260 C2264 0.949 . S
C2261 C2262 1.349 . S
C2261 C2263 1.327 . S
C2261 H2284 0.950 . S
C2262 C2261 1.349 . S
C2262 C2274 1.349 . S
C2263 C2261 1.327 . S
C2263 C2279 1.429 . S
C2263 H2285 0.950 . S
C2264 H2260 0.949 . S
C2264 C2272 1.574 . S
C2264 C2280 1.368 . S
H2265 C2273 0.950 . S
H2266 C2271 0.950 . S
H2267 C2272 0.949 . S
H2268 C2274 0.950 . S
H2269 C2275 0.950 . S
H2270 C2276 0.949 . S
C2271 H2266 0.950 . S
C2271 C2273 1.327 . S
C2271 C2277 1.429 . S
C2272 C2264 1.574 . S
C2272 H2267 0.949 . S
C2272 C2278 1.368 . S
C2273 C2257 1.349 . S
C2273 H2265 0.950 . S
C2273 C2271 1.327 . S
C2274 C2262 1.349 . S
C2274 H2268 0.950 . S
C2274 C2275 1.327 . S
C2275 H2269 0.950 . S
C2275 C2274 1.327 . S
C2275 C2279 1.429 . S
C2276 C2259 1.574 . S
C2276 H2270 0.949 . S
C2276 C2280 1.368 . S
C2277 C2258 1.429 . S
C2277 C2271 1.429 . S
C2277 C2278 1.523 . S
C2278 C2259 1.368 . S
C2278 C2272 1.368 . S
C2278 C2277 1.523 . S
C2279 C2263 1.429 . S
C2279 C2275 1.429 . S
C2279 C2280 1.523 . S
C2280 C2264 1.368 . S
C2280 C2276 1.368 . S
C2280 C2279 1.523 . S
H2281 C2256 0.950 . S
H2282 C2258 0.950 . S
H2283 C2259 0.949 . S
H2284 C2261 0.950 . S
H2285 C2263 0.950 . S
C2286 C2287 1.349 . S
C2286 C2288 1.327 . S
C2286 H2311 0.950 . S
C2287 C2286 1.349 . S
C2287 C2303 1.349 . S
C2288 C2286 1.327 . S
C2288 C2307 1.429 . S
C2288 H2312 0.950 . S
C2289 C2306 1.574 . S
C2289 C2308 1.368 . S
C2289 H2313 0.949 . S
H2290 C2294 0.949 . S
C2291 C2292 1.349 . S
C2291 C2293 1.327 . S
C2291 H2314 0.950 . S
C2292 C2291 1.349 . S
C2292 C2304 1.349 . S
C2293 C2291 1.327 . S
C2293 C2309 1.429 . S
C2293 H2315 0.950 . S
C2294 H2290 0.949 . S
C2294 C2302 1.574 . S
C2294 C2310 1.368 . S
H2295 C2303 0.950 . S
H2296 C2301 0.950 . S
H2297 C2302 0.949 . S
H2298 C2304 0.950 . S
H2299 C2305 0.950 . S
H2300 C2306 0.949 . S
C2301 H2296 0.950 . S
C2301 C2303 1.327 . S
C2301 C2307 1.429 . S
C2302 C2294 1.574 . S
C2302 H2297 0.949 . S
C2302 C2308 1.368 . S
C2303 C2287 1.349 . S
C2303 H2295 0.950 . S
C2303 C2301 1.327 . S
C2304 C2292 1.349 . S
C2304 H2298 0.950 . S
C2304 C2305 1.327 . S
C2305 H2299 0.950 . S
C2305 C2304 1.327 . S
C2305 C2309 1.429 . S
C2306 C2289 1.574 . S
C2306 H2300 0.949 . S
C2306 C2310 1.368 . S
C2307 C2288 1.429 . S
C2307 C2301 1.429 . S
C2307 C2308 1.523 . S
C2308 C2289 1.368 . S
C2308 C2302 1.368 . S
C2308 C2307 1.523 . S
C2309 C2293 1.429 . S
C2309 C2305 1.429 . S
C2309 C2310 1.523 . S
C2310 C2294 1.368 . S
C2310 C2306 1.368 . S
C2310 C2309 1.523 . S
H2311 C2286 0.950 . S
H2312 C2288 0.950 . S
H2313 C2289 0.949 . S
H2314 C2291 0.950 . S
H2315 C2293 0.950 . S
C2316 C2317 1.349 . S
C2316 C2318 1.327 . S
C2316 H2341 0.950 . S
C2317 C2316 1.349 . S
C2317 C2333 1.349 . S
C2318 C2316 1.327 . S
C2318 C2337 1.429 . S
C2318 H2342 0.950 . S
C2319 C2336 1.574 . S
C2319 C2338 1.368 . S
C2319 H2343 0.949 . S
H2320 C2324 0.949 . S
C2321 C2322 1.349 . S
C2321 C2323 1.327 . S
C2321 H2344 0.950 . S
C2322 C2321 1.349 . S
C2322 C2334 1.349 . S
C2323 C2321 1.327 . S
C2323 C2339 1.429 . S
C2323 H2345 0.950 . S
C2324 H2320 0.949 . S
C2324 C2332 1.574 . S
C2324 C2340 1.368 . S
H2325 C2333 0.950 . S
H2326 C2331 0.950 . S
H2327 C2332 0.949 . S
H2328 C2334 0.950 . S
H2329 C2335 0.950 . S
H2330 C2336 0.949 . S
C2331 H2326 0.950 . S
C2331 C2333 1.327 . S
C2331 C2337 1.429 . S
C2332 C2324 1.574 . S
C2332 H2327 0.949 . S
C2332 C2338 1.368 . S
C2333 C2317 1.349 . S
C2333 H2325 0.950 . S
C2333 C2331 1.327 . S
C2334 C2322 1.349 . S
C2334 H2328 0.950 . S
C2334 C2335 1.327 . S
C2335 H2329 0.950 . S
C2335 C2334 1.327 . S
C2335 C2339 1.429 . S
C2336 C2319 1.574 . S
C2336 H2330 0.949 . S
C2336 C2340 1.368 . S
C2337 C2318 1.429 . S
C2337 C2331 1.429 . S
C2337 C2338 1.523 . S
C2338 C2319 1.368 . S
C2338 C2332 1.368 . S
C2338 C2337 1.523 . S
C2339 C2323 1.429 . S
C2339 C2335 1.429 . S
C2339 C2340 1.523 . S
C2340 C2324 1.368 . S
C2340 C2336 1.368 . S
C2340 C2339 1.523 . S
H2341 C2316 0.950 . S
H2342 C2318 0.950 . S
H2343 C2319 0.949 . S
H2344 C2321 0.950 . S
H2345 C2323 0.950 . S
C2346 C2347 1.349 . S
C2346 C2348 1.327 . S
C2346 H2371 0.950 . S
C2347 C2346 1.349 . S
C2347 C2363 1.349 . S
C2348 C2346 1.327 . S
C2348 C2367 1.429 . S
C2348 H2372 0.950 . S
C2349 C2366 1.574 . S
C2349 C2368 1.368 . S
C2349 H2373 0.949 . S
H2350 C2354 0.949 . S
C2351 C2352 1.349 . S
C2351 C2353 1.327 . S
C2351 H2374 0.950 . S
C2352 C2351 1.349 . S
C2352 C2364 1.349 . S
C2353 C2351 1.327 . S
C2353 C2369 1.429 . S
C2353 H2375 0.950 . S
C2354 H2350 0.949 . S
C2354 C2362 1.574 . S
C2354 C2370 1.368 . S
H2355 C2363 0.950 . S
H2356 C2361 0.950 . S
H2357 C2362 0.949 . S
H2358 C2364 0.950 . S
H2359 C2365 0.950 . S
H2360 C2366 0.949 . S
C2361 H2356 0.950 . S
C2361 C2363 1.327 . S
C2361 C2367 1.429 . S
C2362 C2354 1.574 . S
C2362 H2357 0.949 . S
C2362 C2368 1.368 . S
C2363 C2347 1.349 . S
C2363 H2355 0.950 . S
C2363 C2361 1.327 . S
C2364 C2352 1.349 . S
C2364 H2358 0.950 . S
C2364 C2365 1.327 . S
C2365 H2359 0.950 . S
C2365 C2364 1.327 . S
C2365 C2369 1.429 . S
C2366 C2349 1.574 . S
C2366 H2360 0.949 . S
C2366 C2370 1.368 . S
C2367 C2348 1.429 . S
C2367 C2361 1.429 . S
C2367 C2368 1.523 . S
C2368 C2349 1.368 . S
C2368 C2362 1.368 . S
C2368 C2367 1.523 . S
C2369 C2353 1.429 . S
C2369 C2365 1.429 . S
C2369 C2370 1.523 . S
C2370 C2354 1.368 . S
C2370 C2366 1.368 . S
C2370 C2369 1.523 . S
H2371 C2346 0.950 . S
H2372 C2348 0.950 . S
H2373 C2349 0.949 . S
H2374 C2351 0.950 . S
H2375 C2353 0.950 . S
C2376 C2377 1.349 . S
C2376 C2378 1.327 . S
C2376 H2401 0.950 . S
C2377 C2376 1.349 . S
C2377 C2393 1.349 . S
C2378 C2376 1.327 . S
C2378 C2397 1.429 . S
C2378 H2402 0.950 . S
C2379 C2396 1.574 . S
C2379 C2398 1.368 . S
C2379 H2403 0.949 . S
H2380 C2384 0.949 . S
C2381 C2382 1.349 . S
C2381 C2383 1.327 . S
C2381 H2404 0.950 . S
C2382 C2381 1.349 . S
C2382 C2394 1.349 . S
C2383 C2381 1.327 . S
C2383 C2399 1.429 . S
C2383 H2405 0.950 . S
C2384 H2380 0.949 . S
C2384 C2392 1.574 . S
C2384 C2400 1.368 . S
H2385 C2393 0.950 . S
H2386 C2391 0.950 . S
H2387 C2392 0.949 . S
H2388 C2394 0.950 . S
H2389 C2395 0.950 . S
H2390 C2396 0.949 . S
C2391 H2386 0.950 . S
C2391 C2393 1.327 . S
C2391 C2397 1.429 . S
C2392 C2384 1.574 . S
C2392 H2387 0.949 . S
C2392 C2398 1.368 . S
C2393 C2377 1.349 . S
C2393 H2385 0.950 . S
C2393 C2391 1.327 . S
C2394 C2382 1.349 . S
C2394 H2388 0.950 . S
C2394 C2395 1.327 . S
C2395 H2389 0.950 . S
C2395 C2394 1.327 . S
C2395 C2399 1.429 . S
C2396 C2379 1.574 . S
C2396 H2390 0.949 . S
C2396 C2400 1.368 . S
C2397 C2378 1.429 . S
C2397 C2391 1.429 . S
C2397 C2398 1.523 . S
C2398 C2379 1.368 . S
C2398 C2392 1.368 . S
C2398 C2397 1.523 . S
C2399 C2383 1.429 . S
C2399 C2395 1.429 . S
C2399 C2400 1.523 . S
C2400 C2384 1.368 . S
C2400 C2396 1.368 . S
C2400 C2399 1.523 . S
H2401 C2376 0.950 . S
H2402 C2378 0.950 . S
H2403 C2379 0.949 . S
H2404 C2381 0.950 . S
H2405 C2383 0.950 . S
C2406 C2407 1.349 . S
C2406 C2408 1.327 . S
C2406 H2431 0.950 . S
C2407 C2406 1.349 . S
C2407 C2423 1.349 . S
C2408 C2406 1.327 . S
C2408 C2427 1.429 . S
C2408 H2432 0.950 . S
C2409 C2426 1.574 . S
C2409 C2428 1.368 . S
C2409 H2433 0.949 . S
H2410 C2414 0.949 . S
C2411 C2412 1.349 . S
C2411 C2413 1.327 . S
C2411 H2434 0.950 . S
C2412 C2411 1.349 . S
C2412 C2424 1.349 . S
C2413 C2411 1.327 . S
C2413 C2429 1.429 . S
C2413 H2435 0.950 . S
C2414 H2410 0.949 . S
C2414 C2422 1.574 . S
C2414 C2430 1.368 . S
H2415 C2423 0.950 . S
H2416 C2421 0.950 . S
H2417 C2422 0.949 . S
H2418 C2424 0.950 . S
H2419 C2425 0.950 . S
H2420 C2426 0.949 . S
C2421 H2416 0.950 . S
C2421 C2423 1.327 . S
C2421 C2427 1.429 . S
C2422 C2414 1.574 . S
C2422 H2417 0.949 . S
C2422 C2428 1.368 . S
C2423 C2407 1.349 . S
C2423 H2415 0.950 . S
C2423 C2421 1.327 . S
C2424 C2412 1.349 . S
C2424 H2418 0.950 . S
C2424 C2425 1.327 . S
C2425 H2419 0.950 . S
C2425 C2424 1.327 . S
C2425 C2429 1.429 . S
C2426 C2409 1.574 . S
C2426 H2420 0.949 . S
C2426 C2430 1.368 . S
C2427 C2408 1.429 . S
C2427 C2421 1.429 . S
C2427 C2428 1.523 . S
C2428 C2409 1.368 . S
C2428 C2422 1.368 . S
C2428 C2427 1.523 . S
C2429 C2413 1.429 . S
C2429 C2425 1.429 . S
C2429 C2430 1.523 . S
C2430 C2414 1.368 . S
C2430 C2426 1.368 . S
C2430 C2429 1.523 . S
H2431 C2406 0.950 . S
H2432 C2408 0.950 . S
H2433 C2409 0.949 . S
H2434 C2411 0.950 . S
H2435 C2413 0.950 . S
C2436 C2437 1.349 . S
C2436 C2438 1.327 . S
C2436 H2461 0.950 . S
C2437 C2436 1.349 . S
C2437 C2453 1.349 . S
C2438 C2436 1.327 . S
C2438 C2457 1.429 . S
C2438 H2462 0.950 . S
C2439 C2456 1.574 . S
C2439 C2458 1.368 . S
C2439 H2463 0.949 . S
H2440 C2444 0.949 . S
C2441 C2442 1.349 . S
C2441 C2443 1.327 . S
C2441 H2464 0.950 . S
C2442 C2441 1.349 . S
C2442 C2454 1.349 . S
C2443 C2441 1.327 . S
C2443 C2459 1.429 . S
C2443 H2465 0.950 . S
C2444 H2440 0.949 . S
C2444 C2452 1.574 . S
C2444 C2460 1.368 . S
H2445 C2453 0.950 . S
H2446 C2451 0.950 . S
H2447 C2452 0.949 . S
H2448 C2454 0.950 . S
H2449 C2455 0.950 . S
H2450 C2456 0.949 . S
C2451 H2446 0.950 . S
C2451 C2453 1.327 . S
C2451 C2457 1.429 . S
C2452 C2444 1.574 . S
C2452 H2447 0.949 . S
C2452 C2458 1.368 . S
C2453 C2437 1.349 . S
C2453 H2445 0.950 . S
C2453 C2451 1.327 . S
C2454 C2442 1.349 . S
C2454 H2448 0.950 . S
C2454 C2455 1.327 . S
C2455 H2449 0.950 . S
C2455 C2454 1.327 . S
C2455 C2459 1.429 . S
C2456 C2439 1.574 . S
C2456 H2450 0.949 . S
C2456 C2460 1.368 . S
C2457 C2438 1.429 . S
C2457 C2451 1.429 . S
C2457 C2458 1.523 . S
C2458 C2439 1.368 . S
C2458 C2452 1.368 . S
C2458 C2457 1.523 . S
C2459 C2443 1.429 . S
C2459 C2455 1.429 . S
C2459 C2460 1.523 . S
C2460 C2444 1.368 . S
C2460 C2456 1.368 . S
C2460 C2459 1.523 . S
H2461 C2436 0.950 . S
H2462 C2438 0.950 . S
H2463 C2439 0.949 . S
H2464 C2441 0.950 . S
H2465 C2443 0.950 . S
C2466 C2467 1.349 . S
C2466 C2468 1.327 . S
C2466 H2491 0.950 . S
C2467 C2466 1.349 . S
C2467 C2483 1.349 . S
C2468 C2466 1.327 . S
C2468 C2487 1.429 . S
C2468 H2492 0.950 . S
C2469 C2486 1.574 . S
C2469 C2488 1.368 . S
C2469 H2493 0.949 . S
H2470 C2474 0.949 . S
C2471 C2472 1.349 . S
C2471 C2473 1.327 . S
C2471 H2494 0.950 . S
C2472 C2471 1.349 . S
C2472 C2484 1.349 . S
C2473 C2471 1.327 . S
C2473 C2489 1.429 . S
C2473 H2495 0.950 . S
C2474 H2470 0.949 . S
C2474 C2482 1.574 . S
C2474 C2490 1.368 . S
H2475 C2483 0.950 . S
H2476 C2481 0.950 . S
H2477 C2482 0.949 . S
H2478 C2484 0.950 . S
H2479 C2485 0.950 . S
H2480 C2486 0.949 . S
C2481 H2476 0.950 . S
C2481 C2483 1.327 . S
C2481 C2487 1.429 . S
C2482 C2474 1.574 . S
C2482 H2477 0.949 . S
C2482 C2488 1.368 . S
C2483 C2467 1.349 . S
C2483 H2475 0.950 . S
C2483 C2481 1.327 . S
C2484 C2472 1.349 . S
C2484 H2478 0.950 . S
C2484 C2485 1.327 . S
C2485 H2479 0.950 . S
C2485 C2484 1.327 . S
C2485 C2489 1.429 . S
C2486 C2469 1.574 . S
C2486 H2480 0.949 . S
C2486 C2490 1.368 . S
C2487 C2468 1.429 . S
C2487 C2481 1.429 . S
C2487 C2488 1.523 . S
C2488 C2469 1.368 . S
C2488 C2482 1.368 . S
C2488 C2487 1.523 . S
C2489 C2473 1.429 . S
C2489 C2485 1.429 . S
C2489 C2490 1.523 . S
C2490 C2474 1.368 . S
C2490 C2486 1.368 . S
C2490 C2489 1.523 . S
H2491 C2466 0.950 . S
H2492 C2468 0.950 . S
H2493 C2469 0.949 . S
H2494 C2471 0.950 . S
H2495 C2473 0.950 . S
C2496 C2497 1.349 . S
C2496 C2498 1.327 . S
C2496 H2521 0.950 . S
C2497 C2496 1.349 . S
C2497 C2513 1.349 . S
C2498 C2496 1.327 . S
C2498 C2517 1.429 . S
C2498 H2522 0.950 . S
C2499 C2516 1.574 . S
C2499 C2518 1.368 . S
C2499 H2523 0.949 . S
H2500 C2504 0.949 . S
C2501 C2502 1.349 . S
C2501 C2503 1.327 . S
C2501 H2524 0.950 . S
C2502 C2501 1.349 . S
C2502 C2514 1.349 . S
C2503 C2501 1.327 . S
C2503 C2519 1.429 . S
C2503 H2525 0.950 . S
C2504 H2500 0.949 . S
C2504 C2512 1.574 . S
C2504 C2520 1.368 . S
H2505 C2513 0.950 . S
H2506 C2511 0.950 . S
H2507 C2512 0.949 . S
H2508 C2514 0.950 . S
H2509 C2515 0.950 . S
H2510 C2516 0.949 . S
C2511 H2506 0.950 . S
C2511 C2513 1.327 . S
C2511 C2517 1.429 . S
C2512 C2504 1.574 . S
C2512 H2507 0.949 . S
C2512 C2518 1.368 . S
C2513 C2497 1.349 . S
C2513 H2505 0.950 . S
C2513 C2511 1.327 . S
C2514 C2502 1.349 . S
C2514 H2508 0.950 . S
C2514 C2515 1.327 . S
C2515 H2509 0.950 . S
C2515 C2514 1.327 . S
C2515 C2519 1.429 . S
C2516 C2499 1.574 . S
C2516 H2510 0.949 . S
C2516 C2520 1.368 . S
C2517 C2498 1.429 . S
C2517 C2511 1.429 . S
C2517 C2518 1.523 . S
C2518 C2499 1.368 . S
C2518 C2512 1.368 . S
C2518 C2517 1.523 . S
C2519 C2503 1.429 . S
C2519 C2515 1.429 . S
C2519 C2520 1.523 . S
C2520 C2504 1.368 . S
C2520 C2516 1.368 . S
C2520 C2519 1.523 . S
H2521 C2496 0.950 . S
H2522 C2498 0.950 . S
H2523 C2499 0.949 . S
H2524 C2501 0.950 . S
H2525 C2503 0.950 . S
C2526 C2527 1.349 . S
C2526 C2528 1.327 . S
C2526 H2551 0.950 . S
C2527 C2526 1.349 . S
C2527 C2543 1.349 . S
C2528 C2526 1.327 . S
C2528 C2547 1.429 . S
C2528 H2552 0.950 . S
C2529 C2546 1.574 . S
C2529 C2548 1.368 . S
C2529 H2553 0.949 . S
H2530 C2534 0.949 . S
C2531 C2532 1.349 . S
C2531 C2533 1.327 . S
C2531 H2554 0.950 . S
C2532 C2531 1.349 . S
C2532 C2544 1.349 . S
C2533 C2531 1.327 . S
C2533 C2549 1.429 . S
C2533 H2555 0.950 . S
C2534 H2530 0.949 . S
C2534 C2542 1.574 . S
C2534 C2550 1.368 . S
H2535 C2543 0.950 . S
H2536 C2541 0.950 . S
H2537 C2542 0.949 . S
H2538 C2544 0.950 . S
H2539 C2545 0.950 . S
H2540 C2546 0.949 . S
C2541 H2536 0.950 . S
C2541 C2543 1.327 . S
C2541 C2547 1.429 . S
C2542 C2534 1.574 . S
C2542 H2537 0.949 . S
C2542 C2548 1.368 . S
C2543 C2527 1.349 . S
C2543 H2535 0.950 . S
C2543 C2541 1.327 . S
C2544 C2532 1.349 . S
C2544 H2538 0.950 . S
C2544 C2545 1.327 . S
C2545 H2539 0.950 . S
C2545 C2544 1.327 . S
C2545 C2549 1.429 . S
C2546 C2529 1.574 . S
C2546 H2540 0.949 . S
C2546 C2550 1.368 . S
C2547 C2528 1.429 . S
C2547 C2541 1.429 . S
C2547 C2548 1.523 . S
C2548 C2529 1.368 . S
C2548 C2542 1.368 . S
C2548 C2547 1.523 . S
C2549 C2533 1.429 . S
C2549 C2545 1.429 . S
C2549 C2550 1.523 . S
C2550 C2534 1.368 . S
C2550 C2546 1.368 . S
C2550 C2549 1.523 . S
H2551 C2526 0.950 . S
H2552 C2528 0.950 . S
H2553 C2529 0.949 . S
H2554 C2531 0.950 . S
H2555 C2533 0.950 . S
C2556 C2557 1.349 . S
C2556 C2558 1.327 . S
C2556 H2581 0.950 . S
C2557 C2556 1.349 . S
C2557 C2573 1.349 . S
C2558 C2556 1.327 . S
C2558 C2577 1.429 . S
C2558 H2582 0.950 . S
C2559 C2576 1.574 . S
C2559 C2578 1.368 . S
C2559 H2583 0.949 . S
H2560 C2564 0.949 . S
C2561 C2562 1.349 . S
C2561 C2563 1.327 . S
C2561 H2584 0.950 . S
C2562 C2561 1.349 . S
C2562 C2574 1.349 . S
C2563 C2561 1.327 . S
C2563 C2579 1.429 . S
C2563 H2585 0.950 . S
C2564 H2560 0.949 . S
C2564 C2572 1.574 . S
C2564 C2580 1.368 . S
H2565 C2573 0.950 . S
H2566 C2571 0.950 . S
H2567 C2572 0.949 . S
H2568 C2574 0.950 . S
H2569 C2575 0.950 . S
H2570 C2576 0.949 . S
C2571 H2566 0.950 . S
C2571 C2573 1.327 . S
C2571 C2577 1.429 . S
C2572 C2564 1.574 . S
C2572 H2567 0.949 . S
C2572 C2578 1.368 . S
C2573 C2557 1.349 . S
C2573 H2565 0.950 . S
C2573 C2571 1.327 . S
C2574 C2562 1.349 . S
C2574 H2568 0.950 . S
C2574 C2575 1.327 . S
C2575 H2569 0.950 . S
C2575 C2574 1.327 . S
C2575 C2579 1.429 . S
C2576 C2559 1.574 . S
C2576 H2570 0.949 . S
C2576 C2580 1.368 . S
C2577 C2558 1.429 . S
C2577 C2571 1.429 . S
C2577 C2578 1.523 . S
C2578 C2559 1.368 . S
C2578 C2572 1.368 . S
C2578 C2577 1.523 . S
C2579 C2563 1.429 . S
C2579 C2575 1.429 . S
C2579 C2580 1.523 . S
C2580 C2564 1.368 . S
C2580 C2576 1.368 . S
C2580 C2579 1.523 . S
H2581 C2556 0.950 . S
H2582 C2558 0.950 . S
H2583 C2559 0.949 . S
H2584 C2561 0.950 . S
H2585 C2563 0.950 . S
C2586 C2587 1.349 . S
C2586 C2588 1.327 . S
C2586 H2611 0.950 . S
C2587 C2586 1.349 . S
C2587 C2603 1.349 . S
C2588 C2586 1.327 . S
C2588 C2607 1.429 . S
C2588 H2612 0.950 . S
C2589 C2606 1.574 . S
C2589 C2608 1.368 . S
C2589 H2613 0.949 . S
H2590 C2594 0.949 . S
C2591 C2592 1.349 . S
C2591 C2593 1.327 . S
C2591 H2614 0.950 . S
C2592 C2591 1.349 . S
C2592 C2604 1.349 . S
C2593 C2591 1.327 . S
C2593 C2609 1.429 . S
C2593 H2615 0.950 . S
C2594 H2590 0.949 . S
C2594 C2602 1.574 . S
C2594 C2610 1.368 . S
H2595 C2603 0.950 . S
H2596 C2601 0.950 . S
H2597 C2602 0.949 . S
H2598 C2604 0.950 . S
H2599 C2605 0.950 . S
H2600 C2606 0.949 . S
C2601 H2596 0.950 . S
C2601 C2603 1.327 . S
C2601 C2607 1.429 . S
C2602 C2594 1.574 . S
C2602 H2597 0.949 . S
C2602 C2608 1.368 . S
C2603 C2587 1.349 . S
C2603 H2595 0.950 . S
C2603 C2601 1.327 . S
C2604 C2592 1.349 . S
C2604 H2598 0.950 . S
C2604 C2605 1.327 . S
C2605 H2599 0.950 . S
C2605 C2604 1.327 . S
C2605 C2609 1.429 . S
C2606 C2589 1.574 . S
C2606 H2600 0.949 . S
C2606 C2610 1.368 . S
C2607 C2588 1.429 . S
C2607 C2601 1.429 . S
C2607 C2608 1.523 . S
C2608 C2589 1.368 . S
C2608 C2602 1.368 . S
C2608 C2607 1.523 . S
C2609 C2593 1.429 . S
C2609 C2605 1.429 . S
C2609 C2610 1.523 . S
C2610 C2594 1.368 . S
C2610 C2606 1.368 . S
C2610 C2609 1.523 . S
H2611 C2586 0.950 . S
H2612 C2588 0.950 . S
H2613 C2589 0.949 . S
H2614 C2591 0.950 . S
H2615 C2593 0.950 . S
C2616 C2617 1.349 . S
C2616 C2618 1.327 . S
C2616 H2641 0.950 . S
C2617 C2616 1.349 . S
C2617 C2633 1.349 . S
C2618 C2616 1.327 . S
C2618 C2637 1.429 . S
C2618 H2642 0.950 . S
C2619 C2636 1.574 . S
C2619 C2638 1.368 . S
C2619 H2643 0.949 . S
H2620 C2624 0.949 . S
C2621 C2622 1.349 . S
C2621 C2623 1.327 . S
C2621 H2644 0.950 . S
C2622 C2621 1.349 . S
C2622 C2634 1.349 . S
C2623 C2621 1.327 . S
C2623 C2639 1.429 . S
C2623 H2645 0.950 . S
C2624 H2620 0.949 . S
C2624 C2632 1.574 . S
C2624 C2640 1.368 . S
H2625 C2633 0.950 . S
H2626 C2631 0.950 . S
H2627 C2632 0.949 . S
H2628 C2634 0.950 . S
H2629 C2635 0.950 . S
H2630 C2636 0.949 . S
C2631 H2626 0.950 . S
C2631 C2633 1.327 . S
C2631 C2637 1.429 . S
C2632 C2624 1.574 . S
C2632 H2627 0.949 . S
C2632 C2638 1.368 . S
C2633 C2617 1.349 . S
C2633 H2625 0.950 . S
C2633 C2631 1.327 . S
C2634 C2622 1.349 . S
C2634 H2628 0.950 . S
C2634 C2635 1.327 . S
C2635 H2629 0.950 . S
C2635 C2634 1.327 . S
C2635 C2639 1.429 . S
C2636 C2619 1.574 . S
C2636 H2630 0.949 . S
C2636 C2640 1.368 . S
C2637 C2618 1.429 . S
C2637 C2631 1.429 . S
C2637 C2638 1.523 . S
C2638 C2619 1.368 . S
C2638 C2632 1.368 . S
C2638 C2637 1.523 . S
C2639 C2623 1.429 . S
C2639 C2635 1.429 . S
C2639 C2640 1.523 . S
C2640 C2624 1.368 . S
C2640 C2636 1.368 . S
C2640 C2639 1.523 . S
H2641 C2616 0.950 . S
H2642 C2618 0.950 . S
H2643 C2619 0.949 . S
H2644 C2621 0.950 . S
H2645 C2623 0.950 . S
C2646 C2647 1.349 . S
C2646 C2648 1.327 . S
C2646 H2671 0.950 . S
C2647 C2646 1.349 . S
C2647 C2663 1.349 . S
C2648 C2646 1.327 . S
C2648 C2667 1.429 . S
C2648 H2672 0.950 . S
C2649 C2666 1.574 . S
C2649 C2668 1.368 . S
C2649 H2673 0.949 . S
H2650 C2654 0.949 . S
C2651 C2652 1.349 . S
C2651 C2653 1.327 . S
C2651 H2674 0.950 . S
C2652 C2651 1.349 . S
C2652 C2664 1.349 . S
C2653 C2651 1.327 . S
C2653 C2669 1.429 . S
C2653 H2675 0.950 . S
C2654 H2650 0.949 . S
C2654 C2662 1.574 . S
C2654 C2670 1.368 . S
H2655 C2663 0.950 . S
H2656 C2661 0.950 . S
H2657 C2662 0.949 . S
H2658 C2664 0.950 . S
H2659 C2665 0.950 . S
H2660 C2666 0.949 . S
C2661 H2656 0.950 . S
C2661 C2663 1.327 . S
C2661 C2667 1.429 . S
C2662 C2654 1.574 . S
C2662 H2657 0.949 . S
C2662 C2668 1.368 . S
C2663 C2647 1.349 . S
C2663 H2655 0.950 . S
C2663 C2661 1.327 . S
C2664 C2652 1.349 . S
C2664 H2658 0.950 . S
C2664 C2665 1.327 . S
C2665 H2659 0.950 . S
C2665 C2664 1.327 . S
C2665 C2669 1.429 . S
C2666 C2649 1.574 . S
C2666 H2660 0.949 . S
C2666 C2670 1.368 . S
C2667 C2648 1.429 . S
C2667 C2661 1.429 . S
C2667 C2668 1.523 . S
C2668 C2649 1.368 . S
C2668 C2662 1.368 . S
C2668 C2667 1.523 . S
C2669 C2653 1.429 . S
C2669 C2665 1.429 . S
C2669 C2670 1.523 . S
C2670 C2654 1.368 . S
C2670 C2666 1.368 . S
C2670 C2669 1.523 . S
H2671 C2646 0.950 . S
H2672 C2648 0.950 . S
H2673 C2649 0.949 . S
H2674 C2651 0.950 . S
H2675 C2653 0.950 . S
C2676 C2677 1.349 . S
C2676 C2678 1.327 . S
C2676 H2701 0.950 . S
C2677 C2676 1.349 . S
C2677 C2693 1.349 1_545 S
C2678 C2676 1.327 . S
C2678 C2697 1.429 . S
C2678 H2702 0.950 . S
C2679 C2696 1.569 . S
C2679 C2698 1.396 . S
C2679 H2703 0.928 1_545 S
H2680 C2684 0.949 . S
C2681 C2682 1.349 . S
C2681 C2683 1.327 . S
C2681 H2704 0.950 1_545 S
C2682 C2681 1.349 . S
C2682 C2694 1.349 . S
C2683 C2681 1.327 . S
C2683 C2699 1.429 . S
C2683 H2705 0.950 1_545 S
C2684 H2680 0.949 . S
C2684 C2692 1.574 . S
C2684 C2700 1.368 . S
H2685 C2693 0.950 . S
H2686 C2691 0.997 . S
H2687 C2692 0.949 . S
H2688 C2694 0.950 . S
H2689 C2695 0.950 . S
H2690 C2696 0.949 1_565 S
C2691 H2686 0.997 . S
C2691 C2693 1.319 . S
C2691 C2697 1.393 1_565 S
C2692 C2684 1.574 . S
C2692 H2687 0.949 . S
C2692 C2698 1.368 . S
C2693 C2677 1.349 1_565 S
C2693 H2685 0.950 . S
C2693 C2691 1.319 . S
C2694 C2682 1.349 . S
C2694 H2688 0.950 . S
C2694 C2695 1.327 . S
C2695 H2689 0.950 . S
C2695 C2694 1.327 . S
C2695 C2699 1.429 . S
C2696 C2679 1.569 . S
C2696 H2690 0.949 1_545 S
C2696 C2700 1.368 . S
C2697 C2678 1.429 . S
C2697 C2691 1.393 1_545 S
C2697 C2698 1.523 . S
C2698 C2679 1.396 . S
C2698 C2692 1.368 . S
C2698 C2697 1.523 . S
C2699 C2683 1.429 . S
C2699 C2695 1.429 . S
C2699 C2700 1.523 . S
C2700 C2684 1.368 . S
C2700 C2696 1.368 . S
C2700 C2699 1.523 . S
H2701 C2676 0.950 . S
H2702 C2678 0.950 . S
H2703 C2679 0.928 1_565 S
H2704 C2681 0.950 1_565 S
H2705 C2683 0.950 1_565 S
C2706 C2707 1.349 . S
C2706 C2708 1.327 . S
C2706 H2731 0.950 . S
C2707 C2706 1.349 . S
C2707 C2723 1.349 . S
C2708 C2706 1.327 . S
C2708 C2727 1.429 . S
C2708 H2732 0.950 . S
C2709 C2726 1.574 . S
C2709 C2728 1.368 . S
C2709 H2733 0.949 . S
H2710 C2714 0.949 . S
C2711 C2712 1.349 . S
C2711 C2713 1.327 . S
C2711 H2734 0.950 . S
C2712 C2711 1.349 . S
C2712 C2724 1.349 . S
C2713 C2711 1.327 . S
C2713 C2729 1.429 . S
C2713 H2735 0.950 . S
C2714 H2710 0.949 . S
C2714 C2722 1.574 . S
C2714 C2730 1.368 . S
H2715 C2723 0.950 . S
H2716 C2721 0.950 . S
H2717 C2722 0.949 . S
H2718 C2724 0.950 . S
H2719 C2725 0.950 . S
H2720 C2726 0.949 . S
C2721 H2716 0.950 . S
C2721 C2723 1.327 . S
C2721 C2727 1.429 . S
C2722 C2714 1.574 . S
C2722 H2717 0.949 . S
C2722 C2728 1.368 . S
C2723 C2707 1.349 . S
C2723 H2715 0.950 . S
C2723 C2721 1.327 . S
C2724 C2712 1.349 . S
C2724 H2718 0.950 . S
C2724 C2725 1.327 . S
C2725 H2719 0.950 . S
C2725 C2724 1.327 . S
C2725 C2729 1.429 . S
C2726 C2709 1.574 . S
C2726 H2720 0.949 . S
C2726 C2730 1.368 . S
C2727 C2708 1.429 . S
C2727 C2721 1.429 . S
C2727 C2728 1.523 . S
C2728 C2709 1.368 . S
C2728 C2722 1.368 . S
C2728 C2727 1.523 . S
C2729 C2713 1.429 . S
C2729 C2725 1.429 . S
C2729 C2730 1.523 . S
C2730 C2714 1.368 . S
C2730 C2726 1.368 . S
C2730 C2729 1.523 . S
H2731 C2706 0.950 . S
H2732 C2708 0.950 . S
H2733 C2709 0.949 . S
H2734 C2711 0.950 . S
H2735 C2713 0.950 . S
C2736 C2737 1.349 . S
C2736 C2738 1.327 . S
C2736 H2761 0.950 . S
C2737 C2736 1.349 . S
C2737 C2753 1.349 . S
C2738 C2736 1.327 . S
C2738 C2757 1.429 . S
C2738 H2762 0.950 . S
C2739 C2756 1.574 . S
C2739 C2758 1.368 . S
C2739 H2763 0.949 . S
H2740 C2744 0.949 . S
C2741 C2742 1.349 . S
C2741 C2743 1.327 . S
C2741 H2764 0.919 1_545 S
C2742 C2741 1.349 . S
C2742 C2754 1.349 . S
C2743 C2741 1.327 . S
C2743 C2759 1.429 . S
C2743 H2765 0.926 1_545 S
C2744 H2740 0.949 . S
C2744 C2752 1.574 . S
C2744 C2760 1.368 . S
H2745 C2753 0.950 . S
H2746 C2751 0.950 . S
H2747 C2752 0.949 . S
H2748 C2754 0.950 . S
H2749 C2755 0.950 . S
H2750 C2756 0.947 . S
C2751 H2746 0.950 . S
C2751 C2753 1.327 . S
C2751 C2757 1.429 . S
C2752 C2744 1.574 . S
C2752 H2747 0.949 . S
C2752 C2758 1.368 . S
C2753 C2737 1.349 . S
C2753 H2745 0.950 . S
C2753 C2751 1.327 . S
C2754 C2742 1.349 . S
C2754 H2748 0.950 . S
C2754 C2755 1.327 . S
C2755 H2749 0.950 . S
C2755 C2754 1.327 . S
C2755 C2759 1.429 . S
C2756 C2739 1.574 . S
C2756 H2750 0.947 . S
C2756 C2760 1.368 . S
C2757 C2738 1.429 . S
C2757 C2751 1.429 . S
C2757 C2758 1.523 . S
C2758 C2739 1.368 . S
C2758 C2752 1.368 . S
C2758 C2757 1.523 . S
C2759 C2743 1.429 . S
C2759 C2755 1.429 . S
C2759 C2760 1.523 . S
C2760 C2744 1.368 . S
C2760 C2756 1.368 . S
C2760 C2759 1.523 . S
H2761 C2736 0.950 . S
H2762 C2738 0.950 . S
H2763 C2739 0.949 . S
H2764 C2741 0.919 1_565 S
H2765 C2743 0.926 1_565 S
C2766 C2767 1.349 . S
C2766 C2768 1.327 . S
C2766 H2791 0.950 . S
C2767 C2766 1.349 . S
C2767 C2783 1.349 . S
C2768 C2766 1.327 . S
C2768 C2787 1.429 . S
C2768 H2792 0.950 . S
C2769 C2786 1.574 . S
C2769 C2788 1.368 . S
C2769 H2793 0.949 . S
H2770 C2774 0.949 . S
C2771 C2772 1.349 . S
C2771 C2773 1.327 . S
C2771 H2794 0.950 . S
C2772 C2771 1.349 . S
C2772 C2784 1.349 . S
C2773 C2771 1.327 . S
C2773 C2789 1.429 . S
C2773 H2795 0.950 . S
C2774 H2770 0.949 . S
C2774 C2782 1.574 . S
C2774 C2790 1.368 . S
H2775 C2783 0.950 . S
H2776 C2781 0.950 . S
H2777 C2782 0.949 . S
H2778 C2784 0.950 . S
H2779 C2785 0.950 . S
H2780 C2786 0.949 . S
C2781 H2776 0.950 . S
C2781 C2783 1.327 . S
C2781 C2787 1.429 . S
C2782 C2774 1.574 . S
C2782 H2777 0.949 . S
C2782 C2788 1.368 . S
C2783 C2767 1.349 . S
C2783 H2775 0.950 . S
C2783 C2781 1.327 . S
C2784 C2772 1.349 . S
C2784 H2778 0.950 . S
C2784 C2785 1.327 . S
C2785 H2779 0.950 . S
C2785 C2784 1.327 . S
C2785 C2789 1.429 . S
C2786 C2769 1.574 . S
C2786 H2780 0.949 . S
C2786 C2790 1.368 . S
C2787 C2768 1.429 . S
C2787 C2781 1.429 . S
C2787 C2788 1.523 . S
C2788 C2769 1.368 . S
C2788 C2782 1.368 . S
C2788 C2787 1.523 . S
C2789 C2773 1.429 . S
C2789 C2785 1.429 . S
C2789 C2790 1.523 . S
C2790 C2774 1.368 . S
C2790 C2786 1.368 . S
C2790 C2789 1.523 . S
H2791 C2766 0.950 . S
H2792 C2768 0.950 . S
H2793 C2769 0.949 . S
H2794 C2771 0.950 . S
H2795 C2773 0.950 . S
C2796 C2797 1.349 . S
C2796 C2798 1.327 . S
C2796 H2821 0.950 . S
C2797 C2796 1.349 . S
C2797 C2813 1.377 . S
C2798 C2796 1.327 . S
C2798 C2817 1.429 . S
C2798 H2822 0.950 . S
C2799 C2816 1.574 . S
C2799 C2818 1.368 . S
C2799 H2823 0.949 1_545 S
H2800 C2804 0.949 . S
C2801 C2802 1.349 . S
C2801 C2803 1.327 . S
C2801 H2824 0.927 1_545 S
C2802 C2801 1.349 . S
C2802 C2814 1.349 . S
C2803 C2801 1.327 . S
C2803 C2819 1.429 . S
C2803 H2825 0.950 1_545 S
C2804 H2800 0.949 . S
C2804 C2812 1.574 . S
C2804 C2820 1.368 . S
H2805 C2813 0.920 1_565 S
H2806 C2811 0.950 1_565 S
H2807 C2812 0.949 . S
H2808 C2814 0.950 . S
H2809 C2815 0.950 . S
H2810 C2816 0.949 1_565 S
C2811 H2806 0.950 1_545 S
C2811 C2813 1.330 . S
C2811 C2817 1.429 . S
C2812 C2804 1.574 . S
C2812 H2807 0.949 . S
C2812 C2818 1.368 . S
C2813 C2797 1.377 . S
C2813 H2805 0.920 1_545 S
C2813 C2811 1.330 . S
C2814 C2802 1.349 . S
C2814 H2808 0.950 . S
C2814 C2815 1.327 . S
C2815 H2809 0.950 . S
C2815 C2814 1.327 . S
C2815 C2819 1.429 . S
C2816 C2799 1.574 . S
C2816 H2810 0.949 1_545 S
C2816 C2820 1.368 . S
C2817 C2798 1.429 . S
C2817 C2811 1.429 . S
C2817 C2818 1.523 . S
C2818 C2799 1.368 . S
C2818 C2812 1.368 . S
C2818 C2817 1.523 . S
C2819 C2803 1.429 . S
C2819 C2815 1.429 . S
C2819 C2820 1.523 . S
C2820 C2804 1.368 . S
C2820 C2816 1.368 . S
C2820 C2819 1.523 . S
H2821 C2796 0.950 . S
H2822 C2798 0.950 . S
H2823 C2799 0.949 1_565 S
H2824 C2801 0.927 1_565 S
H2825 C2803 0.950 1_565 S
C2826 C2827 1.349 . S
C2826 C2828 1.327 . S
C2826 H2851 0.950 . S
C2827 C2826 1.349 . S
C2827 C2843 1.349 . S
C2828 C2826 1.327 . S
C2828 C2847 1.429 . S
C2828 H2852 0.950 . S
C2829 C2846 1.574 . S
C2829 C2848 1.368 . S
C2829 H2853 0.949 . S
H2830 C2834 0.949 . S
C2831 C2832 1.349 . S
C2831 C2833 1.327 . S
C2831 H2854 0.950 . S
C2832 C2831 1.349 . S
C2832 C2844 1.349 . S
C2833 C2831 1.327 . S
C2833 C2849 1.429 . S
C2833 H2855 0.950 . S
C2834 H2830 0.949 . S
C2834 C2842 1.574 . S
C2834 C2850 1.368 . S
H2835 C2843 0.950 . S
H2836 C2841 0.950 . S
H2837 C2842 0.949 . S
H2838 C2844 0.950 . S
H2839 C2845 0.950 . S
H2840 C2846 0.949 . S
C2841 H2836 0.950 . S
C2841 C2843 1.327 . S
C2841 C2847 1.429 . S
C2842 C2834 1.574 . S
C2842 H2837 0.949 . S
C2842 C2848 1.368 . S
C2843 C2827 1.349 . S
C2843 H2835 0.950 . S
C2843 C2841 1.327 . S
C2844 C2832 1.349 . S
C2844 H2838 0.950 . S
C2844 C2845 1.327 . S
C2845 H2839 0.950 . S
C2845 C2844 1.327 . S
C2845 C2849 1.429 . S
C2846 C2829 1.574 . S
C2846 H2840 0.949 . S
C2846 C2850 1.368 . S
C2847 C2828 1.429 . S
C2847 C2841 1.429 . S
C2847 C2848 1.523 . S
C2848 C2829 1.368 . S
C2848 C2842 1.368 . S
C2848 C2847 1.523 . S
C2849 C2833 1.429 . S
C2849 C2845 1.429 . S
C2849 C2850 1.523 . S
C2850 C2834 1.368 . S
C2850 C2846 1.368 . S
C2850 C2849 1.523 . S
H2851 C2826 0.950 . S
H2852 C2828 0.950 . S
H2853 C2829 0.949 . S
H2854 C2831 0.950 . S
H2855 C2833 0.950 . S
C2856 C2857 1.349 . S
C2856 C2858 1.327 . S
C2856 H2881 0.950 . S
C2857 C2856 1.349 . S
C2857 C2873 1.349 . S
C2858 C2856 1.327 . S
C2858 C2877 1.429 . S
C2858 H2882 0.950 . S
C2859 C2876 1.574 . S
C2859 C2878 1.368 . S
C2859 H2883 0.949 . S
H2860 C2864 0.949 . S
C2861 C2862 1.349 . S
C2861 C2863 1.327 . S
C2861 H2884 0.950 . S
C2862 C2861 1.349 . S
C2862 C2874 1.349 . S
C2863 C2861 1.327 . S
C2863 C2879 1.429 . S
C2863 H2885 0.950 . S
C2864 H2860 0.949 . S
C2864 C2872 1.574 . S
C2864 C2880 1.368 . S
H2865 C2873 0.950 . S
H2866 C2871 0.950 . S
H2867 C2872 0.949 . S
H2868 C2874 0.950 . S
H2869 C2875 0.950 . S
H2870 C2876 0.949 . S
C2871 H2866 0.950 . S
C2871 C2873 1.327 . S
C2871 C2877 1.429 . S
C2872 C2864 1.574 . S
C2872 H2867 0.949 . S
C2872 C2878 1.368 . S
C2873 C2857 1.349 . S
C2873 H2865 0.950 . S
C2873 C2871 1.327 . S
C2874 C2862 1.349 . S
C2874 H2868 0.950 . S
C2874 C2875 1.327 . S
C2875 H2869 0.950 . S
C2875 C2874 1.327 . S
C2875 C2879 1.429 . S
C2876 C2859 1.574 . S
C2876 H2870 0.949 . S
C2876 C2880 1.368 . S
C2877 C2858 1.429 . S
C2877 C2871 1.429 . S
C2877 C2878 1.523 . S
C2878 C2859 1.368 . S
C2878 C2872 1.368 . S
C2878 C2877 1.523 . S
C2879 C2863 1.429 . S
C2879 C2875 1.429 . S
C2879 C2880 1.523 . S
C2880 C2864 1.368 . S
C2880 C2876 1.368 . S
C2880 C2879 1.523 . S
H2881 C2856 0.950 . S
H2882 C2858 0.950 . S
H2883 C2859 0.949 . S
H2884 C2861 0.950 . S
H2885 C2863 0.950 . S
C2886 C2887 1.349 . S
C2886 C2888 1.327 . S
C2886 H2911 0.950 . S
C2887 C2886 1.349 . S
C2887 C2903 1.349 . S
C2888 C2886 1.327 . S
C2888 C2907 1.429 . S
C2888 H2912 0.950 . S
C2889 C2906 1.574 . S
C2889 C2908 1.368 . S
C2889 H2913 0.949 . S
H2890 C2894 0.949 . S
C2891 C2892 1.349 . S
C2891 C2893 1.327 . S
C2891 H2914 0.950 . S
C2892 C2891 1.349 . S
C2892 C2904 1.349 . S
C2893 C2891 1.327 . S
C2893 C2909 1.429 . S
C2893 H2915 0.950 . S
C2894 H2890 0.949 . S
C2894 C2902 1.574 . S
C2894 C2910 1.368 . S
H2895 C2903 0.950 . S
H2896 C2901 0.950 . S
H2897 C2902 0.949 . S
H2898 C2904 0.950 . S
H2899 C2905 0.950 . S
H2900 C2906 0.949 . S
C2901 H2896 0.950 . S
C2901 C2903 1.327 . S
C2901 C2907 1.429 . S
C2902 C2894 1.574 . S
C2902 H2897 0.949 . S
C2902 C2908 1.368 . S
C2903 C2887 1.349 . S
C2903 H2895 0.950 . S
C2903 C2901 1.327 . S
C2904 C2892 1.349 . S
C2904 H2898 0.950 . S
C2904 C2905 1.327 . S
C2905 H2899 0.950 . S
C2905 C2904 1.327 . S
C2905 C2909 1.429 . S
C2906 C2889 1.574 . S
C2906 H2900 0.949 . S
C2906 C2910 1.368 . S
C2907 C2888 1.429 . S
C2907 C2901 1.429 . S
C2907 C2908 1.523 . S
C2908 C2889 1.368 . S
C2908 C2902 1.368 . S
C2908 C2907 1.523 . S
C2909 C2893 1.429 . S
C2909 C2905 1.429 . S
C2909 C2910 1.523 . S
C2910 C2894 1.368 . S
C2910 C2906 1.368 . S
C2910 C2909 1.523 . S
H2911 C2886 0.950 . S
H2912 C2888 0.950 . S
H2913 C2889 0.949 . S
H2914 C2891 0.950 . S
H2915 C2893 0.950 . S
C2916 C2917 1.349 . S
C2916 C2918 1.327 . S
C2916 H2941 0.950 . S
C2917 C2916 1.349 . S
C2917 C2933 1.349 . S
C2918 C2916 1.327 . S
C2918 C2937 1.429 . S
C2918 H2942 0.950 . S
C2919 C2936 1.574 . S
C2919 C2938 1.368 . S
C2919 H2943 0.949 . S
H2920 C2924 0.949 . S
C2921 C2922 1.349 . S
C2921 C2923 1.327 . S
C2921 H2944 0.950 . S
C2922 C2921 1.349 . S
C2922 C2934 1.349 . S
C2923 C2921 1.327 . S
C2923 C2939 1.429 . S
C2923 H2945 0.950 . S
C2924 H2920 0.949 . S
C2924 C2932 1.574 . S
C2924 C2940 1.368 . S
H2925 C2933 0.950 . S
H2926 C2931 0.950 . S
H2927 C2932 0.949 . S
H2928 C2934 0.950 . S
H2929 C2935 0.950 . S
H2930 C2936 0.949 . S
C2931 H2926 0.950 . S
C2931 C2933 1.327 . S
C2931 C2937 1.429 . S
C2932 C2924 1.574 . S
C2932 H2927 0.949 . S
C2932 C2938 1.368 . S
C2933 C2917 1.349 . S
C2933 H2925 0.950 . S
C2933 C2931 1.327 . S
C2934 C2922 1.349 . S
C2934 H2928 0.950 . S
C2934 C2935 1.327 . S
C2935 H2929 0.950 . S
C2935 C2934 1.327 . S
C2935 C2939 1.429 . S
C2936 C2919 1.574 . S
C2936 H2930 0.949 . S
C2936 C2940 1.368 . S
C2937 C2918 1.429 . S
C2937 C2931 1.429 . S
C2937 C2938 1.523 . S
C2938 C2919 1.368 . S
C2938 C2932 1.368 . S
C2938 C2937 1.523 . S
C2939 C2923 1.429 . S
C2939 C2935 1.429 . S
C2939 C2940 1.523 . S
C2940 C2924 1.368 . S
C2940 C2936 1.368 . S
C2940 C2939 1.523 . S
H2941 C2916 0.950 . S
H2942 C2918 0.950 . S
H2943 C2919 0.949 . S
H2944 C2921 0.950 . S
H2945 C2923 0.950 . S
C2946 C2947 1.349 . S
C2946 C2948 1.327 . S
C2946 H2971 0.950 . S
C2947 C2946 1.349 . S
C2947 C2963 1.349 . S
C2948 C2946 1.327 . S
C2948 C2967 1.429 . S
C2948 H2972 0.950 . S
C2949 C2966 1.574 . S
C2949 C2968 1.368 . S
C2949 H2973 0.949 . S
H2950 C2954 0.949 . S
C2951 C2952 1.349 . S
C2951 C2953 1.327 . S
C2951 H2974 0.950 . S
C2952 C2951 1.349 . S
C2952 C2964 1.349 . S
C2953 C2951 1.327 . S
C2953 C2969 1.429 . S
C2953 H2975 0.950 . S
C2954 H2950 0.949 . S
C2954 C2962 1.574 . S
C2954 C2970 1.368 . S
H2955 C2963 0.950 . S
H2956 C2961 0.950 . S
H2957 C2962 0.949 . S
H2958 C2964 0.950 . S
H2959 C2965 0.950 . S
H2960 C2966 0.949 . S
C2961 H2956 0.950 . S
C2961 C2963 1.327 . S
C2961 C2967 1.429 . S
C2962 C2954 1.574 . S
C2962 H2957 0.949 . S
C2962 C2968 1.368 . S
C2963 C2947 1.349 . S
C2963 H2955 0.950 . S
C2963 C2961 1.327 . S
C2964 C2952 1.349 . S
C2964 H2958 0.950 . S
C2964 C2965 1.327 . S
C2965 H2959 0.950 . S
C2965 C2964 1.327 . S
C2965 C2969 1.429 . S
C2966 C2949 1.574 . S
C2966 H2960 0.949 . S
C2966 C2970 1.368 . S
C2967 C2948 1.429 . S
C2967 C2961 1.429 . S
C2967 C2968 1.523 . S
C2968 C2949 1.368 . S
C2968 C2962 1.368 . S
C2968 C2967 1.523 . S
C2969 C2953 1.429 . S
C2969 C2965 1.429 . S
C2969 C2970 1.523 . S
C2970 C2954 1.368 . S
C2970 C2966 1.368 . S
C2970 C2969 1.523 . S
H2971 C2946 0.950 . S
H2972 C2948 0.950 . S
H2973 C2949 0.949 . S
H2974 C2951 0.950 . S
H2975 C2953 0.950 . S
C2976 C2977 1.377 . S
C2976 C2978 1.327 . S
C2976 H3001 0.967 . S
C2977 C2976 1.377 . S
C2977 C2993 1.388 . S
C2978 C2976 1.327 . S
C2978 C2997 1.429 . S
C2978 H3002 0.950 . S
C2979 C2996 1.574 . S
C2979 C2998 1.368 . S
C2979 H3003 0.949 . S
H2980 C2984 0.949 . S
C2981 C2982 1.349 . S
C2981 C2983 1.327 . S
C2981 H3004 0.950 . S
C2982 C2981 1.349 . S
C2982 C2994 1.349 . S
C2983 C2981 1.327 . S
C2983 C2999 1.429 . S
C2983 H3005 0.950 . S
C2984 H2980 0.949 . S
C2984 C2992 1.574 . S
C2984 C3000 1.368 . S
H2985 C2993 0.950 . S
H2986 C2991 0.950 . S
H2987 C2992 0.949 . S
H2988 C2994 0.950 . S
H2989 C2995 0.950 . S
H2990 C2996 0.949 . S
C2991 H2986 0.950 . S
C2991 C2993 1.327 . S
C2991 C2997 1.429 . S
C2992 C2984 1.574 . S
C2992 H2987 0.949 . S
C2992 C2998 1.368 . S
C2993 C2977 1.388 . S
C2993 H2985 0.950 . S
C2993 C2991 1.327 . S
C2994 C2982 1.349 . S
C2994 H2988 0.950 . S
C2994 C2995 1.327 . S
C2995 H2989 0.950 . S
C2995 C2994 1.327 . S
C2995 C2999 1.429 . S
C2996 C2979 1.574 . S
C2996 H2990 0.949 . S
C2996 C3000 1.368 . S
C2997 C2978 1.429 . S
C2997 C2991 1.429 . S
C2997 C2998 1.523 . S
C2998 C2979 1.368 . S
C2998 C2992 1.368 . S
C2998 C2997 1.523 . S
C2999 C2983 1.429 . S
C2999 C2995 1.429 . S
C2999 C3000 1.523 . S
C3000 C2984 1.368 . S
C3000 C2996 1.368 . S
C3000 C2999 1.523 . S
H3001 C2976 0.967 . S
H3002 C2978 0.950 . S
H3003 C2979 0.949 . S
H3004 C2981 0.950 . S
H3005 C2983 0.950 . S
C3006 C3007 1.349 . S
C3006 C3008 1.327 . S
C3006 H3031 0.950 . S
C3007 C3006 1.349 . S
C3007 C3023 1.349 . S
C3008 C3006 1.327 . S
C3008 C3027 1.429 . S
C3008 H3032 0.950 . S
C3009 C3026 1.574 . S
C3009 C3028 1.368 . S
C3009 H3033 0.949 . S
H3010 C3014 0.949 . S
C3011 C3012 1.349 . S
C3011 C3013 1.327 . S
C3011 H3034 0.950 . S
C3012 C3011 1.349 . S
C3012 C3024 1.349 . S
C3013 C3011 1.327 . S
C3013 C3029 1.429 . S
C3013 H3035 0.950 . S
C3014 H3010 0.949 . S
C3014 C3022 1.574 . S
C3014 C3030 1.368 . S
H3015 C3023 0.950 . S
H3016 C3021 0.950 . S
H3017 C3022 0.949 . S
H3018 C3024 0.950 . S
H3019 C3025 0.950 . S
H3020 C3026 0.949 . S
C3021 H3016 0.950 . S
C3021 C3023 1.327 . S
C3021 C3027 1.429 . S
C3022 C3014 1.574 . S
C3022 H3017 0.949 . S
C3022 C3028 1.368 . S
C3023 C3007 1.349 . S
C3023 H3015 0.950 . S
C3023 C3021 1.327 . S
C3024 C3012 1.349 . S
C3024 H3018 0.950 . S
C3024 C3025 1.327 . S
C3025 H3019 0.950 . S
C3025 C3024 1.327 . S
C3025 C3029 1.429 . S
C3026 C3009 1.574 . S
C3026 H3020 0.949 . S
C3026 C3030 1.368 . S
C3027 C3008 1.429 . S
C3027 C3021 1.429 . S
C3027 C3028 1.523 . S
C3028 C3009 1.368 . S
C3028 C3022 1.368 . S
C3028 C3027 1.523 . S
C3029 C3013 1.429 . S
C3029 C3025 1.429 . S
C3029 C3030 1.523 . S
C3030 C3014 1.368 . S
C3030 C3026 1.368 . S
C3030 C3029 1.523 . S
H3031 C3006 0.950 . S
H3032 C3008 0.950 . S
H3033 C3009 0.949 . S
H3034 C3011 0.950 . S
H3035 C3013 0.950 . S
C3036 C3037 1.349 . S
C3036 C3038 1.327 . S
C3036 H3061 0.950 . S
C3037 C3036 1.349 . S
C3037 C3053 1.349 . S
C3038 C3036 1.327 . S
C3038 C3057 1.429 . S
C3038 H3062 0.950 . S
C3039 C3056 1.574 . S
C3039 C3058 1.368 . S
C3039 H3063 0.949 . S
H3040 C3044 0.949 . S
C3041 C3042 1.349 . S
C3041 C3043 1.327 . S
C3041 H3064 0.950 . S
C3042 C3041 1.349 . S
C3042 C3054 1.349 . S
C3043 C3041 1.327 . S
C3043 C3059 1.429 . S
C3043 H3065 0.950 . S
C3044 H3040 0.949 . S
C3044 C3052 1.574 . S
C3044 C3060 1.368 . S
H3045 C3053 0.950 . S
H3046 C3051 0.950 . S
H3047 C3052 0.949 . S
H3048 C3054 0.950 . S
H3049 C3055 0.950 . S
H3050 C3056 0.949 . S
C3051 H3046 0.950 . S
C3051 C3053 1.327 . S
C3051 C3057 1.429 . S
C3052 C3044 1.574 . S
C3052 H3047 0.949 . S
C3052 C3058 1.368 . S
C3053 C3037 1.349 . S
C3053 H3045 0.950 . S
C3053 C3051 1.327 . S
C3054 C3042 1.349 . S
C3054 H3048 0.950 . S
C3054 C3055 1.327 . S
C3055 H3049 0.950 . S
C3055 C3054 1.327 . S
C3055 C3059 1.429 . S
C3056 C3039 1.574 . S
C3056 H3050 0.949 . S
C3056 C3060 1.368 . S
C3057 C3038 1.429 . S
C3057 C3051 1.429 . S
C3057 C3058 1.523 . S
C3058 C3039 1.368 . S
C3058 C3052 1.368 . S
C3058 C3057 1.523 . S
C3059 C3043 1.429 . S
C3059 C3055 1.429 . S
C3059 C3060 1.523 . S
C3060 C3044 1.368 . S
C3060 C3056 1.368 . S
C3060 C3059 1.523 . S
H3061 C3036 0.950 . S
H3062 C3038 0.950 . S
H3063 C3039 0.949 . S
H3064 C3041 0.950 . S
H3065 C3043 0.950 . S
C3066 C3067 1.349 . S
C3066 C3068 1.327 . S
C3066 H3091 0.950 . S
C3067 C3066 1.349 . S
C3067 C3083 1.349 . S
C3068 C3066 1.327 . S
C3068 C3087 1.429 . S
C3068 H3092 0.950 . S
C3069 C3086 1.574 . S
C3069 C3088 1.368 . S
C3069 H3093 0.949 . S
H3070 C3074 0.949 . S
C3071 C3072 1.349 . S
C3071 C3073 1.327 . S
C3071 H3094 0.950 . S
C3072 C3071 1.349 . S
C3072 C3084 1.349 . S
C3073 C3071 1.327 . S
C3073 C3089 1.429 . S
C3073 H3095 0.950 . S
C3074 H3070 0.949 . S
C3074 C3082 1.574 . S
C3074 C3090 1.368 . S
H3075 C3083 0.950 . S
H3076 C3081 0.950 . S
H3077 C3082 0.949 . S
H3078 C3084 0.950 . S
H3079 C3085 0.950 . S
H3080 C3086 0.949 . S
C3081 H3076 0.950 . S
C3081 C3083 1.327 . S
C3081 C3087 1.429 . S
C3082 C3074 1.574 . S
C3082 H3077 0.949 . S
C3082 C3088 1.368 . S
C3083 C3067 1.349 . S
C3083 H3075 0.950 . S
C3083 C3081 1.327 . S
C3084 C3072 1.349 . S
C3084 H3078 0.950 . S
C3084 C3085 1.327 . S
C3085 H3079 0.950 . S
C3085 C3084 1.327 . S
C3085 C3089 1.429 . S
C3086 C3069 1.574 . S
C3086 H3080 0.949 . S
C3086 C3090 1.368 . S
C3087 C3068 1.429 . S
C3087 C3081 1.429 . S
C3087 C3088 1.523 . S
C3088 C3069 1.368 . S
C3088 C3082 1.368 . S
C3088 C3087 1.523 . S
C3089 C3073 1.429 . S
C3089 C3085 1.429 . S
C3089 C3090 1.523 . S
C3090 C3074 1.368 . S
C3090 C3086 1.368 . S
C3090 C3089 1.523 . S
H3091 C3066 0.950 . S
H3092 C3068 0.950 . S
H3093 C3069 0.949 . S
H3094 C3071 0.950 . S
H3095 C3073 0.950 . S
C3096 C3097 1.349 . S
C3096 C3098 1.327 . S
C3096 H3121 0.950 . S
C3097 C3096 1.349 . S
C3097 C3113 1.349 . S
C3098 C3096 1.327 . S
C3098 C3117 1.429 . S
C3098 H3122 0.950 . S
C3099 C3116 1.574 . S
C3099 C3118 1.368 . S
C3099 H3123 0.949 . S
H3100 C3104 0.949 . S
C3101 C3102 1.349 . S
C3101 C3103 1.327 . S
C3101 H3124 0.950 . S
C3102 C3101 1.349 . S
C3102 C3114 1.349 . S
C3103 C3101 1.327 . S
C3103 C3119 1.429 . S
C3103 H3125 0.950 . S
C3104 H3100 0.949 . S
C3104 C3112 1.574 . S
C3104 C3120 1.368 . S
H3105 C3113 0.950 . S
H3106 C3111 0.950 . S
H3107 C3112 0.949 . S
H3108 C3114 0.950 . S
H3109 C3115 0.950 . S
H3110 C3116 0.949 . S
C3111 H3106 0.950 . S
C3111 C3113 1.327 . S
C3111 C3117 1.429 . S
C3112 C3104 1.574 . S
C3112 H3107 0.949 . S
C3112 C3118 1.368 . S
C3113 C3097 1.349 . S
C3113 H3105 0.950 . S
C3113 C3111 1.327 . S
C3114 C3102 1.349 . S
C3114 H3108 0.950 . S
C3114 C3115 1.327 . S
C3115 H3109 0.950 . S
C3115 C3114 1.327 . S
C3115 C3119 1.429 . S
C3116 C3099 1.574 . S
C3116 H3110 0.949 . S
C3116 C3120 1.368 . S
C3117 C3098 1.429 . S
C3117 C3111 1.429 . S
C3117 C3118 1.523 . S
C3118 C3099 1.368 . S
C3118 C3112 1.368 . S
C3118 C3117 1.523 . S
C3119 C3103 1.429 . S
C3119 C3115 1.429 . S
C3119 C3120 1.523 . S
C3120 C3104 1.368 . S
C3120 C3116 1.368 . S
C3120 C3119 1.523 . S
H3121 C3096 0.950 . S
H3122 C3098 0.950 . S
H3123 C3099 0.949 . S
H3124 C3101 0.950 . S
H3125 C3103 0.950 . S
C3126 C3127 1.349 . S
C3126 C3128 1.327 . S
C3126 H3151 0.950 . S
C3127 C3126 1.349 . S
C3127 C3143 1.349 . S
C3128 C3126 1.327 . S
C3128 C3147 1.429 . S
C3128 H3152 0.950 . S
C3129 C3146 1.574 . S
C3129 C3148 1.368 . S
C3129 H3153 0.949 . S
H3130 C3134 0.949 . S
C3131 C3132 1.349 . S
C3131 C3133 1.327 . S
C3131 H3154 0.950 . S
C3132 C3131 1.349 . S
C3132 C3144 1.349 . S
C3133 C3131 1.327 . S
C3133 C3149 1.429 . S
C3133 H3155 0.950 . S
C3134 H3130 0.949 . S
C3134 C3142 1.574 . S
C3134 C3150 1.368 . S
H3135 C3143 0.950 . S
H3136 C3141 0.950 . S
H3137 C3142 0.949 . S
H3138 C3144 0.950 . S
H3139 C3145 0.950 . S
H3140 C3146 0.949 . S
C3141 H3136 0.950 . S
C3141 C3143 1.327 . S
C3141 C3147 1.429 . S
C3142 C3134 1.574 . S
C3142 H3137 0.949 . S
C3142 C3148 1.368 . S
C3143 C3127 1.349 . S
C3143 H3135 0.950 . S
C3143 C3141 1.327 . S
C3144 C3132 1.349 . S
C3144 H3138 0.950 . S
C3144 C3145 1.327 . S
C3145 H3139 0.950 . S
C3145 C3144 1.327 . S
C3145 C3149 1.429 . S
C3146 C3129 1.574 . S
C3146 H3140 0.949 . S
C3146 C3150 1.368 . S
C3147 C3128 1.429 . S
C3147 C3141 1.429 . S
C3147 C3148 1.523 . S
C3148 C3129 1.368 . S
C3148 C3142 1.368 . S
C3148 C3147 1.523 . S
C3149 C3133 1.429 . S
C3149 C3145 1.429 . S
C3149 C3150 1.523 . S
C3150 C3134 1.368 . S
C3150 C3146 1.368 . S
C3150 C3149 1.523 . S
H3151 C3126 0.950 . S
H3152 C3128 0.950 . S
H3153 C3129 0.949 . S
H3154 C3131 0.950 . S
H3155 C3133 0.950 . S
C3156 C3157 1.349 1_655 S
C3156 C3158 1.327 . S
C3156 H3181 0.950 . S
C3157 C3156 1.349 1_455 S
C3157 C3173 1.349 . S
C3158 C3156 1.327 . S
C3158 C3177 1.429 1_655 S
C3158 H3182 0.950 . S
C3159 C3176 1.574 . S
C3159 C3178 1.368 1_554 S
C3159 H3183 0.949 . S
H3160 C3164 0.949 . S
C3161 C3162 1.349 . S
C3161 C3163 1.327 . S
C3161 H3184 0.950 . S
C3162 C3161 1.349 . S
C3162 C3174 1.349 . S
C3163 C3161 1.327 . S
C3163 C3179 1.429 . S
C3163 H3185 0.950 . S
C3164 H3160 0.949 . S
C3164 C3172 1.574 . S
C3164 C3180 1.368 1_655 S
H3165 C3173 0.950 . S
H3166 C3171 0.950 . S
H3167 C3172 0.949 . S
H3168 C3174 0.950 1_656 S
H3169 C3175 0.931 1_655 S
H3170 C3176 0.949 . S
C3171 H3166 0.950 . S
C3171 C3173 1.327 . S
C3171 C3177 1.429 . S
C3172 C3164 1.574 . S
C3172 H3167 0.949 . S
C3172 C3178 1.368 1_655 S
C3173 C3157 1.349 . S
C3173 H3165 0.950 . S
C3173 C3171 1.327 . S
C3174 C3162 1.349 . S
C3174 H3168 0.950 1_454 S
C3174 C3175 1.319 1_554 S
C3175 H3169 0.931 1_455 S
C3175 C3174 1.319 1_556 S
C3175 C3179 1.460 1_556 S
C3176 C3159 1.574 . S
C3176 H3170 0.949 . S
C3176 C3180 1.368 1_554 S
C3177 C3158 1.429 1_455 S
C3177 C3171 1.429 . S
C3177 C3178 1.523 . S
C3178 C3159 1.368 1_556 S
C3178 C3172 1.368 1_455 S
C3178 C3177 1.523 . S
C3179 C3163 1.429 . S
C3179 C3175 1.460 1_554 S
C3179 C3180 1.523 1_554 S
C3180 C3164 1.368 1_455 S
C3180 C3176 1.368 1_556 S
C3180 C3179 1.523 1_556 S
H3181 C3156 0.950 . S
H3182 C3158 0.950 . S
H3183 C3159 0.949 . S
H3184 C3161 0.950 . S
H3185 C3163 0.950 . S
C3186 C3187 1.388 . S
C3186 C3188 1.327 . S
C3186 H3211 0.950 . S
C3187 C3186 1.388 . S
C3187 C3203 1.354 . S
C3188 C3186 1.327 . S
C3188 C3207 1.429 . S
C3188 H3212 0.950 . S
C3189 C3206 1.574 . S
C3189 C3208 1.368 . S
C3189 H3213 0.949 . S
H3190 C3194 0.949 . S
C3191 C3192 1.349 . S
C3191 C3193 1.327 . S
C3191 H3214 0.950 . S
C3192 C3191 1.349 . S
C3192 C3204 1.349 . S
C3193 C3191 1.327 . S
C3193 C3209 1.429 . S
C3193 H3215 0.950 . S
C3194 H3190 0.949 . S
C3194 C3202 1.574 . S
C3194 C3210 1.368 . S
H3195 C3203 0.950 1_455 S
H3196 C3201 0.950 . S
H3197 C3202 0.949 . S
H3198 C3204 0.950 . S
H3199 C3205 0.950 . S
H3200 C3206 0.949 . S
C3201 H3196 0.950 . S
C3201 C3203 1.327 . S
C3201 C3207 1.429 . S
C3202 C3194 1.574 . S
C3202 H3197 0.949 . S
C3202 C3208 1.368 . S
C3203 C3187 1.354 . S
C3203 H3195 0.950 1_655 S
C3203 C3201 1.327 . S
C3204 C3192 1.349 . S
C3204 H3198 0.950 . S
C3204 C3205 1.327 . S
C3205 H3199 0.950 . S
C3205 C3204 1.327 . S
C3205 C3209 1.429 . S
C3206 C3189 1.574 . S
C3206 H3200 0.949 . S
C3206 C3210 1.368 . S
C3207 C3188 1.429 . S
C3207 C3201 1.429 . S
C3207 C3208 1.523 . S
C3208 C3189 1.368 . S
C3208 C3202 1.368 . S
C3208 C3207 1.523 . S
C3209 C3193 1.429 . S
C3209 C3205 1.429 . S
C3209 C3210 1.523 . S
C3210 C3194 1.368 . S
C3210 C3206 1.368 . S
C3210 C3209 1.523 . S
H3211 C3186 0.950 . S
H3212 C3188 0.950 . S
H3213 C3189 0.949 . S
H3214 C3191 0.950 . S
H3215 C3193 0.950 . S
C3216 C3217 1.349 . S
C3216 C3218 1.327 . S
C3216 H3241 0.950 . S
C3217 C3216 1.349 . S
C3217 C3233 1.349 . S
C3218 C3216 1.327 . S
C3218 C3237 1.429 . S
C3218 H3242 0.950 . S
C3219 C3236 1.574 . S
C3219 C3238 1.368 . S
C3219 H3243 0.949 . S
H3220 C3224 0.949 . S
C3221 C3222 1.349 . S
C3221 C3223 1.327 . S
C3221 H3244 0.950 . S
C3222 C3221 1.349 . S
C3222 C3234 1.349 . S
C3223 C3221 1.327 . S
C3223 C3239 1.429 . S
C3223 H3245 0.950 . S
C3224 H3220 0.949 . S
C3224 C3232 1.574 . S
C3224 C3240 1.368 . S
H3225 C3233 0.950 . S
H3226 C3231 0.950 . S
H3227 C3232 0.949 . S
H3228 C3234 0.950 . S
H3229 C3235 0.950 . S
H3230 C3236 0.949 . S
C3231 H3226 0.950 . S
C3231 C3233 1.327 . S
C3231 C3237 1.429 . S
C3232 C3224 1.574 . S
C3232 H3227 0.949 . S
C3232 C3238 1.368 . S
C3233 C3217 1.349 . S
C3233 H3225 0.950 . S
C3233 C3231 1.327 . S
C3234 C3222 1.349 . S
C3234 H3228 0.950 . S
C3234 C3235 1.327 . S
C3235 H3229 0.950 . S
C3235 C3234 1.327 . S
C3235 C3239 1.429 . S
C3236 C3219 1.574 . S
C3236 H3230 0.949 . S
C3236 C3240 1.368 . S
C3237 C3218 1.429 . S
C3237 C3231 1.429 . S
C3237 C3238 1.523 . S
C3238 C3219 1.368 . S
C3238 C3232 1.368 . S
C3238 C3237 1.523 . S
C3239 C3223 1.429 . S
C3239 C3235 1.429 . S
C3239 C3240 1.523 . S
C3240 C3224 1.368 . S
C3240 C3236 1.368 . S
C3240 C3239 1.523 . S
H3241 C3216 0.950 . S
H3242 C3218 0.950 . S
H3243 C3219 0.949 . S
H3244 C3221 0.950 . S
H3245 C3223 0.950 . S
C3246 C3247 1.349 . S
C3246 C3248 1.327 . S
C3246 H3271 0.950 . S
C3247 C3246 1.349 . S
C3247 C3263 1.349 . S
C3248 C3246 1.327 . S
C3248 C3267 1.429 . S
C3248 H3272 0.950 . S
C3249 C3266 1.574 . S
C3249 C3268 1.368 . S
C3249 H3273 0.949 . S
H3250 C3254 0.949 . S
C3251 C3252 1.349 . S
C3251 C3253 1.327 . S
C3251 H3274 0.950 . S
C3252 C3251 1.349 . S
C3252 C3264 1.349 . S
C3253 C3251 1.327 . S
C3253 C3269 1.429 . S
C3253 H3275 0.950 . S
C3254 H3250 0.949 . S
C3254 C3262 1.574 . S
C3254 C3270 1.368 . S
H3255 C3263 0.950 . S
H3256 C3261 0.950 . S
H3257 C3262 0.949 . S
H3258 C3264 0.950 . S
H3259 C3265 0.950 . S
H3260 C3266 0.949 . S
C3261 H3256 0.950 . S
C3261 C3263 1.327 . S
C3261 C3267 1.429 . S
C3262 C3254 1.574 . S
C3262 H3257 0.949 . S
C3262 C3268 1.368 . S
C3263 C3247 1.349 . S
C3263 H3255 0.950 . S
C3263 C3261 1.327 . S
C3264 C3252 1.349 . S
C3264 H3258 0.950 . S
C3264 C3265 1.327 . S
C3265 H3259 0.950 . S
C3265 C3264 1.327 . S
C3265 C3269 1.429 . S
C3266 C3249 1.574 . S
C3266 H3260 0.949 . S
C3266 C3270 1.368 . S
C3267 C3248 1.429 . S
C3267 C3261 1.429 . S
C3267 C3268 1.523 . S
C3268 C3249 1.368 . S
C3268 C3262 1.368 . S
C3268 C3267 1.523 . S
C3269 C3253 1.429 . S
C3269 C3265 1.429 . S
C3269 C3270 1.523 . S
C3270 C3254 1.368 . S
C3270 C3266 1.368 . S
C3270 C3269 1.523 . S
H3271 C3246 0.950 . S
H3272 C3248 0.950 . S
H3273 C3249 0.949 . S
H3274 C3251 0.950 . S
H3275 C3253 0.950 . S
C3276 C3277 1.349 . S
C3276 C3278 1.327 . S
C3276 H3301 0.950 . S
C3277 C3276 1.349 . S
C3277 C3293 1.349 1_455 S
C3278 C3276 1.327 . S
C3278 C3297 1.429 . S
C3278 H3302 0.950 . S
C3279 C3296 1.574 . S
C3279 C3298 1.368 1_655 S
C3279 H3303 0.949 . S
H3280 C3284 0.949 . S
C3281 C3282 1.349 1_655 S
C3281 C3283 1.327 . S
C3281 H3304 0.950 . S
C3282 C3281 1.349 1_455 S
C3282 C3294 1.349 . S
C3283 C3281 1.327 . S
C3283 C3299 1.429 1_655 S
C3283 H3305 0.950 . S
C3284 H3280 0.949 . S
C3284 C3292 1.574 . S
C3284 C3300 1.368 . S
H3285 C3293 0.950 . S
H3286 C3291 0.950 . S
H3287 C3292 0.949 . S
H3288 C3294 0.950 . S
H3289 C3295 0.950 . S
H3290 C3296 0.949 . S
C3291 H3286 0.950 . S
C3291 C3293 1.327 . S
C3291 C3297 1.429 1_655 S
C3292 C3284 1.574 . S
C3292 H3287 0.949 . S
C3292 C3298 1.368 . S
C3293 C3277 1.349 1_655 S
C3293 H3285 0.950 . S
C3293 C3291 1.327 . S
C3294 C3282 1.349 . S
C3294 H3288 0.950 . S
C3294 C3295 1.327 . S
C3295 H3289 0.950 . S
C3295 C3294 1.327 . S
C3295 C3299 1.429 . S
C3296 C3279 1.574 . S
C3296 H3290 0.949 . S
C3296 C3300 1.368 1_655 S
C3297 C3278 1.429 . S
C3297 C3291 1.429 1_455 S
C3297 C3298 1.523 . S
C3298 C3279 1.368 1_455 S
C3298 C3292 1.368 . S
C3298 C3297 1.523 . S
C3299 C3283 1.429 1_455 S
C3299 C3295 1.429 . S
C3299 C3300 1.523 . S
C3300 C3284 1.368 . S
C3300 C3296 1.368 1_455 S
C3300 C3299 1.523 . S
H3301 C3276 0.950 . S
H3302 C3278 0.950 . S
H3303 C3279 0.949 . S
H3304 C3281 0.950 . S
H3305 C3283 0.950 . S
C3306 C3307 1.349 . S
C3306 C3308 1.327 . S
C3306 H3331 0.950 . S
C3307 C3306 1.349 . S
C3307 C3323 1.349 . S
C3308 C3306 1.327 . S
C3308 C3327 1.429 . S
C3308 H3332 0.950 . S
C3309 C3326 1.574 . S
C3309 C3328 1.368 . S
C3309 H3333 0.949 . S
H3310 C3314 0.949 . S
C3311 C3312 1.349 . S
C3311 C3313 1.327 . S
C3311 H3334 0.950 . S
C3312 C3311 1.349 . S
C3312 C3324 1.349 . S
C3313 C3311 1.327 . S
C3313 C3329 1.429 . S
C3313 H3335 0.950 . S
C3314 H3310 0.949 . S
C3314 C3322 1.574 . S
C3314 C3330 1.368 . S
H3315 C3323 0.950 . S
H3316 C3321 0.950 . S
H3317 C3322 0.949 . S
H3318 C3324 0.950 . S
H3319 C3325 0.950 . S
H3320 C3326 0.949 . S
C3321 H3316 0.950 . S
C3321 C3323 1.327 . S
C3321 C3327 1.429 . S
C3322 C3314 1.574 . S
C3322 H3317 0.949 . S
C3322 C3328 1.368 . S
C3323 C3307 1.349 . S
C3323 H3315 0.950 . S
C3323 C3321 1.327 . S
C3324 C3312 1.349 . S
C3324 H3318 0.950 . S
C3324 C3325 1.327 . S
C3325 H3319 0.950 . S
C3325 C3324 1.327 . S
C3325 C3329 1.429 . S
C3326 C3309 1.574 . S
C3326 H3320 0.949 . S
C3326 C3330 1.368 . S
C3327 C3308 1.429 . S
C3327 C3321 1.429 . S
C3327 C3328 1.523 . S
C3328 C3309 1.368 . S
C3328 C3322 1.368 . S
C3328 C3327 1.523 . S
C3329 C3313 1.429 . S
C3329 C3325 1.429 . S
C3329 C3330 1.523 . S
C3330 C3314 1.368 . S
C3330 C3326 1.368 . S
C3330 C3329 1.523 . S
H3331 C3306 0.950 . S
H3332 C3308 0.950 . S
H3333 C3309 0.949 . S
H3334 C3311 0.950 . S
H3335 C3313 0.950 . S
C3336 C3337 1.349 . S
C3336 C3338 1.327 . S
C3336 H3361 0.950 . S
C3337 C3336 1.349 . S
C3337 C3353 1.349 . S
C3338 C3336 1.327 . S
C3338 C3357 1.429 . S
C3338 H3362 0.950 . S
C3339 C3356 1.574 . S
C3339 C3358 1.368 . S
C3339 H3363 0.949 . S
H3340 C3344 0.949 . S
C3341 C3342 1.349 . S
C3341 C3343 1.327 . S
C3341 H3364 0.950 . S
C3342 C3341 1.349 . S
C3342 C3354 1.349 . S
C3343 C3341 1.327 . S
C3343 C3359 1.429 . S
C3343 H3365 0.950 . S
C3344 H3340 0.949 . S
C3344 C3352 1.574 . S
C3344 C3360 1.368 . S
H3345 C3353 0.950 . S
H3346 C3351 0.950 . S
H3347 C3352 0.949 . S
H3348 C3354 0.950 . S
H3349 C3355 0.950 . S
H3350 C3356 0.949 . S
C3351 H3346 0.950 . S
C3351 C3353 1.327 . S
C3351 C3357 1.429 . S
C3352 C3344 1.574 . S
C3352 H3347 0.949 . S
C3352 C3358 1.368 . S
C3353 C3337 1.349 . S
C3353 H3345 0.950 . S
C3353 C3351 1.327 . S
C3354 C3342 1.349 . S
C3354 H3348 0.950 . S
C3354 C3355 1.327 . S
C3355 H3349 0.950 . S
C3355 C3354 1.327 . S
C3355 C3359 1.429 . S
C3356 C3339 1.574 . S
C3356 H3350 0.949 . S
C3356 C3360 1.368 . S
C3357 C3338 1.429 . S
C3357 C3351 1.429 . S
C3357 C3358 1.523 . S
C3358 C3339 1.368 . S
C3358 C3352 1.368 . S
C3358 C3357 1.523 . S
C3359 C3343 1.429 . S
C3359 C3355 1.429 . S
C3359 C3360 1.523 . S
C3360 C3344 1.368 . S
C3360 C3356 1.368 . S
C3360 C3359 1.523 . S
H3361 C3336 0.950 . S
H3362 C3338 0.950 . S
H3363 C3339 0.949 . S
H3364 C3341 0.950 . S
H3365 C3343 0.950 . S
C3366 C3367 1.349 . S
C3366 C3368 1.327 1_554 S
C3366 H3391 0.950 . S
C3367 C3366 1.349 . S
C3367 C3383 1.349 1_554 S
C3368 C3366 1.327 1_556 S
C3368 C3387 1.429 . S
C3368 H3392 0.950 . S
C3369 C3386 1.574 . S
C3369 C3388 1.368 . S
C3369 H3393 0.949 . S
H3370 C3374 0.949 . S
C3371 C3372 1.349 . S
C3371 C3373 1.327 . S
C3371 H3394 0.950 . S
C3372 C3371 1.349 . S
C3372 C3384 1.349 . S
C3373 C3371 1.327 . S
C3373 C3389 1.429 . S
C3373 H3395 0.950 . S
C3374 H3370 0.949 . S
C3374 C3382 1.574 . S
C3374 C3390 1.368 . S
H3375 C3383 0.950 . S
H3376 C3381 0.950 . S
H3377 C3382 0.949 . S
H3378 C3384 0.950 . S
H3379 C3385 0.950 . S
H3380 C3386 0.949 . S
C3381 H3376 0.950 . S
C3381 C3383 1.327 . S
C3381 C3387 1.429 . S
C3382 C3374 1.574 . S
C3382 H3377 0.949 . S
C3382 C3388 1.368 . S
C3383 C3367 1.349 1_556 S
C3383 H3375 0.950 . S
C3383 C3381 1.327 . S
C3384 C3372 1.349 . S
C3384 H3378 0.950 . S
C3384 C3385 1.327 . S
C3385 H3379 0.950 . S
C3385 C3384 1.327 . S
C3385 C3389 1.429 . S
C3386 C3369 1.574 . S
C3386 H3380 0.949 . S
C3386 C3390 1.368 . S
C3387 C3368 1.429 . S
C3387 C3381 1.429 . S
C3387 C3388 1.523 . S
C3388 C3369 1.368 . S
C3388 C3382 1.368 . S
C3388 C3387 1.523 . S
C3389 C3373 1.429 . S
C3389 C3385 1.429 . S
C3389 C3390 1.523 . S
C3390 C3374 1.368 . S
C3390 C3386 1.368 . S
C3390 C3389 1.523 . S
H3391 C3366 0.950 . S
H3392 C3368 0.950 . S
H3393 C3369 0.949 . S
H3394 C3371 0.950 . S
H3395 C3373 0.950 . S
C3396 C3397 1.349 . S
C3396 C3398 1.327 . S
C3396 H3421 0.950 . S
C3397 C3396 1.349 . S
C3397 C3413 1.349 . S
C3398 C3396 1.327 . S
C3398 C3417 1.429 . S
C3398 H3422 0.950 . S
C3399 C3416 1.574 . S
C3399 C3418 1.368 . S
C3399 H3423 0.949 . S
H3400 C3404 0.949 . S
C3401 C3402 1.349 . S
C3401 C3403 1.327 . S
C3401 H3424 0.950 . S
C3402 C3401 1.349 . S
C3402 C3414 1.349 . S
C3403 C3401 1.327 . S
C3403 C3419 1.429 . S
C3403 H3425 0.950 . S
C3404 H3400 0.949 . S
C3404 C3412 1.574 . S
C3404 C3420 1.368 . S
H3405 C3413 0.950 . S
H3406 C3411 0.950 . S
H3407 C3412 0.949 . S
H3408 C3414 0.950 . S
H3409 C3415 0.950 . S
H3410 C3416 0.949 . S
C3411 H3406 0.950 . S
C3411 C3413 1.327 . S
C3411 C3417 1.429 . S
C3412 C3404 1.574 . S
C3412 H3407 0.949 . S
C3412 C3418 1.368 . S
C3413 C3397 1.349 . S
C3413 H3405 0.950 . S
C3413 C3411 1.327 . S
C3414 C3402 1.349 . S
C3414 H3408 0.950 . S
C3414 C3415 1.327 . S
C3415 H3409 0.950 . S
C3415 C3414 1.327 . S
C3415 C3419 1.429 . S
C3416 C3399 1.574 . S
C3416 H3410 0.949 . S
C3416 C3420 1.368 . S
C3417 C3398 1.429 . S
C3417 C3411 1.429 . S
C3417 C3418 1.523 . S
C3418 C3399 1.368 . S
C3418 C3412 1.368 . S
C3418 C3417 1.523 . S
C3419 C3403 1.429 . S
C3419 C3415 1.429 . S
C3419 C3420 1.523 . S
C3420 C3404 1.368 . S
C3420 C3416 1.368 . S
C3420 C3419 1.523 . S
H3421 C3396 0.950 . S
H3422 C3398 0.950 . S
H3423 C3399 0.949 . S
H3424 C3401 0.950 . S
H3425 C3403 0.950 . S
C3426 C3427 1.349 . S
C3426 C3428 1.327 . S
C3426 H3451 0.950 . S
C3427 C3426 1.349 . S
C3427 C3443 1.349 . S
C3428 C3426 1.327 . S
C3428 C3447 1.429 . S
C3428 H3452 0.950 . S
C3429 C3446 1.574 . S
C3429 C3448 1.368 . S
C3429 H3453 0.949 . S
H3430 C3434 0.949 . S
C3431 C3432 1.349 . S
C3431 C3433 1.327 . S
C3431 H3454 0.950 . S
C3432 C3431 1.349 . S
C3432 C3444 1.349 . S
C3433 C3431 1.327 . S
C3433 C3449 1.429 . S
C3433 H3455 0.950 . S
C3434 H3430 0.949 . S
C3434 C3442 1.574 . S
C3434 C3450 1.368 . S
H3435 C3443 0.950 . S
H3436 C3441 0.950 . S
H3437 C3442 0.949 . S
H3438 C3444 0.950 . S
H3439 C3445 0.950 . S
H3440 C3446 0.949 . S
C3441 H3436 0.950 . S
C3441 C3443 1.327 . S
C3441 C3447 1.429 . S
C3442 C3434 1.574 . S
C3442 H3437 0.949 . S
C3442 C3448 1.368 . S
C3443 C3427 1.349 . S
C3443 H3435 0.950 . S
C3443 C3441 1.327 . S
C3444 C3432 1.349 . S
C3444 H3438 0.950 . S
C3444 C3445 1.327 . S
C3445 H3439 0.950 . S
C3445 C3444 1.327 . S
C3445 C3449 1.429 . S
C3446 C3429 1.574 . S
C3446 H3440 0.949 . S
C3446 C3450 1.368 . S
C3447 C3428 1.429 . S
C3447 C3441 1.429 . S
C3447 C3448 1.523 . S
C3448 C3429 1.368 . S
C3448 C3442 1.368 . S
C3448 C3447 1.523 . S
C3449 C3433 1.429 . S
C3449 C3445 1.429 . S
C3449 C3450 1.523 . S
C3450 C3434 1.368 . S
C3450 C3446 1.368 . S
C3450 C3449 1.523 . S
H3451 C3426 0.950 . S
H3452 C3428 0.950 . S
H3453 C3429 0.949 . S
H3454 C3431 0.950 . S
H3455 C3433 0.950 . S
C3456 C3457 1.349 . S
C3456 C3458 1.327 . S
C3456 H3481 0.950 . S
C3457 C3456 1.349 . S
C3457 C3473 1.349 . S
C3458 C3456 1.327 . S
C3458 C3477 1.429 . S
C3458 H3482 0.950 . S
C3459 C3476 1.574 . S
C3459 C3478 1.368 . S
C3459 H3483 0.949 . S
H3460 C3464 0.949 . S
C3461 C3462 1.349 . S
C3461 C3463 1.327 . S
C3461 H3484 0.950 . S
C3462 C3461 1.349 . S
C3462 C3474 1.349 . S
C3463 C3461 1.327 . S
C3463 C3479 1.429 . S
C3463 H3485 0.950 . S
C3464 H3460 0.949 . S
C3464 C3472 1.574 . S
C3464 C3480 1.368 . S
H3465 C3473 0.950 . S
H3466 C3471 0.950 . S
H3467 C3472 0.949 . S
H3468 C3474 0.950 . S
H3469 C3475 0.950 . S
H3470 C3476 0.949 . S
C3471 H3466 0.950 . S
C3471 C3473 1.327 . S
C3471 C3477 1.429 . S
C3472 C3464 1.574 . S
C3472 H3467 0.949 . S
C3472 C3478 1.368 . S
C3473 C3457 1.349 . S
C3473 H3465 0.950 . S
C3473 C3471 1.327 . S
C3474 C3462 1.349 . S
C3474 H3468 0.950 . S
C3474 C3475 1.327 . S
C3475 H3469 0.950 . S
C3475 C3474 1.327 . S
C3475 C3479 1.429 . S
C3476 C3459 1.574 . S
C3476 H3470 0.949 . S
C3476 C3480 1.368 . S
C3477 C3458 1.429 . S
C3477 C3471 1.429 . S
C3477 C3478 1.523 . S
C3478 C3459 1.368 . S
C3478 C3472 1.368 . S
C3478 C3477 1.523 . S
C3479 C3463 1.429 . S
C3479 C3475 1.429 . S
C3479 C3480 1.523 . S
C3480 C3464 1.368 . S
C3480 C3476 1.368 . S
C3480 C3479 1.523 . S
H3481 C3456 0.950 . S
H3482 C3458 0.950 . S
H3483 C3459 0.949 . S
H3484 C3461 0.950 . S
H3485 C3463 0.950 . S
C3486 C3487 1.349 . S
C3486 C3488 1.327 . S
C3486 H3511 0.950 . S
C3487 C3486 1.349 . S
C3487 C3503 1.349 . S
C3488 C3486 1.327 . S
C3488 C3507 1.429 . S
C3488 H3512 0.950 . S
C3489 C3506 1.574 . S
C3489 C3508 1.368 . S
C3489 H3513 0.949 . S
H3490 C3494 0.949 . S
C3491 C3492 1.349 . S
C3491 C3493 1.327 . S
C3491 H3514 0.950 . S
C3492 C3491 1.349 . S
C3492 C3504 1.349 . S
C3493 C3491 1.327 . S
C3493 C3509 1.429 . S
C3493 H3515 0.950 . S
C3494 H3490 0.949 . S
C3494 C3502 1.574 . S
C3494 C3510 1.368 . S
H3495 C3503 0.950 . S
H3496 C3501 0.950 . S
H3497 C3502 0.949 . S
H3498 C3504 0.950 . S
H3499 C3505 0.950 . S
H3500 C3506 0.949 . S
C3501 H3496 0.950 . S
C3501 C3503 1.327 . S
C3501 C3507 1.429 . S
C3502 C3494 1.574 . S
C3502 H3497 0.949 . S
C3502 C3508 1.368 . S
C3503 C3487 1.349 . S
C3503 H3495 0.950 . S
C3503 C3501 1.327 . S
C3504 C3492 1.349 . S
C3504 H3498 0.950 . S
C3504 C3505 1.327 . S
C3505 H3499 0.950 . S
C3505 C3504 1.327 . S
C3505 C3509 1.429 . S
C3506 C3489 1.574 . S
C3506 H3500 0.949 . S
C3506 C3510 1.368 . S
C3507 C3488 1.429 . S
C3507 C3501 1.429 . S
C3507 C3508 1.523 . S
C3508 C3489 1.368 . S
C3508 C3502 1.368 . S
C3508 C3507 1.523 . S
C3509 C3493 1.429 . S
C3509 C3505 1.429 . S
C3509 C3510 1.523 . S
C3510 C3494 1.368 . S
C3510 C3506 1.368 . S
C3510 C3509 1.523 . S
H3511 C3486 0.950 . S
H3512 C3488 0.950 . S
H3513 C3489 0.949 . S
H3514 C3491 0.950 . S
H3515 C3493 0.950 . S
C3516 C3517 1.349 . S
C3516 C3518 1.327 . S
C3516 H3541 0.950 . S
C3517 C3516 1.349 . S
C3517 C3533 1.349 . S
C3518 C3516 1.327 . S
C3518 C3537 1.429 . S
C3518 H3542 0.950 . S
C3519 C3536 1.574 . S
C3519 C3538 1.368 . S
C3519 H3543 0.949 . S
H3520 C3524 0.949 . S
C3521 C3522 1.349 . S
C3521 C3523 1.327 . S
C3521 H3544 0.950 . S
C3522 C3521 1.349 . S
C3522 C3534 1.349 . S
C3523 C3521 1.327 . S
C3523 C3539 1.429 . S
C3523 H3545 0.950 . S
C3524 H3520 0.949 . S
C3524 C3532 1.574 . S
C3524 C3540 1.368 . S
H3525 C3533 0.950 . S
H3526 C3531 0.950 . S
H3527 C3532 0.949 . S
H3528 C3534 0.950 . S
H3529 C3535 0.950 . S
H3530 C3536 0.949 . S
C3531 H3526 0.950 . S
C3531 C3533 1.327 . S
C3531 C3537 1.429 . S
C3532 C3524 1.574 . S
C3532 H3527 0.949 . S
C3532 C3538 1.368 . S
C3533 C3517 1.349 . S
C3533 H3525 0.950 . S
C3533 C3531 1.327 . S
C3534 C3522 1.349 . S
C3534 H3528 0.950 . S
C3534 C3535 1.327 . S
C3535 H3529 0.950 . S
C3535 C3534 1.327 . S
C3535 C3539 1.429 . S
C3536 C3519 1.574 . S
C3536 H3530 0.949 . S
C3536 C3540 1.368 . S
C3537 C3518 1.429 . S
C3537 C3531 1.429 . S
C3537 C3538 1.523 . S
C3538 C3519 1.368 . S
C3538 C3532 1.368 . S
C3538 C3537 1.523 . S
C3539 C3523 1.429 . S
C3539 C3535 1.429 . S
C3539 C3540 1.523 . S
C3540 C3524 1.368 . S
C3540 C3536 1.368 . S
C3540 C3539 1.523 . S
H3541 C3516 0.950 . S
H3542 C3518 0.950 . S
H3543 C3519 0.949 . S
H3544 C3521 0.950 . S
H3545 C3523 0.950 . S
C3546 C3547 1.349 . S
C3546 C3548 1.327 . S
C3546 H3571 0.950 . S
C3547 C3546 1.349 . S
C3547 C3563 1.349 . S
C3548 C3546 1.327 . S
C3548 C3567 1.429 . S
C3548 H3572 0.950 . S
C3549 C3566 1.574 . S
C3549 C3568 1.368 . S
C3549 H3573 0.949 . S
H3550 C3554 0.949 . S
C3551 C3552 1.349 . S
C3551 C3553 1.327 . S
C3551 H3574 0.950 . S
C3552 C3551 1.349 . S
C3552 C3564 1.349 . S
C3553 C3551 1.327 . S
C3553 C3569 1.429 . S
C3553 H3575 0.950 . S
C3554 H3550 0.949 . S
C3554 C3562 1.574 . S
C3554 C3570 1.368 . S
H3555 C3563 0.950 . S
H3556 C3561 0.950 . S
H3557 C3562 0.949 . S
H3558 C3564 0.950 . S
H3559 C3565 0.950 . S
H3560 C3566 0.949 . S
C3561 H3556 0.950 . S
C3561 C3563 1.327 . S
C3561 C3567 1.429 . S
C3562 C3554 1.574 . S
C3562 H3557 0.949 . S
C3562 C3568 1.368 . S
C3563 C3547 1.349 . S
C3563 H3555 0.950 . S
C3563 C3561 1.327 . S
C3564 C3552 1.349 . S
C3564 H3558 0.950 . S
C3564 C3565 1.327 . S
C3565 H3559 0.950 . S
C3565 C3564 1.327 . S
C3565 C3569 1.429 . S
C3566 C3549 1.574 . S
C3566 H3560 0.949 . S
C3566 C3570 1.368 . S
C3567 C3548 1.429 . S
C3567 C3561 1.429 . S
C3567 C3568 1.523 . S
C3568 C3549 1.368 . S
C3568 C3562 1.368 . S
C3568 C3567 1.523 . S
C3569 C3553 1.429 . S
C3569 C3565 1.429 . S
C3569 C3570 1.523 . S
C3570 C3554 1.368 . S
C3570 C3566 1.368 . S
C3570 C3569 1.523 . S
H3571 C3546 0.950 . S
H3572 C3548 0.950 . S
H3573 C3549 0.949 . S
H3574 C3551 0.950 . S
H3575 C3553 0.950 . S
C3576 C3577 1.349 . S
C3576 C3578 1.327 . S
C3576 H3601 0.950 . S
C3577 C3576 1.349 . S
C3577 C3593 1.349 . S
C3578 C3576 1.327 . S
C3578 C3597 1.429 . S
C3578 H3602 0.950 . S
C3579 C3596 1.574 . S
C3579 C3598 1.368 . S
C3579 H3603 0.949 . S
H3580 C3584 0.949 . S
C3581 C3582 1.349 . S
C3581 C3583 1.327 . S
C3581 H3604 0.950 . S
C3582 C3581 1.349 . S
C3582 C3594 1.349 . S
C3583 C3581 1.327 . S
C3583 C3599 1.429 . S
C3583 H3605 0.950 . S
C3584 H3580 0.949 . S
C3584 C3592 1.574 . S
C3584 C3600 1.368 . S
H3585 C3593 0.950 . S
H3586 C3591 0.950 . S
H3587 C3592 0.949 . S
H3588 C3594 0.950 . S
H3589 C3595 0.950 . S
H3590 C3596 0.949 . S
C3591 H3586 0.950 . S
C3591 C3593 1.327 . S
C3591 C3597 1.429 . S
C3592 C3584 1.574 . S
C3592 H3587 0.949 . S
C3592 C3598 1.368 . S
C3593 C3577 1.349 . S
C3593 H3585 0.950 . S
C3593 C3591 1.327 . S
C3594 C3582 1.349 . S
C3594 H3588 0.950 . S
C3594 C3595 1.327 . S
C3595 H3589 0.950 . S
C3595 C3594 1.327 . S
C3595 C3599 1.429 . S
C3596 C3579 1.574 . S
C3596 H3590 0.949 . S
C3596 C3600 1.368 . S
C3597 C3578 1.429 . S
C3597 C3591 1.429 . S
C3597 C3598 1.523 . S
C3598 C3579 1.368 . S
C3598 C3592 1.368 . S
C3598 C3597 1.523 . S
C3599 C3583 1.429 . S
C3599 C3595 1.429 . S
C3599 C3600 1.523 . S
C3600 C3584 1.368 . S
C3600 C3596 1.368 . S
C3600 C3599 1.523 . S
H3601 C3576 0.950 . S
H3602 C3578 0.950 . S
H3603 C3579 0.949 . S
H3604 C3581 0.950 . S
H3605 C3583 0.950 . S
C3606 C3607 1.349 . S
C3606 C3608 1.327 . S
C3606 H3631 0.950 . S
C3607 C3606 1.349 . S
C3607 C3623 1.349 . S
C3608 C3606 1.327 . S
C3608 C3627 1.429 . S
C3608 H3632 0.950 . S
C3609 C3626 1.574 . S
C3609 C3628 1.368 . S
C3609 H3633 0.949 . S
H3610 C3614 0.949 . S
C3611 C3612 1.349 . S
C3611 C3613 1.327 . S
C3611 H3634 0.950 . S
C3612 C3611 1.349 . S
C3612 C3624 1.349 . S
C3613 C3611 1.327 . S
C3613 C3629 1.429 . S
C3613 H3635 0.950 . S
C3614 H3610 0.949 . S
C3614 C3622 1.574 . S
C3614 C3630 1.368 . S
H3615 C3623 0.950 . S
H3616 C3621 0.950 . S
H3617 C3622 0.949 . S
H3618 C3624 0.950 . S
H3619 C3625 0.950 . S
H3620 C3626 0.949 . S
C3621 H3616 0.950 . S
C3621 C3623 1.327 . S
C3621 C3627 1.429 . S
C3622 C3614 1.574 . S
C3622 H3617 0.949 . S
C3622 C3628 1.368 . S
C3623 C3607 1.349 . S
C3623 H3615 0.950 . S
C3623 C3621 1.327 . S
C3624 C3612 1.349 . S
C3624 H3618 0.950 . S
C3624 C3625 1.327 . S
C3625 H3619 0.950 . S
C3625 C3624 1.327 . S
C3625 C3629 1.429 . S
C3626 C3609 1.574 . S
C3626 H3620 0.949 . S
C3626 C3630 1.368 . S
C3627 C3608 1.429 . S
C3627 C3621 1.429 . S
C3627 C3628 1.523 . S
C3628 C3609 1.368 . S
C3628 C3622 1.368 . S
C3628 C3627 1.523 . S
C3629 C3613 1.429 . S
C3629 C3625 1.429 . S
C3629 C3630 1.523 . S
C3630 C3614 1.368 . S
C3630 C3626 1.368 . S
C3630 C3629 1.523 . S
H3631 C3606 0.950 . S
H3632 C3608 0.950 . S
H3633 C3609 0.949 . S
H3634 C3611 0.950 . S
H3635 C3613 0.950 . S
C3636 C3637 1.349 . S
C3636 C3638 1.327 . S
C3636 H3661 0.950 1_565 S
C3637 C3636 1.349 . S
C3637 C3653 1.349 . S
C3638 C3636 1.327 . S
C3638 C3657 1.429 . S
C3638 H3662 0.950 . S
C3639 C3656 1.574 . S
C3639 C3658 1.368 . S
C3639 H3663 0.949 . S
H3640 C3644 0.949 . S
C3641 C3642 1.349 . S
C3641 C3643 1.327 . S
C3641 H3664 0.950 . S
C3642 C3641 1.349 . S
C3642 C3654 1.349 . S
C3643 C3641 1.327 . S
C3643 C3659 1.429 . S
C3643 H3665 0.950 . S
C3644 H3640 0.949 . S
C3644 C3652 1.574 . S
C3644 C3660 1.368 . S
H3645 C3653 0.950 . S
H3646 C3651 0.950 . S
H3647 C3652 0.949 . S
H3648 C3654 0.950 . S
H3649 C3655 0.950 . S
H3650 C3656 0.949 . S
C3651 H3646 0.950 . S
C3651 C3653 1.327 . S
C3651 C3657 1.429 . S
C3652 C3644 1.574 . S
C3652 H3647 0.949 . S
C3652 C3658 1.368 . S
C3653 C3637 1.349 . S
C3653 H3645 0.950 . S
C3653 C3651 1.327 . S
C3654 C3642 1.349 . S
C3654 H3648 0.950 . S
C3654 C3655 1.327 . S
C3655 H3649 0.950 . S
C3655 C3654 1.327 . S
C3655 C3659 1.429 . S
C3656 C3639 1.574 . S
C3656 H3650 0.949 . S
C3656 C3660 1.368 . S
C3657 C3638 1.429 . S
C3657 C3651 1.429 . S
C3657 C3658 1.523 . S
C3658 C3639 1.368 . S
C3658 C3652 1.368 . S
C3658 C3657 1.523 . S
C3659 C3643 1.429 . S
C3659 C3655 1.429 . S
C3659 C3660 1.523 . S
C3660 C3644 1.368 . S
C3660 C3656 1.368 . S
C3660 C3659 1.523 . S
H3661 C3636 0.950 1_545 S
H3662 C3638 0.950 . S
H3663 C3639 0.949 . S
H3664 C3641 0.950 . S
H3665 C3643 0.950 . S
C3666 C3667 1.349 1_554 S
C3666 C3668 1.327 . S
C3666 H3691 0.950 . S
C3667 C3666 1.349 1_556 S
C3667 C3683 1.349 . S
C3668 C3666 1.327 . S
C3668 C3687 1.460 . S
C3668 H3692 0.950 . S
C3669 C3686 1.574 . S
C3669 C3688 1.368 1_556 S
C3669 H3693 0.949 . S
H3670 C3674 0.949 . S
C3671 C3672 1.349 1_556 S
C3671 C3673 1.327 . S
C3671 H3694 0.950 . S
C3672 C3671 1.349 1_554 S
C3672 C3684 1.349 . S
C3673 C3671 1.327 . S
C3673 C3689 1.429 1_556 S
C3673 H3695 0.950 . S
C3674 H3670 0.949 . S
C3674 C3682 1.574 . S
C3674 C3690 1.368 . S
H3675 C3683 0.950 . S
H3676 C3681 0.950 . S
H3677 C3682 0.949 . S
H3678 C3684 0.950 . S
H3679 C3685 0.909 1_565 S
H3680 C3686 0.949 1_545 S
C3681 H3676 0.950 . S
C3681 C3683 1.327 . S
C3681 C3687 1.402 1_556 S
C3682 C3674 1.574 . S
C3682 H3677 0.949 . S
C3682 C3688 1.368 . S
C3683 C3667 1.349 . S
C3683 H3675 0.950 . S
C3683 C3681 1.327 . S
C3684 C3672 1.349 . S
C3684 H3678 0.950 . S
C3684 C3685 1.353 . S
C3685 H3679 0.909 1_545 S
C3685 C3684 1.353 . S
C3685 C3689 1.446 . S
C3686 C3669 1.574 . S
C3686 H3680 0.949 1_565 S
C3686 C3690 1.368 1_556 S
C3687 C3668 1.460 . S
C3687 C3681 1.402 1_554 S
C3687 C3688 1.519 . S
C3688 C3669 1.368 1_554 S
C3688 C3682 1.368 . S
C3688 C3687 1.519 . S
C3689 C3673 1.429 1_554 S
C3689 C3685 1.446 . S
C3689 C3690 1.523 1_545 S
C3690 C3674 1.368 . S
C3690 C3686 1.368 1_554 S
C3690 C3689 1.523 1_565 S
H3691 C3666 0.950 . S
H3692 C3668 0.950 . S
H3693 C3669 0.949 . S
H3694 C3671 0.950 . S
H3695 C3673 0.950 . S
C3696 C3697 1.349 . S
C3696 C3698 1.327 . S
C3696 H3721 0.950 . S
C3697 C3696 1.349 . S
C3697 C3713 1.349 . S
C3698 C3696 1.327 . S
C3698 C3717 1.429 . S
C3698 H3722 0.950 . S
C3699 C3716 1.574 . S
C3699 C3718 1.368 . S
C3699 H3723 0.949 . S
H3700 C3704 0.949 . S
C3701 C3702 1.349 . S
C3701 C3703 1.327 . S
C3701 H3724 0.950 . S
C3702 C3701 1.349 . S
C3702 C3714 1.349 . S
C3703 C3701 1.327 . S
C3703 C3719 1.429 . S
C3703 H3725 0.950 . S
C3704 H3700 0.949 . S
C3704 C3712 1.574 . S
C3704 C3720 1.368 . S
H3705 C3713 0.950 . S
H3706 C3711 0.950 . S
H3707 C3712 0.949 . S
H3708 C3714 0.950 . S
H3709 C3715 0.950 . S
H3710 C3716 0.949 . S
C3711 H3706 0.950 . S
C3711 C3713 1.327 . S
C3711 C3717 1.429 . S
C3712 C3704 1.574 . S
C3712 H3707 0.949 . S
C3712 C3718 1.368 . S
C3713 C3697 1.349 . S
C3713 H3705 0.950 . S
C3713 C3711 1.327 . S
C3714 C3702 1.349 . S
C3714 H3708 0.950 . S
C3714 C3715 1.327 . S
C3715 H3709 0.950 . S
C3715 C3714 1.327 . S
C3715 C3719 1.429 . S
C3716 C3699 1.574 . S
C3716 H3710 0.949 . S
C3716 C3720 1.368 . S
C3717 C3698 1.429 . S
C3717 C3711 1.429 . S
C3717 C3718 1.523 . S
C3718 C3699 1.368 . S
C3718 C3712 1.368 . S
C3718 C3717 1.523 . S
C3719 C3703 1.429 . S
C3719 C3715 1.429 . S
C3719 C3720 1.523 . S
C3720 C3704 1.368 . S
C3720 C3716 1.368 . S
C3720 C3719 1.523 . S
H3721 C3696 0.950 . S
H3722 C3698 0.950 . S
H3723 C3699 0.949 . S
H3724 C3701 0.950 . S
H3725 C3703 0.950 . S
C3726 C3727 1.349 . S
C3726 C3728 1.327 . S
C3726 H3751 0.950 1_554 S
C3727 C3726 1.349 . S
C3727 C3743 1.349 . S
C3728 C3726 1.327 . S
C3728 C3747 1.429 . S
C3728 H3752 0.954 1_554 S
C3729 C3746 1.574 . S
C3729 C3748 1.368 . S
C3729 H3753 0.949 . S
H3730 C3734 0.949 . S
C3731 C3732 1.349 . S
C3731 C3733 1.327 . S
C3731 H3754 0.950 . S
C3732 C3731 1.349 . S
C3732 C3744 1.349 . S
C3733 C3731 1.327 . S
C3733 C3749 1.429 . S
C3733 H3755 0.950 . S
C3734 H3730 0.949 . S
C3734 C3742 1.574 . S
C3734 C3750 1.368 . S
H3735 C3743 0.950 . S
H3736 C3741 0.950 . S
H3737 C3742 0.949 . S
H3738 C3744 0.950 . S
H3739 C3745 0.950 . S
H3740 C3746 0.949 . S
C3741 H3736 0.950 . S
C3741 C3743 1.327 . S
C3741 C3747 1.429 . S
C3742 C3734 1.574 . S
C3742 H3737 0.949 . S
C3742 C3748 1.368 . S
C3743 C3727 1.349 . S
C3743 H3735 0.950 . S
C3743 C3741 1.327 . S
C3744 C3732 1.349 . S
C3744 H3738 0.950 . S
C3744 C3745 1.327 . S
C3745 H3739 0.950 . S
C3745 C3744 1.327 . S
C3745 C3749 1.429 . S
C3746 C3729 1.574 . S
C3746 H3740 0.949 . S
C3746 C3750 1.368 . S
C3747 C3728 1.429 . S
C3747 C3741 1.429 . S
C3747 C3748 1.523 . S
C3748 C3729 1.368 . S
C3748 C3742 1.368 . S
C3748 C3747 1.523 . S
C3749 C3733 1.429 . S
C3749 C3745 1.429 . S
C3749 C3750 1.523 . S
C3750 C3734 1.368 . S
C3750 C3746 1.368 . S
C3750 C3749 1.523 . S
H3751 C3726 0.950 1_556 S
H3752 C3728 0.954 1_556 S
H3753 C3729 0.949 . S
H3754 C3731 0.950 . S
H3755 C3733 0.950 . S
C3756 C3757 1.349 . S
C3756 C3758 1.327 . S
C3756 H3781 0.950 . S
C3757 C3756 1.349 . S
C3757 C3773 1.349 . S
C3758 C3756 1.327 . S
C3758 C3777 1.429 . S
C3758 H3782 0.950 . S
C3759 C3776 1.574 . S
C3759 C3778 1.368 . S
C3759 H3783 0.949 . S
H3760 C3764 0.949 . S
C3761 C3762 1.349 . S
C3761 C3763 1.327 . S
C3761 H3784 0.950 . S
C3762 C3761 1.349 . S
C3762 C3774 1.349 . S
C3763 C3761 1.327 . S
C3763 C3779 1.429 . S
C3763 H3785 0.950 . S
C3764 H3760 0.949 . S
C3764 C3772 1.574 . S
C3764 C3780 1.368 . S
H3765 C3773 0.950 . S
H3766 C3771 0.950 . S
H3767 C3772 0.949 . S
H3768 C3774 0.950 . S
H3769 C3775 0.950 . S
H3770 C3776 0.949 . S
C3771 H3766 0.950 . S
C3771 C3773 1.327 . S
C3771 C3777 1.429 . S
C3772 C3764 1.574 . S
C3772 H3767 0.949 . S
C3772 C3778 1.368 . S
C3773 C3757 1.349 . S
C3773 H3765 0.950 . S
C3773 C3771 1.327 . S
C3774 C3762 1.349 . S
C3774 H3768 0.950 . S
C3774 C3775 1.327 . S
C3775 H3769 0.950 . S
C3775 C3774 1.327 . S
C3775 C3779 1.429 . S
C3776 C3759 1.574 . S
C3776 H3770 0.949 . S
C3776 C3780 1.368 . S
C3777 C3758 1.429 . S
C3777 C3771 1.429 . S
C3777 C3778 1.523 . S
C3778 C3759 1.368 . S
C3778 C3772 1.368 . S
C3778 C3777 1.523 . S
C3779 C3763 1.429 . S
C3779 C3775 1.429 . S
C3779 C3780 1.523 . S
C3780 C3764 1.368 . S
C3780 C3776 1.368 . S
C3780 C3779 1.523 . S
H3781 C3756 0.950 . S
H3782 C3758 0.950 . S
H3783 C3759 0.949 . S
H3784 C3761 0.950 . S
H3785 C3763 0.950 . S
C3786 C3787 1.349 . S
C3786 C3788 1.327 . S
C3786 H3811 0.950 . S
C3787 C3786 1.349 . S
C3787 C3803 1.349 . S
C3788 C3786 1.327 . S
C3788 C3807 1.429 . S
C3788 H3812 0.950 . S
C3789 C3806 1.574 . S
C3789 C3808 1.368 . S
C3789 H3813 0.949 . S
H3790 C3794 0.949 . S
C3791 C3792 1.349 . S
C3791 C3793 1.327 . S
C3791 H3814 0.950 . S
C3792 C3791 1.349 . S
C3792 C3804 1.349 . S
C3793 C3791 1.327 . S
C3793 C3809 1.429 . S
C3793 H3815 0.950 . S
C3794 H3790 0.949 . S
C3794 C3802 1.574 . S
C3794 C3810 1.368 . S
H3795 C3803 0.950 . S
H3796 C3801 0.950 . S
H3797 C3802 0.949 . S
H3798 C3804 0.950 . S
H3799 C3805 0.950 . S
H3800 C3806 0.949 . S
C3801 H3796 0.950 . S
C3801 C3803 1.327 . S
C3801 C3807 1.429 . S
C3802 C3794 1.574 . S
C3802 H3797 0.949 . S
C3802 C3808 1.368 . S
C3803 C3787 1.349 . S
C3803 H3795 0.950 . S
C3803 C3801 1.327 . S
C3804 C3792 1.349 . S
C3804 H3798 0.950 . S
C3804 C3805 1.327 . S
C3805 H3799 0.950 . S
C3805 C3804 1.327 . S
C3805 C3809 1.429 . S
C3806 C3789 1.574 . S
C3806 H3800 0.949 . S
C3806 C3810 1.368 . S
C3807 C3788 1.429 . S
C3807 C3801 1.429 . S
C3807 C3808 1.523 . S
C3808 C3789 1.368 . S
C3808 C3802 1.368 . S
C3808 C3807 1.523 . S
C3809 C3793 1.429 . S
C3809 C3805 1.429 . S
C3809 C3810 1.523 . S
C3810 C3794 1.368 . S
C3810 C3806 1.368 . S
C3810 C3809 1.523 . S
H3811 C3786 0.950 . S
H3812 C3788 0.950 . S
H3813 C3789 0.949 . S
H3814 C3791 0.950 . S
H3815 C3793 0.950 . S
C3816 C3817 1.349 . S
C3816 C3818 1.327 . S
C3816 H3841 0.950 . S
C3817 C3816 1.349 . S
C3817 C3833 1.349 . S
C3818 C3816 1.327 . S
C3818 C3837 1.429 . S
C3818 H3842 0.950 . S
C3819 C3836 1.574 . S
C3819 C3838 1.368 . S
C3819 H3843 0.949 . S
H3820 C3824 0.949 . S
C3821 C3822 1.349 . S
C3821 C3823 1.327 . S
C3821 H3844 0.950 . S
C3822 C3821 1.349 . S
C3822 C3834 1.349 . S
C3823 C3821 1.327 . S
C3823 C3839 1.429 . S
C3823 H3845 0.950 . S
C3824 H3820 0.949 . S
C3824 C3832 1.574 . S
C3824 C3840 1.368 . S
H3825 C3833 0.950 . S
H3826 C3831 0.950 . S
H3827 C3832 0.949 . S
H3828 C3834 0.950 . S
H3829 C3835 0.950 . S
H3830 C3836 0.949 . S
C3831 H3826 0.950 . S
C3831 C3833 1.327 . S
C3831 C3837 1.429 . S
C3832 C3824 1.574 . S
C3832 H3827 0.949 . S
C3832 C3838 1.368 . S
C3833 C3817 1.349 . S
C3833 H3825 0.950 . S
C3833 C3831 1.327 . S
C3834 C3822 1.349 . S
C3834 H3828 0.950 . S
C3834 C3835 1.327 . S
C3835 H3829 0.950 . S
C3835 C3834 1.327 . S
C3835 C3839 1.429 . S
C3836 C3819 1.574 . S
C3836 H3830 0.949 . S
C3836 C3840 1.368 . S
C3837 C3818 1.429 . S
C3837 C3831 1.429 . S
C3837 C3838 1.523 . S
C3838 C3819 1.368 . S
C3838 C3832 1.368 . S
C3838 C3837 1.523 . S
C3839 C3823 1.429 . S
C3839 C3835 1.429 . S
C3839 C3840 1.523 . S
C3840 C3824 1.368 . S
C3840 C3836 1.368 . S
C3840 C3839 1.523 . S
H3841 C3816 0.950 . S
H3842 C3818 0.950 . S
H3843 C3819 0.949 . S
H3844 C3821 0.950 . S
H3845 C3823 0.950 . S
C3846 C3847 1.349 . S
C3846 C3848 1.327 . S
C3846 H3871 0.950 . S
C3847 C3846 1.349 . S
C3847 C3863 1.349 . S
C3848 C3846 1.327 . S
C3848 C3867 1.429 . S
C3848 H3872 0.950 . S
C3849 C3866 1.574 . S
C3849 C3868 1.368 . S
C3849 H3873 0.949 . S
H3850 C3854 0.949 . S
C3851 C3852 1.349 . S
C3851 C3853 1.327 . S
C3851 H3874 0.950 . S
C3852 C3851 1.349 . S
C3852 C3864 1.349 . S
C3853 C3851 1.327 . S
C3853 C3869 1.429 . S
C3853 H3875 0.950 . S
C3854 H3850 0.949 . S
C3854 C3862 1.574 . S
C3854 C3870 1.368 . S
H3855 C3863 0.950 . S
H3856 C3861 0.950 . S
H3857 C3862 0.949 . S
H3858 C3864 0.950 . S
H3859 C3865 0.950 . S
H3860 C3866 0.949 . S
C3861 H3856 0.950 . S
C3861 C3863 1.327 . S
C3861 C3867 1.429 . S
C3862 C3854 1.574 . S
C3862 H3857 0.949 . S
C3862 C3868 1.368 . S
C3863 C3847 1.349 . S
C3863 H3855 0.950 . S
C3863 C3861 1.327 . S
C3864 C3852 1.349 . S
C3864 H3858 0.950 . S
C3864 C3865 1.327 . S
C3865 H3859 0.950 . S
C3865 C3864 1.327 . S
C3865 C3869 1.429 . S
C3866 C3849 1.574 . S
C3866 H3860 0.949 . S
C3866 C3870 1.368 . S
C3867 C3848 1.429 . S
C3867 C3861 1.429 . S
C3867 C3868 1.523 . S
C3868 C3849 1.368 . S
C3868 C3862 1.368 . S
C3868 C3867 1.523 . S
C3869 C3853 1.429 . S
C3869 C3865 1.429 . S
C3869 C3870 1.523 . S
C3870 C3854 1.368 . S
C3870 C3866 1.368 . S
C3870 C3869 1.523 . S
H3871 C3846 0.950 . S
H3872 C3848 0.950 . S
H3873 C3849 0.949 . S
H3874 C3851 0.950 . S
H3875 C3853 0.950 . S
C3876 C3877 1.349 . S
C3876 C3878 1.327 . S
C3876 H3901 0.950 . S
C3877 C3876 1.349 . S
C3877 C3893 1.349 . S
C3878 C3876 1.327 . S
C3878 C3897 1.429 . S
C3878 H3902 0.950 . S
C3879 C3896 1.574 . S
C3879 C3898 1.368 . S
C3879 H3903 0.949 . S
H3880 C3884 0.949 . S
C3881 C3882 1.349 . S
C3881 C3883 1.327 . S
C3881 H3904 0.950 . S
C3882 C3881 1.349 . S
C3882 C3894 1.349 . S
C3883 C3881 1.327 . S
C3883 C3899 1.429 . S
C3883 H3905 0.950 . S
C3884 H3880 0.949 . S
C3884 C3892 1.574 . S
C3884 C3900 1.368 . S
H3885 C3893 0.950 . S
H3886 C3891 0.950 . S
H3887 C3892 0.949 . S
H3888 C3894 0.950 . S
H3889 C3895 0.950 . S
H3890 C3896 0.949 . S
C3891 H3886 0.950 . S
C3891 C3893 1.327 . S
C3891 C3897 1.429 . S
C3892 C3884 1.574 . S
C3892 H3887 0.949 . S
C3892 C3898 1.368 . S
C3893 C3877 1.349 . S
C3893 H3885 0.950 . S
C3893 C3891 1.327 . S
C3894 C3882 1.349 . S
C3894 H3888 0.950 . S
C3894 C3895 1.327 . S
C3895 H3889 0.950 . S
C3895 C3894 1.327 . S
C3895 C3899 1.429 . S
C3896 C3879 1.574 . S
C3896 H3890 0.949 . S
C3896 C3900 1.368 . S
C3897 C3878 1.429 . S
C3897 C3891 1.429 . S
C3897 C3898 1.523 . S
C3898 C3879 1.368 . S
C3898 C3892 1.368 . S
C3898 C3897 1.523 . S
C3899 C3883 1.429 . S
C3899 C3895 1.429 . S
C3899 C3900 1.523 . S
C3900 C3884 1.368 . S
C3900 C3896 1.368 . S
C3900 C3899 1.523 . S
H3901 C3876 0.950 . S
H3902 C3878 0.950 . S
H3903 C3879 0.949 . S
H3904 C3881 0.950 . S
H3905 C3883 0.950 . S
C3906 C3907 1.349 . S
C3906 C3908 1.327 . S
C3906 H3931 0.950 . S
C3907 C3906 1.349 . S
C3907 C3923 1.349 . S
C3908 C3906 1.327 . S
C3908 C3927 1.429 . S
C3908 H3932 0.950 . S
C3909 C3926 1.574 . S
C3909 C3928 1.368 . S
C3909 H3933 0.949 . S
H3910 C3914 0.949 . S
C3911 C3912 1.349 . S
C3911 C3913 1.327 . S
C3911 H3934 0.950 . S
C3912 C3911 1.349 . S
C3912 C3924 1.349 . S
C3913 C3911 1.327 . S
C3913 C3929 1.429 . S
C3913 H3935 0.950 . S
C3914 H3910 0.949 . S
C3914 C3922 1.574 . S
C3914 C3930 1.368 . S
H3915 C3923 0.950 . S
H3916 C3921 0.950 . S
H3917 C3922 0.949 . S
H3918 C3924 0.950 . S
H3919 C3925 0.950 . S
H3920 C3926 0.949 . S
C3921 H3916 0.950 . S
C3921 C3923 1.327 . S
C3921 C3927 1.429 . S
C3922 C3914 1.574 . S
C3922 H3917 0.949 . S
C3922 C3928 1.368 . S
C3923 C3907 1.349 . S
C3923 H3915 0.950 . S
C3923 C3921 1.327 . S
C3924 C3912 1.349 . S
C3924 H3918 0.950 . S
C3924 C3925 1.327 . S
C3925 H3919 0.950 . S
C3925 C3924 1.327 . S
C3925 C3929 1.429 . S
C3926 C3909 1.574 . S
C3926 H3920 0.949 . S
C3926 C3930 1.368 . S
C3927 C3908 1.429 . S
C3927 C3921 1.429 . S
C3927 C3928 1.523 . S
C3928 C3909 1.368 . S
C3928 C3922 1.368 . S
C3928 C3927 1.523 . S
C3929 C3913 1.429 . S
C3929 C3925 1.429 . S
C3929 C3930 1.523 . S
C3930 C3914 1.368 . S
C3930 C3926 1.368 . S
C3930 C3929 1.523 . S
H3931 C3906 0.950 . S
H3932 C3908 0.950 . S
H3933 C3909 0.949 . S
H3934 C3911 0.950 . S
H3935 C3913 0.950 . S
C3936 C3937 1.349 . S
C3936 C3938 1.327 . S
C3936 H3961 0.950 . S
C3937 C3936 1.349 . S
C3937 C3953 1.349 . S
C3938 C3936 1.327 . S
C3938 C3957 1.429 . S
C3938 H3962 0.950 . S
C3939 C3956 1.574 . S
C3939 C3958 1.368 . S
C3939 H3963 0.949 . S
H3940 C3944 0.949 . S
C3941 C3942 1.349 . S
C3941 C3943 1.327 . S
C3941 H3964 0.950 . S
C3942 C3941 1.349 . S
C3942 C3954 1.349 . S
C3943 C3941 1.327 . S
C3943 C3959 1.429 . S
C3943 H3965 0.950 . S
C3944 H3940 0.949 . S
C3944 C3952 1.574 . S
C3944 C3960 1.368 . S
H3945 C3953 0.950 . S
H3946 C3951 0.950 . S
H3947 C3952 0.949 . S
H3948 C3954 0.950 . S
H3949 C3955 0.950 . S
H3950 C3956 0.949 . S
C3951 H3946 0.950 . S
C3951 C3953 1.327 . S
C3951 C3957 1.429 . S
C3952 C3944 1.574 . S
C3952 H3947 0.949 . S
C3952 C3958 1.368 . S
C3953 C3937 1.349 . S
C3953 H3945 0.950 . S
C3953 C3951 1.327 . S
C3954 C3942 1.349 . S
C3954 H3948 0.950 . S
C3954 C3955 1.327 . S
C3955 H3949 0.950 . S
C3955 C3954 1.327 . S
C3955 C3959 1.429 . S
C3956 C3939 1.574 . S
C3956 H3950 0.949 . S
C3956 C3960 1.368 . S
C3957 C3938 1.429 . S
C3957 C3951 1.429 . S
C3957 C3958 1.523 . S
C3958 C3939 1.368 . S
C3958 C3952 1.368 . S
C3958 C3957 1.523 . S
C3959 C3943 1.429 . S
C3959 C3955 1.429 . S
C3959 C3960 1.523 . S
C3960 C3944 1.368 . S
C3960 C3956 1.368 . S
C3960 C3959 1.523 . S
H3961 C3936 0.950 . S
H3962 C3938 0.950 . S
H3963 C3939 0.949 . S
H3964 C3941 0.950 . S
H3965 C3943 0.950 . S
C3966 C3967 1.349 . S
C3966 C3968 1.327 . S
C3966 H3991 0.950 . S
C3967 C3966 1.349 . S
C3967 C3983 1.349 . S
C3968 C3966 1.327 . S
C3968 C3987 1.429 . S
C3968 H3992 0.950 . S
C3969 C3986 1.574 . S
C3969 C3988 1.368 . S
C3969 H3993 0.949 . S
H3970 C3974 0.949 . S
C3971 C3972 1.349 . S
C3971 C3973 1.327 . S
C3971 H3994 0.950 . S
C3972 C3971 1.349 . S
C3972 C3984 1.349 . S
C3973 C3971 1.327 . S
C3973 C3989 1.429 . S
C3973 H3995 0.950 . S
C3974 H3970 0.949 . S
C3974 C3982 1.574 . S
C3974 C3990 1.368 . S
H3975 C3983 0.950 . S
H3976 C3981 0.950 . S
H3977 C3982 0.949 . S
H3978 C3984 0.950 . S
H3979 C3985 0.950 . S
H3980 C3986 0.949 . S
C3981 H3976 0.950 . S
C3981 C3983 1.327 . S
C3981 C3987 1.429 . S
C3982 C3974 1.574 . S
C3982 H3977 0.949 . S
C3982 C3988 1.368 . S
C3983 C3967 1.349 . S
C3983 H3975 0.950 . S
C3983 C3981 1.327 . S
C3984 C3972 1.349 . S
C3984 H3978 0.950 . S
C3984 C3985 1.327 . S
C3985 H3979 0.950 . S
C3985 C3984 1.327 . S
C3985 C3989 1.429 . S
C3986 C3969 1.574 . S
C3986 H3980 0.949 . S
C3986 C3990 1.368 . S
C3987 C3968 1.429 . S
C3987 C3981 1.429 . S
C3987 C3988 1.523 . S
C3988 C3969 1.368 . S
C3988 C3982 1.368 . S
C3988 C3987 1.523 . S
C3989 C3973 1.429 . S
C3989 C3985 1.429 . S
C3989 C3990 1.523 . S
C3990 C3974 1.368 . S
C3990 C3986 1.368 . S
C3990 C3989 1.523 . S
H3991 C3966 0.950 . S
H3992 C3968 0.950 . S
H3993 C3969 0.949 . S
H3994 C3971 0.950 . S
H3995 C3973 0.950 . S
C3996 C3997 1.349 . S
C3996 C3998 1.327 . S
C3996 H4021 0.950 . S
C3997 C3996 1.349 . S
C3997 C4013 1.349 . S
C3998 C3996 1.327 . S
C3998 C4017 1.429 . S
C3998 H4022 0.950 . S
C3999 C4016 1.574 . S
C3999 C4018 1.368 . S
C3999 H4023 0.949 . S
H4000 C4004 0.949 . S
C4001 C4002 1.349 . S
C4001 C4003 1.327 . S
C4001 H4024 0.950 . S
C4002 C4001 1.349 . S
C4002 C4014 1.349 . S
C4003 C4001 1.327 . S
C4003 C4019 1.429 . S
C4003 H4025 0.950 . S
C4004 H4000 0.949 . S
C4004 C4012 1.574 . S
C4004 C4020 1.368 . S
H4005 C4013 0.950 . S
H4006 C4011 0.950 . S
H4007 C4012 0.949 . S
H4008 C4014 0.950 . S
H4009 C4015 0.950 . S
H4010 C4016 0.949 . S
C4011 H4006 0.950 . S
C4011 C4013 1.327 . S
C4011 C4017 1.429 . S
C4012 C4004 1.574 . S
C4012 H4007 0.949 . S
C4012 C4018 1.368 . S
C4013 C3997 1.349 . S
C4013 H4005 0.950 . S
C4013 C4011 1.327 . S
C4014 C4002 1.349 . S
C4014 H4008 0.950 . S
C4014 C4015 1.327 . S
C4015 H4009 0.950 . S
C4015 C4014 1.327 . S
C4015 C4019 1.429 . S
C4016 C3999 1.574 . S
C4016 H4010 0.949 . S
C4016 C4020 1.368 . S
C4017 C3998 1.429 . S
C4017 C4011 1.429 . S
C4017 C4018 1.523 . S
C4018 C3999 1.368 . S
C4018 C4012 1.368 . S
C4018 C4017 1.523 . S
C4019 C4003 1.429 . S
C4019 C4015 1.429 . S
C4019 C4020 1.523 . S
C4020 C4004 1.368 . S
C4020 C4016 1.368 . S
C4020 C4019 1.523 . S
H4021 C3996 0.950 . S
H4022 C3998 0.950 . S
H4023 C3999 0.949 . S
H4024 C4001 0.950 . S
H4025 C4003 0.950 . S
C4026 C4027 1.349 . S
C4026 C4028 1.327 . S
C4026 H4051 0.950 . S
C4027 C4026 1.349 . S
C4027 C4043 1.349 . S
C4028 C4026 1.327 . S
C4028 C4047 1.429 . S
C4028 H4052 0.950 . S
C4029 C4046 1.574 . S
C4029 C4048 1.368 . S
C4029 H4053 0.949 . S
H4030 C4034 0.949 . S
C4031 C4032 1.349 . S
C4031 C4033 1.327 . S
C4031 H4054 0.950 . S
C4032 C4031 1.349 . S
C4032 C4044 1.349 . S
C4033 C4031 1.327 . S
C4033 C4049 1.429 . S
C4033 H4055 0.950 . S
C4034 H4030 0.949 . S
C4034 C4042 1.574 . S
C4034 C4050 1.368 . S
H4035 C4043 0.950 . S
H4036 C4041 0.950 . S
H4037 C4042 0.949 . S
H4038 C4044 0.950 . S
H4039 C4045 0.950 . S
H4040 C4046 0.949 . S
C4041 H4036 0.950 . S
C4041 C4043 1.327 . S
C4041 C4047 1.429 . S
C4042 C4034 1.574 . S
C4042 H4037 0.949 . S
C4042 C4048 1.368 . S
C4043 C4027 1.349 . S
C4043 H4035 0.950 . S
C4043 C4041 1.327 . S
C4044 C4032 1.349 . S
C4044 H4038 0.950 . S
C4044 C4045 1.327 . S
C4045 H4039 0.950 . S
C4045 C4044 1.327 . S
C4045 C4049 1.429 . S
C4046 C4029 1.574 . S
C4046 H4040 0.949 . S
C4046 C4050 1.368 . S
C4047 C4028 1.429 . S
C4047 C4041 1.429 . S
C4047 C4048 1.523 . S
C4048 C4029 1.368 . S
C4048 C4042 1.368 . S
C4048 C4047 1.523 . S
C4049 C4033 1.429 . S
C4049 C4045 1.429 . S
C4049 C4050 1.523 . S
C4050 C4034 1.368 . S
C4050 C4046 1.368 . S
C4050 C4049 1.523 . S
H4051 C4026 0.950 . S
H4052 C4028 0.950 . S
H4053 C4029 0.949 . S
H4054 C4031 0.950 . S
H4055 C4033 0.950 . S
C4056 C4057 1.349 . S
C4056 C4058 1.327 . S
C4056 H4081 0.950 . S
C4057 C4056 1.349 . S
C4057 C4073 1.349 . S
C4058 C4056 1.327 . S
C4058 C4077 1.429 . S
C4058 H4082 0.950 . S
C4059 C4076 1.574 . S
C4059 C4078 1.368 . S
C4059 H4083 0.949 . S
H4060 C4064 0.949 . S
C4061 C4062 1.349 . S
C4061 C4063 1.327 . S
C4061 H4084 0.950 . S
C4062 C4061 1.349 . S
C4062 C4074 1.349 . S
C4063 C4061 1.327 . S
C4063 C4079 1.429 . S
C4063 H4085 0.950 . S
C4064 H4060 0.949 . S
C4064 C4072 1.574 . S
C4064 C4080 1.368 . S
H4065 C4073 0.950 . S
H4066 C4071 0.950 . S
H4067 C4072 0.949 . S
H4068 C4074 0.950 . S
H4069 C4075 0.950 . S
H4070 C4076 0.949 . S
C4071 H4066 0.950 . S
C4071 C4073 1.327 . S
C4071 C4077 1.429 . S
C4072 C4064 1.574 . S
C4072 H4067 0.949 . S
C4072 C4078 1.368 . S
C4073 C4057 1.349 . S
C4073 H4065 0.950 . S
C4073 C4071 1.327 . S
C4074 C4062 1.349 . S
C4074 H4068 0.950 . S
C4074 C4075 1.327 . S
C4075 H4069 0.950 . S
C4075 C4074 1.327 . S
C4075 C4079 1.429 . S
C4076 C4059 1.574 . S
C4076 H4070 0.949 . S
C4076 C4080 1.368 . S
C4077 C4058 1.429 . S
C4077 C4071 1.429 . S
C4077 C4078 1.523 . S
C4078 C4059 1.368 . S
C4078 C4072 1.368 . S
C4078 C4077 1.523 . S
C4079 C4063 1.429 . S
C4079 C4075 1.429 . S
C4079 C4080 1.523 . S
C4080 C4064 1.368 . S
C4080 C4076 1.368 . S
C4080 C4079 1.523 . S
H4081 C4056 0.950 . S
H4082 C4058 0.950 . S
H4083 C4059 0.949 . S
H4084 C4061 0.950 . S
H4085 C4063 0.950 . S
C4086 C4087 1.349 . S
C4086 C4088 1.327 . S
C4086 H4111 0.950 . S
C4087 C4086 1.349 . S
C4087 C4103 1.349 . S
C4088 C4086 1.327 . S
C4088 C4107 1.429 . S
C4088 H4112 0.950 . S
C4089 C4106 1.574 . S
C4089 C4108 1.368 . S
C4089 H4113 0.949 . S
H4090 C4094 0.949 . S
C4091 C4092 1.349 . S
C4091 C4093 1.327 . S
C4091 H4114 0.950 . S
C4092 C4091 1.349 . S
C4092 C4104 1.349 . S
C4093 C4091 1.327 . S
C4093 C4109 1.429 . S
C4093 H4115 0.950 . S
C4094 H4090 0.949 . S
C4094 C4102 1.574 . S
C4094 C4110 1.368 . S
H4095 C4103 0.950 . S
H4096 C4101 0.950 . S
H4097 C4102 0.949 . S
H4098 C4104 0.950 . S
H4099 C4105 0.950 . S
H4100 C4106 0.949 . S
C4101 H4096 0.950 . S
C4101 C4103 1.327 . S
C4101 C4107 1.429 . S
C4102 C4094 1.574 . S
C4102 H4097 0.949 . S
C4102 C4108 1.368 . S
C4103 C4087 1.349 . S
C4103 H4095 0.950 . S
C4103 C4101 1.327 . S
C4104 C4092 1.349 . S
C4104 H4098 0.950 . S
C4104 C4105 1.327 . S
C4105 H4099 0.950 . S
C4105 C4104 1.327 . S
C4105 C4109 1.429 . S
C4106 C4089 1.574 . S
C4106 H4100 0.949 . S
C4106 C4110 1.368 . S
C4107 C4088 1.429 . S
C4107 C4101 1.429 . S
C4107 C4108 1.523 . S
C4108 C4089 1.368 . S
C4108 C4102 1.368 . S
C4108 C4107 1.523 . S
C4109 C4093 1.429 . S
C4109 C4105 1.429 . S
C4109 C4110 1.523 . S
C4110 C4094 1.368 . S
C4110 C4106 1.368 . S
C4110 C4109 1.523 . S
H4111 C4086 0.950 . S
H4112 C4088 0.950 . S
H4113 C4089 0.949 . S
H4114 C4091 0.950 . S
H4115 C4093 0.950 . S
C4116 C4117 1.349 . S
C4116 C4118 1.327 . S
C4116 H4141 0.950 . S
C4117 C4116 1.349 . S
C4117 C4133 1.349 . S
C4118 C4116 1.327 . S
C4118 C4137 1.429 . S
C4118 H4142 0.950 . S
C4119 C4136 1.574 . S
C4119 C4138 1.368 . S
C4119 H4143 0.949 . S
H4120 C4124 0.949 . S
C4121 C4122 1.349 . S
C4121 C4123 1.327 . S
C4121 H4144 0.950 . S
C4122 C4121 1.349 . S
C4122 C4134 1.349 . S
C4123 C4121 1.327 . S
C4123 C4139 1.429 . S
C4123 H4145 0.950 . S
C4124 H4120 0.949 . S
C4124 C4132 1.574 . S
C4124 C4140 1.368 . S
H4125 C4133 0.950 . S
H4126 C4131 0.950 . S
H4127 C4132 0.949 . S
H4128 C4134 0.950 . S
H4129 C4135 0.950 . S
H4130 C4136 0.949 . S
C4131 H4126 0.950 . S
C4131 C4133 1.327 . S
C4131 C4137 1.429 . S
C4132 C4124 1.574 . S
C4132 H4127 0.949 . S
C4132 C4138 1.368 . S
C4133 C4117 1.349 . S
C4133 H4125 0.950 . S
C4133 C4131 1.327 . S
C4134 C4122 1.349 . S
C4134 H4128 0.950 . S
C4134 C4135 1.327 . S
C4135 H4129 0.950 . S
C4135 C4134 1.327 . S
C4135 C4139 1.429 . S
C4136 C4119 1.574 . S
C4136 H4130 0.949 . S
C4136 C4140 1.368 . S
C4137 C4118 1.429 . S
C4137 C4131 1.429 . S
C4137 C4138 1.523 . S
C4138 C4119 1.368 . S
C4138 C4132 1.368 . S
C4138 C4137 1.523 . S
C4139 C4123 1.429 . S
C4139 C4135 1.429 . S
C4139 C4140 1.523 . S
C4140 C4124 1.368 . S
C4140 C4136 1.368 . S
C4140 C4139 1.523 . S
H4141 C4116 0.950 . S
H4142 C4118 0.950 . S
H4143 C4119 0.949 . S
H4144 C4121 0.950 . S
H4145 C4123 0.950 . S
C4146 C4147 1.349 . S
C4146 C4148 1.327 . S
C4146 H4171 0.950 . S
C4147 C4146 1.349 . S
C4147 C4163 1.349 . S
C4148 C4146 1.327 . S
C4148 C4167 1.429 . S
C4148 H4172 0.950 . S
C4149 C4166 1.574 . S
C4149 C4168 1.368 . S
C4149 H4173 0.949 . S
H4150 C4154 0.949 . S
C4151 C4152 1.349 . S
C4151 C4153 1.327 . S
C4151 H4174 0.950 . S
C4152 C4151 1.349 . S
C4152 C4164 1.349 . S
C4153 C4151 1.327 . S
C4153 C4169 1.429 . S
C4153 H4175 0.950 . S
C4154 H4150 0.949 . S
C4154 C4162 1.574 . S
C4154 C4170 1.368 . S
H4155 C4163 0.950 . S
H4156 C4161 0.950 . S
H4157 C4162 0.949 . S
H4158 C4164 0.950 . S
H4159 C4165 0.950 . S
H4160 C4166 0.949 . S
C4161 H4156 0.950 . S
C4161 C4163 1.327 . S
C4161 C4167 1.429 . S
C4162 C4154 1.574 . S
C4162 H4157 0.949 . S
C4162 C4168 1.368 . S
C4163 C4147 1.349 . S
C4163 H4155 0.950 . S
C4163 C4161 1.327 . S
C4164 C4152 1.349 . S
C4164 H4158 0.950 . S
C4164 C4165 1.327 . S
C4165 H4159 0.950 . S
C4165 C4164 1.327 . S
C4165 C4169 1.429 . S
C4166 C4149 1.574 . S
C4166 H4160 0.949 . S
C4166 C4170 1.368 . S
C4167 C4148 1.429 . S
C4167 C4161 1.429 . S
C4167 C4168 1.523 . S
C4168 C4149 1.368 . S
C4168 C4162 1.368 . S
C4168 C4167 1.523 . S
C4169 C4153 1.429 . S
C4169 C4165 1.429 . S
C4169 C4170 1.523 . S
C4170 C4154 1.368 . S
C4170 C4166 1.368 . S
C4170 C4169 1.523 . S
H4171 C4146 0.950 . S
H4172 C4148 0.950 . S
H4173 C4149 0.949 . S
H4174 C4151 0.950 . S
H4175 C4153 0.950 . S
C4176 C4177 1.349 . S
C4176 C4178 1.327 . S
C4176 H4201 0.950 . S
C4177 C4176 1.349 . S
C4177 C4193 1.349 . S
C4178 C4176 1.327 . S
C4178 C4197 1.429 . S
C4178 H4202 0.950 . S
C4179 C4196 1.574 . S
C4179 C4198 1.368 . S
C4179 H4203 0.949 . S
H4180 C4184 0.949 . S
C4181 C4182 1.349 . S
C4181 C4183 1.327 . S
C4181 H4204 0.950 . S
C4182 C4181 1.349 . S
C4182 C4194 1.349 . S
C4183 C4181 1.327 . S
C4183 C4199 1.429 . S
C4183 H4205 0.950 . S
C4184 H4180 0.949 . S
C4184 C4192 1.574 . S
C4184 C4200 1.368 . S
H4185 C4193 0.950 . S
H4186 C4191 0.950 . S
H4187 C4192 0.949 . S
H4188 C4194 0.950 . S
H4189 C4195 0.950 . S
H4190 C4196 0.949 . S
C4191 H4186 0.950 . S
C4191 C4193 1.327 . S
C4191 C4197 1.429 . S
C4192 C4184 1.574 . S
C4192 H4187 0.949 . S
C4192 C4198 1.368 . S
C4193 C4177 1.349 . S
C4193 H4185 0.950 . S
C4193 C4191 1.327 . S
C4194 C4182 1.349 . S
C4194 H4188 0.950 . S
C4194 C4195 1.327 . S
C4195 H4189 0.950 . S
C4195 C4194 1.327 . S
C4195 C4199 1.429 . S
C4196 C4179 1.574 . S
C4196 H4190 0.949 . S
C4196 C4200 1.368 . S
C4197 C4178 1.429 . S
C4197 C4191 1.429 . S
C4197 C4198 1.523 . S
C4198 C4179 1.368 . S
C4198 C4192 1.368 . S
C4198 C4197 1.523 . S
C4199 C4183 1.429 . S
C4199 C4195 1.429 . S
C4199 C4200 1.523 . S
C4200 C4184 1.368 . S
C4200 C4196 1.368 . S
C4200 C4199 1.523 . S
H4201 C4176 0.950 . S
H4202 C4178 0.950 . S
H4203 C4179 0.949 . S
H4204 C4181 0.950 . S
H4205 C4183 0.950 . S
C4206 C4207 1.349 . S
C4206 C4208 1.327 . S
C4206 H4231 0.950 . S
C4207 C4206 1.349 . S
C4207 C4223 1.349 . S
C4208 C4206 1.327 . S
C4208 C4227 1.429 . S
C4208 H4232 0.950 . S
C4209 C4226 1.574 . S
C4209 C4228 1.368 . S
C4209 H4233 0.949 . S
H4210 C4214 0.949 . S
C4211 C4212 1.349 . S
C4211 C4213 1.327 . S
C4211 H4234 0.950 . S
C4212 C4211 1.349 . S
C4212 C4224 1.349 . S
C4213 C4211 1.327 . S
C4213 C4229 1.429 . S
C4213 H4235 0.950 . S
C4214 H4210 0.949 . S
C4214 C4222 1.574 . S
C4214 C4230 1.368 . S
H4215 C4223 0.950 . S
H4216 C4221 0.950 . S
H4217 C4222 0.949 . S
H4218 C4224 0.950 . S
H4219 C4225 0.950 . S
H4220 C4226 0.949 . S
C4221 H4216 0.950 . S
C4221 C4223 1.327 . S
C4221 C4227 1.429 . S
C4222 C4214 1.574 . S
C4222 H4217 0.949 . S
C4222 C4228 1.368 . S
C4223 C4207 1.349 . S
C4223 H4215 0.950 . S
C4223 C4221 1.327 . S
C4224 C4212 1.349 . S
C4224 H4218 0.950 . S
C4224 C4225 1.327 . S
C4225 H4219 0.950 . S
C4225 C4224 1.327 . S
C4225 C4229 1.429 . S
C4226 C4209 1.574 . S
C4226 H4220 0.949 . S
C4226 C4230 1.368 . S
C4227 C4208 1.429 . S
C4227 C4221 1.429 . S
C4227 C4228 1.523 . S
C4228 C4209 1.368 . S
C4228 C4222 1.368 . S
C4228 C4227 1.523 . S
C4229 C4213 1.429 . S
C4229 C4225 1.429 . S
C4229 C4230 1.523 . S
C4230 C4214 1.368 . S
C4230 C4226 1.368 . S
C4230 C4229 1.523 . S
H4231 C4206 0.950 . S
H4232 C4208 0.950 . S
H4233 C4209 0.949 . S
H4234 C4211 0.950 . S
H4235 C4213 0.950 . S
C4236 C4237 1.349 . S
C4236 C4238 1.327 . S
C4236 H4261 0.950 . S
C4237 C4236 1.349 . S
C4237 C4253 1.349 . S
C4238 C4236 1.327 . S
C4238 C4257 1.429 . S
C4238 H4262 0.950 . S
C4239 C4256 1.574 . S
C4239 C4258 1.368 . S
C4239 H4263 0.949 . S
H4240 C4244 0.949 . S
C4241 C4242 1.349 . S
C4241 C4243 1.327 . S
C4241 H4264 0.950 . S
C4242 C4241 1.349 . S
C4242 C4254 1.349 . S
C4243 C4241 1.327 . S
C4243 C4259 1.429 . S
C4243 H4265 0.950 . S
C4244 H4240 0.949 . S
C4244 C4252 1.574 . S
C4244 C4260 1.368 . S
H4245 C4253 0.950 . S
H4246 C4251 0.950 . S
H4247 C4252 0.949 . S
H4248 C4254 0.950 . S
H4249 C4255 0.950 . S
H4250 C4256 0.949 . S
C4251 H4246 0.950 . S
C4251 C4253 1.327 . S
C4251 C4257 1.429 . S
C4252 C4244 1.574 . S
C4252 H4247 0.949 . S
C4252 C4258 1.368 . S
C4253 C4237 1.349 . S
C4253 H4245 0.950 . S
C4253 C4251 1.327 . S
C4254 C4242 1.349 . S
C4254 H4248 0.950 . S
C4254 C4255 1.327 . S
C4255 H4249 0.950 . S
C4255 C4254 1.327 . S
C4255 C4259 1.429 . S
C4256 C4239 1.574 . S
C4256 H4250 0.949 . S
C4256 C4260 1.368 . S
C4257 C4238 1.429 . S
C4257 C4251 1.429 . S
C4257 C4258 1.523 . S
C4258 C4239 1.368 . S
C4258 C4252 1.368 . S
C4258 C4257 1.523 . S
C4259 C4243 1.429 . S
C4259 C4255 1.429 . S
C4259 C4260 1.523 . S
C4260 C4244 1.368 . S
C4260 C4256 1.368 . S
C4260 C4259 1.523 . S
H4261 C4236 0.950 . S
H4262 C4238 0.950 . S
H4263 C4239 0.949 . S
H4264 C4241 0.950 . S
H4265 C4243 0.950 . S
C4266 C4267 1.349 . S
C4266 C4268 1.327 . S
C4266 H4291 0.950 . S
C4267 C4266 1.349 . S
C4267 C4283 1.349 . S
C4268 C4266 1.327 . S
C4268 C4287 1.429 . S
C4268 H4292 0.950 . S
C4269 C4286 1.574 . S
C4269 C4288 1.368 . S
C4269 H4293 0.949 . S
H4270 C4274 0.949 . S
C4271 C4272 1.349 . S
C4271 C4273 1.327 . S
C4271 H4294 0.950 . S
C4272 C4271 1.349 . S
C4272 C4284 1.349 . S
C4273 C4271 1.327 . S
C4273 C4289 1.429 . S
C4273 H4295 0.950 . S
C4274 H4270 0.949 . S
C4274 C4282 1.574 . S
C4274 C4290 1.368 . S
H4275 C4283 0.950 . S
H4276 C4281 0.950 . S
H4277 C4282 0.949 . S
H4278 C4284 0.950 . S
H4279 C4285 0.950 . S
H4280 C4286 0.949 . S
C4281 H4276 0.950 . S
C4281 C4283 1.327 . S
C4281 C4287 1.429 . S
C4282 C4274 1.574 . S
C4282 H4277 0.949 . S
C4282 C4288 1.368 . S
C4283 C4267 1.349 . S
C4283 H4275 0.950 . S
C4283 C4281 1.327 . S
C4284 C4272 1.349 . S
C4284 H4278 0.950 . S
C4284 C4285 1.327 . S
C4285 H4279 0.950 . S
C4285 C4284 1.327 . S
C4285 C4289 1.429 . S
C4286 C4269 1.574 . S
C4286 H4280 0.949 . S
C4286 C4290 1.368 . S
C4287 C4268 1.429 . S
C4287 C4281 1.429 . S
C4287 C4288 1.523 . S
C4288 C4269 1.368 . S
C4288 C4282 1.368 . S
C4288 C4287 1.523 . S
C4289 C4273 1.429 . S
C4289 C4285 1.429 . S
C4289 C4290 1.523 . S
C4290 C4274 1.368 . S
C4290 C4286 1.368 . S
C4290 C4289 1.523 . S
H4291 C4266 0.950 . S
H4292 C4268 0.950 . S
H4293 C4269 0.949 . S
H4294 C4271 0.950 . S
H4295 C4273 0.950 . S
C4296 C4297 1.349 . S
C4296 C4298 1.327 . S
C4296 H4321 0.950 . S
C4297 C4296 1.349 . S
C4297 C4313 1.349 . S
C4298 C4296 1.327 . S
C4298 C4317 1.429 . S
C4298 H4322 0.950 . S
C4299 C4316 1.574 . S
C4299 C4318 1.368 . S
C4299 H4323 0.949 . S
H4300 C4304 0.949 . S
C4301 C4302 1.349 . S
C4301 C4303 1.327 . S
C4301 H4324 0.950 . S
C4302 C4301 1.349 . S
C4302 C4314 1.349 . S
C4303 C4301 1.327 . S
C4303 C4319 1.429 . S
C4303 H4325 0.950 . S
C4304 H4300 0.949 . S
C4304 C4312 1.574 . S
C4304 C4320 1.368 . S
H4305 C4313 0.950 . S
H4306 C4311 0.950 . S
H4307 C4312 0.949 . S
H4308 C4314 0.950 . S
H4309 C4315 0.950 . S
H4310 C4316 0.949 . S
C4311 H4306 0.950 . S
C4311 C4313 1.327 . S
C4311 C4317 1.429 . S
C4312 C4304 1.574 . S
C4312 H4307 0.949 . S
C4312 C4318 1.368 . S
C4313 C4297 1.349 . S
C4313 H4305 0.950 . S
C4313 C4311 1.327 . S
C4314 C4302 1.349 . S
C4314 H4308 0.950 . S
C4314 C4315 1.327 . S
C4315 H4309 0.950 . S
C4315 C4314 1.327 . S
C4315 C4319 1.429 . S
C4316 C4299 1.574 . S
C4316 H4310 0.949 . S
C4316 C4320 1.368 . S
C4317 C4298 1.429 . S
C4317 C4311 1.429 . S
C4317 C4318 1.523 . S
C4318 C4299 1.368 . S
C4318 C4312 1.368 . S
C4318 C4317 1.523 . S
C4319 C4303 1.429 . S
C4319 C4315 1.429 . S
C4319 C4320 1.523 . S
C4320 C4304 1.368 . S
C4320 C4316 1.368 . S
C4320 C4319 1.523 . S
H4321 C4296 0.950 . S
H4322 C4298 0.950 . S
H4323 C4299 0.949 . S
H4324 C4301 0.950 . S
H4325 C4303 0.950 . S
C4326 C4327 1.349 . S
C4326 C4328 1.327 . S
C4326 H4351 0.950 . S
C4327 C4326 1.349 . S
C4327 C4343 1.349 . S
C4328 C4326 1.327 . S
C4328 C4347 1.429 . S
C4328 H4352 0.950 . S
C4329 C4346 1.574 . S
C4329 C4348 1.368 . S
C4329 H4353 0.949 . S
H4330 C4334 0.949 . S
C4331 C4332 1.349 . S
C4331 C4333 1.327 . S
C4331 H4354 0.950 . S
C4332 C4331 1.349 . S
C4332 C4344 1.349 . S
C4333 C4331 1.327 . S
C4333 C4349 1.429 . S
C4333 H4355 0.950 . S
C4334 H4330 0.949 . S
C4334 C4342 1.574 . S
C4334 C4350 1.368 . S
H4335 C4343 0.950 . S
H4336 C4341 0.950 . S
H4337 C4342 0.949 . S
H4338 C4344 0.950 . S
H4339 C4345 0.950 . S
H4340 C4346 0.949 . S
C4341 H4336 0.950 . S
C4341 C4343 1.327 . S
C4341 C4347 1.429 . S
C4342 C4334 1.574 . S
C4342 H4337 0.949 . S
C4342 C4348 1.368 . S
C4343 C4327 1.349 . S
C4343 H4335 0.950 . S
C4343 C4341 1.327 . S
C4344 C4332 1.349 . S
C4344 H4338 0.950 . S
C4344 C4345 1.327 . S
C4345 H4339 0.950 . S
C4345 C4344 1.327 . S
C4345 C4349 1.429 . S
C4346 C4329 1.574 . S
C4346 H4340 0.949 . S
C4346 C4350 1.368 . S
C4347 C4328 1.429 . S
C4347 C4341 1.429 . S
C4347 C4348 1.523 . S
C4348 C4329 1.368 . S
C4348 C4342 1.368 . S
C4348 C4347 1.523 . S
C4349 C4333 1.429 . S
C4349 C4345 1.429 . S
C4349 C4350 1.523 . S
C4350 C4334 1.368 . S
C4350 C4346 1.368 . S
C4350 C4349 1.523 . S
H4351 C4326 0.950 . S
H4352 C4328 0.950 . S
H4353 C4329 0.949 . S
H4354 C4331 0.950 . S
H4355 C4333 0.950 . S
C4356 C4357 1.349 . S
C4356 C4358 1.327 . S
C4356 H4381 0.950 . S
C4357 C4356 1.349 . S
C4357 C4373 1.349 . S
C4358 C4356 1.327 . S
C4358 C4377 1.429 . S
C4358 H4382 0.950 . S
C4359 C4376 1.574 . S
C4359 C4378 1.368 . S
C4359 H4383 0.949 . S
H4360 C4364 0.949 . S
C4361 C4362 1.349 . S
C4361 C4363 1.327 . S
C4361 H4384 0.950 . S
C4362 C4361 1.349 . S
C4362 C4374 1.349 . S
C4363 C4361 1.327 . S
C4363 C4379 1.429 . S
C4363 H4385 0.950 . S
C4364 H4360 0.949 . S
C4364 C4372 1.574 . S
C4364 C4380 1.368 . S
H4365 C4373 0.950 . S
H4366 C4371 0.950 . S
H4367 C4372 0.949 . S
H4368 C4374 0.950 . S
H4369 C4375 0.950 . S
H4370 C4376 0.949 . S
C4371 H4366 0.950 . S
C4371 C4373 1.327 . S
C4371 C4377 1.429 . S
C4372 C4364 1.574 . S
C4372 H4367 0.949 . S
C4372 C4378 1.368 . S
C4373 C4357 1.349 . S
C4373 H4365 0.950 . S
C4373 C4371 1.327 . S
C4374 C4362 1.349 . S
C4374 H4368 0.950 . S
C4374 C4375 1.327 . S
C4375 H4369 0.950 . S
C4375 C4374 1.327 . S
C4375 C4379 1.429 . S
C4376 C4359 1.574 . S
C4376 H4370 0.949 . S
C4376 C4380 1.368 . S
C4377 C4358 1.429 . S
C4377 C4371 1.429 . S
C4377 C4378 1.523 . S
C4378 C4359 1.368 . S
C4378 C4372 1.368 . S
C4378 C4377 1.523 . S
C4379 C4363 1.429 . S
C4379 C4375 1.429 . S
C4379 C4380 1.523 . S
C4380 C4364 1.368 . S
C4380 C4376 1.368 . S
C4380 C4379 1.523 . S
H4381 C4356 0.950 . S
H4382 C4358 0.950 . S
H4383 C4359 0.949 . S
H4384 C4361 0.950 . S
H4385 C4363 0.950 . S
C4386 C4387 1.349 . S
C4386 C4388 1.327 . S
C4386 H4411 0.950 . S
C4387 C4386 1.349 . S
C4387 C4403 1.349 . S
C4388 C4386 1.327 . S
C4388 C4407 1.429 . S
C4388 H4412 0.950 . S
C4389 C4406 1.574 . S
C4389 C4408 1.368 . S
C4389 H4413 0.949 . S
H4390 C4394 0.949 . S
C4391 C4392 1.349 . S
C4391 C4393 1.327 . S
C4391 H4414 0.950 1_554 S
C4392 C4391 1.349 . S
C4392 C4404 1.349 . S
C4393 C4391 1.327 . S
C4393 C4409 1.429 . S
C4393 H4415 0.950 1_554 S
C4394 H4390 0.949 . S
C4394 C4402 1.574 . S
C4394 C4410 1.368 . S
H4395 C4403 0.950 . S
H4396 C4401 0.950 . S
H4397 C4402 0.949 . S
H4398 C4404 0.950 . S
H4399 C4405 0.950 . S
H4400 C4406 0.949 1_556 S
C4401 H4396 0.950 . S
C4401 C4403 1.327 . S
C4401 C4407 1.429 . S
C4402 C4394 1.574 . S
C4402 H4397 0.949 . S
C4402 C4408 1.368 . S
C4403 C4387 1.349 . S
C4403 H4395 0.950 . S
C4403 C4401 1.327 . S
C4404 C4392 1.349 . S
C4404 H4398 0.950 . S
C4404 C4405 1.327 . S
C4405 H4399 0.950 . S
C4405 C4404 1.327 . S
C4405 C4409 1.429 . S
C4406 C4389 1.574 . S
C4406 H4400 0.949 1_554 S
C4406 C4410 1.368 . S
C4407 C4388 1.429 . S
C4407 C4401 1.429 . S
C4407 C4408 1.523 . S
C4408 C4389 1.368 . S
C4408 C4402 1.368 . S
C4408 C4407 1.523 . S
C4409 C4393 1.429 . S
C4409 C4405 1.429 . S
C4409 C4410 1.523 . S
C4410 C4394 1.368 . S
C4410 C4406 1.368 . S
C4410 C4409 1.523 . S
H4411 C4386 0.950 . S
H4412 C4388 0.950 . S
H4413 C4389 0.949 . S
H4414 C4391 0.950 1_556 S
H4415 C4393 0.950 1_556 S
C4416 C4417 1.349 . S
C4416 C4418 1.327 . S
C4416 H4441 0.950 . S
C4417 C4416 1.349 . S
C4417 C4433 1.349 . S
C4418 C4416 1.327 . S
C4418 C4437 1.429 . S
C4418 H4442 0.950 . S
C4419 C4436 1.574 . S
C4419 C4438 1.368 . S
C4419 H4443 0.949 . S
H4420 C4424 0.949 . S
C4421 C4422 1.349 . S
C4421 C4423 1.327 . S
C4421 H4444 0.950 . S
C4422 C4421 1.349 . S
C4422 C4434 1.349 . S
C4423 C4421 1.327 . S
C4423 C4439 1.429 . S
C4423 H4445 0.950 . S
C4424 H4420 0.949 . S
C4424 C4432 1.574 . S
C4424 C4440 1.368 . S
H4425 C4433 0.950 . S
H4426 C4431 0.950 . S
H4427 C4432 0.949 . S
H4428 C4434 0.950 . S
H4429 C4435 0.950 . S
H4430 C4436 0.949 . S
C4431 H4426 0.950 . S
C4431 C4433 1.327 . S
C4431 C4437 1.429 . S
C4432 C4424 1.574 . S
C4432 H4427 0.949 . S
C4432 C4438 1.368 . S
C4433 C4417 1.349 . S
C4433 H4425 0.950 . S
C4433 C4431 1.327 . S
C4434 C4422 1.349 . S
C4434 H4428 0.950 . S
C4434 C4435 1.327 . S
C4435 H4429 0.950 . S
C4435 C4434 1.327 . S
C4435 C4439 1.429 . S
C4436 C4419 1.574 . S
C4436 H4430 0.949 . S
C4436 C4440 1.368 . S
C4437 C4418 1.429 . S
C4437 C4431 1.429 . S
C4437 C4438 1.523 . S
C4438 C4419 1.368 . S
C4438 C4432 1.368 . S
C4438 C4437 1.523 . S
C4439 C4423 1.429 . S
C4439 C4435 1.429 . S
C4439 C4440 1.523 . S
C4440 C4424 1.368 . S
C4440 C4436 1.368 . S
C4440 C4439 1.523 . S
H4441 C4416 0.950 . S
H4442 C4418 0.950 . S
H4443 C4419 0.949 . S
H4444 C4421 0.950 . S
H4445 C4423 0.950 . S
C4446 C4447 1.349 . S
C4446 C4448 1.327 . S
C4446 H4471 0.950 . S
C4447 C4446 1.349 . S
C4447 C4463 1.349 . S
C4448 C4446 1.327 . S
C4448 C4467 1.429 . S
C4448 H4472 0.950 . S
C4449 C4466 1.574 . S
C4449 C4468 1.368 . S
C4449 H4473 0.949 . S
H4450 C4454 0.949 . S
C4451 C4452 1.349 . S
C4451 C4453 1.327 . S
C4451 H4474 0.950 . S
C4452 C4451 1.349 . S
C4452 C4464 1.349 . S
C4453 C4451 1.327 . S
C4453 C4469 1.429 . S
C4453 H4475 0.950 . S
C4454 H4450 0.949 . S
C4454 C4462 1.574 . S
C4454 C4470 1.368 . S
H4455 C4463 0.950 . S
H4456 C4461 0.950 . S
H4457 C4462 0.949 . S
H4458 C4464 0.950 . S
H4459 C4465 0.950 . S
H4460 C4466 0.949 . S
C4461 H4456 0.950 . S
C4461 C4463 1.327 . S
C4461 C4467 1.429 . S
C4462 C4454 1.574 . S
C4462 H4457 0.949 . S
C4462 C4468 1.368 . S
C4463 C4447 1.349 . S
C4463 H4455 0.950 . S
C4463 C4461 1.327 . S
C4464 C4452 1.349 . S
C4464 H4458 0.950 . S
C4464 C4465 1.327 . S
C4465 H4459 0.950 . S
C4465 C4464 1.327 . S
C4465 C4469 1.429 . S
C4466 C4449 1.574 . S
C4466 H4460 0.949 . S
C4466 C4470 1.368 . S
C4467 C4448 1.429 . S
C4467 C4461 1.429 . S
C4467 C4468 1.523 . S
C4468 C4449 1.368 . S
C4468 C4462 1.368 . S
C4468 C4467 1.523 . S
C4469 C4453 1.429 . S
C4469 C4465 1.429 . S
C4469 C4470 1.523 . S
C4470 C4454 1.368 . S
C4470 C4466 1.368 . S
C4470 C4469 1.523 . S
H4471 C4446 0.950 . S
H4472 C4448 0.950 . S
H4473 C4449 0.949 . S
H4474 C4451 0.950 . S
H4475 C4453 0.950 . S
C4476 C4477 1.349 . S
C4476 C4478 1.327 . S
C4476 H4501 0.950 . S
C4477 C4476 1.349 . S
C4477 C4493 1.349 . S
C4478 C4476 1.327 . S
C4478 C4497 1.429 . S
C4478 H4502 0.950 . S
C4479 C4496 1.574 . S
C4479 C4498 1.368 . S
C4479 H4503 0.949 . S
H4480 C4484 0.949 . S
C4481 C4482 1.349 . S
C4481 C4483 1.327 . S
C4481 H4504 0.950 . S
C4482 C4481 1.349 . S
C4482 C4494 1.349 . S
C4483 C4481 1.327 . S
C4483 C4499 1.429 . S
C4483 H4505 0.950 . S
C4484 H4480 0.949 . S
C4484 C4492 1.574 . S
C4484 C4500 1.368 . S
H4485 C4493 0.950 . S
H4486 C4491 0.950 . S
H4487 C4492 0.949 . S
H4488 C4494 0.950 . S
H4489 C4495 0.950 . S
H4490 C4496 0.949 . S
C4491 H4486 0.950 . S
C4491 C4493 1.327 . S
C4491 C4497 1.429 . S
C4492 C4484 1.574 . S
C4492 H4487 0.949 . S
C4492 C4498 1.368 . S
C4493 C4477 1.349 . S
C4493 H4485 0.950 . S
C4493 C4491 1.327 . S
C4494 C4482 1.349 . S
C4494 H4488 0.950 . S
C4494 C4495 1.327 . S
C4495 H4489 0.950 . S
C4495 C4494 1.327 . S
C4495 C4499 1.429 . S
C4496 C4479 1.574 . S
C4496 H4490 0.949 . S
C4496 C4500 1.368 . S
C4497 C4478 1.429 . S
C4497 C4491 1.429 . S
C4497 C4498 1.523 . S
C4498 C4479 1.368 . S
C4498 C4492 1.368 . S
C4498 C4497 1.523 . S
C4499 C4483 1.429 . S
C4499 C4495 1.429 . S
C4499 C4500 1.523 . S
C4500 C4484 1.368 . S
C4500 C4496 1.368 . S
C4500 C4499 1.523 . S
H4501 C4476 0.950 . S
H4502 C4478 0.950 . S
H4503 C4479 0.949 . S
H4504 C4481 0.950 . S
H4505 C4483 0.950 . S
C4506 C4507 1.349 . S
C4506 C4508 1.327 . S
C4506 H4531 0.950 . S
C4507 C4506 1.349 . S
C4507 C4523 1.349 . S
C4508 C4506 1.327 . S
C4508 C4527 1.429 . S
C4508 H4532 0.950 . S
C4509 C4526 1.574 . S
C4509 C4528 1.368 . S
C4509 H4533 0.949 . S
H4510 C4514 0.949 . S
C4511 C4512 1.349 . S
C4511 C4513 1.327 . S
C4511 H4534 0.950 . S
C4512 C4511 1.349 . S
C4512 C4524 1.349 . S
C4513 C4511 1.327 . S
C4513 C4529 1.429 . S
C4513 H4535 0.950 . S
C4514 H4510 0.949 . S
C4514 C4522 1.574 . S
C4514 C4530 1.368 . S
H4515 C4523 0.950 . S
H4516 C4521 0.950 . S
H4517 C4522 0.949 . S
H4518 C4524 0.950 . S
H4519 C4525 0.950 . S
H4520 C4526 0.949 . S
C4521 H4516 0.950 . S
C4521 C4523 1.327 . S
C4521 C4527 1.429 . S
C4522 C4514 1.574 . S
C4522 H4517 0.949 . S
C4522 C4528 1.368 . S
C4523 C4507 1.349 . S
C4523 H4515 0.950 . S
C4523 C4521 1.327 . S
C4524 C4512 1.349 . S
C4524 H4518 0.950 . S
C4524 C4525 1.327 . S
C4525 H4519 0.950 . S
C4525 C4524 1.327 . S
C4525 C4529 1.429 . S
C4526 C4509 1.574 . S
C4526 H4520 0.949 . S
C4526 C4530 1.368 . S
C4527 C4508 1.429 . S
C4527 C4521 1.429 . S
C4527 C4528 1.523 . S
C4528 C4509 1.368 . S
C4528 C4522 1.368 . S
C4528 C4527 1.523 . S
C4529 C4513 1.429 . S
C4529 C4525 1.429 . S
C4529 C4530 1.523 . S
C4530 C4514 1.368 . S
C4530 C4526 1.368 . S
C4530 C4529 1.523 . S
H4531 C4506 0.950 . S
H4532 C4508 0.950 . S
H4533 C4509 0.949 . S
H4534 C4511 0.950 . S
H4535 C4513 0.950 . S
C1657 C101 1.867 . S
C1662 C379 1.862 . S
C1687 C57 1.713 . S
C1692 C452 1.722 . S
C1717 C70 1.594 . S
C1722 C547 1.589 . S
C1752 C622 1.440 . S
C1747 C82 1.538 . S
C1777 C23 1.537 . S
C1782 C706 1.440 . S
C1812 C799 1.591 . S
C1807 C29 1.595 . S
C1842 C872 1.712 . S
C1837 C49 1.705 . S
C1867 C10 1.867 . S
C1872 C967 1.863 . S
C1902 C368 1.437 . S
C1897 C218 1.469 . S
C1927 C226 0.832 . S
C1932 C454 0.816 . S
C1962 C536 1.038 . S
C1957 C251 1.038 . S
C1992 C631 1.477 . S
C1987 C159 1.482 1_556 S
C2017 C211 1.481 . S
C2022 C715 1.477 . S
C2052 C788 1.038 . S
C2047 C225 1.039 . S
C2082 C874 0.815 . S
C2077 C252 0.830 . S
C2112 C956 1.437 . S
C2107 C166 1.469 . S
C2142 C370 0.891 . S
C2137 C147 0.912 . S
C2167 C263 1.580 . S
C2172 C1040 1.574 . S
C2202 C1126 1.308 . S
C2197 C309 1.371 . S
C2232 C1219 0.648 . S
C2227 C291 0.647 . S
C2257 C108 0.913 . S
C2262 C958 0.892 . S
C2287 C121 1.374 . S
C2292 C538 1.310 . S
C2317 C302 1.583 . S
C2322 C1292 1.576 . S
C2352 C1387 0.648 . S
C2347 C276 0.647 . S
C2382 C367 2.189 1_565 S
C2377 C55 2.175 . S
C2412 C1388 2.086 . S
C2407 C96 2.103 . S
C2437 C88 2.014 . S
C2442 C535 2.019 . S
C2467 C75 1.797 . S
C2472 C1306 1.655 . S
C2502 C718 1.654 . S
C2497 C4 1.797 . S
C2527 C44 2.022 . S
C2532 C1123 2.030 . S
C2562 C884 2.085 1_565 S
C2557 C31 2.100 . S
C2592 C1459 2.189 . S
C2587 C18 2.175 . S
C2622 C380 1.806 1_556 S
C2617 C133 1.846 . S
C2652 C1390 1.043 . S
C2647 C296 1.123 . S
C2677 C107 1.358 . S
C2682 C548 1.341 . S
C2707 C264 1.865 . S
C2712 C1291 1.865 . S
C2737 C140 1.865 . S
C2742 C703 1.865 . S
C2772 C1136 1.342 . S
C2767 C289 1.360 . S
C2797 C114 1.125 . S
C2802 C886 1.045 . S
C2827 C265 1.848 . S
C2832 C1472 1.807 . S
C2857 C179 1.065 . S
C2862 C382 1.008 . S
C2887 C161 1.906 . S
C2892 C1052 1.878 . S
C2917 C244 1.553 . S
C2922 C802 1.443 . S
C2947 C224 1.069 . S
C2952 C1207 1.069 . S
C2982 C1474 1.007 . S
C2977 C257 1.000 1_565 S
C3007 C199 1.552 . S
C3012 C550 1.442 . S
C3042 C632 1.877 . S
C3037 C237 1.905 . S
C3072 C451 1.067 . S
C3067 C185 1.067 . S
C3097 C69 1.867 . S
C3102 C1555 1.863 . S
C3132 C1376 1.722 . S
C3127 C83 1.713 . S
C3157 C94 1.589 . S
C3162 C1639 1.591 . S
C3187 C56 1.491 1_655 S
C3192 C1294 1.440 . S
C3217 C42 1.548 . S
C3222 C1042 1.448 . S
C3252 C1135 1.590 . S
C3247 C3 1.595 1_655 S
C3282 C1208 1.722 . S
C3277 C16 1.714 . S
C3312 C1471 1.863 . S
C3307 C36 1.867 . S
C3342 C1544 1.437 . S
C3337 C238 1.469 . S
C3367 C174 0.830 . S
C3372 C1378 0.815 . S
C3402 C1628 1.038 . S
C3397 C186 1.038 . S
C3432 C1303 1.476 . S
C3427 C198 1.480 . S
C3462 C1051 1.478 . S
C3457 C239 1.482 . S
C3487 C173 1.038 . S
C3492 C1124 1.038 . S
C3522 C1210 0.816 . S
C3517 C187 0.832 . S
C3547 C205 1.468 . S
C3552 C1460 1.436 . S
C3582 C1546 0.890 . S
C3577 C290 0.911 . S
C3607 C122 1.582 . S
C3612 C704 1.575 . S
C3642 C790 1.311 . S
C3637 C134 1.375 1_565 S
C3672 C883 0.648 . S
C3667 C148 0.648 . S
C3702 C1462 0.889 . S
C3697 C283 0.910 . S
C3727 C270 1.373 . S
C3732 C1630 1.309 . S
C3762 C620 1.575 . S
C3757 C135 1.582 . S
C3792 C463 0.646 . S
C3787 C109 0.645 . S
C3817 C81 2.175 . S
C3822 C1543 2.189 . S
C3852 C464 2.085 . S
C3847 C68 2.100 . S
C3877 C62 2.014 . S
C3882 C1627 2.019 . S
C3907 C95 1.796 . S
C3912 C634 1.652 . S
C3937 C30 1.797 . S
C3942 C1054 1.654 . S
C3972 C787 2.019 . S
C3967 C17 2.014 . S
C3997 C5 2.101 . S
C4002 C1220 2.085 . S
C4027 C43 2.170 . S
C4032 C955 2.179 . S
C4062 C1556 1.806 . S
C4057 C304 1.846 . S
C4087 C153 1.122 . S
C4092 C466 1.037 . S
C4122 C1640 1.305 1_556 S
C4117 C278 1.359 . S
C4147 C127 1.865 . S
C4152 C619 1.865 . S
C4177 C303 1.861 . S
C4182 C1039 1.861 . S
C4212 C800 1.340 . S
C4207 C146 1.364 . S
C4237 C277 1.123 . S
C4242 C1222 1.042 . S
C4272 C968 1.805 . S
C4267 C120 1.845 . S
C4302 C1558 1.008 . S
C4297 C231 1.065 . S
C4332 C716 1.888 1_565 S
C4327 C200 1.905 . S
C4357 C212 1.555 . S
C4362 C1138 1.445 . S
C4392 C871 1.068 . S
C4387 C172 1.067 . S
C4417 C192 1.063 . S
C4422 C970 1.006 . S
C4447 C160 1.552 . S
C4452 C1642 1.442 . S
C4482 C1304 1.879 . S
C4477 C213 1.907 . S
C4512 C1375 1.069 . S
C4507 C250 1.069 . S
