# Generated by pormake.
# Topology myd, (4,6)-cn, num edge types: 1
# Building blocks:
#     Node 0, Type 0, BuildingBlock: NAWXER_clean_sbu_0, # of connection points: 4
#     Node 1, Type 0, BuildingBlock: NAWXER_clean_sbu_0, # of connection points: 4
#     Node 2, Type 0, BuildingBlock: NAWXER_clean_sbu_0, # of connection points: 4
#     Node 3, Type 0, BuildingBlock: NAWXER_clean_sbu_0, # of connection points: 4
#     Node 4, Type 0, BuildingBlock: NAWXER_clean_sbu_0, # of connection points: 4
#     Node 5, Type 0, BuildingBlock: NAWXER_clean_sbu_0, # of connection points: 4
#     Node 6, Type 0, BuildingBlock: NAWXER_clean_sbu_0, # of connection points: 4
#     Node 7, Type 0, BuildingBlock: NAWXER_clean_sbu_0, # of connection points: 4
#     Node 8, Type 0, BuildingBlock: NAWXER_clean_sbu_0, # of connection points: 4
#     Node 9, Type 0, BuildingBlock: NAWXER_clean_sbu_0, # of connection points: 4
#     Node 10, Type 0, BuildingBlock: NAWXER_clean_sbu_0, # of connection points: 4
#     Node 11, Type 0, BuildingBlock: NAWXER_clean_sbu_0, # of connection points: 4
#     Node 12, Type 1, BuildingBlock: VOLQOD_clean_sbu_1, # of connection points: 6
#     Node 13, Type 1, BuildingBlock: VOLQOD_clean_sbu_1, # of connection points: 6
#     Node 14, Type 1, BuildingBlock: VOLQOD_clean_sbu_1, # of connection points: 6
#     Node 15, Type 1, BuildingBlock: VOLQOD_clean_sbu_1, # of connection points: 6
#     Node 16, Type 1, BuildingBlock: VOLQOD_clean_sbu_1, # of connection points: 6
#     Node 17, Type 1, BuildingBlock: VOLQOD_clean_sbu_1, # of connection points: 6
#     Node 18, Type 1, BuildingBlock: VOLQOD_clean_sbu_1, # of connection points: 6
#     Node 19, Type 1, BuildingBlock: VOLQOD_clean_sbu_1, # of connection points: 6
#     Edge 20, Type (0, 1), BuildingBlock: EZIPEK_clean_linker_0, # of connection points: 2
#     Edge 21, Type (0, 1), BuildingBlock: EZIPEK_clean_linker_0, # of connection points: 2
#     Edge 22, Type (0, 1), BuildingBlock: EZIPEK_clean_linker_0, # of connection points: 2
#     Edge 23, Type (0, 1), BuildingBlock: EZIPEK_clean_linker_0, # of connection points: 2
#     Edge 24, Type (0, 1), BuildingBlock: EZIPEK_clean_linker_0, # of connection points: 2
#     Edge 25, Type (0, 1), BuildingBlock: EZIPEK_clean_linker_0, # of connection points: 2
#     Edge 26, Type (0, 1), BuildingBlock: EZIPEK_clean_linker_0, # of connection points: 2
#     Edge 27, Type (0, 1), BuildingBlock: EZIPEK_clean_linker_0, # of connection points: 2
#     Edge 28, Type (0, 1), BuildingBlock: EZIPEK_clean_linker_0, # of connection points: 2
#     Edge 29, Type (0, 1), BuildingBlock: EZIPEK_clean_linker_0, # of connection points: 2
#     Edge 30, Type (0, 1), BuildingBlock: EZIPEK_clean_linker_0, # of connection points: 2
#     Edge 31, Type (0, 1), BuildingBlock: EZIPEK_clean_linker_0, # of connection points: 2
#     Edge 32, Type (0, 1), BuildingBlock: EZIPEK_clean_linker_0, # of connection points: 2
#     Edge 33, Type (0, 1), BuildingBlock: EZIPEK_clean_linker_0, # of connection points: 2
#     Edge 34, Type (0, 1), BuildingBlock: EZIPEK_clean_linker_0, # of connection points: 2
#     Edge 35, Type (0, 1), BuildingBlock: EZIPEK_clean_linker_0, # of connection points: 2
#     Edge 36, Type (0, 1), BuildingBlock: EZIPEK_clean_linker_0, # of connection points: 2
#     Edge 37, Type (0, 1), BuildingBlock: EZIPEK_clean_linker_0, # of connection points: 2
#     Edge 38, Type (0, 1), BuildingBlock: EZIPEK_clean_linker_0, # of connection points: 2
#     Edge 39, Type (0, 1), BuildingBlock: EZIPEK_clean_linker_0, # of connection points: 2
#     Edge 40, Type (0, 1), BuildingBlock: EZIPEK_clean_linker_0, # of connection points: 2
#     Edge 41, Type (0, 1), BuildingBlock: EZIPEK_clean_linker_0, # of connection points: 2
#     Edge 42, Type (0, 1), BuildingBlock: EZIPEK_clean_linker_0, # of connection points: 2
#     Edge 43, Type (0, 1), BuildingBlock: EZIPEK_clean_linker_0, # of connection points: 2
#     Edge 44, Type (0, 1), BuildingBlock: EZIPEK_clean_linker_0, # of connection points: 2
#     Edge 45, Type (0, 1), BuildingBlock: EZIPEK_clean_linker_0, # of connection points: 2
#     Edge 46, Type (0, 1), BuildingBlock: EZIPEK_clean_linker_0, # of connection points: 2
#     Edge 47, Type (0, 1), BuildingBlock: EZIPEK_clean_linker_0, # of connection points: 2
#     Edge 48, Type (0, 1), BuildingBlock: EZIPEK_clean_linker_0, # of connection points: 2
#     Edge 49, Type (0, 1), BuildingBlock: EZIPEK_clean_linker_0, # of connection points: 2
#     Edge 50, Type (0, 1), BuildingBlock: EZIPEK_clean_linker_0, # of connection points: 2
#     Edge 51, Type (0, 1), BuildingBlock: EZIPEK_clean_linker_0, # of connection points: 2
#     Edge 52, Type (0, 1), BuildingBlock: EZIPEK_clean_linker_0, # of connection points: 2
#     Edge 53, Type (0, 1), BuildingBlock: EZIPEK_clean_linker_0, # of connection points: 2
#     Edge 54, Type (0, 1), BuildingBlock: EZIPEK_clean_linker_0, # of connection points: 2
#     Edge 55, Type (0, 1), BuildingBlock: EZIPEK_clean_linker_0, # of connection points: 2
#     Edge 56, Type (0, 1), BuildingBlock: EZIPEK_clean_linker_0, # of connection points: 2
#     Edge 57, Type (0, 1), BuildingBlock: EZIPEK_clean_linker_0, # of connection points: 2
#     Edge 58, Type (0, 1), BuildingBlock: EZIPEK_clean_linker_0, # of connection points: 2
#     Edge 59, Type (0, 1), BuildingBlock: EZIPEK_clean_linker_0, # of connection points: 2
#     Edge 60, Type (0, 1), BuildingBlock: EZIPEK_clean_linker_0, # of connection points: 2
#     Edge 61, Type (0, 1), BuildingBlock: EZIPEK_clean_linker_0, # of connection points: 2
#     Edge 62, Type (0, 1), BuildingBlock: EZIPEK_clean_linker_0, # of connection points: 2
#     Edge 63, Type (0, 1), BuildingBlock: EZIPEK_clean_linker_0, # of connection points: 2
#     Edge 64, Type (0, 1), BuildingBlock: EZIPEK_clean_linker_0, # of connection points: 2
#     Edge 65, Type (0, 1), BuildingBlock: EZIPEK_clean_linker_0, # of connection points: 2
#     Edge 66, Type (0, 1), BuildingBlock: EZIPEK_clean_linker_0, # of connection points: 2
#     Edge 67, Type (0, 1), BuildingBlock: EZIPEK_clean_linker_0, # of connection points: 2
# Relax obj value: 0.200
# Max RMSD: 0.165
# Mean RMSD: 0.125
data_MOF--net-myd--node1-NAWXER_clean_sbu_0--node2-VOLQOD_clean_sbu_1--edge1-EZIPEK_clean_linker_0
_symmetry_space_group_name_H-M    P1
_symmetry_Int_Tables_number       1
_symmetry_cell_setting            triclinic
loop_
_symmetry_equiv_pos_as_xyz
'x, y, z'
_cell_length_a     34.863001
_cell_length_b     34.893196
_cell_length_c     34.852144
_cell_angle_alpha  91.252857
_cell_angle_beta   90.370399
_cell_angle_gamma 91.094601
loop_
_atom_site_label
_atom_site_type_symbol
_atom_site_fract_x
_atom_site_fract_y
_atom_site_fract_z
_atom_type_partial_charge
C0 C 0.04326 0.20676 0.27715 0.0
C1 C 0.03115 0.30903 0.37488 0.0
O2 O 0.0713 0.22473 0.29351 0.0
Zn3 Zn 0.03993 0.25482 0.32874 0.0
O4 O 0.00875 0.21353 0.28725 0.0
Zn5 Zn 0.97845 0.24876 0.3275 0.0
O6 O 0.94817 0.27782 0.29178 0.0
O7 O 0.01077 0.28894 0.28784 0.0
O8 O 0.99894 0.29428 0.36389 0.0
O9 O 0.06214 0.29352 0.36419 0.0
O10 O 0.01824 0.20964 0.36248 0.0
O11 O 0.95498 0.21023 0.36012 0.0
C12 C 0.97651 0.29501 0.27627 0.0
C13 C 0.98575 0.19484 0.37134 0.0
C14 C 0.06132 0.79642 0.22326 0.0
C15 C 0.03983 0.6888 0.13359 0.0
O16 O 0.08748 0.77874 0.20506 0.0
Zn17 Zn 0.05237 0.74502 0.1763 0.0
O18 O 0.02595 0.78719 0.21796 0.0
Zn19 Zn 0.99159 0.7477 0.18412 0.0
O20 O 0.96722 0.71905 0.22494 0.0
O21 O 0.03 0.71124 0.22232 0.0
O22 O 0.00866 0.70192 0.14735 0.0
O23 O 0.07146 0.70637 0.14057 0.0
O24 O 0.02531 0.78772 0.14332 0.0
O25 O 0.96293 0.78339 0.15276 0.0
C26 C 0.99753 0.70388 0.23785 0.0
C27 C 0.99159 0.80049 0.13792 0.0
C28 C 0.3801 0.96686 0.19252 0.0
C29 C 0.28245 0.97004 0.29347 0.0
O30 O 0.36415 0.93741 0.20694 0.0
Zn31 Zn 0.3338 0.96425 0.24536 0.0
O32 O 0.37456 1.00011 0.20769 0.0
Zn33 Zn 0.34085 0.02601 0.2518 0.0
O34 O 0.37478 0.04256 0.29568 0.0
O35 O 0.37399 0.98011 0.28845 0.0
O36 O 0.29699 0.00247 0.28495 0.0
O37 O 0.29501 0.93951 0.27753 0.0
O38 O 0.29717 0.99668 0.20981 0.0
O39 O 0.30806 0.05867 0.21998 0.0
C40 C 0.38482 0.00991 0.30769 0.0
C41 C 0.28941 0.03148 0.20259 0.0
C42 C 0.75397 0.46475 0.20242 0.0
C43 C 0.65885 0.4779 0.3058 0.0
O44 O 0.73832 0.43691 0.22 0.0
Zn45 Zn 0.70533 0.46718 0.25393 0.0
O46 O 0.7442 0.49903 0.21052 0.0
Zn47 Zn 0.70495 0.52845 0.24541 0.0
O48 O 0.73934 0.56015 0.2787 0.0
O49 O 0.74603 0.49827 0.28719 0.0
O50 O 0.66582 0.50817 0.28689 0.0
O51 O 0.67513 0.4468 0.29599 0.0
O52 O 0.66361 0.48571 0.21455 0.0
O53 O 0.67189 0.54744 0.20497 0.0
C54 C 0.75587 0.53284 0.2956 0.0
C55 C 0.65507 0.51565 0.19613 0.0
C56 C 0.22252 0.35586 0.04826 0.0
C57 C 0.3213 0.25754 0.03163 0.0
O58 O 0.22811 0.344 0.01384 0.0
Zn59 Zn 0.2642 0.30788 0.98225 0.0
O60 O 0.24431 0.34467 0.07513 0.0
Zn61 Zn 0.27412 0.30848 0.04423 0.0
O62 O 0.31153 0.34447 0.0134 0.0
O63 O 0.29465 0.34364 0.95219 0.0
O64 O 0.31016 0.27056 0.06414 0.0
O65 O 0.30695 0.27088 1.00103 0.0
O66 O 0.22747 0.26914 0.96118 0.0
O67 O 0.23056 0.2701 0.02435 0.0
C68 C 0.31709 0.35552 0.97912 0.0
C69 C 0.21607 0.25615 0.99321 0.0
C70 C 0.22496 0.73844 0.45925 0.0
C71 C 0.3328 0.65085 0.47844 0.0
O72 O 0.24588 0.72492 0.43246 0.0
Zn73 Zn 0.27844 0.69256 0.46475 0.0
O74 O 0.23011 0.72756 0.49354 0.0
Zn75 Zn 0.26439 0.69072 0.52533 0.0
O76 O 0.28771 0.72849 0.56084 0.0
O77 O 0.3051 0.73488 0.50028 0.0
O78 O 0.31238 0.6575 0.50827 0.0
O79 O 0.32333 0.66515 0.44649 0.0
O80 O 0.23907 0.64882 0.47915 0.0
O81 O 0.22463 0.65502 0.54022 0.0
C82 C 0.3068 0.74614 0.53539 0.0
C83 C 0.21829 0.63924 0.50744 0.0
C84 C 0.71363 0.8583 0.52782 0.0
C85 C 0.82049 0.76773 0.51666 0.0
O86 O 0.71964 0.84483 0.49405 0.0
Zn87 Zn 0.75891 0.81011 0.46486 0.0
O88 O 0.7364 0.85011 0.55507 0.0
Zn89 Zn 0.769 0.81438 0.52686 0.0
O90 O 0.80472 0.85052 0.49431 0.0
O91 O 0.78856 0.84592 0.43313 0.0
O92 O 0.80841 0.78093 0.5488 0.0
O93 O 0.80454 0.77831 0.48579 0.0
O94 O 0.72624 0.76627 0.44657 0.0
O95 O 0.72987 0.77028 0.50966 0.0
C96 C 0.81064 0.85974 0.45953 0.0
C97 C 0.71699 0.75324 0.47929 0.0
C98 C 0.48177 0.79644 0.76464 0.0
C99 C 0.47596 0.69568 0.8605 0.0
O100 O 0.45113 0.77872 0.77443 0.0
Zn101 Zn 0.47512 0.7463 0.81283 0.0
O102 O 0.5137 0.78714 0.77944 0.0
Zn103 Zn 0.53742 0.74824 0.81764 0.0
O104 O 0.56602 0.71578 0.78149 0.0
O105 O 0.50337 0.70772 0.77557 0.0
O106 O 0.50984 0.70762 0.85258 0.0
O107 O 0.44688 0.71126 0.84553 0.0
O108 O 0.49787 0.78931 0.85113 0.0
O109 O 0.56119 0.78551 0.85336 0.0
C110 C 0.53724 0.69907 0.76516 0.0
C111 C 0.53044 0.80221 0.86323 0.0
C112 C 0.48706 0.20697 0.74 0.0
C113 C 0.48457 0.30232 0.63918 0.0
O114 O 0.4573 0.22088 0.72464 0.0
Zn115 Zn 0.48367 0.25308 0.68758 0.0
O116 O 0.52034 0.21752 0.72865 0.0
Zn117 Zn 0.54534 0.25588 0.68901 0.0
O118 O 0.57107 0.29137 0.72465 0.0
O119 O 0.50831 0.29701 0.72362 0.0
O120 O 0.51848 0.29389 0.65012 0.0
O121 O 0.45558 0.28388 0.65174 0.0
O122 O 0.51133 0.21172 0.65261 0.0
O123 O 0.5742 0.22142 0.65653 0.0
C124 C 0.54118 0.30839 0.73626 0.0
C125 C 0.54542 0.20214 0.64363 0.0
C126 C 0.77838 0.48187 0.70695 0.0
C127 C 0.8809 0.47101 0.80549 0.0
O128 O 0.79247 0.5134 0.72066 0.0
Zn129 Zn 0.8322 0.53447 0.76281 0.0
O130 O 0.79151 0.45031 0.71886 0.0
Zn131 Zn 0.83111 0.47263 0.75422 0.0
O132 O 0.79496 0.49353 0.79798 0.0
O133 O 0.79529 0.55665 0.79918 0.0
O134 O 0.86824 0.44368 0.78376 0.0
O135 O 0.86943 0.50509 0.80002 0.0
O136 O 0.86749 0.56406 0.73107 0.0
O137 O 0.86609 0.50241 0.71556 0.0
C138 C 0.78212 0.52497 0.81173 0.0
C139 C 0.87774 0.53656 0.70901 0.0
C140 C 0.2524 0.97445 0.71835 0.0
C141 C 0.14483 0.98692 0.8109 0.0
O142 O 0.23782 0.94607 0.73612 0.0
Zn143 Zn 0.19601 0.97466 0.76145 0.0
O144 O 0.23738 0.00742 0.72196 0.0
Zn145 Zn 0.19251 0.03589 0.75058 0.0
O146 O 0.22427 0.07051 0.78511 0.0
O147 O 0.23135 0.00937 0.79674 0.0
O148 O 0.15141 0.0162 0.79042 0.0
O149 O 0.16239 0.95606 0.80277 0.0
O150 O 0.16091 0.98837 0.71319 0.0
O151 O 0.16227 0.051 0.70556 0.0
C152 C 0.24027 0.04429 0.80424 0.0
C153 C 0.15141 0.01763 0.69379 0.0
C154 C 0.71485 0.13674 0.96326 0.0
C155 C 0.81567 0.23721 0.96671 0.0
O156 O 0.72078 0.15311 0.99603 0.0
Zn157 Zn 0.7583 0.19359 0.02263 0.0
O158 O 0.73685 0.14455 0.93533 0.0
Zn159 Zn 0.76744 0.18512 0.96074 0.0
O160 O 0.80579 0.15456 0.99555 0.0
O161 O 0.79231 0.16426 0.0567 0.0
O162 O 0.8053 0.2198 0.93561 0.0
O163 O 0.79971 0.22841 0.99814 0.0
O164 O 0.72362 0.23549 0.03776 0.0
O165 O 0.72486 0.22622 0.97524 0.0
C166 C 0.81318 0.1489 0.03089 0.0
C167 C 0.71205 0.24471 0.00438 0.0
O168 O 0.12279 0.02358 0.12358 0.0
Zn169 Zn 0.06612 0.02551 0.10943 0.0
O170 O 0.0609 0.04589 0.05801 0.0
Zn171 Zn 0.0461 0.09862 0.06394 0.0
Zn172 Zn 0.10999 0.04463 0.03225 0.0
Zn173 Zn 0.02204 0.01763 0.0276 0.0
O174 O 0.98977 0.10337 0.0542 0.0
O175 O 0.9715 0.04797 0.02634 0.0
O176 O 0.04554 0.06252 0.15034 0.0
O177 O 0.05501 0.11596 0.11802 0.0
O178 O 0.07695 0.13522 0.03178 0.0
O179 O 0.12399 0.09695 0.01413 0.0
O180 O 0.10684 0.01162 0.98404 0.0
O181 O 0.0401 0.97246 0.11042 0.0
O182 O 0.04364 0.00704 0.97352 0.0
O183 O 0.01122 0.96671 0.05305 0.0
C184 C 0.15403 0.02812 0.10519 0.0
C185 C 0.96374 0.08151 0.0394 0.0
C186 C 0.10872 0.12972 0.015 0.0
C187 C 0.04973 0.09893 0.14947 0.0
C188 C 0.07825 0.00285 0.96227 0.0
C189 C 0.01998 0.95316 0.08565 0.0
O190 O 0.15388 0.03393 0.06917 0.0
O191 O 0.91262 0.46944 0.11434 0.0
Zn192 Zn 0.96777 0.46214 0.10191 0.0
O193 O 0.97252 0.43893 0.05148 0.0
Zn194 Zn 0.99118 0.38695 0.05531 0.0
Zn195 Zn 0.92371 0.43861 0.02598 0.0
Zn196 Zn 0.00767 0.46841 0.02106 0.0
O197 O 0.04766 0.38667 0.04611 0.0
O198 O 0.06063 0.44631 0.0281 0.0
O199 O 0.98141 0.42494 0.14342 0.0
O200 O 0.98494 0.37038 0.10955 0.0
O201 O 0.96104 0.34811 0.02214 0.0
O202 O 0.91223 0.38569 0.00905 0.0
O203 O 0.92538 0.46627 0.97627 0.0
O204 O 0.99522 0.51401 0.10401 0.0
O205 O 0.98826 0.46646 0.96502 0.0
O206 O 0.01185 0.52263 0.0429 0.0
C207 C 0.88102 0.46254 0.09694 0.0
C208 C 0.07161 0.41324 0.03794 0.0
C209 C 0.92808 0.35328 0.00737 0.0
C210 C 0.98274 0.38839 0.14159 0.0
C211 C 0.95353 0.46848 0.95317 0.0
C212 C 0.00843 0.53513 0.07741 0.0
O213 O 0.87996 0.45149 0.06186 0.0
O214 O 0.13176 0.89527 0.4707 0.0
Zn215 Zn 0.11463 0.94943 0.46562 0.0
O216 O 0.06423 0.95062 0.44213 0.0
Zn217 Zn 0.06741 0.97574 0.3927 0.0
Zn218 Zn 0.04485 0.89816 0.43475 0.0
Zn219 Zn 0.02937 0.97857 0.47542 0.0
O220 O 0.03737 0.02491 0.39286 0.0
O221 O 0.0196 0.03099 0.45403 0.0
O222 O 0.15548 0.96871 0.43011 0.0
O223 O 0.12169 0.98807 0.38018 0.0
O224 O 0.05626 0.93863 0.34838 0.0
O225 O 0.0444 0.88494 0.37935 0.0
O226 O 0.98991 0.89238 0.45152 0.0
O227 O 0.11444 0.97546 0.51779 0.0
O228 O 0.97701 0.95145 0.47238 0.0
O229 O 0.05257 0.98496 0.53014 0.0
C230 C 0.11696 0.86233 0.46333 0.0
C231 C 0.02231 0.04417 0.42028 0.0
C232 C 0.05046 0.90248 0.34844 0.0
C233 C 0.15357 0.9814 0.39625 0.0
C234 C 0.966 0.91748 0.46258 0.0
C235 C 0.08783 0.98533 0.54083 0.0
O236 O 0.08203 0.85831 0.45273 0.0
O237 O 0.9931 0.62426 0.40202 0.0
Zn238 Zn 0.99336 0.60779 0.45712 0.0
O239 O 0.96938 0.55751 0.4597 0.0
Zn240 Zn 0.91843 0.56289 0.47978 0.0
Zn241 Zn 0.96794 0.53518 0.40839 0.0
Zn242 Zn 0.99769 0.52534 0.49394 0.0
O243 O 0.91263 0.54002 0.53181 0.0
O244 O 0.97334 0.52798 0.54665 0.0
O245 O 0.96535 0.64918 0.48643 0.0
O246 O 0.90961 0.61787 0.49028 0.0
O247 O 0.87755 0.54794 0.44094 0.0
O248 O 0.91313 0.53359 0.38995 0.0
O249 O 0.98944 0.48152 0.40909 0.0
O250 O 0.04755 0.60404 0.47533 0.0
O251 O 0.00207 0.47147 0.47096 0.0
O252 O 0.05159 0.54554 0.49933 0.0
C253 C 0.99549 0.60569 0.37027 0.0
C254 C 0.93854 0.53277 0.55646 0.0
C255 C 0.8807 0.53926 0.40543 0.0
C256 C 0.92989 0.64827 0.49469 0.0
C257 C 1.0001 0.45969 0.43599 0.0
C258 C 0.06664 0.57776 0.49108 0.0
O259 O 0.99386 0.56913 0.3691 0.0
O260 O 0.41355 0.98796 0.62994 0.0
Zn261 Zn 0.46775 0.98396 0.61239 0.0
O262 O 0.46832 0.96064 0.56128 0.0
Zn263 Zn 0.48479 0.90819 0.56527 0.0
Zn264 Zn 0.41666 0.96139 0.54048 0.0
Zn265 Zn 0.5038 0.9875 0.52785 0.0
O266 O 0.53865 0.90169 0.54693 0.0
O267 O 0.5547 0.95941 0.52576 0.0
O268 O 0.48786 0.94993 0.65361 0.0
O269 O 0.48548 0.89494 0.62028 0.0
O270 O 0.44748 0.86938 0.54289 0.0
O271 O 0.39765 0.90743 0.53679 0.0
O272 O 0.41714 0.98318 0.4867 0.0
O273 O 0.4949 0.03546 0.61151 0.0
O274 O 0.47923 0.99406 0.47464 0.0
O275 O 0.51662 0.03921 0.55148 0.0
C276 C 0.38066 0.98659 0.61405 0.0
C277 C 0.56355 0.92523 0.5341 0.0
C278 C 0.41176 0.8742 0.53784 0.0
C279 C 0.48798 0.91349 0.65192 0.0
C280 C 0.44404 0.99304 0.46387 0.0
C281 C 0.5121 0.05363 0.58502 0.0
O282 O 0.37697 0.98244 0.57774 0.0
O283 O 0.61984 0.50106 0.61486 0.0
Zn284 Zn 0.56638 0.51485 0.59896 0.0
O285 O 0.56665 0.53542 0.54732 0.0
Zn286 Zn 0.55265 0.58906 0.5494 0.0
Zn287 Zn 0.61833 0.53157 0.5263 0.0
Zn288 Zn 0.5292 0.50692 0.51461 0.0
O289 O 0.50062 0.59603 0.52574 0.0
O290 O 0.4817 0.5383 0.50415 0.0
O291 O 0.55069 0.55465 0.63911 0.0
O292 O 0.55112 0.60751 0.60456 0.0
O293 O 0.59047 0.6234 0.52272 0.0
O294 O 0.63881 0.58417 0.51181 0.0
O295 O 0.61597 0.5015 0.47684 0.0
O296 O 0.53383 0.46634 0.60012 0.0
O297 O 0.55362 0.49336 0.46376 0.0
O298 O 0.51195 0.45827 0.54017 0.0
C299 C 0.65244 0.49976 0.59871 0.0
C300 C 0.47561 0.57391 0.50951 0.0
C301 C 0.62415 0.61732 0.51057 0.0
C302 C 0.54938 0.59104 0.6368 0.0
C303 C 0.58873 0.49075 0.45428 0.0
C304 C 0.5155 0.44672 0.57442 0.0
O305 O 0.65684 0.50972 0.56402 0.0
O306 O 0.63214 0.41162 0.9867 0.0
Zn307 Zn 0.61371 0.46609 0.97861 0.0
O308 O 0.56408 0.46633 0.95268 0.0
Zn309 Zn 0.56904 0.49277 0.90419 0.0
Zn310 Zn 0.54787 0.41304 0.94423 0.0
Zn311 Zn 0.52519 0.4926 0.98347 0.0
O312 O 0.53564 0.53912 0.90254 0.0
O313 O 0.51095 0.54336 0.96116 0.0
O314 O 0.65555 0.49288 0.94841 0.0
O315 O 0.62341 0.50963 0.89638 0.0
O316 O 0.55749 0.45733 0.85898 0.0
O317 O 0.54884 0.40151 0.8878 0.0
O318 O 0.49331 0.40435 0.96026 0.0
O319 O 0.60742 0.4899 0.03052 0.0
O320 O 0.4754 0.46153 0.98194 0.0
O321 O 0.54502 0.50121 0.03809 0.0
C322 C 0.61603 0.37861 0.98321 0.0
C323 C 0.51575 0.55657 0.92773 0.0
C324 C 0.55213 0.42116 0.85762 0.0
C325 C 0.65445 0.50821 0.9156 0.0
C326 C 0.4675 0.42675 0.97254 0.0
C327 C 0.57935 0.50079 0.05103 0.0
O328 O 0.58246 0.37451 0.96898 0.0
O329 O 0.47601 0.11823 0.89861 0.0
Zn330 Zn 0.48361 0.0989 0.95184 0.0
O331 O 0.46334 0.04714 0.95413 0.0
Zn332 Zn 0.41495 0.04819 0.98055 0.0
Zn333 Zn 0.45687 0.02842 0.90136 0.0
Zn334 Zn 0.49859 0.01503 0.98148 0.0
O335 O 0.41494 0.01271 0.02565 0.0
O336 O 0.4773 0.00174 0.03409 0.0
O337 O 0.4569 0.13662 0.98701 0.0
O338 O 0.4067 0.10045 0.00274 0.0
O339 O 0.37058 0.04165 0.94265 0.0
O340 O 0.40069 0.03053 0.88746 0.0
O341 O 0.47794 0.97435 0.8953 0.0
O342 O 0.54042 0.09814 0.96049 0.0
O343 O 0.50479 0.96539 0.95255 0.0
O344 O 0.55185 0.03972 0.9819 0.0
C345 C 0.47953 0.10139 0.86609 0.0
C346 C 0.44257 0.99999 0.04568 0.0
C347 C 0.37011 0.0368 0.90624 0.0
C348 C 0.42486 0.13238 0.00386 0.0
C349 C 0.49597 0.95346 0.91883 0.0
C350 C 0.5636 0.07276 0.97157 0.0
O351 O 0.48074 0.06493 0.86316 0.0
C352 C 0.97258 0.12366 0.36802 0.0
C353 C 0.98575 0.15666 0.38928 0.0
C354 C 0.02101 0.11574 0.43308 0.0
C355 C 0.00709 0.08274 0.41234 0.0
N356 N 0.96063 0.05505 0.36776 0.0
N357 N 0.01384 0.1837 0.44715 0.0
C358 C 0.97991 0.08667 0.3823 0.0
C359 C 0.00697 0.15243 0.42367 0.0
N360 N 0.95558 0.12726 0.33286 0.0
N361 N 0.04947 0.11252 0.45993 0.0
H362 H 0.00358 0.2108 0.44086 0.0
H363 H 0.02616 0.18206 0.47436 0.0
H364 H 0.06144 0.08647 0.46706 0.0
H365 H 0.0636 0.13606 0.47283 0.0
H366 H 0.95013 0.10403 0.31419 0.0
H367 H 0.94955 0.15352 0.32079 0.0
H368 H 0.93781 0.05666 0.34844 0.0
H369 H 0.96471 0.02756 0.37806 0.0
C370 C 0.04871 0.37962 0.38062 0.0
C371 C 0.03082 0.34648 0.39623 0.0
C372 C 0.99443 0.38749 0.44061 0.0
C373 C 0.01295 0.4204 0.42552 0.0
N374 N 0.06602 0.44675 0.39002 0.0
N375 N 0.99493 0.31842 0.44763 0.0
C376 C 0.04282 0.41607 0.3984 0.0
C377 C 0.00641 0.35036 0.42848 0.0
N378 N 0.06904 0.37706 0.34727 0.0
N379 N 0.96398 0.39153 0.46477 0.0
H380 H 0.0039 0.29099 0.43975 0.0
H381 H 0.97996 0.31947 0.47339 0.0
H382 H 0.95401 0.41813 0.47402 0.0
H383 H 0.94666 0.36862 0.47321 0.0
H384 H 0.07841 0.401 0.33235 0.0
H385 H 0.07372 0.35143 0.33237 0.0
H386 H 0.09063 0.44441 0.3734 0.0
H387 H 0.06304 0.47374 0.40304 0.0
C388 C 0.97542 0.8709 0.14106 0.0
C389 C 0.98845 0.83852 0.11955 0.0
C390 C 0.01934 0.88147 0.07354 0.0
C391 C 0.00644 0.91373 0.09509 0.0
N392 N 0.96332 0.9392 0.14248 0.0
N393 N 0.01318 0.81294 0.06034 0.0
C394 C 0.98153 0.90839 0.12661 0.0
C395 C 0.00715 0.84394 0.08402 0.0
N396 N 0.95986 0.86641 0.17664 0.0
N397 N 0.04501 0.88645 0.04449 0.0
H398 H 0.00404 0.7853 0.06731 0.0
H399 H 0.02355 0.81507 0.0325 0.0
H400 H 0.05501 0.91331 0.03609 0.0
H401 H 0.05876 0.86387 0.03064 0.0
H402 H 0.95472 0.88926 0.19551 0.0
H403 H 0.95469 0.83993 0.1889 0.0
H404 H 0.94174 0.93671 0.16286 0.0
H405 H 0.96705 0.967 0.13251 0.0
C406 C 0.01438 0.64464 0.08159 0.0
C407 C 0.03847 0.65052 0.1142 0.0
C408 C 0.04987 0.5814 0.11572 0.0
C409 C 0.02094 0.57506 0.08739 0.0
N410 N 0.97287 0.6005 0.04526 0.0
N411 N 0.07546 0.62372 0.16578 0.0
C412 C 0.00274 0.60666 0.07039 0.0
C413 C 0.0557 0.61877 0.13196 0.0
N414 N 0.00286 0.67548 0.06126 0.0
N415 N 0.07228 0.55177 0.12666 0.0
H416 H 0.08032 0.65035 0.1792 0.0
H417 H 0.08438 0.60096 0.18228 0.0
H418 H 0.06918 0.52409 0.11496 0.0
H419 H 0.09636 0.55548 0.14432 0.0
H420 H 0.98826 0.67306 0.03514 0.0
H421 H 0.01125 0.70356 0.06874 0.0
H422 H 0.95573 0.62233 0.0353 0.0
H423 H 0.96309 0.57322 0.03664 0.0
C424 C 0.43705 0.98646 0.15415 0.0
C425 C 0.40227 0.96485 0.15609 0.0
C426 C 0.40408 0.95515 0.0861 0.0
C427 C 0.43337 0.98376 0.08381 0.0
N428 N 0.47625 0.02922 0.11652 0.0
N429 N 0.35071 0.93034 0.1224 0.0
C430 C 0.45007 0.99964 0.11806 0.0
C431 C 0.38557 0.9489 0.12176 0.0
N432 N 0.45744 0.99456 0.18702 0.0
N433 N 0.39405 0.93386 0.05409 0.0
H434 H 0.33541 0.92521 0.14733 0.0
H435 H 0.33532 0.92267 0.09759 0.0
H436 H 0.40761 0.93738 0.02775 0.0
H437 H 0.37543 0.91017 0.05471 0.0
H438 H 0.4847 0.00735 0.18717 0.0
H439 H 0.44874 0.98466 0.21371 0.0
H440 H 0.48583 0.04466 0.14076 0.0
H441 H 0.48606 0.04067 0.09097 0.0
C442 C 0.60651 0.54232 0.14935 0.0
C443 C 0.62911 0.51124 0.16191 0.0
C444 C 0.60058 0.47128 0.11022 0.0
C445 C 0.58693 0.50424 0.0926 0.0
N446 N 0.57674 0.57219 0.09458 0.0
N447 N 0.65321 0.4472 0.14574 0.0
C448 C 0.58948 0.54017 0.11203 0.0
C449 C 0.6273 0.47565 0.14053 0.0
N450 N 0.60013 0.57304 0.17321 0.0
N451 N 0.58959 0.43573 0.09653 0.0
H452 H 0.67738 0.44948 0.16321 0.0
H453 H 0.65398 0.42274 0.12805 0.0
H454 H 0.5701 0.43189 0.07382 0.0
H455 H 0.5965 0.41061 0.11049 0.0
H456 H 0.58169 0.595 0.16616 0.0
H457 H 0.6094 0.57424 0.20171 0.0
H458 H 0.5817 0.59981 0.10574 0.0
H459 H 0.56301 0.57096 0.06786 0.0
C460 C 0.42936 0.03329 0.36273 0.0
C461 C 0.40366 0.00484 0.34657 0.0
C462 C 0.41551 0.96556 0.40336 0.0
C463 C 0.43408 0.99689 0.42237 0.0
N464 N 0.45658 0.06251 0.42106 0.0
N465 N 0.36578 0.94638 0.35923 0.0
C466 C 0.4406 0.03134 0.40228 0.0
C467 C 0.39515 0.97147 0.36875 0.0
N468 N 0.44456 0.06112 0.34013 0.0
N469 N 0.41741 0.92968 0.41823 0.0
H470 H 0.34659 0.9495 0.33679 0.0
H471 H 0.35684 0.92453 0.37725 0.0
H472 H 0.43269 0.92394 0.44324 0.0
H473 H 0.40762 0.90512 0.40333 0.0
H474 H 0.46577 0.08055 0.3497 0.0
H475 H 0.43953 0.06189 0.31065 0.0
H476 H 0.45826 0.08959 0.40909 0.0
H477 H 0.46546 0.06187 0.44968 0.0
C478 C 0.6137 0.44977 0.35541 0.0
C479 C 0.63594 0.4814 0.34182 0.0
C480 C 0.61262 0.52044 0.39576 0.0
C481 C 0.59852 0.48713 0.41335 0.0
N482 N 0.58612 0.41913 0.41115 0.0
N483 N 0.66282 0.54561 0.35704 0.0
C484 C 0.59898 0.4514 0.39351 0.0
C485 C 0.63683 0.51665 0.36379 0.0
N486 N 0.60518 0.41909 0.33169 0.0
N487 N 0.60371 0.55589 0.41026 0.0
H488 H 0.68483 0.54438 0.33724 0.0
H489 H 0.66606 0.56959 0.37524 0.0
H490 H 0.58592 0.55975 0.43396 0.0
H491 H 0.6105 0.58115 0.39613 0.0
H492 H 0.58674 0.39676 0.33943 0.0
H493 H 0.61269 0.41817 0.30279 0.0
H494 H 0.58955 0.39164 0.39957 0.0
H495 H 0.57408 0.41997 0.4385 0.0
C496 C 0.1603 0.37142 0.08239 0.0
C497 C 0.18864 0.38045 0.05471 0.0
C498 C 0.14132 0.41579 0.01779 0.0
C499 C 0.11295 0.40639 0.04513 0.0
N500 N 0.09999 0.38962 0.11078 0.0
N501 N 0.20926 0.42354 0.00553 0.0
C502 C 0.12394 0.38888 0.07987 0.0
C503 C 0.18011 0.40712 0.02577 0.0
N504 N 0.16658 0.34456 0.10954 0.0
N505 N 0.13129 0.43045 0.98318 0.0
H506 H 0.23798 0.41811 0.01154 0.0
H507 H 0.20507 0.44539 0.98611 0.0
H508 H 0.10306 0.43575 0.97528 0.0
H509 H 0.15073 0.43396 0.96089 0.0
H510 H 0.14474 0.33367 0.12671 0.0
H511 H 0.19265 0.33127 0.11365 0.0
H512 H 0.10808 0.38014 0.13776 0.0
H513 H 0.07396 0.40389 0.11069 0.0
C514 C 0.16288 0.61478 0.46446 0.0
C515 C 0.18334 0.61466 0.50042 0.0
C516 C 0.1279 0.58307 0.53002 0.0
C517 C 0.10845 0.58339 0.49431 0.0
N518 N 0.11368 0.583 0.42556 0.0
N519 N 0.18986 0.5842 0.56174 0.0
C520 C 0.12834 0.5933 0.46086 0.0
C521 C 0.16734 0.59403 0.53146 0.0
N522 N 0.17326 0.63766 0.43466 0.0
N523 N 0.10864 0.57404 0.56268 0.0
H524 H 0.21945 0.58932 0.56227 0.0
H525 H 0.18005 0.56686 0.58373 0.0
H526 H 0.07976 0.56572 0.56265 0.0
H527 H 0.12077 0.57743 0.58999 0.0
H528 H 0.15587 0.64073 0.41051 0.0
H529 H 0.19571 0.65749 0.43458 0.0
H530 H 0.12899 0.5866 0.40023 0.0
H531 H 0.08828 0.5669 0.42213 0.0
C532 C 0.87354 0.87098 0.42402 0.0
C533 C 0.84637 0.88266 0.45205 0.0
C534 C 0.89726 0.91918 0.48668 0.0
C535 C 0.92411 0.90823 0.45826 0.0
N536 N 0.93267 0.88766 0.39213 0.0
N537 N 0.83025 0.92925 0.5011 0.0
C538 C 0.91066 0.88855 0.42444 0.0
C539 C 0.85762 0.91082 0.48023 0.0
N540 N 0.86548 0.84171 0.39838 0.0
N541 N 0.9094 0.93532 0.5208 0.0
H542 H 0.80098 0.92437 0.49607 0.0
H543 H 0.83658 0.9521 0.51998 0.0
H544 H 0.93824 0.94005 0.52774 0.0
H545 H 0.89099 0.94035 0.54373 0.0
H546 H 0.88645 0.82951 0.38103 0.0
H547 H 0.83909 0.82754 0.396 0.0
H548 H 0.92263 0.8764 0.36591 0.0
H549 H 0.95884 0.90246 0.39017 0.0
C550 C 0.39168 0.6394 0.5174 0.0
C551 C 0.36984 0.63078 0.48371 0.0
C552 C 0.41919 0.58495 0.46411 0.0
C553 C 0.43741 0.59011 0.50057 0.0
N554 N 0.43112 0.61232 0.56621 0.0
N555 N 0.35969 0.58919 0.428 0.0
C556 C 0.42057 0.61426 0.52855 0.0
C557 C 0.38265 0.60177 0.45773 0.0
N558 N 0.3865 0.67267 0.53789 0.0
N559 N 0.43711 0.56545 0.43519 0.0
H560 H 0.33241 0.59984 0.42312 0.0
H561 H 0.36627 0.56565 0.41052 0.0
H562 H 0.46408 0.55351 0.43842 0.0
H563 H 0.42667 0.56418 0.4071 0.0
H564 H 0.40399 0.68092 0.56115 0.0
H565 H 0.36865 0.69419 0.52845 0.0
H566 H 0.41739 0.62775 0.58793 0.0
H567 H 0.44976 0.59156 0.57593 0.0
C568 C 0.46189 0.62535 0.86624 0.0
C569 C 0.47268 0.66098 0.88397 0.0
C570 C 0.50589 0.62777 0.93534 0.0
C571 C 0.49643 0.59221 0.91675 0.0
N572 N 0.45531 0.55647 0.87253 0.0
N573 N 0.49402 0.69612 0.94033 0.0
C574 C 0.47094 0.59084 0.88485 0.0
C575 C 0.4908 0.66202 0.92046 0.0
N576 N 0.44566 0.62427 0.83043 0.0
N577 N 0.5313 0.62919 0.9654 0.0
H578 H 0.48277 0.72134 0.92972 0.0
H579 H 0.50418 0.69866 0.96845 0.0
H580 H 0.54323 0.60483 0.97703 0.0
H581 H 0.54262 0.65466 0.97722 0.0
H582 H 0.44214 0.59914 0.81399 0.0
H583 H 0.43756 0.64873 0.81608 0.0
H584 H 0.43382 0.554 0.85167 0.0
H585 H 0.46106 0.53075 0.88599 0.0
C586 C 0.51087 0.84536 0.91699 0.0
C587 C 0.53092 0.84065 0.88208 0.0
C588 C 0.53381 0.91051 0.87513 0.0
C589 C 0.50851 0.91466 0.90661 0.0
N590 N 0.46973 0.88564 0.95572 0.0
N591 N 0.55802 0.86857 0.82514 0.0
C592 C 0.4965 0.88201 0.92742 0.0
C593 C 0.54193 0.87319 0.86059 0.0
N594 N 0.5056 0.81454 0.94002 0.0
N595 N 0.55099 0.94215 0.85975 0.0
H596 H 0.56557 0.84201 0.81357 0.0
H597 H 0.56156 0.89092 0.80607 0.0
H598 H 0.54623 0.96999 0.86988 0.0
H599 H 0.57275 0.94056 0.83946 0.0
H600 H 0.49417 0.81647 0.96751 0.0
H601 H 0.5163 0.78757 0.93292 0.0
H602 H 0.45694 0.86238 0.96918 0.0
H603 H 0.45766 0.91176 0.96354 0.0
C604 C 0.49917 0.33869 0.58056 0.0
C605 C 0.48041 0.33724 0.61635 0.0
C606 C 0.47331 0.40696 0.61613 0.0
C607 C 0.49902 0.4089 0.58487 0.0
N608 N 0.53839 0.37638 0.53789 0.0
N609 N 0.45057 0.37021 0.66973 0.0
C610 C 0.51189 0.3747 0.56659 0.0
C611 C 0.46693 0.37134 0.63423 0.0
N612 N 0.50519 0.3054 0.56035 0.0
N613 N 0.45493 0.43919 0.62835 0.0
H614 H 0.44459 0.34481 0.68386 0.0
H615 H 0.44502 0.39468 0.68627 0.0
H616 H 0.45875 0.46561 0.61526 0.0
H617 H 0.43317 0.43891 0.64869 0.0
H618 H 0.51586 0.30448 0.53251 0.0
H619 H 0.49561 0.27886 0.57021 0.0
H620 H 0.55198 0.35234 0.52667 0.0
H621 H 0.54921 0.40199 0.52713 0.0
C622 C 0.53053 0.16147 0.58642 0.0
C623 C 0.54972 0.16564 0.62217 0.0
C624 C 0.55523 0.09603 0.62519 0.0
C625 C 0.52874 0.09199 0.59428 0.0
N626 N 0.48991 0.12094 0.54541 0.0
N627 N 0.5799 0.13689 0.67687 0.0
C628 C 0.51663 0.12466 0.57421 0.0
C629 C 0.56281 0.13298 0.64156 0.0
N630 N 0.52516 0.19305 0.56469 0.0
N631 N 0.57333 0.06456 0.63862 0.0
H632 H 0.58696 0.16336 0.68968 0.0
H633 H 0.58512 0.11381 0.6945 0.0
H634 H 0.56883 0.03711 0.62674 0.0
H635 H 0.59558 0.06623 0.65873 0.0
H636 H 0.51405 0.19178 0.53688 0.0
H637 H 0.53567 0.22013 0.57334 0.0
H638 H 0.47699 0.14419 0.53273 0.0
H639 H 0.47835 0.0946 0.536 0.0
C640 C 0.92841 0.5147 0.66379 0.0
C641 C 0.90047 0.54239 0.6736 0.0
C642 C 0.90858 0.56995 0.61029 0.0
C643 C 0.92875 0.537 0.59779 0.0
N644 N 0.95595 0.47598 0.61287 0.0
N645 N 0.85991 0.5939 0.65263 0.0
C646 C 0.93868 0.50896 0.62469 0.0
C647 C 0.8897 0.56976 0.64615 0.0
N648 N 0.94518 0.49403 0.69195 0.0
N649 N 0.90837 0.60197 0.58846 0.0
H650 H 0.84392 0.59454 0.6777 0.0
H651 H 0.84873 0.61106 0.63132 0.0
H652 H 0.92429 0.60415 0.56339 0.0
H653 H 0.8966 0.62775 0.59784 0.0
H654 H 0.96793 0.47569 0.68689 0.0
H655 H 0.9391 0.49856 0.72096 0.0
H656 H 0.96014 0.45293 0.63085 0.0
H657 H 0.963 0.47019 0.58434 0.0
C658 C 0.14682 0.98031 0.63132 0.0
C659 C 0.13324 0.01084 0.65491 0.0
C660 C 0.08833 0.02662 0.60275 0.0
C661 C 0.09911 0.99299 0.58189 0.0
N662 N 0.12947 0.93141 0.58425 0.0
N663 N 0.08524 0.05891 0.66519 0.0
C664 C 0.12529 0.96775 0.59883 0.0
C665 C 0.10222 0.0329 0.64128 0.0
N666 N 0.18186 0.96492 0.63796 0.0
N667 N 0.06638 0.05336 0.58551 0.0
H668 H 0.09393 0.06352 0.69362 0.0
H669 H 0.06031 0.07313 0.65789 0.0
H670 H 0.0562 0.05014 0.55743 0.0
H671 H 0.06103 0.08011 0.59802 0.0
H672 H 0.19398 0.94478 0.61936 0.0
H673 H 0.20095 0.97627 0.65845 0.0
H674 H 0.14627 0.91117 0.5977 0.0
H675 H 0.11266 0.9202 0.56163 0.0
C676 C 0.89929 0.43473 0.86517 0.0
C677 C 0.90679 0.46467 0.83903 0.0
C678 C 0.95166 0.49515 0.88601 0.0
C679 C 0.94413 0.46502 0.9115 0.0
N680 N 0.92409 0.39923 0.91842 0.0
N681 N 0.94973 0.51596 0.8201 0.0
C682 C 0.92239 0.43247 0.89863 0.0
C683 C 0.93619 0.49251 0.84803 0.0
N684 N 0.86851 0.41023 0.86027 0.0
N685 N 0.97213 0.52683 0.8984 0.0
H686 H 0.94026 0.51354 0.79168 0.0
H687 H 0.9731 0.53468 0.82417 0.0
H688 H 0.98445 0.52907 0.92574 0.0
H689 H 0.97483 0.55162 0.88242 0.0
H690 H 0.8601 0.3908 0.88106 0.0
H691 H 0.84889 0.41161 0.83779 0.0
H692 H 0.91101 0.37363 0.90881 0.0
H693 H 0.94275 0.3964 0.94164 0.0
C694 C 0.10216 0.95938 0.86344 0.0
C695 C 0.12158 0.99153 0.84719 0.0
C696 C 0.09751 0.03145 0.90082 0.0
C697 C 0.08644 0.99828 0.92061 0.0
N698 N 0.07908 0.92973 0.92174 0.0
N699 N 0.14336 0.05844 0.85803 0.0
C700 C 0.08885 0.96188 0.90217 0.0
C701 C 0.12036 0.02787 0.8675 0.0
N702 N 0.0949 0.92708 0.84158 0.0
N703 N 0.08714 0.06677 0.91452 0.0
H704 H 0.16438 0.05825 0.83719 0.0
H705 H 0.14561 0.08337 0.87499 0.0
H706 H 0.07083 0.07053 0.93929 0.0
H707 H 0.0911 0.09175 0.89902 0.0
H708 H 0.07842 0.90401 0.85115 0.0
H709 H 0.10121 0.92527 0.81241 0.0
H710 H 0.08419 0.9021 0.91131 0.0
H711 H 0.06794 0.93101 0.94947 0.0
C712 C 0.65322 0.87418 0.56459 0.0
C713 C 0.67864 0.8815 0.53386 0.0
C714 C 0.62894 0.91937 0.50267 0.0
C715 C 0.6045 0.91362 0.53446 0.0
N716 N 0.60079 0.89888 0.60172 0.0
N717 N 0.69461 0.92167 0.48045 0.0
C718 C 0.61899 0.89525 0.56735 0.0
C719 C 0.66774 0.9076 0.50507 0.0
N720 N 0.65982 0.84554 0.5898 0.0
N721 N 0.61496 0.93417 0.46956 0.0
H722 H 0.72362 0.91515 0.48267 0.0
H723 H 0.68885 0.9431 0.46097 0.0
H724 H 0.58648 0.94204 0.46615 0.0
H725 H 0.63081 0.93524 0.44434 0.0
H726 H 0.63965 0.83714 0.61009 0.0
H727 H 0.68314 0.82745 0.58818 0.0
H728 H 0.61262 0.88899 0.62712 0.0
H729 H 0.57689 0.91604 0.60553 0.0
C730 C 0.65354 0.11461 0.92882 0.0
C731 C 0.68052 0.11089 0.95924 0.0
C732 C 0.63198 0.07661 0.99687 0.0
C733 C 0.60526 0.08057 0.96653 0.0
N734 N 0.59627 0.08782 0.8984 0.0
N735 N 0.69918 0.07575 0.01498 0.0
C736 C 0.61795 0.09444 0.93074 0.0
C737 C 0.67094 0.08749 0.99083 0.0
N738 N 0.65997 0.1393 0.89956 0.0
N739 N 0.6201 0.06464 0.03197 0.0
H740 H 0.72813 0.08218 0.0103 0.0
H741 H 0.69431 0.05629 0.03676 0.0
H742 H 0.59171 0.05704 0.03778 0.0
H743 H 0.63791 0.06525 0.05611 0.0
H744 H 0.63877 0.14585 0.87963 0.0
H745 H 0.68486 0.15578 0.89662 0.0
H746 H 0.6059 0.09449 0.87104 0.0
H747 H 0.57066 0.07183 0.89855 0.0
C748 C 0.36257 0.40845 0.99943 0.0
C749 C 0.35209 0.37921 0.97206 0.0
C750 C 0.41326 0.39007 0.93999 0.0
C751 C 0.42685 0.41268 0.97188 0.0
N752 N 0.41475 0.43856 0.03555 0.0
N753 N 0.37226 0.33701 0.91997 0.0
C754 C 0.40151 0.42097 0.00252 0.0
C755 C 0.37852 0.36871 0.94305 0.0
N756 N 0.33528 0.42433 0.02241 0.0
N757 N 0.4328 0.3898 0.90621 0.0
H758 H 0.34835 0.31889 0.92187 0.0
H759 H 0.39307 0.32643 0.90139 0.0
H760 H 0.4569 0.40719 0.90184 0.0
H761 H 0.4221 0.37614 0.88138 0.0
H762 H 0.34083 0.44794 0.04057 0.0
H763 H 0.30631 0.4166 0.02001 0.0
H764 H 0.39791 0.44179 0.05996 0.0
H765 H 0.44348 0.44615 0.04018 0.0
C766 C 0.8544 0.09295 0.04955 0.0
C767 C 0.85105 0.13199 0.03984 0.0
C768 C 0.91935 0.13474 0.02379 0.0
C769 C 0.924 0.0969 0.03706 0.0
N770 N 0.89661 0.04261 0.06995 0.0
N771 N 0.88264 0.19264 0.02856 0.0
C772 C 0.89167 0.07657 0.05196 0.0
C773 C 0.88433 0.15365 0.03043 0.0
N774 N 0.82204 0.07138 0.05573 0.0
N775 N 0.94776 0.15215 0.00322 0.0
H776 H 0.85796 0.2075 0.03574 0.0
H777 H 0.90673 0.21025 0.02469 0.0
H778 H 0.97305 0.13848 0.99564 0.0
H779 H 0.94428 0.17831 0.98987 0.0
H780 H 0.82224 0.04174 0.05866 0.0
H781 H 0.7947 0.08306 0.05564 0.0
H782 H 0.87472 0.02856 0.08459 0.0
H783 H 0.9233 0.03012 0.07325 0.0
C784 C 0.02915 0.18673 0.20976 0.0
C785 C 0.04874 0.1796 0.2445 0.0
C786 C 0.06947 0.11771 0.21782 0.0
C787 C 0.04634 0.12344 0.18468 0.0
N788 N 0.9955 0.15868 0.15505 0.0
N789 N 0.08205 0.13541 0.28455 0.0
C790 C 0.02356 0.15657 0.18248 0.0
C791 C 0.06746 0.14426 0.24944 0.0
N792 N 0.0168 0.22275 0.20226 0.0
N793 N 0.09438 0.088 0.21873 0.0
H794 H 0.08143 0.15425 0.30818 0.0
H795 H 0.09209 0.10834 0.29097 0.0
H796 H 0.09663 0.06766 0.1966 0.0
H797 H 0.11498 0.08522 0.24023 0.0
H798 H 0.00556 0.23025 0.17573 0.0
H799 H 0.02184 0.24606 0.22098 0.0
H800 H 0.97589 0.18085 0.15439 0.0
H801 H 0.98894 0.13612 0.13583 0.0
C802 C 0.99125 0.35733 0.24558 0.0
C803 C 0.97158 0.32138 0.24391 0.0
C804 C 0.95276 0.3335 0.1776 0.0
C805 C 0.97836 0.36591 0.17721 0.0
N806 N 0.02763 0.40406 0.21007 0.0
N807 N 0.93831 0.2723 0.20576 0.0
C808 C 0.99898 0.37683 0.21109 0.0
C809 C 0.95332 0.30869 0.20934 0.0
N810 N 0.0022 0.37305 0.28028 0.0
N811 N 0.92693 0.32685 0.14842 0.0
H812 H 0.9384 0.25271 0.22786 0.0
H813 H 0.929 0.26032 0.17958 0.0
H814 H 0.92418 0.34461 0.12501 0.0
H815 H 0.90519 0.30599 0.14959 0.0
H816 H 0.01365 0.40076 0.28344 0.0
H817 H 0.9958 0.35998 0.30619 0.0
H818 H 0.04581 0.41027 0.23332 0.0
H819 H 0.03616 0.41735 0.18494 0.0
C820 C 0.08685 0.81981 0.28687 0.0
C821 C 0.06995 0.82785 0.2511 0.0
C822 C 0.04307 0.88709 0.27746 0.0
C823 C 0.05917 0.87882 0.31373 0.0
N824 N 0.10734 0.84421 0.34906 0.0
N825 N 0.04441 0.87449 0.20877 0.0
C826 C 0.08456 0.84734 0.31724 0.0
C827 C 0.05227 0.86346 0.24527 0.0
N828 N 0.10338 0.78516 0.29256 0.0
N829 N 0.01712 0.9157 0.27405 0.0
H830 H 0.05153 0.85762 0.18484 0.0
H831 H 0.03484 0.90171 0.20226 0.0
H832 H 0.00842 0.93276 0.29719 0.0
H833 H 0.00169 0.92028 0.24893 0.0
H834 H 0.11142 0.77564 0.31951 0.0
H835 H 0.10692 0.76476 0.27066 0.0
H836 H 0.12905 0.82425 0.35119 0.0
H837 H 0.10773 0.86409 0.37173 0.0
C838 C 0.01931 0.68749 0.30412 0.0
C839 C 0.99636 0.67822 0.27133 0.0
C840 C 0.97256 0.62027 0.30276 0.0
C841 C 0.99828 0.62784 0.33417 0.0
N842 N 0.05342 0.66344 0.35896 0.0
N843 N 0.95788 0.63132 0.23584 0.0
C844 C 0.02387 0.65991 0.33308 0.0
C845 C 0.97496 0.64327 0.26955 0.0
N846 N 0.03548 0.7233 0.30852 0.0
N847 N 0.94445 0.5926 0.30508 0.0
H848 H 0.95913 0.64721 0.21086 0.0
H849 H 0.94559 0.60408 0.23171 0.0
H850 H 0.94061 0.57537 0.32875 0.0
H851 H 0.92248 0.58912 0.28482 0.0
H852 H 0.04918 0.73279 0.33373 0.0
H853 H 0.03154 0.74484 0.28868 0.0
H854 H 0.07497 0.68443 0.35725 0.0
H855 H 0.05885 0.64281 0.37944 0.0
C856 C 0.25818 0.01677 0.13885 0.0
C857 C 0.258 0.038 0.17417 0.0
C858 C 0.19349 0.05998 0.15821 0.0
C859 C 0.19081 0.03258 0.12738 0.0
N860 N 0.22052 0.98241 0.09003 0.0
N861 N 0.22261 0.07665 0.21963 0.0
C862 C 0.2233 0.01054 0.11784 0.0
C863 C 0.22504 0.05913 0.18433 0.0
N864 N 0.292 0.00312 0.12508 0.0
N865 N 0.1667 0.08788 0.16176 0.0
H866 H 0.24467 0.07666 0.23992 0.0
H867 H 0.19734 0.08851 0.2299 0.0
H868 H 0.14405 0.09062 0.14237 0.0
H869 H 0.1694 0.11073 0.18143 0.0
H870 H 0.29468 0.99045 0.09791 0.0
H871 H 0.31815 0.00836 0.13918 0.0
H872 H 0.24211 0.96279 0.08474 0.0
H873 H 0.19535 0.97649 0.07451 0.0
C874 C 0.81712 0.43793 0.18072 0.0
C875 C 0.78383 0.45913 0.17263 0.0
C876 C 0.81372 0.48239 0.11336 0.0
C877 C 0.84596 0.45966 0.1207 0.0
N878 N 0.8731 0.40711 0.15499 0.0
N879 N 0.74699 0.49456 0.12667 0.0
C880 C 0.84594 0.43466 0.15237 0.0
C881 C 0.78105 0.47916 0.13745 0.0
N882 N 0.82274 0.42308 0.21626 0.0
N883 N 0.81491 0.50835 0.08456 0.0
H884 H 0.72236 0.49296 0.14329 0.0
H885 H 0.74215 0.5058 0.09966 0.0
H886 H 0.8383 0.51132 0.06629 0.0
H887 H 0.79409 0.52895 0.08069 0.0
H888 H 0.8486 0.41129 0.22476 0.0
H889 H 0.80327 0.42582 0.23864 0.0
H890 H 0.87221 0.38573 0.1754 0.0
H891 H 0.89413 0.40311 0.13425 0.0
C892 C 0.21545 0.95112 0.31222 0.0
C893 C 0.25077 0.96981 0.32164 0.0
C894 C 0.2215 0.99894 0.37922 0.0
C895 C 0.18746 0.97766 0.37126 0.0
N896 N 0.15579 0.92544 0.3359 0.0
N897 N 0.28941 0.00674 0.36792 0.0
C898 C 0.18557 0.95132 0.33949 0.0
C899 C 0.25441 0.9923 0.35632 0.0
N900 N 0.20929 0.93522 0.27644 0.0
N901 N 0.22197 0.02654 0.40769 0.0
H902 H 0.31426 0.00358 0.35198 0.0
H903 H 0.29453 0.0192 0.39494 0.0
H904 H 0.19832 0.03194 0.42505 0.0
H905 H 0.24454 0.04617 0.41203 0.0
H906 H 0.18243 0.92522 0.26695 0.0
H907 H 0.22968 0.93559 0.25473 0.0
H908 H 0.15528 0.9031 0.31556 0.0
H909 H 0.13369 0.92364 0.35573 0.0
C910 C 0.78362 0.5157 0.35965 0.0
C911 C 0.78517 0.53924 0.32659 0.0
C912 C 0.8446 0.56898 0.35184 0.0
C913 C 0.84647 0.54056 0.38027 0.0
N914 N 0.81943 0.48437 0.4094 0.0
N915 N 0.82136 0.58459 0.28878 0.0
C916 C 0.81632 0.51336 0.38387 0.0
C917 C 0.81658 0.56527 0.32214 0.0
N918 N 0.75059 0.49632 0.3687 0.0
N919 N 0.86902 0.60008 0.35371 0.0
H920 H 0.80273 0.58168 0.2654 0.0
H921 H 0.84603 0.6007 0.2829 0.0
H922 H 0.88953 0.60409 0.37545 0.0
H923 H 0.86636 0.62353 0.33595 0.0
H924 H 0.74678 0.48228 0.39452 0.0
H925 H 0.72554 0.49746 0.35251 0.0
H926 H 0.80036 0.46104 0.40998 0.0
H927 H 0.84284 0.48193 0.42793 0.0
C928 C 0.15462 0.21983 0.97298 0.0
C929 C 0.18848 0.22303 0.99617 0.0
C930 C 0.16499 0.1695 0.03458 0.0
C931 C 0.13431 0.16306 0.00842 0.0
N932 N 0.10182 0.17867 0.94994 0.0
N933 N 0.22942 0.19294 0.04351 0.0
C934 C 0.12969 0.18715 0.97665 0.0
C935 C 0.1947 0.1956 0.02533 0.0
N936 N 0.14487 0.24882 0.94929 0.0
N937 N 0.16542 0.15139 0.06906 0.0
H938 H 0.25309 0.21043 0.0383 0.0
H939 H 0.2361 0.1703 0.06125 0.0
H940 H 0.14392 0.13225 0.07759 0.0
H941 H 0.18498 0.15852 0.09094 0.0
H942 H 0.11877 0.24943 0.93463 0.0
H943 H 0.1609 0.27416 0.94723 0.0
H944 H 0.09961 0.19279 0.92401 0.0
H945 H 0.0827 0.1555 0.95259 0.0
C946 C 0.20409 0.80312 0.43603 0.0
C947 C 0.19491 0.76756 0.45306 0.0
C948 C 0.13475 0.7943 0.47781 0.0
C949 C 0.14312 0.8292 0.45941 0.0
N950 N 0.18062 0.86262 0.41171 0.0
N951 N 0.14694 0.72645 0.48152 0.0
C952 C 0.1762 0.83233 0.43567 0.0
C953 C 0.15869 0.7623 0.47113 0.0
N954 N 0.2401 0.8102 0.42223 0.0
N955 N 0.10514 0.79217 0.50323 0.0
H956 H 0.16352 0.70232 0.47682 0.0
H957 H 0.11939 0.72007 0.49119 0.0
H958 H 0.08747 0.81523 0.50952 0.0
H959 H 0.10028 0.76876 0.52072 0.0
H960 H 0.24961 0.83733 0.41417 0.0
H961 H 0.26179 0.79013 0.42198 0.0
H962 H 0.20176 0.8639 0.39075 0.0
H963 H 0.16097 0.88458 0.40971 0.0
C964 C 0.8827 0.73647 0.53848 0.0
C965 C 0.85073 0.73811 0.51275 0.0
C966 C 0.88194 0.6916 0.47037 0.0
C967 C 0.90879 0.68412 0.49933 0.0
N968 N 0.93401 0.69719 0.56275 0.0
N969 N 0.81653 0.7063 0.45877 0.0
C970 C 0.9091 0.70592 0.53403 0.0
C971 C 0.84938 0.71276 0.47984 0.0
N972 N 0.88925 0.76469 0.56561 0.0
N973 N 0.88695 0.67745 0.43387 0.0
H974 H 0.79002 0.71748 0.46553 0.0
H975 H 0.81441 0.68533 0.43703 0.0
H976 H 0.91101 0.66187 0.4259 0.0
H977 H 0.86944 0.68492 0.41094 0.0
H978 H 0.91388 0.76604 0.58271 0.0
H979 H 0.87258 0.78902 0.56818 0.0
H980 H 0.93264 0.70942 0.59024 0.0
H981 H 0.95448 0.67595 0.55947 0.0
C982 C 0.36122 0.78219 0.56897 0.0
C983 C 0.32926 0.78162 0.54372 0.0
C984 C 0.35353 0.83913 0.51274 0.0
C985 C 0.3847 0.84111 0.53898 0.0
N986 N 0.41013 0.82167 0.60045 0.0
N987 N 0.2882 0.81716 0.50224 0.0
C988 C 0.38638 0.81471 0.56962 0.0
C989 C 0.32322 0.81271 0.51912 0.0
N990 N 0.36834 0.75156 0.59148 0.0
N991 N 0.35345 0.86128 0.48088 0.0
H992 H 0.26491 0.79892 0.50779 0.0
H993 H 0.28126 0.84136 0.4868 0.0
H994 H 0.37619 0.87968 0.47402 0.0
H995 H 0.33275 0.85823 0.45925 0.0
H996 H 0.39386 0.74879 0.60683 0.0
H997 H 0.34989 0.7278 0.59289 0.0
H998 H 0.40959 0.80506 0.62494 0.0
H999 H 0.42711 0.8464 0.60371 0.0
C1000 C 0.51718 0.67355 0.69989 0.0
C1001 C 0.54142 0.67085 0.73277 0.0
C1002 C 0.5714 0.61437 0.7031 0.0
C1003 C 0.54484 0.61551 0.67198 0.0
N1004 N 0.48545 0.63936 0.64741 0.0
N1005 N 0.58503 0.63263 0.76936 0.0
C1006 C 0.51566 0.64308 0.67244 0.0
C1007 C 0.56678 0.63957 0.73546 0.0
N1008 N 0.49651 0.70579 0.69377 0.0
N1009 N 0.60179 0.5903 0.70137 0.0
H1010 H 0.5814 0.64939 0.79413 0.0
H1011 H 0.60065 0.60798 0.77399 0.0
H1012 H 0.60604 0.57107 0.67862 0.0
H1013 H 0.62438 0.59155 0.72111 0.0
H1014 H 0.48205 0.71061 0.6681 0.0
H1015 H 0.49675 0.72949 0.71233 0.0
H1016 H 0.46131 0.65649 0.64889 0.0
H1017 H 0.48252 0.61615 0.62827 0.0
C1018 C 0.51559 0.83411 0.71379 0.0
C1019 C 0.48232 0.82835 0.7369 0.0
C1020 C 0.45339 0.88403 0.70711 0.0
C1021 C 0.488 0.89097 0.6871 0.0
N1022 N 0.55556 0.88126 0.68273 0.0
N1023 N 0.42491 0.85667 0.76351 0.0
C1024 C 0.52029 0.86888 0.69438 0.0
C1025 C 0.45258 0.85581 0.73596 0.0
N1026 N 0.5418 0.80591 0.70822 0.0
N1027 N 0.42112 0.9036 0.69809 0.0
H1028 H 0.42476 0.83887 0.78709 0.0
H1029 H 0.40472 0.87827 0.76543 0.0
H1030 H 0.42103 0.92539 0.67807 0.0
H1031 H 0.39412 0.89645 0.70879 0.0
H1032 H 0.56439 0.80844 0.68892 0.0
H1033 H 0.53875 0.77841 0.71876 0.0
H1034 H 0.58082 0.86753 0.69001 0.0
H1035 H 0.55947 0.90796 0.67027 0.0
C1036 C 0.51218 0.34802 0.78996 0.0
C1037 C 0.54336 0.34112 0.76445 0.0
C1038 C 0.57988 0.39342 0.79679 0.0
C1039 C 0.54788 0.40069 0.82039 0.0
N1040 N 0.47959 0.3968 0.82662 0.0
N1041 N 0.60075 0.36806 0.7355 0.0
C1042 C 0.51265 0.38198 0.81254 0.0
C1043 C 0.57557 0.36699 0.76534 0.0
N1044 N 0.48343 0.32151 0.7953 0.0
N1045 N 0.61438 0.41105 0.80464 0.0
H1046 H 0.59662 0.35218 0.71011 0.0
H1047 H 0.62291 0.38844 0.73393 0.0
H1048 H 0.61783 0.43193 0.82631 0.0
H1049 H 0.63967 0.40332 0.79096 0.0
H1050 H 0.46228 0.32525 0.81601 0.0
H1051 H 0.48302 0.29397 0.78338 0.0
H1052 H 0.45257 0.38579 0.81876 0.0
H1053 H 0.4795 0.42295 0.84178 0.0
C1054 C 0.46243 0.14479 0.76746 0.0
C1055 C 0.48442 0.17933 0.77178 0.0
C1056 C 0.50952 0.15724 0.83318 0.0
C1057 C 0.48337 0.1256 0.83165 0.0
N1058 N 0.43088 0.09185 0.79898 0.0
N1059 N 0.52411 0.22127 0.81238 0.0
C1060 C 0.45878 0.1199 0.79916 0.0
C1061 C 0.5067 0.1863 0.80562 0.0
N1062 N 0.44645 0.13479 0.73266 0.0
N1063 N 0.53807 0.15898 0.86029 0.0
H1064 H 0.52275 0.2438 0.79339 0.0
H1065 H 0.53682 0.22919 0.83858 0.0
H1066 H 0.54178 0.13783 0.88054 0.0
H1067 H 0.56048 0.17916 0.86008 0.0
H1068 H 0.43368 0.10805 0.72678 0.0
H1069 H 0.44923 0.15165 0.70846 0.0
H1070 H 0.40939 0.08952 0.7781 0.0
H1071 H 0.42703 0.0728 0.82125 0.0
C1072 C 0.74251 0.45926 0.6458 0.0
C1073 C 0.7456 0.48395 0.67894 0.0
C1074 C 0.69369 0.52256 0.65311 0.0
C1075 C 0.68657 0.49481 0.62374 0.0
N1076 N 0.70146 0.43406 0.59404 0.0
N1077 N 0.71543 0.53369 0.71782 0.0
C1078 C 0.71015 0.46226 0.62062 0.0
C1079 C 0.71871 0.51404 0.68366 0.0
N1080 N 0.77127 0.43465 0.63688 0.0
N1081 N 0.6774 0.55782 0.65137 0.0
H1082 H 0.73124 0.52781 0.74227 0.0
H1083 H 0.69357 0.55304 0.72317 0.0
H1084 H 0.6596 0.56572 0.6288 0.0
H1085 H 0.68498 0.58045 0.67013 0.0
H1086 H 0.77199 0.4188 0.61123 0.0
H1087 H 0.79642 0.43296 0.65298 0.0
H1088 H 0.71514 0.40776 0.59313 0.0
H1089 H 0.67861 0.436 0.57474 0.0
C1090 C 0.31635 0.00133 0.70029 0.0
C1091 C 0.2878 0.9721 0.69461 0.0
C1092 C 0.32267 0.94939 0.6378 0.0
C1093 C 0.34671 0.98299 0.63966 0.0
N1094 N 0.3627 0.04367 0.67073 0.0
N1095 N 0.2622 0.91954 0.65548 0.0
C1096 C 0.34246 0.00973 0.67042 0.0
C1097 C 0.29053 0.94632 0.66275 0.0
N1098 N 0.31935 0.0202 0.73496 0.0
N1099 N 0.33171 0.91927 0.61404 0.0
H1100 H 0.23888 0.91536 0.67354 0.0
H1101 H 0.26049 0.90333 0.63004 0.0
H1102 H 0.35591 0.91918 0.59676 0.0
H1103 H 0.31753 0.89273 0.61458 0.0
H1104 H 0.34175 0.03933 0.74198 0.0
H1105 H 0.30214 0.01306 0.7582 0.0
H1106 H 0.35803 0.06573 0.6907 0.0
H1107 H 0.38137 0.05129 0.64878 0.0
C1108 C 0.72318 0.49104 0.8361 0.0
C1109 C 0.74981 0.52256 0.8397 0.0
C1110 C 0.7136 0.54603 0.89571 0.0
C1111 C 0.69033 0.51236 0.89373 0.0
N1112 N 0.68183 0.44738 0.86986 0.0
N1113 N 0.77492 0.57516 0.87963 0.0
C1114 C 0.69825 0.48306 0.86663 0.0
C1115 C 0.74634 0.54892 0.87136 0.0
N1116 N 0.71947 0.46986 0.80274 0.0
N1117 N 0.70436 0.57517 0.92049 0.0
H1118 H 0.80043 0.57671 0.86432 0.0
H1119 H 0.7751 0.59264 0.90425 0.0
H1120 H 0.68141 0.573 0.93947 0.0
H1121 H 0.71789 0.60206 0.92038 0.0
H1122 H 0.69783 0.44918 0.79835 0.0
H1123 H 0.73424 0.47577 0.77772 0.0
H1124 H 0.68997 0.42401 0.85282 0.0
H1125 H 0.66315 0.44023 0.89198 0.0
C1126 C 0.30315 0.07404 0.82942 0.0
C1127 C 0.26949 0.0514 0.83538 0.0
C1128 C 0.30084 0.02094 0.89024 0.0
C1129 C 0.33418 0.04365 0.88433 0.0
N1130 N 0.36189 0.10082 0.85726 0.0
N1131 N 0.23269 0.01268 0.87914 0.0
C1132 C 0.33367 0.0731 0.85675 0.0
C1133 C 0.26721 0.02806 0.86846 0.0
N1134 N 0.30743 0.09449 0.7967 0.0
N1135 N 0.30173 0.9912 0.9151 0.0
H1136 H 0.20744 0.01734 0.86408 0.0
H1137 H 0.22847 0.9987 0.90493 0.0
H1138 H 0.32587 0.98487 0.93142 0.0
H1139 H 0.27961 0.97087 0.91718 0.0
H1140 H 0.33338 0.10736 0.78895 0.0
H1141 H 0.28621 0.09629 0.77575 0.0
H1142 H 0.36089 0.12512 0.84045 0.0
H1143 H 0.38436 0.10147 0.87719 0.0
C1144 C 0.65952 0.70923 0.46327 0.0
C1145 C 0.69434 0.71668 0.48393 0.0
C1146 C 0.68115 0.66017 0.52322 0.0
C1147 C 0.64869 0.65069 0.50017 0.0
N1148 N 0.61015 0.66237 0.4442 0.0
N1149 N 0.74236 0.69256 0.52785 0.0
C1150 C 0.63887 0.67405 0.46888 0.0
C1151 C 0.70636 0.69015 0.5121 0.0
N1152 N 0.64475 0.73656 0.44022 0.0
N1153 N 0.68704 0.64194 0.55709 0.0
H1154 H 0.7624 0.71377 0.52161 0.0
H1155 H 0.75381 0.67106 0.5445 0.0
H1156 H 0.66898 0.62026 0.56711 0.0
H1157 H 0.70762 0.65109 0.57728 0.0
H1158 H 0.61755 0.73424 0.42774 0.0
H1159 H 0.65791 0.76324 0.43643 0.0
H1160 H 0.60433 0.67601 0.41858 0.0
H1161 H 0.59432 0.63703 0.44774 0.0
C1162 C 0.69067 0.30232 0.96546 0.0
C1163 C 0.68603 0.27826 0.99817 0.0
C1164 C 0.63637 0.3221 0.0224 0.0
C1165 C 0.63942 0.34387 0.9887 0.0
N1166 N 0.66222 0.34894 0.92394 0.0
N1167 N 0.64562 0.2605 0.05139 0.0
C1168 C 0.66428 0.33213 0.95901 0.0
C1169 C 0.65647 0.28691 0.025 0.0
N1170 N 0.72113 0.2987 0.94112 0.0
N1171 N 0.61441 0.3351 0.05208 0.0
H1172 H 0.65692 0.2331 0.0522 0.0
H1173 H 0.62209 0.26392 0.06933 0.0
H1174 H 0.59855 0.3601 0.05058 0.0
H1175 H 0.61439 0.32279 0.07905 0.0
H1176 H 0.72817 0.31922 0.92092 0.0
H1177 H 0.74197 0.27801 0.94248 0.0
H1178 H 0.67589 0.33815 0.89961 0.0
H1179 H 0.64395 0.37144 0.91804 0.0
C1180 C 0.34214 0.19823 0.99603 0.0
C1181 C 0.34835 0.22504 0.02716 0.0
C1182 C 0.40632 0.18993 0.04494 0.0
C1183 C 0.40161 0.16655 0.0115 0.0
N1184 N 0.37171 0.15662 0.94933 0.0
N1185 N 0.39198 0.25069 0.07616 0.0
C1186 C 0.37171 0.17343 0.98521 0.0
C1187 C 0.38195 0.22206 0.05048 0.0
N1188 N 0.30749 0.19476 0.97749 0.0
N1189 N 0.4337 0.18133 0.07138 0.0
H1190 H 0.37641 0.27566 0.0797 0.0
H1191 H 0.41793 0.25146 0.09116 0.0
H1192 H 0.45252 0.15872 0.06725 0.0
H1193 H 0.43589 0.1949 0.09826 0.0
H1194 H 0.301 0.17253 0.95789 0.0
H1195 H 0.28364 0.21081 0.98417 0.0
H1196 H 0.35257 0.16401 0.92773 0.0
H1197 H 0.39329 0.13853 0.93973 0.0
C1198 C 0.88206 0.26669 0.95415 0.0
C1199 C 0.84438 0.26924 0.96953 0.0
C1200 C 0.86692 0.31897 0.01483 0.0
C1201 C 0.90271 0.32058 0.99631 0.0
N1202 N 0.94336 0.29958 0.94465 0.0
N1203 N 0.79965 0.30743 0.00643 0.0
C1204 C 0.91014 0.29551 0.96475 0.0
C1205 C 0.83645 0.29868 0.99703 0.0
N1206 N 0.89175 0.23616 0.93133 0.0
N1207 N 0.86213 0.3362 0.05009 0.0
H1208 H 0.77604 0.29366 0.99378 0.0
H1209 H 0.79278 0.33103 0.02376 0.0
H1210 H 0.88451 0.3501 0.06517 0.0
H1211 H 0.83717 0.33278 0.0661 0.0
H1212 H 0.91986 0.231 0.92299 0.0
H1213 H 0.87228 0.21454 0.92296 0.0
H1214 H 0.94853 0.28462 0.91905 0.0
H1215 H 0.96452 0.31992 0.95231 0.0
loop_
_geom_bond_atom_site_label_1
_geom_bond_atom_site_label_2
_geom_bond_distance
_geom_bond_site_symmetry_2
_ccdc_geom_bond_type
C0 O2 1.247 . S
C0 O4 1.258 1_455 S
C1 O8 1.247 . S
C1 O9 1.258 1_655 S
O2 C0 1.247 . S
O2 Zn3 2.028 . S
Zn3 O2 2.028 . S
Zn3 O7 2.035 . S
Zn3 O9 2.035 . S
Zn3 O10 2.028 . S
O4 C0 1.258 1_655 S
O4 Zn5 2.035 . S
Zn5 O4 2.035 . S
Zn5 O6 2.028 . S
Zn5 O8 2.028 . S
Zn5 O11 2.035 . S
O6 Zn5 2.028 . S
O6 C12 1.247 . S
O7 Zn3 2.035 . S
O7 C12 1.258 1_455 S
O8 C1 1.247 . S
O8 Zn5 2.028 . S
O9 C1 1.258 1_455 S
O9 Zn3 2.035 . S
O10 Zn3 2.028 . S
O10 C13 1.247 . S
O11 Zn5 2.035 . S
O11 C13 1.258 1_655 S
C12 O6 1.247 . S
C12 O7 1.258 1_655 S
C13 O10 1.247 . S
C13 O11 1.258 1_455 S
C14 O16 1.247 . S
C14 O18 1.258 . S
C15 O22 1.247 1_455 S
C15 O23 1.258 . S
O16 C14 1.247 . S
O16 Zn17 2.028 . S
Zn17 O16 2.028 . S
Zn17 O21 2.035 . S
Zn17 O23 2.035 . S
Zn17 O24 2.028 . S
O18 C14 1.258 . S
O18 Zn19 2.035 1_455 S
Zn19 O18 2.035 1_655 S
Zn19 O20 2.028 . S
Zn19 O22 2.028 . S
Zn19 O25 2.035 1_655 S
O20 Zn19 2.028 . S
O20 C26 1.247 1_655 S
O21 Zn17 2.035 . S
O21 C26 1.258 . S
O22 C15 1.247 1_655 S
O22 Zn19 2.028 . S
O23 C15 1.258 . S
O23 Zn17 2.035 . S
O24 Zn17 2.028 . S
O24 C27 1.247 . S
O25 Zn19 2.035 1_455 S
O25 C27 1.258 . S
C26 O20 1.247 1_455 S
C26 O21 1.258 . S
C27 O24 1.247 . S
C27 O25 1.258 . S
C28 O30 1.247 1_545 S
C28 O32 1.258 . S
C29 O36 1.247 1_565 S
C29 O37 1.258 . S
O30 C28 1.247 1_565 S
O30 Zn31 2.028 . S
Zn31 O30 2.028 . S
Zn31 O35 2.035 . S
Zn31 O37 2.035 . S
Zn31 O38 2.028 . S
O32 C28 1.258 . S
O32 Zn33 2.035 . S
Zn33 O32 2.035 . S
Zn33 O34 2.028 . S
Zn33 O36 2.028 . S
Zn33 O39 2.035 . S
O34 Zn33 2.028 . S
O34 C40 1.247 1_545 S
O35 Zn31 2.035 . S
O35 C40 1.258 . S
O36 C29 1.247 1_545 S
O36 Zn33 2.028 . S
O37 C29 1.258 . S
O37 Zn31 2.035 . S
O38 Zn31 2.028 . S
O38 C41 1.247 1_565 S
O39 Zn33 2.035 . S
O39 C41 1.258 . S
C40 O34 1.247 1_565 S
C40 O35 1.258 . S
C41 O38 1.247 1_545 S
C41 O39 1.258 . S
C42 O44 1.247 . S
C42 O46 1.258 . S
C43 O50 1.247 . S
C43 O51 1.258 . S
O44 C42 1.247 . S
O44 Zn45 2.028 . S
Zn45 O44 2.028 . S
Zn45 O49 2.035 . S
Zn45 O51 2.035 . S
Zn45 O52 2.028 . S
O46 C42 1.258 . S
O46 Zn47 2.035 . S
Zn47 O46 2.035 . S
Zn47 O48 2.028 . S
Zn47 O50 2.028 . S
Zn47 O53 2.035 . S
O48 Zn47 2.028 . S
O48 C54 1.247 . S
O49 Zn45 2.035 . S
O49 C54 1.258 . S
O50 C43 1.247 . S
O50 Zn47 2.028 . S
O51 C43 1.258 . S
O51 Zn45 2.035 . S
O52 Zn45 2.028 . S
O52 C55 1.247 . S
O53 Zn47 2.035 . S
O53 C55 1.258 . S
C54 O48 1.247 . S
C54 O49 1.258 . S
C55 O52 1.247 . S
C55 O53 1.258 . S
C56 O58 1.247 1_554 S
C56 O60 1.258 . S
C57 O64 1.247 . S
C57 O65 1.258 1_554 S
O58 C56 1.247 1_556 S
O58 Zn59 2.028 . S
Zn59 O58 2.028 . S
Zn59 O63 2.035 . S
Zn59 O65 2.035 . S
Zn59 O66 2.028 . S
O60 C56 1.258 . S
O60 Zn61 2.035 . S
Zn61 O60 2.035 . S
Zn61 O62 2.028 . S
Zn61 O64 2.028 . S
Zn61 O67 2.035 . S
O62 Zn61 2.028 . S
O62 C68 1.247 . S
O63 Zn59 2.035 . S
O63 C68 1.258 1_556 S
O64 C57 1.247 . S
O64 Zn61 2.028 . S
O65 C57 1.258 1_556 S
O65 Zn59 2.035 . S
O66 Zn59 2.028 . S
O66 C69 1.247 1_556 S
O67 Zn61 2.035 . S
O67 C69 1.258 . S
C68 O62 1.247 . S
C68 O63 1.258 1_554 S
C69 O66 1.247 1_554 S
C69 O67 1.258 . S
C70 O72 1.247 . S
C70 O74 1.258 . S
C71 O78 1.247 . S
C71 O79 1.258 . S
O72 C70 1.247 . S
O72 Zn73 2.028 . S
Zn73 O72 2.028 . S
Zn73 O77 2.035 . S
Zn73 O79 2.035 . S
Zn73 O80 2.028 . S
O74 C70 1.258 . S
O74 Zn75 2.035 . S
Zn75 O74 2.035 . S
Zn75 O76 2.028 . S
Zn75 O78 2.028 . S
Zn75 O81 2.035 . S
O76 Zn75 2.028 . S
O76 C82 1.247 . S
O77 Zn73 2.035 . S
O77 C82 1.258 . S
O78 C71 1.247 . S
O78 Zn75 2.028 . S
O79 C71 1.258 . S
O79 Zn73 2.035 . S
O80 Zn73 2.028 . S
O80 C83 1.247 . S
O81 Zn75 2.035 . S
O81 C83 1.258 . S
C82 O76 1.247 . S
C82 O77 1.258 . S
C83 O80 1.247 . S
C83 O81 1.258 . S
C84 O86 1.247 . S
C84 O88 1.258 . S
C85 O92 1.247 . S
C85 O93 1.258 . S
O86 C84 1.247 . S
O86 Zn87 2.028 . S
Zn87 O86 2.028 . S
Zn87 O91 2.035 . S
Zn87 O93 2.035 . S
Zn87 O94 2.028 . S
O88 C84 1.258 . S
O88 Zn89 2.035 . S
Zn89 O88 2.035 . S
Zn89 O90 2.028 . S
Zn89 O92 2.028 . S
Zn89 O95 2.035 . S
O90 Zn89 2.028 . S
O90 C96 1.247 . S
O91 Zn87 2.035 . S
O91 C96 1.258 . S
O92 C85 1.247 . S
O92 Zn89 2.028 . S
O93 C85 1.258 . S
O93 Zn87 2.035 . S
O94 Zn87 2.028 . S
O94 C97 1.247 . S
O95 Zn89 2.035 . S
O95 C97 1.258 . S
C96 O90 1.247 . S
C96 O91 1.258 . S
C97 O94 1.247 . S
C97 O95 1.258 . S
C98 O100 1.247 . S
C98 O102 1.258 . S
C99 O106 1.247 . S
C99 O107 1.258 . S
O100 C98 1.247 . S
O100 Zn101 2.028 . S
Zn101 O100 2.028 . S
Zn101 O105 2.035 . S
Zn101 O107 2.035 . S
Zn101 O108 2.028 . S
O102 C98 1.258 . S
O102 Zn103 2.035 . S
Zn103 O102 2.035 . S
Zn103 O104 2.028 . S
Zn103 O106 2.028 . S
Zn103 O109 2.035 . S
O104 Zn103 2.028 . S
O104 C110 1.247 . S
O105 Zn101 2.035 . S
O105 C110 1.258 . S
O106 C99 1.247 . S
O106 Zn103 2.028 . S
O107 C99 1.258 . S
O107 Zn101 2.035 . S
O108 Zn101 2.028 . S
O108 C111 1.247 . S
O109 Zn103 2.035 . S
O109 C111 1.258 . S
C110 O104 1.247 . S
C110 O105 1.258 . S
C111 O108 1.247 . S
C111 O109 1.258 . S
C112 O114 1.247 . S
C112 O116 1.258 . S
C113 O120 1.247 . S
C113 O121 1.258 . S
O114 C112 1.247 . S
O114 Zn115 2.028 . S
Zn115 O114 2.028 . S
Zn115 O119 2.035 . S
Zn115 O121 2.035 . S
Zn115 O122 2.028 . S
O116 C112 1.258 . S
O116 Zn117 2.035 . S
Zn117 O116 2.035 . S
Zn117 O118 2.028 . S
Zn117 O120 2.028 . S
Zn117 O123 2.035 . S
O118 Zn117 2.028 . S
O118 C124 1.247 . S
O119 Zn115 2.035 . S
O119 C124 1.258 . S
O120 C113 1.247 . S
O120 Zn117 2.028 . S
O121 C113 1.258 . S
O121 Zn115 2.035 . S
O122 Zn115 2.028 . S
O122 C125 1.247 . S
O123 Zn117 2.035 . S
O123 C125 1.258 . S
C124 O118 1.247 . S
C124 O119 1.258 . S
C125 O122 1.247 . S
C125 O123 1.258 . S
C126 O128 1.247 . S
C126 O130 1.258 . S
C127 O134 1.247 . S
C127 O135 1.258 . S
O128 C126 1.247 . S
O128 Zn129 2.028 . S
Zn129 O128 2.028 . S
Zn129 O133 2.035 . S
Zn129 O135 2.035 . S
Zn129 O136 2.028 . S
O130 C126 1.258 . S
O130 Zn131 2.035 . S
Zn131 O130 2.035 . S
Zn131 O132 2.028 . S
Zn131 O134 2.028 . S
Zn131 O137 2.035 . S
O132 Zn131 2.028 . S
O132 C138 1.247 . S
O133 Zn129 2.035 . S
O133 C138 1.258 . S
O134 C127 1.247 . S
O134 Zn131 2.028 . S
O135 C127 1.258 . S
O135 Zn129 2.035 . S
O136 Zn129 2.028 . S
O136 C139 1.247 . S
O137 Zn131 2.035 . S
O137 C139 1.258 . S
C138 O132 1.247 . S
C138 O133 1.258 . S
C139 O136 1.247 . S
C139 O137 1.258 . S
C140 O142 1.247 1_545 S
C140 O144 1.258 . S
C141 O148 1.247 . S
C141 O149 1.258 1_545 S
O142 C140 1.247 1_565 S
O142 Zn143 2.028 . S
Zn143 O142 2.028 . S
Zn143 O147 2.035 . S
Zn143 O149 2.035 . S
Zn143 O150 2.028 . S
O144 C140 1.258 . S
O144 Zn145 2.035 . S
Zn145 O144 2.035 . S
Zn145 O146 2.028 . S
Zn145 O148 2.028 . S
Zn145 O151 2.035 . S
O146 Zn145 2.028 . S
O146 C152 1.247 . S
O147 Zn143 2.035 . S
O147 C152 1.258 1_565 S
O148 C141 1.247 . S
O148 Zn145 2.028 . S
O149 C141 1.258 1_565 S
O149 Zn143 2.035 . S
O150 Zn143 2.028 . S
O150 C153 1.247 1_565 S
O151 Zn145 2.035 . S
O151 C153 1.258 . S
C152 O146 1.247 . S
C152 O147 1.258 1_545 S
C153 O150 1.247 1_545 S
C153 O151 1.258 . S
C154 O156 1.247 1_556 S
C154 O158 1.258 . S
C155 O162 1.247 1_554 S
C155 O163 1.258 . S
O156 C154 1.247 1_554 S
O156 Zn157 2.028 . S
Zn157 O156 2.028 . S
Zn157 O161 2.035 . S
Zn157 O163 2.035 . S
Zn157 O164 2.028 . S
O158 C154 1.258 . S
O158 Zn159 2.035 . S
Zn159 O158 2.035 . S
Zn159 O160 2.028 . S
Zn159 O162 2.028 . S
Zn159 O165 2.035 . S
O160 Zn159 2.028 . S
O160 C166 1.247 1_556 S
O161 Zn157 2.035 . S
O161 C166 1.258 . S
O162 C155 1.247 1_556 S
O162 Zn159 2.028 . S
O163 C155 1.258 . S
O163 Zn157 2.035 . S
O164 Zn157 2.028 . S
O164 C167 1.247 1_554 S
O165 Zn159 2.035 . S
O165 C167 1.258 . S
C166 O160 1.247 1_554 S
C166 O161 1.258 . S
C167 O164 1.247 1_556 S
C167 O165 1.258 . S
O168 Zn169 1.953 . S
O168 C184 1.225 . S
Zn169 O168 1.953 . S
Zn169 O170 1.949 . S
Zn169 O176 1.919 . S
Zn169 O181 1.924 1_545 S
O170 Zn169 1.949 . S
O170 Zn171 1.923 . S
O170 Zn172 1.950 . S
O170 Zn173 1.945 . S
Zn171 O170 1.923 . S
Zn171 O174 1.933 1_455 S
Zn171 O177 1.941 . S
Zn171 O178 1.965 . S
Zn172 O170 1.950 . S
Zn172 O179 1.938 . S
Zn172 O180 1.906 1_554 S
Zn172 O190 1.953 . S
Zn173 O170 1.945 . S
Zn173 O175 1.932 1_455 S
Zn173 O182 1.977 1_544 S
Zn173 O183 1.910 1_545 S
O174 Zn171 1.933 1_655 S
O174 C185 1.226 . S
O175 Zn173 1.932 1_655 S
O175 C185 1.307 . S
O176 Zn169 1.919 . S
O176 C187 1.253 . S
O177 Zn171 1.941 . S
O177 C187 1.283 . S
O178 Zn171 1.965 . S
O178 C186 1.303 . S
O179 Zn172 1.938 . S
O179 C186 1.247 . S
O180 Zn172 1.906 1_556 S
O180 C188 1.304 . S
O181 Zn169 1.924 1_565 S
O181 C189 1.311 . S
O182 Zn173 1.977 1_566 S
O182 C188 1.272 1_565 S
O183 Zn173 1.910 1_565 S
O183 C189 1.231 . S
C184 O168 1.225 . S
C184 O190 1.298 . S
C185 O174 1.226 . S
C185 O175 1.307 . S
C186 O178 1.303 . S
C186 O179 1.247 . S
C187 O176 1.253 . S
C187 O177 1.283 . S
C188 O180 1.304 . S
C188 O182 1.272 1_545 S
C189 O181 1.311 . S
C189 O183 1.231 . S
O190 Zn172 1.953 . S
O190 C184 1.298 . S
O191 Zn192 1.953 . S
O191 C207 1.225 . S
Zn192 O191 1.953 . S
Zn192 O193 1.949 . S
Zn192 O199 1.919 . S
Zn192 O204 1.924 . S
O193 Zn192 1.949 . S
O193 Zn194 1.923 . S
O193 Zn195 1.950 . S
O193 Zn196 1.945 1_655 S
Zn194 O193 1.923 . S
Zn194 O197 1.933 1_655 S
Zn194 O200 1.941 . S
Zn194 O201 1.965 . S
Zn195 O193 1.950 . S
Zn195 O202 1.938 . S
Zn195 O203 1.906 1_554 S
Zn195 O213 1.953 . S
Zn196 O193 1.945 1_455 S
Zn196 O198 1.932 . S
Zn196 O205 1.977 1_454 S
Zn196 O206 1.910 . S
O197 Zn194 1.933 1_455 S
O197 C208 1.226 . S
O198 Zn196 1.932 . S
O198 C208 1.307 . S
O199 Zn192 1.919 . S
O199 C210 1.253 . S
O200 Zn194 1.941 . S
O200 C210 1.283 . S
O201 Zn194 1.965 . S
O201 C209 1.303 . S
O202 Zn195 1.938 . S
O202 C209 1.247 . S
O203 Zn195 1.906 1_556 S
O203 C211 1.304 . S
O204 Zn192 1.924 . S
O204 C212 1.311 1_655 S
O205 Zn196 1.977 1_656 S
O205 C211 1.272 . S
O206 Zn196 1.910 . S
O206 C212 1.231 . S
C207 O191 1.225 . S
C207 O213 1.298 . S
C208 O197 1.226 . S
C208 O198 1.307 . S
C209 O201 1.303 . S
C209 O202 1.247 . S
C210 O199 1.253 . S
C210 O200 1.283 . S
C211 O203 1.304 . S
C211 O205 1.272 . S
C212 O204 1.311 1_455 S
C212 O206 1.231 . S
O213 Zn195 1.953 . S
O213 C207 1.298 . S
O214 Zn215 1.953 . S
O214 C230 1.225 . S
Zn215 O214 1.953 . S
Zn215 O216 1.949 . S
Zn215 O222 1.919 . S
Zn215 O227 1.924 . S
O216 Zn215 1.949 . S
O216 Zn217 1.923 . S
O216 Zn218 1.950 . S
O216 Zn219 1.945 . S
Zn217 O216 1.923 . S
Zn217 O220 1.933 1_565 S
Zn217 O223 1.941 . S
Zn217 O224 1.965 . S
Zn218 O216 1.950 . S
Zn218 O225 1.938 . S
Zn218 O226 1.906 1_455 S
Zn218 O236 1.953 . S
Zn219 O216 1.945 . S
Zn219 O221 1.932 1_565 S
Zn219 O228 1.977 1_455 S
Zn219 O229 1.910 1_565 S
O220 Zn217 1.933 1_545 S
O220 C231 1.226 . S
O221 Zn219 1.932 1_545 S
O221 C231 1.307 . S
O222 Zn215 1.919 . S
O222 C233 1.253 . S
O223 Zn217 1.941 . S
O223 C233 1.283 . S
O224 Zn217 1.965 . S
O224 C232 1.303 . S
O225 Zn218 1.938 . S
O225 C232 1.247 . S
O226 Zn218 1.906 1_655 S
O226 C234 1.304 . S
O227 Zn215 1.924 . S
O227 C235 1.311 . S
O228 Zn219 1.977 1_655 S
O228 C234 1.272 . S
O229 Zn219 1.910 1_545 S
O229 C235 1.231 1_545 S
C230 O214 1.225 . S
C230 O236 1.298 . S
C231 O220 1.226 . S
C231 O221 1.307 . S
C232 O224 1.303 . S
C232 O225 1.247 . S
C233 O222 1.253 . S
C233 O223 1.283 . S
C234 O226 1.304 . S
C234 O228 1.272 . S
C235 O227 1.311 . S
C235 O229 1.231 1_565 S
O236 Zn218 1.953 . S
O236 C230 1.298 . S
O237 Zn238 1.953 . S
O237 C253 1.225 . S
Zn238 O237 1.953 . S
Zn238 O239 1.949 . S
Zn238 O245 1.919 . S
Zn238 O250 1.924 1_655 S
O239 Zn238 1.949 . S
O239 Zn240 1.923 . S
O239 Zn241 1.950 . S
O239 Zn242 1.945 . S
Zn240 O239 1.923 . S
Zn240 O243 1.933 . S
Zn240 O246 1.941 . S
Zn240 O247 1.965 . S
Zn241 O239 1.950 . S
Zn241 O248 1.938 . S
Zn241 O249 1.906 . S
Zn241 O259 1.953 . S
Zn242 O239 1.945 . S
Zn242 O244 1.932 . S
Zn242 O251 1.977 1_655 S
Zn242 O252 1.910 1_655 S
O243 Zn240 1.933 . S
O243 C254 1.226 . S
O244 Zn242 1.932 . S
O244 C254 1.307 . S
O245 Zn238 1.919 . S
O245 C256 1.253 . S
O246 Zn240 1.941 . S
O246 C256 1.283 . S
O247 Zn240 1.965 . S
O247 C255 1.303 . S
O248 Zn241 1.938 . S
O248 C255 1.247 . S
O249 Zn241 1.906 . S
O249 C257 1.304 1_655 S
O250 Zn238 1.924 1_455 S
O250 C258 1.311 . S
O251 Zn242 1.977 1_455 S
O251 C257 1.272 . S
O252 Zn242 1.910 1_455 S
O252 C258 1.231 . S
C253 O237 1.225 . S
C253 O259 1.298 . S
C254 O243 1.226 . S
C254 O244 1.307 . S
C255 O247 1.303 . S
C255 O248 1.247 . S
C256 O245 1.253 . S
C256 O246 1.283 . S
C257 O249 1.304 1_455 S
C257 O251 1.272 . S
C258 O250 1.311 . S
C258 O252 1.231 . S
O259 Zn241 1.953 . S
O259 C253 1.298 . S
O260 Zn261 1.953 . S
O260 C276 1.225 . S
Zn261 O260 1.953 . S
Zn261 O262 1.949 . S
Zn261 O268 1.919 . S
Zn261 O273 1.924 1_565 S
O262 Zn261 1.949 . S
O262 Zn263 1.923 . S
O262 Zn264 1.950 . S
O262 Zn265 1.945 . S
Zn263 O262 1.923 . S
Zn263 O266 1.933 . S
Zn263 O269 1.941 . S
Zn263 O270 1.965 . S
Zn264 O262 1.950 . S
Zn264 O271 1.938 . S
Zn264 O272 1.906 . S
Zn264 O282 1.953 . S
Zn265 O262 1.945 . S
Zn265 O267 1.932 . S
Zn265 O274 1.982 . S
Zn265 O275 1.910 1_565 S
O266 Zn263 1.933 . S
O266 C277 1.226 . S
O267 Zn265 1.932 . S
O267 C277 1.307 . S
O268 Zn261 1.919 . S
O268 C279 1.253 . S
O269 Zn263 1.941 . S
O269 C279 1.283 . S
O270 Zn263 1.965 . S
O270 C278 1.303 . S
O271 Zn264 1.938 . S
O271 C278 1.247 . S
O272 Zn264 1.906 . S
O272 C280 1.304 . S
O273 Zn261 1.924 1_545 S
O273 C281 1.311 . S
O274 Zn265 1.982 . S
O274 C280 1.275 . S
O275 Zn265 1.910 1_545 S
O275 C281 1.231 . S
C276 O260 1.225 . S
C276 O282 1.298 . S
C277 O266 1.226 . S
C277 O267 1.307 . S
C278 O270 1.303 . S
C278 O271 1.247 . S
C279 O268 1.253 . S
C279 O269 1.283 . S
C280 O272 1.304 . S
C280 O274 1.275 . S
C281 O273 1.311 . S
C281 O275 1.231 . S
O282 Zn264 1.953 . S
O282 C276 1.298 . S
O283 Zn284 1.953 . S
O283 C299 1.225 . S
Zn284 O283 1.953 . S
Zn284 O285 1.949 . S
Zn284 O291 1.919 . S
Zn284 O296 1.924 . S
O285 Zn284 1.949 . S
O285 Zn286 1.923 . S
O285 Zn287 1.950 . S
O285 Zn288 1.945 . S
Zn286 O285 1.923 . S
Zn286 O289 1.933 . S
Zn286 O292 1.941 . S
Zn286 O293 1.965 . S
Zn287 O285 1.950 . S
Zn287 O294 1.938 . S
Zn287 O295 1.906 . S
Zn287 O305 1.953 . S
Zn288 O285 1.945 . S
Zn288 O290 1.932 . S
Zn288 O297 1.977 . S
Zn288 O298 1.910 . S
O289 Zn286 1.933 . S
O289 C300 1.226 . S
O290 Zn288 1.932 . S
O290 C300 1.307 . S
O291 Zn284 1.919 . S
O291 C302 1.253 . S
O292 Zn286 1.941 . S
O292 C302 1.283 . S
O293 Zn286 1.965 . S
O293 C301 1.303 . S
O294 Zn287 1.938 . S
O294 C301 1.247 . S
O295 Zn287 1.906 . S
O295 C303 1.304 . S
O296 Zn284 1.924 . S
O296 C304 1.311 . S
O297 Zn288 1.977 . S
O297 C303 1.272 . S
O298 Zn288 1.910 . S
O298 C304 1.231 . S
C299 O283 1.225 . S
C299 O305 1.298 . S
C300 O289 1.226 . S
C300 O290 1.307 . S
C301 O293 1.303 . S
C301 O294 1.247 . S
C302 O291 1.253 . S
C302 O292 1.283 . S
C303 O295 1.304 . S
C303 O297 1.272 . S
C304 O296 1.311 . S
C304 O298 1.231 . S
O305 Zn287 1.953 . S
O305 C299 1.298 . S
O306 Zn307 1.953 . S
O306 C322 1.225 . S
Zn307 O306 1.953 . S
Zn307 O308 1.949 . S
Zn307 O314 1.919 . S
Zn307 O319 1.924 1_556 S
O308 Zn307 1.949 . S
O308 Zn309 1.923 . S
O308 Zn310 1.950 . S
O308 Zn311 1.945 . S
Zn309 O308 1.923 . S
Zn309 O312 1.933 . S
Zn309 O315 1.941 . S
Zn309 O316 1.965 . S
Zn310 O308 1.950 . S
Zn310 O317 1.938 . S
Zn310 O318 1.906 . S
Zn310 O328 1.953 . S
Zn311 O308 1.945 . S
Zn311 O313 1.932 . S
Zn311 O320 1.966 1_556 S
Zn311 O321 1.910 1_556 S
O312 Zn309 1.933 . S
O312 C323 1.226 . S
O313 Zn311 1.932 . S
O313 C323 1.307 . S
O314 Zn307 1.919 . S
O314 C325 1.253 . S
O315 Zn309 1.941 . S
O315 C325 1.283 . S
O316 Zn309 1.965 . S
O316 C324 1.303 . S
O317 Zn310 1.938 . S
O317 C324 1.247 . S
O318 Zn310 1.906 . S
O318 C326 1.304 . S
O319 Zn307 1.924 1_554 S
O319 C327 1.311 . S
O320 Zn311 1.966 1_554 S
O320 C326 1.263 1_554 S
O321 Zn311 1.910 1_554 S
O321 C327 1.231 . S
C322 O306 1.225 . S
C322 O328 1.298 . S
C323 O312 1.226 . S
C323 O313 1.307 . S
C324 O316 1.303 . S
C324 O317 1.247 . S
C325 O314 1.253 . S
C325 O315 1.283 . S
C326 O318 1.304 . S
C326 O320 1.263 1_556 S
C327 O319 1.311 . S
C327 O321 1.231 . S
O328 Zn310 1.953 . S
O328 C322 1.298 . S
O329 Zn330 1.953 . S
O329 C345 1.225 . S
Zn330 O329 1.953 . S
Zn330 O331 1.949 . S
Zn330 O337 1.919 . S
Zn330 O342 1.924 . S
O331 Zn330 1.949 . S
O331 Zn332 1.923 . S
O331 Zn333 1.950 . S
O331 Zn334 1.945 . S
Zn332 O331 1.923 . S
Zn332 O335 1.933 1_556 S
Zn332 O338 1.941 . S
Zn332 O339 1.965 . S
Zn333 O331 1.950 . S
Zn333 O340 1.938 . S
Zn333 O341 1.906 1_545 S
Zn333 O351 1.953 . S
Zn334 O331 1.945 . S
Zn334 O336 1.932 1_556 S
Zn334 O343 1.977 1_545 S
Zn334 O344 1.910 . S
O335 Zn332 1.933 1_554 S
O335 C346 1.226 . S
O336 Zn334 1.932 1_554 S
O336 C346 1.307 . S
O337 Zn330 1.919 . S
O337 C348 1.253 . S
O338 Zn332 1.941 . S
O338 C348 1.283 . S
O339 Zn332 1.965 . S
O339 C347 1.303 . S
O340 Zn333 1.938 . S
O340 C347 1.247 . S
O341 Zn333 1.906 1_565 S
O341 C349 1.304 . S
O342 Zn330 1.924 . S
O342 C350 1.311 . S
O343 Zn334 1.977 1_565 S
O343 C349 1.272 . S
O344 Zn334 1.910 . S
O344 C350 1.231 . S
C345 O329 1.225 . S
C345 O351 1.298 . S
C346 O335 1.226 . S
C346 O336 1.307 . S
C347 O339 1.303 . S
C347 O340 1.247 . S
C348 O337 1.253 . S
C348 O338 1.283 . S
C349 O341 1.304 . S
C349 O343 1.272 . S
C350 O342 1.311 . S
C350 O344 1.231 . S
O351 Zn333 1.953 . S
O351 C345 1.298 . S
C352 C353 1.363 1_655 S
C352 C358 1.379 . S
C352 N360 1.356 . S
C353 C352 1.363 1_455 S
C353 C359 1.363 . S
C354 C355 1.363 . S
C354 C359 1.379 . S
C354 N361 1.356 . S
C355 C354 1.363 . S
C355 C358 1.363 1_455 S
N356 C358 1.356 . S
N356 H368 0.984 . S
N356 H369 0.985 . S
N357 C359 1.356 . S
N357 H362 0.984 . S
N357 H363 0.985 . S
C358 C352 1.379 . S
C358 C355 1.363 1_655 S
C358 N356 1.356 . S
C359 C353 1.363 . S
C359 C354 1.379 . S
C359 N357 1.356 . S
N360 C352 1.356 . S
N360 H366 0.984 . S
N360 H367 0.984 . S
N361 C354 1.356 . S
N361 H364 0.984 . S
N361 H365 0.985 . S
H362 N357 0.984 . S
H363 N357 0.985 . S
H364 N361 0.984 . S
H365 N361 0.985 . S
H366 N360 0.984 . S
H367 N360 0.984 . S
H368 N356 0.984 . S
H369 N356 0.985 . S
C370 C371 1.363 1_455 S
C370 C376 1.379 . S
C370 N378 1.356 . S
C371 C370 1.363 1_655 S
C371 C377 1.363 . S
C372 C373 1.365 . S
C372 C377 1.379 . S
C372 N379 1.356 . S
C373 C372 1.365 . S
C373 C376 1.362 1_655 S
N374 C376 1.356 . S
N374 H386 0.984 . S
N374 H387 0.985 . S
N375 C377 1.356 . S
N375 H380 0.984 . S
N375 H381 0.985 . S
C376 C370 1.379 . S
C376 C373 1.362 1_455 S
C376 N374 1.356 . S
C377 C371 1.363 . S
C377 C372 1.379 . S
C377 N375 1.356 . S
N378 C370 1.356 . S
N378 H384 0.984 . S
N378 H385 0.984 . S
N379 C372 1.356 . S
N379 H382 0.984 . S
N379 H383 0.985 . S
H380 N375 0.984 . S
H381 N375 0.985 . S
H382 N379 0.984 . S
H383 N379 0.985 . S
H384 N378 0.984 . S
H385 N378 0.984 . S
H386 N374 0.984 . S
H387 N374 0.985 . S
C388 C389 1.363 . S
C388 C394 1.379 . S
C388 N396 1.356 . S
C389 C388 1.363 . S
C389 C395 1.363 . S
C390 C391 1.363 . S
C390 C395 1.379 . S
C390 N397 1.356 . S
C391 C390 1.363 . S
C391 C394 1.363 . S
N392 C394 1.369 . S
N392 H404 0.971 1_455 S
N392 H405 0.986 . S
N393 C395 1.356 . S
N393 H398 0.984 . S
N393 H399 0.985 . S
C394 C388 1.379 . S
C394 C391 1.363 . S
C394 N392 1.369 . S
C395 C389 1.363 . S
C395 C390 1.379 . S
C395 N393 1.356 . S
N396 C388 1.356 . S
N396 H402 0.984 1_455 S
N396 H403 0.984 . S
N397 C390 1.356 . S
N397 H400 0.984 . S
N397 H401 0.985 . S
H398 N393 0.984 . S
H399 N393 0.985 . S
H400 N397 0.984 . S
H401 N397 0.985 . S
H402 N396 0.984 1_655 S
H403 N396 0.984 . S
H404 N392 0.971 1_655 S
H405 N392 0.986 . S
C406 C407 1.363 . S
C406 C412 1.379 . S
C406 N414 1.356 . S
C407 C406 1.363 . S
C407 C413 1.363 . S
C408 C409 1.363 . S
C408 C413 1.379 . S
C408 N415 1.356 . S
C409 C408 1.363 . S
C409 C412 1.363 . S
N410 C412 1.356 . S
N410 H422 0.984 . S
N410 H423 0.985 . S
N411 C413 1.356 . S
N411 H416 0.984 . S
N411 H417 0.985 . S
C412 C406 1.379 . S
C412 C409 1.363 . S
C412 N410 1.356 . S
C413 C407 1.363 . S
C413 C408 1.379 . S
C413 N411 1.356 . S
N414 C406 1.356 . S
N414 H420 0.984 . S
N414 H421 0.984 . S
N415 C408 1.356 . S
N415 H418 0.985 . S
N415 H419 0.985 . S
H416 N411 0.984 . S
H417 N411 0.985 . S
H418 N415 0.985 . S
H419 N415 0.985 . S
H420 N414 0.984 . S
H421 N414 0.984 . S
H422 N410 0.984 . S
H423 N410 0.985 . S
C424 C425 1.363 . S
C424 C430 1.379 . S
C424 N432 1.356 . S
C425 C424 1.363 . S
C425 C431 1.363 1_545 S
C426 C427 1.363 1_565 S
C426 C431 1.379 . S
C426 N433 1.356 . S
C427 C426 1.363 1_545 S
C427 C430 1.363 . S
N428 C430 1.356 . S
N428 H440 0.984 . S
N428 H441 0.985 . S
N429 C431 1.356 . S
N429 H434 0.984 . S
N429 H435 0.985 . S
C430 C424 1.379 . S
C430 C427 1.363 . S
C430 N428 1.356 . S
C431 C425 1.363 1_565 S
C431 C426 1.379 . S
C431 N429 1.356 . S
N432 C424 1.356 . S
N432 H438 0.984 . S
N432 H439 0.984 . S
N433 C426 1.356 . S
N433 H436 0.984 . S
N433 H437 0.985 . S
H434 N429 0.984 . S
H435 N429 0.985 . S
H436 N433 0.984 . S
H437 N433 0.985 . S
H438 N432 0.984 . S
H439 N432 0.984 . S
H440 N428 0.984 . S
H441 N428 0.985 . S
C442 C443 1.363 . S
C442 C448 1.379 . S
C442 N450 1.356 . S
C443 C442 1.363 . S
C443 C449 1.363 . S
C444 C445 1.363 . S
C444 C449 1.379 . S
C444 N451 1.356 . S
C445 C444 1.363 . S
C445 C448 1.363 . S
N446 C448 1.356 . S
N446 H458 0.984 . S
N446 H459 0.985 . S
N447 C449 1.356 . S
N447 H452 0.984 . S
N447 H453 0.985 . S
C448 C442 1.379 . S
C448 C445 1.363 . S
C448 N446 1.356 . S
C449 C443 1.363 . S
C449 C444 1.379 . S
C449 N447 1.356 . S
N450 C442 1.356 . S
N450 H456 0.984 . S
N450 H457 0.984 . S
N451 C444 1.356 . S
N451 H454 0.984 . S
N451 H455 0.985 . S
H452 N447 0.984 . S
H453 N447 0.985 . S
H454 N451 0.984 . S
H455 N451 0.985 . S
H456 N450 0.984 . S
H457 N450 0.984 . S
H458 N446 0.984 . S
H459 N446 0.985 . S
C460 C461 1.363 1_545 S
C460 C466 1.379 . S
C460 N468 1.356 . S
C461 C460 1.363 1_565 S
C461 C467 1.363 . S
C462 C463 1.363 . S
C462 C467 1.379 . S
C462 N469 1.356 . S
C463 C462 1.363 . S
C463 C466 1.363 1_565 S
N464 C466 1.356 . S
N464 H476 0.984 . S
N464 H477 0.985 . S
N465 C467 1.356 . S
N465 H470 0.984 . S
N465 H471 0.985 . S
C466 C460 1.379 . S
C466 C463 1.363 1_545 S
C466 N464 1.356 . S
C467 C461 1.363 . S
C467 C462 1.379 . S
C467 N465 1.356 . S
N468 C460 1.356 . S
N468 H474 0.984 . S
N468 H475 0.984 . S
N469 C462 1.356 . S
N469 H472 0.984 . S
N469 H473 0.985 . S
H470 N465 0.984 . S
H471 N465 0.985 . S
H472 N469 0.984 . S
H473 N469 0.985 . S
H474 N468 0.984 . S
H475 N468 0.984 . S
H476 N464 0.984 . S
H477 N464 0.985 . S
C478 C479 1.363 . S
C478 C484 1.379 . S
C478 N486 1.356 . S
C479 C478 1.363 . S
C479 C485 1.363 . S
C480 C481 1.363 . S
C480 C485 1.379 . S
C480 N487 1.356 . S
C481 C480 1.363 . S
C481 C484 1.363 . S
N482 C484 1.356 . S
N482 H494 0.984 . S
N482 H495 0.985 . S
N483 C485 1.356 . S
N483 H488 0.984 . S
N483 H489 0.985 . S
C484 C478 1.379 . S
C484 C481 1.363 . S
C484 N482 1.356 . S
C485 C479 1.363 . S
C485 C480 1.379 . S
C485 N483 1.356 . S
N486 C478 1.356 . S
N486 H492 0.984 . S
N486 H493 0.984 . S
N487 C480 1.356 . S
N487 H490 0.984 . S
N487 H491 0.985 . S
H488 N483 0.984 . S
H489 N483 0.985 . S
H490 N487 0.984 . S
H491 N487 0.985 . S
H492 N486 0.984 . S
H493 N486 0.984 . S
H494 N482 0.984 . S
H495 N482 0.985 . S
C496 C497 1.363 . S
C496 C502 1.379 . S
C496 N504 1.356 . S
C497 C496 1.363 . S
C497 C503 1.363 1_554 S
C498 C499 1.363 1_556 S
C498 C503 1.379 . S
C498 N505 1.356 . S
C499 C498 1.363 1_554 S
C499 C502 1.363 . S
N500 C502 1.356 . S
N500 H512 0.984 . S
N500 H513 0.985 . S
N501 C503 1.356 . S
N501 H506 0.984 . S
N501 H507 0.985 . S
C502 C496 1.379 . S
C502 C499 1.363 . S
C502 N500 1.356 . S
C503 C497 1.363 1_556 S
C503 C498 1.379 . S
C503 N501 1.356 . S
N504 C496 1.356 . S
N504 H510 0.984 . S
N504 H511 0.984 . S
N505 C498 1.356 . S
N505 H508 0.984 . S
N505 H509 0.985 . S
H506 N501 0.984 . S
H507 N501 0.985 . S
H508 N505 0.984 . S
H509 N505 0.985 . S
H510 N504 0.984 . S
H511 N504 0.984 . S
H512 N500 0.984 . S
H513 N500 0.985 . S
C514 C515 1.363 . S
C514 C520 1.379 . S
C514 N522 1.356 . S
C515 C514 1.363 . S
C515 C521 1.363 . S
C516 C517 1.363 . S
C516 C521 1.379 . S
C516 N523 1.356 . S
C517 C516 1.363 . S
C517 C520 1.363 . S
N518 C520 1.356 . S
N518 H530 0.984 . S
N518 H531 0.985 . S
N519 C521 1.356 . S
N519 H524 0.984 . S
N519 H525 0.985 . S
C520 C514 1.379 . S
C520 C517 1.363 . S
C520 N518 1.356 . S
C521 C515 1.363 . S
C521 C516 1.379 . S
C521 N519 1.356 . S
N522 C514 1.356 . S
N522 H528 0.984 . S
N522 H529 0.984 . S
N523 C516 1.356 . S
N523 H526 0.984 . S
N523 H527 0.985 . S
H524 N519 0.984 . S
H525 N519 0.985 . S
H526 N523 0.984 . S
H527 N523 0.985 . S
H528 N522 0.984 . S
H529 N522 0.984 . S
H530 N518 0.984 . S
H531 N518 0.985 . S
C532 C533 1.363 . S
C532 C538 1.379 . S
C532 N540 1.356 . S
C533 C532 1.363 . S
C533 C539 1.363 . S
C534 C535 1.363 . S
C534 C539 1.379 . S
C534 N541 1.356 . S
C535 C534 1.363 . S
C535 C538 1.363 . S
N536 C538 1.356 . S
N536 H548 0.984 . S
N536 H549 0.985 . S
N537 C539 1.356 . S
N537 H542 0.984 . S
N537 H543 0.985 . S
C538 C532 1.379 . S
C538 C535 1.363 . S
C538 N536 1.356 . S
C539 C533 1.363 . S
C539 C534 1.379 . S
C539 N537 1.356 . S
N540 C532 1.356 . S
N540 H546 0.984 . S
N540 H547 0.984 . S
N541 C534 1.356 . S
N541 H544 0.984 . S
N541 H545 0.985 . S
H542 N537 0.984 . S
H543 N537 0.985 . S
H544 N541 0.984 . S
H545 N541 0.985 . S
H546 N540 0.984 . S
H547 N540 0.984 . S
H548 N536 0.984 . S
H549 N536 0.985 . S
C550 C551 1.363 . S
C550 C556 1.379 . S
C550 N558 1.356 . S
C551 C550 1.363 . S
C551 C557 1.363 . S
C552 C553 1.363 . S
C552 C557 1.379 . S
C552 N559 1.356 . S
C553 C552 1.363 . S
C553 C556 1.363 . S
N554 C556 1.356 . S
N554 H566 0.984 . S
N554 H567 0.985 . S
N555 C557 1.356 . S
N555 H560 0.984 . S
N555 H561 0.985 . S
C556 C550 1.379 . S
C556 C553 1.363 . S
C556 N554 1.356 . S
C557 C551 1.363 . S
C557 C552 1.379 . S
C557 N555 1.356 . S
N558 C550 1.356 . S
N558 H564 0.984 . S
N558 H565 0.984 . S
N559 C552 1.356 . S
N559 H562 0.984 . S
N559 H563 0.985 . S
H560 N555 0.984 . S
H561 N555 0.985 . S
H562 N559 0.984 . S
H563 N559 0.985 . S
H564 N558 0.984 . S
H565 N558 0.984 . S
H566 N554 0.984 . S
H567 N554 0.985 . S
C568 C569 1.363 . S
C568 C574 1.379 . S
C568 N576 1.356 . S
C569 C568 1.363 . S
C569 C575 1.363 . S
C570 C571 1.363 . S
C570 C575 1.379 . S
C570 N577 1.356 . S
C571 C570 1.363 . S
C571 C574 1.363 . S
N572 C574 1.356 . S
N572 H584 0.984 . S
N572 H585 0.985 . S
N573 C575 1.356 . S
N573 H578 0.984 . S
N573 H579 0.985 . S
C574 C568 1.379 . S
C574 C571 1.363 . S
C574 N572 1.356 . S
C575 C569 1.363 . S
C575 C570 1.379 . S
C575 N573 1.356 . S
N576 C568 1.356 . S
N576 H582 0.984 . S
N576 H583 0.984 . S
N577 C570 1.356 . S
N577 H580 0.984 . S
N577 H581 0.985 . S
H578 N573 0.984 . S
H579 N573 0.985 . S
H580 N577 0.984 . S
H581 N577 0.985 . S
H582 N576 0.984 . S
H583 N576 0.984 . S
H584 N572 0.984 . S
H585 N572 0.985 . S
C586 C587 1.363 . S
C586 C592 1.379 . S
C586 N594 1.356 . S
C587 C586 1.363 . S
C587 C593 1.363 . S
C588 C589 1.363 . S
C588 C593 1.379 . S
C588 N595 1.356 . S
C589 C588 1.363 . S
C589 C592 1.363 . S
N590 C592 1.356 . S
N590 H602 0.984 . S
N590 H603 0.985 . S
N591 C593 1.356 . S
N591 H596 0.984 . S
N591 H597 0.985 . S
C592 C586 1.379 . S
C592 C589 1.363 . S
C592 N590 1.356 . S
C593 C587 1.363 . S
C593 C588 1.379 . S
C593 N591 1.356 . S
N594 C586 1.356 . S
N594 H600 0.984 . S
N594 H601 0.984 . S
N595 C588 1.356 . S
N595 H598 0.984 . S
N595 H599 0.985 . S
H596 N591 0.984 . S
H597 N591 0.985 . S
H598 N595 0.984 . S
H599 N595 0.985 . S
H600 N594 0.984 . S
H601 N594 0.984 . S
H602 N590 0.984 . S
H603 N590 0.985 . S
C604 C605 1.363 . S
C604 C610 1.379 . S
C604 N612 1.356 . S
C605 C604 1.363 . S
C605 C611 1.363 . S
C606 C607 1.363 . S
C606 C611 1.379 . S
C606 N613 1.356 . S
C607 C606 1.363 . S
C607 C610 1.363 . S
N608 C610 1.356 . S
N608 H620 0.984 . S
N608 H621 0.985 . S
N609 C611 1.356 . S
N609 H614 0.984 . S
N609 H615 0.985 . S
C610 C604 1.379 . S
C610 C607 1.363 . S
C610 N608 1.356 . S
C611 C605 1.363 . S
C611 C606 1.379 . S
C611 N609 1.356 . S
N612 C604 1.356 . S
N612 H618 0.984 . S
N612 H619 0.984 . S
N613 C606 1.356 . S
N613 H616 0.984 . S
N613 H617 0.985 . S
H614 N609 0.984 . S
H615 N609 0.985 . S
H616 N613 0.984 . S
H617 N613 0.985 . S
H618 N612 0.984 . S
H619 N612 0.984 . S
H620 N608 0.984 . S
H621 N608 0.985 . S
C622 C623 1.363 . S
C622 C628 1.379 . S
C622 N630 1.356 . S
C623 C622 1.363 . S
C623 C629 1.363 . S
C624 C625 1.363 . S
C624 C629 1.379 . S
C624 N631 1.356 . S
C625 C624 1.363 . S
C625 C628 1.363 . S
N626 C628 1.356 . S
N626 H638 0.984 . S
N626 H639 0.985 . S
N627 C629 1.356 . S
N627 H632 0.984 . S
N627 H633 0.985 . S
C628 C622 1.379 . S
C628 C625 1.363 . S
C628 N626 1.356 . S
C629 C623 1.363 . S
C629 C624 1.379 . S
C629 N627 1.356 . S
N630 C622 1.356 . S
N630 H636 0.984 . S
N630 H637 0.984 . S
N631 C624 1.356 . S
N631 H634 0.984 . S
N631 H635 0.985 . S
H632 N627 0.984 . S
H633 N627 0.985 . S
H634 N631 0.984 . S
H635 N631 0.985 . S
H636 N630 0.984 . S
H637 N630 0.984 . S
H638 N626 0.984 . S
H639 N626 0.985 . S
C640 C641 1.363 . S
C640 C646 1.379 . S
C640 N648 1.356 . S
C641 C640 1.363 . S
C641 C647 1.363 . S
C642 C643 1.363 . S
C642 C647 1.379 . S
C642 N649 1.356 . S
C643 C642 1.363 . S
C643 C646 1.363 . S
N644 C646 1.356 . S
N644 H656 0.984 . S
N644 H657 0.985 . S
N645 C647 1.356 . S
N645 H650 0.984 . S
N645 H651 0.985 . S
C646 C640 1.379 . S
C646 C643 1.363 . S
C646 N644 1.356 . S
C647 C641 1.363 . S
C647 C642 1.379 . S
C647 N645 1.356 . S
N648 C640 1.356 . S
N648 H654 0.984 . S
N648 H655 0.984 . S
N649 C642 1.356 . S
N649 H652 0.984 . S
N649 H653 0.985 . S
H650 N645 0.984 . S
H651 N645 0.985 . S
H652 N649 0.984 . S
H653 N649 0.985 . S
H654 N648 0.984 . S
H655 N648 0.984 . S
H656 N644 0.984 . S
H657 N644 0.985 . S
C658 C659 1.363 . S
C658 C664 1.379 . S
C658 N666 1.356 . S
C659 C658 1.363 . S
C659 C665 1.363 1_565 S
C660 C661 1.363 1_545 S
C660 C665 1.379 . S
C660 N667 1.356 . S
C661 C660 1.363 1_565 S
C661 C664 1.363 . S
N662 C664 1.356 . S
N662 H674 0.984 . S
N662 H675 0.985 . S
N663 C665 1.356 . S
N663 H668 0.984 . S
N663 H669 0.985 . S
C664 C658 1.379 . S
C664 C661 1.363 . S
C664 N662 1.356 . S
C665 C659 1.363 1_545 S
C665 C660 1.379 . S
C665 N663 1.356 . S
N666 C658 1.356 . S
N666 H672 0.984 . S
N666 H673 0.984 . S
N667 C660 1.356 . S
N667 H670 0.984 . S
N667 H671 0.985 . S
H668 N663 0.984 . S
H669 N663 0.985 . S
H670 N667 0.984 . S
H671 N667 0.985 . S
H672 N666 0.984 . S
H673 N666 0.984 . S
H674 N662 0.984 . S
H675 N662 0.985 . S
C676 C677 1.363 . S
C676 C682 1.379 . S
C676 N684 1.356 . S
C677 C676 1.363 . S
C677 C683 1.363 . S
C678 C679 1.363 . S
C678 C683 1.379 . S
C678 N685 1.356 . S
C679 C678 1.363 . S
C679 C682 1.363 . S
N680 C682 1.356 . S
N680 H692 0.984 . S
N680 H693 0.985 . S
N681 C683 1.356 . S
N681 H686 0.984 . S
N681 H687 0.985 . S
C682 C676 1.379 . S
C682 C679 1.363 . S
C682 N680 1.356 . S
C683 C677 1.363 . S
C683 C678 1.379 . S
C683 N681 1.356 . S
N684 C676 1.356 . S
N684 H690 0.984 . S
N684 H691 0.984 . S
N685 C678 1.356 . S
N685 H688 0.984 . S
N685 H689 0.985 . S
H686 N681 0.984 . S
H687 N681 0.985 . S
H688 N685 0.984 . S
H689 N685 0.985 . S
H690 N684 0.984 . S
H691 N684 0.984 . S
H692 N680 0.984 . S
H693 N680 0.985 . S
C694 C695 1.363 1_565 S
C694 C700 1.379 . S
C694 N702 1.356 . S
C695 C694 1.363 1_545 S
C695 C701 1.363 . S
C696 C697 1.363 . S
C696 C701 1.379 . S
C696 N703 1.356 . S
C697 C696 1.363 . S
C697 C700 1.363 1_545 S
N698 C700 1.356 . S
N698 H710 0.984 . S
N698 H711 0.985 . S
N699 C701 1.356 . S
N699 H704 0.984 . S
N699 H705 0.985 . S
C700 C694 1.379 . S
C700 C697 1.363 1_565 S
C700 N698 1.356 . S
C701 C695 1.363 . S
C701 C696 1.379 . S
C701 N699 1.356 . S
N702 C694 1.356 . S
N702 H708 0.984 . S
N702 H709 0.984 . S
N703 C696 1.356 . S
N703 H706 0.984 . S
N703 H707 0.985 . S
H704 N699 0.984 . S
H705 N699 0.985 . S
H706 N703 0.984 . S
H707 N703 0.985 . S
H708 N702 0.984 . S
H709 N702 0.984 . S
H710 N698 0.984 . S
H711 N698 0.985 . S
C712 C713 1.363 . S
C712 C718 1.379 . S
C712 N720 1.356 . S
C713 C712 1.363 . S
C713 C719 1.363 . S
C714 C715 1.363 . S
C714 C719 1.379 . S
C714 N721 1.356 . S
C715 C714 1.363 . S
C715 C718 1.363 . S
N716 C718 1.356 . S
N716 H728 0.984 . S
N716 H729 0.985 . S
N717 C719 1.356 . S
N717 H722 0.984 . S
N717 H723 0.985 . S
C718 C712 1.379 . S
C718 C715 1.363 . S
C718 N716 1.356 . S
C719 C713 1.363 . S
C719 C714 1.379 . S
C719 N717 1.356 . S
N720 C712 1.356 . S
N720 H726 0.984 . S
N720 H727 0.984 . S
N721 C714 1.356 . S
N721 H724 0.984 . S
N721 H725 0.985 . S
H722 N717 0.984 . S
H723 N717 0.985 . S
H724 N721 0.984 . S
H725 N721 0.985 . S
H726 N720 0.984 . S
H727 N720 0.984 . S
H728 N716 0.984 . S
H729 N716 0.985 . S
C730 C731 1.363 . S
C730 C736 1.379 . S
C730 N738 1.356 . S
C731 C730 1.363 . S
C731 C737 1.363 1_556 S
C732 C733 1.363 1_554 S
C732 C737 1.379 . S
C732 N739 1.356 . S
C733 C732 1.363 1_556 S
C733 C736 1.363 . S
N734 C736 1.356 . S
N734 H746 0.984 . S
N734 H747 0.985 . S
N735 C737 1.356 . S
N735 H740 0.984 . S
N735 H741 0.985 . S
C736 C730 1.379 . S
C736 C733 1.363 . S
C736 N734 1.356 . S
C737 C731 1.363 1_554 S
C737 C732 1.379 . S
C737 N735 1.356 . S
N738 C730 1.356 . S
N738 H744 0.984 . S
N738 H745 0.984 . S
N739 C732 1.356 . S
N739 H742 0.984 . S
N739 H743 0.985 . S
H740 N735 0.984 . S
H741 N735 0.985 . S
H742 N739 0.984 . S
H743 N739 0.985 . S
H744 N738 0.984 . S
H745 N738 0.984 . S
H746 N734 0.984 . S
H747 N734 0.985 . S
C748 C749 1.363 . S
C748 C754 1.379 . S
C748 N756 1.356 . S
C749 C748 1.363 . S
C749 C755 1.363 1_554 S
C750 C751 1.363 . S
C750 C755 1.379 . S
C750 N757 1.356 . S
C751 C750 1.363 . S
C751 C754 1.363 1_556 S
N752 C754 1.356 . S
N752 H764 0.984 . S
N752 H765 0.985 . S
N753 C755 1.356 . S
N753 H758 0.984 . S
N753 H759 0.985 . S
C754 C748 1.379 . S
C754 C751 1.363 1_554 S
C754 N752 1.356 . S
C755 C749 1.363 1_556 S
C755 C750 1.379 . S
C755 N753 1.356 . S
N756 C748 1.356 . S
N756 H762 0.984 . S
N756 H763 0.984 . S
N757 C750 1.356 . S
N757 H760 0.984 . S
N757 H761 0.985 . S
H758 N753 0.984 . S
H759 N753 0.985 . S
H760 N757 0.984 . S
H761 N757 0.985 . S
H762 N756 0.984 . S
H763 N756 0.984 . S
H764 N752 0.984 . S
H765 N752 0.985 . S
C766 C767 1.363 . S
C766 C772 1.379 . S
C766 N774 1.356 . S
C767 C766 1.363 . S
C767 C773 1.363 1_554 S
C768 C769 1.363 1_556 S
C768 C773 1.379 . S
C768 N775 1.356 . S
C769 C768 1.363 1_554 S
C769 C772 1.363 . S
N770 C772 1.356 . S
N770 H782 0.984 . S
N770 H783 0.985 . S
N771 C773 1.356 . S
N771 H776 0.984 . S
N771 H777 0.985 . S
C772 C766 1.379 . S
C772 C769 1.363 . S
C772 N770 1.356 . S
C773 C767 1.363 1_556 S
C773 C768 1.379 . S
C773 N771 1.356 . S
N774 C766 1.356 . S
N774 H780 0.984 . S
N774 H781 0.984 . S
N775 C768 1.356 . S
N775 H778 0.984 . S
N775 H779 0.985 . S
H776 N771 0.984 . S
H777 N771 0.985 . S
H778 N775 0.984 . S
H779 N775 0.985 . S
H780 N774 0.984 . S
H781 N774 0.984 . S
H782 N770 0.984 . S
H783 N770 0.985 . S
C784 C785 1.363 1_655 S
C784 C790 1.379 . S
C784 N792 1.356 . S
C785 C784 1.363 1_455 S
C785 C791 1.363 . S
C786 C787 1.363 . S
C786 C791 1.379 . S
C786 N793 1.356 . S
C787 C786 1.363 . S
C787 C790 1.363 1_455 S
N788 C790 1.356 . S
N788 H800 0.984 . S
N788 H801 0.985 . S
N789 C791 1.356 . S
N789 H794 0.984 . S
N789 H795 0.985 . S
C790 C784 1.379 . S
C790 C787 1.363 1_655 S
C790 N788 1.356 . S
C791 C785 1.363 . S
C791 C786 1.379 . S
C791 N789 1.356 . S
N792 C784 1.356 . S
N792 H798 0.984 . S
N792 H799 0.984 . S
N793 C786 1.356 . S
N793 H796 0.984 . S
N793 H797 0.985 . S
H794 N789 0.984 . S
H795 N789 0.985 . S
H796 N793 0.984 . S
H797 N793 0.985 . S
H798 N792 0.984 . S
H799 N792 0.984 . S
H800 N788 0.984 . S
H801 N788 0.985 . S
C802 C803 1.363 1_455 S
C802 C808 1.379 . S
C802 N810 1.356 . S
C803 C802 1.363 1_655 S
C803 C809 1.363 . S
C804 C805 1.363 1_655 S
C804 C809 1.379 . S
C804 N811 1.356 . S
C805 C804 1.363 1_455 S
C805 C808 1.363 . S
N806 C808 1.356 . S
N806 H818 0.984 . S
N806 H819 0.985 . S
N807 C809 1.356 . S
N807 H812 0.984 . S
N807 H813 0.985 . S
C808 C802 1.379 . S
C808 C805 1.363 . S
C808 N806 1.356 . S
C809 C803 1.363 . S
C809 C804 1.379 . S
C809 N807 1.356 . S
N810 C802 1.356 . S
N810 H816 0.984 . S
N810 H817 0.984 . S
N811 C804 1.356 . S
N811 H814 0.984 . S
N811 H815 0.985 . S
H812 N807 0.984 . S
H813 N807 0.985 . S
H814 N811 0.984 . S
H815 N811 0.985 . S
H816 N810 0.984 . S
H817 N810 0.984 . S
H818 N806 0.984 . S
H819 N806 0.985 . S
C820 C821 1.363 . S
C820 C826 1.379 . S
C820 N828 1.356 . S
C821 C820 1.363 . S
C821 C827 1.363 . S
C822 C823 1.363 . S
C822 C827 1.379 . S
C822 N829 1.356 . S
C823 C822 1.363 . S
C823 C826 1.363 . S
N824 C826 1.356 . S
N824 H836 0.984 . S
N824 H837 0.985 . S
N825 C827 1.356 . S
N825 H830 0.984 . S
N825 H831 0.985 . S
C826 C820 1.379 . S
C826 C823 1.363 . S
C826 N824 1.356 . S
C827 C821 1.363 . S
C827 C822 1.379 . S
C827 N825 1.356 . S
N828 C820 1.356 . S
N828 H834 0.984 . S
N828 H835 0.984 . S
N829 C822 1.356 . S
N829 H832 0.984 . S
N829 H833 0.985 . S
H830 N825 0.984 . S
H831 N825 0.985 . S
H832 N829 0.984 . S
H833 N829 0.985 . S
H834 N828 0.984 . S
H835 N828 0.984 . S
H836 N824 0.984 . S
H837 N824 0.985 . S
C838 C839 1.363 . S
C838 C844 1.379 . S
C838 N846 1.356 . S
C839 C838 1.363 . S
C839 C845 1.363 1_455 S
C840 C841 1.363 1_655 S
C840 C845 1.379 . S
C840 N847 1.356 . S
C841 C840 1.363 1_455 S
C841 C844 1.363 . S
N842 C844 1.356 . S
N842 H854 0.984 . S
N842 H855 0.985 . S
N843 C845 1.356 . S
N843 H848 0.984 . S
N843 H849 0.985 . S
C844 C838 1.379 . S
C844 C841 1.363 . S
C844 N842 1.356 . S
C845 C839 1.363 1_655 S
C845 C840 1.379 . S
C845 N843 1.356 . S
N846 C838 1.356 . S
N846 H852 0.984 . S
N846 H853 0.984 . S
N847 C840 1.356 . S
N847 H850 0.984 . S
N847 H851 0.985 . S
H848 N843 0.984 . S
H849 N843 0.985 . S
H850 N847 0.984 . S
H851 N847 0.985 . S
H852 N846 0.984 . S
H853 N846 0.984 . S
H854 N842 0.984 . S
H855 N842 0.985 . S
C856 C857 1.363 1_565 S
C856 C862 1.379 . S
C856 N864 1.356 . S
C857 C856 1.363 1_545 S
C857 C863 1.363 . S
C858 C859 1.363 . S
C858 C863 1.379 . S
C858 N865 1.356 . S
C859 C858 1.363 . S
C859 C862 1.363 1_545 S
N860 C862 1.356 . S
N860 H872 0.984 . S
N860 H873 0.985 . S
N861 C863 1.356 . S
N861 H866 0.984 . S
N861 H867 0.985 . S
C862 C856 1.379 . S
C862 C859 1.363 1_565 S
C862 N860 1.356 . S
C863 C857 1.363 . S
C863 C858 1.379 . S
C863 N861 1.356 . S
N864 C856 1.356 . S
N864 H870 0.984 . S
N864 H871 0.984 . S
N865 C858 1.356 . S
N865 H868 0.984 . S
N865 H869 0.985 . S
H866 N861 0.984 . S
H867 N861 0.985 . S
H868 N865 0.984 . S
H869 N865 0.985 . S
H870 N864 0.984 . S
H871 N864 0.984 . S
H872 N860 0.984 . S
H873 N860 0.985 . S
C874 C875 1.363 . S
C874 C880 1.379 . S
C874 N882 1.356 . S
C875 C874 1.363 . S
C875 C881 1.363 . S
C876 C877 1.363 . S
C876 C881 1.379 . S
C876 N883 1.356 . S
C877 C876 1.363 . S
C877 C880 1.363 . S
N878 C880 1.356 . S
N878 H890 0.984 . S
N878 H891 0.985 . S
N879 C881 1.356 . S
N879 H884 0.984 . S
N879 H885 0.985 . S
C880 C874 1.379 . S
C880 C877 1.363 . S
C880 N878 1.356 . S
C881 C875 1.363 . S
C881 C876 1.379 . S
C881 N879 1.356 . S
N882 C874 1.356 . S
N882 H888 0.984 . S
N882 H889 0.984 . S
N883 C876 1.356 . S
N883 H886 0.984 . S
N883 H887 0.985 . S
H884 N879 0.984 . S
H885 N879 0.985 . S
H886 N883 0.984 . S
H887 N883 0.985 . S
H888 N882 0.984 . S
H889 N882 0.984 . S
H890 N878 0.984 . S
H891 N878 0.985 . S
C892 C893 1.363 . S
C892 C898 1.379 . S
C892 N900 1.356 . S
C893 C892 1.363 . S
C893 C899 1.363 1_565 S
C894 C895 1.363 1_545 S
C894 C899 1.379 . S
C894 N901 1.356 . S
C895 C894 1.363 1_565 S
C895 C898 1.363 . S
N896 C898 1.356 . S
N896 H908 0.984 . S
N896 H909 0.985 . S
N897 C899 1.356 . S
N897 H902 0.984 . S
N897 H903 0.985 . S
C898 C892 1.379 . S
C898 C895 1.363 . S
C898 N896 1.356 . S
C899 C893 1.363 1_545 S
C899 C894 1.379 . S
C899 N897 1.356 . S
N900 C892 1.356 . S
N900 H906 0.984 . S
N900 H907 0.984 . S
N901 C894 1.356 . S
N901 H904 0.984 . S
N901 H905 0.985 . S
H902 N897 0.984 . S
H903 N897 0.985 . S
H904 N901 0.984 . S
H905 N901 0.985 . S
H906 N900 0.984 . S
H907 N900 0.984 . S
H908 N896 0.984 . S
H909 N896 0.985 . S
C910 C911 1.363 . S
C910 C916 1.379 . S
C910 N918 1.356 . S
C911 C910 1.363 . S
C911 C917 1.363 . S
C912 C913 1.363 . S
C912 C917 1.379 . S
C912 N919 1.356 . S
C913 C912 1.363 . S
C913 C916 1.363 . S
N914 C916 1.356 . S
N914 H926 0.984 . S
N914 H927 0.985 . S
N915 C917 1.356 . S
N915 H920 0.984 . S
N915 H921 0.985 . S
C916 C910 1.379 . S
C916 C913 1.363 . S
C916 N914 1.356 . S
C917 C911 1.363 . S
C917 C912 1.379 . S
C917 N915 1.356 . S
N918 C910 1.356 . S
N918 H924 0.984 . S
N918 H925 0.984 . S
N919 C912 1.356 . S
N919 H922 0.984 . S
N919 H923 0.985 . S
H920 N915 0.984 . S
H921 N915 0.985 . S
H922 N919 0.984 . S
H923 N919 0.985 . S
H924 N918 0.984 . S
H925 N918 0.984 . S
H926 N914 0.984 . S
H927 N914 0.985 . S
C928 C929 1.363 . S
C928 C934 1.379 . S
C928 N936 1.356 1_554 S
C929 C928 1.363 . S
C929 C935 1.363 . S
C930 C931 1.363 . S
C930 C935 1.379 . S
C930 N937 1.356 . S
C931 C930 1.363 . S
C931 C934 1.363 . S
N932 C934 1.356 1_556 S
N932 H944 0.984 . S
N932 H945 0.985 . S
N933 C935 1.356 . S
N933 H938 0.984 . S
N933 H939 0.985 . S
C934 C928 1.379 . S
C934 C931 1.363 . S
C934 N932 1.356 1_554 S
C935 C929 1.363 . S
C935 C930 1.379 . S
C935 N933 1.356 . S
N936 C928 1.356 1_556 S
N936 H942 0.984 . S
N936 H943 0.984 . S
N937 C930 1.356 . S
N937 H940 0.984 . S
N937 H941 0.985 . S
H938 N933 0.984 . S
H939 N933 0.985 . S
H940 N937 0.984 . S
H941 N937 0.985 . S
H942 N936 0.984 . S
H943 N936 0.984 . S
H944 N932 0.984 . S
H945 N932 0.985 . S
C946 C947 1.363 . S
C946 C952 1.379 . S
C946 N954 1.356 . S
C947 C946 1.363 . S
C947 C953 1.363 . S
C948 C949 1.363 . S
C948 C953 1.379 . S
C948 N955 1.356 . S
C949 C948 1.363 . S
C949 C952 1.363 . S
N950 C952 1.356 . S
N950 H962 0.984 . S
N950 H963 0.985 . S
N951 C953 1.356 . S
N951 H956 0.984 . S
N951 H957 0.985 . S
C952 C946 1.379 . S
C952 C949 1.363 . S
C952 N950 1.356 . S
C953 C947 1.363 . S
C953 C948 1.379 . S
C953 N951 1.356 . S
N954 C946 1.356 . S
N954 H960 0.984 . S
N954 H961 0.984 . S
N955 C948 1.356 . S
N955 H958 0.984 . S
N955 H959 0.985 . S
H956 N951 0.984 . S
H957 N951 0.985 . S
H958 N955 0.984 . S
H959 N955 0.985 . S
H960 N954 0.984 . S
H961 N954 0.984 . S
H962 N950 0.984 . S
H963 N950 0.985 . S
C964 C965 1.363 . S
C964 C970 1.379 . S
C964 N972 1.356 . S
C965 C964 1.363 . S
C965 C971 1.363 . S
C966 C967 1.363 . S
C966 C971 1.379 . S
C966 N973 1.356 . S
C967 C966 1.363 . S
C967 C970 1.363 . S
N968 C970 1.356 . S
N968 H980 0.984 . S
N968 H981 0.985 . S
N969 C971 1.356 . S
N969 H974 0.984 . S
N969 H975 0.985 . S
C970 C964 1.379 . S
C970 C967 1.363 . S
C970 N968 1.356 . S
C971 C965 1.363 . S
C971 C966 1.379 . S
C971 N969 1.356 . S
N972 C964 1.356 . S
N972 H978 0.984 . S
N972 H979 0.984 . S
N973 C966 1.356 . S
N973 H976 0.984 . S
N973 H977 0.985 . S
H974 N969 0.984 . S
H975 N969 0.985 . S
H976 N973 0.984 . S
H977 N973 0.985 . S
H978 N972 0.984 . S
H979 N972 0.984 . S
H980 N968 0.984 . S
H981 N968 0.985 . S
C982 C983 1.363 . S
C982 C988 1.379 . S
C982 N990 1.356 . S
C983 C982 1.363 . S
C983 C989 1.363 . S
C984 C985 1.363 . S
C984 C989 1.379 . S
C984 N991 1.356 . S
C985 C984 1.363 . S
C985 C988 1.363 . S
N986 C988 1.356 . S
N986 H998 0.984 . S
N986 H999 0.985 . S
N987 C989 1.356 . S
N987 H992 0.984 . S
N987 H993 0.985 . S
C988 C982 1.379 . S
C988 C985 1.363 . S
C988 N986 1.356 . S
C989 C983 1.363 . S
C989 C984 1.379 . S
C989 N987 1.356 . S
N990 C982 1.356 . S
N990 H996 0.984 . S
N990 H997 0.984 . S
N991 C984 1.356 . S
N991 H994 0.984 . S
N991 H995 0.985 . S
H992 N987 0.984 . S
H993 N987 0.985 . S
H994 N991 0.984 . S
H995 N991 0.985 . S
H996 N990 0.984 . S
H997 N990 0.984 . S
H998 N986 0.984 . S
H999 N986 0.985 . S
C1000 C1001 1.363 . S
C1000 C1006 1.379 . S
C1000 N1008 1.356 . S
C1001 C1000 1.363 . S
C1001 C1007 1.363 . S
C1002 C1003 1.363 . S
C1002 C1007 1.379 . S
C1002 N1009 1.356 . S
C1003 C1002 1.363 . S
C1003 C1006 1.363 . S
N1004 C1006 1.356 . S
N1004 H1016 0.984 . S
N1004 H1017 0.985 . S
N1005 C1007 1.356 . S
N1005 H1010 0.984 . S
N1005 H1011 0.985 . S
C1006 C1000 1.379 . S
C1006 C1003 1.363 . S
C1006 N1004 1.356 . S
C1007 C1001 1.363 . S
C1007 C1002 1.379 . S
C1007 N1005 1.356 . S
N1008 C1000 1.356 . S
N1008 H1014 0.984 . S
N1008 H1015 0.984 . S
N1009 C1002 1.356 . S
N1009 H1012 0.984 . S
N1009 H1013 0.985 . S
H1010 N1005 0.984 . S
H1011 N1005 0.985 . S
H1012 N1009 0.984 . S
H1013 N1009 0.985 . S
H1014 N1008 0.984 . S
H1015 N1008 0.984 . S
H1016 N1004 0.984 . S
H1017 N1004 0.985 . S
C1018 C1019 1.363 . S
C1018 C1024 1.379 . S
C1018 N1026 1.356 . S
C1019 C1018 1.363 . S
C1019 C1025 1.363 . S
C1020 C1021 1.363 . S
C1020 C1025 1.379 . S
C1020 N1027 1.356 . S
C1021 C1020 1.363 . S
C1021 C1024 1.363 . S
N1022 C1024 1.356 . S
N1022 H1034 0.984 . S
N1022 H1035 0.985 . S
N1023 C1025 1.356 . S
N1023 H1028 0.984 . S
N1023 H1029 0.985 . S
C1024 C1018 1.379 . S
C1024 C1021 1.363 . S
C1024 N1022 1.356 . S
C1025 C1019 1.363 . S
C1025 C1020 1.379 . S
C1025 N1023 1.356 . S
N1026 C1018 1.356 . S
N1026 H1032 0.984 . S
N1026 H1033 0.984 . S
N1027 C1020 1.356 . S
N1027 H1030 0.984 . S
N1027 H1031 0.985 . S
H1028 N1023 0.984 . S
H1029 N1023 0.985 . S
H1030 N1027 0.984 . S
H1031 N1027 0.985 . S
H1032 N1026 0.984 . S
H1033 N1026 0.984 . S
H1034 N1022 0.984 . S
H1035 N1022 0.985 . S
C1036 C1037 1.363 . S
C1036 C1042 1.379 . S
C1036 N1044 1.356 . S
C1037 C1036 1.363 . S
C1037 C1043 1.363 . S
C1038 C1039 1.363 . S
C1038 C1043 1.379 . S
C1038 N1045 1.356 . S
C1039 C1038 1.363 . S
C1039 C1042 1.363 . S
N1040 C1042 1.356 . S
N1040 H1052 0.984 . S
N1040 H1053 0.985 . S
N1041 C1043 1.356 . S
N1041 H1046 0.984 . S
N1041 H1047 0.985 . S
C1042 C1036 1.379 . S
C1042 C1039 1.363 . S
C1042 N1040 1.356 . S
C1043 C1037 1.363 . S
C1043 C1038 1.379 . S
C1043 N1041 1.356 . S
N1044 C1036 1.356 . S
N1044 H1050 0.984 . S
N1044 H1051 0.984 . S
N1045 C1038 1.356 . S
N1045 H1048 0.984 . S
N1045 H1049 0.985 . S
H1046 N1041 0.984 . S
H1047 N1041 0.985 . S
H1048 N1045 0.984 . S
H1049 N1045 0.985 . S
H1050 N1044 0.984 . S
H1051 N1044 0.984 . S
H1052 N1040 0.984 . S
H1053 N1040 0.985 . S
C1054 C1055 1.363 . S
C1054 C1060 1.379 . S
C1054 N1062 1.356 . S
C1055 C1054 1.363 . S
C1055 C1061 1.363 . S
C1056 C1057 1.363 . S
C1056 C1061 1.379 . S
C1056 N1063 1.356 . S
C1057 C1056 1.363 . S
C1057 C1060 1.363 . S
N1058 C1060 1.356 . S
N1058 H1070 0.984 . S
N1058 H1071 0.985 . S
N1059 C1061 1.356 . S
N1059 H1064 0.984 . S
N1059 H1065 0.985 . S
C1060 C1054 1.379 . S
C1060 C1057 1.363 . S
C1060 N1058 1.356 . S
C1061 C1055 1.363 . S
C1061 C1056 1.379 . S
C1061 N1059 1.356 . S
N1062 C1054 1.356 . S
N1062 H1068 0.984 . S
N1062 H1069 0.984 . S
N1063 C1056 1.356 . S
N1063 H1066 0.984 . S
N1063 H1067 0.985 . S
H1064 N1059 0.984 . S
H1065 N1059 0.985 . S
H1066 N1063 0.984 . S
H1067 N1063 0.985 . S
H1068 N1062 0.984 . S
H1069 N1062 0.984 . S
H1070 N1058 0.984 . S
H1071 N1058 0.985 . S
C1072 C1073 1.363 . S
C1072 C1078 1.379 . S
C1072 N1080 1.356 . S
C1073 C1072 1.363 . S
C1073 C1079 1.363 . S
C1074 C1075 1.363 . S
C1074 C1079 1.379 . S
C1074 N1081 1.356 . S
C1075 C1074 1.363 . S
C1075 C1078 1.363 . S
N1076 C1078 1.356 . S
N1076 H1088 0.984 . S
N1076 H1089 0.985 . S
N1077 C1079 1.356 . S
N1077 H1082 0.984 . S
N1077 H1083 0.985 . S
C1078 C1072 1.379 . S
C1078 C1075 1.363 . S
C1078 N1076 1.356 . S
C1079 C1073 1.363 . S
C1079 C1074 1.379 . S
C1079 N1077 1.356 . S
N1080 C1072 1.356 . S
N1080 H1086 0.984 . S
N1080 H1087 0.984 . S
N1081 C1074 1.356 . S
N1081 H1084 0.984 . S
N1081 H1085 0.985 . S
H1082 N1077 0.984 . S
H1083 N1077 0.985 . S
H1084 N1081 0.984 . S
H1085 N1081 0.985 . S
H1086 N1080 0.984 . S
H1087 N1080 0.984 . S
H1088 N1076 0.984 . S
H1089 N1076 0.985 . S
C1090 C1091 1.363 1_545 S
C1090 C1096 1.379 1_545 S
C1090 N1098 1.356 . S
C1091 C1090 1.363 1_565 S
C1091 C1097 1.363 . S
C1092 C1093 1.363 . S
C1092 C1097 1.379 . S
C1092 N1099 1.356 . S
C1093 C1092 1.363 . S
C1093 C1096 1.363 . S
N1094 C1096 1.357 . S
N1094 H1106 0.981 1_565 S
N1094 H1107 0.988 . S
N1095 C1097 1.356 . S
N1095 H1100 0.984 . S
N1095 H1101 0.985 . S
C1096 C1090 1.379 1_565 S
C1096 C1093 1.363 . S
C1096 N1094 1.357 . S
C1097 C1091 1.363 . S
C1097 C1092 1.379 . S
C1097 N1095 1.356 . S
N1098 C1090 1.356 . S
N1098 H1104 0.984 . S
N1098 H1105 0.984 . S
N1099 C1092 1.356 . S
N1099 H1102 0.984 . S
N1099 H1103 0.985 . S
H1100 N1095 0.984 . S
H1101 N1095 0.985 . S
H1102 N1099 0.984 . S
H1103 N1099 0.985 . S
H1104 N1098 0.984 . S
H1105 N1098 0.984 . S
H1106 N1094 0.981 1_545 S
H1107 N1094 0.988 . S
C1108 C1109 1.363 . S
C1108 C1114 1.379 . S
C1108 N1116 1.356 . S
C1109 C1108 1.363 . S
C1109 C1115 1.363 . S
C1110 C1111 1.363 . S
C1110 C1115 1.379 . S
C1110 N1117 1.356 . S
C1111 C1110 1.363 . S
C1111 C1114 1.363 . S
N1112 C1114 1.356 . S
N1112 H1124 0.984 . S
N1112 H1125 0.985 . S
N1113 C1115 1.356 . S
N1113 H1118 0.984 . S
N1113 H1119 0.985 . S
C1114 C1108 1.379 . S
C1114 C1111 1.363 . S
C1114 N1112 1.356 . S
C1115 C1109 1.363 . S
C1115 C1110 1.379 . S
C1115 N1113 1.356 . S
N1116 C1108 1.356 . S
N1116 H1122 0.984 . S
N1116 H1123 0.984 . S
N1117 C1110 1.356 . S
N1117 H1120 0.984 . S
N1117 H1121 0.985 . S
H1118 N1113 0.984 . S
H1119 N1113 0.985 . S
H1120 N1117 0.984 . S
H1121 N1117 0.985 . S
H1122 N1116 0.984 . S
H1123 N1116 0.984 . S
H1124 N1112 0.984 . S
H1125 N1112 0.985 . S
C1126 C1127 1.363 . S
C1126 C1132 1.379 . S
C1126 N1134 1.356 . S
C1127 C1126 1.363 . S
C1127 C1133 1.363 . S
C1128 C1129 1.363 . S
C1128 C1133 1.379 . S
C1128 N1135 1.356 1_545 S
C1129 C1128 1.363 . S
C1129 C1132 1.363 . S
N1130 C1132 1.356 . S
N1130 H1142 0.984 . S
N1130 H1143 0.985 . S
N1131 C1133 1.356 1_565 S
N1131 H1136 0.984 . S
N1131 H1137 0.985 . S
C1132 C1126 1.379 . S
C1132 C1129 1.363 . S
C1132 N1130 1.356 . S
C1133 C1127 1.363 . S
C1133 C1128 1.379 . S
C1133 N1131 1.356 1_545 S
N1134 C1126 1.356 . S
N1134 H1140 0.984 . S
N1134 H1141 0.984 . S
N1135 C1128 1.356 1_565 S
N1135 H1138 0.984 . S
N1135 H1139 0.985 . S
H1136 N1131 0.984 . S
H1137 N1131 0.985 . S
H1138 N1135 0.984 . S
H1139 N1135 0.985 . S
H1140 N1134 0.984 . S
H1141 N1134 0.984 . S
H1142 N1130 0.984 . S
H1143 N1130 0.985 . S
C1144 C1145 1.363 . S
C1144 C1150 1.379 . S
C1144 N1152 1.356 . S
C1145 C1144 1.363 . S
C1145 C1151 1.363 . S
C1146 C1147 1.363 . S
C1146 C1151 1.379 . S
C1146 N1153 1.356 . S
C1147 C1146 1.363 . S
C1147 C1150 1.363 . S
N1148 C1150 1.356 . S
N1148 H1160 0.984 . S
N1148 H1161 0.985 . S
N1149 C1151 1.356 . S
N1149 H1154 0.984 . S
N1149 H1155 0.985 . S
C1150 C1144 1.379 . S
C1150 C1147 1.363 . S
C1150 N1148 1.356 . S
C1151 C1145 1.363 . S
C1151 C1146 1.379 . S
C1151 N1149 1.356 . S
N1152 C1144 1.356 . S
N1152 H1158 0.984 . S
N1152 H1159 0.984 . S
N1153 C1146 1.356 . S
N1153 H1156 0.984 . S
N1153 H1157 0.985 . S
H1154 N1149 0.984 . S
H1155 N1149 0.985 . S
H1156 N1153 0.984 . S
H1157 N1153 0.985 . S
H1158 N1152 0.984 . S
H1159 N1152 0.984 . S
H1160 N1148 0.984 . S
H1161 N1148 0.985 . S
C1162 C1163 1.363 . S
C1162 C1168 1.379 . S
C1162 N1170 1.356 . S
C1163 C1162 1.363 . S
C1163 C1169 1.363 1_556 S
C1164 C1165 1.363 1_554 S
C1164 C1169 1.379 . S
C1164 N1171 1.356 . S
C1165 C1164 1.363 1_556 S
C1165 C1168 1.363 . S
N1166 C1168 1.356 . S
N1166 H1178 0.984 . S
N1166 H1179 0.985 . S
N1167 C1169 1.356 . S
N1167 H1172 0.984 . S
N1167 H1173 0.985 . S
C1168 C1162 1.379 . S
C1168 C1165 1.363 . S
C1168 N1166 1.356 . S
C1169 C1163 1.363 1_554 S
C1169 C1164 1.379 . S
C1169 N1167 1.356 . S
N1170 C1162 1.356 . S
N1170 H1176 0.984 . S
N1170 H1177 0.984 . S
N1171 C1164 1.356 . S
N1171 H1174 0.984 . S
N1171 H1175 0.985 . S
H1172 N1167 0.984 . S
H1173 N1167 0.985 . S
H1174 N1171 0.984 . S
H1175 N1171 0.985 . S
H1176 N1170 0.984 . S
H1177 N1170 0.984 . S
H1178 N1166 0.984 . S
H1179 N1166 0.985 . S
C1180 C1181 1.363 1_556 S
C1180 C1186 1.379 . S
C1180 N1188 1.356 . S
C1181 C1180 1.363 1_554 S
C1181 C1187 1.363 . S
C1182 C1183 1.363 . S
C1182 C1187 1.379 . S
C1182 N1189 1.356 . S
C1183 C1182 1.363 . S
C1183 C1186 1.363 1_554 S
N1184 C1186 1.356 . S
N1184 H1196 0.984 . S
N1184 H1197 0.985 . S
N1185 C1187 1.356 . S
N1185 H1190 0.984 . S
N1185 H1191 0.985 . S
C1186 C1180 1.379 . S
C1186 C1183 1.363 1_556 S
C1186 N1184 1.356 . S
C1187 C1181 1.363 . S
C1187 C1182 1.379 . S
C1187 N1185 1.356 . S
N1188 C1180 1.356 . S
N1188 H1194 0.984 . S
N1188 H1195 0.984 . S
N1189 C1182 1.356 . S
N1189 H1192 0.984 . S
N1189 H1193 0.985 . S
H1190 N1185 0.984 . S
H1191 N1185 0.985 . S
H1192 N1189 0.984 . S
H1193 N1189 0.985 . S
H1194 N1188 0.984 . S
H1195 N1188 0.984 . S
H1196 N1184 0.984 . S
H1197 N1184 0.985 . S
C1198 C1199 1.363 1_556 S
C1198 C1204 1.379 . S
C1198 N1206 1.356 . S
C1199 C1198 1.363 1_554 S
C1199 C1205 1.363 . S
C1200 C1201 1.363 . S
C1200 C1205 1.379 . S
C1200 N1207 1.356 . S
C1201 C1200 1.363 . S
C1201 C1204 1.363 1_554 S
N1202 C1204 1.356 . S
N1202 H1214 0.984 . S
N1202 H1215 0.985 . S
N1203 C1205 1.356 . S
N1203 H1208 0.984 . S
N1203 H1209 0.985 . S
C1204 C1198 1.379 . S
C1204 C1201 1.363 1_556 S
C1204 N1202 1.356 . S
C1205 C1199 1.363 . S
C1205 C1200 1.379 . S
C1205 N1203 1.356 . S
N1206 C1198 1.356 . S
N1206 H1212 0.984 . S
N1206 H1213 0.984 . S
N1207 C1200 1.356 . S
N1207 H1210 0.984 . S
N1207 H1211 0.985 . S
H1208 N1203 0.984 . S
H1209 N1203 0.985 . S
H1210 N1207 0.984 . S
H1211 N1207 0.985 . S
H1212 N1206 0.984 . S
H1213 N1206 0.984 . S
H1214 N1202 0.984 . S
H1215 N1202 0.985 . S
C353 C13 1.605 . S
C355 C231 1.597 . S
C373 C257 1.645 1_655 S
C371 C1 1.672 . S
C391 C189 1.659 . S
C389 C27 1.633 . S
C407 C15 1.444 . S
C409 C212 1.462 . S
C425 C28 1.552 . S
C427 C346 1.543 . S
C443 C55 1.439 . S
C445 C327 1.461 . S
C463 C280 1.646 . S
C461 C40 1.693 . S
C479 C43 1.729 . S
C481 C303 1.705 . S
C499 C208 1.677 . S
C497 C56 1.694 . S
C517 C258 1.475 . S
C515 C83 1.457 . S
C533 C96 1.618 . S
C535 C234 1.581 . S
C551 C71 1.700 . S
C553 C300 1.678 . S
C571 C323 1.597 . S
C569 C99 1.605 . S
C589 C349 1.645 . S
C587 C111 1.672 . S
C605 C113 1.633 . S
C607 C304 1.660 . S
C625 C281 1.462 . S
C623 C125 1.444 . S
C641 C139 1.554 . S
C643 C254 1.543 . S
C659 C153 1.439 1_565 S
C661 C235 1.461 . S
C679 C211 1.646 . S
C677 C127 1.694 . S
C695 C141 1.729 . S
C697 C188 1.705 . S
C715 C277 1.677 . S
C713 C84 1.694 . S
C733 C350 1.475 . S
C731 C154 1.456 . S
C749 C68 1.618 . S
C751 C326 1.581 . S
C767 C166 1.698 . S
C769 C185 1.678 . S
C787 C187 1.338 . S
C785 C0 1.420 . S
C803 C12 1.546 . S
C805 C210 1.431 1_455 S
C823 C232 1.317 . S
C821 C14 1.301 . S
C841 C253 1.382 1_455 S
C839 C26 1.390 . S
C857 C41 1.458 . S
C859 C184 1.446 . S
C875 C42 1.449 . S
C877 C207 1.437 . S
C895 C233 1.416 . S
C893 C29 1.524 . S
C911 C54 1.391 . S
C913 C255 1.409 . S
C929 C69 1.337 . S
C931 C186 1.350 . S
C949 C230 1.396 . S
C947 C70 1.407 . S
C965 C85 1.478 . S
C967 C256 1.394 . S
C983 C82 1.275 . S
C985 C278 1.286 . S
C1003 C302 1.338 . S
C1001 C110 1.421 . S
C1019 C98 1.546 . S
C1021 C279 1.430 . S
C1037 C124 1.301 . S
C1039 C324 1.317 . S
C1055 C112 1.391 . S
C1057 C345 1.382 . S
C1073 C126 1.459 . S
C1075 C299 1.446 . S
C1093 C276 1.437 . S
C1091 C140 1.450 1_565 S
C1109 C138 1.526 . S
C1111 C325 1.417 . S
C1129 C347 1.409 . S
C1127 C152 1.391 . S
C1147 C301 1.350 . S
C1145 C97 1.337 . S
C1165 C322 1.396 . S
C1163 C167 1.406 . S
C1183 C348 1.394 1_554 S
C1181 C57 1.478 . S
C1199 C155 1.275 . S
C1201 C209 1.287 . S
