# Generated by pormake.
# Topology gar, (4,6)-cn, num edge types: 1
# Building blocks:
#     Node 0, Type 0, BuildingBlock: NAHDIM_clean_sbu_0, # of connection points: 4
#     Node 1, Type 0, BuildingBlock: NAHDIM_clean_sbu_0, # of connection points: 4
#     Node 2, Type 0, BuildingBlock: NAHDIM_clean_sbu_0, # of connection points: 4
#     Node 3, Type 0, BuildingBlock: NAHDIM_clean_sbu_0, # of connection points: 4
#     Node 4, Type 0, BuildingBlock: NAHDIM_clean_sbu_0, # of connection points: 4
#     Node 5, Type 0, BuildingBlock: NAHDIM_clean_sbu_0, # of connection points: 4
#     Node 6, Type 0, BuildingBlock: NAHDIM_clean_sbu_0, # of connection points: 4
#     Node 7, Type 0, BuildingBlock: NAHDIM_clean_sbu_0, # of connection points: 4
#     Node 8, Type 0, BuildingBlock: NAHDIM_clean_sbu_0, # of connection points: 4
#     Node 9, Type 0, BuildingBlock: NAHDIM_clean_sbu_0, # of connection points: 4
#     Node 10, Type 0, BuildingBlock: NAHDIM_clean_sbu_0, # of connection points: 4
#     Node 11, Type 0, BuildingBlock: NAHDIM_clean_sbu_0, # of connection points: 4
#     Node 12, Type 0, BuildingBlock: NAHDIM_clean_sbu_0, # of connection points: 4
#     Node 13, Type 0, BuildingBlock: NAHDIM_clean_sbu_0, # of connection points: 4
#     Node 14, Type 0, BuildingBlock: NAHDIM_clean_sbu_0, # of connection points: 4
#     Node 15, Type 0, BuildingBlock: NAHDIM_clean_sbu_0, # of connection points: 4
#     Node 16, Type 0, BuildingBlock: NAHDIM_clean_sbu_0, # of connection points: 4
#     Node 17, Type 0, BuildingBlock: NAHDIM_clean_sbu_0, # of connection points: 4
#     Node 18, Type 0, BuildingBlock: NAHDIM_clean_sbu_0, # of connection points: 4
#     Node 19, Type 0, BuildingBlock: NAHDIM_clean_sbu_0, # of connection points: 4
#     Node 20, Type 0, BuildingBlock: NAHDIM_clean_sbu_0, # of connection points: 4
#     Node 21, Type 0, BuildingBlock: NAHDIM_clean_sbu_0, # of connection points: 4
#     Node 22, Type 0, BuildingBlock: NAHDIM_clean_sbu_0, # of connection points: 4
#     Node 23, Type 0, BuildingBlock: NAHDIM_clean_sbu_0, # of connection points: 4
#     Node 24, Type 1, BuildingBlock: KUMJIN_clean_sbu_1, # of connection points: 6
#     Node 25, Type 1, BuildingBlock: KUMJIN_clean_sbu_1, # of connection points: 6
#     Node 26, Type 1, BuildingBlock: KUMJIN_clean_sbu_1, # of connection points: 6
#     Node 27, Type 1, BuildingBlock: KUMJIN_clean_sbu_1, # of connection points: 6
#     Node 28, Type 1, BuildingBlock: KUMJIN_clean_sbu_1, # of connection points: 6
#     Node 29, Type 1, BuildingBlock: KUMJIN_clean_sbu_1, # of connection points: 6
#     Node 30, Type 1, BuildingBlock: KUMJIN_clean_sbu_1, # of connection points: 6
#     Node 31, Type 1, BuildingBlock: KUMJIN_clean_sbu_1, # of connection points: 6
#     Node 32, Type 1, BuildingBlock: KUMJIN_clean_sbu_1, # of connection points: 6
#     Node 33, Type 1, BuildingBlock: KUMJIN_clean_sbu_1, # of connection points: 6
#     Node 34, Type 1, BuildingBlock: KUMJIN_clean_sbu_1, # of connection points: 6
#     Node 35, Type 1, BuildingBlock: KUMJIN_clean_sbu_1, # of connection points: 6
#     Node 36, Type 1, BuildingBlock: KUMJIN_clean_sbu_1, # of connection points: 6
#     Node 37, Type 1, BuildingBlock: KUMJIN_clean_sbu_1, # of connection points: 6
#     Node 38, Type 1, BuildingBlock: KUMJIN_clean_sbu_1, # of connection points: 6
#     Node 39, Type 1, BuildingBlock: KUMJIN_clean_sbu_1, # of connection points: 6
#     Edge 40, Type (0, 1), BuildingBlock: KIFKEQ_clean_linker_1, # of connection points: 2
#     Edge 41, Type (0, 1), BuildingBlock: KIFKEQ_clean_linker_1, # of connection points: 2
#     Edge 42, Type (0, 1), BuildingBlock: KIFKEQ_clean_linker_1, # of connection points: 2
#     Edge 43, Type (0, 1), BuildingBlock: KIFKEQ_clean_linker_1, # of connection points: 2
#     Edge 44, Type (0, 1), BuildingBlock: KIFKEQ_clean_linker_1, # of connection points: 2
#     Edge 45, Type (0, 1), BuildingBlock: KIFKEQ_clean_linker_1, # of connection points: 2
#     Edge 46, Type (0, 1), BuildingBlock: KIFKEQ_clean_linker_1, # of connection points: 2
#     Edge 47, Type (0, 1), BuildingBlock: KIFKEQ_clean_linker_1, # of connection points: 2
#     Edge 48, Type (0, 1), BuildingBlock: KIFKEQ_clean_linker_1, # of connection points: 2
#     Edge 49, Type (0, 1), BuildingBlock: KIFKEQ_clean_linker_1, # of connection points: 2
#     Edge 50, Type (0, 1), BuildingBlock: KIFKEQ_clean_linker_1, # of connection points: 2
#     Edge 51, Type (0, 1), BuildingBlock: KIFKEQ_clean_linker_1, # of connection points: 2
#     Edge 52, Type (0, 1), BuildingBlock: KIFKEQ_clean_linker_1, # of connection points: 2
#     Edge 53, Type (0, 1), BuildingBlock: KIFKEQ_clean_linker_1, # of connection points: 2
#     Edge 54, Type (0, 1), BuildingBlock: KIFKEQ_clean_linker_1, # of connection points: 2
#     Edge 55, Type (0, 1), BuildingBlock: KIFKEQ_clean_linker_1, # of connection points: 2
#     Edge 56, Type (0, 1), BuildingBlock: KIFKEQ_clean_linker_1, # of connection points: 2
#     Edge 57, Type (0, 1), BuildingBlock: KIFKEQ_clean_linker_1, # of connection points: 2
#     Edge 58, Type (0, 1), BuildingBlock: KIFKEQ_clean_linker_1, # of connection points: 2
#     Edge 59, Type (0, 1), BuildingBlock: KIFKEQ_clean_linker_1, # of connection points: 2
#     Edge 60, Type (0, 1), BuildingBlock: KIFKEQ_clean_linker_1, # of connection points: 2
#     Edge 61, Type (0, 1), BuildingBlock: KIFKEQ_clean_linker_1, # of connection points: 2
#     Edge 62, Type (0, 1), BuildingBlock: KIFKEQ_clean_linker_1, # of connection points: 2
#     Edge 63, Type (0, 1), BuildingBlock: KIFKEQ_clean_linker_1, # of connection points: 2
#     Edge 64, Type (0, 1), BuildingBlock: KIFKEQ_clean_linker_1, # of connection points: 2
#     Edge 65, Type (0, 1), BuildingBlock: KIFKEQ_clean_linker_1, # of connection points: 2
#     Edge 66, Type (0, 1), BuildingBlock: KIFKEQ_clean_linker_1, # of connection points: 2
#     Edge 67, Type (0, 1), BuildingBlock: KIFKEQ_clean_linker_1, # of connection points: 2
#     Edge 68, Type (0, 1), BuildingBlock: KIFKEQ_clean_linker_1, # of connection points: 2
#     Edge 69, Type (0, 1), BuildingBlock: KIFKEQ_clean_linker_1, # of connection points: 2
#     Edge 70, Type (0, 1), BuildingBlock: KIFKEQ_clean_linker_1, # of connection points: 2
#     Edge 71, Type (0, 1), BuildingBlock: KIFKEQ_clean_linker_1, # of connection points: 2
#     Edge 72, Type (0, 1), BuildingBlock: KIFKEQ_clean_linker_1, # of connection points: 2
#     Edge 73, Type (0, 1), BuildingBlock: KIFKEQ_clean_linker_1, # of connection points: 2
#     Edge 74, Type (0, 1), BuildingBlock: KIFKEQ_clean_linker_1, # of connection points: 2
#     Edge 75, Type (0, 1), BuildingBlock: KIFKEQ_clean_linker_1, # of connection points: 2
#     Edge 76, Type (0, 1), BuildingBlock: KIFKEQ_clean_linker_1, # of connection points: 2
#     Edge 77, Type (0, 1), BuildingBlock: KIFKEQ_clean_linker_1, # of connection points: 2
#     Edge 78, Type (0, 1), BuildingBlock: KIFKEQ_clean_linker_1, # of connection points: 2
#     Edge 79, Type (0, 1), BuildingBlock: KIFKEQ_clean_linker_1, # of connection points: 2
#     Edge 80, Type (0, 1), BuildingBlock: KIFKEQ_clean_linker_1, # of connection points: 2
#     Edge 81, Type (0, 1), BuildingBlock: KIFKEQ_clean_linker_1, # of connection points: 2
#     Edge 82, Type (0, 1), BuildingBlock: KIFKEQ_clean_linker_1, # of connection points: 2
#     Edge 83, Type (0, 1), BuildingBlock: KIFKEQ_clean_linker_1, # of connection points: 2
#     Edge 84, Type (0, 1), BuildingBlock: KIFKEQ_clean_linker_1, # of connection points: 2
#     Edge 85, Type (0, 1), BuildingBlock: KIFKEQ_clean_linker_1, # of connection points: 2
#     Edge 86, Type (0, 1), BuildingBlock: KIFKEQ_clean_linker_1, # of connection points: 2
#     Edge 87, Type (0, 1), BuildingBlock: KIFKEQ_clean_linker_1, # of connection points: 2
#     Edge 88, Type (0, 1), BuildingBlock: KIFKEQ_clean_linker_1, # of connection points: 2
#     Edge 89, Type (0, 1), BuildingBlock: KIFKEQ_clean_linker_1, # of connection points: 2
#     Edge 90, Type (0, 1), BuildingBlock: KIFKEQ_clean_linker_1, # of connection points: 2
#     Edge 91, Type (0, 1), BuildingBlock: KIFKEQ_clean_linker_1, # of connection points: 2
#     Edge 92, Type (0, 1), BuildingBlock: KIFKEQ_clean_linker_1, # of connection points: 2
#     Edge 93, Type (0, 1), BuildingBlock: KIFKEQ_clean_linker_1, # of connection points: 2
#     Edge 94, Type (0, 1), BuildingBlock: KIFKEQ_clean_linker_1, # of connection points: 2
#     Edge 95, Type (0, 1), BuildingBlock: KIFKEQ_clean_linker_1, # of connection points: 2
#     Edge 96, Type (0, 1), BuildingBlock: KIFKEQ_clean_linker_1, # of connection points: 2
#     Edge 97, Type (0, 1), BuildingBlock: KIFKEQ_clean_linker_1, # of connection points: 2
#     Edge 98, Type (0, 1), BuildingBlock: KIFKEQ_clean_linker_1, # of connection points: 2
#     Edge 99, Type (0, 1), BuildingBlock: KIFKEQ_clean_linker_1, # of connection points: 2
#     Edge 100, Type (0, 1), BuildingBlock: KIFKEQ_clean_linker_1, # of connection points: 2
#     Edge 101, Type (0, 1), BuildingBlock: KIFKEQ_clean_linker_1, # of connection points: 2
#     Edge 102, Type (0, 1), BuildingBlock: KIFKEQ_clean_linker_1, # of connection points: 2
#     Edge 103, Type (0, 1), BuildingBlock: KIFKEQ_clean_linker_1, # of connection points: 2
#     Edge 104, Type (0, 1), BuildingBlock: KIFKEQ_clean_linker_1, # of connection points: 2
#     Edge 105, Type (0, 1), BuildingBlock: KIFKEQ_clean_linker_1, # of connection points: 2
#     Edge 106, Type (0, 1), BuildingBlock: KIFKEQ_clean_linker_1, # of connection points: 2
#     Edge 107, Type (0, 1), BuildingBlock: KIFKEQ_clean_linker_1, # of connection points: 2
#     Edge 108, Type (0, 1), BuildingBlock: KIFKEQ_clean_linker_1, # of connection points: 2
#     Edge 109, Type (0, 1), BuildingBlock: KIFKEQ_clean_linker_1, # of connection points: 2
#     Edge 110, Type (0, 1), BuildingBlock: KIFKEQ_clean_linker_1, # of connection points: 2
#     Edge 111, Type (0, 1), BuildingBlock: KIFKEQ_clean_linker_1, # of connection points: 2
#     Edge 112, Type (0, 1), BuildingBlock: KIFKEQ_clean_linker_1, # of connection points: 2
#     Edge 113, Type (0, 1), BuildingBlock: KIFKEQ_clean_linker_1, # of connection points: 2
#     Edge 114, Type (0, 1), BuildingBlock: KIFKEQ_clean_linker_1, # of connection points: 2
#     Edge 115, Type (0, 1), BuildingBlock: KIFKEQ_clean_linker_1, # of connection points: 2
#     Edge 116, Type (0, 1), BuildingBlock: KIFKEQ_clean_linker_1, # of connection points: 2
#     Edge 117, Type (0, 1), BuildingBlock: KIFKEQ_clean_linker_1, # of connection points: 2
#     Edge 118, Type (0, 1), BuildingBlock: KIFKEQ_clean_linker_1, # of connection points: 2
#     Edge 119, Type (0, 1), BuildingBlock: KIFKEQ_clean_linker_1, # of connection points: 2
#     Edge 120, Type (0, 1), BuildingBlock: KIFKEQ_clean_linker_1, # of connection points: 2
#     Edge 121, Type (0, 1), BuildingBlock: KIFKEQ_clean_linker_1, # of connection points: 2
#     Edge 122, Type (0, 1), BuildingBlock: KIFKEQ_clean_linker_1, # of connection points: 2
#     Edge 123, Type (0, 1), BuildingBlock: KIFKEQ_clean_linker_1, # of connection points: 2
#     Edge 124, Type (0, 1), BuildingBlock: KIFKEQ_clean_linker_1, # of connection points: 2
#     Edge 125, Type (0, 1), BuildingBlock: KIFKEQ_clean_linker_1, # of connection points: 2
#     Edge 126, Type (0, 1), BuildingBlock: KIFKEQ_clean_linker_1, # of connection points: 2
#     Edge 127, Type (0, 1), BuildingBlock: KIFKEQ_clean_linker_1, # of connection points: 2
#     Edge 128, Type (0, 1), BuildingBlock: KIFKEQ_clean_linker_1, # of connection points: 2
#     Edge 129, Type (0, 1), BuildingBlock: KIFKEQ_clean_linker_1, # of connection points: 2
#     Edge 130, Type (0, 1), BuildingBlock: KIFKEQ_clean_linker_1, # of connection points: 2
#     Edge 131, Type (0, 1), BuildingBlock: KIFKEQ_clean_linker_1, # of connection points: 2
#     Edge 132, Type (0, 1), BuildingBlock: KIFKEQ_clean_linker_1, # of connection points: 2
#     Edge 133, Type (0, 1), BuildingBlock: KIFKEQ_clean_linker_1, # of connection points: 2
#     Edge 134, Type (0, 1), BuildingBlock: KIFKEQ_clean_linker_1, # of connection points: 2
#     Edge 135, Type (0, 1), BuildingBlock: KIFKEQ_clean_linker_1, # of connection points: 2
# Relax obj value: 0.081
# Max RMSD: 0.197
# Mean RMSD: 0.134
data_MOF--net-gar--node1-NAHDIM_clean_sbu_0--node2-KUMJIN_clean_sbu_1--edge1-KIFKEQ_clean_linker_1
_symmetry_space_group_name_H-M    P1
_symmetry_Int_Tables_number       1
_symmetry_cell_setting            triclinic
loop_
_symmetry_equiv_pos_as_xyz
'x, y, z'
_cell_length_a     61.776407
_cell_length_b     60.770937
_cell_length_c     55.885814
_cell_angle_alpha  96.392506
_cell_angle_beta   96.571676
_cell_angle_gamma 101.6309
loop_
_atom_site_label
_atom_site_type_symbol
_atom_site_fract_x
_atom_site_fract_y
_atom_site_fract_z
_atom_type_partial_charge
C0 C 0.09427 0.30501 0.34189 0.0
O1 O 0.08693 0.28746 0.35276 0.0
O2 O 0.05109 0.29197 0.37789 0.0
Zn3 Zn 0.05257 0.3193 0.35892 0.0
O4 O 0.05723 0.3495 0.3833 0.0
C5 C 1.0023 0.30471 0.34728 0.0
O6 O 1.00619 0.29497 0.36668 0.0
O7 O 0.08245 0.32027 0.34084 0.0
C8 C 0.04099 0.35442 0.39357 0.0
O9 O 0.02175 0.33983 0.3892 0.0
C10 C 0.05105 0.29188 0.40068 0.0
O11 O 0.05193 0.31099 0.41465 0.0
O12 O 0.01935 0.31514 0.33855 0.0
C13 C 0.97856 0.75325 0.71446 0.0
O14 O 0.97461 0.74036 0.69326 0.0
O15 O 0.0229 0.72565 0.6827 0.0
Zn16 Zn 0.02752 0.75803 0.70349 0.0
O17 O 0.02757 0.78239 0.68049 0.0
C18 C 0.07497 0.7521 0.71999 0.0
O19 O 0.06722 0.73252 0.70616 0.0
O20 O 0.99922 0.76169 0.72339 0.0
C21 C 0.04399 0.79058 0.66988 0.0
O22 O 0.0622 0.78256 0.67264 0.0
C23 C 0.0245 0.72269 0.65996 0.0
O24 O 0.02741 0.74053 0.64845 0.0
O25 O 0.0614 0.76546 0.72299 0.0
C26 C 0.5979 0.8091 0.84754 0.0
O27 O 0.59385 0.79663 0.86494 0.0
O28 O 0.55051 0.79207 0.87798 0.0
Zn29 Zn 0.55311 0.8197 0.85897 0.0
O30 O 0.55792 0.84998 0.88364 0.0
C31 C 0.50229 0.80681 0.84515 0.0
O32 O 0.50398 0.79854 0.86584 0.0
O33 O 0.58313 0.82038 0.84084 0.0
C34 C 0.54126 0.85656 0.89146 0.0
O35 O 0.52127 0.8439 0.88409 0.0
C36 C 0.54744 0.79186 0.90016 0.0
O37 O 0.54564 0.81071 0.91298 0.0
O38 O 0.52048 0.81584 0.83735 0.0
C39 C 0.47892 0.26102 0.21131 0.0
O40 O 0.478 0.26016 0.18761 0.0
O41 O 0.52032 0.22515 0.18139 0.0
Zn42 Zn 0.52582 0.25704 0.20342 0.0
O43 O 0.52593 0.28172 0.18102 0.0
C44 C 0.57309 0.25114 0.21954 0.0
O45 O 0.56494 0.23128 0.20643 0.0
O46 O 0.49764 0.25964 0.22333 0.0
C47 C 0.54312 0.29146 0.17254 0.0
O48 O 0.56209 0.28522 0.17764 0.0
C49 C 0.53124 0.22226 0.16355 0.0
O50 O 0.54526 0.23983 0.15847 0.0
O51 O 0.55959 0.26445 0.22291 0.0
C52 C 0.02613 0.79183 0.12621 0.0
O53 O 0.02074 0.78567 0.10265 0.0
O54 O 0.06937 0.76747 0.09513 0.0
Zn55 Zn 0.07134 0.80136 0.11273 0.0
O56 O 0.06608 0.82902 0.09251 0.0
C57 C 0.11857 0.80163 0.13127 0.0
O58 O 0.11777 0.79117 0.1092 0.0
O59 O 0.0467 0.79887 0.13486 0.0
C60 C 0.08029 0.84728 0.09082 0.0
O61 O 0.10118 0.84896 0.10007 0.0
C62 C 0.05607 0.75437 0.07759 0.0
O63 O 0.04056 0.76248 0.06564 0.0
O64 O 0.10141 0.80881 0.1367 0.0
C65 C 0.5526 0.77114 0.42594 0.0
O66 O 0.55575 0.76191 0.44586 0.0
O67 O 0.51233 0.74287 0.45852 0.0
Zn68 Zn 0.50986 0.77404 0.44304 0.0
O69 O 0.51713 0.80662 0.46512 0.0
C70 C 0.46112 0.75957 0.4169 0.0
O71 O 0.45785 0.74282 0.42993 0.0
O72 O 0.53433 0.77744 0.42086 0.0
C73 C 0.50323 0.8198 0.4647 0.0
O74 O 0.48304 0.81166 0.45293 0.0
C75 C 0.49945 0.72938 0.46971 0.0
O76 O 0.48078 0.73481 0.47473 0.0
O77 O 0.48041 0.77276 0.41967 0.0
C78 C 0.5276 0.30334 0.63019 0.0
O79 O 0.52456 0.31151 0.60956 0.0
O80 O 0.56497 0.27058 0.5916 0.0
Zn81 Zn 0.57118 0.30239 0.61501 0.0
O82 O 0.56871 0.33413 0.60094 0.0
C83 C 0.62057 0.31376 0.63844 0.0
O84 O 0.62486 0.32622 0.62108 0.0
O85 O 0.54618 0.29805 0.63642 0.0
C86 C 0.57202 0.34209 0.58094 0.0
O87 O 0.57923 0.32962 0.56416 0.0
C88 C 0.5779 0.25665 0.59464 0.0
O89 O 0.59614 0.26355 0.61041 0.0
O90 O 0.60037 0.30392 0.63915 0.0
C91 C 0.04987 0.26632 0.92037 0.0
O92 O 0.04652 0.2469 0.92908 0.0
O93 O 1.01105 0.24198 0.95814 0.0
Zn94 Zn 1.0106 0.27391 0.94382 0.0
O95 O 0.01452 0.30591 0.96656 0.0
C96 C 0.96254 0.27025 0.92488 0.0
O97 O 0.96054 0.27232 0.94813 0.0
O98 O 0.0368 0.2797 0.92416 0.0
C99 C 1.00642 0.3218 0.95787 0.0
O100 O 0.99475 0.31714 0.93608 0.0
C101 C 0.02153 0.23728 0.97753 0.0
O102 O 0.0335 0.2542 0.99333 0.0
O103 O 0.98177 0.26986 0.91876 0.0
C104 C 0.36604 0.06019 0.32459 0.0
O105 O 0.38345 0.0615 0.34096 0.0
O106 O 0.40067 0.03279 0.27529 0.0
Zn107 Zn 0.38153 0.02429 0.30068 0.0
O108 O 0.40065 0.02448 0.33118 0.0
C109 C 0.37385 0.97897 0.2818 0.0
O110 O 0.39521 0.98501 0.28011 0.0
O111 O 0.36209 0.0453 0.30596 0.0
C112 C 0.39894 0.00983 0.34563 0.0
O113 O 0.38236 0.99194 0.34125 0.0
C114 C 0.42173 0.0374 0.28095 0.0
O115 O 0.4305 0.03905 0.30376 0.0
O116 O 0.36372 0.99363 0.29019 0.0
C117 C 0.31531 0.16819 0.52461 0.0
O118 O 0.31997 0.18969 0.53399 0.0
O119 O 0.27519 0.19437 0.5502 0.0
Zn120 Zn 0.27175 0.17692 0.51611 0.0
O121 O 0.27616 0.19656 0.48893 0.0
C122 C 0.22512 0.16095 0.51748 0.0
O123 O 0.22718 0.18223 0.52673 0.0
O124 O 0.2953 0.15869 0.51585 0.0
C125 C 0.2606 0.19853 0.47284 0.0
O126 O 0.23991 0.18873 0.47435 0.0
C127 C 0.27357 0.21475 0.55607 0.0
O128 O 0.26989 0.22716 0.53886 0.0
O129 O 0.242 0.15461 0.51044 0.0
C130 C 0.17123 0.02116 0.80353 0.0
O131 O 0.16868 0.02782 0.82602 0.0
O132 O 0.12906 0.05782 0.76183 0.0
Zn133 Zn 0.14849 0.05646 0.79299 0.0
O134 O 0.13106 0.0506 0.82119 0.0
C135 C 0.16592 0.10366 0.79593 0.0
O136 O 0.14472 0.10291 0.7889 0.0
O137 O 0.16393 0.03107 0.7865 0.0
C138 C 0.13082 0.06587 0.83861 0.0
O139 O 0.14146 0.08679 0.83811 0.0
C140 C 0.11408 0.04126 0.7506 0.0
O141 O 0.10972 0.02239 0.76028 0.0
O142 O 0.17191 0.08548 0.80005 0.0
C143 C 0.26583 0.96501 0.98667 0.0
O144 O 0.26373 0.94458 0.97488 0.0
O145 O 0.2982 0.93751 0.03287 0.0
Zn146 Zn 0.30574 0.95536 0.00616 0.0
O147 O 0.30598 0.93505 0.976 0.0
C148 C 0.3494 0.96668 0.03064 0.0
O149 O 0.34234 0.94765 0.03918 0.0
O150 O 0.2837 0.97406 0.00084 0.0
C151 C 0.31565 0.91857 0.97668 0.0
O152 O 0.32561 0.91506 0.99751 0.0
C153 C 0.28691 0.91736 0.03083 0.0
O154 O 0.27683 0.907 0.00936 0.0
O155 O 0.33613 0.97411 0.01614 0.0
C156 C 0.26407 0.40679 0.03778 0.0
O157 O 0.25839 0.38489 0.03017 0.0
O158 O 0.30841 0.38368 0.07651 0.0
Zn159 Zn 0.30755 0.39714 0.04462 0.0
O160 O 0.29987 0.37464 0.01339 0.0
C161 C 0.35193 0.42605 0.06046 0.0
O162 O 0.34873 0.42066 0.08211 0.0
O163 O 0.28448 0.41599 0.04487 0.0
C164 C 0.31511 0.36694 0.00394 0.0
O165 O 0.33539 0.37171 0.01603 0.0
C166 C 0.30142 0.3629 0.07852 0.0
O167 O 0.29398 0.34828 0.05872 0.0
O168 O 0.33682 0.41802 0.04248 0.0
C169 C 0.82244 0.12521 0.07389 0.0
O170 O 0.82273 0.14691 0.07406 0.0
O171 O 0.77627 0.14573 0.08966 0.0
Zn172 Zn 0.77895 0.12499 0.06125 0.0
O173 O 0.785 0.14219 0.03351 0.0
C174 C 0.73512 0.11079 0.04215 0.0
O175 O 0.7393 0.1321 0.03841 0.0
O176 O 0.80393 0.11101 0.06951 0.0
C177 C 0.78005 0.13267 0.01165 0.0
O178 O 0.77209 0.11065 0.00711 0.0
C179 C 0.77373 0.16565 0.08772 0.0
O180 O 0.77298 0.17278 0.06637 0.0
O181 O 0.75053 0.10271 0.05245 0.0
C182 C 0.20045 0.50125 0.23589 0.0
O183 O 0.17874 0.49931 0.23438 0.0
O184 O 0.17868 0.54675 0.21864 0.0
Zn185 Zn 0.1981 0.54513 0.24802 0.0
O186 O 0.18025 0.53869 0.27485 0.0
C187 C 0.21135 0.59016 0.26709 0.0
O188 O 0.19055 0.58595 0.27136 0.0
O189 O 0.21322 0.52072 0.24108 0.0
C190 C 0.18935 0.5437 0.29682 0.0
O191 O 0.21098 0.55189 0.30173 0.0
C192 C 0.15956 0.55096 0.21967 0.0
O193 O 0.15245 0.55407 0.24079 0.0
O194 O 0.21919 0.57444 0.25684 0.0
C195 C 0.76777 0.91578 0.55263 0.0
O196 O 0.76605 0.90269 0.5698 0.0
O197 O 0.80257 0.88239 0.57487 0.0
Zn198 Zn 0.80623 0.89681 0.54383 0.0
O199 O 0.8009 0.87433 0.51265 0.0
C200 C 0.85239 0.92268 0.56272 0.0
O201 O 0.84989 0.91415 0.58306 0.0
O202 O 0.7835 0.91595 0.53981 0.0
C203 C 0.81709 0.87159 0.50124 0.0
O204 O 0.83752 0.88164 0.51113 0.0
C205 C 0.81387 0.86897 0.58331 0.0
O206 O 0.82932 0.86305 0.57125 0.0
O207 O 0.83642 0.91773 0.54524 0.0
C208 C 0.909 0.05574 0.25452 0.0
O209 O 0.90695 0.04679 0.23165 0.0
O210 O 0.94636 0.02268 0.2319 0.0
Zn211 Zn 0.93357 0.021 0.26367 0.0
O212 O 0.95582 0.0208 0.29358 0.0
C213 C 0.91518 0.97395 0.25924 0.0
O214 O 0.93647 0.97365 0.26019 0.0
O215 O 0.91972 0.04752 0.27079 0.0
C216 C 0.94675 0.01453 0.31178 0.0
O217 O 0.92486 0.00863 0.30942 0.0
C218 C 0.96692 0.02945 0.23031 0.0
O219 O 0.98128 0.03551 0.25035 0.0
O220 O 0.90937 0.99285 0.25979 0.0
C221 C 0.32383 0.614 0.58034 0.0
O222 O 0.32756 0.63401 0.59354 0.0
O223 O 0.28403 0.64632 0.59255 0.0
Zn224 Zn 0.28178 0.62346 0.56385 0.0
O225 O 0.28421 0.63976 0.53447 0.0
C226 C 0.23661 0.61122 0.56514 0.0
O227 O 0.24033 0.63323 0.57174 0.0
O228 O 0.30523 0.60631 0.56704 0.0
C229 C 0.26764 0.63798 0.51816 0.0
O230 O 0.24873 0.62417 0.5196 0.0
C231 C 0.29371 0.66673 0.59225 0.0
O232 O 0.30421 0.67219 0.57388 0.0
O233 O 0.25266 0.60211 0.5607 0.0
C234 C 0.41267 0.56181 0.75781 0.0
O235 O 0.42292 0.56287 0.73851 0.0
O236 O 0.44773 0.52815 0.73532 0.0
Zn237 Zn 0.43395 0.52399 0.76643 0.0
O238 O 0.45651 0.52942 0.79717 0.0
C239 C 0.40611 0.47817 0.74674 0.0
O240 O 0.41115 0.48229 0.72524 0.0
O241 O 0.41498 0.54677 0.77139 0.0
C242 C 0.4609 0.51282 0.80739 0.0
O243 O 0.45257 0.49208 0.79635 0.0
C244 C 0.45858 0.51481 0.72544 0.0
O245 O 0.46191 0.49728 0.73601 0.0
O246 O 0.4138 0.49307 0.76517 0.0
C247 C 0.7105 1.00418 0.73148 0.0
O248 O 0.69065 1.00091 0.71867 0.0
O249 O 0.67874 0.04231 0.72041 0.0
Zn250 Zn 0.70068 0.04557 0.74955 0.0
O251 O 0.68457 0.04222 0.77841 0.0
C252 C 0.7174 0.09048 0.74063 0.0
O253 O 0.70258 0.08463 0.72098 0.0
O254 O 0.71819 0.02247 0.7458 0.0
C255 C 0.68652 0.05947 0.79421 0.0
O256 O 0.69945 0.07876 0.79159 0.0
C257 C 0.66103 0.04965 0.72134 0.0
O258 O 0.65682 0.05884 0.74222 0.0
O259 O 0.72077 0.07578 0.75415 0.0
C260 C 0.81614 0.6682 0.02317 0.0
O261 O 0.82128 0.69033 0.02921 0.0
O262 O 0.77367 0.69374 0.04849 0.0
Zn263 Zn 0.77216 0.67597 0.0151 0.0
O264 O 0.77723 0.69457 0.9874 0.0
C265 C 0.72589 0.65905 0.0158 0.0
O266 O 0.72757 0.68017 0.02536 0.0
O267 O 0.79586 0.65822 0.01678 0.0
C268 C 0.7633 0.70434 0.97674 0.0
O269 O 0.74398 0.70378 0.98459 0.0
C270 C 0.77986 0.71493 0.05562 0.0
O271 O 0.78678 0.72862 0.04014 0.0
O272 O 0.74292 0.65315 0.00867 0.0
C273 C 0.87569 0.56657 0.82732 0.0
O274 O 0.89596 0.56774 0.83825 0.0
O275 O 0.89887 0.53166 0.7761 0.0
Zn276 Zn 0.88153 0.52548 0.80356 0.0
O277 O 0.9019 0.52256 0.83196 0.0
C278 C 0.85917 0.4834 0.77592 0.0
O279 O 0.87206 0.48966 0.75967 0.0
O280 O 0.86623 0.5496 0.81175 0.0
C281 C 0.89684 0.51384 0.85061 0.0
O282 O 0.87581 0.50644 0.85301 0.0
C283 C 0.91965 0.53225 0.77945 0.0
O284 O 0.92932 0.53056 0.80111 0.0
O285 O 0.85993 0.49668 0.79527 0.0
C286 C 0.77126 0.4744 0.48713 0.0
O287 O 0.76903 0.45878 0.46826 0.0
O288 O 0.79978 0.43518 0.53038 0.0
Zn289 Zn 0.80621 0.45483 0.50492 0.0
O290 O 0.80082 0.43455 0.47383 0.0
C291 C 0.84917 0.47322 0.53183 0.0
O292 O 0.84008 0.46644 0.55061 0.0
O293 O 0.7869 0.47625 0.50446 0.0
C294 C 0.81644 0.43019 0.46256 0.0
O295 O 0.83716 0.44076 0.47057 0.0
C296 C 0.80892 0.41828 0.52894 0.0
O297 O 0.82148 0.41572 0.51185 0.0
O298 O 0.83731 0.4709 0.51131 0.0
C299 C 0.65869 0.51218 0.29118 0.0
O300 O 0.6368 0.50615 0.28857 0.0
O301 O 0.63011 0.54979 0.25925 0.0
Zn302 Zn 0.6473 0.55483 0.29355 0.0
O303 O 0.62782 0.54903 0.32031 0.0
C304 C 0.67076 0.59658 0.28131 0.0
O305 O 0.6628 0.58579 0.25941 0.0
O306 O 0.66784 0.53313 0.29399 0.0
C307 C 0.62815 0.56445 0.33784 0.0
O308 O 0.6403 0.58485 0.33784 0.0
C309 C 0.60924 0.54621 0.2522 0.0
O310 O 0.59538 0.54435 0.26839 0.0
O311 O 0.66637 0.58672 0.29964 0.0
Eu312 Eu 0.06978 0.05013 0.04532 0.0
C313 C 1.00178 0.97095 0.98486 0.0
N314 N 1.01145 0.99184 0.97985 0.0
C315 C 0.01664 0.97534 0.94042 0.0
C316 C 0.99999 0.95133 0.96804 0.0
C317 C 0.01779 0.99431 0.95748 0.0
C318 C 1.00801 0.95372 0.94584 0.0
C319 C 0.98132 0.94801 0.01141 0.0
C320 C 0.99231 0.96925 0.0062 0.0
C321 C 0.98026 0.92841 0.99508 0.0
C322 C 0.98953 0.93007 0.97344 0.0
Eu323 Eu 1.01095 0.02263 0.00965 0.0
N324 N 0.99347 0.98846 0.02171 0.0
C325 C 0.97129 0.94718 0.03264 0.0
C326 C 0.98277 0.98795 0.04175 0.0
C327 C 0.97184 0.96727 0.04776 0.0
H328 H 0.02286 0.01086 0.95215 0.0
H329 H 0.9637 0.96685 0.0639 0.0
H330 H 0.05668 0.06776 0.09968 0.0
H331 H 0.11578 0.09821 0.98265 0.0
H332 H 0.9827 1.00352 0.05306 0.0
H333 H 0.96268 0.93118 0.03726 0.0
H334 H 0.09856 0.06382 0.99849 0.0
H335 H 0.02191 0.97745 0.92284 0.0
H336 H 0.97191 0.91193 0.99878 0.0
H337 H 0.98808 0.91484 0.96075 0.0
H338 H 0.06093 0.10358 0.12684 0.0
H339 H 1.00682 0.93908 0.9324 0.0
H340 H 0.11846 0.13588 0.00608 0.0
N341 N 0.07129 0.08352 0.07154 0.0
C342 C 0.08257 0.10297 0.06485 0.0
C343 C 0.0668 0.1037 0.10932 0.0
C344 C 0.08553 0.12386 0.07994 0.0
C345 C 0.06406 0.08344 0.09369 0.0
C346 C 0.07741 0.12404 0.10234 0.0
N347 N 0.0883 0.08158 0.02863 0.0
C348 C 0.09801 0.08002 0.00796 0.0
C349 C 0.10165 0.12221 0.03485 0.0
C350 C 0.09072 0.10206 0.04255 0.0
C351 C 0.11008 0.12078 0.01267 0.0
C352 C 0.10848 0.09956 0.99932 0.0
H353 H 0.07946 0.13973 0.11448 0.0
H354 H 0.09857 0.1601 0.08345 0.0
H355 H 0.11248 0.1587 0.04395 0.0
O356 O 0.10588 0.05618 0.0539 0.0
O357 O 0.04532 0.07401 0.03809 0.0
O358 O 0.02541 0.05822 0.00117 0.0
O359 O 0.08502 0.04216 0.07948 0.0
O360 O 0.07047 0.03296 0.00717 0.0
O361 O 0.03732 0.03771 0.98771 0.0
O362 O 0.98067 0.03468 0.01448 0.0
O363 O 0.02753 1.00015 0.03329 0.0
O364 O 0.06444 0.01219 0.03056 0.0
O365 O 0.98353 0.01551 0.97967 0.0
O366 O 1.01159 0.04039 0.04797 0.0
O367 O 0.04409 0.03415 0.06734 0.0
C368 C 0.03426 0.07632 0.01714 0.0
C369 C 0.11801 0.02917 0.07647 0.0
C370 C 0.14302 1.00655 0.06112 0.0
C371 C 0.14211 0.99518 0.08167 0.0
C372 C 0.11738 0.01781 0.097 0.0
C373 C 0.12928 1.00078 0.09946 0.0
C374 C 0.13074 0.02333 0.05853 0.0
C375 C 0.05768 0.03466 0.9873 0.0
C376 C 0.10511 0.04677 0.07373 0.0
C377 C 0.09628 0.14388 0.07217 0.0
C378 C 0.10417 0.14308 0.04964 0.0
C379 C 0.04774 0.99617 0.03423 0.0
C380 C 0.94907 0.02791 0.98258 0.0
C381 C 0.91649 0.04318 0.988 0.0
C382 C 0.90612 0.03221 0.96489 0.0
C383 C 0.93886 0.01712 0.95932 0.0
C384 C 0.93784 0.04087 0.99672 0.0
C385 C 0.91739 0.01928 0.95055 0.0
C386 C 0.0237 0.0371 0.06765 0.0
C387 C 0.97141 0.02601 0.99237 0.0
H388 H 0.1517 0.98234 0.08428 0.0
H389 H 0.10763 0.02205 0.11106 0.0
H390 H 0.12875 0.99206 0.11532 0.0
H391 H 0.13109 0.03177 0.04243 0.0
H392 H 0.88949 0.03381 0.95793 0.0
H393 H 0.94739 1.00701 0.94802 0.0
H394 H 0.94559 0.04902 0.01481 0.0
H395 H 0.90948 0.01093 0.93266 0.0
Eu396 Eu 0.27253 0.78619 0.30839 0.0
C397 C 0.32529 0.74917 0.21543 0.0
N398 N 0.33322 0.76553 0.23475 0.0
C399 C 0.36804 0.75379 0.23943 0.0
C400 C 0.33849 0.73412 0.20752 0.0
C401 C 0.3543 0.76823 0.24664 0.0
C402 C 0.36007 0.73659 0.21983 0.0
C403 C 0.29507 0.73029 0.18369 0.0
C404 C 0.30384 0.74733 0.2037 0.0
C405 C 0.30811 0.7152 0.17581 0.0
C406 C 0.32977 0.71712 0.18769 0.0
Eu407 Eu 0.30925 0.78908 0.24629 0.0
N408 N 0.29151 0.76203 0.21196 0.0
C409 C 0.27343 0.72887 0.17217 0.0
C410 C 0.2705 0.76088 0.20041 0.0
C411 C 0.26115 0.7443 0.18051 0.0
H412 H 0.36066 0.78171 0.26151 0.0
H413 H 0.24446 0.74349 0.17156 0.0
H414 H 0.22085 0.79385 0.29262 0.0
H415 H 0.33499 0.82778 0.38659 0.0
H416 H 0.26068 0.77263 0.20607 0.0
H417 H 0.2661 0.71603 0.15675 0.0
H418 H 0.32 0.80107 0.34956 0.0
H419 H 0.38477 0.75599 0.24895 0.0
H420 H 0.30161 0.702 0.16052 0.0
H421 H 0.33964 0.70537 0.18139 0.0
H422 H 0.19631 0.81857 0.30632 0.0
H423 H 0.37073 0.72538 0.2143 0.0
H424 H 0.31244 0.85365 0.403 0.0
N425 N 0.24802 0.80923 0.32003 0.0
C426 C 0.25533 0.82441 0.34058 0.0
C427 C 0.21295 0.82055 0.31598 0.0
C428 C 0.24167 0.83856 0.34941 0.0
C429 C 0.22703 0.80682 0.30798 0.0
C430 C 0.22033 0.83658 0.33671 0.0
N431 N 0.28937 0.81192 0.3439 0.0
C432 C 0.31001 0.81236 0.35596 0.0
C433 C 0.28441 0.84114 0.37445 0.0
C434 C 0.27645 0.82561 0.35303 0.0
C435 C 0.30575 0.84197 0.38649 0.0
C436 C 0.31855 0.82745 0.37724 0.0
H437 H 0.20933 0.84712 0.34294 0.0
H438 H 0.2393 0.86504 0.37772 0.0
H439 H 0.27672 0.86734 0.3996 0.0
O440 O 0.27477 0.75921 0.33061 0.0
O441 O 0.28837 0.82292 0.30733 0.0
O442 O 0.29809 0.80235 0.27892 0.0
O443 O 0.24251 0.766 0.31867 0.0
O444 O 0.30746 0.77711 0.31183 0.0
O445 O 0.3304 0.79249 0.28389 0.0
O446 O 0.30895 0.81511 0.22272 0.0
O447 O 0.29932 0.75382 0.25549 0.0
O448 O 0.27186 0.7657 0.27207 0.0
O449 O 0.34024 0.81247 0.24277 0.0
O450 O 0.27476 0.79871 0.24104 0.0
O451 O 0.25209 0.78761 0.27112 0.0
C452 C 0.29928 0.8226 0.28922 0.0
C453 C 0.24933 0.75741 0.35865 0.0
C454 C 0.25471 0.7451 0.3984 0.0
C455 C 0.24485 0.76236 0.40818 0.0
C456 C 0.23919 0.77438 0.3686 0.0
C457 C 0.2371 0.77688 0.39328 0.0
C458 C 0.25696 0.74279 0.37362 0.0
C459 C 0.32723 0.78313 0.30409 0.0
C460 C 0.25375 0.75582 0.33334 0.0
C461 C 0.24958 0.85404 0.3707 0.0
C462 C 0.27088 0.85532 0.38318 0.0
C463 C 0.2832 0.75003 0.26863 0.0
C464 C 0.34044 0.82225 0.20281 0.0
C465 C 0.33884 0.83325 0.16214 0.0
C466 C 0.35659 0.8227 0.15794 0.0
C467 C 0.3581 0.81169 0.19836 0.0
C468 C 0.33093 0.83289 0.18465 0.0
C469 C 0.36612 0.81198 0.17599 0.0
C470 C 0.25532 0.79533 0.24993 0.0
C471 C 0.33063 0.82144 0.22551 0.0
H472 H 0.24268 0.76429 0.42721 0.0
H473 H 0.233 0.78582 0.35744 0.0
H474 H 0.22937 0.79004 0.40085 0.0
H475 H 0.26498 0.72983 0.36602 0.0
H476 H 0.36329 0.82294 0.14087 0.0
H477 H 0.36559 0.80308 0.21197 0.0
H478 H 0.31689 0.84045 0.18797 0.0
H479 H 0.37974 0.80385 0.17262 0.0
Eu480 Eu 0.51226 0.03625 0.54104 0.0
C481 C 0.59067 0.08464 0.48683 0.0
N482 N 0.5734 0.06619 0.4805 0.0
C483 C 0.5659 0.07715 0.44099 0.0
C484 C 0.59577 0.10034 0.47043 0.0
C485 C 0.5615 0.06192 0.4577 0.0
C486 C 0.58299 0.0965 0.44742 0.0
C487 C 0.62131 0.10691 0.5167 0.0
C488 C 0.60343 0.08792 0.50981 0.0
C489 C 0.62628 0.12252 0.50035 0.0
C490 C 0.61355 0.11927 0.47733 0.0
Eu491 Eu 0.56957 0.04125 0.50999 0.0
N492 N 0.59784 0.07307 0.52577 0.0
C493 C 0.63341 0.10989 0.54004 0.0
C494 C 0.60998 0.07541 0.54818 0.0
C495 C 0.62777 0.09402 0.5558 0.0
H496 H 0.54901 0.04655 0.45182 0.0
H497 H 0.63729 0.09595 0.5737 0.0
H498 H 0.5319 0.03265 0.59981 0.0
H499 H 0.44576 0.97954 0.47728 0.0
H500 H 0.60634 0.06264 0.55987 0.0
H501 H 0.6472 0.12431 0.54602 0.0
H502 H 0.4749 0.01425 0.49157 0.0
H503 H 0.55633 0.07374 0.423 0.0
H504 H 0.63989 0.13726 0.50537 0.0
H505 H 0.61764 0.13149 0.46494 0.0
H506 H 0.52565 1.00537 0.62881 0.0
H507 H 0.58643 0.10818 0.43432 0.0
H508 H 0.43777 0.95041 0.50456 0.0
N509 N 0.50881 0.01174 0.57087 0.0
C510 C 0.49237 0.9926 0.56435 0.0
C511 C 0.51641 1.00144 0.61065 0.0
C512 C 0.48789 0.97678 0.58077 0.0
C513 C 0.52025 0.01671 0.59389 0.0
C514 C 0.50031 0.98131 0.60402 0.0
N515 N 0.48482 1.00372 0.52516 0.0
C516 C 0.47237 1.00108 0.5029 0.0
C517 C 0.46298 0.96885 0.53403 0.0
C518 C 0.47992 0.98864 0.5411 0.0
C519 C 0.45089 0.9654 0.51064 0.0
C520 C 0.45547 0.98171 0.4951 0.0
H521 H 0.49734 0.96957 0.61712 0.0
H522 H 0.46753 0.94469 0.58601 0.0
H523 H 0.44582 0.93775 0.54521 0.0
O524 O 0.48121 0.04829 0.53138 0.0
O525 O 0.522 1.00199 0.5291 0.0
O526 O 0.54801 1.0054 0.50194 0.0
O527 O 0.49489 0.04794 0.56944 0.0
O528 O 0.51744 0.04841 0.5052 0.0
O529 O 0.53787 0.02777 0.48465 0.0
O530 O 0.59906 0.02684 0.51982 0.0
O531 O 0.56195 0.07597 0.5244 0.0
O532 O 0.53165 0.07276 0.54614 0.0
O533 O 0.58783 0.03044 0.48195 0.0
O534 O 0.56498 0.02966 0.54625 0.0
O535 O 0.54398 0.05023 0.56618 0.0
C536 C 0.53355 0.99302 0.51344 0.0
C537 C 0.4605 0.06047 0.56376 0.0
C538 C 0.42878 0.07836 0.55894 0.0
C539 C 0.42489 0.07493 0.58264 0.0
C540 C 0.45635 0.05721 0.58747 0.0
C541 C 0.43867 0.06447 0.59683 0.0
C542 C 0.44673 0.07126 0.54948 0.0
C543 C 0.51959 0.03506 0.48614 0.0
C544 C 0.47907 0.05222 0.55438 0.0
C545 C 0.47111 0.95703 0.57362 0.0
C546 C 0.45871 0.95309 0.55038 0.0
C547 C 0.54846 0.08497 0.53756 0.0
C548 C 0.62041 0.0147 0.4881 0.0
C549 C 0.65299 0.99831 0.49475 0.0
C550 C 0.65524 0.99795 0.47 0.0
C551 C 0.62291 0.01414 0.46334 0.0
C552 C 0.63543 1.00652 0.50381 0.0
C553 C 0.64019 1.00574 0.45439 0.0
C554 C 0.56236 0.04294 0.56522 0.0
C555 C 0.60227 0.02412 0.49705 0.0
H556 H 0.41119 0.08049 0.59022 0.0
H557 H 0.46668 0.04887 0.59879 0.0
H558 H 0.43558 0.06189 0.6151 0.0
H559 H 0.44977 0.07391 0.53118 0.0
H560 H 0.66861 0.99147 0.46275 0.0
H561 H 0.61156 0.0203 0.45082 0.0
H562 H 0.63373 1.00683 0.52294 0.0
H563 H 0.64198 1.00536 0.43532 0.0
Eu564 Eu 0.31987 0.27877 0.78233 0.0
C565 C 0.2367 0.31376 0.73137 0.0
N566 N 0.25159 0.32442 0.75106 0.0
C567 C 0.25277 0.3602 0.73654 0.0
C568 C 0.22949 0.32602 0.71317 0.0
C569 C 0.25946 0.34731 0.75408 0.0
C570 C 0.2378 0.3495 0.71592 0.0
C571 C 0.21358 0.27884 0.70889 0.0
C572 C 0.22887 0.29042 0.72924 0.0
C573 C 0.20642 0.29099 0.69068 0.0
C574 C 0.21436 0.31451 0.69281 0.0
Eu575 Eu 0.26259 0.30132 0.77917 0.0
N576 N 0.23671 0.27899 0.74673 0.0
C577 C 0.20603 0.25534 0.70737 0.0
C578 C 0.22869 0.25627 0.74583 0.0
C579 C 0.21347 0.24406 0.72606 0.0
H580 H 0.27067 0.35567 0.7702 0.0
H581 H 0.20737 0.22597 0.72532 0.0
H582 H 0.30892 0.22561 0.79586 0.0
H583 H 0.37342 0.35609 0.83442 0.0
H584 H 0.23366 0.24751 0.76041 0.0
H585 H 0.19429 0.24582 0.69203 0.0
H586 H 0.34877 0.33304 0.79894 0.0
H587 H 0.25913 0.37836 0.73894 0.0
H588 H 0.19476 0.28235 0.67486 0.0
H589 H 0.20871 0.32364 0.6786 0.0
H590 H 0.31839 0.20496 0.82981 0.0
H591 H 0.2327 0.35952 0.70232 0.0
H592 H 0.38438 0.3381 0.87015 0.0
N593 N 0.32845 0.2574 0.81333 0.0
C594 C 0.34296 0.26889 0.83298 0.0
C595 C 0.32532 0.22295 0.83099 0.0
C596 C 0.34885 0.25776 0.85277 0.0
C597 C 0.3198 0.23473 0.8119 0.0
C598 C 0.33984 0.23452 0.85156 0.0
N599 N 0.34444 0.30261 0.81481 0.0
C600 C 0.35276 0.32511 0.81458 0.0
C601 C 0.36556 0.30459 0.85435 0.0
C602 C 0.35121 0.29211 0.83375 0.0
C603 C 0.37335 0.32791 0.85465 0.0
C604 C 0.36709 0.33816 0.83457 0.0
H605 H 0.34396 0.22537 0.86641 0.0
H606 H 0.36784 0.26192 0.88867 0.0
H607 H 0.38245 0.30286 0.89006 0.0
O608 O 0.34893 0.28744 0.76232 0.0
O609 O 0.30648 0.28728 0.81805 0.0
O610 O 0.29068 0.31671 0.80955 0.0
O611 O 0.33779 0.25321 0.77114 0.0
O612 O 0.31845 0.31035 0.76431 0.0
O613 O 0.29439 0.32835 0.78369 0.0
O614 O 0.23531 0.29021 0.80008 0.0
O615 O 0.27397 0.2917 0.74241 0.0
O616 O 0.29298 0.264 0.75046 0.0
O617 O 0.24581 0.32569 0.79636 0.0
O618 O 0.26472 0.2693 0.79597 0.0
O619 O 0.28815 0.25153 0.77546 0.0
C620 C 0.29852 0.30496 0.82536 0.0
C621 C 0.36979 0.25834 0.74958 0.0
C622 C 0.40224 0.26328 0.72777 0.0
C623 C 0.4032 0.24059 0.72913 0.0
C624 C 0.37122 0.23563 0.75053 0.0
C625 C 0.38776 0.22688 0.74038 0.0
C626 C 0.38541 0.27226 0.73796 0.0
C627 C 0.31093 0.32861 0.77073 0.0
C628 C 0.35202 0.26675 0.76114 0.0
C629 C 0.3632 0.27018 0.87326 0.0
C630 C 0.37151 0.29351 0.87405 0.0
C631 C 0.2836 0.27518 0.735 0.0
C632 C 0.20827 0.31304 0.80237 0.0
C633 C 0.17329 0.31046 0.81943 0.0
C634 C 0.16559 0.32251 0.80143 0.0
C635 C 0.2 0.32462 0.78419 0.0
C636 C 0.19465 0.3056 0.81978 0.0
C637 C 0.1788 0.32932 0.7838 0.0
C638 C 0.27141 0.25093 0.78811 0.0
C639 C 0.23163 0.31055 0.8047 0.0
H640 H 0.41598 0.23344 0.72138 0.0
H641 H 0.35954 0.22448 0.75925 0.0
H642 H 0.38866 0.20938 0.7413 0.0
H643 H 0.3846 0.28979 0.73697 0.0
H644 H 0.14924 0.32649 0.80092 0.0
H645 H 0.2101 0.33049 0.7706 0.0
H646 H 0.20091 0.29673 0.83395 0.0
H647 H 0.17267 0.33853 0.76993 0.0
Eu648 Eu 0.04812 1.00663 0.52523 0.0
C649 C 0.01812 0.09178 0.58166 0.0
N650 N 1.00718 0.07594 0.56276 0.0
C651 C 0.97304 0.0735 0.57982 0.0
C652 C 1.00685 0.09887 0.60068 0.0
C653 C 0.98487 0.06714 0.5613 0.0
C654 C 0.9841 0.08935 0.59968 0.0
C655 C 0.05236 0.1178 0.60113 0.0
C656 C 0.04067 0.10104 0.58194 0.0
C657 C 0.0412 0.12479 0.62015 0.0
C658 C 0.01853 0.11532 0.61996 0.0
Eu659 Eu 0.02852 0.06678 0.53222 0.0
N660 N 0.05126 0.09346 0.56365 0.0
C661 C 0.075 0.12687 0.60074 0.0
C662 C 0.07307 0.10284 0.56274 0.0
C663 C 0.08535 0.11944 0.58138 0.0
H664 H 0.97599 0.05573 0.54554 0.0
H665 H 0.10274 0.12667 0.58066 0.0
H666 H 0.10098 0.01583 0.51334 0.0
H667 H 0.97076 0.95952 0.46902 0.0
H668 H 0.08092 0.09804 0.54744 0.0
H669 H 0.08457 0.13973 0.61516 0.0
H670 H 0.99383 0.98144 0.50616 0.0
H671 H 0.95535 0.06641 0.5786 0.0
H672 H 0.04995 0.13752 0.63511 0.0
H673 H 1.01015 0.12093 0.63475 0.0
H674 H 0.12132 1.00692 0.47923 0.0
H675 H 0.97486 0.09435 0.61394 0.0
H676 H 0.98854 0.94937 0.4331 0.0
N677 N 0.06923 0.99887 0.49421 0.0
C678 C 0.05757 0.98587 0.47356 0.0
C679 C 0.10339 1.00103 0.47735 0.0
C680 C 0.06853 0.98032 0.45368 0.0
C681 C 0.09182 1.00626 0.49653 0.0
C682 C 0.0917 0.98808 0.4558 0.0
N683 N 0.02412 0.98501 0.49109 0.0
C684 C 1.00169 0.97772 0.4905 0.0
C685 C 0.02193 0.96583 0.45045 0.0
C686 C 0.03444 0.97865 0.47198 0.0
C687 C 0.99874 0.95917 0.44935 0.0
C688 C 0.98862 0.96498 0.46954 0.0
H689 H 0.10072 0.98414 0.44094 0.0
H690 H 0.06421 0.96309 0.41682 0.0
H691 H 0.02348 0.95048 0.41397 0.0
O692 O 0.03611 0.97579 0.54121 0.0
O693 O 0.04017 0.02317 0.49117 0.0
O694 O 0.0119 0.03981 0.50099 0.0
O695 O 0.06997 0.98353 0.53343 0.0
O696 O 0.01823 0.00936 0.54466 0.0
O697 O 1.00124 0.03482 0.52635 0.0
O698 O 0.03736 0.09386 0.5087 0.0
O699 O 0.03985 0.05475 0.56793 0.0
O700 O 0.06323 0.02991 0.56016 0.0
O701 O 1.00514 0.08709 0.52218 0.0
O702 O 0.06004 0.06392 0.5158 0.0
O703 O 0.07641 0.03771 0.53399 0.0
C704 C 0.02271 0.03152 0.48464 0.0
C705 C 0.06321 0.96298 0.56651 0.0
C706 C 0.06148 0.93493 0.59498 0.0
C707 C 0.07776 0.95054 0.61154 0.0
C708 C 0.0799 0.97794 0.58318 0.0
C709 C 0.08695 0.9718 0.6056 0.0
C710 C 0.05423 0.94125 0.57234 0.0
C711 C 1.00052 0.01745 0.53856 0.0
C712 C 0.05535 0.96994 0.54306 0.0
C713 C 0.05606 0.96746 0.43229 0.0
C714 C 0.03285 0.96027 0.43067 0.0
C715 C 0.05421 0.04261 0.57506 0.0
C716 C 1.00929 0.11612 0.49615 0.0
C717 C 0.01372 0.14841 0.47317 0.0
C718 C 0.99055 0.14675 0.47084 0.0
C719 C 0.98614 0.11497 0.49334 0.0
C720 C 0.02323 0.13311 0.48608 0.0
C721 C 0.97692 0.1302 0.48089 0.0
C722 C 0.07773 0.05638 0.52376 0.0
C723 C 0.01792 0.09908 0.50931 0.0
H724 H 0.08372 0.9461 0.62897 0.0
H725 H 0.08726 0.99459 0.57905 0.0
H726 H 0.09962 0.98358 0.61845 0.0
H727 H 0.04158 0.92942 0.55945 0.0
H728 H 0.98296 0.15846 0.46126 0.0
H729 H 0.97496 0.10213 0.5007 0.0
H730 H 0.04109 0.13426 0.488 0.0
H731 H 0.95909 0.12912 0.47895 0.0
Eu732 Eu 0.29367 0.81802 0.77169 0.0
C733 C 0.24438 0.73377 0.81459 0.0
N734 N 0.2621 0.75127 0.82314 0.0
C735 C 0.2493 0.7551 0.86198 0.0
C736 C 0.22797 0.72682 0.82941 0.0
C737 C 0.26515 0.76145 0.84668 0.0
C738 C 0.23056 0.73783 0.85327 0.0
C739 C 0.22372 0.70537 0.78129 0.0
C740 C 0.24234 0.72302 0.7907 0.0
C741 C 0.2074 0.69849 0.79609 0.0
C742 C 0.20954 0.70915 0.82004 0.0
Eu743 Eu 0.28852 0.75854 0.7963 0.0
N744 N 0.25814 0.73022 0.77649 0.0
C745 C 0.22195 0.69523 0.75719 0.0
C746 C 0.25687 0.71998 0.75326 0.0
C747 C 0.23863 0.70252 0.74315 0.0
H748 H 0.28002 0.77403 0.85411 0.0
H749 H 0.23758 0.69449 0.72465 0.0
H750 H 0.29387 0.80439 0.71065 0.0
H751 H 0.35311 0.88235 0.83535 0.0
H752 H 0.27014 0.72476 0.7427 0.0
H753 H 0.20787 0.68165 0.7493 0.0
H754 H 0.31717 0.85508 0.82061 0.0
H755 H 0.25172 0.76333 0.88058 0.0
H756 H 0.193 0.68495 0.78914 0.0
H757 H 0.19678 0.70362 0.83119 0.0
H758 H 0.32124 0.80724 0.68197 0.0
H759 H 0.21833 0.73293 0.86522 0.0
H760 H 0.38326 0.88629 0.80947 0.0
N761 N 0.31761 0.82083 0.74142 0.0
C762 C 0.33834 0.83424 0.74886 0.0
C763 C 0.3264 0.81454 0.70083 0.0
C764 C 0.35425 0.83735 0.73264 0.0
C765 C 0.31104 0.8124 0.71739 0.0
C766 C 0.34823 0.82669 0.70859 0.0
N767 N 0.32757 0.8433 0.78754 0.0
C768 C 0.33044 0.85664 0.80949 0.0
C769 C 0.36394 0.86149 0.7799 0.0
C770 C 0.34324 0.84622 0.77229 0.0
C771 C 0.36759 0.87433 0.80301 0.0
C772 C 0.35064 0.87213 0.81772 0.0
H773 H 0.36 0.82863 0.69561 0.0
H774 H 0.38777 0.85411 0.72841 0.0
H775 H 0.39621 0.87524 0.76972 0.0
O776 O 0.27793 0.84523 0.78518 0.0
O777 O 0.32478 0.81094 0.79442 0.0
O778 O 0.32184 0.77309 0.78364 0.0
O779 O 0.28863 0.84428 0.74965 0.0
O780 O 0.27999 0.81149 0.80639 0.0
O781 O 0.30124 0.7896 0.82392 0.0
O782 O 0.29643 0.72486 0.79278 0.0
O783 O 0.25472 0.76963 0.7872 0.0
O784 O 0.25876 0.79538 0.75942 0.0
O785 O 0.30662 0.74794 0.82726 0.0
O786 O 0.29931 0.76131 0.75952 0.0
O787 O 0.28079 0.78692 0.74377 0.0
C788 C 0.33431 0.79346 0.79123 0.0
C789 C 0.2572 0.85936 0.75485 0.0
C790 C 0.23137 0.88444 0.7552 0.0
C791 C 0.21752 0.87027 0.73548 0.0
C792 C 0.24348 0.84539 0.73482 0.0
C793 C 0.22358 0.85075 0.72535 0.0
C794 C 0.25112 0.87892 0.76498 0.0
C795 C 0.29213 0.80724 0.82525 0.0
C796 C 0.27811 0.85411 0.76504 0.0
C797 C 0.3753 0.8517 0.74059 0.0
C798 C 0.3801 0.86378 0.7641 0.0
C799 C 0.24603 0.78095 0.77087 0.0
C800 C 0.31618 0.71111 0.82619 0.0
C801 C 0.33254 0.67794 0.82225 0.0
C802 C 0.33375 0.67777 0.84748 0.0
C803 C 0.31771 0.71088 0.85139 0.0
C804 C 0.32377 0.6947 0.81162 0.0
C805 C 0.32645 0.69423 0.86195 0.0
C806 C 0.2895 0.76901 0.74123 0.0
C807 C 0.30621 0.72818 0.8152 0.0
H808 H 0.2022 0.87447 0.72782 0.0
H809 H 0.24816 0.83038 0.72652 0.0
H810 H 0.21296 0.83987 0.71003 0.0
H811 H 0.26182 0.88995 0.78023 0.0
H812 H 0.34061 0.66504 0.85601 0.0
H813 H 0.31188 0.72337 0.86289 0.0
H814 H 0.32271 0.69482 0.79213 0.0
H815 H 0.32752 0.69405 0.88139 0.0
Eu816 Eu 0.54305 0.05735 0.00238 0.0
C817 C 0.57767 1.00255 0.09341 0.0
N818 N 0.56264 0.99504 0.07303 0.0
C819 C 0.57854 0.96264 0.06478 0.0
C820 C 0.59421 0.99054 0.10001 0.0
C821 C 0.56255 0.97522 0.05893 0.0
C822 C 0.59457 0.97042 0.08532 0.0
C823 C 0.59165 0.03045 0.12912 0.0
C824 C 0.57644 0.02232 0.10762 0.0
C825 C 0.60847 0.01883 0.13554 0.0
C826 C 0.60975 0.99892 0.12102 0.0
Eu827 Eu 0.53718 0.01776 0.06308 0.0
N828 N 0.56 0.0332 0.10083 0.0
C829 C 0.58923 0.04976 0.14377 0.0
C830 C 0.55672 0.05115 0.11595 0.0
C831 C 0.57148 0.05993 0.13734 0.0
H832 H 0.55014 0.96907 0.04315 0.0
H833 H 0.569 0.07441 0.149 0.0
H834 H 0.53367 0.10889 0.02078 0.0
H835 H 0.50651 0.99778 0.91978 0.0
H836 H 0.54258 0.05867 0.11205 0.0
H837 H 0.60057 0.05654 0.16041 0.0
H838 H 0.53158 0.01167 0.95794 0.0
H839 H 0.57851 0.94698 0.05344 0.0
H840 H 0.62039 0.02492 0.15188 0.0
H841 H 0.62267 0.99 0.12632 0.0
H842 H 0.5092 0.13379 0.00745 0.0
H843 H 0.60699 0.96068 0.08978 0.0
H844 H 0.48057 0.02065 0.90421 0.0
N845 N 0.52027 0.08245 0.99135 0.0
C846 C 0.50613 0.07578 0.97008 0.0
C847 C 0.50804 0.11745 0.99688 0.0
C848 C 0.4921 0.08975 0.96159 0.0
C849 C 0.52169 0.10311 0.00456 0.0
C850 C 0.49311 0.11071 0.97537 0.0
N851 N 0.5193 0.04167 0.9654 0.0
C852 C 0.52001 0.02163 0.95211 0.0
C853 C 0.49128 0.0477 0.93449 0.0
C854 C 0.50574 0.05495 0.95665 0.0
C855 C 0.49141 0.02678 0.92131 0.0
C856 C 0.50595 0.01378 0.93009 0.0
H857 H 0.48261 0.12193 0.96944 0.0
H858 H 0.46671 0.093 0.93286 0.0
H859 H 0.46599 0.05622 0.90916 0.0
O860 O 0.57031 0.05656 0.98103 0.0
O861 O 0.50649 0.04322 0.00295 0.0
O862 O 0.52531 0.03119 0.03109 0.0
O863 O 0.56323 0.08878 0.99441 0.0
O864 O 0.55055 0.02113 0.99798 0.0
O865 O 0.53259 0.99819 0.02455 0.0
O866 O 0.50937 0.01491 0.08398 0.0
O867 O 0.57207 0.02636 0.05381 0.0
O868 O 0.56242 0.05592 0.0386 0.0
O869 O 0.51493 0.98497 0.06306 0.0
O870 O 0.53094 0.05409 0.0702 0.0
O871 O 0.54125 0.07719 0.03984 0.0
C872 C 0.50576 0.03165 0.02072 0.0
C873 C 0.57219 0.08378 0.9545 0.0
C874 C 0.58373 0.07871 0.91452 0.0
C875 C 0.56737 0.08983 0.90535 0.0
C876 C 0.55608 0.09517 0.94521 0.0
C877 C 0.55365 0.09805 0.9207 0.0
C878 C 0.58596 0.07568 0.93909 0.0
C879 C 0.54292 1.00104 0.00507 0.0
C880 C 0.57353 0.07816 0.9794 0.0
C881 C 0.47762 0.08249 0.93962 0.0
C882 C 0.47722 0.06154 0.92612 0.0
C883 C 0.57699 0.04337 0.04169 0.0
C884 C 0.50223 0.98095 0.10105 0.0
C885 C 0.49244 0.98045 0.14192 0.0
C886 C 0.50046 0.96057 0.14362 0.0
C887 C 0.51007 0.96093 0.10285 0.0
C888 C 0.49315 0.99039 0.12053 0.0
C889 C 0.50908 0.95079 0.12405 0.0
C890 C 0.53428 0.07378 0.06122 0.0
C891 C 0.50421 0.99284 0.07962 0.0
H892 H 0.56551 0.09259 0.88647 0.0
H893 H 0.54521 0.10164 0.95672 0.0
H894 H 0.54114 0.1067 0.91361 0.0
H895 H 0.59814 0.06657 0.94617 0.0
H896 H 0.49988 0.95255 0.15997 0.0
H897 H 0.51717 0.95323 0.08808 0.0
H898 H 0.48721 1.00592 0.11935 0.0
H899 H 0.51516 0.93541 0.12538 0.0
Eu900 Eu 0.27563 0.26018 0.26427 0.0
C901 C 0.35565 0.3302 0.32501 0.0
N902 N 0.33558 0.31925 0.33019 0.0
C903 C 0.35269 0.31429 0.36935 0.0
C904 C 0.37518 0.3332 0.34188 0.0
C905 C 0.33377 0.31172 0.35214 0.0
C906 C 0.37349 0.32499 0.36417 0.0
C907 C 0.37742 0.34957 0.29689 0.0
C908 C 0.35676 0.33829 0.30262 0.0
C909 C 0.39683 0.35249 0.31368 0.0
C910 C 0.39571 0.34435 0.33608 0.0
Eu911 Eu 0.30475 0.31849 0.30087 0.0
N912 N 0.33774 0.33511 0.28648 0.0
C913 C 0.37795 0.35784 0.27452 0.0
C914 C 0.33803 0.34431 0.26533 0.0
C915 C 0.35813 0.35538 0.25879 0.0
H916 H 0.31771 0.30454 0.35692 0.0
H917 H 0.35825 0.36245 0.24185 0.0
H918 H 0.26424 0.27176 0.20683 0.0
H919 H 0.22075 0.21668 0.32214 0.0
H920 H 0.32279 0.34407 0.25388 0.0
H921 H 0.39349 0.36663 0.26949 0.0
H922 H 0.25639 0.23611 0.31131 0.0
H923 H 0.35117 0.30833 0.38675 0.0
H924 H 0.41281 0.36114 0.30956 0.0
H925 H 0.41086 0.34684 0.34886 0.0
H926 H 0.23163 0.2665 0.17555 0.0
H927 H 0.38811 0.32706 0.37763 0.0
H928 H 0.18632 0.21013 0.29261 0.0
N929 N 0.24561 0.25752 0.23326 0.0
C930 C 0.22544 0.24622 0.23779 0.0
C931 C 0.22961 0.26098 0.19307 0.0
C932 C 0.20641 0.24225 0.22005 0.0
C933 C 0.24804 0.2644 0.2111 0.0
C934 C 0.20868 0.24996 0.19759 0.0
N935 N 0.24218 0.24315 0.27741 0.0
C936 C 0.24142 0.23479 0.29901 0.0
C937 C 0.20301 0.22683 0.26538 0.0
C938 C 0.22373 0.23864 0.26032 0.0
C939 C 0.20191 0.2193 0.28807 0.0
C940 C 0.22126 0.22313 0.30487 0.0
H941 H 0.19445 0.24719 0.18349 0.0
H942 H 0.17101 0.22737 0.2117 0.0
H943 H 0.16806 0.21386 0.25129 0.0
O944 O 0.27988 0.22678 0.27075 0.0
O945 O 0.25069 0.28269 0.2733 0.0
O946 O 0.26783 0.30881 0.3066 0.0
O947 O 0.27258 0.2336 0.23373 0.0
O948 O 0.29267 0.26114 0.30308 0.0
O949 O 0.28667 0.29381 0.32266 0.0
O950 O 0.30087 0.35253 0.29714 0.0
O951 O 0.32875 0.29452 0.2922 0.0
O952 O 0.31159 0.27197 0.25676 0.0
O953 O 0.30934 0.34358 0.33361 0.0
O954 O 0.28835 0.31874 0.26191 0.0
O955 O 0.29269 0.28524 0.24213 0.0
C956 C 0.2496 0.29753 0.2921 0.0
C957 C 0.29644 0.20856 0.24114 0.0
C958 C 0.31983 0.18251 0.25134 0.0
C959 C 0.33184 0.1879 0.23211 0.0
C960 C 0.30825 0.21381 0.22174 0.0
C961 C 0.32599 0.20353 0.21736 0.0
C962 C 0.30236 0.19307 0.25574 0.0
C963 C 0.28887 0.27292 0.32272 0.0
C964 C 0.2785 0.21944 0.24765 0.0
C965 C 0.18578 0.23059 0.22514 0.0
C966 C 0.1841 0.22289 0.2477 0.0
C967 C 0.3299 0.28165 0.27189 0.0
C968 C 0.30518 0.38209 0.33083 0.0
C969 C 0.28945 0.41511 0.32734 0.0
C970 C 0.30115 0.42532 0.3502 0.0
C971 C 0.31661 0.39198 0.35388 0.0
C972 C 0.29203 0.39384 0.31763 0.0
C973 C 0.31475 0.41371 0.36341 0.0
C974 C 0.29084 0.30628 0.24201 0.0
C975 C 0.30543 0.35909 0.32055 0.0
H976 H 0.34543 0.17986 0.22831 0.0
H977 H 0.30403 0.22598 0.21025 0.0
H978 H 0.33522 0.20768 0.20254 0.0
H979 H 0.29348 0.18955 0.27103 0.0
H980 H 0.29949 0.44194 0.35793 0.0
H981 H 0.32684 0.38296 0.36441 0.0
H982 H 0.28338 0.38617 0.29972 0.0
H983 H 0.32362 0.42144 0.38114 0.0
Eu984 Eu 0.54675 0.50622 0.02739 0.0
C985 C 0.52382 0.59194 0.08282 0.0
N986 N 0.5116 0.57718 0.06366 0.0
C987 C 0.47867 0.57531 0.08283 0.0
C988 C 0.51393 0.5983 0.10328 0.0
C989 C 0.48921 0.56941 0.063 0.0
C990 C 0.49111 0.58965 0.10317 0.0
C991 C 0.55946 0.61569 0.1018 0.0
C992 C 0.54638 0.60058 0.08202 0.0
C993 C 0.54971 0.62177 0.12237 0.0
C994 C 0.52701 0.61314 0.12308 0.0
Eu995 Eu 0.53084 0.56839 0.03118 0.0
N996 N 0.55549 0.59423 0.06196 0.0
C997 C 0.58196 0.62438 0.10027 0.0
C998 C 0.57714 0.60336 0.05999 0.0
C999 C 0.59076 0.61835 0.07918 0.0
H1000 H 0.47932 0.55894 0.04709 0.0
H1001 H 0.60801 0.62539 0.07762 0.0
H1002 H 0.60071 0.51508 0.01654 0.0
H1003 H 0.47471 0.44594 0.97602 0.0
H1004 H 0.58389 0.59956 0.04351 0.0
H1005 H 0.59256 0.63602 0.11509 0.0
H1006 H 0.49647 0.4722 0.01174 0.0
H1007 H 0.46093 0.56894 0.08235 0.0
H1008 H 0.55954 0.63329 0.13776 0.0
H1009 H 0.51971 0.61814 0.139 0.0
H1010 H 0.62117 0.50958 0.9819 0.0
H1011 H 0.48288 0.59418 0.11852 0.0
H1012 H 0.49183 0.43991 0.93853 0.0
N1013 N 0.56879 0.49993 0.99632 0.0
C1014 C 0.55767 0.48704 0.97536 0.0
C1015 C 0.60325 0.50348 0.97968 0.0
C1016 C 0.56887 0.48271 0.95531 0.0
C1017 C 0.59148 0.50701 0.99916 0.0
C1018 C 0.59184 0.49162 0.9575 0.0
N1019 N 0.52504 0.48114 0.99416 0.0
C1020 C 0.50391 0.46956 0.99537 0.0
C1021 C 0.52355 0.46232 0.95363 0.0
C1022 C 0.53528 0.47696 0.97443 0.0
C1023 C 0.50139 0.45133 0.95414 0.0
C1024 C 0.49165 0.45471 0.97526 0.0
H1025 H 0.60105 0.48869 0.94251 0.0
H1026 H 0.56528 0.46569 0.91841 0.0
H1027 H 0.5256 0.44782 0.91696 0.0
O1028 O 0.53378 0.48108 0.05018 0.0
O1029 O 0.5234 0.5145 0.99655 0.0
O1030 O 0.53867 0.55166 0.9959 0.0
O1031 O 0.56465 0.47987 0.03629 0.0
O1032 O 0.51756 0.5132 0.04558 0.0
O1033 O 0.50181 0.53768 0.02427 0.0
O1034 O 0.53564 0.60294 0.0208 0.0
O1035 O 0.53773 0.5531 0.06629 0.0
O1036 O 0.56449 0.5326 0.05915 0.0
O1037 O 0.50344 0.5788 0.01058 0.0
O1038 O 0.56252 0.56508 0.01576 0.0
O1039 O 0.57637 0.53667 0.03291 0.0
C1040 C 0.52734 0.532 0.98469 0.0
C1041 C 0.55954 0.46552 0.07343 0.0
C1042 C 0.56077 0.43821 0.1023 0.0
C1043 C 0.57515 0.4554 0.11911 0.0
C1044 C 0.57387 0.48238 0.09047 0.0
C1045 C 0.58167 0.47727 0.11318 0.0
C1046 C 0.55312 0.4434 0.0793 0.0
C1047 C 0.5 0.51964 0.03563 0.0
C1048 C 0.55042 0.47099 0.04988 0.0
C1049 C 0.55699 0.46901 0.93406 0.0
C1050 C 0.5344 0.45879 0.93325 0.0
C1051 C 0.55478 0.54451 0.07396 0.0
C1052 C 0.50556 0.61595 0.99743 0.0
C1053 C 0.50859 0.64884 0.97525 0.0
C1054 C 0.48522 0.64548 0.97202 0.0
C1055 C 0.48225 0.61316 0.99387 0.0
C1056 C 0.51887 0.63416 0.98835 0.0
C1057 C 0.47221 0.62789 0.98138 0.0
C1058 C 0.57902 0.55532 0.02244 0.0
C1059 C 0.51526 0.599 0.0096 0.0
H1060 H 0.58152 0.45185 0.13683 0.0
H1061 H 0.5789 0.49948 0.08626 0.0
H1062 H 0.59274 0.49035 0.12629 0.0
H1063 H 0.54183 0.43042 0.06623 0.0
H1064 H 0.47698 0.65661 0.9622 0.0
H1065 H 0.47167 0.59945 0.00069 0.0
H1066 H 0.53688 0.63644 0.99074 0.0
H1067 H 0.45422 0.62553 0.97876 0.0
Eu1068 Eu 0.79376 0.31833 0.27015 0.0
C1069 C 0.74391 0.23816 0.32185 0.0
N1070 N 0.76419 0.25273 0.32802 0.0
C1071 C 0.75814 0.2575 0.36975 0.0
C1072 C 0.72968 0.2333 0.33949 0.0
C1073 C 0.7719 0.26139 0.35179 0.0
C1074 C 0.73681 0.24368 0.36352 0.0
C1075 C 0.71783 0.21037 0.29176 0.0
C1076 C 0.73786 0.22693 0.29813 0.0
C1077 C 0.70333 0.20614 0.3091 0.0
C1078 C 0.70917 0.21767 0.33285 0.0
Eu1079 Eu 0.78541 0.25798 0.29565 0.0
N1080 N 0.75181 0.23182 0.28138 0.0
C1081 C 0.71315 0.19831 0.2682 0.0
C1082 C 0.74791 0.21951 0.25879 0.0
C1083 C 0.7284 0.20272 0.25174 0.0
H1084 H 0.78881 0.27093 0.35721 0.0
H1085 H 0.72516 0.19318 0.23369 0.0
H1086 H 0.80207 0.30229 0.2123 0.0
H1087 H 0.84877 0.37485 0.34511 0.0
H1088 H 0.75996 0.22261 0.24638 0.0
H1089 H 0.69799 0.18538 0.26265 0.0
H1090 H 0.8139 0.34878 0.32512 0.0
H1091 H 0.76418 0.2648 0.38847 0.0
H1092 H 0.68772 0.19371 0.30445 0.0
H1093 H 0.69798 0.21388 0.34614 0.0
H1094 H 0.83176 0.31087 0.18683 0.0
H1095 H 0.72633 0.24043 0.37757 0.0
H1096 H 0.88017 0.38479 0.3217 0.0
N1097 N 0.82094 0.32317 0.244 0.0
C1098 C 0.84007 0.33859 0.25366 0.0
C1099 C 0.83437 0.31859 0.20564 0.0
C1100 C 0.85736 0.34416 0.23951 0.0
C1101 C 0.81768 0.31348 0.22028 0.0
C1102 C 0.8543 0.33393 0.21529 0.0
N1103 N 0.82621 0.34225 0.29184 0.0
C1104 C 0.82787 0.35202 0.31528 0.0
C1105 C 0.8628 0.36363 0.28856 0.0
C1106 C 0.84279 0.34829 0.27812 0.0
C1107 C 0.86504 0.37294 0.31304 0.0
C1108 C 0.84743 0.36724 0.32639 0.0
H1109 H 0.8672 0.33781 0.20385 0.0
H1110 H 0.89065 0.36399 0.23933 0.0
H1111 H 0.8954 0.38097 0.28212 0.0
O1112 O 0.78569 0.35139 0.27973 0.0
O1113 O 0.82509 0.30295 0.27894 0.0
O1114 O 0.81929 0.2816 0.31022 0.0
O1115 O 0.78681 0.33897 0.24215 0.0
O1116 O 0.77913 0.31373 0.30491 0.0
O1117 O 0.79728 0.28922 0.32297 0.0
O1118 O 0.80321 0.23325 0.28024 0.0
O1119 O 0.75234 0.26582 0.27839 0.0
O1120 O 0.7566 0.3021 0.26714 0.0
O1121 O 0.79154 0.23043 0.31507 0.0
O1122 O 0.79669 0.26552 0.26014 0.0
O1123 O 0.77831 0.28885 0.24155 0.0
C1124 C 0.83293 0.29344 0.29738 0.0
C1125 C 0.75996 0.36042 0.24974 0.0
C1126 C 0.73478 0.38605 0.25447 0.0
C1127 C 0.71919 0.37213 0.2359 0.0
C1128 C 0.74406 0.34648 0.2313 0.0
C1129 C 0.72386 0.35245 0.22435 0.0
C1130 C 0.75524 0.38029 0.26128 0.0
C1131 C 0.78773 0.30654 0.32426 0.0
C1132 C 0.78139 0.35435 0.25705 0.0
C1133 C 0.8772 0.35955 0.24996 0.0
C1134 C 0.87992 0.36921 0.27436 0.0
C1135 C 0.74404 0.28259 0.27035 0.0
C1136 C 0.82388 0.21736 0.30934 0.0
C1137 C 0.84879 0.19127 0.30997 0.0
C1138 C 0.86149 0.20429 0.33114 0.0
C1139 C 0.83667 0.23033 0.3305 0.0
C1140 C 0.83015 0.19801 0.29891 0.0
C1141 C 0.85555 0.2239 0.3412 0.0
C1142 C 0.78365 0.26915 0.24165 0.0
C1143 C 0.80293 0.2226 0.29923 0.0
H1144 H 0.70338 0.37653 0.2304 0.0
H1145 H 0.74717 0.33096 0.22222 0.0
H1146 H 0.71175 0.34175 0.21006 0.0
H1147 H 0.76728 0.39106 0.27565 0.0
H1148 H 0.87593 0.19921 0.33986 0.0
H1149 H 0.83172 0.24505 0.33907 0.0
H1150 H 0.82008 0.18773 0.2828 0.0
H1151 H 0.86533 0.23389 0.35756 0.0
Eu1152 Eu 0.04291 0.55663 0.50068 0.0
C1153 C 0.07998 0.50471 0.59305 0.0
N1154 N 0.06545 0.49703 0.57232 0.0
C1155 C 0.08357 0.46632 0.56354 0.0
C1156 C 0.0974 0.49376 0.59956 0.0
C1157 C 0.06661 0.47781 0.55785 0.0
C1158 C 0.09919 0.47446 0.58436 0.0
C1159 C 0.09125 0.53123 0.63016 0.0
C1160 C 0.07703 0.52328 0.60797 0.0
C1161 C 0.10914 0.52092 0.63639 0.0
C1162 C 0.11221 0.50221 0.62111 0.0
Eu1163 Eu 0.03848 0.51832 0.56265 0.0
N1164 N 0.0595 0.53275 0.60143 0.0
C1165 C 0.08661 0.54881 0.64577 0.0
C1166 C 0.05383 0.54851 0.6175 0.0
C1167 C 0.06755 0.55716 0.63962 0.0
H1168 H 0.05455 0.47139 0.54186 0.0
H1169 H 0.06326 0.57008 0.65203 0.0
H1170 H 0.03798 0.61019 0.51743 0.0
H1171 H 1.00208 0.49677 0.41993 0.0
H1172 H 0.03861 0.55435 0.61352 0.0
H1173 H 0.09712 0.55542 0.66298 0.0
H1174 H 0.02865 0.51058 0.45722 0.0
H1175 H 0.08458 0.45121 0.55187 0.0
H1176 H 0.12038 0.52694 0.65324 0.0
H1177 H 0.12582 0.49415 0.62634 0.0
H1178 H 0.01446 0.63623 0.50472 0.0
H1179 H 0.11232 0.46552 0.58873 0.0
H1180 H 0.97677 0.52056 0.405 0.0
N1181 N 0.02172 0.58312 0.48966 0.0
C1182 C 1.00663 0.57654 0.46911 0.0
C1183 C 0.01193 0.61941 0.49468 0.0
C1184 C 0.99312 0.5911 0.46092 0.0
C1185 C 0.025 0.60445 0.50205 0.0
C1186 C 0.99577 0.61265 0.47416 0.0
N1187 N 0.01812 0.54162 0.46432 0.0
C1188 C 0.01756 0.52104 0.45136 0.0
C1189 C 0.98951 0.5481 0.43447 0.0
C1190 C 1.00492 0.55532 0.45594 0.0
C1191 C 0.98837 0.5267 0.42157 0.0
C1192 C 1.00258 0.5132 0.42998 0.0
H1193 H 0.9857 0.62432 0.46846 0.0
H1194 H 0.96701 0.59479 0.43323 0.0
H1195 H 0.96382 0.55713 0.41012 0.0
O1196 O 0.06884 0.55403 0.47777 0.0
O1197 O 1.00698 0.53905 0.49979 0.0
O1198 O 0.02583 0.5331 0.53199 0.0
O1199 O 0.06479 0.58707 0.49294 0.0
O1200 O 0.05006 0.52039 0.49693 0.0
O1201 O 0.03294 0.49798 0.52446 0.0
O1202 O 1.01048 0.51521 0.58312 0.0
O1203 O 0.07267 0.52614 0.55168 0.0
O1204 O 0.06348 0.55599 0.53646 0.0
O1205 O 0.01655 0.48527 0.56271 0.0
O1206 O 0.03507 0.55572 0.57057 0.0
O1207 O 0.03923 0.57693 0.53736 0.0
C1208 C 1.00643 0.53001 0.51941 0.0
C1209 C 0.07355 0.58286 0.4529 0.0
C1210 C 0.08668 0.58026 0.41347 0.0
C1211 C 0.07327 0.59513 0.40604 0.0
C1212 C 0.0601 0.59754 0.44516 0.0
C1213 C 0.05997 0.60356 0.42178 0.0
C1214 C 0.08648 0.57407 0.43691 0.0
C1215 C 0.04241 0.50052 0.5044 0.0
C1216 C 0.07389 0.57583 0.4772 0.0
C1217 C 0.9776 0.58386 0.4397 0.0
C1218 C 0.9758 0.56243 0.42652 0.0
C1219 C 0.07757 0.54285 0.53913 0.0
C1220 C 1.00442 0.48213 0.6011 0.0
C1221 C 0.99406 0.48319 0.64163 0.0
C1222 C 1.00674 0.46715 0.64677 0.0
C1223 C 0.01702 0.4659 0.60621 0.0
C1224 C 0.9925 0.4902 0.61869 0.0
C1225 C 0.01792 0.45829 0.62892 0.0
C1226 C 0.03582 0.5747 0.56032 0.0
C1227 C 1.00568 0.49315 0.57911 0.0
H1228 H 0.07333 0.60057 0.38824 0.0
H1229 H 0.04972 0.60439 0.45706 0.0
H1230 H 0.04968 0.61496 0.41593 0.0
H1231 H 0.09625 0.5622 0.44279 0.0
H1232 H 1.00809 0.46168 0.66458 0.0
H1233 H 0.02663 0.45959 0.59302 0.0
H1234 H 0.98309 0.50304 0.61506 0.0
H1235 H 0.02777 0.44596 0.63292 0.0
Eu1236 Eu 0.81922 0.77782 0.28102 0.0
C1237 C 0.73898 0.80871 0.22472 0.0
N1238 N 0.75331 0.82035 0.24444 0.0
C1239 C 0.7566 0.85461 0.2264 0.0
C1240 C 0.73323 0.81966 0.20473 0.0
C1241 C 0.76194 0.84302 0.24572 0.0
C1242 C 0.74226 0.84288 0.20577 0.0
C1243 C 0.71615 0.77298 0.2037 0.0
C1244 C 0.73058 0.78556 0.2242 0.0
C1245 C 0.7104 0.78387 0.18377 0.0
C1246 C 0.71891 0.80713 0.18429 0.0
Eu1247 Eu 0.76133 0.79932 0.27599 0.0
N1248 N 0.73701 0.77527 0.24346 0.0
C1249 C 0.70793 0.74979 0.20383 0.0
C1250 C 0.72813 0.75298 0.24416 0.0
C1251 C 0.71376 0.73981 0.22426 0.0
H1252 H 0.77262 0.85228 0.26182 0.0
H1253 H 0.70698 0.72203 0.22482 0.0
H1254 H 0.80739 0.7246 0.29442 0.0
H1255 H 0.87538 0.85406 0.33185 0.0
H1256 H 0.73157 0.74538 0.26018 0.0
H1257 H 0.6968 0.73953 0.18843 0.0
H1258 H 0.84868 0.83176 0.29747 0.0
H1259 H 0.7635 0.87259 0.22746 0.0
H1260 H 0.69939 0.77444 0.16785 0.0
H1261 H 0.71435 0.81525 0.16874 0.0
H1262 H 0.81793 0.70341 0.32748 0.0
H1263 H 0.73823 0.8519 0.19078 0.0
H1264 H 0.88784 0.83539 0.36644 0.0
N1265 N 0.82789 0.75606 0.31153 0.0
C1266 C 0.84331 0.76717 0.33061 0.0
C1267 C 0.82508 0.72136 0.32866 0.0
C1268 C 0.85001 0.75567 0.34976 0.0
C1269 C 0.81892 0.73345 0.31012 0.0
C1270 C 0.84066 0.73251 0.3486 0.0
N1271 N 0.84454 0.80119 0.31306 0.0
C1272 C 0.85321 0.82361 0.31275 0.0
C1273 C 0.86758 0.80232 0.35123 0.0
C1274 C 0.85196 0.79031 0.33135 0.0
C1275 C 0.87582 0.82557 0.35149 0.0
C1276 C 0.86872 0.83621 0.33208 0.0
H1277 H 0.84539 0.72308 0.36296 0.0
H1278 H 0.87096 0.75905 0.38439 0.0
H1279 H 0.88635 0.79983 0.38566 0.0
O1280 O 0.84766 0.78661 0.25995 0.0
O1281 O 0.80642 0.78721 0.31694 0.0
O1282 O 0.78713 0.81471 0.30869 0.0
O1283 O 0.83766 0.75274 0.27016 0.0
O1284 O 0.81735 0.80943 0.26352 0.0
O1285 O 0.79303 0.82665 0.28324 0.0
O1286 O 0.73183 0.79052 0.29536 0.0
O1287 O 0.7754 0.7907 0.24067 0.0
O1288 O 0.79259 0.76197 0.24924 0.0
O1289 O 0.74276 0.82462 0.28609 0.0
O1290 O 0.76273 0.76767 0.29399 0.0
O1291 O 0.78733 0.75103 0.27421 0.0
C1292 C 0.79679 0.80376 0.3242 0.0
C1293 C 0.86892 0.75759 0.24756 0.0
C1294 C 0.90201 0.76233 0.22664 0.0
C1295 C 0.9023 0.73941 0.22755 0.0
C1296 C 0.86975 0.73465 0.24797 0.0
C1297 C 0.88625 0.7257 0.23803 0.0
C1298 C 0.88508 0.7715 0.2365 0.0
C1299 C 0.80988 0.8275 0.27071 0.0
C1300 C 0.85131 0.76614 0.25936 0.0
C1301 C 0.86562 0.76761 0.36951 0.0
C1302 C 0.87438 0.79085 0.37024 0.0
C1303 C 0.78365 0.77315 0.23349 0.0
C1304 C 0.7101 0.81928 0.30664 0.0
C1305 C 0.67681 0.81405 0.32716 0.0
C1306 C 0.67524 0.8364 0.3246 0.0
C1307 C 0.70805 0.84165 0.30454 0.0
C1308 C 0.69443 0.80543 0.31829 0.0
C1309 C 0.6908 0.85009 0.31348 0.0
C1310 C 0.7707 0.74984 0.28707 0.0
C1311 C 0.72838 0.81105 0.2959 0.0
H1312 H 0.91504 0.73203 0.21998 0.0
H1313 H 0.85765 0.72347 0.25616 0.0
H1314 H 0.88667 0.70804 0.23857 0.0
H1315 H 0.88477 0.78921 0.23596 0.0
H1316 H 0.6619 0.84332 0.33136 0.0
H1317 H 0.71972 0.85273 0.29575 0.0
H1318 H 0.69569 0.78814 0.3201 0.0
H1319 H 0.68942 0.86732 0.31165 0.0
Eu1320 Eu 0.7725 0.28328 0.80942 0.0
C1321 C 0.82857 0.25083 0.71513 0.0
N1322 N 0.83542 0.26599 0.73573 0.0
C1323 C 0.87098 0.25568 0.74009 0.0
C1324 C 0.84269 0.23713 0.70645 0.0
C1325 C 0.85638 0.26882 0.74803 0.0
C1326 C 0.86408 0.23968 0.71927 0.0
C1327 C 0.79951 0.2328 0.68171 0.0
C1328 C 0.80723 0.24876 0.70285 0.0
C1329 C 0.81354 0.21914 0.67306 0.0
C1330 C 0.83507 0.2213 0.68539 0.0
Eu1331 Eu 0.8099 0.28767 0.74778 0.0
N1332 N 0.79377 0.2618 0.71204 0.0
C1333 C 0.77785 0.23088 0.66996 0.0
C1334 C 0.77273 0.26017 0.70034 0.0
C1335 C 0.76444 0.24469 0.67929 0.0
H1336 H 0.86209 0.2816 0.76367 0.0
H1337 H 0.7477 0.24344 0.67024 0.0
H1338 H 0.72071 0.28977 0.79536 0.0
H1339 H 0.83878 0.33131 0.88165 0.0
H1340 H 0.76211 0.27069 0.70689 0.0
H1341 H 0.77132 0.21882 0.65369 0.0
H1342 H 0.82226 0.30156 0.84793 0.0
H1343 H 0.88759 0.25801 0.74994 0.0
H1344 H 0.80787 0.20677 0.65689 0.0
H1345 H 0.84568 0.2106 0.67852 0.0
H1346 H 0.6963 0.31495 0.80859 0.0
H1347 H 0.87542 0.22948 0.71318 0.0
H1348 H 0.81671 0.35799 0.89728 0.0
N1349 N 0.74835 0.30634 0.82163 0.0
C1350 C 0.75639 0.32281 0.84085 0.0
C1351 C 0.71319 0.31743 0.81776 0.0
C1352 C 0.74307 0.33759 0.84909 0.0
C1353 C 0.72708 0.30332 0.81015 0.0
C1354 C 0.72124 0.33471 0.83727 0.0
N1355 N 0.7907 0.31089 0.84321 0.0
C1356 C 0.81217 0.31288 0.85393 0.0
C1357 C 0.78715 0.34261 0.87156 0.0
C1358 C 0.77817 0.3252 0.85194 0.0
C1359 C 0.80921 0.34483 0.88222 0.0
C1360 C 0.82172 0.32984 0.87341 0.0
H1361 H 0.71047 0.3457 0.84308 0.0
H1362 H 0.74198 0.36639 0.87518 0.0
H1363 H 0.78059 0.37082 0.89483 0.0
O1364 O 0.77363 0.25731 0.833 0.0
O1365 O 0.7817 0.31883 0.80098 0.0
O1366 O 0.8087 0.30716 0.78385 0.0
O1367 O 0.74185 0.26 0.81409 0.0
O1368 O 0.80709 0.27394 0.81459 0.0
O1369 O 0.8299 0.28585 0.78493 0.0
O1370 O 0.80843 0.31341 0.72383 0.0
O1371 O 0.7966 0.25067 0.74964 0.0
O1372 O 0.78325 0.26993 0.7763 0.0
O1373 O 0.84028 0.31079 0.74247 0.0
O1374 O 0.77442 0.29556 0.74364 0.0
O1375 O 0.75144 0.2803 0.77171 0.0
C1376 C 0.79691 0.32241 0.78681 0.0
C1377 C 0.74295 0.2501 0.85401 0.0
C1378 C 0.74329 0.2357 0.89297 0.0
C1379 C 0.7283 0.24917 0.89957 0.0
C1380 C 0.72811 0.26358 0.86089 0.0
C1381 C 0.72084 0.26306 0.88361 0.0
C1382 C 0.75055 0.2364 0.87013 0.0
C1383 C 0.82658 0.27775 0.80584 0.0
C1384 C 0.752 0.25097 0.83091 0.0
C1385 C 0.75195 0.35484 0.86864 0.0
C1386 C 0.77394 0.35736 0.87983 0.0
C1387 C 0.78456 0.25002 0.76688 0.0
C1388 C 0.83902 0.31932 0.70225 0.0
C1389 C 0.83637 0.3286 0.66108 0.0
C1390 C 0.85297 0.31664 0.65627 0.0
C1391 C 0.85573 0.30747 0.69733 0.0
C1392 C 0.82962 0.33006 0.68413 0.0
C1393 C 0.86268 0.30624 0.67442 0.0
C1394 C 0.75463 0.28963 0.75144 0.0
C1395 C 0.83008 0.3195 0.72546 0.0
H1396 H 0.72212 0.24878 0.91692 0.0
H1397 H 0.72227 0.27461 0.8489 0.0
H1398 H 0.70937 0.27343 0.88885 0.0
H1399 H 0.76259 0.22664 0.86497 0.0
H1400 H 0.85858 0.31558 0.63859 0.0
H1401 H 0.86329 0.29898 0.71098 0.0
H1402 H 0.81658 0.33904 0.68778 0.0
H1403 H 0.87552 0.29709 0.67069 0.0
Eu1404 Eu 0.77708 0.76101 0.76586 0.0
C1405 C 0.8583 0.83086 0.8217 0.0
N1406 N 0.83883 0.81933 0.82769 0.0
C1407 C 0.85798 0.81313 0.86528 0.0
C1408 C 0.87861 0.83317 0.83713 0.0
C1409 C 0.83829 0.81114 0.84943 0.0
C1410 C 0.87825 0.82405 0.85904 0.0
C1411 C 0.87819 0.8513 0.79297 0.0
C1412 C 0.85803 0.83999 0.7998 0.0
C1413 C 0.8984 0.85336 0.80821 0.0
C1414 C 0.8986 0.84444 0.83025 0.0
Eu1415 Eu 0.80651 0.82027 0.80154 0.0
N1416 N 0.83817 0.83806 0.78537 0.0
C1417 C 0.87745 0.86057 0.77114 0.0
C1418 C 0.83732 0.84832 0.76489 0.0
C1419 C 0.85691 0.85923 0.75716 0.0
H1420 H 0.82268 0.80379 0.85508 0.0
H1421 H 0.8561 0.8671 0.74073 0.0
H1422 H 0.76597 0.77318 0.70822 0.0
H1423 H 0.72201 0.71263 0.8195 0.0
H1424 H 0.82165 0.84909 0.75496 0.0
H1425 H 0.89258 0.86933 0.76526 0.0
H1426 H 0.7578 0.73368 0.80993 0.0
H1427 H 0.85746 0.80654 0.88247 0.0
H1428 H 0.914 0.86204 0.80323 0.0
H1429 H 0.91434 0.84633 0.84187 0.0
H1430 H 0.73349 0.77114 0.67794 0.0
H1431 H 0.89349 0.82559 0.87141 0.0
H1432 H 0.68735 0.7088 0.79089 0.0
N1433 N 0.74701 0.76066 0.73523 0.0
C1434 C 0.72652 0.74994 0.73953 0.0
C1435 C 0.73122 0.76554 0.69538 0.0
C1436 C 0.70746 0.74725 0.72204 0.0
C1437 C 0.74967 0.76738 0.71303 0.0
C1438 C 0.70997 0.7557 0.70001 0.0
N1439 N 0.7433 0.74301 0.77736 0.0
C1440 C 0.74267 0.73274 0.79784 0.0
C1441 C 0.70395 0.72819 0.76536 0.0
C1442 C 0.72471 0.74044 0.76092 0.0
C1443 C 0.70298 0.71834 0.78683 0.0
C1444 C 0.72248 0.72054 0.80309 0.0
H1445 H 0.69575 0.75392 0.68611 0.0
H1446 H 0.67186 0.73337 0.71344 0.0
H1447 H 0.6688 0.71674 0.75137 0.0
O1448 O 0.78433 0.72904 0.7733 0.0
O1449 O 0.75433 0.77874 0.78746 0.0
O1450 O 0.76838 0.81725 0.79141 0.0
O1451 O 0.77241 0.733 0.73632 0.0
O1452 O 0.79519 0.76225 0.80402 0.0
O1453 O 0.78893 0.79497 0.82319 0.0
O1454 O 0.81388 0.85706 0.80887 0.0
O1455 O 0.82946 0.79488 0.79309 0.0
O1456 O 0.81243 0.77371 0.75701 0.0
O1457 O 0.80273 0.83731 0.83676 0.0
O1458 O 0.79018 0.82181 0.76317 0.0
O1459 O 0.79249 0.78726 0.74354 0.0
C1460 C 0.75169 0.79978 0.79184 0.0
C1461 C 0.79793 0.70916 0.7424 0.0
C1462 C 0.82294 0.68436 0.75181 0.0
C1463 C 0.83097 0.68653 0.72945 0.0
C1464 C 0.80583 0.7113 0.72 0.0
C1465 C 0.82246 0.70007 0.71368 0.0
C1466 C 0.80679 0.69608 0.75815 0.0
C1467 C 0.79106 0.77404 0.82346 0.0
C1468 C 0.78062 0.72021 0.75047 0.0
C1469 C 0.68665 0.73555 0.72667 0.0
C1470 C 0.68491 0.72601 0.74824 0.0
C1471 C 0.83078 0.78276 0.77228 0.0
C1472 C 0.79111 0.87152 0.835 0.0
C1473 C 0.76713 0.89596 0.82106 0.0
C1474 C 0.75983 0.89789 0.84395 0.0
C1475 C 0.78393 0.8737 0.8579 0.0
C1476 C 0.78248 0.88251 0.81664 0.0
C1477 C 0.76821 0.88673 0.86227 0.0
C1478 C 0.79108 0.80849 0.74322 0.0
C1479 C 0.80716 0.8574 0.83016 0.0
H1480 H 0.84342 0.67751 0.724 0.0
H1481 H 0.79929 0.72159 0.70755 0.0
H1482 H 0.82859 0.70168 0.69644 0.0
H1483 H 0.80103 0.69511 0.7757 0.0
H1484 H 0.74804 0.90834 0.84782 0.0
H1485 H 0.79037 0.86523 0.87231 0.0
H1486 H 0.78757 0.88055 0.79873 0.0
H1487 H 0.76267 0.88833 0.87993 0.0
Eu1488 Eu 0.56538 0.55041 0.54351 0.0
C1489 C 0.49821 0.46729 0.49106 0.0
N1490 N 0.50851 0.48686 0.48371 0.0
C1491 C 0.51541 0.46612 0.44739 0.0
C1492 C 0.49701 0.44615 0.47712 0.0
C1493 C 0.51641 0.48666 0.46189 0.0
C1494 C 0.50584 0.44576 0.45512 0.0
C1495 C 0.47915 0.44824 0.52119 0.0
C1496 C 0.48924 0.4684 0.51288 0.0
C1497 C 0.47833 0.42717 0.50754 0.0
C1498 C 0.48712 0.42613 0.48553 0.0
Eu1499 Eu 0.50705 0.52054 0.50795 0.0
N1500 N 0.49 0.48908 0.52569 0.0
C1501 C 0.46977 0.44984 0.54278 0.0
C1502 C 0.47946 0.49066 0.54578 0.0
C1503 C 0.46971 0.47114 0.55496 0.0
H1504 H 0.52302 0.50229 0.45529 0.0
H1505 H 0.4617 0.47254 0.57114 0.0
H1506 H 0.55568 0.56077 0.60197 0.0
H1507 H 0.6115 0.60739 0.48965 0.0
H1508 H 0.47769 0.5068 0.55431 0.0
H1509 H 0.46194 0.43474 0.54979 0.0
H1510 H 0.59198 0.57056 0.49958 0.0
H1511 H 0.52181 0.46601 0.43015 0.0
H1512 H 0.47066 0.41154 0.5137 0.0
H1513 H 0.48614 0.40974 0.47511 0.0
H1514 H 0.55784 0.59347 0.63271 0.0
H1515 H 0.50512 0.42986 0.44384 0.0
H1516 H 0.61431 0.64251 0.51798 0.0
N1517 N 0.5664 0.58059 0.57466 0.0
C1518 C 0.57604 0.60164 0.57013 0.0
C1519 C 0.56259 0.59607 0.61501 0.0
C1520 C 0.57864 0.62085 0.58776 0.0
C1521 C 0.56075 0.5775 0.59717 0.0
C1522 C 0.57129 0.61788 0.61018 0.0
N1523 N 0.58253 0.58501 0.53208 0.0
C1524 C 0.59257 0.58591 0.51158 0.0
C1525 C 0.59604 0.62517 0.54379 0.0
C1526 C 0.58469 0.60385 0.54844 0.0
C1527 C 0.60545 0.62644 0.52219 0.0
C1528 C 0.60386 0.60667 0.50611 0.0
H1529 H 0.57306 0.6322 0.62421 0.0
H1530 H 0.59133 0.65719 0.59617 0.0
H1531 H 0.60651 0.66096 0.55766 0.0
O1532 O 0.59572 0.54048 0.53522 0.0
O1533 O 0.54802 0.57303 0.52096 0.0
O1534 O 0.51053 0.55888 0.51994 0.0
O1535 O 0.59386 0.5555 0.57188 0.0
O1536 O 0.5639 0.5319 0.50545 0.0
O1537 O 0.53172 0.53807 0.4857 0.0
O1538 O 0.47086 0.51243 0.49945 0.0
O1539 O 0.53322 0.49866 0.51622 0.0
O1540 O 0.55162 0.51521 0.55342 0.0
O1541 O 0.49088 0.52523 0.47269 0.0
O1542 O 0.50541 0.53781 0.54597 0.0
O1543 O 0.53935 0.53556 0.56598 0.0
C1544 C 0.52726 0.57565 0.5178 0.0
C1545 C 0.6151 0.52772 0.56691 0.0
C1546 C 0.64375 0.50624 0.56377 0.0
C1547 C 0.63394 0.49166 0.57923 0.0
C1548 C 0.60521 0.51336 0.58249 0.0
C1549 C 0.61471 0.49533 0.58865 0.0
C1550 C 0.63409 0.52405 0.55766 0.0
C1551 C 0.55242 0.53609 0.48589 0.0
C1552 C 0.60524 0.5454 0.55774 0.0
C1553 C 0.58926 0.64226 0.58286 0.0
C1554 C 0.59796 0.6444 0.56095 0.0
C1555 C 0.54345 0.49678 0.53775 0.0
C1556 C 0.45715 0.53697 0.47456 0.0
C1557 C 0.43265 0.56055 0.48912 0.0
C1558 C 0.43228 0.57005 0.46732 0.0
C1559 C 0.4565 0.5464 0.45275 0.0
C1560 C 0.44524 0.54419 0.49267 0.0
C1561 C 0.44419 0.56297 0.44924 0.0
C1562 C 0.51854 0.53732 0.56611 0.0
C1563 C 0.47092 0.52033 0.47871 0.0
H1564 H 0.64112 0.47762 0.58401 0.0
H1565 H 0.59013 0.51585 0.58951 0.0
H1566 H 0.60707 0.48409 0.60051 0.0
H1567 H 0.64093 0.53477 0.54482 0.0
H1568 H 0.42252 0.58264 0.46411 0.0
H1569 H 0.46567 0.54111 0.43855 0.0
H1570 H 0.44595 0.53734 0.50978 0.0
H1571 H 0.4438 0.57026 0.43243 0.0
Eu1572 Eu 1.01163 0.53851 0.03659 0.0
C1573 C 0.08791 0.58863 0.9901 0.0
N1574 N 0.07272 0.56868 0.98239 0.0
C1575 C 0.06457 0.58088 0.94354 0.0
C1576 C 0.09107 0.60583 0.975 0.0
C1577 C 0.0621 0.56422 0.95893 0.0
C1578 C 0.07882 0.60189 0.95172 0.0
C1579 C 0.11724 0.612 0.02082 0.0
C1580 C 0.10117 0.59171 0.01279 0.0
C1581 C 0.1198 0.62927 0.00602 0.0
C1582 C 0.1068 0.62619 0.98321 0.0
Eu1583 Eu 0.07169 0.54201 0.01045 0.0
N1584 N 0.09812 0.57503 0.02723 0.0
C1585 C 0.13031 0.61434 0.04356 0.0
C1586 C 0.11129 0.57681 0.04899 0.0
C1587 C 0.1274 0.59662 0.05763 0.0
H1588 H 0.05229 0.5477 0.95131 0.0
H1589 H 0.1376 0.5982 0.07508 0.0
H1590 H 0.02733 0.5389 0.09785 0.0
H1591 H 0.94379 0.48118 0.97495 0.0
H1592 H 0.10918 0.56296 0.05964 0.0
H1593 H 0.14279 0.62971 0.05034 0.0
H1594 H 0.97392 0.51532 0.98772 0.0
H1595 H 0.05584 0.57729 0.92514 0.0
H1596 H 0.13199 0.64501 0.01196 0.0
H1597 H 0.10929 0.63956 0.97184 0.0
H1598 H 0.02058 0.51298 0.12799 0.0
H1599 H 0.08087 0.61465 0.93959 0.0
H1600 H 0.93466 0.45384 0.00388 0.0
N1601 N 1.00615 0.51628 0.06854 0.0
C1602 C 0.9897 0.49708 0.06253 0.0
C1603 C 0.01209 0.50811 0.10954 0.0
C1604 C 0.98468 0.48213 0.07974 0.0
C1605 C 0.01632 0.52256 0.09206 0.0
C1606 C 0.99649 0.48763 0.10326 0.0
N1607 N 0.98244 0.50682 0.0227 0.0
C1608 C 0.97041 0.50323 0.0001 0.0
C1609 C 0.95996 0.4729 0.03294 0.0
C1610 C 0.97728 0.4925 0.0393 0.0
C1611 C 0.94798 0.46876 0.00946 0.0
C1612 C 0.95315 0.48406 0.99302 0.0
H1613 H 0.99314 0.47656 0.11693 0.0
H1614 H 0.9639 0.4507 0.08616 0.0
H1615 H 0.94239 0.44259 0.04523 0.0
O1616 O 0.98076 0.54978 0.02739 0.0
O1617 O 0.01699 0.5031 0.02101 0.0
O1618 O 0.05224 0.50551 0.00852 0.0
O1619 O 1.00065 0.56126 0.06304 0.0
O1620 O 0.02133 0.54893 0.00158 0.0
O1621 O 0.04149 0.52777 0.9824 0.0
O1622 O 0.102 0.52905 0.02075 0.0
O1623 O 0.06612 0.57389 0.03419 0.0
O1624 O 0.02902 0.57053 0.0227 0.0
O1625 O 0.0911 0.53261 0.98287 0.0
O1626 O 0.06392 0.52781 0.04471 0.0
O1627 O 0.04275 0.54928 0.06343 0.0
C1628 C 0.03277 0.49369 0.01243 0.0
C1629 C 0.96213 0.561 0.0596 0.0
C1630 C 0.92771 0.57431 0.06078 0.0
C1631 C 0.92403 0.56346 0.08139 0.0
C1632 C 0.95823 0.55 0.07996 0.0
C1633 C 0.93918 0.55129 0.0908 0.0
C1634 C 0.94682 0.57288 0.04997 0.0
C1635 C 0.02283 0.53445 0.98333 0.0
C1636 C 0.98254 0.56167 0.04871 0.0
C1637 C 0.96777 0.46241 0.0732 0.0
C1638 C 0.95544 0.45784 0.04992 0.0
C1639 C 0.04855 0.58318 0.03257 0.0
C1640 C 0.12482 0.51893 0.98979 0.0
C1641 C 0.15644 0.50109 0.99612 0.0
C1642 C 0.16137 0.50485 0.9728 0.0
C1643 C 0.13002 0.52253 0.9665 0.0
C1644 C 0.13798 0.50798 0.00458 0.0
C1645 C 0.14818 0.51546 0.95808 0.0
C1646 C 0.06018 0.54014 0.06382 0.0
C1647 C 0.10575 0.52689 0.99821 0.0
H1648 H 0.90964 0.56465 0.09044 0.0
H1649 H 0.96997 0.54073 0.08761 0.0
H1650 H 0.93627 0.54307 0.10671 0.0
H1651 H 0.9499 0.58112 0.03405 0.0
H1652 H 0.1754 0.49939 0.96588 0.0
H1653 H 0.12013 0.53095 0.95477 0.0
H1654 H 0.13411 0.50507 0.02256 0.0
H1655 H 0.15206 0.51827 0.94012 0.0
H1656 H 0.03138 0.22259 0.02125 0.0
H1657 H 1.0117 0.19661 0.94537 0.0
H1658 H 0.03314 0.1852 0.03046 0.0
H1659 H 0.01484 0.15879 0.95402 0.0
H1660 H 0.01369 0.08768 0.97481 0.0
H1661 H 1.00917 0.12462 0.96509 0.0
H1662 H 0.04587 0.15539 0.03553 0.0
H1663 H 0.04774 0.11835 0.04572 0.0
C1664 C 0.02754 0.20881 0.00632 0.0
C1665 C 0.02133 0.21307 0.9825 0.0
C1666 C 0.02885 0.18688 0.01159 0.0
C1667 C 0.02462 0.16788 0.9932 0.0
C1668 C 0.01817 0.17222 0.9692 0.0
C1669 C 0.01637 0.19424 0.96403 0.0
C1670 C 0.02064 0.10236 0.98834 0.0
C1671 C 0.03159 0.09959 0.01108 0.0
C1672 C 0.01823 0.12401 0.98262 0.0
C1673 C 0.02705 0.14414 0.9992 0.0
C1674 C 0.03818 0.1411 0.02189 0.0
C1675 C 0.03992 0.11944 0.02778 0.0
H1676 H 0.16004 0.79675 0.12253 0.0
H1677 H 0.1231 0.80974 0.18164 0.0
H1678 H 0.19247 0.79634 0.15148 0.0
H1679 H 0.15585 0.80938 0.21089 0.0
H1680 H 0.21065 0.77899 0.25264 0.0
H1681 H 0.17815 0.78271 0.22554 0.0
H1682 H 0.22149 0.82013 0.18174 0.0
H1683 H 0.25401 0.81702 0.20927 0.0
C1684 C 0.15886 0.79974 0.14175 0.0
C1685 C 0.13883 0.80337 0.14961 0.0
C1686 C 0.17761 0.79961 0.15845 0.0
C1687 C 0.17699 0.80286 0.18368 0.0
C1688 C 0.15699 0.80666 0.19164 0.0
C1689 C 0.13823 0.80707 0.17485 0.0
C1690 C 0.21335 0.78862 0.2377 0.0
C1691 C 0.23519 0.79812 0.23366 0.0
C1692 C 0.19458 0.79061 0.22196 0.0
C1693 C 0.197 0.8018 0.20135 0.0
C1694 C 0.21883 0.81125 0.19727 0.0
C1695 C 0.23758 0.80952 0.21318 0.0
H1696 H 0.54481 0.84993 0.47353 0.0
H1697 H 0.47523 0.84663 0.47897 0.0
H1698 H 0.55276 0.89122 0.48601 0.0
H1699 H 0.48302 0.88744 0.49132 0.0
H1700 H 0.50651 0.95931 0.53312 0.0
H1701 H 0.50003 0.91832 0.52304 0.0
H1702 H 0.54703 0.92661 0.47158 0.0
H1703 H 0.55291 0.96776 0.48114 0.0
C1704 C 0.53126 0.85786 0.47777 0.0
C1705 C 0.50936 0.84464 0.47533 0.0
C1706 C 0.53575 0.88169 0.48468 0.0
C1707 C 0.51857 0.89306 0.48974 0.0
C1708 C 0.49685 0.87962 0.48792 0.0
C1709 C 0.49234 0.85601 0.48072 0.0
C1710 C 0.51511 0.95261 0.51927 0.0
C1711 C 0.52979 0.96739 0.50765 0.0
C1712 C 0.51153 0.92882 0.51355 0.0
C1713 C 0.52291 0.91871 0.49632 0.0
C1714 C 0.53801 0.93345 0.48507 0.0
C1715 C 0.54128 0.95727 0.49051 0.0
H1716 H 0.52656 0.2845 0.67274 0.0
H1717 H 0.48735 0.31546 0.62283 0.0
H1718 H 0.4961 0.27873 0.69715 0.0
H1719 H 0.45727 0.31042 0.64755 0.0
H1720 H 0.3984 0.27047 0.68057 0.0
H1721 H 0.42908 0.28201 0.65754 0.0
H1722 H 0.47561 0.29619 0.72414 0.0
H1723 H 0.44478 0.28385 0.74681 0.0
C1724 C 0.51154 0.29026 0.66708 0.0
C1725 C 0.50943 0.30035 0.64571 0.0
C1726 C 0.49408 0.28714 0.68121 0.0
C1727 C 0.47409 0.29414 0.67444 0.0
C1728 C 0.47219 0.3045 0.65324 0.0
C1729 C 0.48957 0.30751 0.63907 0.0
C1730 C 0.41511 0.27685 0.69028 0.0
C1731 C 0.41924 0.2767 0.71545 0.0
C1732 C 0.43278 0.28336 0.67712 0.0
C1733 C 0.45501 0.28984 0.68886 0.0
C1734 C 0.45885 0.29091 0.71435 0.0
C1735 C 0.44117 0.28428 0.72745 0.0
H1736 H 0.07368 0.80807 0.64041 0.0
H1737 H 0.01239 0.81657 0.66666 0.0
H1738 H 0.07396 0.84108 0.61924 0.0
H1739 H 0.01263 0.84962 0.64531 0.0
H1740 H 0.04258 0.92489 0.63518 0.0
H1741 H 0.03539 0.8884 0.65049 0.0
H1742 H 0.05504 0.85674 0.58577 0.0
H1743 H 0.06225 0.8935 0.57051 0.0
C1744 C 0.06012 0.81683 0.64149 0.0
C1745 C 0.04309 0.80968 0.65542 0.0
C1746 C 0.06019 0.8357 0.62914 0.0
C1747 C 0.04333 0.84809 0.63054 0.0
C1748 C 0.02599 0.84061 0.64399 0.0
C1749 C 0.0258 0.82159 0.65616 0.0
C1750 C 0.04488 0.91001 0.62401 0.0
C1751 C 0.053 0.91203 0.60168 0.0
C1752 C 0.04071 0.88906 0.63273 0.0
C1753 C 0.04482 0.8696 0.6195 0.0
C1754 C 0.05194 0.87143 0.59658 0.0
C1755 C 0.05584 0.8924 0.58769 0.0
H1756 H 0.47885 0.78931 0.79899 0.0
H1757 H 0.47247 0.82628 0.86717 0.0
H1758 H 0.43905 0.78679 0.78491 0.0
H1759 H 0.43308 0.82387 0.85347 0.0
H1760 H 0.3646 0.82959 0.81889 0.0
H1761 H 0.40493 0.83494 0.82889 0.0
H1762 H 0.40176 0.76882 0.7896 0.0
H1763 H 0.3614 0.76408 0.77869 0.0
C1764 C 0.46914 0.79741 0.81076 0.0
C1765 C 0.47919 0.80838 0.83411 0.0
C1766 C 0.44609 0.79568 0.80285 0.0
C1767 C 0.43229 0.80506 0.8179 0.0
C1768 C 0.44273 0.81661 0.84096 0.0
C1769 C 0.46555 0.81802 0.84892 0.0
C1770 C 0.37247 0.81637 0.8119 0.0
C1771 C 0.35941 0.79657 0.79754 0.0
C1772 C 0.39581 0.81926 0.818 0.0
C1773 C 0.4072 0.80236 0.81021 0.0
C1774 C 0.39407 0.78252 0.79578 0.0
C1775 C 0.37068 0.77966 0.78965 0.0
H1776 H 0.49709 0.1835 0.15528 0.0
H1777 H 0.5641 0.20897 0.141 0.0
H1778 H 0.49677 0.14678 0.1313 0.0
H1779 H 0.56391 0.1726 0.11776 0.0
H1780 H 0.56479 0.09742 0.099 0.0
H1781 H 0.56307 0.13209 0.12506 0.0
H1782 H 0.49843 0.13131 0.08597 0.0
H1783 H 0.50039 0.09663 0.05973 0.0
C1784 C 0.51176 0.18126 0.14723 0.0
C1785 C 0.53057 0.19931 0.15006 0.0
C1786 C 0.51156 0.16027 0.13339 0.0
C1787 C 0.53036 0.15666 0.1226 0.0
C1788 C 0.54921 0.17462 0.1259 0.0
C1789 C 0.54924 0.19559 0.13918 0.0
C1790 C 0.55014 0.10457 0.09616 0.0
C1791 C 0.53264 0.09426 0.07752 0.0
C1792 C 0.54917 0.12448 0.111 0.0
C1793 C 0.53057 0.13454 0.10771 0.0
C1794 C 0.51287 0.12393 0.08923 0.0
C1795 C 0.514 0.10413 0.07415 0.0
H1796 H 0.11193 0.26948 0.32539 0.0
H1797 H 0.12769 0.34256 0.33645 0.0
H1798 H 0.14845 0.26916 0.31321 0.0
H1799 H 0.16493 0.34224 0.32443 0.0
H1800 H 0.23909 0.32777 0.32813 0.0
H1801 H 0.2022 0.33143 0.33842 0.0
H1802 H 0.1709 0.27785 0.2803 0.0
H1803 H 0.20729 0.27538 0.26914 0.0
C1804 C 0.12308 0.28563 0.325 0.0
C1805 C 0.11633 0.30605 0.33179 0.0
C1806 C 0.14426 0.28541 0.31792 0.0
C1807 C 0.16009 0.30563 0.31769 0.0
C1808 C 0.15345 0.32622 0.32441 0.0
C1809 C 0.13188 0.32644 0.33108 0.0
C1810 C 0.22438 0.3168 0.31739 0.0
C1811 C 0.22673 0.30069 0.29804 0.0
C1812 C 0.20305 0.31898 0.3233 0.0
C1813 C 0.18314 0.30477 0.31051 0.0
C1814 C 0.18555 0.28894 0.29103 0.0
C1815 C 0.20674 0.28728 0.2847 0.0
H1816 H 1.00965 0.04191 0.22057 0.0
H1817 H 0.94148 0.01979 0.18524 0.0
H1818 H 0.02241 0.04401 0.18115 0.0
H1819 H 0.95435 0.02137 0.1456 0.0
H1820 H 0.98505 0.04867 0.07985 0.0
H1821 H 0.97076 0.04699 0.11889 0.0
H1822 H 0.02645 0.0195 0.1464 0.0
H1823 H 0.04084 0.02163 0.10799 0.0
C1824 C 0.99737 0.03741 0.20438 0.0
C1825 C 0.97455 0.03062 0.20613 0.0
C1826 C 1.00471 0.03847 0.1817 0.0
C1827 C 0.98944 0.03273 0.16009 0.0
C1828 C 0.96656 0.02613 0.16183 0.0
C1829 C 0.9592 0.02506 0.18457 0.0
C1830 C 0.99418 0.04227 0.09427 0.0
C1831 C 0.01419 0.03552 0.09082 0.0
C1832 C 0.98595 0.0412 0.11661 0.0
C1833 C 0.99756 0.03332 0.13595 0.0
C1834 C 0.01731 0.02616 0.1322 0.0
C1835 C 0.02551 0.02728 0.11002 0.0
H1836 H 0.23466 0.63894 0.48204 0.0
H1837 H 0.30359 0.66968 0.51032 0.0
H1838 H 0.23574 0.66404 0.45117 0.0
H1839 H 0.30464 0.69484 0.47895 0.0
H1840 H 0.27844 0.75439 0.44401 0.0
H1841 H 0.2853 0.72704 0.47133 0.0
H1842 H 0.25393 0.67199 0.41443 0.0
H1843 H 0.24658 0.69924 0.38737 0.0
C1844 C 0.25016 0.65082 0.48144 0.0
C1845 C 0.26906 0.65229 0.49856 0.0
C1846 C 0.25081 0.66509 0.46364 0.0
C1847 C 0.27034 0.68118 0.46259 0.0
C1848 C 0.28939 0.68253 0.47945 0.0
C1849 C 0.28878 0.66813 0.49731 0.0
C1850 C 0.27322 0.73643 0.43734 0.0
C1851 C 0.26168 0.72887 0.41379 0.0
C1852 C 0.27739 0.72082 0.45283 0.0
C1853 C 0.26993 0.69747 0.44498 0.0
C1854 C 0.25962 0.68994 0.42094 0.0
C1855 C 0.25554 0.70551 0.40545 0.0
H1856 H 0.67019 0.04015 0.67552 0.0
H1857 H 0.61969 0.05943 0.71601 0.0
H1858 H 0.64678 0.04019 0.6377 0.0
H1859 H 0.59576 0.05862 0.67786 0.0
H1860 H 0.56859 0.07544 0.60418 0.0
H1861 H 0.59309 0.07832 0.64243 0.0
H1862 H 0.61293 0.01686 0.61557 0.0
H1863 H 0.58912 0.01447 0.57726 0.0
C1864 C 0.65397 0.0442 0.67634 0.0
C1865 C 0.64659 0.04957 0.69867 0.0
C1866 C 0.64056 0.04416 0.65467 0.0
C1867 C 0.61942 0.04919 0.65492 0.0
C1868 C 0.61212 0.05487 0.67723 0.0
C1869 C 0.62568 0.05515 0.699 0.0
C1870 C 0.57826 0.06262 0.60659 0.0
C1871 C 0.57709 0.04474 0.58799 0.0
C1872 C 0.59214 0.0642 0.62841 0.0
C1873 C 0.60485 0.04782 0.63188 0.0
C1874 C 0.60358 0.02994 0.61319 0.0
C1875 C 0.58991 0.02849 0.59134 0.0
H1876 H 0.27838 0.36292 0.96968 0.0
H1877 H 0.34252 0.34473 0.9804 0.0
H1878 H 0.27332 0.34668 0.92687 0.0
H1879 H 0.33758 0.32877 0.93767 0.0
H1880 H 0.31321 0.28481 0.8639 0.0
H1881 H 0.31599 0.29805 0.90718 0.0
H1882 H 0.28913 0.35568 0.89013 0.0
H1883 H 0.28642 0.3425 0.84688 0.0
C1884 C 0.2913 0.35525 0.963 0.0
C1885 C 0.31088 0.35515 0.97852 0.0
C1886 C 0.28848 0.34611 0.93838 0.0
C1887 C 0.3051 0.33651 0.92872 0.0
C1888 C 0.32435 0.33582 0.94447 0.0
C1889 C 0.32723 0.34508 0.969 0.0
C1890 C 0.30807 0.30039 0.86933 0.0
C1891 C 0.2999 0.31272 0.8518 0.0
C1892 C 0.30963 0.30798 0.89421 0.0
C1893 C 0.3028 0.32797 0.90223 0.0
C1894 C 0.29429 0.34008 0.88467 0.0
C1895 C 0.29289 0.33259 0.85981 0.0
H1896 H 0.99088 0.03502 0.32804 0.0
H1897 H 0.93246 0.99459 0.34992 0.0
H1898 H 1.01076 0.03827 0.36939 0.0
H1899 H 0.95223 0.9976 0.39069 0.0
H1900 H 0.98114 0.0352 0.46603 0.0
H1901 H 0.96466 0.02996 0.42367 0.0
H1902 H 0.02563 0.01565 0.40144 0.0
H1903 H 0.04244 0.02121 0.44426 0.0
C1904 C 0.98241 0.02657 0.34151 0.0
C1905 C 0.96 0.01479 0.33576 0.0
C1906 C 0.9938 0.02838 0.36515 0.0
C1907 C 0.98294 0.01846 0.3834 0.0
C1908 C 0.96091 1.00585 0.37722 0.0
C1909 C 0.94959 1.00408 0.35377 0.0
C1910 C 0.99115 0.03101 0.4522 0.0
C1911 C 0.0131 0.02852 0.4586 0.0
C1912 C 0.98161 0.02784 0.42787 0.0
C1913 C 0.99376 0.0222 0.40917 0.0
C1914 C 0.01588 0.02005 0.41544 0.0
C1915 C 0.02543 0.02309 0.43994 0.0
H1916 H 0.2634 0.66374 0.62392 0.0
H1917 H 0.3202 0.70902 0.60446 0.0
H1918 H 0.26138 0.69224 0.65748 0.0
H1919 H 0.31824 0.73742 0.63837 0.0
H1920 H 0.32423 0.75474 0.72486 0.0
H1921 H 0.32432 0.7326 0.68567 0.0
H1922 H 0.25564 0.73553 0.66419 0.0
H1923 H 0.25573 0.7583 0.70347 0.0
C1924 C 0.27538 0.67982 0.62678 0.0
C1925 C 0.29214 0.68418 0.61185 0.0
C1926 C 0.27402 0.69614 0.64573 0.0
C1927 C 0.28957 0.71688 0.65017 0.0
C1928 C 0.30606 0.72147 0.63504 0.0
C1929 C 0.30721 0.70527 0.6158 0.0
C1930 C 0.3093 0.75092 0.71156 0.0
C1931 C 0.28995 0.75796 0.71688 0.0
C1932 C 0.30941 0.73848 0.68921 0.0
C1933 C 0.29002 0.73258 0.67215 0.0
C1934 C 0.27076 0.74008 0.67721 0.0
C1935 C 0.27083 0.75304 0.69945 0.0
H1936 H 0.68928 0.0924 0.83204 0.0
H1937 H 0.6532 0.02465 0.80131 0.0
H1938 H 0.66492 0.09278 0.86306 0.0
H1939 H 0.62884 0.02499 0.83285 0.0
H1940 H 0.57351 0.05627 0.86818 0.0
H1941 H 0.59976 0.04754 0.8409 0.0
H1942 H 0.65463 0.07434 0.8987 0.0
H1943 H 0.62858 0.08379 0.92564 0.0
C1944 C 0.67636 0.07744 0.83214 0.0
C1945 C 0.67307 0.05854 0.81423 0.0
C1946 C 0.66252 0.07759 0.85004 0.0
C1947 C 0.64512 0.05886 0.85035 0.0
C1948 C 0.64215 0.03965 0.83287 0.0
C1949 C 0.6561 0.03945 0.81495 0.0
C1950 C 0.59118 0.06016 0.87501 0.0
C1951 C 0.59909 0.07101 0.89882 0.0
C1952 C 0.60613 0.05488 0.85956 0.0
C1953 C 0.62916 0.06045 0.86774 0.0
C1954 C 0.63694 0.0701 0.89196 0.0
C1955 C 0.62203 0.07538 0.90736 0.0
H1956 H 0.31006 0.38924 0.12334 0.0
H1957 H 0.29079 0.31956 0.08911 0.0
H1958 H 0.30788 0.37662 0.16323 0.0
H1959 H 0.28824 0.30703 0.12872 0.0
H1960 H 0.30836 0.28962 0.20318 0.0
H1961 H 0.31159 0.30404 0.16474 0.0
H1962 H 0.28177 0.35945 0.18923 0.0
H1963 H 0.27882 0.34503 0.22833 0.0
C1964 C 0.30539 0.37123 0.1243 0.0
C1965 C 0.30068 0.3554 0.10295 0.0
C1966 C 0.30396 0.36401 0.14719 0.0
C1967 C 0.29791 0.34078 0.14932 0.0
C1968 C 0.29326 0.32503 0.12792 0.0
C1969 C 0.29461 0.33223 0.1051 0.0
C1970 C 0.30237 0.30486 0.20046 0.0
C1971 C 0.29305 0.31601 0.21883 0.0
C1972 C 0.30417 0.3131 0.17826 0.0
C1973 C 0.29669 0.33278 0.17362 0.0
C1974 C 0.28781 0.3443 0.19218 0.0
C1975 C 0.28601 0.336 0.21455 0.0
H1976 H 0.22295 0.94661 0.96575 0.0
H1977 H 0.26441 1.00568 0.01141 0.0
H1978 H 0.18969 0.95882 0.97662 0.0
H1979 H 0.23137 0.01742 0.02273 0.0
H1980 H 0.17005 0.03713 0.03932 0.0
H1981 H 0.19679 0.02953 0.01244 0.0
H1982 H 0.17627 0.95776 0.01603 0.0
H1983 H 0.1487 0.96525 0.04183 0.0
C1984 C 0.22496 0.96249 0.97756 0.0
C1985 C 0.24622 0.97499 0.98811 0.0
C1986 C 0.20595 0.96939 0.98386 0.0
C1987 C 0.20799 0.98884 0.00076 0.0
C1988 C 0.22925 1.00244 0.00949 0.0
C1989 C 0.24821 0.9956 0.00314 0.0
C1990 C 0.17079 0.01967 0.03378 0.0
C1991 C 0.15754 1.00175 0.04291 0.0
C1992 C 0.18618 0.01537 0.01851 0.0
C1993 C 0.18867 0.9931 0.01228 0.0
C1994 C 0.17453 0.97509 0.02028 0.0
C1995 C 0.15904 0.97938 0.03542 0.0
H1996 H 0.71945 0.61265 0.01024 0.0
H1997 H 0.68484 0.66745 0.01978 0.0
H1998 H 0.68449 0.58516 0.01062 0.0
H1999 H 0.65018 0.64011 0.02005 0.0
H2000 H 0.58888 0.58598 0.99148 0.0
H2001 H 0.62494 0.60954 0.98878 0.0
H2002 H 0.65645 0.57503 0.04167 0.0
H2003 H 0.61991 0.55139 0.04485 0.0
C2004 C 0.70438 0.6188 0.01222 0.0
C2005 C 0.70482 0.6422 0.01485 0.0
C2006 C 0.68448 0.60309 0.01264 0.0
C2007 C 0.6647 0.61055 0.01527 0.0
C2008 C 0.66517 0.6339 0.01774 0.0
C2009 C 0.68502 0.64955 0.01765 0.0
C2010 C 0.60346 0.58318 0.00244 0.0
C2011 C 0.60151 0.56694 0.01858 0.0
C2012 C 0.6241 0.59675 0.00089 0.0
C2013 C 0.64338 0.59427 0.01522 0.0
C2014 C 0.64177 0.5772 0.03039 0.0
C2015 C 0.62092 0.56367 0.03216 0.0
H2016 H 0.64369 0.4664 0.28297 0.0
H2017 H 0.70435 0.51854 0.29624 0.0
H2018 H 0.66543 0.43754 0.27877 0.0
H2019 H 0.72633 0.48937 0.29271 0.0
H2020 H 0.75018 0.42992 0.24848 0.0
H2021 H 0.73396 0.46213 0.26139 0.0
H2022 H 0.69036 0.41941 0.30098 0.0
H2023 H 0.70604 0.38723 0.28712 0.0
C2024 C 0.66171 0.4717 0.28532 0.0
C2025 C 0.67227 0.49476 0.28991 0.0
C2026 C 0.67423 0.45511 0.28315 0.0
C2027 C 0.69767 0.46112 0.2857 0.0
C2028 C 0.70831 0.4842 0.29057 0.0
C2029 C 0.69572 0.50088 0.29266 0.0
C2030 C 0.73751 0.42774 0.26042 0.0
C2031 C 0.72908 0.40631 0.26673 0.0
C2032 C 0.72825 0.44611 0.26788 0.0
C2033 C 0.71053 0.44319 0.2818 0.0
C2034 C 0.70356 0.42206 0.28974 0.0
C2035 C 0.71262 0.40372 0.28206 0.0
H2036 H 0.87194 0.4834 0.49456 0.0
H2037 H 0.88099 0.47877 0.57171 0.0
H2038 H 0.91184 0.49257 0.49519 0.0
H2039 H 0.92157 0.48803 0.57216 0.0
H2040 H 0.98666 0.54066 0.55787 0.0
H2041 H 0.94909 0.52303 0.56469 0.0
H2042 H 0.94369 0.47326 0.50138 0.0
H2043 H 0.98125 0.49122 0.49459 0.0
C2044 C 0.88246 0.48433 0.5117 0.0
C2045 C 0.87338 0.48034 0.53313 0.0
C2046 C 0.90532 0.48926 0.51194 0.0
C2047 C 0.91959 0.49037 0.5336 0.0
C2048 C 0.9107 0.48692 0.55522 0.0
C2049 C 0.88763 0.4818 0.55497 0.0
C2050 C 0.97759 0.52546 0.54604 0.0
C2051 C 0.98636 0.51696 0.52588 0.0
C2052 C 0.95629 0.51537 0.54996 0.0
C2053 C 0.94365 0.49697 0.53344 0.0
C2054 C 0.95321 0.48756 0.51422 0.0
C2055 C 0.97448 0.49772 0.5103 0.0
H2056 H 0.38038 0.10339 0.34809 0.0
H2057 H 0.32573 0.05874 0.29951 0.0
H2058 H 0.36649 0.13614 0.33654 0.0
H2059 H 0.31241 0.09111 0.28744 0.0
H2060 H 0.29017 0.15049 0.26806 0.0
H2061 H 0.29809 0.12432 0.29578 0.0
H2062 H 0.36888 0.1498 0.29691 0.0
H2063 H 0.3609 0.17753 0.27068 0.0
C2064 C 0.36497 0.10057 0.33567 0.0
C2065 C 0.35432 0.07872 0.32424 0.0
C2066 C 0.35719 0.11926 0.32891 0.0
C2067 C 0.33871 0.11612 0.31079 0.0
C2068 C 0.32664 0.09409 0.30157 0.0
C2069 C 0.33434 0.07552 0.30835 0.0
C2070 C 0.30745 0.15091 0.27468 0.0
C2071 C 0.32499 0.16597 0.26717 0.0
C2072 C 0.31193 0.13589 0.29049 0.0
C2073 C 0.33404 0.13509 0.29849 0.0
C2074 C 0.35164 0.15038 0.29136 0.0
C2075 C 0.34713 0.16582 0.27588 0.0
H2076 H 0.35794 0.18105 0.54827 0.0
H2077 H 0.31265 0.12578 0.50078 0.0
H2078 H 0.38643 0.15867 0.55013 0.0
H2079 H 0.34146 0.10369 0.50184 0.0
H2080 H 0.38481 0.0625 0.54415 0.0
H2081 H 0.35793 0.08444 0.53103 0.0
H2082 H 0.41201 0.14162 0.52917 0.0
H2083 H 0.43889 0.11949 0.54307 0.0
C2084 C 0.3542 0.16425 0.53791 0.0
C2085 C 0.33301 0.15512 0.52454 0.0
C2086 C 0.37063 0.15149 0.53875 0.0
C2087 C 0.36628 0.12939 0.52604 0.0
C2088 C 0.34528 0.12056 0.51206 0.0
C2089 C 0.32878 0.13323 0.51142 0.0
C2090 C 0.39088 0.07955 0.54022 0.0
C2091 C 0.41373 0.08946 0.54468 0.0
C2092 C 0.37553 0.09214 0.53263 0.0
C2093 C 0.38279 0.11493 0.52938 0.0
C2094 C 0.40588 0.12423 0.53196 0.0
C2095 C 0.42127 0.11155 0.53957 0.0
H2096 H 0.69144 0.62399 0.32364 0.0
H2097 H 0.6826 0.62116 0.24537 0.0
H2098 H 0.71662 0.66138 0.32738 0.0
H2099 H 0.70741 0.65819 0.24922 0.0
H2100 H 0.77226 0.7094 0.2618 0.0
H2101 H 0.74842 0.67255 0.26259 0.0
H2102 H 0.71556 0.70193 0.31823 0.0
H2103 H 0.73975 0.73912 0.3177 0.0
C2104 C 0.69477 0.63135 0.30729 0.0
C2105 C 0.68519 0.61954 0.28419 0.0
C2106 C 0.70909 0.65273 0.30946 0.0
C2107 C 0.71413 0.66247 0.28857 0.0
C2108 C 0.70414 0.65086 0.2656 0.0
C2109 C 0.68984 0.62967 0.26343 0.0
C2110 C 0.76027 0.70802 0.27455 0.0
C2111 C 0.75787 0.72718 0.2897 0.0
C2112 C 0.74648 0.68693 0.27483 0.0
C2113 C 0.73003 0.68449 0.29029 0.0
C2114 C 0.72819 0.70339 0.3062 0.0
C2115 C 0.74195 0.72463 0.30582 0.0
H2116 H 0.83638 0.46466 0.80993 0.0
H2117 H 0.85487 0.44902 0.73853 0.0
H2118 H 0.82094 0.4248 0.81031 0.0
H2119 H 0.83913 0.40875 0.7391 0.0
H2120 H 0.7856 0.34241 0.74778 0.0
H2121 H 0.80011 0.38199 0.7423 0.0
H2122 H 0.84219 0.39235 0.81175 0.0
H2123 H 0.82785 0.35289 0.81694 0.0
C2124 C 0.83683 0.45277 0.79413 0.0
C2125 C 0.84697 0.45988 0.77422 0.0
C2126 C 0.82811 0.42999 0.79447 0.0
C2127 C 0.82924 0.41399 0.77489 0.0
C2128 C 0.83821 0.42102 0.75437 0.0
C2129 C 0.84715 0.44393 0.75408 0.0
C2130 C 0.79815 0.35325 0.76158 0.0
C2131 C 0.80583 0.34519 0.78271 0.0
C2132 C 0.80641 0.37564 0.75846 0.0
C2133 C 0.82201 0.38994 0.77672 0.0
C2134 C 0.82996 0.38153 0.79761 0.0
C2135 C 0.82189 0.35918 0.80057 0.0
H2136 H 0.108 0.88321 0.07675 0.0
H2137 H 0.03835 0.85824 0.08088 0.0
H2138 H 0.10007 0.91753 0.06347 0.0
H2139 H 0.02988 0.89256 0.06632 0.0
H2140 H 0.02148 0.96513 0.0574 0.0
H2141 H 0.02806 0.92955 0.06961 0.0
H2142 H 0.08938 0.93965 0.03791 0.0
H2143 H 0.08318 0.97576 0.02717 0.0
C2144 C 0.09077 0.88485 0.07452 0.0
C2145 C 0.07393 0.86749 0.08003 0.0
C2146 C 0.08606 0.90483 0.0665 0.0
C2147 C 0.06413 0.90866 0.06335 0.0
C2148 C 0.0471 0.89103 0.06855 0.0
C2149 C 0.0519 0.87091 0.0767 0.0
C2150 C 0.03639 0.95975 0.053 0.0
C2151 C 0.05177 0.97369 0.0412 0.0
C2152 C 0.0402 0.93897 0.05997 0.0
C2153 C 0.05948 0.93091 0.05519 0.0
C2154 C 0.07459 0.94485 0.04289 0.0
C2155 C 0.07096 0.96581 0.03636 0.0
H2156 H 0.96026 0.26934 0.87497 0.0
H2157 H 0.91977 0.27059 0.93292 0.0
H2158 H 0.9278 0.26984 0.84562 0.0
H2159 H 0.88771 0.2717 0.90396 0.0
H2160 H 0.82804 0.25386 0.84476 0.0
H2161 H 0.86055 0.25076 0.87221 0.0
H2162 H 0.90345 0.29324 0.83192 0.0
H2163 H 0.87094 0.29632 0.80456 0.0
C2164 C 0.94447 0.26968 0.88149 0.0
C2165 C 0.94276 0.26984 0.90643 0.0
C2166 C 0.92581 0.27015 0.86464 0.0
C2167 C 0.90488 0.27077 0.87222 0.0
C2168 C 0.90327 0.27081 0.89716 0.0
C2169 C 0.92184 0.27033 0.91392 0.0
C2170 C 0.8444 0.26243 0.84161 0.0
C2171 C 0.8467 0.27503 0.82203 0.0
C2172 C 0.86316 0.26078 0.85752 0.0
C2173 C 0.88488 0.27173 0.85447 0.0
C2174 C 0.88717 0.28417 0.83474 0.0
C2175 C 0.8684 0.28587 0.81887 0.0
H2176 H 0.53697 0.22859 0.5733 0.0
H2177 H 0.60699 0.22882 0.58906 0.0
H2178 H 0.52938 0.18781 0.55807 0.0
H2179 H 0.59954 0.18857 0.57439 0.0
H2180 H 0.5836 0.11875 0.52974 0.0
H2181 H 0.58981 0.15959 0.54072 0.0
H2182 H 0.52784 0.1509 0.57081 0.0
H2183 H 0.5217 0.10998 0.55964 0.0
C2184 C 0.5508 0.22012 0.57322 0.0
C2185 C 0.57265 0.23232 0.58241 0.0
C2186 C 0.54643 0.19656 0.56472 0.0
C2187 C 0.5638 0.18447 0.56489 0.0
C2188 C 0.58564 0.19695 0.5735 0.0
C2189 C 0.58993 0.22026 0.58212 0.0
C2190 C 0.57131 0.12535 0.53869 0.0
C2191 C 0.55231 0.11053 0.54385 0.0
C2192 C 0.57487 0.14905 0.54516 0.0
C2193 C 0.55941 0.15902 0.55689 0.0
C2194 C 0.54014 0.14423 0.56164 0.0
C2195 C 0.53671 0.12051 0.55535 0.0
H2196 H 0.55424 0.79393 0.38611 0.0
H2197 H 0.59157 0.75617 0.42982 0.0
H2198 H 0.58431 0.80069 0.36136 0.0
H2199 H 0.62127 0.76219 0.40462 0.0
H2200 H 0.6811 0.80233 0.37287 0.0
H2201 H 0.65071 0.79017 0.39617 0.0
H2202 H 0.60284 0.78449 0.33175 0.0
H2203 H 0.63332 0.79747 0.30899 0.0
C2204 C 0.56875 0.78684 0.39029 0.0
C2205 C 0.57044 0.77455 0.41004 0.0
C2206 C 0.586 0.79056 0.37595 0.0
C2207 C 0.60536 0.78193 0.38082 0.0
C2208 C 0.60686 0.76939 0.40042 0.0
C2209 C 0.58969 0.76582 0.41484 0.0
C2210 C 0.6641 0.79774 0.36362 0.0
C2211 C 0.65952 0.80055 0.33912 0.0
C2212 C 0.6466 0.79087 0.37695 0.0
C2213 C 0.62413 0.78662 0.36602 0.0
C2214 C 0.61979 0.7881 0.34102 0.0
C2215 C 0.63726 0.79512 0.32781 0.0
H2216 H 0.05323 0.25002 0.37818 0.0
H2217 H 0.04547 0.28478 0.44734 0.0
H2218 H 0.05005 0.21461 0.39547 0.0
H2219 H 0.04143 0.2493 0.46441 0.0
H2220 H 0.04509 0.18563 0.49565 0.0
H2221 H 0.05814 0.22026 0.47801 0.0
H2222 H 0.02286 0.18719 0.40781 0.0
H2223 H 1.01071 0.15275 0.42539 0.0
C2224 C 0.05082 0.25012 0.39708 0.0
C2225 C 0.04956 0.2703 0.41132 0.0
C2226 C 0.04891 0.22975 0.40702 0.0
C2227 C 0.04548 0.22891 0.43144 0.0
C2228 C 0.04452 0.24922 0.44572 0.0
C2229 C 0.04661 0.26961 0.43583 0.0
C2230 C 0.04097 0.18561 0.47628 0.0
C2231 C 0.02702 0.16654 0.46183 0.0
C2232 C 0.04807 0.20556 0.4662 0.0
C2233 C 0.04126 0.20681 0.44148 0.0
C2234 C 0.02867 0.18702 0.42679 0.0
C2235 C 0.02167 0.16718 0.43685 0.0
H2236 H 0.59949 0.2898 0.24978 0.0
H2237 H 0.60415 0.22691 0.20869 0.0
H2238 H 0.64015 0.29818 0.2628 0.0
H2239 H 0.64396 0.23542 0.22068 0.0
H2240 H 0.71233 0.24266 0.2609 0.0
H2241 H 0.67222 0.23634 0.25133 0.0
H2242 H 0.67759 0.30848 0.25315 0.0
H2243 H 0.71815 0.31463 0.26421 0.0
C2244 C 0.60902 0.27774 0.24349 0.0
C2245 C 0.59805 0.25746 0.22835 0.0
C2246 C 0.63252 0.28261 0.25084 0.0
C2247 C 0.64585 0.2674 0.24322 0.0
C2248 C 0.63472 0.24743 0.22776 0.0
C2249 C 0.61151 0.24256 0.22064 0.0
C2250 C 0.70511 0.25722 0.25979 0.0
C2251 C 0.71892 0.27907 0.26375 0.0
C2252 C 0.6818 0.25363 0.25377 0.0
C2253 C 0.67104 0.27182 0.25105 0.0
C2254 C 0.68483 0.29388 0.25516 0.0
C2255 C 0.70831 0.29742 0.26131 0.0
H2256 H 0.50812 0.87141 0.9121 0.0
H2257 H 0.57897 0.89066 0.90973 0.0
H2258 H 0.50983 0.90588 0.93899 0.0
H2259 H 0.58077 0.9256 0.93752 0.0
H2260 H 0.56857 0.99681 0.96803 0.0
H2261 H 0.56965 0.96243 0.94119 0.0
H2262 H 0.52232 0.92307 0.97961 0.0
H2263 H 0.52063 0.95725 0.00562 0.0
C2264 C 0.52421 0.88294 0.91741 0.0
C2265 C 0.54343 0.878 0.90861 0.0
C2266 C 0.5252 0.90282 0.93313 0.0
C2267 C 0.54547 0.91865 0.94082 0.0
C2268 C 0.56481 0.91391 0.93196 0.0
C2269 C 0.56382 0.89379 0.91612 0.0
C2270 C 0.55836 0.98082 0.97072 0.0
C2271 C 0.54442 0.98001 0.98905 0.0
C2272 C 0.55913 0.96101 0.95541 0.0
C2273 C 0.54598 0.9398 0.95797 0.0
C2274 C 0.53243 0.93902 0.97665 0.0
C2275 C 0.5316 0.95874 0.99183 0.0
H2276 H 0.93627 0.72692 0.70723 0.0
H2277 H 0.97407 0.78973 0.7484 0.0
H2278 H 0.90254 0.73381 0.72193 0.0
H2279 H 0.93966 0.7973 0.76273 0.0
H2280 H 0.8742 0.79743 0.79795 0.0
H2281 H 0.90961 0.79152 0.78586 0.0
H2282 H 0.87406 0.75227 0.71865 0.0
H2283 H 0.83904 0.75852 0.73071 0.0
C2284 C 0.93751 0.74237 0.71949 0.0
C2285 C 0.9584 0.75765 0.72641 0.0
C2286 C 0.91776 0.74654 0.72784 0.0
C2287 C 0.91753 0.76648 0.7434 0.0
C2288 C 0.9386 0.78164 0.75093 0.0
C2289 C 0.9586 0.77729 0.74268 0.0
C2290 C 0.87385 0.78783 0.78045 0.0
C2291 C 0.85321 0.77885 0.76541 0.0
C2292 C 0.89446 0.78429 0.77341 0.0
C2293 C 0.89544 0.77115 0.7511 0.0
C2294 C 0.87468 0.76212 0.73617 0.0
C2295 C 0.85422 0.76589 0.7431 0.0
H2296 H 0.12 0.09505 0.87363 0.0
H2297 H 0.1158 0.02372 0.85138 0.0
H2298 H 0.10167 0.08594 0.90878 0.0
H2299 H 0.09755 0.01467 0.88687 0.0
H2300 H 0.09142 0.01629 0.97132 0.0
H2301 H 0.10843 0.02249 0.93427 0.0
H2302 H 0.06283 0.06507 0.9152 0.0
H2303 H 0.04583 0.05879 0.95179 0.0
C2304 C 0.11514 0.07742 0.87621 0.0
C2305 C 0.11928 0.06012 0.85965 0.0
C2306 C 0.10457 0.07221 0.8963 0.0
C2307 C 0.09817 0.0496 0.90051 0.0
C2308 C 0.10243 0.03225 0.8841 0.0
C2309 C 0.11273 0.03744 0.86374 0.0
C2310 C 0.085 0.02682 0.95907 0.0
C2311 C 0.06738 0.03709 0.96446 0.0
C2312 C 0.09462 0.03027 0.93787 0.0
C2313 C 0.08702 0.04437 0.92199 0.0
C2314 C 0.06915 0.05429 0.92723 0.0
C2315 C 0.05935 0.05057 0.94812 0.0
H2316 H 0.78904 0.42158 0.57009 0.0
H2317 H 0.82471 0.37984 0.52889 0.0
H2318 H 0.78944 0.39733 0.60211 0.0
H2319 H 0.82572 0.35625 0.56092 0.0
H2320 H 0.81823 0.30989 0.61499 0.0
H2321 H 0.80477 0.32936 0.58231 0.0
H2322 H 0.81875 0.39192 0.63211 0.0
H2323 H 0.83139 0.37217 0.66485 0.0
C2324 C 0.79673 0.40711 0.56777 0.0
C2325 C 0.80705 0.40268 0.54718 0.0
C2326 C 0.79702 0.39331 0.5861 0.0
C2327 C 0.80761 0.37492 0.58401 0.0
C2328 C 0.81707 0.37003 0.5629 0.0
C2329 C 0.81673 0.38373 0.54464 0.0
C2330 C 0.81812 0.32774 0.61888 0.0
C2331 C 0.8262 0.33973 0.64212 0.0
C2332 C 0.81042 0.33885 0.60029 0.0
C2333 C 0.81106 0.36221 0.60459 0.0
C2334 C 0.81787 0.37387 0.62828 0.0
C2335 C 0.82529 0.36265 0.64695 0.0
H2336 H 0.40345 0.9814 0.3798 0.0
H2337 H 0.43434 0.0453 0.35817 0.0
H2338 H 0.43384 0.98703 0.41373 0.0
H2339 H 0.46432 0.05055 0.39158 0.0
H2340 H 0.4942 0.06397 0.47238 0.0
H2341 H 0.46441 0.05678 0.43805 0.0
H2342 H 0.47795 0.99072 0.41754 0.0
H2343 H 0.50805 0.99801 0.45198 0.0
C2344 C 0.41664 0.99653 0.38226 0.0
C2345 C 0.41651 0.01289 0.36643 0.0
C2346 C 0.43399 0.99965 0.40146 0.0
C2347 C 0.45118 0.01919 0.40498 0.0
C2348 C 0.45105 0.03546 0.38919 0.0
C2349 C 0.43388 0.03237 0.37009 0.0
C2350 C 0.49089 0.04802 0.4604 0.0
C2351 C 0.50324 0.03154 0.46449 0.0
C2352 C 0.47394 0.04391 0.44089 0.0
C2353 C 0.46903 0.02319 0.42549 0.0
C2354 C 0.48149 1.00673 0.42945 0.0
C2355 C 0.49875 0.01099 0.44879 0.0
H2356 H 0.76481 0.69114 0.09139 0.0
H2357 H 0.79333 0.75893 0.0782 0.0
H2358 H 0.76413 0.70539 0.13368 0.0
H2359 H 0.79303 0.77316 0.12081 0.0
H2360 H 0.77087 0.79377 0.19439 0.0
H2361 H 0.7685 0.77986 0.15119 0.0
H2362 H 0.79049 0.72006 0.16995 0.0
H2363 H 0.79225 0.73357 0.21284 0.0
C2364 C 0.77099 0.70911 0.0975 0.0
C2365 C 0.77922 0.72387 0.08135 0.0
C2366 C 0.77069 0.71727 0.12184 0.0
C2367 C 0.77863 0.74043 0.13075 0.0
C2368 C 0.78656 0.75527 0.11452 0.0
C2369 C 0.78687 0.74709 0.09012 0.0
C2370 C 0.77495 0.77754 0.18927 0.0
C2371 C 0.78166 0.76477 0.20715 0.0
C2372 C 0.7738 0.76966 0.1645 0.0
C2373 C 0.77931 0.74881 0.15703 0.0
C2374 C 0.78583 0.73603 0.17496 0.0
C2375 C 0.787 0.74389 0.19963 0.0
H2376 H 0.07884 0.01095 0.72306 0.0
H2377 H 0.1248 0.07455 0.72213 0.0
H2378 H 0.06233 0.01213 0.68166 0.0
H2379 H 0.10904 0.07529 0.68041 0.0
H2380 H 0.06691 0.07955 0.61043 0.0
H2381 H 0.07871 0.08004 0.65367 0.0
H2382 H 0.06976 1.00699 0.64176 0.0
H2383 H 0.05578 1.00686 0.59915 0.0
C2384 C 0.08542 0.02519 0.71402 0.0
C2385 C 0.10316 0.04261 0.72592 0.0
C2386 C 0.07608 0.0258 0.69015 0.0
C2387 C 0.0844 0.04372 0.67744 0.0
C2388 C 0.1019 0.06137 0.68959 0.0
C2389 C 0.11107 0.06088 0.71355 0.0
C2390 C 0.06702 0.06368 0.61724 0.0
C2391 C 0.06089 0.04321 0.6014 0.0
C2392 C 0.07416 0.0639 0.64198 0.0
C2393 C 0.07552 0.04356 0.65138 0.0
C2394 C 0.06886 0.02302 0.63543 0.0
C2395 C 0.0614 0.0229 0.61084 0.0
H2396 H 0.77592 0.40259 0.44593 0.0
H2397 H 0.84562 0.41363 0.43617 0.0
H2398 H 0.76761 0.36902 0.41576 0.0
H2399 H 0.83704 0.38022 0.40531 0.0
H2400 H 0.81798 0.30978 0.36463 0.0
H2401 H 0.82416 0.33817 0.40068 0.0
H2402 H 0.76713 0.36307 0.3718 0.0
H2403 H 0.76062 0.33446 0.33629 0.0
C2404 C 0.78946 0.39795 0.43721 0.0
C2405 C 0.81143 0.4108 0.44323 0.0
C2406 C 0.78467 0.37871 0.42001 0.0
C2407 C 0.80171 0.37207 0.40839 0.0
C2408 C 0.82369 0.38483 0.4144 0.0
C2409 C 0.82854 0.40408 0.43175 0.0
C2410 C 0.80639 0.32088 0.36644 0.0
C2411 C 0.78889 0.32014 0.34778 0.0
C2412 C 0.81009 0.33724 0.38684 0.0
C2413 C 0.79626 0.35286 0.38876 0.0
C2414 C 0.77793 0.35109 0.3708 0.0
C2415 C 0.77426 0.33482 0.35047 0.0
H2416 H 0.4527 0.01217 0.28147 0.0
H2417 H 0.42024 0.05325 0.23728 0.0
H2418 H 0.4709 1.00018 0.24772 0.0
H2419 H 0.43994 0.0428 0.20366 0.0
H2420 H 0.45339 0.99462 0.14088 0.0
H2421 H 0.43836 0.01164 0.17495 0.0
H2422 H 0.49779 0.00918 0.22298 0.0
H2423 H 0.51207 0.99101 0.18895 0.0
C2424 C 0.45021 0.01931 0.2647 0.0
C2425 C 0.43538 0.03377 0.26185 0.0
C2426 C 0.46069 0.01251 0.24532 0.0
C2427 C 0.457 0.02056 0.2229 0.0
C2428 C 0.44285 0.03593 0.22051 0.0
C2429 C 0.4318 0.04217 0.23975 0.0
C2430 C 0.46314 0.99775 0.15878 0.0
C2431 C 0.48366 0.99122 0.1625 0.0
C2432 C 0.45469 1.00773 0.17829 0.0
C2433 C 0.4668 0.01172 0.20182 0.0
C2434 C 0.48774 1.00586 0.20525 0.0
C2435 C 0.49597 0.99549 0.18581 0.0
H2436 H 0.73825 0.72836 0.95094 0.0
H2437 H 0.79967 0.70453 0.95268 0.0
H2438 H 0.74567 0.74484 0.91417 0.0
H2439 H 0.80728 0.7214 0.916 0.0
H2440 H 0.79988 0.7335 0.83503 0.0
H2441 H 0.79389 0.71686 0.87234 0.0
H2442 H 0.7705 0.77549 0.90083 0.0
H2443 H 0.77595 0.79175 0.86367 0.0
C2444 C 0.75342 0.72675 0.94358 0.0
C2445 C 0.76835 0.71514 0.95484 0.0
C2446 C 0.75775 0.73632 0.92251 0.0
C2447 C 0.77711 0.7345 0.91207 0.0
C2448 C 0.7921 0.72291 0.92336 0.0
C2449 C 0.7878 0.7134 0.94452 0.0
C2450 C 0.79346 0.74279 0.84929 0.0
C2451 C 0.78828 0.76388 0.84623 0.0
C2452 C 0.79015 0.73334 0.87074 0.0
C2453 C 0.78155 0.74476 0.88957 0.0
C2454 C 0.77675 0.76601 0.88659 0.0
C2455 C 0.78005 0.77542 0.86526 0.0
H2456 H 0.8313 0.08592 0.08649 0.0
H2457 H 0.85805 0.14505 0.05406 0.0
H2458 H 0.85863 0.06658 0.07047 0.0
H2459 H 0.88462 0.1255 0.03717 0.0
H2460 H 0.93314 0.08557 0.01217 0.0
H2461 H 0.91552 0.10676 0.04104 0.0
H2462 H 0.85702 0.05182 0.02808 0.0
H2463 H 0.87509 0.03036 1.00005 0.0
C2464 C 0.84354 0.09498 0.07661 0.0
C2465 C 0.84261 0.11678 0.07126 0.0
C2466 C 0.85897 0.0839 0.06728 0.0
C2467 C 0.87331 0.09439 0.05216 0.0
C2468 C 0.87385 0.11707 0.04891 0.0
C2469 C 0.85865 0.12829 0.05859 0.0
C2470 C 0.91653 0.0781 0.01566 0.0
C2471 C 0.90519 0.05657 0.0038 0.0
C2472 C 0.90653 0.09015 0.03215 0.0
C2473 C 0.88505 0.08084 0.03691 0.0
C2474 C 0.87381 0.05922 0.02511 0.0
C2475 C 0.88385 0.04715 0.00869 0.0
H2476 H 0.38786 0.44569 0.09467 0.0
H2477 H 0.36376 0.44023 0.01804 0.0
H2478 H 0.4229 0.46959 0.0886 0.0
H2479 H 0.3991 0.4637 0.01189 0.0
H2480 H 0.45877 0.52352 0.01445 0.0
H2481 H 0.42233 0.50196 0.0206 0.0
H2482 H 0.45502 0.46497 0.06997 0.0
H2483 H 0.49101 0.48678 0.06455 0.0
C2484 C 0.39003 0.44957 0.07652 0.0
C2485 C 0.37304 0.44098 0.05685 0.0
C2486 C 0.41018 0.46318 0.07301 0.0
C2487 C 0.41384 0.46845 0.04972 0.0
C2488 C 0.39672 0.46016 0.03009 0.0
C2489 C 0.37653 0.44657 0.03361 0.0
C2490 C 0.4581 0.51091 0.02676 0.0
C2491 C 0.47778 0.50699 0.03911 0.0
C2492 C 0.43726 0.49845 0.03013 0.0
C2493 C 0.43577 0.48186 0.04592 0.0
C2494 C 0.45551 0.47792 0.05808 0.0
C2495 C 0.47621 0.49035 0.05478 0.0
H2496 H 0.3919 0.56553 0.79799 0.0
H2497 H 0.40305 0.59579 0.73278 0.0
H2498 H 0.37076 0.59337 0.80995 0.0
H2499 H 0.38102 0.62342 0.74443 0.0
H2500 H 0.3645 0.68465 0.79236 0.0
H2501 H 0.38258 0.65598 0.77392 0.0
H2502 H 0.33626 0.60364 0.79986 0.0
H2503 H 0.31905 0.63242 0.81906 0.0
C2504 C 0.38961 0.57798 0.78603 0.0
C2505 C 0.39913 0.57841 0.76439 0.0
C2506 C 0.37728 0.59387 0.79279 0.0
C2507 C 0.37392 0.61047 0.77799 0.0
C2508 C 0.38339 0.61091 0.75629 0.0
C2509 C 0.3959 0.59502 0.74956 0.0
C2510 C 0.35806 0.66694 0.79369 0.0
C2511 C 0.34072 0.66062 0.8074 0.0
C2512 C 0.36832 0.65052 0.7831 0.0
C2513 C 0.36116 0.62756 0.78588 0.0
C2514 C 0.34264 0.62124 0.79803 0.0
C2515 C 0.33266 0.63763 0.80887 0.0
H2516 H 0.21602 0.5709 0.57685 0.0
H2517 H 0.20731 0.62324 0.53275 0.0
H2518 H 0.17722 0.55139 0.56343 0.0
H2519 H 0.1695 0.60278 0.51713 0.0
H2520 H 0.09772 0.58493 0.53256 0.0
H2521 H 0.13709 0.59909 0.53354 0.0
H2522 H 0.14818 0.53094 0.53415 0.0
H2523 H 0.10836 0.51701 0.53481 0.0
C2524 C 0.20578 0.57789 0.56392 0.0
C2525 C 0.21403 0.59871 0.55629 0.0
C2526 C 0.18376 0.56659 0.55585 0.0
C2527 C 0.17013 0.57568 0.53937 0.0
C2528 C 0.17926 0.5957 0.53041 0.0
C2529 C 0.20087 0.6074 0.53927 0.0
C2530 C 0.10848 0.57289 0.53228 0.0
C2531 C 0.10025 0.55001 0.53397 0.0
C2532 C 0.13114 0.58096 0.53267 0.0
C2533 C 0.14591 0.56617 0.53417 0.0
C2534 C 0.1373 0.54284 0.53361 0.0
C2535 C 0.11457 0.53483 0.53378 0.0
H2536 H 0.69262 0.95903 0.71831 0.0
H2537 H 0.75329 1.00702 0.75081 0.0
H2538 H 0.70785 0.92836 0.73352 0.0
H2539 H 0.76812 0.97672 0.76645 0.0
H2540 H 0.79241 0.91937 0.79156 0.0
H2541 H 0.78017 0.94107 0.76058 0.0
H2542 H 0.71262 0.92303 0.77691 0.0
H2543 H 0.72468 0.90033 0.80705 0.0
C2544 C 0.70946 0.96289 0.72796 0.0
C2545 C 0.72164 0.98535 0.7339 0.0
C2546 C 0.71808 0.94541 0.73679 0.0
C2547 C 0.73893 0.95029 0.75147 0.0
C2548 C 0.75204 0.97242 0.75506 0.0
C2549 C 0.74347 0.98982 0.74625 0.0
C2550 C 0.77485 0.9196 0.7881 0.0
C2551 C 0.75945 0.90837 0.80179 0.0
C2552 C 0.7679 0.93204 0.77044 0.0
C2553 C 0.7455 0.93363 0.76635 0.0
C2554 C 0.72995 0.92173 0.77941 0.0
C2555 C 0.73688 0.90915 0.79699 0.0
H2556 H 0.73235 0.92009 0.57674 0.0
H2557 H 0.76555 0.94272 0.517 0.0
H2558 H 0.70463 0.94264 0.56771 0.0
H2559 H 0.73767 0.96457 0.50762 0.0
H2560 H 0.6972 0.01583 0.5049 0.0
H2561 H 0.72557 0.99767 0.52307 0.0
H2562 H 0.67375 0.94295 0.53664 0.0
H2563 H 0.64539 0.96179 0.51917 0.0
C2564 C 0.73376 0.92989 0.56173 0.0
C2565 C 0.75118 0.92969 0.54764 0.0
C2566 C 0.71783 0.94271 0.55652 0.0
C2567 C 0.71907 0.95557 0.53713 0.0
C2568 C 0.73652 0.95531 0.52308 0.0
C2569 C 0.75243 0.94261 0.52833 0.0
C2570 C 0.69199 1.00024 0.51243 0.0
C2571 C 0.66932 0.99002 0.51059 0.0
C2572 C 0.70815 0.98973 0.52258 0.0
C2573 C 0.70191 0.9686 0.53073 0.0
C2574 C 0.6791 0.95923 0.53055 0.0
C2575 C 0.66287 0.96995 0.5206 0.0
H2576 H 0.3889 0.44128 0.71216 0.0
H2577 H 0.39063 0.46558 0.78819 0.0
H2578 H 0.365 0.40544 0.71722 0.0
H2579 H 0.36725 0.42958 0.79338 0.0
H2580 H 0.30787 0.37124 0.78982 0.0
H2581 H 0.32995 0.40737 0.78309 0.0
H2582 H 0.36629 0.372 0.73582 0.0
H2583 H 0.34344 0.33593 0.7415 0.0
C2584 C 0.38421 0.43898 0.72995 0.0
C2585 C 0.39164 0.45632 0.74973 0.0
C2586 C 0.37063 0.41836 0.7329 0.0
C2587 C 0.36416 0.41462 0.7557 0.0
C2588 C 0.37161 0.432 0.77548 0.0
C2589 C 0.38517 0.4526 0.77253 0.0
C2590 C 0.32021 0.37116 0.77755 0.0
C2591 C 0.32363 0.35067 0.76591 0.0
C2592 C 0.33313 0.39189 0.77399 0.0
C2593 C 0.34993 0.39261 0.75892 0.0
C2594 C 0.35327 0.37211 0.74722 0.0
C2595 C 0.34023 0.3514 0.75061 0.0
H2596 H 0.20575 0.62405 0.30005 0.0
H2597 H 0.24718 0.60789 0.24622 0.0
H2598 H 0.22645 0.66334 0.30673 0.0
H2599 H 0.26705 0.64724 0.25183 0.0
H2600 H 0.30664 0.71707 0.27225 0.0
H2601 H 0.29187 0.67783 0.27763 0.0
H2602 H 0.22715 0.69347 0.28336 0.0
H2603 H 0.24214 0.73255 0.279 0.0
C2604 C 0.21936 0.62895 0.28976 0.0
C2605 C 0.22489 0.61317 0.27258 0.0
C2606 C 0.23114 0.65137 0.29351 0.0
C2607 C 0.24828 0.65835 0.27974 0.0
C2608 C 0.25424 0.6423 0.26309 0.0
C2609 C 0.24275 0.61981 0.25971 0.0
C2610 C 0.28941 0.71207 0.27522 0.0
C2611 C 0.27545 0.72759 0.27521 0.0
C2612 C 0.28094 0.6897 0.27817 0.0
C2613 C 0.25834 0.68258 0.28077 0.0
C2614 C 0.24473 0.69849 0.28187 0.0
C2615 C 0.25328 0.72087 0.27925 0.0
H2616 H 0.47516 0.69874 0.49446 0.0
H2617 H 0.53511 0.70875 0.46081 0.0
H2618 H 0.48173 0.66303 0.50558 0.0
H2619 H 0.54146 0.6722 0.47117 0.0
H2620 H 0.5575 0.6125 0.50794 0.0
H2621 H 0.55183 0.6487 0.49744 0.0
H2622 H 0.48086 0.6255 0.49674 0.0
H2623 H 0.48708 0.58974 0.50912 0.0
C2624 C 0.48981 0.69334 0.48924 0.0
C2625 C 0.50453 0.70713 0.47661 0.0
C2626 C 0.49352 0.67237 0.49549 0.0
C2627 C 0.51211 0.66385 0.48931 0.0
C2628 C 0.527 0.67775 0.47673 0.0
C2629 C 0.52331 0.69892 0.47056 0.0
C2630 C 0.54073 0.61519 0.50623 0.0
C2631 C 0.52298 0.59798 0.51034 0.0
C2632 C 0.53732 0.63614 0.49959 0.0
C2633 C 0.5158 0.6409 0.49618 0.0
C2634 C 0.49788 0.62336 0.49968 0.0
C2635 C 0.5014 0.60246 0.50669 0.0
H2636 H 0.66331 0.33908 0.64842 0.0
H2637 H 0.62085 0.28065 0.66864 0.0
H2638 H 0.69438 0.33363 0.67599 0.0
H2639 H 0.65239 0.27406 0.69528 0.0
H2640 H 0.70968 0.27519 0.75511 0.0
H2641 H 0.67753 0.2817 0.72976 0.0
H2642 H 0.72151 0.31494 0.68349 0.0
H2643 H 0.75346 0.31051 0.71024 0.0
C2644 C 0.66062 0.32488 0.65866 0.0
C2645 C 0.63942 0.31037 0.65618 0.0
C2646 C 0.67869 0.3215 0.67444 0.0
C2647 C 0.67649 0.30311 0.68803 0.0
C2648 C 0.6551 0.28863 0.68563 0.0
C2649 C 0.63686 0.29232 0.67014 0.0
C2650 C 0.71256 0.28445 0.73993 0.0
C2651 C 0.73447 0.29274 0.73533 0.0
C2652 C 0.6939 0.28783 0.7249 0.0
C2653 C 0.69642 0.29916 0.7043 0.0
C2654 C 0.71841 0.30683 0.69941 0.0
C2655 C 0.737 0.30398 0.71475 0.0
H2656 H 0.04477 0.34941 0.98549 0.0
H2657 H 0.97674 0.3493 0.95784 0.0
H2658 H 0.05127 0.39029 0.99993 0.0
H2659 H 0.98302 0.38971 0.97206 0.0
H2660 H 0.99499 0.46054 0.01453 0.0
H2661 H 0.98901 0.4195 0.0049 0.0
H2662 H 0.05558 0.42688 0.98586 0.0
H2663 H 0.06162 0.46789 0.99608 0.0
C2664 C 0.03103 0.35792 0.983 0.0
C2665 C 1.01011 0.34577 0.97071 0.0
C2666 C 0.03482 0.38156 0.99098 0.0
C2667 C 0.01772 0.39377 0.98725 0.0
C2668 C 0.99666 0.38127 0.97569 0.0
C2669 C 0.99302 0.35789 0.96743 0.0
C2670 C 1.00841 0.45356 0.00848 0.0
C2671 C 0.02877 0.46806 0.00632 0.0
C2672 C 1.00495 0.42976 0.00271 0.0
C2673 C 0.02178 0.41936 0.99449 0.0
C2674 C 0.04222 0.43385 0.99244 0.0
C2675 C 0.04562 0.45764 0.99818 0.0
H2676 H 0.98201 0.77156 0.11407 0.0
H2677 H 0.02961 0.80975 0.17438 0.0
H2678 H 0.95249 0.76952 0.13943 0.0
H2679 H 0.99978 0.80855 0.19972 0.0
H2680 H 0.94604 0.77441 0.24391 0.0
H2681 H 0.97646 0.78425 0.22028 0.0
H2682 H 0.92879 0.78884 0.15903 0.0
H2683 H 0.89834 0.77809 0.18277 0.0
C2684 C 0.98616 0.77977 0.13273 0.0
C2685 C 1.00826 0.79081 0.14213 0.0
C2686 C 0.96909 0.77882 0.14729 0.0
C2687 C 0.97349 0.7891 0.17171 0.0
C2688 C 0.99565 0.80025 0.18111 0.0
C2689 C 0.01282 0.801 0.16655 0.0
C2690 C 0.94221 0.77833 0.22566 0.0
C2691 C 0.91989 0.77567 0.21522 0.0
C2692 C 0.95966 0.78391 0.212 0.0
C2693 C 0.95524 0.78697 0.18745 0.0
C2694 C 0.93291 0.78608 0.17766 0.0
C2695 C 0.91542 0.78039 0.19137 0.0
H2696 H 0.57301 0.30914 0.14354 0.0
H2697 H 0.51159 0.31741 0.16965 0.0
H2698 H 0.57386 0.3429 0.12343 0.0
H2699 H 0.51252 0.3513 0.14956 0.0
H2700 H 0.54454 0.42706 0.14365 0.0
H2701 H 0.53732 0.38992 0.15748 0.0
H2702 H 0.55433 0.35983 0.09041 0.0
H2703 H 0.56163 0.39724 0.07657 0.0
C2704 C 0.55956 0.31803 0.14479 0.0
C2705 C 0.54233 0.31066 0.15838 0.0
C2706 C 0.55996 0.3373 0.13309 0.0
C2707 C 0.5433 0.34986 0.13495 0.0
C2708 C 0.52569 0.3421 0.14793 0.0
C2709 C 0.52512 0.32262 0.15935 0.0
C2710 C 0.54653 0.41247 0.13176 0.0
C2711 C 0.55389 0.4151 0.10915 0.0
C2712 C 0.54222 0.39115 0.13959 0.0
C2713 C 0.54536 0.37191 0.12512 0.0
C2714 C 0.55195 0.37437 0.10208 0.0
C2715 C 0.55599 0.39573 0.09409 0.0
H2716 H 0.96785 0.30048 0.37376 0.0
H2717 H 0.98131 0.30989 0.30121 0.0
H2718 H 0.92895 0.29925 0.36198 0.0
H2719 H 0.94131 0.30716 0.28849 0.0
H2720 H 0.86773 0.31288 0.27344 0.0
H2721 H 0.90779 0.31758 0.28475 0.0
H2722 H 0.89523 0.28105 0.34564 0.0
H2723 H 0.85578 0.27917 0.3359 0.0
C2724 C 0.96247 0.30201 0.35499 0.0
C2725 C 0.97815 0.30508 0.33851 0.0
C2726 C 0.93965 0.30099 0.34799 0.0
C2727 C 0.93094 0.30241 0.32385 0.0
C2728 C 0.94676 0.30599 0.3073 0.0
C2729 C 0.96995 0.30749 0.31455 0.0
C2730 C 0.87352 0.30643 0.28965 0.0
C2731 C 0.858 0.29587 0.30381 0.0
C2732 C 0.89683 0.30873 0.296 0.0
C2733 C 0.90572 0.3 0.3165 0.0
C2734 C 0.88995 0.28888 0.3302 0.0
C2735 C 0.86681 0.28726 0.32426 0.0
H2736 H 0.02701 0.68214 0.6777 0.0
H2737 H 0.0224 0.71147 0.61095 0.0
H2738 H 0.02882 0.64591 0.65457 0.0
H2739 H 0.02471 0.6759 0.58814 0.0
H2740 H 1.00979 0.60433 0.54866 0.0
H2741 H 1.0057 0.63866 0.57315 0.0
H2742 H 0.0519 0.62656 0.63179 0.0
H2743 H 0.05602 0.59231 0.60693 0.0
C2744 C 0.02623 0.68088 0.65813 0.0
C2745 C 0.02442 0.69988 0.64632 0.0
C2746 C 0.02748 0.6601 0.64481 0.0
C2747 C 0.02683 0.65767 0.61926 0.0
C2748 C 0.02485 0.6767 0.6076 0.0
C2749 C 0.02367 0.69734 0.62084 0.0
C2750 C 0.01918 0.60908 0.56672 0.0
C2751 C 0.03312 0.59541 0.57582 0.0
C2752 C 0.01685 0.62884 0.58089 0.0
C2753 C 0.0285 0.63572 0.60466 0.0
C2754 C 0.0423 0.62182 0.61384 0.0
C2755 C 0.0446 0.60201 0.59959 0.0
H2756 H 0.62241 0.84017 0.82078 0.0
H2757 H 0.62399 0.7781 0.85073 0.0
H2758 H 0.65891 0.83944 0.80702 0.0
H2759 H 0.65987 0.77768 0.83814 0.0
H2760 H 0.71609 0.76739 0.79914 0.0
H2761 H 0.67981 0.77027 0.8085 0.0
H2762 H 0.69896 0.8432 0.81416 0.0
H2763 H 0.7355 0.83978 0.80219 0.0
C2764 C 0.63029 0.82626 0.82429 0.0
C2765 C 0.61967 0.80911 0.83688 0.0
C2766 C 0.65154 0.82593 0.81659 0.0
C2767 C 0.66295 0.80834 0.82097 0.0
C2768 C 0.65206 0.79134 0.83351 0.0
C2769 C 0.63114 0.7917 0.84111 0.0
C2770 C 0.71267 0.78407 0.80149 0.0
C2771 C 0.72914 0.8031 0.79889 0.0
C2772 C 0.69158 0.78588 0.80769 0.0
C2773 C 0.68572 0.80706 0.81268 0.0
C2774 C 0.70223 0.82642 0.81033 0.0
C2775 C 0.72347 0.82448 0.80355 0.0
H2776 H 0.45626 0.55032 0.69942 0.0
H2777 H 0.47927 0.48769 0.69792 0.0
H2778 H 0.47026 0.55643 0.66098 0.0
H2779 H 0.49257 0.49337 0.65934 0.0
H2780 H 0.53584 0.52047 0.60537 0.0
H2781 H 0.52144 0.51626 0.64344 0.0
H2782 H 0.46495 0.54347 0.6178 0.0
H2783 H 0.48014 0.54872 0.57964 0.0
C2784 C 0.46422 0.53781 0.69086 0.0
C2785 C 0.4668 0.51859 0.70191 0.0
C2786 C 0.47211 0.54123 0.66869 0.0
C2787 C 0.48271 0.52549 0.657 0.0
C2788 C 0.48494 0.50614 0.66796 0.0
C2789 C 0.47718 0.50278 0.69011 0.0
C2790 C 0.52045 0.52583 0.60782 0.0
C2791 C 0.5092 0.53507 0.58937 0.0
C2792 C 0.51201 0.52313 0.62967 0.0
C2793 C 0.49186 0.52927 0.63376 0.0
C2794 C 0.48061 0.5387 0.61541 0.0
C2795 C 0.48921 0.54158 0.59346 0.0
H2796 H 0.75631 0.1209 0.96626 0.0
H2797 H 0.80102 0.1768 0.01344 0.0
H2798 H 0.74967 0.14623 0.93684 0.0
H2799 H 0.79517 0.20202 0.98354 0.0
H2800 H 0.75422 0.2445 0.9425 0.0
H2801 H 0.76579 0.21929 0.96984 0.0
H2802 H 0.76412 0.16885 0.90822 0.0
H2803 H 0.75081 0.19325 0.88109 0.0
C2804 C 0.76521 0.13847 0.97001 0.0
C2805 C 0.7791 0.14693 0.99214 0.0
C2806 C 0.76146 0.15301 0.95313 0.0
C2807 C 0.77176 0.17621 0.95793 0.0
C2808 C 0.78661 0.18435 0.97952 0.0
C2809 C 0.79013 0.16987 0.99654 0.0
C2810 C 0.75604 0.22792 0.93482 0.0
C2811 C 0.75136 0.22084 0.90963 0.0
C2812 C 0.76309 0.21361 0.95045 0.0
C2813 C 0.76588 0.19202 0.9412 0.0
C2814 C 0.76182 0.18522 0.91597 0.0
C2815 C 0.75446 0.19937 0.90038 0.0
H2816 H 0.17138 0.54872 0.17437 0.0
H2817 H 0.11611 0.55474 0.21398 0.0
H2818 H 0.14777 0.54804 0.13639 0.0
H2819 H 0.0923 0.55354 0.17567 0.0
H2820 H 0.06347 0.57164 0.10329 0.0
H2821 H 0.08838 0.57618 0.14146 0.0
H2822 H 0.11566 0.52 0.11332 0.0
H2823 H 0.09101 0.51558 0.07514 0.0
C2824 C 0.15419 0.54993 0.17496 0.0
C2825 C 0.14546 0.55166 0.19706 0.0
C2826 C 0.14071 0.54946 0.15323 0.0
C2827 C 0.1183 0.55059 0.15326 0.0
C2828 C 0.10966 0.55286 0.17534 0.0
C2829 C 0.1232 0.55342 0.19716 0.0
C2830 C 0.07476 0.56024 0.10535 0.0
C2831 C 0.07527 0.54312 0.0865 0.0
C2832 C 0.08893 0.56284 0.12711 0.0
C2833 C 0.10377 0.5484 0.13017 0.0
C2834 C 0.10447 0.53149 0.11119 0.0
C2835 C 0.09033 0.52889 0.08946 0.0
H2836 H 0.77709 0.85498 0.47152 0.0
H2837 H 0.84815 0.86054 0.4738 0.0
H2838 H 0.77124 0.83716 0.4291 0.0
H2839 H 0.84227 0.8428 0.43159 0.0
H2840 H 0.8203 0.79017 0.36279 0.0
H2841 H 0.82476 0.80528 0.40574 0.0
H2842 H 0.78041 0.84971 0.38908 0.0
H2843 H 0.77659 0.83525 0.34597 0.0
C2844 C 0.79143 0.85221 0.4631 0.0
C2845 C 0.81309 0.85915 0.47613 0.0
C2846 C 0.78809 0.84214 0.43875 0.0
C2847 C 0.8063 0.83857 0.42698 0.0
C2848 C 0.82787 0.84507 0.44019 0.0
C2849 C 0.83123 0.85532 0.4644 0.0
C2850 C 0.81179 0.8034 0.36811 0.0
C2851 C 0.79863 0.8119 0.35067 0.0
C2852 C 0.81422 0.81197 0.39283 0.0
C2853 C 0.80303 0.82879 0.40083 0.0
C2854 C 0.7892 0.83671 0.38353 0.0
C2855 C 0.78715 0.82849 0.35877 0.0
H2856 H 0.47371 0.48104 0.8334 0.0
H2857 H 0.475 0.55276 0.83866 0.0
H2858 H 0.49062 0.48611 0.87571 0.0
H2859 H 0.49155 0.55778 0.88129 0.0
H2860 H 0.53939 0.56095 0.9519 0.0
H2861 H 0.52479 0.55685 0.90873 0.0
H2862 H 0.47994 0.49406 0.91537 0.0
H2863 H 0.49434 0.49837 0.95837 0.0
C2864 C 0.4777 0.49794 0.84354 0.0
C2865 C 0.47297 0.51648 0.83257 0.0
C2866 C 0.48725 0.50082 0.86791 0.0
C2867 C 0.49229 0.52232 0.88205 0.0
C2868 C 0.48809 0.54101 0.87092 0.0
C2869 C 0.47854 0.53812 0.84646 0.0
C2870 C 0.5264 0.54627 0.94411 0.0
C2871 C 0.51834 0.52971 0.95851 0.0
C2872 C 0.51798 0.54396 0.91937 0.0
C2873 C 0.50132 0.52501 0.90842 0.0
C2874 C 0.49312 0.50861 0.92297 0.0
C2875 C 0.50144 0.51102 0.94768 0.0
H2876 H 0.77425 0.2109 0.09184 0.0
H2877 H 0.77053 0.15428 0.13295 0.0
H2878 H 0.77498 0.23624 0.12918 0.0
H2879 H 0.77081 0.17947 0.16992 0.0
H2880 H 0.80499 0.23512 0.23151 0.0
H2881 H 0.8005 0.21006 0.19364 0.0
H2882 H 0.75145 0.24397 0.16185 0.0
H2883 H 0.75602 0.26945 0.20007 0.0
C2884 C 0.77329 0.20386 0.10875 0.0
C2885 C 0.77253 0.18073 0.1096 0.0
C2886 C 0.77359 0.21829 0.13001 0.0
C2887 C 0.77308 0.20971 0.15227 0.0
C2888 C 0.77154 0.18647 0.15295 0.0
C2889 C 0.77133 0.1721 0.1318 0.0
C2890 C 0.79314 0.23722 0.21654 0.0
C2891 C 0.78076 0.25414 0.21868 0.0
C2892 C 0.79053 0.22281 0.19491 0.0
C2893 C 0.77551 0.22506 0.17503 0.0
C2894 C 0.76321 0.24206 0.177 0.0
C2895 C 0.76579 0.25653 0.19877 0.0
H2896 H 0.14602 0.52185 0.29439 0.0
H2897 H 0.20026 0.56782 0.34216 0.0
H2898 H 0.12081 0.5272 0.3239 0.0
H2899 H 0.17494 0.57404 0.37115 0.0
H2900 H 0.1285 0.57288 0.42602 0.0
H2901 H 0.15271 0.55924 0.39946 0.0
H2902 H 0.10313 0.55635 0.33724 0.0
H2903 H 0.07802 0.56796 0.36407 0.0
C2904 C 0.15258 0.53291 0.31134 0.0
C2905 C 0.17506 0.54442 0.31604 0.0
C2906 C 0.13811 0.53614 0.32813 0.0
C2907 C 0.14579 0.55122 0.34977 0.0
C2908 C 0.16852 0.56203 0.35484 0.0
C2909 C 0.18306 0.55854 0.3382 0.0
C2910 C 0.12247 0.56878 0.40675 0.0
C2911 C 0.10128 0.57159 0.39718 0.0
C2912 C 0.13654 0.56127 0.39147 0.0
C2913 C 0.12997 0.55688 0.36621 0.0
C2914 C 0.10864 0.5593 0.35665 0.0
C2915 C 0.09438 0.56639 0.372 0.0
H2916 H 0.78115 0.875 0.61135 0.0
H2917 H 0.83819 0.84424 0.60888 0.0
H2918 H 0.77492 0.86077 0.64972 0.0
H2919 H 0.83264 0.83087 0.64752 0.0
H2920 H 0.80581 0.78966 0.70329 0.0
H2921 H 0.80988 0.80399 0.66506 0.0
H2922 H 0.78756 0.86389 0.69191 0.0
H2923 H 0.78202 0.84859 0.73003 0.0
C2924 C 0.79244 0.86529 0.61904 0.0
C2925 C 0.81009 0.86062 0.60687 0.0
C2926 C 0.78897 0.85726 0.64121 0.0
C2927 C 0.80315 0.84447 0.65187 0.0
C2928 C 0.82098 0.84016 0.63976 0.0
C2929 C 0.82431 0.84799 0.61757 0.0
C2930 C 0.80148 0.8058 0.70108 0.0
C2931 C 0.79346 0.81791 0.71986 0.0
C2932 C 0.80413 0.81421 0.6791 0.0
C2933 C 0.79935 0.83532 0.67525 0.0
C2934 C 0.79123 0.84747 0.694 0.0
C2935 C 0.78821 0.83881 0.71598 0.0
H2936 H 0.77257 0.50975 0.52149 0.0
H2937 H 0.72827 0.46231 0.46451 0.0
H2938 H 0.74082 0.51888 0.53866 0.0
H2939 H 0.69619 0.47229 0.48123 0.0
H2940 H 0.65137 0.46669 0.54199 0.0
H2941 H 0.68179 0.4625 0.51867 0.0
H2942 H 0.70876 0.53482 0.53462 0.0
H2943 H 0.67963 0.53864 0.55936 0.0
C2944 C 0.756 0.50193 0.51209 0.0
C2945 C 0.75277 0.48504 0.49198 0.0
C2946 C 0.73779 0.50721 0.52189 0.0
C2947 C 0.71611 0.49594 0.51147 0.0
C2948 C 0.71284 0.4808 0.48984 0.0
C2949 C 0.73114 0.47536 0.48009 0.0
C2950 C 0.66418 0.48149 0.54097 0.0
C2951 C 0.66335 0.5029 0.55254 0.0
C2952 C 0.68119 0.47924 0.52716 0.0
C2953 C 0.69735 0.49843 0.52461 0.0
C2954 C 0.69655 0.51977 0.53638 0.0
C2955 C 0.67991 0.52192 0.55052 0.0
H2956 H 0.21696 0.11445 0.50844 0.0
H2957 H 0.18491 0.17027 0.52466 0.0
H2958 H 0.1816 0.08759 0.50857 0.0
H2959 H 0.14985 0.14353 0.52484 0.0
H2960 H 0.08625 0.09148 0.49741 0.0
H2961 H 0.12206 0.11556 0.4946 0.0
H2962 H 0.15543 0.07542 0.53927 0.0
H2963 H 0.11933 0.05123 0.54247 0.0
C2964 C 0.20237 0.12099 0.51188 0.0
C2965 C 0.2037 0.14451 0.51646 0.0
C2966 C 0.18222 0.10561 0.51212 0.0
C2967 C 0.163 0.11349 0.51664 0.0
C2968 C 0.16433 0.13697 0.52101 0.0
C2969 C 0.18445 0.15229 0.521 0.0
C2970 C 0.10117 0.08758 0.50654 0.0
C2971 C 0.09987 0.06944 0.52029 0.0
C2972 C 0.1217 0.10148 0.50497 0.0
C2973 C 0.1415 0.09748 0.51687 0.0
C2974 C 0.1404 0.07881 0.52981 0.0
C2975 C 0.11974 0.06497 0.53163 0.0
H2976 H 0.17955 1.00415 0.75913 0.0
H2977 H 0.18721 0.99493 0.83503 0.0
H2978 H 0.19618 0.97189 0.74935 0.0
H2979 H 0.20441 0.96287 0.82524 0.0
H2980 H 0.20599 0.89001 0.79079 0.0
H2981 H 0.19308 0.92431 0.80409 0.0
H2982 H 0.23142 0.96018 0.75474 0.0
H2983 H 0.24376 0.92561 0.74121 0.0
C2984 C 0.18496 0.99535 0.77377 0.0
C2985 C 0.18203 1.00206 0.79786 0.0
C2986 C 0.19466 0.97698 0.76818 0.0
C2987 C 0.20171 0.96494 0.78656 0.0
C2988 C 0.19897 0.97174 0.81069 0.0
C2989 C 0.18922 0.99015 0.81629 0.0
C2990 C 0.2117 0.90538 0.78308 0.0
C2991 C 0.22554 0.90546 0.76495 0.0
C2992 C 0.20449 0.92499 0.79072 0.0
C2993 C 0.21109 0.94486 0.78028 0.0
C2994 C 0.22575 0.94501 0.76278 0.0
C2995 C 0.23291 0.92539 0.75515 0.0
H2996 H 0.3689 1.00697 0.01769 0.0
H2997 H 0.38324 0.95126 0.05416 0.0
H2998 H 0.40856 0.0232 0.02137 0.0
H2999 H 0.42308 0.96786 0.05823 0.0
H3000 H 0.48652 0.98747 0.01862 0.0
H3001 H 0.44891 0.97231 0.02731 0.0
H3002 H 0.44191 0.04049 0.05089 0.0
H3003 H 0.47932 0.05546 0.04152 0.0
C3004 C 0.38051 0.99844 0.02691 0.0
C3005 C 0.37306 0.97784 0.03555 0.0
C3006 C 0.40319 1.00782 0.02921 0.0
C3007 C 0.41875 0.99678 0.04023 0.0
C3008 C 0.41131 0.9766 0.04964 0.0
C3009 C 0.38858 0.96721 0.04738 0.0
C3010 C 0.47701 0.99899 0.02626 0.0
C3011 C 0.48529 0.02242 0.02952 0.0
C3012 C 0.45567 0.99041 0.03133 0.0
C3013 C 0.44259 1.00533 0.03963 0.0
C3014 C 0.45164 0.02875 0.04426 0.0
C3015 C 0.47288 0.03727 0.03899 0.0
H3016 H 0.83274 0.56743 0.81284 0.0
H3017 H 0.89681 0.61065 0.84301 0.0
H3018 H 0.81954 0.59979 0.80083 0.0
H3019 H 0.88314 0.64364 0.83186 0.0
H3020 H 0.86529 0.67799 0.7633 0.0
H3021 H 0.87712 0.65295 0.79089 0.0
H3022 H 0.8099 0.63505 0.8083 0.0
H3023 H 0.79764 0.65776 0.77894 0.0
C3024 C 0.84369 0.58406 0.8178 0.0
C3025 C 0.86595 0.58657 0.82819 0.0
C3026 C 0.83607 0.6027 0.81109 0.0
C3027 C 0.85052 0.6242 0.81501 0.0
C3028 C 0.87189 0.62712 0.82819 0.0
C3029 C 0.87961 0.60832 0.83478 0.0
C3030 C 0.85306 0.66847 0.77283 0.0
C3031 C 0.83057 0.66972 0.76878 0.0
C3032 C 0.85991 0.65463 0.78911 0.0
C3033 C 0.8444 0.64216 0.80183 0.0
C3034 C 0.82217 0.64433 0.79862 0.0
C3035 C 0.81522 0.65751 0.78188 0.0
H3036 H 0.81186 0.62381 0.00507 0.0
H3037 H 0.8597 0.68239 0.04391 0.0
H3038 H 0.83979 0.60095 0.00925 0.0
H3039 H 0.88743 0.65929 0.04894 0.0
H3040 H 0.9374 0.61544 0.04408 0.0
H3041 H 0.91114 0.63788 0.03001 0.0
H3042 H 0.85628 0.5856 0.04213 0.0
H3043 H 0.88236 0.56273 0.05479 0.0
C3044 C 0.82837 0.63181 0.01448 0.0
C3045 C 0.83355 0.65483 0.02442 0.0
C3046 C 0.84435 0.61869 0.01693 0.0
C3047 C 0.86575 0.62823 0.02965 0.0
C3048 C 0.87117 0.65147 0.0388 0.0
C3049 C 0.85523 0.66468 0.03611 0.0
C3050 C 0.91969 0.60857 0.04326 0.0
C3051 C 0.91189 0.58745 0.05087 0.0
C3052 C 0.90468 0.62152 0.03544 0.0
C3053 C 0.88165 0.61363 0.03517 0.0
C3054 C 0.87389 0.59212 0.04189 0.0
C3055 C 0.88885 0.57915 0.04955 0.0
H3056 H 0.21148 0.10983 0.80044 0.0
H3057 H 0.15797 0.14595 0.79467 0.0
H3058 H 0.2386 0.14527 0.80054 0.0
H3059 H 0.18495 0.18111 0.79453 0.0
H3060 H 0.23954 0.24352 0.8179 0.0
H3061 H 0.21528 0.2077 0.82186 0.0
H3062 H 0.24872 0.17249 0.77112 0.0
H3063 H 0.27316 0.20845 0.76709 0.0
C3064 C 0.20553 0.12534 0.79939 0.0
C3065 C 0.18259 0.12513 0.79756 0.0
C3066 C 0.22103 0.14555 0.79927 0.0
C3067 C 0.21388 0.16592 0.79757 0.0
C3068 C 0.19099 0.16572 0.79617 0.0
C3069 C 0.17552 0.14555 0.79612 0.0
C3070 C 0.24191 0.22814 0.80773 0.0
C3071 C 0.25829 0.22884 0.79216 0.0
C3072 C 0.22793 0.20763 0.80994 0.0
C3073 C 0.23003 0.18733 0.7967 0.0
C3074 C 0.24688 0.18786 0.78174 0.0
C3075 C 0.26085 0.20846 0.77942 0.0
H3076 H 0.38968 0.94319 0.2623 0.0
H3077 H 0.33177 0.96104 0.28947 0.0
H3078 H 0.37104 0.90315 0.25677 0.0
H3079 H 0.31364 0.92137 0.28476 0.0
H3080 H 0.27929 0.8508 0.26573 0.0
H3081 H 0.29728 0.88789 0.25631 0.0
H3082 H 0.36159 0.87667 0.28538 0.0
H3083 H 0.34347 0.83932 0.29377 0.0
C3084 C 0.37293 0.93857 0.26683 0.0
C3085 C 0.36217 0.95514 0.27635 0.0
C3086 C 0.36231 0.91573 0.26372 0.0
C3087 C 0.34089 0.90922 0.2702 0.0
C3088 C 0.32994 0.9259 0.27903 0.0
C3089 C 0.34043 0.94864 0.28196 0.0
C3090 C 0.29732 0.85625 0.26944 0.0
C3091 C 0.31022 0.84278 0.28046 0.0
C3092 C 0.30757 0.87732 0.26416 0.0
C3093 C 0.33076 0.88521 0.2704 0.0
C3094 C 0.34373 0.87092 0.28011 0.0
C3095 C 0.33345 0.84971 0.28509 0.0
H3096 H 0.57824 0.36278 0.54016 0.0
H3097 H 0.55528 0.37406 0.60954 0.0
H3098 H 0.57108 0.39885 0.53053 0.0
H3099 H 0.5476 0.41041 0.59967 0.0
H3100 H 0.55487 0.48502 0.58322 0.0
H3101 H 0.56132 0.44879 0.59415 0.0
H3102 H 0.54493 0.41965 0.51859 0.0
H3103 H 0.53972 0.45621 0.50772 0.0
C3104 C 0.57154 0.37287 0.55348 0.0
C3105 C 0.56744 0.36503 0.57576 0.0
C3106 C 0.56719 0.39378 0.54778 0.0
C3107 C 0.55846 0.40806 0.56404 0.0
C3108 C 0.55447 0.40034 0.58651 0.0
C3109 C 0.55882 0.37925 0.59223 0.0
C3110 C 0.55276 0.47094 0.56885 0.0
C3111 C 0.54668 0.47392 0.54444 0.0
C3112 C 0.55625 0.44986 0.57521 0.0
C3113 C 0.55384 0.43071 0.55744 0.0
C3114 C 0.54744 0.43371 0.53304 0.0
C3115 C 0.54404 0.45481 0.52671 0.0
H3116 H 0.41974 0.73185 0.40316 0.0
H3117 H 0.45933 0.79572 0.39122 0.0
H3118 H 0.38865 0.73745 0.37565 0.0
H3119 H 0.4277 0.80202 0.3644 0.0
H3120 H 0.37208 0.79949 0.30166 0.0
H3121 H 0.40437 0.79357 0.32746 0.0
H3122 H 0.36031 0.75608 0.37075 0.0
H3123 H 0.32831 0.76037 0.34385 0.0
C3124 C 0.4218 0.74724 0.39478 0.0
C3125 C 0.44219 0.76329 0.39956 0.0
C3126 C 0.40374 0.75062 0.37904 0.0
C3127 C 0.4052 0.77038 0.36769 0.0
C3128 C 0.42573 0.78643 0.37237 0.0
C3129 C 0.44395 0.78289 0.38797 0.0
C3130 C 0.36925 0.78952 0.31633 0.0
C3131 C 0.34735 0.78006 0.32016 0.0
C3132 C 0.38791 0.78644 0.33153 0.0
C3133 C 0.38533 0.77409 0.35137 0.0
C3134 C 0.36336 0.76511 0.35542 0.0
C3135 C 0.34479 0.76782 0.34 0.0
H3136 H 0.08181 0.72815 0.10122 0.0
H3137 H 0.03206 0.72391 0.03915 0.0
H3138 H 0.08077 0.68752 0.09129 0.0
H3139 H 0.03151 0.68398 0.02881 0.0
H3140 H 0.01625 0.60802 0.02709 0.0
H3141 H 0.01898 0.64828 0.03857 0.0
H3142 H 0.08874 0.65664 0.06634 0.0
H3143 H 0.0855 0.61578 0.05587 0.0
C3144 C 0.07079 0.7187 0.08533 0.0
C3145 C 0.05694 0.72965 0.07115 0.0
C3146 C 0.07023 0.69523 0.07951 0.0
C3147 C 0.05581 0.68185 0.05928 0.0
C3148 C 0.04244 0.6931 0.0449 0.0
C3149 C 0.04291 0.71636 0.05076 0.0
C3150 C 0.03225 0.61834 0.03562 0.0
C3151 C 0.05076 0.60835 0.04 0.0
C3152 C 0.03391 0.64175 0.0421 0.0
C3153 C 0.05422 0.6564 0.05315 0.0
C3154 C 0.07272 0.64631 0.05796 0.0
C3155 C 0.07097 0.62273 0.0516 0.0
H3156 H 0.08085 0.24167 0.90952 0.0
H3157 H 0.06236 0.30537 0.90026 0.0
H3158 H 0.1126 0.25214 0.88792 0.0
H3159 H 0.09363 0.31555 0.87785 0.0
H3160 H 0.16093 0.33762 0.8549 0.0
H3161 H 0.13254 0.32693 0.88102 0.0
H3162 H 0.123 0.25677 0.84945 0.0
H3163 H 0.15226 0.26762 0.82433 0.0
C3164 C 0.08348 0.2579 0.90278 0.0
C3165 C 0.069 0.27267 0.9067 0.0
C3166 C 0.10168 0.26386 0.89021 0.0
C3167 C 0.10589 0.28476 0.88108 0.0
C3168 C 0.09131 0.2995 0.88496 0.0
C3169 C 0.07316 0.29357 0.89764 0.0
C3170 C 0.15301 0.31988 0.85401 0.0
C3171 C 0.15872 0.30341 0.83773 0.0
C3172 C 0.13653 0.31374 0.86872 0.0
C3173 C 0.12505 0.29099 0.86716 0.0
C3174 C 0.13151 0.27441 0.85143 0.0
C3175 C 0.14827 0.28057 0.83698 0.0
H3176 H 0.53818 0.78528 0.94596 0.0
H3177 H 0.55198 0.74988 0.87998 0.0
H3178 H 0.53332 0.75029 0.964 0.0
H3179 H 0.54773 0.71488 0.8983 0.0
H3180 H 0.507 0.65288 0.92736 0.0
H3181 H 0.5193 0.68716 0.90939 0.0
H3182 H 0.55035 0.72224 0.98037 0.0
H3183 H 0.53741 0.68772 0.99831 0.0
C3184 C 0.54043 0.77008 0.93534 0.0
C3185 C 0.54538 0.77048 0.91141 0.0
C3186 C 0.53784 0.74996 0.94583 0.0
C3187 C 0.54019 0.72958 0.93275 0.0
C3188 C 0.54553 0.73009 0.90892 0.0
C3189 C 0.54805 0.75023 0.89839 0.0
C3190 C 0.51701 0.66777 0.93898 0.0
C3191 C 0.52132 0.66764 0.96419 0.0
C3192 C 0.5241 0.6875 0.92869 0.0
C3193 C 0.53563 0.70775 0.94338 0.0
C3194 C 0.54116 0.70715 0.96849 0.0
C3195 C 0.53409 0.68729 0.97878 0.0
H3196 H 0.10463 0.7944 0.73394 0.0
H3197 H 0.10184 0.72262 0.72952 0.0
H3198 H 0.14527 0.80193 0.74691 0.0
H3199 H 0.14189 0.73 0.74243 0.0
H3200 H 0.21224 0.75026 0.78642 0.0
H3201 H 0.1719 0.74419 0.77589 0.0
H3202 H 0.18091 0.79841 0.73192 0.0
H3203 H 0.22132 0.8036 0.74167 0.0
C3204 C 0.1125 0.78022 0.73608 0.0
C3205 C 0.09955 0.75785 0.73073 0.0
C3206 C 0.13598 0.78451 0.7433 0.0
C3207 C 0.14732 0.76662 0.74587 0.0
C3208 C 0.13415 0.74437 0.74107 0.0
C3209 C 0.11093 0.74011 0.73351 0.0
C3210 C 0.20585 0.76072 0.77425 0.0
C3211 C 0.22069 0.77733 0.76482 0.0
C3212 C 0.18241 0.7573 0.76821 0.0
C3213 C 0.17262 0.77077 0.75293 0.0
C3214 C 0.18742 0.78772 0.7439 0.0
C3215 C 0.21086 0.79071 0.7495 0.0
H3216 H 0.07741 0.39081 0.40753 0.0
H3217 H 1.00852 0.36763 0.41701 0.0
H3218 H 0.07901 0.42608 0.43455 0.0
H3219 H 1.00989 0.40253 0.44302 0.0
H3220 H 0.02206 0.45654 0.5074 0.0
H3221 H 0.02373 0.42207 0.48193 0.0
H3222 H 0.06647 0.46139 0.43891 0.0
H3223 H 0.06563 0.49604 0.46528 0.0
C3224 C 0.06264 0.39317 0.41531 0.0
C3225 C 0.04289 0.37616 0.41007 0.0
C3226 C 0.06348 0.4135 0.43071 0.0
C3227 C 0.04462 0.41729 0.44132 0.0
C3228 C 0.02495 0.40025 0.43583 0.0
C3229 C 0.02413 0.38012 0.42061 0.0
C3230 C 0.03201 0.45797 0.49268 0.0
C3231 C 0.04366 0.47931 0.48854 0.0
C3232 C 0.0328 0.43806 0.4778 0.0
C3233 C 0.04506 0.43871 0.458 0.0
C3234 C 0.05699 0.46003 0.45401 0.0
C3235 C 0.05632 0.48 0.46907 0.0
H3236 H 0.4717 0.26849 0.26058 0.0
H3237 H 0.43763 0.26009 0.18734 0.0
H3238 H 0.43691 0.27319 0.27621 0.0
H3239 H 0.40388 0.26549 0.20244 0.0
H3240 H 0.3382 0.25767 0.23045 0.0
H3241 H 0.37311 0.2516 0.21835 0.0
H3242 H 0.40893 0.29334 0.28414 0.0
H3243 H 0.37332 0.2977 0.29716 0.0
C3244 C 0.45692 0.26757 0.24774 0.0
C3245 C 0.45792 0.26368 0.2225 0.0
C3246 C 0.43679 0.27047 0.25672 0.0
C3247 C 0.4168 0.26951 0.24085 0.0
C3248 C 0.41816 0.26579 0.21572 0.0
C3249 C 0.43801 0.26288 0.20687 0.0
C3250 C 0.35339 0.26542 0.24262 0.0
C3251 C 0.35238 0.27835 0.26489 0.0
C3252 C 0.37385 0.26223 0.23541 0.0
C3253 C 0.39466 0.27224 0.24979 0.0
C3254 C 0.39368 0.28509 0.27228 0.0
C3255 C 0.37302 0.28793 0.27972 0.0
H3256 H 0.60936 0.52281 0.34973 0.0
H3257 H 0.61968 0.59475 0.37344 0.0
H3258 H 0.59066 0.515 0.38528 0.0
H3259 H 0.60085 0.58689 0.40859 0.0
H3260 H 0.5432 0.5627 0.45182 0.0
H3261 H 0.56083 0.56872 0.4154 0.0
H3262 H 0.60253 0.52203 0.43284 0.0
H3263 H 0.58515 0.51633 0.46972 0.0
C3264 C 0.60751 0.53694 0.36239 0.0
C3265 C 0.61595 0.55942 0.35869 0.0
C3266 C 0.59694 0.53245 0.38279 0.0
C3267 C 0.59428 0.55035 0.39965 0.0
C3268 C 0.60249 0.57277 0.39578 0.0
C3269 C 0.61333 0.57725 0.37566 0.0
C3270 C 0.55607 0.55364 0.44783 0.0
C3271 C 0.56288 0.53909 0.46361 0.0
C3272 C 0.56621 0.55717 0.42705 0.0
C3273 C 0.58305 0.54586 0.4213 0.0
C3274 C 0.58952 0.53088 0.43679 0.0
C3275 C 0.5797 0.52774 0.45792 0.0
H3276 H 0.27122 0.87203 0.03227 0.0
H3277 H 0.30889 0.93397 0.07617 0.0
H3278 H 0.28065 0.8506 0.065 0.0
H3279 H 0.319 0.91267 0.10804 0.0
H3280 H 0.32413 0.87268 0.16884 0.0
H3281 H 0.3065 0.89129 0.13836 0.0
H3282 H 0.31375 0.83948 0.08207 0.0
H3283 H 0.32984 0.81977 0.11289 0.0
C3284 C 0.28121 0.88109 0.04898 0.0
C3285 C 0.28936 0.90465 0.05158 0.0
C3286 C 0.28681 0.86881 0.0676 0.0
C3287 C 0.3007 0.8799 0.08904 0.0
C3288 C 0.308 0.90359 0.09196 0.0
C3289 C 0.30228 0.91582 0.07354 0.0
C3290 C 0.32155 0.86494 0.15003 0.0
C3291 C 0.32845 0.84472 0.1433 0.0
C3292 C 0.31167 0.87578 0.13251 0.0
C3293 C 0.30884 0.86696 0.10777 0.0
C3294 C 0.31544 0.84658 0.10101 0.0
C3295 C 0.32506 0.83551 0.11862 0.0
H3296 H 0.94014 0.51649 0.84497 0.0
H3297 H 0.89464 0.50912 0.89841 0.0
H3298 H 0.97147 0.51925 0.87655 0.0
H3299 H 0.92641 0.51204 0.93015 0.0
H3300 H 0.99251 0.5598 0.97359 0.0
H3301 H 0.96112 0.55089 0.94117 0.0
H3302 H 0.98411 0.49245 0.91153 0.0
H3303 H 0.01548 0.5008 0.94485 0.0
C3304 C 0.9368 0.51516 0.86342 0.0
C3305 C 0.91501 0.51279 0.86939 0.0
C3306 C 0.95471 0.51654 0.88133 0.0
C3307 C 0.95107 0.51575 0.90543 0.0
C3308 C 0.92931 0.51259 0.91144 0.0
C3309 C 0.91127 0.51091 0.89341 0.0
C3310 C 0.99097 0.54506 0.96017 0.0
C3311 C 1.0061 0.53067 0.96182 0.0
C3312 C 0.97295 0.53992 0.94183 0.0
C3313 C 0.97017 0.52075 0.92455 0.0
C3314 C 0.98598 0.50711 0.92515 0.0
C3315 C 1.00388 0.51198 0.9439 0.0
H3316 H 0.2761 0.19211 0.59563 0.0
H3317 H 0.27406 0.25836 0.57564 0.0
H3318 H 0.27766 0.20687 0.63817 0.0
H3319 H 0.27646 0.27344 0.61843 0.0
H3320 H 0.26053 0.28888 0.69597 0.0
H3321 H 0.25734 0.27421 0.65295 0.0
H3322 H 0.3015 0.22983 0.67105 0.0
H3323 H 0.30366 0.24353 0.71382 0.0
C3324 C 0.27618 0.20991 0.60032 0.0
C3325 C 0.27502 0.22404 0.58214 0.0
C3326 C 0.27721 0.21846 0.62483 0.0
C3327 C 0.27732 0.24147 0.63197 0.0
C3328 C 0.27611 0.25559 0.61373 0.0
C3329 C 0.27492 0.24697 0.58914 0.0
C3330 C 0.26929 0.27578 0.6908 0.0
C3331 C 0.28195 0.2671 0.70855 0.0
C3332 C 0.26769 0.26752 0.66602 0.0
C3333 C 0.279 0.2506 0.65832 0.0
C3334 C 0.29205 0.24238 0.67613 0.0
C3335 C 0.29341 0.2504 0.7008 0.0
H3336 H 0.63375 0.55455 0.215 0.0
H3337 H 0.56584 0.53624 0.22992 0.0
H3338 H 0.62015 0.55434 0.17228 0.0
H3339 H 0.55221 0.53638 0.1872 0.0
H3340 H 0.53688 0.51598 0.10395 0.0
H3341 H 0.54997 0.51586 0.14701 0.0
H3342 H 0.60129 0.57561 0.14591 0.0
H3343 H 0.5885 0.57502 0.10265 0.0
C3344 C 0.6159 0.55045 0.20919 0.0
C3345 C 0.60089 0.54541 0.22598 0.0
C3346 C 0.60808 0.55052 0.18467 0.0
C3347 C 0.58504 0.54547 0.17621 0.0
C3348 C 0.57006 0.54016 0.19296 0.0
C3349 C 0.57788 0.54019 0.21753 0.0
C3350 C 0.5508 0.52918 0.11312 0.0
C3351 C 0.5616 0.54566 0.10027 0.0
C3352 C 0.55829 0.52918 0.13776 0.0
C3353 C 0.57672 0.54574 0.15005 0.0
C3354 C 0.58728 0.56241 0.13703 0.0
C3355 C 0.57985 0.56228 0.11235 0.0
H3356 H 0.30339 0.92508 0.9302 0.0
H3357 H 0.32452 0.87631 0.97322 0.0
H3358 H 0.29903 0.89814 0.89354 0.0
H3359 H 0.31925 0.84894 0.9366 0.0
H3360 H 0.326 0.81284 0.86258 0.0
H3361 H 0.33342 0.84059 0.89922 0.0
H3362 H 0.27379 0.86387 0.87558 0.0
H3363 H 0.26695 0.83684 0.8387 0.0
C3364 C 0.30708 0.90857 0.93179 0.0
C3365 C 0.31423 0.9027 0.9545 0.0
C3366 C 0.30444 0.8931 0.91083 0.0
C3367 C 0.30857 0.87135 0.91224 0.0
C3368 C 0.31617 0.86566 0.93492 0.0
C3369 C 0.31909 0.88127 0.95589 0.0
C3370 C 0.31447 0.82384 0.86539 0.0
C3371 C 0.29593 0.82281 0.84795 0.0
C3372 C 0.31868 0.83968 0.88632 0.0
C3373 C 0.30425 0.85448 0.89019 0.0
C3374 C 0.28548 0.85304 0.87287 0.0
C3375 C 0.28145 0.83745 0.85186 0.0
H3376 H 0.96137 0.52465 0.77975 0.0
H3377 H 0.9058 0.53662 0.73227 0.0
H3378 H 0.97983 0.51661 0.74508 0.0
H3379 H 0.92498 0.52965 0.69727 0.0
H3380 H 0.94992 0.4801 0.64298 0.0
H3381 H 0.93265 0.49713 0.67541 0.0
H3382 H 0.99825 0.52983 0.71358 0.0
H3383 H 0.01523 0.51149 0.68178 0.0
C3384 C 0.95336 0.52618 0.76191 0.0
C3385 C 0.93208 0.53108 0.75867 0.0
C3386 C 0.96406 0.52174 0.74197 0.0
C3387 C 0.95388 0.52245 0.71835 0.0
C3388 C 0.93309 0.52862 0.71521 0.0
C3389 C 0.92219 0.53276 0.73523 0.0
C3390 C 0.96047 0.49087 0.65846 0.0
C3391 C 0.98372 0.49404 0.66059 0.0
C3392 C 0.95068 0.50091 0.67681 0.0
C3393 C 0.9641 0.51464 0.69724 0.0
C3394 C 0.98747 0.51885 0.69843 0.0
C3395 C 0.99719 0.50839 0.68035 0.0
H3396 H 0.23158 0.21253 0.44032 0.0
H3397 H 0.3013 0.21129 0.45721 0.0
H3398 H 0.23958 0.2308 0.40463 0.0
H3399 H 0.30923 0.22948 0.42123 0.0
H3400 H 0.3049 0.23671 0.33727 0.0
H3401 H 0.29923 0.21945 0.37442 0.0
H3402 H 0.26112 0.26861 0.39619 0.0
H3403 H 0.2669 0.28588 0.35947 0.0
C3404 C 0.24863 0.21622 0.43648 0.0
C3405 C 0.26579 0.21052 0.45171 0.0
C3406 C 0.25322 0.22676 0.41605 0.0
C3407 C 0.27503 0.23158 0.4101 0.0
C3408 C 0.29223 0.22583 0.42526 0.0
C3409 C 0.2877 0.21558 0.44595 0.0
C3410 C 0.29542 0.24385 0.35008 0.0
C3411 C 0.28635 0.26263 0.34542 0.0
C3412 C 0.29227 0.23406 0.37138 0.0
C3413 C 0.27963 0.24262 0.38817 0.0
C3414 C 0.27075 0.2615 0.38353 0.0
C3415 C 0.2742 0.27147 0.36254 0.0
H3416 H 0.36847 0.63094 0.59423 0.0
H3417 H 0.3205 0.57175 0.55677 0.0
H3418 H 0.39845 0.616 0.57798 0.0
H3419 H 0.35013 0.55733 0.54005 0.0
H3420 H 0.40708 0.53282 0.51501 0.0
H3421 H 0.38435 0.54362 0.54526 0.0
H3422 H 0.40555 0.61394 0.53555 0.0
H3423 H 0.42915 0.60325 0.50619 0.0
C3424 C 0.36442 0.61449 0.58313 0.0
C3425 C 0.34219 0.60271 0.57633 0.0
C3426 C 0.38152 0.60604 0.57371 0.0
C3427 C 0.37653 0.58575 0.55747 0.0
C3428 C 0.35453 0.57295 0.55265 0.0
C3429 C 0.33751 0.58132 0.56209 0.0
C3430 C 0.40726 0.55064 0.51977 0.0
C3431 C 0.41966 0.56724 0.50813 0.0
C3432 C 0.39421 0.55677 0.53699 0.0
C3433 C 0.39324 0.57958 0.54274 0.0
C3434 C 0.40628 0.59626 0.53175 0.0
C3435 C 0.41942 0.59013 0.51462 0.0
H3436 H 0.86365 0.94074 0.52201 0.0
H3437 H 0.88976 0.93778 0.59642 0.0
H3438 H 0.89925 0.96379 0.51645 0.0
H3439 H 0.92513 0.96162 0.5912 0.0
H3440 H 0.99271 0.9835 0.56662 0.0
H3441 H 0.95698 0.96079 0.57211 0.0
H3442 H 0.923 0.99992 0.52648 0.0
H3443 H 0.95881 0.02155 0.51959 0.0
C3444 C 0.87693 0.94519 0.53728 0.0
C3445 C 0.87386 0.93738 0.55968 0.0
C3446 C 0.89734 0.95858 0.53414 0.0
C3447 C 0.91514 0.96464 0.55337 0.0
C3448 C 0.91195 0.95701 0.57585 0.0
C3449 C 0.89159 0.94346 0.57893 0.0
C3450 C 0.97761 0.98731 0.55778 0.0
C3451 C 0.97864 1.00462 0.54299 0.0
C3452 C 0.95707 0.97438 0.5611 0.0
C3453 C 0.93701 0.97859 0.54993 0.0
C3454 C 0.93807 0.99601 0.5352 0.0
C3455 C 0.95864 0.00872 0.53159 0.0
H3456 H 0.8843 0.07739 0.22496 0.0
H3457 H 0.91062 0.07767 0.30011 0.0
H3458 H 0.86704 0.10884 0.2371 0.0
H3459 H 0.8943 0.10951 0.31207 0.0
H3460 H 0.84812 0.15366 0.33165 0.0
H3461 H 0.86022 0.11946 0.31681 0.0
H3462 H 0.87551 0.14808 0.25158 0.0
H3463 H 0.86208 0.18167 0.26609 0.0
C3464 C 0.88647 0.08421 0.24404 0.0
C3465 C 0.89877 0.07501 0.26157 0.0
C3466 C 0.87669 0.10232 0.25099 0.0
C3467 C 0.87913 0.11164 0.27559 0.0
C3468 C 0.89159 0.10246 0.29303 0.0
C3469 C 0.90118 0.08431 0.28613 0.0
C3470 C 0.8539 0.15238 0.31405 0.0
C3471 C 0.85457 0.17016 0.30006 0.0
C3472 C 0.86096 0.13295 0.3056 0.0
C3473 C 0.86927 0.13118 0.2832 0.0
C3474 C 0.86909 0.14877 0.26881 0.0
C3475 C 0.86158 0.16804 0.27712 0.0
H3476 H 0.70224 0.11735 0.0091 0.0
H3477 H 0.71714 0.07363 0.06179 0.0
H3478 H 0.66329 0.09728 0.00235 0.0
H3479 H 0.67808 0.05435 0.05609 0.0
H3480 H 0.6077 0.01747 0.03692 0.0
H3481 H 0.64646 0.03059 0.03075 0.0
H3482 H 0.63475 0.09808 0.02698 0.0
H3483 H 0.59624 0.08481 0.03227 0.0
C3484 C 0.69714 0.10333 0.01908 0.0
C3485 C 0.71246 0.0971 0.03611 0.0
C3486 C 0.67491 0.09189 0.01528 0.0
C3487 C 0.66763 0.07441 0.02886 0.0
C3488 C 0.68324 0.0675 0.04505 0.0
C3489 C 0.70556 0.07865 0.04849 0.0
C3490 C 0.61345 0.03496 0.03423 0.0
C3491 C 0.59919 0.05018 0.03499 0.0
C3492 C 0.63555 0.04248 0.0308 0.0
C3493 C 0.64362 0.06535 0.02842 0.0
C3494 C 0.62895 0.08025 0.02821 0.0
C3495 C 0.6069 0.07269 0.03137 0.0
H3496 H 0.24119 0.49611 0.22654 0.0
H3497 H 0.18223 0.46358 0.25438 0.0
H3498 H 0.26242 0.47158 0.24585 0.0
H3499 H 0.20353 0.43972 0.27446 0.0
H3500 H 0.24785 0.39588 0.30399 0.0
H3501 H 0.2256 0.41165 0.2744 0.0
H3502 H 0.27479 0.47497 0.28905 0.0
H3503 H 0.2978 0.45856 0.31747 0.0
C3504 C 0.23264 0.48313 0.23608 0.0
C3505 C 0.21029 0.48181 0.23937 0.0
C3506 C 0.2448 0.46936 0.24737 0.0
C3507 C 0.23475 0.45436 0.26226 0.0
C3508 C 0.21171 0.4512 0.26312 0.0
C3509 C 0.19946 0.46478 0.25154 0.0
C3510 C 0.25388 0.41318 0.3008 0.0
C3511 C 0.27453 0.42609 0.31285 0.0
C3512 C 0.24116 0.42216 0.28392 0.0
C3513 C 0.24866 0.44434 0.27917 0.0
C3514 C 0.26893 0.45755 0.29189 0.0
C3515 C 0.28184 0.44843 0.30856 0.0
H3516 H 0.26909 0.45074 0.0583 0.0
H3517 H 0.22069 0.39436 0.01622 0.0
H3518 H 0.2417 0.47439 0.05566 0.0
H3519 H 0.19359 0.41824 0.01267 0.0
H3520 H 0.14436 0.46192 0.01561 0.0
H3521 H 0.16968 0.43913 0.03176 0.0
H3522 H 0.22616 0.4919 0.02448 0.0
H3523 H 0.2009 0.51462 0.00932 0.0
C3524 C 0.25257 0.44338 0.04854 0.0
C3525 C 0.24708 0.42073 0.03732 0.0
C3526 C 0.23688 0.45694 0.04699 0.0
C3527 C 0.21545 0.44826 0.03389 0.0
C3528 C 0.20978 0.42539 0.02328 0.0
C3529 C 0.2254 0.41174 0.02509 0.0
C3530 C 0.16219 0.46881 0.01833 0.0
C3531 C 0.17085 0.48979 0.01105 0.0
C3532 C 0.17669 0.45572 0.02725 0.0
C3533 C 0.19996 0.46351 0.02903 0.0
C3534 C 0.20839 0.48537 0.02356 0.0
C3535 C 0.19396 0.49837 0.01471 0.0
H3536 H 0.92246 0.9312 0.25865 0.0
H3537 H 0.87018 0.96892 0.26008 0.0
H3538 H 0.89545 0.89647 0.26026 0.0
H3539 H 0.84297 0.9339 0.26116 0.0
H3540 H 0.80887 0.8698 0.29287 0.0
H3541 H 0.83335 0.90576 0.28883 0.0
H3542 H 0.86406 0.87095 0.23486 0.0
H3543 H 0.83994 0.83518 0.23908 0.0
C3544 C 0.90516 0.93205 0.25908 0.0
C3545 C 0.89847 0.9528 0.25916 0.0
C3546 C 0.88965 0.91212 0.25987 0.0
C3547 C 0.86705 0.91243 0.26068 0.0
C3548 C 0.8603 0.93317 0.26072 0.0
C3549 C 0.87586 0.95317 0.25994 0.0
C3550 C 0.82062 0.86993 0.27989 0.0
C3551 C 0.82258 0.84966 0.26641 0.0
C3552 C 0.83462 0.8905 0.27756 0.0
C3553 C 0.8508 0.89112 0.26173 0.0
C3554 C 0.85207 0.87096 0.24757 0.0
C3555 C 0.83815 0.85047 0.2499 0.0
H3556 H 0.747 0.10809 0.78153 0.0
H3557 H 0.7088 0.12686 0.72014 0.0
H3558 H 0.76134 0.14809 0.79732 0.0
H3559 H 0.72332 0.16668 0.73588 0.0
H3560 H 0.74122 0.23544 0.77095 0.0
H3561 H 0.72291 0.19608 0.77197 0.0
H3562 H 0.7873 0.17798 0.7794 0.0
H3563 H 0.80547 0.21742 0.77884 0.0
C3564 C 0.7417 0.12073 0.7714 0.0
C3565 C 0.72701 0.11444 0.74944 0.0
C3566 C 0.74974 0.14351 0.78059 0.0
C3567 C 0.74309 0.16024 0.768 0.0
C3568 C 0.72822 0.15397 0.74621 0.0
C3569 C 0.72025 0.13123 0.73698 0.0
C3570 C 0.7514 0.22323 0.7742 0.0
C3571 C 0.77457 0.22907 0.775 0.0
C3572 C 0.74098 0.20077 0.77452 0.0
C3573 C 0.75377 0.18417 0.77547 0.0
C3574 C 0.77715 0.19057 0.77884 0.0
C3575 C 0.78751 0.21298 0.7784 0.0
loop_
_geom_bond_atom_site_label_1
_geom_bond_atom_site_label_2
_geom_bond_distance
_geom_bond_site_symmetry_2
_ccdc_geom_bond_type
C0 O1 1.160 . S
C0 O7 1.185 . S
O1 C0 1.160 . S
O2 Zn3 1.899 . S
O2 C10 1.284 . S
Zn3 O2 1.899 . S
Zn3 O4 2.032 . S
Zn3 O7 2.086 . S
Zn3 O12 1.977 . S
O4 Zn3 2.032 . S
O4 C8 1.278 . S
C5 O6 1.203 . S
C5 O12 1.267 1_655 S
O6 C5 1.203 . S
O7 C0 1.185 . S
O7 Zn3 2.086 . S
C8 O4 1.278 . S
C8 O9 1.211 . S
O9 C8 1.211 . S
C10 O2 1.284 . S
C10 O11 1.273 . S
O11 C10 1.273 . S
O12 Zn3 1.977 . S
O12 C5 1.267 1_455 S
C13 O14 1.160 . S
C13 O20 1.185 . S
O14 C13 1.160 . S
O15 Zn16 1.899 . S
O15 C23 1.284 . S
Zn16 O15 1.899 . S
Zn16 O17 2.032 . S
Zn16 O20 2.086 1_455 S
Zn16 O25 1.977 . S
O17 Zn16 2.032 . S
O17 C21 1.278 . S
C18 O19 1.203 . S
C18 O25 1.267 . S
O19 C18 1.203 . S
O20 C13 1.185 . S
O20 Zn16 2.086 1_655 S
C21 O17 1.278 . S
C21 O22 1.211 . S
O22 C21 1.211 . S
C23 O15 1.284 . S
C23 O24 1.273 . S
O24 C23 1.273 . S
O25 Zn16 1.977 . S
O25 C18 1.267 . S
C26 O27 1.160 . S
C26 O33 1.185 . S
O27 C26 1.160 . S
O28 Zn29 1.899 . S
O28 C36 1.284 . S
Zn29 O28 1.899 . S
Zn29 O30 2.032 . S
Zn29 O33 2.086 . S
Zn29 O38 1.977 . S
O30 Zn29 2.032 . S
O30 C34 1.278 . S
C31 O32 1.203 . S
C31 O38 1.267 . S
O32 C31 1.203 . S
O33 C26 1.185 . S
O33 Zn29 2.086 . S
C34 O30 1.278 . S
C34 O35 1.211 . S
O35 C34 1.211 . S
C36 O28 1.284 . S
C36 O37 1.273 . S
O37 C36 1.273 . S
O38 Zn29 1.977 . S
O38 C31 1.267 . S
C39 O40 1.160 . S
C39 O46 1.185 . S
O40 C39 1.160 . S
O41 Zn42 1.899 . S
O41 C49 1.284 . S
Zn42 O41 1.899 . S
Zn42 O43 2.032 . S
Zn42 O46 2.086 . S
Zn42 O51 1.977 . S
O43 Zn42 2.032 . S
O43 C47 1.278 . S
C44 O45 1.203 . S
C44 O51 1.267 . S
O45 C44 1.203 . S
O46 C39 1.185 . S
O46 Zn42 2.086 . S
C47 O43 1.278 . S
C47 O48 1.211 . S
O48 C47 1.211 . S
C49 O41 1.284 . S
C49 O50 1.273 . S
O50 C49 1.273 . S
O51 Zn42 1.977 . S
O51 C44 1.267 . S
C52 O53 1.160 . S
C52 O59 1.185 . S
O53 C52 1.160 . S
O54 Zn55 1.899 . S
O54 C62 1.284 . S
Zn55 O54 1.899 . S
Zn55 O56 2.032 . S
Zn55 O59 2.086 . S
Zn55 O64 1.977 . S
O56 Zn55 2.032 . S
O56 C60 1.278 . S
C57 O58 1.203 . S
C57 O64 1.267 . S
O58 C57 1.203 . S
O59 C52 1.185 . S
O59 Zn55 2.086 . S
C60 O56 1.278 . S
C60 O61 1.211 . S
O61 C60 1.211 . S
C62 O54 1.284 . S
C62 O63 1.273 . S
O63 C62 1.273 . S
O64 Zn55 1.977 . S
O64 C57 1.267 . S
C65 O66 1.160 . S
C65 O72 1.185 . S
O66 C65 1.160 . S
O67 Zn68 1.899 . S
O67 C75 1.284 . S
Zn68 O67 1.899 . S
Zn68 O69 2.032 . S
Zn68 O72 2.086 . S
Zn68 O77 1.977 . S
O69 Zn68 2.032 . S
O69 C73 1.278 . S
C70 O71 1.203 . S
C70 O77 1.267 . S
O71 C70 1.203 . S
O72 C65 1.185 . S
O72 Zn68 2.086 . S
C73 O69 1.278 . S
C73 O74 1.211 . S
O74 C73 1.211 . S
C75 O67 1.284 . S
C75 O76 1.273 . S
O76 C75 1.273 . S
O77 Zn68 1.977 . S
O77 C70 1.267 . S
C78 O79 1.160 . S
C78 O85 1.185 . S
O79 C78 1.160 . S
O80 Zn81 1.899 . S
O80 C88 1.284 . S
Zn81 O80 1.899 . S
Zn81 O82 2.032 . S
Zn81 O85 2.086 . S
Zn81 O90 1.977 . S
O82 Zn81 2.032 . S
O82 C86 1.278 . S
C83 O84 1.203 . S
C83 O90 1.267 . S
O84 C83 1.203 . S
O85 C78 1.185 . S
O85 Zn81 2.086 . S
C86 O82 1.278 . S
C86 O87 1.211 . S
O87 C86 1.211 . S
C88 O80 1.284 . S
C88 O89 1.273 . S
O89 C88 1.273 . S
O90 Zn81 1.977 . S
O90 C83 1.267 . S
C91 O92 1.160 . S
C91 O98 1.185 . S
O92 C91 1.160 . S
O93 Zn94 1.899 . S
O93 C101 1.284 1_455 S
Zn94 O93 1.899 . S
Zn94 O95 2.032 . S
Zn94 O98 2.086 . S
Zn94 O103 1.977 1_455 S
O95 Zn94 2.032 . S
O95 C99 1.278 . S
C96 O97 1.203 . S
C96 O103 1.267 . S
O97 C96 1.203 . S
O98 C91 1.185 . S
O98 Zn94 2.086 . S
C99 O95 1.278 . S
C99 O100 1.211 1_455 S
O100 C99 1.211 1_655 S
C101 O93 1.284 1_655 S
C101 O102 1.273 . S
O102 C101 1.273 . S
O103 Zn94 1.977 1_655 S
O103 C96 1.267 . S
C104 O105 1.160 . S
C104 O111 1.185 . S
O105 C104 1.160 . S
O106 Zn107 1.899 . S
O106 C114 1.284 . S
Zn107 O106 1.899 . S
Zn107 O108 2.032 . S
Zn107 O111 2.086 . S
Zn107 O116 1.977 1_545 S
O108 Zn107 2.032 . S
O108 C112 1.278 . S
C109 O110 1.203 . S
C109 O116 1.267 . S
O110 C109 1.203 . S
O111 C104 1.185 . S
O111 Zn107 2.086 . S
C112 O108 1.278 . S
C112 O113 1.211 1_545 S
O113 C112 1.211 1_565 S
C114 O106 1.284 . S
C114 O115 1.285 . S
O115 C114 1.285 . S
O116 Zn107 1.977 1_565 S
O116 C109 1.267 . S
C117 O118 1.160 . S
C117 O124 1.185 . S
O118 C117 1.160 . S
O119 Zn120 1.899 . S
O119 C127 1.284 . S
Zn120 O119 1.899 . S
Zn120 O121 2.032 . S
Zn120 O124 2.086 . S
Zn120 O129 1.977 . S
O121 Zn120 2.032 . S
O121 C125 1.278 . S
C122 O123 1.203 . S
C122 O129 1.267 . S
O123 C122 1.203 . S
O124 C117 1.185 . S
O124 Zn120 2.086 . S
C125 O121 1.278 . S
C125 O126 1.211 . S
O126 C125 1.211 . S
C127 O119 1.284 . S
C127 O128 1.273 . S
O128 C127 1.273 . S
O129 Zn120 1.977 . S
O129 C122 1.267 . S
C130 O131 1.160 1_545 S
C130 O137 1.185 . S
O131 C130 1.160 1_565 S
O132 Zn133 1.899 . S
O132 C140 1.284 . S
Zn133 O132 1.899 . S
Zn133 O134 2.032 . S
Zn133 O137 2.086 . S
Zn133 O142 1.977 . S
O134 Zn133 2.032 . S
O134 C138 1.278 . S
C135 O136 1.203 . S
C135 O142 1.267 . S
O136 C135 1.203 . S
O137 C130 1.185 . S
O137 Zn133 2.086 . S
C138 O134 1.278 . S
C138 O139 1.211 . S
O139 C138 1.211 . S
C140 O132 1.284 . S
C140 O141 1.273 . S
O141 C140 1.273 . S
O142 Zn133 1.977 . S
O142 C135 1.267 . S
C143 O144 1.160 . S
C143 O150 1.185 1_554 S
O144 C143 1.160 . S
O145 Zn146 1.899 . S
O145 C153 1.284 . S
Zn146 O145 1.899 . S
Zn146 O147 2.032 1_554 S
Zn146 O150 2.086 1_554 S
Zn146 O155 1.988 . S
O147 Zn146 2.032 1_556 S
O147 C151 1.278 . S
C148 O149 1.203 . S
C148 O155 1.277 . S
O149 C148 1.203 . S
O150 C143 1.185 1_556 S
O150 Zn146 2.086 1_556 S
C151 O147 1.278 . S
C151 O152 1.211 . S
O152 C151 1.211 . S
C153 O145 1.284 . S
C153 O154 1.273 . S
O154 C153 1.273 . S
O155 Zn146 1.988 . S
O155 C148 1.277 . S
C156 O157 1.160 . S
C156 O163 1.185 . S
O157 C156 1.160 . S
O158 Zn159 1.899 . S
O158 C166 1.284 . S
Zn159 O158 1.899 . S
Zn159 O160 2.032 . S
Zn159 O163 2.086 . S
Zn159 O168 1.977 . S
O160 Zn159 2.032 . S
O160 C164 1.278 . S
C161 O162 1.203 . S
C161 O168 1.267 . S
O162 C161 1.203 . S
O163 C156 1.185 . S
O163 Zn159 2.086 . S
C164 O160 1.278 . S
C164 O165 1.211 . S
O165 C164 1.211 . S
C166 O158 1.284 . S
C166 O167 1.273 . S
O167 C166 1.273 . S
O168 Zn159 1.977 . S
O168 C161 1.267 . S
C169 O170 1.160 . S
C169 O176 1.185 . S
O170 C169 1.160 . S
O171 Zn172 1.899 . S
O171 C179 1.284 . S
Zn172 O171 1.899 . S
Zn172 O173 2.032 . S
Zn172 O176 2.086 . S
Zn172 O181 1.977 . S
O173 Zn172 2.032 . S
O173 C177 1.278 . S
C174 O175 1.203 . S
C174 O181 1.267 . S
O175 C174 1.203 . S
O176 C169 1.185 . S
O176 Zn172 2.086 . S
C177 O173 1.278 . S
C177 O178 1.211 . S
O178 C177 1.211 . S
C179 O171 1.284 . S
C179 O180 1.273 . S
O180 C179 1.273 . S
O181 Zn172 1.977 . S
O181 C174 1.267 . S
C182 O183 1.160 . S
C182 O189 1.185 . S
O183 C182 1.160 . S
O184 Zn185 1.899 . S
O184 C192 1.284 . S
Zn185 O184 1.899 . S
Zn185 O186 2.032 . S
Zn185 O189 2.086 . S
Zn185 O194 1.977 . S
O186 Zn185 2.032 . S
O186 C190 1.278 . S
C187 O188 1.203 . S
C187 O194 1.267 . S
O188 C187 1.203 . S
O189 C182 1.185 . S
O189 Zn185 2.086 . S
C190 O186 1.278 . S
C190 O191 1.211 . S
O191 C190 1.211 . S
C192 O184 1.284 . S
C192 O193 1.273 . S
O193 C192 1.273 . S
O194 Zn185 1.977 . S
O194 C187 1.267 . S
C195 O196 1.160 . S
C195 O202 1.185 . S
O196 C195 1.160 . S
O197 Zn198 1.899 . S
O197 C205 1.284 . S
Zn198 O197 1.899 . S
Zn198 O199 2.032 . S
Zn198 O202 2.086 . S
Zn198 O207 1.977 . S
O199 Zn198 2.032 . S
O199 C203 1.278 . S
C200 O201 1.203 . S
C200 O207 1.267 . S
O201 C200 1.203 . S
O202 C195 1.185 . S
O202 Zn198 2.086 . S
C203 O199 1.278 . S
C203 O204 1.211 . S
O204 C203 1.211 . S
C205 O197 1.284 . S
C205 O206 1.273 . S
O206 C205 1.273 . S
O207 Zn198 1.977 . S
O207 C200 1.267 . S
C208 O209 1.160 . S
C208 O215 1.185 . S
O209 C208 1.160 . S
O210 Zn211 1.899 . S
O210 C218 1.284 . S
Zn211 O210 1.899 . S
Zn211 O212 2.032 . S
Zn211 O215 2.086 . S
Zn211 O220 1.977 1_545 S
O212 Zn211 2.032 . S
O212 C216 1.278 . S
C213 O214 1.203 . S
C213 O220 1.267 . S
O214 C213 1.203 . S
O215 C208 1.185 . S
O215 Zn211 2.086 . S
C216 O212 1.278 . S
C216 O217 1.211 1_545 S
O217 C216 1.211 1_565 S
C218 O210 1.284 . S
C218 O219 1.273 . S
O219 C218 1.273 . S
O220 Zn211 1.977 1_565 S
O220 C213 1.267 . S
C221 O222 1.160 . S
C221 O228 1.185 . S
O222 C221 1.160 . S
O223 Zn224 1.899 . S
O223 C231 1.284 . S
Zn224 O223 1.899 . S
Zn224 O225 2.032 . S
Zn224 O228 2.086 . S
Zn224 O233 1.977 . S
O225 Zn224 2.032 . S
O225 C229 1.278 . S
C226 O227 1.203 . S
C226 O233 1.267 . S
O227 C226 1.203 . S
O228 C221 1.185 . S
O228 Zn224 2.086 . S
C229 O225 1.278 . S
C229 O230 1.211 . S
O230 C229 1.211 . S
C231 O223 1.284 . S
C231 O232 1.273 . S
O232 C231 1.273 . S
O233 Zn224 1.977 . S
O233 C226 1.267 . S
C234 O235 1.160 . S
C234 O241 1.185 . S
O235 C234 1.160 . S
O236 Zn237 1.899 . S
O236 C244 1.284 . S
Zn237 O236 1.899 . S
Zn237 O238 2.032 . S
Zn237 O241 2.086 . S
Zn237 O246 1.977 . S
O238 Zn237 2.032 . S
O238 C242 1.278 . S
C239 O240 1.203 . S
C239 O246 1.267 . S
O240 C239 1.203 . S
O241 C234 1.185 . S
O241 Zn237 2.086 . S
C242 O238 1.278 . S
C242 O243 1.211 . S
O243 C242 1.211 . S
C244 O236 1.284 . S
C244 O245 1.273 . S
O245 C244 1.273 . S
O246 Zn237 1.977 . S
O246 C239 1.267 . S
C247 O248 1.160 . S
C247 O254 1.185 . S
O248 C247 1.160 . S
O249 Zn250 1.899 . S
O249 C257 1.284 . S
Zn250 O249 1.899 . S
Zn250 O251 2.032 . S
Zn250 O254 2.086 . S
Zn250 O259 1.977 . S
O251 Zn250 2.032 . S
O251 C255 1.278 . S
C252 O253 1.203 . S
C252 O259 1.267 . S
O253 C252 1.203 . S
O254 C247 1.185 . S
O254 Zn250 2.086 . S
C255 O251 1.278 . S
C255 O256 1.211 . S
O256 C255 1.211 . S
C257 O249 1.284 . S
C257 O258 1.273 . S
O258 C257 1.273 . S
O259 Zn250 1.977 . S
O259 C252 1.267 . S
C260 O261 1.160 . S
C260 O267 1.185 . S
O261 C260 1.160 . S
O262 Zn263 1.899 . S
O262 C270 1.284 . S
Zn263 O262 1.899 . S
Zn263 O264 2.032 1_554 S
Zn263 O267 2.086 . S
Zn263 O272 1.977 . S
O264 Zn263 2.032 1_556 S
O264 C268 1.278 . S
C265 O266 1.203 . S
C265 O272 1.267 . S
O266 C265 1.203 . S
O267 C260 1.185 . S
O267 Zn263 2.086 . S
C268 O264 1.278 . S
C268 O269 1.211 . S
O269 C268 1.211 . S
C270 O262 1.284 . S
C270 O271 1.273 . S
O271 C270 1.273 . S
O272 Zn263 1.977 . S
O272 C265 1.267 . S
C273 O274 1.160 . S
C273 O280 1.185 . S
O274 C273 1.160 . S
O275 Zn276 1.899 . S
O275 C283 1.284 . S
Zn276 O275 1.899 . S
Zn276 O277 2.032 . S
Zn276 O280 2.086 . S
Zn276 O285 1.977 . S
O277 Zn276 2.032 . S
O277 C281 1.278 . S
C278 O279 1.203 . S
C278 O285 1.267 . S
O279 C278 1.203 . S
O280 C273 1.185 . S
O280 Zn276 2.086 . S
C281 O277 1.278 . S
C281 O282 1.211 . S
O282 C281 1.211 . S
C283 O275 1.284 . S
C283 O284 1.273 . S
O284 C283 1.273 . S
O285 Zn276 1.977 . S
O285 C278 1.267 . S
C286 O287 1.160 . S
C286 O293 1.185 . S
O287 C286 1.160 . S
O288 Zn289 1.899 . S
O288 C296 1.284 . S
Zn289 O288 1.899 . S
Zn289 O290 2.032 . S
Zn289 O293 2.086 . S
Zn289 O298 1.977 . S
O290 Zn289 2.032 . S
O290 C294 1.278 . S
C291 O292 1.203 . S
C291 O298 1.267 . S
O292 C291 1.203 . S
O293 C286 1.185 . S
O293 Zn289 2.086 . S
C294 O290 1.278 . S
C294 O295 1.211 . S
O295 C294 1.211 . S
C296 O288 1.284 . S
C296 O297 1.273 . S
O297 C296 1.273 . S
O298 Zn289 1.977 . S
O298 C291 1.267 . S
C299 O300 1.160 . S
C299 O306 1.185 . S
O300 C299 1.160 . S
O301 Zn302 1.899 . S
O301 C309 1.284 . S
Zn302 O301 1.899 . S
Zn302 O303 2.032 . S
Zn302 O306 2.086 . S
Zn302 O311 1.977 . S
O303 Zn302 2.032 . S
O303 C307 1.278 . S
C304 O305 1.203 . S
C304 O311 1.267 . S
O305 C304 1.203 . S
O306 C299 1.185 . S
O306 Zn302 2.086 . S
C307 O303 1.278 . S
C307 O308 1.211 . S
O308 C307 1.211 . S
C309 O301 1.284 . S
C309 O310 1.273 . S
O310 C309 1.273 . S
O311 Zn302 1.977 . S
O311 C304 1.267 . S
Eu312 N341 2.600 . S
Eu312 N347 2.562 . S
Eu312 O356 2.462 . S
Eu312 O357 2.373 . S
Eu312 O359 2.432 . S
Eu312 O360 2.291 . S
Eu312 O364 2.316 1_545 S
Eu312 O367 2.372 . S
Eu312 C376 2.787 . S
C313 N314 1.365 . S
C313 C316 1.405 . S
C313 C320 1.448 1_556 S
N314 C313 1.365 . S
N314 C317 1.319 . S
N314 Eu323 2.600 1_566 S
C315 C317 1.397 . S
C315 C318 1.367 . S
C315 H335 0.931 . S
C316 C313 1.405 . S
C316 C318 1.403 . S
C316 C322 1.439 . S
C317 N314 1.319 . S
C317 C315 1.397 . S
C317 H328 0.930 . S
C318 C315 1.367 . S
C318 C316 1.403 . S
C318 H339 0.929 . S
C319 C320 1.430 . S
C319 C321 1.387 1_554 S
C319 C325 1.404 . S
C320 C313 1.448 1_554 S
C320 C319 1.430 . S
C320 N324 1.351 . S
C321 C319 1.387 1_556 S
C321 C322 1.374 . S
C321 H336 0.931 . S
C322 C316 1.439 . S
C322 C321 1.374 . S
C322 H337 0.931 . S
Eu323 N314 2.600 1_544 S
Eu323 N324 2.562 1_545 S
Eu323 O358 2.335 1_655 S
Eu323 O361 2.372 1_654 S
Eu323 O362 2.462 . S
Eu323 O363 2.373 1_645 S
Eu323 O365 2.432 1_554 S
Eu323 O366 2.291 1_655 S
Eu323 C387 2.784 1_554 S
N324 C320 1.351 . S
N324 Eu323 2.562 1_565 S
N324 C326 1.325 . S
C325 C319 1.404 . S
C325 C327 1.366 . S
C325 H333 0.930 . S
C326 N324 1.325 . S
C326 C327 1.416 . S
C326 H332 0.929 . S
C327 C325 1.366 . S
C327 C326 1.416 . S
C327 H329 0.930 . S
H328 C317 0.930 . S
H329 C327 0.930 . S
H330 C345 0.930 . S
H331 C352 0.930 1_556 S
H332 C326 0.929 . S
H333 C325 0.930 . S
H334 C348 0.904 1_556 S
H335 C315 0.931 . S
H336 C321 0.931 . S
H337 C322 0.931 . S
H338 C343 0.931 . S
H339 C318 0.929 . S
H340 C351 0.930 . S
N341 Eu312 2.600 . S
N341 C342 1.365 . S
N341 C345 1.319 . S
C342 N341 1.365 . S
C342 C344 1.405 . S
C342 C350 1.448 . S
C343 H338 0.931 . S
C343 C345 1.397 . S
C343 C346 1.367 . S
C344 C342 1.405 . S
C344 C346 1.403 . S
C344 C377 1.439 . S
C345 H330 0.930 . S
C345 N341 1.319 . S
C345 C343 1.397 . S
C346 C343 1.367 . S
C346 C344 1.403 . S
C346 H353 0.929 . S
N347 Eu312 2.562 . S
N347 C348 1.325 . S
N347 C350 1.351 . S
C348 H334 0.904 1_554 S
C348 N347 1.325 . S
C348 C352 1.416 . S
C349 C350 1.430 . S
C349 C351 1.404 . S
C349 C378 1.387 . S
C350 C342 1.448 . S
C350 N347 1.351 . S
C350 C349 1.430 . S
C351 H340 0.930 . S
C351 C349 1.404 . S
C351 C352 1.366 . S
C352 H331 0.930 1_554 S
C352 C348 1.416 . S
C352 C351 1.366 . S
H353 C346 0.929 . S
H354 C377 0.931 . S
H355 C378 0.931 . S
O356 Eu312 2.462 . S
O356 C376 1.252 . S
O357 Eu312 2.373 . S
O357 C368 1.249 . S
O358 Eu323 2.335 1_455 S
O358 C368 1.264 . S
O359 Eu312 2.432 . S
O359 C376 1.268 . S
O360 Eu312 2.291 . S
O360 C375 1.255 1_554 S
O361 Eu323 2.372 1_456 S
O361 C375 1.257 . S
O362 Eu323 2.462 . S
O362 C387 1.223 1_554 S
O363 Eu323 2.373 1_465 S
O363 C379 1.249 . S
O364 Eu312 2.316 1_565 S
O364 C379 1.275 . S
O365 Eu323 2.432 1_556 S
O365 C387 1.295 . S
O366 Eu323 2.291 1_455 S
O366 C386 1.255 . S
O367 Eu312 2.372 . S
O367 C386 1.257 . S
C368 O357 1.249 . S
C368 O358 1.264 . S
C369 C372 1.382 . S
C369 C374 1.390 . S
C369 C376 1.506 . S
C370 C371 1.398 . S
C370 C374 1.392 . S
C371 C370 1.398 . S
C371 C373 1.372 . S
C371 H388 0.917 1_545 S
C372 C369 1.382 . S
C372 C373 1.390 . S
C372 H389 0.931 . S
C373 C371 1.372 . S
C373 C372 1.390 . S
C373 H390 0.929 . S
C374 C369 1.390 . S
C374 C370 1.392 . S
C374 H391 0.930 . S
C375 O360 1.255 1_556 S
C375 O361 1.257 . S
C376 Eu312 2.787 . S
C376 O356 1.252 . S
C376 O359 1.268 . S
C376 C369 1.506 . S
C377 C344 1.439 . S
C377 H354 0.931 . S
C377 C378 1.374 . S
C378 C349 1.387 . S
C378 H355 0.931 . S
C378 C377 1.374 . S
C379 O363 1.249 . S
C379 O364 1.275 . S
C380 C383 1.382 . S
C380 C384 1.390 1_556 S
C380 C387 1.510 . S
C381 C382 1.398 1_554 S
C381 C384 1.392 . S
C382 C381 1.398 1_556 S
C382 C385 1.372 . S
C382 H392 0.931 . S
C383 C380 1.382 . S
C383 C385 1.390 . S
C383 H393 0.931 . S
C384 C380 1.390 1_554 S
C384 C381 1.392 . S
C384 H394 0.930 . S
C385 C382 1.372 . S
C385 C383 1.390 . S
C385 H395 0.929 . S
C386 O366 1.255 . S
C386 O367 1.257 . S
C387 Eu323 2.784 1_556 S
C387 O362 1.223 1_556 S
C387 O365 1.295 . S
C387 C380 1.510 . S
H388 C371 0.917 1_565 S
H389 C372 0.931 . S
H390 C373 0.929 . S
H391 C374 0.930 . S
H392 C382 0.931 . S
H393 C383 0.931 . S
H394 C384 0.930 . S
H395 C385 0.929 . S
Eu396 N425 2.600 . S
Eu396 N431 2.562 . S
Eu396 O440 2.462 . S
Eu396 O441 2.373 . S
Eu396 O443 2.432 . S
Eu396 O444 2.291 . S
Eu396 O448 2.335 . S
Eu396 O451 2.372 . S
Eu396 C460 2.787 . S
C397 N398 1.365 . S
C397 C400 1.405 . S
C397 C404 1.448 . S
N398 C397 1.365 . S
N398 C401 1.319 . S
N398 Eu407 2.600 . S
C399 C401 1.397 . S
C399 C402 1.367 . S
C399 H419 0.931 . S
C400 C397 1.405 . S
C400 C402 1.403 . S
C400 C406 1.439 . S
C401 N398 1.319 . S
C401 C399 1.397 . S
C401 H412 0.930 . S
C402 C399 1.367 . S
C402 C400 1.403 . S
C402 H423 0.929 . S
C403 C404 1.430 . S
C403 C405 1.387 . S
C403 C409 1.404 . S
C404 C397 1.448 . S
C404 C403 1.430 . S
C404 N408 1.351 . S
C405 C403 1.387 . S
C405 C406 1.374 . S
C405 H420 0.931 . S
C406 C400 1.439 . S
C406 C405 1.374 . S
C406 H421 0.931 . S
Eu407 N398 2.600 . S
Eu407 N408 2.562 . S
Eu407 O442 2.335 . S
Eu407 O445 2.372 . S
Eu407 O446 2.462 . S
Eu407 O447 2.373 . S
Eu407 O449 2.432 . S
Eu407 O450 2.291 . S
Eu407 C471 2.787 . S
N408 C404 1.351 . S
N408 Eu407 2.562 . S
N408 C410 1.325 . S
C409 C403 1.404 . S
C409 C411 1.366 . S
C409 H417 0.930 . S
C410 N408 1.325 . S
C410 C411 1.416 . S
C410 H416 0.929 . S
C411 C409 1.366 . S
C411 C410 1.416 . S
C411 H413 0.930 . S
H412 C401 0.930 . S
H413 C411 0.930 . S
H414 C429 0.930 . S
H415 C436 0.930 . S
H416 C410 0.929 . S
H417 C409 0.930 . S
H418 C432 0.929 . S
H419 C399 0.931 . S
H420 C405 0.931 . S
H421 C406 0.931 . S
H422 C427 0.931 . S
H423 C402 0.929 . S
H424 C435 0.930 . S
N425 Eu396 2.600 . S
N425 C426 1.365 . S
N425 C429 1.319 . S
C426 N425 1.365 . S
C426 C428 1.405 . S
C426 C434 1.448 . S
C427 H422 0.931 . S
C427 C429 1.397 . S
C427 C430 1.367 . S
C428 C426 1.405 . S
C428 C430 1.403 . S
C428 C461 1.439 . S
C429 H414 0.930 . S
C429 N425 1.319 . S
C429 C427 1.397 . S
C430 C427 1.367 . S
C430 C428 1.403 . S
C430 H437 0.929 . S
N431 Eu396 2.562 . S
N431 C432 1.325 . S
N431 C434 1.351 . S
C432 H418 0.929 . S
C432 N431 1.325 . S
C432 C436 1.416 . S
C433 C434 1.430 . S
C433 C435 1.404 . S
C433 C462 1.387 . S
C434 C426 1.448 . S
C434 N431 1.351 . S
C434 C433 1.430 . S
C435 H424 0.930 . S
C435 C433 1.404 . S
C435 C436 1.366 . S
C436 H415 0.930 . S
C436 C432 1.416 . S
C436 C435 1.366 . S
H437 C430 0.929 . S
H438 C461 0.931 . S
H439 C462 0.931 . S
O440 Eu396 2.462 . S
O440 C460 1.252 . S
O441 Eu396 2.373 . S
O441 C452 1.249 . S
O442 Eu407 2.335 . S
O442 C452 1.264 . S
O443 Eu396 2.432 . S
O443 C460 1.268 . S
O444 Eu396 2.291 . S
O444 C459 1.255 . S
O445 Eu407 2.372 . S
O445 C459 1.257 . S
O446 Eu407 2.462 . S
O446 C471 1.252 . S
O447 Eu407 2.373 . S
O447 C463 1.249 . S
O448 Eu396 2.335 . S
O448 C463 1.264 . S
O449 Eu407 2.432 . S
O449 C471 1.268 . S
O450 Eu407 2.291 . S
O450 C470 1.255 . S
O451 Eu396 2.372 . S
O451 C470 1.257 . S
C452 O441 1.249 . S
C452 O442 1.264 . S
C453 C456 1.382 . S
C453 C458 1.390 . S
C453 C460 1.506 . S
C454 C455 1.398 . S
C454 C458 1.392 . S
C455 C454 1.398 . S
C455 C457 1.372 . S
C455 H472 0.931 . S
C456 C453 1.382 . S
C456 C457 1.390 . S
C456 H473 0.931 . S
C457 C455 1.372 . S
C457 C456 1.390 . S
C457 H474 0.929 . S
C458 C453 1.390 . S
C458 C454 1.392 . S
C458 H475 0.930 . S
C459 O444 1.255 . S
C459 O445 1.257 . S
C460 Eu396 2.787 . S
C460 O440 1.252 . S
C460 O443 1.268 . S
C460 C453 1.506 . S
C461 C428 1.439 . S
C461 H438 0.931 . S
C461 C462 1.374 . S
C462 C433 1.387 . S
C462 H439 0.931 . S
C462 C461 1.374 . S
C463 O447 1.249 . S
C463 O448 1.264 . S
C464 C467 1.382 . S
C464 C468 1.390 . S
C464 C471 1.506 . S
C465 C466 1.398 . S
C465 C468 1.392 . S
C466 C465 1.398 . S
C466 C469 1.372 . S
C466 H476 0.931 . S
C467 C464 1.382 . S
C467 C469 1.390 . S
C467 H477 0.931 . S
C468 C464 1.390 . S
C468 C465 1.392 . S
C468 H478 0.930 . S
C469 C466 1.372 . S
C469 C467 1.390 . S
C469 H479 0.929 . S
C470 O450 1.255 . S
C470 O451 1.257 . S
C471 Eu407 2.787 . S
C471 O446 1.252 . S
C471 O449 1.268 . S
C471 C464 1.506 . S
H472 C455 0.931 . S
H473 C456 0.931 . S
H474 C457 0.929 . S
H475 C458 0.930 . S
H476 C466 0.931 . S
H477 C467 0.931 . S
H478 C468 0.930 . S
H479 C469 0.929 . S
Eu480 N509 2.600 . S
Eu480 N515 2.562 1_545 S
Eu480 O524 2.462 . S
Eu480 O525 2.373 1_545 S
Eu480 O527 2.432 . S
Eu480 O528 2.291 . S
Eu480 O532 2.335 . S
Eu480 O535 2.372 . S
Eu480 C544 2.787 . S
C481 N482 1.365 . S
C481 C484 1.405 . S
C481 C488 1.448 . S
N482 C481 1.365 . S
N482 C485 1.319 . S
N482 Eu491 2.600 . S
C483 C485 1.397 . S
C483 C486 1.367 . S
C483 H503 0.931 . S
C484 C481 1.405 . S
C484 C486 1.403 . S
C484 C490 1.439 . S
C485 N482 1.319 . S
C485 C483 1.397 . S
C485 H496 0.930 . S
C486 C483 1.367 . S
C486 C484 1.403 . S
C486 H507 0.929 . S
C487 C488 1.430 . S
C487 C489 1.387 . S
C487 C493 1.404 . S
C488 C481 1.448 . S
C488 C487 1.430 . S
C488 N492 1.351 . S
C489 C487 1.387 . S
C489 C490 1.374 . S
C489 H504 0.931 . S
C490 C484 1.439 . S
C490 C489 1.374 . S
C490 H505 0.931 . S
Eu491 N482 2.600 . S
Eu491 N492 2.562 . S
Eu491 O526 2.335 1_545 S
Eu491 O529 2.372 . S
Eu491 O530 2.462 . S
Eu491 O531 2.373 . S
Eu491 O533 2.432 . S
Eu491 O534 2.291 . S
Eu491 C555 2.787 . S
N492 C488 1.351 . S
N492 Eu491 2.562 . S
N492 C494 1.325 . S
C493 C487 1.404 . S
C493 C495 1.366 . S
C493 H501 0.930 . S
C494 N492 1.325 . S
C494 C495 1.416 . S
C494 H500 0.929 . S
C495 C493 1.366 . S
C495 C494 1.416 . S
C495 H497 0.930 . S
H496 C485 0.930 . S
H497 C495 0.930 . S
H498 C513 0.930 . S
H499 C520 0.930 . S
H500 C494 0.929 . S
H501 C493 0.930 . S
H502 C516 0.894 1_545 S
H503 C483 0.931 . S
H504 C489 0.931 . S
H505 C490 0.931 . S
H506 C511 0.931 . S
H507 C486 0.929 . S
H508 C519 0.930 . S
N509 Eu480 2.600 . S
N509 C510 1.365 1_545 S
N509 C513 1.319 . S
C510 N509 1.365 1_565 S
C510 C512 1.405 . S
C510 C518 1.448 . S
C511 H506 0.931 . S
C511 C513 1.397 1_565 S
C511 C514 1.367 . S
C512 C510 1.405 . S
C512 C514 1.403 . S
C512 C545 1.439 . S
C513 H498 0.930 . S
C513 N509 1.319 . S
C513 C511 1.397 1_545 S
C514 C511 1.367 . S
C514 C512 1.403 . S
C514 H521 0.929 . S
N515 Eu480 2.562 1_565 S
N515 C516 1.325 . S
N515 C518 1.351 . S
C516 H502 0.894 1_565 S
C516 N515 1.325 . S
C516 C520 1.416 . S
C517 C518 1.430 . S
C517 C519 1.404 . S
C517 C546 1.387 . S
C518 C510 1.448 . S
C518 N515 1.351 . S
C518 C517 1.430 . S
C519 H508 0.930 . S
C519 C517 1.404 . S
C519 C520 1.366 . S
C520 H499 0.930 . S
C520 C516 1.416 . S
C520 C519 1.366 . S
H521 C514 0.929 . S
H522 C545 0.931 . S
H523 C546 0.931 . S
O524 Eu480 2.462 . S
O524 C544 1.252 . S
O525 Eu480 2.373 1_565 S
O525 C536 1.249 . S
O526 Eu491 2.335 1_565 S
O526 C536 1.264 . S
O527 Eu480 2.432 . S
O527 C544 1.268 . S
O528 Eu480 2.291 . S
O528 C543 1.255 . S
O529 Eu491 2.372 . S
O529 C543 1.257 . S
O530 Eu491 2.462 . S
O530 C555 1.252 . S
O531 Eu491 2.373 . S
O531 C547 1.249 . S
O532 Eu480 2.335 . S
O532 C547 1.264 . S
O533 Eu491 2.432 . S
O533 C555 1.268 . S
O534 Eu491 2.291 . S
O534 C554 1.255 . S
O535 Eu480 2.372 . S
O535 C554 1.257 . S
C536 O525 1.249 . S
C536 O526 1.264 . S
C537 C540 1.382 . S
C537 C542 1.390 . S
C537 C544 1.506 . S
C538 C539 1.398 . S
C538 C542 1.392 . S
C539 C538 1.398 . S
C539 C541 1.372 . S
C539 H556 0.931 . S
C540 C537 1.382 . S
C540 C541 1.390 . S
C540 H557 0.931 . S
C541 C539 1.372 . S
C541 C540 1.390 . S
C541 H558 0.929 . S
C542 C537 1.390 . S
C542 C538 1.392 . S
C542 H559 0.930 . S
C543 O528 1.255 . S
C543 O529 1.257 . S
C544 Eu480 2.787 . S
C544 O524 1.252 . S
C544 O527 1.268 . S
C544 C537 1.506 . S
C545 C512 1.439 . S
C545 H522 0.931 . S
C545 C546 1.374 . S
C546 C517 1.387 . S
C546 H523 0.931 . S
C546 C545 1.374 . S
C547 O531 1.249 . S
C547 O532 1.264 . S
C548 C551 1.382 . S
C548 C552 1.392 . S
C548 C555 1.504 1_565 S
C549 C550 1.398 . S
C549 C552 1.392 . S
C550 C549 1.398 . S
C550 C553 1.372 . S
C550 H560 0.931 . S
C551 C548 1.382 . S
C551 C553 1.390 . S
C551 H561 0.931 . S
C552 C548 1.392 . S
C552 C549 1.392 . S
C552 H562 0.930 . S
C553 C550 1.372 . S
C553 C551 1.390 . S
C553 H563 0.929 . S
C554 O534 1.255 . S
C554 O535 1.257 . S
C555 Eu491 2.787 . S
C555 O530 1.252 . S
C555 O533 1.268 . S
C555 C548 1.504 1_545 S
H556 C539 0.931 . S
H557 C540 0.931 . S
H558 C541 0.929 . S
H559 C542 0.930 . S
H560 C550 0.931 . S
H561 C551 0.931 . S
H562 C552 0.930 . S
H563 C553 0.929 . S
Eu564 N593 2.600 . S
Eu564 N599 2.562 . S
Eu564 O608 2.462 . S
Eu564 O609 2.373 . S
Eu564 O611 2.432 . S
Eu564 O612 2.291 . S
Eu564 O616 2.335 . S
Eu564 O619 2.372 . S
Eu564 C628 2.787 . S
C565 N566 1.365 . S
C565 C568 1.405 . S
C565 C572 1.448 . S
N566 C565 1.365 . S
N566 C569 1.319 . S
N566 Eu575 2.600 . S
C567 C569 1.397 . S
C567 C570 1.367 . S
C567 H587 0.931 . S
C568 C565 1.405 . S
C568 C570 1.403 . S
C568 C574 1.439 . S
C569 N566 1.319 . S
C569 C567 1.397 . S
C569 H580 0.930 . S
C570 C567 1.367 . S
C570 C568 1.403 . S
C570 H591 0.929 . S
C571 C572 1.430 . S
C571 C573 1.387 . S
C571 C577 1.404 . S
C572 C565 1.448 . S
C572 C571 1.430 . S
C572 N576 1.351 . S
C573 C571 1.387 . S
C573 C574 1.374 . S
C573 H588 0.931 . S
C574 C568 1.439 . S
C574 C573 1.374 . S
C574 H589 0.931 . S
Eu575 N566 2.600 . S
Eu575 N576 2.562 . S
Eu575 O610 2.335 . S
Eu575 O613 2.372 . S
Eu575 O614 2.462 . S
Eu575 O615 2.373 . S
Eu575 O617 2.432 . S
Eu575 O618 2.291 . S
Eu575 C639 2.787 . S
N576 C572 1.351 . S
N576 Eu575 2.562 . S
N576 C578 1.325 . S
C577 C571 1.404 . S
C577 C579 1.366 . S
C577 H585 0.930 . S
C578 N576 1.325 . S
C578 C579 1.416 . S
C578 H584 0.929 . S
C579 C577 1.366 . S
C579 C578 1.416 . S
C579 H581 0.930 . S
H580 C569 0.930 . S
H581 C579 0.930 . S
H582 C597 0.930 . S
H583 C604 0.930 . S
H584 C578 0.929 . S
H585 C577 0.930 . S
H586 C600 0.929 . S
H587 C567 0.931 . S
H588 C573 0.931 . S
H589 C574 0.931 . S
H590 C595 0.931 . S
H591 C570 0.929 . S
H592 C603 0.930 . S
N593 Eu564 2.600 . S
N593 C594 1.365 . S
N593 C597 1.319 . S
C594 N593 1.365 . S
C594 C596 1.405 . S
C594 C602 1.448 . S
C595 H590 0.931 . S
C595 C597 1.397 . S
C595 C598 1.367 . S
C596 C594 1.405 . S
C596 C598 1.403 . S
C596 C629 1.439 . S
C597 H582 0.930 . S
C597 N593 1.319 . S
C597 C595 1.397 . S
C598 C595 1.367 . S
C598 C596 1.403 . S
C598 H605 0.929 . S
N599 Eu564 2.562 . S
N599 C600 1.325 . S
N599 C602 1.351 . S
C600 H586 0.929 . S
C600 N599 1.325 . S
C600 C604 1.416 . S
C601 C602 1.430 . S
C601 C603 1.404 . S
C601 C630 1.387 . S
C602 C594 1.448 . S
C602 N599 1.351 . S
C602 C601 1.430 . S
C603 H592 0.930 . S
C603 C601 1.404 . S
C603 C604 1.366 . S
C604 H583 0.930 . S
C604 C600 1.416 . S
C604 C603 1.366 . S
H605 C598 0.929 . S
H606 C629 0.931 . S
H607 C630 0.931 . S
O608 Eu564 2.462 . S
O608 C628 1.252 . S
O609 Eu564 2.373 . S
O609 C620 1.249 . S
O610 Eu575 2.335 . S
O610 C620 1.264 . S
O611 Eu564 2.432 . S
O611 C628 1.268 . S
O612 Eu564 2.291 . S
O612 C627 1.255 . S
O613 Eu575 2.372 . S
O613 C627 1.257 . S
O614 Eu575 2.462 . S
O614 C639 1.252 . S
O615 Eu575 2.373 . S
O615 C631 1.249 . S
O616 Eu564 2.335 . S
O616 C631 1.264 . S
O617 Eu575 2.432 . S
O617 C639 1.268 . S
O618 Eu575 2.291 . S
O618 C638 1.255 . S
O619 Eu564 2.372 . S
O619 C638 1.257 . S
C620 O609 1.249 . S
C620 O610 1.264 . S
C621 C624 1.382 . S
C621 C626 1.390 . S
C621 C628 1.506 . S
C622 C623 1.398 . S
C622 C626 1.392 . S
C623 C622 1.398 . S
C623 C625 1.372 . S
C623 H640 0.931 . S
C624 C621 1.382 . S
C624 C625 1.390 . S
C624 H641 0.931 . S
C625 C623 1.372 . S
C625 C624 1.390 . S
C625 H642 0.929 . S
C626 C621 1.390 . S
C626 C622 1.392 . S
C626 H643 0.930 . S
C627 O612 1.255 . S
C627 O613 1.257 . S
C628 Eu564 2.787 . S
C628 O608 1.252 . S
C628 O611 1.268 . S
C628 C621 1.506 . S
C629 C596 1.439 . S
C629 H606 0.931 . S
C629 C630 1.374 . S
C630 C601 1.387 . S
C630 H607 0.931 . S
C630 C629 1.374 . S
C631 O615 1.249 . S
C631 O616 1.264 . S
C632 C635 1.382 . S
C632 C636 1.390 . S
C632 C639 1.506 . S
C633 C634 1.398 . S
C633 C636 1.392 . S
C634 C633 1.398 . S
C634 C637 1.372 . S
C634 H644 0.931 . S
C635 C632 1.382 . S
C635 C637 1.390 . S
C635 H645 0.931 . S
C636 C632 1.390 . S
C636 C633 1.392 . S
C636 H646 0.930 . S
C637 C634 1.372 . S
C637 C635 1.390 . S
C637 H647 0.929 . S
C638 O618 1.255 . S
C638 O619 1.257 . S
C639 Eu575 2.787 . S
C639 O614 1.252 . S
C639 O617 1.268 . S
C639 C632 1.506 . S
H640 C623 0.931 . S
H641 C624 0.931 . S
H642 C625 0.929 . S
H643 C626 0.930 . S
H644 C634 0.931 . S
H645 C635 0.931 . S
H646 C636 0.930 . S
H647 C637 0.929 . S
Eu648 N677 2.589 1_545 S
Eu648 N683 2.544 1_545 S
Eu648 O692 2.438 1_545 S
Eu648 O693 2.390 . S
Eu648 O695 2.409 1_545 S
Eu648 O696 2.300 . S
Eu648 O700 2.345 . S
Eu648 O703 2.390 . S
Eu648 C712 2.760 1_545 S
C649 N650 1.365 1_455 S
C649 C652 1.405 1_455 S
C649 C656 1.448 . S
N650 C649 1.365 1_655 S
N650 C653 1.319 . S
N650 Eu659 2.600 1_655 S
C651 C653 1.397 . S
C651 C654 1.367 . S
C651 H671 0.931 . S
C652 C649 1.405 1_655 S
C652 C654 1.403 . S
C652 C658 1.439 1_655 S
C653 N650 1.319 . S
C653 C651 1.397 . S
C653 H664 0.930 . S
C654 C651 1.367 . S
C654 C652 1.403 . S
C654 H675 0.929 . S
C655 C656 1.430 . S
C655 C657 1.387 . S
C655 C661 1.404 . S
C656 C649 1.448 . S
C656 C655 1.430 . S
C656 N660 1.351 . S
C657 C655 1.387 . S
C657 C658 1.374 . S
C657 H672 0.931 . S
C658 C652 1.439 1_455 S
C658 C657 1.374 . S
C658 H673 0.931 1_455 S
Eu659 N650 2.600 1_455 S
Eu659 N660 2.562 . S
Eu659 O694 2.335 . S
Eu659 O697 2.372 1_455 S
Eu659 O698 2.462 . S
Eu659 O699 2.373 . S
Eu659 O701 2.432 1_455 S
Eu659 O702 2.291 . S
Eu659 C723 2.787 . S
N660 C656 1.351 . S
N660 Eu659 2.562 . S
N660 C662 1.325 . S
C661 C655 1.404 . S
C661 C663 1.366 . S
C661 H669 0.930 . S
C662 N660 1.325 . S
C662 C663 1.416 . S
C662 H668 0.929 . S
C663 C661 1.366 . S
C663 C662 1.416 . S
C663 H665 0.930 . S
H664 C653 0.930 . S
H665 C663 0.930 . S
H666 C681 0.930 1_545 S
H667 C688 0.930 . S
H668 C662 0.929 . S
H669 C661 0.930 . S
H670 C684 0.929 . S
H671 C651 0.931 . S
H672 C657 0.931 . S
H673 C658 0.931 1_655 S
H674 C679 0.931 . S
H675 C654 0.929 . S
H676 C687 0.930 . S
N677 Eu648 2.589 1_565 S
N677 C678 1.365 . S
N677 C681 1.319 . S
C678 N677 1.365 . S
C678 C680 1.405 . S
C678 C686 1.448 . S
C679 H674 0.931 . S
C679 C681 1.397 . S
C679 C682 1.367 . S
C680 C678 1.405 . S
C680 C682 1.403 . S
C680 C713 1.439 . S
C681 H666 0.930 1_565 S
C681 N677 1.319 . S
C681 C679 1.397 . S
C682 C679 1.367 . S
C682 C680 1.403 . S
C682 H689 0.929 . S
N683 Eu648 2.544 1_565 S
N683 C684 1.325 1_455 S
N683 C686 1.351 . S
C684 H670 0.929 . S
C684 N683 1.325 1_655 S
C684 C688 1.416 . S
C685 C686 1.430 . S
C685 C687 1.404 1_455 S
C685 C714 1.387 . S
C686 C678 1.448 . S
C686 N683 1.351 . S
C686 C685 1.430 . S
C687 H676 0.930 . S
C687 C685 1.404 1_655 S
C687 C688 1.366 . S
C688 H667 0.930 . S
C688 C684 1.416 . S
C688 C687 1.366 . S
H689 C682 0.929 . S
H690 C713 0.931 . S
H691 C714 0.931 . S
O692 Eu648 2.438 1_565 S
O692 C712 1.252 . S
O693 Eu648 2.390 . S
O693 C704 1.249 . S
O694 Eu659 2.335 . S
O694 C704 1.264 . S
O695 Eu648 2.409 1_565 S
O695 C712 1.268 . S
O696 Eu648 2.300 . S
O696 C711 1.255 1_455 S
O697 Eu659 2.372 1_655 S
O697 C711 1.257 . S
O698 Eu659 2.462 . S
O698 C723 1.252 . S
O699 Eu659 2.373 . S
O699 C715 1.249 . S
O700 Eu648 2.345 . S
O700 C715 1.264 . S
O701 Eu659 2.432 1_655 S
O701 C723 1.268 1_655 S
O702 Eu659 2.291 . S
O702 C722 1.255 . S
O703 Eu648 2.390 . S
O703 C722 1.257 . S
C704 O693 1.249 . S
C704 O694 1.264 . S
C705 C708 1.382 . S
C705 C710 1.390 . S
C705 C712 1.506 . S
C706 C707 1.398 . S
C706 C710 1.392 . S
C707 C706 1.398 . S
C707 C709 1.372 . S
C707 H724 0.931 . S
C708 C705 1.382 . S
C708 C709 1.390 . S
C708 H725 0.931 . S
C709 C707 1.372 . S
C709 C708 1.390 . S
C709 H726 0.929 . S
C710 C705 1.390 . S
C710 C706 1.392 . S
C710 H727 0.930 . S
C711 O696 1.255 1_655 S
C711 O697 1.257 . S
C712 Eu648 2.760 1_565 S
C712 O692 1.252 . S
C712 O695 1.268 . S
C712 C705 1.506 . S
C713 C680 1.439 . S
C713 H690 0.931 . S
C713 C714 1.374 . S
C714 C685 1.387 . S
C714 H691 0.931 . S
C714 C713 1.374 . S
C715 O699 1.249 . S
C715 O700 1.264 . S
C716 C719 1.382 1_455 S
C716 C720 1.390 . S
C716 C723 1.506 . S
C717 C718 1.398 1_455 S
C717 C720 1.392 . S
C718 C717 1.398 1_655 S
C718 C721 1.372 . S
C718 H728 0.931 . S
C719 C716 1.382 1_655 S
C719 C721 1.390 . S
C719 H729 0.931 . S
C720 C716 1.390 . S
C720 C717 1.392 . S
C720 H730 0.930 . S
C721 C718 1.372 . S
C721 C719 1.390 . S
C721 H731 0.929 . S
C722 O702 1.255 . S
C722 O703 1.257 . S
C723 Eu659 2.787 . S
C723 O698 1.252 . S
C723 O701 1.268 1_455 S
C723 C716 1.506 . S
H724 C707 0.931 . S
H725 C708 0.931 . S
H726 C709 0.929 . S
H727 C710 0.930 . S
H728 C718 0.931 . S
H729 C719 0.931 . S
H730 C720 0.930 . S
H731 C721 0.929 . S
Eu732 N761 2.600 . S
Eu732 N767 2.562 . S
Eu732 O776 2.462 . S
Eu732 O777 2.373 . S
Eu732 O779 2.432 . S
Eu732 O780 2.291 . S
Eu732 O784 2.335 . S
Eu732 O787 2.372 . S
Eu732 C796 2.787 . S
C733 N734 1.365 . S
C733 C736 1.405 . S
C733 C740 1.448 . S
N734 C733 1.365 . S
N734 C737 1.319 . S
N734 Eu743 2.600 . S
C735 C737 1.397 . S
C735 C738 1.367 . S
C735 H755 0.931 . S
C736 C733 1.405 . S
C736 C738 1.403 . S
C736 C742 1.439 . S
C737 N734 1.319 . S
C737 C735 1.397 . S
C737 H748 0.930 . S
C738 C735 1.367 . S
C738 C736 1.403 . S
C738 H759 0.929 . S
C739 C740 1.430 . S
C739 C741 1.387 . S
C739 C745 1.404 . S
C740 C733 1.448 . S
C740 C739 1.430 . S
C740 N744 1.351 . S
C741 C739 1.387 . S
C741 C742 1.374 . S
C741 H756 0.931 . S
C742 C736 1.439 . S
C742 C741 1.374 . S
C742 H757 0.931 . S
Eu743 N734 2.600 . S
Eu743 N744 2.562 . S
Eu743 O778 2.335 . S
Eu743 O781 2.372 . S
Eu743 O782 2.462 . S
Eu743 O783 2.373 . S
Eu743 O785 2.432 . S
Eu743 O786 2.291 . S
Eu743 C807 2.787 . S
N744 C740 1.351 . S
N744 Eu743 2.562 . S
N744 C746 1.325 . S
C745 C739 1.404 . S
C745 C747 1.366 . S
C745 H753 0.930 . S
C746 N744 1.325 . S
C746 C747 1.416 . S
C746 H752 0.929 . S
C747 C745 1.366 . S
C747 C746 1.416 . S
C747 H749 0.930 . S
H748 C737 0.930 . S
H749 C747 0.930 . S
H750 C765 0.930 . S
H751 C772 0.930 . S
H752 C746 0.929 . S
H753 C745 0.930 . S
H754 C768 0.929 . S
H755 C735 0.931 . S
H756 C741 0.931 . S
H757 C742 0.931 . S
H758 C763 0.931 . S
H759 C738 0.929 . S
H760 C771 0.930 . S
N761 Eu732 2.600 . S
N761 C762 1.365 . S
N761 C765 1.319 . S
C762 N761 1.365 . S
C762 C764 1.405 . S
C762 C770 1.448 . S
C763 H758 0.931 . S
C763 C765 1.397 . S
C763 C766 1.367 . S
C764 C762 1.405 . S
C764 C766 1.403 . S
C764 C797 1.439 . S
C765 H750 0.930 . S
C765 N761 1.319 . S
C765 C763 1.397 . S
C766 C763 1.367 . S
C766 C764 1.403 . S
C766 H773 0.929 . S
N767 Eu732 2.562 . S
N767 C768 1.325 . S
N767 C770 1.351 . S
C768 H754 0.929 . S
C768 N767 1.325 . S
C768 C772 1.416 . S
C769 C770 1.430 . S
C769 C771 1.404 . S
C769 C798 1.387 . S
C770 C762 1.448 . S
C770 N767 1.351 . S
C770 C769 1.430 . S
C771 H760 0.930 . S
C771 C769 1.404 . S
C771 C772 1.366 . S
C772 H751 0.930 . S
C772 C768 1.416 . S
C772 C771 1.366 . S
H773 C766 0.929 . S
H774 C797 0.931 . S
H775 C798 0.931 . S
O776 Eu732 2.462 . S
O776 C796 1.252 . S
O777 Eu732 2.373 . S
O777 C788 1.249 . S
O778 Eu743 2.335 . S
O778 C788 1.264 . S
O779 Eu732 2.432 . S
O779 C796 1.268 . S
O780 Eu732 2.291 . S
O780 C795 1.255 . S
O781 Eu743 2.372 . S
O781 C795 1.257 . S
O782 Eu743 2.462 . S
O782 C807 1.252 . S
O783 Eu743 2.373 . S
O783 C799 1.249 . S
O784 Eu732 2.335 . S
O784 C799 1.264 . S
O785 Eu743 2.432 . S
O785 C807 1.268 . S
O786 Eu743 2.291 . S
O786 C806 1.255 . S
O787 Eu732 2.372 . S
O787 C806 1.257 . S
C788 O777 1.249 . S
C788 O778 1.264 . S
C789 C792 1.382 . S
C789 C794 1.390 . S
C789 C796 1.506 . S
C790 C791 1.398 . S
C790 C794 1.392 . S
C791 C790 1.398 . S
C791 C793 1.372 . S
C791 H808 0.931 . S
C792 C789 1.382 . S
C792 C793 1.390 . S
C792 H809 0.931 . S
C793 C791 1.372 . S
C793 C792 1.390 . S
C793 H810 0.929 . S
C794 C789 1.390 . S
C794 C790 1.392 . S
C794 H811 0.930 . S
C795 O780 1.255 . S
C795 O781 1.257 . S
C796 Eu732 2.787 . S
C796 O776 1.252 . S
C796 O779 1.268 . S
C796 C789 1.506 . S
C797 C764 1.439 . S
C797 H774 0.931 . S
C797 C798 1.374 . S
C798 C769 1.387 . S
C798 H775 0.931 . S
C798 C797 1.374 . S
C799 O783 1.249 . S
C799 O784 1.264 . S
C800 C803 1.382 . S
C800 C804 1.390 . S
C800 C807 1.506 . S
C801 C802 1.398 . S
C801 C804 1.392 . S
C802 C801 1.398 . S
C802 C805 1.372 . S
C802 H812 0.931 . S
C803 C800 1.382 . S
C803 C805 1.390 . S
C803 H813 0.931 . S
C804 C800 1.390 . S
C804 C801 1.392 . S
C804 H814 0.930 . S
C805 C802 1.372 . S
C805 C803 1.390 . S
C805 H815 0.929 . S
C806 O786 1.255 . S
C806 O787 1.257 . S
C807 Eu743 2.787 . S
C807 O782 1.252 . S
C807 O785 1.268 . S
C807 C800 1.506 . S
H808 C791 0.931 . S
H809 C792 0.931 . S
H810 C793 0.929 . S
H811 C794 0.930 . S
H812 C802 0.931 . S
H813 C803 0.931 . S
H814 C804 0.930 . S
H815 C805 0.929 . S
Eu816 N845 2.602 . S
Eu816 N851 2.567 . S
Eu816 O860 2.468 . S
Eu816 O861 2.369 1_556 S
Eu816 O863 2.437 . S
Eu816 O864 2.290 1_556 S
Eu816 O868 2.332 1_556 S
Eu816 O871 2.366 1_556 S
Eu816 C880 2.793 . S
C817 N818 1.365 . S
C817 C820 1.405 . S
C817 C824 1.448 1_565 S
N818 C817 1.365 . S
N818 C821 1.319 . S
N818 Eu827 2.600 1_565 S
C819 C821 1.397 . S
C819 C822 1.367 . S
C819 H839 0.931 . S
C820 C817 1.405 . S
C820 C822 1.403 . S
C820 C826 1.439 . S
C821 N818 1.319 . S
C821 C819 1.397 . S
C821 H832 0.930 . S
C822 C819 1.367 . S
C822 C820 1.403 . S
C822 H843 0.929 . S
C823 C824 1.430 . S
C823 C825 1.387 . S
C823 C829 1.404 . S
C824 C817 1.448 1_545 S
C824 C823 1.430 . S
C824 N828 1.351 . S
C825 C823 1.387 . S
C825 C826 1.374 1_545 S
C825 H840 0.931 . S
C826 C820 1.439 . S
C826 C825 1.374 1_565 S
C826 H841 0.931 . S
Eu827 N818 2.600 1_545 S
Eu827 N828 2.562 . S
Eu827 O862 2.335 . S
Eu827 O865 2.372 1_545 S
Eu827 O866 2.462 . S
Eu827 O867 2.373 . S
Eu827 O869 2.432 1_545 S
Eu827 O870 2.291 . S
Eu827 C891 2.787 1_545 S
N828 C824 1.351 . S
N828 Eu827 2.562 . S
N828 C830 1.325 . S
C829 C823 1.404 . S
C829 C831 1.366 . S
C829 H837 0.930 . S
C830 N828 1.325 . S
C830 C831 1.416 . S
C830 H836 0.929 . S
C831 C829 1.366 . S
C831 C830 1.416 . S
C831 H833 0.930 . S
H832 C821 0.930 . S
H833 C831 0.930 . S
H834 C849 0.930 1_554 S
H835 C856 0.930 . S
H836 C830 0.929 . S
H837 C829 0.930 . S
H838 C852 0.929 1_565 S
H839 C819 0.931 . S
H840 C825 0.931 . S
H841 C826 0.931 . S
H842 C847 0.931 . S
H843 C822 0.929 . S
H844 C855 0.930 1_565 S
N845 Eu816 2.602 . S
N845 C846 1.365 . S
N845 C849 1.319 . S
C846 N845 1.365 . S
C846 C848 1.405 . S
C846 C854 1.448 . S
C847 H842 0.931 . S
C847 C849 1.397 . S
C847 C850 1.367 . S
C848 C846 1.405 . S
C848 C850 1.403 . S
C848 C881 1.439 . S
C849 H834 0.930 1_556 S
C849 N845 1.319 . S
C849 C847 1.397 . S
C850 C847 1.367 . S
C850 C848 1.403 . S
C850 H857 0.929 . S
N851 Eu816 2.567 . S
N851 C852 1.325 . S
N851 C854 1.351 . S
C852 H838 0.929 1_545 S
C852 N851 1.325 . S
C852 C856 1.416 1_545 S
C853 C854 1.430 . S
C853 C855 1.404 . S
C853 C882 1.387 . S
C854 C846 1.448 . S
C854 N851 1.351 . S
C854 C853 1.430 . S
C855 H844 0.930 1_545 S
C855 C853 1.404 . S
C855 C856 1.366 1_545 S
C856 H835 0.930 . S
C856 C852 1.416 1_565 S
C856 C855 1.366 1_565 S
H857 C850 0.929 . S
H858 C881 0.931 . S
H859 C882 0.931 . S
O860 Eu816 2.468 . S
O860 C880 1.252 . S
O861 Eu816 2.369 1_554 S
O861 C872 1.249 . S
O862 Eu827 2.335 . S
O862 C872 1.264 . S
O863 Eu816 2.437 . S
O863 C880 1.268 . S
O864 Eu816 2.290 1_554 S
O864 C879 1.255 1_545 S
O865 Eu827 2.372 1_565 S
O865 C879 1.257 . S
O866 Eu827 2.462 . S
O866 C891 1.252 1_545 S
O867 Eu827 2.373 . S
O867 C883 1.249 . S
O868 Eu816 2.332 1_554 S
O868 C883 1.264 . S
O869 Eu827 2.432 1_565 S
O869 C891 1.268 . S
O870 Eu827 2.291 . S
O870 C890 1.255 . S
O871 Eu816 2.366 1_554 S
O871 C890 1.257 . S
C872 O861 1.249 . S
C872 O862 1.264 . S
C873 C876 1.382 . S
C873 C878 1.390 . S
C873 C880 1.506 . S
C874 C875 1.398 . S
C874 C878 1.392 . S
C875 C874 1.398 . S
C875 C877 1.372 . S
C875 H892 0.931 . S
C876 C873 1.382 . S
C876 C877 1.390 . S
C876 H893 0.931 . S
C877 C875 1.372 . S
C877 C876 1.390 . S
C877 H894 0.929 . S
C878 C873 1.390 . S
C878 C874 1.392 . S
C878 H895 0.930 . S
C879 O864 1.255 1_565 S
C879 O865 1.257 . S
C880 Eu816 2.793 . S
C880 O860 1.252 . S
C880 O863 1.268 . S
C880 C873 1.506 . S
C881 C848 1.439 . S
C881 H858 0.931 . S
C881 C882 1.374 . S
C882 C853 1.387 . S
C882 H859 0.931 . S
C882 C881 1.374 . S
C883 O867 1.249 . S
C883 O868 1.264 . S
C884 C887 1.382 . S
C884 C888 1.390 1_565 S
C884 C891 1.506 . S
C885 C886 1.371 1_545 S
C885 C888 1.400 . S
C886 C885 1.371 1_565 S
C886 C889 1.372 . S
C886 H896 0.931 . S
C887 C884 1.382 . S
C887 C889 1.390 . S
C887 H897 0.931 . S
C888 C884 1.390 1_545 S
C888 C885 1.400 . S
C888 H898 0.930 . S
C889 C886 1.372 . S
C889 C887 1.390 . S
C889 H899 0.929 . S
C890 O870 1.255 . S
C890 O871 1.257 . S
C891 Eu827 2.787 1_565 S
C891 O866 1.252 1_565 S
C891 O869 1.268 . S
C891 C884 1.506 . S
H892 C875 0.931 . S
H893 C876 0.931 . S
H894 C877 0.929 . S
H895 C878 0.930 . S
H896 C886 0.931 . S
H897 C887 0.931 . S
H898 C888 0.930 . S
H899 C889 0.929 . S
Eu900 N929 2.600 . S
Eu900 N935 2.562 . S
Eu900 O944 2.462 . S
Eu900 O945 2.373 . S
Eu900 O947 2.432 . S
Eu900 O948 2.291 . S
Eu900 O952 2.335 . S
Eu900 O955 2.372 . S
Eu900 C964 2.787 . S
C901 N902 1.365 . S
C901 C904 1.405 . S
C901 C908 1.448 . S
N902 C901 1.365 . S
N902 C905 1.319 . S
N902 Eu911 2.600 . S
C903 C905 1.397 . S
C903 C906 1.367 . S
C903 H923 0.931 . S
C904 C901 1.405 . S
C904 C906 1.403 . S
C904 C910 1.439 . S
C905 N902 1.319 . S
C905 C903 1.397 . S
C905 H916 0.930 . S
C906 C903 1.367 . S
C906 C904 1.403 . S
C906 H927 0.929 . S
C907 C908 1.430 . S
C907 C909 1.387 . S
C907 C913 1.404 . S
C908 C901 1.448 . S
C908 C907 1.430 . S
C908 N912 1.351 . S
C909 C907 1.387 . S
C909 C910 1.374 . S
C909 H924 0.931 . S
C910 C904 1.439 . S
C910 C909 1.374 . S
C910 H925 0.931 . S
Eu911 N902 2.600 . S
Eu911 N912 2.562 . S
Eu911 O946 2.335 . S
Eu911 O949 2.372 . S
Eu911 O950 2.462 . S
Eu911 O951 2.373 . S
Eu911 O953 2.432 . S
Eu911 O954 2.291 . S
Eu911 C975 2.787 . S
N912 C908 1.351 . S
N912 Eu911 2.562 . S
N912 C914 1.325 . S
C913 C907 1.404 . S
C913 C915 1.366 . S
C913 H921 0.930 . S
C914 N912 1.325 . S
C914 C915 1.416 . S
C914 H920 0.929 . S
C915 C913 1.366 . S
C915 C914 1.416 . S
C915 H917 0.930 . S
H916 C905 0.930 . S
H917 C915 0.930 . S
H918 C933 0.930 . S
H919 C940 0.930 . S
H920 C914 0.929 . S
H921 C913 0.930 . S
H922 C936 0.929 . S
H923 C903 0.931 . S
H924 C909 0.931 . S
H925 C910 0.931 . S
H926 C931 0.931 . S
H927 C906 0.929 . S
H928 C939 0.930 . S
N929 Eu900 2.600 . S
N929 C930 1.365 . S
N929 C933 1.319 . S
C930 N929 1.365 . S
C930 C932 1.405 . S
C930 C938 1.448 . S
C931 H926 0.931 . S
C931 C933 1.397 . S
C931 C934 1.367 . S
C932 C930 1.405 . S
C932 C934 1.403 . S
C932 C965 1.439 . S
C933 H918 0.930 . S
C933 N929 1.319 . S
C933 C931 1.397 . S
C934 C931 1.367 . S
C934 C932 1.403 . S
C934 H941 0.929 . S
N935 Eu900 2.562 . S
N935 C936 1.325 . S
N935 C938 1.351 . S
C936 H922 0.929 . S
C936 N935 1.325 . S
C936 C940 1.416 . S
C937 C938 1.430 . S
C937 C939 1.404 . S
C937 C966 1.387 . S
C938 C930 1.448 . S
C938 N935 1.351 . S
C938 C937 1.430 . S
C939 H928 0.930 . S
C939 C937 1.404 . S
C939 C940 1.366 . S
C940 H919 0.930 . S
C940 C936 1.416 . S
C940 C939 1.366 . S
H941 C934 0.929 . S
H942 C965 0.931 . S
H943 C966 0.931 . S
O944 Eu900 2.462 . S
O944 C964 1.252 . S
O945 Eu900 2.373 . S
O945 C956 1.249 . S
O946 Eu911 2.335 . S
O946 C956 1.264 . S
O947 Eu900 2.432 . S
O947 C964 1.268 . S
O948 Eu900 2.291 . S
O948 C963 1.255 . S
O949 Eu911 2.372 . S
O949 C963 1.257 . S
O950 Eu911 2.462 . S
O950 C975 1.252 . S
O951 Eu911 2.373 . S
O951 C967 1.249 . S
O952 Eu900 2.335 . S
O952 C967 1.264 . S
O953 Eu911 2.432 . S
O953 C975 1.268 . S
O954 Eu911 2.291 . S
O954 C974 1.255 . S
O955 Eu900 2.372 . S
O955 C974 1.257 . S
C956 O945 1.249 . S
C956 O946 1.264 . S
C957 C960 1.382 . S
C957 C962 1.390 . S
C957 C964 1.506 . S
C958 C959 1.398 . S
C958 C962 1.392 . S
C959 C958 1.398 . S
C959 C961 1.372 . S
C959 H976 0.931 . S
C960 C957 1.382 . S
C960 C961 1.390 . S
C960 H977 0.931 . S
C961 C959 1.372 . S
C961 C960 1.390 . S
C961 H978 0.929 . S
C962 C957 1.390 . S
C962 C958 1.392 . S
C962 H979 0.930 . S
C963 O948 1.255 . S
C963 O949 1.257 . S
C964 Eu900 2.787 . S
C964 O944 1.252 . S
C964 O947 1.268 . S
C964 C957 1.506 . S
C965 C932 1.439 . S
C965 H942 0.931 . S
C965 C966 1.374 . S
C966 C937 1.387 . S
C966 H943 0.931 . S
C966 C965 1.374 . S
C967 O951 1.249 . S
C967 O952 1.264 . S
C968 C971 1.382 . S
C968 C972 1.390 . S
C968 C975 1.506 . S
C969 C970 1.398 . S
C969 C972 1.392 . S
C970 C969 1.398 . S
C970 C973 1.372 . S
C970 H980 0.931 . S
C971 C968 1.382 . S
C971 C973 1.390 . S
C971 H981 0.931 . S
C972 C968 1.390 . S
C972 C969 1.392 . S
C972 H982 0.930 . S
C973 C970 1.372 . S
C973 C971 1.390 . S
C973 H983 0.929 . S
C974 O954 1.255 . S
C974 O955 1.257 . S
C975 Eu911 2.787 . S
C975 O950 1.252 . S
C975 O953 1.268 . S
C975 C968 1.506 . S
H976 C959 0.931 . S
H977 C960 0.931 . S
H978 C961 0.929 . S
H979 C962 0.930 . S
H980 C970 0.931 . S
H981 C971 0.931 . S
H982 C972 0.930 . S
H983 C973 0.929 . S
Eu984 N1013 2.600 1_554 S
Eu984 N1019 2.562 1_554 S
Eu984 O1028 2.462 . S
Eu984 O1029 2.373 1_554 S
Eu984 O1031 2.432 . S
Eu984 O1032 2.291 . S
Eu984 O1036 2.335 . S
Eu984 O1039 2.372 . S
Eu984 C1048 2.787 . S
C985 N986 1.365 . S
C985 C988 1.405 . S
C985 C992 1.448 . S
N986 C985 1.365 . S
N986 C989 1.319 . S
N986 Eu995 2.600 . S
C987 C989 1.397 . S
C987 C990 1.367 . S
C987 H1007 0.931 . S
C988 C985 1.405 . S
C988 C990 1.403 . S
C988 C994 1.439 . S
C989 N986 1.319 . S
C989 C987 1.397 . S
C989 H1000 0.930 . S
C990 C987 1.367 . S
C990 C988 1.403 . S
C990 H1011 0.929 . S
C991 C992 1.430 . S
C991 C993 1.387 . S
C991 C997 1.404 . S
C992 C985 1.448 . S
C992 C991 1.430 . S
C992 N996 1.351 . S
C993 C991 1.387 . S
C993 C994 1.374 . S
C993 H1008 0.931 . S
C994 C988 1.439 . S
C994 C993 1.374 . S
C994 H1009 0.931 . S
Eu995 N986 2.600 . S
Eu995 N996 2.562 . S
Eu995 O1030 2.335 1_554 S
Eu995 O1033 2.372 . S
Eu995 O1034 2.462 . S
Eu995 O1035 2.373 . S
Eu995 O1037 2.432 . S
Eu995 O1038 2.291 . S
Eu995 C1059 2.787 . S
N996 C992 1.351 . S
N996 Eu995 2.562 . S
N996 C998 1.325 . S
C997 C991 1.404 . S
C997 C999 1.366 . S
C997 H1005 0.930 . S
C998 N996 1.325 . S
C998 C999 1.416 . S
C998 H1004 0.929 . S
C999 C997 1.366 . S
C999 C998 1.416 . S
C999 H1001 0.930 . S
H1000 C989 0.930 . S
H1001 C999 0.930 . S
H1002 C1017 0.930 1_554 S
H1003 C1024 0.930 . S
H1004 C998 0.929 . S
H1005 C997 0.930 . S
H1006 C1020 0.929 1_554 S
H1007 C987 0.931 . S
H1008 C993 0.931 . S
H1009 C994 0.931 . S
H1010 C1015 0.931 . S
H1011 C990 0.929 . S
H1012 C1023 0.930 . S
N1013 Eu984 2.600 1_556 S
N1013 C1014 1.365 . S
N1013 C1017 1.319 . S
C1014 N1013 1.365 . S
C1014 C1016 1.405 . S
C1014 C1022 1.448 . S
C1015 H1010 0.931 . S
C1015 C1017 1.397 . S
C1015 C1018 1.367 . S
C1016 C1014 1.405 . S
C1016 C1018 1.403 . S
C1016 C1049 1.439 . S
C1017 H1002 0.930 1_556 S
C1017 N1013 1.319 . S
C1017 C1015 1.397 . S
C1018 C1015 1.367 . S
C1018 C1016 1.403 . S
C1018 H1025 0.929 . S
N1019 Eu984 2.562 1_556 S
N1019 C1020 1.325 . S
N1019 C1022 1.351 . S
C1020 H1006 0.929 1_556 S
C1020 N1019 1.325 . S
C1020 C1024 1.416 . S
C1021 C1022 1.430 . S
C1021 C1023 1.404 . S
C1021 C1050 1.387 . S
C1022 C1014 1.448 . S
C1022 N1019 1.351 . S
C1022 C1021 1.430 . S
C1023 H1012 0.930 . S
C1023 C1021 1.404 . S
C1023 C1024 1.366 . S
C1024 H1003 0.930 . S
C1024 C1020 1.416 . S
C1024 C1023 1.366 . S
H1025 C1018 0.929 . S
H1026 C1049 0.931 . S
H1027 C1050 0.931 . S
O1028 Eu984 2.462 . S
O1028 C1048 1.252 . S
O1029 Eu984 2.373 1_556 S
O1029 C1040 1.249 . S
O1030 Eu995 2.335 1_556 S
O1030 C1040 1.264 . S
O1031 Eu984 2.432 . S
O1031 C1048 1.268 . S
O1032 Eu984 2.291 . S
O1032 C1047 1.255 . S
O1033 Eu995 2.372 . S
O1033 C1047 1.257 . S
O1034 Eu995 2.462 . S
O1034 C1059 1.252 . S
O1035 Eu995 2.373 . S
O1035 C1051 1.249 . S
O1036 Eu984 2.335 . S
O1036 C1051 1.264 . S
O1037 Eu995 2.432 . S
O1037 C1059 1.268 . S
O1038 Eu995 2.291 . S
O1038 C1058 1.255 . S
O1039 Eu984 2.372 . S
O1039 C1058 1.257 . S
C1040 O1029 1.249 . S
C1040 O1030 1.264 . S
C1041 C1044 1.382 . S
C1041 C1046 1.390 . S
C1041 C1048 1.506 . S
C1042 C1043 1.398 . S
C1042 C1046 1.392 . S
C1043 C1042 1.398 . S
C1043 C1045 1.372 . S
C1043 H1060 0.931 . S
C1044 C1041 1.382 . S
C1044 C1045 1.390 . S
C1044 H1061 0.931 . S
C1045 C1043 1.372 . S
C1045 C1044 1.390 . S
C1045 H1062 0.929 . S
C1046 C1041 1.390 . S
C1046 C1042 1.392 . S
C1046 H1063 0.930 . S
C1047 O1032 1.255 . S
C1047 O1033 1.257 . S
C1048 Eu984 2.787 . S
C1048 O1028 1.252 . S
C1048 O1031 1.268 . S
C1048 C1041 1.506 . S
C1049 C1016 1.439 . S
C1049 H1026 0.931 . S
C1049 C1050 1.374 . S
C1050 C1021 1.387 . S
C1050 H1027 0.931 . S
C1050 C1049 1.374 . S
C1051 O1035 1.249 . S
C1051 O1036 1.264 . S
C1052 C1055 1.382 . S
C1052 C1056 1.390 . S
C1052 C1059 1.506 1_556 S
C1053 C1054 1.398 . S
C1053 C1056 1.392 . S
C1054 C1053 1.398 . S
C1054 C1057 1.372 . S
C1054 H1064 0.931 . S
C1055 C1052 1.382 . S
C1055 C1057 1.390 . S
C1055 H1065 0.931 1_556 S
C1056 C1052 1.390 . S
C1056 C1053 1.392 . S
C1056 H1066 0.930 . S
C1057 C1054 1.372 . S
C1057 C1055 1.390 . S
C1057 H1067 0.929 . S
C1058 O1038 1.255 . S
C1058 O1039 1.257 . S
C1059 Eu995 2.787 . S
C1059 O1034 1.252 . S
C1059 O1037 1.268 . S
C1059 C1052 1.506 1_554 S
H1060 C1043 0.931 . S
H1061 C1044 0.931 . S
H1062 C1045 0.929 . S
H1063 C1046 0.930 . S
H1064 C1054 0.931 . S
H1065 C1055 0.931 1_554 S
H1066 C1056 0.930 . S
H1067 C1057 0.929 . S
Eu1068 N1097 2.600 . S
Eu1068 N1103 2.562 . S
Eu1068 O1112 2.462 . S
Eu1068 O1113 2.373 . S
Eu1068 O1115 2.432 . S
Eu1068 O1116 2.291 . S
Eu1068 O1120 2.335 . S
Eu1068 O1123 2.372 . S
Eu1068 C1132 2.787 . S
C1069 N1070 1.365 . S
C1069 C1072 1.405 . S
C1069 C1076 1.448 . S
N1070 C1069 1.365 . S
N1070 C1073 1.319 . S
N1070 Eu1079 2.600 . S
C1071 C1073 1.397 . S
C1071 C1074 1.367 . S
C1071 H1091 0.931 . S
C1072 C1069 1.405 . S
C1072 C1074 1.403 . S
C1072 C1078 1.439 . S
C1073 N1070 1.319 . S
C1073 C1071 1.397 . S
C1073 H1084 0.930 . S
C1074 C1071 1.367 . S
C1074 C1072 1.403 . S
C1074 H1095 0.929 . S
C1075 C1076 1.430 . S
C1075 C1077 1.387 . S
C1075 C1081 1.404 . S
C1076 C1069 1.448 . S
C1076 C1075 1.430 . S
C1076 N1080 1.351 . S
C1077 C1075 1.387 . S
C1077 C1078 1.374 . S
C1077 H1092 0.931 . S
C1078 C1072 1.439 . S
C1078 C1077 1.374 . S
C1078 H1093 0.931 . S
Eu1079 N1070 2.600 . S
Eu1079 N1080 2.562 . S
Eu1079 O1114 2.335 . S
Eu1079 O1117 2.372 . S
Eu1079 O1118 2.462 . S
Eu1079 O1119 2.373 . S
Eu1079 O1121 2.432 . S
Eu1079 O1122 2.291 . S
Eu1079 C1143 2.787 . S
N1080 C1076 1.351 . S
N1080 Eu1079 2.562 . S
N1080 C1082 1.325 . S
C1081 C1075 1.404 . S
C1081 C1083 1.366 . S
C1081 H1089 0.930 . S
C1082 N1080 1.325 . S
C1082 C1083 1.416 . S
C1082 H1088 0.929 . S
C1083 C1081 1.366 . S
C1083 C1082 1.416 . S
C1083 H1085 0.930 . S
H1084 C1073 0.930 . S
H1085 C1083 0.930 . S
H1086 C1101 0.930 . S
H1087 C1108 0.930 . S
H1088 C1082 0.929 . S
H1089 C1081 0.930 . S
H1090 C1104 0.929 . S
H1091 C1071 0.931 . S
H1092 C1077 0.931 . S
H1093 C1078 0.931 . S
H1094 C1099 0.931 . S
H1095 C1074 0.929 . S
H1096 C1107 0.930 . S
N1097 Eu1068 2.600 . S
N1097 C1098 1.365 . S
N1097 C1101 1.319 . S
C1098 N1097 1.365 . S
C1098 C1100 1.405 . S
C1098 C1106 1.448 . S
C1099 H1094 0.931 . S
C1099 C1101 1.397 . S
C1099 C1102 1.367 . S
C1100 C1098 1.405 . S
C1100 C1102 1.403 . S
C1100 C1133 1.439 . S
C1101 H1086 0.930 . S
C1101 N1097 1.319 . S
C1101 C1099 1.397 . S
C1102 C1099 1.367 . S
C1102 C1100 1.403 . S
C1102 H1109 0.929 . S
N1103 Eu1068 2.562 . S
N1103 C1104 1.325 . S
N1103 C1106 1.351 . S
C1104 H1090 0.929 . S
C1104 N1103 1.325 . S
C1104 C1108 1.416 . S
C1105 C1106 1.430 . S
C1105 C1107 1.404 . S
C1105 C1134 1.387 . S
C1106 C1098 1.448 . S
C1106 N1103 1.351 . S
C1106 C1105 1.430 . S
C1107 H1096 0.930 . S
C1107 C1105 1.404 . S
C1107 C1108 1.366 . S
C1108 H1087 0.930 . S
C1108 C1104 1.416 . S
C1108 C1107 1.366 . S
H1109 C1102 0.929 . S
H1110 C1133 0.931 . S
H1111 C1134 0.931 . S
O1112 Eu1068 2.462 . S
O1112 C1132 1.252 . S
O1113 Eu1068 2.373 . S
O1113 C1124 1.249 . S
O1114 Eu1079 2.335 . S
O1114 C1124 1.264 . S
O1115 Eu1068 2.432 . S
O1115 C1132 1.268 . S
O1116 Eu1068 2.291 . S
O1116 C1131 1.255 . S
O1117 Eu1079 2.372 . S
O1117 C1131 1.257 . S
O1118 Eu1079 2.462 . S
O1118 C1143 1.252 . S
O1119 Eu1079 2.373 . S
O1119 C1135 1.249 . S
O1120 Eu1068 2.335 . S
O1120 C1135 1.264 . S
O1121 Eu1079 2.432 . S
O1121 C1143 1.268 . S
O1122 Eu1079 2.291 . S
O1122 C1142 1.255 . S
O1123 Eu1068 2.372 . S
O1123 C1142 1.257 . S
C1124 O1113 1.249 . S
C1124 O1114 1.264 . S
C1125 C1128 1.382 . S
C1125 C1130 1.390 . S
C1125 C1132 1.506 . S
C1126 C1127 1.398 . S
C1126 C1130 1.392 . S
C1127 C1126 1.398 . S
C1127 C1129 1.372 . S
C1127 H1144 0.931 . S
C1128 C1125 1.382 . S
C1128 C1129 1.390 . S
C1128 H1145 0.931 . S
C1129 C1127 1.372 . S
C1129 C1128 1.390 . S
C1129 H1146 0.929 . S
C1130 C1125 1.390 . S
C1130 C1126 1.392 . S
C1130 H1147 0.930 . S
C1131 O1116 1.255 . S
C1131 O1117 1.257 . S
C1132 Eu1068 2.787 . S
C1132 O1112 1.252 . S
C1132 O1115 1.268 . S
C1132 C1125 1.506 . S
C1133 C1100 1.439 . S
C1133 H1110 0.931 . S
C1133 C1134 1.374 . S
C1134 C1105 1.387 . S
C1134 H1111 0.931 . S
C1134 C1133 1.374 . S
C1135 O1119 1.249 . S
C1135 O1120 1.264 . S
C1136 C1139 1.382 . S
C1136 C1140 1.390 . S
C1136 C1143 1.506 . S
C1137 C1138 1.398 . S
C1137 C1140 1.392 . S
C1138 C1137 1.398 . S
C1138 C1141 1.372 . S
C1138 H1148 0.931 . S
C1139 C1136 1.382 . S
C1139 C1141 1.390 . S
C1139 H1149 0.931 . S
C1140 C1136 1.390 . S
C1140 C1137 1.392 . S
C1140 H1150 0.930 . S
C1141 C1138 1.372 . S
C1141 C1139 1.390 . S
C1141 H1151 0.929 . S
C1142 O1122 1.255 . S
C1142 O1123 1.257 . S
C1143 Eu1079 2.787 . S
C1143 O1118 1.252 . S
C1143 O1121 1.268 . S
C1143 C1136 1.506 . S
H1144 C1127 0.931 . S
H1145 C1128 0.931 . S
H1146 C1129 0.929 . S
H1147 C1130 0.930 . S
H1148 C1138 0.931 . S
H1149 C1139 0.931 . S
H1150 C1140 0.930 . S
H1151 C1141 0.929 . S
Eu1152 N1181 2.600 . S
Eu1152 N1187 2.562 1_455 S
Eu1152 O1196 2.462 . S
Eu1152 O1197 2.373 1_455 S
Eu1152 O1199 2.432 . S
Eu1152 O1200 2.291 . S
Eu1152 O1204 2.335 . S
Eu1152 O1207 2.372 . S
Eu1152 C1216 2.787 . S
C1153 N1154 1.365 . S
C1153 C1156 1.405 . S
C1153 C1160 1.448 . S
N1154 C1153 1.365 . S
N1154 C1157 1.319 . S
N1154 Eu1163 2.600 . S
C1155 C1157 1.397 . S
C1155 C1158 1.367 . S
C1155 H1175 0.931 . S
C1156 C1153 1.405 . S
C1156 C1158 1.403 . S
C1156 C1162 1.439 . S
C1157 N1154 1.319 . S
C1157 C1155 1.397 . S
C1157 H1168 0.930 . S
C1158 C1155 1.367 . S
C1158 C1156 1.403 . S
C1158 H1179 0.929 . S
C1159 C1160 1.430 . S
C1159 C1161 1.387 . S
C1159 C1165 1.404 . S
C1160 C1153 1.448 . S
C1160 C1159 1.430 . S
C1160 N1164 1.351 . S
C1161 C1159 1.387 . S
C1161 C1162 1.374 . S
C1161 H1176 0.931 . S
C1162 C1156 1.439 . S
C1162 C1161 1.374 . S
C1162 H1177 0.931 . S
Eu1163 N1154 2.600 . S
Eu1163 N1164 2.562 . S
Eu1163 O1198 2.335 1_455 S
Eu1163 O1201 2.372 . S
Eu1163 O1202 2.462 . S
Eu1163 O1203 2.373 . S
Eu1163 O1205 2.432 . S
Eu1163 O1206 2.291 . S
Eu1163 C1227 2.787 . S
N1164 C1160 1.351 . S
N1164 Eu1163 2.562 . S
N1164 C1166 1.325 . S
C1165 C1159 1.404 . S
C1165 C1167 1.366 . S
C1165 H1173 0.930 . S
C1166 N1164 1.325 . S
C1166 C1167 1.416 . S
C1166 H1172 0.929 . S
C1167 C1165 1.366 . S
C1167 C1166 1.416 . S
C1167 H1169 0.930 . S
H1168 C1157 0.930 . S
H1169 C1167 0.930 . S
H1170 C1185 0.930 . S
H1171 C1192 0.930 . S
H1172 C1166 0.929 . S
H1173 C1165 0.930 . S
H1174 C1188 0.929 1_455 S
H1175 C1155 0.931 . S
H1176 C1161 0.931 . S
H1177 C1162 0.931 . S
H1178 C1183 0.931 . S
H1179 C1158 0.929 . S
H1180 C1191 0.930 . S
N1181 Eu1152 2.600 . S
N1181 C1182 1.365 1_455 S
N1181 C1185 1.319 . S
C1182 N1181 1.365 1_655 S
C1182 C1184 1.405 . S
C1182 C1190 1.448 . S
C1183 H1178 0.931 . S
C1183 C1185 1.397 1_655 S
C1183 C1186 1.367 . S
C1184 C1182 1.405 . S
C1184 C1186 1.403 . S
C1184 C1217 1.439 . S
C1185 H1170 0.930 . S
C1185 N1181 1.319 . S
C1185 C1183 1.397 1_455 S
C1186 C1183 1.367 . S
C1186 C1184 1.403 . S
C1186 H1193 0.929 . S
N1187 Eu1152 2.562 1_655 S
N1187 C1188 1.325 . S
N1187 C1190 1.351 . S
C1188 H1174 0.929 1_655 S
C1188 N1187 1.325 . S
C1188 C1192 1.416 . S
C1189 C1190 1.430 . S
C1189 C1191 1.404 . S
C1189 C1218 1.387 . S
C1190 C1182 1.448 . S
C1190 N1187 1.351 . S
C1190 C1189 1.430 . S
C1191 H1180 0.930 . S
C1191 C1189 1.404 . S
C1191 C1192 1.366 . S
C1192 H1171 0.930 . S
C1192 C1188 1.416 . S
C1192 C1191 1.366 . S
H1193 C1186 0.929 . S
H1194 C1217 0.931 . S
H1195 C1218 0.931 . S
O1196 Eu1152 2.462 . S
O1196 C1216 1.252 . S
O1197 Eu1152 2.373 1_655 S
O1197 C1208 1.249 . S
O1198 Eu1163 2.335 1_655 S
O1198 C1208 1.264 . S
O1199 Eu1152 2.432 . S
O1199 C1216 1.268 . S
O1200 Eu1152 2.291 . S
O1200 C1215 1.255 . S
O1201 Eu1163 2.372 . S
O1201 C1215 1.257 . S
O1202 Eu1163 2.462 . S
O1202 C1227 1.252 . S
O1203 Eu1163 2.373 . S
O1203 C1219 1.249 . S
O1204 Eu1152 2.335 . S
O1204 C1219 1.264 . S
O1205 Eu1163 2.432 . S
O1205 C1227 1.268 . S
O1206 Eu1163 2.291 . S
O1206 C1226 1.255 . S
O1207 Eu1152 2.372 . S
O1207 C1226 1.257 . S
C1208 O1197 1.249 . S
C1208 O1198 1.264 . S
C1209 C1212 1.382 . S
C1209 C1214 1.390 . S
C1209 C1216 1.506 . S
C1210 C1211 1.398 . S
C1210 C1214 1.392 . S
C1211 C1210 1.398 . S
C1211 C1213 1.372 . S
C1211 H1228 0.931 . S
C1212 C1209 1.382 . S
C1212 C1213 1.390 . S
C1212 H1229 0.931 . S
C1213 C1211 1.372 . S
C1213 C1212 1.390 . S
C1213 H1230 0.929 . S
C1214 C1209 1.390 . S
C1214 C1210 1.392 . S
C1214 H1231 0.930 . S
C1215 O1200 1.255 . S
C1215 O1201 1.257 . S
C1216 Eu1152 2.787 . S
C1216 O1196 1.252 . S
C1216 O1199 1.268 . S
C1216 C1209 1.506 . S
C1217 C1184 1.439 . S
C1217 H1194 0.931 . S
C1217 C1218 1.374 . S
C1218 C1189 1.387 . S
C1218 H1195 0.931 . S
C1218 C1217 1.374 . S
C1219 O1203 1.249 . S
C1219 O1204 1.264 . S
C1220 C1223 1.382 . S
C1220 C1224 1.390 . S
C1220 C1227 1.506 1_655 S
C1221 C1222 1.398 . S
C1221 C1224 1.392 . S
C1222 C1221 1.398 . S
C1222 C1225 1.372 . S
C1222 H1232 0.931 . S
C1223 C1220 1.382 . S
C1223 C1225 1.390 . S
C1223 H1233 0.931 . S
C1224 C1220 1.390 . S
C1224 C1221 1.392 . S
C1224 H1234 0.930 . S
C1225 C1222 1.372 . S
C1225 C1223 1.390 . S
C1225 H1235 0.929 . S
C1226 O1206 1.255 . S
C1226 O1207 1.257 . S
C1227 Eu1163 2.787 . S
C1227 O1202 1.252 . S
C1227 O1205 1.268 . S
C1227 C1220 1.506 1_455 S
H1228 C1211 0.931 . S
H1229 C1212 0.931 . S
H1230 C1213 0.929 . S
H1231 C1214 0.930 . S
H1232 C1222 0.931 . S
H1233 C1223 0.931 . S
H1234 C1224 0.930 . S
H1235 C1225 0.929 . S
Eu1236 N1265 2.600 . S
Eu1236 N1271 2.562 . S
Eu1236 O1280 2.462 . S
Eu1236 O1281 2.373 . S
Eu1236 O1283 2.432 . S
Eu1236 O1284 2.291 . S
Eu1236 O1288 2.335 . S
Eu1236 O1291 2.372 . S
Eu1236 C1300 2.787 . S
C1237 N1238 1.365 . S
C1237 C1240 1.405 . S
C1237 C1244 1.448 . S
N1238 C1237 1.365 . S
N1238 C1241 1.319 . S
N1238 Eu1247 2.600 . S
C1239 C1241 1.397 . S
C1239 C1242 1.367 . S
C1239 H1259 0.931 . S
C1240 C1237 1.405 . S
C1240 C1242 1.403 . S
C1240 C1246 1.439 . S
C1241 N1238 1.319 . S
C1241 C1239 1.397 . S
C1241 H1252 0.930 . S
C1242 C1239 1.367 . S
C1242 C1240 1.403 . S
C1242 H1263 0.929 . S
C1243 C1244 1.430 . S
C1243 C1245 1.387 . S
C1243 C1249 1.404 . S
C1244 C1237 1.448 . S
C1244 C1243 1.430 . S
C1244 N1248 1.351 . S
C1245 C1243 1.387 . S
C1245 C1246 1.374 . S
C1245 H1260 0.931 . S
C1246 C1240 1.439 . S
C1246 C1245 1.374 . S
C1246 H1261 0.931 . S
Eu1247 N1238 2.600 . S
Eu1247 N1248 2.562 . S
Eu1247 O1282 2.335 . S
Eu1247 O1285 2.372 . S
Eu1247 O1286 2.462 . S
Eu1247 O1287 2.373 . S
Eu1247 O1289 2.432 . S
Eu1247 O1290 2.291 . S
Eu1247 C1311 2.787 . S
N1248 C1244 1.351 . S
N1248 Eu1247 2.562 . S
N1248 C1250 1.325 . S
C1249 C1243 1.404 . S
C1249 C1251 1.366 . S
C1249 H1257 0.930 . S
C1250 N1248 1.325 . S
C1250 C1251 1.416 . S
C1250 H1256 0.929 . S
C1251 C1249 1.366 . S
C1251 C1250 1.416 . S
C1251 H1253 0.930 . S
H1252 C1241 0.930 . S
H1253 C1251 0.930 . S
H1254 C1269 0.930 . S
H1255 C1276 0.930 . S
H1256 C1250 0.929 . S
H1257 C1249 0.930 . S
H1258 C1272 0.929 . S
H1259 C1239 0.931 . S
H1260 C1245 0.931 . S
H1261 C1246 0.931 . S
H1262 C1267 0.931 . S
H1263 C1242 0.929 . S
H1264 C1275 0.930 . S
N1265 Eu1236 2.600 . S
N1265 C1266 1.365 . S
N1265 C1269 1.319 . S
C1266 N1265 1.365 . S
C1266 C1268 1.405 . S
C1266 C1274 1.448 . S
C1267 H1262 0.931 . S
C1267 C1269 1.397 . S
C1267 C1270 1.367 . S
C1268 C1266 1.405 . S
C1268 C1270 1.403 . S
C1268 C1301 1.439 . S
C1269 H1254 0.930 . S
C1269 N1265 1.319 . S
C1269 C1267 1.397 . S
C1270 C1267 1.367 . S
C1270 C1268 1.403 . S
C1270 H1277 0.929 . S
N1271 Eu1236 2.562 . S
N1271 C1272 1.325 . S
N1271 C1274 1.351 . S
C1272 H1258 0.929 . S
C1272 N1271 1.325 . S
C1272 C1276 1.416 . S
C1273 C1274 1.430 . S
C1273 C1275 1.404 . S
C1273 C1302 1.387 . S
C1274 C1266 1.448 . S
C1274 N1271 1.351 . S
C1274 C1273 1.430 . S
C1275 H1264 0.930 . S
C1275 C1273 1.404 . S
C1275 C1276 1.366 . S
C1276 H1255 0.930 . S
C1276 C1272 1.416 . S
C1276 C1275 1.366 . S
H1277 C1270 0.929 . S
H1278 C1301 0.931 . S
H1279 C1302 0.931 . S
O1280 Eu1236 2.462 . S
O1280 C1300 1.252 . S
O1281 Eu1236 2.373 . S
O1281 C1292 1.249 . S
O1282 Eu1247 2.335 . S
O1282 C1292 1.264 . S
O1283 Eu1236 2.432 . S
O1283 C1300 1.268 . S
O1284 Eu1236 2.291 . S
O1284 C1299 1.255 . S
O1285 Eu1247 2.372 . S
O1285 C1299 1.257 . S
O1286 Eu1247 2.462 . S
O1286 C1311 1.252 . S
O1287 Eu1247 2.373 . S
O1287 C1303 1.249 . S
O1288 Eu1236 2.335 . S
O1288 C1303 1.264 . S
O1289 Eu1247 2.432 . S
O1289 C1311 1.268 . S
O1290 Eu1247 2.291 . S
O1290 C1310 1.255 . S
O1291 Eu1236 2.372 . S
O1291 C1310 1.257 . S
C1292 O1281 1.249 . S
C1292 O1282 1.264 . S
C1293 C1296 1.382 . S
C1293 C1298 1.390 . S
C1293 C1300 1.506 . S
C1294 C1295 1.398 . S
C1294 C1298 1.392 . S
C1295 C1294 1.398 . S
C1295 C1297 1.372 . S
C1295 H1312 0.931 . S
C1296 C1293 1.382 . S
C1296 C1297 1.390 . S
C1296 H1313 0.931 . S
C1297 C1295 1.372 . S
C1297 C1296 1.390 . S
C1297 H1314 0.929 . S
C1298 C1293 1.390 . S
C1298 C1294 1.392 . S
C1298 H1315 0.930 . S
C1299 O1284 1.255 . S
C1299 O1285 1.257 . S
C1300 Eu1236 2.787 . S
C1300 O1280 1.252 . S
C1300 O1283 1.268 . S
C1300 C1293 1.506 . S
C1301 C1268 1.439 . S
C1301 H1278 0.931 . S
C1301 C1302 1.374 . S
C1302 C1273 1.387 . S
C1302 H1279 0.931 . S
C1302 C1301 1.374 . S
C1303 O1287 1.249 . S
C1303 O1288 1.264 . S
C1304 C1307 1.382 . S
C1304 C1308 1.390 . S
C1304 C1311 1.506 . S
C1305 C1306 1.398 . S
C1305 C1308 1.392 . S
C1306 C1305 1.398 . S
C1306 C1309 1.372 . S
C1306 H1316 0.931 . S
C1307 C1304 1.382 . S
C1307 C1309 1.390 . S
C1307 H1317 0.931 . S
C1308 C1304 1.390 . S
C1308 C1305 1.392 . S
C1308 H1318 0.930 . S
C1309 C1306 1.372 . S
C1309 C1307 1.390 . S
C1309 H1319 0.929 . S
C1310 O1290 1.255 . S
C1310 O1291 1.257 . S
C1311 Eu1247 2.787 . S
C1311 O1286 1.252 . S
C1311 O1289 1.268 . S
C1311 C1304 1.506 . S
H1312 C1295 0.931 . S
H1313 C1296 0.931 . S
H1314 C1297 0.929 . S
H1315 C1298 0.930 . S
H1316 C1306 0.931 . S
H1317 C1307 0.931 . S
H1318 C1308 0.930 . S
H1319 C1309 0.929 . S
Eu1320 N1349 2.600 . S
Eu1320 N1355 2.562 . S
Eu1320 O1364 2.462 . S
Eu1320 O1365 2.373 . S
Eu1320 O1367 2.432 . S
Eu1320 O1368 2.291 . S
Eu1320 O1372 2.335 . S
Eu1320 O1375 2.372 . S
Eu1320 C1384 2.787 . S
C1321 N1322 1.365 . S
C1321 C1324 1.405 . S
C1321 C1328 1.448 . S
N1322 C1321 1.365 . S
N1322 C1325 1.319 . S
N1322 Eu1331 2.600 . S
C1323 C1325 1.397 . S
C1323 C1326 1.367 . S
C1323 H1343 0.931 . S
C1324 C1321 1.405 . S
C1324 C1326 1.403 . S
C1324 C1330 1.439 . S
C1325 N1322 1.319 . S
C1325 C1323 1.397 . S
C1325 H1336 0.930 . S
C1326 C1323 1.367 . S
C1326 C1324 1.403 . S
C1326 H1347 0.929 . S
C1327 C1328 1.430 . S
C1327 C1329 1.387 . S
C1327 C1333 1.404 . S
C1328 C1321 1.448 . S
C1328 C1327 1.430 . S
C1328 N1332 1.351 . S
C1329 C1327 1.387 . S
C1329 C1330 1.374 . S
C1329 H1344 0.931 . S
C1330 C1324 1.439 . S
C1330 C1329 1.374 . S
C1330 H1345 0.931 . S
Eu1331 N1322 2.600 . S
Eu1331 N1332 2.562 . S
Eu1331 O1366 2.335 . S
Eu1331 O1369 2.372 . S
Eu1331 O1370 2.462 . S
Eu1331 O1371 2.373 . S
Eu1331 O1373 2.432 . S
Eu1331 O1374 2.291 . S
Eu1331 C1395 2.787 . S
N1332 C1328 1.351 . S
N1332 Eu1331 2.562 . S
N1332 C1334 1.325 . S
C1333 C1327 1.404 . S
C1333 C1335 1.366 . S
C1333 H1341 0.930 . S
C1334 N1332 1.325 . S
C1334 C1335 1.416 . S
C1334 H1340 0.929 . S
C1335 C1333 1.366 . S
C1335 C1334 1.416 . S
C1335 H1337 0.930 . S
H1336 C1325 0.930 . S
H1337 C1335 0.930 . S
H1338 C1353 0.930 . S
H1339 C1360 0.930 . S
H1340 C1334 0.929 . S
H1341 C1333 0.930 . S
H1342 C1356 0.929 . S
H1343 C1323 0.931 . S
H1344 C1329 0.931 . S
H1345 C1330 0.931 . S
H1346 C1351 0.931 . S
H1347 C1326 0.929 . S
H1348 C1359 0.930 . S
N1349 Eu1320 2.600 . S
N1349 C1350 1.365 . S
N1349 C1353 1.319 . S
C1350 N1349 1.365 . S
C1350 C1352 1.405 . S
C1350 C1358 1.448 . S
C1351 H1346 0.931 . S
C1351 C1353 1.397 . S
C1351 C1354 1.367 . S
C1352 C1350 1.405 . S
C1352 C1354 1.403 . S
C1352 C1385 1.439 . S
C1353 H1338 0.930 . S
C1353 N1349 1.319 . S
C1353 C1351 1.397 . S
C1354 C1351 1.367 . S
C1354 C1352 1.403 . S
C1354 H1361 0.929 . S
N1355 Eu1320 2.562 . S
N1355 C1356 1.325 . S
N1355 C1358 1.351 . S
C1356 H1342 0.929 . S
C1356 N1355 1.325 . S
C1356 C1360 1.416 . S
C1357 C1358 1.430 . S
C1357 C1359 1.404 . S
C1357 C1386 1.387 . S
C1358 C1350 1.448 . S
C1358 N1355 1.351 . S
C1358 C1357 1.430 . S
C1359 H1348 0.930 . S
C1359 C1357 1.404 . S
C1359 C1360 1.366 . S
C1360 H1339 0.930 . S
C1360 C1356 1.416 . S
C1360 C1359 1.366 . S
H1361 C1354 0.929 . S
H1362 C1385 0.931 . S
H1363 C1386 0.931 . S
O1364 Eu1320 2.462 . S
O1364 C1384 1.252 . S
O1365 Eu1320 2.373 . S
O1365 C1376 1.249 . S
O1366 Eu1331 2.335 . S
O1366 C1376 1.264 . S
O1367 Eu1320 2.432 . S
O1367 C1384 1.268 . S
O1368 Eu1320 2.291 . S
O1368 C1383 1.255 . S
O1369 Eu1331 2.372 . S
O1369 C1383 1.257 . S
O1370 Eu1331 2.462 . S
O1370 C1395 1.252 . S
O1371 Eu1331 2.373 . S
O1371 C1387 1.249 . S
O1372 Eu1320 2.335 . S
O1372 C1387 1.264 . S
O1373 Eu1331 2.432 . S
O1373 C1395 1.268 . S
O1374 Eu1331 2.291 . S
O1374 C1394 1.255 . S
O1375 Eu1320 2.372 . S
O1375 C1394 1.257 . S
C1376 O1365 1.249 . S
C1376 O1366 1.264 . S
C1377 C1380 1.382 . S
C1377 C1382 1.390 . S
C1377 C1384 1.506 . S
C1378 C1379 1.398 . S
C1378 C1382 1.392 . S
C1379 C1378 1.398 . S
C1379 C1381 1.372 . S
C1379 H1396 0.931 . S
C1380 C1377 1.382 . S
C1380 C1381 1.390 . S
C1380 H1397 0.931 . S
C1381 C1379 1.372 . S
C1381 C1380 1.390 . S
C1381 H1398 0.929 . S
C1382 C1377 1.390 . S
C1382 C1378 1.392 . S
C1382 H1399 0.930 . S
C1383 O1368 1.255 . S
C1383 O1369 1.257 . S
C1384 Eu1320 2.787 . S
C1384 O1364 1.252 . S
C1384 O1367 1.268 . S
C1384 C1377 1.506 . S
C1385 C1352 1.439 . S
C1385 H1362 0.931 . S
C1385 C1386 1.374 . S
C1386 C1357 1.387 . S
C1386 H1363 0.931 . S
C1386 C1385 1.374 . S
C1387 O1371 1.249 . S
C1387 O1372 1.264 . S
C1388 C1391 1.382 . S
C1388 C1392 1.390 . S
C1388 C1395 1.506 . S
C1389 C1390 1.398 . S
C1389 C1392 1.392 . S
C1390 C1389 1.398 . S
C1390 C1393 1.372 . S
C1390 H1400 0.931 . S
C1391 C1388 1.382 . S
C1391 C1393 1.390 . S
C1391 H1401 0.931 . S
C1392 C1388 1.390 . S
C1392 C1389 1.392 . S
C1392 H1402 0.930 . S
C1393 C1390 1.372 . S
C1393 C1391 1.390 . S
C1393 H1403 0.929 . S
C1394 O1374 1.255 . S
C1394 O1375 1.257 . S
C1395 Eu1331 2.787 . S
C1395 O1370 1.252 . S
C1395 O1373 1.268 . S
C1395 C1388 1.506 . S
H1396 C1379 0.931 . S
H1397 C1380 0.931 . S
H1398 C1381 0.929 . S
H1399 C1382 0.930 . S
H1400 C1390 0.931 . S
H1401 C1391 0.931 . S
H1402 C1392 0.930 . S
H1403 C1393 0.929 . S
Eu1404 N1433 2.600 . S
Eu1404 N1439 2.562 . S
Eu1404 O1448 2.462 . S
Eu1404 O1449 2.373 . S
Eu1404 O1451 2.432 . S
Eu1404 O1452 2.291 . S
Eu1404 O1456 2.335 . S
Eu1404 O1459 2.372 . S
Eu1404 C1468 2.787 . S
C1405 N1406 1.365 . S
C1405 C1408 1.405 . S
C1405 C1412 1.448 . S
N1406 C1405 1.365 . S
N1406 C1409 1.319 . S
N1406 Eu1415 2.600 . S
C1407 C1409 1.397 . S
C1407 C1410 1.367 . S
C1407 H1427 0.931 . S
C1408 C1405 1.405 . S
C1408 C1410 1.403 . S
C1408 C1414 1.439 . S
C1409 N1406 1.319 . S
C1409 C1407 1.397 . S
C1409 H1420 0.930 . S
C1410 C1407 1.367 . S
C1410 C1408 1.403 . S
C1410 H1431 0.929 . S
C1411 C1412 1.430 . S
C1411 C1413 1.387 . S
C1411 C1417 1.404 . S
C1412 C1405 1.448 . S
C1412 C1411 1.430 . S
C1412 N1416 1.351 . S
C1413 C1411 1.387 . S
C1413 C1414 1.374 . S
C1413 H1428 0.931 . S
C1414 C1408 1.439 . S
C1414 C1413 1.374 . S
C1414 H1429 0.931 . S
Eu1415 N1406 2.600 . S
Eu1415 N1416 2.562 . S
Eu1415 O1450 2.335 . S
Eu1415 O1453 2.372 . S
Eu1415 O1454 2.462 . S
Eu1415 O1455 2.373 . S
Eu1415 O1457 2.432 . S
Eu1415 O1458 2.291 . S
Eu1415 C1479 2.787 . S
N1416 C1412 1.351 . S
N1416 Eu1415 2.562 . S
N1416 C1418 1.325 . S
C1417 C1411 1.404 . S
C1417 C1419 1.366 . S
C1417 H1425 0.930 . S
C1418 N1416 1.325 . S
C1418 C1419 1.416 . S
C1418 H1424 0.929 . S
C1419 C1417 1.366 . S
C1419 C1418 1.416 . S
C1419 H1421 0.930 . S
H1420 C1409 0.930 . S
H1421 C1419 0.930 . S
H1422 C1437 0.930 . S
H1423 C1444 0.930 . S
H1424 C1418 0.929 . S
H1425 C1417 0.930 . S
H1426 C1440 0.929 . S
H1427 C1407 0.931 . S
H1428 C1413 0.931 . S
H1429 C1414 0.931 . S
H1430 C1435 0.931 . S
H1431 C1410 0.929 . S
H1432 C1443 0.930 . S
N1433 Eu1404 2.600 . S
N1433 C1434 1.365 . S
N1433 C1437 1.319 . S
C1434 N1433 1.365 . S
C1434 C1436 1.405 . S
C1434 C1442 1.448 . S
C1435 H1430 0.931 . S
C1435 C1437 1.397 . S
C1435 C1438 1.367 . S
C1436 C1434 1.405 . S
C1436 C1438 1.403 . S
C1436 C1469 1.439 . S
C1437 H1422 0.930 . S
C1437 N1433 1.319 . S
C1437 C1435 1.397 . S
C1438 C1435 1.367 . S
C1438 C1436 1.403 . S
C1438 H1445 0.929 . S
N1439 Eu1404 2.562 . S
N1439 C1440 1.325 . S
N1439 C1442 1.351 . S
C1440 H1426 0.929 . S
C1440 N1439 1.325 . S
C1440 C1444 1.416 . S
C1441 C1442 1.430 . S
C1441 C1443 1.404 . S
C1441 C1470 1.387 . S
C1442 C1434 1.448 . S
C1442 N1439 1.351 . S
C1442 C1441 1.430 . S
C1443 H1432 0.930 . S
C1443 C1441 1.404 . S
C1443 C1444 1.366 . S
C1444 H1423 0.930 . S
C1444 C1440 1.416 . S
C1444 C1443 1.366 . S
H1445 C1438 0.929 . S
H1446 C1469 0.931 . S
H1447 C1470 0.931 . S
O1448 Eu1404 2.462 . S
O1448 C1468 1.252 . S
O1449 Eu1404 2.373 . S
O1449 C1460 1.249 . S
O1450 Eu1415 2.335 . S
O1450 C1460 1.264 . S
O1451 Eu1404 2.432 . S
O1451 C1468 1.268 . S
O1452 Eu1404 2.291 . S
O1452 C1467 1.255 . S
O1453 Eu1415 2.372 . S
O1453 C1467 1.257 . S
O1454 Eu1415 2.462 . S
O1454 C1479 1.252 . S
O1455 Eu1415 2.373 . S
O1455 C1471 1.249 . S
O1456 Eu1404 2.335 . S
O1456 C1471 1.264 . S
O1457 Eu1415 2.432 . S
O1457 C1479 1.268 . S
O1458 Eu1415 2.291 . S
O1458 C1478 1.255 . S
O1459 Eu1404 2.372 . S
O1459 C1478 1.257 . S
C1460 O1449 1.249 . S
C1460 O1450 1.264 . S
C1461 C1464 1.382 . S
C1461 C1466 1.390 . S
C1461 C1468 1.506 . S
C1462 C1463 1.398 . S
C1462 C1466 1.392 . S
C1463 C1462 1.398 . S
C1463 C1465 1.372 . S
C1463 H1480 0.931 . S
C1464 C1461 1.382 . S
C1464 C1465 1.390 . S
C1464 H1481 0.931 . S
C1465 C1463 1.372 . S
C1465 C1464 1.390 . S
C1465 H1482 0.929 . S
C1466 C1461 1.390 . S
C1466 C1462 1.392 . S
C1466 H1483 0.930 . S
C1467 O1452 1.255 . S
C1467 O1453 1.257 . S
C1468 Eu1404 2.787 . S
C1468 O1448 1.252 . S
C1468 O1451 1.268 . S
C1468 C1461 1.506 . S
C1469 C1436 1.439 . S
C1469 H1446 0.931 . S
C1469 C1470 1.374 . S
C1470 C1441 1.387 . S
C1470 H1447 0.931 . S
C1470 C1469 1.374 . S
C1471 O1455 1.249 . S
C1471 O1456 1.264 . S
C1472 C1475 1.382 . S
C1472 C1476 1.390 . S
C1472 C1479 1.506 . S
C1473 C1474 1.398 . S
C1473 C1476 1.392 . S
C1474 C1473 1.398 . S
C1474 C1477 1.372 . S
C1474 H1484 0.931 . S
C1475 C1472 1.382 . S
C1475 C1477 1.390 . S
C1475 H1485 0.931 . S
C1476 C1472 1.390 . S
C1476 C1473 1.392 . S
C1476 H1486 0.930 . S
C1477 C1474 1.372 . S
C1477 C1475 1.390 . S
C1477 H1487 0.929 . S
C1478 O1458 1.255 . S
C1478 O1459 1.257 . S
C1479 Eu1415 2.787 . S
C1479 O1454 1.252 . S
C1479 O1457 1.268 . S
C1479 C1472 1.506 . S
H1480 C1463 0.931 . S
H1481 C1464 0.931 . S
H1482 C1465 0.929 . S
H1483 C1466 0.930 . S
H1484 C1474 0.931 . S
H1485 C1475 0.931 . S
H1486 C1476 0.930 . S
H1487 C1477 0.929 . S
Eu1488 N1517 2.600 . S
Eu1488 N1523 2.562 . S
Eu1488 O1532 2.462 . S
Eu1488 O1533 2.373 . S
Eu1488 O1535 2.432 . S
Eu1488 O1536 2.291 . S
Eu1488 O1540 2.335 . S
Eu1488 O1543 2.372 . S
Eu1488 C1552 2.787 . S
C1489 N1490 1.365 . S
C1489 C1492 1.405 . S
C1489 C1496 1.448 . S
N1490 C1489 1.365 . S
N1490 C1493 1.319 . S
N1490 Eu1499 2.600 . S
C1491 C1493 1.397 . S
C1491 C1494 1.367 . S
C1491 H1511 0.931 . S
C1492 C1489 1.405 . S
C1492 C1494 1.403 . S
C1492 C1498 1.439 . S
C1493 N1490 1.319 . S
C1493 C1491 1.397 . S
C1493 H1504 0.930 . S
C1494 C1491 1.367 . S
C1494 C1492 1.403 . S
C1494 H1515 0.929 . S
C1495 C1496 1.430 . S
C1495 C1497 1.387 . S
C1495 C1501 1.404 . S
C1496 C1489 1.448 . S
C1496 C1495 1.430 . S
C1496 N1500 1.351 . S
C1497 C1495 1.387 . S
C1497 C1498 1.374 . S
C1497 H1512 0.931 . S
C1498 C1492 1.439 . S
C1498 C1497 1.374 . S
C1498 H1513 0.931 . S
Eu1499 N1490 2.600 . S
Eu1499 N1500 2.562 . S
Eu1499 O1534 2.335 . S
Eu1499 O1537 2.372 . S
Eu1499 O1538 2.462 . S
Eu1499 O1539 2.373 . S
Eu1499 O1541 2.432 . S
Eu1499 O1542 2.291 . S
Eu1499 C1563 2.787 . S
N1500 C1496 1.351 . S
N1500 Eu1499 2.562 . S
N1500 C1502 1.325 . S
C1501 C1495 1.404 . S
C1501 C1503 1.366 . S
C1501 H1509 0.930 . S
C1502 N1500 1.325 . S
C1502 C1503 1.416 . S
C1502 H1508 0.929 . S
C1503 C1501 1.366 . S
C1503 C1502 1.416 . S
C1503 H1505 0.930 . S
H1504 C1493 0.930 . S
H1505 C1503 0.930 . S
H1506 C1521 0.930 . S
H1507 C1528 0.930 . S
H1508 C1502 0.929 . S
H1509 C1501 0.930 . S
H1510 C1524 0.929 . S
H1511 C1491 0.931 . S
H1512 C1497 0.931 . S
H1513 C1498 0.931 . S
H1514 C1519 0.931 . S
H1515 C1494 0.929 . S
H1516 C1527 0.930 . S
N1517 Eu1488 2.600 . S
N1517 C1518 1.365 . S
N1517 C1521 1.319 . S
C1518 N1517 1.365 . S
C1518 C1520 1.405 . S
C1518 C1526 1.448 . S
C1519 H1514 0.931 . S
C1519 C1521 1.397 . S
C1519 C1522 1.367 . S
C1520 C1518 1.405 . S
C1520 C1522 1.403 . S
C1520 C1553 1.439 . S
C1521 H1506 0.930 . S
C1521 N1517 1.319 . S
C1521 C1519 1.397 . S
C1522 C1519 1.367 . S
C1522 C1520 1.403 . S
C1522 H1529 0.929 . S
N1523 Eu1488 2.562 . S
N1523 C1524 1.325 . S
N1523 C1526 1.351 . S
C1524 H1510 0.929 . S
C1524 N1523 1.325 . S
C1524 C1528 1.416 . S
C1525 C1526 1.430 . S
C1525 C1527 1.404 . S
C1525 C1554 1.387 . S
C1526 C1518 1.448 . S
C1526 N1523 1.351 . S
C1526 C1525 1.430 . S
C1527 H1516 0.930 . S
C1527 C1525 1.404 . S
C1527 C1528 1.366 . S
C1528 H1507 0.930 . S
C1528 C1524 1.416 . S
C1528 C1527 1.366 . S
H1529 C1522 0.929 . S
H1530 C1553 0.931 . S
H1531 C1554 0.931 . S
O1532 Eu1488 2.462 . S
O1532 C1552 1.252 . S
O1533 Eu1488 2.373 . S
O1533 C1544 1.249 . S
O1534 Eu1499 2.335 . S
O1534 C1544 1.264 . S
O1535 Eu1488 2.432 . S
O1535 C1552 1.268 . S
O1536 Eu1488 2.291 . S
O1536 C1551 1.255 . S
O1537 Eu1499 2.372 . S
O1537 C1551 1.257 . S
O1538 Eu1499 2.462 . S
O1538 C1563 1.252 . S
O1539 Eu1499 2.373 . S
O1539 C1555 1.249 . S
O1540 Eu1488 2.335 . S
O1540 C1555 1.264 . S
O1541 Eu1499 2.432 . S
O1541 C1563 1.268 . S
O1542 Eu1499 2.291 . S
O1542 C1562 1.255 . S
O1543 Eu1488 2.372 . S
O1543 C1562 1.257 . S
C1544 O1533 1.249 . S
C1544 O1534 1.264 . S
C1545 C1548 1.382 . S
C1545 C1550 1.390 . S
C1545 C1552 1.506 . S
C1546 C1547 1.398 . S
C1546 C1550 1.392 . S
C1547 C1546 1.398 . S
C1547 C1549 1.372 . S
C1547 H1564 0.931 . S
C1548 C1545 1.382 . S
C1548 C1549 1.390 . S
C1548 H1565 0.931 . S
C1549 C1547 1.372 . S
C1549 C1548 1.390 . S
C1549 H1566 0.929 . S
C1550 C1545 1.390 . S
C1550 C1546 1.392 . S
C1550 H1567 0.930 . S
C1551 O1536 1.255 . S
C1551 O1537 1.257 . S
C1552 Eu1488 2.787 . S
C1552 O1532 1.252 . S
C1552 O1535 1.268 . S
C1552 C1545 1.506 . S
C1553 C1520 1.439 . S
C1553 H1530 0.931 . S
C1553 C1554 1.374 . S
C1554 C1525 1.387 . S
C1554 H1531 0.931 . S
C1554 C1553 1.374 . S
C1555 O1539 1.249 . S
C1555 O1540 1.264 . S
C1556 C1559 1.382 . S
C1556 C1560 1.390 . S
C1556 C1563 1.506 . S
C1557 C1558 1.398 . S
C1557 C1560 1.392 . S
C1558 C1557 1.398 . S
C1558 C1561 1.372 . S
C1558 H1568 0.931 . S
C1559 C1556 1.382 . S
C1559 C1561 1.390 . S
C1559 H1569 0.931 . S
C1560 C1556 1.390 . S
C1560 C1557 1.392 . S
C1560 H1570 0.930 . S
C1561 C1558 1.372 . S
C1561 C1559 1.390 . S
C1561 H1571 0.929 . S
C1562 O1542 1.255 . S
C1562 O1543 1.257 . S
C1563 Eu1499 2.787 . S
C1563 O1538 1.252 . S
C1563 O1541 1.268 . S
C1563 C1556 1.506 . S
H1564 C1547 0.931 . S
H1565 C1548 0.931 . S
H1566 C1549 0.929 . S
H1567 C1550 0.930 . S
H1568 C1558 0.931 . S
H1569 C1559 0.931 . S
H1570 C1560 0.930 . S
H1571 C1561 0.929 . S
Eu1572 N1601 2.600 1_455 S
Eu1572 N1607 2.562 1_455 S
Eu1572 O1616 2.462 1_455 S
Eu1572 O1617 2.373 . S
Eu1572 O1619 2.432 1_455 S
Eu1572 O1620 2.291 . S
Eu1572 O1624 2.335 . S
Eu1572 O1627 2.372 . S
Eu1572 C1636 2.787 1_455 S
C1573 N1574 1.365 . S
C1573 C1576 1.405 . S
C1573 C1580 1.448 1_556 S
N1574 C1573 1.365 . S
N1574 C1577 1.319 . S
N1574 Eu1583 2.600 1_556 S
C1575 C1577 1.397 . S
C1575 C1578 1.367 . S
C1575 H1595 0.931 . S
C1576 C1573 1.405 . S
C1576 C1578 1.403 . S
C1576 C1582 1.439 . S
C1577 N1574 1.319 . S
C1577 C1575 1.397 . S
C1577 H1588 0.930 . S
C1578 C1575 1.367 . S
C1578 C1576 1.403 . S
C1578 H1599 0.929 . S
C1579 C1580 1.430 . S
C1579 C1581 1.387 1_554 S
C1579 C1585 1.404 . S
C1580 C1573 1.448 1_554 S
C1580 C1579 1.430 . S
C1580 N1584 1.351 . S
C1581 C1579 1.387 1_556 S
C1581 C1582 1.374 . S
C1581 H1596 0.931 1_556 S
C1582 C1576 1.439 . S
C1582 C1581 1.374 . S
C1582 H1597 0.931 . S
Eu1583 N1574 2.600 1_554 S
Eu1583 N1584 2.562 . S
Eu1583 O1618 2.335 . S
Eu1583 O1621 2.372 1_554 S
Eu1583 O1622 2.462 . S
Eu1583 O1623 2.373 . S
Eu1583 O1625 2.432 1_554 S
Eu1583 O1626 2.291 . S
Eu1583 C1647 2.787 1_554 S
N1584 C1580 1.351 . S
N1584 Eu1583 2.562 . S
N1584 C1586 1.325 . S
C1585 C1579 1.404 . S
C1585 C1587 1.366 . S
C1585 H1593 0.930 . S
C1586 N1584 1.325 . S
C1586 C1587 1.416 . S
C1586 H1592 0.929 . S
C1587 C1585 1.366 . S
C1587 C1586 1.416 . S
C1587 H1589 0.930 . S
H1588 C1577 0.930 . S
H1589 C1587 0.930 . S
H1590 C1605 0.945 . S
H1591 C1612 0.930 . S
H1592 C1586 0.929 . S
H1593 C1585 0.930 . S
H1594 C1608 0.929 1_556 S
H1595 C1575 0.931 . S
H1596 C1581 0.931 1_554 S
H1597 C1582 0.931 . S
H1598 C1603 0.931 1_455 S
H1599 C1578 0.929 . S
H1600 C1611 0.930 . S
N1601 Eu1572 2.600 1_655 S
N1601 C1602 1.365 . S
N1601 C1605 1.309 1_655 S
C1602 N1601 1.365 . S
C1602 C1604 1.405 . S
C1602 C1610 1.448 . S
C1603 H1598 0.931 1_655 S
C1603 C1605 1.393 1_655 S
C1603 C1606 1.367 . S
C1604 C1602 1.405 . S
C1604 C1606 1.403 . S
C1604 C1637 1.439 . S
C1605 H1590 0.945 . S
C1605 N1601 1.309 1_455 S
C1605 C1603 1.393 1_455 S
C1606 C1603 1.367 . S
C1606 C1604 1.403 . S
C1606 H1613 0.929 . S
N1607 Eu1572 2.562 1_655 S
N1607 C1608 1.325 . S
N1607 C1610 1.351 . S
C1608 H1594 0.929 1_554 S
C1608 N1607 1.325 . S
C1608 C1612 1.416 1_554 S
C1609 C1610 1.430 . S
C1609 C1611 1.404 . S
C1609 C1638 1.387 . S
C1610 C1602 1.448 . S
C1610 N1607 1.351 . S
C1610 C1609 1.430 . S
C1611 H1600 0.930 . S
C1611 C1609 1.404 . S
C1611 C1612 1.366 1_554 S
C1612 H1591 0.930 . S
C1612 C1608 1.416 1_556 S
C1612 C1611 1.366 1_556 S
H1613 C1606 0.929 . S
H1614 C1637 0.931 . S
H1615 C1638 0.931 . S
O1616 Eu1572 2.462 1_655 S
O1616 C1636 1.252 . S
O1617 Eu1572 2.373 . S
O1617 C1628 1.249 . S
O1618 Eu1583 2.335 . S
O1618 C1628 1.264 . S
O1619 Eu1572 2.432 1_655 S
O1619 C1636 1.268 . S
O1620 Eu1572 2.291 . S
O1620 C1635 1.255 1_554 S
O1621 Eu1583 2.372 1_556 S
O1621 C1635 1.257 . S
O1622 Eu1583 2.462 . S
O1622 C1647 1.252 1_554 S
O1623 Eu1583 2.373 . S
O1623 C1639 1.249 . S
O1624 Eu1572 2.335 . S
O1624 C1639 1.264 . S
O1625 Eu1583 2.432 1_556 S
O1625 C1647 1.268 . S
O1626 Eu1583 2.291 . S
O1626 C1646 1.255 . S
O1627 Eu1572 2.372 . S
O1627 C1646 1.257 . S
C1628 O1617 1.249 . S
C1628 O1618 1.264 . S
C1629 C1632 1.382 . S
C1629 C1634 1.390 . S
C1629 C1636 1.506 . S
C1630 C1631 1.398 . S
C1630 C1634 1.392 . S
C1631 C1630 1.398 . S
C1631 C1633 1.372 . S
C1631 H1648 0.931 . S
C1632 C1629 1.382 . S
C1632 C1633 1.390 . S
C1632 H1649 0.931 . S
C1633 C1631 1.372 . S
C1633 C1632 1.390 . S
C1633 H1650 0.929 . S
C1634 C1629 1.390 . S
C1634 C1630 1.392 . S
C1634 H1651 0.930 . S
C1635 O1620 1.255 1_556 S
C1635 O1621 1.257 . S
C1636 Eu1572 2.787 1_655 S
C1636 O1616 1.252 . S
C1636 O1619 1.268 . S
C1636 C1629 1.506 . S
C1637 C1604 1.439 . S
C1637 H1614 0.931 . S
C1637 C1638 1.374 . S
C1638 C1609 1.387 . S
C1638 H1615 0.931 . S
C1638 C1637 1.374 . S
C1639 O1623 1.249 . S
C1639 O1624 1.264 . S
C1640 C1643 1.382 . S
C1640 C1644 1.390 1_556 S
C1640 C1647 1.506 . S
C1641 C1642 1.398 1_554 S
C1641 C1644 1.392 . S
C1642 C1641 1.398 1_556 S
C1642 C1645 1.372 . S
C1642 H1652 0.931 . S
C1643 C1640 1.382 . S
C1643 C1645 1.390 . S
C1643 H1653 0.931 . S
C1644 C1640 1.390 1_554 S
C1644 C1641 1.392 . S
C1644 H1654 0.930 . S
C1645 C1642 1.372 . S
C1645 C1643 1.390 . S
C1645 H1655 0.929 . S
C1646 O1626 1.255 . S
C1646 O1627 1.257 . S
C1647 Eu1583 2.787 1_556 S
C1647 O1622 1.252 1_556 S
C1647 O1625 1.268 . S
C1647 C1640 1.506 . S
H1648 C1631 0.931 . S
H1649 C1632 0.931 . S
H1650 C1633 0.929 . S
H1651 C1634 0.930 . S
H1652 C1642 0.931 . S
H1653 C1643 0.931 . S
H1654 C1644 0.930 . S
H1655 C1645 0.929 . S
H1656 C1664 0.950 . S
H1657 C1669 0.950 . S
H1658 C1666 0.950 . S
H1659 C1668 0.950 . S
H1660 C1670 0.950 1_655 S
H1661 C1672 0.950 . S
H1662 C1674 0.950 . S
H1663 C1675 0.950 . S
C1664 H1656 0.950 . S
C1664 C1665 1.386 1_454 S
C1664 C1666 1.391 . S
C1665 C1664 1.386 1_656 S
C1665 C1669 1.393 . S
C1666 H1658 0.950 . S
C1666 C1664 1.391 . S
C1666 C1667 1.400 1_554 S
C1667 C1666 1.400 1_556 S
C1667 C1668 1.398 1_455 S
C1667 C1673 1.491 1_556 S
C1668 H1659 0.950 . S
C1668 C1667 1.398 1_655 S
C1668 C1669 1.391 . S
C1669 H1657 0.950 . S
C1669 C1665 1.393 . S
C1669 C1668 1.391 . S
C1670 H1660 0.950 1_455 S
C1670 C1671 1.386 1_556 S
C1670 C1672 1.391 1_455 S
C1671 C1670 1.386 1_554 S
C1671 C1675 1.393 . S
C1672 H1661 0.950 . S
C1672 C1670 1.391 1_655 S
C1672 C1673 1.400 1_656 S
C1673 C1667 1.491 1_554 S
C1673 C1672 1.400 1_454 S
C1673 C1674 1.398 . S
C1674 H1662 0.950 . S
C1674 C1673 1.398 . S
C1674 C1675 1.391 . S
C1675 H1663 0.950 . S
C1675 C1671 1.393 . S
C1675 C1674 1.391 . S
H1676 C1684 0.950 . S
H1677 C1689 0.950 . S
H1678 C1686 0.950 . S
H1679 C1688 0.950 . S
H1680 C1690 0.950 . S
H1681 C1692 0.950 . S
H1682 C1694 0.950 . S
H1683 C1695 0.950 . S
C1684 H1676 0.950 . S
C1684 C1685 1.386 . S
C1684 C1686 1.391 . S
C1685 C1684 1.386 . S
C1685 C1689 1.393 . S
C1686 H1678 0.950 . S
C1686 C1684 1.391 . S
C1686 C1687 1.400 . S
C1687 C1686 1.400 . S
C1687 C1688 1.398 . S
C1687 C1693 1.491 . S
C1688 H1679 0.950 . S
C1688 C1687 1.398 . S
C1688 C1689 1.391 . S
C1689 H1677 0.950 . S
C1689 C1685 1.393 . S
C1689 C1688 1.391 . S
C1690 H1680 0.950 . S
C1690 C1691 1.386 . S
C1690 C1692 1.391 . S
C1691 C1690 1.386 . S
C1691 C1695 1.393 . S
C1692 H1681 0.950 . S
C1692 C1690 1.391 . S
C1692 C1693 1.400 . S
C1693 C1687 1.491 . S
C1693 C1692 1.400 . S
C1693 C1694 1.398 . S
C1694 H1682 0.950 . S
C1694 C1693 1.398 . S
C1694 C1695 1.391 . S
C1695 H1683 0.950 . S
C1695 C1691 1.393 . S
C1695 C1694 1.391 . S
H1696 C1704 0.950 . S
H1697 C1709 0.950 . S
H1698 C1706 0.950 . S
H1699 C1708 0.950 . S
H1700 C1710 0.950 . S
H1701 C1712 0.950 . S
H1702 C1714 0.950 . S
H1703 C1715 0.950 . S
C1704 H1696 0.950 . S
C1704 C1705 1.386 . S
C1704 C1706 1.391 . S
C1705 C1704 1.386 . S
C1705 C1709 1.393 . S
C1706 H1698 0.950 . S
C1706 C1704 1.391 . S
C1706 C1707 1.400 . S
C1707 C1706 1.400 . S
C1707 C1708 1.398 . S
C1707 C1713 1.491 . S
C1708 H1699 0.950 . S
C1708 C1707 1.398 . S
C1708 C1709 1.391 . S
C1709 H1697 0.950 . S
C1709 C1705 1.393 . S
C1709 C1708 1.391 . S
C1710 H1700 0.950 . S
C1710 C1711 1.386 . S
C1710 C1712 1.391 . S
C1711 C1710 1.386 . S
C1711 C1715 1.393 . S
C1712 H1701 0.950 . S
C1712 C1710 1.391 . S
C1712 C1713 1.400 . S
C1713 C1707 1.491 . S
C1713 C1712 1.400 . S
C1713 C1714 1.398 . S
C1714 H1702 0.950 . S
C1714 C1713 1.398 . S
C1714 C1715 1.391 . S
C1715 H1703 0.950 . S
C1715 C1711 1.393 . S
C1715 C1714 1.391 . S
H1716 C1724 0.950 . S
H1717 C1729 0.950 . S
H1718 C1726 0.950 . S
H1719 C1728 0.950 . S
H1720 C1730 0.950 . S
H1721 C1732 0.950 . S
H1722 C1734 0.950 . S
H1723 C1735 0.950 . S
C1724 H1716 0.950 . S
C1724 C1725 1.386 . S
C1724 C1726 1.391 . S
C1725 C1724 1.386 . S
C1725 C1729 1.393 . S
C1726 H1718 0.950 . S
C1726 C1724 1.391 . S
C1726 C1727 1.400 . S
C1727 C1726 1.400 . S
C1727 C1728 1.398 . S
C1727 C1733 1.491 . S
C1728 H1719 0.950 . S
C1728 C1727 1.398 . S
C1728 C1729 1.391 . S
C1729 H1717 0.950 . S
C1729 C1725 1.393 . S
C1729 C1728 1.391 . S
C1730 H1720 0.950 . S
C1730 C1731 1.386 . S
C1730 C1732 1.391 . S
C1731 C1730 1.386 . S
C1731 C1735 1.393 . S
C1732 H1721 0.950 . S
C1732 C1730 1.391 . S
C1732 C1733 1.400 . S
C1733 C1727 1.491 . S
C1733 C1732 1.400 . S
C1733 C1734 1.398 . S
C1734 H1722 0.950 . S
C1734 C1733 1.398 . S
C1734 C1735 1.391 . S
C1735 H1723 0.950 . S
C1735 C1731 1.393 . S
C1735 C1734 1.391 . S
H1736 C1744 0.950 . S
H1737 C1749 0.950 1_655 S
H1738 C1746 0.950 . S
H1739 C1748 0.950 1_655 S
H1740 C1750 0.950 1_655 S
H1741 C1752 0.950 1_655 S
H1742 C1754 0.950 . S
H1743 C1755 0.950 . S
C1744 H1736 0.950 . S
C1744 C1745 1.386 . S
C1744 C1746 1.391 . S
C1745 C1744 1.386 . S
C1745 C1749 1.393 . S
C1746 H1738 0.950 . S
C1746 C1744 1.391 . S
C1746 C1747 1.400 . S
C1747 C1746 1.400 . S
C1747 C1748 1.398 . S
C1747 C1753 1.491 . S
C1748 H1739 0.950 1_455 S
C1748 C1747 1.398 . S
C1748 C1749 1.391 . S
C1749 H1737 0.950 1_455 S
C1749 C1745 1.393 . S
C1749 C1748 1.391 . S
C1750 H1740 0.950 1_455 S
C1750 C1751 1.386 . S
C1750 C1752 1.391 . S
C1751 C1750 1.386 . S
C1751 C1755 1.393 . S
C1752 H1741 0.950 1_455 S
C1752 C1750 1.391 . S
C1752 C1753 1.400 . S
C1753 C1747 1.491 . S
C1753 C1752 1.400 . S
C1753 C1754 1.398 . S
C1754 H1742 0.950 . S
C1754 C1753 1.398 . S
C1754 C1755 1.391 . S
C1755 H1743 0.950 . S
C1755 C1751 1.393 . S
C1755 C1754 1.391 . S
H1756 C1764 0.950 . S
H1757 C1769 0.950 . S
H1758 C1766 0.950 . S
H1759 C1768 0.950 . S
H1760 C1770 0.950 . S
H1761 C1772 0.950 . S
H1762 C1774 0.950 . S
H1763 C1775 0.950 . S
C1764 H1756 0.950 . S
C1764 C1765 1.386 . S
C1764 C1766 1.391 . S
C1765 C1764 1.386 . S
C1765 C1769 1.393 . S
C1766 H1758 0.950 . S
C1766 C1764 1.391 . S
C1766 C1767 1.400 . S
C1767 C1766 1.400 . S
C1767 C1768 1.398 . S
C1767 C1773 1.491 . S
C1768 H1759 0.950 . S
C1768 C1767 1.398 . S
C1768 C1769 1.391 . S
C1769 H1757 0.950 . S
C1769 C1765 1.393 . S
C1769 C1768 1.391 . S
C1770 H1760 0.950 . S
C1770 C1771 1.386 . S
C1770 C1772 1.391 . S
C1771 C1770 1.386 . S
C1771 C1775 1.393 . S
C1772 H1761 0.950 . S
C1772 C1770 1.391 . S
C1772 C1773 1.400 . S
C1773 C1767 1.491 . S
C1773 C1772 1.400 . S
C1773 C1774 1.398 . S
C1774 H1762 0.950 . S
C1774 C1773 1.398 . S
C1774 C1775 1.391 . S
C1775 H1763 0.950 . S
C1775 C1771 1.393 . S
C1775 C1774 1.391 . S
H1776 C1784 0.950 . S
H1777 C1789 0.950 . S
H1778 C1786 0.950 . S
H1779 C1788 0.950 . S
H1780 C1790 0.950 . S
H1781 C1792 0.950 . S
H1782 C1794 0.950 . S
H1783 C1795 0.950 . S
C1784 H1776 0.950 . S
C1784 C1785 1.386 . S
C1784 C1786 1.391 . S
C1785 C1784 1.386 . S
C1785 C1789 1.393 . S
C1786 H1778 0.950 . S
C1786 C1784 1.391 . S
C1786 C1787 1.400 . S
C1787 C1786 1.400 . S
C1787 C1788 1.398 . S
C1787 C1793 1.491 . S
C1788 H1779 0.950 . S
C1788 C1787 1.398 . S
C1788 C1789 1.391 . S
C1789 H1777 0.950 . S
C1789 C1785 1.393 . S
C1789 C1788 1.391 . S
C1790 H1780 0.950 . S
C1790 C1791 1.386 . S
C1790 C1792 1.391 . S
C1791 C1790 1.386 . S
C1791 C1795 1.393 . S
C1792 H1781 0.950 . S
C1792 C1790 1.391 . S
C1792 C1793 1.400 . S
C1793 C1787 1.491 . S
C1793 C1792 1.400 . S
C1793 C1794 1.398 . S
C1794 H1782 0.950 . S
C1794 C1793 1.398 . S
C1794 C1795 1.391 . S
C1795 H1783 0.950 . S
C1795 C1791 1.393 . S
C1795 C1794 1.391 . S
H1796 C1804 0.950 . S
H1797 C1809 0.950 . S
H1798 C1806 0.950 . S
H1799 C1808 0.950 . S
H1800 C1810 0.950 . S
H1801 C1812 0.950 . S
H1802 C1814 0.950 . S
H1803 C1815 0.950 . S
C1804 H1796 0.950 . S
C1804 C1805 1.386 . S
C1804 C1806 1.391 . S
C1805 C1804 1.386 . S
C1805 C1809 1.393 . S
C1806 H1798 0.950 . S
C1806 C1804 1.391 . S
C1806 C1807 1.400 . S
C1807 C1806 1.400 . S
C1807 C1808 1.398 . S
C1807 C1813 1.491 . S
C1808 H1799 0.950 . S
C1808 C1807 1.398 . S
C1808 C1809 1.391 . S
C1809 H1797 0.950 . S
C1809 C1805 1.393 . S
C1809 C1808 1.391 . S
C1810 H1800 0.950 . S
C1810 C1811 1.386 . S
C1810 C1812 1.391 . S
C1811 C1810 1.386 . S
C1811 C1815 1.393 . S
C1812 H1801 0.950 . S
C1812 C1810 1.391 . S
C1812 C1813 1.400 . S
C1813 C1807 1.491 . S
C1813 C1812 1.400 . S
C1813 C1814 1.398 . S
C1814 H1802 0.950 . S
C1814 C1813 1.398 . S
C1814 C1815 1.391 . S
C1815 H1803 0.950 . S
C1815 C1811 1.393 . S
C1815 C1814 1.391 . S
H1816 C1824 0.950 . S
H1817 C1829 0.950 . S
H1818 C1826 0.950 1_455 S
H1819 C1828 0.950 . S
H1820 C1830 0.950 . S
H1821 C1832 0.950 . S
H1822 C1834 0.950 . S
H1823 C1835 0.950 . S
C1824 H1816 0.950 . S
C1824 C1825 1.386 . S
C1824 C1826 1.391 . S
C1825 C1824 1.386 . S
C1825 C1829 1.393 . S
C1826 H1818 0.950 1_655 S
C1826 C1824 1.391 . S
C1826 C1827 1.400 . S
C1827 C1826 1.400 . S
C1827 C1828 1.398 . S
C1827 C1833 1.491 . S
C1828 H1819 0.950 . S
C1828 C1827 1.398 . S
C1828 C1829 1.391 . S
C1829 H1817 0.950 . S
C1829 C1825 1.393 . S
C1829 C1828 1.391 . S
C1830 H1820 0.950 . S
C1830 C1831 1.386 1_655 S
C1830 C1832 1.391 . S
C1831 C1830 1.386 1_455 S
C1831 C1835 1.393 . S
C1832 H1821 0.950 . S
C1832 C1830 1.391 . S
C1832 C1833 1.400 . S
C1833 C1827 1.491 . S
C1833 C1832 1.400 . S
C1833 C1834 1.398 1_655 S
C1834 H1822 0.950 . S
C1834 C1833 1.398 1_455 S
C1834 C1835 1.391 . S
C1835 H1823 0.950 . S
C1835 C1831 1.393 . S
C1835 C1834 1.391 . S
H1836 C1844 0.950 . S
H1837 C1849 0.950 . S
H1838 C1846 0.950 . S
H1839 C1848 0.950 . S
H1840 C1850 0.950 . S
H1841 C1852 0.950 . S
H1842 C1854 0.950 . S
H1843 C1855 0.950 . S
C1844 H1836 0.950 . S
C1844 C1845 1.386 . S
C1844 C1846 1.391 . S
C1845 C1844 1.386 . S
C1845 C1849 1.393 . S
C1846 H1838 0.950 . S
C1846 C1844 1.391 . S
C1846 C1847 1.400 . S
C1847 C1846 1.400 . S
C1847 C1848 1.398 . S
C1847 C1853 1.491 . S
C1848 H1839 0.950 . S
C1848 C1847 1.398 . S
C1848 C1849 1.391 . S
C1849 H1837 0.950 . S
C1849 C1845 1.393 . S
C1849 C1848 1.391 . S
C1850 H1840 0.950 . S
C1850 C1851 1.386 . S
C1850 C1852 1.391 . S
C1851 C1850 1.386 . S
C1851 C1855 1.393 . S
C1852 H1841 0.950 . S
C1852 C1850 1.391 . S
C1852 C1853 1.400 . S
C1853 C1847 1.491 . S
C1853 C1852 1.400 . S
C1853 C1854 1.398 . S
C1854 H1842 0.950 . S
C1854 C1853 1.398 . S
C1854 C1855 1.391 . S
C1855 H1843 0.950 . S
C1855 C1851 1.393 . S
C1855 C1854 1.391 . S
H1856 C1864 0.950 . S
H1857 C1869 0.950 . S
H1858 C1866 0.950 . S
H1859 C1868 0.950 . S
H1860 C1870 0.950 . S
H1861 C1872 0.950 . S
H1862 C1874 0.950 . S
H1863 C1875 0.950 . S
C1864 H1856 0.950 . S
C1864 C1865 1.386 . S
C1864 C1866 1.391 . S
C1865 C1864 1.386 . S
C1865 C1869 1.393 . S
C1866 H1858 0.950 . S
C1866 C1864 1.391 . S
C1866 C1867 1.400 . S
C1867 C1866 1.400 . S
C1867 C1868 1.398 . S
C1867 C1873 1.491 . S
C1868 H1859 0.950 . S
C1868 C1867 1.398 . S
C1868 C1869 1.391 . S
C1869 H1857 0.950 . S
C1869 C1865 1.393 . S
C1869 C1868 1.391 . S
C1870 H1860 0.950 . S
C1870 C1871 1.386 . S
C1870 C1872 1.391 . S
C1871 C1870 1.386 . S
C1871 C1875 1.393 . S
C1872 H1861 0.950 . S
C1872 C1870 1.391 . S
C1872 C1873 1.400 . S
C1873 C1867 1.491 . S
C1873 C1872 1.400 . S
C1873 C1874 1.398 . S
C1874 H1862 0.950 . S
C1874 C1873 1.398 . S
C1874 C1875 1.391 . S
C1875 H1863 0.950 . S
C1875 C1871 1.393 . S
C1875 C1874 1.391 . S
H1876 C1884 0.950 . S
H1877 C1889 0.950 . S
H1878 C1886 0.950 . S
H1879 C1888 0.950 . S
H1880 C1890 0.950 . S
H1881 C1892 0.950 . S
H1882 C1894 0.950 . S
H1883 C1895 0.950 . S
C1884 H1876 0.950 . S
C1884 C1885 1.386 . S
C1884 C1886 1.391 . S
C1885 C1884 1.386 . S
C1885 C1889 1.393 . S
C1886 H1878 0.950 . S
C1886 C1884 1.391 . S
C1886 C1887 1.400 . S
C1887 C1886 1.400 . S
C1887 C1888 1.398 . S
C1887 C1893 1.491 . S
C1888 H1879 0.950 . S
C1888 C1887 1.398 . S
C1888 C1889 1.391 . S
C1889 H1877 0.950 . S
C1889 C1885 1.393 . S
C1889 C1888 1.391 . S
C1890 H1880 0.950 . S
C1890 C1891 1.386 . S
C1890 C1892 1.391 . S
C1891 C1890 1.386 . S
C1891 C1895 1.393 . S
C1892 H1881 0.950 . S
C1892 C1890 1.391 . S
C1892 C1893 1.400 . S
C1893 C1887 1.491 . S
C1893 C1892 1.400 . S
C1893 C1894 1.398 . S
C1894 H1882 0.950 . S
C1894 C1893 1.398 . S
C1894 C1895 1.391 . S
C1895 H1883 0.950 . S
C1895 C1891 1.393 . S
C1895 C1894 1.391 . S
H1896 C1904 0.950 . S
H1897 C1909 0.950 . S
H1898 C1906 0.950 1_455 S
H1899 C1908 0.950 . S
H1900 C1910 0.950 . S
H1901 C1912 0.950 . S
H1902 C1914 0.950 . S
H1903 C1915 0.950 . S
C1904 H1896 0.950 . S
C1904 C1905 1.386 . S
C1904 C1906 1.391 . S
C1905 C1904 1.386 . S
C1905 C1909 1.393 . S
C1906 H1898 0.950 1_655 S
C1906 C1904 1.391 . S
C1906 C1907 1.400 . S
C1907 C1906 1.400 . S
C1907 C1908 1.398 . S
C1907 C1913 1.491 . S
C1908 H1899 0.950 . S
C1908 C1907 1.398 . S
C1908 C1909 1.391 . S
C1909 H1897 0.950 . S
C1909 C1905 1.393 . S
C1909 C1908 1.391 . S
C1910 H1900 0.950 . S
C1910 C1911 1.386 1_655 S
C1910 C1912 1.391 . S
C1911 C1910 1.386 1_455 S
C1911 C1915 1.393 . S
C1912 H1901 0.950 . S
C1912 C1910 1.391 . S
C1912 C1913 1.400 . S
C1913 C1907 1.491 . S
C1913 C1912 1.400 . S
C1913 C1914 1.398 1_655 S
C1914 H1902 0.950 . S
C1914 C1913 1.398 1_455 S
C1914 C1915 1.391 . S
C1915 H1903 0.950 . S
C1915 C1911 1.393 . S
C1915 C1914 1.391 . S
H1916 C1924 0.950 . S
H1917 C1929 0.950 . S
H1918 C1926 0.950 . S
H1919 C1928 0.950 . S
H1920 C1930 0.950 . S
H1921 C1932 0.950 . S
H1922 C1934 0.950 . S
H1923 C1935 0.950 . S
C1924 H1916 0.950 . S
C1924 C1925 1.386 . S
C1924 C1926 1.391 . S
C1925 C1924 1.386 . S
C1925 C1929 1.393 . S
C1926 H1918 0.950 . S
C1926 C1924 1.391 . S
C1926 C1927 1.400 . S
C1927 C1926 1.400 . S
C1927 C1928 1.398 . S
C1927 C1933 1.491 . S
C1928 H1919 0.950 . S
C1928 C1927 1.398 . S
C1928 C1929 1.391 . S
C1929 H1917 0.950 . S
C1929 C1925 1.393 . S
C1929 C1928 1.391 . S
C1930 H1920 0.950 . S
C1930 C1931 1.386 . S
C1930 C1932 1.391 . S
C1931 C1930 1.386 . S
C1931 C1935 1.393 . S
C1932 H1921 0.950 . S
C1932 C1930 1.391 . S
C1932 C1933 1.400 . S
C1933 C1927 1.491 . S
C1933 C1932 1.400 . S
C1933 C1934 1.398 . S
C1934 H1922 0.950 . S
C1934 C1933 1.398 . S
C1934 C1935 1.391 . S
C1935 H1923 0.950 . S
C1935 C1931 1.393 . S
C1935 C1934 1.391 . S
H1936 C1944 0.950 . S
H1937 C1949 0.950 . S
H1938 C1946 0.950 . S
H1939 C1948 0.950 . S
H1940 C1950 0.950 . S
H1941 C1952 0.950 . S
H1942 C1954 0.950 . S
H1943 C1955 0.950 . S
C1944 H1936 0.950 . S
C1944 C1945 1.386 . S
C1944 C1946 1.391 . S
C1945 C1944 1.386 . S
C1945 C1949 1.393 . S
C1946 H1938 0.950 . S
C1946 C1944 1.391 . S
C1946 C1947 1.400 . S
C1947 C1946 1.400 . S
C1947 C1948 1.398 . S
C1947 C1953 1.491 . S
C1948 H1939 0.950 . S
C1948 C1947 1.398 . S
C1948 C1949 1.391 . S
C1949 H1937 0.950 . S
C1949 C1945 1.393 . S
C1949 C1948 1.391 . S
C1950 H1940 0.950 . S
C1950 C1951 1.386 . S
C1950 C1952 1.391 . S
C1951 C1950 1.386 . S
C1951 C1955 1.393 . S
C1952 H1941 0.950 . S
C1952 C1950 1.391 . S
C1952 C1953 1.400 . S
C1953 C1947 1.491 . S
C1953 C1952 1.400 . S
C1953 C1954 1.398 . S
C1954 H1942 0.950 . S
C1954 C1953 1.398 . S
C1954 C1955 1.391 . S
C1955 H1943 0.950 . S
C1955 C1951 1.393 . S
C1955 C1954 1.391 . S
H1956 C1964 0.950 . S
H1957 C1969 0.950 . S
H1958 C1966 0.950 . S
H1959 C1968 0.950 . S
H1960 C1970 0.950 . S
H1961 C1972 0.950 . S
H1962 C1974 0.950 . S
H1963 C1975 0.950 . S
C1964 H1956 0.950 . S
C1964 C1965 1.386 . S
C1964 C1966 1.391 . S
C1965 C1964 1.386 . S
C1965 C1969 1.393 . S
C1966 H1958 0.950 . S
C1966 C1964 1.391 . S
C1966 C1967 1.400 . S
C1967 C1966 1.400 . S
C1967 C1968 1.398 . S
C1967 C1973 1.491 . S
C1968 H1959 0.950 . S
C1968 C1967 1.398 . S
C1968 C1969 1.391 . S
C1969 H1957 0.950 . S
C1969 C1965 1.393 . S
C1969 C1968 1.391 . S
C1970 H1960 0.950 . S
C1970 C1971 1.386 . S
C1970 C1972 1.391 . S
C1971 C1970 1.386 . S
C1971 C1975 1.393 . S
C1972 H1961 0.950 . S
C1972 C1970 1.391 . S
C1972 C1973 1.400 . S
C1973 C1967 1.491 . S
C1973 C1972 1.400 . S
C1973 C1974 1.398 . S
C1974 H1962 0.950 . S
C1974 C1973 1.398 . S
C1974 C1975 1.391 . S
C1975 H1963 0.950 . S
C1975 C1971 1.393 . S
C1975 C1974 1.391 . S
H1976 C1984 0.950 . S
H1977 C1989 0.950 . S
H1978 C1986 0.950 . S
H1979 C1988 0.950 1_545 S
H1980 C1990 0.950 . S
H1981 C1992 0.950 . S
H1982 C1994 0.950 . S
H1983 C1995 0.950 . S
C1984 H1976 0.950 . S
C1984 C1985 1.386 . S
C1984 C1986 1.391 . S
C1985 C1984 1.386 . S
C1985 C1989 1.393 1_556 S
C1986 H1978 0.950 . S
C1986 C1984 1.391 . S
C1986 C1987 1.400 1_556 S
C1987 C1986 1.400 1_554 S
C1987 C1988 1.398 . S
C1987 C1993 1.491 . S
C1988 H1979 0.950 1_565 S
C1988 C1987 1.398 . S
C1988 C1989 1.391 . S
C1989 H1977 0.950 . S
C1989 C1985 1.393 1_554 S
C1989 C1988 1.391 . S
C1990 H1980 0.950 . S
C1990 C1991 1.386 1_545 S
C1990 C1992 1.391 . S
C1991 C1990 1.386 1_565 S
C1991 C1995 1.393 . S
C1992 H1981 0.950 . S
C1992 C1990 1.391 . S
C1992 C1993 1.400 1_545 S
C1993 C1987 1.491 . S
C1993 C1992 1.400 1_565 S
C1993 C1994 1.398 . S
C1994 H1982 0.950 . S
C1994 C1993 1.398 . S
C1994 C1995 1.391 . S
C1995 H1983 0.950 . S
C1995 C1991 1.393 . S
C1995 C1994 1.391 . S
H1996 C2004 0.950 . S
H1997 C2009 0.929 1_556 S
H1998 C2006 0.950 . S
H1999 C2008 0.950 . S
H2000 C2010 0.950 . S
H2001 C2012 0.950 . S
H2002 C2014 0.950 . S
H2003 C2015 0.950 . S
C2004 H1996 0.950 . S
C2004 C2005 1.386 . S
C2004 C2006 1.391 . S
C2005 C2004 1.386 . S
C2005 C2009 1.393 . S
C2006 H1998 0.950 . S
C2006 C2004 1.391 . S
C2006 C2007 1.400 . S
C2007 C2006 1.400 . S
C2007 C2008 1.398 . S
C2007 C2013 1.491 . S
C2008 H1999 0.950 . S
C2008 C2007 1.398 . S
C2008 C2009 1.391 . S
C2009 H1997 0.929 1_554 S
C2009 C2005 1.393 . S
C2009 C2008 1.391 . S
C2010 H2000 0.950 . S
C2010 C2011 1.386 . S
C2010 C2012 1.391 . S
C2011 C2010 1.386 . S
C2011 C2015 1.393 . S
C2012 H2001 0.950 . S
C2012 C2010 1.391 . S
C2012 C2013 1.400 . S
C2013 C2007 1.491 . S
C2013 C2012 1.400 . S
C2013 C2014 1.398 . S
C2014 H2002 0.950 . S
C2014 C2013 1.398 . S
C2014 C2015 1.391 . S
C2015 H2003 0.950 . S
C2015 C2011 1.393 . S
C2015 C2014 1.391 . S
H2016 C2024 0.950 . S
H2017 C2029 0.950 . S
H2018 C2026 0.950 . S
H2019 C2028 0.950 . S
H2020 C2030 0.950 . S
H2021 C2032 0.950 . S
H2022 C2034 0.950 . S
H2023 C2035 0.950 . S
C2024 H2016 0.950 . S
C2024 C2025 1.386 . S
C2024 C2026 1.391 . S
C2025 C2024 1.386 . S
C2025 C2029 1.393 . S
C2026 H2018 0.950 . S
C2026 C2024 1.391 . S
C2026 C2027 1.400 . S
C2027 C2026 1.400 . S
C2027 C2028 1.398 . S
C2027 C2033 1.491 . S
C2028 H2019 0.950 . S
C2028 C2027 1.398 . S
C2028 C2029 1.391 . S
C2029 H2017 0.950 . S
C2029 C2025 1.393 . S
C2029 C2028 1.391 . S
C2030 H2020 0.950 . S
C2030 C2031 1.386 . S
C2030 C2032 1.391 . S
C2031 C2030 1.386 . S
C2031 C2035 1.393 . S
C2032 H2021 0.950 . S
C2032 C2030 1.391 . S
C2032 C2033 1.400 . S
C2033 C2027 1.491 . S
C2033 C2032 1.400 . S
C2033 C2034 1.398 . S
C2034 H2022 0.950 . S
C2034 C2033 1.398 . S
C2034 C2035 1.391 . S
C2035 H2023 0.950 . S
C2035 C2031 1.393 . S
C2035 C2034 1.391 . S
H2036 C2044 0.950 . S
H2037 C2049 0.950 . S
H2038 C2046 0.950 . S
H2039 C2048 0.950 . S
H2040 C2050 0.950 . S
H2041 C2052 0.950 . S
H2042 C2054 0.950 . S
H2043 C2055 0.950 . S
C2044 H2036 0.950 . S
C2044 C2045 1.386 . S
C2044 C2046 1.391 . S
C2045 C2044 1.386 . S
C2045 C2049 1.393 . S
C2046 H2038 0.950 . S
C2046 C2044 1.391 . S
C2046 C2047 1.400 . S
C2047 C2046 1.400 . S
C2047 C2048 1.398 . S
C2047 C2053 1.491 . S
C2048 H2039 0.950 . S
C2048 C2047 1.398 . S
C2048 C2049 1.391 . S
C2049 H2037 0.950 . S
C2049 C2045 1.393 . S
C2049 C2048 1.391 . S
C2050 H2040 0.950 . S
C2050 C2051 1.386 . S
C2050 C2052 1.391 . S
C2051 C2050 1.386 . S
C2051 C2055 1.393 . S
C2052 H2041 0.950 . S
C2052 C2050 1.391 . S
C2052 C2053 1.400 . S
C2053 C2047 1.491 . S
C2053 C2052 1.400 . S
C2053 C2054 1.398 . S
C2054 H2042 0.950 . S
C2054 C2053 1.398 . S
C2054 C2055 1.391 . S
C2055 H2043 0.950 . S
C2055 C2051 1.393 . S
C2055 C2054 1.391 . S
H2056 C2064 0.950 . S
H2057 C2069 0.950 . S
H2058 C2066 0.950 . S
H2059 C2068 0.950 . S
H2060 C2070 0.950 . S
H2061 C2072 0.950 . S
H2062 C2074 0.950 . S
H2063 C2075 0.950 . S
C2064 H2056 0.950 . S
C2064 C2065 1.386 . S
C2064 C2066 1.391 . S
C2065 C2064 1.386 . S
C2065 C2069 1.393 . S
C2066 H2058 0.950 . S
C2066 C2064 1.391 . S
C2066 C2067 1.400 . S
C2067 C2066 1.400 . S
C2067 C2068 1.398 . S
C2067 C2073 1.491 . S
C2068 H2059 0.950 . S
C2068 C2067 1.398 . S
C2068 C2069 1.391 . S
C2069 H2057 0.950 . S
C2069 C2065 1.393 . S
C2069 C2068 1.391 . S
C2070 H2060 0.950 . S
C2070 C2071 1.386 . S
C2070 C2072 1.391 . S
C2071 C2070 1.386 . S
C2071 C2075 1.393 . S
C2072 H2061 0.950 . S
C2072 C2070 1.391 . S
C2072 C2073 1.400 . S
C2073 C2067 1.491 . S
C2073 C2072 1.400 . S
C2073 C2074 1.398 . S
C2074 H2062 0.950 . S
C2074 C2073 1.398 . S
C2074 C2075 1.391 . S
C2075 H2063 0.950 . S
C2075 C2071 1.393 . S
C2075 C2074 1.391 . S
H2076 C2084 0.950 . S
H2077 C2089 0.950 . S
H2078 C2086 0.950 . S
H2079 C2088 0.950 . S
H2080 C2090 0.950 . S
H2081 C2092 0.950 . S
H2082 C2094 0.950 . S
H2083 C2095 0.950 . S
C2084 H2076 0.950 . S
C2084 C2085 1.386 . S
C2084 C2086 1.391 . S
C2085 C2084 1.386 . S
C2085 C2089 1.393 . S
C2086 H2078 0.950 . S
C2086 C2084 1.391 . S
C2086 C2087 1.400 . S
C2087 C2086 1.400 . S
C2087 C2088 1.398 . S
C2087 C2093 1.491 . S
C2088 H2079 0.950 . S
C2088 C2087 1.398 . S
C2088 C2089 1.391 . S
C2089 H2077 0.950 . S
C2089 C2085 1.393 . S
C2089 C2088 1.391 . S
C2090 H2080 0.950 . S
C2090 C2091 1.386 . S
C2090 C2092 1.391 . S
C2091 C2090 1.386 . S
C2091 C2095 1.393 . S
C2092 H2081 0.950 . S
C2092 C2090 1.391 . S
C2092 C2093 1.400 . S
C2093 C2087 1.491 . S
C2093 C2092 1.400 . S
C2093 C2094 1.398 . S
C2094 H2082 0.950 . S
C2094 C2093 1.398 . S
C2094 C2095 1.391 . S
C2095 H2083 0.950 . S
C2095 C2091 1.393 . S
C2095 C2094 1.391 . S
H2096 C2104 0.950 . S
H2097 C2109 0.950 . S
H2098 C2106 0.950 . S
H2099 C2108 0.950 . S
H2100 C2110 0.950 . S
H2101 C2112 0.950 . S
H2102 C2114 0.950 . S
H2103 C2115 0.950 . S
C2104 H2096 0.950 . S
C2104 C2105 1.386 . S
C2104 C2106 1.391 . S
C2105 C2104 1.386 . S
C2105 C2109 1.393 . S
C2106 H2098 0.950 . S
C2106 C2104 1.391 . S
C2106 C2107 1.400 . S
C2107 C2106 1.400 . S
C2107 C2108 1.398 . S
C2107 C2113 1.491 . S
C2108 H2099 0.950 . S
C2108 C2107 1.398 . S
C2108 C2109 1.391 . S
C2109 H2097 0.950 . S
C2109 C2105 1.393 . S
C2109 C2108 1.391 . S
C2110 H2100 0.950 . S
C2110 C2111 1.386 . S
C2110 C2112 1.391 . S
C2111 C2110 1.386 . S
C2111 C2115 1.393 . S
C2112 H2101 0.950 . S
C2112 C2110 1.391 . S
C2112 C2113 1.400 . S
C2113 C2107 1.491 . S
C2113 C2112 1.400 . S
C2113 C2114 1.398 . S
C2114 H2102 0.950 . S
C2114 C2113 1.398 . S
C2114 C2115 1.391 . S
C2115 H2103 0.950 . S
C2115 C2111 1.393 . S
C2115 C2114 1.391 . S
H2116 C2124 0.950 . S
H2117 C2129 0.950 . S
H2118 C2126 0.950 . S
H2119 C2128 0.950 . S
H2120 C2130 0.950 . S
H2121 C2132 0.950 . S
H2122 C2134 0.950 . S
H2123 C2135 0.950 . S
C2124 H2116 0.950 . S
C2124 C2125 1.386 . S
C2124 C2126 1.391 . S
C2125 C2124 1.386 . S
C2125 C2129 1.393 . S
C2126 H2118 0.950 . S
C2126 C2124 1.391 . S
C2126 C2127 1.400 . S
C2127 C2126 1.400 . S
C2127 C2128 1.398 . S
C2127 C2133 1.491 . S
C2128 H2119 0.950 . S
C2128 C2127 1.398 . S
C2128 C2129 1.391 . S
C2129 H2117 0.950 . S
C2129 C2125 1.393 . S
C2129 C2128 1.391 . S
C2130 H2120 0.950 . S
C2130 C2131 1.386 . S
C2130 C2132 1.391 . S
C2131 C2130 1.386 . S
C2131 C2135 1.393 . S
C2132 H2121 0.950 . S
C2132 C2130 1.391 . S
C2132 C2133 1.400 . S
C2133 C2127 1.491 . S
C2133 C2132 1.400 . S
C2133 C2134 1.398 . S
C2134 H2122 0.950 . S
C2134 C2133 1.398 . S
C2134 C2135 1.391 . S
C2135 H2123 0.950 . S
C2135 C2131 1.393 . S
C2135 C2134 1.391 . S
H2136 C2144 0.950 . S
H2137 C2149 0.950 . S
H2138 C2146 0.950 . S
H2139 C2148 0.950 . S
H2140 C2150 0.950 . S
H2141 C2152 0.950 . S
H2142 C2154 0.950 . S
H2143 C2155 0.950 . S
C2144 H2136 0.950 . S
C2144 C2145 1.386 . S
C2144 C2146 1.391 . S
C2145 C2144 1.386 . S
C2145 C2149 1.393 . S
C2146 H2138 0.950 . S
C2146 C2144 1.391 . S
C2146 C2147 1.400 . S
C2147 C2146 1.400 . S
C2147 C2148 1.398 . S
C2147 C2153 1.491 . S
C2148 H2139 0.950 . S
C2148 C2147 1.398 . S
C2148 C2149 1.391 . S
C2149 H2137 0.950 . S
C2149 C2145 1.393 . S
C2149 C2148 1.391 . S
C2150 H2140 0.950 . S
C2150 C2151 1.386 . S
C2150 C2152 1.391 . S
C2151 C2150 1.386 . S
C2151 C2155 1.393 . S
C2152 H2141 0.950 . S
C2152 C2150 1.391 . S
C2152 C2153 1.400 . S
C2153 C2147 1.491 . S
C2153 C2152 1.400 . S
C2153 C2154 1.398 . S
C2154 H2142 0.950 . S
C2154 C2153 1.398 . S
C2154 C2155 1.391 . S
C2155 H2143 0.950 . S
C2155 C2151 1.393 . S
C2155 C2154 1.391 . S
H2156 C2164 0.950 . S
H2157 C2169 0.950 . S
H2158 C2166 0.950 . S
H2159 C2168 0.950 . S
H2160 C2170 0.950 . S
H2161 C2172 0.950 . S
H2162 C2174 0.950 . S
H2163 C2175 0.950 . S
C2164 H2156 0.950 . S
C2164 C2165 1.386 . S
C2164 C2166 1.391 . S
C2165 C2164 1.386 . S
C2165 C2169 1.393 . S
C2166 H2158 0.950 . S
C2166 C2164 1.391 . S
C2166 C2167 1.400 . S
C2167 C2166 1.400 . S
C2167 C2168 1.398 . S
C2167 C2173 1.491 . S
C2168 H2159 0.950 . S
C2168 C2167 1.398 . S
C2168 C2169 1.391 . S
C2169 H2157 0.950 . S
C2169 C2165 1.393 . S
C2169 C2168 1.391 . S
C2170 H2160 0.950 . S
C2170 C2171 1.386 . S
C2170 C2172 1.391 . S
C2171 C2170 1.386 . S
C2171 C2175 1.393 . S
C2172 H2161 0.950 . S
C2172 C2170 1.391 . S
C2172 C2173 1.400 . S
C2173 C2167 1.491 . S
C2173 C2172 1.400 . S
C2173 C2174 1.398 . S
C2174 H2162 0.950 . S
C2174 C2173 1.398 . S
C2174 C2175 1.391 . S
C2175 H2163 0.950 . S
C2175 C2171 1.393 . S
C2175 C2174 1.391 . S
H2176 C2184 0.950 . S
H2177 C2189 0.950 . S
H2178 C2186 0.950 . S
H2179 C2188 0.950 . S
H2180 C2190 0.950 . S
H2181 C2192 0.950 . S
H2182 C2194 0.950 . S
H2183 C2195 0.950 . S
C2184 H2176 0.950 . S
C2184 C2185 1.386 . S
C2184 C2186 1.391 . S
C2185 C2184 1.386 . S
C2185 C2189 1.393 . S
C2186 H2178 0.950 . S
C2186 C2184 1.391 . S
C2186 C2187 1.400 . S
C2187 C2186 1.400 . S
C2187 C2188 1.398 . S
C2187 C2193 1.491 . S
C2188 H2179 0.950 . S
C2188 C2187 1.398 . S
C2188 C2189 1.391 . S
C2189 H2177 0.950 . S
C2189 C2185 1.393 . S
C2189 C2188 1.391 . S
C2190 H2180 0.950 . S
C2190 C2191 1.386 . S
C2190 C2192 1.391 . S
C2191 C2190 1.386 . S
C2191 C2195 1.393 . S
C2192 H2181 0.950 . S
C2192 C2190 1.391 . S
C2192 C2193 1.400 . S
C2193 C2187 1.491 . S
C2193 C2192 1.400 . S
C2193 C2194 1.398 . S
C2194 H2182 0.950 . S
C2194 C2193 1.398 . S
C2194 C2195 1.391 . S
C2195 H2183 0.950 . S
C2195 C2191 1.393 . S
C2195 C2194 1.391 . S
H2196 C2204 0.950 . S
H2197 C2209 0.950 . S
H2198 C2206 0.950 . S
H2199 C2208 0.950 . S
H2200 C2210 0.950 . S
H2201 C2212 0.950 . S
H2202 C2214 0.950 . S
H2203 C2215 0.950 . S
C2204 H2196 0.950 . S
C2204 C2205 1.386 . S
C2204 C2206 1.391 . S
C2205 C2204 1.386 . S
C2205 C2209 1.393 . S
C2206 H2198 0.950 . S
C2206 C2204 1.391 . S
C2206 C2207 1.400 . S
C2207 C2206 1.400 . S
C2207 C2208 1.398 . S
C2207 C2213 1.491 . S
C2208 H2199 0.950 . S
C2208 C2207 1.398 . S
C2208 C2209 1.391 . S
C2209 H2197 0.950 . S
C2209 C2205 1.393 . S
C2209 C2208 1.391 . S
C2210 H2200 0.950 . S
C2210 C2211 1.386 . S
C2210 C2212 1.391 . S
C2211 C2210 1.386 . S
C2211 C2215 1.393 . S
C2212 H2201 0.950 . S
C2212 C2210 1.391 . S
C2212 C2213 1.400 . S
C2213 C2207 1.491 . S
C2213 C2212 1.400 . S
C2213 C2214 1.398 . S
C2214 H2202 0.950 . S
C2214 C2213 1.398 . S
C2214 C2215 1.391 . S
C2215 H2203 0.950 . S
C2215 C2211 1.393 . S
C2215 C2214 1.391 . S
H2216 C2224 0.950 . S
H2217 C2229 0.950 . S
H2218 C2226 0.950 . S
H2219 C2228 0.950 . S
H2220 C2230 0.950 . S
H2221 C2232 0.950 . S
H2222 C2234 0.950 . S
H2223 C2235 0.950 . S
C2224 H2216 0.950 . S
C2224 C2225 1.386 . S
C2224 C2226 1.391 . S
C2225 C2224 1.386 . S
C2225 C2229 1.393 . S
C2226 H2218 0.950 . S
C2226 C2224 1.391 . S
C2226 C2227 1.400 . S
C2227 C2226 1.400 . S
C2227 C2228 1.398 . S
C2227 C2233 1.491 . S
C2228 H2219 0.950 . S
C2228 C2227 1.398 . S
C2228 C2229 1.391 . S
C2229 H2217 0.950 . S
C2229 C2225 1.393 . S
C2229 C2228 1.391 . S
C2230 H2220 0.950 . S
C2230 C2231 1.386 . S
C2230 C2232 1.391 . S
C2231 C2230 1.386 . S
C2231 C2235 1.393 . S
C2232 H2221 0.950 . S
C2232 C2230 1.391 . S
C2232 C2233 1.400 . S
C2233 C2227 1.491 . S
C2233 C2232 1.400 . S
C2233 C2234 1.398 . S
C2234 H2222 0.950 . S
C2234 C2233 1.398 . S
C2234 C2235 1.391 . S
C2235 H2223 0.950 . S
C2235 C2231 1.393 . S
C2235 C2234 1.391 . S
H2236 C2244 0.950 . S
H2237 C2249 0.950 . S
H2238 C2246 0.950 . S
H2239 C2248 0.950 . S
H2240 C2250 0.950 . S
H2241 C2252 0.950 . S
H2242 C2254 0.950 . S
H2243 C2255 0.950 . S
C2244 H2236 0.950 . S
C2244 C2245 1.386 . S
C2244 C2246 1.391 . S
C2245 C2244 1.386 . S
C2245 C2249 1.393 . S
C2246 H2238 0.950 . S
C2246 C2244 1.391 . S
C2246 C2247 1.400 . S
C2247 C2246 1.400 . S
C2247 C2248 1.398 . S
C2247 C2253 1.491 . S
C2248 H2239 0.950 . S
C2248 C2247 1.398 . S
C2248 C2249 1.391 . S
C2249 H2237 0.950 . S
C2249 C2245 1.393 . S
C2249 C2248 1.391 . S
C2250 H2240 0.950 . S
C2250 C2251 1.386 . S
C2250 C2252 1.391 . S
C2251 C2250 1.386 . S
C2251 C2255 1.393 . S
C2252 H2241 0.950 . S
C2252 C2250 1.391 . S
C2252 C2253 1.400 . S
C2253 C2247 1.491 . S
C2253 C2252 1.400 . S
C2253 C2254 1.398 . S
C2254 H2242 0.950 . S
C2254 C2253 1.398 . S
C2254 C2255 1.391 . S
C2255 H2243 0.950 . S
C2255 C2251 1.393 . S
C2255 C2254 1.391 . S
H2256 C2264 0.950 . S
H2257 C2269 0.950 . S
H2258 C2266 0.950 . S
H2259 C2268 0.950 . S
H2260 C2270 0.950 . S
H2261 C2272 0.950 . S
H2262 C2274 0.950 . S
H2263 C2275 0.950 . S
C2264 H2256 0.950 . S
C2264 C2265 1.386 . S
C2264 C2266 1.391 . S
C2265 C2264 1.386 . S
C2265 C2269 1.393 . S
C2266 H2258 0.950 . S
C2266 C2264 1.391 . S
C2266 C2267 1.400 . S
C2267 C2266 1.400 . S
C2267 C2268 1.398 . S
C2267 C2273 1.491 . S
C2268 H2259 0.950 . S
C2268 C2267 1.398 . S
C2268 C2269 1.391 . S
C2269 H2257 0.950 . S
C2269 C2265 1.393 . S
C2269 C2268 1.391 . S
C2270 H2260 0.950 . S
C2270 C2271 1.386 . S
C2270 C2272 1.391 . S
C2271 C2270 1.386 . S
C2271 C2275 1.393 . S
C2272 H2261 0.950 . S
C2272 C2270 1.391 . S
C2272 C2273 1.400 . S
C2273 C2267 1.491 . S
C2273 C2272 1.400 . S
C2273 C2274 1.398 . S
C2274 H2262 0.950 . S
C2274 C2273 1.398 . S
C2274 C2275 1.391 . S
C2275 H2263 0.950 . S
C2275 C2271 1.393 . S
C2275 C2274 1.391 . S
H2276 C2284 0.950 . S
H2277 C2289 0.950 . S
H2278 C2286 0.950 . S
H2279 C2288 0.950 . S
H2280 C2290 0.950 . S
H2281 C2292 0.950 . S
H2282 C2294 0.950 . S
H2283 C2295 0.950 . S
C2284 H2276 0.950 . S
C2284 C2285 1.386 . S
C2284 C2286 1.391 . S
C2285 C2284 1.386 . S
C2285 C2289 1.393 . S
C2286 H2278 0.950 . S
C2286 C2284 1.391 . S
C2286 C2287 1.400 . S
C2287 C2286 1.400 . S
C2287 C2288 1.398 . S
C2287 C2293 1.491 . S
C2288 H2279 0.950 . S
C2288 C2287 1.398 . S
C2288 C2289 1.391 . S
C2289 H2277 0.950 . S
C2289 C2285 1.393 . S
C2289 C2288 1.391 . S
C2290 H2280 0.950 . S
C2290 C2291 1.386 . S
C2290 C2292 1.391 . S
C2291 C2290 1.386 . S
C2291 C2295 1.393 . S
C2292 H2281 0.950 . S
C2292 C2290 1.391 . S
C2292 C2293 1.400 . S
C2293 C2287 1.491 . S
C2293 C2292 1.400 . S
C2293 C2294 1.398 . S
C2294 H2282 0.950 . S
C2294 C2293 1.398 . S
C2294 C2295 1.391 . S
C2295 H2283 0.950 . S
C2295 C2291 1.393 . S
C2295 C2294 1.391 . S
H2296 C2304 0.950 . S
H2297 C2309 0.950 . S
H2298 C2306 0.950 . S
H2299 C2308 0.950 . S
H2300 C2310 0.950 1_565 S
H2301 C2312 0.950 1_565 S
H2302 C2314 0.950 . S
H2303 C2315 0.950 . S
C2304 H2296 0.950 . S
C2304 C2305 1.386 . S
C2304 C2306 1.391 . S
C2305 C2304 1.386 . S
C2305 C2309 1.393 . S
C2306 H2298 0.950 . S
C2306 C2304 1.391 . S
C2306 C2307 1.400 . S
C2307 C2306 1.400 . S
C2307 C2308 1.398 . S
C2307 C2313 1.491 . S
C2308 H2299 0.950 . S
C2308 C2307 1.398 . S
C2308 C2309 1.391 . S
C2309 H2297 0.950 . S
C2309 C2305 1.393 . S
C2309 C2308 1.391 . S
C2310 H2300 0.950 1_545 S
C2310 C2311 1.386 . S
C2310 C2312 1.391 . S
C2311 C2310 1.386 . S
C2311 C2315 1.393 . S
C2312 H2301 0.950 1_545 S
C2312 C2310 1.391 . S
C2312 C2313 1.400 . S
C2313 C2307 1.491 . S
C2313 C2312 1.400 . S
C2313 C2314 1.398 . S
C2314 H2302 0.950 . S
C2314 C2313 1.398 . S
C2314 C2315 1.391 . S
C2315 H2303 0.950 . S
C2315 C2311 1.393 . S
C2315 C2314 1.391 . S
H2316 C2324 0.950 . S
H2317 C2329 0.950 . S
H2318 C2326 0.950 . S
H2319 C2328 0.950 . S
H2320 C2330 0.950 . S
H2321 C2332 0.950 . S
H2322 C2334 0.950 . S
H2323 C2335 0.950 . S
C2324 H2316 0.950 . S
C2324 C2325 1.386 . S
C2324 C2326 1.391 . S
C2325 C2324 1.386 . S
C2325 C2329 1.393 . S
C2326 H2318 0.950 . S
C2326 C2324 1.391 . S
C2326 C2327 1.400 . S
C2327 C2326 1.400 . S
C2327 C2328 1.398 . S
C2327 C2333 1.491 . S
C2328 H2319 0.950 . S
C2328 C2327 1.398 . S
C2328 C2329 1.391 . S
C2329 H2317 0.950 . S
C2329 C2325 1.393 . S
C2329 C2328 1.391 . S
C2330 H2320 0.950 . S
C2330 C2331 1.386 . S
C2330 C2332 1.391 . S
C2331 C2330 1.386 . S
C2331 C2335 1.393 . S
C2332 H2321 0.950 . S
C2332 C2330 1.391 . S
C2332 C2333 1.400 . S
C2333 C2327 1.491 . S
C2333 C2332 1.400 . S
C2333 C2334 1.398 . S
C2334 H2322 0.950 . S
C2334 C2333 1.398 . S
C2334 C2335 1.391 . S
C2335 H2323 0.950 . S
C2335 C2331 1.393 . S
C2335 C2334 1.391 . S
H2336 C2344 0.950 1_565 S
H2337 C2349 0.950 . S
H2338 C2346 0.950 . S
H2339 C2348 0.950 . S
H2340 C2350 0.950 . S
H2341 C2352 0.950 . S
H2342 C2354 0.950 . S
H2343 C2355 0.950 . S
C2344 H2336 0.950 1_545 S
C2344 C2345 1.386 . S
C2344 C2346 1.391 . S
C2345 C2344 1.386 . S
C2345 C2349 1.393 . S
C2346 H2338 0.950 . S
C2346 C2344 1.391 . S
C2346 C2347 1.400 . S
C2347 C2346 1.400 . S
C2347 C2348 1.398 . S
C2347 C2353 1.491 . S
C2348 H2339 0.950 . S
C2348 C2347 1.398 . S
C2348 C2349 1.391 . S
C2349 H2337 0.950 . S
C2349 C2345 1.393 . S
C2349 C2348 1.391 . S
C2350 H2340 0.950 . S
C2350 C2351 1.386 . S
C2350 C2352 1.391 . S
C2351 C2350 1.386 . S
C2351 C2355 1.393 . S
C2352 H2341 0.950 . S
C2352 C2350 1.391 . S
C2352 C2353 1.400 . S
C2353 C2347 1.491 . S
C2353 C2352 1.400 . S
C2353 C2354 1.398 . S
C2354 H2342 0.950 . S
C2354 C2353 1.398 . S
C2354 C2355 1.391 . S
C2355 H2343 0.950 . S
C2355 C2351 1.393 . S
C2355 C2354 1.391 . S
H2356 C2364 0.950 . S
H2357 C2369 0.950 . S
H2358 C2366 0.950 . S
H2359 C2368 0.950 . S
H2360 C2370 0.950 . S
H2361 C2372 0.950 . S
H2362 C2374 0.950 . S
H2363 C2375 0.950 . S
C2364 H2356 0.950 . S
C2364 C2365 1.386 . S
C2364 C2366 1.391 . S
C2365 C2364 1.386 . S
C2365 C2369 1.393 . S
C2366 H2358 0.950 . S
C2366 C2364 1.391 . S
C2366 C2367 1.400 . S
C2367 C2366 1.400 . S
C2367 C2368 1.398 . S
C2367 C2373 1.491 . S
C2368 H2359 0.950 . S
C2368 C2367 1.398 . S
C2368 C2369 1.391 . S
C2369 H2357 0.950 . S
C2369 C2365 1.393 . S
C2369 C2368 1.391 . S
C2370 H2360 0.950 . S
C2370 C2371 1.386 . S
C2370 C2372 1.391 . S
C2371 C2370 1.386 . S
C2371 C2375 1.393 . S
C2372 H2361 0.950 . S
C2372 C2370 1.391 . S
C2372 C2373 1.400 . S
C2373 C2367 1.491 . S
C2373 C2372 1.400 . S
C2373 C2374 1.398 . S
C2374 H2362 0.950 . S
C2374 C2373 1.398 . S
C2374 C2375 1.391 . S
C2375 H2363 0.950 . S
C2375 C2371 1.393 . S
C2375 C2374 1.391 . S
H2376 C2384 0.950 . S
H2377 C2389 0.950 . S
H2378 C2386 0.950 . S
H2379 C2388 0.950 . S
H2380 C2390 0.950 . S
H2381 C2392 0.950 . S
H2382 C2394 0.950 . S
H2383 C2395 0.950 . S
C2384 H2376 0.950 . S
C2384 C2385 1.386 . S
C2384 C2386 1.391 . S
C2385 C2384 1.386 . S
C2385 C2389 1.393 . S
C2386 H2378 0.950 . S
C2386 C2384 1.391 . S
C2386 C2387 1.400 . S
C2387 C2386 1.400 . S
C2387 C2388 1.398 . S
C2387 C2393 1.491 . S
C2388 H2379 0.950 . S
C2388 C2387 1.398 . S
C2388 C2389 1.391 . S
C2389 H2377 0.950 . S
C2389 C2385 1.393 . S
C2389 C2388 1.391 . S
C2390 H2380 0.950 . S
C2390 C2391 1.386 . S
C2390 C2392 1.391 . S
C2391 C2390 1.386 . S
C2391 C2395 1.393 . S
C2392 H2381 0.950 . S
C2392 C2390 1.391 . S
C2392 C2393 1.400 . S
C2393 C2387 1.491 . S
C2393 C2392 1.400 . S
C2393 C2394 1.398 . S
C2394 H2382 0.950 . S
C2394 C2393 1.398 . S
C2394 C2395 1.391 . S
C2395 H2383 0.950 . S
C2395 C2391 1.393 . S
C2395 C2394 1.391 . S
H2396 C2404 0.950 . S
H2397 C2409 0.950 . S
H2398 C2406 0.950 . S
H2399 C2408 0.950 . S
H2400 C2410 0.950 . S
H2401 C2412 0.950 . S
H2402 C2414 0.950 . S
H2403 C2415 0.950 . S
C2404 H2396 0.950 . S
C2404 C2405 1.386 . S
C2404 C2406 1.391 . S
C2405 C2404 1.386 . S
C2405 C2409 1.393 . S
C2406 H2398 0.950 . S
C2406 C2404 1.391 . S
C2406 C2407 1.400 . S
C2407 C2406 1.400 . S
C2407 C2408 1.398 . S
C2407 C2413 1.491 . S
C2408 H2399 0.950 . S
C2408 C2407 1.398 . S
C2408 C2409 1.391 . S
C2409 H2397 0.950 . S
C2409 C2405 1.393 . S
C2409 C2408 1.391 . S
C2410 H2400 0.950 . S
C2410 C2411 1.386 . S
C2410 C2412 1.391 . S
C2411 C2410 1.386 . S
C2411 C2415 1.393 . S
C2412 H2401 0.950 . S
C2412 C2410 1.391 . S
C2412 C2413 1.400 . S
C2413 C2407 1.491 . S
C2413 C2412 1.400 . S
C2413 C2414 1.398 . S
C2414 H2402 0.950 . S
C2414 C2413 1.398 . S
C2414 C2415 1.391 . S
C2415 H2403 0.950 . S
C2415 C2411 1.393 . S
C2415 C2414 1.391 . S
H2416 C2424 0.950 . S
H2417 C2429 0.950 . S
H2418 C2426 0.950 . S
H2419 C2428 0.950 . S
H2420 C2430 0.950 . S
H2421 C2432 0.950 . S
H2422 C2434 0.950 . S
H2423 C2435 0.950 . S
C2424 H2416 0.950 . S
C2424 C2425 1.386 1_565 S
C2424 C2426 1.391 . S
C2425 C2424 1.386 1_545 S
C2425 C2429 1.393 . S
C2426 H2418 0.950 . S
C2426 C2424 1.391 . S
C2426 C2427 1.400 1_565 S
C2427 C2426 1.400 1_545 S
C2427 C2428 1.398 . S
C2427 C2433 1.491 . S
C2428 H2419 0.950 . S
C2428 C2427 1.398 . S
C2428 C2429 1.391 . S
C2429 H2417 0.950 . S
C2429 C2425 1.393 . S
C2429 C2428 1.391 . S
C2430 H2420 0.950 . S
C2430 C2431 1.386 . S
C2430 C2432 1.391 . S
C2431 C2430 1.386 . S
C2431 C2435 1.393 1_545 S
C2432 H2421 0.950 . S
C2432 C2430 1.391 . S
C2432 C2433 1.400 . S
C2433 C2427 1.491 . S
C2433 C2432 1.400 . S
C2433 C2434 1.398 1_545 S
C2434 H2422 0.950 . S
C2434 C2433 1.398 1_565 S
C2434 C2435 1.391 . S
C2435 H2423 0.950 . S
C2435 C2431 1.393 1_565 S
C2435 C2434 1.391 . S
H2436 C2444 0.950 . S
H2437 C2449 0.950 . S
H2438 C2446 0.950 . S
H2439 C2448 0.950 . S
H2440 C2450 0.950 . S
H2441 C2452 0.950 . S
H2442 C2454 0.950 . S
H2443 C2455 0.950 . S
C2444 H2436 0.950 . S
C2444 C2445 1.386 . S
C2444 C2446 1.391 . S
C2445 C2444 1.386 . S
C2445 C2449 1.393 . S
C2446 H2438 0.950 . S
C2446 C2444 1.391 . S
C2446 C2447 1.400 . S
C2447 C2446 1.400 . S
C2447 C2448 1.398 . S
C2447 C2453 1.491 . S
C2448 H2439 0.950 . S
C2448 C2447 1.398 . S
C2448 C2449 1.391 . S
C2449 H2437 0.950 . S
C2449 C2445 1.393 . S
C2449 C2448 1.391 . S
C2450 H2440 0.950 . S
C2450 C2451 1.386 . S
C2450 C2452 1.391 . S
C2451 C2450 1.386 . S
C2451 C2455 1.393 . S
C2452 H2441 0.950 . S
C2452 C2450 1.391 . S
C2452 C2453 1.400 . S
C2453 C2447 1.491 . S
C2453 C2452 1.400 . S
C2453 C2454 1.398 . S
C2454 H2442 0.950 . S
C2454 C2453 1.398 . S
C2454 C2455 1.391 . S
C2455 H2443 0.950 . S
C2455 C2451 1.393 . S
C2455 C2454 1.391 . S
H2456 C2464 0.950 . S
H2457 C2469 0.950 . S
H2458 C2466 0.950 . S
H2459 C2468 0.950 . S
H2460 C2470 0.950 1_556 S
H2461 C2472 0.950 . S
H2462 C2474 0.950 . S
H2463 C2475 0.950 . S
C2464 H2456 0.950 . S
C2464 C2465 1.386 . S
C2464 C2466 1.391 . S
C2465 C2464 1.386 . S
C2465 C2469 1.393 . S
C2466 H2458 0.950 . S
C2466 C2464 1.391 . S
C2466 C2467 1.400 . S
C2467 C2466 1.400 . S
C2467 C2468 1.398 . S
C2467 C2473 1.491 . S
C2468 H2459 0.950 . S
C2468 C2467 1.398 . S
C2468 C2469 1.391 . S
C2469 H2457 0.950 . S
C2469 C2465 1.393 . S
C2469 C2468 1.391 . S
C2470 H2460 0.950 1_554 S
C2470 C2471 1.386 . S
C2470 C2472 1.391 . S
C2471 C2470 1.386 . S
C2471 C2475 1.393 . S
C2472 H2461 0.950 . S
C2472 C2470 1.391 . S
C2472 C2473 1.400 . S
C2473 C2467 1.491 . S
C2473 C2472 1.400 . S
C2473 C2474 1.398 . S
C2474 H2462 0.950 . S
C2474 C2473 1.398 . S
C2474 C2475 1.391 . S
C2475 H2463 0.950 . S
C2475 C2471 1.393 . S
C2475 C2474 1.391 . S
H2476 C2484 0.950 . S
H2477 C2489 0.950 . S
H2478 C2486 0.950 . S
H2479 C2488 0.950 . S
H2480 C2490 0.950 . S
H2481 C2492 0.950 . S
H2482 C2494 0.950 . S
H2483 C2495 0.950 . S
C2484 H2476 0.950 . S
C2484 C2485 1.386 . S
C2484 C2486 1.391 . S
C2485 C2484 1.386 . S
C2485 C2489 1.393 . S
C2486 H2478 0.950 . S
C2486 C2484 1.391 . S
C2486 C2487 1.400 . S
C2487 C2486 1.400 . S
C2487 C2488 1.398 . S
C2487 C2493 1.491 . S
C2488 H2479 0.950 . S
C2488 C2487 1.398 . S
C2488 C2489 1.391 . S
C2489 H2477 0.950 . S
C2489 C2485 1.393 . S
C2489 C2488 1.391 . S
C2490 H2480 0.950 . S
C2490 C2491 1.386 . S
C2490 C2492 1.391 . S
C2491 C2490 1.386 . S
C2491 C2495 1.393 . S
C2492 H2481 0.950 . S
C2492 C2490 1.391 . S
C2492 C2493 1.400 . S
C2493 C2487 1.491 . S
C2493 C2492 1.400 . S
C2493 C2494 1.398 . S
C2494 H2482 0.950 . S
C2494 C2493 1.398 . S
C2494 C2495 1.391 . S
C2495 H2483 0.950 . S
C2495 C2491 1.393 . S
C2495 C2494 1.391 . S
H2496 C2504 0.950 . S
H2497 C2509 0.950 . S
H2498 C2506 0.950 . S
H2499 C2508 0.950 . S
H2500 C2510 0.950 . S
H2501 C2512 0.950 . S
H2502 C2514 0.950 . S
H2503 C2515 0.950 . S
C2504 H2496 0.950 . S
C2504 C2505 1.386 . S
C2504 C2506 1.391 . S
C2505 C2504 1.386 . S
C2505 C2509 1.393 . S
C2506 H2498 0.950 . S
C2506 C2504 1.391 . S
C2506 C2507 1.400 . S
C2507 C2506 1.400 . S
C2507 C2508 1.398 . S
C2507 C2513 1.491 . S
C2508 H2499 0.950 . S
C2508 C2507 1.398 . S
C2508 C2509 1.391 . S
C2509 H2497 0.950 . S
C2509 C2505 1.393 . S
C2509 C2508 1.391 . S
C2510 H2500 0.950 . S
C2510 C2511 1.386 . S
C2510 C2512 1.391 . S
C2511 C2510 1.386 . S
C2511 C2515 1.393 . S
C2512 H2501 0.950 . S
C2512 C2510 1.391 . S
C2512 C2513 1.400 . S
C2513 C2507 1.491 . S
C2513 C2512 1.400 . S
C2513 C2514 1.398 . S
C2514 H2502 0.950 . S
C2514 C2513 1.398 . S
C2514 C2515 1.391 . S
C2515 H2503 0.950 . S
C2515 C2511 1.393 . S
C2515 C2514 1.391 . S
H2516 C2524 0.950 . S
H2517 C2529 0.950 . S
H2518 C2526 0.950 . S
H2519 C2528 0.950 . S
H2520 C2530 0.950 . S
H2521 C2532 0.950 . S
H2522 C2534 0.950 . S
H2523 C2535 0.950 . S
C2524 H2516 0.950 . S
C2524 C2525 1.386 . S
C2524 C2526 1.391 . S
C2525 C2524 1.386 . S
C2525 C2529 1.393 . S
C2526 H2518 0.950 . S
C2526 C2524 1.391 . S
C2526 C2527 1.400 . S
C2527 C2526 1.400 . S
C2527 C2528 1.398 . S
C2527 C2533 1.491 . S
C2528 H2519 0.950 . S
C2528 C2527 1.398 . S
C2528 C2529 1.391 . S
C2529 H2517 0.950 . S
C2529 C2525 1.393 . S
C2529 C2528 1.391 . S
C2530 H2520 0.950 . S
C2530 C2531 1.386 . S
C2530 C2532 1.391 . S
C2531 C2530 1.386 . S
C2531 C2535 1.393 . S
C2532 H2521 0.950 . S
C2532 C2530 1.391 . S
C2532 C2533 1.400 . S
C2533 C2527 1.491 . S
C2533 C2532 1.400 . S
C2533 C2534 1.398 . S
C2534 H2522 0.950 . S
C2534 C2533 1.398 . S
C2534 C2535 1.391 . S
C2535 H2523 0.950 . S
C2535 C2531 1.393 . S
C2535 C2534 1.391 . S
H2536 C2544 0.950 . S
H2537 C2549 0.950 . S
H2538 C2546 0.950 . S
H2539 C2548 0.950 . S
H2540 C2550 0.950 . S
H2541 C2552 0.950 . S
H2542 C2554 0.950 . S
H2543 C2555 0.950 . S
C2544 H2536 0.950 . S
C2544 C2545 1.386 1_565 S
C2544 C2546 1.391 . S
C2545 C2544 1.386 1_545 S
C2545 C2549 1.393 . S
C2546 H2538 0.950 . S
C2546 C2544 1.391 . S
C2546 C2547 1.400 . S
C2547 C2546 1.400 . S
C2547 C2548 1.398 . S
C2547 C2553 1.491 . S
C2548 H2539 0.950 . S
C2548 C2547 1.398 . S
C2548 C2549 1.391 1_565 S
C2549 H2537 0.950 . S
C2549 C2545 1.393 . S
C2549 C2548 1.391 1_545 S
C2550 H2540 0.950 . S
C2550 C2551 1.386 . S
C2550 C2552 1.391 . S
C2551 C2550 1.386 . S
C2551 C2555 1.393 . S
C2552 H2541 0.950 . S
C2552 C2550 1.391 . S
C2552 C2553 1.400 . S
C2553 C2547 1.491 . S
C2553 C2552 1.400 . S
C2553 C2554 1.398 . S
C2554 H2542 0.950 . S
C2554 C2553 1.398 . S
C2554 C2555 1.391 . S
C2555 H2543 0.950 . S
C2555 C2551 1.393 . S
C2555 C2554 1.391 . S
H2556 C2564 0.950 . S
H2557 C2569 0.950 . S
H2558 C2566 0.950 . S
H2559 C2568 0.950 . S
H2560 C2570 0.950 . S
H2561 C2572 0.950 . S
H2562 C2574 0.950 . S
H2563 C2575 0.950 . S
C2564 H2556 0.950 . S
C2564 C2565 1.386 . S
C2564 C2566 1.391 . S
C2565 C2564 1.386 . S
C2565 C2569 1.393 . S
C2566 H2558 0.950 . S
C2566 C2564 1.391 . S
C2566 C2567 1.400 . S
C2567 C2566 1.400 . S
C2567 C2568 1.398 . S
C2567 C2573 1.491 . S
C2568 H2559 0.950 . S
C2568 C2567 1.398 . S
C2568 C2569 1.391 . S
C2569 H2557 0.950 . S
C2569 C2565 1.393 . S
C2569 C2568 1.391 . S
C2570 H2560 0.950 . S
C2570 C2571 1.386 . S
C2570 C2572 1.391 . S
C2571 C2570 1.386 . S
C2571 C2575 1.393 . S
C2572 H2561 0.950 . S
C2572 C2570 1.391 . S
C2572 C2573 1.400 . S
C2573 C2567 1.491 . S
C2573 C2572 1.400 . S
C2573 C2574 1.398 . S
C2574 H2562 0.950 . S
C2574 C2573 1.398 . S
C2574 C2575 1.391 . S
C2575 H2563 0.950 . S
C2575 C2571 1.393 . S
C2575 C2574 1.391 . S
H2576 C2584 0.950 . S
H2577 C2589 0.950 . S
H2578 C2586 0.950 . S
H2579 C2588 0.950 . S
H2580 C2590 0.950 . S
H2581 C2592 0.950 . S
H2582 C2594 0.950 . S
H2583 C2595 0.950 . S
C2584 H2576 0.950 . S
C2584 C2585 1.386 . S
C2584 C2586 1.391 . S
C2585 C2584 1.386 . S
C2585 C2589 1.393 . S
C2586 H2578 0.950 . S
C2586 C2584 1.391 . S
C2586 C2587 1.400 . S
C2587 C2586 1.400 . S
C2587 C2588 1.398 . S
C2587 C2593 1.491 . S
C2588 H2579 0.950 . S
C2588 C2587 1.398 . S
C2588 C2589 1.391 . S
C2589 H2577 0.950 . S
C2589 C2585 1.393 . S
C2589 C2588 1.391 . S
C2590 H2580 0.950 . S
C2590 C2591 1.386 . S
C2590 C2592 1.391 . S
C2591 C2590 1.386 . S
C2591 C2595 1.393 . S
C2592 H2581 0.950 . S
C2592 C2590 1.391 . S
C2592 C2593 1.400 . S
C2593 C2587 1.491 . S
C2593 C2592 1.400 . S
C2593 C2594 1.398 . S
C2594 H2582 0.950 . S
C2594 C2593 1.398 . S
C2594 C2595 1.391 . S
C2595 H2583 0.950 . S
C2595 C2591 1.393 . S
C2595 C2594 1.391 . S
H2596 C2604 0.950 . S
H2597 C2609 0.950 . S
H2598 C2606 0.950 . S
H2599 C2608 0.950 . S
H2600 C2610 0.950 . S
H2601 C2612 0.950 . S
H2602 C2614 0.950 . S
H2603 C2615 0.950 . S
C2604 H2596 0.950 . S
C2604 C2605 1.386 . S
C2604 C2606 1.391 . S
C2605 C2604 1.386 . S
C2605 C2609 1.393 . S
C2606 H2598 0.950 . S
C2606 C2604 1.391 . S
C2606 C2607 1.400 . S
C2607 C2606 1.400 . S
C2607 C2608 1.398 . S
C2607 C2613 1.491 . S
C2608 H2599 0.950 . S
C2608 C2607 1.398 . S
C2608 C2609 1.391 . S
C2609 H2597 0.950 . S
C2609 C2605 1.393 . S
C2609 C2608 1.391 . S
C2610 H2600 0.950 . S
C2610 C2611 1.386 . S
C2610 C2612 1.391 . S
C2611 C2610 1.386 . S
C2611 C2615 1.393 . S
C2612 H2601 0.950 . S
C2612 C2610 1.391 . S
C2612 C2613 1.400 . S
C2613 C2607 1.491 . S
C2613 C2612 1.400 . S
C2613 C2614 1.398 . S
C2614 H2602 0.950 . S
C2614 C2613 1.398 . S
C2614 C2615 1.391 . S
C2615 H2603 0.950 . S
C2615 C2611 1.393 . S
C2615 C2614 1.391 . S
H2616 C2624 0.950 . S
H2617 C2629 0.950 . S
H2618 C2626 0.950 . S
H2619 C2628 0.950 . S
H2620 C2630 0.950 . S
H2621 C2632 0.950 . S
H2622 C2634 0.950 . S
H2623 C2635 0.950 . S
C2624 H2616 0.950 . S
C2624 C2625 1.386 . S
C2624 C2626 1.391 . S
C2625 C2624 1.386 . S
C2625 C2629 1.393 . S
C2626 H2618 0.950 . S
C2626 C2624 1.391 . S
C2626 C2627 1.400 . S
C2627 C2626 1.400 . S
C2627 C2628 1.398 . S
C2627 C2633 1.491 . S
C2628 H2619 0.950 . S
C2628 C2627 1.398 . S
C2628 C2629 1.391 . S
C2629 H2617 0.950 . S
C2629 C2625 1.393 . S
C2629 C2628 1.391 . S
C2630 H2620 0.950 . S
C2630 C2631 1.386 . S
C2630 C2632 1.391 . S
C2631 C2630 1.386 . S
C2631 C2635 1.393 . S
C2632 H2621 0.950 . S
C2632 C2630 1.391 . S
C2632 C2633 1.400 . S
C2633 C2627 1.491 . S
C2633 C2632 1.400 . S
C2633 C2634 1.398 . S
C2634 H2622 0.950 . S
C2634 C2633 1.398 . S
C2634 C2635 1.391 . S
C2635 H2623 0.950 . S
C2635 C2631 1.393 . S
C2635 C2634 1.391 . S
H2636 C2644 0.950 . S
H2637 C2649 0.950 . S
H2638 C2646 0.950 . S
H2639 C2648 0.950 . S
H2640 C2650 0.950 . S
H2641 C2652 0.950 . S
H2642 C2654 0.950 . S
H2643 C2655 0.950 . S
C2644 H2636 0.950 . S
C2644 C2645 1.386 . S
C2644 C2646 1.391 . S
C2645 C2644 1.386 . S
C2645 C2649 1.393 . S
C2646 H2638 0.950 . S
C2646 C2644 1.391 . S
C2646 C2647 1.400 . S
C2647 C2646 1.400 . S
C2647 C2648 1.398 . S
C2647 C2653 1.491 . S
C2648 H2639 0.950 . S
C2648 C2647 1.398 . S
C2648 C2649 1.391 . S
C2649 H2637 0.950 . S
C2649 C2645 1.393 . S
C2649 C2648 1.391 . S
C2650 H2640 0.950 . S
C2650 C2651 1.386 . S
C2650 C2652 1.391 . S
C2651 C2650 1.386 . S
C2651 C2655 1.393 . S
C2652 H2641 0.950 . S
C2652 C2650 1.391 . S
C2652 C2653 1.400 . S
C2653 C2647 1.491 . S
C2653 C2652 1.400 . S
C2653 C2654 1.398 . S
C2654 H2642 0.950 . S
C2654 C2653 1.398 . S
C2654 C2655 1.391 . S
C2655 H2643 0.950 . S
C2655 C2651 1.393 . S
C2655 C2654 1.391 . S
H2656 C2664 0.950 . S
H2657 C2669 0.950 . S
H2658 C2666 0.950 . S
H2659 C2668 0.950 . S
H2660 C2670 0.950 1_655 S
H2661 C2672 0.950 . S
H2662 C2674 0.950 . S
H2663 C2675 0.950 . S
C2664 H2656 0.950 . S
C2664 C2665 1.386 . S
C2664 C2666 1.391 . S
C2665 C2664 1.386 . S
C2665 C2669 1.393 1_455 S
C2666 H2658 0.950 . S
C2666 C2664 1.391 . S
C2666 C2667 1.400 . S
C2667 C2666 1.400 . S
C2667 C2668 1.398 1_455 S
C2667 C2673 1.491 1_556 S
C2668 H2659 0.950 . S
C2668 C2667 1.398 1_655 S
C2668 C2669 1.391 . S
C2669 H2657 0.950 . S
C2669 C2665 1.393 1_655 S
C2669 C2668 1.391 . S
C2670 H2660 0.950 1_455 S
C2670 C2671 1.386 . S
C2670 C2672 1.391 1_455 S
C2671 C2670 1.386 . S
C2671 C2675 1.393 . S
C2672 H2661 0.950 . S
C2672 C2670 1.391 1_655 S
C2672 C2673 1.400 1_655 S
C2673 C2667 1.491 1_554 S
C2673 C2672 1.400 1_455 S
C2673 C2674 1.398 . S
C2674 H2662 0.950 . S
C2674 C2673 1.398 . S
C2674 C2675 1.391 . S
C2675 H2663 0.950 . S
C2675 C2671 1.393 . S
C2675 C2674 1.391 . S
H2676 C2684 0.950 . S
H2677 C2689 0.966 . S
H2678 C2686 0.950 . S
H2679 C2688 0.950 . S
H2680 C2690 0.950 . S
H2681 C2692 0.950 . S
H2682 C2694 0.950 . S
H2683 C2695 0.950 . S
C2684 H2676 0.950 . S
C2684 C2685 1.386 . S
C2684 C2686 1.391 . S
C2685 C2684 1.386 . S
C2685 C2689 1.396 1_655 S
C2686 H2678 0.950 . S
C2686 C2684 1.391 . S
C2686 C2687 1.400 . S
C2687 C2686 1.400 . S
C2687 C2688 1.398 . S
C2687 C2693 1.491 . S
C2688 H2679 0.950 . S
C2688 C2687 1.398 . S
C2688 C2689 1.371 1_655 S
C2689 H2677 0.966 . S
C2689 C2685 1.396 1_455 S
C2689 C2688 1.371 1_455 S
C2690 H2680 0.950 . S
C2690 C2691 1.386 . S
C2690 C2692 1.391 . S
C2691 C2690 1.386 . S
C2691 C2695 1.393 . S
C2692 H2681 0.950 . S
C2692 C2690 1.391 . S
C2692 C2693 1.400 . S
C2693 C2687 1.491 . S
C2693 C2692 1.400 . S
C2693 C2694 1.398 . S
C2694 H2682 0.950 . S
C2694 C2693 1.398 . S
C2694 C2695 1.391 . S
C2695 H2683 0.950 . S
C2695 C2691 1.393 . S
C2695 C2694 1.391 . S
H2696 C2704 0.950 . S
H2697 C2709 0.950 . S
H2698 C2706 0.950 . S
H2699 C2708 0.950 . S
H2700 C2710 0.950 . S
H2701 C2712 0.950 . S
H2702 C2714 0.950 . S
H2703 C2715 0.950 . S
C2704 H2696 0.950 . S
C2704 C2705 1.386 . S
C2704 C2706 1.391 . S
C2705 C2704 1.386 . S
C2705 C2709 1.393 . S
C2706 H2698 0.950 . S
C2706 C2704 1.391 . S
C2706 C2707 1.400 . S
C2707 C2706 1.400 . S
C2707 C2708 1.398 . S
C2707 C2713 1.491 . S
C2708 H2699 0.950 . S
C2708 C2707 1.398 . S
C2708 C2709 1.391 . S
C2709 H2697 0.950 . S
C2709 C2705 1.393 . S
C2709 C2708 1.391 . S
C2710 H2700 0.950 . S
C2710 C2711 1.386 . S
C2710 C2712 1.391 . S
C2711 C2710 1.386 . S
C2711 C2715 1.393 . S
C2712 H2701 0.950 . S
C2712 C2710 1.391 . S
C2712 C2713 1.400 . S
C2713 C2707 1.491 . S
C2713 C2712 1.400 . S
C2713 C2714 1.398 . S
C2714 H2702 0.950 . S
C2714 C2713 1.398 . S
C2714 C2715 1.391 . S
C2715 H2703 0.950 . S
C2715 C2711 1.393 . S
C2715 C2714 1.391 . S
H2716 C2724 0.950 . S
H2717 C2729 0.950 . S
H2718 C2726 0.950 . S
H2719 C2728 0.950 . S
H2720 C2730 0.950 . S
H2721 C2732 0.950 . S
H2722 C2734 0.950 . S
H2723 C2735 0.950 . S
C2724 H2716 0.950 . S
C2724 C2725 1.386 . S
C2724 C2726 1.391 . S
C2725 C2724 1.386 . S
C2725 C2729 1.393 . S
C2726 H2718 0.950 . S
C2726 C2724 1.391 . S
C2726 C2727 1.400 . S
C2727 C2726 1.400 . S
C2727 C2728 1.398 . S
C2727 C2733 1.491 . S
C2728 H2719 0.950 . S
C2728 C2727 1.398 . S
C2728 C2729 1.391 . S
C2729 H2717 0.950 . S
C2729 C2725 1.393 . S
C2729 C2728 1.391 . S
C2730 H2720 0.950 . S
C2730 C2731 1.386 . S
C2730 C2732 1.391 . S
C2731 C2730 1.386 . S
C2731 C2735 1.393 . S
C2732 H2721 0.950 . S
C2732 C2730 1.391 . S
C2732 C2733 1.400 . S
C2733 C2727 1.491 . S
C2733 C2732 1.400 . S
C2733 C2734 1.398 . S
C2734 H2722 0.950 . S
C2734 C2733 1.398 . S
C2734 C2735 1.391 . S
C2735 H2723 0.950 . S
C2735 C2731 1.393 . S
C2735 C2734 1.391 . S
H2736 C2744 0.950 . S
H2737 C2749 0.950 1_655 S
H2738 C2746 0.950 . S
H2739 C2748 0.950 1_655 S
H2740 C2750 0.950 . S
H2741 C2752 0.950 1_655 S
H2742 C2754 0.950 . S
H2743 C2755 0.950 . S
C2744 H2736 0.950 . S
C2744 C2745 1.386 . S
C2744 C2746 1.391 . S
C2745 C2744 1.386 . S
C2745 C2749 1.393 . S
C2746 H2738 0.950 . S
C2746 C2744 1.391 . S
C2746 C2747 1.400 . S
C2747 C2746 1.400 . S
C2747 C2748 1.398 . S
C2747 C2753 1.491 . S
C2748 H2739 0.950 1_455 S
C2748 C2747 1.398 . S
C2748 C2749 1.391 . S
C2749 H2737 0.950 1_455 S
C2749 C2745 1.393 . S
C2749 C2748 1.391 . S
C2750 H2740 0.950 . S
C2750 C2751 1.386 . S
C2750 C2752 1.391 . S
C2751 C2750 1.386 . S
C2751 C2755 1.393 . S
C2752 H2741 0.950 1_455 S
C2752 C2750 1.391 . S
C2752 C2753 1.400 . S
C2753 C2747 1.491 . S
C2753 C2752 1.400 . S
C2753 C2754 1.398 . S
C2754 H2742 0.950 . S
C2754 C2753 1.398 . S
C2754 C2755 1.391 . S
C2755 H2743 0.950 . S
C2755 C2751 1.393 . S
C2755 C2754 1.391 . S
H2756 C2764 0.950 . S
H2757 C2769 0.950 . S
H2758 C2766 0.950 . S
H2759 C2768 0.950 . S
H2760 C2770 0.950 . S
H2761 C2772 0.950 . S
H2762 C2774 0.950 . S
H2763 C2775 0.950 . S
C2764 H2756 0.950 . S
C2764 C2765 1.386 . S
C2764 C2766 1.391 . S
C2765 C2764 1.386 . S
C2765 C2769 1.393 . S
C2766 H2758 0.950 . S
C2766 C2764 1.391 . S
C2766 C2767 1.400 . S
C2767 C2766 1.400 . S
C2767 C2768 1.398 . S
C2767 C2773 1.491 . S
C2768 H2759 0.950 . S
C2768 C2767 1.398 . S
C2768 C2769 1.391 . S
C2769 H2757 0.950 . S
C2769 C2765 1.393 . S
C2769 C2768 1.391 . S
C2770 H2760 0.950 . S
C2770 C2771 1.386 . S
C2770 C2772 1.391 . S
C2771 C2770 1.386 . S
C2771 C2775 1.393 . S
C2772 H2761 0.950 . S
C2772 C2770 1.391 . S
C2772 C2773 1.400 . S
C2773 C2767 1.491 . S
C2773 C2772 1.400 . S
C2773 C2774 1.398 . S
C2774 H2762 0.950 . S
C2774 C2773 1.398 . S
C2774 C2775 1.391 . S
C2775 H2763 0.950 . S
C2775 C2771 1.393 . S
C2775 C2774 1.391 . S
H2776 C2784 0.950 . S
H2777 C2789 0.950 . S
H2778 C2786 0.950 . S
H2779 C2788 0.950 . S
H2780 C2790 0.950 . S
H2781 C2792 0.950 . S
H2782 C2794 0.950 . S
H2783 C2795 0.950 . S
C2784 H2776 0.950 . S
C2784 C2785 1.386 . S
C2784 C2786 1.391 . S
C2785 C2784 1.386 . S
C2785 C2789 1.393 . S
C2786 H2778 0.950 . S
C2786 C2784 1.391 . S
C2786 C2787 1.400 . S
C2787 C2786 1.400 . S
C2787 C2788 1.398 . S
C2787 C2793 1.491 . S
C2788 H2779 0.950 . S
C2788 C2787 1.398 . S
C2788 C2789 1.391 . S
C2789 H2777 0.950 . S
C2789 C2785 1.393 . S
C2789 C2788 1.391 . S
C2790 H2780 0.950 . S
C2790 C2791 1.386 . S
C2790 C2792 1.391 . S
C2791 C2790 1.386 . S
C2791 C2795 1.393 . S
C2792 H2781 0.950 . S
C2792 C2790 1.391 . S
C2792 C2793 1.400 . S
C2793 C2787 1.491 . S
C2793 C2792 1.400 . S
C2793 C2794 1.398 . S
C2794 H2782 0.950 . S
C2794 C2793 1.398 . S
C2794 C2795 1.391 . S
C2795 H2783 0.950 . S
C2795 C2791 1.393 . S
C2795 C2794 1.391 . S
H2796 C2804 0.950 . S
H2797 C2809 0.950 . S
H2798 C2806 0.950 . S
H2799 C2808 0.950 . S
H2800 C2810 0.950 . S
H2801 C2812 0.950 . S
H2802 C2814 0.950 . S
H2803 C2815 0.950 . S
C2804 H2796 0.950 . S
C2804 C2805 1.386 1_556 S
C2804 C2806 1.391 . S
C2805 C2804 1.386 1_554 S
C2805 C2809 1.393 . S
C2806 H2798 0.950 . S
C2806 C2804 1.391 . S
C2806 C2807 1.400 . S
C2807 C2806 1.400 . S
C2807 C2808 1.398 . S
C2807 C2813 1.491 . S
C2808 H2799 0.950 . S
C2808 C2807 1.398 . S
C2808 C2809 1.391 1_556 S
C2809 H2797 0.950 . S
C2809 C2805 1.393 . S
C2809 C2808 1.391 1_554 S
C2810 H2800 0.950 . S
C2810 C2811 1.386 . S
C2810 C2812 1.391 . S
C2811 C2810 1.386 . S
C2811 C2815 1.393 . S
C2812 H2801 0.950 . S
C2812 C2810 1.391 . S
C2812 C2813 1.400 . S
C2813 C2807 1.491 . S
C2813 C2812 1.400 . S
C2813 C2814 1.398 . S
C2814 H2802 0.950 . S
C2814 C2813 1.398 . S
C2814 C2815 1.391 . S
C2815 H2803 0.950 . S
C2815 C2811 1.393 . S
C2815 C2814 1.391 . S
H2816 C2824 0.950 . S
H2817 C2829 0.950 . S
H2818 C2826 0.950 . S
H2819 C2828 0.950 . S
H2820 C2830 0.950 . S
H2821 C2832 0.950 . S
H2822 C2834 0.950 . S
H2823 C2835 0.950 . S
C2824 H2816 0.950 . S
C2824 C2825 1.386 . S
C2824 C2826 1.391 . S
C2825 C2824 1.386 . S
C2825 C2829 1.393 . S
C2826 H2818 0.950 . S
C2826 C2824 1.391 . S
C2826 C2827 1.400 . S
C2827 C2826 1.400 . S
C2827 C2828 1.398 . S
C2827 C2833 1.491 . S
C2828 H2819 0.950 . S
C2828 C2827 1.398 . S
C2828 C2829 1.391 . S
C2829 H2817 0.950 . S
C2829 C2825 1.393 . S
C2829 C2828 1.391 . S
C2830 H2820 0.950 . S
C2830 C2831 1.386 . S
C2830 C2832 1.391 . S
C2831 C2830 1.386 . S
C2831 C2835 1.393 . S
C2832 H2821 0.950 . S
C2832 C2830 1.391 . S
C2832 C2833 1.400 . S
C2833 C2827 1.491 . S
C2833 C2832 1.400 . S
C2833 C2834 1.398 . S
C2834 H2822 0.950 . S
C2834 C2833 1.398 . S
C2834 C2835 1.391 . S
C2835 H2823 0.950 . S
C2835 C2831 1.393 . S
C2835 C2834 1.391 . S
H2836 C2844 0.950 . S
H2837 C2849 0.950 . S
H2838 C2846 0.950 . S
H2839 C2848 0.950 . S
H2840 C2850 0.950 . S
H2841 C2852 0.950 . S
H2842 C2854 0.950 . S
H2843 C2855 0.950 . S
C2844 H2836 0.950 . S
C2844 C2845 1.386 . S
C2844 C2846 1.391 . S
C2845 C2844 1.386 . S
C2845 C2849 1.393 . S
C2846 H2838 0.950 . S
C2846 C2844 1.391 . S
C2846 C2847 1.400 . S
C2847 C2846 1.400 . S
C2847 C2848 1.398 . S
C2847 C2853 1.491 . S
C2848 H2839 0.950 . S
C2848 C2847 1.398 . S
C2848 C2849 1.391 . S
C2849 H2837 0.950 . S
C2849 C2845 1.393 . S
C2849 C2848 1.391 . S
C2850 H2840 0.950 . S
C2850 C2851 1.386 . S
C2850 C2852 1.391 . S
C2851 C2850 1.386 . S
C2851 C2855 1.393 . S
C2852 H2841 0.950 . S
C2852 C2850 1.391 . S
C2852 C2853 1.400 . S
C2853 C2847 1.491 . S
C2853 C2852 1.400 . S
C2853 C2854 1.398 . S
C2854 H2842 0.950 . S
C2854 C2853 1.398 . S
C2854 C2855 1.391 . S
C2855 H2843 0.950 . S
C2855 C2851 1.393 . S
C2855 C2854 1.391 . S
H2856 C2864 0.950 . S
H2857 C2869 0.950 . S
H2858 C2866 0.950 . S
H2859 C2868 0.950 . S
H2860 C2870 0.950 . S
H2861 C2872 0.950 . S
H2862 C2874 0.950 . S
H2863 C2875 0.950 . S
C2864 H2856 0.950 . S
C2864 C2865 1.386 . S
C2864 C2866 1.391 . S
C2865 C2864 1.386 . S
C2865 C2869 1.393 . S
C2866 H2858 0.950 . S
C2866 C2864 1.391 . S
C2866 C2867 1.400 . S
C2867 C2866 1.400 . S
C2867 C2868 1.398 . S
C2867 C2873 1.491 . S
C2868 H2859 0.950 . S
C2868 C2867 1.398 . S
C2868 C2869 1.391 . S
C2869 H2857 0.950 . S
C2869 C2865 1.393 . S
C2869 C2868 1.391 . S
C2870 H2860 0.950 . S
C2870 C2871 1.386 . S
C2870 C2872 1.391 . S
C2871 C2870 1.386 . S
C2871 C2875 1.393 . S
C2872 H2861 0.950 . S
C2872 C2870 1.391 . S
C2872 C2873 1.400 . S
C2873 C2867 1.491 . S
C2873 C2872 1.400 . S
C2873 C2874 1.398 . S
C2874 H2862 0.950 . S
C2874 C2873 1.398 . S
C2874 C2875 1.391 . S
C2875 H2863 0.950 . S
C2875 C2871 1.393 . S
C2875 C2874 1.391 . S
H2876 C2884 0.950 . S
H2877 C2889 0.950 . S
H2878 C2886 0.950 . S
H2879 C2888 0.950 . S
H2880 C2890 0.950 . S
H2881 C2892 0.950 . S
H2882 C2894 0.950 . S
H2883 C2895 0.950 . S
C2884 H2876 0.950 . S
C2884 C2885 1.386 . S
C2884 C2886 1.391 . S
C2885 C2884 1.386 . S
C2885 C2889 1.393 . S
C2886 H2878 0.950 . S
C2886 C2884 1.391 . S
C2886 C2887 1.400 . S
C2887 C2886 1.400 . S
C2887 C2888 1.398 . S
C2887 C2893 1.491 . S
C2888 H2879 0.950 . S
C2888 C2887 1.398 . S
C2888 C2889 1.391 . S
C2889 H2877 0.950 . S
C2889 C2885 1.393 . S
C2889 C2888 1.391 . S
C2890 H2880 0.950 . S
C2890 C2891 1.386 . S
C2890 C2892 1.391 . S
C2891 C2890 1.386 . S
C2891 C2895 1.393 . S
C2892 H2881 0.950 . S
C2892 C2890 1.391 . S
C2892 C2893 1.400 . S
C2893 C2887 1.491 . S
C2893 C2892 1.400 . S
C2893 C2894 1.398 . S
C2894 H2882 0.950 . S
C2894 C2893 1.398 . S
C2894 C2895 1.391 . S
C2895 H2883 0.950 . S
C2895 C2891 1.393 . S
C2895 C2894 1.391 . S
H2896 C2904 0.950 . S
H2897 C2909 0.950 . S
H2898 C2906 0.950 . S
H2899 C2908 0.950 . S
H2900 C2910 0.950 . S
H2901 C2912 0.950 . S
H2902 C2914 0.950 . S
H2903 C2915 0.950 . S
C2904 H2896 0.950 . S
C2904 C2905 1.386 . S
C2904 C2906 1.391 . S
C2905 C2904 1.386 . S
C2905 C2909 1.393 . S
C2906 H2898 0.950 . S
C2906 C2904 1.391 . S
C2906 C2907 1.400 . S
C2907 C2906 1.400 . S
C2907 C2908 1.398 . S
C2907 C2913 1.491 . S
C2908 H2899 0.950 . S
C2908 C2907 1.398 . S
C2908 C2909 1.391 . S
C2909 H2897 0.950 . S
C2909 C2905 1.393 . S
C2909 C2908 1.391 . S
C2910 H2900 0.950 . S
C2910 C2911 1.386 . S
C2910 C2912 1.391 . S
C2911 C2910 1.386 . S
C2911 C2915 1.393 . S
C2912 H2901 0.950 . S
C2912 C2910 1.391 . S
C2912 C2913 1.400 . S
C2913 C2907 1.491 . S
C2913 C2912 1.400 . S
C2913 C2914 1.398 . S
C2914 H2902 0.950 . S
C2914 C2913 1.398 . S
C2914 C2915 1.391 . S
C2915 H2903 0.950 . S
C2915 C2911 1.393 . S
C2915 C2914 1.391 . S
H2916 C2924 0.950 . S
H2917 C2929 0.950 . S
H2918 C2926 0.950 . S
H2919 C2928 0.950 . S
H2920 C2930 0.950 . S
H2921 C2932 0.950 . S
H2922 C2934 0.950 . S
H2923 C2935 0.950 . S
C2924 H2916 0.950 . S
C2924 C2925 1.386 . S
C2924 C2926 1.391 . S
C2925 C2924 1.386 . S
C2925 C2929 1.393 . S
C2926 H2918 0.950 . S
C2926 C2924 1.391 . S
C2926 C2927 1.400 . S
C2927 C2926 1.400 . S
C2927 C2928 1.398 . S
C2927 C2933 1.491 . S
C2928 H2919 0.950 . S
C2928 C2927 1.398 . S
C2928 C2929 1.391 . S
C2929 H2917 0.950 . S
C2929 C2925 1.393 . S
C2929 C2928 1.391 . S
C2930 H2920 0.950 . S
C2930 C2931 1.386 . S
C2930 C2932 1.391 . S
C2931 C2930 1.386 . S
C2931 C2935 1.393 . S
C2932 H2921 0.950 . S
C2932 C2930 1.391 . S
C2932 C2933 1.400 . S
C2933 C2927 1.491 . S
C2933 C2932 1.400 . S
C2933 C2934 1.398 . S
C2934 H2922 0.950 . S
C2934 C2933 1.398 . S
C2934 C2935 1.391 . S
C2935 H2923 0.950 . S
C2935 C2931 1.393 . S
C2935 C2934 1.391 . S
H2936 C2944 0.950 . S
H2937 C2949 0.950 . S
H2938 C2946 0.950 . S
H2939 C2948 0.950 . S
H2940 C2950 0.950 . S
H2941 C2952 0.950 . S
H2942 C2954 0.950 . S
H2943 C2955 0.950 . S
C2944 H2936 0.950 . S
C2944 C2945 1.386 . S
C2944 C2946 1.391 . S
C2945 C2944 1.386 . S
C2945 C2949 1.393 . S
C2946 H2938 0.950 . S
C2946 C2944 1.391 . S
C2946 C2947 1.400 . S
C2947 C2946 1.400 . S
C2947 C2948 1.398 . S
C2947 C2953 1.491 . S
C2948 H2939 0.950 . S
C2948 C2947 1.398 . S
C2948 C2949 1.391 . S
C2949 H2937 0.950 . S
C2949 C2945 1.393 . S
C2949 C2948 1.391 . S
C2950 H2940 0.950 . S
C2950 C2951 1.386 . S
C2950 C2952 1.391 . S
C2951 C2950 1.386 . S
C2951 C2955 1.393 . S
C2952 H2941 0.950 . S
C2952 C2950 1.391 . S
C2952 C2953 1.400 . S
C2953 C2947 1.491 . S
C2953 C2952 1.400 . S
C2953 C2954 1.398 . S
C2954 H2942 0.950 . S
C2954 C2953 1.398 . S
C2954 C2955 1.391 . S
C2955 H2943 0.950 . S
C2955 C2951 1.393 . S
C2955 C2954 1.391 . S
H2956 C2964 0.950 . S
H2957 C2969 0.950 . S
H2958 C2966 0.950 . S
H2959 C2968 0.950 . S
H2960 C2970 0.950 . S
H2961 C2972 0.950 . S
H2962 C2974 0.950 . S
H2963 C2975 0.950 . S
C2964 H2956 0.950 . S
C2964 C2965 1.386 . S
C2964 C2966 1.391 . S
C2965 C2964 1.386 . S
C2965 C2969 1.393 . S
C2966 H2958 0.950 . S
C2966 C2964 1.391 . S
C2966 C2967 1.400 . S
C2967 C2966 1.400 . S
C2967 C2968 1.398 . S
C2967 C2973 1.491 . S
C2968 H2959 0.950 . S
C2968 C2967 1.398 . S
C2968 C2969 1.391 . S
C2969 H2957 0.950 . S
C2969 C2965 1.393 . S
C2969 C2968 1.391 . S
C2970 H2960 0.950 . S
C2970 C2971 1.386 . S
C2970 C2972 1.391 . S
C2971 C2970 1.386 . S
C2971 C2975 1.393 . S
C2972 H2961 0.950 . S
C2972 C2970 1.391 . S
C2972 C2973 1.400 . S
C2973 C2967 1.491 . S
C2973 C2972 1.400 . S
C2973 C2974 1.398 . S
C2974 H2962 0.950 . S
C2974 C2973 1.398 . S
C2974 C2975 1.391 . S
C2975 H2963 0.950 . S
C2975 C2971 1.393 . S
C2975 C2974 1.391 . S
H2976 C2984 0.950 . S
H2977 C2989 0.950 . S
H2978 C2986 0.950 . S
H2979 C2988 0.950 . S
H2980 C2990 0.950 . S
H2981 C2992 0.950 . S
H2982 C2994 0.950 . S
H2983 C2995 0.950 . S
C2984 H2976 0.950 . S
C2984 C2985 1.386 . S
C2984 C2986 1.391 . S
C2985 C2984 1.386 . S
C2985 C2989 1.393 . S
C2986 H2978 0.950 . S
C2986 C2984 1.391 . S
C2986 C2987 1.400 . S
C2987 C2986 1.400 . S
C2987 C2988 1.398 . S
C2987 C2993 1.491 . S
C2988 H2979 0.950 . S
C2988 C2987 1.398 . S
C2988 C2989 1.391 . S
C2989 H2977 0.950 . S
C2989 C2985 1.393 . S
C2989 C2988 1.391 . S
C2990 H2980 0.950 . S
C2990 C2991 1.386 . S
C2990 C2992 1.391 . S
C2991 C2990 1.386 . S
C2991 C2995 1.393 . S
C2992 H2981 0.950 . S
C2992 C2990 1.391 . S
C2992 C2993 1.400 . S
C2993 C2987 1.491 . S
C2993 C2992 1.400 . S
C2993 C2994 1.398 . S
C2994 H2982 0.950 . S
C2994 C2993 1.398 . S
C2994 C2995 1.391 . S
C2995 H2983 0.950 . S
C2995 C2991 1.393 . S
C2995 C2994 1.391 . S
H2996 C3004 0.950 . S
H2997 C3009 0.950 1_556 S
H2998 C3006 0.950 1_545 S
H2999 C3008 0.950 . S
H3000 C3010 0.950 . S
H3001 C3012 0.950 . S
H3002 C3014 0.950 . S
H3003 C3015 0.950 . S
C3004 H2996 0.950 . S
C3004 C3005 1.386 . S
C3004 C3006 1.391 . S
C3005 C3004 1.386 . S
C3005 C3009 1.393 . S
C3006 H2998 0.950 1_565 S
C3006 C3004 1.391 . S
C3006 C3007 1.400 . S
C3007 C3006 1.400 . S
C3007 C3008 1.398 . S
C3007 C3013 1.491 . S
C3008 H2999 0.950 . S
C3008 C3007 1.398 . S
C3008 C3009 1.391 . S
C3009 H2997 0.950 1_554 S
C3009 C3005 1.393 . S
C3009 C3008 1.391 . S
C3010 H3000 0.950 . S
C3010 C3011 1.386 1_565 S
C3010 C3012 1.391 . S
C3011 C3010 1.386 1_545 S
C3011 C3015 1.393 . S
C3012 H3001 0.950 . S
C3012 C3010 1.391 . S
C3012 C3013 1.400 . S
C3013 C3007 1.491 . S
C3013 C3012 1.400 . S
C3013 C3014 1.398 1_565 S
C3014 H3002 0.950 . S
C3014 C3013 1.398 1_545 S
C3014 C3015 1.391 . S
C3015 H3003 0.950 . S
C3015 C3011 1.393 . S
C3015 C3014 1.391 . S
H3016 C3024 0.950 . S
H3017 C3029 0.950 . S
H3018 C3026 0.950 . S
H3019 C3028 0.950 . S
H3020 C3030 0.950 . S
H3021 C3032 0.950 . S
H3022 C3034 0.950 . S
H3023 C3035 0.950 . S
C3024 H3016 0.950 . S
C3024 C3025 1.386 . S
C3024 C3026 1.391 . S
C3025 C3024 1.386 . S
C3025 C3029 1.393 . S
C3026 H3018 0.950 . S
C3026 C3024 1.391 . S
C3026 C3027 1.400 . S
C3027 C3026 1.400 . S
C3027 C3028 1.398 . S
C3027 C3033 1.491 . S
C3028 H3019 0.950 . S
C3028 C3027 1.398 . S
C3028 C3029 1.391 . S
C3029 H3017 0.950 . S
C3029 C3025 1.393 . S
C3029 C3028 1.391 . S
C3030 H3020 0.950 . S
C3030 C3031 1.386 . S
C3030 C3032 1.391 . S
C3031 C3030 1.386 . S
C3031 C3035 1.393 . S
C3032 H3021 0.950 . S
C3032 C3030 1.391 . S
C3032 C3033 1.400 . S
C3033 C3027 1.491 . S
C3033 C3032 1.400 . S
C3033 C3034 1.398 . S
C3034 H3022 0.950 . S
C3034 C3033 1.398 . S
C3034 C3035 1.391 . S
C3035 H3023 0.950 . S
C3035 C3031 1.393 . S
C3035 C3034 1.391 . S
H3036 C3044 0.945 1_556 S
H3037 C3049 0.950 . S
H3038 C3046 0.950 1_556 S
H3039 C3048 0.950 . S
H3040 C3050 0.950 . S
H3041 C3052 0.950 . S
H3042 C3054 0.975 . S
H3043 C3055 0.950 . S
C3044 H3036 0.945 1_554 S
C3044 C3045 1.390 . S
C3044 C3046 1.392 . S
C3045 C3044 1.390 . S
C3045 C3049 1.393 . S
C3046 H3038 0.950 1_554 S
C3046 C3044 1.392 . S
C3046 C3047 1.400 . S
C3047 C3046 1.400 . S
C3047 C3048 1.398 . S
C3047 C3053 1.491 . S
C3048 H3039 0.950 . S
C3048 C3047 1.398 . S
C3048 C3049 1.391 . S
C3049 H3037 0.950 . S
C3049 C3045 1.393 . S
C3049 C3048 1.391 . S
C3050 H3040 0.950 . S
C3050 C3051 1.386 . S
C3050 C3052 1.391 . S
C3051 C3050 1.386 . S
C3051 C3055 1.393 . S
C3052 H3041 0.950 . S
C3052 C3050 1.391 . S
C3052 C3053 1.400 . S
C3053 C3047 1.491 . S
C3053 C3052 1.400 . S
C3053 C3054 1.398 . S
C3054 H3042 0.975 . S
C3054 C3053 1.398 . S
C3054 C3055 1.391 . S
C3055 H3043 0.950 . S
C3055 C3051 1.393 . S
C3055 C3054 1.391 . S
H3056 C3064 0.950 . S
H3057 C3069 0.950 . S
H3058 C3066 0.950 . S
H3059 C3068 0.950 . S
H3060 C3070 0.950 . S
H3061 C3072 0.950 . S
H3062 C3074 0.950 . S
H3063 C3075 0.950 . S
C3064 H3056 0.950 . S
C3064 C3065 1.386 . S
C3064 C3066 1.391 . S
C3065 C3064 1.386 . S
C3065 C3069 1.393 . S
C3066 H3058 0.950 . S
C3066 C3064 1.391 . S
C3066 C3067 1.400 . S
C3067 C3066 1.400 . S
C3067 C3068 1.398 . S
C3067 C3073 1.491 . S
C3068 H3059 0.950 . S
C3068 C3067 1.398 . S
C3068 C3069 1.391 . S
C3069 H3057 0.950 . S
C3069 C3065 1.393 . S
C3069 C3068 1.391 . S
C3070 H3060 0.950 . S
C3070 C3071 1.386 . S
C3070 C3072 1.391 . S
C3071 C3070 1.386 . S
C3071 C3075 1.393 . S
C3072 H3061 0.950 . S
C3072 C3070 1.391 . S
C3072 C3073 1.400 . S
C3073 C3067 1.491 . S
C3073 C3072 1.400 . S
C3073 C3074 1.398 . S
C3074 H3062 0.950 . S
C3074 C3073 1.398 . S
C3074 C3075 1.391 . S
C3075 H3063 0.950 . S
C3075 C3071 1.393 . S
C3075 C3074 1.391 . S
H3076 C3084 0.950 . S
H3077 C3089 0.950 . S
H3078 C3086 0.950 . S
H3079 C3088 0.950 . S
H3080 C3090 0.950 . S
H3081 C3092 0.950 . S
H3082 C3094 0.950 . S
H3083 C3095 0.950 . S
C3084 H3076 0.950 . S
C3084 C3085 1.386 . S
C3084 C3086 1.391 . S
C3085 C3084 1.386 . S
C3085 C3089 1.393 . S
C3086 H3078 0.950 . S
C3086 C3084 1.391 . S
C3086 C3087 1.400 . S
C3087 C3086 1.400 . S
C3087 C3088 1.398 . S
C3087 C3093 1.491 . S
C3088 H3079 0.950 . S
C3088 C3087 1.398 . S
C3088 C3089 1.391 . S
C3089 H3077 0.950 . S
C3089 C3085 1.393 . S
C3089 C3088 1.391 . S
C3090 H3080 0.950 . S
C3090 C3091 1.386 . S
C3090 C3092 1.391 . S
C3091 C3090 1.386 . S
C3091 C3095 1.393 . S
C3092 H3081 0.950 . S
C3092 C3090 1.391 . S
C3092 C3093 1.400 . S
C3093 C3087 1.491 . S
C3093 C3092 1.400 . S
C3093 C3094 1.398 . S
C3094 H3082 0.950 . S
C3094 C3093 1.398 . S
C3094 C3095 1.391 . S
C3095 H3083 0.950 . S
C3095 C3091 1.393 . S
C3095 C3094 1.391 . S
H3096 C3104 0.950 . S
H3097 C3109 0.950 . S
H3098 C3106 0.950 . S
H3099 C3108 0.950 . S
H3100 C3110 0.950 . S
H3101 C3112 0.950 . S
H3102 C3114 0.950 . S
H3103 C3115 0.950 . S
C3104 H3096 0.950 . S
C3104 C3105 1.386 . S
C3104 C3106 1.391 . S
C3105 C3104 1.386 . S
C3105 C3109 1.393 . S
C3106 H3098 0.950 . S
C3106 C3104 1.391 . S
C3106 C3107 1.400 . S
C3107 C3106 1.400 . S
C3107 C3108 1.398 . S
C3107 C3113 1.491 . S
C3108 H3099 0.950 . S
C3108 C3107 1.398 . S
C3108 C3109 1.391 . S
C3109 H3097 0.950 . S
C3109 C3105 1.393 . S
C3109 C3108 1.391 . S
C3110 H3100 0.950 . S
C3110 C3111 1.386 . S
C3110 C3112 1.391 . S
C3111 C3110 1.386 . S
C3111 C3115 1.393 . S
C3112 H3101 0.950 . S
C3112 C3110 1.391 . S
C3112 C3113 1.400 . S
C3113 C3107 1.491 . S
C3113 C3112 1.400 . S
C3113 C3114 1.398 . S
C3114 H3102 0.950 . S
C3114 C3113 1.398 . S
C3114 C3115 1.391 . S
C3115 H3103 0.950 . S
C3115 C3111 1.393 . S
C3115 C3114 1.391 . S
H3116 C3124 0.950 . S
H3117 C3129 0.950 . S
H3118 C3126 0.950 . S
H3119 C3128 0.950 . S
H3120 C3130 0.950 . S
H3121 C3132 0.950 . S
H3122 C3134 0.950 . S
H3123 C3135 0.950 . S
C3124 H3116 0.950 . S
C3124 C3125 1.386 . S
C3124 C3126 1.391 . S
C3125 C3124 1.386 . S
C3125 C3129 1.393 . S
C3126 H3118 0.950 . S
C3126 C3124 1.391 . S
C3126 C3127 1.400 . S
C3127 C3126 1.400 . S
C3127 C3128 1.398 . S
C3127 C3133 1.491 . S
C3128 H3119 0.950 . S
C3128 C3127 1.398 . S
C3128 C3129 1.391 . S
C3129 H3117 0.950 . S
C3129 C3125 1.393 . S
C3129 C3128 1.391 . S
C3130 H3120 0.950 . S
C3130 C3131 1.386 . S
C3130 C3132 1.391 . S
C3131 C3130 1.386 . S
C3131 C3135 1.393 . S
C3132 H3121 0.950 . S
C3132 C3130 1.391 . S
C3132 C3133 1.400 . S
C3133 C3127 1.491 . S
C3133 C3132 1.400 . S
C3133 C3134 1.398 . S
C3134 H3122 0.950 . S
C3134 C3133 1.398 . S
C3134 C3135 1.391 . S
C3135 H3123 0.950 . S
C3135 C3131 1.393 . S
C3135 C3134 1.391 . S
H3136 C3144 0.950 . S
H3137 C3149 0.950 . S
H3138 C3146 0.950 . S
H3139 C3148 0.950 . S
H3140 C3150 0.950 . S
H3141 C3152 0.950 . S
H3142 C3154 0.950 . S
H3143 C3155 0.950 . S
C3144 H3136 0.950 . S
C3144 C3145 1.386 . S
C3144 C3146 1.391 . S
C3145 C3144 1.386 . S
C3145 C3149 1.393 . S
C3146 H3138 0.950 . S
C3146 C3144 1.391 . S
C3146 C3147 1.400 . S
C3147 C3146 1.400 . S
C3147 C3148 1.398 . S
C3147 C3153 1.491 . S
C3148 H3139 0.950 . S
C3148 C3147 1.398 . S
C3148 C3149 1.391 . S
C3149 H3137 0.950 . S
C3149 C3145 1.393 . S
C3149 C3148 1.391 . S
C3150 H3140 0.950 . S
C3150 C3151 1.386 . S
C3150 C3152 1.391 . S
C3151 C3150 1.386 . S
C3151 C3155 1.393 . S
C3152 H3141 0.950 . S
C3152 C3150 1.391 . S
C3152 C3153 1.400 . S
C3153 C3147 1.491 . S
C3153 C3152 1.400 . S
C3153 C3154 1.398 . S
C3154 H3142 0.950 . S
C3154 C3153 1.398 . S
C3154 C3155 1.391 . S
C3155 H3143 0.950 . S
C3155 C3151 1.393 . S
C3155 C3154 1.391 . S
H3156 C3164 0.950 . S
H3157 C3169 0.950 . S
H3158 C3166 0.950 . S
H3159 C3168 0.950 . S
H3160 C3170 0.950 . S
H3161 C3172 0.950 . S
H3162 C3174 0.950 . S
H3163 C3175 0.950 . S
C3164 H3156 0.950 . S
C3164 C3165 1.386 . S
C3164 C3166 1.391 . S
C3165 C3164 1.386 . S
C3165 C3169 1.393 . S
C3166 H3158 0.950 . S
C3166 C3164 1.391 . S
C3166 C3167 1.400 . S
C3167 C3166 1.400 . S
C3167 C3168 1.398 . S
C3167 C3173 1.491 . S
C3168 H3159 0.950 . S
C3168 C3167 1.398 . S
C3168 C3169 1.391 . S
C3169 H3157 0.950 . S
C3169 C3165 1.393 . S
C3169 C3168 1.391 . S
C3170 H3160 0.950 . S
C3170 C3171 1.386 . S
C3170 C3172 1.391 . S
C3171 C3170 1.386 . S
C3171 C3175 1.393 . S
C3172 H3161 0.950 . S
C3172 C3170 1.391 . S
C3172 C3173 1.400 . S
C3173 C3167 1.491 . S
C3173 C3172 1.400 . S
C3173 C3174 1.398 . S
C3174 H3162 0.950 . S
C3174 C3173 1.398 . S
C3174 C3175 1.391 . S
C3175 H3163 0.950 . S
C3175 C3171 1.393 . S
C3175 C3174 1.391 . S
H3176 C3184 0.950 . S
H3177 C3189 0.950 . S
H3178 C3186 0.950 . S
H3179 C3188 0.950 . S
H3180 C3190 0.950 . S
H3181 C3192 0.950 . S
H3182 C3194 0.950 . S
H3183 C3195 0.950 . S
C3184 H3176 0.950 . S
C3184 C3185 1.386 . S
C3184 C3186 1.391 . S
C3185 C3184 1.386 . S
C3185 C3189 1.393 . S
C3186 H3178 0.950 . S
C3186 C3184 1.391 . S
C3186 C3187 1.400 . S
C3187 C3186 1.400 . S
C3187 C3188 1.398 . S
C3187 C3193 1.491 . S
C3188 H3179 0.950 . S
C3188 C3187 1.398 . S
C3188 C3189 1.391 . S
C3189 H3177 0.950 . S
C3189 C3185 1.393 . S
C3189 C3188 1.391 . S
C3190 H3180 0.950 . S
C3190 C3191 1.386 . S
C3190 C3192 1.391 . S
C3191 C3190 1.386 . S
C3191 C3195 1.393 . S
C3192 H3181 0.950 . S
C3192 C3190 1.391 . S
C3192 C3193 1.400 . S
C3193 C3187 1.491 . S
C3193 C3192 1.400 . S
C3193 C3194 1.398 . S
C3194 H3182 0.950 . S
C3194 C3193 1.398 . S
C3194 C3195 1.391 . S
C3195 H3183 0.950 . S
C3195 C3191 1.393 . S
C3195 C3194 1.391 . S
H3196 C3204 0.950 . S
H3197 C3209 0.950 . S
H3198 C3206 0.950 . S
H3199 C3208 0.950 . S
H3200 C3210 0.950 . S
H3201 C3212 0.950 . S
H3202 C3214 0.950 . S
H3203 C3215 0.950 . S
C3204 H3196 0.950 . S
C3204 C3205 1.386 . S
C3204 C3206 1.391 . S
C3205 C3204 1.386 . S
C3205 C3209 1.393 . S
C3206 H3198 0.950 . S
C3206 C3204 1.391 . S
C3206 C3207 1.400 . S
C3207 C3206 1.400 . S
C3207 C3208 1.398 . S
C3207 C3213 1.491 . S
C3208 H3199 0.950 . S
C3208 C3207 1.398 . S
C3208 C3209 1.391 . S
C3209 H3197 0.950 . S
C3209 C3205 1.393 . S
C3209 C3208 1.391 . S
C3210 H3200 0.950 . S
C3210 C3211 1.386 . S
C3210 C3212 1.391 . S
C3211 C3210 1.386 . S
C3211 C3215 1.393 . S
C3212 H3201 0.950 . S
C3212 C3210 1.391 . S
C3212 C3213 1.400 . S
C3213 C3207 1.491 . S
C3213 C3212 1.400 . S
C3213 C3214 1.398 . S
C3214 H3202 0.950 . S
C3214 C3213 1.398 . S
C3214 C3215 1.391 . S
C3215 H3203 0.950 . S
C3215 C3211 1.393 . S
C3215 C3214 1.391 . S
H3216 C3224 0.950 . S
H3217 C3229 0.950 . S
H3218 C3226 0.950 . S
H3219 C3228 0.950 . S
H3220 C3230 0.950 . S
H3221 C3232 0.950 . S
H3222 C3234 0.950 . S
H3223 C3235 0.950 . S
C3224 H3216 0.950 . S
C3224 C3225 1.386 . S
C3224 C3226 1.391 . S
C3225 C3224 1.386 . S
C3225 C3229 1.393 . S
C3226 H3218 0.950 . S
C3226 C3224 1.391 . S
C3226 C3227 1.400 . S
C3227 C3226 1.400 . S
C3227 C3228 1.398 . S
C3227 C3233 1.491 . S
C3228 H3219 0.950 . S
C3228 C3227 1.398 . S
C3228 C3229 1.391 . S
C3229 H3217 0.950 . S
C3229 C3225 1.393 . S
C3229 C3228 1.391 . S
C3230 H3220 0.950 . S
C3230 C3231 1.386 . S
C3230 C3232 1.391 . S
C3231 C3230 1.386 . S
C3231 C3235 1.393 . S
C3232 H3221 0.950 . S
C3232 C3230 1.391 . S
C3232 C3233 1.400 . S
C3233 C3227 1.491 . S
C3233 C3232 1.400 . S
C3233 C3234 1.398 . S
C3234 H3222 0.950 . S
C3234 C3233 1.398 . S
C3234 C3235 1.391 . S
C3235 H3223 0.950 . S
C3235 C3231 1.393 . S
C3235 C3234 1.391 . S
H3236 C3244 0.950 . S
H3237 C3249 0.950 . S
H3238 C3246 0.950 . S
H3239 C3248 0.950 . S
H3240 C3250 0.950 . S
H3241 C3252 0.950 . S
H3242 C3254 0.950 . S
H3243 C3255 0.950 . S
C3244 H3236 0.950 . S
C3244 C3245 1.386 . S
C3244 C3246 1.391 . S
C3245 C3244 1.386 . S
C3245 C3249 1.393 . S
C3246 H3238 0.950 . S
C3246 C3244 1.391 . S
C3246 C3247 1.400 . S
C3247 C3246 1.400 . S
C3247 C3248 1.398 . S
C3247 C3253 1.491 . S
C3248 H3239 0.950 . S
C3248 C3247 1.398 . S
C3248 C3249 1.391 . S
C3249 H3237 0.950 . S
C3249 C3245 1.393 . S
C3249 C3248 1.391 . S
C3250 H3240 0.950 . S
C3250 C3251 1.386 . S
C3250 C3252 1.391 . S
C3251 C3250 1.386 . S
C3251 C3255 1.393 . S
C3252 H3241 0.950 . S
C3252 C3250 1.391 . S
C3252 C3253 1.400 . S
C3253 C3247 1.491 . S
C3253 C3252 1.400 . S
C3253 C3254 1.398 . S
C3254 H3242 0.950 . S
C3254 C3253 1.398 . S
C3254 C3255 1.391 . S
C3255 H3243 0.950 . S
C3255 C3251 1.393 . S
C3255 C3254 1.391 . S
H3256 C3264 0.950 . S
H3257 C3269 0.950 . S
H3258 C3266 0.950 . S
H3259 C3268 0.950 . S
H3260 C3270 0.950 . S
H3261 C3272 0.950 . S
H3262 C3274 0.950 . S
H3263 C3275 0.950 . S
C3264 H3256 0.950 . S
C3264 C3265 1.386 . S
C3264 C3266 1.391 . S
C3265 C3264 1.386 . S
C3265 C3269 1.393 . S
C3266 H3258 0.950 . S
C3266 C3264 1.391 . S
C3266 C3267 1.400 . S
C3267 C3266 1.400 . S
C3267 C3268 1.398 . S
C3267 C3273 1.491 . S
C3268 H3259 0.950 . S
C3268 C3267 1.398 . S
C3268 C3269 1.391 . S
C3269 H3257 0.950 . S
C3269 C3265 1.393 . S
C3269 C3268 1.391 . S
C3270 H3260 0.950 . S
C3270 C3271 1.386 . S
C3270 C3272 1.391 . S
C3271 C3270 1.386 . S
C3271 C3275 1.393 . S
C3272 H3261 0.950 . S
C3272 C3270 1.391 . S
C3272 C3273 1.400 . S
C3273 C3267 1.491 . S
C3273 C3272 1.400 . S
C3273 C3274 1.398 . S
C3274 H3262 0.950 . S
C3274 C3273 1.398 . S
C3274 C3275 1.391 . S
C3275 H3263 0.950 . S
C3275 C3271 1.393 . S
C3275 C3274 1.391 . S
H3276 C3284 0.950 . S
H3277 C3289 0.950 . S
H3278 C3286 0.950 . S
H3279 C3288 0.950 . S
H3280 C3290 0.950 . S
H3281 C3292 0.950 . S
H3282 C3294 0.950 . S
H3283 C3295 0.950 . S
C3284 H3276 0.950 . S
C3284 C3285 1.386 . S
C3284 C3286 1.391 . S
C3285 C3284 1.386 . S
C3285 C3289 1.393 . S
C3286 H3278 0.950 . S
C3286 C3284 1.391 . S
C3286 C3287 1.400 . S
C3287 C3286 1.400 . S
C3287 C3288 1.398 . S
C3287 C3293 1.491 . S
C3288 H3279 0.950 . S
C3288 C3287 1.398 . S
C3288 C3289 1.391 . S
C3289 H3277 0.950 . S
C3289 C3285 1.393 . S
C3289 C3288 1.391 . S
C3290 H3280 0.950 . S
C3290 C3291 1.386 . S
C3290 C3292 1.391 . S
C3291 C3290 1.386 . S
C3291 C3295 1.393 . S
C3292 H3281 0.950 . S
C3292 C3290 1.391 . S
C3292 C3293 1.400 . S
C3293 C3287 1.491 . S
C3293 C3292 1.400 . S
C3293 C3294 1.398 . S
C3294 H3282 0.950 . S
C3294 C3293 1.398 . S
C3294 C3295 1.391 . S
C3295 H3283 0.950 . S
C3295 C3291 1.393 . S
C3295 C3294 1.391 . S
H3296 C3304 0.950 . S
H3297 C3309 0.950 . S
H3298 C3306 0.950 . S
H3299 C3308 0.950 . S
H3300 C3310 0.950 . S
H3301 C3312 0.950 . S
H3302 C3314 0.950 . S
H3303 C3315 0.950 . S
C3304 H3296 0.950 . S
C3304 C3305 1.386 . S
C3304 C3306 1.391 . S
C3305 C3304 1.386 . S
C3305 C3309 1.393 . S
C3306 H3298 0.950 . S
C3306 C3304 1.391 . S
C3306 C3307 1.400 . S
C3307 C3306 1.400 . S
C3307 C3308 1.398 . S
C3307 C3313 1.491 . S
C3308 H3299 0.950 . S
C3308 C3307 1.398 . S
C3308 C3309 1.391 . S
C3309 H3297 0.950 . S
C3309 C3305 1.393 . S
C3309 C3308 1.391 . S
C3310 H3300 0.950 . S
C3310 C3311 1.386 . S
C3310 C3312 1.391 . S
C3311 C3310 1.386 . S
C3311 C3315 1.393 1_655 S
C3312 H3301 0.950 . S
C3312 C3310 1.391 . S
C3312 C3313 1.400 . S
C3313 C3307 1.491 . S
C3313 C3312 1.400 . S
C3313 C3314 1.398 . S
C3314 H3302 0.950 . S
C3314 C3313 1.398 . S
C3314 C3315 1.391 1_655 S
C3315 H3303 0.950 . S
C3315 C3311 1.393 1_455 S
C3315 C3314 1.391 1_455 S
H3316 C3324 0.950 . S
H3317 C3329 0.950 . S
H3318 C3326 0.950 . S
H3319 C3328 0.950 . S
H3320 C3330 0.950 . S
H3321 C3332 0.950 . S
H3322 C3334 0.950 . S
H3323 C3335 0.950 . S
C3324 H3316 0.950 . S
C3324 C3325 1.386 . S
C3324 C3326 1.391 . S
C3325 C3324 1.386 . S
C3325 C3329 1.393 . S
C3326 H3318 0.950 . S
C3326 C3324 1.391 . S
C3326 C3327 1.400 . S
C3327 C3326 1.400 . S
C3327 C3328 1.398 . S
C3327 C3333 1.491 . S
C3328 H3319 0.950 . S
C3328 C3327 1.398 . S
C3328 C3329 1.391 . S
C3329 H3317 0.950 . S
C3329 C3325 1.393 . S
C3329 C3328 1.391 . S
C3330 H3320 0.950 . S
C3330 C3331 1.386 . S
C3330 C3332 1.391 . S
C3331 C3330 1.386 . S
C3331 C3335 1.393 . S
C3332 H3321 0.950 . S
C3332 C3330 1.391 . S
C3332 C3333 1.400 . S
C3333 C3327 1.491 . S
C3333 C3332 1.400 . S
C3333 C3334 1.398 . S
C3334 H3322 0.950 . S
C3334 C3333 1.398 . S
C3334 C3335 1.391 . S
C3335 H3323 0.950 . S
C3335 C3331 1.393 . S
C3335 C3334 1.391 . S
H3336 C3344 0.950 . S
H3337 C3349 0.950 . S
H3338 C3346 0.950 . S
H3339 C3348 0.950 . S
H3340 C3350 0.950 . S
H3341 C3352 0.950 . S
H3342 C3354 0.950 . S
H3343 C3355 0.950 . S
C3344 H3336 0.950 . S
C3344 C3345 1.386 . S
C3344 C3346 1.391 . S
C3345 C3344 1.386 . S
C3345 C3349 1.393 . S
C3346 H3338 0.950 . S
C3346 C3344 1.391 . S
C3346 C3347 1.400 . S
C3347 C3346 1.400 . S
C3347 C3348 1.398 . S
C3347 C3353 1.491 . S
C3348 H3339 0.950 . S
C3348 C3347 1.398 . S
C3348 C3349 1.391 . S
C3349 H3337 0.950 . S
C3349 C3345 1.393 . S
C3349 C3348 1.391 . S
C3350 H3340 0.950 . S
C3350 C3351 1.386 . S
C3350 C3352 1.391 . S
C3351 C3350 1.386 . S
C3351 C3355 1.393 . S
C3352 H3341 0.950 . S
C3352 C3350 1.391 . S
C3352 C3353 1.400 . S
C3353 C3347 1.491 . S
C3353 C3352 1.400 . S
C3353 C3354 1.398 . S
C3354 H3342 0.950 . S
C3354 C3353 1.398 . S
C3354 C3355 1.391 . S
C3355 H3343 0.950 . S
C3355 C3351 1.393 . S
C3355 C3354 1.391 . S
H3356 C3364 0.950 . S
H3357 C3369 0.950 . S
H3358 C3366 0.950 . S
H3359 C3368 0.950 . S
H3360 C3370 0.950 . S
H3361 C3372 0.950 . S
H3362 C3374 0.950 . S
H3363 C3375 0.950 . S
C3364 H3356 0.950 . S
C3364 C3365 1.386 . S
C3364 C3366 1.391 . S
C3365 C3364 1.386 . S
C3365 C3369 1.393 . S
C3366 H3358 0.950 . S
C3366 C3364 1.391 . S
C3366 C3367 1.400 . S
C3367 C3366 1.400 . S
C3367 C3368 1.398 . S
C3367 C3373 1.491 . S
C3368 H3359 0.950 . S
C3368 C3367 1.398 . S
C3368 C3369 1.391 . S
C3369 H3357 0.950 . S
C3369 C3365 1.393 . S
C3369 C3368 1.391 . S
C3370 H3360 0.950 . S
C3370 C3371 1.386 . S
C3370 C3372 1.391 . S
C3371 C3370 1.386 . S
C3371 C3375 1.393 . S
C3372 H3361 0.950 . S
C3372 C3370 1.391 . S
C3372 C3373 1.400 . S
C3373 C3367 1.491 . S
C3373 C3372 1.400 . S
C3373 C3374 1.398 . S
C3374 H3362 0.950 . S
C3374 C3373 1.398 . S
C3374 C3375 1.391 . S
C3375 H3363 0.950 . S
C3375 C3371 1.393 . S
C3375 C3374 1.391 . S
H3376 C3384 0.950 . S
H3377 C3389 0.950 . S
H3378 C3386 0.950 . S
H3379 C3388 0.950 . S
H3380 C3390 0.950 . S
H3381 C3392 0.950 . S
H3382 C3394 0.950 . S
H3383 C3395 0.950 . S
C3384 H3376 0.950 . S
C3384 C3385 1.386 . S
C3384 C3386 1.391 . S
C3385 C3384 1.386 . S
C3385 C3389 1.393 . S
C3386 H3378 0.950 . S
C3386 C3384 1.391 . S
C3386 C3387 1.400 . S
C3387 C3386 1.400 . S
C3387 C3388 1.398 . S
C3387 C3393 1.491 . S
C3388 H3379 0.950 . S
C3388 C3387 1.398 . S
C3388 C3389 1.391 . S
C3389 H3377 0.950 . S
C3389 C3385 1.393 . S
C3389 C3388 1.391 . S
C3390 H3380 0.950 . S
C3390 C3391 1.386 . S
C3390 C3392 1.391 . S
C3391 C3390 1.386 . S
C3391 C3395 1.393 . S
C3392 H3381 0.950 . S
C3392 C3390 1.391 . S
C3392 C3393 1.400 . S
C3393 C3387 1.491 . S
C3393 C3392 1.400 . S
C3393 C3394 1.398 . S
C3394 H3382 0.950 . S
C3394 C3393 1.398 . S
C3394 C3395 1.391 . S
C3395 H3383 0.950 . S
C3395 C3391 1.393 . S
C3395 C3394 1.391 . S
H3396 C3404 0.950 . S
H3397 C3409 0.950 . S
H3398 C3406 0.950 . S
H3399 C3408 0.950 . S
H3400 C3410 0.950 . S
H3401 C3412 0.950 . S
H3402 C3414 0.950 . S
H3403 C3415 0.950 . S
C3404 H3396 0.950 . S
C3404 C3405 1.386 . S
C3404 C3406 1.391 . S
C3405 C3404 1.386 . S
C3405 C3409 1.393 . S
C3406 H3398 0.950 . S
C3406 C3404 1.391 . S
C3406 C3407 1.400 . S
C3407 C3406 1.400 . S
C3407 C3408 1.398 . S
C3407 C3413 1.491 . S
C3408 H3399 0.950 . S
C3408 C3407 1.398 . S
C3408 C3409 1.391 . S
C3409 H3397 0.950 . S
C3409 C3405 1.393 . S
C3409 C3408 1.391 . S
C3410 H3400 0.950 . S
C3410 C3411 1.386 . S
C3410 C3412 1.391 . S
C3411 C3410 1.386 . S
C3411 C3415 1.393 . S
C3412 H3401 0.950 . S
C3412 C3410 1.391 . S
C3412 C3413 1.400 . S
C3413 C3407 1.491 . S
C3413 C3412 1.400 . S
C3413 C3414 1.398 . S
C3414 H3402 0.950 . S
C3414 C3413 1.398 . S
C3414 C3415 1.391 . S
C3415 H3403 0.950 . S
C3415 C3411 1.393 . S
C3415 C3414 1.391 . S
H3416 C3424 0.950 . S
H3417 C3429 0.950 . S
H3418 C3426 0.950 . S
H3419 C3428 0.950 . S
H3420 C3430 0.950 . S
H3421 C3432 0.950 . S
H3422 C3434 0.950 . S
H3423 C3435 0.950 . S
C3424 H3416 0.950 . S
C3424 C3425 1.386 . S
C3424 C3426 1.391 . S
C3425 C3424 1.386 . S
C3425 C3429 1.393 . S
C3426 H3418 0.950 . S
C3426 C3424 1.391 . S
C3426 C3427 1.400 . S
C3427 C3426 1.400 . S
C3427 C3428 1.398 . S
C3427 C3433 1.491 . S
C3428 H3419 0.950 . S
C3428 C3427 1.398 . S
C3428 C3429 1.391 . S
C3429 H3417 0.950 . S
C3429 C3425 1.393 . S
C3429 C3428 1.391 . S
C3430 H3420 0.950 . S
C3430 C3431 1.386 . S
C3430 C3432 1.391 . S
C3431 C3430 1.386 . S
C3431 C3435 1.393 . S
C3432 H3421 0.950 . S
C3432 C3430 1.391 . S
C3432 C3433 1.400 . S
C3433 C3427 1.491 . S
C3433 C3432 1.400 . S
C3433 C3434 1.398 . S
C3434 H3422 0.950 . S
C3434 C3433 1.398 . S
C3434 C3435 1.391 . S
C3435 H3423 0.950 . S
C3435 C3431 1.393 . S
C3435 C3434 1.391 . S
H3436 C3444 0.950 . S
H3437 C3449 0.950 . S
H3438 C3446 0.950 . S
H3439 C3448 0.950 . S
H3440 C3450 0.950 . S
H3441 C3452 0.950 . S
H3442 C3454 0.950 . S
H3443 C3455 0.926 1_545 S
C3444 H3436 0.950 . S
C3444 C3445 1.386 . S
C3444 C3446 1.391 . S
C3445 C3444 1.386 . S
C3445 C3449 1.393 . S
C3446 H3438 0.950 . S
C3446 C3444 1.391 . S
C3446 C3447 1.400 . S
C3447 C3446 1.400 . S
C3447 C3448 1.398 . S
C3447 C3453 1.491 . S
C3448 H3439 0.950 . S
C3448 C3447 1.398 . S
C3448 C3449 1.391 . S
C3449 H3437 0.950 . S
C3449 C3445 1.393 . S
C3449 C3448 1.391 . S
C3450 H3440 0.950 . S
C3450 C3451 1.386 . S
C3450 C3452 1.391 . S
C3451 C3450 1.386 . S
C3451 C3455 1.406 . S
C3452 H3441 0.950 . S
C3452 C3450 1.391 . S
C3452 C3453 1.400 . S
C3453 C3447 1.491 . S
C3453 C3452 1.400 . S
C3453 C3454 1.398 . S
C3454 H3442 0.950 . S
C3454 C3453 1.398 . S
C3454 C3455 1.402 . S
C3455 H3443 0.926 1_565 S
C3455 C3451 1.406 . S
C3455 C3454 1.402 . S
H3456 C3464 0.950 . S
H3457 C3469 0.950 . S
H3458 C3466 0.950 . S
H3459 C3468 0.950 . S
H3460 C3470 0.950 . S
H3461 C3472 0.950 . S
H3462 C3474 0.950 . S
H3463 C3475 0.950 . S
C3464 H3456 0.950 . S
C3464 C3465 1.386 . S
C3464 C3466 1.391 . S
C3465 C3464 1.386 . S
C3465 C3469 1.393 . S
C3466 H3458 0.950 . S
C3466 C3464 1.391 . S
C3466 C3467 1.400 . S
C3467 C3466 1.400 . S
C3467 C3468 1.398 . S
C3467 C3473 1.491 . S
C3468 H3459 0.950 . S
C3468 C3467 1.398 . S
C3468 C3469 1.391 . S
C3469 H3457 0.950 . S
C3469 C3465 1.393 . S
C3469 C3468 1.391 . S
C3470 H3460 0.950 . S
C3470 C3471 1.386 . S
C3470 C3472 1.391 . S
C3471 C3470 1.386 . S
C3471 C3475 1.393 . S
C3472 H3461 0.950 . S
C3472 C3470 1.391 . S
C3472 C3473 1.400 . S
C3473 C3467 1.491 . S
C3473 C3472 1.400 . S
C3473 C3474 1.398 . S
C3474 H3462 0.950 . S
C3474 C3473 1.398 . S
C3474 C3475 1.391 . S
C3475 H3463 0.950 . S
C3475 C3471 1.393 . S
C3475 C3474 1.391 . S
H3476 C3484 0.950 . S
H3477 C3489 0.950 . S
H3478 C3486 0.950 . S
H3479 C3488 0.950 . S
H3480 C3490 0.950 . S
H3481 C3492 0.950 . S
H3482 C3494 0.950 . S
H3483 C3495 0.950 . S
C3484 H3476 0.950 . S
C3484 C3485 1.386 . S
C3484 C3486 1.391 . S
C3485 C3484 1.386 . S
C3485 C3489 1.393 . S
C3486 H3478 0.950 . S
C3486 C3484 1.391 . S
C3486 C3487 1.400 . S
C3487 C3486 1.400 . S
C3487 C3488 1.398 . S
C3487 C3493 1.491 . S
C3488 H3479 0.950 . S
C3488 C3487 1.398 . S
C3488 C3489 1.391 . S
C3489 H3477 0.950 . S
C3489 C3485 1.393 . S
C3489 C3488 1.391 . S
C3490 H3480 0.950 . S
C3490 C3491 1.386 . S
C3490 C3492 1.391 . S
C3491 C3490 1.386 . S
C3491 C3495 1.393 . S
C3492 H3481 0.950 . S
C3492 C3490 1.391 . S
C3492 C3493 1.400 . S
C3493 C3487 1.491 . S
C3493 C3492 1.400 . S
C3493 C3494 1.398 . S
C3494 H3482 0.950 . S
C3494 C3493 1.398 . S
C3494 C3495 1.391 . S
C3495 H3483 0.950 . S
C3495 C3491 1.393 . S
C3495 C3494 1.391 . S
H3496 C3504 0.950 . S
H3497 C3509 0.950 . S
H3498 C3506 0.950 . S
H3499 C3508 0.950 . S
H3500 C3510 0.950 . S
H3501 C3512 0.950 . S
H3502 C3514 0.950 . S
H3503 C3515 0.950 . S
C3504 H3496 0.950 . S
C3504 C3505 1.386 . S
C3504 C3506 1.391 . S
C3505 C3504 1.386 . S
C3505 C3509 1.393 . S
C3506 H3498 0.950 . S
C3506 C3504 1.391 . S
C3506 C3507 1.400 . S
C3507 C3506 1.400 . S
C3507 C3508 1.398 . S
C3507 C3513 1.491 . S
C3508 H3499 0.950 . S
C3508 C3507 1.398 . S
C3508 C3509 1.391 . S
C3509 H3497 0.950 . S
C3509 C3505 1.393 . S
C3509 C3508 1.391 . S
C3510 H3500 0.950 . S
C3510 C3511 1.386 . S
C3510 C3512 1.391 . S
C3511 C3510 1.386 . S
C3511 C3515 1.393 . S
C3512 H3501 0.950 . S
C3512 C3510 1.391 . S
C3512 C3513 1.400 . S
C3513 C3507 1.491 . S
C3513 C3512 1.400 . S
C3513 C3514 1.398 . S
C3514 H3502 0.950 . S
C3514 C3513 1.398 . S
C3514 C3515 1.391 . S
C3515 H3503 0.950 . S
C3515 C3511 1.393 . S
C3515 C3514 1.391 . S
H3516 C3524 0.950 . S
H3517 C3529 0.950 . S
H3518 C3526 0.950 . S
H3519 C3528 0.950 . S
H3520 C3530 0.950 1_556 S
H3521 C3532 0.961 . S
H3522 C3534 0.950 . S
H3523 C3535 0.950 . S
C3524 H3516 0.950 . S
C3524 C3525 1.386 . S
C3524 C3526 1.391 . S
C3525 C3524 1.386 . S
C3525 C3529 1.393 . S
C3526 H3518 0.950 . S
C3526 C3524 1.391 . S
C3526 C3527 1.400 . S
C3527 C3526 1.400 . S
C3527 C3528 1.398 . S
C3527 C3533 1.491 . S
C3528 H3519 0.950 . S
C3528 C3527 1.398 . S
C3528 C3529 1.391 . S
C3529 H3517 0.950 . S
C3529 C3525 1.393 . S
C3529 C3528 1.391 . S
C3530 H3520 0.950 1_554 S
C3530 C3531 1.386 . S
C3530 C3532 1.391 . S
C3531 C3530 1.386 . S
C3531 C3535 1.393 . S
C3532 H3521 0.961 . S
C3532 C3530 1.391 . S
C3532 C3533 1.400 . S
C3533 C3527 1.491 . S
C3533 C3532 1.400 . S
C3533 C3534 1.398 . S
C3534 H3522 0.950 . S
C3534 C3533 1.398 . S
C3534 C3535 1.391 . S
C3535 H3523 0.950 . S
C3535 C3531 1.393 . S
C3535 C3534 1.391 . S
H3536 C3544 0.950 . S
H3537 C3549 0.950 . S
H3538 C3546 0.950 . S
H3539 C3548 0.950 . S
H3540 C3550 0.950 . S
H3541 C3552 0.950 . S
H3542 C3554 0.950 . S
H3543 C3555 0.950 . S
C3544 H3536 0.950 . S
C3544 C3545 1.386 . S
C3544 C3546 1.391 . S
C3545 C3544 1.386 . S
C3545 C3549 1.393 . S
C3546 H3538 0.950 . S
C3546 C3544 1.391 . S
C3546 C3547 1.400 . S
C3547 C3546 1.400 . S
C3547 C3548 1.398 . S
C3547 C3553 1.491 . S
C3548 H3539 0.950 . S
C3548 C3547 1.398 . S
C3548 C3549 1.391 . S
C3549 H3537 0.950 . S
C3549 C3545 1.393 . S
C3549 C3548 1.391 . S
C3550 H3540 0.950 . S
C3550 C3551 1.386 . S
C3550 C3552 1.391 . S
C3551 C3550 1.386 . S
C3551 C3555 1.393 . S
C3552 H3541 0.950 . S
C3552 C3550 1.391 . S
C3552 C3553 1.400 . S
C3553 C3547 1.491 . S
C3553 C3552 1.400 . S
C3553 C3554 1.398 . S
C3554 H3542 0.950 . S
C3554 C3553 1.398 . S
C3554 C3555 1.391 . S
C3555 H3543 0.950 . S
C3555 C3551 1.393 . S
C3555 C3554 1.391 . S
H3556 C3564 0.950 . S
H3557 C3569 0.950 . S
H3558 C3566 0.950 . S
H3559 C3568 0.950 . S
H3560 C3570 0.950 . S
H3561 C3572 0.950 . S
H3562 C3574 0.950 . S
H3563 C3575 0.950 . S
C3564 H3556 0.950 . S
C3564 C3565 1.386 . S
C3564 C3566 1.391 . S
C3565 C3564 1.386 . S
C3565 C3569 1.393 . S
C3566 H3558 0.950 . S
C3566 C3564 1.391 . S
C3566 C3567 1.400 . S
C3567 C3566 1.400 . S
C3567 C3568 1.398 . S
C3567 C3573 1.491 . S
C3568 H3559 0.950 . S
C3568 C3567 1.398 . S
C3568 C3569 1.391 . S
C3569 H3557 0.950 . S
C3569 C3565 1.393 . S
C3569 C3568 1.391 . S
C3570 H3560 0.950 . S
C3570 C3571 1.386 . S
C3570 C3572 1.391 . S
C3571 C3570 1.386 . S
C3571 C3575 1.393 . S
C3572 H3561 0.950 . S
C3572 C3570 1.391 . S
C3572 C3573 1.400 . S
C3573 C3567 1.491 . S
C3573 C3572 1.400 . S
C3573 C3574 1.398 . S
C3574 H3562 0.950 . S
C3574 C3573 1.398 . S
C3574 C3575 1.391 . S
C3575 H3563 0.950 . S
C3575 C3571 1.393 . S
C3575 C3574 1.391 . S
C1665 C101 2.184 . S
C1671 C368 2.196 . S
C1685 C57 1.867 . S
C1691 C470 1.880 . S
C1705 C73 1.871 . S
C1711 C536 1.983 . S
C1731 C622 1.344 . S
C1725 C78 1.448 . S
C1745 C21 1.549 . S
C1751 C706 1.438 . S
C1771 C788 1.927 . S
C1765 C31 1.806 . S
C1791 C890 1.915 . S
C1785 C49 1.902 . S
C1805 C0 1.980 . S
C1811 C956 2.104 . S
C1831 C386 1.672 . S
C1825 C218 1.707 . S
C1845 C229 0.933 . S
C1851 C454 0.901 . S
C1871 C554 1.104 . S
C1865 C257 1.098 . S
C1891 C620 1.635 . S
C1885 C164 1.560 1_556 S
C1905 C216 1.563 . S
C1911 C704 1.625 . S
C1931 C806 1.113 . S
C1925 C231 1.131 . S
C1951 C874 0.893 . S
C1945 C255 0.931 . S
C1971 C974 1.640 . S
C1965 C166 1.682 . S
C1991 C370 0.976 1_565 S
C1985 C143 0.917 1_556 S
C2005 C265 1.645 . S
C2011 C1058 1.679 . S
C2031 C1126 1.275 . S
C2025 C299 1.272 . S
C2051 C1208 0.869 . S
C2045 C291 0.872 . S
C2065 C104 0.863 . S
C2071 C958 0.912 . S
C2085 C117 1.312 . S
C2091 C538 1.291 . S
C2105 C304 1.603 . S
C2111 C1310 1.614 . S
C2131 C1376 0.758 . S
C2125 C278 0.777 . S
C2151 C379 2.131 . S
C2145 C60 2.110 . S
C2171 C1383 1.782 . S
C2165 C96 1.797 . S
C2185 C88 1.883 . S
C2191 C547 1.881 . S
C2205 C65 1.389 . S
C2211 C1305 1.323 . S
C2231 C717 1.361 . S
C2225 C10 1.481 . S
C2245 C44 1.744 . S
C2251 C1135 1.836 . S
C2271 C879 1.824 1_556 S
C2265 C34 1.768 . S
C2291 C1471 2.030 . S
C2285 C13 2.005 . S
C2311 C375 1.584 . S
C2305 C138 1.608 . S
C2331 C1389 0.814 . S
C2325 C296 0.849 . S
C2345 C112 1.015 . S
C2351 C543 1.040 . S
C2365 C270 1.556 . S
C2371 C1303 1.554 . S
C2385 C140 1.533 . S
C2391 C715 1.531 . S
C2411 C1131 1.047 . S
C2405 C294 1.034 . S
C2425 C114 0.871 . S
C2431 C885 0.855 . S
C2445 C268 1.597 . S
C2451 C1467 1.557 . S
C2465 C169 0.967 . S
C2471 C381 0.951 . S
C2485 C161 1.600 . S
C2491 C1047 1.602 . S
C2505 C234 1.301 . S
C2511 C801 1.253 . S
C2525 C226 0.749 . S
C2531 C1219 0.767 . S
C2551 C1473 0.856 . S
C2545 C247 0.894 . S
C2565 C195 1.322 . S
C2571 C549 1.253 . S
C2591 C627 1.538 . S
C2585 C239 1.537 . S
C2611 C463 0.671 . S
C2605 C187 0.701 . S
C2625 C75 2.177 . S
C2631 C1544 2.192 . S
C2651 C1394 1.885 . S
C2645 C83 1.866 . S
C2665 C99 1.872 . S
C2671 C1628 1.983 . S
C2685 C52 1.435 1_655 S
C2691 C1294 1.378 . S
C2705 C47 1.549 . S
C2711 C1042 1.435 . S
C2731 C1124 1.924 . S
C2725 C5 1.820 . S
C2751 C1226 1.905 . S
C2745 C23 1.913 . S
C2771 C1460 2.102 . S
C2765 C26 1.959 . S
C2791 C1562 1.670 . S
C2785 C244 1.703 . S
C2805 C177 0.921 . S
C2811 C1378 0.921 . S
C2831 C1646 1.100 . S
C2825 C192 1.100 . S
C2851 C1292 1.637 . S
C2845 C203 1.568 . S
C2871 C1040 1.627 . S
C2865 C242 1.566 . S
C2885 C179 1.125 . S
C2891 C1142 1.130 . S
C2911 C1210 0.862 . S
C2905 C190 0.936 . S
C2925 C205 1.682 . S
C2931 C1478 1.643 . S
C2951 C1546 0.945 . S
C2945 C286 0.964 . S
C2965 C122 1.649 . S
C2971 C722 1.683 . S
C2991 C790 1.249 . S
C2985 C130 1.292 1_565 S
C3011 C872 0.864 . S
C3005 C148 0.830 . S
C3031 C1462 0.872 . S
C3025 C273 0.910 . S
C3045 C260 1.321 . S
C3051 C1630 1.274 . S
C3071 C638 1.614 . S
C3065 C135 1.584 . S
C3091 C452 0.748 . S
C3085 C109 0.763 . S
C3105 C86 2.110 . S
C3111 C1555 2.131 . S
C3131 C459 1.791 . S
C3125 C70 1.793 . S
C3145 C62 1.879 . S
C3151 C1639 1.882 . S
C3165 C91 1.389 . S
C3171 C633 1.313 . S
C3185 C36 1.487 . S
C3191 C1053 1.395 . S
C3211 C799 1.838 . S
C3205 C18 1.751 . S
C3225 C8 1.757 . S
C3231 C1215 1.823 . S
C3245 C39 1.997 . S
C3251 C967 2.027 . S
C3271 C1551 1.570 . S
C3265 C307 1.604 . S
C3285 C153 0.854 . S
C3291 C465 0.858 . S
C3311 C1635 1.017 1_655 S
C3305 C281 1.040 . S
C3325 C127 1.555 . S
C3331 C631 1.554 . S
C3345 C309 1.535 . S
C3351 C1051 1.532 . S
C3371 C795 1.055 . S
C3365 C151 1.031 . S
C3385 C283 0.861 . S
C3391 C1221 0.866 . S
C3411 C963 1.566 . S
C3405 C125 1.595 . S
C3431 C1557 0.921 . S
C3425 C221 0.961 . S
C3451 C711 1.600 1_565 S
C3445 C200 1.611 . S
C3465 C208 1.303 . S
C3471 C1137 1.239 . S
C3491 C883 0.777 . S
C3485 C174 0.785 . S
C3505 C182 0.903 . S
C3511 C969 0.893 . S
C3525 C156 1.328 . S
C3531 C1641 1.276 . S
C3551 C1299 1.543 . S
C3545 C213 1.543 . S
C3571 C1387 0.663 . S
C3565 C252 0.685 . S
