# Generated by pormake.
# Topology the, (3,8)-cn, num edge types: 1
# Building blocks:
#     Node 0, Type 0, BuildingBlock: WUSLED_clean_sbu_0, # of connection points: 3
#     Node 1, Type 0, BuildingBlock: WUSLED_clean_sbu_0, # of connection points: 3
#     Node 2, Type 0, BuildingBlock: WUSLED_clean_sbu_0, # of connection points: 3
#     Node 3, Type 0, BuildingBlock: WUSLED_clean_sbu_0, # of connection points: 3
#     Node 4, Type 0, BuildingBlock: WUSLED_clean_sbu_0, # of connection points: 3
#     Node 5, Type 0, BuildingBlock: WUSLED_clean_sbu_0, # of connection points: 3
#     Node 6, Type 0, BuildingBlock: WUSLED_clean_sbu_0, # of connection points: 3
#     Node 7, Type 0, BuildingBlock: WUSLED_clean_sbu_0, # of connection points: 3
#     Node 8, Type 1, BuildingBlock: GIZVER_clean_sbu_0, # of connection points: 8
#     Node 9, Type 1, BuildingBlock: GIZVER_clean_sbu_0, # of connection points: 8
#     Node 10, Type 1, BuildingBlock: GIZVER_clean_sbu_0, # of connection points: 8
#     Edge 11, Type (0, 1), BuildingBlock: ZUJKAS_clean_linker_0, # of connection points: 2
#     Edge 12, Type (0, 1), BuildingBlock: ZUJKAS_clean_linker_0, # of connection points: 2
#     Edge 13, Type (0, 1), BuildingBlock: ZUJKAS_clean_linker_0, # of connection points: 2
#     Edge 14, Type (0, 1), BuildingBlock: ZUJKAS_clean_linker_0, # of connection points: 2
#     Edge 15, Type (0, 1), BuildingBlock: ZUJKAS_clean_linker_0, # of connection points: 2
#     Edge 16, Type (0, 1), BuildingBlock: ZUJKAS_clean_linker_0, # of connection points: 2
#     Edge 17, Type (0, 1), BuildingBlock: ZUJKAS_clean_linker_0, # of connection points: 2
#     Edge 18, Type (0, 1), BuildingBlock: ZUJKAS_clean_linker_0, # of connection points: 2
#     Edge 19, Type (0, 1), BuildingBlock: ZUJKAS_clean_linker_0, # of connection points: 2
#     Edge 20, Type (0, 1), BuildingBlock: ZUJKAS_clean_linker_0, # of connection points: 2
#     Edge 21, Type (0, 1), BuildingBlock: ZUJKAS_clean_linker_0, # of connection points: 2
#     Edge 22, Type (0, 1), BuildingBlock: ZUJKAS_clean_linker_0, # of connection points: 2
#     Edge 23, Type (0, 1), BuildingBlock: ZUJKAS_clean_linker_0, # of connection points: 2
#     Edge 24, Type (0, 1), BuildingBlock: ZUJKAS_clean_linker_0, # of connection points: 2
#     Edge 25, Type (0, 1), BuildingBlock: ZUJKAS_clean_linker_0, # of connection points: 2
#     Edge 26, Type (0, 1), BuildingBlock: ZUJKAS_clean_linker_0, # of connection points: 2
#     Edge 27, Type (0, 1), BuildingBlock: ZUJKAS_clean_linker_0, # of connection points: 2
#     Edge 28, Type (0, 1), BuildingBlock: ZUJKAS_clean_linker_0, # of connection points: 2
#     Edge 29, Type (0, 1), BuildingBlock: ZUJKAS_clean_linker_0, # of connection points: 2
#     Edge 30, Type (0, 1), BuildingBlock: ZUJKAS_clean_linker_0, # of connection points: 2
#     Edge 31, Type (0, 1), BuildingBlock: ZUJKAS_clean_linker_0, # of connection points: 2
#     Edge 32, Type (0, 1), BuildingBlock: ZUJKAS_clean_linker_0, # of connection points: 2
#     Edge 33, Type (0, 1), BuildingBlock: ZUJKAS_clean_linker_0, # of connection points: 2
#     Edge 34, Type (0, 1), BuildingBlock: ZUJKAS_clean_linker_0, # of connection points: 2
# Relax obj value: 0.042
# Max RMSD: 0.140
# Mean RMSD: 0.059
data_MOF--net-the--node1-WUSLED_clean_sbu_0--node2-GIZVER_clean_sbu_0--edge1-ZUJKAS_clean_linker_0
_symmetry_space_group_name_H-M    P1
_symmetry_Int_Tables_number       1
_symmetry_cell_setting            triclinic
loop_
_symmetry_equiv_pos_as_xyz
'x, y, z'
_cell_length_a     63.820573
_cell_length_b     60.212252
_cell_length_c     56.2532
_cell_angle_alpha  86.881406
_cell_angle_beta   93.472836
_cell_angle_gamma 99.735094
loop_
_atom_site_label
_atom_site_type_symbol
_atom_site_fract_x
_atom_site_fract_y
_atom_site_fract_z
_atom_type_partial_charge
C0 C 0.33791 0.29363 0.42981 0.0
C1 C 0.35071 0.28609 0.41359 0.0
C2 C 0.35891 0.25683 0.44255 0.0
C3 C 0.36108 0.2678 0.41988 0.0
C4 C 0.34609 0.26454 0.45875 0.0
C5 C 0.33566 0.28279 0.45239 0.0
U6 U 0.33058 0.34426 0.38894 0.0
O7 O 0.30143 0.3565 0.37511 0.0
O8 O 0.32525 0.37804 0.39726 0.0
C9 C 0.30608 0.37519 0.38673 0.0
C10 C 0.32714 0.31297 0.42343 0.0
C11 C 0.289 0.38015 0.4009 0.0
C12 C 0.27015 0.37632 0.43756 0.0
C13 C 0.28688 0.37183 0.42459 0.0
C14 C 0.25749 0.39728 0.40317 0.0
C15 C 0.25519 0.38897 0.4269 0.0
C16 C 0.27425 0.3929 0.39031 0.0
C17 C 0.36437 0.35901 0.33503 0.0
C18 C 0.37002 0.39575 0.31407 0.0
C19 C 0.3768 0.36281 0.29483 0.0
C20 C 0.37078 0.34938 0.31514 0.0
C21 C 0.37662 0.38616 0.29415 0.0
C22 C 0.36381 0.38226 0.3343 0.0
C23 C 0.35824 0.34456 0.35628 0.0
O24 O 0.33917 0.33283 0.42549 0.0
O25 O 0.31512 0.31139 0.40357 0.0
O26 O 0.33901 0.33259 0.35488 0.0
O27 O 0.36311 0.3539 0.37692 0.0
H28 H 0.35274 0.29442 0.39611 0.0
H29 H 0.37107 0.26247 0.40713 0.0
H30 H 0.34394 0.25632 0.47624 0.0
H31 H 0.32585 0.28846 0.46512 0.0
H32 H 0.26869 0.36958 0.45574 0.0
H33 H 0.29806 0.36176 0.43298 0.0
H34 H 0.24642 0.40737 0.39458 0.0
H35 H 0.27565 0.39941 0.37203 0.0
H36 H 0.36953 0.41365 0.31394 0.0
H37 H 0.38201 0.35499 0.27985 0.0
H38 H 0.37125 0.33146 0.31536 0.0
H39 H 0.35865 0.39001 0.34937 0.0
C40 C 0.66702 0.35156 0.28106 0.0
C41 C 0.67968 0.36185 0.26261 0.0
C42 C 0.64854 0.37355 0.24134 0.0
C43 C 0.67053 0.37276 0.24294 0.0
C44 C 0.63613 0.36378 0.26024 0.0
C45 C 0.64526 0.35289 0.2798 0.0
U46 U 0.70904 0.3393 0.33088 0.0
O47 O 0.70344 0.32462 0.36707 0.0
O48 O 0.7187 0.30668 0.34191 0.0
C49 C 0.71045 0.30599 0.36283 0.0
C50 C 0.67555 0.33818 0.30107 0.0
C51 C 0.69652 0.28474 0.36955 0.0
C52 C 0.66191 0.26048 0.36887 0.0
C53 C 0.67489 0.28071 0.36203 0.0
C54 C 0.69211 0.248 0.39051 0.0
C55 C 0.67036 0.24387 0.38322 0.0
C56 C 0.70503 0.26825 0.38375 0.0
C57 C 0.76159 0.38014 0.34209 0.0
C58 C 0.78433 0.3821 0.37854 0.0
C59 C 0.79776 0.40093 0.34207 0.0
C60 C 0.77826 0.39329 0.33001 0.0
C61 C 0.80102 0.39567 0.36658 0.0
C62 C 0.76483 0.37437 0.36641 0.0
C63 C 0.74089 0.37322 0.32909 0.0
O64 O 0.6921 0.32879 0.29708 0.0
O65 O 0.67666 0.34664 0.32224 0.0
O66 O 0.72383 0.37338 0.34102 0.0
O67 O 0.73944 0.35545 0.31613 0.0
H68 H 0.69654 0.36109 0.26315 0.0
H69 H 0.68055 0.37999 0.22868 0.0
H70 H 0.61926 0.36445 0.25991 0.0
H71 H 0.63519 0.34512 0.29384 0.0
H72 H 0.6453 0.25775 0.36272 0.0
H73 H 0.66806 0.29321 0.35092 0.0
H74 H 0.69909 0.23574 0.4018 0.0
H75 H 0.72168 0.27107 0.38974 0.0
H76 H 0.78612 0.37788 0.39743 0.0
H77 H 0.8103 0.41095 0.33212 0.0
H78 H 0.77613 0.39783 0.31122 0.0
H79 H 0.75221 0.36417 0.3761 0.0
C80 C 0.671 0.70115 0.28903 0.0
C81 C 0.68106 0.68369 0.28212 0.0
C82 C 0.65513 0.67651 0.24847 0.0
C83 C 0.67321 0.67149 0.26199 0.0
C84 C 0.64533 0.69422 0.25543 0.0
C85 C 0.65319 0.70637 0.27549 0.0
U86 U 0.7099 0.71561 0.34319 0.0
O87 O 0.72259 0.74865 0.35776 0.0
O88 O 0.70289 0.72291 0.37962 0.0
C89 C 0.71261 0.74394 0.37766 0.0
C90 C 0.67853 0.71392 0.3104 0.0
C91 C 0.70083 0.76121 0.38542 0.0
C92 C 0.68159 0.79266 0.37702 0.0
C93 C 0.6918 0.7758 0.36901 0.0
C94 C 0.68888 0.78026 0.41789 0.0
C95 C 0.68007 0.79516 0.40158 0.0
C96 C 0.69917 0.76353 0.40988 0.0
C97 C 0.7577 0.68383 0.35477 0.0
C98 C 0.77875 0.67974 0.39186 0.0
C99 C 0.79125 0.66979 0.35471 0.0
C100 C 0.77322 0.67594 0.34248 0.0
C101 C 0.79416 0.67132 0.37961 0.0
C102 C 0.76068 0.68595 0.37955 0.0
C103 C 0.73833 0.68891 0.34134 0.0
O104 O 0.67702 0.70228 0.33086 0.0
O105 O 0.69662 0.72794 0.30887 0.0
O106 O 0.73996 0.70878 0.33009 0.0
O107 O 0.72026 0.68297 0.35189 0.0
H108 H 0.69484 0.67939 0.2924 0.0
H109 H 0.68104 0.65785 0.2573 0.0
H110 H 0.63162 0.69883 0.24528 0.0
H111 H 0.64526 0.71985 0.28049 0.0
H112 H 0.67475 0.80365 0.36397 0.0
H113 H 0.69274 0.77429 0.35002 0.0
H114 H 0.68822 0.78183 0.4369 0.0
H115 H 0.70608 0.75252 0.42285 0.0
H116 H 0.78036 0.681 0.41103 0.0
H117 H 0.80293 0.66383 0.34459 0.0
H118 H 0.77127 0.67428 0.32335 0.0
H119 H 0.74892 0.69206 0.38941 0.0
C120 C 0.27512 0.66168 0.34951 0.0
C121 C 0.27463 0.65596 0.37409 0.0
C122 C 0.23584 0.64711 0.37104 0.0
C123 C 0.25521 0.64871 0.3847 0.0
C124 C 0.23636 0.6533 0.34659 0.0
C125 C 0.25577 0.66039 0.33595 0.0
U126 U 0.3295 0.69907 0.33871 0.0
O127 O 0.36027 0.68919 0.33255 0.0
O128 O 0.34494 0.70894 0.30481 0.0
C129 C 0.3604 0.69736 0.31038 0.0
C130 C 0.29546 0.66766 0.3374 0.0
C131 C 0.3652 0.68242 0.29197 0.0
C132 C 0.37479 0.6471 0.28051 0.0
C133 C 0.36885 0.66033 0.29786 0.0
C134 C 0.37313 0.67752 0.2509 0.0
C135 C 0.37717 0.65559 0.25685 0.0
C136 C 0.36732 0.6908 0.26828 0.0
C137 C 0.34713 0.75171 0.37646 0.0
C138 C 0.37189 0.78637 0.36816 0.0
C139 C 0.36238 0.77568 0.40871 0.0
C140 C 0.34917 0.75629 0.40074 0.0
C141 C 0.37386 0.79104 0.39254 0.0
C142 C 0.35869 0.76684 0.36019 0.0
C143 C 0.33223 0.73153 0.36876 0.0
O144 O 0.29748 0.68595 0.3233 0.0
O145 O 0.31301 0.66549 0.35018 0.0
O146 O 0.3381 0.71196 0.37455 0.0
O147 O 0.32325 0.73253 0.34714 0.0
H148 H 0.28923 0.65676 0.3851 0.0
H149 H 0.25536 0.64432 0.40363 0.0
H150 H 0.22177 0.65202 0.33549 0.0
H151 H 0.25568 0.66449 0.31695 0.0
H152 H 0.37755 0.63019 0.28564 0.0
H153 H 0.3674 0.65328 0.31593 0.0
H154 H 0.37506 0.6847 0.23293 0.0
H155 H 0.36483 0.70782 0.26326 0.0
H156 H 0.38068 0.79772 0.35527 0.0
H157 H 0.36328 0.77886 0.42754 0.0
H158 H 0.3403 0.74494 0.41358 0.0
H159 H 0.35745 0.76366 0.34135 0.0
C160 C 0.28715 0.66152 0.70688 0.0
C161 C 0.27942 0.67541 0.68873 0.0
C162 C 0.24799 0.64671 0.68161 0.0
C163 C 0.26 0.66809 0.67623 0.0
C164 C 0.25588 0.63296 0.6999 0.0
C165 C 0.27524 0.6403 0.71237 0.0
U166 U 0.3392 0.70288 0.71858 0.0
O167 O 0.35514 0.71434 0.75267 0.0
O168 O 0.37138 0.69597 0.72881 0.0
C169 C 0.37197 0.70511 0.7496 0.0
C170 C 0.30752 0.66874 0.72031 0.0
C171 C 0.37989 0.69231 0.77037 0.0
C172 C 0.38109 0.65749 0.79416 0.0
C173 C 0.37254 0.6692 0.77465 0.0
C174 C 0.40412 0.69195 0.80539 0.0
C175 C 0.39705 0.66873 0.80976 0.0
C176 C 0.39563 0.70356 0.78593 0.0
C177 C 0.35228 0.75675 0.67891 0.0
C178 C 0.38675 0.78128 0.68003 0.0
C179 C 0.35687 0.79308 0.6571 0.0
C180 C 0.34394 0.77289 0.664 0.0
C181 C 0.37847 0.79753 0.66496 0.0
C182 C 0.37375 0.7611 0.687 0.0
C183 C 0.33835 0.73552 0.6857 0.0
O184 O 0.3248 0.6685 0.70881 0.0
O185 O 0.30859 0.68684 0.73268 0.0
O186 O 0.32948 0.73517 0.70623 0.0
O187 O 0.3457 0.71688 0.68232 0.0
H188 H 0.28845 0.69185 0.68419 0.0
H189 H 0.25455 0.67903 0.66211 0.0
H190 H 0.24697 0.61657 0.7048 0.0
H191 H 0.28091 0.62937 0.72638 0.0
H192 H 0.37511 0.63968 0.7971 0.0
H193 H 0.36034 0.6602 0.76286 0.0
H194 H 0.41661 0.70111 0.8167 0.0
H195 H 0.40157 0.72138 0.78287 0.0
H196 H 0.40324 0.78426 0.68663 0.0
H197 H 0.35002 0.80504 0.64525 0.0
H198 H 0.3274 0.76982 0.65756 0.0
H199 H 0.38046 0.74889 0.69866 0.0
C200 C 0.28958 0.33209 0.65903 0.0
C201 C 0.29288 0.35226 0.6449 0.0
C202 C 0.25464 0.35266 0.6409 0.0
C203 C 0.27566 0.36242 0.63601 0.0
C204 C 0.25135 0.33252 0.65511 0.0
C205 C 0.26858 0.32233 0.66396 0.0
U206 U 0.33724 0.32251 0.70201 0.0
O207 O 0.34768 0.29077 0.71494 0.0
O208 O 0.36882 0.31578 0.6938 0.0
C209 C 0.36572 0.29549 0.70418 0.0
C210 C 0.30767 0.32039 0.66715 0.0
C211 C 0.3714 0.27736 0.69052 0.0
C212 C 0.3642 0.2506 0.65892 0.0
C213 C 0.35817 0.26775 0.67161 0.0
C214 C 0.39664 0.25259 0.68395 0.0
C215 C 0.3836 0.2429 0.66486 0.0
C216 C 0.39059 0.26962 0.6966 0.0
C217 C 0.35189 0.35977 0.75644 0.0
C218 C 0.38608 0.37409 0.77641 0.0
C219 C 0.3537 0.37133 0.79745 0.0
C220 C 0.34182 0.36267 0.77728 0.0
C221 C 0.37596 0.37746 0.79717 0.0
C222 C 0.37419 0.36528 0.75629 0.0
C223 C 0.3387 0.35229 0.73483 0.0
O224 O 0.32694 0.33206 0.66541 0.0
O225 O 0.30555 0.30778 0.68699 0.0
O226 O 0.3271 0.33207 0.73633 0.0
O227 O 0.3476 0.35687 0.71427 0.0
H228 H 0.30877 0.36009 0.64034 0.0
H229 H 0.27884 0.37768 0.6248 0.0
H230 H 0.23544 0.32463 0.65949 0.0
H231 H 0.26542 0.30665 0.67451 0.0
H232 H 0.35386 0.24365 0.64422 0.0
H233 H 0.34328 0.27357 0.66663 0.0
H234 H 0.41148 0.24685 0.68932 0.0
H235 H 0.40097 0.27676 0.7112 0.0
H236 H 0.40322 0.37836 0.77569 0.0
H237 H 0.34536 0.3739 0.81302 0.0
H238 H 0.32464 0.35866 0.77781 0.0
H239 H 0.38245 0.36313 0.74052 0.0
C240 C 0.6788 0.28816 0.69024 0.0
C241 C 0.69201 0.27263 0.68547 0.0
C242 C 0.66208 0.24871 0.66555 0.0
C243 C 0.68371 0.25306 0.67335 0.0
C244 C 0.64901 0.26445 0.67015 0.0
C245 C 0.65727 0.28389 0.6824 0.0
U246 U 0.72051 0.34048 0.70455 0.0
O247 O 0.71599 0.37465 0.7126 0.0
O248 O 0.73212 0.35451 0.73923 0.0
C249 C 0.72444 0.37326 0.73442 0.0
C250 C 0.68684 0.30857 0.70375 0.0
C251 C 0.71261 0.38083 0.75334 0.0
C252 C 0.68001 0.38079 0.77367 0.0
C253 C 0.69091 0.37261 0.75599 0.0
C254 C 0.71244 0.4052 0.78638 0.0
C255 C 0.69063 0.39727 0.78907 0.0
C256 C 0.72328 0.39707 0.76872 0.0
C257 C 0.77121 0.3534 0.66889 0.0
C258 C 0.8037 0.3791 0.67972 0.0
C259 C 0.79825 0.36486 0.64 0.0
C260 C 0.77851 0.35262 0.64601 0.0
C261 C 0.81123 0.37814 0.65681 0.0
C262 C 0.78386 0.36687 0.68569 0.0
C263 C 0.75058 0.33976 0.67478 0.0
O264 O 0.70367 0.30783 0.71829 0.0
O265 O 0.6875 0.32797 0.69168 0.0
O266 O 0.7337 0.34919 0.66928 0.0
O267 O 0.74991 0.32897 0.69576 0.0
H268 H 0.70873 0.27555 0.69118 0.0
H269 H 0.69426 0.24143 0.66987 0.0
H270 H 0.63224 0.26152 0.66466 0.0
H271 H 0.64676 0.29556 0.68594 0.0
H272 H 0.66329 0.3741 0.77539 0.0
H273 H 0.6824 0.36001 0.74431 0.0
H274 H 0.72109 0.4181 0.79762 0.0
H275 H 0.74001 0.40368 0.76689 0.0
H276 H 0.81329 0.38897 0.6932 0.0
H277 H 0.80326 0.36404 0.62206 0.0
H278 H 0.76893 0.34244 0.63274 0.0
H279 H 0.77849 0.36777 0.70347 0.0
C280 C 0.71259 0.74699 0.61024 0.0
C281 C 0.70172 0.75718 0.62643 0.0
C282 C 0.69364 0.78476 0.59551 0.0
C283 C 0.69241 0.77597 0.61915 0.0
C284 C 0.70437 0.77435 0.57928 0.0
C285 C 0.71383 0.75563 0.58664 0.0
U286 U 0.71619 0.69689 0.65303 0.0
O287 O 0.72098 0.66244 0.6466 0.0
O288 O 0.744 0.68392 0.66967 0.0
C289 C 0.73954 0.66495 0.65851 0.0
C290 C 0.72232 0.72717 0.61778 0.0
C291 C 0.75723 0.65922 0.64595 0.0
C292 C 0.77952 0.66397 0.61194 0.0
C293 C 0.76194 0.66875 0.62317 0.0
C294 C 0.78777 0.64017 0.64621 0.0
C295 C 0.79274 0.6498 0.62348 0.0
C296 C 0.77015 0.64485 0.65734 0.0
C297 C 0.67982 0.68524 0.70517 0.0
C298 C 0.66443 0.64981 0.725 0.0
C299 C 0.67487 0.68324 0.7478 0.0
C300 C 0.68151 0.69563 0.72708 0.0
C301 C 0.66618 0.66018 0.74702 0.0
C302 C 0.67123 0.66217 0.70432 0.0
C303 C 0.68718 0.6987 0.68358 0.0
O304 O 0.73357 0.72872 0.63817 0.0
O305 O 0.7097 0.70765 0.61567 0.0
O306 O 0.68294 0.68884 0.66313 0.0
O307 O 0.70655 0.71033 0.68554 0.0
H308 H 0.70039 0.75056 0.64467 0.0
H309 H 0.68396 0.78342 0.63194 0.0
H310 H 0.70564 0.78084 0.56099 0.0
H311 H 0.7221 0.74788 0.57391 0.0
H312 H 0.78307 0.67176 0.59452 0.0
H313 H 0.75218 0.68008 0.61424 0.0
H314 H 0.79749 0.62893 0.65539 0.0
H315 H 0.76674 0.63742 0.67496 0.0
H316 H 0.65752 0.6322 0.72364 0.0
H317 H 0.67677 0.69172 0.76447 0.0
H318 H 0.6881 0.71337 0.72821 0.0
H319 H 0.6697 0.65363 0.6877 0.0
Co320 Co 0.06879 0.49642 0.53993 0.0
Co321 Co 0.04808 0.48662 0.49867 0.0
Co322 Co 0.02532 0.52111 0.52412 0.0
O323 O 0.0395 0.49378 0.5283 0.0
H324 H 0.03048 0.48097 0.53553 0.0
O325 O 1.01106 0.54837 0.51989 0.0
Co326 Co 0.98152 0.54529 0.50884 0.0
Co327 Co 1.00274 0.55537 0.54967 0.0
H328 H 0.0199 0.56116 0.51248 0.0
O329 O 0.05696 0.45904 0.49323 0.0
O330 O 0.0768 0.48993 0.5081 0.0
O331 O 0.04667 0.50884 0.47286 0.0
O332 O 0.04404 0.53563 0.49764 0.0
O333 O 1.00409 0.50457 0.50045 0.0
O334 O 0.95486 0.54492 0.49784 0.0
O335 O 0.98173 0.57439 0.498 0.0
O336 O 0.97731 0.51438 0.51786 0.0
O337 O 1.00667 0.50653 0.55057 0.0
O338 O 1.00379 0.53305 0.57552 0.0
O339 O 0.97398 0.55254 0.54064 0.0
O340 O 0.99472 0.58315 0.55518 0.0
C341 C 0.08797 0.47495 0.55573 0.0
C342 C 0.06639 0.54032 0.5451 0.0
C343 C 0.04943 0.52949 0.47775 0.0
C344 C 0.07541 0.46979 0.50041 0.0
C345 C 0.96178 0.56612 0.49279 0.0
C346 C 0.98421 0.50166 0.50399 0.0
C347 C 1.00097 0.51247 0.57037 0.0
C348 C 0.976 0.57275 0.54837 0.0
O349 O 0.09523 0.49623 0.55153 0.0
O350 O 0.06805 0.46709 0.54994 0.0
O351 O 0.0464 0.53773 0.54787 0.0
O352 O 0.07349 0.52746 0.53158 0.0
Co353 Co 0.54901 0.9762 0.51029 0.0
Co354 Co 0.55792 0.99318 0.5522 0.0
Co355 Co 0.52489 0.02013 0.52285 0.0
O356 O 0.55105 1.00581 0.52236 0.0
H357 H 0.56311 0.0162 0.51661 0.0
O358 O 0.49879 0.03448 0.52331 0.0
Co359 Co 0.50081 0.0645 0.53431 0.0
Co360 Co 0.49162 0.046 0.49291 0.0
H361 H 0.48681 0.02423 0.52947 0.0
O362 O 0.58517 0.98742 0.56047 0.0
O363 O 0.55835 0.96443 0.54203 0.0
O364 O 0.53666 0.98953 0.57547 0.0
O365 O 0.51164 0.99936 0.54964 0.0
O366 O 0.54086 0.04212 0.54607 0.0
O367 O 0.50057 0.09142 0.5453 0.0
O368 O 0.47364 0.06203 0.54378 0.0
O369 O 0.52956 0.07102 0.52681 0.0
O370 O 0.53804 0.04086 0.49609 0.0
O371 O 0.51284 0.04891 0.46951 0.0
O372 O 0.49205 0.07522 0.50206 0.0
O373 O 0.4644 0.05256 0.48481 0.0
C374 C 0.56853 0.95857 0.49368 0.0
C375 C 0.50701 0.97698 0.50403 0.0
C376 C 0.51725 0.98987 0.56939 0.0
C377 C 0.5776 0.96799 0.55175 0.0
C378 C 0.48104 0.08273 0.54966 0.0
C379 C 0.54282 0.06338 0.54145 0.0
C380 C 0.53232 0.04954 0.47596 0.0
C381 C 0.47269 0.07211 0.49278 0.0
O382 O 0.54904 0.94976 0.49808 0.0
O383 O 0.57606 0.97903 0.50027 0.0
O384 O 0.50893 0.99824 0.49957 0.0
O385 O 0.52042 0.96929 0.51839 0.0
Co386 Co 0.49992 0.52912 0.07095 0.0
Co387 Co 0.49036 0.48934 0.05286 0.0
Co388 Co 0.52561 0.51954 0.02203 0.0
O389 O 0.49891 0.51816 0.0394 0.0
H390 H 0.48746 0.52275 0.02927 0.0
O391 O 0.55235 0.52095 1.00466 0.0
Co392 Co 0.55138 0.50979 0.97321 0.0
Co393 Co 0.56069 0.54963 0.99086 0.0
H394 H 0.56381 0.51652 0.01482 0.0
O395 O 0.46283 0.4792 0.0627 0.0
O396 O 0.49039 0.49811 0.08404 0.0
O397 O 0.51049 0.46879 0.0534 0.0
O398 O 0.53727 0.49589 0.04382 0.0
O399 O 0.50977 0.49585 1.00062 0.0
O400 O 0.55267 0.49871 0.94488 0.0
O401 O 0.57843 0.50373 0.97415 0.0
O402 O 0.5228 0.51374 0.96817 0.0
O403 O 0.51388 0.54315 1.00027 0.0
O404 O 0.54046 0.57011 0.98982 0.0
O405 O 0.56096 0.54068 0.95979 0.0
O406 O 0.58823 0.55989 0.9814 0.0
C407 C 0.4794 0.54174 0.0914 0.0
C408 C 0.54239 0.53997 0.06608 0.0
C409 C 0.53028 0.47628 0.05295 0.0
C410 C 0.47103 0.48704 0.08285 0.0
C411 C 0.57184 0.49677 0.95293 0.0
C412 C 0.50874 0.49927 0.97799 0.0
C413 C 0.52071 0.56261 0.9907 0.0
C414 C 0.58019 0.5521 0.96116 0.0
O415 O 0.4986 0.5399 0.09943 0.0
O416 O 0.4729 0.5351 0.07005 0.0
O417 O 0.54139 0.54328 0.04343 0.0
O418 O 0.52855 0.52521 0.07585 0.0
H419 H 0.21366 0.38636 0.41113 0.0
H420 H 0.18481 0.39813 0.4314 0.0
H421 H 0.22694 0.41379 0.49321 0.0
H422 H 0.25614 0.40228 0.47289 0.0
H423 H 0.17911 0.38854 0.49904 0.0
H424 H 0.19192 0.46941 0.44503 0.0
H425 H 0.19117 0.44417 0.42905 0.0
H426 H 0.21245 0.45223 0.45083 0.0
C427 C 0.21679 0.3922 0.42908 0.0
C428 C 0.23724 0.39371 0.4403 0.0
C429 C 0.20027 0.39873 0.44068 0.0
C430 C 0.20387 0.40688 0.46368 0.0
C431 C 0.22393 0.40743 0.47546 0.0
H432 H 0.11646 0.48938 0.51087 0.0
H433 H 0.1487 0.47327 0.5078 0.0
C434 C 0.24053 0.40086 0.46385 0.0
C435 C 0.18711 0.41676 0.4742 0.0
H436 H 0.16029 0.46112 0.46594 0.0
C437 C 0.17508 0.40454 0.4921 0.0
C438 C 0.1822 0.43775 0.46529 0.0
C439 C 0.19517 0.45182 0.4466 0.0
C440 C 0.15749 0.41238 0.50054 0.0
C441 C 0.15183 0.43278 0.49058 0.0
C442 C 0.16457 0.44544 0.47351 0.0
C443 C 0.13218 0.44094 0.49633 0.0
C444 C 0.14499 0.39862 0.51975 0.0
C445 C 0.11212 0.42797 0.49124 0.0
C446 C 0.09358 0.43711 0.49308 0.0
C447 C 0.09481 0.45944 0.49983 0.0
C448 C 0.11491 0.47213 0.50558 0.0
C449 C 0.13339 0.46294 0.50391 0.0
H450 H 0.15522 0.38872 0.5312 0.0
H451 H 0.1378 0.40945 0.53117 0.0
H452 H 0.13197 0.38655 0.51129 0.0
H453 H 0.11084 0.41111 0.48488 0.0
H454 H 0.07834 0.42688 0.48862 0.0
H455 H 0.67984 0.201 0.3853 0.0
H456 H 0.65762 0.16602 0.39907 0.0
H457 H 0.60747 0.20301 0.41182 0.0
H458 H 0.62975 0.23816 0.39858 0.0
H459 H 0.61675 0.1732 0.45 0.0
H460 H 0.60489 0.13049 0.36397 0.0
H461 H 0.63215 0.1407 0.37303 0.0
H462 H 0.61425 0.16041 0.36581 0.0
C463 C 0.6641 0.20172 0.39109 0.0
C464 C 0.65658 0.22242 0.3908 0.0
C465 C 0.65134 0.18166 0.39873 0.0
C466 C 0.63078 0.18185 0.40619 0.0
C467 C 0.62323 0.20245 0.40598 0.0
H468 H 0.52637 0.07396 0.43415 0.0
H469 H 0.55151 0.10478 0.41666 0.0
C470 C 0.63594 0.22251 0.39826 0.0
C471 C 0.61739 0.1607 0.41498 0.0
H472 H 0.59213 0.10881 0.39815 0.0
C473 C 0.61138 0.1591 0.43868 0.0
C474 C 0.61026 0.14241 0.40012 0.0
C475 C 0.61552 0.14354 0.37425 0.0
C476 C 0.59854 0.13969 0.44799 0.0
C477 C 0.59172 0.12121 0.43326 0.0
C478 C 0.59759 0.12286 0.40949 0.0
C479 C 0.57758 0.10055 0.44197 0.0
C480 C 0.59193 0.13935 0.47335 0.0
C481 C 0.58418 0.08723 0.46133 0.0
C482 C 0.56986 0.06953 0.47139 0.0
C483 C 0.54862 0.06475 0.46224 0.0
C484 C 0.54254 0.07715 0.44176 0.0
C485 C 0.55689 0.09484 0.43174 0.0
H486 H 0.59435 0.15656 0.48034 0.0
H487 H 0.57493 0.13169 0.47472 0.0
H488 H 0.60166 0.12907 0.48495 0.0
H489 H 0.60022 0.09103 0.4692 0.0
H490 H 0.57518 0.06034 0.48707 0.0
H491 H 0.81871 0.69049 0.4176 0.0
H492 H 0.84961 0.67757 0.43851 0.0
H493 H 0.84295 0.62181 0.39219 0.0
H494 H 0.81204 0.63434 0.37146 0.0
H495 H 0.85272 0.6364 0.46289 0.0
H496 H 0.90558 0.65015 0.38711 0.0
H497 H 0.88162 0.66235 0.38734 0.0
H498 H 0.88019 0.63348 0.3797 0.0
C499 C 0.82375 0.67542 0.41192 0.0
C500 C 0.81294 0.66361 0.39264 0.0
C501 C 0.8415 0.66813 0.42382 0.0
C502 C 0.84889 0.64899 0.4166 0.0
C503 C 0.83793 0.63698 0.39767 0.0
H504 H 0.91888 0.55412 0.48569 0.0
H505 H 0.89321 0.57717 0.46921 0.0
C506 C 0.82022 0.6442 0.38581 0.0
C507 C 0.8676 0.64099 0.42921 0.0
H508 H 0.91562 0.62597 0.41964 0.0
C509 C 0.8666 0.63441 0.45351 0.0
C510 C 0.88592 0.63875 0.41713 0.0
C511 C 0.88855 0.64677 0.39144 0.0
C512 C 0.88286 0.62451 0.46566 0.0
C513 C 0.90046 0.62085 0.45311 0.0
C514 C 0.90203 0.62857 0.4292 0.0
C515 C 0.91641 0.60739 0.46389 0.0
C516 C 0.88087 0.61771 0.49175 0.0
C517 C 0.93818 0.61657 0.46602 0.0
C518 C 0.95308 0.60333 0.4755 0.0
C519 C 0.94646 0.58059 0.48264 0.0
C520 C 0.92464 0.57153 0.48033 0.0
C521 C 0.90984 0.58475 0.47107 0.0
H522 H 0.8711 0.62823 0.50048 0.0
H523 H 0.87286 0.59989 0.49351 0.0
H524 H 0.89672 0.61915 0.50136 0.0
H525 H 0.94362 0.63398 0.46041 0.0
H526 H 0.96974 0.61083 0.47708 0.0
H527 H 0.3781 0.83416 0.37257 0.0
H528 H 0.40017 0.86838 0.38781 0.0
H529 H 0.42234 0.82925 0.44769 0.0
H530 H 0.40078 0.79505 0.4324 0.0
H531 H 0.39892 0.88768 0.43294 0.0
H532 H 0.47758 0.86388 0.42066 0.0
H533 H 0.45333 0.84995 0.406 0.0
H534 H 0.46 0.84256 0.43661 0.0
C535 C 0.3879 0.83281 0.38881 0.0
C536 C 0.38769 0.81182 0.40123 0.0
C537 C 0.40038 0.8524 0.39758 0.0
C538 C 0.41308 0.85134 0.41875 0.0
C539 C 0.41291 0.83044 0.43114 0.0
H540 H 0.49517 0.93249 0.51587 0.0
H541 H 0.47131 0.90424 0.49348 0.0
C542 C 0.40041 0.81091 0.42247 0.0
C543 C 0.42624 0.87202 0.42834 0.0
H544 H 0.47721 0.89414 0.4463 0.0
C545 C 0.41607 0.8893 0.43557 0.0
C546 C 0.44863 0.87415 0.43163 0.0
C547 C 0.46058 0.85676 0.42311 0.0
C548 C 0.4276 0.90807 0.44717 0.0
C549 C 0.44988 0.90969 0.45132 0.0
C550 C 0.4601 0.89283 0.44323 0.0
C551 C 0.46283 0.92772 0.46554 0.0
C552 C 0.41579 0.92548 0.45586 0.0
C553 C 0.46575 0.95051 0.45751 0.0
C554 C 0.47946 0.9669 0.47042 0.0
C555 C 0.49058 0.96066 0.49141 0.0
C556 C 0.48704 0.93791 0.49967 0.0
C557 C 0.47338 0.92168 0.48688 0.0
H558 H 0.39828 0.91978 0.45493 0.0
H559 H 0.42108 0.92948 0.47454 0.0
H560 H 0.41933 0.94125 0.44464 0.0
H561 H 0.45797 0.95552 0.44092 0.0
H562 H 0.48192 0.98424 0.46353 0.0
H563 H 0.21616 0.67074 0.66669 0.0
H564 H 0.18223 0.65699 0.64528 0.0
H565 H 0.19936 0.59078 0.64468 0.0
H566 H 0.23322 0.60434 0.66589 0.0
H567 H 0.17399 0.63853 0.6014 0.0
H568 H 0.14052 0.57679 0.67133 0.0
H569 H 0.1634 0.59828 0.6771 0.0
H570 H 0.16641 0.57262 0.66366 0.0
C571 C 0.21276 0.65327 0.66191 0.0
C572 C 0.22741 0.63862 0.66823 0.0
C573 C 0.19328 0.64541 0.64978 0.0
C574 C 0.188 0.62271 0.64381 0.0
C575 C 0.20276 0.60818 0.64969 0.0
H576 H 0.10791 0.55475 0.53604 0.0
H577 H 0.13508 0.57777 0.56038 0.0
C578 C 0.22217 0.616 0.66182 0.0
C579 C 0.16745 0.61428 0.6307 0.0
H580 H 0.12411 0.57229 0.63192 0.0
C581 C 0.16294 0.62425 0.60823 0.0
C582 C 0.15274 0.59592 0.63974 0.0
C583 C 0.15587 0.58543 0.66439 0.0
C584 C 0.1448 0.61556 0.59404 0.0
C585 C 0.13094 0.59618 0.60238 0.0
C586 C 0.1348 0.58701 0.62539 0.0
C587 C 0.11364 0.58391 0.58672 0.0
C588 C 0.14082 0.62706 0.57009 0.0
C589 C 0.09239 0.57944 0.59343 0.0
C590 C 0.07663 0.5661 0.57943 0.0
C591 C 0.08198 0.55671 0.55871 0.0
C592 C 0.10318 0.56167 0.55187 0.0
C593 C 0.11878 0.57503 0.56571 0.0
H594 H 0.14814 0.64517 0.5698 0.0
H595 H 0.14814 0.6189 0.55622 0.0
H596 H 0.12352 0.62573 0.56537 0.0
H597 H 0.08808 0.58598 0.60969 0.0
H598 H 0.0605 0.56248 0.58527 0.0
H599 H 0.42349 0.24117 0.6506 0.0
H600 H 0.4354 0.21096 0.63053 0.0
H601 H 0.37143 0.17373 0.62813 0.0
H602 H 0.35934 0.20394 0.64846 0.0
H603 H 0.43262 0.16596 0.64744 0.0
H604 H 0.38928 0.17211 0.55907 0.0
H605 H 0.39264 0.19441 0.57988 0.0
H606 H 0.37338 0.1694 0.58473 0.0
C607 C 0.41191 0.22656 0.64586 0.0
C608 C 0.39045 0.22497 0.65129 0.0
C609 C 0.41874 0.20934 0.63427 0.0
C610 C 0.40431 0.19013 0.62765 0.0
C611 C 0.3828 0.18856 0.63268 0.0
H612 H 0.43822 0.07285 0.55855 0.0
H613 H 0.41716 0.09683 0.57786 0.0
C614 C 0.37591 0.20585 0.64431 0.0
C615 C 0.41224 0.17149 0.61653 0.0
H616 H 0.41083 0.14388 0.56478 0.0
C617 C 0.42771 0.16103 0.62942 0.0
C618 C 0.4057 0.16489 0.59308 0.0
C619 C 0.38945 0.17584 0.57823 0.0
C620 C 0.43724 0.14466 0.61932 0.0
C621 C 0.43139 0.13875 0.59555 0.0
C622 C 0.41528 0.14845 0.58296 0.0
C623 C 0.44341 0.12432 0.58291 0.0
C624 C 0.45381 0.13406 0.63407 0.0
C625 C 0.46491 0.13205 0.57884 0.0
C626 C 0.47686 0.11854 0.56789 0.0
C627 C 0.46763 0.09688 0.56067 0.0
C628 C 0.44587 0.08932 0.56414 0.0
C629 C 0.43382 0.10301 0.57509 0.0
H630 H 0.45218 0.13545 0.65346 0.0
H631 H 0.45267 0.11598 0.63025 0.0
H632 H 0.46989 0.14291 0.62961 0.0
H633 H 0.47253 0.14858 0.58431 0.0
H634 H 0.49349 0.12509 0.56533 0.0
H635 H 0.84047 0.36433 0.62956 0.0
H636 H 0.87471 0.38546 0.61785 0.0
H637 H 0.8648 0.44149 0.65789 0.0
H638 H 0.83029 0.42066 0.66937 0.0
H639 H 0.88174 0.42788 0.59249 0.0
H640 H 0.92526 0.43113 0.68111 0.0
H641 H 0.90103 0.41151 0.67511 0.0
H642 H 0.89992 0.4405 0.68003 0.0
C643 C 0.84546 0.38119 0.63581 0.0
C644 C 0.83251 0.39077 0.6504 0.0
C645 C 0.86514 0.39319 0.62921 0.0
C646 C 0.87245 0.41494 0.63723 0.0
C647 C 0.85969 0.42455 0.65189 0.0
H648 H 0.97913 0.52019 0.60886 0.0
H649 H 0.94908 0.49518 0.62597 0.0
C650 C 0.83994 0.41258 0.65845 0.0
C651 C 0.89299 0.4279 0.62932 0.0
H652 H 0.94243 0.45324 0.64942 0.0
C653 C 0.89507 0.4333 0.6049 0.0
C654 C 0.91031 0.43504 0.64557 0.0
C655 C 0.90919 0.42913 0.67191 0.0
C656 C 0.91382 0.44606 0.59631 0.0
C657 C 0.93122 0.45315 0.61254 0.0
C658 C 0.92916 0.44769 0.63698 0.0
C659 C 0.95131 0.46704 0.60448 0.0
C660 C 0.91453 0.45248 0.57 0.0
C661 C 0.96327 0.45917 0.58756 0.0
C662 C 0.98048 0.47346 0.57765 0.0
C663 C 0.98621 0.49588 0.58463 0.0
C664 C 0.97521 0.50309 0.60297 0.0
C665 C 0.95793 0.48881 0.61276 0.0
H666 H 0.89832 0.45077 0.56116 0.0
H667 H 0.92271 0.47011 0.56695 0.0
H668 H 0.92345 0.44116 0.56128 0.0
H669 H 0.95881 0.44222 0.58136 0.0
H670 H 0.98863 0.46723 0.56371 0.0
H671 H 0.69547 0.82367 0.61882 0.0
H672 H 0.67686 0.85537 0.60746 0.0
H673 H 0.65038 0.82237 0.54368 0.0
H674 H 0.66883 0.79047 0.55498 0.0
H675 H 0.67755 0.88272 0.55847 0.0
H676 H 0.59931 0.8351 0.58554 0.0
H677 H 0.62425 0.82775 0.59759 0.0
H678 H 0.61532 0.82146 0.5675 0.0
C679 C 0.6857 0.82319 0.60236 0.0
C680 C 0.68347 0.80455 0.58785 0.0
C681 C 0.67523 0.84133 0.59584 0.0
C682 C 0.66225 0.84106 0.57483 0.0
C683 C 0.66034 0.82278 0.55999 0.0
H684 H 0.56802 0.92618 0.53303 0.0
H685 H 0.58984 0.89656 0.53542 0.0
C686 C 0.67094 0.80466 0.56642 0.0
C687 C 0.64994 0.85947 0.56909 0.0
H688 H 0.60023 0.87252 0.57128 0.0
C689 C 0.66061 0.88057 0.5611 0.0
C690 C 0.6279 0.85642 0.57248 0.0
C691 C 0.6159 0.83403 0.58135 0.0
C692 C 0.64974 0.89888 0.55637 0.0
C693 C 0.6277 0.89605 0.5604 0.0
C694 C 0.61706 0.87474 0.56811 0.0
C695 C 0.61536 0.91492 0.55736 0.0
C696 C 0.662 0.92084 0.54672 0.0
C697 C 0.62234 0.93518 0.56886 0.0
C698 C 0.61025 0.95254 0.5667 0.0
C699 C 0.59056 0.94972 0.55366 0.0
C700 C 0.5833 0.92917 0.54275 0.0
C701 C 0.59571 0.9121 0.54427 0.0
H702 H 0.67548 0.91788 0.53637 0.0
H703 H 0.65171 0.93045 0.53505 0.0
H704 H 0.6688 0.93133 0.56183 0.0
H705 H 0.63699 0.93749 0.57985 0.0
H706 H 0.61617 0.96801 0.57566 0.0
H707 H 0.38017 0.24839 0.48496 0.0
H708 H 0.39936 0.21702 0.49559 0.0
H709 H 0.38223 0.19038 0.42616 0.0
H710 H 0.3629 0.22158 0.41543 0.0
H711 H 0.38453 0.16975 0.49629 0.0
H712 H 0.44756 0.19623 0.43178 0.0
H713 H 0.43 0.21479 0.43997 0.0
H714 H 0.42087 0.19345 0.41885 0.0
C715 C 0.38033 0.23575 0.47202 0.0
C716 C 0.37013 0.23754 0.44928 0.0
C717 C 0.39137 0.2179 0.4781 0.0
C718 C 0.39246 0.20161 0.46153 0.0
C719 C 0.38193 0.20306 0.43902 0.0
H720 H 0.4308 0.07068 0.47831 0.0
H721 H 0.41123 0.10235 0.47284 0.0
C722 C 0.37093 0.2209 0.43291 0.0
C723 C 0.40468 0.1831 0.46774 0.0
H724 H 0.44674 0.16017 0.45137 0.0
C725 C 0.39818 0.16767 0.48656 0.0
C726 C 0.42262 0.18064 0.45516 0.0
C727 C 0.43084 0.19725 0.43545 0.0
C728 C 0.40887 0.14945 0.49272 0.0
C729 C 0.42639 0.14665 0.47966 0.0
C730 C 0.43319 0.16236 0.46124 0.0
C731 C 0.43778 0.12733 0.48456 0.0
C732 C 0.40144 0.13335 0.51314 0.0
C733 C 0.45918 0.13098 0.49288 0.0
C734 C 0.47042 0.11296 0.49596 0.0
C735 C 0.46048 0.091 0.49057 0.0
C736 C 0.43893 0.08738 0.48256 0.0
C737 C 0.42768 0.10542 0.47957 0.0
H738 H 0.39069 0.14039 0.52443 0.0
H739 H 0.39261 0.11744 0.50595 0.0
H740 H 0.41524 0.12913 0.52444 0.0
H741 H 0.46723 0.14782 0.49674 0.0
H742 H 0.487 0.11632 0.50217 0.0
H743 H 0.82549 0.43749 0.36065 0.0
H744 H 0.85875 0.45264 0.38211 0.0
H745 H 0.8558 0.39053 0.42464 0.0
H746 H 0.82299 0.37478 0.40245 0.0
H747 H 0.86538 0.4607 0.42816 0.0
H748 H 0.91682 0.40023 0.40571 0.0
H749 H 0.89145 0.40172 0.39022 0.0
H750 H 0.89266 0.38674 0.4187 0.0
C751 C 0.8321 0.4268 0.3742 0.0
C752 C 0.82152 0.40479 0.37963 0.0
C753 C 0.85109 0.43559 0.38661 0.0
C754 C 0.86004 0.42264 0.40477 0.0
C755 C 0.84953 0.4007 0.41035 0.0
H756 H 0.94593 0.48041 0.51834 0.0
H757 H 0.91686 0.45968 0.49409 0.0
C758 C 0.83055 0.39183 0.39785 0.0
C759 C 0.87965 0.43268 0.41872 0.0
H760 H 0.93017 0.42498 0.43699 0.0
C761 C 0.87956 0.45292 0.42996 0.0
C762 C 0.89834 0.42275 0.42083 0.0
C763 C 0.89997 0.40179 0.40803 0.0
C764 C 0.89736 0.46325 0.44356 0.0
C765 C 0.91569 0.45278 0.44661 0.0
C766 C 0.91603 0.43283 0.43493 0.0
C767 C 0.93444 0.46238 0.46207 0.0
C768 C 0.89644 0.4855 0.45428 0.0
C769 C 0.95452 0.46949 0.45261 0.0
C770 C 0.97141 0.48106 0.46666 0.0
C771 C 0.96835 0.48577 0.49028 0.0
C772 C 0.94866 0.47732 0.50007 0.0
C773 C 0.93198 0.46558 0.48619 0.0
H774 H 0.88422 0.49429 0.44473 0.0
H775 H 0.89211 0.48241 0.47313 0.0
H776 H 0.91207 0.49684 0.45389 0.0
H777 H 0.95684 0.46702 0.43408 0.0
H778 H 0.98639 0.48742 0.45865 0.0
H779 H 0.65286 0.79225 0.43796 0.0
H780 H 0.636 0.82214 0.45247 0.0
H781 H 0.66689 0.86917 0.39979 0.0
H782 H 0.68368 0.8393 0.38506 0.0
H783 H 0.65318 0.8622 0.47154 0.0
H784 H 0.60547 0.87755 0.38833 0.0
H785 H 0.6187 0.85335 0.39304 0.0
H786 H 0.63351 0.88041 0.38436 0.0
C787 C 0.65611 0.80896 0.42948 0.0
C788 C 0.66955 0.81331 0.41023 0.0
C789 C 0.64642 0.82604 0.43777 0.0
C790 C 0.6499 0.84787 0.42703 0.0
C791 C 0.66352 0.85236 0.40802 0.0
H792 H 0.61232 0.9649 0.49203 0.0
H793 H 0.6337 0.93944 0.47574 0.0
C794 C 0.67312 0.83524 0.39961 0.0
C795 C 0.6394 0.86588 0.43595 0.0
H796 H 0.60513 0.90254 0.4193 0.0
C797 C 0.64272 0.87106 0.46009 0.0
C798 C 0.62558 0.87734 0.42108 0.0
C799 C 0.6204 0.87178 0.39532 0.0
C800 C 0.63256 0.88724 0.46977 0.0
C801 C 0.61901 0.89892 0.45483 0.0
C802 C 0.61577 0.89383 0.43067 0.0
C803 C 0.60655 0.91499 0.46428 0.0
C804 C 0.63593 0.89124 0.49604 0.0
C805 C 0.58426 0.91 0.46282 0.0
C806 C 0.57212 0.92446 0.47195 0.0
C807 C 0.58193 0.94445 0.48264 0.0
C808 C 0.60429 0.94974 0.48374 0.0
C809 C 0.61651 0.9351 0.47465 0.0
H810 H 0.6432 0.87772 0.50593 0.0
H811 H 0.64678 0.90749 0.49844 0.0
H812 H 0.62066 0.89237 0.50398 0.0
H813 H 0.5762 0.89464 0.4549 0.0
H814 H 0.55495 0.91981 0.47077 0.0
H815 H 0.19802 0.66312 0.36426 0.0
H816 H 0.16397 0.64776 0.38158 0.0
H817 H 0.19288 0.59544 0.41933 0.0
H818 H 0.22693 0.61083 0.40234 0.0
H819 H 0.1392 0.60731 0.37729 0.0
H820 H 0.164 0.61839 0.47237 0.0
H821 H 0.18021 0.63154 0.44862 0.0
H822 H 0.18072 0.60258 0.45815 0.0
C823 C 0.19712 0.64838 0.37632 0.0
C824 C 0.21525 0.6383 0.38206 0.0
C825 C 0.17766 0.63965 0.38625 0.0
C826 C 0.17591 0.62068 0.40213 0.0
C827 C 0.19394 0.61048 0.4077 0.0
H828 H 0.06836 0.52165 0.43727 0.0
H829 H 0.09699 0.54637 0.41764 0.0
C830 C 0.21341 0.61928 0.39793 0.0
C831 C 0.15507 0.61092 0.41211 0.0
H832 H 0.13159 0.59274 0.46421 0.0
C833 C 0.13747 0.60437 0.39632 0.0
C834 C 0.15261 0.60748 0.43695 0.0
C835 C 0.17034 0.6156 0.455 0.0
C836 C 0.1178 0.5936 0.40462 0.0
C837 C 0.11578 0.58876 0.42938 0.0
C838 C 0.13312 0.59621 0.44521 0.0
C839 C 0.09639 0.57491 0.43925 0.0
C840 C 0.09939 0.58754 0.38675 0.0
C841 C 0.08632 0.58263 0.45798 0.0
C842 C 0.06998 0.56837 0.46949 0.0
C843 C 0.06343 0.54602 0.4626 0.0
C844 C 0.07283 0.53876 0.44303 0.0
C845 C 0.08921 0.55297 0.43164 0.0
H846 H 0.10102 0.59901 0.37057 0.0
H847 H 0.09919 0.57014 0.38107 0.0
H848 H 0.08393 0.58828 0.39447 0.0
H849 H 0.0916 0.59946 0.46423 0.0
H850 H 0.06321 0.57456 0.48453 0.0
H851 H 0.4195 0.80315 0.65086 0.0
H852 H 0.44182 0.8381 0.63715 0.0
H853 H 0.39094 0.87505 0.6469 0.0
H854 H 0.36868 0.84029 0.66113 0.0
H855 H 0.43314 0.86662 0.59777 0.0
H856 H 0.44267 0.91218 0.682 0.0
H857 H 0.43357 0.88215 0.6811 0.0
H858 H 0.41562 0.9015 0.67248 0.0
C859 C 0.41315 0.81876 0.65044 0.0
C860 C 0.39229 0.81889 0.65718 0.0
C861 C 0.42589 0.83871 0.64245 0.0
C862 C 0.41815 0.85925 0.64124 0.0
C863 C 0.39738 0.85948 0.64802 0.0
H864 H 0.47451 0.97874 0.55762 0.0
H865 H 0.44922 0.94855 0.57595 0.0
C866 C 0.38459 0.83953 0.65592 0.0
C867 C 0.43156 0.88023 0.63208 0.0
H868 H 0.45596 0.9329 0.64748 0.0
C869 C 0.4381 0.88113 0.60862 0.0
C870 C 0.43817 0.89907 0.64633 0.0
C871 C 0.43234 0.89873 0.67195 0.0
C872 C 0.45099 0.90035 0.59898 0.0
C873 C 0.45729 0.91937 0.61308 0.0
C874 C 0.45088 0.91843 0.6366 0.0
C875 C 0.4715 0.93983 0.604 0.0
C876 C 0.45821 0.89993 0.57396 0.0
C877 C 0.49207 0.94581 0.61448 0.0
C878 C 0.50655 0.96319 0.60417 0.0
C879 C 0.50074 0.97503 0.58318 0.0
C880 C 0.47962 0.97002 0.57372 0.0
C881 C 0.46516 0.95259 0.58405 0.0
H882 H 0.45596 0.88251 0.56756 0.0
H883 H 0.44877 0.90995 0.56167 0.0
H884 H 0.47527 0.90753 0.57296 0.0
H885 H 0.49726 0.93629 0.62999 0.0
H886 H 0.52262 0.96659 0.61203 0.0
H887 H 0.21549 0.33181 0.62327 0.0
H888 H 0.18557 0.34951 0.60689 0.0
H889 H 0.22222 0.4152 0.61924 0.0
H890 H 0.25201 0.39775 0.6361 0.0
H891 H 0.16327 0.3791 0.62921 0.0
H892 H 0.2013 0.41954 0.54826 0.0
H893 H 0.21145 0.39725 0.56575 0.0
H894 H 0.21725 0.42578 0.57526 0.0
C895 C 0.21716 0.35003 0.62271 0.0
C896 C 0.23628 0.36332 0.63098 0.0
C897 C 0.20007 0.36011 0.61318 0.0
C898 C 0.20178 0.38367 0.61148 0.0
C899 C 0.22071 0.39699 0.61988 0.0
H900 H 0.1286 0.48728 0.57361 0.0
H901 H 0.15457 0.46309 0.58617 0.0
C902 C 0.23776 0.38695 0.62951 0.0
C903 C 0.18362 0.39447 0.60163 0.0
H904 H 0.17001 0.4327 0.55885 0.0
C905 C 0.16459 0.3906 0.61364 0.0
C906 C 0.18534 0.40932 0.58121 0.0
C907 C 0.20485 0.41308 0.5667 0.0
C908 C 0.14764 0.40208 0.60649 0.0
C909 C 0.14971 0.41762 0.58664 0.0
C910 C 0.16848 0.42089 0.57417 0.0
C911 C 0.13329 0.43185 0.57944 0.0
C912 C 0.12804 0.39826 0.62087 0.0
C913 C 0.11258 0.42235 0.57144 0.0
C914 C 0.09753 0.43622 0.56432 0.0
C915 C 0.103 0.45983 0.56495 0.0
C916 C 0.12375 0.46918 0.57301 0.0
C917 C 0.13869 0.45537 0.58013 0.0
H918 H 0.13067 0.38923 0.63827 0.0
H919 H 0.12304 0.41455 0.62423 0.0
H920 H 0.1148 0.38793 0.61071 0.0
H921 H 0.10819 0.40425 0.57028 0.0
H922 H 0.08181 0.42851 0.5578 0.0
H923 H 0.63448 0.24464 0.62621 0.0
H924 H 0.61859 0.21019 0.60627 0.0
H925 H 0.65347 0.17107 0.6558 0.0
H926 H 0.66927 0.20546 0.67609 0.0
H927 H 0.6406 0.17729 0.58539 0.0
H928 H 0.58952 0.14051 0.65932 0.0
H929 H 0.60071 0.17013 0.65699 0.0
H930 H 0.61734 0.14981 0.66671 0.0
C931 C 0.6387 0.2287 0.63297 0.0
C932 C 0.65306 0.22782 0.65286 0.0
C933 C 0.6297 0.20905 0.62146 0.0
C934 C 0.63467 0.18804 0.62969 0.0
C935 C 0.64923 0.18708 0.6493 0.0
H936 H 0.5704 0.05574 0.5797 0.0
H937 H 0.59572 0.08419 0.60118 0.0
C938 C 0.65838 0.20678 0.66075 0.0
C939 C 0.62443 0.16725 0.6177 0.0
H940 H 0.5868 0.12004 0.62457 0.0
C941 C 0.62897 0.16466 0.59401 0.0
C942 C 0.60943 0.15067 0.62905 0.0
C943 C 0.60377 0.15283 0.65438 0.0
C944 C 0.61857 0.1462 0.58118 0.0
C945 C 0.6028 0.13016 0.59214 0.0
C946 C 0.59887 0.13229 0.61615 0.0
C947 C 0.58877 0.11245 0.57837 0.0
C948 C 0.62456 0.14414 0.55594 0.0
C949 C 0.57643 0.11883 0.5585 0.0
C950 C 0.5621 0.10273 0.54627 0.0
C951 C 0.5595 0.07976 0.55371 0.0
C952 C 0.57207 0.07325 0.57344 0.0
C953 C 0.58649 0.0895 0.58576 0.0
H954 H 0.64124 0.15236 0.55328 0.0
H955 H 0.62275 0.12622 0.55124 0.0
H956 H 0.61405 0.15275 0.54347 0.0
H957 H 0.57743 0.13643 0.55277 0.0
H958 H 0.55272 0.10845 0.53119 0.0
H959 H 0.83245 0.64979 0.64416 0.0
H960 H 0.86334 0.63965 0.62642 0.0
H961 H 0.8272 0.62922 0.5595 0.0
H962 H 0.79611 0.63939 0.57718 0.0
H963 H 0.86338 0.59769 0.60781 0.0
H964 H 0.88413 0.66729 0.5398 0.0
H965 H 0.86732 0.66956 0.56398 0.0
H966 H 0.85685 0.65345 0.5387 0.0
C967 C 0.83109 0.64542 0.62564 0.0
C968 C 0.81182 0.6452 0.6121 0.0
C969 C 0.84877 0.63978 0.6155 0.0
C970 C 0.84758 0.63388 0.59162 0.0
C971 C 0.82855 0.63414 0.57783 0.0
H972 H 0.93451 0.55436 0.53813 0.0
H973 H 0.90279 0.57024 0.54505 0.0
C974 C 0.81081 0.63988 0.58797 0.0
C975 C 0.86577 0.62562 0.58201 0.0
H976 H 0.90388 0.63725 0.54096 0.0
C977 C 0.87217 0.60627 0.59311 0.0
C978 C 0.87721 0.63695 0.5629 0.0
C979 C 0.8712 0.65808 0.5507 0.0
C980 C 0.88982 0.59797 0.58577 0.0
C981 C 0.90121 0.60919 0.56659 0.0
C982 C 0.89488 0.62857 0.55544 0.0
C983 C 0.92024 0.6013 0.55872 0.0
C984 C 0.8965 0.5776 0.59902 0.0
C985 C 0.9405 0.61397 0.56319 0.0
C986 C 0.95872 0.60502 0.5591 0.0
C987 C 0.9569 0.58325 0.5505 0.0
C988 C 0.93651 0.57111 0.54491 0.0
C989 C 0.91834 0.58014 0.54886 0.0
H990 H 0.88874 0.5738 0.61627 0.0
H991 H 0.89193 0.56267 0.58794 0.0
H992 H 0.91403 0.58015 0.60255 0.0
H993 H 0.94221 0.63038 0.57078 0.0
H994 H 0.97419 0.61487 0.56339 0.0
H995 H 0.40376 0.42644 0.29317 0.0
H996 H 0.41766 0.44871 0.25803 0.0
H997 H 0.38007 0.40033 0.21223 0.0
H998 H 0.36604 0.37801 0.24724 0.0
H999 H 0.44001 0.42889 0.22202 0.0
H1000 H 0.36953 0.46438 0.18434 0.0
H1001 H 0.37243 0.45526 0.21535 0.0
H1002 H 0.36495 0.43482 0.193 0.0
C1003 C 0.39817 0.42077 0.2756 0.0
C1004 C 0.38385 0.40048 0.27293 0.0
C1005 C 0.40616 0.43346 0.25559 0.0
C1006 C 0.3997 0.42625 0.2326 0.0
C1007 C 0.38501 0.40631 0.22984 0.0
H1008 H 0.43296 0.45903 0.08814 0.0
H1009 H 0.41557 0.44681 0.12526 0.0
C1010 C 0.37717 0.3935 0.24983 0.0
C1011 C 0.40969 0.43843 0.21154 0.0
H1012 H 0.39909 0.46789 0.1599 0.0
C1013 C 0.43118 0.43766 0.20853 0.0
C1014 C 0.398 0.44965 0.194 0.0
C1015 C 0.37497 0.4513 0.19679 0.0
C1016 C 0.44118 0.44713 0.18795 0.0
C1017 C 0.42948 0.45826 0.17023 0.0
C1018 C 0.40805 0.45943 0.17352 0.0
C1019 C 0.43892 0.46762 0.14761 0.0
C1020 C 0.46389 0.44418 0.18493 0.0
C1021 C 0.45745 0.48393 0.14774 0.0
C1022 C 0.46764 0.49064 0.12661 0.0
C1023 C 0.45921 0.48158 0.10485 0.0
C1024 C 0.43995 0.46627 0.10459 0.0
C1025 C 0.42994 0.45931 0.12579 0.0
H1026 H 0.46862 0.43045 0.19703 0.0
H1027 H 0.46623 0.4403 0.1663 0.0
H1028 H 0.47472 0.46004 0.18924 0.0
H1029 H 0.46435 0.49102 0.16428 0.0
H1030 H 0.48237 0.50256 0.12746 0.0
H1031 H 0.4081 0.6265 0.81087 0.0
H1032 H 0.42599 0.6074 0.8437 0.0
H1033 H 0.42686 0.6643 0.88729 0.0
H1034 H 0.40834 0.68314 0.85494 0.0
H1035 H 0.46524 0.62145 0.86442 0.0
H1036 H 0.40513 0.61212 0.93283 0.0
H1037 H 0.399 0.61913 0.90187 0.0
H1038 H 0.41203 0.64063 0.92127 0.0
C1039 C 0.41167 0.63476 0.82761 0.0
C1040 C 0.40674 0.6564 0.8302 0.0
C1041 C 0.42205 0.62387 0.84633 0.0
C1042 C 0.42757 0.63427 0.86812 0.0
C1043 C 0.42242 0.65571 0.87086 0.0
H1044 H 0.52849 0.60517 0.96964 0.0
H1045 H 0.50517 0.62268 0.94103 0.0
C1046 C 0.41205 0.6666 0.85219 0.0
C1047 C 0.43988 0.62334 0.8874 0.0
H1048 H 0.44003 0.606 0.94634 0.0
C1049 C 0.45965 0.61796 0.88228 0.0
C1050 C 0.43252 0.61852 0.91068 0.0
C1051 C 0.41091 0.62268 0.91698 0.0
C1052 C 0.47244 0.6084 0.89986 0.0
C1053 C 0.46551 0.6045 0.92341 0.0
C1054 C 0.4455 0.60933 0.92841 0.0
C1055 C 0.47874 0.59504 0.94286 0.0
C1056 C 0.49315 0.60224 0.89293 0.0
C1057 C 0.47123 0.57422 0.95446 0.0
C1058 C 0.48445 0.56424 0.9711 0.0
C1059 C 0.50548 0.5749 0.9765 0.0
C1060 C 0.51248 0.59636 0.96583 0.0
C1061 C 0.49922 0.60635 0.94929 0.0
H1062 H 0.49337 0.6006 0.87337 0.0
H1063 H 0.50647 0.6157 0.89824 0.0
H1064 H 0.49602 0.58613 0.90206 0.0
H1065 H 0.45542 0.56525 0.94993 0.0
H1066 H 0.47849 0.5477 0.97889 0.0
H1067 H 0.40814 0.4138 0.79694 0.0
H1068 H 0.42778 0.43228 0.83118 0.0
H1069 H 0.39136 0.38444 0.87896 0.0
H1070 H 0.37176 0.36562 0.84474 0.0
H1071 H 0.40862 0.45124 0.86986 0.0
H1072 H 0.4552 0.38404 0.90147 0.0
H1073 H 0.4435 0.38551 0.87149 0.0
H1074 H 0.42696 0.37576 0.89586 0.0
C1075 C 0.40449 0.40698 0.81471 0.0
C1076 C 0.38842 0.38815 0.81807 0.0
C1077 C 0.41564 0.41766 0.83427 0.0
C1078 C 0.41115 0.40963 0.85761 0.0
C1079 C 0.39524 0.39076 0.8611 0.0
H1080 H 0.47879 0.46225 0.99016 0.0
H1081 H 0.45261 0.43997 0.96312 0.0
C1082 C 0.38395 0.38014 0.84152 0.0
C1083 C 0.42276 0.42156 0.87817 0.0
H1084 H 0.46056 0.4171 0.92311 0.0
C1085 C 0.41987 0.44373 0.88161 0.0
C1086 C 0.43723 0.41163 0.89366 0.0
C1087 C 0.44111 0.38797 0.8905 0.0
C1088 C 0.43139 0.45641 0.89979 0.0
C1089 C 0.44659 0.44688 0.91462 0.0
C1090 C 0.44891 0.4244 0.91176 0.0
C1091 C 0.46161 0.46065 0.9315 0.0
C1092 C 0.42724 0.48001 0.90285 0.0
C1093 C 0.47541 0.47953 0.92273 0.0
C1094 C 0.49025 0.49219 0.938 0.0
C1095 C 0.49184 0.48623 0.96252 0.0
C1096 C 0.47791 0.46737 0.97142 0.0
C1097 C 0.463 0.4546 0.95598 0.0
H1098 H 0.41092 0.48198 0.89601 0.0
H1099 H 0.42924 0.48442 0.92186 0.0
H1100 H 0.43869 0.49218 0.89255 0.0
H1101 H 0.47499 0.48427 0.90387 0.0
H1102 H 0.50071 0.50654 0.93042 0.0
H1103 H 0.65042 0.40811 0.78515 0.0
H1104 H 0.63208 0.42455 0.81504 0.0
H1105 H 0.68619 0.42403 0.86466 0.0
H1106 H 0.7046 0.40744 0.83497 0.0
H1107 H 0.62107 0.40802 0.8608 0.0
H1108 H 0.67666 0.48957 0.86472 0.0
H1109 H 0.67653 0.47035 0.84116 0.0
H1110 H 0.68896 0.4649 0.86991 0.0
C1111 C 0.65837 0.41129 0.80248 0.0
C1112 C 0.67907 0.40654 0.80755 0.0
C1113 C 0.6479 0.42082 0.81952 0.0
C1114 C 0.65789 0.42592 0.84196 0.0
C1115 C 0.67836 0.42078 0.84728 0.0
H1116 H 0.61223 0.48715 0.96367 0.0
H1117 H 0.63399 0.46946 0.93802 0.0
C1118 C 0.68886 0.41126 0.83026 0.0
C1119 C 0.6467 0.43627 0.85985 0.0
H1120 H 0.64917 0.48344 0.8919 0.0
C1121 C 0.62723 0.4245 0.8676 0.0
C1122 C 0.65481 0.45773 0.86888 0.0
C1123 C 0.67529 0.47151 0.86064 0.0
C1124 C 0.61564 0.43359 0.88403 0.0
C1125 C 0.6235 0.45525 0.89265 0.0
C1126 C 0.64318 0.46684 0.88531 0.0
C1127 C 0.61085 0.46659 0.90814 0.0
C1128 C 0.59508 0.41983 0.8921 0.0
C1129 C 0.59091 0.47138 0.89965 0.0
C1130 C 0.57853 0.4814 0.91417 0.0
C1131 C 0.5858 0.48705 0.93755 0.0
C1132 C 0.6061 0.48289 0.94583 0.0
C1133 C 0.61854 0.47279 0.9312 0.0
H1134 H 0.59445 0.40156 0.88952 0.0
H1135 H 0.59295 0.42221 0.91119 0.0
H1136 H 0.58154 0.42535 0.88142 0.0
H1137 H 0.58486 0.46728 0.88174 0.0
H1138 H 0.56312 0.48459 0.90701 0.0
H1139 H 0.64551 0.67426 0.78325 0.0
H1140 H 0.63332 0.65293 0.81933 0.0
H1141 H 0.65631 0.59473 0.79615 0.0
H1142 H 0.66966 0.61634 0.76057 0.0
H1143 H 0.60401 0.61563 0.82321 0.0
H1144 H 0.68135 0.5982 0.86379 0.0
H1145 H 0.67955 0.61838 0.83915 0.0
H1146 H 0.67562 0.5887 0.83404 0.0
C1147 C 0.6484 0.65707 0.786 0.0
C1148 C 0.65872 0.6471 0.76902 0.0
C1149 C 0.64124 0.64482 0.80656 0.0
C1150 C 0.64416 0.62232 0.81062 0.0
C1151 C 0.65428 0.61221 0.79366 0.0
H1152 H 0.56989 0.5363 0.9165 0.0
H1153 H 0.58647 0.55055 0.87944 0.0
C1154 C 0.66162 0.62451 0.77314 0.0
C1155 C 0.63582 0.60936 0.83219 0.0
H1156 H 0.6503 0.58018 0.88261 0.0
C1157 C 0.61413 0.60785 0.83619 0.0
C1158 C 0.6491 0.59938 0.84919 0.0
C1159 C 0.67274 0.60139 0.84651 0.0
C1160 C 0.60535 0.59688 0.85681 0.0
C1161 C 0.61852 0.58653 0.87361 0.0
C1162 C 0.6402 0.58788 0.86955 0.0
C1163 C 0.61031 0.5756 0.89622 0.0
C1164 C 0.58222 0.59726 0.86079 0.0
C1165 C 0.61902 0.584 0.91809 0.0
C1166 C 0.60985 0.57559 0.93937 0.0
C1167 C 0.59169 0.55871 0.93913 0.0
C1168 C 0.58372 0.54947 0.91731 0.0
C1169 C 0.59308 0.5577 0.89607 0.0
H1170 H 0.57595 0.61059 0.84942 0.0
H1171 H 0.57261 0.58077 0.85621 0.0
H1172 H 0.57992 0.60014 0.87972 0.0
H1173 H 0.63242 0.59771 0.91863 0.0
H1174 H 0.61645 0.58301 0.95587 0.0
H1175 H 0.67685 0.66076 0.21385 0.0
H1176 H 0.66192 0.63932 0.17917 0.0
H1177 H 0.5985 0.6406 0.20084 0.0
H1178 H 0.61321 0.66184 0.23546 0.0
H1179 H 0.63642 0.59794 0.17673 0.0
H1180 H 0.59458 0.66304 0.13155 0.0
H1181 H 0.61435 0.66928 0.15566 0.0
H1182 H 0.58737 0.65709 0.16185 0.0
C1183 C 0.65972 0.65641 0.21128 0.0
C1184 C 0.64625 0.66324 0.2274 0.0
C1185 C 0.65121 0.64426 0.19137 0.0
C1186 C 0.62907 0.63876 0.18706 0.0
C1187 C 0.61562 0.6452 0.20333 0.0
H1188 H 0.55033 0.53354 0.11382 0.0
H1189 H 0.57404 0.55785 0.14054 0.0
C1190 C 0.62408 0.65735 0.22319 0.0
C1191 C 0.61989 0.62554 0.16615 0.0
H1192 H 0.58358 0.62517 0.11887 0.0
C1193 C 0.62509 0.60403 0.1639 0.0
C1194 C 0.60541 0.6336 0.14906 0.0
C1195 C 0.60026 0.65712 0.14946 0.0
C1196 C 0.61533 0.58992 0.14585 0.0
C1197 C 0.5997 0.59736 0.12982 0.0
C1198 C 0.59538 0.61934 0.13127 0.0
C1199 C 0.58641 0.582 0.11285 0.0
C1200 C 0.62173 0.56707 0.14428 0.0
C1201 C 0.58513 0.58758 0.08825 0.0
C1202 C 0.57137 0.57364 0.07273 0.0
C1203 C 0.55845 0.55404 0.08164 0.0
C1204 C 0.56004 0.54845 0.10624 0.0
C1205 C 0.57376 0.56228 0.12162 0.0
H1206 H 0.63818 0.56695 0.15191 0.0
H1207 H 0.61084 0.55437 0.1547 0.0
H1208 H 0.62077 0.56188 0.12555 0.0
H1209 H 0.59463 0.60283 0.08109 0.0
H1210 H 0.57047 0.5785 0.05392 0.0
H1211 H 0.40873 0.62978 0.26216 0.0
H1212 H 0.42176 0.60854 0.23198 0.0
H1213 H 0.37527 0.62897 0.1802 0.0
H1214 H 0.36227 0.65046 0.2103 0.0
H1215 H 0.40205 0.5734 0.20541 0.0
H1216 H 0.42988 0.64795 0.14594 0.0
H1217 H 0.42223 0.65057 0.17588 0.0
H1218 H 0.40223 0.64435 0.15219 0.0
C1219 C 0.40115 0.62963 0.24441 0.0
C1220 C 0.38451 0.64194 0.23864 0.0
C1221 C 0.40867 0.61752 0.22713 0.0
C1222 C 0.39976 0.61743 0.20368 0.0
C1223 C 0.38278 0.62923 0.19799 0.0
H1224 H 0.44113 0.55589 0.07931 0.0
H1225 H 0.41908 0.57258 0.10553 0.0
C1226 C 0.37533 0.64148 0.21524 0.0
C1227 C 0.40842 0.60508 0.18531 0.0
H1228 H 0.43341 0.61234 0.13266 0.0
C1229 C 0.40881 0.58192 0.18946 0.0
C1230 C 0.41719 0.61614 0.1644 0.0
C1231 C 0.41808 0.64115 0.15935 0.0
C1232 C 0.41797 0.56963 0.1735 0.0
C1233 C 0.42719 0.58083 0.15295 0.0
C1234 C 0.42623 0.60379 0.14838 0.0
C1235 C 0.4396 0.56956 0.13718 0.0
C1236 C 0.41786 0.54478 0.17884 0.0
C1237 C 0.45844 0.56244 0.14625 0.0
C1238 C 0.47107 0.55316 0.13137 0.0
C1239 C 0.46517 0.55073 0.10702 0.0
C1240 C 0.44609 0.5575 0.09798 0.0
C1241 C 0.4335 0.56704 0.11291 0.0
H1242 H 0.40521 0.53748 0.1911 0.0
H1243 H 0.41548 0.53531 0.16222 0.0
H1244 H 0.43343 0.54236 0.18758 0.0
H1245 H 0.46364 0.56454 0.1648 0.0
H1246 H 0.48561 0.54805 0.139 0.0
H1247 H 0.61007 0.35823 0.21858 0.0
H1248 H 0.59267 0.37569 0.18438 0.0
H1249 H 0.64632 0.42969 0.18085 0.0
H1250 H 0.66384 0.41242 0.21537 0.0
H1251 H 0.5814 0.41874 0.18144 0.0
H1252 H 0.63701 0.40992 0.11154 0.0
H1253 H 0.63684 0.39411 0.13978 0.0
H1254 H 0.64907 0.42326 0.13798 0.0
C1255 C 0.61819 0.37388 0.21066 0.0
C1256 C 0.63835 0.38396 0.21988 0.0
C1257 C 0.60825 0.38377 0.19097 0.0
C1258 C 0.61826 0.40387 0.17986 0.0
C1259 C 0.63846 0.41394 0.18883 0.0
H1260 H 0.57241 0.49083 0.06577 0.0
H1261 H 0.59465 0.47305 0.09553 0.0
C1262 C 0.64845 0.40404 0.20859 0.0
C1263 C 0.60696 0.41469 0.15966 0.0
H1264 H 0.60902 0.4303 0.10034 0.0
C1265 C 0.58743 0.42122 0.1637 0.0
C1266 C 0.61492 0.41808 0.13656 0.0
C1267 C 0.63553 0.41084 0.13103 0.0
C1268 C 0.57565 0.43105 0.14535 0.0
C1269 C 0.58336 0.43402 0.12212 0.0
C1270 C 0.60307 0.42786 0.11811 0.0
C1271 C 0.57097 0.44343 0.10189 0.0
C1272 C 0.55516 0.43849 0.1511 0.0
C1273 C 0.55062 0.43223 0.0948 0.0
C1274 C 0.53786 0.44231 0.07781 0.0
C1275 C 0.54522 0.46379 0.06738 0.0
C1276 C 0.56618 0.47429 0.07337 0.0
C1277 C 0.57893 0.46419 0.09046 0.0
H1278 H 0.55433 0.44046 0.17053 0.0
H1279 H 0.55339 0.45475 0.14153 0.0
H1280 H 0.54151 0.42559 0.14537 0.0
H1281 H 0.54433 0.41598 0.10302 0.0
H1282 H 0.5219 0.43362 0.07354 0.0
loop_
_geom_bond_atom_site_label_1
_geom_bond_atom_site_label_2
_geom_bond_distance
_geom_bond_site_symmetry_2
_ccdc_geom_bond_type
C0 C1 1.264 . S
C0 C5 1.479 . S
C0 C10 1.465 . S
C1 C0 1.264 . S
C1 C3 1.339 . S
C1 H28 0.931 . S
C2 C3 1.395 . S
C2 C4 1.320 . S
C3 C1 1.339 . S
C3 C2 1.395 . S
C3 H29 0.929 . S
C4 C2 1.320 . S
C4 C5 1.405 . S
C4 H30 0.930 . S
C5 C0 1.479 . S
C5 C4 1.405 . S
C5 H31 0.931 . S
U6 O7 2.454 . S
U6 O8 2.458 . S
U6 C9 2.984 . S
U6 C10 2.847 . S
U6 C23 2.882 . S
U6 O24 2.441 . S
U6 O25 2.420 . S
U6 O26 2.455 . S
U6 O27 2.449 . S
O7 U6 2.454 . S
O7 C9 1.353 . S
O8 U6 2.458 . S
O8 C9 1.286 . S
C9 U6 2.984 . S
C9 O7 1.353 . S
C9 O8 1.286 . S
C9 C11 1.363 . S
C10 C0 1.465 . S
C10 U6 2.847 . S
C10 O24 1.249 . S
C10 O25 1.202 . S
C11 C9 1.363 . S
C11 C13 1.408 . S
C11 C16 1.342 . S
C12 C13 1.310 . S
C12 C15 1.461 . S
C12 H32 0.932 . S
C13 C11 1.408 . S
C13 C12 1.310 . S
C13 H33 0.930 . S
C14 C15 1.474 . S
C14 C16 1.285 . S
C14 H34 0.929 . S
C15 C12 1.461 . S
C15 C14 1.474 . S
C16 C11 1.342 . S
C16 C14 1.285 . S
C16 H35 0.930 . S
C17 C20 1.424 . S
C17 C22 1.245 . S
C17 C23 1.428 . S
C18 C21 1.260 . S
C18 C22 1.477 . S
C18 H36 0.932 . S
C19 C20 1.384 . S
C19 C21 1.479 . S
C19 H37 0.929 . S
C20 C17 1.424 . S
C20 C19 1.384 . S
C20 H38 0.928 . S
C21 C18 1.260 . S
C21 C19 1.479 . S
C22 C17 1.245 . S
C22 C18 1.477 . S
C22 H39 0.932 . S
C23 U6 2.882 . S
C23 C17 1.428 . S
C23 O26 1.301 . S
C23 O27 1.282 . S
O24 U6 2.441 . S
O24 C10 1.249 . S
O25 U6 2.420 . S
O25 C10 1.202 . S
O26 U6 2.455 . S
O26 C23 1.301 . S
O27 U6 2.449 . S
O27 C23 1.282 . S
H28 C1 0.931 . S
H29 C3 0.929 . S
H30 C4 0.930 . S
H31 C5 0.931 . S
H32 C12 0.932 . S
H33 C13 0.930 . S
H34 C14 0.929 . S
H35 C16 0.930 . S
H36 C18 0.932 . S
H37 C19 0.929 . S
H38 C20 0.928 . S
H39 C22 0.932 . S
C40 C41 1.264 . S
C40 C45 1.479 . S
C40 C50 1.465 . S
C41 C40 1.264 . S
C41 C43 1.339 . S
C41 H68 0.931 . S
C42 C43 1.395 . S
C42 C44 1.320 . S
C43 C41 1.339 . S
C43 C42 1.395 . S
C43 H69 0.929 . S
C44 C42 1.320 . S
C44 C45 1.405 . S
C44 H70 0.930 . S
C45 C40 1.479 . S
C45 C44 1.405 . S
C45 H71 0.931 . S
U46 O47 2.454 . S
U46 O48 2.458 . S
U46 C49 2.984 . S
U46 C50 2.847 . S
U46 C63 2.882 . S
U46 O64 2.441 . S
U46 O65 2.420 . S
U46 O66 2.455 . S
U46 O67 2.449 . S
O47 U46 2.454 . S
O47 C49 1.353 . S
O48 U46 2.458 . S
O48 C49 1.286 . S
C49 U46 2.984 . S
C49 O47 1.353 . S
C49 O48 1.286 . S
C49 C51 1.363 . S
C50 C40 1.465 . S
C50 U46 2.847 . S
C50 O64 1.249 . S
C50 O65 1.202 . S
C51 C49 1.363 . S
C51 C53 1.408 . S
C51 C56 1.342 . S
C52 C53 1.310 . S
C52 C55 1.461 . S
C52 H72 0.932 . S
C53 C51 1.408 . S
C53 C52 1.310 . S
C53 H73 0.930 . S
C54 C55 1.474 . S
C54 C56 1.285 . S
C54 H74 0.929 . S
C55 C52 1.461 . S
C55 C54 1.474 . S
C56 C51 1.342 . S
C56 C54 1.285 . S
C56 H75 0.930 . S
C57 C60 1.424 . S
C57 C62 1.245 . S
C57 C63 1.428 . S
C58 C61 1.260 . S
C58 C62 1.477 . S
C58 H76 0.932 . S
C59 C60 1.384 . S
C59 C61 1.479 . S
C59 H77 0.929 . S
C60 C57 1.424 . S
C60 C59 1.384 . S
C60 H78 0.928 . S
C61 C58 1.260 . S
C61 C59 1.479 . S
C62 C57 1.245 . S
C62 C58 1.477 . S
C62 H79 0.932 . S
C63 U46 2.882 . S
C63 C57 1.428 . S
C63 O66 1.301 . S
C63 O67 1.282 . S
O64 U46 2.441 . S
O64 C50 1.249 . S
O65 U46 2.420 . S
O65 C50 1.202 . S
O66 U46 2.455 . S
O66 C63 1.301 . S
O67 U46 2.449 . S
O67 C63 1.282 . S
H68 C41 0.931 . S
H69 C43 0.929 . S
H70 C44 0.930 . S
H71 C45 0.931 . S
H72 C52 0.932 . S
H73 C53 0.930 . S
H74 C54 0.929 . S
H75 C56 0.930 . S
H76 C58 0.932 . S
H77 C59 0.929 . S
H78 C60 0.928 . S
H79 C62 0.932 . S
C80 C81 1.264 . S
C80 C85 1.479 . S
C80 C90 1.465 . S
C81 C80 1.264 . S
C81 C83 1.339 . S
C81 H108 0.931 . S
C82 C83 1.395 . S
C82 C84 1.320 . S
C83 C81 1.339 . S
C83 C82 1.395 . S
C83 H109 0.929 . S
C84 C82 1.320 . S
C84 C85 1.405 . S
C84 H110 0.930 . S
C85 C80 1.479 . S
C85 C84 1.405 . S
C85 H111 0.931 . S
U86 O87 2.454 . S
U86 O88 2.458 . S
U86 C89 2.984 . S
U86 C90 2.847 . S
U86 C103 2.882 . S
U86 O104 2.441 . S
U86 O105 2.420 . S
U86 O106 2.455 . S
U86 O107 2.449 . S
O87 U86 2.454 . S
O87 C89 1.353 . S
O88 U86 2.458 . S
O88 C89 1.286 . S
C89 U86 2.984 . S
C89 O87 1.353 . S
C89 O88 1.286 . S
C89 C91 1.363 . S
C90 C80 1.465 . S
C90 U86 2.847 . S
C90 O104 1.249 . S
C90 O105 1.202 . S
C91 C89 1.363 . S
C91 C93 1.408 . S
C91 C96 1.342 . S
C92 C93 1.310 . S
C92 C95 1.461 . S
C92 H112 0.932 . S
C93 C91 1.408 . S
C93 C92 1.310 . S
C93 H113 0.930 . S
C94 C95 1.474 . S
C94 C96 1.285 . S
C94 H114 0.929 . S
C95 C92 1.461 . S
C95 C94 1.474 . S
C96 C91 1.342 . S
C96 C94 1.285 . S
C96 H115 0.930 . S
C97 C100 1.424 . S
C97 C102 1.245 . S
C97 C103 1.428 . S
C98 C101 1.260 . S
C98 C102 1.477 . S
C98 H116 0.932 . S
C99 C100 1.384 . S
C99 C101 1.479 . S
C99 H117 0.929 . S
C100 C97 1.424 . S
C100 C99 1.384 . S
C100 H118 0.928 . S
C101 C98 1.260 . S
C101 C99 1.479 . S
C102 C97 1.245 . S
C102 C98 1.477 . S
C102 H119 0.932 . S
C103 U86 2.882 . S
C103 C97 1.428 . S
C103 O106 1.301 . S
C103 O107 1.282 . S
O104 U86 2.441 . S
O104 C90 1.249 . S
O105 U86 2.420 . S
O105 C90 1.202 . S
O106 U86 2.455 . S
O106 C103 1.301 . S
O107 U86 2.449 . S
O107 C103 1.282 . S
H108 C81 0.931 . S
H109 C83 0.929 . S
H110 C84 0.930 . S
H111 C85 0.931 . S
H112 C92 0.932 . S
H113 C93 0.930 . S
H114 C94 0.929 . S
H115 C96 0.930 . S
H116 C98 0.932 . S
H117 C99 0.929 . S
H118 C100 0.928 . S
H119 C102 0.932 . S
C120 C121 1.264 . S
C120 C125 1.479 . S
C120 C130 1.465 . S
C121 C120 1.264 . S
C121 C123 1.339 . S
C121 H148 0.931 . S
C122 C123 1.395 . S
C122 C124 1.320 . S
C123 C121 1.339 . S
C123 C122 1.395 . S
C123 H149 0.929 . S
C124 C122 1.320 . S
C124 C125 1.405 . S
C124 H150 0.930 . S
C125 C120 1.479 . S
C125 C124 1.405 . S
C125 H151 0.931 . S
U126 O127 2.454 . S
U126 O128 2.458 . S
U126 C129 2.984 . S
U126 C130 2.847 . S
U126 C143 2.882 . S
U126 O144 2.441 . S
U126 O145 2.420 . S
U126 O146 2.455 . S
U126 O147 2.449 . S
O127 U126 2.454 . S
O127 C129 1.353 . S
O128 U126 2.458 . S
O128 C129 1.286 . S
C129 U126 2.984 . S
C129 O127 1.353 . S
C129 O128 1.286 . S
C129 C131 1.363 . S
C130 C120 1.465 . S
C130 U126 2.847 . S
C130 O144 1.249 . S
C130 O145 1.202 . S
C131 C129 1.363 . S
C131 C133 1.408 . S
C131 C136 1.342 . S
C132 C133 1.310 . S
C132 C135 1.461 . S
C132 H152 0.932 . S
C133 C131 1.408 . S
C133 C132 1.310 . S
C133 H153 0.930 . S
C134 C135 1.474 . S
C134 C136 1.285 . S
C134 H154 0.929 . S
C135 C132 1.461 . S
C135 C134 1.474 . S
C136 C131 1.342 . S
C136 C134 1.285 . S
C136 H155 0.930 . S
C137 C140 1.424 . S
C137 C142 1.245 . S
C137 C143 1.428 . S
C138 C141 1.260 . S
C138 C142 1.477 . S
C138 H156 0.932 . S
C139 C140 1.384 . S
C139 C141 1.479 . S
C139 H157 0.929 . S
C140 C137 1.424 . S
C140 C139 1.384 . S
C140 H158 0.928 . S
C141 C138 1.260 . S
C141 C139 1.479 . S
C142 C137 1.245 . S
C142 C138 1.477 . S
C142 H159 0.932 . S
C143 U126 2.882 . S
C143 C137 1.428 . S
C143 O146 1.301 . S
C143 O147 1.282 . S
O144 U126 2.441 . S
O144 C130 1.249 . S
O145 U126 2.420 . S
O145 C130 1.202 . S
O146 U126 2.455 . S
O146 C143 1.301 . S
O147 U126 2.449 . S
O147 C143 1.282 . S
H148 C121 0.931 . S
H149 C123 0.929 . S
H150 C124 0.930 . S
H151 C125 0.931 . S
H152 C132 0.932 . S
H153 C133 0.930 . S
H154 C134 0.929 . S
H155 C136 0.930 . S
H156 C138 0.932 . S
H157 C139 0.929 . S
H158 C140 0.928 . S
H159 C142 0.932 . S
C160 C161 1.264 . S
C160 C165 1.479 . S
C160 C170 1.465 . S
C161 C160 1.264 . S
C161 C163 1.339 . S
C161 H188 0.931 . S
C162 C163 1.395 . S
C162 C164 1.320 . S
C163 C161 1.339 . S
C163 C162 1.395 . S
C163 H189 0.929 . S
C164 C162 1.320 . S
C164 C165 1.405 . S
C164 H190 0.930 . S
C165 C160 1.479 . S
C165 C164 1.405 . S
C165 H191 0.931 . S
U166 O167 2.454 . S
U166 O168 2.458 . S
U166 C169 2.984 . S
U166 C170 2.847 . S
U166 C183 2.882 . S
U166 O184 2.441 . S
U166 O185 2.420 . S
U166 O186 2.455 . S
U166 O187 2.449 . S
O167 U166 2.454 . S
O167 C169 1.353 . S
O168 U166 2.458 . S
O168 C169 1.286 . S
C169 U166 2.984 . S
C169 O167 1.353 . S
C169 O168 1.286 . S
C169 C171 1.363 . S
C170 C160 1.465 . S
C170 U166 2.847 . S
C170 O184 1.249 . S
C170 O185 1.202 . S
C171 C169 1.363 . S
C171 C173 1.408 . S
C171 C176 1.342 . S
C172 C173 1.310 . S
C172 C175 1.461 . S
C172 H192 0.932 . S
C173 C171 1.408 . S
C173 C172 1.310 . S
C173 H193 0.930 . S
C174 C175 1.474 . S
C174 C176 1.285 . S
C174 H194 0.929 . S
C175 C172 1.461 . S
C175 C174 1.474 . S
C176 C171 1.342 . S
C176 C174 1.285 . S
C176 H195 0.930 . S
C177 C180 1.424 . S
C177 C182 1.245 . S
C177 C183 1.428 . S
C178 C181 1.260 . S
C178 C182 1.477 . S
C178 H196 0.932 . S
C179 C180 1.384 . S
C179 C181 1.479 . S
C179 H197 0.929 . S
C180 C177 1.424 . S
C180 C179 1.384 . S
C180 H198 0.928 . S
C181 C178 1.260 . S
C181 C179 1.479 . S
C182 C177 1.245 . S
C182 C178 1.477 . S
C182 H199 0.932 . S
C183 U166 2.882 . S
C183 C177 1.428 . S
C183 O186 1.301 . S
C183 O187 1.282 . S
O184 U166 2.441 . S
O184 C170 1.249 . S
O185 U166 2.420 . S
O185 C170 1.202 . S
O186 U166 2.455 . S
O186 C183 1.301 . S
O187 U166 2.449 . S
O187 C183 1.282 . S
H188 C161 0.931 . S
H189 C163 0.929 . S
H190 C164 0.930 . S
H191 C165 0.931 . S
H192 C172 0.932 . S
H193 C173 0.930 . S
H194 C174 0.929 . S
H195 C176 0.930 . S
H196 C178 0.932 . S
H197 C179 0.929 . S
H198 C180 0.928 . S
H199 C182 0.932 . S
C200 C201 1.264 . S
C200 C205 1.479 . S
C200 C210 1.465 . S
C201 C200 1.264 . S
C201 C203 1.339 . S
C201 H228 0.931 . S
C202 C203 1.395 . S
C202 C204 1.320 . S
C203 C201 1.339 . S
C203 C202 1.395 . S
C203 H229 0.929 . S
C204 C202 1.320 . S
C204 C205 1.405 . S
C204 H230 0.930 . S
C205 C200 1.479 . S
C205 C204 1.405 . S
C205 H231 0.931 . S
U206 O207 2.454 . S
U206 O208 2.458 . S
U206 C209 2.984 . S
U206 C210 2.847 . S
U206 C223 2.882 . S
U206 O224 2.441 . S
U206 O225 2.420 . S
U206 O226 2.455 . S
U206 O227 2.449 . S
O207 U206 2.454 . S
O207 C209 1.353 . S
O208 U206 2.458 . S
O208 C209 1.286 . S
C209 U206 2.984 . S
C209 O207 1.353 . S
C209 O208 1.286 . S
C209 C211 1.363 . S
C210 C200 1.465 . S
C210 U206 2.847 . S
C210 O224 1.249 . S
C210 O225 1.202 . S
C211 C209 1.363 . S
C211 C213 1.408 . S
C211 C216 1.342 . S
C212 C213 1.310 . S
C212 C215 1.461 . S
C212 H232 0.932 . S
C213 C211 1.408 . S
C213 C212 1.310 . S
C213 H233 0.930 . S
C214 C215 1.474 . S
C214 C216 1.285 . S
C214 H234 0.929 . S
C215 C212 1.461 . S
C215 C214 1.474 . S
C216 C211 1.342 . S
C216 C214 1.285 . S
C216 H235 0.930 . S
C217 C220 1.424 . S
C217 C222 1.245 . S
C217 C223 1.428 . S
C218 C221 1.260 . S
C218 C222 1.477 . S
C218 H236 0.932 . S
C219 C220 1.384 . S
C219 C221 1.479 . S
C219 H237 0.929 . S
C220 C217 1.424 . S
C220 C219 1.384 . S
C220 H238 0.928 . S
C221 C218 1.260 . S
C221 C219 1.479 . S
C222 C217 1.245 . S
C222 C218 1.477 . S
C222 H239 0.932 . S
C223 U206 2.882 . S
C223 C217 1.428 . S
C223 O226 1.301 . S
C223 O227 1.282 . S
O224 U206 2.441 . S
O224 C210 1.249 . S
O225 U206 2.420 . S
O225 C210 1.202 . S
O226 U206 2.455 . S
O226 C223 1.301 . S
O227 U206 2.449 . S
O227 C223 1.282 . S
H228 C201 0.931 . S
H229 C203 0.929 . S
H230 C204 0.930 . S
H231 C205 0.931 . S
H232 C212 0.932 . S
H233 C213 0.930 . S
H234 C214 0.929 . S
H235 C216 0.930 . S
H236 C218 0.932 . S
H237 C219 0.929 . S
H238 C220 0.928 . S
H239 C222 0.932 . S
C240 C241 1.264 . S
C240 C245 1.479 . S
C240 C250 1.465 . S
C241 C240 1.264 . S
C241 C243 1.339 . S
C241 H268 0.931 . S
C242 C243 1.395 . S
C242 C244 1.320 . S
C243 C241 1.339 . S
C243 C242 1.395 . S
C243 H269 0.929 . S
C244 C242 1.320 . S
C244 C245 1.405 . S
C244 H270 0.930 . S
C245 C240 1.479 . S
C245 C244 1.405 . S
C245 H271 0.931 . S
U246 O247 2.454 . S
U246 O248 2.458 . S
U246 C249 2.984 . S
U246 C250 2.847 . S
U246 C263 2.882 . S
U246 O264 2.441 . S
U246 O265 2.420 . S
U246 O266 2.455 . S
U246 O267 2.449 . S
O247 U246 2.454 . S
O247 C249 1.353 . S
O248 U246 2.458 . S
O248 C249 1.286 . S
C249 U246 2.984 . S
C249 O247 1.353 . S
C249 O248 1.286 . S
C249 C251 1.363 . S
C250 C240 1.465 . S
C250 U246 2.847 . S
C250 O264 1.249 . S
C250 O265 1.202 . S
C251 C249 1.363 . S
C251 C253 1.408 . S
C251 C256 1.342 . S
C252 C253 1.310 . S
C252 C255 1.461 . S
C252 H272 0.932 . S
C253 C251 1.408 . S
C253 C252 1.310 . S
C253 H273 0.930 . S
C254 C255 1.474 . S
C254 C256 1.285 . S
C254 H274 0.929 . S
C255 C252 1.461 . S
C255 C254 1.474 . S
C256 C251 1.342 . S
C256 C254 1.285 . S
C256 H275 0.930 . S
C257 C260 1.424 . S
C257 C262 1.245 . S
C257 C263 1.428 . S
C258 C261 1.260 . S
C258 C262 1.477 . S
C258 H276 0.932 . S
C259 C260 1.384 . S
C259 C261 1.479 . S
C259 H277 0.929 . S
C260 C257 1.424 . S
C260 C259 1.384 . S
C260 H278 0.928 . S
C261 C258 1.260 . S
C261 C259 1.479 . S
C262 C257 1.245 . S
C262 C258 1.477 . S
C262 H279 0.932 . S
C263 U246 2.882 . S
C263 C257 1.428 . S
C263 O266 1.301 . S
C263 O267 1.282 . S
O264 U246 2.441 . S
O264 C250 1.249 . S
O265 U246 2.420 . S
O265 C250 1.202 . S
O266 U246 2.455 . S
O266 C263 1.301 . S
O267 U246 2.449 . S
O267 C263 1.282 . S
H268 C241 0.931 . S
H269 C243 0.929 . S
H270 C244 0.930 . S
H271 C245 0.931 . S
H272 C252 0.932 . S
H273 C253 0.930 . S
H274 C254 0.929 . S
H275 C256 0.930 . S
H276 C258 0.932 . S
H277 C259 0.929 . S
H278 C260 0.928 . S
H279 C262 0.932 . S
C280 C281 1.264 . S
C280 C285 1.479 . S
C280 C290 1.465 . S
C281 C280 1.264 . S
C281 C283 1.339 . S
C281 H308 0.931 . S
C282 C283 1.395 . S
C282 C284 1.320 . S
C283 C281 1.339 . S
C283 C282 1.395 . S
C283 H309 0.929 . S
C284 C282 1.320 . S
C284 C285 1.405 . S
C284 H310 0.930 . S
C285 C280 1.479 . S
C285 C284 1.405 . S
C285 H311 0.931 . S
U286 O287 2.454 . S
U286 O288 2.458 . S
U286 C289 2.984 . S
U286 C290 2.847 . S
U286 C303 2.882 . S
U286 O304 2.441 . S
U286 O305 2.420 . S
U286 O306 2.455 . S
U286 O307 2.449 . S
O287 U286 2.454 . S
O287 C289 1.353 . S
O288 U286 2.458 . S
O288 C289 1.286 . S
C289 U286 2.984 . S
C289 O287 1.353 . S
C289 O288 1.286 . S
C289 C291 1.363 . S
C290 C280 1.465 . S
C290 U286 2.847 . S
C290 O304 1.249 . S
C290 O305 1.202 . S
C291 C289 1.363 . S
C291 C293 1.408 . S
C291 C296 1.342 . S
C292 C293 1.310 . S
C292 C295 1.461 . S
C292 H312 0.932 . S
C293 C291 1.408 . S
C293 C292 1.310 . S
C293 H313 0.930 . S
C294 C295 1.474 . S
C294 C296 1.285 . S
C294 H314 0.929 . S
C295 C292 1.461 . S
C295 C294 1.474 . S
C296 C291 1.342 . S
C296 C294 1.285 . S
C296 H315 0.930 . S
C297 C300 1.424 . S
C297 C302 1.245 . S
C297 C303 1.428 . S
C298 C301 1.260 . S
C298 C302 1.477 . S
C298 H316 0.932 . S
C299 C300 1.384 . S
C299 C301 1.479 . S
C299 H317 0.929 . S
C300 C297 1.424 . S
C300 C299 1.384 . S
C300 H318 0.928 . S
C301 C298 1.260 . S
C301 C299 1.479 . S
C302 C297 1.245 . S
C302 C298 1.477 . S
C302 H319 0.932 . S
C303 U286 2.882 . S
C303 C297 1.428 . S
C303 O306 1.301 . S
C303 O307 1.282 . S
O304 U286 2.441 . S
O304 C290 1.249 . S
O305 U286 2.420 . S
O305 C290 1.202 . S
O306 U286 2.455 . S
O306 C303 1.301 . S
O307 U286 2.449 . S
O307 C303 1.282 . S
H308 C281 0.931 . S
H309 C283 0.929 . S
H310 C284 0.930 . S
H311 C285 0.931 . S
H312 C292 0.932 . S
H313 C293 0.930 . S
H314 C294 0.929 . S
H315 C296 0.930 . S
H316 C298 0.932 . S
H317 C299 0.929 . S
H318 C300 0.928 . S
H319 C302 0.932 . S
Co320 O323 2.042 . S
Co320 O330 2.264 . S
Co320 O349 2.286 . S
Co320 O350 2.069 . S
Co320 O352 2.015 . S
Co321 O323 2.122 . S
Co321 O329 2.073 . S
Co321 O330 2.327 . S
Co321 O331 1.976 . S
Co322 O323 2.087 . S
Co322 O325 2.087 1_455 S
Co322 O332 2.111 . S
Co322 O333 2.143 1_455 S
Co322 O337 2.111 1_455 S
Co322 O351 2.143 . S
O323 Co320 2.042 . S
O323 Co321 2.122 . S
O323 Co322 2.087 . S
O323 H324 0.980 . S
H324 O323 0.980 . S
O325 Co322 2.087 1_655 S
O325 Co326 2.042 . S
O325 Co327 2.122 . S
O325 H328 0.980 . S
Co326 O325 2.042 . S
Co326 O334 2.286 . S
Co326 O335 2.069 . S
Co326 O336 2.015 . S
Co326 O339 2.264 . S
Co327 O325 2.122 . S
Co327 O338 1.976 . S
Co327 O339 2.327 . S
Co327 O340 2.073 . S
H328 O325 0.980 . S
O329 Co321 2.073 . S
O329 C344 1.245 . S
O330 Co320 2.264 . S
O330 Co321 2.327 . S
O330 C344 1.257 . S
O331 Co321 1.976 . S
O331 C343 1.251 . S
O332 Co322 2.111 . S
O332 C343 1.274 . S
O333 Co322 2.143 1_655 S
O333 C346 1.246 . S
O334 Co326 2.286 . S
O334 C345 1.259 . S
O335 Co326 2.069 . S
O335 C345 1.289 . S
O336 Co326 2.015 . S
O336 C346 1.257 . S
O337 Co322 2.111 1_655 S
O337 C347 1.274 . S
O338 Co327 1.976 . S
O338 C347 1.251 . S
O339 Co326 2.264 . S
O339 Co327 2.327 . S
O339 C348 1.257 . S
O340 Co327 2.073 . S
O340 C348 1.245 . S
C341 O349 1.259 . S
C341 O350 1.289 . S
C342 O351 1.246 . S
C342 O352 1.257 . S
C343 O331 1.251 . S
C343 O332 1.274 . S
C344 O329 1.245 . S
C344 O330 1.257 . S
C345 O334 1.259 . S
C345 O335 1.289 . S
C346 O333 1.246 . S
C346 O336 1.257 . S
C347 O337 1.274 . S
C347 O338 1.251 . S
C348 O339 1.257 . S
C348 O340 1.245 . S
O349 Co320 2.286 . S
O349 C341 1.259 . S
O350 Co320 2.069 . S
O350 C341 1.289 . S
O351 Co322 2.143 . S
O351 C342 1.246 . S
O352 Co320 2.015 . S
O352 C342 1.257 . S
Co353 O356 2.042 . S
Co353 O363 2.264 . S
Co353 O382 2.286 . S
Co353 O383 2.069 . S
Co353 O385 2.015 . S
Co354 O356 2.122 . S
Co354 O362 2.073 . S
Co354 O363 2.327 . S
Co354 O364 1.976 . S
Co355 O356 2.087 1_545 S
Co355 O358 2.087 . S
Co355 O365 2.111 1_545 S
Co355 O366 2.143 . S
Co355 O370 2.111 . S
Co355 O384 2.143 1_545 S
O356 Co353 2.042 . S
O356 Co354 2.122 . S
O356 Co355 2.087 1_565 S
O356 H357 0.980 . S
H357 O356 0.980 . S
O358 Co355 2.087 . S
O358 Co359 2.042 . S
O358 Co360 2.122 . S
O358 H361 0.980 . S
Co359 O358 2.042 . S
Co359 O367 2.286 . S
Co359 O368 2.069 . S
Co359 O369 2.015 . S
Co359 O372 2.264 . S
Co360 O358 2.122 . S
Co360 O371 1.976 . S
Co360 O372 2.327 . S
Co360 O373 2.073 . S
H361 O358 0.980 . S
O362 Co354 2.073 . S
O362 C377 1.245 . S
O363 Co353 2.264 . S
O363 Co354 2.327 . S
O363 C377 1.257 . S
O364 Co354 1.976 . S
O364 C376 1.251 . S
O365 Co355 2.111 1_565 S
O365 C376 1.274 . S
O366 Co355 2.143 . S
O366 C379 1.246 . S
O367 Co359 2.286 . S
O367 C378 1.259 . S
O368 Co359 2.069 . S
O368 C378 1.289 . S
O369 Co359 2.015 . S
O369 C379 1.257 . S
O370 Co355 2.111 . S
O370 C380 1.274 . S
O371 Co360 1.976 . S
O371 C380 1.251 . S
O372 Co359 2.264 . S
O372 Co360 2.327 . S
O372 C381 1.257 . S
O373 Co360 2.073 . S
O373 C381 1.245 . S
C374 O382 1.259 . S
C374 O383 1.289 . S
C375 O384 1.246 . S
C375 O385 1.257 . S
C376 O364 1.251 . S
C376 O365 1.274 . S
C377 O362 1.245 . S
C377 O363 1.257 . S
C378 O367 1.259 . S
C378 O368 1.289 . S
C379 O366 1.246 . S
C379 O369 1.257 . S
C380 O370 1.274 . S
C380 O371 1.251 . S
C381 O372 1.257 . S
C381 O373 1.245 . S
O382 Co353 2.286 . S
O382 C374 1.259 . S
O383 Co353 2.069 . S
O383 C374 1.289 . S
O384 Co355 2.143 1_565 S
O384 C375 1.246 . S
O385 Co353 2.015 . S
O385 C375 1.257 . S
Co386 O389 2.042 . S
Co386 O396 2.264 . S
Co386 O415 2.286 . S
Co386 O416 2.069 . S
Co386 O418 2.015 . S
Co387 O389 2.122 . S
Co387 O395 2.073 . S
Co387 O396 2.327 . S
Co387 O397 1.976 . S
Co388 O389 2.087 . S
Co388 O391 2.087 1_554 S
Co388 O398 2.111 . S
Co388 O399 2.143 1_554 S
Co388 O403 2.111 1_554 S
Co388 O417 2.143 . S
O389 Co386 2.042 . S
O389 Co387 2.122 . S
O389 Co388 2.087 . S
O389 H390 0.980 . S
H390 O389 0.980 . S
O391 Co388 2.087 1_556 S
O391 Co392 2.042 . S
O391 Co393 2.122 . S
O391 H394 0.980 . S
Co392 O391 2.042 . S
Co392 O400 2.286 . S
Co392 O401 2.069 . S
Co392 O402 2.015 . S
Co392 O405 2.264 . S
Co393 O391 2.122 . S
Co393 O404 1.976 . S
Co393 O405 2.327 . S
Co393 O406 2.073 . S
H394 O391 0.980 . S
O395 Co387 2.073 . S
O395 C410 1.245 . S
O396 Co386 2.264 . S
O396 Co387 2.327 . S
O396 C410 1.257 . S
O397 Co387 1.976 . S
O397 C409 1.251 . S
O398 Co388 2.111 . S
O398 C409 1.274 . S
O399 Co388 2.143 1_556 S
O399 C412 1.246 . S
O400 Co392 2.286 . S
O400 C411 1.259 . S
O401 Co392 2.069 . S
O401 C411 1.289 . S
O402 Co392 2.015 . S
O402 C412 1.257 . S
O403 Co388 2.111 1_556 S
O403 C413 1.274 . S
O404 Co393 1.976 . S
O404 C413 1.251 . S
O405 Co392 2.264 . S
O405 Co393 2.327 . S
O405 C414 1.257 . S
O406 Co393 2.073 . S
O406 C414 1.245 . S
C407 O415 1.259 . S
C407 O416 1.289 . S
C408 O417 1.246 . S
C408 O418 1.257 . S
C409 O397 1.251 . S
C409 O398 1.274 . S
C410 O395 1.245 . S
C410 O396 1.257 . S
C411 O400 1.259 . S
C411 O401 1.289 . S
C412 O399 1.246 . S
C412 O402 1.257 . S
C413 O403 1.274 . S
C413 O404 1.251 . S
C414 O405 1.257 . S
C414 O406 1.245 . S
O415 Co386 2.286 . S
O415 C407 1.259 . S
O416 Co386 2.069 . S
O416 C407 1.289 . S
O417 Co388 2.143 . S
O417 C408 1.246 . S
O418 Co386 2.015 . S
O418 C408 1.257 . S
H419 C427 0.929 . S
H420 C429 0.930 . S
H421 C431 0.930 . S
H422 C434 0.929 . S
H423 C437 0.930 . S
H424 C439 0.960 . S
H425 C439 0.960 . S
H426 C439 0.960 . S
C427 H419 0.929 . S
C427 C428 1.377 . S
C427 C429 1.384 . S
C428 C427 1.377 . S
C428 C434 1.390 . S
C429 H420 0.930 . S
C429 C427 1.384 . S
C429 C430 1.372 . S
C430 C429 1.372 . S
C430 C431 1.400 . S
C430 C435 1.490 . S
C431 H421 0.930 . S
C431 C430 1.400 . S
C431 C434 1.386 . S
H432 C448 0.930 . S
H433 C449 0.931 . S
C434 H422 0.929 . S
C434 C428 1.390 . S
C434 C431 1.386 . S
C435 C430 1.490 . S
C435 C437 1.395 . S
C435 C438 1.403 . S
H436 C442 0.930 . S
C437 H423 0.930 . S
C437 C435 1.395 . S
C437 C440 1.403 . S
C438 C435 1.403 . S
C438 C439 1.524 . S
C438 C442 1.400 . S
C439 H424 0.960 . S
C439 H425 0.960 . S
C439 H426 0.960 . S
C439 C438 1.524 . S
C440 C437 1.403 . S
C440 C441 1.392 . S
C440 C444 1.495 . S
C441 C440 1.392 . S
C441 C442 1.385 . S
C441 C443 1.478 . S
C442 H436 0.930 . S
C442 C438 1.400 . S
C442 C441 1.385 . S
C443 C441 1.478 . S
C443 C445 1.381 . S
C443 C449 1.383 . S
C444 C440 1.495 . S
C444 H450 0.959 . S
C444 H451 0.961 . S
C444 H452 0.960 . S
C445 C443 1.381 . S
C445 C446 1.394 . S
C445 H453 0.930 . S
C446 C445 1.394 . S
C446 C447 1.383 . S
C446 H454 0.929 . S
C447 C446 1.383 . S
C447 C448 1.377 . S
C448 H432 0.930 . S
C448 C447 1.377 . S
C448 C449 1.379 . S
C449 H433 0.931 . S
C449 C443 1.383 . S
C449 C448 1.379 . S
H450 C444 0.959 . S
H451 C444 0.961 . S
H452 C444 0.960 . S
H453 C445 0.930 . S
H454 C446 0.929 . S
H455 C463 0.929 . S
H456 C465 0.930 . S
H457 C467 0.930 . S
H458 C470 0.929 . S
H459 C473 0.930 . S
H460 C475 0.960 . S
H461 C475 0.960 . S
H462 C475 0.960 . S
C463 H455 0.929 . S
C463 C464 1.377 . S
C463 C465 1.384 . S
C464 C463 1.377 . S
C464 C470 1.390 . S
C465 H456 0.930 . S
C465 C463 1.384 . S
C465 C466 1.372 . S
C466 C465 1.372 . S
C466 C467 1.400 . S
C466 C471 1.490 . S
C467 H457 0.930 . S
C467 C466 1.400 . S
C467 C470 1.386 . S
H468 C484 0.930 . S
H469 C485 0.931 . S
C470 H458 0.929 . S
C470 C464 1.390 . S
C470 C467 1.386 . S
C471 C466 1.490 . S
C471 C473 1.395 . S
C471 C474 1.403 . S
H472 C478 0.930 . S
C473 H459 0.930 . S
C473 C471 1.395 . S
C473 C476 1.403 . S
C474 C471 1.403 . S
C474 C475 1.524 . S
C474 C478 1.400 . S
C475 H460 0.960 . S
C475 H461 0.960 . S
C475 H462 0.960 . S
C475 C474 1.524 . S
C476 C473 1.403 . S
C476 C477 1.392 . S
C476 C480 1.495 . S
C477 C476 1.392 . S
C477 C478 1.385 . S
C477 C479 1.478 . S
C478 H472 0.930 . S
C478 C474 1.400 . S
C478 C477 1.385 . S
C479 C477 1.478 . S
C479 C481 1.381 . S
C479 C485 1.383 . S
C480 C476 1.495 . S
C480 H486 0.959 . S
C480 H487 0.961 . S
C480 H488 0.960 . S
C481 C479 1.381 . S
C481 C482 1.394 . S
C481 H489 0.930 . S
C482 C481 1.394 . S
C482 C483 1.383 . S
C482 H490 0.929 . S
C483 C482 1.383 . S
C483 C484 1.377 . S
C484 H468 0.930 . S
C484 C483 1.377 . S
C484 C485 1.379 . S
C485 H469 0.931 . S
C485 C479 1.383 . S
C485 C484 1.379 . S
H486 C480 0.959 . S
H487 C480 0.961 . S
H488 C480 0.960 . S
H489 C481 0.930 . S
H490 C482 0.929 . S
H491 C499 0.929 . S
H492 C501 0.930 . S
H493 C503 0.930 . S
H494 C506 0.929 . S
H495 C509 0.930 . S
H496 C511 0.960 . S
H497 C511 0.960 . S
H498 C511 0.960 . S
C499 H491 0.929 . S
C499 C500 1.377 . S
C499 C501 1.384 . S
C500 C499 1.377 . S
C500 C506 1.390 . S
C501 H492 0.930 . S
C501 C499 1.384 . S
C501 C502 1.372 . S
C502 C501 1.372 . S
C502 C503 1.400 . S
C502 C507 1.490 . S
C503 H493 0.930 . S
C503 C502 1.400 . S
C503 C506 1.386 . S
H504 C520 0.930 . S
H505 C521 0.931 . S
C506 H494 0.929 . S
C506 C500 1.390 . S
C506 C503 1.386 . S
C507 C502 1.490 . S
C507 C509 1.395 . S
C507 C510 1.403 . S
H508 C514 0.930 . S
C509 H495 0.930 . S
C509 C507 1.395 . S
C509 C512 1.403 . S
C510 C507 1.403 . S
C510 C511 1.524 . S
C510 C514 1.400 . S
C511 H496 0.960 . S
C511 H497 0.960 . S
C511 H498 0.960 . S
C511 C510 1.524 . S
C512 C509 1.403 . S
C512 C513 1.392 . S
C512 C516 1.495 . S
C513 C512 1.392 . S
C513 C514 1.385 . S
C513 C515 1.478 . S
C514 H508 0.930 . S
C514 C510 1.400 . S
C514 C513 1.385 . S
C515 C513 1.478 . S
C515 C517 1.381 . S
C515 C521 1.383 . S
C516 C512 1.495 . S
C516 H522 0.959 . S
C516 H523 0.961 . S
C516 H524 0.960 . S
C517 C515 1.381 . S
C517 C518 1.394 . S
C517 H525 0.930 . S
C518 C517 1.394 . S
C518 C519 1.383 . S
C518 H526 0.929 . S
C519 C518 1.383 . S
C519 C520 1.377 . S
C520 H504 0.930 . S
C520 C519 1.377 . S
C520 C521 1.379 . S
C521 H505 0.931 . S
C521 C515 1.383 . S
C521 C520 1.379 . S
H522 C516 0.959 . S
H523 C516 0.961 . S
H524 C516 0.960 . S
H525 C517 0.930 . S
H526 C518 0.929 . S
H527 C535 0.929 . S
H528 C537 0.930 . S
H529 C539 0.930 . S
H530 C542 0.929 . S
H531 C545 0.930 . S
H532 C547 0.960 . S
H533 C547 0.960 . S
H534 C547 0.960 . S
C535 H527 0.929 . S
C535 C536 1.377 . S
C535 C537 1.384 . S
C536 C535 1.377 . S
C536 C542 1.390 . S
C537 H528 0.930 . S
C537 C535 1.384 . S
C537 C538 1.372 . S
C538 C537 1.372 . S
C538 C539 1.400 . S
C538 C543 1.490 . S
C539 H529 0.930 . S
C539 C538 1.400 . S
C539 C542 1.386 . S
H540 C556 0.930 . S
H541 C557 0.931 . S
C542 H530 0.929 . S
C542 C536 1.390 . S
C542 C539 1.386 . S
C543 C538 1.490 . S
C543 C545 1.395 . S
C543 C546 1.403 . S
H544 C550 0.930 . S
C545 H531 0.930 . S
C545 C543 1.395 . S
C545 C548 1.403 . S
C546 C543 1.403 . S
C546 C547 1.524 . S
C546 C550 1.400 . S
C547 H532 0.960 . S
C547 H533 0.960 . S
C547 H534 0.960 . S
C547 C546 1.524 . S
C548 C545 1.403 . S
C548 C549 1.392 . S
C548 C552 1.495 . S
C549 C548 1.392 . S
C549 C550 1.385 . S
C549 C551 1.478 . S
C550 H544 0.930 . S
C550 C546 1.400 . S
C550 C549 1.385 . S
C551 C549 1.478 . S
C551 C553 1.381 . S
C551 C557 1.383 . S
C552 C548 1.495 . S
C552 H558 0.959 . S
C552 H559 0.961 . S
C552 H560 0.960 . S
C553 C551 1.381 . S
C553 C554 1.394 . S
C553 H561 0.930 . S
C554 C553 1.394 . S
C554 C555 1.383 . S
C554 H562 0.929 . S
C555 C554 1.383 . S
C555 C556 1.377 . S
C556 H540 0.930 . S
C556 C555 1.377 . S
C556 C557 1.379 . S
C557 H541 0.931 . S
C557 C551 1.383 . S
C557 C556 1.379 . S
H558 C552 0.959 . S
H559 C552 0.961 . S
H560 C552 0.960 . S
H561 C553 0.930 . S
H562 C554 0.929 . S
H563 C571 0.929 . S
H564 C573 0.930 . S
H565 C575 0.930 . S
H566 C578 0.929 . S
H567 C581 0.930 . S
H568 C583 0.960 . S
H569 C583 0.960 . S
H570 C583 0.960 . S
C571 H563 0.929 . S
C571 C572 1.377 . S
C571 C573 1.384 . S
C572 C571 1.377 . S
C572 C578 1.390 . S
C573 H564 0.930 . S
C573 C571 1.384 . S
C573 C574 1.372 . S
C574 C573 1.372 . S
C574 C575 1.400 . S
C574 C579 1.490 . S
C575 H565 0.930 . S
C575 C574 1.400 . S
C575 C578 1.386 . S
H576 C592 0.930 . S
H577 C593 0.931 . S
C578 H566 0.929 . S
C578 C572 1.390 . S
C578 C575 1.386 . S
C579 C574 1.490 . S
C579 C581 1.395 . S
C579 C582 1.403 . S
H580 C586 0.930 . S
C581 H567 0.930 . S
C581 C579 1.395 . S
C581 C584 1.403 . S
C582 C579 1.403 . S
C582 C583 1.524 . S
C582 C586 1.400 . S
C583 H568 0.960 . S
C583 H569 0.960 . S
C583 H570 0.960 . S
C583 C582 1.524 . S
C584 C581 1.403 . S
C584 C585 1.392 . S
C584 C588 1.495 . S
C585 C584 1.392 . S
C585 C586 1.385 . S
C585 C587 1.478 . S
C586 H580 0.930 . S
C586 C582 1.400 . S
C586 C585 1.385 . S
C587 C585 1.478 . S
C587 C589 1.381 . S
C587 C593 1.383 . S
C588 C584 1.495 . S
C588 H594 0.959 . S
C588 H595 0.961 . S
C588 H596 0.960 . S
C589 C587 1.381 . S
C589 C590 1.394 . S
C589 H597 0.930 . S
C590 C589 1.394 . S
C590 C591 1.383 . S
C590 H598 0.929 . S
C591 C590 1.383 . S
C591 C592 1.377 . S
C592 H576 0.930 . S
C592 C591 1.377 . S
C592 C593 1.379 . S
C593 H577 0.931 . S
C593 C587 1.383 . S
C593 C592 1.379 . S
H594 C588 0.959 . S
H595 C588 0.961 . S
H596 C588 0.960 . S
H597 C589 0.930 . S
H598 C590 0.929 . S
H599 C607 0.929 . S
H600 C609 0.930 . S
H601 C611 0.930 . S
H602 C614 0.929 . S
H603 C617 0.930 . S
H604 C619 0.960 . S
H605 C619 0.960 . S
H606 C619 0.960 . S
C607 H599 0.929 . S
C607 C608 1.377 . S
C607 C609 1.384 . S
C608 C607 1.377 . S
C608 C614 1.390 . S
C609 H600 0.930 . S
C609 C607 1.384 . S
C609 C610 1.372 . S
C610 C609 1.372 . S
C610 C611 1.400 . S
C610 C615 1.490 . S
C611 H601 0.930 . S
C611 C610 1.400 . S
C611 C614 1.386 . S
H612 C628 0.930 . S
H613 C629 0.931 . S
C614 H602 0.929 . S
C614 C608 1.390 . S
C614 C611 1.386 . S
C615 C610 1.490 . S
C615 C617 1.395 . S
C615 C618 1.403 . S
H616 C622 0.930 . S
C617 H603 0.930 . S
C617 C615 1.395 . S
C617 C620 1.403 . S
C618 C615 1.403 . S
C618 C619 1.524 . S
C618 C622 1.400 . S
C619 H604 0.960 . S
C619 H605 0.960 . S
C619 H606 0.960 . S
C619 C618 1.524 . S
C620 C617 1.403 . S
C620 C621 1.392 . S
C620 C624 1.495 . S
C621 C620 1.392 . S
C621 C622 1.385 . S
C621 C623 1.478 . S
C622 H616 0.930 . S
C622 C618 1.400 . S
C622 C621 1.385 . S
C623 C621 1.478 . S
C623 C625 1.381 . S
C623 C629 1.383 . S
C624 C620 1.495 . S
C624 H630 0.959 . S
C624 H631 0.961 . S
C624 H632 0.960 . S
C625 C623 1.381 . S
C625 C626 1.394 . S
C625 H633 0.930 . S
C626 C625 1.394 . S
C626 C627 1.383 . S
C626 H634 0.929 . S
C627 C626 1.383 . S
C627 C628 1.377 . S
C628 H612 0.930 . S
C628 C627 1.377 . S
C628 C629 1.379 . S
C629 H613 0.931 . S
C629 C623 1.383 . S
C629 C628 1.379 . S
H630 C624 0.959 . S
H631 C624 0.961 . S
H632 C624 0.960 . S
H633 C625 0.930 . S
H634 C626 0.929 . S
H635 C643 0.929 . S
H636 C645 0.930 . S
H637 C647 0.930 . S
H638 C650 0.929 . S
H639 C653 0.930 . S
H640 C655 0.960 . S
H641 C655 0.960 . S
H642 C655 0.960 . S
C643 H635 0.929 . S
C643 C644 1.377 . S
C643 C645 1.384 . S
C644 C643 1.377 . S
C644 C650 1.390 . S
C645 H636 0.930 . S
C645 C643 1.384 . S
C645 C646 1.372 . S
C646 C645 1.372 . S
C646 C647 1.400 . S
C646 C651 1.490 . S
C647 H637 0.930 . S
C647 C646 1.400 . S
C647 C650 1.386 . S
H648 C664 0.930 . S
H649 C665 0.931 . S
C650 H638 0.929 . S
C650 C644 1.390 . S
C650 C647 1.386 . S
C651 C646 1.490 . S
C651 C653 1.395 . S
C651 C654 1.403 . S
H652 C658 0.930 . S
C653 H639 0.930 . S
C653 C651 1.395 . S
C653 C656 1.403 . S
C654 C651 1.403 . S
C654 C655 1.524 . S
C654 C658 1.400 . S
C655 H640 0.960 . S
C655 H641 0.960 . S
C655 H642 0.960 . S
C655 C654 1.524 . S
C656 C653 1.403 . S
C656 C657 1.392 . S
C656 C660 1.495 . S
C657 C656 1.392 . S
C657 C658 1.385 . S
C657 C659 1.478 . S
C658 H652 0.930 . S
C658 C654 1.400 . S
C658 C657 1.385 . S
C659 C657 1.478 . S
C659 C661 1.381 . S
C659 C665 1.383 . S
C660 C656 1.495 . S
C660 H666 0.959 . S
C660 H667 0.961 . S
C660 H668 0.960 . S
C661 C659 1.381 . S
C661 C662 1.394 . S
C661 H669 0.930 . S
C662 C661 1.394 . S
C662 C663 1.383 . S
C662 H670 0.929 . S
C663 C662 1.383 . S
C663 C664 1.377 . S
C664 H648 0.930 . S
C664 C663 1.377 . S
C664 C665 1.379 . S
C665 H649 0.931 . S
C665 C659 1.383 . S
C665 C664 1.379 . S
H666 C660 0.959 . S
H667 C660 0.961 . S
H668 C660 0.960 . S
H669 C661 0.930 . S
H670 C662 0.929 . S
H671 C679 0.929 . S
H672 C681 0.930 . S
H673 C683 0.930 . S
H674 C686 0.929 . S
H675 C689 0.930 . S
H676 C691 0.960 . S
H677 C691 0.960 . S
H678 C691 0.960 . S
C679 H671 0.929 . S
C679 C680 1.377 . S
C679 C681 1.384 . S
C680 C679 1.377 . S
C680 C686 1.390 . S
C681 H672 0.930 . S
C681 C679 1.384 . S
C681 C682 1.372 . S
C682 C681 1.372 . S
C682 C683 1.400 . S
C682 C687 1.490 . S
C683 H673 0.930 . S
C683 C682 1.400 . S
C683 C686 1.386 . S
H684 C700 0.930 . S
H685 C701 0.931 . S
C686 H674 0.929 . S
C686 C680 1.390 . S
C686 C683 1.386 . S
C687 C682 1.490 . S
C687 C689 1.395 . S
C687 C690 1.403 . S
H688 C694 0.930 . S
C689 H675 0.930 . S
C689 C687 1.395 . S
C689 C692 1.403 . S
C690 C687 1.403 . S
C690 C691 1.524 . S
C690 C694 1.400 . S
C691 H676 0.960 . S
C691 H677 0.960 . S
C691 H678 0.960 . S
C691 C690 1.524 . S
C692 C689 1.403 . S
C692 C693 1.392 . S
C692 C696 1.495 . S
C693 C692 1.392 . S
C693 C694 1.385 . S
C693 C695 1.478 . S
C694 H688 0.930 . S
C694 C690 1.400 . S
C694 C693 1.385 . S
C695 C693 1.478 . S
C695 C697 1.381 . S
C695 C701 1.383 . S
C696 C692 1.495 . S
C696 H702 0.959 . S
C696 H703 0.961 . S
C696 H704 0.960 . S
C697 C695 1.381 . S
C697 C698 1.394 . S
C697 H705 0.930 . S
C698 C697 1.394 . S
C698 C699 1.383 . S
C698 H706 0.929 . S
C699 C698 1.383 . S
C699 C700 1.377 . S
C700 H684 0.930 . S
C700 C699 1.377 . S
C700 C701 1.379 . S
C701 H685 0.931 . S
C701 C695 1.383 . S
C701 C700 1.379 . S
H702 C696 0.959 . S
H703 C696 0.961 . S
H704 C696 0.960 . S
H705 C697 0.930 . S
H706 C698 0.929 . S
H707 C715 0.929 . S
H708 C717 0.930 . S
H709 C719 0.930 . S
H710 C722 0.929 . S
H711 C725 0.930 . S
H712 C727 0.960 . S
H713 C727 0.960 . S
H714 C727 0.960 . S
C715 H707 0.929 . S
C715 C716 1.377 . S
C715 C717 1.384 . S
C716 C715 1.377 . S
C716 C722 1.390 . S
C717 H708 0.930 . S
C717 C715 1.384 . S
C717 C718 1.372 . S
C718 C717 1.372 . S
C718 C719 1.400 . S
C718 C723 1.490 . S
C719 H709 0.930 . S
C719 C718 1.400 . S
C719 C722 1.386 . S
H720 C736 0.930 . S
H721 C737 0.931 . S
C722 H710 0.929 . S
C722 C716 1.390 . S
C722 C719 1.386 . S
C723 C718 1.490 . S
C723 C725 1.395 . S
C723 C726 1.403 . S
H724 C730 0.930 . S
C725 H711 0.930 . S
C725 C723 1.395 . S
C725 C728 1.403 . S
C726 C723 1.403 . S
C726 C727 1.524 . S
C726 C730 1.400 . S
C727 H712 0.960 . S
C727 H713 0.960 . S
C727 H714 0.960 . S
C727 C726 1.524 . S
C728 C725 1.403 . S
C728 C729 1.392 . S
C728 C732 1.495 . S
C729 C728 1.392 . S
C729 C730 1.385 . S
C729 C731 1.478 . S
C730 H724 0.930 . S
C730 C726 1.400 . S
C730 C729 1.385 . S
C731 C729 1.478 . S
C731 C733 1.381 . S
C731 C737 1.383 . S
C732 C728 1.495 . S
C732 H738 0.959 . S
C732 H739 0.961 . S
C732 H740 0.960 . S
C733 C731 1.381 . S
C733 C734 1.394 . S
C733 H741 0.930 . S
C734 C733 1.394 . S
C734 C735 1.383 . S
C734 H742 0.929 . S
C735 C734 1.383 . S
C735 C736 1.377 . S
C736 H720 0.930 . S
C736 C735 1.377 . S
C736 C737 1.379 . S
C737 H721 0.931 . S
C737 C731 1.383 . S
C737 C736 1.379 . S
H738 C732 0.959 . S
H739 C732 0.961 . S
H740 C732 0.960 . S
H741 C733 0.930 . S
H742 C734 0.929 . S
H743 C751 0.929 . S
H744 C753 0.930 . S
H745 C755 0.930 . S
H746 C758 0.929 . S
H747 C761 0.930 . S
H748 C763 0.960 . S
H749 C763 0.960 . S
H750 C763 0.960 . S
C751 H743 0.929 . S
C751 C752 1.377 . S
C751 C753 1.384 . S
C752 C751 1.377 . S
C752 C758 1.390 . S
C753 H744 0.930 . S
C753 C751 1.384 . S
C753 C754 1.372 . S
C754 C753 1.372 . S
C754 C755 1.400 . S
C754 C759 1.490 . S
C755 H745 0.930 . S
C755 C754 1.400 . S
C755 C758 1.386 . S
H756 C772 0.930 . S
H757 C773 0.931 . S
C758 H746 0.929 . S
C758 C752 1.390 . S
C758 C755 1.386 . S
C759 C754 1.490 . S
C759 C761 1.395 . S
C759 C762 1.403 . S
H760 C766 0.930 . S
C761 H747 0.930 . S
C761 C759 1.395 . S
C761 C764 1.403 . S
C762 C759 1.403 . S
C762 C763 1.524 . S
C762 C766 1.400 . S
C763 H748 0.960 . S
C763 H749 0.960 . S
C763 H750 0.960 . S
C763 C762 1.524 . S
C764 C761 1.403 . S
C764 C765 1.392 . S
C764 C768 1.495 . S
C765 C764 1.392 . S
C765 C766 1.385 . S
C765 C767 1.478 . S
C766 H760 0.930 . S
C766 C762 1.400 . S
C766 C765 1.385 . S
C767 C765 1.478 . S
C767 C769 1.381 . S
C767 C773 1.383 . S
C768 C764 1.495 . S
C768 H774 0.959 . S
C768 H775 0.961 . S
C768 H776 0.960 . S
C769 C767 1.381 . S
C769 C770 1.394 . S
C769 H777 0.930 . S
C770 C769 1.394 . S
C770 C771 1.383 . S
C770 H778 0.929 . S
C771 C770 1.383 . S
C771 C772 1.377 . S
C772 H756 0.930 . S
C772 C771 1.377 . S
C772 C773 1.379 . S
C773 H757 0.931 . S
C773 C767 1.383 . S
C773 C772 1.379 . S
H774 C768 0.959 . S
H775 C768 0.961 . S
H776 C768 0.960 . S
H777 C769 0.930 . S
H778 C770 0.929 . S
H779 C787 0.929 . S
H780 C789 0.930 . S
H781 C791 0.930 . S
H782 C794 0.929 . S
H783 C797 0.930 . S
H784 C799 0.960 . S
H785 C799 0.960 . S
H786 C799 0.960 . S
C787 H779 0.929 . S
C787 C788 1.377 . S
C787 C789 1.384 . S
C788 C787 1.377 . S
C788 C794 1.390 . S
C789 H780 0.930 . S
C789 C787 1.384 . S
C789 C790 1.372 . S
C790 C789 1.372 . S
C790 C791 1.400 . S
C790 C795 1.490 . S
C791 H781 0.930 . S
C791 C790 1.400 . S
C791 C794 1.386 . S
H792 C808 0.930 . S
H793 C809 0.931 . S
C794 H782 0.929 . S
C794 C788 1.390 . S
C794 C791 1.386 . S
C795 C790 1.490 . S
C795 C797 1.395 . S
C795 C798 1.403 . S
H796 C802 0.930 . S
C797 H783 0.930 . S
C797 C795 1.395 . S
C797 C800 1.403 . S
C798 C795 1.403 . S
C798 C799 1.524 . S
C798 C802 1.400 . S
C799 H784 0.960 . S
C799 H785 0.960 . S
C799 H786 0.960 . S
C799 C798 1.524 . S
C800 C797 1.403 . S
C800 C801 1.392 . S
C800 C804 1.495 . S
C801 C800 1.392 . S
C801 C802 1.385 . S
C801 C803 1.478 . S
C802 H796 0.930 . S
C802 C798 1.400 . S
C802 C801 1.385 . S
C803 C801 1.478 . S
C803 C805 1.381 . S
C803 C809 1.383 . S
C804 C800 1.495 . S
C804 H810 0.959 . S
C804 H811 0.961 . S
C804 H812 0.960 . S
C805 C803 1.381 . S
C805 C806 1.394 . S
C805 H813 0.930 . S
C806 C805 1.394 . S
C806 C807 1.383 . S
C806 H814 0.929 . S
C807 C806 1.383 . S
C807 C808 1.377 . S
C808 H792 0.930 . S
C808 C807 1.377 . S
C808 C809 1.379 . S
C809 H793 0.931 . S
C809 C803 1.383 . S
C809 C808 1.379 . S
H810 C804 0.959 . S
H811 C804 0.961 . S
H812 C804 0.960 . S
H813 C805 0.930 . S
H814 C806 0.929 . S
H815 C823 0.929 . S
H816 C825 0.930 . S
H817 C827 0.930 . S
H818 C830 0.929 . S
H819 C833 0.930 . S
H820 C835 0.960 . S
H821 C835 0.960 . S
H822 C835 0.960 . S
C823 H815 0.929 . S
C823 C824 1.377 . S
C823 C825 1.384 . S
C824 C823 1.377 . S
C824 C830 1.390 . S
C825 H816 0.930 . S
C825 C823 1.384 . S
C825 C826 1.372 . S
C826 C825 1.372 . S
C826 C827 1.400 . S
C826 C831 1.490 . S
C827 H817 0.930 . S
C827 C826 1.400 . S
C827 C830 1.386 . S
H828 C844 0.930 . S
H829 C845 0.931 . S
C830 H818 0.929 . S
C830 C824 1.390 . S
C830 C827 1.386 . S
C831 C826 1.490 . S
C831 C833 1.395 . S
C831 C834 1.403 . S
H832 C838 0.930 . S
C833 H819 0.930 . S
C833 C831 1.395 . S
C833 C836 1.403 . S
C834 C831 1.403 . S
C834 C835 1.524 . S
C834 C838 1.400 . S
C835 H820 0.960 . S
C835 H821 0.960 . S
C835 H822 0.960 . S
C835 C834 1.524 . S
C836 C833 1.403 . S
C836 C837 1.392 . S
C836 C840 1.495 . S
C837 C836 1.392 . S
C837 C838 1.385 . S
C837 C839 1.478 . S
C838 H832 0.930 . S
C838 C834 1.400 . S
C838 C837 1.385 . S
C839 C837 1.478 . S
C839 C841 1.381 . S
C839 C845 1.383 . S
C840 C836 1.495 . S
C840 H846 0.959 . S
C840 H847 0.961 . S
C840 H848 0.960 . S
C841 C839 1.381 . S
C841 C842 1.394 . S
C841 H849 0.930 . S
C842 C841 1.394 . S
C842 C843 1.383 . S
C842 H850 0.929 . S
C843 C842 1.383 . S
C843 C844 1.377 . S
C844 H828 0.930 . S
C844 C843 1.377 . S
C844 C845 1.379 . S
C845 H829 0.931 . S
C845 C839 1.383 . S
C845 C844 1.379 . S
H846 C840 0.959 . S
H847 C840 0.961 . S
H848 C840 0.960 . S
H849 C841 0.930 . S
H850 C842 0.929 . S
H851 C859 0.929 . S
H852 C861 0.930 . S
H853 C863 0.930 . S
H854 C866 0.929 . S
H855 C869 0.930 . S
H856 C871 0.960 . S
H857 C871 0.960 . S
H858 C871 0.960 . S
C859 H851 0.929 . S
C859 C860 1.377 . S
C859 C861 1.384 . S
C860 C859 1.377 . S
C860 C866 1.390 . S
C861 H852 0.930 . S
C861 C859 1.384 . S
C861 C862 1.372 . S
C862 C861 1.372 . S
C862 C863 1.400 . S
C862 C867 1.490 . S
C863 H853 0.930 . S
C863 C862 1.400 . S
C863 C866 1.386 . S
H864 C880 0.930 . S
H865 C881 0.931 . S
C866 H854 0.929 . S
C866 C860 1.390 . S
C866 C863 1.386 . S
C867 C862 1.490 . S
C867 C869 1.395 . S
C867 C870 1.403 . S
H868 C874 0.930 . S
C869 H855 0.930 . S
C869 C867 1.395 . S
C869 C872 1.403 . S
C870 C867 1.403 . S
C870 C871 1.524 . S
C870 C874 1.400 . S
C871 H856 0.960 . S
C871 H857 0.960 . S
C871 H858 0.960 . S
C871 C870 1.524 . S
C872 C869 1.403 . S
C872 C873 1.392 . S
C872 C876 1.495 . S
C873 C872 1.392 . S
C873 C874 1.385 . S
C873 C875 1.478 . S
C874 H868 0.930 . S
C874 C870 1.400 . S
C874 C873 1.385 . S
C875 C873 1.478 . S
C875 C877 1.381 . S
C875 C881 1.383 . S
C876 C872 1.495 . S
C876 H882 0.959 . S
C876 H883 0.961 . S
C876 H884 0.960 . S
C877 C875 1.381 . S
C877 C878 1.394 . S
C877 H885 0.930 . S
C878 C877 1.394 . S
C878 C879 1.383 . S
C878 H886 0.929 . S
C879 C878 1.383 . S
C879 C880 1.377 . S
C880 H864 0.930 . S
C880 C879 1.377 . S
C880 C881 1.379 . S
C881 H865 0.931 . S
C881 C875 1.383 . S
C881 C880 1.379 . S
H882 C876 0.959 . S
H883 C876 0.961 . S
H884 C876 0.960 . S
H885 C877 0.930 . S
H886 C878 0.929 . S
H887 C895 0.929 . S
H888 C897 0.930 . S
H889 C899 0.930 . S
H890 C902 0.929 . S
H891 C905 0.930 . S
H892 C907 0.960 . S
H893 C907 0.960 . S
H894 C907 0.960 . S
C895 H887 0.929 . S
C895 C896 1.377 . S
C895 C897 1.384 . S
C896 C895 1.377 . S
C896 C902 1.390 . S
C897 H888 0.930 . S
C897 C895 1.384 . S
C897 C898 1.372 . S
C898 C897 1.372 . S
C898 C899 1.400 . S
C898 C903 1.490 . S
C899 H889 0.930 . S
C899 C898 1.400 . S
C899 C902 1.386 . S
H900 C916 0.930 . S
H901 C917 0.931 . S
C902 H890 0.929 . S
C902 C896 1.390 . S
C902 C899 1.386 . S
C903 C898 1.490 . S
C903 C905 1.395 . S
C903 C906 1.403 . S
H904 C910 0.930 . S
C905 H891 0.930 . S
C905 C903 1.395 . S
C905 C908 1.403 . S
C906 C903 1.403 . S
C906 C907 1.524 . S
C906 C910 1.400 . S
C907 H892 0.960 . S
C907 H893 0.960 . S
C907 H894 0.960 . S
C907 C906 1.524 . S
C908 C905 1.403 . S
C908 C909 1.392 . S
C908 C912 1.495 . S
C909 C908 1.392 . S
C909 C910 1.385 . S
C909 C911 1.478 . S
C910 H904 0.930 . S
C910 C906 1.400 . S
C910 C909 1.385 . S
C911 C909 1.478 . S
C911 C913 1.381 . S
C911 C917 1.383 . S
C912 C908 1.495 . S
C912 H918 0.959 . S
C912 H919 0.961 . S
C912 H920 0.960 . S
C913 C911 1.381 . S
C913 C914 1.394 . S
C913 H921 0.930 . S
C914 C913 1.394 . S
C914 C915 1.383 . S
C914 H922 0.929 . S
C915 C914 1.383 . S
C915 C916 1.377 . S
C916 H900 0.930 . S
C916 C915 1.377 . S
C916 C917 1.379 . S
C917 H901 0.931 . S
C917 C911 1.383 . S
C917 C916 1.379 . S
H918 C912 0.959 . S
H919 C912 0.961 . S
H920 C912 0.960 . S
H921 C913 0.930 . S
H922 C914 0.929 . S
H923 C931 0.929 . S
H924 C933 0.930 . S
H925 C935 0.930 . S
H926 C938 0.929 . S
H927 C941 0.930 . S
H928 C943 0.960 . S
H929 C943 0.960 . S
H930 C943 0.960 . S
C931 H923 0.929 . S
C931 C932 1.377 . S
C931 C933 1.384 . S
C932 C931 1.377 . S
C932 C938 1.390 . S
C933 H924 0.930 . S
C933 C931 1.384 . S
C933 C934 1.372 . S
C934 C933 1.372 . S
C934 C935 1.400 . S
C934 C939 1.490 . S
C935 H925 0.930 . S
C935 C934 1.400 . S
C935 C938 1.386 . S
H936 C952 0.930 . S
H937 C953 0.931 . S
C938 H926 0.929 . S
C938 C932 1.390 . S
C938 C935 1.386 . S
C939 C934 1.490 . S
C939 C941 1.395 . S
C939 C942 1.403 . S
H940 C946 0.930 . S
C941 H927 0.930 . S
C941 C939 1.395 . S
C941 C944 1.403 . S
C942 C939 1.403 . S
C942 C943 1.524 . S
C942 C946 1.400 . S
C943 H928 0.960 . S
C943 H929 0.960 . S
C943 H930 0.960 . S
C943 C942 1.524 . S
C944 C941 1.403 . S
C944 C945 1.392 . S
C944 C948 1.495 . S
C945 C944 1.392 . S
C945 C946 1.385 . S
C945 C947 1.478 . S
C946 H940 0.930 . S
C946 C942 1.400 . S
C946 C945 1.385 . S
C947 C945 1.478 . S
C947 C949 1.381 . S
C947 C953 1.383 . S
C948 C944 1.495 . S
C948 H954 0.959 . S
C948 H955 0.961 . S
C948 H956 0.960 . S
C949 C947 1.381 . S
C949 C950 1.394 . S
C949 H957 0.930 . S
C950 C949 1.394 . S
C950 C951 1.383 . S
C950 H958 0.929 . S
C951 C950 1.383 . S
C951 C952 1.377 . S
C952 H936 0.930 . S
C952 C951 1.377 . S
C952 C953 1.379 . S
C953 H937 0.931 . S
C953 C947 1.383 . S
C953 C952 1.379 . S
H954 C948 0.959 . S
H955 C948 0.961 . S
H956 C948 0.960 . S
H957 C949 0.930 . S
H958 C950 0.929 . S
H959 C967 0.929 . S
H960 C969 0.930 . S
H961 C971 0.930 . S
H962 C974 0.929 . S
H963 C977 0.930 . S
H964 C979 0.960 . S
H965 C979 0.960 . S
H966 C979 0.960 . S
C967 H959 0.929 . S
C967 C968 1.377 . S
C967 C969 1.384 . S
C968 C967 1.377 . S
C968 C974 1.390 . S
C969 H960 0.930 . S
C969 C967 1.384 . S
C969 C970 1.372 . S
C970 C969 1.372 . S
C970 C971 1.400 . S
C970 C975 1.490 . S
C971 H961 0.930 . S
C971 C970 1.400 . S
C971 C974 1.386 . S
H972 C988 0.930 . S
H973 C989 0.931 . S
C974 H962 0.929 . S
C974 C968 1.390 . S
C974 C971 1.386 . S
C975 C970 1.490 . S
C975 C977 1.395 . S
C975 C978 1.403 . S
H976 C982 0.930 . S
C977 H963 0.930 . S
C977 C975 1.395 . S
C977 C980 1.403 . S
C978 C975 1.403 . S
C978 C979 1.524 . S
C978 C982 1.400 . S
C979 H964 0.960 . S
C979 H965 0.960 . S
C979 H966 0.960 . S
C979 C978 1.524 . S
C980 C977 1.403 . S
C980 C981 1.392 . S
C980 C984 1.495 . S
C981 C980 1.392 . S
C981 C982 1.385 . S
C981 C983 1.478 . S
C982 H976 0.930 . S
C982 C978 1.400 . S
C982 C981 1.385 . S
C983 C981 1.478 . S
C983 C985 1.381 . S
C983 C989 1.383 . S
C984 C980 1.495 . S
C984 H990 0.959 . S
C984 H991 0.961 . S
C984 H992 0.960 . S
C985 C983 1.381 . S
C985 C986 1.394 . S
C985 H993 0.930 . S
C986 C985 1.394 . S
C986 C987 1.383 . S
C986 H994 0.929 . S
C987 C986 1.383 . S
C987 C988 1.377 . S
C988 H972 0.930 . S
C988 C987 1.377 . S
C988 C989 1.379 . S
C989 H973 0.931 . S
C989 C983 1.383 . S
C989 C988 1.379 . S
H990 C984 0.959 . S
H991 C984 0.961 . S
H992 C984 0.960 . S
H993 C985 0.930 . S
H994 C986 0.929 . S
H995 C1003 0.929 . S
H996 C1005 0.930 . S
H997 C1007 0.930 . S
H998 C1010 0.929 . S
H999 C1013 0.930 . S
H1000 C1015 0.960 . S
H1001 C1015 0.960 . S
H1002 C1015 0.960 . S
C1003 H995 0.929 . S
C1003 C1004 1.377 . S
C1003 C1005 1.384 . S
C1004 C1003 1.377 . S
C1004 C1010 1.390 . S
C1005 H996 0.930 . S
C1005 C1003 1.384 . S
C1005 C1006 1.372 . S
C1006 C1005 1.372 . S
C1006 C1007 1.400 . S
C1006 C1011 1.490 . S
C1007 H997 0.930 . S
C1007 C1006 1.400 . S
C1007 C1010 1.386 . S
H1008 C1024 0.930 . S
H1009 C1025 0.931 . S
C1010 H998 0.929 . S
C1010 C1004 1.390 . S
C1010 C1007 1.386 . S
C1011 C1006 1.490 . S
C1011 C1013 1.395 . S
C1011 C1014 1.403 . S
H1012 C1018 0.930 . S
C1013 H999 0.930 . S
C1013 C1011 1.395 . S
C1013 C1016 1.403 . S
C1014 C1011 1.403 . S
C1014 C1015 1.524 . S
C1014 C1018 1.400 . S
C1015 H1000 0.960 . S
C1015 H1001 0.960 . S
C1015 H1002 0.960 . S
C1015 C1014 1.524 . S
C1016 C1013 1.403 . S
C1016 C1017 1.392 . S
C1016 C1020 1.495 . S
C1017 C1016 1.392 . S
C1017 C1018 1.385 . S
C1017 C1019 1.478 . S
C1018 H1012 0.930 . S
C1018 C1014 1.400 . S
C1018 C1017 1.385 . S
C1019 C1017 1.478 . S
C1019 C1021 1.381 . S
C1019 C1025 1.383 . S
C1020 C1016 1.495 . S
C1020 H1026 0.959 . S
C1020 H1027 0.961 . S
C1020 H1028 0.960 . S
C1021 C1019 1.381 . S
C1021 C1022 1.394 . S
C1021 H1029 0.930 . S
C1022 C1021 1.394 . S
C1022 C1023 1.383 . S
C1022 H1030 0.929 . S
C1023 C1022 1.383 . S
C1023 C1024 1.377 . S
C1024 H1008 0.930 . S
C1024 C1023 1.377 . S
C1024 C1025 1.379 . S
C1025 H1009 0.931 . S
C1025 C1019 1.383 . S
C1025 C1024 1.379 . S
H1026 C1020 0.959 . S
H1027 C1020 0.961 . S
H1028 C1020 0.960 . S
H1029 C1021 0.930 . S
H1030 C1022 0.929 . S
H1031 C1039 0.929 . S
H1032 C1041 0.930 . S
H1033 C1043 0.930 . S
H1034 C1046 0.929 . S
H1035 C1049 0.930 . S
H1036 C1051 0.960 . S
H1037 C1051 0.960 . S
H1038 C1051 0.960 . S
C1039 H1031 0.929 . S
C1039 C1040 1.377 . S
C1039 C1041 1.384 . S
C1040 C1039 1.377 . S
C1040 C1046 1.390 . S
C1041 H1032 0.930 . S
C1041 C1039 1.384 . S
C1041 C1042 1.372 . S
C1042 C1041 1.372 . S
C1042 C1043 1.400 . S
C1042 C1047 1.490 . S
C1043 H1033 0.930 . S
C1043 C1042 1.400 . S
C1043 C1046 1.386 . S
H1044 C1060 0.930 . S
H1045 C1061 0.931 . S
C1046 H1034 0.929 . S
C1046 C1040 1.390 . S
C1046 C1043 1.386 . S
C1047 C1042 1.490 . S
C1047 C1049 1.395 . S
C1047 C1050 1.403 . S
H1048 C1054 0.930 . S
C1049 H1035 0.930 . S
C1049 C1047 1.395 . S
C1049 C1052 1.403 . S
C1050 C1047 1.403 . S
C1050 C1051 1.524 . S
C1050 C1054 1.400 . S
C1051 H1036 0.960 . S
C1051 H1037 0.960 . S
C1051 H1038 0.960 . S
C1051 C1050 1.524 . S
C1052 C1049 1.403 . S
C1052 C1053 1.392 . S
C1052 C1056 1.495 . S
C1053 C1052 1.392 . S
C1053 C1054 1.385 . S
C1053 C1055 1.478 . S
C1054 H1048 0.930 . S
C1054 C1050 1.400 . S
C1054 C1053 1.385 . S
C1055 C1053 1.478 . S
C1055 C1057 1.381 . S
C1055 C1061 1.383 . S
C1056 C1052 1.495 . S
C1056 H1062 0.959 . S
C1056 H1063 0.961 . S
C1056 H1064 0.960 . S
C1057 C1055 1.381 . S
C1057 C1058 1.394 . S
C1057 H1065 0.930 . S
C1058 C1057 1.394 . S
C1058 C1059 1.383 . S
C1058 H1066 0.929 . S
C1059 C1058 1.383 . S
C1059 C1060 1.377 . S
C1060 H1044 0.930 . S
C1060 C1059 1.377 . S
C1060 C1061 1.379 . S
C1061 H1045 0.931 . S
C1061 C1055 1.383 . S
C1061 C1060 1.379 . S
H1062 C1056 0.959 . S
H1063 C1056 0.961 . S
H1064 C1056 0.960 . S
H1065 C1057 0.930 . S
H1066 C1058 0.929 . S
H1067 C1075 0.929 . S
H1068 C1077 0.930 . S
H1069 C1079 0.930 . S
H1070 C1082 0.929 . S
H1071 C1085 0.930 . S
H1072 C1087 0.960 . S
H1073 C1087 0.960 . S
H1074 C1087 0.960 . S
C1075 H1067 0.929 . S
C1075 C1076 1.377 . S
C1075 C1077 1.384 . S
C1076 C1075 1.377 . S
C1076 C1082 1.390 . S
C1077 H1068 0.930 . S
C1077 C1075 1.384 . S
C1077 C1078 1.372 . S
C1078 C1077 1.372 . S
C1078 C1079 1.400 . S
C1078 C1083 1.490 . S
C1079 H1069 0.930 . S
C1079 C1078 1.400 . S
C1079 C1082 1.386 . S
H1080 C1096 0.930 . S
H1081 C1097 0.931 . S
C1082 H1070 0.929 . S
C1082 C1076 1.390 . S
C1082 C1079 1.386 . S
C1083 C1078 1.490 . S
C1083 C1085 1.395 . S
C1083 C1086 1.403 . S
H1084 C1090 0.930 . S
C1085 H1071 0.930 . S
C1085 C1083 1.395 . S
C1085 C1088 1.403 . S
C1086 C1083 1.403 . S
C1086 C1087 1.524 . S
C1086 C1090 1.400 . S
C1087 H1072 0.960 . S
C1087 H1073 0.960 . S
C1087 H1074 0.960 . S
C1087 C1086 1.524 . S
C1088 C1085 1.403 . S
C1088 C1089 1.392 . S
C1088 C1092 1.495 . S
C1089 C1088 1.392 . S
C1089 C1090 1.385 . S
C1089 C1091 1.478 . S
C1090 H1084 0.930 . S
C1090 C1086 1.400 . S
C1090 C1089 1.385 . S
C1091 C1089 1.478 . S
C1091 C1093 1.381 . S
C1091 C1097 1.383 . S
C1092 C1088 1.495 . S
C1092 H1098 0.959 . S
C1092 H1099 0.961 . S
C1092 H1100 0.960 . S
C1093 C1091 1.381 . S
C1093 C1094 1.394 . S
C1093 H1101 0.930 . S
C1094 C1093 1.394 . S
C1094 C1095 1.383 . S
C1094 H1102 0.929 . S
C1095 C1094 1.383 . S
C1095 C1096 1.377 . S
C1096 H1080 0.930 . S
C1096 C1095 1.377 . S
C1096 C1097 1.379 . S
C1097 H1081 0.931 . S
C1097 C1091 1.383 . S
C1097 C1096 1.379 . S
H1098 C1092 0.959 . S
H1099 C1092 0.961 . S
H1100 C1092 0.960 . S
H1101 C1093 0.930 . S
H1102 C1094 0.929 . S
H1103 C1111 0.929 . S
H1104 C1113 0.930 . S
H1105 C1115 0.930 . S
H1106 C1118 0.929 . S
H1107 C1121 0.930 . S
H1108 C1123 0.960 . S
H1109 C1123 0.960 . S
H1110 C1123 0.960 . S
C1111 H1103 0.929 . S
C1111 C1112 1.377 . S
C1111 C1113 1.384 . S
C1112 C1111 1.377 . S
C1112 C1118 1.390 . S
C1113 H1104 0.930 . S
C1113 C1111 1.384 . S
C1113 C1114 1.372 . S
C1114 C1113 1.372 . S
C1114 C1115 1.400 . S
C1114 C1119 1.490 . S
C1115 H1105 0.930 . S
C1115 C1114 1.400 . S
C1115 C1118 1.386 . S
H1116 C1132 0.930 . S
H1117 C1133 0.931 . S
C1118 H1106 0.929 . S
C1118 C1112 1.390 . S
C1118 C1115 1.386 . S
C1119 C1114 1.490 . S
C1119 C1121 1.395 . S
C1119 C1122 1.403 . S
H1120 C1126 0.930 . S
C1121 H1107 0.930 . S
C1121 C1119 1.395 . S
C1121 C1124 1.403 . S
C1122 C1119 1.403 . S
C1122 C1123 1.524 . S
C1122 C1126 1.400 . S
C1123 H1108 0.960 . S
C1123 H1109 0.960 . S
C1123 H1110 0.960 . S
C1123 C1122 1.524 . S
C1124 C1121 1.403 . S
C1124 C1125 1.392 . S
C1124 C1128 1.495 . S
C1125 C1124 1.392 . S
C1125 C1126 1.385 . S
C1125 C1127 1.478 . S
C1126 H1120 0.930 . S
C1126 C1122 1.400 . S
C1126 C1125 1.385 . S
C1127 C1125 1.478 . S
C1127 C1129 1.381 . S
C1127 C1133 1.383 . S
C1128 C1124 1.495 . S
C1128 H1134 0.959 . S
C1128 H1135 0.961 . S
C1128 H1136 0.960 . S
C1129 C1127 1.381 . S
C1129 C1130 1.394 . S
C1129 H1137 0.930 . S
C1130 C1129 1.394 . S
C1130 C1131 1.383 . S
C1130 H1138 0.929 . S
C1131 C1130 1.383 . S
C1131 C1132 1.377 . S
C1132 H1116 0.930 . S
C1132 C1131 1.377 . S
C1132 C1133 1.379 . S
C1133 H1117 0.931 . S
C1133 C1127 1.383 . S
C1133 C1132 1.379 . S
H1134 C1128 0.959 . S
H1135 C1128 0.961 . S
H1136 C1128 0.960 . S
H1137 C1129 0.930 . S
H1138 C1130 0.929 . S
H1139 C1147 0.929 . S
H1140 C1149 0.930 . S
H1141 C1151 0.930 . S
H1142 C1154 0.929 . S
H1143 C1157 0.930 . S
H1144 C1159 0.960 . S
H1145 C1159 0.960 . S
H1146 C1159 0.960 . S
C1147 H1139 0.929 . S
C1147 C1148 1.377 . S
C1147 C1149 1.384 . S
C1148 C1147 1.377 . S
C1148 C1154 1.390 . S
C1149 H1140 0.930 . S
C1149 C1147 1.384 . S
C1149 C1150 1.372 . S
C1150 C1149 1.372 . S
C1150 C1151 1.400 . S
C1150 C1155 1.490 . S
C1151 H1141 0.930 . S
C1151 C1150 1.400 . S
C1151 C1154 1.386 . S
H1152 C1168 0.930 . S
H1153 C1169 0.931 . S
C1154 H1142 0.929 . S
C1154 C1148 1.390 . S
C1154 C1151 1.386 . S
C1155 C1150 1.490 . S
C1155 C1157 1.395 . S
C1155 C1158 1.403 . S
H1156 C1162 0.930 . S
C1157 H1143 0.930 . S
C1157 C1155 1.395 . S
C1157 C1160 1.403 . S
C1158 C1155 1.403 . S
C1158 C1159 1.524 . S
C1158 C1162 1.400 . S
C1159 H1144 0.960 . S
C1159 H1145 0.960 . S
C1159 H1146 0.960 . S
C1159 C1158 1.524 . S
C1160 C1157 1.403 . S
C1160 C1161 1.392 . S
C1160 C1164 1.495 . S
C1161 C1160 1.392 . S
C1161 C1162 1.385 . S
C1161 C1163 1.478 . S
C1162 H1156 0.930 . S
C1162 C1158 1.400 . S
C1162 C1161 1.385 . S
C1163 C1161 1.478 . S
C1163 C1165 1.381 . S
C1163 C1169 1.383 . S
C1164 C1160 1.495 . S
C1164 H1170 0.959 . S
C1164 H1171 0.961 . S
C1164 H1172 0.960 . S
C1165 C1163 1.381 . S
C1165 C1166 1.394 . S
C1165 H1173 0.930 . S
C1166 C1165 1.394 . S
C1166 C1167 1.383 . S
C1166 H1174 0.929 . S
C1167 C1166 1.383 . S
C1167 C1168 1.377 . S
C1168 H1152 0.930 . S
C1168 C1167 1.377 . S
C1168 C1169 1.379 . S
C1169 H1153 0.931 . S
C1169 C1163 1.383 . S
C1169 C1168 1.379 . S
H1170 C1164 0.959 . S
H1171 C1164 0.961 . S
H1172 C1164 0.960 . S
H1173 C1165 0.930 . S
H1174 C1166 0.929 . S
H1175 C1183 0.929 . S
H1176 C1185 0.930 . S
H1177 C1187 0.930 . S
H1178 C1190 0.929 . S
H1179 C1193 0.930 . S
H1180 C1195 0.960 . S
H1181 C1195 0.960 . S
H1182 C1195 0.960 . S
C1183 H1175 0.929 . S
C1183 C1184 1.377 . S
C1183 C1185 1.384 . S
C1184 C1183 1.377 . S
C1184 C1190 1.390 . S
C1185 H1176 0.930 . S
C1185 C1183 1.384 . S
C1185 C1186 1.372 . S
C1186 C1185 1.372 . S
C1186 C1187 1.400 . S
C1186 C1191 1.490 . S
C1187 H1177 0.930 . S
C1187 C1186 1.400 . S
C1187 C1190 1.386 . S
H1188 C1204 0.930 . S
H1189 C1205 0.931 . S
C1190 H1178 0.929 . S
C1190 C1184 1.390 . S
C1190 C1187 1.386 . S
C1191 C1186 1.490 . S
C1191 C1193 1.395 . S
C1191 C1194 1.403 . S
H1192 C1198 0.930 . S
C1193 H1179 0.930 . S
C1193 C1191 1.395 . S
C1193 C1196 1.403 . S
C1194 C1191 1.403 . S
C1194 C1195 1.524 . S
C1194 C1198 1.400 . S
C1195 H1180 0.960 . S
C1195 H1181 0.960 . S
C1195 H1182 0.960 . S
C1195 C1194 1.524 . S
C1196 C1193 1.403 . S
C1196 C1197 1.392 . S
C1196 C1200 1.495 . S
C1197 C1196 1.392 . S
C1197 C1198 1.385 . S
C1197 C1199 1.478 . S
C1198 H1192 0.930 . S
C1198 C1194 1.400 . S
C1198 C1197 1.385 . S
C1199 C1197 1.478 . S
C1199 C1201 1.381 . S
C1199 C1205 1.383 . S
C1200 C1196 1.495 . S
C1200 H1206 0.959 . S
C1200 H1207 0.961 . S
C1200 H1208 0.960 . S
C1201 C1199 1.381 . S
C1201 C1202 1.394 . S
C1201 H1209 0.930 . S
C1202 C1201 1.394 . S
C1202 C1203 1.383 . S
C1202 H1210 0.929 . S
C1203 C1202 1.383 . S
C1203 C1204 1.377 . S
C1204 H1188 0.930 . S
C1204 C1203 1.377 . S
C1204 C1205 1.379 . S
C1205 H1189 0.931 . S
C1205 C1199 1.383 . S
C1205 C1204 1.379 . S
H1206 C1200 0.959 . S
H1207 C1200 0.961 . S
H1208 C1200 0.960 . S
H1209 C1201 0.930 . S
H1210 C1202 0.929 . S
H1211 C1219 0.929 . S
H1212 C1221 0.930 . S
H1213 C1223 0.930 . S
H1214 C1226 0.929 . S
H1215 C1229 0.930 . S
H1216 C1231 0.960 . S
H1217 C1231 0.960 . S
H1218 C1231 0.960 . S
C1219 H1211 0.929 . S
C1219 C1220 1.377 . S
C1219 C1221 1.384 . S
C1220 C1219 1.377 . S
C1220 C1226 1.390 . S
C1221 H1212 0.930 . S
C1221 C1219 1.384 . S
C1221 C1222 1.372 . S
C1222 C1221 1.372 . S
C1222 C1223 1.400 . S
C1222 C1227 1.490 . S
C1223 H1213 0.930 . S
C1223 C1222 1.400 . S
C1223 C1226 1.386 . S
H1224 C1240 0.930 . S
H1225 C1241 0.931 . S
C1226 H1214 0.929 . S
C1226 C1220 1.390 . S
C1226 C1223 1.386 . S
C1227 C1222 1.490 . S
C1227 C1229 1.395 . S
C1227 C1230 1.403 . S
H1228 C1234 0.930 . S
C1229 H1215 0.930 . S
C1229 C1227 1.395 . S
C1229 C1232 1.403 . S
C1230 C1227 1.403 . S
C1230 C1231 1.524 . S
C1230 C1234 1.400 . S
C1231 H1216 0.960 . S
C1231 H1217 0.960 . S
C1231 H1218 0.960 . S
C1231 C1230 1.524 . S
C1232 C1229 1.403 . S
C1232 C1233 1.392 . S
C1232 C1236 1.495 . S
C1233 C1232 1.392 . S
C1233 C1234 1.385 . S
C1233 C1235 1.478 . S
C1234 H1228 0.930 . S
C1234 C1230 1.400 . S
C1234 C1233 1.385 . S
C1235 C1233 1.478 . S
C1235 C1237 1.381 . S
C1235 C1241 1.383 . S
C1236 C1232 1.495 . S
C1236 H1242 0.959 . S
C1236 H1243 0.961 . S
C1236 H1244 0.960 . S
C1237 C1235 1.381 . S
C1237 C1238 1.394 . S
C1237 H1245 0.930 . S
C1238 C1237 1.394 . S
C1238 C1239 1.383 . S
C1238 H1246 0.929 . S
C1239 C1238 1.383 . S
C1239 C1240 1.377 . S
C1240 H1224 0.930 . S
C1240 C1239 1.377 . S
C1240 C1241 1.379 . S
C1241 H1225 0.931 . S
C1241 C1235 1.383 . S
C1241 C1240 1.379 . S
H1242 C1236 0.959 . S
H1243 C1236 0.961 . S
H1244 C1236 0.960 . S
H1245 C1237 0.930 . S
H1246 C1238 0.929 . S
H1247 C1255 0.929 . S
H1248 C1257 0.930 . S
H1249 C1259 0.930 . S
H1250 C1262 0.929 . S
H1251 C1265 0.930 . S
H1252 C1267 0.960 . S
H1253 C1267 0.960 . S
H1254 C1267 0.960 . S
C1255 H1247 0.929 . S
C1255 C1256 1.377 . S
C1255 C1257 1.384 . S
C1256 C1255 1.377 . S
C1256 C1262 1.390 . S
C1257 H1248 0.930 . S
C1257 C1255 1.384 . S
C1257 C1258 1.372 . S
C1258 C1257 1.372 . S
C1258 C1259 1.400 . S
C1258 C1263 1.490 . S
C1259 H1249 0.930 . S
C1259 C1258 1.400 . S
C1259 C1262 1.386 . S
H1260 C1276 0.930 . S
H1261 C1277 0.931 . S
C1262 H1250 0.929 . S
C1262 C1256 1.390 . S
C1262 C1259 1.386 . S
C1263 C1258 1.490 . S
C1263 C1265 1.395 . S
C1263 C1266 1.403 . S
H1264 C1270 0.930 . S
C1265 H1251 0.930 . S
C1265 C1263 1.395 . S
C1265 C1268 1.403 . S
C1266 C1263 1.403 . S
C1266 C1267 1.524 . S
C1266 C1270 1.400 . S
C1267 H1252 0.960 . S
C1267 H1253 0.960 . S
C1267 H1254 0.960 . S
C1267 C1266 1.524 . S
C1268 C1265 1.403 . S
C1268 C1269 1.392 . S
C1268 C1272 1.495 . S
C1269 C1268 1.392 . S
C1269 C1270 1.385 . S
C1269 C1271 1.478 . S
C1270 H1264 0.930 . S
C1270 C1266 1.400 . S
C1270 C1269 1.385 . S
C1271 C1269 1.478 . S
C1271 C1273 1.381 . S
C1271 C1277 1.383 . S
C1272 C1268 1.495 . S
C1272 H1278 0.959 . S
C1272 H1279 0.961 . S
C1272 H1280 0.960 . S
C1273 C1271 1.381 . S
C1273 C1274 1.394 . S
C1273 H1281 0.930 . S
C1274 C1273 1.394 . S
C1274 C1275 1.383 . S
C1274 H1282 0.929 . S
C1275 C1274 1.383 . S
C1275 C1276 1.377 . S
C1276 H1260 0.930 . S
C1276 C1275 1.377 . S
C1276 C1277 1.379 . S
C1277 H1261 0.931 . S
C1277 C1271 1.383 . S
C1277 C1276 1.379 . S
H1278 C1272 0.959 . S
H1279 C1272 0.961 . S
H1280 C1272 0.960 . S
H1281 C1273 0.930 . S
H1282 C1274 0.929 . S
C447 C344 0.997 . S
C428 C15 1.014 . S
C483 C380 1.629 . S
C464 C55 1.691 . S
C519 C345 1.450 . S
C500 C101 1.465 . S
C555 C375 1.600 . S
C536 C141 1.587 . S
C591 C342 1.429 . S
C572 C162 1.473 . S
C608 C215 1.764 . S
C627 C378 1.761 . S
C644 C261 1.113 . S
C663 C347 1.099 . S
C699 C377 1.418 . S
C680 C282 1.429 . S
C735 C381 1.483 . S
C716 C2 1.501 . S
C771 C346 1.432 . S
C752 C61 1.459 . S
C807 C374 1.770 . S
C788 C95 1.754 . S
C843 C343 0.960 . S
C824 C122 1.068 . S
C879 C376 1.667 . S
C860 C181 1.764 . S
C896 C202 1.473 . S
C915 C341 1.467 . S
C932 C242 1.539 . S
C951 C379 1.550 . S
C987 C348 0.869 . S
C968 C295 0.950 . S
C1023 C410 1.844 . S
C1004 C21 1.940 . S
C1040 C175 1.973 . S
C1059 C413 1.834 . S
C1095 C412 1.835 . S
C1076 C221 1.906 . S
C1112 C255 2.185 . S
C1131 C411 2.168 . S
C1167 C414 1.783 . S
C1148 C301 1.869 . S
C1184 C82 1.789 . S
C1203 C408 1.728 . S
C1239 C407 2.211 . S
C1220 C135 2.210 . S
C1256 C42 1.958 . S
C1275 C409 1.878 . S
